# Generated by pormake.
# Topology fgl, (4,4)-cn, num edge types: 1
# Building blocks:
#     Node 0, Type 0, BuildingBlock: ESEHIV_clean_sbu_0, # of connection points: 4
#     Node 1, Type 0, BuildingBlock: ESEHIV_clean_sbu_0, # of connection points: 4
#     Node 2, Type 0, BuildingBlock: ESEHIV_clean_sbu_0, # of connection points: 4
#     Node 3, Type 0, BuildingBlock: ESEHIV_clean_sbu_0, # of connection points: 4
#     Node 4, Type 0, BuildingBlock: ESEHIV_clean_sbu_0, # of connection points: 4
#     Node 5, Type 0, BuildingBlock: ESEHIV_clean_sbu_0, # of connection points: 4
#     Node 6, Type 0, BuildingBlock: ESEHIV_clean_sbu_0, # of connection points: 4
#     Node 7, Type 0, BuildingBlock: ESEHIV_clean_sbu_0, # of connection points: 4
#     Node 8, Type 0, BuildingBlock: ESEHIV_clean_sbu_0, # of connection points: 4
#     Node 9, Type 0, BuildingBlock: ESEHIV_clean_sbu_0, # of connection points: 4
#     Node 10, Type 0, BuildingBlock: ESEHIV_clean_sbu_0, # of connection points: 4
#     Node 11, Type 0, BuildingBlock: ESEHIV_clean_sbu_0, # of connection points: 4
#     Node 12, Type 0, BuildingBlock: ESEHIV_clean_sbu_0, # of connection points: 4
#     Node 13, Type 0, BuildingBlock: ESEHIV_clean_sbu_0, # of connection points: 4
#     Node 14, Type 0, BuildingBlock: ESEHIV_clean_sbu_0, # of connection points: 4
#     Node 15, Type 0, BuildingBlock: ESEHIV_clean_sbu_0, # of connection points: 4
#     Node 16, Type 0, BuildingBlock: ESEHIV_clean_sbu_0, # of connection points: 4
#     Node 17, Type 0, BuildingBlock: ESEHIV_clean_sbu_0, # of connection points: 4
#     Node 18, Type 1, BuildingBlock: TATPOV_clean_sbu_0, # of connection points: 4
#     Node 19, Type 1, BuildingBlock: TATPOV_clean_sbu_0, # of connection points: 4
#     Node 20, Type 1, BuildingBlock: TATPOV_clean_sbu_0, # of connection points: 4
#     Node 21, Type 1, BuildingBlock: TATPOV_clean_sbu_0, # of connection points: 4
#     Node 22, Type 1, BuildingBlock: TATPOV_clean_sbu_0, # of connection points: 4
#     Node 23, Type 1, BuildingBlock: TATPOV_clean_sbu_0, # of connection points: 4
#     Node 24, Type 1, BuildingBlock: TATPOV_clean_sbu_0, # of connection points: 4
#     Node 25, Type 1, BuildingBlock: TATPOV_clean_sbu_0, # of connection points: 4
#     Node 26, Type 1, BuildingBlock: TATPOV_clean_sbu_0, # of connection points: 4
#     Node 27, Type 1, BuildingBlock: TATPOV_clean_sbu_0, # of connection points: 4
#     Node 28, Type 1, BuildingBlock: TATPOV_clean_sbu_0, # of connection points: 4
#     Node 29, Type 1, BuildingBlock: TATPOV_clean_sbu_0, # of connection points: 4
#     Node 30, Type 1, BuildingBlock: TATPOV_clean_sbu_0, # of connection points: 4
#     Node 31, Type 1, BuildingBlock: TATPOV_clean_sbu_0, # of connection points: 4
#     Node 32, Type 1, BuildingBlock: TATPOV_clean_sbu_0, # of connection points: 4
#     Node 33, Type 1, BuildingBlock: TATPOV_clean_sbu_0, # of connection points: 4
#     Node 34, Type 1, BuildingBlock: TATPOV_clean_sbu_0, # of connection points: 4
#     Node 35, Type 1, BuildingBlock: TATPOV_clean_sbu_0, # of connection points: 4
#     Edge 36, Type (0, 1), BuildingBlock: KIFKEQ_clean_linker_1, # of connection points: 2
#     Edge 37, Type (0, 1), BuildingBlock: KIFKEQ_clean_linker_1, # of connection points: 2
#     Edge 38, Type (0, 1), BuildingBlock: KIFKEQ_clean_linker_1, # of connection points: 2
#     Edge 39, Type (0, 1), BuildingBlock: KIFKEQ_clean_linker_1, # of connection points: 2
#     Edge 40, Type (0, 1), BuildingBlock: KIFKEQ_clean_linker_1, # of connection points: 2
#     Edge 41, Type (0, 1), BuildingBlock: KIFKEQ_clean_linker_1, # of connection points: 2
#     Edge 42, Type (0, 1), BuildingBlock: KIFKEQ_clean_linker_1, # of connection points: 2
#     Edge 43, Type (0, 1), BuildingBlock: KIFKEQ_clean_linker_1, # of connection points: 2
#     Edge 44, Type (0, 1), BuildingBlock: KIFKEQ_clean_linker_1, # of connection points: 2
#     Edge 45, Type (0, 1), BuildingBlock: KIFKEQ_clean_linker_1, # of connection points: 2
#     Edge 46, Type (0, 1), BuildingBlock: KIFKEQ_clean_linker_1, # of connection points: 2
#     Edge 47, Type (0, 1), BuildingBlock: KIFKEQ_clean_linker_1, # of connection points: 2
#     Edge 48, Type (0, 1), BuildingBlock: KIFKEQ_clean_linker_1, # of connection points: 2
#     Edge 49, Type (0, 1), BuildingBlock: KIFKEQ_clean_linker_1, # of connection points: 2
#     Edge 50, Type (0, 1), BuildingBlock: KIFKEQ_clean_linker_1, # of connection points: 2
#     Edge 51, Type (0, 1), BuildingBlock: KIFKEQ_clean_linker_1, # of connection points: 2
#     Edge 52, Type (0, 1), BuildingBlock: KIFKEQ_clean_linker_1, # of connection points: 2
#     Edge 53, Type (0, 1), BuildingBlock: KIFKEQ_clean_linker_1, # of connection points: 2
#     Edge 54, Type (0, 1), BuildingBlock: KIFKEQ_clean_linker_1, # of connection points: 2
#     Edge 55, Type (0, 1), BuildingBlock: KIFKEQ_clean_linker_1, # of connection points: 2
#     Edge 56, Type (0, 1), BuildingBlock: KIFKEQ_clean_linker_1, # of connection points: 2
#     Edge 57, Type (0, 1), BuildingBlock: KIFKEQ_clean_linker_1, # of connection points: 2
#     Edge 58, Type (0, 1), BuildingBlock: KIFKEQ_clean_linker_1, # of connection points: 2
#     Edge 59, Type (0, 1), BuildingBlock: KIFKEQ_clean_linker_1, # of connection points: 2
#     Edge 60, Type (0, 1), BuildingBlock: KIFKEQ_clean_linker_1, # of connection points: 2
#     Edge 61, Type (0, 1), BuildingBlock: KIFKEQ_clean_linker_1, # of connection points: 2
#     Edge 62, Type (0, 1), BuildingBlock: KIFKEQ_clean_linker_1, # of connection points: 2
#     Edge 63, Type (0, 1), BuildingBlock: KIFKEQ_clean_linker_1, # of connection points: 2
#     Edge 64, Type (0, 1), BuildingBlock: KIFKEQ_clean_linker_1, # of connection points: 2
#     Edge 65, Type (0, 1), BuildingBlock: KIFKEQ_clean_linker_1, # of connection points: 2
#     Edge 66, Type (0, 1), BuildingBlock: KIFKEQ_clean_linker_1, # of connection points: 2
#     Edge 67, Type (0, 1), BuildingBlock: KIFKEQ_clean_linker_1, # of connection points: 2
#     Edge 68, Type (0, 1), BuildingBlock: KIFKEQ_clean_linker_1, # of connection points: 2
#     Edge 69, Type (0, 1), BuildingBlock: KIFKEQ_clean_linker_1, # of connection points: 2
#     Edge 70, Type (0, 1), BuildingBlock: KIFKEQ_clean_linker_1, # of connection points: 2
#     Edge 71, Type (0, 1), BuildingBlock: KIFKEQ_clean_linker_1, # of connection points: 2
#     Edge 72, Type (0, 1), BuildingBlock: KIFKEQ_clean_linker_1, # of connection points: 2
#     Edge 73, Type (0, 1), BuildingBlock: KIFKEQ_clean_linker_1, # of connection points: 2
#     Edge 74, Type (0, 1), BuildingBlock: KIFKEQ_clean_linker_1, # of connection points: 2
#     Edge 75, Type (0, 1), BuildingBlock: KIFKEQ_clean_linker_1, # of connection points: 2
#     Edge 76, Type (0, 1), BuildingBlock: KIFKEQ_clean_linker_1, # of connection points: 2
#     Edge 77, Type (0, 1), BuildingBlock: KIFKEQ_clean_linker_1, # of connection points: 2
#     Edge 78, Type (0, 1), BuildingBlock: KIFKEQ_clean_linker_1, # of connection points: 2
#     Edge 79, Type (0, 1), BuildingBlock: KIFKEQ_clean_linker_1, # of connection points: 2
#     Edge 80, Type (0, 1), BuildingBlock: KIFKEQ_clean_linker_1, # of connection points: 2
#     Edge 81, Type (0, 1), BuildingBlock: KIFKEQ_clean_linker_1, # of connection points: 2
#     Edge 82, Type (0, 1), BuildingBlock: KIFKEQ_clean_linker_1, # of connection points: 2
#     Edge 83, Type (0, 1), BuildingBlock: KIFKEQ_clean_linker_1, # of connection points: 2
#     Edge 84, Type (0, 1), BuildingBlock: KIFKEQ_clean_linker_1, # of connection points: 2
#     Edge 85, Type (0, 1), BuildingBlock: KIFKEQ_clean_linker_1, # of connection points: 2
#     Edge 86, Type (0, 1), BuildingBlock: KIFKEQ_clean_linker_1, # of connection points: 2
#     Edge 87, Type (0, 1), BuildingBlock: KIFKEQ_clean_linker_1, # of connection points: 2
#     Edge 88, Type (0, 1), BuildingBlock: KIFKEQ_clean_linker_1, # of connection points: 2
#     Edge 89, Type (0, 1), BuildingBlock: KIFKEQ_clean_linker_1, # of connection points: 2
#     Edge 90, Type (0, 1), BuildingBlock: KIFKEQ_clean_linker_1, # of connection points: 2
#     Edge 91, Type (0, 1), BuildingBlock: KIFKEQ_clean_linker_1, # of connection points: 2
#     Edge 92, Type (0, 1), BuildingBlock: KIFKEQ_clean_linker_1, # of connection points: 2
#     Edge 93, Type (0, 1), BuildingBlock: KIFKEQ_clean_linker_1, # of connection points: 2
#     Edge 94, Type (0, 1), BuildingBlock: KIFKEQ_clean_linker_1, # of connection points: 2
#     Edge 95, Type (0, 1), BuildingBlock: KIFKEQ_clean_linker_1, # of connection points: 2
#     Edge 96, Type (0, 1), BuildingBlock: KIFKEQ_clean_linker_1, # of connection points: 2
#     Edge 97, Type (0, 1), BuildingBlock: KIFKEQ_clean_linker_1, # of connection points: 2
#     Edge 98, Type (0, 1), BuildingBlock: KIFKEQ_clean_linker_1, # of connection points: 2
#     Edge 99, Type (0, 1), BuildingBlock: KIFKEQ_clean_linker_1, # of connection points: 2
#     Edge 100, Type (0, 1), BuildingBlock: KIFKEQ_clean_linker_1, # of connection points: 2
#     Edge 101, Type (0, 1), BuildingBlock: KIFKEQ_clean_linker_1, # of connection points: 2
#     Edge 102, Type (0, 1), BuildingBlock: KIFKEQ_clean_linker_1, # of connection points: 2
#     Edge 103, Type (0, 1), BuildingBlock: KIFKEQ_clean_linker_1, # of connection points: 2
#     Edge 104, Type (0, 1), BuildingBlock: KIFKEQ_clean_linker_1, # of connection points: 2
#     Edge 105, Type (0, 1), BuildingBlock: KIFKEQ_clean_linker_1, # of connection points: 2
#     Edge 106, Type (0, 1), BuildingBlock: KIFKEQ_clean_linker_1, # of connection points: 2
#     Edge 107, Type (0, 1), BuildingBlock: KIFKEQ_clean_linker_1, # of connection points: 2
# Relax obj value: 0.032
# Max RMSD: 0.135
# Mean RMSD: 0.102
data_MOF--net-fgl--node1-ESEHIV_clean_sbu_0--node2-TATPOV_clean_sbu_0--edge1-KIFKEQ_clean_linker_1
_symmetry_space_group_name_H-M    P1
_symmetry_Int_Tables_number       1
_symmetry_cell_setting            triclinic
loop_
_symmetry_equiv_pos_as_xyz
'x, y, z'
_cell_length_a     74.841578
_cell_length_b     77.428145
_cell_length_c     51.891623
_cell_angle_alpha  89.849855
_cell_angle_beta   90.35408
_cell_angle_gamma 119.87397
loop_
_atom_site_label
_atom_site_type_symbol
_atom_site_fract_x
_atom_site_fract_y
_atom_site_fract_z
_atom_type_partial_charge
Cu0 Cu 0.02949 0.55102 1.00282 0.0
N1 N 0.04767 0.57112 0.02486 0.0
N2 N 0.05862 0.59217 0.05827 0.0
C3 C 0.04213 0.57783 0.04549 0.0
C4 C 0.07519 0.59454 0.04501 0.0
C5 C 0.06837 0.58147 0.02445 0.0
O6 O 1.0064 0.55546 0.99782 0.0
C7 C 0.01103 0.50854 1.01069 0.0
O8 O 1.0006 0.50608 0.98926 0.0
H9 H 0.02624 0.57243 0.05073 0.0
H10 H 0.0778 0.57958 1.01029 0.0
N11 N 0.04172 0.55292 0.97082 0.0
N12 N 0.04754 0.54307 0.9328 0.0
C13 C 0.04102 0.5378 0.95728 0.0
C14 C 0.0493 0.56849 0.9545 0.0
C15 C 0.05289 0.56246 0.93101 0.0
C16 C 0.99528 0.55025 0.97755 0.0
O17 O 0.9972 0.53861 0.96078 0.0
H18 H 0.03453 0.52284 0.9647 0.0
H19 H 0.05093 0.58285 0.95893 0.0
O20 O 0.02273 0.52601 0.01939 0.0
H21 H 0.09111 0.6048 0.04993 0.0
H22 H 0.05823 0.57145 0.91375 0.0
Cu23 Cu 0.53192 0.55405 0.04562 0.0
N24 N 0.5325 0.56083 1.00914 0.0
N25 N 0.54363 0.57141 0.96912 0.0
C26 C 0.54882 0.56863 0.99319 0.0
C27 C 0.5232 0.56494 0.97015 0.0
C28 C 0.51641 0.55843 0.99483 0.0
O29 O 0.55248 0.58339 0.05377 0.0
C30 C 0.51243 0.50985 0.0424 0.0
O31 O 0.52875 0.51222 0.05508 0.0
H32 H 0.56418 0.57239 0.99922 0.0
H33 H 0.50083 0.55231 1.00184 0.0
N34 N 0.53137 0.54723 0.08219 0.0
N35 N 0.52054 0.53498 0.12171 0.0
C36 C 0.51489 0.53735 0.0977 0.0
C37 C 0.54788 0.55107 0.09672 0.0
C38 C 0.54128 0.54361 0.12105 0.0
C39 C 0.57191 0.5905 0.05258 0.0
O40 O 0.57901 0.57855 0.04659 0.0
H41 H 0.49915 0.53199 0.0915 0.0
H42 H 0.5636 0.55845 0.09001 0.0
O43 O 0.51071 0.52504 0.03695 0.0
H44 H 0.51368 0.56467 0.95421 0.0
H45 H 0.55101 0.54402 0.13683 0.0
Cu46 Cu 0.51391 0.02969 0.05538 0.0
N47 N 0.50542 0.02804 0.02136 0.0
N48 N 0.49297 0.03214 0.98427 0.0
C49 C 0.49451 0.03545 1.00994 0.0
C50 C 0.50318 0.02227 0.97947 0.0
C51 C 0.51082 0.01975 1.00241 0.0
O52 O 0.49315 0.00766 0.07566 0.0
C53 C 0.55391 0.04732 0.04016 0.0
O54 O 0.54803 0.05965 0.03134 0.0
H55 H 0.48826 0.04344 0.02008 0.0
H56 H 0.51993 0.01257 1.00514 0.0
N57 N 0.51653 0.05222 0.07179 0.0
N58 N 0.52809 0.07407 0.10424 0.0
C59 C 0.53279 0.06422 0.08663 0.0
C60 C 0.50095 0.0547 0.08009 0.0
C61 C 0.50801 0.0681 0.10032 0.0
C62 C 0.47604 0.99433 0.0662 0.0
O63 O 0.47429 0.99176 0.04111 0.0
H64 H 0.54683 0.06343 0.08723 0.0
H65 H 0.48503 0.04551 0.07421 0.0
O66 O 0.5411 0.03225 0.05323 0.0
H67 H 0.50484 0.01709 0.96076 0.0
H68 H 0.49867 0.07148 0.11287 0.0
Cu69 Cu 0.53911 0.07018 0.55179 0.0
N70 N 0.56212 0.08897 0.53356 0.0
N71 N 0.58556 0.10105 0.50215 0.0
C72 C 0.57019 0.0846 0.5132 0.0
C73 C 0.5873 0.11647 0.51623 0.0
C74 C 0.57283 0.10895 0.53568 0.0
O75 O 0.54458 0.0486 0.56056 0.0
C76 C 0.51341 0.07473 0.51452 0.0
O77 O 0.53093 0.08814 0.50442 0.0
H78 H 0.56413 0.06966 0.50581 0.0
H79 H 0.56989 0.11746 0.5498 0.0
N80 N 0.53628 0.08028 0.58307 0.0
N81 N 0.52015 0.08235 0.61807 0.0
C82 C 0.51803 0.074 0.59464 0.0
C83 C 0.55059 0.09309 0.59966 0.0
C84 C 0.54067 0.09443 0.62132 0.0
C85 C 0.54436 0.03558 0.54541 0.0
O86 O 0.53694 0.03391 0.52197 0.0
H87 H 0.50353 0.06285 0.58635 0.0
H88 H 0.56704 0.10055 0.59651 0.0
O89 O 0.51362 0.06376 0.53288 0.0
H90 H 0.59799 0.13204 0.51252 0.0
H91 H 0.54803 0.10346 0.63817 0.0
Cu92 Cu 0.04246 0.5554 0.50916 0.0
N93 N 0.0588 0.55052 0.53244 0.0
N94 N 0.06408 0.53432 0.56492 0.0
C95 C 0.05024 0.53737 0.55186 0.0
C96 C 0.08233 0.54643 0.55347 0.0
C97 C 0.07901 0.55636 0.53335 0.0
O98 O 0.01767 0.52939 0.50634 0.0
C99 C 0.05549 0.59395 0.52159 0.0
O100 O 0.07219 0.59503 0.5119 0.0
H101 H 0.03392 0.5299 0.55596 0.0
H102 H 0.0904 0.56663 0.51997 0.0
N103 N 0.05329 0.5637 0.47592 0.0
N104 N 0.05764 0.57821 0.4372 0.0
C105 C 0.04631 0.57226 0.45897 0.0
C106 C 0.06958 0.56411 0.46448 0.0
C107 C 0.0723 0.57305 0.44062 0.0
C108 C 0.02227 0.51635 0.49917 0.0
O109 O 0.04128 0.5223 0.49206 0.0
H110 H 0.0336 0.57473 0.46305 0.0
H111 H 0.079 0.55861 0.473 0.0
O112 O 0.03924 0.57692 0.52325 0.0
H113 H 0.09689 0.54753 0.55862 0.0
H114 H 0.08421 0.57559 0.42692 0.0
Cu115 Cu 0.52654 0.5893 0.51409 0.0
N116 N 0.54023 0.61239 0.49462 0.0
N117 N 0.5665 0.63936 0.47709 0.0
C118 C 0.5605 0.6256 0.49597 0.0
C119 C 0.54929 0.63463 0.46335 0.0
C120 C 0.53306 0.61795 0.47426 0.0
O121 O 0.54579 0.59024 0.54005 0.0
C122 C 0.50702 0.5488 0.49725 0.0
O123 O 0.50306 0.54435 0.52175 0.0
H124 H 0.57082 0.62449 0.50971 0.0
H125 H 0.51732 0.60999 0.4673 0.0
N126 N 0.50408 0.58833 0.53078 0.0
N127 N 0.47263 0.57425 0.54789 0.0
C128 C 0.4844 0.57361 0.52875 0.0
C129 C 0.50473 0.59897 0.5516 0.0
C130 C 0.48533 0.59021 0.56234 0.0
C131 C 0.54038 0.58127 0.56162 0.0
O132 O 0.52078 0.56897 0.56611 0.0
H133 H 0.47924 0.56152 0.51506 0.0
H134 H 0.51868 0.61114 0.55968 0.0
O135 O 0.51735 0.56697 0.49051 0.0
H136 H 0.54856 0.64245 0.44641 0.0
H137 H 0.48122 0.59442 0.58027 0.0
Cu138 Cu 0.71736 0.90895 0.33458 0.0
N139 N 0.71723 0.93165 0.32293 0.0
N140 N 0.706 0.95321 0.31753 0.0
C141 C 0.70168 0.93531 0.32688 0.0
C142 C 0.72497 0.96112 0.30719 0.0
C143 C 0.73185 0.94772 0.31047 0.0
O144 O 0.70799 0.90577 0.37068 0.0
C145 C 0.70444 0.89042 0.2867 0.0
O146 O 0.71657 0.90892 0.27943 0.0
H147 H 0.68763 0.92516 0.33685 0.0
H148 H 0.74637 0.94953 0.30397 0.0
N149 N 0.74369 0.91191 0.33358 0.0
N150 N 0.76704 0.90197 0.33459 0.0
C151 C 0.74683 0.8963 0.33394 0.0
C152 C 0.76261 0.92818 0.3338 0.0
C153 C 0.77708 0.92207 0.3346 0.0
C154 C 0.72111 0.91793 0.38695 0.0
O155 O 0.73982 0.93034 0.37891 0.0
H156 H 0.7344 0.88103 0.33513 0.0
H157 H 0.76574 0.94338 0.33459 0.0
O158 O 0.70114 0.88672 0.31078 0.0
H159 H 0.7331 0.97539 0.29756 0.0
H160 H 0.79361 0.93165 0.33591 0.0
Cu161 Cu 0.20311 0.88966 0.37554 0.0
N162 N 0.20663 0.86812 0.36705 0.0
N163 N 0.19778 0.83763 0.35309 0.0
C164 C 0.19175 0.84886 0.36613 0.0
C165 C 0.21736 0.85023 0.34587 0.0
C166 C 0.22284 0.86903 0.35471 0.0
O167 O 0.18062 0.88079 0.40038 0.0
C168 C 0.19849 0.89438 0.32162 0.0
O169 O 0.1911 0.87505 0.32034 0.0
H170 H 0.17614 0.8435 0.37243 0.0
H171 H 0.23693 0.88267 0.35042 0.0
N172 N 0.22661 0.90883 0.39244 0.0
N173 N 0.24996 0.93837 0.40839 0.0
C174 C 0.23326 0.92849 0.39304 0.0
C175 C 0.23956 0.90612 0.40777 0.0
C176 C 0.25398 0.92435 0.41771 0.0
C177 C 0.16171 0.86775 0.3972 0.0
O178 O 0.15489 0.86075 0.37398 0.0
H179 H 0.22549 0.93527 0.38322 0.0
H180 H 0.23829 0.89185 0.41185 0.0
O181 O 0.20174 0.90266 0.3437 0.0
H182 H 0.22644 0.84642 0.33342 0.0
H183 H 0.26632 0.92703 0.43098 0.0
Cu184 Cu 0.19577 0.40611 0.35481 0.0
N185 N 0.18844 0.41808 0.32869 0.0
N186 N 0.17362 0.42152 0.29304 0.0
C187 C 0.17615 0.40878 0.30837 0.0
C188 C 0.18501 0.43962 0.30397 0.0
C189 C 0.19414 0.43744 0.32599 0.0
O190 O 0.17148 0.38612 0.37271 0.0
C191 C 0.23032 0.41082 0.33051 0.0
O192 O 0.23225 0.42852 0.32745 0.0
H193 H 0.1693 0.393 0.30476 0.0
H194 H 0.20408 0.44912 0.33922 0.0
N195 N 0.21028 0.42405 0.38099 0.0
N196 N 0.2266 0.43117 0.41894 0.0
C197 C 0.22366 0.42189 0.39608 0.0
C198 C 0.20462 0.4353 0.3946 0.0
C199 C 0.21474 0.43976 0.41811 0.0
C200 C 0.15479 0.37161 0.36419 0.0
O201 O 0.15308 0.36684 0.33968 0.0
H202 H 0.22897 0.41153 0.39172 0.0
H203 H 0.19239 0.43818 0.38907 0.0
O204 O 0.21414 0.3973 0.34142 0.0
H205 H 0.18612 0.45331 0.29701 0.0
H206 H 0.21228 0.44732 0.43404 0.0
Cu207 Cu 0.18264 0.36075 0.86686 0.0
N208 N 0.18635 0.35027 0.83628 0.0
N209 N 0.20128 0.35053 0.79901 0.0
C210 C 0.20324 0.35995 0.82154 0.0
C211 C 0.1826 0.33389 0.7999 0.0
C212 C 0.17336 0.33379 0.82296 0.0
O213 O 0.20599 0.36616 0.88939 0.0
C214 C 0.17611 0.38824 0.83609 0.0
O215 O 0.18227 0.38205 0.81635 0.0
H216 H 0.21629 0.37423 0.82674 0.0
H217 H 0.15796 0.323 0.82902 0.0
N218 N 0.15855 0.34341 0.88444 0.0
N219 N 0.13267 0.33563 0.91179 0.0
C220 C 0.14857 0.35028 0.89889 0.0
C221 C 0.14855 0.32356 0.88818 0.0
C222 C 0.13258 0.31872 0.90526 0.0
C223 C 0.20778 0.35092 0.89431 0.0
O224 O 0.19416 0.33374 0.88431 0.0
H225 H 0.15352 0.36594 0.90084 0.0
H226 H 0.15282 0.3134 0.87967 0.0
O227 O 0.1782 0.38316 0.85887 0.0
H228 H 0.17563 0.32321 0.78439 0.0
H229 H 0.12192 0.304 0.9125 0.0
Cu230 Cu 0.67738 0.86864 0.84293 0.0
N231 N 0.65639 0.84293 0.83463 0.0
N232 N 0.64264 0.81066 0.82488 0.0
C233 C 0.65955 0.82731 0.83309 0.0
C234 C 0.62816 0.81597 0.8211 0.0
C235 C 0.63666 0.8359 0.8273 0.0
O236 O 0.69497 0.86451 0.86812 0.0
C237 C 0.67563 0.8872 0.79834 0.0
O238 O 0.65704 0.87957 0.80796 0.0
H239 H 0.67433 0.82841 0.83684 0.0
H240 H 0.6291 0.84466 0.82587 0.0
N241 N 0.66829 0.88364 0.86082 0.0
N242 N 0.67182 0.91067 0.88071 0.0
C243 C 0.68152 0.90206 0.86933 0.0
C244 C 0.64939 0.8803 0.86706 0.0
C245 C 0.65154 0.89709 0.8793 0.0
C246 C 0.68558 0.85706 0.88939 0.0
O247 O 0.66648 0.85325 0.89162 0.0
H248 H 0.69801 0.90917 0.86653 0.0
H249 H 0.63513 0.86679 0.86284 0.0
O250 O 0.68861 0.8838 0.81034 0.0
H251 H 0.61269 0.80625 0.814 0.0
H252 H 0.6392 0.8991 0.88666 0.0
Cu253 Cu 0.18017 0.88256 0.85641 0.0
N254 N 0.16872 0.8869 0.82675 0.0
N255 N 0.15498 0.87956 0.78713 0.0
C256 C 0.15728 0.87234 0.80986 0.0
C257 C 0.16522 0.89956 0.79001 0.0
C258 C 0.1737 0.90405 0.81452 0.0
O259 O 0.16135 0.85575 0.86845 0.0
C260 C 0.21487 0.8895 0.82577 0.0
O261 O 0.20202 0.88304 0.80615 0.0
H262 H 0.15255 0.85687 0.81338 0.0
H263 H 0.18404 0.91874 0.82213 0.0
N264 N 0.18378 0.90004 0.88318 0.0
N265 N 0.19604 0.91579 0.92077 0.0
C266 C 0.1945 0.90142 0.90469 0.0
C267 C 0.17808 0.91391 0.88559 0.0
C268 C 0.18561 0.92365 0.90884 0.0
C269 C 0.14414 0.85309 0.87661 0.0
O270 O 0.14088 0.86827 0.87641 0.0
H271 H 0.20121 0.89207 0.9082 0.0
H272 H 0.16947 0.91699 0.87128 0.0
O273 O 0.20784 0.88788 0.84849 0.0
H274 H 0.16736 0.91021 0.7751 0.0
H275 H 0.18414 0.93602 0.91589 0.0
Cu276 Cu 0.38893 0.24778 0.71261 0.0
N277 N 0.40004 0.27381 0.70107 0.0
N278 N 0.39956 0.29972 0.683 0.0
C279 C 0.38947 0.27982 0.68616 0.0
C280 C 0.41726 0.30656 0.69659 0.0
C281 C 0.41753 0.29045 0.70775 0.0
O282 O 0.37423 0.24632 0.74465 0.0
C283 C 0.38383 0.2336 0.66308 0.0
O284 O 0.40258 0.24903 0.6627 0.0
H285 H 0.37411 0.26979 0.67891 0.0
H286 H 0.4292 0.29089 0.72058 0.0
N287 N 0.40876 0.24086 0.72065 0.0
N288 N 0.41958 0.22045 0.73494 0.0
C289 C 0.4039 0.22426 0.73392 0.0
C290 C 0.42828 0.24799 0.71273 0.0
C291 C 0.43504 0.2353 0.72155 0.0
C292 C 0.38573 0.25435 0.76441 0.0
O293 O 0.40572 0.26191 0.76198 0.0
H294 H 0.38863 0.21457 0.74147 0.0
H295 H 0.43667 0.26093 0.7006 0.0
O296 O 0.37342 0.23003 0.68384 0.0
H297 H 0.42894 0.32206 0.69873 0.0
H298 H 0.44992 0.23667 0.71795 0.0
Cu299 Cu 0.8612 0.20041 0.69459 0.0
N300 N 0.88329 0.20499 0.67341 0.0
N301 N 0.90583 0.21986 0.64138 0.0
C302 C 0.889 0.21783 0.65355 0.0
C303 C 0.91094 0.20771 0.65424 0.0
C304 C 0.89695 0.1985 0.67399 0.0
O305 O 0.86555 0.22734 0.69995 0.0
C306 C 0.83472 0.16308 0.67694 0.0
O307 O 0.85031 0.16163 0.68619 0.0
H308 H 0.88122 0.22603 0.64871 0.0
H309 H 0.89691 0.18803 0.68785 0.0
N310 N 0.86082 0.18977 0.7273 0.0
N311 N 0.84779 0.17591 0.7656 0.0
C312 C 0.84422 0.1821 0.74279 0.0
C313 C 0.87547 0.18831 0.74069 0.0
C314 C 0.8675 0.17985 0.76439 0.0
C315 C 0.88219 0.23834 0.71248 0.0
O316 O 0.89313 0.23047 0.72089 0.0
H317 H 0.8299 0.1815 0.73755 0.0
H318 H 0.89091 0.19328 0.7339 0.0
O319 O 0.83589 0.18013 0.67759 0.0
H320 H 0.92383 0.2056 0.64974 0.0
H321 H 0.87557 0.17679 0.7795 0.0
Cu322 Cu 0.84666 0.68483 0.6838 0.0
N323 N 0.83399 0.6833 0.65221 0.0
N324 N 0.82436 0.69154 0.61561 0.0
C325 C 0.82961 0.69635 0.64062 0.0
C326 C 0.82536 0.67486 0.61146 0.0
C327 C 0.83142 0.66992 0.63397 0.0
O328 O 0.82812 0.66386 0.70716 0.0
C329 C 0.8838 0.70035 0.66047 0.0
O330 O 0.87678 0.71196 0.65236 0.0
H331 H 0.83156 0.70974 0.64977 0.0
H332 H 0.83468 0.6579 0.63666 0.0
N333 N 0.85356 0.70783 0.70245 0.0
N334 N 0.86918 0.7248 0.7383 0.0
C335 C 0.87105 0.71648 0.71644 0.0
C336 C 0.84021 0.71135 0.71551 0.0
C337 C 0.8498 0.72177 0.73771 0.0
C338 C 0.80969 0.6509 0.70125 0.0
O339 O 0.80471 0.6467 0.67686 0.0
H340 H 0.88349 0.71342 0.71323 0.0
H341 H 0.82385 0.7041 0.71149 0.0
O342 O 0.8726 0.68603 0.67565 0.0
H343 H 0.82244 0.66709 0.59325 0.0
H344 H 0.84231 0.72461 0.7536 0.0
Cu345 Cu 0.85868 0.71673 0.17438 0.0
N346 N 0.85683 0.70316 0.14387 0.0
N347 N 0.86691 0.69658 0.10648 0.0
C348 C 0.87264 0.7083 0.12761 0.0
C349 C 0.8467 0.68337 0.10976 0.0
C350 C 0.8405 0.68752 0.13284 0.0
O351 O 0.88424 0.72166 0.19154 0.0
C352 C 0.85273 0.74482 0.14421 0.0
O353 O 0.85596 0.73658 0.12403 0.0
H354 H 0.88801 0.7206 0.13118 0.0
H355 H 0.82511 0.67994 0.14074 0.0
N356 N 0.83683 0.7017 0.19671 0.0
N357 N 0.8144 0.69616 0.22833 0.0
C358 C 0.82988 0.70995 0.21386 0.0
C359 C 0.82532 0.6819 0.20033 0.0
C360 C 0.8115 0.67843 0.21995 0.0
C361 C 0.88532 0.706 0.19638 0.0
O362 O 0.8695 0.68865 0.19011 0.0
H363 H 0.83646 0.72588 0.21603 0.0
H364 H 0.82694 0.67079 0.18963 0.0
O365 O 0.85575 0.74007 0.16675 0.0
H366 H 0.83695 0.67193 0.09611 0.0
H367 H 0.80015 0.66402 0.22732 0.0
Cu368 Cu 0.37947 0.22186 0.20691 0.0
N369 N 0.38687 0.20423 0.19275 0.0
N370 N 0.38338 0.17524 0.17968 0.0
C371 C 0.37371 0.18473 0.18875 0.0
C372 C 0.40344 0.18937 0.17795 0.0
C373 C 0.40557 0.20723 0.1862 0.0
O374 O 0.36853 0.21065 0.24135 0.0
C375 C 0.36084 0.24126 0.17944 0.0
O376 O 0.36725 0.25362 0.19906 0.0
H377 H 0.35734 0.17769 0.1924 0.0
H378 H 0.4198 0.22125 0.18782 0.0
N379 N 0.40245 0.24709 0.21167 0.0
N380 N 0.41979 0.27847 0.22607 0.0
C381 C 0.40394 0.25988 0.23015 0.0
C382 C 0.41799 0.25784 0.19532 0.0
C383 C 0.42879 0.27719 0.20422 0.0
C384 C 0.38211 0.2106 0.2565 0.0
O385 O 0.40109 0.2184 0.24805 0.0
H386 H 0.39237 0.25593 0.24488 0.0
H387 H 0.42039 0.25238 0.17726 0.0
O388 O 0.36221 0.22547 0.18083 0.0
H389 H 0.41577 0.18691 0.17173 0.0
H390 H 0.44158 0.28951 0.19458 0.0
Cu391 Cu 0.85428 0.2342 0.18867 0.0
N392 N 0.84351 0.23703 0.15761 0.0
N393 N 0.82802 0.22612 0.11946 0.0
C394 C 0.82905 0.22145 0.14427 0.0
C395 C 0.8422 0.24562 0.11725 0.0
C396 C 0.85176 0.25233 0.1409 0.0
O397 O 0.83339 0.21091 0.20622 0.0
C398 C 0.8818 0.22584 0.16079 0.0
O399 O 0.86639 0.21609 0.14467 0.0
H400 H 0.82128 0.20643 0.15186 0.0
H401 H 0.865 0.26676 0.14498 0.0
N402 N 0.86238 0.25587 0.21034 0.0
N403 N 0.87763 0.27525 0.24442 0.0
C404 C 0.87496 0.25944 0.23059 0.0
C405 C 0.85679 0.26991 0.21118 0.0
C406 C 0.86618 0.28193 0.23237 0.0
C407 C 0.81781 0.21184 0.214 0.0
O408 O 0.81694 0.22811 0.20947 0.0
H409 H 0.8816 0.25021 0.23543 0.0
H410 H 0.84641 0.2711 0.19764 0.0
O411 O 0.87885 0.2328 0.1815 0.0
H412 H 0.84639 0.25405 0.09947 0.0
H413 H 0.86481 0.2946 0.23833 0.0
Zn414 Zn 0.05553 0.71171 0.2213 0.0
Zn415 Zn 0.04072 0.6834 0.25675 0.0
O416 O 0.0447 0.6698 0.22405 0.0
O417 O 0.05573 0.69334 0.19461 0.0
O418 O 0.03396 0.66258 0.28525 0.0
O419 O 0.08152 0.7288 0.24103 0.0
O420 O 0.06751 0.70689 0.27233 0.0
C421 C 0.05059 0.6757 0.20102 0.0
C422 C 0.01526 0.70283 0.23962 0.0
O423 O 0.01624 0.68934 0.25291 0.0
O424 O 0.03034 0.71446 0.22564 0.0
C425 C 0.0468 0.65632 0.28711 0.0
O426 O 0.06188 0.6628 0.27036 0.0
C427 C 0.08224 0.7232 0.26371 0.0
Zn428 Zn 0.39521 0.40359 0.3502 0.0
Zn429 Zn 0.40924 0.42848 0.30956 0.0
O430 O 0.42643 0.44602 0.34055 0.0
O431 O 0.41538 0.42533 0.37348 0.0
O432 O 0.4216 0.4468 0.27864 0.0
O433 O 0.40375 0.38534 0.33389 0.0
O434 O 0.41412 0.40518 0.30011 0.0
C435 C 0.4272 0.44252 0.36447 0.0
C436 C 0.36377 0.40942 0.32529 0.0
O437 O 0.3785 0.42088 0.31041 0.0
O438 O 0.36699 0.40034 0.34348 0.0
C439 C 0.44065 0.45323 0.27459 0.0
O440 O 0.4508 0.44806 0.29068 0.0
C441 C 0.41158 0.38954 0.31162 0.0
Zn442 Zn 0.6487 0.05795 0.24136 0.0
Zn443 Zn 0.64164 0.07136 0.2837 0.0
O444 O 0.62156 0.07315 0.25717 0.0
O445 O 0.62964 0.06372 0.22124 0.0
O446 O 0.63345 0.078 0.31776 0.0
O447 O 0.63979 0.03076 0.25499 0.0
O448 O 0.63939 0.04413 0.29211 0.0
C449 C 0.61941 0.07025 0.23287 0.0
C450 C 0.68449 0.09297 0.26108 0.0
O451 O 0.67182 0.09277 0.27756 0.0
O452 O 0.6785 0.07925 0.24439 0.0
C453 C 0.64252 0.09458 0.32962 0.0
O454 O 0.65884 0.10967 0.31932 0.0
C455 C 0.63832 0.02961 0.27925 0.0
Zn456 Zn 0.0139 0.397 0.80138 0.0
Zn457 Zn 0.02754 0.41646 0.75825 0.0
O458 O 0.99984 0.39023 0.74768 0.0
O459 O 0.98923 0.37448 0.7847 0.0
O460 O 0.03693 0.43307 0.72511 0.0
O461 O 0.011 0.41839 0.81835 0.0
O462 O 0.02536 0.43636 0.78378 0.0
C463 C 0.98657 0.37531 0.76075 0.0
C464 C 0.05483 0.40477 0.78968 0.0
O465 O 0.05204 0.4121 0.76895 0.0
O466 O 0.04079 0.39734 0.8065 0.0
C467 C 0.02601 0.44024 0.71646 0.0
O468 O 0.00896 0.43602 0.72865 0.0
C469 C 0.01829 0.4348 0.80655 0.0
Zn470 Zn 0.67313 0.67771 0.73139 0.0
Zn471 Zn 0.6498 0.65249 0.76706 0.0
O472 O 0.6508 0.67912 0.77613 0.0
O473 O 0.66717 0.69891 0.74364 0.0
O474 O 0.63196 0.63459 0.79585 0.0
O475 O 0.65501 0.65817 0.70407 0.0
O476 O 0.63325 0.63909 0.7339 0.0
C477 C 0.65741 0.69574 0.76454 0.0
C478 C 0.69493 0.66266 0.75999 0.0
O479 O 0.6771 0.6515 0.76953 0.0
O480 O 0.69779 0.67647 0.74452 0.0
C481 C 0.63842 0.63809 0.81904 0.0
O482 O 0.65713 0.65282 0.82372 0.0
C483 C 0.63815 0.64296 0.71022 0.0
Zn484 Zn 0.37246 0.05519 0.83614 0.0
Zn485 Zn 0.39093 0.04802 0.79703 0.0
O486 O 0.39315 0.07532 0.78932 0.0
O487 O 0.37773 0.08105 0.8214 0.0
O488 O 0.40746 0.0458 0.76766 0.0
O489 O 0.39326 0.05564 0.86087 0.0
O490 O 0.4078 0.0487 0.82879 0.0
C491 C 0.38772 0.08656 0.80059 0.0
C492 C 0.34631 0.01752 0.81065 0.0
O493 O 0.36195 0.02251 0.7963 0.0
O494 O 0.34703 0.02926 0.8281 0.0
C495 C 0.40702 0.05238 0.7453 0.0
O496 O 0.39406 0.05882 0.74067 0.0
C497 C 0.40704 0.05217 0.85264 0.0
Zn498 Zn 0.69558 0.01345 0.55514 0.0
Zn499 Zn 0.68715 0.99115 0.5951 0.0
O500 O 0.69294 0.97605 0.56462 0.0
O501 O 0.70437 0.99804 0.53318 0.0
O502 O 0.68304 0.97309 0.627 0.0
O503 O 0.71651 0.03827 0.5726 0.0
O504 O 0.7115 0.01959 0.60678 0.0
C505 C 0.70022 0.98118 0.54182 0.0
C506 C 0.6539 0.99893 0.57075 0.0
O507 O 0.65927 0.99178 0.58967 0.0
O508 O 0.66654 0.00798 0.5528 0.0
C509 C 0.69832 0.97405 0.63945 0.0
O510 O 0.71705 0.98702 0.63199 0.0
C511 C 0.72081 0.03667 0.59576 0.0
Zn512 Zn 0.06965 0.74291 0.63772 0.0
Zn513 Zn 0.07275 0.76107 0.59543 0.0
O514 O 0.0935 0.78242 0.62192 0.0
O515 O 0.09353 0.76499 0.65537 0.0
O516 O 0.08016 0.77627 0.56102 0.0
O517 O 0.07145 0.72037 0.62305 0.0
O518 O 0.07445 0.73545 0.58607 0.0
C519 C 0.10034 0.78161 0.64427 0.0
C520 C 0.03279 0.74428 0.625 0.0
O521 O 0.04247 0.75274 0.60434 0.0
O522 O 0.04155 0.73955 0.64234 0.0
C523 C 0.08725 0.79501 0.55928 0.0
O524 O 0.08869 0.80509 0.58026 0.0
C525 C 0.07315 0.72071 0.59884 0.0
Zn526 Zn 0.33297 0.39739 0.56072 0.0
Zn527 Zn 0.32007 0.40337 0.60446 0.0
O528 O 0.29732 0.39822 0.57751 0.0
O529 O 0.30649 0.38911 0.54221 0.0
O530 O 0.30605 0.40064 0.63872 0.0
O531 O 0.34042 0.37748 0.57309 0.0
O532 O 0.33069 0.38341 0.61028 0.0
C533 C 0.29386 0.39251 0.55407 0.0
C534 C 0.35593 0.43853 0.58082 0.0
O535 O 0.34391 0.4321 0.60018 0.0
O536 O 0.35401 0.42673 0.56271 0.0
C537 C 0.29162 0.40445 0.64271 0.0
O538 O 0.28622 0.41261 0.62424 0.0
C539 C 0.33813 0.3746 0.5971 0.0
Zn540 Zn 0.6999 0.76024 0.14304 0.0
Zn541 Zn 0.70268 0.7779 0.10026 0.0
O542 O 0.67912 0.74799 0.09367 0.0
O543 O 0.68029 0.73323 0.12936 0.0
O544 O 0.70245 0.79224 0.06631 0.0
O545 O 0.68959 0.77493 0.16382 0.0
O546 O 0.69736 0.79418 0.12965 0.0
C547 C 0.67296 0.73209 0.10702 0.0
C548 C 0.74037 0.77682 0.12292 0.0
O549 O 0.73195 0.78013 0.10339 0.0
O550 O 0.73012 0.76958 0.1433 0.0
C551 C 0.71563 0.79846 0.04809 0.0
O552 O 0.73181 0.79613 0.05015 0.0
C553 C 0.69164 0.79053 0.15327 0.0
Zn554 Zn 0.33146 0.00882 0.08823 0.0
Zn555 Zn 0.30929 0.98864 0.12612 0.0
O556 O 0.31766 0.01835 0.13466 0.0
O557 O 0.33202 0.03368 0.09847 0.0
O558 O 0.29116 0.97252 0.15654 0.0
O559 O 0.31127 0.99123 0.06195 0.0
O560 O 0.2898 0.97616 0.09384 0.0
C561 C 0.3259 0.03417 0.12094 0.0
C562 C 0.35157 0.99205 0.11565 0.0
O563 O 0.33429 0.98327 0.12735 0.0
O564 O 0.35485 1.00495 0.09858 0.0
C565 C 0.27922 0.97717 0.16828 0.0
O566 O 0.2784 0.99296 0.16069 0.0
C567 C 0.29353 0.97847 0.06966 0.0
Zn568 Zn 0.02637 0.37556 0.13793 0.0
Zn569 Zn 0.04911 0.37428 0.09947 0.0
O570 O 0.04022 0.39432 0.08603 0.0
O571 O 0.02163 0.39522 0.11819 0.0
O572 O 0.0655 0.37147 0.07051 0.0
O573 O 0.05039 0.38491 0.16204 0.0
O574 O 0.0696 0.38427 0.13049 0.0
C575 C 0.02927 0.40099 0.09601 0.0
C576 C 0.01008 0.33652 0.11793 0.0
O577 O 0.02553 0.34514 0.10303 0.0
O578 O 1.00668 0.34629 0.13475 0.0
C579 C 0.0579 0.36688 0.0479 0.0
O580 O 0.03984 0.36526 0.04327 0.0
C581 C 0.0675 0.38748 0.15411 0.0
Zn582 Zn 0.37274 0.35822 0.93317 0.0
Zn583 Zn 0.36352 0.33569 0.97173 0.0
O584 O 0.36449 0.31796 0.94069 0.0
O585 O 0.36937 0.33776 0.90777 0.0
O586 O 0.3595 0.31933 1.00527 0.0
O587 O 0.4004 0.37923 0.94454 0.0
O588 O 0.39104 0.36273 0.981 0.0
C589 C 0.36606 0.32114 0.91629 0.0
C590 C 0.33536 0.35227 0.95422 0.0
O591 O 0.33763 0.33991 0.96845 0.0
O592 O 0.34922 0.36289 0.93824 0.0
C593 C 0.3512 0.30045 1.00763 0.0
O594 O 0.34341 0.28921 0.98709 0.0
C595 C 0.40385 0.37806 0.96815 0.0
Zn596 Zn 0.73194 0.06904 0.99894 0.0
Zn597 Zn 0.73292 0.08748 0.95599 0.0
O598 O 0.7549 0.10821 0.98116 0.0
O599 O 0.75588 0.09223 0.01564 0.0
O600 O 0.74155 0.10156 0.92097 0.0
O601 O 0.73428 0.0469 0.98277 0.0
O602 O 0.7315 0.06071 0.94708 0.0
C603 C 0.76239 0.10836 1.00335 0.0
C604 C 0.69477 0.07227 0.98747 0.0
O605 O 0.70392 0.08164 0.96696 0.0
O606 O 0.70358 0.066 1.00276 0.0
C607 C 0.75358 0.12028 0.9188 0.0
O608 O 0.75805 0.13152 0.93941 0.0
C609 C 0.73229 0.04651 0.95855 0.0
Zn610 Zn 0.98413 0.68664 0.87021 0.0
Zn611 Zn 0.97148 0.69492 0.91386 0.0
O612 O 0.95394 0.69893 0.88591 0.0
O613 O 0.96442 0.69204 0.84988 0.0
O614 O 0.95929 0.69768 0.9473 0.0
O615 O 0.97652 0.65903 0.8818 0.0
O616 O 0.96771 0.66667 0.91852 0.0
C617 C 0.9532 0.6975 0.8614 0.0
C618 C 0.0163 0.72094 0.8973 0.0
O619 O 1.00198 0.71752 0.91328 0.0
O620 O 0.01255 0.70964 0.87799 0.0
C621 C 0.95289 0.70992 0.95097 0.0
O622 O 0.95531 0.72269 0.93272 0.0
C623 C 0.97006 0.65437 0.90465 0.0
Zn624 Zn 0.35646 0.09672 0.51073 0.0
Zn625 Zn 0.36877 0.11914 0.4714 0.0
O626 O 0.3424 0.09252 0.46001 0.0
O627 O 0.32968 0.07631 0.49616 0.0
O628 O 0.3747 0.13625 0.43829 0.0
O629 O 0.35719 0.11663 0.53498 0.0
O630 O 0.36582 0.13654 0.50144 0.0
C631 C 0.32841 0.07744 0.47201 0.0
C632 C 0.39453 0.10109 0.49223 0.0
O633 O 0.39358 0.11355 0.47674 0.0
O634 O 0.38022 0.09178 0.50831 0.0
C635 C 0.36052 0.13885 0.42841 0.0
O636 O 0.3427 0.13113 0.44024 0.0
C637 C 0.36143 0.13327 0.52549 0.0
Zn638 Zn 1.0034 0.37031 0.42052 0.0
Zn639 Zn 0.98418 0.34322 0.45347 0.0
O640 O 0.98279 0.36779 0.46843 0.0
O641 O 0.99435 0.38822 0.43535 0.0
O642 O 0.96995 0.32157 0.48063 0.0
O643 O 0.98683 0.35243 0.39166 0.0
O644 O 0.966 0.33142 0.42072 0.0
C645 C 0.98626 0.38396 0.45743 0.0
C646 C 0.03017 0.35884 0.44024 0.0
O647 O 0.01309 0.34531 0.44946 0.0
O648 O 0.03099 0.37363 0.42879 0.0
C649 C 0.97875 0.32212 0.50194 0.0
O650 O 0.99733 0.33713 0.50649 0.0
C651 C 0.97029 0.33672 0.39721 0.0
Zn652 Zn 0.75489 0.77225 0.4662 0.0
Zn653 Zn 0.75795 0.7505 0.42802 0.0
O654 O 0.76983 0.77883 0.41281 0.0
O655 O 0.76857 0.7969 0.44465 0.0
O656 O 0.76271 0.73569 0.39913 0.0
O657 O 0.77186 0.76563 0.48982 0.0
O658 O 0.77358 0.74712 0.45885 0.0
C659 C 0.77328 0.79557 0.42166 0.0
C660 C 0.71555 0.73935 0.44912 0.0
O661 O 0.72654 0.73589 0.43355 0.0
O662 O 0.72403 0.75397 0.46453 0.0
C663 C 0.75667 0.73612 0.37629 0.0
O664 O 0.74642 0.74555 0.37193 0.0
C665 C 0.77784 0.75394 0.48179 0.0
H666 H 0.02438 0.50709 0.05913 0.0
H667 H 0.99932 0.47178 0.99014 0.0
H668 H 0.02814 0.48041 0.07857 0.0
H669 H 1.00314 0.44495 1.00977 0.0
H670 H 0.03889 0.41449 0.04596 0.0
H671 H 0.03295 0.43955 0.02464 0.0
H672 H 1.00509 0.44567 0.09404 0.0
H673 H 0.01094 0.42095 0.11524 0.0
C674 C 0.0195 0.49355 0.04819 0.0
C675 C 0.01147 0.49152 0.02313 0.0
C676 C 0.02163 0.47825 0.05936 0.0
C677 C 0.01597 0.46061 0.04567 0.0
C678 C 0.00778 0.45845 0.02067 0.0
C679 C 1.0054 0.47372 1.00957 0.0
C680 C 0.03147 0.42117 0.0566 0.0
C681 C 0.02551 0.41577 0.08235 0.0
C682 C 0.02795 0.4354 0.04435 0.0
C683 C 0.01864 0.44462 0.05774 0.0
C684 C 0.0125 0.439 0.08332 0.0
C685 C 0.01582 0.42475 0.09543 0.0
H686 H 0.61357 0.60845 0.05925 0.0
H687 H 0.56349 0.6211 0.05851 0.0
H688 H 0.63766 0.64311 0.06991 0.0
H689 H 0.58786 0.65604 0.06913 0.0
H690 H 0.64549 0.72192 0.06604 0.0
H691 H 0.62057 0.68808 0.05095 0.0
H692 H 0.6419 0.66327 0.11009 0.0
H693 H 0.66629 0.69649 0.12515 0.0
C694 C 0.60767 0.61863 0.06122 0.0
C695 C 0.58652 0.61189 0.05823 0.0
C696 C 0.62152 0.63852 0.06737 0.0
C697 C 0.61467 0.65232 0.07045 0.0
C698 C 0.59362 0.6458 0.06671 0.0
C699 C 0.57966 0.62575 0.06084 0.0
C700 C 0.64483 0.7092 0.07572 0.0
C701 C 0.65791 0.71198 0.09682 0.0
C702 C 0.63052 0.68986 0.06719 0.0
C703 C 0.62936 0.673 0.07927 0.0
C704 C 0.64253 0.6759 0.10018 0.0
C705 C 0.65647 0.69503 0.1089 0.0
H706 H 0.47244 1.00377 0.11614 0.0
H707 H 0.43645 0.96766 0.05176 0.0
H708 H 0.44098 0.99832 0.13707 0.0
H709 H 0.40511 0.96251 0.07251 0.0
H710 H 0.34977 0.95592 0.1124 0.0
H711 H 0.37953 0.95088 0.10773 0.0
H712 H 0.42041 0.01333 0.12365 0.0
H713 H 0.39089 0.01816 0.12809 0.0
C714 C 0.45781 0.99417 0.10677 0.0
C715 C 0.45705 0.98648 0.08198 0.0
C716 C 0.43975 0.99114 0.11874 0.0
C717 C 0.42054 0.9803 0.10627 0.0
C718 C 0.4196 0.97089 0.08274 0.0
C719 C 0.43765 0.97395 0.07074 0.0
C720 C 0.36512 0.96829 0.11595 0.0
C721 C 0.36812 0.9874 0.12073 0.0
C722 C 0.38216 0.96549 0.11301 0.0
C723 C 0.40239 0.98172 0.11515 0.0
C724 C 0.40513 1.00042 0.12218 0.0
C725 C 0.38821 1.00324 0.1247 0.0
H726 H 0.50651 0.09198 0.47246 0.0
H727 H 0.4777 0.06013 0.54234 0.0
H728 H 0.4777 0.09767 0.46463 0.0
H729 H 0.44925 0.06639 0.53511 0.0
H730 H 0.39277 0.06692 0.50795 0.0
H731 H 0.42015 0.05895 0.51057 0.0
H732 H 0.46281 0.11673 0.47903 0.0
H733 H 0.43477 0.1244 0.47541 0.0
C734 C 0.49391 0.08601 0.48605 0.0
C735 C 0.4944 0.07547 0.50797 0.0
C736 C 0.47746 0.08949 0.48171 0.0
C737 C 0.46107 0.08268 0.49926 0.0
C738 C 0.46134 0.07165 0.52084 0.0
C739 C 0.4777 0.06801 0.52505 0.0
C740 C 0.40797 0.07797 0.50144 0.0
C741 C 0.41159 0.09643 0.4917 0.0
C742 C 0.42379 0.07341 0.50313 0.0
C743 C 0.44393 0.08725 0.49548 0.0
C744 C 0.4475 0.10557 0.48498 0.0
C745 C 0.43146 0.11005 0.48296 0.0
H746 H 0.03147 0.49198 0.52541 0.0
H747 H 0.98279 0.49245 0.48112 0.0
H748 H 0.01443 0.45603 0.52211 0.0
H749 H 0.96522 0.45595 0.47792 0.0
H750 H 0.97551 0.40846 0.4336 0.0
H751 H 0.97625 0.43769 0.45126 0.0
H752 H 0.98747 0.42196 0.52725 0.0
H753 H 0.98706 0.3925 0.50911 0.0
C754 C 0.01663 0.48419 0.51576 0.0
C755 C 0.00852 0.49488 0.50321 0.0
C756 C 1.00673 0.46351 0.51403 0.0
C757 C 0.98858 0.45303 0.49938 0.0
C758 C 0.97936 0.46362 0.48903 0.0
C759 C 0.98928 0.48446 0.49097 0.0
C760 C 0.97763 0.41095 0.45421 0.0
C761 C 0.98171 0.39848 0.4699 0.0
C762 C 0.9778 0.42764 0.46445 0.0
C763 C 0.9822 0.43241 0.49067 0.0
C764 C 0.98432 0.41885 0.50687 0.0
C765 C 0.984 0.40195 0.49656 0.0
H766 H 0.59682 0.65934 0.51189 0.0
H767 H 0.58333 0.65411 0.43036 0.0
H768 H 0.63254 0.68418 0.50319 0.0
H769 H 0.61917 0.67929 0.42159 0.0
H770 H 0.69132 0.70583 0.4202 0.0
H771 H 0.6545 0.6823 0.42563 0.0
H772 H 0.65205 0.71887 0.48662 0.0
H773 H 0.68858 0.74222 0.48142 0.0
C774 C 0.6015 0.66355 0.49211 0.0
C775 C 0.58729 0.65478 0.47182 0.0
C776 C 0.6219 0.67788 0.48712 0.0
C777 C 0.62862 0.6837 0.4617 0.0
C778 C 0.61442 0.67501 0.44136 0.0
C779 C 0.59389 0.66077 0.44639 0.0
C780 C 0.68287 0.70893 0.43459 0.0
C781 C 0.69296 0.72582 0.45052 0.0
C782 C 0.66178 0.69551 0.43762 0.0
C783 C 0.65047 0.69868 0.45672 0.0
C784 C 0.66044 0.71588 0.47201 0.0
C785 C 0.68139 0.7293 0.46892 0.0
H786 H 0.97047 0.54377 0.93546 0.0
H787 H 0.99529 0.58123 1.00277 0.0
H788 H 0.95829 0.56562 0.91896 0.0
H789 H 0.98386 0.6034 0.98591 0.0
H790 H 0.95817 0.63993 0.95375 0.0
H791 H 0.95794 0.61104 0.97315 0.0
H792 H 0.97603 0.59778 0.9002 0.0
H793 H 0.9756 0.62605 0.88078 0.0
C794 C 0.97303 0.55647 0.94695 0.0
C795 C 0.98414 0.56091 0.97023 0.0
C796 C 0.96618 0.5691 0.9374 0.0
C797 C 0.97045 0.58654 0.95081 0.0
C798 C 0.98016 0.59009 0.97506 0.0
C799 C 0.98684 0.57738 0.98471 0.0
C800 C 0.96171 0.6306 0.94177 0.0
C801 C 0.96713 0.63546 0.91577 0.0
C802 C 0.96169 0.61409 0.95293 0.0
C803 C 0.96713 0.60211 0.93835 0.0
C804 C 0.97148 0.60643 0.91202 0.0
C805 C 0.97141 0.62282 0.90088 0.0
H806 H 0.50697 0.47341 0.05729 0.0
H807 H 0.48149 0.50061 1.00749 0.0
H808 H 0.4813 0.44042 0.04107 0.0
H809 H 0.45614 0.46785 0.99131 0.0
H810 H 0.43338 0.41145 0.9445 0.0
H811 H 0.45938 0.44229 0.96404 0.0
H812 H 0.44101 0.4162 0.0396 0.0
H813 H 0.41442 0.3849 0.01994 0.0
C814 C 0.49588 0.47237 0.04297 0.0
C815 C 0.49639 0.4897 0.03359 0.0
C816 C 0.48113 0.45347 0.03381 0.0
C817 C 0.46681 0.45155 1.01478 0.0
C818 C 0.46712 0.46885 1.00576 0.0
C819 C 0.48162 0.48764 1.01514 0.0
C820 C 0.43487 0.41206 0.9653 0.0
C821 C 0.42156 0.39563 0.98062 0.0
C822 C 0.44977 0.42986 0.97649 0.0
C823 C 0.45203 0.43181 1.00336 0.0
C824 C 0.43957 0.41513 0.01881 0.0
C825 C 0.42438 0.39721 1.00755 0.0
H826 H 0.56974 0.02229 0.04717 0.0
H827 H 0.58475 0.07995 0.01681 0.0
H828 H 0.60322 0.02765 0.03291 0.0
H829 H 0.61816 0.08547 1.00317 0.0
H830 H 0.66897 0.08152 0.95987 0.0
H831 H 0.63449 0.07467 0.97211 0.0
H832 H 0.6392 0.04779 0.04302 0.0
H833 H 0.67305 0.05411 0.03069 0.0
C834 C 0.58023 0.03616 0.0377 0.0
C835 C 0.57457 0.05067 0.03317 0.0
C836 C 0.59943 0.03926 0.02952 0.0
C837 C 0.61338 0.05698 0.01673 0.0
C838 C 0.6077 0.07151 1.01247 0.0
C839 C 0.58856 0.06839 0.02055 0.0
C840 C 0.66259 0.07411 0.97801 0.0
C841 C 0.67384 0.0684 0.99423 0.0
C842 C 0.64287 0.07024 0.9851 0.0
C843 C 0.63402 0.06061 1.00856 0.0
C844 C 0.6453 0.05489 0.02464 0.0
C845 C 0.66488 0.0587 0.01758 0.0
H846 H 0.5464 1.006 0.51889 0.0
H847 H 0.56837 0.04124 0.58833 0.0
H848 H 0.56889 0.99225 0.5275 0.0
H849 H 0.59139 0.02802 0.5965 0.0
H850 H 0.62808 0.99653 0.61043 0.0
H851 H 0.59794 1.00116 0.60687 0.0
H852 H 0.60473 1.00518 0.52409 0.0
H853 H 0.63406 1.00018 0.52766 0.0
C854 C 0.55585 0.01067 0.53616 0.0
C855 C 0.55567 0.02492 0.55272 0.0
C856 C 0.5689 1.00287 0.54105 0.0
C857 C 0.58233 0.00922 0.56251 0.0
C858 C 0.58124 0.02261 0.57988 0.0
C859 C 0.56807 0.0303 0.57509 0.0
C860 C 0.62273 0.99789 0.5915 0.0
C861 C 0.63356 0.99807 0.56936 0.0
C862 C 0.6056 1.00077 0.58943 0.0
C863 C 0.59882 1.00366 0.56516 0.0
C864 C 0.60912 1.00275 0.54309 0.0
C865 C 0.62616 1.00002 0.54517 0.0
H866 H 0.0836 0.63182 0.50825 0.0
H867 H 0.02914 0.598 0.55443 0.0
H868 H 0.08719 0.66274 0.52501 0.0
H869 H 0.03282 0.62917 0.57131 0.0
H870 H 0.06582 0.68601 0.62127 0.0
H871 H 0.05972 0.65551 0.60055 0.0
H872 H 0.06975 0.68378 0.52611 0.0
H873 H 0.07579 0.71467 0.54693 0.0
C874 C 0.07228 0.63099 0.52186 0.0
C875 C 0.05619 0.61246 0.53027 0.0
C876 C 0.07428 0.64874 0.53127 0.0
C877 C 0.06038 0.64837 0.54955 0.0
C878 C 0.04388 0.62986 0.55738 0.0
C879 C 0.04171 0.61205 0.54768 0.0
C880 C 0.06685 0.68589 0.60047 0.0
C881 C 0.07134 0.70288 0.58576 0.0
C882 C 0.06311 0.66827 0.5886 0.0
C883 C 0.06396 0.66716 0.56172 0.0
C884 C 0.06894 0.68423 0.54691 0.0
C885 C 0.07247 0.70191 0.55882 0.0
H886 H 0.45894 0.55946 0.59562 0.0
H887 H 0.44142 0.55228 0.51536 0.0
H888 H 0.4283 0.52754 0.60544 0.0
H889 H 0.4106 0.52065 0.52509 0.0
H890 H 0.38426 0.45507 0.54289 0.0
H891 H 0.40967 0.48963 0.5366 0.0
H892 H 0.38962 0.50541 0.60608 0.0
H893 H 0.36383 0.47016 0.61272 0.0
C894 C 0.44814 0.55138 0.58025 0.0
C895 C 0.45261 0.55815 0.55466 0.0
C896 C 0.43061 0.53311 0.58586 0.0
C897 C 0.41729 0.5214 0.56595 0.0
C898 C 0.42086 0.52912 0.54076 0.0
C899 C 0.4384 0.54723 0.53516 0.0
C900 C 0.3851 0.46579 0.55692 0.0
C901 C 0.37188 0.45979 0.57828 0.0
C902 C 0.39961 0.48571 0.55314 0.0
C903 C 0.40138 0.50033 0.57054 0.0
C904 C 0.38851 0.49444 0.59228 0.0
C905 C 0.37379 0.47431 0.59608 0.0
H906 H 0.75088 0.86388 0.31871 0.0
H907 H 0.80197 0.9105 0.3609 0.0
H908 H 0.75953 0.83962 0.33539 0.0
H909 H 0.8113 0.88635 0.37674 0.0
H910 H 0.78819 0.83404 0.43627 0.0
H911 H 0.7935 0.8617 0.40927 0.0
H912 H 0.78122 0.82508 0.34145 0.0
H913 H 0.77536 0.79698 0.36882 0.0
C914 C 0.7643 0.86902 0.33104 0.0
C915 C 0.77534 0.88897 0.33912 0.0
C916 C 0.76947 0.85515 0.34033 0.0
C917 C 0.7859 0.86097 0.35783 0.0
C918 C 0.79829 0.88133 0.3637 0.0
C919 C 0.79305 0.89521 0.35446 0.0
C920 C 0.78702 0.83195 0.41556 0.0
C921 C 0.78089 0.8132 0.40472 0.0
C922 C 0.79032 0.84794 0.39999 0.0
C923 C 0.78756 0.84558 0.37316 0.0
C924 C 0.78316 0.82728 0.3621 0.0
C925 C 0.77989 0.81122 0.37775 0.0
H926 H 0.26773 0.95466 0.45407 0.0
H927 H 0.25501 0.96919 0.37829 0.0
H928 H 0.28406 0.98962 0.46632 0.0
H929 H 0.27138 1.00444 0.39069 0.0
H930 H 0.32901 0.06637 0.42186 0.0
H931 H 0.30803 0.03279 0.40398 0.0
H932 H 0.27179 0.01438 0.47345 0.0
H933 H 0.29257 0.04767 0.49126 0.0
C934 C 0.26855 0.96536 0.43997 0.0
C935 C 0.2601 0.95917 0.41523 0.0
C936 C 0.27768 0.98535 0.44707 0.0
C937 C 0.27876 0.99972 0.42954 0.0
C938 C 0.27069 0.99367 0.40459 0.0
C939 C 0.26126 0.97353 0.39757 0.0
C940 C 0.31612 0.05533 0.43292 0.0
C941 C 0.31265 0.05957 0.45813 0.0
C942 C 0.30417 0.0361 0.42273 0.0
C943 C 0.28863 0.02089 0.43763 0.0
C944 C 0.28398 0.0257 0.4618 0.0
C945 C 0.29582 0.04482 0.47191 0.0
H946 H 0.15341 0.37849 0.41553 0.0
H947 H 0.11438 0.34594 0.35101 0.0
H948 H 0.12307 0.37111 0.44069 0.0
H949 H 0.08399 0.33859 0.37636 0.0
H950 H 0.07005 0.38761 0.44556 0.0
H951 H 0.10023 0.3858 0.43234 0.0
H952 H 0.06179 0.32299 0.41663 0.0
H953 H 0.03142 0.3248 0.43042 0.0
C954 C 0.13835 0.36936 0.40687 0.0
C955 C 0.13636 0.36314 0.38102 0.0
C956 C 0.12097 0.36515 0.42134 0.0
C957 C 0.10118 0.35451 0.4104 0.0
C958 C 0.09905 0.34675 0.38537 0.0
C959 C 0.11648 0.35104 0.37079 0.0
C960 C 0.06816 0.37327 0.44018 0.0
C961 C 0.04846 0.35635 0.43907 0.0
C962 C 0.08544 0.37221 0.43261 0.0
C963 C 0.08337 0.35426 0.42328 0.0
C964 C 0.06381 0.33702 0.42365 0.0
C965 C 0.04649 0.33801 0.43177 0.0
H966 H 0.17366 0.40739 0.79304 0.0
H967 H 0.14578 0.38592 0.8674 0.0
H968 H 0.14641 0.41462 0.78161 0.0
H969 H 0.11795 0.39187 0.85565 0.0
H970 H 0.07371 0.41222 0.8361 0.0
H971 H 0.10538 0.41273 0.84779 0.0
H972 H 0.11223 0.39925 0.7688 0.0
H973 H 0.08106 0.40025 0.75694 0.0
C974 C 0.16183 0.40446 0.80709 0.0
C975 C 0.16197 0.39617 0.83118 0.0
C976 C 0.14599 0.40833 0.8004 0.0
C977 C 0.12961 0.40364 0.81745 0.0
C978 C 0.13031 0.39608 0.84199 0.0
C979 C 0.14636 0.3926 0.84884 0.0
C980 C 0.0821 0.40952 0.82119 0.0
C981 C 0.07481 0.40599 0.79565 0.0
C982 C 0.10026 0.40964 0.82793 0.0
C983 C 0.11142 0.40566 0.80946 0.0
C984 C 0.10434 0.40262 0.78364 0.0
C985 C 0.08636 0.40304 0.77677 0.0
H986 H 0.66151 0.79351 0.85001 0.0
H987 H 0.62133 0.78569 0.78571 0.0
H988 H 0.66287 0.76387 0.83674 0.0
H989 H 0.62267 0.75605 0.77241 0.0
H990 H 0.65926 0.72712 0.7385 0.0
H991 H 0.6529 0.753 0.75481 0.0
H992 H 0.63994 0.7257 0.83008 0.0
H993 H 0.64609 0.69942 0.81364 0.0
C994 C 0.65281 0.78531 0.8332 0.0
C995 C 0.64143 0.79197 0.81878 0.0
C996 C 0.65345 0.76829 0.82574 0.0
C997 C 0.64297 0.75775 0.80348 0.0
C998 C 0.63101 0.76399 0.78957 0.0
C999 C 0.63012 0.78085 0.79726 0.0
C1000 C 0.655 0.72655 0.75853 0.0
C1001 C 0.65326 0.71124 0.77481 0.0
C1002 C 0.65119 0.7413 0.76779 0.0
C1003 C 0.64582 0.7413 0.79366 0.0
C1004 C 0.64408 0.72604 0.81005 0.0
C1005 C 0.64756 0.71101 0.80063 0.0
H1006 H 0.23438 0.90438 0.77964 0.0
H1007 H 0.2456 0.90692 0.86174 0.0
H1008 H 0.26817 0.93401 0.77371 0.0
H1009 H 0.27927 0.93635 0.85565 0.0
H1010 H 0.31191 1.00336 0.8399 0.0
H1011 H 0.28298 0.96984 0.84189 0.0
H1012 H 0.3089 0.95183 0.78061 0.0
H1013 H 0.33861 0.9859 0.77867 0.0
C1014 C 0.24427 0.91083 0.79632 0.0
C1015 C 0.23708 0.90352 0.82126 0.0
C1016 C 0.26365 0.92779 0.79286 0.0
C1017 C 0.27609 0.93768 0.81427 0.0
C1018 C 0.26977 0.92919 0.83885 0.0
C1019 C 0.2505 0.91228 0.84231 0.0
C1020 C 0.31161 0.99241 0.82669 0.0
C1021 C 0.32776 0.99739 0.80921 0.0
C1022 C 0.29503 0.97309 0.82803 0.0
C1023 C 0.29393 0.95813 0.81182 0.0
C1024 C 0.30953 0.96309 0.7935 0.0
C1025 C 0.32643 0.98257 0.79234 0.0
H1026 H 0.66447 0.93388 0.31316 0.0
H1027 H 0.71796 0.9921 0.32292 0.0
H1028 H 0.64249 0.94899 0.31062 0.0
H1029 H 0.69611 0.00721 0.32043 0.0
H1030 H 0.65334 0.03027 0.32751 0.0
H1031 H 0.66649 0.00884 0.34284 0.0
H1032 H 0.64108 0.97165 0.2755 0.0
H1033 H 0.62806 0.99308 0.26005 0.0
C1034 C 0.67144 0.94986 0.31522 0.0
C1035 C 0.69291 0.96188 0.318 0.0
C1036 C 0.6589 0.95848 0.31373 0.0
C1037 C 0.66759 0.97923 0.31549 0.0
C1038 C 0.68895 0.99114 0.31939 0.0
C1039 C 0.70149 0.98256 0.32047 0.0
C1040 C 0.64986 0.01709 0.31647 0.0
C1041 C 0.63997 0.01351 0.29236 0.0
C1042 C 0.65753 1.00493 0.32517 0.0
C1043 C 0.65511 0.98883 0.31011 0.0
C1044 C 0.64317 0.98396 0.2875 0.0
C1045 C 0.63575 0.99626 0.27863 0.0
H1046 H 0.19529 0.82651 0.30359 0.0
H1047 H 0.16862 0.80565 0.37846 0.0
H1048 H 0.16823 0.79634 0.284 0.0
H1049 H 0.142 0.77446 0.35935 0.0
H1050 H 0.08246 0.73633 0.3124 0.0
H1051 H 0.11208 0.76203 0.33589 0.0
H1052 H 0.15229 0.76331 0.27531 0.0
H1053 H 0.12234 0.73897 0.25114 0.0
C1054 C 0.18398 0.81502 0.31595 0.0
C1055 C 0.18403 0.8183 0.34249 0.0
C1056 C 0.16839 0.79758 0.30477 0.0
C1057 C 0.15265 0.78272 0.31996 0.0
C1058 C 0.15347 0.78564 0.34684 0.0
C1059 C 0.16883 0.80336 0.35791 0.0
C1060 C 0.09772 0.74203 0.30441 0.0
C1061 C 0.10022 0.73595 0.27995 0.0
C1062 C 0.1148 0.7567 0.3179 0.0
C1063 C 0.13479 0.76518 0.30744 0.0
C1064 C 0.13721 0.7578 0.2837 0.0
C1065 C 0.12009 0.74366 0.26991 0.0
H1066 H 0.26692 0.43781 0.30932 0.0
H1067 H 0.23415 0.37765 0.3387 0.0
H1068 H 0.29786 0.43548 0.30506 0.0
H1069 H 0.26514 0.375 0.33348 0.0
H1070 H 0.33073 0.38954 0.35708 0.0
H1071 H 0.29751 0.3878 0.3546 0.0
H1072 H 0.31582 0.42176 0.28388 0.0
H1073 H 0.34954 0.42413 0.2869 0.0
C1074 C 0.26618 0.42389 0.31442 0.0
C1075 C 0.24806 0.40797 0.32462 0.0
C1076 C 0.28398 0.42251 0.31176 0.0
C1077 C 0.28415 0.4051 0.31906 0.0
C1078 C 0.26571 0.38878 0.3281 0.0
C1079 C 0.24787 0.39022 0.33091 0.0
C1080 C 0.32768 0.39654 0.34085 0.0
C1081 C 0.34294 0.40716 0.32231 0.0
C1082 C 0.30847 0.39537 0.33931 0.0
C1083 C 0.30388 0.40466 0.31907 0.0
C1084 C 0.3189 0.4147 0.29999 0.0
C1085 C 0.33823 0.41599 0.30164 0.0
H1086 H 0.24075 0.3838 0.91674 0.0
H1087 H 0.21435 0.32034 0.90655 0.0
H1088 H 0.27048 0.3851 0.93862 0.0
H1089 H 0.24404 0.3217 0.92729 0.0
H1090 H 0.2965 0.32535 0.9723 0.0
H1091 H 0.26456 0.32606 0.96419 0.0
H1092 H 0.2995 0.38302 0.92629 0.0
H1093 H 0.33099 0.38261 0.93522 0.0
C1094 C 0.24121 0.37014 0.91928 0.0
C1095 C 0.22524 0.35204 0.90957 0.0
C1096 C 0.2583 0.37085 0.93174 0.0
C1097 C 0.25986 0.3535 0.93466 0.0
C1098 C 0.24341 0.33534 0.92586 0.0
C1099 C 0.22638 0.33462 0.9136 0.0
C1100 C 0.29733 0.33822 0.96287 0.0
C1101 C 0.31629 0.35376 0.95411 0.0
C1102 C 0.27901 0.33858 0.95795 0.0
C1103 C 0.27929 0.35449 0.94418 0.0
C1104 C 0.29848 0.37059 0.93709 0.0
C1105 C 0.31665 0.37024 0.94203 0.0
H1106 H 0.65609 0.93549 0.88264 0.0
H1107 H 0.70957 0.93078 0.9027 0.0
H1108 H 0.67318 0.96952 0.89953 0.0
H1109 H 0.72679 0.96482 0.91898 0.0
H1110 H 0.73636 0.01529 0.97574 0.0
H1111 H 0.72258 0.98265 0.95576 0.0
H1112 H 0.70323 1.00321 0.88953 0.0
H1113 H 0.71691 0.03593 0.90958 0.0
C1114 C 0.67144 0.9417 0.89072 0.0
C1115 C 0.68149 0.93048 0.89132 0.0
C1116 C 0.68133 0.96125 0.90006 0.0
C1117 C 0.70139 0.96987 0.9104 0.0
C1118 C 0.71133 0.95857 0.91119 0.0
C1119 C 0.70152 0.93912 0.90171 0.0
C1120 C 0.72952 0.01299 0.95671 0.0
C1121 C 0.72762 0.02818 0.94433 0.0
C1122 C 0.72163 0.99428 0.94525 0.0
C1123 C 0.71158 0.99031 0.92123 0.0
C1124 C 0.7106 1.00577 0.90825 0.0
C1125 C 0.71864 0.02456 0.91963 0.0
H1126 H 0.14369 0.81732 0.87664 0.0
H1127 H 0.10649 0.84394 0.89499 0.0
H1128 H 0.11462 0.78445 0.88694 0.0
H1129 H 0.07752 0.81135 0.90449 0.0
H1130 H 0.02968 0.75162 0.93233 0.0
H1131 H 0.06256 0.78286 0.93222 0.0
H1132 H 0.08227 0.76215 0.86693 0.0
H1133 H 0.04995 0.73096 0.86752 0.0
C1134 C 0.12939 0.81619 0.88303 0.0
C1135 C 0.12737 0.83323 0.88474 0.0
C1136 C 0.1127 0.79736 0.88884 0.0
C1137 C 0.09365 0.7952 0.89646 0.0
C1138 C 0.09198 0.81239 0.89908 0.0
C1139 C 0.1086 0.83113 0.89334 0.0
C1140 C 0.04119 0.75362 0.91828 0.0
C1141 C 0.03704 0.73886 0.89976 0.0
C1142 C 0.06 0.77157 0.9181 0.0
C1143 C 0.07503 0.77514 0.89938 0.0
C1144 C 0.07123 0.75992 0.88179 0.0
C1145 C 0.05252 0.74203 0.882 0.0
H1146 H 0.39666 0.19977 0.7755 0.0
H1147 H 0.43983 0.20126 0.71952 0.0
H1148 H 0.39043 0.16775 0.79065 0.0
H1149 H 0.43459 0.16936 0.73592 0.0
H1150 H 0.39836 0.1008 0.75119 0.0
H1151 H 0.40882 0.1345 0.73598 0.0
H1152 H 0.4047 0.15186 0.81389 0.0
H1153 H 0.39324 0.11826 0.82856 0.0
C1154 C 0.40504 0.19332 0.76662 0.0
C1155 C 0.41852 0.20293 0.74608 0.0
C1156 C 0.40168 0.17501 0.77556 0.0
C1157 C 0.41202 0.1659 0.76455 0.0
C1158 C 0.42617 0.17585 0.74461 0.0
C1159 C 0.42941 0.19424 0.73546 0.0
C1160 C 0.39964 0.11188 0.76492 0.0
C1161 C 0.39454 0.10682 0.79091 0.0
C1162 C 0.40583 0.13122 0.7563 0.0
C1163 C 0.40736 0.14586 0.77365 0.0
C1164 C 0.40311 0.14087 0.79982 0.0
C1165 C 0.39655 0.12157 0.80827 0.0
H1166 H 0.89185 0.25653 0.75844 0.0
H1167 H 0.89338 0.2684 0.6771 0.0
H1168 H 0.91457 0.29169 0.7669 0.0
H1169 H 0.91633 0.30418 0.68544 0.0
H1170 H 0.98207 0.35726 0.71339 0.0
H1171 H 0.95265 0.32544 0.69921 0.0
H1172 H 0.91924 0.32433 0.76736 0.0
H1173 H 0.94868 0.35537 0.78177 0.0
C1174 C 0.89642 0.26688 0.74244 0.0
C1175 C 0.89048 0.25981 0.71722 0.0
C1176 C 0.90955 0.28712 0.74724 0.0
C1177 C 0.91739 0.30095 0.72687 0.0
C1178 C 0.91069 0.29398 0.70158 0.0
C1179 C 0.89726 0.27357 0.69682 0.0
C1180 C 0.96823 0.35037 0.72496 0.0
C1181 C 0.9678 0.35863 0.74888 0.0
C1182 C 0.95133 0.33215 0.71685 0.0
C1183 C 0.93364 0.32203 0.7324 0.0
C1184 C 0.93273 0.33133 0.7552 0.0
C1185 C 0.94961 0.34922 0.76342 0.0
H1186 H 0.76867 0.62379 0.69627 0.0
H1187 H 0.81289 0.66796 0.74857 0.0
H1188 H 0.74071 0.62361 0.72023 0.0
H1189 H 0.78485 0.66768 0.77255 0.0
H1190 H 0.73589 0.6892 0.76095 0.0
H1191 H 0.7638 0.68203 0.75569 0.0
H1192 H 0.72034 0.619 0.76063 0.0
H1193 H 0.69223 0.6263 0.76617 0.0
C1194 C 0.77241 0.63294 0.71341 0.0
C1195 C 0.79305 0.64617 0.72014 0.0
C1196 C 0.75634 0.63277 0.72725 0.0
C1197 C 0.76058 0.6459 0.74803 0.0
C1198 C 0.78111 0.6576 0.7564 0.0
C1199 C 0.79719 0.65766 0.74269 0.0
C1200 C 0.73237 0.67383 0.76179 0.0
C1201 C 0.71189 0.65831 0.76379 0.0
C1202 C 0.7484 0.6697 0.7589 0.0
C1203 C 0.74428 0.64992 0.75755 0.0
C1204 C 0.72396 0.63438 0.76146 0.0
C1205 C 0.7079 0.63856 0.76482 0.0
H1206 H 0.84735 0.761 0.09984 0.0
H1207 H 0.8315 0.75289 0.18053 0.0
H1208 H 0.82394 0.77393 0.09264 0.0
H1209 H 0.80752 0.76491 0.17328 0.0
H1210 H 0.7696 0.79279 0.16017 0.0
H1211 H 0.80064 0.79028 0.16427 0.0
H1212 H 0.78849 0.76231 0.08926 0.0
H1213 H 0.75802 0.76599 0.08478 0.0
C1214 C 0.83907 0.76222 0.11614 0.0
C1215 C 0.84134 0.75588 0.14077 0.0
C1216 C 0.82544 0.76946 0.11195 0.0
C1217 C 0.81352 0.77037 0.13225 0.0
C1218 C 0.81656 0.76483 0.15712 0.0
C1219 C 0.83035 0.75783 0.16135 0.0
C1220 C 0.77398 0.78668 0.14423 0.0
C1221 C 0.76143 0.7796 0.12214 0.0
C1222 C 0.79164 0.78495 0.14671 0.0
C1223 C 0.79698 0.7756 0.12743 0.0
C1224 C 0.78509 0.76971 0.10453 0.0
C1225 C 0.76758 0.77183 0.10185 0.0
H1226 H 0.39653 0.1591 0.14357 0.0
H1227 H 0.3493 0.14416 0.20065 0.0
H1228 H 0.38047 0.1242 0.13113 0.0
H1229 H 0.33294 0.1091 0.1878 0.0
H1230 H 0.3269 0.04556 0.17157 0.0
H1231 H 0.33985 0.07968 0.1874 0.0
H1232 H 0.34749 0.1008 0.10895 0.0
H1233 H 0.33479 0.06719 0.09325 0.0
C1234 C 0.3828 0.14835 0.15358 0.0
C1235 C 0.37415 0.15445 0.17299 0.0
C1236 C 0.37347 0.12837 0.1463 0.0
C1237 C 0.35531 0.11395 0.15832 0.0
C1238 C 0.34691 0.11989 0.17821 0.0
C1239 C 0.35618 0.13998 0.18537 0.0
C1240 C 0.33099 0.05747 0.15778 0.0
C1241 C 0.33012 0.05371 0.13117 0.0
C1242 C 0.33842 0.07697 0.16683 0.0
C1243 C 0.34511 0.09294 0.14937 0.0
C1244 C 0.34297 0.08889 0.12286 0.0
C1245 C 0.33557 0.06957 0.11389 0.0
H1246 H 0.91681 0.24381 0.18992 0.0
H1247 H 0.89532 0.22623 0.11173 0.0
H1248 H 0.95136 0.26566 0.17427 0.0
H1249 H 0.9302 0.24796 0.09598 0.0
H1250 H 0.97618 0.31767 0.08783 0.0
H1251 H 0.94734 0.28416 0.09472 0.0
H1252 H 0.98292 0.27387 0.15246 0.0
H1253 H 0.01154 0.30774 0.1458 0.0
C1254 C 0.91962 0.24406 0.16942 0.0
C1255 C 0.90324 0.23369 0.15203 0.0
C1256 C 0.93953 0.25652 0.1604 0.0
C1257 C 0.94348 0.25888 0.13378 0.0
C1258 C 0.92755 0.24674 0.11657 0.0
C1259 C 0.90758 0.23419 0.12563 0.0
C1260 C 0.97804 0.30788 0.10119 0.0
C1261 C 0.9959 0.31505 0.11626 0.0
C1262 C 0.96158 0.28865 0.10513 0.0
C1263 C 0.96273 0.27638 0.12439 0.0
C1264 C 0.98146 0.28304 0.13773 0.0
C1265 C 0.99787 0.30232 0.13382 0.0
H1266 H 0.4068 0.33679 0.69474 0.0
H1267 H 0.37424 0.28791 0.64164 0.0
H1268 H 0.39128 0.35463 0.674 0.0
H1269 H 0.35832 0.30536 0.62147 0.0
H1270 H 0.35253 0.35231 0.5742 0.0
H1271 H 0.36805 0.33471 0.59484 0.0
H1272 H 0.35667 0.35158 0.66961 0.0
H1273 H 0.34134 0.36955 0.64891 0.0
C1274 C 0.39648 0.32995 0.67853 0.0
C1275 C 0.3917 0.31095 0.66984 0.0
C1276 C 0.38739 0.34002 0.66689 0.0
C1277 C 0.37348 0.33133 0.64622 0.0
C1278 C 0.36906 0.31251 0.63725 0.0
C1279 C 0.37805 0.30244 0.64893 0.0
C1280 C 0.35318 0.35217 0.59505 0.0
C1281 C 0.34571 0.36236 0.60991 0.0
C1282 C 0.36204 0.34203 0.60688 0.0
C1283 C 0.36368 0.34184 0.63384 0.0
C1284 C 0.35588 0.35171 0.64877 0.0
C1285 C 0.34692 0.36182 0.63692 0.0
H1286 H 0.82744 0.1251 0.68029 0.0
H1287 H 0.80054 0.15931 0.65083 0.0
H1288 H 0.79894 0.09489 0.66274 0.0
H1289 H 0.77152 0.12864 0.63335 0.0
H1290 H 0.73993 0.0748 0.57772 0.0
H1291 H 0.76554 0.10503 0.5989 0.0
H1292 H 0.76246 0.07103 0.6665 0.0
H1293 H 0.73676 0.0404 0.645 0.0
C1294 C 0.81535 0.1262 0.67017 0.0
C1295 C 0.81643 0.14477 0.66682 0.0
C1296 C 0.79883 0.10873 0.66029 0.0
C1297 C 0.78284 0.1092 0.64662 0.0
C1298 C 0.78367 0.12772 0.64358 0.0
C1299 C 0.80025 0.14531 0.65366 0.0
C1300 C 0.74461 0.07364 0.59714 0.0
C1301 C 0.7363 0.05501 0.60955 0.0
C1302 C 0.75922 0.09113 0.60941 0.0
C1303 C 0.7661 0.09059 0.63446 0.0
C1304 C 0.75766 0.072 0.64708 0.0
C1305 C 0.74289 0.05442 0.6348 0.0
H1306 H 0.90594 0.68276 0.67713 0.0
H1307 H 0.90942 0.72908 0.62718 0.0
H1308 H 0.94168 0.69288 0.66675 0.0
H1309 H 0.94502 0.73946 0.61745 0.0
H1310 H 1.00472 0.74293 0.58928 0.0
H1311 H 0.96796 0.73063 0.59607 0.0
H1312 H 0.97515 0.72092 0.67659 0.0
H1313 H 0.01141 0.73271 0.66978 0.0
C1314 C 0.91426 0.69499 0.66387 0.0
C1315 C 0.90487 0.70517 0.65315 0.0
C1316 C 0.93477 0.7009 0.65803 0.0
C1317 C 0.94628 0.7171 0.64139 0.0
C1318 C 0.93661 0.72682 0.63011 0.0
C1319 C 0.91618 0.72093 0.6359 0.0
C1320 C 0.99843 0.7383 0.60842 0.0
C1321 C 0.01099 0.73874 0.62892 0.0
C1322 C 0.97738 0.73122 0.61234 0.0
C1323 C 0.96854 0.72452 0.63684 0.0
C1324 C 0.98128 0.72545 0.65736 0.0
C1325 C 1.00218 0.73243 0.65346 0.0
H1326 H 0.89078 0.67456 0.20738 0.0
H1327 H 0.92243 0.73882 0.21035 0.0
H1328 H 0.92171 0.67482 0.22189 0.0
H1329 H 0.95354 0.73909 0.22585 0.0
H1330 H 0.01056 0.73165 0.21558 0.0
H1331 H 0.9794 0.73327 0.20911 0.0
H1332 H 0.94562 0.68036 0.25548 0.0
H1333 H 0.97704 0.67834 0.26129 0.0
C1334 C 0.9043 0.68881 0.21147 0.0
C1335 C 0.9041 0.70671 0.20741 0.0
C1336 C 0.92208 0.68893 0.2201 0.0
C1337 C 0.94029 0.70695 0.22508 0.0
C1338 C 0.93993 0.72489 0.22186 0.0
C1339 C 0.92206 0.72478 0.21309 0.0
C1340 C 0.99657 0.72038 0.22465 0.0
C1341 C 0.99636 0.70469 0.23875 0.0
C1342 C 0.97863 0.72145 0.2211 0.0
C1343 C 0.95982 0.70692 0.23161 0.0
C1344 C 0.95973 0.69166 0.24669 0.0
C1345 C 0.97778 0.69055 0.25021 0.0
H1346 H 0.43883 0.31659 0.2079 0.0
H1347 H 0.40879 0.28086 0.27496 0.0
H1348 H 0.44107 0.3456 0.2291 0.0
H1349 H 0.40966 0.30931 0.29532 0.0
H1350 H 0.42239 0.36465 0.33501 0.0
H1351 H 0.42903 0.34008 0.31501 0.0
H1352 H 0.41919 0.35825 0.23982 0.0
H1353 H 0.41372 0.38367 0.26 0.0
C1354 C 0.43288 0.3149 0.22723 0.0
C1355 C 0.42338 0.29623 0.23955 0.0
C1356 C 0.4339 0.33153 0.23928 0.0
C1357 C 0.42534 0.32986 0.26386 0.0
C1358 C 0.41664 0.31136 0.27653 0.0
C1359 C 0.41585 0.29486 0.26465 0.0
C1360 C 0.42187 0.36352 0.31419 0.0
C1361 C 0.41729 0.3759 0.29906 0.0
C1362 C 0.42556 0.34934 0.30269 0.0
C1363 C 0.4243 0.34684 0.27577 0.0
C1364 C 0.42051 0.35981 0.26058 0.0
C1365 C 0.41723 0.37432 0.27212 0.0
H1366 H 0.78253 0.20959 0.23156 0.0
H1367 H 0.81352 0.17532 0.22501 0.0
H1368 H 0.75218 0.18057 0.24825 0.0
H1369 H 0.78317 0.14626 0.24244 0.0
H1370 H 0.71544 0.0957 0.23103 0.0
H1371 H 0.74934 0.12436 0.22482 0.0
H1372 H 0.73663 0.15662 0.28293 0.0
H1373 H 0.7022 0.12785 0.28877 0.0
C1374 C 0.78299 0.19593 0.23406 0.0
C1375 C 0.80032 0.19467 0.22659 0.0
C1376 C 0.76563 0.17932 0.2439 0.0
C1377 C 0.76521 0.16107 0.24658 0.0
C1378 C 0.78292 0.16005 0.24027 0.0
C1379 C 0.80032 0.1767 0.23034 0.0
C1380 C 0.71989 0.1088 0.24274 0.0
C1381 C 0.70598 0.1096 0.26012 0.0
C1382 C 0.73947 0.1252 0.23935 0.0
C1383 C 0.74566 0.14283 0.25328 0.0
C1384 C 0.73217 0.14332 0.27166 0.0
C1385 C 0.7125 0.12683 0.27509 0.0
H1386 H 0.04272 0.54701 0.88133 0.0
H1387 H 0.04822 0.50861 0.93752 0.0
H1388 H 0.03537 0.52212 0.84779 0.0
H1389 H 0.04049 0.48378 0.90425 0.0
H1390 H 0.99902 0.43452 0.85079 0.0
H1391 H 1.0073 0.46235 0.87928 0.0
H1392 H 0.0513 0.50285 0.82421 0.0
H1393 H 0.04302 0.4747 0.79529 0.0
C1394 C 0.0427 0.53346 0.88651 0.0
C1395 C 0.04575 0.52971 0.91229 0.0
C1396 C 0.03842 0.51919 0.86728 0.0
C1397 C 0.03697 0.50088 0.87353 0.0
C1398 C 0.04103 0.49758 0.89899 0.0
C1399 C 0.04544 0.51182 0.91807 0.0
C1400 C 0.01027 0.44935 0.84446 0.0
C1401 C 0.02058 0.45234 0.82089 0.0
C1402 C 0.01509 0.46529 0.8609 0.0
C1403 C 0.03028 0.48468 0.85422 0.0
C1404 C 0.03959 0.488 0.82987 0.0
C1405 C 0.03481 0.47192 0.81332 0.0
H1406 H 0.5813 0.57479 0.96187 0.0
H1407 H 0.5368 0.58748 0.92602 0.0
H1408 H 0.60419 0.5898 0.92533 0.0
H1409 H 0.55959 0.60216 0.88942 0.0
H1410 H 0.59732 0.61022 0.8169 0.0
H1411 H 0.57432 0.59303 0.85287 0.0
H1412 H 0.62523 0.62324 0.90612 0.0
H1413 H 0.64826 0.6403 0.87021 0.0
C1414 C 0.57636 0.58081 0.94636 0.0
C1415 C 0.55709 0.57988 0.94713 0.0
C1416 C 0.58952 0.5894 0.92533 0.0
C1417 C 0.58372 0.59716 0.90444 0.0
C1418 C 0.5644 0.59605 0.90502 0.0
C1419 C 0.5513 0.58758 0.9261 0.0
C1420 C 0.60365 0.61309 0.83626 0.0
C1421 C 0.62464 0.62669 0.84066 0.0
C1422 C 0.59043 0.60333 0.85689 0.0
C1423 C 0.59792 0.60682 0.88238 0.0
C1424 C 0.619 0.62007 0.88671 0.0
C1425 C 0.63218 0.62993 0.86611 0.0
H1426 H 0.50406 0.04309 0.93495 0.0
H1427 H 0.45802 0.03344 0.99158 0.0
H1428 H 0.48504 0.05033 0.90247 0.0
H1429 H 0.4386 0.04012 0.95908 0.0
H1430 H 0.41579 0.06765 0.90107 0.0
H1431 H 0.43852 0.06529 0.93277 0.0
H1432 H 0.45388 0.03275 0.87804 0.0
H1433 H 0.43169 0.0358 0.84595 0.0
C1434 C 0.48981 0.04247 0.94037 0.0
C1435 C 0.48241 0.03761 0.96567 0.0
C1436 C 0.47889 0.04656 0.9218 0.0
C1437 C 0.46024 0.04569 0.92812 0.0
C1438 C 0.45308 0.04124 0.95364 0.0
C1439 C 0.46414 0.03736 0.97226 0.0
C1440 C 0.42413 0.0601 0.89575 0.0
C1441 C 0.42185 0.05176 0.8711 0.0
C1442 C 0.43708 0.05867 0.91397 0.0
C1443 C 0.44785 0.04866 0.90805 0.0
C1444 C 0.44599 0.04077 0.88314 0.0
C1445 C 0.43319 0.04241 0.86478 0.0
H1446 H 0.52318 0.08594 0.67027 0.0
H1447 H 0.47992 0.06916 0.60697 0.0
H1448 H 0.49538 0.07802 0.70061 0.0
H1449 H 0.45206 0.06047 0.63727 0.0
H1450 H 0.41194 0.06845 0.69714 0.0
H1451 H 0.43929 0.07577 0.6665 0.0
H1452 H 0.46481 0.04975 0.71828 0.0
H1453 H 0.43765 0.04281 0.74927 0.0
C1454 C 0.50779 0.08063 0.66278 0.0
C1455 C 0.50385 0.07818 0.63612 0.0
C1456 C 0.49177 0.07582 0.68022 0.0
C1457 C 0.47142 0.06849 0.67143 0.0
C1458 C 0.46754 0.06621 0.64475 0.0
C1459 C 0.48353 0.07101 0.62735 0.0
C1460 C 0.42327 0.06412 0.70195 0.0
C1461 C 0.42258 0.05506 0.72572 0.0
C1462 C 0.43895 0.06828 0.6843 0.0
C1463 C 0.45435 0.06345 0.68994 0.0
C1464 C 0.45341 0.05398 0.71349 0.0
C1465 C 0.43771 0.04983 0.73117 0.0
H1466 H 0.02792 0.50044 0.5741 0.0
H1467 H 0.09018 0.53565 0.6028 0.0
H1468 H 0.01965 0.47754 0.60988 0.0
H1469 H 0.08182 0.51248 0.63895 0.0
H1470 H 0.06202 0.45542 0.68856 0.0
H1471 H 0.07214 0.47784 0.65129 0.0
H1472 H 0.01464 0.47801 0.65583 0.0
H1473 H 1.0045 0.45563 0.69252 0.0
C1474 C 0.03986 0.50345 0.58814 0.0
C1475 C 0.05967 0.52019 0.58566 0.0
C1476 C 0.03509 0.49022 0.60873 0.0
C1477 C 0.04996 0.49324 0.62757 0.0
C1478 C 0.07 0.50961 0.62474 0.0
C1479 C 0.0748 0.52293 0.60402 0.0
C1480 C 0.05153 0.46019 0.6815 0.0
C1481 C 0.03239 0.4536 0.69353 0.0
C1482 C 0.05739 0.47315 0.66024 0.0
C1483 C 0.04418 0.47969 0.6504 0.0
C1484 C 0.02509 0.47307 0.66253 0.0
C1485 C 0.01931 0.46026 0.68375 0.0
H1486 H 0.57993 0.6122 0.56234 0.0
H1487 H 0.53531 0.56373 0.609 0.0
H1488 H 0.60348 0.62454 0.59868 0.0
H1489 H 0.55935 0.57562 0.64533 0.0
H1490 H 0.59617 0.61918 0.71187 0.0
H1491 H 0.57301 0.60184 0.67581 0.0
H1492 H 0.62562 0.62011 0.62612 0.0
H1493 H 0.64852 0.63819 0.66178 0.0
C1494 C 0.57532 0.60389 0.58023 0.0
C1495 C 0.55568 0.58703 0.58278 0.0
C1496 C 0.58892 0.61093 0.60114 0.0
C1497 C 0.58338 0.60114 0.62512 0.0
C1498 C 0.56403 0.58376 0.62735 0.0
C1499 C 0.5503 0.57684 0.60644 0.0
C1500 C 0.60272 0.61927 0.69328 0.0
C1501 C 0.62411 0.63026 0.68953 0.0
C1502 C 0.58947 0.60925 0.67259 0.0
C1503 C 0.59738 0.60976 0.64784 0.0
C1504 C 0.61889 0.61982 0.64464 0.0
C1505 C 0.63205 0.6301 0.66514 0.0
H1506 H 0.08806 0.62918 0.07315 0.0
H1507 H 0.02873 0.57997 0.09464 0.0
H1508 H 0.08684 0.6483 0.10956 0.0
H1509 H 0.02721 0.59942 0.1306 0.0
H1510 H 0.04011 0.63622 0.20575 0.0
H1511 H 0.04293 0.61508 0.17272 0.0
H1512 H 0.06667 0.66424 0.1191 0.0
H1513 H 0.06414 0.68519 0.15171 0.0
C1514 C 0.07483 0.62234 0.08572 0.0
C1515 C 0.05841 0.60307 0.08072 0.0
C1516 C 0.07404 0.63339 0.10649 0.0
C1517 C 0.05682 0.62547 0.12285 0.0
C1518 C 0.04072 0.60594 0.11844 0.0
C1519 C 0.04149 0.59488 0.0976 0.0
C1520 C 0.04595 0.64247 0.18691 0.0
C1521 C 0.05191 0.66242 0.18145 0.0
C1522 C 0.04751 0.63036 0.16798 0.0
C1523 C 0.0552 0.63803 0.14334 0.0
C1524 C 0.06107 0.65794 0.13799 0.0
C1525 C 0.05944 0.66993 0.15673 0.0
H1526 H 0.48108 0.50403 0.12076 0.0
H1527 H 0.53048 0.54267 0.17215 0.0
H1528 H 0.46061 0.48485 0.1578 0.0
H1529 H 0.51017 0.52368 0.20894 0.0
H1530 H 0.48141 0.47043 0.26303 0.0
H1531 H 0.49937 0.49074 0.22597 0.0
H1532 H 0.44252 0.48554 0.1976 0.0
H1533 H 0.42429 0.46479 0.23486 0.0
C1534 C 0.48745 0.50862 0.13994 0.0
C1535 C 0.50755 0.52472 0.14345 0.0
C1536 C 0.47572 0.49763 0.16118 0.0
C1537 C 0.48386 0.50254 0.18634 0.0
C1538 C 0.5036 0.51917 0.18981 0.0
C1539 C 0.51527 0.53008 0.16869 0.0
C1540 C 0.47266 0.47361 0.24899 0.0
C1541 C 0.45138 0.46599 0.25201 0.0
C1542 C 0.48303 0.4854 0.22776 0.0
C1543 C 0.47245 0.48993 0.20886 0.0
C1544 C 0.45111 0.48224 0.21174 0.0
C1545 C 0.4407 0.47046 0.23315 0.0
H1546 H 0.56726 0.10347 0.1077 0.0
H1547 H 0.51558 0.06143 0.1527 0.0
H1548 H 0.59043 0.10849 0.14386 0.0
H1549 H 0.5387 0.06577 0.18869 0.0
H1550 H 0.58881 0.07771 0.24938 0.0
H1551 H 0.56651 0.08527 0.22214 0.0
H1552 H 0.59812 0.08202 0.15454 0.0
H1553 H 0.61998 0.07465 0.18115 0.0
C1554 C 0.56083 0.09599 0.12579 0.0
C1555 C 0.53979 0.08203 0.12749 0.0
C1556 C 0.57403 0.09868 0.14638 0.0
C1557 C 0.56643 0.08709 0.16884 0.0
C1558 C 0.54501 0.07491 0.17167 0.0
C1559 C 0.53176 0.07245 0.15111 0.0
C1560 C 0.591 0.0788 0.22871 0.0
C1561 C 0.60603 0.0754 0.21743 0.0
C1562 C 0.57831 0.08315 0.21317 0.0
C1563 C 0.58077 0.08456 0.18623 0.0
C1564 C 0.5961 0.08156 0.17523 0.0
C1565 C 0.60849 0.07702 0.19055 0.0
H1566 H 0.60196 0.1308 0.46665 0.0
H1567 H 0.59332 0.07263 0.48448 0.0
H1568 H 0.61684 0.13012 0.42512 0.0
H1569 H 0.60813 0.07194 0.44316 0.0
H1570 H 0.60956 0.06607 0.35612 0.0
H1571 H 0.59733 0.06877 0.39837 0.0
H1572 H 0.64617 0.13002 0.40382 0.0
H1573 H 0.65831 0.12743 0.36113 0.0
C1574 C 0.60353 0.11802 0.46191 0.0
C1575 C 0.59621 0.10166 0.47877 0.0
C1576 C 0.61203 0.11761 0.43809 0.0
C1577 C 0.61341 0.10085 0.43066 0.0
C1578 C 0.60685 0.08488 0.448 0.0
C1579 C 0.59837 0.08528 0.47172 0.0
C1580 C 0.61772 0.08015 0.36625 0.0
C1581 C 0.63496 0.09652 0.35521 0.0
C1582 C 0.61078 0.08165 0.3906 0.0
C1583 C 0.62087 0.09956 0.4046 0.0
C1584 C 0.63797 0.11605 0.39347 0.0
C1585 C 0.64497 0.11453 0.36905 0.0
H1586 H 0.08726 0.60344 0.40423 0.0
H1587 H 0.02247 0.57721 0.42095 0.0
H1588 H 0.08339 0.62145 0.36821 0.0
H1589 H 0.01845 0.59507 0.38456 0.0
H1590 H 0.02437 0.64658 0.3322 0.0
H1591 H 0.02634 0.62735 0.3686 0.0
H1592 H 0.06938 0.61663 0.32619 0.0
H1593 H 0.06785 0.63616 0.2905 0.0
C1594 C 0.07211 0.60129 0.40006 0.0
C1595 C 0.05519 0.58874 0.41554 0.0
C1596 C 0.06984 0.61165 0.37929 0.0
C1597 C 0.05054 0.60969 0.37319 0.0
C1598 C 0.0336 0.59719 0.38876 0.0
C1599 C 0.0359 0.58689 0.40965 0.0
C1600 C 0.03411 0.63997 0.33063 0.0
C1601 C 0.04607 0.64308 0.30847 0.0
C1602 C 0.03522 0.62888 0.35149 0.0
C1603 C 0.04826 0.62059 0.35061 0.0
C1604 C 0.05959 0.62317 0.32799 0.0
C1605 C 0.05858 0.63429 0.30734 0.0
H1606 H 0.47682 0.51017 0.50382 0.0
H1607 H 0.5155 0.55183 0.44562 0.0
H1608 H 0.45913 0.485 0.47087 0.0
H1609 H 0.49832 0.52632 0.41259 0.0
H1610 H 0.44581 0.48306 0.35815 0.0
H1611 H 0.46655 0.50876 0.3898 0.0
H1612 H 0.46222 0.46332 0.44218 0.0
H1613 H 0.44087 0.43781 0.41114 0.0
C1614 C 0.4818 0.51385 0.48402 0.0
C1615 C 0.49757 0.53301 0.47737 0.0
C1616 C 0.47171 0.49935 0.46505 0.0
C1617 C 0.47727 0.50354 0.43895 0.0
C1618 C 0.49338 0.52262 0.43239 0.0
C1619 C 0.50335 0.53721 0.45137 0.0
C1620 C 0.44944 0.47864 0.37637 0.0
C1621 C 0.44149 0.45841 0.38227 0.0
C1622 C 0.46142 0.49336 0.3945 0.0
C1623 C 0.4659 0.48815 0.41877 0.0
C1624 C 0.45866 0.46792 0.42405 0.0
C1625 C 0.4465 0.45326 0.40614 0.0
H1626 H 0.69388 0.85118 0.2933 0.0
H1627 H 0.70016 0.89373 0.23512 0.0
H1628 H 0.6884 0.82701 0.25966 0.0
H1629 H 0.69391 0.86947 0.20152 0.0
H1630 H 0.71011 0.8313 0.1485 0.0
H1631 H 0.7105 0.85469 0.18036 0.0
H1632 H 0.66748 0.80531 0.22723 0.0
H1633 H 0.66783 0.78217 0.19596 0.0
C1634 C 0.69352 0.85518 0.27336 0.0
C1635 C 0.6975 0.8744 0.26695 0.0
C1636 C 0.69037 0.84131 0.25394 0.0
C1637 C 0.69088 0.84622 0.22759 0.0
C1638 C 0.69388 0.86518 0.2214 0.0
C1639 C 0.69725 0.87907 0.24076 0.0
C1640 C 0.70045 0.8255 0.16537 0.0
C1641 C 0.68905 0.80487 0.1697 0.0
C1642 C 0.70064 0.8389 0.18375 0.0
C1643 C 0.68922 0.83201 0.20678 0.0
C1644 C 0.67692 0.81131 0.21024 0.0
C1645 C 0.67695 0.79798 0.19208 0.0
H1646 H 0.21899 0.93523 0.31723 0.0
H1647 H 0.1982 0.88153 0.27246 0.0
H1648 H 0.23762 0.95515 0.27981 0.0
H1649 H 0.21669 0.90144 0.23515 0.0
H1650 H 0.27406 0.94161 0.18645 0.0
H1651 H 0.25295 0.92187 0.22258 0.0
H1652 H 0.23389 0.96532 0.236 0.0
H1653 H 0.25509 0.98514 0.20002 0.0
C1654 C 0.21806 0.92766 0.29932 0.0
C1655 C 0.2071 0.90672 0.29799 0.0
C1656 C 0.22877 0.93911 0.27782 0.0
C1657 C 0.22889 0.92991 0.2545 0.0
C1658 C 0.21726 0.90902 0.25291 0.0
C1659 C 0.20648 0.8976 0.27431 0.0
C1660 C 0.26537 0.94697 0.19707 0.0
C1661 C 0.26633 0.965 0.19026 0.0
C1662 C 0.25313 0.93557 0.21771 0.0
C1663 C 0.24163 0.94195 0.23221 0.0
C1664 C 0.24265 0.96002 0.22543 0.0
C1665 C 0.25477 0.97134 0.20468 0.0
H1666 H 0.13782 0.38721 0.28558 0.0
H1667 H 0.17837 0.44433 0.25101 0.0
H1668 H 0.11352 0.3792 0.25006 0.0
H1669 H 0.15379 0.43626 0.21527 0.0
H1670 H 0.10866 0.40088 0.14496 0.0
H1671 H 0.13597 0.40941 0.17732 0.0
H1672 H 0.09167 0.39537 0.23803 0.0
H1673 H 0.06469 0.38711 0.20625 0.0
C1674 C 0.1417 0.39794 0.27019 0.0
C1675 C 0.15999 0.41644 0.27113 0.0
C1676 C 0.12772 0.3934 0.24994 0.0
C1677 C 0.13177 0.40715 0.23002 0.0
C1678 C 0.15037 0.42538 0.23037 0.0
C1679 C 0.1643 0.43005 0.25088 0.0
C1680 C 0.10483 0.3997 0.16522 0.0
C1681 C 0.08449 0.39328 0.173 0.0
C1682 C 0.12044 0.40463 0.18367 0.0
C1683 C 0.11583 0.40286 0.21011 0.0
C1684 C 0.09558 0.39663 0.21777 0.0
C1685 C 0.08015 0.39201 0.1995 0.0
H1686 H 0.11936 0.36215 0.90885 0.0
H1687 H 0.11735 0.31544 0.95641 0.0
H1688 H 0.10063 0.3692 0.94168 0.0
H1689 H 0.09846 0.32243 0.98941 0.0
H1690 H 0.09057 0.36047 0.05324 0.0
H1691 H 0.10721 0.35143 0.01969 0.0
H1692 H 0.06584 0.35326 0.96284 0.0
H1693 H 0.04911 0.36222 0.99633 0.0
C1694 C 0.11477 0.35331 0.9263 0.0
C1695 C 0.11987 0.33829 0.93014 0.0
C1696 C 0.10395 0.35726 0.94502 0.0
C1697 C 0.09818 0.34645 0.96818 0.0
C1698 C 0.10289 0.33113 0.97183 0.0
C1699 C 0.11349 0.32699 0.95289 0.0
C1700 C 0.08505 0.359 0.03358 0.0
C1701 C 0.06854 0.36212 0.02746 0.0
C1702 C 0.09447 0.35365 1.01441 0.0
C1703 C 0.08777 0.35155 0.98866 0.0
C1704 C 0.0714 0.35486 0.9825 0.0
C1705 C 0.06181 0.35996 1.0017 0.0
H1706 H 0.68046 0.86257 0.9394 0.0
H1707 H 0.71062 0.84003 0.89059 0.0
H1708 H 0.68915 0.84968 0.9772 0.0
H1709 H 0.71891 0.82631 0.92872 0.0
H1710 H 0.74189 0.81525 1.00704 0.0
H1711 H 0.73731 0.83115 0.96879 0.0
H1712 H 0.67788 0.8187 0.99696 0.0
H1713 H 0.68274 0.80339 0.03538 0.0
C1714 C 0.68921 0.855 0.9368 0.0
C1715 C 0.69486 0.85237 0.91194 0.0
C1716 C 0.69398 0.84733 0.95854 0.0
C1717 C 0.70432 0.83642 0.95624 0.0
C1718 C 0.71095 0.83463 0.93142 0.0
C1719 C 0.70632 0.84257 0.90949 0.0
C1720 C 0.72785 0.81596 1.00512 0.0
C1721 C 0.71274 0.80808 0.02454 0.0
C1722 C 0.72517 0.825 0.983 0.0
C1723 C 0.70729 0.82647 0.9796 0.0
C1724 C 0.69211 0.81836 0.99896 0.0
C1725 C 0.69482 0.8094 0.02106 0.0
H1726 H 0.1915 0.93626 0.96051 0.0
H1727 H 0.22794 0.91044 0.93493 0.0
H1728 H 0.21352 0.94937 0.99882 0.0
H1729 H 0.24914 0.92278 0.97328 0.0
H1730 H 0.29995 0.97349 0.01966 0.0
H1731 H 0.27477 0.95675 0.98584 0.0
H1732 H 0.22551 0.94008 0.04041 0.0
H1733 H 0.25111 0.95726 0.07485 0.0
C1734 C 0.20403 0.93322 0.96308 0.0
C1735 C 0.20795 0.92238 0.94439 0.0
C1736 C 0.21647 0.94052 0.9852 0.0
C1737 C 0.23315 0.93721 0.98899 0.0
C1738 C 0.23656 0.92578 0.9708 0.0
C1739 C 0.2242 0.91852 0.94882 0.0
C1740 C 0.28378 0.9662 0.02465 0.0
C1741 C 0.27756 0.96675 0.05001 0.0
C1742 C 0.26931 0.95646 1.00521 0.0
C1743 C 0.24813 0.94698 1.01044 0.0
C1744 C 0.24175 0.94733 0.03582 0.0
C1745 C 0.25637 0.95701 0.05552 0.0
H1746 H 0.68343 0.91019 0.40644 0.0
H1747 H 0.74692 0.93201 0.42794 0.0
H1748 H 0.67769 0.92198 0.44792 0.0
H1749 H 0.7412 0.94349 0.46898 0.0
H1750 H 0.73218 0.99178 0.50966 0.0
H1751 H 0.73558 0.97224 0.47548 0.0
H1752 H 0.67833 0.92098 0.49848 0.0
H1753 H 0.67507 0.94081 0.5334 0.0
C1754 C 0.69595 0.91689 0.42029 0.0
C1755 C 0.7157 0.92037 0.41374 0.0
C1756 C 0.69269 0.92367 0.44405 0.0
C1757 C 0.7091 0.93401 0.4616 0.0
C1758 C 0.72832 0.93595 0.45576 0.0
C1759 C 0.73157 0.92929 0.4322 0.0
C1760 C 0.72053 0.97621 0.50786 0.0
C1761 C 0.70348 0.9678 0.5244 0.0
C1762 C 0.72247 0.96497 0.48823 0.0
C1763 C 0.70724 0.94499 0.48418 0.0
C1764 C 0.69031 0.93633 0.50106 0.0
C1765 C 0.68856 0.94759 0.52121 0.0
H1766 H 0.17064 0.87924 0.44769 0.0
H1767 H 0.12304 0.83467 0.39907 0.0
H1768 H 0.15107 0.86182 0.48577 0.0
H1769 H 0.10325 0.81733 0.43732 0.0
H1770 H 0.08899 0.77944 0.51234 0.0
H1771 H 0.10521 0.79756 0.4728 0.0
H1772 H 0.1204 0.85297 0.51032 0.0
H1773 H 0.10451 0.83495 0.54986 0.0
C1774 C 0.15584 0.86588 0.44507 0.0
C1775 C 0.14849 0.85839 0.42021 0.0
C1776 C 0.14454 0.85589 0.46698 0.0
C1777 C 0.12555 0.83807 0.46473 0.0
C1778 C 0.11791 0.83086 0.43984 0.0
C1779 C 0.1292 0.84092 0.41787 0.0
C1780 C 0.09563 0.79547 0.5121 0.0
C1781 C 0.09551 0.8057 0.53442 0.0
C1782 C 0.10486 0.80588 0.48934 0.0
C1783 C 0.11427 0.82679 0.48831 0.0
C1784 C 0.11362 0.83692 0.51045 0.0
C1785 C 0.10437 0.82654 0.53314 0.0
H1786 H 0.26022 0.42718 0.41916 0.0
H1787 H 0.2138 0.42653 0.46872 0.0
H1788 H 0.27284 0.4155 0.45467 0.0
H1789 H 0.22647 0.41477 0.50453 0.0
H1790 H 0.27673 0.37393 0.50877 0.0
H1791 H 0.25857 0.38341 0.47787 0.0
H1792 H 0.25747 0.42439 0.53326 0.0
H1793 H 0.27539 0.4146 0.56453 0.0
C1794 C 0.25286 0.4247 0.43777 0.0
C1795 C 0.23597 0.42763 0.44111 0.0
C1796 C 0.25993 0.41784 0.45804 0.0
C1797 C 0.25027 0.41371 0.4822 0.0
C1798 C 0.23411 0.41771 0.48607 0.0
C1799 C 0.22699 0.42459 0.46564 0.0
C1800 C 0.2721 0.38454 0.51464 0.0
C1801 C 0.27777 0.39375 0.53891 0.0
C1802 C 0.26189 0.39012 0.49686 0.0
C1803 C 0.25722 0.40512 0.50289 0.0
C1804 C 0.26102 0.41291 0.52803 0.0
C1805 C 0.27119 0.40722 0.54597 0.0
H1806 H 0.2096 0.32977 0.76382 0.0
H1807 H 0.22333 0.38908 0.78451 0.0
H1808 H 0.23229 0.3433 0.72629 0.0
H1809 H 0.24589 0.40257 0.74725 0.0
H1810 H 0.26295 0.41363 0.66038 0.0
H1811 H 0.24135 0.40051 0.69861 0.0
H1812 H 0.2708 0.36627 0.71748 0.0
H1813 H 0.29252 0.37944 0.6794 0.0
C1814 C 0.21748 0.34566 0.76033 0.0
C1815 C 0.21482 0.35837 0.77716 0.0
C1816 C 0.23053 0.35342 0.73901 0.0
C1817 C 0.24086 0.374 0.73387 0.0
C1818 C 0.23807 0.38666 0.75064 0.0
C1819 C 0.22531 0.37895 0.77212 0.0
C1820 C 0.26495 0.40343 0.67278 0.0
C1821 C 0.2795 0.39763 0.66683 0.0
C1822 C 0.25259 0.39595 0.69469 0.0
C1823 C 0.25433 0.38229 0.71095 0.0
C1824 C 0.26898 0.37661 0.70515 0.0
C1825 C 0.28153 0.3843 0.68344 0.0
H1826 H 0.65192 0.90086 0.77692 0.0
H1827 H 0.71013 0.90295 0.76621 0.0
H1828 H 0.65786 0.92109 0.73912 0.0
H1829 H 0.71593 0.92311 0.7271 0.0
H1830 H 0.72777 0.97567 0.67275 0.0
H1831 H 0.72332 0.95476 0.71011 0.0
H1832 H 0.65796 0.92083 0.6943 0.0
H1833 H 0.66238 0.94222 0.6575 0.0
C1834 C 0.66602 0.90547 0.76634 0.0
C1835 C 0.68048 0.90002 0.77477 0.0
C1836 C 0.66935 0.91706 0.74429 0.0
C1837 C 0.68723 0.92364 0.72946 0.0
C1838 C 0.70196 0.91845 0.73796 0.0
C1839 C 0.69865 0.90681 0.76038 0.0
C1840 C 0.71241 0.96375 0.67723 0.0
C1841 C 0.6954 0.96082 0.66209 0.0
C1842 C 0.70989 0.95159 0.69865 0.0
C1843 C 0.69026 0.93602 0.70563 0.0
C1844 C 0.67331 0.93287 0.6901 0.0
C1845 C 0.67582 0.94513 0.66879 0.0
H1846 H 0.16594 0.89199 0.73746 0.0
H1847 H 0.12534 0.84096 0.78364 0.0
H1848 H 0.15523 0.87084 0.69885 0.0
H1849 H 0.11524 0.81999 0.74543 0.0
H1850 H 0.12478 0.78482 0.68481 0.0
H1851 H 0.13883 0.81105 0.71713 0.0
H1852 H 0.11972 0.84573 0.67152 0.0
H1853 H 0.10534 0.81918 0.63882 0.0
C1854 C 0.15451 0.8764 0.73937 0.0
C1855 C 0.14674 0.8681 0.76378 0.0
C1856 C 0.14849 0.86431 0.71727 0.0
C1857 C 0.13477 0.84376 0.71932 0.0
C1858 C 0.1262 0.83573 0.74343 0.0
C1859 C 0.13202 0.84775 0.76532 0.0
C1860 C 0.12397 0.79822 0.68127 0.0
C1861 C 0.11366 0.79979 0.65944 0.0
C1862 C 0.13195 0.81318 0.69986 0.0
C1863 C 0.12991 0.83015 0.69705 0.0
C1864 C 0.12137 0.8327 0.67414 0.0
C1865 C 0.11325 0.81758 0.65541 0.0
H1866 H 0.34882 0.19661 0.65801 0.0
H1867 H 0.40276 0.23956 0.61669 0.0
H1868 H 0.34018 0.17306 0.62236 0.0
H1869 H 0.39468 0.21603 0.58186 0.0
H1870 H 0.37228 0.17255 0.51549 0.0
H1871 H 0.37402 0.19725 0.54646 0.0
H1872 H 0.35298 0.15284 0.60667 0.0
H1873 H 0.35064 0.12842 0.57604 0.0
C1874 C 0.3587 0.20112 0.64127 0.0
C1875 C 0.3766 0.21992 0.64045 0.0
C1876 C 0.35387 0.18757 0.62085 0.0
C1877 C 0.36687 0.19245 0.59918 0.0
C1878 C 0.38415 0.21166 0.59792 0.0
C1879 C 0.38889 0.22517 0.61818 0.0
C1880 C 0.36781 0.16807 0.53527 0.0
C1881 C 0.36149 0.14849 0.54317 0.0
C1882 C 0.36888 0.18224 0.55312 0.0
C1883 C 0.36366 0.17714 0.57926 0.0
C1884 C 0.35679 0.15739 0.58678 0.0
C1885 C 0.35568 0.14334 0.56908 0.0
H1886 H 0.88928 0.23352 0.60564 0.0
H1887 H 0.94623 0.23621 0.62824 0.0
H1888 H 0.90714 0.25758 0.57168 0.0
H1889 H 0.96406 0.25979 0.59339 0.0
H1890 H 0.99288 0.31969 0.54984 0.0
H1891 H 0.97546 0.29404 0.58242 0.0
H1892 H 0.92363 0.26233 0.53081 0.0
H1893 H 0.94088 0.28827 0.49842 0.0
C1894 C 0.90562 0.23918 0.60335 0.0
C1895 C 0.91631 0.23301 0.61997 0.0
C1896 C 0.91585 0.25284 0.58357 0.0
C1897 C 0.9371 0.26073 0.57973 0.0
C1898 C 0.94774 0.25424 0.59597 0.0
C1899 C 0.93747 0.24053 0.6158 0.0
C1900 C 0.97778 0.30724 0.54539 0.0
C1901 C 0.96825 0.30614 0.52151 0.0
C1902 C 0.96783 0.29241 0.56405 0.0
C1903 C 0.94809 0.27605 0.55934 0.0
C1904 C 0.93869 0.27483 0.5353 0.0
C1905 C 0.94863 0.28968 0.51664 0.0
H1906 H 0.80487 0.71259 0.62258 0.0
H1907 H 0.83489 0.69565 0.56541 0.0
H1908 H 0.79588 0.72941 0.58936 0.0
H1909 H 0.82648 0.71282 0.53229 0.0
H1910 H 0.78382 0.72204 0.47667 0.0
H1911 H 0.79693 0.70839 0.50918 0.0
H1912 H 0.80897 0.75701 0.5604 0.0
H1913 H 0.7952 0.77025 0.52824 0.0
C1914 C 0.80979 0.71274 0.60297 0.0
C1915 C 0.82031 0.70262 0.59649 0.0
C1916 C 0.80474 0.72242 0.58392 0.0
C1917 C 0.81035 0.72236 0.55807 0.0
C1918 C 0.82151 0.71279 0.55186 0.0
C1919 C 0.82636 0.70297 0.57083 0.0
C1920 C 0.78951 0.72995 0.49474 0.0
C1921 C 0.78831 0.74712 0.49996 0.0
C1922 C 0.7971 0.72216 0.51338 0.0
C1923 C 0.80384 0.73151 0.53754 0.0
C1924 C 0.80349 0.74919 0.54225 0.0
C1925 C 0.79573 0.75686 0.52372 0.0
H1926 H 0.7969 0.67356 0.27088 0.0
H1927 H 0.8079 0.72743 0.23231 0.0
H1928 H 0.78064 0.68111 0.30654 0.0
H1929 H 0.79227 0.73525 0.26806 0.0
H1930 H 0.74759 0.73604 0.32516 0.0
H1931 H 0.7594 0.7244 0.28902 0.0
H1932 H 0.79124 0.70557 0.34177 0.0
H1933 H 0.77915 0.71695 0.37804 0.0
C1934 C 0.79571 0.68691 0.26991 0.0
C1935 C 0.80382 0.69994 0.24881 0.0
C1936 C 0.78658 0.69134 0.29045 0.0
C1937 C 0.78519 0.70881 0.29021 0.0
C1938 C 0.79288 0.72157 0.2688 0.0
C1939 C 0.80208 0.7172 0.24841 0.0
C1940 C 0.75696 0.72926 0.32912 0.0
C1941 C 0.76253 0.72757 0.35453 0.0
C1942 C 0.76382 0.72268 0.30836 0.0
C1943 C 0.77642 0.7142 0.31245 0.0
C1944 C 0.78142 0.71188 0.33792 0.0
C1945 C 0.77458 0.71851 0.35872 0.0
H1946 H 0.40927 0.21819 0.29552 0.0
H1947 H 0.34469 0.18189 0.27691 0.0
H1948 H 0.40379 0.20147 0.33666 0.0
H1949 H 0.33915 0.16451 0.3183 0.0
H1950 H 0.33381 0.14849 0.40471 0.0
H1951 H 0.33807 0.1661 0.36422 0.0
H1952 H 0.39779 0.17115 0.35457 0.0
H1953 H 0.39372 0.15403 0.3955 0.0
C1954 C 0.3938 0.20658 0.30022 0.0
C1955 C 0.37743 0.20137 0.28271 0.0
C1956 C 0.39068 0.19681 0.32388 0.0
C1957 C 0.37109 0.18127 0.33091 0.0
C1958 C 0.35449 0.17643 0.31375 0.0
C1959 C 0.35761 0.1864 0.28997 0.0
C1960 C 0.34792 0.15341 0.39402 0.0
C1961 C 0.36348 0.14987 0.4036 0.0
C1962 C 0.35029 0.16342 0.37058 0.0
C1963 C 0.3683 0.17021 0.35586 0.0
C1964 C 0.38382 0.16655 0.36542 0.0
C1965 C 0.38148 0.15659 0.38894 0.0
H1966 H 0.91241 0.27441 0.25558 0.0
H1967 H 0.87126 0.29362 0.2849 0.0
H1968 H 0.93362 0.28701 0.29419 0.0
H1969 H 0.89288 0.30668 0.32364 0.0
H1970 H 0.92858 0.31063 0.3997 0.0
H1971 H 0.90494 0.2945 0.36323 0.0
H1972 H 0.95633 0.32154 0.31082 0.0
H1973 H 0.97972 0.33748 0.3468 0.0
C1974 C 0.90782 0.28121 0.27038 0.0
C1975 C 0.89018 0.28304 0.26721 0.0
C1976 C 0.92003 0.28853 0.29242 0.0
C1977 C 0.91488 0.2978 0.31188 0.0
C1978 C 0.89708 0.29942 0.30899 0.0
C1979 C 0.88489 0.2922 0.28674 0.0
C1980 C 0.93477 0.31288 0.38039 0.0
C1981 C 0.95596 0.32532 0.37608 0.0
C1982 C 0.92126 0.30382 0.35957 0.0
C1983 C 0.92884 0.30681 0.33426 0.0
C1984 C 0.95008 0.31883 0.33014 0.0
C1985 C 0.96346 0.32802 0.35077 0.0
H1986 H 0.34911 0.25367 0.77409 0.0
H1987 H 0.40482 0.26238 0.81109 0.0
H1988 H 0.33993 0.26478 0.81353 0.0
H1989 H 0.39596 0.27374 0.84999 0.0
H1990 H 0.3737 0.28969 0.92183 0.0
H1991 H 0.37408 0.26816 0.88727 0.0
H1992 H 0.35399 0.29732 0.83274 0.0
H1993 H 0.35343 0.31832 0.8668 0.0
C1994 C 0.35916 0.25753 0.79076 0.0
C1995 C 0.37781 0.25738 0.78927 0.0
C1996 C 0.35401 0.26405 0.81334 0.0
C1997 C 0.36733 0.27043 0.83497 0.0
C1998 C 0.38522 0.26886 0.83395 0.0
C1999 C 0.3904 0.26248 0.81144 0.0
C2000 C 0.369 0.29116 0.90254 0.0
C2001 C 0.36381 0.30591 0.89706 0.0
C2002 C 0.36931 0.27893 0.88268 0.0
C2003 C 0.36413 0.281 0.85706 0.0
C2004 C 0.35783 0.29502 0.85212 0.0
C2005 C 0.35774 0.30727 0.87174 0.0
H2006 H 0.80611 0.15354 0.76313 0.0
H2007 H 0.85732 0.17931 0.81652 0.0
H2008 H 0.78211 0.14032 0.79923 0.0
H2009 H 0.83338 0.16591 0.85258 0.0
H2010 H 0.78461 0.15841 0.9106 0.0
H2011 H 0.80678 0.17165 0.87307 0.0
H2012 H 0.77182 0.11498 0.83459 0.0
H2013 H 0.74951 0.10161 0.87227 0.0
C2014 C 0.81224 0.15641 0.78257 0.0
C2015 C 0.83365 0.16755 0.78692 0.0
C2016 C 0.79849 0.1487 0.80325 0.0
C2017 C 0.8058 0.15214 0.8288 0.0
C2018 C 0.82721 0.16318 0.83314 0.0
C2019 C 0.84096 0.17069 0.81247 0.0
C2020 C 0.78144 0.14878 0.89407 0.0
C2021 C 0.76526 0.12888 0.89457 0.0
C2022 C 0.79429 0.15635 0.87261 0.0
C2023 C 0.79124 0.14432 0.85094 0.0
C2024 C 0.77456 0.12467 0.85095 0.0
C2025 C 0.76177 0.117 0.87256 0.0
H2026 H 0.9105 0.74473 0.7402 0.0
H2027 H 0.85641 0.71044 0.78647 0.0
H2028 H 0.93172 0.74113 0.77338 0.0
H2029 H 0.87751 0.70655 0.8196 0.0
H2030 H 0.95112 0.69886 0.80915 0.0
H2031 H 0.93179 0.70996 0.78313 0.0
H2032 H 0.90695 0.72114 0.85191 0.0
H2033 H 0.92649 0.70986 0.87839 0.0
C2034 C 0.9033 0.737 0.7579 0.0
C2035 C 0.88186 0.72779 0.7607 0.0
C2036 C 0.91536 0.73476 0.77677 0.0
C2037 C 0.90619 0.72314 0.79881 0.0
C2038 C 0.88502 0.71559 0.80284 0.0
C2039 C 0.87294 0.7179 0.78392 0.0
C2040 C 0.94157 0.70365 0.81889 0.0
C2041 C 0.94039 0.70344 0.84592 0.0
C2042 C 0.93064 0.71025 0.80391 0.0
C2043 C 0.91812 0.71678 0.81546 0.0
C2044 C 0.91656 0.71628 0.84248 0.0
C2045 C 0.9277 0.70978 0.85761 0.0
H2046 H 0.86296 0.66729 0.07438 0.0
H2047 H 0.89952 0.7305 0.08858 0.0
H2048 H 0.88428 0.67083 0.03701 0.0
H2049 H 0.92104 0.73397 0.05166 0.0
H2050 H 0.93876 0.73477 0.9663 0.0
H2051 H 0.91809 0.73153 1.00413 0.0
H2052 H 0.92008 0.67889 0.02721 0.0
H2053 H 0.94063 0.68202 0.98933 0.0
C2054 C 0.87552 0.68192 0.06952 0.0
C2055 C 0.87956 0.69858 0.08452 0.0
C2056 C 0.88786 0.68393 0.04827 0.0
C2057 C 0.90439 0.70269 0.04139 0.0
C2058 C 0.90835 0.71935 0.05633 0.0
C2059 C 0.89613 0.71731 0.07766 0.0
C2060 C 0.9349 0.72257 0.9795 0.0
C2061 C 0.94136 0.70866 0.97474 0.0
C2062 C 0.92311 0.72075 1.00124 0.0
C2063 C 0.91737 0.7049 0.01863 0.0
C2064 C 0.92402 0.69112 1.01401 0.0
C2065 C 0.93593 0.69301 0.99239 0.0
H2066 H 0.35386 0.27236 0.17134 0.0
H2067 H 0.35699 0.22536 0.13081 0.0
H2068 H 0.3501 0.28584 0.13056 0.0
H2069 H 0.35382 0.23918 0.08978 0.0
H2070 H 0.33302 0.26068 0.01965 0.0
H2071 H 0.33309 0.2454 0.06076 0.0
H2072 H 0.36952 0.30383 0.09451 0.0
H2073 H 0.3689 0.31904 0.05356 0.0
C2074 C 0.35359 0.26477 0.15372 0.0
C2075 C 0.35573 0.2477 0.15454 0.0
C2076 C 0.35165 0.27267 0.13017 0.0
C2077 C 0.35192 0.26388 0.10655 0.0
C2078 C 0.35335 0.24637 0.10742 0.0
C2079 C 0.35518 0.23839 0.13104 0.0
C2080 C 0.34098 0.2703 0.03586 0.0
C2081 C 0.35093 0.29117 0.03313 0.0
C2082 C 0.34114 0.26149 0.05952 0.0
C2083 C 0.35131 0.27325 0.08127 0.0
C2084 C 0.36119 0.29415 0.07851 0.0
C2085 C 0.36096 0.30295 0.05486 0.0
H2086 H 0.79223 0.1915 0.12306 0.0
H2087 H 0.84086 0.22797 0.06999 0.0
H2088 H 0.77846 0.16417 0.09215 0.0
H2089 H 0.82669 0.2006 0.0387 0.0
H2090 H 0.77588 0.14651 0.986 0.0
H2091 H 0.79228 0.17708 1.01181 0.0
H2092 H 0.79555 0.14381 0.07673 0.0
H2093 H 0.77944 0.11345 0.05122 0.0
C2094 C 0.7998 0.19377 0.10464 0.0
C2095 C 0.8178 0.21178 0.09917 0.0
C2096 C 0.79196 0.17813 0.087 0.0
C2097 C 0.80181 0.1802 0.06333 0.0
C2098 C 0.81891 0.19865 0.05691 0.0
C2099 C 0.82691 0.21433 0.07475 0.0
C2100 C 0.78052 0.1458 1.00558 0.0
C2101 C 0.77606 0.12745 0.01663 0.0
C2102 C 0.78986 0.16329 0.02033 0.0
C2103 C 0.7947 0.16263 0.04636 0.0
C2104 C 0.79154 0.1446 0.05682 0.0
C2105 C 0.78242 0.12723 0.04212 0.0
loop_
_geom_bond_atom_site_label_1
_geom_bond_atom_site_label_2
_geom_bond_distance
_geom_bond_site_symmetry_2
_ccdc_geom_bond_type
Cu0 N1 1.999 . S
Cu0 O6 1.974 1_554 S
Cu0 N11 1.985 1_554 S
Cu0 O20 1.959 . S
N1 Cu0 1.999 . S
N1 C3 1.263 . S
N1 C5 1.389 . S
N2 C3 1.358 . S
N2 C4 1.400 . S
C3 N1 1.263 . S
C3 N2 1.358 . S
C3 H9 0.930 . S
C4 N2 1.400 . S
C4 C5 1.351 . S
C4 H21 0.930 . S
C5 N1 1.389 . S
C5 C4 1.351 . S
C5 H10 0.930 . S
O6 Cu0 1.974 1_556 S
O6 C16 1.282 . S
C7 O8 1.261 . S
C7 O20 1.251 . S
O8 C7 1.261 . S
H9 C3 0.930 . S
H10 C5 0.930 . S
N11 Cu0 1.985 1_556 S
N11 C13 1.335 . S
N11 C14 1.390 . S
N12 C13 1.345 . S
N12 C15 1.336 . S
C13 N11 1.335 . S
C13 N12 1.345 . S
C13 H18 0.930 . S
C14 N11 1.390 . S
C14 C15 1.346 . S
C14 H19 0.930 . S
C15 N12 1.336 . S
C15 C14 1.346 . S
C15 H22 0.929 . S
C16 O6 1.282 . S
C16 O17 1.190 1_455 S
O17 C16 1.190 1_655 S
H18 C13 0.930 . S
H19 C14 0.930 . S
O20 Cu0 1.959 . S
O20 C7 1.251 . S
H21 C4 0.930 . S
H22 C15 0.929 . S
Cu23 N24 1.999 1_554 S
Cu23 O29 1.974 . S
Cu23 N34 1.985 . S
Cu23 O43 1.959 1_554 S
N24 Cu23 1.999 1_556 S
N24 C26 1.263 . S
N24 C28 1.389 . S
N25 C26 1.358 . S
N25 C27 1.400 . S
C26 N24 1.263 . S
C26 N25 1.358 . S
C26 H32 0.930 . S
C27 N25 1.400 . S
C27 C28 1.351 . S
C27 H44 0.930 . S
C28 N24 1.389 . S
C28 C27 1.351 . S
C28 H33 0.930 . S
O29 Cu23 1.974 . S
O29 C39 1.282 . S
C30 O31 1.261 . S
C30 O43 1.251 . S
O31 C30 1.261 . S
H32 C26 0.930 . S
H33 C28 0.930 . S
N34 Cu23 1.985 . S
N34 C36 1.335 . S
N34 C37 1.390 . S
N35 C36 1.345 . S
N35 C38 1.336 . S
C36 N34 1.335 . S
C36 N35 1.345 . S
C36 H41 0.930 . S
C37 N34 1.390 . S
C37 C38 1.346 . S
C37 H42 0.930 . S
C38 N35 1.336 . S
C38 C37 1.346 . S
C38 H45 0.929 . S
C39 O29 1.282 . S
C39 O40 1.216 . S
O40 C39 1.216 . S
H41 C36 0.930 . S
H42 C37 0.930 . S
O43 Cu23 1.959 1_556 S
O43 C30 1.251 . S
H44 C27 0.930 . S
H45 C38 0.929 . S
Cu46 N47 1.999 1_554 S
Cu46 O52 1.974 . S
Cu46 N57 1.985 . S
Cu46 O66 1.959 . S
N47 Cu46 1.999 1_556 S
N47 C49 1.263 . S
N47 C51 1.389 . S
N48 C49 1.358 . S
N48 C50 1.400 . S
C49 N47 1.263 . S
C49 N48 1.358 . S
C49 H55 0.930 . S
C50 N48 1.400 . S
C50 C51 1.351 . S
C50 H67 0.930 . S
C51 N47 1.389 . S
C51 C50 1.351 . S
C51 H56 0.930 . S
O52 Cu46 1.974 . S
O52 C62 1.282 . S
C53 O54 1.261 1_556 S
C53 O66 1.251 1_556 S
O54 C53 1.261 1_554 S
H55 C49 0.930 . S
H56 C51 0.930 . S
N57 Cu46 1.985 . S
N57 C59 1.335 . S
N57 C60 1.390 . S
N58 C59 1.345 . S
N58 C61 1.336 . S
C59 N57 1.335 . S
C59 N58 1.345 . S
C59 H64 0.930 . S
C60 N57 1.390 . S
C60 C61 1.346 . S
C60 H65 0.930 . S
C61 N58 1.336 . S
C61 C60 1.346 . S
C61 H68 0.929 . S
C62 O52 1.282 . S
C62 O63 1.216 . S
O63 C62 1.216 . S
H64 C59 0.930 . S
H65 C60 0.930 . S
O66 Cu46 1.959 . S
O66 C53 1.251 1_554 S
H67 C50 0.930 . S
H68 C61 0.929 . S
Cu69 N70 1.999 . S
Cu69 O75 1.974 . S
Cu69 N80 1.985 . S
Cu69 O89 1.959 . S
N70 Cu69 1.999 . S
N70 C72 1.263 . S
N70 C74 1.389 . S
N71 C72 1.358 . S
N71 C73 1.400 . S
C72 N70 1.263 . S
C72 N71 1.358 . S
C72 H78 0.930 . S
C73 N71 1.400 . S
C73 C74 1.351 . S
C73 H90 0.930 . S
C74 N70 1.389 . S
C74 C73 1.351 . S
C74 H79 0.930 . S
O75 Cu69 1.974 . S
O75 C85 1.282 . S
C76 O77 1.261 . S
C76 O89 1.251 . S
O77 C76 1.261 . S
H78 C72 0.930 . S
H79 C74 0.930 . S
N80 Cu69 1.985 . S
N80 C82 1.335 . S
N80 C83 1.390 . S
N81 C82 1.345 . S
N81 C84 1.336 . S
C82 N80 1.335 . S
C82 N81 1.345 . S
C82 H87 0.930 . S
C83 N80 1.390 . S
C83 C84 1.346 . S
C83 H88 0.930 . S
C84 N81 1.336 . S
C84 C83 1.346 . S
C84 H91 0.929 . S
C85 O75 1.282 . S
C85 O86 1.216 1_545 S
O86 C85 1.216 1_565 S
H87 C82 0.930 . S
H88 C83 0.930 . S
O89 Cu69 1.959 . S
O89 C76 1.251 . S
H90 C73 0.930 . S
H91 C84 0.929 . S
Cu92 N93 1.999 . S
Cu92 O98 1.974 . S
Cu92 N103 1.985 . S
Cu92 O112 1.959 . S
N93 Cu92 1.999 . S
N93 C95 1.263 . S
N93 C97 1.389 . S
N94 C95 1.358 . S
N94 C96 1.400 . S
C95 N93 1.263 . S
C95 N94 1.358 . S
C95 H101 0.930 . S
C96 N94 1.400 . S
C96 C97 1.351 . S
C96 H113 0.930 . S
C97 N93 1.389 . S
C97 C96 1.351 . S
C97 H102 0.930 . S
O98 Cu92 1.974 . S
O98 C108 1.282 . S
C99 O100 1.261 . S
C99 O112 1.251 . S
O100 C99 1.261 . S
H101 C95 0.930 . S
H102 C97 0.930 . S
N103 Cu92 1.985 . S
N103 C105 1.335 . S
N103 C106 1.390 . S
N104 C105 1.345 . S
N104 C107 1.336 . S
C105 N103 1.335 . S
C105 N104 1.345 . S
C105 H110 0.930 . S
C106 N103 1.390 . S
C106 C107 1.346 . S
C106 H111 0.930 . S
C107 N104 1.336 . S
C107 C106 1.346 . S
C107 H114 0.929 . S
C108 O98 1.282 . S
C108 O109 1.216 . S
O109 C108 1.216 . S
H110 C105 0.930 . S
H111 C106 0.930 . S
O112 Cu92 1.959 . S
O112 C99 1.251 . S
H113 C96 0.930 . S
H114 C107 0.929 . S
Cu115 N116 1.999 . S
Cu115 O121 1.974 . S
Cu115 N126 1.985 . S
Cu115 O135 1.959 . S
N116 Cu115 1.999 . S
N116 C118 1.263 . S
N116 C120 1.389 . S
N117 C118 1.358 . S
N117 C119 1.400 . S
C118 N116 1.263 . S
C118 N117 1.358 . S
C118 H124 0.930 . S
C119 N117 1.400 . S
C119 C120 1.351 . S
C119 H136 0.930 . S
C120 N116 1.389 . S
C120 C119 1.351 . S
C120 H125 0.930 . S
O121 Cu115 1.974 . S
O121 C131 1.282 . S
C122 O123 1.261 . S
C122 O135 1.251 . S
O123 C122 1.261 . S
H124 C118 0.930 . S
H125 C120 0.930 . S
N126 Cu115 1.985 . S
N126 C128 1.335 . S
N126 C129 1.390 . S
N127 C128 1.345 . S
N127 C130 1.336 . S
C128 N126 1.335 . S
C128 N127 1.345 . S
C128 H133 0.930 . S
C129 N126 1.390 . S
C129 C130 1.346 . S
C129 H134 0.930 . S
C130 N127 1.336 . S
C130 C129 1.346 . S
C130 H137 0.929 . S
C131 O121 1.282 . S
C131 O132 1.216 . S
O132 C131 1.216 . S
H133 C128 0.930 . S
H134 C129 0.930 . S
O135 Cu115 1.959 . S
O135 C122 1.251 . S
H136 C119 0.930 . S
H137 C130 0.929 . S
Cu138 N139 1.999 . S
Cu138 O144 1.974 . S
Cu138 N149 1.985 . S
Cu138 O158 1.959 . S
N139 Cu138 1.999 . S
N139 C141 1.263 . S
N139 C143 1.389 . S
N140 C141 1.358 . S
N140 C142 1.400 . S
C141 N139 1.263 . S
C141 N140 1.358 . S
C141 H147 0.930 . S
C142 N140 1.400 . S
C142 C143 1.351 . S
C142 H159 0.930 . S
C143 N139 1.389 . S
C143 C142 1.351 . S
C143 H148 0.930 . S
O144 Cu138 1.974 . S
O144 C154 1.282 . S
C145 O146 1.261 . S
C145 O158 1.251 . S
O146 C145 1.261 . S
H147 C141 0.930 . S
H148 C143 0.930 . S
N149 Cu138 1.985 . S
N149 C151 1.335 . S
N149 C152 1.390 . S
N150 C151 1.345 . S
N150 C153 1.336 . S
C151 N149 1.335 . S
C151 N150 1.345 . S
C151 H156 0.930 . S
C152 N149 1.390 . S
C152 C153 1.346 . S
C152 H157 0.930 . S
C153 N150 1.336 . S
C153 C152 1.346 . S
C153 H160 0.929 . S
C154 O144 1.282 . S
C154 O155 1.216 . S
O155 C154 1.216 . S
H156 C151 0.930 . S
H157 C152 0.930 . S
O158 Cu138 1.959 . S
O158 C145 1.251 . S
H159 C142 0.930 . S
H160 C153 0.929 . S
Cu161 N162 1.999 . S
Cu161 O167 1.974 . S
Cu161 N172 1.985 . S
Cu161 O181 1.959 . S
N162 Cu161 1.999 . S
N162 C164 1.263 . S
N162 C166 1.389 . S
N163 C164 1.358 . S
N163 C165 1.400 . S
C164 N162 1.263 . S
C164 N163 1.358 . S
C164 H170 0.930 . S
C165 N163 1.400 . S
C165 C166 1.351 . S
C165 H182 0.930 . S
C166 N162 1.389 . S
C166 C165 1.351 . S
C166 H171 0.930 . S
O167 Cu161 1.974 . S
O167 C177 1.282 . S
C168 O169 1.261 . S
C168 O181 1.251 . S
O169 C168 1.261 . S
H170 C164 0.930 . S
H171 C166 0.930 . S
N172 Cu161 1.985 . S
N172 C174 1.335 . S
N172 C175 1.390 . S
N173 C174 1.345 . S
N173 C176 1.336 . S
C174 N172 1.335 . S
C174 N173 1.345 . S
C174 H179 0.930 . S
C175 N172 1.390 . S
C175 C176 1.346 . S
C175 H180 0.930 . S
C176 N173 1.336 . S
C176 C175 1.346 . S
C176 H183 0.929 . S
C177 O167 1.282 . S
C177 O178 1.216 . S
O178 C177 1.216 . S
H179 C174 0.930 . S
H180 C175 0.930 . S
O181 Cu161 1.959 . S
O181 C168 1.251 . S
H182 C165 0.930 . S
H183 C176 0.929 . S
Cu184 N185 1.999 . S
Cu184 O190 1.974 . S
Cu184 N195 1.985 . S
Cu184 O204 1.959 . S
N185 Cu184 1.999 . S
N185 C187 1.263 . S
N185 C189 1.389 . S
N186 C187 1.358 . S
N186 C188 1.400 . S
C187 N185 1.263 . S
C187 N186 1.358 . S
C187 H193 0.930 . S
C188 N186 1.400 . S
C188 C189 1.351 . S
C188 H205 0.930 . S
C189 N185 1.389 . S
C189 C188 1.351 . S
C189 H194 0.930 . S
O190 Cu184 1.974 . S
O190 C200 1.282 . S
C191 O192 1.261 . S
C191 O204 1.251 . S
O192 C191 1.261 . S
H193 C187 0.930 . S
H194 C189 0.930 . S
N195 Cu184 1.985 . S
N195 C197 1.335 . S
N195 C198 1.390 . S
N196 C197 1.345 . S
N196 C199 1.336 . S
C197 N195 1.335 . S
C197 N196 1.345 . S
C197 H202 0.930 . S
C198 N195 1.390 . S
C198 C199 1.346 . S
C198 H203 0.930 . S
C199 N196 1.336 . S
C199 C198 1.346 . S
C199 H206 0.929 . S
C200 O190 1.282 . S
C200 O201 1.216 . S
O201 C200 1.216 . S
H202 C197 0.930 . S
H203 C198 0.930 . S
O204 Cu184 1.959 . S
O204 C191 1.251 . S
H205 C188 0.930 . S
H206 C199 0.929 . S
Cu207 N208 1.999 . S
Cu207 O213 1.974 . S
Cu207 N218 1.985 . S
Cu207 O227 1.959 . S
N208 Cu207 1.999 . S
N208 C210 1.263 . S
N208 C212 1.389 . S
N209 C210 1.358 . S
N209 C211 1.400 . S
C210 N208 1.263 . S
C210 N209 1.358 . S
C210 H216 0.930 . S
C211 N209 1.400 . S
C211 C212 1.351 . S
C211 H228 0.930 . S
C212 N208 1.389 . S
C212 C211 1.351 . S
C212 H217 0.930 . S
O213 Cu207 1.974 . S
O213 C223 1.282 . S
C214 O215 1.261 . S
C214 O227 1.251 . S
O215 C214 1.261 . S
H216 C210 0.930 . S
H217 C212 0.930 . S
N218 Cu207 1.985 . S
N218 C220 1.335 . S
N218 C221 1.390 . S
N219 C220 1.345 . S
N219 C222 1.336 . S
C220 N218 1.335 . S
C220 N219 1.345 . S
C220 H225 0.930 . S
C221 N218 1.390 . S
C221 C222 1.346 . S
C221 H226 0.930 . S
C222 N219 1.336 . S
C222 C221 1.346 . S
C222 H229 0.929 . S
C223 O213 1.282 . S
C223 O224 1.216 . S
O224 C223 1.216 . S
H225 C220 0.930 . S
H226 C221 0.930 . S
O227 Cu207 1.959 . S
O227 C214 1.251 . S
H228 C211 0.930 . S
H229 C222 0.929 . S
Cu230 N231 1.999 . S
Cu230 O236 1.974 . S
Cu230 N241 1.985 . S
Cu230 O250 1.959 . S
N231 Cu230 1.999 . S
N231 C233 1.263 . S
N231 C235 1.389 . S
N232 C233 1.358 . S
N232 C234 1.400 . S
C233 N231 1.263 . S
C233 N232 1.358 . S
C233 H239 0.930 . S
C234 N232 1.400 . S
C234 C235 1.351 . S
C234 H251 0.930 . S
C235 N231 1.389 . S
C235 C234 1.351 . S
C235 H240 0.930 . S
O236 Cu230 1.974 . S
O236 C246 1.282 . S
C237 O238 1.261 . S
C237 O250 1.251 . S
O238 C237 1.261 . S
H239 C233 0.930 . S
H240 C235 0.930 . S
N241 Cu230 1.985 . S
N241 C243 1.335 . S
N241 C244 1.390 . S
N242 C243 1.345 . S
N242 C245 1.336 . S
C243 N241 1.335 . S
C243 N242 1.345 . S
C243 H248 0.930 . S
C244 N241 1.390 . S
C244 C245 1.346 . S
C244 H249 0.930 . S
C245 N242 1.336 . S
C245 C244 1.346 . S
C245 H252 0.929 . S
C246 O236 1.282 . S
C246 O247 1.216 . S
O247 C246 1.216 . S
H248 C243 0.930 . S
H249 C244 0.930 . S
O250 Cu230 1.959 . S
O250 C237 1.251 . S
H251 C234 0.930 . S
H252 C245 0.929 . S
Cu253 N254 1.999 . S
Cu253 O259 1.974 . S
Cu253 N264 1.985 . S
Cu253 O273 1.959 . S
N254 Cu253 1.999 . S
N254 C256 1.263 . S
N254 C258 1.389 . S
N255 C256 1.358 . S
N255 C257 1.400 . S
C256 N254 1.263 . S
C256 N255 1.358 . S
C256 H262 0.930 . S
C257 N255 1.400 . S
C257 C258 1.351 . S
C257 H274 0.930 . S
C258 N254 1.389 . S
C258 C257 1.351 . S
C258 H263 0.930 . S
O259 Cu253 1.974 . S
O259 C269 1.282 . S
C260 O261 1.261 . S
C260 O273 1.251 . S
O261 C260 1.261 . S
H262 C256 0.930 . S
H263 C258 0.930 . S
N264 Cu253 1.985 . S
N264 C266 1.335 . S
N264 C267 1.390 . S
N265 C266 1.345 . S
N265 C268 1.336 . S
C266 N264 1.335 . S
C266 N265 1.345 . S
C266 H271 0.930 . S
C267 N264 1.390 . S
C267 C268 1.346 . S
C267 H272 0.930 . S
C268 N265 1.336 . S
C268 C267 1.346 . S
C268 H275 0.929 . S
C269 O259 1.282 . S
C269 O270 1.216 . S
O270 C269 1.216 . S
H271 C266 0.930 . S
H272 C267 0.930 . S
O273 Cu253 1.959 . S
O273 C260 1.251 . S
H274 C257 0.930 . S
H275 C268 0.929 . S
Cu276 N277 1.999 . S
Cu276 O282 1.974 . S
Cu276 N287 1.985 . S
Cu276 O296 1.959 . S
N277 Cu276 1.999 . S
N277 C279 1.263 . S
N277 C281 1.389 . S
N278 C279 1.358 . S
N278 C280 1.400 . S
C279 N277 1.263 . S
C279 N278 1.358 . S
C279 H285 0.930 . S
C280 N278 1.400 . S
C280 C281 1.351 . S
C280 H297 0.930 . S
C281 N277 1.389 . S
C281 C280 1.351 . S
C281 H286 0.930 . S
O282 Cu276 1.974 . S
O282 C292 1.282 . S
C283 O284 1.261 . S
C283 O296 1.251 . S
O284 C283 1.261 . S
H285 C279 0.930 . S
H286 C281 0.930 . S
N287 Cu276 1.985 . S
N287 C289 1.335 . S
N287 C290 1.390 . S
N288 C289 1.345 . S
N288 C291 1.336 . S
C289 N287 1.335 . S
C289 N288 1.345 . S
C289 H294 0.930 . S
C290 N287 1.390 . S
C290 C291 1.346 . S
C290 H295 0.930 . S
C291 N288 1.336 . S
C291 C290 1.346 . S
C291 H298 0.929 . S
C292 O282 1.282 . S
C292 O293 1.216 . S
O293 C292 1.216 . S
H294 C289 0.930 . S
H295 C290 0.930 . S
O296 Cu276 1.959 . S
O296 C283 1.251 . S
H297 C280 0.930 . S
H298 C291 0.929 . S
Cu299 N300 1.999 . S
Cu299 O305 1.974 . S
Cu299 N310 1.985 . S
Cu299 O319 1.959 . S
N300 Cu299 1.999 . S
N300 C302 1.263 . S
N300 C304 1.389 . S
N301 C302 1.358 . S
N301 C303 1.400 . S
C302 N300 1.263 . S
C302 N301 1.358 . S
C302 H308 0.930 . S
C303 N301 1.400 . S
C303 C304 1.351 . S
C303 H320 0.930 . S
C304 N300 1.389 . S
C304 C303 1.351 . S
C304 H309 0.930 . S
O305 Cu299 1.974 . S
O305 C315 1.282 . S
C306 O307 1.261 . S
C306 O319 1.251 . S
O307 C306 1.261 . S
H308 C302 0.930 . S
H309 C304 0.930 . S
N310 Cu299 1.985 . S
N310 C312 1.335 . S
N310 C313 1.390 . S
N311 C312 1.345 . S
N311 C314 1.336 . S
C312 N310 1.335 . S
C312 N311 1.345 . S
C312 H317 0.930 . S
C313 N310 1.390 . S
C313 C314 1.346 . S
C313 H318 0.930 . S
C314 N311 1.336 . S
C314 C313 1.346 . S
C314 H321 0.929 . S
C315 O305 1.282 . S
C315 O316 1.216 . S
O316 C315 1.216 . S
H317 C312 0.930 . S
H318 C313 0.930 . S
O319 Cu299 1.959 . S
O319 C306 1.251 . S
H320 C303 0.930 . S
H321 C314 0.929 . S
Cu322 N323 1.999 . S
Cu322 O328 1.974 . S
Cu322 N333 1.985 . S
Cu322 O342 1.959 . S
N323 Cu322 1.999 . S
N323 C325 1.263 . S
N323 C327 1.389 . S
N324 C325 1.358 . S
N324 C326 1.400 . S
C325 N323 1.263 . S
C325 N324 1.358 . S
C325 H331 0.930 . S
C326 N324 1.400 . S
C326 C327 1.351 . S
C326 H343 0.930 . S
C327 N323 1.389 . S
C327 C326 1.351 . S
C327 H332 0.930 . S
O328 Cu322 1.974 . S
O328 C338 1.282 . S
C329 O330 1.261 . S
C329 O342 1.251 . S
O330 C329 1.261 . S
H331 C325 0.930 . S
H332 C327 0.930 . S
N333 Cu322 1.985 . S
N333 C335 1.335 . S
N333 C336 1.390 . S
N334 C335 1.345 . S
N334 C337 1.336 . S
C335 N333 1.335 . S
C335 N334 1.345 . S
C335 H340 0.930 . S
C336 N333 1.390 . S
C336 C337 1.346 . S
C336 H341 0.930 . S
C337 N334 1.336 . S
C337 C336 1.346 . S
C337 H344 0.929 . S
C338 O328 1.282 . S
C338 O339 1.216 . S
O339 C338 1.216 . S
H340 C335 0.930 . S
H341 C336 0.930 . S
O342 Cu322 1.959 . S
O342 C329 1.251 . S
H343 C326 0.930 . S
H344 C337 0.929 . S
Cu345 N346 1.999 . S
Cu345 O351 1.974 . S
Cu345 N356 1.985 . S
Cu345 O365 1.959 . S
N346 Cu345 1.999 . S
N346 C348 1.263 . S
N346 C350 1.389 . S
N347 C348 1.358 . S
N347 C349 1.400 . S
C348 N346 1.263 . S
C348 N347 1.358 . S
C348 H354 0.930 . S
C349 N347 1.400 . S
C349 C350 1.351 . S
C349 H366 0.930 . S
C350 N346 1.389 . S
C350 C349 1.351 . S
C350 H355 0.930 . S
O351 Cu345 1.974 . S
O351 C361 1.282 . S
C352 O353 1.261 . S
C352 O365 1.251 . S
O353 C352 1.261 . S
H354 C348 0.930 . S
H355 C350 0.930 . S
N356 Cu345 1.985 . S
N356 C358 1.335 . S
N356 C359 1.390 . S
N357 C358 1.345 . S
N357 C360 1.336 . S
C358 N356 1.335 . S
C358 N357 1.345 . S
C358 H363 0.930 . S
C359 N356 1.390 . S
C359 C360 1.346 . S
C359 H364 0.930 . S
C360 N357 1.336 . S
C360 C359 1.346 . S
C360 H367 0.929 . S
C361 O351 1.282 . S
C361 O362 1.216 . S
O362 C361 1.216 . S
H363 C358 0.930 . S
H364 C359 0.930 . S
O365 Cu345 1.959 . S
O365 C352 1.251 . S
H366 C349 0.930 . S
H367 C360 0.929 . S
Cu368 N369 1.999 . S
Cu368 O374 1.974 . S
Cu368 N379 1.985 . S
Cu368 O388 1.959 . S
N369 Cu368 1.999 . S
N369 C371 1.263 . S
N369 C373 1.389 . S
N370 C371 1.358 . S
N370 C372 1.400 . S
C371 N369 1.263 . S
C371 N370 1.358 . S
C371 H377 0.930 . S
C372 N370 1.400 . S
C372 C373 1.351 . S
C372 H389 0.930 . S
C373 N369 1.389 . S
C373 C372 1.351 . S
C373 H378 0.930 . S
O374 Cu368 1.974 . S
O374 C384 1.282 . S
C375 O376 1.261 . S
C375 O388 1.251 . S
O376 C375 1.261 . S
H377 C371 0.930 . S
H378 C373 0.930 . S
N379 Cu368 1.985 . S
N379 C381 1.335 . S
N379 C382 1.390 . S
N380 C381 1.345 . S
N380 C383 1.336 . S
C381 N379 1.335 . S
C381 N380 1.345 . S
C381 H386 0.930 . S
C382 N379 1.390 . S
C382 C383 1.346 . S
C382 H387 0.930 . S
C383 N380 1.336 . S
C383 C382 1.346 . S
C383 H390 0.929 . S
C384 O374 1.282 . S
C384 O385 1.216 . S
O385 C384 1.216 . S
H386 C381 0.930 . S
H387 C382 0.930 . S
O388 Cu368 1.959 . S
O388 C375 1.251 . S
H389 C372 0.930 . S
H390 C383 0.929 . S
Cu391 N392 1.999 . S
Cu391 O397 1.974 . S
Cu391 N402 1.985 . S
Cu391 O411 1.959 . S
N392 Cu391 1.999 . S
N392 C394 1.263 . S
N392 C396 1.389 . S
N393 C394 1.358 . S
N393 C395 1.400 . S
C394 N392 1.263 . S
C394 N393 1.358 . S
C394 H400 0.930 . S
C395 N393 1.400 . S
C395 C396 1.351 . S
C395 H412 0.930 . S
C396 N392 1.389 . S
C396 C395 1.351 . S
C396 H401 0.930 . S
O397 Cu391 1.974 . S
O397 C407 1.282 . S
C398 O399 1.261 . S
C398 O411 1.251 . S
O399 C398 1.261 . S
H400 C394 0.930 . S
H401 C396 0.930 . S
N402 Cu391 1.985 . S
N402 C404 1.335 . S
N402 C405 1.390 . S
N403 C404 1.345 . S
N403 C406 1.336 . S
C404 N402 1.335 . S
C404 N403 1.345 . S
C404 H409 0.930 . S
C405 N402 1.390 . S
C405 C406 1.346 . S
C405 H410 0.930 . S
C406 N403 1.336 . S
C406 C405 1.346 . S
C406 H413 0.929 . S
C407 O397 1.282 . S
C407 O408 1.216 . S
O408 C407 1.216 . S
H409 C404 0.930 . S
H410 C405 0.930 . S
O411 Cu391 1.959 . S
O411 C398 1.251 . S
H412 C395 0.930 . S
H413 C406 0.929 . S
Zn414 O417 2.031 . S
Zn414 O419 2.049 . S
Zn414 O424 2.042 1_455 S
Zn415 O416 1.962 . S
Zn415 O418 1.986 . S
Zn415 O420 1.996 . S
Zn415 O423 1.943 1_455 S
O416 Zn415 1.962 . S
O416 C421 1.254 . S
O417 Zn414 2.031 . S
O417 C421 1.269 . S
O418 Zn415 1.986 . S
O418 C425 1.262 . S
O419 Zn414 2.049 . S
O419 C427 1.260 . S
O420 Zn415 1.996 . S
O420 C427 1.257 . S
C421 O416 1.254 . S
C421 O417 1.269 . S
C422 O423 1.249 . S
C422 O424 1.276 . S
O423 Zn415 1.943 1_655 S
O423 C422 1.249 . S
O424 Zn414 2.042 1_655 S
O424 C422 1.276 . S
C425 O418 1.262 . S
C425 O426 1.232 . S
O426 C425 1.232 . S
C427 O419 1.260 . S
C427 O420 1.257 . S
Zn428 O431 2.031 . S
Zn428 O433 2.049 . S
Zn428 O438 2.067 . S
Zn429 O430 1.962 . S
Zn429 O432 1.986 . S
Zn429 O434 1.996 . S
Zn429 O437 1.943 . S
O430 Zn429 1.962 . S
O430 C435 1.254 . S
O431 Zn428 2.031 . S
O431 C435 1.269 . S
O432 Zn429 1.986 . S
O432 C439 1.262 . S
O433 Zn428 2.049 . S
O433 C441 1.260 . S
O434 Zn429 1.996 . S
O434 C441 1.257 . S
C435 O430 1.254 . S
C435 O431 1.269 . S
C436 O437 1.249 . S
C436 O438 1.270 . S
O437 Zn429 1.943 . S
O437 C436 1.249 . S
O438 Zn428 2.067 . S
O438 C436 1.270 . S
C439 O432 1.262 . S
C439 O440 1.232 . S
O440 C439 1.232 . S
C441 O433 1.260 . S
C441 O434 1.257 . S
Zn442 O445 2.031 . S
Zn442 O447 2.049 . S
Zn442 O452 2.067 . S
Zn443 O444 1.962 . S
Zn443 O446 1.986 . S
Zn443 O448 1.996 . S
Zn443 O451 1.943 . S
O444 Zn443 1.962 . S
O444 C449 1.254 . S
O445 Zn442 2.031 . S
O445 C449 1.269 . S
O446 Zn443 1.986 . S
O446 C453 1.262 . S
O447 Zn442 2.049 . S
O447 C455 1.260 . S
O448 Zn443 1.996 . S
O448 C455 1.257 . S
C449 O444 1.254 . S
C449 O445 1.269 . S
C450 O451 1.249 . S
C450 O452 1.270 . S
O451 Zn443 1.943 . S
O451 C450 1.249 . S
O452 Zn442 2.067 . S
O452 C450 1.270 . S
C453 O446 1.262 . S
C453 O454 1.232 . S
O454 C453 1.232 . S
C455 O447 1.260 . S
C455 O448 1.257 . S
Zn456 O459 2.031 . S
Zn456 O461 2.049 . S
Zn456 O466 2.067 . S
Zn457 O458 1.962 1_455 S
Zn457 O460 1.986 . S
Zn457 O462 1.996 . S
Zn457 O465 1.943 . S
O458 Zn457 1.962 1_655 S
O458 C463 1.254 . S
O459 Zn456 2.031 . S
O459 C463 1.269 1_455 S
O460 Zn457 1.986 . S
O460 C467 1.262 . S
O461 Zn456 2.049 . S
O461 C469 1.260 . S
O462 Zn457 1.996 . S
O462 C469 1.257 . S
C463 O458 1.254 . S
C463 O459 1.269 1_655 S
C464 O465 1.249 . S
C464 O466 1.270 . S
O465 Zn457 1.943 . S
O465 C464 1.249 . S
O466 Zn456 2.067 . S
O466 C464 1.270 . S
C467 O460 1.262 . S
C467 O468 1.232 . S
O468 C467 1.232 . S
C469 O461 1.260 . S
C469 O462 1.257 . S
Zn470 O473 2.031 . S
Zn470 O475 2.049 . S
Zn470 O480 2.067 . S
Zn471 O472 1.962 . S
Zn471 O474 1.986 . S
Zn471 O476 1.996 . S
Zn471 O479 1.943 . S
O472 Zn471 1.962 . S
O472 C477 1.254 . S
O473 Zn470 2.031 . S
O473 C477 1.269 . S
O474 Zn471 1.986 . S
O474 C481 1.262 . S
O475 Zn470 2.049 . S
O475 C483 1.260 . S
O476 Zn471 1.996 . S
O476 C483 1.257 . S
C477 O472 1.254 . S
C477 O473 1.269 . S
C478 O479 1.249 . S
C478 O480 1.270 . S
O479 Zn471 1.943 . S
O479 C478 1.249 . S
O480 Zn470 2.067 . S
O480 C478 1.270 . S
C481 O474 1.262 . S
C481 O482 1.232 . S
O482 C481 1.232 . S
C483 O475 1.260 . S
C483 O476 1.257 . S
Zn484 O487 2.031 . S
Zn484 O489 2.049 . S
Zn484 O494 2.067 . S
Zn485 O486 1.962 . S
Zn485 O488 1.986 . S
Zn485 O490 1.996 . S
Zn485 O493 1.943 . S
O486 Zn485 1.962 . S
O486 C491 1.254 . S
O487 Zn484 2.031 . S
O487 C491 1.269 . S
O488 Zn485 1.986 . S
O488 C495 1.262 . S
O489 Zn484 2.049 . S
O489 C497 1.260 . S
O490 Zn485 1.996 . S
O490 C497 1.257 . S
C491 O486 1.254 . S
C491 O487 1.269 . S
C492 O493 1.249 . S
C492 O494 1.270 . S
O493 Zn485 1.943 . S
O493 C492 1.249 . S
O494 Zn484 2.067 . S
O494 C492 1.270 . S
C495 O488 1.262 . S
C495 O496 1.232 . S
O496 C495 1.232 . S
C497 O489 1.260 . S
C497 O490 1.257 . S
Zn498 O501 2.031 1_545 S
Zn498 O503 2.049 . S
Zn498 O508 2.067 . S
Zn499 O500 1.962 . S
Zn499 O502 1.986 . S
Zn499 O504 1.996 1_565 S
Zn499 O507 1.943 . S
O500 Zn499 1.962 . S
O500 C505 1.254 . S
O501 Zn498 2.031 1_565 S
O501 C505 1.269 . S
O502 Zn499 1.986 . S
O502 C509 1.262 . S
O503 Zn498 2.049 . S
O503 C511 1.260 . S
O504 Zn499 1.996 1_545 S
O504 C511 1.257 . S
C505 O500 1.254 . S
C505 O501 1.269 . S
C506 O507 1.249 1_545 S
C506 O508 1.270 . S
O507 Zn499 1.943 . S
O507 C506 1.249 1_565 S
O508 Zn498 2.067 . S
O508 C506 1.270 . S
C509 O502 1.262 . S
C509 O510 1.232 . S
O510 C509 1.232 . S
C511 O503 1.260 . S
C511 O504 1.257 . S
Zn512 O515 2.031 . S
Zn512 O517 2.049 . S
Zn512 O522 2.067 . S
Zn513 O514 1.962 . S
Zn513 O516 1.986 . S
Zn513 O518 1.996 . S
Zn513 O521 1.943 . S
O514 Zn513 1.962 . S
O514 C519 1.254 . S
O515 Zn512 2.031 . S
O515 C519 1.269 . S
O516 Zn513 1.986 . S
O516 C523 1.262 . S
O517 Zn512 2.049 . S
O517 C525 1.260 . S
O518 Zn513 1.996 . S
O518 C525 1.257 . S
C519 O514 1.254 . S
C519 O515 1.269 . S
C520 O521 1.249 . S
C520 O522 1.270 . S
O521 Zn513 1.943 . S
O521 C520 1.249 . S
O522 Zn512 2.067 . S
O522 C520 1.270 . S
C523 O516 1.262 . S
C523 O524 1.232 . S
O524 C523 1.232 . S
C525 O517 1.260 . S
C525 O518 1.257 . S
Zn526 O529 2.031 . S
Zn526 O531 2.049 . S
Zn526 O536 2.067 . S
Zn527 O528 1.962 . S
Zn527 O530 1.986 . S
Zn527 O532 1.996 . S
Zn527 O535 1.943 . S
O528 Zn527 1.962 . S
O528 C533 1.254 . S
O529 Zn526 2.031 . S
O529 C533 1.269 . S
O530 Zn527 1.986 . S
O530 C537 1.262 . S
O531 Zn526 2.049 . S
O531 C539 1.260 . S
O532 Zn527 1.996 . S
O532 C539 1.257 . S
C533 O528 1.254 . S
C533 O529 1.269 . S
C534 O535 1.249 . S
C534 O536 1.270 . S
O535 Zn527 1.943 . S
O535 C534 1.249 . S
O536 Zn526 2.067 . S
O536 C534 1.270 . S
C537 O530 1.262 . S
C537 O538 1.232 . S
O538 C537 1.232 . S
C539 O531 1.260 . S
C539 O532 1.257 . S
Zn540 O543 2.031 . S
Zn540 O545 2.049 . S
Zn540 O550 2.067 . S
Zn541 O542 1.962 . S
Zn541 O544 1.986 . S
Zn541 O546 1.996 . S
Zn541 O549 1.943 . S
O542 Zn541 1.962 . S
O542 C547 1.254 . S
O543 Zn540 2.031 . S
O543 C547 1.269 . S
O544 Zn541 1.986 . S
O544 C551 1.262 . S
O545 Zn540 2.049 . S
O545 C553 1.260 . S
O546 Zn541 1.996 . S
O546 C553 1.257 . S
C547 O542 1.254 . S
C547 O543 1.269 . S
C548 O549 1.249 . S
C548 O550 1.270 . S
O549 Zn541 1.943 . S
O549 C548 1.249 . S
O550 Zn540 2.067 . S
O550 C548 1.270 . S
C551 O544 1.262 . S
C551 O552 1.232 . S
O552 C551 1.232 . S
C553 O545 1.260 . S
C553 O546 1.257 . S
Zn554 O557 2.031 . S
Zn554 O559 2.049 1_545 S
Zn554 O564 2.067 . S
Zn555 O556 1.962 1_565 S
Zn555 O558 1.986 . S
Zn555 O560 1.996 . S
Zn555 O563 1.943 . S
O556 Zn555 1.962 1_545 S
O556 C561 1.254 . S
O557 Zn554 2.031 . S
O557 C561 1.269 . S
O558 Zn555 1.986 . S
O558 C565 1.262 . S
O559 Zn554 2.049 1_565 S
O559 C567 1.260 . S
O560 Zn555 1.996 . S
O560 C567 1.257 . S
C561 O556 1.254 . S
C561 O557 1.269 . S
C562 O563 1.248 1_545 S
C562 O564 1.298 . S
O563 Zn555 1.943 . S
O563 C562 1.248 1_565 S
O564 Zn554 2.067 . S
O564 C562 1.298 . S
C565 O558 1.262 . S
C565 O566 1.232 . S
O566 C565 1.232 . S
C567 O559 1.260 . S
C567 O560 1.257 . S
Zn568 O571 2.031 . S
Zn568 O573 2.049 . S
Zn568 O578 2.067 . S
Zn569 O570 1.962 . S
Zn569 O572 1.986 . S
Zn569 O574 1.996 . S
Zn569 O577 1.943 . S
O570 Zn569 1.962 . S
O570 C575 1.254 . S
O571 Zn568 2.031 . S
O571 C575 1.269 . S
O572 Zn569 1.986 . S
O572 C579 1.262 . S
O573 Zn568 2.049 . S
O573 C581 1.260 . S
O574 Zn569 1.996 . S
O574 C581 1.257 . S
C575 O570 1.254 . S
C575 O571 1.269 . S
C576 O577 1.249 . S
C576 O578 1.270 . S
O577 Zn569 1.943 . S
O577 C576 1.249 . S
O578 Zn568 2.067 . S
O578 C576 1.270 . S
C579 O572 1.262 . S
C579 O580 1.232 . S
O580 C579 1.232 . S
C581 O573 1.260 . S
C581 O574 1.257 . S
Zn582 O585 2.031 . S
Zn582 O587 2.049 . S
Zn582 O592 2.067 . S
Zn583 O584 1.962 . S
Zn583 O586 1.986 . S
Zn583 O588 1.996 . S
Zn583 O591 1.943 . S
O584 Zn583 1.962 . S
O584 C589 1.254 . S
O585 Zn582 2.031 . S
O585 C589 1.269 . S
O586 Zn583 1.986 . S
O586 C593 1.262 . S
O587 Zn582 2.049 . S
O587 C595 1.260 . S
O588 Zn583 1.996 . S
O588 C595 1.257 . S
C589 O584 1.254 . S
C589 O585 1.269 . S
C590 O591 1.249 . S
C590 O592 1.270 . S
O591 Zn583 1.943 . S
O591 C590 1.249 . S
O592 Zn582 2.067 . S
O592 C590 1.270 . S
C593 O586 1.262 . S
C593 O594 1.232 . S
O594 C593 1.232 . S
C595 O587 1.260 . S
C595 O588 1.257 . S
Zn596 O599 2.031 . S
Zn596 O601 2.049 . S
Zn596 O606 2.067 . S
Zn597 O598 1.962 . S
Zn597 O600 1.986 . S
Zn597 O602 1.996 . S
Zn597 O605 1.943 . S
O598 Zn597 1.962 . S
O598 C603 1.254 . S
O599 Zn596 2.031 . S
O599 C603 1.269 . S
O600 Zn597 1.986 . S
O600 C607 1.262 . S
O601 Zn596 2.049 . S
O601 C609 1.260 . S
O602 Zn597 1.996 . S
O602 C609 1.257 . S
C603 O598 1.254 . S
C603 O599 1.269 . S
C604 O605 1.249 . S
C604 O606 1.270 . S
O605 Zn597 1.943 . S
O605 C604 1.249 . S
O606 Zn596 2.067 . S
O606 C604 1.270 . S
C607 O600 1.262 . S
C607 O608 1.232 . S
O608 C607 1.232 . S
C609 O601 1.260 . S
C609 O602 1.257 . S
Zn610 O613 2.031 . S
Zn610 O615 2.049 1_655 S
Zn610 O620 2.067 1_655 S
Zn611 O612 1.962 . S
Zn611 O614 1.986 . S
Zn611 O616 1.996 . S
Zn611 O619 1.943 . S
O612 Zn611 1.962 . S
O612 C617 1.254 . S
O613 Zn610 2.031 . S
O613 C617 1.269 . S
O614 Zn611 1.986 . S
O614 C621 1.262 . S
O615 Zn610 2.049 1_455 S
O615 C623 1.260 1_455 S
O616 Zn611 1.996 . S
O616 C623 1.257 . S
C617 O612 1.254 . S
C617 O613 1.269 . S
C618 O619 1.249 1_455 S
C618 O620 1.270 . S
O619 Zn611 1.943 . S
O619 C618 1.249 1_655 S
O620 Zn610 2.067 1_455 S
O620 C618 1.270 . S
C621 O614 1.262 . S
C621 O622 1.232 . S
O622 C621 1.232 . S
C623 O615 1.260 1_655 S
C623 O616 1.257 . S
Zn624 O627 2.031 . S
Zn624 O629 2.049 . S
Zn624 O634 2.067 . S
Zn625 O626 1.962 . S
Zn625 O628 1.986 . S
Zn625 O630 1.996 . S
Zn625 O633 1.943 . S
O626 Zn625 1.962 . S
O626 C631 1.254 . S
O627 Zn624 2.031 . S
O627 C631 1.269 . S
O628 Zn625 1.986 . S
O628 C635 1.262 . S
O629 Zn624 2.049 . S
O629 C637 1.260 . S
O630 Zn625 1.996 . S
O630 C637 1.257 . S
C631 O626 1.254 . S
C631 O627 1.269 . S
C632 O633 1.249 . S
C632 O634 1.270 . S
O633 Zn625 1.943 . S
O633 C632 1.249 . S
O634 Zn624 2.067 . S
O634 C632 1.270 . S
C635 O628 1.262 . S
C635 O636 1.232 . S
O636 C635 1.232 . S
C637 O629 1.260 . S
C637 O630 1.257 . S
Zn638 O641 2.031 1_655 S
Zn638 O643 2.049 . S
Zn638 O648 2.067 1_655 S
Zn639 O640 1.962 . S
Zn639 O642 1.986 . S
Zn639 O644 1.996 . S
Zn639 O647 1.943 . S
O640 Zn639 1.962 . S
O640 C645 1.254 . S
O641 Zn638 2.031 1_455 S
O641 C645 1.269 1_455 S
O642 Zn639 1.986 . S
O642 C649 1.262 . S
O643 Zn638 2.049 . S
O643 C651 1.260 . S
O644 Zn639 1.996 . S
O644 C651 1.257 . S
C645 O640 1.254 . S
C645 O641 1.269 1_655 S
C646 O647 1.249 1_455 S
C646 O648 1.270 . S
O647 Zn639 1.943 . S
O647 C646 1.249 1_655 S
O648 Zn638 2.067 1_455 S
O648 C646 1.270 . S
C649 O642 1.262 . S
C649 O650 1.232 . S
O650 C649 1.232 . S
C651 O643 1.260 . S
C651 O644 1.257 . S
Zn652 O655 2.031 . S
Zn652 O657 2.049 . S
Zn652 O662 2.067 . S
Zn653 O654 1.962 . S
Zn653 O656 1.986 . S
Zn653 O658 1.996 . S
Zn653 O661 1.943 . S
O654 Zn653 1.962 . S
O654 C659 1.254 . S
O655 Zn652 2.031 . S
O655 C659 1.269 . S
O656 Zn653 1.986 . S
O656 C663 1.262 . S
O657 Zn652 2.049 . S
O657 C665 1.260 . S
O658 Zn653 1.996 . S
O658 C665 1.257 . S
C659 O654 1.254 . S
C659 O655 1.269 . S
C660 O661 1.249 . S
C660 O662 1.270 . S
O661 Zn653 1.943 . S
O661 C660 1.249 . S
O662 Zn652 2.067 . S
O662 C660 1.270 . S
C663 O656 1.262 . S
C663 O664 1.232 . S
O664 C663 1.232 . S
C665 O657 1.260 . S
C665 O658 1.257 . S
H666 C674 0.950 . S
H667 C679 0.950 . S
H668 C676 0.950 . S
H669 C678 0.950 . S
H670 C680 0.950 . S
H671 C682 0.950 . S
H672 C684 0.950 . S
H673 C685 0.950 . S
C674 H666 0.950 . S
C674 C675 1.386 . S
C674 C676 1.391 . S
C675 C674 1.386 . S
C675 C679 1.393 . S
C676 H668 0.950 . S
C676 C674 1.391 . S
C676 C677 1.400 . S
C677 C676 1.400 . S
C677 C678 1.398 . S
C677 C683 1.491 . S
C678 H669 0.950 . S
C678 C677 1.398 . S
C678 C679 1.391 . S
C679 H667 0.950 . S
C679 C675 1.393 . S
C679 C678 1.391 . S
C680 H670 0.950 . S
C680 C681 1.386 . S
C680 C682 1.391 . S
C681 C680 1.386 . S
C681 C685 1.393 . S
C682 H671 0.950 . S
C682 C680 1.391 . S
C682 C683 1.400 . S
C683 C677 1.491 . S
C683 C682 1.400 . S
C683 C684 1.398 . S
C684 H672 0.950 . S
C684 C683 1.398 . S
C684 C685 1.391 . S
C685 H673 0.950 . S
C685 C681 1.393 . S
C685 C684 1.391 . S
H686 C694 0.950 . S
H687 C699 0.950 . S
H688 C696 0.950 . S
H689 C698 0.950 . S
H690 C700 0.950 . S
H691 C702 0.950 . S
H692 C704 0.950 . S
H693 C705 0.950 . S
C694 H686 0.950 . S
C694 C695 1.386 . S
C694 C696 1.391 . S
C695 C694 1.386 . S
C695 C699 1.393 . S
C696 H688 0.950 . S
C696 C694 1.391 . S
C696 C697 1.400 . S
C697 C696 1.400 . S
C697 C698 1.398 . S
C697 C703 1.491 . S
C698 H689 0.950 . S
C698 C697 1.398 . S
C698 C699 1.391 . S
C699 H687 0.950 . S
C699 C695 1.393 . S
C699 C698 1.391 . S
C700 H690 0.950 . S
C700 C701 1.386 . S
C700 C702 1.391 . S
C701 C700 1.386 . S
C701 C705 1.393 . S
C702 H691 0.950 . S
C702 C700 1.391 . S
C702 C703 1.400 . S
C703 C697 1.491 . S
C703 C702 1.400 . S
C703 C704 1.398 . S
C704 H692 0.950 . S
C704 C703 1.398 . S
C704 C705 1.391 . S
C705 H693 0.950 . S
C705 C701 1.393 . S
C705 C704 1.391 . S
H706 C714 0.950 . S
H707 C719 0.950 . S
H708 C716 0.950 . S
H709 C718 0.950 . S
H710 C720 0.950 . S
H711 C722 0.950 . S
H712 C724 0.950 . S
H713 C725 0.950 . S
C714 H706 0.950 . S
C714 C715 1.386 . S
C714 C716 1.391 . S
C715 C714 1.386 . S
C715 C719 1.393 . S
C716 H708 0.950 . S
C716 C714 1.391 . S
C716 C717 1.400 . S
C717 C716 1.400 . S
C717 C718 1.398 . S
C717 C723 1.491 . S
C718 H709 0.950 . S
C718 C717 1.398 . S
C718 C719 1.391 . S
C719 H707 0.950 . S
C719 C715 1.393 . S
C719 C718 1.391 . S
C720 H710 0.950 . S
C720 C721 1.386 . S
C720 C722 1.391 . S
C721 C720 1.386 . S
C721 C725 1.393 . S
C722 H711 0.950 . S
C722 C720 1.391 . S
C722 C723 1.400 . S
C723 C717 1.491 . S
C723 C722 1.400 . S
C723 C724 1.398 . S
C724 H712 0.950 . S
C724 C723 1.398 . S
C724 C725 1.391 . S
C725 H713 0.950 . S
C725 C721 1.393 . S
C725 C724 1.391 . S
H726 C734 0.950 . S
H727 C739 0.950 . S
H728 C736 0.950 . S
H729 C738 0.950 . S
H730 C740 0.950 . S
H731 C742 0.950 . S
H732 C744 0.950 . S
H733 C745 0.950 . S
C734 H726 0.950 . S
C734 C735 1.386 . S
C734 C736 1.391 . S
C735 C734 1.386 . S
C735 C739 1.393 . S
C736 H728 0.950 . S
C736 C734 1.391 . S
C736 C737 1.400 . S
C737 C736 1.400 . S
C737 C738 1.398 . S
C737 C743 1.491 . S
C738 H729 0.950 . S
C738 C737 1.398 . S
C738 C739 1.391 . S
C739 H727 0.950 . S
C739 C735 1.393 . S
C739 C738 1.391 . S
C740 H730 0.950 . S
C740 C741 1.386 . S
C740 C742 1.391 . S
C741 C740 1.386 . S
C741 C745 1.393 . S
C742 H731 0.950 . S
C742 C740 1.391 . S
C742 C743 1.400 . S
C743 C737 1.491 . S
C743 C742 1.400 . S
C743 C744 1.398 . S
C744 H732 0.950 . S
C744 C743 1.398 . S
C744 C745 1.391 . S
C745 H733 0.950 . S
C745 C741 1.393 . S
C745 C744 1.391 . S
H746 C754 0.950 . S
H747 C759 0.950 . S
H748 C756 0.950 . S
H749 C758 0.950 . S
H750 C760 0.950 . S
H751 C762 0.978 . S
H752 C764 0.950 . S
H753 C765 0.950 . S
C754 H746 0.950 . S
C754 C755 1.386 . S
C754 C756 1.391 . S
C755 C754 1.386 . S
C755 C759 1.393 . S
C756 H748 0.950 . S
C756 C754 1.391 . S
C756 C757 1.400 . S
C757 C756 1.400 . S
C757 C758 1.398 . S
C757 C763 1.491 . S
C758 H749 0.950 . S
C758 C757 1.398 . S
C758 C759 1.391 . S
C759 H747 0.950 . S
C759 C755 1.393 . S
C759 C758 1.391 . S
C760 H750 0.950 . S
C760 C761 1.386 . S
C760 C762 1.388 . S
C761 C760 1.386 . S
C761 C765 1.393 1_655 S
C762 H751 0.978 . S
C762 C760 1.388 . S
C762 C763 1.377 1_655 S
C763 C757 1.491 . S
C763 C762 1.377 1_455 S
C763 C764 1.398 . S
C764 H752 0.950 . S
C764 C763 1.398 . S
C764 C765 1.391 . S
C765 H753 0.950 . S
C765 C761 1.393 1_455 S
C765 C764 1.391 . S
H766 C774 0.950 . S
H767 C779 0.950 . S
H768 C776 0.950 . S
H769 C778 0.950 . S
H770 C780 0.950 . S
H771 C782 0.950 . S
H772 C784 0.950 . S
H773 C785 0.950 . S
C774 H766 0.950 . S
C774 C775 1.386 . S
C774 C776 1.391 . S
C775 C774 1.386 . S
C775 C779 1.393 . S
C776 H768 0.950 . S
C776 C774 1.391 . S
C776 C777 1.400 . S
C777 C776 1.400 . S
C777 C778 1.398 . S
C777 C783 1.491 . S
C778 H769 0.950 . S
C778 C777 1.398 . S
C778 C779 1.391 . S
C779 H767 0.950 . S
C779 C775 1.393 . S
C779 C778 1.391 . S
C780 H770 0.950 . S
C780 C781 1.386 . S
C780 C782 1.391 . S
C781 C780 1.386 . S
C781 C785 1.393 . S
C782 H771 0.950 . S
C782 C780 1.391 . S
C782 C783 1.400 . S
C783 C777 1.491 . S
C783 C782 1.400 . S
C783 C784 1.398 . S
C784 H772 0.950 . S
C784 C783 1.398 . S
C784 C785 1.391 . S
C785 H773 0.950 . S
C785 C781 1.393 . S
C785 C784 1.391 . S
H786 C794 0.950 . S
H787 C799 0.950 1_554 S
H788 C796 0.950 . S
H789 C798 0.950 . S
H790 C800 0.950 . S
H791 C802 0.950 . S
H792 C804 0.950 . S
H793 C805 0.950 . S
C794 H786 0.950 . S
C794 C795 1.377 1_655 S
C794 C796 1.400 . S
C795 C794 1.377 1_455 S
C795 C799 1.393 . S
C796 H788 0.950 . S
C796 C794 1.400 . S
C796 C797 1.400 1_655 S
C797 C796 1.400 1_455 S
C797 C798 1.398 . S
C797 C803 1.491 . S
C798 H789 0.950 . S
C798 C797 1.398 . S
C798 C799 1.391 . S
C799 H787 0.950 1_556 S
C799 C795 1.393 . S
C799 C798 1.391 . S
C800 H790 0.950 . S
C800 C801 1.386 1_455 S
C800 C802 1.391 . S
C801 C800 1.386 1_655 S
C801 C805 1.393 . S
C802 H791 0.950 . S
C802 C800 1.391 . S
C802 C803 1.400 . S
C803 C797 1.491 . S
C803 C802 1.400 . S
C803 C804 1.398 1_455 S
C804 H792 0.950 . S
C804 C803 1.398 1_655 S
C804 C805 1.391 . S
C805 H793 0.950 . S
C805 C801 1.393 . S
C805 C804 1.391 . S
H806 C814 0.950 . S
H807 C819 0.950 . S
H808 C816 0.950 . S
H809 C818 0.950 . S
H810 C820 0.950 . S
H811 C822 0.950 . S
H812 C824 0.950 . S
H813 C825 0.950 . S
C814 H806 0.950 . S
C814 C815 1.386 . S
C814 C816 1.391 . S
C815 C814 1.386 . S
C815 C819 1.393 . S
C816 H808 0.950 . S
C816 C814 1.391 . S
C816 C817 1.400 . S
C817 C816 1.400 . S
C817 C818 1.398 . S
C817 C823 1.491 . S
C818 H809 0.950 . S
C818 C817 1.398 . S
C818 C819 1.391 . S
C819 H807 0.950 . S
C819 C815 1.393 . S
C819 C818 1.391 . S
C820 H810 0.950 . S
C820 C821 1.386 . S
C820 C822 1.391 . S
C821 C820 1.386 . S
C821 C825 1.393 . S
C822 H811 0.950 . S
C822 C820 1.391 . S
C822 C823 1.400 . S
C823 C817 1.491 . S
C823 C822 1.400 . S
C823 C824 1.398 . S
C824 H812 0.950 . S
C824 C823 1.398 . S
C824 C825 1.391 . S
C825 H813 0.950 . S
C825 C821 1.393 . S
C825 C824 1.391 . S
H826 C834 0.950 . S
H827 C839 0.950 . S
H828 C836 0.950 1_554 S
H829 C838 0.950 . S
H830 C840 0.950 . S
H831 C842 0.950 . S
H832 C844 0.950 . S
H833 C845 0.950 . S
C834 H826 0.950 . S
C834 C835 1.386 1_554 S
C834 C836 1.391 1_554 S
C835 C834 1.386 1_556 S
C835 C839 1.393 . S
C836 H828 0.950 1_556 S
C836 C834 1.391 1_556 S
C836 C837 1.400 . S
C837 C836 1.400 . S
C837 C838 1.398 . S
C837 C843 1.491 . S
C838 H829 0.950 . S
C838 C837 1.398 . S
C838 C839 1.391 . S
C839 H827 0.950 . S
C839 C835 1.393 . S
C839 C838 1.391 . S
C840 H830 0.950 . S
C840 C841 1.386 . S
C840 C842 1.391 . S
C841 C840 1.386 . S
C841 C845 1.393 . S
C842 H831 0.950 . S
C842 C840 1.391 . S
C842 C843 1.400 . S
C843 C837 1.491 . S
C843 C842 1.400 . S
C843 C844 1.398 . S
C844 H832 0.950 . S
C844 C843 1.398 . S
C844 C845 1.391 . S
C845 H833 0.950 . S
C845 C841 1.393 . S
C845 C844 1.391 . S
H846 C854 0.950 . S
H847 C859 0.950 . S
H848 C856 0.950 . S
H849 C858 0.950 . S
H850 C860 0.950 . S
H851 C862 0.950 . S
H852 C864 0.950 . S
H853 C865 0.950 . S
C854 H846 0.950 . S
C854 C855 1.386 1_565 S
C854 C856 1.391 . S
C855 C854 1.386 1_545 S
C855 C859 1.393 . S
C856 H848 0.950 . S
C856 C854 1.391 . S
C856 C857 1.400 1_565 S
C857 C856 1.400 1_545 S
C857 C858 1.398 . S
C857 C863 1.491 . S
C858 H849 0.950 . S
C858 C857 1.398 . S
C858 C859 1.391 . S
C859 H847 0.950 . S
C859 C855 1.393 . S
C859 C858 1.391 . S
C860 H850 0.950 . S
C860 C861 1.386 1_545 S
C860 C862 1.391 . S
C861 C860 1.386 1_565 S
C861 C865 1.393 . S
C862 H851 0.950 . S
C862 C860 1.391 . S
C862 C863 1.400 . S
C863 C857 1.491 . S
C863 C862 1.400 . S
C863 C864 1.398 1_545 S
C864 H852 0.950 . S
C864 C863 1.398 1_565 S
C864 C865 1.391 . S
C865 H853 0.950 . S
C865 C861 1.393 . S
C865 C864 1.391 . S
H866 C874 0.950 . S
H867 C879 0.950 . S
H868 C876 0.950 . S
H869 C878 0.950 . S
H870 C880 0.950 . S
H871 C882 0.950 . S
H872 C884 0.950 . S
H873 C885 0.950 . S
C874 H866 0.950 . S
C874 C875 1.386 . S
C874 C876 1.391 . S
C875 C874 1.386 . S
C875 C879 1.393 . S
C876 H868 0.950 . S
C876 C874 1.391 . S
C876 C877 1.400 . S
C877 C876 1.400 . S
C877 C878 1.398 . S
C877 C883 1.491 . S
C878 H869 0.950 . S
C878 C877 1.398 . S
C878 C879 1.391 . S
C879 H867 0.950 . S
C879 C875 1.393 . S
C879 C878 1.391 . S
C880 H870 0.950 . S
C880 C881 1.386 . S
C880 C882 1.391 . S
C881 C880 1.386 . S
C881 C885 1.393 . S
C882 H871 0.950 . S
C882 C880 1.391 . S
C882 C883 1.400 . S
C883 C877 1.491 . S
C883 C882 1.400 . S
C883 C884 1.398 . S
C884 H872 0.950 . S
C884 C883 1.398 . S
C884 C885 1.391 . S
C885 H873 0.950 . S
C885 C881 1.393 . S
C885 C884 1.391 . S
H886 C894 0.950 . S
H887 C899 0.950 . S
H888 C896 0.950 . S
H889 C898 0.950 . S
H890 C900 0.950 . S
H891 C902 0.950 . S
H892 C904 0.950 . S
H893 C905 0.950 . S
C894 H886 0.950 . S
C894 C895 1.386 . S
C894 C896 1.391 . S
C895 C894 1.386 . S
C895 C899 1.393 . S
C896 H888 0.950 . S
C896 C894 1.391 . S
C896 C897 1.400 . S
C897 C896 1.400 . S
C897 C898 1.398 . S
C897 C903 1.491 . S
C898 H889 0.950 . S
C898 C897 1.398 . S
C898 C899 1.391 . S
C899 H887 0.950 . S
C899 C895 1.393 . S
C899 C898 1.391 . S
C900 H890 0.950 . S
C900 C901 1.386 . S
C900 C902 1.391 . S
C901 C900 1.386 . S
C901 C905 1.393 . S
C902 H891 0.950 . S
C902 C900 1.391 . S
C902 C903 1.400 . S
C903 C897 1.491 . S
C903 C902 1.400 . S
C903 C904 1.398 . S
C904 H892 0.950 . S
C904 C903 1.398 . S
C904 C905 1.391 . S
C905 H893 0.950 . S
C905 C901 1.393 . S
C905 C904 1.391 . S
H906 C914 0.950 . S
H907 C919 0.950 . S
H908 C916 0.950 . S
H909 C918 0.950 . S
H910 C920 0.950 . S
H911 C922 0.950 . S
H912 C924 0.950 . S
H913 C925 0.950 . S
C914 H906 0.950 . S
C914 C915 1.386 . S
C914 C916 1.391 . S
C915 C914 1.386 . S
C915 C919 1.393 . S
C916 H908 0.950 . S
C916 C914 1.391 . S
C916 C917 1.400 . S
C917 C916 1.400 . S
C917 C918 1.398 . S
C917 C923 1.491 . S
C918 H909 0.950 . S
C918 C917 1.398 . S
C918 C919 1.391 . S
C919 H907 0.950 . S
C919 C915 1.393 . S
C919 C918 1.391 . S
C920 H910 0.950 . S
C920 C921 1.386 . S
C920 C922 1.391 . S
C921 C920 1.386 . S
C921 C925 1.393 . S
C922 H911 0.950 . S
C922 C920 1.391 . S
C922 C923 1.400 . S
C923 C917 1.491 . S
C923 C922 1.400 . S
C923 C924 1.398 . S
C924 H912 0.950 . S
C924 C923 1.398 . S
C924 C925 1.391 . S
C925 H913 0.950 . S
C925 C921 1.393 . S
C925 C924 1.391 . S
H926 C934 0.950 . S
H927 C939 0.950 . S
H928 C936 0.950 . S
H929 C938 0.950 . S
H930 C940 0.950 . S
H931 C942 0.950 . S
H932 C944 0.950 . S
H933 C945 0.950 . S
C934 H926 0.950 . S
C934 C935 1.386 . S
C934 C936 1.391 . S
C935 C934 1.386 . S
C935 C939 1.393 . S
C936 H928 0.950 . S
C936 C934 1.391 . S
C936 C937 1.400 . S
C937 C936 1.400 . S
C937 C938 1.398 . S
C937 C943 1.491 1_565 S
C938 H929 0.950 . S
C938 C937 1.398 . S
C938 C939 1.391 . S
C939 H927 0.950 . S
C939 C935 1.393 . S
C939 C938 1.391 . S
C940 H930 0.950 . S
C940 C941 1.386 . S
C940 C942 1.391 . S
C941 C940 1.386 . S
C941 C945 1.393 . S
C942 H931 0.950 . S
C942 C940 1.391 . S
C942 C943 1.400 . S
C943 C937 1.491 1_545 S
C943 C942 1.400 . S
C943 C944 1.398 . S
C944 H932 0.950 . S
C944 C943 1.398 . S
C944 C945 1.391 . S
C945 H933 0.950 . S
C945 C941 1.393 . S
C945 C944 1.391 . S
H946 C954 0.950 . S
H947 C959 0.950 . S
H948 C956 0.950 . S
H949 C958 0.950 . S
H950 C960 0.950 . S
H951 C962 0.950 . S
H952 C964 0.950 . S
H953 C965 0.950 . S
C954 H946 0.950 . S
C954 C955 1.386 . S
C954 C956 1.391 . S
C955 C954 1.386 . S
C955 C959 1.393 . S
C956 H948 0.950 . S
C956 C954 1.391 . S
C956 C957 1.400 . S
C957 C956 1.400 . S
C957 C958 1.398 . S
C957 C963 1.491 . S
C958 H949 0.950 . S
C958 C957 1.398 . S
C958 C959 1.391 . S
C959 H947 0.950 . S
C959 C955 1.393 . S
C959 C958 1.391 . S
C960 H950 0.950 . S
C960 C961 1.386 . S
C960 C962 1.391 . S
C961 C960 1.386 . S
C961 C965 1.393 . S
C962 H951 0.950 . S
C962 C960 1.391 . S
C962 C963 1.400 . S
C963 C957 1.491 . S
C963 C962 1.400 . S
C963 C964 1.398 . S
C964 H952 0.950 . S
C964 C963 1.398 . S
C964 C965 1.391 . S
C965 H953 0.950 . S
C965 C961 1.393 . S
C965 C964 1.391 . S
H966 C974 0.950 . S
H967 C979 0.950 . S
H968 C976 0.950 . S
H969 C978 0.950 . S
H970 C980 0.950 . S
H971 C982 0.950 . S
H972 C984 0.950 . S
H973 C985 0.950 . S
C974 H966 0.950 . S
C974 C975 1.386 . S
C974 C976 1.391 . S
C975 C974 1.386 . S
C975 C979 1.393 . S
C976 H968 0.950 . S
C976 C974 1.391 . S
C976 C977 1.400 . S
C977 C976 1.400 . S
C977 C978 1.398 . S
C977 C983 1.491 . S
C978 H969 0.950 . S
C978 C977 1.398 . S
C978 C979 1.391 . S
C979 H967 0.950 . S
C979 C975 1.393 . S
C979 C978 1.391 . S
C980 H970 0.950 . S
C980 C981 1.386 . S
C980 C982 1.391 . S
C981 C980 1.386 . S
C981 C985 1.393 . S
C982 H971 0.950 . S
C982 C980 1.391 . S
C982 C983 1.400 . S
C983 C977 1.491 . S
C983 C982 1.400 . S
C983 C984 1.398 . S
C984 H972 0.950 . S
C984 C983 1.398 . S
C984 C985 1.391 . S
C985 H973 0.950 . S
C985 C981 1.393 . S
C985 C984 1.391 . S
H986 C994 0.950 . S
H987 C999 0.950 . S
H988 C996 0.950 . S
H989 C998 0.950 . S
H990 C1000 0.950 . S
H991 C1002 0.950 . S
H992 C1004 0.950 . S
H993 C1005 0.950 . S
C994 H986 0.950 . S
C994 C995 1.386 . S
C994 C996 1.391 . S
C995 C994 1.386 . S
C995 C999 1.393 . S
C996 H988 0.950 . S
C996 C994 1.391 . S
C996 C997 1.400 . S
C997 C996 1.400 . S
C997 C998 1.398 . S
C997 C1003 1.491 . S
C998 H989 0.950 . S
C998 C997 1.398 . S
C998 C999 1.391 . S
C999 H987 0.950 . S
C999 C995 1.393 . S
C999 C998 1.391 . S
C1000 H990 0.950 . S
C1000 C1001 1.386 . S
C1000 C1002 1.391 . S
C1001 C1000 1.386 . S
C1001 C1005 1.393 . S
C1002 H991 0.950 . S
C1002 C1000 1.391 . S
C1002 C1003 1.400 . S
C1003 C997 1.491 . S
C1003 C1002 1.400 . S
C1003 C1004 1.398 . S
C1004 H992 0.950 . S
C1004 C1003 1.398 . S
C1004 C1005 1.391 . S
C1005 H993 0.950 . S
C1005 C1001 1.393 . S
C1005 C1004 1.391 . S
H1006 C1014 0.950 . S
H1007 C1019 0.950 . S
H1008 C1016 0.950 . S
H1009 C1018 0.950 . S
H1010 C1020 0.950 . S
H1011 C1022 0.950 . S
H1012 C1024 0.950 . S
H1013 C1025 0.928 1_545 S
C1014 H1006 0.950 . S
C1014 C1015 1.386 . S
C1014 C1016 1.391 . S
C1015 C1014 1.386 . S
C1015 C1019 1.393 . S
C1016 H1008 0.950 . S
C1016 C1014 1.391 . S
C1016 C1017 1.400 . S
C1017 C1016 1.400 . S
C1017 C1018 1.398 . S
C1017 C1023 1.491 . S
C1018 H1009 0.950 . S
C1018 C1017 1.398 . S
C1018 C1019 1.391 . S
C1019 H1007 0.950 . S
C1019 C1015 1.393 . S
C1019 C1018 1.391 . S
C1020 H1010 0.950 . S
C1020 C1021 1.386 . S
C1020 C1022 1.391 . S
C1021 C1020 1.386 . S
C1021 C1025 1.411 . S
C1022 H1011 0.950 . S
C1022 C1020 1.391 . S
C1022 C1023 1.400 . S
C1023 C1017 1.491 . S
C1023 C1022 1.400 . S
C1023 C1024 1.398 . S
C1024 H1012 0.950 . S
C1024 C1023 1.398 . S
C1024 C1025 1.394 . S
C1025 H1013 0.928 1_565 S
C1025 C1021 1.411 . S
C1025 C1024 1.394 . S
H1026 C1034 0.950 . S
H1027 C1039 0.950 . S
H1028 C1036 0.950 . S
H1029 C1038 0.950 . S
H1030 C1040 0.950 . S
H1031 C1042 0.950 . S
H1032 C1044 0.950 . S
H1033 C1045 0.950 1_565 S
C1034 H1026 0.950 . S
C1034 C1035 1.386 . S
C1034 C1036 1.391 . S
C1035 C1034 1.386 . S
C1035 C1039 1.393 . S
C1036 H1028 0.950 . S
C1036 C1034 1.391 . S
C1036 C1037 1.400 . S
C1037 C1036 1.400 . S
C1037 C1038 1.398 . S
C1037 C1043 1.491 . S
C1038 H1029 0.950 . S
C1038 C1037 1.398 . S
C1038 C1039 1.391 . S
C1039 H1027 0.950 . S
C1039 C1035 1.393 . S
C1039 C1038 1.391 . S
C1040 H1030 0.950 . S
C1040 C1041 1.386 . S
C1040 C1042 1.391 . S
C1041 C1040 1.386 . S
C1041 C1045 1.394 . S
C1042 H1031 0.950 . S
C1042 C1040 1.391 . S
C1042 C1043 1.400 1_545 S
C1043 C1037 1.491 . S
C1043 C1042 1.400 1_565 S
C1043 C1044 1.398 . S
C1044 H1032 0.950 . S
C1044 C1043 1.398 . S
C1044 C1045 1.389 1_565 S
C1045 H1033 0.950 1_545 S
C1045 C1041 1.394 . S
C1045 C1044 1.389 1_545 S
H1046 C1054 0.950 . S
H1047 C1059 0.950 . S
H1048 C1056 0.950 . S
H1049 C1058 0.950 . S
H1050 C1060 0.950 . S
H1051 C1062 0.950 . S
H1052 C1064 0.950 . S
H1053 C1065 0.950 . S
C1054 H1046 0.950 . S
C1054 C1055 1.386 . S
C1054 C1056 1.391 . S
C1055 C1054 1.386 . S
C1055 C1059 1.393 . S
C1056 H1048 0.950 . S
C1056 C1054 1.391 . S
C1056 C1057 1.400 . S
C1057 C1056 1.400 . S
C1057 C1058 1.398 . S
C1057 C1063 1.491 . S
C1058 H1049 0.950 . S
C1058 C1057 1.398 . S
C1058 C1059 1.391 . S
C1059 H1047 0.950 . S
C1059 C1055 1.393 . S
C1059 C1058 1.391 . S
C1060 H1050 0.950 . S
C1060 C1061 1.386 . S
C1060 C1062 1.391 . S
C1061 C1060 1.386 . S
C1061 C1065 1.393 . S
C1062 H1051 0.950 . S
C1062 C1060 1.391 . S
C1062 C1063 1.400 . S
C1063 C1057 1.491 . S
C1063 C1062 1.400 . S
C1063 C1064 1.398 . S
C1064 H1052 0.950 . S
C1064 C1063 1.398 . S
C1064 C1065 1.391 . S
C1065 H1053 0.950 . S
C1065 C1061 1.393 . S
C1065 C1064 1.391 . S
H1066 C1074 0.950 . S
H1067 C1079 0.950 . S
H1068 C1076 0.950 . S
H1069 C1078 0.950 . S
H1070 C1080 0.950 . S
H1071 C1082 0.950 . S
H1072 C1084 0.950 . S
H1073 C1085 0.950 . S
C1074 H1066 0.950 . S
C1074 C1075 1.386 . S
C1074 C1076 1.391 . S
C1075 C1074 1.386 . S
C1075 C1079 1.393 . S
C1076 H1068 0.950 . S
C1076 C1074 1.391 . S
C1076 C1077 1.400 . S
C1077 C1076 1.400 . S
C1077 C1078 1.398 . S
C1077 C1083 1.491 . S
C1078 H1069 0.950 . S
C1078 C1077 1.398 . S
C1078 C1079 1.391 . S
C1079 H1067 0.950 . S
C1079 C1075 1.393 . S
C1079 C1078 1.391 . S
C1080 H1070 0.950 . S
C1080 C1081 1.386 . S
C1080 C1082 1.391 . S
C1081 C1080 1.386 . S
C1081 C1085 1.393 . S
C1082 H1071 0.950 . S
C1082 C1080 1.391 . S
C1082 C1083 1.400 . S
C1083 C1077 1.491 . S
C1083 C1082 1.400 . S
C1083 C1084 1.398 . S
C1084 H1072 0.950 . S
C1084 C1083 1.398 . S
C1084 C1085 1.391 . S
C1085 H1073 0.950 . S
C1085 C1081 1.393 . S
C1085 C1084 1.391 . S
H1086 C1094 0.950 . S
H1087 C1099 0.950 . S
H1088 C1096 0.950 . S
H1089 C1098 0.950 . S
H1090 C1100 0.950 . S
H1091 C1102 0.950 . S
H1092 C1104 0.950 . S
H1093 C1105 0.950 . S
C1094 H1086 0.950 . S
C1094 C1095 1.386 . S
C1094 C1096 1.391 . S
C1095 C1094 1.386 . S
C1095 C1099 1.393 . S
C1096 H1088 0.950 . S
C1096 C1094 1.391 . S
C1096 C1097 1.400 . S
C1097 C1096 1.400 . S
C1097 C1098 1.398 . S
C1097 C1103 1.491 . S
C1098 H1089 0.950 . S
C1098 C1097 1.398 . S
C1098 C1099 1.391 . S
C1099 H1087 0.950 . S
C1099 C1095 1.393 . S
C1099 C1098 1.391 . S
C1100 H1090 0.950 . S
C1100 C1101 1.386 . S
C1100 C1102 1.391 . S
C1101 C1100 1.386 . S
C1101 C1105 1.393 . S
C1102 H1091 0.950 . S
C1102 C1100 1.391 . S
C1102 C1103 1.400 . S
C1103 C1097 1.491 . S
C1103 C1102 1.400 . S
C1103 C1104 1.398 . S
C1104 H1092 0.950 . S
C1104 C1103 1.398 . S
C1104 C1105 1.391 . S
C1105 H1093 0.950 . S
C1105 C1101 1.393 . S
C1105 C1104 1.391 . S
H1106 C1114 0.950 . S
H1107 C1119 0.950 . S
H1108 C1116 0.950 1_545 S
H1109 C1118 0.950 . S
H1110 C1120 0.950 . S
H1111 C1122 0.950 . S
H1112 C1124 0.950 . S
H1113 C1125 0.950 . S
C1114 H1106 0.950 . S
C1114 C1115 1.386 . S
C1114 C1116 1.391 . S
C1115 C1114 1.386 . S
C1115 C1119 1.393 . S
C1116 H1108 0.950 1_565 S
C1116 C1114 1.391 . S
C1116 C1117 1.400 . S
C1117 C1116 1.400 . S
C1117 C1118 1.398 . S
C1117 C1123 1.491 1_565 S
C1118 H1109 0.950 . S
C1118 C1117 1.398 . S
C1118 C1119 1.391 . S
C1119 H1107 0.950 . S
C1119 C1115 1.393 . S
C1119 C1118 1.391 . S
C1120 H1110 0.950 . S
C1120 C1121 1.386 . S
C1120 C1122 1.391 . S
C1121 C1120 1.386 . S
C1121 C1125 1.393 . S
C1122 H1111 0.950 . S
C1122 C1120 1.391 . S
C1122 C1123 1.400 . S
C1123 C1117 1.491 1_545 S
C1123 C1122 1.400 . S
C1123 C1124 1.398 . S
C1124 H1112 0.950 . S
C1124 C1123 1.398 . S
C1124 C1125 1.391 . S
C1125 H1113 0.950 . S
C1125 C1121 1.393 . S
C1125 C1124 1.391 . S
H1126 C1134 0.950 . S
H1127 C1139 0.950 . S
H1128 C1136 0.950 . S
H1129 C1138 0.950 . S
H1130 C1140 0.950 . S
H1131 C1142 0.950 . S
H1132 C1144 0.950 . S
H1133 C1145 0.950 . S
C1134 H1126 0.950 . S
C1134 C1135 1.386 . S
C1134 C1136 1.391 . S
C1135 C1134 1.386 . S
C1135 C1139 1.393 . S
C1136 H1128 0.950 . S
C1136 C1134 1.391 . S
C1136 C1137 1.400 . S
C1137 C1136 1.400 . S
C1137 C1138 1.398 . S
C1137 C1143 1.491 . S
C1138 H1129 0.950 . S
C1138 C1137 1.398 . S
C1138 C1139 1.391 . S
C1139 H1127 0.950 . S
C1139 C1135 1.393 . S
C1139 C1138 1.391 . S
C1140 H1130 0.950 . S
C1140 C1141 1.386 . S
C1140 C1142 1.391 . S
C1141 C1140 1.386 . S
C1141 C1145 1.393 . S
C1142 H1131 0.950 . S
C1142 C1140 1.391 . S
C1142 C1143 1.400 . S
C1143 C1137 1.491 . S
C1143 C1142 1.400 . S
C1143 C1144 1.398 . S
C1144 H1132 0.950 . S
C1144 C1143 1.398 . S
C1144 C1145 1.391 . S
C1145 H1133 0.950 . S
C1145 C1141 1.393 . S
C1145 C1144 1.391 . S
H1146 C1154 0.950 . S
H1147 C1159 0.950 . S
H1148 C1156 0.950 . S
H1149 C1158 0.950 . S
H1150 C1160 0.950 . S
H1151 C1162 0.950 . S
H1152 C1164 0.950 . S
H1153 C1165 0.950 . S
C1154 H1146 0.950 . S
C1154 C1155 1.386 . S
C1154 C1156 1.391 . S
C1155 C1154 1.386 . S
C1155 C1159 1.393 . S
C1156 H1148 0.950 . S
C1156 C1154 1.391 . S
C1156 C1157 1.400 . S
C1157 C1156 1.400 . S
C1157 C1158 1.398 . S
C1157 C1163 1.491 . S
C1158 H1149 0.950 . S
C1158 C1157 1.398 . S
C1158 C1159 1.391 . S
C1159 H1147 0.950 . S
C1159 C1155 1.393 . S
C1159 C1158 1.391 . S
C1160 H1150 0.950 . S
C1160 C1161 1.386 . S
C1160 C1162 1.391 . S
C1161 C1160 1.386 . S
C1161 C1165 1.393 . S
C1162 H1151 0.950 . S
C1162 C1160 1.391 . S
C1162 C1163 1.400 . S
C1163 C1157 1.491 . S
C1163 C1162 1.400 . S
C1163 C1164 1.398 . S
C1164 H1152 0.950 . S
C1164 C1163 1.398 . S
C1164 C1165 1.391 . S
C1165 H1153 0.950 . S
C1165 C1161 1.393 . S
C1165 C1164 1.391 . S
H1166 C1174 0.950 . S
H1167 C1179 0.950 . S
H1168 C1176 0.950 . S
H1169 C1178 0.950 . S
H1170 C1180 0.950 . S
H1171 C1182 0.950 . S
H1172 C1184 0.950 . S
H1173 C1185 0.950 . S
C1174 H1166 0.950 . S
C1174 C1175 1.386 . S
C1174 C1176 1.391 . S
C1175 C1174 1.386 . S
C1175 C1179 1.393 . S
C1176 H1168 0.950 . S
C1176 C1174 1.391 . S
C1176 C1177 1.400 . S
C1177 C1176 1.400 . S
C1177 C1178 1.398 . S
C1177 C1183 1.491 . S
C1178 H1169 0.950 . S
C1178 C1177 1.398 . S
C1178 C1179 1.391 . S
C1179 H1167 0.950 . S
C1179 C1175 1.393 . S
C1179 C1178 1.391 . S
C1180 H1170 0.950 . S
C1180 C1181 1.386 . S
C1180 C1182 1.391 . S
C1181 C1180 1.386 . S
C1181 C1185 1.393 . S
C1182 H1171 0.950 . S
C1182 C1180 1.391 . S
C1182 C1183 1.400 . S
C1183 C1177 1.491 . S
C1183 C1182 1.400 . S
C1183 C1184 1.398 . S
C1184 H1172 0.950 . S
C1184 C1183 1.398 . S
C1184 C1185 1.391 . S
C1185 H1173 0.950 . S
C1185 C1181 1.393 . S
C1185 C1184 1.391 . S
H1186 C1194 0.950 . S
H1187 C1199 0.950 . S
H1188 C1196 0.950 . S
H1189 C1198 0.950 . S
H1190 C1200 0.950 . S
H1191 C1202 0.950 . S
H1192 C1204 0.950 . S
H1193 C1205 0.950 . S
C1194 H1186 0.950 . S
C1194 C1195 1.386 . S
C1194 C1196 1.391 . S
C1195 C1194 1.386 . S
C1195 C1199 1.393 . S
C1196 H1188 0.950 . S
C1196 C1194 1.391 . S
C1196 C1197 1.400 . S
C1197 C1196 1.400 . S
C1197 C1198 1.398 . S
C1197 C1203 1.491 . S
C1198 H1189 0.950 . S
C1198 C1197 1.398 . S
C1198 C1199 1.391 . S
C1199 H1187 0.950 . S
C1199 C1195 1.393 . S
C1199 C1198 1.391 . S
C1200 H1190 0.950 . S
C1200 C1201 1.386 . S
C1200 C1202 1.391 . S
C1201 C1200 1.386 . S
C1201 C1205 1.393 . S
C1202 H1191 0.950 . S
C1202 C1200 1.391 . S
C1202 C1203 1.400 . S
C1203 C1197 1.491 . S
C1203 C1202 1.400 . S
C1203 C1204 1.398 . S
C1204 H1192 0.950 . S
C1204 C1203 1.398 . S
C1204 C1205 1.391 . S
C1205 H1193 0.950 . S
C1205 C1201 1.393 . S
C1205 C1204 1.391 . S
H1206 C1214 0.950 . S
H1207 C1219 0.950 . S
H1208 C1216 0.950 . S
H1209 C1218 0.950 . S
H1210 C1220 0.950 . S
H1211 C1222 0.950 . S
H1212 C1224 0.950 . S
H1213 C1225 0.950 . S
C1214 H1206 0.950 . S
C1214 C1215 1.386 . S
C1214 C1216 1.391 . S
C1215 C1214 1.386 . S
C1215 C1219 1.393 . S
C1216 H1208 0.950 . S
C1216 C1214 1.391 . S
C1216 C1217 1.400 . S
C1217 C1216 1.400 . S
C1217 C1218 1.398 . S
C1217 C1223 1.491 . S
C1218 H1209 0.950 . S
C1218 C1217 1.398 . S
C1218 C1219 1.391 . S
C1219 H1207 0.950 . S
C1219 C1215 1.393 . S
C1219 C1218 1.391 . S
C1220 H1210 0.950 . S
C1220 C1221 1.386 . S
C1220 C1222 1.391 . S
C1221 C1220 1.386 . S
C1221 C1225 1.393 . S
C1222 H1211 0.950 . S
C1222 C1220 1.391 . S
C1222 C1223 1.400 . S
C1223 C1217 1.491 . S
C1223 C1222 1.400 . S
C1223 C1224 1.398 . S
C1224 H1212 0.950 . S
C1224 C1223 1.398 . S
C1224 C1225 1.391 . S
C1225 H1213 0.950 . S
C1225 C1221 1.393 . S
C1225 C1224 1.391 . S
H1226 C1234 0.950 . S
H1227 C1239 0.950 . S
H1228 C1236 0.950 . S
H1229 C1238 0.950 . S
H1230 C1240 0.950 . S
H1231 C1242 0.950 . S
H1232 C1244 0.950 . S
H1233 C1245 0.950 . S
C1234 H1226 0.950 . S
C1234 C1235 1.386 . S
C1234 C1236 1.391 . S
C1235 C1234 1.386 . S
C1235 C1239 1.393 . S
C1236 H1228 0.950 . S
C1236 C1234 1.391 . S
C1236 C1237 1.400 . S
C1237 C1236 1.400 . S
C1237 C1238 1.398 . S
C1237 C1243 1.491 . S
C1238 H1229 0.950 . S
C1238 C1237 1.398 . S
C1238 C1239 1.391 . S
C1239 H1227 0.950 . S
C1239 C1235 1.393 . S
C1239 C1238 1.391 . S
C1240 H1230 0.950 . S
C1240 C1241 1.386 . S
C1240 C1242 1.391 . S
C1241 C1240 1.386 . S
C1241 C1245 1.393 . S
C1242 H1231 0.950 . S
C1242 C1240 1.391 . S
C1242 C1243 1.400 . S
C1243 C1237 1.491 . S
C1243 C1242 1.400 . S
C1243 C1244 1.398 . S
C1244 H1232 0.950 . S
C1244 C1243 1.398 . S
C1244 C1245 1.391 . S
C1245 H1233 0.950 . S
C1245 C1241 1.393 . S
C1245 C1244 1.391 . S
H1246 C1254 0.950 . S
H1247 C1259 0.950 . S
H1248 C1256 0.950 . S
H1249 C1258 0.950 . S
H1250 C1260 0.950 . S
H1251 C1262 0.950 . S
H1252 C1264 0.950 . S
H1253 C1265 0.950 1_455 S
C1254 H1246 0.950 . S
C1254 C1255 1.386 . S
C1254 C1256 1.391 . S
C1255 C1254 1.386 . S
C1255 C1259 1.393 . S
C1256 H1248 0.950 . S
C1256 C1254 1.391 . S
C1256 C1257 1.400 . S
C1257 C1256 1.400 . S
C1257 C1258 1.398 . S
C1257 C1263 1.491 . S
C1258 H1249 0.950 . S
C1258 C1257 1.398 . S
C1258 C1259 1.391 . S
C1259 H1247 0.950 . S
C1259 C1255 1.393 . S
C1259 C1258 1.391 . S
C1260 H1250 0.950 . S
C1260 C1261 1.386 . S
C1260 C1262 1.391 . S
C1261 C1260 1.386 . S
C1261 C1265 1.393 . S
C1262 H1251 0.950 . S
C1262 C1260 1.391 . S
C1262 C1263 1.400 . S
C1263 C1257 1.491 . S
C1263 C1262 1.400 . S
C1263 C1264 1.398 . S
C1264 H1252 0.950 . S
C1264 C1263 1.398 . S
C1264 C1265 1.391 . S
C1265 H1253 0.950 1_655 S
C1265 C1261 1.393 . S
C1265 C1264 1.391 . S
H1266 C1274 0.950 . S
H1267 C1279 0.950 . S
H1268 C1276 0.950 . S
H1269 C1278 0.950 . S
H1270 C1280 0.950 . S
H1271 C1282 0.950 . S
H1272 C1284 0.950 . S
H1273 C1285 0.950 . S
C1274 H1266 0.950 . S
C1274 C1275 1.386 . S
C1274 C1276 1.391 . S
C1275 C1274 1.386 . S
C1275 C1279 1.393 . S
C1276 H1268 0.950 . S
C1276 C1274 1.391 . S
C1276 C1277 1.400 . S
C1277 C1276 1.400 . S
C1277 C1278 1.398 . S
C1277 C1283 1.491 . S
C1278 H1269 0.950 . S
C1278 C1277 1.398 . S
C1278 C1279 1.391 . S
C1279 H1267 0.950 . S
C1279 C1275 1.393 . S
C1279 C1278 1.391 . S
C1280 H1270 0.950 . S
C1280 C1281 1.386 . S
C1280 C1282 1.391 . S
C1281 C1280 1.386 . S
C1281 C1285 1.393 . S
C1282 H1271 0.950 . S
C1282 C1280 1.391 . S
C1282 C1283 1.400 . S
C1283 C1277 1.491 . S
C1283 C1282 1.400 . S
C1283 C1284 1.398 . S
C1284 H1272 0.950 . S
C1284 C1283 1.398 . S
C1284 C1285 1.391 . S
C1285 H1273 0.950 . S
C1285 C1281 1.393 . S
C1285 C1284 1.391 . S
H1286 C1294 0.950 . S
H1287 C1299 0.950 . S
H1288 C1296 0.950 . S
H1289 C1298 0.950 . S
H1290 C1300 0.950 . S
H1291 C1302 0.950 . S
H1292 C1304 0.950 . S
H1293 C1305 0.950 . S
C1294 H1286 0.950 . S
C1294 C1295 1.386 . S
C1294 C1296 1.391 . S
C1295 C1294 1.386 . S
C1295 C1299 1.393 . S
C1296 H1288 0.950 . S
C1296 C1294 1.391 . S
C1296 C1297 1.400 . S
C1297 C1296 1.400 . S
C1297 C1298 1.398 . S
C1297 C1303 1.491 . S
C1298 H1289 0.950 . S
C1298 C1297 1.398 . S
C1298 C1299 1.391 . S
C1299 H1287 0.950 . S
C1299 C1295 1.393 . S
C1299 C1298 1.391 . S
C1300 H1290 0.950 . S
C1300 C1301 1.386 . S
C1300 C1302 1.391 . S
C1301 C1300 1.386 . S
C1301 C1305 1.393 . S
C1302 H1291 0.950 . S
C1302 C1300 1.391 . S
C1302 C1303 1.400 . S
C1303 C1297 1.491 . S
C1303 C1302 1.400 . S
C1303 C1304 1.398 . S
C1304 H1292 0.950 . S
C1304 C1303 1.398 . S
C1304 C1305 1.391 . S
C1305 H1293 0.950 . S
C1305 C1301 1.393 . S
C1305 C1304 1.391 . S
H1306 C1314 0.950 . S
H1307 C1319 0.950 . S
H1308 C1316 0.950 . S
H1309 C1318 0.950 . S
H1310 C1320 0.956 . S
H1311 C1322 0.950 . S
H1312 C1324 0.950 . S
H1313 C1325 0.950 . S
C1314 H1306 0.950 . S
C1314 C1315 1.386 . S
C1314 C1316 1.391 . S
C1315 C1314 1.386 . S
C1315 C1319 1.393 . S
C1316 H1308 0.950 . S
C1316 C1314 1.391 . S
C1316 C1317 1.400 . S
C1317 C1316 1.400 . S
C1317 C1318 1.398 . S
C1317 C1323 1.491 . S
C1318 H1309 0.950 . S
C1318 C1317 1.398 . S
C1318 C1319 1.391 . S
C1319 H1307 0.950 . S
C1319 C1315 1.393 . S
C1319 C1318 1.391 . S
C1320 H1310 0.956 . S
C1320 C1321 1.416 . S
C1320 C1322 1.355 1_455 S
C1321 C1320 1.416 . S
C1321 C1325 1.393 . S
C1322 H1311 0.950 . S
C1322 C1320 1.355 1_655 S
C1322 C1323 1.400 . S
C1323 C1317 1.491 . S
C1323 C1322 1.400 . S
C1323 C1324 1.398 . S
C1324 H1312 0.950 . S
C1324 C1323 1.398 . S
C1324 C1325 1.391 1_655 S
C1325 H1313 0.950 . S
C1325 C1321 1.393 . S
C1325 C1324 1.391 1_455 S
H1326 C1334 0.950 . S
H1327 C1339 0.950 . S
H1328 C1336 0.950 . S
H1329 C1338 0.950 . S
H1330 C1340 0.950 . S
H1331 C1342 0.950 . S
H1332 C1344 0.950 . S
H1333 C1345 0.950 . S
C1334 H1326 0.950 . S
C1334 C1335 1.386 . S
C1334 C1336 1.391 . S
C1335 C1334 1.386 . S
C1335 C1339 1.393 . S
C1336 H1328 0.950 . S
C1336 C1334 1.391 . S
C1336 C1337 1.400 . S
C1337 C1336 1.400 . S
C1337 C1338 1.398 . S
C1337 C1343 1.491 . S
C1338 H1329 0.950 . S
C1338 C1337 1.398 . S
C1338 C1339 1.391 . S
C1339 H1327 0.950 . S
C1339 C1335 1.393 . S
C1339 C1338 1.391 . S
C1340 H1330 0.950 . S
C1340 C1341 1.386 . S
C1340 C1342 1.391 . S
C1341 C1340 1.386 . S
C1341 C1345 1.393 . S
C1342 H1331 0.950 . S
C1342 C1340 1.391 . S
C1342 C1343 1.400 . S
C1343 C1337 1.491 . S
C1343 C1342 1.400 . S
C1343 C1344 1.398 . S
C1344 H1332 0.950 . S
C1344 C1343 1.398 . S
C1344 C1345 1.391 . S
C1345 H1333 0.950 . S
C1345 C1341 1.393 . S
C1345 C1344 1.391 . S
H1346 C1354 0.950 . S
H1347 C1359 0.950 . S
H1348 C1356 0.950 . S
H1349 C1358 0.950 . S
H1350 C1360 0.950 . S
H1351 C1362 0.950 . S
H1352 C1364 0.950 . S
H1353 C1365 0.950 . S
C1354 H1346 0.950 . S
C1354 C1355 1.386 . S
C1354 C1356 1.391 . S
C1355 C1354 1.386 . S
C1355 C1359 1.393 . S
C1356 H1348 0.950 . S
C1356 C1354 1.391 . S
C1356 C1357 1.400 . S
C1357 C1356 1.400 . S
C1357 C1358 1.398 . S
C1357 C1363 1.491 . S
C1358 H1349 0.950 . S
C1358 C1357 1.398 . S
C1358 C1359 1.391 . S
C1359 H1347 0.950 . S
C1359 C1355 1.393 . S
C1359 C1358 1.391 . S
C1360 H1350 0.950 . S
C1360 C1361 1.386 . S
C1360 C1362 1.391 . S
C1361 C1360 1.386 . S
C1361 C1365 1.393 . S
C1362 H1351 0.950 . S
C1362 C1360 1.391 . S
C1362 C1363 1.400 . S
C1363 C1357 1.491 . S
C1363 C1362 1.400 . S
C1363 C1364 1.398 . S
C1364 H1352 0.950 . S
C1364 C1363 1.398 . S
C1364 C1365 1.391 . S
C1365 H1353 0.950 . S
C1365 C1361 1.393 . S
C1365 C1364 1.391 . S
H1366 C1374 0.950 . S
H1367 C1379 0.950 . S
H1368 C1376 0.950 . S
H1369 C1378 0.950 . S
H1370 C1380 0.950 . S
H1371 C1382 0.950 . S
H1372 C1384 0.950 . S
H1373 C1385 0.950 . S
C1374 H1366 0.950 . S
C1374 C1375 1.386 . S
C1374 C1376 1.391 . S
C1375 C1374 1.386 . S
C1375 C1379 1.393 . S
C1376 H1368 0.950 . S
C1376 C1374 1.391 . S
C1376 C1377 1.400 . S
C1377 C1376 1.400 . S
C1377 C1378 1.398 . S
C1377 C1383 1.491 . S
C1378 H1369 0.950 . S
C1378 C1377 1.398 . S
C1378 C1379 1.391 . S
C1379 H1367 0.950 . S
C1379 C1375 1.393 . S
C1379 C1378 1.391 . S
C1380 H1370 0.950 . S
C1380 C1381 1.386 . S
C1380 C1382 1.391 . S
C1381 C1380 1.386 . S
C1381 C1385 1.393 . S
C1382 H1371 0.950 . S
C1382 C1380 1.391 . S
C1382 C1383 1.400 . S
C1383 C1377 1.491 . S
C1383 C1382 1.400 . S
C1383 C1384 1.398 . S
C1384 H1372 0.950 . S
C1384 C1383 1.398 . S
C1384 C1385 1.391 . S
C1385 H1373 0.950 . S
C1385 C1381 1.393 . S
C1385 C1384 1.391 . S
H1386 C1394 0.950 . S
H1387 C1399 0.950 . S
H1388 C1396 0.950 . S
H1389 C1398 0.950 . S
H1390 C1400 0.950 . S
H1391 C1402 0.950 . S
H1392 C1404 0.950 . S
H1393 C1405 0.950 . S
C1394 H1386 0.950 . S
C1394 C1395 1.386 . S
C1394 C1396 1.391 . S
C1395 C1394 1.386 . S
C1395 C1399 1.393 . S
C1396 H1388 0.950 . S
C1396 C1394 1.391 . S
C1396 C1397 1.400 . S
C1397 C1396 1.400 . S
C1397 C1398 1.398 . S
C1397 C1403 1.491 . S
C1398 H1389 0.950 . S
C1398 C1397 1.398 . S
C1398 C1399 1.391 . S
C1399 H1387 0.950 . S
C1399 C1395 1.393 . S
C1399 C1398 1.391 . S
C1400 H1390 0.950 . S
C1400 C1401 1.386 . S
C1400 C1402 1.391 . S
C1401 C1400 1.386 . S
C1401 C1405 1.393 . S
C1402 H1391 0.950 . S
C1402 C1400 1.391 . S
C1402 C1403 1.400 . S
C1403 C1397 1.491 . S
C1403 C1402 1.400 . S
C1403 C1404 1.398 . S
C1404 H1392 0.950 . S
C1404 C1403 1.398 . S
C1404 C1405 1.391 . S
C1405 H1393 0.950 . S
C1405 C1401 1.393 . S
C1405 C1404 1.391 . S
H1406 C1414 0.950 . S
H1407 C1419 0.950 . S
H1408 C1416 0.950 . S
H1409 C1418 0.950 . S
H1410 C1420 0.950 . S
H1411 C1422 0.950 . S
H1412 C1424 0.950 . S
H1413 C1425 0.950 . S
C1414 H1406 0.950 . S
C1414 C1415 1.386 . S
C1414 C1416 1.391 . S
C1415 C1414 1.386 . S
C1415 C1419 1.393 . S
C1416 H1408 0.950 . S
C1416 C1414 1.391 . S
C1416 C1417 1.400 . S
C1417 C1416 1.400 . S
C1417 C1418 1.398 . S
C1417 C1423 1.491 . S
C1418 H1409 0.950 . S
C1418 C1417 1.398 . S
C1418 C1419 1.391 . S
C1419 H1407 0.950 . S
C1419 C1415 1.393 . S
C1419 C1418 1.391 . S
C1420 H1410 0.950 . S
C1420 C1421 1.386 . S
C1420 C1422 1.391 . S
C1421 C1420 1.386 . S
C1421 C1425 1.393 . S
C1422 H1411 0.950 . S
C1422 C1420 1.391 . S
C1422 C1423 1.400 . S
C1423 C1417 1.491 . S
C1423 C1422 1.400 . S
C1423 C1424 1.398 . S
C1424 H1412 0.950 . S
C1424 C1423 1.398 . S
C1424 C1425 1.391 . S
C1425 H1413 0.950 . S
C1425 C1421 1.393 . S
C1425 C1424 1.391 . S
H1426 C1434 1.019 . S
H1427 C1439 0.950 . S
H1428 C1436 0.950 . S
H1429 C1438 0.950 . S
H1430 C1440 0.950 . S
H1431 C1442 0.950 . S
H1432 C1444 0.950 . S
H1433 C1445 0.950 . S
C1434 H1426 1.019 . S
C1434 C1435 1.386 . S
C1434 C1436 1.391 . S
C1435 C1434 1.386 . S
C1435 C1439 1.393 . S
C1436 H1428 0.950 . S
C1436 C1434 1.391 . S
C1436 C1437 1.400 . S
C1437 C1436 1.400 . S
C1437 C1438 1.398 . S
C1437 C1443 1.491 . S
C1438 H1429 0.950 . S
C1438 C1437 1.398 . S
C1438 C1439 1.391 . S
C1439 H1427 0.950 . S
C1439 C1435 1.393 . S
C1439 C1438 1.391 . S
C1440 H1430 0.950 . S
C1440 C1441 1.386 . S
C1440 C1442 1.391 . S
C1441 C1440 1.386 . S
C1441 C1445 1.393 . S
C1442 H1431 0.950 . S
C1442 C1440 1.391 . S
C1442 C1443 1.400 . S
C1443 C1437 1.491 . S
C1443 C1442 1.400 . S
C1443 C1444 1.398 . S
C1444 H1432 0.950 . S
C1444 C1443 1.398 . S
C1444 C1445 1.391 . S
C1445 H1433 0.950 . S
C1445 C1441 1.393 . S
C1445 C1444 1.391 . S
H1446 C1454 0.950 . S
H1447 C1459 0.950 . S
H1448 C1456 0.950 . S
H1449 C1458 0.966 . S
H1450 C1460 0.950 1_565 S
H1451 C1462 0.950 1_565 S
H1452 C1464 0.950 . S
H1453 C1465 0.950 . S
C1454 H1446 0.950 . S
C1454 C1455 1.386 . S
C1454 C1456 1.391 . S
C1455 C1454 1.386 . S
C1455 C1459 1.393 . S
C1456 H1448 0.950 . S
C1456 C1454 1.391 . S
C1456 C1457 1.400 . S
C1457 C1456 1.400 . S
C1457 C1458 1.398 . S
C1457 C1463 1.491 . S
C1458 H1449 0.966 . S
C1458 C1457 1.398 . S
C1458 C1459 1.391 . S
C1459 H1447 0.950 . S
C1459 C1455 1.393 . S
C1459 C1458 1.391 . S
C1460 H1450 0.950 1_545 S
C1460 C1461 1.386 . S
C1460 C1462 1.391 . S
C1461 C1460 1.386 . S
C1461 C1465 1.393 . S
C1462 H1451 0.950 1_545 S
C1462 C1460 1.391 . S
C1462 C1463 1.400 . S
C1463 C1457 1.491 . S
C1463 C1462 1.400 . S
C1463 C1464 1.398 . S
C1464 H1452 0.950 . S
C1464 C1463 1.398 . S
C1464 C1465 1.391 . S
C1465 H1453 0.950 . S
C1465 C1461 1.393 . S
C1465 C1464 1.391 . S
H1466 C1474 0.950 . S
H1467 C1479 0.950 . S
H1468 C1476 0.950 . S
H1469 C1478 0.950 . S
H1470 C1480 0.950 . S
H1471 C1482 0.950 . S
H1472 C1484 0.950 . S
H1473 C1485 0.950 . S
C1474 H1466 0.950 . S
C1474 C1475 1.386 . S
C1474 C1476 1.391 . S
C1475 C1474 1.386 . S
C1475 C1479 1.393 . S
C1476 H1468 0.950 . S
C1476 C1474 1.391 . S
C1476 C1477 1.400 . S
C1477 C1476 1.400 . S
C1477 C1478 1.398 . S
C1477 C1483 1.491 . S
C1478 H1469 0.950 . S
C1478 C1477 1.398 . S
C1478 C1479 1.391 . S
C1479 H1467 0.950 . S
C1479 C1475 1.393 . S
C1479 C1478 1.391 . S
C1480 H1470 0.950 . S
C1480 C1481 1.386 . S
C1480 C1482 1.391 . S
C1481 C1480 1.386 . S
C1481 C1485 1.393 . S
C1482 H1471 0.950 . S
C1482 C1480 1.391 . S
C1482 C1483 1.400 . S
C1483 C1477 1.491 . S
C1483 C1482 1.400 . S
C1483 C1484 1.398 . S
C1484 H1472 0.950 . S
C1484 C1483 1.398 . S
C1484 C1485 1.391 . S
C1485 H1473 0.950 . S
C1485 C1481 1.393 . S
C1485 C1484 1.391 . S
H1486 C1494 0.950 . S
H1487 C1499 0.950 . S
H1488 C1496 0.950 . S
H1489 C1498 0.950 . S
H1490 C1500 0.950 . S
H1491 C1502 0.950 . S
H1492 C1504 0.950 . S
H1493 C1505 0.950 . S
C1494 H1486 0.950 . S
C1494 C1495 1.386 . S
C1494 C1496 1.391 . S
C1495 C1494 1.386 . S
C1495 C1499 1.393 . S
C1496 H1488 0.950 . S
C1496 C1494 1.391 . S
C1496 C1497 1.400 . S
C1497 C1496 1.400 . S
C1497 C1498 1.398 . S
C1497 C1503 1.491 . S
C1498 H1489 0.950 . S
C1498 C1497 1.398 . S
C1498 C1499 1.391 . S
C1499 H1487 0.950 . S
C1499 C1495 1.393 . S
C1499 C1498 1.391 . S
C1500 H1490 0.950 . S
C1500 C1501 1.386 . S
C1500 C1502 1.391 . S
C1501 C1500 1.386 . S
C1501 C1505 1.393 . S
C1502 H1491 0.950 . S
C1502 C1500 1.391 . S
C1502 C1503 1.400 . S
C1503 C1497 1.491 . S
C1503 C1502 1.400 . S
C1503 C1504 1.398 . S
C1504 H1492 0.950 . S
C1504 C1503 1.398 . S
C1504 C1505 1.391 . S
C1505 H1493 0.950 . S
C1505 C1501 1.393 . S
C1505 C1504 1.391 . S
H1506 C1514 0.950 . S
H1507 C1519 0.950 . S
H1508 C1516 0.950 . S
H1509 C1518 0.950 . S
H1510 C1520 0.950 . S
H1511 C1522 0.950 . S
H1512 C1524 0.950 . S
H1513 C1525 0.950 . S
C1514 H1506 0.950 . S
C1514 C1515 1.386 . S
C1514 C1516 1.391 . S
C1515 C1514 1.386 . S
C1515 C1519 1.393 . S
C1516 H1508 0.950 . S
C1516 C1514 1.391 . S
C1516 C1517 1.400 . S
C1517 C1516 1.400 . S
C1517 C1518 1.398 . S
C1517 C1523 1.491 . S
C1518 H1509 0.950 . S
C1518 C1517 1.398 . S
C1518 C1519 1.391 . S
C1519 H1507 0.950 . S
C1519 C1515 1.393 . S
C1519 C1518 1.391 . S
C1520 H1510 0.950 . S
C1520 C1521 1.386 . S
C1520 C1522 1.391 . S
C1521 C1520 1.386 . S
C1521 C1525 1.393 . S
C1522 H1511 0.950 . S
C1522 C1520 1.391 . S
C1522 C1523 1.400 . S
C1523 C1517 1.491 . S
C1523 C1522 1.400 . S
C1523 C1524 1.398 . S
C1524 H1512 0.950 . S
C1524 C1523 1.398 . S
C1524 C1525 1.391 . S
C1525 H1513 0.950 . S
C1525 C1521 1.393 . S
C1525 C1524 1.391 . S
H1526 C1534 0.950 . S
H1527 C1539 0.950 . S
H1528 C1536 0.950 . S
H1529 C1538 0.950 . S
H1530 C1540 0.950 . S
H1531 C1542 0.950 . S
H1532 C1544 0.950 . S
H1533 C1545 0.950 . S
C1534 H1526 0.950 . S
C1534 C1535 1.386 . S
C1534 C1536 1.391 . S
C1535 C1534 1.386 . S
C1535 C1539 1.393 . S
C1536 H1528 0.950 . S
C1536 C1534 1.391 . S
C1536 C1537 1.400 . S
C1537 C1536 1.400 . S
C1537 C1538 1.398 . S
C1537 C1543 1.491 . S
C1538 H1529 0.950 . S
C1538 C1537 1.398 . S
C1538 C1539 1.391 . S
C1539 H1527 0.950 . S
C1539 C1535 1.393 . S
C1539 C1538 1.391 . S
C1540 H1530 0.950 . S
C1540 C1541 1.386 . S
C1540 C1542 1.391 . S
C1541 C1540 1.386 . S
C1541 C1545 1.393 . S
C1542 H1531 0.950 . S
C1542 C1540 1.391 . S
C1542 C1543 1.400 . S
C1543 C1537 1.491 . S
C1543 C1542 1.400 . S
C1543 C1544 1.398 . S
C1544 H1532 0.950 . S
C1544 C1543 1.398 . S
C1544 C1545 1.391 . S
C1545 H1533 0.950 . S
C1545 C1541 1.393 . S
C1545 C1544 1.391 . S
H1546 C1554 0.950 . S
H1547 C1559 0.950 . S
H1548 C1556 0.950 . S
H1549 C1558 0.950 . S
H1550 C1560 0.950 . S
H1551 C1562 0.950 . S
H1552 C1564 0.950 . S
H1553 C1565 0.950 . S
C1554 H1546 0.950 . S
C1554 C1555 1.386 . S
C1554 C1556 1.391 . S
C1555 C1554 1.386 . S
C1555 C1559 1.393 . S
C1556 H1548 0.950 . S
C1556 C1554 1.391 . S
C1556 C1557 1.400 . S
C1557 C1556 1.400 . S
C1557 C1558 1.398 . S
C1557 C1563 1.491 . S
C1558 H1549 0.950 . S
C1558 C1557 1.398 . S
C1558 C1559 1.391 . S
C1559 H1547 0.950 . S
C1559 C1555 1.393 . S
C1559 C1558 1.391 . S
C1560 H1550 0.950 . S
C1560 C1561 1.386 . S
C1560 C1562 1.391 . S
C1561 C1560 1.386 . S
C1561 C1565 1.393 . S
C1562 H1551 0.950 . S
C1562 C1560 1.391 . S
C1562 C1563 1.400 . S
C1563 C1557 1.491 . S
C1563 C1562 1.400 . S
C1563 C1564 1.398 . S
C1564 H1552 0.950 . S
C1564 C1563 1.398 . S
C1564 C1565 1.391 . S
C1565 H1553 0.950 . S
C1565 C1561 1.393 . S
C1565 C1564 1.391 . S
H1566 C1574 0.950 . S
H1567 C1579 0.950 . S
H1568 C1576 0.950 . S
H1569 C1578 0.950 . S
H1570 C1580 0.950 . S
H1571 C1582 0.950 . S
H1572 C1584 0.950 . S
H1573 C1585 0.950 . S
C1574 H1566 0.950 . S
C1574 C1575 1.386 . S
C1574 C1576 1.391 . S
C1575 C1574 1.386 . S
C1575 C1579 1.393 . S
C1576 H1568 0.950 . S
C1576 C1574 1.391 . S
C1576 C1577 1.400 . S
C1577 C1576 1.400 . S
C1577 C1578 1.398 . S
C1577 C1583 1.491 . S
C1578 H1569 0.950 . S
C1578 C1577 1.398 . S
C1578 C1579 1.391 . S
C1579 H1567 0.950 . S
C1579 C1575 1.393 . S
C1579 C1578 1.391 . S
C1580 H1570 0.950 . S
C1580 C1581 1.386 . S
C1580 C1582 1.391 . S
C1581 C1580 1.386 . S
C1581 C1585 1.393 . S
C1582 H1571 0.950 . S
C1582 C1580 1.391 . S
C1582 C1583 1.400 . S
C1583 C1577 1.491 . S
C1583 C1582 1.400 . S
C1583 C1584 1.398 . S
C1584 H1572 0.950 . S
C1584 C1583 1.398 . S
C1584 C1585 1.391 . S
C1585 H1573 0.950 . S
C1585 C1581 1.393 . S
C1585 C1584 1.391 . S
H1586 C1594 0.950 . S
H1587 C1599 0.950 . S
H1588 C1596 0.950 . S
H1589 C1598 0.950 . S
H1590 C1600 0.950 1_655 S
H1591 C1602 0.950 . S
H1592 C1604 0.950 . S
H1593 C1605 0.950 . S
C1594 H1586 0.950 . S
C1594 C1595 1.386 . S
C1594 C1596 1.391 . S
C1595 C1594 1.386 . S
C1595 C1599 1.393 . S
C1596 H1588 0.950 . S
C1596 C1594 1.391 . S
C1596 C1597 1.400 . S
C1597 C1596 1.400 . S
C1597 C1598 1.398 . S
C1597 C1603 1.491 . S
C1598 H1589 0.950 . S
C1598 C1597 1.398 . S
C1598 C1599 1.391 . S
C1599 H1587 0.950 . S
C1599 C1595 1.393 . S
C1599 C1598 1.391 . S
C1600 H1590 0.950 1_455 S
C1600 C1601 1.386 . S
C1600 C1602 1.391 . S
C1601 C1600 1.386 . S
C1601 C1605 1.393 . S
C1602 H1591 0.950 . S
C1602 C1600 1.391 . S
C1602 C1603 1.400 . S
C1603 C1597 1.491 . S
C1603 C1602 1.400 . S
C1603 C1604 1.398 . S
C1604 H1592 0.950 . S
C1604 C1603 1.398 . S
C1604 C1605 1.391 . S
C1605 H1593 0.950 . S
C1605 C1601 1.393 . S
C1605 C1604 1.391 . S
H1606 C1614 0.950 . S
H1607 C1619 0.950 . S
H1608 C1616 0.950 . S
H1609 C1618 0.950 . S
H1610 C1620 0.950 . S
H1611 C1622 0.950 . S
H1612 C1624 0.950 . S
H1613 C1625 0.950 . S
C1614 H1606 0.950 . S
C1614 C1615 1.386 . S
C1614 C1616 1.391 . S
C1615 C1614 1.386 . S
C1615 C1619 1.393 . S
C1616 H1608 0.950 . S
C1616 C1614 1.391 . S
C1616 C1617 1.400 . S
C1617 C1616 1.400 . S
C1617 C1618 1.398 . S
C1617 C1623 1.491 . S
C1618 H1609 0.950 . S
C1618 C1617 1.398 . S
C1618 C1619 1.391 . S
C1619 H1607 0.950 . S
C1619 C1615 1.393 . S
C1619 C1618 1.391 . S
C1620 H1610 0.950 . S
C1620 C1621 1.386 . S
C1620 C1622 1.391 . S
C1621 C1620 1.386 . S
C1621 C1625 1.393 . S
C1622 H1611 0.950 . S
C1622 C1620 1.391 . S
C1622 C1623 1.400 . S
C1623 C1617 1.491 . S
C1623 C1622 1.400 . S
C1623 C1624 1.398 . S
C1624 H1612 0.950 . S
C1624 C1623 1.398 . S
C1624 C1625 1.391 . S
C1625 H1613 0.950 . S
C1625 C1621 1.393 . S
C1625 C1624 1.391 . S
H1626 C1634 0.950 . S
H1627 C1639 0.950 . S
H1628 C1636 0.950 . S
H1629 C1638 0.950 . S
H1630 C1640 0.950 . S
H1631 C1642 0.950 . S
H1632 C1644 0.950 . S
H1633 C1645 0.950 . S
C1634 H1626 0.950 . S
C1634 C1635 1.386 . S
C1634 C1636 1.391 . S
C1635 C1634 1.386 . S
C1635 C1639 1.393 . S
C1636 H1628 0.950 . S
C1636 C1634 1.391 . S
C1636 C1637 1.400 . S
C1637 C1636 1.400 . S
C1637 C1638 1.398 . S
C1637 C1643 1.491 . S
C1638 H1629 0.950 . S
C1638 C1637 1.398 . S
C1638 C1639 1.391 . S
C1639 H1627 0.950 . S
C1639 C1635 1.393 . S
C1639 C1638 1.391 . S
C1640 H1630 0.950 . S
C1640 C1641 1.386 . S
C1640 C1642 1.391 . S
C1641 C1640 1.386 . S
C1641 C1645 1.393 . S
C1642 H1631 0.950 . S
C1642 C1640 1.391 . S
C1642 C1643 1.400 . S
C1643 C1637 1.491 . S
C1643 C1642 1.400 . S
C1643 C1644 1.398 . S
C1644 H1632 0.950 . S
C1644 C1643 1.398 . S
C1644 C1645 1.391 . S
C1645 H1633 0.950 . S
C1645 C1641 1.393 . S
C1645 C1644 1.391 . S
H1646 C1654 0.950 . S
H1647 C1659 0.950 . S
H1648 C1656 0.950 . S
H1649 C1658 0.950 . S
H1650 C1660 0.950 . S
H1651 C1662 0.950 . S
H1652 C1664 0.950 . S
H1653 C1665 0.950 . S
C1654 H1646 0.950 . S
C1654 C1655 1.386 . S
C1654 C1656 1.391 . S
C1655 C1654 1.386 . S
C1655 C1659 1.393 . S
C1656 H1648 0.950 . S
C1656 C1654 1.391 . S
C1656 C1657 1.400 . S
C1657 C1656 1.400 . S
C1657 C1658 1.398 . S
C1657 C1663 1.491 . S
C1658 H1649 0.950 . S
C1658 C1657 1.398 . S
C1658 C1659 1.391 . S
C1659 H1647 0.950 . S
C1659 C1655 1.393 . S
C1659 C1658 1.391 . S
C1660 H1650 0.950 . S
C1660 C1661 1.386 . S
C1660 C1662 1.391 . S
C1661 C1660 1.386 . S
C1661 C1665 1.393 . S
C1662 H1651 0.950 . S
C1662 C1660 1.391 . S
C1662 C1663 1.400 . S
C1663 C1657 1.491 . S
C1663 C1662 1.400 . S
C1663 C1664 1.398 . S
C1664 H1652 0.950 . S
C1664 C1663 1.398 . S
C1664 C1665 1.391 . S
C1665 H1653 0.950 . S
C1665 C1661 1.393 . S
C1665 C1664 1.391 . S
H1666 C1674 0.950 . S
H1667 C1679 0.950 . S
H1668 C1676 0.950 . S
H1669 C1678 0.950 . S
H1670 C1680 0.950 . S
H1671 C1682 0.950 . S
H1672 C1684 0.950 . S
H1673 C1685 0.950 . S
C1674 H1666 0.950 . S
C1674 C1675 1.386 . S
C1674 C1676 1.391 . S
C1675 C1674 1.386 . S
C1675 C1679 1.393 . S
C1676 H1668 0.950 . S
C1676 C1674 1.391 . S
C1676 C1677 1.400 . S
C1677 C1676 1.400 . S
C1677 C1678 1.398 . S
C1677 C1683 1.491 . S
C1678 H1669 0.950 . S
C1678 C1677 1.398 . S
C1678 C1679 1.391 . S
C1679 H1667 0.950 . S
C1679 C1675 1.393 . S
C1679 C1678 1.391 . S
C1680 H1670 0.950 . S
C1680 C1681 1.386 . S
C1680 C1682 1.391 . S
C1681 C1680 1.386 . S
C1681 C1685 1.393 . S
C1682 H1671 0.950 . S
C1682 C1680 1.391 . S
C1682 C1683 1.400 . S
C1683 C1677 1.491 . S
C1683 C1682 1.400 . S
C1683 C1684 1.398 . S
C1684 H1672 0.950 . S
C1684 C1683 1.398 . S
C1684 C1685 1.391 . S
C1685 H1673 0.950 . S
C1685 C1681 1.393 . S
C1685 C1684 1.391 . S
H1686 C1694 0.950 . S
H1687 C1699 0.950 . S
H1688 C1696 0.950 . S
H1689 C1698 0.950 . S
H1690 C1700 0.950 . S
H1691 C1702 0.950 . S
H1692 C1704 0.926 1_556 S
H1693 C1705 0.950 . S
C1694 H1686 0.950 . S
C1694 C1695 1.386 . S
C1694 C1696 1.391 . S
C1695 C1694 1.386 . S
C1695 C1699 1.393 . S
C1696 H1688 0.950 . S
C1696 C1694 1.391 . S
C1696 C1697 1.400 . S
C1697 C1696 1.400 . S
C1697 C1698 1.398 . S
C1697 C1703 1.491 . S
C1698 H1689 0.950 . S
C1698 C1697 1.398 . S
C1698 C1699 1.391 . S
C1699 H1687 0.950 . S
C1699 C1695 1.393 . S
C1699 C1698 1.391 . S
C1700 H1690 0.950 . S
C1700 C1701 1.386 . S
C1700 C1702 1.391 . S
C1701 C1700 1.386 . S
C1701 C1705 1.393 . S
C1702 H1691 0.950 . S
C1702 C1700 1.391 . S
C1702 C1703 1.400 1_554 S
C1703 C1697 1.491 . S
C1703 C1702 1.400 1_556 S
C1703 C1704 1.389 1_556 S
C1704 H1692 0.926 1_554 S
C1704 C1703 1.389 1_554 S
C1704 C1705 1.425 . S
C1705 H1693 0.950 . S
C1705 C1701 1.393 . S
C1705 C1704 1.425 . S
H1706 C1714 0.950 . S
H1707 C1719 0.950 . S
H1708 C1716 0.950 . S
H1709 C1718 0.950 . S
H1710 C1720 0.950 . S
H1711 C1722 0.950 . S
H1712 C1724 0.950 . S
H1713 C1725 0.950 . S
C1714 H1706 0.950 . S
C1714 C1715 1.386 . S
C1714 C1716 1.391 . S
C1715 C1714 1.386 . S
C1715 C1719 1.393 . S
C1716 H1708 0.950 . S
C1716 C1714 1.391 . S
C1716 C1717 1.400 . S
C1717 C1716 1.400 . S
C1717 C1718 1.398 . S
C1717 C1723 1.491 . S
C1718 H1709 0.950 . S
C1718 C1717 1.398 . S
C1718 C1719 1.391 . S
C1719 H1707 0.950 . S
C1719 C1715 1.393 . S
C1719 C1718 1.391 . S
C1720 H1710 0.950 . S
C1720 C1721 1.386 1_556 S
C1720 C1722 1.391 . S
C1721 C1720 1.386 1_554 S
C1721 C1725 1.393 . S
C1722 H1711 0.950 . S
C1722 C1720 1.391 . S
C1722 C1723 1.400 . S
C1723 C1717 1.491 . S
C1723 C1722 1.400 . S
C1723 C1724 1.398 . S
C1724 H1712 0.950 . S
C1724 C1723 1.398 . S
C1724 C1725 1.391 1_556 S
C1725 H1713 0.950 . S
C1725 C1721 1.393 . S
C1725 C1724 1.391 1_554 S
H1726 C1734 0.950 . S
H1727 C1739 0.950 . S
H1728 C1736 0.950 . S
H1729 C1738 0.950 . S
H1730 C1740 0.950 . S
H1731 C1742 0.950 1_556 S
H1732 C1744 0.950 . S
H1733 C1745 0.950 . S
C1734 H1726 0.950 . S
C1734 C1735 1.386 . S
C1734 C1736 1.391 . S
C1735 C1734 1.386 . S
C1735 C1739 1.393 . S
C1736 H1728 0.950 . S
C1736 C1734 1.391 . S
C1736 C1737 1.400 . S
C1737 C1736 1.400 . S
C1737 C1738 1.398 . S
C1737 C1743 1.499 . S
C1738 H1729 0.950 . S
C1738 C1737 1.398 . S
C1738 C1739 1.391 . S
C1739 H1727 0.950 . S
C1739 C1735 1.393 . S
C1739 C1738 1.391 . S
C1740 H1730 0.950 . S
C1740 C1741 1.386 . S
C1740 C1742 1.391 . S
C1741 C1740 1.386 . S
C1741 C1745 1.393 . S
C1742 H1731 0.950 1_554 S
C1742 C1740 1.391 . S
C1742 C1743 1.399 1_554 S
C1743 C1737 1.499 . S
C1743 C1742 1.399 1_556 S
C1743 C1744 1.390 1_556 S
C1744 H1732 0.950 . S
C1744 C1743 1.390 1_554 S
C1744 C1745 1.391 . S
C1745 H1733 0.950 . S
C1745 C1741 1.393 . S
C1745 C1744 1.391 . S
H1746 C1754 0.950 . S
H1747 C1759 0.950 . S
H1748 C1756 0.950 . S
H1749 C1758 0.950 . S
H1750 C1760 0.950 . S
H1751 C1762 0.950 . S
H1752 C1764 0.950 . S
H1753 C1765 0.950 . S
C1754 H1746 0.950 . S
C1754 C1755 1.386 . S
C1754 C1756 1.391 . S
C1755 C1754 1.386 . S
C1755 C1759 1.393 . S
C1756 H1748 0.950 . S
C1756 C1754 1.391 . S
C1756 C1757 1.400 . S
C1757 C1756 1.400 . S
C1757 C1758 1.398 . S
C1757 C1763 1.491 . S
C1758 H1749 0.950 . S
C1758 C1757 1.398 . S
C1758 C1759 1.391 . S
C1759 H1747 0.950 . S
C1759 C1755 1.393 . S
C1759 C1758 1.391 . S
C1760 H1750 0.950 . S
C1760 C1761 1.386 . S
C1760 C1762 1.391 . S
C1761 C1760 1.386 . S
C1761 C1765 1.393 . S
C1762 H1751 0.950 . S
C1762 C1760 1.391 . S
C1762 C1763 1.400 . S
C1763 C1757 1.491 . S
C1763 C1762 1.400 . S
C1763 C1764 1.398 . S
C1764 H1752 0.950 . S
C1764 C1763 1.398 . S
C1764 C1765 1.391 . S
C1765 H1753 0.950 . S
C1765 C1761 1.393 . S
C1765 C1764 1.391 . S
H1766 C1774 0.950 . S
H1767 C1779 0.950 . S
H1768 C1776 0.950 . S
H1769 C1778 0.950 . S
H1770 C1780 0.950 . S
H1771 C1782 0.950 . S
H1772 C1784 0.950 . S
H1773 C1785 0.950 . S
C1774 H1766 0.950 . S
C1774 C1775 1.386 . S
C1774 C1776 1.391 . S
C1775 C1774 1.386 . S
C1775 C1779 1.393 . S
C1776 H1768 0.950 . S
C1776 C1774 1.391 . S
C1776 C1777 1.400 . S
C1777 C1776 1.400 . S
C1777 C1778 1.398 . S
C1777 C1783 1.491 . S
C1778 H1769 0.950 . S
C1778 C1777 1.398 . S
C1778 C1779 1.391 . S
C1779 H1767 0.950 . S
C1779 C1775 1.393 . S
C1779 C1778 1.391 . S
C1780 H1770 0.950 . S
C1780 C1781 1.386 . S
C1780 C1782 1.391 . S
C1781 C1780 1.386 . S
C1781 C1785 1.393 . S
C1782 H1771 0.950 . S
C1782 C1780 1.391 . S
C1782 C1783 1.400 . S
C1783 C1777 1.491 . S
C1783 C1782 1.400 . S
C1783 C1784 1.398 . S
C1784 H1772 0.950 . S
C1784 C1783 1.398 . S
C1784 C1785 1.391 . S
C1785 H1773 0.950 . S
C1785 C1781 1.393 . S
C1785 C1784 1.391 . S
H1786 C1794 0.950 . S
H1787 C1799 0.950 . S
H1788 C1796 0.950 . S
H1789 C1798 0.950 . S
H1790 C1800 0.950 . S
H1791 C1802 0.950 . S
H1792 C1804 0.950 . S
H1793 C1805 0.950 . S
C1794 H1786 0.950 . S
C1794 C1795 1.386 . S
C1794 C1796 1.391 . S
C1795 C1794 1.386 . S
C1795 C1799 1.393 . S
C1796 H1788 0.950 . S
C1796 C1794 1.391 . S
C1796 C1797 1.400 . S
C1797 C1796 1.400 . S
C1797 C1798 1.398 . S
C1797 C1803 1.491 . S
C1798 H1789 0.950 . S
C1798 C1797 1.398 . S
C1798 C1799 1.391 . S
C1799 H1787 0.950 . S
C1799 C1795 1.393 . S
C1799 C1798 1.391 . S
C1800 H1790 0.950 . S
C1800 C1801 1.386 . S
C1800 C1802 1.391 . S
C1801 C1800 1.386 . S
C1801 C1805 1.393 . S
C1802 H1791 0.950 . S
C1802 C1800 1.391 . S
C1802 C1803 1.400 . S
C1803 C1797 1.491 . S
C1803 C1802 1.400 . S
C1803 C1804 1.398 . S
C1804 H1792 0.950 . S
C1804 C1803 1.398 . S
C1804 C1805 1.391 . S
C1805 H1793 0.950 . S
C1805 C1801 1.393 . S
C1805 C1804 1.391 . S
H1806 C1814 0.950 . S
H1807 C1819 0.950 . S
H1808 C1816 0.950 . S
H1809 C1818 0.950 . S
H1810 C1820 0.950 . S
H1811 C1822 0.950 . S
H1812 C1824 0.950 . S
H1813 C1825 0.950 . S
C1814 H1806 0.950 . S
C1814 C1815 1.386 . S
C1814 C1816 1.391 . S
C1815 C1814 1.386 . S
C1815 C1819 1.393 . S
C1816 H1808 0.950 . S
C1816 C1814 1.391 . S
C1816 C1817 1.400 . S
C1817 C1816 1.400 . S
C1817 C1818 1.398 . S
C1817 C1823 1.491 . S
C1818 H1809 0.950 . S
C1818 C1817 1.398 . S
C1818 C1819 1.391 . S
C1819 H1807 0.950 . S
C1819 C1815 1.393 . S
C1819 C1818 1.391 . S
C1820 H1810 0.950 . S
C1820 C1821 1.386 . S
C1820 C1822 1.391 . S
C1821 C1820 1.386 . S
C1821 C1825 1.393 . S
C1822 H1811 0.950 . S
C1822 C1820 1.391 . S
C1822 C1823 1.400 . S
C1823 C1817 1.491 . S
C1823 C1822 1.400 . S
C1823 C1824 1.398 . S
C1824 H1812 0.950 . S
C1824 C1823 1.398 . S
C1824 C1825 1.391 . S
C1825 H1813 0.950 . S
C1825 C1821 1.393 . S
C1825 C1824 1.391 . S
H1826 C1834 0.950 . S
H1827 C1839 0.950 . S
H1828 C1836 0.950 . S
H1829 C1838 0.950 . S
H1830 C1840 0.950 . S
H1831 C1842 0.950 . S
H1832 C1844 0.950 . S
H1833 C1845 0.950 . S
C1834 H1826 0.950 . S
C1834 C1835 1.386 . S
C1834 C1836 1.391 . S
C1835 C1834 1.386 . S
C1835 C1839 1.393 . S
C1836 H1828 0.950 . S
C1836 C1834 1.391 . S
C1836 C1837 1.400 . S
C1837 C1836 1.400 . S
C1837 C1838 1.398 . S
C1837 C1843 1.491 . S
C1838 H1829 0.950 . S
C1838 C1837 1.398 . S
C1838 C1839 1.391 . S
C1839 H1827 0.950 . S
C1839 C1835 1.393 . S
C1839 C1838 1.391 . S
C1840 H1830 0.950 . S
C1840 C1841 1.386 . S
C1840 C1842 1.391 . S
C1841 C1840 1.386 . S
C1841 C1845 1.393 . S
C1842 H1831 0.950 . S
C1842 C1840 1.391 . S
C1842 C1843 1.400 . S
C1843 C1837 1.491 . S
C1843 C1842 1.400 . S
C1843 C1844 1.398 . S
C1844 H1832 0.950 . S
C1844 C1843 1.398 . S
C1844 C1845 1.391 . S
C1845 H1833 0.950 . S
C1845 C1841 1.393 . S
C1845 C1844 1.391 . S
H1846 C1854 0.950 . S
H1847 C1859 0.950 . S
H1848 C1856 0.950 . S
H1849 C1858 0.950 . S
H1850 C1860 0.950 . S
H1851 C1862 0.950 . S
H1852 C1864 0.950 . S
H1853 C1865 0.950 . S
C1854 H1846 0.950 . S
C1854 C1855 1.386 . S
C1854 C1856 1.391 . S
C1855 C1854 1.386 . S
C1855 C1859 1.393 . S
C1856 H1848 0.950 . S
C1856 C1854 1.391 . S
C1856 C1857 1.400 . S
C1857 C1856 1.400 . S
C1857 C1858 1.398 . S
C1857 C1863 1.491 . S
C1858 H1849 0.950 . S
C1858 C1857 1.398 . S
C1858 C1859 1.391 . S
C1859 H1847 0.950 . S
C1859 C1855 1.393 . S
C1859 C1858 1.391 . S
C1860 H1850 0.950 . S
C1860 C1861 1.386 . S
C1860 C1862 1.391 . S
C1861 C1860 1.386 . S
C1861 C1865 1.393 . S
C1862 H1851 0.950 . S
C1862 C1860 1.391 . S
C1862 C1863 1.400 . S
C1863 C1857 1.491 . S
C1863 C1862 1.400 . S
C1863 C1864 1.398 . S
C1864 H1852 0.950 . S
C1864 C1863 1.398 . S
C1864 C1865 1.391 . S
C1865 H1853 0.950 . S
C1865 C1861 1.393 . S
C1865 C1864 1.391 . S
H1866 C1874 0.950 . S
H1867 C1879 0.950 . S
H1868 C1876 0.950 . S
H1869 C1878 0.950 . S
H1870 C1880 0.950 . S
H1871 C1882 0.950 . S
H1872 C1884 0.950 . S
H1873 C1885 0.950 . S
C1874 H1866 0.950 . S
C1874 C1875 1.386 . S
C1874 C1876 1.391 . S
C1875 C1874 1.386 . S
C1875 C1879 1.393 . S
C1876 H1868 0.950 . S
C1876 C1874 1.391 . S
C1876 C1877 1.400 . S
C1877 C1876 1.400 . S
C1877 C1878 1.398 . S
C1877 C1883 1.491 . S
C1878 H1869 0.950 . S
C1878 C1877 1.398 . S
C1878 C1879 1.391 . S
C1879 H1867 0.950 . S
C1879 C1875 1.393 . S
C1879 C1878 1.391 . S
C1880 H1870 0.950 . S
C1880 C1881 1.386 . S
C1880 C1882 1.391 . S
C1881 C1880 1.386 . S
C1881 C1885 1.393 . S
C1882 H1871 0.950 . S
C1882 C1880 1.391 . S
C1882 C1883 1.400 . S
C1883 C1877 1.491 . S
C1883 C1882 1.400 . S
C1883 C1884 1.398 . S
C1884 H1872 0.950 . S
C1884 C1883 1.398 . S
C1884 C1885 1.391 . S
C1885 H1873 0.950 . S
C1885 C1881 1.393 . S
C1885 C1884 1.391 . S
H1886 C1894 0.950 . S
H1887 C1899 0.950 . S
H1888 C1896 0.950 . S
H1889 C1898 0.950 . S
H1890 C1900 0.950 . S
H1891 C1902 0.950 . S
H1892 C1904 0.950 . S
H1893 C1905 0.950 . S
C1894 H1886 0.950 . S
C1894 C1895 1.386 . S
C1894 C1896 1.391 . S
C1895 C1894 1.386 . S
C1895 C1899 1.393 . S
C1896 H1888 0.950 . S
C1896 C1894 1.391 . S
C1896 C1897 1.400 . S
C1897 C1896 1.400 . S
C1897 C1898 1.398 . S
C1897 C1903 1.491 . S
C1898 H1889 0.950 . S
C1898 C1897 1.398 . S
C1898 C1899 1.391 . S
C1899 H1887 0.950 . S
C1899 C1895 1.393 . S
C1899 C1898 1.391 . S
C1900 H1890 0.950 . S
C1900 C1901 1.386 . S
C1900 C1902 1.391 . S
C1901 C1900 1.386 . S
C1901 C1905 1.393 . S
C1902 H1891 0.950 . S
C1902 C1900 1.391 . S
C1902 C1903 1.400 . S
C1903 C1897 1.491 . S
C1903 C1902 1.400 . S
C1903 C1904 1.398 . S
C1904 H1892 0.950 . S
C1904 C1903 1.398 . S
C1904 C1905 1.391 . S
C1905 H1893 0.950 . S
C1905 C1901 1.393 . S
C1905 C1904 1.391 . S
H1906 C1914 0.950 . S
H1907 C1919 0.950 . S
H1908 C1916 0.950 . S
H1909 C1918 0.950 . S
H1910 C1920 0.950 . S
H1911 C1922 0.950 . S
H1912 C1924 0.950 . S
H1913 C1925 0.950 . S
C1914 H1906 0.950 . S
C1914 C1915 1.386 . S
C1914 C1916 1.391 . S
C1915 C1914 1.386 . S
C1915 C1919 1.393 . S
C1916 H1908 0.950 . S
C1916 C1914 1.391 . S
C1916 C1917 1.400 . S
C1917 C1916 1.400 . S
C1917 C1918 1.398 . S
C1917 C1923 1.491 . S
C1918 H1909 0.950 . S
C1918 C1917 1.398 . S
C1918 C1919 1.391 . S
C1919 H1907 0.950 . S
C1919 C1915 1.393 . S
C1919 C1918 1.391 . S
C1920 H1910 0.950 . S
C1920 C1921 1.386 . S
C1920 C1922 1.391 . S
C1921 C1920 1.386 . S
C1921 C1925 1.393 . S
C1922 H1911 0.950 . S
C1922 C1920 1.391 . S
C1922 C1923 1.400 . S
C1923 C1917 1.491 . S
C1923 C1922 1.400 . S
C1923 C1924 1.398 . S
C1924 H1912 0.950 . S
C1924 C1923 1.398 . S
C1924 C1925 1.391 . S
C1925 H1913 0.950 . S
C1925 C1921 1.393 . S
C1925 C1924 1.391 . S
H1926 C1934 0.950 . S
H1927 C1939 0.950 . S
H1928 C1936 0.950 . S
H1929 C1938 0.950 . S
H1930 C1940 0.950 . S
H1931 C1942 0.950 . S
H1932 C1944 0.950 . S
H1933 C1945 0.950 . S
C1934 H1926 0.950 . S
C1934 C1935 1.386 . S
C1934 C1936 1.391 . S
C1935 C1934 1.386 . S
C1935 C1939 1.393 . S
C1936 H1928 0.950 . S
C1936 C1934 1.391 . S
C1936 C1937 1.400 . S
C1937 C1936 1.400 . S
C1937 C1938 1.398 . S
C1937 C1943 1.491 . S
C1938 H1929 0.950 . S
C1938 C1937 1.398 . S
C1938 C1939 1.391 . S
C1939 H1927 0.950 . S
C1939 C1935 1.393 . S
C1939 C1938 1.391 . S
C1940 H1930 0.950 . S
C1940 C1941 1.386 . S
C1940 C1942 1.391 . S
C1941 C1940 1.386 . S
C1941 C1945 1.393 . S
C1942 H1931 0.950 . S
C1942 C1940 1.391 . S
C1942 C1943 1.400 . S
C1943 C1937 1.491 . S
C1943 C1942 1.400 . S
C1943 C1944 1.398 . S
C1944 H1932 0.950 . S
C1944 C1943 1.398 . S
C1944 C1945 1.391 . S
C1945 H1933 0.950 . S
C1945 C1941 1.393 . S
C1945 C1944 1.391 . S
H1946 C1954 0.950 . S
H1947 C1959 0.950 . S
H1948 C1956 0.950 . S
H1949 C1958 0.950 . S
H1950 C1960 0.950 . S
H1951 C1962 0.950 . S
H1952 C1964 0.950 . S
H1953 C1965 0.950 . S
C1954 H1946 0.950 . S
C1954 C1955 1.386 . S
C1954 C1956 1.391 . S
C1955 C1954 1.386 . S
C1955 C1959 1.393 . S
C1956 H1948 0.950 . S
C1956 C1954 1.391 . S
C1956 C1957 1.400 . S
C1957 C1956 1.400 . S
C1957 C1958 1.398 . S
C1957 C1963 1.491 . S
C1958 H1949 0.950 . S
C1958 C1957 1.398 . S
C1958 C1959 1.391 . S
C1959 H1947 0.950 . S
C1959 C1955 1.393 . S
C1959 C1958 1.391 . S
C1960 H1950 0.950 . S
C1960 C1961 1.386 . S
C1960 C1962 1.391 . S
C1961 C1960 1.386 . S
C1961 C1965 1.393 . S
C1962 H1951 0.950 . S
C1962 C1960 1.391 . S
C1962 C1963 1.400 . S
C1963 C1957 1.491 . S
C1963 C1962 1.400 . S
C1963 C1964 1.398 . S
C1964 H1952 0.950 . S
C1964 C1963 1.398 . S
C1964 C1965 1.391 . S
C1965 H1953 0.950 . S
C1965 C1961 1.393 . S
C1965 C1964 1.391 . S
H1966 C1974 0.950 . S
H1967 C1979 0.950 . S
H1968 C1976 0.950 . S
H1969 C1978 0.950 . S
H1970 C1980 0.950 . S
H1971 C1982 0.950 . S
H1972 C1984 0.950 . S
H1973 C1985 0.950 . S
C1974 H1966 0.950 . S
C1974 C1975 1.386 . S
C1974 C1976 1.391 . S
C1975 C1974 1.386 . S
C1975 C1979 1.393 . S
C1976 H1968 0.950 . S
C1976 C1974 1.391 . S
C1976 C1977 1.400 . S
C1977 C1976 1.400 . S
C1977 C1978 1.398 . S
C1977 C1983 1.491 . S
C1978 H1969 0.950 . S
C1978 C1977 1.398 . S
C1978 C1979 1.391 . S
C1979 H1967 0.950 . S
C1979 C1975 1.393 . S
C1979 C1978 1.391 . S
C1980 H1970 0.950 . S
C1980 C1981 1.386 . S
C1980 C1982 1.391 . S
C1981 C1980 1.386 . S
C1981 C1985 1.393 . S
C1982 H1971 0.950 . S
C1982 C1980 1.391 . S
C1982 C1983 1.400 . S
C1983 C1977 1.491 . S
C1983 C1982 1.400 . S
C1983 C1984 1.398 . S
C1984 H1972 0.950 . S
C1984 C1983 1.398 . S
C1984 C1985 1.391 . S
C1985 H1973 0.950 . S
C1985 C1981 1.393 . S
C1985 C1984 1.391 . S
H1986 C1994 0.950 . S
H1987 C1999 0.950 . S
H1988 C1996 0.950 . S
H1989 C1998 0.950 . S
H1990 C2000 0.950 . S
H1991 C2002 0.950 . S
H1992 C2004 0.950 . S
H1993 C2005 0.950 . S
C1994 H1986 0.950 . S
C1994 C1995 1.386 . S
C1994 C1996 1.391 . S
C1995 C1994 1.386 . S
C1995 C1999 1.393 . S
C1996 H1988 0.950 . S
C1996 C1994 1.391 . S
C1996 C1997 1.400 . S
C1997 C1996 1.400 . S
C1997 C1998 1.398 . S
C1997 C2003 1.491 . S
C1998 H1989 0.950 . S
C1998 C1997 1.398 . S
C1998 C1999 1.391 . S
C1999 H1987 0.950 . S
C1999 C1995 1.393 . S
C1999 C1998 1.391 . S
C2000 H1990 0.950 . S
C2000 C2001 1.386 . S
C2000 C2002 1.391 . S
C2001 C2000 1.386 . S
C2001 C2005 1.393 . S
C2002 H1991 0.950 . S
C2002 C2000 1.391 . S
C2002 C2003 1.400 . S
C2003 C1997 1.491 . S
C2003 C2002 1.400 . S
C2003 C2004 1.398 . S
C2004 H1992 0.950 . S
C2004 C2003 1.398 . S
C2004 C2005 1.391 . S
C2005 H1993 0.950 . S
C2005 C2001 1.393 . S
C2005 C2004 1.391 . S
H2006 C2014 0.950 . S
H2007 C2019 0.950 . S
H2008 C2016 0.950 . S
H2009 C2018 0.950 . S
H2010 C2020 0.950 . S
H2011 C2022 0.950 . S
H2012 C2024 0.950 . S
H2013 C2025 0.950 . S
C2014 H2006 0.950 . S
C2014 C2015 1.386 . S
C2014 C2016 1.391 . S
C2015 C2014 1.386 . S
C2015 C2019 1.393 . S
C2016 H2008 0.950 . S
C2016 C2014 1.391 . S
C2016 C2017 1.400 . S
C2017 C2016 1.400 . S
C2017 C2018 1.398 . S
C2017 C2023 1.491 . S
C2018 H2009 0.950 . S
C2018 C2017 1.398 . S
C2018 C2019 1.391 . S
C2019 H2007 0.950 . S
C2019 C2015 1.393 . S
C2019 C2018 1.391 . S
C2020 H2010 0.950 . S
C2020 C2021 1.386 . S
C2020 C2022 1.391 . S
C2021 C2020 1.386 . S
C2021 C2025 1.393 . S
C2022 H2011 0.950 . S
C2022 C2020 1.391 . S
C2022 C2023 1.400 . S
C2023 C2017 1.491 . S
C2023 C2022 1.400 . S
C2023 C2024 1.398 . S
C2024 H2012 0.950 . S
C2024 C2023 1.398 . S
C2024 C2025 1.391 . S
C2025 H2013 0.950 . S
C2025 C2021 1.393 . S
C2025 C2024 1.391 . S
H2026 C2034 0.950 . S
H2027 C2039 0.950 . S
H2028 C2036 0.950 . S
H2029 C2038 0.950 . S
H2030 C2040 0.950 . S
H2031 C2042 0.950 . S
H2032 C2044 0.950 . S
H2033 C2045 0.950 . S
C2034 H2026 0.950 . S
C2034 C2035 1.386 . S
C2034 C2036 1.391 . S
C2035 C2034 1.386 . S
C2035 C2039 1.393 . S
C2036 H2028 0.950 . S
C2036 C2034 1.391 . S
C2036 C2037 1.400 . S
C2037 C2036 1.400 . S
C2037 C2038 1.398 . S
C2037 C2043 1.491 . S
C2038 H2029 0.950 . S
C2038 C2037 1.398 . S
C2038 C2039 1.391 . S
C2039 H2027 0.950 . S
C2039 C2035 1.393 . S
C2039 C2038 1.391 . S
C2040 H2030 0.950 . S
C2040 C2041 1.386 . S
C2040 C2042 1.391 . S
C2041 C2040 1.386 . S
C2041 C2045 1.393 . S
C2042 H2031 0.950 . S
C2042 C2040 1.391 . S
C2042 C2043 1.400 . S
C2043 C2037 1.491 . S
C2043 C2042 1.400 . S
C2043 C2044 1.398 . S
C2044 H2032 0.950 . S
C2044 C2043 1.398 . S
C2044 C2045 1.391 . S
C2045 H2033 0.950 . S
C2045 C2041 1.393 . S
C2045 C2044 1.391 . S
H2046 C2054 0.950 . S
H2047 C2059 0.950 . S
H2048 C2056 0.950 . S
H2049 C2058 0.950 . S
H2050 C2060 0.950 . S
H2051 C2062 0.950 . S
H2052 C2064 0.950 . S
H2053 C2065 0.950 . S
C2054 H2046 0.950 . S
C2054 C2055 1.386 . S
C2054 C2056 1.391 . S
C2055 C2054 1.386 . S
C2055 C2059 1.393 . S
C2056 H2048 0.950 . S
C2056 C2054 1.391 . S
C2056 C2057 1.400 . S
C2057 C2056 1.400 . S
C2057 C2058 1.398 . S
C2057 C2063 1.491 . S
C2058 H2049 0.950 . S
C2058 C2057 1.398 . S
C2058 C2059 1.391 . S
C2059 H2047 0.950 . S
C2059 C2055 1.393 . S
C2059 C2058 1.391 . S
C2060 H2050 0.950 . S
C2060 C2061 1.386 . S
C2060 C2062 1.391 1_556 S
C2061 C2060 1.386 . S
C2061 C2065 1.393 . S
C2062 H2051 0.950 . S
C2062 C2060 1.391 1_554 S
C2062 C2063 1.400 . S
C2063 C2057 1.491 . S
C2063 C2062 1.400 . S
C2063 C2064 1.398 . S
C2064 H2052 0.950 . S
C2064 C2063 1.398 . S
C2064 C2065 1.391 1_554 S
C2065 H2053 0.950 . S
C2065 C2061 1.393 . S
C2065 C2064 1.391 1_556 S
H2066 C2074 0.950 . S
H2067 C2079 0.950 . S
H2068 C2076 0.950 . S
H2069 C2078 0.950 . S
H2070 C2080 0.950 1_556 S
H2071 C2082 0.950 . S
H2072 C2084 0.950 . S
H2073 C2085 0.950 . S
C2074 H2066 0.950 . S
C2074 C2075 1.386 . S
C2074 C2076 1.391 . S
C2075 C2074 1.386 . S
C2075 C2079 1.393 . S
C2076 H2068 0.950 . S
C2076 C2074 1.391 . S
C2076 C2077 1.400 . S
C2077 C2076 1.400 . S
C2077 C2078 1.398 . S
C2077 C2083 1.491 . S
C2078 H2069 0.950 . S
C2078 C2077 1.398 . S
C2078 C2079 1.391 . S
C2079 H2067 0.950 . S
C2079 C2075 1.393 . S
C2079 C2078 1.391 . S
C2080 H2070 0.950 1_554 S
C2080 C2081 1.386 . S
C2080 C2082 1.391 . S
C2081 C2080 1.386 . S
C2081 C2085 1.393 . S
C2082 H2071 0.950 . S
C2082 C2080 1.391 . S
C2082 C2083 1.400 . S
C2083 C2077 1.491 . S
C2083 C2082 1.400 . S
C2083 C2084 1.398 . S
C2084 H2072 0.950 . S
C2084 C2083 1.398 . S
C2084 C2085 1.391 . S
C2085 H2073 0.950 . S
C2085 C2081 1.393 . S
C2085 C2084 1.391 . S
H2086 C2094 0.950 . S
H2087 C2099 0.950 . S
H2088 C2096 0.950 . S
H2089 C2098 0.950 . S
H2090 C2100 0.950 . S
H2091 C2102 0.950 . S
H2092 C2104 0.950 . S
H2093 C2105 0.941 1_556 S
C2094 H2086 0.950 . S
C2094 C2095 1.386 . S
C2094 C2096 1.391 . S
C2095 C2094 1.386 . S
C2095 C2099 1.393 . S
C2096 H2088 0.950 . S
C2096 C2094 1.391 . S
C2096 C2097 1.400 . S
C2097 C2096 1.400 . S
C2097 C2098 1.398 . S
C2097 C2103 1.491 . S
C2098 H2089 0.950 . S
C2098 C2097 1.398 . S
C2098 C2099 1.391 . S
C2099 H2087 0.950 . S
C2099 C2095 1.393 . S
C2099 C2098 1.391 . S
C2100 H2090 0.950 . S
C2100 C2101 1.386 . S
C2100 C2102 1.391 1_556 S
C2101 C2100 1.386 . S
C2101 C2105 1.380 1_556 S
C2102 H2091 0.950 . S
C2102 C2100 1.391 1_554 S
C2102 C2103 1.400 . S
C2103 C2097 1.491 . S
C2103 C2102 1.400 . S
C2103 C2104 1.398 . S
C2104 H2092 0.950 . S
C2104 C2103 1.398 . S
C2104 C2105 1.413 . S
C2105 H2093 0.941 1_554 S
C2105 C2101 1.380 1_554 S
C2105 C2104 1.413 . S
C675 C7 1.434 . S
C681 C575 1.438 . S
C701 C547 1.727 . S
C695 C39 1.717 . S
C721 C562 1.488 . S
C715 C62 1.567 . S
C735 C76 1.863 . S
C741 C632 1.819 . S
C755 C108 1.415 . S
C761 C645 1.409 . S
C775 N117 1.362 . S
C781 C660 1.328 . S
C801 C623 1.243 . S
C795 C16 1.293 . S
C815 C30 1.719 . S
C821 C595 1.625 . S
C841 C604 1.418 . S
C835 C53 1.457 . S
C855 C85 1.831 . S
C861 C506 1.780 1_565 S
C881 C525 1.508 . S
C875 C99 1.587 . S
C895 N127 1.293 . S
C901 C534 1.322 . S
C915 N150 1.131 . S
C921 C659 1.142 . S
C941 C631 1.491 . S
C935 N173 1.461 . S
C961 C646 1.350 . S
C955 C200 1.398 . S
C975 C214 1.669 . S
C981 C464 1.614 . S
C995 N232 1.470 . S
C1001 C477 1.485 . S
C1015 C260 1.531 . S
C1021 C492 1.494 1_565 S
C1041 C455 1.083 . S
C1035 N140 1.119 . S
C1055 N163 1.180 . S
C1061 C427 1.169 . S
C1081 C436 1.467 . S
C1075 C191 1.528 . S
C1101 C590 1.851 . S
C1095 C223 1.900 . S
C1121 C609 1.351 . S
C1115 N242 1.330 . S
C1141 C618 1.504 . S
C1135 C269 1.526 . S
C1155 N288 1.250 . S
C1161 C491 1.263 . S
C1175 C315 1.439 . S
C1181 C463 1.458 . S
C1195 C338 1.646 . S
C1201 C478 1.589 . S
C1215 C352 1.888 . S
C1221 C548 1.839 . S
C1241 C561 1.528 . S
C1235 N370 1.503 . S
C1261 C576 1.532 1_655 S
C1255 C398 1.577 . S
C1281 C539 1.080 . S
C1275 N278 1.052 . S
C1295 C306 1.628 . S
C1301 C511 1.543 . S
C1315 C329 1.566 . S
C1321 C520 1.526 . S
C1341 C422 1.520 . S
C1335 C361 1.574 . S
C1355 N380 1.383 . S
C1361 C441 1.372 . S
C1381 C450 1.427 . S
C1375 C407 1.470 . S
C1401 C469 1.285 . S
C1395 N12 1.321 . S
C1415 N25 1.450 . S
C1421 C481 1.433 . S
C1441 C497 1.168 . S
C1435 N48 1.205 . S
C1461 C495 1.271 . S
C1455 N81 1.273 . S
C1481 C467 1.433 . S
C1475 N94 1.428 . S
C1501 C483 1.428 . S
C1495 C131 1.508 . S
C1521 C421 1.323 . S
C1515 N2 1.316 . S
C1535 N35 1.335 . S
C1541 C439 1.377 . S
C1555 N58 1.132 . S
C1561 C449 1.157 . S
C1581 C453 1.210 . S
C1575 N71 1.175 . S
C1601 C425 1.315 . S
C1595 N104 1.298 . S
C1621 C435 1.536 . S
C1615 C122 1.538 . S
C1635 C145 1.933 . S
C1641 C553 1.847 . S
C1655 C168 1.583 . S
C1661 C565 1.554 . S
C1675 N186 1.330 . S
C1681 C581 1.286 . S
C1701 C579 1.264 . S
C1695 N219 1.266 . S
C1721 C551 1.709 . S
C1715 C246 1.709 . S
C1741 C567 1.355 . S
C1735 N265 1.419 . S
C1761 C505 1.828 . S
C1755 C154 1.831 . S
C1775 C177 1.648 . S
C1781 C523 1.642 . S
C1795 N196 1.156 . S
C1801 C533 1.184 . S
C1815 N209 1.078 . S
C1821 C537 1.130 . S
C1835 C237 1.763 . S
C1841 C509 1.761 . S
C1861 C519 1.405 . S
C1855 N255 1.348 . S
C1875 C283 1.716 . S
C1881 C637 1.597 . S
C1895 N301 1.344 . S
C1901 C649 1.345 . S
C1915 N324 1.176 . S
C1921 C665 1.122 . S
C1941 C663 1.094 . S
C1935 N357 1.077 . S
C1961 C635 1.672 . S
C1955 C384 1.689 . S
C1975 N403 1.258 . S
C1981 C651 1.218 . S
C1995 C292 1.817 . S
C2001 C589 1.813 . S
C2021 C607 1.240 . S
C2015 N311 1.204 . S
C2035 N334 1.232 . S
C2041 C617 1.268 . S
C2055 N347 1.227 . S
C2061 C621 1.269 . S
C2081 C593 1.812 1_554 S
C2075 C375 1.818 . S
C2095 N393 1.294 . S
C2101 C603 1.342 . S
