# Generated by pormake.
# Topology csq, (4,8)-cn, num edge types: 1
# Building blocks:
#     Node 0, Type 0, BuildingBlock: NAWXER_clean_sbu_0, # of connection points: 4
#     Node 1, Type 0, BuildingBlock: NAWXER_clean_sbu_0, # of connection points: 4
#     Node 2, Type 0, BuildingBlock: NAWXER_clean_sbu_0, # of connection points: 4
#     Node 3, Type 0, BuildingBlock: NAWXER_clean_sbu_0, # of connection points: 4
#     Node 4, Type 0, BuildingBlock: NAWXER_clean_sbu_0, # of connection points: 4
#     Node 5, Type 0, BuildingBlock: NAWXER_clean_sbu_0, # of connection points: 4
#     Node 6, Type 1, BuildingBlock: TAGTUT_clean_sbu_1, # of connection points: 8
#     Node 7, Type 1, BuildingBlock: TAGTUT_clean_sbu_1, # of connection points: 8
#     Node 8, Type 1, BuildingBlock: TAGTUT_clean_sbu_1, # of connection points: 8
#     Edge 9, Type (0, 1), BuildingBlock: KIFKEQ_clean_linker_1, # of connection points: 2
#     Edge 10, Type (0, 1), BuildingBlock: KIFKEQ_clean_linker_1, # of connection points: 2
#     Edge 11, Type (0, 1), BuildingBlock: KIFKEQ_clean_linker_1, # of connection points: 2
#     Edge 12, Type (0, 1), BuildingBlock: KIFKEQ_clean_linker_1, # of connection points: 2
#     Edge 13, Type (0, 1), BuildingBlock: KIFKEQ_clean_linker_1, # of connection points: 2
#     Edge 14, Type (0, 1), BuildingBlock: KIFKEQ_clean_linker_1, # of connection points: 2
#     Edge 15, Type (0, 1), BuildingBlock: KIFKEQ_clean_linker_1, # of connection points: 2
#     Edge 16, Type (0, 1), BuildingBlock: KIFKEQ_clean_linker_1, # of connection points: 2
#     Edge 17, Type (0, 1), BuildingBlock: KIFKEQ_clean_linker_1, # of connection points: 2
#     Edge 18, Type (0, 1), BuildingBlock: KIFKEQ_clean_linker_1, # of connection points: 2
#     Edge 19, Type (0, 1), BuildingBlock: KIFKEQ_clean_linker_1, # of connection points: 2
#     Edge 20, Type (0, 1), BuildingBlock: KIFKEQ_clean_linker_1, # of connection points: 2
#     Edge 21, Type (0, 1), BuildingBlock: KIFKEQ_clean_linker_1, # of connection points: 2
#     Edge 22, Type (0, 1), BuildingBlock: KIFKEQ_clean_linker_1, # of connection points: 2
#     Edge 23, Type (0, 1), BuildingBlock: KIFKEQ_clean_linker_1, # of connection points: 2
#     Edge 24, Type (0, 1), BuildingBlock: KIFKEQ_clean_linker_1, # of connection points: 2
#     Edge 25, Type (0, 1), BuildingBlock: KIFKEQ_clean_linker_1, # of connection points: 2
#     Edge 26, Type (0, 1), BuildingBlock: KIFKEQ_clean_linker_1, # of connection points: 2
#     Edge 27, Type (0, 1), BuildingBlock: KIFKEQ_clean_linker_1, # of connection points: 2
#     Edge 28, Type (0, 1), BuildingBlock: KIFKEQ_clean_linker_1, # of connection points: 2
#     Edge 29, Type (0, 1), BuildingBlock: KIFKEQ_clean_linker_1, # of connection points: 2
#     Edge 30, Type (0, 1), BuildingBlock: KIFKEQ_clean_linker_1, # of connection points: 2
#     Edge 31, Type (0, 1), BuildingBlock: KIFKEQ_clean_linker_1, # of connection points: 2
#     Edge 32, Type (0, 1), BuildingBlock: KIFKEQ_clean_linker_1, # of connection points: 2
# Relax obj value: 0.042
# Max RMSD: 0.128
# Mean RMSD: 0.072
data_MOF--net-csq--node1-NAWXER_clean_sbu_0--node2-TAGTUT_clean_sbu_1--edge1-KIFKEQ_clean_linker_1
_symmetry_space_group_name_H-M    P1
_symmetry_Int_Tables_number       1
_symmetry_cell_setting            triclinic
loop_
_symmetry_equiv_pos_as_xyz
'x, y, z'
_cell_length_a     50.536082
_cell_length_b     50.276825
_cell_length_c     19.821453
_cell_angle_alpha  92.102729
_cell_angle_beta   92.288723
_cell_angle_gamma 119.72259
loop_
_atom_site_label
_atom_site_type_symbol
_atom_site_fract_x
_atom_site_fract_y
_atom_site_fract_z
_atom_type_partial_charge
C0 C 0.30112 0.50928 0.09893 0.0
C1 C 0.22586 0.50885 0.25125 0.0
O2 O 0.30188 0.53307 0.126 0.0
Zn3 Zn 0.26465 0.51132 0.17519 0.0
O4 O 0.27987 0.48266 0.11247 0.0
Zn5 Zn 0.2404 0.46159 0.16947 0.0
O6 O 0.20825 0.43951 0.0965 0.0
O7 O 0.23149 0.48988 0.09247 0.0
O8 O 0.22106 0.48213 0.23195 0.0
O9 O 0.24821 0.53247 0.22921 0.0
O10 O 0.27825 0.49124 0.25178 0.0
O11 O 0.2524 0.44071 0.23555 0.0
C12 C 0.21189 0.46307 0.06693 0.0
C13 C 0.2723 0.46479 0.27012 0.0
C14 C 0.7274 0.21753 0.0441 0.0
C15 C 0.79841 0.29805 0.21173 0.0
O16 O 0.74727 0.21194 0.07208 0.0
Zn17 Zn 0.78435 0.23227 0.14658 0.0
O18 O 0.72715 0.24188 0.06268 0.0
Zn19 Zn 0.76159 0.25839 0.13005 0.0
O20 O 0.79938 0.26921 0.07067 0.0
O21 O 0.81941 0.24013 0.09463 0.0
O22 O 0.77687 0.29858 0.17727 0.0
O23 O 0.80253 0.27496 0.20457 0.0
O24 O 0.77115 0.20328 0.217 0.0
O25 O 0.74559 0.2283 0.21137 0.0
C26 C 0.81977 0.26159 0.06176 0.0
C27 C 0.75105 0.20883 0.23971 0.0
C28 C 0.58065 0.82269 0.15251 0.0
C29 C 0.57122 0.74555 0.98438 0.0
O30 O 0.6021 0.81952 0.12965 0.0
Zn31 Zn 0.5764 0.78413 0.06946 0.0
O32 O 0.55274 0.80337 0.13394 0.0
Zn33 Zn 0.52792 0.76295 0.06709 0.0
O34 O 0.50512 0.72968 0.12469 0.0
O35 O 0.55493 0.74798 0.13619 0.0
O36 O 0.54528 0.74186 0.99995 0.0
O37 O 0.59564 0.76815 0.01148 0.0
O38 O 0.55612 0.80223 1.00079 0.0
O39 O 0.50608 0.77621 0.0077 0.0
C40 C 0.52788 0.72877 0.15163 0.0
C41 C 0.52942 0.79767 0.98303 0.0
C42 C 0.79686 0.49956 0.998 0.0
C43 C 0.71899 0.49563 0.14787 0.0
O44 O 0.80033 0.5256 0.01863 0.0
Zn45 Zn 0.77953 0.54475 0.07953 0.0
O46 O 0.77455 0.47509 0.01735 0.0
Zn47 Zn 0.75639 0.49475 0.07196 0.0
O48 O 0.7425 0.5147 0.99568 0.0
O49 O 0.76714 0.56518 0.01312 0.0
O50 O 0.71886 0.47216 0.12072 0.0
O51 O 0.73994 0.52245 0.13478 0.0
O52 O 0.81094 0.56694 0.15369 0.0
O53 O 0.789 0.51653 0.1556 0.0
C54 C 0.74784 0.54103 0.97782 0.0
C55 C 0.80786 0.54336 0.1823 0.0
C56 C 0.19943 0.75242 0.19634 0.0
C57 C 0.2704 0.80054 0.02039 0.0
O58 O 0.20088 0.77318 0.15931 0.0
Zn59 Zn 0.23555 0.77815 0.11091 0.0
O60 O 0.21846 0.74275 0.19063 0.0
Zn61 Zn 0.25527 0.74989 0.12966 0.0
O62 O 0.28902 0.76353 0.19576 0.0
O63 O 0.2727 0.79679 0.18756 0.0
O64 O 0.27472 0.78065 0.0502 0.0
O65 O 0.24996 0.80631 0.0395 0.0
O66 O 0.21498 0.73519 0.05433 0.0
O67 O 0.2381 0.70937 0.08302 0.0
C68 C 0.29099 0.78888 0.21504 0.0
C69 C 0.21737 0.71106 0.04809 0.0
C70 C 0.44963 0.25563 0.28222 0.0
C71 C 0.44643 0.18525 0.10323 0.0
O72 O 0.47615 0.26166 0.26504 0.0
Zn73 Zn 0.496 0.24487 0.19363 0.0
O74 O 0.42584 0.23247 0.25426 0.0
Zn75 Zn 0.44692 0.2201 0.19285 0.0
O76 O 0.46976 0.20402 0.25813 0.0
O77 O 0.51961 0.23207 0.24998 0.0
O78 O 0.42373 0.18512 0.12896 0.0
O79 O 0.47357 0.20642 0.12253 0.0
O80 O 0.51605 0.28014 0.13823 0.0
O81 O 0.46585 0.25876 0.13297 0.0
C82 C 0.49695 0.20984 0.27487 0.0
C83 C 0.49191 0.28011 0.1172 0.0
C84 C 0.98173 0.41271 0.78442 0.0
C85 C 0.07098 0.46819 0.71571 0.0
C86 C 0.04506 0.56097 0.73876 0.0
Mg87 Mg 0.00628 0.43569 0.64412 0.0
O88 O 1.00084 0.46821 0.67608 0.0
Mg89 Mg 0.02059 0.48951 0.76648 0.0
Mg90 Mg 0.01138 0.50473 0.62291 0.0
O91 O 0.02156 0.54139 0.57084 0.0
Mg92 Mg 0.01394 0.57209 0.60534 0.0
Mg93 Mg 0.00221 0.52092 0.47999 0.0
C94 C 0.97612 0.44768 0.50891 0.0
C95 C 0.06059 0.51158 0.51166 0.0
O96 O 0.99523 0.44087 0.80818 0.0
O97 O 0.98183 0.40527 0.7218 0.0
O98 O 0.06188 0.48324 0.75196 0.0
O99 O 0.05401 0.4492 0.66688 0.0
O100 O 0.98408 0.4308 0.54199 0.0
O101 O 0.98196 0.47431 0.53263 0.0
C102 C 0.96369 0.501 0.73513 0.0
O103 O 0.97013 0.50503 0.67288 0.0
O104 O 0.97957 0.49536 0.77788 0.0
O105 O 0.02705 0.57065 0.44072 0.0
O106 O 0.03851 0.6039 0.53118 0.0
O107 O 0.95989 0.5254 0.4941 0.0
C108 C 0.03979 0.59824 0.46813 0.0
O109 O 0.96607 0.55762 0.5817 0.0
O110 O 0.0357 0.57717 0.70753 0.0
C111 C 0.94984 0.53922 0.53143 0.0
O112 O 0.04101 0.53533 0.71295 0.0
O113 O 0.0529 0.50481 0.57253 0.0
O114 O 0.04466 0.51769 0.4701 0.0
C115 C 0.44721 0.02118 0.80815 0.0
C116 C 0.41789 0.93517 0.70291 0.0
C117 C 0.53805 0.96772 0.71929 0.0
Mg118 Mg 0.44616 0.00108 0.65786 0.0
O119 O 0.4853 0.0096 0.68923 0.0
Mg120 Mg 0.489 0.98767 0.76815 0.0
Mg121 Mg 0.51095 0.0023 0.62655 0.0
O122 O 0.5369 0.99512 0.56418 0.0
Mg123 Mg 0.57658 0.00525 0.59596 0.0
Mg124 Mg 0.53258 0.0162 0.48448 0.0
C125 C 0.48439 0.03764 0.53388 0.0
C126 C 0.46693 0.95545 0.50095 0.0
O127 O 0.46415 0.00969 0.82518 0.0
O128 O 0.43847 0.02113 0.74651 0.0
O129 O 0.44222 0.94464 0.74122 0.0
O130 O 0.41478 0.9525 0.6616 0.0
O131 O 0.45964 0.02651 0.56544 0.0
O132 O 0.50665 0.03342 0.55209 0.0
C133 C 0.55551 0.04767 0.75329 0.0
O134 O 0.55221 0.04276 0.68864 0.0
O135 O 0.53498 0.03015 0.79165 0.0
O136 O 0.55787 0.99465 0.42864 0.0
O137 O 0.58503 0.98525 0.50773 0.0
O138 O 0.57863 0.05972 0.51036 0.0
C139 C 0.57555 0.98409 0.44612 0.0
O140 O 0.60675 0.05443 0.59264 0.0
O141 O 0.56306 0.9798 0.68854 0.0
C142 C 0.60295 0.07067 0.54931 0.0
O143 O 0.51517 0.97086 0.70032 0.0
O144 O 0.46964 0.9618 0.56504 0.0
O145 O 0.48745 0.97252 0.46211 0.0
C146 C 0.53392 0.56174 0.3995 0.0
C147 C 0.57576 0.50869 0.46637 0.0
C148 C 0.46597 0.433 0.55611 0.0
Mg149 Mg 0.5626 0.55601 0.53651 0.0
O150 O 0.52118 0.52693 0.54222 0.0
Mg151 Mg 0.50204 0.49303 0.46875 0.0
Mg152 Mg 0.51005 0.50232 0.62315 0.0
O153 O 0.49883 0.47771 0.70393 0.0
Mg154 Mg 0.45727 0.44913 0.70873 0.0
Mg155 Mg 0.51776 0.51135 0.77784 0.0
C156 C 0.55373 0.5718 0.69001 0.0
C157 C 0.57275 0.51125 0.69921 0.0
O158 O 0.51404 0.53289 0.39667 0.0
O159 O 0.55456 0.57507 0.44812 0.0
O160 O 0.54725 0.49386 0.44829 0.0
O161 O 0.58704 0.53264 0.50694 0.0
O162 O 0.56939 0.57924 0.63723 0.0
O163 O 0.52921 0.54571 0.69246 0.0
C164 C 0.44718 0.4932 0.54749 0.0
O165 O 0.46178 0.4973 0.605 0.0
O166 O 0.45814 0.49159 0.49155 0.0
O167 O 0.50516 0.47116 0.85003 0.0
O168 O 0.46498 0.42961 0.79609 0.0
O169 O 0.47263 0.51074 0.79817 0.0
C170 C 0.48518 0.44228 0.8457 0.0
O171 O 0.43288 0.47242 0.73856 0.0
O172 O 0.4501 0.42585 0.6085 0.0
C173 C 0.44416 0.49614 0.77974 0.0
O174 O 0.49082 0.45883 0.55401 0.0
O175 O 0.55831 0.50739 0.64157 0.0
O176 O 0.56163 0.51264 0.75511 0.0
H177 H 0.17912 0.46244 0.31222 0.0
H178 H 0.22612 0.56091 0.30072 0.0
H179 H 0.14347 0.46548 0.38658 0.0
H180 H 0.19053 0.56397 0.37644 0.0
H181 H 0.09154 0.48144 0.5513 0.0
H182 H 0.13547 0.48297 0.4982 0.0
H183 H 0.1371 0.54913 0.3629 0.0
H184 H 0.09417 0.54784 0.41552 0.0
C185 C 0.18206 0.48484 0.32598 0.0
C186 C 0.20531 0.51144 0.29953 0.0
C187 C 0.16174 0.48657 0.36942 0.0
C188 C 0.16402 0.51492 0.38753 0.0
C189 C 0.18789 0.54168 0.36291 0.0
C190 C 0.20832 0.53996 0.3195 0.0
C191 C 0.10169 0.49659 0.51096 0.0
C192 C 0.0891 0.51417 0.48708 0.0
C193 C 0.1267 0.49738 0.48026 0.0
C194 C 0.13981 0.51615 0.42604 0.0
C195 C 0.12796 0.5347 0.40483 0.0
C196 C 0.10301 0.53366 0.43471 0.0
H197 H 0.74589 0.15755 0.29653 0.0
H198 H 0.71802 0.22576 0.3177 0.0
H199 H 0.71448 0.13056 0.38852 0.0
H200 H 0.68764 0.19958 0.41098 0.0
H201 H 0.60098 0.11645 0.4845 0.0
H202 H 0.64092 0.15415 0.42046 0.0
H203 H 0.70466 0.12887 0.5066 0.0
H204 H 0.66405 0.09022 0.56956 0.0
C205 C 0.73344 0.16703 0.3215 0.0
C206 C 0.73405 0.19348 0.29895 0.0
C207 C 0.71564 0.15174 0.37478 0.0
C208 C 0.69828 0.16274 0.40718 0.0
C209 C 0.70016 0.19006 0.38653 0.0
C210 C 0.71764 0.2051 0.33294 0.0
C211 C 0.62375 0.11958 0.49156 0.0
C212 C 0.62919 0.10002 0.53145 0.0
C213 C 0.6468 0.14131 0.45471 0.0
C214 C 0.67598 0.14418 0.45703 0.0
C215 C 0.68225 0.12676 0.50231 0.0
C216 C 0.6591 0.10494 0.53937 0.0
H217 H 0.48243 0.66881 0.13795 0.0
H218 H 0.56506 0.73178 0.25726 0.0
H219 H 0.48247 0.6256 0.19062 0.0
H220 H 0.56437 0.68915 0.31272 0.0
H221 H 0.57966 0.61149 0.34668 0.0
H222 H 0.57546 0.65044 0.28564 0.0
H223 H 0.47704 0.59747 0.28719 0.0
H224 H 0.48148 0.55764 0.34509 0.0
C225 C 0.50002 0.67341 0.17708 0.0
C226 C 0.5238 0.70355 0.19354 0.0
C227 C 0.50016 0.64867 0.20711 0.0
C228 C 0.52387 0.65372 0.25481 0.0
C229 C 0.54638 0.68417 0.27438 0.0
C230 C 0.54655 0.70872 0.24348 0.0
C231 C 0.55714 0.60788 0.3324 0.0
C232 C 0.53093 0.58162 0.35051 0.0
C233 C 0.55466 0.63042 0.29838 0.0
C234 C 0.52591 0.62767 0.28324 0.0
C235 C 0.49956 0.60045 0.29793 0.0
C236 C 0.50206 0.57753 0.33086 0.0
H237 H 0.86308 0.59102 0.23675 0.0
H238 H 0.79031 0.50069 0.27515 0.0
H239 H 0.89266 0.59037 0.33736 0.0
H240 H 0.81911 0.50039 0.37574 0.0
H241 H 0.93652 0.58575 0.53596 0.0
H242 H 0.8984 0.58892 0.46156 0.0
H243 H 0.86318 0.49457 0.38872 0.0
H244 H 0.90073 0.49145 0.46304 0.0
C245 C 0.85319 0.57135 0.26734 0.0
C246 C 0.82471 0.54566 0.24721 0.0
C247 C 0.86999 0.57101 0.32522 0.0
C248 C 0.85842 0.54509 0.3642 0.0
C249 C 0.82904 0.5204 0.34619 0.0
C250 C 0.81253 0.5206 0.28837 0.0
C251 C 0.91976 0.56536 0.50609 0.0
C252 C 0.92156 0.53832 0.50535 0.0
C253 C 0.89828 0.56734 0.46261 0.0
C254 C 0.87798 0.54217 0.4184 0.0
C255 C 0.87823 0.51439 0.42225 0.0
C256 C 0.89977 0.51252 0.46505 0.0
H257 H 0.34067 0.78598 0.2651 0.0
H258 H 0.29481 0.83885 0.28393 0.0
H259 H 0.38192 0.82295 0.34474 0.0
H260 H 0.33603 0.87566 0.36363 0.0
H261 H 0.40812 0.92561 0.54105 0.0
H262 H 0.36352 0.88169 0.48092 0.0
H263 H 0.42133 0.87854 0.32989 0.0
H264 H 0.46543 0.92213 0.38919 0.0
C265 C 0.33919 0.80524 0.28683 0.0
C266 C 0.31466 0.80968 0.2676 0.0
C267 C 0.3628 0.82639 0.33234 0.0
C268 C 0.36216 0.85217 0.36017 0.0
C269 C 0.33696 0.85585 0.34342 0.0
C270 C 0.31352 0.83491 0.29729 0.0
C271 C 0.41125 0.91519 0.49564 0.0
C272 C 0.44016 0.92739 0.46961 0.0
C273 C 0.38578 0.89022 0.46109 0.0
C274 C 0.38904 0.87673 0.40085 0.0
C275 C 0.41818 0.88825 0.37653 0.0
C276 C 0.44338 0.91339 0.41024 0.0
H277 H 0.39972 0.26269 0.29875 0.0
H278 H 0.49506 0.30115 0.36368 0.0
H279 H 0.39982 0.30699 0.35496 0.0
H280 H 0.49504 0.34489 0.41948 0.0
H281 H 0.41393 0.37698 0.54017 0.0
H282 H 0.40659 0.33259 0.47073 0.0
H283 H 0.49137 0.3894 0.37948 0.0
H284 H 0.49916 0.43374 0.44976 0.0
C285 C 0.42046 0.28022 0.32612 0.0
C286 C 0.44743 0.27857 0.32649 0.0
C287 C 0.42057 0.30564 0.35771 0.0
C288 C 0.44767 0.32973 0.38981 0.0
C289 C 0.47408 0.32714 0.39319 0.0
C290 C 0.47397 0.30187 0.36196 0.0
C291 C 0.43071 0.3802 0.50423 0.0
C292 C 0.45755 0.40876 0.50172 0.0
C293 C 0.42639 0.35474 0.46432 0.0
C294 C 0.44882 0.35744 0.42123 0.0
C295 C 0.47411 0.38659 0.41374 0.0
C296 C 0.47843 0.41205 0.45356 0.0
H297 H 0.48368 0.81199 0.97646 0.0
H298 H 0.56987 0.83432 0.89558 0.0
H299 H 0.4843 0.85494 0.92105 0.0
H300 H 0.56998 0.87621 0.83821 0.0
H301 H 0.58265 0.96747 0.80037 0.0
H302 H 0.57818 0.92581 0.86654 0.0
H303 H 0.48076 0.87554 0.81652 0.0
H304 H 0.48518 0.918 0.7528 0.0
C305 C 0.50238 0.82563 0.94553 0.0
C306 C 0.52681 0.81992 0.94057 0.0
C307 C 0.5028 0.85031 0.91395 0.0
C308 C 0.52754 0.86954 0.87634 0.0
C309 C 0.55107 0.86262 0.86863 0.0
C310 C 0.55084 0.83831 0.90078 0.0
C311 C 0.5602 0.94781 0.80482 0.0
C312 C 0.53434 0.94588 0.77093 0.0
C313 C 0.55764 0.92372 0.84201 0.0
C314 C 0.52923 0.89682 0.84517 0.0
C315 C 0.50301 0.89582 0.81515 0.0
C316 C 0.50553 0.92022 0.77871 0.0
H317 H 0.7292 0.58276 0.95131 0.0
H318 H 0.72686 0.50112 0.86751 0.0
H319 H 0.69175 0.57723 0.86159 0.0
H320 H 0.69048 0.49613 0.77688 0.0
H321 H 0.58857 0.46884 0.72729 0.0
H322 H 0.63749 0.47967 0.77986 0.0
H323 H 0.67537 0.57573 0.74382 0.0
H324 H 0.62578 0.56449 0.69181 0.0
C325 C 0.7214 0.56422 0.91254 0.0
C326 C 0.73047 0.54207 0.91707 0.0
C327 C 0.70002 0.56106 0.86087 0.0
C328 C 0.68766 0.53588 0.81247 0.0
C329 C 0.6989 0.51534 0.81409 0.0
C330 C 0.71984 0.51827 0.86598 0.0
C331 C 0.60782 0.49194 0.72752 0.0
C332 C 0.60373 0.51571 0.70439 0.0
C333 C 0.63591 0.49831 0.75808 0.0
C334 C 0.66043 0.52871 0.76684 0.0
C335 C 0.65691 0.55215 0.73866 0.0
C336 C 0.62874 0.54568 0.70777 0.0
H337 H 0.18605 0.71476 0.93934 0.0
H338 H 0.19609 0.64917 0.05666 0.0
H339 H 0.14176 0.67339 0.87645 0.0
H340 H 0.15089 0.6071 0.99298 0.0
H341 H 0.08865 0.5488 0.79052 0.0
H342 H 0.13099 0.58198 0.87231 0.0
H343 H 0.08916 0.63758 0.90923 0.0
H344 H 0.04735 0.60502 0.8266 0.0
C345 C 0.17887 0.69138 0.95131 0.0
C346 C 0.19428 0.68517 1.00335 0.0
C347 C 0.15329 0.66768 0.91574 0.0
C348 C 0.14231 0.63712 0.93141 0.0
C349 C 0.15873 0.63055 0.98058 0.0
C350 C 0.18463 0.65451 0.01653 0.0
C351 C 0.08802 0.56754 0.8177 0.0
C352 C 0.0651 0.57482 0.8011 0.0
C353 C 0.1123 0.58653 0.86447 0.0
C354 C 0.11375 0.61282 0.89542 0.0
C355 C 0.089 0.61792 0.88449 0.0
C356 C 0.06499 0.59921 0.83749 0.0
H357 H 0.49122 0.17871 0.04764 0.0
H358 H 0.39308 0.13315 0.05705 0.0
H359 H 0.48646 0.13426 0.98434 0.0
H360 H 0.38845 0.08827 0.99236 0.0
H361 H 0.47444 0.04225 0.93558 0.0
H362 H 0.47007 0.07921 0.01071 0.0
H363 H 0.4002 0.07616 0.8727 0.0
H364 H 0.4043 0.03905 0.79753 0.0
C365 C 0.46855 0.15929 0.03582 0.0
C366 C 0.4425 0.15946 0.05765 0.0
C367 C 0.46591 0.13367 1.00015 0.0
C368 C 0.43717 0.10765 0.98486 0.0
C369 C 0.4109 0.10805 0.00416 0.0
C370 C 0.41355 0.13373 0.04074 0.0
C371 C 0.4576 0.04882 0.92201 0.0
C372 C 0.44014 0.03817 0.86003 0.0
C373 C 0.45523 0.0701 0.96482 0.0
C374 C 0.43518 0.08086 0.9467 0.0
C375 C 0.41585 0.06824 0.88771 0.0
C376 C 0.41837 0.04715 0.84459 0.0
H377 H 0.30194 0.46169 0.03177 0.0
H378 H 0.35006 0.56085 0.05232 0.0
H379 H 0.3359 0.463 0.94797 0.0
H380 H 0.38444 0.56209 0.96658 0.0
H381 H 0.38186 0.46911 0.76033 0.0
H382 H 0.34755 0.47624 0.83212 0.0
H383 H 0.425 0.54846 0.95153 0.0
H384 H 0.45941 0.54185 0.87896 0.0
C385 C 0.31977 0.4839 0.01834 0.0
C386 C 0.32317 0.51121 0.04909 0.0
C387 C 0.33913 0.48461 0.96946 0.0
C388 C 0.36264 0.51263 0.94956 0.0
C389 C 0.36649 0.5401 0.98072 0.0
C390 C 0.34683 0.5394 0.02981 0.0
C391 C 0.39165 0.48695 0.80097 0.0
C392 C 0.42345 0.5045 0.81439 0.0
C393 C 0.37195 0.49091 0.84249 0.0
C394 C 0.38352 0.51248 0.89857 0.0
C395 C 0.4153 0.53165 0.90889 0.0
C396 C 0.43504 0.52772 0.86727 0.0
H397 H 0.86672 0.25258 0.02079 0.0
H398 H 0.82987 0.31374 0.00511 0.0
H399 H 0.90989 0.28737 0.95576 0.0
H400 H 0.8726 0.34794 0.94251 0.0
H401 H 0.96904 0.41986 0.91433 0.0
H402 H 0.9323 0.38059 0.98231 0.0
H403 H 0.91527 0.31075 0.82655 0.0
H404 H 0.95204 0.35011 0.75735 0.0
C405 C 0.86768 0.27318 1.00331 0.0
C406 C 0.84485 0.28035 0.01835 0.0
C407 C 0.89231 0.293 0.9663 0.0
C408 C 0.89464 0.32045 0.94524 0.0
C409 C 0.87154 0.32715 0.95909 0.0
C410 C 0.84693 0.30734 0.99471 0.0
C411 C 0.95799 0.39614 0.89474 0.0
C412 C 0.96318 0.38826 0.82977 0.0
C413 C 0.93696 0.37367 0.93383 0.0
C414 C 0.9209 0.34278 0.90929 0.0
C415 C 0.92751 0.33444 0.84656 0.0
C416 C 0.9484 0.35703 0.80692 0.0
H417 H 0.797 0.4497 0.93352 0.0
H418 H 0.84728 0.54884 0.9562 0.0
H419 H 0.83561 0.45092 0.85972 0.0
H420 H 0.88511 0.54984 0.88345 0.0
H421 H 0.96604 0.53359 0.84771 0.0
H422 H 0.92372 0.53243 0.90453 0.0
H423 H 0.86065 0.4716 0.74237 0.0
H424 H 0.90372 0.47319 0.68435 0.0
C425 C 0.81607 0.47165 0.92265 0.0
C426 C 0.81913 0.49911 0.95159 0.0
C427 C 0.83798 0.47236 0.87995 0.0
C428 C 0.86342 0.5005 0.86603 0.0
C429 C 0.86593 0.52781 0.89364 0.0
C430 C 0.84414 0.52715 0.93556 0.0
C431 C 0.94321 0.52045 0.82345 0.0
C432 C 0.93814 0.50372 0.76144 0.0
C433 C 0.91896 0.51972 0.85604 0.0
C434 C 0.88883 0.50182 0.82809 0.0
C435 C 0.88364 0.48544 0.76521 0.0
C436 C 0.90822 0.48665 0.73167 0.0
H437 H 0.25367 0.82059 0.90887 0.0
H438 H 0.32908 0.81533 0.00372 0.0
H439 H 0.28432 0.84527 0.81434 0.0
H440 H 0.36066 0.84208 0.91297 0.0
H441 H 0.41437 0.88191 0.74098 0.0
H442 H 0.37467 0.84363 0.80565 0.0
H443 H 0.3223 0.88991 0.78064 0.0
H444 H 0.36068 0.92611 0.71141 0.0
C445 C 0.277 0.82511 0.90976 0.0
C446 C 0.28908 0.81622 0.96371 0.0
C447 C 0.29471 0.83938 0.85561 0.0
C448 C 0.32528 0.84593 0.85508 0.0
C449 C 0.33713 0.83686 0.90963 0.0
C450 C 0.31913 0.82183 0.96258 0.0
C451 C 0.39366 0.88292 0.74697 0.0
C452 C 0.39063 0.90697 0.72123 0.0
C453 C 0.3711 0.86139 0.78541 0.0
C454 C 0.34553 0.8641 0.80123 0.0
C455 C 0.34137 0.88666 0.77006 0.0
C456 C 0.36347 0.90756 0.72982 0.0
H457 H 0.53979 0.32572 0.05335 0.0
H458 H 0.44665 0.29373 0.10286 0.0
H459 H 0.53953 0.3678 0.99441 0.0
H460 H 0.44682 0.3357 0.04727 0.0
H461 H 0.44119 0.38413 0.86537 0.0
H462 H 0.4452 0.34711 0.93272 0.0
H463 H 0.53652 0.41582 0.00698 0.0
H464 H 0.53286 0.45324 0.93666 0.0
C465 C 0.51939 0.3277 0.05184 0.0
C466 C 0.49304 0.30595 0.08134 0.0
C467 C 0.51932 0.35192 0.01878 0.0
C468 C 0.49299 0.35487 0.01538 0.0
C469 C 0.46721 0.33371 0.04727 0.0
C470 C 0.46714 0.30953 0.0792 0.0
C471 C 0.4621 0.39163 0.89644 0.0
C472 C 0.4867 0.42173 0.89553 0.0
C473 C 0.46435 0.37033 0.93548 0.0
C474 C 0.49117 0.37847 0.97547 0.0
C475 C 0.51565 0.40879 0.97618 0.0
C476 C 0.5134 0.4303 0.93669 0.0
H477 H 0.15593 0.41597 0.0143 0.0
H478 H 0.22992 0.50504 0.9724 0.0
H479 H 0.12646 0.41656 0.91342 0.0
H480 H 0.20124 0.50524 0.87149 0.0
H481 H 0.12109 0.51581 0.78164 0.0
H482 H 0.15813 0.51229 0.85681 0.0
H483 H 0.12027 0.4169 0.78938 0.0
H484 H 0.08262 0.42048 0.71419 0.0
C485 C 0.16609 0.43535 0.98292 0.0
C486 C 0.19492 0.46072 1.00213 0.0
C487 C 0.14935 0.43564 0.92486 0.0
C488 C 0.16132 0.46119 0.88472 0.0
C489 C 0.19099 0.48554 0.90192 0.0
C490 C 0.20744 0.48539 0.95993 0.0
C491 C 0.12135 0.49438 0.78097 0.0
C492 C 0.09894 0.46846 0.74198 0.0
C493 C 0.1426 0.49228 0.82429 0.0
C494 C 0.14198 0.46415 0.82997 0.0
C495 C 0.12107 0.43877 0.78699 0.0
C496 C 0.09986 0.44096 0.74302 0.0
H497 H 0.72141 0.16275 1.00097 0.0
H498 H 0.68256 0.22126 0.96785 0.0
H499 H 0.6827 0.12364 0.92136 0.0
H500 H 0.64354 0.18156 0.88713 0.0
H501 H 0.5935 0.10432 0.70542 0.0
H502 H 0.63756 0.14819 0.76848 0.0
H503 H 0.62441 0.09261 0.93847 0.0
H504 H 0.58077 0.04955 0.87699 0.0
C505 C 0.7048 0.16746 0.97627 0.0
C506 C 0.70487 0.19504 0.9916 0.0
C507 C 0.68268 0.14502 0.93048 0.0
C508 C 0.66015 0.14959 0.89836 0.0
C509 C 0.66086 0.17764 0.91097 0.0
C510 C 0.683 0.20018 0.95752 0.0
C511 C 0.60032 0.10157 0.75603 0.0
C512 C 0.58367 0.07363 0.7865 0.0
C513 C 0.62528 0.12663 0.7921 0.0
C514 C 0.63426 0.12368 0.85823 0.0
C515 C 0.61807 0.09546 0.88748 0.0
C516 C 0.59302 0.07084 0.85229 0.0
H517 H 0.62096 0.73981 0.95558 0.0
H518 H 0.52309 0.69644 0.91617 0.0
H519 H 0.62054 0.69646 0.89402 0.0
H520 H 0.52281 0.65372 0.85469 0.0
H521 H 0.60315 0.62985 0.7016 0.0
H522 H 0.61025 0.67241 0.7773 0.0
H523 H 0.53084 0.61062 0.88003 0.0
H524 H 0.52324 0.56811 0.80354 0.0
C525 C 0.59947 0.72127 0.93318 0.0
C526 C 0.57206 0.72153 0.94089 0.0
C527 C 0.59923 0.69643 0.89825 0.0
C528 C 0.57156 0.67145 0.87078 0.0
C529 C 0.54438 0.67223 0.87694 0.0
C530 C 0.54461 0.69694 0.91152 0.0
C531 C 0.58752 0.62515 0.74117 0.0
C532 C 0.56219 0.59565 0.74549 0.0
C533 C 0.59171 0.64959 0.78472 0.0
C534 C 0.57069 0.64494 0.83346 0.0
C535 C 0.54697 0.61497 0.84171 0.0
C536 C 0.54276 0.59055 0.79818 0.0
H537 H 0.54105 0.19307 0.27292 0.0
H538 H 0.46031 0.17728 0.37151 0.0
H539 H 0.53988 0.14955 0.32777 0.0
H540 H 0.45961 0.13485 0.42752 0.0
H541 H 0.44052 0.04094 0.45662 0.0
H542 H 0.44685 0.08369 0.39202 0.0
H543 H 0.54463 0.12857 0.43411 0.0
H544 H 0.53828 0.0851 0.49696 0.0
C545 C 0.52359 0.18082 0.30768 0.0
C546 C 0.50064 0.18834 0.31767 0.0
C547 C 0.5228 0.15582 0.33877 0.0
C548 C 0.49913 0.13815 0.38052 0.0
C549 C 0.47751 0.1472 0.39376 0.0
C550 C 0.47813 0.17179 0.36237 0.0
C551 C 0.46341 0.0596 0.4508 0.0
C552 C 0.48884 0.0598 0.48246 0.0
C553 C 0.46706 0.08429 0.41443 0.0
C554 C 0.49619 0.11004 0.40975 0.0
C555 C 0.52187 0.1092 0.43699 0.0
C556 C 0.51823 0.08422 0.47283 0.0
H557 H 0.29051 0.42269 0.29604 0.0
H558 H 0.2936 0.50458 0.38054 0.0
H559 H 0.32796 0.42787 0.3854 0.0
H560 H 0.32993 0.50921 0.47092 0.0
H561 H 0.39404 0.44002 0.55426 0.0
H562 H 0.34451 0.42912 0.5026 0.0
H563 H 0.38274 0.52538 0.46811 0.0
H564 H 0.43159 0.53587 0.52046 0.0
C565 C 0.29847 0.4412 0.33492 0.0
C566 C 0.28961 0.46352 0.3307 0.0
C567 C 0.31985 0.44417 0.38639 0.0
C568 C 0.33241 0.46932 0.4349 0.0
C569 C 0.32137 0.49003 0.4336 0.0
C570 C 0.30045 0.4873 0.38188 0.0
C571 C 0.39117 0.45894 0.53873 0.0
C572 C 0.41625 0.48887 0.54253 0.0
C573 C 0.36303 0.45266 0.50803 0.0
C574 C 0.35963 0.47627 0.48036 0.0
C575 C 0.38423 0.50661 0.4895 0.0
C576 C 0.41227 0.51279 0.51994 0.0
H577 H 0.82236 0.35982 0.19589 0.0
H578 H 0.82557 0.29494 0.32798 0.0
H579 H 0.86841 0.40157 0.25806 0.0
H580 H 0.87078 0.33605 0.38949 0.0
H581 H 0.93485 0.46283 0.45541 0.0
H582 H 0.89023 0.42978 0.37866 0.0
H583 H 0.92417 0.36676 0.35012 0.0
H584 H 0.96836 0.39934 0.4272 0.0
C585 C 0.83236 0.35469 0.23928 0.0
C586 C 0.82069 0.32422 0.25695 0.0
C587 C 0.85877 0.37843 0.27434 0.0
C588 C 0.87363 0.37179 0.32705 0.0
C589 C 0.86038 0.34167 0.34763 0.0
C590 C 0.8343 0.31819 0.31291 0.0
C591 C 0.93331 0.44245 0.43096 0.0
C592 C 0.95481 0.43333 0.44835 0.0
C593 C 0.90769 0.42351 0.3872 0.0
C594 C 0.90338 0.39534 0.36021 0.0
C595 C 0.92657 0.388 0.37184 0.0
C596 C 0.95197 0.40674 0.41562 0.0
H597 H 0.57264 0.8677 0.10637 0.0
H598 H 0.60279 0.84044 0.28385 0.0
H599 H 0.57783 0.91251 0.17059 0.0
H600 H 0.60641 0.88432 0.35011 0.0
H601 H 0.62294 0.97248 0.45119 0.0
H602 H 0.63019 0.93789 0.37465 0.0
H603 H 0.55007 0.92092 0.25148 0.0
H604 H 0.5438 0.95644 0.32603 0.0
C605 C 0.58063 0.87163 0.15932 0.0
C606 C 0.58735 0.85097 0.1907 0.0
C607 C 0.58336 0.89707 0.19628 0.0
C608 C 0.59213 0.90189 0.26585 0.0
C609 C 0.59996 0.88162 0.29649 0.0
C610 C 0.59776 0.8564 0.25895 0.0
C611 C 0.60726 0.96176 0.40694 0.0
C612 C 0.58271 0.96704 0.39473 0.0
C613 C 0.61127 0.94176 0.36338 0.0
C614 C 0.59055 0.92628 0.30723 0.0
C615 C 0.56681 0.93272 0.29353 0.0
C616 C 0.5631 0.95306 0.33648 0.0
H617 H 0.71708 0.54286 0.21352 0.0
H618 H 0.67057 0.4437 0.19555 0.0
H619 H 0.68312 0.54132 0.29729 0.0
H620 H 0.63605 0.44225 0.28138 0.0
H621 H 0.63811 0.53593 0.48533 0.0
H622 H 0.67235 0.52849 0.41392 0.0
H623 H 0.59484 0.45553 0.2962 0.0
H624 H 0.56048 0.46244 0.36842 0.0
C625 C 0.6996 0.52057 0.22749 0.0
C626 C 0.69669 0.49334 0.19748 0.0
C627 C 0.68023 0.51975 0.2764 0.0
C628 C 0.65715 0.4917 0.29714 0.0
C629 C 0.6537 0.46427 0.26663 0.0
C630 C 0.67342 0.46508 0.21748 0.0
C631 C 0.62829 0.51786 0.44517 0.0
C632 C 0.59648 0.50021 0.43206 0.0
C633 C 0.64795 0.5137 0.4039 0.0
C634 C 0.63634 0.49185 0.34833 0.0
C635 C 0.60457 0.47256 0.33843 0.0
C636 C 0.58486 0.47668 0.37983 0.0
H637 H 0.13919 0.73482 0.17227 0.0
H638 H 0.20345 0.7335 0.32026 0.0
H639 H 0.09675 0.69974 0.23808 0.0
H640 H 0.16138 0.69939 0.3866 0.0
H641 H 0.07984 0.65731 0.51439 0.0
H642 H 0.11614 0.69899 0.45057 0.0
H643 H 0.07988 0.64106 0.2661 0.0
H644 H 0.04355 0.59878 0.32998 0.0
C645 C 0.14422 0.72781 0.21988 0.0
C646 C 0.17449 0.7369 0.2416 0.0
C647 C 0.12002 0.70759 0.25703 0.0
C648 C 0.12589 0.69691 0.31719 0.0
C649 C 0.15627 0.70746 0.34064 0.0
C650 C 0.18031 0.72696 0.30279 0.0
C651 C 0.07914 0.65343 0.46008 0.0
C652 C 0.0589 0.6245 0.42742 0.0
C653 C 0.1 0.67738 0.42367 0.0
C654 C 0.10078 0.67317 0.35363 0.0
C655 C 0.07952 0.6449 0.32011 0.0
C656 C 0.05889 0.62069 0.35675 0.0
loop_
_geom_bond_atom_site_label_1
_geom_bond_atom_site_label_2
_geom_bond_distance
_geom_bond_site_symmetry_2
_ccdc_geom_bond_type
C0 O2 1.247 . S
C0 O4 1.258 . S
C1 O8 1.247 . S
C1 O9 1.258 . S
O2 C0 1.247 . S
O2 Zn3 2.028 . S
Zn3 O2 2.028 . S
Zn3 O7 2.035 . S
Zn3 O9 2.035 . S
Zn3 O10 2.028 . S
O4 C0 1.258 . S
O4 Zn5 2.035 . S
Zn5 O4 2.035 . S
Zn5 O6 2.028 . S
Zn5 O8 2.028 . S
Zn5 O11 2.035 . S
O6 Zn5 2.028 . S
O6 C12 1.247 . S
O7 Zn3 2.035 . S
O7 C12 1.258 . S
O8 C1 1.247 . S
O8 Zn5 2.028 . S
O9 C1 1.258 . S
O9 Zn3 2.035 . S
O10 Zn3 2.028 . S
O10 C13 1.247 . S
O11 Zn5 2.035 . S
O11 C13 1.258 . S
C12 O6 1.247 . S
C12 O7 1.258 . S
C13 O10 1.247 . S
C13 O11 1.258 . S
C14 O16 1.247 . S
C14 O18 1.258 . S
C15 O22 1.247 . S
C15 O23 1.258 . S
O16 C14 1.247 . S
O16 Zn17 2.028 . S
Zn17 O16 2.028 . S
Zn17 O21 2.035 . S
Zn17 O23 2.035 . S
Zn17 O24 2.028 . S
O18 C14 1.258 . S
O18 Zn19 2.035 . S
Zn19 O18 2.035 . S
Zn19 O20 2.028 . S
Zn19 O22 2.028 . S
Zn19 O25 2.035 . S
O20 Zn19 2.028 . S
O20 C26 1.247 . S
O21 Zn17 2.035 . S
O21 C26 1.258 . S
O22 C15 1.247 . S
O22 Zn19 2.028 . S
O23 C15 1.258 . S
O23 Zn17 2.035 . S
O24 Zn17 2.028 . S
O24 C27 1.247 . S
O25 Zn19 2.035 . S
O25 C27 1.258 . S
C26 O20 1.247 . S
C26 O21 1.258 . S
C27 O24 1.247 . S
C27 O25 1.258 . S
C28 O30 1.247 . S
C28 O32 1.258 . S
C29 O36 1.247 . S
C29 O37 1.258 . S
O30 C28 1.247 . S
O30 Zn31 2.028 . S
Zn31 O30 2.028 . S
Zn31 O35 2.035 . S
Zn31 O37 2.035 1_554 S
Zn31 O38 2.028 1_554 S
O32 C28 1.258 . S
O32 Zn33 2.035 . S
Zn33 O32 2.035 . S
Zn33 O34 2.028 . S
Zn33 O36 2.028 1_554 S
Zn33 O39 2.035 1_554 S
O34 Zn33 2.028 . S
O34 C40 1.247 . S
O35 Zn31 2.035 . S
O35 C40 1.258 . S
O36 C29 1.247 . S
O36 Zn33 2.028 1_556 S
O37 C29 1.258 . S
O37 Zn31 2.035 1_556 S
O38 Zn31 2.028 1_556 S
O38 C41 1.247 . S
O39 Zn33 2.035 1_556 S
O39 C41 1.258 . S
C40 O34 1.247 . S
C40 O35 1.258 . S
C41 O38 1.247 . S
C41 O39 1.258 . S
C42 O44 1.247 1_556 S
C42 O46 1.258 . S
C43 O50 1.247 . S
C43 O51 1.258 . S
O44 C42 1.247 1_554 S
O44 Zn45 2.028 . S
Zn45 O44 2.028 . S
Zn45 O49 2.035 . S
Zn45 O51 2.035 . S
Zn45 O52 2.028 . S
O46 C42 1.258 . S
O46 Zn47 2.035 1_556 S
Zn47 O46 2.035 1_554 S
Zn47 O48 2.028 1_554 S
Zn47 O50 2.028 . S
Zn47 O53 2.035 . S
O48 Zn47 2.028 1_556 S
O48 C54 1.247 . S
O49 Zn45 2.035 . S
O49 C54 1.258 1_554 S
O50 C43 1.247 . S
O50 Zn47 2.028 . S
O51 C43 1.258 . S
O51 Zn45 2.035 . S
O52 Zn45 2.028 . S
O52 C55 1.247 . S
O53 Zn47 2.035 . S
O53 C55 1.258 . S
C54 O48 1.247 . S
C54 O49 1.258 1_556 S
C55 O52 1.247 . S
C55 O53 1.258 . S
C56 O58 1.247 . S
C56 O60 1.258 . S
C57 O64 1.247 . S
C57 O65 1.258 . S
O58 C56 1.247 . S
O58 Zn59 2.028 . S
Zn59 O58 2.028 . S
Zn59 O63 2.035 . S
Zn59 O65 2.035 . S
Zn59 O66 2.028 . S
O60 C56 1.258 . S
O60 Zn61 2.035 . S
Zn61 O60 2.035 . S
Zn61 O62 2.028 . S
Zn61 O64 2.028 . S
Zn61 O67 2.035 . S
O62 Zn61 2.028 . S
O62 C68 1.247 . S
O63 Zn59 2.035 . S
O63 C68 1.258 . S
O64 C57 1.247 . S
O64 Zn61 2.028 . S
O65 C57 1.258 . S
O65 Zn59 2.035 . S
O66 Zn59 2.028 . S
O66 C69 1.247 . S
O67 Zn61 2.035 . S
O67 C69 1.258 . S
C68 O62 1.247 . S
C68 O63 1.258 . S
C69 O66 1.247 . S
C69 O67 1.258 . S
C70 O72 1.247 . S
C70 O74 1.258 . S
C71 O78 1.247 . S
C71 O79 1.258 . S
O72 C70 1.247 . S
O72 Zn73 2.028 . S
Zn73 O72 2.028 . S
Zn73 O77 2.035 . S
Zn73 O79 2.035 . S
Zn73 O80 2.028 . S
O74 C70 1.258 . S
O74 Zn75 2.035 . S
Zn75 O74 2.035 . S
Zn75 O76 2.028 . S
Zn75 O78 2.028 . S
Zn75 O81 2.035 . S
O76 Zn75 2.028 . S
O76 C82 1.247 . S
O77 Zn73 2.035 . S
O77 C82 1.258 . S
O78 C71 1.247 . S
O78 Zn75 2.028 . S
O79 C71 1.258 . S
O79 Zn73 2.035 . S
O80 Zn73 2.028 . S
O80 C83 1.247 . S
O81 Zn75 2.035 . S
O81 C83 1.258 . S
C82 O76 1.247 . S
C82 O77 1.258 . S
C83 O80 1.247 . S
C83 O81 1.258 . S
C84 O96 1.241 . S
C84 O97 1.280 . S
C85 O98 1.277 . S
C85 O99 1.245 . S
C86 O110 1.247 . S
C86 O112 1.289 . S
Mg87 O88 1.926 . S
Mg87 O97 1.984 . S
Mg87 O99 1.988 1_655 S
Mg87 O100 2.061 . S
O88 Mg87 1.926 . S
O88 Mg89 1.986 1_655 S
O88 Mg90 1.917 1_655 S
Mg89 O88 1.986 1_455 S
Mg89 O96 2.042 1_455 S
Mg89 O98 2.041 . S
Mg89 O104 2.038 1_455 S
Mg89 O112 2.238 . S
Mg90 O88 1.917 1_455 S
Mg90 O91 1.917 . S
Mg90 O101 2.106 1_455 S
Mg90 O103 2.079 1_455 S
Mg90 O112 2.106 . S
Mg90 O113 2.079 . S
O91 Mg90 1.917 . S
O91 Mg92 1.926 . S
O91 Mg93 1.986 . S
Mg92 O91 1.926 . S
Mg92 O106 1.984 . S
Mg92 O109 1.988 1_455 S
Mg92 O110 2.061 . S
Mg93 O91 1.986 . S
Mg93 O101 2.238 1_455 S
Mg93 O105 2.042 . S
Mg93 O107 2.041 1_455 S
Mg93 O114 2.038 . S
C94 O100 1.247 . S
C94 O101 1.289 . S
C95 O113 1.245 . S
C95 O114 1.274 . S
O96 C84 1.241 . S
O96 Mg89 2.042 1_655 S
O97 C84 1.280 . S
O97 Mg87 1.984 . S
O98 C85 1.277 . S
O98 Mg89 2.041 . S
O99 C85 1.245 . S
O99 Mg87 1.988 1_455 S
O100 Mg87 2.061 . S
O100 C94 1.247 . S
O101 Mg90 2.106 1_655 S
O101 Mg93 2.238 1_655 S
O101 C94 1.289 . S
C102 O103 1.245 . S
C102 O104 1.274 . S
O103 Mg90 2.079 1_655 S
O103 C102 1.245 . S
O104 Mg89 2.038 1_655 S
O104 C102 1.274 . S
O105 Mg93 2.042 . S
O105 C108 1.241 . S
O106 Mg92 1.984 . S
O106 C108 1.280 . S
O107 Mg93 2.041 1_655 S
O107 C111 1.277 . S
C108 O105 1.241 . S
C108 O106 1.280 . S
O109 Mg92 1.988 1_655 S
O109 C111 1.245 . S
O110 C86 1.247 . S
O110 Mg92 2.061 . S
C111 O107 1.277 . S
C111 O109 1.245 . S
O112 C86 1.289 . S
O112 Mg89 2.238 . S
O112 Mg90 2.106 . S
O113 Mg90 2.079 . S
O113 C95 1.245 . S
O114 Mg93 2.038 . S
O114 C95 1.274 . S
C115 O127 1.241 . S
C115 O128 1.280 . S
C116 O129 1.277 . S
C116 O130 1.245 . S
C117 O141 1.247 . S
C117 O143 1.289 . S
Mg118 O119 1.926 . S
Mg118 O128 1.984 . S
Mg118 O130 1.988 1_545 S
Mg118 O131 2.061 . S
O119 Mg118 1.926 . S
O119 Mg120 1.986 . S
O119 Mg121 1.917 . S
Mg120 O119 1.986 . S
Mg120 O127 2.042 . S
Mg120 O129 2.041 1_545 S
Mg120 O135 2.038 . S
Mg120 O143 2.238 1_545 S
Mg121 O119 1.917 . S
Mg121 O122 1.917 1_545 S
Mg121 O132 2.106 . S
Mg121 O134 2.079 . S
Mg121 O143 2.106 1_545 S
Mg121 O144 2.079 1_545 S
O122 Mg121 1.917 1_565 S
O122 Mg123 1.926 . S
O122 Mg124 1.986 1_565 S
Mg123 O122 1.926 . S
Mg123 O137 1.984 . S
Mg123 O140 1.988 1_565 S
Mg123 O141 2.061 . S
Mg124 O122 1.986 1_545 S
Mg124 O132 2.238 . S
Mg124 O136 2.042 1_545 S
Mg124 O138 2.041 . S
Mg124 O145 2.038 1_545 S
C125 O131 1.247 . S
C125 O132 1.289 . S
C126 O144 1.245 . S
C126 O145 1.274 . S
O127 C115 1.241 . S
O127 Mg120 2.042 . S
O128 C115 1.280 . S
O128 Mg118 1.984 . S
O129 C116 1.277 . S
O129 Mg120 2.041 1_565 S
O130 C116 1.245 . S
O130 Mg118 1.988 1_565 S
O131 Mg118 2.061 . S
O131 C125 1.247 . S
O132 Mg121 2.106 . S
O132 Mg124 2.238 . S
O132 C125 1.289 . S
C133 O134 1.245 . S
C133 O135 1.274 . S
O134 Mg121 2.079 . S
O134 C133 1.245 . S
O135 Mg120 2.038 . S
O135 C133 1.274 . S
O136 Mg124 2.042 1_565 S
O136 C139 1.241 . S
O137 Mg123 1.984 . S
O137 C139 1.280 . S
O138 Mg124 2.041 . S
O138 C142 1.277 . S
C139 O136 1.241 . S
C139 O137 1.280 . S
O140 Mg123 1.988 1_545 S
O140 C142 1.245 . S
O141 C117 1.247 . S
O141 Mg123 2.061 . S
C142 O138 1.277 . S
C142 O140 1.245 . S
O143 C117 1.289 . S
O143 Mg120 2.238 1_565 S
O143 Mg121 2.106 1_565 S
O144 Mg121 2.079 1_565 S
O144 C126 1.245 . S
O145 Mg124 2.038 1_565 S
O145 C126 1.274 . S
C146 O158 1.241 . S
C146 O159 1.280 . S
C147 O160 1.277 . S
C147 O161 1.245 . S
C148 O172 1.247 . S
C148 O174 1.289 . S
Mg149 O150 1.926 . S
Mg149 O159 1.984 . S
Mg149 O161 1.988 . S
Mg149 O162 2.061 . S
O150 Mg149 1.926 . S
O150 Mg151 1.986 . S
O150 Mg152 1.917 . S
Mg151 O150 1.986 . S
Mg151 O158 2.042 . S
Mg151 O160 2.041 . S
Mg151 O166 2.038 . S
Mg151 O174 2.238 . S
Mg152 O150 1.917 . S
Mg152 O153 1.917 . S
Mg152 O163 2.106 . S
Mg152 O165 2.079 . S
Mg152 O174 2.106 . S
Mg152 O175 2.079 . S
O153 Mg152 1.917 . S
O153 Mg154 1.926 . S
O153 Mg155 1.986 . S
Mg154 O153 1.926 . S
Mg154 O168 1.984 . S
Mg154 O171 1.988 . S
Mg154 O172 2.061 . S
Mg155 O153 1.986 . S
Mg155 O163 2.238 . S
Mg155 O167 2.042 . S
Mg155 O169 2.041 . S
Mg155 O176 2.038 . S
C156 O162 1.247 . S
C156 O163 1.289 . S
C157 O175 1.245 . S
C157 O176 1.274 . S
O158 C146 1.241 . S
O158 Mg151 2.042 . S
O159 C146 1.280 . S
O159 Mg149 1.984 . S
O160 C147 1.277 . S
O160 Mg151 2.041 . S
O161 C147 1.245 . S
O161 Mg149 1.988 . S
O162 Mg149 2.061 . S
O162 C156 1.247 . S
O163 Mg152 2.106 . S
O163 Mg155 2.238 . S
O163 C156 1.289 . S
C164 O165 1.245 . S
C164 O166 1.274 . S
O165 Mg152 2.079 . S
O165 C164 1.245 . S
O166 Mg151 2.038 . S
O166 C164 1.274 . S
O167 Mg155 2.042 . S
O167 C170 1.241 . S
O168 Mg154 1.984 . S
O168 C170 1.280 . S
O169 Mg155 2.041 . S
O169 C173 1.277 . S
C170 O167 1.241 . S
C170 O168 1.280 . S
O171 Mg154 1.988 . S
O171 C173 1.245 . S
O172 C148 1.247 . S
O172 Mg154 2.061 . S
C173 O169 1.277 . S
C173 O171 1.245 . S
O174 C148 1.289 . S
O174 Mg151 2.238 . S
O174 Mg152 2.106 . S
O175 Mg152 2.079 . S
O175 C157 1.245 . S
O176 Mg155 2.038 . S
O176 C157 1.274 . S
H177 C185 0.950 . S
H178 C190 0.950 . S
H179 C187 0.950 . S
H180 C189 0.950 . S
H181 C191 0.950 . S
H182 C193 0.950 . S
H183 C195 0.950 . S
H184 C196 0.950 . S
C185 H177 0.950 . S
C185 C186 1.386 . S
C185 C187 1.391 . S
C186 C185 1.386 . S
C186 C190 1.393 . S
C187 H179 0.950 . S
C187 C185 1.391 . S
C187 C188 1.400 . S
C188 C187 1.400 . S
C188 C189 1.398 . S
C188 C194 1.491 . S
C189 H180 0.950 . S
C189 C188 1.398 . S
C189 C190 1.391 . S
C190 H178 0.950 . S
C190 C186 1.393 . S
C190 C189 1.391 . S
C191 H181 0.950 . S
C191 C192 1.386 . S
C191 C193 1.391 . S
C192 C191 1.386 . S
C192 C196 1.393 . S
C193 H182 0.950 . S
C193 C191 1.391 . S
C193 C194 1.400 . S
C194 C188 1.491 . S
C194 C193 1.400 . S
C194 C195 1.398 . S
C195 H183 0.950 . S
C195 C194 1.398 . S
C195 C196 1.391 . S
C196 H184 0.950 . S
C196 C192 1.393 . S
C196 C195 1.391 . S
H197 C205 0.950 . S
H198 C210 0.950 . S
H199 C207 0.950 . S
H200 C209 0.950 . S
H201 C211 0.950 . S
H202 C213 0.950 . S
H203 C215 0.950 . S
H204 C216 0.950 . S
C205 H197 0.950 . S
C205 C206 1.386 . S
C205 C207 1.391 . S
C206 C205 1.386 . S
C206 C210 1.393 . S
C207 H199 0.950 . S
C207 C205 1.391 . S
C207 C208 1.400 . S
C208 C207 1.400 . S
C208 C209 1.398 . S
C208 C214 1.491 . S
C209 H200 0.950 . S
C209 C208 1.398 . S
C209 C210 1.391 . S
C210 H198 0.950 . S
C210 C206 1.393 . S
C210 C209 1.391 . S
C211 H201 0.950 . S
C211 C212 1.386 . S
C211 C213 1.391 . S
C212 C211 1.386 . S
C212 C216 1.393 . S
C213 H202 0.950 . S
C213 C211 1.391 . S
C213 C214 1.400 . S
C214 C208 1.491 . S
C214 C213 1.400 . S
C214 C215 1.398 . S
C215 H203 0.950 . S
C215 C214 1.398 . S
C215 C216 1.391 . S
C216 H204 0.950 . S
C216 C212 1.393 . S
C216 C215 1.391 . S
H217 C225 0.950 . S
H218 C230 0.950 . S
H219 C227 0.950 . S
H220 C229 0.950 . S
H221 C231 0.950 . S
H222 C233 0.950 . S
H223 C235 0.950 . S
H224 C236 0.950 . S
C225 H217 0.950 . S
C225 C226 1.386 . S
C225 C227 1.391 . S
C226 C225 1.386 . S
C226 C230 1.393 . S
C227 H219 0.950 . S
C227 C225 1.391 . S
C227 C228 1.400 . S
C228 C227 1.400 . S
C228 C229 1.398 . S
C228 C234 1.491 . S
C229 H220 0.950 . S
C229 C228 1.398 . S
C229 C230 1.391 . S
C230 H218 0.950 . S
C230 C226 1.393 . S
C230 C229 1.391 . S
C231 H221 0.950 . S
C231 C232 1.386 . S
C231 C233 1.391 . S
C232 C231 1.386 . S
C232 C236 1.393 . S
C233 H222 0.950 . S
C233 C231 1.391 . S
C233 C234 1.400 . S
C234 C228 1.491 . S
C234 C233 1.400 . S
C234 C235 1.398 . S
C235 H223 0.950 . S
C235 C234 1.398 . S
C235 C236 1.391 . S
C236 H224 0.950 . S
C236 C232 1.393 . S
C236 C235 1.391 . S
H237 C245 0.950 . S
H238 C250 0.950 . S
H239 C247 0.950 . S
H240 C249 0.950 . S
H241 C251 0.950 . S
H242 C253 0.950 . S
H243 C255 0.950 . S
H244 C256 0.950 . S
C245 H237 0.950 . S
C245 C246 1.386 . S
C245 C247 1.391 . S
C246 C245 1.386 . S
C246 C250 1.393 . S
C247 H239 0.950 . S
C247 C245 1.391 . S
C247 C248 1.400 . S
C248 C247 1.400 . S
C248 C249 1.398 . S
C248 C254 1.491 . S
C249 H240 0.950 . S
C249 C248 1.398 . S
C249 C250 1.391 . S
C250 H238 0.950 . S
C250 C246 1.393 . S
C250 C249 1.391 . S
C251 H241 0.950 . S
C251 C252 1.386 . S
C251 C253 1.391 . S
C252 C251 1.386 . S
C252 C256 1.393 . S
C253 H242 0.950 . S
C253 C251 1.391 . S
C253 C254 1.400 . S
C254 C248 1.491 . S
C254 C253 1.400 . S
C254 C255 1.398 . S
C255 H243 0.950 . S
C255 C254 1.398 . S
C255 C256 1.391 . S
C256 H244 0.950 . S
C256 C252 1.393 . S
C256 C255 1.391 . S
H257 C265 0.950 . S
H258 C270 0.950 . S
H259 C267 0.950 . S
H260 C269 0.950 . S
H261 C271 0.950 . S
H262 C273 0.950 . S
H263 C275 0.950 . S
H264 C276 0.950 . S
C265 H257 0.950 . S
C265 C266 1.386 . S
C265 C267 1.391 . S
C266 C265 1.386 . S
C266 C270 1.393 . S
C267 H259 0.950 . S
C267 C265 1.391 . S
C267 C268 1.400 . S
C268 C267 1.400 . S
C268 C269 1.398 . S
C268 C274 1.491 . S
C269 H260 0.950 . S
C269 C268 1.398 . S
C269 C270 1.391 . S
C270 H258 0.950 . S
C270 C266 1.393 . S
C270 C269 1.391 . S
C271 H261 0.950 . S
C271 C272 1.386 . S
C271 C273 1.391 . S
C272 C271 1.386 . S
C272 C276 1.393 . S
C273 H262 0.950 . S
C273 C271 1.391 . S
C273 C274 1.400 . S
C274 C268 1.491 . S
C274 C273 1.400 . S
C274 C275 1.398 . S
C275 H263 0.950 . S
C275 C274 1.398 . S
C275 C276 1.391 . S
C276 H264 0.950 . S
C276 C272 1.393 . S
C276 C275 1.391 . S
H277 C285 0.950 . S
H278 C290 0.950 . S
H279 C287 0.950 . S
H280 C289 0.950 . S
H281 C291 0.950 . S
H282 C293 0.950 . S
H283 C295 0.950 . S
H284 C296 0.950 . S
C285 H277 0.950 . S
C285 C286 1.386 . S
C285 C287 1.391 . S
C286 C285 1.386 . S
C286 C290 1.393 . S
C287 H279 0.950 . S
C287 C285 1.391 . S
C287 C288 1.400 . S
C288 C287 1.400 . S
C288 C289 1.398 . S
C288 C294 1.491 . S
C289 H280 0.950 . S
C289 C288 1.398 . S
C289 C290 1.391 . S
C290 H278 0.950 . S
C290 C286 1.393 . S
C290 C289 1.391 . S
C291 H281 0.950 . S
C291 C292 1.386 . S
C291 C293 1.391 . S
C292 C291 1.386 . S
C292 C296 1.393 . S
C293 H282 0.950 . S
C293 C291 1.391 . S
C293 C294 1.400 . S
C294 C288 1.491 . S
C294 C293 1.400 . S
C294 C295 1.398 . S
C295 H283 0.950 . S
C295 C294 1.398 . S
C295 C296 1.391 . S
C296 H284 0.950 . S
C296 C292 1.393 . S
C296 C295 1.391 . S
H297 C305 0.950 . S
H298 C310 0.950 . S
H299 C307 0.950 . S
H300 C309 0.950 . S
H301 C311 0.950 . S
H302 C313 0.950 . S
H303 C315 0.950 . S
H304 C316 0.950 . S
C305 H297 0.950 . S
C305 C306 1.386 . S
C305 C307 1.391 . S
C306 C305 1.386 . S
C306 C310 1.393 . S
C307 H299 0.950 . S
C307 C305 1.391 . S
C307 C308 1.400 . S
C308 C307 1.400 . S
C308 C309 1.398 . S
C308 C314 1.491 . S
C309 H300 0.950 . S
C309 C308 1.398 . S
C309 C310 1.391 . S
C310 H298 0.950 . S
C310 C306 1.393 . S
C310 C309 1.391 . S
C311 H301 0.950 . S
C311 C312 1.386 . S
C311 C313 1.391 . S
C312 C311 1.386 . S
C312 C316 1.393 . S
C313 H302 0.950 . S
C313 C311 1.391 . S
C313 C314 1.400 . S
C314 C308 1.491 . S
C314 C313 1.400 . S
C314 C315 1.398 . S
C315 H303 0.950 . S
C315 C314 1.398 . S
C315 C316 1.391 . S
C316 H304 0.950 . S
C316 C312 1.393 . S
C316 C315 1.391 . S
H317 C325 0.950 1_554 S
H318 C330 0.950 . S
H319 C327 0.950 . S
H320 C329 0.950 . S
H321 C331 0.950 . S
H322 C333 0.950 . S
H323 C335 0.950 . S
H324 C336 0.950 . S
C325 H317 0.950 1_556 S
C325 C326 1.386 . S
C325 C327 1.391 . S
C326 C325 1.386 . S
C326 C330 1.393 . S
C327 H319 0.950 . S
C327 C325 1.391 . S
C327 C328 1.400 . S
C328 C327 1.400 . S
C328 C329 1.398 . S
C328 C334 1.491 . S
C329 H320 0.950 . S
C329 C328 1.398 . S
C329 C330 1.391 . S
C330 H318 0.950 . S
C330 C326 1.393 . S
C330 C329 1.391 . S
C331 H321 0.950 . S
C331 C332 1.386 . S
C331 C333 1.391 . S
C332 C331 1.386 . S
C332 C336 1.393 . S
C333 H322 0.950 . S
C333 C331 1.391 . S
C333 C334 1.400 . S
C334 C328 1.491 . S
C334 C333 1.400 . S
C334 C335 1.398 . S
C335 H323 0.950 . S
C335 C334 1.398 . S
C335 C336 1.391 . S
C336 H324 0.950 . S
C336 C332 1.393 . S
C336 C335 1.391 . S
H337 C345 0.950 1_554 S
H338 C350 0.950 . S
H339 C347 0.950 . S
H340 C349 0.950 . S
H341 C351 0.950 . S
H342 C353 0.950 . S
H343 C355 0.950 . S
H344 C356 0.950 . S
C345 H337 0.950 1_556 S
C345 C346 1.386 . S
C345 C347 1.391 . S
C346 C345 1.386 . S
C346 C350 1.393 . S
C347 H339 0.950 . S
C347 C345 1.391 . S
C347 C348 1.400 . S
C348 C347 1.400 . S
C348 C349 1.398 . S
C348 C354 1.491 . S
C349 H340 0.950 . S
C349 C348 1.398 . S
C349 C350 1.391 . S
C350 H338 0.950 . S
C350 C346 1.393 . S
C350 C349 1.391 . S
C351 H341 0.950 . S
C351 C352 1.386 . S
C351 C353 1.391 . S
C352 C351 1.386 . S
C352 C356 1.393 . S
C353 H342 0.950 . S
C353 C351 1.391 . S
C353 C354 1.400 . S
C354 C348 1.491 . S
C354 C353 1.400 . S
C354 C355 1.398 . S
C355 H343 0.950 . S
C355 C354 1.398 . S
C355 C356 1.391 . S
C356 H344 0.950 . S
C356 C352 1.393 . S
C356 C355 1.391 . S
H357 C365 0.950 . S
H358 C370 0.950 . S
H359 C367 0.950 . S
H360 C369 0.950 . S
H361 C371 0.950 . S
H362 C373 0.935 1_554 S
H363 C375 0.950 . S
H364 C376 0.950 . S
C365 H357 0.950 . S
C365 C366 1.386 . S
C365 C367 1.391 1_554 S
C366 C365 1.386 . S
C366 C370 1.393 . S
C367 H359 0.950 . S
C367 C365 1.391 1_556 S
C367 C368 1.400 . S
C368 C367 1.400 . S
C368 C369 1.398 1_556 S
C368 C374 1.491 . S
C369 H360 0.950 . S
C369 C368 1.398 1_554 S
C369 C370 1.391 . S
C370 H358 0.950 . S
C370 C366 1.393 . S
C370 C369 1.391 . S
C371 H361 0.950 . S
C371 C372 1.386 . S
C371 C373 1.391 . S
C372 C371 1.386 . S
C372 C376 1.393 . S
C373 H362 0.935 1_556 S
C373 C371 1.391 . S
C373 C374 1.400 . S
C374 C368 1.491 . S
C374 C373 1.400 . S
C374 C375 1.398 . S
C375 H363 0.950 . S
C375 C374 1.398 . S
C375 C376 1.391 . S
C376 H364 0.950 . S
C376 C372 1.393 . S
C376 C375 1.391 . S
H377 C385 0.950 . S
H378 C390 0.950 . S
H379 C387 0.950 . S
H380 C389 0.950 . S
H381 C391 0.950 . S
H382 C393 0.950 . S
H383 C395 0.950 . S
H384 C396 0.950 . S
C385 H377 0.950 . S
C385 C386 1.386 . S
C385 C387 1.391 . S
C386 C385 1.386 . S
C386 C390 1.393 1_554 S
C387 H379 0.950 . S
C387 C385 1.391 . S
C387 C388 1.400 1_554 S
C388 C387 1.400 1_556 S
C388 C389 1.398 . S
C388 C394 1.491 . S
C389 H380 0.950 . S
C389 C388 1.398 . S
C389 C390 1.391 . S
C390 H378 0.950 . S
C390 C386 1.393 1_556 S
C390 C389 1.391 . S
C391 H381 0.950 . S
C391 C392 1.386 . S
C391 C393 1.391 . S
C392 C391 1.386 . S
C392 C396 1.393 . S
C393 H382 0.950 . S
C393 C391 1.391 . S
C393 C394 1.400 . S
C394 C388 1.491 . S
C394 C393 1.400 . S
C394 C395 1.398 . S
C395 H383 0.950 . S
C395 C394 1.398 . S
C395 C396 1.391 . S
C396 H384 0.950 . S
C396 C392 1.393 . S
C396 C395 1.391 . S
H397 C405 0.950 . S
H398 C410 0.950 . S
H399 C407 0.950 . S
H400 C409 0.950 . S
H401 C411 0.950 . S
H402 C413 0.950 . S
H403 C415 0.950 . S
H404 C416 0.950 . S
C405 H397 0.950 . S
C405 C406 1.386 1_556 S
C405 C407 1.391 . S
C406 C405 1.386 1_554 S
C406 C410 1.393 . S
C407 H399 0.950 . S
C407 C405 1.391 . S
C407 C408 1.400 . S
C408 C407 1.400 . S
C408 C409 1.398 . S
C408 C414 1.491 . S
C409 H400 0.950 . S
C409 C408 1.398 . S
C409 C410 1.391 1_556 S
C410 H398 0.950 . S
C410 C406 1.393 . S
C410 C409 1.391 1_554 S
C411 H401 0.950 . S
C411 C412 1.386 . S
C411 C413 1.391 . S
C412 C411 1.386 . S
C412 C416 1.393 . S
C413 H402 0.950 . S
C413 C411 1.391 . S
C413 C414 1.400 . S
C414 C408 1.491 . S
C414 C413 1.400 . S
C414 C415 1.398 . S
C415 H403 0.950 . S
C415 C414 1.398 . S
C415 C416 1.391 . S
C416 H404 0.950 . S
C416 C412 1.393 . S
C416 C415 1.391 . S
H417 C425 0.950 1_554 S
H418 C430 0.950 . S
H419 C427 0.950 . S
H420 C429 0.950 . S
H421 C431 0.950 . S
H422 C433 0.950 . S
H423 C435 0.950 . S
H424 C436 0.950 . S
C425 H417 0.950 1_556 S
C425 C426 1.386 . S
C425 C427 1.391 . S
C426 C425 1.386 . S
C426 C430 1.393 . S
C427 H419 0.950 . S
C427 C425 1.391 . S
C427 C428 1.400 . S
C428 C427 1.400 . S
C428 C429 1.398 . S
C428 C434 1.491 . S
C429 H420 0.950 . S
C429 C428 1.398 . S
C429 C430 1.391 . S
C430 H418 0.950 . S
C430 C426 1.393 . S
C430 C429 1.391 . S
C431 H421 0.950 . S
C431 C432 1.386 . S
C431 C433 1.391 . S
C432 C431 1.386 . S
C432 C436 1.393 . S
C433 H422 0.950 . S
C433 C431 1.391 . S
C433 C434 1.400 . S
C434 C428 1.491 . S
C434 C433 1.400 . S
C434 C435 1.398 . S
C435 H423 0.950 . S
C435 C434 1.398 . S
C435 C436 1.391 . S
C436 H424 0.950 . S
C436 C432 1.393 . S
C436 C435 1.391 . S
H437 C445 0.950 . S
H438 C450 0.950 1_554 S
H439 C447 0.950 . S
H440 C449 0.950 . S
H441 C451 0.950 . S
H442 C453 0.950 . S
H443 C455 0.950 . S
H444 C456 0.950 . S
C445 H437 0.950 . S
C445 C446 1.386 . S
C445 C447 1.391 . S
C446 C445 1.386 . S
C446 C450 1.393 . S
C447 H439 0.950 . S
C447 C445 1.391 . S
C447 C448 1.400 . S
C448 C447 1.400 . S
C448 C449 1.398 . S
C448 C454 1.491 . S
C449 H440 0.950 . S
C449 C448 1.398 . S
C449 C450 1.391 . S
C450 H438 0.950 1_556 S
C450 C446 1.393 . S
C450 C449 1.391 . S
C451 H441 0.950 . S
C451 C452 1.386 . S
C451 C453 1.391 . S
C452 C451 1.386 . S
C452 C456 1.393 . S
C453 H442 0.950 . S
C453 C451 1.391 . S
C453 C454 1.400 . S
C454 C448 1.491 . S
C454 C453 1.400 . S
C454 C455 1.398 . S
C455 H443 0.950 . S
C455 C454 1.398 . S
C455 C456 1.391 . S
C456 H444 0.950 . S
C456 C452 1.393 . S
C456 C455 1.391 . S
H457 C465 0.950 . S
H458 C470 0.950 . S
H459 C467 0.950 . S
H460 C469 0.950 1_556 S
H461 C471 0.950 . S
H462 C473 0.950 . S
H463 C475 0.950 . S
H464 C476 0.950 . S
C465 H457 0.950 . S
C465 C466 1.386 . S
C465 C467 1.391 . S
C466 C465 1.386 . S
C466 C470 1.393 . S
C467 H459 0.950 . S
C467 C465 1.391 . S
C467 C468 1.400 1_554 S
C468 C467 1.400 1_556 S
C468 C469 1.398 1_556 S
C468 C474 1.491 . S
C469 H460 0.950 1_554 S
C469 C468 1.398 1_554 S
C469 C470 1.391 . S
C470 H458 0.950 . S
C470 C466 1.393 . S
C470 C469 1.391 . S
C471 H461 0.950 . S
C471 C472 1.386 . S
C471 C473 1.391 . S
C472 C471 1.386 . S
C472 C476 1.393 . S
C473 H462 0.950 . S
C473 C471 1.391 . S
C473 C474 1.400 . S
C474 C468 1.491 . S
C474 C473 1.400 . S
C474 C475 1.398 . S
C475 H463 0.950 . S
C475 C474 1.398 . S
C475 C476 1.391 . S
C476 H464 0.950 . S
C476 C472 1.393 . S
C476 C475 1.391 . S
H477 C485 0.950 . S
H478 C490 0.950 1_554 S
H479 C487 0.950 . S
H480 C489 0.950 . S
H481 C491 0.950 . S
H482 C493 0.950 . S
H483 C495 0.950 . S
H484 C496 0.950 . S
C485 H477 0.950 . S
C485 C486 1.386 . S
C485 C487 1.391 1_554 S
C486 C485 1.386 . S
C486 C490 1.393 1_554 S
C487 H479 0.950 . S
C487 C485 1.391 1_556 S
C487 C488 1.400 . S
C488 C487 1.400 . S
C488 C489 1.398 . S
C488 C494 1.491 . S
C489 H480 0.950 . S
C489 C488 1.398 . S
C489 C490 1.391 . S
C490 H478 0.950 1_556 S
C490 C486 1.393 1_556 S
C490 C489 1.391 . S
C491 H481 0.950 . S
C491 C492 1.386 . S
C491 C493 1.391 . S
C492 C491 1.386 . S
C492 C496 1.393 . S
C493 H482 0.950 . S
C493 C491 1.391 . S
C493 C494 1.400 . S
C494 C488 1.491 . S
C494 C493 1.400 . S
C494 C495 1.398 . S
C495 H483 0.950 . S
C495 C494 1.398 . S
C495 C496 1.391 . S
C496 H484 0.950 . S
C496 C492 1.393 . S
C496 C495 1.391 . S
H497 C505 0.950 . S
H498 C510 0.950 . S
H499 C507 0.950 . S
H500 C509 0.950 . S
H501 C511 0.950 . S
H502 C513 0.950 . S
H503 C515 0.950 . S
H504 C516 0.950 . S
C505 H497 0.950 . S
C505 C506 1.386 1_554 S
C505 C507 1.391 1_554 S
C506 C505 1.386 1_556 S
C506 C510 1.393 . S
C507 H499 0.950 . S
C507 C505 1.391 1_556 S
C507 C508 1.400 . S
C508 C507 1.400 . S
C508 C509 1.398 . S
C508 C514 1.491 . S
C509 H500 0.950 . S
C509 C508 1.398 . S
C509 C510 1.391 . S
C510 H498 0.950 . S
C510 C506 1.393 . S
C510 C509 1.391 . S
C511 H501 0.950 . S
C511 C512 1.386 . S
C511 C513 1.391 . S
C512 C511 1.386 . S
C512 C516 1.393 . S
C513 H502 0.950 . S
C513 C511 1.391 . S
C513 C514 1.400 . S
C514 C508 1.491 . S
C514 C513 1.400 . S
C514 C515 1.398 . S
C515 H503 0.950 . S
C515 C514 1.398 . S
C515 C516 1.391 . S
C516 H504 0.950 . S
C516 C512 1.393 . S
C516 C515 1.391 . S
H517 C525 0.950 . S
H518 C530 0.950 . S
H519 C527 0.950 . S
H520 C529 0.950 . S
H521 C531 0.950 . S
H522 C533 0.950 . S
H523 C535 0.950 . S
H524 C536 0.950 . S
C525 H517 0.950 . S
C525 C526 1.386 . S
C525 C527 1.391 . S
C526 C525 1.386 . S
C526 C530 1.393 . S
C527 H519 0.950 . S
C527 C525 1.391 . S
C527 C528 1.400 . S
C528 C527 1.400 . S
C528 C529 1.398 . S
C528 C534 1.491 . S
C529 H520 0.950 . S
C529 C528 1.398 . S
C529 C530 1.391 . S
C530 H518 0.950 . S
C530 C526 1.393 . S
C530 C529 1.391 . S
C531 H521 0.950 . S
C531 C532 1.386 . S
C531 C533 1.391 . S
C532 C531 1.386 . S
C532 C536 1.393 . S
C533 H522 0.950 . S
C533 C531 1.391 . S
C533 C534 1.400 . S
C534 C528 1.491 . S
C534 C533 1.400 . S
C534 C535 1.398 . S
C535 H523 0.950 . S
C535 C534 1.398 . S
C535 C536 1.391 . S
C536 H524 0.950 . S
C536 C532 1.393 . S
C536 C535 1.391 . S
H537 C545 0.950 . S
H538 C550 0.950 . S
H539 C547 0.950 . S
H540 C549 0.950 . S
H541 C551 0.950 . S
H542 C553 0.950 . S
H543 C555 0.950 . S
H544 C556 0.950 . S
C545 H537 0.950 . S
C545 C546 1.386 . S
C545 C547 1.391 . S
C546 C545 1.386 . S
C546 C550 1.393 . S
C547 H539 0.950 . S
C547 C545 1.391 . S
C547 C548 1.400 . S
C548 C547 1.400 . S
C548 C549 1.398 . S
C548 C554 1.491 . S
C549 H540 0.950 . S
C549 C548 1.398 . S
C549 C550 1.391 . S
C550 H538 0.950 . S
C550 C546 1.393 . S
C550 C549 1.391 . S
C551 H541 0.950 . S
C551 C552 1.386 . S
C551 C553 1.391 . S
C552 C551 1.386 . S
C552 C556 1.393 . S
C553 H542 0.950 . S
C553 C551 1.391 . S
C553 C554 1.400 . S
C554 C548 1.491 . S
C554 C553 1.400 . S
C554 C555 1.398 . S
C555 H543 0.950 . S
C555 C554 1.398 . S
C555 C556 1.391 . S
C556 H544 0.950 . S
C556 C552 1.393 . S
C556 C555 1.391 . S
H557 C565 0.950 . S
H558 C570 0.950 . S
H559 C567 0.950 . S
H560 C569 0.950 . S
H561 C571 0.950 . S
H562 C573 0.950 . S
H563 C575 0.950 . S
H564 C576 0.950 . S
C565 H557 0.950 . S
C565 C566 1.386 . S
C565 C567 1.391 . S
C566 C565 1.386 . S
C566 C570 1.393 . S
C567 H559 0.950 . S
C567 C565 1.391 . S
C567 C568 1.400 . S
C568 C567 1.400 . S
C568 C569 1.398 . S
C568 C574 1.491 . S
C569 H560 0.950 . S
C569 C568 1.398 . S
C569 C570 1.391 . S
C570 H558 0.950 . S
C570 C566 1.393 . S
C570 C569 1.391 . S
C571 H561 0.950 . S
C571 C572 1.386 . S
C571 C573 1.391 . S
C572 C571 1.386 . S
C572 C576 1.393 . S
C573 H562 0.950 . S
C573 C571 1.391 . S
C573 C574 1.400 . S
C574 C568 1.491 . S
C574 C573 1.400 . S
C574 C575 1.398 . S
C575 H563 0.950 . S
C575 C574 1.398 . S
C575 C576 1.391 . S
C576 H564 0.950 . S
C576 C572 1.393 . S
C576 C575 1.391 . S
H577 C585 0.950 . S
H578 C590 0.950 . S
H579 C587 0.950 . S
H580 C589 0.950 . S
H581 C591 0.950 . S
H582 C593 0.950 . S
H583 C595 0.950 . S
H584 C596 0.950 . S
C585 H577 0.950 . S
C585 C586 1.386 . S
C585 C587 1.391 . S
C586 C585 1.386 . S
C586 C590 1.393 . S
C587 H579 0.950 . S
C587 C585 1.391 . S
C587 C588 1.400 . S
C588 C587 1.400 . S
C588 C589 1.398 . S
C588 C594 1.491 . S
C589 H580 0.950 . S
C589 C588 1.398 . S
C589 C590 1.391 . S
C590 H578 0.950 . S
C590 C586 1.393 . S
C590 C589 1.391 . S
C591 H581 0.950 . S
C591 C592 1.386 . S
C591 C593 1.391 . S
C592 C591 1.386 . S
C592 C596 1.393 . S
C593 H582 0.950 . S
C593 C591 1.391 . S
C593 C594 1.400 . S
C594 C588 1.491 . S
C594 C593 1.400 . S
C594 C595 1.398 . S
C595 H583 0.950 . S
C595 C594 1.398 . S
C595 C596 1.391 . S
C596 H584 0.950 . S
C596 C592 1.393 . S
C596 C595 1.391 . S
H597 C605 0.950 . S
H598 C610 0.950 . S
H599 C607 0.950 . S
H600 C609 0.950 . S
H601 C611 0.950 . S
H602 C613 0.950 . S
H603 C615 0.950 . S
H604 C616 0.950 . S
C605 H597 0.950 . S
C605 C606 1.386 . S
C605 C607 1.391 . S
C606 C605 1.386 . S
C606 C610 1.393 . S
C607 H599 0.950 . S
C607 C605 1.391 . S
C607 C608 1.400 . S
C608 C607 1.400 . S
C608 C609 1.398 . S
C608 C614 1.491 . S
C609 H600 0.950 . S
C609 C608 1.398 . S
C609 C610 1.391 . S
C610 H598 0.950 . S
C610 C606 1.393 . S
C610 C609 1.391 . S
C611 H601 0.950 . S
C611 C612 1.386 . S
C611 C613 1.391 . S
C612 C611 1.386 . S
C612 C616 1.393 . S
C613 H602 0.950 . S
C613 C611 1.391 . S
C613 C614 1.400 . S
C614 C608 1.491 . S
C614 C613 1.400 . S
C614 C615 1.398 . S
C615 H603 0.950 . S
C615 C614 1.398 . S
C615 C616 1.391 . S
C616 H604 0.950 . S
C616 C612 1.393 . S
C616 C615 1.391 . S
H617 C625 0.950 . S
H618 C630 0.950 . S
H619 C627 0.950 . S
H620 C629 0.950 . S
H621 C631 0.950 . S
H622 C633 0.950 . S
H623 C635 0.950 . S
H624 C636 0.950 . S
C625 H617 0.950 . S
C625 C626 1.386 . S
C625 C627 1.391 . S
C626 C625 1.386 . S
C626 C630 1.393 . S
C627 H619 0.950 . S
C627 C625 1.391 . S
C627 C628 1.400 . S
C628 C627 1.400 . S
C628 C629 1.398 . S
C628 C634 1.491 . S
C629 H620 0.950 . S
C629 C628 1.398 . S
C629 C630 1.391 . S
C630 H618 0.950 . S
C630 C626 1.393 . S
C630 C629 1.391 . S
C631 H621 0.950 . S
C631 C632 1.386 . S
C631 C633 1.391 . S
C632 C631 1.386 . S
C632 C636 1.393 . S
C633 H622 0.950 . S
C633 C631 1.391 . S
C633 C634 1.400 . S
C634 C628 1.491 . S
C634 C633 1.400 . S
C634 C635 1.398 . S
C635 H623 0.950 . S
C635 C634 1.398 . S
C635 C636 1.391 . S
C636 H624 0.950 . S
C636 C632 1.393 . S
C636 C635 1.391 . S
H637 C645 0.950 . S
H638 C650 0.950 . S
H639 C647 0.950 . S
H640 C649 0.950 . S
H641 C651 0.950 . S
H642 C653 0.950 . S
H643 C655 0.950 . S
H644 C656 0.950 . S
C645 H637 0.950 . S
C645 C646 1.386 . S
C645 C647 1.391 . S
C646 C645 1.386 . S
C646 C650 1.393 . S
C647 H639 0.950 . S
C647 C645 1.391 . S
C647 C648 1.400 . S
C648 C647 1.400 . S
C648 C649 1.398 . S
C648 C654 1.491 . S
C649 H640 0.950 . S
C649 C648 1.398 . S
C649 C650 1.391 . S
C650 H638 0.950 . S
C650 C646 1.393 . S
C650 C649 1.391 . S
C651 H641 0.950 . S
C651 C652 1.386 . S
C651 C653 1.391 . S
C652 C651 1.386 . S
C652 C656 1.393 . S
C653 H642 0.950 . S
C653 C651 1.391 . S
C653 C654 1.400 . S
C654 C648 1.491 . S
C654 C653 1.400 . S
C654 C655 1.398 . S
C655 H643 0.950 . S
C655 C654 1.398 . S
C655 C656 1.391 . S
C656 H644 0.950 . S
C656 C652 1.393 . S
C656 C655 1.391 . S
C186 C1 1.799 . S
C192 C95 1.722 . S
C206 C27 1.558 . S
C212 C142 1.513 . S
C232 C146 1.711 . S
C226 C40 1.759 . S
C252 C111 1.451 . S
C246 C55 1.492 . S
C266 C68 1.724 . S
C272 C126 1.654 . S
C292 C148 1.004 . S
C286 C70 1.022 . S
C312 C117 1.374 . S
C306 C41 1.426 . S
C326 C54 1.381 . S
C332 C157 1.325 . S
C352 C86 1.316 . S
C346 C69 1.360 1_556 S
C366 C71 1.402 . S
C372 C115 1.355 . S
C386 C0 1.853 . S
C392 C173 1.801 . S
C412 C84 1.424 . S
C406 C26 1.469 . S
C432 C102 1.706 . S
C426 C42 1.790 . S
C452 C116 1.532 . S
C446 C57 1.558 1_556 S
C472 C170 1.698 . S
C466 C83 1.754 . S
C492 C85 1.455 . S
C486 C12 1.491 . S
C512 C133 1.643 . S
C506 C14 1.723 1_556 S
C526 C29 1.005 . S
C532 C156 0.969 . S
C552 C125 1.385 . S
C546 C82 1.434 . S
C572 C164 1.314 . S
C566 C13 1.368 . S
C592 C94 1.289 . S
C586 C15 1.347 . S
C612 C139 1.363 . S
C606 C28 1.402 . S
C626 C43 1.847 . S
C632 C147 1.792 . S
C646 C56 1.466 . S
C652 C108 1.417 . S
