# Generated by pormake.
# Topology cor, (4,6)-cn, num edge types: 1
# Building blocks:
#     Node 0, Type 0, BuildingBlock: TATPOV_clean_sbu_0, # of connection points: 4
#     Node 1, Type 0, BuildingBlock: TATPOV_clean_sbu_0, # of connection points: 4
#     Node 2, Type 0, BuildingBlock: TATPOV_clean_sbu_0, # of connection points: 4
#     Node 3, Type 0, BuildingBlock: TATPOV_clean_sbu_0, # of connection points: 4
#     Node 4, Type 0, BuildingBlock: TATPOV_clean_sbu_0, # of connection points: 4
#     Node 5, Type 0, BuildingBlock: TATPOV_clean_sbu_0, # of connection points: 4
#     Node 6, Type 0, BuildingBlock: TATPOV_clean_sbu_0, # of connection points: 4
#     Node 7, Type 0, BuildingBlock: TATPOV_clean_sbu_0, # of connection points: 4
#     Node 8, Type 0, BuildingBlock: TATPOV_clean_sbu_0, # of connection points: 4
#     Node 9, Type 0, BuildingBlock: TATPOV_clean_sbu_0, # of connection points: 4
#     Node 10, Type 0, BuildingBlock: TATPOV_clean_sbu_0, # of connection points: 4
#     Node 11, Type 0, BuildingBlock: TATPOV_clean_sbu_0, # of connection points: 4
#     Node 12, Type 0, BuildingBlock: TATPOV_clean_sbu_0, # of connection points: 4
#     Node 13, Type 0, BuildingBlock: TATPOV_clean_sbu_0, # of connection points: 4
#     Node 14, Type 0, BuildingBlock: TATPOV_clean_sbu_0, # of connection points: 4
#     Node 15, Type 0, BuildingBlock: TATPOV_clean_sbu_0, # of connection points: 4
#     Node 16, Type 0, BuildingBlock: TATPOV_clean_sbu_0, # of connection points: 4
#     Node 17, Type 0, BuildingBlock: TATPOV_clean_sbu_0, # of connection points: 4
#     Node 18, Type 1, BuildingBlock: MIDCAF_clean_sbu_0, # of connection points: 6
#     Node 19, Type 1, BuildingBlock: MIDCAF_clean_sbu_0, # of connection points: 6
#     Node 20, Type 1, BuildingBlock: MIDCAF_clean_sbu_0, # of connection points: 6
#     Node 21, Type 1, BuildingBlock: MIDCAF_clean_sbu_0, # of connection points: 6
#     Node 22, Type 1, BuildingBlock: MIDCAF_clean_sbu_0, # of connection points: 6
#     Node 23, Type 1, BuildingBlock: MIDCAF_clean_sbu_0, # of connection points: 6
#     Node 24, Type 1, BuildingBlock: MIDCAF_clean_sbu_0, # of connection points: 6
#     Node 25, Type 1, BuildingBlock: MIDCAF_clean_sbu_0, # of connection points: 6
#     Node 26, Type 1, BuildingBlock: MIDCAF_clean_sbu_0, # of connection points: 6
#     Node 27, Type 1, BuildingBlock: MIDCAF_clean_sbu_0, # of connection points: 6
#     Node 28, Type 1, BuildingBlock: MIDCAF_clean_sbu_0, # of connection points: 6
#     Node 29, Type 1, BuildingBlock: MIDCAF_clean_sbu_0, # of connection points: 6
#     Edge 30, Type (0, 1), BuildingBlock: KIFKEQ_clean_linker_1, # of connection points: 2
#     Edge 31, Type (0, 1), BuildingBlock: KIFKEQ_clean_linker_1, # of connection points: 2
#     Edge 32, Type (0, 1), BuildingBlock: KIFKEQ_clean_linker_1, # of connection points: 2
#     Edge 33, Type (0, 1), BuildingBlock: KIFKEQ_clean_linker_1, # of connection points: 2
#     Edge 34, Type (0, 1), BuildingBlock: KIFKEQ_clean_linker_1, # of connection points: 2
#     Edge 35, Type (0, 1), BuildingBlock: KIFKEQ_clean_linker_1, # of connection points: 2
#     Edge 36, Type (0, 1), BuildingBlock: KIFKEQ_clean_linker_1, # of connection points: 2
#     Edge 37, Type (0, 1), BuildingBlock: KIFKEQ_clean_linker_1, # of connection points: 2
#     Edge 38, Type (0, 1), BuildingBlock: KIFKEQ_clean_linker_1, # of connection points: 2
#     Edge 39, Type (0, 1), BuildingBlock: KIFKEQ_clean_linker_1, # of connection points: 2
#     Edge 40, Type (0, 1), BuildingBlock: KIFKEQ_clean_linker_1, # of connection points: 2
#     Edge 41, Type (0, 1), BuildingBlock: KIFKEQ_clean_linker_1, # of connection points: 2
#     Edge 42, Type (0, 1), BuildingBlock: KIFKEQ_clean_linker_1, # of connection points: 2
#     Edge 43, Type (0, 1), BuildingBlock: KIFKEQ_clean_linker_1, # of connection points: 2
#     Edge 44, Type (0, 1), BuildingBlock: KIFKEQ_clean_linker_1, # of connection points: 2
#     Edge 45, Type (0, 1), BuildingBlock: KIFKEQ_clean_linker_1, # of connection points: 2
#     Edge 46, Type (0, 1), BuildingBlock: KIFKEQ_clean_linker_1, # of connection points: 2
#     Edge 47, Type (0, 1), BuildingBlock: KIFKEQ_clean_linker_1, # of connection points: 2
#     Edge 48, Type (0, 1), BuildingBlock: KIFKEQ_clean_linker_1, # of connection points: 2
#     Edge 49, Type (0, 1), BuildingBlock: KIFKEQ_clean_linker_1, # of connection points: 2
#     Edge 50, Type (0, 1), BuildingBlock: KIFKEQ_clean_linker_1, # of connection points: 2
#     Edge 51, Type (0, 1), BuildingBlock: KIFKEQ_clean_linker_1, # of connection points: 2
#     Edge 52, Type (0, 1), BuildingBlock: KIFKEQ_clean_linker_1, # of connection points: 2
#     Edge 53, Type (0, 1), BuildingBlock: KIFKEQ_clean_linker_1, # of connection points: 2
#     Edge 54, Type (0, 1), BuildingBlock: KIFKEQ_clean_linker_1, # of connection points: 2
#     Edge 55, Type (0, 1), BuildingBlock: KIFKEQ_clean_linker_1, # of connection points: 2
#     Edge 56, Type (0, 1), BuildingBlock: KIFKEQ_clean_linker_1, # of connection points: 2
#     Edge 57, Type (0, 1), BuildingBlock: KIFKEQ_clean_linker_1, # of connection points: 2
#     Edge 58, Type (0, 1), BuildingBlock: KIFKEQ_clean_linker_1, # of connection points: 2
#     Edge 59, Type (0, 1), BuildingBlock: KIFKEQ_clean_linker_1, # of connection points: 2
#     Edge 60, Type (0, 1), BuildingBlock: KIFKEQ_clean_linker_1, # of connection points: 2
#     Edge 61, Type (0, 1), BuildingBlock: KIFKEQ_clean_linker_1, # of connection points: 2
#     Edge 62, Type (0, 1), BuildingBlock: KIFKEQ_clean_linker_1, # of connection points: 2
#     Edge 63, Type (0, 1), BuildingBlock: KIFKEQ_clean_linker_1, # of connection points: 2
#     Edge 64, Type (0, 1), BuildingBlock: KIFKEQ_clean_linker_1, # of connection points: 2
#     Edge 65, Type (0, 1), BuildingBlock: KIFKEQ_clean_linker_1, # of connection points: 2
#     Edge 66, Type (0, 1), BuildingBlock: KIFKEQ_clean_linker_1, # of connection points: 2
#     Edge 67, Type (0, 1), BuildingBlock: KIFKEQ_clean_linker_1, # of connection points: 2
#     Edge 68, Type (0, 1), BuildingBlock: KIFKEQ_clean_linker_1, # of connection points: 2
#     Edge 69, Type (0, 1), BuildingBlock: KIFKEQ_clean_linker_1, # of connection points: 2
#     Edge 70, Type (0, 1), BuildingBlock: KIFKEQ_clean_linker_1, # of connection points: 2
#     Edge 71, Type (0, 1), BuildingBlock: KIFKEQ_clean_linker_1, # of connection points: 2
#     Edge 72, Type (0, 1), BuildingBlock: KIFKEQ_clean_linker_1, # of connection points: 2
#     Edge 73, Type (0, 1), BuildingBlock: KIFKEQ_clean_linker_1, # of connection points: 2
#     Edge 74, Type (0, 1), BuildingBlock: KIFKEQ_clean_linker_1, # of connection points: 2
#     Edge 75, Type (0, 1), BuildingBlock: KIFKEQ_clean_linker_1, # of connection points: 2
#     Edge 76, Type (0, 1), BuildingBlock: KIFKEQ_clean_linker_1, # of connection points: 2
#     Edge 77, Type (0, 1), BuildingBlock: KIFKEQ_clean_linker_1, # of connection points: 2
#     Edge 78, Type (0, 1), BuildingBlock: KIFKEQ_clean_linker_1, # of connection points: 2
#     Edge 79, Type (0, 1), BuildingBlock: KIFKEQ_clean_linker_1, # of connection points: 2
#     Edge 80, Type (0, 1), BuildingBlock: KIFKEQ_clean_linker_1, # of connection points: 2
#     Edge 81, Type (0, 1), BuildingBlock: KIFKEQ_clean_linker_1, # of connection points: 2
#     Edge 82, Type (0, 1), BuildingBlock: KIFKEQ_clean_linker_1, # of connection points: 2
#     Edge 83, Type (0, 1), BuildingBlock: KIFKEQ_clean_linker_1, # of connection points: 2
#     Edge 84, Type (0, 1), BuildingBlock: KIFKEQ_clean_linker_1, # of connection points: 2
#     Edge 85, Type (0, 1), BuildingBlock: KIFKEQ_clean_linker_1, # of connection points: 2
#     Edge 86, Type (0, 1), BuildingBlock: KIFKEQ_clean_linker_1, # of connection points: 2
#     Edge 87, Type (0, 1), BuildingBlock: KIFKEQ_clean_linker_1, # of connection points: 2
#     Edge 88, Type (0, 1), BuildingBlock: KIFKEQ_clean_linker_1, # of connection points: 2
#     Edge 89, Type (0, 1), BuildingBlock: KIFKEQ_clean_linker_1, # of connection points: 2
#     Edge 90, Type (0, 1), BuildingBlock: KIFKEQ_clean_linker_1, # of connection points: 2
#     Edge 91, Type (0, 1), BuildingBlock: KIFKEQ_clean_linker_1, # of connection points: 2
#     Edge 92, Type (0, 1), BuildingBlock: KIFKEQ_clean_linker_1, # of connection points: 2
#     Edge 93, Type (0, 1), BuildingBlock: KIFKEQ_clean_linker_1, # of connection points: 2
#     Edge 94, Type (0, 1), BuildingBlock: KIFKEQ_clean_linker_1, # of connection points: 2
#     Edge 95, Type (0, 1), BuildingBlock: KIFKEQ_clean_linker_1, # of connection points: 2
#     Edge 96, Type (0, 1), BuildingBlock: KIFKEQ_clean_linker_1, # of connection points: 2
#     Edge 97, Type (0, 1), BuildingBlock: KIFKEQ_clean_linker_1, # of connection points: 2
#     Edge 98, Type (0, 1), BuildingBlock: KIFKEQ_clean_linker_1, # of connection points: 2
#     Edge 99, Type (0, 1), BuildingBlock: KIFKEQ_clean_linker_1, # of connection points: 2
#     Edge 100, Type (0, 1), BuildingBlock: KIFKEQ_clean_linker_1, # of connection points: 2
#     Edge 101, Type (0, 1), BuildingBlock: KIFKEQ_clean_linker_1, # of connection points: 2
# Relax obj value: 0.150
# Max RMSD: 0.189
# Mean RMSD: 0.171
data_MOF--net-cor--node1-TATPOV_clean_sbu_0--node2-MIDCAF_clean_sbu_0--edge1-KIFKEQ_clean_linker_1
_symmetry_space_group_name_H-M    P1
_symmetry_Int_Tables_number       1
_symmetry_cell_setting            triclinic
loop_
_symmetry_equiv_pos_as_xyz
'x, y, z'
_cell_length_a     39.081588
_cell_length_b     39.051266
_cell_length_c     99.165904
_cell_angle_alpha  89.834783
_cell_angle_beta   90.65587
_cell_angle_gamma 120.59002
loop_
_atom_site_label
_atom_site_type_symbol
_atom_site_fract_x
_atom_site_fract_y
_atom_site_fract_z
_atom_type_partial_charge
Zn0 Zn 0.73555 0.90371 0.26433 0.0
Zn1 Zn 0.73662 0.97117 0.26124 0.0
O2 O 0.68226 0.93522 0.27037 0.0
O3 O 0.68067 0.87808 0.27165 0.0
O4 O 0.73824 0.02321 0.25695 0.0
O5 O 0.7448 0.8978 0.24504 0.0
O6 O 0.74524 0.95385 0.24217 0.0
C7 C 0.66475 0.89871 0.27388 0.0
C8 C 0.79449 0.96556 0.28114 0.0
O9 O 0.78131 0.98624 0.2756 0.0
O10 O 0.78069 0.92974 0.27759 0.0
C11 C 0.72157 0.02637 0.24627 0.0
O12 O 0.70214 0.99519 0.23835 0.0
C13 C 0.7478 0.92498 0.23732 0.0
Zn14 Zn 0.93981 0.77098 0.25563 0.0
Zn15 Zn 0.00321 0.76099 0.25691 0.0
O16 O 0.95661 0.70505 0.2521 0.0
O17 O 0.90402 0.71186 0.2519 0.0
O18 O 0.05001 0.75441 0.26079 0.0
O19 O 0.9507 0.79381 0.27484 0.0
O20 O 0.00195 0.7852 0.27504 0.0
C21 C 0.91929 0.69025 0.25036 0.0
C22 C 0.00042 0.81285 0.23479 0.0
O23 O 0.01949 0.79864 0.24075 0.0
O24 O 0.96712 0.80579 0.23924 0.0
C25 C 0.05254 0.72384 0.25847 0.0
O26 O 0.02356 0.69348 0.25197 0.0
C27 C 0.98073 0.79662 0.28092 0.0
Zn28 Zn 0.25064 0.21064 0.25242 0.0
Zn29 Zn 0.27696 0.28837 0.25428 0.0
O30 O 0.32818 0.28895 0.2486 0.0
O31 O 0.30506 0.2249 0.24562 0.0
O32 O 0.29229 0.34544 0.25791 0.0
O33 O 0.23935 0.20197 0.27238 0.0
O34 O 0.25535 0.26456 0.27312 0.0
C35 C 0.33365 0.26057 0.24517 0.0
C36 C 0.20978 0.23658 0.23436 0.0
O37 O 0.23564 0.271 0.2387 0.0
O38 O 0.20832 0.2058 0.2392 0.0
C39 C 0.30745 0.36081 0.26934 0.0
O40 O 0.31719 0.34102 0.27775 0.0
C41 C 0.24307 0.23136 0.279 0.0
Zn42 Zn 0.29557 0.13444 0.75832 0.0
Zn43 Zn 0.29989 0.06802 0.75813 0.0
O44 O 0.35414 0.11027 0.75041 0.0
O45 O 0.35152 0.16526 0.75172 0.0
O46 O 0.30195 0.01723 0.76066 0.0
O47 O 0.28416 0.13153 0.7781 0.0
O48 O 0.28631 0.07638 0.77762 0.0
C49 C 0.36985 0.1476 0.74847 0.0
C50 C 0.24192 0.075 0.73904 0.0
O51 O 0.257 0.05486 0.74353 0.0
O52 O 0.25214 0.10865 0.74414 0.0
C53 C 0.33413 0.01696 0.76245 0.0
O54 O 0.36822 0.05062 0.76183 0.0
C55 C 0.28144 0.1017 0.78413 0.0
Zn56 Zn 0.08971 0.26565 0.76114 0.0
Zn57 Zn 0.01792 0.25733 0.76381 0.0
O58 O 0.05627 0.31582 0.76959 0.0
O59 O 0.11541 0.32218 0.76822 0.0
O60 O 0.96439 0.25299 0.76246 0.0
O61 O 0.08121 0.25302 0.74105 0.0
O62 O 0.02118 0.2427 0.74412 0.0
C63 C 0.09391 0.33676 0.7711 0.0
C64 C 0.03838 0.2048 0.78064 0.0
O65 O 0.01346 0.21587 0.77791 0.0
O66 O 0.07144 0.22072 0.77463 0.0
C67 C 0.95483 0.27574 0.76832 0.0
O68 O 0.97938 0.30177 0.77722 0.0
C69 C 0.04697 0.24269 0.7364 0.0
Zn70 Zn 0.74299 0.82634 0.76391 0.0
Zn71 Zn 0.73563 0.75502 0.7632 0.0
O72 O 0.67895 0.73964 0.76932 0.0
O73 O 0.68775 0.79977 0.77183 0.0
O74 O 0.73469 0.70393 0.75899 0.0
O75 O 0.75323 0.83601 0.74384 0.0
O76 O 0.75285 0.77971 0.74426 0.0
C77 C 0.66613 0.76237 0.773 0.0
C78 C 0.79512 0.81877 0.78282 0.0
O79 O 0.77643 0.78261 0.77882 0.0
O80 O 0.7885 0.84409 0.77722 0.0
C81 C 0.7457 0.68408 0.7661 0.0
O82 O 0.75686 0.69446 0.7787 0.0
C83 C 0.75778 0.8101 0.73782 0.0
Zn84 Zn 0.41799 0.24478 0.58794 0.0
Zn85 Zn 0.41503 0.31152 0.59226 0.0
O86 O 0.36009 0.26825 0.59897 0.0
O87 O 0.36216 0.21357 0.5956 0.0
O88 O 0.41555 0.36338 0.59258 0.0
O89 O 0.42782 0.25632 0.56785 0.0
O90 O 0.42707 0.31099 0.57218 0.0
C91 C 0.34399 0.23055 0.59985 0.0
C92 C 0.47566 0.29896 0.60778 0.0
O93 O 0.45918 0.31945 0.60554 0.0
O94 O 0.46462 0.26708 0.60123 0.0
C95 C 0.38767 0.36519 0.58653 0.0
O96 O 0.35734 0.33239 0.58163 0.0
C97 C 0.4311 0.28866 0.56382 0.0
Zn98 Zn 0.58737 0.09381 0.60326 0.0
Zn99 Zn 0.65978 0.10085 0.60057 0.0
O100 O 0.62053 0.04461 0.59354 0.0
O101 O 0.56128 0.0358 0.59759 0.0
O102 O 0.71282 0.1039 0.60235 0.0
O103 O 0.59857 0.11182 0.62304 0.0
O104 O 0.65521 0.11404 0.62014 0.0
C105 C 0.58276 0.02291 0.59298 0.0
C106 C 0.63874 0.14923 0.58215 0.0
O107 O 0.66524 0.1419 0.58645 0.0
O108 O 0.6048 0.13301 0.58759 0.0
C109 C 0.72149 0.07959 0.59718 0.0
O110 O 0.69624 0.05219 0.58877 0.0
C111 C 0.63146 0.1179 0.62777 0.0
Zn112 Zn 0.95679 0.5458 0.59714 0.0
Zn113 Zn 0.97222 0.62005 0.59535 0.0
O114 O 0.02852 0.62879 0.59255 0.0
O115 O 0.01485 0.56672 0.59401 0.0
O116 O 0.97723 0.67414 0.59689 0.0
O117 O 0.93598 0.53793 0.61603 0.0
O118 O 0.94735 0.59883 0.61407 0.0
C119 C 0.03967 0.60321 0.59205 0.0
C120 C 0.92065 0.55819 0.57374 0.0
O121 O 0.93842 0.59393 0.57813 0.0
O122 O 0.92153 0.53119 0.58058 0.0
C123 C 0.94448 0.67323 0.59847 0.0
O124 O 0.9111 0.63893 0.59736 0.0
C125 C 0.93524 0.56732 0.62099 0.0
Zn126 Zn 0.95145 0.4422 0.10062 0.0
Zn127 Zn 0.96867 0.38471 0.0971 0.0
O128 O 0.02102 0.43701 0.09306 0.0
O129 O 0.00734 0.4845 0.09627 0.0
O130 O 0.98543 0.34357 0.0979 0.0
O131 O 0.93486 0.42627 0.12 0.0
O132 O 0.94275 0.37547 0.11582 0.0
C133 C 0.03165 0.47379 0.09291 0.0
C134 C 0.90997 0.38743 0.07779 0.0
O135 O 0.92929 0.37048 0.08128 0.0
O136 O 0.91338 0.41647 0.08464 0.0
C137 C 0.00629 0.34616 0.10824 0.0
O138 O 0.01695 0.37586 0.11669 0.0
C139 C 0.93247 0.39414 0.12373 0.0
Zn140 Zn 0.77092 0.62397 0.09165 0.0
Zn141 Zn 0.695 0.60725 0.09357 0.0
O142 O 0.7281 0.66722 0.09749 0.0
O143 O 0.78965 0.68315 0.09327 0.0
O144 O 0.6398 0.59812 0.09097 0.0
O145 O 0.76056 0.59674 0.07311 0.0
O146 O 0.70015 0.58602 0.0753 0.0
C147 C 0.76485 0.6933 0.09666 0.0
C148 C 0.72512 0.57396 0.11494 0.0
O149 O 0.69563 0.5751 0.10981 0.0
O150 O 0.75884 0.59208 0.1093 0.0
C151 C 0.63786 0.61618 0.08054 0.0
O152 O 0.67058 0.63883 0.07381 0.0
C153 C 0.72572 0.58306 0.06839 0.0
Zn154 Zn 0.37468 0.12188 0.09462 0.0
Zn155 Zn 0.38219 0.05754 0.09657 0.0
O156 O 0.32285 0.03292 0.10068 0.0
O157 O 0.31574 0.08494 0.09748 0.0
O158 O 0.39104 0.01139 0.09475 0.0
O159 O 0.39605 0.13462 0.0757 0.0
O160 O 0.4005 0.08103 0.07753 0.0
C161 C 0.30107 0.04851 0.10039 0.0
C162 C 0.42381 0.12432 0.1173 0.0
O163 O 0.41583 0.09041 0.11283 0.0
O164 O 0.41098 0.1441 0.11112 0.0
C165 C 0.42588 0.01886 0.09196 0.0
O166 O 0.45536 0.05593 0.09217 0.0
C167 C 0.40465 0.11034 0.07059 0.0
Zn168 Zn 0.081 0.56393 0.92928 0.0
Zn169 Zn 0.06534 0.6222 0.92915 0.0
O170 O 0.01168 0.57491 0.93562 0.0
O171 O 0.02639 0.52742 0.93609 0.0
O172 O 0.05748 0.66975 0.92728 0.0
O173 O 0.09209 0.56686 0.90955 0.0
O174 O 0.08293 0.61794 0.90971 0.0
C175 C 0.00207 0.53907 0.93824 0.0
C176 C 0.12719 0.62336 0.94894 0.0
O177 O 0.10689 0.63844 0.94459 0.0
O178 O 0.12373 0.59267 0.9433 0.0
C179 C 0.03966 0.67317 0.91698 0.0
O180 O 0.02428 0.64434 0.90801 0.0
C181 C 0.09138 0.59483 0.90337 0.0
Zn182 Zn 0.28828 0.43491 0.92339 0.0
Zn183 Zn 0.35903 0.43926 0.92401 0.0
O184 O 0.32057 0.38125 0.91764 0.0
O185 O 0.26308 0.37866 0.91594 0.0
O186 O 0.41077 0.44139 0.92838 0.0
O187 O 0.28984 0.44579 0.94347 0.0
O188 O 0.34981 0.45438 0.94292 0.0
C189 C 0.28361 0.36215 0.91459 0.0
C190 C 0.34818 0.49594 0.90577 0.0
O191 O 0.37017 0.48199 0.90937 0.0
O192 O 0.31376 0.48199 0.91064 0.0
C193 C 0.42135 0.41769 0.92399 0.0
O194 O 0.3997 0.39157 0.91464 0.0
C195 C 0.32233 0.4552 0.94941 0.0
Zn196 Zn 0.62981 0.87297 0.92435 0.0
Zn197 Zn 0.63749 0.9444 0.9241 0.0
O198 O 0.69424 0.95903 0.9181 0.0
O199 O 0.68619 0.89892 0.91783 0.0
O200 O 0.6375 0.99577 0.9272 0.0
O201 O 0.61713 0.86359 0.94412 0.0
O202 O 0.62072 0.92145 0.94334 0.0
C203 C 0.70776 0.93595 0.91573 0.0
C204 C 0.57927 0.87913 0.90448 0.0
O205 O 0.59686 0.91521 0.90855 0.0
O206 O 0.58636 0.85434 0.91022 0.0
C207 C 0.60407 0.9917 0.93032 0.0
O208 O 0.57224 0.95602 0.92978 0.0
C209 C 0.6143 0.89078 0.94996 0.0
Zn210 Zn 0.63162 0.79879 0.43627 0.0
Zn211 Zn 0.63349 0.73181 0.43072 0.0
O212 O 0.6866 0.77599 0.42312 0.0
O213 O 0.68517 0.83068 0.42722 0.0
O214 O 0.63602 0.68145 0.42987 0.0
O215 O 0.62735 0.78857 0.45653 0.0
O216 O 0.62306 0.73214 0.45095 0.0
C217 C 0.70235 0.81363 0.42219 0.0
C218 C 0.56999 0.74303 0.4173 0.0
O219 O 0.58733 0.72298 0.41848 0.0
O220 O 0.58184 0.77455 0.42419 0.0
C221 C 0.60855 0.6509 0.43575 0.0
O222 O 0.57825 0.65246 0.44062 0.0
C223 C 0.62215 0.75496 0.45988 0.0
Zn224 Zn 0.44667 0.95216 0.42431 0.0
Zn225 Zn 0.37717 0.95055 0.4273 0.0
O226 O 0.42047 0.00625 0.43371 0.0
O227 O 0.47762 0.0107 0.4292 0.0
O228 O 0.32803 0.9553 0.42566 0.0
O229 O 0.43338 0.93222 0.40483 0.0
O230 O 0.37849 0.93335 0.40787 0.0
C231 C 0.45838 0.02601 0.43388 0.0
C232 C 0.39442 0.90051 0.44612 0.0
O233 O 0.36891 0.90938 0.44191 0.0
O234 O 0.42782 0.9146 0.44042 0.0
C235 C 0.29688 0.92807 0.41979 0.0
O236 O 0.29495 0.89446 0.41665 0.0
C237 C 0.40062 0.92693 0.40026 0.0
Zn238 Zn 0.10491 0.50046 0.43069 0.0
Zn239 Zn 0.08369 0.4246 0.43215 0.0
O240 O 0.02885 0.42031 0.43406 0.0
O241 O 0.04729 0.4839 0.43304 0.0
O242 O 0.07411 0.36863 0.43022 0.0
O243 O 0.13157 0.5096 0.41273 0.0
O244 O 0.1126 0.44624 0.41399 0.0
C245 C 0.02041 0.44788 0.43464 0.0
C246 C 0.13534 0.48336 0.45455 0.0
O247 O 0.11643 0.44776 0.44998 0.0
O248 O 0.13655 0.51137 0.44771 0.0
C249 C 0.1054 0.36639 0.42928 0.0
O250 O 0.14012 0.3987 0.43131 0.0
C251 C 0.13008 0.47915 0.4077 0.0
Zn252 Zn 0.99726 0.02786 0.12118 0.0
Zn253 Zn 0.98854 0.02326 0.17202 0.0
Zn254 Zn 0.99409 0.0245 0.14721 0.0
C255 C 0.03966 0.99623 0.16769 0.0
C256 C 0.02085 0.10127 0.16678 0.0
O257 O 0.01657 0.08723 0.14077 0.0
O258 O 0.01715 0.08485 0.11852 0.0
C259 C 0.91974 0.97132 0.12661 0.0
O260 O 0.02895 0.99814 0.1555 0.0
O261 O 0.02826 0.00896 0.17728 0.0
O262 O 0.00279 0.07774 0.1763 0.0
O263 O 0.0216 0.08724 0.15507 0.0
O264 O 0.94137 0.98933 0.11667 0.0
O265 O 0.93389 0.98166 0.13871 0.0
O266 O 0.03395 0.00221 0.14144 0.0
O267 O 0.03422 0.00778 0.11925 0.0
C268 C 0.04569 0.99813 0.12979 0.0
O269 O 0.92977 0.98847 0.15257 0.0
O270 O 0.93267 0.9832 0.17468 0.0
C271 C 0.02273 0.10456 0.12921 0.0
C272 C 0.9124 0.97518 0.16396 0.0
Zn273 Zn 0.06812 0.05424 0.35158 0.0
Zn274 Zn 0.05227 0.03285 0.39828 0.0
Zn275 Zn 0.05594 0.04313 0.37345 0.0
C276 C 0.08361 0.11415 0.39474 0.0
C277 C 0.97438 0.98932 0.38727 0.0
O278 O 0.07309 0.00035 0.36543 0.0
O279 O 0.05185 0.0011 0.34483 0.0
C280 C 0.12768 0.11798 0.36073 0.0
O281 O 0.08418 0.10361 0.38248 0.0
O282 O 0.06961 0.0882 0.40391 0.0
O283 O 0.99487 0.99222 0.3976 0.0
O284 O 0.99128 0.01017 0.37674 0.0
O285 O 0.12595 0.09206 0.35279 0.0
O286 O 0.09911 0.10775 0.36911 0.0
O287 O -0.00109 0.02664 0.36337 0.0
O288 O 0.03019 0.07355 0.34833 0.0
C289 C -0.00208 0.04841 0.35376 0.0
O290 O 0.08657 0.00917 0.37866 0.0
O291 O 0.08875 0.01253 0.40095 0.0
C292 C 0.06259 0.98486 0.35354 0.0
C293 C 0.09809 0.00255 0.39014 0.0
Zn294 Zn 0.04491 0.00269 0.90244 0.0
Zn295 Zn 0.05622 0.96616 0.86088 0.0
Zn296 Zn 0.04732 0.99551 0.8785 0.0
C297 C 0.02954 0.01649 0.85085 0.0
C298 C 0.97776 0.9267 0.8632 0.0
O299 O 0.04591 0.94305 0.886 0.0
O300 O 0.04127 0.95049 0.90767 0.0
C301 C 0.1128 0.07272 0.89338 0.0
O302 O 0.01352 0.0066 0.86263 0.0
O303 O 0.05385 0.00559 0.84761 0.0
O304 O 0.00281 0.91513 0.863 0.0
O305 O 0.98937 0.96209 0.86767 0.0
O306 O 0.09681 0.05473 0.90421 0.0
O307 O 0.09816 0.05545 0.88201 0.0
O308 O 0.99257 0.99702 0.87743 0.0
O309 O 0.99518 0.00618 0.89952 0.0
C310 C 0.97828 0.00303 0.88821 0.0
O311 O 0.10602 0.03304 0.87004 0.0
O312 O 0.11169 0.98058 0.86678 0.0
C313 C 0.043 0.93026 0.89802 0.0
C314 C 0.12762 0.01816 0.86691 0.0
Zn315 Zn 0.97757 0.99685 0.66779 0.0
Zn316 Zn 0.98765 0.00351 0.62112 0.0
Zn317 Zn 0.98423 0.00115 0.64571 0.0
C318 C 0.95598 0.92405 0.62742 0.0
C319 C 0.06547 0.05156 0.63068 0.0
O320 O 0.96635 0.04445 0.65224 0.0
O321 O 0.99674 0.05307 0.67184 0.0
C322 C 0.91342 0.93221 0.66093 0.0
O323 O 0.95461 0.93799 0.63905 0.0
O324 O 0.97119 0.94732 0.61756 0.0
O325 O 0.04441 0.04528 0.62021 0.0
O326 O 0.04907 0.03363 0.64174 0.0
O327 O 0.9198 0.96017 0.66877 0.0
O328 O 0.9392 0.93849 0.65178 0.0
O329 O 0.04292 0.0195 0.65519 0.0
O330 O 0.01391 0.97614 0.67143 0.0
C331 C 0.04523 -0.00045 0.66519 0.0
O332 O 0.95411 0.03416 0.63885 0.0
O333 O 0.94969 0.02093 0.61706 0.0
C334 C 0.98107 0.06471 0.66319 0.0
C335 C 0.94145 0.03574 0.62691 0.0
Zn336 Zn 0.6897 0.40564 0.50318 0.0
Zn337 Zn 0.67328 0.36887 0.45862 0.0
Zn338 Zn 0.68049 0.38218 0.48187 0.0
C339 C 0.75004 0.39046 0.4645 0.0
C340 C 0.62054 0.29897 0.47093 0.0
O341 O 0.63571 0.40053 0.4856 0.0
O342 O 0.63707 0.39579 0.50772 0.0
C343 C 0.75662 0.45744 0.49384 0.0
O344 O 0.74137 0.40617 0.47428 0.0
O345 O 0.72288 0.36651 0.45658 0.0
O346 O 0.62198 0.31827 0.4605 0.0
O347 O 0.64597 0.31659 0.48053 0.0
O348 O 0.73095 0.46177 0.49991 0.0
O349 O 0.74483 0.42519 0.487 0.0
O350 O 0.66108 0.32905 0.4942 0.0
O351 O 0.70402 0.36575 0.51004 0.0
C352 C 0.6807 0.33179 0.50504 0.0
O353 O 0.65164 0.41379 0.47309 0.0
O354 O 0.672 0.41661 0.4523 0.0
C355 C 0.62011 0.39834 0.49721 0.0
C356 C 0.65685 0.42817 0.46106 0.0
Zn357 Zn 0.70019 0.36338 0.73166 0.0
Zn358 Zn 0.76235 0.38441 0.68777 0.0
Zn359 Zn 0.72357 0.3736 0.7073 0.0
C360 C 0.68593 0.36925 0.67966 0.0
C361 C 0.80196 0.45466 0.69845 0.0
O362 O 0.74728 0.34007 0.71856 0.0
O363 O 0.73178 0.34215 0.73976 0.0
C364 C 0.63387 0.32231 0.71375 0.0
O365 O 0.67777 0.3564 0.69183 0.0
O366 O 0.72181 0.38776 0.67592 0.0
O367 O 0.8124 0.43277 0.69271 0.0
O368 O 0.76715 0.4386 0.70374 0.0
O369 O 0.64479 0.32512 0.72593 0.0
O370 O 0.65915 0.34193 0.70451 0.0
O371 O 0.74599 0.43345 0.71627 0.0
O372 O 0.71659 0.41895 0.7361 0.0
C373 C 0.73829 0.44447 0.7275 0.0
O374 O 0.74036 0.32676 0.70505 0.0
O375 O 0.76447 0.33655 0.68452 0.0
C376 C 0.74949 0.33309 0.73119 0.0
C377 C 0.75132 0.31465 0.69474 0.0
Zn378 Zn 0.68455 0.3272 0.23253 0.0
Zn379 Zn 0.67897 0.31895 0.18614 0.0
Zn380 Zn 0.6815 0.32465 0.20837 0.0
C381 C 0.68609 0.38884 0.1893 0.0
C382 C 0.61164 0.25793 0.19192 0.0
O383 O 0.70768 0.28763 0.21496 0.0
O384 O 0.68974 0.28006 0.23624 0.0
C385 C 0.73819 0.40351 0.22406 0.0
O386 O 0.70456 0.38463 0.19943 0.0
O387 O 0.66187 0.35848 0.18258 0.0
O388 O 0.64009 0.26125 0.18505 0.0
O389 O 0.61892 0.28441 0.20102 0.0
O390 O 0.73302 0.38076 0.23388 0.0
O391 O 0.71719 0.389 0.21323 0.0
O392 O 0.61849 0.29878 0.21418 0.0
O393 O 0.63202 0.32324 0.2348 0.0
C394 C 0.6072 0.30695 0.22526 0.0
O395 O 0.72389 0.30499 0.2028 0.0
O396 O 0.73535 0.33675 0.18351 0.0
C397 C 0.70362 0.27046 0.22648 0.0
C398 C 0.7459 0.32077 0.19239 0.0
Zn399 Zn 0.63552 0.3045 1.00759 0.0
Zn400 Zn 0.65399 0.31318 0.9594 0.0
Zn401 Zn 0.6475 0.31193 0.98477 0.0
C402 C 0.61073 0.23387 0.96495 0.0
C403 C 0.73083 0.34806 0.97032 0.0
O404 O 0.63275 0.35803 0.99066 0.0
O405 O 0.6481 0.35844 0.01215 0.0
C406 C 0.57402 0.23909 0.99901 0.0
O407 O 0.61504 0.2491 0.97685 0.0
O408 O 0.62427 0.25627 0.95483 0.0
O409 O 0.71244 0.33978 0.95916 0.0
O410 O 0.71168 0.339 0.98146 0.0
O411 O 0.57933 0.26361 1.00817 0.0
O412 O 0.59999 0.24923 0.98964 0.0
O413 O 0.70438 0.32798 0.99532 0.0
O414 O 0.67532 0.2893 0.01273 0.0
C415 C 0.7065 0.31061 1.00611 0.0
O416 O 0.62408 0.35015 0.97685 0.0
O417 O 0.62994 0.34532 0.9549 0.0
C418 C 0.64031 0.37434 1.00245 0.0
C419 C 0.61919 0.35836 0.9646 0.0
Zn420 Zn 0.31349 0.72912 0.82687 0.0
Zn421 Zn 0.33242 0.69347 0.78583 0.0
Zn422 Zn 0.32491 0.70118 0.80947 0.0
C423 C 0.39701 0.69509 0.80154 0.0
C424 C 0.26232 0.62395 0.79429 0.0
O425 O 0.26529 0.66317 0.81734 0.0
O426 O 0.25879 0.71524 0.82029 0.0
C427 C 0.39238 0.77004 0.82535 0.0
O428 O 0.38047 0.70119 0.81168 0.0
O429 O 0.38202 0.69064 0.78982 0.0
O430 O 0.28049 0.64151 0.78366 0.0
O431 O 0.27489 0.64137 0.80574 0.0
O432 O 0.36667 0.78076 0.82548 0.0
O433 O 0.38163 0.73483 0.82092 0.0
O434 O 0.35816 0.69054 0.82572 0.0
O435 O 0.31419 0.6879 0.83985 0.0
C436 C 0.3398 0.67831 0.83705 0.0
O437 O 0.32615 0.75289 0.80133 0.0
O438 O 0.33688 0.74571 0.78015 0.0
C439 C 0.24318 0.6777 0.82021 0.0
C440 C 0.332 0.76554 0.78923 0.0
Zn441 Zn 0.38413 0.70246 0.06703 0.0
Zn442 Zn 0.38056 0.70626 0.01851 0.0
Zn443 Zn 0.3801 0.70157 0.04119 0.0
C444 C 0.31491 0.70521 0.024 0.0
C445 C 0.44809 0.76957 0.02387 0.0
O446 O 0.40443 0.66299 0.0468 0.0
O447 O 0.40879 0.66945 0.06898 0.0
C448 C 0.30357 0.6682 0.05972 0.0
O449 O 0.31988 0.68601 0.03369 0.0
O450 O 0.34416 0.7275 0.01672 0.0
O451 O 0.43688 0.74317 0.0149 0.0
O452 O 0.42699 0.76262 0.03454 0.0
O453 O 0.32619 0.67697 0.06991 0.0
O454 O 0.31814 0.67607 0.04778 0.0
O455 O 0.41722 0.76449 0.04794 0.0
O456 O 0.41691 0.76038 0.07019 0.0
C457 C 0.42688 0.78134 0.05966 0.0
O458 O 0.39245 0.65595 0.03319 0.0
O459 O 0.35996 0.64958 0.01419 0.0
C460 C 0.41433 0.65525 0.05836 0.0
C461 C 0.37573 0.63652 0.02227 0.0
Zn462 Zn 0.38709 0.68458 0.56633 0.0
Zn463 Zn 0.36709 0.64481 0.52234 0.0
Zn464 Zn 0.37584 0.66925 0.54362 0.0
C465 C 0.37091 0.71659 0.52045 0.0
C466 C 0.30181 0.59193 0.53309 0.0
O467 O 0.40352 0.636 0.55212 0.0
O468 O 0.38387 0.63492 0.57287 0.0
C469 C 0.43779 0.75261 0.55329 0.0
O470 O 0.39243 0.72131 0.53097 0.0
O471 O 0.3487 0.68193 0.51577 0.0
O472 O 0.32841 0.58864 0.5272 0.0
O473 O 0.31208 0.62481 0.5393 0.0
O474 O 0.43962 0.73328 0.56323 0.0
O475 O 0.40957 0.73474 0.54454 0.0
O476 O 0.31624 0.6462 0.55185 0.0
O477 O 0.33917 0.68972 0.56844 0.0
C478 C 0.31007 0.66464 0.56137 0.0
O479 O 0.42231 0.65333 0.54047 0.0
O480 O 0.42223 0.66001 0.51843 0.0
C481 C 0.39659 0.62098 0.56408 0.0
C482 C 0.43943 0.65828 0.529 0.0
Zn483 Zn 0.34396 0.69287 0.29748 0.0
Zn484 Zn 0.27929 0.65918 0.33831 0.0
Zn485 Zn 0.32129 0.67647 0.31964 0.0
C486 C 0.35811 0.68084 0.34682 0.0
C487 C 0.24922 0.59055 0.32743 0.0
O488 O 0.28763 0.70103 0.30918 0.0
O489 O 0.29939 0.69295 0.28815 0.0
C490 C 0.40558 0.7446 0.31413 0.0
O491 O 0.36665 0.69673 0.33508 0.0
O492 O 0.32199 0.65845 0.34999 0.0
O493 O 0.23276 0.60914 0.33152 0.0
O494 O 0.28519 0.61077 0.32314 0.0
O495 O 0.3905 0.74468 0.30282 0.0
O496 O 0.3858 0.71583 0.32238 0.0
O497 O 0.30757 0.61982 0.31007 0.0
O498 O 0.35039 0.64675 0.29361 0.0
C499 C 0.32631 0.61617 0.30012 0.0
O500 O 0.29802 0.71834 0.32216 0.0
O501 O 0.2726 0.70407 0.34253 0.0
C502 C 0.27985 0.70032 0.29647 0.0
C503 C 0.28531 0.7277 0.33272 0.0
H504 H 0.13176 0.18115 0.23272 0.0
H505 H 0.22515 0.27997 0.21109 0.0
H506 H 0.08698 0.16587 0.21348 0.0
H507 H 0.18027 0.26375 0.19142 0.0
H508 H 0.09884 0.14817 0.16037 0.0
H509 H 0.14769 0.19705 0.17615 0.0
H510 H 0.05312 0.19585 0.19854 0.0
H511 H 0.00446 0.14694 0.18285 0.0
C512 C 0.14242 0.20004 0.2239 0.0
C513 C 0.18178 0.23172 0.22338 0.0
C514 C 0.11674 0.1915 0.2129 0.0
C515 C 0.13005 0.21385 0.20097 0.0
C516 C 0.1692 0.24631 0.20053 0.0
C517 C 0.19474 0.25559 0.21176 0.0
C518 C 0.0887 0.16034 0.16812 0.0
C519 C 0.04789 0.14324 0.17057 0.0
C520 C 0.11671 0.18816 0.17724 0.0
C521 C 0.104 0.19926 0.18879 0.0
C522 C 0.06363 0.18726 0.18985 0.0
C523 C 0.03578 0.15953 0.18078 0.0
H524 H 0.74116 0.96692 0.21605 0.0
H525 H 0.77538 0.88069 0.22602 0.0
H526 H 0.76266 0.96893 0.19288 0.0
H527 H 0.79925 0.88453 0.20356 0.0
H528 H 0.85551 0.89724 0.16705 0.0
H529 H 0.79753 0.87594 0.18113 0.0
H530 H 0.82029 0.99667 0.18136 0.0
H531 H 0.87492 0.01604 0.16615 0.0
C532 C 0.75316 0.94833 0.21328 0.0
C533 C 0.75709 0.9241 0.22292 0.0
C534 C 0.76567 0.94952 0.19999 0.0
C535 C 0.78333 0.92727 0.19615 0.0
C536 C 0.78522 0.90162 0.20576 0.0
C537 C 0.77195 0.89979 0.21887 0.0
C538 C 0.84615 0.91832 0.16935 0.0
C539 C 0.86956 0.95822 0.16557 0.0
C540 C 0.81357 0.90653 0.17778 0.0
C541 C 0.80541 0.93502 0.18318 0.0
C542 C 0.82543 0.97363 0.17769 0.0
C543 C 0.85691 0.98491 0.16882 0.0
H544 H 0.95712 0.81959 0.21456 0.0
H545 H 0.07798 0.85782 0.22652 0.0
H546 H 0.98089 0.86015 0.19441 0.0
H547 H 0.1021 0.89956 0.20623 0.0
H548 H 0.09683 0.01269 0.18652 0.0
H549 H 0.09722 0.96174 0.20059 0.0
H550 H 0.01832 0.87163 0.17221 0.0
H551 H 0.01834 0.92294 0.15803 0.0
C552 C 0.98884 0.83648 0.21282 0.0
C553 C 0.01571 0.83599 0.22221 0.0
C554 C 0.00246 0.85925 0.20114 0.0
C555 C 0.04337 0.88268 0.19864 0.0
C556 C 0.07039 0.88147 0.20785 0.0
C557 C 0.05662 0.85783 0.21946 0.0
C558 C 0.08164 0.98227 0.18286 0.0
C559 C 0.05688 0.97155 0.17137 0.0
C560 C 0.08173 0.953 0.19096 0.0
C561 C 0.05678 0.91265 0.18769 0.0
C562 C 0.0373 0.90256 0.17505 0.0
C563 C 0.03765 0.93198 0.16685 0.0
H564 H 0.23822 0.1742 0.29589 0.0
H565 H 0.22776 0.27912 0.29516 0.0
H566 H 0.2212 0.16502 0.3196 0.0
H567 H 0.20993 0.26941 0.31913 0.0
H568 H 0.1105 0.17176 0.3505 0.0
H569 H 0.1486 0.21371 0.33166 0.0
H570 H 0.24632 0.19701 0.34256 0.0
H571 H 0.20778 0.15446 0.36117 0.0
C572 C 0.2325 0.19549 0.30082 0.0
C573 C 0.23405 0.22719 0.2936 0.0
C574 C 0.22324 0.19054 0.31449 0.0
C575 C 0.21478 0.21685 0.32131 0.0
C576 C 0.21664 0.24889 0.31417 0.0
C577 C 0.22671 0.25432 0.30046 0.0
C578 C 0.14119 0.17946 0.34947 0.0
C579 C 0.15603 0.15941 0.35712 0.0
C580 C 0.1629 0.20313 0.33854 0.0
C581 C 0.19982 0.20733 0.33535 0.0
C582 C 0.21751 0.19345 0.3446 0.0
C583 C 0.19573 0.16966 0.35543 0.0
H584 H 0.82155 0.0356 0.29525 0.0
H585 H 0.83119 0.93025 0.29336 0.0
H586 H 0.86375 0.05709 0.31556 0.0
H587 H 0.87321 0.95175 0.31334 0.0
H588 H 0.92574 0.97917 0.35383 0.0
H589 H 0.87156 0.96086 0.33759 0.0
H590 H 0.9329 0.08047 0.32178 0.0
H591 H 0.98621 0.09888 0.33818 0.0
C592 C 0.83291 0.01724 0.29907 0.0
C593 C 0.82301 0.98125 0.29264 0.0
C594 C 0.85685 0.02941 0.31075 0.0
C595 C 0.87121 0.00573 0.31623 0.0
C596 C 0.86173 0.97014 0.30965 0.0
C597 C 0.83802 0.95809 0.29804 0.0
C598 C 0.92684 0.00188 0.34725 0.0
C599 C 0.96044 0.04026 0.34713 0.0
C600 C 0.8961 0.99131 0.33781 0.0
C601 C 0.89846 0.01897 0.32815 0.0
C602 C 0.93012 0.05841 0.32902 0.0
C603 C 0.96078 0.06892 0.33842 0.0
H604 H 0.04791 0.81445 0.29542 0.0
H605 H 0.94075 0.8206 0.29734 0.0
H606 H 0.07072 0.85043 0.31678 0.0
H607 H 0.9637 0.85668 0.31864 0.0
H608 H 0.00168 0.91086 0.35836 0.0
H609 H 0.98098 0.8552 0.34273 0.0
H610 H 0.09393 0.92052 0.32269 0.0
H611 H 0.11422 0.97578 0.33833 0.0
C612 C 0.02893 0.82299 0.30047 0.0
C613 C 0.99261 0.81497 0.29456 0.0
C614 C 0.04208 0.84363 0.31273 0.0
C615 C 0.01908 0.85641 0.31945 0.0
C616 C 0.98193 0.84676 0.31385 0.0
C617 C 0.96891 0.82639 0.30155 0.0
C618 C 0.02292 0.91215 0.35114 0.0
C619 C 0.05973 0.94728 0.34964 0.0
C620 C 0.0108 0.88065 0.34201 0.0
C621 C 0.03546 0.88379 0.33127 0.0
C622 C 0.07422 0.917 0.33085 0.0
C623 C 0.08612 0.94858 0.33991 0.0
H624 H 0.7958 0.77231 0.80352 0.0
H625 H 0.85371 0.89363 0.78945 0.0
H626 H 0.83341 0.79494 0.82473 0.0
H627 H 0.89236 0.91608 0.81022 0.0
H628 H 0.93418 0.95611 0.85156 0.0
H629 H 0.88658 0.92669 0.83311 0.0
H630 H 0.89666 0.82156 0.83509 0.0
H631 H 0.94221 0.85 0.85421 0.0
C632 C 0.81714 0.8037 0.80485 0.0
C633 C 0.8217 0.83119 0.79483 0.0
C634 C 0.83864 0.81674 0.81703 0.0
C635 C 0.86549 0.85752 0.81937 0.0
C636 C 0.87106 0.88464 0.80905 0.0
C637 C 0.84927 0.8717 0.79701 0.0
C638 C 0.92483 0.92597 0.84853 0.0
C639 C 0.94182 0.90533 0.85449 0.0
C640 C 0.89821 0.9094 0.83766 0.0
C641 C 0.88847 0.87208 0.8323 0.0
C642 C 0.9033 0.85028 0.83889 0.0
C643 C 0.92953 0.86666 0.84988 0.0
H644 H 0.28601 0.15633 0.80234 0.0
H645 H 0.25225 0.03289 0.79855 0.0
H646 H 0.26195 0.14457 0.82542 0.0
H647 H 0.22642 0.02053 0.8213 0.0
H648 H 0.18599 0.00074 0.8626 0.0
H649 H 0.2349 0.02777 0.84469 0.0
H650 H 0.20015 0.11442 0.83578 0.0
H651 H 0.15311 0.08877 0.8541 0.0
C652 C 0.27358 0.12668 0.80647 0.0
C653 C 0.2706 0.09542 0.79856 0.0
C654 C 0.25963 0.11989 0.8197 0.0
C655 C 0.24179 0.08151 0.82528 0.0
C656 C 0.2405 0.05067 0.81752 0.0
C657 C 0.255 0.05762 0.80437 0.0
C658 C 0.18999 0.02657 0.85714 0.0
C659 C 0.16525 0.04219 0.8596 0.0
C660 C 0.21764 0.04175 0.84673 0.0
C661 C 0.22063 0.07242 0.83842 0.0
C662 C 0.19887 0.09079 0.84189 0.0
C663 C 0.17173 0.07605 0.85246 0.0
H664 H 0.97723 0.17054 0.7991 0.0
H665 H 0.08087 0.16857 0.78547 0.0
H666 H 0.96623 0.12023 0.81623 0.0
H667 H 0.07018 0.11951 0.80235 0.0
H668 H 0.02815 0.00803 0.82378 0.0
H669 H 0.02215 0.0494 0.80669 0.0
H670 H 0.00032 0.11334 0.83763 0.0
H671 H 0.00529 0.07061 0.8549 0.0
C672 C -0.00253 0.15932 0.79969 0.0
C673 C 0.02986 0.17357 0.79086 0.0
C674 C 0.99128 0.13071 0.80953 0.0
C675 C 0.01706 0.11552 0.81055 0.0
C676 C 0.04924 0.12988 0.80169 0.0
C677 C 0.05554 0.15837 0.79202 0.0
C678 C 0.02135 0.03042 0.82695 0.0
C679 C 0.01798 0.03667 0.84069 0.0
C680 C 0.01801 0.05422 0.81715 0.0
C681 C 0.0118 0.08535 0.82082 0.0
C682 C 0.00522 0.08965 0.83449 0.0
C683 C 0.00814 0.06531 0.84437 0.0
H684 H 0.78012 0.76588 0.72276 0.0
H685 H 0.76532 0.86811 0.72054 0.0
H686 H 0.80786 0.78009 0.70007 0.0
H687 H 0.79327 0.88248 0.69809 0.0
H688 H 0.83513 0.90559 0.65801 0.0
H689 H 0.78657 0.86302 0.67468 0.0
H690 H 0.87053 0.8319 0.69058 0.0
H691 H 0.9183 0.87346 0.67355 0.0
C692 C 0.78227 0.79106 0.71738 0.0
C693 C 0.7708 0.81609 0.72354 0.0
C694 C 0.79822 0.7992 0.70437 0.0
C695 C 0.80272 0.83233 0.69719 0.0
C696 C 0.78961 0.85625 0.70317 0.0
C697 C 0.77393 0.84827 0.71615 0.0
C698 C 0.84208 0.88746 0.66447 0.0
C699 C 0.88036 0.89269 0.66449 0.0
C700 C 0.81461 0.86374 0.67424 0.0
C701 C 0.82519 0.84522 0.6843 0.0
C702 C 0.86135 0.84582 0.68304 0.0
C703 C 0.88869 0.86931 0.67316 0.0
H704 H 0.22078 0.00982 0.72293 0.0
H705 H 0.20445 0.11065 0.72747 0.0
H706 H 0.18174 0.99166 0.70197 0.0
H707 H 0.16533 0.09228 0.7068 0.0
H708 H 0.11551 0.07049 0.66597 0.0
H709 H 0.16942 0.08843 0.68233 0.0
H710 H 0.11275 0.96605 0.69538 0.0
H711 H 0.05979 0.94824 0.67889 0.0
C712 C 0.20865 0.02791 0.71953 0.0
C713 C 0.2156 0.06157 0.72694 0.0
C714 C 0.1865 0.01765 0.70748 0.0
C715 C 0.17097 0.0409 0.70258 0.0
C716 C 0.17775 0.07433 0.71006 0.0
C717 C 0.19973 0.08451 0.72206 0.0
C718 C 0.11562 0.04724 0.67192 0.0
C719 C 0.08337 0.0081 0.67129 0.0
C720 C 0.14612 0.05754 0.68143 0.0
C721 C 0.14479 0.02882 0.6904 0.0
C722 C 0.11474 0.98893 0.68868 0.0
C723 C 0.08432 0.97871 0.67922 0.0
H724 H 0.97612 0.21805 0.72314 0.0
H725 H 0.09254 0.23309 0.71777 0.0
H726 H 0.95521 0.18532 0.70118 0.0
H727 H 0.07148 0.19964 0.6961 0.0
H728 H 0.03604 0.14117 0.65787 0.0
H729 H 0.05063 0.19599 0.67317 0.0
H730 H 0.93952 0.121 0.69341 0.0
H731 H 0.92485 0.06718 0.67782 0.0
C732 C -0.00256 0.21486 0.71721 0.0
C733 C 0.03588 0.22773 0.72233 0.0
C734 C 0.9854 0.19602 0.70462 0.0
C735 C 0.01147 0.18953 0.69683 0.0
C736 C 0.05063 0.20454 0.70164 0.0
C737 C 0.06268 0.22345 0.7142 0.0
C738 C 0.01367 0.13747 0.66503 0.0
C739 C 0.9792 0.10019 0.66663 0.0
C740 C 0.02235 0.16854 0.67401 0.0
C741 C 0.99688 0.16259 0.68483 0.0
C742 C 0.95992 0.12689 0.68524 0.0
C743 C 0.95121 0.09598 0.67621 0.0
H744 H 0.87265 0.48454 0.56295 0.0
H745 H 0.92903 0.60951 0.55331 0.0
H746 H 0.84676 0.46752 0.5401 0.0
H747 H 0.9039 0.59241 0.53014 0.0
H748 H 0.81157 0.43555 0.49906 0.0
H749 H 0.86185 0.46601 0.5169 0.0
H750 H 0.84248 0.56549 0.51826 0.0
H751 H 0.79365 0.53572 0.5002 0.0
C752 C 0.87965 0.50846 0.55592 0.0
C753 C 0.90261 0.54841 0.56002 0.0
C754 C 0.86535 0.49868 0.5427 0.0
C755 C 0.8738 0.52854 0.53313 0.0
C756 C 0.89676 0.5686 0.53722 0.0
C757 C 0.91093 0.57842 0.55053 0.0
C758 C 0.81982 0.465 0.50262 0.0
C759 C 0.7981 0.48286 0.4985 0.0
C760 C 0.84803 0.48213 0.51307 0.0
C761 C 0.85489 0.51733 0.51946 0.0
C762 C 0.83776 0.53818 0.51375 0.0
C763 C 0.8098 0.52117 0.5033 0.0
H764 H 0.43882 0.35538 0.5517 0.0
H765 H 0.45216 0.25388 0.5442 0.0
H766 H 0.47093 0.38449 0.53034 0.0
H767 H 0.48507 0.28332 0.52311 0.0
H768 H 0.5508 0.33696 0.48764 0.0
H769 H 0.48939 0.30811 0.50055 0.0
H770 H 0.53962 0.41492 0.52487 0.0
H771 H 0.60008 0.44334 0.51186 0.0
C772 C 0.44795 0.33891 0.54539 0.0
C773 C 0.44365 0.30264 0.54981 0.0
C774 C 0.4664 0.35564 0.53313 0.0
C775 C 0.48113 0.33661 0.52503 0.0
C776 C 0.47382 0.29878 0.52896 0.0
C777 C 0.45524 0.28198 0.54117 0.0
C778 C 0.54749 0.35518 0.49514 0.0
C779 C 0.58011 0.39224 0.49883 0.0
C780 C 0.51264 0.33836 0.50274 0.0
C781 C 0.51001 0.35858 0.51407 0.0
C782 C 0.54037 0.39825 0.51628 0.0
C783 C 0.57513 0.41486 0.50874 0.0
H784 H 0.58584 0.13483 0.56203 0.0
H785 H 0.70685 0.2166 0.57438 0.0
H786 H 0.5958 0.17181 0.54133 0.0
H787 H 0.71631 0.25621 0.55423 0.0
H788 H 0.7353 0.31439 0.51452 0.0
H789 H 0.72544 0.26577 0.53176 0.0
H790 H 0.59983 0.22628 0.53205 0.0
H791 H 0.60984 0.27245 0.51395 0.0
C792 C 0.61449 0.16131 0.56037 0.0
C793 C 0.64549 0.17315 0.56985 0.0
C794 C 0.62022 0.18279 0.5485 0.0
C795 C 0.65681 0.21756 0.54594 0.0
C796 C 0.6879 0.22926 0.55553 0.0
C797 C 0.68248 0.2069 0.56723 0.0
C798 C 0.70544 0.29412 0.51799 0.0
C799 C 0.67324 0.2967 0.51288 0.0
C800 C 0.69977 0.26674 0.5281 0.0
C801 C 0.66194 0.24237 0.53372 0.0
C802 C 0.62941 0.24384 0.52801 0.0
C803 C 0.63498 0.27036 0.51758 0.0
H804 H 0.93494 0.52001 0.64106 0.0
H805 H 0.90481 0.61009 0.63252 0.0
H806 H 0.90992 0.51337 0.66376 0.0
H807 H 0.87873 0.6028 0.65549 0.0
H808 H 0.77654 0.49737 0.68462 0.0
H809 H 0.81779 0.54221 0.66687 0.0
H810 H 0.92183 0.55104 0.6859 0.0
H811 H 0.8803 0.50534 0.70341 0.0
C812 C 0.92319 0.53864 0.64409 0.0
C813 C 0.92153 0.56529 0.63498 0.0
C814 C 0.90935 0.53527 0.65718 0.0
C815 C 0.89291 0.55806 0.6615 0.0
C816 C 0.89165 0.58523 0.65247 0.0
C817 C 0.9064 0.58924 0.63935 0.0
C818 C 0.80855 0.51122 0.68557 0.0
C819 C 0.82521 0.49714 0.69513 0.0
C820 C 0.83222 0.53667 0.67529 0.0
C821 C 0.87274 0.5487 0.67474 0.0
C822 C 0.89045 0.54132 0.68592 0.0
C823 C 0.86675 0.51562 0.69608 0.0
H824 H 0.52965 0.27493 0.61074 0.0
H825 H 0.49129 0.34997 0.629 0.0
H826 H 0.57933 0.29289 0.62862 0.0
H827 H 0.54097 0.3675 0.64706 0.0
H828 H 0.60694 0.34402 0.68394 0.0
H829 H 0.55529 0.32845 0.6667 0.0
H830 H 0.64224 0.3598 0.63548 0.0
H831 H 0.69352 0.37564 0.65246 0.0
C832 C 0.53183 0.29528 0.61856 0.0
C833 C 0.50668 0.3112 0.61841 0.0
C834 C 0.56028 0.30555 0.62878 0.0
C835 C 0.56386 0.33149 0.6392 0.0
C836 C 0.53857 0.34722 0.63917 0.0
C837 C 0.51046 0.33746 0.62878 0.0
C838 C 0.61495 0.3477 0.6734 0.0
C839 C 0.6543 0.36095 0.66959 0.0
C840 C 0.58551 0.33902 0.66357 0.0
C841 C 0.59487 0.34278 0.64979 0.0
C842 C 0.63419 0.35635 0.64603 0.0
C843 C 0.66356 0.36557 0.65579 0.0
H844 H 0.59952 0.14875 0.64501 0.0
H845 H 0.69274 0.12063 0.64221 0.0
H846 H 0.62829 0.18381 0.66614 0.0
H847 H 0.72085 0.15458 0.66357 0.0
H848 H 0.79073 0.28461 0.68159 0.0
H849 H 0.75751 0.2237 0.66849 0.0
H850 H 0.64819 0.1883 0.68951 0.0
H851 H 0.68181 0.25009 0.70251 0.0
C852 C 0.62551 0.14908 0.6491 0.0
C853 C 0.64427 0.13262 0.64178 0.0
C854 C 0.64191 0.16892 0.66132 0.0
C855 C 0.67728 0.17248 0.66655 0.0
C856 C 0.69407 0.15311 0.65974 0.0
C857 C 0.6779 0.13361 0.64748 0.0
C858 C 0.76021 0.26279 0.68395 0.0
C859 C 0.73873 0.27238 0.69289 0.0
C860 C 0.7409 0.22776 0.67636 0.0
C861 C 0.69969 0.20158 0.6776 0.0
C862 C 0.67969 0.20836 0.68804 0.0
C863 C 0.69918 0.24345 0.6957 0.0
H864 H 0.46194 0.20092 0.12637 0.0
H865 H 0.43464 0.08275 0.13752 0.0
H866 H 0.49739 0.22681 0.14759 0.0
H867 H 0.46846 0.10821 0.15916 0.0
H868 H 0.58482 0.18222 0.18434 0.0
H869 H 0.53266 0.14551 0.16779 0.0
H870 H 0.49573 0.23244 0.17103 0.0
H871 H 0.55004 0.27048 0.18705 0.0
C872 C 0.46321 0.18038 0.13344 0.0
C873 C 0.44594 0.13989 0.13018 0.0
C874 C 0.48307 0.19512 0.14575 0.0
C875 C 0.48566 0.16965 0.15525 0.0
C876 C 0.4676 0.1289 0.15207 0.0
C877 C 0.44826 0.11426 0.13964 0.0
C878 C 0.56446 0.19255 0.18192 0.0
C879 C 0.57136 0.22908 0.18699 0.0
C880 C 0.53445 0.1715 0.17237 0.0
C881 C 0.51044 0.18644 0.16774 0.0
C882 C 0.5144 0.22062 0.17406 0.0
C883 C 0.54486 0.24197 0.18352 0.0
H884 H 0.95744 0.42872 0.14841 0.0
H885 H 0.86877 0.32141 0.1286 0.0
H886 H 0.92412 0.40379 0.16989 0.0
H887 H 0.83278 0.29775 0.14957 0.0
H888 H 0.75977 0.26196 0.18459 0.0
H889 H 0.81645 0.27455 0.17084 0.0
H890 H 0.87188 0.40024 0.18003 0.0
H891 H 0.81714 0.38658 0.19435 0.0
C892 C 0.93071 0.39966 0.14873 0.0
C893 C 0.91524 0.37711 0.13692 0.0
C894 C 0.91126 0.38536 0.16102 0.0
C895 C 0.87476 0.34901 0.16163 0.0
C896 C 0.86081 0.32558 0.14979 0.0
C897 C 0.88117 0.33928 0.13764 0.0
C898 C 0.78546 0.29175 0.18431 0.0
C899 C 0.78428 0.32335 0.19049 0.0
C900 C 0.81759 0.29932 0.17611 0.0
C901 C 0.84838 0.33877 0.17367 0.0
C902 C 0.84925 0.36942 0.18143 0.0
C903 C 0.8177 0.36165 0.1898 0.0
H904 H 0.6574 0.51171 0.12531 0.0
H905 H 0.78279 0.58789 0.13355 0.0
H906 H 0.65078 0.47459 0.14579 0.0
H907 H 0.77602 0.55264 0.15454 0.0
H908 H 0.7578 0.44469 0.17987 0.0
H909 H 0.76863 0.49459 0.16303 0.0
H910 H 0.64861 0.47012 0.16882 0.0
H911 H 0.63741 0.41812 0.18486 0.0
C912 C 0.68345 0.5209 0.13164 0.0
C913 C 0.72065 0.5524 0.12773 0.0
C914 C 0.67967 0.49991 0.14353 0.0
C915 C 0.71285 0.51046 0.15202 0.0
C916 C 0.74987 0.54291 0.14824 0.0
C917 C 0.75377 0.5633 0.13619 0.0
C918 C 0.73437 0.45119 0.17787 0.0
C919 C 0.69689 0.42785 0.18365 0.0
C920 C 0.74039 0.47974 0.16813 0.0
C921 C 0.70914 0.48594 0.16417 0.0
C922 C 0.67297 0.46532 0.17115 0.0
C923 C 0.66671 0.4361 0.18059 0.0
H924 H 0.41295 0.16707 0.05266 0.0
H925 H 0.43193 0.06781 0.057 0.0
H926 H 0.44424 0.18179 0.03081 0.0
H927 H 0.4628 0.08214 0.03479 0.0
H928 H 0.57724 0.17897 1.01102 0.0
H929 H 0.52552 0.13407 0.0263 0.0
H930 H 0.44389 0.16438 1.00772 0.0
H931 H 0.49661 0.21069 0.99287 0.0
C932 C 0.42322 0.14793 0.04885 0.0
C933 C 0.42039 0.11661 0.05668 0.0
C934 C 0.44075 0.15602 0.03617 0.0
C935 C 0.45594 0.13301 0.03093 0.0
C936 C 0.4516 0.10057 0.03853 0.0
C937 C 0.43393 0.0924 0.05126 0.0
C938 C 0.5475 0.174 1.00962 0.0
C939 C 0.54089 0.19841 1.00088 0.0
C940 C 0.51779 0.1485 0.01851 0.0
C941 C 0.48095 0.14683 0.01861 0.0
C942 C 0.47238 0.16601 1.0082 0.0
C943 C 0.5023 0.1919 0.99946 0.0
H944 H 0.88808 0.3221 0.06159 0.0
H945 H 0.87599 0.42562 0.06562 0.0
H946 H 0.84667 0.30295 0.04109 0.0
H947 H 0.83495 0.40652 0.04536 0.0
H948 H 0.77857 0.37966 1.00521 0.0
H949 H 0.83489 0.39821 0.02058 0.0
H950 H 0.77533 0.27894 0.03664 0.0
H951 H 0.71964 0.26053 0.02125 0.0
C952 C 0.87676 0.34081 0.0581 0.0
C953 C 0.88504 0.37516 0.06534 0.0
C954 C 0.85317 0.32991 0.04635 0.0
C955 C 0.83786 0.35344 0.04152 0.0
C956 C 0.8469 0.38816 0.04863 0.0
C957 C 0.87004 0.3988 0.06039 0.0
C958 C 0.77835 0.35709 0.01163 0.0
C959 C 0.74469 0.31881 0.01212 0.0
C960 C 0.81032 0.36777 0.02055 0.0
C961 C 0.80921 0.34021 0.03 0.0
C962 C 0.77722 0.30086 0.0295 0.0
C963 C 0.74523 0.29034 0.0207 0.0
H964 H 0.76776 0.56049 0.05234 0.0
H965 H 0.65574 0.55708 0.05461 0.0
H966 H 0.74383 0.51812 0.03234 0.0
H967 H 0.63216 0.51546 0.03447 0.0
H968 H 0.59073 0.38735 0.01725 0.0
H969 H 0.61178 0.44677 0.03077 0.0
H970 H 0.72189 0.50736 1.00883 0.0
H971 H 0.70042 0.44717 0.99536 0.0
C972 C 0.73835 0.55139 0.04842 0.0
C973 C 0.7135 0.56169 0.05523 0.0
C974 C 0.72468 0.52733 0.03686 0.0
C975 C 0.68589 0.51311 0.03179 0.0
C976 C 0.66195 0.52536 0.03818 0.0
C977 C 0.67554 0.54928 0.04975 0.0
C978 C 0.61835 0.41415 0.01479 0.0
C979 C 0.6437 0.41291 1.00516 0.0
C980 C 0.63072 0.44824 0.02263 0.0
C981 C 0.66898 0.48171 0.0211 0.0
C982 C 0.69254 0.48187 1.01043 0.0
C983 C 0.67994 0.44772 1.00251 0.0
H984 H 0.57324 0.92576 0.8849 0.0
H985 H 0.52681 0.80328 0.89642 0.0
H986 H 0.53518 0.90365 0.86378 0.0
H987 H 0.48792 0.78123 0.87568 0.0
H988 H 0.44413 0.74645 0.83395 0.0
H989 H 0.49327 0.7763 0.85207 0.0
H990 H 0.46963 0.87281 0.85479 0.0
H991 H 0.42205 0.84402 0.83629 0.0
C992 C 0.55447 0.89415 0.88302 0.0
C993 C 0.55309 0.8663 0.89234 0.0
C994 C 0.53271 0.88143 0.87089 0.0
C995 C 0.50885 0.84059 0.86788 0.0
C996 C 0.50682 0.81289 0.87742 0.0
C997 C 0.52876 0.82557 0.88943 0.0
C998 C 0.45042 0.77475 0.83809 0.0
C999 C 0.42887 0.79264 0.83372 0.0
C1000 C 0.47815 0.79157 0.84866 0.0
C1001 C 0.48472 0.82648 0.85518 0.0
C1002 C 0.46547 0.84597 0.85006 0.0
C1003 C 0.43801 0.82934 0.83943 0.0
H1004 H 0.08746 0.54048 0.88529 0.0
H1005 H 0.11862 0.66321 0.88878 0.0
H1006 H 0.11071 0.55194 0.86214 0.0
H1007 H 0.14398 0.67547 0.86591 0.0
H1008 H 0.1844 0.69463 0.82447 0.0
H1009 H 0.13599 0.66793 0.84255 0.0
H1010 H 0.17186 0.58222 0.85164 0.0
H1011 H 0.21831 0.60747 0.83319 0.0
C1012 C 0.09923 0.56995 0.88107 0.0
C1013 C 0.10174 0.60111 0.88891 0.0
C1014 C 0.11273 0.57658 0.8678 0.0
C1015 C 0.12982 0.61477 0.8621 0.0
C1016 C 0.13054 0.64548 0.86979 0.0
C1017 C 0.11633 0.63862 0.88299 0.0
C1018 C 0.18071 0.66903 0.83001 0.0
C1019 C 0.20561 0.65358 0.82755 0.0
C1020 C 0.15337 0.65408 0.84052 0.0
C1021 C 0.15082 0.62377 0.84892 0.0
C1022 C 0.17274 0.60554 0.84547 0.0
C1023 C 0.19956 0.62005 0.83481 0.0
H1024 H 0.36882 0.49833 0.8793 0.0
H1025 H 0.35614 0.5674 0.91055 0.0
H1026 H 0.37424 0.547 0.8624 0.0
H1027 H 0.36342 0.61679 0.89399 0.0
H1028 H 0.30511 0.65128 0.86129 0.0
H1029 H 0.31643 0.61217 0.87764 0.0
H1030 H 0.40725 0.61482 0.85247 0.0
H1031 H 0.39515 0.65409 0.83566 0.0
C1032 C 0.36877 0.52473 0.88258 0.0
C1033 C 0.36197 0.52922 0.89617 0.0
C1034 C 0.37184 0.55261 0.87293 0.0
C1035 C 0.36837 0.58544 0.87677 0.0
C1036 C 0.3651 0.59137 0.89059 0.0
C1037 C 0.36136 0.56333 0.90012 0.0
C1038 C 0.32785 0.64401 0.8592 0.0
C1039 C 0.34933 0.65606 0.84714 0.0
C1040 C 0.33459 0.62168 0.8687 0.0
C1041 C 0.36321 0.6107 0.86653 0.0
C1042 C 0.38496 0.62274 0.85447 0.0
C1043 C 0.37817 0.64535 0.84486 0.0
H1044 H 0.60477 0.8326 0.96743 0.0
H1045 H 0.5943 0.93736 0.96475 0.0
H1046 H 0.57542 0.81873 0.9896 0.0
H1047 H 0.56533 0.92379 0.98726 0.0
H1048 H 0.52495 0.79163 0.02826 0.0
H1049 H 0.57794 0.83527 0.01297 0.0
H1050 H 0.50112 0.8736 0.99556 0.0
H1051 H 0.44913 0.8311 1.01121 0.0
C1052 C 0.59691 0.85316 0.97169 0.0
C1053 C 0.60137 0.88575 0.96421 0.0
C1054 C 0.58046 0.84549 0.98454 0.0
C1055 C 0.56797 0.87017 0.99029 0.0
C1056 C 0.57437 0.90402 0.9831 0.0
C1057 C 0.59101 0.9118 0.97021 0.0
C1058 C 0.52053 0.81148 0.02178 0.0
C1059 C 0.48317 0.80823 0.02091 0.0
C1060 C 0.55055 0.8359 0.01282 0.0
C1061 C 0.54331 0.85687 1.0027 0.0
C1062 C 0.50785 0.85788 1.00317 0.0
C1063 C 0.47802 0.83373 0.01223 0.0
H1064 H 0.13675 0.68389 0.96569 0.0
H1065 H 0.1711 0.59545 0.96094 0.0
H1066 H 0.17176 0.70322 0.98751 0.0
H1067 H 0.2057 0.6147 0.98246 0.0
H1068 H 0.24716 0.63261 0.02337 0.0
H1069 H 0.19338 0.61271 1.00691 0.0
H1070 H 0.242 0.73559 0.9955 0.0
H1071 H 0.29499 0.75536 0.01219 0.0
C1072 C 0.15191 0.66877 0.96923 0.0
C1073 C 0.15121 0.63821 0.96152 0.0
C1074 C 0.17165 0.67962 0.98176 0.0
C1075 C 0.19069 0.65985 0.98686 0.0
C1076 C 0.1903 0.62971 0.97905 0.0
C1077 C 0.17094 0.6191 0.96656 0.0
C1078 C 0.24498 0.6555 0.01794 0.0
C1079 C 0.27535 0.69543 0.01896 0.0
C1080 C 0.21461 0.6441 1.00831 0.0
C1081 C 0.21424 0.6725 0.99962 0.0
C1082 C 0.24153 0.71296 1.00197 0.0
C1083 C 0.27188 0.72431 0.01156 0.0
H1084 H 0.38896 0.47871 0.96509 0.0
H1085 H 0.27292 0.46699 0.96555 0.0
H1086 H 0.40484 0.5128 0.98684 0.0
H1087 H 0.28905 0.50177 0.98701 0.0
H1088 H 0.43281 0.63223 1.0087 0.0
H1089 H 0.42015 0.57819 0.99342 0.0
H1090 H 0.30356 0.50568 1.01057 0.0
H1091 H 0.31619 0.56068 0.0255 0.0
C1092 C 0.3666 0.48289 0.96991 0.0
C1093 C 0.32982 0.47056 0.96347 0.0
C1094 C 0.37578 0.50255 0.98237 0.0
C1095 C 0.34841 0.51036 0.98869 0.0
C1096 C 0.31076 0.49587 0.9826 0.0
C1097 C 0.30157 0.47616 0.97017 0.0
C1098 C 0.40539 0.60394 1.00967 0.0
C1099 C 0.3756 0.60032 0.0183 0.0
C1100 C 0.39791 0.57292 1.00085 0.0
C1101 C 0.36038 0.53779 1.00052 0.0
C1102 C 0.33241 0.53264 1.01034 0.0
C1103 C 0.33985 0.56381 0.01907 0.0
H1104 H 0.12769 0.43166 0.47498 0.0
H1105 H 0.18289 0.55662 0.46537 0.0
H1106 H 0.15374 0.44928 0.49816 0.0
H1107 H 0.20876 0.57389 0.48809 0.0
H1108 H 0.24264 0.60825 0.52834 0.0
H1109 H 0.19062 0.57375 0.51133 0.0
H1110 H 0.21837 0.47999 0.50964 0.0
H1111 H 0.26902 0.51363 0.52702 0.0
C1112 C 0.14548 0.46276 0.47777 0.0
C1113 C 0.15324 0.49268 0.4683 0.0
C1114 C 0.1601 0.47285 0.49106 0.0
C1115 C 0.18251 0.51301 0.49511 0.0
C1116 C 0.19046 0.54266 0.48554 0.0
C1117 C 0.17608 0.53268 0.47237 0.0
C1118 C 0.23595 0.57909 0.52497 0.0
C1119 C 0.26044 0.56404 0.52877 0.0
C1120 C 0.20662 0.55961 0.51501 0.0
C1121 C 0.20163 0.52503 0.5087 0.0
C1122 C 0.2217 0.50678 0.51413 0.0
C1123 C 0.25075 0.52607 0.52415 0.0
H1124 H 0.57452 0.67836 0.4675 0.0
H1125 H 0.64208 0.79752 0.48352 0.0
H1126 H 0.54343 0.65424 0.48898 0.0
H1127 H 0.61392 0.77306 0.5057 0.0
H1128 H 0.50064 0.73258 0.53046 0.0
H1129 H 0.55829 0.75674 0.51647 0.0
H1130 H 0.5317 0.63569 0.51043 0.0
H1131 H 0.47119 0.61187 0.52341 0.0
C1132 C 0.58376 0.69924 0.47582 0.0
C1133 C 0.60999 0.73997 0.47375 0.0
C1134 C 0.56616 0.68529 0.48835 0.0
C1135 C 0.57513 0.71157 0.49933 0.0
C1136 C 0.60469 0.75187 0.4975 0.0
C1137 C 0.62125 0.76603 0.48479 0.0
C1138 C 0.50829 0.71134 0.52665 0.0
C1139 C 0.48143 0.67045 0.52786 0.0
C1140 C 0.54156 0.72516 0.51847 0.0
C1141 C 0.54916 0.69822 0.51156 0.0
C1142 C 0.52585 0.65746 0.51485 0.0
C1143 C 0.49165 0.64362 0.52265 0.0
H1144 H 0.44361 0.92106 0.46766 0.0
H1145 H 0.33054 0.82775 0.45249 0.0
H1146 H 0.43631 0.88251 0.48781 0.0
H1147 H 0.32426 0.78705 0.47208 0.0
H1148 H 0.30985 0.72322 0.51048 0.0
H1149 H 0.31322 0.77171 0.49427 0.0
H1150 H 0.44179 0.8313 0.49575 0.0
H1151 H 0.43771 0.78454 0.51283 0.0
C1152 C 0.41719 0.89197 0.46867 0.0
C1153 C 0.38769 0.87718 0.45855 0.0
C1154 C 0.4131 0.86956 0.48018 0.0
C1155 C 0.37995 0.83106 0.48168 0.0
C1156 C 0.34997 0.81671 0.47156 0.0
C1157 C 0.35356 0.83981 0.46022 0.0
C1158 C 0.33875 0.74755 0.50758 0.0
C1159 C 0.37353 0.75037 0.5129 0.0
C1160 C 0.3408 0.77504 0.49809 0.0
C1161 C 0.37776 0.80529 0.4933 0.0
C1162 C 0.41263 0.80901 0.49919 0.0
C1163 C 0.41049 0.78215 0.50901 0.0
H1164 H 0.19737 0.54273 0.39845 0.0
H1165 H 0.10688 0.4229 0.38772 0.0
H1166 H 0.22782 0.55091 0.37648 0.0
H1167 H 0.13683 0.43174 0.3653 0.0
H1168 H 0.17211 0.53038 0.32716 0.0
H1169 H 0.14328 0.48703 0.3466 0.0
H1170 H 0.2607 0.51905 0.36067 0.0
H1171 H 0.28948 0.56167 0.34106 0.0
C1172 C 0.18422 0.51801 0.39141 0.0
C1173 C 0.14961 0.48235 0.39471 0.0
C1174 C 0.20193 0.52248 0.3789 0.0
C1175 C 0.18495 0.49172 0.36927 0.0
C1176 C 0.15074 0.45564 0.37263 0.0
C1177 C 0.13359 0.45072 0.38538 0.0
C1178 C 0.19154 0.52583 0.33386 0.0
C1179 C 0.23302 0.55003 0.33279 0.0
C1180 C 0.17503 0.50118 0.34507 0.0
C1181 C 0.19992 0.50073 0.35529 0.0
C1182 C 0.24096 0.5193 0.35296 0.0
C1183 C 0.25741 0.5434 0.34162 0.0
H1184 H 0.55318 0.69514 0.39516 0.0
H1185 H 0.5139 0.76486 0.41666 0.0
H1186 H 0.50229 0.67972 0.37776 0.0
H1187 H 0.46287 0.74893 0.39939 0.0
H1188 H 0.34935 0.67111 0.37395 0.0
H1189 H 0.40014 0.68459 0.39097 0.0
H1190 H 0.48841 0.72182 0.35989 0.0
H1191 H 0.43733 0.70855 0.34274 0.0
C1192 C 0.53344 0.7068 0.39625 0.0
C1193 C 0.53748 0.73116 0.40729 0.0
C1194 C 0.50462 0.69826 0.38624 0.0
C1195 C 0.47884 0.71326 0.38724 0.0
C1196 C 0.48231 0.73688 0.39842 0.0
C1197 C 0.51154 0.74601 0.40828 0.0
C1198 C 0.37955 0.68213 0.3707 0.0
C1199 C 0.38943 0.68898 0.35697 0.0
C1200 C 0.40862 0.68996 0.38047 0.0
C1201 C 0.44812 0.70426 0.37674 0.0
C1202 C 0.45805 0.7106 0.36301 0.0
C1203 C 0.42898 0.70334 0.35322 0.0
H1204 H 0.33463 0.91737 0.3869 0.0
H1205 H 0.43379 0.89864 0.38251 0.0
H1206 H 0.30576 0.88156 0.36586 0.0
H1207 H 0.40445 0.86197 0.3617 0.0
H1208 H 0.24313 0.75196 0.3473 0.0
H1209 H 0.27342 0.81221 0.3608 0.0
H1210 H 0.38234 0.85698 0.33852 0.0
H1211 H 0.3518 0.79592 0.32511 0.0
C1212 C 0.35059 0.90608 0.38136 0.0
C1213 C 0.38626 0.91034 0.38652 0.0
C1214 C 0.33397 0.8855 0.36928 0.0
C1215 C 0.35248 0.86847 0.36209 0.0
C1216 C 0.38949 0.87503 0.36682 0.0
C1217 C 0.40621 0.89579 0.37887 0.0
C1218 C 0.27282 0.77559 0.34479 0.0
C1219 C 0.29525 0.76898 0.3353 0.0
C1220 C 0.29041 0.81023 0.35261 0.0
C1221 C 0.33085 0.83901 0.35107 0.0
C1222 C 0.35145 0.83491 0.34021 0.0
C1223 C 0.33368 0.80022 0.33233 0.0
H1224 H 0.2692 0.99792 0.12173 0.0
H1225 H 0.23933 0.0496 0.08842 0.0
H1226 H 0.20182 0.97107 0.13074 0.0
H1227 H 0.17234 0.02209 0.09709 0.0
H1228 H 0.05036 0.95569 0.1092 0.0
H1229 H 0.10924 0.95392 0.10255 0.0
H1230 H 0.16788 0.01227 0.13979 0.0
H1231 H 0.10857 0.01401 0.14651 0.0
C1232 C 0.2478 0.00235 0.11613 0.0
C1233 C 0.25914 0.02562 0.10438 0.0
C1234 C 0.20953 0.98728 0.12132 0.0
C1235 C 0.18194 0.99436 0.11456 0.0
C1236 C 0.19283 0.01571 0.1024 0.0
C1237 C 0.23114 0.03154 0.09745 0.0
C1238 C 0.07529 0.96685 0.11619 0.0
C1239 C 0.0753 0.98569 0.12824 0.0
C1240 C 0.10891 0.96578 0.11239 0.0
C1241 C 0.14322 0.98361 0.12054 0.0
C1242 C 0.14168 0.99823 0.13334 0.0
C1243 C 0.10778 0.99922 0.13719 0.0
H1244 H 0.03932 0.33747 0.13146 0.0
H1245 H 0.99383 0.28334 0.09242 0.0
H1246 H 0.05076 0.28342 0.13746 0.0
H1247 H 0.00525 0.2293 0.09847 0.0
H1248 H 0.05861 0.15453 0.10822 0.0
H1249 H 0.06041 0.21663 0.10346 0.0
H1250 H 0.00775 0.21025 0.14212 0.0
H1251 H 0.00554 0.14773 0.14684 0.0
C1252 C 0.03207 0.31424 0.1241 0.0
C1253 C 0.0156 0.31469 0.11145 0.0
C1254 C 0.03847 0.2832 0.12759 0.0
C1255 C 0.02898 0.25217 0.11845 0.0
C1256 C 0.01336 0.25309 0.10568 0.0
C1257 C 0.0066 0.28392 0.10223 0.0
C1258 C 0.04816 0.16678 0.11584 0.0
C1259 C 0.03191 0.14616 0.12792 0.0
C1260 C 0.04897 0.20222 0.11306 0.0
C1261 C 0.03364 0.21797 0.12231 0.0
C1262 C 0.01996 0.19891 0.13481 0.0
C1263 C 0.01898 0.16322 0.13758 0.0
H1264 H 0.73158 0.72046 0.1147 0.0
H1265 H 0.8309 0.76013 0.08784 0.0
H1266 H 0.7592 0.78897 0.1229 0.0
H1267 H 0.85757 0.82844 0.09572 0.0
H1268 H 0.87998 0.90679 0.14323 0.0
H1269 H 0.83312 0.83867 0.13585 0.0
H1270 H 0.83069 0.88133 0.09591 0.0
H1271 H 0.87623 0.94942 0.10332 0.0
C1272 C 0.75885 0.7439 0.11037 0.0
C1273 C 0.77913 0.73501 0.10061 0.0
C1274 C 0.77463 0.78294 0.11511 0.0
C1275 C 0.81028 0.81383 0.10987 0.0
C1276 C 0.82979 0.80513 0.09981 0.0
C1277 C 0.81463 0.76608 0.09534 0.0
C1278 C 0.86779 0.90197 0.1331 0.0
C1279 C 0.88207 0.93357 0.12386 0.0
C1280 C 0.84124 0.86288 0.12884 0.0
C1281 C 0.82897 0.85489 0.11526 0.0
C1282 C 0.84009 0.88678 0.1064 0.0
C1283 C 0.86605 0.92576 0.11068 0.0
H1284 H 0.04432 0.30334 0.41572 0.0
H1285 H 0.16329 0.34725 0.43121 0.0
H1286 H 0.04433 0.24568 0.40602 0.0
H1287 H 0.16301 0.28952 0.42166 0.0
H1288 H 0.11597 0.15203 0.41841 0.0
H1289 H 0.12336 0.21458 0.42629 0.0
H1290 H 0.08299 0.23141 0.38748 0.0
H1291 H 0.07625 0.16873 0.37946 0.0
C1292 C 0.07029 0.30051 0.41716 0.0
C1293 C 0.1037 0.32974 0.42432 0.0
C1294 C 0.07048 0.26779 0.41147 0.0
C1295 C 0.10381 0.26331 0.41299 0.0
C1296 C 0.13693 0.29221 0.42032 0.0
C1297 C 0.13701 0.32519 0.42581 0.0
C1298 C 0.10958 0.16955 0.41145 0.0
C1299 C 0.09559 0.15556 0.39832 0.0
C1300 C 0.11376 0.20533 0.41597 0.0
C1301 C 0.10333 0.22763 0.40755 0.0
C1302 C 0.09085 0.21454 0.39422 0.0
C1303 C 0.08745 0.179 0.38959 0.0
H1304 H 0.7437 0.78693 0.40781 0.0
H1305 H 0.74526 0.89448 0.4192 0.0
H1306 H 0.80522 0.82648 0.39545 0.0
H1307 H 0.80718 0.93396 0.40713 0.0
H1308 H 0.91121 0.99777 0.37943 0.0
H1309 H 0.84113 0.95236 0.38524 0.0
H1310 H 0.87287 0.87032 0.40248 0.0
H1311 H 0.94166 0.91496 0.39659 0.0
C1312 C 0.75717 0.81898 0.40771 0.0
C1313 C 0.73981 0.83753 0.41467 0.0
C1314 C 0.79238 0.84166 0.40058 0.0
C1315 C 0.81117 0.88342 0.40029 0.0
C1316 C 0.79321 0.90186 0.40695 0.0
C1317 C 0.75795 0.87919 0.41404 0.0
C1318 C 0.90268 0.96942 0.38408 0.0
C1319 C 0.93159 0.95981 0.38765 0.0
C1320 C 0.8628 0.94365 0.38753 0.0
C1321 C 0.85146 0.90786 0.39445 0.0
C1322 C 0.88028 0.89731 0.39707 0.0
C1323 C 0.91981 0.92303 0.39375 0.0
H1324 H 0.30298 0.00036 0.41607 0.0
H1325 H 0.22093 0.87412 0.41174 0.0
H1326 H 0.25326 0.01381 0.40632 0.0
H1327 H 0.17096 0.88774 0.40222 0.0
H1328 H 0.08586 0.94223 0.40655 0.0
H1329 H 0.13315 0.92104 0.4124 0.0
H1330 H 0.21477 0.00215 0.38293 0.0
H1331 H 0.16658 0.02262 0.37678 0.0
C1332 C 0.27424 0.97548 0.41315 0.0
C1333 C 0.26578 0.93614 0.41478 0.0
C1334 C 0.24601 0.98322 0.4074 0.0
C1335 C 0.20847 0.95181 0.40339 0.0
C1336 C 0.19976 0.91248 0.40518 0.0
C1337 C 0.22828 0.90473 0.41068 0.0
C1338 C 0.1134 0.95458 0.40103 0.0
C1339 C 0.12262 0.98386 0.39118 0.0
C1340 C 0.14045 0.94251 0.40439 0.0
C1341 C 0.17772 0.96023 0.39821 0.0
C1342 C 0.18627 0.98823 0.38789 0.0
C1343 C 0.15866 -0.00038 0.38428 0.0
H1344 H 0.76734 0.01371 0.9113 0.0
H1345 H 0.73843 0.89183 0.90649 0.0
H1346 H 0.83283 0.03643 0.90145 0.0
H1347 H 0.803 0.9143 0.89688 0.0
H1348 H 0.91097 0.9569 0.87317 0.0
H1349 H 0.8447 0.94626 0.87733 0.0
H1350 H 0.89365 0.03627 0.90852 0.0
H1351 H 0.95973 0.04749 0.90403 0.0
C1352 C 0.77483 0.99182 0.90813 0.0
C1353 C 0.74768 0.95097 0.90982 0.0
C1354 C 0.81226 0.0048 0.90247 0.0
C1355 C 0.82302 0.97716 0.89824 0.0
C1356 C 0.79551 0.93643 0.89973 0.0
C1357 C 0.75852 0.92356 0.90545 0.0
C1358 C 0.90778 0.9756 0.88044 0.0
C1359 C 0.94047 0.00305 0.88822 0.0
C1360 C 0.86975 0.96913 0.88301 0.0
C1361 C 0.86378 0.99002 0.89341 0.0
C1362 C 0.8971 0.0198 0.9004 0.0
C1363 C 0.93497 0.02609 0.89787 0.0
H1364 H 0.00343 0.68909 0.89615 0.0
H1365 H 0.07355 0.74131 0.93231 0.0
H1366 H 0.00349 0.75046 0.89165 0.0
H1367 H 0.07438 0.8031 0.92765 0.0
H1368 H 0.03477 0.89408 0.92241 0.0
H1369 H 0.03268 0.83184 0.9271 0.0
H1370 H 0.04724 0.81817 0.8847 0.0
H1371 H 0.04841 0.88012 0.87996 0.0
C1372 C 0.01888 0.71366 0.90316 0.0
C1373 C 0.03845 0.71017 0.91461 0.0
C1374 C 0.01917 0.74903 0.90051 0.0
C1375 C 0.03908 0.78193 0.90924 0.0
C1376 C 0.05833 0.77828 0.92078 0.0
C1377 C 0.05799 0.74285 0.92343 0.0
C1378 C 0.03749 0.87783 0.91406 0.0
C1379 C 0.04176 0.8922 0.90079 0.0
C1380 C 0.03654 0.84217 0.91678 0.0
C1381 C 0.03988 0.81988 0.9063 0.0
C1382 C 0.04406 0.83422 0.89301 0.0
C1383 C 0.04497 0.86991 0.89029 0.0
H1384 H 0.21269 0.3208 0.90115 0.0
H1385 H 0.31031 0.30934 0.91647 0.0
H1386 H 0.17821 0.25144 0.89395 0.0
H1387 H 0.27532 0.23944 0.90933 0.0
H1388 H 0.13589 0.1316 0.87445 0.0
H1389 H 0.18273 0.20292 0.87782 0.0
H1390 H 0.21152 0.17903 0.91759 0.0
H1391 H 0.16466 0.10825 0.91431 0.0
C1392 C 0.22695 0.30355 0.90291 0.0
C1393 C 0.26414 0.32057 0.9095 0.0
C1394 C 0.20731 0.26387 0.89865 0.0
C1395 C 0.22407 0.23998 0.90104 0.0
C1396 C 0.26165 0.25713 0.90738 0.0
C1397 C 0.28167 0.29713 0.91145 0.0
C1398 C 0.15292 0.14155 0.88377 0.0
C1399 C 0.14632 0.11438 0.89416 0.0
C1400 C 0.17952 0.18236 0.88574 0.0
C1401 C 0.20058 0.1966 0.89801 0.0
C1402 C 0.19595 0.16903 0.908 0.0
C1403 C 0.16894 0.12847 0.90614 0.0
H1404 H 0.88137 0.68483 0.59775 0.0
H1405 H 0.00486 0.7415 0.60993 0.0
H1406 H 0.87805 0.74151 0.60647 0.0
H1407 H 0.00127 0.79806 0.61881 0.0
H1408 H 0.96901 0.87595 0.64413 0.0
H1409 H 0.96389 0.81262 0.63783 0.0
H1410 H 0.91159 0.81509 0.59953 0.0
H1411 H 0.91753 0.87837 0.60568 0.0
C1412 C 0.90783 0.70942 0.60226 0.0
C1413 C 0.94348 0.70882 0.60305 0.0
C1414 C 0.90585 0.74177 0.60729 0.0
C1415 C 0.93926 0.77396 0.61343 0.0
C1416 C 0.97489 0.77335 0.6143 0.0
C1417 C 0.97708 0.74124 0.60906 0.0
C1418 C 0.95534 0.86223 0.63456 0.0
C1419 C 0.94355 0.88186 0.62539 0.0
C1420 C 0.95288 0.82636 0.63088 0.0
C1421 C 0.93772 0.80922 0.61813 0.0
C1422 C 0.9233 0.82752 0.60942 0.0
C1423 C 0.92658 0.86366 0.61296 0.0
H1424 H 0.30357 0.15038 0.60453 0.0
H1425 H 0.29599 0.25599 0.6103 0.0
H1426 H 0.23899 0.11035 0.61502 0.0
H1427 H 0.23153 0.21585 0.62099 0.0
H1428 H 0.09697 0.12102 0.61757 0.0
H1429 H 0.16618 0.16653 0.61233 0.0
H1430 H 0.20021 0.09566 0.63622 0.0
H1431 H 0.1298 0.04936 0.64141 0.0
C1432 C 0.28826 0.16515 0.6081 0.0
C1433 C 0.30479 0.2064 0.60639 0.0
C1434 C 0.25142 0.1422 0.61428 0.0
C1435 C 0.23013 0.15988 0.61888 0.0
C1436 C 0.24706 0.20127 0.61747 0.0
C1437 C 0.28397 0.22427 0.61131 0.0
C1438 C 0.11929 0.1155 0.62191 0.0
C1439 C 0.10813 0.08161 0.62983 0.0
C1440 C 0.15904 0.14179 0.61899 0.0
C1441 C 0.18877 0.13471 0.6238 0.0
C1442 C 0.17786 0.1017 0.63227 0.0
C1443 C 0.13775 0.07544 0.63536 0.0
H1444 H 0.76918 0.11789 0.6191 0.0
H1445 H 0.75478 0.03992 0.58593 0.0
H1446 H 0.82617 0.1137 0.62746 0.0
H1447 H 0.81155 0.03596 0.59426 0.0
H1448 H 0.93546 0.06741 0.60342 0.0
H1449 H 0.8852 0.08331 0.5968 0.0
H1450 H 0.83906 0.05905 0.63724 0.0
H1451 H 0.89014 0.04304 0.644 0.0
C1452 C 0.77839 0.1002 0.61352 0.0
C1453 C 0.75758 0.07938 0.60179 0.0
C1454 C 0.81079 0.09759 0.61839 0.0
C1455 C 0.82336 0.07466 0.61149 0.0
C1456 C 0.80282 0.05427 0.5997 0.0
C1457 C 0.77023 0.05645 0.59494 0.0
C1458 C 0.91504 0.06601 0.61101 0.0
C1459 C 0.91626 0.05325 0.62418 0.0
C1460 C 0.88616 0.07501 0.60717 0.0
C1461 C 0.85767 0.0715 0.6164 0.0
C1462 C 0.86064 0.06183 0.6299 0.0
C1463 C 0.88984 0.05275 0.63378 0.0
H1464 H 0.94732 0.38256 0.42883 0.0
H1465 H 0.00454 0.49351 0.45079 0.0
H1466 H 0.88273 0.36953 0.43656 0.0
H1467 H 0.94112 0.47937 0.45953 0.0
H1468 H 0.81806 0.46314 0.46362 0.0
H1469 H 0.88309 0.47721 0.45605 0.0
H1470 H 0.83884 0.35065 0.45354 0.0
H1471 H 0.77337 0.33742 0.45987 0.0
C1472 C 0.94599 0.40394 0.43541 0.0
C1473 C 0.98079 0.43921 0.43905 0.0
C1474 C 0.909 0.39637 0.44003 0.0
C1475 C 0.90612 0.42329 0.4488 0.0
C1476 C 0.9414 0.45827 0.45255 0.0
C1477 C 0.97804 0.46635 0.44759 0.0
C1478 C 0.82266 0.43856 0.46154 0.0
C1479 C 0.79092 0.39931 0.46224 0.0
C1480 C 0.86002 0.44644 0.45723 0.0
C1481 C 0.86671 0.41511 0.45395 0.0
C1482 C 0.83502 0.37575 0.45544 0.0
C1483 C 0.7975 0.36803 0.4593 0.0
H1484 H 0.55933 0.58503 0.45053 0.0
H1485 H 0.66794 0.6381 0.4277 0.0
H1486 H 0.56876 0.52981 0.45664 0.0
H1487 H 0.67757 0.58314 0.43396 0.0
H1488 H 0.66217 0.46033 0.43625 0.0
H1489 H 0.64824 0.51206 0.42985 0.0
H1490 H 0.61389 0.51707 0.4707 0.0
H1491 H 0.62743 0.46455 0.47717 0.0
C1492 C 0.58509 0.58482 0.44673 0.0
C1493 C 0.61284 0.61597 0.43858 0.0
C1494 C 0.59065 0.55332 0.45035 0.0
C1495 C 0.62395 0.55211 0.44583 0.0
C1496 C 0.65135 0.58294 0.43749 0.0
C1497 C 0.64589 0.61451 0.43392 0.0
C1498 C 0.65147 0.47223 0.44392 0.0
C1499 C 0.64609 0.45831 0.45727 0.0
C1500 C 0.64372 0.50213 0.44022 0.0
C1501 C 0.63032 0.51897 0.44977 0.0
C1502 C 0.62397 0.50449 0.46308 0.0
C1503 C 0.63184 0.47448 0.46681 0.0
H1504 H 0.53885 0.07566 0.43646 0.0
H1505 H 0.42683 0.06407 0.44761 0.0
H1506 H 0.57427 0.13782 0.44907 0.0
H1507 H 0.46232 0.12584 0.46046 0.0
H1508 H 0.54473 0.26405 0.46224 0.0
H1509 H 0.50299 0.19529 0.45519 0.0
H1510 H 0.58911 0.16789 0.47171 0.0
H1511 H 0.63142 0.23769 0.47867 0.0
C1512 C 0.52174 0.08634 0.4416 0.0
C1513 C 0.47996 0.06505 0.44087 0.0
C1514 C 0.54208 0.1217 0.44901 0.0
C1515 C 0.52115 0.13666 0.4559 0.0
C1516 C 0.47937 0.11527 0.45522 0.0
C1517 C 0.45902 0.07993 0.44779 0.0
C1518 C 0.5541 0.24301 0.46477 0.0
C1519 C 0.59131 0.25606 0.47091 0.0
C1520 C 0.53016 0.20353 0.46074 0.0
C1521 C 0.543 0.17619 0.46267 0.0
C1522 C 0.57876 0.18849 0.46987 0.0
C1523 C 0.60271 0.2282 0.47403 0.0
H1524 H 0.74847 0.6228 0.77847 0.0
H1525 H 0.75099 0.67237 0.73928 0.0
H1526 H 0.75322 0.56927 0.76788 0.0
H1527 H 0.7582 0.6204 0.72866 0.0
H1528 H 0.71978 0.49336 0.71388 0.0
H1529 H 0.72475 0.55396 0.72276 0.0
H1530 H 0.79251 0.55013 0.75697 0.0
H1531 H 0.78468 0.48805 0.74843 0.0
C1532 C 0.75049 0.62247 0.76759 0.0
C1533 C 0.74897 0.65159 0.75973 0.0
C1534 C 0.75371 0.59198 0.76147 0.0
C1535 C 0.75639 0.59032 0.74733 0.0
C1536 C 0.75552 0.62002 0.73952 0.0
C1537 C 0.7515 0.65001 0.74563 0.0
C1538 C 0.73671 0.50633 0.72308 0.0
C1539 C 0.75202 0.48639 0.73047 0.0
C1540 C 0.73954 0.54106 0.72824 0.0
C1541 C 0.75834 0.55682 0.74081 0.0
C1542 C 0.77661 0.53837 0.74753 0.0
C1543 C 0.77289 0.5032 0.74253 0.0
H1544 H 0.41973 0.22757 0.74862 0.0
H1545 H 0.4044 0.11905 0.73144 0.0
H1546 H 0.47878 0.26621 0.73528 0.0
H1547 H 0.46307 0.15798 0.71754 0.0
H1548 H 0.60124 0.24335 0.71396 0.0
H1549 H 0.53275 0.19689 0.71989 0.0
H1550 H 0.50404 0.28912 0.71352 0.0
H1551 H 0.57362 0.3361 0.70826 0.0
C1552 C 0.42898 0.21197 0.74192 0.0
C1553 C 0.40764 0.17027 0.74116 0.0
C1554 C 0.46251 0.23419 0.73407 0.0
C1555 C 0.47538 0.21536 0.72508 0.0
C1556 C 0.45409 0.17351 0.72436 0.0
C1557 C 0.42065 0.15116 0.73239 0.0
C1558 C 0.57974 0.25302 0.71319 0.0
C1559 C 0.59236 0.29306 0.71068 0.0
C1560 C 0.54042 0.22643 0.71665 0.0
C1561 C 0.51307 0.23956 0.71761 0.0
C1562 C 0.52471 0.27841 0.71329 0.0
C1563 C 0.56429 0.30516 0.71 0.0
H1564 H 0.92268 0.31705 0.77929 0.0
H1565 H 0.90751 0.23814 0.74633 0.0
H1566 H 0.86921 0.32512 0.76998 0.0
H1567 H 0.85394 0.24627 0.73705 0.0
H1568 H 0.80387 0.32246 0.71715 0.0
H1569 H 0.84959 0.30277 0.72637 0.0
H1570 H 0.79632 0.28665 0.76552 0.0
H1571 H 0.75074 0.30609 0.75641 0.0
C1572 C 0.90761 0.30101 0.77017 0.0
C1573 C 0.91943 0.27702 0.76356 0.0
C1574 C 0.87688 0.30553 0.76485 0.0
C1575 C 0.85748 0.2864 0.75276 0.0
C1576 C 0.86861 0.26165 0.74631 0.0
C1577 C 0.8991 0.25679 0.7517 0.0
C1578 C 0.80136 0.31394 0.72764 0.0
C1579 C 0.77382 0.31619 0.73604 0.0
C1580 C 0.82756 0.30267 0.73293 0.0
C1581 C 0.82682 0.29366 0.74672 0.0
C1582 C 0.79806 0.2941 0.75493 0.0
C1583 C 0.77186 0.30514 0.74965 0.0
H1584 H 0.40346 0.33246 0.24358 0.0
H1585 H 0.35373 0.20653 0.23678 0.0
H1586 H 0.46884 0.34436 0.23725 0.0
H1587 H 0.41899 0.21834 0.23076 0.0
H1588 H 0.53846 0.25638 0.21109 0.0
H1589 H 0.47211 0.24711 0.21427 0.0
H1590 H 0.51803 0.3318 0.24714 0.0
H1591 H 0.58379 0.34195 0.24363 0.0
C1592 C 0.40639 0.30734 0.24072 0.0
C1593 C 0.37332 0.26853 0.24081 0.0
C1594 C 0.44391 0.31411 0.23713 0.0
C1595 C 0.44927 0.28226 0.23355 0.0
C1596 C 0.41596 0.24362 0.2333 0.0
C1597 C 0.37852 0.23685 0.23689 0.0
C1598 C 0.53436 0.27343 0.2188 0.0
C1599 C 0.56649 0.30009 0.22698 0.0
C1600 C 0.49632 0.26787 0.22074 0.0
C1601 C 0.48973 0.28897 0.23092 0.0
C1602 C 0.52201 0.31562 0.23905 0.0
C1603 C 0.55975 0.32106 0.23712 0.0
H1604 H 0.68713 0.04146 0.22465 0.0
H1605 H 0.7618 0.09796 0.2596 0.0
H1606 H 0.68869 0.10307 0.21912 0.0
H1607 H 0.76415 0.15993 0.25389 0.0
H1608 H 0.71039 0.24038 0.25042 0.0
H1609 H 0.71894 0.18404 0.25444 0.0
H1610 H 0.72857 0.17183 0.21158 0.0
H1611 H 0.71902 0.22845 0.20748 0.0
C1612 C 0.70419 0.06712 0.23111 0.0
C1613 C 0.72397 0.06454 0.24267 0.0
C1614 C 0.70539 0.10264 0.22785 0.0
C1615 C 0.72644 0.13657 0.23606 0.0
C1616 C 0.74713 0.13426 0.24743 0.0
C1617 C 0.74586 0.09871 0.25071 0.0
C1618 C 0.71468 0.22605 0.2418 0.0
C1619 C 0.71373 0.23889 0.2286 0.0
C1620 C 0.71994 0.19377 0.24414 0.0
C1621 C 0.72442 0.17319 0.23336 0.0
C1622 C 0.72476 0.18672 0.22013 0.0
C1623 C 0.71961 0.21936 0.21777 0.0
H1624 H 0.83999 0.65113 0.24377 0.0
H1625 H 0.94152 0.63512 0.24586 0.0
H1626 H 0.7989 0.58321 0.23541 0.0
H1627 H 0.90048 0.56743 0.23733 0.0
H1628 H 0.80116 0.436 0.24122 0.0
H1629 H 0.84606 0.50568 0.24633 0.0
H1630 H 0.7883 0.53843 0.21579 0.0
H1631 H 0.74248 0.4677 0.2107 0.0
C1632 C 0.8536 0.63318 0.24245 0.0
C1633 C 0.89404 0.64853 0.24564 0.0
C1634 C 0.83011 0.5944 0.23749 0.0
C1635 C 0.84642 0.56996 0.23566 0.0
C1636 C 0.88692 0.5854 0.23873 0.0
C1637 C 0.91045 0.62421 0.24364 0.0
C1638 C 0.79815 0.45798 0.23547 0.0
C1639 C 0.76802 0.44631 0.22562 0.0
C1640 C 0.82417 0.49802 0.23834 0.0
C1641 C 0.82072 0.52765 0.23151 0.0
C1642 C 0.79142 0.5162 0.22132 0.0
C1643 C 0.76543 0.4758 0.21832 0.0
H1644 H 0.53756 0.99728 0.93254 0.0
H1645 H 0.66369 0.06147 0.94119 0.0
H1646 H 0.53165 0.05069 0.94298 0.0
H1647 H 0.65754 0.11457 0.95181 0.0
H1648 H 0.62709 0.18592 0.98034 0.0
H1649 H 0.62229 0.12381 0.97277 0.0
H1650 H 0.55917 0.12476 0.93691 0.0
H1651 H 0.56483 0.18708 0.94429 0.0
C1652 C 0.56403 0.0228 0.93666 0.0
C1653 C 0.60117 0.02528 0.93594 0.0
C1654 C 0.56057 0.05327 0.94267 0.0
C1655 C 0.59402 0.08651 0.94835 0.0
C1656 C 0.63113 0.08896 0.9477 0.0
C1657 C 0.63474 0.05882 0.94146 0.0
C1658 C 0.61088 0.17199 0.97111 0.0
C1659 C 0.59624 0.19118 0.96291 0.0
C1660 C 0.60864 0.13682 0.96669 0.0
C1661 C 0.59088 0.11984 0.95416 0.0
C1662 C 0.57301 0.13714 0.9466 0.0
C1663 C 0.57604 0.17268 0.95086 0.0
H1664 H 0.97671 0.46306 0.94592 0.0
H1665 H 0.94143 0.55161 0.94553 0.0
H1666 H 0.91539 0.41659 0.95698 0.0
H1667 H 0.87899 0.5041 0.95645 0.0
H1668 H 0.78018 0.41692 0.98376 0.0
H1669 H 0.84936 0.46473 0.9778 0.0
H1670 H 0.84653 0.38025 0.94908 0.0
H1671 H 0.77818 0.33304 0.9551 0.0
C1672 C 0.95579 0.47266 0.94813 0.0
C1673 C 0.96382 0.51101 0.94466 0.0
C1674 C 0.92064 0.44592 0.95452 0.0
C1675 C 0.89239 0.45664 0.95757 0.0
C1676 C 0.90052 0.49521 0.95437 0.0
C1677 C 0.93598 0.5222 0.94796 0.0
C1678 C 0.79514 0.4082 0.97661 0.0
C1679 C 0.77434 0.37133 0.96998 0.0
C1680 C 0.83433 0.4357 0.97303 0.0
C1681 C 0.85316 0.42635 0.96288 0.0
C1682 C 0.83302 0.38826 0.95701 0.0
C1683 C 0.79394 0.36114 0.96047 0.0
H1684 H 0.46134 0.38256 0.91448 0.0
H1685 H 0.45681 0.44916 0.94844 0.0
H1686 H 0.51369 0.37653 0.92584 0.0
H1687 H 0.5091 0.44261 0.95989 0.0
H1688 H 0.56074 0.36198 0.97875 0.0
H1689 H 0.51559 0.38299 0.96953 0.0
H1690 H 0.58552 0.42373 0.93337 0.0
H1691 H 0.6302 0.40307 0.94246 0.0
C1692 C 0.47172 0.39617 0.92432 0.0
C1693 C 0.45505 0.41649 0.9305 0.0
C1694 C 0.50178 0.39282 0.93082 0.0
C1695 C 0.51555 0.40925 0.94374 0.0
C1696 C 0.49899 0.42964 0.94996 0.0
C1697 C 0.46929 0.43358 0.94334 0.0
C1698 C 0.5671 0.37664 0.96904 0.0
C1699 C 0.59855 0.38027 0.96123 0.0
C1700 C 0.54123 0.3885 0.96374 0.0
C1701 C 0.5466 0.40408 0.9506 0.0
C1702 C 0.58017 0.41099 0.94339 0.0
C1703 C 0.60584 0.39931 0.94865 0.0
H1704 H 0.65116 0.78976 0.79578 0.0
H1705 H 0.59401 0.69895 0.76527 0.0
H1706 H 0.58747 0.76778 0.80631 0.0
H1707 H 0.52936 0.67863 0.77502 0.0
H1708 H 0.41537 0.63877 0.79544 0.0
H1709 H 0.48158 0.64982 0.79111 0.0
H1710 H 0.5325 0.7726 0.80364 0.0
H1711 H 0.46655 0.7601 0.80879 0.0
C1712 C 0.62467 0.76507 0.7913 0.0
C1713 C 0.62732 0.74624 0.77966 0.0
C1714 C 0.58798 0.7526 0.79727 0.0
C1715 C 0.55261 0.72175 0.79148 0.0
C1716 C 0.55563 0.70208 0.78 0.0
C1717 C 0.59268 0.71386 0.77427 0.0
C1718 C 0.44108 0.66756 0.79779 0.0
C1719 C 0.43613 0.69841 0.80267 0.0
C1720 C 0.47906 0.67425 0.79505 0.0
C1721 C 0.51289 0.71241 0.7967 0.0
C1722 C 0.50771 0.7426 0.80237 0.0
C1723 C 0.46978 0.73553 0.80542 0.0
H1724 H 0.27124 0.94737 0.77177 0.0
H1725 H 0.39533 0.00225 0.76156 0.0
H1726 H 0.27102 0.887 0.77866 0.0
H1727 H 0.39487 0.94179 0.7683 0.0
H1728 H 0.36122 0.80942 0.76633 0.0
H1729 H 0.36145 0.8699 0.75994 0.0
H1730 H 0.30428 0.86658 0.79729 0.0
H1731 H 0.3044 0.80603 0.80384 0.0
C1732 C 0.29837 0.94648 0.77091 0.0
C1733 C 0.33329 0.97961 0.76607 0.0
C1734 C 0.2983 0.91203 0.77496 0.0
C1735 C 0.33294 0.90971 0.77404 0.0
C1736 C 0.36767 0.94263 0.76905 0.0
C1737 C 0.36793 0.97728 0.76522 0.0
C1738 C 0.34876 0.82157 0.77322 0.0
C1739 C 0.33279 0.80286 0.78561 0.0
C1740 C 0.34906 0.85633 0.76957 0.0
C1741 C 0.33285 0.87295 0.7781 0.0
C1742 C 0.31672 0.85425 0.79047 0.0
C1743 C 0.31702 0.81976 0.79425 0.0
H1744 H 0.16599 0.37892 0.78365 0.0
H1745 H 0.06486 0.38768 0.77063 0.0
H1746 H 0.19936 0.44772 0.79149 0.0
H1747 H 0.09893 0.45722 0.77828 0.0
H1748 H 0.21156 0.58986 0.77302 0.0
H1749 H 0.16449 0.51919 0.76933 0.0
H1750 H 0.19111 0.49328 0.80911 0.0
H1751 H 0.23779 0.56445 0.81296 0.0
C1752 C 0.1508 0.3955 0.78251 0.0
C1753 C 0.11292 0.37797 0.77641 0.0
C1754 C 0.16977 0.43478 0.78714 0.0
C1755 C 0.15165 0.45771 0.78555 0.0
C1756 C 0.11349 0.44011 0.77964 0.0
C1757 C 0.09407 0.4004 0.77527 0.0
C1758 C 0.20664 0.56921 0.78112 0.0
C1759 C 0.22856 0.58259 0.79324 0.0
C1760 C 0.17956 0.52878 0.77902 0.0
C1761 C 0.17441 0.50078 0.78889 0.0
C1762 C 0.19472 0.51431 0.80131 0.0
C1763 C 0.22123 0.55497 0.80353 0.0
H1764 H 0.37006 0.94739 0.08135 0.0
H1765 H 0.49593 0.01939 0.08996 0.0
H1766 H 0.38067 0.89702 0.07099 0.0
H1767 H 0.5063 0.96822 0.07979 0.0
H1768 H 0.47353 0.82944 0.08006 0.0
H1769 H 0.48009 0.8928 0.08658 0.0
H1770 H 0.41957 0.89254 0.04988 0.0
H1771 H 0.4137 0.82947 0.04319 0.0
C1772 C 0.39995 0.95234 0.08112 0.0
C1773 C 0.43213 0.98724 0.08655 0.0
C1774 C 0.40608 0.92375 0.07503 0.0
C1775 C 0.44439 0.92911 0.07442 0.0
C1776 C 0.47655 0.96364 0.08004 0.0
C1777 C 0.47055 0.99271 0.0859 0.0
C1778 C 0.46312 0.84376 0.07313 0.0
C1779 C 0.44277 0.82442 0.06119 0.0
C1780 C 0.46683 0.87996 0.07687 0.0
C1781 C 0.44966 0.89701 0.06884 0.0
C1782 C 0.43267 0.87964 0.0563 0.0
C1783 C 0.42967 0.84379 0.05241 0.0
H1784 H 0.0637 0.55427 0.09198 0.0
H1785 H 0.08814 0.46145 0.08151 0.0
H1786 H 0.12605 0.60358 0.08188 0.0
H1787 H 0.15101 0.51116 0.07156 0.0
H1788 H 0.24675 0.6051 0.04522 0.0
H1789 H 0.17844 0.55871 0.0523 0.0
H1790 H 0.19667 0.63239 0.08718 0.0
H1791 H 0.26418 0.67867 0.07998 0.0
C1792 C 0.08249 0.54436 0.08761 0.0
C1793 C 0.071 0.50388 0.08764 0.0
C1794 C 0.1182 0.57268 0.0818 0.0
C1795 C 0.14331 0.56125 0.07584 0.0
C1796 C 0.13194 0.5208 0.07587 0.0
C1797 C 0.09619 0.4924 0.08174 0.0
C1798 C 0.23546 0.61204 0.05408 0.0
C1799 C 0.26042 0.64558 0.06198 0.0
C1800 C 0.1967 0.58519 0.05828 0.0
C1801 C 0.18234 0.5917 0.07038 0.0
C1802 C 0.20668 0.62662 0.07778 0.0
C1803 C 0.24534 0.65314 0.07366 0.0
H1804 H 0.6275 0.65749 0.0604 0.0
H1805 H 0.56252 0.56528 0.08973 0.0
H1806 H 0.56658 0.65441 0.05322 0.0
H1807 H 0.50075 0.56109 0.08215 0.0
H1808 H 0.42407 0.62149 0.08089 0.0
H1809 H 0.4732 0.60229 0.08473 0.0
H1810 H 0.50297 0.61963 0.04243 0.0
H1811 H 0.45438 0.64058 0.03869 0.0
C1812 C 0.60003 0.63608 0.0652 0.0
C1813 C 0.59994 0.61208 0.0758 0.0
C1814 C 0.56488 0.63392 0.06093 0.0
C1815 C 0.52859 0.60746 0.06708 0.0
C1816 C 0.52824 0.58218 0.07731 0.0
C1817 C 0.5636 0.58459 0.08167 0.0
C1818 C 0.44047 0.62044 0.07232 0.0
C1819 C 0.43604 0.63351 0.05955 0.0
C1820 C 0.46852 0.60902 0.07451 0.0
C1821 C 0.49272 0.61017 0.06396 0.0
C1822 C 0.48546 0.61937 0.05086 0.0
C1823 C 0.45734 0.63099 0.04867 0.0
H1824 H 0.09971 0.67621 0.58349 0.0
H1825 H 0.07166 0.55553 0.59095 0.0
H1826 H 0.16436 0.69202 0.57467 0.0
H1827 H 0.13591 0.57143 0.58231 0.0
H1828 H 0.23753 0.6005 0.55414 0.0
H1829 H 0.17188 0.58748 0.56088 0.0
H1830 H 0.22703 0.6988 0.58277 0.0
H1831 H 0.29206 0.71215 0.57581 0.0
C1832 C 0.10745 0.65322 0.5834 0.0
C1833 C 0.08047 0.61464 0.58794 0.0
C1834 C 0.1444 0.66222 0.57831 0.0
C1835 C 0.15502 0.63279 0.57763 0.0
C1836 C 0.12831 0.59451 0.5824 0.0
C1837 C 0.09159 0.58557 0.58751 0.0
C1838 C 0.23548 0.62241 0.56018 0.0
C1839 C 0.26993 0.65723 0.56446 0.0
C1840 C 0.19799 0.61485 0.56415 0.0
C1841 C 0.19431 0.64206 0.57243 0.0
C1842 C 0.22876 0.67742 0.57631 0.0
C1843 C 0.26608 0.68486 0.5724 0.0
H1844 H 0.4556 0.43793 0.58474 0.0
H1845 H 0.32768 0.37984 0.58155 0.0
H1846 H 0.4611 0.50156 0.57868 0.0
H1847 H 0.33334 0.44356 0.57588 0.0
H1848 H 0.3673 0.57418 0.58614 0.0
H1849 H 0.36725 0.51333 0.59136 0.0
H1850 H 0.43398 0.52695 0.5554 0.0
H1851 H 0.43337 0.58816 0.54982 0.0
C1852 C 0.42871 0.43885 0.58288 0.0
C1853 C 0.39116 0.40402 0.58371 0.0
C1854 C 0.43194 0.47509 0.57929 0.0
C1855 C 0.39766 0.47717 0.57677 0.0
C1856 C 0.36017 0.44253 0.57776 0.0
C1857 C 0.35696 0.4062 0.58103 0.0
C1858 C 0.38235 0.56463 0.57934 0.0
C1859 C 0.40031 0.58607 0.56753 0.0
C1860 C 0.38211 0.52966 0.58235 0.0
C1861 C 0.40044 0.51558 0.57376 0.0
C1862 C 0.41971 0.53747 0.56217 0.0
C1863 C 0.4193 0.57232 0.55899 0.0
H1864 H 0.61938 0.99095 0.57865 0.0
H1865 H 0.50338 0.96864 0.59005 0.0
H1866 H 0.58822 0.93047 0.56504 0.0
H1867 H 0.47231 0.90772 0.57671 0.0
H1868 H 0.42155 0.8108 0.54629 0.0
H1869 H 0.45977 0.88032 0.55384 0.0
H1870 H 0.55212 0.86029 0.56916 0.0
H1871 H 0.51444 0.79176 0.56147 0.0
C1872 C 0.58724 0.97298 0.57837 0.0
C1873 C 0.56392 0.98451 0.58557 0.0
C1874 C 0.56937 0.93838 0.57051 0.0
C1875 C 0.52773 0.91437 0.56968 0.0
C1876 C 0.50443 0.92593 0.57687 0.0
C1877 C 0.52229 0.96059 0.5847 0.0
C1878 C 0.45075 0.8219 0.55077 0.0
C1879 C 0.46497 0.79601 0.55343 0.0
C1880 C 0.47237 0.86145 0.55529 0.0
C1881 C 0.5086 0.87561 0.56238 0.0
C1882 C 0.52444 0.85056 0.56374 0.0
C1883 C 0.50282 0.8112 0.55933 0.0
H1884 H 0.29055 0.40994 0.25462 0.0
H1885 H 0.32873 0.39568 0.29426 0.0
H1886 H 0.29137 0.46959 0.26238 0.0
H1887 H 0.32987 0.45554 0.30194 0.0
H1888 H 0.29092 0.54494 0.31394 0.0
H1889 H 0.28441 0.48195 0.30655 0.0
H1890 H 0.34249 0.53715 0.26924 0.0
H1891 H 0.34856 0.59923 0.27645 0.0
C1892 C 0.29934 0.41963 0.26496 0.0
C1893 C 0.30986 0.39818 0.27378 0.0
C1894 C 0.29979 0.4538 0.26941 0.0
C1895 C 0.3106 0.46722 0.28279 0.0
C1896 C 0.32091 0.44568 0.29163 0.0
C1897 C 0.32068 0.41162 0.28716 0.0
C1898 C 0.30192 0.54342 0.30414 0.0
C1899 C 0.32028 0.57713 0.29582 0.0
C1900 C 0.29846 0.50748 0.29993 0.0
C1901 C 0.31289 0.5046 0.28729 0.0
C1902 C 0.33062 0.53819 0.27895 0.0
C1903 C 0.33434 0.57393 0.28316 0.0
H1904 H 0.63456 0.93633 0.28879 0.0
H1905 H 0.6126 0.8201 0.27738 0.0
H1906 H 0.57776 0.90518 0.30401 0.0
H1907 H 0.55583 0.78919 0.29211 0.0
H1908 H 0.46639 0.73332 0.3215 0.0
H1909 H 0.53533 0.77726 0.315 0.0
H1910 H 0.50691 0.86639 0.3028 0.0
H1911 H 0.43891 0.8233 0.31005 0.0
C1912 C 0.6173 0.90419 0.28939 0.0
C1913 C 0.62792 0.88066 0.28185 0.0
C1914 C 0.58501 0.88634 0.29819 0.0
C1915 C 0.56269 0.84466 0.29954 0.0
C1916 C 0.57308 0.82137 0.29175 0.0
C1917 C 0.60529 0.83911 0.28309 0.0
C1918 C 0.4756 0.76331 0.31832 0.0
C1919 C 0.44751 0.775 0.31626 0.0
C1920 C 0.51487 0.7882 0.31426 0.0
C1921 C 0.52625 0.82473 0.30788 0.0
C1922 C 0.49929 0.83846 0.30757 0.0
C1923 C 0.46026 0.81378 0.31177 0.0
H1924 H 0.07273 0.66769 0.25329 0.0
H1925 H 0.10889 0.77459 0.27649 0.0
H1926 H 0.128 0.66327 0.26306 0.0
H1927 H 0.16407 0.77003 0.28622 0.0
H1928 H 0.23015 0.71741 0.31081 0.0
H1929 H 0.17511 0.72394 0.30178 0.0
H1930 H 0.20248 0.70416 0.26152 0.0
H1931 H 0.25703 0.69778 0.27036 0.0
C1932 C 0.09249 0.69026 0.26044 0.0
C1933 C 0.08657 0.72158 0.26405 0.0
C1934 C 0.12414 0.68778 0.26601 0.0
C1935 C 0.15026 0.71634 0.27539 0.0
C1936 C 0.14418 0.74746 0.2791 0.0
C1937 C 0.11278 0.75019 0.27343 0.0
C1938 C 0.22461 0.71479 0.30004 0.0
C1939 C 0.24797 0.70696 0.29134 0.0
C1940 C 0.19316 0.71855 0.29488 0.0
C1941 C 0.18436 0.71411 0.28097 0.0
C1942 C 0.20817 0.70705 0.2723 0.0
C1943 C 0.23963 0.70365 0.2774 0.0
loop_
_geom_bond_atom_site_label_1
_geom_bond_atom_site_label_2
_geom_bond_distance
_geom_bond_site_symmetry_2
_ccdc_geom_bond_type
Zn0 O3 2.031 . S
Zn0 O5 2.049 . S
Zn0 O10 2.067 . S
Zn1 O2 1.962 1_545 S
Zn1 O4 1.986 . S
Zn1 O6 1.996 1_545 S
Zn1 O9 1.943 . S
O2 Zn1 1.962 1_565 S
O2 C7 1.254 . S
O3 Zn0 2.031 . S
O3 C7 1.269 . S
O4 Zn1 1.986 . S
O4 C11 1.262 . S
O5 Zn0 2.049 . S
O5 C13 1.260 . S
O6 Zn1 1.996 1_565 S
O6 C13 1.257 . S
C7 O2 1.254 . S
C7 O3 1.269 . S
C8 O9 1.249 . S
C8 O10 1.270 1_545 S
O9 Zn1 1.943 . S
O9 C8 1.249 . S
O10 Zn0 2.067 . S
O10 C8 1.270 1_565 S
C11 O4 1.262 . S
C11 O12 1.232 . S
O12 C11 1.232 . S
C13 O5 1.260 . S
C13 O6 1.257 . S
Zn14 O17 2.031 . S
Zn14 O19 2.049 . S
Zn14 O24 2.067 . S
Zn15 O16 1.962 1_455 S
Zn15 O18 1.986 . S
Zn15 O20 1.996 1_455 S
Zn15 O23 1.943 . S
O16 Zn15 1.962 1_655 S
O16 C21 1.254 . S
O17 Zn14 2.031 . S
O17 C21 1.269 . S
O18 Zn15 1.986 . S
O18 C25 1.262 . S
O19 Zn14 2.049 . S
O19 C27 1.260 . S
O20 Zn15 1.996 1_655 S
O20 C27 1.257 . S
C21 O16 1.254 . S
C21 O17 1.269 . S
C22 O23 1.249 . S
C22 O24 1.270 1_455 S
O23 Zn15 1.943 . S
O23 C22 1.249 . S
O24 Zn14 2.067 . S
O24 C22 1.270 1_655 S
C25 O18 1.262 . S
C25 O26 1.232 . S
O26 C25 1.232 . S
C27 O19 1.260 . S
C27 O20 1.257 . S
Zn28 O31 2.031 . S
Zn28 O33 2.049 . S
Zn28 O38 2.067 . S
Zn29 O30 1.962 . S
Zn29 O32 1.986 . S
Zn29 O34 1.996 . S
Zn29 O37 1.943 . S
O30 Zn29 1.962 . S
O30 C35 1.254 . S
O31 Zn28 2.031 . S
O31 C35 1.269 . S
O32 Zn29 1.986 . S
O32 C39 1.262 . S
O33 Zn28 2.049 . S
O33 C41 1.260 . S
O34 Zn29 1.996 . S
O34 C41 1.257 . S
C35 O30 1.254 . S
C35 O31 1.269 . S
C36 O37 1.249 . S
C36 O38 1.270 . S
O37 Zn29 1.943 . S
O37 C36 1.249 . S
O38 Zn28 2.067 . S
O38 C36 1.270 . S
C39 O32 1.262 . S
C39 O40 1.232 . S
O40 C39 1.232 . S
C41 O33 1.260 . S
C41 O34 1.257 . S
Zn42 O45 2.031 . S
Zn42 O47 2.049 . S
Zn42 O52 2.067 . S
Zn43 O44 1.962 . S
Zn43 O46 1.986 1_545 S
Zn43 O48 1.996 . S
Zn43 O51 1.943 1_545 S
O44 Zn43 1.962 . S
O44 C49 1.254 . S
O45 Zn42 2.031 . S
O45 C49 1.269 . S
O46 Zn43 1.986 1_565 S
O46 C53 1.262 . S
O47 Zn42 2.049 . S
O47 C55 1.260 . S
O48 Zn43 1.996 . S
O48 C55 1.257 . S
C49 O44 1.254 . S
C49 O45 1.269 . S
C50 O51 1.249 1_545 S
C50 O52 1.270 . S
O51 Zn43 1.943 1_565 S
O51 C50 1.249 1_565 S
O52 Zn42 2.067 . S
O52 C50 1.270 . S
C53 O46 1.262 . S
C53 O54 1.232 . S
O54 C53 1.232 . S
C55 O47 1.260 . S
C55 O48 1.257 . S
Zn56 O59 2.031 . S
Zn56 O61 2.049 . S
Zn56 O66 2.067 . S
Zn57 O58 1.962 . S
Zn57 O60 1.986 1_455 S
Zn57 O62 1.996 . S
Zn57 O65 1.943 1_455 S
O58 Zn57 1.962 . S
O58 C63 1.254 . S
O59 Zn56 2.031 . S
O59 C63 1.269 . S
O60 Zn57 1.986 1_655 S
O60 C67 1.262 . S
O61 Zn56 2.049 . S
O61 C69 1.260 . S
O62 Zn57 1.996 . S
O62 C69 1.257 . S
C63 O58 1.254 . S
C63 O59 1.269 . S
C64 O65 1.249 1_455 S
C64 O66 1.270 . S
O65 Zn57 1.943 1_655 S
O65 C64 1.249 1_655 S
O66 Zn56 2.067 . S
O66 C64 1.270 . S
C67 O60 1.262 . S
C67 O68 1.232 . S
O68 C67 1.232 . S
C69 O61 1.260 . S
C69 O62 1.257 . S
Zn70 O73 2.031 . S
Zn70 O75 2.049 . S
Zn70 O80 2.067 . S
Zn71 O72 1.962 . S
Zn71 O74 1.986 . S
Zn71 O76 1.996 . S
Zn71 O79 1.943 . S
O72 Zn71 1.962 . S
O72 C77 1.254 . S
O73 Zn70 2.031 . S
O73 C77 1.269 . S
O74 Zn71 1.986 . S
O74 C81 1.262 . S
O75 Zn70 2.049 . S
O75 C83 1.260 . S
O76 Zn71 1.996 . S
O76 C83 1.257 . S
C77 O72 1.254 . S
C77 O73 1.269 . S
C78 O79 1.249 . S
C78 O80 1.270 . S
O79 Zn71 1.943 . S
O79 C78 1.249 . S
O80 Zn70 2.067 . S
O80 C78 1.270 . S
C81 O74 1.262 . S
C81 O82 1.232 . S
O82 C81 1.232 . S
C83 O75 1.260 . S
C83 O76 1.257 . S
Zn84 O87 2.031 . S
Zn84 O89 2.049 . S
Zn84 O94 2.067 . S
Zn85 O86 1.962 . S
Zn85 O88 1.986 . S
Zn85 O90 1.996 . S
Zn85 O93 1.943 . S
O86 Zn85 1.962 . S
O86 C91 1.254 . S
O87 Zn84 2.031 . S
O87 C91 1.269 . S
O88 Zn85 1.986 . S
O88 C95 1.262 . S
O89 Zn84 2.049 . S
O89 C97 1.260 . S
O90 Zn85 1.996 . S
O90 C97 1.257 . S
C91 O86 1.254 . S
C91 O87 1.269 . S
C92 O93 1.249 . S
C92 O94 1.270 . S
O93 Zn85 1.943 . S
O93 C92 1.249 . S
O94 Zn84 2.067 . S
O94 C92 1.270 . S
C95 O88 1.262 . S
C95 O96 1.232 . S
O96 C95 1.232 . S
C97 O89 1.260 . S
C97 O90 1.257 . S
Zn98 O101 2.031 . S
Zn98 O103 2.049 . S
Zn98 O108 2.067 . S
Zn99 O100 1.962 . S
Zn99 O102 1.986 . S
Zn99 O104 1.996 . S
Zn99 O107 1.943 . S
O100 Zn99 1.962 . S
O100 C105 1.254 . S
O101 Zn98 2.031 . S
O101 C105 1.269 . S
O102 Zn99 1.986 . S
O102 C109 1.262 . S
O103 Zn98 2.049 . S
O103 C111 1.260 . S
O104 Zn99 1.996 . S
O104 C111 1.257 . S
C105 O100 1.254 . S
C105 O101 1.269 . S
C106 O107 1.249 . S
C106 O108 1.270 . S
O107 Zn99 1.943 . S
O107 C106 1.249 . S
O108 Zn98 2.067 . S
O108 C106 1.270 . S
C109 O102 1.262 . S
C109 O110 1.232 . S
O110 C109 1.232 . S
C111 O103 1.260 . S
C111 O104 1.257 . S
Zn112 O115 2.031 1_655 S
Zn112 O117 2.049 . S
Zn112 O122 2.067 . S
Zn113 O114 1.962 1_655 S
Zn113 O116 1.986 . S
Zn113 O118 1.996 . S
Zn113 O121 1.943 . S
O114 Zn113 1.962 1_455 S
O114 C119 1.254 . S
O115 Zn112 2.031 1_455 S
O115 C119 1.269 . S
O116 Zn113 1.986 . S
O116 C123 1.262 . S
O117 Zn112 2.049 . S
O117 C125 1.260 . S
O118 Zn113 1.996 . S
O118 C125 1.257 . S
C119 O114 1.254 . S
C119 O115 1.269 . S
C120 O121 1.249 . S
C120 O122 1.270 . S
O121 Zn113 1.943 . S
O121 C120 1.249 . S
O122 Zn112 2.067 . S
O122 C120 1.270 . S
C123 O116 1.262 . S
C123 O124 1.232 . S
O124 C123 1.232 . S
C125 O117 1.260 . S
C125 O118 1.257 . S
Zn126 O129 2.031 1_655 S
Zn126 O131 2.049 . S
Zn126 O136 2.067 . S
Zn127 O128 1.962 1_655 S
Zn127 O130 1.986 . S
Zn127 O132 1.996 . S
Zn127 O135 1.943 . S
O128 Zn127 1.962 1_455 S
O128 C133 1.254 . S
O129 Zn126 2.031 1_455 S
O129 C133 1.269 . S
O130 Zn127 1.986 . S
O130 C137 1.262 . S
O131 Zn126 2.049 . S
O131 C139 1.260 . S
O132 Zn127 1.996 . S
O132 C139 1.257 . S
C133 O128 1.254 . S
C133 O129 1.269 . S
C134 O135 1.249 . S
C134 O136 1.270 . S
O135 Zn127 1.943 . S
O135 C134 1.249 . S
O136 Zn126 2.067 . S
O136 C134 1.270 . S
C137 O130 1.262 . S
C137 O138 1.232 . S
O138 C137 1.232 . S
C139 O131 1.260 . S
C139 O132 1.257 . S
Zn140 O143 2.031 . S
Zn140 O145 2.049 . S
Zn140 O150 2.067 . S
Zn141 O142 1.962 . S
Zn141 O144 1.986 . S
Zn141 O146 1.996 . S
Zn141 O149 1.943 . S
O142 Zn141 1.962 . S
O142 C147 1.254 . S
O143 Zn140 2.031 . S
O143 C147 1.269 . S
O144 Zn141 1.986 . S
O144 C151 1.262 . S
O145 Zn140 2.049 . S
O145 C153 1.260 . S
O146 Zn141 1.996 . S
O146 C153 1.257 . S
C147 O142 1.254 . S
C147 O143 1.269 . S
C148 O149 1.249 . S
C148 O150 1.270 . S
O149 Zn141 1.943 . S
O149 C148 1.249 . S
O150 Zn140 2.067 . S
O150 C148 1.270 . S
C151 O144 1.262 . S
C151 O152 1.232 . S
O152 C151 1.232 . S
C153 O145 1.260 . S
C153 O146 1.257 . S
Zn154 O157 2.031 . S
Zn154 O159 2.049 . S
Zn154 O164 2.067 . S
Zn155 O156 1.962 . S
Zn155 O158 1.986 . S
Zn155 O160 1.996 . S
Zn155 O163 1.943 . S
O156 Zn155 1.962 . S
O156 C161 1.254 . S
O157 Zn154 2.031 . S
O157 C161 1.269 . S
O158 Zn155 1.986 . S
O158 C165 1.262 1_545 S
O159 Zn154 2.049 . S
O159 C167 1.260 . S
O160 Zn155 1.996 . S
O160 C167 1.257 . S
C161 O156 1.254 . S
C161 O157 1.269 . S
C162 O163 1.249 . S
C162 O164 1.270 . S
O163 Zn155 1.943 . S
O163 C162 1.249 . S
O164 Zn154 2.067 . S
O164 C162 1.270 . S
C165 O158 1.262 1_565 S
C165 O166 1.232 . S
O166 C165 1.232 . S
C167 O159 1.260 . S
C167 O160 1.257 . S
Zn168 O171 2.031 . S
Zn168 O173 2.049 . S
Zn168 O178 2.067 . S
Zn169 O170 1.962 . S
Zn169 O172 1.986 . S
Zn169 O174 1.996 . S
Zn169 O177 1.943 . S
O170 Zn169 1.962 . S
O170 C175 1.254 . S
O171 Zn168 2.031 . S
O171 C175 1.269 . S
O172 Zn169 1.986 . S
O172 C179 1.262 . S
O173 Zn168 2.049 . S
O173 C181 1.260 . S
O174 Zn169 1.996 . S
O174 C181 1.257 . S
C175 O170 1.254 . S
C175 O171 1.269 . S
C176 O177 1.249 . S
C176 O178 1.270 . S
O177 Zn169 1.943 . S
O177 C176 1.249 . S
O178 Zn168 2.067 . S
O178 C176 1.270 . S
C179 O172 1.262 . S
C179 O180 1.232 . S
O180 C179 1.232 . S
C181 O173 1.260 . S
C181 O174 1.257 . S
Zn182 O185 2.031 . S
Zn182 O187 2.049 . S
Zn182 O192 2.067 . S
Zn183 O184 1.962 . S
Zn183 O186 1.986 . S
Zn183 O188 1.996 . S
Zn183 O191 1.943 . S
O184 Zn183 1.962 . S
O184 C189 1.254 . S
O185 Zn182 2.031 . S
O185 C189 1.269 . S
O186 Zn183 1.986 . S
O186 C193 1.262 . S
O187 Zn182 2.049 . S
O187 C195 1.260 . S
O188 Zn183 1.996 . S
O188 C195 1.257 . S
C189 O184 1.254 . S
C189 O185 1.269 . S
C190 O191 1.249 . S
C190 O192 1.270 . S
O191 Zn183 1.943 . S
O191 C190 1.249 . S
O192 Zn182 2.067 . S
O192 C190 1.270 . S
C193 O186 1.262 . S
C193 O194 1.232 . S
O194 C193 1.232 . S
C195 O187 1.260 . S
C195 O188 1.257 . S
Zn196 O199 2.031 . S
Zn196 O201 2.049 . S
Zn196 O206 2.067 . S
Zn197 O198 1.962 . S
Zn197 O200 1.986 1_565 S
Zn197 O202 1.996 . S
Zn197 O205 1.943 . S
O198 Zn197 1.962 . S
O198 C203 1.254 . S
O199 Zn196 2.031 . S
O199 C203 1.269 . S
O200 Zn197 1.986 1_545 S
O200 C207 1.262 . S
O201 Zn196 2.049 . S
O201 C209 1.260 . S
O202 Zn197 1.996 . S
O202 C209 1.257 . S
C203 O198 1.254 . S
C203 O199 1.269 . S
C204 O205 1.249 . S
C204 O206 1.270 . S
O205 Zn197 1.943 . S
O205 C204 1.249 . S
O206 Zn196 2.067 . S
O206 C204 1.270 . S
C207 O200 1.262 . S
C207 O208 1.232 . S
O208 C207 1.232 . S
C209 O201 1.260 . S
C209 O202 1.257 . S
Zn210 O213 2.031 . S
Zn210 O215 2.049 . S
Zn210 O220 2.067 . S
Zn211 O212 1.962 . S
Zn211 O214 1.986 . S
Zn211 O216 1.996 . S
Zn211 O219 1.943 . S
O212 Zn211 1.962 . S
O212 C217 1.254 . S
O213 Zn210 2.031 . S
O213 C217 1.269 . S
O214 Zn211 1.986 . S
O214 C221 1.262 . S
O215 Zn210 2.049 . S
O215 C223 1.260 . S
O216 Zn211 1.996 . S
O216 C223 1.257 . S
C217 O212 1.254 . S
C217 O213 1.269 . S
C218 O219 1.249 . S
C218 O220 1.270 . S
O219 Zn211 1.943 . S
O219 C218 1.249 . S
O220 Zn210 2.067 . S
O220 C218 1.270 . S
C221 O214 1.262 . S
C221 O222 1.232 . S
O222 C221 1.232 . S
C223 O215 1.260 . S
C223 O216 1.257 . S
Zn224 O227 2.031 1_565 S
Zn224 O229 2.049 . S
Zn224 O234 2.067 . S
Zn225 O226 1.962 1_565 S
Zn225 O228 1.986 . S
Zn225 O230 1.996 . S
Zn225 O233 1.943 . S
O226 Zn225 1.962 1_545 S
O226 C231 1.254 . S
O227 Zn224 2.031 1_545 S
O227 C231 1.269 . S
O228 Zn225 1.986 . S
O228 C235 1.262 . S
O229 Zn224 2.049 . S
O229 C237 1.260 . S
O230 Zn225 1.996 . S
O230 C237 1.257 . S
C231 O226 1.254 . S
C231 O227 1.269 . S
C232 O233 1.249 . S
C232 O234 1.270 . S
O233 Zn225 1.943 . S
O233 C232 1.249 . S
O234 Zn224 2.067 . S
O234 C232 1.270 . S
C235 O228 1.262 . S
C235 O236 1.232 . S
O236 C235 1.232 . S
C237 O229 1.260 . S
C237 O230 1.257 . S
Zn238 O241 2.031 . S
Zn238 O243 2.049 . S
Zn238 O248 2.067 . S
Zn239 O240 1.962 . S
Zn239 O242 1.986 . S
Zn239 O244 1.996 . S
Zn239 O247 1.943 . S
O240 Zn239 1.962 . S
O240 C245 1.254 . S
O241 Zn238 2.031 . S
O241 C245 1.269 . S
O242 Zn239 1.986 . S
O242 C249 1.262 . S
O243 Zn238 2.049 . S
O243 C251 1.260 . S
O244 Zn239 1.996 . S
O244 C251 1.257 . S
C245 O240 1.254 . S
C245 O241 1.269 . S
C246 O247 1.249 . S
C246 O248 1.270 . S
O247 Zn239 1.943 . S
O247 C246 1.249 . S
O248 Zn238 2.067 . S
O248 C246 1.270 . S
C249 O242 1.262 . S
C249 O250 1.232 . S
O250 C249 1.232 . S
C251 O243 1.260 . S
C251 O244 1.257 . S
Zn252 O258 1.920 . S
Zn252 O264 1.898 1_445 S
Zn252 O267 1.905 . S
Zn253 O261 1.905 1_545 S
Zn253 O262 1.898 . S
Zn253 O270 1.920 1_455 S
Zn254 O257 2.080 . S
Zn254 O260 2.114 1_545 S
Zn254 O263 2.120 . S
Zn254 O265 2.120 1_445 S
Zn254 O266 2.114 . S
Zn254 O269 2.080 1_455 S
C255 O260 1.166 . S
C255 O261 1.182 . S
C256 O262 1.167 . S
C256 O263 1.299 . S
O257 Zn254 2.080 . S
O257 C271 1.305 . S
O258 Zn252 1.920 . S
O258 C271 1.234 . S
C259 O264 1.167 . S
C259 O265 1.299 . S
O260 Zn254 2.114 1_565 S
O260 C255 1.166 . S
O261 Zn253 1.905 1_565 S
O261 C255 1.182 . S
O262 Zn253 1.898 . S
O262 C256 1.167 . S
O263 Zn254 2.120 . S
O263 C256 1.299 . S
O264 Zn252 1.898 1_665 S
O264 C259 1.167 . S
O265 Zn254 2.120 1_665 S
O265 C259 1.299 . S
O266 Zn254 2.114 . S
O266 C268 1.166 . S
O267 Zn252 1.905 . S
O267 C268 1.182 . S
C268 O266 1.166 . S
C268 O267 1.182 . S
O269 Zn254 2.080 1_655 S
O269 C272 1.305 . S
O270 Zn253 1.920 1_655 S
O270 C272 1.234 . S
C271 O257 1.305 . S
C271 O258 1.234 . S
C272 O269 1.305 . S
C272 O270 1.234 . S
Zn273 O279 1.920 1_545 S
Zn273 O285 1.898 . S
Zn273 O288 1.905 1_445 S
Zn274 O282 1.905 . S
Zn274 O283 1.898 1_445 S
Zn274 O291 1.920 1_545 S
Zn275 O278 2.080 1_545 S
Zn275 O281 2.114 . S
Zn275 O284 2.120 1_445 S
Zn275 O286 2.120 . S
Zn275 O287 2.114 1_455 S
Zn275 O290 2.080 . S
C276 O281 1.166 . S
C276 O282 1.182 . S
C277 O283 1.167 . S
C277 O284 1.299 . S
O278 Zn275 2.080 1_565 S
O278 C292 1.305 . S
O279 Zn273 1.920 1_565 S
O279 C292 1.234 . S
C280 O285 1.167 . S
C280 O286 1.299 . S
O281 Zn275 2.114 . S
O281 C276 1.166 . S
O282 Zn274 1.905 . S
O282 C276 1.182 . S
O283 Zn274 1.898 1_665 S
O283 C277 1.167 . S
O284 Zn275 2.120 1_665 S
O284 C277 1.299 . S
O285 Zn273 1.898 . S
O285 C280 1.167 . S
O286 Zn275 2.120 . S
O286 C280 1.299 . S
O287 Zn275 2.114 1_655 S
O287 C289 1.166 . S
O288 Zn273 1.905 1_665 S
O288 C289 1.182 1_565 S
C289 O287 1.166 . S
C289 O288 1.182 1_545 S
O290 Zn275 2.080 . S
O290 C293 1.305 1_545 S
O291 Zn274 1.920 1_565 S
O291 C293 1.234 . S
C292 O278 1.305 . S
C292 O279 1.234 . S
C293 O290 1.305 1_565 S
C293 O291 1.234 . S
Zn294 O300 1.920 1_545 S
Zn294 O306 1.898 . S
Zn294 O309 1.905 1_445 S
Zn295 O303 1.905 . S
Zn295 O304 1.898 1_445 S
Zn295 O312 1.920 . S
Zn296 O299 2.080 1_545 S
Zn296 O302 2.114 . S
Zn296 O305 2.120 1_445 S
Zn296 O307 2.120 . S
Zn296 O308 2.114 1_455 S
Zn296 O311 2.080 . S
C297 O302 1.166 . S
C297 O303 1.182 . S
C298 O304 1.167 . S
C298 O305 1.299 . S
O299 Zn296 2.080 1_565 S
O299 C313 1.305 . S
O300 Zn294 1.920 1_565 S
O300 C313 1.234 . S
C301 O306 1.167 . S
C301 O307 1.299 . S
O302 Zn296 2.114 . S
O302 C297 1.166 . S
O303 Zn295 1.905 . S
O303 C297 1.182 . S
O304 Zn295 1.898 1_665 S
O304 C298 1.167 . S
O305 Zn296 2.120 1_665 S
O305 C298 1.299 . S
O306 Zn294 1.898 . S
O306 C301 1.167 . S
O307 Zn296 2.120 . S
O307 C301 1.299 . S
O308 Zn296 2.114 1_655 S
O308 C310 1.166 . S
O309 Zn294 1.905 1_665 S
O309 C310 1.182 1_565 S
C310 O308 1.166 . S
C310 O309 1.182 1_545 S
O311 Zn296 2.080 . S
O311 C314 1.305 . S
O312 Zn295 1.920 . S
O312 C314 1.234 . S
C313 O299 1.305 . S
C313 O300 1.234 . S
C314 O311 1.305 . S
C314 O312 1.234 . S
Zn315 O321 1.920 . S
Zn315 O327 1.898 1_445 S
Zn315 O330 1.905 . S
Zn316 O324 1.905 1_545 S
Zn316 O325 1.898 . S
Zn316 O333 1.920 1_455 S
Zn317 O320 2.080 . S
Zn317 O323 2.114 1_545 S
Zn317 O326 2.120 . S
Zn317 O328 2.120 1_445 S
Zn317 O329 2.114 . S
Zn317 O332 2.080 1_455 S
C318 O323 1.166 . S
C318 O324 1.182 . S
C319 O325 1.167 . S
C319 O326 1.299 . S
O320 Zn317 2.080 . S
O320 C334 1.305 . S
O321 Zn315 1.920 . S
O321 C334 1.234 . S
C322 O327 1.167 . S
C322 O328 1.299 . S
O323 Zn317 2.114 1_565 S
O323 C318 1.166 . S
O324 Zn316 1.905 1_565 S
O324 C318 1.182 . S
O325 Zn316 1.898 . S
O325 C319 1.167 . S
O326 Zn317 2.120 . S
O326 C319 1.299 . S
O327 Zn315 1.898 1_665 S
O327 C322 1.167 . S
O328 Zn317 2.120 1_665 S
O328 C322 1.299 . S
O329 Zn317 2.114 . S
O329 C331 1.166 . S
O330 Zn315 1.905 . S
O330 C331 1.182 . S
C331 O329 1.166 . S
C331 O330 1.182 . S
O332 Zn317 2.080 1_655 S
O332 C335 1.305 . S
O333 Zn316 1.920 1_655 S
O333 C335 1.234 . S
C334 O320 1.305 . S
C334 O321 1.234 . S
C335 O332 1.305 . S
C335 O333 1.234 . S
Zn336 O342 1.920 . S
Zn336 O348 1.898 . S
Zn336 O351 1.905 . S
Zn337 O345 1.905 . S
Zn337 O346 1.898 . S
Zn337 O354 1.920 . S
Zn338 O341 2.080 . S
Zn338 O344 2.114 . S
Zn338 O347 2.120 . S
Zn338 O349 2.120 . S
Zn338 O350 2.114 . S
Zn338 O353 2.080 . S
C339 O344 1.166 . S
C339 O345 1.182 . S
C340 O346 1.167 . S
C340 O347 1.299 . S
O341 Zn338 2.080 . S
O341 C355 1.305 . S
O342 Zn336 1.920 . S
O342 C355 1.234 . S
C343 O348 1.167 . S
C343 O349 1.299 . S
O344 Zn338 2.114 . S
O344 C339 1.166 . S
O345 Zn337 1.905 . S
O345 C339 1.182 . S
O346 Zn337 1.898 . S
O346 C340 1.167 . S
O347 Zn338 2.120 . S
O347 C340 1.299 . S
O348 Zn336 1.898 . S
O348 C343 1.167 . S
O349 Zn338 2.120 . S
O349 C343 1.299 . S
O350 Zn338 2.114 . S
O350 C352 1.166 . S
O351 Zn336 1.905 . S
O351 C352 1.182 . S
C352 O350 1.166 . S
C352 O351 1.182 . S
O353 Zn338 2.080 . S
O353 C356 1.305 . S
O354 Zn337 1.920 . S
O354 C356 1.234 . S
C355 O341 1.305 . S
C355 O342 1.234 . S
C356 O353 1.305 . S
C356 O354 1.234 . S
Zn357 O363 1.920 . S
Zn357 O369 1.898 . S
Zn357 O372 1.905 . S
Zn358 O366 1.905 . S
Zn358 O367 1.898 . S
Zn358 O375 1.920 . S
Zn359 O362 2.080 . S
Zn359 O365 2.114 . S
Zn359 O368 2.120 . S
Zn359 O370 2.120 . S
Zn359 O371 2.114 . S
Zn359 O374 2.080 . S
C360 O365 1.166 . S
C360 O366 1.182 . S
C361 O367 1.167 . S
C361 O368 1.299 . S
O362 Zn359 2.080 . S
O362 C376 1.305 . S
O363 Zn357 1.920 . S
O363 C376 1.234 . S
C364 O369 1.167 . S
C364 O370 1.299 . S
O365 Zn359 2.114 . S
O365 C360 1.166 . S
O366 Zn358 1.905 . S
O366 C360 1.182 . S
O367 Zn358 1.898 . S
O367 C361 1.167 . S
O368 Zn359 2.120 . S
O368 C361 1.299 . S
O369 Zn357 1.898 . S
O369 C364 1.167 . S
O370 Zn359 2.120 . S
O370 C364 1.299 . S
O371 Zn359 2.114 . S
O371 C373 1.166 . S
O372 Zn357 1.905 . S
O372 C373 1.182 . S
C373 O371 1.166 . S
C373 O372 1.182 . S
O374 Zn359 2.080 . S
O374 C377 1.305 . S
O375 Zn358 1.920 . S
O375 C377 1.234 . S
C376 O362 1.305 . S
C376 O363 1.234 . S
C377 O374 1.305 . S
C377 O375 1.234 . S
Zn378 O384 1.920 . S
Zn378 O390 1.898 . S
Zn378 O393 1.905 . S
Zn379 O387 1.905 . S
Zn379 O388 1.898 . S
Zn379 O396 1.920 . S
Zn380 O383 2.080 . S
Zn380 O386 2.114 . S
Zn380 O389 2.120 . S
Zn380 O391 2.120 . S
Zn380 O392 2.114 . S
Zn380 O395 2.080 . S
C381 O386 1.166 . S
C381 O387 1.182 . S
C382 O388 1.167 . S
C382 O389 1.299 . S
O383 Zn380 2.080 . S
O383 C397 1.305 . S
O384 Zn378 1.920 . S
O384 C397 1.234 . S
C385 O390 1.167 . S
C385 O391 1.299 . S
O386 Zn380 2.114 . S
O386 C381 1.166 . S
O387 Zn379 1.905 . S
O387 C381 1.182 . S
O388 Zn379 1.898 . S
O388 C382 1.167 . S
O389 Zn380 2.120 . S
O389 C382 1.299 . S
O390 Zn378 1.898 . S
O390 C385 1.167 . S
O391 Zn380 2.120 . S
O391 C385 1.299 . S
O392 Zn380 2.114 . S
O392 C394 1.166 . S
O393 Zn378 1.905 . S
O393 C394 1.182 . S
C394 O392 1.166 . S
C394 O393 1.182 . S
O395 Zn380 2.080 . S
O395 C398 1.305 . S
O396 Zn379 1.920 . S
O396 C398 1.234 . S
C397 O383 1.305 . S
C397 O384 1.234 . S
C398 O395 1.305 . S
C398 O396 1.234 . S
Zn399 O405 1.920 . S
Zn399 O411 1.898 . S
Zn399 O414 1.905 . S
Zn400 O408 1.905 . S
Zn400 O409 1.898 . S
Zn400 O417 1.920 . S
Zn401 O404 2.080 . S
Zn401 O407 2.114 . S
Zn401 O410 2.120 . S
Zn401 O412 2.120 . S
Zn401 O413 2.114 . S
Zn401 O416 2.080 . S
C402 O407 1.166 . S
C402 O408 1.182 . S
C403 O409 1.167 . S
C403 O410 1.299 . S
O404 Zn401 2.080 . S
O404 C418 1.305 1_556 S
O405 Zn399 1.920 . S
O405 C418 1.234 . S
C406 O411 1.167 . S
C406 O412 1.299 1_554 S
O407 Zn401 2.114 . S
O407 C402 1.166 . S
O408 Zn400 1.905 . S
O408 C402 1.182 . S
O409 Zn400 1.898 . S
O409 C403 1.167 . S
O410 Zn401 2.120 . S
O410 C403 1.299 . S
O411 Zn399 1.898 . S
O411 C406 1.167 . S
O412 Zn401 2.120 . S
O412 C406 1.299 1_556 S
O413 Zn401 2.114 . S
O413 C415 1.166 1_556 S
O414 Zn399 1.905 . S
O414 C415 1.182 . S
C415 O413 1.166 1_554 S
C415 O414 1.182 . S
O416 Zn401 2.080 . S
O416 C419 1.305 . S
O417 Zn400 1.920 . S
O417 C419 1.234 . S
C418 O404 1.305 1_554 S
C418 O405 1.234 . S
C419 O416 1.305 . S
C419 O417 1.234 . S
Zn420 O426 1.920 . S
Zn420 O432 1.898 . S
Zn420 O435 1.905 . S
Zn421 O429 1.905 . S
Zn421 O430 1.898 . S
Zn421 O438 1.920 . S
Zn422 O425 2.080 . S
Zn422 O428 2.114 . S
Zn422 O431 2.120 . S
Zn422 O433 2.120 . S
Zn422 O434 2.114 . S
Zn422 O437 2.080 . S
C423 O428 1.166 . S
C423 O429 1.182 . S
C424 O430 1.167 . S
C424 O431 1.299 . S
O425 Zn422 2.080 . S
O425 C439 1.305 . S
O426 Zn420 1.920 . S
O426 C439 1.234 . S
C427 O432 1.167 . S
C427 O433 1.299 . S
O428 Zn422 2.114 . S
O428 C423 1.166 . S
O429 Zn421 1.905 . S
O429 C423 1.182 . S
O430 Zn421 1.898 . S
O430 C424 1.167 . S
O431 Zn422 2.120 . S
O431 C424 1.299 . S
O432 Zn420 1.898 . S
O432 C427 1.167 . S
O433 Zn422 2.120 . S
O433 C427 1.299 . S
O434 Zn422 2.114 . S
O434 C436 1.166 . S
O435 Zn420 1.905 . S
O435 C436 1.182 . S
C436 O434 1.166 . S
C436 O435 1.182 . S
O437 Zn422 2.080 . S
O437 C440 1.305 . S
O438 Zn421 1.920 . S
O438 C440 1.234 . S
C439 O425 1.305 . S
C439 O426 1.234 . S
C440 O437 1.305 . S
C440 O438 1.234 . S
Zn441 O447 1.920 . S
Zn441 O453 1.898 . S
Zn441 O456 1.905 . S
Zn442 O450 1.905 . S
Zn442 O451 1.898 . S
Zn442 O459 1.920 . S
Zn443 O446 2.080 . S
Zn443 O449 2.114 . S
Zn443 O452 2.120 . S
Zn443 O454 2.120 . S
Zn443 O455 2.114 . S
Zn443 O458 2.080 . S
C444 O449 1.166 1_556 S
C444 O450 1.182 . S
C445 O451 1.167 . S
C445 O452 1.299 1_556 S
O446 Zn443 2.080 . S
O446 C460 1.305 . S
O447 Zn441 1.920 . S
O447 C460 1.234 . S
C448 O453 1.167 . S
C448 O454 1.299 . S
O449 Zn443 2.114 . S
O449 C444 1.166 1_554 S
O450 Zn442 1.905 . S
O450 C444 1.182 . S
O451 Zn442 1.898 . S
O451 C445 1.167 . S
O452 Zn443 2.120 . S
O452 C445 1.299 1_554 S
O453 Zn441 1.898 . S
O453 C448 1.167 . S
O454 Zn443 2.120 . S
O454 C448 1.299 . S
O455 Zn443 2.114 . S
O455 C457 1.166 . S
O456 Zn441 1.905 . S
O456 C457 1.182 . S
C457 O455 1.166 . S
C457 O456 1.182 . S
O458 Zn443 2.080 . S
O458 C461 1.305 1_554 S
O459 Zn442 1.920 . S
O459 C461 1.234 . S
C460 O446 1.305 . S
C460 O447 1.234 . S
C461 O458 1.305 1_556 S
C461 O459 1.234 . S
Zn462 O468 1.920 . S
Zn462 O474 1.898 . S
Zn462 O477 1.905 . S
Zn463 O471 1.905 . S
Zn463 O472 1.898 . S
Zn463 O480 1.920 . S
Zn464 O467 2.080 . S
Zn464 O470 2.114 . S
Zn464 O473 2.120 . S
Zn464 O475 2.120 . S
Zn464 O476 2.114 . S
Zn464 O479 2.080 . S
C465 O470 1.166 . S
C465 O471 1.182 . S
C466 O472 1.167 . S
C466 O473 1.299 . S
O467 Zn464 2.080 . S
O467 C481 1.305 . S
O468 Zn462 1.920 . S
O468 C481 1.234 . S
C469 O474 1.167 . S
C469 O475 1.299 . S
O470 Zn464 2.114 . S
O470 C465 1.166 . S
O471 Zn463 1.905 . S
O471 C465 1.182 . S
O472 Zn463 1.898 . S
O472 C466 1.167 . S
O473 Zn464 2.120 . S
O473 C466 1.299 . S
O474 Zn462 1.898 . S
O474 C469 1.167 . S
O475 Zn464 2.120 . S
O475 C469 1.299 . S
O476 Zn464 2.114 . S
O476 C478 1.166 . S
O477 Zn462 1.905 . S
O477 C478 1.182 . S
C478 O476 1.166 . S
C478 O477 1.182 . S
O479 Zn464 2.080 . S
O479 C482 1.305 . S
O480 Zn463 1.920 . S
O480 C482 1.234 . S
C481 O467 1.305 . S
C481 O468 1.234 . S
C482 O479 1.305 . S
C482 O480 1.234 . S
Zn483 O489 1.920 . S
Zn483 O495 1.898 . S
Zn483 O498 1.905 . S
Zn484 O492 1.905 . S
Zn484 O493 1.898 . S
Zn484 O501 1.920 . S
Zn485 O488 2.080 . S
Zn485 O491 2.114 . S
Zn485 O494 2.120 . S
Zn485 O496 2.120 . S
Zn485 O497 2.114 . S
Zn485 O500 2.080 . S
C486 O491 1.166 . S
C486 O492 1.182 . S
C487 O493 1.167 . S
C487 O494 1.299 . S
O488 Zn485 2.080 . S
O488 C502 1.305 . S
O489 Zn483 1.920 . S
O489 C502 1.234 . S
C490 O495 1.167 . S
C490 O496 1.299 . S
O491 Zn485 2.114 . S
O491 C486 1.166 . S
O492 Zn484 1.905 . S
O492 C486 1.182 . S
O493 Zn484 1.898 . S
O493 C487 1.167 . S
O494 Zn485 2.120 . S
O494 C487 1.299 . S
O495 Zn483 1.898 . S
O495 C490 1.167 . S
O496 Zn485 2.120 . S
O496 C490 1.299 . S
O497 Zn485 2.114 . S
O497 C499 1.166 . S
O498 Zn483 1.905 . S
O498 C499 1.182 . S
C499 O497 1.166 . S
C499 O498 1.182 . S
O500 Zn485 2.080 . S
O500 C503 1.305 . S
O501 Zn484 1.920 . S
O501 C503 1.234 . S
C502 O488 1.305 . S
C502 O489 1.234 . S
C503 O500 1.305 . S
C503 O501 1.234 . S
H504 C512 0.950 . S
H505 C517 0.950 . S
H506 C514 0.950 . S
H507 C516 0.950 . S
H508 C518 0.950 . S
H509 C520 0.950 . S
H510 C522 0.950 . S
H511 C523 0.950 . S
C512 H504 0.950 . S
C512 C513 1.386 . S
C512 C514 1.391 . S
C513 C512 1.386 . S
C513 C517 1.393 . S
C514 H506 0.950 . S
C514 C512 1.391 . S
C514 C515 1.400 . S
C515 C514 1.400 . S
C515 C516 1.398 . S
C515 C521 1.491 . S
C516 H507 0.950 . S
C516 C515 1.398 . S
C516 C517 1.391 . S
C517 H505 0.950 . S
C517 C513 1.393 . S
C517 C516 1.391 . S
C518 H508 0.950 . S
C518 C519 1.386 . S
C518 C520 1.391 . S
C519 C518 1.386 . S
C519 C523 1.393 . S
C520 H509 0.950 . S
C520 C518 1.391 . S
C520 C521 1.400 . S
C521 C515 1.491 . S
C521 C520 1.400 . S
C521 C522 1.398 . S
C522 H510 0.950 . S
C522 C521 1.398 . S
C522 C523 1.391 . S
C523 H511 0.950 . S
C523 C519 1.393 . S
C523 C522 1.391 . S
H524 C532 0.950 . S
H525 C537 0.950 . S
H526 C534 0.950 . S
H527 C536 0.950 . S
H528 C538 0.950 . S
H529 C540 0.950 . S
H530 C542 0.950 . S
H531 C543 0.950 . S
C532 H524 0.950 . S
C532 C533 1.386 . S
C532 C534 1.391 . S
C533 C532 1.386 . S
C533 C537 1.393 1_545 S
C534 H526 0.950 . S
C534 C532 1.391 . S
C534 C535 1.400 . S
C535 C534 1.400 . S
C535 C536 1.398 1_545 S
C535 C541 1.491 . S
C536 H527 0.950 . S
C536 C535 1.398 1_565 S
C536 C537 1.391 . S
C537 H525 0.950 . S
C537 C533 1.393 1_565 S
C537 C536 1.391 . S
C538 H528 0.950 . S
C538 C539 1.386 1_565 S
C538 C540 1.391 . S
C539 C538 1.386 1_545 S
C539 C543 1.393 . S
C540 H529 0.950 . S
C540 C538 1.391 . S
C540 C541 1.400 1_565 S
C541 C535 1.491 . S
C541 C540 1.400 1_545 S
C541 C542 1.398 . S
C542 H530 0.950 . S
C542 C541 1.398 . S
C542 C543 1.391 . S
C543 H531 0.950 . S
C543 C539 1.393 . S
C543 C542 1.391 . S
H544 C552 0.950 . S
H545 C557 0.950 . S
H546 C554 0.950 . S
H547 C556 0.950 . S
H548 C558 0.950 . S
H549 C560 0.950 . S
H550 C562 0.950 . S
H551 C563 0.950 . S
C552 H544 0.950 . S
C552 C553 1.386 . S
C552 C554 1.391 . S
C553 C552 1.386 . S
C553 C557 1.393 . S
C554 H546 0.950 . S
C554 C552 1.391 . S
C554 C555 1.400 . S
C555 C554 1.400 . S
C555 C556 1.398 . S
C555 C561 1.491 . S
C556 H547 0.950 . S
C556 C555 1.398 . S
C556 C557 1.391 . S
C557 H545 0.950 . S
C557 C553 1.393 . S
C557 C556 1.391 . S
C558 H548 0.950 . S
C558 C559 1.386 . S
C558 C560 1.391 . S
C559 C558 1.386 . S
C559 C563 1.393 . S
C560 H549 0.950 . S
C560 C558 1.391 . S
C560 C561 1.400 . S
C561 C555 1.491 . S
C561 C560 1.400 . S
C561 C562 1.398 . S
C562 H550 0.950 . S
C562 C561 1.398 . S
C562 C563 1.391 . S
C563 H551 0.950 . S
C563 C559 1.393 . S
C563 C562 1.391 . S
H564 C572 0.950 . S
H565 C577 0.950 . S
H566 C574 0.950 . S
H567 C576 0.950 . S
H568 C578 0.950 . S
H569 C580 0.950 . S
H570 C582 0.950 . S
H571 C583 0.950 . S
C572 H564 0.950 . S
C572 C573 1.386 . S
C572 C574 1.391 . S
C573 C572 1.386 . S
C573 C577 1.393 . S
C574 H566 0.950 . S
C574 C572 1.391 . S
C574 C575 1.400 . S
C575 C574 1.400 . S
C575 C576 1.398 . S
C575 C581 1.491 . S
C576 H567 0.950 . S
C576 C575 1.398 . S
C576 C577 1.391 . S
C577 H565 0.950 . S
C577 C573 1.393 . S
C577 C576 1.391 . S
C578 H568 0.950 . S
C578 C579 1.386 . S
C578 C580 1.391 . S
C579 C578 1.386 . S
C579 C583 1.393 . S
C580 H569 0.950 . S
C580 C578 1.391 . S
C580 C581 1.400 . S
C581 C575 1.491 . S
C581 C580 1.400 . S
C581 C582 1.398 . S
C582 H570 0.950 . S
C582 C581 1.398 . S
C582 C583 1.391 . S
C583 H571 0.950 . S
C583 C579 1.393 . S
C583 C582 1.391 . S
H584 C592 0.950 . S
H585 C597 0.950 1_565 S
H586 C594 0.950 . S
H587 C596 0.950 . S
H588 C598 0.950 . S
H589 C600 0.950 . S
H590 C602 0.950 . S
H591 C603 0.950 . S
C592 H584 0.950 . S
C592 C593 1.386 . S
C592 C594 1.391 . S
C593 C592 1.386 . S
C593 C597 1.393 . S
C594 H586 0.950 . S
C594 C592 1.391 . S
C594 C595 1.400 . S
C595 C594 1.400 . S
C595 C596 1.398 1_545 S
C595 C601 1.491 . S
C596 H587 0.950 . S
C596 C595 1.398 1_565 S
C596 C597 1.391 1_565 S
C597 H585 0.950 1_545 S
C597 C593 1.393 . S
C597 C596 1.391 1_545 S
C598 H588 0.950 . S
C598 C599 1.386 . S
C598 C600 1.391 . S
C599 C598 1.386 . S
C599 C603 1.393 1_565 S
C600 H589 0.950 . S
C600 C598 1.391 . S
C600 C601 1.400 1_565 S
C601 C595 1.491 . S
C601 C600 1.400 1_545 S
C601 C602 1.398 . S
C602 H590 0.950 . S
C602 C601 1.398 . S
C602 C603 1.391 . S
C603 H591 0.950 . S
C603 C599 1.393 1_545 S
C603 C602 1.391 . S
H604 C612 0.950 . S
H605 C617 0.950 . S
H606 C614 0.950 . S
H607 C616 0.950 . S
H608 C618 0.950 1_655 S
H609 C620 0.934 1_655 S
H610 C622 0.950 . S
H611 C623 0.950 . S
C612 H604 0.950 . S
C612 C613 1.386 . S
C612 C614 1.391 . S
C613 C612 1.386 . S
C613 C617 1.393 1_455 S
C614 H606 0.950 . S
C614 C612 1.391 . S
C614 C615 1.400 . S
C615 C614 1.400 . S
C615 C616 1.398 1_455 S
C615 C621 1.491 . S
C616 H607 0.950 . S
C616 C615 1.398 1_655 S
C616 C617 1.391 . S
C617 H605 0.950 . S
C617 C613 1.393 1_655 S
C617 C616 1.391 . S
C618 H608 0.950 1_455 S
C618 C619 1.386 . S
C618 C620 1.382 . S
C619 C618 1.386 . S
C619 C623 1.393 . S
C620 H609 0.934 1_455 S
C620 C618 1.382 . S
C620 C621 1.425 . S
C621 C615 1.491 . S
C621 C620 1.425 . S
C621 C622 1.398 . S
C622 H610 0.950 . S
C622 C621 1.398 . S
C622 C623 1.391 . S
C623 H611 0.950 . S
C623 C619 1.393 . S
C623 C622 1.391 . S
H624 C632 0.950 . S
H625 C637 0.950 . S
H626 C634 0.950 . S
H627 C636 0.950 . S
H628 C638 0.950 . S
H629 C640 0.950 . S
H630 C642 0.950 . S
H631 C643 0.950 . S
C632 H624 0.950 . S
C632 C633 1.386 . S
C632 C634 1.391 . S
C633 C632 1.386 . S
C633 C637 1.393 . S
C634 H626 0.950 . S
C634 C632 1.391 . S
C634 C635 1.400 . S
C635 C634 1.400 . S
C635 C636 1.398 . S
C635 C641 1.491 . S
C636 H627 0.950 . S
C636 C635 1.398 . S
C636 C637 1.391 . S
C637 H625 0.950 . S
C637 C633 1.393 . S
C637 C636 1.391 . S
C638 H628 0.950 . S
C638 C639 1.386 . S
C638 C640 1.391 . S
C639 C638 1.386 . S
C639 C643 1.393 . S
C640 H629 0.950 . S
C640 C638 1.391 . S
C640 C641 1.400 . S
C641 C635 1.491 . S
C641 C640 1.400 . S
C641 C642 1.398 . S
C642 H630 0.950 . S
C642 C641 1.398 . S
C642 C643 1.391 . S
C643 H631 0.950 . S
C643 C639 1.393 . S
C643 C642 1.391 . S
H644 C652 0.950 . S
H645 C657 0.950 . S
H646 C654 0.950 . S
H647 C656 0.950 . S
H648 C658 0.950 . S
H649 C660 0.950 . S
H650 C662 0.950 . S
H651 C663 0.950 . S
C652 H644 0.950 . S
C652 C653 1.386 . S
C652 C654 1.391 . S
C653 C652 1.386 . S
C653 C657 1.393 . S
C654 H646 0.950 . S
C654 C652 1.391 . S
C654 C655 1.400 . S
C655 C654 1.400 . S
C655 C656 1.398 . S
C655 C661 1.491 . S
C656 H647 0.950 . S
C656 C655 1.398 . S
C656 C657 1.391 . S
C657 H645 0.950 . S
C657 C653 1.393 . S
C657 C656 1.391 . S
C658 H648 0.950 . S
C658 C659 1.386 . S
C658 C660 1.391 . S
C659 C658 1.386 . S
C659 C663 1.393 . S
C660 H649 0.950 . S
C660 C658 1.391 . S
C660 C661 1.400 . S
C661 C655 1.491 . S
C661 C660 1.400 . S
C661 C662 1.398 . S
C662 H650 0.950 . S
C662 C661 1.398 . S
C662 C663 1.391 . S
C663 H651 0.950 . S
C663 C659 1.393 . S
C663 C662 1.391 . S
H664 C672 0.950 . S
H665 C677 0.950 . S
H666 C674 0.950 . S
H667 C676 0.950 . S
H668 C678 0.950 . S
H669 C680 0.950 . S
H670 C682 0.950 . S
H671 C683 0.950 . S
C672 H664 0.950 . S
C672 C673 1.386 1_655 S
C672 C674 1.391 . S
C673 C672 1.386 1_455 S
C673 C677 1.393 . S
C674 H666 0.950 . S
C674 C672 1.391 . S
C674 C675 1.400 1_655 S
C675 C674 1.400 1_455 S
C675 C676 1.398 . S
C675 C681 1.491 . S
C676 H667 0.950 . S
C676 C675 1.398 . S
C676 C677 1.391 . S
C677 H665 0.950 . S
C677 C673 1.393 . S
C677 C676 1.391 . S
C678 H668 0.950 . S
C678 C679 1.386 . S
C678 C680 1.391 . S
C679 C678 1.386 . S
C679 C683 1.393 1_455 S
C680 H669 0.950 . S
C680 C678 1.391 . S
C680 C681 1.400 . S
C681 C675 1.491 . S
C681 C680 1.400 . S
C681 C682 1.398 1_455 S
C682 H670 0.950 . S
C682 C681 1.398 1_655 S
C682 C683 1.391 . S
C683 H671 0.950 . S
C683 C679 1.393 1_655 S
C683 C682 1.391 . S
H684 C692 0.950 . S
H685 C697 0.950 . S
H686 C694 0.950 . S
H687 C696 0.950 . S
H688 C698 0.950 . S
H689 C700 0.950 . S
H690 C702 0.950 . S
H691 C703 0.950 . S
C692 H684 0.950 . S
C692 C693 1.386 . S
C692 C694 1.391 . S
C693 C692 1.386 . S
C693 C697 1.393 . S
C694 H686 0.950 . S
C694 C692 1.391 . S
C694 C695 1.400 . S
C695 C694 1.400 . S
C695 C696 1.398 . S
C695 C701 1.491 . S
C696 H687 0.950 . S
C696 C695 1.398 . S
C696 C697 1.391 . S
C697 H685 0.950 . S
C697 C693 1.393 . S
C697 C696 1.391 . S
C698 H688 0.950 . S
C698 C699 1.386 . S
C698 C700 1.391 . S
C699 C698 1.386 . S
C699 C703 1.393 . S
C700 H689 0.950 . S
C700 C698 1.391 . S
C700 C701 1.400 . S
C701 C695 1.491 . S
C701 C700 1.400 . S
C701 C702 1.398 . S
C702 H690 0.950 . S
C702 C701 1.398 . S
C702 C703 1.391 . S
C703 H691 0.950 . S
C703 C699 1.393 . S
C703 C702 1.391 . S
H704 C712 0.950 . S
H705 C717 0.950 . S
H706 C714 0.950 . S
H707 C716 0.950 . S
H708 C718 0.950 . S
H709 C720 0.950 . S
H710 C722 0.950 1_565 S
H711 C723 0.950 . S
C712 H704 0.950 . S
C712 C713 1.386 1_565 S
C712 C714 1.391 . S
C713 C712 1.386 1_545 S
C713 C717 1.393 . S
C714 H706 0.950 . S
C714 C712 1.391 . S
C714 C715 1.400 1_565 S
C715 C714 1.400 1_545 S
C715 C716 1.398 . S
C715 C721 1.491 . S
C716 H707 0.950 . S
C716 C715 1.398 . S
C716 C717 1.391 . S
C717 H705 0.950 . S
C717 C713 1.393 . S
C717 C716 1.391 . S
C718 H708 0.950 . S
C718 C719 1.386 . S
C718 C720 1.391 . S
C719 C718 1.386 . S
C719 C723 1.393 . S
C720 H709 0.950 . S
C720 C718 1.391 . S
C720 C721 1.400 . S
C721 C715 1.491 . S
C721 C720 1.400 . S
C721 C722 1.398 . S
C722 H710 0.950 1_545 S
C722 C721 1.398 . S
C722 C723 1.391 . S
C723 H711 0.950 . S
C723 C719 1.393 . S
C723 C722 1.391 . S
H724 C732 0.957 . S
H725 C737 0.950 . S
H726 C734 0.950 1_655 S
H727 C736 0.950 . S
H728 C738 0.950 . S
H729 C740 0.950 . S
H730 C742 0.950 . S
H731 C743 0.950 . S
C732 H724 0.957 . S
C732 C733 1.386 . S
C732 C734 1.391 . S
C733 C732 1.386 . S
C733 C737 1.393 . S
C734 H726 0.950 1_455 S
C734 C732 1.391 . S
C734 C735 1.400 . S
C735 C734 1.400 . S
C735 C736 1.398 . S
C735 C741 1.491 . S
C736 H727 0.950 . S
C736 C735 1.398 . S
C736 C737 1.391 . S
C737 H725 0.950 . S
C737 C733 1.393 . S
C737 C736 1.391 . S
C738 H728 0.950 . S
C738 C739 1.386 . S
C738 C740 1.391 . S
C739 C738 1.386 . S
C739 C743 1.393 1_455 S
C740 H729 0.950 . S
C740 C738 1.391 . S
C740 C741 1.400 . S
C741 C735 1.491 . S
C741 C740 1.400 . S
C741 C742 1.398 1_455 S
C742 H730 0.950 . S
C742 C741 1.398 1_655 S
C742 C743 1.391 . S
C743 H731 0.950 . S
C743 C739 1.393 1_655 S
C743 C742 1.391 . S
H744 C752 0.950 . S
H745 C757 0.950 . S
H746 C754 0.950 . S
H747 C756 0.950 . S
H748 C758 0.950 . S
H749 C760 0.950 . S
H750 C762 0.950 . S
H751 C763 0.950 . S
C752 H744 0.950 . S
C752 C753 1.386 . S
C752 C754 1.391 . S
C753 C752 1.386 . S
C753 C757 1.393 . S
C754 H746 0.950 . S
C754 C752 1.391 . S
C754 C755 1.400 . S
C755 C754 1.400 . S
C755 C756 1.398 . S
C755 C761 1.491 . S
C756 H747 0.950 . S
C756 C755 1.398 . S
C756 C757 1.391 . S
C757 H745 0.950 . S
C757 C753 1.393 . S
C757 C756 1.391 . S
C758 H748 0.950 . S
C758 C759 1.386 . S
C758 C760 1.391 . S
C759 C758 1.386 . S
C759 C763 1.393 . S
C760 H749 0.950 . S
C760 C758 1.391 . S
C760 C761 1.400 . S
C761 C755 1.491 . S
C761 C760 1.400 . S
C761 C762 1.398 . S
C762 H750 0.950 . S
C762 C761 1.398 . S
C762 C763 1.391 . S
C763 H751 0.950 . S
C763 C759 1.393 . S
C763 C762 1.391 . S
H764 C772 0.950 . S
H765 C777 0.950 . S
H766 C774 0.950 . S
H767 C776 0.950 . S
H768 C778 0.950 . S
H769 C780 0.950 . S
H770 C782 0.950 . S
H771 C783 0.950 . S
C772 H764 0.950 . S
C772 C773 1.386 . S
C772 C774 1.391 . S
C773 C772 1.386 . S
C773 C777 1.393 . S
C774 H766 0.950 . S
C774 C772 1.391 . S
C774 C775 1.400 . S
C775 C774 1.400 . S
C775 C776 1.398 . S
C775 C781 1.491 . S
C776 H767 0.950 . S
C776 C775 1.398 . S
C776 C777 1.391 . S
C777 H765 0.950 . S
C777 C773 1.393 . S
C777 C776 1.391 . S
C778 H768 0.950 . S
C778 C779 1.386 . S
C778 C780 1.391 . S
C779 C778 1.386 . S
C779 C783 1.393 . S
C780 H769 0.950 . S
C780 C778 1.391 . S
C780 C781 1.400 . S
C781 C775 1.491 . S
C781 C780 1.400 . S
C781 C782 1.398 . S
C782 H770 0.950 . S
C782 C781 1.398 . S
C782 C783 1.391 . S
C783 H771 0.950 . S
C783 C779 1.393 . S
C783 C782 1.391 . S
H784 C792 0.950 . S
H785 C797 0.950 . S
H786 C794 0.950 . S
H787 C796 0.950 . S
H788 C798 0.950 . S
H789 C800 0.950 . S
H790 C802 0.950 . S
H791 C803 0.950 . S
C792 H784 0.950 . S
C792 C793 1.386 . S
C792 C794 1.391 . S
C793 C792 1.386 . S
C793 C797 1.393 . S
C794 H786 0.950 . S
C794 C792 1.391 . S
C794 C795 1.400 . S
C795 C794 1.400 . S
C795 C796 1.398 . S
C795 C801 1.491 . S
C796 H787 0.950 . S
C796 C795 1.398 . S
C796 C797 1.391 . S
C797 H785 0.950 . S
C797 C793 1.393 . S
C797 C796 1.391 . S
C798 H788 0.950 . S
C798 C799 1.386 . S
C798 C800 1.391 . S
C799 C798 1.386 . S
C799 C803 1.393 . S
C800 H789 0.950 . S
C800 C798 1.391 . S
C800 C801 1.400 . S
C801 C795 1.491 . S
C801 C800 1.400 . S
C801 C802 1.398 . S
C802 H790 0.950 . S
C802 C801 1.398 . S
C802 C803 1.391 . S
C803 H791 0.950 . S
C803 C799 1.393 . S
C803 C802 1.391 . S
H804 C812 0.950 . S
H805 C817 0.950 . S
H806 C814 0.950 . S
H807 C816 0.950 . S
H808 C818 0.950 . S
H809 C820 0.950 . S
H810 C822 0.950 . S
H811 C823 0.950 . S
C812 H804 0.950 . S
C812 C813 1.386 . S
C812 C814 1.391 . S
C813 C812 1.386 . S
C813 C817 1.393 . S
C814 H806 0.950 . S
C814 C812 1.391 . S
C814 C815 1.400 . S
C815 C814 1.400 . S
C815 C816 1.398 . S
C815 C821 1.491 . S
C816 H807 0.950 . S
C816 C815 1.398 . S
C816 C817 1.391 . S
C817 H805 0.950 . S
C817 C813 1.393 . S
C817 C816 1.391 . S
C818 H808 0.950 . S
C818 C819 1.386 . S
C818 C820 1.391 . S
C819 C818 1.386 . S
C819 C823 1.393 . S
C820 H809 0.950 . S
C820 C818 1.391 . S
C820 C821 1.400 . S
C821 C815 1.491 . S
C821 C820 1.400 . S
C821 C822 1.398 . S
C822 H810 0.950 . S
C822 C821 1.398 . S
C822 C823 1.391 . S
C823 H811 0.950 . S
C823 C819 1.393 . S
C823 C822 1.391 . S
H824 C832 0.950 . S
H825 C837 0.950 . S
H826 C834 0.950 . S
H827 C836 0.950 . S
H828 C838 0.950 . S
H829 C840 0.950 . S
H830 C842 0.950 . S
H831 C843 0.950 . S
C832 H824 0.950 . S
C832 C833 1.386 . S
C832 C834 1.391 . S
C833 C832 1.386 . S
C833 C837 1.393 . S
C834 H826 0.950 . S
C834 C832 1.391 . S
C834 C835 1.400 . S
C835 C834 1.400 . S
C835 C836 1.398 . S
C835 C841 1.491 . S
C836 H827 0.950 . S
C836 C835 1.398 . S
C836 C837 1.391 . S
C837 H825 0.950 . S
C837 C833 1.393 . S
C837 C836 1.391 . S
C838 H828 0.950 . S
C838 C839 1.386 . S
C838 C840 1.391 . S
C839 C838 1.386 . S
C839 C843 1.393 . S
C840 H829 0.950 . S
C840 C838 1.391 . S
C840 C841 1.400 . S
C841 C835 1.491 . S
C841 C840 1.400 . S
C841 C842 1.398 . S
C842 H830 0.950 . S
C842 C841 1.398 . S
C842 C843 1.391 . S
C843 H831 0.950 . S
C843 C839 1.393 . S
C843 C842 1.391 . S
H844 C852 0.950 . S
H845 C857 0.950 . S
H846 C854 0.950 . S
H847 C856 0.950 . S
H848 C858 0.950 . S
H849 C860 0.950 . S
H850 C862 0.950 . S
H851 C863 0.950 . S
C852 H844 0.950 . S
C852 C853 1.386 . S
C852 C854 1.391 . S
C853 C852 1.386 . S
C853 C857 1.393 . S
C854 H846 0.950 . S
C854 C852 1.391 . S
C854 C855 1.400 . S
C855 C854 1.400 . S
C855 C856 1.398 . S
C855 C861 1.491 . S
C856 H847 0.950 . S
C856 C855 1.398 . S
C856 C857 1.391 . S
C857 H845 0.950 . S
C857 C853 1.393 . S
C857 C856 1.391 . S
C858 H848 0.950 . S
C858 C859 1.386 . S
C858 C860 1.391 . S
C859 C858 1.386 . S
C859 C863 1.393 . S
C860 H849 0.950 . S
C860 C858 1.391 . S
C860 C861 1.400 . S
C861 C855 1.491 . S
C861 C860 1.400 . S
C861 C862 1.398 . S
C862 H850 0.950 . S
C862 C861 1.398 . S
C862 C863 1.391 . S
C863 H851 0.950 . S
C863 C859 1.393 . S
C863 C862 1.391 . S
H864 C872 0.950 . S
H865 C877 0.950 . S
H866 C874 0.950 . S
H867 C876 0.950 . S
H868 C878 0.950 . S
H869 C880 0.950 . S
H870 C882 0.950 . S
H871 C883 0.950 . S
C872 H864 0.950 . S
C872 C873 1.386 . S
C872 C874 1.391 . S
C873 C872 1.386 . S
C873 C877 1.393 . S
C874 H866 0.950 . S
C874 C872 1.391 . S
C874 C875 1.400 . S
C875 C874 1.400 . S
C875 C876 1.398 . S
C875 C881 1.491 . S
C876 H867 0.950 . S
C876 C875 1.398 . S
C876 C877 1.391 . S
C877 H865 0.950 . S
C877 C873 1.393 . S
C877 C876 1.391 . S
C878 H868 0.950 . S
C878 C879 1.386 . S
C878 C880 1.391 . S
C879 C878 1.386 . S
C879 C883 1.393 . S
C880 H869 0.950 . S
C880 C878 1.391 . S
C880 C881 1.400 . S
C881 C875 1.491 . S
C881 C880 1.400 . S
C881 C882 1.398 . S
C882 H870 0.950 . S
C882 C881 1.398 . S
C882 C883 1.391 . S
C883 H871 0.950 . S
C883 C879 1.393 . S
C883 C882 1.391 . S
H884 C892 0.950 . S
H885 C897 0.950 . S
H886 C894 0.950 . S
H887 C896 0.950 . S
H888 C898 0.950 . S
H889 C900 0.950 . S
H890 C902 0.950 . S
H891 C903 0.950 . S
C892 H884 0.950 . S
C892 C893 1.386 . S
C892 C894 1.391 . S
C893 C892 1.386 . S
C893 C897 1.393 . S
C894 H886 0.950 . S
C894 C892 1.391 . S
C894 C895 1.400 . S
C895 C894 1.400 . S
C895 C896 1.398 . S
C895 C901 1.491 . S
C896 H887 0.950 . S
C896 C895 1.398 . S
C896 C897 1.391 . S
C897 H885 0.950 . S
C897 C893 1.393 . S
C897 C896 1.391 . S
C898 H888 0.950 . S
C898 C899 1.386 . S
C898 C900 1.391 . S
C899 C898 1.386 . S
C899 C903 1.393 . S
C900 H889 0.950 . S
C900 C898 1.391 . S
C900 C901 1.400 . S
C901 C895 1.491 . S
C901 C900 1.400 . S
C901 C902 1.398 . S
C902 H890 0.950 . S
C902 C901 1.398 . S
C902 C903 1.391 . S
C903 H891 0.950 . S
C903 C899 1.393 . S
C903 C902 1.391 . S
H904 C912 0.950 . S
H905 C917 0.950 . S
H906 C914 0.950 . S
H907 C916 0.950 . S
H908 C918 0.950 . S
H909 C920 0.950 . S
H910 C922 0.950 . S
H911 C923 0.950 . S
C912 H904 0.950 . S
C912 C913 1.386 . S
C912 C914 1.391 . S
C913 C912 1.386 . S
C913 C917 1.393 . S
C914 H906 0.950 . S
C914 C912 1.391 . S
C914 C915 1.400 . S
C915 C914 1.400 . S
C915 C916 1.398 . S
C915 C921 1.491 . S
C916 H907 0.950 . S
C916 C915 1.398 . S
C916 C917 1.391 . S
C917 H905 0.950 . S
C917 C913 1.393 . S
C917 C916 1.391 . S
C918 H908 0.950 . S
C918 C919 1.386 . S
C918 C920 1.391 . S
C919 C918 1.386 . S
C919 C923 1.393 . S
C920 H909 0.950 . S
C920 C918 1.391 . S
C920 C921 1.400 . S
C921 C915 1.491 . S
C921 C920 1.400 . S
C921 C922 1.398 . S
C922 H910 0.950 . S
C922 C921 1.398 . S
C922 C923 1.391 . S
C923 H911 0.950 . S
C923 C919 1.393 . S
C923 C922 1.391 . S
H924 C932 0.950 . S
H925 C937 0.950 . S
H926 C934 0.950 . S
H927 C936 0.950 . S
H928 C938 0.950 1_556 S
H929 C940 0.950 . S
H930 C942 0.950 . S
H931 C943 0.950 . S
C932 H924 0.950 . S
C932 C933 1.386 . S
C932 C934 1.391 . S
C933 C932 1.386 . S
C933 C937 1.393 . S
C934 H926 0.950 . S
C934 C932 1.391 . S
C934 C935 1.400 . S
C935 C934 1.400 . S
C935 C936 1.398 . S
C935 C941 1.491 . S
C936 H927 0.950 . S
C936 C935 1.398 . S
C936 C937 1.391 . S
C937 H925 0.950 . S
C937 C933 1.393 . S
C937 C936 1.391 . S
C938 H928 0.950 1_554 S
C938 C939 1.386 . S
C938 C940 1.391 . S
C939 C938 1.386 . S
C939 C943 1.393 . S
C940 H929 0.950 . S
C940 C938 1.391 . S
C940 C941 1.400 . S
C941 C935 1.491 . S
C941 C940 1.400 . S
C941 C942 1.398 . S
C942 H930 0.950 . S
C942 C941 1.398 . S
C942 C943 1.391 . S
C943 H931 0.950 . S
C943 C939 1.393 . S
C943 C942 1.391 . S
H944 C952 0.950 . S
H945 C957 0.950 . S
H946 C954 0.950 . S
H947 C956 0.950 . S
H948 C958 0.950 . S
H949 C960 0.950 . S
H950 C962 0.950 . S
H951 C963 0.950 1_556 S
C952 H944 0.950 . S
C952 C953 1.386 . S
C952 C954 1.391 . S
C953 C952 1.386 . S
C953 C957 1.393 . S
C954 H946 0.950 . S
C954 C952 1.391 . S
C954 C955 1.400 . S
C955 C954 1.400 . S
C955 C956 1.398 . S
C955 C961 1.491 . S
C956 H947 0.950 . S
C956 C955 1.398 . S
C956 C957 1.391 . S
C957 H945 0.950 . S
C957 C953 1.393 . S
C957 C956 1.391 . S
C958 H948 0.950 . S
C958 C959 1.386 . S
C958 C960 1.391 . S
C959 C958 1.386 . S
C959 C963 1.393 . S
C960 H949 0.950 . S
C960 C958 1.391 . S
C960 C961 1.400 . S
C961 C955 1.491 . S
C961 C960 1.400 . S
C961 C962 1.398 . S
C962 H950 0.950 . S
C962 C961 1.398 . S
C962 C963 1.391 . S
C963 H951 0.950 1_554 S
C963 C959 1.393 . S
C963 C962 1.391 . S
H964 C972 0.950 . S
H965 C977 0.950 . S
H966 C974 0.950 . S
H967 C976 0.950 . S
H968 C978 0.950 1_556 S
H969 C980 0.950 . S
H970 C982 0.950 . S
H971 C983 0.950 . S
C972 H964 0.950 . S
C972 C973 1.386 . S
C972 C974 1.391 . S
C973 C972 1.386 . S
C973 C977 1.393 . S
C974 H966 0.950 . S
C974 C972 1.391 . S
C974 C975 1.400 . S
C975 C974 1.400 . S
C975 C976 1.398 . S
C975 C981 1.491 . S
C976 H967 0.950 . S
C976 C975 1.398 . S
C976 C977 1.391 . S
C977 H965 0.950 . S
C977 C973 1.393 . S
C977 C976 1.391 . S
C978 H968 0.950 1_554 S
C978 C979 1.386 . S
C978 C980 1.391 . S
C979 C978 1.386 . S
C979 C983 1.393 . S
C980 H969 0.950 . S
C980 C978 1.391 . S
C980 C981 1.400 . S
C981 C975 1.491 . S
C981 C980 1.400 . S
C981 C982 1.398 . S
C982 H970 0.950 . S
C982 C981 1.398 . S
C982 C983 1.391 . S
C983 H971 0.950 . S
C983 C979 1.393 . S
C983 C982 1.391 . S
H984 C992 0.950 . S
H985 C997 0.950 . S
H986 C994 0.950 . S
H987 C996 0.950 . S
H988 C998 0.950 . S
H989 C1000 0.950 . S
H990 C1002 0.950 . S
H991 C1003 0.950 . S
C992 H984 0.950 . S
C992 C993 1.386 . S
C992 C994 1.391 . S
C993 C992 1.386 . S
C993 C997 1.393 . S
C994 H986 0.950 . S
C994 C992 1.391 . S
C994 C995 1.400 . S
C995 C994 1.400 . S
C995 C996 1.398 . S
C995 C1001 1.491 . S
C996 H987 0.950 . S
C996 C995 1.398 . S
C996 C997 1.391 . S
C997 H985 0.950 . S
C997 C993 1.393 . S
C997 C996 1.391 . S
C998 H988 0.950 . S
C998 C999 1.386 . S
C998 C1000 1.391 . S
C999 C998 1.386 . S
C999 C1003 1.393 . S
C1000 H989 0.950 . S
C1000 C998 1.391 . S
C1000 C1001 1.400 . S
C1001 C995 1.491 . S
C1001 C1000 1.400 . S
C1001 C1002 1.398 . S
C1002 H990 0.950 . S
C1002 C1001 1.398 . S
C1002 C1003 1.391 . S
C1003 H991 0.950 . S
C1003 C999 1.393 . S
C1003 C1002 1.391 . S
H1004 C1012 0.950 . S
H1005 C1017 0.950 . S
H1006 C1014 0.950 . S
H1007 C1016 0.950 . S
H1008 C1018 0.950 . S
H1009 C1020 0.950 . S
H1010 C1022 0.950 . S
H1011 C1023 0.950 . S
C1012 H1004 0.950 . S
C1012 C1013 1.386 . S
C1012 C1014 1.391 . S
C1013 C1012 1.386 . S
C1013 C1017 1.393 . S
C1014 H1006 0.950 . S
C1014 C1012 1.391 . S
C1014 C1015 1.400 . S
C1015 C1014 1.400 . S
C1015 C1016 1.398 . S
C1015 C1021 1.491 . S
C1016 H1007 0.950 . S
C1016 C1015 1.398 . S
C1016 C1017 1.391 . S
C1017 H1005 0.950 . S
C1017 C1013 1.393 . S
C1017 C1016 1.391 . S
C1018 H1008 0.950 . S
C1018 C1019 1.386 . S
C1018 C1020 1.391 . S
C1019 C1018 1.386 . S
C1019 C1023 1.393 . S
C1020 H1009 0.950 . S
C1020 C1018 1.391 . S
C1020 C1021 1.400 . S
C1021 C1015 1.491 . S
C1021 C1020 1.400 . S
C1021 C1022 1.398 . S
C1022 H1010 0.950 . S
C1022 C1021 1.398 . S
C1022 C1023 1.391 . S
C1023 H1011 0.950 . S
C1023 C1019 1.393 . S
C1023 C1022 1.391 . S
H1024 C1032 0.950 . S
H1025 C1037 0.950 . S
H1026 C1034 0.950 . S
H1027 C1036 0.950 . S
H1028 C1038 0.950 . S
H1029 C1040 0.950 . S
H1030 C1042 0.950 . S
H1031 C1043 0.950 . S
C1032 H1024 0.950 . S
C1032 C1033 1.386 . S
C1032 C1034 1.391 . S
C1033 C1032 1.386 . S
C1033 C1037 1.393 . S
C1034 H1026 0.950 . S
C1034 C1032 1.391 . S
C1034 C1035 1.400 . S
C1035 C1034 1.400 . S
C1035 C1036 1.398 . S
C1035 C1041 1.491 . S
C1036 H1027 0.950 . S
C1036 C1035 1.398 . S
C1036 C1037 1.391 . S
C1037 H1025 0.950 . S
C1037 C1033 1.393 . S
C1037 C1036 1.391 . S
C1038 H1028 0.950 . S
C1038 C1039 1.386 . S
C1038 C1040 1.391 . S
C1039 C1038 1.386 . S
C1039 C1043 1.393 . S
C1040 H1029 0.950 . S
C1040 C1038 1.391 . S
C1040 C1041 1.400 . S
C1041 C1035 1.491 . S
C1041 C1040 1.400 . S
C1041 C1042 1.398 . S
C1042 H1030 0.950 . S
C1042 C1041 1.398 . S
C1042 C1043 1.391 . S
C1043 H1031 0.950 . S
C1043 C1039 1.393 . S
C1043 C1042 1.391 . S
H1044 C1052 0.950 . S
H1045 C1057 0.950 . S
H1046 C1054 0.950 . S
H1047 C1056 0.950 . S
H1048 C1058 0.950 1_554 S
H1049 C1060 0.950 . S
H1050 C1062 0.950 . S
H1051 C1063 0.950 . S
C1052 H1044 0.950 . S
C1052 C1053 1.386 . S
C1052 C1054 1.391 . S
C1053 C1052 1.386 . S
C1053 C1057 1.393 . S
C1054 H1046 0.950 . S
C1054 C1052 1.391 . S
C1054 C1055 1.400 . S
C1055 C1054 1.400 . S
C1055 C1056 1.398 . S
C1055 C1061 1.491 . S
C1056 H1047 0.950 . S
C1056 C1055 1.398 . S
C1056 C1057 1.391 . S
C1057 H1045 0.950 . S
C1057 C1053 1.393 . S
C1057 C1056 1.391 . S
C1058 H1048 0.950 1_556 S
C1058 C1059 1.386 . S
C1058 C1060 1.391 . S
C1059 C1058 1.386 . S
C1059 C1063 1.393 . S
C1060 H1049 0.950 . S
C1060 C1058 1.391 . S
C1060 C1061 1.400 . S
C1061 C1055 1.491 . S
C1061 C1060 1.400 . S
C1061 C1062 1.398 . S
C1062 H1050 0.950 . S
C1062 C1061 1.398 . S
C1062 C1063 1.391 . S
C1063 H1051 0.950 . S
C1063 C1059 1.393 . S
C1063 C1062 1.391 . S
H1064 C1072 0.950 . S
H1065 C1077 0.950 . S
H1066 C1074 0.950 . S
H1067 C1076 0.950 . S
H1068 C1078 0.950 . S
H1069 C1080 0.950 . S
H1070 C1082 0.950 . S
H1071 C1083 0.950 1_554 S
C1072 H1064 0.950 . S
C1072 C1073 1.386 . S
C1072 C1074 1.391 . S
C1073 C1072 1.386 . S
C1073 C1077 1.393 . S
C1074 H1066 0.950 . S
C1074 C1072 1.391 . S
C1074 C1075 1.400 . S
C1075 C1074 1.400 . S
C1075 C1076 1.398 . S
C1075 C1081 1.491 . S
C1076 H1067 0.950 . S
C1076 C1075 1.398 . S
C1076 C1077 1.391 . S
C1077 H1065 0.950 . S
C1077 C1073 1.393 . S
C1077 C1076 1.391 . S
C1078 H1068 0.950 . S
C1078 C1079 1.386 . S
C1078 C1080 1.391 . S
C1079 C1078 1.386 . S
C1079 C1083 1.393 . S
C1080 H1069 0.950 . S
C1080 C1078 1.391 . S
C1080 C1081 1.400 . S
C1081 C1075 1.491 . S
C1081 C1080 1.400 . S
C1081 C1082 1.398 . S
C1082 H1070 0.950 . S
C1082 C1081 1.398 . S
C1082 C1083 1.391 . S
C1083 H1071 0.950 1_556 S
C1083 C1079 1.393 . S
C1083 C1082 1.391 . S
H1084 C1092 0.950 . S
H1085 C1097 0.950 . S
H1086 C1094 0.950 . S
H1087 C1096 0.950 . S
H1088 C1098 0.950 . S
H1089 C1100 0.950 . S
H1090 C1102 0.950 . S
H1091 C1103 0.950 1_554 S
C1092 H1084 0.950 . S
C1092 C1093 1.386 . S
C1092 C1094 1.391 . S
C1093 C1092 1.386 . S
C1093 C1097 1.393 . S
C1094 H1086 0.950 . S
C1094 C1092 1.391 . S
C1094 C1095 1.400 . S
C1095 C1094 1.400 . S
C1095 C1096 1.398 . S
C1095 C1101 1.491 . S
C1096 H1087 0.950 . S
C1096 C1095 1.398 . S
C1096 C1097 1.391 . S
C1097 H1085 0.950 . S
C1097 C1093 1.393 . S
C1097 C1096 1.391 . S
C1098 H1088 0.950 . S
C1098 C1099 1.386 . S
C1098 C1100 1.391 . S
C1099 C1098 1.386 . S
C1099 C1103 1.393 . S
C1100 H1089 0.950 . S
C1100 C1098 1.391 . S
C1100 C1101 1.400 . S
C1101 C1095 1.491 . S
C1101 C1100 1.400 . S
C1101 C1102 1.398 . S
C1102 H1090 0.950 . S
C1102 C1101 1.398 . S
C1102 C1103 1.391 . S
C1103 H1091 0.950 1_556 S
C1103 C1099 1.393 . S
C1103 C1102 1.391 . S
H1104 C1112 0.950 . S
H1105 C1117 0.950 . S
H1106 C1114 0.950 . S
H1107 C1116 0.950 . S
H1108 C1118 0.950 . S
H1109 C1120 0.950 . S
H1110 C1122 0.950 . S
H1111 C1123 0.950 . S
C1112 H1104 0.950 . S
C1112 C1113 1.386 . S
C1112 C1114 1.391 . S
C1113 C1112 1.386 . S
C1113 C1117 1.393 . S
C1114 H1106 0.950 . S
C1114 C1112 1.391 . S
C1114 C1115 1.400 . S
C1115 C1114 1.400 . S
C1115 C1116 1.398 . S
C1115 C1121 1.491 . S
C1116 H1107 0.950 . S
C1116 C1115 1.398 . S
C1116 C1117 1.391 . S
C1117 H1105 0.950 . S
C1117 C1113 1.393 . S
C1117 C1116 1.391 . S
C1118 H1108 0.950 . S
C1118 C1119 1.386 . S
C1118 C1120 1.391 . S
C1119 C1118 1.386 . S
C1119 C1123 1.393 . S
C1120 H1109 0.950 . S
C1120 C1118 1.391 . S
C1120 C1121 1.400 . S
C1121 C1115 1.491 . S
C1121 C1120 1.400 . S
C1121 C1122 1.398 . S
C1122 H1110 0.950 . S
C1122 C1121 1.398 . S
C1122 C1123 1.391 . S
C1123 H1111 0.950 . S
C1123 C1119 1.393 . S
C1123 C1122 1.391 . S
H1124 C1132 0.950 . S
H1125 C1137 0.950 . S
H1126 C1134 0.950 . S
H1127 C1136 0.950 . S
H1128 C1138 0.950 . S
H1129 C1140 0.950 . S
H1130 C1142 0.950 . S
H1131 C1143 0.950 . S
C1132 H1124 0.950 . S
C1132 C1133 1.386 . S
C1132 C1134 1.391 . S
C1133 C1132 1.386 . S
C1133 C1137 1.393 . S
C1134 H1126 0.950 . S
C1134 C1132 1.391 . S
C1134 C1135 1.400 . S
C1135 C1134 1.400 . S
C1135 C1136 1.398 . S
C1135 C1141 1.491 . S
C1136 H1127 0.950 . S
C1136 C1135 1.398 . S
C1136 C1137 1.391 . S
C1137 H1125 0.950 . S
C1137 C1133 1.393 . S
C1137 C1136 1.391 . S
C1138 H1128 0.950 . S
C1138 C1139 1.386 . S
C1138 C1140 1.391 . S
C1139 C1138 1.386 . S
C1139 C1143 1.393 . S
C1140 H1129 0.950 . S
C1140 C1138 1.391 . S
C1140 C1141 1.400 . S
C1141 C1135 1.491 . S
C1141 C1140 1.400 . S
C1141 C1142 1.398 . S
C1142 H1130 0.950 . S
C1142 C1141 1.398 . S
C1142 C1143 1.391 . S
C1143 H1131 0.950 . S
C1143 C1139 1.393 . S
C1143 C1142 1.391 . S
H1144 C1152 0.950 . S
H1145 C1157 0.950 . S
H1146 C1154 0.950 . S
H1147 C1156 0.950 . S
H1148 C1158 0.950 . S
H1149 C1160 0.950 . S
H1150 C1162 0.950 . S
H1151 C1163 0.950 . S
C1152 H1144 0.950 . S
C1152 C1153 1.386 . S
C1152 C1154 1.391 . S
C1153 C1152 1.386 . S
C1153 C1157 1.393 . S
C1154 H1146 0.950 . S
C1154 C1152 1.391 . S
C1154 C1155 1.400 . S
C1155 C1154 1.400 . S
C1155 C1156 1.398 . S
C1155 C1161 1.491 . S
C1156 H1147 0.950 . S
C1156 C1155 1.398 . S
C1156 C1157 1.391 . S
C1157 H1145 0.950 . S
C1157 C1153 1.393 . S
C1157 C1156 1.391 . S
C1158 H1148 0.950 . S
C1158 C1159 1.386 . S
C1158 C1160 1.391 . S
C1159 C1158 1.386 . S
C1159 C1163 1.393 . S
C1160 H1149 0.950 . S
C1160 C1158 1.391 . S
C1160 C1161 1.400 . S
C1161 C1155 1.491 . S
C1161 C1160 1.400 . S
C1161 C1162 1.398 . S
C1162 H1150 0.950 . S
C1162 C1161 1.398 . S
C1162 C1163 1.391 . S
C1163 H1151 0.950 . S
C1163 C1159 1.393 . S
C1163 C1162 1.391 . S
H1164 C1172 0.950 . S
H1165 C1177 0.950 . S
H1166 C1174 0.950 . S
H1167 C1176 0.950 . S
H1168 C1178 0.950 . S
H1169 C1180 0.950 . S
H1170 C1182 0.950 . S
H1171 C1183 0.950 . S
C1172 H1164 0.950 . S
C1172 C1173 1.386 . S
C1172 C1174 1.391 . S
C1173 C1172 1.386 . S
C1173 C1177 1.393 . S
C1174 H1166 0.950 . S
C1174 C1172 1.391 . S
C1174 C1175 1.400 . S
C1175 C1174 1.400 . S
C1175 C1176 1.398 . S
C1175 C1181 1.491 . S
C1176 H1167 0.950 . S
C1176 C1175 1.398 . S
C1176 C1177 1.391 . S
C1177 H1165 0.950 . S
C1177 C1173 1.393 . S
C1177 C1176 1.391 . S
C1178 H1168 0.950 . S
C1178 C1179 1.386 . S
C1178 C1180 1.391 . S
C1179 C1178 1.386 . S
C1179 C1183 1.393 . S
C1180 H1169 0.950 . S
C1180 C1178 1.391 . S
C1180 C1181 1.400 . S
C1181 C1175 1.491 . S
C1181 C1180 1.400 . S
C1181 C1182 1.398 . S
C1182 H1170 0.950 . S
C1182 C1181 1.398 . S
C1182 C1183 1.391 . S
C1183 H1171 0.950 . S
C1183 C1179 1.393 . S
C1183 C1182 1.391 . S
H1184 C1192 0.950 . S
H1185 C1197 0.950 . S
H1186 C1194 0.950 . S
H1187 C1196 0.950 . S
H1188 C1198 0.950 . S
H1189 C1200 0.950 . S
H1190 C1202 0.950 . S
H1191 C1203 0.950 . S
C1192 H1184 0.950 . S
C1192 C1193 1.386 . S
C1192 C1194 1.391 . S
C1193 C1192 1.386 . S
C1193 C1197 1.393 . S
C1194 H1186 0.950 . S
C1194 C1192 1.391 . S
C1194 C1195 1.400 . S
C1195 C1194 1.400 . S
C1195 C1196 1.398 . S
C1195 C1201 1.491 . S
C1196 H1187 0.950 . S
C1196 C1195 1.398 . S
C1196 C1197 1.391 . S
C1197 H1185 0.950 . S
C1197 C1193 1.393 . S
C1197 C1196 1.391 . S
C1198 H1188 0.950 . S
C1198 C1199 1.386 . S
C1198 C1200 1.391 . S
C1199 C1198 1.386 . S
C1199 C1203 1.393 . S
C1200 H1189 0.950 . S
C1200 C1198 1.391 . S
C1200 C1201 1.400 . S
C1201 C1195 1.491 . S
C1201 C1200 1.400 . S
C1201 C1202 1.398 . S
C1202 H1190 0.950 . S
C1202 C1201 1.398 . S
C1202 C1203 1.391 . S
C1203 H1191 0.950 . S
C1203 C1199 1.393 . S
C1203 C1202 1.391 . S
H1204 C1212 0.950 . S
H1205 C1217 0.950 . S
H1206 C1214 0.950 . S
H1207 C1216 0.950 . S
H1208 C1218 0.950 . S
H1209 C1220 0.950 . S
H1210 C1222 0.950 . S
H1211 C1223 0.950 . S
C1212 H1204 0.950 . S
C1212 C1213 1.386 . S
C1212 C1214 1.391 . S
C1213 C1212 1.386 . S
C1213 C1217 1.393 . S
C1214 H1206 0.950 . S
C1214 C1212 1.391 . S
C1214 C1215 1.400 . S
C1215 C1214 1.400 . S
C1215 C1216 1.398 . S
C1215 C1221 1.491 . S
C1216 H1207 0.950 . S
C1216 C1215 1.398 . S
C1216 C1217 1.391 . S
C1217 H1205 0.950 . S
C1217 C1213 1.393 . S
C1217 C1216 1.391 . S
C1218 H1208 0.950 . S
C1218 C1219 1.386 . S
C1218 C1220 1.391 . S
C1219 C1218 1.386 . S
C1219 C1223 1.393 . S
C1220 H1209 0.950 . S
C1220 C1218 1.391 . S
C1220 C1221 1.400 . S
C1221 C1215 1.491 . S
C1221 C1220 1.400 . S
C1221 C1222 1.398 . S
C1222 H1210 0.950 . S
C1222 C1221 1.398 . S
C1222 C1223 1.391 . S
C1223 H1211 0.950 . S
C1223 C1219 1.393 . S
C1223 C1222 1.391 . S
H1224 C1232 0.950 . S
H1225 C1237 0.950 . S
H1226 C1234 0.950 . S
H1227 C1236 0.950 . S
H1228 C1238 0.950 . S
H1229 C1240 0.950 . S
H1230 C1242 0.950 . S
H1231 C1243 0.950 . S
C1232 H1224 0.950 . S
C1232 C1233 1.386 . S
C1232 C1234 1.391 . S
C1233 C1232 1.386 . S
C1233 C1237 1.393 . S
C1234 H1226 0.950 . S
C1234 C1232 1.391 . S
C1234 C1235 1.400 . S
C1235 C1234 1.400 . S
C1235 C1236 1.398 . S
C1235 C1241 1.491 . S
C1236 H1227 0.950 . S
C1236 C1235 1.398 . S
C1236 C1237 1.391 . S
C1237 H1225 0.950 . S
C1237 C1233 1.393 . S
C1237 C1236 1.391 . S
C1238 H1228 0.950 . S
C1238 C1239 1.386 . S
C1238 C1240 1.391 . S
C1239 C1238 1.386 . S
C1239 C1243 1.393 . S
C1240 H1229 0.950 . S
C1240 C1238 1.391 . S
C1240 C1241 1.400 . S
C1241 C1235 1.491 . S
C1241 C1240 1.400 . S
C1241 C1242 1.398 . S
C1242 H1230 0.950 . S
C1242 C1241 1.398 . S
C1242 C1243 1.391 . S
C1243 H1231 0.950 . S
C1243 C1239 1.393 . S
C1243 C1242 1.391 . S
H1244 C1252 0.950 . S
H1245 C1257 0.950 . S
H1246 C1254 0.950 . S
H1247 C1256 0.950 . S
H1248 C1258 0.950 . S
H1249 C1260 0.950 . S
H1250 C1262 0.950 . S
H1251 C1263 0.950 . S
C1252 H1244 0.950 . S
C1252 C1253 1.386 1_455 S
C1252 C1254 1.391 . S
C1253 C1252 1.386 1_655 S
C1253 C1257 1.393 . S
C1254 H1246 0.950 . S
C1254 C1252 1.391 . S
C1254 C1255 1.400 1_455 S
C1255 C1254 1.400 1_655 S
C1255 C1256 1.398 . S
C1255 C1261 1.491 . S
C1256 H1247 0.950 . S
C1256 C1255 1.398 . S
C1256 C1257 1.391 . S
C1257 H1245 0.950 . S
C1257 C1253 1.393 . S
C1257 C1256 1.391 . S
C1258 H1248 0.950 . S
C1258 C1259 1.386 . S
C1258 C1260 1.391 . S
C1259 C1258 1.386 . S
C1259 C1263 1.393 1_655 S
C1260 H1249 0.950 . S
C1260 C1258 1.391 . S
C1260 C1261 1.400 . S
C1261 C1255 1.491 . S
C1261 C1260 1.400 . S
C1261 C1262 1.398 1_655 S
C1262 H1250 0.950 . S
C1262 C1261 1.398 1_455 S
C1262 C1263 1.391 . S
C1263 H1251 0.950 . S
C1263 C1259 1.393 1_455 S
C1263 C1262 1.391 . S
H1264 C1272 0.950 . S
H1265 C1277 0.950 . S
H1266 C1274 0.950 . S
H1267 C1276 0.950 . S
H1268 C1278 0.950 . S
H1269 C1280 0.950 . S
H1270 C1282 0.950 . S
H1271 C1283 0.950 . S
C1272 H1264 0.950 . S
C1272 C1273 1.386 . S
C1272 C1274 1.391 . S
C1273 C1272 1.386 . S
C1273 C1277 1.393 . S
C1274 H1266 0.950 . S
C1274 C1272 1.391 . S
C1274 C1275 1.400 . S
C1275 C1274 1.400 . S
C1275 C1276 1.398 . S
C1275 C1281 1.491 . S
C1276 H1267 0.950 . S
C1276 C1275 1.398 . S
C1276 C1277 1.391 . S
C1277 H1265 0.950 . S
C1277 C1273 1.393 . S
C1277 C1276 1.391 . S
C1278 H1268 0.950 . S
C1278 C1279 1.386 . S
C1278 C1280 1.391 . S
C1279 C1278 1.386 . S
C1279 C1283 1.393 . S
C1280 H1269 0.950 . S
C1280 C1278 1.391 . S
C1280 C1281 1.400 . S
C1281 C1275 1.491 . S
C1281 C1280 1.400 . S
C1281 C1282 1.398 . S
C1282 H1270 0.950 . S
C1282 C1281 1.398 . S
C1282 C1283 1.391 . S
C1283 H1271 0.950 . S
C1283 C1279 1.393 . S
C1283 C1282 1.391 . S
H1284 C1292 0.950 . S
H1285 C1297 0.950 . S
H1286 C1294 0.950 . S
H1287 C1296 0.950 . S
H1288 C1298 0.950 . S
H1289 C1300 0.950 . S
H1290 C1302 0.950 . S
H1291 C1303 0.950 . S
C1292 H1284 0.950 . S
C1292 C1293 1.386 . S
C1292 C1294 1.391 . S
C1293 C1292 1.386 . S
C1293 C1297 1.393 . S
C1294 H1286 0.950 . S
C1294 C1292 1.391 . S
C1294 C1295 1.400 . S
C1295 C1294 1.400 . S
C1295 C1296 1.398 . S
C1295 C1301 1.491 . S
C1296 H1287 0.950 . S
C1296 C1295 1.398 . S
C1296 C1297 1.391 . S
C1297 H1285 0.950 . S
C1297 C1293 1.393 . S
C1297 C1296 1.391 . S
C1298 H1288 0.950 . S
C1298 C1299 1.386 . S
C1298 C1300 1.391 . S
C1299 C1298 1.386 . S
C1299 C1303 1.393 . S
C1300 H1289 0.950 . S
C1300 C1298 1.391 . S
C1300 C1301 1.400 . S
C1301 C1295 1.491 . S
C1301 C1300 1.400 . S
C1301 C1302 1.398 . S
C1302 H1290 0.950 . S
C1302 C1301 1.398 . S
C1302 C1303 1.391 . S
C1303 H1291 0.950 . S
C1303 C1299 1.393 . S
C1303 C1302 1.391 . S
H1304 C1312 0.950 . S
H1305 C1317 0.950 . S
H1306 C1314 0.950 . S
H1307 C1316 0.950 . S
H1308 C1318 0.950 . S
H1309 C1320 0.950 . S
H1310 C1322 0.950 . S
H1311 C1323 0.950 . S
C1312 H1304 0.950 . S
C1312 C1313 1.386 . S
C1312 C1314 1.391 . S
C1313 C1312 1.386 . S
C1313 C1317 1.393 . S
C1314 H1306 0.950 . S
C1314 C1312 1.391 . S
C1314 C1315 1.400 . S
C1315 C1314 1.400 . S
C1315 C1316 1.398 . S
C1315 C1321 1.491 . S
C1316 H1307 0.950 . S
C1316 C1315 1.398 . S
C1316 C1317 1.391 . S
C1317 H1305 0.950 . S
C1317 C1313 1.393 . S
C1317 C1316 1.391 . S
C1318 H1308 0.950 . S
C1318 C1319 1.386 . S
C1318 C1320 1.391 . S
C1319 C1318 1.386 . S
C1319 C1323 1.393 . S
C1320 H1309 0.950 . S
C1320 C1318 1.391 . S
C1320 C1321 1.400 . S
C1321 C1315 1.491 . S
C1321 C1320 1.400 . S
C1321 C1322 1.398 . S
C1322 H1310 0.950 . S
C1322 C1321 1.398 . S
C1322 C1323 1.391 . S
C1323 H1311 0.950 . S
C1323 C1319 1.393 . S
C1323 C1322 1.391 . S
H1324 C1332 0.950 . S
H1325 C1337 0.950 . S
H1326 C1334 0.950 . S
H1327 C1336 0.950 . S
H1328 C1338 0.950 1_545 S
H1329 C1340 0.950 1_545 S
H1330 C1342 0.950 . S
H1331 C1343 0.950 . S
C1332 H1324 0.950 . S
C1332 C1333 1.386 . S
C1332 C1334 1.391 . S
C1333 C1332 1.386 . S
C1333 C1337 1.393 . S
C1334 H1326 0.950 . S
C1334 C1332 1.391 . S
C1334 C1335 1.400 . S
C1335 C1334 1.400 . S
C1335 C1336 1.398 . S
C1335 C1341 1.491 . S
C1336 H1327 0.950 . S
C1336 C1335 1.398 . S
C1336 C1337 1.391 . S
C1337 H1325 0.950 . S
C1337 C1333 1.393 . S
C1337 C1336 1.391 . S
C1338 H1328 0.950 1_565 S
C1338 C1339 1.386 . S
C1338 C1340 1.391 . S
C1339 C1338 1.386 . S
C1339 C1343 1.393 . S
C1340 H1329 0.950 1_565 S
C1340 C1338 1.391 . S
C1340 C1341 1.400 . S
C1341 C1335 1.491 . S
C1341 C1340 1.400 . S
C1341 C1342 1.398 . S
C1342 H1330 0.950 . S
C1342 C1341 1.398 . S
C1342 C1343 1.391 . S
C1343 H1331 0.950 . S
C1343 C1339 1.393 . S
C1343 C1342 1.391 . S
H1344 C1352 0.950 . S
H1345 C1357 0.950 . S
H1346 C1354 0.950 . S
H1347 C1356 0.950 . S
H1348 C1358 0.950 . S
H1349 C1360 0.950 . S
H1350 C1362 0.950 . S
H1351 C1363 0.950 . S
C1352 H1344 0.950 . S
C1352 C1353 1.386 1_545 S
C1352 C1354 1.391 . S
C1353 C1352 1.386 1_565 S
C1353 C1357 1.393 . S
C1354 H1346 0.950 . S
C1354 C1352 1.391 . S
C1354 C1355 1.400 1_545 S
C1355 C1354 1.400 1_565 S
C1355 C1356 1.398 . S
C1355 C1361 1.491 . S
C1356 H1347 0.950 . S
C1356 C1355 1.398 . S
C1356 C1357 1.391 . S
C1357 H1345 0.950 . S
C1357 C1353 1.393 . S
C1357 C1356 1.391 . S
C1358 H1348 0.950 . S
C1358 C1359 1.386 . S
C1358 C1360 1.391 . S
C1359 C1358 1.386 . S
C1359 C1363 1.393 1_565 S
C1360 H1349 0.950 . S
C1360 C1358 1.391 . S
C1360 C1361 1.400 . S
C1361 C1355 1.491 . S
C1361 C1360 1.400 . S
C1361 C1362 1.398 1_565 S
C1362 H1350 0.950 . S
C1362 C1361 1.398 1_545 S
C1362 C1363 1.391 . S
C1363 H1351 0.950 . S
C1363 C1359 1.393 1_545 S
C1363 C1362 1.391 . S
H1364 C1372 0.945 1_655 S
H1365 C1377 0.950 . S
H1366 C1374 0.950 1_655 S
H1367 C1376 0.950 . S
H1368 C1378 0.950 . S
H1369 C1380 0.950 . S
H1370 C1382 0.950 1_655 S
H1371 C1383 0.950 1_655 S
C1372 H1364 0.945 1_455 S
C1372 C1373 1.386 . S
C1372 C1374 1.391 . S
C1373 C1372 1.386 . S
C1373 C1377 1.393 . S
C1374 H1366 0.950 1_455 S
C1374 C1372 1.391 . S
C1374 C1375 1.400 . S
C1375 C1374 1.400 . S
C1375 C1376 1.398 . S
C1375 C1381 1.491 . S
C1376 H1367 0.950 . S
C1376 C1375 1.398 . S
C1376 C1377 1.391 . S
C1377 H1365 0.950 . S
C1377 C1373 1.393 . S
C1377 C1376 1.391 . S
C1378 H1368 0.950 . S
C1378 C1379 1.386 . S
C1378 C1380 1.391 . S
C1379 C1378 1.386 . S
C1379 C1383 1.393 . S
C1380 H1369 0.950 . S
C1380 C1378 1.391 . S
C1380 C1381 1.400 . S
C1381 C1375 1.491 . S
C1381 C1380 1.400 . S
C1381 C1382 1.398 . S
C1382 H1370 0.950 1_455 S
C1382 C1381 1.398 . S
C1382 C1383 1.391 . S
C1383 H1371 0.950 1_455 S
C1383 C1379 1.393 . S
C1383 C1382 1.391 . S
H1384 C1392 0.950 . S
H1385 C1397 0.950 . S
H1386 C1394 0.950 . S
H1387 C1396 0.950 . S
H1388 C1398 0.950 . S
H1389 C1400 0.950 . S
H1390 C1402 0.950 . S
H1391 C1403 0.950 . S
C1392 H1384 0.950 . S
C1392 C1393 1.386 . S
C1392 C1394 1.391 . S
C1393 C1392 1.386 . S
C1393 C1397 1.393 . S
C1394 H1386 0.950 . S
C1394 C1392 1.391 . S
C1394 C1395 1.400 . S
C1395 C1394 1.400 . S
C1395 C1396 1.398 . S
C1395 C1401 1.491 . S
C1396 H1387 0.950 . S
C1396 C1395 1.398 . S
C1396 C1397 1.391 . S
C1397 H1385 0.950 . S
C1397 C1393 1.393 . S
C1397 C1396 1.391 . S
C1398 H1388 0.950 . S
C1398 C1399 1.386 . S
C1398 C1400 1.391 . S
C1399 C1398 1.386 . S
C1399 C1403 1.393 . S
C1400 H1389 0.950 . S
C1400 C1398 1.391 . S
C1400 C1401 1.400 . S
C1401 C1395 1.491 . S
C1401 C1400 1.400 . S
C1401 C1402 1.398 . S
C1402 H1390 0.950 . S
C1402 C1401 1.398 . S
C1402 C1403 1.391 . S
C1403 H1391 0.950 . S
C1403 C1399 1.393 . S
C1403 C1402 1.391 . S
H1404 C1412 0.950 . S
H1405 C1417 0.950 . S
H1406 C1414 0.950 . S
H1407 C1416 0.950 . S
H1408 C1418 0.950 . S
H1409 C1420 0.950 . S
H1410 C1422 0.950 . S
H1411 C1423 0.950 . S
C1412 H1404 0.950 . S
C1412 C1413 1.386 1_455 S
C1412 C1414 1.391 . S
C1413 C1412 1.386 1_655 S
C1413 C1417 1.393 . S
C1414 H1406 0.950 . S
C1414 C1412 1.391 . S
C1414 C1415 1.400 1_455 S
C1415 C1414 1.400 1_655 S
C1415 C1416 1.398 . S
C1415 C1421 1.491 . S
C1416 H1407 0.950 . S
C1416 C1415 1.398 . S
C1416 C1417 1.391 . S
C1417 H1405 0.950 . S
C1417 C1413 1.393 . S
C1417 C1416 1.391 . S
C1418 H1408 0.950 . S
C1418 C1419 1.386 1_655 S
C1418 C1420 1.391 . S
C1419 C1418 1.386 1_455 S
C1419 C1423 1.393 . S
C1420 H1409 0.950 . S
C1420 C1418 1.391 . S
C1420 C1421 1.400 . S
C1421 C1415 1.491 . S
C1421 C1420 1.400 . S
C1421 C1422 1.398 1_655 S
C1422 H1410 0.950 . S
C1422 C1421 1.398 1_455 S
C1422 C1423 1.391 . S
C1423 H1411 0.950 . S
C1423 C1419 1.393 . S
C1423 C1422 1.391 . S
H1424 C1432 0.950 . S
H1425 C1437 0.950 . S
H1426 C1434 0.950 . S
H1427 C1436 0.950 . S
H1428 C1438 0.950 . S
H1429 C1440 0.950 . S
H1430 C1442 0.950 . S
H1431 C1443 0.950 . S
C1432 H1424 0.950 . S
C1432 C1433 1.386 . S
C1432 C1434 1.391 . S
C1433 C1432 1.386 . S
C1433 C1437 1.393 . S
C1434 H1426 0.950 . S
C1434 C1432 1.391 . S
C1434 C1435 1.400 . S
C1435 C1434 1.400 . S
C1435 C1436 1.398 . S
C1435 C1441 1.491 . S
C1436 H1427 0.950 . S
C1436 C1435 1.398 . S
C1436 C1437 1.391 . S
C1437 H1425 0.950 . S
C1437 C1433 1.393 . S
C1437 C1436 1.391 . S
C1438 H1428 0.950 . S
C1438 C1439 1.386 . S
C1438 C1440 1.391 . S
C1439 C1438 1.386 . S
C1439 C1443 1.393 . S
C1440 H1429 0.950 . S
C1440 C1438 1.391 . S
C1440 C1441 1.400 . S
C1441 C1435 1.491 . S
C1441 C1440 1.400 . S
C1441 C1442 1.398 . S
C1442 H1430 0.950 . S
C1442 C1441 1.398 . S
C1442 C1443 1.391 . S
C1443 H1431 0.950 . S
C1443 C1439 1.393 . S
C1443 C1442 1.391 . S
H1444 C1452 0.950 . S
H1445 C1457 0.950 . S
H1446 C1454 0.950 . S
H1447 C1456 0.950 . S
H1448 C1458 0.950 . S
H1449 C1460 0.950 . S
H1450 C1462 0.950 . S
H1451 C1463 0.950 . S
C1452 H1444 0.950 . S
C1452 C1453 1.386 . S
C1452 C1454 1.391 . S
C1453 C1452 1.386 . S
C1453 C1457 1.393 . S
C1454 H1446 0.950 . S
C1454 C1452 1.391 . S
C1454 C1455 1.400 . S
C1455 C1454 1.400 . S
C1455 C1456 1.398 . S
C1455 C1461 1.491 . S
C1456 H1447 0.950 . S
C1456 C1455 1.398 . S
C1456 C1457 1.391 . S
C1457 H1445 0.950 . S
C1457 C1453 1.393 . S
C1457 C1456 1.391 . S
C1458 H1448 0.950 . S
C1458 C1459 1.386 . S
C1458 C1460 1.391 . S
C1459 C1458 1.386 . S
C1459 C1463 1.393 . S
C1460 H1449 0.950 . S
C1460 C1458 1.391 . S
C1460 C1461 1.400 . S
C1461 C1455 1.491 . S
C1461 C1460 1.400 . S
C1461 C1462 1.398 . S
C1462 H1450 0.950 . S
C1462 C1461 1.398 . S
C1462 C1463 1.391 . S
C1463 H1451 0.950 . S
C1463 C1459 1.393 . S
C1463 C1462 1.391 . S
H1464 C1472 0.950 . S
H1465 C1477 0.962 . S
H1466 C1474 0.950 . S
H1467 C1476 0.950 . S
H1468 C1478 0.950 . S
H1469 C1480 0.950 . S
H1470 C1482 0.950 . S
H1471 C1483 0.950 . S
C1472 H1464 0.950 . S
C1472 C1473 1.386 . S
C1472 C1474 1.391 . S
C1473 C1472 1.386 . S
C1473 C1477 1.393 . S
C1474 H1466 0.950 . S
C1474 C1472 1.391 . S
C1474 C1475 1.400 . S
C1475 C1474 1.400 . S
C1475 C1476 1.398 . S
C1475 C1481 1.491 . S
C1476 H1467 0.950 . S
C1476 C1475 1.398 . S
C1476 C1477 1.391 . S
C1477 H1465 0.962 . S
C1477 C1473 1.393 . S
C1477 C1476 1.391 . S
C1478 H1468 0.950 . S
C1478 C1479 1.386 . S
C1478 C1480 1.391 . S
C1479 C1478 1.386 . S
C1479 C1483 1.393 . S
C1480 H1469 0.950 . S
C1480 C1478 1.391 . S
C1480 C1481 1.400 . S
C1481 C1475 1.491 . S
C1481 C1480 1.400 . S
C1481 C1482 1.398 . S
C1482 H1470 0.950 . S
C1482 C1481 1.398 . S
C1482 C1483 1.391 . S
C1483 H1471 0.950 . S
C1483 C1479 1.393 . S
C1483 C1482 1.391 . S
H1484 C1492 0.950 . S
H1485 C1497 0.950 . S
H1486 C1494 0.950 . S
H1487 C1496 0.950 . S
H1488 C1498 0.950 . S
H1489 C1500 0.950 . S
H1490 C1502 0.950 . S
H1491 C1503 0.950 . S
C1492 H1484 0.950 . S
C1492 C1493 1.386 . S
C1492 C1494 1.391 . S
C1493 C1492 1.386 . S
C1493 C1497 1.393 . S
C1494 H1486 0.950 . S
C1494 C1492 1.391 . S
C1494 C1495 1.400 . S
C1495 C1494 1.400 . S
C1495 C1496 1.398 . S
C1495 C1501 1.491 . S
C1496 H1487 0.950 . S
C1496 C1495 1.398 . S
C1496 C1497 1.391 . S
C1497 H1485 0.950 . S
C1497 C1493 1.393 . S
C1497 C1496 1.391 . S
C1498 H1488 0.950 . S
C1498 C1499 1.386 . S
C1498 C1500 1.391 . S
C1499 C1498 1.386 . S
C1499 C1503 1.393 . S
C1500 H1489 0.950 . S
C1500 C1498 1.391 . S
C1500 C1501 1.400 . S
C1501 C1495 1.491 . S
C1501 C1500 1.400 . S
C1501 C1502 1.398 . S
C1502 H1490 0.950 . S
C1502 C1501 1.398 . S
C1502 C1503 1.391 . S
C1503 H1491 0.950 . S
C1503 C1499 1.393 . S
C1503 C1502 1.391 . S
H1504 C1512 0.950 . S
H1505 C1517 0.950 . S
H1506 C1514 0.950 . S
H1507 C1516 0.950 . S
H1508 C1518 0.950 . S
H1509 C1520 0.950 . S
H1510 C1522 0.950 . S
H1511 C1523 0.950 . S
C1512 H1504 0.950 . S
C1512 C1513 1.386 . S
C1512 C1514 1.391 . S
C1513 C1512 1.386 . S
C1513 C1517 1.393 . S
C1514 H1506 0.950 . S
C1514 C1512 1.391 . S
C1514 C1515 1.400 . S
C1515 C1514 1.400 . S
C1515 C1516 1.398 . S
C1515 C1521 1.491 . S
C1516 H1507 0.950 . S
C1516 C1515 1.398 . S
C1516 C1517 1.391 . S
C1517 H1505 0.950 . S
C1517 C1513 1.393 . S
C1517 C1516 1.391 . S
C1518 H1508 0.950 . S
C1518 C1519 1.386 . S
C1518 C1520 1.391 . S
C1519 C1518 1.386 . S
C1519 C1523 1.393 . S
C1520 H1509 0.950 . S
C1520 C1518 1.391 . S
C1520 C1521 1.400 . S
C1521 C1515 1.491 . S
C1521 C1520 1.400 . S
C1521 C1522 1.398 . S
C1522 H1510 0.950 . S
C1522 C1521 1.398 . S
C1522 C1523 1.391 . S
C1523 H1511 0.950 . S
C1523 C1519 1.393 . S
C1523 C1522 1.391 . S
H1524 C1532 0.950 . S
H1525 C1537 0.950 . S
H1526 C1534 0.950 . S
H1527 C1536 0.950 . S
H1528 C1538 0.950 . S
H1529 C1540 0.950 . S
H1530 C1542 0.950 . S
H1531 C1543 0.950 . S
C1532 H1524 0.950 . S
C1532 C1533 1.386 . S
C1532 C1534 1.391 . S
C1533 C1532 1.386 . S
C1533 C1537 1.393 . S
C1534 H1526 0.950 . S
C1534 C1532 1.391 . S
C1534 C1535 1.400 . S
C1535 C1534 1.400 . S
C1535 C1536 1.398 . S
C1535 C1541 1.491 . S
C1536 H1527 0.950 . S
C1536 C1535 1.398 . S
C1536 C1537 1.391 . S
C1537 H1525 0.950 . S
C1537 C1533 1.393 . S
C1537 C1536 1.391 . S
C1538 H1528 0.950 . S
C1538 C1539 1.386 . S
C1538 C1540 1.391 . S
C1539 C1538 1.386 . S
C1539 C1543 1.393 . S
C1540 H1529 0.950 . S
C1540 C1538 1.391 . S
C1540 C1541 1.400 . S
C1541 C1535 1.491 . S
C1541 C1540 1.400 . S
C1541 C1542 1.398 . S
C1542 H1530 0.950 . S
C1542 C1541 1.398 . S
C1542 C1543 1.391 . S
C1543 H1531 0.950 . S
C1543 C1539 1.393 . S
C1543 C1542 1.391 . S
H1544 C1552 0.950 . S
H1545 C1557 0.950 . S
H1546 C1554 0.950 . S
H1547 C1556 0.950 . S
H1548 C1558 0.950 . S
H1549 C1560 0.950 . S
H1550 C1562 0.950 . S
H1551 C1563 0.950 . S
C1552 H1544 0.950 . S
C1552 C1553 1.386 . S
C1552 C1554 1.391 . S
C1553 C1552 1.386 . S
C1553 C1557 1.393 . S
C1554 H1546 0.950 . S
C1554 C1552 1.391 . S
C1554 C1555 1.400 . S
C1555 C1554 1.400 . S
C1555 C1556 1.398 . S
C1555 C1561 1.491 . S
C1556 H1547 0.950 . S
C1556 C1555 1.398 . S
C1556 C1557 1.391 . S
C1557 H1545 0.950 . S
C1557 C1553 1.393 . S
C1557 C1556 1.391 . S
C1558 H1548 0.950 . S
C1558 C1559 1.386 . S
C1558 C1560 1.391 . S
C1559 C1558 1.386 . S
C1559 C1563 1.393 . S
C1560 H1549 0.950 . S
C1560 C1558 1.391 . S
C1560 C1561 1.400 . S
C1561 C1555 1.491 . S
C1561 C1560 1.400 . S
C1561 C1562 1.398 . S
C1562 H1550 0.950 . S
C1562 C1561 1.398 . S
C1562 C1563 1.391 . S
C1563 H1551 0.950 . S
C1563 C1559 1.393 . S
C1563 C1562 1.391 . S
H1564 C1572 0.950 . S
H1565 C1577 0.950 . S
H1566 C1574 0.950 . S
H1567 C1576 0.950 . S
H1568 C1578 0.950 . S
H1569 C1580 0.950 . S
H1570 C1582 0.950 . S
H1571 C1583 0.950 . S
C1572 H1564 0.950 . S
C1572 C1573 1.386 . S
C1572 C1574 1.391 . S
C1573 C1572 1.386 . S
C1573 C1577 1.393 . S
C1574 H1566 0.950 . S
C1574 C1572 1.391 . S
C1574 C1575 1.400 . S
C1575 C1574 1.400 . S
C1575 C1576 1.398 . S
C1575 C1581 1.491 . S
C1576 H1567 0.950 . S
C1576 C1575 1.398 . S
C1576 C1577 1.391 . S
C1577 H1565 0.950 . S
C1577 C1573 1.393 . S
C1577 C1576 1.391 . S
C1578 H1568 0.950 . S
C1578 C1579 1.386 . S
C1578 C1580 1.391 . S
C1579 C1578 1.386 . S
C1579 C1583 1.393 . S
C1580 H1569 0.950 . S
C1580 C1578 1.391 . S
C1580 C1581 1.400 . S
C1581 C1575 1.491 . S
C1581 C1580 1.400 . S
C1581 C1582 1.398 . S
C1582 H1570 0.950 . S
C1582 C1581 1.398 . S
C1582 C1583 1.391 . S
C1583 H1571 0.950 . S
C1583 C1579 1.393 . S
C1583 C1582 1.391 . S
H1584 C1592 0.950 . S
H1585 C1597 0.950 . S
H1586 C1594 0.950 . S
H1587 C1596 0.950 . S
H1588 C1598 0.950 . S
H1589 C1600 0.950 . S
H1590 C1602 0.950 . S
H1591 C1603 0.950 . S
C1592 H1584 0.950 . S
C1592 C1593 1.386 . S
C1592 C1594 1.391 . S
C1593 C1592 1.386 . S
C1593 C1597 1.393 . S
C1594 H1586 0.950 . S
C1594 C1592 1.391 . S
C1594 C1595 1.400 . S
C1595 C1594 1.400 . S
C1595 C1596 1.398 . S
C1595 C1601 1.491 . S
C1596 H1587 0.950 . S
C1596 C1595 1.398 . S
C1596 C1597 1.391 . S
C1597 H1585 0.950 . S
C1597 C1593 1.393 . S
C1597 C1596 1.391 . S
C1598 H1588 0.950 . S
C1598 C1599 1.386 . S
C1598 C1600 1.391 . S
C1599 C1598 1.386 . S
C1599 C1603 1.393 . S
C1600 H1589 0.950 . S
C1600 C1598 1.391 . S
C1600 C1601 1.400 . S
C1601 C1595 1.491 . S
C1601 C1600 1.400 . S
C1601 C1602 1.398 . S
C1602 H1590 0.950 . S
C1602 C1601 1.398 . S
C1602 C1603 1.391 . S
C1603 H1591 0.950 . S
C1603 C1599 1.393 . S
C1603 C1602 1.391 . S
H1604 C1612 0.950 . S
H1605 C1617 0.950 . S
H1606 C1614 0.950 . S
H1607 C1616 0.950 . S
H1608 C1618 0.950 . S
H1609 C1620 0.950 . S
H1610 C1622 0.950 . S
H1611 C1623 0.950 . S
C1612 H1604 0.950 . S
C1612 C1613 1.386 . S
C1612 C1614 1.391 . S
C1613 C1612 1.386 . S
C1613 C1617 1.393 . S
C1614 H1606 0.950 . S
C1614 C1612 1.391 . S
C1614 C1615 1.400 . S
C1615 C1614 1.400 . S
C1615 C1616 1.398 . S
C1615 C1621 1.491 . S
C1616 H1607 0.950 . S
C1616 C1615 1.398 . S
C1616 C1617 1.391 . S
C1617 H1605 0.950 . S
C1617 C1613 1.393 . S
C1617 C1616 1.391 . S
C1618 H1608 0.950 . S
C1618 C1619 1.386 . S
C1618 C1620 1.391 . S
C1619 C1618 1.386 . S
C1619 C1623 1.393 . S
C1620 H1609 0.950 . S
C1620 C1618 1.391 . S
C1620 C1621 1.400 . S
C1621 C1615 1.491 . S
C1621 C1620 1.400 . S
C1621 C1622 1.398 . S
C1622 H1610 0.950 . S
C1622 C1621 1.398 . S
C1622 C1623 1.391 . S
C1623 H1611 0.950 . S
C1623 C1619 1.393 . S
C1623 C1622 1.391 . S
H1624 C1632 0.950 . S
H1625 C1637 0.950 . S
H1626 C1634 0.950 . S
H1627 C1636 0.950 . S
H1628 C1638 0.950 . S
H1629 C1640 0.950 . S
H1630 C1642 0.950 . S
H1631 C1643 0.950 . S
C1632 H1624 0.950 . S
C1632 C1633 1.386 . S
C1632 C1634 1.391 . S
C1633 C1632 1.386 . S
C1633 C1637 1.393 . S
C1634 H1626 0.950 . S
C1634 C1632 1.391 . S
C1634 C1635 1.400 . S
C1635 C1634 1.400 . S
C1635 C1636 1.398 . S
C1635 C1641 1.491 . S
C1636 H1627 0.950 . S
C1636 C1635 1.398 . S
C1636 C1637 1.391 . S
C1637 H1625 0.950 . S
C1637 C1633 1.393 . S
C1637 C1636 1.391 . S
C1638 H1628 0.950 . S
C1638 C1639 1.386 . S
C1638 C1640 1.391 . S
C1639 C1638 1.386 . S
C1639 C1643 1.393 . S
C1640 H1629 0.950 . S
C1640 C1638 1.391 . S
C1640 C1641 1.400 . S
C1641 C1635 1.491 . S
C1641 C1640 1.400 . S
C1641 C1642 1.398 . S
C1642 H1630 0.950 . S
C1642 C1641 1.398 . S
C1642 C1643 1.391 . S
C1643 H1631 0.950 . S
C1643 C1639 1.393 . S
C1643 C1642 1.391 . S
H1644 C1652 0.950 . S
H1645 C1657 0.950 . S
H1646 C1654 0.950 . S
H1647 C1656 0.950 . S
H1648 C1658 0.950 . S
H1649 C1660 0.950 . S
H1650 C1662 0.950 . S
H1651 C1663 0.950 . S
C1652 H1644 0.950 . S
C1652 C1653 1.386 . S
C1652 C1654 1.391 . S
C1653 C1652 1.386 . S
C1653 C1657 1.393 . S
C1654 H1646 0.950 . S
C1654 C1652 1.391 . S
C1654 C1655 1.400 . S
C1655 C1654 1.400 . S
C1655 C1656 1.398 . S
C1655 C1661 1.491 . S
C1656 H1647 0.950 . S
C1656 C1655 1.398 . S
C1656 C1657 1.391 . S
C1657 H1645 0.950 . S
C1657 C1653 1.393 . S
C1657 C1656 1.391 . S
C1658 H1648 0.950 . S
C1658 C1659 1.386 . S
C1658 C1660 1.391 . S
C1659 C1658 1.386 . S
C1659 C1663 1.393 . S
C1660 H1649 0.950 . S
C1660 C1658 1.391 . S
C1660 C1661 1.400 . S
C1661 C1655 1.491 . S
C1661 C1660 1.400 . S
C1661 C1662 1.398 . S
C1662 H1650 0.950 . S
C1662 C1661 1.398 . S
C1662 C1663 1.391 . S
C1663 H1651 0.950 . S
C1663 C1659 1.393 . S
C1663 C1662 1.391 . S
H1664 C1672 0.950 . S
H1665 C1677 0.950 . S
H1666 C1674 0.950 . S
H1667 C1676 0.950 . S
H1668 C1678 0.950 . S
H1669 C1680 0.950 . S
H1670 C1682 0.950 . S
H1671 C1683 0.950 . S
C1672 H1664 0.950 . S
C1672 C1673 1.386 . S
C1672 C1674 1.391 . S
C1673 C1672 1.386 . S
C1673 C1677 1.393 . S
C1674 H1666 0.950 . S
C1674 C1672 1.391 . S
C1674 C1675 1.400 . S
C1675 C1674 1.400 . S
C1675 C1676 1.398 . S
C1675 C1681 1.491 . S
C1676 H1667 0.950 . S
C1676 C1675 1.398 . S
C1676 C1677 1.391 . S
C1677 H1665 0.950 . S
C1677 C1673 1.393 . S
C1677 C1676 1.391 . S
C1678 H1668 0.950 . S
C1678 C1679 1.386 . S
C1678 C1680 1.391 . S
C1679 C1678 1.386 . S
C1679 C1683 1.393 . S
C1680 H1669 0.950 . S
C1680 C1678 1.391 . S
C1680 C1681 1.400 . S
C1681 C1675 1.491 . S
C1681 C1680 1.400 . S
C1681 C1682 1.398 . S
C1682 H1670 0.950 . S
C1682 C1681 1.398 . S
C1682 C1683 1.391 . S
C1683 H1671 0.950 . S
C1683 C1679 1.393 . S
C1683 C1682 1.391 . S
H1684 C1692 0.950 . S
H1685 C1697 0.950 . S
H1686 C1694 0.950 . S
H1687 C1696 0.950 . S
H1688 C1698 0.950 . S
H1689 C1700 0.950 . S
H1690 C1702 0.950 . S
H1691 C1703 0.950 . S
C1692 H1684 0.950 . S
C1692 C1693 1.386 . S
C1692 C1694 1.391 . S
C1693 C1692 1.386 . S
C1693 C1697 1.393 . S
C1694 H1686 0.950 . S
C1694 C1692 1.391 . S
C1694 C1695 1.400 . S
C1695 C1694 1.400 . S
C1695 C1696 1.398 . S
C1695 C1701 1.491 . S
C1696 H1687 0.950 . S
C1696 C1695 1.398 . S
C1696 C1697 1.391 . S
C1697 H1685 0.950 . S
C1697 C1693 1.393 . S
C1697 C1696 1.391 . S
C1698 H1688 0.950 . S
C1698 C1699 1.386 . S
C1698 C1700 1.391 . S
C1699 C1698 1.386 . S
C1699 C1703 1.393 . S
C1700 H1689 0.950 . S
C1700 C1698 1.391 . S
C1700 C1701 1.400 . S
C1701 C1695 1.491 . S
C1701 C1700 1.400 . S
C1701 C1702 1.398 . S
C1702 H1690 0.950 . S
C1702 C1701 1.398 . S
C1702 C1703 1.391 . S
C1703 H1691 0.950 . S
C1703 C1699 1.393 . S
C1703 C1702 1.391 . S
H1704 C1712 0.950 . S
H1705 C1717 0.950 . S
H1706 C1714 0.950 . S
H1707 C1716 0.950 . S
H1708 C1718 0.950 . S
H1709 C1720 0.950 . S
H1710 C1722 0.950 . S
H1711 C1723 0.950 . S
C1712 H1704 0.950 . S
C1712 C1713 1.386 . S
C1712 C1714 1.391 . S
C1713 C1712 1.386 . S
C1713 C1717 1.393 . S
C1714 H1706 0.950 . S
C1714 C1712 1.391 . S
C1714 C1715 1.400 . S
C1715 C1714 1.400 . S
C1715 C1716 1.398 . S
C1715 C1721 1.491 . S
C1716 H1707 0.950 . S
C1716 C1715 1.398 . S
C1716 C1717 1.391 . S
C1717 H1705 0.950 . S
C1717 C1713 1.393 . S
C1717 C1716 1.391 . S
C1718 H1708 0.950 . S
C1718 C1719 1.386 . S
C1718 C1720 1.391 . S
C1719 C1718 1.386 . S
C1719 C1723 1.393 . S
C1720 H1709 0.950 . S
C1720 C1718 1.391 . S
C1720 C1721 1.400 . S
C1721 C1715 1.491 . S
C1721 C1720 1.400 . S
C1721 C1722 1.398 . S
C1722 H1710 0.950 . S
C1722 C1721 1.398 . S
C1722 C1723 1.391 . S
C1723 H1711 0.950 . S
C1723 C1719 1.393 . S
C1723 C1722 1.391 . S
H1724 C1732 0.950 . S
H1725 C1737 0.950 . S
H1726 C1734 0.950 . S
H1727 C1736 0.950 . S
H1728 C1738 0.950 . S
H1729 C1740 0.950 . S
H1730 C1742 0.950 . S
H1731 C1743 0.950 . S
C1732 H1724 0.950 . S
C1732 C1733 1.386 . S
C1732 C1734 1.391 . S
C1733 C1732 1.386 . S
C1733 C1737 1.393 . S
C1734 H1726 0.950 . S
C1734 C1732 1.391 . S
C1734 C1735 1.400 . S
C1735 C1734 1.400 . S
C1735 C1736 1.398 . S
C1735 C1741 1.491 . S
C1736 H1727 0.950 . S
C1736 C1735 1.398 . S
C1736 C1737 1.391 . S
C1737 H1725 0.950 . S
C1737 C1733 1.393 . S
C1737 C1736 1.391 . S
C1738 H1728 0.950 . S
C1738 C1739 1.386 . S
C1738 C1740 1.391 . S
C1739 C1738 1.386 . S
C1739 C1743 1.393 . S
C1740 H1729 0.950 . S
C1740 C1738 1.391 . S
C1740 C1741 1.400 . S
C1741 C1735 1.491 . S
C1741 C1740 1.400 . S
C1741 C1742 1.398 . S
C1742 H1730 0.950 . S
C1742 C1741 1.398 . S
C1742 C1743 1.391 . S
C1743 H1731 0.950 . S
C1743 C1739 1.393 . S
C1743 C1742 1.391 . S
H1744 C1752 0.950 . S
H1745 C1757 0.950 . S
H1746 C1754 0.950 . S
H1747 C1756 0.950 . S
H1748 C1758 0.950 . S
H1749 C1760 0.950 . S
H1750 C1762 0.950 . S
H1751 C1763 0.950 . S
C1752 H1744 0.950 . S
C1752 C1753 1.386 . S
C1752 C1754 1.391 . S
C1753 C1752 1.386 . S
C1753 C1757 1.393 . S
C1754 H1746 0.950 . S
C1754 C1752 1.391 . S
C1754 C1755 1.400 . S
C1755 C1754 1.400 . S
C1755 C1756 1.398 . S
C1755 C1761 1.491 . S
C1756 H1747 0.950 . S
C1756 C1755 1.398 . S
C1756 C1757 1.391 . S
C1757 H1745 0.950 . S
C1757 C1753 1.393 . S
C1757 C1756 1.391 . S
C1758 H1748 0.950 . S
C1758 C1759 1.386 . S
C1758 C1760 1.391 . S
C1759 C1758 1.386 . S
C1759 C1763 1.393 . S
C1760 H1749 0.950 . S
C1760 C1758 1.391 . S
C1760 C1761 1.400 . S
C1761 C1755 1.491 . S
C1761 C1760 1.400 . S
C1761 C1762 1.398 . S
C1762 H1750 0.950 . S
C1762 C1761 1.398 . S
C1762 C1763 1.391 . S
C1763 H1751 0.950 . S
C1763 C1759 1.393 . S
C1763 C1762 1.391 . S
H1764 C1772 0.950 . S
H1765 C1777 0.950 . S
H1766 C1774 0.950 . S
H1767 C1776 0.950 . S
H1768 C1778 0.950 . S
H1769 C1780 0.950 . S
H1770 C1782 0.950 . S
H1771 C1783 0.950 . S
C1772 H1764 0.950 . S
C1772 C1773 1.386 . S
C1772 C1774 1.391 . S
C1773 C1772 1.386 . S
C1773 C1777 1.393 . S
C1774 H1766 0.950 . S
C1774 C1772 1.391 . S
C1774 C1775 1.400 . S
C1775 C1774 1.400 . S
C1775 C1776 1.398 . S
C1775 C1781 1.491 . S
C1776 H1767 0.950 . S
C1776 C1775 1.398 . S
C1776 C1777 1.391 . S
C1777 H1765 0.950 . S
C1777 C1773 1.393 . S
C1777 C1776 1.391 . S
C1778 H1768 0.950 . S
C1778 C1779 1.386 . S
C1778 C1780 1.391 . S
C1779 C1778 1.386 . S
C1779 C1783 1.393 . S
C1780 H1769 0.950 . S
C1780 C1778 1.391 . S
C1780 C1781 1.400 . S
C1781 C1775 1.491 . S
C1781 C1780 1.400 . S
C1781 C1782 1.398 . S
C1782 H1770 0.950 . S
C1782 C1781 1.398 . S
C1782 C1783 1.391 . S
C1783 H1771 0.950 . S
C1783 C1779 1.393 . S
C1783 C1782 1.391 . S
H1784 C1792 0.950 . S
H1785 C1797 0.950 . S
H1786 C1794 0.950 . S
H1787 C1796 0.950 . S
H1788 C1798 0.950 . S
H1789 C1800 0.950 . S
H1790 C1802 0.950 . S
H1791 C1803 0.950 . S
C1792 H1784 0.950 . S
C1792 C1793 1.386 . S
C1792 C1794 1.391 . S
C1793 C1792 1.386 . S
C1793 C1797 1.393 . S
C1794 H1786 0.950 . S
C1794 C1792 1.391 . S
C1794 C1795 1.400 . S
C1795 C1794 1.400 . S
C1795 C1796 1.398 . S
C1795 C1801 1.491 . S
C1796 H1787 0.950 . S
C1796 C1795 1.398 . S
C1796 C1797 1.391 . S
C1797 H1785 0.950 . S
C1797 C1793 1.393 . S
C1797 C1796 1.391 . S
C1798 H1788 0.950 . S
C1798 C1799 1.386 . S
C1798 C1800 1.391 . S
C1799 C1798 1.386 . S
C1799 C1803 1.393 . S
C1800 H1789 0.950 . S
C1800 C1798 1.391 . S
C1800 C1801 1.400 . S
C1801 C1795 1.491 . S
C1801 C1800 1.400 . S
C1801 C1802 1.398 . S
C1802 H1790 0.950 . S
C1802 C1801 1.398 . S
C1802 C1803 1.391 . S
C1803 H1791 0.950 . S
C1803 C1799 1.393 . S
C1803 C1802 1.391 . S
H1804 C1812 0.950 . S
H1805 C1817 0.950 . S
H1806 C1814 0.950 . S
H1807 C1816 0.950 . S
H1808 C1818 0.950 . S
H1809 C1820 0.950 . S
H1810 C1822 0.950 . S
H1811 C1823 0.950 . S
C1812 H1804 0.950 . S
C1812 C1813 1.386 . S
C1812 C1814 1.391 . S
C1813 C1812 1.386 . S
C1813 C1817 1.393 . S
C1814 H1806 0.950 . S
C1814 C1812 1.391 . S
C1814 C1815 1.400 . S
C1815 C1814 1.400 . S
C1815 C1816 1.398 . S
C1815 C1821 1.491 . S
C1816 H1807 0.950 . S
C1816 C1815 1.398 . S
C1816 C1817 1.391 . S
C1817 H1805 0.950 . S
C1817 C1813 1.393 . S
C1817 C1816 1.391 . S
C1818 H1808 0.950 . S
C1818 C1819 1.386 . S
C1818 C1820 1.391 . S
C1819 C1818 1.386 . S
C1819 C1823 1.393 . S
C1820 H1809 0.950 . S
C1820 C1818 1.391 . S
C1820 C1821 1.400 . S
C1821 C1815 1.491 . S
C1821 C1820 1.400 . S
C1821 C1822 1.398 . S
C1822 H1810 0.950 . S
C1822 C1821 1.398 . S
C1822 C1823 1.391 . S
C1823 H1811 0.950 . S
C1823 C1819 1.393 . S
C1823 C1822 1.391 . S
H1824 C1832 0.950 . S
H1825 C1837 0.950 . S
H1826 C1834 0.950 . S
H1827 C1836 0.950 . S
H1828 C1838 0.950 . S
H1829 C1840 0.950 . S
H1830 C1842 0.950 . S
H1831 C1843 0.950 . S
C1832 H1824 0.950 . S
C1832 C1833 1.386 . S
C1832 C1834 1.391 . S
C1833 C1832 1.386 . S
C1833 C1837 1.393 . S
C1834 H1826 0.950 . S
C1834 C1832 1.391 . S
C1834 C1835 1.400 . S
C1835 C1834 1.400 . S
C1835 C1836 1.398 . S
C1835 C1841 1.491 . S
C1836 H1827 0.950 . S
C1836 C1835 1.398 . S
C1836 C1837 1.391 . S
C1837 H1825 0.950 . S
C1837 C1833 1.393 . S
C1837 C1836 1.391 . S
C1838 H1828 0.950 . S
C1838 C1839 1.386 . S
C1838 C1840 1.391 . S
C1839 C1838 1.386 . S
C1839 C1843 1.393 . S
C1840 H1829 0.950 . S
C1840 C1838 1.391 . S
C1840 C1841 1.400 . S
C1841 C1835 1.491 . S
C1841 C1840 1.400 . S
C1841 C1842 1.398 . S
C1842 H1830 0.950 . S
C1842 C1841 1.398 . S
C1842 C1843 1.391 . S
C1843 H1831 0.950 . S
C1843 C1839 1.393 . S
C1843 C1842 1.391 . S
H1844 C1852 0.950 . S
H1845 C1857 0.950 . S
H1846 C1854 0.950 . S
H1847 C1856 0.950 . S
H1848 C1858 0.950 . S
H1849 C1860 0.950 . S
H1850 C1862 0.950 . S
H1851 C1863 0.950 . S
C1852 H1844 0.950 . S
C1852 C1853 1.386 . S
C1852 C1854 1.391 . S
C1853 C1852 1.386 . S
C1853 C1857 1.393 . S
C1854 H1846 0.950 . S
C1854 C1852 1.391 . S
C1854 C1855 1.400 . S
C1855 C1854 1.400 . S
C1855 C1856 1.398 . S
C1855 C1861 1.491 . S
C1856 H1847 0.950 . S
C1856 C1855 1.398 . S
C1856 C1857 1.391 . S
C1857 H1845 0.950 . S
C1857 C1853 1.393 . S
C1857 C1856 1.391 . S
C1858 H1848 0.950 . S
C1858 C1859 1.386 . S
C1858 C1860 1.391 . S
C1859 C1858 1.386 . S
C1859 C1863 1.393 . S
C1860 H1849 0.950 . S
C1860 C1858 1.391 . S
C1860 C1861 1.400 . S
C1861 C1855 1.491 . S
C1861 C1860 1.400 . S
C1861 C1862 1.398 . S
C1862 H1850 0.950 . S
C1862 C1861 1.398 . S
C1862 C1863 1.391 . S
C1863 H1851 0.950 . S
C1863 C1859 1.393 . S
C1863 C1862 1.391 . S
H1864 C1872 0.950 . S
H1865 C1877 0.950 . S
H1866 C1874 0.950 . S
H1867 C1876 0.950 . S
H1868 C1878 0.950 . S
H1869 C1880 0.950 . S
H1870 C1882 0.950 . S
H1871 C1883 0.950 . S
C1872 H1864 0.950 . S
C1872 C1873 1.386 . S
C1872 C1874 1.391 . S
C1873 C1872 1.386 . S
C1873 C1877 1.393 . S
C1874 H1866 0.950 . S
C1874 C1872 1.391 . S
C1874 C1875 1.400 . S
C1875 C1874 1.400 . S
C1875 C1876 1.398 . S
C1875 C1881 1.491 . S
C1876 H1867 0.950 . S
C1876 C1875 1.398 . S
C1876 C1877 1.391 . S
C1877 H1865 0.950 . S
C1877 C1873 1.393 . S
C1877 C1876 1.391 . S
C1878 H1868 0.950 . S
C1878 C1879 1.386 . S
C1878 C1880 1.391 . S
C1879 C1878 1.386 . S
C1879 C1883 1.393 . S
C1880 H1869 0.950 . S
C1880 C1878 1.391 . S
C1880 C1881 1.400 . S
C1881 C1875 1.491 . S
C1881 C1880 1.400 . S
C1881 C1882 1.398 . S
C1882 H1870 0.950 . S
C1882 C1881 1.398 . S
C1882 C1883 1.391 . S
C1883 H1871 0.950 . S
C1883 C1879 1.393 . S
C1883 C1882 1.391 . S
H1884 C1892 0.950 . S
H1885 C1897 0.950 . S
H1886 C1894 0.950 . S
H1887 C1896 0.950 . S
H1888 C1898 0.950 . S
H1889 C1900 0.950 . S
H1890 C1902 0.950 . S
H1891 C1903 0.950 . S
C1892 H1884 0.950 . S
C1892 C1893 1.386 . S
C1892 C1894 1.391 . S
C1893 C1892 1.386 . S
C1893 C1897 1.393 . S
C1894 H1886 0.950 . S
C1894 C1892 1.391 . S
C1894 C1895 1.400 . S
C1895 C1894 1.400 . S
C1895 C1896 1.398 . S
C1895 C1901 1.491 . S
C1896 H1887 0.950 . S
C1896 C1895 1.398 . S
C1896 C1897 1.391 . S
C1897 H1885 0.950 . S
C1897 C1893 1.393 . S
C1897 C1896 1.391 . S
C1898 H1888 0.950 . S
C1898 C1899 1.386 . S
C1898 C1900 1.391 . S
C1899 C1898 1.386 . S
C1899 C1903 1.393 . S
C1900 H1889 0.950 . S
C1900 C1898 1.391 . S
C1900 C1901 1.400 . S
C1901 C1895 1.491 . S
C1901 C1900 1.400 . S
C1901 C1902 1.398 . S
C1902 H1890 0.950 . S
C1902 C1901 1.398 . S
C1902 C1903 1.391 . S
C1903 H1891 0.950 . S
C1903 C1899 1.393 . S
C1903 C1902 1.391 . S
H1904 C1912 0.950 . S
H1905 C1917 0.950 . S
H1906 C1914 0.950 . S
H1907 C1916 0.950 . S
H1908 C1918 0.950 . S
H1909 C1920 0.950 . S
H1910 C1922 0.950 . S
H1911 C1923 0.950 . S
C1912 H1904 0.950 . S
C1912 C1913 1.386 . S
C1912 C1914 1.391 . S
C1913 C1912 1.386 . S
C1913 C1917 1.393 . S
C1914 H1906 0.950 . S
C1914 C1912 1.391 . S
C1914 C1915 1.400 . S
C1915 C1914 1.400 . S
C1915 C1916 1.398 . S
C1915 C1921 1.491 . S
C1916 H1907 0.950 . S
C1916 C1915 1.398 . S
C1916 C1917 1.391 . S
C1917 H1905 0.950 . S
C1917 C1913 1.393 . S
C1917 C1916 1.391 . S
C1918 H1908 0.950 . S
C1918 C1919 1.386 . S
C1918 C1920 1.391 . S
C1919 C1918 1.386 . S
C1919 C1923 1.393 . S
C1920 H1909 0.950 . S
C1920 C1918 1.391 . S
C1920 C1921 1.400 . S
C1921 C1915 1.491 . S
C1921 C1920 1.400 . S
C1921 C1922 1.398 . S
C1922 H1910 0.950 . S
C1922 C1921 1.398 . S
C1922 C1923 1.391 . S
C1923 H1911 0.950 . S
C1923 C1919 1.393 . S
C1923 C1922 1.391 . S
H1924 C1932 0.950 . S
H1925 C1937 0.950 . S
H1926 C1934 0.950 . S
H1927 C1936 0.950 . S
H1928 C1938 0.950 . S
H1929 C1940 0.950 . S
H1930 C1942 0.950 . S
H1931 C1943 0.950 . S
C1932 H1924 0.950 . S
C1932 C1933 1.386 . S
C1932 C1934 1.391 . S
C1933 C1932 1.386 . S
C1933 C1937 1.393 . S
C1934 H1926 0.950 . S
C1934 C1932 1.391 . S
C1934 C1935 1.400 . S
C1935 C1934 1.400 . S
C1935 C1936 1.398 . S
C1935 C1941 1.491 . S
C1936 H1927 0.950 . S
C1936 C1935 1.398 . S
C1936 C1937 1.391 . S
C1937 H1925 0.950 . S
C1937 C1933 1.393 . S
C1937 C1936 1.391 . S
C1938 H1928 0.950 . S
C1938 C1939 1.386 . S
C1938 C1940 1.391 . S
C1939 C1938 1.386 . S
C1939 C1943 1.393 . S
C1940 H1929 0.950 . S
C1940 C1938 1.391 . S
C1940 C1941 1.400 . S
C1941 C1935 1.491 . S
C1941 C1940 1.400 . S
C1941 C1942 1.398 . S
C1942 H1930 0.950 . S
C1942 C1941 1.398 . S
C1942 C1943 1.391 . S
C1943 H1931 0.950 . S
C1943 C1939 1.393 . S
C1943 C1942 1.391 . S
C513 C36 1.281 . S
C519 C256 1.146 . S
C533 C13 1.218 1_545 S
C539 C272 1.134 . S
C559 C255 1.199 . S
C553 C22 1.274 . S
C579 C280 1.083 . S
C573 C41 1.255 . S
C593 C8 1.289 . S
C599 C289 1.159 1_565 S
C619 C292 1.105 . S
C613 C27 1.210 1_455 S
C633 C78 1.271 . S
C639 C298 1.200 . S
C659 C314 1.099 . S
C653 C55 1.238 . S
C679 C297 1.214 . S
C673 C64 1.270 . S
C693 C83 1.259 . S
C699 C322 1.078 . S
C719 C331 1.172 . S
C713 C50 1.252 . S
C739 C334 1.088 . S
C733 C69 1.207 . S
C759 C343 1.151 . S
C753 C120 1.294 . S
C779 C355 1.119 . S
C773 C97 1.227 . S
C799 C352 1.225 . S
C793 C106 1.276 . S
C813 C125 1.244 . S
C819 C361 1.103 . S
C839 C360 1.191 . S
C833 C92 1.251 . S
C853 C111 1.222 . S
C859 C377 1.067 . S
C879 C382 1.172 . S
C873 C162 1.259 . S
C899 C398 1.141 . S
C893 C139 1.208 . S
C913 C148 1.271 . S
C919 C381 1.206 . S
C939 C406 1.111 . S
C933 C167 1.247 . S
C959 C415 1.192 . S
C953 C134 1.275 . S
C973 C153 1.216 . S
C979 C418 1.093 . S
C993 C204 1.275 . S
C999 C427 1.150 . S
C1019 C439 1.119 . S
C1013 C181 1.217 . S
C1039 C436 1.200 . S
C1033 C190 1.274 . S
C1053 C209 1.235 . S
C1059 C445 1.122 . S
C1079 C444 1.162 . S
C1073 C176 1.257 . S
C1093 C195 1.225 . S
C1099 C461 1.069 . S
C1119 C466 1.201 . S
C1113 C246 1.271 . S
C1139 C482 1.086 . S
C1133 C223 1.239 . S
C1153 C232 1.308 . S
C1159 C465 1.191 . S
C1179 C487 1.078 . S
C1173 C251 1.260 . S
C1199 C486 1.181 . S
C1193 C218 1.250 . S
C1219 C503 1.115 . S
C1213 C237 1.194 . S
C1239 C268 1.396 . S
C1233 C161 1.480 . S
C1253 C137 1.509 . S
C1259 C271 1.403 1_655 S
C1279 C259 1.372 . S
C1273 C147 1.481 . S
C1293 C249 1.461 . S
C1299 C276 1.365 . S
C1313 C217 1.393 . S
C1319 C277 1.287 . S
C1339 C293 1.374 . S
C1333 C235 1.470 . S
C1359 C310 1.407 1_565 S
C1353 C203 1.487 . S
C1379 C313 1.435 . S
C1373 C179 1.514 . S
C1393 C189 1.480 . S
C1399 C301 1.384 . S
C1419 C318 1.363 . S
C1413 C123 1.461 . S
C1433 C91 1.399 . S
C1439 C319 1.287 . S
C1453 C109 1.463 . S
C1459 C335 1.378 . S
C1473 C245 1.484 1_655 S
C1479 C339 1.380 . S
C1493 C221 1.509 . S
C1499 C356 1.429 . S
C1519 C340 1.403 . S
C1513 C231 1.484 . S
C1539 C373 1.381 . S
C1533 C81 1.456 . S
C1559 C364 1.321 . S
C1553 C49 1.405 . S
C1573 C67 1.463 . S
C1579 C376 1.384 . S
C1599 C394 1.403 . S
C1593 C35 1.488 . S
C1619 C397 1.435 . S
C1613 C11 1.515 . S
C1633 C21 1.491 . S
C1639 C385 1.397 . S
C1659 C402 1.363 . S
C1653 C207 1.461 . S
C1679 C403 1.286 . S
C1673 C175 1.399 1_655 S
C1699 C419 1.356 . S
C1693 C193 1.465 . S
C1719 C423 1.395 . S
C1713 C77 1.480 . S
C1739 C440 1.403 . S
C1733 C53 1.511 . S
C1753 C63 1.490 . S
C1759 C424 1.406 . S
C1773 C165 1.460 . S
C1779 C457 1.359 . S
C1793 C133 1.396 . S
C1799 C448 1.311 . S
C1819 C460 1.357 . S
C1813 C151 1.463 . S
C1833 C119 1.477 . S
C1839 C478 1.374 . S
C1853 C95 1.508 . S
C1859 C481 1.424 . S
C1879 C469 1.407 . S
C1873 C105 1.488 1_565 S
C1899 C499 1.355 . S
C1893 C39 1.451 . S
C1919 C490 1.315 . S
C1913 C7 1.405 . S
C1933 C25 1.467 . S
C1939 C502 1.360 . S
