# Generated by pormake.
# Topology ocu, (6,8)-cn, num edge types: 1
# Building blocks:
#     Node 0, Type 0, BuildingBlock: BETDEL_clean_sbu_0, # of connection points: 6
#     Node 1, Type 0, BuildingBlock: BETDEL_clean_sbu_0, # of connection points: 6
#     Node 2, Type 0, BuildingBlock: BETDEL_clean_sbu_0, # of connection points: 6
#     Node 3, Type 0, BuildingBlock: BETDEL_clean_sbu_0, # of connection points: 6
#     Node 4, Type 0, BuildingBlock: BETDEL_clean_sbu_0, # of connection points: 6
#     Node 5, Type 0, BuildingBlock: BETDEL_clean_sbu_0, # of connection points: 6
#     Node 6, Type 0, BuildingBlock: BETDEL_clean_sbu_0, # of connection points: 6
#     Node 7, Type 0, BuildingBlock: BETDEL_clean_sbu_0, # of connection points: 6
#     Node 8, Type 1, BuildingBlock: GIZVER_clean_sbu_0, # of connection points: 8
#     Node 9, Type 1, BuildingBlock: GIZVER_clean_sbu_0, # of connection points: 8
#     Node 10, Type 1, BuildingBlock: GIZVER_clean_sbu_0, # of connection points: 8
#     Node 11, Type 1, BuildingBlock: GIZVER_clean_sbu_0, # of connection points: 8
#     Node 12, Type 1, BuildingBlock: GIZVER_clean_sbu_0, # of connection points: 8
#     Node 13, Type 1, BuildingBlock: GIZVER_clean_sbu_0, # of connection points: 8
#     Edge 14, Type (0, 1), BuildingBlock: KIFKEQ_clean_linker_1, # of connection points: 2
#     Edge 15, Type (0, 1), BuildingBlock: KIFKEQ_clean_linker_1, # of connection points: 2
#     Edge 16, Type (0, 1), BuildingBlock: KIFKEQ_clean_linker_1, # of connection points: 2
#     Edge 17, Type (0, 1), BuildingBlock: KIFKEQ_clean_linker_1, # of connection points: 2
#     Edge 18, Type (0, 1), BuildingBlock: KIFKEQ_clean_linker_1, # of connection points: 2
#     Edge 19, Type (0, 1), BuildingBlock: KIFKEQ_clean_linker_1, # of connection points: 2
#     Edge 20, Type (0, 1), BuildingBlock: KIFKEQ_clean_linker_1, # of connection points: 2
#     Edge 21, Type (0, 1), BuildingBlock: KIFKEQ_clean_linker_1, # of connection points: 2
#     Edge 22, Type (0, 1), BuildingBlock: KIFKEQ_clean_linker_1, # of connection points: 2
#     Edge 23, Type (0, 1), BuildingBlock: KIFKEQ_clean_linker_1, # of connection points: 2
#     Edge 24, Type (0, 1), BuildingBlock: KIFKEQ_clean_linker_1, # of connection points: 2
#     Edge 25, Type (0, 1), BuildingBlock: KIFKEQ_clean_linker_1, # of connection points: 2
#     Edge 26, Type (0, 1), BuildingBlock: KIFKEQ_clean_linker_1, # of connection points: 2
#     Edge 27, Type (0, 1), BuildingBlock: KIFKEQ_clean_linker_1, # of connection points: 2
#     Edge 28, Type (0, 1), BuildingBlock: KIFKEQ_clean_linker_1, # of connection points: 2
#     Edge 29, Type (0, 1), BuildingBlock: KIFKEQ_clean_linker_1, # of connection points: 2
#     Edge 30, Type (0, 1), BuildingBlock: KIFKEQ_clean_linker_1, # of connection points: 2
#     Edge 31, Type (0, 1), BuildingBlock: KIFKEQ_clean_linker_1, # of connection points: 2
#     Edge 32, Type (0, 1), BuildingBlock: KIFKEQ_clean_linker_1, # of connection points: 2
#     Edge 33, Type (0, 1), BuildingBlock: KIFKEQ_clean_linker_1, # of connection points: 2
#     Edge 34, Type (0, 1), BuildingBlock: KIFKEQ_clean_linker_1, # of connection points: 2
#     Edge 35, Type (0, 1), BuildingBlock: KIFKEQ_clean_linker_1, # of connection points: 2
#     Edge 36, Type (0, 1), BuildingBlock: KIFKEQ_clean_linker_1, # of connection points: 2
#     Edge 37, Type (0, 1), BuildingBlock: KIFKEQ_clean_linker_1, # of connection points: 2
#     Edge 38, Type (0, 1), BuildingBlock: KIFKEQ_clean_linker_1, # of connection points: 2
#     Edge 39, Type (0, 1), BuildingBlock: KIFKEQ_clean_linker_1, # of connection points: 2
#     Edge 40, Type (0, 1), BuildingBlock: KIFKEQ_clean_linker_1, # of connection points: 2
#     Edge 41, Type (0, 1), BuildingBlock: KIFKEQ_clean_linker_1, # of connection points: 2
#     Edge 42, Type (0, 1), BuildingBlock: KIFKEQ_clean_linker_1, # of connection points: 2
#     Edge 43, Type (0, 1), BuildingBlock: KIFKEQ_clean_linker_1, # of connection points: 2
#     Edge 44, Type (0, 1), BuildingBlock: KIFKEQ_clean_linker_1, # of connection points: 2
#     Edge 45, Type (0, 1), BuildingBlock: KIFKEQ_clean_linker_1, # of connection points: 2
#     Edge 46, Type (0, 1), BuildingBlock: KIFKEQ_clean_linker_1, # of connection points: 2
#     Edge 47, Type (0, 1), BuildingBlock: KIFKEQ_clean_linker_1, # of connection points: 2
#     Edge 48, Type (0, 1), BuildingBlock: KIFKEQ_clean_linker_1, # of connection points: 2
#     Edge 49, Type (0, 1), BuildingBlock: KIFKEQ_clean_linker_1, # of connection points: 2
#     Edge 50, Type (0, 1), BuildingBlock: KIFKEQ_clean_linker_1, # of connection points: 2
#     Edge 51, Type (0, 1), BuildingBlock: KIFKEQ_clean_linker_1, # of connection points: 2
#     Edge 52, Type (0, 1), BuildingBlock: KIFKEQ_clean_linker_1, # of connection points: 2
#     Edge 53, Type (0, 1), BuildingBlock: KIFKEQ_clean_linker_1, # of connection points: 2
#     Edge 54, Type (0, 1), BuildingBlock: KIFKEQ_clean_linker_1, # of connection points: 2
#     Edge 55, Type (0, 1), BuildingBlock: KIFKEQ_clean_linker_1, # of connection points: 2
#     Edge 56, Type (0, 1), BuildingBlock: KIFKEQ_clean_linker_1, # of connection points: 2
#     Edge 57, Type (0, 1), BuildingBlock: KIFKEQ_clean_linker_1, # of connection points: 2
#     Edge 58, Type (0, 1), BuildingBlock: KIFKEQ_clean_linker_1, # of connection points: 2
#     Edge 59, Type (0, 1), BuildingBlock: KIFKEQ_clean_linker_1, # of connection points: 2
#     Edge 60, Type (0, 1), BuildingBlock: KIFKEQ_clean_linker_1, # of connection points: 2
#     Edge 61, Type (0, 1), BuildingBlock: KIFKEQ_clean_linker_1, # of connection points: 2
# Relax obj value: 0.134
# Max RMSD: 0.275
# Mean RMSD: 0.184
data_MOF--net-ocu--node1-BETDEL_clean_sbu_0--node2-GIZVER_clean_sbu_0--edge1-KIFKEQ_clean_linker_1
_symmetry_space_group_name_H-M    P1
_symmetry_Int_Tables_number       1
_symmetry_cell_setting            triclinic
loop_
_symmetry_equiv_pos_as_xyz
'x, y, z'
_cell_length_a     41.830847
_cell_length_b     44.237964
_cell_length_c     30.321163
_cell_angle_alpha  90.815986
_cell_angle_beta   92.275723
_cell_angle_gamma 105.95397
loop_
_atom_site_label
_atom_site_type_symbol
_atom_site_fract_x
_atom_site_fract_y
_atom_site_fract_z
_atom_type_partial_charge
Dy0 Dy 0.28567 0.25751 0.29463 0.0
C1 C 0.21758 0.28716 0.14573 0.0
C2 C 0.31486 0.23299 0.36261 0.0
Dy3 Dy 0.24641 0.26128 0.2128 0.0
O4 O 0.3277 0.25995 0.34494 0.0
O5 O 0.28573 0.22011 0.34406 0.0
O6 O 0.3144 0.30815 0.28943 0.0
O7 O 0.2991 0.28036 0.23155 0.0
C8 C 0.31345 0.30787 0.24646 0.0
C9 C 0.21848 0.21095 0.26117 0.0
O10 O 0.27834 0.23321 0.18131 0.0
O11 O 0.30168 0.22342 0.24813 0.0
O12 O 0.20331 0.26148 0.16567 0.0
O13 O 0.24807 0.29775 0.16113 0.0
O14 O 0.21668 0.21088 0.21818 0.0
O15 O 0.23309 0.23842 0.27592 0.0
O16 O 0.25134 0.283 0.32598 0.0
O17 O 0.23218 0.29678 0.2589 0.0
C18 C 0.29761 0.21898 0.20439 0.0
C19 C 0.23407 0.29912 0.30287 0.0
Dy20 Dy 0.78877 0.24224 0.25998 0.0
C21 C 0.69448 0.29489 0.18176 0.0
C22 C 0.83489 0.2157 0.29498 0.0
Dy23 Dy 0.73881 0.27747 0.23512 0.0
O24 O 0.82792 0.21726 0.25322 0.0
O25 O 0.81636 0.22849 0.31822 0.0
O26 O 0.77734 0.21525 0.19402 0.0
O27 O 0.7408 0.22998 0.22449 0.0
C28 C 0.74716 0.21757 0.1899 0.0
C29 C 0.77629 0.30215 0.30744 0.0
O30 O 0.70709 0.23869 0.2728 0.0
O31 O 0.7496 0.22331 0.30909 0.0
O32 O 0.69561 0.29751 0.22464 0.0
O33 O 0.71804 0.28375 0.16818 0.0
O34 O 0.7463 0.30463 0.29925 0.0
O35 O 0.78573 0.28997 0.27417 0.0
O36 O 0.82198 0.28302 0.22675 0.0
O37 O 0.78066 0.30079 0.19206 0.0
C38 C 0.71778 0.2228 0.30407 0.0
C39 C 0.81231 0.30116 0.19775 0.0
Dy40 Dy 0.74802 0.76464 0.2972 0.0
C41 C 0.80796 0.72582 0.14731 0.0
C42 C 0.7265 0.79705 0.36211 0.0
Dy43 Dy 0.78276 0.75513 0.21209 0.0
O44 O 0.71347 0.76744 0.35161 0.0
O45 O 0.75201 0.80835 0.33834 0.0
O46 O 0.7144 0.71534 0.29052 0.0
O47 O 0.73238 0.74047 0.23415 0.0
C48 C 0.71673 0.71401 0.24784 0.0
C49 C 0.81423 0.80536 0.26278 0.0
O50 O 0.74744 0.78056 0.18072 0.0
O51 O 0.73059 0.79609 0.24751 0.0
O52 O 0.82021 0.75487 0.16092 0.0
O53 O 0.78097 0.71324 0.16773 0.0
O54 O 0.81573 0.80473 0.21996 0.0
O55 O 0.79848 0.77871 0.27559 0.0
O56 O 0.78243 0.73801 0.32783 0.0
O57 O 0.79983 0.72312 0.26094 0.0
C58 C 0.73102 0.79713 0.20348 0.0
C59 C 0.79897 0.72165 0.30487 0.0
Dy60 Dy 0.28537 0.74385 0.24355 0.0
C61 C 0.21541 0.82061 0.32373 0.0
C62 C 0.31625 0.70697 0.19987 0.0
Dy63 Dy 0.24028 0.78442 0.26991 0.0
O64 O 0.31997 0.71331 0.24201 0.0
O65 O 0.29598 0.72107 0.18141 0.0
O66 O 0.31503 0.75638 0.30887 0.0
O67 O 0.29244 0.78779 0.27969 0.0
C68 C 0.30807 0.78308 0.31379 0.0
C69 C 0.21803 0.7476 0.19783 0.0
O70 O 0.27725 0.81934 0.23165 0.0
O71 O 0.30021 0.78375 0.19648 0.0
O72 O 0.20629 0.81472 0.2822 0.0
O73 O 0.23753 0.80645 0.33568 0.0
O74 O 0.21112 0.77426 0.20476 0.0
O75 O 0.23318 0.74122 0.23158 0.0
O76 O 0.24649 0.70806 0.27747 0.0
O77 O 0.22166 0.74208 0.31256 0.0
C78 C 0.29646 0.81245 0.20146 0.0
C79 C 0.22549 0.71355 0.3061 0.0
Dy80 Dy 0.29636 0.73586 0.75409 0.0
C81 C 0.207 0.80271 0.68803 0.0
C82 C 0.34059 0.71775 0.80697 0.0
Dy83 Dy 0.24739 0.77215 0.72914 0.0
O84 O 0.33798 0.71356 0.76426 0.0
O85 O 0.31873 0.73112 0.82062 0.0
O86 O 0.28606 0.70681 0.69118 0.0
O87 O 0.24852 0.72364 0.71769 0.0
C88 C 0.25617 0.70996 0.68462 0.0
C89 C 0.28958 0.79668 0.79816 0.0
O90 O 0.21444 0.73753 0.7719 0.0
O91 O 0.25488 0.7148 0.79877 0.0
O92 O 0.23823 0.81489 0.69872 0.0
O93 O 0.1975 0.77371 0.70011 0.0
O94 O 0.25919 0.79874 0.79496 0.0
O95 O 0.29583 0.7841 0.76345 0.0
O96 O 0.32701 0.7722 0.71238 0.0
O97 O 0.28188 0.78004 0.67289 0.0
C98 C 0.22412 0.71764 0.79798 0.0
C99 C 0.31428 0.78335 0.67779 0.0
Dy100 Dy 0.25222 0.26048 0.79182 0.0
C101 C 0.30429 0.21414 0.64036 0.0
C102 C 0.23324 0.29523 0.85609 0.0
Dy103 Dy 0.28393 0.24748 0.70519 0.0
O104 O 0.22178 0.26486 0.85032 0.0
O105 O 0.25587 0.30613 0.82788 0.0
O106 O 0.21549 0.2124 0.78634 0.0
O107 O 0.23422 0.23596 0.72952 0.0
C108 C 0.21702 0.2103 0.74362 0.0
C109 C 0.31798 0.29812 0.75302 0.0
O110 O 0.24855 0.27335 0.67498 0.0
O111 O 0.23569 0.29233 0.74206 0.0
O112 O 0.31682 0.24407 0.6491 0.0
O113 O 0.27976 0.20295 0.66581 0.0
O114 O 0.31932 0.29634 0.71025 0.0
O115 O 0.30169 0.27214 0.76719 0.0
O116 O 0.28747 0.23448 0.82208 0.0
O117 O 0.30044 0.21561 0.75504 0.0
C118 C 0.23439 0.29186 0.69793 0.0
C119 C 0.30174 0.21605 0.79919 0.0
Dy120 Dy 0.79358 0.22893 0.74173 0.0
C121 C 0.72059 0.31026 0.80617 0.0
C122 C 0.81654 0.19031 0.68956 0.0
Dy123 Dy 0.75034 0.27188 0.76355 0.0
O124 O 0.82809 0.19906 0.72964 0.0
O125 O 0.79289 0.20276 0.67829 0.0
O126 O 0.82397 0.24201 0.80533 0.0
O127 O 0.80271 0.2746 0.77474 0.0
C128 C 0.81828 0.26948 0.80902 0.0
C129 C 0.72583 0.2294 0.69769 0.0
O130 O 0.78676 0.30491 0.72274 0.0
O131 O 0.81161 0.26839 0.69445 0.0
O132 O 0.71408 0.30078 0.76524 0.0
O133 O 0.74333 0.29878 0.82386 0.0
O134 O 0.71994 0.25676 0.69936 0.0
O135 O 0.74145 0.22596 0.73252 0.0
O136 O 0.75839 0.19664 0.78505 0.0
O137 O 0.73543 0.23434 0.81418 0.0
C138 C 0.80723 0.297 0.69543 0.0
C139 C 0.73917 0.20546 0.81347 0.0
Dy140 Dy 0.78649 0.75144 0.78875 0.0
C141 C 0.71558 0.77555 0.6393 0.0
C142 C 0.81723 0.72729 0.85563 0.0
Dy143 Dy 0.74632 0.75286 0.70769 0.0
O144 O 0.83031 0.75315 0.83544 0.0
O145 O 0.78675 0.71557 0.8407 0.0
O146 O 0.81435 0.80211 0.78305 0.0
O147 O 0.79888 0.77413 0.72522 0.0
C148 C 0.81268 0.80182 0.74007 0.0
C149 C 0.72013 0.70283 0.75735 0.0
O150 O 0.77933 0.72588 0.67627 0.0
O151 O 0.80297 0.7172 0.74322 0.0
O152 O 0.70216 0.75053 0.66109 0.0
O153 O 0.74609 0.78734 0.65391 0.0
O154 O 0.71916 0.70194 0.71436 0.0
O155 O 0.73374 0.73071 0.77142 0.0
O156 O 0.75412 0.77891 0.82022 0.0
O157 O 0.73024 0.78753 0.75326 0.0
C158 C 0.79909 0.71238 0.6996 0.0
C159 C 0.73448 0.79256 0.7969 0.0
Co160 Co 0.05129 0.94918 0.5093 0.0
Co161 Co 0.04454 0.97954 0.58254 0.0
Co162 Co 1.01564 0.00779 0.50299 0.0
O163 O 0.05181 0.99105 0.52422 0.0
H164 H 0.0734 1.00592 0.52203 0.0
O165 O 0.97944 0.02452 0.48182 0.0
Co166 Co 0.97992 0.06635 0.49654 0.0
Co167 Co 0.98656 0.03598 0.42373 0.0
H168 H 0.95781 0.00961 0.48403 0.0
O169 O 0.07829 0.9737 0.61919 0.0
O170 O 0.04437 0.93814 0.57205 0.0
O171 O 1.00272 0.97954 0.60684 0.0
O172 O 0.98019 0.97749 0.53905 0.0
O173 O 0.02712 0.0387 0.55295 0.0
O174 O 0.97563 0.10369 0.50958 0.0
O175 O 0.93584 0.05957 0.48809 0.0
O176 O 0.02669 0.07886 0.51113 0.0
O177 O 0.05106 0.03811 0.46676 0.0
O178 O 0.02813 0.03542 0.39912 0.0
O179 O 0.98719 0.07755 0.4339 0.0
O180 O 0.95294 0.04191 0.38709 0.0
C181 C 0.08674 0.92666 0.50319 0.0
C182 C 0.99336 0.94774 0.46097 0.0
C183 C 0.97747 0.97196 0.58042 0.0
C184 C 0.06816 0.94525 0.60261 0.0
C185 C 0.94438 0.08875 0.50236 0.0
C186 C 0.03765 0.06782 0.54537 0.0
C187 C 0.05355 0.04327 0.42525 0.0
C188 C 0.96369 0.07052 0.40293 0.0
O189 O 0.05545 0.9118 0.49622 0.0
O190 O 0.09543 0.95589 0.51729 0.0
O191 O 1.00411 0.97682 0.4531 0.0
O192 O 1.00448 0.93671 0.49509 0.0
Co193 Co 0.55822 0.94497 0.97451 0.0
Co194 Co 0.55863 0.96288 0.05397 0.0
Co195 Co 0.51644 1.00624 0.99985 0.0
O196 O 0.5565 0.98607 0.00329 0.0
H197 H 0.57737 1.00197 0.00072 0.0
O198 O 0.47624 0.02627 0.99699 0.0
Co199 Co 0.47446 0.06728 0.02612 0.0
Co200 Co 0.47339 0.04928 0.94676 0.0
H201 H 0.45541 0.01028 0.99981 0.0
O202 O 0.59897 0.96308 0.08092 0.0
O203 O 0.5677 0.92591 0.03336 0.0
O204 O 0.51911 0.95292 0.0874 0.0
O205 O 0.49171 0.98149 0.04895 0.0
O206 O 0.54154 0.04129 0.04121 0.0
O207 O 0.47034 0.10258 0.05477 0.0
O208 O 0.42877 0.0596 0.03813 0.0
O209 O 0.52204 0.08191 0.0207 0.0
O210 O 0.54118 0.03107 0.95044 0.0
O211 O 0.51267 0.05949 0.91375 0.0
O212 O 0.46465 0.08633 0.96755 0.0
O213 O 0.43291 0.04917 0.92035 0.0
C214 C 0.5938 0.92397 0.94485 0.0
C215 C 0.48753 0.9416 0.9631 0.0
C216 C 0.49339 0.96222 0.07934 0.0
C217 C 0.59317 0.93536 0.06217 0.0
C218 C 0.43881 0.08813 0.05607 0.0
C219 C 0.54551 0.07083 0.03588 0.0
C220 C 0.53878 0.05061 0.92063 0.0
C221 C 0.43896 0.07693 0.93908 0.0
O222 O 0.56225 0.90959 0.9461 0.0
O223 O 0.60392 0.95249 0.96279 0.0
O224 O 0.49135 0.9712 0.95844 0.0
O225 O 0.51063 0.93054 0.97955 0.0
Co226 Co 0.05656 0.44981 0.98545 0.0
Co227 Co 0.06458 0.47724 0.06391 0.0
Co228 Co 0.01961 0.50932 1.00044 0.0
O229 O 0.05874 0.49151 0.00698 0.0
H230 H 0.07905 0.50658 0.99906 0.0
O231 O 0.98051 0.5271 0.99413 0.0
Co232 Co 0.98342 0.56942 0.01356 0.0
Co233 Co 0.97428 0.53973 0.93639 0.0
H234 H 0.96027 0.51237 0.003 0.0
O235 O 0.10532 0.47149 0.08501 0.0
O236 O 0.06439 0.43681 0.04616 0.0
O237 O 0.02758 0.47213 0.1013 0.0
O238 O 0.99444 0.48388 0.04879 0.0
O239 O 0.04347 0.5441 0.04307 0.0
O240 O 0.98218 0.60729 0.03226 0.0
O241 O 0.93969 0.56315 0.02508 0.0
O242 O 0.02985 0.58167 0.00566 0.0
O243 O 0.04473 0.53482 0.95212 0.0
O244 O 1.01099 0.54424 0.89856 0.0
O245 O 0.97482 0.58059 0.9521 0.0
O246 O 0.93341 0.54496 0.91527 0.0
C247 C 0.09007 0.42732 0.96284 0.0
C248 C 0.98978 0.44582 0.96734 0.0
C249 C 0.99894 0.4724 0.08618 0.0
C250 C 0.09314 0.44354 0.06751 0.0
C251 C 0.95073 0.59312 0.03553 0.0
C252 C 0.04949 0.57293 0.03253 0.0
C253 C 0.0399 0.54544 0.91423 0.0
C254 C 0.94586 0.57333 0.93122 0.0
O255 O 0.05858 0.41272 0.96446 0.0
O256 O 0.10052 0.45697 0.9752 0.0
O257 O 0.99566 0.47474 0.95755 0.0
O258 O 1.01003 0.4366 0.99255 0.0
Co259 Co 0.54734 0.44614 0.98304 0.0
Co260 Co 0.55456 0.47185 0.06318 0.0
Co261 Co 0.51598 0.50633 0.00216 0.0
O262 O 0.55261 0.48697 0.00663 0.0
H263 H 0.57375 0.50145 1.00038 0.0
O264 O 0.47936 0.52572 0.99779 0.0
Co265 Co 0.48476 0.56643 0.02189 0.0
Co266 Co 0.47745 0.54137 0.94189 0.0
H267 H 0.45821 0.51123 0.00392 0.0
O268 O 0.59213 0.46142 0.08462 0.0
O269 O 0.54886 0.43107 0.04349 0.0
O270 O 0.51817 0.47033 0.10087 0.0
O271 O 0.48582 0.47521 0.04323 0.0
O272 O 0.53753 0.53411 0.05346 0.0
O273 O 0.48526 0.60326 0.04503 0.0
O274 O 0.44123 0.5616 0.02772 0.0
O275 O 0.53159 0.57645 0.02103 0.0
O276 O 0.54619 0.53737 0.96108 0.0
O277 O 0.51384 0.54333 0.90399 0.0
O278 O 0.48245 0.58203 0.96171 0.0
O279 O 0.43947 0.55082 0.92076 0.0
C280 C 0.57904 0.42251 0.96161 0.0
C281 C 0.48576 0.44889 0.95433 0.0
C282 C 0.4894 0.46627 0.08282 0.0
C283 C 0.57664 0.43449 0.066 0.0
C284 C 0.45341 0.58985 0.04476 0.0
C285 C 0.5466 0.56377 0.0494 0.0
C286 C 0.54261 0.54679 0.92177 0.0
C287 C 0.45459 0.57799 0.93901 0.0
O288 O 0.54716 0.40908 0.96065 0.0
O289 O 0.5909 0.45094 0.97818 0.0
O290 O 0.49451 0.47859 0.95076 0.0
O291 O 0.50049 0.43619 0.983 0.0
Co292 Co 0.07937 0.46457 0.52115 0.0
Co293 Co 0.0556 0.46041 0.44207 0.0
Co294 Co 1.01592 0.50533 0.49836 0.0
O295 O 0.03528 0.46629 0.49447 0.0
H296 H 0.01831 0.44721 0.50035 0.0
O297 O 0.9964 0.54411 0.50287 0.0
Co298 Co 0.95204 0.54601 0.47725 0.0
Co299 Co 0.9755 0.54836 0.55581 0.0
H300 H 1.01334 0.56338 0.49769 0.0
O301 O 0.05824 0.42074 0.42029 0.0
O302 O 0.09737 0.45545 0.46194 0.0
O303 O 0.06403 0.49694 0.40654 0.0
O304 O 0.04176 0.52783 0.44784 0.0
O305 O 0.97737 0.48339 0.45785 0.0
O306 O 0.91373 0.5506 0.45182 0.0
O307 O 0.96137 0.58857 0.46427 0.0
O308 O 0.93607 0.50107 0.48426 0.0
O309 O 0.9902 0.48249 0.54843 0.0
O310 O 0.96583 0.51115 0.59016 0.0
O311 O 0.93473 0.55585 0.53697 0.0
O312 O 0.97507 0.58717 0.58111 0.0
C313 C 0.10112 0.43091 0.55047 0.0
C314 C 0.08519 0.53078 0.53221 0.0
C315 C 0.05863 0.5233 0.41519 0.0
C316 C 0.08845 0.42951 0.43728 0.0
C317 C 0.93019 0.58008 0.44937 0.0
C318 C 0.94652 0.47979 0.465 0.0
C319 C 0.97241 0.48549 0.5807 0.0
C320 C 0.9449 0.5806 0.56399 0.0
O321 O 0.1172 0.46047 0.54806 0.0
O322 O 0.0704 0.42184 0.53377 0.0
O323 O 0.05439 0.5277 0.53885 0.0
O324 O 0.09532 0.50897 0.51415 0.0
Co325 Co 0.57735 0.96761 0.52364 0.0
Co326 Co 0.55708 0.9704 0.44199 0.0
Co327 Co 0.51743 1.0066 0.50404 0.0
O328 O 0.53654 0.97045 0.49514 0.0
H329 H 0.51945 0.95075 0.49677 0.0
O330 O 0.4981 0.04275 0.51282 0.0
Co331 Co 0.45741 0.04515 0.483 0.0
Co332 Co 0.47623 0.0425 0.56501 0.0
H333 H 0.51512 0.06251 0.51151 0.0
O334 O 0.56007 0.93317 0.41606 0.0
O335 O 0.59656 0.96464 0.46505 0.0
O336 O 0.56676 0.0088 0.41067 0.0
O337 O 0.54641 0.03467 0.4614 0.0
O338 O 0.48345 0.98752 0.45628 0.0
O339 O 0.42175 0.05148 0.45526 0.0
O340 O 0.46872 0.08759 0.47926 0.0
O341 O 0.44006 1.00037 0.4822 0.0
O342 O 0.4886 0.97855 0.54683 0.0
O343 O 0.46487 1.00355 0.59464 0.0
O344 O 0.43727 0.04847 0.5406 0.0
O345 O 0.47266 0.07971 0.59085 0.0
C346 C 0.5958 0.93152 0.54457 0.0
C347 C 0.58265 0.03189 0.54591 0.0
C348 C 0.56267 0.03399 0.42686 0.0
C349 C 0.58815 0.93971 0.43897 0.0
C350 C 0.43885 0.0808 0.46054 0.0
C351 C 0.45236 0.98084 0.46242 0.0
C352 C 0.47058 0.97869 0.57977 0.0
C353 C 0.44512 0.0733 0.56679 0.0
O354 O 0.61326 0.96072 0.55012 0.0
O355 O 0.56575 0.92519 0.52653 0.0
O356 O 0.55151 0.02553 0.55169 0.0
O357 O 0.59485 0.0125 0.52552 0.0
H358 H 0.21852 0.20523 0.35168 0.0
H359 H 0.17082 0.15863 0.23098 0.0
H360 H 0.18407 0.16303 0.39432 0.0
H361 H 0.13472 0.11792 0.27288 0.0
H362 H 0.08288 0.03568 0.34893 0.0
H363 H 0.12606 0.07417 0.31243 0.0
H364 H 0.13371 0.13949 0.42252 0.0
H365 H 0.09222 0.0996 0.46017 0.0
C366 C 0.20062 0.18596 0.33423 0.0
C367 C 0.19774 0.18525 0.28782 0.0
C368 C 0.18044 0.16175 0.35876 0.0
C369 C 0.15622 0.13636 0.33763 0.0
C370 C 0.15342 0.13611 0.29102 0.0
C371 C 0.17404 0.15986 0.26665 0.0
C372 C 0.09454 0.05798 0.36579 0.0
C373 C 0.08432 0.0644 0.40762 0.0
C374 C 0.11901 0.08052 0.34446 0.0
C375 C 0.13329 0.11082 0.36347 0.0
C376 C 0.12391 0.11665 0.40641 0.0
C377 C 0.10002 0.09366 0.4283 0.0
H378 H 0.8723 0.18763 0.24753 0.0
H379 H 0.85064 0.20715 0.38147 0.0
H380 H 0.90701 0.15527 0.2748 0.0
H381 H 0.88581 0.17453 0.40889 0.0
H382 H 0.97761 0.13223 0.43076 0.0
H383 H 0.94902 0.17094 0.40675 0.0
H384 H 0.88665 0.10212 0.31497 0.0
H385 H 0.91427 0.06324 0.33945 0.0
C386 C 0.87532 0.18528 0.28286 0.0
C387 C 0.85857 0.19945 0.31249 0.0
C388 C 0.89512 0.16679 0.29836 0.0
C389 C 0.89866 0.16233 0.34375 0.0
C390 C 0.8834 0.17784 0.3737 0.0
C391 C 0.86328 0.19627 0.35809 0.0
C392 C 0.95768 0.12531 0.40564 0.0
C393 C 0.94798 0.09459 0.38724 0.0
C394 C 0.94141 0.14745 0.39202 0.0
C395 C 0.91587 0.13935 0.35906 0.0
C396 C 0.90655 0.10889 0.34022 0.0
C397 C 0.92234 0.08667 0.3543 0.0
H398 H 0.81876 0.80569 0.35244 0.0
H399 H 0.86162 0.85806 0.23995 0.0
H400 H 0.8602 0.84142 0.40148 0.0
H401 H 0.90382 0.89336 0.28884 0.0
H402 H 0.9592 0.96614 0.3925 0.0
H403 H 0.91354 0.93365 0.34603 0.0
H404 H 0.91901 0.85182 0.41886 0.0
H405 H 0.96419 0.88449 0.46617 0.0
C406 C 0.83691 0.82504 0.33825 0.0
C407 C 0.83707 0.82909 0.2924 0.0
C408 C 0.86086 0.84533 0.36631 0.0
C409 C 0.8856 0.87004 0.3491 0.0
C410 C 0.88498 0.87472 0.30327 0.0
C411 C 0.86089 0.85446 0.2752 0.0
C412 C 0.95065 0.94121 0.39871 0.0
C413 C 0.96545 0.92787 0.433 0.0
C414 C 0.92453 0.92257 0.37189 0.0
C415 C 0.91261 0.89012 0.37861 0.0
C416 C 0.92725 0.87682 0.41315 0.0
C417 C 0.95333 0.89549 0.4401 0.0
H418 H 0.23933 0.84193 0.40625 0.0
H419 H 0.16026 0.84058 0.30937 0.0
H420 H 0.21308 0.86871 0.45964 0.0
H421 H 0.13396 0.86679 0.36297 0.0
H422 H 0.07689 0.86414 0.48848 0.0
H423 H 0.11339 0.83972 0.44926 0.0
H424 H 0.18974 0.92812 0.45257 0.0
H425 H 0.153 0.95312 0.49149 0.0
C426 C 0.21651 0.84759 0.39639 0.0
C427 C 0.20148 0.83909 0.35405 0.0
C428 C 0.20172 0.86288 0.42676 0.0
C429 C 0.17161 0.8693 0.4151 0.0
C430 C 0.15718 0.86172 0.37239 0.0
C431 C 0.17217 0.84688 0.34187 0.0
C432 C 0.10174 0.87827 0.48188 0.0
C433 C 0.11188 0.91068 0.49189 0.0
C434 C 0.12252 0.86426 0.45957 0.0
C435 C 0.15381 0.88237 0.44757 0.0
C436 C 0.1655 0.91395 0.46163 0.0
C437 C 0.14455 0.92812 0.48385 0.0
H438 H 0.22633 0.86028 0.65303 0.0
H439 H 0.13922 0.78498 0.67958 0.0
H440 H 0.19098 0.89291 0.62892 0.0
H441 H 0.1036 0.81808 0.65649 0.0
H442 H 0.05219 0.88276 0.57872 0.0
H443 H 0.08536 0.84611 0.59382 0.0
H444 H 0.15676 0.91863 0.67117 0.0
H445 H 0.1245 0.95538 0.655 0.0
C446 C 0.19956 0.85069 0.65338 0.0
C447 C 0.18536 0.82041 0.66863 0.0
C448 C 0.17936 0.86938 0.63983 0.0
C449 C 0.14463 0.85821 0.64173 0.0
C450 C 0.13033 0.82722 0.6547 0.0
C451 C 0.15063 0.80837 0.66801 0.0
C452 C 0.07496 0.8908 0.59899 0.0
C453 C 0.08598 0.92204 0.61524 0.0
C454 C 0.09383 0.86981 0.60771 0.0
C455 C 0.12383 0.87972 0.63307 0.0
C456 C 0.13413 0.91059 0.6506 0.0
C457 C 0.11543 0.93154 0.64174 0.0
H458 H 0.2134 0.20764 0.65401 0.0
H459 H 0.16703 0.16003 0.76804 0.0
H460 H 0.17128 0.17211 0.60568 0.0
H461 H 0.12422 0.1248 0.71966 0.0
H462 H 0.06936 0.05008 0.61685 0.0
H463 H 0.11438 0.08272 0.66417 0.0
H464 H 0.11258 0.1636 0.58689 0.0
H465 H 0.06795 0.1308 0.53885 0.0
C466 C 0.19429 0.18939 0.66872 0.0
C467 C 0.19339 0.18662 0.71478 0.0
C468 C 0.16998 0.16922 0.64104 0.0
C469 C 0.14414 0.14585 0.65879 0.0
C470 C 0.1439 0.14242 0.70489 0.0
C471 C 0.16834 0.16261 0.73263 0.0
C472 C 0.07856 0.07483 0.60986 0.0
C473 C 0.065 0.08786 0.57405 0.0
C474 C 0.10429 0.09357 0.63717 0.0
C475 C 0.1171 0.12577 0.62936 0.0
C476 C 0.10361 0.13878 0.59346 0.0
C477 C 0.07786 0.12002 0.5661 0.0
H478 H 0.87567 0.17662 0.6989 0.0
H479 H 0.78865 0.16345 0.61121 0.0
H480 H 0.90195 0.15219 0.64319 0.0
H481 H 0.81493 0.13848 0.55568 0.0
H482 H 0.87848 0.0616 0.51519 0.0
H483 H 0.84221 0.08568 0.55644 0.0
H484 H 0.91752 0.17477 0.55874 0.0
H485 H 0.95357 0.15119 0.51721 0.0
C486 C 0.86204 0.16804 0.66803 0.0
C487 C 0.83041 0.17201 0.65897 0.0
C488 C 0.87707 0.15434 0.63619 0.0
C489 C 0.86043 0.14408 0.59528 0.0
C490 C 0.8281 0.1465 0.58702 0.0
C491 C 0.81323 0.16069 0.61865 0.0
C492 C 0.88675 0.08657 0.52307 0.0
C493 C 0.91911 0.1044 0.5142 0.0
C494 C 0.86606 0.10023 0.54666 0.0
C495 C 0.87772 0.13168 0.56136 0.0
C496 C 0.90849 0.15027 0.5482 0.0
C497 C 0.929 0.13676 0.5245 0.0
H498 H 0.85937 0.85436 0.77117 0.0
H499 H 0.81318 0.80808 0.64953 0.0
H500 H 0.89528 0.89569 0.73022 0.0
H501 H 0.84744 0.85098 0.60776 0.0
H502 H 0.93961 0.91583 0.5442 0.0
H503 H 0.89795 0.87534 0.58058 0.0
H504 H 0.90363 0.93966 0.69138 0.0
H505 H 0.9471 0.97873 0.65621 0.0
C506 C 0.85642 0.85333 0.73547 0.0
C507 C 0.83322 0.82783 0.71378 0.0
C508 C 0.87693 0.87746 0.71165 0.0
C509 C 0.87449 0.87751 0.66506 0.0
C510 C 0.85076 0.85202 0.64336 0.0
C511 C 0.8307 0.82741 0.66736 0.0
C512 C 0.93136 0.9214 0.57597 0.0
C513 C 0.94662 0.95053 0.59729 0.0
C514 C 0.90735 0.89807 0.59711 0.0
C515 C 0.8974 0.90345 0.63988 0.0
C516 C 0.91117 0.93366 0.65947 0.0
C517 C 0.93579 0.95652 0.63891 0.0
H518 H 0.29029 0.19414 0.11765 0.0
H519 H 0.3484 0.19629 0.23879 0.0
H520 H 0.32171 0.16153 0.08226 0.0
H521 H 0.37975 0.16432 0.20362 0.0
H522 H 0.45586 0.13777 0.11566 0.0
H523 H 0.4216 0.16742 0.14929 0.0
H524 H 0.33462 0.10861 0.07902 0.0
H525 H 0.36937 0.0783 0.04536 0.0
C526 C 0.30968 0.18777 0.13694 0.0
C527 C 0.31643 0.19834 0.18153 0.0
C528 C 0.32775 0.16876 0.11654 0.0
C529 C 0.35383 0.15995 0.13953 0.0
C530 C 0.36039 0.17055 0.18407 0.0
C531 C 0.34206 0.189 0.20457 0.0
C532 C 0.42939 0.13077 0.10731 0.0
C533 C 0.4158 0.10507 0.07763 0.0
C534 C 0.40948 0.14794 0.127 0.0
C535 C 0.37483 0.14081 0.11756 0.0
C536 C 0.36107 0.11527 0.08741 0.0
C537 C 0.38107 0.09755 0.06821 0.0
H538 H 0.87856 0.30624 0.19498 0.0
H539 H 0.80439 0.35364 0.15726 0.0
H540 H 0.92211 0.3509 0.1712 0.0
H541 H 0.84812 0.39877 0.13467 0.0
H542 H 0.93466 0.45583 0.05341 0.0
H543 H 0.88856 0.41508 0.07988 0.0
H544 H 0.94933 0.40448 0.19412 0.0
H545 H 0.99615 0.44467 0.16677 0.0
C546 C 0.87154 0.32615 0.18143 0.0
C547 C 0.83804 0.32641 0.17802 0.0
C548 C 0.89654 0.35192 0.16833 0.0
C549 C 0.88863 0.37864 0.15182 0.0
C550 C 0.85503 0.37852 0.14715 0.0
C551 C 0.82996 0.3526 0.15997 0.0
C552 C 0.93812 0.44537 0.08469 0.0
C553 C 0.9693 0.45329 0.10774 0.0
C554 C 0.91156 0.42193 0.09987 0.0
C555 C 0.91546 0.40613 0.13866 0.0
C556 C 0.94585 0.41567 0.16344 0.0
C557 C 0.97256 0.43895 0.14806 0.0
H558 H 0.70062 0.83877 0.23982 0.0
H559 H 0.71523 0.79996 0.11337 0.0
H560 H 0.66784 0.86979 0.20395 0.0
H561 H 0.68219 0.83153 0.07701 0.0
H562 H 0.59279 0.87437 0.03372 0.0
H563 H 0.62577 0.84065 0.06496 0.0
H564 H 0.67392 0.91469 0.15915 0.0
H565 H 0.6415 0.94772 0.1287 0.0
C566 C 0.69703 0.83681 0.20421 0.0
C567 C 0.71113 0.81666 0.17988 0.0
C568 C 0.67814 0.85493 0.18338 0.0
C569 C 0.67216 0.85373 0.13711 0.0
C570 C 0.68584 0.83323 0.1126 0.0
C571 C 0.70514 0.81519 0.13356 0.0
C572 C 0.61044 0.88345 0.06105 0.0
C573 C 0.61387 0.914 0.07859 0.0
C574 C 0.62959 0.86408 0.07898 0.0
C575 C 0.65255 0.87445 0.11539 0.0
C576 C 0.65624 0.90519 0.132 0.0
C577 C 0.63752 0.92444 0.11404 0.0
H578 H 0.22356 0.68806 0.18669 0.0
H579 H 0.16821 0.75103 0.13875 0.0
H580 H 0.18677 0.64498 0.14241 0.0
H581 H 0.13081 0.70792 0.09544 0.0
H582 H 0.07915 0.6304 1.00003 0.0
H583 H 0.12401 0.67225 0.0344 0.0
H584 H 0.13086 0.61222 0.14358 0.0
H585 H 0.08657 0.56988 0.1082 0.0
C586 C 0.2037 0.69275 0.1663 0.0
C587 C 0.19863 0.72287 0.16634 0.0
C588 C 0.18242 0.66798 0.1412 0.0
C589 C 0.15554 0.67277 0.11558 0.0
C590 C 0.15142 0.70332 0.1143 0.0
C591 C 0.17279 0.7281 0.13927 0.0
C592 C 0.09042 0.62602 0.03123 0.0
C593 C 0.07902 0.59693 0.0517 0.0
C594 C 0.11607 0.65012 0.05106 0.0
C595 C 0.13083 0.6459 0.09214 0.0
C596 C 0.12033 0.6163 0.11175 0.0
C597 C 0.09482 0.59202 0.09162 0.0
H598 H 0.35379 0.79489 0.80483 0.0
H599 H 0.28546 0.84046 0.86137 0.0
H600 H 0.39943 0.82852 0.85005 0.0
H601 H 0.33145 0.87435 0.90724 0.0
H602 H 0.47195 0.87718 0.95882 0.0
H603 H 0.42204 0.84053 0.92559 0.0
H604 H 0.38157 0.91799 0.89464 0.0
H605 H 0.4313 0.95476 0.9285 0.0
C606 C 0.34844 0.81182 0.82751 0.0
C607 C 0.31605 0.81507 0.82952 0.0
C608 C 0.37462 0.83105 0.85362 0.0
C609 C 0.36917 0.85421 0.8823 0.0
C610 C 0.33654 0.85694 0.88518 0.0
C611 C 0.31018 0.83743 0.85918 0.0
C612 C 0.45235 0.88648 0.94532 0.0
C613 C 0.45597 0.91906 0.94589 0.0
C614 C 0.42373 0.86541 0.92609 0.0
C615 C 0.39789 0.87631 0.90706 0.0
C616 C 0.40087 0.90875 0.90924 0.0
C617 C 0.42956 0.92987 0.92836 0.0
H618 H 0.18136 0.27641 0.91069 0.0
H619 H 0.24923 0.35918 0.86 0.0
H620 H 0.14936 0.30916 0.94293 0.0
H621 H 0.21681 0.39184 0.8909 0.0
H622 H 0.15856 0.44533 0.97112 0.0
H623 H 0.19641 0.4136 0.95432 0.0
H624 H 0.11224 0.33645 0.91102 0.0
H625 H 0.07478 0.36766 0.92847 0.0
C626 C 0.18974 0.30165 0.90709 0.0
C627 C 0.21761 0.3152 0.88255 0.0
C628 C 0.17125 0.32043 0.92517 0.0
C629 C 0.18009 0.35313 0.91881 0.0
C630 C 0.20928 0.36682 0.89667 0.0
C631 C 0.22784 0.34806 0.87879 0.0
C632 C 0.14824 0.42167 0.95773 0.0
C633 C 0.11365 0.4092 0.95068 0.0
C634 C 0.16991 0.40343 0.94824 0.0
C635 C 0.15743 0.37233 0.93152 0.0
C636 C 0.12281 0.36001 0.92467 0.0
C637 C 0.10127 0.37813 0.93418 0.0
H638 H 0.73284 0.14206 0.81324 0.0
H639 H 0.6911 0.21314 0.86736 0.0
H640 H 0.68532 0.10105 0.83791 0.0
H641 H 0.64386 0.17215 0.89151 0.0
H642 H 0.546 0.0985 0.86271 0.0
H643 H 0.59793 0.13433 0.84115 0.0
H644 H 0.65338 0.07847 0.90885 0.0
H645 H 0.60134 0.04235 0.93095 0.0
C646 C 0.71403 0.14897 0.83127 0.0
C647 C 0.71552 0.18093 0.83766 0.0
C648 C 0.68683 0.12546 0.84523 0.0
C649 C 0.66068 0.1336 0.86549 0.0
C650 C 0.66343 0.16538 0.87497 0.0
C651 C 0.69065 0.18882 0.86143 0.0
C652 C 0.56912 0.09336 0.87239 0.0
C653 C 0.56943 0.06771 0.89907 0.0
C654 C 0.59887 0.1141 0.86037 0.0
C655 C 0.62953 0.10948 0.87433 0.0
C656 C 0.62998 0.0826 0.89804 0.0
C657 C 0.60016 0.06191 0.91048 0.0
H658 H 0.79343 0.67325 0.90034 0.0
H659 H 0.88459 0.73943 0.86402 0.0
H660 H 0.82484 0.63735 0.92609 0.0
H661 H 0.91589 0.70312 0.88744 0.0
H662 H 0.96819 0.63669 0.94877 0.0
H663 H 0.93719 0.67573 0.94138 0.0
H664 H 0.85081 0.60317 0.89153 0.0
H665 H 0.88131 0.56407 0.90122 0.0
C666 C 0.82028 0.68033 0.89861 0.0
C667 C 0.83657 0.70903 0.88002 0.0
C668 C 0.83828 0.65959 0.91278 0.0
C669 C 0.87291 0.66688 0.90796 0.0
C670 C 0.88935 0.69662 0.89202 0.0
C671 C 0.87139 0.71752 0.87848 0.0
C672 C 0.94247 0.62906 0.9366 0.0
C673 C 0.9272 0.59722 0.92578 0.0
C674 C 0.92471 0.65152 0.93206 0.0
C675 C 0.89133 0.64277 0.91597 0.0
C676 C 0.87617 0.61085 0.90503 0.0
C677 C 0.89383 0.58838 0.90999 0.0
H678 H 0.24411 0.34226 0.10467 0.0
H679 H 0.15056 0.27559 0.13093 0.0
H680 H 0.21443 0.37906 0.07699 0.0
H681 H 0.12085 0.31266 0.105 0.0
H682 H 0.07274 0.38132 0.04124 0.0
H683 H 0.10359 0.34209 0.0483 0.0
H684 H 0.18627 0.412 0.11204 0.0
H685 H 0.15608 0.45142 0.10304 0.0
C686 C 0.21715 0.33525 0.10372 0.0
C687 C 0.19965 0.30617 0.12022 0.0
C688 C 0.20012 0.35647 0.08834 0.0
C689 C 0.16522 0.3492 0.0896 0.0
C690 C 0.14767 0.31912 0.10325 0.0
C691 C 0.16471 0.29781 0.11824 0.0
C692 C 0.09764 0.38839 0.05638 0.0
C693 C 0.11188 0.41956 0.07167 0.0
C694 C 0.1153 0.36581 0.06063 0.0
C695 C 0.14749 0.37373 0.08083 0.0
C696 C 0.16182 0.40504 0.09558 0.0
C697 C 0.14429 0.42765 0.09096 0.0
H698 H 0.15797 0.71375 0.80322 0.0
H699 H 0.23224 0.66671 0.84213 0.0
H700 H 0.11462 0.66978 0.82952 0.0
H701 H 0.18887 0.62243 0.8669 0.0
H702 H 0.10406 0.56396 0.94731 0.0
H703 H 0.149 0.60621 0.92167 0.0
H704 H 0.08745 0.61582 0.80773 0.0
H705 H 0.0417 0.57409 0.83432 0.0
C706 C 0.16511 0.69421 0.81775 0.0
C707 C 0.19857 0.69374 0.82043 0.0
C708 C 0.14021 0.6688 0.83224 0.0
C709 C 0.14823 0.64234 0.84952 0.0
C710 C 0.18183 0.64248 0.8539 0.0
C711 C 0.20673 0.66795 0.83971 0.0
C712 C 0.10018 0.57456 0.91629 0.0
C713 C 0.06909 0.56574 0.89303 0.0
C714 C 0.12606 0.5989 0.90161 0.0
C715 C 0.12164 0.61475 0.86305 0.0
C716 C 0.09131 0.6046 0.83823 0.0
C717 C 0.06525 0.58039 0.85313 0.0
H718 H 0.32898 0.17196 0.76304 0.0
H719 H 0.32027 0.21521 0.8887 0.0
H720 H 0.36161 0.1407 0.79859 0.0
H721 H 0.35308 0.18335 0.92479 0.0
H722 H 0.44143 0.13876 0.96574 0.0
H723 H 0.40859 0.17268 0.93481 0.0
H724 H 0.35618 0.09709 0.84527 0.0
H725 H 0.38853 0.06389 0.87536 0.0
C726 C 0.33381 0.17482 0.79842 0.0
C727 C 0.32142 0.19631 0.82264 0.0
C728 C 0.35261 0.15657 0.8191 0.0
C729 C 0.36017 0.15893 0.86506 0.0
C730 C 0.34817 0.18072 0.88942 0.0
C731 C 0.32901 0.19893 0.86864 0.0
C732 C 0.42285 0.12938 0.93951 0.0
C733 C 0.41824 0.09835 0.9231 0.0
C734 C 0.4038 0.14887 0.92176 0.0
C735 C 0.37971 0.13812 0.88669 0.0
C736 C 0.37478 0.10689 0.87131 0.0
C737 C 0.39345 0.08754 0.88906 0.0
H738 H 0.81495 0.33015 0.81452 0.0
H739 H 0.86756 0.26702 0.86937 0.0
H740 H 0.85227 0.37397 0.85704 0.0
H741 H 0.90561 0.31077 0.91055 0.0
H742 H 0.95865 0.38967 0.00217 0.0
H743 H 0.91308 0.3479 0.96907 0.0
H744 H 0.90818 0.40596 0.85687 0.0
H745 H 0.95305 0.44831 0.89116 0.0
C746 C 0.83436 0.32562 0.83599 0.0
C747 C 0.83842 0.29518 0.83856 0.0
C748 C 0.85596 0.35079 0.86006 0.0
C749 C 0.88223 0.34612 0.88711 0.0
C750 C 0.88547 0.31535 0.89066 0.0
C751 C 0.86373 0.29018 0.86685 0.0
C752 C 0.94761 0.39362 0.9706 0.0
C753 C 0.95972 0.42212 0.94897 0.0
C754 C 0.92157 0.36957 0.95146 0.0
C755 C 0.90719 0.3732 0.90984 0.0
C756 C 0.91838 0.40231 0.88909 0.0
C757 C 0.94422 0.4266 0.90861 0.0
H758 H 0.74225 0.81811 0.88313 0.0
H759 H 0.68336 0.81482 0.76238 0.0
H760 H 0.71094 0.85087 0.91832 0.0
H761 H 0.65211 0.847 0.79738 0.0
H762 H 0.57652 0.87411 0.88567 0.0
H763 H 0.61064 0.84438 0.85195 0.0
H764 H 0.6979 0.90353 0.92126 0.0
H765 H 0.66328 0.93391 0.95504 0.0
C766 C 0.72271 0.82427 0.86388 0.0
C767 C 0.71569 0.81332 0.81948 0.0
C768 C 0.70471 0.84338 0.88416 0.0
C769 C 0.67845 0.85192 0.86125 0.0
C770 C 0.67162 0.84097 0.81687 0.0
C771 C 0.68989 0.8224 0.79647 0.0
C772 C 0.60302 0.88116 0.8938 0.0
C773 C 0.61673 0.90697 0.92327 0.0
C774 C 0.62286 0.86395 0.87404 0.0
C775 C 0.65754 0.87115 0.88318 0.0
C776 C 0.67142 0.89682 0.9131 0.0
C777 C 0.65149 0.91456 0.93238 0.0
H778 H 0.78423 0.66757 0.10725 0.0
H779 H 0.87387 0.74283 0.13298 0.0
H780 H 0.81675 0.63543 0.0747 0.0
H781 H 0.90669 0.71044 0.10429 0.0
H782 H 0.96177 0.65627 0.03024 0.0
H783 H 0.92517 0.68799 0.04775 0.0
H784 H 0.85199 0.60495 0.08968 0.0
H785 H 0.88785 0.57271 0.06747 0.0
C786 C 0.8109 0.67727 0.10558 0.0
C787 C 0.82651 0.70777 0.12225 0.0
C788 C 0.82971 0.6587 0.08752 0.0
C789 C 0.86469 0.66993 0.08681 0.0
C790 C 0.87993 0.70085 0.10288 0.0
C791 C 0.86107 0.71959 0.11972 0.0
C792 C 0.93777 0.64468 0.04298 0.0
C793 C 0.92784 0.61193 0.04771 0.0
C794 C 0.91671 0.66303 0.05353 0.0
C795 C 0.88554 0.64948 0.07122 0.0
C796 C 0.87548 0.6165 0.07569 0.0
C797 C 0.89621 0.59791 0.06347 0.0
H798 H 0.32072 0.8728 0.23215 0.0
H799 H 0.32635 0.81034 0.12356 0.0
H800 H 0.36728 0.91325 0.20394 0.0
H801 H 0.37235 0.85138 0.09485 0.0
H802 H 0.43043 0.95271 0.04496 0.0
H803 H 0.37929 0.91914 0.07332 0.0
H804 H 0.43432 0.90158 0.18884 0.0
H805 H 0.4861 0.93454 0.16003 0.0
C806 C 0.33121 0.86805 0.20157 0.0
C807 C 0.31988 0.83847 0.17985 0.0
C808 C 0.35795 0.89109 0.18578 0.0
C809 C 0.37313 0.88513 0.14754 0.0
C810 C 0.36076 0.8563 0.12444 0.0
C811 C 0.33451 0.83297 0.14075 0.0
C812 C 0.43163 0.94232 0.07692 0.0
C813 C 0.46227 0.94634 0.10047 0.0
C814 C 0.40239 0.92301 0.09285 0.0
C815 C 0.40319 0.90805 0.13304 0.0
C816 C 0.43336 0.91318 0.15779 0.0
C817 C 0.46284 0.93195 0.14137 0.0
H818 H 0.75018 0.17141 0.1295 0.0
H819 H 0.68366 0.22087 0.18165 0.0
H820 H 0.7034 0.13678 0.08554 0.0
H821 H 0.63738 0.18665 0.13842 0.0
H822 H 0.56288 0.13528 0.03432 0.0
H823 H 0.614 0.17217 0.06387 0.0
H824 H 0.65251 0.09466 0.10132 0.0
H825 H 0.60156 0.0576 0.0711 0.0
C826 C 0.72574 0.17519 0.13101 0.0
C827 C 0.72058 0.19885 0.15894 0.0
C828 C 0.69892 0.15526 0.10615 0.0
C829 C 0.66659 0.1589 0.10845 0.0
C830 C 0.66192 0.18338 0.13526 0.0
C831 C 0.68851 0.20299 0.16022 0.0
C832 C 0.58229 0.12599 0.0485 0.0
C833 C 0.57775 0.09335 0.05088 0.0
C834 C 0.61163 0.14721 0.06556 0.0
C835 C 0.63727 0.13641 0.08538 0.0
C836 C 0.63339 0.10381 0.08603 0.0
C837 C 0.60399 0.08254 0.06901 0.0
H838 H 0.68332 0.64448 0.72862 0.0
H839 H 0.70708 0.7043 0.8457 0.0
H840 H 0.64377 0.60481 0.76898 0.0
H841 H 0.6669 0.66466 0.88628 0.0
H842 H 0.60631 0.57599 0.95539 0.0
H843 H 0.65176 0.61195 0.91755 0.0
H844 H 0.58989 0.59826 0.79751 0.0
H845 H 0.54511 0.56235 0.83479 0.0
C846 C 0.68021 0.64913 0.76313 0.0
C847 C 0.69823 0.67775 0.78373 0.0
C848 C 0.6573 0.62638 0.78631 0.0
C849 C 0.65161 0.63147 0.83096 0.0
C850 C 0.67061 0.65968 0.85209 0.0
C851 C 0.69359 0.68253 0.82876 0.0
C852 C 0.60264 0.58027 0.92072 0.0
C853 C 0.57191 0.56602 0.89825 0.0
C854 C 0.62862 0.60119 0.89909 0.0
C855 C 0.62472 0.60821 0.85427 0.0
C856 C 0.59424 0.59328 0.83174 0.0
C857 C 0.56833 0.57266 0.85332 0.0
H858 H 0.33514 0.70827 0.89464 0.0
H859 H 0.39608 0.70194 0.78495 0.0
H860 H 0.36705 0.68094 0.94095 0.0
H861 H 0.42857 0.67563 0.83173 0.0
H862 H 0.38922 0.57538 0.93072 0.0
H863 H 0.36581 0.61863 0.91169 0.0
H864 H 0.46451 0.68285 0.91592 0.0
H865 H 0.48802 0.63975 0.93648 0.0
C866 C 0.35599 0.70188 0.88095 0.0
C867 C 0.36305 0.70654 0.83629 0.0
C868 C 0.37421 0.68653 0.90744 0.0
C869 C 0.40013 0.67662 0.88965 0.0
C870 C 0.40887 0.6836 0.84602 0.0
C871 C 0.39018 0.69825 0.81927 0.0
C872 C 0.40577 0.59888 0.92854 0.0
C873 C 0.44031 0.60438 0.93394 0.0
C874 C 0.39243 0.62356 0.91833 0.0
C875 C 0.41359 0.65373 0.91256 0.0
C876 C 0.44796 0.65967 0.92065 0.0
C877 C 0.46127 0.63509 0.93203 0.0
H878 H 0.31993 0.30101 0.84237 0.0
H879 H 0.36317 0.3523 0.72921 0.0
H880 H 0.35753 0.33997 0.8914 0.0
H881 H 0.40178 0.39114 0.77858 0.0
H882 H 0.45066 0.46684 0.88582 0.0
H883 H 0.40716 0.43275 0.8369 0.0
H884 H 0.41697 0.35174 0.90835 0.0
H885 H 0.45969 0.38547 0.95725 0.0
C886 C 0.33732 0.32082 0.82799 0.0
C887 C 0.33882 0.32357 0.782 0.0
C888 C 0.35903 0.34303 0.85609 0.0
C889 C 0.38294 0.36839 0.83887 0.0
C890 C 0.38351 0.37192 0.79283 0.0
C891 C 0.36158 0.34965 0.76458 0.0
C892 C 0.44331 0.44177 0.89119 0.0
C893 C 0.4586 0.42887 0.92545 0.0
C894 C 0.41856 0.42227 0.86305 0.0
C895 C 0.40854 0.38959 0.8689 0.0
C896 C 0.4237 0.37686 0.9034 0.0
C897 C 0.44838 0.39623 0.93131 0.0
H898 H 0.66854 0.33004 0.7748 0.0
H899 H 0.73254 0.33265 0.89106 0.0
H900 H 0.63571 0.35766 0.81589 0.0
H901 H 0.69949 0.36039 0.93234 0.0
H902 H 0.64714 0.43972 0.96695 0.0
H903 H 0.68378 0.41334 0.93076 0.0
H904 H 0.59796 0.34059 0.88042 0.0
H905 H 0.56143 0.36668 0.91616 0.0
C906 C 0.67569 0.33676 0.80905 0.0
C907 C 0.70279 0.32913 0.83 0.0
C908 C 0.65686 0.35236 0.83256 0.0
C909 C 0.66498 0.36072 0.87727 0.0
C910 C 0.69287 0.35415 0.89784 0.0
C911 C 0.71161 0.33828 0.87434 0.0
C912 C 0.63618 0.41799 0.94837 0.0
C913 C 0.60146 0.40547 0.94377 0.0
C914 C 0.65711 0.4029 0.92793 0.0
C915 C 0.64351 0.37533 0.90238 0.0
C916 C 0.60892 0.36218 0.89934 0.0
C917 C 0.58808 0.37705 0.91999 0.0
H918 H 0.63532 0.30357 0.20239 0.0
H919 H 0.70182 0.30896 0.09551 0.0
H920 H 0.60142 0.32931 0.15727 0.0
H921 H 0.66835 0.3357 0.0508 0.0
H922 H 0.64215 0.43743 0.07237 0.0
H923 H 0.66617 0.39363 0.08415 0.0
H924 H 0.56783 0.32863 0.07643 0.0
H925 H 0.5437 0.37246 0.06324 0.0
C926 C 0.64214 0.30965 0.16888 0.0
C927 C 0.67129 0.30509 0.15246 0.0
C928 C 0.62261 0.32391 0.14296 0.0
C929 C 0.63252 0.33427 0.10083 0.0
C930 C 0.66031 0.32756 0.08315 0.0
C931 C 0.67944 0.3126 0.10876 0.0
C932 C 0.62579 0.41372 0.07242 0.0
C933 C 0.5912 0.40813 0.06826 0.0
C934 C 0.63948 0.38872 0.0783 0.0
C935 C 0.61864 0.35804 0.081 0.0
C936 C 0.58417 0.3522 0.07403 0.0
C937 C 0.5705 0.37718 0.06703 0.0
H938 H 0.67271 0.65916 0.27109 0.0
H939 H 0.71433 0.71193 0.15826 0.0
H940 H 0.63409 0.62049 0.22177 0.0
H941 H 0.67661 0.67302 0.10908 0.0
H942 H 0.57319 0.6271 0.04561 0.0
H943 H 0.61716 0.66069 0.093 0.0
H944 H 0.62793 0.57953 0.1633 0.0
H945 H 0.58319 0.54564 0.116 0.0
C946 C 0.67398 0.66215 0.23575 0.0
C947 C 0.69624 0.68863 0.21847 0.0
C948 C 0.65203 0.63995 0.20751 0.0
C949 C 0.65206 0.6439 0.16155 0.0
C950 C 0.67555 0.66962 0.14436 0.0
C951 C 0.69732 0.69179 0.17252 0.0
C952 C 0.58499 0.61629 0.07096 0.0
C953 C 0.5746 0.58368 0.07709 0.0
C954 C 0.61042 0.63556 0.09796 0.0
C955 C 0.62616 0.62276 0.13179 0.0
C956 C 0.61609 0.59009 0.1377 0.0
C957 C 0.5906 0.5707 0.1105 0.0
H958 H 0.36313 0.68118 0.23395 0.0
H959 H 0.3077 0.68859 0.11316 0.0
H960 H 0.39441 0.65123 0.19422 0.0
H961 H 0.33913 0.65846 0.0733 0.0
H962 H 0.38544 0.57549 0.03635 0.0
H963 H 0.3495 0.60241 0.07332 0.0
H964 H 0.43636 0.66895 0.13361 0.0
H965 H 0.47211 0.64242 0.09707 0.0
C966 C 0.35754 0.6762 0.19896 0.0
C967 C 0.33339 0.68736 0.17636 0.0
C968 C 0.37542 0.65917 0.1763 0.0
C969 C 0.36923 0.6529 0.13079 0.0
C970 C 0.34417 0.66301 0.10845 0.0
C971 C 0.32642 0.68031 0.13112 0.0
C972 C 0.39675 0.59593 0.0574 0.0
C973 C 0.43149 0.60676 0.06418 0.0
C974 C 0.37626 0.61132 0.0783 0.0
C975 C 0.39033 0.63738 0.10657 0.0
C976 C 0.42501 0.64856 0.11245 0.0
C977 C 0.44542 0.63349 0.09129 0.0
H978 H 0.32611 0.30739 0.15793 0.0
H979 H 0.35035 0.36594 0.27619 0.0
H980 H 0.36587 0.34758 0.11771 0.0
H981 H 0.38942 0.40625 0.23616 0.0
H982 H 0.48722 0.45053 0.16972 0.0
H983 H 0.44292 0.41405 0.20695 0.0
H984 H 0.38071 0.40014 0.08718 0.0
H985 H 0.42574 0.4366 0.04935 0.0
C986 C 0.33962 0.329 0.17522 0.0
C987 C 0.33524 0.33326 0.22045 0.0
C988 C 0.36235 0.35219 0.15208 0.0
C989 C 0.38135 0.38025 0.17359 0.0
C990 C 0.37592 0.38481 0.21849 0.0
C991 C 0.35328 0.3617 0.24151 0.0
C992 C 0.46402 0.44005 0.15124 0.0
C993 C 0.46026 0.44675 0.10636 0.0
C994 C 0.43837 0.41909 0.1728 0.0
C995 C 0.40793 0.40392 0.15034 0.0
C996 C 0.40382 0.41105 0.1056 0.0
C997 C 0.42956 0.43227 0.08396 0.0
H998 H 0.84557 0.6856 0.73738 0.0
H999 H 0.79756 0.69226 0.61092 0.0
H1000 H 0.87796 0.65419 0.70375 0.0
H1001 H 0.83049 0.66059 0.57675 0.0
H1002 H 0.87885 0.57859 0.53702 0.0
H1003 H 0.84312 0.60928 0.56703 0.0
H1004 H 0.92322 0.65698 0.65853 0.0
H1005 H 0.95825 0.62679 0.62908 0.0
C1006 C 0.84175 0.68047 0.70223 0.0
C1007 C 0.81854 0.69204 0.67735 0.0
C1008 C 0.86078 0.66236 0.68258 0.0
C1009 C 0.85764 0.65457 0.63688 0.0
C1010 C 0.83394 0.66561 0.61193 0.0
C1011 C 0.81498 0.68409 0.63167 0.0
C1012 C 0.88888 0.59565 0.56351 0.0
C1013 C 0.92186 0.59964 0.58035 0.0
C1014 C 0.86828 0.61352 0.58081 0.0
C1015 C 0.87961 0.63583 0.61612 0.0
C1016 C 0.91271 0.63988 0.63227 0.0
C1017 C 0.9332 0.62243 0.61484 0.0
H1018 H 0.29997 0.82693 0.62347 0.0
H1019 H 0.38064 0.79061 0.6711 0.0
H1020 H 0.34026 0.87298 0.59628 0.0
H1021 H 0.42078 0.83681 0.64401 0.0
H1022 H 0.47959 0.92099 0.56161 0.0
H1023 H 0.44145 0.86987 0.57623 0.0
H1024 H 0.37956 0.91587 0.64685 0.0
H1025 H 0.41736 0.96695 0.63236 0.0
C1026 C 0.3262 0.82825 0.6269 0.0
C1027 C 0.33725 0.80555 0.65018 0.0
C1028 C 0.3492 0.85473 0.61174 0.0
C1029 C 0.38345 0.85862 0.61922 0.0
C1030 C 0.39446 0.83435 0.6382 0.0
C1031 C 0.37148 0.80798 0.65369 0.0
C1032 C 0.45811 0.9202 0.58084 0.0
C1033 C 0.4514 0.94804 0.59571 0.0
C1034 C 0.43628 0.89097 0.58892 0.0
C1035 C 0.40732 0.88917 0.61164 0.0
C1036 C 0.40139 0.91682 0.62824 0.0
C1037 C 0.4233 0.946 0.62054 0.0
H1038 H 0.20956 0.28779 0.61066 0.0
H1039 H 0.21354 0.34063 0.73235 0.0
H1040 H 0.17612 0.31924 0.57495 0.0
H1041 H 0.18063 0.37189 0.69689 0.0
H1042 H 0.15522 0.44603 0.60813 0.0
H1043 H 0.18625 0.4124 0.64141 0.0
H1044 H 0.11974 0.33144 0.57412 0.0
H1045 H 0.08811 0.36555 0.54065 0.0
C1046 C 0.20355 0.30615 0.62985 0.0
C1047 C 0.21471 0.31153 0.67461 0.0
C1048 C 0.18402 0.3241 0.60938 0.0
C1049 C 0.17545 0.34843 0.63271 0.0
C1050 C 0.18678 0.35376 0.67736 0.0
C1051 C 0.20575 0.3356 0.6979 0.0
C1052 C 0.14688 0.42104 0.60038 0.0
C1053 C 0.11873 0.40875 0.5717 0.0
C1054 C 0.16478 0.40158 0.61979 0.0
C1055 C 0.15574 0.36889 0.61095 0.0
C1056 C 0.12775 0.35644 0.58181 0.0
C1057 C 0.10933 0.376 0.56284 0.0
H1058 H 0.73161 0.16984 0.69893 0.0
H1059 H 0.67798 0.22778 0.6322 0.0
H1060 H 0.69863 0.12392 0.65688 0.0
H1061 H 0.64437 0.1813 0.59005 0.0
H1062 H 0.56472 0.08257 0.57867 0.0
H1063 H 0.60103 0.132 0.60917 0.0
H1064 H 0.68714 0.10036 0.58107 0.0
H1065 H 0.65087 0.05078 0.55068 0.0
C1066 C 0.71315 0.17289 0.67463 0.0
C1067 C 0.70753 0.2025 0.66869 0.0
C1068 C 0.69423 0.14651 0.65047 0.0
C1069 C 0.66888 0.14893 0.62009 0.0
C1070 C 0.66361 0.17868 0.61344 0.0
C1071 C 0.68292 0.20528 0.63736 0.0
C1072 C 0.59139 0.08614 0.57884 0.0
C1073 C 0.60485 0.06248 0.56274 0.0
C1074 C 0.61221 0.11464 0.59593 0.0
C1075 C 0.64696 0.12007 0.59767 0.0
C1076 C 0.66044 0.09675 0.58058 0.0
C1077 C 0.63964 0.06835 0.56312 0.0
H1078 H 0.84052 0.30293 0.32836 0.0
H1079 H 0.7657 0.34984 0.35751 0.0
H1080 H 0.88171 0.34237 0.37322 0.0
H1081 H 0.80693 0.39022 0.4001 0.0
H1082 H 0.88347 0.45361 0.49238 0.0
H1083 H 0.84241 0.40681 0.46198 0.0
H1084 H 0.9128 0.39431 0.36743 0.0
H1085 H 0.95407 0.4399 0.39936 0.0
C1086 C 0.83288 0.3216 0.34466 0.0
C1087 C 0.80001 0.32345 0.33921 0.0
C1088 C 0.85653 0.34444 0.37003 0.0
C1089 C 0.84797 0.36997 0.38991 0.0
C1090 C 0.81458 0.37087 0.38591 0.0
C1091 C 0.79086 0.34775 0.36117 0.0
C1092 C 0.89015 0.44066 0.46529 0.0
C1093 C 0.92192 0.45062 0.44805 0.0
C1094 C 0.86656 0.41386 0.44767 0.0
C1095 C 0.874 0.39666 0.41188 0.0
C1096 C 0.90614 0.40639 0.39542 0.0
C1097 C 0.92984 0.43282 0.41352 0.0
H1098 H 0.66777 0.77841 0.40389 0.0
H1099 H 0.74772 0.86039 0.3772 0.0
H1100 H 0.63551 0.8123 0.43238 0.0
H1101 H 0.71533 0.89427 0.40458 0.0
H1102 H 0.57215 0.88097 0.401 0.0
H1103 H 0.60723 0.84583 0.39371 0.0
H1104 H 0.68798 0.9135 0.46447 0.0
H1105 H 0.6528 0.94925 0.47099 0.0
C1106 C 0.67873 0.80364 0.40498 0.0
C1107 C 0.7101 0.81676 0.3879 0.0
C1108 C 0.66016 0.82309 0.42095 0.0
C1109 C 0.67254 0.85607 0.42001 0.0
C1110 C 0.70501 0.86903 0.406 0.0
C1111 C 0.72357 0.84958 0.39012 0.0
C1112 C 0.59737 0.88846 0.41508 0.0
C1113 C 0.60975 0.91815 0.4361 0.0
C1114 C 0.61741 0.86805 0.41142 0.0
C1115 C 0.65049 0.87673 0.42856 0.0
C1116 C 0.66273 0.90618 0.45049 0.0
C1117 C 0.64257 0.92666 0.45425 0.0
H1118 H 0.19094 0.70844 0.38217 0.0
H1119 H 0.20154 0.65744 0.26365 0.0
H1120 H 0.14735 0.66269 0.40491 0.0
H1121 H 0.15706 0.61307 0.28433 0.0
H1122 H 0.10805 0.52596 0.35831 0.0
H1123 H 0.14721 0.57235 0.33254 0.0
H1124 H 0.09214 0.63076 0.39211 0.0
H1125 H 0.05359 0.5839 0.42031 0.0
C1126 C 0.18392 0.68747 0.36109 0.0
C1127 C 0.20019 0.68615 0.32185 0.0
C1128 C 0.15867 0.66142 0.3737 0.0
C1129 C 0.14876 0.63395 0.34664 0.0
C1130 C 0.16458 0.63329 0.30677 0.0
C1131 C 0.1902 0.65883 0.29486 0.0
C1132 C 0.10378 0.54857 0.36534 0.0
C1133 C 0.07766 0.5511 0.39159 0.0
C1134 C 0.12635 0.57538 0.35037 0.0
C1135 C 0.1231 0.60551 0.36039 0.0
C1136 C 0.09588 0.60801 0.38458 0.0
C1137 C 0.07348 0.58109 0.40021 0.0
H1138 H 0.28971 0.17856 0.4051 0.0
H1139 H 0.38195 0.24788 0.38072 0.0
H1140 H 0.32074 0.14391 0.43594 0.0
H1141 H 0.41317 0.21277 0.41018 0.0
H1142 H 0.4594 0.1436 0.48465 0.0
H1143 H 0.42934 0.18321 0.47117 0.0
H1144 H 0.35159 0.11349 0.3985 0.0
H1145 H 0.38097 0.07419 0.41263 0.0
C1146 C 0.31666 0.18662 0.40716 0.0
C1147 C 0.33345 0.21571 0.39013 0.0
C1148 C 0.33446 0.16667 0.42442 0.0
C1149 C 0.36945 0.17521 0.42445 0.0
C1150 C 0.38626 0.20544 0.41065 0.0
C1151 C 0.36839 0.22556 0.39374 0.0
C1152 C 0.43605 0.13692 0.46542 0.0
C1153 C 0.42271 0.10579 0.44941 0.0
C1154 C 0.41876 0.15955 0.4579 0.0
C1155 C 0.38785 0.15147 0.43419 0.0
C1156 C 0.3749 0.12042 0.41782 0.0
C1157 C 0.39201 0.09791 0.42544 0.0
H1158 H 0.74103 0.82762 0.5918 0.0
H1159 H 0.64821 0.76329 0.62664 0.0
H1160 H 0.71087 0.86317 0.56137 0.0
H1161 H 0.618 0.79927 0.59746 0.0
H1162 H 0.57226 0.86845 0.52321 0.0
H1163 H 0.60087 0.82765 0.53557 0.0
H1164 H 0.68378 0.8968 0.60004 0.0
H1165 H 0.65571 0.93728 0.58715 0.0
C1166 C 0.7141 0.82079 0.59208 0.0
C1167 C 0.69696 0.79291 0.61196 0.0
C1168 C 0.69683 0.84127 0.57505 0.0
C1169 C 0.66209 0.83443 0.57799 0.0
C1170 C 0.64473 0.80527 0.59464 0.0
C1171 C 0.66203 0.78465 0.6114 0.0
C1172 C 0.59647 0.8748 0.54036 0.0
C1173 C 0.61155 0.90607 0.5546 0.0
C1174 C 0.61291 0.85147 0.54724 0.0
C1175 C 0.64476 0.85899 0.56842 0.0
C1176 C 0.65962 0.89025 0.58274 0.0
C1177 C 0.64329 0.91345 0.57586 0.0
H1178 H 0.65189 0.20093 0.28152 0.0
H1179 H 0.7269 0.19153 0.37881 0.0
H1180 H 0.61162 0.15688 0.31292 0.0
H1181 H 0.6858 0.14761 0.4108 0.0
H1182 H 0.58536 0.0897 0.47191 0.0
H1183 H 0.62178 0.13856 0.44556 0.0
H1184 H 0.61835 0.09544 0.31625 0.0
H1185 H 0.58257 0.04605 0.34273 0.0
C1186 C 0.65963 0.18996 0.31022 0.0
C1187 C 0.69265 0.19954 0.32764 0.0
C1188 C 0.63656 0.16471 0.32792 0.0
C1189 C 0.64592 0.14907 0.36384 0.0
C1190 C 0.67827 0.15959 0.38301 0.0
C1191 C 0.70166 0.18456 0.36474 0.0
C1192 C 0.59197 0.09075 0.43767 0.0
C1193 C 0.58114 0.06418 0.40918 0.0
C1194 C 0.61293 0.11857 0.42286 0.0
C1195 C 0.62263 0.1204 0.37914 0.0
C1196 C 0.6109 0.09433 0.35015 0.0
C1197 C 0.59056 0.06623 0.36521 0.0
H1198 H 0.79269 0.6972 0.38909 0.0
H1199 H 0.85122 0.70201 0.27418 0.0
H1200 H 0.82489 0.66498 0.42546 0.0
H1201 H 0.88374 0.67058 0.31081 0.0
H1202 H 0.95611 0.63732 0.409 0.0
H1203 H 0.92549 0.67225 0.37584 0.0
H1204 H 0.83317 0.61027 0.41619 0.0
H1205 H 0.86346 0.5752 0.44801 0.0
C1206 C 0.81248 0.69162 0.37157 0.0
C1207 C 0.81897 0.70232 0.32835 0.0
C1208 C 0.83099 0.67298 0.39245 0.0
C1209 C 0.85723 0.66502 0.37135 0.0
C1210 C 0.86408 0.67628 0.32851 0.0
C1211 C 0.84513 0.69424 0.30729 0.0
C1212 C 0.92932 0.63121 0.41097 0.0
C1213 C 0.91247 0.60315 0.43119 0.0
C1214 C 0.91163 0.6512 0.39171 0.0
C1215 C 0.87659 0.6443 0.39309 0.0
C1216 C 0.86 0.61671 0.4145 0.0
C1217 C 0.87751 0.5964 0.43266 0.0
H1218 H 0.35928 0.78458 0.37445 0.0
H1219 H 0.29899 0.84124 0.31991 0.0
H1220 H 0.3935 0.83079 0.41666 0.0
H1221 H 0.33266 0.88684 0.36165 0.0
H1222 H 0.47038 0.93122 0.42591 0.0
H1223 H 0.43396 0.88124 0.39723 0.0
H1224 H 0.34815 0.90969 0.4362 0.0
H1225 H 0.38444 0.95982 0.46443 0.0
C1226 C 0.35298 0.80669 0.3721 0.0
C1227 C 0.32637 0.80923 0.34402 0.0
C1228 C 0.37266 0.83316 0.39598 0.0
C1229 C 0.36582 0.86252 0.3925 0.0
C1230 C 0.33839 0.86457 0.36566 0.0
C1231 C 0.31905 0.83834 0.34163 0.0
C1232 C 0.44375 0.92681 0.42852 0.0
C1233 C 0.43034 0.9498 0.44687 0.0
C1234 C 0.4229 0.89799 0.41248 0.0
C1235 C 0.38813 0.89151 0.41423 0.0
C1236 C 0.37481 0.9141 0.43385 0.0
C1237 C 0.39563 0.94285 0.45007 0.0
H1238 H 0.20646 0.29249 0.38547 0.0
H1239 H 0.21794 0.35214 0.27283 0.0
H1240 H 0.17324 0.32363 0.42018 0.0
H1241 H 0.18603 0.38402 0.30836 0.0
H1242 H 0.15404 0.45172 0.41216 0.0
H1243 H 0.18994 0.42155 0.38136 0.0
H1244 H 0.11415 0.33526 0.401 0.0
H1245 H 0.07783 0.36541 0.42973 0.0
C1246 C 0.20239 0.31246 0.36822 0.0
C1247 C 0.21528 0.3195 0.32602 0.0
C1248 C 0.18309 0.33037 0.38818 0.0
C1249 C 0.17674 0.35674 0.36748 0.0
C1250 C 0.19035 0.36421 0.32579 0.0
C1251 C 0.20871 0.34573 0.30524 0.0
C1252 C 0.14512 0.4263 0.41045 0.0
C1253 C 0.1128 0.41125 0.42396 0.0
C1254 C 0.1657 0.40889 0.39235 0.0
C1255 C 0.15527 0.37564 0.38837 0.0
C1256 C 0.12343 0.36064 0.40347 0.0
C1257 C 0.10248 0.37806 0.4201 0.0
H1258 H 0.36224 0.23296 0.59701 0.0
H1259 H 0.28411 0.15052 0.62753 0.0
H1260 H 0.39516 0.19938 0.5694 0.0
H1261 H 0.31712 0.11696 0.6007 0.0
H1262 H 0.38067 0.06291 0.53379 0.0
H1263 H 0.34468 0.09798 0.53961 0.0
H1264 H 0.42433 0.16681 0.61041 0.0
H1265 H 0.46018 0.13222 0.60411 0.0
C1266 C 0.35178 0.20768 0.59687 0.0
C1267 C 0.32076 0.19436 0.61483 0.0
C1268 C 0.37073 0.18843 0.58139 0.0
C1269 C 0.35904 0.15547 0.58356 0.0
C1270 C 0.32687 0.14221 0.59837 0.0
C1271 C 0.30796 0.16146 0.61389 0.0
C1272 C 0.39049 0.0856 0.5504 0.0
C1273 C 0.4232 0.09458 0.56895 0.0
C1274 C 0.36987 0.10568 0.55373 0.0
C1275 C 0.38158 0.13524 0.57548 0.0
C1276 C 0.41458 0.14445 0.5929 0.0
C1277 C 0.43505 0.12438 0.58978 0.0
H1278 H 0.86637 0.29607 0.66096 0.0
H1279 H 0.80158 0.35585 0.67977 0.0
H1280 H 0.90947 0.34096 0.6364 0.0
H1281 H 0.84424 0.40049 0.65389 0.0
H1282 H 0.93647 0.4808 0.65511 0.0
H1283 H 0.89709 0.43379 0.68117 0.0
H1284 H 0.92494 0.37805 0.57901 0.0
H1285 H 0.96501 0.42467 0.55393 0.0
C1286 C 0.861 0.31862 0.65883 0.0
C1287 C 0.83062 0.32247 0.67254 0.0
C1288 C 0.88579 0.34439 0.64488 0.0
C1289 C 0.88056 0.37445 0.64403 0.0
C1290 C 0.84946 0.37785 0.65544 0.0
C1291 C 0.82483 0.35218 0.66972 0.0
C1292 C 0.93471 0.45841 0.63883 0.0
C1293 C 0.9538 0.45659 0.60232 0.0
C1294 C 0.91183 0.43152 0.65339 0.0
C1295 C 0.90734 0.40228 0.63153 0.0
C1296 C 0.92781 0.40015 0.59669 0.0
C1297 C 0.9509 0.42697 0.58237 0.0
H1298 H 0.26662 0.67688 0.61262 0.0
H1299 H 0.18879 0.69504 0.68926 0.0
H1300 H 0.22518 0.63689 0.56883 0.0
H1301 H 0.14759 0.65413 0.64741 0.0
H1302 H 0.15177 0.53924 0.54784 0.0
H1303 H 0.1926 0.5855 0.5787 0.0
H1304 H 0.11691 0.6352 0.58162 0.0
H1305 H 0.07561 0.58813 0.55247 0.0
C1306 C 0.2406 0.67242 0.61985 0.0
C1307 C 0.23094 0.68881 0.65451 0.0
C1308 C 0.21683 0.64932 0.59507 0.0
C1309 C 0.18295 0.64178 0.60491 0.0
C1310 C 0.17328 0.65936 0.63839 0.0
C1311 C 0.19697 0.68276 0.66266 0.0
C1312 C 0.14384 0.56009 0.55477 0.0
C1313 C 0.11034 0.55987 0.54811 0.0
C1314 C 0.1674 0.58684 0.57219 0.0
C1315 C 0.15822 0.61428 0.58283 0.0
C1316 C 0.12485 0.61437 0.57468 0.0
C1317 C 0.10115 0.58741 0.5578 0.0
loop_
_geom_bond_atom_site_label_1
_geom_bond_atom_site_label_2
_geom_bond_distance
_geom_bond_site_symmetry_2
_ccdc_geom_bond_type
Dy0 O4 2.398 . S
Dy0 O5 2.491 . S
Dy0 O6 2.403 . S
Dy0 O7 2.664 . S
Dy0 O11 2.326 . S
Dy0 O15 2.310 . S
Dy0 O16 2.351 . S
C1 O12 1.185 . S
C1 O13 1.355 . S
C2 O4 1.185 . S
C2 O5 1.355 . S
Dy3 O7 2.310 . S
Dy3 O10 2.351 . S
Dy3 O12 2.398 . S
Dy3 O13 2.491 . S
Dy3 O14 2.403 . S
Dy3 O15 2.664 . S
Dy3 O17 2.326 . S
O4 Dy0 2.398 . S
O4 C2 1.185 . S
O5 Dy0 2.491 . S
O5 C2 1.355 . S
O6 Dy0 2.403 . S
O6 C8 1.254 . S
O7 Dy0 2.664 . S
O7 Dy3 2.310 . S
O7 C8 1.268 . S
C8 O6 1.254 . S
C8 O7 1.268 . S
C9 O14 1.254 . S
C9 O15 1.268 . S
O10 Dy3 2.351 . S
O10 C18 1.249 . S
O11 Dy0 2.326 . S
O11 C18 1.267 . S
O12 C1 1.185 . S
O12 Dy3 2.398 . S
O13 C1 1.355 . S
O13 Dy3 2.491 . S
O14 Dy3 2.403 . S
O14 C9 1.254 . S
O15 Dy0 2.310 . S
O15 Dy3 2.664 . S
O15 C9 1.268 . S
O16 Dy0 2.351 . S
O16 C19 1.249 . S
O17 Dy3 2.326 . S
O17 C19 1.267 . S
C18 O10 1.249 . S
C18 O11 1.267 . S
C19 O16 1.249 . S
C19 O17 1.267 . S
Dy20 O24 2.398 . S
Dy20 O25 2.491 . S
Dy20 O26 2.403 . S
Dy20 O27 2.664 . S
Dy20 O31 2.326 . S
Dy20 O35 2.310 . S
Dy20 O36 2.351 . S
C21 O32 1.185 . S
C21 O33 1.355 . S
C22 O24 1.185 . S
C22 O25 1.355 . S
Dy23 O27 2.310 . S
Dy23 O30 2.351 . S
Dy23 O32 2.398 . S
Dy23 O33 2.491 . S
Dy23 O34 2.403 . S
Dy23 O35 2.664 . S
Dy23 O37 2.326 . S
O24 Dy20 2.398 . S
O24 C22 1.185 . S
O25 Dy20 2.491 . S
O25 C22 1.355 . S
O26 Dy20 2.403 . S
O26 C28 1.254 . S
O27 Dy20 2.664 . S
O27 Dy23 2.310 . S
O27 C28 1.268 . S
C28 O26 1.254 . S
C28 O27 1.268 . S
C29 O34 1.254 . S
C29 O35 1.268 . S
O30 Dy23 2.351 . S
O30 C38 1.249 . S
O31 Dy20 2.326 . S
O31 C38 1.267 . S
O32 C21 1.185 . S
O32 Dy23 2.398 . S
O33 C21 1.355 . S
O33 Dy23 2.491 . S
O34 Dy23 2.403 . S
O34 C29 1.254 . S
O35 Dy20 2.310 . S
O35 Dy23 2.664 . S
O35 C29 1.268 . S
O36 Dy20 2.351 . S
O36 C39 1.249 . S
O37 Dy23 2.326 . S
O37 C39 1.267 . S
C38 O30 1.249 . S
C38 O31 1.267 . S
C39 O36 1.249 . S
C39 O37 1.267 . S
Dy40 O44 2.398 . S
Dy40 O45 2.491 . S
Dy40 O46 2.403 . S
Dy40 O47 2.664 . S
Dy40 O51 2.326 . S
Dy40 O55 2.310 . S
Dy40 O56 2.351 . S
C41 O52 1.185 . S
C41 O53 1.355 . S
C42 O44 1.185 . S
C42 O45 1.355 . S
Dy43 O47 2.310 . S
Dy43 O50 2.351 . S
Dy43 O52 2.398 . S
Dy43 O53 2.491 . S
Dy43 O54 2.403 . S
Dy43 O55 2.664 . S
Dy43 O57 2.326 . S
O44 Dy40 2.398 . S
O44 C42 1.185 . S
O45 Dy40 2.491 . S
O45 C42 1.355 . S
O46 Dy40 2.403 . S
O46 C48 1.254 . S
O47 Dy40 2.664 . S
O47 Dy43 2.310 . S
O47 C48 1.268 . S
C48 O46 1.254 . S
C48 O47 1.268 . S
C49 O54 1.254 . S
C49 O55 1.268 . S
O50 Dy43 2.351 . S
O50 C58 1.249 . S
O51 Dy40 2.326 . S
O51 C58 1.267 . S
O52 C41 1.185 . S
O52 Dy43 2.398 . S
O53 C41 1.355 . S
O53 Dy43 2.491 . S
O54 Dy43 2.403 . S
O54 C49 1.254 . S
O55 Dy40 2.310 . S
O55 Dy43 2.664 . S
O55 C49 1.268 . S
O56 Dy40 2.351 . S
O56 C59 1.249 . S
O57 Dy43 2.326 . S
O57 C59 1.267 . S
C58 O50 1.249 . S
C58 O51 1.267 . S
C59 O56 1.249 . S
C59 O57 1.267 . S
Dy60 O64 2.398 . S
Dy60 O65 2.491 . S
Dy60 O66 2.403 . S
Dy60 O67 2.664 . S
Dy60 O71 2.326 . S
Dy60 O75 2.310 . S
Dy60 O76 2.351 . S
C61 O72 1.185 . S
C61 O73 1.355 . S
C62 O64 1.185 . S
C62 O65 1.355 . S
Dy63 O67 2.310 . S
Dy63 O70 2.351 . S
Dy63 O72 2.398 . S
Dy63 O73 2.491 . S
Dy63 O74 2.403 . S
Dy63 O75 2.664 . S
Dy63 O77 2.326 . S
O64 Dy60 2.398 . S
O64 C62 1.185 . S
O65 Dy60 2.491 . S
O65 C62 1.355 . S
O66 Dy60 2.403 . S
O66 C68 1.254 . S
O67 Dy60 2.664 . S
O67 Dy63 2.310 . S
O67 C68 1.268 . S
C68 O66 1.254 . S
C68 O67 1.268 . S
C69 O74 1.254 . S
C69 O75 1.268 . S
O70 Dy63 2.351 . S
O70 C78 1.249 . S
O71 Dy60 2.326 . S
O71 C78 1.267 . S
O72 C61 1.185 . S
O72 Dy63 2.398 . S
O73 C61 1.355 . S
O73 Dy63 2.491 . S
O74 Dy63 2.403 . S
O74 C69 1.254 . S
O75 Dy60 2.310 . S
O75 Dy63 2.664 . S
O75 C69 1.268 . S
O76 Dy60 2.351 . S
O76 C79 1.249 . S
O77 Dy63 2.326 . S
O77 C79 1.267 . S
C78 O70 1.249 . S
C78 O71 1.267 . S
C79 O76 1.249 . S
C79 O77 1.267 . S
Dy80 O84 2.398 . S
Dy80 O85 2.491 . S
Dy80 O86 2.403 . S
Dy80 O87 2.664 . S
Dy80 O91 2.326 . S
Dy80 O95 2.310 . S
Dy80 O96 2.351 . S
C81 O92 1.185 . S
C81 O93 1.355 . S
C82 O84 1.185 . S
C82 O85 1.355 . S
Dy83 O87 2.310 . S
Dy83 O90 2.351 . S
Dy83 O92 2.398 . S
Dy83 O93 2.491 . S
Dy83 O94 2.403 . S
Dy83 O95 2.664 . S
Dy83 O97 2.326 . S
O84 Dy80 2.398 . S
O84 C82 1.185 . S
O85 Dy80 2.491 . S
O85 C82 1.355 . S
O86 Dy80 2.403 . S
O86 C88 1.254 . S
O87 Dy80 2.664 . S
O87 Dy83 2.310 . S
O87 C88 1.268 . S
C88 O86 1.254 . S
C88 O87 1.268 . S
C89 O94 1.254 . S
C89 O95 1.268 . S
O90 Dy83 2.351 . S
O90 C98 1.249 . S
O91 Dy80 2.326 . S
O91 C98 1.267 . S
O92 C81 1.185 . S
O92 Dy83 2.398 . S
O93 C81 1.355 . S
O93 Dy83 2.491 . S
O94 Dy83 2.403 . S
O94 C89 1.254 . S
O95 Dy80 2.310 . S
O95 Dy83 2.664 . S
O95 C89 1.268 . S
O96 Dy80 2.351 . S
O96 C99 1.249 . S
O97 Dy83 2.326 . S
O97 C99 1.267 . S
C98 O90 1.249 . S
C98 O91 1.267 . S
C99 O96 1.249 . S
C99 O97 1.267 . S
Dy100 O104 2.398 . S
Dy100 O105 2.491 . S
Dy100 O106 2.403 . S
Dy100 O107 2.664 . S
Dy100 O111 2.326 . S
Dy100 O115 2.310 . S
Dy100 O116 2.351 . S
C101 O112 1.185 . S
C101 O113 1.355 . S
C102 O104 1.185 . S
C102 O105 1.355 . S
Dy103 O107 2.310 . S
Dy103 O110 2.351 . S
Dy103 O112 2.398 . S
Dy103 O113 2.491 . S
Dy103 O114 2.403 . S
Dy103 O115 2.664 . S
Dy103 O117 2.326 . S
O104 Dy100 2.398 . S
O104 C102 1.185 . S
O105 Dy100 2.491 . S
O105 C102 1.355 . S
O106 Dy100 2.403 . S
O106 C108 1.254 . S
O107 Dy100 2.664 . S
O107 Dy103 2.310 . S
O107 C108 1.268 . S
C108 O106 1.254 . S
C108 O107 1.268 . S
C109 O114 1.254 . S
C109 O115 1.268 . S
O110 Dy103 2.351 . S
O110 C118 1.249 . S
O111 Dy100 2.326 . S
O111 C118 1.267 . S
O112 C101 1.185 . S
O112 Dy103 2.398 . S
O113 C101 1.355 . S
O113 Dy103 2.491 . S
O114 Dy103 2.403 . S
O114 C109 1.254 . S
O115 Dy100 2.310 . S
O115 Dy103 2.664 . S
O115 C109 1.268 . S
O116 Dy100 2.351 . S
O116 C119 1.249 . S
O117 Dy103 2.326 . S
O117 C119 1.267 . S
C118 O110 1.249 . S
C118 O111 1.267 . S
C119 O116 1.249 . S
C119 O117 1.267 . S
Dy120 O124 2.398 . S
Dy120 O125 2.491 . S
Dy120 O126 2.403 . S
Dy120 O127 2.664 . S
Dy120 O131 2.326 . S
Dy120 O135 2.310 . S
Dy120 O136 2.351 . S
C121 O132 1.185 . S
C121 O133 1.355 . S
C122 O124 1.185 . S
C122 O125 1.355 . S
Dy123 O127 2.310 . S
Dy123 O130 2.351 . S
Dy123 O132 2.398 . S
Dy123 O133 2.491 . S
Dy123 O134 2.403 . S
Dy123 O135 2.664 . S
Dy123 O137 2.326 . S
O124 Dy120 2.398 . S
O124 C122 1.185 . S
O125 Dy120 2.491 . S
O125 C122 1.355 . S
O126 Dy120 2.403 . S
O126 C128 1.254 . S
O127 Dy120 2.664 . S
O127 Dy123 2.310 . S
O127 C128 1.268 . S
C128 O126 1.254 . S
C128 O127 1.268 . S
C129 O134 1.254 . S
C129 O135 1.268 . S
O130 Dy123 2.351 . S
O130 C138 1.249 . S
O131 Dy120 2.326 . S
O131 C138 1.267 . S
O132 C121 1.185 . S
O132 Dy123 2.398 . S
O133 C121 1.355 . S
O133 Dy123 2.491 . S
O134 Dy123 2.403 . S
O134 C129 1.254 . S
O135 Dy120 2.310 . S
O135 Dy123 2.664 . S
O135 C129 1.268 . S
O136 Dy120 2.351 . S
O136 C139 1.249 . S
O137 Dy123 2.326 . S
O137 C139 1.267 . S
C138 O130 1.249 . S
C138 O131 1.267 . S
C139 O136 1.249 . S
C139 O137 1.267 . S
Dy140 O144 2.398 . S
Dy140 O145 2.491 . S
Dy140 O146 2.403 . S
Dy140 O147 2.664 . S
Dy140 O151 2.326 . S
Dy140 O155 2.310 . S
Dy140 O156 2.351 . S
C141 O152 1.185 . S
C141 O153 1.355 . S
C142 O144 1.185 . S
C142 O145 1.355 . S
Dy143 O147 2.310 . S
Dy143 O150 2.351 . S
Dy143 O152 2.398 . S
Dy143 O153 2.491 . S
Dy143 O154 2.403 . S
Dy143 O155 2.664 . S
Dy143 O157 2.326 . S
O144 Dy140 2.398 . S
O144 C142 1.185 . S
O145 Dy140 2.491 . S
O145 C142 1.355 . S
O146 Dy140 2.403 . S
O146 C148 1.254 . S
O147 Dy140 2.664 . S
O147 Dy143 2.310 . S
O147 C148 1.268 . S
C148 O146 1.254 . S
C148 O147 1.268 . S
C149 O154 1.254 . S
C149 O155 1.268 . S
O150 Dy143 2.351 . S
O150 C158 1.249 . S
O151 Dy140 2.326 . S
O151 C158 1.267 . S
O152 C141 1.185 . S
O152 Dy143 2.398 . S
O153 C141 1.355 . S
O153 Dy143 2.491 . S
O154 Dy143 2.403 . S
O154 C149 1.254 . S
O155 Dy140 2.310 . S
O155 Dy143 2.664 . S
O155 C149 1.268 . S
O156 Dy140 2.351 . S
O156 C159 1.249 . S
O157 Dy143 2.326 . S
O157 C159 1.267 . S
C158 O150 1.249 . S
C158 O151 1.267 . S
C159 O156 1.249 . S
C159 O157 1.267 . S
Co160 O163 2.042 . S
Co160 O170 2.264 . S
Co160 O189 2.286 . S
Co160 O190 2.069 . S
Co160 O192 2.015 1_455 S
Co161 O163 2.122 . S
Co161 O169 2.073 . S
Co161 O170 2.327 . S
Co161 O171 1.976 1_455 S
Co162 O163 2.088 1_545 S
Co162 O165 2.086 1_455 S
Co162 O172 2.109 1_445 S
Co162 O173 2.146 . S
Co162 O177 2.114 . S
Co162 O191 2.141 1_445 S
O163 Co160 2.042 . S
O163 Co161 2.122 . S
O163 Co162 2.088 1_565 S
O163 H164 0.980 . S
H164 O163 0.980 . S
O165 Co162 2.086 1_655 S
O165 Co166 2.042 . S
O165 Co167 2.122 . S
O165 H168 0.980 . S
Co166 O165 2.042 . S
Co166 O174 2.286 . S
Co166 O175 2.069 . S
Co166 O176 2.015 1_655 S
Co166 O179 2.264 . S
Co167 O165 2.122 . S
Co167 O178 1.976 1_655 S
Co167 O179 2.327 . S
Co167 O180 2.073 . S
H168 O165 0.980 . S
O169 Co161 2.073 . S
O169 C184 1.245 . S
O170 Co160 2.264 . S
O170 Co161 2.327 . S
O170 C184 1.257 . S
O171 Co161 1.976 1_655 S
O171 C183 1.251 . S
O172 Co162 2.109 1_665 S
O172 C183 1.274 . S
O173 Co162 2.146 . S
O173 C186 1.246 . S
O174 Co166 2.286 . S
O174 C185 1.259 . S
O175 Co166 2.069 . S
O175 C185 1.289 . S
O176 Co166 2.015 1_455 S
O176 C186 1.257 . S
O177 Co162 2.114 . S
O177 C187 1.274 . S
O178 Co167 1.976 1_455 S
O178 C187 1.251 . S
O179 Co166 2.264 . S
O179 Co167 2.327 . S
O179 C188 1.257 . S
O180 Co167 2.073 . S
O180 C188 1.245 . S
C181 O189 1.259 . S
C181 O190 1.289 . S
C182 O191 1.246 . S
C182 O192 1.257 . S
C183 O171 1.251 . S
C183 O172 1.274 . S
C184 O169 1.245 . S
C184 O170 1.257 . S
C185 O174 1.259 . S
C185 O175 1.289 . S
C186 O173 1.246 . S
C186 O176 1.257 . S
C187 O177 1.274 . S
C187 O178 1.251 . S
C188 O179 1.257 . S
C188 O180 1.245 . S
O189 Co160 2.286 . S
O189 C181 1.259 . S
O190 Co160 2.069 . S
O190 C181 1.289 . S
O191 Co162 2.141 1_665 S
O191 C182 1.246 . S
O192 Co160 2.015 1_655 S
O192 C182 1.257 . S
Co193 O196 2.042 1_556 S
Co193 O203 2.264 1_556 S
Co193 O222 2.286 . S
Co193 O223 2.069 . S
Co193 O225 2.015 . S
Co194 O196 2.122 . S
Co194 O202 2.073 . S
Co194 O203 2.327 . S
Co194 O204 1.976 . S
Co195 O196 2.085 1_545 S
Co195 O198 2.089 1_554 S
Co195 O205 2.111 1_545 S
Co195 O206 2.145 . S
Co195 O210 2.112 1_554 S
Co195 O224 2.142 1_544 S
O196 Co193 2.042 1_554 S
O196 Co194 2.122 . S
O196 Co195 2.085 1_565 S
O196 H197 0.980 . S
H197 O196 0.980 . S
O198 Co195 2.089 1_556 S
O198 Co199 2.042 1_556 S
O198 Co200 2.122 . S
O198 H201 0.980 . S
Co199 O198 2.042 1_554 S
Co199 O207 2.286 . S
Co199 O208 2.069 . S
Co199 O209 2.015 . S
Co199 O212 2.264 1_554 S
Co200 O198 2.122 . S
Co200 O211 1.976 . S
Co200 O212 2.327 . S
Co200 O213 2.073 . S
H201 O198 0.980 . S
O202 Co194 2.073 . S
O202 C217 1.245 . S
O203 Co193 2.264 1_554 S
O203 Co194 2.327 . S
O203 C217 1.257 . S
O204 Co194 1.976 . S
O204 C216 1.251 . S
O205 Co195 2.111 1_565 S
O205 C216 1.274 . S
O206 Co195 2.145 . S
O206 C219 1.246 . S
O207 Co199 2.286 . S
O207 C218 1.259 . S
O208 Co199 2.069 . S
O208 C218 1.289 . S
O209 Co199 2.015 . S
O209 C219 1.257 . S
O210 Co195 2.112 1_556 S
O210 C220 1.274 . S
O211 Co200 1.976 . S
O211 C220 1.251 . S
O212 Co199 2.264 1_556 S
O212 Co200 2.327 . S
O212 C221 1.257 . S
O213 Co200 2.073 . S
O213 C221 1.245 . S
C214 O222 1.259 . S
C214 O223 1.289 . S
C215 O224 1.246 . S
C215 O225 1.257 . S
C216 O204 1.251 . S
C216 O205 1.274 . S
C217 O202 1.245 . S
C217 O203 1.257 . S
C218 O207 1.259 . S
C218 O208 1.289 . S
C219 O206 1.246 . S
C219 O209 1.257 . S
C220 O210 1.274 . S
C220 O211 1.251 . S
C221 O212 1.257 . S
C221 O213 1.245 . S
O222 Co193 2.286 . S
O222 C214 1.259 . S
O223 Co193 2.069 . S
O223 C214 1.289 . S
O224 Co195 2.142 1_566 S
O224 C215 1.246 . S
O225 Co193 2.015 . S
O225 C215 1.257 . S
Co226 O229 2.042 1_556 S
Co226 O236 2.264 1_556 S
Co226 O255 2.286 . S
Co226 O256 2.069 . S
Co226 O258 2.015 1_455 S
Co227 O229 2.122 . S
Co227 O235 2.073 . S
Co227 O236 2.327 . S
Co227 O237 1.976 1_455 S
Co228 O229 2.090 . S
Co228 O231 2.084 1_454 S
Co228 O238 2.109 1_455 S
Co228 O239 2.145 . S
Co228 O243 2.113 1_554 S
Co228 O257 2.142 1_454 S
O229 Co226 2.042 1_554 S
O229 Co227 2.122 . S
O229 Co228 2.090 . S
O229 H230 0.980 . S
H230 O229 0.980 . S
O231 Co228 2.084 1_656 S
O231 Co232 2.042 1_556 S
O231 Co233 2.122 . S
O231 H234 0.980 . S
Co232 O231 2.042 1_554 S
Co232 O240 2.286 . S
Co232 O241 2.069 . S
Co232 O242 2.015 1_655 S
Co232 O245 2.264 1_554 S
Co233 O231 2.122 . S
Co233 O244 1.976 1_655 S
Co233 O245 2.327 . S
Co233 O246 2.073 . S
H234 O231 0.980 . S
O235 Co227 2.073 . S
O235 C250 1.245 . S
O236 Co226 2.264 1_554 S
O236 Co227 2.327 . S
O236 C250 1.257 . S
O237 Co227 1.976 1_655 S
O237 C249 1.251 . S
O238 Co228 2.109 1_655 S
O238 C249 1.274 . S
O239 Co228 2.145 . S
O239 C252 1.246 . S
O240 Co232 2.286 . S
O240 C251 1.259 . S
O241 Co232 2.069 . S
O241 C251 1.289 . S
O242 Co232 2.015 1_455 S
O242 C252 1.257 . S
O243 Co228 2.113 1_556 S
O243 C253 1.274 . S
O244 Co233 1.976 1_455 S
O244 C253 1.251 . S
O245 Co232 2.264 1_556 S
O245 Co233 2.327 . S
O245 C254 1.257 . S
O246 Co233 2.073 . S
O246 C254 1.245 . S
C247 O255 1.259 . S
C247 O256 1.289 . S
C248 O257 1.246 . S
C248 O258 1.257 . S
C249 O237 1.251 . S
C249 O238 1.274 . S
C250 O235 1.245 . S
C250 O236 1.257 . S
C251 O240 1.259 . S
C251 O241 1.289 . S
C252 O239 1.246 . S
C252 O242 1.257 . S
C253 O243 1.274 . S
C253 O244 1.251 . S
C254 O245 1.257 . S
C254 O246 1.245 . S
O255 Co226 2.286 . S
O255 C247 1.259 . S
O256 Co226 2.069 . S
O256 C247 1.289 . S
O257 Co228 2.142 1_656 S
O257 C248 1.246 . S
O258 Co226 2.015 1_655 S
O258 C248 1.257 . S
Co259 O262 2.042 1_556 S
Co259 O269 2.264 1_556 S
Co259 O288 2.286 . S
Co259 O289 2.069 . S
Co259 O291 2.015 . S
Co260 O262 2.122 . S
Co260 O268 2.073 . S
Co260 O269 2.327 . S
Co260 O270 1.976 . S
Co261 O262 2.087 . S
Co261 O264 2.087 1_554 S
Co261 O271 2.111 . S
Co261 O272 2.143 . S
Co261 O276 2.111 1_554 S
Co261 O290 2.143 1_554 S
O262 Co259 2.042 1_554 S
O262 Co260 2.122 . S
O262 Co261 2.087 . S
O262 H263 0.980 . S
H263 O262 0.980 . S
O264 Co261 2.087 1_556 S
O264 Co265 2.042 1_556 S
O264 Co266 2.122 . S
O264 H267 0.980 . S
Co265 O264 2.042 1_554 S
Co265 O273 2.286 . S
Co265 O274 2.069 . S
Co265 O275 2.015 . S
Co265 O278 2.264 1_554 S
Co266 O264 2.122 . S
Co266 O277 1.976 . S
Co266 O278 2.327 . S
Co266 O279 2.073 . S
H267 O264 0.980 . S
O268 Co260 2.073 . S
O268 C283 1.245 . S
O269 Co259 2.264 1_554 S
O269 Co260 2.327 . S
O269 C283 1.257 . S
O270 Co260 1.976 . S
O270 C282 1.251 . S
O271 Co261 2.111 . S
O271 C282 1.274 . S
O272 Co261 2.143 . S
O272 C285 1.246 . S
O273 Co265 2.286 . S
O273 C284 1.259 . S
O274 Co265 2.069 . S
O274 C284 1.289 . S
O275 Co265 2.015 . S
O275 C285 1.257 . S
O276 Co261 2.111 1_556 S
O276 C286 1.274 . S
O277 Co266 1.976 . S
O277 C286 1.251 . S
O278 Co265 2.264 1_556 S
O278 Co266 2.327 . S
O278 C287 1.257 . S
O279 Co266 2.073 . S
O279 C287 1.245 . S
C280 O288 1.259 . S
C280 O289 1.289 . S
C281 O290 1.246 . S
C281 O291 1.257 . S
C282 O270 1.251 . S
C282 O271 1.274 . S
C283 O268 1.245 . S
C283 O269 1.257 . S
C284 O273 1.259 . S
C284 O274 1.289 . S
C285 O272 1.246 . S
C285 O275 1.257 . S
C286 O276 1.274 . S
C286 O277 1.251 . S
C287 O278 1.257 . S
C287 O279 1.245 . S
O288 Co259 2.286 . S
O288 C280 1.259 . S
O289 Co259 2.069 . S
O289 C280 1.289 . S
O290 Co261 2.143 1_556 S
O290 C281 1.246 . S
O291 Co259 2.015 . S
O291 C281 1.257 . S
Co292 O295 2.042 . S
Co292 O302 2.264 . S
Co292 O321 2.286 . S
Co292 O322 2.069 . S
Co292 O324 2.015 . S
Co293 O295 2.122 . S
Co293 O301 2.073 . S
Co293 O302 2.327 . S
Co293 O303 1.976 . S
Co294 O295 2.090 . S
Co294 O297 2.084 1_455 S
Co294 O304 2.112 . S
Co294 O305 2.142 1_455 S
Co294 O309 2.110 1_455 S
Co294 O323 2.145 . S
O295 Co292 2.042 . S
O295 Co293 2.122 . S
O295 Co294 2.090 . S
O295 H296 0.980 . S
H296 O295 0.980 . S
O297 Co294 2.084 1_655 S
O297 Co298 2.042 . S
O297 Co299 2.122 . S
O297 H300 0.980 . S
Co298 O297 2.042 . S
Co298 O306 2.286 . S
Co298 O307 2.069 . S
Co298 O308 2.015 . S
Co298 O311 2.264 . S
Co299 O297 2.122 . S
Co299 O310 1.976 . S
Co299 O311 2.327 . S
Co299 O312 2.073 . S
H300 O297 0.980 . S
O301 Co293 2.073 . S
O301 C316 1.245 . S
O302 Co292 2.264 . S
O302 Co293 2.327 . S
O302 C316 1.257 . S
O303 Co293 1.976 . S
O303 C315 1.251 . S
O304 Co294 2.112 . S
O304 C315 1.274 . S
O305 Co294 2.142 1_655 S
O305 C318 1.246 . S
O306 Co298 2.286 . S
O306 C317 1.259 . S
O307 Co298 2.069 . S
O307 C317 1.289 . S
O308 Co298 2.015 . S
O308 C318 1.257 . S
O309 Co294 2.110 1_655 S
O309 C319 1.274 . S
O310 Co299 1.976 . S
O310 C319 1.251 . S
O311 Co298 2.264 . S
O311 Co299 2.327 . S
O311 C320 1.257 . S
O312 Co299 2.073 . S
O312 C320 1.245 . S
C313 O321 1.259 . S
C313 O322 1.289 . S
C314 O323 1.246 . S
C314 O324 1.257 . S
C315 O303 1.251 . S
C315 O304 1.274 . S
C316 O301 1.245 . S
C316 O302 1.257 . S
C317 O306 1.259 . S
C317 O307 1.289 . S
C318 O305 1.246 . S
C318 O308 1.257 . S
C319 O309 1.274 . S
C319 O310 1.251 . S
C320 O311 1.257 . S
C320 O312 1.245 . S
O321 Co292 2.286 . S
O321 C313 1.259 . S
O322 Co292 2.069 . S
O322 C313 1.289 . S
O323 Co294 2.145 . S
O323 C314 1.246 . S
O324 Co292 2.015 . S
O324 C314 1.257 . S
Co325 O328 2.042 . S
Co325 O335 2.264 . S
Co325 O354 2.286 . S
Co325 O355 2.069 . S
Co325 O357 2.015 1_565 S
Co326 O328 2.122 . S
Co326 O334 2.073 . S
Co326 O335 2.327 . S
Co326 O336 1.976 1_565 S
Co327 O328 2.085 1_545 S
Co327 O330 2.089 . S
Co327 O337 2.112 . S
Co327 O338 2.143 1_545 S
Co327 O342 2.110 1_545 S
Co327 O356 2.144 . S
O328 Co325 2.042 . S
O328 Co326 2.122 . S
O328 Co327 2.085 1_565 S
O328 H329 0.980 . S
H329 O328 0.980 . S
O330 Co327 2.089 . S
O330 Co331 2.042 . S
O330 Co332 2.122 . S
O330 H333 0.980 . S
Co331 O330 2.042 . S
Co331 O339 2.286 . S
Co331 O340 2.069 . S
Co331 O341 2.015 1_545 S
Co331 O344 2.264 . S
Co332 O330 2.122 . S
Co332 O343 1.976 1_545 S
Co332 O344 2.327 . S
Co332 O345 2.073 . S
H333 O330 0.980 . S
O334 Co326 2.073 . S
O334 C349 1.245 . S
O335 Co325 2.264 . S
O335 Co326 2.327 . S
O335 C349 1.257 . S
O336 Co326 1.976 1_545 S
O336 C348 1.251 . S
O337 Co327 2.112 . S
O337 C348 1.274 . S
O338 Co327 2.143 1_565 S
O338 C351 1.246 . S
O339 Co331 2.286 . S
O339 C350 1.259 . S
O340 Co331 2.069 . S
O340 C350 1.289 . S
O341 Co331 2.015 1_565 S
O341 C351 1.257 . S
O342 Co327 2.110 1_565 S
O342 C352 1.274 . S
O343 Co332 1.976 1_565 S
O343 C352 1.251 . S
O344 Co331 2.264 . S
O344 Co332 2.327 . S
O344 C353 1.257 . S
O345 Co332 2.073 . S
O345 C353 1.245 . S
C346 O354 1.259 . S
C346 O355 1.289 . S
C347 O356 1.246 . S
C347 O357 1.257 . S
C348 O336 1.251 . S
C348 O337 1.274 . S
C349 O334 1.245 . S
C349 O335 1.257 . S
C350 O339 1.259 . S
C350 O340 1.289 . S
C351 O338 1.246 . S
C351 O341 1.257 . S
C352 O342 1.274 . S
C352 O343 1.251 . S
C353 O344 1.257 . S
C353 O345 1.245 . S
O354 Co325 2.286 . S
O354 C346 1.259 . S
O355 Co325 2.069 . S
O355 C346 1.289 . S
O356 Co327 2.144 . S
O356 C347 1.246 . S
O357 Co325 2.015 1_545 S
O357 C347 1.257 . S
H358 C366 0.950 . S
H359 C371 0.950 . S
H360 C368 0.950 . S
H361 C370 0.950 . S
H362 C372 0.950 . S
H363 C374 0.950 . S
H364 C376 0.950 . S
H365 C377 0.950 . S
C366 H358 0.950 . S
C366 C367 1.386 . S
C366 C368 1.391 . S
C367 C366 1.386 . S
C367 C371 1.393 . S
C368 H360 0.950 . S
C368 C366 1.391 . S
C368 C369 1.400 . S
C369 C368 1.400 . S
C369 C370 1.398 . S
C369 C375 1.491 . S
C370 H361 0.950 . S
C370 C369 1.398 . S
C370 C371 1.391 . S
C371 H359 0.950 . S
C371 C367 1.393 . S
C371 C370 1.391 . S
C372 H362 0.950 . S
C372 C373 1.386 . S
C372 C374 1.391 . S
C373 C372 1.386 . S
C373 C377 1.393 . S
C374 H363 0.950 . S
C374 C372 1.391 . S
C374 C375 1.400 . S
C375 C369 1.491 . S
C375 C374 1.400 . S
C375 C376 1.398 . S
C376 H364 0.950 . S
C376 C375 1.398 . S
C376 C377 1.391 . S
C377 H365 0.950 . S
C377 C373 1.393 . S
C377 C376 1.391 . S
H378 C386 0.950 . S
H379 C391 0.950 . S
H380 C388 0.950 . S
H381 C390 0.950 . S
H382 C392 0.950 . S
H383 C394 0.950 . S
H384 C396 0.950 . S
H385 C397 0.950 . S
C386 H378 0.950 . S
C386 C387 1.386 . S
C386 C388 1.391 . S
C387 C386 1.386 . S
C387 C391 1.393 . S
C388 H380 0.950 . S
C388 C386 1.391 . S
C388 C389 1.400 . S
C389 C388 1.400 . S
C389 C390 1.398 . S
C389 C395 1.491 . S
C390 H381 0.950 . S
C390 C389 1.398 . S
C390 C391 1.391 . S
C391 H379 0.950 . S
C391 C387 1.393 . S
C391 C390 1.391 . S
C392 H382 0.950 . S
C392 C393 1.386 . S
C392 C394 1.391 . S
C393 C392 1.386 . S
C393 C397 1.393 . S
C394 H383 0.950 . S
C394 C392 1.391 . S
C394 C395 1.400 . S
C395 C389 1.491 . S
C395 C394 1.400 . S
C395 C396 1.398 . S
C396 H384 0.950 . S
C396 C395 1.398 . S
C396 C397 1.391 . S
C397 H385 0.950 . S
C397 C393 1.393 . S
C397 C396 1.391 . S
H398 C406 0.950 . S
H399 C411 0.950 . S
H400 C408 0.950 . S
H401 C410 0.950 . S
H402 C412 0.950 . S
H403 C414 0.950 . S
H404 C416 0.950 . S
H405 C417 0.950 . S
C406 H398 0.950 . S
C406 C407 1.386 . S
C406 C408 1.391 . S
C407 C406 1.386 . S
C407 C411 1.393 . S
C408 H400 0.950 . S
C408 C406 1.391 . S
C408 C409 1.400 . S
C409 C408 1.400 . S
C409 C410 1.398 . S
C409 C415 1.491 . S
C410 H401 0.950 . S
C410 C409 1.398 . S
C410 C411 1.391 . S
C411 H399 0.950 . S
C411 C407 1.393 . S
C411 C410 1.391 . S
C412 H402 0.950 . S
C412 C413 1.386 . S
C412 C414 1.391 . S
C413 C412 1.386 . S
C413 C417 1.393 . S
C414 H403 0.950 . S
C414 C412 1.391 . S
C414 C415 1.400 . S
C415 C409 1.491 . S
C415 C414 1.400 . S
C415 C416 1.398 . S
C416 H404 0.950 . S
C416 C415 1.398 . S
C416 C417 1.391 . S
C417 H405 0.950 . S
C417 C413 1.393 . S
C417 C416 1.391 . S
H418 C426 0.950 . S
H419 C431 0.950 . S
H420 C428 0.950 . S
H421 C430 0.950 . S
H422 C432 0.950 . S
H423 C434 0.950 . S
H424 C436 0.950 . S
H425 C437 0.950 . S
C426 H418 0.950 . S
C426 C427 1.386 . S
C426 C428 1.391 . S
C427 C426 1.386 . S
C427 C431 1.393 . S
C428 H420 0.950 . S
C428 C426 1.391 . S
C428 C429 1.400 . S
C429 C428 1.400 . S
C429 C430 1.398 . S
C429 C435 1.491 . S
C430 H421 0.950 . S
C430 C429 1.398 . S
C430 C431 1.391 . S
C431 H419 0.950 . S
C431 C427 1.393 . S
C431 C430 1.391 . S
C432 H422 0.950 . S
C432 C433 1.386 . S
C432 C434 1.391 . S
C433 C432 1.386 . S
C433 C437 1.393 . S
C434 H423 0.950 . S
C434 C432 1.391 . S
C434 C435 1.400 . S
C435 C429 1.491 . S
C435 C434 1.400 . S
C435 C436 1.398 . S
C436 H424 0.950 . S
C436 C435 1.398 . S
C436 C437 1.391 . S
C437 H425 0.950 . S
C437 C433 1.393 . S
C437 C436 1.391 . S
H438 C446 0.950 . S
H439 C451 0.950 . S
H440 C448 0.950 . S
H441 C450 0.950 . S
H442 C452 0.950 . S
H443 C454 0.950 . S
H444 C456 0.950 . S
H445 C457 0.950 . S
C446 H438 0.950 . S
C446 C447 1.386 . S
C446 C448 1.391 . S
C447 C446 1.386 . S
C447 C451 1.393 . S
C448 H440 0.950 . S
C448 C446 1.391 . S
C448 C449 1.400 . S
C449 C448 1.400 . S
C449 C450 1.398 . S
C449 C455 1.491 . S
C450 H441 0.950 . S
C450 C449 1.398 . S
C450 C451 1.391 . S
C451 H439 0.950 . S
C451 C447 1.393 . S
C451 C450 1.391 . S
C452 H442 0.950 . S
C452 C453 1.386 . S
C452 C454 1.391 . S
C453 C452 1.386 . S
C453 C457 1.393 . S
C454 H443 0.950 . S
C454 C452 1.391 . S
C454 C455 1.400 . S
C455 C449 1.491 . S
C455 C454 1.400 . S
C455 C456 1.398 . S
C456 H444 0.950 . S
C456 C455 1.398 . S
C456 C457 1.391 . S
C457 H445 0.950 . S
C457 C453 1.393 . S
C457 C456 1.391 . S
H458 C466 0.950 . S
H459 C471 0.950 . S
H460 C468 0.950 . S
H461 C470 0.950 . S
H462 C472 0.950 . S
H463 C474 0.950 . S
H464 C476 0.950 . S
H465 C477 0.950 . S
C466 H458 0.950 . S
C466 C467 1.386 . S
C466 C468 1.391 . S
C467 C466 1.386 . S
C467 C471 1.393 . S
C468 H460 0.950 . S
C468 C466 1.391 . S
C468 C469 1.400 . S
C469 C468 1.400 . S
C469 C470 1.398 . S
C469 C475 1.491 . S
C470 H461 0.950 . S
C470 C469 1.398 . S
C470 C471 1.391 . S
C471 H459 0.950 . S
C471 C467 1.393 . S
C471 C470 1.391 . S
C472 H462 0.950 . S
C472 C473 1.386 . S
C472 C474 1.391 . S
C473 C472 1.386 . S
C473 C477 1.393 . S
C474 H463 0.950 . S
C474 C472 1.391 . S
C474 C475 1.400 . S
C475 C469 1.491 . S
C475 C474 1.400 . S
C475 C476 1.398 . S
C476 H464 0.950 . S
C476 C475 1.398 . S
C476 C477 1.391 . S
C477 H465 0.950 . S
C477 C473 1.393 . S
C477 C476 1.391 . S
H478 C486 0.950 . S
H479 C491 0.950 . S
H480 C488 0.950 . S
H481 C490 0.950 . S
H482 C492 0.950 . S
H483 C494 0.950 . S
H484 C496 0.950 . S
H485 C497 0.950 . S
C486 H478 0.950 . S
C486 C487 1.386 . S
C486 C488 1.391 . S
C487 C486 1.386 . S
C487 C491 1.393 . S
C488 H480 0.950 . S
C488 C486 1.391 . S
C488 C489 1.400 . S
C489 C488 1.400 . S
C489 C490 1.398 . S
C489 C495 1.491 . S
C490 H481 0.950 . S
C490 C489 1.398 . S
C490 C491 1.391 . S
C491 H479 0.950 . S
C491 C487 1.393 . S
C491 C490 1.391 . S
C492 H482 0.950 . S
C492 C493 1.386 . S
C492 C494 1.391 . S
C493 C492 1.386 . S
C493 C497 1.393 . S
C494 H483 0.950 . S
C494 C492 1.391 . S
C494 C495 1.400 . S
C495 C489 1.491 . S
C495 C494 1.400 . S
C495 C496 1.398 . S
C496 H484 0.950 . S
C496 C495 1.398 . S
C496 C497 1.391 . S
C497 H485 0.950 . S
C497 C493 1.393 . S
C497 C496 1.391 . S
H498 C506 0.950 . S
H499 C511 0.950 . S
H500 C508 0.950 . S
H501 C510 0.950 . S
H502 C512 0.950 . S
H503 C514 0.950 . S
H504 C516 0.950 . S
H505 C517 0.950 . S
C506 H498 0.950 . S
C506 C507 1.386 . S
C506 C508 1.391 . S
C507 C506 1.386 . S
C507 C511 1.393 . S
C508 H500 0.950 . S
C508 C506 1.391 . S
C508 C509 1.400 . S
C509 C508 1.400 . S
C509 C510 1.398 . S
C509 C515 1.491 . S
C510 H501 0.950 . S
C510 C509 1.398 . S
C510 C511 1.391 . S
C511 H499 0.950 . S
C511 C507 1.393 . S
C511 C510 1.391 . S
C512 H502 0.950 . S
C512 C513 1.386 . S
C512 C514 1.391 . S
C513 C512 1.386 . S
C513 C517 1.393 . S
C514 H503 0.950 . S
C514 C512 1.391 . S
C514 C515 1.400 . S
C515 C509 1.491 . S
C515 C514 1.400 . S
C515 C516 1.398 . S
C516 H504 0.950 . S
C516 C515 1.398 . S
C516 C517 1.391 . S
C517 H505 0.950 . S
C517 C513 1.393 . S
C517 C516 1.391 . S
H518 C526 0.950 . S
H519 C531 0.950 . S
H520 C528 0.950 . S
H521 C530 0.950 . S
H522 C532 0.950 . S
H523 C534 0.950 . S
H524 C536 0.950 . S
H525 C537 0.950 . S
C526 H518 0.950 . S
C526 C527 1.386 . S
C526 C528 1.391 . S
C527 C526 1.386 . S
C527 C531 1.393 . S
C528 H520 0.950 . S
C528 C526 1.391 . S
C528 C529 1.400 . S
C529 C528 1.400 . S
C529 C530 1.398 . S
C529 C535 1.491 . S
C530 H521 0.950 . S
C530 C529 1.398 . S
C530 C531 1.391 . S
C531 H519 0.950 . S
C531 C527 1.393 . S
C531 C530 1.391 . S
C532 H522 0.950 . S
C532 C533 1.386 . S
C532 C534 1.391 . S
C533 C532 1.386 . S
C533 C537 1.393 . S
C534 H523 0.950 . S
C534 C532 1.391 . S
C534 C535 1.400 . S
C535 C529 1.491 . S
C535 C534 1.400 . S
C535 C536 1.398 . S
C536 H524 0.950 . S
C536 C535 1.398 . S
C536 C537 1.391 . S
C537 H525 0.950 . S
C537 C533 1.393 . S
C537 C536 1.391 . S
H538 C546 0.950 . S
H539 C551 0.950 . S
H540 C548 0.950 . S
H541 C550 0.950 . S
H542 C552 0.950 . S
H543 C554 0.950 . S
H544 C556 0.950 . S
H545 C557 0.950 . S
C546 H538 0.950 . S
C546 C547 1.386 . S
C546 C548 1.391 . S
C547 C546 1.386 . S
C547 C551 1.393 . S
C548 H540 0.950 . S
C548 C546 1.391 . S
C548 C549 1.400 . S
C549 C548 1.400 . S
C549 C550 1.398 . S
C549 C555 1.491 . S
C550 H541 0.950 . S
C550 C549 1.398 . S
C550 C551 1.391 . S
C551 H539 0.950 . S
C551 C547 1.393 . S
C551 C550 1.391 . S
C552 H542 0.950 . S
C552 C553 1.386 . S
C552 C554 1.391 . S
C553 C552 1.386 . S
C553 C557 1.393 . S
C554 H543 0.950 . S
C554 C552 1.391 . S
C554 C555 1.400 . S
C555 C549 1.491 . S
C555 C554 1.400 . S
C555 C556 1.398 . S
C556 H544 0.950 . S
C556 C555 1.398 . S
C556 C557 1.391 . S
C557 H545 0.950 . S
C557 C553 1.393 . S
C557 C556 1.391 . S
H558 C566 0.950 . S
H559 C571 0.950 . S
H560 C568 0.950 . S
H561 C570 0.950 . S
H562 C572 0.950 . S
H563 C574 0.950 . S
H564 C576 0.950 . S
H565 C577 0.950 . S
C566 H558 0.950 . S
C566 C567 1.386 . S
C566 C568 1.391 . S
C567 C566 1.386 . S
C567 C571 1.393 . S
C568 H560 0.950 . S
C568 C566 1.391 . S
C568 C569 1.400 . S
C569 C568 1.400 . S
C569 C570 1.398 . S
C569 C575 1.491 . S
C570 H561 0.950 . S
C570 C569 1.398 . S
C570 C571 1.391 . S
C571 H559 0.950 . S
C571 C567 1.393 . S
C571 C570 1.391 . S
C572 H562 0.950 . S
C572 C573 1.386 . S
C572 C574 1.391 . S
C573 C572 1.386 . S
C573 C577 1.393 . S
C574 H563 0.950 . S
C574 C572 1.391 . S
C574 C575 1.400 . S
C575 C569 1.491 . S
C575 C574 1.400 . S
C575 C576 1.398 . S
C576 H564 0.950 . S
C576 C575 1.398 . S
C576 C577 1.391 . S
C577 H565 0.950 . S
C577 C573 1.393 . S
C577 C576 1.391 . S
H578 C586 0.950 . S
H579 C591 0.950 . S
H580 C588 0.950 . S
H581 C590 0.950 . S
H582 C592 0.950 . S
H583 C594 0.950 . S
H584 C596 0.950 . S
H585 C597 0.950 . S
C586 H578 0.950 . S
C586 C587 1.386 . S
C586 C588 1.391 . S
C587 C586 1.386 . S
C587 C591 1.393 . S
C588 H580 0.950 . S
C588 C586 1.391 . S
C588 C589 1.400 . S
C589 C588 1.400 . S
C589 C590 1.398 . S
C589 C595 1.491 . S
C590 H581 0.950 . S
C590 C589 1.398 . S
C590 C591 1.391 . S
C591 H579 0.950 . S
C591 C587 1.393 . S
C591 C590 1.391 . S
C592 H582 0.950 . S
C592 C593 1.386 . S
C592 C594 1.391 . S
C593 C592 1.386 . S
C593 C597 1.393 . S
C594 H583 0.950 . S
C594 C592 1.391 . S
C594 C595 1.400 . S
C595 C589 1.491 . S
C595 C594 1.400 . S
C595 C596 1.398 . S
C596 H584 0.950 . S
C596 C595 1.398 . S
C596 C597 1.391 . S
C597 H585 0.950 . S
C597 C593 1.393 . S
C597 C596 1.391 . S
H598 C606 0.950 . S
H599 C611 0.950 . S
H600 C608 0.950 . S
H601 C610 0.950 . S
H602 C612 0.950 . S
H603 C614 0.950 . S
H604 C616 0.950 . S
H605 C617 0.950 . S
C606 H598 0.950 . S
C606 C607 1.386 . S
C606 C608 1.391 . S
C607 C606 1.386 . S
C607 C611 1.393 . S
C608 H600 0.950 . S
C608 C606 1.391 . S
C608 C609 1.400 . S
C609 C608 1.400 . S
C609 C610 1.398 . S
C609 C615 1.491 . S
C610 H601 0.950 . S
C610 C609 1.398 . S
C610 C611 1.391 . S
C611 H599 0.950 . S
C611 C607 1.393 . S
C611 C610 1.391 . S
C612 H602 0.950 . S
C612 C613 1.386 . S
C612 C614 1.391 . S
C613 C612 1.386 . S
C613 C617 1.393 . S
C614 H603 0.950 . S
C614 C612 1.391 . S
C614 C615 1.400 . S
C615 C609 1.491 . S
C615 C614 1.400 . S
C615 C616 1.398 . S
C616 H604 0.950 . S
C616 C615 1.398 . S
C616 C617 1.391 . S
C617 H605 0.950 . S
C617 C613 1.393 . S
C617 C616 1.391 . S
H618 C626 0.950 . S
H619 C631 0.950 . S
H620 C628 0.950 . S
H621 C630 0.950 . S
H622 C632 0.950 . S
H623 C634 0.950 . S
H624 C636 0.950 . S
H625 C637 0.950 . S
C626 H618 0.950 . S
C626 C627 1.386 . S
C626 C628 1.391 . S
C627 C626 1.386 . S
C627 C631 1.393 . S
C628 H620 0.950 . S
C628 C626 1.391 . S
C628 C629 1.400 . S
C629 C628 1.400 . S
C629 C630 1.398 . S
C629 C635 1.491 . S
C630 H621 0.950 . S
C630 C629 1.398 . S
C630 C631 1.391 . S
C631 H619 0.950 . S
C631 C627 1.393 . S
C631 C630 1.391 . S
C632 H622 0.950 . S
C632 C633 1.386 . S
C632 C634 1.391 . S
C633 C632 1.386 . S
C633 C637 1.393 . S
C634 H623 0.950 . S
C634 C632 1.391 . S
C634 C635 1.400 . S
C635 C629 1.491 . S
C635 C634 1.400 . S
C635 C636 1.398 . S
C636 H624 0.950 . S
C636 C635 1.398 . S
C636 C637 1.391 . S
C637 H625 0.950 . S
C637 C633 1.393 . S
C637 C636 1.391 . S
H638 C646 0.950 . S
H639 C651 0.950 . S
H640 C648 0.950 . S
H641 C650 0.950 . S
H642 C652 0.950 . S
H643 C654 0.950 . S
H644 C656 0.950 . S
H645 C657 0.950 1_554 S
C646 H638 0.950 . S
C646 C647 1.386 . S
C646 C648 1.391 . S
C647 C646 1.386 . S
C647 C651 1.393 . S
C648 H640 0.950 . S
C648 C646 1.391 . S
C648 C649 1.400 . S
C649 C648 1.400 . S
C649 C650 1.398 . S
C649 C655 1.491 . S
C650 H641 0.950 . S
C650 C649 1.398 . S
C650 C651 1.391 . S
C651 H639 0.950 . S
C651 C647 1.393 . S
C651 C650 1.391 . S
C652 H642 0.950 . S
C652 C653 1.386 . S
C652 C654 1.391 . S
C653 C652 1.386 . S
C653 C657 1.393 . S
C654 H643 0.950 . S
C654 C652 1.391 . S
C654 C655 1.400 . S
C655 C649 1.491 . S
C655 C654 1.400 . S
C655 C656 1.398 . S
C656 H644 0.950 . S
C656 C655 1.398 . S
C656 C657 1.391 . S
C657 H645 0.950 1_556 S
C657 C653 1.393 . S
C657 C656 1.391 . S
H658 C666 0.950 . S
H659 C671 0.950 . S
H660 C668 0.950 . S
H661 C670 0.950 . S
H662 C672 0.950 . S
H663 C674 0.950 . S
H664 C676 0.950 . S
H665 C677 0.950 . S
C666 H658 0.950 . S
C666 C667 1.386 . S
C666 C668 1.391 . S
C667 C666 1.386 . S
C667 C671 1.393 . S
C668 H660 0.950 . S
C668 C666 1.391 . S
C668 C669 1.400 . S
C669 C668 1.400 . S
C669 C670 1.398 . S
C669 C675 1.491 . S
C670 H661 0.950 . S
C670 C669 1.398 . S
C670 C671 1.391 . S
C671 H659 0.950 . S
C671 C667 1.393 . S
C671 C670 1.391 . S
C672 H662 0.950 . S
C672 C673 1.386 . S
C672 C674 1.391 . S
C673 C672 1.386 . S
C673 C677 1.393 . S
C674 H663 0.950 . S
C674 C672 1.391 . S
C674 C675 1.400 . S
C675 C669 1.491 . S
C675 C674 1.400 . S
C675 C676 1.398 . S
C676 H664 0.950 . S
C676 C675 1.398 . S
C676 C677 1.391 . S
C677 H665 0.950 . S
C677 C673 1.393 . S
C677 C676 1.391 . S
H678 C686 0.950 . S
H679 C691 0.950 . S
H680 C688 0.950 . S
H681 C690 0.950 . S
H682 C692 0.950 . S
H683 C694 0.950 . S
H684 C696 0.950 . S
H685 C697 0.950 . S
C686 H678 0.950 . S
C686 C687 1.386 . S
C686 C688 1.391 . S
C687 C686 1.386 . S
C687 C691 1.393 . S
C688 H680 0.950 . S
C688 C686 1.391 . S
C688 C689 1.400 . S
C689 C688 1.400 . S
C689 C690 1.398 . S
C689 C695 1.491 . S
C690 H681 0.950 . S
C690 C689 1.398 . S
C690 C691 1.391 . S
C691 H679 0.950 . S
C691 C687 1.393 . S
C691 C690 1.391 . S
C692 H682 0.950 . S
C692 C693 1.386 . S
C692 C694 1.391 . S
C693 C692 1.386 . S
C693 C697 1.393 . S
C694 H683 0.950 . S
C694 C692 1.391 . S
C694 C695 1.400 . S
C695 C689 1.491 . S
C695 C694 1.400 . S
C695 C696 1.398 . S
C696 H684 0.950 . S
C696 C695 1.398 . S
C696 C697 1.391 . S
C697 H685 0.950 . S
C697 C693 1.393 . S
C697 C696 1.391 . S
H698 C706 0.950 . S
H699 C711 0.950 . S
H700 C708 0.950 . S
H701 C710 0.950 . S
H702 C712 0.950 . S
H703 C714 0.950 . S
H704 C716 0.950 . S
H705 C717 0.950 . S
C706 H698 0.950 . S
C706 C707 1.386 . S
C706 C708 1.391 . S
C707 C706 1.386 . S
C707 C711 1.393 . S
C708 H700 0.950 . S
C708 C706 1.391 . S
C708 C709 1.400 . S
C709 C708 1.400 . S
C709 C710 1.398 . S
C709 C715 1.491 . S
C710 H701 0.950 . S
C710 C709 1.398 . S
C710 C711 1.391 . S
C711 H699 0.950 . S
C711 C707 1.393 . S
C711 C710 1.391 . S
C712 H702 0.950 . S
C712 C713 1.386 . S
C712 C714 1.391 . S
C713 C712 1.386 . S
C713 C717 1.393 . S
C714 H703 0.950 . S
C714 C712 1.391 . S
C714 C715 1.400 . S
C715 C709 1.491 . S
C715 C714 1.400 . S
C715 C716 1.398 . S
C716 H704 0.950 . S
C716 C715 1.398 . S
C716 C717 1.391 . S
C717 H705 0.950 . S
C717 C713 1.393 . S
C717 C716 1.391 . S
H718 C726 0.950 . S
H719 C731 0.950 . S
H720 C728 0.950 . S
H721 C730 0.950 . S
H722 C732 0.950 . S
H723 C734 0.950 . S
H724 C736 0.950 . S
H725 C737 0.950 . S
C726 H718 0.950 . S
C726 C727 1.386 . S
C726 C728 1.391 . S
C727 C726 1.386 . S
C727 C731 1.393 . S
C728 H720 0.950 . S
C728 C726 1.391 . S
C728 C729 1.400 . S
C729 C728 1.400 . S
C729 C730 1.398 . S
C729 C735 1.491 . S
C730 H721 0.950 . S
C730 C729 1.398 . S
C730 C731 1.391 . S
C731 H719 0.950 . S
C731 C727 1.393 . S
C731 C730 1.391 . S
C732 H722 0.950 . S
C732 C733 1.386 . S
C732 C734 1.391 . S
C733 C732 1.386 . S
C733 C737 1.393 . S
C734 H723 0.950 . S
C734 C732 1.391 . S
C734 C735 1.400 . S
C735 C729 1.491 . S
C735 C734 1.400 . S
C735 C736 1.398 . S
C736 H724 0.950 . S
C736 C735 1.398 . S
C736 C737 1.391 . S
C737 H725 0.950 . S
C737 C733 1.393 . S
C737 C736 1.391 . S
H738 C746 0.950 . S
H739 C751 0.950 . S
H740 C748 0.950 . S
H741 C750 0.950 . S
H742 C752 0.950 . S
H743 C754 0.950 . S
H744 C756 0.950 . S
H745 C757 0.950 . S
C746 H738 0.950 . S
C746 C747 1.386 . S
C746 C748 1.391 . S
C747 C746 1.386 . S
C747 C751 1.393 . S
C748 H740 0.950 . S
C748 C746 1.391 . S
C748 C749 1.400 . S
C749 C748 1.400 . S
C749 C750 1.398 . S
C749 C755 1.491 . S
C750 H741 0.950 . S
C750 C749 1.398 . S
C750 C751 1.391 . S
C751 H739 0.950 . S
C751 C747 1.393 . S
C751 C750 1.391 . S
C752 H742 0.950 . S
C752 C753 1.386 . S
C752 C754 1.391 . S
C753 C752 1.386 . S
C753 C757 1.393 . S
C754 H743 0.950 . S
C754 C752 1.391 . S
C754 C755 1.400 . S
C755 C749 1.491 . S
C755 C754 1.400 . S
C755 C756 1.398 . S
C756 H744 0.950 . S
C756 C755 1.398 . S
C756 C757 1.391 . S
C757 H745 0.950 . S
C757 C753 1.393 . S
C757 C756 1.391 . S
H758 C766 0.950 . S
H759 C771 0.950 . S
H760 C768 0.950 . S
H761 C770 0.950 . S
H762 C772 0.950 . S
H763 C774 0.950 . S
H764 C776 0.950 . S
H765 C777 0.950 . S
C766 H758 0.950 . S
C766 C767 1.386 . S
C766 C768 1.391 . S
C767 C766 1.386 . S
C767 C771 1.393 . S
C768 H760 0.950 . S
C768 C766 1.391 . S
C768 C769 1.400 . S
C769 C768 1.400 . S
C769 C770 1.398 . S
C769 C775 1.491 . S
C770 H761 0.950 . S
C770 C769 1.398 . S
C770 C771 1.391 . S
C771 H759 0.950 . S
C771 C767 1.393 . S
C771 C770 1.391 . S
C772 H762 0.950 . S
C772 C773 1.386 . S
C772 C774 1.391 . S
C773 C772 1.386 . S
C773 C777 1.393 . S
C774 H763 0.950 . S
C774 C772 1.391 . S
C774 C775 1.400 . S
C775 C769 1.491 . S
C775 C774 1.400 . S
C775 C776 1.398 . S
C776 H764 0.950 . S
C776 C775 1.398 . S
C776 C777 1.391 . S
C777 H765 0.950 . S
C777 C773 1.393 . S
C777 C776 1.391 . S
H778 C786 0.950 . S
H779 C791 0.950 . S
H780 C788 0.950 . S
H781 C790 0.950 . S
H782 C792 0.950 . S
H783 C794 0.950 . S
H784 C796 0.950 . S
H785 C797 0.950 . S
C786 H778 0.950 . S
C786 C787 1.386 . S
C786 C788 1.391 . S
C787 C786 1.386 . S
C787 C791 1.393 . S
C788 H780 0.950 . S
C788 C786 1.391 . S
C788 C789 1.400 . S
C789 C788 1.400 . S
C789 C790 1.398 . S
C789 C795 1.491 . S
C790 H781 0.950 . S
C790 C789 1.398 . S
C790 C791 1.391 . S
C791 H779 0.950 . S
C791 C787 1.393 . S
C791 C790 1.391 . S
C792 H782 0.950 . S
C792 C793 1.386 . S
C792 C794 1.391 . S
C793 C792 1.386 . S
C793 C797 1.393 . S
C794 H783 0.950 . S
C794 C792 1.391 . S
C794 C795 1.400 . S
C795 C789 1.491 . S
C795 C794 1.400 . S
C795 C796 1.398 . S
C796 H784 0.950 . S
C796 C795 1.398 . S
C796 C797 1.391 . S
C797 H785 0.950 . S
C797 C793 1.393 . S
C797 C796 1.391 . S
H798 C806 0.950 . S
H799 C811 0.950 . S
H800 C808 0.950 . S
H801 C810 0.950 . S
H802 C812 0.950 . S
H803 C814 0.950 . S
H804 C816 0.950 . S
H805 C817 0.950 . S
C806 H798 0.950 . S
C806 C807 1.386 . S
C806 C808 1.391 . S
C807 C806 1.386 . S
C807 C811 1.393 . S
C808 H800 0.950 . S
C808 C806 1.391 . S
C808 C809 1.400 . S
C809 C808 1.400 . S
C809 C810 1.398 . S
C809 C815 1.491 . S
C810 H801 0.950 . S
C810 C809 1.398 . S
C810 C811 1.391 . S
C811 H799 0.950 . S
C811 C807 1.393 . S
C811 C810 1.391 . S
C812 H802 0.950 . S
C812 C813 1.386 . S
C812 C814 1.391 . S
C813 C812 1.386 . S
C813 C817 1.393 . S
C814 H803 0.950 . S
C814 C812 1.391 . S
C814 C815 1.400 . S
C815 C809 1.491 . S
C815 C814 1.400 . S
C815 C816 1.398 . S
C816 H804 0.950 . S
C816 C815 1.398 . S
C816 C817 1.391 . S
C817 H805 0.950 . S
C817 C813 1.393 . S
C817 C816 1.391 . S
H818 C826 0.950 . S
H819 C831 0.950 . S
H820 C828 0.950 . S
H821 C830 0.950 . S
H822 C832 0.950 . S
H823 C834 0.950 . S
H824 C836 0.950 . S
H825 C837 0.950 . S
C826 H818 0.950 . S
C826 C827 1.386 . S
C826 C828 1.391 . S
C827 C826 1.386 . S
C827 C831 1.393 . S
C828 H820 0.950 . S
C828 C826 1.391 . S
C828 C829 1.400 . S
C829 C828 1.400 . S
C829 C830 1.398 . S
C829 C835 1.491 . S
C830 H821 0.950 . S
C830 C829 1.398 . S
C830 C831 1.391 . S
C831 H819 0.950 . S
C831 C827 1.393 . S
C831 C830 1.391 . S
C832 H822 0.950 . S
C832 C833 1.386 . S
C832 C834 1.391 . S
C833 C832 1.386 . S
C833 C837 1.393 . S
C834 H823 0.950 . S
C834 C832 1.391 . S
C834 C835 1.400 . S
C835 C829 1.491 . S
C835 C834 1.400 . S
C835 C836 1.398 . S
C836 H824 0.950 . S
C836 C835 1.398 . S
C836 C837 1.391 . S
C837 H825 0.950 . S
C837 C833 1.393 . S
C837 C836 1.391 . S
H838 C846 0.950 . S
H839 C851 0.950 . S
H840 C848 0.950 . S
H841 C850 0.950 . S
H842 C852 0.950 . S
H843 C854 0.950 . S
H844 C856 0.950 . S
H845 C857 0.950 . S
C846 H838 0.950 . S
C846 C847 1.386 . S
C846 C848 1.391 . S
C847 C846 1.386 . S
C847 C851 1.393 . S
C848 H840 0.950 . S
C848 C846 1.391 . S
C848 C849 1.400 . S
C849 C848 1.400 . S
C849 C850 1.398 . S
C849 C855 1.491 . S
C850 H841 0.950 . S
C850 C849 1.398 . S
C850 C851 1.391 . S
C851 H839 0.950 . S
C851 C847 1.393 . S
C851 C850 1.391 . S
C852 H842 0.950 . S
C852 C853 1.386 . S
C852 C854 1.391 . S
C853 C852 1.386 . S
C853 C857 1.393 . S
C854 H843 0.950 . S
C854 C852 1.391 . S
C854 C855 1.400 . S
C855 C849 1.491 . S
C855 C854 1.400 . S
C855 C856 1.398 . S
C856 H844 0.950 . S
C856 C855 1.398 . S
C856 C857 1.391 . S
C857 H845 0.950 . S
C857 C853 1.393 . S
C857 C856 1.391 . S
H858 C866 0.950 . S
H859 C871 0.950 . S
H860 C868 0.950 . S
H861 C870 0.950 . S
H862 C872 0.950 . S
H863 C874 0.950 . S
H864 C876 0.950 . S
H865 C877 0.950 . S
C866 H858 0.950 . S
C866 C867 1.386 . S
C866 C868 1.391 . S
C867 C866 1.386 . S
C867 C871 1.393 . S
C868 H860 0.950 . S
C868 C866 1.391 . S
C868 C869 1.400 . S
C869 C868 1.400 . S
C869 C870 1.398 . S
C869 C875 1.491 . S
C870 H861 0.950 . S
C870 C869 1.398 . S
C870 C871 1.391 . S
C871 H859 0.950 . S
C871 C867 1.393 . S
C871 C870 1.391 . S
C872 H862 0.950 . S
C872 C873 1.386 . S
C872 C874 1.391 . S
C873 C872 1.386 . S
C873 C877 1.393 . S
C874 H863 0.950 . S
C874 C872 1.391 . S
C874 C875 1.400 . S
C875 C869 1.491 . S
C875 C874 1.400 . S
C875 C876 1.398 . S
C876 H864 0.950 . S
C876 C875 1.398 . S
C876 C877 1.391 . S
C877 H865 0.950 . S
C877 C873 1.393 . S
C877 C876 1.391 . S
H878 C886 0.950 . S
H879 C891 0.950 . S
H880 C888 0.950 . S
H881 C890 0.950 . S
H882 C892 0.950 . S
H883 C894 0.950 . S
H884 C896 0.950 . S
H885 C897 0.950 . S
C886 H878 0.950 . S
C886 C887 1.386 . S
C886 C888 1.391 . S
C887 C886 1.386 . S
C887 C891 1.393 . S
C888 H880 0.950 . S
C888 C886 1.391 . S
C888 C889 1.400 . S
C889 C888 1.400 . S
C889 C890 1.398 . S
C889 C895 1.491 . S
C890 H881 0.950 . S
C890 C889 1.398 . S
C890 C891 1.391 . S
C891 H879 0.950 . S
C891 C887 1.393 . S
C891 C890 1.391 . S
C892 H882 0.950 . S
C892 C893 1.386 . S
C892 C894 1.391 . S
C893 C892 1.386 . S
C893 C897 1.393 . S
C894 H883 0.950 . S
C894 C892 1.391 . S
C894 C895 1.400 . S
C895 C889 1.491 . S
C895 C894 1.400 . S
C895 C896 1.398 . S
C896 H884 0.950 . S
C896 C895 1.398 . S
C896 C897 1.391 . S
C897 H885 0.950 . S
C897 C893 1.393 . S
C897 C896 1.391 . S
H898 C906 0.950 . S
H899 C911 0.950 . S
H900 C908 0.950 . S
H901 C910 0.950 . S
H902 C912 0.950 . S
H903 C914 0.950 . S
H904 C916 0.950 . S
H905 C917 0.950 . S
C906 H898 0.950 . S
C906 C907 1.386 . S
C906 C908 1.391 . S
C907 C906 1.386 . S
C907 C911 1.393 . S
C908 H900 0.950 . S
C908 C906 1.391 . S
C908 C909 1.400 . S
C909 C908 1.400 . S
C909 C910 1.398 . S
C909 C915 1.491 . S
C910 H901 0.950 . S
C910 C909 1.398 . S
C910 C911 1.391 . S
C911 H899 0.950 . S
C911 C907 1.393 . S
C911 C910 1.391 . S
C912 H902 0.950 . S
C912 C913 1.386 . S
C912 C914 1.391 . S
C913 C912 1.386 . S
C913 C917 1.393 . S
C914 H903 0.950 . S
C914 C912 1.391 . S
C914 C915 1.400 . S
C915 C909 1.491 . S
C915 C914 1.400 . S
C915 C916 1.398 . S
C916 H904 0.950 . S
C916 C915 1.398 . S
C916 C917 1.391 . S
C917 H905 0.950 . S
C917 C913 1.393 . S
C917 C916 1.391 . S
H918 C926 0.950 . S
H919 C931 0.950 . S
H920 C928 0.950 . S
H921 C930 0.950 . S
H922 C932 0.950 . S
H923 C934 0.950 . S
H924 C936 0.950 . S
H925 C937 0.950 . S
C926 H918 0.950 . S
C926 C927 1.386 . S
C926 C928 1.391 . S
C927 C926 1.386 . S
C927 C931 1.393 . S
C928 H920 0.950 . S
C928 C926 1.391 . S
C928 C929 1.400 . S
C929 C928 1.400 . S
C929 C930 1.398 . S
C929 C935 1.491 . S
C930 H921 0.950 . S
C930 C929 1.398 . S
C930 C931 1.391 . S
C931 H919 0.950 . S
C931 C927 1.393 . S
C931 C930 1.391 . S
C932 H922 0.950 . S
C932 C933 1.386 . S
C932 C934 1.391 . S
C933 C932 1.386 . S
C933 C937 1.393 . S
C934 H923 0.950 . S
C934 C932 1.391 . S
C934 C935 1.400 . S
C935 C929 1.491 . S
C935 C934 1.400 . S
C935 C936 1.398 . S
C936 H924 0.950 . S
C936 C935 1.398 . S
C936 C937 1.391 . S
C937 H925 0.950 . S
C937 C933 1.393 . S
C937 C936 1.391 . S
H938 C946 0.950 . S
H939 C951 0.950 . S
H940 C948 0.950 . S
H941 C950 0.950 . S
H942 C952 0.950 . S
H943 C954 0.950 . S
H944 C956 0.950 . S
H945 C957 0.950 . S
C946 H938 0.950 . S
C946 C947 1.386 . S
C946 C948 1.391 . S
C947 C946 1.386 . S
C947 C951 1.393 . S
C948 H940 0.950 . S
C948 C946 1.391 . S
C948 C949 1.400 . S
C949 C948 1.400 . S
C949 C950 1.398 . S
C949 C955 1.491 . S
C950 H941 0.950 . S
C950 C949 1.398 . S
C950 C951 1.391 . S
C951 H939 0.950 . S
C951 C947 1.393 . S
C951 C950 1.391 . S
C952 H942 0.950 . S
C952 C953 1.386 . S
C952 C954 1.391 . S
C953 C952 1.386 . S
C953 C957 1.393 . S
C954 H943 0.950 . S
C954 C952 1.391 . S
C954 C955 1.400 . S
C955 C949 1.491 . S
C955 C954 1.400 . S
C955 C956 1.398 . S
C956 H944 0.950 . S
C956 C955 1.398 . S
C956 C957 1.391 . S
C957 H945 0.950 . S
C957 C953 1.393 . S
C957 C956 1.391 . S
H958 C966 0.950 . S
H959 C971 0.950 . S
H960 C968 0.950 . S
H961 C970 0.950 . S
H962 C972 0.950 . S
H963 C974 0.950 . S
H964 C976 0.950 . S
H965 C977 0.950 . S
C966 H958 0.950 . S
C966 C967 1.386 . S
C966 C968 1.391 . S
C967 C966 1.386 . S
C967 C971 1.393 . S
C968 H960 0.950 . S
C968 C966 1.391 . S
C968 C969 1.400 . S
C969 C968 1.400 . S
C969 C970 1.398 . S
C969 C975 1.491 . S
C970 H961 0.950 . S
C970 C969 1.398 . S
C970 C971 1.391 . S
C971 H959 0.950 . S
C971 C967 1.393 . S
C971 C970 1.391 . S
C972 H962 0.950 . S
C972 C973 1.386 . S
C972 C974 1.391 . S
C973 C972 1.386 . S
C973 C977 1.393 . S
C974 H963 0.950 . S
C974 C972 1.391 . S
C974 C975 1.400 . S
C975 C969 1.491 . S
C975 C974 1.400 . S
C975 C976 1.398 . S
C976 H964 0.950 . S
C976 C975 1.398 . S
C976 C977 1.391 . S
C977 H965 0.950 . S
C977 C973 1.393 . S
C977 C976 1.391 . S
H978 C986 0.950 . S
H979 C991 0.950 . S
H980 C988 0.950 . S
H981 C990 0.950 . S
H982 C992 0.950 . S
H983 C994 0.950 . S
H984 C996 0.950 . S
H985 C997 0.950 . S
C986 H978 0.950 . S
C986 C987 1.386 . S
C986 C988 1.391 . S
C987 C986 1.386 . S
C987 C991 1.393 . S
C988 H980 0.950 . S
C988 C986 1.391 . S
C988 C989 1.400 . S
C989 C988 1.400 . S
C989 C990 1.398 . S
C989 C995 1.491 . S
C990 H981 0.950 . S
C990 C989 1.398 . S
C990 C991 1.391 . S
C991 H979 0.950 . S
C991 C987 1.393 . S
C991 C990 1.391 . S
C992 H982 0.950 . S
C992 C993 1.386 . S
C992 C994 1.391 . S
C993 C992 1.386 . S
C993 C997 1.393 . S
C994 H983 0.950 . S
C994 C992 1.391 . S
C994 C995 1.400 . S
C995 C989 1.491 . S
C995 C994 1.400 . S
C995 C996 1.398 . S
C996 H984 0.950 . S
C996 C995 1.398 . S
C996 C997 1.391 . S
C997 H985 0.950 . S
C997 C993 1.393 . S
C997 C996 1.391 . S
H998 C1006 0.950 . S
H999 C1011 0.950 . S
H1000 C1008 0.950 . S
H1001 C1010 0.950 . S
H1002 C1012 0.950 . S
H1003 C1014 0.950 . S
H1004 C1016 0.950 . S
H1005 C1017 0.950 . S
C1006 H998 0.950 . S
C1006 C1007 1.386 . S
C1006 C1008 1.391 . S
C1007 C1006 1.386 . S
C1007 C1011 1.393 . S
C1008 H1000 0.950 . S
C1008 C1006 1.391 . S
C1008 C1009 1.400 . S
C1009 C1008 1.400 . S
C1009 C1010 1.398 . S
C1009 C1015 1.491 . S
C1010 H1001 0.950 . S
C1010 C1009 1.398 . S
C1010 C1011 1.391 . S
C1011 H999 0.950 . S
C1011 C1007 1.393 . S
C1011 C1010 1.391 . S
C1012 H1002 0.950 . S
C1012 C1013 1.386 . S
C1012 C1014 1.391 . S
C1013 C1012 1.386 . S
C1013 C1017 1.393 . S
C1014 H1003 0.950 . S
C1014 C1012 1.391 . S
C1014 C1015 1.400 . S
C1015 C1009 1.491 . S
C1015 C1014 1.400 . S
C1015 C1016 1.398 . S
C1016 H1004 0.950 . S
C1016 C1015 1.398 . S
C1016 C1017 1.391 . S
C1017 H1005 0.950 . S
C1017 C1013 1.393 . S
C1017 C1016 1.391 . S
H1018 C1026 0.950 . S
H1019 C1031 0.950 . S
H1020 C1028 0.950 . S
H1021 C1030 0.950 . S
H1022 C1032 0.950 . S
H1023 C1034 0.950 . S
H1024 C1036 0.950 . S
H1025 C1037 0.950 . S
C1026 H1018 0.950 . S
C1026 C1027 1.386 . S
C1026 C1028 1.391 . S
C1027 C1026 1.386 . S
C1027 C1031 1.393 . S
C1028 H1020 0.950 . S
C1028 C1026 1.391 . S
C1028 C1029 1.400 . S
C1029 C1028 1.400 . S
C1029 C1030 1.398 . S
C1029 C1035 1.491 . S
C1030 H1021 0.950 . S
C1030 C1029 1.398 . S
C1030 C1031 1.391 . S
C1031 H1019 0.950 . S
C1031 C1027 1.393 . S
C1031 C1030 1.391 . S
C1032 H1022 0.950 . S
C1032 C1033 1.386 . S
C1032 C1034 1.391 . S
C1033 C1032 1.386 . S
C1033 C1037 1.393 . S
C1034 H1023 0.950 . S
C1034 C1032 1.391 . S
C1034 C1035 1.400 . S
C1035 C1029 1.491 . S
C1035 C1034 1.400 . S
C1035 C1036 1.398 . S
C1036 H1024 0.950 . S
C1036 C1035 1.398 . S
C1036 C1037 1.391 . S
C1037 H1025 0.950 . S
C1037 C1033 1.393 . S
C1037 C1036 1.391 . S
H1038 C1046 0.950 . S
H1039 C1051 0.950 . S
H1040 C1048 0.950 . S
H1041 C1050 0.950 . S
H1042 C1052 0.950 . S
H1043 C1054 0.950 . S
H1044 C1056 0.950 . S
H1045 C1057 0.950 . S
C1046 H1038 0.950 . S
C1046 C1047 1.386 . S
C1046 C1048 1.391 . S
C1047 C1046 1.386 . S
C1047 C1051 1.393 . S
C1048 H1040 0.950 . S
C1048 C1046 1.391 . S
C1048 C1049 1.400 . S
C1049 C1048 1.400 . S
C1049 C1050 1.398 . S
C1049 C1055 1.491 . S
C1050 H1041 0.950 . S
C1050 C1049 1.398 . S
C1050 C1051 1.391 . S
C1051 H1039 0.950 . S
C1051 C1047 1.393 . S
C1051 C1050 1.391 . S
C1052 H1042 0.950 . S
C1052 C1053 1.386 . S
C1052 C1054 1.391 . S
C1053 C1052 1.386 . S
C1053 C1057 1.393 . S
C1054 H1043 0.950 . S
C1054 C1052 1.391 . S
C1054 C1055 1.400 . S
C1055 C1049 1.491 . S
C1055 C1054 1.400 . S
C1055 C1056 1.398 . S
C1056 H1044 0.950 . S
C1056 C1055 1.398 . S
C1056 C1057 1.391 . S
C1057 H1045 0.950 . S
C1057 C1053 1.393 . S
C1057 C1056 1.391 . S
H1058 C1066 0.950 . S
H1059 C1071 0.950 . S
H1060 C1068 0.950 . S
H1061 C1070 0.950 . S
H1062 C1072 0.950 . S
H1063 C1074 0.950 . S
H1064 C1076 0.950 . S
H1065 C1077 0.950 . S
C1066 H1058 0.950 . S
C1066 C1067 1.386 . S
C1066 C1068 1.391 . S
C1067 C1066 1.386 . S
C1067 C1071 1.393 . S
C1068 H1060 0.950 . S
C1068 C1066 1.391 . S
C1068 C1069 1.400 . S
C1069 C1068 1.400 . S
C1069 C1070 1.398 . S
C1069 C1075 1.491 . S
C1070 H1061 0.950 . S
C1070 C1069 1.398 . S
C1070 C1071 1.391 . S
C1071 H1059 0.950 . S
C1071 C1067 1.393 . S
C1071 C1070 1.391 . S
C1072 H1062 0.950 . S
C1072 C1073 1.386 . S
C1072 C1074 1.391 . S
C1073 C1072 1.386 . S
C1073 C1077 1.393 . S
C1074 H1063 0.950 . S
C1074 C1072 1.391 . S
C1074 C1075 1.400 . S
C1075 C1069 1.491 . S
C1075 C1074 1.400 . S
C1075 C1076 1.398 . S
C1076 H1064 0.950 . S
C1076 C1075 1.398 . S
C1076 C1077 1.391 . S
C1077 H1065 0.950 . S
C1077 C1073 1.393 . S
C1077 C1076 1.391 . S
H1078 C1086 0.950 . S
H1079 C1091 0.950 . S
H1080 C1088 0.950 . S
H1081 C1090 0.950 . S
H1082 C1092 0.950 . S
H1083 C1094 0.950 . S
H1084 C1096 0.950 . S
H1085 C1097 0.950 . S
C1086 H1078 0.950 . S
C1086 C1087 1.386 . S
C1086 C1088 1.391 . S
C1087 C1086 1.386 . S
C1087 C1091 1.393 . S
C1088 H1080 0.950 . S
C1088 C1086 1.391 . S
C1088 C1089 1.400 . S
C1089 C1088 1.400 . S
C1089 C1090 1.398 . S
C1089 C1095 1.491 . S
C1090 H1081 0.950 . S
C1090 C1089 1.398 . S
C1090 C1091 1.391 . S
C1091 H1079 0.950 . S
C1091 C1087 1.393 . S
C1091 C1090 1.391 . S
C1092 H1082 0.950 . S
C1092 C1093 1.386 . S
C1092 C1094 1.391 . S
C1093 C1092 1.386 . S
C1093 C1097 1.393 . S
C1094 H1083 0.950 . S
C1094 C1092 1.391 . S
C1094 C1095 1.400 . S
C1095 C1089 1.491 . S
C1095 C1094 1.400 . S
C1095 C1096 1.398 . S
C1096 H1084 0.950 . S
C1096 C1095 1.398 . S
C1096 C1097 1.391 . S
C1097 H1085 0.950 . S
C1097 C1093 1.393 . S
C1097 C1096 1.391 . S
H1098 C1106 0.950 . S
H1099 C1111 0.950 . S
H1100 C1108 0.950 . S
H1101 C1110 0.950 . S
H1102 C1112 0.950 . S
H1103 C1114 0.950 . S
H1104 C1116 0.950 . S
H1105 C1117 0.950 . S
C1106 H1098 0.950 . S
C1106 C1107 1.386 . S
C1106 C1108 1.391 . S
C1107 C1106 1.386 . S
C1107 C1111 1.393 . S
C1108 H1100 0.950 . S
C1108 C1106 1.391 . S
C1108 C1109 1.400 . S
C1109 C1108 1.400 . S
C1109 C1110 1.398 . S
C1109 C1115 1.491 . S
C1110 H1101 0.950 . S
C1110 C1109 1.398 . S
C1110 C1111 1.391 . S
C1111 H1099 0.950 . S
C1111 C1107 1.393 . S
C1111 C1110 1.391 . S
C1112 H1102 0.950 . S
C1112 C1113 1.386 . S
C1112 C1114 1.391 . S
C1113 C1112 1.386 . S
C1113 C1117 1.393 . S
C1114 H1103 0.950 . S
C1114 C1112 1.391 . S
C1114 C1115 1.400 . S
C1115 C1109 1.491 . S
C1115 C1114 1.400 . S
C1115 C1116 1.398 . S
C1116 H1104 0.950 . S
C1116 C1115 1.398 . S
C1116 C1117 1.391 . S
C1117 H1105 0.950 . S
C1117 C1113 1.393 . S
C1117 C1116 1.391 . S
H1118 C1126 0.950 . S
H1119 C1131 0.950 . S
H1120 C1128 0.950 . S
H1121 C1130 0.950 . S
H1122 C1132 0.950 . S
H1123 C1134 0.950 . S
H1124 C1136 0.950 . S
H1125 C1137 0.950 . S
C1126 H1118 0.950 . S
C1126 C1127 1.386 . S
C1126 C1128 1.391 . S
C1127 C1126 1.386 . S
C1127 C1131 1.393 . S
C1128 H1120 0.950 . S
C1128 C1126 1.391 . S
C1128 C1129 1.400 . S
C1129 C1128 1.400 . S
C1129 C1130 1.398 . S
C1129 C1135 1.491 . S
C1130 H1121 0.950 . S
C1130 C1129 1.398 . S
C1130 C1131 1.391 . S
C1131 H1119 0.950 . S
C1131 C1127 1.393 . S
C1131 C1130 1.391 . S
C1132 H1122 0.950 . S
C1132 C1133 1.386 . S
C1132 C1134 1.391 . S
C1133 C1132 1.386 . S
C1133 C1137 1.393 . S
C1134 H1123 0.950 . S
C1134 C1132 1.391 . S
C1134 C1135 1.400 . S
C1135 C1129 1.491 . S
C1135 C1134 1.400 . S
C1135 C1136 1.398 . S
C1136 H1124 0.950 . S
C1136 C1135 1.398 . S
C1136 C1137 1.391 . S
C1137 H1125 0.950 . S
C1137 C1133 1.393 . S
C1137 C1136 1.391 . S
H1138 C1146 0.950 . S
H1139 C1151 0.950 . S
H1140 C1148 0.950 . S
H1141 C1150 0.950 . S
H1142 C1152 0.950 . S
H1143 C1154 0.950 . S
H1144 C1156 0.950 . S
H1145 C1157 0.950 . S
C1146 H1138 0.950 . S
C1146 C1147 1.386 . S
C1146 C1148 1.391 . S
C1147 C1146 1.386 . S
C1147 C1151 1.393 . S
C1148 H1140 0.950 . S
C1148 C1146 1.391 . S
C1148 C1149 1.400 . S
C1149 C1148 1.400 . S
C1149 C1150 1.398 . S
C1149 C1155 1.491 . S
C1150 H1141 0.950 . S
C1150 C1149 1.398 . S
C1150 C1151 1.391 . S
C1151 H1139 0.950 . S
C1151 C1147 1.393 . S
C1151 C1150 1.391 . S
C1152 H1142 0.950 . S
C1152 C1153 1.386 . S
C1152 C1154 1.391 . S
C1153 C1152 1.386 . S
C1153 C1157 1.393 . S
C1154 H1143 0.950 . S
C1154 C1152 1.391 . S
C1154 C1155 1.400 . S
C1155 C1149 1.491 . S
C1155 C1154 1.400 . S
C1155 C1156 1.398 . S
C1156 H1144 0.950 . S
C1156 C1155 1.398 . S
C1156 C1157 1.391 . S
C1157 H1145 0.950 . S
C1157 C1153 1.393 . S
C1157 C1156 1.391 . S
H1158 C1166 0.950 . S
H1159 C1171 0.950 . S
H1160 C1168 0.950 . S
H1161 C1170 0.950 . S
H1162 C1172 0.950 . S
H1163 C1174 0.950 . S
H1164 C1176 0.950 . S
H1165 C1177 0.950 . S
C1166 H1158 0.950 . S
C1166 C1167 1.386 . S
C1166 C1168 1.391 . S
C1167 C1166 1.386 . S
C1167 C1171 1.393 . S
C1168 H1160 0.950 . S
C1168 C1166 1.391 . S
C1168 C1169 1.400 . S
C1169 C1168 1.400 . S
C1169 C1170 1.398 . S
C1169 C1175 1.491 . S
C1170 H1161 0.950 . S
C1170 C1169 1.398 . S
C1170 C1171 1.391 . S
C1171 H1159 0.950 . S
C1171 C1167 1.393 . S
C1171 C1170 1.391 . S
C1172 H1162 0.950 . S
C1172 C1173 1.386 . S
C1172 C1174 1.391 . S
C1173 C1172 1.386 . S
C1173 C1177 1.393 . S
C1174 H1163 0.950 . S
C1174 C1172 1.391 . S
C1174 C1175 1.400 . S
C1175 C1169 1.491 . S
C1175 C1174 1.400 . S
C1175 C1176 1.398 . S
C1176 H1164 0.950 . S
C1176 C1175 1.398 . S
C1176 C1177 1.391 . S
C1177 H1165 0.950 . S
C1177 C1173 1.393 . S
C1177 C1176 1.391 . S
H1178 C1186 0.950 . S
H1179 C1191 0.950 . S
H1180 C1188 0.950 . S
H1181 C1190 0.950 . S
H1182 C1192 0.950 . S
H1183 C1194 0.950 . S
H1184 C1196 0.950 . S
H1185 C1197 0.950 . S
C1186 H1178 0.950 . S
C1186 C1187 1.386 . S
C1186 C1188 1.391 . S
C1187 C1186 1.386 . S
C1187 C1191 1.393 . S
C1188 H1180 0.950 . S
C1188 C1186 1.391 . S
C1188 C1189 1.400 . S
C1189 C1188 1.400 . S
C1189 C1190 1.398 . S
C1189 C1195 1.491 . S
C1190 H1181 0.950 . S
C1190 C1189 1.398 . S
C1190 C1191 1.391 . S
C1191 H1179 0.950 . S
C1191 C1187 1.393 . S
C1191 C1190 1.391 . S
C1192 H1182 0.950 . S
C1192 C1193 1.386 . S
C1192 C1194 1.391 . S
C1193 C1192 1.386 . S
C1193 C1197 1.393 . S
C1194 H1183 0.950 . S
C1194 C1192 1.391 . S
C1194 C1195 1.400 . S
C1195 C1189 1.491 . S
C1195 C1194 1.400 . S
C1195 C1196 1.398 . S
C1196 H1184 0.950 . S
C1196 C1195 1.398 . S
C1196 C1197 1.391 . S
C1197 H1185 0.950 . S
C1197 C1193 1.393 . S
C1197 C1196 1.391 . S
H1198 C1206 0.950 . S
H1199 C1211 0.950 . S
H1200 C1208 0.950 . S
H1201 C1210 0.950 . S
H1202 C1212 0.950 . S
H1203 C1214 0.950 . S
H1204 C1216 0.950 . S
H1205 C1217 0.950 . S
C1206 H1198 0.950 . S
C1206 C1207 1.386 . S
C1206 C1208 1.391 . S
C1207 C1206 1.386 . S
C1207 C1211 1.393 . S
C1208 H1200 0.950 . S
C1208 C1206 1.391 . S
C1208 C1209 1.400 . S
C1209 C1208 1.400 . S
C1209 C1210 1.398 . S
C1209 C1215 1.491 . S
C1210 H1201 0.950 . S
C1210 C1209 1.398 . S
C1210 C1211 1.391 . S
C1211 H1199 0.950 . S
C1211 C1207 1.393 . S
C1211 C1210 1.391 . S
C1212 H1202 0.950 . S
C1212 C1213 1.386 . S
C1212 C1214 1.391 . S
C1213 C1212 1.386 . S
C1213 C1217 1.393 . S
C1214 H1203 0.950 . S
C1214 C1212 1.391 . S
C1214 C1215 1.400 . S
C1215 C1209 1.491 . S
C1215 C1214 1.400 . S
C1215 C1216 1.398 . S
C1216 H1204 0.950 . S
C1216 C1215 1.398 . S
C1216 C1217 1.391 . S
C1217 H1205 0.950 . S
C1217 C1213 1.393 . S
C1217 C1216 1.391 . S
H1218 C1226 0.950 . S
H1219 C1231 0.950 . S
H1220 C1228 0.950 . S
H1221 C1230 0.950 . S
H1222 C1232 0.950 . S
H1223 C1234 0.950 . S
H1224 C1236 0.950 . S
H1225 C1237 0.950 . S
C1226 H1218 0.950 . S
C1226 C1227 1.386 . S
C1226 C1228 1.391 . S
C1227 C1226 1.386 . S
C1227 C1231 1.393 . S
C1228 H1220 0.950 . S
C1228 C1226 1.391 . S
C1228 C1229 1.400 . S
C1229 C1228 1.400 . S
C1229 C1230 1.398 . S
C1229 C1235 1.491 . S
C1230 H1221 0.950 . S
C1230 C1229 1.398 . S
C1230 C1231 1.391 . S
C1231 H1219 0.950 . S
C1231 C1227 1.393 . S
C1231 C1230 1.391 . S
C1232 H1222 0.950 . S
C1232 C1233 1.386 . S
C1232 C1234 1.391 . S
C1233 C1232 1.386 . S
C1233 C1237 1.393 . S
C1234 H1223 0.950 . S
C1234 C1232 1.391 . S
C1234 C1235 1.400 . S
C1235 C1229 1.491 . S
C1235 C1234 1.400 . S
C1235 C1236 1.398 . S
C1236 H1224 0.950 . S
C1236 C1235 1.398 . S
C1236 C1237 1.391 . S
C1237 H1225 0.950 . S
C1237 C1233 1.393 . S
C1237 C1236 1.391 . S
H1238 C1246 0.950 . S
H1239 C1251 0.950 . S
H1240 C1248 0.950 . S
H1241 C1250 0.950 . S
H1242 C1252 0.950 . S
H1243 C1254 0.950 . S
H1244 C1256 0.950 . S
H1245 C1257 0.950 . S
C1246 H1238 0.950 . S
C1246 C1247 1.386 . S
C1246 C1248 1.391 . S
C1247 C1246 1.386 . S
C1247 C1251 1.393 . S
C1248 H1240 0.950 . S
C1248 C1246 1.391 . S
C1248 C1249 1.400 . S
C1249 C1248 1.400 . S
C1249 C1250 1.398 . S
C1249 C1255 1.491 . S
C1250 H1241 0.950 . S
C1250 C1249 1.398 . S
C1250 C1251 1.391 . S
C1251 H1239 0.950 . S
C1251 C1247 1.393 . S
C1251 C1250 1.391 . S
C1252 H1242 0.950 . S
C1252 C1253 1.386 . S
C1252 C1254 1.391 . S
C1253 C1252 1.386 . S
C1253 C1257 1.393 . S
C1254 H1243 0.950 . S
C1254 C1252 1.391 . S
C1254 C1255 1.400 . S
C1255 C1249 1.491 . S
C1255 C1254 1.400 . S
C1255 C1256 1.398 . S
C1256 H1244 0.950 . S
C1256 C1255 1.398 . S
C1256 C1257 1.391 . S
C1257 H1245 0.950 . S
C1257 C1253 1.393 . S
C1257 C1256 1.391 . S
H1258 C1266 0.950 . S
H1259 C1271 0.950 . S
H1260 C1268 0.950 . S
H1261 C1270 0.950 . S
H1262 C1272 0.950 . S
H1263 C1274 0.950 . S
H1264 C1276 0.950 . S
H1265 C1277 0.950 . S
C1266 H1258 0.950 . S
C1266 C1267 1.386 . S
C1266 C1268 1.391 . S
C1267 C1266 1.386 . S
C1267 C1271 1.393 . S
C1268 H1260 0.950 . S
C1268 C1266 1.391 . S
C1268 C1269 1.400 . S
C1269 C1268 1.400 . S
C1269 C1270 1.398 . S
C1269 C1275 1.491 . S
C1270 H1261 0.950 . S
C1270 C1269 1.398 . S
C1270 C1271 1.391 . S
C1271 H1259 0.950 . S
C1271 C1267 1.393 . S
C1271 C1270 1.391 . S
C1272 H1262 0.950 . S
C1272 C1273 1.386 . S
C1272 C1274 1.391 . S
C1273 C1272 1.386 . S
C1273 C1277 1.393 . S
C1274 H1263 0.950 . S
C1274 C1272 1.391 . S
C1274 C1275 1.400 . S
C1275 C1269 1.491 . S
C1275 C1274 1.400 . S
C1275 C1276 1.398 . S
C1276 H1264 0.950 . S
C1276 C1275 1.398 . S
C1276 C1277 1.391 . S
C1277 H1265 0.950 . S
C1277 C1273 1.393 . S
C1277 C1276 1.391 . S
H1278 C1286 0.950 . S
H1279 C1291 0.950 . S
H1280 C1288 0.950 . S
H1281 C1290 0.950 . S
H1282 C1292 0.950 . S
H1283 C1294 0.950 . S
H1284 C1296 0.950 . S
H1285 C1297 0.950 . S
C1286 H1278 0.950 . S
C1286 C1287 1.386 . S
C1286 C1288 1.391 . S
C1287 C1286 1.386 . S
C1287 C1291 1.393 . S
C1288 H1280 0.950 . S
C1288 C1286 1.391 . S
C1288 C1289 1.400 . S
C1289 C1288 1.400 . S
C1289 C1290 1.398 . S
C1289 C1295 1.491 . S
C1290 H1281 0.950 . S
C1290 C1289 1.398 . S
C1290 C1291 1.391 . S
C1291 H1279 0.950 . S
C1291 C1287 1.393 . S
C1291 C1290 1.391 . S
C1292 H1282 0.950 . S
C1292 C1293 1.386 . S
C1292 C1294 1.391 . S
C1293 C1292 1.386 . S
C1293 C1297 1.393 . S
C1294 H1283 0.950 . S
C1294 C1292 1.391 . S
C1294 C1295 1.400 . S
C1295 C1289 1.491 . S
C1295 C1294 1.400 . S
C1295 C1296 1.398 . S
C1296 H1284 0.950 . S
C1296 C1295 1.398 . S
C1296 C1297 1.391 . S
C1297 H1285 0.950 . S
C1297 C1293 1.393 . S
C1297 C1296 1.391 . S
H1298 C1306 0.950 . S
H1299 C1311 0.950 . S
H1300 C1308 0.950 . S
H1301 C1310 0.950 . S
H1302 C1312 0.950 . S
H1303 C1314 0.950 . S
H1304 C1316 0.950 . S
H1305 C1317 0.950 . S
C1306 H1298 0.950 . S
C1306 C1307 1.386 . S
C1306 C1308 1.391 . S
C1307 C1306 1.386 . S
C1307 C1311 1.393 . S
C1308 H1300 0.950 . S
C1308 C1306 1.391 . S
C1308 C1309 1.400 . S
C1309 C1308 1.400 . S
C1309 C1310 1.398 . S
C1309 C1315 1.491 . S
C1310 H1301 0.950 . S
C1310 C1309 1.398 . S
C1310 C1311 1.391 . S
C1311 H1299 0.950 . S
C1311 C1307 1.393 . S
C1311 C1310 1.391 . S
C1312 H1302 0.950 . S
C1312 C1313 1.386 . S
C1312 C1314 1.391 . S
C1313 C1312 1.386 . S
C1313 C1317 1.393 . S
C1314 H1303 0.950 . S
C1314 C1312 1.391 . S
C1314 C1315 1.400 . S
C1315 C1309 1.491 . S
C1315 C1314 1.400 . S
C1315 C1316 1.398 . S
C1316 H1304 0.950 . S
C1316 C1315 1.398 . S
C1316 C1317 1.391 . S
C1317 H1305 0.950 . S
C1317 C1313 1.393 . S
C1317 C1316 1.391 . S
C373 C187 1.342 . S
C367 C9 1.435 . S
C393 C188 1.543 . S
C387 C22 1.553 . S
C413 C182 1.079 . S
C407 C49 1.061 . S
C427 C61 0.991 . S
C433 C181 1.010 . S
C447 C81 1.562 . S
C453 C184 1.524 . S
C473 C186 1.053 . S
C467 C108 1.081 . S
C487 C122 0.984 . S
C493 C185 0.992 . S
C507 C148 1.431 . S
C513 C183 1.356 . S
C533 C218 2.222 . S
C527 C18 2.170 . S
C547 C39 1.510 . S
C553 C249 1.483 . S
C573 C217 2.069 . S
C567 C58 2.114 . S
C593 C252 1.018 . S
C587 C69 0.999 . S
C607 C89 1.237 . S
C613 C215 1.230 . S
C633 C247 1.324 . S
C627 C102 1.334 . S
C647 C139 1.259 . S
C653 C220 1.284 . S
C667 C142 1.263 . S
C673 C254 1.222 . S
C687 C1 1.254 . S
C693 C250 1.193 . S
C707 C98 1.481 . S
C713 C253 1.511 . S
C733 C221 2.087 . S
C727 C119 2.111 . S
C753 C248 0.981 . S
C747 C128 1.028 . S
C767 C159 2.182 . S
C773 C214 2.224 . S
C787 C41 1.337 . S
C793 C251 1.333 . S
C813 C216 1.284 . S
C807 C78 1.236 . S
C827 C28 1.245 . S
C833 C219 1.250 . S
C847 C149 1.436 . S
C853 C286 1.358 . S
C867 C82 1.219 . S
C873 C287 1.155 . S
C893 C281 1.116 . S
C887 C109 1.109 . S
C913 C280 1.416 . S
C907 C121 1.404 . S
C927 C21 1.223 . S
C933 C283 1.177 . S
C953 C285 1.104 . S
C947 C48 1.112 . S
C967 C62 1.384 . S
C973 C284 1.419 . S
C987 C8 1.445 . S
C993 C282 1.337 . S
C1007 C158 2.328 . S
C1013 C320 2.265 . S
C1033 C352 1.262 . S
C1027 C99 1.244 . S
C1047 C118 2.006 . S
C1053 C313 2.024 . S
C1067 C129 1.292 . S
C1073 C347 1.300 . S
C1093 C318 1.033 . S
C1087 C29 1.022 . S
C1107 C42 1.510 . S
C1113 C349 1.460 . S
C1133 C315 1.549 . S
C1127 C79 1.507 . S
C1153 C350 1.254 . S
C1147 C2 1.250 . S
C1173 C346 1.247 . S
C1167 C141 1.241 . S
C1187 C38 1.235 . S
C1193 C348 1.276 . S
C1207 C59 2.012 . S
C1213 C317 2.028 . S
C1233 C351 1.283 . S
C1227 C68 1.284 . S
C1247 C19 2.327 . S
C1253 C316 2.264 . S
C1267 C101 1.519 . S
C1273 C353 1.478 . S
C1293 C319 1.526 . S
C1287 C138 1.534 . S
C1313 C314 1.048 . S
C1307 C88 1.014 . S
