# Generated by pormake.
# Topology ocu, (6,8)-cn, num edge types: 1
# Building blocks:
#     Node 0, Type 0, BuildingBlock: MIFKUJ_clean_sbu_0, # of connection points: 6
#     Node 1, Type 0, BuildingBlock: MIFKUJ_clean_sbu_0, # of connection points: 6
#     Node 2, Type 0, BuildingBlock: MIFKUJ_clean_sbu_0, # of connection points: 6
#     Node 3, Type 0, BuildingBlock: MIFKUJ_clean_sbu_0, # of connection points: 6
#     Node 4, Type 0, BuildingBlock: MIFKUJ_clean_sbu_0, # of connection points: 6
#     Node 5, Type 0, BuildingBlock: MIFKUJ_clean_sbu_0, # of connection points: 6
#     Node 6, Type 0, BuildingBlock: MIFKUJ_clean_sbu_0, # of connection points: 6
#     Node 7, Type 0, BuildingBlock: MIFKUJ_clean_sbu_0, # of connection points: 6
#     Node 8, Type 1, BuildingBlock: VETTIZ_charged_sbu_0, # of connection points: 8
#     Node 9, Type 1, BuildingBlock: VETTIZ_charged_sbu_0, # of connection points: 8
#     Node 10, Type 1, BuildingBlock: VETTIZ_charged_sbu_0, # of connection points: 8
#     Node 11, Type 1, BuildingBlock: VETTIZ_charged_sbu_0, # of connection points: 8
#     Node 12, Type 1, BuildingBlock: VETTIZ_charged_sbu_0, # of connection points: 8
#     Node 13, Type 1, BuildingBlock: VETTIZ_charged_sbu_0, # of connection points: 8
#     Edge 14, Type (0, 1), None
#     Edge 15, Type (0, 1), None
#     Edge 16, Type (0, 1), None
#     Edge 17, Type (0, 1), None
#     Edge 18, Type (0, 1), None
#     Edge 19, Type (0, 1), None
#     Edge 20, Type (0, 1), None
#     Edge 21, Type (0, 1), None
#     Edge 22, Type (0, 1), None
#     Edge 23, Type (0, 1), None
#     Edge 24, Type (0, 1), None
#     Edge 25, Type (0, 1), None
#     Edge 26, Type (0, 1), None
#     Edge 27, Type (0, 1), None
#     Edge 28, Type (0, 1), None
#     Edge 29, Type (0, 1), None
#     Edge 30, Type (0, 1), None
#     Edge 31, Type (0, 1), None
#     Edge 32, Type (0, 1), None
#     Edge 33, Type (0, 1), None
#     Edge 34, Type (0, 1), None
#     Edge 35, Type (0, 1), None
#     Edge 36, Type (0, 1), None
#     Edge 37, Type (0, 1), None
#     Edge 38, Type (0, 1), None
#     Edge 39, Type (0, 1), None
#     Edge 40, Type (0, 1), None
#     Edge 41, Type (0, 1), None
#     Edge 42, Type (0, 1), None
#     Edge 43, Type (0, 1), None
#     Edge 44, Type (0, 1), None
#     Edge 45, Type (0, 1), None
#     Edge 46, Type (0, 1), None
#     Edge 47, Type (0, 1), None
#     Edge 48, Type (0, 1), None
#     Edge 49, Type (0, 1), None
#     Edge 50, Type (0, 1), None
#     Edge 51, Type (0, 1), None
#     Edge 52, Type (0, 1), None
#     Edge 53, Type (0, 1), None
#     Edge 54, Type (0, 1), None
#     Edge 55, Type (0, 1), None
#     Edge 56, Type (0, 1), None
#     Edge 57, Type (0, 1), None
#     Edge 58, Type (0, 1), None
#     Edge 59, Type (0, 1), None
#     Edge 60, Type (0, 1), None
#     Edge 61, Type (0, 1), None
# Relax obj value: 0.073
# Max RMSD: 0.209
# Mean RMSD: 0.112
data_MOF--net-ocu--node1-MIFKUJ_clean_sbu_0--node2-VETTIZ_charged_sbu_0--edge1-none
_symmetry_space_group_name_H-M    P1
_symmetry_Int_Tables_number       1
_symmetry_cell_setting            triclinic
loop_
_symmetry_equiv_pos_as_xyz
'x, y, z'
_cell_length_a     20.301161
_cell_length_b     20.061417
_cell_length_c     18.895286
_cell_angle_alpha  90.896459
_cell_angle_beta   94.16536
_cell_angle_gamma 105.90788
loop_
_atom_site_label
_atom_site_type_symbol
_atom_site_fract_x
_atom_site_fract_y
_atom_site_fract_z
_atom_type_partial_charge
Zn0 Zn 0.20548 0.36675 0.29117 0.0
Zn1 Zn 0.29133 0.21887 0.2471 0.0
C2 C 0.1167 0.40456 0.36818 0.0
O3 O 0.08375 0.34413 0.33788 0.0
C4 C 0.3573 0.18335 0.13525 0.0
O5 O 0.40125 0.24206 0.15821 0.0
O6 O 0.13644 0.36983 0.20749 0.0
O7 O 0.29934 0.41401 0.25284 0.0
O8 O 0.32494 0.32003 0.21667 0.0
C9 C 0.12512 0.42825 0.1943 0.0
O10 O 0.16046 0.48409 0.23147 0.0
O11 O 0.18042 0.42938 0.36104 0.0
C12 C 0.37559 0.13739 0.30355 0.0
O13 O 0.33603 0.08776 0.26118 0.0
O14 O 0.36675 0.19791 0.30493 0.0
O15 O 0.21232 0.17801 0.31522 0.0
O16 O 0.17934 0.27115 0.33974 0.0
O17 O 0.29816 0.16417 0.15997 0.0
C18 C 0.33453 0.38542 0.21554 0.0
C19 C 0.1777 0.20825 0.35198 0.0
Zn20 Zn 0.71672 0.32494 0.22669 0.0
Zn21 Zn 0.75799 0.20616 0.29687 0.0
C22 C 0.62597 0.39577 0.147 0.0
O23 O 0.58699 0.33251 0.13193 0.0
C24 C 0.8014 0.13545 0.41134 0.0
O25 O 0.77134 0.17351 0.44741 0.0
O26 O 0.79388 0.33097 0.16495 0.0
O27 O 0.76677 0.34834 0.32629 0.0
O28 O 0.8371 0.28596 0.30596 0.0
C29 C 0.83427 0.39187 0.16459 0.0
O30 O 0.82252 0.44179 0.20314 0.0
O31 O 0.67969 0.40507 0.18944 0.0
C32 C 0.64277 0.15915 0.35874 0.0
O33 O 0.65393 0.10665 0.32388 0.0
O34 O 0.68279 0.21906 0.35369 0.0
O35 O 0.72058 0.17465 0.19968 0.0
O36 O 0.64301 0.23247 0.20322 0.0
O37 O 0.79755 0.13628 0.344 0.0
C38 C 0.82437 0.33488 0.33966 0.0
C39 C 0.66174 0.18129 0.17987 0.0
Zn40 Zn 0.82313 0.74746 0.24501 0.0
Zn41 Zn 0.68685 0.82858 0.26645 0.0
C42 C 0.90064 0.70759 0.36159 0.0
O43 O 0.941 0.76979 0.35355 0.0
C44 C 0.62321 0.89719 0.15842 0.0
O45 O 0.56991 0.85409 0.18367 0.0
O46 O 0.86755 0.71687 0.16307 0.0
O47 O 0.73006 0.73189 0.19378 0.0
O48 O 0.6387 0.72581 0.24612 0.0
C49 C 0.8407 0.65981 0.12681 0.0
O50 O 0.78347 0.61685 0.1444 0.0
O51 O 0.8436 0.68648 0.32308 0.0
C52 C 0.6124 0.90572 0.33148 0.0
O53 O 0.65055 0.95861 0.29979 0.0
O54 O 0.62136 0.84634 0.32593 0.0
O55 O 0.77288 0.85764 0.33774 0.0
O56 O 0.86556 0.844 0.29082 0.0
O57 O 0.68328 0.89378 0.18056 0.0
C58 C 0.6713 0.69608 0.2083 0.0
C59 C 0.83764 0.86644 0.34107 0.0
Zn60 Zn 0.19266 0.80279 0.29176 0.0
Zn61 Zn 0.3084 0.72665 0.24382 0.0
C62 C 0.16426 0.69431 0.39502 0.0
O63 O 0.18956 0.74227 0.4454 0.0
C64 C 0.37615 0.82276 0.15272 0.0
O65 O 0.42698 0.79602 0.16991 0.0
O66 O 0.11974 0.84621 0.33564 0.0
O67 O 0.28619 0.85933 0.33114 0.0
O68 O 0.33272 0.77151 0.34446 0.0
C69 C 0.10513 0.90457 0.33653 0.0
O70 O 0.13742 0.95434 0.29688 0.0
O71 O 0.16917 0.70987 0.3309 0.0
C72 C 0.36115 0.65314 0.1395 0.0
O73 O 0.31491 0.67488 0.1015 0.0
O74 O 0.36919 0.66667 0.20664 0.0
O75 O 0.21346 0.67541 0.20749 0.0
O76 O 0.18196 0.77146 0.18691 0.0
O77 O 0.32222 0.80639 0.1846 0.0
C78 C 0.33081 0.83324 0.36119 0.0
C79 C 0.18536 0.71099 0.16631 0.0
Zn80 Zn 0.23442 0.84108 0.72453 0.0
Zn81 Zn 0.2757 0.7223 0.7947 0.0
C82 C 0.19101 0.91181 0.61005 0.0
O83 O 0.22109 0.87376 0.57398 0.0
C84 C 0.36646 0.65148 0.87439 0.0
O85 O 0.40546 0.71474 0.88943 0.0
O86 O 0.30962 0.82819 0.66771 0.0
O87 O 0.27183 0.87259 0.82172 0.0
O88 O 0.34941 0.81478 0.81817 0.0
C89 C 0.34963 0.8881 0.66265 0.0
O90 O 0.33847 0.9406 0.69752 0.0
O91 O 0.19486 0.91096 0.6774 0.0
C92 C 0.15815 0.65539 0.8568 0.0
O93 O 0.1699 0.60547 0.81825 0.0
O94 O 0.19854 0.71628 0.85644 0.0
O95 O 0.22565 0.6989 0.6951 0.0
O96 O 0.15531 0.76128 0.71543 0.0
O97 O 0.31273 0.64218 0.83196 0.0
C98 C 0.33067 0.86595 0.84152 0.0
C99 C 0.16804 0.71236 0.68173 0.0
Zn100 Zn 0.30556 0.21868 0.75495 0.0
Zn101 Zn 0.16929 0.2998 0.77638 0.0
C102 C 0.3692 0.15007 0.86298 0.0
O103 O 0.42251 0.19317 0.83774 0.0
C104 C 0.09178 0.33965 0.65979 0.0
O105 O 0.05142 0.27745 0.66784 0.0
O106 O 0.37107 0.20092 0.69548 0.0
O107 O 0.21954 0.18962 0.68364 0.0
O108 O 0.12686 0.20324 0.73057 0.0
C109 C 0.38003 0.14154 0.68993 0.0
O110 O 0.34185 0.08864 0.72161 0.0
O111 O 0.30913 0.15347 0.84084 0.0
C112 C 0.15171 0.38744 0.89457 0.0
O113 O 0.20895 0.4304 0.877 0.0
O114 O 0.12486 0.33038 0.85831 0.0
O115 O 0.26236 0.31538 0.82762 0.0
O116 O 0.35371 0.32145 0.77528 0.0
O117 O 0.14882 0.36077 0.6983 0.0
C118 C 0.15479 0.18082 0.68032 0.0
C119 C 0.32112 0.35118 0.8131 0.0
Zn120 Zn 0.68402 0.3206 0.77758 0.0
Zn121 Zn 0.79976 0.24447 0.72964 0.0
C122 C 0.61626 0.22449 0.86868 0.0
O123 O 0.56544 0.25124 0.85149 0.0
C124 C 0.82815 0.35293 0.62637 0.0
O125 O 0.80287 0.30496 0.57599 0.0
O126 O 0.62324 0.38059 0.81477 0.0
O127 O 0.77896 0.37185 0.8139 0.0
O128 O 0.81046 0.27579 0.83448 0.0
C129 C 0.6313 0.39412 0.8819 0.0
O130 O 0.67752 0.37235 0.9199 0.0
O131 O 0.6702 0.24086 0.8368 0.0
C132 C 0.88729 0.14269 0.68486 0.0
O133 O 0.855 0.09291 0.7245 0.0
O134 O 0.87268 0.20104 0.68575 0.0
O135 O 0.70622 0.18792 0.69027 0.0
O136 O 0.65969 0.27574 0.67694 0.0
O137 O 0.82323 0.33738 0.69049 0.0
C138 C 0.80706 0.33626 0.85508 0.0
C139 C 0.6616 0.21401 0.66021 0.0
Zn140 Zn 0.70109 0.82838 0.77429 0.0
Zn141 Zn 0.78694 0.68051 0.73023 0.0
C142 C 0.63512 0.86389 0.88615 0.0
O143 O 0.59117 0.80519 0.86318 0.0
C144 C 0.87573 0.64269 0.65321 0.0
O145 O 0.90868 0.70312 0.6835 0.0
O146 O 0.62566 0.84934 0.71647 0.0
O147 O 0.7801 0.86924 0.70617 0.0
O148 O 0.81309 0.77611 0.68165 0.0
C149 C 0.61682 0.90987 0.71786 0.0
O150 O 0.65641 0.9595 0.76022 0.0
O151 O 0.69426 0.88308 0.86143 0.0
C152 C 0.86731 0.619 0.82709 0.0
O153 O 0.83197 0.56317 0.78993 0.0
O154 O 0.85599 0.67743 0.8139 0.0
O155 O 0.69309 0.63325 0.76856 0.0
O156 O 0.66748 0.72722 0.80472 0.0
O157 O 0.812 0.61787 0.66035 0.0
C158 C 0.81472 0.83901 0.66941 0.0
C159 C 0.6579 0.66183 0.80585 0.0
Fe160 Fe 0.00999 0.18163 0.49728 0.0
O161 O 0.99226 0.08102 0.4797 0.0
Fe162 Fe 0.07504 0.03663 0.49686 0.0
Fe163 Fe 0.91738 1.01063 0.52453 0.0
O164 O -0.00026 0.08211 0.47572 0.0
O165 O 0.00016 0.96624 0.54169 0.0
O166 O 0.99267 0.96514 0.54567 0.0
Fe167 Fe 0.98243 0.86563 0.52411 0.0
C168 C 0.92943 0.12684 0.62832 0.0
O169 O 0.91942 0.16154 0.43418 0.0
O170 O 0.85014 0.06866 0.49036 0.0
O171 O 0.04581 0.87599 0.44061 0.0
O172 O 0.05483 0.98111 0.39997 0.0
O173 O 0.14256 0.11803 0.44077 0.0
O174 O 0.07821 0.19466 0.41679 0.0
O175 O 0.88968 0.95788 0.42655 0.0
O176 O 0.89834 0.85204 0.44991 0.0
C177 C 0.12993 0.17022 0.40609 0.0
O178 O 0.073 0.88572 0.58721 0.0
O179 O 0.14228 0.97859 0.53103 0.0
O180 O 0.94661 0.17127 0.58078 0.0
O181 O 0.93759 0.06614 0.62142 0.0
C182 C 0.86041 0.11911 0.44609 0.0
C183 C 0.8792 0.89423 0.40877 0.0
C184 C 0.86249 0.87703 0.6153 0.0
O185 O 0.84985 0.92922 0.58062 0.0
O186 O 0.91421 0.8526 0.6046 0.0
C187 C 0.06298 0.92042 0.39307 0.0
O188 O 0.10274 0.08937 0.59484 0.0
O189 O 0.09409 0.19521 0.57148 0.0
C190 C 0.13201 0.92814 0.5753 0.0
C191 C 0.11322 0.15303 0.61262 0.0
Fe192 Fe 0.49192 0.94601 1.00643 0.0
O193 O 0.55336 0.0328 0.97397 0.0
Fe194 Fe 0.33811 0.99041 0.0287 0.0
Fe195 Fe 0.6543 0.05684 0.99269 0.0
O196 O 0.43859 1.00815 0.04447 0.0
O197 O 0.43905 1.01445 0.04742 0.0
O198 O 0.55383 0.0391 0.97692 0.0
Fe199 Fe 0.50049 0.10124 0.01496 0.0
C200 C 0.61029 0.94934 0.10806 0.0
O201 O 0.55632 0.89216 0.96152 0.0
O202 O 0.64428 0.97823 0.92012 0.0
O203 O 0.44257 0.09082 0.91976 0.0
O204 O 0.33658 0.06658 0.95363 0.0
O205 O 0.32887 0.91766 0.95029 0.0
O206 O 0.43243 0.92829 0.91091 0.0
O207 O 0.64797 0.13337 0.92348 0.0
O208 O 0.56938 0.18207 0.97232 0.0
C209 C 0.36703 0.90653 0.90401 0.0
O210 O 0.43609 0.15509 0.05987 0.0
O211 O 0.34813 0.06902 0.10127 0.0
O212 O 0.54984 0.95643 0.10163 0.0
O213 O 0.65583 0.98067 0.06776 0.0
C214 C 0.61063 0.91406 0.92597 0.0
C215 C 0.61175 0.17767 0.92553 0.0
C216 C 0.62538 0.14072 0.11739 0.0
O217 O 0.66354 0.12959 0.0711 0.0
O218 O 0.55998 0.11896 0.11048 0.0
C219 C 0.38212 0.09791 0.91333 0.0
O220 O 0.34444 0.91388 0.09791 0.0
O221 O 0.42303 0.86518 0.04907 0.0
C222 C 0.38179 0.13318 0.09543 0.0
C223 C 0.38066 0.86958 0.09586 0.0
Fe224 Fe 0.01748 0.68516 1.01028 0.0
O225 O 0.00061 0.58766 0.03857 0.0
Fe226 Fe 0.07452 0.53503 0.02 0.0
Fe227 Fe 0.9179 0.51222 1.00139 0.0
O228 O 0.00701 0.58811 0.04095 0.0
O229 O 0.99181 0.45959 0.98282 0.0
O230 O 0.98541 0.45914 0.98045 0.0
Fe231 Fe 0.97494 0.3621 0.01112 0.0
C232 C 0.88131 0.63856 0.07408 0.0
O233 O 0.9428 0.66505 0.92723 0.0
O234 O 0.92073 0.55231 0.90182 0.0
O235 O 0.05136 0.36544 0.94879 0.0
O236 O 0.1331 0.46846 0.98347 0.0
O237 O 0.08191 0.57466 0.92092 0.0
O238 O 0.09367 0.68624 0.94391 0.0
O239 O 0.84196 0.42454 0.95095 0.0
O240 O 0.90088 0.3428 0.93179 0.0
C241 C 0.10641 0.63797 0.90809 0.0
O242 O 0.04962 0.3822 0.09416 0.0
O243 O 0.0717 0.49494 0.11957 0.0
O244 O 0.94106 0.68181 0.0726 0.0
O245 O 0.85932 0.57879 0.03792 0.0
C246 C 0.91436 0.61203 0.88757 0.0
C247 C 0.85123 0.36989 0.91765 0.0
C248 C 0.88601 0.40929 0.1133 0.0
O249 O 0.91051 0.47259 0.10047 0.0
O250 O 0.89875 0.36101 0.07749 0.0
C251 C 0.11111 0.40869 0.94731 0.0
O252 O 0.15046 0.62272 0.07044 0.0
O253 O 0.09154 0.70445 0.0896 0.0
C254 C 0.07806 0.43522 0.13382 0.0
C255 C 0.14119 0.67736 0.10375 0.0
Fe256 Fe 0.49356 0.5172 0.92578 0.0
O257 O 0.55722 0.56888 1.00668 0.0
Fe258 Fe 0.33663 0.46947 1.00604 0.0
Fe259 Fe 0.6558 0.57779 0.01535 0.0
O260 O 0.43618 0.47562 1.00578 0.0
O261 O 0.43521 0.47837 0.01472 0.0
O262 O 0.55625 0.57164 0.01562 0.0
Fe263 Fe 0.49887 0.53006 0.09562 0.0
C264 C 0.60493 0.44761 0.91477 0.0
O265 O 0.56512 0.57287 0.85358 0.0
O266 O 0.65507 0.64009 0.92817 0.0
O267 O 0.45128 0.60933 0.09838 0.0
O268 O 0.342 0.54677 0.08028 0.0
O269 O 0.33789 0.54005 0.92506 0.0
O270 O 0.44839 0.59713 0.92118 0.0
O271 O 0.66038 0.6499 0.09382 0.0
O272 O 0.5777 0.59477 0.1678 0.0
C273 C 0.38509 0.5924 0.90783 0.0
O274 O 0.42731 0.47438 0.16781 0.0
O275 O 0.33736 0.40717 0.09323 0.0
O276 O 0.54115 0.43792 0.92301 0.0
O277 O 0.65043 0.5005 0.94112 0.0
C278 C 0.62224 0.62325 0.86584 0.0
C279 C 0.63285 0.64344 0.1539 0.0
C280 C 0.60734 0.45486 0.11356 0.0
O281 O 0.65454 0.50721 0.09633 0.0
O282 O 0.54405 0.45012 0.10022 0.0
C283 C 0.3875 0.59965 0.10662 0.0
O284 O 0.33205 0.39736 0.92758 0.0
O285 O 0.41473 0.45249 0.8536 0.0
C286 C 0.37019 0.42401 0.15555 0.0
C287 C 0.35959 0.40381 0.8675 0.0
Fe288 Fe 0.98254 0.44447 0.50354 0.0
O289 O 0.03144 0.52071 0.57284 0.0
Fe290 Fe 0.97381 0.52987 0.34691 0.0
Fe291 Fe 0.0186 0.51737 0.67447 0.0
O292 O 0.96011 0.52012 0.44805 0.0
O293 O 0.96097 0.52653 0.44854 0.0
O294 O 0.03231 0.52712 0.57334 0.0
Fe295 Fe 0.00988 0.60277 0.51785 0.0
C296 C 0.88411 0.41329 0.61284 0.0
O297 O 0.01626 0.37573 0.57341 0.0
O298 O 0.07299 0.4468 0.66906 0.0
O299 O 0.10012 0.61726 0.47206 0.0
O300 O 0.06144 0.61161 0.35847 0.0
O301 O 0.03249 0.46112 0.3452 0.0
O302 O 0.07242 0.45626 0.45695 0.0
O303 O 0.10175 0.60024 0.68116 0.0
O304 O 0.06885 0.6721 0.5996 0.0
C305 C 0.07604 0.44854 0.39107 0.0
O306 O 0.97615 0.67151 0.44797 0.0
O307 O 0.91942 0.60044 0.35233 0.0
O308 O 0.8923 0.42997 0.54933 0.0
O309 O 0.93097 0.43563 0.66292 0.0
C310 C 0.06051 0.3912 0.62946 0.0
C311 C 0.11039 0.65828 0.65012 0.0
C312 C 0.91638 0.5987 0.63032 0.0
O313 O 0.95992 0.58612 0.67619 0.0
O314 O 0.92 0.59098 0.56444 0.0
C315 C 0.1083 0.63395 0.40854 0.0
O316 O 0.89066 0.447 0.34023 0.0
O317 O 0.92357 0.37514 0.42179 0.0
C318 C 0.93191 0.65604 0.39192 0.0
C319 C 0.88203 0.38896 0.37127 0.0
Fe320 Fe 0.50396 0.86977 0.51895 0.0
O321 O 0.53093 0.97366 0.51758 0.0
Fe322 Fe 0.48862 1.0159 0.4304 0.0
Fe323 Fe 0.50379 0.03135 0.59101 0.0
O324 O 0.52396 0.9698 0.51145 0.0
O325 O 0.46148 0.07359 0.50383 0.0
O326 O 0.46845 0.07745 0.50996 0.0
Fe327 Fe 0.48845 0.17748 0.50245 0.0
C328 C 0.39883 0.90276 0.6095 0.0
O329 O 0.57562 0.892 0.60143 0.0
O330 O 0.54396 0.97457 0.66756 0.0
O331 O 0.55893 0.18622 0.42642 0.0
O332 O 0.58217 0.08518 0.43715 0.0
O333 O 0.52816 0.95597 0.36458 0.0
O334 O 0.56816 0.8825 0.43969 0.0
O335 O 0.59886 0.1055 0.60179 0.0
O336 O 0.56455 0.20046 0.58241 0.0
C337 C 0.5666 0.91564 0.38149 0.0
O338 O 0.41679 0.15525 0.41998 0.0
O339 O 0.44845 0.07268 0.35384 0.0
O340 O 0.43348 0.86103 0.59498 0.0
O341 O 0.41024 0.96208 0.58425 0.0
C342 C 0.57595 0.9271 0.65921 0.0
C343 C 0.60684 0.17073 0.6103 0.0
C344 C 0.42582 0.13162 0.63992 0.0
O345 O 0.46426 0.09128 0.65682 0.0
O346 O 0.42426 0.16475 0.58171 0.0
C347 C 0.59359 0.14449 0.4119 0.0
O348 O 0.39355 0.94175 0.41961 0.0
O349 O 0.42786 0.84679 0.43899 0.0
C350 C 0.41647 0.12015 0.36219 0.0
C351 C 0.38558 0.87652 0.4111 0.0
loop_
_geom_bond_atom_site_label_1
_geom_bond_atom_site_label_2
_geom_bond_distance
_geom_bond_site_symmetry_2
_ccdc_geom_bond_type
Zn0 O6 1.969 . S
Zn0 O7 1.965 . S
Zn0 O11 2.024 . S
Zn0 O16 1.969 . S
Zn1 O8 1.969 . S
Zn1 O14 1.969 . S
Zn1 O15 1.965 . S
Zn1 O17 2.024 . S
C2 O3 1.229 . S
C2 O11 1.058 . S
O3 C2 1.229 . S
C4 O5 1.229 . S
C4 O17 1.058 . S
O5 C4 1.229 . S
O6 Zn0 1.969 . S
O6 C9 1.267 . S
O7 Zn0 1.965 . S
O7 C18 1.260 . S
O8 Zn1 1.969 . S
O8 C18 1.258 . S
C9 O6 1.267 . S
C9 O10 1.228 . S
O10 C9 1.228 . S
O11 Zn0 2.024 . S
O11 C2 1.058 . S
C12 O13 1.228 . S
C12 O14 1.267 . S
O13 C12 1.228 . S
O14 Zn1 1.969 . S
O14 C12 1.267 . S
O15 Zn1 1.965 . S
O15 C19 1.260 . S
O16 Zn0 1.969 . S
O16 C19 1.258 . S
O17 Zn1 2.024 . S
O17 C4 1.058 . S
C18 O7 1.260 . S
C18 O8 1.258 . S
C19 O15 1.260 . S
C19 O16 1.258 . S
Zn20 O26 1.969 . S
Zn20 O27 1.965 . S
Zn20 O31 2.024 . S
Zn20 O36 1.969 . S
Zn21 O28 1.969 . S
Zn21 O34 1.969 . S
Zn21 O35 1.965 . S
Zn21 O37 2.024 . S
C22 O23 1.229 . S
C22 O31 1.058 . S
O23 C22 1.229 . S
C24 O25 1.229 . S
C24 O37 1.058 . S
O25 C24 1.229 . S
O26 Zn20 1.969 . S
O26 C29 1.267 . S
O27 Zn20 1.965 . S
O27 C38 1.260 . S
O28 Zn21 1.969 . S
O28 C38 1.258 . S
C29 O26 1.267 . S
C29 O30 1.228 . S
O30 C29 1.228 . S
O31 Zn20 2.024 . S
O31 C22 1.058 . S
C32 O33 1.228 . S
C32 O34 1.267 . S
O33 C32 1.228 . S
O34 Zn21 1.969 . S
O34 C32 1.267 . S
O35 Zn21 1.965 . S
O35 C39 1.260 . S
O36 Zn20 1.969 . S
O36 C39 1.258 . S
O37 Zn21 2.024 . S
O37 C24 1.058 . S
C38 O27 1.260 . S
C38 O28 1.258 . S
C39 O35 1.260 . S
C39 O36 1.258 . S
Zn40 O46 1.969 . S
Zn40 O47 1.965 . S
Zn40 O51 2.024 . S
Zn40 O56 1.969 . S
Zn41 O48 1.969 . S
Zn41 O54 1.969 . S
Zn41 O55 1.965 . S
Zn41 O57 2.024 . S
C42 O43 1.229 . S
C42 O51 1.058 . S
O43 C42 1.229 . S
C44 O45 1.229 . S
C44 O57 1.058 . S
O45 C44 1.229 . S
O46 Zn40 1.969 . S
O46 C49 1.267 . S
O47 Zn40 1.965 . S
O47 C58 1.260 . S
O48 Zn41 1.969 . S
O48 C58 1.258 . S
C49 O46 1.267 . S
C49 O50 1.228 . S
O50 C49 1.228 . S
O51 Zn40 2.024 . S
O51 C42 1.058 . S
C52 O53 1.228 . S
C52 O54 1.267 . S
O53 C52 1.228 . S
O54 Zn41 1.969 . S
O54 C52 1.267 . S
O55 Zn41 1.965 . S
O55 C59 1.260 . S
O56 Zn40 1.969 . S
O56 C59 1.258 . S
O57 Zn41 2.024 . S
O57 C44 1.058 . S
C58 O47 1.260 . S
C58 O48 1.258 . S
C59 O55 1.260 . S
C59 O56 1.258 . S
Zn60 O66 1.969 . S
Zn60 O67 1.965 . S
Zn60 O71 2.024 . S
Zn60 O76 1.969 . S
Zn61 O68 1.969 . S
Zn61 O74 1.969 . S
Zn61 O75 1.965 . S
Zn61 O77 2.024 . S
C62 O63 1.229 . S
C62 O71 1.058 . S
O63 C62 1.229 . S
C64 O65 1.229 . S
C64 O77 1.058 . S
O65 C64 1.229 . S
O66 Zn60 1.969 . S
O66 C69 1.267 . S
O67 Zn60 1.965 . S
O67 C78 1.260 . S
O68 Zn61 1.969 . S
O68 C78 1.258 . S
C69 O66 1.267 . S
C69 O70 1.228 . S
O70 C69 1.228 . S
O71 Zn60 2.024 . S
O71 C62 1.058 . S
C72 O73 1.228 . S
C72 O74 1.267 . S
O73 C72 1.228 . S
O74 Zn61 1.969 . S
O74 C72 1.267 . S
O75 Zn61 1.965 . S
O75 C79 1.260 . S
O76 Zn60 1.969 . S
O76 C79 1.258 . S
O77 Zn61 2.024 . S
O77 C64 1.058 . S
C78 O67 1.260 . S
C78 O68 1.258 . S
C79 O75 1.260 . S
C79 O76 1.258 . S
Zn80 O86 1.969 . S
Zn80 O87 1.965 . S
Zn80 O91 2.024 . S
Zn80 O96 1.969 . S
Zn81 O88 1.969 . S
Zn81 O94 1.969 . S
Zn81 O95 1.965 . S
Zn81 O97 2.024 . S
C82 O83 1.229 . S
C82 O91 1.058 . S
O83 C82 1.229 . S
C84 O85 1.229 . S
C84 O97 1.058 . S
O85 C84 1.229 . S
O86 Zn80 1.969 . S
O86 C89 1.267 . S
O87 Zn80 1.965 . S
O87 C98 1.260 . S
O88 Zn81 1.969 . S
O88 C98 1.258 . S
C89 O86 1.267 . S
C89 O90 1.228 . S
O90 C89 1.228 . S
O91 Zn80 2.024 . S
O91 C82 1.058 . S
C92 O93 1.228 . S
C92 O94 1.267 . S
O93 C92 1.228 . S
O94 Zn81 1.969 . S
O94 C92 1.267 . S
O95 Zn81 1.965 . S
O95 C99 1.260 . S
O96 Zn80 1.969 . S
O96 C99 1.258 . S
O97 Zn81 2.024 . S
O97 C84 1.058 . S
C98 O87 1.260 . S
C98 O88 1.258 . S
C99 O95 1.260 . S
C99 O96 1.258 . S
Zn100 O106 1.969 . S
Zn100 O107 1.965 . S
Zn100 O111 2.024 . S
Zn100 O116 1.969 . S
Zn101 O108 1.969 . S
Zn101 O114 1.969 . S
Zn101 O115 1.965 . S
Zn101 O117 2.024 . S
C102 O103 1.229 . S
C102 O111 1.058 . S
O103 C102 1.229 . S
C104 O105 1.229 . S
C104 O117 1.058 . S
O105 C104 1.229 . S
O106 Zn100 1.969 . S
O106 C109 1.267 . S
O107 Zn100 1.965 . S
O107 C118 1.260 . S
O108 Zn101 1.969 . S
O108 C118 1.258 . S
C109 O106 1.267 . S
C109 O110 1.228 . S
O110 C109 1.228 . S
O111 Zn100 2.024 . S
O111 C102 1.058 . S
C112 O113 1.228 . S
C112 O114 1.267 . S
O113 C112 1.228 . S
O114 Zn101 1.969 . S
O114 C112 1.267 . S
O115 Zn101 1.965 . S
O115 C119 1.260 . S
O116 Zn100 1.969 . S
O116 C119 1.258 . S
O117 Zn101 2.024 . S
O117 C104 1.058 . S
C118 O107 1.260 . S
C118 O108 1.258 . S
C119 O115 1.260 . S
C119 O116 1.258 . S
Zn120 O126 1.969 . S
Zn120 O127 1.965 . S
Zn120 O131 2.024 . S
Zn120 O136 1.969 . S
Zn121 O128 1.969 . S
Zn121 O134 1.969 . S
Zn121 O135 1.965 . S
Zn121 O137 2.024 . S
C122 O123 1.229 . S
C122 O131 1.058 . S
O123 C122 1.229 . S
C124 O125 1.229 . S
C124 O137 1.058 . S
O125 C124 1.229 . S
O126 Zn120 1.969 . S
O126 C129 1.267 . S
O127 Zn120 1.965 . S
O127 C138 1.260 . S
O128 Zn121 1.969 . S
O128 C138 1.258 . S
C129 O126 1.267 . S
C129 O130 1.228 . S
O130 C129 1.228 . S
O131 Zn120 2.024 . S
O131 C122 1.058 . S
C132 O133 1.228 . S
C132 O134 1.267 . S
O133 C132 1.228 . S
O134 Zn121 1.969 . S
O134 C132 1.267 . S
O135 Zn121 1.965 . S
O135 C139 1.260 . S
O136 Zn120 1.969 . S
O136 C139 1.258 . S
O137 Zn121 2.024 . S
O137 C124 1.058 . S
C138 O127 1.260 . S
C138 O128 1.258 . S
C139 O135 1.260 . S
C139 O136 1.258 . S
Zn140 O146 1.969 . S
Zn140 O147 1.965 . S
Zn140 O151 2.024 . S
Zn140 O156 1.969 . S
Zn141 O148 1.969 . S
Zn141 O154 1.969 . S
Zn141 O155 1.965 . S
Zn141 O157 2.024 . S
C142 O143 1.229 . S
C142 O151 1.058 . S
O143 C142 1.229 . S
C144 O145 1.229 . S
C144 O157 1.058 . S
O145 C144 1.229 . S
O146 Zn140 1.969 . S
O146 C149 1.267 . S
O147 Zn140 1.965 . S
O147 C158 1.260 . S
O148 Zn141 1.969 . S
O148 C158 1.258 . S
C149 O146 1.267 . S
C149 O150 1.228 . S
O150 C149 1.228 . S
O151 Zn140 2.024 . S
O151 C142 1.058 . S
C152 O153 1.228 . S
C152 O154 1.267 . S
O153 C152 1.228 . S
O154 Zn141 1.969 . S
O154 C152 1.267 . S
O155 Zn141 1.965 . S
O155 C159 1.260 . S
O156 Zn140 1.969 . S
O156 C159 1.258 . S
O157 Zn141 2.024 . S
O157 C144 1.058 . S
C158 O147 1.260 . S
C158 O148 1.258 . S
C159 O155 1.260 . S
C159 O156 1.258 . S
Fe160 O161 1.886 1_455 S
Fe160 O164 1.715 . S
Fe160 O169 2.077 1_455 S
Fe160 O174 1.935 . S
Fe160 O180 2.077 1_455 S
Fe160 O189 1.935 . S
O161 Fe160 1.886 1_655 S
O161 Fe163 1.715 1_545 S
Fe162 O164 1.886 . S
Fe162 O165 1.715 1_545 S
Fe162 O172 1.935 1_545 S
Fe162 O173 2.077 . S
Fe162 O179 1.935 1_545 S
Fe162 O188 2.077 . S
Fe163 O161 1.715 1_565 S
Fe163 O166 1.886 . S
Fe163 O170 1.935 1_565 S
Fe163 O175 2.077 . S
Fe163 O181 1.935 1_565 S
Fe163 O185 2.077 . S
O164 Fe160 1.715 . S
O164 Fe162 1.886 . S
O165 Fe162 1.715 1_565 S
O165 Fe167 1.886 1_455 S
O166 Fe163 1.886 . S
O166 Fe167 1.715 . S
Fe167 O165 1.886 1_655 S
Fe167 O166 1.715 . S
Fe167 O171 2.077 1_655 S
Fe167 O176 1.935 . S
Fe167 O178 2.077 1_655 S
Fe167 O186 1.935 . S
C168 O180 1.381 . S
C168 O181 1.421 . S
O169 Fe160 2.077 1_655 S
O169 C182 1.381 . S
O170 Fe163 1.935 1_545 S
O170 C182 1.421 . S
O171 Fe167 2.077 1_455 S
O171 C187 1.381 . S
O172 Fe162 1.935 1_565 S
O172 C187 1.421 . S
O173 Fe162 2.077 . S
O173 C177 1.381 . S
O174 Fe160 1.935 . S
O174 C177 1.421 . S
O175 Fe163 2.077 . S
O175 C183 1.381 . S
O176 Fe167 1.935 . S
O176 C183 1.421 . S
C177 O173 1.381 . S
C177 O174 1.421 . S
O178 Fe167 2.077 1_455 S
O178 C190 1.381 . S
O179 Fe162 1.935 1_565 S
O179 C190 1.421 . S
O180 Fe160 2.077 1_655 S
O180 C168 1.381 . S
O181 Fe163 1.935 1_545 S
O181 C168 1.421 . S
C182 O169 1.381 . S
C182 O170 1.421 . S
C183 O175 1.381 . S
C183 O176 1.421 . S
C184 O185 1.381 . S
C184 O186 1.421 . S
O185 Fe163 2.077 . S
O185 C184 1.381 . S
O186 Fe167 1.935 . S
O186 C184 1.421 . S
C187 O171 1.381 . S
C187 O172 1.421 . S
O188 Fe162 2.077 . S
O188 C191 1.381 . S
O189 Fe160 1.935 . S
O189 C191 1.421 . S
C190 O178 1.381 . S
C190 O179 1.421 . S
C191 O188 1.381 . S
C191 O189 1.421 . S
Fe192 O193 1.886 1_556 S
Fe192 O196 1.715 . S
Fe192 O201 2.077 . S
Fe192 O206 1.935 . S
Fe192 O212 2.077 1_556 S
Fe192 O221 1.935 1_556 S
O193 Fe192 1.886 1_554 S
O193 Fe195 1.715 1_565 S
Fe194 O196 1.886 . S
Fe194 O197 1.715 1_565 S
Fe194 O204 1.935 1_565 S
Fe194 O205 2.077 . S
Fe194 O211 1.935 1_566 S
Fe194 O220 2.077 1_556 S
Fe195 O193 1.715 1_545 S
Fe195 O198 1.886 . S
Fe195 O202 1.935 1_544 S
Fe195 O207 2.077 1_554 S
Fe195 O213 1.935 1_545 S
Fe195 O217 2.077 . S
O196 Fe192 1.715 . S
O196 Fe194 1.886 . S
O197 Fe194 1.715 1_545 S
O197 Fe199 1.886 1_556 S
O198 Fe195 1.886 . S
O198 Fe199 1.715 . S
Fe199 O197 1.886 1_554 S
Fe199 O198 1.715 . S
Fe199 O203 2.077 1_554 S
Fe199 O208 1.935 1_554 S
Fe199 O210 2.077 . S
Fe199 O218 1.935 . S
C200 O212 1.381 . S
C200 O213 1.421 . S
O201 Fe192 2.077 . S
O201 C214 1.381 . S
O202 Fe195 1.935 1_566 S
O202 C214 1.421 . S
O203 Fe199 2.077 1_556 S
O203 C219 1.381 . S
O204 Fe194 1.935 1_545 S
O204 C219 1.421 . S
O205 Fe194 2.077 . S
O205 C209 1.381 . S
O206 Fe192 1.935 . S
O206 C209 1.421 . S
O207 Fe195 2.077 1_556 S
O207 C215 1.381 . S
O208 Fe199 1.935 1_556 S
O208 C215 1.421 . S
C209 O205 1.381 . S
C209 O206 1.421 . S
O210 Fe199 2.077 . S
O210 C222 1.381 . S
O211 Fe194 1.935 1_544 S
O211 C222 1.421 . S
O212 Fe192 2.077 1_554 S
O212 C200 1.381 . S
O213 Fe195 1.935 1_565 S
O213 C200 1.421 . S
C214 O201 1.381 . S
C214 O202 1.421 . S
C215 O207 1.381 . S
C215 O208 1.421 . S
C216 O217 1.381 . S
C216 O218 1.421 . S
O217 Fe195 2.077 . S
O217 C216 1.381 . S
O218 Fe199 1.935 . S
O218 C216 1.421 . S
C219 O203 1.381 . S
C219 O204 1.421 . S
O220 Fe194 2.077 1_554 S
O220 C223 1.381 . S
O221 Fe192 1.935 1_554 S
O221 C223 1.421 . S
C222 O210 1.381 . S
C222 O211 1.421 . S
C223 O220 1.381 . S
C223 O221 1.421 . S
Fe224 O225 1.886 1_454 S
Fe224 O228 1.715 . S
Fe224 O233 2.077 1_454 S
Fe224 O238 1.935 1_554 S
Fe224 O244 2.077 1_455 S
Fe224 O253 1.935 . S
O225 Fe224 1.886 1_656 S
O225 Fe227 1.715 . S
Fe226 O228 1.886 . S
Fe226 O229 1.715 . S
Fe226 O236 1.935 1_554 S
Fe226 O237 2.077 1_554 S
Fe226 O243 1.935 . S
Fe226 O252 2.077 . S
Fe227 O225 1.715 . S
Fe227 O230 1.886 . S
Fe227 O234 1.935 . S
Fe227 O239 2.077 . S
Fe227 O245 1.935 1_556 S
Fe227 O249 2.077 1_556 S
O228 Fe224 1.715 . S
O228 Fe226 1.886 . S
O229 Fe226 1.715 . S
O229 Fe231 1.886 1_454 S
O230 Fe227 1.886 . S
O230 Fe231 1.715 . S
Fe231 O229 1.886 1_656 S
Fe231 O230 1.715 . S
Fe231 O235 2.077 1_655 S
Fe231 O240 1.935 . S
Fe231 O242 2.077 1_656 S
Fe231 O250 1.935 1_556 S
C232 O244 1.381 . S
C232 O245 1.421 . S
O233 Fe224 2.077 1_656 S
O233 C246 1.381 . S
O234 Fe227 1.935 . S
O234 C246 1.421 . S
O235 Fe231 2.077 1_455 S
O235 C251 1.381 . S
O236 Fe226 1.935 1_556 S
O236 C251 1.421 . S
O237 Fe226 2.077 1_556 S
O237 C241 1.381 . S
O238 Fe224 1.935 1_556 S
O238 C241 1.421 . S
O239 Fe227 2.077 . S
O239 C247 1.381 . S
O240 Fe231 1.935 . S
O240 C247 1.421 . S
C241 O237 1.381 . S
C241 O238 1.421 . S
O242 Fe231 2.077 1_454 S
O242 C254 1.381 . S
O243 Fe226 1.935 . S
O243 C254 1.421 . S
O244 Fe224 2.077 1_655 S
O244 C232 1.381 . S
O245 Fe227 1.935 1_554 S
O245 C232 1.421 . S
C246 O233 1.381 . S
C246 O234 1.421 . S
C247 O239 1.381 . S
C247 O240 1.421 . S
C248 O249 1.381 . S
C248 O250 1.421 . S
O249 Fe227 2.077 1_554 S
O249 C248 1.381 . S
O250 Fe231 1.935 1_554 S
O250 C248 1.421 . S
C251 O235 1.381 . S
C251 O236 1.421 . S
O252 Fe226 2.077 . S
O252 C255 1.381 . S
O253 Fe224 1.935 . S
O253 C255 1.421 . S
C254 O242 1.381 . S
C254 O243 1.421 . S
C255 O252 1.381 . S
C255 O253 1.421 . S
Fe256 O257 1.886 . S
Fe256 O260 1.715 . S
Fe256 O265 2.077 . S
Fe256 O270 1.935 . S
Fe256 O276 2.077 . S
Fe256 O285 1.935 . S
O257 Fe256 1.886 . S
O257 Fe259 1.715 1_556 S
Fe258 O260 1.886 . S
Fe258 O261 1.715 1_556 S
Fe258 O268 1.935 1_556 S
Fe258 O269 2.077 . S
Fe258 O275 1.935 1_556 S
Fe258 O284 2.077 . S
Fe259 O257 1.715 1_554 S
Fe259 O262 1.886 . S
Fe259 O266 1.935 1_554 S
Fe259 O271 2.077 . S
Fe259 O277 1.935 1_554 S
Fe259 O281 2.077 . S
O260 Fe256 1.715 . S
O260 Fe258 1.886 . S
O261 Fe258 1.715 1_554 S
O261 Fe263 1.886 . S
O262 Fe259 1.886 . S
O262 Fe263 1.715 . S
Fe263 O261 1.886 . S
Fe263 O262 1.715 . S
Fe263 O267 2.077 . S
Fe263 O272 1.935 . S
Fe263 O274 2.077 . S
Fe263 O282 1.935 . S
C264 O276 1.381 . S
C264 O277 1.421 . S
O265 Fe256 2.077 . S
O265 C278 1.381 . S
O266 Fe259 1.935 1_556 S
O266 C278 1.421 . S
O267 Fe263 2.077 . S
O267 C283 1.381 . S
O268 Fe258 1.935 1_554 S
O268 C283 1.421 . S
O269 Fe258 2.077 . S
O269 C273 1.381 . S
O270 Fe256 1.935 . S
O270 C273 1.421 . S
O271 Fe259 2.077 . S
O271 C279 1.381 . S
O272 Fe263 1.935 . S
O272 C279 1.421 . S
C273 O269 1.381 . S
C273 O270 1.421 . S
O274 Fe263 2.077 . S
O274 C286 1.381 . S
O275 Fe258 1.935 1_554 S
O275 C286 1.421 . S
O276 Fe256 2.077 . S
O276 C264 1.381 . S
O277 Fe259 1.935 1_556 S
O277 C264 1.421 . S
C278 O265 1.381 . S
C278 O266 1.421 . S
C279 O271 1.381 . S
C279 O272 1.421 . S
C280 O281 1.381 . S
C280 O282 1.421 . S
O281 Fe259 2.077 . S
O281 C280 1.381 . S
O282 Fe263 1.935 . S
O282 C280 1.421 . S
C283 O267 1.381 . S
C283 O268 1.421 . S
O284 Fe258 2.077 . S
O284 C287 1.381 . S
O285 Fe256 1.935 . S
O285 C287 1.421 . S
C286 O274 1.381 . S
C286 O275 1.421 . S
C287 O284 1.381 . S
C287 O285 1.421 . S
Fe288 O289 1.886 . S
Fe288 O292 1.715 . S
Fe288 O297 2.077 1_655 S
Fe288 O302 1.935 1_655 S
Fe288 O308 2.077 . S
Fe288 O317 1.935 . S
O289 Fe288 1.886 . S
O289 Fe291 1.715 1_655 S
Fe290 O292 1.886 . S
Fe290 O293 1.715 1_655 S
Fe290 O300 1.935 1_655 S
Fe290 O301 2.077 1_655 S
Fe290 O307 1.935 . S
Fe290 O316 2.077 . S
Fe291 O289 1.715 1_455 S
Fe291 O294 1.886 . S
Fe291 O298 1.935 . S
Fe291 O303 2.077 . S
Fe291 O309 1.935 1_455 S
Fe291 O313 2.077 1_455 S
O292 Fe288 1.715 . S
O292 Fe290 1.886 . S
O293 Fe290 1.715 1_455 S
O293 Fe295 1.886 . S
O294 Fe291 1.886 . S
O294 Fe295 1.715 . S
Fe295 O293 1.886 . S
Fe295 O294 1.715 . S
Fe295 O299 2.077 . S
Fe295 O304 1.935 . S
Fe295 O306 2.077 1_455 S
Fe295 O314 1.935 1_455 S
C296 O308 1.381 . S
C296 O309 1.421 . S
O297 Fe288 2.077 1_455 S
O297 C310 1.381 . S
O298 Fe291 1.935 . S
O298 C310 1.421 . S
O299 Fe295 2.077 . S
O299 C315 1.381 . S
O300 Fe290 1.935 1_455 S
O300 C315 1.421 . S
O301 Fe290 2.077 1_455 S
O301 C305 1.381 . S
O302 Fe288 1.935 1_455 S
O302 C305 1.421 . S
O303 Fe291 2.077 . S
O303 C311 1.381 . S
O304 Fe295 1.935 . S
O304 C311 1.421 . S
C305 O301 1.381 . S
C305 O302 1.421 . S
O306 Fe295 2.077 1_655 S
O306 C318 1.381 . S
O307 Fe290 1.935 . S
O307 C318 1.421 . S
O308 Fe288 2.077 . S
O308 C296 1.381 . S
O309 Fe291 1.935 1_655 S
O309 C296 1.421 . S
C310 O297 1.381 . S
C310 O298 1.421 . S
C311 O303 1.381 . S
C311 O304 1.421 . S
C312 O313 1.381 . S
C312 O314 1.421 . S
O313 Fe291 2.077 1_655 S
O313 C312 1.381 . S
O314 Fe295 1.935 1_655 S
O314 C312 1.421 . S
C315 O299 1.381 . S
C315 O300 1.421 . S
O316 Fe290 2.077 . S
O316 C319 1.381 . S
O317 Fe288 1.935 . S
O317 C319 1.421 . S
C318 O306 1.381 . S
C318 O307 1.421 . S
C319 O316 1.381 . S
C319 O317 1.421 . S
Fe320 O321 1.886 . S
Fe320 O324 1.715 . S
Fe320 O329 2.077 . S
Fe320 O334 1.935 . S
Fe320 O340 2.077 . S
Fe320 O349 1.935 . S
O321 Fe320 1.886 . S
O321 Fe323 1.715 1_565 S
Fe322 O324 1.886 . S
Fe322 O325 1.715 1_565 S
Fe322 O332 1.935 1_565 S
Fe322 O333 2.077 . S
Fe322 O339 1.935 1_565 S
Fe322 O348 2.077 . S
Fe323 O321 1.715 1_545 S
Fe323 O326 1.886 . S
Fe323 O330 1.935 1_545 S
Fe323 O335 2.077 . S
Fe323 O341 1.935 1_545 S
Fe323 O345 2.077 . S
O324 Fe320 1.715 . S
O324 Fe322 1.886 . S
O325 Fe322 1.715 1_545 S
O325 Fe327 1.886 . S
O326 Fe323 1.886 . S
O326 Fe327 1.715 . S
Fe327 O325 1.886 . S
Fe327 O326 1.715 . S
Fe327 O331 2.077 . S
Fe327 O336 1.935 . S
Fe327 O338 2.077 . S
Fe327 O346 1.935 . S
C328 O340 1.381 . S
C328 O341 1.421 . S
O329 Fe320 2.077 . S
O329 C342 1.381 . S
O330 Fe323 1.935 1_565 S
O330 C342 1.421 . S
O331 Fe327 2.077 . S
O331 C347 1.381 . S
O332 Fe322 1.935 1_545 S
O332 C347 1.421 . S
O333 Fe322 2.077 . S
O333 C337 1.381 . S
O334 Fe320 1.935 . S
O334 C337 1.421 . S
O335 Fe323 2.077 . S
O335 C343 1.381 . S
O336 Fe327 1.935 . S
O336 C343 1.421 . S
C337 O333 1.381 . S
C337 O334 1.421 . S
O338 Fe327 2.077 . S
O338 C350 1.381 . S
O339 Fe322 1.935 1_545 S
O339 C350 1.421 . S
O340 Fe320 2.077 . S
O340 C328 1.381 . S
O341 Fe323 1.935 1_565 S
O341 C328 1.421 . S
C342 O329 1.381 . S
C342 O330 1.421 . S
C343 O335 1.381 . S
C343 O336 1.421 . S
C344 O345 1.381 . S
C344 O346 1.421 . S
O345 Fe323 2.077 . S
O345 C344 1.381 . S
O346 Fe327 1.935 . S
O346 C344 1.421 . S
C347 O331 1.381 . S
C347 O332 1.421 . S
O348 Fe322 2.077 . S
O348 C351 1.381 . S
O349 Fe320 1.935 . S
O349 C351 1.421 . S
C350 O338 1.381 . S
C350 O339 1.421 . S
C351 O348 1.381 . S
C351 O349 1.421 . S
C177 C19 2.938 . S
C182 C24 1.356 . S
C183 C59 1.528 . S
C69 C187 1.115 . S
C82 C190 1.355 . S
C191 C118 1.526 . S
C132 C168 1.115 . S
C158 C184 2.940 . S
C222 C4 1.760 . S
C29 C248 0.604 . S
C200 C44 1.412 . S
C255 C79 1.462 . S
C98 C209 1.418 . S
C251 C112 1.079 . S
C122 C215 0.950 . S
C152 C246 1.271 . S
C9 C254 1.269 . S
C92 C241 0.606 . S
C219 C102 1.414 . S
C247 C138 1.465 . S
C142 C214 1.763 . S
C49 C232 1.077 . S
C223 C64 0.950 . S
C39 C216 1.415 . S
C159 C278 2.801 . S
C84 C273 1.471 . S
C287 C119 1.483 . S
C264 C129 1.339 . S
C22 C280 1.470 . S
C279 C58 1.481 . S
C72 C283 1.338 . S
C18 C286 2.798 . S
C144 C312 1.925 . S
C328 C89 0.690 . S
C104 C310 1.367 . S
C139 C343 1.386 . S
C319 C38 1.420 . S
C52 C337 1.061 . S
C315 C62 1.025 . S
C350 C12 1.059 . S
C342 C149 1.061 . S
C32 C347 0.691 . S
C42 C318 1.369 . S
C351 C78 1.387 . S
C2 C305 1.922 . S
C109 C344 1.060 . S
C296 C124 1.026 . S
C311 C99 1.418 . S
