# Generated by pormake.
# Topology zzz, (3,6)-cn, num edge types: 1
# Building blocks:
#     Node 0, Type 0, BuildingBlock: WUSLED_clean_sbu_0, # of connection points: 3
#     Node 1, Type 0, BuildingBlock: WUSLED_clean_sbu_0, # of connection points: 3
#     Node 2, Type 0, BuildingBlock: WUSLED_clean_sbu_0, # of connection points: 3
#     Node 3, Type 0, BuildingBlock: WUSLED_clean_sbu_0, # of connection points: 3
#     Node 4, Type 0, BuildingBlock: WUSLED_clean_sbu_0, # of connection points: 3
#     Node 5, Type 0, BuildingBlock: WUSLED_clean_sbu_0, # of connection points: 3
#     Node 6, Type 0, BuildingBlock: WUSLED_clean_sbu_0, # of connection points: 3
#     Node 7, Type 0, BuildingBlock: WUSLED_clean_sbu_0, # of connection points: 3
#     Node 8, Type 1, BuildingBlock: BETGAK_clean_sbu_0, # of connection points: 6
#     Node 9, Type 1, BuildingBlock: BETGAK_clean_sbu_0, # of connection points: 6
#     Node 10, Type 1, BuildingBlock: BETGAK_clean_sbu_0, # of connection points: 6
#     Node 11, Type 1, BuildingBlock: BETGAK_clean_sbu_0, # of connection points: 6
#     Edge 12, Type (0, 1), BuildingBlock: KIFKEQ_clean_linker_1, # of connection points: 2
#     Edge 13, Type (0, 1), BuildingBlock: KIFKEQ_clean_linker_1, # of connection points: 2
#     Edge 14, Type (0, 1), BuildingBlock: KIFKEQ_clean_linker_1, # of connection points: 2
#     Edge 15, Type (0, 1), BuildingBlock: KIFKEQ_clean_linker_1, # of connection points: 2
#     Edge 16, Type (0, 1), BuildingBlock: KIFKEQ_clean_linker_1, # of connection points: 2
#     Edge 17, Type (0, 1), BuildingBlock: KIFKEQ_clean_linker_1, # of connection points: 2
#     Edge 18, Type (0, 1), BuildingBlock: KIFKEQ_clean_linker_1, # of connection points: 2
#     Edge 19, Type (0, 1), BuildingBlock: KIFKEQ_clean_linker_1, # of connection points: 2
#     Edge 20, Type (0, 1), BuildingBlock: KIFKEQ_clean_linker_1, # of connection points: 2
#     Edge 21, Type (0, 1), BuildingBlock: KIFKEQ_clean_linker_1, # of connection points: 2
#     Edge 22, Type (0, 1), BuildingBlock: KIFKEQ_clean_linker_1, # of connection points: 2
#     Edge 23, Type (0, 1), BuildingBlock: KIFKEQ_clean_linker_1, # of connection points: 2
#     Edge 24, Type (0, 1), BuildingBlock: KIFKEQ_clean_linker_1, # of connection points: 2
#     Edge 25, Type (0, 1), BuildingBlock: KIFKEQ_clean_linker_1, # of connection points: 2
#     Edge 26, Type (0, 1), BuildingBlock: KIFKEQ_clean_linker_1, # of connection points: 2
#     Edge 27, Type (0, 1), BuildingBlock: KIFKEQ_clean_linker_1, # of connection points: 2
#     Edge 28, Type (0, 1), BuildingBlock: KIFKEQ_clean_linker_1, # of connection points: 2
#     Edge 29, Type (0, 1), BuildingBlock: KIFKEQ_clean_linker_1, # of connection points: 2
#     Edge 30, Type (0, 1), BuildingBlock: KIFKEQ_clean_linker_1, # of connection points: 2
#     Edge 31, Type (0, 1), BuildingBlock: KIFKEQ_clean_linker_1, # of connection points: 2
#     Edge 32, Type (0, 1), BuildingBlock: KIFKEQ_clean_linker_1, # of connection points: 2
#     Edge 33, Type (0, 1), BuildingBlock: KIFKEQ_clean_linker_1, # of connection points: 2
#     Edge 34, Type (0, 1), BuildingBlock: KIFKEQ_clean_linker_1, # of connection points: 2
#     Edge 35, Type (0, 1), BuildingBlock: KIFKEQ_clean_linker_1, # of connection points: 2
# Relax obj value: 0.419
# Max RMSD: 0.263
# Mean RMSD: 0.247
data_MOF--net-zzz--node1-WUSLED_clean_sbu_0--node2-BETGAK_clean_sbu_0--edge1-KIFKEQ_clean_linker_1
_symmetry_space_group_name_H-M    P1
_symmetry_Int_Tables_number       1
_symmetry_cell_setting            triclinic
loop_
_symmetry_equiv_pos_as_xyz
'x, y, z'
_cell_length_a     64.660092
_cell_length_b     64.543766
_cell_length_c     19.703966
_cell_angle_alpha  89.460542
_cell_angle_beta   89.988747
_cell_angle_gamma 90.057525
loop_
_atom_site_label
_atom_site_type_symbol
_atom_site_fract_x
_atom_site_fract_y
_atom_site_fract_z
_atom_type_partial_charge
C0 C 0.78802 0.52639 0.41606 0.0
C1 C 0.79802 0.50709 0.4128 0.0
C2 C 0.82776 0.52079 0.47533 0.0
C3 C 0.81777 0.50437 0.44167 0.0
C4 C 0.81758 0.54002 0.4784 0.0
C5 C 0.79803 0.54277 0.449 0.0
U6 U 0.7417 0.5176 0.29119 0.0
O7 O 0.70809 0.51852 0.31169 0.0
O8 O 0.72233 0.54212 0.24625 0.0
C9 C 0.705 0.53402 0.2691 0.0
C10 C 0.76706 0.53006 0.38755 0.0
C11 C 0.68864 0.531 0.21744 0.0
C12 C 0.65298 0.53581 0.1802 0.0
C13 C 0.66839 0.53778 0.22992 0.0
C14 C 0.67784 0.5201 0.10477 0.0
C15 C 0.65748 0.52704 0.11662 0.0
C16 C 0.69319 0.52199 0.1546 0.0
C17 C 0.77232 0.47558 0.1988 0.0
C18 C 0.78969 0.44878 0.13503 0.0
C19 C 0.80912 0.47007 0.21335 0.0
C20 C 0.79105 0.48066 0.23028 0.0
C21 C 0.8087 0.45442 0.16414 0.0
C22 C 0.77161 0.45929 0.15242 0.0
C23 C 0.75381 0.48815 0.20946 0.0
O24 O 0.7662 0.53868 0.32693 0.0
O25 O 0.75311 0.51543 0.39653 0.0
O26 O 0.74355 0.48449 0.2659 0.0
O27 O 0.75602 0.50799 0.19568 0.0
H28 H 0.79054 0.49412 0.3885 0.0
H29 H 0.82505 0.4893 0.43869 0.0
H30 H 0.82484 0.5531 0.50286 0.0
H31 H 0.79065 0.55779 0.45228 0.0
H32 H 0.6375 0.54106 0.19186 0.0
H33 H 0.66452 0.54475 0.27809 0.0
H34 H 0.68211 0.51357 0.05634 0.0
H35 H 0.70871 0.51667 0.14366 0.0
H36 H 0.78895 0.43674 0.09719 0.0
H37 H 0.82359 0.47497 0.23578 0.0
H38 H 0.79185 0.49339 0.26553 0.0
H39 H 0.75722 0.45522 0.12771 0.0
C40 C 1.00467 0.78923 0.42604 0.0
C41 C 0.02459 0.79659 0.44167 0.0
C42 C 1.01021 0.82962 0.47997 0.0
C43 C 0.02733 0.81658 0.46832 0.0
C44 C 0.99035 0.82205 0.46443 0.0
C45 C 0.98766 0.80219 0.43788 0.0
U46 U 1.01289 0.74228 0.30492 0.0
O47 O 1.01076 0.70851 0.32419 0.0
O48 O 0.98774 0.72406 0.2602 0.0
C49 C 0.9953 0.70625 0.28139 0.0
C50 C 1.00074 0.76802 0.40006 0.0
C51 C 0.99722 0.68975 0.22913 0.0
C52 C 1.0097 0.65574 0.19394 0.0
C53 C 1.0086 0.67157 0.24228 0.0
C54 C 0.98794 0.6758 0.11835 0.0
C55 C 0.99928 0.6576 0.13137 0.0
C56 C 0.98687 0.69158 0.16648 0.0
C57 C 0.0556 0.77266 0.21342 0.0
C58 C 0.07375 0.79553 0.13558 0.0
C59 C 0.06963 0.80522 0.25339 0.0
C60 C 0.05908 0.78667 0.26618 0.0
C61 C 0.07663 0.8101 0.18744 0.0
C62 C 0.06337 0.77698 0.14858 0.0
C63 C 0.04269 0.75422 0.22322 0.0
O64 O 0.99207 0.76698 0.33989 0.0
O65 O 1.015 0.75376 0.40996 0.0
O66 O 0.04595 0.74338 0.27902 0.0
O67 O 0.02299 0.75692 0.20947 0.0
H68 H 0.03803 0.78693 0.43356 0.0
H69 H 0.04286 0.82188 0.47904 0.0
H70 H 0.97674 0.83135 0.47377 0.0
H71 H 0.97212 0.79685 0.4271 0.0
H72 H 0.01838 0.64187 0.20622 0.0
H73 H 0.01652 0.66947 0.29028 0.0
H74 H 0.97996 0.67798 0.07051 0.0
H75 H 0.97779 0.70521 0.15444 0.0
H76 H 0.0785 0.79887 0.08392 0.0
H77 H 0.07178 0.81597 0.29466 0.0
H78 H 0.05314 0.78354 0.31662 0.0
H79 H 0.06071 0.76634 0.10726 0.0
C80 C 0.7471 0.01929 0.42357 0.0
C81 C 0.72999 0.0289 0.39231 0.0
C82 C 0.70657 1.01473 0.47861 0.0
C83 C 0.71004 0.02662 0.41933 0.0
C84 C 0.72367 1.00492 0.50932 0.0
C85 C 0.74363 1.00723 0.48235 0.0
U86 U 0.79315 1.00871 0.30279 0.0
O87 O 0.81423 0.03149 0.25635 0.0
O88 O 0.82676 1.00696 0.3221 0.0
C89 C 0.83092 0.02234 0.27995 0.0
C90 C 0.76859 0.02295 0.39828 0.0
C91 C 0.8474 0.01869 0.22941 0.0
C92 C 0.88275 0.02468 0.19143 0.0
C93 C 0.86726 0.02667 0.24066 0.0
C94 C 0.85882 1.00631 0.11913 0.0
C95 C 0.87871 1.01467 0.12956 0.0
C96 C 0.84333 1.0083 0.16853 0.0
C97 C 0.75613 0.97139 0.22304 0.0
C98 C 0.73079 0.94983 0.16692 0.0
C99 C 0.71983 0.9744 0.25197 0.0
C100 C 0.74037 0.98013 0.26231 0.0
C101 C 0.71469 0.95971 0.20234 0.0
C102 C 0.75136 0.95575 0.1769 0.0
C103 C 0.77699 0.98021 0.22534 0.0
O104 O 0.78213 1.00805 0.4088 0.0
O105 O 0.77053 0.03171 0.33808 0.0
O106 O 0.77781 0.99991 0.20812 0.0
O107 O 0.78776 0.97578 0.28013 0.0
H108 H 0.732 0.03853 0.34749 0.0
H109 H 0.6974 0.0347 0.39462 0.0
H110 H 0.72167 0.9954 0.55438 0.0
H111 H 0.75643 0.99976 0.50819 0.0
H112 H 0.89792 0.031 0.20194 0.0
H113 H 0.87073 0.03473 0.28729 0.0
H114 H 0.85502 0.9987 0.072 0.0
H115 H 0.82806 1.00209 0.15869 0.0
H116 H 0.72741 0.93819 0.12927 0.0
H117 H 0.70795 0.98257 0.27967 0.0
H118 H 0.74385 0.99224 0.29823 0.0
H119 H 0.76342 0.94878 0.14652 0.0
C120 C 0.53933 0.74989 0.44124 0.0
C121 C 0.52131 0.73889 0.42417 0.0
C122 C 0.53347 0.70837 0.48753 0.0
C123 C 0.51848 0.71831 0.44664 0.0
C124 C 0.55142 0.71956 0.50458 0.0
C125 C 0.55431 0.73998 0.48153 0.0
U126 U 0.53032 0.79773 0.3234 0.0
O127 O 0.52828 0.83114 0.34597 0.0
O128 O 0.554 0.81937 0.28527 0.0
C129 C 0.5441 0.83583 0.30668 0.0
C130 C 0.54296 0.77162 0.41857 0.0
C131 C 0.54042 0.85195 0.25405 0.0
C132 C 0.54647 0.88678 0.20921 0.0
C133 C 0.54898 0.87181 0.26076 0.0
C134 C 0.52668 0.86224 0.14362 0.0
C135 C 0.53536 0.8822 0.14963 0.0
C136 C 0.52915 0.84733 0.1952 0.0
C137 C 0.49401 0.76364 0.22248 0.0
C138 C 0.46885 0.74327 0.16085 0.0
C139 C 0.49751 0.72634 0.21823 0.0
C140 C 0.50437 0.74542 0.24165 0.0
C141 C 0.48017 0.72525 0.17558 0.0
C142 C 0.47582 0.76244 0.18406 0.0
C143 C 0.50341 0.78383 0.2356 0.0
O144 O 0.55242 0.7741 0.36002 0.0
O145 O 0.52768 0.7848 0.42707 0.0
O146 O 0.49791 0.79288 0.29225 0.0
O147 O 0.52341 0.78463 0.22399 0.0
H148 H 0.50939 0.74624 0.39382 0.0
H149 H 0.50439 0.7103 0.43291 0.0
H150 H 0.56344 0.71241 0.53504 0.0
H151 H 0.56835 0.7481 0.49536 0.0
H152 H 0.55316 0.90199 0.21632 0.0
H153 H 0.55778 0.8757 0.30567 0.0
H154 H 0.51832 0.85791 0.09831 0.0
H155 H 0.52253 0.83205 0.18866 0.0
H156 H 0.45552 0.7427 0.12759 0.0
H157 H 0.5064 0.71256 0.23021 0.0
H158 H 0.51847 0.74608 0.27121 0.0
H159 H 0.46768 0.77641 0.16892 0.0
C160 C 0.24607 0.49825 0.96982 0.0
C161 C 0.23935 0.51822 0.95087 0.0
C162 C 0.20515 0.50475 0.92044 0.0
C163 C 0.21913 0.52143 0.92658 0.0
C164 C 0.21205 0.48482 0.93931 0.0
C165 C 0.23216 0.48165 0.96358 0.0
U166 U 0.2939 0.50528 0.08795 0.0
O167 O 0.32752 0.50392 0.06718 0.0
O168 O 0.31276 0.47997 0.12999 0.0
C169 C 0.33028 0.48804 0.10861 0.0
C170 C 0.26753 0.49386 0.9933 0.0
C171 C 0.34711 0.4897 0.16024 0.0
C172 C 0.38126 0.50215 0.19449 0.0
C173 C 0.36522 0.50113 0.14652 0.0
C174 C 0.36164 0.48009 0.27057 0.0
C175 C 0.37966 0.49171 0.25738 0.0
C176 C 0.34566 0.47907 0.2228 0.0
C177 C 0.26279 0.54618 0.18037 0.0
C178 C 0.23973 0.56455 0.25559 0.0
C179 C 0.22863 0.55624 0.14148 0.0
C180 C 0.24777 0.54698 0.12914 0.0
C181 C 0.22418 0.5646 0.20558 0.0
C182 C 0.25888 0.55542 0.24297 0.0
C183 C 0.28177 0.53416 0.17159 0.0
O184 O 0.28173 0.50822 0.98356 0.0
O185 O 0.26921 0.48447 0.05251 0.0
O186 O 0.27977 0.51426 0.1846 0.0
O187 O 0.2924 0.53814 0.11609 0.0
H188 H 0.2497 0.53136 0.95461 0.0
H189 H 0.21438 0.53703 0.91325 0.0
H190 H 0.20201 0.47149 0.93424 0.0
H191 H 0.23696 0.46605 0.97691 0.0
H192 H 0.39481 0.51137 0.18257 0.0
H193 H 0.36701 0.50929 0.09859 0.0
H194 H 0.35995 0.47148 0.31768 0.0
H195 H 0.33219 0.46978 0.23501 0.0
H196 H 0.23677 0.5705 0.30586 0.0
H197 H 0.2171 0.55623 0.10162 0.0
H198 H 0.25059 0.53983 0.08053 0.0
H199 H 0.27031 0.55479 0.28314 0.0
C200 C 0.02559 0.24618 0.99087 0.0
C201 C 0.02579 0.22863 0.0338 0.0
C202 C 0.02133 0.20569 0.93664 0.0
C203 C 0.0237 0.20866 1.00701 0.0
C204 C 0.02036 0.22333 0.89419 0.0
C205 C 0.02254 0.24329 0.92098 0.0
U206 U 0.0193 0.29363 0.11061 0.0
O207 O 0.04479 0.31171 0.15387 0.0
O208 O 0.02187 0.32725 0.08941 0.0
C209 C 0.03738 0.32951 0.132 0.0
C210 C 0.0306 0.26725 0.0163 0.0
C211 C 0.03556 0.34619 0.18363 0.0
C212 C 0.02318 0.38033 0.21767 0.0
C213 C 0.02437 0.36443 0.16964 0.0
C214 C 0.04449 0.36023 0.29454 0.0
C215 C 0.0333 0.37847 0.28074 0.0
C216 C 0.04566 0.34438 0.24672 0.0
C217 C 0.97634 0.26431 0.20372 0.0
C218 C 0.95117 0.24619 0.27344 0.0
C219 C 0.97003 0.22773 0.18649 0.0
C220 C 0.98017 0.24604 0.16802 0.0
C221 C 0.95593 0.22748 0.24097 0.0
C222 C 0.96137 0.26446 0.25501 0.0
C223 C 0.98928 0.28264 0.19295 0.0
O224 O 0.01689 0.28197 1.00559 0.0
O225 O 0.03936 0.26833 0.07639 0.0
O226 O 1.00896 0.27991 0.20698 0.0
O227 O 0.98614 0.29302 0.13621 0.0
H228 H 0.02808 0.23025 0.08794 0.0
H229 H 0.02417 0.1955 0.04146 0.0
H230 H 0.01873 0.22171 0.8398 0.0
H231 H 0.02251 0.25649 0.8866 0.0
H232 H 1.01463 0.39424 0.20485 0.0
H233 H 0.01664 0.3665 0.12129 0.0
H234 H 0.05225 0.35806 0.34279 0.0
H235 H 0.05458 0.33068 0.25941 0.0
H236 H 0.94021 0.24651 0.315 0.0
H237 H 0.97423 0.21355 0.16097 0.0
H238 H 0.99173 0.24573 0.12823 0.0
H239 H 0.95822 0.27852 0.28282 0.0
C240 C 0.28947 1.01637 0.97053 0.0
C241 C 0.30356 0.03061 0.99766 0.0
C242 C 0.33062 0.01885 0.91986 0.0
C243 C 0.32396 0.03169 0.97326 0.0
C244 C 0.31613 1.00497 0.89191 0.0
C245 C 0.29592 1.00365 0.91732 0.0
U246 U 0.24735 0.0255 0.10589 0.0
O247 O 0.22342 1.0037 0.14135 0.0
O248 O 0.21427 0.03318 0.0942 0.0
C249 C 0.20812 1.0163 0.12624 0.0
C250 C 0.26811 1.01433 0.99706 0.0
C251 C 0.19244 0.01903 0.18004 0.0
C252 C 0.15722 1.01353 0.22006 0.0
C253 C 0.17219 1.01209 0.16894 0.0
C254 C 0.18249 0.02919 0.2943 0.0
C255 C 0.16217 0.02194 0.28373 0.0
C256 C 0.19749 0.02771 0.24299 0.0
C257 C 0.29042 0.0521 0.19936 0.0
C258 C 0.32654 0.04464 0.17695 0.0
C259 C 0.31687 0.07748 0.22638 0.0
C260 C 0.29604 0.07158 0.22436 0.0
C261 C 0.33233 0.06401 0.20284 0.0
C262 C 0.30584 0.03872 0.17551 0.0
C263 C 0.26852 0.04597 0.19647 0.0
O264 O 0.26589 1.0024 0.051 0.0
O265 O 0.25721 0.03148 1.0004 0.0
O266 O 0.25759 0.05521 0.14881 0.0
O267 O 0.265 0.02593 0.20095 0.0
H268 H 0.2988 0.04088 0.03778 0.0
H269 H 0.3345 0.04244 0.99705 0.0
H270 H 0.32025 0.99518 0.84976 0.0
H271 H 0.28525 0.99268 0.89509 0.0
H272 H 0.14172 1.00809 0.2095 0.0
H273 H 0.16796 1.00535 0.12071 0.0
H274 H 0.18696 0.03558 0.34277 0.0
H275 H 0.21309 0.03309 0.25271 0.0
H276 H 0.33808 0.03373 0.15968 0.0
H277 H 0.32089 0.0925 0.24661 0.0
H278 H 0.28433 0.08216 0.2426 0.0
H279 H 0.3019 0.02362 0.15562 0.0
C280 C 0.5222 0.28637 0.96411 0.0
C281 C 0.5073 0.30072 0.98527 0.0
C282 C 0.52129 0.32714 0.90755 0.0
C283 C 0.50698 0.32092 0.95802 0.0
C284 C 0.53593 0.31242 0.88575 0.0
C285 C 0.53645 0.29241 0.91404 0.0
U286 U 0.50978 0.24504 0.10182 0.0
O287 O 0.50164 0.21197 0.09156 0.0
O288 O 0.53039 0.22085 0.14261 0.0
C289 C 0.51783 0.20566 0.12642 0.0
C290 C 0.52327 0.26512 0.99325 0.0
C291 C 0.51409 0.1899 0.18014 0.0
C292 C 0.51754 0.15414 0.2191 0.0
C293 C 0.51958 0.16925 0.16805 0.0
C294 C 0.50399 0.18 0.29527 0.0
C295 C 0.50995 0.1593 0.28378 0.0
C296 C 0.50609 0.19516 0.24398 0.0
C297 C 0.48254 0.28911 0.18739 0.0
C298 C 0.4909 0.32491 0.16063 0.0
C299 C 0.45795 0.3164 0.21257 0.0
C300 C 0.46328 0.29538 0.21251 0.0
C301 C 0.47179 0.33139 0.1869 0.0
C302 C 0.49625 0.30402 0.16115 0.0
C303 C 0.4882 0.26705 0.18728 0.0
O304 O 0.53414 0.263 0.04924 0.0
O305 O 0.5059 0.25452 0.99478 0.0
O306 O 0.47962 0.25605 0.13905 0.0
O307 O 0.50803 0.2632 0.19522 0.0
H308 H 0.49588 0.2963 0.02286 0.0
H309 H 0.49562 0.33166 0.97729 0.0
H310 H 0.54691 0.31618 0.84606 0.0
H311 H 0.54798 0.28155 0.89636 0.0
H312 H 0.52196 0.13837 0.20782 0.0
H313 H 0.52576 0.16483 0.11915 0.0
H314 H 0.49825 0.18462 0.34447 0.0
H315 H 0.50181 0.21103 0.25451 0.0
H316 H 0.50208 0.33607 0.14173 0.0
H317 H 0.44312 0.32095 0.23311 0.0
H318 H 0.45245 0.28406 0.23257 0.0
H319 H 0.5112 0.29955 0.14127 0.0
La320 La 0.03229 1.01204 0.76852 0.0
La321 La 1.00861 0.02323 0.64536 0.0
C322 C 0.04412 0.99844 0.88229 0.0
C323 C 0.05464 0.98065 0.91328 0.0
C324 C 0.0686 0.96845 0.87668 0.0
C325 C 0.07846 0.95168 0.90838 0.0
C326 C 0.07438 0.94685 0.97695 0.0
C327 C 0.0604 0.95927 1.01309 0.0
C328 C 0.05068 0.97603 0.98153 0.0
C329 C 0.05555 0.02259 0.66274 0.0
C330 C 0.02023 0.97642 0.66381 0.0
C331 C 0.9959 0.0369 0.53266 0.0
C332 C 0.98446 0.05458 0.50482 0.0
C333 C 0.97595 0.05307 0.43975 0.0
C334 C 0.96586 0.07 0.41035 0.0
C335 C 0.96419 0.08875 0.44563 0.0
C336 C 0.97213 0.08994 0.51202 0.0
C337 C 0.98219 0.07294 0.54147 0.0
C338 C 0.98554 1.01274 0.75184 0.0
C339 C 0.02083 0.05893 0.74953 0.0
O340 O 0.05531 1.01045 0.84304 0.0
O341 O 0.02568 0.99503 0.85734 0.0
O342 O 0.0603 0.02615 0.72533 0.0
O343 O 0.03916 1.01209 0.66181 0.0
O344 O 0.02543 0.98086 0.72727 0.0
O345 O 1.01614 0.9914 0.61966 0.0
O346 O 0.98533 0.0242 0.57132 0.0
O347 O 1.01432 0.04077 0.5572 0.0
O348 O 0.98074 1.00895 0.68948 0.0
O349 O 1.00185 0.02333 0.75188 0.0
O350 O 1.0155 0.05441 0.68628 0.0
O351 O 0.02514 0.04401 0.7937 0.0
H352 H 0.07183 0.97186 0.82378 0.0
H353 H 0.0892 0.94247 0.87923 0.0
H354 H 0.05648 0.95574 0.06537 0.0
H355 H 0.03989 0.9853 1.01036 0.0
H356 H 0.97742 0.03888 0.41116 0.0
H357 H 0.95968 0.06854 0.35953 0.0
H358 H 0.9713 0.10425 0.54019 0.0
H359 H 0.98857 0.07428 0.59206 0.0
La360 La 0.52602 0.03021 0.77179 0.0
La361 La 0.51261 1.00602 0.64138 0.0
C362 C 0.54086 0.03816 0.8863 0.0
C363 C 0.55652 0.02754 0.92789 0.0
C364 C 0.57337 0.01763 0.89723 0.0
C365 C 0.58669 1.00533 0.93587 0.0
C366 C 0.58345 1.00269 1.00595 0.0
C367 C 0.56676 1.01288 0.03681 0.0
C368 C 0.55334 0.02514 0.99793 0.0
C369 C 0.51292 0.0535 0.66867 0.0
C370 C 0.56033 1.01143 0.67012 0.0
C371 C 0.50188 1.00035 0.52044 0.0
C372 C 0.49069 1.01337 0.47148 0.0
C373 C 0.49281 1.00991 0.40181 0.0
C374 C 0.48158 0.02186 0.35518 0.0
C375 C 0.46801 0.0374 0.37773 0.0
C376 C 0.46675 0.04139 0.44771 0.0
C377 C 0.47802 0.02951 0.4941 0.0
C378 C 0.51949 0.98034 0.74632 0.0
C379 C 0.47893 0.02172 0.74636 0.0
O380 O 0.54726 0.04715 0.82995 0.0
O381 O 0.52388 0.02745 0.87747 0.0
O382 O 0.5121 0.05899 0.73192 0.0
O383 O 0.52271 0.03668 0.66588 0.0
O384 O 0.55596 0.02034 0.72907 0.0
O385 O 0.54588 1.00487 0.62783 0.0
O386 O 0.49113 0.99378 0.57287 0.0
O387 O 0.5201 1.00728 0.53786 0.0
O388 O 0.51363 0.97426 0.68665 0.0
O389 O 0.52109 0.99962 0.74199 0.0
O390 O 0.48332 0.01807 0.68171 0.0
O391 O 0.49353 0.02427 0.79259 0.0
H392 H 0.57607 0.01904 0.84323 0.0
H393 H 0.59966 0.99802 0.91086 0.0
H394 H 0.56388 1.01108 0.09069 0.0
H395 H 0.54021 0.03239 0.02226 0.0
H396 H 0.50285 0.99774 0.38357 0.0
H397 H 0.48315 0.0186 0.30162 0.0
H398 H 0.45631 0.05302 0.46712 0.0
H399 H 0.47649 0.03263 0.54779 0.0
La400 La 0.50608 0.5203 0.73651 0.0
La401 La 0.53354 0.51014 0.61374 0.0
C402 C 0.48777 0.53326 0.84035 0.0
C403 C 0.48409 0.5531 0.8732 0.0
C404 C 0.46622 0.55558 0.91242 0.0
C405 C 0.46166 0.57475 0.94084 0.0
C406 C 0.47495 0.59171 0.93029 0.0
C407 C 0.49295 0.58906 0.89111 0.0
C408 C 0.49745 0.56991 0.86253 0.0
C409 C 0.48714 0.50448 0.62921 0.0
C410 C 0.52359 0.55726 0.64141 0.0
C411 C 0.54095 0.49965 0.49371 0.0
C412 C 0.52823 0.48815 0.44529 0.0
C413 C 0.53117 0.4908 0.37534 0.0
C414 C 0.51888 0.47987 0.32948 0.0
C415 C 0.50343 0.4662 0.35312 0.0
C416 C 0.50014 0.46422 0.42343 0.0
C417 C 0.51243 0.47507 0.469 0.0
C418 C 0.55752 0.5178 0.72016 0.0
C419 C 0.52039 0.47486 0.72018 0.0
O420 O 0.47893 0.53128 0.7811 0.0
O421 O 0.5068 0.52626 0.84097 0.0
O422 O 0.48218 0.50046 0.69156 0.0
O423 O 0.50175 0.51733 0.62927 0.0
O424 O 0.51324 0.55165 0.69705 0.0
O425 O 0.53266 0.54363 0.60135 0.0
O426 O 0.54729 0.48912 0.54694 0.0
O427 O 0.53365 0.51781 0.51002 0.0
O428 O 0.56437 0.51342 0.66001 0.0
O429 O 0.53808 0.51818 0.71647 0.0
O430 O 0.52436 0.4795 0.65552 0.0
O431 O 0.51584 0.48935 0.76463 0.0
H432 H 0.45565 0.54273 0.92031 0.0
H433 H 0.4476 0.57636 0.9702 0.0
H434 H 0.5037 0.60173 0.88307 0.0
H435 H 0.51126 0.56825 0.83193 0.0
H436 H 0.54308 0.50114 0.35626 0.0
H437 H 0.52167 0.48185 0.27561 0.0
H438 H 0.48862 0.45363 0.44358 0.0
H439 H 0.50972 0.47307 0.52292 0.0
La440 La 1.01095 0.50494 0.76604 0.0
La441 La 0.02069 0.53085 0.64654 0.0
C442 C 0.99817 0.49001 0.87704 0.0
C443 C 0.98075 0.47801 0.90393 0.0
C444 C 0.98249 0.46896 0.9685 0.0
C445 C 0.96566 0.4587 0.99765 0.0
C446 C 0.94678 0.45739 0.96259 0.0
C447 C 0.9454 0.46572 0.89646 0.0
C448 C 0.96229 0.47597 0.86728 0.0
C449 C 0.02262 0.48381 0.65807 0.0
C450 C 0.97438 0.51752 0.66325 0.0
C451 C 0.03354 0.54609 0.53601 0.0
C452 C 0.05265 0.55259 0.50123 0.0
C453 C 0.06539 0.56837 0.52662 0.0
C454 C 0.08278 0.57491 0.49 0.0
C455 C 0.0877 0.56577 0.4275 0.0
C456 C 0.07496 0.54989 0.40272 0.0
C457 C 0.05758 0.54345 0.43908 0.0
C458 C 1.00853 0.55162 0.75489 0.0
C459 C 0.05701 0.51796 0.74794 0.0
O460 O 1.01055 0.48023 0.83596 0.0
O461 O 0.99407 0.50886 0.85584 0.0
O462 O 0.02693 0.47866 0.72002 0.0
O463 O 1.0111 0.4995 0.65873 0.0
O464 O 0.97945 0.51055 0.72474 0.0
O465 O 0.9887 0.52426 0.62062 0.0
O466 O 0.02721 0.55718 0.58715 0.0
O467 O 0.03126 0.5262 0.54711 0.0
O468 O 1.0036 0.5564 0.69301 0.0
O469 O 0.0205 0.53627 0.75394 0.0
O470 O 0.05208 0.52306 0.68454 0.0
O471 O 0.04238 0.51364 0.79266 0.0
H472 H 0.99675 0.47026 0.99709 0.0
H473 H 0.96724 0.45223 0.04831 0.0
H474 H 0.93099 0.46515 0.86849 0.0
H475 H 0.96078 0.48277 0.81707 0.0
H476 H 0.06187 0.57579 0.57432 0.0
H477 H 0.09223 0.58725 0.51025 0.0
H478 H 0.07854 0.5422 0.35554 0.0
H479 H 0.04791 0.53132 0.41843 0.0
H480 H 0.15519 0.05307 0.37558 0.0
H481 H 0.13301 0.99267 0.31741 0.0
H482 H 0.12907 0.05436 0.4649 0.0
H483 H 0.107 0.9939 0.40658 0.0
H484 H 0.05021 1.00978 0.53195 0.0
H485 H 0.07544 1.01055 0.43959 0.0
H486 H 0.11998 0.03921 0.57268 0.0
H487 H 0.09454 0.03883 0.66425 0.0
C488 C 0.14486 0.03999 0.38208 0.0
C489 C 0.14625 0.0228 0.33887 0.0
C490 C 0.12983 0.04072 0.4334 0.0
C491 C 0.11577 0.02427 0.44311 0.0
C492 C 0.11722 1.00707 0.39998 0.0
C493 C 0.13221 1.00635 0.3487 0.0
C494 C 0.06534 1.01638 0.54121 0.0
C495 C 0.0704 0.02418 0.60544 0.0
C496 C 0.0799 1.01669 0.48841 0.0
C497 C 0.0999 0.02482 0.49849 0.0
C498 C 0.10473 0.03303 0.56255 0.0
C499 C 0.09016 0.03272 0.61528 0.0
H500 H 0.5382 0.12892 0.31368 0.0
H501 H 0.4795 0.15326 0.38012 0.0
H502 H 0.537 0.10292 0.40358 0.0
H503 H 0.47818 0.12699 0.47026 0.0
H504 H 0.49599 0.09229 0.66981 0.0
H505 H 0.49398 0.1173 0.57614 0.0
H506 H 0.52029 0.072 0.44115 0.0
H507 H 0.5231 0.04749 0.53552 0.0
C508 C 0.52486 0.12857 0.34689 0.0
C509 C 0.50891 0.14324 0.33917 0.0
C510 C 0.52414 0.11355 0.39862 0.0
C511 C 0.50743 0.11265 0.44439 0.0
C512 C 0.49143 0.1273 0.43667 0.0
C513 C 0.49218 0.1424 0.38488 0.0
C514 C 0.50121 0.08766 0.61996 0.0
C515 C 0.50973 0.06788 0.61019 0.0
C516 C 0.49994 0.10197 0.56601 0.0
C517 C 0.50714 0.09685 0.50077 0.0
C518 C 0.51498 0.07674 0.49075 0.0
C519 C 0.51636 0.06253 0.54478 0.0
H520 H 0.42198 0.49143 0.23807 0.0
H521 H 0.3756 0.49491 0.39535 0.0
H522 H 0.44917 0.49291 0.3243 0.0
H523 H 0.40261 0.49621 0.48092 0.0
H524 H 0.45362 0.47901 0.62569 0.0
H525 H 0.42885 0.47466 0.53347 0.0
H526 H 0.46471 0.51644 0.40761 0.0
H527 H 0.48961 0.52061 0.5001 0.0
C528 C 0.41754 0.49264 0.29087 0.0
C529 C 0.39649 0.49293 0.30949 0.0
C530 C 0.43316 0.49344 0.34037 0.0
C531 C 0.42814 0.49447 0.4098 0.0
C532 C 0.40711 0.49493 0.42819 0.0
C533 C 0.39156 0.49419 0.3789 0.0
C534 C 0.4563 0.48712 0.57812 0.0
C535 C 0.47346 0.50028 0.5704 0.0
C536 C 0.44204 0.48473 0.52531 0.0
C537 C 0.44454 0.49545 0.46327 0.0
C538 C 0.46226 0.50791 0.45451 0.0
C539 C 0.47651 0.51036 0.50761 0.0
H540 H 1.00002 0.40281 0.31508 0.0
H541 H 0.06441 0.39263 0.36298 0.0
H542 H 0.99818 0.42926 0.40269 0.0
H543 H 0.06257 0.41899 0.45037 0.0
H544 H 0.04456 0.44791 0.65425 0.0
H545 H 0.04744 0.42354 0.56098 0.0
H546 H 1.00977 0.46371 0.43545 0.0
H547 H 1.00661 0.48796 0.52976 0.0
C548 C 1.01386 0.40637 0.34365 0.0
C549 C 0.03232 0.39539 0.33211 0.0
C550 C 1.01281 0.42157 0.39397 0.0
C551 C 0.03019 0.42623 0.43413 0.0
C552 C 0.04875 0.41557 0.4215 0.0
C553 C 0.0498 0.4004 0.37128 0.0
C554 C 0.03699 0.4516 0.60661 0.0
C555 C 0.02534 0.46983 0.5994 0.0
C556 C 0.03873 0.43766 0.55288 0.0
C557 C 0.02884 0.44158 0.49041 0.0
C558 C 0.0174 0.46004 0.48298 0.0
C559 C 1.01571 0.47402 0.53682 0.0
H560 H 0.88739 0.98227 0.04412 0.0
H561 H 0.90704 0.0444 0.09223 0.0
H562 H 0.91367 0.98067 0.95541 0.0
H563 H 0.93329 0.04276 1.0039 0.0
H564 H 0.99072 0.02696 0.88104 0.0
H565 H 0.96561 0.02644 0.97382 0.0
H566 H 0.92177 0.99512 0.84483 0.0
H567 H 0.94706 0.99535 0.75272 0.0
C568 C 0.89721 0.99564 0.03564 0.0
C569 C 0.89502 1.01345 0.07573 0.0
C570 C 0.91233 0.99472 0.98469 0.0
C571 C 0.92571 1.01156 0.97234 0.0
C572 C 0.92357 0.02933 1.01261 0.0
C573 C 0.90845 0.03026 0.06345 0.0
C574 C 0.97577 0.01983 0.87278 0.0
C575 C 0.97083 1.01126 0.80951 0.0
C576 C 0.96129 0.01965 0.92579 0.0
C577 C 0.94154 1.01085 0.91692 0.0
C578 C 0.93685 1.00185 0.85393 0.0
C579 C 0.95132 1.00206 0.80092 0.0
H580 H 0.50149 0.88928 0.06839 0.0
H581 H 0.56373 0.91111 0.10343 0.0
H582 H 0.49806 0.91351 0.97377 0.0
H583 H 0.56013 0.93563 1.00893 0.0
H584 H 0.53808 0.98968 0.86786 0.0
H585 H 0.54193 0.96708 0.96795 0.0
H586 H 0.51177 0.91758 0.85976 0.0
H587 H 0.50777 0.94026 0.7611 0.0
C588 C 0.51452 0.89913 0.05583 0.0
C589 C 0.53297 0.89795 0.09361 0.0
C590 C 0.51253 0.91311 1.00143 0.0
C591 C 0.52888 0.92645 0.98306 0.0
C592 C 0.54715 0.92573 0.02184 0.0
C593 C 0.54919 0.91164 0.07623 0.0
C594 C 0.53213 0.97406 0.86605 0.0
C595 C 0.52236 0.96687 0.80709 0.0
C596 C 0.53449 0.961 0.92307 0.0
C597 C 0.52694 0.9405 0.92242 0.0
C598 C 0.51741 0.93335 0.86283 0.0
C599 C 0.51523 0.94632 0.80597 0.0
H600 H 0.65183 0.49569 0.02485 0.0
H601 H 0.62595 0.55439 0.08533 0.0
H602 H 0.62685 0.49376 0.9328 0.0
H603 H 0.60062 0.55215 0.99362 0.0
H604 H 0.54697 0.5299 0.85025 0.0
H605 H 0.56996 0.53191 0.94953 0.0
H606 H 0.6213 0.51256 0.82526 0.0
H607 H 0.59853 0.51049 0.72748 0.0
C608 C 0.6409 0.50826 0.01856 0.0
C609 C 0.64121 0.52532 0.06256 0.0
C610 C 0.62647 0.50709 0.96573 0.0
C611 C 0.61178 0.52288 0.95531 0.0
C612 C 0.61159 0.53963 1.00044 0.0
C613 C 0.62615 0.54088 0.05319 0.0
C614 C 0.56314 0.52605 0.84449 0.0
C615 C 0.57087 0.5199 0.78114 0.0
C616 C 0.57635 0.5273 0.90116 0.0
C617 C 0.59748 0.52217 0.89563 0.0
C618 C 0.6051 0.51625 0.83189 0.0
C619 C 0.59202 0.51521 0.77558 0.0
H620 H 0.03241 0.63322 0.09552 0.0
H621 H 0.96786 0.64347 0.05018 0.0
H622 H 0.03386 0.60671 1.00805 0.0
H623 H 0.96933 0.61706 0.96288 0.0
H624 H 0.98645 0.58751 0.75882 0.0
H625 H 0.98391 0.61211 0.85166 0.0
H626 H 0.02211 0.57225 0.9765 0.0
H627 H 0.02486 0.54776 0.88275 0.0
C628 C 0.01845 0.62968 0.06753 0.0
C629 C 1.00006 0.64069 0.07981 0.0
C630 C 0.01928 0.61443 0.01727 0.0
C631 C 1.00175 0.60976 0.97786 0.0
C632 C 0.98326 0.62048 0.99114 0.0
C633 C 0.98243 0.63569 0.04133 0.0
C634 C 0.99419 0.58394 0.80624 0.0
C635 C 1.0059 0.56573 0.81335 0.0
C636 C 0.99267 0.59801 0.85972 0.0
C637 C 1.00283 0.59426 0.92184 0.0
C638 C 1.01429 0.57582 0.92922 0.0
C639 C 1.01576 0.56169 0.87567 0.0
H640 H 0.94216 0.19325 0.17267 0.0
H641 H 0.95391 0.21626 0.37422 0.0
H642 H 0.93728 0.15841 0.21967 0.0
H643 H 0.94928 0.18172 0.42079 0.0
H644 H 0.93819 0.11822 0.49742 0.0
H645 H 0.9288 0.15139 0.44506 0.0
H646 H 0.9627 0.13472 0.26455 0.0
H647 H 0.97183 0.10178 0.31632 0.0
C648 C 0.94332 0.19093 0.22705 0.0
C649 C 0.94865 0.20744 0.26961 0.0
C650 C 0.94054 0.17101 0.25396 0.0
C651 C 0.94316 0.16723 0.32387 0.0
C652 C 0.9469 0.18407 0.36686 0.0
C653 C 0.94959 0.20395 0.34005 0.0
C654 C 0.94336 0.1216 0.4462 0.0
C655 C 0.9559 0.10749 0.41123 0.0
C656 C 0.93796 0.14054 0.41618 0.0
C657 C 0.9451 0.14577 0.35078 0.0
C658 C 0.95662 0.13111 0.3145 0.0
C659 C 0.96194 0.1122 0.34435 0.0
H660 H 0.35131 0.08087 0.31281 0.0
H661 H 0.36362 0.05797 0.11152 0.0
H662 H 0.38812 0.08086 0.33717 0.0
H663 H 0.40065 0.05796 0.13598 0.0
H664 H 0.44747 0.01968 0.2723 0.0
H665 H 0.41769 0.03328 0.21279 0.0
H666 H 0.42431 0.09148 0.31713 0.0
H667 H 0.45468 0.0779 0.37648 0.0
C668 C 0.36193 0.07658 0.27284 0.0
C669 C 0.35457 0.06899 0.21082 0.0
C670 C 0.3831 0.07663 0.28673 0.0
C671 C 0.39728 0.06908 0.23884 0.0
C672 C 0.39005 0.06351 0.17428 0.0
C673 C 0.36887 0.06346 0.16039 0.0
C674 C 0.4432 0.03566 0.28074 0.0
C675 C 0.45325 0.04754 0.33022 0.0
C676 C 0.42603 0.04351 0.24639 0.0
C677 C 0.41846 0.06338 0.26094 0.0
C678 C 0.42962 0.07598 0.30574 0.0
C679 C 0.44693 0.06817 0.33988 0.0
H680 H 0.45577 0.35132 0.29624 0.0
H681 H 0.47861 0.3622 0.09298 0.0
H682 H 0.457 0.38824 0.31799 0.0
H683 H 0.4798 0.39938 0.11473 0.0
H684 H 0.51973 0.44576 0.24533 0.0
H685 H 0.5049 0.41636 0.18758 0.0
H686 H 0.44769 0.4245 0.29751 0.0
H687 H 0.46263 0.45426 0.35557 0.0
C688 C 0.4603 0.36168 0.25528 0.0
C689 C 0.46752 0.35384 0.19343 0.0
C690 C 0.46095 0.38292 0.26767 0.0
C691 C 0.46883 0.39673 0.21841 0.0
C692 C 0.47403 0.38907 0.15409 0.0
C693 C 0.47339 0.36781 0.14172 0.0
C694 C 0.50371 0.44188 0.25534 0.0
C695 C 0.49251 0.45209 0.30609 0.0
C696 C 0.49515 0.42496 0.22202 0.0
C697 C 0.47521 0.41786 0.23879 0.0
C698 C 0.46324 0.42938 0.28449 0.0
C699 C 0.47181 0.44637 0.31779 0.0
H700 H 0.21197 0.5972 0.28491 0.0
H701 H 0.188 0.54611 0.16818 0.0
H702 H 0.17756 0.60289 0.3325 0.0
H703 H 0.1538 0.55214 0.21437 0.0
H704 H 0.09184 0.57092 0.29006 0.0
H705 H 0.12382 0.57613 0.22629 0.0
H706 H 0.15784 0.58028 0.41428 0.0
H707 H 0.12604 0.57473 0.47802 0.0
C708 C 0.19933 0.58743 0.26849 0.0
C709 C 0.20282 0.57101 0.22345 0.0
C710 C 0.17966 0.59074 0.29558 0.0
C711 C 0.16308 0.57785 0.27756 0.0
C712 C 0.16623 0.56248 0.22866 0.0
C713 C 0.18589 0.55905 0.20203 0.0
C714 C 0.10614 0.57309 0.31777 0.0
C715 C 0.10646 0.57206 0.38911 0.0
C716 C 0.12439 0.57619 0.28124 0.0
C717 C 0.1433 0.57848 0.31532 0.0
C718 C 0.14344 0.57881 0.38663 0.0
C719 C 0.12521 0.57559 0.42318 0.0
H720 H 0.06328 0.84715 0.23715 0.0
H721 H 0.10746 0.82085 0.09753 0.0
H722 H 0.07044 0.88141 0.19143 0.0
H723 H 0.11406 0.85534 0.05011 0.0
H724 H 0.08013 0.90865 0.92126 0.0
H725 H 0.08835 0.87653 0.98066 0.0
H726 H 0.09625 0.91012 0.16734 0.0
H727 H 0.08856 0.94251 0.10751 0.0
C728 C 0.07504 0.84869 0.19831 0.0
C729 C 0.08452 0.83114 0.17025 0.0
C730 C 0.07912 0.8684 0.17198 0.0
C731 C 0.09262 0.87097 0.11669 0.0
C732 C 0.10339 0.85371 0.0922 0.0
C733 C 0.0995 0.83399 0.11912 0.0
C734 C 0.08435 0.90936 0.97437 0.0
C735 C 0.0833 0.92811 1.00989 0.0
C736 C 0.08909 0.89092 1.00844 0.0
C737 C 0.09274 0.89085 0.07873 0.0
C738 C 0.09325 0.90976 0.11327 0.0
C739 C 0.08871 0.92824 0.07907 0.0
H740 H 0.69995 0.95534 0.07349 0.0
H741 H 0.67969 0.9592 0.28217 0.0
H742 H 0.66465 0.95945 0.03544 0.0
H743 H 0.64409 0.96384 0.24336 0.0
H744 H 0.60051 1.01212 0.12849 0.0
H745 H 0.62925 0.99466 0.18456 0.0
H746 H 0.62852 0.94734 0.03093 0.0
H747 H 0.59964 0.96485 0.9748 0.0
C748 C 0.68791 0.95629 0.11153 0.0
C749 C 0.69278 0.95723 0.18099 0.0
C750 C 0.66757 0.9587 0.08954 0.0
C751 C 0.65161 0.96222 0.13639 0.0
C752 C 0.65615 0.96146 0.20609 0.0
C753 C 0.67654 0.95887 0.22821 0.0
C754 C 0.60606 0.99766 0.10783 0.0
C755 C 0.59814 0.99008 0.04654 0.0
C756 C 0.62249 0.98759 0.1401 0.0
C757 C 0.63129 0.96975 0.11166 0.0
C758 C 0.62225 0.96125 0.05336 0.0
C759 C 0.60581 0.97131 0.02113 0.0
H760 H 0.50704 0.70545 0.09523 0.0
H761 H 0.44436 0.70248 0.17022 0.0
H762 H 0.5014 0.67398 0.03061 0.0
H763 H 0.43873 0.6704 0.10565 0.0
H764 H 0.46007 0.59918 0.05783 0.0
H765 H 0.4571 0.63271 0.11355 0.0
H766 H 0.47716 0.66344 0.92952 0.0
H767 H 0.47961 0.63008 0.87292 0.0
C768 C 0.49207 0.69793 0.09795 0.0
C769 C 0.47617 0.70611 0.13794 0.0
C770 C 0.48878 0.6801 0.06053 0.0
C771 C 0.4696 0.66999 0.06295 0.0
C772 C 0.45362 0.67807 0.10308 0.0
C773 C 0.45681 0.69627 0.13979 0.0
C774 C 0.46327 0.61312 0.02863 0.0
C775 C 0.47045 0.612 0.96136 0.0
C776 C 0.46153 0.63226 0.06054 0.0
C777 C 0.46708 0.65048 0.02577 0.0
C778 C 0.473 0.64949 0.95738 0.0
C779 C 0.47457 0.63043 0.92533 0.0
H780 H 0.84244 0.44065 0.23537 0.0
H781 H 0.8194 0.45009 0.03177 0.0
H782 H 0.87691 0.43388 0.18995 0.0
H783 H 0.85369 0.44396 0.98651 0.0
H784 H 0.91669 0.43177 0.91215 0.0
H785 H 0.88345 0.42332 0.96476 0.0
H786 H 0.90137 0.45749 0.14314 0.0
H787 H 0.9344 0.46548 0.09137 0.0
C788 C 0.8447 0.44091 0.18089 0.0
C789 C 0.82834 0.44612 0.13713 0.0
C790 C 0.86441 0.43709 0.15484 0.0
C791 C 0.86817 0.43872 0.08464 0.0
C792 C 0.85139 0.44234 0.04074 0.0
C793 C 0.83168 0.44593 0.06672 0.0
C794 C 0.91357 0.43713 0.96306 0.0
C795 C 0.92805 0.44942 0.99742 0.0
C796 C 0.89457 0.43231 0.9932 0.0
C797 C 0.88964 0.43985 0.058 0.0
C798 C 0.90469 0.45108 0.09373 0.0
C799 C 0.92367 0.45576 0.06386 0.0
H800 H 0.99684 0.19067 0.83343 0.0
H801 H 0.0451 0.17227 0.9727 0.0
H802 H 0.99647 0.15578 0.78615 0.0
H803 H 0.04501 0.13767 0.92511 0.0
H804 H 0.0257 0.07215 0.87959 0.0
H805 H 0.02514 0.10717 0.92237 0.0
H806 H 1.01492 0.13078 0.71926 0.0
H807 H 1.01487 0.09526 0.67628 0.0
C808 C 1.00747 0.17924 0.85373 0.0
C809 C 0.02085 0.18432 0.9075 0.0
C810 C 1.00731 0.1592 0.82639 0.0
C811 C 0.02061 0.14368 0.85185 0.0
C812 C 0.03417 0.14893 0.905 0.0
C813 C 0.03423 0.16887 0.93248 0.0
C814 C 0.02335 0.08473 0.84366 0.0
C815 C 0.02044 0.08074 0.77419 0.0
C816 C 0.02316 0.10497 0.86836 0.0
C817 C 0.02022 0.12203 0.82447 0.0
C818 C 0.01708 0.11809 0.75487 0.0
C819 C 0.01717 0.0977 0.73005 0.0
H820 H 0.35691 0.0527 0.9119 0.0
H821 H 0.35439 0.98726 0.86725 0.0
H822 H 0.39231 0.05404 0.86931 0.0
H823 H 0.38935 0.98904 0.82178 0.0
H824 H 0.44458 1.00646 0.68159 0.0
H825 H 0.40877 1.0062 0.72228 0.0
H826 H 0.42758 0.03888 0.90207 0.0
H827 H 0.46334 0.03892 0.8621 0.0
C828 C 0.36378 0.03855 0.89347 0.0
C829 C 0.35245 0.01986 0.89328 0.0
C830 C 0.38412 0.03939 0.86856 0.0
C831 C 0.39362 0.02168 0.84167 0.0
C832 C 0.38237 1.00305 0.84107 0.0
C833 C 0.36219 1.0021 0.86701 0.0
C834 C 0.44107 1.01371 0.72957 0.0
C835 C 0.4569 0.02267 0.76856 0.0
C836 C 0.42056 1.01345 0.75308 0.0
C837 C 0.41531 0.02248 0.81552 0.0
C838 C 0.43106 0.0319 0.85361 0.0
C839 C 0.45159 0.03183 0.83075 0.0
H840 H 0.55409 0.3507 0.85949 0.0
H841 H 0.48776 0.35308 0.88688 0.0
H842 H 0.55341 0.38539 0.80972 0.0
H843 H 0.48745 0.38816 0.84015 0.0
H844 H 0.50151 0.459 0.83318 0.0
H845 H 0.5015 0.42338 0.87527 0.0
H846 H 0.53885 0.40494 0.70479 0.0
H847 H 0.53866 0.44079 0.66169 0.0
C848 C 0.5393 0.35839 0.85455 0.0
C849 C 0.52096 0.34872 0.87758 0.0
C850 C 0.53898 0.37841 0.8261 0.0
C851 C 0.52039 0.38957 0.82087 0.0
C852 C 0.50208 0.38007 0.84399 0.0
C853 C 0.50232 0.35992 0.87138 0.0
C854 C 0.50971 0.4474 0.80433 0.0
C855 C 0.52013 0.45284 0.74396 0.0
C856 C 0.50958 0.42691 0.8284 0.0
C857 C 0.52016 0.41128 0.79348 0.0
C858 C 0.53064 0.41665 0.7331 0.0
C859 C 0.53045 0.43716 0.70822 0.0
H860 H 0.19146 0.53083 0.81781 0.0
H861 H 0.16952 0.48571 0.96421 0.0
H862 H 0.15617 0.53525 0.77539 0.0
H863 H 0.13468 0.48937 0.92003 0.0
H864 H 0.07112 0.51433 0.87792 0.0
H865 H 0.10649 0.51252 0.9181 0.0
H866 H 0.12865 0.5187 0.71208 0.0
H867 H 0.09285 0.5211 0.67165 0.0
C868 C 0.17916 0.52188 0.84117 0.0
C869 C 0.18351 0.50788 0.89461 0.0
C870 C 0.1589 0.52423 0.81616 0.0
C871 C 0.14239 0.51271 0.8441 0.0
C872 C 0.1468 0.49877 0.8976 0.0
C873 C 0.16696 0.49645 0.92252 0.0
C874 C 0.08346 0.51536 0.84085 0.0
C875 C 0.079 0.51772 0.77128 0.0
C876 C 0.10387 0.51418 0.86405 0.0
C877 C 0.12062 0.51516 0.81852 0.0
C878 C 0.11623 0.518 0.74888 0.0
C879 C 0.09567 0.51928 0.72556 0.0
H880 H 0.98908 0.86486 0.44402 0.0
H881 H 0.03713 0.8432 0.57922 0.0
H882 H 0.99188 0.89931 0.49135 0.0
H883 H 0.04059 0.87818 0.6249 0.0
H884 H 0.02513 0.9399 0.73708 0.0
H885 H 0.02349 0.90435 0.69416 0.0
H886 H 1.01429 0.92833 0.49104 0.0
H887 H 1.01539 0.96337 0.5336 0.0
C888 C 1.00028 0.8674 0.48394 0.0
C889 C 1.0128 0.85106 0.50776 0.0
C890 C 1.00208 0.88734 0.51066 0.0
C891 C 0.01656 0.89173 0.56195 0.0
C892 C 0.02915 0.87543 0.58591 0.0
C893 C 0.02734 0.85538 0.55903 0.0
C894 C 0.02277 0.93753 0.68329 0.0
C895 C 0.02019 0.9546 0.63911 0.0
C896 C 0.02194 0.91713 0.65854 0.0
C897 C 0.01851 0.91333 0.58902 0.0
C898 C 0.01645 0.93048 0.54501 0.0
C899 C 0.01721 0.95072 0.56959 0.0
H900 H 0.66917 1.01178 0.41253 0.0
H901 H 0.69554 1.01381 0.61376 0.0
H902 H 0.63467 1.01038 0.46144 0.0
H903 H 0.66105 1.01123 0.66283 0.0
H904 H 0.59477 0.02994 0.72531 0.0
H905 H 0.63 0.03006 0.68079 0.0
H906 H 0.61108 0.98897 0.52043 0.0
H907 H 0.57588 0.98938 0.56358 0.0
C908 C 0.66767 1.01188 0.46726 0.0
C909 C 0.68532 1.01298 0.50891 0.0
C910 C 0.6478 1.01078 0.49552 0.0
C911 C 0.64488 1.0106 0.56642 0.0
C912 C 0.66254 1.01154 0.6081 0.0
C913 C 0.68243 1.01273 0.57981 0.0
C914 C 0.59816 0.02076 0.68095 0.0
C915 C 0.58235 1.00976 0.64797 0.0
C916 C 0.61845 0.02078 0.65537 0.0
C917 C 0.62352 1.0097 0.59632 0.0
C918 C 0.6078 0.99812 0.56493 0.0
C919 C 0.58754 0.99821 0.59017 0.0
H920 H 0.51854 0.67493 0.41702 0.0
H921 H 0.54204 0.69195 0.61379 0.0
H922 H 0.5153 0.63897 0.45567 0.0
H923 H 0.53909 0.65594 0.65211 0.0
H924 H 0.51233 0.59168 0.71535 0.0
H925 H 0.51368 0.62814 0.67969 0.0
H926 H 0.53841 0.61005 0.48565 0.0
H927 H 0.53708 0.57385 0.52083 0.0
C928 C 0.52287 0.67106 0.4687 0.0
C929 C 0.53064 0.68644 0.51204 0.0
C930 C 0.5212 0.65036 0.49074 0.0
C931 C 0.52703 0.64442 0.55705 0.0
C932 C 0.53433 0.65988 0.60091 0.0
C933 C 0.53621 0.68055 0.57864 0.0
C934 C 0.51808 0.59547 0.66511 0.0
C935 C 0.52463 0.57967 0.62121 0.0
C936 C 0.51893 0.61642 0.64471 0.0
C937 C 0.52607 0.62213 0.57953 0.0
C938 C 0.53256 0.60631 0.53579 0.0
C939 C 0.53194 0.58546 0.55636 0.0
H940 H 0.84159 0.53499 0.59837 0.0
H941 H 0.86165 0.50069 0.42332 0.0
H942 H 0.87644 0.53286 0.64589 0.0
H943 H 0.89644 0.49829 0.47134 0.0
H944 H 0.96041 0.52329 0.53369 0.0
H945 H 0.92511 0.52244 0.49174 0.0
H946 H 0.90297 0.50881 0.69395 0.0
H947 H 0.93864 0.5097 0.73654 0.0
C948 C 0.85341 0.52692 0.57007 0.0
C949 C 0.84876 0.51815 0.50661 0.0
C950 C 0.87338 0.52552 0.59773 0.0
C951 C 0.88937 0.5155 0.56245 0.0
C952 C 0.88461 0.50634 0.49969 0.0
C953 C 0.86458 0.50755 0.47235 0.0
C954 C 0.94811 0.52007 0.56957 0.0
C955 C 0.95251 0.51662 0.63878 0.0
C956 C 0.92778 0.51942 0.54519 0.0
C957 C 0.91109 0.51547 0.58921 0.0
C958 C 0.91541 0.51202 0.65858 0.0
C959 C 0.93588 0.51245 0.683 0.0
loop_
_geom_bond_atom_site_label_1
_geom_bond_atom_site_label_2
_geom_bond_distance
_geom_bond_site_symmetry_2
_ccdc_geom_bond_type
C0 C1 1.264 . S
C0 C5 1.479 . S
C0 C10 1.465 . S
C1 C0 1.264 . S
C1 C3 1.339 . S
C1 H28 0.931 . S
C2 C3 1.395 . S
C2 C4 1.320 . S
C3 C1 1.339 . S
C3 C2 1.395 . S
C3 H29 0.929 . S
C4 C2 1.320 . S
C4 C5 1.405 . S
C4 H30 0.930 . S
C5 C0 1.479 . S
C5 C4 1.405 . S
C5 H31 0.931 . S
U6 O7 2.454 . S
U6 O8 2.458 . S
U6 C9 2.984 . S
U6 C10 2.847 . S
U6 C23 2.882 . S
U6 O24 2.441 . S
U6 O25 2.420 . S
U6 O26 2.455 . S
U6 O27 2.449 . S
O7 U6 2.454 . S
O7 C9 1.353 . S
O8 U6 2.458 . S
O8 C9 1.286 . S
C9 U6 2.984 . S
C9 O7 1.353 . S
C9 O8 1.286 . S
C9 C11 1.363 . S
C10 C0 1.465 . S
C10 U6 2.847 . S
C10 O24 1.249 . S
C10 O25 1.202 . S
C11 C9 1.363 . S
C11 C13 1.408 . S
C11 C16 1.342 . S
C12 C13 1.310 . S
C12 C15 1.461 . S
C12 H32 0.932 . S
C13 C11 1.408 . S
C13 C12 1.310 . S
C13 H33 0.930 . S
C14 C15 1.474 . S
C14 C16 1.285 . S
C14 H34 0.929 . S
C15 C12 1.461 . S
C15 C14 1.474 . S
C16 C11 1.342 . S
C16 C14 1.285 . S
C16 H35 0.930 . S
C17 C20 1.424 . S
C17 C22 1.245 . S
C17 C23 1.428 . S
C18 C21 1.260 . S
C18 C22 1.477 . S
C18 H36 0.932 . S
C19 C20 1.384 . S
C19 C21 1.479 . S
C19 H37 0.929 . S
C20 C17 1.424 . S
C20 C19 1.384 . S
C20 H38 0.928 . S
C21 C18 1.260 . S
C21 C19 1.479 . S
C22 C17 1.245 . S
C22 C18 1.477 . S
C22 H39 0.932 . S
C23 U6 2.882 . S
C23 C17 1.428 . S
C23 O26 1.301 . S
C23 O27 1.282 . S
O24 U6 2.441 . S
O24 C10 1.249 . S
O25 U6 2.420 . S
O25 C10 1.202 . S
O26 U6 2.455 . S
O26 C23 1.301 . S
O27 U6 2.449 . S
O27 C23 1.282 . S
H28 C1 0.931 . S
H29 C3 0.929 . S
H30 C4 0.930 . S
H31 C5 0.931 . S
H32 C12 0.932 . S
H33 C13 0.930 . S
H34 C14 0.929 . S
H35 C16 0.930 . S
H36 C18 0.932 . S
H37 C19 0.929 . S
H38 C20 0.928 . S
H39 C22 0.932 . S
C40 C41 1.264 . S
C40 C45 1.479 . S
C40 C50 1.465 . S
C41 C40 1.264 . S
C41 C43 1.339 . S
C41 H68 0.931 . S
C42 C43 1.395 . S
C42 C44 1.320 . S
C43 C41 1.339 . S
C43 C42 1.395 . S
C43 H69 0.929 . S
C44 C42 1.320 . S
C44 C45 1.405 . S
C44 H70 0.921 1_455 S
C45 C40 1.479 . S
C45 C44 1.405 . S
C45 H71 0.931 . S
U46 O47 2.454 . S
U46 O48 2.458 . S
U46 C49 2.984 . S
U46 C50 2.847 . S
U46 C63 2.882 . S
U46 O64 2.441 . S
U46 O65 2.420 . S
U46 O66 2.455 . S
U46 O67 2.449 . S
O47 U46 2.454 . S
O47 C49 1.353 . S
O48 U46 2.458 . S
O48 C49 1.286 . S
C49 U46 2.984 . S
C49 O47 1.353 . S
C49 O48 1.286 . S
C49 C51 1.363 . S
C50 C40 1.465 . S
C50 U46 2.847 . S
C50 O64 1.249 . S
C50 O65 1.202 . S
C51 C49 1.363 . S
C51 C53 1.408 . S
C51 C56 1.342 . S
C52 C53 1.310 . S
C52 C55 1.461 . S
C52 H72 0.932 . S
C53 C51 1.408 . S
C53 C52 1.310 . S
C53 H73 0.930 . S
C54 C55 1.474 1_655 S
C54 C56 1.285 1_655 S
C54 H74 0.930 . S
C55 C52 1.461 . S
C55 C54 1.474 1_455 S
C56 C51 1.342 . S
C56 C54 1.285 1_455 S
C56 H75 0.932 . S
C57 C60 1.424 . S
C57 C62 1.245 . S
C57 C63 1.428 . S
C58 C61 1.260 . S
C58 C62 1.477 . S
C58 H76 0.932 . S
C59 C60 1.384 . S
C59 C61 1.479 . S
C59 H77 0.929 . S
C60 C57 1.424 . S
C60 C59 1.384 . S
C60 H78 0.928 . S
C61 C58 1.260 . S
C61 C59 1.479 . S
C62 C57 1.245 . S
C62 C58 1.477 . S
C62 H79 0.932 . S
C63 U46 2.882 . S
C63 C57 1.428 . S
C63 O66 1.301 . S
C63 O67 1.282 . S
O64 U46 2.441 . S
O64 C50 1.249 . S
O65 U46 2.420 . S
O65 C50 1.202 . S
O66 U46 2.455 . S
O66 C63 1.301 . S
O67 U46 2.449 . S
O67 C63 1.282 . S
H68 C41 0.931 . S
H69 C43 0.929 . S
H70 C44 0.921 1_655 S
H71 C45 0.931 . S
H72 C52 0.932 . S
H73 C53 0.930 . S
H74 C54 0.930 . S
H75 C56 0.932 . S
H76 C58 0.932 . S
H77 C59 0.929 . S
H78 C60 0.928 . S
H79 C62 0.932 . S
C80 C81 1.264 . S
C80 C85 1.479 . S
C80 C90 1.465 . S
C81 C80 1.264 . S
C81 C83 1.339 . S
C81 H108 0.931 . S
C82 C83 1.395 . S
C82 C84 1.320 . S
C83 C81 1.339 . S
C83 C82 1.395 . S
C83 H109 0.929 . S
C84 C82 1.320 . S
C84 C85 1.405 . S
C84 H110 0.921 1_545 S
C85 C80 1.479 . S
C85 C84 1.405 . S
C85 H111 0.931 . S
U86 O87 2.454 . S
U86 O88 2.458 . S
U86 C89 2.984 . S
U86 C90 2.847 . S
U86 C103 2.882 . S
U86 O104 2.441 . S
U86 O105 2.420 . S
U86 O106 2.455 . S
U86 O107 2.449 . S
O87 U86 2.454 . S
O87 C89 1.353 . S
O88 U86 2.458 . S
O88 C89 1.286 . S
C89 U86 2.984 . S
C89 O87 1.353 . S
C89 O88 1.286 . S
C89 C91 1.363 . S
C90 C80 1.465 . S
C90 U86 2.847 . S
C90 O104 1.249 . S
C90 O105 1.202 . S
C91 C89 1.363 . S
C91 C93 1.408 . S
C91 C96 1.342 . S
C92 C93 1.310 . S
C92 C95 1.461 . S
C92 H112 0.932 . S
C93 C91 1.408 . S
C93 C92 1.310 . S
C93 H113 0.930 . S
C94 C95 1.474 1_565 S
C94 C96 1.285 1_565 S
C94 H114 0.930 . S
C95 C92 1.461 . S
C95 C94 1.474 1_545 S
C96 C91 1.342 . S
C96 C94 1.285 1_545 S
C96 H115 0.932 . S
C97 C100 1.424 . S
C97 C102 1.245 . S
C97 C103 1.428 . S
C98 C101 1.260 . S
C98 C102 1.477 . S
C98 H116 0.932 . S
C99 C100 1.384 . S
C99 C101 1.479 . S
C99 H117 0.929 . S
C100 C97 1.424 . S
C100 C99 1.384 . S
C100 H118 0.928 . S
C101 C98 1.260 . S
C101 C99 1.479 . S
C102 C97 1.245 . S
C102 C98 1.477 . S
C102 H119 0.932 . S
C103 U86 2.882 . S
C103 C97 1.428 . S
C103 O106 1.301 . S
C103 O107 1.282 . S
O104 U86 2.441 . S
O104 C90 1.249 . S
O105 U86 2.420 . S
O105 C90 1.202 . S
O106 U86 2.455 . S
O106 C103 1.301 . S
O107 U86 2.449 . S
O107 C103 1.282 . S
H108 C81 0.931 . S
H109 C83 0.929 . S
H110 C84 0.921 1_565 S
H111 C85 0.931 . S
H112 C92 0.932 . S
H113 C93 0.930 . S
H114 C94 0.930 . S
H115 C96 0.932 . S
H116 C98 0.932 . S
H117 C99 0.929 . S
H118 C100 0.928 . S
H119 C102 0.932 . S
C120 C121 1.264 . S
C120 C125 1.479 . S
C120 C130 1.465 . S
C121 C120 1.264 . S
C121 C123 1.339 . S
C121 H148 0.931 . S
C122 C123 1.395 . S
C122 C124 1.320 . S
C123 C121 1.339 . S
C123 C122 1.395 . S
C123 H149 0.929 . S
C124 C122 1.320 . S
C124 C125 1.405 . S
C124 H150 0.930 . S
C125 C120 1.479 . S
C125 C124 1.405 . S
C125 H151 0.931 . S
U126 O127 2.454 . S
U126 O128 2.458 . S
U126 C129 2.984 . S
U126 C130 2.847 . S
U126 C143 2.882 . S
U126 O144 2.441 . S
U126 O145 2.420 . S
U126 O146 2.455 . S
U126 O147 2.449 . S
O127 U126 2.454 . S
O127 C129 1.353 . S
O128 U126 2.458 . S
O128 C129 1.286 . S
C129 U126 2.984 . S
C129 O127 1.353 . S
C129 O128 1.286 . S
C129 C131 1.363 . S
C130 C120 1.465 . S
C130 U126 2.847 . S
C130 O144 1.249 . S
C130 O145 1.202 . S
C131 C129 1.363 . S
C131 C133 1.408 . S
C131 C136 1.342 . S
C132 C133 1.310 . S
C132 C135 1.461 . S
C132 H152 0.932 . S
C133 C131 1.408 . S
C133 C132 1.310 . S
C133 H153 0.930 . S
C134 C135 1.474 . S
C134 C136 1.285 . S
C134 H154 0.929 . S
C135 C132 1.461 . S
C135 C134 1.474 . S
C136 C131 1.342 . S
C136 C134 1.285 . S
C136 H155 0.930 . S
C137 C140 1.424 . S
C137 C142 1.245 . S
C137 C143 1.428 . S
C138 C141 1.260 . S
C138 C142 1.477 . S
C138 H156 0.932 . S
C139 C140 1.384 . S
C139 C141 1.479 . S
C139 H157 0.929 . S
C140 C137 1.424 . S
C140 C139 1.384 . S
C140 H158 0.928 . S
C141 C138 1.260 . S
C141 C139 1.479 . S
C142 C137 1.245 . S
C142 C138 1.477 . S
C142 H159 0.932 . S
C143 U126 2.882 . S
C143 C137 1.428 . S
C143 O146 1.301 . S
C143 O147 1.282 . S
O144 U126 2.441 . S
O144 C130 1.249 . S
O145 U126 2.420 . S
O145 C130 1.202 . S
O146 U126 2.455 . S
O146 C143 1.301 . S
O147 U126 2.449 . S
O147 C143 1.282 . S
H148 C121 0.931 . S
H149 C123 0.929 . S
H150 C124 0.930 . S
H151 C125 0.931 . S
H152 C132 0.932 . S
H153 C133 0.930 . S
H154 C134 0.929 . S
H155 C136 0.930 . S
H156 C138 0.932 . S
H157 C139 0.929 . S
H158 C140 0.928 . S
H159 C142 0.932 . S
C160 C161 1.264 . S
C160 C165 1.479 . S
C160 C170 1.465 . S
C161 C160 1.264 . S
C161 C163 1.339 . S
C161 H188 0.931 . S
C162 C163 1.395 . S
C162 C164 1.320 . S
C163 C161 1.339 . S
C163 C162 1.395 . S
C163 H189 0.929 . S
C164 C162 1.320 . S
C164 C165 1.405 . S
C164 H190 0.930 . S
C165 C160 1.479 . S
C165 C164 1.405 . S
C165 H191 0.931 . S
U166 O167 2.454 . S
U166 O168 2.458 . S
U166 C169 2.984 . S
U166 C170 2.847 1_554 S
U166 C183 2.882 . S
U166 O184 2.441 1_554 S
U166 O185 2.420 1_554 S
U166 O186 2.455 . S
U166 O187 2.449 . S
O167 U166 2.454 . S
O167 C169 1.353 . S
O168 U166 2.458 . S
O168 C169 1.286 . S
C169 U166 2.984 . S
C169 O167 1.353 . S
C169 O168 1.286 . S
C169 C171 1.363 . S
C170 C160 1.465 . S
C170 U166 2.847 1_556 S
C170 O184 1.249 . S
C170 O185 1.202 . S
C171 C169 1.363 . S
C171 C173 1.408 . S
C171 C176 1.342 . S
C172 C173 1.310 . S
C172 C175 1.461 . S
C172 H192 0.932 . S
C173 C171 1.408 . S
C173 C172 1.310 . S
C173 H193 0.930 1_554 S
C174 C175 1.474 . S
C174 C176 1.285 . S
C174 H194 0.929 . S
C175 C172 1.461 . S
C175 C174 1.474 . S
C176 C171 1.342 . S
C176 C174 1.285 . S
C176 H195 0.930 . S
C177 C180 1.424 . S
C177 C182 1.245 . S
C177 C183 1.428 . S
C178 C181 1.260 . S
C178 C182 1.477 . S
C178 H196 0.932 . S
C179 C180 1.384 . S
C179 C181 1.479 . S
C179 H197 0.929 . S
C180 C177 1.424 . S
C180 C179 1.384 . S
C180 H198 0.928 . S
C181 C178 1.260 . S
C181 C179 1.479 . S
C182 C177 1.245 . S
C182 C178 1.477 . S
C182 H199 0.932 . S
C183 U166 2.882 . S
C183 C177 1.428 . S
C183 O186 1.301 . S
C183 O187 1.282 . S
O184 U166 2.441 1_556 S
O184 C170 1.249 . S
O185 U166 2.420 1_556 S
O185 C170 1.202 . S
O186 U166 2.455 . S
O186 C183 1.301 . S
O187 U166 2.449 . S
O187 C183 1.282 . S
H188 C161 0.931 . S
H189 C163 0.929 . S
H190 C164 0.930 . S
H191 C165 0.931 . S
H192 C172 0.932 . S
H193 C173 0.930 1_556 S
H194 C174 0.929 . S
H195 C176 0.930 . S
H196 C178 0.932 . S
H197 C179 0.929 . S
H198 C180 0.928 . S
H199 C182 0.932 . S
C200 C201 1.264 . S
C200 C205 1.479 . S
C200 C210 1.465 . S
C201 C200 1.264 . S
C201 C203 1.339 . S
C201 H228 0.931 . S
C202 C203 1.395 . S
C202 C204 1.320 . S
C203 C201 1.339 . S
C203 C202 1.395 . S
C203 H229 0.929 . S
C204 C202 1.320 . S
C204 C205 1.405 . S
C204 H230 0.923 1_455 S
C205 C200 1.479 . S
C205 C204 1.405 . S
C205 H231 0.931 . S
U206 O207 2.454 . S
U206 O208 2.458 . S
U206 C209 2.984 . S
U206 C210 2.847 1_554 S
U206 C223 2.882 . S
U206 O224 2.441 1_554 S
U206 O225 2.420 1_554 S
U206 O226 2.455 . S
U206 O227 2.449 . S
O207 U206 2.454 . S
O207 C209 1.353 . S
O208 U206 2.458 . S
O208 C209 1.286 . S
C209 U206 2.984 . S
C209 O207 1.353 . S
C209 O208 1.286 . S
C209 C211 1.363 . S
C210 C200 1.465 . S
C210 U206 2.847 1_556 S
C210 O224 1.249 . S
C210 O225 1.202 . S
C211 C209 1.363 . S
C211 C213 1.408 . S
C211 C216 1.342 . S
C212 C213 1.310 . S
C212 C215 1.462 . S
C212 H232 0.932 . S
C213 C211 1.408 . S
C213 C212 1.310 . S
C213 H233 0.930 1_554 S
C214 C215 1.474 1_655 S
C214 C216 1.286 1_655 S
C214 H234 0.929 . S
C215 C212 1.462 . S
C215 C214 1.474 1_455 S
C216 C211 1.342 . S
C216 C214 1.286 1_455 S
C216 H235 0.934 . S
C217 C220 1.424 . S
C217 C222 1.245 . S
C217 C223 1.428 . S
C218 C221 1.260 . S
C218 C222 1.477 . S
C218 H236 0.932 . S
C219 C220 1.384 . S
C219 C221 1.479 . S
C219 H237 0.929 . S
C220 C217 1.424 . S
C220 C219 1.384 . S
C220 H238 0.928 . S
C221 C218 1.260 . S
C221 C219 1.479 . S
C222 C217 1.245 . S
C222 C218 1.477 . S
C222 H239 0.932 . S
C223 U206 2.882 . S
C223 C217 1.428 . S
C223 O226 1.301 . S
C223 O227 1.282 . S
O224 U206 2.441 1_556 S
O224 C210 1.249 . S
O225 U206 2.420 1_556 S
O225 C210 1.202 . S
O226 U206 2.455 . S
O226 C223 1.301 . S
O227 U206 2.449 . S
O227 C223 1.282 . S
H228 C201 0.931 . S
H229 C203 0.929 . S
H230 C204 0.923 1_655 S
H231 C205 0.931 . S
H232 C212 0.932 . S
H233 C213 0.930 1_556 S
H234 C214 0.929 . S
H235 C216 0.934 . S
H236 C218 0.932 . S
H237 C219 0.929 . S
H238 C220 0.928 . S
H239 C222 0.932 . S
C240 C241 1.264 . S
C240 C245 1.479 . S
C240 C250 1.465 . S
C241 C240 1.264 . S
C241 C243 1.339 . S
C241 H268 0.931 . S
C242 C243 1.395 . S
C242 C244 1.320 . S
C243 C241 1.339 . S
C243 C242 1.395 . S
C243 H269 0.929 . S
C244 C242 1.320 . S
C244 C245 1.405 . S
C244 H270 0.923 1_545 S
C245 C240 1.479 . S
C245 C244 1.405 . S
C245 H271 0.931 . S
U246 O247 2.454 . S
U246 O248 2.458 . S
U246 C249 2.984 . S
U246 C250 2.847 1_554 S
U246 C263 2.882 . S
U246 O264 2.441 1_554 S
U246 O265 2.420 1_554 S
U246 O266 2.455 . S
U246 O267 2.449 . S
O247 U246 2.454 . S
O247 C249 1.353 . S
O248 U246 2.458 . S
O248 C249 1.286 . S
C249 U246 2.984 . S
C249 O247 1.353 . S
C249 O248 1.286 . S
C249 C251 1.363 . S
C250 C240 1.465 . S
C250 U246 2.847 1_556 S
C250 O264 1.249 . S
C250 O265 1.202 . S
C251 C249 1.363 . S
C251 C253 1.408 . S
C251 C256 1.342 . S
C252 C253 1.310 . S
C252 C255 1.462 . S
C252 H272 0.932 . S
C253 C251 1.408 . S
C253 C252 1.310 . S
C253 H273 0.930 1_554 S
C254 C255 1.474 1_565 S
C254 C256 1.286 1_565 S
C254 H274 0.929 . S
C255 C252 1.462 . S
C255 C254 1.474 1_545 S
C256 C251 1.342 . S
C256 C254 1.286 1_545 S
C256 H275 0.934 . S
C257 C260 1.424 . S
C257 C262 1.245 . S
C257 C263 1.428 . S
C258 C261 1.260 . S
C258 C262 1.477 . S
C258 H276 0.932 . S
C259 C260 1.384 . S
C259 C261 1.479 . S
C259 H277 0.929 . S
C260 C257 1.424 . S
C260 C259 1.384 . S
C260 H278 0.928 . S
C261 C258 1.260 . S
C261 C259 1.479 . S
C262 C257 1.245 . S
C262 C258 1.477 . S
C262 H279 0.932 . S
C263 U246 2.882 . S
C263 C257 1.428 . S
C263 O266 1.301 . S
C263 O267 1.282 . S
O264 U246 2.441 1_556 S
O264 C250 1.249 . S
O265 U246 2.420 1_556 S
O265 C250 1.202 . S
O266 U246 2.455 . S
O266 C263 1.301 . S
O267 U246 2.449 . S
O267 C263 1.282 . S
H268 C241 0.931 . S
H269 C243 0.929 . S
H270 C244 0.923 1_565 S
H271 C245 0.931 . S
H272 C252 0.932 . S
H273 C253 0.930 1_556 S
H274 C254 0.929 . S
H275 C256 0.934 . S
H276 C258 0.932 . S
H277 C259 0.929 . S
H278 C260 0.928 . S
H279 C262 0.932 . S
C280 C281 1.264 . S
C280 C285 1.479 . S
C280 C290 1.465 . S
C281 C280 1.264 . S
C281 C283 1.339 . S
C281 H308 0.931 . S
C282 C283 1.395 . S
C282 C284 1.320 . S
C283 C281 1.339 . S
C283 C282 1.395 . S
C283 H309 0.929 . S
C284 C282 1.320 . S
C284 C285 1.405 . S
C284 H310 0.930 . S
C285 C280 1.479 . S
C285 C284 1.405 . S
C285 H311 0.931 . S
U286 O287 2.454 . S
U286 O288 2.458 . S
U286 C289 2.984 . S
U286 C290 2.847 1_554 S
U286 C303 2.882 . S
U286 O304 2.441 1_554 S
U286 O305 2.420 1_554 S
U286 O306 2.455 . S
U286 O307 2.449 . S
O287 U286 2.454 . S
O287 C289 1.353 . S
O288 U286 2.458 . S
O288 C289 1.286 . S
C289 U286 2.984 . S
C289 O287 1.353 . S
C289 O288 1.286 . S
C289 C291 1.363 . S
C290 C280 1.465 . S
C290 U286 2.847 1_556 S
C290 O304 1.249 . S
C290 O305 1.202 . S
C291 C289 1.363 . S
C291 C293 1.408 . S
C291 C296 1.342 . S
C292 C293 1.310 . S
C292 C295 1.461 . S
C292 H312 0.932 . S
C293 C291 1.408 . S
C293 C292 1.310 . S
C293 H313 0.930 1_554 S
C294 C295 1.474 . S
C294 C296 1.285 . S
C294 H314 0.929 . S
C295 C292 1.461 . S
C295 C294 1.474 . S
C296 C291 1.342 . S
C296 C294 1.285 . S
C296 H315 0.930 . S
C297 C300 1.424 . S
C297 C302 1.245 . S
C297 C303 1.428 . S
C298 C301 1.260 . S
C298 C302 1.477 . S
C298 H316 0.932 . S
C299 C300 1.384 . S
C299 C301 1.479 . S
C299 H317 0.929 . S
C300 C297 1.424 . S
C300 C299 1.384 . S
C300 H318 0.928 . S
C301 C298 1.260 . S
C301 C299 1.479 . S
C302 C297 1.245 . S
C302 C298 1.477 . S
C302 H319 0.932 . S
C303 U286 2.882 . S
C303 C297 1.428 . S
C303 O306 1.301 . S
C303 O307 1.282 . S
O304 U286 2.441 1_556 S
O304 C290 1.249 . S
O305 U286 2.420 1_556 S
O305 C290 1.202 . S
O306 U286 2.455 . S
O306 C303 1.301 . S
O307 U286 2.449 . S
O307 C303 1.282 . S
H308 C281 0.931 . S
H309 C283 0.929 . S
H310 C284 0.930 . S
H311 C285 0.931 . S
H312 C292 0.932 . S
H313 C293 0.930 1_556 S
H314 C294 0.929 . S
H315 C296 0.930 . S
H316 C298 0.932 . S
H317 C299 0.929 . S
H318 C300 0.928 . S
H319 C302 0.932 . S
La320 C322 2.928 . S
La320 O340 2.521 . S
La320 O341 2.628 . S
La320 O342 2.554 . S
La320 O343 2.757 1_565 S
La320 O344 2.470 . S
La320 O349 2.482 1_455 S
La320 O351 2.503 1_565 S
La321 C331 2.928 . S
La321 O343 2.482 1_655 S
La321 O345 2.503 1_545 S
La321 O346 2.521 . S
La321 O347 2.628 . S
La321 O348 2.554 . S
La321 O349 2.757 1_545 S
La321 O350 2.470 . S
C322 La320 2.928 . S
C322 C323 1.503 . S
C322 O340 1.261 . S
C322 O341 1.243 . S
C323 C322 1.503 . S
C323 C324 1.394 . S
C323 C328 1.373 . S
C324 C323 1.394 . S
C324 C325 1.380 . S
C324 H352 0.930 . S
C325 C324 1.380 . S
C325 C326 1.376 . S
C325 H353 0.930 . S
C326 C325 1.376 . S
C326 C327 1.370 . S
C327 C326 1.370 . S
C327 C328 1.396 . S
C327 H354 0.929 1_455 S
C328 C323 1.373 . S
C328 C327 1.396 . S
C328 H355 0.929 1_455 S
C329 O342 1.266 . S
C329 O343 1.274 1_565 S
C330 O344 1.258 1_655 S
C330 O345 1.256 . S
C331 La321 2.928 . S
C331 C332 1.503 . S
C331 O346 1.261 . S
C331 O347 1.243 . S
C332 C331 1.503 . S
C332 C333 1.394 . S
C332 C337 1.373 . S
C333 C332 1.394 . S
C333 C334 1.380 . S
C333 H356 0.930 . S
C334 C333 1.380 . S
C334 C335 1.376 . S
C334 H357 0.930 . S
C335 C334 1.376 . S
C335 C336 1.370 . S
C336 C335 1.370 . S
C336 C337 1.396 . S
C336 H358 0.929 1_655 S
C337 C332 1.373 . S
C337 C336 1.396 . S
C337 H359 0.929 1_655 S
C338 O348 1.240 . S
C338 O349 1.289 1_545 S
C339 O350 1.258 1_455 S
C339 O351 1.256 . S
O340 La320 2.521 . S
O340 C322 1.261 . S
O341 La320 2.628 . S
O341 C322 1.243 . S
O342 La320 2.554 . S
O342 C329 1.266 . S
O343 La320 2.757 1_545 S
O343 La321 2.482 1_455 S
O343 C329 1.274 1_545 S
O344 La320 2.470 . S
O344 C330 1.258 1_455 S
O345 La321 2.503 1_565 S
O345 C330 1.256 . S
O346 La321 2.521 . S
O346 C331 1.261 . S
O347 La321 2.628 . S
O347 C331 1.243 . S
O348 La321 2.554 . S
O348 C338 1.240 . S
O349 La320 2.482 1_655 S
O349 La321 2.757 1_565 S
O349 C338 1.289 1_565 S
O350 La321 2.470 . S
O350 C339 1.258 1_655 S
O351 La320 2.503 1_545 S
O351 C339 1.256 . S
H352 C324 0.930 . S
H353 C325 0.930 . S
H354 C327 0.929 1_655 S
H355 C328 0.929 1_655 S
H356 C333 0.930 . S
H357 C334 0.930 . S
H358 C336 0.929 1_455 S
H359 C337 0.929 1_455 S
La360 C362 2.928 . S
La360 O380 2.521 . S
La360 O381 2.628 . S
La360 O382 2.554 . S
La360 O383 2.757 . S
La360 O384 2.470 . S
La360 O389 2.482 1_545 S
La360 O391 2.503 . S
La361 C371 2.928 . S
La361 O383 2.482 1_565 S
La361 O385 2.503 . S
La361 O386 2.521 . S
La361 O387 2.628 . S
La361 O388 2.554 . S
La361 O389 2.757 . S
La361 O390 2.470 . S
C362 La360 2.928 . S
C362 C363 1.503 . S
C362 O380 1.261 . S
C362 O381 1.243 . S
C363 C362 1.503 . S
C363 C364 1.394 . S
C363 C368 1.373 . S
C364 C363 1.394 . S
C364 C365 1.380 . S
C364 H392 0.930 . S
C365 C364 1.380 . S
C365 C366 1.376 . S
C365 H393 0.930 . S
C366 C365 1.376 . S
C366 C367 1.370 . S
C367 C366 1.370 . S
C367 C368 1.396 . S
C367 H394 0.929 1_545 S
C368 C363 1.373 . S
C368 C367 1.396 . S
C368 H395 0.929 1_545 S
C369 O382 1.240 . S
C369 O383 1.289 . S
C370 O384 1.258 1_565 S
C370 O385 1.256 . S
C371 La361 2.928 . S
C371 C372 1.503 . S
C371 O386 1.261 . S
C371 O387 1.243 . S
C372 C371 1.503 . S
C372 C373 1.394 . S
C372 C377 1.373 . S
C373 C372 1.394 . S
C373 C374 1.380 . S
C373 H396 0.930 . S
C374 C373 1.380 . S
C374 C375 1.376 . S
C374 H397 0.930 . S
C375 C374 1.376 . S
C375 C376 1.370 . S
C376 C375 1.370 . S
C376 C377 1.396 . S
C376 H398 0.929 1_565 S
C377 C372 1.373 . S
C377 C376 1.396 . S
C377 H399 0.929 1_565 S
C378 O388 1.240 . S
C378 O389 1.289 . S
C379 O390 1.258 1_545 S
C379 O391 1.256 . S
O380 La360 2.521 . S
O380 C362 1.261 . S
O381 La360 2.628 . S
O381 C362 1.243 . S
O382 La360 2.554 . S
O382 C369 1.240 . S
O383 La360 2.757 . S
O383 La361 2.482 1_545 S
O383 C369 1.289 . S
O384 La360 2.470 . S
O384 C370 1.258 1_545 S
O385 La361 2.503 . S
O385 C370 1.256 . S
O386 La361 2.521 . S
O386 C371 1.261 . S
O387 La361 2.628 . S
O387 C371 1.243 . S
O388 La361 2.554 . S
O388 C378 1.240 . S
O389 La360 2.482 1_565 S
O389 La361 2.757 . S
O389 C378 1.289 . S
O390 La361 2.470 . S
O390 C379 1.258 1_565 S
O391 La360 2.503 . S
O391 C379 1.256 . S
H392 C364 0.930 . S
H393 C365 0.930 . S
H394 C367 0.929 1_565 S
H395 C368 0.929 1_565 S
H396 C373 0.930 . S
H397 C374 0.930 . S
H398 C376 0.929 1_545 S
H399 C377 0.929 1_545 S
La400 C402 2.928 . S
La400 O420 2.521 . S
La400 O421 2.628 . S
La400 O422 2.554 . S
La400 O423 2.757 . S
La400 O424 2.470 . S
La400 O429 2.482 . S
La400 O431 2.503 . S
La401 C411 2.928 . S
La401 O423 2.482 . S
La401 O425 2.503 . S
La401 O426 2.521 . S
La401 O427 2.628 . S
La401 O428 2.554 . S
La401 O429 2.757 . S
La401 O430 2.470 . S
C402 La400 2.928 . S
C402 C403 1.503 . S
C402 O420 1.261 . S
C402 O421 1.243 . S
C403 C402 1.503 . S
C403 C404 1.394 . S
C403 C408 1.373 . S
C404 C403 1.394 . S
C404 C405 1.380 . S
C404 H432 0.930 . S
C405 C404 1.380 . S
C405 C406 1.376 . S
C405 H433 0.930 . S
C406 C405 1.376 . S
C406 C407 1.370 . S
C407 C406 1.370 . S
C407 C408 1.396 . S
C407 H434 0.929 . S
C408 C403 1.373 . S
C408 C407 1.396 . S
C408 H435 0.929 . S
C409 O422 1.240 . S
C409 O423 1.289 . S
C410 O424 1.258 . S
C410 O425 1.256 . S
C411 La401 2.928 . S
C411 C412 1.503 . S
C411 O426 1.261 . S
C411 O427 1.243 . S
C412 C411 1.503 . S
C412 C413 1.394 . S
C412 C417 1.373 . S
C413 C412 1.394 . S
C413 C414 1.380 . S
C413 H436 0.930 . S
C414 C413 1.380 . S
C414 C415 1.376 . S
C414 H437 0.930 . S
C415 C414 1.376 . S
C415 C416 1.370 . S
C416 C415 1.370 . S
C416 C417 1.396 . S
C416 H438 0.929 . S
C417 C412 1.373 . S
C417 C416 1.396 . S
C417 H439 0.929 . S
C418 O428 1.240 . S
C418 O429 1.289 . S
C419 O430 1.258 . S
C419 O431 1.256 . S
O420 La400 2.521 . S
O420 C402 1.261 . S
O421 La400 2.628 . S
O421 C402 1.243 . S
O422 La400 2.554 . S
O422 C409 1.240 . S
O423 La400 2.757 . S
O423 La401 2.482 . S
O423 C409 1.289 . S
O424 La400 2.470 . S
O424 C410 1.258 . S
O425 La401 2.503 . S
O425 C410 1.256 . S
O426 La401 2.521 . S
O426 C411 1.261 . S
O427 La401 2.628 . S
O427 C411 1.243 . S
O428 La401 2.554 . S
O428 C418 1.240 . S
O429 La400 2.482 . S
O429 La401 2.757 . S
O429 C418 1.289 . S
O430 La401 2.470 . S
O430 C419 1.258 . S
O431 La400 2.503 . S
O431 C419 1.256 . S
H432 C404 0.930 . S
H433 C405 0.930 . S
H434 C407 0.929 . S
H435 C408 0.929 . S
H436 C413 0.930 . S
H437 C414 0.930 . S
H438 C416 0.929 . S
H439 C417 0.929 . S
La440 C442 2.928 . S
La440 O460 2.521 . S
La440 O461 2.628 . S
La440 O462 2.554 . S
La440 O463 2.757 1_655 S
La440 O464 2.470 . S
La440 O469 2.482 . S
La440 O471 2.503 1_655 S
La441 C451 2.928 . S
La441 O463 2.482 . S
La441 O465 2.503 1_455 S
La441 O466 2.521 . S
La441 O467 2.628 . S
La441 O468 2.554 . S
La441 O469 2.757 1_455 S
La441 O470 2.470 . S
C442 La440 2.928 . S
C442 C443 1.503 . S
C442 O460 1.261 . S
C442 O461 1.243 . S
C443 C442 1.503 . S
C443 C444 1.394 . S
C443 C448 1.373 . S
C444 C443 1.394 . S
C444 C445 1.380 . S
C444 H472 0.930 . S
C445 C444 1.380 . S
C445 C446 1.376 . S
C445 H473 0.930 . S
C446 C445 1.376 . S
C446 C447 1.370 . S
C447 C446 1.370 . S
C447 C448 1.396 . S
C447 H474 0.929 . S
C448 C443 1.373 . S
C448 C447 1.396 . S
C448 H475 0.929 . S
C449 O462 1.264 . S
C449 O463 1.275 1_655 S
C450 O464 1.258 . S
C450 O465 1.256 . S
C451 La441 2.928 . S
C451 C452 1.503 . S
C451 O466 1.261 . S
C451 O467 1.243 . S
C452 C451 1.503 . S
C452 C453 1.394 . S
C452 C457 1.373 . S
C453 C452 1.394 . S
C453 C454 1.380 . S
C453 H476 0.930 . S
C454 C453 1.380 . S
C454 C455 1.376 . S
C454 H477 0.930 . S
C455 C454 1.376 . S
C455 C456 1.370 . S
C456 C455 1.370 . S
C456 C457 1.396 . S
C456 H478 0.929 . S
C457 C452 1.373 . S
C457 C456 1.396 . S
C457 H479 0.929 . S
C458 O468 1.271 . S
C458 O469 1.271 1_455 S
C459 O470 1.258 . S
C459 O471 1.256 . S
O460 La440 2.521 . S
O460 C442 1.261 . S
O461 La440 2.628 . S
O461 C442 1.243 . S
O462 La440 2.554 . S
O462 C449 1.264 . S
O463 La440 2.757 1_455 S
O463 La441 2.482 . S
O463 C449 1.275 1_455 S
O464 La440 2.470 . S
O464 C450 1.258 . S
O465 La441 2.503 1_655 S
O465 C450 1.256 . S
O466 La441 2.521 . S
O466 C451 1.261 . S
O467 La441 2.628 . S
O467 C451 1.243 . S
O468 La441 2.554 . S
O468 C458 1.271 . S
O469 La440 2.482 . S
O469 La441 2.757 1_655 S
O469 C458 1.271 1_655 S
O470 La441 2.470 . S
O470 C459 1.258 . S
O471 La440 2.503 1_455 S
O471 C459 1.256 . S
H472 C444 0.930 . S
H473 C445 0.930 . S
H474 C447 0.929 . S
H475 C448 0.929 . S
H476 C453 0.930 . S
H477 C454 0.930 . S
H478 C456 0.929 . S
H479 C457 0.929 . S
H480 C488 0.950 . S
H481 C493 0.950 . S
H482 C490 0.950 . S
H483 C492 0.950 . S
H484 C494 0.950 . S
H485 C496 0.950 . S
H486 C498 0.950 . S
H487 C499 0.950 . S
C488 H480 0.950 . S
C488 C489 1.411 . S
C488 C490 1.391 . S
C489 C488 1.411 . S
C489 C493 1.371 1_545 S
C490 H482 0.950 . S
C490 C488 1.391 . S
C490 C491 1.428 . S
C491 C490 1.428 . S
C491 C492 1.375 1_545 S
C491 C497 1.490 . S
C492 H483 0.950 . S
C492 C491 1.375 1_565 S
C492 C493 1.391 . S
C493 H481 0.950 . S
C493 C489 1.371 1_565 S
C493 C492 1.391 . S
C494 H484 0.950 . S
C494 C495 1.369 1_565 S
C494 C496 1.391 . S
C495 C494 1.369 1_545 S
C495 C499 1.409 . S
C496 H485 0.950 . S
C496 C494 1.391 . S
C496 C497 1.387 1_565 S
C497 C491 1.490 . S
C497 C496 1.387 1_545 S
C497 C498 1.412 . S
C498 H486 0.950 . S
C498 C497 1.412 . S
C498 C499 1.391 . S
C499 H487 0.950 . S
C499 C495 1.409 . S
C499 C498 1.391 . S
H500 C508 0.950 . S
H501 C513 0.950 . S
H502 C510 0.950 . S
H503 C512 0.950 . S
H504 C514 0.950 . S
H505 C516 0.950 . S
H506 C518 0.950 . S
H507 C519 0.950 . S
C508 H500 0.950 . S
C508 C509 1.386 . S
C508 C510 1.391 . S
C509 C508 1.386 . S
C509 C513 1.393 . S
C510 H502 0.950 . S
C510 C508 1.391 . S
C510 C511 1.400 . S
C511 C510 1.400 . S
C511 C512 1.398 . S
C511 C517 1.491 . S
C512 H503 0.950 . S
C512 C511 1.398 . S
C512 C513 1.391 . S
C513 H501 0.950 . S
C513 C509 1.393 . S
C513 C512 1.391 . S
C514 H504 0.950 . S
C514 C515 1.386 . S
C514 C516 1.391 . S
C515 C514 1.386 . S
C515 C519 1.393 . S
C516 H505 0.950 . S
C516 C514 1.391 . S
C516 C517 1.400 . S
C517 C511 1.491 . S
C517 C516 1.400 . S
C517 C518 1.398 . S
C518 H506 0.950 . S
C518 C517 1.398 . S
C518 C519 1.391 . S
C519 H507 0.950 . S
C519 C515 1.393 . S
C519 C518 1.391 . S
H520 C528 0.950 . S
H521 C533 0.950 . S
H522 C530 0.950 . S
H523 C532 0.950 . S
H524 C534 0.950 . S
H525 C536 0.950 . S
H526 C538 0.950 . S
H527 C539 0.950 . S
C528 H520 0.950 . S
C528 C529 1.386 . S
C528 C530 1.391 . S
C529 C528 1.386 . S
C529 C533 1.393 . S
C530 H522 0.950 . S
C530 C528 1.391 . S
C530 C531 1.400 . S
C531 C530 1.400 . S
C531 C532 1.398 . S
C531 C537 1.491 . S
C532 H523 0.950 . S
C532 C531 1.398 . S
C532 C533 1.391 . S
C533 H521 0.950 . S
C533 C529 1.393 . S
C533 C532 1.391 . S
C534 H524 0.950 . S
C534 C535 1.386 . S
C534 C536 1.391 . S
C535 C534 1.386 . S
C535 C539 1.393 . S
C536 H525 0.950 . S
C536 C534 1.391 . S
C536 C537 1.400 . S
C537 C531 1.491 . S
C537 C536 1.400 . S
C537 C538 1.398 . S
C538 H526 0.950 . S
C538 C537 1.398 . S
C538 C539 1.391 . S
C539 H527 0.950 . S
C539 C535 1.393 . S
C539 C538 1.391 . S
H540 C548 0.950 . S
H541 C553 0.950 . S
H542 C550 0.950 . S
H543 C552 0.950 . S
H544 C554 0.950 . S
H545 C556 0.950 . S
H546 C558 0.950 . S
H547 C559 0.950 . S
C548 H540 0.950 . S
C548 C549 1.382 1_655 S
C548 C550 1.391 . S
C549 C548 1.382 1_455 S
C549 C553 1.397 . S
C550 H542 0.950 . S
C550 C548 1.391 . S
C550 C551 1.373 1_655 S
C551 C550 1.373 1_455 S
C551 C552 1.425 . S
C551 C557 1.490 . S
C552 H543 0.950 . S
C552 C551 1.425 . S
C552 C553 1.391 . S
C553 H541 0.950 . S
C553 C549 1.397 . S
C553 C552 1.391 . S
C554 H544 0.950 . S
C554 C555 1.386 . S
C554 C556 1.391 . S
C555 C554 1.386 . S
C555 C559 1.393 1_455 S
C556 H545 0.950 . S
C556 C554 1.391 . S
C556 C557 1.449 . S
C557 C551 1.490 . S
C557 C556 1.449 . S
C557 C558 1.352 1_455 S
C558 H546 0.950 . S
C558 C557 1.352 1_655 S
C558 C559 1.391 . S
C559 H547 0.950 . S
C559 C555 1.393 1_655 S
C559 C558 1.391 . S
H560 C568 0.950 . S
H561 C573 0.950 . S
H562 C570 0.950 . S
H563 C572 0.950 . S
H564 C574 0.950 . S
H565 C576 0.950 . S
H566 C578 0.950 . S
H567 C579 0.950 . S
C568 H560 0.950 . S
C568 C569 1.373 1_565 S
C568 C570 1.391 . S
C569 C568 1.373 1_545 S
C569 C573 1.406 . S
C570 H562 0.950 . S
C570 C568 1.391 . S
C570 C571 1.407 . S
C571 C570 1.407 . S
C571 C572 1.392 1_565 S
C571 C577 1.490 1_554 S
C572 H563 0.950 . S
C572 C571 1.392 1_545 S
C572 C573 1.391 . S
C573 H561 0.950 . S
C573 C569 1.406 . S
C573 C572 1.391 . S
C574 H564 0.950 . S
C574 C575 1.386 1_545 S
C574 C576 1.391 . S
C575 C574 1.386 1_565 S
C575 C579 1.393 . S
C576 H565 0.950 . S
C576 C574 1.391 . S
C576 C577 1.363 1_545 S
C577 C571 1.490 1_556 S
C577 C576 1.363 1_565 S
C577 C578 1.439 . S
C578 H566 0.950 . S
C578 C577 1.439 . S
C578 C579 1.391 . S
C579 H567 0.950 . S
C579 C575 1.393 . S
C579 C578 1.391 . S
H580 C588 0.950 . S
H581 C593 0.950 . S
H582 C590 0.950 . S
H583 C592 0.950 . S
H584 C594 0.950 . S
H585 C596 0.950 . S
H586 C598 0.950 . S
H587 C599 0.950 . S
C588 H580 0.950 . S
C588 C589 1.386 . S
C588 C590 1.391 . S
C589 C588 1.386 . S
C589 C593 1.393 . S
C590 H582 0.950 . S
C590 C588 1.391 . S
C590 C591 1.400 . S
C591 C590 1.400 . S
C591 C592 1.398 . S
C591 C597 1.491 1_554 S
C592 H583 0.950 . S
C592 C591 1.398 . S
C592 C593 1.391 . S
C593 H581 0.950 . S
C593 C589 1.393 . S
C593 C592 1.391 . S
C594 H584 0.950 . S
C594 C595 1.386 . S
C594 C596 1.391 . S
C595 C594 1.386 . S
C595 C599 1.393 . S
C596 H585 0.950 . S
C596 C594 1.391 . S
C596 C597 1.400 . S
C597 C591 1.491 1_556 S
C597 C596 1.400 . S
C597 C598 1.398 . S
C598 H586 0.950 . S
C598 C597 1.398 . S
C598 C599 1.391 . S
C599 H587 0.950 . S
C599 C595 1.393 . S
C599 C598 1.391 . S
H600 C608 0.950 . S
H601 C613 0.950 . S
H602 C610 0.950 . S
H603 C612 0.950 . S
H604 C614 0.950 . S
H605 C616 0.950 . S
H606 C618 0.950 . S
H607 C619 0.950 . S
C608 H600 0.950 . S
C608 C609 1.386 . S
C608 C610 1.391 . S
C609 C608 1.386 . S
C609 C613 1.393 . S
C610 H602 0.950 . S
C610 C608 1.391 . S
C610 C611 1.400 . S
C611 C610 1.400 . S
C611 C612 1.398 . S
C611 C617 1.491 1_554 S
C612 H603 0.950 . S
C612 C611 1.398 . S
C612 C613 1.391 . S
C613 H601 0.950 . S
C613 C609 1.393 . S
C613 C612 1.391 . S
C614 H604 0.950 . S
C614 C615 1.386 . S
C614 C616 1.391 . S
C615 C614 1.386 . S
C615 C619 1.393 . S
C616 H605 0.950 . S
C616 C614 1.391 . S
C616 C617 1.400 . S
C617 C611 1.491 1_556 S
C617 C616 1.400 . S
C617 C618 1.398 . S
C618 H606 0.950 . S
C618 C617 1.398 . S
C618 C619 1.391 . S
C619 H607 0.950 . S
C619 C615 1.393 . S
C619 C618 1.391 . S
H620 C628 0.950 . S
H621 C633 0.950 . S
H622 C630 0.950 . S
H623 C632 0.950 . S
H624 C634 0.950 . S
H625 C636 0.950 . S
H626 C638 0.950 . S
H627 C639 0.950 . S
C628 H620 0.950 . S
C628 C629 1.386 1_455 S
C628 C630 1.391 . S
C629 C628 1.386 1_655 S
C629 C633 1.393 . S
C630 H622 0.950 . S
C630 C628 1.391 . S
C630 C631 1.400 1_455 S
C631 C630 1.400 1_655 S
C631 C632 1.398 . S
C631 C637 1.492 1_554 S
C632 H623 0.950 . S
C632 C631 1.398 . S
C632 C633 1.391 . S
C633 H621 0.950 . S
C633 C629 1.393 . S
C633 C632 1.391 . S
C634 H624 0.950 . S
C634 C635 1.390 . S
C634 C636 1.391 . S
C635 C634 1.390 . S
C635 C639 1.388 1_655 S
C636 H625 0.950 . S
C636 C634 1.391 . S
C636 C637 1.404 . S
C637 C631 1.492 1_556 S
C637 C636 1.404 . S
C637 C638 1.394 1_655 S
C638 H626 0.950 . S
C638 C637 1.394 1_455 S
C638 C639 1.391 . S
C639 H627 0.950 . S
C639 C635 1.388 1_455 S
C639 C638 1.391 . S
H640 C648 0.950 . S
H641 C653 0.950 . S
H642 C650 0.950 . S
H643 C652 0.950 . S
H644 C654 0.950 . S
H645 C656 0.950 1_455 S
H646 C658 0.950 . S
H647 C659 0.950 . S
C648 H640 0.950 . S
C648 C649 1.386 1_655 S
C648 C650 1.391 . S
C649 C648 1.386 1_455 S
C649 C653 1.393 . S
C650 H642 0.950 . S
C650 C648 1.391 . S
C650 C651 1.400 . S
C651 C650 1.400 . S
C651 C652 1.398 1_655 S
C651 C657 1.491 . S
C652 H643 0.950 . S
C652 C651 1.398 1_455 S
C652 C653 1.391 . S
C653 H641 0.950 . S
C653 C649 1.393 . S
C653 C652 1.391 . S
C654 H644 0.950 . S
C654 C655 1.386 . S
C654 C656 1.391 . S
C655 C654 1.386 . S
C655 C659 1.393 . S
C656 H645 0.950 1_655 S
C656 C654 1.391 . S
C656 C657 1.400 . S
C657 C651 1.491 . S
C657 C656 1.400 . S
C657 C658 1.398 . S
C658 H646 0.950 . S
C658 C657 1.398 . S
C658 C659 1.391 . S
C659 H647 0.950 . S
C659 C655 1.393 . S
C659 C658 1.391 . S
H660 C668 0.950 . S
H661 C673 0.950 . S
H662 C670 0.950 . S
H663 C672 0.950 . S
H664 C674 0.950 . S
H665 C676 0.950 . S
H666 C678 0.950 . S
H667 C679 0.950 . S
C668 H660 0.950 . S
C668 C669 1.386 . S
C668 C670 1.391 . S
C669 C668 1.386 . S
C669 C673 1.393 1_545 S
C670 H662 0.950 . S
C670 C668 1.391 . S
C670 C671 1.400 1_545 S
C671 C670 1.400 1_565 S
C671 C672 1.398 . S
C671 C677 1.491 . S
C672 H663 0.950 . S
C672 C671 1.398 . S
C672 C673 1.391 . S
C673 H661 0.950 . S
C673 C669 1.393 1_565 S
C673 C672 1.391 . S
C674 H664 0.950 . S
C674 C675 1.386 . S
C674 C676 1.391 . S
C675 C674 1.386 . S
C675 C679 1.393 . S
C676 H665 0.950 . S
C676 C674 1.391 . S
C676 C677 1.400 . S
C677 C671 1.491 . S
C677 C676 1.400 . S
C677 C678 1.398 . S
C678 H666 0.950 . S
C678 C677 1.398 . S
C678 C679 1.391 . S
C679 H667 0.950 . S
C679 C675 1.393 . S
C679 C678 1.391 . S
H680 C688 0.950 . S
H681 C693 0.950 . S
H682 C690 0.950 . S
H683 C692 0.950 . S
H684 C694 0.950 . S
H685 C696 0.950 . S
H686 C698 0.950 . S
H687 C699 0.950 . S
C688 H680 0.950 . S
C688 C689 1.386 . S
C688 C690 1.391 . S
C689 C688 1.386 . S
C689 C693 1.393 . S
C690 H682 0.950 . S
C690 C688 1.391 . S
C690 C691 1.400 . S
C691 C690 1.400 . S
C691 C692 1.398 . S
C691 C697 1.491 . S
C692 H683 0.950 . S
C692 C691 1.398 . S
C692 C693 1.391 . S
C693 H681 0.950 . S
C693 C689 1.393 . S
C693 C692 1.391 . S
C694 H684 0.950 . S
C694 C695 1.386 . S
C694 C696 1.391 . S
C695 C694 1.386 . S
C695 C699 1.393 . S
C696 H685 0.950 . S
C696 C694 1.391 . S
C696 C697 1.400 . S
C697 C691 1.491 . S
C697 C696 1.400 . S
C697 C698 1.398 . S
C698 H686 0.950 . S
C698 C697 1.398 . S
C698 C699 1.391 . S
C699 H687 0.950 . S
C699 C695 1.393 . S
C699 C698 1.391 . S
H700 C708 0.950 . S
H701 C713 0.950 . S
H702 C710 0.950 . S
H703 C712 0.950 . S
H704 C714 0.950 . S
H705 C716 0.950 . S
H706 C718 0.950 . S
H707 C719 0.950 . S
C708 H700 0.950 . S
C708 C709 1.386 . S
C708 C710 1.391 . S
C709 C708 1.386 . S
C709 C713 1.393 . S
C710 H702 0.950 . S
C710 C708 1.391 . S
C710 C711 1.400 . S
C711 C710 1.400 . S
C711 C712 1.398 . S
C711 C717 1.491 . S
C712 H703 0.950 . S
C712 C711 1.398 . S
C712 C713 1.391 . S
C713 H701 0.950 . S
C713 C709 1.393 . S
C713 C712 1.391 . S
C714 H704 0.950 . S
C714 C715 1.386 . S
C714 C716 1.391 . S
C715 C714 1.386 . S
C715 C719 1.393 . S
C716 H705 0.950 . S
C716 C714 1.391 . S
C716 C717 1.400 . S
C717 C711 1.491 . S
C717 C716 1.400 . S
C717 C718 1.398 . S
C718 H706 0.950 . S
C718 C717 1.398 . S
C718 C719 1.391 . S
C719 H707 0.950 . S
C719 C715 1.393 . S
C719 C718 1.391 . S
H720 C728 0.950 . S
H721 C733 0.950 . S
H722 C730 0.950 . S
H723 C732 0.950 . S
H724 C734 0.950 . S
H725 C736 0.950 . S
H726 C738 0.950 1_655 S
H727 C739 0.950 . S
C728 H720 0.950 . S
C728 C729 1.386 . S
C728 C730 1.391 . S
C729 C728 1.386 . S
C729 C733 1.393 1_655 S
C730 H722 0.950 . S
C730 C728 1.391 . S
C730 C731 1.400 1_655 S
C731 C730 1.400 1_455 S
C731 C732 1.398 . S
C731 C737 1.491 1_554 S
C732 H723 0.950 . S
C732 C731 1.398 . S
C732 C733 1.391 . S
C733 H721 0.950 . S
C733 C729 1.393 1_455 S
C733 C732 1.391 . S
C734 H724 0.950 . S
C734 C735 1.386 . S
C734 C736 1.391 . S
C735 C734 1.386 . S
C735 C739 1.393 . S
C736 H725 0.950 . S
C736 C734 1.391 . S
C736 C737 1.400 . S
C737 C731 1.491 1_556 S
C737 C736 1.400 . S
C737 C738 1.398 . S
C738 H726 0.950 1_455 S
C738 C737 1.398 . S
C738 C739 1.391 . S
C739 H727 0.950 . S
C739 C735 1.393 . S
C739 C738 1.391 . S
H740 C748 0.950 . S
H741 C753 0.950 . S
H742 C750 0.950 . S
H743 C752 0.950 . S
H744 C754 0.950 1_554 S
H745 C756 0.950 . S
H746 C758 0.950 . S
H747 C759 0.950 . S
C748 H740 0.950 . S
C748 C749 1.386 1_546 S
C748 C750 1.391 . S
C749 C748 1.386 1_564 S
C749 C753 1.393 . S
C750 H742 0.950 . S
C750 C748 1.391 . S
C750 C751 1.400 1_556 S
C751 C750 1.400 1_554 S
C751 C752 1.398 . S
C751 C757 1.491 1_554 S
C752 H743 0.950 . S
C752 C751 1.398 . S
C752 C753 1.391 1_545 S
C753 H741 0.950 . S
C753 C749 1.393 . S
C753 C752 1.391 1_565 S
C754 H744 0.950 1_556 S
C754 C755 1.386 . S
C754 C756 1.391 1_556 S
C755 C754 1.386 . S
C755 C759 1.393 . S
C756 H745 0.950 . S
C756 C754 1.391 1_554 S
C756 C757 1.400 1_554 S
C757 C751 1.491 1_556 S
C757 C756 1.400 1_556 S
C757 C758 1.398 . S
C758 H746 0.950 . S
C758 C757 1.398 . S
C758 C759 1.391 . S
C759 H747 0.950 . S
C759 C755 1.393 . S
C759 C758 1.391 . S
H760 C768 0.950 . S
H761 C773 0.950 . S
H762 C770 0.950 1_556 S
H763 C772 0.950 . S
H764 C774 0.950 . S
H765 C776 0.950 . S
H766 C778 0.950 . S
H767 C779 0.950 . S
C768 H760 0.950 . S
C768 C769 1.386 . S
C768 C770 1.391 . S
C769 C768 1.386 . S
C769 C773 1.393 . S
C770 H762 0.950 1_554 S
C770 C768 1.391 . S
C770 C771 1.400 . S
C771 C770 1.400 . S
C771 C772 1.398 . S
C771 C777 1.491 1_554 S
C772 H763 0.950 . S
C772 C771 1.398 . S
C772 C773 1.391 . S
C773 H761 0.950 . S
C773 C769 1.393 . S
C773 C772 1.391 . S
C774 H764 0.950 . S
C774 C775 1.386 . S
C774 C776 1.391 . S
C775 C774 1.386 . S
C775 C779 1.393 . S
C776 H765 0.950 . S
C776 C774 1.391 . S
C776 C777 1.400 . S
C777 C771 1.491 1_556 S
C777 C776 1.400 . S
C777 C778 1.398 . S
C778 H766 0.950 . S
C778 C777 1.398 . S
C778 C779 1.391 . S
C779 H767 0.950 . S
C779 C775 1.393 . S
C779 C778 1.391 . S
H780 C788 0.950 . S
H781 C793 0.956 . S
H782 C790 0.950 . S
H783 C792 0.950 . S
H784 C794 0.950 . S
H785 C796 0.950 . S
H786 C798 0.950 . S
H787 C799 0.950 1_554 S
C788 H780 0.950 . S
C788 C789 1.386 . S
C788 C790 1.391 . S
C789 C788 1.386 . S
C789 C793 1.382 1_554 S
C790 H782 0.950 . S
C790 C788 1.391 . S
C790 C791 1.400 . S
C791 C790 1.400 . S
C791 C792 1.398 1_554 S
C791 C797 1.491 1_554 S
C792 H783 0.950 . S
C792 C791 1.398 1_556 S
C792 C793 1.396 . S
C793 H781 0.956 . S
C793 C789 1.382 1_556 S
C793 C792 1.396 . S
C794 H784 0.950 . S
C794 C795 1.386 . S
C794 C796 1.391 . S
C795 C794 1.386 . S
C795 C799 1.393 . S
C796 H785 0.950 . S
C796 C794 1.391 . S
C796 C797 1.400 . S
C797 C791 1.491 1_556 S
C797 C796 1.400 . S
C797 C798 1.398 1_556 S
C798 H786 0.950 . S
C798 C797 1.398 1_554 S
C798 C799 1.391 1_554 S
C799 H787 0.950 1_556 S
C799 C795 1.393 . S
C799 C798 1.391 1_556 S
H800 C808 0.950 . S
H801 C813 0.950 . S
H802 C810 0.950 . S
H803 C812 0.950 . S
H804 C814 0.950 . S
H805 C816 0.950 . S
H806 C818 0.950 . S
H807 C819 0.950 . S
C808 H800 0.950 . S
C808 C809 1.386 1_655 S
C808 C810 1.391 . S
C809 C808 1.386 1_455 S
C809 C813 1.393 . S
C810 H802 0.950 . S
C810 C808 1.391 . S
C810 C811 1.400 1_655 S
C811 C810 1.400 1_455 S
C811 C812 1.398 . S
C811 C817 1.491 . S
C812 H803 0.950 . S
C812 C811 1.398 . S
C812 C813 1.391 . S
C813 H801 0.950 . S
C813 C809 1.393 . S
C813 C812 1.391 . S
C814 H804 0.950 . S
C814 C815 1.386 . S
C814 C816 1.391 . S
C815 C814 1.386 . S
C815 C819 1.393 1_455 S
C816 H805 0.950 . S
C816 C814 1.391 . S
C816 C817 1.400 . S
C817 C811 1.491 . S
C817 C816 1.400 . S
C817 C818 1.398 1_455 S
C818 H806 0.950 . S
C818 C817 1.398 1_655 S
C818 C819 1.391 . S
C819 H807 0.950 . S
C819 C815 1.393 1_655 S
C819 C818 1.391 . S
H820 C828 0.950 . S
H821 C833 0.950 . S
H822 C830 0.950 . S
H823 C832 0.950 . S
H824 C834 0.950 . S
H825 C836 0.950 . S
H826 C838 0.950 . S
H827 C839 0.950 . S
C828 H820 0.950 . S
C828 C829 1.386 . S
C828 C830 1.391 . S
C829 C828 1.386 . S
C829 C833 1.393 1_545 S
C830 H822 0.950 . S
C830 C828 1.391 . S
C830 C831 1.400 . S
C831 C830 1.400 . S
C831 C832 1.398 1_545 S
C831 C837 1.491 . S
C832 H823 0.950 . S
C832 C831 1.398 1_565 S
C832 C833 1.391 . S
C833 H821 0.950 . S
C833 C829 1.393 1_565 S
C833 C832 1.391 . S
C834 H824 0.950 . S
C834 C835 1.386 1_565 S
C834 C836 1.391 . S
C835 C834 1.386 1_545 S
C835 C839 1.393 . S
C836 H825 0.950 . S
C836 C834 1.391 . S
C836 C837 1.400 1_565 S
C837 C831 1.491 . S
C837 C836 1.400 1_545 S
C837 C838 1.398 . S
C838 H826 0.950 . S
C838 C837 1.398 . S
C838 C839 1.391 . S
C839 H827 0.950 . S
C839 C835 1.393 . S
C839 C838 1.391 . S
H840 C848 0.950 . S
H841 C853 0.950 . S
H842 C850 0.950 . S
H843 C852 0.950 . S
H844 C854 0.950 . S
H845 C856 0.950 . S
H846 C858 0.950 . S
H847 C859 0.950 . S
C848 H840 0.950 . S
C848 C849 1.386 . S
C848 C850 1.391 . S
C849 C848 1.386 . S
C849 C853 1.393 . S
C850 H842 0.950 . S
C850 C848 1.391 . S
C850 C851 1.400 . S
C851 C850 1.400 . S
C851 C852 1.398 . S
C851 C857 1.491 . S
C852 H843 0.950 . S
C852 C851 1.398 . S
C852 C853 1.391 . S
C853 H841 0.950 . S
C853 C849 1.393 . S
C853 C852 1.391 . S
C854 H844 0.950 . S
C854 C855 1.386 . S
C854 C856 1.391 . S
C855 C854 1.386 . S
C855 C859 1.393 . S
C856 H845 0.950 . S
C856 C854 1.391 . S
C856 C857 1.400 . S
C857 C851 1.491 . S
C857 C856 1.400 . S
C857 C858 1.398 . S
C858 H846 0.950 . S
C858 C857 1.398 . S
C858 C859 1.391 . S
C859 H847 0.950 . S
C859 C855 1.393 . S
C859 C858 1.391 . S
H860 C868 0.950 . S
H861 C873 0.950 . S
H862 C870 0.950 . S
H863 C872 0.950 . S
H864 C874 0.950 . S
H865 C876 0.950 . S
H866 C878 0.950 . S
H867 C879 0.950 . S
C868 H860 0.950 . S
C868 C869 1.386 . S
C868 C870 1.391 . S
C869 C868 1.386 . S
C869 C873 1.393 . S
C870 H862 0.950 . S
C870 C868 1.391 . S
C870 C871 1.400 . S
C871 C870 1.400 . S
C871 C872 1.398 . S
C871 C877 1.491 . S
C872 H863 0.950 . S
C872 C871 1.398 . S
C872 C873 1.391 . S
C873 H861 0.950 . S
C873 C869 1.393 . S
C873 C872 1.391 . S
C874 H864 0.950 . S
C874 C875 1.386 . S
C874 C876 1.391 . S
C875 C874 1.386 . S
C875 C879 1.393 . S
C876 H865 0.950 . S
C876 C874 1.391 . S
C876 C877 1.400 . S
C877 C871 1.491 . S
C877 C876 1.400 . S
C877 C878 1.398 . S
C878 H866 0.950 . S
C878 C877 1.398 . S
C878 C879 1.391 . S
C879 H867 0.950 . S
C879 C875 1.393 . S
C879 C878 1.391 . S
H880 C888 0.950 . S
H881 C893 0.950 . S
H882 C890 0.950 . S
H883 C892 0.950 . S
H884 C894 0.950 . S
H885 C896 0.950 . S
H886 C898 0.950 . S
H887 C899 0.950 . S
C888 H880 0.950 . S
C888 C889 1.386 . S
C888 C890 1.391 . S
C889 C888 1.386 . S
C889 C893 1.393 1_655 S
C890 H882 0.950 . S
C890 C888 1.391 . S
C890 C891 1.400 . S
C891 C890 1.400 . S
C891 C892 1.398 1_655 S
C891 C897 1.491 . S
C892 H883 0.950 . S
C892 C891 1.398 1_455 S
C892 C893 1.391 . S
C893 H881 0.950 . S
C893 C889 1.393 1_455 S
C893 C892 1.391 . S
C894 H884 0.950 . S
C894 C895 1.386 1_455 S
C894 C896 1.391 . S
C895 C894 1.386 1_655 S
C895 C899 1.393 . S
C896 H885 0.950 . S
C896 C894 1.391 . S
C896 C897 1.400 1_455 S
C897 C891 1.491 . S
C897 C896 1.400 1_655 S
C897 C898 1.398 . S
C898 H886 0.950 . S
C898 C897 1.398 . S
C898 C899 1.391 . S
C899 H887 0.950 . S
C899 C895 1.393 . S
C899 C898 1.391 . S
H900 C908 0.950 . S
H901 C913 0.950 . S
H902 C910 0.950 . S
H903 C912 0.950 . S
H904 C914 0.950 . S
H905 C916 0.950 . S
H906 C918 0.950 . S
H907 C919 0.950 . S
C908 H900 0.950 . S
C908 C909 1.386 . S
C908 C910 1.391 . S
C909 C908 1.386 . S
C909 C913 1.393 1_565 S
C910 H902 0.950 . S
C910 C908 1.391 . S
C910 C911 1.400 . S
C911 C910 1.400 . S
C911 C912 1.398 1_565 S
C911 C917 1.491 . S
C912 H903 0.950 . S
C912 C911 1.398 1_545 S
C912 C913 1.391 . S
C913 H901 0.950 . S
C913 C909 1.393 1_545 S
C913 C912 1.391 . S
C914 H904 0.950 . S
C914 C915 1.386 1_545 S
C914 C916 1.391 . S
C915 C914 1.386 1_565 S
C915 C919 1.393 . S
C916 H905 0.950 . S
C916 C914 1.391 . S
C916 C917 1.400 1_545 S
C917 C911 1.491 . S
C917 C916 1.400 1_565 S
C917 C918 1.398 . S
C918 H906 0.950 . S
C918 C917 1.398 . S
C918 C919 1.391 . S
C919 H907 0.950 . S
C919 C915 1.393 . S
C919 C918 1.391 . S
H920 C928 0.950 . S
H921 C933 0.950 . S
H922 C930 0.950 . S
H923 C932 0.950 . S
H924 C934 0.950 . S
H925 C936 0.950 . S
H926 C938 0.950 . S
H927 C939 0.950 . S
C928 H920 0.950 . S
C928 C929 1.386 . S
C928 C930 1.391 . S
C929 C928 1.386 . S
C929 C933 1.393 . S
C930 H922 0.950 . S
C930 C928 1.391 . S
C930 C931 1.400 . S
C931 C930 1.400 . S
C931 C932 1.398 . S
C931 C937 1.491 . S
C932 H923 0.950 . S
C932 C931 1.398 . S
C932 C933 1.391 . S
C933 H921 0.950 . S
C933 C929 1.393 . S
C933 C932 1.391 . S
C934 H924 0.950 . S
C934 C935 1.386 . S
C934 C936 1.391 . S
C935 C934 1.386 . S
C935 C939 1.393 . S
C936 H925 0.950 . S
C936 C934 1.391 . S
C936 C937 1.400 . S
C937 C931 1.491 . S
C937 C936 1.400 . S
C937 C938 1.398 . S
C938 H926 0.950 . S
C938 C937 1.398 . S
C938 C939 1.391 . S
C939 H927 0.950 . S
C939 C935 1.393 . S
C939 C938 1.391 . S
H940 C948 0.950 . S
H941 C953 0.950 . S
H942 C950 0.950 . S
H943 C952 0.950 . S
H944 C954 0.950 . S
H945 C956 0.950 . S
H946 C958 0.950 . S
H947 C959 0.950 . S
C948 H940 0.950 . S
C948 C949 1.386 . S
C948 C950 1.391 . S
C949 C948 1.386 . S
C949 C953 1.393 . S
C950 H942 0.950 . S
C950 C948 1.391 . S
C950 C951 1.400 . S
C951 C950 1.400 . S
C951 C952 1.398 . S
C951 C957 1.491 . S
C952 H943 0.950 . S
C952 C951 1.398 . S
C952 C953 1.391 . S
C953 H941 0.950 . S
C953 C949 1.393 . S
C953 C952 1.391 . S
C954 H944 0.950 . S
C954 C955 1.386 . S
C954 C956 1.391 . S
C955 C954 1.386 . S
C955 C959 1.393 . S
C956 H945 0.950 . S
C956 C954 1.391 . S
C956 C957 1.400 . S
C957 C951 1.491 . S
C957 C956 1.400 . S
C957 C958 1.398 . S
C958 H946 0.950 . S
C958 C957 1.398 . S
C958 C959 1.391 . S
C959 H947 0.950 . S
C959 C955 1.393 . S
C959 C958 1.391 . S
C489 C255 2.247 . S
C495 C329 2.433 1_545 S
C515 C369 2.441 . S
C509 C295 2.231 . S
C535 C409 2.443 . S
C529 C175 2.242 . S
C555 C449 2.436 1_455 S
C549 C215 2.228 . S
C575 C338 2.440 1_565 S
C569 C95 2.234 . S
C589 C135 2.250 . S
C595 C378 2.446 . S
C609 C15 2.252 . S
C615 C418 2.443 . S
C629 C55 2.240 1_655 S
C635 C458 2.434 1_655 S
C655 C335 0.449 . S
C649 C221 0.371 . S
C675 C375 0.468 . S
C669 C261 0.436 . S
C695 C415 0.457 . S
C689 C301 0.440 . S
C709 C181 0.366 . S
C715 C455 0.411 . S
C729 C61 0.474 1_655 S
C735 C326 0.414 . S
C755 C366 0.476 . S
C749 C101 0.545 1_565 S
C775 C406 0.424 . S
C769 C141 0.479 . S
C789 C21 0.514 . S
C795 C446 0.420 . S
C809 C202 3.139 . S
C815 C339 3.470 . S
C829 C242 3.120 . S
C835 C379 3.476 . S
C855 C419 3.474 . S
C849 C282 3.136 . S
C875 C459 3.480 . S
C869 C162 3.134 . S
C889 C42 3.159 1_655 S
C895 C330 3.486 . S
C915 C370 3.474 . S
C909 C82 3.154 1_565 S
C935 C410 3.469 . S
C929 C122 3.148 . S
C949 C2 3.148 . S
C955 C450 3.487 . S
