# Generated by pormake.
# Topology ocu, (6,8)-cn, num edge types: 1
# Building blocks:
#     Node 0, Type 0, BuildingBlock: BETDEL_clean_sbu_0, # of connection points: 6
#     Node 1, Type 0, BuildingBlock: BETDEL_clean_sbu_0, # of connection points: 6
#     Node 2, Type 0, BuildingBlock: BETDEL_clean_sbu_0, # of connection points: 6
#     Node 3, Type 0, BuildingBlock: BETDEL_clean_sbu_0, # of connection points: 6
#     Node 4, Type 0, BuildingBlock: BETDEL_clean_sbu_0, # of connection points: 6
#     Node 5, Type 0, BuildingBlock: BETDEL_clean_sbu_0, # of connection points: 6
#     Node 6, Type 0, BuildingBlock: BETDEL_clean_sbu_0, # of connection points: 6
#     Node 7, Type 0, BuildingBlock: BETDEL_clean_sbu_0, # of connection points: 6
#     Node 8, Type 1, BuildingBlock: VETTIZ_charged_sbu_0, # of connection points: 8
#     Node 9, Type 1, BuildingBlock: VETTIZ_charged_sbu_0, # of connection points: 8
#     Node 10, Type 1, BuildingBlock: VETTIZ_charged_sbu_0, # of connection points: 8
#     Node 11, Type 1, BuildingBlock: VETTIZ_charged_sbu_0, # of connection points: 8
#     Node 12, Type 1, BuildingBlock: VETTIZ_charged_sbu_0, # of connection points: 8
#     Node 13, Type 1, BuildingBlock: VETTIZ_charged_sbu_0, # of connection points: 8
#     Edge 14, Type (0, 1), BuildingBlock: EZIPEK_clean_linker_0, # of connection points: 2
#     Edge 15, Type (0, 1), BuildingBlock: EZIPEK_clean_linker_0, # of connection points: 2
#     Edge 16, Type (0, 1), BuildingBlock: EZIPEK_clean_linker_0, # of connection points: 2
#     Edge 17, Type (0, 1), BuildingBlock: EZIPEK_clean_linker_0, # of connection points: 2
#     Edge 18, Type (0, 1), BuildingBlock: EZIPEK_clean_linker_0, # of connection points: 2
#     Edge 19, Type (0, 1), BuildingBlock: EZIPEK_clean_linker_0, # of connection points: 2
#     Edge 20, Type (0, 1), BuildingBlock: EZIPEK_clean_linker_0, # of connection points: 2
#     Edge 21, Type (0, 1), BuildingBlock: EZIPEK_clean_linker_0, # of connection points: 2
#     Edge 22, Type (0, 1), BuildingBlock: EZIPEK_clean_linker_0, # of connection points: 2
#     Edge 23, Type (0, 1), BuildingBlock: EZIPEK_clean_linker_0, # of connection points: 2
#     Edge 24, Type (0, 1), BuildingBlock: EZIPEK_clean_linker_0, # of connection points: 2
#     Edge 25, Type (0, 1), BuildingBlock: EZIPEK_clean_linker_0, # of connection points: 2
#     Edge 26, Type (0, 1), BuildingBlock: EZIPEK_clean_linker_0, # of connection points: 2
#     Edge 27, Type (0, 1), BuildingBlock: EZIPEK_clean_linker_0, # of connection points: 2
#     Edge 28, Type (0, 1), BuildingBlock: EZIPEK_clean_linker_0, # of connection points: 2
#     Edge 29, Type (0, 1), BuildingBlock: EZIPEK_clean_linker_0, # of connection points: 2
#     Edge 30, Type (0, 1), BuildingBlock: EZIPEK_clean_linker_0, # of connection points: 2
#     Edge 31, Type (0, 1), BuildingBlock: EZIPEK_clean_linker_0, # of connection points: 2
#     Edge 32, Type (0, 1), BuildingBlock: EZIPEK_clean_linker_0, # of connection points: 2
#     Edge 33, Type (0, 1), BuildingBlock: EZIPEK_clean_linker_0, # of connection points: 2
#     Edge 34, Type (0, 1), BuildingBlock: EZIPEK_clean_linker_0, # of connection points: 2
#     Edge 35, Type (0, 1), BuildingBlock: EZIPEK_clean_linker_0, # of connection points: 2
#     Edge 36, Type (0, 1), BuildingBlock: EZIPEK_clean_linker_0, # of connection points: 2
#     Edge 37, Type (0, 1), BuildingBlock: EZIPEK_clean_linker_0, # of connection points: 2
#     Edge 38, Type (0, 1), BuildingBlock: EZIPEK_clean_linker_0, # of connection points: 2
#     Edge 39, Type (0, 1), BuildingBlock: EZIPEK_clean_linker_0, # of connection points: 2
#     Edge 40, Type (0, 1), BuildingBlock: EZIPEK_clean_linker_0, # of connection points: 2
#     Edge 41, Type (0, 1), BuildingBlock: EZIPEK_clean_linker_0, # of connection points: 2
#     Edge 42, Type (0, 1), BuildingBlock: EZIPEK_clean_linker_0, # of connection points: 2
#     Edge 43, Type (0, 1), BuildingBlock: EZIPEK_clean_linker_0, # of connection points: 2
#     Edge 44, Type (0, 1), BuildingBlock: EZIPEK_clean_linker_0, # of connection points: 2
#     Edge 45, Type (0, 1), BuildingBlock: EZIPEK_clean_linker_0, # of connection points: 2
#     Edge 46, Type (0, 1), BuildingBlock: EZIPEK_clean_linker_0, # of connection points: 2
#     Edge 47, Type (0, 1), BuildingBlock: EZIPEK_clean_linker_0, # of connection points: 2
#     Edge 48, Type (0, 1), BuildingBlock: EZIPEK_clean_linker_0, # of connection points: 2
#     Edge 49, Type (0, 1), BuildingBlock: EZIPEK_clean_linker_0, # of connection points: 2
#     Edge 50, Type (0, 1), BuildingBlock: EZIPEK_clean_linker_0, # of connection points: 2
#     Edge 51, Type (0, 1), BuildingBlock: EZIPEK_clean_linker_0, # of connection points: 2
#     Edge 52, Type (0, 1), BuildingBlock: EZIPEK_clean_linker_0, # of connection points: 2
#     Edge 53, Type (0, 1), BuildingBlock: EZIPEK_clean_linker_0, # of connection points: 2
#     Edge 54, Type (0, 1), BuildingBlock: EZIPEK_clean_linker_0, # of connection points: 2
#     Edge 55, Type (0, 1), BuildingBlock: EZIPEK_clean_linker_0, # of connection points: 2
#     Edge 56, Type (0, 1), BuildingBlock: EZIPEK_clean_linker_0, # of connection points: 2
#     Edge 57, Type (0, 1), BuildingBlock: EZIPEK_clean_linker_0, # of connection points: 2
#     Edge 58, Type (0, 1), BuildingBlock: EZIPEK_clean_linker_0, # of connection points: 2
#     Edge 59, Type (0, 1), BuildingBlock: EZIPEK_clean_linker_0, # of connection points: 2
#     Edge 60, Type (0, 1), BuildingBlock: EZIPEK_clean_linker_0, # of connection points: 2
#     Edge 61, Type (0, 1), BuildingBlock: EZIPEK_clean_linker_0, # of connection points: 2
# Relax obj value: 0.094
# Max RMSD: 0.226
# Mean RMSD: 0.136
data_MOF--net-ocu--node1-BETDEL_clean_sbu_0--node2-VETTIZ_charged_sbu_0--edge1-EZIPEK_clean_linker_0
_symmetry_space_group_name_H-M    P1
_symmetry_Int_Tables_number       1
_symmetry_cell_setting            triclinic
loop_
_symmetry_equiv_pos_as_xyz
'x, y, z'
_cell_length_a     27.857858
_cell_length_b     29.356876
_cell_length_c     28.186287
_cell_angle_alpha  91.280919
_cell_angle_beta   90.590103
_cell_angle_gamma 96.834145
loop_
_atom_site_label
_atom_site_type_symbol
_atom_site_fract_x
_atom_site_fract_y
_atom_site_fract_z
_atom_type_partial_charge
Dy0 Dy 0.30794 0.25525 0.30448 0.0
C1 C 0.1808 0.27843 0.1516 0.0
C2 C 0.34025 0.21902 0.38364 0.0
Dy3 Dy 0.23546 0.25094 0.22209 0.0
O4 O 0.31559 0.19599 0.34977 0.0
O5 O 0.34904 0.26222 0.37319 0.0
O6 O 0.36773 0.3074 0.27997 0.0
O7 O 0.30571 0.28778 0.23763 0.0
C8 C 0.34625 0.31228 0.23939 0.0
C9 C 0.21553 0.18787 0.28827 0.0
O10 O 0.29098 0.21098 0.18553 0.0
O11 O 0.33918 0.20385 0.25185 0.0
O12 O 0.17095 0.23988 0.1731 0.0
O13 O 0.22065 0.30101 0.16761 0.0
O14 O 0.20555 0.1796 0.24342 0.0
O15 O 0.23277 0.2292 0.2944 0.0
O16 O 0.25855 0.30602 0.33555 0.0
O17 O 0.20277 0.30164 0.27341 0.0
C18 C 0.32881 0.19442 0.20561 0.0
C19 C 0.21765 0.31816 0.31667 0.0
Dy20 Dy 0.81923 0.21151 0.25791 0.0
C21 C 0.68856 0.33298 0.20681 0.0
C22 C 0.88437 0.15671 0.28876 0.0
Dy23 Dy 0.74857 0.28497 0.25676 0.0
O24 O 0.86832 0.1568 0.24532 0.0
O25 O 0.86463 0.18585 0.31508 0.0
O26 O 0.78895 0.18274 0.18745 0.0
O27 O 0.74515 0.21378 0.23501 0.0
C28 C 0.74703 0.19703 0.19385 0.0
C29 C 0.81651 0.29663 0.32522 0.0
O30 O 0.70708 0.23532 0.30409 0.0
O31 O 0.76753 0.18879 0.31674 0.0
O32 O 0.70296 0.34326 0.25045 0.0
O33 O 0.70508 0.2958 0.19203 0.0
O34 O 0.77471 0.31265 0.32849 0.0
O35 O 0.8214 0.28192 0.28332 0.0
O36 O 0.8631 0.26302 0.21316 0.0
O37 O 0.80501 0.31304 0.20563 0.0
C38 C 0.72518 0.20263 0.32809 0.0
C39 C 0.84729 0.29972 0.19489 0.0
Dy40 Dy 0.74775 0.76608 0.29289 0.0
C41 C 0.84613 0.6999 0.14924 0.0
C42 C 0.69544 0.81874 0.34638 0.0
Dy43 Dy 0.81097 0.75051 0.21849 0.0
O44 O 0.71537 0.82991 0.3068 0.0
O45 O 0.70441 0.77803 0.3583 0.0
O46 O 0.70778 0.69519 0.28978 0.0
O47 O 0.73402 0.72571 0.22743 0.0
C48 C 0.71293 0.68924 0.24447 0.0
C49 C 0.85624 0.80809 0.286 0.0
O50 O 0.7693 0.79837 0.17605 0.0
O51 O 0.71179 0.8019 0.23392 0.0
O52 O 0.86012 0.74363 0.15663 0.0
O53 O 0.81252 0.68588 0.17878 0.0
O54 O 0.87782 0.77969 0.26036 0.0
O55 O 0.81342 0.80745 0.27071 0.0
O56 O 0.80118 0.73042 0.33661 0.0
O57 O 0.8324 0.69935 0.27093 0.0
C58 C 0.72818 0.81249 0.19099 0.0
C59 C 0.82953 0.70189 0.31765 0.0
Dy60 Dy 0.29887 0.7173 0.24455 0.0
C61 C 0.17913 0.83505 0.3245 0.0
C62 C 0.33817 0.65914 0.18738 0.0
Dy63 Dy 0.23495 0.78928 0.26796 0.0
O64 O 0.36043 0.68017 0.22381 0.0
O65 O 0.29408 0.66842 0.18321 0.0
O66 O 0.33193 0.72093 0.31712 0.0
O67 O 0.30834 0.77935 0.28676 0.0
C68 C 0.32553 0.76388 0.3239 0.0
C69 C 0.20838 0.74048 0.19026 0.0
O70 O 0.28629 0.83454 0.22366 0.0
O71 O 0.33205 0.77658 0.20181 0.0
O72 O 0.16352 0.80172 0.29555 0.0
O73 O 0.22491 0.84749 0.31791 0.0
O74 O 0.20159 0.78348 0.1951 0.0
O75 O 0.22498 0.72627 0.22808 0.0
O76 O 0.25154 0.67253 0.29055 0.0
O77 O 0.21237 0.73239 0.3193 0.0
C78 C 0.32273 0.81981 0.20002 0.0
C79 C 0.21966 0.68849 0.31872 0.0
Dy80 Dy 0.30452 0.72897 0.76129 0.0
C81 C 0.1712 0.86195 0.74209 0.0
C82 C 0.3654 0.67965 0.80878 0.0
Dy83 Dy 0.23276 0.79996 0.76406 0.0
O84 O 0.35697 0.67604 0.763 0.0
O85 O 0.34216 0.71112 0.82739 0.0
O86 O 0.27765 0.70049 0.68968 0.0
O87 O 0.23085 0.73039 0.73469 0.0
C88 C 0.23532 0.71542 0.6928 0.0
C89 C 0.30364 0.81258 0.82923 0.0
O90 O 0.19003 0.74701 0.80738 0.0
O91 O 0.2501 0.69913 0.81381 0.0
O92 O 0.21756 0.86801 0.73722 0.0
O93 O 0.15845 0.82214 0.75995 0.0
O94 O 0.26096 0.82476 0.8364 0.0
O95 O 0.3066 0.79874 0.7872 0.0
O96 O 0.34469 0.78351 0.71783 0.0
O97 O 0.27505 0.81494 0.69704 0.0
C98 C 0.20677 0.71033 0.82442 0.0
C99 C 0.32178 0.81134 0.69153 0.0
Dy100 Dy 0.23955 0.261 0.78643 0.0
C101 C 0.33989 0.18051 0.65456 0.0
C102 C 0.18873 0.31459 0.84116 0.0
Dy103 Dy 0.30171 0.2406 0.71056 0.0
O104 O 0.1758 0.27133 0.8317 0.0
O105 O 0.23083 0.32736 0.82381 0.0
O106 O 0.19915 0.18923 0.78031 0.0
O107 O 0.22471 0.22335 0.7195 0.0
C108 C 0.20393 0.18606 0.73452 0.0
C109 C 0.33874 0.31646 0.75652 0.0
O110 O 0.25734 0.28243 0.66439 0.0
O111 O 0.2164 0.30724 0.72863 0.0
O112 O 0.35879 0.22285 0.6613 0.0
O113 O 0.29893 0.17221 0.67541 0.0
O114 O 0.34374 0.31004 0.71103 0.0
O115 O 0.31696 0.28105 0.77547 0.0
O116 O 0.28825 0.22446 0.83418 0.0
O117 O 0.3314 0.20006 0.77125 0.0
C118 C 0.22624 0.30863 0.68275 0.0
C119 C 0.32231 0.20036 0.81761 0.0
Dy120 Dy 0.81447 0.21144 0.74157 0.0
C121 C 0.70997 0.34159 0.82106 0.0
C122 C 0.88195 0.16336 0.70324 0.0
Dy123 Dy 0.75012 0.28023 0.76927 0.0
O124 O 0.89064 0.19985 0.72938 0.0
O125 O 0.83588 0.15035 0.70107 0.0
O126 O 0.87735 0.25096 0.7792 0.0
O127 O 0.80785 0.25244 0.80564 0.0
C128 C 0.85131 0.26975 0.80957 0.0
C129 C 0.71111 0.22474 0.69966 0.0
O130 O 0.80768 0.32574 0.73309 0.0
O131 O 0.8235 0.26581 0.68545 0.0
O132 O 0.7084 0.34032 0.77489 0.0
O133 O 0.73464 0.31121 0.83847 0.0
O134 O 0.6862 0.24478 0.73074 0.0
O135 O 0.75577 0.23934 0.70343 0.0
O136 O 0.76407 0.16541 0.78772 0.0
O137 O 0.71508 0.22112 0.8085 0.0
C138 C 0.8287 0.31042 0.6953 0.0
C139 C 0.72622 0.17877 0.81032 0.0
Dy140 Dy 0.81265 0.76465 0.79629 0.0
C141 C 0.69181 0.7843 0.64003 0.0
C142 C 0.86779 0.74342 0.87103 0.0
Dy143 Dy 0.73822 0.75722 0.71672 0.0
O144 O 0.88435 0.7621 0.83229 0.0
O145 O 0.82098 0.73631 0.86832 0.0
O146 O 0.84197 0.83513 0.77309 0.0
O147 O 0.81369 0.78502 0.72294 0.0
C148 C 0.83184 0.82626 0.72834 0.0
C149 C 0.70388 0.69851 0.78233 0.0
O150 O 0.78819 0.70761 0.68459 0.0
O151 O 0.84126 0.70892 0.74836 0.0
O152 O 0.69311 0.74163 0.65086 0.0
O153 O 0.71652 0.81169 0.67057 0.0
O154 O 0.6814 0.70342 0.74251 0.0
O155 O 0.74341 0.72455 0.7838 0.0
O156 O 0.76166 0.81111 0.83102 0.0
O157 O 0.70783 0.81032 0.7678 0.0
C158 C 0.82738 0.69314 0.70461 0.0
C159 C 0.72149 0.82425 0.81216 0.0
Fe160 Fe 0.04473 0.0513 0.4994 0.0
O161 O 0.99048 0.00744 0.5239 0.0
Fe162 Fe 0.14464 0.99385 0.50952 0.0
Fe163 Fe 0.92191 0.00634 0.50463 0.0
O164 O 0.07763 0.99599 0.48726 0.0
O165 O 0.07618 0.99129 0.48779 0.0
O166 O 0.98892 0.00367 0.52266 0.0
Fe167 Fe 1.02325 0.94869 0.51725 0.0
C168 C 0.96541 0.0986 0.54569 0.0
O169 O 1.01444 0.0456 0.43187 0.0
O170 O 0.93661 0.04846 0.44833 0.0
O171 O 0.0659 0.89604 0.50726 0.0
O172 O 0.13591 0.93173 0.47462 0.0
O173 O 0.15855 0.03668 0.45282 0.0
O174 O 0.1046 0.08907 0.46794 0.0
O175 O 0.91835 0.95018 0.45899 0.0
O176 O 0.99288 0.92978 0.45137 0.0
C177 C 0.14065 0.07483 0.44472 0.0
O178 O 0.0509 0.96469 0.58351 0.0
O179 O 0.12753 0.95606 0.56963 0.0
O180 O 1.00313 0.10309 0.5185 0.0
O181 O 0.93148 0.06426 0.54583 0.0
C182 C 0.97238 0.05495 0.42067 0.0
C183 C 0.94875 0.92762 0.43806 0.0
C184 C 0.92697 0.9247 0.57115 0.0
O185 O 0.9079 0.96105 0.55929 0.0
O186 O 0.96544 0.91154 0.55194 0.0
C187 C 0.10503 0.89611 0.48286 0.0
O188 O 0.15169 0.05441 0.54954 0.0
O189 O 0.0762 0.061 0.56724 0.0
C190 C 0.09156 0.95507 0.59733 0.0
C191 C 0.12113 0.06872 0.57741 0.0
Fe192 Fe 0.52535 0.9526 0.01118 0.0
O193 O 0.56648 0.00945 0.03299 0.0
Fe194 Fe 0.41211 0.999 0.99525 0.0
Fe195 Fe 0.63631 0.0169 0.02508 0.0
O196 O 0.48391 0.9997 0.98456 0.0
O197 O 0.48182 0.0062 0.98738 0.0
O198 O 0.56447 0.0162 0.03536 0.0
Fe199 Fe 0.52369 0.06327 0.00736 0.0
C200 C 0.61292 0.92583 0.07435 0.0
O201 O 0.5658 0.94463 0.94687 0.0
O202 O 0.63937 0.96131 0.97727 0.0
O203 O 0.47384 0.10266 0.96963 0.0
O204 O 0.41368 0.04726 0.94239 0.0
O205 O 0.41326 0.94091 0.95259 0.0
O206 O 0.47364 0.90091 0.98308 0.0
O207 O 0.63695 0.06101 0.96939 0.0
O208 O 0.56058 0.06048 0.94386 0.0
C209 C 0.43525 0.90449 0.95711 0.0
O210 O 0.4849 0.07386 0.07148 0.0
O211 O 0.41024 0.05511 0.04401 0.0
O212 O 0.57469 0.91277 0.04726 0.0
O213 O 0.63438 0.96766 0.07676 0.0
C214 C 0.61167 0.9409 0.94517 0.0
C215 C 0.60606 0.0685 0.9378 0.0
C216 C 0.614 0.11116 0.06266 0.0
O217 O 0.63498 0.07437 0.06796 0.0
O218 O 0.57669 0.1152 0.03502 0.0
C219 C 0.43494 0.0891 0.94324 0.0
O220 O 0.41088 0.95456 0.05035 0.0
O221 O 0.48724 0.95187 0.07461 0.0
C222 C 0.43924 0.07746 0.07416 0.0
C223 C 0.44158 0.94299 0.07999 0.0
Fe224 Fe 1.02361 0.55714 0.01195 0.0
O225 O 0.97707 0.50736 0.98165 0.0
Fe226 Fe 0.13129 0.50752 0.01872 0.0
Fe227 Fe 0.90688 0.49968 0.99278 0.0
O228 O 0.0618 0.50701 0.03077 0.0
O229 O 0.06153 0.50335 0.02995 0.0
O230 O 0.97658 0.50355 0.98149 0.0
Fe231 Fe 1.01431 0.45373 1.00112 0.0
C232 C 0.94343 0.55805 0.08011 0.0
O233 O 0.97797 0.60324 0.98884 0.0
O234 O 0.91154 0.55936 0.9537 0.0
O235 O 0.04818 0.45699 0.93738 0.0
O236 O 0.12404 0.45999 0.96298 0.0
O237 O 0.13505 0.56092 0.97241 0.0
O238 O 0.05937 0.5658 0.94851 0.0
O239 O 0.90367 0.4518 0.93897 0.0
O240 O 0.96061 0.40795 0.96729 0.0
C241 C 0.10478 0.57623 0.94471 0.0
O242 O 0.05888 0.40717 0.0261 0.0
O243 O 0.1253 0.45054 0.06081 0.0
O244 O 0.98788 0.55298 0.07568 0.0
O245 O 0.91203 0.54332 0.04893 0.0
C246 C 0.93892 0.5979 0.96271 0.0
C247 C 0.92411 0.41455 0.94039 0.0
C248 C 0.93627 0.43292 0.0681 0.0
O249 O 0.90495 0.44392 0.0384 0.0
O250 O 0.98051 0.44771 0.06479 0.0
C251 C 0.09069 0.44682 0.93278 0.0
O252 O 0.13624 0.55886 0.07047 0.0
O253 O 0.07717 0.60289 0.04578 0.0
C254 C 0.09741 0.41235 0.05281 0.0
C255 C 0.11554 0.59631 0.07022 0.0
Fe256 Fe 0.52639 0.5018 0.94977 0.0
O257 O 0.56192 0.53234 1.00663 0.0
Fe258 Fe 0.41395 0.46309 0.9943 0.0
Fe259 Fe 0.63239 0.53855 0.01719 0.0
O260 O 0.48505 0.46758 0.998 0.0
O261 O 0.48483 0.4675 1.00285 0.0
O262 O 0.56206 0.53168 0.0112 0.0
Fe263 Fe 0.51932 0.49966 0.0592 0.0
C264 C 0.61712 0.45736 0.94604 0.0
O265 O 0.57407 0.54278 0.90726 0.0
O266 O 0.63061 0.58123 0.95954 0.0
O267 O 0.47754 0.55173 0.05591 0.0
O268 O 0.40539 0.51109 0.04599 0.0
O269 O 0.41245 0.51348 0.94311 0.0
O270 O 0.48428 0.55423 0.94812 0.0
O271 O 0.62041 0.58385 0.07086 0.0
O272 O 0.56213 0.53939 0.11263 0.0
C273 C 0.44088 0.54923 0.9335 0.0
O274 O 0.46856 0.46015 0.10213 0.0
O275 O 0.41525 0.41823 0.04953 0.0
O276 O 0.57106 0.45162 0.94658 0.0
O277 O 0.64254 0.48925 0.96886 0.0
C278 C 0.60991 0.5742 0.91782 0.0
C279 C 0.59713 0.57319 0.10936 0.0
C280 C 0.60518 0.45411 0.07898 0.0
O281 O 0.63329 0.49032 0.06988 0.0
O282 O 0.56168 0.44775 0.06434 0.0
C283 C 0.43229 0.54631 0.06118 0.0
O284 O 0.42422 0.41859 0.9394 0.0
O285 O 0.48153 0.4633 0.89669 0.0
C286 C 0.43409 0.42716 0.09153 0.0
C287 C 0.44575 0.42999 0.90022 0.0
Fe288 Fe 0.02713 0.4512 0.50977 0.0
O289 O 0.05329 0.50844 0.54702 0.0
Fe290 Fe 0.9943 0.4934 0.4027 0.0
Fe291 Fe 0.04825 0.51351 0.61797 0.0
O292 O 0.99534 0.49616 0.47159 0.0
O293 O 0.99061 0.50197 0.47352 0.0
O294 O 0.04863 0.5137 0.54882 0.0
Fe295 Fe 1.02009 0.55977 0.5085 0.0
C296 C 0.96418 0.43882 0.59582 0.0
O297 O 0.06636 0.41291 0.55756 0.0
O298 O 0.09934 0.46667 0.61357 0.0
O299 O 0.08037 0.56141 0.46637 0.0
O300 O 0.04805 0.54752 0.39408 0.0
O301 O 0.04535 0.44562 0.3966 0.0
O302 O 0.08763 0.45062 0.46338 0.0
O303 O 0.09472 0.5731 0.60992 0.0
O304 O 0.05983 0.61203 0.5502 0.0
C305 C 0.08287 0.43686 0.41949 0.0
O306 O 0.98505 0.59904 0.45757 0.0
O307 O 0.94666 0.54327 0.4068 0.0
O308 O 0.96637 0.44459 0.55145 0.0
O309 O 0.99729 0.4566 0.62428 0.0
C310 C 0.09717 0.42671 0.59204 0.0
C311 C 0.09083 0.60912 0.58482 0.0
C312 C 0.96071 0.57344 0.59948 0.0
O313 O 0.99279 0.55634 0.62399 0.0
O314 O 0.96018 0.56699 0.55392 0.0
C315 C 0.0814 0.56652 0.42174 0.0
O316 O 0.94634 0.4361 0.41385 0.0
O317 O 0.98975 0.3979 0.46757 0.0
C318 C 0.95369 0.58534 0.42343 0.0
C319 C 0.95497 0.3998 0.43646 0.0
Fe320 Fe 0.50904 0.95029 0.49685 0.0
O321 O 0.54716 0.99722 0.53835 0.0
Fe322 Fe 0.49052 0.00659 0.392 0.0
Fe323 Fe 0.54544 0.99553 0.60722 0.0
O324 O 0.48771 1.00255 0.46183 0.0
O325 O 0.49066 0.00587 0.46087 0.0
O326 O 0.55078 1.00094 0.53714 0.0
Fe327 Fe 0.52769 0.05309 0.50277 0.0
C328 C 0.44888 0.93462 0.58134 0.0
O329 O 0.53812 0.90086 0.53664 0.0
O330 O 0.58434 0.94103 0.59596 0.0
O331 O 0.58695 0.06022 0.45928 0.0
O332 O 0.55058 0.05446 0.38832 0.0
O333 O 0.53462 0.95445 0.3839 0.0
O334 O 0.56796 0.95183 0.45568 0.0
O335 O 0.60031 0.04932 0.60461 0.0
O336 O 0.56865 0.0968 0.55108 0.0
C337 C 0.56572 0.94094 0.41221 0.0
O338 O 0.49768 0.10165 0.46433 0.0
O339 O 0.45197 0.06196 0.40458 0.0
O340 O 0.44888 0.94649 0.53842 0.0
O341 O 0.48522 0.9458 0.60892 0.0
C342 C 0.5717 0.90491 0.56922 0.0
C343 C 0.59807 0.08887 0.58515 0.0
C344 C 0.46948 0.05852 0.58845 0.0
O345 O 0.50215 0.04692 0.61578 0.0
O346 O 0.46832 0.04929 0.54448 0.0
C347 C 0.58574 0.07005 0.41546 0.0
O348 O 0.43404 0.95473 0.39639 0.0
O349 O 0.46692 0.90742 0.44872 0.0
C350 C 0.46315 0.09743 0.43298 0.0
C351 C 0.4371 0.91521 0.41511 0.0
C352 C 0.19922 0.11045 0.32641 0.0
C353 C 0.19563 0.1582 0.32743 0.0
C354 C 0.1647 0.15198 0.40825 0.0
C355 C 0.16144 0.10341 0.40486 0.0
N356 N 0.16199 0.03688 0.35199 0.0
N357 N 0.15622 0.21926 0.36336 0.0
C358 C 0.17503 0.08253 0.36155 0.0
C359 C 0.1731 0.1777 0.36665 0.0
N360 N 0.22606 0.09158 0.29259 0.0
N361 N 0.16139 0.17406 0.45103 0.0
H362 H 0.1562 0.23682 0.33166 0.0
H363 H 0.13596 0.2326 0.39011 0.0
H364 H 0.15949 0.157 0.48313 0.0
H365 H 0.16683 0.20975 0.45474 0.0
H366 H 0.23313 0.05751 0.29333 0.0
H367 H 0.24508 0.11093 0.26678 0.0
H368 H 0.16807 0.0215 0.31924 0.0
H369 H 0.13952 0.01576 0.37375 0.0
C370 C 0.90066 0.07901 0.31338 0.0
C371 C 0.91741 0.12593 0.30782 0.0
C372 C 0.9824 0.12174 0.36601 0.0
C373 C 0.96318 0.0757 0.37457 0.0
N374 N 0.91446 0.00678 0.34756 0.0
N375 N 0.98153 0.18801 0.31591 0.0
C376 C 0.92598 0.05307 0.34479 0.0
C377 C 0.96108 0.14584 0.32972 0.0
N378 N 0.85857 0.06023 0.29165 0.0
N379 N 1.01825 0.14347 0.39472 0.0
H380 H 0.96642 0.20568 0.28887 0.0
H381 H 1.01533 0.20331 0.32764 0.0
H382 H 0.03535 0.12685 0.42112 0.0
H383 H 0.02963 0.17853 0.39401 0.0
H384 H 0.84092 0.02802 0.29933 0.0
H385 H 0.83981 0.07778 0.26721 0.0
H386 H 0.89094 0.98706 0.32414 0.0
H387 H 0.93226 0.98774 0.37115 0.0
C388 C 0.92675 0.86582 0.31597 0.0
C389 C 0.88047 0.84065 0.32372 0.0
C390 C 0.88633 0.86568 0.40764 0.0
C391 C 0.92945 0.89471 0.39914 0.0
N392 N 0.98932 0.9259 0.34364 0.0
N393 N 0.81214 0.8272 0.37606 0.0
C394 C 0.94975 0.89534 0.35296 0.0
C395 C 0.85907 0.84403 0.36911 0.0
N396 N 0.94814 0.86283 0.27279 0.0
N397 N 0.87195 0.85714 0.45316 0.0
H398 H 0.79068 0.81072 0.34955 0.0
H399 H 0.79328 0.83367 0.40677 0.0
H400 H 0.89104 0.87178 0.48271 0.0
H401 H 0.84422 0.83172 0.46172 0.0
H402 H 0.9842 0.87471 0.26668 0.0
H403 H 0.93014 0.8475 0.24289 0.0
H404 H 1.00262 0.93211 0.30974 0.0
H405 H 1.00712 0.94786 0.3694 0.0
C406 C 0.18165 0.83332 0.4133 0.0
C407 C 0.15567 0.83947 0.37037 0.0
C408 C 0.08303 0.8446 0.41632 0.0
C409 C 0.1128 0.85449 0.45661 0.0
N410 N 0.18621 0.84786 0.4986 0.0
N411 N 0.07943 0.84695 0.3308 0.0
C412 C 0.16053 0.84384 0.45688 0.0
C413 C 0.10528 0.84288 0.37164 0.0
N414 N 0.22513 0.81621 0.41276 0.0
N415 N 0.03407 0.83883 0.42106 0.0
H416 H 0.09491 0.84806 0.29727 0.0
H417 H 0.04329 0.85267 0.33049 0.0
H418 H 1.01812 0.83942 0.45439 0.0
H419 H 1.01023 0.82832 0.39315 0.0
H420 H 0.24326 0.80852 0.44346 0.0
H421 H 0.24056 0.80425 0.38218 0.0
H422 H 0.22337 0.84679 0.50115 0.0
H423 H 0.16948 0.85425 0.53071 0.0
C424 C 0.13199 0.93102 0.72033 0.0
C425 C 0.13936 0.8846 0.7113 0.0
C426 C 0.09137 0.88276 0.63888 0.0
C427 C 0.09392 0.93076 0.642 0.0
N428 N 0.10198 0.99971 0.68968 0.0
N429 N 0.13317 0.81856 0.65708 0.0
C430 C 0.1095 0.9548 0.68436 0.0
C431 C 0.12016 0.86058 0.66977 0.0
N432 N 0.14779 0.95209 0.7623 0.0
N433 N 0.0613 0.85858 0.60642 0.0
H434 H 0.15866 0.80266 0.67577 0.0
H435 H 0.12322 0.80209 0.62469 0.0
H436 H 0.03696 0.87457 0.58625 0.0
H437 H 0.05571 0.82282 0.60476 0.0
H438 H 0.14445 0.98608 0.77134 0.0
H439 H 0.16378 0.93474 0.78903 0.0
H440 H 0.11306 0.02052 0.71903 0.0
H441 H 0.0829 0.01583 0.66419 0.0
C442 C 0.13322 0.15915 0.68007 0.0
C443 C 0.17671 0.15017 0.70243 0.0
C444 C 0.17739 0.08158 0.65049 0.0
C445 C 0.13899 0.09571 0.62205 0.0
N446 N 0.08535 0.15313 0.60765 0.0
N447 N 0.23707 0.09971 0.71419 0.0
C448 C 0.11765 0.13548 0.63676 0.0
C449 C 0.19763 0.11021 0.6893 0.0
N450 N 0.10658 0.19022 0.70059 0.0
N451 N 0.1932 0.03988 0.64191 0.0
H452 H 0.24975 0.11781 0.74501 0.0
H453 H 0.25855 0.07477 0.70358 0.0
H454 H 0.17876 0.01699 0.61551 0.0
H455 H 0.21731 0.02542 0.66374 0.0
H456 H 0.07186 0.19483 0.68908 0.0
H457 H 0.11755 0.20816 0.73201 0.0
H458 H 0.06965 0.1827 0.61573 0.0
H459 H 0.0778 0.1412 0.57302 0.0
C460 C 0.95221 0.12945 0.67226 0.0
C461 C 0.91387 0.15546 0.66446 0.0
C462 C 0.93777 0.16575 0.5822 0.0
C463 C 0.9647 0.12879 0.5869 0.0
N464 N 0.99386 0.07108 0.63661 0.0
N465 N 0.86812 0.19824 0.61082 0.0
C466 C 0.97267 0.11038 0.63229 0.0
C467 C 0.90652 0.17459 0.61931 0.0
N468 N 0.96669 0.12052 0.71719 0.0
N469 N 0.93944 0.18954 0.5411 0.0
H470 H 0.84252 0.20334 0.63623 0.0
H471 H 0.85925 0.20919 0.57729 0.0
H472 H 0.9619 0.18193 0.51329 0.0
H473 H 0.92267 0.21911 0.53686 0.0
H474 H 0.9974 0.10448 0.72405 0.0
H475 H 0.95075 0.13308 0.74738 0.0
H476 H 0.99631 0.05432 0.6686 0.0
H477 H 1.00363 0.05227 0.60749 0.0
C478 C 0.85835 0.89975 0.68617 0.0
C479 C 0.85867 0.85183 0.68979 0.0
C480 C 0.90162 0.85021 0.6143 0.0
C481 C 0.90503 0.8989 0.61249 0.0
N482 N 0.90228 0.96958 0.65834 0.0
N483 N 0.89914 0.78642 0.66688 0.0
C484 C 0.88783 0.9237 0.65176 0.0
C485 C 0.88555 0.8283 0.6566 0.0
N486 N 0.82965 0.92256 0.715 0.0
N487 N 0.91249 0.82428 0.57595 0.0
H488 H 0.89422 0.77221 0.70024 0.0
H489 H 0.92169 0.76945 0.64513 0.0
H490 H 0.92389 0.83791 0.54373 0.0
H491 H 0.90553 0.78856 0.57493 0.0
H492 H 0.8249 0.95691 0.71046 0.0
H493 H 0.8073 0.90618 0.74047 0.0
H494 H 0.89361 0.98804 0.68844 0.0
H495 H 0.92823 0.98773 0.6374 0.0
C496 C 0.37231 0.17927 0.12591 0.0
C497 C 0.3617 0.1664 0.17381 0.0
C498 C 0.41567 0.10422 0.16006 0.0
C499 C 0.41781 0.11137 0.11004 0.0
N500 N 0.39605 0.15846 0.04628 0.0
N501 N 0.37054 0.1098 0.23322 0.0
C502 C 0.39507 0.14949 0.0935 0.0
C503 C 0.38311 0.12723 0.19002 0.0
N504 N 0.364 0.2219 0.11176 0.0
N505 N 0.44576 0.07627 0.17971 0.0
H506 H 0.34558 0.12333 0.25508 0.0
H507 H 0.38089 0.07895 0.24497 0.0
H508 H 0.47041 0.06028 0.15953 0.0
H509 H 0.44959 0.07284 0.21623 0.0
H510 H 0.37537 0.2355 0.07938 0.0
H511 H 0.35147 0.24617 0.13452 0.0
H512 H 0.37455 0.18076 0.0305 0.0
H513 H 0.41698 0.14201 0.02261 0.0
C514 C 0.89 0.31774 0.1187 0.0
C515 C 0.87952 0.33092 0.16565 0.0
C516 C 0.91578 0.40991 0.1518 0.0
C517 C 0.92222 0.39732 0.10368 0.0
N518 N 0.93747 0.33655 0.04923 0.0
N519 N 0.89245 0.3853 0.23112 0.0
C520 C 0.91568 0.35039 0.08924 0.0
C521 C 0.89567 0.37585 0.18359 0.0
N522 N 0.87445 0.27446 0.1018 0.0
N523 N 0.92923 0.45419 0.16683 0.0
H524 H 0.87904 0.36057 0.25513 0.0
H525 H 0.90583 0.41629 0.24764 0.0
H526 H 0.94773 0.47854 0.14516 0.0
H527 H 0.92163 0.46739 0.20008 0.0
H528 H 0.87523 0.26499 0.066 0.0
H529 H 0.85837 0.24861 0.12323 0.0
H530 H 0.93683 0.30235 0.0383 0.0
H531 H 0.96254 0.3587 0.03139 0.0
C532 C 0.68258 0.88164 0.17832 0.0
C533 C 0.69819 0.8404 0.15981 0.0
C534 C 0.65478 0.8526 0.08449 0.0
C535 C 0.63609 0.89182 0.10465 0.0
N536 N 0.62294 0.93549 0.17568 0.0
N537 N 0.68883 0.78137 0.09838 0.0
C538 C 0.64717 0.90364 0.15313 0.0
C539 C 0.68131 0.82437 0.11374 0.0
N540 N 0.70347 0.90147 0.219 0.0
N541 N 0.64938 0.84325 0.03693 0.0
H542 H 0.70707 0.75951 0.11873 0.0
H543 H 0.673 0.76584 0.06752 0.0
H544 H 0.63057 0.86264 0.01432 0.0
H545 H 0.66684 0.81847 0.01931 0.0
H546 H 0.69689 0.93363 0.23196 0.0
H547 H 0.7316 0.88834 0.2368 0.0
H548 H 0.62585 0.94243 0.21209 0.0
H549 H 0.59585 0.95118 0.15893 0.0
C550 C 0.14382 0.67583 0.17627 0.0
C551 C 0.17956 0.70859 0.15727 0.0
C552 C 0.16835 0.67109 0.07913 0.0
C553 C 0.13766 0.63499 0.09995 0.0
N554 N 0.10113 0.59931 0.16924 0.0
N555 N 0.2274 0.73819 0.09175 0.0
C556 C 0.12678 0.63626 0.14882 0.0
C557 C 0.1919 0.70683 0.1088 0.0
N558 N 0.12496 0.68351 0.21994 0.0
N559 N 0.17499 0.67105 0.03117 0.0
H560 H 0.24344 0.76608 0.11217 0.0
H561 H 0.24255 0.73557 0.05834 0.0
H562 H 0.16066 0.64402 0.00884 0.0
H563 H 0.19237 0.69873 0.01312 0.0
H564 H 0.09577 0.66278 0.23386 0.0
H565 H 0.13505 0.7134 0.24013 0.0
H566 H 0.0968 0.59647 0.20576 0.0
H567 H 0.087 0.56989 0.15001 0.0
C568 C 0.3894 0.84888 0.84626 0.0
C569 C 0.34528 0.82448 0.86196 0.0
C570 C 0.37112 0.83895 0.94447 0.0
C571 C 0.41385 0.86465 0.92855 0.0
N572 N 0.47175 0.87989 0.86695 0.0
N573 N 0.30241 0.78291 0.92458 0.0
C574 C 0.42602 0.86373 0.88024 0.0
C575 C 0.33904 0.8148 0.91072 0.0
N576 N 0.39479 0.8625 0.80038 0.0
N577 N 0.35978 0.84025 0.99142 0.0
H578 H 0.27887 0.76409 0.90034 0.0
H579 H 0.29851 0.77192 0.95937 0.0
H580 H 0.38329 0.85734 0.01671 0.0
H581 H 0.32647 0.82664 1.00465 0.0
H582 H 0.42446 0.88427 0.78891 0.0
H583 H 0.36785 0.85669 0.77459 0.0
H584 H 0.48424 0.87645 0.83248 0.0
H585 H 0.49837 0.89245 0.89176 0.0
C586 C 0.14942 0.38711 0.83463 0.0
C587 C 0.15623 0.34652 0.8598 0.0
C588 C 0.09598 0.36455 0.91647 0.0
C589 C 0.09936 0.40954 0.89925 0.0
N590 N 0.11792 0.4611 0.83604 0.0
N591 N 0.13727 0.29788 0.92694 0.0
C592 C 0.12262 0.42006 0.85624 0.0
C593 C 0.1294 0.33518 0.90106 0.0
N594 N 0.16663 0.39316 0.78972 0.0
N595 N 0.05925 0.3493 0.94564 0.0
H596 H 0.16299 0.2762 0.91807 0.0
H597 H 0.12146 0.29113 0.95979 0.0
H598 H 0.03123 0.36889 0.9521 0.0
H599 H 0.05303 0.31562 0.95709 0.0
H600 H 0.16023 0.42034 0.76844 0.0
H601 H 0.18399 0.36883 0.77166 0.0
H602 H 0.13767 0.47389 0.80711 0.0
H603 H 0.09377 0.48273 0.84932 0.0
C604 C 0.67343 0.10301 0.82516 0.0
C605 C 0.69458 0.14748 0.84113 0.0
C606 C 0.6379 0.14362 0.90703 0.0
C607 C 0.62487 0.09658 0.89753 0.0
N608 N 0.62608 0.03096 0.84556 0.0
N609 N 0.70276 0.20511 0.90473 0.0
C610 C 0.64144 0.07599 0.85585 0.0
C611 C 0.67832 0.16642 0.88418 0.0
N612 N 0.68179 0.08754 0.78034 0.0
N613 N 0.61121 0.16663 0.93763 0.0
H614 H 0.73529 0.22088 0.89169 0.0
H615 H 0.69373 0.21817 0.93773 0.0
H616 H 0.57981 0.15069 0.95287 0.0
H617 H 0.61719 0.20211 0.94316 0.0
H618 H 0.66391 0.05742 0.76529 0.0
H619 H 0.70368 0.10667 0.75656 0.0
H620 H 0.64033 0.0122 0.81845 0.0
H621 H 0.60022 0.01193 0.86602 0.0
C622 C 0.8722 0.7016 0.94601 0.0
C623 C 0.89612 0.7201 0.90558 0.0
C624 C 0.95232 0.66284 0.90736 0.0
C625 C 0.92418 0.64014 0.94342 0.0
N626 N 0.85986 0.63856 1.00043 0.0
N627 N 0.972 0.73362 0.86544 0.0
C628 C 0.88518 0.66008 0.96433 0.0
C629 C 0.94052 0.70563 0.89172 0.0
N630 N 0.83831 0.725 0.96719 0.0
N631 N 0.98844 0.64232 0.88626 0.0
H632 H 0.96596 0.76713 0.85803 0.0
H633 H 1.00662 0.72627 0.85699 0.0
H634 H 0.99754 0.61039 0.89616 0.0
H635 H 1.00674 0.65513 0.85646 0.0
H636 H 0.82076 0.71545 0.99845 0.0
H637 H 0.83115 0.757 0.95534 0.0
H638 H 0.82844 0.6489 0.01451 0.0
H639 H 0.86915 0.60867 0.01539 0.0
C640 C 0.16727 0.31212 0.07495 0.0
C641 C 0.14852 0.29884 0.11941 0.0
C642 C 0.08706 0.35107 0.11276 0.0
C643 C 0.11219 0.37072 0.07327 0.0
N644 N 0.17564 0.37026 0.01541 0.0
N645 N 0.09013 0.30343 0.18146 0.0
C646 C 0.15176 0.35093 0.05346 0.0
C647 C 0.10735 0.31667 0.13801 0.0
N648 N 0.20023 0.28751 0.05386 0.0
N649 N 0.04465 0.36603 0.12671 0.0
H650 H 0.1028 0.27699 0.20018 0.0
H651 H 0.0647 0.31981 0.19999 0.0
H652 H 0.03041 0.3933 0.11094 0.0
H653 H 1.0219 0.34956 0.15172 0.0
H654 H 0.21258 0.29277 0.01945 0.0
H655 H 0.21157 0.25861 0.06951 0.0
H656 H 0.20801 0.36055 1.00282 0.0
H657 H 0.16445 0.39787 0.99765 0.0
C658 C 0.17318 0.62955 0.83994 0.0
C659 C 0.17448 0.67691 0.85165 0.0
C660 C 0.11782 0.65733 0.91601 0.0
C661 C 0.12416 0.61018 0.9095 0.0
N662 N 0.16773 0.5535 0.87096 0.0
N663 N 0.15363 0.7358 0.90632 0.0
C664 C 0.15467 0.59684 0.87311 0.0
C665 C 0.14778 0.69101 0.89081 0.0
N666 N 0.18814 0.61558 0.79652 0.0
N667 N 0.08463 0.67029 0.94733 0.0
H668 H 0.17692 0.76125 0.89043 0.0
H669 H 0.13915 0.74685 0.93789 0.0
H670 H 0.06366 0.64723 0.96831 0.0
H671 H 0.07508 0.70353 0.94948 0.0
H672 H 0.18421 0.58124 0.78529 0.0
H673 H 0.19875 0.63846 0.76974 0.0
H674 H 0.19419 0.54409 0.84802 0.0
H675 H 0.15546 0.52823 0.89475 0.0
C676 C 0.40409 0.17993 0.85106 0.0
C677 C 0.35229 0.1742 0.85154 0.0
C678 C 0.35712 0.12203 0.91914 0.0
C679 C 0.40843 0.12285 0.91464 0.0
N680 N 0.4794 0.14927 0.87037 0.0
N681 N 0.28024 0.13141 0.88139 0.0
C682 C 0.43154 0.15116 0.87909 0.0
C683 C 0.32916 0.14312 0.88453 0.0
N684 N 0.42748 0.21426 0.82515 0.0
N685 N 0.33467 0.10212 0.95765 0.0
H686 H 0.25853 0.14452 0.85596 0.0
H687 H 0.26191 0.10501 0.90064 0.0
H688 H 0.35312 0.08724 0.98437 0.0
H689 H 0.29873 0.10492 0.9658 0.0
H690 H 0.46471 0.22366 0.82692 0.0
H691 H 0.40902 0.23641 0.80553 0.0
H692 H 0.49717 0.16478 0.84152 0.0
H693 H 0.50049 0.12908 0.88978 0.0
C694 C 0.90502 0.34289 0.82829 0.0
C695 C 0.87069 0.30636 0.8436 0.0
C696 C 0.86931 0.34297 0.92219 0.0
C697 C 0.90581 0.37729 0.9076 0.0
N698 N 0.96529 0.40603 0.85074 0.0
N699 N 0.83072 0.26559 0.90853 0.0
C700 C 0.92583 0.37599 0.8619 0.0
C701 C 0.85548 0.30473 0.89149 0.0
N702 N 0.91628 0.34763 0.78144 0.0
N703 N 0.84774 0.34701 0.96517 0.0
H704 H 0.82316 0.2355 0.88812 0.0
H705 H 0.82259 0.26114 0.94423 0.0
H706 H 0.85796 0.37406 0.98915 0.0
H707 H 0.81732 0.32554 0.97544 0.0
H708 H 0.93554 0.37704 0.768 0.0
H709 H 0.90352 0.32424 0.7549 0.0
H710 H 0.98561 0.40251 0.82033 0.0
H711 H 0.98014 0.43255 0.87356 0.0
C712 C 0.6429 0.83955 0.85807 0.0
C713 C 0.6908 0.85542 0.84258 0.0
C714 C 0.68211 0.92948 0.88667 0.0
C715 C 0.63612 0.91214 0.90623 0.0
N716 N 0.57877 0.84489 0.91582 0.0
N717 N 0.75727 0.91558 0.84792 0.0
C718 C 0.618 0.86575 0.89277 0.0
C719 C 0.71052 0.90033 0.85882 0.0
N720 N 0.62086 0.79867 0.84014 0.0
N721 N 0.69841 0.975 0.89296 0.0
H722 H 0.77791 0.89762 0.82511 0.0
H723 H 0.77671 0.94452 0.86381 0.0
H724 H 0.67954 0.99785 0.9118 0.0
H725 H 0.72794 0.99146 0.87527 0.0
H726 H 0.58443 0.78732 0.84499 0.0
H727 H 0.63811 0.77757 0.81736 0.0
H728 H 0.56679 0.81 0.91231 0.0
H729 H 0.56084 0.8614 0.94215 0.0
C730 C 0.8491 0.62061 0.12249 0.0
C731 C 0.8726 0.66602 0.12434 0.0
C732 C 0.9509 0.63686 0.11605 0.0
C733 C 0.92674 0.59153 0.11432 0.0
N734 N 0.85598 0.54044 0.13304 0.0
N735 N 0.94386 0.71797 0.10823 0.0
C736 C 0.87691 0.58381 0.12441 0.0
C737 C 0.92314 0.67458 0.11723 0.0
N738 N 0.80011 0.61288 0.11571 0.0
N739 N 1.00014 0.64356 0.11847 0.0
H740 H 0.92339 0.74493 0.10289 0.0
H741 H 0.98005 0.72599 0.09952 0.0
H742 H 1.02037 0.6163 0.12252 0.0
H743 H 1.02028 0.67561 0.12294 0.0
H744 H 0.78127 0.5803 0.11033 0.0
H745 H 0.77933 0.6396 0.10966 0.0
H746 H 0.82051 0.5331 0.14451 0.0
H747 H 0.87592 0.5126 0.1325 0.0
C748 C 0.36858 0.89916 0.18704 0.0
C749 C 0.35659 0.85246 0.17213 0.0
C750 C 0.41858 0.86476 0.11089 0.0
C751 C 0.42163 0.91275 0.11855 0.0
N752 N 0.39233 0.97617 0.16035 0.0
N753 N 0.36308 0.79544 0.10954 0.0
C754 C 0.39449 0.93019 0.15565 0.0
C755 C 0.37999 0.83625 0.13142 0.0
N756 N 0.35781 0.91376 0.23157 0.0
N757 N 0.45116 0.8464 0.08263 0.0
H758 H 0.33072 0.77651 0.11882 0.0
H759 H 0.3773 0.78399 0.07797 0.0
H760 H 0.48029 0.86641 0.0677 0.0
H761 H 0.45195 0.8111 0.07855 0.0
H762 H 0.3692 0.94689 0.24448 0.0
H763 H 0.34362 0.89153 0.25757 0.0
H764 H 0.36949 0.99022 0.18427 0.0
H765 H 0.41045 0.99947 0.13746 0.0
C766 C 0.65976 0.16523 0.17489 0.0
C767 C 0.70532 0.1875 0.16028 0.0
C768 C 0.68088 0.17417 0.07718 0.0
C769 C 0.6363 0.15067 0.09173 0.0
N770 N 0.57665 0.13813 0.15214 0.0
N771 N 0.75032 0.22858 0.09887 0.0
C772 C 0.62329 0.15201 0.13994 0.0
C773 C 0.71283 0.19725 0.11175 0.0
N774 N 0.65253 0.15267 0.22088 0.0
N775 N 0.69425 0.17156 0.03088 0.0
H776 H 0.77275 0.24743 0.12395 0.0
H777 H 0.75543 0.2395 0.06416 0.0
H778 H 0.67151 0.15455 1.00496 0.0
H779 H 0.72869 0.18356 0.0191 0.0
H780 H 0.62161 0.13247 0.23204 0.0
H781 H 0.67898 0.15834 0.24727 0.0
H782 H 0.56373 0.14141 0.18646 0.0
H783 H 0.54997 0.1279 0.12652 0.0
C784 C 0.67282 0.68083 0.864 0.0
C785 C 0.68496 0.66507 0.81831 0.0
C786 C 0.64434 0.58813 0.8353 0.0
C787 C 0.62959 0.60534 0.87992 0.0
N788 N 0.61624 0.67126 0.92836 0.0
N789 N 0.68046 0.60457 0.7586 0.0
C790 C 0.63988 0.65267 0.89173 0.0
C791 C 0.66988 0.61898 0.80339 0.0
N792 N 0.69318 0.72237 0.88152 0.0
N793 N 0.63591 0.54233 0.82385 0.0
H794 H 0.70445 0.62389 0.73656 0.0
H795 H 0.66438 0.57422 0.7425 0.0
H796 H 0.61594 0.51818 0.84438 0.0
H797 H 0.65152 0.52707 0.79513 0.0
H798 H 0.68875 0.73373 0.91632 0.0
H799 H 0.71911 0.74289 0.86317 0.0
H800 H 0.61876 0.70644 0.93562 0.0
H801 H 0.58957 0.65212 0.94776 0.0
C802 C 0.41975 0.66311 0.87657 0.0
C803 C 0.38848 0.64679 0.83809 0.0
C804 C 0.39948 0.5683 0.85753 0.0
C805 C 0.4243 0.58361 0.90039 0.0
N806 N 0.45213 0.64715 0.95382 0.0
N807 N 0.33773 0.58253 0.80147 0.0
C808 C 0.43308 0.63157 0.91077 0.0
C809 C 0.37519 0.59907 0.83119 0.0
N810 N 0.43755 0.70852 0.87995 0.0
N811 N 0.40149 0.52506 0.83991 0.0
H812 H 0.31636 0.6034 0.78337 0.0
H813 H 0.32427 0.54782 0.79934 0.0
H814 H 0.4234 0.50325 0.85517 0.0
H815 H 0.38722 0.51367 0.80679 0.0
H816 H 0.46407 0.7216 0.90458 0.0
H817 H 0.42937 0.73235 0.8551 0.0
H818 H 0.45443 0.6814 0.96501 0.0
H819 H 0.46134 0.62544 0.98031 0.0
C820 C 0.42019 0.34834 0.79251 0.0
C821 C 0.3702 0.35186 0.78466 0.0
C822 C 0.37174 0.41032 0.8474 0.0
C823 C 0.42191 0.40705 0.85657 0.0
N824 N 0.49577 0.37838 0.83259 0.0
N825 N 0.30494 0.39783 0.79118 0.0
C826 C 0.44694 0.3782 0.82693 0.0
C827 C 0.34818 0.38661 0.80783 0.0
N828 N 0.44154 0.31549 0.76826 0.0
N829 N 0.34539 0.43448 0.87738 0.0
H830 H 0.28719 0.38133 0.76164 0.0
H831 H 0.28941 0.42642 0.80337 0.0
H832 H 0.36005 0.45431 0.90595 0.0
H833 H 0.30779 0.4323 0.87572 0.0
H834 H 0.47619 0.30744 0.77551 0.0
H835 H 0.42353 0.29431 0.74194 0.0
H836 H 0.51715 0.36151 0.80967 0.0
H837 H 0.51582 0.39781 0.85897 0.0
C838 C 0.70767 0.41671 0.85991 0.0
C839 C 0.68555 0.37177 0.85089 0.0
C840 C 0.62605 0.37998 0.91188 0.0
C841 C 0.64284 0.42745 0.91545 0.0
N842 N 0.69716 0.49266 0.88668 0.0
N843 N 0.62107 0.31081 0.86311 0.0
C844 C 0.68321 0.44642 0.88812 0.0
C845 C 0.64379 0.35343 0.87519 0.0
N846 N 0.75254 0.43077 0.84238 0.0
N847 N 0.59568 0.35971 0.94515 0.0
H848 H 0.63356 0.29007 0.8365 0.0
H849 H 0.58764 0.29783 0.87658 0.0
H850 H 0.58504 0.37733 0.97505 0.0
H851 H 0.58586 0.32439 0.94625 0.0
H852 H 0.77323 0.46116 0.85342 0.0
H853 H 0.77107 0.41033 0.81997 0.0
H854 H 0.72269 0.50735 0.86304 0.0
H855 H 0.68032 0.51756 0.90434 0.0
C856 C 0.6207 0.3783 0.18524 0.0
C857 C 0.66606 0.36367 0.17456 0.0
C858 C 0.66529 0.40035 0.09735 0.0
C859 C 0.62332 0.42005 0.11048 0.0
N860 N 0.56449 0.43323 0.17039 0.0
N861 N 0.73662 0.36932 0.12456 0.0
C862 C 0.60165 0.41032 0.15528 0.0
C863 C 0.68971 0.37684 0.13165 0.0
N864 N 0.59514 0.36066 0.22311 0.0
N865 N 0.68125 0.40312 0.0517 0.0
H866 H 0.75709 0.35461 0.14975 0.0
H867 H 0.75698 0.38243 0.09607 0.0
H868 H 0.66365 0.41938 0.02532 0.0
H869 H 0.70872 0.38517 0.0389 0.0
H870 H 0.55943 0.36602 0.22942 0.0
H871 H 0.60815 0.33733 0.24594 0.0
H872 H 0.55105 0.43125 0.20472 0.0
H873 H 0.54963 0.45728 0.15004 0.0
C874 C 0.68153 0.60988 0.21322 0.0
C875 C 0.67692 0.65742 0.2163 0.0
C876 C 0.61081 0.64693 0.15703 0.0
C877 C 0.61642 0.59965 0.15264 0.0
N878 N 0.64933 0.53395 0.18355 0.0
N879 N 0.62658 0.71751 0.20386 0.0
C880 C 0.64916 0.58042 0.18327 0.0
C881 C 0.63836 0.67492 0.19193 0.0
N882 N 0.71792 0.59322 0.23783 0.0
N883 N 0.5798 0.66528 0.12702 0.0
H884 H 0.64347 0.73717 0.23186 0.0
H885 H 0.59663 0.73104 0.19008 0.0
H886 H 0.55665 0.64516 0.10343 0.0
H887 H 0.57868 0.70043 0.12393 0.0
H888 H 0.72783 0.56041 0.23273 0.0
H889 H 0.73973 0.61325 0.26246 0.0
H890 H 0.66908 0.51698 0.20759 0.0
H891 H 0.62624 0.51179 0.16208 0.0
C892 C 0.35705 0.63634 0.10481 0.0
C893 C 0.36079 0.62996 0.1544 0.0
C894 C 0.41853 0.57558 0.14225 0.0
C895 C 0.41073 0.57788 0.09257 0.0
N896 N 0.3657 0.60358 0.02656 0.0
N897 N 0.38415 0.58478 0.21942 0.0
C898 C 0.37773 0.60606 0.07375 0.0
C899 C 0.38848 0.59717 0.17299 0.0
N900 N 0.33601 0.67237 0.08732 0.0
N901 N 0.45437 0.5529 0.16034 0.0
H902 H 0.36028 0.59814 0.24275 0.0
H903 H 0.39995 0.55743 0.23328 0.0
H904 H 0.47719 0.53594 0.13936 0.0
H905 H 0.46448 0.55477 0.1961 0.0
H906 H 0.33731 0.68111 0.05169 0.0
H907 H 0.32128 0.69633 0.10871 0.0
H908 H 0.33777 0.61979 0.01218 0.0
H909 H 0.38105 0.58249 1.00232 0.0
C910 C 0.34551 0.37917 0.18559 0.0
C911 C 0.368 0.3411 0.20077 0.0
C912 C 0.43639 0.36231 0.14787 0.0
C913 C 0.41239 0.39867 0.13051 0.0
N914 N 0.34157 0.43874 0.12813 0.0
N915 N 0.43119 0.29209 0.19239 0.0
C916 C 0.36614 0.40614 0.14795 0.0
C917 C 0.41266 0.33164 0.18106 0.0
N918 N 0.30577 0.39097 0.20883 0.0
N919 N 0.48184 0.35708 0.13246 0.0
H920 H 0.41466 0.26853 0.21605 0.0
H921 H 0.46061 0.2804 0.17555 0.0
H922 H 0.49911 0.37721 0.1062 0.0
H923 H 0.50382 0.33491 0.14761 0.0
H924 H 0.29081 0.42129 0.20334 0.0
H925 H 0.28984 0.37219 0.2367 0.0
H926 H 0.30541 0.44188 0.13477 0.0
H927 H 0.35636 0.46105 0.10255 0.0
C928 C 0.85828 0.65415 0.62604 0.0
C929 C 0.85867 0.66013 0.6769 0.0
C930 C 0.92991 0.61569 0.67596 0.0
C931 C 0.92423 0.60247 0.62622 0.0
N932 N 0.86618 0.60007 0.56103 0.0
N933 N 0.88653 0.62693 0.74851 0.0
C934 C 0.88336 0.61889 0.60341 0.0
C935 C 0.89173 0.63476 0.70121 0.0
N936 N 0.83635 0.68309 0.59809 0.0
N937 N 0.97232 0.61325 0.69996 0.0
H938 H 0.85658 0.63486 0.76746 0.0
H939 H 0.90812 0.60628 0.76679 0.0
H940 H 1.00441 0.60709 0.68407 0.0
H941 H 0.97768 0.62518 0.73499 0.0
H942 H 0.83801 0.6815 0.56116 0.0
H943 H 0.82284 0.71235 0.6111 0.0
H944 H 0.83484 0.6091 0.54501 0.0
H945 H 0.87856 0.57129 0.54546 0.0
C946 C 0.37826 0.82358 0.62206 0.0
C947 C 0.34978 0.84212 0.65762 0.0
C948 C 0.37235 0.91912 0.62665 0.0
C949 C 0.40809 0.9021 0.59878 0.0
N950 N 0.43907 0.83771 0.56104 0.0
N951 N 0.32499 0.90946 0.69743 0.0
C952 C 0.409 0.85401 0.59355 0.0
C953 C 0.34753 0.89036 0.66045 0.0
N954 N 0.37484 0.77709 0.61477 0.0
N955 N 0.36096 0.96234 0.6195 0.0
H956 H 0.30958 0.8905 0.72535 0.0
H957 H 0.32645 0.94481 0.7031 0.0
H958 H 0.37786 0.98319 0.59352 0.0
H959 H 0.33167 0.97521 0.63558 0.0
H960 H 0.3912 0.76116 0.587 0.0
H961 H 0.35288 0.75398 0.63498 0.0
H962 H 0.44688 0.80396 0.55901 0.0
H963 H 0.45653 0.85873 0.53569 0.0
C964 C 0.14926 0.31897 0.63784 0.0
C965 C 0.19697 0.33686 0.6517 0.0
C966 C 0.18244 0.4104 0.6161 0.0
C967 C 0.13218 0.39458 0.60975 0.0
N968 N 0.06705 0.3353 0.62555 0.0
N969 N 0.25841 0.40163 0.65665 0.0
C970 C 0.11547 0.34905 0.62313 0.0
C971 C 0.21343 0.38321 0.64147 0.0
N972 N 0.13622 0.2728 0.63788 0.0
N973 N 0.20111 0.45064 0.59634 0.0
H974 H 0.28258 0.38212 0.67292 0.0
H975 H 0.27052 0.43655 0.65555 0.0
H976 H 0.1803 0.47029 0.57591 0.0
H977 H 0.23796 0.46204 0.596 0.0
H978 H 0.10339 0.25757 0.62369 0.0
H979 H 0.16068 0.24994 0.64656 0.0
H980 H 0.05281 0.3039 0.63918 0.0
H981 H 0.04133 0.35755 0.61963 0.0
C982 C 0.64301 0.20501 0.64182 0.0
C983 C 0.68773 0.19496 0.66066 0.0
C984 C 0.67908 0.1237 0.61338 0.0
C985 C 0.62993 0.12833 0.60528 0.0
N986 N 0.56241 0.17124 0.6213 0.0
N987 N 0.74118 0.13745 0.67245 0.0
C988 C 0.611 0.16878 0.62125 0.0
C989 C 0.70472 0.15284 0.6477 0.0
N990 N 0.63076 0.24865 0.64419 0.0
N991 N 0.70074 0.0906 0.58993 0.0
H992 H 0.75449 0.15458 0.7031 0.0
H993 H 0.75188 0.10488 0.66707 0.0
H994 H 0.68277 0.06906 0.56377 0.0
H995 H 0.7377 0.08824 0.5931 0.0
H996 H 0.59953 0.25777 0.62806 0.0
H997 H 0.65462 0.27633 0.65718 0.0
H998 H 0.54728 0.199 0.63616 0.0
H999 H 0.53718 0.14327 0.61251 0.0
C1000 C 0.90609 0.30854 0.35022 0.0
C1001 C 0.85609 0.30579 0.362 0.0
C1002 C 0.87721 0.34828 0.43649 0.0
C1003 C 0.92532 0.35719 0.4208 0.0
N1004 N 0.98956 0.33324 0.37405 0.0
N1005 N 0.79942 0.30214 0.42613 0.0
C1006 C 0.94108 0.33287 0.38136 0.0
C1007 C 0.84335 0.31884 0.40855 0.0
N1008 N 0.92025 0.2891 0.3092 0.0
N1009 N 0.8637 0.36956 0.47693 0.0
H1010 H 0.77568 0.27784 0.40733 0.0
H1011 H 0.78914 0.30797 0.46094 0.0
H1012 H 0.88873 0.38937 0.49902 0.0
H1013 H 0.82792 0.3688 0.48753 0.0
H1014 H 0.95403 0.29731 0.29411 0.0
H1015 H 0.89872 0.26299 0.2913 0.0
H1016 H 1.00425 0.31351 0.34807 0.0
H1017 H 1.01541 0.35029 0.39728 0.0
C1018 C 0.6779 0.89675 0.36755 0.0
C1019 C 0.66497 0.84862 0.3706 0.0
C1020 C 0.58979 0.86177 0.40755 0.0
C1021 C 0.59855 0.90889 0.39582 0.0
N1022 N 0.64848 0.97019 0.3582 0.0
N1023 N 0.60279 0.78515 0.38413 0.0
C1024 C 0.64184 0.92613 0.37363 0.0
C1025 C 0.61947 0.83082 0.38821 0.0
N1026 N 0.7248 0.91438 0.36012 0.0
N1027 N 0.55418 0.84632 0.438 0.0
H1028 H 0.62197 0.76057 0.36858 0.0
H1029 H 0.56731 0.7723 0.39197 0.0
H1030 H 0.53271 0.86786 0.45473 0.0
H1031 H 0.55017 0.81312 0.45102 0.0
H1032 H 0.73653 0.94946 0.36148 0.0
H1033 H 0.75286 0.8939 0.35816 0.0
H1034 H 0.67793 0.98288 0.33788 0.0
H1035 H 0.62245 0.9927 0.36207 0.0
C1036 C 0.17351 0.66948 0.39402 0.0
C1037 C 0.18844 0.65583 0.34827 0.0
C1038 C 0.14595 0.57968 0.36096 0.0
C1039 C 0.12222 0.59632 0.4006 0.0
N1040 N 0.10874 0.66166 0.45058 0.0
N1041 N 0.1762 0.59891 0.28373 0.0
C1042 C 0.13478 0.64253 0.4163 0.0
C1043 C 0.17141 0.61109 0.33036 0.0
N1044 N 0.19729 0.70693 0.41711 0.0
N1045 N 0.14583 0.53378 0.35344 0.0
H1046 H 0.18927 0.62186 0.25796 0.0
H1047 H 0.1609 0.56726 0.26962 0.0
H1048 H 0.13128 0.51048 0.37825 0.0
H1049 H 0.16597 0.52016 0.32676 0.0
H1050 H 0.18989 0.71611 0.452 0.0
H1051 H 0.22838 0.72489 0.40357 0.0
H1052 H 0.11433 0.69648 0.4599 0.0
H1053 H 0.07854 0.64401 0.46613 0.0
C1054 C 0.41331 0.21247 0.43142 0.0
C1055 C 0.36498 0.19594 0.42062 0.0
C1056 C 0.37995 0.11885 0.4409 0.0
C1057 C 0.43007 0.13291 0.43489 0.0
N1058 N 0.49574 0.1955 0.43277 0.0
N1059 N 0.29812 0.13726 0.42837 0.0
C1060 C 0.44743 0.18057 0.43358 0.0
C1061 C 0.34681 0.15032 0.43067 0.0
N1062 N 0.426 0.25822 0.44021 0.0
N1063 N 0.36456 0.07632 0.45768 0.0
H1064 H 0.27365 0.16129 0.42436 0.0
H1065 H 0.28234 0.10332 0.42941 0.0
H1066 H 0.38843 0.05342 0.46796 0.0
H1067 H 0.32875 0.06547 0.46594 0.0
H1068 H 0.46041 0.27216 0.45166 0.0
H1069 H 0.40009 0.28109 0.44201 0.0
H1070 H 0.50932 0.22916 0.42533 0.0
H1071 H 0.52262 0.17438 0.4377 0.0
C1072 C 0.66635 0.82312 0.56899 0.0
C1073 C 0.65351 0.80036 0.61139 0.0
C1074 C 0.57848 0.83531 0.61544 0.0
C1075 C 0.59583 0.86439 0.57847 0.0
N1076 N 0.65258 0.88471 0.51623 0.0
N1077 N 0.59688 0.78076 0.67405 0.0
C1078 C 0.63825 0.85728 0.55332 0.0
C1079 C 0.60864 0.80415 0.63352 0.0
N1080 N 0.70593 0.81239 0.54483 0.0
N1081 N 0.53364 0.83828 0.63368 0.0
H1082 H 0.61695 0.75593 0.68717 0.0
H1083 H 0.56827 0.78683 0.69582 0.0
H1084 H 0.51185 0.86266 0.62283 0.0
H1085 H 0.51651 0.81487 0.65705 0.0
H1086 H 0.71644 0.82563 0.51211 0.0
H1087 H 0.72639 0.78706 0.55636 0.0
H1088 H 0.68506 0.88404 0.49852 0.0
H1089 H 0.63217 0.9096 0.50377 0.0
C1090 C 0.64424 0.18261 0.36554 0.0
C1091 C 0.69314 0.17518 0.36252 0.0
C1092 C 0.67359 0.10186 0.40315 0.0
C1093 C 0.62333 0.10556 0.39662 0.0
N1094 N 0.56221 0.14854 0.36168 0.0
N1095 N 0.75634 0.13939 0.40015 0.0
C1096 C 0.60901 0.14545 0.37488 0.0
C1097 C 0.7087 0.13791 0.38748 0.0
N1098 N 0.6316 0.22612 0.36416 0.0
N1099 N 0.68776 0.06285 0.42165 0.0
H1100 H 0.78101 0.16848 0.3953 0.0
H1101 H 0.77022 0.11516 0.42104 0.0
H1102 H 0.66344 0.03569 0.43305 0.0
H1103 H 0.72337 0.0555 0.42236 0.0
H1104 H 0.59642 0.23357 0.37002 0.0
H1105 H 0.65735 0.25502 0.36525 0.0
H1106 H 0.55277 0.17481 0.34041 0.0
H1107 H 0.53299 0.12456 0.36878 0.0
C1108 C 0.87825 0.68605 0.39452 0.0
C1109 C 0.86038 0.67278 0.34761 0.0
C1110 C 0.91517 0.61248 0.34859 0.0
C1111 C 0.92512 0.61926 0.39807 0.0
N1112 N 0.90741 0.66053 0.46979 0.0
N1113 N 0.85345 0.61088 0.28826 0.0
C1114 C 0.90412 0.65546 0.42161 0.0
C1115 C 0.87635 0.63234 0.32713 0.0
N1116 N 0.87358 0.72866 0.4128 0.0
N1117 N 0.94389 0.58842 0.32102 0.0
H1118 H 0.82145 0.62013 0.27424 0.0
H1119 H 0.86246 0.57978 0.27446 0.0
H1120 H 0.97552 0.57708 0.33391 0.0
H1121 H 0.93977 0.58553 0.2842 0.0
H1122 H 0.8899 0.74117 0.4447 0.0
H1123 H 0.85913 0.75364 0.39369 0.0
H1124 H 0.88873 0.68354 0.48877 0.0
H1125 H 0.92482 0.63899 0.49115 0.0
C1126 C 0.35388 0.80386 0.39977 0.0
C1127 C 0.36121 0.79453 0.35138 0.0
C1128 C 0.42 0.86222 0.34527 0.0
C1129 C 0.40946 0.87457 0.3928 0.0
N1130 N 0.36556 0.85917 0.46536 0.0
N1131 N 0.41377 0.80244 0.28429 0.0
C1132 C 0.37674 0.84551 0.4205 0.0
C1133 C 0.3982 0.82002 0.326 0.0
N1134 N 0.3267 0.77193 0.42575 0.0
N1135 N 0.44964 0.8911 0.31789 0.0
H1136 H 0.39985 0.77017 0.2707 0.0
H1137 H 0.44383 0.81698 0.26598 0.0
H1138 H 0.46866 0.92163 0.3303 0.0
H1139 H 0.45278 0.88657 0.28136 0.0
H1140 H 0.32253 0.77442 0.46232 0.0
H1141 H 0.3119 0.74049 0.41076 0.0
H1142 H 0.3391 0.84152 0.48602 0.0
H1143 H 0.38049 0.89025 0.481 0.0
C1144 C 0.16519 0.38584 0.32118 0.0
C1145 C 0.18579 0.35008 0.34474 0.0
C1146 C 0.14057 0.37178 0.4177 0.0
C1147 C 0.11958 0.40763 0.39386 0.0
N1148 N 0.10426 0.43754 0.3157 0.0
N1149 N 0.19731 0.31459 0.41992 0.0
C1150 C 0.12973 0.41125 0.34374 0.0
C1151 C 0.17489 0.34508 0.39428 0.0
N1152 N 0.18256 0.39885 0.2777 0.0
N1153 N 0.12331 0.35892 0.46126 0.0
H1154 H 0.21717 0.29035 0.40482 0.0
H1155 H 0.19842 0.3148 0.45685 0.0
H1156 H 0.09542 0.37339 0.47786 0.0
H1157 H 0.13188 0.33004 0.47871 0.0
H1158 H 0.17462 0.42849 0.26114 0.0
H1159 H 0.20966 0.38355 0.26058 0.0
H1160 H 0.10307 0.43405 0.27881 0.0
H1161 H 0.08227 0.46126 0.32788 0.0
C1162 C 0.37893 0.10947 0.66624 0.0
C1163 C 0.36699 0.14495 0.63623 0.0
C1164 C 0.42791 0.12826 0.58073 0.0
C1165 C 0.4354 0.08869 0.60662 0.0
N1166 N 0.41434 0.03871 0.67239 0.0
N1167 N 0.37203 0.18155 0.56062 0.0
C1168 C 0.40978 0.07827 0.64891 0.0
C1169 C 0.38855 0.15186 0.59184 0.0
N1170 N 0.36359 0.10706 0.71212 0.0
N1171 N 0.461 0.14622 0.54889 0.0
H1172 H 0.34232 0.19912 0.56761 0.0
H1173 H 0.38493 0.18509 0.5262 0.0
H1174 H 0.4934 0.13295 0.54342 0.0
H1175 H 0.45965 0.1781 0.53371 0.0
H1176 H 0.37707 0.08608 0.7371 0.0
H1177 H 0.34027 0.12832 0.72682 0.0
H1178 H 0.39212 0.02728 0.70026 0.0
H1179 H 0.43683 0.0147 0.66146 0.0
C1180 C 0.84949 0.38876 0.65882 0.0
C1181 C 0.86005 0.34291 0.66499 0.0
C1182 C 0.92846 0.35853 0.61135 0.0
C1183 C 0.92455 0.40601 0.61449 0.0
N1184 N 0.88168 0.46743 0.64323 0.0
N1185 N 0.9203 0.2899 0.65617 0.0
C1186 C 0.8852 0.42156 0.63903 0.0
C1187 C 0.90209 0.32897 0.64322 0.0
N1188 N 0.80477 0.40055 0.66936 0.0
N1189 N 0.95781 0.34139 0.5787 0.0
H1190 H 0.90723 0.27058 0.68461 0.0
H1191 H 0.95288 0.28067 0.64338 0.0
H1192 H 0.97811 0.36198 0.55478 0.0
H1193 H 0.95829 0.30623 0.57281 0.0
H1194 H 0.79428 0.43261 0.66212 0.0
H1195 H 0.77625 0.37669 0.67959 0.0
H1196 H 0.85671 0.48097 0.66512 0.0
H1197 H 0.90572 0.49196 0.62687 0.0
C1198 C 0.20613 0.68728 0.6111 0.0
C1199 C 0.19453 0.70244 0.65743 0.0
C1200 C 0.10884 0.67645 0.63883 0.0
C1201 C 0.12323 0.65039 0.6002 0.0
N1202 N 0.18478 0.63279 0.54602 0.0
N1203 N 0.13077 0.71727 0.71196 0.0
C1204 C 0.1716 0.65684 0.58479 0.0
C1205 C 0.14459 0.69946 0.67004 0.0
N1206 N 0.24937 0.7033 0.59172 0.0
N1207 N 0.06078 0.67956 0.64516 0.0
H1208 H 0.15224 0.74271 0.73061 0.0
H1209 H 0.09704 0.70815 0.72692 0.0
H1210 H 0.03434 0.66355 0.62181 0.0
H1211 H 0.04762 0.70147 0.67014 0.0
H1212 H 0.25853 0.69591 0.55688 0.0
H1213 H 0.27312 0.72888 0.60857 0.0
H1214 H 0.22062 0.63211 0.5361 0.0
H1215 H 0.1596 0.6119 0.52507 0.0
loop_
_geom_bond_atom_site_label_1
_geom_bond_atom_site_label_2
_geom_bond_distance
_geom_bond_site_symmetry_2
_ccdc_geom_bond_type
Dy0 O4 2.398 . S
Dy0 O5 2.491 . S
Dy0 O6 2.403 . S
Dy0 O7 2.664 . S
Dy0 O11 2.326 . S
Dy0 O15 2.310 . S
Dy0 O16 2.351 . S
C1 O12 1.185 . S
C1 O13 1.355 . S
C2 O4 1.185 . S
C2 O5 1.355 . S
Dy3 O7 2.310 . S
Dy3 O10 2.351 . S
Dy3 O12 2.398 . S
Dy3 O13 2.491 . S
Dy3 O14 2.403 . S
Dy3 O15 2.664 . S
Dy3 O17 2.326 . S
O4 Dy0 2.398 . S
O4 C2 1.185 . S
O5 Dy0 2.491 . S
O5 C2 1.355 . S
O6 Dy0 2.403 . S
O6 C8 1.254 . S
O7 Dy0 2.664 . S
O7 Dy3 2.310 . S
O7 C8 1.268 . S
C8 O6 1.254 . S
C8 O7 1.268 . S
C9 O14 1.254 . S
C9 O15 1.268 . S
O10 Dy3 2.351 . S
O10 C18 1.249 . S
O11 Dy0 2.326 . S
O11 C18 1.267 . S
O12 C1 1.185 . S
O12 Dy3 2.398 . S
O13 C1 1.355 . S
O13 Dy3 2.491 . S
O14 Dy3 2.403 . S
O14 C9 1.254 . S
O15 Dy0 2.310 . S
O15 Dy3 2.664 . S
O15 C9 1.268 . S
O16 Dy0 2.351 . S
O16 C19 1.249 . S
O17 Dy3 2.326 . S
O17 C19 1.267 . S
C18 O10 1.249 . S
C18 O11 1.267 . S
C19 O16 1.249 . S
C19 O17 1.267 . S
Dy20 O24 2.398 . S
Dy20 O25 2.491 . S
Dy20 O26 2.403 . S
Dy20 O27 2.664 . S
Dy20 O31 2.326 . S
Dy20 O35 2.310 . S
Dy20 O36 2.351 . S
C21 O32 1.185 . S
C21 O33 1.355 . S
C22 O24 1.185 . S
C22 O25 1.355 . S
Dy23 O27 2.310 . S
Dy23 O30 2.351 . S
Dy23 O32 2.398 . S
Dy23 O33 2.491 . S
Dy23 O34 2.403 . S
Dy23 O35 2.664 . S
Dy23 O37 2.326 . S
O24 Dy20 2.398 . S
O24 C22 1.185 . S
O25 Dy20 2.491 . S
O25 C22 1.355 . S
O26 Dy20 2.403 . S
O26 C28 1.254 . S
O27 Dy20 2.664 . S
O27 Dy23 2.310 . S
O27 C28 1.268 . S
C28 O26 1.254 . S
C28 O27 1.268 . S
C29 O34 1.254 . S
C29 O35 1.268 . S
O30 Dy23 2.351 . S
O30 C38 1.249 . S
O31 Dy20 2.326 . S
O31 C38 1.267 . S
O32 C21 1.185 . S
O32 Dy23 2.398 . S
O33 C21 1.355 . S
O33 Dy23 2.491 . S
O34 Dy23 2.403 . S
O34 C29 1.254 . S
O35 Dy20 2.310 . S
O35 Dy23 2.664 . S
O35 C29 1.268 . S
O36 Dy20 2.351 . S
O36 C39 1.249 . S
O37 Dy23 2.326 . S
O37 C39 1.267 . S
C38 O30 1.249 . S
C38 O31 1.267 . S
C39 O36 1.249 . S
C39 O37 1.267 . S
Dy40 O44 2.398 . S
Dy40 O45 2.491 . S
Dy40 O46 2.403 . S
Dy40 O47 2.664 . S
Dy40 O51 2.326 . S
Dy40 O55 2.310 . S
Dy40 O56 2.351 . S
C41 O52 1.185 . S
C41 O53 1.355 . S
C42 O44 1.185 . S
C42 O45 1.355 . S
Dy43 O47 2.310 . S
Dy43 O50 2.351 . S
Dy43 O52 2.398 . S
Dy43 O53 2.491 . S
Dy43 O54 2.403 . S
Dy43 O55 2.664 . S
Dy43 O57 2.326 . S
O44 Dy40 2.398 . S
O44 C42 1.185 . S
O45 Dy40 2.491 . S
O45 C42 1.355 . S
O46 Dy40 2.403 . S
O46 C48 1.254 . S
O47 Dy40 2.664 . S
O47 Dy43 2.310 . S
O47 C48 1.268 . S
C48 O46 1.254 . S
C48 O47 1.268 . S
C49 O54 1.254 . S
C49 O55 1.268 . S
O50 Dy43 2.351 . S
O50 C58 1.249 . S
O51 Dy40 2.326 . S
O51 C58 1.267 . S
O52 C41 1.185 . S
O52 Dy43 2.398 . S
O53 C41 1.355 . S
O53 Dy43 2.491 . S
O54 Dy43 2.403 . S
O54 C49 1.254 . S
O55 Dy40 2.310 . S
O55 Dy43 2.664 . S
O55 C49 1.268 . S
O56 Dy40 2.351 . S
O56 C59 1.249 . S
O57 Dy43 2.326 . S
O57 C59 1.267 . S
C58 O50 1.249 . S
C58 O51 1.267 . S
C59 O56 1.249 . S
C59 O57 1.267 . S
Dy60 O64 2.398 . S
Dy60 O65 2.491 . S
Dy60 O66 2.403 . S
Dy60 O67 2.664 . S
Dy60 O71 2.326 . S
Dy60 O75 2.310 . S
Dy60 O76 2.351 . S
C61 O72 1.185 . S
C61 O73 1.355 . S
C62 O64 1.185 . S
C62 O65 1.355 . S
Dy63 O67 2.310 . S
Dy63 O70 2.351 . S
Dy63 O72 2.398 . S
Dy63 O73 2.491 . S
Dy63 O74 2.403 . S
Dy63 O75 2.664 . S
Dy63 O77 2.326 . S
O64 Dy60 2.398 . S
O64 C62 1.185 . S
O65 Dy60 2.491 . S
O65 C62 1.355 . S
O66 Dy60 2.403 . S
O66 C68 1.254 . S
O67 Dy60 2.664 . S
O67 Dy63 2.310 . S
O67 C68 1.268 . S
C68 O66 1.254 . S
C68 O67 1.268 . S
C69 O74 1.254 . S
C69 O75 1.268 . S
O70 Dy63 2.351 . S
O70 C78 1.249 . S
O71 Dy60 2.326 . S
O71 C78 1.267 . S
O72 C61 1.185 . S
O72 Dy63 2.398 . S
O73 C61 1.355 . S
O73 Dy63 2.491 . S
O74 Dy63 2.403 . S
O74 C69 1.254 . S
O75 Dy60 2.310 . S
O75 Dy63 2.664 . S
O75 C69 1.268 . S
O76 Dy60 2.351 . S
O76 C79 1.249 . S
O77 Dy63 2.326 . S
O77 C79 1.267 . S
C78 O70 1.249 . S
C78 O71 1.267 . S
C79 O76 1.249 . S
C79 O77 1.267 . S
Dy80 O84 2.398 . S
Dy80 O85 2.491 . S
Dy80 O86 2.403 . S
Dy80 O87 2.664 . S
Dy80 O91 2.326 . S
Dy80 O95 2.310 . S
Dy80 O96 2.351 . S
C81 O92 1.185 . S
C81 O93 1.355 . S
C82 O84 1.185 . S
C82 O85 1.355 . S
Dy83 O87 2.310 . S
Dy83 O90 2.351 . S
Dy83 O92 2.398 . S
Dy83 O93 2.491 . S
Dy83 O94 2.403 . S
Dy83 O95 2.664 . S
Dy83 O97 2.326 . S
O84 Dy80 2.398 . S
O84 C82 1.185 . S
O85 Dy80 2.491 . S
O85 C82 1.355 . S
O86 Dy80 2.403 . S
O86 C88 1.254 . S
O87 Dy80 2.664 . S
O87 Dy83 2.310 . S
O87 C88 1.268 . S
C88 O86 1.254 . S
C88 O87 1.268 . S
C89 O94 1.254 . S
C89 O95 1.268 . S
O90 Dy83 2.351 . S
O90 C98 1.249 . S
O91 Dy80 2.326 . S
O91 C98 1.267 . S
O92 C81 1.185 . S
O92 Dy83 2.398 . S
O93 C81 1.355 . S
O93 Dy83 2.491 . S
O94 Dy83 2.403 . S
O94 C89 1.254 . S
O95 Dy80 2.310 . S
O95 Dy83 2.664 . S
O95 C89 1.268 . S
O96 Dy80 2.351 . S
O96 C99 1.249 . S
O97 Dy83 2.326 . S
O97 C99 1.267 . S
C98 O90 1.249 . S
C98 O91 1.267 . S
C99 O96 1.249 . S
C99 O97 1.267 . S
Dy100 O104 2.398 . S
Dy100 O105 2.491 . S
Dy100 O106 2.403 . S
Dy100 O107 2.664 . S
Dy100 O111 2.326 . S
Dy100 O115 2.310 . S
Dy100 O116 2.351 . S
C101 O112 1.185 . S
C101 O113 1.355 . S
C102 O104 1.185 . S
C102 O105 1.355 . S
Dy103 O107 2.310 . S
Dy103 O110 2.351 . S
Dy103 O112 2.398 . S
Dy103 O113 2.491 . S
Dy103 O114 2.403 . S
Dy103 O115 2.664 . S
Dy103 O117 2.326 . S
O104 Dy100 2.398 . S
O104 C102 1.185 . S
O105 Dy100 2.491 . S
O105 C102 1.355 . S
O106 Dy100 2.403 . S
O106 C108 1.254 . S
O107 Dy100 2.664 . S
O107 Dy103 2.310 . S
O107 C108 1.268 . S
C108 O106 1.254 . S
C108 O107 1.268 . S
C109 O114 1.254 . S
C109 O115 1.268 . S
O110 Dy103 2.351 . S
O110 C118 1.249 . S
O111 Dy100 2.326 . S
O111 C118 1.267 . S
O112 C101 1.185 . S
O112 Dy103 2.398 . S
O113 C101 1.355 . S
O113 Dy103 2.491 . S
O114 Dy103 2.403 . S
O114 C109 1.254 . S
O115 Dy100 2.310 . S
O115 Dy103 2.664 . S
O115 C109 1.268 . S
O116 Dy100 2.351 . S
O116 C119 1.249 . S
O117 Dy103 2.326 . S
O117 C119 1.267 . S
C118 O110 1.249 . S
C118 O111 1.267 . S
C119 O116 1.249 . S
C119 O117 1.267 . S
Dy120 O124 2.398 . S
Dy120 O125 2.491 . S
Dy120 O126 2.403 . S
Dy120 O127 2.664 . S
Dy120 O131 2.326 . S
Dy120 O135 2.310 . S
Dy120 O136 2.351 . S
C121 O132 1.185 . S
C121 O133 1.355 . S
C122 O124 1.185 . S
C122 O125 1.355 . S
Dy123 O127 2.310 . S
Dy123 O130 2.351 . S
Dy123 O132 2.398 . S
Dy123 O133 2.491 . S
Dy123 O134 2.403 . S
Dy123 O135 2.664 . S
Dy123 O137 2.326 . S
O124 Dy120 2.398 . S
O124 C122 1.185 . S
O125 Dy120 2.491 . S
O125 C122 1.355 . S
O126 Dy120 2.403 . S
O126 C128 1.254 . S
O127 Dy120 2.664 . S
O127 Dy123 2.310 . S
O127 C128 1.268 . S
C128 O126 1.254 . S
C128 O127 1.268 . S
C129 O134 1.254 . S
C129 O135 1.268 . S
O130 Dy123 2.351 . S
O130 C138 1.249 . S
O131 Dy120 2.326 . S
O131 C138 1.267 . S
O132 C121 1.185 . S
O132 Dy123 2.398 . S
O133 C121 1.355 . S
O133 Dy123 2.491 . S
O134 Dy123 2.403 . S
O134 C129 1.254 . S
O135 Dy120 2.310 . S
O135 Dy123 2.664 . S
O135 C129 1.268 . S
O136 Dy120 2.351 . S
O136 C139 1.249 . S
O137 Dy123 2.326 . S
O137 C139 1.267 . S
C138 O130 1.249 . S
C138 O131 1.267 . S
C139 O136 1.249 . S
C139 O137 1.267 . S
Dy140 O144 2.398 . S
Dy140 O145 2.491 . S
Dy140 O146 2.403 . S
Dy140 O147 2.664 . S
Dy140 O151 2.326 . S
Dy140 O155 2.310 . S
Dy140 O156 2.351 . S
C141 O152 1.185 . S
C141 O153 1.355 . S
C142 O144 1.185 . S
C142 O145 1.355 . S
Dy143 O147 2.310 . S
Dy143 O150 2.351 . S
Dy143 O152 2.398 . S
Dy143 O153 2.491 . S
Dy143 O154 2.403 . S
Dy143 O155 2.664 . S
Dy143 O157 2.326 . S
O144 Dy140 2.398 . S
O144 C142 1.185 . S
O145 Dy140 2.491 . S
O145 C142 1.355 . S
O146 Dy140 2.403 . S
O146 C148 1.254 . S
O147 Dy140 2.664 . S
O147 Dy143 2.310 . S
O147 C148 1.268 . S
C148 O146 1.254 . S
C148 O147 1.268 . S
C149 O154 1.254 . S
C149 O155 1.268 . S
O150 Dy143 2.351 . S
O150 C158 1.249 . S
O151 Dy140 2.326 . S
O151 C158 1.267 . S
O152 C141 1.185 . S
O152 Dy143 2.398 . S
O153 C141 1.355 . S
O153 Dy143 2.491 . S
O154 Dy143 2.403 . S
O154 C149 1.254 . S
O155 Dy140 2.310 . S
O155 Dy143 2.664 . S
O155 C149 1.268 . S
O156 Dy140 2.351 . S
O156 C159 1.249 . S
O157 Dy143 2.326 . S
O157 C159 1.267 . S
C158 O150 1.249 . S
C158 O151 1.267 . S
C159 O156 1.249 . S
C159 O157 1.267 . S
Fe160 O161 1.886 1_455 S
Fe160 O164 1.715 . S
Fe160 O169 2.077 1_455 S
Fe160 O174 1.935 . S
Fe160 O180 2.077 1_455 S
Fe160 O189 1.935 . S
O161 Fe160 1.886 1_655 S
O161 Fe163 1.715 1_545 S
Fe162 O164 1.886 . S
Fe162 O165 1.715 1_545 S
Fe162 O172 1.935 1_545 S
Fe162 O173 2.077 . S
Fe162 O179 1.935 1_545 S
Fe162 O188 2.077 . S
Fe163 O161 1.715 1_565 S
Fe163 O166 1.886 . S
Fe163 O170 1.935 1_565 S
Fe163 O175 2.077 . S
Fe163 O181 1.935 1_565 S
Fe163 O185 2.077 . S
O164 Fe160 1.715 . S
O164 Fe162 1.886 . S
O165 Fe162 1.715 1_565 S
O165 Fe167 1.886 1_455 S
O166 Fe163 1.886 . S
O166 Fe167 1.715 . S
Fe167 O165 1.886 1_655 S
Fe167 O166 1.715 . S
Fe167 O171 2.077 1_655 S
Fe167 O176 1.935 . S
Fe167 O178 2.077 1_655 S
Fe167 O186 1.935 . S
C168 O180 1.381 . S
C168 O181 1.421 . S
O169 Fe160 2.077 1_655 S
O169 C182 1.381 . S
O170 Fe163 1.935 1_545 S
O170 C182 1.421 . S
O171 Fe167 2.077 1_455 S
O171 C187 1.381 . S
O172 Fe162 1.935 1_565 S
O172 C187 1.421 . S
O173 Fe162 2.077 . S
O173 C177 1.381 . S
O174 Fe160 1.935 . S
O174 C177 1.421 . S
O175 Fe163 2.077 . S
O175 C183 1.381 . S
O176 Fe167 1.935 . S
O176 C183 1.421 . S
C177 O173 1.381 . S
C177 O174 1.421 . S
O178 Fe167 2.077 1_455 S
O178 C190 1.381 . S
O179 Fe162 1.935 1_565 S
O179 C190 1.421 . S
O180 Fe160 2.077 1_655 S
O180 C168 1.381 . S
O181 Fe163 1.935 1_545 S
O181 C168 1.421 . S
C182 O169 1.381 . S
C182 O170 1.421 . S
C183 O175 1.381 . S
C183 O176 1.421 . S
C184 O185 1.381 . S
C184 O186 1.421 . S
O185 Fe163 2.077 . S
O185 C184 1.381 . S
O186 Fe167 1.935 . S
O186 C184 1.421 . S
C187 O171 1.381 . S
C187 O172 1.421 . S
O188 Fe162 2.077 . S
O188 C191 1.381 . S
O189 Fe160 1.935 . S
O189 C191 1.421 . S
C190 O178 1.381 . S
C190 O179 1.421 . S
C191 O188 1.381 . S
C191 O189 1.421 . S
Fe192 O193 1.886 1_556 S
Fe192 O196 1.715 . S
Fe192 O201 2.077 . S
Fe192 O206 1.935 . S
Fe192 O212 2.077 1_556 S
Fe192 O221 1.935 1_556 S
O193 Fe192 1.886 1_554 S
O193 Fe195 1.715 1_565 S
Fe194 O196 1.886 . S
Fe194 O197 1.715 1_565 S
Fe194 O204 1.935 1_565 S
Fe194 O205 2.077 . S
Fe194 O211 1.935 1_566 S
Fe194 O220 2.077 1_556 S
Fe195 O193 1.715 1_545 S
Fe195 O198 1.886 . S
Fe195 O202 1.935 1_544 S
Fe195 O207 2.077 1_554 S
Fe195 O213 1.935 1_545 S
Fe195 O217 2.077 . S
O196 Fe192 1.715 . S
O196 Fe194 1.886 . S
O197 Fe194 1.715 1_545 S
O197 Fe199 1.885 1_556 S
O198 Fe195 1.886 . S
O198 Fe199 1.715 . S
Fe199 O197 1.885 1_554 S
Fe199 O198 1.715 . S
Fe199 O203 2.077 1_554 S
Fe199 O208 1.935 1_554 S
Fe199 O210 2.077 . S
Fe199 O218 1.935 . S
C200 O212 1.381 . S
C200 O213 1.421 . S
O201 Fe192 2.077 . S
O201 C214 1.381 . S
O202 Fe195 1.935 1_566 S
O202 C214 1.421 . S
O203 Fe199 2.077 1_556 S
O203 C219 1.381 . S
O204 Fe194 1.935 1_545 S
O204 C219 1.421 . S
O205 Fe194 2.077 . S
O205 C209 1.381 . S
O206 Fe192 1.935 . S
O206 C209 1.421 . S
O207 Fe195 2.077 1_556 S
O207 C215 1.381 . S
O208 Fe199 1.935 1_556 S
O208 C215 1.421 . S
C209 O205 1.381 . S
C209 O206 1.421 . S
O210 Fe199 2.077 . S
O210 C222 1.381 . S
O211 Fe194 1.935 1_544 S
O211 C222 1.421 . S
O212 Fe192 2.077 1_554 S
O212 C200 1.381 . S
O213 Fe195 1.935 1_565 S
O213 C200 1.421 . S
C214 O201 1.381 . S
C214 O202 1.421 . S
C215 O207 1.381 . S
C215 O208 1.421 . S
C216 O217 1.381 . S
C216 O218 1.421 . S
O217 Fe195 2.077 . S
O217 C216 1.381 . S
O218 Fe199 1.935 . S
O218 C216 1.421 . S
C219 O203 1.381 . S
C219 O204 1.421 . S
O220 Fe194 2.077 1_554 S
O220 C223 1.381 . S
O221 Fe192 1.935 1_554 S
O221 C223 1.421 . S
C222 O210 1.381 . S
C222 O211 1.421 . S
C223 O220 1.381 . S
C223 O221 1.421 . S
Fe224 O225 1.885 1_454 S
Fe224 O228 1.715 . S
Fe224 O233 2.077 1_454 S
Fe224 O238 1.935 1_554 S
Fe224 O244 2.077 1_455 S
Fe224 O253 1.935 . S
O225 Fe224 1.885 1_656 S
O225 Fe227 1.715 . S
Fe226 O228 1.886 . S
Fe226 O229 1.715 . S
Fe226 O236 1.935 1_554 S
Fe226 O237 2.077 1_554 S
Fe226 O243 1.935 . S
Fe226 O252 2.077 . S
Fe227 O225 1.715 . S
Fe227 O230 1.886 . S
Fe227 O234 1.935 . S
Fe227 O239 2.077 . S
Fe227 O245 1.935 1_556 S
Fe227 O249 2.077 1_556 S
O228 Fe224 1.715 . S
O228 Fe226 1.886 . S
O229 Fe226 1.715 . S
O229 Fe231 1.886 1_454 S
O230 Fe227 1.886 . S
O230 Fe231 1.715 . S
Fe231 O229 1.886 1_656 S
Fe231 O230 1.715 . S
Fe231 O235 2.077 1_655 S
Fe231 O240 1.935 . S
Fe231 O242 2.077 1_656 S
Fe231 O250 1.935 1_556 S
C232 O244 1.381 . S
C232 O245 1.421 . S
O233 Fe224 2.077 1_656 S
O233 C246 1.381 . S
O234 Fe227 1.935 . S
O234 C246 1.421 . S
O235 Fe231 2.077 1_455 S
O235 C251 1.381 . S
O236 Fe226 1.935 1_556 S
O236 C251 1.421 . S
O237 Fe226 2.077 1_556 S
O237 C241 1.381 . S
O238 Fe224 1.935 1_556 S
O238 C241 1.421 . S
O239 Fe227 2.077 . S
O239 C247 1.381 . S
O240 Fe231 1.935 . S
O240 C247 1.421 . S
C241 O237 1.381 . S
C241 O238 1.421 . S
O242 Fe231 2.077 1_454 S
O242 C254 1.381 . S
O243 Fe226 1.935 . S
O243 C254 1.421 . S
O244 Fe224 2.077 1_655 S
O244 C232 1.381 . S
O245 Fe227 1.935 1_554 S
O245 C232 1.421 . S
C246 O233 1.381 . S
C246 O234 1.421 . S
C247 O239 1.381 . S
C247 O240 1.421 . S
C248 O249 1.381 . S
C248 O250 1.421 . S
O249 Fe227 2.077 1_554 S
O249 C248 1.381 . S
O250 Fe231 1.935 1_554 S
O250 C248 1.421 . S
C251 O235 1.381 . S
C251 O236 1.421 . S
O252 Fe226 2.077 . S
O252 C255 1.381 . S
O253 Fe224 1.935 . S
O253 C255 1.421 . S
C254 O242 1.381 . S
C254 O243 1.421 . S
C255 O252 1.381 . S
C255 O253 1.421 . S
Fe256 O257 1.886 . S
Fe256 O260 1.715 . S
Fe256 O265 2.077 . S
Fe256 O270 1.935 . S
Fe256 O276 2.077 . S
Fe256 O285 1.935 . S
O257 Fe256 1.886 . S
O257 Fe259 1.715 1_556 S
Fe258 O260 1.886 . S
Fe258 O261 1.715 1_556 S
Fe258 O268 1.935 1_556 S
Fe258 O269 2.077 . S
Fe258 O275 1.935 1_556 S
Fe258 O284 2.077 . S
Fe259 O257 1.715 1_554 S
Fe259 O262 1.886 . S
Fe259 O266 1.935 1_554 S
Fe259 O271 2.077 . S
Fe259 O277 1.935 1_554 S
Fe259 O281 2.077 . S
O260 Fe256 1.715 . S
O260 Fe258 1.886 . S
O261 Fe258 1.715 1_554 S
O261 Fe263 1.886 . S
O262 Fe259 1.886 . S
O262 Fe263 1.715 . S
Fe263 O261 1.886 . S
Fe263 O262 1.715 . S
Fe263 O267 2.077 . S
Fe263 O272 1.935 . S
Fe263 O274 2.077 . S
Fe263 O282 1.935 . S
C264 O276 1.381 . S
C264 O277 1.421 . S
O265 Fe256 2.077 . S
O265 C278 1.381 . S
O266 Fe259 1.935 1_556 S
O266 C278 1.421 . S
O267 Fe263 2.077 . S
O267 C283 1.381 . S
O268 Fe258 1.935 1_554 S
O268 C283 1.421 . S
O269 Fe258 2.077 . S
O269 C273 1.381 . S
O270 Fe256 1.935 . S
O270 C273 1.421 . S
O271 Fe259 2.077 . S
O271 C279 1.381 . S
O272 Fe263 1.935 . S
O272 C279 1.421 . S
C273 O269 1.381 . S
C273 O270 1.421 . S
O274 Fe263 2.077 . S
O274 C286 1.381 . S
O275 Fe258 1.935 1_554 S
O275 C286 1.421 . S
O276 Fe256 2.077 . S
O276 C264 1.381 . S
O277 Fe259 1.935 1_556 S
O277 C264 1.421 . S
C278 O265 1.381 . S
C278 O266 1.421 . S
C279 O271 1.381 . S
C279 O272 1.421 . S
C280 O281 1.381 . S
C280 O282 1.421 . S
O281 Fe259 2.077 . S
O281 C280 1.381 . S
O282 Fe263 1.935 . S
O282 C280 1.421 . S
C283 O267 1.381 . S
C283 O268 1.421 . S
O284 Fe258 2.077 . S
O284 C287 1.381 . S
O285 Fe256 1.935 . S
O285 C287 1.421 . S
C286 O274 1.381 . S
C286 O275 1.421 . S
C287 O284 1.381 . S
C287 O285 1.421 . S
Fe288 O289 1.886 . S
Fe288 O292 1.715 . S
Fe288 O297 2.077 1_655 S
Fe288 O302 1.935 1_655 S
Fe288 O308 2.077 . S
Fe288 O317 1.935 . S
O289 Fe288 1.886 . S
O289 Fe291 1.715 1_655 S
Fe290 O292 1.886 . S
Fe290 O293 1.715 1_655 S
Fe290 O300 1.935 1_655 S
Fe290 O301 2.077 1_655 S
Fe290 O307 1.935 . S
Fe290 O316 2.077 . S
Fe291 O289 1.715 1_455 S
Fe291 O294 1.886 . S
Fe291 O298 1.935 . S
Fe291 O303 2.077 . S
Fe291 O309 1.935 1_455 S
Fe291 O313 2.077 1_455 S
O292 Fe288 1.715 . S
O292 Fe290 1.886 . S
O293 Fe290 1.715 1_455 S
O293 Fe295 1.886 . S
O294 Fe291 1.886 . S
O294 Fe295 1.715 . S
Fe295 O293 1.886 . S
Fe295 O294 1.715 . S
Fe295 O299 2.077 . S
Fe295 O304 1.935 . S
Fe295 O306 2.077 1_455 S
Fe295 O314 1.935 1_455 S
C296 O308 1.381 . S
C296 O309 1.421 . S
O297 Fe288 2.077 1_455 S
O297 C310 1.381 . S
O298 Fe291 1.935 . S
O298 C310 1.421 . S
O299 Fe295 2.077 . S
O299 C315 1.381 . S
O300 Fe290 1.935 1_455 S
O300 C315 1.421 . S
O301 Fe290 2.077 1_455 S
O301 C305 1.381 . S
O302 Fe288 1.935 1_455 S
O302 C305 1.421 . S
O303 Fe291 2.077 . S
O303 C311 1.381 . S
O304 Fe295 1.935 . S
O304 C311 1.421 . S
C305 O301 1.381 . S
C305 O302 1.421 . S
O306 Fe295 2.077 1_655 S
O306 C318 1.381 . S
O307 Fe290 1.935 . S
O307 C318 1.421 . S
O308 Fe288 2.077 . S
O308 C296 1.381 . S
O309 Fe291 1.935 1_655 S
O309 C296 1.421 . S
C310 O297 1.381 . S
C310 O298 1.421 . S
C311 O303 1.381 . S
C311 O304 1.421 . S
C312 O313 1.381 . S
C312 O314 1.421 . S
O313 Fe291 2.077 1_655 S
O313 C312 1.381 . S
O314 Fe295 1.935 1_655 S
O314 C312 1.421 . S
C315 O299 1.381 . S
C315 O300 1.421 . S
O316 Fe290 2.077 . S
O316 C319 1.381 . S
O317 Fe288 1.935 . S
O317 C319 1.421 . S
C318 O306 1.381 . S
C318 O307 1.421 . S
C319 O316 1.381 . S
C319 O317 1.421 . S
Fe320 O321 1.886 . S
Fe320 O324 1.715 . S
Fe320 O329 2.077 . S
Fe320 O334 1.935 . S
Fe320 O340 2.077 . S
Fe320 O349 1.935 . S
O321 Fe320 1.886 . S
O321 Fe323 1.715 1_565 S
Fe322 O324 1.886 . S
Fe322 O325 1.715 1_565 S
Fe322 O332 1.935 1_565 S
Fe322 O333 2.077 . S
Fe322 O339 1.935 1_565 S
Fe322 O348 2.077 . S
Fe323 O321 1.715 1_545 S
Fe323 O326 1.886 . S
Fe323 O330 1.935 1_545 S
Fe323 O335 2.077 . S
Fe323 O341 1.935 1_545 S
Fe323 O345 2.077 . S
O324 Fe320 1.715 . S
O324 Fe322 1.886 . S
O325 Fe322 1.715 1_545 S
O325 Fe327 1.886 . S
O326 Fe323 1.886 . S
O326 Fe327 1.715 . S
Fe327 O325 1.886 . S
Fe327 O326 1.715 . S
Fe327 O331 2.077 . S
Fe327 O336 1.935 . S
Fe327 O338 2.077 . S
Fe327 O346 1.935 . S
C328 O340 1.381 . S
C328 O341 1.421 . S
O329 Fe320 2.077 . S
O329 C342 1.381 . S
O330 Fe323 1.935 1_565 S
O330 C342 1.421 . S
O331 Fe327 2.077 . S
O331 C347 1.381 . S
O332 Fe322 1.935 1_545 S
O332 C347 1.421 . S
O333 Fe322 2.077 . S
O333 C337 1.381 . S
O334 Fe320 1.935 . S
O334 C337 1.421 . S
O335 Fe323 2.077 . S
O335 C343 1.381 . S
O336 Fe327 1.935 . S
O336 C343 1.421 . S
C337 O333 1.381 . S
C337 O334 1.421 . S
O338 Fe327 2.077 . S
O338 C350 1.381 . S
O339 Fe322 1.935 1_545 S
O339 C350 1.421 . S
O340 Fe320 2.077 . S
O340 C328 1.381 . S
O341 Fe323 1.935 1_565 S
O341 C328 1.421 . S
C342 O329 1.381 . S
C342 O330 1.421 . S
C343 O335 1.381 . S
C343 O336 1.421 . S
C344 O345 1.381 . S
C344 O346 1.421 . S
O345 Fe323 2.077 . S
O345 C344 1.381 . S
O346 Fe327 1.935 . S
O346 C344 1.421 . S
C347 O331 1.381 . S
C347 O332 1.421 . S
O348 Fe322 2.077 . S
O348 C351 1.381 . S
O349 Fe320 1.935 . S
O349 C351 1.421 . S
C350 O338 1.381 . S
C350 O339 1.421 . S
C351 O348 1.381 . S
C351 O349 1.421 . S
C352 C353 1.363 . S
C352 C358 1.379 . S
C352 N360 1.356 . S
C353 C352 1.363 . S
C353 C359 1.363 . S
C354 C355 1.363 . S
C354 C359 1.379 . S
C354 N361 1.356 . S
C355 C354 1.363 . S
C355 C358 1.363 . S
N356 C358 1.356 . S
N356 H368 0.984 . S
N356 H369 0.985 . S
N357 C359 1.356 . S
N357 H362 0.984 . S
N357 H363 0.985 . S
C358 C352 1.379 . S
C358 C355 1.363 . S
C358 N356 1.356 . S
C359 C353 1.363 . S
C359 C354 1.379 . S
C359 N357 1.356 . S
N360 C352 1.356 . S
N360 H366 0.984 . S
N360 H367 0.984 . S
N361 C354 1.356 . S
N361 H364 0.984 . S
N361 H365 0.985 . S
H362 N357 0.984 . S
H363 N357 0.985 . S
H364 N361 0.984 . S
H365 N361 0.985 . S
H366 N360 0.984 . S
H367 N360 0.984 . S
H368 N356 0.984 . S
H369 N356 0.985 . S
C370 C371 1.363 . S
C370 C376 1.379 . S
C370 N378 1.356 . S
C371 C370 1.363 . S
C371 C377 1.363 . S
C372 C373 1.363 . S
C372 C377 1.379 . S
C372 N379 1.356 . S
C373 C372 1.363 . S
C373 C376 1.363 . S
N374 C376 1.356 . S
N374 H386 0.984 1_545 S
N374 H387 0.985 . S
N375 C377 1.356 . S
N375 H380 0.984 . S
N375 H381 0.985 . S
C376 C370 1.379 . S
C376 C373 1.363 . S
C376 N374 1.356 . S
C377 C371 1.363 . S
C377 C372 1.379 . S
C377 N375 1.356 . S
N378 C370 1.356 . S
N378 H384 0.984 . S
N378 H385 0.984 . S
N379 C372 1.356 . S
N379 H382 0.984 . S
N379 H383 0.985 . S
H380 N375 0.984 . S
H381 N375 0.985 . S
H382 N379 0.984 . S
H383 N379 0.985 . S
H384 N378 0.984 . S
H385 N378 0.984 . S
H386 N374 0.984 1_565 S
H387 N374 0.985 . S
C388 C389 1.363 . S
C388 C394 1.379 . S
C388 N396 1.356 . S
C389 C388 1.363 . S
C389 C395 1.363 . S
C390 C391 1.363 . S
C390 C395 1.379 . S
C390 N397 1.356 . S
C391 C390 1.363 . S
C391 C394 1.363 . S
N392 C394 1.356 . S
N392 H404 0.984 . S
N392 H405 0.985 . S
N393 C395 1.356 . S
N393 H398 0.984 . S
N393 H399 0.985 . S
C394 C388 1.379 . S
C394 C391 1.363 . S
C394 N392 1.356 . S
C395 C389 1.363 . S
C395 C390 1.379 . S
C395 N393 1.356 . S
N396 C388 1.356 . S
N396 H402 0.984 . S
N396 H403 0.984 . S
N397 C390 1.356 . S
N397 H400 0.984 . S
N397 H401 0.985 . S
H398 N393 0.984 . S
H399 N393 0.985 . S
H400 N397 0.984 . S
H401 N397 0.985 . S
H402 N396 0.984 . S
H403 N396 0.984 . S
H404 N392 0.984 . S
H405 N392 0.985 . S
C406 C407 1.363 . S
C406 C412 1.379 . S
C406 N414 1.356 . S
C407 C406 1.363 . S
C407 C413 1.363 . S
C408 C409 1.363 . S
C408 C413 1.379 . S
C408 N415 1.356 . S
C409 C408 1.363 . S
C409 C412 1.363 . S
N410 C412 1.356 . S
N410 H422 0.984 . S
N410 H423 0.985 . S
N411 C413 1.356 . S
N411 H416 0.984 . S
N411 H417 0.985 . S
C412 C406 1.379 . S
C412 C409 1.363 . S
C412 N410 1.356 . S
C413 C407 1.363 . S
C413 C408 1.379 . S
C413 N411 1.356 . S
N414 C406 1.356 . S
N414 H420 0.984 . S
N414 H421 0.984 . S
N415 C408 1.356 . S
N415 H418 0.984 . S
N415 H419 0.985 . S
H416 N411 0.984 . S
H417 N411 0.985 . S
H418 N415 0.984 . S
H419 N415 0.985 . S
H420 N414 0.984 . S
H421 N414 0.984 . S
H422 N410 0.984 . S
H423 N410 0.985 . S
C424 C425 1.363 . S
C424 C430 1.379 . S
C424 N432 1.356 . S
C425 C424 1.363 . S
C425 C431 1.363 . S
C426 C427 1.363 . S
C426 C431 1.379 . S
C426 N433 1.356 . S
C427 C426 1.363 . S
C427 C430 1.363 . S
N428 C430 1.356 . S
N428 H440 0.984 . S
N428 H441 0.985 . S
N429 C431 1.356 . S
N429 H434 0.984 . S
N429 H435 0.985 . S
C430 C424 1.379 . S
C430 C427 1.363 . S
C430 N428 1.356 . S
C431 C425 1.363 . S
C431 C426 1.379 . S
C431 N429 1.356 . S
N432 C424 1.356 . S
N432 H438 0.984 . S
N432 H439 0.984 . S
N433 C426 1.356 . S
N433 H436 0.984 . S
N433 H437 0.985 . S
H434 N429 0.984 . S
H435 N429 0.985 . S
H436 N433 0.984 . S
H437 N433 0.985 . S
H438 N432 0.984 . S
H439 N432 0.984 . S
H440 N428 0.984 . S
H441 N428 0.985 . S
C442 C443 1.363 . S
C442 C448 1.379 . S
C442 N450 1.356 . S
C443 C442 1.363 . S
C443 C449 1.363 . S
C444 C445 1.363 . S
C444 C449 1.379 . S
C444 N451 1.356 . S
C445 C444 1.363 . S
C445 C448 1.363 . S
N446 C448 1.356 . S
N446 H458 0.984 . S
N446 H459 0.985 . S
N447 C449 1.356 . S
N447 H452 0.984 . S
N447 H453 0.985 . S
C448 C442 1.379 . S
C448 C445 1.363 . S
C448 N446 1.356 . S
C449 C443 1.363 . S
C449 C444 1.379 . S
C449 N447 1.356 . S
N450 C442 1.356 . S
N450 H456 0.984 . S
N450 H457 0.984 . S
N451 C444 1.356 . S
N451 H454 0.984 . S
N451 H455 0.985 . S
H452 N447 0.984 . S
H453 N447 0.985 . S
H454 N451 0.984 . S
H455 N451 0.985 . S
H456 N450 0.984 . S
H457 N450 0.984 . S
H458 N446 0.984 . S
H459 N446 0.985 . S
C460 C461 1.363 . S
C460 C466 1.379 . S
C460 N468 1.356 . S
C461 C460 1.363 . S
C461 C467 1.363 . S
C462 C463 1.363 . S
C462 C467 1.379 . S
C462 N469 1.356 . S
C463 C462 1.363 . S
C463 C466 1.363 . S
N464 C466 1.356 . S
N464 H476 0.984 . S
N464 H477 0.985 . S
N465 C467 1.356 . S
N465 H470 0.984 . S
N465 H471 0.985 . S
C466 C460 1.379 . S
C466 C463 1.363 . S
C466 N464 1.356 . S
C467 C461 1.363 . S
C467 C462 1.379 . S
C467 N465 1.356 . S
N468 C460 1.356 . S
N468 H474 0.984 . S
N468 H475 0.984 . S
N469 C462 1.356 . S
N469 H472 0.984 . S
N469 H473 0.985 . S
H470 N465 0.984 . S
H471 N465 0.985 . S
H472 N469 0.984 . S
H473 N469 0.985 . S
H474 N468 0.984 . S
H475 N468 0.984 . S
H476 N464 0.984 . S
H477 N464 0.985 . S
C478 C479 1.363 . S
C478 C484 1.379 . S
C478 N486 1.356 . S
C479 C478 1.363 . S
C479 C485 1.363 . S
C480 C481 1.363 . S
C480 C485 1.379 . S
C480 N487 1.356 . S
C481 C480 1.363 . S
C481 C484 1.363 . S
N482 C484 1.356 . S
N482 H494 0.984 . S
N482 H495 0.985 . S
N483 C485 1.356 . S
N483 H488 0.984 . S
N483 H489 0.985 . S
C484 C478 1.379 . S
C484 C481 1.363 . S
C484 N482 1.356 . S
C485 C479 1.363 . S
C485 C480 1.379 . S
C485 N483 1.356 . S
N486 C478 1.356 . S
N486 H492 0.984 . S
N486 H493 0.984 . S
N487 C480 1.356 . S
N487 H490 0.984 . S
N487 H491 0.985 . S
H488 N483 0.984 . S
H489 N483 0.985 . S
H490 N487 0.984 . S
H491 N487 0.985 . S
H492 N486 0.984 . S
H493 N486 0.984 . S
H494 N482 0.984 . S
H495 N482 0.985 . S
C496 C497 1.363 . S
C496 C502 1.379 . S
C496 N504 1.356 . S
C497 C496 1.363 . S
C497 C503 1.363 . S
C498 C499 1.363 . S
C498 C503 1.379 . S
C498 N505 1.356 . S
C499 C498 1.363 . S
C499 C502 1.363 . S
N500 C502 1.356 . S
N500 H512 0.984 . S
N500 H513 0.985 . S
N501 C503 1.356 . S
N501 H506 0.984 . S
N501 H507 0.985 . S
C502 C496 1.379 . S
C502 C499 1.363 . S
C502 N500 1.356 . S
C503 C497 1.363 . S
C503 C498 1.379 . S
C503 N501 1.356 . S
N504 C496 1.356 . S
N504 H510 0.984 . S
N504 H511 0.984 . S
N505 C498 1.356 . S
N505 H508 0.984 . S
N505 H509 0.985 . S
H506 N501 0.984 . S
H507 N501 0.985 . S
H508 N505 0.984 . S
H509 N505 0.985 . S
H510 N504 0.984 . S
H511 N504 0.984 . S
H512 N500 0.984 . S
H513 N500 0.985 . S
C514 C515 1.363 . S
C514 C520 1.379 . S
C514 N522 1.356 . S
C515 C514 1.363 . S
C515 C521 1.363 . S
C516 C517 1.363 . S
C516 C521 1.379 . S
C516 N523 1.356 . S
C517 C516 1.363 . S
C517 C520 1.363 . S
N518 C520 1.356 . S
N518 H530 0.984 . S
N518 H531 0.985 . S
N519 C521 1.356 . S
N519 H524 0.984 . S
N519 H525 0.985 . S
C520 C514 1.379 . S
C520 C517 1.363 . S
C520 N518 1.356 . S
C521 C515 1.363 . S
C521 C516 1.379 . S
C521 N519 1.356 . S
N522 C514 1.356 . S
N522 H528 0.984 . S
N522 H529 0.984 . S
N523 C516 1.356 . S
N523 H526 0.984 . S
N523 H527 0.985 . S
H524 N519 0.984 . S
H525 N519 0.985 . S
H526 N523 0.984 . S
H527 N523 0.985 . S
H528 N522 0.984 . S
H529 N522 0.984 . S
H530 N518 0.984 . S
H531 N518 0.985 . S
C532 C533 1.363 . S
C532 C538 1.379 . S
C532 N540 1.356 . S
C533 C532 1.363 . S
C533 C539 1.363 . S
C534 C535 1.363 . S
C534 C539 1.379 . S
C534 N541 1.356 . S
C535 C534 1.363 . S
C535 C538 1.363 . S
N536 C538 1.356 . S
N536 H548 0.984 . S
N536 H549 0.985 . S
N537 C539 1.356 . S
N537 H542 0.984 . S
N537 H543 0.985 . S
C538 C532 1.379 . S
C538 C535 1.363 . S
C538 N536 1.356 . S
C539 C533 1.363 . S
C539 C534 1.379 . S
C539 N537 1.356 . S
N540 C532 1.356 . S
N540 H546 0.984 . S
N540 H547 0.984 . S
N541 C534 1.356 . S
N541 H544 0.984 . S
N541 H545 0.985 . S
H542 N537 0.984 . S
H543 N537 0.985 . S
H544 N541 0.984 . S
H545 N541 0.985 . S
H546 N540 0.984 . S
H547 N540 0.984 . S
H548 N536 0.984 . S
H549 N536 0.985 . S
C550 C551 1.363 . S
C550 C556 1.379 . S
C550 N558 1.356 . S
C551 C550 1.363 . S
C551 C557 1.363 . S
C552 C553 1.363 . S
C552 C557 1.379 . S
C552 N559 1.356 . S
C553 C552 1.363 . S
C553 C556 1.363 . S
N554 C556 1.356 . S
N554 H566 0.984 . S
N554 H567 0.985 . S
N555 C557 1.356 . S
N555 H560 0.984 . S
N555 H561 0.985 . S
C556 C550 1.379 . S
C556 C553 1.363 . S
C556 N554 1.356 . S
C557 C551 1.363 . S
C557 C552 1.379 . S
C557 N555 1.356 . S
N558 C550 1.356 . S
N558 H564 0.984 . S
N558 H565 0.984 . S
N559 C552 1.356 . S
N559 H562 0.984 . S
N559 H563 0.985 . S
H560 N555 0.984 . S
H561 N555 0.985 . S
H562 N559 0.984 . S
H563 N559 0.985 . S
H564 N558 0.984 . S
H565 N558 0.984 . S
H566 N554 0.984 . S
H567 N554 0.985 . S
C568 C569 1.363 . S
C568 C574 1.379 . S
C568 N576 1.356 . S
C569 C568 1.363 . S
C569 C575 1.363 . S
C570 C571 1.363 . S
C570 C575 1.379 . S
C570 N577 1.356 . S
C571 C570 1.363 . S
C571 C574 1.363 . S
N572 C574 1.356 . S
N572 H584 0.984 . S
N572 H585 0.985 . S
N573 C575 1.356 . S
N573 H578 0.984 . S
N573 H579 0.985 . S
C574 C568 1.379 . S
C574 C571 1.363 . S
C574 N572 1.356 . S
C575 C569 1.363 . S
C575 C570 1.379 . S
C575 N573 1.356 . S
N576 C568 1.356 . S
N576 H582 0.984 . S
N576 H583 0.984 . S
N577 C570 1.356 . S
N577 H580 0.984 . S
N577 H581 0.985 . S
H578 N573 0.984 . S
H579 N573 0.985 . S
H580 N577 0.984 . S
H581 N577 0.985 . S
H582 N576 0.984 . S
H583 N576 0.984 . S
H584 N572 0.984 . S
H585 N572 0.985 . S
C586 C587 1.363 . S
C586 C592 1.379 . S
C586 N594 1.356 . S
C587 C586 1.363 . S
C587 C593 1.363 . S
C588 C589 1.363 . S
C588 C593 1.379 . S
C588 N595 1.356 . S
C589 C588 1.363 . S
C589 C592 1.363 . S
N590 C592 1.356 . S
N590 H602 0.984 . S
N590 H603 0.985 . S
N591 C593 1.356 . S
N591 H596 0.984 . S
N591 H597 0.985 . S
C592 C586 1.379 . S
C592 C589 1.363 . S
C592 N590 1.356 . S
C593 C587 1.363 . S
C593 C588 1.379 . S
C593 N591 1.356 . S
N594 C586 1.356 . S
N594 H600 0.984 . S
N594 H601 0.984 . S
N595 C588 1.356 . S
N595 H598 0.984 . S
N595 H599 0.985 . S
H596 N591 0.984 . S
H597 N591 0.985 . S
H598 N595 0.984 . S
H599 N595 0.985 . S
H600 N594 0.984 . S
H601 N594 0.984 . S
H602 N590 0.984 . S
H603 N590 0.985 . S
C604 C605 1.363 . S
C604 C610 1.379 . S
C604 N612 1.356 . S
C605 C604 1.363 . S
C605 C611 1.363 . S
C606 C607 1.363 . S
C606 C611 1.379 . S
C606 N613 1.356 . S
C607 C606 1.363 . S
C607 C610 1.363 . S
N608 C610 1.356 . S
N608 H620 0.984 . S
N608 H621 0.985 . S
N609 C611 1.356 . S
N609 H614 0.984 . S
N609 H615 0.985 . S
C610 C604 1.379 . S
C610 C607 1.363 . S
C610 N608 1.356 . S
C611 C605 1.363 . S
C611 C606 1.379 . S
C611 N609 1.356 . S
N612 C604 1.356 . S
N612 H618 0.984 . S
N612 H619 0.984 . S
N613 C606 1.356 . S
N613 H616 0.984 . S
N613 H617 0.985 . S
H614 N609 0.984 . S
H615 N609 0.985 . S
H616 N613 0.984 . S
H617 N613 0.985 . S
H618 N612 0.984 . S
H619 N612 0.984 . S
H620 N608 0.984 . S
H621 N608 0.985 . S
C622 C623 1.363 . S
C622 C628 1.379 . S
C622 N630 1.356 . S
C623 C622 1.363 . S
C623 C629 1.363 . S
C624 C625 1.363 . S
C624 C629 1.379 . S
C624 N631 1.356 . S
C625 C624 1.363 . S
C625 C628 1.363 . S
N626 C628 1.356 . S
N626 H638 0.984 . S
N626 H639 0.985 . S
N627 C629 1.356 . S
N627 H632 0.984 . S
N627 H633 0.985 . S
C628 C622 1.379 . S
C628 C625 1.363 . S
C628 N626 1.356 . S
C629 C623 1.363 . S
C629 C624 1.379 . S
C629 N627 1.356 . S
N630 C622 1.356 . S
N630 H636 0.984 . S
N630 H637 0.984 . S
N631 C624 1.356 . S
N631 H634 0.984 . S
N631 H635 0.985 . S
H632 N627 0.984 . S
H633 N627 0.985 . S
H634 N631 0.984 . S
H635 N631 0.985 . S
H636 N630 0.984 . S
H637 N630 0.984 . S
H638 N626 0.984 . S
H639 N626 0.985 . S
C640 C641 1.363 . S
C640 C646 1.379 . S
C640 N648 1.356 . S
C641 C640 1.363 . S
C641 C647 1.363 . S
C642 C643 1.363 . S
C642 C647 1.379 . S
C642 N649 1.356 . S
C643 C642 1.363 . S
C643 C646 1.363 . S
N644 C646 1.356 . S
N644 H656 0.984 . S
N644 H657 0.985 . S
N645 C647 1.356 . S
N645 H650 0.984 . S
N645 H651 0.985 . S
C646 C640 1.379 . S
C646 C643 1.363 . S
C646 N644 1.356 . S
C647 C641 1.363 . S
C647 C642 1.379 . S
C647 N645 1.356 . S
N648 C640 1.356 . S
N648 H654 0.984 . S
N648 H655 0.984 . S
N649 C642 1.356 . S
N649 H652 0.984 . S
N649 H653 0.985 . S
H650 N645 0.984 . S
H651 N645 0.985 . S
H652 N649 0.984 . S
H653 N649 0.985 . S
H654 N648 0.984 . S
H655 N648 0.984 . S
H656 N644 0.984 . S
H657 N644 0.985 . S
C658 C659 1.363 . S
C658 C664 1.379 . S
C658 N666 1.356 . S
C659 C658 1.363 . S
C659 C665 1.363 . S
C660 C661 1.363 . S
C660 C665 1.379 . S
C660 N667 1.356 . S
C661 C660 1.363 . S
C661 C664 1.363 . S
N662 C664 1.356 . S
N662 H674 0.984 . S
N662 H675 0.985 . S
N663 C665 1.356 . S
N663 H668 0.984 . S
N663 H669 0.985 . S
C664 C658 1.379 . S
C664 C661 1.363 . S
C664 N662 1.356 . S
C665 C659 1.363 . S
C665 C660 1.379 . S
C665 N663 1.356 . S
N666 C658 1.356 . S
N666 H672 0.984 . S
N666 H673 0.984 . S
N667 C660 1.356 . S
N667 H670 0.984 . S
N667 H671 0.985 . S
H668 N663 0.984 . S
H669 N663 0.985 . S
H670 N667 0.984 . S
H671 N667 0.985 . S
H672 N666 0.984 . S
H673 N666 0.984 . S
H674 N662 0.984 . S
H675 N662 0.985 . S
C676 C677 1.363 . S
C676 C682 1.379 . S
C676 N684 1.356 . S
C677 C676 1.363 . S
C677 C683 1.363 . S
C678 C679 1.363 . S
C678 C683 1.379 . S
C678 N685 1.356 . S
C679 C678 1.363 . S
C679 C682 1.363 . S
N680 C682 1.356 . S
N680 H692 0.984 . S
N680 H693 0.985 . S
N681 C683 1.356 . S
N681 H686 0.984 . S
N681 H687 0.985 . S
C682 C676 1.379 . S
C682 C679 1.363 . S
C682 N680 1.356 . S
C683 C677 1.363 . S
C683 C678 1.379 . S
C683 N681 1.356 . S
N684 C676 1.356 . S
N684 H690 0.984 . S
N684 H691 0.984 . S
N685 C678 1.356 . S
N685 H688 0.984 . S
N685 H689 0.985 . S
H686 N681 0.984 . S
H687 N681 0.985 . S
H688 N685 0.984 . S
H689 N685 0.985 . S
H690 N684 0.984 . S
H691 N684 0.984 . S
H692 N680 0.984 . S
H693 N680 0.985 . S
C694 C695 1.363 . S
C694 C700 1.379 . S
C694 N702 1.356 . S
C695 C694 1.363 . S
C695 C701 1.363 . S
C696 C697 1.363 . S
C696 C701 1.379 . S
C696 N703 1.356 . S
C697 C696 1.363 . S
C697 C700 1.363 . S
N698 C700 1.356 . S
N698 H710 0.984 . S
N698 H711 0.985 . S
N699 C701 1.356 . S
N699 H704 0.984 . S
N699 H705 0.985 . S
C700 C694 1.379 . S
C700 C697 1.363 . S
C700 N698 1.356 . S
C701 C695 1.363 . S
C701 C696 1.379 . S
C701 N699 1.356 . S
N702 C694 1.356 . S
N702 H708 0.984 . S
N702 H709 0.984 . S
N703 C696 1.356 . S
N703 H706 0.984 . S
N703 H707 0.985 . S
H704 N699 0.984 . S
H705 N699 0.985 . S
H706 N703 0.984 . S
H707 N703 0.985 . S
H708 N702 0.984 . S
H709 N702 0.984 . S
H710 N698 0.984 . S
H711 N698 0.985 . S
C712 C713 1.363 . S
C712 C718 1.379 . S
C712 N720 1.356 . S
C713 C712 1.363 . S
C713 C719 1.363 . S
C714 C715 1.363 . S
C714 C719 1.379 . S
C714 N721 1.356 . S
C715 C714 1.363 . S
C715 C718 1.363 . S
N716 C718 1.356 . S
N716 H728 0.984 . S
N716 H729 0.985 . S
N717 C719 1.356 . S
N717 H722 0.984 . S
N717 H723 0.985 . S
C718 C712 1.379 . S
C718 C715 1.363 . S
C718 N716 1.356 . S
C719 C713 1.363 . S
C719 C714 1.379 . S
C719 N717 1.356 . S
N720 C712 1.356 . S
N720 H726 0.984 . S
N720 H727 0.984 . S
N721 C714 1.356 . S
N721 H724 0.984 . S
N721 H725 0.985 . S
H722 N717 0.984 . S
H723 N717 0.985 . S
H724 N721 0.984 . S
H725 N721 0.985 . S
H726 N720 0.984 . S
H727 N720 0.984 . S
H728 N716 0.984 . S
H729 N716 0.985 . S
C730 C731 1.363 . S
C730 C736 1.379 . S
C730 N738 1.356 . S
C731 C730 1.363 . S
C731 C737 1.363 . S
C732 C733 1.363 . S
C732 C737 1.379 . S
C732 N739 1.356 . S
C733 C732 1.363 . S
C733 C736 1.363 . S
N734 C736 1.356 . S
N734 H746 0.984 . S
N734 H747 0.985 . S
N735 C737 1.356 . S
N735 H740 0.984 . S
N735 H741 0.985 . S
C736 C730 1.379 . S
C736 C733 1.363 . S
C736 N734 1.356 . S
C737 C731 1.363 . S
C737 C732 1.379 . S
C737 N735 1.356 . S
N738 C730 1.356 . S
N738 H744 0.984 . S
N738 H745 0.984 . S
N739 C732 1.356 . S
N739 H742 0.984 . S
N739 H743 0.985 . S
H740 N735 0.984 . S
H741 N735 0.985 . S
H742 N739 0.984 . S
H743 N739 0.985 . S
H744 N738 0.984 . S
H745 N738 0.984 . S
H746 N734 0.984 . S
H747 N734 0.985 . S
C748 C749 1.363 . S
C748 C754 1.379 . S
C748 N756 1.356 . S
C749 C748 1.363 . S
C749 C755 1.363 . S
C750 C751 1.363 . S
C750 C755 1.379 . S
C750 N757 1.356 . S
C751 C750 1.363 . S
C751 C754 1.363 . S
N752 C754 1.356 . S
N752 H764 0.984 . S
N752 H765 0.985 . S
N753 C755 1.356 . S
N753 H758 0.984 . S
N753 H759 0.985 . S
C754 C748 1.379 . S
C754 C751 1.363 . S
C754 N752 1.356 . S
C755 C749 1.363 . S
C755 C750 1.379 . S
C755 N753 1.356 . S
N756 C748 1.356 . S
N756 H762 0.984 . S
N756 H763 0.984 . S
N757 C750 1.356 . S
N757 H760 0.984 . S
N757 H761 0.985 . S
H758 N753 0.984 . S
H759 N753 0.985 . S
H760 N757 0.984 . S
H761 N757 0.985 . S
H762 N756 0.984 . S
H763 N756 0.984 . S
H764 N752 0.984 . S
H765 N752 0.985 . S
C766 C767 1.363 . S
C766 C772 1.379 . S
C766 N774 1.356 . S
C767 C766 1.363 . S
C767 C773 1.363 . S
C768 C769 1.363 . S
C768 C773 1.379 . S
C768 N775 1.356 . S
C769 C768 1.363 . S
C769 C772 1.363 . S
N770 C772 1.356 . S
N770 H782 0.984 . S
N770 H783 0.985 . S
N771 C773 1.356 . S
N771 H776 0.984 . S
N771 H777 0.985 . S
C772 C766 1.379 . S
C772 C769 1.363 . S
C772 N770 1.356 . S
C773 C767 1.363 . S
C773 C768 1.379 . S
C773 N771 1.356 . S
N774 C766 1.356 . S
N774 H780 0.984 . S
N774 H781 0.984 . S
N775 C768 1.356 . S
N775 H778 0.984 . S
N775 H779 0.985 . S
H776 N771 0.984 . S
H777 N771 0.985 . S
H778 N775 0.984 . S
H779 N775 0.985 . S
H780 N774 0.984 . S
H781 N774 0.984 . S
H782 N770 0.984 . S
H783 N770 0.985 . S
C784 C785 1.363 . S
C784 C790 1.379 . S
C784 N792 1.356 . S
C785 C784 1.363 . S
C785 C791 1.363 . S
C786 C787 1.363 . S
C786 C791 1.379 . S
C786 N793 1.356 . S
C787 C786 1.363 . S
C787 C790 1.363 . S
N788 C790 1.356 . S
N788 H800 0.984 . S
N788 H801 0.985 . S
N789 C791 1.356 . S
N789 H794 0.984 . S
N789 H795 0.985 . S
C790 C784 1.379 . S
C790 C787 1.363 . S
C790 N788 1.356 . S
C791 C785 1.363 . S
C791 C786 1.379 . S
C791 N789 1.356 . S
N792 C784 1.356 . S
N792 H798 0.984 . S
N792 H799 0.984 . S
N793 C786 1.356 . S
N793 H796 0.984 . S
N793 H797 0.985 . S
H794 N789 0.984 . S
H795 N789 0.985 . S
H796 N793 0.984 . S
H797 N793 0.985 . S
H798 N792 0.984 . S
H799 N792 0.984 . S
H800 N788 0.984 . S
H801 N788 0.985 . S
C802 C803 1.363 . S
C802 C808 1.379 . S
C802 N810 1.356 . S
C803 C802 1.363 . S
C803 C809 1.363 . S
C804 C805 1.363 . S
C804 C809 1.379 . S
C804 N811 1.356 . S
C805 C804 1.363 . S
C805 C808 1.363 . S
N806 C808 1.356 . S
N806 H818 0.984 . S
N806 H819 0.985 . S
N807 C809 1.356 . S
N807 H812 0.984 . S
N807 H813 0.985 . S
C808 C802 1.379 . S
C808 C805 1.363 . S
C808 N806 1.356 . S
C809 C803 1.363 . S
C809 C804 1.379 . S
C809 N807 1.356 . S
N810 C802 1.356 . S
N810 H816 0.984 . S
N810 H817 0.984 . S
N811 C804 1.356 . S
N811 H814 0.984 . S
N811 H815 0.985 . S
H812 N807 0.984 . S
H813 N807 0.985 . S
H814 N811 0.984 . S
H815 N811 0.985 . S
H816 N810 0.984 . S
H817 N810 0.984 . S
H818 N806 0.984 . S
H819 N806 0.985 . S
C820 C821 1.363 . S
C820 C826 1.379 . S
C820 N828 1.356 . S
C821 C820 1.363 . S
C821 C827 1.363 . S
C822 C823 1.363 . S
C822 C827 1.379 . S
C822 N829 1.356 . S
C823 C822 1.363 . S
C823 C826 1.363 . S
N824 C826 1.356 . S
N824 H836 0.984 . S
N824 H837 0.985 . S
N825 C827 1.356 . S
N825 H830 0.984 . S
N825 H831 0.985 . S
C826 C820 1.379 . S
C826 C823 1.363 . S
C826 N824 1.356 . S
C827 C821 1.363 . S
C827 C822 1.379 . S
C827 N825 1.356 . S
N828 C820 1.356 . S
N828 H834 0.984 . S
N828 H835 0.984 . S
N829 C822 1.356 . S
N829 H832 0.984 . S
N829 H833 0.985 . S
H830 N825 0.984 . S
H831 N825 0.985 . S
H832 N829 0.984 . S
H833 N829 0.985 . S
H834 N828 0.984 . S
H835 N828 0.984 . S
H836 N824 0.984 . S
H837 N824 0.985 . S
C838 C839 1.363 . S
C838 C844 1.379 . S
C838 N846 1.356 . S
C839 C838 1.363 . S
C839 C845 1.363 . S
C840 C841 1.363 . S
C840 C845 1.379 . S
C840 N847 1.356 . S
C841 C840 1.363 . S
C841 C844 1.363 . S
N842 C844 1.356 . S
N842 H854 0.984 . S
N842 H855 0.985 . S
N843 C845 1.356 . S
N843 H848 0.984 . S
N843 H849 0.985 . S
C844 C838 1.379 . S
C844 C841 1.363 . S
C844 N842 1.356 . S
C845 C839 1.363 . S
C845 C840 1.379 . S
C845 N843 1.356 . S
N846 C838 1.356 . S
N846 H852 0.984 . S
N846 H853 0.984 . S
N847 C840 1.356 . S
N847 H850 0.984 . S
N847 H851 0.985 . S
H848 N843 0.984 . S
H849 N843 0.985 . S
H850 N847 0.984 . S
H851 N847 0.985 . S
H852 N846 0.984 . S
H853 N846 0.984 . S
H854 N842 0.984 . S
H855 N842 0.985 . S
C856 C857 1.363 . S
C856 C862 1.379 . S
C856 N864 1.356 . S
C857 C856 1.363 . S
C857 C863 1.363 . S
C858 C859 1.363 . S
C858 C863 1.379 . S
C858 N865 1.356 . S
C859 C858 1.363 . S
C859 C862 1.363 . S
N860 C862 1.356 . S
N860 H872 0.984 . S
N860 H873 0.985 . S
N861 C863 1.356 . S
N861 H866 0.984 . S
N861 H867 0.985 . S
C862 C856 1.379 . S
C862 C859 1.363 . S
C862 N860 1.356 . S
C863 C857 1.363 . S
C863 C858 1.379 . S
C863 N861 1.356 . S
N864 C856 1.356 . S
N864 H870 0.984 . S
N864 H871 0.984 . S
N865 C858 1.356 . S
N865 H868 0.984 . S
N865 H869 0.985 . S
H866 N861 0.984 . S
H867 N861 0.985 . S
H868 N865 0.984 . S
H869 N865 0.985 . S
H870 N864 0.984 . S
H871 N864 0.984 . S
H872 N860 0.984 . S
H873 N860 0.985 . S
C874 C875 1.363 . S
C874 C880 1.379 . S
C874 N882 1.356 . S
C875 C874 1.363 . S
C875 C881 1.363 . S
C876 C877 1.363 . S
C876 C881 1.379 . S
C876 N883 1.356 . S
C877 C876 1.363 . S
C877 C880 1.363 . S
N878 C880 1.356 . S
N878 H890 0.984 . S
N878 H891 0.985 . S
N879 C881 1.356 . S
N879 H884 0.984 . S
N879 H885 0.985 . S
C880 C874 1.379 . S
C880 C877 1.363 . S
C880 N878 1.356 . S
C881 C875 1.363 . S
C881 C876 1.379 . S
C881 N879 1.356 . S
N882 C874 1.356 . S
N882 H888 0.984 . S
N882 H889 0.984 . S
N883 C876 1.356 . S
N883 H886 0.984 . S
N883 H887 0.985 . S
H884 N879 0.984 . S
H885 N879 0.985 . S
H886 N883 0.984 . S
H887 N883 0.985 . S
H888 N882 0.984 . S
H889 N882 0.984 . S
H890 N878 0.984 . S
H891 N878 0.985 . S
C892 C893 1.363 . S
C892 C898 1.379 . S
C892 N900 1.356 . S
C893 C892 1.363 . S
C893 C899 1.363 . S
C894 C895 1.363 . S
C894 C899 1.379 . S
C894 N901 1.356 . S
C895 C894 1.363 . S
C895 C898 1.363 . S
N896 C898 1.356 . S
N896 H908 0.984 . S
N896 H909 0.985 . S
N897 C899 1.356 . S
N897 H902 0.984 . S
N897 H903 0.985 . S
C898 C892 1.379 . S
C898 C895 1.363 . S
C898 N896 1.356 . S
C899 C893 1.363 . S
C899 C894 1.379 . S
C899 N897 1.356 . S
N900 C892 1.356 . S
N900 H906 0.984 . S
N900 H907 0.984 . S
N901 C894 1.356 . S
N901 H904 0.984 . S
N901 H905 0.985 . S
H902 N897 0.984 . S
H903 N897 0.985 . S
H904 N901 0.984 . S
H905 N901 0.985 . S
H906 N900 0.984 . S
H907 N900 0.984 . S
H908 N896 0.984 . S
H909 N896 0.985 . S
C910 C911 1.363 . S
C910 C916 1.379 . S
C910 N918 1.356 . S
C911 C910 1.363 . S
C911 C917 1.363 . S
C912 C913 1.363 . S
C912 C917 1.379 . S
C912 N919 1.356 . S
C913 C912 1.363 . S
C913 C916 1.363 . S
N914 C916 1.356 . S
N914 H926 0.984 . S
N914 H927 0.985 . S
N915 C917 1.356 . S
N915 H920 0.984 . S
N915 H921 0.985 . S
C916 C910 1.379 . S
C916 C913 1.363 . S
C916 N914 1.356 . S
C917 C911 1.363 . S
C917 C912 1.379 . S
C917 N915 1.356 . S
N918 C910 1.356 . S
N918 H924 0.984 . S
N918 H925 0.984 . S
N919 C912 1.356 . S
N919 H922 0.984 . S
N919 H923 0.985 . S
H920 N915 0.984 . S
H921 N915 0.985 . S
H922 N919 0.984 . S
H923 N919 0.985 . S
H924 N918 0.984 . S
H925 N918 0.984 . S
H926 N914 0.984 . S
H927 N914 0.985 . S
C928 C929 1.363 . S
C928 C934 1.379 . S
C928 N936 1.356 . S
C929 C928 1.363 . S
C929 C935 1.363 . S
C930 C931 1.363 . S
C930 C935 1.379 . S
C930 N937 1.356 . S
C931 C930 1.363 . S
C931 C934 1.363 . S
N932 C934 1.356 . S
N932 H944 0.984 . S
N932 H945 0.985 . S
N933 C935 1.356 . S
N933 H938 0.984 . S
N933 H939 0.985 . S
C934 C928 1.379 . S
C934 C931 1.363 . S
C934 N932 1.356 . S
C935 C929 1.363 . S
C935 C930 1.379 . S
C935 N933 1.356 . S
N936 C928 1.356 . S
N936 H942 0.984 . S
N936 H943 0.984 . S
N937 C930 1.356 . S
N937 H940 0.984 . S
N937 H941 0.985 . S
H938 N933 0.984 . S
H939 N933 0.985 . S
H940 N937 0.984 . S
H941 N937 0.985 . S
H942 N936 0.984 . S
H943 N936 0.984 . S
H944 N932 0.984 . S
H945 N932 0.985 . S
C946 C947 1.363 . S
C946 C952 1.379 . S
C946 N954 1.356 . S
C947 C946 1.363 . S
C947 C953 1.363 . S
C948 C949 1.363 . S
C948 C953 1.379 . S
C948 N955 1.356 . S
C949 C948 1.363 . S
C949 C952 1.363 . S
N950 C952 1.356 . S
N950 H962 0.984 . S
N950 H963 0.985 . S
N951 C953 1.356 . S
N951 H956 0.984 . S
N951 H957 0.985 . S
C952 C946 1.379 . S
C952 C949 1.363 . S
C952 N950 1.356 . S
C953 C947 1.363 . S
C953 C948 1.379 . S
C953 N951 1.356 . S
N954 C946 1.356 . S
N954 H960 0.984 . S
N954 H961 0.984 . S
N955 C948 1.356 . S
N955 H958 0.984 . S
N955 H959 0.985 . S
H956 N951 0.984 . S
H957 N951 0.985 . S
H958 N955 0.984 . S
H959 N955 0.985 . S
H960 N954 0.984 . S
H961 N954 0.984 . S
H962 N950 0.984 . S
H963 N950 0.985 . S
C964 C965 1.363 . S
C964 C970 1.379 . S
C964 N972 1.356 . S
C965 C964 1.363 . S
C965 C971 1.363 . S
C966 C967 1.363 . S
C966 C971 1.379 . S
C966 N973 1.356 . S
C967 C966 1.363 . S
C967 C970 1.363 . S
N968 C970 1.356 . S
N968 H980 0.984 . S
N968 H981 0.985 . S
N969 C971 1.356 . S
N969 H974 0.984 . S
N969 H975 0.985 . S
C970 C964 1.379 . S
C970 C967 1.363 . S
C970 N968 1.356 . S
C971 C965 1.363 . S
C971 C966 1.379 . S
C971 N969 1.356 . S
N972 C964 1.356 . S
N972 H978 0.984 . S
N972 H979 0.984 . S
N973 C966 1.356 . S
N973 H976 0.984 . S
N973 H977 0.985 . S
H974 N969 0.984 . S
H975 N969 0.985 . S
H976 N973 0.984 . S
H977 N973 0.985 . S
H978 N972 0.984 . S
H979 N972 0.984 . S
H980 N968 0.984 . S
H981 N968 0.985 . S
C982 C983 1.363 . S
C982 C988 1.379 . S
C982 N990 1.356 . S
C983 C982 1.363 . S
C983 C989 1.363 . S
C984 C985 1.363 . S
C984 C989 1.379 . S
C984 N991 1.356 . S
C985 C984 1.363 . S
C985 C988 1.363 . S
N986 C988 1.356 . S
N986 H998 0.984 . S
N986 H999 0.985 . S
N987 C989 1.356 . S
N987 H992 0.984 . S
N987 H993 0.985 . S
C988 C982 1.379 . S
C988 C985 1.363 . S
C988 N986 1.356 . S
C989 C983 1.363 . S
C989 C984 1.379 . S
C989 N987 1.356 . S
N990 C982 1.356 . S
N990 H996 0.984 . S
N990 H997 0.984 . S
N991 C984 1.356 . S
N991 H994 0.984 . S
N991 H995 0.985 . S
H992 N987 0.984 . S
H993 N987 0.985 . S
H994 N991 0.984 . S
H995 N991 0.985 . S
H996 N990 0.984 . S
H997 N990 0.984 . S
H998 N986 0.984 . S
H999 N986 0.985 . S
C1000 C1001 1.363 . S
C1000 C1006 1.379 . S
C1000 N1008 1.356 . S
C1001 C1000 1.363 . S
C1001 C1007 1.363 . S
C1002 C1003 1.363 . S
C1002 C1007 1.379 . S
C1002 N1009 1.356 . S
C1003 C1002 1.363 . S
C1003 C1006 1.363 . S
N1004 C1006 1.356 . S
N1004 H1016 0.984 . S
N1004 H1017 0.985 . S
N1005 C1007 1.356 . S
N1005 H1010 0.984 . S
N1005 H1011 0.985 . S
C1006 C1000 1.379 . S
C1006 C1003 1.363 . S
C1006 N1004 1.356 . S
C1007 C1001 1.363 . S
C1007 C1002 1.379 . S
C1007 N1005 1.356 . S
N1008 C1000 1.356 . S
N1008 H1014 0.984 . S
N1008 H1015 0.984 . S
N1009 C1002 1.356 . S
N1009 H1012 0.984 . S
N1009 H1013 0.985 . S
H1010 N1005 0.984 . S
H1011 N1005 0.985 . S
H1012 N1009 0.984 . S
H1013 N1009 0.985 . S
H1014 N1008 0.984 . S
H1015 N1008 0.984 . S
H1016 N1004 0.984 . S
H1017 N1004 0.985 . S
C1018 C1019 1.363 . S
C1018 C1024 1.379 . S
C1018 N1026 1.356 . S
C1019 C1018 1.363 . S
C1019 C1025 1.363 . S
C1020 C1021 1.363 . S
C1020 C1025 1.379 . S
C1020 N1027 1.356 . S
C1021 C1020 1.363 . S
C1021 C1024 1.363 . S
N1022 C1024 1.356 . S
N1022 H1034 0.984 . S
N1022 H1035 0.985 . S
N1023 C1025 1.356 . S
N1023 H1028 0.984 . S
N1023 H1029 0.985 . S
C1024 C1018 1.379 . S
C1024 C1021 1.363 . S
C1024 N1022 1.356 . S
C1025 C1019 1.363 . S
C1025 C1020 1.379 . S
C1025 N1023 1.356 . S
N1026 C1018 1.356 . S
N1026 H1032 0.984 . S
N1026 H1033 0.984 . S
N1027 C1020 1.356 . S
N1027 H1030 0.984 . S
N1027 H1031 0.985 . S
H1028 N1023 0.984 . S
H1029 N1023 0.985 . S
H1030 N1027 0.984 . S
H1031 N1027 0.985 . S
H1032 N1026 0.984 . S
H1033 N1026 0.984 . S
H1034 N1022 0.984 . S
H1035 N1022 0.985 . S
C1036 C1037 1.363 . S
C1036 C1042 1.379 . S
C1036 N1044 1.356 . S
C1037 C1036 1.363 . S
C1037 C1043 1.363 . S
C1038 C1039 1.363 . S
C1038 C1043 1.379 . S
C1038 N1045 1.356 . S
C1039 C1038 1.363 . S
C1039 C1042 1.363 . S
N1040 C1042 1.356 . S
N1040 H1052 0.984 . S
N1040 H1053 0.985 . S
N1041 C1043 1.356 . S
N1041 H1046 0.984 . S
N1041 H1047 0.985 . S
C1042 C1036 1.379 . S
C1042 C1039 1.363 . S
C1042 N1040 1.356 . S
C1043 C1037 1.363 . S
C1043 C1038 1.379 . S
C1043 N1041 1.356 . S
N1044 C1036 1.356 . S
N1044 H1050 0.984 . S
N1044 H1051 0.984 . S
N1045 C1038 1.356 . S
N1045 H1048 0.984 . S
N1045 H1049 0.985 . S
H1046 N1041 0.984 . S
H1047 N1041 0.985 . S
H1048 N1045 0.984 . S
H1049 N1045 0.985 . S
H1050 N1044 0.984 . S
H1051 N1044 0.984 . S
H1052 N1040 0.984 . S
H1053 N1040 0.985 . S
C1054 C1055 1.363 . S
C1054 C1060 1.379 . S
C1054 N1062 1.356 . S
C1055 C1054 1.363 . S
C1055 C1061 1.363 . S
C1056 C1057 1.363 . S
C1056 C1061 1.379 . S
C1056 N1063 1.356 . S
C1057 C1056 1.363 . S
C1057 C1060 1.363 . S
N1058 C1060 1.356 . S
N1058 H1070 0.984 . S
N1058 H1071 0.985 . S
N1059 C1061 1.356 . S
N1059 H1064 0.984 . S
N1059 H1065 0.985 . S
C1060 C1054 1.379 . S
C1060 C1057 1.363 . S
C1060 N1058 1.356 . S
C1061 C1055 1.363 . S
C1061 C1056 1.379 . S
C1061 N1059 1.356 . S
N1062 C1054 1.356 . S
N1062 H1068 0.984 . S
N1062 H1069 0.984 . S
N1063 C1056 1.356 . S
N1063 H1066 0.984 . S
N1063 H1067 0.985 . S
H1064 N1059 0.984 . S
H1065 N1059 0.985 . S
H1066 N1063 0.984 . S
H1067 N1063 0.985 . S
H1068 N1062 0.984 . S
H1069 N1062 0.984 . S
H1070 N1058 0.984 . S
H1071 N1058 0.985 . S
C1072 C1073 1.363 . S
C1072 C1078 1.379 . S
C1072 N1080 1.356 . S
C1073 C1072 1.363 . S
C1073 C1079 1.363 . S
C1074 C1075 1.363 . S
C1074 C1079 1.379 . S
C1074 N1081 1.356 . S
C1075 C1074 1.363 . S
C1075 C1078 1.363 . S
N1076 C1078 1.356 . S
N1076 H1088 0.984 . S
N1076 H1089 0.985 . S
N1077 C1079 1.356 . S
N1077 H1082 0.984 . S
N1077 H1083 0.985 . S
C1078 C1072 1.379 . S
C1078 C1075 1.363 . S
C1078 N1076 1.356 . S
C1079 C1073 1.363 . S
C1079 C1074 1.379 . S
C1079 N1077 1.356 . S
N1080 C1072 1.356 . S
N1080 H1086 0.984 . S
N1080 H1087 0.984 . S
N1081 C1074 1.356 . S
N1081 H1084 0.984 . S
N1081 H1085 0.985 . S
H1082 N1077 0.984 . S
H1083 N1077 0.985 . S
H1084 N1081 0.984 . S
H1085 N1081 0.985 . S
H1086 N1080 0.984 . S
H1087 N1080 0.984 . S
H1088 N1076 0.984 . S
H1089 N1076 0.985 . S
C1090 C1091 1.363 . S
C1090 C1096 1.379 . S
C1090 N1098 1.356 . S
C1091 C1090 1.363 . S
C1091 C1097 1.363 . S
C1092 C1093 1.363 . S
C1092 C1097 1.379 . S
C1092 N1099 1.356 . S
C1093 C1092 1.363 . S
C1093 C1096 1.363 . S
N1094 C1096 1.356 . S
N1094 H1106 0.984 . S
N1094 H1107 0.985 . S
N1095 C1097 1.356 . S
N1095 H1100 0.984 . S
N1095 H1101 0.985 . S
C1096 C1090 1.379 . S
C1096 C1093 1.363 . S
C1096 N1094 1.356 . S
C1097 C1091 1.363 . S
C1097 C1092 1.379 . S
C1097 N1095 1.356 . S
N1098 C1090 1.356 . S
N1098 H1104 0.984 . S
N1098 H1105 0.984 . S
N1099 C1092 1.356 . S
N1099 H1102 0.984 . S
N1099 H1103 0.985 . S
H1100 N1095 0.984 . S
H1101 N1095 0.985 . S
H1102 N1099 0.984 . S
H1103 N1099 0.985 . S
H1104 N1098 0.984 . S
H1105 N1098 0.984 . S
H1106 N1094 0.984 . S
H1107 N1094 0.985 . S
C1108 C1109 1.363 . S
C1108 C1114 1.379 . S
C1108 N1116 1.356 . S
C1109 C1108 1.363 . S
C1109 C1115 1.363 . S
C1110 C1111 1.363 . S
C1110 C1115 1.379 . S
C1110 N1117 1.356 . S
C1111 C1110 1.363 . S
C1111 C1114 1.363 . S
N1112 C1114 1.356 . S
N1112 H1124 0.984 . S
N1112 H1125 0.985 . S
N1113 C1115 1.356 . S
N1113 H1118 0.984 . S
N1113 H1119 0.985 . S
C1114 C1108 1.379 . S
C1114 C1111 1.363 . S
C1114 N1112 1.356 . S
C1115 C1109 1.363 . S
C1115 C1110 1.379 . S
C1115 N1113 1.356 . S
N1116 C1108 1.356 . S
N1116 H1122 0.984 . S
N1116 H1123 0.984 . S
N1117 C1110 1.356 . S
N1117 H1120 0.984 . S
N1117 H1121 0.985 . S
H1118 N1113 0.984 . S
H1119 N1113 0.985 . S
H1120 N1117 0.984 . S
H1121 N1117 0.985 . S
H1122 N1116 0.984 . S
H1123 N1116 0.984 . S
H1124 N1112 0.984 . S
H1125 N1112 0.985 . S
C1126 C1127 1.363 . S
C1126 C1132 1.379 . S
C1126 N1134 1.356 . S
C1127 C1126 1.363 . S
C1127 C1133 1.363 . S
C1128 C1129 1.363 . S
C1128 C1133 1.379 . S
C1128 N1135 1.356 . S
C1129 C1128 1.363 . S
C1129 C1132 1.363 . S
N1130 C1132 1.356 . S
N1130 H1142 0.984 . S
N1130 H1143 0.985 . S
N1131 C1133 1.356 . S
N1131 H1136 0.984 . S
N1131 H1137 0.985 . S
C1132 C1126 1.379 . S
C1132 C1129 1.363 . S
C1132 N1130 1.356 . S
C1133 C1127 1.363 . S
C1133 C1128 1.379 . S
C1133 N1131 1.356 . S
N1134 C1126 1.356 . S
N1134 H1140 0.984 . S
N1134 H1141 0.984 . S
N1135 C1128 1.356 . S
N1135 H1138 0.984 . S
N1135 H1139 0.985 . S
H1136 N1131 0.984 . S
H1137 N1131 0.985 . S
H1138 N1135 0.984 . S
H1139 N1135 0.985 . S
H1140 N1134 0.984 . S
H1141 N1134 0.984 . S
H1142 N1130 0.984 . S
H1143 N1130 0.985 . S
C1144 C1145 1.363 . S
C1144 C1150 1.379 . S
C1144 N1152 1.356 . S
C1145 C1144 1.363 . S
C1145 C1151 1.363 . S
C1146 C1147 1.363 . S
C1146 C1151 1.379 . S
C1146 N1153 1.356 . S
C1147 C1146 1.363 . S
C1147 C1150 1.363 . S
N1148 C1150 1.356 . S
N1148 H1160 0.984 . S
N1148 H1161 0.985 . S
N1149 C1151 1.356 . S
N1149 H1154 0.984 . S
N1149 H1155 0.985 . S
C1150 C1144 1.379 . S
C1150 C1147 1.363 . S
C1150 N1148 1.356 . S
C1151 C1145 1.363 . S
C1151 C1146 1.379 . S
C1151 N1149 1.356 . S
N1152 C1144 1.356 . S
N1152 H1158 0.984 . S
N1152 H1159 0.984 . S
N1153 C1146 1.356 . S
N1153 H1156 0.984 . S
N1153 H1157 0.985 . S
H1154 N1149 0.984 . S
H1155 N1149 0.985 . S
H1156 N1153 0.984 . S
H1157 N1153 0.985 . S
H1158 N1152 0.984 . S
H1159 N1152 0.984 . S
H1160 N1148 0.984 . S
H1161 N1148 0.985 . S
C1162 C1163 1.363 . S
C1162 C1168 1.379 . S
C1162 N1170 1.356 . S
C1163 C1162 1.363 . S
C1163 C1169 1.363 . S
C1164 C1165 1.363 . S
C1164 C1169 1.379 . S
C1164 N1171 1.356 . S
C1165 C1164 1.363 . S
C1165 C1168 1.363 . S
N1166 C1168 1.356 . S
N1166 H1178 0.984 . S
N1166 H1179 0.985 . S
N1167 C1169 1.356 . S
N1167 H1172 0.984 . S
N1167 H1173 0.985 . S
C1168 C1162 1.379 . S
C1168 C1165 1.363 . S
C1168 N1166 1.356 . S
C1169 C1163 1.363 . S
C1169 C1164 1.379 . S
C1169 N1167 1.356 . S
N1170 C1162 1.356 . S
N1170 H1176 0.984 . S
N1170 H1177 0.984 . S
N1171 C1164 1.356 . S
N1171 H1174 0.984 . S
N1171 H1175 0.985 . S
H1172 N1167 0.984 . S
H1173 N1167 0.985 . S
H1174 N1171 0.984 . S
H1175 N1171 0.985 . S
H1176 N1170 0.984 . S
H1177 N1170 0.984 . S
H1178 N1166 0.984 . S
H1179 N1166 0.985 . S
C1180 C1181 1.363 . S
C1180 C1186 1.379 . S
C1180 N1188 1.356 . S
C1181 C1180 1.363 . S
C1181 C1187 1.363 . S
C1182 C1183 1.363 . S
C1182 C1187 1.379 . S
C1182 N1189 1.356 . S
C1183 C1182 1.363 . S
C1183 C1186 1.363 . S
N1184 C1186 1.356 . S
N1184 H1196 0.984 . S
N1184 H1197 0.985 . S
N1185 C1187 1.356 . S
N1185 H1190 0.984 . S
N1185 H1191 0.985 . S
C1186 C1180 1.379 . S
C1186 C1183 1.363 . S
C1186 N1184 1.356 . S
C1187 C1181 1.363 . S
C1187 C1182 1.379 . S
C1187 N1185 1.356 . S
N1188 C1180 1.356 . S
N1188 H1194 0.984 . S
N1188 H1195 0.984 . S
N1189 C1182 1.356 . S
N1189 H1192 0.984 . S
N1189 H1193 0.985 . S
H1190 N1185 0.984 . S
H1191 N1185 0.985 . S
H1192 N1189 0.984 . S
H1193 N1189 0.985 . S
H1194 N1188 0.984 . S
H1195 N1188 0.984 . S
H1196 N1184 0.984 . S
H1197 N1184 0.985 . S
C1198 C1199 1.363 . S
C1198 C1204 1.379 . S
C1198 N1206 1.356 . S
C1199 C1198 1.363 . S
C1199 C1205 1.363 . S
C1200 C1201 1.363 . S
C1200 C1205 1.379 . S
C1200 N1207 1.356 . S
C1201 C1200 1.363 . S
C1201 C1204 1.363 . S
N1202 C1204 1.356 . S
N1202 H1214 0.984 . S
N1202 H1215 0.985 . S
N1203 C1205 1.356 . S
N1203 H1208 0.984 . S
N1203 H1209 0.985 . S
C1204 C1198 1.379 . S
C1204 C1201 1.363 . S
C1204 N1202 1.356 . S
C1205 C1199 1.363 . S
C1205 C1200 1.379 . S
C1205 N1203 1.356 . S
N1206 C1198 1.356 . S
N1206 H1212 0.984 . S
N1206 H1213 0.984 . S
N1207 C1200 1.356 . S
N1207 H1210 0.984 . S
N1207 H1211 0.985 . S
H1208 N1203 0.984 . S
H1209 N1203 0.985 . S
H1210 N1207 0.984 . S
H1211 N1207 0.985 . S
H1212 N1206 0.984 . S
H1213 N1206 0.984 . S
H1214 N1202 0.984 . S
H1215 N1202 0.985 . S
C355 C177 1.622 . S
C353 C9 1.622 . S
C373 C182 1.196 . S
C371 C22 1.207 . S
C391 C183 1.336 . S
C389 C49 1.341 . S
C407 C61 1.224 . S
C409 C187 1.231 . S
C425 C81 1.207 . S
C427 C190 1.196 . S
C445 C191 1.336 . S
C443 C108 1.337 . S
C461 C122 1.224 . S
C463 C168 1.231 . S
C479 C148 1.624 . S
C481 C184 1.624 . S
C499 C222 2.051 . S
C497 C18 2.047 . S
C515 C39 1.425 . S
C517 C248 1.417 . S
C535 C200 2.038 . S
C533 C58 2.045 . S
C553 C255 1.252 . S
C551 C69 1.293 . S
C569 C89 1.294 . S
C571 C209 1.264 . S
C589 C251 1.212 . S
C587 C102 1.227 . S
C605 C139 1.436 . S
C607 C215 1.430 . S
C623 C142 1.260 . S
C625 C246 1.248 . S
C641 C1 1.260 . S
C643 C254 1.242 . S
C659 C98 1.425 . S
C661 C241 1.419 . S
C679 C219 2.038 . S
C677 C119 2.044 . S
C697 C247 1.252 . S
C695 C128 1.298 . S
C713 C159 2.050 . S
C715 C214 2.054 . S
C731 C41 1.227 . S
C733 C232 1.210 . S
C751 C223 1.429 . S
C749 C78 1.435 . S
C767 C28 1.294 . S
C769 C216 1.258 . S
C785 C149 1.598 . S
C787 C278 1.536 . S
C803 C82 1.188 . S
C805 C273 1.170 . S
C823 C287 1.253 . S
C821 C109 1.315 . S
C841 C264 1.245 . S
C839 C121 1.208 . S
C857 C21 1.188 . S
C859 C280 1.168 . S
C877 C279 1.253 . S
C875 C48 1.311 . S
C893 C62 1.206 . S
C895 C283 1.244 . S
C911 C8 1.598 . S
C913 C286 1.533 . S
C929 C158 2.058 . S
C931 C312 2.115 . S
C949 C328 1.459 . S
C947 C99 1.439 . S
C965 C118 2.052 . S
C967 C310 2.080 . S
C983 C129 1.310 . S
C985 C343 1.257 . S
C1003 C319 1.281 . S
C1001 C29 1.295 . S
C1019 C42 1.243 . S
C1021 C337 1.191 . S
C1039 C315 1.446 . S
C1037 C79 1.428 . S
C1057 C350 1.217 . S
C1055 C2 1.272 . S
C1075 C342 1.217 . S
C1073 C141 1.275 . S
C1091 C38 1.438 . S
C1093 C347 1.458 . S
C1109 C59 2.052 . S
C1111 C318 2.085 . S
C1129 C351 1.258 . S
C1127 C68 1.311 . S
C1145 C19 2.058 . S
C1147 C305 2.111 . S
C1163 C101 1.243 . S
C1165 C344 1.189 . S
C1183 C296 1.446 . S
C1181 C138 1.431 . S
C1201 C311 1.281 . S
C1199 C88 1.292 . S
