# Generated by pormake.
# Topology zzz, (3,6)-cn, num edge types: 1
# Building blocks:
#     Node 0, Type 0, BuildingBlock: WUSLED_clean_sbu_0, # of connection points: 3
#     Node 1, Type 0, BuildingBlock: WUSLED_clean_sbu_0, # of connection points: 3
#     Node 2, Type 0, BuildingBlock: WUSLED_clean_sbu_0, # of connection points: 3
#     Node 3, Type 0, BuildingBlock: WUSLED_clean_sbu_0, # of connection points: 3
#     Node 4, Type 0, BuildingBlock: WUSLED_clean_sbu_0, # of connection points: 3
#     Node 5, Type 0, BuildingBlock: WUSLED_clean_sbu_0, # of connection points: 3
#     Node 6, Type 0, BuildingBlock: WUSLED_clean_sbu_0, # of connection points: 3
#     Node 7, Type 0, BuildingBlock: WUSLED_clean_sbu_0, # of connection points: 3
#     Node 8, Type 1, BuildingBlock: HISSIN_clean_sbu_0, # of connection points: 6
#     Node 9, Type 1, BuildingBlock: HISSIN_clean_sbu_0, # of connection points: 6
#     Node 10, Type 1, BuildingBlock: HISSIN_clean_sbu_0, # of connection points: 6
#     Node 11, Type 1, BuildingBlock: HISSIN_clean_sbu_0, # of connection points: 6
#     Edge 12, Type (0, 1), BuildingBlock: KIFKEQ_clean_linker_1, # of connection points: 2
#     Edge 13, Type (0, 1), BuildingBlock: KIFKEQ_clean_linker_1, # of connection points: 2
#     Edge 14, Type (0, 1), BuildingBlock: KIFKEQ_clean_linker_1, # of connection points: 2
#     Edge 15, Type (0, 1), BuildingBlock: KIFKEQ_clean_linker_1, # of connection points: 2
#     Edge 16, Type (0, 1), BuildingBlock: KIFKEQ_clean_linker_1, # of connection points: 2
#     Edge 17, Type (0, 1), BuildingBlock: KIFKEQ_clean_linker_1, # of connection points: 2
#     Edge 18, Type (0, 1), BuildingBlock: KIFKEQ_clean_linker_1, # of connection points: 2
#     Edge 19, Type (0, 1), BuildingBlock: KIFKEQ_clean_linker_1, # of connection points: 2
#     Edge 20, Type (0, 1), BuildingBlock: KIFKEQ_clean_linker_1, # of connection points: 2
#     Edge 21, Type (0, 1), BuildingBlock: KIFKEQ_clean_linker_1, # of connection points: 2
#     Edge 22, Type (0, 1), BuildingBlock: KIFKEQ_clean_linker_1, # of connection points: 2
#     Edge 23, Type (0, 1), BuildingBlock: KIFKEQ_clean_linker_1, # of connection points: 2
#     Edge 24, Type (0, 1), BuildingBlock: KIFKEQ_clean_linker_1, # of connection points: 2
#     Edge 25, Type (0, 1), BuildingBlock: KIFKEQ_clean_linker_1, # of connection points: 2
#     Edge 26, Type (0, 1), BuildingBlock: KIFKEQ_clean_linker_1, # of connection points: 2
#     Edge 27, Type (0, 1), BuildingBlock: KIFKEQ_clean_linker_1, # of connection points: 2
#     Edge 28, Type (0, 1), BuildingBlock: KIFKEQ_clean_linker_1, # of connection points: 2
#     Edge 29, Type (0, 1), BuildingBlock: KIFKEQ_clean_linker_1, # of connection points: 2
#     Edge 30, Type (0, 1), BuildingBlock: KIFKEQ_clean_linker_1, # of connection points: 2
#     Edge 31, Type (0, 1), BuildingBlock: KIFKEQ_clean_linker_1, # of connection points: 2
#     Edge 32, Type (0, 1), BuildingBlock: KIFKEQ_clean_linker_1, # of connection points: 2
#     Edge 33, Type (0, 1), BuildingBlock: KIFKEQ_clean_linker_1, # of connection points: 2
#     Edge 34, Type (0, 1), BuildingBlock: KIFKEQ_clean_linker_1, # of connection points: 2
#     Edge 35, Type (0, 1), BuildingBlock: KIFKEQ_clean_linker_1, # of connection points: 2
# Relax obj value: 0.360
# Max RMSD: 0.215
# Mean RMSD: 0.183
data_MOF--net-zzz--node1-WUSLED_clean_sbu_0--node2-HISSIN_clean_sbu_0--edge1-KIFKEQ_clean_linker_1
_symmetry_space_group_name_H-M    P1
_symmetry_Int_Tables_number       1
_symmetry_cell_setting            triclinic
loop_
_symmetry_equiv_pos_as_xyz
'x, y, z'
_cell_length_a     60.693331
_cell_length_b     61.044986
_cell_length_c     23.229059
_cell_angle_alpha  89.860381
_cell_angle_beta   90.968009
_cell_angle_gamma 91.345356
loop_
_atom_site_label
_atom_site_type_symbol
_atom_site_fract_x
_atom_site_fract_y
_atom_site_fract_z
_atom_type_partial_charge
C0 C 0.78601 0.55158 0.37578 0.0
C1 C 0.80515 0.55549 0.3438 0.0
C2 C 0.82818 0.54849 0.4287 0.0
C3 C 0.82602 0.55406 0.37006 0.0
C4 C 0.80893 0.54449 0.46043 0.0
C5 C 0.78807 0.54607 0.43422 0.0
U6 U 0.74906 0.54892 0.24198 0.0
O7 O 0.71609 0.53381 0.22913 0.0
O8 O 0.72099 0.5692 0.21599 0.0
C9 C 0.70723 0.55229 0.21247 0.0
C10 C 0.76391 0.55279 0.34848 0.0
C11 C 0.69291 0.55117 0.16056 0.0
C12 C 0.65722 0.55792 0.11559 0.0
C13 C 0.6716 0.55943 0.16318 0.0
C14 C 0.6854 0.54001 0.06152 0.0
C15 C 0.66385 0.54806 0.0642 0.0
C16 C 0.69983 0.54159 0.10926 0.0
C17 C 0.7811 0.53736 0.1009 0.0
C18 C 0.77507 0.51514 1.01504 0.0
C19 C 0.80578 0.54116 0.02036 0.0
C20 C 0.79922 0.54761 0.07481 0.0
C21 C 0.79428 0.52429 0.9905 0.0
C22 C 0.76855 0.52158 0.06995 0.0
C23 C 0.77807 0.54122 0.16273 0.0
O24 O 0.76081 0.56963 0.31413 0.0
O25 O 0.75594 0.53429 0.32708 0.0
O26 O 0.76804 0.52565 0.19229 0.0
O27 O 0.77293 0.56112 0.17832 0.0
H28 H 0.80396 0.55954 0.29843 0.0
H29 H 0.84048 0.55695 0.34417 0.0
H30 H 0.80998 0.54036 0.50575 0.0
H31 H 0.77351 0.54294 0.45961 0.0
H32 H 0.64071 0.56402 0.11959 0.0
H33 H 0.66594 0.56682 0.20246 0.0
H34 H 0.69116 0.53256 0.02245 0.0
H35 H 0.71627 0.5352 0.10631 0.0
H36 H 0.76562 0.50237 0.99292 0.0
H37 H 0.82084 0.5484 1.00373 0.0
H38 H 0.80921 0.5597 0.09811 0.0
H39 H 0.7544 0.51349 0.08918 0.0
C40 C 0.02097 0.78561 0.36977 0.0
C41 C 0.04015 0.79861 0.37898 0.0
C42 C 0.01922 0.82692 0.4271 0.0
C43 C 0.03929 0.81895 0.40697 0.0
C44 C 0.99996 0.81398 0.41715 0.0
C45 C 1.00082 0.79365 0.38901 0.0
U46 U 1.01069 0.74251 0.24846 0.0
O47 O 0.03347 0.71764 0.21851 0.0
O48 O 1.00118 0.70729 0.25098 0.0
C49 C 0.01921 0.70134 0.22514 0.0
C50 C 0.02262 0.76325 0.34398 0.0
C51 C 1.0164 0.68632 0.17512 0.0
C52 C 1.01698 0.6492 0.13658 0.0
C53 C 0.01791 0.66364 0.18352 0.0
C54 C 1.0126 0.67985 0.0716 0.0
C55 C 1.01459 0.65705 0.07971 0.0
C56 C 1.01351 0.6943 0.11872 0.0
C57 C 0.98662 0.78978 0.16665 0.0
C58 C 0.98035 0.8208 0.10415 0.0
C59 C 0.99669 0.82646 0.19912 0.0
C60 C 0.9947 0.80399 0.20992 0.0
C61 C 0.99069 0.83483 0.14485 0.0
C62 C 0.97844 0.79836 0.11491 0.0
C63 C 0.99082 0.76634 0.17052 0.0
O64 O 1.00434 0.75136 0.33858 0.0
O65 O 0.03558 0.76141 0.29952 0.0
O66 O 1.01186 0.76188 0.1692 0.0
O67 O 0.98005 0.7553 0.21022 0.0
H68 H 0.05597 0.79291 0.36511 0.0
H69 H 0.05445 0.82845 0.41266 0.0
H70 H 0.9842 0.81927 0.43242 0.0
H71 H 0.98569 0.7841 0.38324 0.0
H72 H 0.01815 0.63181 0.14499 0.0
H73 H 0.02013 0.65707 0.22655 0.0
H74 H 1.01094 0.68664 0.02869 0.0
H75 H 1.01237 0.71175 0.111 0.0
H76 H 0.97533 0.82695 0.06226 0.0
H77 H 1.00477 0.83689 0.23113 0.0
H78 H 1.00117 0.79752 0.25008 0.0
H79 H 0.97218 0.78757 0.08115 0.0
C80 C 0.74622 0.98756 0.34984 0.0
C81 C 0.73146 1.00359 0.33124 0.0
C82 C 0.70566 0.99295 0.40681 0.0
C83 C 0.71143 1.00628 0.35945 0.0
C84 C 0.72058 0.97688 0.42504 0.0
C85 C 0.7406 0.97426 0.39689 0.0
U86 U 0.78463 0.99738 0.22254 0.0
O87 O 0.82069 1.0029 0.22169 0.0
O88 O 0.80575 0.97438 0.17737 0.0
C89 C 0.82386 0.98604 0.18796 0.0
C90 C 0.76733 0.98431 0.32039 0.0
C91 C 0.83903 0.9898 0.13934 0.0
C92 C 0.8768 0.99382 0.1063 0.0
C93 C 0.86177 0.99124 0.15098 0.0
C94 C 0.84662 0.99369 0.0369 0.0
C95 C 0.8695 0.99501 0.04853 0.0
C96 C 0.83153 0.99116 0.08185 0.0
C97 C 0.76184 0.03376 0.09922 0.0
C98 C 0.74808 0.06331 0.03987 0.0
C99 C 0.76414 0.03179 0.99504 0.0
C100 C 0.76854 0.02288 0.04949 0.0
C101 C 0.75289 0.05163 0.98963 0.0
C102 C 0.7525 0.05443 0.09406 0.0
C103 C 0.76128 0.02286 0.15569 0.0
O104 O 0.76604 0.97272 0.27283 0.0
O105 O 0.78036 1.00172 0.31581 0.0
O106 O 0.7749 0.03052 0.19578 0.0
O107 O 0.75935 1.00136 0.15522 0.0
H108 H 0.73545 1.01404 0.29492 0.0
H109 H 0.70057 0.01899 0.34447 0.0
H110 H 0.71666 0.96605 0.46057 0.0
H111 H 0.75167 0.96169 0.41174 0.0
H112 H 0.89423 0.99441 0.11706 0.0
H113 H 0.86797 0.99008 0.19488 0.0
H114 H 0.84036 0.99477 0.99309 0.0
H115 H 0.81407 0.99013 0.07164 0.0
H116 H 0.7392 0.07848 0.03765 0.0
H117 H 0.76835 0.02254 0.95722 0.0
H118 H 0.77596 1.00695 0.0525 0.0
H119 H 0.74721 0.06306 0.13194 0.0
C120 C 0.54449 0.74198 0.33487 0.0
C121 C 0.54421 0.72248 0.3027 0.0
C122 C 0.53882 0.70074 0.39009 0.0
C123 C 0.54135 0.70211 0.32998 0.0
C124 C 0.53893 0.72035 0.42194 0.0
C125 C 0.54173 0.74068 0.39463 0.0
U126 U 0.53488 0.78568 0.21688 0.0
O127 O 0.55953 0.80761 0.17719 0.0
O128 O 0.53219 0.82157 0.22432 0.0
C129 C 0.54907 0.82545 0.19072 0.0
C130 C 0.54847 0.76374 0.3079 0.0
C131 C 0.5455 0.84115 0.14313 0.0
C132 C 0.54812 0.8785 0.10674 0.0
C133 C 0.55033 0.86346 0.15194 0.0
C134 C 0.5359 0.84915 0.04312 0.0
C135 C 0.54109 0.87156 0.05146 0.0
C136 C 0.53805 0.83411 0.08851 0.0
C137 C 0.49586 0.74368 0.14757 0.0
C138 C 0.47746 0.71468 0.09297 0.0
C139 C 0.49101 0.7075 0.18984 0.0
C140 C 0.49839 0.72932 0.19433 0.0
C141 C 0.48085 0.69985 0.13862 0.0
C142 C 0.48497 0.73639 0.09742 0.0
C143 C 0.50621 0.76559 0.14855 0.0
O144 O 0.55884 0.76403 0.25865 0.0
O145 O 0.53205 0.7774 0.30908 0.0
O146 O 0.50046 0.77839 0.1909 0.0
O147 O 0.52754 0.76591 0.13982 0.0
H148 H 0.54628 0.72294 0.25648 0.0
H149 H 0.54103 0.68743 0.30387 0.0
H150 H 0.53737 0.72 0.4683 0.0
H151 H 0.54206 0.75544 0.42046 0.0
H152 H 0.55186 0.89563 0.11527 0.0
H153 H 0.55602 0.86924 0.1938 0.0
H154 H 0.53064 0.84311 1.00119 0.0
H155 H 0.5342 0.81694 0.08074 0.0
H156 H 0.47004 0.70925 0.05259 0.0
H157 H 0.49373 0.69651 0.22582 0.0
H158 H 0.50664 0.73483 0.23352 0.0
H159 H 0.48301 0.74728 0.06086 0.0
C160 C 0.25426 0.47373 0.93219 0.0
C161 C 0.23848 0.45648 0.932 0.0
C162 C 0.21239 0.47873 0.87785 0.0
C163 C 0.21778 0.45897 0.90542 0.0
C164 C 0.22828 0.49589 0.87746 0.0
C165 C 0.24894 0.49342 0.90414 0.0
U166 U 0.29377 0.48289 0.06048 0.0
O167 O 0.31717 0.46063 0.1022 0.0
O168 O 0.32929 0.4913 0.06314 0.0
C169 C 0.33419 0.47393 0.0939 0.0
C170 C 0.27617 0.47098 0.96091 0.0
C171 C 0.3492 0.47774 0.14375 0.0
C172 C 0.38677 0.48003 0.18178 0.0
C173 C 0.37199 0.47706 0.13546 0.0
C174 C 0.35615 0.48451 0.24584 0.0
C175 C 0.37908 0.48373 0.23766 0.0
C176 C 0.34133 0.48161 0.19924 0.0
C177 C 0.26789 0.51526 0.18715 0.0
C178 C 0.26275 0.5487 0.24157 0.0
C179 C 0.25377 0.5135 0.28442 0.0
C180 C 0.26079 0.50299 0.23494 0.0
C181 C 0.2536 0.53652 0.28712 0.0
C182 C 0.2697 0.53818 0.19193 0.0
C183 C 0.26884 0.50488 0.12982 0.0
O184 O 0.28855 0.48879 0.96776 0.0
O185 O 0.27655 0.45808 1.00634 0.0
O186 O 0.26901 0.48335 0.12807 0.0
O187 O 0.28142 0.51436 0.09101 0.0
H188 H 0.24212 0.44098 0.95246 0.0
H189 H 0.20609 0.44529 0.90587 0.0
H190 H 0.22466 0.51143 0.85721 0.0
H191 H 0.26068 0.50705 0.90294 0.0
H192 H 0.40425 0.47902 0.1739 0.0
H193 H 0.3784 0.47403 0.09302 0.0
H194 H 0.34966 0.48756 0.28814 0.0
H195 H 0.32378 0.48231 0.20656 0.0
H196 H 0.2632 0.56644 0.24274 0.0
H197 H 0.24668 0.50356 0.31839 0.0
H198 H 0.25905 0.48531 0.23268 0.0
H199 H 0.27501 0.54811 0.1558 0.0
C200 C 0.03197 0.25908 0.9308 0.0
C201 C 0.0423 0.24202 0.96072 0.0
C202 C 0.03318 0.21611 0.88247 0.0
C203 C 0.04276 0.22078 0.93715 0.0
C204 C 0.02355 0.23362 0.8521 0.0
C205 C 0.02282 0.25467 0.8761 0.0
U206 U 0.0385 0.30301 0.05224 0.0
O207 O 0.04717 0.33848 0.04974 0.0
O208 O 1.01408 0.3275 0.07453 0.0
C209 C 0.02839 0.34397 0.07266 0.0
C210 C 0.02985 0.28139 0.95569 0.0
C211 C 0.02958 0.35857 0.1245 0.0
C212 C 0.045 0.39085 0.17452 0.0
C213 C 0.04428 0.37673 0.12669 0.0
C214 C 1.01623 0.36912 0.21915 0.0
C215 C 0.03094 0.38731 0.22158 0.0
C216 C 1.01555 0.355 0.17153 0.0
C217 C 0.06279 0.25912 0.15145 0.0
C218 C 0.08102 0.2351 0.21914 0.0
C219 C 0.05291 0.22044 0.1535 0.0
C220 C 0.05053 0.24118 0.12928 0.0
C221 C 0.06722 0.21759 0.20085 0.0
C222 C 0.07884 0.25578 0.19435 0.0
C223 C 0.05652 0.28156 0.1378 0.0
O224 O 1.01569 0.28322 0.9975 0.0
O225 O 0.04815 0.29292 0.96503 0.0
O226 O 0.06824 0.29203 0.09895 0.0
O227 O 0.03521 0.28446 0.13226 0.0
H228 H 0.04988 0.24508 1.00244 0.0
H229 H 0.05025 0.20796 0.9625 0.0
H230 H 1.01656 0.23121 0.80937 0.0
H231 H 1.01495 0.26757 0.85177 0.0
H232 H 0.05676 0.40447 0.17471 0.0
H233 H 0.05523 0.38007 0.09122 0.0
H234 H 1.00482 0.36594 0.25368 0.0
H235 H 1.00382 0.34136 0.17158 0.0
H236 H 0.09211 0.23319 0.25577 0.0
H237 H 0.04188 0.20724 0.13929 0.0
H238 H 0.03778 0.24352 0.09687 0.0
H239 H 0.08841 0.26948 0.21193 0.0
C240 C 0.29238 0.0302 0.97982 0.0
C241 C 0.31178 0.02567 1.0114 0.0
C242 C 0.33439 0.03327 0.92706 0.0
C243 C 0.33248 0.02715 0.98533 0.0
C244 C 0.31504 0.03843 0.89613 0.0
C245 C 0.29434 0.03682 0.92209 0.0
U246 U 0.24693 0.04112 0.09108 0.0
O247 O 0.21076 0.04364 0.08267 0.0
O248 O 0.22505 0.01654 0.13152 0.0
C249 C 0.207 0.02671 0.11663 0.0
C250 C 0.27003 0.02662 1.00458 0.0
C251 C 0.19104 0.0295 0.16348 0.0
C252 C 0.15933 0.01515 0.2157 0.0
C253 C 0.17383 1.01399 0.16957 0.0
C254 C 0.17872 0.04774 0.25022 0.0
C255 C 0.16167 0.0319 0.25709 0.0
C256 C 0.19334 0.04649 0.20403 0.0
C257 C 0.2904 0.078 0.15751 0.0
C258 C 0.32261 0.08753 0.21561 0.0
C259 C 0.3269 0.07518 0.11742 0.0
C260 C 0.30399 0.07363 0.1108 0.0
C261 C 0.33646 0.08091 0.17105 0.0
C262 C 0.29976 0.08602 0.20886 0.0
C263 C 0.26757 0.06976 0.15734 0.0
O264 O 0.26902 0.0168 0.05494 0.0
O265 O 0.25617 0.04279 0.99942 0.0
O266 O 0.25513 0.07548 0.11317 0.0
O267 O 0.26585 0.04881 0.16987 0.0
H268 H 0.31099 0.02063 0.05607 0.0
H269 H 0.34701 0.02336 1.0108 0.0
H270 H 0.31578 0.04299 0.85111 0.0
H271 H 0.27974 0.04026 0.89649 0.0
H272 H 0.14626 1.00285 0.21894 0.0
H273 H 0.17176 1.00071 0.13894 0.0
H274 H 0.18116 0.06076 0.28143 0.0
H275 H 0.20664 0.05854 0.20052 0.0
H276 H 0.32927 0.0918 0.25775 0.0
H277 H 0.33706 0.07029 0.08201 0.0
H278 H 0.29696 0.06737 0.07078 0.0
H279 H 0.28948 0.08928 0.24542 0.0
C280 C 0.49822 0.28459 0.95534 0.0
C281 C 0.4971 0.3042 0.98678 0.0
C282 C 0.50549 0.3258 0.90074 0.0
C283 C 0.50069 0.32453 0.9598 0.0
C284 C 0.50712 0.30612 0.86978 0.0
C285 C 0.50346 0.28581 0.89671 0.0
U286 U 0.50488 0.23816 0.06838 0.0
O287 O 0.47852 0.21854 0.10907 0.0
O288 O 0.50329 0.20225 0.05788 0.0
C289 C 0.48679 0.19981 0.0935 0.0
C290 C 0.4925 0.26292 0.98125 0.0
C291 C 0.48985 0.18383 0.1407 0.0
C292 C 0.4768 0.15165 0.19331 0.0
C293 C 0.47474 0.1663 0.14709 0.0
C294 C 0.50928 0.17179 0.22729 0.0
C295 C 0.49405 0.15422 0.2343 0.0
C296 C 0.50718 0.18645 0.18107 0.0
C297 C 0.54955 0.27419 0.14084 0.0
C298 C 0.58144 0.29355 0.18162 0.0
C299 C 0.5517 0.3139 0.1378 0.0
C300 C 0.5407 0.29425 0.12374 0.0
C301 C 0.57183 0.31379 0.1688 0.0
C302 C 0.5703 0.27391 0.16802 0.0
C303 C 0.53649 0.25374 0.13587 0.0
O304 O 0.50717 0.24752 0.97671 0.0
O305 O 0.48298 0.26298 0.03171 0.0
O306 O 0.51543 0.25544 0.14694 0.0
O307 O 0.54026 0.24148 0.09083 0.0
H308 H 0.49308 0.30391 0.03202 0.0
H309 H 0.4996 0.33929 0.98526 0.0
H310 H 0.51054 0.30641 0.82418 0.0
H311 H 0.50425 0.27101 0.87127 0.0
H312 H 0.46457 0.13857 0.19756 0.0
H313 H 0.46113 0.16411 0.11668 0.0
H314 H 0.52295 0.17417 0.25738 0.0
H315 H 0.51898 0.19994 0.17706 0.0
H316 H 0.59713 0.29287 0.20437 0.0
H317 H 0.5437 0.32913 0.12758 0.0
H318 H 0.52473 0.29476 0.10228 0.0
H319 H 0.57746 0.25853 0.181 0.0
Eu320 Eu 1.00338 0.02699 0.62312 0.0
Eu321 Eu 0.04013 1.01156 0.71629 0.0
C322 C 0.02702 0.06152 0.70924 0.0
C323 C 0.98423 0.06428 0.51402 0.0
C324 C 1.00321 0.07579 0.53289 0.0
C325 C 0.98278 0.08734 0.42907 0.0
C326 C 1.01243 0.0923 0.49944 0.0
C327 C 0.97385 0.07019 0.46221 0.0
C328 C 1.00246 0.09832 0.4469 0.0
C329 C 0.97785 0.04451 0.5458 0.0
O330 O 1.0077 1.01311 0.76287 0.0
O331 O 0.98294 1.00858 0.68834 0.0
C332 C 0.98761 1.00856 0.74376 0.0
O333 O 1.00967 0.99222 0.59694 0.0
O334 O 0.05818 0.01978 0.79555 0.0
O335 O 0.06348 0.98875 0.75434 0.0
O336 O 0.02662 0.97933 0.67896 0.0
C337 C 0.01754 0.97598 0.62761 0.0
O338 O 0.0366 0.03774 0.5874 0.0
O339 O 0.05911 1.01369 0.63396 0.0
O340 O 0.04403 0.04863 0.70958 0.0
O341 O 0.99013 0.02783 0.53524 0.0
O342 O 0.97531 0.04733 0.6009 0.0
O343 O 1.00802 0.05425 0.6885 0.0
C344 C 0.0613 0.9892 0.85486 0.0
C345 C 0.03962 0.98175 0.86385 0.0
C346 C 0.07203 0.975 0.94853 0.0
C347 C 0.03417 0.97086 0.91448 0.0
C348 C 0.07745 0.9861 0.89768 0.0
C349 C 0.05034 0.96707 0.9571 0.0
C350 C 0.06651 1.00042 0.80086 0.0
C351 C 0.05522 0.02718 0.59108 0.0
H352 H 1.01154 0.07137 0.5727 0.0
H353 H 0.97445 0.09175 0.3893 0.0
H354 H 0.02786 0.09974 0.51422 0.0
H355 H 0.95928 0.06129 0.44686 0.0
H356 H 0.02698 0.98394 0.83105 0.0
H357 H 0.08482 0.97228 0.98066 0.0
H358 H 0.01745 0.96454 0.91897 0.0
H359 H 0.09423 0.99195 0.89144 0.0
Eu360 Eu 0.52975 0.03628 0.69507 0.0
Eu361 Eu 0.5059 0.99968 0.61167 0.0
C362 C 0.52618 0.98479 0.73285 0.0
C363 C 0.57562 0.06916 0.76256 0.0
C364 C 0.58982 0.0516 0.75541 0.0
C365 C 0.6074 0.0935 0.77773 0.0
C366 C 0.61257 0.05486 0.76014 0.0
C367 C 0.58452 0.09018 0.77305 0.0
C368 C 0.62168 0.0758 0.77181 0.0
C369 C 0.55168 0.0655 0.75628 0.0
O370 O 0.48175 1.00612 0.68246 0.0
O371 O 0.49321 0.04068 0.70934 0.0
C372 C 0.47828 0.02467 0.70916 0.0
O373 O 0.52761 0.05048 0.60521 0.0
O374 O 0.47953 0.97591 0.59013 0.0
O375 O 0.5044 0.9838 0.52759 0.0
O376 O 0.49581 0.03286 0.57909 0.0
C377 C 0.51005 0.04899 0.57179 0.0
O378 O 0.55818 0.0181 0.65825 0.0
O379 O 0.54052 1.00437 0.57794 0.0
O380 O 0.52267 0.97895 0.67892 0.0
O381 O 0.54347 0.06953 0.70534 0.0
O382 O 0.54394 0.04713 0.77735 0.0
O383 O 0.52599 1.00547 0.74885 0.0
C384 C 0.46804 0.98351 0.49506 0.0
C385 C 0.45635 1.0022 0.50951 0.0
C386 C 0.45404 0.98634 0.39682 0.0
C387 C 0.4441 1.01318 0.46793 0.0
C388 C 0.4666 0.97544 0.43866 0.0
C389 C 0.44302 1.00564 0.41079 0.0
C390 C 0.48475 0.97553 0.53589 0.0
C391 C 0.55876 1.00946 0.60665 0.0
H392 H 0.58332 0.03524 0.74681 0.0
H393 H 0.61389 0.10986 0.78627 0.0
H394 H 0.62296 0.04076 0.75645 0.0
H395 H 0.5738 0.10398 0.77776 0.0
H396 H 0.45761 1.00907 0.55245 0.0
H397 H 0.45332 0.9799 0.35344 0.0
H398 H 0.43633 0.02821 0.48029 0.0
H399 H 0.47585 0.96126 0.42649 0.0
Eu400 Eu 0.50268 0.52286 0.68906 0.0
Eu401 Eu 0.54264 0.5057 0.60855 0.0
C402 C 0.55324 0.52585 0.73556 0.0
C403 C 0.46939 0.54392 0.8141 0.0
C404 C 0.48663 0.54066 0.85392 0.0
C405 C 0.45075 0.5659 0.88411 0.0
C406 C 0.48616 0.55043 0.90824 0.0
C407 C 0.4512 0.55605 0.83 0.0
C408 C 0.46855 0.56379 0.92323 0.0
C409 C 0.47135 0.53709 0.75406 0.0
O410 O 0.52585 0.47526 0.64493 0.0
O411 O 0.51441 0.49117 0.72772 0.0
C412 C 0.51933 0.4736 0.69852 0.0
O413 O 0.48499 0.50483 0.61657 0.0
O414 O 0.57079 0.48495 0.5945 0.0
O415 O 0.56188 0.50917 0.53051 0.0
O416 O 0.51255 0.50441 0.54994 0.0
C417 C 0.49166 0.5022 0.56353 0.0
O418 O 0.50726 0.54713 0.61643 0.0
O419 O 0.54408 0.54271 0.60752 0.0
O420 O 0.55878 0.51225 0.69486 0.0
O421 O 0.48396 0.54977 0.72284 0.0
O422 O 0.47462 0.51635 0.74483 0.0
O423 O 0.53362 0.53456 0.73662 0.0
C424 C 0.57849 0.47681 0.49686 0.0
C425 C 0.58633 0.45592 0.5104 0.0
C426 C 0.57952 0.46759 0.39508 0.0
C427 C 0.59043 0.44093 0.46684 0.0
C428 C 0.57542 0.4826 0.43869 0.0
C429 C 0.58695 0.44654 0.40872 0.0
C430 C 0.57447 0.49275 0.54311 0.0
C431 C 0.52654 0.55454 0.59945 0.0
H432 H 0.50086 0.53137 0.84211 0.0
H433 H 0.43709 0.57631 0.89368 0.0
H434 H 0.5 0.54826 0.93758 0.0
H435 H 0.43785 0.55883 0.79948 0.0
H436 H 0.58919 0.45107 0.55474 0.0
H437 H 0.57693 0.47247 0.35067 0.0
H438 H 0.59586 0.42475 0.47885 0.0
H439 H 0.56981 0.49873 0.42676 0.0
Eu440 Eu 0.0328 0.53938 0.6164 0.0
Eu441 Eu 1.00954 0.50101 0.69387 0.0
C442 C 0.06198 0.50775 0.69948 0.0
C443 C 0.07803 0.57069 0.54316 0.0
C444 C 0.09347 0.55852 0.57452 0.0
C445 C 0.10713 0.58351 0.4802 0.0
C446 C 0.11553 0.55872 0.55879 0.0
C447 C 0.085 0.58339 0.4963 0.0
C448 C 0.12258 0.57091 0.51081 0.0
C449 C 0.05461 0.56908 0.55789 0.0
O450 O 0.0197 0.52882 0.75394 0.0
O451 O 1.01604 0.55662 0.6894 0.0
C452 C 0.01702 0.54972 0.74297 0.0
O453 O 0.99778 0.53711 0.5819 0.0
O454 O 0.9949 0.49074 0.77496 0.0
O455 O 0.99555 0.46792 0.70412 0.0
O456 O 0.98159 0.52157 0.66108 0.0
C457 C 0.98011 0.53147 0.61094 0.0
O458 O 0.04011 0.50735 0.5722 0.0
O459 O 1.00955 0.48848 0.60212 0.0
O460 O 0.04565 0.49324 0.7013 0.0
O461 O 0.04345 0.55292 0.53392 0.0
O462 O 0.0504 0.57086 0.6125 0.0
O463 O 0.05926 0.52739 0.67753 0.0
C464 C 0.96351 0.46843 0.76079 0.0
C465 C 0.94879 0.47221 0.71469 0.0
C466 C 0.93254 0.46439 0.82481 0.0
C467 C 0.92607 0.47233 0.72378 0.0
C468 C 0.95519 0.46401 0.81551 0.0
C469 C 0.91767 0.46905 0.77935 0.0
C470 C 0.98737 0.47219 0.75429 0.0
C471 C 0.02574 0.49106 0.56571 0.0
H472 H 0.08838 0.54852 0.61063 0.0
H473 H 0.11195 0.59283 0.44255 0.0
H474 H 0.12701 0.54906 0.58375 0.0
H475 H 0.07326 0.59276 0.4714 0.0
H476 H 0.95486 0.47594 0.67209 0.0
H477 H 0.92688 0.46223 0.86844 0.0
H478 H 0.91519 0.47568 0.68758 0.0
H479 H 0.9663 0.4614 0.85175 0.0
H480 H 0.14708 0.99725 0.32248 0.0
H481 H 0.14229 0.06747 0.30691 0.0
H482 H 0.12205 0.99742 0.40325 0.0
H483 H 0.11752 0.06771 0.38907 0.0
H484 H 0.0538 0.05398 0.49547 0.0
H485 H 0.07991 0.05608 0.41649 0.0
H486 H 0.12062 1.00872 0.50302 0.0
H487 H 0.09453 1.00642 0.58137 0.0
C488 C 0.14066 1.01277 0.33619 0.0
C489 C 0.14669 0.03233 0.30774 0.0
C490 C 0.12646 1.01289 0.3831 0.0
C491 C 0.11774 0.03259 0.40307 0.0
C492 C 0.12376 0.05221 0.37472 0.0
C493 C 0.13814 0.0521 0.3279 0.0
C494 C 0.06841 0.04413 0.49792 0.0
C495 C 0.07193 0.02995 0.54494 0.0
C496 C 0.08346 0.04541 0.45262 0.0
C497 C 0.10235 0.03244 0.45294 0.0
C498 C 0.1061 0.01868 0.50067 0.0
C499 C 0.09115 0.01748 0.54597 0.0
H500 H 0.48635 0.10961 0.23652 0.0
H501 H 0.50597 0.16393 0.34621 0.0
H502 H 0.48946 0.08468 0.31827 0.0
H503 H 0.50919 0.13899 0.42778 0.0
H504 H 0.53606 0.08473 0.54488 0.0
H505 H 0.5319 0.10991 0.46408 0.0
H506 H 0.4727 0.07468 0.40903 0.0
H507 H 0.47708 0.04928 0.48944 0.0
C508 C 0.49115 0.11631 0.27811 0.0
C509 C 0.49597 0.13886 0.28443 0.0
C510 C 0.49293 0.10197 0.32512 0.0
C511 C 0.49963 0.10975 0.37982 0.0
C512 C 0.50435 0.13231 0.38619 0.0
C513 C 0.50253 0.14664 0.33924 0.0
C514 C 0.5221 0.08237 0.51572 0.0
C515 C 0.50691 0.06492 0.52383 0.0
C516 C 0.51964 0.09692 0.46943 0.0
C517 C 0.50195 0.09441 0.4298 0.0
C518 C 0.48668 0.07701 0.43815 0.0
C519 C 0.48911 0.0625 0.48459 0.0
H520 H 0.41829 0.50695 0.23983 0.0
H521 H 0.37613 0.46685 0.34714 0.0
H522 H 0.44508 0.51046 0.31863 0.0
H523 H 0.40305 0.47023 0.42611 0.0
H524 H 0.44658 0.50013 0.57202 0.0
H525 H 0.41927 0.49569 0.49457 0.0
H526 H 0.47149 0.4896 0.37197 0.0
H527 H 0.4988 0.49455 0.44911 0.0
C528 C 0.41479 0.49873 0.28015 0.0
C529 C 0.39504 0.48653 0.28693 0.0
C530 C 0.43022 0.5007 0.32541 0.0
C531 C 0.42639 0.49049 0.37882 0.0
C532 C 0.4065 0.47852 0.38589 0.0
C533 C 0.39102 0.47659 0.34057 0.0
C534 C 0.45228 0.49771 0.52862 0.0
C535 C 0.47497 0.49779 0.51698 0.0
C536 C 0.43656 0.49507 0.48412 0.0
C537 C 0.4431 0.49242 0.42675 0.0
C538 C 0.4658 0.49201 0.41537 0.0
C539 C 0.4815 0.49469 0.45981 0.0
H540 H 0.02522 0.37709 0.33623 0.0
H541 H 0.03762 0.43227 0.22364 0.0
H542 H 0.02454 0.40173 0.4184 0.0
H543 H 0.0372 0.45689 0.30617 0.0
H544 H 0.05484 0.49281 0.47589 0.0
H545 H 0.05692 0.46791 0.39398 0.0
H546 H 1.00218 0.42966 0.46006 0.0
H547 H 1.00027 0.45432 0.54207 0.0
C548 C 0.02766 0.39448 0.32869 0.0
C549 C 0.03136 0.40252 0.27264 0.0
C550 C 0.0273 0.40868 0.37612 0.0
C551 C 0.03072 0.43143 0.36931 0.0
C552 C 0.03476 0.43948 0.31347 0.0
C553 C 0.03504 0.42528 0.26593 0.0
C554 C 0.04328 0.47905 0.47311 0.0
C555 C 0.0274 0.47566 0.51595 0.0
C556 C 0.04438 0.4648 0.42579 0.0
C557 C 0.02973 0.44665 0.42002 0.0
C558 C 1.01395 0.44322 0.46313 0.0
C559 C 1.01278 0.4575 0.51022 0.0
H560 H 0.86886 0.97492 0.94231 0.0
H561 H 0.90729 0.02053 0.04702 0.0
H562 H 0.89673 0.97736 0.86765 0.0
H563 H 0.93499 0.02301 0.97271 0.0
H564 H 0.99194 1.00506 0.8608 0.0
H565 H 0.96313 1.00145 0.9317 0.0
H566 H 0.91373 1.00095 0.79567 0.0
H567 H 0.94277 1.00408 0.72414 0.0
C568 C 0.8831 0.98567 0.9492 0.0
C569 C 0.88583 0.99737 1.00112 0.0
C570 C 0.89913 0.98706 0.90632 0.0
C571 C 0.91833 1.0002 0.91417 0.0
C572 C 0.92075 1.01229 0.96552 0.0
C573 C 0.90478 1.01089 1.00827 0.0
C574 C 0.97497 1.00406 0.8457 0.0
C575 C 0.96977 1.00496 0.78647 0.0
C576 C 0.95836 1.00216 0.88662 0.0
C577 C 0.93597 1.00119 0.86974 0.0
C578 C 0.93075 1.00153 0.8104 0.0
C579 C 0.94743 1.0034 0.7693 0.0
H580 H 0.50981 0.87307 0.96427 0.0
H581 H 0.56886 0.90646 0.02776 0.0
H582 H 0.50709 0.89967 0.88597 0.0
H583 H 0.56593 0.93313 0.95005 0.0
H584 H 0.53825 0.99071 0.84585 0.0
H585 H 0.54212 0.96308 0.92079 0.0
H586 H 0.52552 0.9123 0.79736 0.0
H587 H 0.52139 0.94005 0.72211 0.0
C588 C 0.52234 0.88593 0.96135 0.0
C589 C 0.53949 0.8876 1.00282 0.0
C590 C 0.52076 0.90121 0.91637 0.0
C591 C 0.53623 0.91863 0.91176 0.0
C592 C 0.5535 0.92016 0.9528 0.0
C593 C 0.55514 0.90486 0.99755 0.0
C594 C 0.53548 0.97366 0.83444 0.0
C595 C 0.52948 0.96767 0.77775 0.0
C596 C 0.53783 0.95777 0.87749 0.0
C597 C 0.53414 0.93542 0.86523 0.0
C598 C 0.52826 0.92937 0.80847 0.0
C599 C 0.52605 0.94529 0.76521 0.0
H600 H 0.63421 0.57795 0.02325 0.0
H601 H 0.65752 0.51277 0.99255 0.0
H602 H 0.60765 0.57359 0.94381 0.0
H603 H 0.63097 0.50837 0.91346 0.0
H604 H 0.59655 0.51474 0.74031 0.0
H605 H 0.62325 0.52103 0.81783 0.0
H606 H 0.57401 0.5539 0.91573 0.0
H607 H 0.54723 0.54798 0.83715 0.0
C608 C 0.63361 0.56263 0.99977 0.0
C609 C 0.64809 0.54573 1.01436 0.0
C610 C 0.61833 0.56012 0.95423 0.0
C611 C 0.61711 0.54063 0.92201 0.0
C612 C 0.63165 0.52377 0.93654 0.0
C613 C 0.64694 0.52629 0.98197 0.0
C614 C 0.59135 0.52338 0.7782 0.0
C615 C 0.56964 0.53078 0.78238 0.0
C616 C 0.60669 0.52688 0.82297 0.0
C617 C 0.60081 0.5378 0.87346 0.0
C618 C 0.57921 0.54559 0.87731 0.0
C619 C 0.56381 0.54213 0.83229 0.0
H620 H 0.03949 0.62038 0.06602 0.0
H621 H 0.99007 0.65848 0.97841 0.0
H622 H 0.03959 0.59504 0.98539 0.0
H623 H 0.99023 0.63306 0.89739 0.0
H624 H 1.01251 0.59451 0.73798 0.0
H625 H 1.01179 0.62044 0.81792 0.0
H626 H 0.01783 0.56691 0.93859 0.0
H627 H 0.01894 0.54113 0.85891 0.0
C628 C 0.02843 0.62328 0.02989 0.0
C629 C 1.01466 0.64156 0.02939 0.0
C630 C 0.0285 0.60867 0.98336 0.0
C631 C 1.01483 0.6118 0.93456 0.0
C632 C 1.00119 0.63017 0.93372 0.0
C633 C 1.0011 0.64481 0.98039 0.0
C634 C 1.01364 0.58825 0.78156 0.0
C635 C 1.01586 0.56564 0.79168 0.0
C636 C 1.01312 0.60315 0.82758 0.0
C637 C 1.01485 0.59591 0.88513 0.0
C638 C 1.01683 0.57326 0.89508 0.0
C639 C 0.01733 0.55838 0.84916 0.0
H640 H 0.05647 0.21944 0.31205 0.0
H641 H 0.06772 0.1738 0.17474 0.0
H642 H 0.04183 0.1902 0.37094 0.0
H643 H 0.05449 0.14363 0.23568 0.0
H644 H 1.00338 0.10108 0.32856 0.0
H645 H 0.0218 0.12887 0.27057 0.0
H646 H 0.04702 0.16027 0.42585 0.0
H647 H 0.02627 0.13456 0.48314 0.0
C648 C 0.05667 0.20286 0.29551 0.0
C649 C 0.06341 0.19875 0.23926 0.0
C650 C 0.04827 0.18597 0.32937 0.0
C651 C 0.04689 0.16438 0.30835 0.0
C652 C 0.05484 0.16009 0.25293 0.0
C653 C 0.06274 0.17722 0.21831 0.0
C654 C 1.01237 0.11426 0.35031 0.0
C655 C 1.01323 0.11546 0.41076 0.0
C656 C 0.02344 0.12994 0.31695 0.0
C657 C 0.03606 0.1469 0.34327 0.0
C658 C 0.03718 0.1478 0.40369 0.0
C659 C 0.02553 0.13266 0.43683 0.0
H660 H 0.35917 0.04535 0.13556 0.0
H661 H 0.36614 0.10369 0.24023 0.0
H662 H 0.39078 0.02985 0.18499 0.0
H663 H 0.39735 0.08755 0.29113 0.0
H664 H 0.40485 0.02786 0.42341 0.0
H665 H 0.3863 0.05085 0.35351 0.0
H666 H 0.43405 0.0348 0.22579 0.0
H667 H 0.45379 1.01258 0.29715 0.0
C668 C 0.36799 0.05536 0.16718 0.0
C669 C 0.35969 0.07555 0.18512 0.0
C670 C 0.38611 0.04636 0.1956 0.0
C671 C 0.39606 0.05736 0.24247 0.0
C672 C 0.38967 0.0787 0.25543 0.0
C673 C 0.37175 0.08785 0.22652 0.0
C674 C 0.41184 0.02954 0.381 0.0
C675 C 0.431 0.01848 0.3663 0.0
C676 C 0.40118 0.04276 0.34099 0.0
C677 C 0.40909 0.04491 0.28487 0.0
C678 C 0.42788 0.03355 0.26919 0.0
C679 C 0.43892 0.02062 0.30982 0.0
H680 H 0.57371 0.355 0.12043 0.0
H681 H 0.5902 0.31942 0.27585 0.0
H682 H 0.58223 0.38952 0.17009 0.0
H683 H 0.59896 0.3536 0.32455 0.0
H684 H 0.62031 0.41741 0.39932 0.0
H685 H 0.62227 0.38689 0.33199 0.0
H686 H 0.56232 0.40785 0.24785 0.0
H687 H 0.56031 0.43821 0.31505 0.0
C688 C 0.57949 0.3545 0.16476 0.0
C689 C 0.58106 0.33442 0.19424 0.0
C690 C 0.5844 0.37425 0.1931 0.0
C691 C 0.59111 0.37427 0.2513 0.0
C692 C 0.59413 0.35416 0.27947 0.0
C693 C 0.58912 0.33448 0.25136 0.0
C694 C 0.60768 0.41559 0.36606 0.0
C695 C 0.58998 0.43002 0.36299 0.0
C696 C 0.60886 0.39819 0.32742 0.0
C697 C 0.59237 0.39488 0.28493 0.0
C698 C 0.57544 0.41011 0.27964 0.0
C699 C 0.57425 0.42749 0.31829 0.0
H700 H 0.22574 0.57052 0.27227 0.0
H701 H 0.25094 0.52657 0.40246 0.0
H702 H 0.1977 0.58226 0.33753 0.0
H703 H 0.22257 0.53839 0.46821 0.0
H704 H 0.14713 0.53413 0.50591 0.0
H705 H 0.1831 0.5301 0.46392 0.0
H706 H 0.18611 0.59943 0.42613 0.0
H707 H 0.14986 0.60352 0.46868 0.0
C708 C 0.22587 0.56394 0.3156 0.0
C709 C 0.24046 0.54737 0.33182 0.0
C710 C 0.20967 0.57069 0.35314 0.0
C711 C 0.20766 0.56101 0.40777 0.0
C712 C 0.22344 0.54583 0.4259 0.0
C713 C 0.23969 0.53908 0.3883 0.0
C714 C 0.15565 0.54866 0.49008 0.0
C715 C 0.14554 0.56914 0.49038 0.0
C716 C 0.17637 0.54635 0.4661 0.0
C717 C 0.18751 0.56445 0.44166 0.0
C718 C 0.17784 0.58514 0.44411 0.0
C719 C 0.15706 0.58746 0.46822 0.0
H720 H 1.01283 0.84415 0.04793 0.0
H721 H 0.98856 0.87429 0.20182 0.0
H722 H 0.02965 0.87878 0.01908 0.0
H723 H 1.00566 0.9095 0.17234 0.0
H724 H 1.01342 0.96691 0.02356 0.0
H725 H 0.99989 0.93627 0.08223 0.0
H726 H 0.06136 0.9035 0.05944 0.0
H727 H 0.07469 0.93367 0.99979 0.0
C728 C 1.01084 0.85831 0.07525 0.0
C729 C 0.99912 0.85663 0.12669 0.0
C730 C 0.02081 0.87804 0.05922 0.0
C731 C 0.01926 0.89665 0.09407 0.0
C732 C 1.0072 0.89526 0.14511 0.0
C733 C 0.99741 0.87525 0.16175 0.0
C734 C 0.02425 0.95341 0.03245 0.0
C735 C 0.0449 0.95242 1.00601 0.0
C736 C 1.01657 0.93601 0.06638 0.0
C737 C 0.02946 0.91744 0.0742 0.0
C738 C 0.05104 0.91759 0.05328 0.0
C739 C 0.05872 0.93495 0.01948 0.0
H740 H 0.73318 0.02489 0.90909 0.0
H741 H 0.74818 0.09311 0.945 0.0
H742 H 0.70638 0.03546 0.83661 0.0
H743 H 0.72082 0.10373 0.87245 0.0
H744 H 0.65549 0.05653 0.71493 0.0
H745 H 0.69378 0.05426 0.748 0.0
H746 H 0.68059 0.09885 0.88666 0.0
H747 H 0.64248 0.10082 0.85455 0.0
C748 C 0.73151 0.04218 0.89987 0.0
C749 C 0.74247 0.05816 0.93398 0.0
C750 C 0.71602 0.04826 0.85811 0.0
C751 C 0.71112 0.07044 0.84973 0.0
C752 C 0.72395 0.08649 0.87888 0.0
C753 C 0.73957 0.0804 0.92047 0.0
C754 C 0.66089 0.06614 0.75191 0.0
C755 C 0.64579 0.07847 0.7829 0.0
C756 C 0.68284 0.06493 0.77057 0.0
C757 C 0.69015 0.07618 0.82025 0.0
C758 C 0.67558 0.09016 0.84783 0.0
C759 C 0.65363 0.09125 0.82944 0.0
H760 H 0.5065 0.66534 0.16874 0.0
H761 H 0.44428 0.68091 0.08733 0.0
H762 H 0.50221 0.62758 0.13565 0.0
H763 H 0.44036 0.64343 0.05253 0.0
H764 H 0.43544 0.57445 0.99692 0.0
H765 H 0.43652 0.60386 0.0682 0.0
H766 H 0.50593 0.61461 0.03739 0.0
H767 H 0.50485 0.58565 0.96639 0.0
C768 C 0.4916 0.66056 0.14518 0.0
C769 C 0.47589 0.67618 0.12976 0.0
C770 C 0.48925 0.63897 0.12581 0.0
C771 C 0.47114 0.63259 0.09067 0.0
C772 C 0.45448 0.64774 0.07969 0.0
C773 C 0.45683 0.66931 0.09905 0.0
C774 C 0.451 0.58286 1.00619 0.0
C775 C 0.46999 0.57788 0.97531 0.0
C776 C 0.45161 0.59966 0.04707 0.0
C777 C 0.47125 0.61171 0.05804 0.0
C778 C 0.49059 0.6055 0.0306 0.0
C779 C 0.48996 0.58881 0.9897 0.0
H780 H 0.79492 0.48091 0.95962 0.0
H781 H 0.81665 0.54533 0.90385 0.0
H782 H 0.81885 0.4644 0.89013 0.0
H783 H 0.84204 0.52893 0.83847 0.0
H784 H 0.89006 0.49901 0.72933 0.0
H785 H 0.85386 0.50923 0.76106 0.0
H786 H 0.85628 0.459 0.89258 0.0
H787 H 0.89138 0.44747 0.85724 0.0
C788 C 0.8044 0.49162 0.93173 0.0
C789 C 0.80428 0.51451 0.93865 0.0
C790 C 0.81849 0.4821 0.8924 0.0
C791 C 0.83309 0.49521 0.8599 0.0
C792 C 0.83122 0.51813 0.86261 0.0
C793 C 0.81682 0.52763 0.90101 0.0
C794 C 0.88254 0.48956 0.76358 0.0
C795 C 0.89399 0.47268 0.79156 0.0
C796 C 0.86182 0.49569 0.78247 0.0
C797 C 0.85222 0.48542 0.83054 0.0
C798 C 0.86291 0.46739 0.85538 0.0
C799 C 0.88339 0.46098 0.83575 0.0
H800 H 1.0018 0.19653 0.81059 0.0
H801 H 0.06367 0.18312 0.89686 0.0
H802 H 1.00152 0.16055 0.76756 0.0
H803 H 0.0624 0.14619 0.85746 0.0
H804 H 0.06432 0.08633 0.73785 0.0
H805 H 0.06633 0.12327 0.77845 0.0
H806 H 0.99516 0.12401 0.78222 0.0
H807 H 0.99332 0.08788 0.73917 0.0
C808 C 1.01545 0.18601 0.82059 0.0
C809 C 0.03286 0.19324 0.85735 0.0
C810 C 1.01506 0.16494 0.79649 0.0
C811 C 0.03184 0.14996 0.80891 0.0
C812 C 0.04923 0.15709 0.84591 0.0
C813 C 0.04978 0.17836 0.86949 0.0
C814 C 0.04912 0.09447 0.74714 0.0
C815 C 0.02866 0.08406 0.73466 0.0
C816 C 0.05024 0.1157 0.77096 0.0
C817 C 0.03092 0.12709 0.78376 0.0
C818 C 1.0105 0.11637 0.7719 0.0
C819 C 1.00941 0.09538 0.74739 0.0
H820 H 0.35144 0.06343 0.85026 0.0
H821 H 0.36693 1.00299 0.93709 0.0
H822 H 0.38626 0.06214 0.79875 0.0
H823 H 0.40176 1.00185 0.88628 0.0
H824 H 0.44739 0.9927 0.73284 0.0
H825 H 0.41353 0.99567 0.78655 0.0
H826 H 0.42735 0.0646 0.81309 0.0
H827 H 0.46151 0.06166 0.75902 0.0
C828 C 0.36228 0.0499 0.85854 0.0
C829 C 0.35626 0.03329 0.89788 0.0
C830 C 0.38235 0.04926 0.82932 0.0
C831 C 0.39684 0.03183 0.83803 0.0
C832 C 0.39094 0.0154 0.87794 0.0
C833 C 0.37103 0.01617 0.90759 0.0
C834 C 0.4433 1.00855 0.74994 0.0
C835 C 0.45733 0.02694 0.74141 0.0
C836 C 0.42387 1.01021 0.78121 0.0
C837 C 0.41767 0.03035 0.80457 0.0
C838 C 0.43152 0.04885 0.7955 0.0
C839 C 0.45117 0.04714 0.76466 0.0
H840 H 0.53551 0.33827 0.8186 0.0
H841 H 0.48105 0.36255 0.91507 0.0
H842 H 0.53915 0.37355 0.76951 0.0
H843 H 0.48447 0.39764 0.86571 0.0
H844 H 0.50975 0.46491 0.81102 0.0
H845 H 0.50716 0.42961 0.8592 0.0
H846 H 0.52219 0.39718 0.69998 0.0
H847 H 0.52541 0.43275 0.65193 0.0
C848 C 0.5242 0.35108 0.82911 0.0
C849 C 0.50805 0.34751 0.87113 0.0
C850 C 0.52625 0.37134 0.80078 0.0
C851 C 0.51215 0.38862 0.8135 0.0
C852 C 0.49595 0.38497 0.8554 0.0
C853 C 0.49397 0.36477 0.88384 0.0
C854 C 0.51252 0.45029 0.78608 0.0
C855 C 0.51774 0.45177 0.72737 0.0
C856 C 0.51089 0.42994 0.81378 0.0
C857 C 0.51432 0.41036 0.78365 0.0
C858 C 0.51967 0.41184 0.72491 0.0
C859 C 0.52139 0.43227 0.69717 0.0
H860 H 0.17186 0.46486 0.91674 0.0
H861 H 0.20278 0.49892 0.77516 0.0
H862 H 0.1357 0.47071 0.87243 0.0
H863 H 0.16671 0.50474 0.73092 0.0
H864 H 0.0988 0.53436 0.70625 0.0
H865 H 0.13467 0.52631 0.74763 0.0
H866 H 0.11147 0.46099 0.79082 0.0
H867 H 0.07521 0.46915 0.74961 0.0
C868 C 0.17099 0.47337 0.87583 0.0
C869 C 0.19029 0.48154 0.84979 0.0
C870 C 0.15022 0.47671 0.85037 0.0
C871 C 0.14821 0.48832 0.7982 0.0
C872 C 0.16756 0.4961 0.77165 0.0
C873 C 0.18828 0.49277 0.79708 0.0
C874 C 0.10127 0.51819 0.72412 0.0
C875 C 0.08401 0.50238 0.7242 0.0
C876 C 0.12197 0.51354 0.74776 0.0
C877 C 0.12608 0.49295 0.77239 0.0
C878 C 0.10885 0.47709 0.77265 0.0
C879 C 0.08807 0.48173 0.74874 0.0
H880 H 0.04985 0.84508 0.50353 0.0
H881 H 0.98673 0.85785 0.42327 0.0
H882 H 0.04897 0.88021 0.55287 0.0
H883 H 0.98533 0.89241 0.47489 0.0
H884 H 1.00056 0.96372 0.52223 0.0
H885 H 1.00084 0.92811 0.47632 0.0
H886 H 0.0326 0.90097 0.6273 0.0
H887 H 0.03286 0.93707 0.673 0.0
C888 C 0.03575 0.85533 0.49622 0.0
C889 C 0.01843 0.84843 0.45874 0.0
C890 C 0.03509 0.87545 0.5254 0.0
C891 C 0.01709 0.88942 0.51821 0.0
C892 C 0.99967 0.8824 0.48121 0.0
C893 C 1.00034 0.86231 0.45197 0.0
C894 C 1.00754 0.95021 0.54609 0.0
C895 C 1.01668 0.95348 0.60167 0.0
C896 C 1.00757 0.92959 0.51964 0.0
C897 C 1.01669 0.91138 0.54776 0.0
C898 C 0.02566 0.91455 0.6037 0.0
C899 C 0.02565 0.93529 0.63025 0.0
H900 H 0.66509 1.00231 0.35924 0.0
H901 H 0.69732 0.98961 0.52273 0.0
H902 H 0.63023 1.00652 0.40793 0.0
H903 H 0.66225 0.99277 0.57108 0.0
H904 H 0.60004 0.02181 0.64708 0.0
H905 H 0.63524 0.01824 0.59939 0.0
H906 H 0.60202 0.98611 0.45574 0.0
H907 H 0.5668 0.9902 0.50274 0.0
C908 C 0.66481 1.00046 0.4056 0.0
C909 C 0.68419 0.9956 0.43681 0.0
C910 C 0.64467 1.00258 0.43355 0.0
C911 C 0.64324 0.99989 0.49364 0.0
C912 C 0.66264 0.99517 0.52491 0.0
C913 C 0.68278 0.99307 0.49695 0.0
C914 C 0.60022 1.0139 0.60543 0.0
C915 C 0.58046 1.00632 0.57889 0.0
C916 C 0.62049 1.01176 0.57806 0.0
C917 C 0.62163 1.00193 0.5234 0.0
C918 C 0.60186 0.99412 0.49726 0.0
C919 C 0.5816 0.99632 0.52453 0.0
H920 H 0.51217 0.68954 0.48055 0.0
H921 H 0.56029 0.66265 0.36727 0.0
H922 H 0.50957 0.65469 0.53158 0.0
H923 H 0.557 0.62749 0.41681 0.0
H924 H 0.56365 0.57509 0.5574 0.0
H925 H 0.56639 0.61013 0.507 0.0
H926 H 0.4961 0.61757 0.5214 0.0
H927 H 0.49343 0.5828 0.57284 0.0
C928 C 0.5222 0.6762 0.46641 0.0
C929 C 0.5365 0.67904 0.41975 0.0
C930 C 0.52051 0.65608 0.49534 0.0
C931 C 0.53309 0.63818 0.47851 0.0
C932 C 0.54726 0.64095 0.43154 0.0
C933 C 0.54893 0.66108 0.40257 0.0
C934 C 0.54877 0.58422 0.55 0.0
C935 C 0.52833 0.57608 0.56939 0.0
C936 C 0.55032 0.60428 0.52065 0.0
C937 C 0.53146 0.61676 0.50988 0.0
C938 C 0.51103 0.60861 0.52949 0.0
C939 C 0.50948 0.58857 0.55882 0.0
H940 H 0.86424 0.57595 0.41673 0.0
H941 H 0.8425 0.51691 0.50359 0.0
H942 H 0.9006 0.57293 0.46196 0.0
H943 H 0.87892 0.51359 0.54802 0.0
H944 H 0.93997 0.52392 0.66056 0.0
H945 H 0.90351 0.52891 0.61814 0.0
H946 H 0.93318 0.55217 0.46086 0.0
H947 H 0.96967 0.54784 0.50404 0.0
C948 C 0.86728 0.56221 0.44513 0.0
C949 C 0.85042 0.54668 0.45652 0.0
C950 C 0.88818 0.56044 0.47105 0.0
C951 C 0.89284 0.54301 0.50881 0.0
C952 C 0.87592 0.52748 0.52012 0.0
C953 C 0.855 0.52934 0.49449 0.0
C954 C 0.93876 0.53028 0.61707 0.0
C955 C 0.95785 0.53553 0.58584 0.0
C956 C 0.91777 0.53297 0.59248 0.0
C957 C 0.91525 0.54086 0.5358 0.0
C958 C 0.93437 0.54635 0.50484 0.0
C959 C 0.95537 0.54377 0.52956 0.0
loop_
_geom_bond_atom_site_label_1
_geom_bond_atom_site_label_2
_geom_bond_distance
_geom_bond_site_symmetry_2
_ccdc_geom_bond_type
C0 C1 1.264 . S
C0 C5 1.479 . S
C0 C10 1.465 . S
C1 C0 1.264 . S
C1 C3 1.339 . S
C1 H28 0.931 . S
C2 C3 1.395 . S
C2 C4 1.320 . S
C3 C1 1.339 . S
C3 C2 1.395 . S
C3 H29 0.929 . S
C4 C2 1.320 . S
C4 C5 1.405 . S
C4 H30 0.930 . S
C5 C0 1.479 . S
C5 C4 1.405 . S
C5 H31 0.931 . S
U6 O7 2.454 . S
U6 O8 2.458 . S
U6 C9 2.984 . S
U6 C10 2.847 . S
U6 C23 2.882 . S
U6 O24 2.441 . S
U6 O25 2.420 . S
U6 O26 2.455 . S
U6 O27 2.449 . S
O7 U6 2.454 . S
O7 C9 1.353 . S
O8 U6 2.458 . S
O8 C9 1.286 . S
C9 U6 2.984 . S
C9 O7 1.353 . S
C9 O8 1.286 . S
C9 C11 1.363 . S
C10 C0 1.465 . S
C10 U6 2.847 . S
C10 O24 1.249 . S
C10 O25 1.202 . S
C11 C9 1.363 . S
C11 C13 1.408 . S
C11 C16 1.342 . S
C12 C13 1.310 . S
C12 C15 1.461 . S
C12 H32 0.932 . S
C13 C11 1.408 . S
C13 C12 1.310 . S
C13 H33 0.930 . S
C14 C15 1.474 . S
C14 C16 1.285 . S
C14 H34 0.929 . S
C15 C12 1.461 . S
C15 C14 1.474 . S
C16 C11 1.342 . S
C16 C14 1.285 . S
C16 H35 0.930 . S
C17 C20 1.424 . S
C17 C22 1.245 . S
C17 C23 1.428 . S
C18 C21 1.260 . S
C18 C22 1.477 1_556 S
C18 H36 0.932 . S
C19 C20 1.384 . S
C19 C21 1.479 1_554 S
C19 H37 0.929 . S
C20 C17 1.424 . S
C20 C19 1.384 . S
C20 H38 0.928 . S
C21 C18 1.260 . S
C21 C19 1.479 1_556 S
C22 C17 1.245 . S
C22 C18 1.477 1_554 S
C22 H39 0.932 1_554 S
C23 U6 2.882 . S
C23 C17 1.428 . S
C23 O26 1.301 . S
C23 O27 1.282 . S
O24 U6 2.441 . S
O24 C10 1.249 . S
O25 U6 2.420 . S
O25 C10 1.202 . S
O26 U6 2.455 . S
O26 C23 1.301 . S
O27 U6 2.449 . S
O27 C23 1.282 . S
H28 C1 0.931 . S
H29 C3 0.929 . S
H30 C4 0.930 . S
H31 C5 0.931 . S
H32 C12 0.932 . S
H33 C13 0.930 . S
H34 C14 0.929 . S
H35 C16 0.930 . S
H36 C18 0.932 . S
H37 C19 0.929 . S
H38 C20 0.928 . S
H39 C22 0.932 1_556 S
C40 C41 1.264 . S
C40 C45 1.479 . S
C40 C50 1.465 . S
C41 C40 1.264 . S
C41 C43 1.339 . S
C41 H68 0.931 . S
C42 C43 1.395 . S
C42 C44 1.320 . S
C43 C41 1.339 . S
C43 C42 1.395 . S
C43 H69 0.929 . S
C44 C42 1.320 . S
C44 C45 1.405 . S
C44 H70 0.930 . S
C45 C40 1.479 . S
C45 C44 1.405 . S
C45 H71 0.931 . S
U46 O47 2.454 . S
U46 O48 2.458 . S
U46 C49 2.984 . S
U46 C50 2.847 . S
U46 C63 2.882 . S
U46 O64 2.441 . S
U46 O65 2.420 . S
U46 O66 2.455 . S
U46 O67 2.449 . S
O47 U46 2.454 . S
O47 C49 1.353 . S
O48 U46 2.458 . S
O48 C49 1.286 . S
C49 U46 2.984 . S
C49 O47 1.353 . S
C49 O48 1.286 . S
C49 C51 1.363 . S
C50 C40 1.465 . S
C50 U46 2.847 . S
C50 O64 1.249 . S
C50 O65 1.202 . S
C51 C49 1.363 . S
C51 C53 1.408 . S
C51 C56 1.342 . S
C52 C53 1.310 . S
C52 C55 1.461 . S
C52 H72 0.932 . S
C53 C51 1.408 . S
C53 C52 1.310 . S
C53 H73 0.930 . S
C54 C55 1.474 . S
C54 C56 1.285 . S
C54 H74 0.929 . S
C55 C52 1.461 . S
C55 C54 1.474 . S
C56 C51 1.342 . S
C56 C54 1.285 . S
C56 H75 0.930 . S
C57 C60 1.424 . S
C57 C62 1.245 . S
C57 C63 1.428 . S
C58 C61 1.260 . S
C58 C62 1.477 . S
C58 H76 0.932 1_554 S
C59 C60 1.384 . S
C59 C61 1.479 . S
C59 H77 0.929 . S
C60 C57 1.424 . S
C60 C59 1.384 . S
C60 H78 0.928 . S
C61 C58 1.260 . S
C61 C59 1.479 . S
C62 C57 1.245 . S
C62 C58 1.477 . S
C62 H79 0.932 . S
C63 U46 2.882 . S
C63 C57 1.428 . S
C63 O66 1.301 . S
C63 O67 1.282 . S
O64 U46 2.441 . S
O64 C50 1.249 . S
O65 U46 2.420 . S
O65 C50 1.202 . S
O66 U46 2.455 . S
O66 C63 1.301 . S
O67 U46 2.449 . S
O67 C63 1.282 . S
H68 C41 0.931 . S
H69 C43 0.929 . S
H70 C44 0.930 . S
H71 C45 0.931 . S
H72 C52 0.932 . S
H73 C53 0.930 . S
H74 C54 0.929 . S
H75 C56 0.930 . S
H76 C58 0.932 1_556 S
H77 C59 0.929 . S
H78 C60 0.928 . S
H79 C62 0.932 . S
C80 C81 1.264 . S
C80 C85 1.479 . S
C80 C90 1.465 . S
C81 C80 1.264 . S
C81 C83 1.339 . S
C81 H108 0.931 . S
C82 C83 1.395 . S
C82 C84 1.320 . S
C83 C81 1.339 . S
C83 C82 1.395 . S
C83 H109 0.929 . S
C84 C82 1.320 . S
C84 C85 1.405 . S
C84 H110 0.930 . S
C85 C80 1.479 . S
C85 C84 1.405 . S
C85 H111 0.931 . S
U86 O87 2.454 . S
U86 O88 2.458 . S
U86 C89 2.984 . S
U86 C90 2.847 . S
U86 C103 2.882 . S
U86 O104 2.441 . S
U86 O105 2.420 . S
U86 O106 2.455 . S
U86 O107 2.449 . S
O87 U86 2.454 . S
O87 C89 1.353 . S
O88 U86 2.458 . S
O88 C89 1.286 . S
C89 U86 2.984 . S
C89 O87 1.353 . S
C89 O88 1.286 . S
C89 C91 1.363 . S
C90 C80 1.465 . S
C90 U86 2.847 . S
C90 O104 1.249 . S
C90 O105 1.202 . S
C91 C89 1.363 . S
C91 C93 1.408 . S
C91 C96 1.342 . S
C92 C93 1.310 . S
C92 C95 1.461 . S
C92 H112 0.932 . S
C93 C91 1.408 . S
C93 C92 1.310 . S
C93 H113 0.930 . S
C94 C95 1.474 . S
C94 C96 1.285 . S
C94 H114 0.929 . S
C95 C92 1.461 . S
C95 C94 1.474 . S
C96 C91 1.342 . S
C96 C94 1.285 . S
C96 H115 0.930 . S
C97 C100 1.424 . S
C97 C102 1.245 . S
C97 C103 1.428 . S
C98 C101 1.260 . S
C98 C102 1.477 . S
C98 H116 0.932 1_554 S
C99 C100 1.384 . S
C99 C101 1.479 . S
C99 H117 0.929 . S
C100 C97 1.424 . S
C100 C99 1.384 . S
C100 H118 0.928 . S
C101 C98 1.260 . S
C101 C99 1.479 . S
C102 C97 1.245 . S
C102 C98 1.477 . S
C102 H119 0.932 . S
C103 U86 2.882 . S
C103 C97 1.428 . S
C103 O106 1.301 . S
C103 O107 1.282 . S
O104 U86 2.441 . S
O104 C90 1.249 . S
O105 U86 2.420 . S
O105 C90 1.202 . S
O106 U86 2.455 . S
O106 C103 1.301 . S
O107 U86 2.449 . S
O107 C103 1.282 . S
H108 C81 0.931 . S
H109 C83 0.929 . S
H110 C84 0.930 . S
H111 C85 0.931 . S
H112 C92 0.932 . S
H113 C93 0.930 . S
H114 C94 0.929 . S
H115 C96 0.930 . S
H116 C98 0.932 1_556 S
H117 C99 0.929 . S
H118 C100 0.928 . S
H119 C102 0.932 . S
C120 C121 1.264 . S
C120 C125 1.479 . S
C120 C130 1.465 . S
C121 C120 1.264 . S
C121 C123 1.339 . S
C121 H148 0.931 . S
C122 C123 1.395 . S
C122 C124 1.320 . S
C123 C121 1.339 . S
C123 C122 1.395 . S
C123 H149 0.929 . S
C124 C122 1.320 . S
C124 C125 1.405 . S
C124 H150 0.930 . S
C125 C120 1.479 . S
C125 C124 1.405 . S
C125 H151 0.931 . S
U126 O127 2.454 . S
U126 O128 2.458 . S
U126 C129 2.984 . S
U126 C130 2.847 . S
U126 C143 2.882 . S
U126 O144 2.441 . S
U126 O145 2.420 . S
U126 O146 2.455 . S
U126 O147 2.449 . S
O127 U126 2.454 . S
O127 C129 1.353 . S
O128 U126 2.458 . S
O128 C129 1.286 . S
C129 U126 2.984 . S
C129 O127 1.353 . S
C129 O128 1.286 . S
C129 C131 1.363 . S
C130 C120 1.465 . S
C130 U126 2.847 . S
C130 O144 1.249 . S
C130 O145 1.202 . S
C131 C129 1.363 . S
C131 C133 1.408 . S
C131 C136 1.342 . S
C132 C133 1.310 . S
C132 C135 1.461 . S
C132 H152 0.932 . S
C133 C131 1.408 . S
C133 C132 1.310 . S
C133 H153 0.930 . S
C134 C135 1.474 . S
C134 C136 1.285 . S
C134 H154 0.929 . S
C135 C132 1.461 . S
C135 C134 1.474 . S
C136 C131 1.342 . S
C136 C134 1.285 . S
C136 H155 0.930 . S
C137 C140 1.424 . S
C137 C142 1.245 . S
C137 C143 1.428 . S
C138 C141 1.260 . S
C138 C142 1.477 1_556 S
C138 H156 0.932 . S
C139 C140 1.384 . S
C139 C141 1.479 1_554 S
C139 H157 0.929 . S
C140 C137 1.424 . S
C140 C139 1.384 . S
C140 H158 0.928 . S
C141 C138 1.260 . S
C141 C139 1.479 1_556 S
C142 C137 1.245 . S
C142 C138 1.477 1_554 S
C142 H159 0.932 . S
C143 U126 2.882 . S
C143 C137 1.428 . S
C143 O146 1.301 . S
C143 O147 1.282 . S
O144 U126 2.441 . S
O144 C130 1.249 . S
O145 U126 2.420 . S
O145 C130 1.202 . S
O146 U126 2.455 . S
O146 C143 1.301 . S
O147 U126 2.449 . S
O147 C143 1.282 . S
H148 C121 0.931 . S
H149 C123 0.929 . S
H150 C124 0.930 . S
H151 C125 0.931 . S
H152 C132 0.932 . S
H153 C133 0.930 . S
H154 C134 0.929 . S
H155 C136 0.930 . S
H156 C138 0.932 . S
H157 C139 0.929 . S
H158 C140 0.928 . S
H159 C142 0.932 . S
C160 C161 1.264 . S
C160 C165 1.479 . S
C160 C170 1.465 . S
C161 C160 1.264 . S
C161 C163 1.339 . S
C161 H188 0.931 . S
C162 C163 1.395 . S
C162 C164 1.320 . S
C163 C161 1.339 . S
C163 C162 1.395 . S
C163 H189 0.929 . S
C164 C162 1.320 . S
C164 C165 1.405 . S
C164 H190 0.930 . S
C165 C160 1.479 . S
C165 C164 1.405 . S
C165 H191 0.931 . S
U166 O167 2.454 . S
U166 O168 2.458 . S
U166 C169 2.984 . S
U166 C170 2.847 1_554 S
U166 C183 2.882 . S
U166 O184 2.441 1_554 S
U166 O185 2.420 . S
U166 O186 2.455 . S
U166 O187 2.449 . S
O167 U166 2.454 . S
O167 C169 1.353 . S
O168 U166 2.458 . S
O168 C169 1.286 . S
C169 U166 2.984 . S
C169 O167 1.353 . S
C169 O168 1.286 . S
C169 C171 1.363 . S
C170 C160 1.465 . S
C170 U166 2.847 1_556 S
C170 O184 1.249 . S
C170 O185 1.202 1_556 S
C171 C169 1.363 . S
C171 C173 1.408 . S
C171 C176 1.342 . S
C172 C173 1.310 . S
C172 C175 1.461 . S
C172 H192 0.932 . S
C173 C171 1.408 . S
C173 C172 1.310 . S
C173 H193 0.930 . S
C174 C175 1.474 . S
C174 C176 1.285 . S
C174 H194 0.929 . S
C175 C172 1.461 . S
C175 C174 1.474 . S
C176 C171 1.342 . S
C176 C174 1.285 . S
C176 H195 0.930 . S
C177 C180 1.424 . S
C177 C182 1.245 . S
C177 C183 1.428 . S
C178 C181 1.260 . S
C178 C182 1.477 . S
C178 H196 0.932 . S
C179 C180 1.384 . S
C179 C181 1.479 . S
C179 H197 0.929 . S
C180 C177 1.424 . S
C180 C179 1.384 . S
C180 H198 0.928 . S
C181 C178 1.260 . S
C181 C179 1.479 . S
C182 C177 1.245 . S
C182 C178 1.477 . S
C182 H199 0.932 . S
C183 U166 2.882 . S
C183 C177 1.428 . S
C183 O186 1.301 . S
C183 O187 1.282 . S
O184 U166 2.441 1_556 S
O184 C170 1.249 . S
O185 U166 2.420 . S
O185 C170 1.202 1_554 S
O186 U166 2.455 . S
O186 C183 1.301 . S
O187 U166 2.449 . S
O187 C183 1.282 . S
H188 C161 0.931 . S
H189 C163 0.929 . S
H190 C164 0.930 . S
H191 C165 0.931 . S
H192 C172 0.932 . S
H193 C173 0.930 . S
H194 C174 0.929 . S
H195 C176 0.930 . S
H196 C178 0.932 . S
H197 C179 0.929 . S
H198 C180 0.928 . S
H199 C182 0.932 . S
C200 C201 1.264 . S
C200 C205 1.479 . S
C200 C210 1.465 . S
C201 C200 1.264 . S
C201 C203 1.339 . S
C201 H228 0.931 . S
C202 C203 1.395 . S
C202 C204 1.320 . S
C203 C201 1.339 . S
C203 C202 1.395 . S
C203 H229 0.929 . S
C204 C202 1.320 . S
C204 C205 1.405 . S
C204 H230 0.930 . S
C205 C200 1.479 . S
C205 C204 1.405 . S
C205 H231 0.931 . S
U206 O207 2.454 . S
U206 O208 2.458 . S
U206 C209 2.984 . S
U206 C210 2.847 1_554 S
U206 C223 2.882 . S
U206 O224 2.441 1_554 S
U206 O225 2.420 1_554 S
U206 O226 2.455 . S
U206 O227 2.449 . S
O207 U206 2.454 . S
O207 C209 1.353 . S
O208 U206 2.458 . S
O208 C209 1.286 . S
C209 U206 2.984 . S
C209 O207 1.353 . S
C209 O208 1.286 . S
C209 C211 1.363 . S
C210 C200 1.465 . S
C210 U206 2.847 1_556 S
C210 O224 1.249 . S
C210 O225 1.202 . S
C211 C209 1.363 . S
C211 C213 1.408 . S
C211 C216 1.342 . S
C212 C213 1.310 . S
C212 C215 1.461 . S
C212 H232 0.932 . S
C213 C211 1.408 . S
C213 C212 1.310 . S
C213 H233 0.930 1_554 S
C214 C215 1.474 . S
C214 C216 1.285 . S
C214 H234 0.929 . S
C215 C212 1.461 . S
C215 C214 1.474 . S
C216 C211 1.342 . S
C216 C214 1.285 . S
C216 H235 0.930 . S
C217 C220 1.424 . S
C217 C222 1.245 . S
C217 C223 1.428 . S
C218 C221 1.260 . S
C218 C222 1.477 . S
C218 H236 0.932 . S
C219 C220 1.384 . S
C219 C221 1.479 . S
C219 H237 0.929 . S
C220 C217 1.424 . S
C220 C219 1.384 . S
C220 H238 0.928 . S
C221 C218 1.260 . S
C221 C219 1.479 . S
C222 C217 1.245 . S
C222 C218 1.477 . S
C222 H239 0.932 . S
C223 U206 2.882 . S
C223 C217 1.428 . S
C223 O226 1.301 . S
C223 O227 1.282 . S
O224 U206 2.441 1_556 S
O224 C210 1.249 . S
O225 U206 2.420 1_556 S
O225 C210 1.202 . S
O226 U206 2.455 . S
O226 C223 1.301 . S
O227 U206 2.449 . S
O227 C223 1.282 . S
H228 C201 0.931 . S
H229 C203 0.929 . S
H230 C204 0.930 . S
H231 C205 0.931 . S
H232 C212 0.932 . S
H233 C213 0.930 1_556 S
H234 C214 0.929 . S
H235 C216 0.930 . S
H236 C218 0.932 . S
H237 C219 0.929 . S
H238 C220 0.928 . S
H239 C222 0.932 . S
C240 C241 1.264 . S
C240 C245 1.479 . S
C240 C250 1.465 . S
C241 C240 1.264 . S
C241 C243 1.339 . S
C241 H268 0.931 . S
C242 C243 1.395 . S
C242 C244 1.320 . S
C243 C241 1.339 . S
C243 C242 1.395 . S
C243 H269 0.929 . S
C244 C242 1.320 . S
C244 C245 1.405 . S
C244 H270 0.930 . S
C245 C240 1.479 . S
C245 C244 1.405 . S
C245 H271 0.931 . S
U246 O247 2.454 1_554 S
U246 O248 2.458 . S
U246 C249 2.984 . S
U246 C250 2.847 1_554 S
U246 C263 2.882 . S
U246 O264 2.441 1_554 S
U246 O265 2.420 1_554 S
U246 O266 2.455 . S
U246 O267 2.449 . S
O247 U246 2.454 1_556 S
O247 C249 1.353 1_556 S
O248 U246 2.458 . S
O248 C249 1.286 . S
C249 U246 2.984 . S
C249 O247 1.353 1_554 S
C249 O248 1.286 . S
C249 C251 1.363 . S
C250 C240 1.465 . S
C250 U246 2.847 1_556 S
C250 O264 1.249 . S
C250 O265 1.202 . S
C251 C249 1.363 . S
C251 C253 1.408 . S
C251 C256 1.342 . S
C252 C253 1.310 . S
C252 C255 1.461 . S
C252 H272 0.932 1_554 S
C253 C251 1.408 . S
C253 C252 1.310 . S
C253 H273 0.930 1_554 S
C254 C255 1.474 . S
C254 C256 1.285 . S
C254 H274 0.929 . S
C255 C252 1.461 . S
C255 C254 1.474 . S
C256 C251 1.342 . S
C256 C254 1.285 . S
C256 H275 0.930 . S
C257 C260 1.424 . S
C257 C262 1.245 . S
C257 C263 1.428 . S
C258 C261 1.260 . S
C258 C262 1.477 . S
C258 H276 0.932 . S
C259 C260 1.384 . S
C259 C261 1.479 . S
C259 H277 0.929 . S
C260 C257 1.424 . S
C260 C259 1.384 . S
C260 H278 0.928 . S
C261 C258 1.260 . S
C261 C259 1.479 . S
C262 C257 1.245 . S
C262 C258 1.477 . S
C262 H279 0.932 . S
C263 U246 2.882 . S
C263 C257 1.428 . S
C263 O266 1.301 . S
C263 O267 1.282 . S
O264 U246 2.441 1_556 S
O264 C250 1.249 . S
O265 U246 2.420 1_556 S
O265 C250 1.202 . S
O266 U246 2.455 . S
O266 C263 1.301 . S
O267 U246 2.449 . S
O267 C263 1.282 . S
H268 C241 0.931 . S
H269 C243 0.929 . S
H270 C244 0.930 . S
H271 C245 0.931 . S
H272 C252 0.932 1_556 S
H273 C253 0.930 1_556 S
H274 C254 0.929 . S
H275 C256 0.930 . S
H276 C258 0.932 . S
H277 C259 0.929 . S
H278 C260 0.928 . S
H279 C262 0.932 . S
C280 C281 1.264 . S
C280 C285 1.479 . S
C280 C290 1.465 . S
C281 C280 1.264 . S
C281 C283 1.339 . S
C281 H308 0.931 . S
C282 C283 1.395 . S
C282 C284 1.320 . S
C283 C281 1.339 . S
C283 C282 1.395 . S
C283 H309 0.929 . S
C284 C282 1.320 . S
C284 C285 1.405 . S
C284 H310 0.930 . S
C285 C280 1.479 . S
C285 C284 1.405 . S
C285 H311 0.931 . S
U286 O287 2.454 . S
U286 O288 2.458 . S
U286 C289 2.984 . S
U286 C290 2.847 1_554 S
U286 C303 2.882 . S
U286 O304 2.441 1_554 S
U286 O305 2.420 1_554 S
U286 O306 2.455 . S
U286 O307 2.449 . S
O287 U286 2.454 . S
O287 C289 1.353 . S
O288 U286 2.458 . S
O288 C289 1.286 . S
C289 U286 2.984 . S
C289 O287 1.353 . S
C289 O288 1.286 . S
C289 C291 1.363 . S
C290 C280 1.465 . S
C290 U286 2.847 1_556 S
C290 O304 1.249 . S
C290 O305 1.202 . S
C291 C289 1.363 . S
C291 C293 1.408 . S
C291 C296 1.342 . S
C292 C293 1.310 . S
C292 C295 1.461 . S
C292 H312 0.932 . S
C293 C291 1.408 . S
C293 C292 1.310 . S
C293 H313 0.930 . S
C294 C295 1.474 . S
C294 C296 1.285 . S
C294 H314 0.929 . S
C295 C292 1.461 . S
C295 C294 1.474 . S
C296 C291 1.342 . S
C296 C294 1.285 . S
C296 H315 0.930 . S
C297 C300 1.424 . S
C297 C302 1.245 . S
C297 C303 1.428 . S
C298 C301 1.260 . S
C298 C302 1.477 . S
C298 H316 0.932 . S
C299 C300 1.384 . S
C299 C301 1.479 . S
C299 H317 0.929 . S
C300 C297 1.424 . S
C300 C299 1.384 . S
C300 H318 0.928 . S
C301 C298 1.260 . S
C301 C299 1.479 . S
C302 C297 1.245 . S
C302 C298 1.477 . S
C302 H319 0.932 . S
C303 U286 2.882 . S
C303 C297 1.428 . S
C303 O306 1.301 . S
C303 O307 1.282 . S
O304 U286 2.441 1_556 S
O304 C290 1.249 . S
O305 U286 2.420 1_556 S
O305 C290 1.202 . S
O306 U286 2.455 . S
O306 C303 1.301 . S
O307 U286 2.449 . S
O307 C303 1.282 . S
H308 C281 0.931 . S
H309 C283 0.929 . S
H310 C284 0.930 . S
H311 C285 0.931 . S
H312 C292 0.932 . S
H313 C293 0.930 . S
H314 C294 0.929 . S
H315 C296 0.930 . S
H316 C298 0.932 . S
H317 C299 0.929 . S
H318 C300 0.928 . S
H319 C302 0.932 . S
Eu320 C329 2.828 . S
Eu320 O331 2.392 . S
Eu320 O333 2.418 1_545 S
Eu320 O338 2.373 1_655 S
Eu320 O341 2.488 . S
Eu320 O342 2.471 . S
Eu320 O343 2.349 1_655 S
Eu321 O330 2.373 1_455 S
Eu321 O334 2.488 . S
Eu321 O335 2.471 . S
Eu321 O336 2.349 . S
Eu321 O339 2.392 1_565 S
Eu321 O340 2.418 1_565 S
Eu321 C350 2.828 . S
C322 O340 1.244 . S
C322 O343 1.265 . S
C323 C324 1.379 1_655 S
C323 C327 1.373 . S
C323 C329 1.505 . S
C324 C323 1.379 1_455 S
C324 C326 1.369 . S
C324 H352 0.930 . S
C325 C327 1.383 . S
C325 C328 1.382 1_655 S
C325 H353 0.930 . S
C326 C324 1.369 . S
C326 C328 1.392 . S
C326 H354 0.930 . S
C327 C323 1.373 . S
C327 C325 1.383 . S
C327 H355 0.931 . S
C328 C325 1.382 1_455 S
C328 C326 1.392 . S
C329 Eu320 2.828 . S
C329 C323 1.505 . S
C329 O341 1.249 . S
C329 O342 1.244 . S
O330 Eu321 2.373 1_655 S
O330 C332 1.258 . S
O331 Eu320 2.392 . S
O331 C332 1.242 1_545 S
C332 O330 1.258 . S
C332 O331 1.242 1_565 S
O333 Eu320 2.418 1_565 S
O333 C337 1.244 . S
O334 Eu321 2.488 . S
O334 C350 1.249 . S
O335 Eu321 2.471 . S
O335 C350 1.244 . S
O336 Eu321 2.349 . S
O336 C337 1.265 1_455 S
C337 O333 1.244 . S
C337 O336 1.265 1_655 S
O338 Eu320 2.373 1_455 S
O338 C351 1.258 . S
O339 Eu321 2.392 1_545 S
O339 C351 1.242 . S
O340 Eu321 2.418 1_545 S
O340 C322 1.244 . S
O341 Eu320 2.488 . S
O341 C329 1.249 . S
O342 Eu320 2.471 . S
O342 C329 1.244 . S
O343 Eu320 2.349 1_455 S
O343 C322 1.265 . S
C344 C345 1.379 . S
C344 C348 1.373 . S
C344 C350 1.505 . S
C345 C344 1.379 . S
C345 C347 1.369 . S
C345 H356 0.930 1_455 S
C346 C348 1.383 . S
C346 C349 1.382 . S
C346 H357 0.930 . S
C347 C345 1.369 . S
C347 C349 1.392 . S
C347 H358 0.930 1_455 S
C348 C344 1.373 . S
C348 C346 1.383 . S
C348 H359 0.931 . S
C349 C346 1.382 . S
C349 C347 1.392 . S
C350 Eu321 2.828 . S
C350 O334 1.249 . S
C350 O335 1.244 . S
C350 C344 1.505 . S
C351 O338 1.258 . S
C351 O339 1.242 . S
H352 C324 0.930 . S
H353 C325 0.930 . S
H354 C326 0.930 . S
H355 C327 0.931 . S
H356 C345 0.930 1_655 S
H357 C346 0.930 . S
H358 C347 0.930 1_655 S
H359 C348 0.931 . S
Eu360 C369 2.828 . S
Eu360 O371 2.392 . S
Eu360 O373 2.418 . S
Eu360 O378 2.373 . S
Eu360 O381 2.488 . S
Eu360 O382 2.471 . S
Eu360 O383 2.349 1_545 S
Eu361 O370 2.373 1_565 S
Eu361 O374 2.488 . S
Eu361 O375 2.471 1_565 S
Eu361 O376 2.349 1_565 S
Eu361 O379 2.392 . S
Eu361 O380 2.418 . S
Eu361 C390 2.828 . S
C362 O380 1.244 . S
C362 O383 1.265 . S
C363 C364 1.379 1_545 S
C363 C367 1.373 . S
C363 C369 1.505 . S
C364 C363 1.379 1_565 S
C364 C366 1.369 . S
C364 H392 0.930 . S
C365 C367 1.383 . S
C365 C368 1.382 . S
C365 H393 0.930 . S
C366 C364 1.369 . S
C366 C368 1.392 1_565 S
C366 H394 0.930 . S
C367 C363 1.373 . S
C367 C365 1.383 . S
C367 H395 0.931 . S
C368 C365 1.382 . S
C368 C366 1.392 1_545 S
C369 Eu360 2.828 . S
C369 C363 1.505 . S
C369 O381 1.249 . S
C369 O382 1.244 . S
O370 Eu361 2.373 1_545 S
O370 C372 1.258 . S
O371 Eu360 2.392 . S
O371 C372 1.242 . S
C372 O370 1.258 . S
C372 O371 1.242 . S
O373 Eu360 2.418 . S
O373 C377 1.244 . S
O374 Eu361 2.488 . S
O374 C390 1.249 . S
O375 Eu361 2.471 1_545 S
O375 C390 1.244 1_545 S
O376 Eu361 2.349 1_545 S
O376 C377 1.265 . S
C377 O373 1.244 . S
C377 O376 1.265 . S
O378 Eu360 2.373 . S
O378 C391 1.258 1_545 S
O379 Eu361 2.392 . S
O379 C391 1.242 . S
O380 Eu361 2.418 . S
O380 C362 1.244 . S
O381 Eu360 2.488 . S
O381 C369 1.249 . S
O382 Eu360 2.471 . S
O382 C369 1.244 . S
O383 Eu360 2.349 1_565 S
O383 C362 1.265 . S
C384 C385 1.379 1_565 S
C384 C388 1.373 . S
C384 C390 1.505 . S
C385 C384 1.379 1_545 S
C385 C387 1.369 . S
C385 H396 0.930 . S
C386 C388 1.383 . S
C386 C389 1.382 1_565 S
C386 H397 0.930 . S
C387 C385 1.369 . S
C387 C389 1.392 . S
C387 H398 0.930 . S
C388 C384 1.373 . S
C388 C386 1.383 . S
C388 H399 0.931 . S
C389 C386 1.382 1_545 S
C389 C387 1.392 . S
C390 Eu361 2.828 . S
C390 O374 1.249 . S
C390 O375 1.244 1_565 S
C390 C384 1.505 . S
C391 O378 1.258 1_565 S
C391 O379 1.242 . S
H392 C364 0.930 . S
H393 C365 0.930 . S
H394 C366 0.930 . S
H395 C367 0.931 . S
H396 C385 0.930 . S
H397 C386 0.930 . S
H398 C387 0.930 . S
H399 C388 0.931 . S
Eu400 C409 2.828 . S
Eu400 O411 2.392 . S
Eu400 O413 2.418 . S
Eu400 O418 2.373 . S
Eu400 O421 2.488 . S
Eu400 O422 2.471 . S
Eu400 O423 2.349 . S
Eu401 O410 2.373 . S
Eu401 O414 2.488 . S
Eu401 O415 2.471 . S
Eu401 O416 2.349 . S
Eu401 O419 2.392 . S
Eu401 O420 2.418 . S
Eu401 C430 2.828 . S
C402 O420 1.244 . S
C402 O423 1.265 . S
C403 C404 1.379 . S
C403 C407 1.373 . S
C403 C409 1.505 . S
C404 C403 1.379 . S
C404 C406 1.369 . S
C404 H432 0.930 . S
C405 C407 1.383 . S
C405 C408 1.382 . S
C405 H433 0.930 . S
C406 C404 1.369 . S
C406 C408 1.392 . S
C406 H434 0.930 . S
C407 C403 1.373 . S
C407 C405 1.383 . S
C407 H435 0.931 . S
C408 C405 1.382 . S
C408 C406 1.392 . S
C409 Eu400 2.828 . S
C409 C403 1.505 . S
C409 O421 1.249 . S
C409 O422 1.244 . S
O410 Eu401 2.373 . S
O410 C412 1.258 . S
O411 Eu400 2.392 . S
O411 C412 1.242 . S
C412 O410 1.258 . S
C412 O411 1.242 . S
O413 Eu400 2.418 . S
O413 C417 1.244 . S
O414 Eu401 2.488 . S
O414 C430 1.249 . S
O415 Eu401 2.471 . S
O415 C430 1.244 . S
O416 Eu401 2.349 . S
O416 C417 1.265 . S
C417 O413 1.244 . S
C417 O416 1.265 . S
O418 Eu400 2.373 . S
O418 C431 1.258 . S
O419 Eu401 2.392 . S
O419 C431 1.242 . S
O420 Eu401 2.418 . S
O420 C402 1.244 . S
O421 Eu400 2.488 . S
O421 C409 1.249 . S
O422 Eu400 2.471 . S
O422 C409 1.244 . S
O423 Eu400 2.349 . S
O423 C402 1.265 . S
C424 C425 1.379 . S
C424 C428 1.373 . S
C424 C430 1.505 . S
C425 C424 1.379 . S
C425 C427 1.369 . S
C425 H436 0.930 . S
C426 C428 1.383 . S
C426 C429 1.382 . S
C426 H437 0.930 . S
C427 C425 1.369 . S
C427 C429 1.392 . S
C427 H438 0.930 . S
C428 C424 1.373 . S
C428 C426 1.383 . S
C428 H439 0.931 . S
C429 C426 1.382 . S
C429 C427 1.392 . S
C430 Eu401 2.828 . S
C430 O414 1.249 . S
C430 O415 1.244 . S
C430 C424 1.505 . S
C431 O418 1.258 . S
C431 O419 1.242 . S
H432 C404 0.930 . S
H433 C405 0.930 . S
H434 C406 0.930 . S
H435 C407 0.931 . S
H436 C425 0.930 . S
H437 C426 0.930 . S
H438 C427 0.930 . S
H439 C428 0.931 . S
Eu440 C449 2.828 . S
Eu440 O451 2.392 . S
Eu440 O453 2.418 1_455 S
Eu440 O458 2.373 . S
Eu440 O461 2.488 . S
Eu440 O462 2.471 . S
Eu440 O463 2.349 . S
Eu441 O450 2.373 . S
Eu441 O454 2.488 . S
Eu441 O455 2.471 . S
Eu441 O456 2.349 . S
Eu441 O459 2.392 1_655 S
Eu441 O460 2.418 1_655 S
Eu441 C470 2.828 . S
C442 O460 1.244 . S
C442 O463 1.265 . S
C443 C444 1.379 . S
C443 C447 1.373 . S
C443 C449 1.505 . S
C444 C443 1.379 . S
C444 C446 1.369 . S
C444 H472 0.930 . S
C445 C447 1.383 . S
C445 C448 1.382 . S
C445 H473 0.930 . S
C446 C444 1.369 . S
C446 C448 1.392 . S
C446 H474 0.930 . S
C447 C443 1.373 . S
C447 C445 1.383 . S
C447 H475 0.931 . S
C448 C445 1.382 . S
C448 C446 1.392 . S
C449 Eu440 2.828 . S
C449 C443 1.505 . S
C449 O461 1.249 . S
C449 O462 1.244 . S
O450 Eu441 2.373 . S
O450 C452 1.245 1_655 S
O451 Eu440 2.392 . S
O451 C452 1.267 . S
C452 O450 1.245 1_455 S
C452 O451 1.267 . S
O453 Eu440 2.418 1_655 S
O453 C457 1.244 . S
O454 Eu441 2.488 . S
O454 C470 1.249 . S
O455 Eu441 2.471 . S
O455 C470 1.244 . S
O456 Eu441 2.349 . S
O456 C457 1.265 . S
C457 O453 1.244 . S
C457 O456 1.265 . S
O458 Eu440 2.373 . S
O458 C471 1.258 . S
O459 Eu441 2.392 1_455 S
O459 C471 1.242 . S
O460 Eu441 2.418 1_455 S
O460 C442 1.244 . S
O461 Eu440 2.488 . S
O461 C449 1.249 . S
O462 Eu440 2.471 . S
O462 C449 1.244 . S
O463 Eu440 2.349 . S
O463 C442 1.265 . S
C464 C465 1.379 . S
C464 C468 1.373 . S
C464 C470 1.505 . S
C465 C464 1.379 . S
C465 C467 1.369 . S
C465 H476 0.930 . S
C466 C468 1.383 . S
C466 C469 1.382 . S
C466 H477 0.930 . S
C467 C465 1.369 . S
C467 C469 1.392 . S
C467 H478 0.930 . S
C468 C464 1.373 . S
C468 C466 1.383 . S
C468 H479 0.931 . S
C469 C466 1.382 . S
C469 C467 1.392 . S
C470 Eu441 2.828 . S
C470 O454 1.249 . S
C470 O455 1.244 . S
C470 C464 1.505 . S
C471 O458 1.258 . S
C471 O459 1.242 . S
H472 C444 0.930 . S
H473 C445 0.930 . S
H474 C446 0.930 . S
H475 C447 0.931 . S
H476 C465 0.930 . S
H477 C466 0.930 . S
H478 C467 0.930 . S
H479 C468 0.931 . S
H480 C488 0.950 . S
H481 C493 0.950 . S
H482 C490 0.950 . S
H483 C492 0.950 . S
H484 C494 0.950 . S
H485 C496 0.950 . S
H486 C498 0.950 . S
H487 C499 0.950 1_565 S
C488 H480 0.950 . S
C488 C489 1.386 . S
C488 C490 1.391 . S
C489 C488 1.386 . S
C489 C493 1.393 . S
C490 H482 0.950 . S
C490 C488 1.391 . S
C490 C491 1.400 . S
C491 C490 1.400 . S
C491 C492 1.398 . S
C491 C497 1.491 . S
C492 H483 0.950 . S
C492 C491 1.398 . S
C492 C493 1.391 . S
C493 H481 0.950 . S
C493 C489 1.393 . S
C493 C492 1.391 . S
C494 H484 0.950 . S
C494 C495 1.386 . S
C494 C496 1.391 . S
C495 C494 1.386 . S
C495 C499 1.393 . S
C496 H485 0.950 . S
C496 C494 1.391 . S
C496 C497 1.400 . S
C497 C491 1.491 . S
C497 C496 1.400 . S
C497 C498 1.398 . S
C498 H486 0.950 . S
C498 C497 1.398 . S
C498 C499 1.391 . S
C499 H487 0.950 1_545 S
C499 C495 1.393 . S
C499 C498 1.391 . S
H500 C508 0.950 . S
H501 C513 0.950 . S
H502 C510 0.950 . S
H503 C512 0.950 . S
H504 C514 0.950 . S
H505 C516 0.950 . S
H506 C518 0.950 . S
H507 C519 0.950 . S
C508 H500 0.950 . S
C508 C509 1.386 . S
C508 C510 1.391 . S
C509 C508 1.386 . S
C509 C513 1.393 . S
C510 H502 0.950 . S
C510 C508 1.391 . S
C510 C511 1.400 . S
C511 C510 1.400 . S
C511 C512 1.398 . S
C511 C517 1.491 . S
C512 H503 0.950 . S
C512 C511 1.398 . S
C512 C513 1.391 . S
C513 H501 0.950 . S
C513 C509 1.393 . S
C513 C512 1.391 . S
C514 H504 0.950 . S
C514 C515 1.386 . S
C514 C516 1.391 . S
C515 C514 1.386 . S
C515 C519 1.393 . S
C516 H505 0.950 . S
C516 C514 1.391 . S
C516 C517 1.400 . S
C517 C511 1.491 . S
C517 C516 1.400 . S
C517 C518 1.398 . S
C518 H506 0.950 . S
C518 C517 1.398 . S
C518 C519 1.391 . S
C519 H507 0.950 . S
C519 C515 1.393 . S
C519 C518 1.391 . S
H520 C528 0.950 . S
H521 C533 0.950 . S
H522 C530 0.950 . S
H523 C532 0.950 . S
H524 C534 0.950 . S
H525 C536 0.950 . S
H526 C538 0.950 . S
H527 C539 0.950 . S
C528 H520 0.950 . S
C528 C529 1.386 . S
C528 C530 1.391 . S
C529 C528 1.386 . S
C529 C533 1.393 . S
C530 H522 0.950 . S
C530 C528 1.391 . S
C530 C531 1.400 . S
C531 C530 1.400 . S
C531 C532 1.398 . S
C531 C537 1.491 . S
C532 H523 0.950 . S
C532 C531 1.398 . S
C532 C533 1.391 . S
C533 H521 0.950 . S
C533 C529 1.393 . S
C533 C532 1.391 . S
C534 H524 0.950 . S
C534 C535 1.386 . S
C534 C536 1.391 . S
C535 C534 1.386 . S
C535 C539 1.393 . S
C536 H525 0.950 . S
C536 C534 1.391 . S
C536 C537 1.400 . S
C537 C531 1.491 . S
C537 C536 1.400 . S
C537 C538 1.398 . S
C538 H526 0.950 . S
C538 C537 1.398 . S
C538 C539 1.391 . S
C539 H527 0.950 . S
C539 C535 1.393 . S
C539 C538 1.391 . S
H540 C548 0.950 . S
H541 C553 0.950 . S
H542 C550 0.950 . S
H543 C552 0.950 . S
H544 C554 0.950 1_655 S
H545 C556 0.950 . S
H546 C558 0.950 . S
H547 C559 0.950 . S
C548 H540 0.950 . S
C548 C549 1.386 . S
C548 C550 1.391 . S
C549 C548 1.386 . S
C549 C553 1.393 . S
C550 H542 0.950 . S
C550 C548 1.391 . S
C550 C551 1.400 . S
C551 C550 1.400 . S
C551 C552 1.398 . S
C551 C557 1.491 . S
C552 H543 0.950 . S
C552 C551 1.398 . S
C552 C553 1.391 . S
C553 H541 0.950 . S
C553 C549 1.393 . S
C553 C552 1.391 . S
C554 H544 0.950 1_455 S
C554 C555 1.386 . S
C554 C556 1.391 . S
C555 C554 1.386 . S
C555 C559 1.393 . S
C556 H545 0.950 . S
C556 C554 1.391 . S
C556 C557 1.400 . S
C557 C551 1.491 . S
C557 C556 1.400 . S
C557 C558 1.398 . S
C558 H546 0.950 . S
C558 C557 1.398 . S
C558 C559 1.391 . S
C559 H547 0.950 . S
C559 C555 1.393 . S
C559 C558 1.391 . S
H560 C568 0.950 . S
H561 C573 0.950 . S
H562 C570 0.950 . S
H563 C572 0.950 . S
H564 C574 0.950 1_545 S
H565 C576 0.950 1_545 S
H566 C578 0.950 . S
H567 C579 0.950 . S
C568 H560 0.950 . S
C568 C569 1.386 . S
C568 C570 1.391 1_554 S
C569 C568 1.386 . S
C569 C573 1.393 . S
C570 H562 0.950 . S
C570 C568 1.391 1_556 S
C570 C571 1.400 . S
C571 C570 1.400 . S
C571 C572 1.398 1_556 S
C571 C577 1.491 . S
C572 H563 0.950 . S
C572 C571 1.398 1_554 S
C572 C573 1.391 . S
C573 H561 0.950 . S
C573 C569 1.393 . S
C573 C572 1.391 . S
C574 H564 0.950 1_565 S
C574 C575 1.386 . S
C574 C576 1.391 . S
C575 C574 1.386 . S
C575 C579 1.393 . S
C576 H565 0.950 1_565 S
C576 C574 1.391 . S
C576 C577 1.400 . S
C577 C571 1.491 . S
C577 C576 1.400 . S
C577 C578 1.398 . S
C578 H566 0.950 . S
C578 C577 1.398 . S
C578 C579 1.391 . S
C579 H567 0.950 . S
C579 C575 1.393 . S
C579 C578 1.391 . S
H580 C588 0.950 . S
H581 C593 0.950 . S
H582 C590 0.950 . S
H583 C592 0.950 . S
H584 C594 0.950 . S
H585 C596 0.950 . S
H586 C598 0.950 . S
H587 C599 0.950 . S
C588 H580 0.950 . S
C588 C589 1.386 . S
C588 C590 1.391 1_554 S
C589 C588 1.386 . S
C589 C593 1.393 . S
C590 H582 0.950 . S
C590 C588 1.391 1_556 S
C590 C591 1.400 . S
C591 C590 1.400 . S
C591 C592 1.398 . S
C591 C597 1.491 . S
C592 H583 0.950 . S
C592 C591 1.398 . S
C592 C593 1.391 1_556 S
C593 H581 0.950 . S
C593 C589 1.393 . S
C593 C592 1.391 1_554 S
C594 H584 0.950 . S
C594 C595 1.386 . S
C594 C596 1.391 . S
C595 C594 1.386 . S
C595 C599 1.393 . S
C596 H585 0.950 . S
C596 C594 1.391 . S
C596 C597 1.400 . S
C597 C591 1.491 . S
C597 C596 1.400 . S
C597 C598 1.398 . S
C598 H586 0.950 . S
C598 C597 1.398 . S
C598 C599 1.391 . S
C599 H587 0.950 . S
C599 C595 1.393 . S
C599 C598 1.391 . S
H600 C608 0.950 . S
H601 C613 0.950 1_554 S
H602 C610 0.950 . S
H603 C612 0.950 . S
H604 C614 0.950 . S
H605 C616 0.950 . S
H606 C618 0.950 . S
H607 C619 0.950 . S
C608 H600 0.950 . S
C608 C609 1.386 . S
C608 C610 1.391 1_554 S
C609 C608 1.386 . S
C609 C613 1.393 1_554 S
C610 H602 0.950 . S
C610 C608 1.391 1_556 S
C610 C611 1.400 . S
C611 C610 1.400 . S
C611 C612 1.398 . S
C611 C617 1.491 . S
C612 H603 0.950 . S
C612 C611 1.398 . S
C612 C613 1.391 . S
C613 H601 0.950 1_556 S
C613 C609 1.393 1_556 S
C613 C612 1.391 . S
C614 H604 0.950 . S
C614 C615 1.386 . S
C614 C616 1.391 . S
C615 C614 1.386 . S
C615 C619 1.393 . S
C616 H605 0.950 . S
C616 C614 1.391 . S
C616 C617 1.400 . S
C617 C611 1.491 . S
C617 C616 1.400 . S
C617 C618 1.398 . S
C618 H606 0.950 . S
C618 C617 1.398 . S
C618 C619 1.391 . S
C619 H607 0.950 . S
C619 C615 1.393 . S
C619 C618 1.391 . S
H620 C628 0.950 . S
H621 C633 0.950 . S
H622 C630 0.950 1_455 S
H623 C632 0.950 . S
H624 C634 0.950 . S
H625 C636 0.950 . S
H626 C638 0.950 . S
H627 C639 0.950 . S
C628 H620 0.950 . S
C628 C629 1.386 . S
C628 C630 1.391 . S
C629 C628 1.386 . S
C629 C633 1.393 . S
C630 H622 0.950 1_655 S
C630 C628 1.391 . S
C630 C631 1.400 1_554 S
C631 C630 1.400 1_556 S
C631 C632 1.398 . S
C631 C637 1.491 . S
C632 H623 0.950 . S
C632 C631 1.398 . S
C632 C633 1.391 1_556 S
C633 H621 0.950 . S
C633 C629 1.393 . S
C633 C632 1.391 1_554 S
C634 H624 0.950 . S
C634 C635 1.386 . S
C634 C636 1.391 . S
C635 C634 1.386 . S
C635 C639 1.393 1_655 S
C636 H625 0.950 . S
C636 C634 1.391 . S
C636 C637 1.400 . S
C637 C631 1.491 . S
C637 C636 1.400 . S
C637 C638 1.398 1_655 S
C638 H626 0.950 . S
C638 C637 1.398 1_455 S
C638 C639 1.391 . S
C639 H627 0.950 . S
C639 C635 1.393 1_455 S
C639 C638 1.391 . S
H640 C648 0.950 . S
H641 C653 0.950 . S
H642 C650 0.950 . S
H643 C652 0.950 . S
H644 C654 0.950 . S
H645 C656 0.950 . S
H646 C658 0.950 . S
H647 C659 0.950 1_655 S
C648 H640 0.950 . S
C648 C649 1.386 . S
C648 C650 1.391 . S
C649 C648 1.386 . S
C649 C653 1.393 . S
C650 H642 0.950 . S
C650 C648 1.391 . S
C650 C651 1.400 . S
C651 C650 1.400 . S
C651 C652 1.398 . S
C651 C657 1.491 . S
C652 H643 0.950 . S
C652 C651 1.398 . S
C652 C653 1.391 . S
C653 H641 0.950 . S
C653 C649 1.393 . S
C653 C652 1.391 . S
C654 H644 0.950 . S
C654 C655 1.388 1_455 S
C654 C656 1.391 . S
C655 C654 1.388 1_655 S
C655 C659 1.393 1_655 S
C656 H645 0.950 . S
C656 C654 1.391 . S
C656 C657 1.400 . S
C657 C651 1.491 . S
C657 C656 1.400 . S
C657 C658 1.398 . S
C658 H646 0.950 . S
C658 C657 1.398 . S
C658 C659 1.391 . S
C659 H647 0.950 1_455 S
C659 C655 1.393 1_455 S
C659 C658 1.391 . S
H660 C668 0.950 . S
H661 C673 0.950 . S
H662 C670 0.950 . S
H663 C672 0.950 . S
H664 C674 0.950 . S
H665 C676 0.950 . S
H666 C678 0.944 1_565 S
H667 C679 0.950 . S
C668 H660 0.950 . S
C668 C669 1.386 . S
C668 C670 1.391 . S
C669 C668 1.386 . S
C669 C673 1.393 . S
C670 H662 0.950 . S
C670 C668 1.391 . S
C670 C671 1.400 . S
C671 C670 1.400 . S
C671 C672 1.398 . S
C671 C677 1.491 . S
C672 H663 0.950 . S
C672 C671 1.398 . S
C672 C673 1.391 . S
C673 H661 0.950 . S
C673 C669 1.393 . S
C673 C672 1.391 . S
C674 H664 0.950 . S
C674 C675 1.386 . S
C674 C676 1.391 . S
C675 C674 1.386 . S
C675 C679 1.393 1_545 S
C676 H665 0.950 . S
C676 C674 1.391 . S
C676 C677 1.400 . S
C677 C671 1.491 . S
C677 C676 1.400 . S
C677 C678 1.398 . S
C678 H666 0.944 1_545 S
C678 C677 1.398 . S
C678 C679 1.391 1_545 S
C679 H667 0.950 . S
C679 C675 1.393 1_565 S
C679 C678 1.391 1_565 S
H680 C688 0.950 . S
H681 C693 0.950 . S
H682 C690 0.950 . S
H683 C692 0.950 . S
H684 C694 0.950 . S
H685 C696 0.950 . S
H686 C698 0.950 . S
H687 C699 0.950 . S
C688 H680 0.950 . S
C688 C689 1.386 . S
C688 C690 1.391 . S
C689 C688 1.386 . S
C689 C693 1.393 . S
C690 H682 0.950 . S
C690 C688 1.391 . S
C690 C691 1.400 . S
C691 C690 1.400 . S
C691 C692 1.398 . S
C691 C697 1.491 . S
C692 H683 0.950 . S
C692 C691 1.398 . S
C692 C693 1.391 . S
C693 H681 0.950 . S
C693 C689 1.393 . S
C693 C692 1.391 . S
C694 H684 0.950 . S
C694 C695 1.386 . S
C694 C696 1.391 . S
C695 C694 1.386 . S
C695 C699 1.393 . S
C696 H685 0.950 . S
C696 C694 1.391 . S
C696 C697 1.400 . S
C697 C691 1.491 . S
C697 C696 1.400 . S
C697 C698 1.398 . S
C698 H686 0.950 . S
C698 C697 1.398 . S
C698 C699 1.391 . S
C699 H687 0.950 . S
C699 C695 1.393 . S
C699 C698 1.391 . S
H700 C708 0.950 . S
H701 C713 0.950 . S
H702 C710 0.950 . S
H703 C712 0.950 . S
H704 C714 0.950 . S
H705 C716 0.950 . S
H706 C718 0.950 . S
H707 C719 0.950 . S
C708 H700 0.950 . S
C708 C709 1.386 . S
C708 C710 1.391 . S
C709 C708 1.386 . S
C709 C713 1.393 . S
C710 H702 0.950 . S
C710 C708 1.391 . S
C710 C711 1.400 . S
C711 C710 1.400 . S
C711 C712 1.398 . S
C711 C717 1.491 . S
C712 H703 0.950 . S
C712 C711 1.398 . S
C712 C713 1.391 . S
C713 H701 0.950 . S
C713 C709 1.393 . S
C713 C712 1.391 . S
C714 H704 0.950 . S
C714 C715 1.386 . S
C714 C716 1.391 . S
C715 C714 1.386 . S
C715 C719 1.393 . S
C716 H705 0.950 . S
C716 C714 1.391 . S
C716 C717 1.400 . S
C717 C711 1.491 . S
C717 C716 1.400 . S
C717 C718 1.398 . S
C718 H706 0.950 . S
C718 C717 1.398 . S
C718 C719 1.391 . S
C719 H707 0.950 . S
C719 C715 1.393 . S
C719 C718 1.391 . S
H720 C728 0.949 1_554 S
H721 C733 0.950 . S
H722 C730 0.950 1_455 S
H723 C732 0.950 . S
H724 C734 0.950 . S
H725 C736 0.950 . S
H726 C738 0.950 . S
H727 C739 0.950 . S
C728 H720 0.949 1_556 S
C728 C729 1.385 1_556 S
C728 C730 1.393 . S
C729 C728 1.385 1_554 S
C729 C733 1.393 1_554 S
C730 H722 0.950 1_655 S
C730 C728 1.393 . S
C730 C731 1.400 . S
C731 C730 1.400 . S
C731 C732 1.398 . S
C731 C737 1.491 . S
C732 H723 0.950 . S
C732 C731 1.398 . S
C732 C733 1.391 . S
C733 H721 0.950 . S
C733 C729 1.393 1_556 S
C733 C732 1.391 . S
C734 H724 0.950 . S
C734 C735 1.386 1_655 S
C734 C736 1.391 . S
C735 C734 1.386 1_455 S
C735 C739 1.393 . S
C736 H725 0.950 . S
C736 C734 1.391 . S
C736 C737 1.400 . S
C737 C731 1.491 . S
C737 C736 1.400 . S
C737 C738 1.398 1_655 S
C738 H726 0.950 . S
C738 C737 1.398 1_455 S
C738 C739 1.391 . S
C739 H727 0.950 . S
C739 C735 1.393 . S
C739 C738 1.391 . S
H740 C748 0.950 . S
H741 C753 0.950 . S
H742 C750 0.950 . S
H743 C752 0.950 . S
H744 C754 0.950 . S
H745 C756 0.950 . S
H746 C758 0.950 . S
H747 C759 0.950 . S
C748 H740 0.950 . S
C748 C749 1.386 . S
C748 C750 1.391 . S
C749 C748 1.386 . S
C749 C753 1.393 1_554 S
C750 H742 0.950 . S
C750 C748 1.391 . S
C750 C751 1.400 1_554 S
C751 C750 1.400 1_556 S
C751 C752 1.398 . S
C751 C757 1.491 . S
C752 H743 0.950 . S
C752 C751 1.398 . S
C752 C753 1.391 . S
C753 H741 0.950 . S
C753 C749 1.393 1_556 S
C753 C752 1.391 . S
C754 H744 0.950 . S
C754 C755 1.386 . S
C754 C756 1.390 1_545 S
C755 C754 1.386 . S
C755 C759 1.393 . S
C756 H745 0.950 . S
C756 C754 1.390 1_565 S
C756 C757 1.400 . S
C757 C751 1.491 . S
C757 C756 1.400 . S
C757 C758 1.398 . S
C758 H746 0.950 . S
C758 C757 1.398 . S
C758 C759 1.391 1_565 S
C759 H747 0.950 . S
C759 C755 1.393 . S
C759 C758 1.391 1_545 S
H760 C768 0.950 . S
H761 C773 0.950 . S
H762 C770 0.950 . S
H763 C772 0.950 . S
H764 C774 0.950 . S
H765 C776 0.950 . S
H766 C778 0.950 . S
H767 C779 0.950 . S
C768 H760 0.950 . S
C768 C769 1.386 . S
C768 C770 1.391 . S
C769 C768 1.386 . S
C769 C773 1.393 . S
C770 H762 0.950 . S
C770 C768 1.391 . S
C770 C771 1.400 . S
C771 C770 1.400 . S
C771 C772 1.398 . S
C771 C777 1.491 . S
C772 H763 0.950 . S
C772 C771 1.398 . S
C772 C773 1.391 . S
C773 H761 0.950 . S
C773 C769 1.393 . S
C773 C772 1.391 . S
C774 H764 0.950 . S
C774 C775 1.386 . S
C774 C776 1.391 . S
C775 C774 1.386 . S
C775 C779 1.393 . S
C776 H765 0.950 . S
C776 C774 1.391 . S
C776 C777 1.400 . S
C777 C771 1.491 . S
C777 C776 1.400 . S
C777 C778 1.398 . S
C778 H766 0.950 . S
C778 C777 1.398 . S
C778 C779 1.391 . S
C779 H767 0.950 . S
C779 C775 1.393 . S
C779 C778 1.391 . S
H780 C788 0.950 . S
H781 C793 0.950 . S
H782 C790 0.950 . S
H783 C792 0.950 . S
H784 C794 0.950 . S
H785 C796 0.950 . S
H786 C798 0.950 . S
H787 C799 0.950 . S
C788 H780 0.950 . S
C788 C789 1.386 . S
C788 C790 1.391 . S
C789 C788 1.386 . S
C789 C793 1.393 . S
C790 H782 0.950 . S
C790 C788 1.391 . S
C790 C791 1.400 . S
C791 C790 1.400 . S
C791 C792 1.398 . S
C791 C797 1.491 . S
C792 H783 0.950 . S
C792 C791 1.398 . S
C792 C793 1.391 . S
C793 H781 0.950 . S
C793 C789 1.393 . S
C793 C792 1.391 . S
C794 H784 0.950 . S
C794 C795 1.386 . S
C794 C796 1.391 . S
C795 C794 1.386 . S
C795 C799 1.393 . S
C796 H785 0.950 . S
C796 C794 1.391 . S
C796 C797 1.400 . S
C797 C791 1.491 . S
C797 C796 1.400 . S
C797 C798 1.398 . S
C798 H786 0.950 . S
C798 C797 1.398 . S
C798 C799 1.391 . S
C799 H787 0.950 . S
C799 C795 1.393 . S
C799 C798 1.391 . S
H800 C808 0.950 . S
H801 C813 0.950 . S
H802 C810 0.950 . S
H803 C812 0.950 . S
H804 C814 0.950 . S
H805 C816 0.950 . S
H806 C818 0.950 . S
H807 C819 0.950 1_655 S
C808 H800 0.950 . S
C808 C809 1.386 . S
C808 C810 1.391 . S
C809 C808 1.386 . S
C809 C813 1.393 . S
C810 H802 0.950 . S
C810 C808 1.391 . S
C810 C811 1.400 . S
C811 C810 1.400 . S
C811 C812 1.398 . S
C811 C817 1.491 . S
C812 H803 0.950 . S
C812 C811 1.398 . S
C812 C813 1.391 . S
C813 H801 0.950 . S
C813 C809 1.393 . S
C813 C812 1.391 . S
C814 H804 0.950 . S
C814 C815 1.386 . S
C814 C816 1.391 . S
C815 C814 1.386 . S
C815 C819 1.393 . S
C816 H805 0.950 . S
C816 C814 1.391 . S
C816 C817 1.400 . S
C817 C811 1.491 . S
C817 C816 1.400 . S
C817 C818 1.398 . S
C818 H806 0.950 . S
C818 C817 1.398 . S
C818 C819 1.391 . S
C819 H807 0.950 1_455 S
C819 C815 1.393 . S
C819 C818 1.391 . S
H820 C828 0.950 . S
H821 C833 0.950 . S
H822 C830 0.950 . S
H823 C832 0.950 . S
H824 C834 0.950 . S
H825 C836 0.950 . S
H826 C838 0.950 . S
H827 C839 0.950 . S
C828 H820 0.950 . S
C828 C829 1.386 . S
C828 C830 1.391 . S
C829 C828 1.386 . S
C829 C833 1.393 . S
C830 H822 0.950 . S
C830 C828 1.391 . S
C830 C831 1.400 . S
C831 C830 1.400 . S
C831 C832 1.398 . S
C831 C837 1.491 . S
C832 H823 0.950 . S
C832 C831 1.398 . S
C832 C833 1.391 . S
C833 H821 0.950 . S
C833 C829 1.393 . S
C833 C832 1.391 . S
C834 H824 0.950 . S
C834 C835 1.386 . S
C834 C836 1.391 . S
C835 C834 1.386 . S
C835 C839 1.393 . S
C836 H825 0.950 . S
C836 C834 1.391 . S
C836 C837 1.400 . S
C837 C831 1.491 . S
C837 C836 1.400 . S
C837 C838 1.398 . S
C838 H826 0.950 . S
C838 C837 1.398 . S
C838 C839 1.391 . S
C839 H827 0.950 . S
C839 C835 1.393 . S
C839 C838 1.391 . S
H840 C848 0.950 . S
H841 C853 0.950 . S
H842 C850 0.950 . S
H843 C852 0.950 . S
H844 C854 0.950 . S
H845 C856 0.950 . S
H846 C858 0.950 . S
H847 C859 0.950 . S
C848 H840 0.950 . S
C848 C849 1.386 . S
C848 C850 1.391 . S
C849 C848 1.386 . S
C849 C853 1.393 . S
C850 H842 0.950 . S
C850 C848 1.391 . S
C850 C851 1.400 . S
C851 C850 1.400 . S
C851 C852 1.398 . S
C851 C857 1.491 . S
C852 H843 0.950 . S
C852 C851 1.398 . S
C852 C853 1.391 . S
C853 H841 0.950 . S
C853 C849 1.393 . S
C853 C852 1.391 . S
C854 H844 0.950 . S
C854 C855 1.386 . S
C854 C856 1.391 . S
C855 C854 1.386 . S
C855 C859 1.393 . S
C856 H845 0.950 . S
C856 C854 1.391 . S
C856 C857 1.400 . S
C857 C851 1.491 . S
C857 C856 1.400 . S
C857 C858 1.398 . S
C858 H846 0.950 . S
C858 C857 1.398 . S
C858 C859 1.391 . S
C859 H847 0.950 . S
C859 C855 1.393 . S
C859 C858 1.391 . S
H860 C868 0.950 . S
H861 C873 0.950 . S
H862 C870 0.950 . S
H863 C872 0.950 . S
H864 C874 0.950 . S
H865 C876 0.950 . S
H866 C878 0.950 . S
H867 C879 0.950 . S
C868 H860 0.950 . S
C868 C869 1.386 . S
C868 C870 1.391 . S
C869 C868 1.386 . S
C869 C873 1.393 . S
C870 H862 0.950 . S
C870 C868 1.391 . S
C870 C871 1.400 . S
C871 C870 1.400 . S
C871 C872 1.398 . S
C871 C877 1.491 . S
C872 H863 0.950 . S
C872 C871 1.398 . S
C872 C873 1.391 . S
C873 H861 0.950 . S
C873 C869 1.393 . S
C873 C872 1.391 . S
C874 H864 0.950 . S
C874 C875 1.386 . S
C874 C876 1.391 . S
C875 C874 1.386 . S
C875 C879 1.393 . S
C876 H865 0.950 . S
C876 C874 1.391 . S
C876 C877 1.400 . S
C877 C871 1.491 . S
C877 C876 1.400 . S
C877 C878 1.398 . S
C878 H866 0.950 . S
C878 C877 1.398 . S
C878 C879 1.391 . S
C879 H867 0.950 . S
C879 C875 1.393 . S
C879 C878 1.391 . S
H880 C888 0.950 . S
H881 C893 0.950 . S
H882 C890 0.950 . S
H883 C892 0.950 . S
H884 C894 0.950 . S
H885 C896 0.950 . S
H886 C898 0.950 1_455 S
H887 C899 0.914 1_455 S
C888 H880 0.950 . S
C888 C889 1.386 . S
C888 C890 1.391 . S
C889 C888 1.386 . S
C889 C893 1.393 . S
C890 H882 0.950 . S
C890 C888 1.391 . S
C890 C891 1.400 . S
C891 C890 1.400 . S
C891 C892 1.398 . S
C891 C897 1.491 . S
C892 H883 0.950 . S
C892 C891 1.398 . S
C892 C893 1.391 . S
C893 H881 0.950 . S
C893 C889 1.393 . S
C893 C892 1.391 . S
C894 H884 0.950 . S
C894 C895 1.386 . S
C894 C896 1.391 . S
C895 C894 1.386 . S
C895 C899 1.423 . S
C896 H885 0.950 . S
C896 C894 1.391 . S
C896 C897 1.400 . S
C897 C891 1.491 . S
C897 C896 1.400 . S
C897 C898 1.398 . S
C898 H886 0.950 1_655 S
C898 C897 1.398 . S
C898 C899 1.398 . S
C899 H887 0.914 1_655 S
C899 C895 1.423 . S
C899 C898 1.398 . S
H900 C908 0.950 . S
H901 C913 0.950 . S
H902 C910 0.950 . S
H903 C912 0.950 . S
H904 C914 0.950 . S
H905 C916 0.950 . S
H906 C918 0.950 . S
H907 C919 0.950 . S
C908 H900 0.950 . S
C908 C909 1.386 . S
C908 C910 1.391 . S
C909 C908 1.386 . S
C909 C913 1.393 . S
C910 H902 0.950 . S
C910 C908 1.391 . S
C910 C911 1.400 . S
C911 C910 1.400 . S
C911 C912 1.398 . S
C911 C917 1.491 . S
C912 H903 0.950 . S
C912 C911 1.398 . S
C912 C913 1.391 . S
C913 H901 0.950 . S
C913 C909 1.393 . S
C913 C912 1.391 . S
C914 H904 0.950 . S
C914 C915 1.386 . S
C914 C916 1.391 . S
C915 C914 1.386 . S
C915 C919 1.393 . S
C916 H905 0.950 . S
C916 C914 1.391 . S
C916 C917 1.400 . S
C917 C911 1.491 . S
C917 C916 1.400 . S
C917 C918 1.398 . S
C918 H906 0.950 . S
C918 C917 1.398 . S
C918 C919 1.391 . S
C919 H907 0.950 . S
C919 C915 1.393 . S
C919 C918 1.391 . S
H920 C928 0.950 . S
H921 C933 0.950 . S
H922 C930 0.950 . S
H923 C932 0.950 . S
H924 C934 0.950 . S
H925 C936 0.950 . S
H926 C938 0.950 . S
H927 C939 0.950 . S
C928 H920 0.950 . S
C928 C929 1.386 . S
C928 C930 1.391 . S
C929 C928 1.386 . S
C929 C933 1.393 . S
C930 H922 0.950 . S
C930 C928 1.391 . S
C930 C931 1.400 . S
C931 C930 1.400 . S
C931 C932 1.398 . S
C931 C937 1.491 . S
C932 H923 0.950 . S
C932 C931 1.398 . S
C932 C933 1.391 . S
C933 H921 0.950 . S
C933 C929 1.393 . S
C933 C932 1.391 . S
C934 H924 0.950 . S
C934 C935 1.386 . S
C934 C936 1.391 . S
C935 C934 1.386 . S
C935 C939 1.393 . S
C936 H925 0.950 . S
C936 C934 1.391 . S
C936 C937 1.400 . S
C937 C931 1.491 . S
C937 C936 1.400 . S
C937 C938 1.398 . S
C938 H926 0.950 . S
C938 C937 1.398 . S
C938 C939 1.391 . S
C939 H927 0.950 . S
C939 C935 1.393 . S
C939 C938 1.391 . S
H940 C948 0.950 . S
H941 C953 0.950 . S
H942 C950 0.950 . S
H943 C952 0.950 . S
H944 C954 0.950 . S
H945 C956 0.950 . S
H946 C958 0.950 . S
H947 C959 0.950 . S
C948 H940 0.950 . S
C948 C949 1.386 . S
C948 C950 1.391 . S
C949 C948 1.386 . S
C949 C953 1.393 . S
C950 H942 0.950 . S
C950 C948 1.391 . S
C950 C951 1.400 . S
C951 C950 1.400 . S
C951 C952 1.398 . S
C951 C957 1.491 . S
C952 H943 0.950 . S
C952 C951 1.398 . S
C952 C953 1.391 . S
C953 H941 0.950 . S
C953 C949 1.393 . S
C953 C952 1.391 . S
C954 H944 0.950 . S
C954 C955 1.386 . S
C954 C956 1.391 . S
C955 C954 1.386 . S
C955 C959 1.393 . S
C956 H945 0.950 . S
C956 C954 1.391 . S
C956 C957 1.400 . S
C957 C951 1.491 . S
C957 C956 1.400 . S
C957 C958 1.398 . S
C958 H946 0.950 . S
C958 C957 1.398 . S
C958 C959 1.391 . S
C959 H947 0.950 . S
C959 C955 1.393 . S
C959 C958 1.391 . S
C489 C255 2.885 . S
C495 C351 3.093 . S
C515 C377 2.459 . S
C509 C295 2.234 . S
C535 C417 2.452 . S
C529 C175 2.241 . S
C555 C471 2.990 . S
C549 C215 2.825 . S
C575 C332 3.094 . S
C569 C95 2.879 . S
C589 C135 2.255 . S
C595 C362 2.460 . S
C609 C15 2.239 . S
C615 C402 2.452 . S
C629 C55 2.820 . S
C635 C452 2.977 1_655 S
C655 C328 0.357 1_655 S
C649 C221 0.343 . S
C675 C389 0.697 . S
C669 C261 0.667 . S
C695 C429 0.374 . S
C689 C301 0.326 . S
C709 C181 0.366 . S
C715 C448 0.350 . S
C729 C61 0.612 . S
C735 C349 0.437 . S
C755 C368 0.645 . S
C749 C101 0.652 . S
C775 C408 0.372 . S
C769 C141 0.328 . S
C789 C21 0.660 . S
C795 C469 0.415 . S
C809 C202 2.820 . S
C815 C322 3.104 . S
C829 C242 3.485 . S
C835 C372 3.766 . S
C855 C412 3.436 . S
C849 C282 3.136 . S
C875 C442 2.781 . S
C869 C162 2.540 . S
C889 C42 2.760 . S
C895 C337 3.102 . S
C915 C391 3.768 . S
C909 C82 3.449 . S
C935 C431 3.437 . S
C929 C122 3.196 . S
C949 C2 2.491 . S
C955 C457 2.788 . S
