# Generated by pormake.
# Topology ocu, (6,8)-cn, num edge types: 1
# Building blocks:
#     Node 0, Type 0, BuildingBlock: BETDEL_clean_sbu_0, # of connection points: 6
#     Node 1, Type 0, BuildingBlock: BETDEL_clean_sbu_0, # of connection points: 6
#     Node 2, Type 0, BuildingBlock: BETDEL_clean_sbu_0, # of connection points: 6
#     Node 3, Type 0, BuildingBlock: BETDEL_clean_sbu_0, # of connection points: 6
#     Node 4, Type 0, BuildingBlock: BETDEL_clean_sbu_0, # of connection points: 6
#     Node 5, Type 0, BuildingBlock: BETDEL_clean_sbu_0, # of connection points: 6
#     Node 6, Type 0, BuildingBlock: BETDEL_clean_sbu_0, # of connection points: 6
#     Node 7, Type 0, BuildingBlock: BETDEL_clean_sbu_0, # of connection points: 6
#     Node 8, Type 1, BuildingBlock: AJUNOK_clean_sbu_0, # of connection points: 8
#     Node 9, Type 1, BuildingBlock: AJUNOK_clean_sbu_0, # of connection points: 8
#     Node 10, Type 1, BuildingBlock: AJUNOK_clean_sbu_0, # of connection points: 8
#     Node 11, Type 1, BuildingBlock: AJUNOK_clean_sbu_0, # of connection points: 8
#     Node 12, Type 1, BuildingBlock: AJUNOK_clean_sbu_0, # of connection points: 8
#     Node 13, Type 1, BuildingBlock: AJUNOK_clean_sbu_0, # of connection points: 8
#     Edge 14, Type (0, 1), BuildingBlock: OJICUG_clean_linker_0, # of connection points: 2
#     Edge 15, Type (0, 1), BuildingBlock: OJICUG_clean_linker_0, # of connection points: 2
#     Edge 16, Type (0, 1), BuildingBlock: OJICUG_clean_linker_0, # of connection points: 2
#     Edge 17, Type (0, 1), BuildingBlock: OJICUG_clean_linker_0, # of connection points: 2
#     Edge 18, Type (0, 1), BuildingBlock: OJICUG_clean_linker_0, # of connection points: 2
#     Edge 19, Type (0, 1), BuildingBlock: OJICUG_clean_linker_0, # of connection points: 2
#     Edge 20, Type (0, 1), BuildingBlock: OJICUG_clean_linker_0, # of connection points: 2
#     Edge 21, Type (0, 1), BuildingBlock: OJICUG_clean_linker_0, # of connection points: 2
#     Edge 22, Type (0, 1), BuildingBlock: OJICUG_clean_linker_0, # of connection points: 2
#     Edge 23, Type (0, 1), BuildingBlock: OJICUG_clean_linker_0, # of connection points: 2
#     Edge 24, Type (0, 1), BuildingBlock: OJICUG_clean_linker_0, # of connection points: 2
#     Edge 25, Type (0, 1), BuildingBlock: OJICUG_clean_linker_0, # of connection points: 2
#     Edge 26, Type (0, 1), BuildingBlock: OJICUG_clean_linker_0, # of connection points: 2
#     Edge 27, Type (0, 1), BuildingBlock: OJICUG_clean_linker_0, # of connection points: 2
#     Edge 28, Type (0, 1), BuildingBlock: OJICUG_clean_linker_0, # of connection points: 2
#     Edge 29, Type (0, 1), BuildingBlock: OJICUG_clean_linker_0, # of connection points: 2
#     Edge 30, Type (0, 1), BuildingBlock: OJICUG_clean_linker_0, # of connection points: 2
#     Edge 31, Type (0, 1), BuildingBlock: OJICUG_clean_linker_0, # of connection points: 2
#     Edge 32, Type (0, 1), BuildingBlock: OJICUG_clean_linker_0, # of connection points: 2
#     Edge 33, Type (0, 1), BuildingBlock: OJICUG_clean_linker_0, # of connection points: 2
#     Edge 34, Type (0, 1), BuildingBlock: OJICUG_clean_linker_0, # of connection points: 2
#     Edge 35, Type (0, 1), BuildingBlock: OJICUG_clean_linker_0, # of connection points: 2
#     Edge 36, Type (0, 1), BuildingBlock: OJICUG_clean_linker_0, # of connection points: 2
#     Edge 37, Type (0, 1), BuildingBlock: OJICUG_clean_linker_0, # of connection points: 2
#     Edge 38, Type (0, 1), BuildingBlock: OJICUG_clean_linker_0, # of connection points: 2
#     Edge 39, Type (0, 1), BuildingBlock: OJICUG_clean_linker_0, # of connection points: 2
#     Edge 40, Type (0, 1), BuildingBlock: OJICUG_clean_linker_0, # of connection points: 2
#     Edge 41, Type (0, 1), BuildingBlock: OJICUG_clean_linker_0, # of connection points: 2
#     Edge 42, Type (0, 1), BuildingBlock: OJICUG_clean_linker_0, # of connection points: 2
#     Edge 43, Type (0, 1), BuildingBlock: OJICUG_clean_linker_0, # of connection points: 2
#     Edge 44, Type (0, 1), BuildingBlock: OJICUG_clean_linker_0, # of connection points: 2
#     Edge 45, Type (0, 1), BuildingBlock: OJICUG_clean_linker_0, # of connection points: 2
#     Edge 46, Type (0, 1), BuildingBlock: OJICUG_clean_linker_0, # of connection points: 2
#     Edge 47, Type (0, 1), BuildingBlock: OJICUG_clean_linker_0, # of connection points: 2
#     Edge 48, Type (0, 1), BuildingBlock: OJICUG_clean_linker_0, # of connection points: 2
#     Edge 49, Type (0, 1), BuildingBlock: OJICUG_clean_linker_0, # of connection points: 2
#     Edge 50, Type (0, 1), BuildingBlock: OJICUG_clean_linker_0, # of connection points: 2
#     Edge 51, Type (0, 1), BuildingBlock: OJICUG_clean_linker_0, # of connection points: 2
#     Edge 52, Type (0, 1), BuildingBlock: OJICUG_clean_linker_0, # of connection points: 2
#     Edge 53, Type (0, 1), BuildingBlock: OJICUG_clean_linker_0, # of connection points: 2
#     Edge 54, Type (0, 1), BuildingBlock: OJICUG_clean_linker_0, # of connection points: 2
#     Edge 55, Type (0, 1), BuildingBlock: OJICUG_clean_linker_0, # of connection points: 2
#     Edge 56, Type (0, 1), BuildingBlock: OJICUG_clean_linker_0, # of connection points: 2
#     Edge 57, Type (0, 1), BuildingBlock: OJICUG_clean_linker_0, # of connection points: 2
#     Edge 58, Type (0, 1), BuildingBlock: OJICUG_clean_linker_0, # of connection points: 2
#     Edge 59, Type (0, 1), BuildingBlock: OJICUG_clean_linker_0, # of connection points: 2
#     Edge 60, Type (0, 1), BuildingBlock: OJICUG_clean_linker_0, # of connection points: 2
#     Edge 61, Type (0, 1), BuildingBlock: OJICUG_clean_linker_0, # of connection points: 2
# Relax obj value: 0.123
# Max RMSD: 0.260
# Mean RMSD: 0.183
data_MOF--net-ocu--node1-BETDEL_clean_sbu_0--node2-AJUNOK_clean_sbu_0--edge1-OJICUG_clean_linker_0
_symmetry_space_group_name_H-M    P1
_symmetry_Int_Tables_number       1
_symmetry_cell_setting            triclinic
loop_
_symmetry_equiv_pos_as_xyz
'x, y, z'
_cell_length_a     32.158128
_cell_length_b     33.171982
_cell_length_c     26.722614
_cell_angle_alpha  100.08956
_cell_angle_beta   99.834738
_cell_angle_gamma 107.53269
loop_
_atom_site_label
_atom_site_type_symbol
_atom_site_fract_x
_atom_site_fract_y
_atom_site_fract_z
_atom_type_partial_charge
Dy0 Dy 0.28175 0.23384 0.29304 0.0
C1 C 0.17153 0.24284 0.10842 0.0
C2 C 0.32731 0.20876 0.37127 0.0
Dy3 Dy 0.21862 0.21922 0.18669 0.0
O4 O 0.34418 0.24181 0.35211 0.0
O5 O 0.28461 0.19166 0.34996 0.0
O6 O 0.32201 0.30076 0.28733 0.0
O7 O 0.29008 0.25014 0.21943 0.0
C8 C 0.31194 0.2903 0.23626 0.0
C9 C 0.18822 0.16329 0.24444 0.0
O10 O 0.26064 0.18148 0.15635 0.0
O11 O 0.29316 0.17867 0.23963 0.0
O12 O 0.15577 0.20923 0.12712 0.0
O13 O 0.21405 0.26145 0.13009 0.0
O14 O 0.17848 0.15244 0.1934 0.0
O15 O 0.21021 0.20344 0.26055 0.0
O16 O 0.2407 0.27293 0.32304 0.0
O17 O 0.20777 0.27492 0.23951 0.0
C18 C 0.28605 0.16656 0.18779 0.0
C19 C 0.21536 0.28774 0.29131 0.0
Dy20 Dy 0.77855 0.21504 0.27321 0.0
C21 C 0.6691 0.29154 0.16818 0.0
C22 C 0.83921 0.19314 0.33488 0.0
Dy23 Dy 0.71686 0.26109 0.23511 0.0
O24 O 0.8346 0.18892 0.28483 0.0
O25 O 0.80963 0.20784 0.35115 0.0
O26 O 0.7571 0.16486 0.19547 0.0
O27 O 0.71298 0.19374 0.22042 0.0
C28 C 0.71851 0.16989 0.18208 0.0
C29 C 0.77621 0.3052 0.32687 0.0
O30 O 0.67114 0.21865 0.27325 0.0
O31 O 0.72679 0.19923 0.32023 0.0
O32 O 0.71097 0.31133 0.19167 0.0
O33 O 0.65227 0.25679 0.18412 0.0
O34 O 0.73676 0.30877 0.31394 0.0
O35 O 0.78274 0.28251 0.2881 0.0
O36 O 0.82137 0.26268 0.23806 0.0
O37 O 0.76047 0.26093 0.1782 0.0
C38 C 0.68525 0.19987 0.30924 0.0
C39 C 0.80411 0.27003 0.19361 0.0
Dy40 Dy 0.73368 0.7349 0.29044 0.0
C41 C 0.78699 0.6674 0.11014 0.0
C42 C 0.70789 0.78001 0.36805 0.0
Dy43 Dy 0.76591 0.7184 0.18674 0.0
O44 O 0.68726 0.73926 0.34383 0.0
O45 O 0.74452 0.79482 0.35249 0.0
O46 O 0.691 0.66441 0.27024 0.0
O47 O 0.70401 0.69745 0.21087 0.0
C48 C 0.68708 0.66105 0.2202 0.0
C49 C 0.81294 0.79204 0.25689 0.0
O50 O 0.71668 0.75015 0.15701 0.0
O51 O 0.7074 0.77502 0.24015 0.0
O52 O 0.80845 0.70894 0.12958 0.0
O53 O 0.75211 0.65531 0.12951 0.0
O54 O 0.81012 0.78847 0.20691 0.0
O55 O 0.79542 0.75576 0.26609 0.0
O56 O 0.78434 0.70478 0.32087 0.0
O57 O 0.79408 0.68002 0.23799 0.0
C58 C 0.70088 0.77414 0.1892 0.0
C59 C 0.80065 0.68113 0.28895 0.0
Dy60 Dy 0.27729 0.70831 0.21846 0.0
C61 C 0.20139 0.81729 0.32859 0.0
C62 C 0.30931 0.66212 0.1519 0.0
Dy63 Dy 0.22494 0.76467 0.25961 0.0
O64 O 0.33244 0.70064 0.18141 0.0
O65 O 0.2697 0.64788 0.16084 0.0
O66 O 0.32754 0.73211 0.29686 0.0
O67 O 0.29428 0.77192 0.26822 0.0
C68 C 0.31911 0.76831 0.3074 0.0
C69 C 0.17794 0.70026 0.17423 0.0
O70 O 0.26745 0.8076 0.21927 0.0
O71 O 0.27217 0.75 0.16154 0.0
O72 O 0.19669 0.81739 0.27931 0.0
O73 O 0.21789 0.78805 0.33988 0.0
O74 O 0.16845 0.73565 0.18656 0.0
O75 O 0.20733 0.70038 0.21154 0.0
O76 O 0.2438 0.66561 0.26571 0.0
O77 O 0.22057 0.71787 0.3118 0.0
C78 C 0.27689 0.79165 0.17547 0.0
C79 C 0.22605 0.67933 0.30373 0.0
Dy80 Dy 0.28463 0.71416 0.76231 0.0
C81 C 0.17046 0.78595 0.65812 0.0
C82 C 0.33789 0.68251 0.82052 0.0
Dy83 Dy 0.2206 0.75702 0.725 0.0
O84 O 0.31639 0.66442 0.77226 0.0
O85 O 0.33125 0.71856 0.83699 0.0
O86 O 0.27014 0.67188 0.68114 0.0
O87 O 0.21971 0.69075 0.70669 0.0
C88 C 0.22927 0.67161 0.66762 0.0
C89 C 0.27546 0.80003 0.81956 0.0
O90 O 0.17571 0.71265 0.7626 0.0
O91 O 0.23396 0.69684 0.80914 0.0
O92 O 0.20754 0.8103 0.69157 0.0
O93 O 0.159 0.74636 0.6636 0.0
O94 O 0.23478 0.80047 0.80534 0.0
O95 O 0.2852 0.78057 0.78076 0.0
O96 O 0.33055 0.76199 0.7315 0.0
O97 O 0.27088 0.76743 0.67508 0.0
C98 C 0.19155 0.69443 0.79826 0.0
C99 C 0.31438 0.77478 0.6909 0.0
Dy100 Dy 0.23689 0.24511 0.79273 0.0
C101 C 0.28586 0.17432 0.60281 0.0
C102 C 0.21845 0.29103 0.87662 0.0
Dy103 Dy 0.26342 0.21792 0.68481 0.0
O104 O 0.19783 0.2499 0.85435 0.0
O105 O 0.25225 0.30569 0.8562 0.0
O106 O 0.16772 0.19528 0.76059 0.0
O107 O 0.22184 0.18672 0.73181 0.0
C108 C 0.17997 0.17304 0.72462 0.0
C109 C 0.32069 0.28823 0.75517 0.0
O110 O 0.21108 0.24753 0.65598 0.0
O111 O 0.20689 0.27991 0.7392 0.0
O112 O 0.30449 0.21572 0.62489 0.0
O113 O 0.25164 0.15816 0.62199 0.0
O114 O 0.33334 0.2639 0.72191 0.0
O115 O 0.27871 0.27625 0.74578 0.0
O116 O 0.29028 0.21668 0.82138 0.0
O117 O 0.29149 0.18175 0.738 0.0
C118 C 0.19641 0.27354 0.68732 0.0
C119 C 0.30382 0.18967 0.78996 0.0
Dy120 Dy 0.77805 0.20197 0.7201 0.0
C121 C 0.68789 0.30472 0.81533 0.0
C122 C 0.80487 0.14836 0.65677 0.0
Dy123 Dy 0.72096 0.25773 0.75097 0.0
O124 O 0.81614 0.15665 0.70763 0.0
O125 O 0.77976 0.16978 0.64072 0.0
O126 O 0.8285 0.23137 0.79842 0.0
O127 O 0.79116 0.26588 0.76593 0.0
C128 C 0.81712 0.26607 0.80657 0.0
C129 C 0.68429 0.19475 0.66346 0.0
O130 O 0.75859 0.29996 0.70593 0.0
O131 O 0.79078 0.25064 0.67045 0.0
O132 O 0.66503 0.266 0.78608 0.0
O133 O 0.72743 0.31901 0.80641 0.0
O134 O 0.67408 0.23025 0.67026 0.0
O135 O 0.70804 0.19365 0.70518 0.0
O136 O 0.73438 0.15954 0.75953 0.0
O137 O 0.72196 0.21679 0.80978 0.0
C138 C 0.78214 0.2876 0.67396 0.0
C139 C 0.72078 0.17589 0.7998 0.0
Dy140 Dy 0.78182 0.73829 0.79279 0.0
C141 C 0.68085 0.75931 0.61423 0.0
C142 C 0.82147 0.70558 0.86669 0.0
Dy143 Dy 0.71565 0.72339 0.68792 0.0
O144 O 0.83861 0.74477 0.8602 0.0
O145 O 0.78203 0.68643 0.83531 0.0
O146 O 0.82347 0.80424 0.78517 0.0
O147 O 0.78744 0.75365 0.71848 0.0
C148 C 0.81072 0.79357 0.7341 0.0
C149 C 0.68607 0.66731 0.74566 0.0
O150 O 0.75505 0.68306 0.65582 0.0
O151 O 0.79917 0.68876 0.73733 0.0
O152 O 0.66117 0.72021 0.61974 0.0
O153 O 0.71973 0.77684 0.64694 0.0
O154 O 0.67344 0.65752 0.69452 0.0
O155 O 0.70967 0.70725 0.76212 0.0
O156 O 0.74245 0.77852 0.82502 0.0
O157 O 0.69758 0.77204 0.74362 0.0
C158 C 0.78591 0.67264 0.68576 0.0
C159 C 0.71116 0.78845 0.79513 0.0
Cd160 Cd 0.95387 0.93896 0.53983 0.0
Cd161 Cd 0.0378 0.01571 0.43271 0.0
C162 C 0.02286 0.90395 0.5843 0.0
N163 N -0.00238 0.89765 0.53571 0.0
C164 C 0.03114 0.84826 0.49915 0.0
C165 C 0.05937 0.85658 0.54863 0.0
C166 C 0.0545 0.88402 0.59165 0.0
C167 C 0.0002 0.86998 0.49329 0.0
H168 H 0.01838 0.92479 0.61735 0.0
H169 H 0.97875 0.86514 0.45533 0.0
C170 C 0.94572 0.936 0.40167 0.0
C171 C 0.95172 0.04232 0.40691 0.0
C172 C 0.92717 0.06982 0.404 0.0
C173 C 0.94454 0.11156 0.4371 0.0
C174 C 0.98376 0.12346 0.47646 0.0
C175 C 0.00691 0.09411 0.47896 0.0
N176 N 0.99124 0.05511 0.4432 0.0
H177 H 0.94069 0.01267 0.37694 0.0
H178 H 0.0389 0.10358 0.50669 0.0
C179 C 0.05154 0.9245 0.41677 0.0
N180 N 0.06954 0.96537 0.44827 0.0
C181 C 0.13641 0.95289 0.48302 0.0
C182 C 0.11988 0.91213 0.44768 0.0
C183 C 0.07615 0.89681 0.41648 0.0
C184 C 0.11024 -0.02056 0.48261 0.0
H185 H 0.01997 0.91441 0.38853 0.0
H186 H 0.12402 0.01264 0.50598 0.0
C187 C 0.05189 0.02279 0.57628 0.0
C188 C 0.89655 0.89427 0.59935 0.0
N189 N 0.92093 -0.01248 0.52068 0.0
C190 C 0.94412 0.03045 0.54209 0.0
C191 C 0.9216 0.05987 0.5456 0.0
C192 C 0.87488 0.0442 0.52867 0.0
C193 C 0.8523 0.00097 0.50061 0.0
C194 C 0.87652 0.97261 0.497 0.0
C195 C 0.09428 0.0625 0.37345 0.0
O196 O 0.95681 0.94337 0.45107 0.0
O197 O 0.97223 0.95802 0.37852 0.0
O198 O 0.04717 0.02045 0.52745 0.0
O199 O 0.02248 -0.00342 0.59273 0.0
O200 O 0.89035 0.8788 0.55038 0.0
O201 O 0.92765 0.93083 0.61928 0.0
O202 O 0.10106 0.07658 0.42268 0.0
O203 O 0.06232 0.0268 0.35265 0.0
H204 H 0.97905 0.04156 0.56126 0.0
H205 H 0.85925 0.93808 0.48054 0.0
H206 H 0.03361 0.82608 0.46577 0.0
H207 H 0.07465 0.88952 0.63075 0.0
H208 H 0.89736 0.06037 0.37249 0.0
H209 H -0.00205 0.15592 0.50196 0.0
H210 H 0.17076 0.96577 0.50611 0.0
H211 H 0.06335 0.86589 0.38761 0.0
H212 H 0.93955 0.09307 0.56826 0.0
H213 H 0.81601 -0.0118 0.48796 0.0
Cd214 Cd 0.47769 0.95627 0.06287 0.0
Cd215 Cd 0.52643 0.00682 0.91552 0.0
C216 C 0.56018 0.93476 0.13435 0.0
N217 N 0.53197 0.92064 0.08577 0.0
C218 C 0.56181 0.86267 0.06544 0.0
C219 C 0.59064 0.87576 0.11592 0.0
C220 C 0.58977 0.91304 0.15005 0.0
C221 C 0.5328 0.88549 0.05124 0.0
H222 H 0.55935 0.96269 0.16146 0.0
H223 H 0.51017 0.87444 0.01281 0.0
C224 C 0.43943 0.93305 0.92226 0.0
C225 C 0.43956 0.02695 0.84963 0.0
C226 C 0.41052 0.04949 0.83529 0.0
C227 C 0.41746 0.09176 0.86455 0.0
C228 C 0.45362 0.10926 0.90919 0.0
C229 C 0.48163 0.0853 0.92253 0.0
N230 N 0.47452 0.04491 0.89269 0.0
H231 H 0.43424 -0.00487 0.82575 0.0
H232 H 0.50967 0.09941 0.95642 0.0
C233 C 0.54064 0.91575 0.85478 0.0
N234 N 0.56013 0.95177 0.8953 0.0
C235 C 0.62773 0.93386 0.91076 0.0
C236 C 0.60905 0.89672 0.86852 0.0
C237 C 0.56442 0.88782 0.84082 0.0
C238 C 0.60283 0.9609 0.92326 0.0
H239 H 0.50706 0.90928 0.8321 0.0
H240 H 0.61812 -0.01001 0.95479 0.0
C241 C 0.56138 0.03569 0.05878 0.0
C242 C 0.40824 0.90072 0.09371 0.0
N243 N 0.44392 0.01091 0.08466 0.0
C244 C 0.45399 0.03433 0.13505 0.0
C245 C 0.42934 0.06082 0.15056 0.0
C246 C 0.39339 0.06341 0.1142 0.0
C247 C 0.38494 0.04003 0.06194 0.0
C248 C 0.41046 0.01385 0.0481 0.0
C249 C 0.59516 0.0632 0.88457 0.0
O250 O 0.46423 0.94877 0.96834 0.0
O251 O 0.45442 0.94702 0.88532 0.0
O252 O 0.54096 0.01755 0.01123 0.0
O253 O 0.54513 0.02019 0.09422 0.0
O254 O 0.41075 0.89353 0.04612 0.0
O255 O 0.43964 0.93211 0.12656 0.0
O256 O 0.59119 0.07136 0.93152 0.0
O257 O 0.56581 0.02984 0.8522 0.0
H258 H 0.48023 0.03127 0.16382 0.0
H259 H 0.40228 -0.00554 0.00842 0.0
H260 H 0.56048 0.83416 0.0375 0.0
H261 H 0.61169 0.92551 0.18893 0.0
H262 H 0.38285 0.03368 0.80121 0.0
H263 H 0.46114 0.1417 0.93295 0.0
H264 H 0.66145 0.94231 0.93419 0.0
H265 H 0.54825 0.86033 0.80737 0.0
H266 H 0.43813 0.07864 0.19106 0.0
H267 H 0.3576 0.04037 0.03231 0.0
Cd268 Cd 0.97028 0.44478 0.05143 0.0
Cd269 Cd 0.02723 0.50756 0.92888 0.0
C270 C 0.04624 0.41293 0.10416 0.0
N271 N 0.02529 0.41246 0.0553 0.0
C272 C 0.05799 0.3626 0.0169 0.0
C273 C 0.07796 0.36063 0.06695 0.0
C274 C 0.07294 0.38719 0.11094 0.0
C275 C 0.03148 0.3889 0.01192 0.0
H276 H 0.04037 0.43171 0.13793 0.0
H277 H 0.01432 0.38892 0.97355 0.0
C278 C 0.94819 0.42641 0.91448 0.0
C279 C 0.93506 0.52984 0.91652 0.0
C280 C 0.90805 0.55549 0.91225 0.0
C281 C 0.92736 0.60118 0.92805 0.0
C282 C 0.97352 0.61956 0.95187 0.0
C283 C -0.00074 0.59246 0.95624 0.0
N284 N 0.9799 0.54854 0.93764 0.0
H285 H 0.92015 0.49513 0.90103 0.0
H286 H 0.03518 0.60672 0.9715 0.0
C287 C 0.05228 0.42076 0.88911 0.0
N288 N 0.06656 0.45788 0.92793 0.0
C289 C 0.13114 0.44134 0.96445 0.0
C290 C 0.11713 0.40276 0.92489 0.0
C291 C 0.07685 0.39244 0.88719 0.0
C292 C 0.10511 0.46845 0.96537 0.0
H293 H 0.0222 0.41331 0.85894 0.0
H294 H 0.116 0.49835 -0.00446 0.0
C295 C 0.04986 0.53095 0.07309 0.0
C296 C 0.91406 0.38444 0.09348 0.0
N297 N 0.93315 0.49591 0.05583 0.0
C298 C 0.94282 0.52672 0.10114 0.0
C299 C 0.91974 0.55628 0.10526 0.0
C300 C 0.88631 0.55381 0.0625 0.0
C301 C 0.87675 0.52173 0.01637 0.0
C302 C 0.90075 0.49284 0.01386 0.0
C303 C 0.08024 0.56604 0.8818 0.0
O304 O 0.96835 0.44444 0.96169 0.0
O305 O 0.96276 0.44441 0.87985 0.0
O306 O 0.03686 0.51618 0.02375 0.0
O307 O 0.03168 0.50778 0.10179 0.0
O308 O 0.90611 0.38059 0.04422 0.0
O309 O 0.94703 0.41685 0.122 0.0
O310 O 0.09355 0.56411 0.92857 0.0
O311 O 0.04234 0.53897 0.85552 0.0
H312 H 0.96775 0.52779 0.13455 0.0
H313 H 0.89293 0.46741 0.97876 0.0
H314 H 0.06076 0.34223 0.98216 0.0
H315 H 0.08816 0.3868 0.15021 0.0
H316 H 0.87247 0.53947 0.89502 0.0
H317 H 0.99022 0.65451 0.96412 0.0
H318 H 0.16187 0.45044 -0.00563 0.0
H319 H 0.06515 0.36342 0.85549 0.0
H320 H 0.92706 0.58006 0.14187 0.0
H321 H 0.85032 0.51843 0.98319 0.0
Cd322 Cd 0.45674 0.44152 0.04942 0.0
Cd323 Cd 0.53915 0.51493 0.93497 0.0
C324 C 0.52958 0.40826 0.09364 0.0
N325 N 0.50296 0.40291 0.04615 0.0
C326 C 0.53633 0.35569 0.00459 0.0
C327 C 0.56544 0.36258 0.05289 0.0
C328 C 0.56199 0.38899 0.09779 0.0
C329 C 0.50516 0.37709 0.00193 0.0
H330 H 0.52549 0.42752 0.12831 0.0
H331 H 0.4824 0.37253 0.96514 0.0
C332 C 0.45038 0.42865 0.9088 0.0
C333 C 0.44829 0.53292 0.93641 0.0
C334 C 0.41951 0.55607 0.93051 0.0
C335 C 0.43736 0.6012 0.93903 0.0
C336 C 0.48338 0.62285 0.96087 0.0
C337 C 0.51126 0.59807 0.96677 0.0
N338 N 0.49331 0.55392 0.95171 0.0
H339 H 0.43415 0.49831 0.9244 0.0
H340 H 0.54732 0.61384 0.97835 0.0
C341 C 0.55704 0.4292 0.89982 0.0
N342 N 0.57276 0.46414 0.94141 0.0
C343 C 0.62816 0.43752 0.98043 0.0
C344 C 0.61229 0.40129 0.93757 0.0
C345 C 0.57556 0.39672 0.89775 0.0
C346 C 0.60726 0.46882 0.98183 0.0
H347 H 0.5317 0.42743 0.86663 0.0
H348 H 0.61979 0.49768 0.0137 0.0
C349 C 0.55407 0.51677 0.07564 0.0
C350 C 0.39994 0.39517 0.10742 0.0
N351 N 0.42965 0.49598 0.04049 0.0
C352 C 0.45286 0.53715 0.06955 0.0
C353 C 0.43311 0.56889 0.07035 0.0
C354 C 0.38873 0.5578 0.04172 0.0
C355 C 0.36668 0.51567 0.0093 0.0
C356 C 0.38791 0.48488 0.00959 0.0
C357 C 0.59241 0.56508 0.87493 0.0
O358 O 0.45889 0.43996 0.95831 0.0
O359 O 0.47323 0.45292 0.88412 0.0
O360 O 0.54219 0.51093 0.02634 0.0
O361 O 0.52736 0.4953 0.09918 0.0
O362 O 0.39261 0.38162 0.05792 0.0
O363 O 0.43236 0.43051 0.12879 0.0
O364 O 0.60341 0.57546 0.92484 0.0
O365 O 0.55741 0.53195 0.85375 0.0
H366 H 0.48546 0.54503 0.09493 0.0
H367 H 0.37057 0.45169 0.98699 0.0
H368 H 0.53742 0.33392 0.96997 0.0
H369 H 0.58299 0.3932 0.13601 0.0
H370 H 0.38402 0.5385 0.91367 0.0
H371 H 0.49811 0.65786 0.96733 0.0
H372 H 0.65746 0.44247 0.0108 0.0
H373 H 0.56375 0.37019 0.86294 0.0
H374 H 0.45111 0.6005 0.09697 0.0
H375 H 0.3327 0.50607 0.98596 0.0
Cd376 Cd 0.97968 0.46265 0.56674 0.0
Cd377 Cd 0.03174 0.50653 0.41597 0.0
C378 C 0.06589 0.44073 0.62987 0.0
N379 N 0.03121 0.42368 0.5865 0.0
C380 C 0.05159 0.35918 0.56809 0.0
C381 C 0.08718 0.37555 0.61331 0.0
C382 C 0.09435 0.4175 0.64366 0.0
C383 C 0.02405 0.38375 0.55545 0.0
H384 H 0.07124 0.47227 0.65453 0.0
H385 H 0.99622 0.37039 0.5213 0.0
C386 C 0.9439 0.43499 0.42622 0.0
C387 C 0.94393 0.52336 0.34697 0.0
C388 C 0.91321 0.54411 0.33205 0.0
C389 C 0.91765 0.58558 0.36147 0.0
C390 C 0.95335 0.60422 0.40658 0.0
C391 C 0.98306 0.58205 0.42047 0.0
N392 N 0.97819 0.54233 0.39066 0.0
H393 H 0.94032 0.49199 0.32324 0.0
H394 H 0.01049 0.59693 0.45494 0.0
C395 C 0.05073 0.42392 0.34557 0.0
N396 N 0.06374 0.4503 0.39471 0.0
C397 C 0.12383 0.42228 0.41616 0.0
C398 C 0.11218 0.39562 0.36509 0.0
C399 C 0.07427 0.39625 0.33008 0.0
C400 C 0.09929 0.44946 0.43005 0.0
H401 H 0.02292 0.42539 0.31762 0.0
H402 H 0.10983 0.47125 0.46861 0.0
C403 C 0.06816 0.536 0.55904 0.0
C404 C 0.9129 0.4048 0.59917 0.0
N405 N 0.94357 0.51597 0.58687 0.0
C406 C 0.9632 0.55426 0.62402 0.0
C407 C 0.9381 0.58105 0.63756 0.0
C408 C 0.89201 0.56849 0.61313 0.0
C409 C 0.87316 0.52908 0.5743 0.0
C410 C 0.89943 0.50345 0.56188 0.0
C411 C 0.1018 0.5632 0.38596 0.0
O412 O 0.96816 0.45281 0.47221 0.0
O413 O 0.9594 0.4464 0.38831 0.0
O414 O 0.04567 0.5187 0.51203 0.0
O415 O 0.05129 0.52316 0.59557 0.0
O416 O 0.9123 0.40046 0.55071 0.0
O417 O 0.94561 0.43519 0.63179 0.0
O418 O 0.09757 0.57078 0.43286 0.0
O419 O 0.07209 0.53042 0.35309 0.0
H420 H -0.00195 0.56362 0.64429 0.0
H421 H 0.88415 0.4728 0.53281 0.0
H422 H 0.04404 0.32705 0.54345 0.0
H423 H 0.12165 0.43242 0.67826 0.0
H424 H 0.8861 0.52744 0.2976 0.0
H425 H 0.95914 0.63619 0.4305 0.0
H426 H 0.15283 0.42366 0.44467 0.0
H427 H 0.06304 0.37596 0.29059 0.0
H428 H 0.9545 0.61063 0.66823 0.0
H429 H 0.83825 0.51786 0.55347 0.0
Cd430 Cd 0.4805 0.95954 0.56154 0.0
Cd431 Cd 0.52128 0.00029 0.42207 0.0
C432 C 0.56344 0.93038 0.6055 0.0
N433 N 0.53414 0.92552 0.55989 0.0
C434 C 0.55696 0.86936 0.51644 0.0
C435 C 0.5868 0.87308 0.56309 0.0
C436 C 0.59078 0.90474 0.6078 0.0
C437 C 0.53148 0.89674 0.5155 0.0
H438 H 0.56435 0.95299 0.6405 0.0
H439 H 0.50879 0.89425 0.47971 0.0
C440 C 0.44168 0.9247 0.4223 0.0
C441 C 0.43866 0.02659 0.37217 0.0
C442 C 0.41225 0.05274 0.36612 0.0
C443 C 0.41414 0.08491 0.40921 0.0
C444 C 0.44039 0.08796 0.45829 0.0
C445 C 0.46608 0.06091 0.4626 0.0
N446 N 0.46565 0.03187 0.4196 0.0
H447 H 0.43961 0.00379 0.33842 0.0
H448 H 0.48795 0.06455 0.49971 0.0
C449 C 0.54109 0.90941 0.3841 0.0
N450 N 0.55879 0.94931 0.41822 0.0
C451 C 0.62487 0.93402 0.4517 0.0
C452 C 0.60776 0.89277 0.41661 0.0
C453 C 0.565 0.88043 0.38284 0.0
C454 C 0.5997 0.96182 0.45189 0.0
H455 H 0.50866 0.9001 0.35736 0.0
H456 H 0.61291 -0.00636 0.47876 0.0
C457 C 0.5597 0.03406 0.56078 0.0
C458 C 0.42683 0.89941 0.60511 0.0
N459 N 0.44296 0.01042 0.56344 0.0
C460 C 0.45873 0.04917 0.59972 0.0
C461 C 0.43413 0.07757 0.60077 0.0
C462 C 0.39272 0.06586 0.5644 0.0
C463 C 0.37774 0.02585 0.52705 0.0
C464 C 0.40341 -0.00147 0.52738 0.0
C465 C 0.57447 0.06478 0.38271 0.0
O466 O 0.46458 0.94641 0.46757 0.0
O467 O 0.45373 0.93775 0.38348 0.0
O468 O 0.53593 0.01221 0.5159 0.0
O469 O 0.54809 0.02175 0.60018 0.0
O470 O 0.41922 0.89616 0.55612 0.0
O471 O 0.4592 0.93213 0.63447 0.0
O472 O 0.57992 0.06692 0.4314 0.0
O473 O 0.5453 0.03064 0.35145 0.0
H474 H 0.49 0.05778 0.62846 0.0
H475 H 0.39159 0.96753 0.499 0.0
H476 H 0.55313 0.84532 0.48129 0.0
H477 H 0.61318 0.90813 0.6447 0.0
H478 H 0.3921 0.04919 0.32767 0.0
H479 H 0.44305 0.11262 0.4923 0.0
H480 H 0.6574 0.94473 0.47881 0.0
H481 H 0.55068 0.84921 0.35466 0.0
H482 H 0.44679 0.10773 0.63079 0.0
H483 H 0.34649 0.0157 0.49773 0.0
C484 C 0.1745 0.15356 0.33191 0.0
C485 C 0.16654 0.13621 0.27782 0.0
H486 H 0.15845 0.14392 0.40459 0.0
C487 C 0.13615 0.09369 0.25587 0.0
H488 H 0.19748 0.18636 0.34999 0.0
C489 C 0.11343 0.06947 0.28713 0.0
C490 C 0.12075 0.08714 0.34114 0.0
H491 H 0.12925 0.07943 0.21433 0.0
H492 H 0.08959 0.03709 0.26876 0.0
C493 C 0.15204 0.12926 0.36324 0.0
C494 C 0.90666 0.17246 0.34683 0.0
C495 C 0.87235 0.18124 0.36755 0.0
H496 H 0.95822 0.14442 0.35509 0.0
C497 C 0.86818 0.17522 0.41743 0.0
H498 H 0.91075 0.17748 0.3087 0.0
C499 C 0.89547 0.15625 0.44402 0.0
C500 C 0.92703 0.14401 0.42083 0.0
H501 H 0.84204 0.18237 0.43414 0.0
H502 H 0.88988 0.14836 0.48048 0.0
C503 C 0.93408 0.15416 0.37352 0.0
C504 C 0.85393 0.82814 0.34924 0.0
C505 C 0.83942 0.83116 0.29776 0.0
H506 H 0.89947 0.8604 0.42409 0.0
C507 C 0.85348 0.87123 0.28464 0.0
H508 H 0.84272 0.79746 0.3603 0.0
C509 C 0.88557 0.90689 0.3209 0.0
C510 C 0.90397 0.90263 0.37044 0.0
H511 H 0.84153 0.87442 0.24558 0.0
H512 H 0.89803 0.93704 0.30904 0.0
C513 C 0.88615 0.86398 0.3857 0.0
C514 C 0.17395 0.83096 0.40858 0.0
C515 C 0.18822 0.84522 0.36592 0.0
H516 H 0.13973 0.84183 0.4692 0.0
C517 C 0.18682 0.88502 0.35686 0.0
H518 H 0.17496 0.80008 0.41578 0.0
C519 C 0.1688 0.90939 0.38847 0.0
C520 C 0.15107 0.89349 0.42839 0.0
H521 H 0.198 0.89641 0.32419 0.0
H522 H 0.16524 0.93886 0.37903 0.0
C523 C 0.15445 0.85477 0.43931 0.0
C524 C 0.10384 0.77353 0.58735 0.0
C525 C 0.14574 0.80112 0.61907 0.0
H526 H 0.0428 0.77024 0.53714 0.0
C527 C 0.16303 0.84429 0.61527 0.0
H528 H 0.09055 0.73975 0.5889 0.0
C529 C 0.13639 0.8612 0.58479 0.0
C530 C 0.09223 0.83512 0.55855 0.0
H531 H 0.19585 0.86575 0.63847 0.0
H532 H 0.14845 0.89572 0.58614 0.0
C533 C 0.07698 0.7906 0.55705 0.0
C534 C 0.12109 0.10076 0.70427 0.0
C535 C 0.15016 0.13316 0.68706 0.0
H536 H 0.068 0.0394 0.68255 0.0
C537 C 0.14924 0.12798 0.63373 0.0
H538 H 0.12169 0.10436 0.74551 0.0
C539 C 0.11845 0.09106 0.59748 0.0
C540 C 0.08826 0.05896 0.61439 0.0
H541 H 0.17076 0.15338 0.61992 0.0
H542 H 0.11726 0.08846 0.55624 0.0
C543 C 0.09063 0.06367 0.66824 0.0
C544 C 0.83886 0.09166 0.64267 0.0
C545 C 0.81873 0.11897 0.62208 0.0
H546 H 0.87168 0.04543 0.62734 0.0
C547 C 0.81292 0.11866 0.56865 0.0
H548 H 0.84302 0.09111 0.68363 0.0
C549 C 0.82936 0.09256 0.53645 0.0
C550 C 0.85122 0.06685 0.55792 0.0
H551 H 0.79705 0.13952 0.55226 0.0
H552 H 0.82632 0.0934 0.4957 0.0
C553 C 0.85486 0.06554 0.61061 0.0
C554 C 0.85885 0.86387 0.71948 0.0
C555 C 0.83005 0.82053 0.69913 0.0
H556 H 0.90204 0.92119 0.70401 0.0
C557 C 0.82121 0.80246 0.64504 0.0
H558 H 0.86631 0.87876 0.76091 0.0
C559 C 0.8414 0.82682 0.61225 0.0
C560 C 0.87127 0.86978 0.63281 0.0
H561 H 0.79936 0.76906 0.62808 0.0
H562 H 0.83455 0.81153 0.57103 0.0
C563 C 0.87925 0.88818 0.68675 0.0
C564 C 0.32871 0.11495 0.19844 0.0
C565 C 0.31031 0.13778 0.16632 0.0
H566 H 0.36768 0.07348 0.20743 0.0
C567 C 0.31833 0.13494 0.11582 0.0
H568 H 0.32311 0.11584 0.2374 0.0
C569 C 0.34488 0.11082 0.09863 0.0
C570 C 0.3641 0.08871 0.13138 0.0
H571 H 0.30519 0.15237 0.09008 0.0
H572 H 0.35122 0.11046 0.06008 0.0
C573 C 0.35487 0.09079 0.18129 0.0
C574 C 0.81753 0.29553 0.11354 0.0
C575 C 0.8337 0.29543 0.16576 0.0
H576 H 0.83078 0.32372 0.04915 0.0
C577 C 0.87705 0.32318 0.193 0.0
H578 H 0.7841 0.27439 0.09185 0.0
C579 C 0.9032 0.35182 0.16907 0.0
C580 C 0.88675 0.35268 0.11724 0.0
H581 H 0.89012 0.32412 0.2335 0.0
H582 H 0.93616 0.37364 0.19144 0.0
C583 C 0.8441 0.32371 0.08922 0.0
C584 C 0.66479 0.80283 0.11643 0.0
C585 C 0.67355 0.80038 0.16913 0.0
H586 H 0.63294 0.82857 0.05836 0.0
C587 C 0.65515 0.82329 0.20367 0.0
H588 H 0.67831 0.78589 0.0885 0.0
C589 C 0.62883 0.84739 0.18641 0.0
C590 C 0.61983 0.85004 0.13381 0.0
H591 H 0.66061 0.82238 0.24453 0.0
H592 H 0.61475 0.86326 0.21461 0.0
C593 C 0.63839 0.82726 0.09906 0.0
C594 C 0.13227 0.6448 0.09182 0.0
C595 C 0.14314 0.65887 0.14644 0.0
H596 H 0.09436 0.59201 0.02523 0.0
C597 C 0.12398 0.63091 0.17633 0.0
H598 H 0.1476 0.66585 0.06839 0.0
C599 C 0.09428 0.58928 0.15216 0.0
C600 C 0.08305 0.57464 0.09745 0.0
H601 H 0.13248 0.64116 0.2187 0.0
H602 H 0.08015 0.56862 0.17662 0.0
C603 C 0.10229 0.60267 0.06736 0.0
C604 C 0.3167 0.87873 0.859 0.0
C605 C 0.31106 0.83529 0.85994 0.0
H606 H 0.36291 0.94429 0.8786 0.0
C607 C 0.34531 0.82596 0.89084 0.0
H608 H 0.29096 0.88671 0.83508 0.0
C609 C 0.38627 0.85902 0.91645 0.0
C610 C 0.39353 0.90159 0.9106 0.0
H611 H 0.34149 0.79276 0.8925 0.0
H612 H 0.41341 0.8506 0.93683 0.0
C613 C 0.35788 0.91158 0.88365 0.0
C614 C 0.14989 0.3015 0.89993 0.0
C615 C 0.19574 0.31925 0.90106 0.0
H616 H 0.08903 0.31386 0.90578 0.0
C617 C 0.21658 0.36477 0.91563 0.0
H618 H 0.13269 0.26658 0.88843 0.0
C619 C 0.19151 0.39196 0.92605 0.0
C620 C 0.14496 0.37416 0.92123 0.0
H621 H 0.25171 0.37943 0.91617 0.0
H622 H 0.20807 0.42692 0.93486 0.0
C623 C 0.1247 0.32861 0.90926 0.0
C624 C 0.68419 0.16285 0.87338 0.0
C625 C 0.69565 0.14624 0.82761 0.0
H626 H 0.6432 0.14905 0.92784 0.0
C627 C 0.67747 0.10137 0.80437 0.0
H628 H 0.69796 0.19731 0.89222 0.0
C629 C 0.6456 0.07415 0.82402 0.0
C630 C 0.63211 0.09122 0.86778 0.0
H631 H 0.6857 0.08759 0.76911 0.0
H632 H 0.63062 0.03995 0.8041 0.0
C633 C 0.65286 0.13536 0.89365 0.0
C634 C 0.84025 0.63857 0.85454 0.0
C635 C 0.84819 0.67997 0.88589 0.0
H636 H 0.86004 0.58292 0.84139 0.0
C637 C 0.88281 0.69625 0.93161 0.0
H638 H 0.81477 0.62577 0.81804 0.0
C639 C 0.90834 0.67063 0.94631 0.0
C640 C 0.90014 0.62885 0.91476 0.0
H641 H 0.88983 0.72838 0.95598 0.0
H642 H 0.93427 0.68349 0.98233 0.0
C643 C 0.86619 0.61373 0.86826 0.0
C644 C 0.15588 0.29481 0.05628 0.0
C645 C 0.14384 0.268 0.09043 0.0
H646 H 0.1439 0.34531 0.0216 0.0
C647 C 0.10949 0.27106 0.11535 0.0
H648 H 0.18301 0.29365 0.0376 0.0
C649 C 0.08825 0.30111 0.10743 0.0
C650 C 0.10034 0.32828 0.07369 0.0
H651 H 0.1006 0.25181 0.14324 0.0
H652 H 0.06256 0.30338 0.12815 0.0
C653 C 0.13373 0.32434 0.04732 0.0
C654 C 0.18021 0.65068 0.86397 0.0
C655 C 0.16129 0.6652 0.82228 0.0
H656 H 0.16943 0.60731 0.91434 0.0
C657 C 0.11486 0.64699 0.80019 0.0
H658 H 0.21594 0.66372 0.88166 0.0
C659 C 0.08811 0.61398 0.81888 0.0
C660 C 0.10757 0.59933 0.8601 0.0
H661 H 0.09951 0.65717 0.76759 0.0
H662 H 0.05237 0.60011 0.80136 0.0
C663 C 0.15366 0.61816 0.88263 0.0
C664 C 0.35073 0.17152 0.8651 0.0
C665 C 0.33279 0.16534 0.81125 0.0
H666 H 0.39083 0.15338 0.92442 0.0
C667 C 0.34345 0.13521 0.77595 0.0
H668 H 0.34369 0.1945 0.89361 0.0
C669 C 0.3706 0.11204 0.79337 0.0
C670 C 0.38836 0.11757 0.84703 0.0
H671 H 0.33095 0.12933 0.7341 0.0
H672 H 0.37822 0.09015 0.76412 0.0
C673 C 0.37815 0.14802 0.88272 0.0
C674 C 0.83904 0.34588 0.83594 0.0
C675 C 0.84395 0.30694 0.84518 0.0
H676 H 0.86937 0.41492 0.85101 0.0
C677 C 0.87837 0.30869 0.8864 0.0
H678 H 0.81243 0.34564 0.80496 0.0
C679 C 0.9104 0.34895 0.91407 0.0
C680 C 0.9086 0.38711 0.89939 0.0
H681 H 0.88221 0.27905 0.89482 0.0
H682 H 0.93843 0.34966 0.94343 0.0
C683 C 0.87157 0.38564 0.86225 0.0
C684 C 0.70821 0.85945 0.8445 0.0
C685 C 0.68655 0.81526 0.81908 0.0
H686 H 0.70131 0.91998 0.87805 0.0
C687 C 0.63971 0.79764 0.81148 0.0
H688 H 0.74416 0.87417 0.8499 0.0
C689 C 0.61496 0.8235 0.82863 0.0
C690 C 0.63611 0.86829 0.85282 0.0
H691 H 0.62205 0.76365 0.79183 0.0
H692 H 0.57908 0.80813 0.8226 0.0
C693 C 0.68336 0.88568 0.86074 0.0
C694 C 0.79601 0.59489 0.09948 0.0
C695 C 0.80821 0.63647 0.08907 0.0
H696 H 0.8121 0.53674 0.10008 0.0
C697 C 0.84495 0.64971 0.06647 0.0
H698 H 0.76857 0.58409 0.11804 0.0
C699 C 0.86968 0.62216 0.05582 0.0
C700 C 0.85827 0.58145 0.06834 0.0
H701 H 0.85536 0.68176 0.05864 0.0
H702 H 0.89855 0.63312 0.03958 0.0
C703 C 0.82103 0.56785 0.08963 0.0
C704 C 0.31085 0.80588 0.10033 0.0
C705 C 0.30338 0.82171 0.1491 0.0
H706 H 0.35019 0.81893 0.04409 0.0
C707 C 0.32738 0.86506 0.17653 0.0
H708 H 0.29262 0.77259 0.07832 0.0
C709 C 0.36083 0.89101 0.15763 0.0
C710 C 0.37024 0.87432 0.11057 0.0
H711 H 0.32244 0.87819 0.21426 0.0
H712 H 0.38014 0.9238 0.18063 0.0
C713 C 0.34387 0.83221 0.08091 0.0
C714 C 0.68337 0.10318 0.10709 0.0
C715 C 0.68029 0.14007 0.13919 0.0
H716 H 0.64681 0.0405 0.05421 0.0
C717 C 0.63831 0.14569 0.13462 0.0
H718 H 0.71533 0.09813 0.10961 0.0
C719 C 0.59957 0.11318 0.10289 0.0
C720 C 0.60205 0.07456 0.07471 0.0
H721 H 0.63479 0.17372 0.15865 0.0
H722 H 0.56724 0.11671 0.10371 0.0
C723 C 0.64432 0.07047 0.07504 0.0
C724 C 0.63129 0.59889 0.75664 0.0
C725 C 0.66421 0.64013 0.7792 0.0
H726 H 0.58292 0.54313 0.76885 0.0
C727 C 0.67445 0.65593 0.83391 0.0
H728 H 0.62252 0.58572 0.71468 0.0
C729 C 0.65197 0.63132 0.86518 0.0
C730 C 0.61827 0.59049 0.84246 0.0
H731 H 0.69941 0.68769 0.85258 0.0
H732 H 0.66035 0.64471 0.90705 0.0
C733 C 0.60851 0.5745 0.78778 0.0
C734 C 0.36634 0.62311 0.82897 0.0
C735 C 0.36345 0.66292 0.85228 0.0
H736 H 0.39267 0.57292 0.83851 0.0
C737 C 0.38405 0.68266 0.90537 0.0
H738 H 0.35063 0.60735 0.78807 0.0
C739 C 0.40794 0.6625 0.93487 0.0
C740 C 0.4107 0.62257 0.91117 0.0
H741 H 0.38175 0.71345 0.92385 0.0
H742 H 0.42411 0.67783 0.97573 0.0
C743 C 0.38994 0.60322 0.85805 0.0
C744 C 0.33924 0.35591 0.82427 0.0
C745 C 0.3512 0.32116 0.80076 0.0
H746 H 0.36245 0.41809 0.8793 0.0
C747 C 0.3939 0.31925 0.81902 0.0
H748 H 0.30649 0.358 0.81014 0.0
C749 C 0.42547 0.35324 0.85807 0.0
C750 C 0.41438 0.3891 0.87937 0.0
H751 H 0.40344 0.29233 0.8017 0.0
H752 H 0.45926 0.35267 0.86942 0.0
C753 C 0.37091 0.38996 0.86365 0.0
C754 C 0.69833 0.37068 0.88256 0.0
C755 C 0.67316 0.3273 0.85675 0.0
H756 H 0.69866 0.42869 0.93217 0.0
C757 C 0.63379 0.30573 0.87066 0.0
H758 H 0.7295 0.38746 0.87324 0.0
C759 C 0.61698 0.32888 0.90572 0.0
C760 C 0.63904 0.37383 0.92601 0.0
H761 H 0.61473 0.27175 0.85233 0.0
H762 H 0.58426 0.31292 0.91211 0.0
C763 C 0.68133 0.39393 0.91727 0.0
C764 C 0.66603 0.34442 0.11448 0.0
C765 C 0.64518 0.30508 0.12689 0.0
H766 H 0.65577 0.39354 0.07683 0.0
C767 C 0.60088 0.27951 0.10078 0.0
H768 H 0.70064 0.36404 0.13344 0.0
C769 C 0.57585 0.29575 0.06721 0.0
C770 C 0.59503 0.33772 0.06052 0.0
H771 H 0.5847 0.24849 0.10902 0.0
H772 H 0.54021 0.27802 0.052 0.0
C773 C 0.6409 0.36077 0.08121 0.0
C774 C 0.64594 0.6246 0.12794 0.0
C775 C 0.66052 0.62175 0.17948 0.0
H776 H 0.60022 0.59229 0.05325 0.0
C777 C 0.64641 0.5817 0.19274 0.0
H778 H 0.65709 0.65524 0.11677 0.0
C779 C 0.61437 0.54591 0.1565 0.0
C780 C 0.59604 0.54998 0.10683 0.0
H781 H 0.65828 0.57865 0.23188 0.0
H782 H 0.60184 0.51581 0.16845 0.0
C783 C 0.61375 0.58869 0.09157 0.0
C784 C 0.36638 0.65736 0.10165 0.0
C785 C 0.3257 0.63762 0.11418 0.0
H786 H 0.41746 0.64729 0.06453 0.0
C787 C 0.30152 0.59344 0.09242 0.0
H788 H 0.38484 0.69187 0.11706 0.0
C789 C 0.32024 0.56796 0.06335 0.0
C790 C 0.36322 0.58654 0.05519 0.0
H791 H 0.2696 0.57788 0.10097 0.0
H792 H 0.30267 0.53313 0.0518 0.0
C793 C 0.38482 0.63196 0.07152 0.0
C794 C 0.32316 0.30183 0.14864 0.0
C795 C 0.33178 0.31847 0.20297 0.0
H796 H 0.33727 0.3131 0.07574 0.0
C797 C 0.36091 0.36145 0.22513 0.0
H798 H 0.3011 0.26871 0.13042 0.0
C799 C 0.382 0.38681 0.1938 0.0
C800 C 0.3742 0.36979 0.13957 0.0
H801 H 0.36818 0.37519 0.26684 0.0
H802 H 0.4051 0.41949 0.2123 0.0
C803 C 0.34392 0.32726 0.11725 0.0
C804 C 0.85634 0.6662 0.66237 0.0
C805 C 0.81091 0.64628 0.66173 0.0
H806 H 0.91688 0.6582 0.64641 0.0
C807 C 0.79182 0.6008 0.64387 0.0
H808 H 0.87209 0.70122 0.67641 0.0
C809 C 0.81779 0.57575 0.62774 0.0
C810 C 0.86365 0.5955 0.6287 0.0
H811 H 0.75721 0.58443 0.64412 0.0
H812 H 0.80208 0.54068 0.61605 0.0
C813 C 0.8822 0.64133 0.64572 0.0
C814 C 0.38706 0.83197 0.69828 0.0
C815 C 0.3453 0.80315 0.66732 0.0
H816 H 0.44547 0.8861 0.70296 0.0
C817 C 0.3313 0.80514 0.61553 0.0
H818 H 0.39819 0.83134 0.73868 0.0
C819 C 0.35834 0.83613 0.59508 0.0
C820 C 0.39932 0.86608 0.62655 0.0
H821 H 0.29913 0.78321 0.59114 0.0
H822 H 0.34662 0.83729 0.55504 0.0
C823 C 0.41377 0.86356 0.67813 0.0
C824 C 0.15255 0.29458 0.6122 0.0
C825 C 0.16841 0.29879 0.66608 0.0
H826 H 0.11506 0.31523 0.55302 0.0
C827 C 0.15694 0.32816 0.7015 0.0
H828 H 0.16039 0.27237 0.58356 0.0
C829 C 0.13097 0.35241 0.68421 0.0
C830 C 0.11521 0.34874 0.63057 0.0
H831 H 0.16793 0.33266 0.74336 0.0
H832 H 0.12266 0.37366 0.71348 0.0
C833 C 0.12624 0.31911 0.5947 0.0
C834 C 0.67009 0.11705 0.62618 0.0
C835 C 0.66017 0.15497 0.62192 0.0
H836 H 0.6447 0.04748 0.60869 0.0
C837 C 0.62254 0.15205 0.5843 0.0
H838 H 0.69954 0.11842 0.65397 0.0
C839 C 0.59165 0.11107 0.55724 0.0
C840 C 0.59824 0.07335 0.5685 0.0
H841 H 0.61479 0.18095 0.57956 0.0
H842 H 0.56059 0.10928 0.53237 0.0
C843 C 0.63895 0.07638 0.60009 0.0
C844 C 0.85104 0.32701 0.38814 0.0
C845 C 0.81456 0.33849 0.36626 0.0
H846 H 0.9211 0.34942 0.42653 0.0
C847 C 0.81931 0.38275 0.37353 0.0
H848 H 0.84824 0.29313 0.38278 0.0
C849 C 0.86123 0.41483 0.39747 0.0
C850 C 0.89846 0.40306 0.41568 0.0
H851 H 0.79191 0.39246 0.35645 0.0
H852 H 0.86529 0.44865 0.39858 0.0
C853 C 0.89266 0.35912 0.41315 0.0
C854 C 0.70597 0.8539 0.40412 0.0
C855 C 0.68536 0.80844 0.39227 0.0
H856 H 0.69753 0.91603 0.42033 0.0
C857 C 0.64028 0.79098 0.39447 0.0
H858 H 0.74055 0.86832 0.40229 0.0
C859 C 0.61546 0.8184 0.40472 0.0
C860 C 0.63527 0.86382 0.41308 0.0
H861 H 0.62344 0.75605 0.38535 0.0
H862 H 0.58036 0.80393 0.4044 0.0
C863 C 0.68122 0.88127 0.4144 0.0
C864 C 0.19338 0.66292 0.37889 0.0
C865 C 0.2029 0.64802 0.33108 0.0
H866 H 0.15389 0.64727 0.43429 0.0
C867 C 0.18293 0.60386 0.30489 0.0
H868 H 0.20849 0.69687 0.39983 0.0
C869 C 0.15096 0.57591 0.3238 0.0
C870 C 0.1392 0.59148 0.36974 0.0
H871 H 0.1894 0.59159 0.26775 0.0
H872 H 0.13434 0.54246 0.3015 0.0
C873 C 0.16204 0.63468 0.39841 0.0
C874 C 0.34708 0.16105 0.42771 0.0
C875 C 0.35321 0.1813 0.38633 0.0
H876 H 0.36202 0.11433 0.46754 0.0
C877 C 0.37926 0.16982 0.353 0.0
H878 H 0.32622 0.16874 0.4531 0.0
C879 C 0.39853 0.13827 0.36035 0.0
C880 C 0.39271 0.1179 0.40172 0.0
H881 H 0.38322 0.18399 0.31975 0.0
H882 H 0.41807 0.12983 0.33358 0.0
C883 C 0.36734 0.12997 0.43582 0.0
C884 C 0.61227 0.76915 0.56499 0.0
C885 C 0.65831 0.78587 0.58914 0.0
H886 H 0.55335 0.78421 0.53714 0.0
C887 C 0.68153 0.83079 0.59795 0.0
H888 H 0.59358 0.73474 0.55806 0.0
C889 C 0.65851 0.85898 0.58719 0.0
C890 C 0.61203 0.84269 0.56635 0.0
H891 H 0.71709 0.84468 0.61648 0.0
H892 H 0.67673 0.89371 0.59706 0.0
C893 C 0.58931 0.79742 0.55326 0.0
C894 C 0.6178 0.13482 0.29294 0.0
C895 C 0.65224 0.16991 0.3288 0.0
H896 H 0.56666 0.07303 0.28186 0.0
C897 C 0.65971 0.17128 0.38226 0.0
H898 H 0.61247 0.13279 0.25127 0.0
C899 C 0.63355 0.13742 0.39979 0.0
C900 C 0.60039 0.10118 0.36386 0.0
H901 H 0.68659 0.19792 0.41022 0.0
H902 H 0.64022 0.13909 0.44138 0.0
C903 C 0.59216 0.10045 0.31033 0.0
C904 C 0.84694 0.66168 0.36291 0.0
C905 C 0.82886 0.65581 0.30919 0.0
H906 H 0.88831 0.64441 0.42171 0.0
C907 C 0.83953 0.62605 0.27346 0.0
H908 H 0.83974 0.68429 0.39174 0.0
C909 C 0.86766 0.60351 0.29044 0.0
C910 C 0.88638 0.60949 0.34405 0.0
H911 H 0.82645 0.62026 0.23173 0.0
H912 H 0.87551 0.58208 0.26092 0.0
C913 C 0.8753 0.63895 0.38006 0.0
C914 C 0.33163 0.8433 0.35476 0.0
C915 C 0.34278 0.80527 0.35244 0.0
H916 H 0.35562 0.91269 0.38106 0.0
C917 C 0.38086 0.8061 0.38749 0.0
H918 H 0.30166 0.84323 0.32907 0.0
C919 C 0.41124 0.84599 0.41827 0.0
C920 C 0.4036 0.88481 0.41341 0.0
H921 H 0.38946 0.77691 0.38719 0.0
H922 H 0.44268 0.84643 0.44059 0.0
C923 C 0.3622 0.88303 0.3848 0.0
C924 C 0.17058 0.33733 0.27859 0.0
C925 C 0.19181 0.31743 0.3124 0.0
H926 H 0.13045 0.37756 0.26827 0.0
C927 C 0.18759 0.32434 0.36455 0.0
H928 H 0.17308 0.33324 0.23822 0.0
C929 C 0.16212 0.34965 0.38187 0.0
C930 C 0.14017 0.36889 0.34758 0.0
H931 H 0.20304 0.30936 0.39171 0.0
H932 H 0.15885 0.35325 0.42191 0.0
C933 C 0.14548 0.36262 0.29583 0.0
C934 C 0.29116 0.10194 0.56603 0.0
C935 C 0.31102 0.14748 0.58118 0.0
H936 H 0.30124 0.04059 0.54961 0.0
C937 C 0.35747 0.16621 0.58608 0.0
H938 H 0.25559 0.08656 0.56263 0.0
C939 C 0.3839 0.13985 0.57938 0.0
C940 C 0.36438 0.09415 0.56691 0.0
H941 H 0.3739 0.20122 0.59823 0.0
H942 H 0.41975 0.1553 0.5849 0.0
C943 C 0.31748 0.07559 0.55882 0.0
C944 C 0.84673 0.35393 0.68896 0.0
C945 C 0.81061 0.32056 0.65337 0.0
H946 H 0.90798 0.40615 0.69967 0.0
C947 C 0.80708 0.3154 0.59951 0.0
H948 H 0.8506 0.35741 0.73072 0.0
C949 C 0.83989 0.34352 0.58143 0.0
C950 C 0.87698 0.37619 0.61725 0.0
H951 H 0.77964 0.28921 0.57169 0.0
H952 H 0.83678 0.33907 0.53964 0.0
C953 C 0.87976 0.38142 0.67112 0.0
C954 C 0.18993 0.59305 0.6252 0.0
C955 C 0.19391 0.63657 0.62683 0.0
H956 H 0.14585 0.5265 0.60183 0.0
C957 C 0.15887 0.64573 0.59722 0.0
H958 H 0.21629 0.58525 0.64824 0.0
C959 C 0.11889 0.61203 0.56978 0.0
C960 C 0.11336 0.56897 0.57258 0.0
H961 H 0.16139 0.67908 0.59781 0.0
H962 H 0.09111 0.62002 0.55016 0.0
C963 C 0.14968 0.55952 0.59881 0.0
loop_
_geom_bond_atom_site_label_1
_geom_bond_atom_site_label_2
_geom_bond_distance
_geom_bond_site_symmetry_2
_ccdc_geom_bond_type
Dy0 O4 2.398 . S
Dy0 O5 2.491 . S
Dy0 O6 2.403 . S
Dy0 O7 2.664 . S
Dy0 O11 2.326 . S
Dy0 O15 2.310 . S
Dy0 O16 2.351 . S
C1 O12 1.185 . S
C1 O13 1.355 . S
C2 O4 1.185 . S
C2 O5 1.355 . S
Dy3 O7 2.310 . S
Dy3 O10 2.351 . S
Dy3 O12 2.398 . S
Dy3 O13 2.491 . S
Dy3 O14 2.403 . S
Dy3 O15 2.664 . S
Dy3 O17 2.326 . S
O4 Dy0 2.398 . S
O4 C2 1.185 . S
O5 Dy0 2.491 . S
O5 C2 1.355 . S
O6 Dy0 2.403 . S
O6 C8 1.254 . S
O7 Dy0 2.664 . S
O7 Dy3 2.310 . S
O7 C8 1.268 . S
C8 O6 1.254 . S
C8 O7 1.268 . S
C9 O14 1.254 . S
C9 O15 1.268 . S
O10 Dy3 2.351 . S
O10 C18 1.249 . S
O11 Dy0 2.326 . S
O11 C18 1.267 . S
O12 C1 1.185 . S
O12 Dy3 2.398 . S
O13 C1 1.355 . S
O13 Dy3 2.491 . S
O14 Dy3 2.403 . S
O14 C9 1.254 . S
O15 Dy0 2.310 . S
O15 Dy3 2.664 . S
O15 C9 1.268 . S
O16 Dy0 2.351 . S
O16 C19 1.249 . S
O17 Dy3 2.326 . S
O17 C19 1.267 . S
C18 O10 1.249 . S
C18 O11 1.267 . S
C19 O16 1.249 . S
C19 O17 1.267 . S
Dy20 O24 2.398 . S
Dy20 O25 2.491 . S
Dy20 O26 2.403 . S
Dy20 O27 2.664 . S
Dy20 O31 2.326 . S
Dy20 O35 2.310 . S
Dy20 O36 2.351 . S
C21 O32 1.185 . S
C21 O33 1.355 . S
C22 O24 1.185 . S
C22 O25 1.355 . S
Dy23 O27 2.310 . S
Dy23 O30 2.351 . S
Dy23 O32 2.398 . S
Dy23 O33 2.491 . S
Dy23 O34 2.403 . S
Dy23 O35 2.664 . S
Dy23 O37 2.326 . S
O24 Dy20 2.398 . S
O24 C22 1.185 . S
O25 Dy20 2.491 . S
O25 C22 1.355 . S
O26 Dy20 2.403 . S
O26 C28 1.254 . S
O27 Dy20 2.664 . S
O27 Dy23 2.310 . S
O27 C28 1.268 . S
C28 O26 1.254 . S
C28 O27 1.268 . S
C29 O34 1.254 . S
C29 O35 1.268 . S
O30 Dy23 2.351 . S
O30 C38 1.249 . S
O31 Dy20 2.326 . S
O31 C38 1.267 . S
O32 C21 1.185 . S
O32 Dy23 2.398 . S
O33 C21 1.355 . S
O33 Dy23 2.491 . S
O34 Dy23 2.403 . S
O34 C29 1.254 . S
O35 Dy20 2.310 . S
O35 Dy23 2.664 . S
O35 C29 1.268 . S
O36 Dy20 2.351 . S
O36 C39 1.249 . S
O37 Dy23 2.326 . S
O37 C39 1.267 . S
C38 O30 1.249 . S
C38 O31 1.267 . S
C39 O36 1.249 . S
C39 O37 1.267 . S
Dy40 O44 2.398 . S
Dy40 O45 2.491 . S
Dy40 O46 2.403 . S
Dy40 O47 2.664 . S
Dy40 O51 2.326 . S
Dy40 O55 2.310 . S
Dy40 O56 2.351 . S
C41 O52 1.185 . S
C41 O53 1.355 . S
C42 O44 1.185 . S
C42 O45 1.355 . S
Dy43 O47 2.310 . S
Dy43 O50 2.351 . S
Dy43 O52 2.398 . S
Dy43 O53 2.491 . S
Dy43 O54 2.403 . S
Dy43 O55 2.664 . S
Dy43 O57 2.326 . S
O44 Dy40 2.398 . S
O44 C42 1.185 . S
O45 Dy40 2.491 . S
O45 C42 1.355 . S
O46 Dy40 2.403 . S
O46 C48 1.254 . S
O47 Dy40 2.664 . S
O47 Dy43 2.310 . S
O47 C48 1.268 . S
C48 O46 1.254 . S
C48 O47 1.268 . S
C49 O54 1.254 . S
C49 O55 1.268 . S
O50 Dy43 2.351 . S
O50 C58 1.249 . S
O51 Dy40 2.326 . S
O51 C58 1.267 . S
O52 C41 1.185 . S
O52 Dy43 2.398 . S
O53 C41 1.355 . S
O53 Dy43 2.491 . S
O54 Dy43 2.403 . S
O54 C49 1.254 . S
O55 Dy40 2.310 . S
O55 Dy43 2.664 . S
O55 C49 1.268 . S
O56 Dy40 2.351 . S
O56 C59 1.249 . S
O57 Dy43 2.326 . S
O57 C59 1.267 . S
C58 O50 1.249 . S
C58 O51 1.267 . S
C59 O56 1.249 . S
C59 O57 1.267 . S
Dy60 O64 2.398 . S
Dy60 O65 2.491 . S
Dy60 O66 2.403 . S
Dy60 O67 2.664 . S
Dy60 O71 2.326 . S
Dy60 O75 2.310 . S
Dy60 O76 2.351 . S
C61 O72 1.185 . S
C61 O73 1.355 . S
C62 O64 1.185 . S
C62 O65 1.355 . S
Dy63 O67 2.310 . S
Dy63 O70 2.351 . S
Dy63 O72 2.398 . S
Dy63 O73 2.491 . S
Dy63 O74 2.403 . S
Dy63 O75 2.664 . S
Dy63 O77 2.326 . S
O64 Dy60 2.398 . S
O64 C62 1.185 . S
O65 Dy60 2.491 . S
O65 C62 1.355 . S
O66 Dy60 2.403 . S
O66 C68 1.254 . S
O67 Dy60 2.664 . S
O67 Dy63 2.310 . S
O67 C68 1.268 . S
C68 O66 1.254 . S
C68 O67 1.268 . S
C69 O74 1.254 . S
C69 O75 1.268 . S
O70 Dy63 2.351 . S
O70 C78 1.249 . S
O71 Dy60 2.326 . S
O71 C78 1.267 . S
O72 C61 1.185 . S
O72 Dy63 2.398 . S
O73 C61 1.355 . S
O73 Dy63 2.491 . S
O74 Dy63 2.403 . S
O74 C69 1.254 . S
O75 Dy60 2.310 . S
O75 Dy63 2.664 . S
O75 C69 1.268 . S
O76 Dy60 2.351 . S
O76 C79 1.249 . S
O77 Dy63 2.326 . S
O77 C79 1.267 . S
C78 O70 1.249 . S
C78 O71 1.267 . S
C79 O76 1.249 . S
C79 O77 1.267 . S
Dy80 O84 2.398 . S
Dy80 O85 2.491 . S
Dy80 O86 2.403 . S
Dy80 O87 2.664 . S
Dy80 O91 2.326 . S
Dy80 O95 2.310 . S
Dy80 O96 2.351 . S
C81 O92 1.185 . S
C81 O93 1.355 . S
C82 O84 1.185 . S
C82 O85 1.355 . S
Dy83 O87 2.310 . S
Dy83 O90 2.351 . S
Dy83 O92 2.398 . S
Dy83 O93 2.491 . S
Dy83 O94 2.403 . S
Dy83 O95 2.664 . S
Dy83 O97 2.326 . S
O84 Dy80 2.398 . S
O84 C82 1.185 . S
O85 Dy80 2.491 . S
O85 C82 1.355 . S
O86 Dy80 2.403 . S
O86 C88 1.254 . S
O87 Dy80 2.664 . S
O87 Dy83 2.310 . S
O87 C88 1.268 . S
C88 O86 1.254 . S
C88 O87 1.268 . S
C89 O94 1.254 . S
C89 O95 1.268 . S
O90 Dy83 2.351 . S
O90 C98 1.249 . S
O91 Dy80 2.326 . S
O91 C98 1.267 . S
O92 C81 1.185 . S
O92 Dy83 2.398 . S
O93 C81 1.355 . S
O93 Dy83 2.491 . S
O94 Dy83 2.403 . S
O94 C89 1.254 . S
O95 Dy80 2.310 . S
O95 Dy83 2.664 . S
O95 C89 1.268 . S
O96 Dy80 2.351 . S
O96 C99 1.249 . S
O97 Dy83 2.326 . S
O97 C99 1.267 . S
C98 O90 1.249 . S
C98 O91 1.267 . S
C99 O96 1.249 . S
C99 O97 1.267 . S
Dy100 O104 2.398 . S
Dy100 O105 2.491 . S
Dy100 O106 2.403 . S
Dy100 O107 2.664 . S
Dy100 O111 2.326 . S
Dy100 O115 2.310 . S
Dy100 O116 2.351 . S
C101 O112 1.185 . S
C101 O113 1.355 . S
C102 O104 1.185 . S
C102 O105 1.355 . S
Dy103 O107 2.310 . S
Dy103 O110 2.351 . S
Dy103 O112 2.398 . S
Dy103 O113 2.491 . S
Dy103 O114 2.403 . S
Dy103 O115 2.664 . S
Dy103 O117 2.326 . S
O104 Dy100 2.398 . S
O104 C102 1.185 . S
O105 Dy100 2.491 . S
O105 C102 1.355 . S
O106 Dy100 2.403 . S
O106 C108 1.254 . S
O107 Dy100 2.664 . S
O107 Dy103 2.310 . S
O107 C108 1.268 . S
C108 O106 1.254 . S
C108 O107 1.268 . S
C109 O114 1.254 . S
C109 O115 1.268 . S
O110 Dy103 2.351 . S
O110 C118 1.249 . S
O111 Dy100 2.326 . S
O111 C118 1.267 . S
O112 C101 1.185 . S
O112 Dy103 2.398 . S
O113 C101 1.355 . S
O113 Dy103 2.491 . S
O114 Dy103 2.403 . S
O114 C109 1.254 . S
O115 Dy100 2.310 . S
O115 Dy103 2.664 . S
O115 C109 1.268 . S
O116 Dy100 2.351 . S
O116 C119 1.249 . S
O117 Dy103 2.326 . S
O117 C119 1.267 . S
C118 O110 1.249 . S
C118 O111 1.267 . S
C119 O116 1.249 . S
C119 O117 1.267 . S
Dy120 O124 2.398 . S
Dy120 O125 2.491 . S
Dy120 O126 2.403 . S
Dy120 O127 2.664 . S
Dy120 O131 2.326 . S
Dy120 O135 2.310 . S
Dy120 O136 2.351 . S
C121 O132 1.185 . S
C121 O133 1.355 . S
C122 O124 1.185 . S
C122 O125 1.355 . S
Dy123 O127 2.310 . S
Dy123 O130 2.351 . S
Dy123 O132 2.398 . S
Dy123 O133 2.491 . S
Dy123 O134 2.403 . S
Dy123 O135 2.664 . S
Dy123 O137 2.326 . S
O124 Dy120 2.398 . S
O124 C122 1.185 . S
O125 Dy120 2.491 . S
O125 C122 1.355 . S
O126 Dy120 2.403 . S
O126 C128 1.254 . S
O127 Dy120 2.664 . S
O127 Dy123 2.310 . S
O127 C128 1.268 . S
C128 O126 1.254 . S
C128 O127 1.268 . S
C129 O134 1.254 . S
C129 O135 1.268 . S
O130 Dy123 2.351 . S
O130 C138 1.249 . S
O131 Dy120 2.326 . S
O131 C138 1.267 . S
O132 C121 1.185 . S
O132 Dy123 2.398 . S
O133 C121 1.355 . S
O133 Dy123 2.491 . S
O134 Dy123 2.403 . S
O134 C129 1.254 . S
O135 Dy120 2.310 . S
O135 Dy123 2.664 . S
O135 C129 1.268 . S
O136 Dy120 2.351 . S
O136 C139 1.249 . S
O137 Dy123 2.326 . S
O137 C139 1.267 . S
C138 O130 1.249 . S
C138 O131 1.267 . S
C139 O136 1.249 . S
C139 O137 1.267 . S
Dy140 O144 2.398 . S
Dy140 O145 2.491 . S
Dy140 O146 2.403 . S
Dy140 O147 2.664 . S
Dy140 O151 2.326 . S
Dy140 O155 2.310 . S
Dy140 O156 2.351 . S
C141 O152 1.185 . S
C141 O153 1.355 . S
C142 O144 1.185 . S
C142 O145 1.355 . S
Dy143 O147 2.310 . S
Dy143 O150 2.351 . S
Dy143 O152 2.398 . S
Dy143 O153 2.491 . S
Dy143 O154 2.403 . S
Dy143 O155 2.664 . S
Dy143 O157 2.326 . S
O144 Dy140 2.398 . S
O144 C142 1.185 . S
O145 Dy140 2.491 . S
O145 C142 1.355 . S
O146 Dy140 2.403 . S
O146 C148 1.254 . S
O147 Dy140 2.664 . S
O147 Dy143 2.310 . S
O147 C148 1.268 . S
C148 O146 1.254 . S
C148 O147 1.268 . S
C149 O154 1.254 . S
C149 O155 1.268 . S
O150 Dy143 2.351 . S
O150 C158 1.249 . S
O151 Dy140 2.326 . S
O151 C158 1.267 . S
O152 C141 1.185 . S
O152 Dy143 2.398 . S
O153 C141 1.355 . S
O153 Dy143 2.491 . S
O154 Dy143 2.403 . S
O154 C149 1.254 . S
O155 Dy140 2.310 . S
O155 Dy143 2.664 . S
O155 C149 1.268 . S
O156 Dy140 2.351 . S
O156 C159 1.249 . S
O157 Dy143 2.326 . S
O157 C159 1.267 . S
C158 O150 1.249 . S
C158 O151 1.267 . S
C159 O156 1.249 . S
C159 O157 1.267 . S
Cd160 N163 2.334 1_655 S
Cd160 N189 2.304 1_565 S
Cd160 O196 2.268 . S
Cd160 O199 2.273 1_665 S
Cd160 O200 2.417 . S
Cd160 O201 2.330 . S
Cd161 N176 2.304 1_455 S
Cd161 N180 2.334 1_545 S
Cd161 O197 2.273 1_445 S
Cd161 O198 2.268 . S
Cd161 O202 2.417 . S
Cd161 O203 2.330 . S
C162 N163 1.332 . S
C162 C166 1.381 . S
C162 H168 0.931 . S
N163 Cd160 2.334 1_455 S
N163 C162 1.332 . S
N163 C167 1.328 . S
C164 C165 1.396 . S
C164 C167 1.378 . S
C164 H206 0.931 . S
C165 C164 1.396 . S
C165 C166 1.382 . S
C166 C162 1.381 . S
C166 C165 1.382 . S
C166 H207 0.930 . S
C167 N163 1.328 . S
C167 C164 1.378 . S
C167 H169 0.930 1_455 S
H168 C162 0.931 . S
H169 C167 0.930 1_655 S
C170 O196 1.238 . S
C170 O197 1.253 . S
C171 C172 1.379 . S
C171 N176 1.337 . S
C171 H177 0.929 . S
C172 C171 1.379 . S
C172 C173 1.380 . S
C172 H208 0.929 . S
C173 C172 1.380 . S
C173 C174 1.399 . S
C174 C173 1.399 . S
C174 C175 1.376 . S
C174 H209 0.931 . S
C175 C174 1.376 . S
C175 N176 1.338 . S
C175 H178 0.930 1_655 S
N176 Cd161 2.304 1_655 S
N176 C171 1.337 . S
N176 C175 1.338 . S
H177 C171 0.929 . S
H178 C175 0.930 1_455 S
C179 N180 1.332 . S
C179 C183 1.381 . S
C179 H185 0.931 . S
N180 Cd161 2.334 1_565 S
N180 C179 1.332 . S
N180 C184 1.328 . S
C181 C182 1.396 . S
C181 C184 1.378 . S
C181 H210 0.931 . S
C182 C181 1.396 . S
C182 C183 1.382 . S
C183 C179 1.381 . S
C183 C182 1.382 . S
C183 H211 0.930 . S
C184 N180 1.328 . S
C184 C181 1.378 . S
C184 H186 0.930 1_565 S
H185 C179 0.931 . S
H186 C184 0.930 1_545 S
C187 O198 1.238 . S
C187 O199 1.253 . S
C188 O200 1.239 . S
C188 O201 1.230 . S
N189 Cd160 2.304 1_545 S
N189 C190 1.337 . S
N189 C194 1.338 . S
C190 N189 1.337 . S
C190 C191 1.379 . S
C190 H204 0.929 . S
C191 C190 1.379 . S
C191 C192 1.380 . S
C191 H212 0.929 . S
C192 C191 1.380 . S
C192 C193 1.399 . S
C193 C192 1.399 . S
C193 C194 1.376 . S
C193 H213 0.931 . S
C194 N189 1.338 . S
C194 C193 1.376 . S
C194 H205 0.930 1_545 S
C195 O202 1.239 . S
C195 O203 1.230 . S
O196 Cd160 2.268 . S
O196 C170 1.238 . S
O197 Cd161 2.273 1_665 S
O197 C170 1.253 . S
O198 Cd161 2.268 . S
O198 C187 1.238 . S
O199 Cd160 2.273 1_445 S
O199 C187 1.253 . S
O200 Cd160 2.417 . S
O200 C188 1.239 . S
O201 Cd160 2.330 . S
O201 C188 1.230 . S
O202 Cd161 2.417 . S
O202 C195 1.239 . S
O203 Cd161 2.330 . S
O203 C195 1.230 . S
H204 C190 0.929 . S
H205 C194 0.930 1_565 S
H206 C164 0.931 . S
H207 C166 0.930 . S
H208 C172 0.929 . S
H209 C174 0.931 . S
H210 C181 0.931 . S
H211 C183 0.930 . S
H212 C191 0.929 . S
H213 C193 0.931 . S
Cd214 N217 2.334 . S
Cd214 N243 2.304 1_565 S
Cd214 O250 2.268 1_554 S
Cd214 O253 2.273 1_565 S
Cd214 O254 2.417 . S
Cd214 O255 2.330 . S
Cd215 N230 2.304 . S
Cd215 N234 2.334 1_545 S
Cd215 O251 2.273 1_545 S
Cd215 O252 2.268 1_556 S
Cd215 O256 2.417 . S
Cd215 O257 2.330 . S
C216 N217 1.332 . S
C216 C220 1.381 . S
C216 H222 0.931 . S
N217 Cd214 2.334 . S
N217 C216 1.332 . S
N217 C221 1.328 . S
C218 C219 1.396 . S
C218 C221 1.378 . S
C218 H260 0.931 1_554 S
C219 C218 1.396 . S
C219 C220 1.382 . S
C220 C216 1.381 . S
C220 C219 1.382 . S
C220 H261 0.930 . S
C221 N217 1.328 . S
C221 C218 1.378 . S
C221 H223 0.930 1_554 S
H222 C216 0.931 . S
H223 C221 0.930 1_556 S
C224 O250 1.238 . S
C224 O251 1.253 . S
C225 C226 1.379 . S
C225 N230 1.337 . S
C225 H231 0.929 . S
C226 C225 1.379 . S
C226 C227 1.380 . S
C226 H262 0.929 . S
C227 C226 1.380 . S
C227 C228 1.399 . S
C228 C227 1.399 . S
C228 C229 1.376 . S
C228 H263 0.931 1_556 S
C229 C228 1.376 . S
C229 N230 1.338 . S
C229 H232 0.930 1_556 S
N230 Cd215 2.304 . S
N230 C225 1.337 . S
N230 C229 1.338 . S
H231 C225 0.929 . S
H232 C229 0.930 1_554 S
C233 N234 1.332 . S
C233 C237 1.381 . S
C233 H239 0.931 . S
N234 Cd215 2.334 1_565 S
N234 C233 1.332 . S
N234 C238 1.328 . S
C235 C236 1.396 . S
C235 C238 1.378 . S
C235 H264 0.931 1_556 S
C236 C235 1.396 . S
C236 C237 1.382 . S
C237 C233 1.381 . S
C237 C236 1.382 . S
C237 H265 0.930 . S
C238 N234 1.328 . S
C238 C235 1.378 . S
C238 H240 0.930 1_566 S
H239 C233 0.931 . S
H240 C238 0.930 1_544 S
C241 O252 1.238 . S
C241 O253 1.253 . S
C242 O254 1.239 . S
C242 O255 1.230 . S
N243 Cd214 2.304 1_545 S
N243 C244 1.337 . S
N243 C248 1.338 . S
C244 N243 1.337 . S
C244 C245 1.379 . S
C244 H258 0.929 . S
C245 C244 1.379 . S
C245 C246 1.380 . S
C245 H266 0.929 . S
C246 C245 1.380 . S
C246 C247 1.399 . S
C247 C246 1.399 . S
C247 C248 1.376 . S
C247 H267 0.931 1_554 S
C248 N243 1.338 . S
C248 C247 1.376 . S
C248 H259 0.930 1_544 S
C249 O256 1.239 . S
C249 O257 1.230 . S
O250 Cd214 2.268 1_556 S
O250 C224 1.238 . S
O251 Cd215 2.273 1_565 S
O251 C224 1.253 . S
O252 Cd215 2.268 1_554 S
O252 C241 1.238 . S
O253 Cd214 2.273 1_545 S
O253 C241 1.253 . S
O254 Cd214 2.417 . S
O254 C242 1.239 . S
O255 Cd214 2.330 . S
O255 C242 1.230 . S
O256 Cd215 2.417 . S
O256 C249 1.239 . S
O257 Cd215 2.330 . S
O257 C249 1.230 . S
H258 C244 0.929 . S
H259 C248 0.930 1_566 S
H260 C218 0.931 1_556 S
H261 C220 0.930 . S
H262 C226 0.929 . S
H263 C228 0.931 1_554 S
H264 C235 0.931 1_554 S
H265 C237 0.930 . S
H266 C245 0.929 . S
H267 C247 0.931 1_556 S
Cd268 N271 2.334 1_655 S
Cd268 N297 2.304 . S
Cd268 O304 2.268 1_554 S
Cd268 O307 2.273 1_655 S
Cd268 O308 2.417 . S
Cd268 O309 2.330 . S
Cd269 N284 2.304 1_455 S
Cd269 N288 2.334 . S
Cd269 O305 2.273 1_455 S
Cd269 O306 2.268 1_556 S
Cd269 O310 2.417 . S
Cd269 O311 2.330 . S
C270 N271 1.332 . S
C270 C274 1.381 . S
C270 H276 0.931 . S
N271 Cd268 2.334 1_455 S
N271 C270 1.332 . S
N271 C275 1.328 . S
C272 C273 1.396 . S
C272 C275 1.378 . S
C272 H314 0.931 1_554 S
C273 C272 1.396 . S
C273 C274 1.382 . S
C274 C270 1.381 . S
C274 C273 1.382 . S
C274 H315 0.930 . S
C275 N271 1.328 . S
C275 C272 1.378 . S
C275 H277 0.930 1_454 S
H276 C270 0.931 . S
H277 C275 0.930 1_656 S
C278 O304 1.238 . S
C278 O305 1.253 . S
C279 C280 1.379 . S
C279 N284 1.337 . S
C279 H285 0.929 . S
C280 C279 1.379 . S
C280 C281 1.380 . S
C280 H316 0.929 . S
C281 C280 1.380 . S
C281 C282 1.399 . S
C282 C281 1.399 . S
C282 C283 1.376 . S
C282 H317 0.931 1_556 S
C283 C282 1.376 . S
C283 N284 1.338 . S
C283 H286 0.930 1_656 S
N284 Cd269 2.304 1_655 S
N284 C279 1.337 . S
N284 C283 1.338 . S
H285 C279 0.929 . S
H286 C283 0.930 1_454 S
C287 N288 1.332 . S
C287 C291 1.381 . S
C287 H293 0.931 . S
N288 Cd269 2.334 . S
N288 C287 1.332 . S
N288 C292 1.328 . S
C289 C290 1.396 . S
C289 C292 1.378 . S
C289 H318 0.931 1_556 S
C290 C289 1.396 . S
C290 C291 1.382 . S
C291 C287 1.381 . S
C291 C290 1.382 . S
C291 H319 0.930 . S
C292 N288 1.328 . S
C292 C289 1.378 . S
C292 H294 0.930 1_556 S
H293 C287 0.931 . S
H294 C292 0.930 1_554 S
C295 O306 1.238 . S
C295 O307 1.253 . S
C296 O308 1.239 . S
C296 O309 1.230 . S
N297 Cd268 2.304 . S
N297 C298 1.337 . S
N297 C302 1.338 . S
C298 N297 1.337 . S
C298 C299 1.379 . S
C298 H312 0.929 . S
C299 C298 1.379 . S
C299 C300 1.380 . S
C299 H320 0.929 . S
C300 C299 1.380 . S
C300 C301 1.399 . S
C301 C300 1.399 . S
C301 C302 1.376 . S
C301 H321 0.931 1_554 S
C302 N297 1.338 . S
C302 C301 1.376 . S
C302 H313 0.930 1_554 S
C303 O310 1.239 . S
C303 O311 1.230 . S
O304 Cd268 2.268 1_556 S
O304 C278 1.238 . S
O305 Cd269 2.273 1_655 S
O305 C278 1.253 . S
O306 Cd269 2.268 1_554 S
O306 C295 1.238 . S
O307 Cd268 2.273 1_455 S
O307 C295 1.253 . S
O308 Cd268 2.417 . S
O308 C296 1.239 . S
O309 Cd268 2.330 . S
O309 C296 1.230 . S
O310 Cd269 2.417 . S
O310 C303 1.239 . S
O311 Cd269 2.330 . S
O311 C303 1.230 . S
H312 C298 0.929 . S
H313 C302 0.930 1_556 S
H314 C272 0.931 1_556 S
H315 C274 0.930 . S
H316 C280 0.929 . S
H317 C282 0.931 1_554 S
H318 C289 0.931 1_554 S
H319 C291 0.930 . S
H320 C299 0.929 . S
H321 C301 0.931 1_556 S
Cd322 N325 2.334 . S
Cd322 N351 2.304 . S
Cd322 O358 2.268 1_554 S
Cd322 O361 2.273 . S
Cd322 O362 2.417 . S
Cd322 O363 2.330 . S
Cd323 N338 2.304 . S
Cd323 N342 2.334 . S
Cd323 O359 2.273 . S
Cd323 O360 2.268 1_556 S
Cd323 O364 2.417 . S
Cd323 O365 2.330 . S
C324 N325 1.332 . S
C324 C328 1.381 . S
C324 H330 0.931 . S
N325 Cd322 2.334 . S
N325 C324 1.332 . S
N325 C329 1.328 . S
C326 C327 1.396 . S
C326 C329 1.378 . S
C326 H368 0.931 1_554 S
C327 C326 1.396 . S
C327 C328 1.382 . S
C328 C324 1.381 . S
C328 C327 1.382 . S
C328 H369 0.930 . S
C329 N325 1.328 . S
C329 C326 1.378 . S
C329 H331 0.930 1_554 S
H330 C324 0.931 . S
H331 C329 0.930 1_556 S
C332 O358 1.238 . S
C332 O359 1.253 . S
C333 C334 1.379 . S
C333 N338 1.337 . S
C333 H339 0.929 . S
C334 C333 1.379 . S
C334 C335 1.380 . S
C334 H370 0.929 . S
C335 C334 1.380 . S
C335 C336 1.399 . S
C336 C335 1.399 . S
C336 C337 1.376 . S
C336 H371 0.931 1_556 S
C337 C336 1.376 . S
C337 N338 1.338 . S
C337 H340 0.930 1_556 S
N338 Cd323 2.304 . S
N338 C333 1.337 . S
N338 C337 1.338 . S
H339 C333 0.929 . S
H340 C337 0.930 1_554 S
C341 N342 1.332 . S
C341 C345 1.381 . S
C341 H347 0.931 . S
N342 Cd323 2.334 . S
N342 C341 1.332 . S
N342 C346 1.328 . S
C343 C344 1.396 . S
C343 C346 1.378 . S
C343 H372 0.931 1_556 S
C344 C343 1.396 . S
C344 C345 1.382 . S
C345 C341 1.381 . S
C345 C344 1.382 . S
C345 H373 0.930 . S
C346 N342 1.328 . S
C346 C343 1.378 . S
C346 H348 0.930 1_556 S
H347 C341 0.931 . S
H348 C346 0.930 1_554 S
C349 O360 1.238 . S
C349 O361 1.253 . S
C350 O362 1.239 . S
C350 O363 1.230 . S
N351 Cd322 2.304 . S
N351 C352 1.337 . S
N351 C356 1.338 . S
C352 N351 1.337 . S
C352 C353 1.379 . S
C352 H366 0.929 . S
C353 C352 1.379 . S
C353 C354 1.380 . S
C353 H374 0.929 . S
C354 C353 1.380 . S
C354 C355 1.399 . S
C355 C354 1.399 . S
C355 C356 1.376 . S
C355 H375 0.931 1_554 S
C356 N351 1.338 . S
C356 C355 1.376 . S
C356 H367 0.930 1_554 S
C357 O364 1.239 . S
C357 O365 1.230 . S
O358 Cd322 2.268 1_556 S
O358 C332 1.238 . S
O359 Cd323 2.273 . S
O359 C332 1.253 . S
O360 Cd323 2.268 1_554 S
O360 C349 1.238 . S
O361 Cd322 2.273 . S
O361 C349 1.253 . S
O362 Cd322 2.417 . S
O362 C350 1.239 . S
O363 Cd322 2.330 . S
O363 C350 1.230 . S
O364 Cd323 2.417 . S
O364 C357 1.239 . S
O365 Cd323 2.330 . S
O365 C357 1.230 . S
H366 C352 0.929 . S
H367 C356 0.930 1_556 S
H368 C326 0.931 1_556 S
H369 C328 0.930 . S
H370 C334 0.929 . S
H371 C336 0.931 1_554 S
H372 C343 0.931 1_554 S
H373 C345 0.930 . S
H374 C353 0.929 . S
H375 C355 0.931 1_556 S
Cd376 N379 2.334 1_655 S
Cd376 N405 2.304 . S
Cd376 O412 2.268 . S
Cd376 O415 2.273 1_655 S
Cd376 O416 2.417 . S
Cd376 O417 2.330 . S
Cd377 N392 2.304 1_455 S
Cd377 N396 2.334 . S
Cd377 O413 2.273 1_455 S
Cd377 O414 2.268 . S
Cd377 O418 2.417 . S
Cd377 O419 2.330 . S
C378 N379 1.332 . S
C378 C382 1.381 . S
C378 H384 0.931 . S
N379 Cd376 2.334 1_455 S
N379 C378 1.332 . S
N379 C383 1.328 . S
C380 C381 1.396 . S
C380 C383 1.378 . S
C380 H422 0.931 . S
C381 C380 1.396 . S
C381 C382 1.382 . S
C382 C378 1.381 . S
C382 C381 1.382 . S
C382 H423 0.930 . S
C383 N379 1.328 . S
C383 C380 1.378 . S
C383 H385 0.930 1_455 S
H384 C378 0.931 . S
H385 C383 0.930 1_655 S
C386 O412 1.238 . S
C386 O413 1.253 . S
C387 C388 1.379 . S
C387 N392 1.337 . S
C387 H393 0.929 . S
C388 C387 1.379 . S
C388 C389 1.380 . S
C388 H424 0.929 . S
C389 C388 1.380 . S
C389 C390 1.399 . S
C390 C389 1.399 . S
C390 C391 1.376 . S
C390 H425 0.931 . S
C391 C390 1.376 . S
C391 N392 1.338 . S
C391 H394 0.930 1_655 S
N392 Cd377 2.304 1_655 S
N392 C387 1.337 . S
N392 C391 1.338 . S
H393 C387 0.929 . S
H394 C391 0.930 1_455 S
C395 N396 1.332 . S
C395 C399 1.381 . S
C395 H401 0.931 . S
N396 Cd377 2.334 . S
N396 C395 1.332 . S
N396 C400 1.328 . S
C397 C398 1.396 . S
C397 C400 1.378 . S
C397 H426 0.931 . S
C398 C397 1.396 . S
C398 C399 1.382 . S
C399 C395 1.381 . S
C399 C398 1.382 . S
C399 H427 0.930 . S
C400 N396 1.328 . S
C400 C397 1.378 . S
C400 H402 0.930 . S
H401 C395 0.931 . S
H402 C400 0.930 . S
C403 O414 1.238 . S
C403 O415 1.253 . S
C404 O416 1.239 . S
C404 O417 1.230 . S
N405 Cd376 2.304 . S
N405 C406 1.337 . S
N405 C410 1.338 . S
C406 N405 1.337 . S
C406 C407 1.379 . S
C406 H420 0.929 . S
C407 C406 1.379 . S
C407 C408 1.380 . S
C407 H428 0.929 . S
C408 C407 1.380 . S
C408 C409 1.399 . S
C409 C408 1.399 . S
C409 C410 1.376 . S
C409 H429 0.931 . S
C410 N405 1.338 . S
C410 C409 1.376 . S
C410 H421 0.930 . S
C411 O418 1.239 . S
C411 O419 1.230 . S
O412 Cd376 2.268 . S
O412 C386 1.238 . S
O413 Cd377 2.273 1_655 S
O413 C386 1.253 . S
O414 Cd377 2.268 . S
O414 C403 1.238 . S
O415 Cd376 2.273 1_455 S
O415 C403 1.253 . S
O416 Cd376 2.417 . S
O416 C404 1.239 . S
O417 Cd376 2.330 . S
O417 C404 1.230 . S
O418 Cd377 2.417 . S
O418 C411 1.239 . S
O419 Cd377 2.330 . S
O419 C411 1.230 . S
H420 C406 0.929 . S
H421 C410 0.930 . S
H422 C380 0.931 . S
H423 C382 0.930 . S
H424 C388 0.929 . S
H425 C390 0.931 . S
H426 C397 0.931 . S
H427 C399 0.930 . S
H428 C407 0.929 . S
H429 C409 0.931 . S
Cd430 N433 2.334 . S
Cd430 N459 2.304 1_565 S
Cd430 O466 2.268 . S
Cd430 O469 2.273 1_565 S
Cd430 O470 2.417 . S
Cd430 O471 2.330 . S
Cd431 N446 2.304 . S
Cd431 N450 2.334 1_545 S
Cd431 O467 2.273 1_545 S
Cd431 O468 2.268 . S
Cd431 O472 2.417 . S
Cd431 O473 2.330 . S
C432 N433 1.332 . S
C432 C436 1.381 . S
C432 H438 0.931 . S
N433 Cd430 2.334 . S
N433 C432 1.332 . S
N433 C437 1.328 . S
C434 C435 1.396 . S
C434 C437 1.378 . S
C434 H476 0.931 . S
C435 C434 1.396 . S
C435 C436 1.382 . S
C436 C432 1.381 . S
C436 C435 1.382 . S
C436 H477 0.930 . S
C437 N433 1.328 . S
C437 C434 1.378 . S
C437 H439 0.930 . S
H438 C432 0.931 . S
H439 C437 0.930 . S
C440 O466 1.238 . S
C440 O467 1.253 . S
C441 C442 1.379 . S
C441 N446 1.337 . S
C441 H447 0.929 . S
C442 C441 1.379 . S
C442 C443 1.380 . S
C442 H478 0.929 . S
C443 C442 1.380 . S
C443 C444 1.399 . S
C444 C443 1.399 . S
C444 C445 1.376 . S
C444 H479 0.931 . S
C445 C444 1.376 . S
C445 N446 1.338 . S
C445 H448 0.930 . S
N446 Cd431 2.304 . S
N446 C441 1.337 . S
N446 C445 1.338 . S
H447 C441 0.929 . S
H448 C445 0.930 . S
C449 N450 1.332 . S
C449 C453 1.381 . S
C449 H455 0.931 . S
N450 Cd431 2.334 1_565 S
N450 C449 1.332 . S
N450 C454 1.328 . S
C451 C452 1.396 . S
C451 C454 1.378 . S
C451 H480 0.931 . S
C452 C451 1.396 . S
C452 C453 1.382 . S
C453 C449 1.381 . S
C453 C452 1.382 . S
C453 H481 0.930 . S
C454 N450 1.328 . S
C454 C451 1.378 . S
C454 H456 0.930 1_565 S
H455 C449 0.931 . S
H456 C454 0.930 1_545 S
C457 O468 1.238 . S
C457 O469 1.253 . S
C458 O470 1.239 . S
C458 O471 1.230 . S
N459 Cd430 2.304 1_545 S
N459 C460 1.337 . S
N459 C464 1.338 . S
C460 N459 1.337 . S
C460 C461 1.379 . S
C460 H474 0.929 . S
C461 C460 1.379 . S
C461 C462 1.380 . S
C461 H482 0.929 . S
C462 C461 1.380 . S
C462 C463 1.399 . S
C463 C462 1.399 . S
C463 C464 1.376 . S
C463 H483 0.931 . S
C464 N459 1.338 . S
C464 C463 1.376 . S
C464 H475 0.930 1_545 S
C465 O472 1.239 . S
C465 O473 1.230 . S
O466 Cd430 2.268 . S
O466 C440 1.238 . S
O467 Cd431 2.273 1_565 S
O467 C440 1.253 . S
O468 Cd431 2.268 . S
O468 C457 1.238 . S
O469 Cd430 2.273 1_545 S
O469 C457 1.253 . S
O470 Cd430 2.417 . S
O470 C458 1.239 . S
O471 Cd430 2.330 . S
O471 C458 1.230 . S
O472 Cd431 2.417 . S
O472 C465 1.239 . S
O473 Cd431 2.330 . S
O473 C465 1.230 . S
H474 C460 0.929 . S
H475 C464 0.930 1_565 S
H476 C434 0.931 . S
H477 C436 0.930 . S
H478 C442 0.929 . S
H479 C444 0.931 . S
H480 C451 0.931 . S
H481 C453 0.930 . S
H482 C461 0.929 . S
H483 C463 0.931 . S
C484 C485 1.387 . S
C484 H488 0.950 . S
C484 C493 1.390 . S
C485 C484 1.387 . S
C485 C487 1.387 . S
H486 C493 0.950 . S
C487 C485 1.387 . S
C487 C489 1.390 . S
C487 H491 0.950 . S
H488 C484 0.950 . S
C489 C487 1.390 . S
C489 C490 1.387 . S
C489 H492 0.950 . S
C490 C489 1.387 . S
C490 C493 1.387 . S
H491 C487 0.950 . S
H492 C489 0.950 . S
C493 C484 1.390 . S
C493 H486 0.950 . S
C493 C490 1.387 . S
C494 C495 1.387 . S
C494 H498 0.950 . S
C494 C503 1.390 . S
C495 C494 1.387 . S
C495 C497 1.387 . S
H496 C503 0.950 . S
C497 C495 1.387 . S
C497 C499 1.390 . S
C497 H501 0.950 . S
H498 C494 0.950 . S
C499 C497 1.390 . S
C499 C500 1.387 . S
C499 H502 0.950 . S
C500 C499 1.387 . S
C500 C503 1.387 . S
H501 C497 0.950 . S
H502 C499 0.950 . S
C503 C494 1.390 . S
C503 H496 0.950 . S
C503 C500 1.387 . S
C504 C505 1.387 . S
C504 H508 0.950 . S
C504 C513 1.390 . S
C505 C504 1.387 . S
C505 C507 1.387 . S
H506 C513 0.950 . S
C507 C505 1.387 . S
C507 C509 1.390 . S
C507 H511 0.950 . S
H508 C504 0.950 . S
C509 C507 1.390 . S
C509 C510 1.387 . S
C509 H512 0.950 . S
C510 C509 1.387 . S
C510 C513 1.387 . S
H511 C507 0.950 . S
H512 C509 0.950 . S
C513 C504 1.390 . S
C513 H506 0.950 . S
C513 C510 1.387 . S
C514 C515 1.387 . S
C514 H518 0.950 . S
C514 C523 1.390 . S
C515 C514 1.387 . S
C515 C517 1.387 . S
H516 C523 0.950 . S
C517 C515 1.387 . S
C517 C519 1.390 . S
C517 H521 0.950 . S
H518 C514 0.950 . S
C519 C517 1.390 . S
C519 C520 1.387 . S
C519 H522 0.950 . S
C520 C519 1.387 . S
C520 C523 1.387 . S
H521 C517 0.950 . S
H522 C519 0.950 . S
C523 C514 1.390 . S
C523 H516 0.950 . S
C523 C520 1.387 . S
C524 C525 1.387 . S
C524 H528 0.950 . S
C524 C533 1.390 . S
C525 C524 1.387 . S
C525 C527 1.387 . S
H526 C533 0.950 . S
C527 C525 1.387 . S
C527 C529 1.390 . S
C527 H531 0.950 . S
H528 C524 0.950 . S
C529 C527 1.390 . S
C529 C530 1.387 . S
C529 H532 0.950 . S
C530 C529 1.387 . S
C530 C533 1.387 . S
H531 C527 0.950 . S
H532 C529 0.950 . S
C533 C524 1.390 . S
C533 H526 0.950 . S
C533 C530 1.387 . S
C534 C535 1.387 . S
C534 H538 0.950 . S
C534 C543 1.390 . S
C535 C534 1.387 . S
C535 C537 1.387 . S
H536 C543 0.950 . S
C537 C535 1.387 . S
C537 C539 1.390 . S
C537 H541 0.950 . S
H538 C534 0.950 . S
C539 C537 1.390 . S
C539 C540 1.387 . S
C539 H542 0.950 . S
C540 C539 1.387 . S
C540 C543 1.387 . S
H541 C537 0.950 . S
H542 C539 0.950 . S
C543 C534 1.390 . S
C543 H536 0.950 . S
C543 C540 1.387 . S
C544 C545 1.387 . S
C544 H548 0.950 . S
C544 C553 1.390 . S
C545 C544 1.387 . S
C545 C547 1.387 . S
H546 C553 0.950 . S
C547 C545 1.387 . S
C547 C549 1.390 . S
C547 H551 0.950 . S
H548 C544 0.950 . S
C549 C547 1.390 . S
C549 C550 1.387 . S
C549 H552 0.950 . S
C550 C549 1.387 . S
C550 C553 1.387 . S
H551 C547 0.950 . S
H552 C549 0.950 . S
C553 C544 1.390 . S
C553 H546 0.950 . S
C553 C550 1.387 . S
C554 C555 1.387 . S
C554 H558 0.950 . S
C554 C563 1.390 . S
C555 C554 1.387 . S
C555 C557 1.387 . S
H556 C563 0.950 . S
C557 C555 1.387 . S
C557 C559 1.390 . S
C557 H561 0.950 . S
H558 C554 0.950 . S
C559 C557 1.390 . S
C559 C560 1.387 . S
C559 H562 0.950 . S
C560 C559 1.387 . S
C560 C563 1.387 . S
H561 C557 0.950 . S
H562 C559 0.950 . S
C563 C554 1.390 . S
C563 H556 0.950 . S
C563 C560 1.387 . S
C564 C565 1.387 . S
C564 H568 0.950 . S
C564 C573 1.390 . S
C565 C564 1.387 . S
C565 C567 1.387 . S
H566 C573 0.950 . S
C567 C565 1.387 . S
C567 C569 1.390 . S
C567 H571 0.950 . S
H568 C564 0.950 . S
C569 C567 1.390 . S
C569 C570 1.387 . S
C569 H572 0.950 . S
C570 C569 1.387 . S
C570 C573 1.387 . S
H571 C567 0.950 . S
H572 C569 0.950 . S
C573 C564 1.390 . S
C573 H566 0.950 . S
C573 C570 1.387 . S
C574 C575 1.387 . S
C574 H578 0.950 . S
C574 C583 1.390 . S
C575 C574 1.387 . S
C575 C577 1.387 . S
H576 C583 0.950 . S
C577 C575 1.387 . S
C577 C579 1.390 . S
C577 H581 0.950 . S
H578 C574 0.950 . S
C579 C577 1.390 . S
C579 C580 1.387 . S
C579 H582 0.950 . S
C580 C579 1.387 . S
C580 C583 1.387 . S
H581 C577 0.950 . S
H582 C579 0.950 . S
C583 C574 1.390 . S
C583 H576 0.950 . S
C583 C580 1.387 . S
C584 C585 1.387 . S
C584 H588 0.950 . S
C584 C593 1.390 . S
C585 C584 1.387 . S
C585 C587 1.387 . S
H586 C593 0.950 . S
C587 C585 1.387 . S
C587 C589 1.390 . S
C587 H591 0.950 . S
H588 C584 0.950 . S
C589 C587 1.390 . S
C589 C590 1.387 . S
C589 H592 0.950 . S
C590 C589 1.387 . S
C590 C593 1.387 . S
H591 C587 0.950 . S
H592 C589 0.950 . S
C593 C584 1.390 . S
C593 H586 0.950 . S
C593 C590 1.387 . S
C594 C595 1.387 . S
C594 H598 0.950 . S
C594 C603 1.390 . S
C595 C594 1.387 . S
C595 C597 1.387 . S
H596 C603 0.950 . S
C597 C595 1.387 . S
C597 C599 1.390 . S
C597 H601 0.950 . S
H598 C594 0.950 . S
C599 C597 1.390 . S
C599 C600 1.387 . S
C599 H602 0.950 . S
C600 C599 1.387 . S
C600 C603 1.387 . S
H601 C597 0.950 . S
H602 C599 0.950 . S
C603 C594 1.390 . S
C603 H596 0.950 . S
C603 C600 1.387 . S
C604 C605 1.387 . S
C604 H608 0.950 . S
C604 C613 1.390 . S
C605 C604 1.387 . S
C605 C607 1.387 . S
H606 C613 0.950 . S
C607 C605 1.387 . S
C607 C609 1.390 . S
C607 H611 0.950 . S
H608 C604 0.950 . S
C609 C607 1.390 . S
C609 C610 1.387 . S
C609 H612 0.950 . S
C610 C609 1.387 . S
C610 C613 1.387 . S
H611 C607 0.950 . S
H612 C609 0.950 . S
C613 C604 1.390 . S
C613 H606 0.950 . S
C613 C610 1.387 . S
C614 C615 1.387 . S
C614 H618 0.950 . S
C614 C623 1.390 . S
C615 C614 1.387 . S
C615 C617 1.387 . S
H616 C623 0.950 . S
C617 C615 1.387 . S
C617 C619 1.390 . S
C617 H621 0.950 . S
H618 C614 0.950 . S
C619 C617 1.390 . S
C619 C620 1.387 . S
C619 H622 0.950 . S
C620 C619 1.387 . S
C620 C623 1.387 . S
H621 C617 0.950 . S
H622 C619 0.950 . S
C623 C614 1.390 . S
C623 H616 0.950 . S
C623 C620 1.387 . S
C624 C625 1.387 . S
C624 H628 0.950 . S
C624 C633 1.390 . S
C625 C624 1.387 . S
C625 C627 1.387 . S
H626 C633 0.950 . S
C627 C625 1.387 . S
C627 C629 1.390 . S
C627 H631 0.950 . S
H628 C624 0.950 . S
C629 C627 1.390 . S
C629 C630 1.387 . S
C629 H632 0.950 . S
C630 C629 1.387 . S
C630 C633 1.387 . S
H631 C627 0.950 . S
H632 C629 0.950 . S
C633 C624 1.390 . S
C633 H626 0.950 . S
C633 C630 1.387 . S
C634 C635 1.387 . S
C634 H638 0.950 . S
C634 C643 1.390 . S
C635 C634 1.387 . S
C635 C637 1.387 . S
H636 C643 0.950 . S
C637 C635 1.387 . S
C637 C639 1.390 . S
C637 H641 0.950 . S
H638 C634 0.950 . S
C639 C637 1.390 . S
C639 C640 1.387 . S
C639 H642 0.950 . S
C640 C639 1.387 . S
C640 C643 1.387 . S
H641 C637 0.950 . S
H642 C639 0.950 . S
C643 C634 1.390 . S
C643 H636 0.950 . S
C643 C640 1.387 . S
C644 C645 1.387 . S
C644 H648 0.950 . S
C644 C653 1.390 . S
C645 C644 1.387 . S
C645 C647 1.387 . S
H646 C653 0.950 . S
C647 C645 1.387 . S
C647 C649 1.390 . S
C647 H651 0.950 . S
H648 C644 0.950 . S
C649 C647 1.390 . S
C649 C650 1.387 . S
C649 H652 0.950 . S
C650 C649 1.387 . S
C650 C653 1.387 . S
H651 C647 0.950 . S
H652 C649 0.950 . S
C653 C644 1.390 . S
C653 H646 0.950 . S
C653 C650 1.387 . S
C654 C655 1.387 . S
C654 H658 0.950 . S
C654 C663 1.390 . S
C655 C654 1.387 . S
C655 C657 1.387 . S
H656 C663 0.950 . S
C657 C655 1.387 . S
C657 C659 1.390 . S
C657 H661 0.950 . S
H658 C654 0.950 . S
C659 C657 1.390 . S
C659 C660 1.387 . S
C659 H662 0.950 . S
C660 C659 1.387 . S
C660 C663 1.387 . S
H661 C657 0.950 . S
H662 C659 0.950 . S
C663 C654 1.390 . S
C663 H656 0.950 . S
C663 C660 1.387 . S
C664 C665 1.387 . S
C664 H668 0.950 . S
C664 C673 1.390 . S
C665 C664 1.387 . S
C665 C667 1.387 . S
H666 C673 0.950 . S
C667 C665 1.387 . S
C667 C669 1.390 . S
C667 H671 0.950 . S
H668 C664 0.950 . S
C669 C667 1.390 . S
C669 C670 1.387 . S
C669 H672 0.950 . S
C670 C669 1.387 . S
C670 C673 1.387 . S
H671 C667 0.950 . S
H672 C669 0.950 . S
C673 C664 1.390 . S
C673 H666 0.950 . S
C673 C670 1.387 . S
C674 C675 1.387 . S
C674 H678 0.950 . S
C674 C683 1.390 . S
C675 C674 1.387 . S
C675 C677 1.387 . S
H676 C683 0.950 . S
C677 C675 1.387 . S
C677 C679 1.390 . S
C677 H681 0.950 . S
H678 C674 0.950 . S
C679 C677 1.390 . S
C679 C680 1.387 . S
C679 H682 0.950 . S
C680 C679 1.387 . S
C680 C683 1.387 . S
H681 C677 0.950 . S
H682 C679 0.950 . S
C683 C674 1.390 . S
C683 H676 0.950 . S
C683 C680 1.387 . S
C684 C685 1.387 . S
C684 H688 0.950 . S
C684 C693 1.390 . S
C685 C684 1.387 . S
C685 C687 1.387 . S
H686 C693 0.950 . S
C687 C685 1.387 . S
C687 C689 1.390 . S
C687 H691 0.950 . S
H688 C684 0.950 . S
C689 C687 1.390 . S
C689 C690 1.387 . S
C689 H692 0.950 . S
C690 C689 1.387 . S
C690 C693 1.387 . S
H691 C687 0.950 . S
H692 C689 0.950 . S
C693 C684 1.390 . S
C693 H686 0.950 . S
C693 C690 1.387 . S
C694 C695 1.387 . S
C694 H698 0.950 . S
C694 C703 1.390 . S
C695 C694 1.387 . S
C695 C697 1.387 . S
H696 C703 0.950 . S
C697 C695 1.387 . S
C697 C699 1.390 . S
C697 H701 0.950 . S
H698 C694 0.950 . S
C699 C697 1.390 . S
C699 C700 1.387 . S
C699 H702 0.950 . S
C700 C699 1.387 . S
C700 C703 1.387 . S
H701 C697 0.950 . S
H702 C699 0.950 . S
C703 C694 1.390 . S
C703 H696 0.950 . S
C703 C700 1.387 . S
C704 C705 1.387 . S
C704 H708 0.950 . S
C704 C713 1.390 . S
C705 C704 1.387 . S
C705 C707 1.387 . S
H706 C713 0.950 . S
C707 C705 1.387 . S
C707 C709 1.390 . S
C707 H711 0.950 . S
H708 C704 0.950 . S
C709 C707 1.390 . S
C709 C710 1.387 . S
C709 H712 0.950 . S
C710 C709 1.387 . S
C710 C713 1.387 . S
H711 C707 0.950 . S
H712 C709 0.950 . S
C713 C704 1.390 . S
C713 H706 0.950 . S
C713 C710 1.387 . S
C714 C715 1.387 . S
C714 H718 0.950 . S
C714 C723 1.390 . S
C715 C714 1.387 . S
C715 C717 1.387 . S
H716 C723 0.950 . S
C717 C715 1.387 . S
C717 C719 1.390 . S
C717 H721 0.950 . S
H718 C714 0.950 . S
C719 C717 1.390 . S
C719 C720 1.387 . S
C719 H722 0.950 . S
C720 C719 1.387 . S
C720 C723 1.387 . S
H721 C717 0.950 . S
H722 C719 0.950 . S
C723 C714 1.390 . S
C723 H716 0.950 . S
C723 C720 1.387 . S
C724 C725 1.387 . S
C724 H728 0.950 . S
C724 C733 1.390 . S
C725 C724 1.387 . S
C725 C727 1.387 . S
H726 C733 0.950 . S
C727 C725 1.387 . S
C727 C729 1.390 . S
C727 H731 0.950 . S
H728 C724 0.950 . S
C729 C727 1.390 . S
C729 C730 1.387 . S
C729 H732 0.950 . S
C730 C729 1.387 . S
C730 C733 1.387 . S
H731 C727 0.950 . S
H732 C729 0.950 . S
C733 C724 1.390 . S
C733 H726 0.950 . S
C733 C730 1.387 . S
C734 C735 1.387 . S
C734 H738 0.950 . S
C734 C743 1.390 . S
C735 C734 1.387 . S
C735 C737 1.387 . S
H736 C743 0.950 . S
C737 C735 1.387 . S
C737 C739 1.390 . S
C737 H741 0.950 . S
H738 C734 0.950 . S
C739 C737 1.390 . S
C739 C740 1.387 . S
C739 H742 0.950 . S
C740 C739 1.387 . S
C740 C743 1.387 . S
H741 C737 0.950 . S
H742 C739 0.950 . S
C743 C734 1.390 . S
C743 H736 0.950 . S
C743 C740 1.387 . S
C744 C745 1.387 . S
C744 H748 0.950 . S
C744 C753 1.390 . S
C745 C744 1.387 . S
C745 C747 1.387 . S
H746 C753 0.950 . S
C747 C745 1.387 . S
C747 C749 1.390 . S
C747 H751 0.950 . S
H748 C744 0.950 . S
C749 C747 1.390 . S
C749 C750 1.387 . S
C749 H752 0.950 . S
C750 C749 1.387 . S
C750 C753 1.387 . S
H751 C747 0.950 . S
H752 C749 0.950 . S
C753 C744 1.390 . S
C753 H746 0.950 . S
C753 C750 1.387 . S
C754 C755 1.387 . S
C754 H758 0.950 . S
C754 C763 1.390 . S
C755 C754 1.387 . S
C755 C757 1.387 . S
H756 C763 0.950 . S
C757 C755 1.387 . S
C757 C759 1.390 . S
C757 H761 0.950 . S
H758 C754 0.950 . S
C759 C757 1.390 . S
C759 C760 1.387 . S
C759 H762 0.950 . S
C760 C759 1.387 . S
C760 C763 1.387 . S
H761 C757 0.950 . S
H762 C759 0.950 . S
C763 C754 1.390 . S
C763 H756 0.950 . S
C763 C760 1.387 . S
C764 C765 1.387 . S
C764 H768 0.950 . S
C764 C773 1.390 . S
C765 C764 1.387 . S
C765 C767 1.387 . S
H766 C773 0.950 . S
C767 C765 1.387 . S
C767 C769 1.390 . S
C767 H771 0.950 . S
H768 C764 0.950 . S
C769 C767 1.390 . S
C769 C770 1.387 . S
C769 H772 0.950 . S
C770 C769 1.387 . S
C770 C773 1.387 . S
H771 C767 0.950 . S
H772 C769 0.950 . S
C773 C764 1.390 . S
C773 H766 0.950 . S
C773 C770 1.387 . S
C774 C775 1.387 . S
C774 H778 0.950 . S
C774 C783 1.390 . S
C775 C774 1.387 . S
C775 C777 1.387 . S
H776 C783 0.950 . S
C777 C775 1.387 . S
C777 C779 1.390 . S
C777 H781 0.950 . S
H778 C774 0.950 . S
C779 C777 1.390 . S
C779 C780 1.387 . S
C779 H782 0.950 . S
C780 C779 1.387 . S
C780 C783 1.387 . S
H781 C777 0.950 . S
H782 C779 0.950 . S
C783 C774 1.390 . S
C783 H776 0.950 . S
C783 C780 1.387 . S
C784 C785 1.387 . S
C784 H788 0.950 . S
C784 C793 1.390 . S
C785 C784 1.387 . S
C785 C787 1.387 . S
H786 C793 0.950 . S
C787 C785 1.387 . S
C787 C789 1.390 . S
C787 H791 0.950 . S
H788 C784 0.950 . S
C789 C787 1.390 . S
C789 C790 1.387 . S
C789 H792 0.950 . S
C790 C789 1.387 . S
C790 C793 1.387 . S
H791 C787 0.950 . S
H792 C789 0.950 . S
C793 C784 1.390 . S
C793 H786 0.950 . S
C793 C790 1.387 . S
C794 C795 1.387 . S
C794 H798 0.950 . S
C794 C803 1.390 . S
C795 C794 1.387 . S
C795 C797 1.387 . S
H796 C803 0.950 . S
C797 C795 1.387 . S
C797 C799 1.390 . S
C797 H801 0.950 . S
H798 C794 0.950 . S
C799 C797 1.390 . S
C799 C800 1.387 . S
C799 H802 0.950 . S
C800 C799 1.387 . S
C800 C803 1.387 . S
H801 C797 0.950 . S
H802 C799 0.950 . S
C803 C794 1.390 . S
C803 H796 0.950 . S
C803 C800 1.387 . S
C804 C805 1.387 . S
C804 H808 0.950 . S
C804 C813 1.390 . S
C805 C804 1.387 . S
C805 C807 1.387 . S
H806 C813 0.950 . S
C807 C805 1.387 . S
C807 C809 1.390 . S
C807 H811 0.950 . S
H808 C804 0.950 . S
C809 C807 1.390 . S
C809 C810 1.387 . S
C809 H812 0.950 . S
C810 C809 1.387 . S
C810 C813 1.387 . S
H811 C807 0.950 . S
H812 C809 0.950 . S
C813 C804 1.390 . S
C813 H806 0.950 . S
C813 C810 1.387 . S
C814 C815 1.387 . S
C814 H818 0.950 . S
C814 C823 1.390 . S
C815 C814 1.387 . S
C815 C817 1.387 . S
H816 C823 0.950 . S
C817 C815 1.387 . S
C817 C819 1.390 . S
C817 H821 0.950 . S
H818 C814 0.950 . S
C819 C817 1.390 . S
C819 C820 1.387 . S
C819 H822 0.950 . S
C820 C819 1.387 . S
C820 C823 1.387 . S
H821 C817 0.950 . S
H822 C819 0.950 . S
C823 C814 1.390 . S
C823 H816 0.950 . S
C823 C820 1.387 . S
C824 C825 1.387 . S
C824 H828 0.950 . S
C824 C833 1.390 . S
C825 C824 1.387 . S
C825 C827 1.387 . S
H826 C833 0.950 . S
C827 C825 1.387 . S
C827 C829 1.390 . S
C827 H831 0.950 . S
H828 C824 0.950 . S
C829 C827 1.390 . S
C829 C830 1.387 . S
C829 H832 0.950 . S
C830 C829 1.387 . S
C830 C833 1.387 . S
H831 C827 0.950 . S
H832 C829 0.950 . S
C833 C824 1.390 . S
C833 H826 0.950 . S
C833 C830 1.387 . S
C834 C835 1.387 . S
C834 H838 0.950 . S
C834 C843 1.390 . S
C835 C834 1.387 . S
C835 C837 1.387 . S
H836 C843 0.950 . S
C837 C835 1.387 . S
C837 C839 1.390 . S
C837 H841 0.950 . S
H838 C834 0.950 . S
C839 C837 1.390 . S
C839 C840 1.387 . S
C839 H842 0.950 . S
C840 C839 1.387 . S
C840 C843 1.387 . S
H841 C837 0.950 . S
H842 C839 0.950 . S
C843 C834 1.390 . S
C843 H836 0.950 . S
C843 C840 1.387 . S
C844 C845 1.387 . S
C844 H848 0.950 . S
C844 C853 1.390 . S
C845 C844 1.387 . S
C845 C847 1.387 . S
H846 C853 0.950 . S
C847 C845 1.387 . S
C847 C849 1.390 . S
C847 H851 0.950 . S
H848 C844 0.950 . S
C849 C847 1.390 . S
C849 C850 1.387 . S
C849 H852 0.950 . S
C850 C849 1.387 . S
C850 C853 1.387 . S
H851 C847 0.950 . S
H852 C849 0.950 . S
C853 C844 1.390 . S
C853 H846 0.950 . S
C853 C850 1.387 . S
C854 C855 1.387 . S
C854 H858 0.950 . S
C854 C863 1.390 . S
C855 C854 1.387 . S
C855 C857 1.387 . S
H856 C863 0.950 . S
C857 C855 1.387 . S
C857 C859 1.390 . S
C857 H861 0.950 . S
H858 C854 0.950 . S
C859 C857 1.390 . S
C859 C860 1.387 . S
C859 H862 0.950 . S
C860 C859 1.387 . S
C860 C863 1.387 . S
H861 C857 0.950 . S
H862 C859 0.950 . S
C863 C854 1.390 . S
C863 H856 0.950 . S
C863 C860 1.387 . S
C864 C865 1.387 . S
C864 H868 0.950 . S
C864 C873 1.390 . S
C865 C864 1.387 . S
C865 C867 1.387 . S
H866 C873 0.950 . S
C867 C865 1.387 . S
C867 C869 1.390 . S
C867 H871 0.950 . S
H868 C864 0.950 . S
C869 C867 1.390 . S
C869 C870 1.387 . S
C869 H872 0.950 . S
C870 C869 1.387 . S
C870 C873 1.387 . S
H871 C867 0.950 . S
H872 C869 0.950 . S
C873 C864 1.390 . S
C873 H866 0.950 . S
C873 C870 1.387 . S
C874 C875 1.387 . S
C874 H878 0.950 . S
C874 C883 1.390 . S
C875 C874 1.387 . S
C875 C877 1.387 . S
H876 C883 0.950 . S
C877 C875 1.387 . S
C877 C879 1.390 . S
C877 H881 0.950 . S
H878 C874 0.950 . S
C879 C877 1.390 . S
C879 C880 1.387 . S
C879 H882 0.950 . S
C880 C879 1.387 . S
C880 C883 1.387 . S
H881 C877 0.950 . S
H882 C879 0.950 . S
C883 C874 1.390 . S
C883 H876 0.950 . S
C883 C880 1.387 . S
C884 C885 1.387 . S
C884 H888 0.950 . S
C884 C893 1.390 . S
C885 C884 1.387 . S
C885 C887 1.387 . S
H886 C893 0.950 . S
C887 C885 1.387 . S
C887 C889 1.390 . S
C887 H891 0.950 . S
H888 C884 0.950 . S
C889 C887 1.390 . S
C889 C890 1.387 . S
C889 H892 0.950 . S
C890 C889 1.387 . S
C890 C893 1.387 . S
H891 C887 0.950 . S
H892 C889 0.950 . S
C893 C884 1.390 . S
C893 H886 0.950 . S
C893 C890 1.387 . S
C894 C895 1.387 . S
C894 H898 0.950 . S
C894 C903 1.390 . S
C895 C894 1.387 . S
C895 C897 1.387 . S
H896 C903 0.950 . S
C897 C895 1.387 . S
C897 C899 1.390 . S
C897 H901 0.950 . S
H898 C894 0.950 . S
C899 C897 1.390 . S
C899 C900 1.387 . S
C899 H902 0.950 . S
C900 C899 1.387 . S
C900 C903 1.387 . S
H901 C897 0.950 . S
H902 C899 0.950 . S
C903 C894 1.390 . S
C903 H896 0.950 . S
C903 C900 1.387 . S
C904 C905 1.387 . S
C904 H908 0.950 . S
C904 C913 1.390 . S
C905 C904 1.387 . S
C905 C907 1.387 . S
H906 C913 0.950 . S
C907 C905 1.387 . S
C907 C909 1.390 . S
C907 H911 0.950 . S
H908 C904 0.950 . S
C909 C907 1.390 . S
C909 C910 1.387 . S
C909 H912 0.950 . S
C910 C909 1.387 . S
C910 C913 1.387 . S
H911 C907 0.950 . S
H912 C909 0.950 . S
C913 C904 1.390 . S
C913 H906 0.950 . S
C913 C910 1.387 . S
C914 C915 1.387 . S
C914 H918 0.950 . S
C914 C923 1.390 . S
C915 C914 1.387 . S
C915 C917 1.387 . S
H916 C923 0.950 . S
C917 C915 1.387 . S
C917 C919 1.390 . S
C917 H921 0.950 . S
H918 C914 0.950 . S
C919 C917 1.390 . S
C919 C920 1.387 . S
C919 H922 0.950 . S
C920 C919 1.387 . S
C920 C923 1.387 . S
H921 C917 0.950 . S
H922 C919 0.950 . S
C923 C914 1.390 . S
C923 H916 0.950 . S
C923 C920 1.387 . S
C924 C925 1.387 . S
C924 H928 0.950 . S
C924 C933 1.390 . S
C925 C924 1.387 . S
C925 C927 1.387 . S
H926 C933 0.950 . S
C927 C925 1.387 . S
C927 C929 1.390 . S
C927 H931 0.950 . S
H928 C924 0.950 . S
C929 C927 1.390 . S
C929 C930 1.387 . S
C929 H932 0.950 . S
C930 C929 1.387 . S
C930 C933 1.387 . S
H931 C927 0.950 . S
H932 C929 0.950 . S
C933 C924 1.390 . S
C933 H926 0.950 . S
C933 C930 1.387 . S
C934 C935 1.387 . S
C934 H938 0.950 . S
C934 C943 1.390 . S
C935 C934 1.387 . S
C935 C937 1.387 . S
H936 C943 0.950 . S
C937 C935 1.387 . S
C937 C939 1.390 . S
C937 H941 0.950 . S
H938 C934 0.950 . S
C939 C937 1.390 . S
C939 C940 1.387 . S
C939 H942 0.950 . S
C940 C939 1.387 . S
C940 C943 1.387 . S
H941 C937 0.950 . S
H942 C939 0.950 . S
C943 C934 1.390 . S
C943 H936 0.950 . S
C943 C940 1.387 . S
C944 C945 1.387 . S
C944 H948 0.950 . S
C944 C953 1.390 . S
C945 C944 1.387 . S
C945 C947 1.387 . S
H946 C953 0.950 . S
C947 C945 1.387 . S
C947 C949 1.390 . S
C947 H951 0.950 . S
H948 C944 0.950 . S
C949 C947 1.390 . S
C949 C950 1.387 . S
C949 H952 0.950 . S
C950 C949 1.387 . S
C950 C953 1.387 . S
H951 C947 0.950 . S
H952 C949 0.950 . S
C953 C944 1.390 . S
C953 H946 0.950 . S
C953 C950 1.387 . S
C954 C955 1.387 . S
C954 H958 0.950 . S
C954 C963 1.390 . S
C955 C954 1.387 . S
C955 C957 1.387 . S
H956 C963 0.950 . S
C957 C955 1.387 . S
C957 C959 1.390 . S
C957 H961 0.950 . S
H958 C954 0.950 . S
C959 C957 1.390 . S
C959 C960 1.387 . S
C959 H962 0.950 . S
C960 C959 1.387 . S
C960 C963 1.387 . S
H961 C957 0.950 . S
H962 C959 0.950 . S
C963 C954 1.390 . S
C963 H956 0.950 . S
C963 C960 1.387 . S
C490 C195 1.428 . S
C485 C9 1.412 . S
C500 C173 1.438 . S
C495 C22 1.489 . S
C510 C170 0.846 . S
C505 C49 0.847 . S
C515 C61 1.501 . S
C520 C182 1.453 . S
C525 C81 1.483 . S
C530 C165 1.427 . S
C540 C187 0.847 . S
C535 C108 0.845 . S
C545 C122 1.508 . S
C550 C192 1.465 . S
C555 C148 1.411 . S
C560 C188 1.428 . S
C570 C246 2.277 . S
C565 C18 2.290 . S
C575 C39 1.364 . S
C580 C296 1.443 . S
C590 C219 2.269 . S
C585 C58 2.285 . S
C600 C295 0.911 . S
C595 C69 0.897 . S
C605 C89 0.894 . S
C610 C224 0.908 . S
C620 C290 1.436 . S
C615 C102 1.484 . S
C625 C139 1.367 . S
C630 C249 1.450 . S
C635 C142 1.487 . S
C640 C281 1.436 . S
C645 C1 1.492 . S
C650 C273 1.441 . S
C655 C98 1.368 . S
C660 C303 1.447 . S
C670 C227 2.286 . S
C665 C119 2.293 . S
C680 C278 0.921 . S
C675 C128 0.907 . S
C685 C159 2.291 . S
C690 C236 2.276 . S
C695 C41 1.499 . S
C700 C300 1.454 . S
C710 C242 1.454 . S
C705 C78 1.372 . S
C715 C28 0.904 . S
C720 C241 0.918 . S
C725 C149 1.410 . S
C730 C357 1.428 . S
C735 C82 1.489 . S
C740 C335 1.437 . S
C750 C332 0.849 . S
C745 C109 0.843 . S
C760 C344 1.450 . S
C755 C121 1.500 . S
C765 C21 1.483 . S
C770 C327 1.430 . S
C780 C349 0.848 . S
C775 C48 0.842 . S
C785 C62 1.506 . S
C790 C354 1.462 . S
C795 C8 1.408 . S
C800 C350 1.427 . S
C805 C158 2.290 . S
C810 C408 2.275 . S
C820 C458 1.442 . S
C815 C99 1.363 . S
C825 C118 2.284 . S
C830 C381 2.268 . S
C835 C129 0.900 . S
C840 C457 0.911 . S
C850 C386 0.909 . S
C845 C29 0.893 . S
C855 C42 1.482 . S
C860 C452 1.432 . S
C870 C411 1.451 . S
C865 C79 1.368 . S
C880 C443 1.439 . S
C875 C2 1.489 . S
C890 C435 1.440 . S
C885 C141 1.492 . S
C895 C38 1.368 . S
C900 C465 1.448 . S
C905 C59 2.293 . S
C910 C389 2.286 . S
C920 C440 0.921 . S
C915 C68 0.906 . S
C925 C19 2.292 . S
C930 C398 2.277 . S
C935 C101 1.499 . S
C940 C462 1.455 . S
C950 C404 1.454 . S
C945 C138 1.371 . S
C960 C403 0.918 . S
C955 C88 0.902 . S
