# Generated by pormake.
# Topology wbl, (4,4)-cn, num edge types: 1
# Building blocks:
#     Node 0, Type 0, BuildingBlock: MUDLON_clean_sbu_0, # of connection points: 4
#     Node 1, Type 0, BuildingBlock: MUDLON_clean_sbu_0, # of connection points: 4
#     Node 2, Type 0, BuildingBlock: MUDLON_clean_sbu_0, # of connection points: 4
#     Node 3, Type 0, BuildingBlock: MUDLON_clean_sbu_0, # of connection points: 4
#     Node 4, Type 0, BuildingBlock: MUDLON_clean_sbu_0, # of connection points: 4
#     Node 5, Type 0, BuildingBlock: MUDLON_clean_sbu_0, # of connection points: 4
#     Node 6, Type 0, BuildingBlock: MUDLON_clean_sbu_0, # of connection points: 4
#     Node 7, Type 0, BuildingBlock: MUDLON_clean_sbu_0, # of connection points: 4
#     Node 8, Type 1, BuildingBlock: TATPOV_clean_sbu_0, # of connection points: 4
#     Node 9, Type 1, BuildingBlock: TATPOV_clean_sbu_0, # of connection points: 4
#     Node 10, Type 1, BuildingBlock: TATPOV_clean_sbu_0, # of connection points: 4
#     Node 11, Type 1, BuildingBlock: TATPOV_clean_sbu_0, # of connection points: 4
#     Node 12, Type 1, BuildingBlock: TATPOV_clean_sbu_0, # of connection points: 4
#     Node 13, Type 1, BuildingBlock: TATPOV_clean_sbu_0, # of connection points: 4
#     Node 14, Type 1, BuildingBlock: TATPOV_clean_sbu_0, # of connection points: 4
#     Node 15, Type 1, BuildingBlock: TATPOV_clean_sbu_0, # of connection points: 4
#     Edge 16, Type (0, 1), BuildingBlock: UVAHIK_clean_linker_0, # of connection points: 2
#     Edge 17, Type (0, 1), BuildingBlock: UVAHIK_clean_linker_0, # of connection points: 2
#     Edge 18, Type (0, 1), BuildingBlock: UVAHIK_clean_linker_0, # of connection points: 2
#     Edge 19, Type (0, 1), BuildingBlock: UVAHIK_clean_linker_0, # of connection points: 2
#     Edge 20, Type (0, 1), BuildingBlock: UVAHIK_clean_linker_0, # of connection points: 2
#     Edge 21, Type (0, 1), BuildingBlock: UVAHIK_clean_linker_0, # of connection points: 2
#     Edge 22, Type (0, 1), BuildingBlock: UVAHIK_clean_linker_0, # of connection points: 2
#     Edge 23, Type (0, 1), BuildingBlock: UVAHIK_clean_linker_0, # of connection points: 2
#     Edge 24, Type (0, 1), BuildingBlock: UVAHIK_clean_linker_0, # of connection points: 2
#     Edge 25, Type (0, 1), BuildingBlock: UVAHIK_clean_linker_0, # of connection points: 2
#     Edge 26, Type (0, 1), BuildingBlock: UVAHIK_clean_linker_0, # of connection points: 2
#     Edge 27, Type (0, 1), BuildingBlock: UVAHIK_clean_linker_0, # of connection points: 2
#     Edge 28, Type (0, 1), BuildingBlock: UVAHIK_clean_linker_0, # of connection points: 2
#     Edge 29, Type (0, 1), BuildingBlock: UVAHIK_clean_linker_0, # of connection points: 2
#     Edge 30, Type (0, 1), BuildingBlock: UVAHIK_clean_linker_0, # of connection points: 2
#     Edge 31, Type (0, 1), BuildingBlock: UVAHIK_clean_linker_0, # of connection points: 2
#     Edge 32, Type (0, 1), BuildingBlock: UVAHIK_clean_linker_0, # of connection points: 2
#     Edge 33, Type (0, 1), BuildingBlock: UVAHIK_clean_linker_0, # of connection points: 2
#     Edge 34, Type (0, 1), BuildingBlock: UVAHIK_clean_linker_0, # of connection points: 2
#     Edge 35, Type (0, 1), BuildingBlock: UVAHIK_clean_linker_0, # of connection points: 2
#     Edge 36, Type (0, 1), BuildingBlock: UVAHIK_clean_linker_0, # of connection points: 2
#     Edge 37, Type (0, 1), BuildingBlock: UVAHIK_clean_linker_0, # of connection points: 2
#     Edge 38, Type (0, 1), BuildingBlock: UVAHIK_clean_linker_0, # of connection points: 2
#     Edge 39, Type (0, 1), BuildingBlock: UVAHIK_clean_linker_0, # of connection points: 2
#     Edge 40, Type (0, 1), BuildingBlock: UVAHIK_clean_linker_0, # of connection points: 2
#     Edge 41, Type (0, 1), BuildingBlock: UVAHIK_clean_linker_0, # of connection points: 2
#     Edge 42, Type (0, 1), BuildingBlock: UVAHIK_clean_linker_0, # of connection points: 2
#     Edge 43, Type (0, 1), BuildingBlock: UVAHIK_clean_linker_0, # of connection points: 2
#     Edge 44, Type (0, 1), BuildingBlock: UVAHIK_clean_linker_0, # of connection points: 2
#     Edge 45, Type (0, 1), BuildingBlock: UVAHIK_clean_linker_0, # of connection points: 2
#     Edge 46, Type (0, 1), BuildingBlock: UVAHIK_clean_linker_0, # of connection points: 2
#     Edge 47, Type (0, 1), BuildingBlock: UVAHIK_clean_linker_0, # of connection points: 2
# Relax obj value: 0.243
# Max RMSD: 0.231
# Mean RMSD: 0.173
data_MOF--net-wbl--node1-MUDLON_clean_sbu_0--node2-TATPOV_clean_sbu_0--edge1-UVAHIK_clean_linker_0
_symmetry_space_group_name_H-M    P1
_symmetry_Int_Tables_number       1
_symmetry_cell_setting            triclinic
loop_
_symmetry_equiv_pos_as_xyz
'x, y, z'
_cell_length_a     44.451184
_cell_length_b     44.464549
_cell_length_c     94.745845
_cell_angle_alpha  91.168653
_cell_angle_beta   91.198113
_cell_angle_gamma 89.968778
loop_
_atom_site_label
_atom_site_type_symbol
_atom_site_fract_x
_atom_site_fract_y
_atom_site_fract_z
_atom_type_partial_charge
Mg0 Mg 0.19472 0.16572 0.35733 0.0
C1 C 0.17841 0.13954 0.38509 0.0
O2 O 0.1705 0.16768 0.38732 0.0
C3 C 0.12846 0.16764 0.34989 0.0
O4 O 0.12701 0.15772 0.36282 0.0
C5 C 0.22585 0.13415 0.33365 0.0
O6 O 0.19754 0.13036 0.32976 0.0
O7 O 0.23191 0.15001 0.34467 0.0
O8 O 0.18797 0.13162 0.37301 0.0
O9 O 0.20333 0.20618 0.36995 0.0
C10 C 0.18607 0.22879 0.36858 0.0
O11 O 0.168 0.22981 0.35745 0.0
O12 O 0.1541 0.17218 0.34464 0.0
Mg13 Mg 0.01691 0.67825 0.60715 0.0
C14 C 0.07697 0.67206 0.62296 0.0
O15 O 0.08811 0.67934 0.61076 0.0
C16 C 0.00391 0.64289 0.58013 0.0
O17 O 0.99055 0.66819 0.57675 0.0
C18 C 0.04508 0.7394 0.60412 0.0
O19 O 0.04491 0.73849 0.61797 0.0
O20 O 0.03248 0.71829 0.59694 0.0
O21 O 0.0487 0.66917 0.62404 0.0
O22 O 0.97441 0.68109 0.61799 0.0
C23 C 0.95639 0.65897 0.61667 0.0
O24 O 0.96152 0.63835 0.60689 0.0
O25 O 0.01693 0.64094 0.59215 0.0
Mg26 Mg 0.52915 0.48559 0.85481 0.0
C27 C 0.5586 0.51255 0.88116 0.0
O28 O 0.56258 0.484 0.88397 0.0
C29 C 0.56586 0.49183 0.82848 0.0
O30 O 0.55225 0.51806 0.82825 0.0
C31 C 0.47541 0.52479 0.85451 0.0
O32 O 0.48455 0.52699 0.86777 0.0
O33 O 0.48896 0.50666 0.84625 0.0
O34 O 0.54814 0.51961 0.86909 0.0
O35 O 0.52018 0.44771 0.86814 0.0
C36 C 0.5387 0.42593 0.86827 0.0
O37 O 0.55953 0.42474 0.85863 0.0
O38 O 0.5603 0.47384 0.83834 0.0
Mg39 Mg 0.67892 0.99203 0.10289 0.0
C40 C 0.73977 0.00594 0.11618 0.0
O41 O 0.73874 0.02718 0.10676 0.0
C42 C 0.65458 0.92959 0.09991 0.0
O43 O 0.65589 0.93249 0.11374 0.0
C44 C 0.70567 0.02322 0.07833 0.0
O45 O 0.72201 0.99858 0.0785 0.0
O46 O 0.68517 0.02671 0.08738 0.0
O47 O 0.7189 0.98641 0.11612 0.0
O48 O 0.64343 0.00279 0.11758 0.0
C49 C 0.65019 0.01351 0.12978 0.0
O50 O 0.67817 0.02143 0.1326 0.0
O51 O 0.66462 0.9507 0.09248 0.0
Mg52 Mg 0.00963 0.66746 0.92257 0.0
C53 C 0.03145 0.72655 0.91201 0.0
O54 O 0.05337 0.72006 0.92094 0.0
C55 C 0.96418 0.64608 0.94385 0.0
O56 O 0.9845 0.65631 0.95298 0.0
C57 C 0.04659 0.68745 0.94805 0.0
O58 O 0.02546 0.70814 0.94824 0.0
O59 O 0.04555 0.66696 0.93849 0.0
O60 O 0.00806 0.71006 0.91159 0.0
O61 O 0.01824 0.63677 0.90512 0.0
C62 C 0.99762 0.63902 0.8957 0.0
O63 O 0.9755 0.65804 0.89796 0.0
O64 O 0.96783 0.65028 0.93076 0.0
Mg65 Mg 0.51909 0.48757 0.17019 0.0
C66 C 0.48242 0.4641 0.14507 0.0
O67 O 0.50649 0.44736 0.14339 0.0
C68 C 0.54148 0.46031 0.1969 0.0
O69 O 0.54446 0.48912 0.19995 0.0
C70 C 0.48919 0.54531 0.17949 0.0
O71 O 0.46766 0.53402 0.17129 0.0
O72 O 0.51361 0.53071 0.181 0.0
O73 O 0.48043 0.48038 0.1562 0.0
O74 O 0.5572 0.48907 0.15628 0.0
C75 C 0.57295 0.46537 0.15487 0.0
O76 O 0.56654 0.44187 0.16242 0.0
O77 O 0.52877 0.45249 0.18525 0.0
Mg78 Mg 0.68669 0.0001 0.42272 0.0
C79 C 0.66023 0.01734 0.39434 0.0
O80 O 0.65702 0.98803 0.39308 0.0
C81 C 0.64216 0.00267 0.44687 0.0
O82 O 0.65418 0.02934 0.44921 0.0
C83 C 0.71936 0.05401 0.43341 0.0
O84 O 0.69617 0.06566 0.42666 0.0
O85 O 0.72166 0.02553 0.43392 0.0
O86 O 0.66975 0.02862 0.40603 0.0
O87 O 0.70358 0.96145 0.4111 0.0
C88 C 0.6906 0.93615 0.41206 0.0
O89 O 0.67162 0.93239 0.42231 0.0
O90 O 0.65132 0.98644 0.43663 0.0
Mg91 Mg 0.19944 0.15475 0.67445 0.0
C92 C 0.24176 0.18118 0.65401 0.0
O93 O 0.21797 0.19809 0.65169 0.0
C94 C 0.15506 0.18526 0.69172 0.0
O95 O 0.14895 0.15652 0.69291 0.0
C96 C 0.21436 0.12209 0.70129 0.0
O97 O 0.22202 0.14949 0.70538 0.0
O98 O 0.2042 0.11763 0.68878 0.0
O99 O 0.24172 0.16367 0.66445 0.0
O100 O 0.16893 0.14318 0.65708 0.0
C101 C 0.17828 0.13196 0.64553 0.0
O102 O 0.20659 0.1238 0.64463 0.0
O103 O 0.17789 0.1927 0.68473 0.0
Zn104 Zn 0.39807 0.74222 0.00166 0.0
Zn105 Zn 0.40032 0.69371 0.01827 0.0
O106 O 0.35514 0.70054 0.01424 0.0
O107 O 0.35272 0.74247 0.0023 0.0
O108 O 0.4002 0.65903 0.03167 0.0
O109 O 0.42307 0.76564 0.01597 0.0
O110 O 0.42407 0.7262 0.02963 0.0
C111 C 0.33971 0.72081 0.00812 0.0
C112 C 0.42904 0.6908 0.98932 0.0
O113 O 0.42345 0.67864 0.00104 0.0
O114 O 0.41983 0.71723 0.98689 0.0
C115 C 0.40115 0.63143 0.0279 0.0
O116 O 0.40255 0.6242 0.01441 0.0
C117 C 0.43173 0.75322 0.02726 0.0
Zn118 Zn 0.4528 0.84335 0.29127 0.0
Zn119 Zn 0.48111 0.87716 0.2721 0.0
O120 O 0.44636 0.90418 0.27863 0.0
O121 O 0.42282 0.87725 0.29419 0.0
O122 O 0.50032 0.90161 0.25706 0.0
O123 O 0.44567 0.81055 0.27641 0.0
O124 O 0.47007 0.83803 0.26136 0.0
C125 C 0.42532 0.9014 0.28744 0.0
C126 C 0.51523 0.85735 0.29863 0.0
O127 O 0.51442 0.87165 0.2871 0.0
O128 O 0.49208 0.84353 0.30264 0.0
C129 C 0.48534 0.90613 0.24572 0.0
O130 O 0.45799 0.89508 0.24438 0.0
C131 C 0.45628 0.81388 0.26424 0.0
Zn132 Zn 0.31182 0.90016 0.50728 0.0
Zn133 Zn 0.3134 0.948 0.52533 0.0
O134 O 0.35775 0.93981 0.52083 0.0
O135 O 0.35733 0.899 0.50731 0.0
O136 O 0.3161 0.98222 0.53962 0.0
O137 O 0.2874 0.87704 0.52116 0.0
O138 O 0.28924 0.91614 0.53576 0.0
C139 C 0.3718 0.91989 0.5137 0.0
C140 C 0.28256 0.95366 0.49645 0.0
O141 O 0.28977 0.96492 0.50853 0.0
O142 O 0.28979 0.92681 0.49329 0.0
C143 C 0.31721 0.00977 0.53632 0.0
O144 O 0.3165 0.01694 0.52293 0.0
C145 C 0.28024 0.88952 0.53275 0.0
Zn146 Zn 0.29694 0.78854 0.76018 0.0
Zn147 Zn 0.24712 0.78429 0.7761 0.0
O148 O 0.25257 0.82984 0.7737 0.0
O149 O 0.29384 0.83387 0.76144 0.0
O150 O 0.21293 0.78095 0.78964 0.0
O151 O 0.32159 0.76524 0.77442 0.0
O152 O 0.28019 0.7607 0.78652 0.0
C153 C 0.27188 0.84609 0.76765 0.0
C154 C 0.2459 0.75754 0.74636 0.0
O155 O 0.23263 0.76302 0.75793 0.0
O156 O 0.27289 0.76593 0.74481 0.0
C157 C 0.19069 0.79881 0.79071 0.0
O158 O 0.18809 0.8214 0.78205 0.0
C159 C 0.30799 0.75495 0.78489 0.0
Zn160 Zn 0.94002 0.29157 0.53153 0.0
Zn161 Zn 0.98149 0.29035 0.51101 0.0
O162 O 0.97544 0.33527 0.51572 0.0
O163 O 0.94059 0.33696 0.53186 0.0
O164 O 0.01037 0.29177 0.49486 0.0
O165 O 0.91118 0.26849 0.5187 0.0
O166 O 0.94534 0.26735 0.50221 0.0
C167 C 0.95865 0.35038 0.52398 0.0
C168 C 0.99509 0.25987 0.53903 0.0
O169 O 0.00299 0.26668 0.52664 0.0
O170 O 0.96973 0.26827 0.54356 0.0
C171 C 0.03857 0.28707 0.49574 0.0
O172 O 0.05092 0.28013 0.50796 0.0
C173 C 0.91933 0.26029 0.50649 0.0
Zn174 Zn 0.89275 0.39658 0.76822 0.0
Zn175 Zn 0.8954 0.44111 0.74941 0.0
O176 O 0.85024 0.43591 0.75324 0.0
O177 O 0.84745 0.39837 0.76792 0.0
O178 O 0.89481 0.47256 0.73439 0.0
O179 O 0.91493 0.36894 0.75493 0.0
O180 O 0.91849 0.40608 0.74005 0.0
C181 C 0.8346 0.41841 0.76065 0.0
C182 C 0.92509 0.45002 0.7784 0.0
O183 O 0.91882 0.45998 0.76616 0.0
O184 O 0.91641 0.42402 0.78177 0.0
C185 C 0.89115 0.50047 0.737 0.0
O186 O 0.88841 0.50989 0.75014 0.0
C187 C 0.92434 0.37907 0.74344 0.0
Zn188 Zn 0.80045 0.35703 0.02184 0.0
Zn189 Zn 0.74948 0.36077 0.00594 0.0
O190 O 0.75663 0.31562 0.00875 0.0
O191 O 0.79943 0.31145 0.02063 0.0
O192 O 0.71473 0.36052 0.99193 0.0
O193 O 0.82336 0.38157 0.00791 0.0
O194 O 0.7807 0.38681 0.99603 0.0
C195 C 0.77669 0.29931 0.01459 0.0
C196 C 0.74903 0.38664 0.03557 0.0
O197 O 0.73489 0.38105 0.02398 0.0
O198 O 0.77641 0.37898 0.0371 0.0
C199 C 0.68704 0.36438 0.99453 0.0
O200 O 0.6788 0.36974 0.00758 0.0
C201 C 0.80855 0.39293 0.99778 0.0
Zn202 Zn 0.83236 0.24051 0.24082 0.0
Zn203 Zn 0.79909 0.20931 0.25938 0.0
O204 O 0.77195 0.24461 0.25381 0.0
O205 O 0.79867 0.27129 0.23932 0.0
O206 O 0.77489 0.1891 0.27422 0.0
O207 O 0.86596 0.24473 0.25555 0.0
O208 O 0.8385 0.219 0.27012 0.0
C209 C 0.77453 0.26725 0.24591 0.0
C210 C 0.818 0.17886 0.23185 0.0
O211 O 0.80454 0.17787 0.24358 0.0
O212 O 0.83109 0.2028 0.22829 0.0
C213 C 0.75798 0.16628 0.27227 0.0
O214 O 0.75552 0.15377 0.25962 0.0
C215 C 0.86283 0.23268 0.26743 0.0
C216 C 0.27902 0.11544 0.3324 0.0
C217 C 0.2497 0.11649 0.32658 0.0
C218 C 0.30027 0.09544 0.32689 0.0
C219 C 0.32932 0.03493 0.32074 0.0
H220 H 0.33749 0.01613 0.28084 0.0
C221 C 0.38389 0.92508 0.30131 0.0
C222 C 0.40483 0.92696 0.29045 0.0
C223 C 0.36605 0.94979 0.30493 0.0
C224 C 0.33562 0.02129 0.29201 0.0
H225 H 0.22028 0.09865 0.30987 0.0
H226 H 0.2573 0.06381 0.3003 0.0
H227 H 0.30586 0.05841 0.28829 0.0
H228 H 0.42277 0.95614 0.27458 0.0
H229 H 0.39138 0.99934 0.28089 0.0
H230 H 0.35881 0.99779 0.32451 0.0
C231 C 0.26391 0.07845 0.3091 0.0
C232 C 0.31737 0.04535 0.29627 0.0
C233 C 0.24263 0.09833 0.31465 0.0
C234 C 0.40689 0.95393 0.28302 0.0
C235 C 0.38886 0.97865 0.28659 0.0
C236 C 0.34735 0.01082 0.31649 0.0
C237 C 0.29271 0.0762 0.31539 0.0
C238 C 0.31383 0.05226 0.3107 0.0
C239 C 0.36858 0.97696 0.29773 0.0
C240 C 0.35044 0.0035 0.30209 0.0
H241 H 0.28527 0.12922 0.34156 0.0
H242 H 0.32243 0.09455 0.33183 0.0
H243 H 0.32681 0.03942 0.33193 0.0
H244 H 0.3816 0.90465 0.30724 0.0
H245 H 0.35025 0.94763 0.3134 0.0
C246 C 0.07037 0.75767 0.58258 0.0
C247 C 0.06459 0.7612 0.59704 0.0
C248 C 0.09224 0.77512 0.57627 0.0
C249 C 0.16087 0.81903 0.58544 0.0
H250 H 0.15505 0.83951 0.54589 0.0
C251 C 0.25051 0.88729 0.55501 0.0
C252 C 0.25841 0.87452 0.54189 0.0
C253 C 0.22699 0.8751 0.56267 0.0
C254 C 0.15698 0.83385 0.55695 0.0
H255 H 0.07602 0.7871 0.61604 0.0
H256 H 0.11358 0.81828 0.60492 0.0
H257 H 0.11168 0.81795 0.55729 0.0
H258 H 0.24851 0.83819 0.52683 0.0
H259 H 0.20746 0.81731 0.54012 0.0
H260 H 0.20626 0.83542 0.58499 0.0
C261 C 0.1018 0.80139 0.59854 0.0
C262 C 0.13218 0.82141 0.56348 0.0
C263 C 0.08005 0.78371 0.60488 0.0
C264 C 0.24305 0.84866 0.53687 0.0
C265 C 0.21936 0.8368 0.54442 0.0
C266 C 0.18559 0.83189 0.57892 0.0
C267 C 0.10868 0.79682 0.58422 0.0
C268 C 0.13398 0.81319 0.57773 0.0
C269 C 0.21072 0.85023 0.55724 0.0
C270 C 0.18405 0.83878 0.56454 0.0
H271 H 0.05898 0.74047 0.57621 0.0
H272 H 0.09711 0.7706 0.56528 0.0
H273 H 0.16327 0.81266 0.59637 0.0
H274 H 0.26191 0.90719 0.55917 0.0
H275 H 0.22075 0.88582 0.57256 0.0
C276 C 0.44207 0.54379 0.83492 0.0
C277 C 0.45306 0.54639 0.84891 0.0
C278 C 0.42359 0.56619 0.82926 0.0
C279 C 0.40963 0.64655 0.83273 0.0
H280 H 0.33743 0.63024 0.81019 0.0
C281 C 0.30721 0.71512 0.80318 0.0
C282 C 0.32372 0.73403 0.79449 0.0
C283 C 0.32175 0.69292 0.81102 0.0
C284 C 0.35743 0.63511 0.81655 0.0
H285 H 0.45244 0.57404 0.86807 0.0
H286 H 0.42053 0.61317 0.8581 0.0
H287 H 0.36413 0.58871 0.82153 0.0
H288 H 0.36855 0.74536 0.78771 0.0
H289 H 0.39397 0.70694 0.80164 0.0
H290 H 0.40335 0.69283 0.82749 0.0
C291 C 0.42626 0.59385 0.85154 0.0
C292 C 0.37279 0.61137 0.82294 0.0
C293 C 0.44439 0.57133 0.85725 0.0
C294 C 0.3552 0.73111 0.79428 0.0
C295 C 0.36976 0.7092 0.80228 0.0
C296 C 0.39454 0.67021 0.82618 0.0
C297 C 0.41609 0.59174 0.83743 0.0
C298 C 0.39907 0.61687 0.83106 0.0
C299 C 0.35311 0.68952 0.8105 0.0
C300 C 0.36835 0.6647 0.818 0.0
H301 H 0.44834 0.52485 0.82824 0.0
H302 H 0.41613 0.5641 0.81833 0.0
H303 H 0.43001 0.65136 0.83884 0.0
H304 H 0.28292 0.71674 0.80356 0.0
H305 H 0.30845 0.67818 0.81738 0.0
C306 C 0.631 0.90473 0.07853 0.0
C307 C 0.6374 0.90457 0.0931 0.0
C308 C 0.61136 0.88359 0.07235 0.0
C309 C 0.54831 0.83426 0.08154 0.0
H310 H 0.55557 0.8081 0.04247 0.0
C311 C 0.46291 0.75684 0.04972 0.0
C312 C 0.45353 0.76913 0.03678 0.0
C313 C 0.48615 0.77041 0.05778 0.0
C314 C 0.55335 0.81518 0.05342 0.0
H315 H 0.62958 0.88095 0.1125 0.0
H316 H 0.59581 0.84349 0.10163 0.0
H317 H 0.59713 0.83497 0.05422 0.0
H318 H 0.46056 0.80587 0.02243 0.0
H319 H 0.50115 0.82903 0.03637 0.0
H320 H 0.50434 0.81423 0.08059 0.0
C321 C 0.6054 0.86047 0.09504 0.0
C322 C 0.57705 0.83067 0.06013 0.0
C323 C 0.62494 0.88181 0.10124 0.0
C324 C 0.46718 0.79573 0.03232 0.0
C325 C 0.49059 0.80893 0.04024 0.0
C326 C 0.52471 0.81834 0.07485 0.0
C327 C 0.59784 0.86154 0.08057 0.0
C328 C 0.57449 0.84124 0.07414 0.0
C329 C 0.50063 0.79612 0.05289 0.0
C330 C 0.52674 0.80948 0.06062 0.0
H331 H 0.64015 0.92198 0.07194 0.0
H332 H 0.60578 0.88546 0.06122 0.0
H333 H 0.5454 0.84228 0.09229 0.0
H334 H 0.45281 0.73639 0.05344 0.0
H335 H 0.49351 0.76024 0.06755 0.0
C336 C 0.09305 0.6658 0.95934 0.0
C337 C 0.07288 0.68993 0.95782 0.0
C338 C 0.11923 0.66914 0.96767 0.0
C339 C 0.17331 0.72603 0.97813 0.0
H340 H 0.20245 0.66919 0.00574 0.0
C341 C 0.28882 0.7436 0.00476 0.0
C342 C 0.30671 0.71794 0.00667 0.0
C343 C 0.25817 0.7408 0.0015 0.0
C344 C 0.19483 0.68514 0.99796 0.0
H345 H 0.06384 0.73617 0.96417 0.0
H346 H 0.10993 0.74214 0.97843 0.0
H347 H 0.15262 0.66225 0.99472 0.0
H348 H 0.30647 0.66926 0.0072 0.0
H349 H 0.25335 0.66418 0.00083 0.0
H350 H 0.21569 0.74804 0.98055 0.0
C351 C 0.10532 0.72063 0.97325 0.0
C352 C 0.16622 0.68121 0.99173 0.0
C353 C 0.07894 0.71715 0.96512 0.0
C354 C 0.29314 0.68944 0.00585 0.0
C355 C 0.26258 0.68659 0.00226 0.0
C356 C 0.20203 0.72967 0.98413 0.0
C357 C 0.1259 0.69681 0.97443 0.0
C358 C 0.15531 0.70158 0.98172 0.0
C359 C 0.24482 0.71223 -0.00032 0.0
C360 C 0.21332 0.70921 0.99408 0.0
H361 H 0.0889 0.64451 0.95388 0.0
H362 H 0.13487 0.65051 0.96834 0.0
H363 H 0.16559 0.7418 0.97027 0.0
H364 H 0.29867 0.76587 0.00552 0.0
H365 H 0.24513 0.76112 6e-05 0.0
C366 C 0.45776 0.59049 0.18523 0.0
C367 C 0.48477 0.57442 0.18701 0.0
C368 C 0.45327 0.61772 0.1925 0.0
C369 C 0.44274 0.66406 0.2159 0.0
H370 H 0.50808 0.7213 0.22082 0.0
C371 C 0.44171 0.76114 0.25724 0.0
C372 C 0.45484 0.78871 0.25376 0.0
C373 C 0.4432 0.73635 0.24798 0.0
C374 C 0.48947 0.70575 0.2194 0.0
H375 H 0.52834 0.57445 0.19777 0.0
H376 H 0.52038 0.62182 0.21056 0.0
H377 H 0.51551 0.67563 0.20666 0.0
H378 H 0.47865 0.81219 0.23752 0.0
H379 H 0.48095 0.76896 0.22132 0.0
H380 H 0.41665 0.69428 0.22857 0.0
C381 C 0.5028 0.61355 0.2034 0.0
C382 C 0.49387 0.67938 0.21144 0.0
C383 C 0.5073 0.5863 0.19613 0.0
C384 C 0.46845 0.79124 0.24057 0.0
C385 C 0.46995 0.76642 0.23132 0.0
C386 C 0.43835 0.69042 0.22387 0.0
C387 C 0.47569 0.62952 0.20171 0.0
C388 C 0.47065 0.65811 0.2097 0.0
C389 C 0.45783 0.73854 0.23503 0.0
C390 C 0.46175 0.71145 0.22582 0.0
H391 H 0.43998 0.58204 0.17824 0.0
H392 H 0.43228 0.62965 0.19083 0.0
H393 H 0.42446 0.64802 0.21486 0.0
H394 H 0.43105 0.75838 0.2673 0.0
H395 H 0.43388 0.71514 0.25123 0.0
C396 C 0.6068 0.96216 0.45398 0.0
C397 C 0.61784 0.99162 0.45587 0.0
C398 C 0.58319 0.9519 0.46209 0.0
C399 C 0.5399 0.96801 0.49448 0.0
H400 H 0.47762 0.92263 0.47427 0.0
C401 C 0.41931 0.95035 0.51497 0.0
C402 C 0.40441 0.92337 0.51121 0.0
C403 C 0.44829 0.95597 0.51018 0.0
C404 C 0.49503 0.93478 0.48017 0.0
H405 H 0.61313 0.03319 0.468 0.0
H406 H 0.57145 0.01543 0.48199 0.0
H407 H 0.52217 0.93805 0.46194 0.0
H408 H 0.40932 0.88006 0.50053 0.0
H409 H 0.45996 0.88966 0.49241 0.0
H410 H 0.51214 0.96524 0.51266 0.0
C411 C 0.58137 0.00013 0.47436 0.0
C412 C 0.52062 0.94368 0.47307 0.0
C413 C 0.60512 0.01038 0.46627 0.0
C414 C 0.41998 0.90124 0.50347 0.0
C415 C 0.44895 0.90681 0.49874 0.0
C416 C 0.51418 0.95912 0.5016 0.0
C417 C 0.56989 0.97086 0.47225 0.0
C418 C 0.54331 0.96054 0.4801 0.0
C419 C 0.46299 0.93467 0.50158 0.0
C420 C 0.49139 0.94251 0.49449 0.0
H421 H 0.61627 0.947 0.44616 0.0
H422 H 0.57527 0.92906 0.46035 0.0
H423 H 0.55713 0.98068 0.50025 0.0
H424 H 0.40798 0.96787 0.52093 0.0
H425 H 0.45841 0.9777 0.51253 0.0
C426 C 0.2306 0.10109 0.72462 0.0
C427 C 0.21785 0.09665 0.71103 0.0
C428 C 0.23466 0.07683 0.73363 0.0
C429 C 0.21017 0.99839 0.73926 0.0
H430 H 0.28777 0.99014 0.75825 0.0
C431 C 0.28845 0.89671 0.7598 0.0
C432 C 0.26691 0.87887 0.76634 0.0
C433 C 0.28188 0.92636 0.75627 0.0
C434 C 0.26593 0.99219 0.75307 0.0
H435 H 0.1989 0.06333 0.69634 0.0
H436 H 0.20622 0.0211 0.71198 0.0
H437 H 0.27634 0.03574 0.74527 0.0
H438 H 0.2223 0.87892 0.77521 0.0
H439 H 0.2109 0.93086 0.76912 0.0
H440 H 0.20028 0.9543 0.74645 0.0
C441 C 0.21277 0.04335 0.71575 0.0
C442 C 0.25928 0.01842 0.74574 0.0
C443 C 0.20879 0.06755 0.70674 0.0
C444 C 0.23935 0.89199 0.77011 0.0
C445 C 0.23273 0.92168 0.76654 0.0
C446 C 0.2168 0.9722 0.74661 0.0
C447 C 0.22592 0.04766 0.72927 0.0
C448 C 0.2316 0.02148 0.73845 0.0
C449 C 0.25359 0.93888 0.7592 0.0
C450 C 0.24504 0.96848 0.7533 0.0
H451 H 0.23771 0.12326 0.72827 0.0
H452 H 0.24463 0.0809 0.74403 0.0
H453 H 0.18847 0.00026 0.73393 0.0
H454 H 0.30997 0.88739 0.7568 0.0
H455 H 0.29839 0.93885 0.75053 0.0
C456 C 0.60239 0.45538 0.81791 0.0
C457 C 0.58834 0.4837 0.81774 0.0
C458 C 0.62473 0.44814 0.80828 0.0
C459 C 0.68171 0.48373 0.78686 0.0
H460 H 0.69125 0.40282 0.77154 0.0
C461 C 0.78819 0.44973 0.757 0.0
C462 C 0.80185 0.42342 0.76206 0.0
C463 C 0.75846 0.45669 0.76038 0.0
C464 C 0.68887 0.42553 0.77572 0.0
H465 H 0.58614 0.52631 0.80701 0.0
H466 H 0.62524 0.51361 0.79016 0.0
H467 H 0.64558 0.41617 0.7841 0.0
H468 H 0.79434 0.3828 0.7738 0.0
H469 H 0.74282 0.39498 0.77974 0.0
H470 H 0.72541 0.49283 0.77896 0.0
C471 C 0.61908 0.49713 0.79785 0.0
C472 C 0.66275 0.43316 0.78293 0.0
C473 C 0.59662 0.50435 0.80747 0.0
C474 C 0.78457 0.40333 0.76979 0.0
C475 C 0.7549 0.41023 0.77312 0.0
C476 C 0.70783 0.4761 0.77966 0.0
C477 C 0.6336 0.46905 0.79824 0.0
C478 C 0.65925 0.46211 0.78891 0.0
C479 C 0.74177 0.4374 0.76882 0.0
C480 C 0.71207 0.44667 0.77435 0.0
H481 H 0.59653 0.43892 0.82567 0.0
H482 H 0.63576 0.42649 0.80902 0.0
H483 H 0.67987 0.50614 0.79146 0.0
H484 H 0.80083 0.46564 0.75096 0.0
H485 H 0.74883 0.47761 0.75675 0.0
C486 C 0.69214 0.07072 0.06587 0.0
C487 C 0.71299 0.04769 0.06864 0.0
C488 C 0.69982 0.09468 0.05731 0.0
C489 C 0.76366 0.1392 0.04789 0.0
H490 H 0.71369 0.16723 0.01682 0.0
C491 C 0.79518 0.2473 0.01964 0.0
C492 C 0.77139 0.2667 0.01611 0.0
C493 C 0.78945 0.2176 0.02336 0.0
C494 C 0.72778 0.15997 0.02556 0.0
H495 H 0.75807 0.03152 0.06447 0.0
H496 H 0.7717 0.0739 0.04985 0.0
H497 H 0.70002 0.12135 0.0289 0.0
H498 H 0.72301 0.26982 0.0131 0.0
H499 H 0.71285 0.21877 0.02014 0.0
H500 H 0.79042 0.17838 0.04533 0.0
C501 C 0.74935 0.07313 0.05418 0.0
C502 C 0.71998 0.13357 0.0324 0.0
C503 C 0.74148 0.04888 0.0625 0.0
C504 C 0.74188 0.25537 0.01568 0.0
C505 C 0.73608 0.2259 0.01969 0.0
C506 C 0.77113 0.16587 0.04127 0.0
C507 C 0.72866 0.09634 0.05159 0.0
C508 C 0.73774 0.12312 0.04369 0.0
C509 C 0.75971 0.2068 0.02395 0.0
C510 C 0.75315 0.17686 0.03008 0.0
H511 H 0.66999 0.07035 0.07042 0.0
H512 H 0.68357 0.11245 0.05554 0.0
H513 H 0.77753 0.13176 0.05669 0.0
H514 H 0.8182 0.25532 0.01993 0.0
H515 H 0.80836 0.20339 0.02614 0.0
C516 C 0.07228 0.16897 0.34751 0.0
C517 C 0.10059 0.17514 0.34191 0.0
C518 C 0.04592 0.17697 0.34023 0.0
C519 C 0.0168 0.22823 0.31313 0.0
H520 H 0.95091 0.17128 0.30974 0.0
C521 C 0.91707 0.24208 0.27377 0.0
C522 C 0.88853 0.23184 0.27762 0.0
C523 C 0.94217 0.2377 0.28261 0.0
C524 C 0.96885 0.18769 0.31079 0.0
H525 H 0.12343 0.19447 0.32422 0.0
H526 H 0.07736 0.20831 0.31148 0.0
H527 H 0.99632 0.15795 0.323 0.0
H528 H 0.86372 0.21048 0.29417 0.0
H529 H 0.90741 0.20343 0.30972 0.0
H530 H 0.98937 0.25797 0.30089 0.0
C531 C 0.07559 0.19752 0.32158 0.0
C532 C 0.99493 0.17997 0.31835 0.0
C533 C 0.10197 0.18937 0.32882 0.0
C534 C 0.88542 0.21844 0.29082 0.0
C535 C 0.91051 0.21419 0.2997 0.0
C536 C 0.99064 0.23602 0.30561 0.0
C537 C 0.04729 0.19146 0.32722 0.0
C538 C 0.01928 0.20005 0.31951 0.0
C539 C 0.9393 0.22312 0.29555 0.0
C540 C 0.96643 0.21575 0.30426 0.0
H541 H 0.07042 0.1581 0.35758 0.0
H542 H 0.02444 0.17223 0.3449 0.0
H543 H 0.03503 0.24436 0.31403 0.0
H544 H 0.9203 0.25245 0.26367 0.0
H545 H 0.96402 0.24462 0.27901 0.0
C546 C 0.98404 0.61663 0.55818 0.0
C547 C 0.00202 0.61623 0.57056 0.0
C548 C 0.98057 0.59062 0.54974 0.0
C549 C 0.01299 0.51494 0.54289 0.0
H550 H 0.93089 0.49268 0.53277 0.0
C551 C 0.94199 0.40024 0.53371 0.0
C552 C 0.96147 0.38353 0.52508 0.0
C553 C 0.94642 0.43103 0.53599 0.0
C554 C 0.95395 0.49865 0.53546 0.0
H555 H 0.03131 0.58856 0.58352 0.0
H556 H 0.02511 0.54333 0.5689 0.0
H557 H 0.94133 0.54238 0.54309 0.0
H558 H 4e-05 0.3864 0.51149 0.0
H559 H 0.00774 0.44033 0.51549 0.0
H560 H 0.02544 0.47068 0.53595 0.0
C561 C 0.01388 0.56373 0.56562 0.0
C562 C 0.95998 0.52723 0.54124 0.0
C563 C 0.01724 0.58962 0.57407 0.0
C564 C 0.98471 0.39859 0.51827 0.0
C565 C 0.98922 0.42944 0.5206 0.0
C566 C 0.00698 0.48639 0.53709 0.0
C567 C 0.99517 0.5638 0.55348 0.0
C568 C 0.98946 0.53535 0.5454 0.0
C569 C 0.97046 0.44586 0.5297 0.0
C570 C 0.97728 0.47763 0.53369 0.0
H571 H 0.97208 0.63681 0.55516 0.0
H572 H 0.9662 0.59141 0.54038 0.0
H573 H 0.03599 0.52071 0.54581 0.0
H574 H 0.92379 0.38939 0.53907 0.0
H575 H 0.93177 0.44292 0.54319 0.0
C576 C 0.76558 0.06244 0.44868 0.0
C577 C 0.74235 0.074 0.44009 0.0
C578 C 0.78685 0.08176 0.4551 0.0
C579 C 0.81966 0.15779 0.45288 0.0
H580 H 0.83759 0.14859 0.49278 0.0
C581 C 0.9081 0.23012 0.48428 0.0
C582 C 0.89933 0.24059 0.49769 0.0
C583 C 0.89017 0.20949 0.47659 0.0
C584 C 0.83275 0.15146 0.48164 0.0
H585 H 0.72351 0.1148 0.43131 0.0
H586 H 0.76047 0.14832 0.44251 0.0
H587 H 0.80461 0.11242 0.48047 0.0
H588 H 0.8644 0.23821 0.51332 0.0
H589 H 0.83326 0.20245 0.49989 0.0
H590 H 0.84734 0.19724 0.45415 0.0
C591 C 0.76241 0.12437 0.44421 0.0
C592 C 0.81415 0.13057 0.47456 0.0
C593 C 0.74108 0.10514 0.43789 0.0
C594 C 0.87193 0.23056 0.50306 0.0
C595 C 0.85416 0.20987 0.49542 0.0
C596 C 0.83844 0.1786 0.45995 0.0
C597 C 0.78542 0.11294 0.45294 0.0
C598 C 0.80707 0.13375 0.46016 0.0
C599 C 0.86327 0.1988 0.4822 0.0
C600 C 0.84479 0.17589 0.47445 0.0
H601 H 0.76719 0.03854 0.45054 0.0
H602 H 0.80449 0.07232 0.46171 0.0
H603 H 0.8148 0.16063 0.44174 0.0
H604 H 0.92907 0.23739 0.47985 0.0
H605 H 0.89776 0.20127 0.46643 0.0
C606 C 0.13483 0.23808 0.69262 0.0
C607 C 0.13334 0.20799 0.69684 0.0
C608 C 0.11196 0.25841 0.69615 0.0
C609 C 0.03207 0.25898 0.70618 0.0
H610 H 0.04783 0.34073 0.71929 0.0
C611 C 0.94683 0.32922 0.7372 0.0
C612 C 0.94447 0.36019 0.73473 0.0
C613 C 0.96852 0.31185 0.73041 0.0
C614 C 0.04305 0.31812 0.7154 0.0
H615 H 0.1076 0.17607 0.70871 0.0
H616 H 0.06827 0.21147 0.71505 0.0
H617 H 0.08973 0.30846 0.71228 0.0
H618 H 0.96233 0.39703 0.7228 0.0
H619 H 0.00048 0.36652 0.71094 0.0
H620 H 0.98556 0.26833 0.70963 0.0
C621 C 0.08657 0.21924 0.7087 0.0
C622 C 0.06704 0.29963 0.71142 0.0
C623 C 0.10928 0.199 0.70516 0.0
C624 C 0.96354 0.3732 0.72489 0.0
C625 C 0.98553 0.35582 0.71819 0.0
C626 C 0.00818 0.27739 0.71018 0.0
C627 C 0.08725 0.24898 0.70398 0.0
C628 C 0.06185 0.26963 0.70708 0.0
C629 C 0.98853 0.32506 0.72107 0.0
C630 C 0.01345 0.30694 0.71513 0.0
H631 H 0.15306 0.24567 0.68617 0.0
H632 H 0.11312 0.28118 0.69236 0.0
H633 H 0.02724 0.23622 0.70253 0.0
H634 H 0.93244 0.31849 0.74469 0.0
H635 H 0.97044 0.28828 0.73296 0.0
C636 C 0.9271 0.60472 0.93861 0.0
C637 C 0.94104 0.62463 0.94844 0.0
C638 C 0.90958 0.58082 0.94317 0.0
C639 C 0.90098 0.53451 0.97483 0.0
H640 H 0.83424 0.49946 0.95327 0.0
C641 C 0.85421 0.41954 0.98938 0.0
C642 C 0.82279 0.41617 0.98916 0.0
C643 C 0.8675 0.44426 0.98312 0.0
C644 C 0.8527 0.50907 0.95949 0.0
H645 H 0.94553 0.63656 0.97067 0.0
H646 H 0.91403 0.59568 0.97861 0.0
H647 H 0.8566 0.54637 0.94569 0.0
H648 H 0.78074 0.4354 0.98161 0.0
H649 H 0.80383 0.47893 0.97101 0.0
H650 H 0.89653 0.49801 0.9889 0.0
C651 C 0.91753 0.59775 0.9674 0.0
C652 C 0.86574 0.53585 0.95505 0.0
C653 C 0.93537 0.6214 0.96285 0.0
C654 C 0.80504 0.43727 0.98191 0.0
C655 C 0.81832 0.46226 0.97581 0.0
C656 C 0.88782 0.50798 0.97931 0.0
C657 C 0.9053 0.5765 0.95766 0.0
C658 C 0.89015 0.54887 0.96265 0.0
C659 C 0.84968 0.4665 0.97667 0.0
C660 C 0.86365 0.49472 0.97166 0.0
H661 H 0.93108 0.60651 0.92742 0.0
H662 H 0.90075 0.56489 0.93535 0.0
H663 H 0.92007 0.54345 0.98084 0.0
H664 H 0.86854 0.4035 0.99474 0.0
H665 H 0.89178 0.44627 0.98363 0.0
C666 C 0.56226 0.40843 0.20032 0.0
C667 C 0.55797 0.43795 0.20548 0.0
C668 C 0.5823 0.38906 0.20719 0.0
C669 C 0.65057 0.39335 0.22959 0.0
H670 H 0.6415 0.30675 0.23092 0.0
C671 C 0.72062 0.2818 0.24963 0.0
C672 C 0.74876 0.28797 0.2438 0.0
C673 C 0.6958 0.30025 0.2468 0.0
C674 C 0.64426 0.33094 0.23079 0.0
H675 H 0.56955 0.46947 0.22251 0.0
H676 H 0.60407 0.43554 0.23459 0.0
H677 H 0.59901 0.33768 0.22324 0.0
H678 H 0.77296 0.31882 0.23069 0.0
H679 H 0.72977 0.35085 0.22575 0.0
H680 H 0.6958 0.38667 0.23703 0.0
C681 C 0.59252 0.4276 0.22505 0.0
C682 C 0.62 0.34862 0.22626 0.0
C683 C 0.57258 0.44698 0.21817 0.0
C684 C 0.75166 0.3134 0.23537 0.0
C685 C 0.72691 0.33189 0.2326 0.0
C686 C 0.67478 0.37569 0.23407 0.0
C687 C 0.59839 0.39877 0.21939 0.0
C688 C 0.62301 0.38001 0.22543 0.0
C689 C 0.69862 0.32537 0.23816 0.0
C690 C 0.67208 0.34425 0.23452 0.0
H691 H 0.55139 0.40077 0.19056 0.0
H692 H 0.5864 0.36707 0.20248 0.0
H693 H 0.65383 0.41741 0.22891 0.0
H694 H 0.71758 0.2624 0.25618 0.0
H695 H 0.67438 0.29482 0.25136 0.0
C696 C 0.18931 0.08862 0.39485 0.0
C697 C 0.18006 0.11857 0.39699 0.0
C698 C 0.19456 0.07001 0.40635 0.0
C699 C 0.21806 0.07541 0.44337 0.0
H700 H 0.19784 0.99064 0.44382 0.0
C701 C 0.25521 0.00072 0.48962 0.0
C702 C 0.26615 0.97201 0.48595 0.0
C703 C 0.24045 0.01825 0.47953 0.0
C704 C 0.20385 0.01424 0.44381 0.0
H705 H 0.16753 0.15197 0.41284 0.0
H706 H 0.1768 0.11946 0.43287 0.0
H707 H 0.17885 0.02161 0.42459 0.0
H708 H 0.26989 0.93909 0.46885 0.0
H709 H 0.24496 0.96984 0.45124 0.0
H710 H 0.24396 0.06802 0.46222 0.0
C711 C 0.18024 0.11052 0.42231 0.0
C712 C 0.19288 0.03195 0.43282 0.0
C713 C 0.1748 0.12906 0.41082 0.0
C714 C 0.26167 0.96106 0.47205 0.0
C715 C 0.24712 0.97864 0.46196 0.0
C716 C 0.22921 0.05768 0.45428 0.0
C717 C 0.19083 0.08103 0.42021 0.0
C718 C 0.20017 0.06264 0.43241 0.0
C719 C 0.23649 0.00752 0.46554 0.0
C720 C 0.22259 0.02679 0.45454 0.0
H721 H 0.19348 0.07984 0.38432 0.0
H722 H 0.20289 0.04743 0.40441 0.0
H723 H 0.22444 0.09891 0.44322 0.0
H724 H 0.25811 0.00974 0.50027 0.0
H725 H 0.23217 0.04022 0.4827 0.0
C726 C 0.12682 0.67962 0.63541 0.0
C727 C 0.09634 0.67139 0.63583 0.0
C728 C 0.14392 0.68284 0.64791 0.0
C729 C 0.13346 0.70188 0.68514 0.0
H730 H 0.21749 0.67982 0.68942 0.0
C731 C 0.20057 0.73056 0.73624 0.0
C732 C 0.22966 0.74209 0.73451 0.0
C733 C 0.18482 0.71727 0.72482 0.0
C734 C 0.19408 0.68628 0.68835 0.0
H735 H 0.06044 0.6582 0.64962 0.0
H736 H 0.09031 0.66373 0.67134 0.0
H737 H 0.18933 0.6643 0.66807 0.0
H738 H 0.26524 0.74813 0.71947 0.0
H739 H 0.23756 0.72566 0.69955 0.0
H740 H 0.13826 0.72471 0.7051 0.0
C741 C 0.10083 0.66816 0.66139 0.0
C742 C 0.17797 0.67733 0.67614 0.0
C743 C 0.08378 0.66489 0.64892 0.0
C744 C 0.24288 0.73944 0.72119 0.0
C745 C 0.22708 0.72633 0.70977 0.0
C746 C 0.14956 0.71096 0.69728 0.0
C747 C 0.13083 0.67794 0.66104 0.0
C748 C 0.14757 0.68531 0.67436 0.0
C749 C 0.19773 0.71537 0.7114 0.0
C750 C 0.18016 0.70358 0.69897 0.0
H751 H 0.13717 0.68474 0.62549 0.0
H752 H 0.16696 0.69057 0.64732 0.0
H753 H 0.11019 0.70881 0.68397 0.0
H754 H 0.18983 0.73202 0.74639 0.0
H755 H 0.16242 0.70864 0.72649 0.0
C756 C 0.55912 0.52593 0.90692 0.0
C757 C 0.55832 0.53518 0.89282 0.0
C758 C 0.55151 0.54597 0.91782 0.0
C759 C 0.50381 0.61253 0.92244 0.0
H760 H 0.53279 0.61021 0.96129 0.0
C761 C 0.45338 0.68824 0.96576 0.0
C762 C 0.44698 0.67456 0.97861 0.0
C763 C 0.47051 0.67326 0.95565 0.0
C764 C 0.5244 0.61095 0.95049 0.0
H765 H 0.55213 0.57348 0.87924 0.0
H766 H 0.5397 0.60865 0.89829 0.0
H767 H 0.55927 0.5818 0.94298 0.0
H768 H 0.45388 0.63446 0.99094 0.0
H769 H 0.48356 0.60811 0.97314 0.0
H770 H 0.46872 0.64117 0.92991 0.0
C771 C 0.5452 0.58565 0.90089 0.0
C772 C 0.53958 0.59476 0.94 0.0
C773 C 0.55256 0.56556 0.88998 0.0
C774 C 0.45834 0.6456 0.98115 0.0
C775 C 0.47556 0.63062 0.97101 0.0
C776 C 0.48875 0.62873 0.93288 0.0
C777 C 0.5432 0.57573 0.91484 0.0
C778 C 0.52927 0.59514 0.92587 0.0
C779 C 0.48167 0.64424 0.95812 0.0
C780 C 0.49867 0.62791 0.94704 0.0
H781 H 0.56354 0.50269 0.90948 0.0
H782 H 0.55015 0.53752 0.92843 0.0
H783 H 0.49475 0.61278 0.91175 0.0
H784 H 0.44518 0.71061 0.96348 0.0
H785 H 0.47514 0.6845 0.94589 0.0
C786 C 0.63797 0.01684 0.15542 0.0
C787 C 0.6284 0.0117 0.14135 0.0
C788 C 0.61901 0.01043 0.16655 0.0
C789 C 0.5547 0.96151 0.17417 0.0
H790 H 0.55711 0.00425 0.21026 0.0
C791 C 0.48343 0.92442 0.22089 0.0
C792 C 0.49881 0.92253 0.23396 0.0
C793 C 0.49663 0.93865 0.20956 0.0
C794 C 0.5563 0.99205 0.20025 0.0
H795 H 0.59063 0.9978 0.12789 0.0
H796 H 0.55726 0.98735 0.1473 0.0
H797 H 0.58383 0.02461 0.19032 0.0
H798 H 0.53984 0.9348 0.24547 0.0
H799 H 0.56288 0.95965 0.22566 0.0
H800 H 0.52742 0.92886 0.18413 0.0
C801 C 0.57974 0.99555 0.14976 0.0
C802 C 0.57161 0.00368 0.18882 0.0
C803 C 0.59879 0.00177 0.13862 0.0
C804 C 0.5274 0.93582 0.23554 0.0
C805 C 0.54053 0.95023 0.22422 0.0
C806 C 0.53926 0.95002 0.18555 0.0
C807 C 0.58993 0.99893 0.16386 0.0
C808 C 0.57136 0.98832 0.17568 0.0
C809 C 0.52542 0.95149 0.21106 0.0
C810 C 0.54022 0.96493 0.19877 0.0
H811 H 0.66064 0.02446 0.15791 0.0
H812 H 0.62777 0.01307 0.17725 0.0
H813 H 0.55445 0.94872 0.16432 0.0
H814 H 0.46133 0.91451 0.21932 0.0
H815 H 0.48431 0.93954 0.19959 0.0
C816 C 0.02467 0.74154 0.88682 0.0
C817 C 0.03791 0.74675 0.90025 0.0
C818 C 0.03692 0.75455 0.87489 0.0
C819 C 0.11145 0.77878 0.86406 0.0
H820 H 0.07073 0.79698 0.82866 0.0
C821 C 0.17325 0.77169 0.8119 0.0
C822 C 0.16936 0.79528 0.80239 0.0
C823 C 0.15479 0.76938 0.82355 0.0
C824 C 0.08239 0.79224 0.83852 0.0
H825 H 0.0719 0.77238 0.91196 0.0
H826 H 0.09256 0.79587 0.89127 0.0
H827 H 0.04128 0.79029 0.84996 0.0
H828 H 0.14224 0.8344 0.79742 0.0
H829 H 0.10985 0.83029 0.81789 0.0
H830 H 0.15242 0.7804 0.85271 0.0
C831 C 0.07347 0.78091 0.88984 0.0
C832 C 0.06554 0.78823 0.85069 0.0
C833 C 0.06148 0.76765 0.90171 0.0
C834 C 0.14587 0.81599 0.80457 0.0
C835 C 0.12726 0.81361 0.81625 0.0
C836 C 0.12817 0.78268 0.85195 0.0
C837 C 0.06242 0.77321 0.87622 0.0
C838 C 0.07989 0.78105 0.86357 0.0
C839 C 0.13193 0.79058 0.82601 0.0
C840 C 0.11385 0.78886 0.83898 0.0
H841 H 0.00653 0.72544 0.88534 0.0
H842 H 0.02784 0.74808 0.86458 0.0
H843 H 0.12332 0.77279 0.8737 0.0
H844 H 0.19093 0.75518 0.81051 0.0
H845 H 0.15856 0.75102 0.83072 0.0
C846 C 0.46609 0.45463 0.11989 0.0
C847 C 0.46217 0.47005 0.13282 0.0
C848 C 0.45195 0.46478 0.10755 0.0
C849 C 0.39657 0.52122 0.09367 0.0
H850 H 0.45309 0.52591 0.06316 0.0
C851 C 0.39521 0.61519 0.05283 0.0
C852 C 0.40155 0.60783 0.0387 0.0
C853 C 0.39697 0.59333 0.06319 0.0
C854 C 0.43678 0.52434 0.07145 0.0
H855 H 0.43817 0.5066 0.14313 0.0
H856 H 0.41427 0.52467 0.12171 0.0
H857 H 0.46516 0.49526 0.08344 0.0
H858 H 0.41397 0.57154 0.02431 0.0
H859 H 0.41749 0.53341 0.04252 0.0
H860 H 0.36904 0.55184 0.0819 0.0
C861 C 0.42794 0.50455 0.121 0.0
C862 C 0.44362 0.50663 0.08309 0.0
C863 C 0.44184 0.49425 0.13334 0.0
C864 C 0.40902 0.57795 0.03511 0.0
C865 C 0.41111 0.55613 0.04552 0.0
C866 C 0.38987 0.53919 0.08207 0.0
C867 C 0.43378 0.49071 0.10786 0.0
C868 C 0.42398 0.50544 0.09454 0.0
C869 C 0.40537 0.56368 0.05969 0.0
C870 C 0.41027 0.5415 0.07101 0.0
H871 H 0.48132 0.43567 0.11915 0.0
H872 H 0.45634 0.45308 0.09767 0.0
H873 H 0.38063 0.52039 0.10214 0.0
H874 H 0.38925 0.63796 0.05594 0.0
H875 H 0.39279 0.59992 0.07404 0.0
C876 C 0.7034 0.92382 0.38699 0.0
C877 C 0.68923 0.91576 0.3995 0.0
C878 C 0.69506 0.91005 0.37411 0.0
C879 C 0.64716 0.84983 0.35723 0.0
H880 H 0.62356 0.91368 0.33201 0.0
C881 C 0.5433 0.84246 0.32057 0.0
C882 C 0.54286 0.85751 0.30766 0.0
C883 C 0.56838 0.8443 0.32964 0.0
C884 C 0.63055 0.89536 0.33868 0.0
H885 H 0.65815 0.88426 0.40855 0.0
H886 H 0.64349 0.86048 0.38615 0.0
H887 H 0.65704 0.9248 0.35195 0.0
H888 H 0.56912 0.88509 0.29386 0.0
H889 H 0.61307 0.88817 0.30972 0.0
H890 H 0.6194 0.8207 0.34424 0.0
C891 C 0.66093 0.87749 0.38621 0.0
C892 C 0.64986 0.90174 0.35015 0.0
C893 C 0.66925 0.89126 0.39909 0.0
C894 C 0.56861 0.87345 0.30378 0.0
C895 C 0.59377 0.87527 0.31288 0.0
C896 C 0.62785 0.84341 0.34571 0.0
C897 C 0.67252 0.88789 0.3735 0.0
C898 C 0.65756 0.8793 0.35984 0.0
C899 C 0.59371 0.86118 0.32604 0.0
C900 C 0.61847 0.86637 0.33661 0.0
H901 H 0.71921 0.94235 0.38694 0.0
H902 H 0.70488 0.91809 0.36452 0.0
H903 H 0.653 0.83197 0.36439 0.0
H904 H 0.52392 0.82987 0.32388 0.0
H905 H 0.56732 0.83355 0.33978 0.0
C906 C 0.25998 0.19067 0.62966 0.0
C907 C 0.26293 0.17519 0.64241 0.0
C908 C 0.27409 0.17991 0.61751 0.0
C909 C 0.32714 0.12084 0.60393 0.0
H910 H 0.27052 0.11795 0.57223 0.0
C911 C 0.3239 0.026 0.56165 0.0
C912 C 0.31815 0.0335 0.54751 0.0
C913 C 0.32324 0.04808 0.57234 0.0
C914 C 0.28686 0.11899 0.58087 0.0
H915 H 0.2855 0.13804 0.6527 0.0
H916 H 0.30937 0.11896 0.63159 0.0
H917 H 0.25976 0.14955 0.59272 0.0
H918 H 0.30796 0.07022 0.53346 0.0
H919 H 0.3063 0.10874 0.55222 0.0
H920 H 0.35325 0.08869 0.59228 0.0
C921 C 0.29644 0.13954 0.63088 0.0
C922 C 0.28079 0.13726 0.59264 0.0
C923 C 0.28257 0.15045 0.64305 0.0
C924 C 0.31242 0.0637 0.54425 0.0
C925 C 0.31141 0.08575 0.55498 0.0
C926 C 0.33303 0.1023 0.59221 0.0
C927 C 0.29128 0.15333 0.61782 0.0
C928 C 0.30046 0.13787 0.60448 0.0
C929 C 0.31651 0.07809 0.56915 0.0
C930 C 0.31258 0.10066 0.58071 0.0
H931 H 0.24529 0.21003 0.62884 0.0
H932 H 0.2703 0.1916 0.60772 0.0
H933 H 0.34307 0.12116 0.61274 0.0
H934 H 0.32852 0.00296 0.56451 0.0
H935 H 0.32691 0.04144 0.58318 0.0
C936 C 0.52422 0.41351 0.89292 0.0
C937 C 0.5421 0.40764 0.8811 0.0
C938 C 0.532 0.40158 0.90604 0.0
C939 C 0.58472 0.34863 0.92426 0.0
H940 H 0.58659 0.4112 0.95339 0.0
C941 C 0.67295 0.35325 0.96928 0.0
C942 C 0.66452 0.36329 0.98279 0.0
C943 C 0.65231 0.35336 0.95798 0.0
C944 C 0.58572 0.39323 0.9455 0.0
H945 H 0.58044 0.38231 0.87352 0.0
H946 H 0.59421 0.36194 0.89632 0.0
H947 H 0.55921 0.41961 0.93134 0.0
H948 H 0.6275 0.38059 0.99511 0.0
H949 H 0.59142 0.3811 0.97525 0.0
H950 H 0.61265 0.32294 0.93823 0.0
C951 C 0.5741 0.37561 0.89553 0.0
C952 C 0.56992 0.39799 0.93284 0.0
C953 C 0.56628 0.38746 0.88242 0.0
C954 C 0.63472 0.3728 0.98482 0.0
C955 C 0.61409 0.37316 0.97345 0.0
C956 C 0.60067 0.34394 0.9369 0.0
C957 C 0.55781 0.38353 0.90762 0.0
C958 C 0.56996 0.37611 0.92189 0.0
C959 C 0.62277 0.36368 0.95988 0.0
C960 C 0.60206 0.36656 0.94748 0.0
H961 H 0.50525 0.42876 0.89225 0.0
H962 H 0.51858 0.40759 0.91508 0.0
H963 H 0.58476 0.33109 0.91616 0.0
H964 H 0.69568 0.34564 0.96735 0.0
H965 H 0.65984 0.34633 0.94762 0.0
C966 C 0.75438 0.99373 0.14108 0.0
C967 C 0.76002 0.00948 0.12869 0.0
C968 C 0.76834 0.00249 0.15387 0.0
C969 C 0.82629 0.05336 0.17038 0.0
H970 H 0.76392 0.07029 0.19742 0.0
C971 C 0.83144 0.15399 0.20892 0.0
C972 C 0.81792 0.15232 0.22216 0.0
C973 C 0.8299 0.12975 0.19936 0.0
C974 C 0.78189 0.06516 0.19022 0.0
H975 H 0.78717 0.04445 0.11968 0.0
H976 H 0.81138 0.05973 0.14192 0.0
H977 H 0.7529 0.0378 0.17709 0.0
H978 H 0.79337 0.12324 0.23598 0.0
H979 H 0.79088 0.08073 0.21928 0.0
H980 H 0.8549 0.08182 0.18326 0.0
C981 C 0.79617 0.04071 0.14183 0.0
C982 C 0.77556 0.04645 0.17853 0.0
C983 C 0.78212 0.03206 0.12907 0.0
C984 C 0.80377 0.12538 0.22582 0.0
C985 C 0.8023 0.10104 0.21624 0.0
C986 C 0.83267 0.072 0.18212 0.0
C987 C 0.78834 0.02697 0.15447 0.0
C988 C 0.79734 0.04122 0.16821 0.0
C989 C 0.81492 0.10313 0.2028 0.0
C990 C 0.81018 0.07902 0.19188 0.0
H991 H 0.73762 0.97606 0.14114 0.0
H992 H 0.76223 0.99118 0.16342 0.0
H993 H 0.84365 0.04939 0.1627 0.0
H994 H 0.84259 0.17436 0.20575 0.0
H995 H 0.83943 0.13239 0.18903 0.0
C996 C 0.15643 0.26937 0.38055 0.0
C997 C 0.17974 0.24804 0.38113 0.0
C998 C 0.14485 0.28178 0.39297 0.0
C999 C 0.15522 0.28828 0.43199 0.0
H1000 H 0.06863 0.27763 0.43159 0.0
C1001 C 0.08663 0.27769 0.48292 0.0
C1002 C 0.05709 0.28894 0.48297 0.0
C1003 C 0.10346 0.27815 0.47061 0.0
C1004 C 0.09271 0.2814 0.43189 0.0
H1005 H 0.21132 0.22549 0.39515 0.0
H1006 H 0.191 0.24701 0.41676 0.0
H1007 H 0.09592 0.27123 0.40986 0.0
H1008 H 0.02253 0.31078 0.47033 0.0
H1009 H 0.05202 0.31224 0.44902 0.0
H1010 H 0.15192 0.29794 0.45416 0.0
C1011 C 0.1816 0.25413 0.40673 0.0
C1012 C 0.10839 0.27773 0.41938 0.0
C1013 C 0.19321 0.24172 0.39431 0.0
C1014 C 0.04509 0.30155 0.4706 0.0
C1015 C 0.06199 0.30229 0.45835 0.0
C1016 C 0.13945 0.29216 0.44455 0.0
C1017 C 0.15638 0.27318 0.40621 0.0
C1018 C 0.13986 0.28072 0.41929 0.0
C1019 C 0.0912 0.29011 0.45811 0.0
C1020 C 0.10801 0.28833 0.44468 0.0
H1021 H 0.14576 0.27504 0.37057 0.0
H1022 H 0.12581 0.29694 0.39223 0.0
H1023 H 0.17945 0.2909 0.43225 0.0
H1024 H 0.09652 0.26782 0.49229 0.0
H1025 H 0.12571 0.26822 0.47079 0.0
C1026 C 0.93475 0.67058 0.64043 0.0
C1027 C 0.9356 0.65216 0.62821 0.0
C1028 C 0.92108 0.6604 0.65262 0.0
C1029 C 0.87557 0.59729 0.66692 0.0
H1030 H 0.9287 0.60838 0.6996 0.0
C1031 C 0.887 0.51147 0.71123 0.0
C1032 C 0.88982 0.522 0.72529 0.0
C1033 C 0.8863 0.53161 0.70011 0.0
C1034 C 0.91329 0.60548 0.69067 0.0
H1035 H 0.92008 0.60993 0.61877 0.0
H1036 H 0.89698 0.59202 0.63994 0.0
H1037 H 0.93693 0.63744 0.67857 0.0
H1038 H 0.89365 0.562 0.73869 0.0
H1039 H 0.89296 0.59722 0.71917 0.0
H1040 H 0.85308 0.56397 0.67887 0.0
C1041 C 0.90661 0.61438 0.64022 0.0
C1042 C 0.91789 0.62226 0.67859 0.0
C1043 C 0.92009 0.62462 0.62803 0.0
C1044 C 0.89153 0.55318 0.72798 0.0
C1045 C 0.89118 0.57333 0.71682 0.0
C1046 C 0.87116 0.5803 0.67896 0.0
C1047 C 0.90808 0.63156 0.65285 0.0
C1048 C 0.89963 0.61777 0.66641 0.0
C1049 C 0.88868 0.56273 0.70277 0.0
C1050 C 0.89049 0.58365 0.69081 0.0
H1051 H 0.94619 0.69209 0.64088 0.0
H1052 H 0.92197 0.67455 0.66206 0.0
H1053 H 0.86069 0.59367 0.65785 0.0
H1054 H 0.8855 0.48761 0.70879 0.0
H1055 H 0.88478 0.52273 0.68939 0.0
C1056 C 0.6653 0.06714 0.38277 0.0
C1057 C 0.65909 0.03618 0.38163 0.0
C1058 C 0.66997 0.08388 0.3707 0.0
C1059 C 0.66341 0.08338 0.33156 0.0
H1060 H 0.73667 0.13056 0.33478 0.0
C1061 C 0.72749 0.12557 0.2831 0.0
C1062 C 0.74184 0.15368 0.28431 0.0
C1063 C 0.7136 0.11316 0.29476 0.0
C1064 C 0.71586 0.11798 0.33371 0.0
H1065 H 0.65064 0.99905 0.36686 0.0
H1066 H 0.65898 0.02828 0.34581 0.0
H1067 H 0.71746 0.10639 0.35547 0.0
H1068 H 0.75176 0.1914 0.29854 0.0
H1069 H 0.72711 0.17014 0.31871 0.0
H1070 H 0.66215 0.09476 0.30968 0.0
C1071 C 0.66016 0.03962 0.35603 0.0
C1072 C 0.70482 0.1041 0.34561 0.0
C1073 C 0.65547 0.02284 0.36812 0.0
C1074 C 0.74123 0.16952 0.29729 0.0
C1075 C 0.72719 0.15726 0.30888 0.0
C1076 C 0.67442 0.09742 0.31962 0.0
C1077 C 0.66852 0.07006 0.35723 0.0
C1078 C 0.6786 0.08649 0.34468 0.0
C1079 C 0.71363 0.12871 0.30784 0.0
C1080 C 0.70092 0.11473 0.32055 0.0
H1081 H 0.66795 0.0782 0.39302 0.0
H1082 H 0.67577 0.10746 0.37195 0.0
H1083 H 0.64305 0.07009 0.33053 0.0
H1084 H 0.72758 0.11279 0.27324 0.0
H1085 H 0.70366 0.091 0.29361 0.0
C1086 C 0.17186 0.13231 0.61921 0.0
C1087 C 0.15906 0.13377 0.63265 0.0
C1088 C 0.15463 0.13925 0.60719 0.0
C1089 C 0.07648 0.15129 0.59396 0.0
H1090 H 0.1126 0.21168 0.57067 0.0
C1091 C 0.00555 0.23345 0.56163 0.0
C1092 C 0.01501 0.24153 0.54816 0.0
C1093 C 0.0238 0.21582 0.57028 0.0
C1094 C 0.10234 0.19442 0.57688 0.0
H1095 H 0.11778 0.14174 0.64395 0.0
H1096 H 0.08779 0.15371 0.62304 0.0
H1097 H 0.14316 0.18683 0.58865 0.0
H1098 H 0.05117 0.2373 0.53321 0.0
H1099 H 0.08319 0.20637 0.54842 0.0
H1100 H 0.03546 0.15951 0.58247 0.0
C1101 C 0.11107 0.14718 0.62174 0.0
C1102 C 0.11986 0.18013 0.58717 0.0
C1103 C 0.1283 0.14048 0.63374 0.0
C1104 C 0.04325 0.23154 0.54355 0.0
C1105 C 0.0616 0.21388 0.55226 0.0
C1106 C 0.059 0.16552 0.58366 0.0
C1107 C 0.12424 0.14748 0.60838 0.0
C1108 C 0.1069 0.15902 0.59608 0.0
C1109 C 0.052 0.20577 0.56571 0.0
C1110 C 0.07152 0.18786 0.57528 0.0
H1111 H 0.19553 0.12728 0.61802 0.0
H1112 H 0.1653 0.139 0.59701 0.0
H1113 H 0.06601 0.13476 0.6005 0.0
H1114 H 0.98398 0.24078 0.56556 0.0
H1115 H 0.01598 0.21051 0.58069 0.0
C1116 C 0.97343 0.62297 0.87285 0.0
C1117 C 0.9978 0.62086 0.88246 0.0
C1118 C 0.97272 0.60579 0.86041 0.0
C1119 C 0.00264 0.53635 0.84453 0.0
H1120 H 0.96287 0.56799 0.81117 0.0
C1121 C 0.94387 0.46018 0.80307 0.0
C1122 C 0.94158 0.46907 0.78894 0.0
C1123 C 0.95757 0.47887 0.8133 0.0
C1124 C 0.9746 0.55882 0.82024 0.0
H1125 H 0.04087 0.59938 0.88642 0.0
H1126 H 0.03978 0.56936 0.86444 0.0
H1127 H 0.9752 0.60155 0.83096 0.0
H1128 H 0.95317 0.50398 0.77435 0.0
H1129 H 0.97777 0.53639 0.79219 0.0
H1130 H 0.0022 0.49361 0.83374 0.0
C1131 C 0.02105 0.58416 0.86669 0.0
C1132 C 0.98128 0.57804 0.8317 0.0
C1133 C 0.02172 0.60138 0.87924 0.0
C1134 C 0.95432 0.49661 0.78518 0.0
C1135 C 0.96832 0.51523 0.79542 0.0
C1136 C 0.99622 0.51715 0.83299 0.0
C1137 C 0.99645 0.58614 0.85715 0.0
C1138 C 0.99432 0.56682 0.84418 0.0
C1139 C 0.96963 0.50682 0.80966 0.0
C1140 C 0.98113 0.52794 0.8209 0.0
H1141 H 0.95455 0.63765 0.87501 0.0
H1142 H 0.95308 0.6074 0.85351 0.0
H1143 H 0.01269 0.52693 0.85396 0.0
H1144 H 0.93426 0.43913 0.80635 0.0
H1145 H 0.9576 0.47183 0.82418 0.0
C1146 C 0.61164 0.43579 0.14184 0.0
C1147 C 0.59579 0.46285 0.14377 0.0
C1148 C 0.63112 0.43207 0.13058 0.0
C1149 C 0.64478 0.46043 0.09511 0.0
H1150 H 0.71701 0.41203 0.09864 0.0
C1151 C 0.74964 0.411 0.05963 0.0
C1152 C 0.73334 0.40118 0.04753 0.0
C1153 C 0.73476 0.42298 0.0713 0.0
C1154 C 0.69718 0.42599 0.09747 0.0
H1155 H 0.5888 0.50768 0.1357 0.0
H1156 H 0.62327 0.50131 0.11611 0.0
H1157 H 0.68912 0.4256 0.11963 0.0
H1158 H 0.68865 0.39698 0.03805 0.0
H1159 H 0.66263 0.41717 0.05853 0.0
H1160 H 0.65301 0.46099 0.07294 0.0
C1161 C 0.6202 0.4828 0.12319 0.0
C1162 C 0.68097 0.43345 0.1095 0.0
C1163 C 0.60063 0.48652 0.13447 0.0
C1164 C 0.70188 0.40437 0.0472 0.0
C1165 C 0.68697 0.41615 0.05892 0.0
C1166 C 0.66109 0.45308 0.08307 0.0
C1167 C 0.63534 0.45536 0.12101 0.0
C1168 C 0.65426 0.45025 0.10844 0.0
C1169 C 0.70321 0.4252 0.07119 0.0
C1170 C 0.6872 0.43531 0.08407 0.0
H1171 H 0.60843 0.41708 0.14879 0.0
H1172 H 0.64205 0.41049 0.12912 0.0
H1173 H 0.62418 0.47321 0.09389 0.0
H1174 H 0.77393 0.40916 0.06017 0.0
H1175 H 0.74801 0.43026 0.08046 0.0
loop_
_geom_bond_atom_site_label_1
_geom_bond_atom_site_label_2
_geom_bond_distance
_geom_bond_site_symmetry_2
_ccdc_geom_bond_type
Mg0 O7 2.141 . S
Mg0 O8 2.048 . S
Mg0 O9 2.048 . S
Mg0 O12 2.141 . S
C1 O2 1.313 . S
C1 O8 1.195 . S
O2 C1 1.313 . S
C3 O4 1.245 . S
C3 O12 1.289 . S
O4 C3 1.245 . S
C5 O6 1.245 . S
C5 O7 1.289 . S
O6 C5 1.245 . S
O7 Mg0 2.141 . S
O7 C5 1.289 . S
O8 Mg0 2.048 . S
O8 C1 1.195 . S
O9 Mg0 2.048 . S
O9 C10 1.195 . S
C10 O9 1.195 . S
C10 O11 1.313 . S
O11 C10 1.313 . S
O12 Mg0 2.141 . S
O12 C3 1.289 . S
Mg13 O20 2.141 . S
Mg13 O21 2.048 . S
Mg13 O22 2.048 1_455 S
Mg13 O25 2.141 . S
C14 O15 1.313 . S
C14 O21 1.195 . S
O15 C14 1.313 . S
C16 O17 1.245 . S
C16 O25 1.289 . S
O17 C16 1.245 . S
C18 O19 1.245 . S
C18 O20 1.289 . S
O19 C18 1.245 . S
O20 Mg13 2.141 . S
O20 C18 1.289 . S
O21 Mg13 2.048 . S
O21 C14 1.195 . S
O22 Mg13 2.048 1_655 S
O22 C23 1.195 1_655 S
C23 O22 1.195 1_455 S
C23 O24 1.313 . S
O24 C23 1.313 . S
O25 Mg13 2.141 . S
O25 C16 1.289 . S
Mg26 O33 2.141 . S
Mg26 O34 2.048 . S
Mg26 O35 2.048 . S
Mg26 O38 2.141 . S
C27 O28 1.313 . S
C27 O34 1.195 . S
O28 C27 1.313 . S
C29 O30 1.245 . S
C29 O38 1.289 . S
O30 C29 1.245 . S
C31 O32 1.245 . S
C31 O33 1.289 . S
O32 C31 1.245 . S
O33 Mg26 2.141 . S
O33 C31 1.289 . S
O34 Mg26 2.048 . S
O34 C27 1.195 . S
O35 Mg26 2.048 . S
O35 C36 1.195 . S
C36 O35 1.195 . S
C36 O37 1.313 . S
O37 C36 1.313 . S
O38 Mg26 2.141 . S
O38 C29 1.289 . S
Mg39 O46 2.141 . S
Mg39 O47 2.048 . S
Mg39 O48 2.048 1_545 S
Mg39 O51 2.141 1_545 S
C40 O41 1.313 . S
C40 O47 1.195 . S
O41 C40 1.313 . S
C42 O43 1.245 . S
C42 O51 1.289 . S
O43 C42 1.245 . S
C44 O45 1.245 . S
C44 O46 1.289 . S
O45 C44 1.245 . S
O46 Mg39 2.141 . S
O46 C44 1.289 . S
O47 Mg39 2.048 . S
O47 C40 1.195 . S
O48 Mg39 2.048 1_565 S
O48 C49 1.195 . S
C49 O48 1.195 . S
C49 O50 1.313 . S
O50 C49 1.313 . S
O51 Mg39 2.141 1_565 S
O51 C42 1.289 . S
Mg52 O59 2.141 . S
Mg52 O60 2.048 . S
Mg52 O61 2.048 1_455 S
Mg52 O64 2.141 . S
C53 O54 1.313 . S
C53 O60 1.195 . S
O54 C53 1.313 . S
C55 O56 1.245 . S
C55 O64 1.289 1_655 S
O56 C55 1.245 . S
C57 O58 1.245 . S
C57 O59 1.289 . S
O58 C57 1.245 . S
O59 Mg52 2.141 . S
O59 C57 1.289 . S
O60 Mg52 2.048 . S
O60 C53 1.195 . S
O61 Mg52 2.048 1_655 S
O61 C62 1.195 . S
C62 O61 1.195 . S
C62 O63 1.313 . S
O63 C62 1.313 . S
O64 Mg52 2.141 . S
O64 C55 1.289 1_455 S
Mg65 O72 2.141 . S
Mg65 O73 2.048 . S
Mg65 O74 2.048 . S
Mg65 O77 2.141 . S
C66 O67 1.313 . S
C66 O73 1.195 . S
O67 C66 1.313 . S
C68 O69 1.245 . S
C68 O77 1.289 . S
O69 C68 1.245 . S
C70 O71 1.245 . S
C70 O72 1.289 . S
O71 C70 1.245 . S
O72 Mg65 2.141 . S
O72 C70 1.289 . S
O73 Mg65 2.048 . S
O73 C66 1.195 . S
O74 Mg65 2.048 . S
O74 C75 1.195 . S
C75 O74 1.195 . S
C75 O76 1.313 . S
O76 C75 1.313 . S
O77 Mg65 2.141 . S
O77 C68 1.289 . S
Mg78 O85 2.141 1_565 S
Mg78 O86 2.048 1_565 S
Mg78 O87 2.048 . S
Mg78 O90 2.141 . S
C79 O80 1.313 . S
C79 O86 1.195 . S
O80 C79 1.313 . S
C81 O82 1.245 1_565 S
C81 O90 1.289 . S
O82 C81 1.245 1_545 S
C83 O84 1.245 . S
C83 O85 1.289 . S
O84 C83 1.245 . S
O85 Mg78 2.141 1_545 S
O85 C83 1.289 . S
O86 Mg78 2.048 1_545 S
O86 C79 1.195 . S
O87 Mg78 2.048 . S
O87 C88 1.195 . S
C88 O87 1.195 . S
C88 O89 1.313 1_565 S
O89 C88 1.313 1_545 S
O90 Mg78 2.141 . S
O90 C81 1.289 . S
Mg91 O98 2.141 . S
Mg91 O99 2.048 . S
Mg91 O100 2.048 . S
Mg91 O103 2.141 . S
C92 O93 1.313 . S
C92 O99 1.195 . S
O93 C92 1.313 . S
C94 O95 1.245 . S
C94 O103 1.289 . S
O95 C94 1.245 . S
C96 O97 1.245 . S
C96 O98 1.289 . S
O97 C96 1.245 . S
O98 Mg91 2.141 . S
O98 C96 1.289 . S
O99 Mg91 2.048 . S
O99 C92 1.195 . S
O100 Mg91 2.048 . S
O100 C101 1.195 . S
C101 O100 1.195 . S
C101 O102 1.313 . S
O102 C101 1.313 . S
O103 Mg91 2.141 . S
O103 C94 1.289 . S
Zn104 O107 2.031 . S
Zn104 O109 2.049 . S
Zn104 O114 2.067 1_554 S
Zn105 O106 1.962 . S
Zn105 O108 1.986 . S
Zn105 O110 1.996 . S
Zn105 O113 1.943 . S
O106 Zn105 1.962 . S
O106 C111 1.254 . S
O107 Zn104 2.031 . S
O107 C111 1.269 . S
O108 Zn105 1.986 . S
O108 C115 1.262 . S
O109 Zn104 2.049 . S
O109 C117 1.260 . S
O110 Zn105 1.996 . S
O110 C117 1.257 . S
C111 O106 1.254 . S
C111 O107 1.269 . S
C112 O113 1.292 . S
C112 O114 1.257 1_554 S
O113 Zn105 1.943 . S
O113 C112 1.292 . S
O114 Zn104 2.067 1_556 S
O114 C112 1.257 1_556 S
C115 O108 1.262 . S
C115 O116 1.232 . S
O116 C115 1.232 . S
C117 O109 1.260 . S
C117 O110 1.257 . S
Zn118 O121 2.031 . S
Zn118 O123 2.049 . S
Zn118 O128 2.067 . S
Zn119 O120 1.962 . S
Zn119 O122 1.986 . S
Zn119 O124 1.996 . S
Zn119 O127 1.943 . S
O120 Zn119 1.962 . S
O120 C125 1.254 . S
O121 Zn118 2.031 . S
O121 C125 1.269 . S
O122 Zn119 1.986 . S
O122 C129 1.262 . S
O123 Zn118 2.049 . S
O123 C131 1.260 . S
O124 Zn119 1.996 . S
O124 C131 1.257 . S
C125 O120 1.254 . S
C125 O121 1.269 . S
C126 O127 1.249 . S
C126 O128 1.270 . S
O127 Zn119 1.943 . S
O127 C126 1.249 . S
O128 Zn118 2.067 . S
O128 C126 1.270 . S
C129 O122 1.262 . S
C129 O130 1.232 . S
O130 C129 1.232 . S
C131 O123 1.260 . S
C131 O124 1.257 . S
Zn132 O135 2.031 . S
Zn132 O137 2.049 . S
Zn132 O142 2.067 . S
Zn133 O134 1.962 . S
Zn133 O136 1.986 . S
Zn133 O138 1.996 . S
Zn133 O141 1.943 . S
O134 Zn133 1.962 . S
O134 C139 1.254 . S
O135 Zn132 2.031 . S
O135 C139 1.269 . S
O136 Zn133 1.986 . S
O136 C143 1.262 . S
O137 Zn132 2.049 . S
O137 C145 1.260 . S
O138 Zn133 1.996 . S
O138 C145 1.257 . S
C139 O134 1.254 . S
C139 O135 1.269 . S
C140 O141 1.249 . S
C140 O142 1.270 . S
O141 Zn133 1.943 . S
O141 C140 1.249 . S
O142 Zn132 2.067 . S
O142 C140 1.270 . S
C143 O136 1.262 . S
C143 O144 1.232 . S
O144 C143 1.232 . S
C145 O137 1.260 . S
C145 O138 1.257 . S
Zn146 O149 2.031 . S
Zn146 O151 2.049 . S
Zn146 O156 2.067 . S
Zn147 O148 1.962 . S
Zn147 O150 1.986 . S
Zn147 O152 1.996 . S
Zn147 O155 1.943 . S
O148 Zn147 1.962 . S
O148 C153 1.254 . S
O149 Zn146 2.031 . S
O149 C153 1.269 . S
O150 Zn147 1.986 . S
O150 C157 1.262 . S
O151 Zn146 2.049 . S
O151 C159 1.260 . S
O152 Zn147 1.996 . S
O152 C159 1.257 . S
C153 O148 1.254 . S
C153 O149 1.269 . S
C154 O155 1.249 . S
C154 O156 1.270 . S
O155 Zn147 1.943 . S
O155 C154 1.249 . S
O156 Zn146 2.067 . S
O156 C154 1.270 . S
C157 O150 1.262 . S
C157 O158 1.232 . S
O158 C157 1.232 . S
C159 O151 1.260 . S
C159 O152 1.257 . S
Zn160 O163 2.031 . S
Zn160 O165 2.049 . S
Zn160 O170 2.067 . S
Zn161 O162 1.962 . S
Zn161 O164 1.986 . S
Zn161 O166 1.996 . S
Zn161 O169 1.943 . S
O162 Zn161 1.962 . S
O162 C167 1.254 . S
O163 Zn160 2.031 . S
O163 C167 1.269 . S
O164 Zn161 1.986 . S
O164 C171 1.262 1_655 S
O165 Zn160 2.049 . S
O165 C173 1.260 . S
O166 Zn161 1.996 . S
O166 C173 1.257 . S
C167 O162 1.254 . S
C167 O163 1.269 . S
C168 O169 1.249 . S
C168 O170 1.270 . S
O169 Zn161 1.943 . S
O169 C168 1.249 . S
O170 Zn160 2.067 . S
O170 C168 1.270 . S
C171 O164 1.262 1_455 S
C171 O172 1.232 . S
O172 C171 1.232 . S
C173 O165 1.260 . S
C173 O166 1.257 . S
Zn174 O177 2.031 . S
Zn174 O179 2.049 . S
Zn174 O184 2.067 . S
Zn175 O176 1.962 . S
Zn175 O178 1.986 . S
Zn175 O180 1.996 . S
Zn175 O183 1.943 . S
O176 Zn175 1.962 . S
O176 C181 1.254 . S
O177 Zn174 2.031 . S
O177 C181 1.269 . S
O178 Zn175 1.986 . S
O178 C185 1.262 . S
O179 Zn174 2.049 . S
O179 C187 1.260 . S
O180 Zn175 1.996 . S
O180 C187 1.257 . S
C181 O176 1.254 . S
C181 O177 1.269 . S
C182 O183 1.249 . S
C182 O184 1.270 . S
O183 Zn175 1.943 . S
O183 C182 1.249 . S
O184 Zn174 2.067 . S
O184 C182 1.270 . S
C185 O178 1.262 . S
C185 O186 1.232 . S
O186 C185 1.232 . S
C187 O179 1.260 . S
C187 O180 1.257 . S
Zn188 O191 2.031 . S
Zn188 O193 2.049 . S
Zn188 O198 2.067 . S
Zn189 O190 1.962 . S
Zn189 O192 1.986 . S
Zn189 O194 1.996 . S
Zn189 O197 1.943 1_556 S
O190 Zn189 1.962 . S
O190 C195 1.254 1_556 S
O191 Zn188 2.031 . S
O191 C195 1.269 . S
O192 Zn189 1.986 . S
O192 C199 1.262 . S
O193 Zn188 2.049 . S
O193 C201 1.260 . S
O194 Zn189 1.996 . S
O194 C201 1.257 1_556 S
C195 O190 1.254 1_554 S
C195 O191 1.269 . S
C196 O197 1.249 . S
C196 O198 1.270 . S
O197 Zn189 1.943 1_554 S
O197 C196 1.249 . S
O198 Zn188 2.067 . S
O198 C196 1.270 . S
C199 O192 1.262 . S
C199 O200 1.232 . S
O200 C199 1.232 . S
C201 O193 1.260 . S
C201 O194 1.257 1_554 S
Zn202 O205 2.031 . S
Zn202 O207 2.049 . S
Zn202 O212 2.067 . S
Zn203 O204 1.962 . S
Zn203 O206 1.986 . S
Zn203 O208 1.996 . S
Zn203 O211 1.943 . S
O204 Zn203 1.962 . S
O204 C209 1.254 . S
O205 Zn202 2.031 . S
O205 C209 1.269 . S
O206 Zn203 1.986 . S
O206 C213 1.262 . S
O207 Zn202 2.049 . S
O207 C215 1.260 . S
O208 Zn203 1.996 . S
O208 C215 1.257 . S
C209 O204 1.254 . S
C209 O205 1.269 . S
C210 O211 1.249 . S
C210 O212 1.270 . S
O211 Zn203 1.943 . S
O211 C210 1.249 . S
O212 Zn202 2.067 . S
O212 C210 1.270 . S
C213 O206 1.262 . S
C213 O214 1.232 . S
O214 C213 1.232 . S
C215 O207 1.260 . S
C215 O208 1.257 . S
C216 C217 1.349 . S
C216 C218 1.327 . S
C216 H241 0.950 . S
C217 C216 1.349 . S
C217 C233 1.349 . S
C218 C216 1.327 . S
C218 C237 1.429 . S
C218 H242 0.950 . S
C219 C236 1.574 . S
C219 C238 1.368 1_565 S
C219 H243 0.949 . S
H220 C224 0.949 . S
C221 C222 1.349 . S
C221 C223 1.327 . S
C221 H244 0.950 . S
C222 C221 1.349 . S
C222 C234 1.349 . S
C223 C221 1.327 . S
C223 C239 1.429 . S
C223 H245 0.950 . S
C224 H220 0.949 . S
C224 C232 1.574 1_565 S
C224 C240 1.368 . S
H225 C233 0.950 . S
H226 C231 0.950 . S
H227 C232 0.949 . S
H228 C234 0.950 . S
H229 C235 0.950 . S
H230 C236 0.949 . S
C231 H226 0.950 . S
C231 C233 1.327 . S
C231 C237 1.429 . S
C232 C224 1.574 1_545 S
C232 H227 0.949 . S
C232 C238 1.368 . S
C233 C217 1.349 . S
C233 H225 0.950 . S
C233 C231 1.327 . S
C234 C222 1.349 . S
C234 H228 0.950 . S
C234 C235 1.327 . S
C235 H229 0.950 . S
C235 C234 1.327 . S
C235 C239 1.429 . S
C236 C219 1.574 . S
C236 H230 0.949 . S
C236 C240 1.368 . S
C237 C218 1.429 . S
C237 C231 1.429 . S
C237 C238 1.523 . S
C238 C219 1.368 1_545 S
C238 C232 1.368 . S
C238 C237 1.523 . S
C239 C223 1.429 . S
C239 C235 1.429 . S
C239 C240 1.523 . S
C240 C224 1.368 . S
C240 C236 1.368 . S
C240 C239 1.523 . S
H241 C216 0.950 . S
H242 C218 0.950 . S
H243 C219 0.949 . S
H244 C221 0.950 . S
H245 C223 0.950 . S
C246 C247 1.349 . S
C246 C248 1.327 . S
C246 H271 0.950 . S
C247 C246 1.349 . S
C247 C263 1.349 . S
C248 C246 1.327 . S
C248 C267 1.429 . S
C248 H272 0.950 . S
C249 C266 1.574 . S
C249 C268 1.368 . S
C249 H273 0.949 . S
H250 C254 0.949 . S
C251 C252 1.349 . S
C251 C253 1.327 . S
C251 H274 0.950 . S
C252 C251 1.349 . S
C252 C264 1.349 . S
C253 C251 1.327 . S
C253 C269 1.429 . S
C253 H275 0.950 . S
C254 H250 0.949 . S
C254 C262 1.574 . S
C254 C270 1.368 . S
H255 C263 0.950 . S
H256 C261 0.950 . S
H257 C262 0.949 . S
H258 C264 0.950 . S
H259 C265 0.950 . S
H260 C266 0.949 . S
C261 H256 0.950 . S
C261 C263 1.327 . S
C261 C267 1.429 . S
C262 C254 1.574 . S
C262 H257 0.949 . S
C262 C268 1.368 . S
C263 C247 1.349 . S
C263 H255 0.950 . S
C263 C261 1.327 . S
C264 C252 1.349 . S
C264 H258 0.950 . S
C264 C265 1.327 . S
C265 H259 0.950 . S
C265 C264 1.327 . S
C265 C269 1.429 . S
C266 C249 1.574 . S
C266 H260 0.949 . S
C266 C270 1.368 . S
C267 C248 1.429 . S
C267 C261 1.429 . S
C267 C268 1.523 . S
C268 C249 1.368 . S
C268 C262 1.368 . S
C268 C267 1.523 . S
C269 C253 1.429 . S
C269 C265 1.429 . S
C269 C270 1.523 . S
C270 C254 1.368 . S
C270 C266 1.368 . S
C270 C269 1.523 . S
H271 C246 0.950 . S
H272 C248 0.950 . S
H273 C249 0.949 . S
H274 C251 0.950 . S
H275 C253 0.950 . S
C276 C277 1.349 . S
C276 C278 1.327 . S
C276 H301 0.950 . S
C277 C276 1.349 . S
C277 C293 1.349 . S
C278 C276 1.327 . S
C278 C297 1.429 . S
C278 H302 0.950 . S
C279 C296 1.574 . S
C279 C298 1.368 . S
C279 H303 0.949 . S
H280 C284 0.949 . S
C281 C282 1.349 . S
C281 C283 1.327 . S
C281 H304 0.950 . S
C282 C281 1.349 . S
C282 C294 1.349 . S
C283 C281 1.327 . S
C283 C299 1.429 . S
C283 H305 0.950 . S
C284 H280 0.949 . S
C284 C292 1.574 . S
C284 C300 1.368 . S
H285 C293 0.950 . S
H286 C291 0.950 . S
H287 C292 0.949 . S
H288 C294 0.950 . S
H289 C295 0.950 . S
H290 C296 0.949 . S
C291 H286 0.950 . S
C291 C293 1.327 . S
C291 C297 1.429 . S
C292 C284 1.574 . S
C292 H287 0.949 . S
C292 C298 1.368 . S
C293 C277 1.349 . S
C293 H285 0.950 . S
C293 C291 1.327 . S
C294 C282 1.349 . S
C294 H288 0.950 . S
C294 C295 1.327 . S
C295 H289 0.950 . S
C295 C294 1.327 . S
C295 C299 1.429 . S
C296 C279 1.574 . S
C296 H290 0.949 . S
C296 C300 1.368 . S
C297 C278 1.429 . S
C297 C291 1.429 . S
C297 C298 1.523 . S
C298 C279 1.368 . S
C298 C292 1.368 . S
C298 C297 1.523 . S
C299 C283 1.429 . S
C299 C295 1.429 . S
C299 C300 1.523 . S
C300 C284 1.368 . S
C300 C296 1.368 . S
C300 C299 1.523 . S
H301 C276 0.950 . S
H302 C278 0.950 . S
H303 C279 0.949 . S
H304 C281 0.950 . S
H305 C283 0.950 . S
C306 C307 1.349 . S
C306 C308 1.327 . S
C306 H331 0.950 . S
C307 C306 1.349 . S
C307 C323 1.349 . S
C308 C306 1.327 . S
C308 C327 1.429 . S
C308 H332 0.950 . S
C309 C326 1.574 . S
C309 C328 1.368 . S
C309 H333 0.949 . S
H310 C314 0.949 . S
C311 C312 1.349 . S
C311 C313 1.327 . S
C311 H334 0.950 . S
C312 C311 1.349 . S
C312 C324 1.349 . S
C313 C311 1.327 . S
C313 C329 1.429 . S
C313 H335 0.950 . S
C314 H310 0.949 . S
C314 C322 1.574 . S
C314 C330 1.368 . S
H315 C323 0.950 . S
H316 C321 0.950 . S
H317 C322 0.949 . S
H318 C324 0.950 . S
H319 C325 0.950 . S
H320 C326 0.949 . S
C321 H316 0.950 . S
C321 C323 1.327 . S
C321 C327 1.429 . S
C322 C314 1.574 . S
C322 H317 0.949 . S
C322 C328 1.368 . S
C323 C307 1.349 . S
C323 H315 0.950 . S
C323 C321 1.327 . S
C324 C312 1.349 . S
C324 H318 0.950 . S
C324 C325 1.327 . S
C325 H319 0.950 . S
C325 C324 1.327 . S
C325 C329 1.429 . S
C326 C309 1.574 . S
C326 H320 0.949 . S
C326 C330 1.368 . S
C327 C308 1.429 . S
C327 C321 1.429 . S
C327 C328 1.523 . S
C328 C309 1.368 . S
C328 C322 1.368 . S
C328 C327 1.523 . S
C329 C313 1.429 . S
C329 C325 1.429 . S
C329 C330 1.523 . S
C330 C314 1.368 . S
C330 C326 1.368 . S
C330 C329 1.523 . S
H331 C306 0.950 . S
H332 C308 0.950 . S
H333 C309 0.949 . S
H334 C311 0.950 . S
H335 C313 0.950 . S
C336 C337 1.349 . S
C336 C338 1.327 . S
C336 H361 0.950 . S
C337 C336 1.349 . S
C337 C353 1.349 . S
C338 C336 1.327 . S
C338 C357 1.429 . S
C338 H362 0.950 . S
C339 C356 1.574 . S
C339 C358 1.368 . S
C339 H363 0.949 . S
H340 C344 0.949 . S
C341 C342 1.349 . S
C341 C343 1.327 . S
C341 H364 0.950 . S
C342 C341 1.349 . S
C342 C354 1.349 . S
C343 C341 1.327 . S
C343 C359 1.429 1_554 S
C343 H365 0.950 . S
C344 H340 0.949 . S
C344 C352 1.574 . S
C344 C360 1.368 . S
H345 C353 0.950 . S
H346 C351 0.950 . S
H347 C352 0.949 . S
H348 C354 0.950 . S
H349 C355 0.967 . S
H350 C356 0.949 . S
C351 H346 0.950 . S
C351 C353 1.327 . S
C351 C357 1.429 . S
C352 C344 1.574 . S
C352 H347 0.949 . S
C352 C358 1.368 . S
C353 C337 1.349 . S
C353 H345 0.950 . S
C353 C351 1.327 . S
C354 C342 1.349 . S
C354 H348 0.950 . S
C354 C355 1.308 1_554 S
C355 H349 0.967 . S
C355 C354 1.308 1_556 S
C355 C359 1.434 . S
C356 C339 1.574 . S
C356 H350 0.949 . S
C356 C360 1.368 . S
C357 C338 1.429 . S
C357 C351 1.429 . S
C357 C358 1.523 . S
C358 C339 1.368 . S
C358 C352 1.368 . S
C358 C357 1.523 . S
C359 C343 1.429 1_556 S
C359 C355 1.434 . S
C359 C360 1.523 . S
C360 C344 1.368 . S
C360 C356 1.368 . S
C360 C359 1.523 . S
H361 C336 0.950 . S
H362 C338 0.950 . S
H363 C339 0.949 . S
H364 C341 0.950 . S
H365 C343 0.950 . S
C366 C367 1.349 . S
C366 C368 1.327 . S
C366 H391 0.950 . S
C367 C366 1.349 . S
C367 C383 1.349 . S
C368 C366 1.327 . S
C368 C387 1.429 . S
C368 H392 0.950 . S
C369 C386 1.574 . S
C369 C388 1.368 . S
C369 H393 0.949 . S
H370 C374 0.949 . S
C371 C372 1.349 . S
C371 C373 1.327 . S
C371 H394 0.950 . S
C372 C371 1.349 . S
C372 C384 1.349 . S
C373 C371 1.327 . S
C373 C389 1.429 . S
C373 H395 0.950 . S
C374 H370 0.949 . S
C374 C382 1.574 . S
C374 C390 1.368 . S
H375 C383 0.950 . S
H376 C381 0.950 . S
H377 C382 0.949 . S
H378 C384 0.950 . S
H379 C385 0.950 . S
H380 C386 0.949 . S
C381 H376 0.950 . S
C381 C383 1.327 . S
C381 C387 1.429 . S
C382 C374 1.574 . S
C382 H377 0.949 . S
C382 C388 1.368 . S
C383 C367 1.349 . S
C383 H375 0.950 . S
C383 C381 1.327 . S
C384 C372 1.349 . S
C384 H378 0.950 . S
C384 C385 1.327 . S
C385 H379 0.950 . S
C385 C384 1.327 . S
C385 C389 1.429 . S
C386 C369 1.574 . S
C386 H380 0.949 . S
C386 C390 1.368 . S
C387 C368 1.429 . S
C387 C381 1.429 . S
C387 C388 1.523 . S
C388 C369 1.368 . S
C388 C382 1.368 . S
C388 C387 1.523 . S
C389 C373 1.429 . S
C389 C385 1.429 . S
C389 C390 1.523 . S
C390 C374 1.368 . S
C390 C386 1.368 . S
C390 C389 1.523 . S
H391 C366 0.950 . S
H392 C368 0.950 . S
H393 C369 0.949 . S
H394 C371 0.950 . S
H395 C373 0.950 . S
C396 C397 1.349 . S
C396 C398 1.327 . S
C396 H421 0.950 . S
C397 C396 1.349 . S
C397 C413 1.349 . S
C398 C396 1.327 . S
C398 C417 1.429 . S
C398 H422 0.950 . S
C399 C416 1.574 . S
C399 C418 1.368 . S
C399 H423 0.949 . S
H400 C404 0.949 . S
C401 C402 1.349 . S
C401 C403 1.327 . S
C401 H424 0.950 . S
C402 C401 1.349 . S
C402 C414 1.349 . S
C403 C401 1.327 . S
C403 C419 1.429 . S
C403 H425 0.950 . S
C404 H400 0.949 . S
C404 C412 1.574 . S
C404 C420 1.368 . S
H405 C413 0.950 1_545 S
H406 C411 0.950 1_545 S
H407 C412 0.949 . S
H408 C414 0.950 . S
H409 C415 0.950 . S
H410 C416 0.949 . S
C411 H406 0.950 1_565 S
C411 C413 1.327 . S
C411 C417 1.429 . S
C412 C404 1.574 . S
C412 H407 0.949 . S
C412 C418 1.368 . S
C413 C397 1.349 . S
C413 H405 0.950 1_565 S
C413 C411 1.327 . S
C414 C402 1.349 . S
C414 H408 0.950 . S
C414 C415 1.327 . S
C415 H409 0.950 . S
C415 C414 1.327 . S
C415 C419 1.429 . S
C416 C399 1.574 . S
C416 H410 0.949 . S
C416 C420 1.368 . S
C417 C398 1.429 . S
C417 C411 1.429 . S
C417 C418 1.523 . S
C418 C399 1.368 . S
C418 C412 1.368 . S
C418 C417 1.523 . S
C419 C403 1.429 . S
C419 C415 1.429 . S
C419 C420 1.523 . S
C420 C404 1.368 . S
C420 C416 1.368 . S
C420 C419 1.523 . S
H421 C396 0.950 . S
H422 C398 0.950 . S
H423 C399 0.949 . S
H424 C401 0.950 . S
H425 C403 0.950 . S
C426 C427 1.349 . S
C426 C428 1.327 . S
C426 H451 0.950 . S
C427 C426 1.349 . S
C427 C443 1.349 . S
C428 C426 1.327 . S
C428 C447 1.429 . S
C428 H452 0.950 . S
C429 C446 1.574 1_545 S
C429 C448 1.368 . S
C429 H453 0.949 . S
H430 C434 0.945 1_565 S
C431 C432 1.349 . S
C431 C433 1.327 . S
C431 H454 0.950 . S
C432 C431 1.349 . S
C432 C444 1.349 . S
C433 C431 1.327 . S
C433 C449 1.429 . S
C433 H455 0.950 . S
C434 H430 0.945 1_545 S
C434 C442 1.602 . S
C434 C450 1.344 1_545 S
H435 C443 0.950 . S
H436 C441 0.950 . S
H437 C442 0.949 . S
H438 C444 0.950 . S
H439 C445 0.950 . S
H440 C446 0.949 . S
C441 H436 0.950 . S
C441 C443 1.327 . S
C441 C447 1.429 . S
C442 C434 1.602 . S
C442 H437 0.949 . S
C442 C448 1.368 . S
C443 C427 1.349 . S
C443 H435 0.950 . S
C443 C441 1.327 . S
C444 C432 1.349 . S
C444 H438 0.950 . S
C444 C445 1.327 . S
C445 H439 0.950 . S
C445 C444 1.327 . S
C445 C449 1.429 . S
C446 C429 1.574 1_565 S
C446 H440 0.949 . S
C446 C450 1.368 . S
C447 C428 1.429 . S
C447 C441 1.429 . S
C447 C448 1.523 . S
C448 C429 1.368 . S
C448 C442 1.368 . S
C448 C447 1.523 . S
C449 C433 1.429 . S
C449 C445 1.429 . S
C449 C450 1.523 . S
C450 C434 1.344 1_565 S
C450 C446 1.368 . S
C450 C449 1.523 . S
H451 C426 0.950 . S
H452 C428 0.950 . S
H453 C429 0.949 . S
H454 C431 0.950 . S
H455 C433 0.950 . S
C456 C457 1.349 . S
C456 C458 1.327 . S
C456 H481 0.950 . S
C457 C456 1.349 . S
C457 C473 1.349 . S
C458 C456 1.327 . S
C458 C477 1.429 . S
C458 H482 0.950 . S
C459 C476 1.574 . S
C459 C478 1.368 . S
C459 H483 0.949 . S
H460 C464 0.949 . S
C461 C462 1.349 . S
C461 C463 1.327 . S
C461 H484 0.950 . S
C462 C461 1.349 . S
C462 C474 1.349 . S
C463 C461 1.327 . S
C463 C479 1.429 . S
C463 H485 0.950 . S
C464 H460 0.949 . S
C464 C472 1.574 . S
C464 C480 1.368 . S
H465 C473 0.950 . S
H466 C471 0.950 . S
H467 C472 0.949 . S
H468 C474 0.950 . S
H469 C475 0.950 . S
H470 C476 0.949 . S
C471 H466 0.950 . S
C471 C473 1.327 . S
C471 C477 1.429 . S
C472 C464 1.574 . S
C472 H467 0.949 . S
C472 C478 1.368 . S
C473 C457 1.349 . S
C473 H465 0.950 . S
C473 C471 1.327 . S
C474 C462 1.349 . S
C474 H468 0.950 . S
C474 C475 1.327 . S
C475 H469 0.950 . S
C475 C474 1.327 . S
C475 C479 1.429 . S
C476 C459 1.574 . S
C476 H470 0.949 . S
C476 C480 1.368 . S
C477 C458 1.429 . S
C477 C471 1.429 . S
C477 C478 1.523 . S
C478 C459 1.368 . S
C478 C472 1.368 . S
C478 C477 1.523 . S
C479 C463 1.429 . S
C479 C475 1.429 . S
C479 C480 1.523 . S
C480 C464 1.368 . S
C480 C476 1.368 . S
C480 C479 1.523 . S
H481 C456 0.950 . S
H482 C458 0.950 . S
H483 C459 0.949 . S
H484 C461 0.950 . S
H485 C463 0.950 . S
C486 C487 1.349 . S
C486 C488 1.327 . S
C486 H511 0.950 . S
C487 C486 1.349 . S
C487 C503 1.349 . S
C488 C486 1.327 . S
C488 C507 1.429 . S
C488 H512 0.950 . S
C489 C506 1.574 . S
C489 C508 1.368 . S
C489 H513 0.949 . S
H490 C494 0.949 . S
C491 C492 1.349 . S
C491 C493 1.327 . S
C491 H514 0.950 . S
C492 C491 1.349 . S
C492 C504 1.349 . S
C493 C491 1.327 . S
C493 C509 1.429 . S
C493 H515 0.950 . S
C494 H490 0.949 . S
C494 C502 1.574 . S
C494 C510 1.368 . S
H495 C503 0.950 . S
H496 C501 0.950 . S
H497 C502 0.949 . S
H498 C504 0.950 1_556 S
H499 C505 0.950 . S
H500 C506 0.949 . S
C501 H496 0.950 . S
C501 C503 1.327 . S
C501 C507 1.429 . S
C502 C494 1.574 . S
C502 H497 0.949 . S
C502 C508 1.368 . S
C503 C487 1.349 . S
C503 H495 0.950 . S
C503 C501 1.327 . S
C504 C492 1.349 . S
C504 H498 0.950 1_554 S
C504 C505 1.327 . S
C505 H499 0.950 . S
C505 C504 1.327 . S
C505 C509 1.429 . S
C506 C489 1.574 . S
C506 H500 0.949 . S
C506 C510 1.368 . S
C507 C488 1.429 . S
C507 C501 1.429 . S
C507 C508 1.523 . S
C508 C489 1.368 . S
C508 C502 1.368 . S
C508 C507 1.523 . S
C509 C493 1.429 . S
C509 C505 1.429 . S
C509 C510 1.523 . S
C510 C494 1.368 . S
C510 C506 1.368 . S
C510 C509 1.523 . S
H511 C486 0.950 . S
H512 C488 0.950 . S
H513 C489 0.949 . S
H514 C491 0.950 . S
H515 C493 0.950 . S
C516 C517 1.349 . S
C516 C518 1.327 . S
C516 H541 0.950 . S
C517 C516 1.349 . S
C517 C533 1.349 . S
C518 C516 1.327 . S
C518 C537 1.429 . S
C518 H542 0.950 . S
C519 C536 1.574 . S
C519 C538 1.368 . S
C519 H543 0.949 . S
H520 C524 0.926 1_655 S
C521 C522 1.349 . S
C521 C523 1.327 . S
C521 H544 0.950 . S
C522 C521 1.349 . S
C522 C534 1.349 . S
C523 C521 1.327 . S
C523 C539 1.429 . S
C523 H545 0.950 . S
C524 H520 0.926 1_455 S
C524 C532 1.596 . S
C524 C540 1.373 . S
H525 C533 0.950 . S
H526 C531 0.950 . S
H527 C532 0.949 . S
H528 C534 0.950 . S
H529 C535 0.950 . S
H530 C536 0.949 . S
C531 H526 0.950 . S
C531 C533 1.327 . S
C531 C537 1.429 . S
C532 C524 1.596 . S
C532 H527 0.949 . S
C532 C538 1.368 . S
C533 C517 1.349 . S
C533 H525 0.950 . S
C533 C531 1.327 . S
C534 C522 1.349 . S
C534 H528 0.950 . S
C534 C535 1.327 . S
C535 H529 0.950 . S
C535 C534 1.327 . S
C535 C539 1.429 . S
C536 C519 1.574 . S
C536 H530 0.949 . S
C536 C540 1.368 . S
C537 C518 1.429 . S
C537 C531 1.429 . S
C537 C538 1.523 . S
C538 C519 1.368 . S
C538 C532 1.368 . S
C538 C537 1.523 . S
C539 C523 1.429 . S
C539 C535 1.429 . S
C539 C540 1.523 1_655 S
C540 C524 1.373 . S
C540 C536 1.368 . S
C540 C539 1.523 1_455 S
H541 C516 0.950 . S
H542 C518 0.950 . S
H543 C519 0.949 . S
H544 C521 0.950 . S
H545 C523 0.950 . S
C546 C547 1.349 . S
C546 C548 1.327 . S
C546 H571 0.950 . S
C547 C546 1.349 . S
C547 C563 1.349 1_455 S
C548 C546 1.327 . S
C548 C567 1.429 1_455 S
C548 H572 0.950 . S
C549 C566 1.574 . S
C549 C568 1.368 . S
C549 H573 0.949 . S
H550 C554 0.949 . S
C551 C552 1.349 . S
C551 C553 1.327 . S
C551 H574 0.950 . S
C552 C551 1.349 . S
C552 C564 1.349 . S
C553 C551 1.327 . S
C553 C569 1.429 . S
C553 H575 0.950 . S
C554 H550 0.949 . S
C554 C562 1.574 . S
C554 C570 1.368 1_455 S
H555 C563 0.950 . S
H556 C561 0.950 . S
H557 C562 0.949 . S
H558 C564 0.950 . S
H559 C565 0.950 1_455 S
H560 C566 0.949 . S
C561 H556 0.950 . S
C561 C563 1.327 . S
C561 C567 1.429 . S
C562 C554 1.574 . S
C562 H557 0.949 . S
C562 C568 1.368 1_455 S
C563 C547 1.349 1_655 S
C563 H555 0.950 . S
C563 C561 1.327 . S
C564 C552 1.349 . S
C564 H558 0.950 . S
C564 C565 1.327 . S
C565 H559 0.950 1_655 S
C565 C564 1.327 . S
C565 C569 1.429 . S
C566 C549 1.574 . S
C566 H560 0.949 . S
C566 C570 1.368 . S
C567 C548 1.429 1_655 S
C567 C561 1.429 . S
C567 C568 1.523 . S
C568 C549 1.368 . S
C568 C562 1.368 1_655 S
C568 C567 1.523 . S
C569 C553 1.429 . S
C569 C565 1.429 . S
C569 C570 1.523 . S
C570 C554 1.368 1_655 S
C570 C566 1.368 . S
C570 C569 1.523 . S
H571 C546 0.950 . S
H572 C548 0.950 . S
H573 C549 0.949 . S
H574 C551 0.950 . S
H575 C553 0.950 . S
C576 C577 1.349 . S
C576 C578 1.327 . S
C576 H601 0.950 . S
C577 C576 1.349 . S
C577 C593 1.349 . S
C578 C576 1.327 . S
C578 C597 1.429 . S
C578 H602 0.950 . S
C579 C596 1.574 . S
C579 C598 1.368 . S
C579 H603 0.949 . S
H580 C584 0.949 . S
C581 C582 1.349 . S
C581 C583 1.327 . S
C581 H604 0.950 . S
C582 C581 1.349 . S
C582 C594 1.349 . S
C583 C581 1.327 . S
C583 C599 1.429 . S
C583 H605 0.950 . S
C584 H580 0.949 . S
C584 C592 1.574 . S
C584 C600 1.368 . S
H585 C593 0.950 . S
H586 C591 0.950 . S
H587 C592 0.949 . S
H588 C594 0.950 . S
H589 C595 0.950 . S
H590 C596 0.949 . S
C591 H586 0.950 . S
C591 C593 1.327 . S
C591 C597 1.429 . S
C592 C584 1.574 . S
C592 H587 0.949 . S
C592 C598 1.368 . S
C593 C577 1.349 . S
C593 H585 0.950 . S
C593 C591 1.327 . S
C594 C582 1.349 . S
C594 H588 0.950 . S
C594 C595 1.327 . S
C595 H589 0.950 . S
C595 C594 1.327 . S
C595 C599 1.429 . S
C596 C579 1.574 . S
C596 H590 0.949 . S
C596 C600 1.368 . S
C597 C578 1.429 . S
C597 C591 1.429 . S
C597 C598 1.523 . S
C598 C579 1.368 . S
C598 C592 1.368 . S
C598 C597 1.523 . S
C599 C583 1.429 . S
C599 C595 1.429 . S
C599 C600 1.523 . S
C600 C584 1.368 . S
C600 C596 1.368 . S
C600 C599 1.523 . S
H601 C576 0.950 . S
H602 C578 0.950 . S
H603 C579 0.949 . S
H604 C581 0.950 . S
H605 C583 0.950 . S
C606 C607 1.349 . S
C606 C608 1.327 . S
C606 H631 0.950 . S
C607 C606 1.349 . S
C607 C623 1.349 . S
C608 C606 1.327 . S
C608 C627 1.429 . S
C608 H632 0.950 . S
C609 C626 1.574 . S
C609 C628 1.368 . S
C609 H633 0.949 . S
H610 C614 0.951 . S
C611 C612 1.349 . S
C611 C613 1.327 . S
C611 H634 0.950 . S
C612 C611 1.349 . S
C612 C624 1.349 . S
C613 C611 1.327 . S
C613 C629 1.429 . S
C613 H635 0.950 . S
C614 H610 0.951 . S
C614 C622 1.571 1_655 S
C614 C630 1.369 . S
H615 C623 0.950 . S
H616 C621 0.950 . S
H617 C622 0.949 . S
H618 C624 0.950 . S
H619 C625 0.950 . S
H620 C626 0.949 1_655 S
C621 H616 0.950 . S
C621 C623 1.327 . S
C621 C627 1.429 . S
C622 C614 1.571 1_455 S
C622 H617 0.949 . S
C622 C628 1.368 . S
C623 C607 1.349 . S
C623 H615 0.950 . S
C623 C621 1.327 . S
C624 C612 1.349 . S
C624 H618 0.950 . S
C624 C625 1.327 . S
C625 H619 0.950 . S
C625 C624 1.327 . S
C625 C629 1.429 . S
C626 C609 1.574 . S
C626 H620 0.949 1_455 S
C626 C630 1.368 1_455 S
C627 C608 1.429 . S
C627 C621 1.429 . S
C627 C628 1.523 . S
C628 C609 1.368 . S
C628 C622 1.368 . S
C628 C627 1.523 . S
C629 C613 1.429 . S
C629 C625 1.429 . S
C629 C630 1.523 . S
C630 C614 1.369 . S
C630 C626 1.368 1_655 S
C630 C629 1.523 . S
H631 C606 0.950 . S
H632 C608 0.950 . S
H633 C609 0.949 . S
H634 C611 0.950 . S
H635 C613 0.950 . S
C636 C637 1.349 . S
C636 C638 1.327 . S
C636 H661 0.950 . S
C637 C636 1.349 . S
C637 C653 1.349 . S
C638 C636 1.327 . S
C638 C657 1.429 . S
C638 H662 0.950 . S
C639 C656 1.574 . S
C639 C658 1.368 . S
C639 H663 0.949 . S
H640 C644 0.949 . S
C641 C642 1.315 1_554 S
C641 C643 1.303 1_554 S
C641 H664 1.012 . S
C642 C641 1.315 1_556 S
C642 C654 1.349 . S
C643 C641 1.303 1_556 S
C643 C659 1.429 . S
C643 H665 0.950 1_556 S
C644 H640 0.949 . S
C644 C652 1.574 . S
C644 C660 1.368 . S
H645 C653 0.950 . S
H646 C651 0.950 . S
H647 C652 0.949 . S
H648 C654 0.950 . S
H649 C655 0.950 . S
H650 C656 0.949 . S
C651 H646 0.950 . S
C651 C653 1.327 . S
C651 C657 1.429 . S
C652 C644 1.574 . S
C652 H647 0.949 . S
C652 C658 1.368 . S
C653 C637 1.349 . S
C653 H645 0.950 . S
C653 C651 1.327 . S
C654 C642 1.349 . S
C654 H648 0.950 . S
C654 C655 1.327 . S
C655 H649 0.950 . S
C655 C654 1.327 . S
C655 C659 1.429 . S
C656 C639 1.574 . S
C656 H650 0.949 . S
C656 C660 1.368 . S
C657 C638 1.429 . S
C657 C651 1.429 . S
C657 C658 1.523 . S
C658 C639 1.368 . S
C658 C652 1.368 . S
C658 C657 1.523 . S
C659 C643 1.429 . S
C659 C655 1.429 . S
C659 C660 1.523 . S
C660 C644 1.368 . S
C660 C656 1.368 . S
C660 C659 1.523 . S
H661 C636 0.950 . S
H662 C638 0.950 . S
H663 C639 0.949 . S
H664 C641 1.012 . S
H665 C643 0.950 1_554 S
C666 C667 1.349 . S
C666 C668 1.327 . S
C666 H691 0.950 . S
C667 C666 1.349 . S
C667 C683 1.349 . S
C668 C666 1.327 . S
C668 C687 1.429 . S
C668 H692 0.950 . S
C669 C686 1.574 . S
C669 C688 1.368 . S
C669 H693 0.949 . S
H670 C674 0.949 . S
C671 C672 1.349 . S
C671 C673 1.327 . S
C671 H694 0.950 . S
C672 C671 1.349 . S
C672 C684 1.349 . S
C673 C671 1.327 . S
C673 C689 1.429 . S
C673 H695 0.950 . S
C674 H670 0.949 . S
C674 C682 1.574 . S
C674 C690 1.368 . S
H675 C683 0.950 . S
H676 C681 0.950 . S
H677 C682 0.949 . S
H678 C684 0.950 . S
H679 C685 0.950 . S
H680 C686 0.949 . S
C681 H676 0.950 . S
C681 C683 1.327 . S
C681 C687 1.429 . S
C682 C674 1.574 . S
C682 H677 0.949 . S
C682 C688 1.368 . S
C683 C667 1.349 . S
C683 H675 0.950 . S
C683 C681 1.327 . S
C684 C672 1.349 . S
C684 H678 0.950 . S
C684 C685 1.327 . S
C685 H679 0.950 . S
C685 C684 1.327 . S
C685 C689 1.429 . S
C686 C669 1.574 . S
C686 H680 0.949 . S
C686 C690 1.368 . S
C687 C668 1.429 . S
C687 C681 1.429 . S
C687 C688 1.523 . S
C688 C669 1.368 . S
C688 C682 1.368 . S
C688 C687 1.523 . S
C689 C673 1.429 . S
C689 C685 1.429 . S
C689 C690 1.523 . S
C690 C674 1.368 . S
C690 C686 1.368 . S
C690 C689 1.523 . S
H691 C666 0.950 . S
H692 C668 0.950 . S
H693 C669 0.949 . S
H694 C671 0.950 . S
H695 C673 0.950 . S
C696 C697 1.349 . S
C696 C698 1.327 . S
C696 H721 0.950 . S
C697 C696 1.349 . S
C697 C713 1.349 . S
C698 C696 1.327 . S
C698 C717 1.429 . S
C698 H722 0.950 . S
C699 C716 1.574 . S
C699 C718 1.368 . S
C699 H723 0.949 . S
H700 C704 0.949 1_565 S
C701 C702 1.349 . S
C701 C703 1.327 1_565 S
C701 H724 0.950 . S
C702 C701 1.349 . S
C702 C714 1.349 . S
C703 C701 1.327 1_545 S
C703 C719 1.432 . S
C703 H725 0.950 . S
C704 H700 0.949 1_545 S
C704 C712 1.574 . S
C704 C720 1.368 . S
H705 C713 0.950 . S
H706 C711 0.950 . S
H707 C712 0.949 . S
H708 C714 0.950 . S
H709 C715 0.950 . S
H710 C716 0.949 . S
C711 H706 0.950 . S
C711 C713 1.327 . S
C711 C717 1.429 . S
C712 C704 1.574 . S
C712 H707 0.949 . S
C712 C718 1.368 . S
C713 C697 1.349 . S
C713 H705 0.950 . S
C713 C711 1.327 . S
C714 C702 1.349 . S
C714 H708 0.950 . S
C714 C715 1.327 . S
C715 H709 0.950 . S
C715 C714 1.327 . S
C715 C719 1.415 1_565 S
C716 C699 1.574 . S
C716 H710 0.949 . S
C716 C720 1.368 . S
C717 C698 1.429 . S
C717 C711 1.429 . S
C717 C718 1.523 . S
C718 C699 1.368 . S
C718 C712 1.368 . S
C718 C717 1.523 . S
C719 C703 1.432 . S
C719 C715 1.415 1_545 S
C719 C720 1.533 . S
C720 C704 1.368 . S
C720 C716 1.368 . S
C720 C719 1.533 . S
H721 C696 0.950 . S
H722 C698 0.950 . S
H723 C699 0.949 . S
H724 C701 0.950 . S
H725 C703 0.950 . S
C726 C727 1.349 . S
C726 C728 1.327 . S
C726 H751 0.950 . S
C727 C726 1.349 . S
C727 C743 1.349 . S
C728 C726 1.327 . S
C728 C747 1.429 . S
C728 H752 0.950 . S
C729 C746 1.574 . S
C729 C748 1.368 . S
C729 H753 0.949 . S
H730 C734 0.949 . S
C731 C732 1.349 . S
C731 C733 1.327 . S
C731 H754 0.950 . S
C732 C731 1.349 . S
C732 C744 1.349 . S
C733 C731 1.327 . S
C733 C749 1.429 . S
C733 H755 0.950 . S
C734 H730 0.949 . S
C734 C742 1.574 . S
C734 C750 1.368 . S
H735 C743 0.950 . S
H736 C741 0.950 . S
H737 C742 0.949 . S
H738 C744 0.950 . S
H739 C745 0.950 . S
H740 C746 0.949 . S
C741 H736 0.950 . S
C741 C743 1.327 . S
C741 C747 1.429 . S
C742 C734 1.574 . S
C742 H737 0.949 . S
C742 C748 1.368 . S
C743 C727 1.349 . S
C743 H735 0.950 . S
C743 C741 1.327 . S
C744 C732 1.349 . S
C744 H738 0.950 . S
C744 C745 1.327 . S
C745 H739 0.950 . S
C745 C744 1.327 . S
C745 C749 1.429 . S
C746 C729 1.574 . S
C746 H740 0.949 . S
C746 C750 1.368 . S
C747 C728 1.429 . S
C747 C741 1.429 . S
C747 C748 1.523 . S
C748 C729 1.368 . S
C748 C742 1.368 . S
C748 C747 1.523 . S
C749 C733 1.429 . S
C749 C745 1.429 . S
C749 C750 1.523 . S
C750 C734 1.368 . S
C750 C746 1.368 . S
C750 C749 1.523 . S
H751 C726 0.950 . S
H752 C728 0.950 . S
H753 C729 0.949 . S
H754 C731 0.950 . S
H755 C733 0.950 . S
C756 C757 1.349 . S
C756 C758 1.327 . S
C756 H781 0.950 . S
C757 C756 1.349 . S
C757 C773 1.349 . S
C758 C756 1.327 . S
C758 C777 1.429 . S
C758 H782 0.950 . S
C759 C776 1.574 . S
C759 C778 1.368 . S
C759 H783 0.949 . S
H760 C764 0.949 . S
C761 C762 1.349 . S
C761 C763 1.327 . S
C761 H784 0.950 . S
C762 C761 1.349 . S
C762 C774 1.349 . S
C763 C761 1.327 . S
C763 C779 1.429 . S
C763 H785 0.950 . S
C764 H760 0.949 . S
C764 C772 1.574 . S
C764 C780 1.368 . S
H765 C773 0.950 . S
H766 C771 0.950 . S
H767 C772 0.949 . S
H768 C774 0.950 . S
H769 C775 0.950 . S
H770 C776 0.949 . S
C771 H766 0.950 . S
C771 C773 1.327 . S
C771 C777 1.429 . S
C772 C764 1.574 . S
C772 H767 0.949 . S
C772 C778 1.368 . S
C773 C757 1.349 . S
C773 H765 0.950 . S
C773 C771 1.327 . S
C774 C762 1.349 . S
C774 H768 0.950 . S
C774 C775 1.327 . S
C775 H769 0.950 . S
C775 C774 1.327 . S
C775 C779 1.429 . S
C776 C759 1.574 . S
C776 H770 0.949 . S
C776 C780 1.368 . S
C777 C758 1.429 . S
C777 C771 1.429 . S
C777 C778 1.523 . S
C778 C759 1.368 . S
C778 C772 1.368 . S
C778 C777 1.523 . S
C779 C763 1.429 . S
C779 C775 1.429 . S
C779 C780 1.523 . S
C780 C764 1.368 . S
C780 C776 1.368 . S
C780 C779 1.523 . S
H781 C756 0.950 . S
H782 C758 0.950 . S
H783 C759 0.949 . S
H784 C761 0.950 . S
H785 C763 0.950 . S
C786 C787 1.349 . S
C786 C788 1.327 . S
C786 H811 0.950 . S
C787 C786 1.349 . S
C787 C803 1.349 . S
C788 C786 1.327 . S
C788 C807 1.429 . S
C788 H812 0.950 . S
C789 C806 1.574 . S
C789 C808 1.368 . S
C789 H813 0.949 . S
H790 C794 0.949 . S
C791 C792 1.349 . S
C791 C793 1.327 . S
C791 H814 0.950 . S
C792 C791 1.349 . S
C792 C804 1.349 . S
C793 C791 1.327 . S
C793 C809 1.429 . S
C793 H815 0.950 . S
C794 H790 0.949 . S
C794 C802 1.574 . S
C794 C810 1.368 . S
H795 C803 0.950 . S
H796 C801 0.950 . S
H797 C802 0.949 . S
H798 C804 0.950 . S
H799 C805 0.950 . S
H800 C806 0.949 . S
C801 H796 0.950 . S
C801 C803 1.327 . S
C801 C807 1.429 . S
C802 C794 1.574 . S
C802 H797 0.949 . S
C802 C808 1.368 . S
C803 C787 1.349 . S
C803 H795 0.950 . S
C803 C801 1.327 . S
C804 C792 1.349 . S
C804 H798 0.950 . S
C804 C805 1.327 . S
C805 H799 0.950 . S
C805 C804 1.327 . S
C805 C809 1.429 . S
C806 C789 1.574 . S
C806 H800 0.949 . S
C806 C810 1.368 . S
C807 C788 1.429 . S
C807 C801 1.429 . S
C807 C808 1.523 . S
C808 C789 1.368 . S
C808 C802 1.368 . S
C808 C807 1.523 . S
C809 C793 1.429 . S
C809 C805 1.429 . S
C809 C810 1.523 . S
C810 C794 1.368 . S
C810 C806 1.368 . S
C810 C809 1.523 . S
H811 C786 0.950 . S
H812 C788 0.950 . S
H813 C789 0.949 . S
H814 C791 0.950 . S
H815 C793 0.950 . S
C816 C817 1.349 . S
C816 C818 1.327 . S
C816 H841 0.950 . S
C817 C816 1.349 . S
C817 C833 1.349 . S
C818 C816 1.327 . S
C818 C837 1.429 . S
C818 H842 0.950 . S
C819 C836 1.574 . S
C819 C838 1.368 . S
C819 H843 0.949 . S
H820 C824 0.949 . S
C821 C822 1.349 . S
C821 C823 1.327 . S
C821 H844 0.950 . S
C822 C821 1.349 . S
C822 C834 1.349 . S
C823 C821 1.327 . S
C823 C839 1.429 . S
C823 H845 0.950 . S
C824 H820 0.949 . S
C824 C832 1.574 . S
C824 C840 1.368 . S
H825 C833 0.950 . S
H826 C831 0.950 . S
H827 C832 0.949 . S
H828 C834 0.950 . S
H829 C835 0.950 . S
H830 C836 0.949 . S
C831 H826 0.950 . S
C831 C833 1.327 . S
C831 C837 1.429 . S
C832 C824 1.574 . S
C832 H827 0.949 . S
C832 C838 1.368 . S
C833 C817 1.349 . S
C833 H825 0.950 . S
C833 C831 1.327 . S
C834 C822 1.349 . S
C834 H828 0.950 . S
C834 C835 1.327 . S
C835 H829 0.950 . S
C835 C834 1.327 . S
C835 C839 1.429 . S
C836 C819 1.574 . S
C836 H830 0.949 . S
C836 C840 1.368 . S
C837 C818 1.429 . S
C837 C831 1.429 . S
C837 C838 1.523 . S
C838 C819 1.368 . S
C838 C832 1.368 . S
C838 C837 1.523 . S
C839 C823 1.429 . S
C839 C835 1.429 . S
C839 C840 1.523 . S
C840 C824 1.368 . S
C840 C836 1.368 . S
C840 C839 1.523 . S
H841 C816 0.950 . S
H842 C818 0.950 . S
H843 C819 0.949 . S
H844 C821 0.950 . S
H845 C823 0.950 . S
C846 C847 1.349 . S
C846 C848 1.327 . S
C846 H871 0.950 . S
C847 C846 1.349 . S
C847 C863 1.349 . S
C848 C846 1.327 . S
C848 C867 1.429 . S
C848 H872 0.950 . S
C849 C866 1.574 . S
C849 C868 1.368 . S
C849 H873 0.949 . S
H850 C854 0.949 . S
C851 C852 1.349 . S
C851 C853 1.327 . S
C851 H874 0.950 . S
C852 C851 1.349 . S
C852 C864 1.349 . S
C853 C851 1.327 . S
C853 C869 1.429 . S
C853 H875 0.950 . S
C854 H850 0.949 . S
C854 C862 1.574 . S
C854 C870 1.368 . S
H855 C863 0.950 . S
H856 C861 0.950 . S
H857 C862 0.949 . S
H858 C864 0.950 . S
H859 C865 0.950 . S
H860 C866 0.949 . S
C861 H856 0.950 . S
C861 C863 1.327 . S
C861 C867 1.429 . S
C862 C854 1.574 . S
C862 H857 0.949 . S
C862 C868 1.368 . S
C863 C847 1.349 . S
C863 H855 0.950 . S
C863 C861 1.327 . S
C864 C852 1.349 . S
C864 H858 0.950 . S
C864 C865 1.327 . S
C865 H859 0.950 . S
C865 C864 1.327 . S
C865 C869 1.429 . S
C866 C849 1.574 . S
C866 H860 0.949 . S
C866 C870 1.368 . S
C867 C848 1.429 . S
C867 C861 1.429 . S
C867 C868 1.523 . S
C868 C849 1.368 . S
C868 C862 1.368 . S
C868 C867 1.523 . S
C869 C853 1.429 . S
C869 C865 1.429 . S
C869 C870 1.523 . S
C870 C854 1.368 . S
C870 C866 1.368 . S
C870 C869 1.523 . S
H871 C846 0.950 . S
H872 C848 0.950 . S
H873 C849 0.949 . S
H874 C851 0.950 . S
H875 C853 0.950 . S
C876 C877 1.349 . S
C876 C878 1.327 . S
C876 H901 0.950 . S
C877 C876 1.349 . S
C877 C893 1.349 . S
C878 C876 1.327 . S
C878 C897 1.429 . S
C878 H902 0.950 . S
C879 C896 1.574 . S
C879 C898 1.368 . S
C879 H903 0.949 . S
H880 C884 0.949 . S
C881 C882 1.349 . S
C881 C883 1.327 . S
C881 H904 0.950 . S
C882 C881 1.349 . S
C882 C894 1.349 . S
C883 C881 1.327 . S
C883 C899 1.429 . S
C883 H905 0.950 . S
C884 H880 0.949 . S
C884 C892 1.574 . S
C884 C900 1.368 . S
H885 C893 0.950 . S
H886 C891 0.950 . S
H887 C892 0.949 . S
H888 C894 0.950 . S
H889 C895 0.950 . S
H890 C896 0.949 . S
C891 H886 0.950 . S
C891 C893 1.327 . S
C891 C897 1.429 . S
C892 C884 1.574 . S
C892 H887 0.949 . S
C892 C898 1.368 . S
C893 C877 1.349 . S
C893 H885 0.950 . S
C893 C891 1.327 . S
C894 C882 1.349 . S
C894 H888 0.950 . S
C894 C895 1.327 . S
C895 H889 0.950 . S
C895 C894 1.327 . S
C895 C899 1.429 . S
C896 C879 1.574 . S
C896 H890 0.949 . S
C896 C900 1.368 . S
C897 C878 1.429 . S
C897 C891 1.429 . S
C897 C898 1.523 . S
C898 C879 1.368 . S
C898 C892 1.368 . S
C898 C897 1.523 . S
C899 C883 1.429 . S
C899 C895 1.429 . S
C899 C900 1.523 . S
C900 C884 1.368 . S
C900 C896 1.368 . S
C900 C899 1.523 . S
H901 C876 0.950 . S
H902 C878 0.950 . S
H903 C879 0.949 . S
H904 C881 0.950 . S
H905 C883 0.950 . S
C906 C907 1.349 . S
C906 C908 1.327 . S
C906 H931 0.950 . S
C907 C906 1.349 . S
C907 C923 1.349 . S
C908 C906 1.327 . S
C908 C927 1.429 . S
C908 H932 0.950 . S
C909 C926 1.574 . S
C909 C928 1.368 . S
C909 H933 0.949 . S
H910 C914 0.949 . S
C911 C912 1.349 . S
C911 C913 1.327 . S
C911 H934 0.950 . S
C912 C911 1.349 . S
C912 C924 1.349 1_565 S
C913 C911 1.327 . S
C913 C929 1.429 1_565 S
C913 H935 0.950 . S
C914 H910 0.949 . S
C914 C922 1.574 . S
C914 C930 1.368 . S
H915 C923 0.950 . S
H916 C921 0.950 . S
H917 C922 0.949 . S
H918 C924 0.950 . S
H919 C925 0.950 . S
H920 C926 0.950 1_565 S
C921 H916 0.950 . S
C921 C923 1.327 . S
C921 C927 1.429 . S
C922 C914 1.574 . S
C922 H917 0.949 . S
C922 C928 1.368 . S
C923 C907 1.349 . S
C923 H915 0.950 . S
C923 C921 1.327 . S
C924 C912 1.349 1_545 S
C924 H918 0.950 . S
C924 C925 1.327 . S
C925 H919 0.950 . S
C925 C924 1.327 . S
C925 C929 1.429 . S
C926 C909 1.574 . S
C926 H920 0.950 1_545 S
C926 C930 1.368 . S
C927 C908 1.429 . S
C927 C921 1.429 . S
C927 C928 1.523 . S
C928 C909 1.368 . S
C928 C922 1.368 . S
C928 C927 1.523 . S
C929 C913 1.429 1_545 S
C929 C925 1.429 . S
C929 C930 1.523 . S
C930 C914 1.368 . S
C930 C926 1.368 . S
C930 C929 1.523 . S
H931 C906 0.950 . S
H932 C908 0.950 . S
H933 C909 0.949 . S
H934 C911 0.950 . S
H935 C913 0.950 . S
C936 C937 1.349 . S
C936 C938 1.327 . S
C936 H961 0.950 . S
C937 C936 1.349 . S
C937 C953 1.349 . S
C938 C936 1.327 . S
C938 C957 1.429 . S
C938 H962 0.950 . S
C939 C956 1.574 . S
C939 C958 1.368 . S
C939 H963 0.949 . S
H940 C944 0.949 . S
C941 C942 1.349 . S
C941 C943 1.327 . S
C941 H964 0.950 . S
C942 C941 1.349 . S
C942 C954 1.349 . S
C943 C941 1.327 . S
C943 C959 1.429 . S
C943 H965 0.950 . S
C944 H940 0.949 . S
C944 C952 1.574 . S
C944 C960 1.368 . S
H945 C953 0.950 . S
H946 C951 0.950 . S
H947 C952 0.949 . S
H948 C954 0.950 . S
H949 C955 0.950 . S
H950 C956 0.949 . S
C951 H946 0.950 . S
C951 C953 1.327 . S
C951 C957 1.429 . S
C952 C944 1.574 . S
C952 H947 0.949 . S
C952 C958 1.368 . S
C953 C937 1.349 . S
C953 H945 0.950 . S
C953 C951 1.327 . S
C954 C942 1.349 . S
C954 H948 0.950 . S
C954 C955 1.327 . S
C955 H949 0.950 . S
C955 C954 1.327 . S
C955 C959 1.429 . S
C956 C939 1.574 . S
C956 H950 0.949 . S
C956 C960 1.368 . S
C957 C938 1.429 . S
C957 C951 1.429 . S
C957 C958 1.523 . S
C958 C939 1.368 . S
C958 C952 1.368 . S
C958 C957 1.523 . S
C959 C943 1.429 . S
C959 C955 1.429 . S
C959 C960 1.523 . S
C960 C944 1.368 . S
C960 C956 1.368 . S
C960 C959 1.523 . S
H961 C936 0.950 . S
H962 C938 0.950 . S
H963 C939 0.949 . S
H964 C941 0.950 . S
H965 C943 0.950 . S
C966 C967 1.349 . S
C966 C968 1.327 . S
C966 H991 0.950 . S
C967 C966 1.349 . S
C967 C983 1.349 . S
C968 C966 1.327 . S
C968 C987 1.429 . S
C968 H992 0.950 . S
C969 C986 1.574 . S
C969 C988 1.368 . S
C969 H993 0.949 . S
H970 C974 0.949 . S
C971 C972 1.349 . S
C971 C973 1.327 . S
C971 H994 0.950 . S
C972 C971 1.349 . S
C972 C984 1.349 . S
C973 C971 1.327 . S
C973 C989 1.429 . S
C973 H995 0.950 . S
C974 H970 0.949 . S
C974 C982 1.574 . S
C974 C990 1.368 . S
H975 C983 0.950 . S
H976 C981 0.950 . S
H977 C982 0.949 . S
H978 C984 0.950 . S
H979 C985 0.950 . S
H980 C986 0.949 . S
C981 H976 0.950 . S
C981 C983 1.327 . S
C981 C987 1.429 . S
C982 C974 1.574 . S
C982 H977 0.949 . S
C982 C988 1.368 . S
C983 C967 1.349 . S
C983 H975 0.950 . S
C983 C981 1.327 . S
C984 C972 1.349 . S
C984 H978 0.950 . S
C984 C985 1.327 . S
C985 H979 0.950 . S
C985 C984 1.327 . S
C985 C989 1.429 . S
C986 C969 1.574 . S
C986 H980 0.949 . S
C986 C990 1.368 . S
C987 C968 1.429 . S
C987 C981 1.429 . S
C987 C988 1.523 . S
C988 C969 1.368 . S
C988 C982 1.368 . S
C988 C987 1.523 . S
C989 C973 1.429 . S
C989 C985 1.429 . S
C989 C990 1.523 . S
C990 C974 1.368 . S
C990 C986 1.368 . S
C990 C989 1.523 . S
H991 C966 0.950 . S
H992 C968 0.950 . S
H993 C969 0.949 . S
H994 C971 0.950 . S
H995 C973 0.950 . S
C996 C997 1.349 . S
C996 C998 1.327 . S
C996 H1021 0.950 . S
C997 C996 1.349 . S
C997 C1013 1.349 . S
C998 C996 1.327 . S
C998 C1017 1.429 . S
C998 H1022 0.950 . S
C999 C1016 1.574 . S
C999 C1018 1.368 . S
C999 H1023 0.949 . S
H1000 C1004 0.949 . S
C1001 C1002 1.349 . S
C1001 C1003 1.327 . S
C1001 H1024 0.950 . S
C1002 C1001 1.349 . S
C1002 C1014 1.349 . S
C1003 C1001 1.327 . S
C1003 C1019 1.429 . S
C1003 H1025 0.950 . S
C1004 H1000 0.949 . S
C1004 C1012 1.574 . S
C1004 C1020 1.368 . S
H1005 C1013 0.950 . S
H1006 C1011 0.950 . S
H1007 C1012 0.949 . S
H1008 C1014 0.950 1_655 S
H1009 C1015 0.950 . S
H1010 C1016 0.949 . S
C1011 H1006 0.950 . S
C1011 C1013 1.327 . S
C1011 C1017 1.429 . S
C1012 C1004 1.574 . S
C1012 H1007 0.949 . S
C1012 C1018 1.368 . S
C1013 C997 1.349 . S
C1013 H1005 0.950 . S
C1013 C1011 1.327 . S
C1014 C1002 1.349 . S
C1014 H1008 0.950 1_455 S
C1014 C1015 1.327 . S
C1015 H1009 0.950 . S
C1015 C1014 1.327 . S
C1015 C1019 1.429 . S
C1016 C999 1.574 . S
C1016 H1010 0.949 . S
C1016 C1020 1.368 . S
C1017 C998 1.429 . S
C1017 C1011 1.429 . S
C1017 C1018 1.523 . S
C1018 C999 1.368 . S
C1018 C1012 1.368 . S
C1018 C1017 1.523 . S
C1019 C1003 1.429 . S
C1019 C1015 1.429 . S
C1019 C1020 1.523 . S
C1020 C1004 1.368 . S
C1020 C1016 1.368 . S
C1020 C1019 1.523 . S
H1021 C996 0.950 . S
H1022 C998 0.950 . S
H1023 C999 0.949 . S
H1024 C1001 0.950 . S
H1025 C1003 0.950 . S
C1026 C1027 1.349 1_455 S
C1026 C1028 1.327 1_455 S
C1026 H1051 0.950 . S
C1027 C1026 1.349 1_655 S
C1027 C1043 1.349 . S
C1028 C1026 1.327 1_655 S
C1028 C1047 1.429 . S
C1028 H1052 0.947 1_655 S
C1029 C1046 1.574 . S
C1029 C1048 1.368 . S
C1029 H1053 0.949 . S
H1030 C1034 0.949 . S
C1031 C1032 1.349 . S
C1031 C1033 1.327 . S
C1031 H1054 0.950 . S
C1032 C1031 1.349 . S
C1032 C1044 1.349 . S
C1033 C1031 1.327 . S
C1033 C1049 1.429 . S
C1033 H1055 0.950 . S
C1034 H1030 0.949 . S
C1034 C1042 1.574 . S
C1034 C1050 1.368 . S
H1035 C1043 0.950 . S
H1036 C1041 0.950 . S
H1037 C1042 0.949 . S
H1038 C1044 0.950 . S
H1039 C1045 0.950 . S
H1040 C1046 0.949 . S
C1041 H1036 0.950 . S
C1041 C1043 1.327 . S
C1041 C1047 1.429 . S
C1042 C1034 1.574 . S
C1042 H1037 0.949 . S
C1042 C1048 1.368 . S
C1043 C1027 1.349 . S
C1043 H1035 0.950 . S
C1043 C1041 1.327 . S
C1044 C1032 1.349 . S
C1044 H1038 0.950 . S
C1044 C1045 1.327 . S
C1045 H1039 0.950 . S
C1045 C1044 1.327 . S
C1045 C1049 1.429 . S
C1046 C1029 1.574 . S
C1046 H1040 0.949 . S
C1046 C1050 1.368 . S
C1047 C1028 1.429 . S
C1047 C1041 1.429 . S
C1047 C1048 1.523 . S
C1048 C1029 1.368 . S
C1048 C1042 1.368 . S
C1048 C1047 1.523 . S
C1049 C1033 1.429 . S
C1049 C1045 1.429 . S
C1049 C1050 1.523 . S
C1050 C1034 1.368 . S
C1050 C1046 1.368 . S
C1050 C1049 1.523 . S
H1051 C1026 0.950 . S
H1052 C1028 0.947 1_455 S
H1053 C1029 0.949 . S
H1054 C1031 0.950 . S
H1055 C1033 0.950 . S
C1056 C1057 1.349 . S
C1056 C1058 1.327 . S
C1056 H1081 0.950 . S
C1057 C1056 1.349 . S
C1057 C1073 1.349 . S
C1058 C1056 1.327 . S
C1058 C1077 1.429 . S
C1058 H1082 0.950 . S
C1059 C1076 1.574 . S
C1059 C1078 1.368 . S
C1059 H1083 0.949 . S
H1060 C1064 0.949 . S
C1061 C1062 1.349 . S
C1061 C1063 1.327 . S
C1061 H1084 0.950 . S
C1062 C1061 1.349 . S
C1062 C1074 1.349 . S
C1063 C1061 1.327 . S
C1063 C1079 1.429 . S
C1063 H1085 0.950 . S
C1064 H1060 0.949 . S
C1064 C1072 1.574 . S
C1064 C1080 1.368 . S
H1065 C1073 0.950 . S
H1066 C1071 0.950 . S
H1067 C1072 0.949 . S
H1068 C1074 0.950 . S
H1069 C1075 0.950 . S
H1070 C1076 0.949 . S
C1071 H1066 0.950 . S
C1071 C1073 1.327 . S
C1071 C1077 1.429 . S
C1072 C1064 1.574 . S
C1072 H1067 0.949 . S
C1072 C1078 1.368 . S
C1073 C1057 1.349 . S
C1073 H1065 0.950 . S
C1073 C1071 1.327 . S
C1074 C1062 1.349 . S
C1074 H1068 0.950 . S
C1074 C1075 1.327 . S
C1075 H1069 0.950 . S
C1075 C1074 1.327 . S
C1075 C1079 1.429 . S
C1076 C1059 1.574 . S
C1076 H1070 0.949 . S
C1076 C1080 1.368 . S
C1077 C1058 1.429 . S
C1077 C1071 1.429 . S
C1077 C1078 1.523 . S
C1078 C1059 1.368 . S
C1078 C1072 1.368 . S
C1078 C1077 1.523 . S
C1079 C1063 1.429 . S
C1079 C1075 1.429 . S
C1079 C1080 1.523 . S
C1080 C1064 1.368 . S
C1080 C1076 1.368 . S
C1080 C1079 1.523 . S
H1081 C1056 0.950 . S
H1082 C1058 0.950 . S
H1083 C1059 0.949 . S
H1084 C1061 0.950 . S
H1085 C1063 0.950 . S
C1086 C1087 1.349 . S
C1086 C1088 1.327 . S
C1086 H1111 0.950 . S
C1087 C1086 1.349 . S
C1087 C1103 1.349 . S
C1088 C1086 1.327 . S
C1088 C1107 1.429 . S
C1088 H1112 0.950 . S
C1089 C1106 1.574 . S
C1089 C1108 1.368 . S
C1089 H1113 0.949 . S
H1090 C1094 0.949 . S
C1091 C1092 1.349 1_655 S
C1091 C1093 1.327 1_655 S
C1091 H1114 0.950 . S
C1092 C1091 1.349 1_455 S
C1092 C1104 1.349 . S
C1093 C1091 1.327 1_455 S
C1093 C1109 1.429 . S
C1093 H1115 0.950 . S
C1094 H1090 0.949 . S
C1094 C1102 1.574 . S
C1094 C1110 1.368 . S
H1095 C1103 0.950 . S
H1096 C1101 0.950 . S
H1097 C1102 0.949 . S
H1098 C1104 0.950 . S
H1099 C1105 0.950 . S
H1100 C1106 0.949 . S
C1101 H1096 0.950 . S
C1101 C1103 1.327 . S
C1101 C1107 1.429 . S
C1102 C1094 1.574 . S
C1102 H1097 0.949 . S
C1102 C1108 1.368 . S
C1103 C1087 1.349 . S
C1103 H1095 0.950 . S
C1103 C1101 1.327 . S
C1104 C1092 1.349 . S
C1104 H1098 0.950 . S
C1104 C1105 1.327 . S
C1105 H1099 0.950 . S
C1105 C1104 1.327 . S
C1105 C1109 1.429 . S
C1106 C1089 1.574 . S
C1106 H1100 0.949 . S
C1106 C1110 1.368 . S
C1107 C1088 1.429 . S
C1107 C1101 1.429 . S
C1107 C1108 1.523 . S
C1108 C1089 1.368 . S
C1108 C1102 1.368 . S
C1108 C1107 1.523 . S
C1109 C1093 1.429 . S
C1109 C1105 1.429 . S
C1109 C1110 1.523 . S
C1110 C1094 1.368 . S
C1110 C1106 1.368 . S
C1110 C1109 1.523 . S
H1111 C1086 0.950 . S
H1112 C1088 0.950 . S
H1113 C1089 0.949 . S
H1114 C1091 0.950 . S
H1115 C1093 0.950 . S
C1116 C1117 1.349 . S
C1116 C1118 1.327 . S
C1116 H1141 0.950 . S
C1117 C1116 1.349 . S
C1117 C1133 1.349 . S
C1118 C1116 1.327 . S
C1118 C1137 1.429 . S
C1118 H1142 0.950 . S
C1119 C1136 1.574 . S
C1119 C1138 1.368 . S
C1119 H1143 0.949 . S
H1120 C1124 0.949 . S
C1121 C1122 1.349 . S
C1121 C1123 1.327 . S
C1121 H1144 0.950 . S
C1122 C1121 1.349 . S
C1122 C1134 1.349 . S
C1123 C1121 1.327 . S
C1123 C1139 1.429 . S
C1123 H1145 0.950 . S
C1124 H1120 0.949 . S
C1124 C1132 1.574 . S
C1124 C1140 1.368 . S
H1125 C1133 0.950 . S
H1126 C1131 0.950 . S
H1127 C1132 0.949 . S
H1128 C1134 0.950 . S
H1129 C1135 0.950 . S
H1130 C1136 0.949 . S
C1131 H1126 0.950 . S
C1131 C1133 1.327 . S
C1131 C1137 1.429 . S
C1132 C1124 1.574 . S
C1132 H1127 0.949 . S
C1132 C1138 1.368 . S
C1133 C1117 1.349 . S
C1133 H1125 0.950 . S
C1133 C1131 1.327 . S
C1134 C1122 1.349 . S
C1134 H1128 0.950 . S
C1134 C1135 1.327 . S
C1135 H1129 0.950 . S
C1135 C1134 1.327 . S
C1135 C1139 1.429 . S
C1136 C1119 1.574 . S
C1136 H1130 0.949 . S
C1136 C1140 1.368 . S
C1137 C1118 1.429 . S
C1137 C1131 1.429 . S
C1137 C1138 1.523 . S
C1138 C1119 1.368 . S
C1138 C1132 1.368 . S
C1138 C1137 1.523 . S
C1139 C1123 1.429 . S
C1139 C1135 1.429 . S
C1139 C1140 1.523 . S
C1140 C1124 1.368 . S
C1140 C1136 1.368 . S
C1140 C1139 1.523 . S
H1141 C1116 0.950 . S
H1142 C1118 0.950 . S
H1143 C1119 0.949 . S
H1144 C1121 0.950 . S
H1145 C1123 0.950 . S
C1146 C1147 1.349 . S
C1146 C1148 1.327 . S
C1146 H1171 0.950 . S
C1147 C1146 1.349 . S
C1147 C1163 1.349 . S
C1148 C1146 1.327 . S
C1148 C1167 1.429 . S
C1148 H1172 0.950 . S
C1149 C1166 1.574 . S
C1149 C1168 1.368 . S
C1149 H1173 0.949 . S
H1150 C1154 0.949 . S
C1151 C1152 1.349 . S
C1151 C1153 1.327 . S
C1151 H1174 0.950 . S
C1152 C1151 1.349 . S
C1152 C1164 1.349 . S
C1153 C1151 1.327 . S
C1153 C1169 1.429 . S
C1153 H1175 0.950 . S
C1154 H1150 0.949 . S
C1154 C1162 1.574 . S
C1154 C1170 1.368 . S
H1155 C1163 0.950 . S
H1156 C1161 0.950 . S
H1157 C1162 0.949 . S
H1158 C1164 0.950 . S
H1159 C1165 0.950 . S
H1160 C1166 0.949 . S
C1161 H1156 0.950 . S
C1161 C1163 1.327 . S
C1161 C1167 1.429 . S
C1162 C1154 1.574 . S
C1162 H1157 0.949 . S
C1162 C1168 1.368 . S
C1163 C1147 1.349 . S
C1163 H1155 0.950 . S
C1163 C1161 1.327 . S
C1164 C1152 1.349 . S
C1164 H1158 0.950 . S
C1164 C1165 1.327 . S
C1165 H1159 0.950 . S
C1165 C1164 1.327 . S
C1165 C1169 1.429 . S
C1166 C1149 1.574 . S
C1166 H1160 0.949 . S
C1166 C1170 1.368 . S
C1167 C1148 1.429 . S
C1167 C1161 1.429 . S
C1167 C1168 1.523 . S
C1168 C1149 1.368 . S
C1168 C1162 1.368 . S
C1168 C1167 1.523 . S
C1169 C1153 1.429 . S
C1169 C1165 1.429 . S
C1169 C1170 1.523 . S
C1170 C1154 1.368 . S
C1170 C1166 1.368 . S
C1170 C1169 1.523 . S
H1171 C1146 0.950 . S
H1172 C1148 0.950 . S
H1173 C1149 0.949 . S
H1174 C1151 0.950 . S
H1175 C1153 0.950 . S
C222 C125 1.401 . S
C217 C5 1.375 . S
C252 C145 1.462 . S
C247 C18 1.438 . S
C282 C159 1.475 . S
C277 C31 1.457 . S
C307 C42 1.477 . S
C312 C117 1.462 . S
C337 C57 1.201 . S
C342 C111 1.199 . S
C367 C70 1.183 . S
C372 C131 1.177 . S
C402 C139 1.086 . S
C397 C81 1.067 . S
C432 C153 1.148 . S
C427 C96 1.156 . S
C457 C29 1.115 . S
C462 C181 1.148 . S
C492 C195 1.085 . S
C487 C44 1.098 . S
C517 C3 1.143 . S
C522 C215 1.177 . S
C552 C167 1.199 . S
C547 C16 1.154 . S
C577 C83 1.447 . S
C582 C173 1.462 . S
C607 C94 1.494 . S
C612 C187 1.476 . S
C642 C201 1.461 1_556 S
C637 C55 1.477 . S
C667 C68 1.408 . S
C672 C209 1.400 . S
C702 C140 1.695 . S
C697 C1 1.628 . S
C732 C154 1.685 . S
C727 C14 1.619 . S
C757 C27 1.547 . S
C762 C112 1.575 1_556 S
C787 C49 1.462 . S
C792 C129 1.473 . S
C817 C53 1.065 . S
C822 C157 1.070 . S
C852 C115 1.034 . S
C847 C66 1.029 . S
C882 C126 1.200 . S
C877 C88 1.187 . S
C912 C143 1.128 . S
C907 C92 1.122 . S
C942 C199 1.128 . S
C937 C36 1.115 . S
C972 C210 1.200 . S
C967 C40 1.193 . S
C997 C10 1.024 . S
C1002 C171 1.034 . S
C1032 C185 1.071 . S
C1027 C23 1.059 1_655 S
C1062 C213 1.473 . S
C1057 C79 1.415 . S
C1087 C101 1.604 . S
C1092 C168 1.609 1_455 S
C1122 C182 1.685 . S
C1117 C62 1.679 . S
C1152 C196 1.695 . S
C1147 C75 1.687 . S
