# Generated by pormake.
# Topology ssa, (4,4)-cn, num edge types: 1
# Building blocks:
#     Node 0, Type 0, BuildingBlock: KOZSID_clean_sbu_0, # of connection points: 4
#     Node 1, Type 0, BuildingBlock: KOZSID_clean_sbu_0, # of connection points: 4
#     Node 2, Type 0, BuildingBlock: KOZSID_clean_sbu_0, # of connection points: 4
#     Node 3, Type 0, BuildingBlock: KOZSID_clean_sbu_0, # of connection points: 4
#     Node 4, Type 0, BuildingBlock: KOZSID_clean_sbu_0, # of connection points: 4
#     Node 5, Type 0, BuildingBlock: KOZSID_clean_sbu_0, # of connection points: 4
#     Node 6, Type 1, BuildingBlock: NAWXER_clean_sbu_0, # of connection points: 4
#     Node 7, Type 1, BuildingBlock: NAWXER_clean_sbu_0, # of connection points: 4
#     Node 8, Type 1, BuildingBlock: NAWXER_clean_sbu_0, # of connection points: 4
#     Node 9, Type 1, BuildingBlock: NAWXER_clean_sbu_0, # of connection points: 4
#     Node 10, Type 1, BuildingBlock: NAWXER_clean_sbu_0, # of connection points: 4
#     Node 11, Type 1, BuildingBlock: NAWXER_clean_sbu_0, # of connection points: 4
#     Edge 12, Type (0, 1), BuildingBlock: ZUJKAS_clean_linker_0, # of connection points: 2
#     Edge 13, Type (0, 1), BuildingBlock: ZUJKAS_clean_linker_0, # of connection points: 2
#     Edge 14, Type (0, 1), BuildingBlock: ZUJKAS_clean_linker_0, # of connection points: 2
#     Edge 15, Type (0, 1), BuildingBlock: ZUJKAS_clean_linker_0, # of connection points: 2
#     Edge 16, Type (0, 1), BuildingBlock: ZUJKAS_clean_linker_0, # of connection points: 2
#     Edge 17, Type (0, 1), BuildingBlock: ZUJKAS_clean_linker_0, # of connection points: 2
#     Edge 18, Type (0, 1), BuildingBlock: ZUJKAS_clean_linker_0, # of connection points: 2
#     Edge 19, Type (0, 1), BuildingBlock: ZUJKAS_clean_linker_0, # of connection points: 2
#     Edge 20, Type (0, 1), BuildingBlock: ZUJKAS_clean_linker_0, # of connection points: 2
#     Edge 21, Type (0, 1), BuildingBlock: ZUJKAS_clean_linker_0, # of connection points: 2
#     Edge 22, Type (0, 1), BuildingBlock: ZUJKAS_clean_linker_0, # of connection points: 2
#     Edge 23, Type (0, 1), BuildingBlock: ZUJKAS_clean_linker_0, # of connection points: 2
#     Edge 24, Type (0, 1), BuildingBlock: ZUJKAS_clean_linker_0, # of connection points: 2
#     Edge 25, Type (0, 1), BuildingBlock: ZUJKAS_clean_linker_0, # of connection points: 2
#     Edge 26, Type (0, 1), BuildingBlock: ZUJKAS_clean_linker_0, # of connection points: 2
#     Edge 27, Type (0, 1), BuildingBlock: ZUJKAS_clean_linker_0, # of connection points: 2
#     Edge 28, Type (0, 1), BuildingBlock: ZUJKAS_clean_linker_0, # of connection points: 2
#     Edge 29, Type (0, 1), BuildingBlock: ZUJKAS_clean_linker_0, # of connection points: 2
#     Edge 30, Type (0, 1), BuildingBlock: ZUJKAS_clean_linker_0, # of connection points: 2
#     Edge 31, Type (0, 1), BuildingBlock: ZUJKAS_clean_linker_0, # of connection points: 2
#     Edge 32, Type (0, 1), BuildingBlock: ZUJKAS_clean_linker_0, # of connection points: 2
#     Edge 33, Type (0, 1), BuildingBlock: ZUJKAS_clean_linker_0, # of connection points: 2
#     Edge 34, Type (0, 1), BuildingBlock: ZUJKAS_clean_linker_0, # of connection points: 2
#     Edge 35, Type (0, 1), BuildingBlock: ZUJKAS_clean_linker_0, # of connection points: 2
# Relax obj value: 0.010
# Max RMSD: 0.027
# Mean RMSD: 0.017
data_MOF--net-ssa--node1-KOZSID_clean_sbu_0--node2-NAWXER_clean_sbu_0--edge1-ZUJKAS_clean_linker_0
_symmetry_space_group_name_H-M    P1
_symmetry_Int_Tables_number       1
_symmetry_cell_setting            triclinic
loop_
_symmetry_equiv_pos_as_xyz
'x, y, z'
_cell_length_a     62.713908
_cell_length_b     64.080393
_cell_length_c     53.440223
_cell_angle_alpha  87.81599
_cell_angle_beta   89.971305
_cell_angle_gamma 122.18509
loop_
_atom_site_label
_atom_site_type_symbol
_atom_site_fract_x
_atom_site_fract_y
_atom_site_fract_z
_atom_type_partial_charge
C0 C 0.95521 0.49804 0.00154 0.0
C1 C 0.93232 0.4911 0.01298 0.0
C2 C 0.93011 0.47764 0.03429 0.0
C3 C 0.95155 0.47693 0.03465 0.0
N4 N 0.96761 0.48956 0.01507 0.0
Co5 Co 1.00003 0.49167 0.00716 0.0
N6 N 0.99385 0.46726 0.03521 0.0
C7 C 0.97348 0.45534 0.05091 0.0
C8 C 0.97415 0.4391 0.06782 0.0
C9 C 0.99641 0.44091 0.0628 0.0
C10 C 0.00819 0.45843 0.0432 0.0
N11 N 0.03273 0.49427 0.99955 0.0
C12 C 0.044 0.48383 0.01174 0.0
C13 C 0.06763 0.49203 0.0013 0.0
C14 C 0.0714 0.50813 0.98186 0.0
C15 C 0.05009 0.50905 0.98161 0.0
N16 N 0.00564 0.51537 0.97855 0.0
C17 C 0.02587 0.5273 0.96267 0.0
C18 C 0.02367 0.54129 0.94404 0.0
C19 C 1.00032 0.53751 0.94777 0.0
C20 C 0.98959 0.52129 0.9685 0.0
N21 N 0.01819 0.51928 0.03032 0.0
C22 C 0.048 0.55564 0.06473 0.0
C23 C 0.05487 0.55905 0.03935 0.0
C24 C 0.0398 0.54091 0.02265 0.0
C25 C 0.02524 0.53426 0.07234 0.0
C26 C 0.01067 0.51659 0.05496 0.0
N27 N 0.98219 0.46414 0.98424 0.0
C28 C 0.98064 0.44563 0.94514 0.0
C29 C 0.95643 0.42557 0.95113 0.0
C30 C 0.94543 0.42502 0.97408 0.0
C31 C 0.95857 0.44428 0.99026 0.0
C32 C 0.99305 0.46461 0.96178 0.0
H33 H 0.94918 0.4428 0.00748 0.0
H34 H 0.01129 0.47963 0.95597 0.0
H35 H 0.04648 0.54464 0.00376 0.0
H36 H 0.99367 0.50071 0.06207 0.0
C37 C 0.95483 0.46096 0.0503 0.0
C38 C 0.96354 0.5108 0.97691 0.0
C39 C 0.03357 0.46706 0.03389 0.0
C40 C 0.04595 0.5238 0.96494 0.0
H41 H 0.91802 0.49427 0.00619 0.0
H42 H 0.91396 0.46803 0.04704 0.0
H43 H 0.96037 0.42772 0.08241 0.0
H44 H 0.00348 0.4309 0.07283 0.0
H45 H 0.08107 0.48731 0.00731 0.0
H46 H 0.08791 0.5183 0.96963 0.0
H47 H 0.03707 0.55221 0.92899 0.0
H48 H 0.99178 0.54515 0.9361 0.0
H49 H 0.07232 0.57527 0.03242 0.0
H50 H 0.0187 0.53104 0.0917 0.0
H51 H 0.98979 0.44701 0.92741 0.0
H52 H 0.92678 0.40971 0.97963 0.0
C53 C 0.54702 0.00812 0.54346 0.0
C54 C 0.5463 0.99694 0.56649 0.0
C55 C 0.52308 0.97578 0.56898 0.0
C56 C 0.51096 0.97527 0.54749 0.0
N57 N 0.52512 0.99469 0.53123 0.0
Co58 Co 0.5144 0.00186 0.49831 0.0
N59 N 0.48034 0.97056 0.50192 0.0
C60 C 0.47139 0.95381 0.52147 0.0
C61 C 0.44785 0.93354 0.51793 0.0
C62 C 0.4416 0.93724 0.49446 0.0
C63 C 0.46181 0.95964 0.48503 0.0
N64 N 0.50346 0.0091 0.46554 0.0
C65 C 0.48251 0.99459 0.45231 0.0
C66 C 0.48271 0.00619 0.42977 0.0
C67 C 0.50474 0.02869 0.42855 0.0
C68 C 0.51673 0.02954 0.45028 0.0
N69 N 0.54868 0.03284 0.49432 0.0
C70 C 0.55738 0.04967 0.47483 0.0
C71 C 0.58169 0.06899 0.47736 0.0
C72 C 0.58892 0.06435 0.4999 0.0
C73 C 0.56845 0.04243 0.50988 0.0
N74 N 0.52705 0.98368 0.4808 0.0
C75 C 0.54504 0.95791 0.45584 0.0
C76 C 0.54965 0.98049 0.44601 0.0
C77 C 0.54049 0.99292 0.45864 0.0
C78 C 0.53127 0.94845 0.47841 0.0
C79 C 0.52257 0.96156 0.4905 0.0
N80 N 0.50199 0.02033 0.5161 0.0
C81 C 0.50514 0.05894 0.52338 0.0
C82 C 0.49067 0.04915 0.54553 0.0
C83 C 0.48076 0.0242 0.55184 0.0
C84 C 0.4866 0.01029 0.53704 0.0
C85 C 0.51022 0.04428 0.50896 0.0
H86 H 0.4788 0.99161 0.54326 0.0
H87 H 0.52144 0.05304 0.49247 0.0
H88 H 0.54435 0.00988 0.45001 0.0
H89 H 0.5122 0.95343 0.50765 0.0
C90 C 0.48629 0.95687 0.5421 0.0
C91 C 0.56845 0.03202 0.53461 0.0
C92 C 0.46306 0.96914 0.45952 0.0
C93 C 0.54173 0.04753 0.45517 0.0
H94 H 0.56088 0.00358 0.58029 0.0
H95 H 0.51578 0.96251 0.58474 0.0
H96 H 0.43694 0.91756 0.53055 0.0
H97 H 0.42443 0.9246 0.48503 0.0
H98 H 0.46888 0.99882 0.41524 0.0
H99 H 0.51181 0.04223 0.41303 0.0
H100 H 0.59266 0.08483 0.4646 0.0
H101 H 0.60705 0.07599 0.50828 0.0
H102 H 0.55986 0.98836 0.42836 0.0
H103 H 0.52738 0.93109 0.48684 0.0
H104 H 0.51335 0.07813 0.51746 0.0
H105 H 0.46872 0.01537 0.56833 0.0
C106 C 0.55093 0.54344 0.9576 0.0
C107 C 0.55429 0.55854 0.93671 0.0
C108 C 0.53187 0.55682 0.93317 0.0
C109 C 0.51621 0.54094 0.95209 0.0
N110 N 0.52731 0.5325 0.9676 0.0
Co111 Co 0.51157 0.50947 0.99779 0.0
N112 N 0.47857 0.50675 0.99233 0.0
C113 C 0.47239 0.51632 0.97273 0.0
C114 C 0.4486 0.51214 0.97484 0.0
C115 C 0.43928 0.49966 0.99741 0.0
C116 C 0.45805 0.49707 0.00779 0.0
N117 N 0.49591 0.48707 0.02848 0.0
C118 C 0.47398 0.47995 0.0408 0.0
C119 C 0.47111 0.46643 0.06283 0.0
C120 C 0.4922 0.46534 0.06475 0.0
C121 C 0.50673 0.47831 0.04394 0.0
N122 N 0.54443 0.51177 0.00304 0.0
C123 C 0.54947 0.49968 0.02107 0.0
C124 C 0.57339 0.50421 0.0194 0.0
C125 C 0.58425 0.51996 0.99894 0.0
C126 C 0.56626 0.52423 0.98933 0.0
N127 N 0.52253 0.53814 0.01879 0.0
C128 C 0.53625 0.57768 0.05002 0.0
C129 C 0.54285 0.56039 0.05572 0.0
C130 C 0.53572 0.54087 0.04011 0.0
C131 C 0.52307 0.57504 0.02804 0.0
C132 C 0.51664 0.55542 0.01273 0.0
N133 N 0.50079 0.48067 0.97654 0.0
C134 C 0.4996 0.44311 0.96859 0.0
C135 C 0.49243 0.44347 0.94394 0.0
C136 C 0.48815 0.46199 0.9363 0.0
C137 C 0.49237 0.48021 0.95275 0.0
C138 C 0.50337 0.46154 0.98449 0.0
H139 H 0.48928 0.49401 0.9455 0.0
H140 H 0.50883 0.46008 0.00294 0.0
H141 H 0.54089 0.52807 0.0458 0.0
H142 H 0.50658 0.55438 0.99625 0.0
C143 C 0.49067 0.53255 0.95495 0.0
C144 C 0.57049 0.53947 0.96663 0.0
C145 C 0.45643 0.48723 0.0332 0.0
C146 C 0.5315 0.48462 0.03965 0.0
H147 H 0.57112 0.56938 0.92502 0.0
H148 H 0.52739 0.56572 0.91831 0.0
H149 H 0.43973 0.51876 0.96226 0.0
H150 H 0.42121 0.49412 0.00586 0.0
H151 H 0.45585 0.45892 0.07659 0.0
H152 H 0.49694 0.45714 0.0801 0.0
H153 H 0.58188 0.49686 0.03154 0.0
H154 H 0.60318 0.52725 0.99176 0.0
H155 H 0.5535 0.5618 0.07221 0.0
H156 H 0.51718 0.58769 0.02285 0.0
H157 H 0.50249 0.42872 0.97559 0.0
H158 H 0.48245 0.46299 0.91738 0.0
C159 C 0.95523 0.45615 0.50627 0.0
C160 C 0.93261 0.43802 0.49656 0.0
C161 C 0.92995 0.44765 0.47441 0.0
C162 C 0.95107 0.47097 0.47187 0.0
N163 N 0.96733 0.47657 0.49077 0.0
Co164 Co 0.99971 0.50872 0.4955 0.0
N165 N 0.99297 0.5249 0.46637 0.0
C166 C 0.97256 0.51441 0.45166 0.0
C167 C 0.97306 0.53023 0.43334 0.0
C168 C 0.99515 0.55211 0.43645 0.0
C169 C 0.00693 0.5483 0.45649 0.0
N170 N 0.03237 0.54072 0.49998 0.0
C171 C 0.04288 0.56246 0.48651 0.0
C172 C 0.06639 0.57985 0.49534 0.0
C173 C 0.07095 0.56867 0.51501 0.0
C174 C 0.05011 0.54517 0.51702 0.0
N175 N 0.00582 0.49262 0.52522 0.0
C176 C 0.0263 0.5028 0.53981 0.0
C177 C 0.024 0.48809 0.56024 0.0
C178 C 1.00035 0.46754 0.55905 0.0
C179 C 0.98964 0.47089 0.53777 0.0
N180 N 0.01769 0.4988 0.47265 0.0
C181 C 0.04729 0.49213 0.43778 0.0
C182 C 0.05455 0.49731 0.4626 0.0
C183 C 0.03956 0.5004 0.47957 0.0
C184 C 0.02422 0.48892 0.43112 0.0
C185 C 0.00979 0.49211 0.44871 0.0
N186 N 0.9821 0.51889 0.51803 0.0
C187 C 0.98111 0.53811 0.55567 0.0
C188 C 0.95681 0.53257 0.55068 0.0
C189 C 0.94545 0.5202 0.52896 0.0
C190 C 0.95838 0.5137 0.51294 0.0
C191 C 0.99326 0.53107 0.53929 0.0
H192 H 0.9488 0.50435 0.49661 0.0
H193 H 0.0116 0.53545 0.54434 0.0
H194 H 0.04649 0.50467 0.49798 0.0
H195 H 0.99257 0.48953 0.44225 0.0
C196 C 0.95399 0.4893 0.4546 0.0
C197 C 0.96348 0.45397 0.53116 0.0
C198 C 0.0318 0.56719 0.46475 0.0
C199 C 0.04634 0.52712 0.53513 0.0
H200 H 0.91895 0.42015 0.5052 0.0
H201 H 0.91377 0.43927 0.46246 0.0
H202 H 0.95925 0.52621 0.41912 0.0
H203 H 0.00203 0.56889 0.425 0.0
H204 H 0.07903 0.59862 0.48815 0.0
H205 H 0.0875 0.5767 0.52644 0.0
H206 H 0.03741 0.49233 0.57494 0.0
H207 H 0.99169 0.45231 0.57282 0.0
H208 H 0.0722 0.49986 0.46881 0.0
H209 H 0.01734 0.48414 0.41231 0.0
H210 H 0.99052 0.54736 0.57247 0.0
H211 H 0.9267 0.51569 0.52423 0.0
C212 C 0.45771 0.99648 0.04481 0.0
C213 C 0.45586 0.00784 0.06559 0.0
C214 C 0.47843 0.02956 0.06723 0.0
C215 C 0.49267 0.0303 0.04737 0.0
N216 N 0.4805 0.01043 0.03299 0.0
Co217 Co 0.49404 0.00418 0.00207 0.0
N218 N 0.52713 0.03623 0.00442 0.0
C219 C 0.5345 0.0524 0.02289 0.0
C220 C 0.55791 0.07328 0.01865 0.0
C221 C 0.56572 0.07055 0.99585 0.0
C222 C 0.54649 0.04812 0.98748 0.0
N223 N 0.5076 0.99828 0.97086 0.0
C224 C 0.52874 0.01401 0.957 0.0
C225 C 0.53028 0.00337 0.93549 0.0
C226 C 0.50915 0.98022 0.93553 0.0
C227 C 0.49593 0.97809 0.95691 0.0
N228 N 0.46097 0.97207 0.99969 0.0
C229 C 0.45462 0.95494 0.98237 0.0
C230 C 0.43088 0.93444 0.98597 0.0
C231 C 0.42152 0.9386 0.00694 0.0
C232 C 0.44016 0.96156 0.01492 0.0
N233 N 0.48102 0.02109 0.98135 0.0
C234 C 0.46188 0.04467 0.95217 0.0
C235 C 0.45825 0.02219 0.9454 0.0
C236 C 0.46784 0.01077 0.96017 0.0
C237 C 0.47533 0.05521 0.97374 0.0
C238 C 0.4848 0.04327 0.98788 0.0
N239 N 0.50675 0.98688 0.02316 0.0
C240 C 0.50764 0.95013 0.03295 0.0
C241 C 0.51625 0.95793 0.05695 0.0
C242 C 0.52172 0.98126 0.06309 0.0
C243 C 0.51711 0.99538 0.04598 0.0
C244 C 0.50321 0.96481 0.01648 0.0
H245 H 0.52151 0.01283 0.05198 0.0
H246 H 0.4962 0.95747 0.99875 0.0
H247 H 0.46435 0.99361 0.95412 0.0
H248 H 0.49521 0.05234 0.00395 0.0
C249 C 0.51772 0.04904 0.04212 0.0
C250 C 0.43761 0.9721 0.0376 0.0
C251 C 0.54673 0.03965 0.96263 0.0
C252 C 0.47141 0.95858 0.963 0.0
H253 H 0.43992 0.00097 0.07844 0.0
H254 H 0.48391 0.04306 0.08138 0.0
H255 H 0.56754 0.08919 0.03013 0.0
H256 H 0.58314 0.08395 0.98603 0.0
H257 H 0.54466 0.01176 0.92079 0.0
H258 H 0.5035 0.96699 0.92106 0.0
H259 H 0.42157 0.91828 0.97482 0.0
H260 H 0.40317 0.92598 0.01557 0.0
H261 H 0.44781 0.01328 0.92889 0.0
H262 H 0.47894 0.07283 0.97947 0.0
H263 H 0.50328 0.93227 0.02716 0.0
H264 H 0.52922 0.9885 0.08118 0.0
C265 C 0.50114 0.54483 0.49867 0.0
C266 C 0.49524 0.5609 0.5087 0.0
C267 C 0.48193 0.54979 0.53044 0.0
C268 C 0.48018 0.52757 0.53237 0.0
N269 N 0.49213 0.524 0.51349 0.0
Co270 Co 0.49143 0.49295 0.50713 0.0
N271 N 0.46773 0.47493 0.53639 0.0
C272 C 0.4588 0.48426 0.55274 0.0
C273 C 0.44309 0.46755 0.57111 0.0
C274 C 0.44212 0.4463 0.56642 0.0
C275 C 0.45746 0.45137 0.54541 0.0
N276 N 0.49023 0.46177 0.5002 0.0
C277 C 0.47753 0.43933 0.51246 0.0
C278 C 0.48203 0.42269 0.50149 0.0
C279 C 0.4982 0.43507 0.48163 0.0
C280 C 0.50267 0.45846 0.4816 0.0
N281 N 0.51541 0.51114 0.47812 0.0
C282 C 0.52652 0.50276 0.46333 0.0
C283 C 0.54155 0.51937 0.44452 0.0
C284 C 0.53943 0.53931 0.44709 0.0
C285 C 0.52303 0.53358 0.46729 0.0
N286 N 0.52035 0.50288 0.52972 0.0
C287 C 0.55681 0.50938 0.56484 0.0
C288 C 0.55665 0.50097 0.54111 0.0
C289 C 0.53863 0.49813 0.52395 0.0
C290 C 0.53943 0.516 0.57016 0.0
C291 C 0.52154 0.51267 0.55245 0.0
N292 N 0.46257 0.4827 0.48486 0.0
C293 C 0.44256 0.46733 0.44541 0.0
C294 C 0.42129 0.46727 0.4533 0.0
C295 C 0.42115 0.47528 0.47724 0.0
C296 C 0.44186 0.48291 0.49257 0.0
C297 C 0.46279 0.47503 0.46134 0.0
H298 H 0.44071 0.4889 0.51058 0.0
H299 H 0.47847 0.47471 0.45419 0.0
H300 H 0.53963 0.49152 0.50638 0.0
H301 H 0.50852 0.51757 0.55789 0.0
C302 C 0.46508 0.50864 0.55003 0.0
C303 C 0.51367 0.54915 0.47423 0.0
C304 C 0.46215 0.43335 0.53523 0.0
C305 C 0.51955 0.47807 0.46529 0.0
H306 H 0.49911 0.57838 0.50081 0.0
H307 H 0.47331 0.55652 0.54264 0.0
H308 H 0.4335 0.47047 0.58612 0.0
H309 H 0.43147 0.42906 0.57733 0.0
H310 H 0.4748 0.40371 0.5075 0.0
H311 H 0.50621 0.42801 0.46907 0.0
H312 H 0.55167 0.51674 0.42982 0.0
H313 H 0.54806 0.55576 0.43484 0.0
H314 H 0.57027 0.49632 0.53583 0.0
H315 H 0.53898 0.52285 0.58825 0.0
H316 H 0.44386 0.46183 0.42684 0.0
H317 H 0.40505 0.47545 0.48428 0.0
C318 C 0.2461 0.44011 0.26815 0.0
C319 C 0.19529 0.43752 0.19792 0.0
O320 O 0.22799 0.42096 0.25863 0.0
Zn321 Zn 0.22002 0.4381 0.23333 0.0
O322 O 0.25238 0.46154 0.25917 0.0
Zn323 Zn 0.24126 0.47747 0.23015 0.0
O324 O 0.23022 0.4957 0.2488 0.0
O325 O 0.2057 0.45541 0.25542 0.0
O326 O 0.21257 0.45953 0.20311 0.0
O327 O 0.1924 0.41922 0.2111 0.0
O328 O 0.25287 0.45459 0.20876 0.0
O329 O 0.2715 0.49508 0.20917 0.0
C330 C 0.21107 0.47723 0.25973 0.0
C331 C 0.27085 0.47627 0.20128 0.0
C332 C 0.78328 0.26896 0.70884 0.0
C333 C 0.72424 0.20996 0.77362 0.0
O334 O 0.76442 0.26836 0.71853 0.0
Zn335 Zn 0.75318 0.23966 0.74106 0.0
O336 O 0.78815 0.25262 0.71595 0.0
Zn337 Zn 0.7734 0.22136 0.7419 0.0
O338 O 0.76391 0.19433 0.72011 0.0
O339 O 0.74032 0.21024 0.71599 0.0
O340 O 0.74149 0.20597 0.7674 0.0
O341 O 0.72386 0.22784 0.76293 0.0
O342 O 0.78306 0.25305 0.76714 0.0
O343 O 0.80132 0.23176 0.76438 0.0
C344 C 0.74572 0.19443 0.70973 0.0
C345 C 0.79995 0.24876 0.77428 0.0
C346 C 0.57256 0.80402 0.29587 0.0
C347 C 0.56579 0.75402 0.22618 0.0
O348 O 0.59055 0.80527 0.2835 0.0
Zn349 Zn 0.56984 0.77916 0.26097 0.0
O350 O 0.54974 0.7883 0.29023 0.0
Zn351 Zn 0.52981 0.76046 0.26389 0.0
O352 O 0.51087 0.73112 0.28567 0.0
O353 O 0.55184 0.74636 0.28514 0.0
O354 O 0.54431 0.74886 0.23474 0.0
O355 O 0.58592 0.77054 0.23614 0.0
O356 O 0.55329 0.79525 0.23844 0.0
O357 O 0.51211 0.77286 0.24512 0.0
C358 C 0.52948 0.7299 0.29298 0.0
C359 C 0.5313 0.79122 0.2341 0.0
C360 C 0.79361 0.52316 0.80401 0.0
C361 C 0.73496 0.52419 0.74439 0.0
O362 O 0.77288 0.50478 0.79712 0.0
Zn363 Zn 0.76364 0.52302 0.77465 0.0
O364 O 0.80058 0.545 0.79574 0.0
Zn365 Zn 0.78672 0.56235 0.77125 0.0
O366 O 0.78052 0.58201 0.79345 0.0
O367 O 0.75428 0.54191 0.80011 0.0
O368 O 0.75365 0.54582 0.74883 0.0
O369 O 0.73334 0.5054 0.75531 0.0
O370 O 0.79271 0.53788 0.74606 0.0
O371 O 0.81362 0.57857 0.74612 0.0
C372 C 0.76185 0.56409 0.80552 0.0
C373 C 0.81035 0.55903 0.73704 0.0
C374 C 0.2554 0.81351 0.22446 0.0
C375 C 0.20233 0.76173 0.2956 0.0
O376 O 0.23781 0.81435 0.23523 0.0
Zn377 Zn 0.22876 0.78808 0.26021 0.0
O378 O 0.26084 0.79783 0.23252 0.0
Zn379 Zn 0.24851 0.76947 0.26148 0.0
O380 O 0.23694 0.74021 0.24255 0.0
O381 O 0.21324 0.75595 0.23808 0.0
O382 O 0.21888 0.75689 0.28909 0.0
O383 O 0.20132 0.77876 0.28377 0.0
O384 O 0.26118 0.80407 0.28366 0.0
O385 O 0.2782 0.78164 0.28165 0.0
C386 C 0.21796 0.73938 0.23297 0.0
C387 C 0.27837 0.79998 0.29018 0.0
C388 C 0.4701 0.26936 0.76699 0.0
C389 C 0.46849 0.21043 0.71024 0.0
O390 O 0.48879 0.26977 0.75715 0.0
Zn391 Zn 0.4698 0.24029 0.73831 0.0
O392 O 0.44766 0.25191 0.76208 0.0
Zn393 Zn 0.42971 0.21953 0.74027 0.0
O394 O 0.41162 0.19332 0.76567 0.0
O395 O 0.45296 0.21177 0.76735 0.0
O396 O 0.44637 0.20475 0.7172 0.0
O397 O 0.4877 0.22993 0.71792 0.0
O398 O 0.45205 0.25067 0.71072 0.0
O399 O 0.41084 0.22675 0.71663 0.0
C400 C 0.43089 0.19529 0.77588 0.0
C401 C 0.42971 0.24424 0.70437 0.0
H402 H 0.04948 0.48087 0.08097 0.0
H403 H 0.0762 0.47165 0.10634 0.0
H404 H 0.08149 0.43175 0.04583 0.0
H405 H 0.05345 0.43983 0.02096 0.0
H406 H 0.07623 0.40803 0.08951 0.0
H407 H 0.15082 0.50629 0.09755 0.0
H408 H 0.12118 0.50002 0.1095 0.0
H409 H 0.12484 0.49648 0.07677 0.0
C410 C 0.05633 0.47007 0.0732 0.0
C411 C 0.04985 0.46134 0.04899 0.0
C412 C 0.07173 0.46498 0.08757 0.0
C413 C 0.08145 0.4516 0.07772 0.0
C414 C 0.07443 0.44232 0.05371 0.0
H415 H 0.20885 0.46141 0.15249 0.0
H416 H 0.18112 0.46123 0.12031 0.0
C417 C 0.05861 0.44704 0.03948 0.0
C418 C 0.099 0.44749 0.09253 0.0
H419 H 0.15274 0.47764 0.12592 0.0
C420 C 0.09314 0.42324 0.09727 0.0
C421 C 0.12135 0.46736 0.10217 0.0
C422 C 0.13007 0.49399 0.096 0.0
C423 C 0.10863 0.41831 0.11205 0.0
C424 C 0.1301 0.43811 0.12304 0.0
C425 C 0.13621 0.46236 0.11772 0.0
C426 C 0.1465 0.4345 0.14042 0.0
C427 C 0.10197 0.392 0.11536 0.0
C428 C 0.13638 0.41886 0.16208 0.0
C429 C 0.15231 0.4184 0.18014 0.0
C430 C 0.17853 0.43416 0.17714 0.0
C431 C 0.18865 0.44912 0.15517 0.0
C432 C 0.1728 0.44906 0.13685 0.0
H433 H 0.09114 0.38096 0.09928 0.0
H434 H 0.11907 0.39105 0.11729 0.0
H435 H 0.08991 0.38331 0.13248 0.0
H436 H 0.11623 0.40797 0.1657 0.0
H437 H 0.14414 0.407 0.19716 0.0
H438 H 0.60739 0.0272 0.54912 0.0
H439 H 0.63997 0.05186 0.57955 0.0
H440 H 0.6073 0.09573 0.5893 0.0
H441 H 0.57475 0.071 0.55916 0.0
H442 H 0.67563 0.10414 0.57907 0.0
H443 H 0.60969 0.07095 0.66105 0.0
H444 H 0.60151 0.05532 0.63191 0.0
H445 H 0.59994 0.08232 0.63511 0.0
C446 C 0.60735 0.04216 0.55784 0.0
C447 C 0.5887 0.04729 0.55214 0.0
C448 C 0.62585 0.05618 0.57511 0.0
C449 C 0.62575 0.07532 0.58694 0.0
C450 C 0.6074 0.08073 0.58073 0.0
H451 H 0.70605 0.19075 0.68498 0.0
H452 H 0.67897 0.16019 0.65538 0.0
C453 C 0.58897 0.06677 0.56349 0.0
C454 C 0.64476 0.08982 0.60579 0.0
H455 H 0.65029 0.10739 0.6661 0.0
C456 C 0.67023 0.10461 0.59823 0.0
C457 C 0.6376 0.09017 0.63079 0.0
C458 C 0.61073 0.07366 0.64032 0.0
C459 C 0.68857 0.12088 0.61469 0.0
C460 C 0.68115 0.12208 0.63931 0.0
C461 C 0.65587 0.10647 0.64715 0.0
C462 C 0.6987 0.14095 0.65654 0.0
C463 C 0.71547 0.13753 0.60536 0.0
C464 C 0.71889 0.14028 0.66698 0.0
C465 C 0.73454 0.15784 0.68407 0.0
C466 C 0.73015 0.17624 0.69096 0.0
C467 C 0.71003 0.17687 0.68017 0.0
C468 C 0.69447 0.15939 0.66323 0.0
H469 H 0.71749 0.13655 0.58486 0.0
H470 H 0.7226 0.15697 0.6097 0.0
H471 H 0.7275 0.13205 0.61508 0.0
H472 H 0.72225 0.12598 0.66223 0.0
H473 H 0.74983 0.15681 0.6921 0.0
H474 H 0.53678 0.57575 0.10138 0.0
H475 H 0.54574 0.60827 0.12958 0.0
H476 H 0.55697 0.65729 0.06641 0.0
H477 H 0.54975 0.62538 0.03784 0.0
H478 H 0.59124 0.68128 0.10185 0.0
H479 H 0.49568 0.62688 0.14576 0.0
H480 H 0.51225 0.61119 0.14841 0.0
H481 H 0.50408 0.6175 0.11797 0.0
C482 C 0.54163 0.59356 0.09335 0.0
C483 C 0.54237 0.5978 0.06722 0.0
C484 C 0.54638 0.61205 0.10958 0.0
C485 C 0.55141 0.635 0.10013 0.0
C486 C 0.55287 0.63961 0.07411 0.0
H487 H 0.53088 0.73204 0.19047 0.0
H488 H 0.52961 0.70565 0.15805 0.0
C489 C 0.54845 0.62122 0.05781 0.0
C490 C 0.55459 0.65398 0.11741 0.0
H491 H 0.52553 0.66339 0.16568 0.0
C492 C 0.57684 0.67747 0.11574 0.0
C493 C 0.53559 0.64908 0.13523 0.0
C494 C 0.51046 0.62489 0.13681 0.0
C495 C 0.58075 0.69611 0.13166 0.0
C496 C 0.56217 0.69085 0.15015 0.0
C497 C 0.53987 0.6674 0.15163 0.0
C498 C 0.5649 0.70932 0.16794 0.0
C499 C 0.60445 0.72134 0.12807 0.0
C500 C 0.58544 0.72063 0.18402 0.0
C501 C 0.58643 0.73617 0.20234 0.0
C502 C 0.56658 0.7401 0.20521 0.0
C503 C 0.54636 0.72919 0.18878 0.0
C504 C 0.54562 0.71411 0.17025 0.0
H505 H 0.61265 0.72442 0.10885 0.0
H506 H 0.60078 0.73614 0.13155 0.0
H507 H 0.6187 0.72294 0.14147 0.0
H508 H 0.60024 0.71676 0.18305 0.0
H509 H 0.60212 0.74418 0.21493 0.0
H510 H 0.90798 0.50354 0.56747 0.0
H511 H 0.8861 0.51329 0.5984 0.0
H512 H 0.95296 0.58546 0.60536 0.0
H513 H 0.97502 0.57593 0.57424 0.0
H514 H 0.90867 0.53132 0.65066 0.0
H515 H 0.88934 0.59372 0.59327 0.0
H516 H 0.89275 0.57041 0.5792 0.0
H517 H 0.91985 0.59737 0.59076 0.0
C518 C 0.91791 0.52162 0.57528 0.0
C519 C 0.9432 0.53898 0.56843 0.0
C520 C 0.90544 0.52711 0.593 0.0
C521 C 0.91792 0.55012 0.60395 0.0
C522 C 0.94301 0.56767 0.59691 0.0
H523 H 0.85409 0.59956 0.7172 0.0
H524 H 0.88249 0.59986 0.68526 0.0
C525 C 0.95559 0.56214 0.57931 0.0
C526 C 0.905 0.55504 0.62381 0.0
H527 H 0.87374 0.58414 0.63499 0.0
C528 C 0.90118 0.543 0.64734 0.0
C529 C 0.89563 0.57056 0.6194 0.0
C530 C 0.89943 0.5838 0.59431 0.0
C531 C 0.88762 0.5456 0.66651 0.0
C532 C 0.87708 0.56011 0.66176 0.0
C533 C 0.88175 0.57294 0.6385 0.0
C534 C 0.85965 0.56055 0.68011 0.0
C535 C 0.88456 0.53262 0.69166 0.0
C536 C 0.83716 0.53852 0.68718 0.0
C537 C 0.82106 0.53826 0.70532 0.0
C538 C 0.82696 0.56011 0.71666 0.0
C539 C 0.84907 0.58241 0.70889 0.0
C540 C 0.86529 0.58262 0.69068 0.0
H541 H 0.89979 0.52891 0.69469 0.0
H542 H 0.88458 0.54369 0.70717 0.0
H543 H 0.86632 0.51462 0.69246 0.0
H544 H 0.83215 0.52139 0.6788 0.0
H545 H 0.80405 0.5208 0.71061 0.0
H546 H 0.43794 0.95089 0.08223 0.0
H547 H 0.40237 0.92582 0.11172 0.0
H548 H 0.35321 0.93442 0.06184 0.0
H549 H 0.38893 0.95952 0.03225 0.0
H550 H 0.37024 0.93947 0.13503 0.0
H551 H 0.31829 0.85844 0.07524 0.0
H552 H 0.35115 0.88187 0.06962 0.0
H553 H 0.32733 0.88815 0.06136 0.0
C554 C 0.41949 0.94733 0.07766 0.0
C555 C 0.41591 0.95683 0.05511 0.0
C556 C 0.39928 0.93315 0.09444 0.0
C557 C 0.37518 0.92816 0.08883 0.0
C558 C 0.37161 0.93784 0.06633 0.0
H559 H 0.2541 0.85332 0.20535 0.0
H560 H 0.28036 0.88234 0.17087 0.0
C561 C 0.3919 0.95212 0.04954 0.0
C562 C 0.35393 0.91263 0.10665 0.0
H563 H 0.30101 0.85513 0.11532 0.0
C564 C 0.35487 0.92116 0.13068 0.0
C565 C 0.33405 0.88875 0.10082 0.0
C566 C 0.33255 0.87856 0.07544 0.0
C567 C 0.33686 0.90607 0.14936 0.0
C568 C 0.31734 0.88195 0.14372 0.0
C569 C 0.31592 0.87373 0.11945 0.0
C570 C 0.3002 0.86398 0.16351 0.0
C571 C 0.33955 0.91552 0.17533 0.0
C572 C 0.30235 0.84386 0.17034 0.0
C573 C 0.28751 0.82739 0.18989 0.0
C574 C 0.27006 0.83058 0.20298 0.0
C575 C 0.26742 0.85041 0.19568 0.0
C576 C 0.28244 0.86703 0.17608 0.0
H577 H 0.35762 0.93338 0.17741 0.0
H578 H 0.32385 0.91824 0.17938 0.0
H579 H 0.33844 0.90184 0.18953 0.0
H580 H 0.31595 0.84121 0.16085 0.0
H581 H 0.28995 0.81225 0.19488 0.0
H582 H 0.42428 0.3866 0.52508 0.0
H583 H 0.40987 0.34851 0.55094 0.0
H584 H 0.46732 0.39052 0.6043 0.0
H585 H 0.48158 0.42839 0.57855 0.0
H586 H 0.43793 0.32741 0.56648 0.0
H587 H 0.40194 0.35204 0.6475 0.0
H588 H 0.40798 0.36757 0.61699 0.0
H589 H 0.43345 0.37593 0.63802 0.0
C590 C 0.43373 0.38749 0.54233 0.0
C591 C 0.45393 0.41016 0.55002 0.0
C592 C 0.42552 0.36588 0.55705 0.0
C593 C 0.43725 0.36684 0.57972 0.0
C594 C 0.45768 0.3895 0.58714 0.0
H595 H 0.46543 0.27618 0.67015 0.0
H596 H 0.46177 0.3015 0.63749 0.0
C597 C 0.46592 0.41102 0.57243 0.0
C598 C 0.42892 0.34416 0.59544 0.0
H599 H 0.41147 0.32063 0.65547 0.0
C600 C 0.43167 0.32565 0.5858 0.0
C601 C 0.42027 0.34168 0.62046 0.0
C602 C 0.41547 0.36025 0.6313 0.0
C603 C 0.42777 0.30558 0.60114 0.0
C604 C 0.42127 0.30427 0.62675 0.0
C605 C 0.41669 0.3218 0.63588 0.0
C606 C 0.42222 0.28683 0.64499 0.0
C607 C 0.43139 0.28638 0.58999 0.0
C608 C 0.40121 0.27029 0.66028 0.0
C609 C 0.40325 0.25572 0.67917 0.0
C610 C 0.42646 0.25782 0.68324 0.0
C611 C 0.44728 0.27411 0.66756 0.0
C612 C 0.44518 0.28847 0.64869 0.0
H613 H 0.42785 0.28523 0.56956 0.0
H614 H 0.45116 0.29156 0.59255 0.0
H615 H 0.4187 0.26788 0.59925 0.0
H616 H 0.38339 0.26899 0.65786 0.0
H617 H 0.38691 0.2434 0.69101 0.0
H618 H 0.59097 0.97608 0.43261 0.0
H619 H 0.60472 0.95335 0.40851 0.0
H620 H 0.53308 0.88592 0.42423 0.0
H621 H 0.51924 0.90844 0.44836 0.0
H622 H 0.57446 0.88055 0.42962 0.0
H623 H 0.57929 0.92855 0.3387 0.0
H624 H 0.5978 0.948 0.36339 0.0
H625 H 0.56402 0.93054 0.36632 0.0
C626 C 0.57814 0.95642 0.43086 0.0
C627 C 0.55396 0.94407 0.44226 0.0
C628 C 0.58603 0.94348 0.4171 0.0
C629 C 0.56978 0.91803 0.41431 0.0
C630 C 0.54591 0.90557 0.42618 0.0
H631 H 0.53995 0.79733 0.3332 0.0
H632 H 0.54508 0.82668 0.36391 0.0
C633 C 0.53805 0.91845 0.44001 0.0
C634 C 0.57713 0.90427 0.3985 0.0
H635 H 0.58767 0.89702 0.33767 0.0
C636 C 0.57767 0.88433 0.40956 0.0
C637 C 0.5815 0.90937 0.37235 0.0
C638 C 0.58048 0.93014 0.35935 0.0
C639 C 0.58148 0.86877 0.39502 0.0
C640 C 0.58455 0.87312 0.36876 0.0
C641 C 0.58541 0.89383 0.35785 0.0
C642 C 0.58321 0.85463 0.352 0.0
C643 C 0.58152 0.84739 0.40779 0.0
C644 C 0.60301 0.86063 0.33505 0.0
C645 C 0.60015 0.84375 0.31738 0.0
C646 C 0.57726 0.82089 0.31617 0.0
C647 C 0.55779 0.81481 0.3336 0.0
C648 C 0.56075 0.83149 0.35132 0.0
H649 H 0.58699 0.85099 0.42767 0.0
H650 H 0.56225 0.83065 0.40751 0.0
H651 H 0.59459 0.84352 0.39802 0.0
H652 H 0.62039 0.87854 0.33515 0.0
H653 H 0.61541 0.84897 0.30408 0.0
H654 H 0.57379 0.52033 0.92361 0.0
H655 H 0.61179 0.53313 0.89822 0.0
H656 H 0.65642 0.59109 0.94878 0.0
H657 H 0.61828 0.57799 0.97439 0.0
H658 H 0.64672 0.57893 0.8739 0.0
H659 H 0.69108 0.55173 0.94777 0.0
H660 H 0.6583 0.54207 0.9495 0.0
H661 H 0.68235 0.57311 0.95633 0.0
C662 C 0.59175 0.53585 0.92913 0.0
C663 C 0.5934 0.54816 0.95085 0.0
C664 C 0.61336 0.54319 0.91468 0.0
C665 C 0.63693 0.56289 0.92177 0.0
C666 C 0.63847 0.57562 0.9432 0.0
H667 H 0.76503 0.60735 0.81642 0.0
H668 H 0.73834 0.61219 0.84637 0.0
C669 C 0.6168 0.56824 0.95771 0.0
C670 C 0.65979 0.56934 0.90698 0.0
H671 H 0.71231 0.566 0.90878 0.0
C672 C 0.66132 0.57652 0.88157 0.0
C673 C 0.67868 0.56603 0.9171 0.0
C674 C 0.67759 0.55765 0.94411 0.0
C675 C 0.68068 0.57945 0.86571 0.0
C676 C 0.69914 0.57541 0.87566 0.0
C677 C 0.69823 0.5693 0.90131 0.0
C678 C 0.71714 0.57375 0.8592 0.0
C679 C 0.68039 0.58539 0.83815 0.0
C680 C 0.71457 0.55079 0.85713 0.0
C681 C 0.72968 0.54801 0.84023 0.0
C682 C 0.74784 0.56817 0.82503 0.0
C683 C 0.75117 0.59147 0.82782 0.0
C684 C 0.73587 0.59423 0.8448 0.0
H685 H 0.66285 0.58463 0.83293 0.0
H686 H 0.69665 0.60425 0.83331 0.0
H687 H 0.68223 0.57229 0.82672 0.0
H688 H 0.70026 0.53478 0.8681 0.0
H689 H 0.72673 0.52984 0.83874 0.0
H690 H 0.05733 0.5719 0.422 0.0
H691 H 0.08378 0.60948 0.3956 0.0
H692 H 0.067 0.65078 0.44519 0.0
H693 H 0.04078 0.61309 0.47183 0.0
H694 H 0.0708 0.64042 0.37068 0.0
H695 H 0.14447 0.69021 0.4413 0.0
H696 H 0.12133 0.65752 0.44463 0.0
H697 H 0.11261 0.67937 0.45092 0.0
C698 C 0.05939 0.58907 0.42715 0.0
C699 C 0.04734 0.58992 0.44882 0.0
C700 C 0.07436 0.61043 0.41213 0.0
C701 C 0.07752 0.63293 0.41859 0.0
C702 C 0.06511 0.63368 0.44011 0.0
H703 H 0.15878 0.75947 0.30909 0.0
H704 H 0.12697 0.73109 0.3407 0.0
C705 C 0.05014 0.61226 0.4552 0.0
C706 C 0.0941 0.65549 0.40275 0.0
H707 H 0.15086 0.7102 0.40169 0.0
C708 C 0.08814 0.65587 0.37749 0.0
C709 C 0.11674 0.6755 0.41176 0.0
C710 C 0.12439 0.67571 0.43857 0.0
C711 C 0.10469 0.67533 0.36074 0.0
C712 C 0.1276 0.69505 0.36962 0.0
C713 C 0.13314 0.69512 0.39507 0.0
C714 C 0.14744 0.71396 0.35221 0.0
C715 C 0.0982 0.674 0.33341 0.0
C716 C 0.16971 0.71417 0.34884 0.0
C717 C 0.18779 0.73024 0.33093 0.0
C718 C 0.18404 0.74656 0.31608 0.0
C719 C 0.16217 0.74707 0.32019 0.0
C720 C 0.14395 0.73082 0.33813 0.0
H721 H 0.08145 0.6558 0.32904 0.0
H722 H 0.09412 0.68847 0.3284 0.0
H723 H 0.11437 0.67748 0.32146 0.0
H724 H 0.17276 0.70133 0.35955 0.0
H725 H 0.2045 0.72948 0.32841 0.0
H726 H 0.43724 0.06673 0.96769 0.0
H727 H 0.42258 0.08877 0.94164 0.0
H728 H 0.45079 0.07372 0.87552 0.0
H729 H 0.46504 0.05142 0.90133 0.0
H730 H 0.44985 0.12933 0.91315 0.0
H731 H 0.38234 0.05586 0.85284 0.0
H732 H 0.39417 0.04933 0.88092 0.0
H733 H 0.41211 0.0582 0.85186 0.0
C734 C 0.44012 0.06801 0.94756 0.0
C735 C 0.45218 0.05729 0.9365 0.0
C736 C 0.43163 0.08047 0.93272 0.0
C737 C 0.43508 0.08243 0.90657 0.0
C738 C 0.44713 0.07173 0.89554 0.0
H739 H 0.46877 0.19524 0.80048 0.0
H740 H 0.46544 0.16753 0.83469 0.0
C741 C 0.45541 0.05912 0.91033 0.0
C742 C 0.42824 0.09751 0.89091 0.0
H743 H 0.40096 0.09794 0.83579 0.0
C744 C 0.43871 0.1223 0.89652 0.0
C745 C 0.4132 0.08829 0.86951 0.0
C746 C 0.39959 0.06137 0.86361 0.0
C747 C 0.43615 0.13852 0.88033 0.0
C748 C 0.42331 0.12985 0.85765 0.0
C749 C 0.41118 0.10467 0.85298 0.0
C750 C 0.4247 0.14704 0.83746 0.0
C751 C 0.4478 0.16497 0.88738 0.0
C752 C 0.40282 0.1443 0.82709 0.0
C753 C 0.40463 0.16009 0.80718 0.0
C754 C 0.42838 0.17871 0.79726 0.0
C755 C 0.45017 0.18125 0.80772 0.0
C756 C 0.44833 0.16552 0.82747 0.0
H757 H 0.44858 0.16644 0.90805 0.0
H758 H 0.46742 0.1761 0.87976 0.0
H759 H 0.43712 0.173 0.8797 0.0
H760 H 0.38439 0.12994 0.83437 0.0
H761 H 0.3875 0.15761 0.79947 0.0
H762 H 0.40089 0.42897 0.42154 0.0
H763 H 0.36766 0.41832 0.39127 0.0
H764 H 0.35931 0.47663 0.41678 0.0
H765 H 0.39297 0.48794 0.44662 0.0
H766 H 0.311 0.42239 0.40776 0.0
H767 H 0.38209 0.47245 0.33009 0.0
H768 H 0.38588 0.45262 0.35201 0.0
H769 H 0.38959 0.48064 0.36228 0.0
C770 C 0.39202 0.43957 0.42071 0.0
C771 C 0.39974 0.45945 0.43638 0.0
C772 C 0.37291 0.43329 0.40358 0.0
C773 C 0.36114 0.4467 0.40192 0.0
C774 C 0.36814 0.46599 0.41801 0.0
H775 H 0.28283 0.47784 0.29397 0.0
H776 H 0.30865 0.47589 0.32678 0.0
C777 C 0.38731 0.47236 0.43507 0.0
C778 C 0.34284 0.44189 0.38218 0.0
H779 H 0.33959 0.45555 0.32056 0.0
C780 C 0.31709 0.42932 0.3886 0.0
C781 C 0.35107 0.45112 0.35734 0.0
C782 C 0.37865 0.46505 0.34981 0.0
C783 C 0.29929 0.42624 0.37076 0.0
C784 C 0.30762 0.43598 0.34603 0.0
C785 C 0.33332 0.44801 0.33954 0.0
C786 C 0.29051 0.43621 0.32716 0.0
C787 C 0.27189 0.41354 0.37862 0.0
C788 C 0.27156 0.41442 0.31662 0.0
C789 C 0.25662 0.41543 0.29771 0.0
C790 C 0.26056 0.43828 0.28905 0.0
C791 C 0.27931 0.45993 0.30006 0.0
C792 C 0.29412 0.45889 0.31885 0.0
H793 H 0.269 0.40982 0.39921 0.0
H794 H 0.2642 0.42498 0.37259 0.0
H795 H 0.26097 0.39569 0.36936 0.0
H796 H 0.26871 0.39676 0.32265 0.0
H797 H 0.24237 0.39845 0.28956 0.0
H798 H 0.97401 0.40228 0.92366 0.0
H799 H 0.95095 0.37055 0.89299 0.0
H800 H 0.88445 0.3725 0.90764 0.0
H801 H 0.90729 0.40422 0.93811 0.0
H802 H 0.89852 0.32104 0.90203 0.0
H803 H 0.90376 0.38769 0.82869 0.0
H804 H 0.92607 0.39686 0.85364 0.0
H805 H 0.89503 0.39061 0.85985 0.0
C806 C 0.95448 0.39594 0.9203 0.0
C807 C 0.94244 0.40575 0.93325 0.0
C808 C 0.94134 0.37776 0.90294 0.0
C809 C 0.91611 0.36935 0.89809 0.0
C810 C 0.90397 0.37885 0.91117 0.0
H811 H 0.79623 0.28032 0.80374 0.0
H812 H 0.82642 0.30807 0.83353 0.0
C813 C 0.91699 0.39685 0.92864 0.0
C814 C 0.9024 0.35113 0.87886 0.0
H815 H 0.87584 0.3452 0.82187 0.0
C816 C 0.89378 0.32624 0.88432 0.0
C817 C 0.89644 0.35815 0.85585 0.0
C818 C 0.90591 0.3848 0.84893 0.0
C819 C 0.87814 0.3079 0.86776 0.0
C820 C 0.8714 0.31485 0.84511 0.0
C821 C 0.88097 0.33991 0.83928 0.0
C822 C 0.85273 0.29648 0.82811 0.0
C823 C 0.86794 0.2812 0.87515 0.0
C824 C 0.85736 0.28048 0.81533 0.0
C825 C 0.83994 0.26434 0.79823 0.0
C826 C 0.8178 0.26422 0.79354 0.0
C827 C 0.81314 0.28001 0.80675 0.0
C828 C 0.83039 0.29592 0.82382 0.0
H829 H 0.8712 0.27865 0.89516 0.0
H830 H 0.8474 0.2697 0.87179 0.0
H831 H 0.87743 0.27435 0.86353 0.0
H832 H 0.87468 0.28089 0.8181 0.0
H833 H 0.8441 0.25248 0.78825 0.0
H834 H 0.9495 0.4899 0.93182 0.0
H835 H 0.92088 0.49189 0.90203 0.0
H836 H 0.90702 0.53379 0.95373 0.0
H837 H 0.93736 0.53362 0.98244 0.0
H838 H 0.87379 0.47497 0.90292 0.0
H839 H 0.92189 0.57648 0.89326 0.0
H840 H 0.93562 0.56161 0.90981 0.0
H841 H 0.91268 0.56587 0.92521 0.0
C842 C 0.94046 0.49972 0.93661 0.0
C843 C 0.94537 0.51141 0.95945 0.0
C844 C 0.92403 0.50076 0.91968 0.0
C845 C 0.91198 0.51333 0.92535 0.0
C846 C 0.91656 0.5246 0.94848 0.0
H847 H 0.77995 0.48956 0.84343 0.0
H848 H 0.80797 0.48646 0.87321 0.0
C849 C 0.93354 0.52413 0.9651 0.0
C850 C 0.89444 0.51428 0.90721 0.0
H851 H 0.8804 0.5534 0.87737 0.0
C852 C 0.87539 0.49217 0.89717 0.0
C853 C 0.89667 0.53673 0.89928 0.0
C854 C 0.918 0.56151 0.90724 0.0
C855 C 0.85855 0.49185 0.8796 0.0
C856 C 0.85995 0.51414 0.87271 0.0
C857 C 0.87903 0.53623 0.88275 0.0
C858 C 0.84254 0.51534 0.85454 0.0
C859 C 0.84008 0.46772 0.86806 0.0
C860 C 0.85242 0.53313 0.83458 0.0
C861 C 0.83643 0.53551 0.81821 0.0
C862 C 0.81017 0.5198 0.82105 0.0
C863 C 0.80015 0.50167 0.84066 0.0
C864 C 0.8162 0.49977 0.85755 0.0
H865 H 0.84697 0.45492 0.86876 0.0
H866 H 0.82194 0.45858 0.8788 0.0
H867 H 0.8366 0.47059 0.84824 0.0
H868 H 0.87261 0.54536 0.83172 0.0
H869 H 0.84463 0.54958 0.80316 0.0
H870 H 0.46288 0.93118 0.4385 0.0
H871 H 0.43282 0.90234 0.40856 0.0
H872 H 0.39284 0.9401 0.40951 0.0
H873 H 0.42303 0.969 0.43931 0.0
H874 H 0.38063 0.87057 0.41474 0.0
H875 H 0.40439 0.9375 0.33452 0.0
H876 H 0.42454 0.94437 0.36107 0.0
H877 H 0.39707 0.94637 0.36319 0.0
C878 C 0.44776 0.93335 0.43205 0.0
C879 C 0.44533 0.95238 0.44076 0.0
C880 C 0.43062 0.91691 0.41506 0.0
C881 C 0.41084 0.91931 0.40648 0.0
C882 C 0.40829 0.93825 0.41543 0.0
H883 H 0.28313 0.84014 0.3118 0.0
H884 H 0.31565 0.86809 0.33997 0.0
C885 C 0.42543 0.95467 0.43244 0.0
C886 C 0.3924 0.90155 0.38882 0.0
H887 H 0.36744 0.89766 0.33112 0.0
C888 C 0.37786 0.87643 0.39637 0.0
C889 C 0.38885 0.90925 0.36486 0.0
C890 C 0.40468 0.93581 0.35527 0.0
C891 C 0.35932 0.8589 0.38091 0.0
C892 C 0.35555 0.86666 0.35708 0.0
C893 C 0.37033 0.89174 0.34941 0.0
C894 C 0.33579 0.84924 0.34012 0.0
C895 C 0.34339 0.83237 0.39055 0.0
C896 C 0.33638 0.82939 0.33065 0.0
C897 C 0.3177 0.81325 0.31451 0.0
C898 C 0.29819 0.81677 0.30743 0.0
C899 C 0.29782 0.8368 0.31686 0.0
C900 C 0.31644 0.85286 0.33296 0.0
H901 H 0.34456 0.83052 0.41118 0.0
H902 H 0.32333 0.82427 0.38572 0.0
H903 H 0.35013 0.82146 0.3817 0.0
H904 H 0.35141 0.82652 0.33555 0.0
H905 H 0.31864 0.79812 0.3075 0.0
H906 H 0.4554 0.41807 0.91009 0.0
H907 H 0.45267 0.38871 0.88022 0.0
H908 H 0.52241 0.39909 0.90705 0.0
H909 H 0.52501 0.42808 0.93718 0.0
H910 H 0.48415 0.39537 0.84203 0.0
H911 H 0.478 0.32498 0.91043 0.0
H912 H 0.47435 0.34973 0.91962 0.0
H913 H 0.50529 0.35517 0.91427 0.0
C914 C 0.4701 0.41401 0.90966 0.0
C915 C 0.4903 0.42521 0.92615 0.0
C916 C 0.4685 0.39721 0.89262 0.0
C917 C 0.4871 0.39133 0.89168 0.0
C918 C 0.50746 0.40275 0.9079 0.0
H919 H 0.51383 0.30403 0.78898 0.0
H920 H 0.51902 0.33461 0.81876 0.0
C921 C 0.50894 0.41936 0.92509 0.0
C922 C 0.48558 0.37384 0.87321 0.0
H923 H 0.48428 0.32019 0.86763 0.0
C924 C 0.48409 0.3789 0.84767 0.0
C925 C 0.48548 0.35231 0.88054 0.0
C926 C 0.48562 0.34505 0.90772 0.0
C927 C 0.48269 0.36313 0.82932 0.0
C928 C 0.48282 0.34181 0.83668 0.0
C929 C 0.48445 0.33675 0.86211 0.0
C930 C 0.47998 0.32386 0.81828 0.0
C931 C 0.48114 0.36929 0.80212 0.0
C932 C 0.45632 0.30775 0.80832 0.0
C933 C 0.45323 0.29021 0.79154 0.0
C934 C 0.47383 0.28853 0.78427 0.0
C935 C 0.49763 0.30491 0.79412 0.0
C936 C 0.50063 0.32233 0.81114 0.0
H937 H 0.48483 0.38821 0.79915 0.0
H938 H 0.49489 0.36767 0.79059 0.0
H939 H 0.46202 0.35591 0.79538 0.0
H940 H 0.44015 0.3086 0.81376 0.0
H941 H 0.43466 0.27794 0.7843 0.0
H942 H 0.05715 0.51058 0.38924 0.0
H943 H 0.08524 0.50939 0.3584 0.0
H944 H 0.10379 0.47022 0.41255 0.0
H945 H 0.0756 0.47121 0.44353 0.0
H946 H 0.14598 0.50941 0.38702 0.0
H947 H 0.07219 0.44935 0.3208 0.0
H948 H 0.07208 0.47633 0.3285 0.0
H949 H 0.06485 0.45285 0.35243 0.0
C950 C 0.0669 0.50138 0.39451 0.0
C951 C 0.06395 0.49083 0.41884 0.0
C952 C 0.083 0.50077 0.37685 0.0
C953 C 0.09637 0.48945 0.38306 0.0
C954 C 0.09363 0.47904 0.40735 0.0
H955 H 0.16935 0.44105 0.28567 0.0
H956 H 0.14267 0.44559 0.31525 0.0
C957 C 0.07755 0.47967 0.42505 0.0
C958 C 0.11344 0.48869 0.36434 0.0
H959 H 0.1146 0.46684 0.30737 0.0
C960 C 0.13915 0.50013 0.36959 0.0
C961 C 0.10444 0.47639 0.34171 0.0
C962 C 0.07686 0.46283 0.33554 0.0
C963 C 0.15612 0.49963 0.35278 0.0
C964 C 0.14718 0.48767 0.32997 0.0
C965 C 0.12147 0.47623 0.32475 0.0
C966 C 0.16383 0.48548 0.3119 0.0
C967 C 0.18332 0.5113 0.3599 0.0
C968 C 0.18457 0.50643 0.29996 0.0
C969 C 0.20002 0.50392 0.28295 0.0
C970 C 0.19489 0.48038 0.27752 0.0
C971 C 0.17394 0.45948 0.28939 0.0
C972 C 0.15859 0.46202 0.30632 0.0
H973 H 0.18592 0.51479 0.38021 0.0
H974 H 0.1905 0.49938 0.35511 0.0
H975 H 0.19491 0.52926 0.34931 0.0
H976 H 0.1887 0.52471 0.30365 0.0
H977 H 0.21591 0.52038 0.27406 0.0
H978 H 0.58885 0.04342 0.94291 0.0
H979 H 0.61834 0.07381 0.91093 0.0
H980 H 0.57384 0.10694 0.90682 0.0
H981 H 0.54414 0.07624 0.93853 0.0
H982 H 0.58807 0.09992 0.85985 0.0
H983 H 0.6703 0.14659 0.92154 0.0
H984 H 0.65637 0.11383 0.92102 0.0
H985 H 0.63858 0.12579 0.93361 0.0
C986 C 0.58543 0.05717 0.93503 0.0
C987 C 0.56432 0.05757 0.9429 0.0
C988 C 0.60231 0.0746 0.91697 0.0
C989 C 0.59848 0.09287 0.90676 0.0
C990 C 0.5772 0.09309 0.91452 0.0
H991 H 0.68391 0.21151 0.79142 0.0
H992 H 0.65264 0.18405 0.8238 0.0
C993 C 0.56032 0.07564 0.93256 0.0
C994 C 0.61651 0.11153 0.88776 0.0
H995 H 0.67849 0.15672 0.87782 0.0
C996 C 0.6078 0.11251 0.8638 0.0
C997 C 0.64222 0.12801 0.89302 0.0
C998 C 0.65243 0.12874 0.91876 0.0
C999 C 0.6243 0.12891 0.84469 0.0
C1000 C 0.65011 0.14499 0.84982 0.0
C1001 C 0.6587 0.14434 0.87391 0.0
C1002 C 0.66881 0.16179 0.83016 0.0
C1003 C 0.61419 0.12831 0.81894 0.0
C1004 C 0.68851 0.15868 0.82336 0.0
C1005 C 0.70638 0.17433 0.80502 0.0
C1006 C 0.70507 0.19358 0.79313 0.0
C1007 C 0.68541 0.19682 0.80012 0.0
C1008 C 0.66745 0.18107 0.81852 0.0
H1009 H 0.59521 0.1115 0.81674 0.0
H1010 H 0.61265 0.14467 0.81578 0.0
H1011 H 0.62713 0.12903 0.80426 0.0
H1012 H 0.68996 0.14398 0.83215 0.0
H1013 H 0.72126 0.17127 0.80019 0.0
H1014 H 0.53914 0.59938 0.47749 0.0
H1015 H 0.5395 0.62944 0.44749 0.0
H1016 H 0.49473 0.571 0.39739 0.0
H1017 H 0.49248 0.54076 0.42846 0.0
H1018 H 0.55755 0.64504 0.40419 0.0
H1019 H 0.45482 0.60174 0.39538 0.0
H1020 H 0.46802 0.59102 0.41863 0.0
H1021 H 0.46405 0.58082 0.38701 0.0
C1022 C 0.52888 0.59298 0.46031 0.0
C1023 C 0.51507 0.56775 0.45559 0.0
C1024 C 0.52927 0.61015 0.44305 0.0
C1025 C 0.51647 0.6025 0.42037 0.0
C1026 C 0.50381 0.57735 0.41512 0.0
H1027 H 0.55558 0.70711 0.29376 0.0
H1028 H 0.55145 0.67558 0.32407 0.0
C1029 C 0.50282 0.56011 0.43271 0.0
C1030 C 0.51723 0.62098 0.40194 0.0
H1031 H 0.48072 0.63273 0.36383 0.0
C1032 C 0.54066 0.64241 0.39559 0.0
C1033 C 0.49523 0.61797 0.39096 0.0
C1034 C 0.46912 0.59678 0.39858 0.0
C1035 C 0.54278 0.66063 0.37847 0.0
C1036 C 0.52101 0.65679 0.36619 0.0
C1037 C 0.49751 0.63557 0.37283 0.0
C1038 C 0.52219 0.67462 0.34662 0.0
C1039 C 0.56831 0.68409 0.37444 0.0
C1040 C 0.50593 0.68344 0.34806 0.0
C1041 C 0.50759 0.70077 0.33008 0.0
C1042 C 0.52585 0.70992 0.31065 0.0
C1043 C 0.54161 0.70064 0.30882 0.0
C1044 C 0.53944 0.68281 0.32632 0.0
H1045 H 0.58022 0.68778 0.3911 0.0
H1046 H 0.57824 0.68215 0.35838 0.0
H1047 H 0.56665 0.7003 0.37048 0.0
H1048 H 0.49228 0.6773 0.36337 0.0
H1049 H 0.49523 0.70768 0.3319 0.0
H1050 H 0.488 0.04684 0.59695 0.0
H1051 H 0.48292 0.07347 0.62442 0.0
H1052 H 0.48191 0.1156 0.56007 0.0
H1053 H 0.48514 0.08801 0.53237 0.0
H1054 H 0.51293 0.12086 0.63119 0.0
H1055 H 0.42175 0.1044 0.59821 0.0
H1056 H 0.43384 0.08574 0.58911 0.0
H1057 H 0.44488 0.11521 0.5733 0.0
C1058 C 0.48602 0.06133 0.58853 0.0
C1059 C 0.4868 0.06503 0.56231 0.0
C1060 C 0.48342 0.07677 0.60433 0.0
C1061 C 0.48166 0.09638 0.59437 0.0
C1062 C 0.48261 0.10027 0.56825 0.0
H1063 H 0.50993 0.22115 0.68194 0.0
H1064 H 0.51369 0.19404 0.65362 0.0
C1065 C 0.48487 0.08464 0.5524 0.0
C1066 C 0.47976 0.1132 0.61138 0.0
H1067 H 0.4449 0.1382 0.6246 0.0
C1068 C 0.49796 0.12455 0.62983 0.0
C1069 C 0.46007 0.1178 0.60986 0.0
C1070 C 0.43889 0.10494 0.59173 0.0
C1071 C 0.49712 0.14042 0.64666 0.0
C1072 C 0.47801 0.1458 0.64448 0.0
C1073 C 0.45973 0.13434 0.62613 0.0
C1074 C 0.476 0.16253 0.66154 0.0
C1075 C 0.51631 0.15067 0.66703 0.0
C1076 C 0.45334 0.15419 0.67483 0.0
C1077 C 0.45098 0.16979 0.69056 0.0
C1078 C 0.47131 0.19407 0.69354 0.0
C1079 C 0.49402 0.20246 0.68026 0.0
C1080 C 0.49625 0.18691 0.66418 0.0
H1081 H 0.52445 0.13915 0.67076 0.0
H1082 H 0.532 0.16948 0.66101 0.0
H1083 H 0.50789 0.15187 0.68477 0.0
H1084 H 0.43743 0.1355 0.6731 0.0
H1085 H 0.43323 0.16273 0.70057 0.0
H1086 H 0.45877 0.52647 0.0536 0.0
H1087 H 0.42851 0.52619 0.08311 0.0
H1088 H 0.383 0.4467 0.08266 0.0
H1089 H 0.41334 0.44704 0.05324 0.0
H1090 H 0.37687 0.50704 0.07653 0.0
H1091 H 0.3921 0.46021 0.15768 0.0
H1092 H 0.41383 0.47372 0.13117 0.0
H1093 H 0.38518 0.44406 0.12915 0.0
C1094 C 0.44236 0.50899 0.06004 0.0
C1095 C 0.43841 0.48675 0.05161 0.0
C1096 C 0.42512 0.50883 0.07679 0.0
C1097 C 0.40372 0.48641 0.0854 0.0
C1098 C 0.39966 0.46417 0.07671 0.0
H1099 H 0.27344 0.43954 0.18016 0.0
H1100 H 0.30613 0.44352 0.15198 0.0
C1101 C 0.41689 0.46434 0.05992 0.0
C1102 C 0.38526 0.4863 0.1029 0.0
H1103 H 0.35698 0.46476 0.16072 0.0
C1104 C 0.37263 0.49797 0.09502 0.0
C1105 C 0.37982 0.47448 0.12701 0.0
C1106 C 0.39359 0.46259 0.13692 0.0
C1107 C 0.3541 0.49747 0.11032 0.0
C1108 C 0.34841 0.48535 0.13432 0.0
C1109 C 0.36133 0.474 0.14231 0.0
C1110 C 0.32849 0.48342 0.15112 0.0
C1111 C 0.34021 0.5092 0.10034 0.0
C1112 C 0.33023 0.50457 0.16015 0.0
C1113 C 0.31144 0.50238 0.17629 0.0
C1114 C 0.29068 0.47897 0.18382 0.0
C1115 C 0.28912 0.45787 0.17477 0.0
C1116 C 0.30783 0.46008 0.15866 0.0
H1117 H 0.3425 0.51245 0.07967 0.0
H1118 H 0.31978 0.49747 0.10524 0.0
H1119 H 0.3478 0.52729 0.10887 0.0
H1120 H 0.34626 0.52276 0.15497 0.0
H1121 H 0.31332 0.519 0.18302 0.0
H1122 H 0.92575 0.45556 0.55396 0.0
H1123 H 0.89415 0.42544 0.58482 0.0
H1124 H 0.92716 0.3813 0.58076 0.0
H1125 H 0.95873 0.41145 0.54997 0.0
H1126 H 0.85867 0.37443 0.57983 0.0
H1127 H 0.92486 0.39058 0.65633 0.0
H1128 H 0.93328 0.41181 0.62957 0.0
H1129 H 0.93364 0.38411 0.62699 0.0
C1130 C 0.92622 0.43944 0.55986 0.0
C1131 C 0.94475 0.43586 0.55006 0.0
C1132 C 0.90822 0.42229 0.57737 0.0
C1133 C 0.90857 0.40135 0.58539 0.0
C1134 C 0.92689 0.39759 0.57525 0.0
H1135 H 0.82307 0.27306 0.68333 0.0
H1136 H 0.85203 0.30571 0.65336 0.0
C1137 C 0.94484 0.41472 0.55769 0.0
C1138 C 0.88952 0.38317 0.60402 0.0
H1139 H 0.88324 0.35547 0.66174 0.0
C1140 C 0.86396 0.37039 0.59784 0.0
C1141 C 0.89651 0.37804 0.62752 0.0
C1142 C 0.92353 0.39199 0.63567 0.0
C1143 C 0.84527 0.35194 0.61418 0.0
C1144 C 0.85234 0.34645 0.63747 0.0
C1145 C 0.87785 0.35963 0.64384 0.0
C1146 C 0.83383 0.32634 0.65509 0.0
C1147 C 0.81827 0.33785 0.60599 0.0
C1148 C 0.81387 0.32704 0.66609 0.0
C1149 C 0.79709 0.30824 0.68329 0.0
C1150 C 0.80014 0.28853 0.68991 0.0
C1151 C 0.82011 0.28792 0.67873 0.0
C1152 C 0.83676 0.30662 0.66157 0.0
H1153 H 0.81681 0.34042 0.58552 0.0
H1154 H 0.80913 0.31782 0.61078 0.0
H1155 H 0.80765 0.34457 0.61589 0.0
H1156 H 0.81151 0.34233 0.66171 0.0
H1157 H 0.78201 0.30935 0.69166 0.0
H1158 H 0.53436 0.92784 0.04983 0.0
H1159 H 0.53562 0.89917 0.0805 0.0
H1160 H 0.50397 0.92177 0.13716 0.0
H1161 H 0.50261 0.95043 0.10665 0.0
H1162 H 0.54391 0.91922 0.15409 0.0
H1163 H 0.47544 0.83347 0.10746 0.0
H1164 H 0.50151 0.85541 0.0875 0.0
H1165 H 0.47961 0.86299 0.09903 0.0
C1166 C 0.52754 0.92661 0.06878 0.0
C1167 C 0.51833 0.9414 0.07576 0.0
C1168 C 0.52821 0.91017 0.08628 0.0
C1169 C 0.51946 0.908 0.11101 0.0
C1170 C 0.51073 0.92307 0.11816 0.0
H1171 H 0.48809 0.78961 0.2209 0.0
H1172 H 0.48451 0.81812 0.19185 0.0
C1173 C 0.51012 0.93956 0.10072 0.0
C1174 C 0.51977 0.89033 0.12958 0.0
H1175 H 0.49795 0.82927 0.14113 0.0
C1176 C 0.53378 0.89954 0.15132 0.0
C1177 C 0.50618 0.86461 0.12615 0.0
C1178 C 0.48962 0.85345 0.1039 0.0
C1179 C 0.53509 0.8838 0.1694 0.0
C1180 C 0.5224 0.85822 0.16543 0.0
C1181 C 0.50785 0.84891 0.14403 0.0
C1182 C 0.52447 0.84092 0.18302 0.0
C1183 C 0.54988 0.89471 0.19271 0.0
C1184 C 0.54804 0.84405 0.18737 0.0
C1185 C 0.55015 0.82789 0.20393 0.0
C1186 C 0.52869 0.80808 0.21639 0.0
C1187 C 0.505 0.80472 0.2117 0.0
C1188 C 0.50292 0.82097 0.1951 0.0
H1189 H 0.55222 0.91279 0.19629 0.0
H1190 H 0.54053 0.88207 0.20939 0.0
H1191 H 0.56893 0.89778 0.19031 0.0
H1192 H 0.56484 0.85897 0.17783 0.0
H1193 H 0.56868 0.83096 0.20691 0.0
H1194 H 0.56792 0.47444 0.57641 0.0
H1195 H 0.59728 0.47603 0.6076 0.0
H1196 H 0.61482 0.54788 0.6279 0.0
H1197 H 0.58544 0.54649 0.59662 0.0
H1198 H 0.65805 0.53927 0.61522 0.0
H1199 H 0.58736 0.47457 0.68771 0.0
H1200 H 0.58179 0.46615 0.6555 0.0
H1201 H 0.58069 0.49203 0.66522 0.0
C1202 C 0.5781 0.49063 0.58744 0.0
C1203 C 0.57446 0.5104 0.584 0.0
C1204 C 0.5947 0.49141 0.60535 0.0
C1205 C 0.60803 0.51199 0.62009 0.0
C1206 C 0.60454 0.53179 0.61674 0.0
H1207 H 0.72898 0.5606 0.72485 0.0
H1208 H 0.69806 0.55699 0.69487 0.0
C1209 C 0.58773 0.53094 0.59896 0.0
C1210 C 0.62618 0.51307 0.63849 0.0
H1211 H 0.63006 0.48946 0.69545 0.0
C1212 C 0.65201 0.52847 0.63281 0.0
C1213 C 0.61811 0.49865 0.66117 0.0
C1214 C 0.59049 0.48195 0.668 0.0
C1215 C 0.6701 0.52977 0.64925 0.0
C1216 C 0.6621 0.51581 0.67231 0.0
C1217 C 0.63618 0.5002 0.67783 0.0
C1218 C 0.68035 0.51765 0.69119 0.0
C1219 C 0.69758 0.54567 0.64143 0.0
C1220 C 0.68006 0.49654 0.69996 0.0
C1221 C 0.69757 0.49848 0.7175 0.0
C1222 C 0.71569 0.52158 0.72652 0.0
C1223 C 0.71553 0.54256 0.71806 0.0
C1224 C 0.69793 0.54057 0.70076 0.0
H1225 H 0.70002 0.54867 0.62075 0.0
H1226 H 0.7059 0.56401 0.64963 0.0
H1227 H 0.70824 0.53727 0.64809 0.0
H1228 H 0.66651 0.47862 0.69299 0.0
H1229 H 0.69715 0.48197 0.72369 0.0
H1230 H 0.07563 0.60621 0.05915 0.0
H1231 H 0.10511 0.63582 0.08855 0.0
H1232 H 0.0882 0.57609 0.14135 0.0
H1233 H 0.05884 0.54629 0.11197 0.0
H1234 H 0.08858 0.61519 0.1631 0.0
H1235 H 0.17502 0.64874 0.10482 0.0
H1236 H 0.15073 0.65043 0.08891 0.0
H1237 H 0.14544 0.62083 0.09864 0.0
C1238 C 0.0783 0.59932 0.07694 0.0
C1239 C 0.06492 0.57383 0.08312 0.0
C1240 C 0.0952 0.61629 0.09371 0.0
C1241 C 0.0992 0.60813 0.11696 0.0
C1242 C 0.08549 0.58277 0.12346 0.0
H1243 H 0.22189 0.70121 0.21705 0.0
H1244 H 0.19309 0.66814 0.18985 0.0
C1245 C 0.06858 0.56578 0.1067 0.0
C1246 C 0.11738 0.6261 0.13465 0.0
H1247 H 0.17919 0.67188 0.14038 0.0
C1248 C 0.10842 0.62749 0.1582 0.0
C1249 C 0.14334 0.64186 0.12839 0.0
C1250 C 0.15431 0.6403 0.10392 0.0
C1251 C 0.12455 0.64474 0.17535 0.0
C1252 C 0.15028 0.66127 0.16863 0.0
C1253 C 0.15942 0.65935 0.14541 0.0
C1254 C 0.16777 0.68119 0.18512 0.0
C1255 C 0.11394 0.64508 0.20057 0.0
C1256 C 0.16331 0.69967 0.19112 0.0
C1257 C 0.17967 0.71852 0.20656 0.0
C1258 C 0.20099 0.71941 0.21628 0.0
C1259 C 0.20563 0.70104 0.20996 0.0
C1260 C 0.1892 0.68215 0.19442 0.0
H1261 H 0.09618 0.62726 0.20547 0.0
H1262 H 0.12769 0.649 0.21555 0.0
H1263 H 0.10966 0.65981 0.20009 0.0
H1264 H 0.14719 0.69959 0.18373 0.0
H1265 H 0.17554 0.73241 0.21089 0.0
loop_
_geom_bond_atom_site_label_1
_geom_bond_atom_site_label_2
_geom_bond_distance
_geom_bond_site_symmetry_2
_ccdc_geom_bond_type
C0 C1 1.443 . S
C0 N4 1.376 1_556 S
C0 C38 1.389 . S
C1 C0 1.443 . S
C1 C2 1.340 1_556 S
C1 H41 0.951 . S
C2 C1 1.340 1_554 S
C2 C3 1.439 . S
C2 H42 0.950 . S
C3 C2 1.439 . S
C3 N4 1.374 . S
C3 C37 1.395 . S
N4 C0 1.376 1_554 S
N4 C3 1.374 . S
N4 Co5 1.987 1_655 S
Co5 N4 1.987 1_455 S
Co5 N6 2.018 1_455 S
Co5 N11 2.030 1_554 S
Co5 N16 1.971 1_554 S
Co5 N21 2.300 . S
Co5 N27 2.265 1_454 S
N6 Co5 2.018 1_655 S
N6 C7 1.376 . S
N6 C10 1.383 1_655 S
C7 N6 1.376 . S
C7 C8 1.446 . S
C7 C37 1.391 . S
C8 C7 1.446 . S
C8 C9 1.339 . S
C8 H43 0.949 . S
C9 C8 1.339 . S
C9 C10 1.439 1_655 S
C9 H44 0.950 1_655 S
C10 N6 1.383 1_455 S
C10 C9 1.439 1_455 S
C10 C39 1.392 . S
N11 Co5 2.030 1_556 S
N11 C12 1.376 1_556 S
N11 C15 1.374 . S
C12 N11 1.376 1_554 S
C12 C13 1.443 . S
C12 C39 1.389 . S
C13 C12 1.443 . S
C13 C14 1.340 1_554 S
C13 H45 0.951 . S
C14 C13 1.340 1_556 S
C14 C15 1.439 . S
C14 H46 0.950 . S
C15 N11 1.374 . S
C15 C14 1.439 . S
C15 C40 1.395 . S
N16 Co5 1.971 1_556 S
N16 C17 1.376 . S
N16 C20 1.383 1_455 S
C17 N16 1.376 . S
C17 C18 1.446 . S
C17 C40 1.391 . S
C18 C17 1.446 . S
C18 C19 1.339 . S
C18 H47 0.949 . S
C19 C18 1.339 . S
C19 C20 1.439 1_455 S
C19 H48 0.950 1_455 S
C20 N16 1.383 1_655 S
C20 C19 1.439 1_655 S
C20 C38 1.392 . S
N21 Co5 2.300 . S
N21 C24 1.332 . S
N21 C26 1.332 . S
C22 C23 1.386 . S
C22 C25 1.388 . S
C23 C22 1.386 . S
C23 C24 1.382 . S
C23 H49 0.950 . S
C24 N21 1.332 . S
C24 C23 1.382 . S
C24 H35 0.952 . S
C25 C22 1.388 . S
C25 C26 1.382 . S
C25 H50 0.950 . S
C26 N21 1.332 . S
C26 C25 1.382 . S
C26 H36 0.948 1_455 S
N27 Co5 2.265 1_656 S
N27 C31 1.332 . S
N27 C32 1.332 . S
C28 C29 1.388 . S
C28 C32 1.382 . S
C28 H51 0.950 . S
C29 C28 1.388 . S
C29 C30 1.386 . S
C30 C29 1.386 . S
C30 C31 1.382 . S
C30 H52 0.950 . S
C31 N27 1.332 . S
C31 C30 1.382 . S
C31 H33 0.953 . S
C32 N27 1.332 . S
C32 C28 1.382 . S
C32 H34 0.948 1_655 S
H33 C31 0.953 . S
H34 C32 0.948 1_455 S
H35 C24 0.952 . S
H36 C26 0.948 1_655 S
C37 C3 1.395 . S
C37 C7 1.391 . S
C38 C0 1.389 . S
C38 C20 1.392 . S
C39 C10 1.392 . S
C39 C12 1.389 . S
C40 C15 1.395 . S
C40 C17 1.391 . S
H41 C1 0.951 . S
H42 C2 0.950 . S
H43 C8 0.949 . S
H44 C9 0.950 1_455 S
H45 C13 0.951 . S
H46 C14 0.950 . S
H47 C18 0.949 . S
H48 C19 0.950 1_655 S
H49 C23 0.950 . S
H50 C25 0.950 . S
H51 C28 0.950 . S
H52 C30 0.950 . S
C53 C54 1.447 . S
C53 N57 1.376 1_545 S
C53 C91 1.389 . S
C54 C53 1.447 . S
C54 C55 1.336 1_545 S
C54 H94 0.952 . S
C55 C54 1.336 1_565 S
C55 C56 1.439 . S
C55 H95 0.950 . S
C56 C55 1.439 . S
C56 N57 1.374 . S
C56 C90 1.395 . S
N57 C53 1.376 1_565 S
N57 C56 1.374 . S
N57 Co58 2.008 1_565 S
Co58 N57 2.008 1_545 S
Co58 N59 1.995 1_545 S
Co58 N64 2.008 . S
Co58 N69 1.995 . S
Co58 N74 2.282 1_545 S
Co58 N80 2.282 . S
N59 Co58 1.995 1_565 S
N59 C60 1.376 . S
N59 C63 1.383 . S
C60 N59 1.376 . S
C60 C61 1.446 . S
C60 C90 1.391 . S
C61 C60 1.446 . S
C61 C62 1.339 . S
C61 H96 0.949 . S
C62 C61 1.339 . S
C62 C63 1.439 . S
C62 H97 0.950 . S
C63 N59 1.383 . S
C63 C62 1.439 . S
C63 C92 1.392 . S
N64 Co58 2.008 . S
N64 C65 1.376 1_545 S
N64 C68 1.374 . S
C65 N64 1.376 1_565 S
C65 C66 1.443 1_565 S
C65 C92 1.389 . S
C66 C65 1.443 1_545 S
C66 C67 1.340 . S
C66 H98 0.951 1_545 S
C67 C66 1.340 . S
C67 C68 1.439 . S
C67 H99 0.950 . S
C68 N64 1.374 . S
C68 C67 1.439 . S
C68 C93 1.395 . S
N69 Co58 1.995 . S
N69 C70 1.376 . S
N69 C73 1.383 . S
C70 N69 1.376 . S
C70 C71 1.446 . S
C70 C93 1.391 . S
C71 C70 1.446 . S
C71 C72 1.339 . S
C71 H100 0.949 . S
C72 C71 1.339 . S
C72 C73 1.439 . S
C72 H101 0.950 . S
C73 N69 1.383 . S
C73 C72 1.439 . S
C73 C91 1.392 . S
N74 Co58 2.282 1_565 S
N74 C77 1.332 . S
N74 C79 1.332 . S
C75 C76 1.386 . S
C75 C78 1.388 . S
C76 C75 1.386 . S
C76 C77 1.382 . S
C76 H102 0.950 . S
C77 N74 1.332 . S
C77 C76 1.382 . S
C77 H88 0.952 1_565 S
C78 C75 1.388 . S
C78 C79 1.382 . S
C78 H103 0.950 . S
C79 N74 1.332 . S
C79 C78 1.382 . S
C79 H89 0.948 . S
N80 Co58 2.282 . S
N80 C84 1.332 . S
N80 C85 1.332 . S
C81 C82 1.388 . S
C81 C85 1.382 . S
C81 H104 0.950 . S
C82 C81 1.388 . S
C82 C83 1.386 . S
C83 C82 1.386 . S
C83 C84 1.382 . S
C83 H105 0.950 . S
C84 N80 1.332 . S
C84 C83 1.382 . S
C84 H86 0.952 1_545 S
C85 N80 1.332 . S
C85 C81 1.382 . S
C85 H87 0.948 . S
H86 C84 0.952 1_565 S
H87 C85 0.948 . S
H88 C77 0.952 1_545 S
H89 C79 0.948 . S
C90 C56 1.395 . S
C90 C60 1.391 . S
C91 C53 1.389 . S
C91 C73 1.392 . S
C92 C63 1.392 . S
C92 C65 1.389 . S
C93 C68 1.395 . S
C93 C70 1.391 . S
H94 C54 0.952 . S
H95 C55 0.950 . S
H96 C61 0.949 . S
H97 C62 0.950 . S
H98 C66 0.951 1_565 S
H99 C67 0.950 . S
H100 C71 0.949 . S
H101 C72 0.950 . S
H102 C76 0.950 . S
H103 C78 0.950 . S
H104 C81 0.950 . S
H105 C83 0.950 . S
C106 C107 1.443 . S
C106 N110 1.376 . S
C106 C144 1.389 . S
C107 C106 1.443 . S
C107 C108 1.340 . S
C107 H147 0.951 . S
C108 C107 1.340 . S
C108 C109 1.439 . S
C108 H148 0.950 . S
C109 C108 1.439 . S
C109 N110 1.374 . S
C109 C143 1.395 . S
N110 C106 1.376 . S
N110 C109 1.374 . S
N110 Co111 1.985 1_556 S
Co111 N110 1.985 1_554 S
Co111 N112 1.992 1_554 S
Co111 N117 2.031 . S
Co111 N122 1.997 . S
Co111 N127 2.298 . S
Co111 N133 2.267 1_554 S
N112 Co111 1.992 1_556 S
N112 C113 1.376 . S
N112 C116 1.383 1_556 S
C113 N112 1.376 . S
C113 C114 1.446 . S
C113 C143 1.391 . S
C114 C113 1.446 . S
C114 C115 1.339 1_556 S
C114 H149 0.949 . S
C115 C114 1.339 1_554 S
C115 C116 1.439 . S
C115 H150 0.950 . S
C116 N112 1.383 1_554 S
C116 C115 1.439 . S
C116 C145 1.392 . S
N117 Co111 2.031 . S
N117 C118 1.376 . S
N117 C121 1.374 . S
C118 N117 1.376 . S
C118 C119 1.443 . S
C118 C145 1.389 . S
C119 C118 1.443 . S
C119 C120 1.340 . S
C119 H151 0.951 . S
C120 C119 1.340 . S
C120 C121 1.439 . S
C120 H152 0.950 . S
C121 N117 1.374 . S
C121 C120 1.439 . S
C121 C146 1.395 . S
N122 Co111 1.997 . S
N122 C123 1.376 . S
N122 C126 1.383 1_554 S
C123 N122 1.376 . S
C123 C124 1.446 . S
C123 C146 1.391 . S
C124 C123 1.446 . S
C124 C125 1.339 1_554 S
C124 H153 0.949 . S
C125 C124 1.339 1_556 S
C125 C126 1.439 . S
C125 H154 0.950 . S
C126 N122 1.383 1_556 S
C126 C125 1.439 . S
C126 C144 1.392 . S
N127 Co111 2.298 . S
N127 C130 1.332 . S
N127 C132 1.332 . S
C128 C129 1.386 . S
C128 C131 1.388 . S
C129 C128 1.386 . S
C129 C130 1.382 . S
C129 H155 0.950 . S
C130 N127 1.332 . S
C130 C129 1.382 . S
C130 H141 0.952 . S
C131 C128 1.388 . S
C131 C132 1.382 . S
C131 H156 0.950 . S
C132 N127 1.332 . S
C132 C131 1.382 . S
C132 H142 0.948 . S
N133 Co111 2.267 1_556 S
N133 C137 1.332 . S
N133 C138 1.332 . S
C134 C135 1.388 . S
C134 C138 1.382 . S
C134 H157 0.950 . S
C135 C134 1.388 . S
C135 C136 1.386 . S
C136 C135 1.386 . S
C136 C137 1.382 . S
C136 H158 0.950 . S
C137 N133 1.332 . S
C137 C136 1.382 . S
C137 H139 0.952 . S
C138 N133 1.332 . S
C138 C134 1.382 . S
C138 H140 0.948 . S
H139 C137 0.952 . S
H140 C138 0.948 . S
H141 C130 0.952 . S
H142 C132 0.948 . S
C143 C109 1.395 . S
C143 C113 1.391 . S
C144 C106 1.389 . S
C144 C126 1.392 . S
C145 C116 1.392 . S
C145 C118 1.389 . S
C146 C121 1.395 . S
C146 C123 1.391 . S
H147 C107 0.951 . S
H148 C108 0.950 . S
H149 C114 0.949 . S
H150 C115 0.950 . S
H151 C119 0.951 . S
H152 C120 0.950 . S
H153 C124 0.949 . S
H154 C125 0.950 . S
H155 C129 0.950 . S
H156 C131 0.950 . S
H157 C134 0.950 . S
H158 C136 0.950 . S
C159 C160 1.443 . S
C159 N163 1.376 . S
C159 C197 1.389 . S
C160 C159 1.443 . S
C160 C161 1.340 . S
C160 H200 0.951 . S
C161 C160 1.340 . S
C161 C162 1.439 . S
C161 H201 0.950 . S
C162 C161 1.439 . S
C162 N163 1.374 . S
C162 C196 1.395 . S
N163 C159 1.376 . S
N163 C162 1.374 . S
N163 Co164 1.995 1_655 S
Co164 N163 1.995 1_455 S
Co164 N165 1.984 1_455 S
Co164 N170 2.022 . S
Co164 N175 2.005 . S
Co164 N180 2.298 . S
Co164 N186 2.267 1_455 S
N165 Co164 1.984 1_655 S
N165 C166 1.376 . S
N165 C169 1.383 1_655 S
C166 N165 1.376 . S
C166 C167 1.446 . S
C166 C196 1.391 . S
C167 C166 1.446 . S
C167 C168 1.339 . S
C167 H202 0.949 . S
C168 C167 1.339 . S
C168 C169 1.439 1_655 S
C168 H203 0.950 1_655 S
C169 N165 1.383 1_455 S
C169 C168 1.439 1_455 S
C169 C198 1.392 . S
N170 Co164 2.022 . S
N170 C171 1.376 . S
N170 C174 1.374 . S
C171 N170 1.376 . S
C171 C172 1.443 . S
C171 C198 1.389 . S
C172 C171 1.443 . S
C172 C173 1.340 . S
C172 H204 0.951 . S
C173 C172 1.340 . S
C173 C174 1.439 . S
C173 H205 0.950 . S
C174 N170 1.374 . S
C174 C173 1.439 . S
C174 C199 1.395 . S
N175 Co164 2.005 . S
N175 C176 1.376 . S
N175 C179 1.383 1_455 S
C176 N175 1.376 . S
C176 C177 1.446 . S
C176 C199 1.391 . S
C177 C176 1.446 . S
C177 C178 1.339 . S
C177 H206 0.949 . S
C178 C177 1.339 . S
C178 C179 1.439 1_455 S
C178 H207 0.950 1_455 S
C179 N175 1.383 1_655 S
C179 C178 1.439 1_655 S
C179 C197 1.392 . S
N180 Co164 2.298 . S
N180 C183 1.332 . S
N180 C185 1.332 . S
C181 C182 1.386 . S
C181 C184 1.388 . S
C182 C181 1.386 . S
C182 C183 1.382 . S
C182 H208 0.950 . S
C183 N180 1.332 . S
C183 C182 1.382 . S
C183 H194 0.952 . S
C184 C181 1.388 . S
C184 C185 1.382 . S
C184 H209 0.950 . S
C185 N180 1.332 . S
C185 C184 1.382 . S
C185 H195 0.948 1_455 S
N186 Co164 2.267 1_655 S
N186 C190 1.332 . S
N186 C191 1.332 . S
C187 C188 1.388 . S
C187 C191 1.382 . S
C187 H210 0.950 . S
C188 C187 1.388 . S
C188 C189 1.386 . S
C189 C188 1.386 . S
C189 C190 1.382 . S
C189 H211 0.950 . S
C190 N186 1.332 . S
C190 C189 1.382 . S
C190 H192 0.952 . S
C191 N186 1.332 . S
C191 C187 1.382 . S
C191 H193 0.948 1_655 S
H192 C190 0.952 . S
H193 C191 0.948 1_455 S
H194 C183 0.952 . S
H195 C185 0.948 1_655 S
C196 C162 1.395 . S
C196 C166 1.391 . S
C197 C159 1.389 . S
C197 C179 1.392 . S
C198 C169 1.392 . S
C198 C171 1.389 . S
C199 C174 1.395 . S
C199 C176 1.391 . S
H200 C160 0.951 . S
H201 C161 0.950 . S
H202 C167 0.949 . S
H203 C168 0.950 1_455 S
H204 C172 0.951 . S
H205 C173 0.950 . S
H206 C177 0.949 . S
H207 C178 0.950 1_655 S
H208 C182 0.950 . S
H209 C184 0.950 . S
H210 C187 0.950 . S
H211 C189 0.950 . S
C212 C213 1.443 1_565 S
C212 N216 1.376 1_565 S
C212 C250 1.389 . S
C213 C212 1.443 1_545 S
C213 C214 1.340 . S
C213 H253 0.951 1_545 S
C214 C213 1.340 . S
C214 C215 1.439 . S
C214 H254 0.950 . S
C215 C214 1.439 . S
C215 N216 1.374 . S
C215 C249 1.395 . S
N216 C212 1.376 1_545 S
N216 C215 1.374 . S
N216 Co217 2.032 . S
Co217 N216 2.032 . S
Co217 N218 1.996 . S
Co217 N223 1.984 1_544 S
Co217 N228 1.993 1_545 S
Co217 N233 2.269 1_554 S
Co217 N239 2.296 1_545 S
N218 Co217 1.996 . S
N218 C219 1.376 . S
N218 C222 1.383 1_554 S
C219 N218 1.376 . S
C219 C220 1.446 . S
C219 C249 1.391 . S
C220 C219 1.446 . S
C220 C221 1.339 1_554 S
C220 H255 0.949 . S
C221 C220 1.339 1_556 S
C221 C222 1.439 . S
C221 H256 0.950 . S
C222 N218 1.383 1_556 S
C222 C221 1.439 . S
C222 C251 1.392 . S
N223 Co217 1.984 1_566 S
N223 C224 1.376 1_565 S
N223 C227 1.374 . S
C224 N223 1.376 1_545 S
C224 C225 1.464 . S
C224 C251 1.389 . S
C225 C224 1.464 . S
C225 C226 1.316 1_545 S
C225 H257 0.956 . S
C226 C225 1.316 1_565 S
C226 C227 1.439 . S
C226 H258 0.950 . S
C227 N223 1.374 . S
C227 C226 1.439 . S
C227 C252 1.395 . S
N228 Co217 1.993 1_565 S
N228 C229 1.377 1_554 S
N228 C232 1.382 . S
C229 N228 1.377 1_556 S
C229 C230 1.446 . S
C229 C252 1.391 . S
C230 C229 1.446 . S
C230 C231 1.339 1_556 S
C230 H259 0.949 . S
C231 C230 1.339 1_554 S
C231 C232 1.439 . S
C231 H260 0.950 . S
C232 N228 1.382 . S
C232 C231 1.439 . S
C232 C250 1.392 . S
N233 Co217 2.269 1_556 S
N233 C236 1.332 . S
N233 C238 1.332 . S
C234 C235 1.386 . S
C234 C237 1.388 . S
C235 C234 1.386 . S
C235 C236 1.382 . S
C235 H261 0.950 . S
C236 N233 1.332 . S
C236 C235 1.382 . S
C236 H247 0.952 1_545 S
C237 C234 1.388 . S
C237 C238 1.382 . S
C237 H262 0.950 . S
C238 N233 1.332 . S
C238 C237 1.382 . S
C238 H248 0.948 . S
N239 Co217 2.296 1_565 S
N239 C243 1.332 . S
N239 C244 1.332 . S
C240 C241 1.388 . S
C240 C244 1.382 . S
C240 H263 0.950 . S
C241 C240 1.388 . S
C241 C242 1.386 . S
C242 C241 1.386 . S
C242 C243 1.382 . S
C242 H264 0.950 . S
C243 N239 1.332 . S
C243 C242 1.382 . S
C243 H245 0.952 1_565 S
C244 N239 1.332 . S
C244 C240 1.382 . S
C244 H246 0.948 . S
H245 C243 0.952 1_545 S
H246 C244 0.948 . S
H247 C236 0.952 1_565 S
H248 C238 0.948 . S
C249 C215 1.395 . S
C249 C219 1.391 . S
C250 C212 1.389 . S
C250 C232 1.392 . S
C251 C222 1.392 . S
C251 C224 1.389 . S
C252 C227 1.395 . S
C252 C229 1.391 . S
H253 C213 0.951 1_565 S
H254 C214 0.950 . S
H255 C220 0.949 . S
H256 C221 0.950 . S
H257 C225 0.956 . S
H258 C226 0.950 . S
H259 C230 0.949 . S
H260 C231 0.950 . S
H261 C235 0.950 . S
H262 C237 0.950 . S
H263 C240 0.950 . S
H264 C242 0.950 . S
C265 C266 1.443 . S
C265 N269 1.376 . S
C265 C303 1.389 . S
C266 C265 1.443 . S
C266 C267 1.340 . S
C266 H306 0.951 . S
C267 C266 1.340 . S
C267 C268 1.439 . S
C267 H307 0.950 . S
C268 C267 1.439 . S
C268 N269 1.374 . S
C268 C302 1.395 . S
N269 C265 1.376 . S
N269 C268 1.374 . S
N269 Co270 2.008 . S
Co270 N269 2.008 . S
Co270 N271 1.995 . S
Co270 N276 2.008 . S
Co270 N281 1.995 . S
Co270 N286 2.282 . S
Co270 N292 2.282 . S
N271 Co270 1.995 . S
N271 C272 1.376 . S
N271 C275 1.383 . S
C272 N271 1.376 . S
C272 C273 1.446 . S
C272 C302 1.391 . S
C273 C272 1.446 . S
C273 C274 1.339 . S
C273 H308 0.949 . S
C274 C273 1.339 . S
C274 C275 1.439 . S
C274 H309 0.950 . S
C275 N271 1.383 . S
C275 C274 1.439 . S
C275 C304 1.392 . S
N276 Co270 2.008 . S
N276 C277 1.376 . S
N276 C280 1.374 . S
C277 N276 1.376 . S
C277 C278 1.443 . S
C277 C304 1.389 . S
C278 C277 1.443 . S
C278 C279 1.340 . S
C278 H310 0.951 . S
C279 C278 1.340 . S
C279 C280 1.439 . S
C279 H311 0.950 . S
C280 N276 1.374 . S
C280 C279 1.439 . S
C280 C305 1.395 . S
N281 Co270 1.995 . S
N281 C282 1.376 . S
N281 C285 1.383 . S
C282 N281 1.376 . S
C282 C283 1.446 . S
C282 C305 1.391 . S
C283 C282 1.446 . S
C283 C284 1.339 . S
C283 H312 0.949 . S
C284 C283 1.339 . S
C284 C285 1.439 . S
C284 H313 0.950 . S
C285 N281 1.383 . S
C285 C284 1.439 . S
C285 C303 1.392 . S
N286 Co270 2.282 . S
N286 C289 1.332 . S
N286 C291 1.332 . S
C287 C288 1.386 . S
C287 C290 1.388 . S
C288 C287 1.386 . S
C288 C289 1.382 . S
C288 H314 0.950 . S
C289 N286 1.332 . S
C289 C288 1.382 . S
C289 H300 0.952 . S
C290 C287 1.388 . S
C290 C291 1.382 . S
C290 H315 0.950 . S
C291 N286 1.332 . S
C291 C290 1.382 . S
C291 H301 0.948 . S
N292 Co270 2.282 . S
N292 C296 1.332 . S
N292 C297 1.332 . S
C293 C294 1.388 . S
C293 C297 1.382 . S
C293 H316 0.950 . S
C294 C293 1.388 . S
C294 C295 1.386 . S
C295 C294 1.386 . S
C295 C296 1.382 . S
C295 H317 0.950 . S
C296 N292 1.332 . S
C296 C295 1.382 . S
C296 H298 0.952 . S
C297 N292 1.332 . S
C297 C293 1.382 . S
C297 H299 0.948 . S
H298 C296 0.952 . S
H299 C297 0.948 . S
H300 C289 0.952 . S
H301 C291 0.948 . S
C302 C268 1.395 . S
C302 C272 1.391 . S
C303 C265 1.389 . S
C303 C285 1.392 . S
C304 C275 1.392 . S
C304 C277 1.389 . S
C305 C280 1.395 . S
C305 C282 1.391 . S
H306 C266 0.951 . S
H307 C267 0.950 . S
H308 C273 0.949 . S
H309 C274 0.950 . S
H310 C278 0.951 . S
H311 C279 0.950 . S
H312 C283 0.949 . S
H313 C284 0.950 . S
H314 C288 0.950 . S
H315 C290 0.950 . S
H316 C293 0.950 . S
H317 C295 0.950 . S
C318 O320 1.247 . S
C318 O322 1.258 . S
C319 O326 1.247 . S
C319 O327 1.258 . S
O320 C318 1.247 . S
O320 Zn321 2.028 . S
Zn321 O320 2.028 . S
Zn321 O325 2.035 . S
Zn321 O327 2.035 . S
Zn321 O328 2.028 . S
O322 C318 1.258 . S
O322 Zn323 2.035 . S
Zn323 O322 2.035 . S
Zn323 O324 2.028 . S
Zn323 O326 2.028 . S
Zn323 O329 2.035 . S
O324 Zn323 2.028 . S
O324 C330 1.247 . S
O325 Zn321 2.035 . S
O325 C330 1.258 . S
O326 C319 1.247 . S
O326 Zn323 2.028 . S
O327 C319 1.258 . S
O327 Zn321 2.035 . S
O328 Zn321 2.028 . S
O328 C331 1.247 . S
O329 Zn323 2.035 . S
O329 C331 1.258 . S
C330 O324 1.247 . S
C330 O325 1.258 . S
C331 O328 1.247 . S
C331 O329 1.258 . S
C332 O334 1.247 . S
C332 O336 1.258 . S
C333 O340 1.247 . S
C333 O341 1.258 . S
O334 C332 1.247 . S
O334 Zn335 2.028 . S
Zn335 O334 2.028 . S
Zn335 O339 2.035 . S
Zn335 O341 2.035 . S
Zn335 O342 2.028 . S
O336 C332 1.258 . S
O336 Zn337 2.035 . S
Zn337 O336 2.035 . S
Zn337 O338 2.028 . S
Zn337 O340 2.028 . S
Zn337 O343 2.035 . S
O338 Zn337 2.028 . S
O338 C344 1.247 . S
O339 Zn335 2.035 . S
O339 C344 1.258 . S
O340 C333 1.247 . S
O340 Zn337 2.028 . S
O341 C333 1.258 . S
O341 Zn335 2.035 . S
O342 Zn335 2.028 . S
O342 C345 1.247 . S
O343 Zn337 2.035 . S
O343 C345 1.258 . S
C344 O338 1.247 . S
C344 O339 1.258 . S
C345 O342 1.247 . S
C345 O343 1.258 . S
C346 O348 1.247 . S
C346 O350 1.258 . S
C347 O354 1.247 . S
C347 O355 1.258 . S
O348 C346 1.247 . S
O348 Zn349 2.028 . S
Zn349 O348 2.028 . S
Zn349 O353 2.035 . S
Zn349 O355 2.035 . S
Zn349 O356 2.028 . S
O350 C346 1.258 . S
O350 Zn351 2.035 . S
Zn351 O350 2.035 . S
Zn351 O352 2.028 . S
Zn351 O354 2.028 . S
Zn351 O357 2.035 . S
O352 Zn351 2.028 . S
O352 C358 1.247 . S
O353 Zn349 2.035 . S
O353 C358 1.258 . S
O354 C347 1.247 . S
O354 Zn351 2.028 . S
O355 C347 1.258 . S
O355 Zn349 2.035 . S
O356 Zn349 2.028 . S
O356 C359 1.247 . S
O357 Zn351 2.035 . S
O357 C359 1.258 . S
C358 O352 1.247 . S
C358 O353 1.258 . S
C359 O356 1.247 . S
C359 O357 1.258 . S
C360 O362 1.247 . S
C360 O364 1.258 . S
C361 O368 1.247 . S
C361 O369 1.258 . S
O362 C360 1.247 . S
O362 Zn363 2.028 . S
Zn363 O362 2.028 . S
Zn363 O367 2.035 . S
Zn363 O369 2.035 . S
Zn363 O370 2.028 . S
O364 C360 1.258 . S
O364 Zn365 2.035 . S
Zn365 O364 2.035 . S
Zn365 O366 2.028 . S
Zn365 O368 2.028 . S
Zn365 O371 2.035 . S
O366 Zn365 2.028 . S
O366 C372 1.247 . S
O367 Zn363 2.035 . S
O367 C372 1.258 . S
O368 C361 1.247 . S
O368 Zn365 2.028 . S
O369 C361 1.258 . S
O369 Zn363 2.035 . S
O370 Zn363 2.028 . S
O370 C373 1.247 . S
O371 Zn365 2.035 . S
O371 C373 1.258 . S
C372 O366 1.247 . S
C372 O367 1.258 . S
C373 O370 1.247 . S
C373 O371 1.258 . S
C374 O376 1.247 . S
C374 O378 1.258 . S
C375 O382 1.247 . S
C375 O383 1.258 . S
O376 C374 1.247 . S
O376 Zn377 2.028 . S
Zn377 O376 2.028 . S
Zn377 O381 2.035 . S
Zn377 O383 2.035 . S
Zn377 O384 2.028 . S
O378 C374 1.258 . S
O378 Zn379 2.035 . S
Zn379 O378 2.035 . S
Zn379 O380 2.028 . S
Zn379 O382 2.028 . S
Zn379 O385 2.035 . S
O380 Zn379 2.028 . S
O380 C386 1.247 . S
O381 Zn377 2.035 . S
O381 C386 1.258 . S
O382 C375 1.247 . S
O382 Zn379 2.028 . S
O383 C375 1.258 . S
O383 Zn377 2.035 . S
O384 Zn377 2.028 . S
O384 C387 1.247 . S
O385 Zn379 2.035 . S
O385 C387 1.258 . S
C386 O380 1.247 . S
C386 O381 1.258 . S
C387 O384 1.247 . S
C387 O385 1.258 . S
C388 O390 1.247 . S
C388 O392 1.258 . S
C389 O396 1.247 . S
C389 O397 1.258 . S
O390 C388 1.247 . S
O390 Zn391 2.028 . S
Zn391 O390 2.028 . S
Zn391 O395 2.035 . S
Zn391 O397 2.035 . S
Zn391 O398 2.028 . S
O392 C388 1.258 . S
O392 Zn393 2.035 . S
Zn393 O392 2.035 . S
Zn393 O394 2.028 . S
Zn393 O396 2.028 . S
Zn393 O399 2.035 . S
O394 Zn393 2.028 . S
O394 C400 1.247 . S
O395 Zn391 2.035 . S
O395 C400 1.258 . S
O396 C389 1.247 . S
O396 Zn393 2.028 . S
O397 C389 1.258 . S
O397 Zn391 2.035 . S
O398 Zn391 2.028 . S
O398 C401 1.247 . S
O399 Zn393 2.035 . S
O399 C401 1.258 . S
C400 O394 1.247 . S
C400 O395 1.258 . S
C401 O398 1.247 . S
C401 O399 1.258 . S
H402 C410 0.929 . S
H403 C412 0.930 . S
H404 C414 0.930 . S
H405 C417 0.929 . S
H406 C420 0.930 . S
H407 C422 0.960 . S
H408 C422 0.960 . S
H409 C422 0.960 . S
C410 H402 0.929 . S
C410 C411 1.377 . S
C410 C412 1.384 . S
C411 C410 1.377 . S
C411 C417 1.390 . S
C412 H403 0.930 . S
C412 C410 1.384 . S
C412 C413 1.372 . S
C413 C412 1.372 . S
C413 C414 1.400 . S
C413 C418 1.490 . S
C414 H404 0.930 . S
C414 C413 1.400 . S
C414 C417 1.386 . S
H415 C431 0.930 . S
H416 C432 0.931 . S
C417 H405 0.929 . S
C417 C411 1.390 . S
C417 C414 1.386 . S
C418 C413 1.490 . S
C418 C420 1.395 . S
C418 C421 1.403 . S
H419 C425 0.930 . S
C420 H406 0.930 . S
C420 C418 1.395 . S
C420 C423 1.403 . S
C421 C418 1.403 . S
C421 C422 1.524 . S
C421 C425 1.400 . S
C422 H407 0.960 . S
C422 H408 0.960 . S
C422 H409 0.960 . S
C422 C421 1.524 . S
C423 C420 1.403 . S
C423 C424 1.392 . S
C423 C427 1.495 . S
C424 C423 1.392 . S
C424 C425 1.385 . S
C424 C426 1.478 . S
C425 H419 0.930 . S
C425 C421 1.400 . S
C425 C424 1.385 . S
C426 C424 1.478 . S
C426 C428 1.381 . S
C426 C432 1.383 . S
C427 C423 1.495 . S
C427 H433 0.959 . S
C427 H434 0.961 . S
C427 H435 0.960 . S
C428 C426 1.381 . S
C428 C429 1.394 . S
C428 H436 0.930 . S
C429 C428 1.394 . S
C429 C430 1.383 . S
C429 H437 0.929 . S
C430 C429 1.383 . S
C430 C431 1.377 . S
C431 H415 0.930 . S
C431 C430 1.377 . S
C431 C432 1.379 . S
C432 H416 0.931 . S
C432 C426 1.383 . S
C432 C431 1.379 . S
H433 C427 0.959 . S
H434 C427 0.961 . S
H435 C427 0.960 . S
H436 C428 0.930 . S
H437 C429 0.929 . S
H438 C446 0.929 . S
H439 C448 0.930 . S
H440 C450 0.930 . S
H441 C453 0.929 . S
H442 C456 0.930 . S
H443 C458 0.960 . S
H444 C458 0.960 . S
H445 C458 0.960 . S
C446 H438 0.929 . S
C446 C447 1.377 . S
C446 C448 1.384 . S
C447 C446 1.377 . S
C447 C453 1.390 . S
C448 H439 0.930 . S
C448 C446 1.384 . S
C448 C449 1.372 . S
C449 C448 1.372 . S
C449 C450 1.400 . S
C449 C454 1.490 . S
C450 H440 0.930 . S
C450 C449 1.400 . S
C450 C453 1.386 . S
H451 C467 0.930 . S
H452 C468 0.931 . S
C453 H441 0.929 . S
C453 C447 1.390 . S
C453 C450 1.386 . S
C454 C449 1.490 . S
C454 C456 1.395 . S
C454 C457 1.403 . S
H455 C461 0.930 . S
C456 H442 0.930 . S
C456 C454 1.395 . S
C456 C459 1.403 . S
C457 C454 1.403 . S
C457 C458 1.524 . S
C457 C461 1.400 . S
C458 H443 0.960 . S
C458 H444 0.960 . S
C458 H445 0.960 . S
C458 C457 1.524 . S
C459 C456 1.403 . S
C459 C460 1.392 . S
C459 C463 1.495 . S
C460 C459 1.392 . S
C460 C461 1.385 . S
C460 C462 1.478 . S
C461 H455 0.930 . S
C461 C457 1.400 . S
C461 C460 1.385 . S
C462 C460 1.478 . S
C462 C464 1.381 . S
C462 C468 1.383 . S
C463 C459 1.495 . S
C463 H469 0.959 . S
C463 H470 0.961 . S
C463 H471 0.960 . S
C464 C462 1.381 . S
C464 C465 1.394 . S
C464 H472 0.930 . S
C465 C464 1.394 . S
C465 C466 1.383 . S
C465 H473 0.929 . S
C466 C465 1.383 . S
C466 C467 1.377 . S
C467 H451 0.930 . S
C467 C466 1.377 . S
C467 C468 1.379 . S
C468 H452 0.931 . S
C468 C462 1.383 . S
C468 C467 1.379 . S
H469 C463 0.959 . S
H470 C463 0.961 . S
H471 C463 0.960 . S
H472 C464 0.930 . S
H473 C465 0.929 . S
H474 C482 0.929 . S
H475 C484 0.930 . S
H476 C486 0.930 . S
H477 C489 0.929 . S
H478 C492 0.930 . S
H479 C494 0.960 . S
H480 C494 0.960 . S
H481 C494 0.960 . S
C482 H474 0.929 . S
C482 C483 1.377 . S
C482 C484 1.384 . S
C483 C482 1.377 . S
C483 C489 1.390 . S
C484 H475 0.930 . S
C484 C482 1.384 . S
C484 C485 1.372 . S
C485 C484 1.372 . S
C485 C486 1.400 . S
C485 C490 1.490 . S
C486 H476 0.930 . S
C486 C485 1.400 . S
C486 C489 1.386 . S
H487 C503 0.930 . S
H488 C504 0.931 . S
C489 H477 0.929 . S
C489 C483 1.390 . S
C489 C486 1.386 . S
C490 C485 1.490 . S
C490 C492 1.395 . S
C490 C493 1.403 . S
H491 C497 0.930 . S
C492 H478 0.930 . S
C492 C490 1.395 . S
C492 C495 1.403 . S
C493 C490 1.403 . S
C493 C494 1.524 . S
C493 C497 1.400 . S
C494 H479 0.960 . S
C494 H480 0.960 . S
C494 H481 0.960 . S
C494 C493 1.524 . S
C495 C492 1.403 . S
C495 C496 1.392 . S
C495 C499 1.495 . S
C496 C495 1.392 . S
C496 C497 1.385 . S
C496 C498 1.478 . S
C497 H491 0.930 . S
C497 C493 1.400 . S
C497 C496 1.385 . S
C498 C496 1.478 . S
C498 C500 1.381 . S
C498 C504 1.383 . S
C499 C495 1.495 . S
C499 H505 0.959 . S
C499 H506 0.961 . S
C499 H507 0.960 . S
C500 C498 1.381 . S
C500 C501 1.394 . S
C500 H508 0.930 . S
C501 C500 1.394 . S
C501 C502 1.383 . S
C501 H509 0.929 . S
C502 C501 1.383 . S
C502 C503 1.377 . S
C503 H487 0.930 . S
C503 C502 1.377 . S
C503 C504 1.379 . S
C504 H488 0.931 . S
C504 C498 1.383 . S
C504 C503 1.379 . S
H505 C499 0.959 . S
H506 C499 0.961 . S
H507 C499 0.960 . S
H508 C500 0.930 . S
H509 C501 0.929 . S
H510 C518 0.929 . S
H511 C520 0.930 . S
H512 C522 0.930 . S
H513 C525 0.929 . S
H514 C528 0.930 . S
H515 C530 0.960 . S
H516 C530 0.960 . S
H517 C530 0.960 . S
C518 H510 0.929 . S
C518 C519 1.377 . S
C518 C520 1.384 . S
C519 C518 1.377 . S
C519 C525 1.390 . S
C520 H511 0.930 . S
C520 C518 1.384 . S
C520 C521 1.372 . S
C521 C520 1.372 . S
C521 C522 1.400 . S
C521 C526 1.490 . S
C522 H512 0.930 . S
C522 C521 1.400 . S
C522 C525 1.386 . S
H523 C539 0.930 . S
H524 C540 0.931 . S
C525 H513 0.929 . S
C525 C519 1.390 . S
C525 C522 1.386 . S
C526 C521 1.490 . S
C526 C528 1.395 . S
C526 C529 1.403 . S
H527 C533 0.930 . S
C528 H514 0.930 . S
C528 C526 1.395 . S
C528 C531 1.403 . S
C529 C526 1.403 . S
C529 C530 1.524 . S
C529 C533 1.400 . S
C530 H515 0.960 . S
C530 H516 0.960 . S
C530 H517 0.960 . S
C530 C529 1.524 . S
C531 C528 1.403 . S
C531 C532 1.392 . S
C531 C535 1.495 . S
C532 C531 1.392 . S
C532 C533 1.385 . S
C532 C534 1.478 . S
C533 H527 0.930 . S
C533 C529 1.400 . S
C533 C532 1.385 . S
C534 C532 1.478 . S
C534 C536 1.381 . S
C534 C540 1.383 . S
C535 C531 1.495 . S
C535 H541 0.959 . S
C535 H542 0.961 . S
C535 H543 0.960 . S
C536 C534 1.381 . S
C536 C537 1.394 . S
C536 H544 0.930 . S
C537 C536 1.394 . S
C537 C538 1.383 . S
C537 H545 0.929 . S
C538 C537 1.383 . S
C538 C539 1.377 . S
C539 H523 0.930 . S
C539 C538 1.377 . S
C539 C540 1.379 . S
C540 H524 0.931 . S
C540 C534 1.383 . S
C540 C539 1.379 . S
H541 C535 0.959 . S
H542 C535 0.961 . S
H543 C535 0.960 . S
H544 C536 0.930 . S
H545 C537 0.929 . S
H546 C554 0.929 . S
H547 C556 0.930 . S
H548 C558 0.930 . S
H549 C561 0.929 . S
H550 C564 0.930 . S
H551 C566 0.960 . S
H552 C566 0.960 . S
H553 C566 0.960 . S
C554 H546 0.929 . S
C554 C555 1.377 . S
C554 C556 1.384 . S
C555 C554 1.377 . S
C555 C561 1.390 . S
C556 H547 0.930 . S
C556 C554 1.384 . S
C556 C557 1.372 . S
C557 C556 1.372 . S
C557 C558 1.400 . S
C557 C562 1.490 . S
C558 H548 0.930 . S
C558 C557 1.400 . S
C558 C561 1.386 . S
H559 C575 0.930 . S
H560 C576 0.931 . S
C561 H549 0.929 . S
C561 C555 1.390 . S
C561 C558 1.386 . S
C562 C557 1.490 . S
C562 C564 1.395 . S
C562 C565 1.403 . S
H563 C569 0.930 . S
C564 H550 0.930 . S
C564 C562 1.395 . S
C564 C567 1.403 . S
C565 C562 1.403 . S
C565 C566 1.524 . S
C565 C569 1.400 . S
C566 H551 0.960 . S
C566 H552 0.960 . S
C566 H553 0.960 . S
C566 C565 1.524 . S
C567 C564 1.403 . S
C567 C568 1.392 . S
C567 C571 1.495 . S
C568 C567 1.392 . S
C568 C569 1.385 . S
C568 C570 1.478 . S
C569 H563 0.930 . S
C569 C565 1.400 . S
C569 C568 1.385 . S
C570 C568 1.478 . S
C570 C572 1.381 . S
C570 C576 1.383 . S
C571 C567 1.495 . S
C571 H577 0.959 . S
C571 H578 0.961 . S
C571 H579 0.960 . S
C572 C570 1.381 . S
C572 C573 1.394 . S
C572 H580 0.930 . S
C573 C572 1.394 . S
C573 C574 1.383 . S
C573 H581 0.929 . S
C574 C573 1.383 . S
C574 C575 1.377 . S
C575 H559 0.930 . S
C575 C574 1.377 . S
C575 C576 1.379 . S
C576 H560 0.931 . S
C576 C570 1.383 . S
C576 C575 1.379 . S
H577 C571 0.959 . S
H578 C571 0.961 . S
H579 C571 0.960 . S
H580 C572 0.930 . S
H581 C573 0.929 . S
H582 C590 0.929 . S
H583 C592 0.930 . S
H584 C594 0.930 . S
H585 C597 0.929 . S
H586 C600 0.930 . S
H587 C602 0.960 . S
H588 C602 0.960 . S
H589 C602 0.960 . S
C590 H582 0.929 . S
C590 C591 1.377 . S
C590 C592 1.384 . S
C591 C590 1.377 . S
C591 C597 1.390 . S
C592 H583 0.930 . S
C592 C590 1.384 . S
C592 C593 1.372 . S
C593 C592 1.372 . S
C593 C594 1.400 . S
C593 C598 1.490 . S
C594 H584 0.930 . S
C594 C593 1.400 . S
C594 C597 1.386 . S
H595 C611 0.930 . S
H596 C612 0.931 . S
C597 H585 0.929 . S
C597 C591 1.390 . S
C597 C594 1.386 . S
C598 C593 1.490 . S
C598 C600 1.395 . S
C598 C601 1.403 . S
H599 C605 0.930 . S
C600 H586 0.930 . S
C600 C598 1.395 . S
C600 C603 1.403 . S
C601 C598 1.403 . S
C601 C602 1.524 . S
C601 C605 1.400 . S
C602 H587 0.960 . S
C602 H588 0.960 . S
C602 H589 0.960 . S
C602 C601 1.524 . S
C603 C600 1.403 . S
C603 C604 1.392 . S
C603 C607 1.495 . S
C604 C603 1.392 . S
C604 C605 1.385 . S
C604 C606 1.478 . S
C605 H599 0.930 . S
C605 C601 1.400 . S
C605 C604 1.385 . S
C606 C604 1.478 . S
C606 C608 1.381 . S
C606 C612 1.383 . S
C607 C603 1.495 . S
C607 H613 0.959 . S
C607 H614 0.961 . S
C607 H615 0.960 . S
C608 C606 1.381 . S
C608 C609 1.394 . S
C608 H616 0.930 . S
C609 C608 1.394 . S
C609 C610 1.383 . S
C609 H617 0.929 . S
C610 C609 1.383 . S
C610 C611 1.377 . S
C611 H595 0.930 . S
C611 C610 1.377 . S
C611 C612 1.379 . S
C612 H596 0.931 . S
C612 C606 1.383 . S
C612 C611 1.379 . S
H613 C607 0.959 . S
H614 C607 0.961 . S
H615 C607 0.960 . S
H616 C608 0.930 . S
H617 C609 0.929 . S
H618 C626 0.929 . S
H619 C628 0.930 . S
H620 C630 0.930 . S
H621 C633 0.929 . S
H622 C636 0.930 . S
H623 C638 0.960 . S
H624 C638 0.960 . S
H625 C638 0.960 . S
C626 H618 0.929 . S
C626 C627 1.377 . S
C626 C628 1.384 . S
C627 C626 1.377 . S
C627 C633 1.390 . S
C628 H619 0.930 . S
C628 C626 1.384 . S
C628 C629 1.372 . S
C629 C628 1.372 . S
C629 C630 1.400 . S
C629 C634 1.490 . S
C630 H620 0.930 . S
C630 C629 1.400 . S
C630 C633 1.386 . S
H631 C647 0.930 . S
H632 C648 0.931 . S
C633 H621 0.929 . S
C633 C627 1.390 . S
C633 C630 1.386 . S
C634 C629 1.490 . S
C634 C636 1.395 . S
C634 C637 1.403 . S
H635 C641 0.930 . S
C636 H622 0.930 . S
C636 C634 1.395 . S
C636 C639 1.403 . S
C637 C634 1.403 . S
C637 C638 1.524 . S
C637 C641 1.400 . S
C638 H623 0.960 . S
C638 H624 0.960 . S
C638 H625 0.960 . S
C638 C637 1.524 . S
C639 C636 1.403 . S
C639 C640 1.392 . S
C639 C643 1.495 . S
C640 C639 1.392 . S
C640 C641 1.385 . S
C640 C642 1.478 . S
C641 H635 0.930 . S
C641 C637 1.400 . S
C641 C640 1.385 . S
C642 C640 1.478 . S
C642 C644 1.381 . S
C642 C648 1.383 . S
C643 C639 1.495 . S
C643 H649 0.959 . S
C643 H650 0.961 . S
C643 H651 0.960 . S
C644 C642 1.381 . S
C644 C645 1.394 . S
C644 H652 0.930 . S
C645 C644 1.394 . S
C645 C646 1.383 . S
C645 H653 0.929 . S
C646 C645 1.383 . S
C646 C647 1.377 . S
C647 H631 0.930 . S
C647 C646 1.377 . S
C647 C648 1.379 . S
C648 H632 0.931 . S
C648 C642 1.383 . S
C648 C647 1.379 . S
H649 C643 0.959 . S
H650 C643 0.961 . S
H651 C643 0.960 . S
H652 C644 0.930 . S
H653 C645 0.929 . S
H654 C662 0.929 . S
H655 C664 0.930 . S
H656 C666 0.930 . S
H657 C669 0.929 . S
H658 C672 0.930 . S
H659 C674 0.960 . S
H660 C674 0.960 . S
H661 C674 0.960 . S
C662 H654 0.929 . S
C662 C663 1.377 . S
C662 C664 1.384 . S
C663 C662 1.377 . S
C663 C669 1.390 . S
C664 H655 0.930 . S
C664 C662 1.384 . S
C664 C665 1.372 . S
C665 C664 1.372 . S
C665 C666 1.400 . S
C665 C670 1.490 . S
C666 H656 0.930 . S
C666 C665 1.400 . S
C666 C669 1.386 . S
H667 C683 0.930 . S
H668 C684 0.931 . S
C669 H657 0.929 . S
C669 C663 1.390 . S
C669 C666 1.386 . S
C670 C665 1.490 . S
C670 C672 1.395 . S
C670 C673 1.403 . S
H671 C677 0.930 . S
C672 H658 0.930 . S
C672 C670 1.395 . S
C672 C675 1.403 . S
C673 C670 1.403 . S
C673 C674 1.524 . S
C673 C677 1.400 . S
C674 H659 0.960 . S
C674 H660 0.960 . S
C674 H661 0.960 . S
C674 C673 1.524 . S
C675 C672 1.403 . S
C675 C676 1.392 . S
C675 C679 1.495 . S
C676 C675 1.392 . S
C676 C677 1.385 . S
C676 C678 1.478 . S
C677 H671 0.930 . S
C677 C673 1.400 . S
C677 C676 1.385 . S
C678 C676 1.478 . S
C678 C680 1.381 . S
C678 C684 1.383 . S
C679 C675 1.495 . S
C679 H685 0.959 . S
C679 H686 0.961 . S
C679 H687 0.960 . S
C680 C678 1.381 . S
C680 C681 1.394 . S
C680 H688 0.930 . S
C681 C680 1.394 . S
C681 C682 1.383 . S
C681 H689 0.929 . S
C682 C681 1.383 . S
C682 C683 1.377 . S
C683 H667 0.930 . S
C683 C682 1.377 . S
C683 C684 1.379 . S
C684 H668 0.931 . S
C684 C678 1.383 . S
C684 C683 1.379 . S
H685 C679 0.959 . S
H686 C679 0.961 . S
H687 C679 0.960 . S
H688 C680 0.930 . S
H689 C681 0.929 . S
H690 C698 0.929 . S
H691 C700 0.930 . S
H692 C702 0.930 . S
H693 C705 0.929 . S
H694 C708 0.930 . S
H695 C710 0.960 . S
H696 C710 0.960 . S
H697 C710 0.960 . S
C698 H690 0.929 . S
C698 C699 1.377 . S
C698 C700 1.384 . S
C699 C698 1.377 . S
C699 C705 1.390 . S
C700 H691 0.930 . S
C700 C698 1.384 . S
C700 C701 1.372 . S
C701 C700 1.372 . S
C701 C702 1.400 . S
C701 C706 1.490 . S
C702 H692 0.930 . S
C702 C701 1.400 . S
C702 C705 1.386 . S
H703 C719 0.930 . S
H704 C720 0.931 . S
C705 H693 0.929 . S
C705 C699 1.390 . S
C705 C702 1.386 . S
C706 C701 1.490 . S
C706 C708 1.395 . S
C706 C709 1.403 . S
H707 C713 0.930 . S
C708 H694 0.930 . S
C708 C706 1.395 . S
C708 C711 1.403 . S
C709 C706 1.403 . S
C709 C710 1.524 . S
C709 C713 1.400 . S
C710 H695 0.960 . S
C710 H696 0.960 . S
C710 H697 0.960 . S
C710 C709 1.524 . S
C711 C708 1.403 . S
C711 C712 1.392 . S
C711 C715 1.495 . S
C712 C711 1.392 . S
C712 C713 1.385 . S
C712 C714 1.478 . S
C713 H707 0.930 . S
C713 C709 1.400 . S
C713 C712 1.385 . S
C714 C712 1.478 . S
C714 C716 1.381 . S
C714 C720 1.383 . S
C715 C711 1.495 . S
C715 H721 0.959 . S
C715 H722 0.961 . S
C715 H723 0.960 . S
C716 C714 1.381 . S
C716 C717 1.394 . S
C716 H724 0.930 . S
C717 C716 1.394 . S
C717 C718 1.383 . S
C717 H725 0.929 . S
C718 C717 1.383 . S
C718 C719 1.377 . S
C719 H703 0.930 . S
C719 C718 1.377 . S
C719 C720 1.379 . S
C720 H704 0.931 . S
C720 C714 1.383 . S
C720 C719 1.379 . S
H721 C715 0.959 . S
H722 C715 0.961 . S
H723 C715 0.960 . S
H724 C716 0.930 . S
H725 C717 0.929 . S
H726 C734 0.929 . S
H727 C736 0.930 . S
H728 C738 0.930 . S
H729 C741 0.929 . S
H730 C744 0.930 . S
H731 C746 0.960 . S
H732 C746 0.960 . S
H733 C746 0.960 . S
C734 H726 0.929 . S
C734 C735 1.377 . S
C734 C736 1.384 . S
C735 C734 1.377 . S
C735 C741 1.390 . S
C736 H727 0.930 . S
C736 C734 1.384 . S
C736 C737 1.372 . S
C737 C736 1.372 . S
C737 C738 1.400 . S
C737 C742 1.490 . S
C738 H728 0.930 . S
C738 C737 1.400 . S
C738 C741 1.386 . S
H739 C755 0.930 . S
H740 C756 0.931 . S
C741 H729 0.929 . S
C741 C735 1.390 . S
C741 C738 1.386 . S
C742 C737 1.490 . S
C742 C744 1.395 . S
C742 C745 1.403 . S
H743 C749 0.930 . S
C744 H730 0.930 . S
C744 C742 1.395 . S
C744 C747 1.403 . S
C745 C742 1.403 . S
C745 C746 1.524 . S
C745 C749 1.400 . S
C746 H731 0.960 . S
C746 H732 0.960 . S
C746 H733 0.960 . S
C746 C745 1.524 . S
C747 C744 1.403 . S
C747 C748 1.392 . S
C747 C751 1.495 . S
C748 C747 1.392 . S
C748 C749 1.385 . S
C748 C750 1.478 . S
C749 H743 0.930 . S
C749 C745 1.400 . S
C749 C748 1.385 . S
C750 C748 1.478 . S
C750 C752 1.381 . S
C750 C756 1.383 . S
C751 C747 1.495 . S
C751 H757 0.959 . S
C751 H758 0.961 . S
C751 H759 0.960 . S
C752 C750 1.381 . S
C752 C753 1.394 . S
C752 H760 0.930 . S
C753 C752 1.394 . S
C753 C754 1.383 . S
C753 H761 0.929 . S
C754 C753 1.383 . S
C754 C755 1.377 . S
C755 H739 0.930 . S
C755 C754 1.377 . S
C755 C756 1.379 . S
C756 H740 0.931 . S
C756 C750 1.383 . S
C756 C755 1.379 . S
H757 C751 0.959 . S
H758 C751 0.961 . S
H759 C751 0.960 . S
H760 C752 0.930 . S
H761 C753 0.929 . S
H762 C770 0.929 . S
H763 C772 0.930 . S
H764 C774 0.930 . S
H765 C777 0.929 . S
H766 C780 0.930 . S
H767 C782 0.960 . S
H768 C782 0.960 . S
H769 C782 0.960 . S
C770 H762 0.929 . S
C770 C771 1.377 . S
C770 C772 1.384 . S
C771 C770 1.377 . S
C771 C777 1.390 . S
C772 H763 0.930 . S
C772 C770 1.384 . S
C772 C773 1.372 . S
C773 C772 1.372 . S
C773 C774 1.400 . S
C773 C778 1.490 . S
C774 H764 0.930 . S
C774 C773 1.400 . S
C774 C777 1.386 . S
H775 C791 0.930 . S
H776 C792 0.931 . S
C777 H765 0.929 . S
C777 C771 1.390 . S
C777 C774 1.386 . S
C778 C773 1.490 . S
C778 C780 1.395 . S
C778 C781 1.403 . S
H779 C785 0.930 . S
C780 H766 0.930 . S
C780 C778 1.395 . S
C780 C783 1.403 . S
C781 C778 1.403 . S
C781 C782 1.524 . S
C781 C785 1.400 . S
C782 H767 0.960 . S
C782 H768 0.960 . S
C782 H769 0.960 . S
C782 C781 1.524 . S
C783 C780 1.403 . S
C783 C784 1.392 . S
C783 C787 1.495 . S
C784 C783 1.392 . S
C784 C785 1.385 . S
C784 C786 1.478 . S
C785 H779 0.930 . S
C785 C781 1.400 . S
C785 C784 1.385 . S
C786 C784 1.478 . S
C786 C788 1.381 . S
C786 C792 1.383 . S
C787 C783 1.495 . S
C787 H793 0.959 . S
C787 H794 0.961 . S
C787 H795 0.960 . S
C788 C786 1.381 . S
C788 C789 1.394 . S
C788 H796 0.930 . S
C789 C788 1.394 . S
C789 C790 1.383 . S
C789 H797 0.929 . S
C790 C789 1.383 . S
C790 C791 1.377 . S
C791 H775 0.930 . S
C791 C790 1.377 . S
C791 C792 1.379 . S
C792 H776 0.931 . S
C792 C786 1.383 . S
C792 C791 1.379 . S
H793 C787 0.959 . S
H794 C787 0.961 . S
H795 C787 0.960 . S
H796 C788 0.930 . S
H797 C789 0.929 . S
H798 C806 0.929 . S
H799 C808 0.930 . S
H800 C810 0.930 . S
H801 C813 0.929 . S
H802 C816 0.930 . S
H803 C818 0.960 . S
H804 C818 0.960 . S
H805 C818 0.960 . S
C806 H798 0.929 . S
C806 C807 1.377 . S
C806 C808 1.384 . S
C807 C806 1.377 . S
C807 C813 1.390 . S
C808 H799 0.930 . S
C808 C806 1.384 . S
C808 C809 1.372 . S
C809 C808 1.372 . S
C809 C810 1.400 . S
C809 C814 1.490 . S
C810 H800 0.930 . S
C810 C809 1.400 . S
C810 C813 1.386 . S
H811 C827 0.930 . S
H812 C828 0.931 . S
C813 H801 0.929 . S
C813 C807 1.390 . S
C813 C810 1.386 . S
C814 C809 1.490 . S
C814 C816 1.395 . S
C814 C817 1.403 . S
H815 C821 0.930 . S
C816 H802 0.930 . S
C816 C814 1.395 . S
C816 C819 1.403 . S
C817 C814 1.403 . S
C817 C818 1.524 . S
C817 C821 1.400 . S
C818 H803 0.960 . S
C818 H804 0.960 . S
C818 H805 0.960 . S
C818 C817 1.524 . S
C819 C816 1.403 . S
C819 C820 1.392 . S
C819 C823 1.495 . S
C820 C819 1.392 . S
C820 C821 1.385 . S
C820 C822 1.478 . S
C821 H815 0.930 . S
C821 C817 1.400 . S
C821 C820 1.385 . S
C822 C820 1.478 . S
C822 C824 1.381 . S
C822 C828 1.383 . S
C823 C819 1.495 . S
C823 H829 0.959 . S
C823 H830 0.961 . S
C823 H831 0.960 . S
C824 C822 1.381 . S
C824 C825 1.394 . S
C824 H832 0.930 . S
C825 C824 1.394 . S
C825 C826 1.383 . S
C825 H833 0.929 . S
C826 C825 1.383 . S
C826 C827 1.377 . S
C827 H811 0.930 . S
C827 C826 1.377 . S
C827 C828 1.379 . S
C828 H812 0.931 . S
C828 C822 1.383 . S
C828 C827 1.379 . S
H829 C823 0.959 . S
H830 C823 0.961 . S
H831 C823 0.960 . S
H832 C824 0.930 . S
H833 C825 0.929 . S
H834 C842 0.929 . S
H835 C844 0.930 . S
H836 C846 0.930 . S
H837 C849 0.929 . S
H838 C852 0.930 . S
H839 C854 0.960 . S
H840 C854 0.960 . S
H841 C854 0.960 . S
C842 H834 0.929 . S
C842 C843 1.377 . S
C842 C844 1.384 . S
C843 C842 1.377 . S
C843 C849 1.390 . S
C844 H835 0.930 . S
C844 C842 1.384 . S
C844 C845 1.372 . S
C845 C844 1.372 . S
C845 C846 1.400 . S
C845 C850 1.490 . S
C846 H836 0.930 . S
C846 C845 1.400 . S
C846 C849 1.386 . S
H847 C863 0.930 . S
H848 C864 0.931 . S
C849 H837 0.929 . S
C849 C843 1.390 . S
C849 C846 1.386 . S
C850 C845 1.490 . S
C850 C852 1.395 . S
C850 C853 1.403 . S
H851 C857 0.930 . S
C852 H838 0.930 . S
C852 C850 1.395 . S
C852 C855 1.403 . S
C853 C850 1.403 . S
C853 C854 1.524 . S
C853 C857 1.400 . S
C854 H839 0.960 . S
C854 H840 0.960 . S
C854 H841 0.960 . S
C854 C853 1.524 . S
C855 C852 1.403 . S
C855 C856 1.392 . S
C855 C859 1.495 . S
C856 C855 1.392 . S
C856 C857 1.385 . S
C856 C858 1.478 . S
C857 H851 0.930 . S
C857 C853 1.400 . S
C857 C856 1.385 . S
C858 C856 1.478 . S
C858 C860 1.381 . S
C858 C864 1.383 . S
C859 C855 1.495 . S
C859 H865 0.959 . S
C859 H866 0.961 . S
C859 H867 0.960 . S
C860 C858 1.381 . S
C860 C861 1.394 . S
C860 H868 0.930 . S
C861 C860 1.394 . S
C861 C862 1.383 . S
C861 H869 0.929 . S
C862 C861 1.383 . S
C862 C863 1.377 . S
C863 H847 0.930 . S
C863 C862 1.377 . S
C863 C864 1.379 . S
C864 H848 0.931 . S
C864 C858 1.383 . S
C864 C863 1.379 . S
H865 C859 0.959 . S
H866 C859 0.961 . S
H867 C859 0.960 . S
H868 C860 0.930 . S
H869 C861 0.929 . S
H870 C878 0.929 . S
H871 C880 0.930 . S
H872 C882 0.930 . S
H873 C885 0.929 . S
H874 C888 0.930 . S
H875 C890 0.960 . S
H876 C890 0.960 . S
H877 C890 0.960 . S
C878 H870 0.929 . S
C878 C879 1.377 . S
C878 C880 1.384 . S
C879 C878 1.377 . S
C879 C885 1.390 . S
C880 H871 0.930 . S
C880 C878 1.384 . S
C880 C881 1.372 . S
C881 C880 1.372 . S
C881 C882 1.400 . S
C881 C886 1.490 . S
C882 H872 0.930 . S
C882 C881 1.400 . S
C882 C885 1.386 . S
H883 C899 0.930 . S
H884 C900 0.931 . S
C885 H873 0.929 . S
C885 C879 1.390 . S
C885 C882 1.386 . S
C886 C881 1.490 . S
C886 C888 1.395 . S
C886 C889 1.403 . S
H887 C893 0.930 . S
C888 H874 0.930 . S
C888 C886 1.395 . S
C888 C891 1.403 . S
C889 C886 1.403 . S
C889 C890 1.524 . S
C889 C893 1.400 . S
C890 H875 0.960 . S
C890 H876 0.960 . S
C890 H877 0.960 . S
C890 C889 1.524 . S
C891 C888 1.403 . S
C891 C892 1.392 . S
C891 C895 1.495 . S
C892 C891 1.392 . S
C892 C893 1.385 . S
C892 C894 1.478 . S
C893 H887 0.930 . S
C893 C889 1.400 . S
C893 C892 1.385 . S
C894 C892 1.478 . S
C894 C896 1.381 . S
C894 C900 1.383 . S
C895 C891 1.495 . S
C895 H901 0.959 . S
C895 H902 0.961 . S
C895 H903 0.960 . S
C896 C894 1.381 . S
C896 C897 1.394 . S
C896 H904 0.930 . S
C897 C896 1.394 . S
C897 C898 1.383 . S
C897 H905 0.929 . S
C898 C897 1.383 . S
C898 C899 1.377 . S
C899 H883 0.930 . S
C899 C898 1.377 . S
C899 C900 1.379 . S
C900 H884 0.931 . S
C900 C894 1.383 . S
C900 C899 1.379 . S
H901 C895 0.959 . S
H902 C895 0.961 . S
H903 C895 0.960 . S
H904 C896 0.930 . S
H905 C897 0.929 . S
H906 C914 0.929 . S
H907 C916 0.930 . S
H908 C918 0.930 . S
H909 C921 0.929 . S
H910 C924 0.930 . S
H911 C926 0.960 . S
H912 C926 0.960 . S
H913 C926 0.960 . S
C914 H906 0.929 . S
C914 C915 1.377 . S
C914 C916 1.384 . S
C915 C914 1.377 . S
C915 C921 1.390 . S
C916 H907 0.930 . S
C916 C914 1.384 . S
C916 C917 1.372 . S
C917 C916 1.372 . S
C917 C918 1.400 . S
C917 C922 1.490 . S
C918 H908 0.930 . S
C918 C917 1.400 . S
C918 C921 1.386 . S
H919 C935 0.930 . S
H920 C936 0.931 . S
C921 H909 0.929 . S
C921 C915 1.390 . S
C921 C918 1.386 . S
C922 C917 1.490 . S
C922 C924 1.395 . S
C922 C925 1.403 . S
H923 C929 0.930 . S
C924 H910 0.930 . S
C924 C922 1.395 . S
C924 C927 1.403 . S
C925 C922 1.403 . S
C925 C926 1.524 . S
C925 C929 1.400 . S
C926 H911 0.960 . S
C926 H912 0.960 . S
C926 H913 0.960 . S
C926 C925 1.524 . S
C927 C924 1.403 . S
C927 C928 1.392 . S
C927 C931 1.495 . S
C928 C927 1.392 . S
C928 C929 1.385 . S
C928 C930 1.478 . S
C929 H923 0.930 . S
C929 C925 1.400 . S
C929 C928 1.385 . S
C930 C928 1.478 . S
C930 C932 1.381 . S
C930 C936 1.383 . S
C931 C927 1.495 . S
C931 H937 0.959 . S
C931 H938 0.961 . S
C931 H939 0.960 . S
C932 C930 1.381 . S
C932 C933 1.394 . S
C932 H940 0.930 . S
C933 C932 1.394 . S
C933 C934 1.383 . S
C933 H941 0.929 . S
C934 C933 1.383 . S
C934 C935 1.377 . S
C935 H919 0.930 . S
C935 C934 1.377 . S
C935 C936 1.379 . S
C936 H920 0.931 . S
C936 C930 1.383 . S
C936 C935 1.379 . S
H937 C931 0.959 . S
H938 C931 0.961 . S
H939 C931 0.960 . S
H940 C932 0.930 . S
H941 C933 0.929 . S
H942 C950 0.929 . S
H943 C952 0.930 . S
H944 C954 0.930 . S
H945 C957 0.929 . S
H946 C960 0.930 . S
H947 C962 0.960 . S
H948 C962 0.960 . S
H949 C962 0.960 . S
C950 H942 0.929 . S
C950 C951 1.377 . S
C950 C952 1.384 . S
C951 C950 1.377 . S
C951 C957 1.390 . S
C952 H943 0.930 . S
C952 C950 1.384 . S
C952 C953 1.372 . S
C953 C952 1.372 . S
C953 C954 1.400 . S
C953 C958 1.490 . S
C954 H944 0.930 . S
C954 C953 1.400 . S
C954 C957 1.386 . S
H955 C971 0.930 . S
H956 C972 0.931 . S
C957 H945 0.929 . S
C957 C951 1.390 . S
C957 C954 1.386 . S
C958 C953 1.490 . S
C958 C960 1.395 . S
C958 C961 1.403 . S
H959 C965 0.930 . S
C960 H946 0.930 . S
C960 C958 1.395 . S
C960 C963 1.403 . S
C961 C958 1.403 . S
C961 C962 1.524 . S
C961 C965 1.400 . S
C962 H947 0.960 . S
C962 H948 0.960 . S
C962 H949 0.960 . S
C962 C961 1.524 . S
C963 C960 1.403 . S
C963 C964 1.392 . S
C963 C967 1.495 . S
C964 C963 1.392 . S
C964 C965 1.385 . S
C964 C966 1.478 . S
C965 H959 0.930 . S
C965 C961 1.400 . S
C965 C964 1.385 . S
C966 C964 1.478 . S
C966 C968 1.381 . S
C966 C972 1.383 . S
C967 C963 1.495 . S
C967 H973 0.959 . S
C967 H974 0.961 . S
C967 H975 0.960 . S
C968 C966 1.381 . S
C968 C969 1.394 . S
C968 H976 0.930 . S
C969 C968 1.394 . S
C969 C970 1.383 . S
C969 H977 0.929 . S
C970 C969 1.383 . S
C970 C971 1.377 . S
C971 H955 0.930 . S
C971 C970 1.377 . S
C971 C972 1.379 . S
C972 H956 0.931 . S
C972 C966 1.383 . S
C972 C971 1.379 . S
H973 C967 0.959 . S
H974 C967 0.961 . S
H975 C967 0.960 . S
H976 C968 0.930 . S
H977 C969 0.929 . S
H978 C986 0.929 . S
H979 C988 0.930 . S
H980 C990 0.930 . S
H981 C993 0.929 . S
H982 C996 0.930 . S
H983 C998 0.960 . S
H984 C998 0.960 . S
H985 C998 0.960 . S
C986 H978 0.929 . S
C986 C987 1.377 . S
C986 C988 1.384 . S
C987 C986 1.377 . S
C987 C993 1.390 . S
C988 H979 0.930 . S
C988 C986 1.384 . S
C988 C989 1.372 . S
C989 C988 1.372 . S
C989 C990 1.400 . S
C989 C994 1.490 . S
C990 H980 0.930 . S
C990 C989 1.400 . S
C990 C993 1.386 . S
H991 C1007 0.930 . S
H992 C1008 0.931 . S
C993 H981 0.929 . S
C993 C987 1.390 . S
C993 C990 1.386 . S
C994 C989 1.490 . S
C994 C996 1.395 . S
C994 C997 1.403 . S
H995 C1001 0.930 . S
C996 H982 0.930 . S
C996 C994 1.395 . S
C996 C999 1.403 . S
C997 C994 1.403 . S
C997 C998 1.524 . S
C997 C1001 1.400 . S
C998 H983 0.960 . S
C998 H984 0.960 . S
C998 H985 0.960 . S
C998 C997 1.524 . S
C999 C996 1.403 . S
C999 C1000 1.392 . S
C999 C1003 1.495 . S
C1000 C999 1.392 . S
C1000 C1001 1.385 . S
C1000 C1002 1.478 . S
C1001 H995 0.930 . S
C1001 C997 1.400 . S
C1001 C1000 1.385 . S
C1002 C1000 1.478 . S
C1002 C1004 1.381 . S
C1002 C1008 1.383 . S
C1003 C999 1.495 . S
C1003 H1009 0.959 . S
C1003 H1010 0.961 . S
C1003 H1011 0.960 . S
C1004 C1002 1.381 . S
C1004 C1005 1.394 . S
C1004 H1012 0.930 . S
C1005 C1004 1.394 . S
C1005 C1006 1.383 . S
C1005 H1013 0.929 . S
C1006 C1005 1.383 . S
C1006 C1007 1.377 . S
C1007 H991 0.930 . S
C1007 C1006 1.377 . S
C1007 C1008 1.379 . S
C1008 H992 0.931 . S
C1008 C1002 1.383 . S
C1008 C1007 1.379 . S
H1009 C1003 0.959 . S
H1010 C1003 0.961 . S
H1011 C1003 0.960 . S
H1012 C1004 0.930 . S
H1013 C1005 0.929 . S
H1014 C1022 0.929 . S
H1015 C1024 0.930 . S
H1016 C1026 0.930 . S
H1017 C1029 0.929 . S
H1018 C1032 0.930 . S
H1019 C1034 0.960 . S
H1020 C1034 0.960 . S
H1021 C1034 0.960 . S
C1022 H1014 0.929 . S
C1022 C1023 1.377 . S
C1022 C1024 1.384 . S
C1023 C1022 1.377 . S
C1023 C1029 1.390 . S
C1024 H1015 0.930 . S
C1024 C1022 1.384 . S
C1024 C1025 1.372 . S
C1025 C1024 1.372 . S
C1025 C1026 1.400 . S
C1025 C1030 1.490 . S
C1026 H1016 0.930 . S
C1026 C1025 1.400 . S
C1026 C1029 1.386 . S
H1027 C1043 0.930 . S
H1028 C1044 0.931 . S
C1029 H1017 0.929 . S
C1029 C1023 1.390 . S
C1029 C1026 1.386 . S
C1030 C1025 1.490 . S
C1030 C1032 1.395 . S
C1030 C1033 1.403 . S
H1031 C1037 0.930 . S
C1032 H1018 0.930 . S
C1032 C1030 1.395 . S
C1032 C1035 1.403 . S
C1033 C1030 1.403 . S
C1033 C1034 1.524 . S
C1033 C1037 1.400 . S
C1034 H1019 0.960 . S
C1034 H1020 0.960 . S
C1034 H1021 0.960 . S
C1034 C1033 1.524 . S
C1035 C1032 1.403 . S
C1035 C1036 1.392 . S
C1035 C1039 1.495 . S
C1036 C1035 1.392 . S
C1036 C1037 1.385 . S
C1036 C1038 1.478 . S
C1037 H1031 0.930 . S
C1037 C1033 1.400 . S
C1037 C1036 1.385 . S
C1038 C1036 1.478 . S
C1038 C1040 1.381 . S
C1038 C1044 1.383 . S
C1039 C1035 1.495 . S
C1039 H1045 0.959 . S
C1039 H1046 0.961 . S
C1039 H1047 0.960 . S
C1040 C1038 1.381 . S
C1040 C1041 1.394 . S
C1040 H1048 0.930 . S
C1041 C1040 1.394 . S
C1041 C1042 1.383 . S
C1041 H1049 0.929 . S
C1042 C1041 1.383 . S
C1042 C1043 1.377 . S
C1043 H1027 0.930 . S
C1043 C1042 1.377 . S
C1043 C1044 1.379 . S
C1044 H1028 0.931 . S
C1044 C1038 1.383 . S
C1044 C1043 1.379 . S
H1045 C1039 0.959 . S
H1046 C1039 0.961 . S
H1047 C1039 0.960 . S
H1048 C1040 0.930 . S
H1049 C1041 0.929 . S
H1050 C1058 0.929 . S
H1051 C1060 0.930 . S
H1052 C1062 0.930 . S
H1053 C1065 0.929 . S
H1054 C1068 0.930 . S
H1055 C1070 0.960 . S
H1056 C1070 0.960 . S
H1057 C1070 0.960 . S
C1058 H1050 0.929 . S
C1058 C1059 1.377 . S
C1058 C1060 1.384 . S
C1059 C1058 1.377 . S
C1059 C1065 1.390 . S
C1060 H1051 0.930 . S
C1060 C1058 1.384 . S
C1060 C1061 1.372 . S
C1061 C1060 1.372 . S
C1061 C1062 1.400 . S
C1061 C1066 1.490 . S
C1062 H1052 0.930 . S
C1062 C1061 1.400 . S
C1062 C1065 1.386 . S
H1063 C1079 0.930 . S
H1064 C1080 0.931 . S
C1065 H1053 0.929 . S
C1065 C1059 1.390 . S
C1065 C1062 1.386 . S
C1066 C1061 1.490 . S
C1066 C1068 1.395 . S
C1066 C1069 1.403 . S
H1067 C1073 0.930 . S
C1068 H1054 0.930 . S
C1068 C1066 1.395 . S
C1068 C1071 1.403 . S
C1069 C1066 1.403 . S
C1069 C1070 1.524 . S
C1069 C1073 1.400 . S
C1070 H1055 0.960 . S
C1070 H1056 0.960 . S
C1070 H1057 0.960 . S
C1070 C1069 1.524 . S
C1071 C1068 1.403 . S
C1071 C1072 1.392 . S
C1071 C1075 1.495 . S
C1072 C1071 1.392 . S
C1072 C1073 1.385 . S
C1072 C1074 1.478 . S
C1073 H1067 0.930 . S
C1073 C1069 1.400 . S
C1073 C1072 1.385 . S
C1074 C1072 1.478 . S
C1074 C1076 1.381 . S
C1074 C1080 1.383 . S
C1075 C1071 1.495 . S
C1075 H1081 0.959 . S
C1075 H1082 0.961 . S
C1075 H1083 0.960 . S
C1076 C1074 1.381 . S
C1076 C1077 1.394 . S
C1076 H1084 0.930 . S
C1077 C1076 1.394 . S
C1077 C1078 1.383 . S
C1077 H1085 0.929 . S
C1078 C1077 1.383 . S
C1078 C1079 1.377 . S
C1079 H1063 0.930 . S
C1079 C1078 1.377 . S
C1079 C1080 1.379 . S
C1080 H1064 0.931 . S
C1080 C1074 1.383 . S
C1080 C1079 1.379 . S
H1081 C1075 0.959 . S
H1082 C1075 0.961 . S
H1083 C1075 0.960 . S
H1084 C1076 0.930 . S
H1085 C1077 0.929 . S
H1086 C1094 0.929 . S
H1087 C1096 0.930 . S
H1088 C1098 0.930 . S
H1089 C1101 0.929 . S
H1090 C1104 0.930 . S
H1091 C1106 0.960 . S
H1092 C1106 0.960 . S
H1093 C1106 0.960 . S
C1094 H1086 0.929 . S
C1094 C1095 1.377 . S
C1094 C1096 1.384 . S
C1095 C1094 1.377 . S
C1095 C1101 1.390 . S
C1096 H1087 0.930 . S
C1096 C1094 1.384 . S
C1096 C1097 1.372 . S
C1097 C1096 1.372 . S
C1097 C1098 1.400 . S
C1097 C1102 1.490 . S
C1098 H1088 0.930 . S
C1098 C1097 1.400 . S
C1098 C1101 1.386 . S
H1099 C1115 0.930 . S
H1100 C1116 0.931 . S
C1101 H1089 0.929 . S
C1101 C1095 1.390 . S
C1101 C1098 1.386 . S
C1102 C1097 1.490 . S
C1102 C1104 1.395 . S
C1102 C1105 1.403 . S
H1103 C1109 0.930 . S
C1104 H1090 0.930 . S
C1104 C1102 1.395 . S
C1104 C1107 1.403 . S
C1105 C1102 1.403 . S
C1105 C1106 1.524 . S
C1105 C1109 1.400 . S
C1106 H1091 0.960 . S
C1106 H1092 0.960 . S
C1106 H1093 0.960 . S
C1106 C1105 1.524 . S
C1107 C1104 1.403 . S
C1107 C1108 1.392 . S
C1107 C1111 1.495 . S
C1108 C1107 1.392 . S
C1108 C1109 1.385 . S
C1108 C1110 1.478 . S
C1109 H1103 0.930 . S
C1109 C1105 1.400 . S
C1109 C1108 1.385 . S
C1110 C1108 1.478 . S
C1110 C1112 1.381 . S
C1110 C1116 1.383 . S
C1111 C1107 1.495 . S
C1111 H1117 0.959 . S
C1111 H1118 0.961 . S
C1111 H1119 0.960 . S
C1112 C1110 1.381 . S
C1112 C1113 1.394 . S
C1112 H1120 0.930 . S
C1113 C1112 1.394 . S
C1113 C1114 1.383 . S
C1113 H1121 0.929 . S
C1114 C1113 1.383 . S
C1114 C1115 1.377 . S
C1115 H1099 0.930 . S
C1115 C1114 1.377 . S
C1115 C1116 1.379 . S
C1116 H1100 0.931 . S
C1116 C1110 1.383 . S
C1116 C1115 1.379 . S
H1117 C1111 0.959 . S
H1118 C1111 0.961 . S
H1119 C1111 0.960 . S
H1120 C1112 0.930 . S
H1121 C1113 0.929 . S
H1122 C1130 0.929 . S
H1123 C1132 0.930 . S
H1124 C1134 0.930 . S
H1125 C1137 0.929 . S
H1126 C1140 0.930 . S
H1127 C1142 0.960 . S
H1128 C1142 0.960 . S
H1129 C1142 0.960 . S
C1130 H1122 0.929 . S
C1130 C1131 1.377 . S
C1130 C1132 1.384 . S
C1131 C1130 1.377 . S
C1131 C1137 1.390 . S
C1132 H1123 0.930 . S
C1132 C1130 1.384 . S
C1132 C1133 1.372 . S
C1133 C1132 1.372 . S
C1133 C1134 1.400 . S
C1133 C1138 1.490 . S
C1134 H1124 0.930 . S
C1134 C1133 1.400 . S
C1134 C1137 1.386 . S
H1135 C1151 0.930 . S
H1136 C1152 0.931 . S
C1137 H1125 0.929 . S
C1137 C1131 1.390 . S
C1137 C1134 1.386 . S
C1138 C1133 1.490 . S
C1138 C1140 1.395 . S
C1138 C1141 1.403 . S
H1139 C1145 0.930 . S
C1140 H1126 0.930 . S
C1140 C1138 1.395 . S
C1140 C1143 1.403 . S
C1141 C1138 1.403 . S
C1141 C1142 1.524 . S
C1141 C1145 1.400 . S
C1142 H1127 0.960 . S
C1142 H1128 0.960 . S
C1142 H1129 0.960 . S
C1142 C1141 1.524 . S
C1143 C1140 1.403 . S
C1143 C1144 1.392 . S
C1143 C1147 1.495 . S
C1144 C1143 1.392 . S
C1144 C1145 1.385 . S
C1144 C1146 1.478 . S
C1145 H1139 0.930 . S
C1145 C1141 1.400 . S
C1145 C1144 1.385 . S
C1146 C1144 1.478 . S
C1146 C1148 1.381 . S
C1146 C1152 1.383 . S
C1147 C1143 1.495 . S
C1147 H1153 0.959 . S
C1147 H1154 0.961 . S
C1147 H1155 0.960 . S
C1148 C1146 1.381 . S
C1148 C1149 1.394 . S
C1148 H1156 0.930 . S
C1149 C1148 1.394 . S
C1149 C1150 1.383 . S
C1149 H1157 0.929 . S
C1150 C1149 1.383 . S
C1150 C1151 1.377 . S
C1151 H1135 0.930 . S
C1151 C1150 1.377 . S
C1151 C1152 1.379 . S
C1152 H1136 0.931 . S
C1152 C1146 1.383 . S
C1152 C1151 1.379 . S
H1153 C1147 0.959 . S
H1154 C1147 0.961 . S
H1155 C1147 0.960 . S
H1156 C1148 0.930 . S
H1157 C1149 0.929 . S
H1158 C1166 0.929 . S
H1159 C1168 0.930 . S
H1160 C1170 0.930 . S
H1161 C1173 0.929 . S
H1162 C1176 0.930 . S
H1163 C1178 0.960 . S
H1164 C1178 0.960 . S
H1165 C1178 0.960 . S
C1166 H1158 0.929 . S
C1166 C1167 1.377 . S
C1166 C1168 1.384 . S
C1167 C1166 1.377 . S
C1167 C1173 1.390 . S
C1168 H1159 0.930 . S
C1168 C1166 1.384 . S
C1168 C1169 1.372 . S
C1169 C1168 1.372 . S
C1169 C1170 1.400 . S
C1169 C1174 1.490 . S
C1170 H1160 0.930 . S
C1170 C1169 1.400 . S
C1170 C1173 1.386 . S
H1171 C1187 0.930 . S
H1172 C1188 0.931 . S
C1173 H1161 0.929 . S
C1173 C1167 1.390 . S
C1173 C1170 1.386 . S
C1174 C1169 1.490 . S
C1174 C1176 1.395 . S
C1174 C1177 1.403 . S
H1175 C1181 0.930 . S
C1176 H1162 0.930 . S
C1176 C1174 1.395 . S
C1176 C1179 1.403 . S
C1177 C1174 1.403 . S
C1177 C1178 1.524 . S
C1177 C1181 1.400 . S
C1178 H1163 0.960 . S
C1178 H1164 0.960 . S
C1178 H1165 0.960 . S
C1178 C1177 1.524 . S
C1179 C1176 1.403 . S
C1179 C1180 1.392 . S
C1179 C1183 1.495 . S
C1180 C1179 1.392 . S
C1180 C1181 1.385 . S
C1180 C1182 1.478 . S
C1181 H1175 0.930 . S
C1181 C1177 1.400 . S
C1181 C1180 1.385 . S
C1182 C1180 1.478 . S
C1182 C1184 1.381 . S
C1182 C1188 1.383 . S
C1183 C1179 1.495 . S
C1183 H1189 0.959 . S
C1183 H1190 0.961 . S
C1183 H1191 0.960 . S
C1184 C1182 1.381 . S
C1184 C1185 1.394 . S
C1184 H1192 0.930 . S
C1185 C1184 1.394 . S
C1185 C1186 1.383 . S
C1185 H1193 0.929 . S
C1186 C1185 1.383 . S
C1186 C1187 1.377 . S
C1187 H1171 0.930 . S
C1187 C1186 1.377 . S
C1187 C1188 1.379 . S
C1188 H1172 0.931 . S
C1188 C1182 1.383 . S
C1188 C1187 1.379 . S
H1189 C1183 0.959 . S
H1190 C1183 0.961 . S
H1191 C1183 0.960 . S
H1192 C1184 0.930 . S
H1193 C1185 0.929 . S
H1194 C1202 0.929 . S
H1195 C1204 0.930 . S
H1196 C1206 0.930 . S
H1197 C1209 0.929 . S
H1198 C1212 0.930 . S
H1199 C1214 0.960 . S
H1200 C1214 0.960 . S
H1201 C1214 0.960 . S
C1202 H1194 0.929 . S
C1202 C1203 1.377 . S
C1202 C1204 1.384 . S
C1203 C1202 1.377 . S
C1203 C1209 1.390 . S
C1204 H1195 0.930 . S
C1204 C1202 1.384 . S
C1204 C1205 1.372 . S
C1205 C1204 1.372 . S
C1205 C1206 1.400 . S
C1205 C1210 1.490 . S
C1206 H1196 0.930 . S
C1206 C1205 1.400 . S
C1206 C1209 1.386 . S
H1207 C1223 0.930 . S
H1208 C1224 0.931 . S
C1209 H1197 0.929 . S
C1209 C1203 1.390 . S
C1209 C1206 1.386 . S
C1210 C1205 1.490 . S
C1210 C1212 1.395 . S
C1210 C1213 1.403 . S
H1211 C1217 0.930 . S
C1212 H1198 0.930 . S
C1212 C1210 1.395 . S
C1212 C1215 1.403 . S
C1213 C1210 1.403 . S
C1213 C1214 1.524 . S
C1213 C1217 1.400 . S
C1214 H1199 0.960 . S
C1214 H1200 0.960 . S
C1214 H1201 0.960 . S
C1214 C1213 1.524 . S
C1215 C1212 1.403 . S
C1215 C1216 1.392 . S
C1215 C1219 1.495 . S
C1216 C1215 1.392 . S
C1216 C1217 1.385 . S
C1216 C1218 1.478 . S
C1217 H1211 0.930 . S
C1217 C1213 1.400 . S
C1217 C1216 1.385 . S
C1218 C1216 1.478 . S
C1218 C1220 1.381 . S
C1218 C1224 1.383 . S
C1219 C1215 1.495 . S
C1219 H1225 0.959 . S
C1219 H1226 0.961 . S
C1219 H1227 0.960 . S
C1220 C1218 1.381 . S
C1220 C1221 1.394 . S
C1220 H1228 0.930 . S
C1221 C1220 1.394 . S
C1221 C1222 1.383 . S
C1221 H1229 0.929 . S
C1222 C1221 1.383 . S
C1222 C1223 1.377 . S
C1223 H1207 0.930 . S
C1223 C1222 1.377 . S
C1223 C1224 1.379 . S
C1224 H1208 0.931 . S
C1224 C1218 1.383 . S
C1224 C1223 1.379 . S
H1225 C1219 0.959 . S
H1226 C1219 0.961 . S
H1227 C1219 0.960 . S
H1228 C1220 0.930 . S
H1229 C1221 0.929 . S
H1230 C1238 0.929 . S
H1231 C1240 0.930 . S
H1232 C1242 0.930 . S
H1233 C1245 0.929 . S
H1234 C1248 0.930 . S
H1235 C1250 0.960 . S
H1236 C1250 0.960 . S
H1237 C1250 0.960 . S
C1238 H1230 0.929 . S
C1238 C1239 1.377 . S
C1238 C1240 1.384 . S
C1239 C1238 1.377 . S
C1239 C1245 1.390 . S
C1240 H1231 0.930 . S
C1240 C1238 1.384 . S
C1240 C1241 1.372 . S
C1241 C1240 1.372 . S
C1241 C1242 1.400 . S
C1241 C1246 1.490 . S
C1242 H1232 0.930 . S
C1242 C1241 1.400 . S
C1242 C1245 1.386 . S
H1243 C1259 0.930 . S
H1244 C1260 0.931 . S
C1245 H1233 0.929 . S
C1245 C1239 1.390 . S
C1245 C1242 1.386 . S
C1246 C1241 1.490 . S
C1246 C1248 1.395 . S
C1246 C1249 1.403 . S
H1247 C1253 0.930 . S
C1248 H1234 0.930 . S
C1248 C1246 1.395 . S
C1248 C1251 1.403 . S
C1249 C1246 1.403 . S
C1249 C1250 1.524 . S
C1249 C1253 1.400 . S
C1250 H1235 0.960 . S
C1250 H1236 0.960 . S
C1250 H1237 0.960 . S
C1250 C1249 1.524 . S
C1251 C1248 1.403 . S
C1251 C1252 1.392 . S
C1251 C1255 1.495 . S
C1252 C1251 1.392 . S
C1252 C1253 1.385 . S
C1252 C1254 1.478 . S
C1253 H1247 0.930 . S
C1253 C1249 1.400 . S
C1253 C1252 1.385 . S
C1254 C1252 1.478 . S
C1254 C1256 1.381 . S
C1254 C1260 1.383 . S
C1255 C1251 1.495 . S
C1255 H1261 0.959 . S
C1255 H1262 0.961 . S
C1255 H1263 0.960 . S
C1256 C1254 1.381 . S
C1256 C1257 1.394 . S
C1256 H1264 0.930 . S
C1257 C1256 1.394 . S
C1257 C1258 1.383 . S
C1257 H1265 0.929 . S
C1258 C1257 1.383 . S
C1258 C1259 1.377 . S
C1259 H1243 0.930 . S
C1259 C1258 1.377 . S
C1259 C1260 1.379 . S
C1260 H1244 0.931 . S
C1260 C1254 1.383 . S
C1260 C1259 1.379 . S
H1261 C1255 0.959 . S
H1262 C1255 0.961 . S
H1263 C1255 0.960 . S
H1264 C1256 0.930 . S
H1265 C1257 0.929 . S
C411 C39 1.712 . S
C430 C319 1.703 . S
C447 C91 1.720 . S
C466 C344 1.698 . S
C502 C347 1.554 . S
C483 C128 1.564 . S
C538 C373 1.507 . S
C519 C188 1.531 . S
C574 C374 1.641 . S
C555 C250 1.649 . S
C610 C401 1.661 . S
C591 C304 1.673 . S
C627 C75 1.582 . S
C646 C346 1.560 . S
C663 C144 1.703 . S
C682 C372 1.679 . S
C718 C375 1.639 . S
C699 C198 1.666 . S
C754 C400 1.480 . S
C735 C234 1.510 . S
C771 C294 1.520 . S
C790 C318 1.511 . S
C826 C345 1.544 . S
C807 C29 1.556 . S
C862 C360 1.678 . S
C843 C38 1.711 . S
C879 C92 1.721 . S
C898 C387 1.689 . S
C934 C388 1.543 . S
C915 C135 1.562 . S
C951 C181 1.530 . S
C970 C330 1.494 . S
C987 C251 1.647 . S
C1006 C333 1.622 . S
C1023 C303 1.673 . S
C1042 C358 1.654 . S
C1059 C82 1.582 . S
C1078 C389 1.550 . S
C1114 C331 1.677 . S
C1095 C145 1.703 . S
C1131 C197 1.665 . S
C1150 C332 1.634 . S
C1167 C241 1.511 . S
C1186 C359 1.505 . S
C1203 C287 1.520 . S
C1222 C361 1.506 . S
C1239 C22 1.556 . S
C1258 C386 1.552 . S
