# Generated by pormake.
# Topology ocu, (6,8)-cn, num edge types: 1
# Building blocks:
#     Node 0, Type 0, BuildingBlock: HISSIN_clean_sbu_0, # of connection points: 6
#     Node 1, Type 0, BuildingBlock: HISSIN_clean_sbu_0, # of connection points: 6
#     Node 2, Type 0, BuildingBlock: HISSIN_clean_sbu_0, # of connection points: 6
#     Node 3, Type 0, BuildingBlock: HISSIN_clean_sbu_0, # of connection points: 6
#     Node 4, Type 0, BuildingBlock: HISSIN_clean_sbu_0, # of connection points: 6
#     Node 5, Type 0, BuildingBlock: HISSIN_clean_sbu_0, # of connection points: 6
#     Node 6, Type 0, BuildingBlock: HISSIN_clean_sbu_0, # of connection points: 6
#     Node 7, Type 0, BuildingBlock: HISSIN_clean_sbu_0, # of connection points: 6
#     Node 8, Type 1, BuildingBlock: VETTIZ_charged_sbu_0, # of connection points: 8
#     Node 9, Type 1, BuildingBlock: VETTIZ_charged_sbu_0, # of connection points: 8
#     Node 10, Type 1, BuildingBlock: VETTIZ_charged_sbu_0, # of connection points: 8
#     Node 11, Type 1, BuildingBlock: VETTIZ_charged_sbu_0, # of connection points: 8
#     Node 12, Type 1, BuildingBlock: VETTIZ_charged_sbu_0, # of connection points: 8
#     Node 13, Type 1, BuildingBlock: VETTIZ_charged_sbu_0, # of connection points: 8
#     Edge 14, Type (0, 1), BuildingBlock: TEMPAE_clean_linker_10, # of connection points: 2
#     Edge 15, Type (0, 1), BuildingBlock: TEMPAE_clean_linker_10, # of connection points: 2
#     Edge 16, Type (0, 1), BuildingBlock: TEMPAE_clean_linker_10, # of connection points: 2
#     Edge 17, Type (0, 1), BuildingBlock: TEMPAE_clean_linker_10, # of connection points: 2
#     Edge 18, Type (0, 1), BuildingBlock: TEMPAE_clean_linker_10, # of connection points: 2
#     Edge 19, Type (0, 1), BuildingBlock: TEMPAE_clean_linker_10, # of connection points: 2
#     Edge 20, Type (0, 1), BuildingBlock: TEMPAE_clean_linker_10, # of connection points: 2
#     Edge 21, Type (0, 1), BuildingBlock: TEMPAE_clean_linker_10, # of connection points: 2
#     Edge 22, Type (0, 1), BuildingBlock: TEMPAE_clean_linker_10, # of connection points: 2
#     Edge 23, Type (0, 1), BuildingBlock: TEMPAE_clean_linker_10, # of connection points: 2
#     Edge 24, Type (0, 1), BuildingBlock: TEMPAE_clean_linker_10, # of connection points: 2
#     Edge 25, Type (0, 1), BuildingBlock: TEMPAE_clean_linker_10, # of connection points: 2
#     Edge 26, Type (0, 1), BuildingBlock: TEMPAE_clean_linker_10, # of connection points: 2
#     Edge 27, Type (0, 1), BuildingBlock: TEMPAE_clean_linker_10, # of connection points: 2
#     Edge 28, Type (0, 1), BuildingBlock: TEMPAE_clean_linker_10, # of connection points: 2
#     Edge 29, Type (0, 1), BuildingBlock: TEMPAE_clean_linker_10, # of connection points: 2
#     Edge 30, Type (0, 1), BuildingBlock: TEMPAE_clean_linker_10, # of connection points: 2
#     Edge 31, Type (0, 1), BuildingBlock: TEMPAE_clean_linker_10, # of connection points: 2
#     Edge 32, Type (0, 1), BuildingBlock: TEMPAE_clean_linker_10, # of connection points: 2
#     Edge 33, Type (0, 1), BuildingBlock: TEMPAE_clean_linker_10, # of connection points: 2
#     Edge 34, Type (0, 1), BuildingBlock: TEMPAE_clean_linker_10, # of connection points: 2
#     Edge 35, Type (0, 1), BuildingBlock: TEMPAE_clean_linker_10, # of connection points: 2
#     Edge 36, Type (0, 1), BuildingBlock: TEMPAE_clean_linker_10, # of connection points: 2
#     Edge 37, Type (0, 1), BuildingBlock: TEMPAE_clean_linker_10, # of connection points: 2
#     Edge 38, Type (0, 1), BuildingBlock: TEMPAE_clean_linker_10, # of connection points: 2
#     Edge 39, Type (0, 1), BuildingBlock: TEMPAE_clean_linker_10, # of connection points: 2
#     Edge 40, Type (0, 1), BuildingBlock: TEMPAE_clean_linker_10, # of connection points: 2
#     Edge 41, Type (0, 1), BuildingBlock: TEMPAE_clean_linker_10, # of connection points: 2
#     Edge 42, Type (0, 1), BuildingBlock: TEMPAE_clean_linker_10, # of connection points: 2
#     Edge 43, Type (0, 1), BuildingBlock: TEMPAE_clean_linker_10, # of connection points: 2
#     Edge 44, Type (0, 1), BuildingBlock: TEMPAE_clean_linker_10, # of connection points: 2
#     Edge 45, Type (0, 1), BuildingBlock: TEMPAE_clean_linker_10, # of connection points: 2
#     Edge 46, Type (0, 1), BuildingBlock: TEMPAE_clean_linker_10, # of connection points: 2
#     Edge 47, Type (0, 1), BuildingBlock: TEMPAE_clean_linker_10, # of connection points: 2
#     Edge 48, Type (0, 1), BuildingBlock: TEMPAE_clean_linker_10, # of connection points: 2
#     Edge 49, Type (0, 1), BuildingBlock: TEMPAE_clean_linker_10, # of connection points: 2
#     Edge 50, Type (0, 1), BuildingBlock: TEMPAE_clean_linker_10, # of connection points: 2
#     Edge 51, Type (0, 1), BuildingBlock: TEMPAE_clean_linker_10, # of connection points: 2
#     Edge 52, Type (0, 1), BuildingBlock: TEMPAE_clean_linker_10, # of connection points: 2
#     Edge 53, Type (0, 1), BuildingBlock: TEMPAE_clean_linker_10, # of connection points: 2
#     Edge 54, Type (0, 1), BuildingBlock: TEMPAE_clean_linker_10, # of connection points: 2
#     Edge 55, Type (0, 1), BuildingBlock: TEMPAE_clean_linker_10, # of connection points: 2
#     Edge 56, Type (0, 1), BuildingBlock: TEMPAE_clean_linker_10, # of connection points: 2
#     Edge 57, Type (0, 1), BuildingBlock: TEMPAE_clean_linker_10, # of connection points: 2
#     Edge 58, Type (0, 1), BuildingBlock: TEMPAE_clean_linker_10, # of connection points: 2
#     Edge 59, Type (0, 1), BuildingBlock: TEMPAE_clean_linker_10, # of connection points: 2
#     Edge 60, Type (0, 1), BuildingBlock: TEMPAE_clean_linker_10, # of connection points: 2
#     Edge 61, Type (0, 1), BuildingBlock: TEMPAE_clean_linker_10, # of connection points: 2
# Relax obj value: 0.109
# Max RMSD: 0.183
# Mean RMSD: 0.130
data_MOF--net-ocu--node1-HISSIN_clean_sbu_0--node2-VETTIZ_charged_sbu_0--edge1-TEMPAE_clean_linker_10
_symmetry_space_group_name_H-M    P1
_symmetry_Int_Tables_number       1
_symmetry_cell_setting            triclinic
loop_
_symmetry_equiv_pos_as_xyz
'x, y, z'
_cell_length_a     41.729402
_cell_length_b     42.136792
_cell_length_c     41.49918
_cell_angle_alpha  100.3455
_cell_angle_beta   81.265942
_cell_angle_gamma 104.70075
loop_
_atom_site_label
_atom_site_type_symbol
_atom_site_fract_x
_atom_site_fract_y
_atom_site_fract_z
_atom_type_partial_charge
Eu0 Eu 0.29487 0.26599 0.28878 0.0
Eu1 Eu 0.24615 0.25697 0.23054 0.0
C2 C 0.22967 0.20865 0.28625 0.0
C3 C 0.34383 0.24017 0.34761 0.0
C4 C 0.32402 0.20996 0.35659 0.0
C5 C 0.39257 0.22491 0.36088 0.0
C6 C 0.3383 0.18764 0.36774 0.0
C7 C 0.37826 0.24726 0.34987 0.0
C8 C 0.37284 0.19476 0.37019 0.0
C9 C 0.32911 0.26477 0.33661 0.0
O10 O 0.2294 0.29875 0.26716 0.0
O11 O 0.25546 0.29783 0.31191 0.0
C12 C 0.23337 0.30837 0.29871 0.0
O13 O 0.32157 0.30915 0.26156 0.0
O14 O 0.19624 0.24528 0.2142 0.0
O15 O 0.23962 0.25745 0.17933 0.0
O16 O 0.28604 0.30325 0.22218 0.0
C17 C 0.31337 0.31853 0.2359 0.0
O18 O 0.32066 0.23602 0.24492 0.0
O19 O 0.28058 0.22011 0.20907 0.0
O20 O 0.21712 0.226 0.27021 0.0
O21 O 0.34267 0.27577 0.30908 0.0
O22 O 0.29668 0.25956 0.33958 0.0
O23 O 0.26197 0.21426 0.28574 0.0
C24 C 0.19205 0.27591 0.17267 0.0
C25 C 0.20503 0.3104 0.17846 0.0
C26 C 0.15037 0.28529 0.14232 0.0
C27 C 0.19099 0.3321 0.16604 0.0
C28 C 0.16448 0.26364 0.15469 0.0
C29 C 0.16353 0.3199 0.14755 0.0
C30 C 0.20729 0.25254 0.1847 0.0
C31 C 0.30994 0.21866 0.21707 0.0
H32 H 0.29738 0.20357 0.35524 0.0
H33 H 0.41927 0.23122 0.36176 0.0
H34 H 0.32206 0.16501 0.37499 0.0
H35 H 0.39423 0.27025 0.34314 0.0
H36 H 0.22629 0.32056 0.19231 0.0
H37 H 0.12895 0.27482 0.1288 0.0
H38 H 0.20217 0.35843 0.17036 0.0
H39 H 0.15388 0.23719 0.15003 0.0
Eu40 Eu 0.78483 0.2287 0.25998 0.0
Eu41 Eu 0.7426 0.28595 0.26379 0.0
C42 C 0.80161 0.29692 0.30959 0.0
C43 C 0.82439 0.16784 0.28932 0.0
C44 C 0.82808 0.18503 0.32136 0.0
C45 C 0.83442 0.11931 0.30671 0.0
C46 C 0.83543 0.16964 0.3457 0.0
C47 C 0.82729 0.13479 0.28233 0.0
C48 C 0.83895 0.13665 0.33862 0.0
C49 C 0.81753 0.18393 0.26304 0.0
O50 O 0.77574 0.28756 0.2152 0.0
O51 O 0.81658 0.26502 0.2266 0.0
C52 C 0.80629 0.28302 0.20918 0.0
O53 O 0.75572 0.21119 0.21552 0.0
O54 O 0.74008 0.33581 0.25754 0.0
O55 O 0.69536 0.30123 0.27416 0.0
O56 O 0.71506 0.24052 0.23244 0.0
C57 C 0.72637 0.21642 0.21312 0.0
O58 O 0.73542 0.21183 0.28973 0.0
O59 O 0.72397 0.26225 0.3106 0.0
O60 O 0.78819 0.31092 0.29081 0.0
O61 O 0.78675 0.1767 0.25642 0.0
O62 O 0.83137 0.21544 0.26345 0.0
O63 O 0.79539 0.26444 0.30712 0.0
C64 C 0.68911 0.3392 0.24029 0.0
C65 C 0.6595 0.31822 0.22941 0.0
C66 C 0.68286 0.38032 0.20859 0.0
C67 C 0.64169 0.3283 0.20852 0.0
C68 C 0.70053 0.37032 0.22957 0.0
C69 C 0.653 0.35961 0.19793 0.0
C70 C 0.70767 0.3297 0.26362 0.0
C71 C 0.71907 0.23027 0.31158 0.0
H72 H 0.82554 0.21044 0.32752 0.0
H73 H 0.83729 0.09403 0.3003 0.0
H74 H 0.83837 0.18359 0.3701 0.0
H75 H 0.8244 0.12102 0.25784 0.0
H76 H 0.64982 0.29409 0.23723 0.0
H77 H 0.69283 0.40431 0.20054 0.0
H78 H 0.61871 0.31174 0.20119 0.0
H79 H 0.72319 0.38708 0.23754 0.0
Eu80 Eu 0.77602 0.78594 0.23323 0.0
Eu81 Eu 0.77206 0.73909 0.2892 0.0
C82 C 0.72353 0.71628 0.23208 0.0
C83 C 0.75244 0.83943 0.17818 0.0
C84 C 0.72074 0.82104 0.17018 0.0
C85 C 0.74056 0.88816 0.16282 0.0
C86 C 0.69937 0.83601 0.15822 0.0
C87 C 0.76197 0.87315 0.17456 0.0
C88 C 0.70905 0.86975 0.15421 0.0
C89 C 0.7762 0.82395 0.18952 0.0
O90 O 0.81595 0.72759 0.25107 0.0
O91 O 0.80609 0.74719 0.20636 0.0
C92 C 0.82136 0.72887 0.21892 0.0
O93 O 0.82164 0.80805 0.26086 0.0
O94 O 0.75203 0.69652 0.31612 0.0
O95 O 0.79774 0.73203 0.32821 0.0
O96 O 0.79467 0.79179 0.30882 0.0
C97 C 0.81887 0.81148 0.29316 0.0
O98 O 0.74002 0.80585 0.27578 0.0
O99 O 0.73054 0.76769 0.31171 0.0
O100 O 0.74206 0.70661 0.24951 0.0
O101 O 0.78506 0.83539 0.219 0.0
O102 O 0.77147 0.79173 0.18298 0.0
O103 O 0.72732 0.74782 0.23045 0.0
C104 C 0.79328 0.67762 0.33754 0.0
C105 C 0.80082 0.67644 0.36899 0.0
C106 C 0.82309 0.63411 0.31519 0.0
C107 C 0.81961 0.65479 0.37358 0.0
C108 C 0.80446 0.65622 0.31058 0.0
C109 C 0.83123 0.63326 0.34682 0.0
C110 C 0.77723 0.70406 0.33361 0.0
C111 C 0.72444 0.79463 0.30334 0.0
H112 H 0.71252 0.79504 0.17292 0.0
H113 H 0.74906 0.91405 0.1597 0.0
H114 H 0.67517 0.82116 0.15221 0.0
H115 H 0.78627 0.88786 0.18046 0.0
H116 H 0.79308 0.6932 0.39005 0.0
H117 H 0.83128 0.61791 0.29394 0.0
H118 H 0.82595 0.65589 0.39816 0.0
H119 H 0.79941 0.65707 0.28594 0.0
Eu120 Eu 0.30029 0.71334 0.25529 0.0
Eu121 Eu 0.25267 0.76372 0.26352 0.0
C122 C 0.23565 0.69422 0.21542 0.0
C123 C 0.37702 0.68573 0.25895 0.0
C124 C 0.39436 0.7191 0.2602 0.0
C125 C 0.42919 0.66923 0.25114 0.0
C126 C 0.4291 0.72721 0.25444 0.0
C127 C 0.39452 0.66115 0.25664 0.0
C128 C 0.44664 0.7019 0.24682 0.0
C129 C 0.34137 0.6764 0.25579 0.0
O130 O 0.23542 0.73423 0.30691 0.0
O131 O 0.25215 0.68763 0.28169 0.0
C132 C 0.23389 0.70233 0.30521 0.0
O133 O 0.31559 0.75298 0.29866 0.0
O134 O 0.2258 0.79882 0.29313 0.0
O135 O 0.21981 0.78385 0.24101 0.0
O136 O 0.29825 0.79563 0.28556 0.0
C137 C 0.31687 0.78484 0.3018 0.0
O138 O 0.3313 0.75369 0.22628 0.0
O139 O 0.28921 0.77624 0.21832 0.0
O140 O 0.22396 0.7162 0.2373 0.0
O141 O 0.32235 0.68565 0.28186 0.0
O142 O 0.33325 0.68248 0.22869 0.0
O143 O 0.26656 0.6914 0.21443 0.0
C144 C 0.2147 0.83821 0.26425 0.0
C145 C 0.20231 0.84465 0.23705 0.0
C146 C 0.21651 0.89472 0.29035 0.0
C147 C 0.19538 0.87543 0.23734 0.0
C148 C 0.22371 0.86415 0.2899 0.0
C149 C 0.19995 0.89987 0.26523 0.0
C150 C 0.21346 0.80376 0.26783 0.0
C151 C 0.32028 0.77321 0.21139 0.0
H152 H 0.38096 0.7385 0.26278 0.0
H153 H 0.44161 0.64893 0.246 0.0
H154 H 0.44179 0.75268 0.25219 0.0
H155 H 0.38139 0.63538 0.25631 0.0
H156 H 0.19559 0.82515 0.21668 0.0
H157 H 0.2205 0.91276 0.31236 0.0
H158 H 0.18338 0.87887 0.21725 0.0
H159 H 0.23376 0.86014 0.31102 0.0
Eu160 Eu 0.28686 0.72771 0.75456 0.0
Eu161 Eu 0.24443 0.78505 0.75832 0.0
C162 C 0.30365 0.7973 0.80457 0.0
C163 C 0.34038 0.67555 0.77931 0.0
C164 C 0.36607 0.69915 0.79467 0.0
C165 C 0.3506 0.63393 0.80792 0.0
C166 C 0.38403 0.69012 0.81617 0.0
C167 C 0.33283 0.64292 0.78631 0.0
C168 C 0.37671 0.65728 0.823 0.0
C169 C 0.32168 0.6841 0.75555 0.0
O170 O 0.29318 0.80145 0.72734 0.0
O171 O 0.30528 0.75099 0.70753 0.0
C172 C 0.30975 0.78281 0.70594 0.0
O173 O 0.24134 0.70258 0.72751 0.0
O174 O 0.24203 0.83703 0.76414 0.0
O175 O 0.19809 0.79845 0.75392 0.0
O176 O 0.2332 0.74887 0.71145 0.0
C177 C 0.22752 0.71638 0.70889 0.0
O178 O 0.25405 0.72692 0.80335 0.0
O179 O 0.21277 0.7484 0.79136 0.0
O180 O 0.2741 0.80234 0.80257 0.0
O181 O 0.2893 0.67815 0.76195 0.0
O182 O 0.33393 0.71214 0.74417 0.0
O183 O 0.31495 0.77343 0.78492 0.0
C184 C 0.20443 0.84874 0.73301 0.0
C185 C 0.21853 0.84496 0.7 0.0
C186 C 0.17576 0.88797 0.72064 0.0
C187 C 0.21111 0.86247 0.67739 0.0
C188 C 0.18321 0.87052 0.74315 0.0
C189 C 0.18937 0.88403 0.68736 0.0
C190 C 0.21138 0.83022 0.75719 0.0
C191 C 0.2233 0.73086 0.80907 0.0
H192 H 0.37252 0.72459 0.78992 0.0
H193 H 0.34359 0.60861 0.813 0.0
H194 H 0.40405 0.70881 0.82699 0.0
H195 H 0.31311 0.62425 0.77496 0.0
H196 H 0.23501 0.82825 0.69167 0.0
H197 H 0.15934 0.90466 0.72937 0.0
H198 H 0.22178 0.85851 0.65195 0.0
H199 H 0.17223 0.87394 0.76855 0.0
Eu200 Eu 0.26311 0.2749 0.73058 0.0
Eu201 Eu 0.26078 0.22783 0.78626 0.0
C202 C 0.2096 0.20785 0.732 0.0
C203 C 0.23913 0.33051 0.67961 0.0
C204 C 0.20966 0.33204 0.70067 0.0
C205 C 0.22575 0.36684 0.64684 0.0
C206 C 0.18828 0.35073 0.69474 0.0
C207 C 0.24709 0.34821 0.65282 0.0
C208 C 0.19588 0.36817 0.66754 0.0
C209 C 0.26159 0.31044 0.68519 0.0
O210 O 0.30326 0.21383 0.74827 0.0
O211 O 0.2958 0.23739 0.70493 0.0
C212 C 0.30996 0.21739 0.71668 0.0
O213 O 0.30079 0.30597 0.7643 0.0
O214 O 0.24949 0.17818 0.80065 0.0
O215 O 0.26448 0.22143 0.83653 0.0
O216 O 0.30726 0.26759 0.7943 0.0
C217 C 0.31551 0.29749 0.78618 0.0
O218 O 0.22819 0.29637 0.77224 0.0
O219 O 0.22255 0.26068 0.80979 0.0
O220 O 0.23019 0.1973 0.74597 0.0
O221 O 0.27848 0.32171 0.71045 0.0
O222 O 0.24936 0.27852 0.68281 0.0
O223 O 0.2127 0.2396 0.73301 0.0
C224 C 0.28182 0.17282 0.8411 0.0
C225 C 0.31402 0.19033 0.84838 0.0
C226 C 0.29227 0.12354 0.85668 0.0
C227 C 0.33491 0.17469 0.86013 0.0
C228 C 0.27131 0.13924 0.84516 0.0
C229 C 0.32425 0.14112 0.86463 0.0
C230 C 0.25865 0.18918 0.83004 0.0
C231 C 0.21496 0.28668 0.80094 0.0
H232 H 0.20303 0.31851 0.7215 0.0
H233 H 0.23273 0.38032 0.62598 0.0
H234 H 0.16541 0.35087 0.71103 0.0
H235 H 0.26979 0.34752 0.63639 0.0
H236 H 0.323 0.21619 0.84526 0.0
H237 H 0.28307 0.09779 0.86016 0.0
H238 H 0.3595 0.18889 0.86563 0.0
H239 H 0.24663 0.1252 0.83978 0.0
Eu240 Eu 0.77978 0.24107 0.75776 0.0
Eu241 Eu 0.73269 0.29179 0.7614 0.0
C242 C 0.71883 0.22169 0.71381 0.0
C243 C 0.84894 0.1964 0.763 0.0
C244 C 0.87548 0.20671 0.73929 0.0
C245 C 0.88431 0.17176 0.78742 0.0
C246 C 0.90566 0.19797 0.7386 0.0
C247 C 0.85407 0.18041 0.78801 0.0
C248 C 0.90967 0.17869 0.76153 0.0
C249 C 0.81497 0.19888 0.76053 0.0
O250 O 0.70107 0.25048 0.78866 0.0
O251 O 0.74425 0.23635 0.80497 0.0
C252 C 0.71228 0.23546 0.80803 0.0
O253 O 0.81037 0.28861 0.78123 0.0
O254 O 0.70008 0.31136 0.73761 0.0
O255 O 0.70683 0.32871 0.78907 0.0
O256 O 0.76868 0.31592 0.80025 0.0
C257 C 0.79929 0.31262 0.80046 0.0
O258 O 0.805 0.27254 0.71676 0.0
O259 O 0.77697 0.31468 0.72846 0.0
O260 O 0.72055 0.25354 0.71657 0.0
O261 O 0.80042 0.21426 0.78639 0.0
O262 O 0.80823 0.20505 0.73282 0.0
O263 O 0.73572 0.21063 0.73173 0.0
C264 C 0.65216 0.31449 0.77434 0.0
C265 C 0.6404 0.29717 0.80122 0.0
C266 C 0.59502 0.30866 0.76428 0.0
C267 C 0.60648 0.28754 0.81078 0.0
C268 C 0.6293 0.31877 0.75495 0.0
C269 C 0.58313 0.29496 0.79371 0.0
C270 C 0.68822 0.32589 0.76561 0.0
C271 C 0.80083 0.30138 0.71167 0.0
H272 H 0.87227 0.21954 0.72004 0.0
H273 H 0.88679 0.1572 0.80553 0.0
H274 H 0.92452 0.2035 0.71809 0.0
H275 H 0.83393 0.17265 0.80681 0.0
H276 H 0.65744 0.29218 0.81588 0.0
H277 H 0.57806 0.31349 0.74947 0.0
H278 H 0.59927 0.2769 0.8334 0.0
H279 H 0.63795 0.33069 0.73314 0.0
Eu280 Eu 0.78998 0.76071 0.78511 0.0
Eu281 Eu 0.73973 0.74735 0.72756 0.0
C282 C 0.72215 0.70015 0.78352 0.0
C283 C 0.84363 0.74029 0.84321 0.0
C284 C 0.84114 0.74063 0.87741 0.0
C285 C 0.87283 0.69537 0.83542 0.0
C286 C 0.85429 0.71872 0.8905 0.0
C287 C 0.85958 0.71728 0.82234 0.0
C288 C 0.87052 0.69576 0.86978 0.0
C289 C 0.82965 0.76412 0.83003 0.0
O290 O 0.71417 0.77644 0.77281 0.0
O291 O 0.75683 0.79866 0.80522 0.0
C292 C 0.72594 0.79682 0.79891 0.0
O293 O 0.81774 0.79468 0.74712 0.0
O294 O 0.69001 0.73735 0.71116 0.0
O295 O 0.73382 0.74873 0.67637 0.0
O296 O 0.77255 0.79845 0.72468 0.0
C297 C 0.80457 0.80781 0.72728 0.0
O298 O 0.80372 0.71603 0.75006 0.0
O299 O 0.78025 0.7176 0.704 0.0
O300 O 0.72013 0.70139 0.75245 0.0
O301 O 0.84015 0.76979 0.79993 0.0
O302 O 0.79771 0.76184 0.83658 0.0
O303 O 0.74403 0.72229 0.80051 0.0
C304 C 0.6869 0.7694 0.67005 0.0
C305 C 0.70709 0.7966 0.65561 0.0
C306 C 0.63785 0.78729 0.66143 0.0
C307 C 0.69285 0.81885 0.64433 0.0
C308 C 0.65211 0.76507 0.67274 0.0
C309 C 0.65796 0.81456 0.64699 0.0
C310 C 0.70157 0.74522 0.68191 0.0
C311 C 0.8011 0.70655 0.71821 0.0
H312 H 0.8289 0.75793 0.89415 0.0
H313 H 0.88537 0.67846 0.81851 0.0
H314 H 0.85133 0.71958 0.91699 0.0
H315 H 0.86198 0.71626 0.79585 0.0
H316 H 0.73397 0.80067 0.65279 0.0
H317 H 0.61095 0.78325 0.66438 0.0
H318 H 0.70927 0.83916 0.63299 0.0
H319 H 0.63582 0.74439 0.68365 0.0
Fe320 Fe 0.02186 0.08418 0.50643 0.0
O321 O 0.01735 0.03584 0.49476 0.0
Fe322 Fe 0.05803 0.01797 0.50122 0.0
Fe323 Fe 0.98097 1.0023 0.51598 0.0
O324 O 0.02082 0.03703 0.49498 0.0
O325 O 0.02158 0.9832 0.52078 0.0
O326 O 0.01816 0.98212 0.52075 0.0
Fe327 Fe 0.0178 0.93496 0.50625 0.0
C328 C 0.98605 0.06029 0.56969 0.0
O329 O 0.98028 0.07204 0.48171 0.0
O330 O 0.94655 0.028 0.50615 0.0
O331 O 0.05135 0.94097 0.46399 0.0
O332 O 0.05336 0.99196 0.45558 0.0
O333 O 0.09167 0.05632 0.47694 0.0
O334 O 0.05746 0.08741 0.46583 0.0
O335 O 0.97354 0.97493 0.47031 0.0
O336 O 0.97905 0.9257 0.47751 0.0
C337 C 0.08504 0.07743 0.46066 0.0
O338 O 0.05904 0.94538 0.5312 0.0
O339 O 0.0924 0.99261 0.5118 0.0
O340 O 0.98921 0.07996 0.54884 0.0
O341 O 0.98747 0.03016 0.56132 0.0
C342 C 0.95204 0.05102 0.48723 0.0
C343 C 0.96926 0.94385 0.46146 0.0
C344 C 0.95414 0.94006 0.55389 0.0
O345 O 0.94803 0.96407 0.54118 0.0
O346 O 0.98121 0.92909 0.54611 0.0
C347 C 0.05708 0.963 0.44511 0.0
O348 O 0.06341 0.04571 0.54701 0.0
O349 O 0.06138 0.09446 0.53481 0.0
C350 C 0.08715 0.96707 0.52748 0.0
C351 C 0.06983 0.07721 0.553 0.0
Fe352 Fe 0.51621 0.9657 1.0054 0.0
O353 O 0.54095 1.00611 0.98501 0.0
Fe354 Fe 0.44168 0.98993 0.04058 0.0
Fe355 Fe 0.58998 0.01963 0.97817 0.0
O356 O 0.49093 0.99883 0.03262 0.0
O357 O 0.49072 1.00342 0.03374 0.0
O358 O 0.54076 0.01065 0.98614 0.0
Fe359 Fe 0.51536 0.04374 0.01315 0.0
C360 C 0.58016 0.97846 0.03531 0.0
O361 O 0.54938 0.93702 0.97206 0.0
O362 O 0.58497 0.97639 0.94333 0.0
O363 O 0.48291 0.0335 0.97763 0.0
O364 O 0.43457 0.0192 0.00851 0.0
O365 O 0.43529 0.94961 1.00334 0.0
O366 O 0.48289 0.95308 0.96985 0.0
O367 O 0.58241 0.05227 0.94988 0.0
O368 O 0.5466 0.08062 0.98483 0.0
C369 C 0.45124 0.94275 0.97525 0.0
O370 O 0.48226 0.07254 0.04614 0.0
O371 O 0.44665 0.03348 0.0752 0.0
O372 O 0.54874 0.97556 0.04084 0.0
O373 O 0.59711 0.99017 0.01008 0.0
C374 C 0.57371 0.94564 0.94835 0.0
C375 C 0.56854 0.07738 0.95876 0.0
C376 C 0.5802 0.06712 0.04341 0.0
O377 O 0.59634 0.05982 0.01554 0.0
O378 O 0.54857 0.05673 0.04875 0.0
C379 C 0.4515 0.03065 0.98315 0.0
O380 O 0.44926 0.95729 0.06896 0.0
O381 O 0.4848 0.92879 0.03369 0.0
C382 C 0.45792 0.06416 0.06987 0.0
C383 C 0.46296 0.93206 0.05989 0.0
Fe384 Fe 0.01933 0.54596 0.01371 0.0
O385 O 0.98966 0.50626 0.03196 0.0
Fe386 Fe 0.09055 0.5146 0.98045 0.0
Fe387 Fe 0.94068 0.49774 0.03666 0.0
O388 O 0.04163 0.51045 0.98627 0.0
O389 O 0.0415 0.50576 0.98503 0.0
O390 O 0.9895 0.50165 0.03067 0.0
Fe391 Fe 1.01191 0.46615 1.00356 0.0
C392 C 0.96267 0.57013 0.06924 0.0
O393 O 0.98928 0.54173 0.97703 0.0
O394 O 0.93924 0.53097 1.00565 0.0
O395 O 0.04257 0.4345 0.97092 0.0
O396 O 0.08361 0.47213 0.94473 0.0
O397 O 0.08842 0.55009 0.95268 0.0
O398 O 0.05513 0.58154 0.98742 0.0
O399 O 0.93251 0.45928 0.99811 0.0
O400 O 0.98084 0.45841 0.96662 0.0
C401 C 0.07689 0.57676 0.96157 0.0
O402 O 0.04187 0.47091 0.04037 0.0
O403 O 0.09213 0.48219 0.01215 0.0
O404 O 0.98883 0.57757 0.04696 0.0
O405 O 0.94818 0.53954 0.07295 0.0
C406 C 0.95873 0.54309 0.9818 0.0
C407 C 0.94897 0.45124 0.97071 0.0
C408 C 0.95409 0.43521 0.05541 0.0
O409 O 0.94244 0.46179 0.06405 0.0
O410 O 0.97618 0.43051 0.02984 0.0
C411 C 0.06898 0.44168 0.94891 0.0
O412 O 0.09856 0.55364 0.01838 0.0
O413 O 0.0505 0.55321 0.05053 0.0
C414 C 0.07258 0.47016 0.03599 0.0
C415 C 0.08235 0.56084 0.04614 0.0
Fe416 Fe 0.51388 0.50804 0.972 0.0
O417 O 0.5494 0.52572 1.00248 0.0
Fe418 Fe 0.44021 0.50235 0.02467 0.0
Fe419 Fe 0.59365 0.51383 0.99393 0.0
O420 O 0.48463 0.49459 0.01232 0.0
O421 O 0.48494 0.49224 0.01517 0.0
O422 O 0.54969 0.52332 1.00532 0.0
Fe423 Fe 0.52003 0.51079 0.04579 0.0
C424 C 0.55035 0.45293 0.95655 0.0
O425 O 0.55031 0.52426 0.93289 0.0
O426 O 0.59962 0.54236 0.95665 0.0
O427 O 0.50895 0.55559 0.05111 0.0
O428 O 0.45385 0.54212 0.06191 0.0
O429 O 0.44657 0.53554 0.99205 0.0
O430 O 0.50087 0.55315 0.97695 0.0
O431 O 0.60473 0.55148 0.03338 0.0
O432 O 0.56082 0.53446 0.07257 0.0
C433 C 0.47078 0.55568 0.97846 0.0
O434 O 0.48363 0.49461 0.08503 0.0
O435 O 0.43576 0.47154 0.05964 0.0
O436 O 0.52401 0.46304 0.96561 0.0
O437 O 0.57924 0.4722 0.95884 0.0
C438 C 0.5816 0.54029 0.93306 0.0
C439 C 0.59011 0.5527 0.06361 0.0
C440 C 0.56203 0.46288 0.04178 0.0
O441 O 0.58682 0.48273 0.02872 0.0
O442 O 0.53234 0.46566 0.0419 0.0
C443 C 0.48192 0.56303 0.06394 0.0
O444 O 0.42974 0.46622 0.98375 0.0
O445 O 0.47328 0.48508 0.94506 0.0
C446 C 0.4539 0.47497 0.08343 0.0
C447 C 0.44438 0.46602 0.95359 0.0
Fe448 Fe 0.02497 0.43356 0.50852 0.0
O449 O 0.03044 0.48219 0.51261 0.0
Fe450 Fe 0.02334 0.49973 0.46977 0.0
Fe451 Fe 1.00691 0.51017 0.54949 0.0
O452 O 0.0329 0.48196 0.50809 0.0
O453 O 0.99925 0.52726 0.50653 0.0
O454 O 0.99676 0.5275 0.51113 0.0
Fe455 Fe 1.00476 0.57583 0.51009 0.0
C456 C 0.95936 0.44304 0.55302 0.0
O457 O 0.04964 0.44816 0.55024 0.0
O458 O 0.02394 0.48756 0.58343 0.0
O459 O 0.04638 0.58093 0.47605 0.0
O460 O 0.06769 0.53647 0.46975 0.0
O461 O 0.05259 0.46645 0.43692 0.0
O462 O 0.06616 0.43743 0.47291 0.0
O463 O 0.05143 0.5457 0.55225 0.0
O464 O 0.0347 0.59074 0.54873 0.0
C465 C 0.06957 0.44615 0.44388 0.0
O466 O 0.9792 0.56072 0.4692 0.0
O467 O 1.00629 0.52265 0.43566 0.0
O468 O 0.98208 0.42769 0.54098 0.0
O469 O 0.96251 0.47367 0.55091 0.0
C470 C 0.04329 0.46654 0.57809 0.0
C471 C 0.05471 0.57695 0.55836 0.0
C472 C 0.96153 0.56428 0.57571 0.0
O473 O 0.97847 0.54392 0.58251 0.0
O474 O 0.96442 0.5727 0.54663 0.0
C475 C 0.06971 0.56613 0.46504 0.0
O476 O 0.97906 0.46413 0.46625 0.0
O477 O 0.99614 0.4191 0.46896 0.0
C478 C 0.98638 0.54324 0.44102 0.0
C479 C 0.97596 0.43295 0.4597 0.0
Fe480 Fe 0.51535 0.96619 0.50369 0.0
O481 O 0.49189 0.9996 0.53299 0.0
Fe482 Fe 0.5479 0.00711 0.43572 0.0
Fe483 Fe 0.48434 1.00319 0.58169 0.0
O484 O 0.5405 0.00651 0.48359 0.0
O485 O 0.53999 0.01071 0.48436 0.0
O486 O 0.49141 1.00382 0.53378 0.0
Fe487 Fe 0.5165 0.04412 0.5136 0.0
C488 C 0.4583 0.9307 0.55341 0.0
O489 O 0.55071 0.97391 0.53579 0.0
O490 O 0.5179 0.97435 0.58341 0.0
O491 O 0.54796 0.08119 0.48644 0.0
O492 O 0.58072 0.05249 0.44761 0.0
O493 O 0.57897 0.97451 0.43644 0.0
O494 O 0.54566 0.93667 0.46844 0.0
O495 O 0.5212 0.04573 0.59262 0.0
O496 O 0.55269 0.05477 0.54536 0.0
C497 C 0.57126 0.94538 0.44613 0.0
O498 O 0.48118 0.03637 0.4814 0.0
O499 O 0.51419 0.03575 0.43383 0.0
O500 O 0.48379 0.92914 0.53079 0.0
O501 O 0.45132 0.95798 0.56987 0.0
C502 C 0.54389 0.96798 0.56544 0.0
C503 C 0.54836 0.05928 0.57673 0.0
C504 C 0.46084 0.06501 0.57163 0.0
O505 O 0.45339 0.0359 0.58131 0.0
O506 O 0.48618 0.07369 0.549 0.0
C507 C 0.57348 0.07974 0.46383 0.0
O508 O 0.51129 0.96442 0.42466 0.0
O509 O 0.47931 0.95544 0.47169 0.0
C510 C 0.48813 0.04217 0.45168 0.0
C511 C 0.48408 0.95065 0.44032 0.0
C512 C 0.17939 0.19434 0.32767 0.0
C513 C 0.20781 0.18598 0.30888 0.0
C514 C 0.16089 0.17561 0.35224 0.0
C515 C 0.17011 0.14688 0.35756 0.0
C516 C 0.19816 0.1377 0.33782 0.0
C517 C 0.21702 0.15769 0.31436 0.0
C518 C 0.13188 0.1871 0.37312 0.0
C519 C 0.20834 0.10676 0.34154 0.0
C520 C 0.13923 0.11484 0.44076 0.0
C521 C 0.10977 0.09127 0.43377 0.0
C522 C 0.1594 0.13266 0.41618 0.0
C523 C 0.15024 0.12651 0.38358 0.0
C524 C 0.12109 0.10176 0.37627 0.0
C525 C 0.10115 0.08479 0.40141 0.0
C526 C 0.18963 0.1593 0.42553 0.0
C527 C 0.11054 0.09367 0.34195 0.0
H528 H 0.17242 0.21648 0.32414 0.0
H529 H 0.23903 0.15109 0.30013 0.0
H530 H 0.10855 0.16767 0.37008 0.0
H531 H 0.13583 0.19127 0.39955 0.0
H532 H 0.12844 0.21041 0.36668 0.0
H533 H 0.22949 0.10193 0.32314 0.0
H534 H 0.21572 0.10908 0.36658 0.0
H535 H 0.18692 0.08497 0.33875 0.0
H536 H 0.14561 0.12052 0.46586 0.0
H537 H 0.07823 0.06683 0.39593 0.0
H538 H 0.18627 0.18379 0.4223 0.0
H539 H 0.21214 0.15495 0.40907 0.0
H540 H 0.19412 0.16041 0.45146 0.0
H541 H 0.10763 0.11631 0.33372 0.0
H542 H 0.08665 0.07471 0.34043 0.0
H543 H 0.13017 0.08438 0.32445 0.0
C544 C 0.87464 0.13871 0.38284 0.0
C545 C 0.84896 0.12092 0.36385 0.0
C546 C 0.88632 0.12369 0.40489 0.0
C547 C 0.87184 0.09003 0.40838 0.0
C548 C 0.84502 0.07227 0.39026 0.0
C549 C 0.83405 0.08784 0.36807 0.0
C550 C 0.91525 0.14352 0.42335 0.0
C551 C 0.82856 0.03655 0.39361 0.0
C552 C 0.93303 0.04861 0.43331 0.0
C553 C 0.92588 0.05252 0.46768 0.0
C554 C 0.91406 0.05854 0.41351 0.0
C555 C 0.88724 0.07294 0.42848 0.0
C556 C 0.87827 0.07453 0.46305 0.0
C557 C 0.89787 0.0644 0.48236 0.0
C558 C 0.92458 0.05613 0.37685 0.0
C559 C 0.84952 0.08916 0.47991 0.0
H560 H 0.88658 0.16411 0.37952 0.0
H561 H 0.81389 0.07404 0.35382 0.0
H562 H 0.90888 0.14266 0.45016 0.0
H563 H 0.93716 0.13249 0.41517 0.0
H564 H 0.92249 0.16989 0.41935 0.0
H565 H 0.80582 0.02732 0.38063 0.0
H566 H 0.8463 0.0207 0.38321 0.0
H567 H 0.8217 0.03366 0.42 0.0
H568 H 0.95488 0.03959 0.42203 0.0
H569 H 0.89263 0.06785 0.509 0.0
H570 H 0.93473 0.08142 0.37021 0.0
H571 H 0.90284 0.04434 0.36296 0.0
H572 H 0.94396 0.04163 0.36876 0.0
H573 H 0.85679 0.11652 0.48094 0.0
H574 H 0.84217 0.08343 0.50549 0.0
H575 H 0.82759 0.07975 0.46584 0.0
C576 C 0.87519 0.85062 0.30057 0.0
C577 C 0.84239 0.83712 0.31324 0.0
C578 C 0.89825 0.87134 0.32148 0.0
C579 C 0.88814 0.87873 0.3557 0.0
C580 C 0.85456 0.86659 0.36807 0.0
C581 C 0.83225 0.84605 0.34679 0.0
C582 C 0.93376 0.88404 0.30728 0.0
C583 C 0.84246 0.87391 0.40424 0.0
C584 C 0.94709 0.89383 0.42113 0.0
C585 C 0.95104 0.92794 0.43225 0.0
C586 C 0.92822 0.87794 0.395 0.0
C587 C 0.91278 0.8965 0.37942 0.0
C588 C 0.91783 0.9312 0.38952 0.0
C589 C 0.93687 0.94649 0.41577 0.0
C590 C 0.92352 0.8409 0.38512 0.0
C591 C 0.90196 0.95199 0.37359 0.0
H592 H 0.88321 0.84386 0.2747 0.0
H593 H 0.80681 0.83619 0.35679 0.0
H594 H 0.94232 0.91098 0.31589 0.0
H595 H 0.95029 0.87129 0.31603 0.0
H596 H 0.9367 0.87972 0.2799 0.0
H597 H 0.81509 0.86459 0.40949 0.0
H598 H 0.85504 0.8621 0.41889 0.0
H599 H 0.8489 0.901 0.41283 0.0
H600 H 0.95817 0.87924 0.43332 0.0
H601 H 0.93992 0.9729 0.4239 0.0
H602 H 0.92928 0.83478 0.35807 0.0
H603 H 0.89709 0.82843 0.39163 0.0
H604 H 0.93952 0.83055 0.39753 0.0
H605 H 0.90671 0.94669 0.34635 0.0
H606 H 0.91134 0.97897 0.38156 0.0
H607 H 0.87455 0.94557 0.38019 0.0
C608 C 0.19003 0.95415 0.29491 0.0
C609 C 0.17942 0.92493 0.27321 0.0
C610 C 0.16673 0.9676 0.31759 0.0
C611 C 0.1325 0.95186 0.31739 0.0
C612 C 0.12173 0.92785 0.29045 0.0
C613 C 0.14548 0.91448 0.26847 0.0
C614 C 0.17909 0.9948 0.34491 0.0
C615 C 0.08524 0.9122 0.28808 0.0
C616 C 0.09004 0.93216 0.40106 0.0
C617 C 0.07245 0.95703 0.41086 0.0
C618 C 0.10918 0.92998 0.37031 0.0
C619 C 0.11026 0.95299 0.34875 0.0
C620 C 0.091 0.97693 0.35775 0.0
C621 C 0.07246 0.97881 0.38883 0.0
C622 C 0.12925 0.90376 0.36145 0.0
C623 C 0.09101 1.00159 0.33549 0.0
H624 H 0.21638 0.96349 0.29743 0.0
H625 H 0.13677 0.89268 0.25098 0.0
H626 H 0.16266 0.01249 0.35124 0.0
H627 H 0.17883 0.98369 0.36729 0.0
H628 H 0.20497 0.00867 0.33807 0.0
H629 H 0.08066 0.90079 0.2624 0.0
H630 H 0.0769 0.89241 0.30398 0.0
H631 H 0.06988 0.93071 0.29673 0.0
H632 H 0.09014 0.91539 0.41802 0.0
H633 H 0.05864 0.99803 0.39619 0.0
H634 H 0.1562 0.9157 0.35733 0.0
H635 H 0.12209 0.8876 0.33823 0.0
H636 H 0.12557 0.88788 0.38099 0.0
H637 H 0.06809 0.01132 0.34132 0.0
H638 H 0.09311 0.99059 0.30911 0.0
H639 H 0.11275 0.02284 0.33917 0.0
C640 C 0.14665 0.90353 0.66417 0.0
C641 C 0.17984 0.90138 0.66306 0.0
C642 C 0.13672 0.91847 0.64087 0.0
C643 C 0.16048 0.93172 0.61559 0.0
C644 C 0.19422 0.93051 0.6148 0.0
C645 C 0.20348 0.91527 0.63842 0.0
C646 C 0.10041 0.91896 0.64266 0.0
C647 C 0.22039 0.94461 0.58852 0.0
C648 C 0.11983 0.92983 0.53933 0.0
C649 C 0.11412 0.96179 0.5438 0.0
C650 C 0.13726 0.92057 0.56111 0.0
C651 C 0.14899 0.94372 0.58845 0.0
C652 C 0.14553 0.97687 0.59164 0.0
C653 C 0.12813 0.98555 0.56917 0.0
C654 C 0.1405 0.88509 0.5564 0.0
C655 C 0.15767 1.00245 0.62026 0.0
H656 H 0.12806 0.89256 0.68275 0.0
H657 H 0.22927 0.91421 0.63758 0.0
H658 H 0.09792 0.94457 0.64276 0.0
H659 H 0.0897 0.90337 0.62055 0.0
H660 H 0.08546 0.90954 0.66496 0.0
H661 H 0.24594 0.94441 0.59294 0.0
H662 H 0.21528 0.9299 0.56408 0.0
H663 H 0.21948 0.97047 0.58737 0.0
H664 H 0.10875 0.91137 0.51985 0.0
H665 H 0.1232 0.0101 0.57307 0.0
H666 H 0.12378 0.87206 0.57583 0.0
H667 H 0.16634 0.88418 0.55883 0.0
H668 H 0.13377 0.87138 0.53197 0.0
H669 H 0.14024 0.99767 0.6428 0.0
H670 H 0.15898 0.02803 0.61588 0.0
H671 H 0.18262 1.00091 0.62507 0.0
C672 C 0.15429 0.18732 0.71031 0.0
C673 C 0.18703 0.18444 0.70975 0.0
C674 C 0.13377 0.16755 0.68683 0.0
C675 C 0.14679 0.14544 0.66133 0.0
C676 C 0.17987 0.14226 0.66096 0.0
C677 C 0.19938 0.16137 0.68558 0.0
C678 C 0.09824 0.17051 0.68915 0.0
C679 C 0.19534 0.12017 0.63353 0.0
C680 C 0.08962 0.07831 0.60761 0.0
C681 C 0.08918 0.0945 0.58096 0.0
C682 C 0.10769 0.09468 0.63425 0.0
C683 C 0.12676 0.12766 0.63373 0.0
C684 C 0.1269 0.14385 0.60656 0.0
C685 C 0.10772 0.1273 0.58084 0.0
C686 C 0.10627 0.07672 0.66299 0.0
C687 C 0.14766 0.1786 0.60442 0.0
H688 H 0.14481 0.20518 0.72907 0.0
H689 H 0.22497 0.15962 0.68484 0.0
H690 H 0.09375 0.17824 0.66638 0.0
H691 H 0.08124 0.14592 0.69147 0.0
H692 H 0.0918 0.1886 0.71062 0.0
H693 H 0.22085 0.11944 0.63756 0.0
H694 H 0.17967 0.09452 0.63111 0.0
H695 H 0.19675 0.12934 0.60978 0.0
H696 H 0.07544 0.05293 0.60787 0.0
H697 H 0.10786 0.13988 0.56019 0.0
H698 H 0.09865 0.09179 0.68636 0.0
H699 H 0.13133 0.07321 0.66486 0.0
H700 H 0.08858 0.052 0.66064 0.0
H701 H 0.13893 0.19621 0.62504 0.0
H702 H 0.14647 0.18701 0.58084 0.0
H703 H 0.17409 0.17979 0.60679 0.0
C704 C 0.96643 0.1725 0.73672 0.0
C705 C 0.9352 0.15884 0.75268 0.0
C706 C 0.98297 0.15242 0.71286 0.0
C707 C 0.96771 0.11832 0.70537 0.0
C708 C 0.94039 0.1036 0.72666 0.0
C709 C 0.92441 0.1242 0.75042 0.0
C710 C 1.01305 0.16893 0.69173 0.0
C711 C 0.9239 0.06713 0.72023 0.0
C712 C 0.95854 0.09429 0.61465 0.0
C713 C 0.98008 0.07303 0.60469 0.0
C714 C 0.95379 0.10837 0.64759 0.0
C715 C 0.97208 0.10188 0.67089 0.0
C716 C 0.99393 0.0803 0.66091 0.0
C717 C 0.99726 0.06561 0.62781 0.0
C718 C 0.92945 0.13056 0.6572 0.0
C719 C 1.01496 0.07397 0.68452 0.0
H720 H 0.97554 0.19924 0.7394 0.0
H721 H 0.90069 0.11324 0.76329 0.0
H722 H 0.02772 0.15102 0.67853 0.0
H723 H 1.00474 0.18011 0.67315 0.0
H724 H 0.02927 0.18925 0.70699 0.0
H725 H 0.90898 0.05832 0.74281 0.0
H726 H 0.90682 0.06299 0.70102 0.0
H727 H 0.9425 0.05198 0.71113 0.0
H728 H 0.94525 0.09976 0.59658 0.0
H729 H 1.01422 0.04934 0.61975 0.0
H730 H 0.94305 0.15639 0.66515 0.0
H731 H 0.91122 0.12232 0.67818 0.0
H732 H 0.91543 0.13071 0.63654 0.0
H733 H 0.03667 0.09537 0.68755 0.0
H734 H 0.02445 0.05127 0.67518 0.0
H735 H 1.00097 0.07163 0.70924 0.0
C736 C 0.81189 0.83985 0.67962 0.0
C737 C 0.82585 0.83177 0.70507 0.0
C738 C 0.8314 0.85922 0.65601 0.0
C739 C 0.86609 0.87183 0.6578 0.0
C740 C 0.88021 0.86495 0.68419 0.0
C741 C 0.86013 0.84482 0.70716 0.0
C742 C 0.81498 0.86495 0.62824 0.0
C743 C 0.91682 0.87828 0.68773 0.0
C744 C 0.92382 0.88858 0.57817 0.0
C745 C 0.92895 0.92302 0.57907 0.0
C746 C 0.90323 0.87184 0.60315 0.0
C747 C 0.88776 0.88985 0.63071 0.0
C748 C 0.8927 0.92471 0.63176 0.0
C749 C 0.91281 0.94076 0.60583 0.0
C750 C 0.89823 0.83469 0.60005 0.0
C751 C 0.87746 0.94522 0.66077 0.0
H752 H 0.78558 0.83006 0.67734 0.0
H753 H 0.87144 0.83897 0.72652 0.0
H754 H 0.82009 0.89184 0.62689 0.0
H755 H 0.8256 0.8529 0.60442 0.0
H756 H 0.78755 0.85488 0.63106 0.0
H757 H 0.92344 0.87382 0.7112 0.0
H758 H 0.93176 0.86623 0.66695 0.0
H759 H 0.924 0.90533 0.68668 0.0
H760 H 0.93614 0.87455 0.55772 0.0
H761 H 0.91702 0.96741 0.60719 0.0
H762 H 0.87122 0.82264 0.60142 0.0
H763 H 0.90811 0.82838 0.62082 0.0
H764 H 0.91082 0.82406 0.57656 0.0
H765 H 0.84994 0.93625 0.6635 0.0
H766 H 0.88381 0.97198 0.65827 0.0
H767 H 0.88632 0.9424 0.68377 0.0
C768 C 0.32282 0.17684 0.1646 0.0
C769 C 0.33223 0.19699 0.19442 0.0
C770 C 0.34364 0.15699 0.14392 0.0
C771 C 0.37555 0.15654 0.1523 0.0
C772 C 0.38523 0.17703 0.18222 0.0
C773 C 0.36394 0.1965 0.20244 0.0
C774 C 0.33118 0.13604 0.11289 0.0
C775 C 0.41841 0.1783 0.1932 0.0
C776 C 0.41484 0.07978 0.1181 0.0
C777 C 0.43918 0.08965 0.09166 0.0
C778 C 0.39465 0.10079 0.13737 0.0
C779 C 0.3978 0.13366 0.13109 0.0
C780 C 0.42253 0.14415 0.10472 0.0
C781 C 0.44251 0.12244 0.08562 0.0
C782 C 0.36937 0.08736 0.16461 0.0
C783 C 0.42771 0.17855 0.09633 0.0
H784 H 0.29885 0.17639 0.1573 0.0
H785 H 0.37242 0.21155 0.22495 0.0
H786 H 0.34942 0.14242 0.09128 0.0
H787 H 0.32882 0.10946 0.11421 0.0
H788 H 0.30661 0.13938 0.10882 0.0
H789 H 0.42336 0.1961 0.21611 0.0
H790 H 0.41916 0.15332 0.19763 0.0
H791 H 0.43877 0.18554 0.17348 0.0
H792 H 0.41106 0.05492 0.12382 0.0
H793 H 0.46045 0.13114 0.06549 0.0
H794 H 0.34401 0.08786 0.16002 0.0
H795 H 0.37443 0.10328 0.18851 0.0
H796 H 0.36955 0.06153 0.16684 0.0
H797 H 0.40433 0.18159 0.08892 0.0
H798 H 0.44805 0.1838 0.07603 0.0
H799 H 0.43376 0.19723 0.11838 0.0
C800 C 0.8188 0.31749 0.16285 0.0
C801 C 0.83003 0.3001 0.1831 0.0
C802 C 0.84106 0.33608 0.14018 0.0
C803 C 0.87574 0.33776 0.1375 0.0
C804 C 0.88716 0.31938 0.15705 0.0
C805 C 0.86427 0.3008 0.17946 0.0
C806 C 0.8275 0.35502 0.11991 0.0
C807 C 0.92378 0.32039 0.15526 0.0
C808 C 0.92957 0.37502 0.06321 0.0
C809 C 0.9394 0.40861 0.07657 0.0
C810 C 0.90988 0.35131 0.08288 0.0
C811 C 0.90002 0.36131 0.11677 0.0
C812 C 0.91163 0.39485 0.13061 0.0
C813 C 0.93087 0.4179 0.11045 0.0
C814 C 0.89821 0.31591 0.06698 0.0
C815 C 0.90238 0.40687 0.16653 0.0
H816 H 0.7925 0.31717 0.16513 0.0
H817 H 0.87345 0.2876 0.19485 0.0
H818 H 0.83666 0.38206 0.12758 0.0
H819 H 0.83655 0.34942 0.09344 0.0
H820 H 0.79981 0.34906 0.12272 0.0
H821 H 0.92842 0.30232 0.16944 0.0
H822 H 0.93446 0.31509 0.12926 0.0
H823 H 0.9373 0.34564 0.16531 0.0
H824 H 0.93567 0.3676 0.03707 0.0
H825 H 0.93848 0.44373 0.12113 0.0
H826 H 0.87093 0.31032 0.06574 0.0
H827 H 0.90278 0.29855 0.082 0.0
H828 H 0.91081 0.31118 0.04162 0.0
H829 H 0.87512 0.40498 0.17124 0.0
H830 H 0.91546 0.43303 0.17413 0.0
H831 H 0.90846 0.39106 0.18233 0.0
C832 C 0.68348 0.9178 0.15323 0.0
C833 C 0.68696 0.88553 0.14017 0.0
C834 C 0.6643 0.93361 0.13904 0.0
C835 C 0.64832 0.91695 0.11087 0.0
C836 C 0.65108 0.8841 0.09805 0.0
C837 C 0.67022 0.8688 0.11287 0.0
C838 C 0.66183 0.96849 0.15373 0.0
C839 C 0.63476 0.86546 0.06791 0.0
C840 C 0.5799 0.9478 0.08255 0.0
C841 C 0.59759 0.96511 0.05692 0.0
C842 C 0.5961 0.93261 0.10084 0.0
C843 C 0.63081 0.93462 0.09333 0.0
C844 C 0.64888 0.95276 0.06809 0.0
C845 C 0.63216 0.96778 0.05037 0.0
C846 C 0.57591 0.91374 0.1277 0.0
C847 C 0.68586 0.9556 0.05913 0.0
H848 H 0.69588 0.9308 0.17459 0.0
H849 H 0.67298 0.84405 0.10232 0.0
H850 H 0.67423 0.98574 0.13588 0.0
H851 H 0.63531 0.96994 0.15876 0.0
H852 H 0.67361 0.97714 0.177 0.0
H853 H 0.63759 0.83947 0.06212 0.0
H854 H 0.6078 0.86516 0.07151 0.0
H855 H 0.64599 0.87827 0.04631 0.0
H856 H 0.55322 0.94545 0.08789 0.0
H857 H 0.64627 0.98109 0.03076 0.0
H858 H 0.5872 0.9229 0.15116 0.0
H859 H 0.57614 0.88709 0.12111 0.0
H860 H 0.5496 0.91602 0.13181 0.0
H861 H 0.69926 0.96626 0.08115 0.0
H862 H 0.6965 0.97136 0.03953 0.0
H863 H 0.69067 0.93057 0.0504 0.0
C864 C 0.21769 0.64226 0.1747 0.0
C865 C 0.21269 0.67287 0.19167 0.0
C866 C 0.1952 0.62234 0.15277 0.0
C867 C 0.16748 0.6336 0.14711 0.0
C868 C 0.16245 0.66448 0.16419 0.0
C869 C 0.18482 0.68347 0.18633 0.0
C870 C 0.20122 0.58936 0.13543 0.0
C871 C 0.13387 0.67799 0.15845 0.0
C872 C 0.13228 0.60315 0.06463 0.0
C873 C 0.1023 0.58053 0.07293 0.0
C874 C 0.15352 0.62039 0.08845 0.0
C875 C 0.14511 0.61455 0.12157 0.0
C876 C 0.1148 0.59177 0.13023 0.0
C877 C 0.09355 0.57528 0.10586 0.0
C878 C 0.18497 0.64503 0.07809 0.0
C879 C 0.10511 0.58447 0.16513 0.0
H880 H 0.23893 0.63372 0.17882 0.0
H881 H 0.18075 0.70718 0.19905 0.0
H882 H 0.17844 0.56942 0.13925 0.0
H883 H 0.2068 0.58992 0.10851 0.0
H884 H 0.2223 0.58296 0.14427 0.0
H885 H 0.13282 0.70197 0.17438 0.0
H886 H 0.13641 0.68175 0.13231 0.0
H887 H 0.10983 0.65994 0.1632 0.0
H888 H 0.13918 0.60748 0.03925 0.0
H889 H 0.07068 0.55752 0.11234 0.0
H890 H 0.20709 0.63768 0.08347 0.0
H891 H 0.18492 0.66993 0.09241 0.0
H892 H 0.18774 0.64697 0.05142 0.0
H893 H 0.12501 0.57548 0.17314 0.0
H894 H 0.08126 0.56553 0.16777 0.0
H895 H 0.10257 0.6075 0.18204 0.0
C896 C 0.3518 0.80822 0.83812 0.0
C897 C 0.32551 0.81901 0.8293 0.0
C898 C 0.37324 0.82823 0.86082 0.0
C899 C 0.36894 0.86033 0.87487 0.0
C900 C 0.3427 0.87157 0.86579 0.0
C901 C 0.32116 0.85073 0.84344 0.0
C902 C 0.40025 0.81474 0.87014 0.0
C903 C 0.33736 0.90571 0.87973 0.0
C904 C 0.40106 0.8992 0.95794 0.0
C905 C 0.43156 0.92083 0.94895 0.0
C906 C 0.38083 0.87934 0.93419 0.0
C907 C 0.39078 0.88132 0.90028 0.0
C908 C 0.42161 0.90302 0.89093 0.0
C909 C 0.44177 0.92223 0.9153 0.0
C910 C 0.34869 0.85616 0.9455 0.0
C911 C 0.43305 0.90633 0.85517 0.0
H912 H 0.35543 0.78375 0.82756 0.0
H913 H 0.30121 0.85951 0.83665 0.0
H914 H 0.42501 0.83143 0.86468 0.0
H915 H 0.39654 0.8138 0.89703 0.0
H916 H 0.40059 0.78945 0.85683 0.0
H917 H 0.31704 0.9115 0.86904 0.0
H918 H 0.33107 0.90766 0.90686 0.0
H919 H 0.36067 0.92474 0.87494 0.0
H920 H 0.39293 0.89762 0.9838 0.0
H921 H 0.46508 0.93901 0.90805 0.0
H922 H 0.34859 0.83034 0.93368 0.0
H923 H 0.32724 0.86289 0.93784 0.0
H924 H 0.34489 0.85684 0.97267 0.0
H925 H 0.43535 0.8819 0.841 0.0
H926 H 0.45741 0.92439 0.85183 0.0
H927 H 0.41421 0.91449 0.84446 0.0
C928 C 0.17938 0.30208 0.85673 0.0
C929 C 0.19083 0.30635 0.82351 0.0
C930 C 0.15828 0.32154 0.87761 0.0
C931 C 0.14715 0.34634 0.86573 0.0
C932 C 0.15816 0.35025 0.83206 0.0
C933 C 0.17952 0.33084 0.81193 0.0
C934 C 0.14838 0.31594 0.91297 0.0
C935 C 0.14757 0.37549 0.81706 0.0
C936 C 0.07163 0.38347 0.91354 0.0
C937 C 0.08734 0.41509 0.9292 0.0
C938 C 0.09027 0.36113 0.89323 0.0
C939 C 0.12605 0.3694 0.88854 0.0
C940 C 0.14178 0.40081 0.90524 0.0
C941 C 0.12269 0.42285 0.92446 0.0
C942 C 0.07146 0.32875 0.87597 0.0
C943 C 0.1793 0.41153 0.90268 0.0
H944 H 0.18742 0.28376 0.86682 0.0
H945 H 0.18749 0.33508 0.78667 0.0
H946 H 0.15825 0.33898 0.92961 0.0
H947 H 0.12083 0.31006 0.91837 0.0
H948 H 0.15785 0.29545 0.91872 0.0
H949 H 0.15576 0.37421 0.7902 0.0
H950 H 0.12003 0.37165 0.82102 0.0
H951 H 0.15826 0.40081 0.82938 0.0
H952 H 0.04464 0.3765 0.91618 0.0
H953 H 0.13588 0.4467 0.9362 0.0
H954 H 0.07908 0.30776 0.88297 0.0
H955 H 0.07775 0.3278 0.8489 0.0
H956 H 0.04404 0.32524 0.88193 0.0
H957 H 0.18962 0.39227 0.90977 0.0
H958 H 0.18815 0.43542 0.91863 0.0
H959 H 0.18952 0.41432 0.8768 0.0
C960 C 0.70012 0.19885 0.85267 0.0
C961 C 0.68858 0.21644 0.83286 0.0
C962 C 0.678 0.17921 0.87466 0.0
C963 C 0.64317 0.17684 0.87727 0.0
C964 C 0.63143 0.19535 0.8581 0.0
C965 C 0.65412 0.21473 0.83619 0.0
C966 C 0.69193 0.1601 0.89443 0.0
C967 C 0.5947 0.19391 0.85996 0.0
C968 C 0.58936 0.09568 0.90366 0.0
C969 C 0.58117 0.1044 0.9377 0.0
C970 C 0.60793 0.11923 0.88365 0.0
C971 C 0.61919 0.15275 0.89778 0.0
C972 C 0.60948 0.16218 0.93184 0.0
C973 C 0.59053 0.13797 0.95136 0.0
C974 C 0.61704 0.10774 0.84758 0.0
C975 C 0.62066 0.19753 0.94809 0.0
H976 H 0.72656 0.19987 0.85057 0.0
H977 H 0.64468 0.22813 0.8212 0.0
H978 H 0.68308 0.16543 0.92098 0.0
H979 H 0.68284 0.13309 0.88655 0.0
H980 H 0.71963 0.1662 0.89139 0.0
H981 H 0.58978 0.21216 0.84617 0.0
H982 H 0.58146 0.16869 0.84955 0.0
H983 H 0.58395 0.1987 0.88601 0.0
H984 H 0.58225 0.06986 0.89276 0.0
H985 H 0.58483 0.14499 0.97764 0.0
H986 H 0.64435 0.10993 0.84266 0.0
H987 H 0.61061 0.12367 0.83215 0.0
H988 H 0.60417 0.08156 0.83974 0.0
H989 H 0.64793 0.20344 0.94945 0.0
H990 H 0.6079 0.20185 0.97345 0.0
H991 H 0.61586 0.21495 0.93328 0.0
C992 C 0.88349 0.63968 0.86844 0.0
C993 C 0.88487 0.67249 0.88401 0.0
C994 C 0.89618 0.61753 0.88199 0.0
C995 C 0.91065 0.62812 0.91207 0.0
C996 C 0.9125 0.66125 0.92771 0.0
C997 C 0.89976 0.68291 0.91355 0.0
C998 C 0.89359 0.58253 0.86436 0.0
C999 C 0.92764 0.67382 0.95975 0.0
C1000 C 0.91251 0.56472 0.96701 0.0
C1001 C 0.946 0.56234 0.96138 0.0
C1002 C 0.90067 0.58535 0.95069 0.0
C1003 C 0.92265 0.60434 0.92792 0.0
C1004 C 0.95627 0.6014 0.92138 0.0
C1005 C 0.9675 0.58055 0.93811 0.0
C1006 C 0.86469 0.58753 0.9586 0.0
C1007 C 0.98066 0.62097 0.89729 0.0
H1008 H 0.87178 0.63096 0.84589 0.0
H1009 H 0.90171 0.70823 0.92567 0.0
H1010 H 0.91853 0.57674 0.85974 0.0
H1011 H 0.87738 0.56475 0.88011 0.0
H1012 H 0.88319 0.57849 0.84046 0.0
H1013 H 0.92798 0.7004 0.96849 0.0
H1014 H 0.91331 0.65908 0.97907 0.0
H1015 H 0.95357 0.67063 0.95674 0.0
H1016 H 0.8955 0.55095 0.98485 0.0
H1017 H 0.99342 0.57919 0.93351 0.0
H1018 H 0.85243 0.58194 0.93564 0.0
H1019 H 0.86342 0.61316 0.97001 0.0
H1020 H 0.85037 0.57017 0.97574 0.0
H1021 H 0.97079 0.61612 0.87307 0.0
H1022 H 1.00546 0.61484 0.89367 0.0
H1023 H 0.98396 0.64791 0.90631 0.0
C1024 C 0.13773 0.33381 0.10196 0.0
C1025 C 0.14903 0.34297 0.13332 0.0
C1026 C 0.1245 0.35522 0.08804 0.0
C1027 C 0.12249 0.3869 0.10566 0.0
C1028 C 0.13364 0.39629 0.13738 0.0
C1029 C 0.14667 0.37432 0.15079 0.0
C1030 C 0.11307 0.34405 0.05414 0.0
C1031 C 0.13206 0.42975 0.1571 0.0
C1032 C 0.11972 0.45241 0.05376 0.0
C1033 C 0.0855 0.45163 0.05687 0.0
C1034 C 0.13208 0.43228 0.07019 0.0
C1035 C 0.10982 0.41047 0.09029 0.0
C1036 C 0.07537 0.41027 0.09439 0.0
C1037 C 0.06367 0.43083 0.07777 0.0
C1038 C 0.16898 0.43365 0.06518 0.0
C1039 C 0.05064 0.38747 0.11547 0.0
H1040 H 0.13981 0.31002 0.08784 0.0
H1041 H 0.15478 0.38167 0.17518 0.0
H1042 H 0.08676 0.34545 0.05495 0.0
H1043 H 0.12827 0.36083 0.03689 0.0
H1044 H 0.11509 0.31827 0.0441 0.0
H1045 H 0.14107 0.43318 0.18162 0.0
H1046 H 0.14742 0.44971 0.14336 0.0
H1047 H 0.10605 0.43279 0.16073 0.0
H1048 H 0.13696 0.46833 0.03783 0.0
H1049 H 0.03719 0.42975 0.08034 0.0
H1050 H 0.17332 0.40937 0.05236 0.0
H1051 H 0.17895 0.43839 0.08934 0.0
H1052 H 0.18327 0.45323 0.05039 0.0
H1053 H 0.04996 0.36128 0.10462 0.0
H1054 H 0.02505 0.39152 0.11771 0.0
H1055 H 0.05848 0.39118 0.14052 0.0
C1056 C 0.16528 0.71208 0.83822 0.0
C1057 C 0.19967 0.71358 0.83503 0.0
C1058 C 0.14254 0.69318 0.86046 0.0
C1059 C 0.15426 0.6753 0.88027 0.0
C1060 C 0.18906 0.67781 0.87807 0.0
C1061 C 0.21118 0.69671 0.85557 0.0
C1062 C 0.10577 0.69127 0.86175 0.0
C1063 C 0.20292 0.65942 0.89865 0.0
C1064 C 0.10044 0.63711 0.95399 0.0
C1065 C 0.09148 0.60346 0.94053 0.0
C1066 C 0.11983 0.66111 0.93452 0.0
C1067 C 0.13026 0.65135 0.90073 0.0
C1068 C 0.11954 0.61771 0.88676 0.0
C1069 C 0.10056 0.59437 0.90673 0.0
C1070 C 0.13055 0.69662 0.95052 0.0
C1071 C 0.12943 0.60594 0.85092 0.0
H1072 H 0.1559 0.72487 0.82259 0.0
H1073 H 0.23759 0.69767 0.85363 0.0
H1074 H 0.09289 0.66584 0.8515 0.0
H1075 H 0.09467 0.69626 0.88764 0.0
H1076 H 0.10084 0.70912 0.84749 0.0
H1077 H 0.23061 0.66606 0.89623 0.0
H1078 H 0.19342 0.66481 0.92502 0.0
H1079 H 0.19445 0.6323 0.8909 0.0
H1080 H 0.09387 0.6444 0.98008 0.0
H1081 H 0.09357 0.56851 0.89595 0.0
H1082 H 0.12566 0.71371 0.93538 0.0
H1083 H 0.15779 0.7029 0.95211 0.0
H1084 H 0.11755 0.70106 0.97575 0.0
H1085 H 0.12306 0.62143 0.83499 0.0
H1086 H 0.11703 0.57959 0.84319 0.0
H1087 H 0.15682 0.60854 0.84656 0.0
C1088 C 0.34851 0.09222 0.8656 0.0
C1089 C 0.34586 0.12475 0.87856 0.0
C1090 C 0.3674 0.07599 0.87963 0.0
C1091 C 0.38388 0.09248 0.90755 0.0
C1092 C 0.38188 0.12555 0.9203 0.0
C1093 C 0.36306 0.14128 0.90562 0.0
C1094 C 0.3691 0.04088 0.86502 0.0
C1095 C 0.39871 0.144 0.95022 0.0
C1096 C 0.39963 0.04162 0.96818 0.0
C1097 C 0.43413 0.04389 0.96143 0.0
C1098 C 0.38303 0.05671 0.95042 0.0
C1099 C 0.40115 0.07448 0.92494 0.0
C1100 C 0.43575 0.07598 0.91716 0.0
C1101 C 0.45184 0.06076 0.93551 0.0
C1102 C 0.34617 0.05446 0.95968 0.0
C1103 C 0.45595 0.09441 0.89 0.0
H1104 H 0.3357 0.07938 0.84443 0.0
H1105 H 0.36092 0.16624 0.91607 0.0
H1106 H 0.39545 0.0389 0.85971 0.0
H1107 H 0.35657 0.02384 0.88303 0.0
H1108 H 0.357 0.03237 0.84191 0.0
H1109 H 0.39633 0.17014 0.95604 0.0
H1110 H 0.38751 0.13134 0.97192 0.0
H1111 H 0.42557 0.14387 0.94631 0.0
H1112 H 0.38552 0.02863 0.98801 0.0
H1113 H 0.47845 0.06276 0.93 0.0
H1114 H 0.3325 0.04396 0.9378 0.0
H1115 H 0.34182 0.07965 0.96842 0.0
H1116 H 0.33545 0.03883 0.97937 0.0
H1117 H 0.44428 0.08537 0.86674 0.0
H1118 H 0.48208 0.09156 0.88557 0.0
H1119 H 0.45633 0.1212 0.8965 0.0
C1120 C 0.81731 0.36637 0.83883 0.0
C1121 C 0.82212 0.33509 0.82376 0.0
C1122 C 0.83928 0.3871 0.86084 0.0
C1123 C 0.86626 0.37601 0.86856 0.0
C1124 C 0.87121 0.34452 0.85328 0.0
C1125 C 0.84939 0.32472 0.83099 0.0
C1126 C 0.83341 0.42071 0.87615 0.0
C1127 C 0.89899 0.33119 0.86124 0.0
C1128 C 0.9393 0.43502 0.91062 0.0
C1129 C 0.92928 0.43128 0.94381 0.0
C1130 C 0.91873 0.4179 0.88587 0.0
C1131 C 0.88782 0.39594 0.89443 0.0
C1132 C 0.87806 0.39168 0.92787 0.0
C1133 C 0.89863 0.40957 0.95203 0.0
C1134 C 0.92986 0.42357 0.85062 0.0
C1135 C 0.84592 0.36792 0.9382 0.0
H1136 H 0.79653 0.37474 0.83328 0.0
H1137 H 0.85336 0.30053 0.81977 0.0
H1138 H 0.82661 0.42135 0.90312 0.0
H1139 H 0.85662 0.44019 0.87244 0.0
H1140 H 0.81318 0.42689 0.86564 0.0
H1141 H 0.90017 0.30668 0.84647 0.0
H1142 H 0.92336 0.3488 0.85667 0.0
H1143 H 0.89534 0.32854 0.88777 0.0
H1144 H 0.96272 0.45203 0.90413 0.0
H1145 H 0.89075 0.40636 0.97761 0.0
H1146 H 0.91059 0.43206 0.84095 0.0
H1147 H 0.93274 0.39996 0.83499 0.0
H1148 H 0.95388 0.44228 0.8481 0.0
H1149 H 0.82444 0.37512 0.93116 0.0
H1150 H 0.84203 0.36725 0.96518 0.0
H1151 H 0.84596 0.3425 0.9252 0.0
C1152 C 0.66997 0.81529 0.81521 0.0
C1153 C 0.70297 0.81767 0.8217 0.0
C1154 C 0.64803 0.83386 0.83574 0.0
C1155 C 0.65829 0.85625 0.86446 0.0
C1156 C 0.6915 0.85868 0.87131 0.0
C1157 C 0.71299 0.83975 0.85033 0.0
C1158 C 0.6135 0.82957 0.82635 0.0
C1159 C 0.70464 0.88173 0.90104 0.0
C1160 C 0.61484 0.93021 0.89822 0.0
C1161 C 0.59254 0.9205 0.92608 0.0
C1162 C 0.63557 0.90998 0.87856 0.0
C1163 C 0.63519 0.87813 0.88592 0.0
C1164 C 0.61248 0.86774 0.9137 0.0
C1165 C 0.59181 0.88863 0.93312 0.0
C1166 C 0.65848 0.92318 0.84974 0.0
C1167 C 0.61033 0.83441 0.92336 0.0
H1168 H 0.661 0.79867 0.79366 0.0
H1169 H 0.73795 0.84239 0.85647 0.0
H1170 H 0.59459 0.82215 0.84716 0.0
H1171 H 0.61043 0.85353 0.82126 0.0
H1172 H 0.60836 0.81064 0.80425 0.0
H1173 H 0.73025 0.88046 0.9041 0.0
H1174 H 0.70491 0.90764 0.89876 0.0
H1175 H 0.68791 0.87551 0.92363 0.0
H1176 H 0.61654 0.95439 0.89167 0.0
H1177 H 0.57558 0.88016 0.95437 0.0
H1178 H 0.65304 0.90585 0.82668 0.0
H1179 H 0.68474 0.92492 0.8532 0.0
H1180 H 0.65602 0.94806 0.84659 0.0
H1181 H 0.60425 0.81458 0.90218 0.0
H1182 H 0.59121 0.82901 0.94463 0.0
H1183 H 0.63488 0.83354 0.92989 0.0
C1184 C 0.84665 0.70351 0.16156 0.0
C1185 C 0.84482 0.70848 0.19641 0.0
C1186 C 0.86699 0.68335 0.1407 0.0
C1187 C 0.88729 0.66738 0.1541 0.0
C1188 C 0.88601 0.67284 0.18924 0.0
C1189 C 0.86503 0.69264 0.20952 0.0
C1190 C 0.86604 0.67845 0.10395 0.0
C1191 C 0.90678 0.65736 0.20572 0.0
C1192 C 0.9118 0.58632 0.10571 0.0
C1193 C 0.94498 0.59657 0.09074 0.0
C1194 C 0.89334 0.60862 0.1254 0.0
C1195 C 0.90761 0.64328 0.1319 0.0
C1196 C 0.94115 0.65411 0.11708 0.0
C1197 C 0.95902 0.63112 0.0967 0.0
C1198 C 0.85792 0.59476 0.13919 0.0
C1199 C 0.95845 0.69029 0.12302 0.0
H1200 H 0.83147 0.71491 0.15034 0.0
H1201 H 0.8645 0.69565 0.23607 0.0
H1202 H 0.89161 0.68591 0.09133 0.0
H1203 H 0.85635 0.65177 0.0949 0.0
H1204 H 0.85009 0.69292 0.09681 0.0
H1205 H 0.90546 0.66568 0.23276 0.0
H1206 H 0.89809 0.62996 0.20128 0.0
H1207 H 0.93322 0.66365 0.19494 0.0
H1208 H 0.89954 0.56023 0.10165 0.0
H1209 H 0.98423 0.64031 0.08581 0.0
H1210 H 0.84081 0.60733 0.13111 0.0
H1211 H 0.85559 0.59962 0.16651 0.0
H1212 H 0.8496 0.56762 0.13132 0.0
H1213 H 0.94461 0.70518 0.1134 0.0
H1214 H 0.98455 0.6952 0.11108 0.0
H1215 H 0.95855 0.69893 0.14991 0.0
C1216 C 0.37777 0.79305 0.1812 0.0
C1217 C 0.34362 0.79303 0.18683 0.0
C1218 C 0.40015 0.8128 0.15934 0.0
C1219 C 0.38837 0.83321 0.14233 0.0
C1220 C 0.3538 0.83265 0.14731 0.0
C1221 C 0.33205 0.81281 0.16939 0.0
C1222 C 0.43662 0.81247 0.15515 0.0
C1223 C 0.33979 0.85368 0.12979 0.0
C1224 C 0.44401 0.91346 0.11515 0.0
C1225 C 0.45027 0.90492 0.08082 0.0
C1226 C 0.42554 0.89006 0.13543 0.0
C1227 C 0.41218 0.85697 0.12127 0.0
C1228 C 0.41974 0.84771 0.08676 0.0
C1229 C 0.43879 0.87169 0.06701 0.0
C1230 C 0.4189 0.90131 0.17195 0.0
C1231 C 0.4061 0.81291 0.07037 0.0
H1232 H 0.38727 0.778 0.19436 0.0
H1233 H 0.30585 0.81311 0.17321 0.0
H1234 H 0.44572 0.80754 0.12861 0.0
H1235 H 0.45133 0.83718 0.16514 0.0
H1236 H 0.44156 0.79349 0.16797 0.0
H1237 H 0.31219 0.849 0.13456 0.0
H1238 H 0.35049 0.88032 0.13803 0.0
H1239 H 0.34689 0.84873 0.10282 0.0
H1240 H 0.45264 0.93905 0.12614 0.0
H1241 H 0.44289 0.86487 0.04052 0.0
H1242 H 0.42514 0.88423 0.18621 0.0
H1243 H 0.392 0.90074 0.17855 0.0
H1244 H 0.43346 0.92687 0.17964 0.0
H1245 H 0.41109 0.79453 0.08388 0.0
H1246 H 0.41698 0.80853 0.04428 0.0
H1247 H 0.37865 0.80845 0.07103 0.0
C1248 C 0.70914 0.16254 0.17494 0.0
C1249 C 0.70462 0.19434 0.18852 0.0
C1250 C 0.68776 0.14124 0.15275 0.0
C1251 C 0.66148 0.15207 0.14324 0.0
C1252 C 0.65698 0.18424 0.15672 0.0
C1253 C 0.67829 0.20474 0.1793 0.0
C1254 C 0.69329 0.10705 0.13943 0.0
C1255 C 0.62989 0.19727 0.1469 0.0
C1256 C 0.63002 0.11135 0.06035 0.0
C1257 C 0.59964 0.08965 0.06953 0.0
C1258 C 0.64995 0.1319 0.08398 0.0
C1259 C 0.63983 0.13054 0.11797 0.0
C1260 C 0.60911 0.10879 0.12751 0.0
C1261 C 0.58923 0.08889 0.10324 0.0
C1262 C 0.68198 0.1551 0.07247 0.0
C1263 C 0.59753 0.10612 0.16337 0.0
H1264 H 0.72912 0.15405 0.18207 0.0
H1265 H 0.67452 0.22925 0.18946 0.0
H1266 H 0.67003 0.08801 0.14439 0.0
H1267 H 0.69969 0.10468 0.11231 0.0
H1268 H 0.71361 0.10163 0.15045 0.0
H1269 H 0.62936 0.22265 0.15983 0.0
H1270 H 0.63372 0.19782 0.11993 0.0
H1271 H 0.6052 0.18052 0.15242 0.0
H1272 H 0.63826 0.11245 0.03443 0.0
H1273 H 0.566 0.07208 0.11063 0.0
H1274 H 0.7035 0.14878 0.08044 0.0
H1275 H 0.68187 0.181 0.08387 0.0
H1276 H 0.68585 0.15399 0.04525 0.0
H1277 H 0.61636 0.09837 0.17448 0.0
H1278 H 0.57322 0.08803 0.16686 0.0
H1279 H 0.59506 0.13069 0.17706 0.0
C1280 C 0.68879 0.6821 0.83526 0.0
C1281 C 0.69804 0.67448 0.8013 0.0
C1282 C 0.66702 0.65851 0.85334 0.0
C1283 C 0.65461 0.62588 0.83749 0.0
C1284 C 0.66339 0.61809 0.80304 0.0
C1285 C 0.68462 0.64259 0.78527 0.0
C1286 C 0.65779 0.66842 0.88973 0.0
C1287 C 0.65118 0.58359 0.78516 0.0
C1288 C 0.63354 0.56277 0.89729 0.0
C1289 C 0.59881 0.55816 0.90483 0.0
C1290 C 0.65154 0.583 0.87395 0.0
C1291 C 0.6347 0.59973 0.85778 0.0
C1292 C 0.59939 0.59384 0.86392 0.0
C1293 C 0.58185 0.57305 0.88725 0.0
C1294 C 0.68894 0.58763 0.86775 0.0
C1295 C 0.58021 0.61099 0.84738 0.0
H1296 H 0.69855 0.70679 0.84783 0.0
H1297 H 0.69159 0.63645 0.75907 0.0
H1298 H 0.63028 0.66211 0.89568 0.0
H1299 H 0.66818 0.65441 0.90415 0.0
H1300 H 0.66729 0.69536 0.89785 0.0
H1301 H 0.65852 0.58189 0.75815 0.0
H1302 H 0.66159 0.56583 0.79475 0.0
H1303 H 0.62363 0.57573 0.78978 0.0
H1304 H 0.64694 0.55104 0.91028 0.0
H1305 H 0.55508 0.56979 0.89284 0.0
H1306 H 0.70118 0.61325 0.87809 0.0
H1307 H 0.69708 0.58428 0.84089 0.0
H1308 H 0.69781 0.56998 0.87917 0.0
H1309 H 0.58188 0.63662 0.86054 0.0
H1310 H 0.55351 0.59784 0.84788 0.0
H1311 H 0.59074 0.61277 0.8214 0.0
C1312 C 0.40659 0.66867 0.87417 0.0
C1313 C 0.39596 0.64725 0.84571 0.0
C1314 C 0.42296 0.65861 0.89655 0.0
C1315 C 0.42856 0.62615 0.89071 0.0
C1316 C 0.41898 0.60487 0.86149 0.0
C1317 C 0.40308 0.61569 0.83937 0.0
C1318 C 0.43315 0.68232 0.92708 0.0
C1319 C 0.42438 0.57006 0.85416 0.0
C1320 C 0.48536 0.5963 0.93714 0.0
C1321 C 0.46202 0.57898 0.9598 0.0
C1322 C 0.47524 0.61356 0.91572 0.0
C1323 C 0.44096 0.61296 0.91651 0.0
C1324 C 0.41769 0.5971 0.94056 0.0
C1325 C 0.4285 0.58073 0.96197 0.0
C1326 C 0.50105 0.6311 0.89125 0.0
C1327 C 0.38091 0.59567 0.94247 0.0
H1328 H 0.40118 0.69302 0.87962 0.0
H1329 H 0.39592 0.59916 0.81713 0.0
H1330 H 0.41676 0.67376 0.94902 0.0
H1331 H 0.45909 0.68289 0.93074 0.0
H1332 H 0.43137 0.70793 0.92584 0.0
H1333 H 0.41713 0.55716 0.82964 0.0
H1334 H 0.45095 0.5706 0.85501 0.0
H1335 H 0.40946 0.55534 0.87327 0.0
H1336 H 0.51131 0.59536 0.93522 0.0
H1337 H 0.41012 0.5679 0.97956 0.0
H1338 H 0.49647 0.65554 0.88959 0.0
H1339 H 0.49945 0.61605 0.86646 0.0
H1340 H 0.52668 0.63495 0.89795 0.0
H1341 H 0.37678 0.62095 0.94438 0.0
H1342 H 0.3663 0.58415 0.96385 0.0
H1343 H 0.37105 0.58101 0.91959 0.0
C1344 C 0.36112 0.31416 0.82307 0.0
C1345 C 0.33978 0.3233 0.80519 0.0
C1346 C 0.38054 0.33776 0.84517 0.0
C1347 C 0.37825 0.37129 0.8499 0.0
C1348 C 0.35787 0.38092 0.83085 0.0
C1349 C 0.33907 0.35687 0.80856 0.0
C1350 C 0.40288 0.32665 0.86405 0.0
C1351 C 0.35456 0.41635 0.83522 0.0
C1352 C 0.395 0.42265 0.9336 0.0
C1353 C 0.42728 0.44211 0.92689 0.0
C1354 C 0.37886 0.39964 0.90876 0.0
C1355 C 0.39533 0.39576 0.87633 0.0
C1356 C 0.42791 0.41517 0.86934 0.0
C1357 C 0.44345 0.43809 0.89462 0.0
C1358 C 0.34412 0.37937 0.91728 0.0
C1359 C 0.44624 0.41199 0.83506 0.0
H1360 H 0.36208 0.28834 0.82039 0.0
H1361 H 0.3225 0.36415 0.79503 0.0
H1362 H 0.42912 0.34007 0.85826 0.0
H1363 H 0.39609 0.33279 0.89096 0.0
H1364 H 0.40138 0.29957 0.85803 0.0
H1365 H 0.33982 0.42035 0.81678 0.0
H1366 H 0.34209 0.42296 0.86024 0.0
H1367 H 0.37951 0.43357 0.83318 0.0
H1368 H 0.38219 0.42537 0.95833 0.0
H1369 H 0.46844 0.45274 0.889 0.0
H1370 H 0.34398 0.35256 0.91229 0.0
H1371 H 0.32675 0.3835 0.90153 0.0
H1372 H 0.33454 0.38562 0.94353 0.0
H1373 H 0.44608 0.38561 0.82554 0.0
H1374 H 0.47249 0.4266 0.83428 0.0
H1375 H 0.43338 0.42081 0.81812 0.0
C1376 C 0.53705 0.32434 0.80905 0.0
C1377 C 0.54954 0.29693 0.81141 0.0
C1378 C 0.52394 0.34209 0.83759 0.0
C1379 C 0.52383 0.33189 0.8682 0.0
C1380 C 0.52665 0.29938 0.86891 0.0
C1381 C 0.53799 0.28121 0.83959 0.0
C1382 C 0.51648 0.37484 0.83565 0.0
C1383 C 0.52336 0.28622 0.90098 0.0
C1384 C 0.57152 0.40659 0.92005 0.0
C1385 C 0.54546 0.41837 0.93957 0.0
C1386 C 0.56487 0.3763 0.89888 0.0
C1387 C 0.53132 0.35795 0.89687 0.0
C1388 C 0.50541 0.36824 0.91881 0.0
C1389 C 0.51289 0.39802 0.94023 0.0
C1390 C 0.59357 0.36531 0.87682 0.0
C1391 C 0.46932 0.34984 0.91846 0.0
H1392 H 0.54246 0.33545 0.78669 0.0
H1393 H 0.54374 0.25774 0.84056 0.0
H1394 H 0.49602 0.37991 0.85479 0.0
H1395 H 0.53903 0.39504 0.84001 0.0
H1396 H 0.50944 0.37526 0.81099 0.0
H1397 H 0.518 0.25869 0.89712 0.0
H1398 H 0.54716 0.29591 0.91212 0.0
H1399 H 0.50333 0.29457 0.91867 0.0
H1400 H 0.59674 0.42179 0.91991 0.0
H1401 H 0.49249 0.40628 0.9561 0.0
H1402 H 0.59263 0.36869 0.85109 0.0
H1403 H 0.59179 0.33861 0.87697 0.0
H1404 H 0.61812 0.37972 0.88452 0.0
H1405 H 0.45512 0.36582 0.911 0.0
H1406 H 0.45852 0.34511 0.94379 0.0
H1407 H 0.46556 0.32587 0.90172 0.0
C1408 C 0.63202 0.40411 0.17999 0.0
C1409 C 0.63394 0.37077 0.17592 0.0
C1410 C 0.6162 0.41559 0.15829 0.0
C1411 C 0.60147 0.39322 0.13186 0.0
C1412 C 0.60193 0.35926 0.12843 0.0
C1413 C 0.61826 0.34849 0.15033 0.0
C1414 C 0.61642 0.45202 0.16294 0.0
C1415 C 0.58631 0.3345 0.10084 0.0
C1416 C 0.54636 0.42699 0.08711 0.0
C1417 C 0.56931 0.43969 0.06144 0.0
C1418 C 0.55583 0.41027 0.10941 0.0
C1419 C 0.58902 0.40626 0.10601 0.0
C1420 C 0.61155 0.41731 0.07898 0.0
C1421 C 0.60142 0.43369 0.05709 0.0
C1422 C 0.53081 0.39843 0.13755 0.0
C1423 C 0.64711 0.4136 0.07416 0.0
H1424 H 0.64321 0.42146 0.20008 0.0
H1425 H 0.61964 0.32274 0.14666 0.0
H1426 H 0.63149 0.46329 0.14165 0.0
H1427 H 0.59074 0.45529 0.16382 0.0
H1428 H 0.62697 0.4658 0.18586 0.0
H1429 H 0.58501 0.30853 0.10392 0.0
H1430 H 0.56077 0.3371 0.09946 0.0
H1431 H 0.60118 0.33939 0.07696 0.0
H1432 H 0.52152 0.4315 0.0908 0.0
H1433 H 0.6193 0.44304 0.03717 0.0
H1434 H 0.53763 0.41444 0.16095 0.0
H1435 H 0.53106 0.37272 0.14005 0.0
H1436 H 0.50509 0.39917 0.13424 0.0
H1437 H 0.66053 0.4289 0.09488 0.0
H1438 H 0.66083 0.42144 0.05071 0.0
H1439 H 0.64769 0.38745 0.07426 0.0
C1440 C 0.70274 0.65806 0.20447 0.0
C1441 C 0.70017 0.69123 0.21135 0.0
C1442 C 0.68353 0.63493 0.18184 0.0
C1443 C 0.6609 0.64506 0.16591 0.0
C1444 C 0.65716 0.67816 0.17379 0.0
C1445 C 0.67695 0.70086 0.19624 0.0
C1446 C 0.6884 0.59994 0.17405 0.0
C1447 C 0.63261 0.68972 0.15811 0.0
C1448 C 0.6394 0.59727 0.08198 0.0
C1449 C 0.60813 0.57642 0.08988 0.0
C1450 C 0.65665 0.61972 0.10644 0.0
C1451 C 0.64243 0.62153 0.13977 0.0
C1452 C 0.61084 0.60078 0.14797 0.0
C1453 C 0.59409 0.57853 0.123 0.0
C1454 C 0.69024 0.6415 0.09661 0.0
C1455 C 0.59499 0.60155 0.18323 0.0
H1456 H 0.72068 0.65037 0.21587 0.0
H1457 H 0.67457 0.72636 0.20156 0.0
H1458 H 0.66413 0.58186 0.17743 0.0
H1459 H 0.69867 0.59499 0.14786 0.0
H1460 H 0.70565 0.5955 0.18979 0.0
H1461 H 0.63307 0.71639 0.16642 0.0
H1462 H 0.63811 0.68567 0.13087 0.0
H1463 H 0.60703 0.67494 0.16434 0.0
H1464 H 0.65055 0.5961 0.05658 0.0
H1465 H 0.56998 0.56268 0.1296 0.0
H1466 H 0.7095 0.63695 0.10978 0.0
H1467 H 0.68957 0.66801 0.10387 0.0
H1468 H 0.69794 0.63707 0.06967 0.0
H1469 H 0.60901 0.59061 0.19725 0.0
H1470 H 0.56858 0.58735 0.18503 0.0
H1471 H 0.59609 0.62746 0.1953 0.0
C1472 C 0.47908 0.72106 0.19613 0.0
C1473 C 0.47816 0.70629 0.2242 0.0
C1474 C 0.4914 0.70667 0.16518 0.0
C1475 C 0.50305 0.67767 0.16313 0.0
C1476 C 0.51093 0.66926 0.19198 0.0
C1477 C 0.49893 0.68447 0.2227 0.0
C1478 C 0.48606 0.71854 0.13468 0.0
C1479 C 0.52633 0.64027 0.19055 0.0
C1480 C 0.45919 0.60132 0.10965 0.0
C1481 C 0.48501 0.59532 0.08553 0.0
C1482 C 0.46452 0.62908 0.13417 0.0
C1483 C 0.49648 0.65138 0.13439 0.0
C1484 C 0.52192 0.64667 0.10872 0.0
C1485 C 0.51583 0.61874 0.08456 0.0
C1486 C 0.43643 0.6332 0.16104 0.0
C1487 C 0.55628 0.66949 0.10728 0.0
H1488 H 0.46503 0.73964 0.19703 0.0
H1489 H 0.5004 0.6747 0.24476 0.0
H1490 H 0.50612 0.71496 0.11446 0.0
H1491 H 0.46191 0.70393 0.12623 0.0
H1492 H 0.48525 0.74515 0.13971 0.0
H1493 H 0.53742 0.64152 0.21358 0.0
H1494 H 0.50679 0.61687 0.18733 0.0
H1495 H 0.54586 0.63942 0.16927 0.0
H1496 H 0.4354 0.5834 0.11046 0.0
H1497 H 0.53595 0.61459 0.06564 0.0
H1498 H 0.43201 0.65847 0.16388 0.0
H1499 H 0.4433 0.62987 0.1848 0.0
H1500 H 0.41271 0.61491 0.15605 0.0
H1501 H 0.55754 0.69332 0.12408 0.0
H1502 H 0.56477 0.67488 0.08171 0.0
H1503 H 0.57406 0.65668 0.11381 0.0
C1504 C 0.32394 0.36497 0.20234 0.0
C1505 C 0.33651 0.34616 0.21995 0.0
C1506 C 0.34532 0.38828 0.18357 0.0
C1507 C 0.38037 0.39249 0.18142 0.0
C1508 C 0.39328 0.37429 0.19995 0.0
C1509 C 0.37124 0.35169 0.21927 0.0
C1510 C 0.33025 0.40748 0.16494 0.0
C1511 C 0.43032 0.37728 0.19792 0.0
C1512 C 0.42608 0.41984 0.10049 0.0
C1513 C 0.43933 0.45383 0.10965 0.0
C1514 C 0.40851 0.39945 0.12386 0.0
C1515 C 0.40296 0.41342 0.15736 0.0
C1516 C 0.41711 0.44766 0.16696 0.0
C1517 C 0.43549 0.46738 0.14305 0.0
C1518 C 0.39487 0.36305 0.11239 0.0
C1519 C 0.41142 0.46383 0.20216 0.0
H1520 H 0.29718 0.36104 0.20277 0.0
H1521 H 0.38125 0.33705 0.23244 0.0
H1522 H 0.34231 0.43432 0.16951 0.0
H1523 H 0.33466 0.39907 0.13808 0.0
H1524 H 0.30296 0.40417 0.17195 0.0
H1525 H 0.43664 0.36394 0.21598 0.0
H1526 H 0.43958 0.36683 0.17277 0.0
H1527 H 0.44378 0.40372 0.20229 0.0
H1528 H 0.4291 0.40922 0.07471 0.0
H1529 H 0.44539 0.4937 0.15021 0.0
H1530 H 0.36725 0.35756 0.11475 0.0
H1531 H 0.40191 0.34774 0.12808 0.0
H1532 H 0.40407 0.35539 0.08631 0.0
H1533 H 0.38459 0.46372 0.20858 0.0
H1534 H 0.42618 0.48987 0.20628 0.0
H1535 H 0.41798 0.44961 0.21923 0.0
C1536 C 0.82077 0.66947 0.66485 0.0
C1537 C 0.82329 0.68336 0.69833 0.0
C1538 C 0.84208 0.64877 0.64667 0.0
C1539 C 0.86764 0.6413 0.66143 0.0
C1540 C 0.87017 0.65518 0.69521 0.0
C1541 C 0.84834 0.67539 0.71287 0.0
C1542 C 0.83726 0.63492 0.61119 0.0
C1543 C 0.89667 0.64923 0.71285 0.0
C1544 C 0.91035 0.56737 0.62058 0.0
C1545 C 0.93954 0.58298 0.602 0.0
C1546 C 0.88717 0.58558 0.63982 0.0
C1547 C 0.89263 0.62081 0.64138 0.0
C1548 C 0.92253 0.63656 0.62335 0.0
C1549 C 0.9448 0.61782 0.60404 0.0
C1550 C 0.85602 0.56676 0.65776 0.0
C1551 C 0.93093 0.67362 0.62388 0.0
H1552 H 0.80201 0.67482 0.6526 0.0
H1553 H 0.85141 0.68549 0.73841 0.0
H1554 H 0.85979 0.64523 0.59499 0.0
H1555 H 0.83401 0.60758 0.60732 0.0
H1556 H 0.81531 0.64078 0.60349 0.0
H1557 H 0.89526 0.66066 0.73917 0.0
H1558 H 0.89425 0.62221 0.71152 0.0
H1559 H 0.9217 0.65964 0.7005 0.0
H1560 H 0.90477 0.54062 0.61901 0.0
H1561 H 0.9666 0.63071 0.58975 0.0
H1562 H 0.83382 0.56951 0.64778 0.0
H1563 H 0.85411 0.57724 0.68429 0.0
H1564 H 0.85538 0.53993 0.65538 0.0
H1565 H 0.91175 0.68066 0.61265 0.0
H1566 H 0.95571 0.68275 0.61029 0.0
H1567 H 0.93079 0.68643 0.6497 0.0
C1568 C 0.34962 0.8329 0.68708 0.0
C1569 C 0.33424 0.79906 0.68019 0.0
C1570 C 0.37126 0.84992 0.66308 0.0
C1571 C 0.37733 0.83306 0.6308 0.0
C1572 C 0.36232 0.7987 0.62374 0.0
C1573 C 0.34127 0.782 0.64862 0.0
C1574 C 0.38711 0.88629 0.6722 0.0
C1575 C 0.36755 0.77987 0.5896 0.0
C1576 C 0.40284 0.8942 0.56895 0.0
C1577 C 0.43769 0.8998 0.56521 0.0
C1578 C 0.38275 0.87034 0.58785 0.0
C1579 C 0.39786 0.85232 0.60448 0.0
C1580 C 0.43305 0.85661 0.59923 0.0
C1581 C 0.4525 0.88007 0.5794 0.0
C1582 C 0.34543 0.86623 0.59194 0.0
C1583 C 0.45047 0.83861 0.61681 0.0
H1584 H 0.34466 0.84626 0.71147 0.0
H1585 H 0.32935 0.75592 0.643 0.0
H1586 H 0.41451 0.891 0.66556 0.0
H1587 H 0.37749 0.90125 0.65815 0.0
H1588 H 0.38198 0.89512 0.69892 0.0
H1589 H 0.35602 0.75292 0.5885 0.0
H1590 H 0.35649 0.78988 0.57207 0.0
H1591 H 0.39456 0.78324 0.58115 0.0
H1592 H 0.39132 0.90964 0.55831 0.0
H1593 H 0.47948 0.88486 0.57723 0.0
H1594 H 0.33736 0.87795 0.61698 0.0
H1595 H 0.33254 0.83956 0.58945 0.0
H1596 H 0.33727 0.87788 0.57359 0.0
H1597 H 0.44961 0.84932 0.6433 0.0
H1598 H 0.477 0.84076 0.60656 0.0
H1599 H 0.43768 0.81196 0.61527 0.0
C1600 C 0.15567 0.40569 0.68524 0.0
C1601 C 0.17239 0.38678 0.66003 0.0
C1602 C 0.13322 0.42285 0.67817 0.0
C1603 C 0.12717 0.421 0.64511 0.0
C1604 C 0.14413 0.40211 0.61961 0.0
C1605 C 0.16639 0.38531 0.62736 0.0
C1606 C 0.11581 0.44278 0.70604 0.0
C1607 C 0.13838 0.39918 0.584 0.0
C1608 C 0.04815 0.43144 0.61792 0.0
C1609 C 0.05955 0.46149 0.60528 0.0
C1610 C 0.06903 0.41931 0.63379 0.0
C1611 C 0.10231 0.43754 0.63674 0.0
C1612 C 0.11288 0.46938 0.62667 0.0
C1613 C 0.09137 0.48091 0.61087 0.0
C1614 C 0.05647 0.38542 0.6443 0.0
C1615 C 0.14793 0.4899 0.62957 0.0
H1616 H 0.16034 0.40732 0.71054 0.0
H1617 H 0.17865 0.37037 0.60773 0.0
H1618 H 0.12083 0.46888 0.70159 0.0
H1619 H 0.08845 0.43271 0.70718 0.0
H1620 H 0.12387 0.44254 0.73029 0.0
H1621 H 0.15408 0.38421 0.56702 0.0
H1622 H 0.11181 0.38744 0.58095 0.0
H1623 H 0.1439 0.42419 0.57657 0.0
H1624 H 0.02378 0.41609 0.61294 0.0
H1625 H 0.10048 0.5038 0.6004 0.0
H1626 H 0.06388 0.38544 0.66886 0.0
H1627 H 0.06775 0.36723 0.62646 0.0
H1628 H 0.0289 0.37694 0.64528 0.0
H1629 H 0.15583 0.48946 0.6538 0.0
H1630 H 0.15033 0.51609 0.62646 0.0
H1631 H 0.1653 0.47925 0.61019 0.0
C1632 C 0.69605 0.16386 0.68546 0.0
C1633 C 0.69625 0.1978 0.69117 0.0
C1634 C 0.67359 0.14086 0.66554 0.0
C1635 C 0.65043 0.15187 0.65113 0.0
C1636 C 0.65086 0.18615 0.65638 0.0
C1637 C 0.67376 0.20864 0.67615 0.0
C1638 C 0.67423 0.10463 0.66045 0.0
C1639 C 0.6265 0.19902 0.64176 0.0
C1640 C 0.60609 0.0967 0.57954 0.0
C1641 C 0.57507 0.08224 0.59563 0.0
C1642 C 0.63096 0.11905 0.59724 0.0
C1643 C 0.62473 0.12743 0.63189 0.0
C1644 C 0.59358 0.11279 0.64826 0.0
C1645 C 0.56929 0.0904 0.63004 0.0
C1646 C 0.66386 0.13387 0.5788 0.0
C1647 C 0.5857 0.12109 0.6851 0.0
H1648 H 0.7133 0.15513 0.6968 0.0
H1649 H 0.6735 0.23472 0.68042 0.0
H1650 H 0.65031 0.09009 0.67142 0.0
H1651 H 0.67687 0.09499 0.63372 0.0
H1652 H 0.69492 0.10026 0.67175 0.0
H1653 H 0.63079 0.22648 0.64713 0.0
H1654 H 0.62841 0.19147 0.61465 0.0
H1655 H 0.60065 0.18801 0.6518 0.0
H1656 H 0.61098 0.09065 0.55303 0.0
H1657 H 0.5455 0.07956 0.64288 0.0
H1658 H 0.68459 0.12829 0.58894 0.0
H1659 H 0.66787 0.16126 0.58212 0.0
H1660 H 0.66514 0.12434 0.55199 0.0
H1661 H 0.60429 0.11501 0.69801 0.0
H1662 H 0.56043 0.10746 0.6942 0.0
H1663 H 0.58731 0.1481 0.69192 0.0
C1664 C 0.82736 0.30775 0.36292 0.0
C1665 C 0.8253 0.31788 0.33301 0.0
C1666 C 0.85049 0.32669 0.38466 0.0
C1667 C 0.87329 0.35591 0.37582 0.0
C1668 C 0.87143 0.36609 0.34547 0.0
C1669 C 0.84715 0.34736 0.32482 0.0
C1670 C 0.85046 0.31543 0.4172 0.0
C1671 C 0.8958 0.39626 0.33427 0.0
C1672 C 0.91889 0.42181 0.44074 0.0
C1673 C 0.94926 0.41261 0.43913 0.0
C1674 C 0.89376 0.40324 0.42099 0.0
C1675 C 0.89942 0.37539 0.39794 0.0
C1676 C 0.93028 0.36632 0.39591 0.0
C1677 C 0.95445 0.38458 0.41686 0.0
C1678 C 0.86106 0.41343 0.42493 0.0
C1679 C 0.93814 0.33771 0.37103 0.0
H1680 H 0.81053 0.28509 0.36955 0.0
H1681 H 0.84609 0.35518 0.30158 0.0
H1682 H 0.87431 0.30864 0.41791 0.0
H1683 H 0.8484 0.33598 0.4377 0.0
H1684 H 0.82965 0.29369 0.42156 0.0
H1685 H 0.89131 0.40083 0.30997 0.0
H1686 H 0.89413 0.41857 0.35262 0.0
H1687 H 0.92163 0.39303 0.33244 0.0
H1688 H 0.91456 0.44336 0.45787 0.0
H1689 H 0.97796 0.3775 0.41507 0.0
H1690 H 0.83999 0.39184 0.42892 0.0
H1691 H 0.85803 0.42206 0.40209 0.0
H1692 H 0.85936 0.43367 0.44588 0.0
H1693 H 0.92002 0.31432 0.37583 0.0
H1694 H 0.96369 0.33457 0.37157 0.0
H1695 H 0.93577 0.34169 0.34586 0.0
C1696 C 0.68371 0.83372 0.31256 0.0
C1697 C 0.70003 0.81404 0.32565 0.0
C1698 C 0.66206 0.85294 0.33256 0.0
C1699 C 0.65656 0.85435 0.36757 0.0
C1700 C 0.67318 0.83473 0.38101 0.0
C1701 C 0.69386 0.81478 0.36026 0.0
C1702 C 0.64492 0.87195 0.31588 0.0
C1703 C 0.66988 0.83549 0.41779 0.0
C1704 C 0.62749 0.93252 0.4187 0.0
C1705 C 0.59315 0.92087 0.42896 0.0
C1706 C 0.64807 0.9114 0.40024 0.0
C1707 C 0.63463 0.877 0.38976 0.0
C1708 C 0.59992 0.865 0.39999 0.0
C1709 C 0.58009 0.88653 0.41953 0.0
C1710 C 0.68461 0.92627 0.39172 0.0
C1711 C 0.58321 0.82929 0.38925 0.0
H1712 H 0.68764 0.83395 0.28618 0.0
H1713 H 0.70614 0.80046 0.37146 0.0
H1714 H 0.61772 0.86609 0.3239 0.0
H1715 H 0.65448 0.89897 0.32318 0.0
H1716 H 0.64889 0.86624 0.28858 0.0
H1717 H 0.68447 0.81969 0.42494 0.0
H1718 H 0.67856 0.86136 0.42998 0.0
H1719 H 0.64333 0.82691 0.42731 0.0
H1720 H 0.6386 0.95866 0.42526 0.0
H1721 H 0.55379 0.87659 0.42628 0.0
H1722 H 0.69016 0.92609 0.3647 0.0
H1723 H 0.69992 0.91117 0.39886 0.0
H1724 H 0.69234 0.95221 0.40413 0.0
H1725 H 0.58573 0.82392 0.36192 0.0
H1726 H 0.55632 0.82331 0.39865 0.0
H1727 H 0.59566 0.81265 0.39806 0.0
C1728 C 0.19808 0.69675 0.36004 0.0
C1729 C 0.21135 0.68201 0.32955 0.0
C1730 C 0.17735 0.67727 0.38303 0.0
C1731 C 0.16899 0.64211 0.37526 0.0
C1732 C 0.18239 0.62718 0.34454 0.0
C1733 C 0.20349 0.64716 0.32235 0.0
C1734 C 0.16406 0.69436 0.41557 0.0
C1735 C 0.1737 0.59 0.33464 0.0
C1736 C 0.13031 0.58752 0.4431 0.0
C1737 C 0.09615 0.58259 0.44089 0.0
C1738 C 0.1544 0.60693 0.42209 0.0
C1739 C 0.14412 0.62113 0.3979 0.0
C1740 C 0.10963 0.6151 0.39504 0.0
C1741 C 0.08628 0.59634 0.41664 0.0
C1742 C 0.19081 0.613 0.42635 0.0
C1743 C 0.0972 0.62876 0.36929 0.0
H1744 H 0.20414 0.72355 0.36609 0.0
H1745 H 0.21338 0.63533 0.29889 0.0
H1746 H 0.13656 0.69001 0.41701 0.0
H1747 H 0.1696 0.68381 0.43618 0.0
H1748 H 0.17485 0.72154 0.41909 0.0
H1749 H 0.18717 0.58206 0.31051 0.0
H1750 H 0.17973 0.5776 0.35361 0.0
H1751 H 0.1465 0.58119 0.33298 0.0
H1752 H 0.1381 0.57732 0.462 0.0
H1753 H 0.0599 0.59252 0.41467 0.0
H1754 H 0.20132 0.64001 0.43279 0.0
H1755 H 0.20488 0.60454 0.40285 0.0
H1756 H 0.1949 0.60005 0.44591 0.0
H1757 H 0.10441 0.65626 0.37359 0.0
H1758 H 0.06967 0.62081 0.36947 0.0
H1759 H 0.10891 0.62048 0.3444 0.0
C1760 C 0.41466 0.1829 0.40215 0.0
C1761 C 0.3882 0.17105 0.3825 0.0
C1762 C 0.42966 0.16109 0.41345 0.0
C1763 C 0.41794 0.1263 0.40525 0.0
C1764 C 0.39106 0.11411 0.38575 0.0
C1765 C 0.37665 0.13649 0.3746 0.0
C1766 C 0.45825 0.17535 0.43409 0.0
C1767 C 0.37773 0.0773 0.3763 0.0
C1768 C 0.47825 0.07204 0.40787 0.0
C1769 C 0.46803 0.06105 0.43871 0.0
C1770 C 0.46194 0.09273 0.39658 0.0
C1771 C 0.43443 0.10282 0.41638 0.0
C1772 C 0.42343 0.09122 0.44717 0.0
C1773 C 0.44033 0.07062 0.45796 0.0
C1774 C 0.47482 0.10456 0.36375 0.0
C1775 C 0.39424 0.10121 0.46913 0.0
H1776 H 0.42358 0.20939 0.40906 0.0
H1777 H 0.35662 0.12679 0.35911 0.0
H1778 H 0.45208 0.16609 0.4582 0.0
H1779 H 0.48082 0.16705 0.4216 0.0
H1780 H 0.46432 0.2029 0.4386 0.0
H1781 H 0.35601 0.07167 0.36199 0.0
H1782 H 0.3976 0.06618 0.36129 0.0
H1783 H 0.37011 0.06512 0.39875 0.0
H1784 H 0.49969 0.06517 0.39273 0.0
H1785 H 0.43216 0.06257 0.48186 0.0
H1786 H 0.48405 0.13193 0.36751 0.0
H1787 H 0.45438 0.0985 0.3478 0.0
H1788 H 0.49543 0.09331 0.35056 0.0
H1789 H 0.40008 0.12849 0.47669 0.0
H1790 H 0.38782 0.08907 0.49167 0.0
H1791 H 0.37203 0.09469 0.45545 0.0
C1792 C 0.65706 0.87255 0.63881 0.0
C1793 C 0.64265 0.83827 0.6347 0.0
C1794 C 0.64279 0.89503 0.62765 0.0
C1795 C 0.61327 0.88319 0.61186 0.0
C1796 C 0.59868 0.84864 0.60747 0.0
C1797 C 0.61347 0.82672 0.61887 0.0
C1798 C 0.65913 0.93159 0.63312 0.0
C1799 C 0.56731 0.83476 0.59074 0.0
C1800 C 0.55631 0.9412 0.61044 0.0
C1801 C 0.56408 0.94903 0.57817 0.0
C1802 C 0.5725 0.92046 0.62182 0.0
C1803 C 0.5972 0.90689 0.60054 0.0
C1804 C 0.60574 0.91526 0.56819 0.0
C1805 C 0.5892 0.93617 0.55746 0.0
C1806 C 0.5625 0.91237 0.65647 0.0
C1807 C 0.63179 0.90139 0.54456 0.0
H1808 H 0.67928 0.882 0.65134 0.0
H1809 H 0.60227 0.80035 0.61499 0.0
H1810 H 0.66523 0.94132 0.60924 0.0
H1811 H 0.64161 0.94537 0.64882 0.0
H1812 H 0.68236 0.93686 0.64511 0.0
H1813 H 0.55924 0.80732 0.58879 0.0
H1814 H 0.54678 0.84564 0.60466 0.0
H1815 H 0.57135 0.84164 0.5656 0.0
H1816 H 0.53696 0.95075 0.62677 0.0
H1817 H 0.5954 0.94171 0.53243 0.0
H1818 H 0.58478 0.91824 0.66997 0.0
H1819 H 0.55129 0.88542 0.65566 0.0
H1820 H 0.5442 0.92624 0.67055 0.0
H1821 H 0.65559 0.90751 0.55565 0.0
H1822 H 0.63648 0.9111 0.52067 0.0
H1823 H 0.62363 0.87394 0.53969 0.0
C1824 C 0.67892 0.17997 0.32972 0.0
C1825 C 0.6946 0.21367 0.33715 0.0
C1826 C 0.65763 0.16246 0.3536 0.0
C1827 C 0.65221 0.17865 0.38628 0.0
C1828 C 0.6674 0.21292 0.39387 0.0
C1829 C 0.68811 0.23012 0.36914 0.0
C1830 C 0.64157 0.12624 0.34391 0.0
C1831 C 0.66281 0.23108 0.42841 0.0
C1832 C 0.57834 0.13067 0.43851 0.0
C1833 C 0.5937 0.11068 0.45173 0.0
C1834 C 0.59719 0.15442 0.41869 0.0
C1835 C 0.63235 0.15877 0.41245 0.0
C1836 C 0.64807 0.14039 0.42803 0.0
C1837 C 0.62856 0.11626 0.44694 0.0
C1838 C 0.57911 0.17279 0.40225 0.0
C1839 C 0.6854 0.14449 0.42283 0.0
H1840 H 0.68346 0.16706 0.30502 0.0
H1841 H 0.70025 0.25608 0.37518 0.0
H1842 H 0.65161 0.11081 0.35706 0.0
H1843 H 0.61427 0.12148 0.35122 0.0
H1844 H 0.64606 0.118 0.31699 0.0
H1845 H 0.67419 0.25809 0.42992 0.0
H1846 H 0.63591 0.22749 0.43749 0.0
H1847 H 0.67444 0.2207 0.44519 0.0
H1848 H 0.55135 0.12593 0.44148 0.0
H1849 H 0.64052 0.10064 0.45683 0.0
H1850 H 0.57946 0.16261 0.37564 0.0
H1851 H 0.59177 0.19948 0.40416 0.0
H1852 H 0.55272 0.17036 0.4131 0.0
H1853 H 0.69287 0.13334 0.39736 0.0
H1854 H 0.69415 0.13229 0.44033 0.0
H1855 H 0.69827 0.17116 0.42576 0.0
C1856 C 0.84834 0.59875 0.38213 0.0
C1857 C 0.85291 0.61149 0.35224 0.0
C1858 C 0.8713 0.58285 0.39008 0.0
C1859 C 0.89926 0.57838 0.36721 0.0
C1860 C 0.90248 0.5884 0.33582 0.0
C1861 C 0.87962 0.60521 0.32886 0.0
C1862 C 0.86666 0.57269 0.4239 0.0
C1863 C 0.93099 0.58281 0.31012 0.0
C1864 C 0.97441 0.58327 0.41053 0.0
C1865 C 0.97139 0.54999 0.41354 0.0
C1866 C 0.95255 0.59256 0.39343 0.0
C1867 C 0.92712 0.5679 0.37833 0.0
C1868 C 0.92613 0.53392 0.37839 0.0
C1869 C 0.94811 0.52532 0.39635 0.0
C1870 C 0.95472 0.62907 0.39446 0.0
C1871 C 0.90035 0.50662 0.3617 0.0
H1872 H 0.82721 0.6021 0.39998 0.0
H1873 H 0.88366 0.61465 0.3056 0.0
H1874 H 0.86695 0.54616 0.42177 0.0
H1875 H 0.88762 0.58734 0.43785 0.0
H1876 H 0.84292 0.57657 0.43834 0.0
H1877 H 0.92647 0.58578 0.28524 0.0
H1878 H 0.95424 0.60099 0.31667 0.0
H1879 H 0.9351 0.55762 0.30912 0.0
H1880 H 0.99237 0.60238 0.42389 0.0
H1881 H 0.94538 0.49957 0.3989 0.0
H1882 H 0.93254 0.63578 0.40983 0.0
H1883 H 0.95475 0.63475 0.36939 0.0
H1884 H 0.97744 0.64497 0.40491 0.0
H1885 H 0.87714 0.50173 0.37889 0.0
H1886 H 0.90905 0.48322 0.35487 0.0
H1887 H 0.89422 0.51362 0.33923 0.0
C1888 C 0.36378 0.79883 0.33746 0.0
C1889 C 0.33979 0.80898 0.32394 0.0
C1890 C 0.38635 0.82161 0.35742 0.0
C1891 C 0.3849 0.85545 0.36433 0.0
C1892 C 0.36039 0.86574 0.35121 0.0
C1893 C 0.33829 0.84249 0.33113 0.0
C1894 C 0.41219 0.80953 0.3706 0.0
C1895 C 0.3578 0.90147 0.35798 0.0
C1896 C 0.42776 0.91046 0.43693 0.0
C1897 C 0.45801 0.92699 0.4211 0.0
C1898 C 0.4037 0.88731 0.41886 0.0
C1899 C 0.40991 0.88031 0.38405 0.0
C1900 C 0.44026 0.89705 0.36795 0.0
C1901 C 0.46378 0.9201 0.38656 0.0
C1902 C 0.37166 0.87018 0.43704 0.0
C1903 C 0.44807 0.89038 0.33096 0.0
H1904 H 0.36535 0.77309 0.332 0.0
H1905 H 0.31986 0.85068 0.32097 0.0
H1906 H 0.43753 0.82227 0.36082 0.0
H1907 H 0.41029 0.81575 0.39785 0.0
H1908 H 0.40947 0.78232 0.36382 0.0
H1909 H 0.33648 0.90526 0.34723 0.0
H1910 H 0.35486 0.9099 0.38494 0.0
H1911 H 0.3811 0.91746 0.34756 0.0
H1912 H 0.42291 0.91543 0.46354 0.0
H1913 H 0.48696 0.93255 0.37389 0.0
H1914 H 0.36923 0.84295 0.43243 0.0
H1915 H 0.35002 0.87498 0.42775 0.0
H1916 H 0.37036 0.87857 0.46407 0.0
H1917 H 0.44791 0.86376 0.32302 0.0
H1918 H 0.47273 0.90546 0.32212 0.0
H1919 H 0.42862 0.89587 0.31876 0.0
C1920 C 0.21443 0.34567 0.35251 0.0
C1921 C 0.21086 0.33093 0.31939 0.0
C1922 C 0.19279 0.36585 0.3712 0.0
C1923 C 0.16578 0.37181 0.3574 0.0
C1924 C 0.16216 0.357 0.32402 0.0
C1925 C 0.18434 0.33743 0.30582 0.0
C1926 C 0.19885 0.38079 0.40617 0.0
C1927 C 0.1341 0.36123 0.30742 0.0
C1928 C 0.08887 0.39348 0.41678 0.0
C1929 C 0.09236 0.428 0.41784 0.0
C1930 C 0.11167 0.37543 0.3973 0.0
C1931 C 0.14041 0.39161 0.37804 0.0
C1932 C 0.14413 0.42652 0.37867 0.0
C1933 C 0.12039 0.444 0.39807 0.0
C1934 C 0.105 0.33861 0.39776 0.0
C1935 C 0.174 0.44582 0.35945 0.0
H1936 H 0.23431 0.34149 0.36404 0.0
H1937 H 0.18036 0.32661 0.2806 0.0
H1938 H 0.20093 0.40794 0.40959 0.0
H1939 H 0.17737 0.37012 0.42335 0.0
H1940 H 0.22186 0.37626 0.41301 0.0
H1941 H 0.13465 0.34914 0.28131 0.0
H1942 H 0.10982 0.35043 0.32089 0.0
H1943 H 0.1354 0.38798 0.30821 0.0
H1944 H 0.06797 0.38026 0.43185 0.0
H1945 H 0.12463 0.47056 0.39876 0.0
H1946 H 0.12544 0.33296 0.40832 0.0
H1947 H 0.10443 0.32508 0.37224 0.0
H1948 H 0.08103 0.32902 0.41246 0.0
H1949 H 0.19715 0.44409 0.36844 0.0
H1950 H 0.17365 0.47239 0.36166 0.0
H1951 H 0.17501 0.43493 0.33302 0.0
C1952 C 0.35495 0.18266 0.70663 0.0
C1953 C 0.33357 0.19737 0.69377 0.0
C1954 C 0.37617 0.16319 0.68621 0.0
C1955 C 0.37637 0.15667 0.65118 0.0
C1956 C 0.35476 0.17135 0.63801 0.0
C1957 C 0.33433 0.19141 0.65899 0.0
C1958 C 0.39854 0.14938 0.70246 0.0
C1959 C 0.35256 0.1652 0.60142 0.0
C1960 C 0.45045 0.1244 0.59415 0.0
C1961 C 0.43891 0.08943 0.58929 0.0
C1962 C 0.43085 0.14619 0.61369 0.0
C1963 C 0.3979 0.13366 0.6289 0.0
C1964 C 0.3859 0.09849 0.6232 0.0
C1965 C 0.40621 0.07734 0.60431 0.0
C1966 C 0.44596 0.18295 0.61885 0.0
C1967 C 0.35121 0.08283 0.63742 0.0
H1968 H 0.35531 0.18649 0.73311 0.0
H1969 H 0.31817 0.20185 0.64796 0.0
H1970 H 0.39096 0.1219 0.69856 0.0
H1971 H 0.42467 0.15653 0.69104 0.0
H1972 H 0.39769 0.15825 0.72938 0.0
H1973 H 0.33502 0.17807 0.59449 0.0
H1974 H 0.37754 0.17373 0.58803 0.0
H1975 H 0.34418 0.13818 0.59306 0.0
H1976 H 0.47546 0.13487 0.58356 0.0
H1977 H 0.39618 0.05075 0.60134 0.0
H1978 H 0.44728 0.19193 0.64556 0.0
H1979 H 0.42993 0.19637 0.61028 0.0
H1980 H 0.47141 0.18937 0.60559 0.0
H1981 H 0.34946 0.08733 0.66473 0.0
H1982 H 0.34423 0.05565 0.62918 0.0
H1983 H 0.33279 0.09436 0.63013 0.0
C1984 C 0.80977 0.33919 0.66915 0.0
C1985 C 0.82302 0.32024 0.68607 0.0
C1986 C 0.82997 0.35923 0.64651 0.0
C1987 C 0.86476 0.36142 0.64104 0.0
C1988 C 0.87836 0.34225 0.65798 0.0
C1989 C 0.85731 0.32157 0.67987 0.0
C1990 C 0.81396 0.37815 0.62846 0.0
C1991 C 0.91532 0.34418 0.65353 0.0
C1992 C 0.9164 0.39102 0.56272 0.0
C1993 C 0.93052 0.42454 0.57355 0.0
C1994 C 0.89427 0.37064 0.58399 0.0
C1995 C 0.88672 0.38358 0.61751 0.0
C1996 C 0.90033 0.41768 0.6284 0.0
C1997 C 0.92169 0.43779 0.60625 0.0
C1998 C 0.87967 0.33492 0.57073 0.0
C1999 C 0.8936 0.4326 0.6639 0.0
H2000 H 0.78328 0.33825 0.67354 0.0
H2001 H 0.86788 0.30738 0.69303 0.0
H2002 H 0.82404 0.40519 0.63501 0.0
H2003 H 0.82002 0.37183 0.60145 0.0
H2004 H 0.78642 0.37271 0.63431 0.0
H2005 H 0.92221 0.32841 0.66887 0.0
H2006 H 0.92363 0.33626 0.6273 0.0
H2007 H 0.92913 0.37024 0.66018 0.0
H2008 H 0.92341 0.38045 0.53761 0.0
H2009 H 0.93314 0.46338 0.6151 0.0
H2010 H 0.85216 0.32898 0.57669 0.0
H2011 H 0.88945 0.31831 0.58262 0.0
H2012 H 0.8857 0.32936 0.54361 0.0
H2013 H 0.86637 0.4289 0.67123 0.0
H2014 H 0.9053 0.45956 0.66842 0.0
H2015 H 0.90341 0.41981 0.68005 0.0
C2016 C 0.18213 0.66567 0.69401 0.0
C2017 C 0.20401 0.695 0.68546 0.0
C2018 C 0.15817 0.64638 0.67326 0.0
C2019 C 0.15672 0.65576 0.6424 0.0
C2020 C 0.17957 0.68481 0.63321 0.0
C2021 C 0.20234 0.70438 0.65507 0.0
C2022 C 0.13373 0.61646 0.68486 0.0
C2023 C 0.18004 0.69525 0.60018 0.0
C2024 C 0.11159 0.58844 0.57808 0.0
C2025 C 0.08129 0.59757 0.57898 0.0
C2026 C 0.13656 0.60746 0.59785 0.0
C2027 C 0.13081 0.63573 0.62021 0.0
C2028 C 0.09999 0.6447 0.62155 0.0
C2029 C 0.07601 0.62598 0.60059 0.0
C2030 C 0.16922 0.59733 0.59464 0.0
C2031 C 0.09197 0.67373 0.64571 0.0
H2032 H 0.18292 0.6584 0.7176 0.0
H2033 H 0.21922 0.72688 0.64814 0.0
H2034 H 0.10786 0.61915 0.68544 0.0
H2035 H 0.13619 0.59375 0.66741 0.0
H2036 H 0.13745 0.61292 0.70981 0.0
H2037 H 0.20092 0.71686 0.59558 0.0
H2038 H 0.18229 0.67432 0.58016 0.0
H2039 H 0.15626 0.70191 0.59883 0.0
H2040 H 0.11601 0.56661 0.56146 0.0
H2041 H 0.05256 0.63304 0.60188 0.0
H2042 H 0.17227 0.58973 0.61801 0.0
H2043 H 0.19031 0.61871 0.58992 0.0
H2044 H 0.17089 0.57641 0.57441 0.0
H2045 H 0.09415 0.67037 0.67115 0.0
H2046 H 0.06646 0.67672 0.64473 0.0
H2047 H 0.11013 0.69697 0.64052 0.0
loop_
_geom_bond_atom_site_label_1
_geom_bond_atom_site_label_2
_geom_bond_distance
_geom_bond_site_symmetry_2
_ccdc_geom_bond_type
Eu0 C9 2.828 . S
Eu0 O11 2.392 . S
Eu0 O13 2.418 . S
Eu0 O18 2.373 . S
Eu0 O21 2.488 . S
Eu0 O22 2.471 . S
Eu0 O23 2.349 . S
Eu1 O10 2.373 . S
Eu1 O14 2.488 . S
Eu1 O15 2.471 . S
Eu1 O16 2.349 . S
Eu1 O19 2.392 . S
Eu1 O20 2.418 . S
Eu1 C30 2.828 . S
C2 O20 1.244 . S
C2 O23 1.265 . S
C3 C4 1.379 . S
C3 C7 1.373 . S
C3 C9 1.505 . S
C4 C3 1.379 . S
C4 C6 1.369 . S
C4 H32 0.930 . S
C5 C7 1.383 . S
C5 C8 1.382 . S
C5 H33 0.930 . S
C6 C4 1.369 . S
C6 C8 1.392 . S
C6 H34 0.930 . S
C7 C3 1.373 . S
C7 C5 1.383 . S
C7 H35 0.931 . S
C8 C5 1.382 . S
C8 C6 1.392 . S
C9 Eu0 2.828 . S
C9 C3 1.505 . S
C9 O21 1.249 . S
C9 O22 1.244 . S
O10 Eu1 2.373 . S
O10 C12 1.258 . S
O11 Eu0 2.392 . S
O11 C12 1.242 . S
C12 O10 1.258 . S
C12 O11 1.242 . S
O13 Eu0 2.418 . S
O13 C17 1.244 . S
O14 Eu1 2.488 . S
O14 C30 1.249 . S
O15 Eu1 2.471 . S
O15 C30 1.244 . S
O16 Eu1 2.349 . S
O16 C17 1.265 . S
C17 O13 1.244 . S
C17 O16 1.265 . S
O18 Eu0 2.373 . S
O18 C31 1.258 . S
O19 Eu1 2.392 . S
O19 C31 1.242 . S
O20 Eu1 2.418 . S
O20 C2 1.244 . S
O21 Eu0 2.488 . S
O21 C9 1.249 . S
O22 Eu0 2.471 . S
O22 C9 1.244 . S
O23 Eu0 2.349 . S
O23 C2 1.265 . S
C24 C25 1.379 . S
C24 C28 1.373 . S
C24 C30 1.505 . S
C25 C24 1.379 . S
C25 C27 1.369 . S
C25 H36 0.930 . S
C26 C28 1.383 . S
C26 C29 1.382 . S
C26 H37 0.930 . S
C27 C25 1.369 . S
C27 C29 1.392 . S
C27 H38 0.930 . S
C28 C24 1.373 . S
C28 C26 1.383 . S
C28 H39 0.931 . S
C29 C26 1.382 . S
C29 C27 1.392 . S
C30 Eu1 2.828 . S
C30 O14 1.249 . S
C30 O15 1.244 . S
C30 C24 1.505 . S
C31 O18 1.258 . S
C31 O19 1.242 . S
H32 C4 0.930 . S
H33 C5 0.930 . S
H34 C6 0.930 . S
H35 C7 0.931 . S
H36 C25 0.930 . S
H37 C26 0.930 . S
H38 C27 0.930 . S
H39 C28 0.931 . S
Eu40 C49 2.828 . S
Eu40 O51 2.392 . S
Eu40 O53 2.418 . S
Eu40 O58 2.373 . S
Eu40 O61 2.488 . S
Eu40 O62 2.471 . S
Eu40 O63 2.349 . S
Eu41 O50 2.373 . S
Eu41 O54 2.488 . S
Eu41 O55 2.471 . S
Eu41 O56 2.349 . S
Eu41 O59 2.392 . S
Eu41 O60 2.418 . S
Eu41 C70 2.828 . S
C42 O60 1.244 . S
C42 O63 1.265 . S
C43 C44 1.379 . S
C43 C47 1.373 . S
C43 C49 1.505 . S
C44 C43 1.379 . S
C44 C46 1.369 . S
C44 H72 0.930 . S
C45 C47 1.383 . S
C45 C48 1.382 . S
C45 H73 0.930 . S
C46 C44 1.369 . S
C46 C48 1.392 . S
C46 H74 0.930 . S
C47 C43 1.373 . S
C47 C45 1.383 . S
C47 H75 0.931 . S
C48 C45 1.382 . S
C48 C46 1.392 . S
C49 Eu40 2.828 . S
C49 C43 1.505 . S
C49 O61 1.249 . S
C49 O62 1.244 . S
O50 Eu41 2.373 . S
O50 C52 1.258 . S
O51 Eu40 2.392 . S
O51 C52 1.242 . S
C52 O50 1.258 . S
C52 O51 1.242 . S
O53 Eu40 2.418 . S
O53 C57 1.244 . S
O54 Eu41 2.488 . S
O54 C70 1.249 . S
O55 Eu41 2.471 . S
O55 C70 1.244 . S
O56 Eu41 2.349 . S
O56 C57 1.265 . S
C57 O53 1.244 . S
C57 O56 1.265 . S
O58 Eu40 2.373 . S
O58 C71 1.258 . S
O59 Eu41 2.392 . S
O59 C71 1.242 . S
O60 Eu41 2.418 . S
O60 C42 1.244 . S
O61 Eu40 2.488 . S
O61 C49 1.249 . S
O62 Eu40 2.471 . S
O62 C49 1.244 . S
O63 Eu40 2.349 . S
O63 C42 1.265 . S
C64 C65 1.379 . S
C64 C68 1.373 . S
C64 C70 1.505 . S
C65 C64 1.379 . S
C65 C67 1.369 . S
C65 H76 0.930 . S
C66 C68 1.383 . S
C66 C69 1.382 . S
C66 H77 0.930 . S
C67 C65 1.369 . S
C67 C69 1.392 . S
C67 H78 0.930 . S
C68 C64 1.373 . S
C68 C66 1.383 . S
C68 H79 0.931 . S
C69 C66 1.382 . S
C69 C67 1.392 . S
C70 Eu41 2.828 . S
C70 O54 1.249 . S
C70 O55 1.244 . S
C70 C64 1.505 . S
C71 O58 1.258 . S
C71 O59 1.242 . S
H72 C44 0.930 . S
H73 C45 0.930 . S
H74 C46 0.930 . S
H75 C47 0.931 . S
H76 C65 0.930 . S
H77 C66 0.930 . S
H78 C67 0.930 . S
H79 C68 0.931 . S
Eu80 C89 2.828 . S
Eu80 O91 2.392 . S
Eu80 O93 2.418 . S
Eu80 O98 2.373 . S
Eu80 O101 2.488 . S
Eu80 O102 2.471 . S
Eu80 O103 2.349 . S
Eu81 O90 2.373 . S
Eu81 O94 2.488 . S
Eu81 O95 2.471 . S
Eu81 O96 2.349 . S
Eu81 O99 2.392 . S
Eu81 O100 2.418 . S
Eu81 C110 2.828 . S
C82 O100 1.244 . S
C82 O103 1.265 . S
C83 C84 1.379 . S
C83 C87 1.373 . S
C83 C89 1.505 . S
C84 C83 1.379 . S
C84 C86 1.369 . S
C84 H112 0.930 . S
C85 C87 1.383 . S
C85 C88 1.382 . S
C85 H113 0.930 . S
C86 C84 1.369 . S
C86 C88 1.392 . S
C86 H114 0.930 . S
C87 C83 1.373 . S
C87 C85 1.383 . S
C87 H115 0.931 . S
C88 C85 1.382 . S
C88 C86 1.392 . S
C89 Eu80 2.828 . S
C89 C83 1.505 . S
C89 O101 1.249 . S
C89 O102 1.244 . S
O90 Eu81 2.373 . S
O90 C92 1.258 . S
O91 Eu80 2.392 . S
O91 C92 1.242 . S
C92 O90 1.258 . S
C92 O91 1.242 . S
O93 Eu80 2.418 . S
O93 C97 1.244 . S
O94 Eu81 2.488 . S
O94 C110 1.249 . S
O95 Eu81 2.471 . S
O95 C110 1.244 . S
O96 Eu81 2.349 . S
O96 C97 1.265 . S
C97 O93 1.244 . S
C97 O96 1.265 . S
O98 Eu80 2.373 . S
O98 C111 1.258 . S
O99 Eu81 2.392 . S
O99 C111 1.242 . S
O100 Eu81 2.418 . S
O100 C82 1.244 . S
O101 Eu80 2.488 . S
O101 C89 1.249 . S
O102 Eu80 2.471 . S
O102 C89 1.244 . S
O103 Eu80 2.349 . S
O103 C82 1.265 . S
C104 C105 1.379 . S
C104 C108 1.373 . S
C104 C110 1.505 . S
C105 C104 1.379 . S
C105 C107 1.369 . S
C105 H116 0.930 . S
C106 C108 1.383 . S
C106 C109 1.382 . S
C106 H117 0.930 . S
C107 C105 1.369 . S
C107 C109 1.392 . S
C107 H118 0.930 . S
C108 C104 1.373 . S
C108 C106 1.383 . S
C108 H119 0.931 . S
C109 C106 1.382 . S
C109 C107 1.392 . S
C110 Eu81 2.828 . S
C110 O94 1.249 . S
C110 O95 1.244 . S
C110 C104 1.505 . S
C111 O98 1.258 . S
C111 O99 1.242 . S
H112 C84 0.930 . S
H113 C85 0.930 . S
H114 C86 0.930 . S
H115 C87 0.931 . S
H116 C105 0.930 . S
H117 C106 0.930 . S
H118 C107 0.930 . S
H119 C108 0.931 . S
Eu120 C129 2.828 . S
Eu120 O131 2.392 . S
Eu120 O133 2.418 . S
Eu120 O138 2.373 . S
Eu120 O141 2.488 . S
Eu120 O142 2.471 . S
Eu120 O143 2.349 . S
Eu121 O130 2.373 . S
Eu121 O134 2.488 . S
Eu121 O135 2.471 . S
Eu121 O136 2.349 . S
Eu121 O139 2.392 . S
Eu121 O140 2.418 . S
Eu121 C150 2.828 . S
C122 O140 1.244 . S
C122 O143 1.265 . S
C123 C124 1.379 . S
C123 C127 1.373 . S
C123 C129 1.505 . S
C124 C123 1.379 . S
C124 C126 1.369 . S
C124 H152 0.930 . S
C125 C127 1.383 . S
C125 C128 1.382 . S
C125 H153 0.930 . S
C126 C124 1.369 . S
C126 C128 1.392 . S
C126 H154 0.930 . S
C127 C123 1.373 . S
C127 C125 1.383 . S
C127 H155 0.931 . S
C128 C125 1.382 . S
C128 C126 1.392 . S
C129 Eu120 2.828 . S
C129 C123 1.505 . S
C129 O141 1.249 . S
C129 O142 1.244 . S
O130 Eu121 2.373 . S
O130 C132 1.258 . S
O131 Eu120 2.392 . S
O131 C132 1.242 . S
C132 O130 1.258 . S
C132 O131 1.242 . S
O133 Eu120 2.418 . S
O133 C137 1.244 . S
O134 Eu121 2.488 . S
O134 C150 1.249 . S
O135 Eu121 2.471 . S
O135 C150 1.244 . S
O136 Eu121 2.349 . S
O136 C137 1.265 . S
C137 O133 1.244 . S
C137 O136 1.265 . S
O138 Eu120 2.373 . S
O138 C151 1.258 . S
O139 Eu121 2.392 . S
O139 C151 1.242 . S
O140 Eu121 2.418 . S
O140 C122 1.244 . S
O141 Eu120 2.488 . S
O141 C129 1.249 . S
O142 Eu120 2.471 . S
O142 C129 1.244 . S
O143 Eu120 2.349 . S
O143 C122 1.265 . S
C144 C145 1.379 . S
C144 C148 1.373 . S
C144 C150 1.505 . S
C145 C144 1.379 . S
C145 C147 1.369 . S
C145 H156 0.930 . S
C146 C148 1.383 . S
C146 C149 1.382 . S
C146 H157 0.930 . S
C147 C145 1.369 . S
C147 C149 1.392 . S
C147 H158 0.930 . S
C148 C144 1.373 . S
C148 C146 1.383 . S
C148 H159 0.931 . S
C149 C146 1.382 . S
C149 C147 1.392 . S
C150 Eu121 2.828 . S
C150 O134 1.249 . S
C150 O135 1.244 . S
C150 C144 1.505 . S
C151 O138 1.258 . S
C151 O139 1.242 . S
H152 C124 0.930 . S
H153 C125 0.930 . S
H154 C126 0.930 . S
H155 C127 0.931 . S
H156 C145 0.930 . S
H157 C146 0.930 . S
H158 C147 0.930 . S
H159 C148 0.931 . S
Eu160 C169 2.828 . S
Eu160 O171 2.392 . S
Eu160 O173 2.418 . S
Eu160 O178 2.373 . S
Eu160 O181 2.488 . S
Eu160 O182 2.471 . S
Eu160 O183 2.349 . S
Eu161 O170 2.373 . S
Eu161 O174 2.488 . S
Eu161 O175 2.471 . S
Eu161 O176 2.349 . S
Eu161 O179 2.392 . S
Eu161 O180 2.418 . S
Eu161 C190 2.828 . S
C162 O180 1.244 . S
C162 O183 1.265 . S
C163 C164 1.379 . S
C163 C167 1.373 . S
C163 C169 1.505 . S
C164 C163 1.379 . S
C164 C166 1.369 . S
C164 H192 0.930 . S
C165 C167 1.383 . S
C165 C168 1.382 . S
C165 H193 0.930 . S
C166 C164 1.369 . S
C166 C168 1.392 . S
C166 H194 0.930 . S
C167 C163 1.373 . S
C167 C165 1.383 . S
C167 H195 0.931 . S
C168 C165 1.382 . S
C168 C166 1.392 . S
C169 Eu160 2.828 . S
C169 C163 1.505 . S
C169 O181 1.249 . S
C169 O182 1.244 . S
O170 Eu161 2.373 . S
O170 C172 1.258 . S
O171 Eu160 2.392 . S
O171 C172 1.242 . S
C172 O170 1.258 . S
C172 O171 1.242 . S
O173 Eu160 2.418 . S
O173 C177 1.244 . S
O174 Eu161 2.488 . S
O174 C190 1.249 . S
O175 Eu161 2.471 . S
O175 C190 1.244 . S
O176 Eu161 2.349 . S
O176 C177 1.265 . S
C177 O173 1.244 . S
C177 O176 1.265 . S
O178 Eu160 2.373 . S
O178 C191 1.258 . S
O179 Eu161 2.392 . S
O179 C191 1.242 . S
O180 Eu161 2.418 . S
O180 C162 1.244 . S
O181 Eu160 2.488 . S
O181 C169 1.249 . S
O182 Eu160 2.471 . S
O182 C169 1.244 . S
O183 Eu160 2.349 . S
O183 C162 1.265 . S
C184 C185 1.379 . S
C184 C188 1.373 . S
C184 C190 1.505 . S
C185 C184 1.379 . S
C185 C187 1.369 . S
C185 H196 0.930 . S
C186 C188 1.383 . S
C186 C189 1.382 . S
C186 H197 0.930 . S
C187 C185 1.369 . S
C187 C189 1.392 . S
C187 H198 0.930 . S
C188 C184 1.373 . S
C188 C186 1.383 . S
C188 H199 0.931 . S
C189 C186 1.382 . S
C189 C187 1.392 . S
C190 Eu161 2.828 . S
C190 O174 1.249 . S
C190 O175 1.244 . S
C190 C184 1.505 . S
C191 O178 1.258 . S
C191 O179 1.242 . S
H192 C164 0.930 . S
H193 C165 0.930 . S
H194 C166 0.930 . S
H195 C167 0.931 . S
H196 C185 0.930 . S
H197 C186 0.930 . S
H198 C187 0.930 . S
H199 C188 0.931 . S
Eu200 C209 2.828 . S
Eu200 O211 2.392 . S
Eu200 O213 2.418 . S
Eu200 O218 2.373 . S
Eu200 O221 2.488 . S
Eu200 O222 2.471 . S
Eu200 O223 2.349 . S
Eu201 O210 2.373 . S
Eu201 O214 2.488 . S
Eu201 O215 2.471 . S
Eu201 O216 2.349 . S
Eu201 O219 2.392 . S
Eu201 O220 2.418 . S
Eu201 C230 2.828 . S
C202 O220 1.244 . S
C202 O223 1.265 . S
C203 C204 1.379 . S
C203 C207 1.373 . S
C203 C209 1.505 . S
C204 C203 1.379 . S
C204 C206 1.369 . S
C204 H232 0.930 . S
C205 C207 1.383 . S
C205 C208 1.382 . S
C205 H233 0.930 . S
C206 C204 1.369 . S
C206 C208 1.392 . S
C206 H234 0.930 . S
C207 C203 1.373 . S
C207 C205 1.383 . S
C207 H235 0.931 . S
C208 C205 1.382 . S
C208 C206 1.392 . S
C209 Eu200 2.828 . S
C209 C203 1.505 . S
C209 O221 1.249 . S
C209 O222 1.244 . S
O210 Eu201 2.373 . S
O210 C212 1.258 . S
O211 Eu200 2.392 . S
O211 C212 1.242 . S
C212 O210 1.258 . S
C212 O211 1.242 . S
O213 Eu200 2.418 . S
O213 C217 1.244 . S
O214 Eu201 2.488 . S
O214 C230 1.249 . S
O215 Eu201 2.471 . S
O215 C230 1.244 . S
O216 Eu201 2.349 . S
O216 C217 1.265 . S
C217 O213 1.244 . S
C217 O216 1.265 . S
O218 Eu200 2.373 . S
O218 C231 1.258 . S
O219 Eu201 2.392 . S
O219 C231 1.242 . S
O220 Eu201 2.418 . S
O220 C202 1.244 . S
O221 Eu200 2.488 . S
O221 C209 1.249 . S
O222 Eu200 2.471 . S
O222 C209 1.244 . S
O223 Eu200 2.349 . S
O223 C202 1.265 . S
C224 C225 1.379 . S
C224 C228 1.373 . S
C224 C230 1.505 . S
C225 C224 1.379 . S
C225 C227 1.369 . S
C225 H236 0.930 . S
C226 C228 1.383 . S
C226 C229 1.382 . S
C226 H237 0.930 . S
C227 C225 1.369 . S
C227 C229 1.392 . S
C227 H238 0.930 . S
C228 C224 1.373 . S
C228 C226 1.383 . S
C228 H239 0.931 . S
C229 C226 1.382 . S
C229 C227 1.392 . S
C230 Eu201 2.828 . S
C230 O214 1.249 . S
C230 O215 1.244 . S
C230 C224 1.505 . S
C231 O218 1.258 . S
C231 O219 1.242 . S
H232 C204 0.930 . S
H233 C205 0.930 . S
H234 C206 0.930 . S
H235 C207 0.931 . S
H236 C225 0.930 . S
H237 C226 0.930 . S
H238 C227 0.930 . S
H239 C228 0.931 . S
Eu240 C249 2.828 . S
Eu240 O251 2.392 . S
Eu240 O253 2.418 . S
Eu240 O258 2.373 . S
Eu240 O261 2.488 . S
Eu240 O262 2.471 . S
Eu240 O263 2.349 . S
Eu241 O250 2.373 . S
Eu241 O254 2.488 . S
Eu241 O255 2.471 . S
Eu241 O256 2.349 . S
Eu241 O259 2.392 . S
Eu241 O260 2.418 . S
Eu241 C270 2.828 . S
C242 O260 1.244 . S
C242 O263 1.265 . S
C243 C244 1.379 . S
C243 C247 1.373 . S
C243 C249 1.505 . S
C244 C243 1.379 . S
C244 C246 1.369 . S
C244 H272 0.930 . S
C245 C247 1.383 . S
C245 C248 1.382 . S
C245 H273 0.930 . S
C246 C244 1.369 . S
C246 C248 1.392 . S
C246 H274 0.930 . S
C247 C243 1.373 . S
C247 C245 1.383 . S
C247 H275 0.931 . S
C248 C245 1.382 . S
C248 C246 1.392 . S
C249 Eu240 2.828 . S
C249 C243 1.505 . S
C249 O261 1.249 . S
C249 O262 1.244 . S
O250 Eu241 2.373 . S
O250 C252 1.258 . S
O251 Eu240 2.392 . S
O251 C252 1.242 . S
C252 O250 1.258 . S
C252 O251 1.242 . S
O253 Eu240 2.418 . S
O253 C257 1.244 . S
O254 Eu241 2.488 . S
O254 C270 1.249 . S
O255 Eu241 2.471 . S
O255 C270 1.244 . S
O256 Eu241 2.349 . S
O256 C257 1.265 . S
C257 O253 1.244 . S
C257 O256 1.265 . S
O258 Eu240 2.373 . S
O258 C271 1.258 . S
O259 Eu241 2.392 . S
O259 C271 1.242 . S
O260 Eu241 2.418 . S
O260 C242 1.244 . S
O261 Eu240 2.488 . S
O261 C249 1.249 . S
O262 Eu240 2.471 . S
O262 C249 1.244 . S
O263 Eu240 2.349 . S
O263 C242 1.265 . S
C264 C265 1.379 . S
C264 C268 1.373 . S
C264 C270 1.505 . S
C265 C264 1.379 . S
C265 C267 1.369 . S
C265 H276 0.930 . S
C266 C268 1.383 . S
C266 C269 1.382 . S
C266 H277 0.930 . S
C267 C265 1.369 . S
C267 C269 1.392 . S
C267 H278 0.930 . S
C268 C264 1.373 . S
C268 C266 1.383 . S
C268 H279 0.931 . S
C269 C266 1.382 . S
C269 C267 1.392 . S
C270 Eu241 2.828 . S
C270 O254 1.249 . S
C270 O255 1.244 . S
C270 C264 1.505 . S
C271 O258 1.258 . S
C271 O259 1.242 . S
H272 C244 0.930 . S
H273 C245 0.930 . S
H274 C246 0.930 . S
H275 C247 0.931 . S
H276 C265 0.930 . S
H277 C266 0.930 . S
H278 C267 0.930 . S
H279 C268 0.931 . S
Eu280 C289 2.828 . S
Eu280 O291 2.392 . S
Eu280 O293 2.418 . S
Eu280 O298 2.373 . S
Eu280 O301 2.488 . S
Eu280 O302 2.471 . S
Eu280 O303 2.349 . S
Eu281 O290 2.373 . S
Eu281 O294 2.488 . S
Eu281 O295 2.471 . S
Eu281 O296 2.349 . S
Eu281 O299 2.392 . S
Eu281 O300 2.418 . S
Eu281 C310 2.828 . S
C282 O300 1.244 . S
C282 O303 1.265 . S
C283 C284 1.379 . S
C283 C287 1.373 . S
C283 C289 1.505 . S
C284 C283 1.379 . S
C284 C286 1.369 . S
C284 H312 0.930 . S
C285 C287 1.383 . S
C285 C288 1.382 . S
C285 H313 0.930 . S
C286 C284 1.369 . S
C286 C288 1.392 . S
C286 H314 0.930 . S
C287 C283 1.373 . S
C287 C285 1.383 . S
C287 H315 0.931 . S
C288 C285 1.382 . S
C288 C286 1.392 . S
C289 Eu280 2.828 . S
C289 C283 1.505 . S
C289 O301 1.249 . S
C289 O302 1.244 . S
O290 Eu281 2.373 . S
O290 C292 1.258 . S
O291 Eu280 2.392 . S
O291 C292 1.242 . S
C292 O290 1.258 . S
C292 O291 1.242 . S
O293 Eu280 2.418 . S
O293 C297 1.244 . S
O294 Eu281 2.488 . S
O294 C310 1.249 . S
O295 Eu281 2.471 . S
O295 C310 1.244 . S
O296 Eu281 2.349 . S
O296 C297 1.265 . S
C297 O293 1.244 . S
C297 O296 1.265 . S
O298 Eu280 2.373 . S
O298 C311 1.258 . S
O299 Eu281 2.392 . S
O299 C311 1.242 . S
O300 Eu281 2.418 . S
O300 C282 1.244 . S
O301 Eu280 2.488 . S
O301 C289 1.249 . S
O302 Eu280 2.471 . S
O302 C289 1.244 . S
O303 Eu280 2.349 . S
O303 C282 1.265 . S
C304 C305 1.379 . S
C304 C308 1.373 . S
C304 C310 1.505 . S
C305 C304 1.379 . S
C305 C307 1.369 . S
C305 H316 0.930 . S
C306 C308 1.383 . S
C306 C309 1.382 . S
C306 H317 0.930 . S
C307 C305 1.369 . S
C307 C309 1.392 . S
C307 H318 0.930 . S
C308 C304 1.373 . S
C308 C306 1.383 . S
C308 H319 0.931 . S
C309 C306 1.382 . S
C309 C307 1.392 . S
C310 Eu281 2.828 . S
C310 O294 1.249 . S
C310 O295 1.244 . S
C310 C304 1.505 . S
C311 O298 1.258 . S
C311 O299 1.242 . S
H312 C284 0.930 . S
H313 C285 0.930 . S
H314 C286 0.930 . S
H315 C287 0.931 . S
H316 C305 0.930 . S
H317 C306 0.930 . S
H318 C307 0.930 . S
H319 C308 0.931 . S
Fe320 O321 1.886 1_455 S
Fe320 O324 1.715 . S
Fe320 O329 2.077 1_455 S
Fe320 O334 1.935 . S
Fe320 O340 2.077 1_455 S
Fe320 O349 1.935 . S
O321 Fe320 1.886 1_655 S
O321 Fe323 1.715 1_545 S
Fe322 O324 1.886 . S
Fe322 O325 1.715 1_545 S
Fe322 O332 1.935 1_545 S
Fe322 O333 2.077 . S
Fe322 O339 1.935 1_545 S
Fe322 O348 2.077 . S
Fe323 O321 1.715 1_565 S
Fe323 O326 1.886 . S
Fe323 O330 1.935 1_565 S
Fe323 O335 2.077 . S
Fe323 O341 1.935 1_565 S
Fe323 O345 2.077 . S
O324 Fe320 1.715 . S
O324 Fe322 1.886 . S
O325 Fe322 1.715 1_565 S
O325 Fe327 1.886 1_455 S
O326 Fe323 1.886 . S
O326 Fe327 1.715 . S
Fe327 O325 1.886 1_655 S
Fe327 O326 1.715 . S
Fe327 O331 2.077 1_655 S
Fe327 O336 1.935 . S
Fe327 O338 2.077 1_655 S
Fe327 O346 1.935 . S
C328 O340 1.381 . S
C328 O341 1.421 . S
O329 Fe320 2.077 1_655 S
O329 C342 1.381 . S
O330 Fe323 1.935 1_545 S
O330 C342 1.421 . S
O331 Fe327 2.077 1_455 S
O331 C347 1.381 . S
O332 Fe322 1.935 1_565 S
O332 C347 1.421 . S
O333 Fe322 2.077 . S
O333 C337 1.381 . S
O334 Fe320 1.935 . S
O334 C337 1.421 . S
O335 Fe323 2.077 . S
O335 C343 1.381 . S
O336 Fe327 1.935 . S
O336 C343 1.421 . S
C337 O333 1.381 . S
C337 O334 1.421 . S
O338 Fe327 2.077 1_455 S
O338 C350 1.381 . S
O339 Fe322 1.935 1_565 S
O339 C350 1.421 . S
O340 Fe320 2.077 1_655 S
O340 C328 1.381 . S
O341 Fe323 1.935 1_545 S
O341 C328 1.421 . S
C342 O329 1.381 . S
C342 O330 1.421 . S
C343 O335 1.381 . S
C343 O336 1.421 . S
C344 O345 1.381 . S
C344 O346 1.421 . S
O345 Fe323 2.077 . S
O345 C344 1.381 . S
O346 Fe327 1.935 . S
O346 C344 1.421 . S
C347 O331 1.381 . S
C347 O332 1.421 . S
O348 Fe322 2.077 . S
O348 C351 1.381 . S
O349 Fe320 1.935 . S
O349 C351 1.421 . S
C350 O338 1.381 . S
C350 O339 1.421 . S
C351 O348 1.381 . S
C351 O349 1.421 . S
Fe352 O353 1.886 . S
Fe352 O356 1.715 . S
Fe352 O361 2.077 . S
Fe352 O366 1.935 . S
Fe352 O372 2.077 1_556 S
Fe352 O381 1.935 1_556 S
O353 Fe352 1.886 . S
O353 Fe355 1.715 1_565 S
Fe354 O356 1.886 1_554 S
Fe354 O357 1.715 1_565 S
Fe354 O364 1.935 1_564 S
Fe354 O365 2.077 1_554 S
Fe354 O371 1.935 1_565 S
Fe354 O380 2.077 . S
Fe355 O353 1.715 1_545 S
Fe355 O358 1.886 1_556 S
Fe355 O362 1.935 1_545 S
Fe355 O367 2.077 . S
Fe355 O373 1.935 1_546 S
Fe355 O377 2.077 1_556 S
O356 Fe352 1.715 . S
O356 Fe354 1.886 1_556 S
O357 Fe354 1.715 1_545 S
O357 Fe359 1.886 . S
O358 Fe355 1.886 1_554 S
O358 Fe359 1.715 . S
Fe359 O357 1.886 . S
Fe359 O358 1.715 . S
Fe359 O363 2.077 1_554 S
Fe359 O368 1.935 1_554 S
Fe359 O370 2.077 . S
Fe359 O378 1.935 . S
C360 O372 1.381 . S
C360 O373 1.421 . S
O361 Fe352 2.077 . S
O361 C374 1.381 . S
O362 Fe355 1.935 1_565 S
O362 C374 1.421 . S
O363 Fe359 2.077 1_556 S
O363 C379 1.381 . S
O364 Fe354 1.935 1_546 S
O364 C379 1.421 . S
O365 Fe354 2.077 1_556 S
O365 C369 1.381 . S
O366 Fe352 1.935 . S
O366 C369 1.421 . S
O367 Fe355 2.077 . S
O367 C375 1.381 . S
O368 Fe359 1.935 1_556 S
O368 C375 1.421 . S
C369 O365 1.381 . S
C369 O366 1.421 . S
O370 Fe359 2.077 . S
O370 C382 1.381 . S
O371 Fe354 1.935 1_545 S
O371 C382 1.421 . S
O372 Fe352 2.077 1_554 S
O372 C360 1.381 . S
O373 Fe355 1.935 1_564 S
O373 C360 1.421 . S
C374 O361 1.381 . S
C374 O362 1.421 . S
C375 O367 1.381 . S
C375 O368 1.421 . S
C376 O377 1.381 . S
C376 O378 1.421 . S
O377 Fe355 2.077 1_554 S
O377 C376 1.381 . S
O378 Fe359 1.935 . S
O378 C376 1.421 . S
C379 O363 1.381 . S
C379 O364 1.421 . S
O380 Fe354 2.077 . S
O380 C383 1.381 . S
O381 Fe352 1.935 1_554 S
O381 C383 1.421 . S
C382 O370 1.381 . S
C382 O371 1.421 . S
C383 O380 1.381 . S
C383 O381 1.421 . S
Fe384 O385 1.886 1_455 S
Fe384 O388 1.715 . S
Fe384 O393 2.077 1_454 S
Fe384 O398 1.935 1_554 S
Fe384 O404 2.077 1_455 S
Fe384 O413 1.935 . S
O385 Fe384 1.886 1_655 S
O385 Fe387 1.715 . S
Fe386 O388 1.886 1_556 S
Fe386 O389 1.715 . S
Fe386 O396 1.935 . S
Fe386 O397 2.077 . S
Fe386 O403 1.935 1_556 S
Fe386 O412 2.077 1_556 S
Fe387 O385 1.715 . S
Fe387 O390 1.886 1_554 S
Fe387 O394 1.935 1_554 S
Fe387 O399 2.077 1_554 S
Fe387 O405 1.935 . S
Fe387 O409 2.077 . S
O388 Fe384 1.715 . S
O388 Fe386 1.886 1_554 S
O389 Fe386 1.715 . S
O389 Fe391 1.886 1_455 S
O390 Fe387 1.886 1_556 S
O390 Fe391 1.715 . S
Fe391 O389 1.886 1_655 S
Fe391 O390 1.715 . S
Fe391 O395 2.077 1_655 S
Fe391 O400 1.935 . S
Fe391 O402 2.077 1_656 S
Fe391 O410 1.935 1_556 S
C392 O404 1.381 . S
C392 O405 1.421 . S
O393 Fe384 2.077 1_656 S
O393 C406 1.381 . S
O394 Fe387 1.935 1_556 S
O394 C406 1.421 . S
O395 Fe391 2.077 1_455 S
O395 C411 1.381 . S
O396 Fe386 1.935 . S
O396 C411 1.421 . S
O397 Fe386 2.077 . S
O397 C401 1.381 . S
O398 Fe384 1.935 1_556 S
O398 C401 1.421 . S
O399 Fe387 2.077 1_556 S
O399 C407 1.381 . S
O400 Fe391 1.935 . S
O400 C407 1.421 . S
C401 O397 1.381 . S
C401 O398 1.421 . S
O402 Fe391 2.077 1_454 S
O402 C414 1.381 . S
O403 Fe386 1.935 1_554 S
O403 C414 1.421 . S
O404 Fe384 2.077 1_655 S
O404 C392 1.381 . S
O405 Fe387 1.935 . S
O405 C392 1.421 . S
C406 O393 1.381 . S
C406 O394 1.421 . S
C407 O399 1.381 . S
C407 O400 1.421 . S
C408 O409 1.381 . S
C408 O410 1.421 . S
O409 Fe387 2.077 . S
O409 C408 1.381 . S
O410 Fe391 1.935 1_554 S
O410 C408 1.421 . S
C411 O395 1.381 . S
C411 O396 1.421 . S
O412 Fe386 2.077 1_554 S
O412 C415 1.381 . S
O413 Fe384 1.935 . S
O413 C415 1.421 . S
C414 O402 1.381 . S
C414 O403 1.421 . S
C415 O412 1.381 . S
C415 O413 1.421 . S
Fe416 O417 1.886 . S
Fe416 O420 1.715 . S
Fe416 O425 2.077 . S
Fe416 O430 1.935 . S
Fe416 O436 2.077 . S
Fe416 O445 1.935 . S
O417 Fe416 1.886 . S
O417 Fe419 1.715 . S
Fe418 O420 1.886 1_554 S
Fe418 O421 1.715 . S
Fe418 O428 1.935 . S
Fe418 O429 2.077 1_554 S
Fe418 O435 1.935 . S
Fe418 O444 2.077 1_554 S
Fe419 O417 1.715 . S
Fe419 O422 1.886 1_556 S
Fe419 O426 1.935 . S
Fe419 O431 2.077 1_556 S
Fe419 O437 1.935 . S
Fe419 O441 2.077 1_556 S
O420 Fe416 1.715 . S
O420 Fe418 1.886 1_556 S
O421 Fe418 1.715 . S
O421 Fe423 1.886 . S
O422 Fe419 1.886 1_554 S
O422 Fe423 1.715 . S
Fe423 O421 1.886 . S
Fe423 O422 1.715 . S
Fe423 O427 2.077 . S
Fe423 O432 1.935 . S
Fe423 O434 2.077 . S
Fe423 O442 1.935 . S
C424 O436 1.381 . S
C424 O437 1.421 . S
O425 Fe416 2.077 . S
O425 C438 1.381 . S
O426 Fe419 1.935 . S
O426 C438 1.421 . S
O427 Fe423 2.077 . S
O427 C443 1.381 . S
O428 Fe418 1.935 . S
O428 C443 1.421 . S
O429 Fe418 2.077 1_556 S
O429 C433 1.381 . S
O430 Fe416 1.935 . S
O430 C433 1.421 . S
O431 Fe419 2.077 1_554 S
O431 C439 1.381 . S
O432 Fe423 1.935 . S
O432 C439 1.421 . S
C433 O429 1.381 . S
C433 O430 1.421 . S
O434 Fe423 2.077 . S
O434 C446 1.381 . S
O435 Fe418 1.935 . S
O435 C446 1.421 . S
O436 Fe416 2.077 . S
O436 C424 1.381 . S
O437 Fe419 1.935 . S
O437 C424 1.421 . S
C438 O425 1.381 . S
C438 O426 1.421 . S
C439 O431 1.381 . S
C439 O432 1.421 . S
C440 O441 1.381 . S
C440 O442 1.421 . S
O441 Fe419 2.077 1_554 S
O441 C440 1.381 . S
O442 Fe423 1.935 . S
O442 C440 1.421 . S
C443 O427 1.381 . S
C443 O428 1.421 . S
O444 Fe418 2.077 1_556 S
O444 C447 1.381 . S
O445 Fe416 1.935 . S
O445 C447 1.421 . S
C446 O434 1.381 . S
C446 O435 1.421 . S
C447 O444 1.381 . S
C447 O445 1.421 . S
Fe448 O449 1.886 . S
Fe448 O452 1.715 . S
Fe448 O457 2.077 1_655 S
Fe448 O462 1.935 1_655 S
Fe448 O468 2.077 . S
Fe448 O477 1.935 . S
O449 Fe448 1.886 . S
O449 Fe451 1.715 . S
Fe450 O452 1.886 1_455 S
Fe450 O453 1.715 . S
Fe450 O460 1.935 . S
Fe450 O461 2.077 . S
Fe450 O467 1.935 1_455 S
Fe450 O476 2.077 1_455 S
Fe451 O449 1.715 . S
Fe451 O454 1.886 1_655 S
Fe451 O458 1.935 1_655 S
Fe451 O463 2.077 1_655 S
Fe451 O469 1.935 . S
Fe451 O473 2.077 . S
O452 Fe448 1.715 . S
O452 Fe450 1.886 1_655 S
O453 Fe450 1.715 . S
O453 Fe455 1.886 . S
O454 Fe451 1.886 1_455 S
O454 Fe455 1.715 . S
Fe455 O453 1.886 . S
Fe455 O454 1.715 . S
Fe455 O459 2.077 . S
Fe455 O464 1.935 . S
Fe455 O466 2.077 1_455 S
Fe455 O474 1.935 1_455 S
C456 O468 1.381 . S
C456 O469 1.421 . S
O457 Fe448 2.077 1_455 S
O457 C470 1.381 . S
O458 Fe451 1.935 1_455 S
O458 C470 1.421 . S
O459 Fe455 2.077 . S
O459 C475 1.381 . S
O460 Fe450 1.935 . S
O460 C475 1.421 . S
O461 Fe450 2.077 . S
O461 C465 1.381 . S
O462 Fe448 1.935 1_455 S
O462 C465 1.421 . S
O463 Fe451 2.077 1_455 S
O463 C471 1.381 . S
O464 Fe455 1.935 . S
O464 C471 1.421 . S
C465 O461 1.381 . S
C465 O462 1.421 . S
O466 Fe455 2.077 1_655 S
O466 C478 1.381 . S
O467 Fe450 1.935 1_655 S
O467 C478 1.421 . S
O468 Fe448 2.077 . S
O468 C456 1.381 . S
O469 Fe451 1.935 . S
O469 C456 1.421 . S
C470 O457 1.381 . S
C470 O458 1.421 . S
C471 O463 1.381 . S
C471 O464 1.421 . S
C472 O473 1.381 . S
C472 O474 1.421 . S
O473 Fe451 2.077 . S
O473 C472 1.381 . S
O474 Fe455 1.935 1_655 S
O474 C472 1.421 . S
C475 O459 1.381 . S
C475 O460 1.421 . S
O476 Fe450 2.077 1_655 S
O476 C479 1.381 . S
O477 Fe448 1.935 . S
O477 C479 1.421 . S
C478 O466 1.381 . S
C478 O467 1.421 . S
C479 O476 1.381 . S
C479 O477 1.421 . S
Fe480 O481 1.886 . S
Fe480 O484 1.715 . S
Fe480 O489 2.077 . S
Fe480 O494 1.935 . S
Fe480 O500 2.077 . S
Fe480 O509 1.935 . S
O481 Fe480 1.886 . S
O481 Fe483 1.715 1_565 S
Fe482 O484 1.886 . S
Fe482 O485 1.715 1_565 S
Fe482 O492 1.935 1_565 S
Fe482 O493 2.077 . S
Fe482 O499 1.935 1_565 S
Fe482 O508 2.077 . S
Fe483 O481 1.715 1_545 S
Fe483 O486 1.886 . S
Fe483 O490 1.935 1_545 S
Fe483 O495 2.077 . S
Fe483 O501 1.935 1_545 S
Fe483 O505 2.077 . S
O484 Fe480 1.715 . S
O484 Fe482 1.886 . S
O485 Fe482 1.715 1_545 S
O485 Fe487 1.886 . S
O486 Fe483 1.886 . S
O486 Fe487 1.715 . S
Fe487 O485 1.886 . S
Fe487 O486 1.715 . S
Fe487 O491 2.077 . S
Fe487 O496 1.935 . S
Fe487 O498 2.077 . S
Fe487 O506 1.935 . S
C488 O500 1.381 . S
C488 O501 1.421 . S
O489 Fe480 2.077 . S
O489 C502 1.381 . S
O490 Fe483 1.935 1_565 S
O490 C502 1.421 . S
O491 Fe487 2.077 . S
O491 C507 1.381 . S
O492 Fe482 1.935 1_545 S
O492 C507 1.421 . S
O493 Fe482 2.077 . S
O493 C497 1.381 . S
O494 Fe480 1.935 . S
O494 C497 1.421 . S
O495 Fe483 2.077 . S
O495 C503 1.381 . S
O496 Fe487 1.935 . S
O496 C503 1.421 . S
C497 O493 1.381 . S
C497 O494 1.421 . S
O498 Fe487 2.077 . S
O498 C510 1.381 . S
O499 Fe482 1.935 1_545 S
O499 C510 1.421 . S
O500 Fe480 2.077 . S
O500 C488 1.381 . S
O501 Fe483 1.935 1_565 S
O501 C488 1.421 . S
C502 O489 1.381 . S
C502 O490 1.421 . S
C503 O495 1.381 . S
C503 O496 1.421 . S
C504 O505 1.381 . S
C504 O506 1.421 . S
O505 Fe483 2.077 . S
O505 C504 1.381 . S
O506 Fe487 1.935 . S
O506 C504 1.421 . S
C507 O491 1.381 . S
C507 O492 1.421 . S
O508 Fe482 2.077 . S
O508 C511 1.381 . S
O509 Fe480 1.935 . S
O509 C511 1.421 . S
C510 O498 1.381 . S
C510 O499 1.421 . S
C511 O508 1.381 . S
C511 O509 1.421 . S
C512 C513 1.391 . S
C512 C514 1.394 . S
C512 H528 0.931 . S
C513 C512 1.391 . S
C513 C517 1.376 . S
C514 C512 1.394 . S
C514 C515 1.369 . S
C514 C518 1.531 . S
C515 C514 1.369 . S
C515 C516 1.410 . S
C515 C523 1.503 . S
C516 C515 1.410 . S
C516 C517 1.392 . S
C516 C519 1.511 . S
C517 C513 1.376 . S
C517 C516 1.392 . S
C517 H529 0.929 . S
C518 C514 1.531 . S
C518 H530 0.960 . S
C518 H531 0.962 . S
C518 H532 0.960 . S
C519 C516 1.511 . S
C519 H533 0.961 . S
C519 H534 0.961 . S
C519 H535 0.961 . S
C520 C521 1.370 . S
C520 C522 1.363 . S
C520 H536 0.931 . S
C521 C520 1.370 . S
C521 C525 1.408 . S
C522 C520 1.363 . S
C522 C523 1.370 . S
C522 C526 1.524 . S
C523 C515 1.503 . S
C523 C522 1.370 . S
C523 C524 1.403 . S
C524 C523 1.403 . S
C524 C525 1.404 . S
C524 C527 1.539 . S
C525 C521 1.408 . S
C525 C524 1.404 . S
C525 H537 0.930 . S
C526 C522 1.524 . S
C526 H538 0.956 . S
C526 H539 0.961 . S
C526 H540 0.961 . S
C527 C524 1.539 . S
C527 H541 0.958 . S
C527 H542 0.961 . S
C527 H543 0.960 . S
H528 C512 0.931 . S
H529 C517 0.929 . S
H530 C518 0.960 . S
H531 C518 0.962 . S
H532 C518 0.960 . S
H533 C519 0.961 . S
H534 C519 0.961 . S
H535 C519 0.961 . S
H536 C520 0.931 . S
H537 C525 0.930 . S
H538 C526 0.956 . S
H539 C526 0.961 . S
H540 C526 0.961 . S
H541 C527 0.958 . S
H542 C527 0.961 . S
H543 C527 0.960 . S
C544 C545 1.391 . S
C544 C546 1.394 . S
C544 H560 0.931 . S
C545 C544 1.391 . S
C545 C549 1.376 . S
C546 C544 1.394 . S
C546 C547 1.369 . S
C546 C550 1.531 . S
C547 C546 1.369 . S
C547 C548 1.410 . S
C547 C555 1.503 . S
C548 C547 1.410 . S
C548 C549 1.392 . S
C548 C551 1.511 . S
C549 C545 1.376 . S
C549 C548 1.392 . S
C549 H561 0.929 . S
C550 C546 1.531 . S
C550 H562 0.960 . S
C550 H563 0.962 . S
C550 H564 0.960 . S
C551 C548 1.511 . S
C551 H565 0.961 . S
C551 H566 0.961 . S
C551 H567 0.961 . S
C552 C553 1.370 . S
C552 C554 1.363 . S
C552 H568 0.931 . S
C553 C552 1.370 . S
C553 C557 1.408 . S
C554 C552 1.363 . S
C554 C555 1.370 . S
C554 C558 1.524 . S
C555 C547 1.503 . S
C555 C554 1.370 . S
C555 C556 1.403 . S
C556 C555 1.403 . S
C556 C557 1.404 . S
C556 C559 1.539 . S
C557 C553 1.408 . S
C557 C556 1.404 . S
C557 H569 0.930 . S
C558 C554 1.524 . S
C558 H570 0.956 . S
C558 H571 0.961 . S
C558 H572 0.961 . S
C559 C556 1.539 . S
C559 H573 0.958 . S
C559 H574 0.961 . S
C559 H575 0.960 . S
H560 C544 0.931 . S
H561 C549 0.929 . S
H562 C550 0.960 . S
H563 C550 0.962 . S
H564 C550 0.960 . S
H565 C551 0.961 . S
H566 C551 0.961 . S
H567 C551 0.961 . S
H568 C552 0.931 . S
H569 C557 0.930 . S
H570 C558 0.956 . S
H571 C558 0.961 . S
H572 C558 0.961 . S
H573 C559 0.958 . S
H574 C559 0.961 . S
H575 C559 0.960 . S
C576 C577 1.391 . S
C576 C578 1.394 . S
C576 H592 0.931 . S
C577 C576 1.391 . S
C577 C581 1.376 . S
C578 C576 1.394 . S
C578 C579 1.369 . S
C578 C582 1.531 . S
C579 C578 1.369 . S
C579 C580 1.410 . S
C579 C587 1.503 . S
C580 C579 1.410 . S
C580 C581 1.392 . S
C580 C583 1.511 . S
C581 C577 1.376 . S
C581 C580 1.392 . S
C581 H593 0.929 . S
C582 C578 1.531 . S
C582 H594 0.960 . S
C582 H595 0.962 . S
C582 H596 0.960 . S
C583 C580 1.511 . S
C583 H597 0.961 . S
C583 H598 0.961 . S
C583 H599 0.961 . S
C584 C585 1.370 . S
C584 C586 1.363 . S
C584 H600 0.931 . S
C585 C584 1.370 . S
C585 C589 1.408 . S
C586 C584 1.363 . S
C586 C587 1.370 . S
C586 C590 1.524 . S
C587 C579 1.503 . S
C587 C586 1.370 . S
C587 C588 1.403 . S
C588 C587 1.403 . S
C588 C589 1.404 . S
C588 C591 1.539 . S
C589 C585 1.408 . S
C589 C588 1.404 . S
C589 H601 0.930 . S
C590 C586 1.524 . S
C590 H602 0.956 . S
C590 H603 0.961 . S
C590 H604 0.961 . S
C591 C588 1.539 . S
C591 H605 0.958 . S
C591 H606 0.961 . S
C591 H607 0.960 . S
H592 C576 0.931 . S
H593 C581 0.929 . S
H594 C582 0.960 . S
H595 C582 0.962 . S
H596 C582 0.960 . S
H597 C583 0.961 . S
H598 C583 0.961 . S
H599 C583 0.961 . S
H600 C584 0.931 . S
H601 C589 0.930 . S
H602 C590 0.956 . S
H603 C590 0.961 . S
H604 C590 0.961 . S
H605 C591 0.958 . S
H606 C591 0.961 . S
H607 C591 0.960 . S
C608 C609 1.391 . S
C608 C610 1.394 . S
C608 H624 0.931 . S
C609 C608 1.391 . S
C609 C613 1.376 . S
C610 C608 1.394 . S
C610 C611 1.369 . S
C610 C614 1.531 . S
C611 C610 1.369 . S
C611 C612 1.410 . S
C611 C619 1.503 . S
C612 C611 1.410 . S
C612 C613 1.392 . S
C612 C615 1.511 . S
C613 C609 1.376 . S
C613 C612 1.392 . S
C613 H625 0.929 . S
C614 C610 1.531 . S
C614 H626 0.960 . S
C614 H627 0.962 . S
C614 H628 0.960 . S
C615 C612 1.511 . S
C615 H629 0.961 . S
C615 H630 0.961 . S
C615 H631 0.961 . S
C616 C617 1.370 . S
C616 C618 1.363 . S
C616 H632 0.931 . S
C617 C616 1.370 . S
C617 C621 1.408 . S
C618 C616 1.363 . S
C618 C619 1.370 . S
C618 C622 1.524 . S
C619 C611 1.503 . S
C619 C618 1.370 . S
C619 C620 1.403 . S
C620 C619 1.403 . S
C620 C621 1.404 . S
C620 C623 1.539 . S
C621 C617 1.408 . S
C621 C620 1.404 . S
C621 H633 0.930 . S
C622 C618 1.524 . S
C622 H634 0.956 . S
C622 H635 0.961 . S
C622 H636 0.961 . S
C623 C620 1.539 . S
C623 H637 0.958 . S
C623 H638 0.961 . S
C623 H639 0.960 . S
H624 C608 0.931 . S
H625 C613 0.929 . S
H626 C614 0.960 . S
H627 C614 0.962 . S
H628 C614 0.960 . S
H629 C615 0.961 . S
H630 C615 0.961 . S
H631 C615 0.961 . S
H632 C616 0.931 . S
H633 C621 0.930 . S
H634 C622 0.956 . S
H635 C622 0.961 . S
H636 C622 0.961 . S
H637 C623 0.958 . S
H638 C623 0.961 . S
H639 C623 0.960 . S
C640 C641 1.391 . S
C640 C642 1.394 . S
C640 H656 0.931 . S
C641 C640 1.391 . S
C641 C645 1.376 . S
C642 C640 1.394 . S
C642 C643 1.369 . S
C642 C646 1.531 . S
C643 C642 1.369 . S
C643 C644 1.410 . S
C643 C651 1.503 . S
C644 C643 1.410 . S
C644 C645 1.392 . S
C644 C647 1.511 . S
C645 C641 1.376 . S
C645 C644 1.392 . S
C645 H657 0.929 . S
C646 C642 1.531 . S
C646 H658 0.960 . S
C646 H659 0.962 . S
C646 H660 0.960 . S
C647 C644 1.511 . S
C647 H661 0.961 . S
C647 H662 0.961 . S
C647 H663 0.961 . S
C648 C649 1.370 . S
C648 C650 1.363 . S
C648 H664 0.931 . S
C649 C648 1.370 . S
C649 C653 1.408 . S
C650 C648 1.363 . S
C650 C651 1.370 . S
C650 C654 1.524 . S
C651 C643 1.503 . S
C651 C650 1.370 . S
C651 C652 1.403 . S
C652 C651 1.403 . S
C652 C653 1.404 . S
C652 C655 1.539 . S
C653 C649 1.408 . S
C653 C652 1.404 . S
C653 H665 0.930 . S
C654 C650 1.524 . S
C654 H666 0.956 . S
C654 H667 0.961 . S
C654 H668 0.961 . S
C655 C652 1.539 . S
C655 H669 0.958 . S
C655 H670 0.961 1_565 S
C655 H671 0.960 . S
H656 C640 0.931 . S
H657 C645 0.929 . S
H658 C646 0.960 . S
H659 C646 0.962 . S
H660 C646 0.960 . S
H661 C647 0.961 . S
H662 C647 0.961 . S
H663 C647 0.961 . S
H664 C648 0.931 . S
H665 C653 0.930 . S
H666 C654 0.956 . S
H667 C654 0.961 . S
H668 C654 0.961 . S
H669 C655 0.958 . S
H670 C655 0.961 1_545 S
H671 C655 0.960 . S
C672 C673 1.391 . S
C672 C674 1.394 . S
C672 H688 0.931 . S
C673 C672 1.391 . S
C673 C677 1.376 . S
C674 C672 1.394 . S
C674 C675 1.369 . S
C674 C678 1.531 . S
C675 C674 1.369 . S
C675 C676 1.410 . S
C675 C683 1.503 . S
C676 C675 1.410 . S
C676 C677 1.392 . S
C676 C679 1.511 . S
C677 C673 1.376 . S
C677 C676 1.392 . S
C677 H689 0.929 . S
C678 C674 1.531 . S
C678 H690 0.960 . S
C678 H691 0.962 . S
C678 H692 0.960 . S
C679 C676 1.511 . S
C679 H693 0.961 . S
C679 H694 0.961 . S
C679 H695 0.961 . S
C680 C681 1.370 . S
C680 C682 1.363 . S
C680 H696 0.931 . S
C681 C680 1.370 . S
C681 C685 1.408 . S
C682 C680 1.363 . S
C682 C683 1.370 . S
C682 C686 1.524 . S
C683 C675 1.503 . S
C683 C682 1.370 . S
C683 C684 1.403 . S
C684 C683 1.403 . S
C684 C685 1.404 . S
C684 C687 1.539 . S
C685 C681 1.408 . S
C685 C684 1.404 . S
C685 H697 0.930 . S
C686 C682 1.524 . S
C686 H698 0.956 . S
C686 H699 0.961 . S
C686 H700 0.961 . S
C687 C684 1.539 . S
C687 H701 0.958 . S
C687 H702 0.961 . S
C687 H703 0.960 . S
H688 C672 0.931 . S
H689 C677 0.929 . S
H690 C678 0.960 . S
H691 C678 0.962 . S
H692 C678 0.960 . S
H693 C679 0.961 . S
H694 C679 0.961 . S
H695 C679 0.961 . S
H696 C680 0.931 . S
H697 C685 0.930 . S
H698 C686 0.956 . S
H699 C686 0.961 . S
H700 C686 0.961 . S
H701 C687 0.958 . S
H702 C687 0.961 . S
H703 C687 0.960 . S
C704 C705 1.391 . S
C704 C706 1.394 . S
C704 H720 0.931 . S
C705 C704 1.391 . S
C705 C709 1.376 . S
C706 C704 1.394 . S
C706 C707 1.369 . S
C706 C710 1.531 . S
C707 C706 1.369 . S
C707 C708 1.410 . S
C707 C715 1.503 . S
C708 C707 1.410 . S
C708 C709 1.392 . S
C708 C711 1.511 . S
C709 C705 1.376 . S
C709 C708 1.392 . S
C709 H721 0.929 . S
C710 C706 1.531 . S
C710 H722 0.960 . S
C710 H723 0.962 . S
C710 H724 0.960 . S
C711 C708 1.511 . S
C711 H725 0.961 . S
C711 H726 0.961 . S
C711 H727 0.961 . S
C712 C713 1.370 . S
C712 C714 1.363 . S
C712 H728 0.931 . S
C713 C712 1.370 . S
C713 C717 1.408 . S
C714 C712 1.363 . S
C714 C715 1.370 . S
C714 C718 1.524 . S
C715 C707 1.503 . S
C715 C714 1.370 . S
C715 C716 1.403 . S
C716 C715 1.403 . S
C716 C717 1.404 . S
C716 C719 1.539 . S
C717 C713 1.408 . S
C717 C716 1.404 . S
C717 H729 0.930 . S
C718 C714 1.524 . S
C718 H730 0.956 . S
C718 H731 0.961 . S
C718 H732 0.961 . S
C719 C716 1.539 . S
C719 H733 0.958 . S
C719 H734 0.961 . S
C719 H735 0.960 . S
H720 C704 0.931 . S
H721 C709 0.929 . S
H722 C710 0.960 . S
H723 C710 0.962 . S
H724 C710 0.960 . S
H725 C711 0.961 . S
H726 C711 0.961 . S
H727 C711 0.961 . S
H728 C712 0.931 . S
H729 C717 0.930 . S
H730 C718 0.956 . S
H731 C718 0.961 . S
H732 C718 0.961 . S
H733 C719 0.958 . S
H734 C719 0.961 . S
H735 C719 0.960 . S
C736 C737 1.391 . S
C736 C738 1.394 . S
C736 H752 0.931 . S
C737 C736 1.391 . S
C737 C741 1.376 . S
C738 C736 1.394 . S
C738 C739 1.369 . S
C738 C742 1.531 . S
C739 C738 1.369 . S
C739 C740 1.410 . S
C739 C747 1.503 . S
C740 C739 1.410 . S
C740 C741 1.392 . S
C740 C743 1.511 . S
C741 C737 1.376 . S
C741 C740 1.392 . S
C741 H753 0.929 . S
C742 C738 1.531 . S
C742 H754 0.960 . S
C742 H755 0.962 . S
C742 H756 0.960 . S
C743 C740 1.511 . S
C743 H757 0.961 . S
C743 H758 0.961 . S
C743 H759 0.961 . S
C744 C745 1.370 . S
C744 C746 1.363 . S
C744 H760 0.931 . S
C745 C744 1.370 . S
C745 C749 1.408 . S
C746 C744 1.363 . S
C746 C747 1.370 . S
C746 C750 1.524 . S
C747 C739 1.503 . S
C747 C746 1.370 . S
C747 C748 1.403 . S
C748 C747 1.403 . S
C748 C749 1.404 . S
C748 C751 1.539 . S
C749 C745 1.408 . S
C749 C748 1.404 . S
C749 H761 0.930 . S
C750 C746 1.524 . S
C750 H762 0.956 . S
C750 H763 0.961 . S
C750 H764 0.961 . S
C751 C748 1.539 . S
C751 H765 0.958 . S
C751 H766 0.961 . S
C751 H767 0.960 . S
H752 C736 0.931 . S
H753 C741 0.929 . S
H754 C742 0.960 . S
H755 C742 0.962 . S
H756 C742 0.960 . S
H757 C743 0.961 . S
H758 C743 0.961 . S
H759 C743 0.961 . S
H760 C744 0.931 . S
H761 C749 0.930 . S
H762 C750 0.956 . S
H763 C750 0.961 . S
H764 C750 0.961 . S
H765 C751 0.958 . S
H766 C751 0.961 . S
H767 C751 0.960 . S
C768 C769 1.391 . S
C768 C770 1.394 . S
C768 H784 0.931 . S
C769 C768 1.391 . S
C769 C773 1.376 . S
C770 C768 1.394 . S
C770 C771 1.369 . S
C770 C774 1.531 . S
C771 C770 1.369 . S
C771 C772 1.410 . S
C771 C779 1.503 . S
C772 C771 1.410 . S
C772 C773 1.392 . S
C772 C775 1.511 . S
C773 C769 1.376 . S
C773 C772 1.392 . S
C773 H785 0.929 . S
C774 C770 1.531 . S
C774 H786 0.960 . S
C774 H787 0.962 . S
C774 H788 0.960 . S
C775 C772 1.511 . S
C775 H789 0.961 . S
C775 H790 0.961 . S
C775 H791 0.961 . S
C776 C777 1.370 . S
C776 C778 1.363 . S
C776 H792 0.931 . S
C777 C776 1.370 . S
C777 C781 1.408 . S
C778 C776 1.363 . S
C778 C779 1.370 . S
C778 C782 1.524 . S
C779 C771 1.503 . S
C779 C778 1.370 . S
C779 C780 1.403 . S
C780 C779 1.403 . S
C780 C781 1.404 . S
C780 C783 1.539 . S
C781 C777 1.408 . S
C781 C780 1.404 . S
C781 H793 0.930 . S
C782 C778 1.524 . S
C782 H794 0.956 . S
C782 H795 0.961 . S
C782 H796 0.961 . S
C783 C780 1.539 . S
C783 H797 0.958 . S
C783 H798 0.961 . S
C783 H799 0.960 . S
H784 C768 0.931 . S
H785 C773 0.929 . S
H786 C774 0.960 . S
H787 C774 0.962 . S
H788 C774 0.960 . S
H789 C775 0.961 . S
H790 C775 0.961 . S
H791 C775 0.961 . S
H792 C776 0.931 . S
H793 C781 0.930 . S
H794 C782 0.956 . S
H795 C782 0.961 . S
H796 C782 0.961 . S
H797 C783 0.958 . S
H798 C783 0.961 . S
H799 C783 0.960 . S
C800 C801 1.391 . S
C800 C802 1.394 . S
C800 H816 0.931 . S
C801 C800 1.391 . S
C801 C805 1.376 . S
C802 C800 1.394 . S
C802 C803 1.369 . S
C802 C806 1.531 . S
C803 C802 1.369 . S
C803 C804 1.410 . S
C803 C811 1.503 . S
C804 C803 1.410 . S
C804 C805 1.392 . S
C804 C807 1.511 . S
C805 C801 1.376 . S
C805 C804 1.392 . S
C805 H817 0.929 . S
C806 C802 1.531 . S
C806 H818 0.960 . S
C806 H819 0.962 . S
C806 H820 0.960 . S
C807 C804 1.511 . S
C807 H821 0.961 . S
C807 H822 0.961 . S
C807 H823 0.961 . S
C808 C809 1.370 . S
C808 C810 1.363 . S
C808 H824 0.931 . S
C809 C808 1.370 . S
C809 C813 1.408 . S
C810 C808 1.363 . S
C810 C811 1.370 . S
C810 C814 1.524 . S
C811 C803 1.503 . S
C811 C810 1.370 . S
C811 C812 1.403 . S
C812 C811 1.403 . S
C812 C813 1.404 . S
C812 C815 1.539 . S
C813 C809 1.408 . S
C813 C812 1.404 . S
C813 H825 0.930 . S
C814 C810 1.524 . S
C814 H826 0.956 . S
C814 H827 0.961 . S
C814 H828 0.961 . S
C815 C812 1.539 . S
C815 H829 0.958 . S
C815 H830 0.961 . S
C815 H831 0.960 . S
H816 C800 0.931 . S
H817 C805 0.929 . S
H818 C806 0.960 . S
H819 C806 0.962 . S
H820 C806 0.960 . S
H821 C807 0.961 . S
H822 C807 0.961 . S
H823 C807 0.961 . S
H824 C808 0.931 . S
H825 C813 0.930 . S
H826 C814 0.956 . S
H827 C814 0.961 . S
H828 C814 0.961 . S
H829 C815 0.958 . S
H830 C815 0.961 . S
H831 C815 0.960 . S
C832 C833 1.391 . S
C832 C834 1.394 . S
C832 H848 0.931 . S
C833 C832 1.391 . S
C833 C837 1.376 . S
C834 C832 1.394 . S
C834 C835 1.369 . S
C834 C838 1.531 . S
C835 C834 1.369 . S
C835 C836 1.410 . S
C835 C843 1.503 . S
C836 C835 1.410 . S
C836 C837 1.392 . S
C836 C839 1.511 . S
C837 C833 1.376 . S
C837 C836 1.392 . S
C837 H849 0.929 . S
C838 C834 1.531 . S
C838 H850 0.960 . S
C838 H851 0.962 . S
C838 H852 0.960 . S
C839 C836 1.511 . S
C839 H853 0.961 . S
C839 H854 0.961 . S
C839 H855 0.961 . S
C840 C841 1.370 . S
C840 C842 1.363 . S
C840 H856 0.931 . S
C841 C840 1.370 . S
C841 C845 1.408 . S
C842 C840 1.363 . S
C842 C843 1.370 . S
C842 C846 1.524 . S
C843 C835 1.503 . S
C843 C842 1.370 . S
C843 C844 1.403 . S
C844 C843 1.403 . S
C844 C845 1.404 . S
C844 C847 1.539 . S
C845 C841 1.408 . S
C845 C844 1.404 . S
C845 H857 0.930 . S
C846 C842 1.524 . S
C846 H858 0.956 . S
C846 H859 0.961 . S
C846 H860 0.961 . S
C847 C844 1.539 . S
C847 H861 0.958 . S
C847 H862 0.961 . S
C847 H863 0.960 . S
H848 C832 0.931 . S
H849 C837 0.929 . S
H850 C838 0.960 . S
H851 C838 0.962 . S
H852 C838 0.960 . S
H853 C839 0.961 . S
H854 C839 0.961 . S
H855 C839 0.961 . S
H856 C840 0.931 . S
H857 C845 0.930 . S
H858 C846 0.956 . S
H859 C846 0.961 . S
H860 C846 0.961 . S
H861 C847 0.958 . S
H862 C847 0.961 . S
H863 C847 0.960 . S
C864 C865 1.391 . S
C864 C866 1.394 . S
C864 H880 0.931 . S
C865 C864 1.391 . S
C865 C869 1.376 . S
C866 C864 1.394 . S
C866 C867 1.369 . S
C866 C870 1.531 . S
C867 C866 1.369 . S
C867 C868 1.410 . S
C867 C875 1.503 . S
C868 C867 1.410 . S
C868 C869 1.392 . S
C868 C871 1.511 . S
C869 C865 1.376 . S
C869 C868 1.392 . S
C869 H881 0.929 . S
C870 C866 1.531 . S
C870 H882 0.960 . S
C870 H883 0.962 . S
C870 H884 0.960 . S
C871 C868 1.511 . S
C871 H885 0.961 . S
C871 H886 0.961 . S
C871 H887 0.961 . S
C872 C873 1.370 . S
C872 C874 1.363 . S
C872 H888 0.931 . S
C873 C872 1.370 . S
C873 C877 1.408 . S
C874 C872 1.363 . S
C874 C875 1.370 . S
C874 C878 1.524 . S
C875 C867 1.503 . S
C875 C874 1.370 . S
C875 C876 1.403 . S
C876 C875 1.403 . S
C876 C877 1.404 . S
C876 C879 1.539 . S
C877 C873 1.408 . S
C877 C876 1.404 . S
C877 H889 0.930 . S
C878 C874 1.524 . S
C878 H890 0.956 . S
C878 H891 0.961 . S
C878 H892 0.961 . S
C879 C876 1.539 . S
C879 H893 0.958 . S
C879 H894 0.961 . S
C879 H895 0.960 . S
H880 C864 0.931 . S
H881 C869 0.929 . S
H882 C870 0.960 . S
H883 C870 0.962 . S
H884 C870 0.960 . S
H885 C871 0.961 . S
H886 C871 0.961 . S
H887 C871 0.961 . S
H888 C872 0.931 . S
H889 C877 0.930 . S
H890 C878 0.956 . S
H891 C878 0.961 . S
H892 C878 0.961 . S
H893 C879 0.958 . S
H894 C879 0.961 . S
H895 C879 0.960 . S
C896 C897 1.391 . S
C896 C898 1.394 . S
C896 H912 0.931 . S
C897 C896 1.391 . S
C897 C901 1.376 . S
C898 C896 1.394 . S
C898 C899 1.369 . S
C898 C902 1.531 . S
C899 C898 1.369 . S
C899 C900 1.410 . S
C899 C907 1.503 . S
C900 C899 1.410 . S
C900 C901 1.392 . S
C900 C903 1.511 . S
C901 C897 1.376 . S
C901 C900 1.392 . S
C901 H913 0.929 . S
C902 C898 1.531 . S
C902 H914 0.960 . S
C902 H915 0.962 . S
C902 H916 0.960 . S
C903 C900 1.511 . S
C903 H917 0.961 . S
C903 H918 0.961 . S
C903 H919 0.961 . S
C904 C905 1.370 . S
C904 C906 1.363 . S
C904 H920 0.931 . S
C905 C904 1.370 . S
C905 C909 1.408 . S
C906 C904 1.363 . S
C906 C907 1.370 . S
C906 C910 1.524 . S
C907 C899 1.503 . S
C907 C906 1.370 . S
C907 C908 1.403 . S
C908 C907 1.403 . S
C908 C909 1.404 . S
C908 C911 1.539 . S
C909 C905 1.408 . S
C909 C908 1.404 . S
C909 H921 0.930 . S
C910 C906 1.524 . S
C910 H922 0.956 . S
C910 H923 0.961 . S
C910 H924 0.961 . S
C911 C908 1.539 . S
C911 H925 0.958 . S
C911 H926 0.961 . S
C911 H927 0.960 . S
H912 C896 0.931 . S
H913 C901 0.929 . S
H914 C902 0.960 . S
H915 C902 0.962 . S
H916 C902 0.960 . S
H917 C903 0.961 . S
H918 C903 0.961 . S
H919 C903 0.961 . S
H920 C904 0.931 . S
H921 C909 0.930 . S
H922 C910 0.956 . S
H923 C910 0.961 . S
H924 C910 0.961 . S
H925 C911 0.958 . S
H926 C911 0.961 . S
H927 C911 0.960 . S
C928 C929 1.391 . S
C928 C930 1.394 . S
C928 H944 0.931 . S
C929 C928 1.391 . S
C929 C933 1.376 . S
C930 C928 1.394 . S
C930 C931 1.369 . S
C930 C934 1.531 . S
C931 C930 1.369 . S
C931 C932 1.410 . S
C931 C939 1.503 . S
C932 C931 1.410 . S
C932 C933 1.392 . S
C932 C935 1.511 . S
C933 C929 1.376 . S
C933 C932 1.392 . S
C933 H945 0.929 . S
C934 C930 1.531 . S
C934 H946 0.960 . S
C934 H947 0.962 . S
C934 H948 0.960 . S
C935 C932 1.511 . S
C935 H949 0.961 . S
C935 H950 0.961 . S
C935 H951 0.961 . S
C936 C937 1.370 . S
C936 C938 1.363 . S
C936 H952 0.931 . S
C937 C936 1.370 . S
C937 C941 1.408 . S
C938 C936 1.363 . S
C938 C939 1.370 . S
C938 C942 1.524 . S
C939 C931 1.503 . S
C939 C938 1.370 . S
C939 C940 1.403 . S
C940 C939 1.403 . S
C940 C941 1.404 . S
C940 C943 1.539 . S
C941 C937 1.408 . S
C941 C940 1.404 . S
C941 H953 0.930 . S
C942 C938 1.524 . S
C942 H954 0.956 . S
C942 H955 0.961 . S
C942 H956 0.961 . S
C943 C940 1.539 . S
C943 H957 0.958 . S
C943 H958 0.961 . S
C943 H959 0.960 . S
H944 C928 0.931 . S
H945 C933 0.929 . S
H946 C934 0.960 . S
H947 C934 0.962 . S
H948 C934 0.960 . S
H949 C935 0.961 . S
H950 C935 0.961 . S
H951 C935 0.961 . S
H952 C936 0.931 . S
H953 C941 0.930 . S
H954 C942 0.956 . S
H955 C942 0.961 . S
H956 C942 0.961 . S
H957 C943 0.958 . S
H958 C943 0.961 . S
H959 C943 0.960 . S
C960 C961 1.391 . S
C960 C962 1.394 . S
C960 H976 0.931 . S
C961 C960 1.391 . S
C961 C965 1.376 . S
C962 C960 1.394 . S
C962 C963 1.369 . S
C962 C966 1.531 . S
C963 C962 1.369 . S
C963 C964 1.410 . S
C963 C971 1.503 . S
C964 C963 1.410 . S
C964 C965 1.392 . S
C964 C967 1.511 . S
C965 C961 1.376 . S
C965 C964 1.392 . S
C965 H977 0.929 . S
C966 C962 1.531 . S
C966 H978 0.960 . S
C966 H979 0.962 . S
C966 H980 0.960 . S
C967 C964 1.511 . S
C967 H981 0.961 . S
C967 H982 0.961 . S
C967 H983 0.961 . S
C968 C969 1.370 . S
C968 C970 1.363 . S
C968 H984 0.931 . S
C969 C968 1.370 . S
C969 C973 1.408 . S
C970 C968 1.363 . S
C970 C971 1.370 . S
C970 C974 1.524 . S
C971 C963 1.503 . S
C971 C970 1.370 . S
C971 C972 1.403 . S
C972 C971 1.403 . S
C972 C973 1.404 . S
C972 C975 1.539 . S
C973 C969 1.408 . S
C973 C972 1.404 . S
C973 H985 0.930 . S
C974 C970 1.524 . S
C974 H986 0.956 . S
C974 H987 0.961 . S
C974 H988 0.961 . S
C975 C972 1.539 . S
C975 H989 0.958 . S
C975 H990 0.961 . S
C975 H991 0.960 . S
H976 C960 0.931 . S
H977 C965 0.929 . S
H978 C966 0.960 . S
H979 C966 0.962 . S
H980 C966 0.960 . S
H981 C967 0.961 . S
H982 C967 0.961 . S
H983 C967 0.961 . S
H984 C968 0.931 . S
H985 C973 0.930 . S
H986 C974 0.956 . S
H987 C974 0.961 . S
H988 C974 0.961 . S
H989 C975 0.958 . S
H990 C975 0.961 . S
H991 C975 0.960 . S
C992 C993 1.391 . S
C992 C994 1.394 . S
C992 H1008 0.931 . S
C993 C992 1.391 . S
C993 C997 1.376 . S
C994 C992 1.394 . S
C994 C995 1.369 . S
C994 C998 1.531 . S
C995 C994 1.369 . S
C995 C996 1.410 . S
C995 C1003 1.503 . S
C996 C995 1.410 . S
C996 C997 1.392 . S
C996 C999 1.511 . S
C997 C993 1.376 . S
C997 C996 1.392 . S
C997 H1009 0.929 . S
C998 C994 1.531 . S
C998 H1010 0.960 . S
C998 H1011 0.962 . S
C998 H1012 0.960 . S
C999 C996 1.511 . S
C999 H1013 0.961 . S
C999 H1014 0.961 . S
C999 H1015 0.961 . S
C1000 C1001 1.370 . S
C1000 C1002 1.363 . S
C1000 H1016 0.931 . S
C1001 C1000 1.370 . S
C1001 C1005 1.408 . S
C1002 C1000 1.363 . S
C1002 C1003 1.370 . S
C1002 C1006 1.524 . S
C1003 C995 1.503 . S
C1003 C1002 1.370 . S
C1003 C1004 1.403 . S
C1004 C1003 1.403 . S
C1004 C1005 1.404 . S
C1004 C1007 1.539 . S
C1005 C1001 1.408 . S
C1005 C1004 1.404 . S
C1005 H1017 0.930 . S
C1006 C1002 1.524 . S
C1006 H1018 0.956 . S
C1006 H1019 0.961 . S
C1006 H1020 0.961 . S
C1007 C1004 1.539 . S
C1007 H1021 0.958 . S
C1007 H1022 0.961 . S
C1007 H1023 0.960 . S
H1008 C992 0.931 . S
H1009 C997 0.929 . S
H1010 C998 0.960 . S
H1011 C998 0.962 . S
H1012 C998 0.960 . S
H1013 C999 0.961 . S
H1014 C999 0.961 . S
H1015 C999 0.961 . S
H1016 C1000 0.931 . S
H1017 C1005 0.930 . S
H1018 C1006 0.956 . S
H1019 C1006 0.961 . S
H1020 C1006 0.961 . S
H1021 C1007 0.958 . S
H1022 C1007 0.961 . S
H1023 C1007 0.960 . S
C1024 C1025 1.391 . S
C1024 C1026 1.394 . S
C1024 H1040 0.931 . S
C1025 C1024 1.391 . S
C1025 C1029 1.376 . S
C1026 C1024 1.394 . S
C1026 C1027 1.369 . S
C1026 C1030 1.531 . S
C1027 C1026 1.369 . S
C1027 C1028 1.410 . S
C1027 C1035 1.503 . S
C1028 C1027 1.410 . S
C1028 C1029 1.392 . S
C1028 C1031 1.511 . S
C1029 C1025 1.376 . S
C1029 C1028 1.392 . S
C1029 H1041 0.929 . S
C1030 C1026 1.531 . S
C1030 H1042 0.960 . S
C1030 H1043 0.962 . S
C1030 H1044 0.960 . S
C1031 C1028 1.511 . S
C1031 H1045 0.961 . S
C1031 H1046 0.961 . S
C1031 H1047 0.961 . S
C1032 C1033 1.370 . S
C1032 C1034 1.363 . S
C1032 H1048 0.931 . S
C1033 C1032 1.370 . S
C1033 C1037 1.408 . S
C1034 C1032 1.363 . S
C1034 C1035 1.370 . S
C1034 C1038 1.524 . S
C1035 C1027 1.503 . S
C1035 C1034 1.370 . S
C1035 C1036 1.403 . S
C1036 C1035 1.403 . S
C1036 C1037 1.404 . S
C1036 C1039 1.539 . S
C1037 C1033 1.408 . S
C1037 C1036 1.404 . S
C1037 H1049 0.930 . S
C1038 C1034 1.524 . S
C1038 H1050 0.956 . S
C1038 H1051 0.961 . S
C1038 H1052 0.961 . S
C1039 C1036 1.539 . S
C1039 H1053 0.954 1_455 S
C1039 H1054 0.961 1_455 S
C1039 H1055 0.960 . S
H1040 C1024 0.931 . S
H1041 C1029 0.929 . S
H1042 C1030 0.960 . S
H1043 C1030 0.962 . S
H1044 C1030 0.960 . S
H1045 C1031 0.961 . S
H1046 C1031 0.961 . S
H1047 C1031 0.961 . S
H1048 C1032 0.931 . S
H1049 C1037 0.930 . S
H1050 C1038 0.956 . S
H1051 C1038 0.961 . S
H1052 C1038 0.961 . S
H1053 C1039 0.954 1_655 S
H1054 C1039 0.961 1_655 S
H1055 C1039 0.960 . S
C1056 C1057 1.391 . S
C1056 C1058 1.394 . S
C1056 H1072 0.931 . S
C1057 C1056 1.391 . S
C1057 C1061 1.376 . S
C1058 C1056 1.394 . S
C1058 C1059 1.369 . S
C1058 C1062 1.531 . S
C1059 C1058 1.369 . S
C1059 C1060 1.410 . S
C1059 C1067 1.503 . S
C1060 C1059 1.410 . S
C1060 C1061 1.392 . S
C1060 C1063 1.511 . S
C1061 C1057 1.376 . S
C1061 C1060 1.392 . S
C1061 H1073 0.929 . S
C1062 C1058 1.531 . S
C1062 H1074 0.960 . S
C1062 H1075 0.962 . S
C1062 H1076 0.960 . S
C1063 C1060 1.511 . S
C1063 H1077 0.961 . S
C1063 H1078 0.961 . S
C1063 H1079 0.961 . S
C1064 C1065 1.370 . S
C1064 C1066 1.363 . S
C1064 H1080 0.931 . S
C1065 C1064 1.370 . S
C1065 C1069 1.408 . S
C1066 C1064 1.363 . S
C1066 C1067 1.370 . S
C1066 C1070 1.524 . S
C1067 C1059 1.503 . S
C1067 C1066 1.370 . S
C1067 C1068 1.403 . S
C1068 C1067 1.403 . S
C1068 C1069 1.404 . S
C1068 C1071 1.539 . S
C1069 C1065 1.408 . S
C1069 C1068 1.404 . S
C1069 H1081 0.930 . S
C1070 C1066 1.524 . S
C1070 H1082 0.956 . S
C1070 H1083 0.961 . S
C1070 H1084 0.961 . S
C1071 C1068 1.539 . S
C1071 H1085 0.958 . S
C1071 H1086 0.961 . S
C1071 H1087 0.960 . S
H1072 C1056 0.931 . S
H1073 C1061 0.929 . S
H1074 C1062 0.960 . S
H1075 C1062 0.962 . S
H1076 C1062 0.960 . S
H1077 C1063 0.961 . S
H1078 C1063 0.961 . S
H1079 C1063 0.961 . S
H1080 C1064 0.931 . S
H1081 C1069 0.930 . S
H1082 C1070 0.956 . S
H1083 C1070 0.961 . S
H1084 C1070 0.961 . S
H1085 C1071 0.958 . S
H1086 C1071 0.961 . S
H1087 C1071 0.960 . S
C1088 C1089 1.391 . S
C1088 C1090 1.394 . S
C1088 H1104 0.931 . S
C1089 C1088 1.391 . S
C1089 C1093 1.376 . S
C1090 C1088 1.394 . S
C1090 C1091 1.369 . S
C1090 C1094 1.531 . S
C1091 C1090 1.369 . S
C1091 C1092 1.410 . S
C1091 C1099 1.503 . S
C1092 C1091 1.410 . S
C1092 C1093 1.392 . S
C1092 C1095 1.511 . S
C1093 C1089 1.376 . S
C1093 C1092 1.392 . S
C1093 H1105 0.929 . S
C1094 C1090 1.531 . S
C1094 H1106 0.960 . S
C1094 H1107 0.962 . S
C1094 H1108 0.960 . S
C1095 C1092 1.511 . S
C1095 H1109 0.961 . S
C1095 H1110 0.961 . S
C1095 H1111 0.961 . S
C1096 C1097 1.370 . S
C1096 C1098 1.363 . S
C1096 H1112 0.931 . S
C1097 C1096 1.370 . S
C1097 C1101 1.408 . S
C1098 C1096 1.363 . S
C1098 C1099 1.370 . S
C1098 C1102 1.524 . S
C1099 C1091 1.503 . S
C1099 C1098 1.370 . S
C1099 C1100 1.403 . S
C1100 C1099 1.403 . S
C1100 C1101 1.404 . S
C1100 C1103 1.539 . S
C1101 C1097 1.408 . S
C1101 C1100 1.404 . S
C1101 H1113 0.930 . S
C1102 C1098 1.524 . S
C1102 H1114 0.956 . S
C1102 H1115 0.961 . S
C1102 H1116 0.961 . S
C1103 C1100 1.539 . S
C1103 H1117 0.958 . S
C1103 H1118 0.961 . S
C1103 H1119 0.960 . S
H1104 C1088 0.931 . S
H1105 C1093 0.929 . S
H1106 C1094 0.960 . S
H1107 C1094 0.962 . S
H1108 C1094 0.960 . S
H1109 C1095 0.961 . S
H1110 C1095 0.961 . S
H1111 C1095 0.961 . S
H1112 C1096 0.931 . S
H1113 C1101 0.930 . S
H1114 C1102 0.956 . S
H1115 C1102 0.961 . S
H1116 C1102 0.961 . S
H1117 C1103 0.958 . S
H1118 C1103 0.961 . S
H1119 C1103 0.960 . S
C1120 C1121 1.391 . S
C1120 C1122 1.394 . S
C1120 H1136 0.931 . S
C1121 C1120 1.391 . S
C1121 C1125 1.376 . S
C1122 C1120 1.394 . S
C1122 C1123 1.369 . S
C1122 C1126 1.531 . S
C1123 C1122 1.369 . S
C1123 C1124 1.410 . S
C1123 C1131 1.503 . S
C1124 C1123 1.410 . S
C1124 C1125 1.392 . S
C1124 C1127 1.511 . S
C1125 C1121 1.376 . S
C1125 C1124 1.392 . S
C1125 H1137 0.929 . S
C1126 C1122 1.531 . S
C1126 H1138 0.960 . S
C1126 H1139 0.962 . S
C1126 H1140 0.960 . S
C1127 C1124 1.511 . S
C1127 H1141 0.961 . S
C1127 H1142 0.961 . S
C1127 H1143 0.961 . S
C1128 C1129 1.370 . S
C1128 C1130 1.363 . S
C1128 H1144 0.931 . S
C1129 C1128 1.370 . S
C1129 C1133 1.408 . S
C1130 C1128 1.363 . S
C1130 C1131 1.370 . S
C1130 C1134 1.524 . S
C1131 C1123 1.503 . S
C1131 C1130 1.370 . S
C1131 C1132 1.403 . S
C1132 C1131 1.403 . S
C1132 C1133 1.404 . S
C1132 C1135 1.539 . S
C1133 C1129 1.408 . S
C1133 C1132 1.404 . S
C1133 H1145 0.930 . S
C1134 C1130 1.524 . S
C1134 H1146 0.956 . S
C1134 H1147 0.961 . S
C1134 H1148 0.961 . S
C1135 C1132 1.539 . S
C1135 H1149 0.958 . S
C1135 H1150 0.961 . S
C1135 H1151 0.960 . S
H1136 C1120 0.931 . S
H1137 C1125 0.929 . S
H1138 C1126 0.960 . S
H1139 C1126 0.962 . S
H1140 C1126 0.960 . S
H1141 C1127 0.961 . S
H1142 C1127 0.961 . S
H1143 C1127 0.961 . S
H1144 C1128 0.931 . S
H1145 C1133 0.930 . S
H1146 C1134 0.956 . S
H1147 C1134 0.961 . S
H1148 C1134 0.961 . S
H1149 C1135 0.958 . S
H1150 C1135 0.961 . S
H1151 C1135 0.960 . S
C1152 C1153 1.391 . S
C1152 C1154 1.394 . S
C1152 H1168 0.931 . S
C1153 C1152 1.391 . S
C1153 C1157 1.376 . S
C1154 C1152 1.394 . S
C1154 C1155 1.369 . S
C1154 C1158 1.531 . S
C1155 C1154 1.369 . S
C1155 C1156 1.410 . S
C1155 C1163 1.503 . S
C1156 C1155 1.410 . S
C1156 C1157 1.392 . S
C1156 C1159 1.511 . S
C1157 C1153 1.376 . S
C1157 C1156 1.392 . S
C1157 H1169 0.929 . S
C1158 C1154 1.531 . S
C1158 H1170 0.960 . S
C1158 H1171 0.962 . S
C1158 H1172 0.960 . S
C1159 C1156 1.511 . S
C1159 H1173 0.961 . S
C1159 H1174 0.961 . S
C1159 H1175 0.961 . S
C1160 C1161 1.370 . S
C1160 C1162 1.363 . S
C1160 H1176 0.931 . S
C1161 C1160 1.370 . S
C1161 C1165 1.408 . S
C1162 C1160 1.363 . S
C1162 C1163 1.370 . S
C1162 C1166 1.524 . S
C1163 C1155 1.503 . S
C1163 C1162 1.370 . S
C1163 C1164 1.403 . S
C1164 C1163 1.403 . S
C1164 C1165 1.404 . S
C1164 C1167 1.539 . S
C1165 C1161 1.408 . S
C1165 C1164 1.404 . S
C1165 H1177 0.930 . S
C1166 C1162 1.524 . S
C1166 H1178 0.956 . S
C1166 H1179 0.961 . S
C1166 H1180 0.961 . S
C1167 C1164 1.539 . S
C1167 H1181 0.958 . S
C1167 H1182 0.961 . S
C1167 H1183 0.960 . S
H1168 C1152 0.931 . S
H1169 C1157 0.929 . S
H1170 C1158 0.960 . S
H1171 C1158 0.962 . S
H1172 C1158 0.960 . S
H1173 C1159 0.961 . S
H1174 C1159 0.961 . S
H1175 C1159 0.961 . S
H1176 C1160 0.931 . S
H1177 C1165 0.930 . S
H1178 C1166 0.956 . S
H1179 C1166 0.961 . S
H1180 C1166 0.961 . S
H1181 C1167 0.958 . S
H1182 C1167 0.961 . S
H1183 C1167 0.960 . S
C1184 C1185 1.391 . S
C1184 C1186 1.394 . S
C1184 H1200 0.931 . S
C1185 C1184 1.391 . S
C1185 C1189 1.376 . S
C1186 C1184 1.394 . S
C1186 C1187 1.369 . S
C1186 C1190 1.531 . S
C1187 C1186 1.369 . S
C1187 C1188 1.410 . S
C1187 C1195 1.503 . S
C1188 C1187 1.410 . S
C1188 C1189 1.392 . S
C1188 C1191 1.511 . S
C1189 C1185 1.376 . S
C1189 C1188 1.392 . S
C1189 H1201 0.929 . S
C1190 C1186 1.531 . S
C1190 H1202 0.960 . S
C1190 H1203 0.962 . S
C1190 H1204 0.960 . S
C1191 C1188 1.511 . S
C1191 H1205 0.961 . S
C1191 H1206 0.961 . S
C1191 H1207 0.961 . S
C1192 C1193 1.370 . S
C1192 C1194 1.363 . S
C1192 H1208 0.931 . S
C1193 C1192 1.370 . S
C1193 C1197 1.408 . S
C1194 C1192 1.363 . S
C1194 C1195 1.370 . S
C1194 C1198 1.524 . S
C1195 C1187 1.503 . S
C1195 C1194 1.370 . S
C1195 C1196 1.403 . S
C1196 C1195 1.403 . S
C1196 C1197 1.404 . S
C1196 C1199 1.539 . S
C1197 C1193 1.408 . S
C1197 C1196 1.404 . S
C1197 H1209 0.930 . S
C1198 C1194 1.524 . S
C1198 H1210 0.956 . S
C1198 H1211 0.961 . S
C1198 H1212 0.961 . S
C1199 C1196 1.539 . S
C1199 H1213 0.958 . S
C1199 H1214 0.961 . S
C1199 H1215 0.960 . S
H1200 C1184 0.931 . S
H1201 C1189 0.929 . S
H1202 C1190 0.960 . S
H1203 C1190 0.962 . S
H1204 C1190 0.960 . S
H1205 C1191 0.961 . S
H1206 C1191 0.961 . S
H1207 C1191 0.961 . S
H1208 C1192 0.931 . S
H1209 C1197 0.930 . S
H1210 C1198 0.956 . S
H1211 C1198 0.961 . S
H1212 C1198 0.961 . S
H1213 C1199 0.958 . S
H1214 C1199 0.961 . S
H1215 C1199 0.960 . S
C1216 C1217 1.391 . S
C1216 C1218 1.394 . S
C1216 H1232 0.931 . S
C1217 C1216 1.391 . S
C1217 C1221 1.376 . S
C1218 C1216 1.394 . S
C1218 C1219 1.369 . S
C1218 C1222 1.531 . S
C1219 C1218 1.369 . S
C1219 C1220 1.410 . S
C1219 C1227 1.503 . S
C1220 C1219 1.410 . S
C1220 C1221 1.392 . S
C1220 C1223 1.511 . S
C1221 C1217 1.376 . S
C1221 C1220 1.392 . S
C1221 H1233 0.929 . S
C1222 C1218 1.531 . S
C1222 H1234 0.960 . S
C1222 H1235 0.962 . S
C1222 H1236 0.960 . S
C1223 C1220 1.511 . S
C1223 H1237 0.961 . S
C1223 H1238 0.961 . S
C1223 H1239 0.961 . S
C1224 C1225 1.370 . S
C1224 C1226 1.363 . S
C1224 H1240 0.931 . S
C1225 C1224 1.370 . S
C1225 C1229 1.408 . S
C1226 C1224 1.363 . S
C1226 C1227 1.370 . S
C1226 C1230 1.524 . S
C1227 C1219 1.503 . S
C1227 C1226 1.370 . S
C1227 C1228 1.403 . S
C1228 C1227 1.403 . S
C1228 C1229 1.404 . S
C1228 C1231 1.539 . S
C1229 C1225 1.408 . S
C1229 C1228 1.404 . S
C1229 H1241 0.930 . S
C1230 C1226 1.524 . S
C1230 H1242 0.956 . S
C1230 H1243 0.961 . S
C1230 H1244 0.961 . S
C1231 C1228 1.539 . S
C1231 H1245 0.958 . S
C1231 H1246 0.961 . S
C1231 H1247 0.960 . S
H1232 C1216 0.931 . S
H1233 C1221 0.929 . S
H1234 C1222 0.960 . S
H1235 C1222 0.962 . S
H1236 C1222 0.960 . S
H1237 C1223 0.961 . S
H1238 C1223 0.961 . S
H1239 C1223 0.961 . S
H1240 C1224 0.931 . S
H1241 C1229 0.930 . S
H1242 C1230 0.956 . S
H1243 C1230 0.961 . S
H1244 C1230 0.961 . S
H1245 C1231 0.958 . S
H1246 C1231 0.961 . S
H1247 C1231 0.960 . S
C1248 C1249 1.391 . S
C1248 C1250 1.394 . S
C1248 H1264 0.931 . S
C1249 C1248 1.391 . S
C1249 C1253 1.376 . S
C1250 C1248 1.394 . S
C1250 C1251 1.369 . S
C1250 C1254 1.531 . S
C1251 C1250 1.369 . S
C1251 C1252 1.410 . S
C1251 C1259 1.503 . S
C1252 C1251 1.410 . S
C1252 C1253 1.392 . S
C1252 C1255 1.511 . S
C1253 C1249 1.376 . S
C1253 C1252 1.392 . S
C1253 H1265 0.929 . S
C1254 C1250 1.531 . S
C1254 H1266 0.960 . S
C1254 H1267 0.962 . S
C1254 H1268 0.960 . S
C1255 C1252 1.511 . S
C1255 H1269 0.961 . S
C1255 H1270 0.961 . S
C1255 H1271 0.961 . S
C1256 C1257 1.370 . S
C1256 C1258 1.363 . S
C1256 H1272 0.931 . S
C1257 C1256 1.370 . S
C1257 C1261 1.408 . S
C1258 C1256 1.363 . S
C1258 C1259 1.370 . S
C1258 C1262 1.524 . S
C1259 C1251 1.503 . S
C1259 C1258 1.370 . S
C1259 C1260 1.403 . S
C1260 C1259 1.403 . S
C1260 C1261 1.404 . S
C1260 C1263 1.539 . S
C1261 C1257 1.408 . S
C1261 C1260 1.404 . S
C1261 H1273 0.930 . S
C1262 C1258 1.524 . S
C1262 H1274 0.956 . S
C1262 H1275 0.961 . S
C1262 H1276 0.961 . S
C1263 C1260 1.539 . S
C1263 H1277 0.958 . S
C1263 H1278 0.961 . S
C1263 H1279 0.960 . S
H1264 C1248 0.931 . S
H1265 C1253 0.929 . S
H1266 C1254 0.960 . S
H1267 C1254 0.962 . S
H1268 C1254 0.960 . S
H1269 C1255 0.961 . S
H1270 C1255 0.961 . S
H1271 C1255 0.961 . S
H1272 C1256 0.931 . S
H1273 C1261 0.930 . S
H1274 C1262 0.956 . S
H1275 C1262 0.961 . S
H1276 C1262 0.961 . S
H1277 C1263 0.958 . S
H1278 C1263 0.961 . S
H1279 C1263 0.960 . S
C1280 C1281 1.391 . S
C1280 C1282 1.394 . S
C1280 H1296 0.931 . S
C1281 C1280 1.391 . S
C1281 C1285 1.376 . S
C1282 C1280 1.394 . S
C1282 C1283 1.369 . S
C1282 C1286 1.531 . S
C1283 C1282 1.369 . S
C1283 C1284 1.410 . S
C1283 C1291 1.503 . S
C1284 C1283 1.410 . S
C1284 C1285 1.392 . S
C1284 C1287 1.511 . S
C1285 C1281 1.376 . S
C1285 C1284 1.392 . S
C1285 H1297 0.929 . S
C1286 C1282 1.531 . S
C1286 H1298 0.960 . S
C1286 H1299 0.962 . S
C1286 H1300 0.960 . S
C1287 C1284 1.511 . S
C1287 H1301 0.961 . S
C1287 H1302 0.961 . S
C1287 H1303 0.961 . S
C1288 C1289 1.370 . S
C1288 C1290 1.363 . S
C1288 H1304 0.931 . S
C1289 C1288 1.370 . S
C1289 C1293 1.408 . S
C1290 C1288 1.363 . S
C1290 C1291 1.370 . S
C1290 C1294 1.524 . S
C1291 C1283 1.503 . S
C1291 C1290 1.370 . S
C1291 C1292 1.403 . S
C1292 C1291 1.403 . S
C1292 C1293 1.404 . S
C1292 C1295 1.539 . S
C1293 C1289 1.408 . S
C1293 C1292 1.404 . S
C1293 H1305 0.930 . S
C1294 C1290 1.524 . S
C1294 H1306 0.956 . S
C1294 H1307 0.961 . S
C1294 H1308 0.961 . S
C1295 C1292 1.539 . S
C1295 H1309 0.958 . S
C1295 H1310 0.961 . S
C1295 H1311 0.960 . S
H1296 C1280 0.931 . S
H1297 C1285 0.929 . S
H1298 C1286 0.960 . S
H1299 C1286 0.962 . S
H1300 C1286 0.960 . S
H1301 C1287 0.961 . S
H1302 C1287 0.961 . S
H1303 C1287 0.961 . S
H1304 C1288 0.931 . S
H1305 C1293 0.930 . S
H1306 C1294 0.956 . S
H1307 C1294 0.961 . S
H1308 C1294 0.961 . S
H1309 C1295 0.958 . S
H1310 C1295 0.961 . S
H1311 C1295 0.960 . S
C1312 C1313 1.391 . S
C1312 C1314 1.394 . S
C1312 H1328 0.931 . S
C1313 C1312 1.391 . S
C1313 C1317 1.376 . S
C1314 C1312 1.394 . S
C1314 C1315 1.369 . S
C1314 C1318 1.531 . S
C1315 C1314 1.369 . S
C1315 C1316 1.410 . S
C1315 C1323 1.503 . S
C1316 C1315 1.410 . S
C1316 C1317 1.392 . S
C1316 C1319 1.511 . S
C1317 C1313 1.376 . S
C1317 C1316 1.392 . S
C1317 H1329 0.929 . S
C1318 C1314 1.531 . S
C1318 H1330 0.960 . S
C1318 H1331 0.962 . S
C1318 H1332 0.960 . S
C1319 C1316 1.511 . S
C1319 H1333 0.961 . S
C1319 H1334 0.961 . S
C1319 H1335 0.961 . S
C1320 C1321 1.370 . S
C1320 C1322 1.363 . S
C1320 H1336 0.931 . S
C1321 C1320 1.370 . S
C1321 C1325 1.408 . S
C1322 C1320 1.363 . S
C1322 C1323 1.370 . S
C1322 C1326 1.524 . S
C1323 C1315 1.503 . S
C1323 C1322 1.370 . S
C1323 C1324 1.403 . S
C1324 C1323 1.403 . S
C1324 C1325 1.404 . S
C1324 C1327 1.539 . S
C1325 C1321 1.408 . S
C1325 C1324 1.404 . S
C1325 H1337 0.930 . S
C1326 C1322 1.524 . S
C1326 H1338 0.956 . S
C1326 H1339 0.961 . S
C1326 H1340 0.961 . S
C1327 C1324 1.539 . S
C1327 H1341 0.958 . S
C1327 H1342 0.961 . S
C1327 H1343 0.960 . S
H1328 C1312 0.931 . S
H1329 C1317 0.929 . S
H1330 C1318 0.960 . S
H1331 C1318 0.962 . S
H1332 C1318 0.960 . S
H1333 C1319 0.961 . S
H1334 C1319 0.961 . S
H1335 C1319 0.961 . S
H1336 C1320 0.931 . S
H1337 C1325 0.930 . S
H1338 C1326 0.956 . S
H1339 C1326 0.961 . S
H1340 C1326 0.961 . S
H1341 C1327 0.958 . S
H1342 C1327 0.961 . S
H1343 C1327 0.960 . S
C1344 C1345 1.391 . S
C1344 C1346 1.394 . S
C1344 H1360 0.931 . S
C1345 C1344 1.391 . S
C1345 C1349 1.376 . S
C1346 C1344 1.394 . S
C1346 C1347 1.369 . S
C1346 C1350 1.531 . S
C1347 C1346 1.369 . S
C1347 C1348 1.410 . S
C1347 C1355 1.503 . S
C1348 C1347 1.410 . S
C1348 C1349 1.392 . S
C1348 C1351 1.511 . S
C1349 C1345 1.376 . S
C1349 C1348 1.392 . S
C1349 H1361 0.929 . S
C1350 C1346 1.531 . S
C1350 H1362 0.960 . S
C1350 H1363 0.962 . S
C1350 H1364 0.960 . S
C1351 C1348 1.511 . S
C1351 H1365 0.961 . S
C1351 H1366 0.961 . S
C1351 H1367 0.961 . S
C1352 C1353 1.370 . S
C1352 C1354 1.363 . S
C1352 H1368 0.931 . S
C1353 C1352 1.370 . S
C1353 C1357 1.408 . S
C1354 C1352 1.363 . S
C1354 C1355 1.370 . S
C1354 C1358 1.524 . S
C1355 C1347 1.503 . S
C1355 C1354 1.370 . S
C1355 C1356 1.403 . S
C1356 C1355 1.403 . S
C1356 C1357 1.404 . S
C1356 C1359 1.539 . S
C1357 C1353 1.408 . S
C1357 C1356 1.404 . S
C1357 H1369 0.930 . S
C1358 C1354 1.524 . S
C1358 H1370 0.956 . S
C1358 H1371 0.961 . S
C1358 H1372 0.961 . S
C1359 C1356 1.539 . S
C1359 H1373 0.958 . S
C1359 H1374 0.961 . S
C1359 H1375 0.960 . S
H1360 C1344 0.931 . S
H1361 C1349 0.929 . S
H1362 C1350 0.960 . S
H1363 C1350 0.962 . S
H1364 C1350 0.960 . S
H1365 C1351 0.961 . S
H1366 C1351 0.961 . S
H1367 C1351 0.961 . S
H1368 C1352 0.931 . S
H1369 C1357 0.930 . S
H1370 C1358 0.956 . S
H1371 C1358 0.961 . S
H1372 C1358 0.961 . S
H1373 C1359 0.958 . S
H1374 C1359 0.961 . S
H1375 C1359 0.960 . S
C1376 C1377 1.391 . S
C1376 C1378 1.394 . S
C1376 H1392 0.931 . S
C1377 C1376 1.391 . S
C1377 C1381 1.376 . S
C1378 C1376 1.394 . S
C1378 C1379 1.369 . S
C1378 C1382 1.531 . S
C1379 C1378 1.369 . S
C1379 C1380 1.410 . S
C1379 C1387 1.503 . S
C1380 C1379 1.410 . S
C1380 C1381 1.392 . S
C1380 C1383 1.511 . S
C1381 C1377 1.376 . S
C1381 C1380 1.392 . S
C1381 H1393 0.929 . S
C1382 C1378 1.531 . S
C1382 H1394 0.960 . S
C1382 H1395 0.962 . S
C1382 H1396 0.960 . S
C1383 C1380 1.511 . S
C1383 H1397 0.961 . S
C1383 H1398 0.961 . S
C1383 H1399 0.961 . S
C1384 C1385 1.370 . S
C1384 C1386 1.363 . S
C1384 H1400 0.931 . S
C1385 C1384 1.370 . S
C1385 C1389 1.408 . S
C1386 C1384 1.363 . S
C1386 C1387 1.370 . S
C1386 C1390 1.524 . S
C1387 C1379 1.503 . S
C1387 C1386 1.370 . S
C1387 C1388 1.403 . S
C1388 C1387 1.403 . S
C1388 C1389 1.404 . S
C1388 C1391 1.539 . S
C1389 C1385 1.408 . S
C1389 C1388 1.404 . S
C1389 H1401 0.930 . S
C1390 C1386 1.524 . S
C1390 H1402 0.956 . S
C1390 H1403 0.961 . S
C1390 H1404 0.961 . S
C1391 C1388 1.539 . S
C1391 H1405 0.958 . S
C1391 H1406 0.961 . S
C1391 H1407 0.960 . S
H1392 C1376 0.931 . S
H1393 C1381 0.929 . S
H1394 C1382 0.960 . S
H1395 C1382 0.962 . S
H1396 C1382 0.960 . S
H1397 C1383 0.961 . S
H1398 C1383 0.961 . S
H1399 C1383 0.961 . S
H1400 C1384 0.931 . S
H1401 C1389 0.930 . S
H1402 C1390 0.956 . S
H1403 C1390 0.961 . S
H1404 C1390 0.961 . S
H1405 C1391 0.958 . S
H1406 C1391 0.961 . S
H1407 C1391 0.960 . S
C1408 C1409 1.391 . S
C1408 C1410 1.394 . S
C1408 H1424 0.931 . S
C1409 C1408 1.391 . S
C1409 C1413 1.376 . S
C1410 C1408 1.394 . S
C1410 C1411 1.369 . S
C1410 C1414 1.531 . S
C1411 C1410 1.369 . S
C1411 C1412 1.410 . S
C1411 C1419 1.503 . S
C1412 C1411 1.410 . S
C1412 C1413 1.392 . S
C1412 C1415 1.511 . S
C1413 C1409 1.376 . S
C1413 C1412 1.392 . S
C1413 H1425 0.929 . S
C1414 C1410 1.531 . S
C1414 H1426 0.960 . S
C1414 H1427 0.962 . S
C1414 H1428 0.960 . S
C1415 C1412 1.511 . S
C1415 H1429 0.961 . S
C1415 H1430 0.961 . S
C1415 H1431 0.961 . S
C1416 C1417 1.370 . S
C1416 C1418 1.363 . S
C1416 H1432 0.931 . S
C1417 C1416 1.370 . S
C1417 C1421 1.408 . S
C1418 C1416 1.363 . S
C1418 C1419 1.370 . S
C1418 C1422 1.524 . S
C1419 C1411 1.503 . S
C1419 C1418 1.370 . S
C1419 C1420 1.403 . S
C1420 C1419 1.403 . S
C1420 C1421 1.404 . S
C1420 C1423 1.539 . S
C1421 C1417 1.408 . S
C1421 C1420 1.404 . S
C1421 H1433 0.930 . S
C1422 C1418 1.524 . S
C1422 H1434 0.956 . S
C1422 H1435 0.961 . S
C1422 H1436 0.961 . S
C1423 C1420 1.539 . S
C1423 H1437 0.958 . S
C1423 H1438 0.961 . S
C1423 H1439 0.960 . S
H1424 C1408 0.931 . S
H1425 C1413 0.929 . S
H1426 C1414 0.960 . S
H1427 C1414 0.962 . S
H1428 C1414 0.960 . S
H1429 C1415 0.961 . S
H1430 C1415 0.961 . S
H1431 C1415 0.961 . S
H1432 C1416 0.931 . S
H1433 C1421 0.930 . S
H1434 C1422 0.956 . S
H1435 C1422 0.961 . S
H1436 C1422 0.961 . S
H1437 C1423 0.958 . S
H1438 C1423 0.961 . S
H1439 C1423 0.960 . S
C1440 C1441 1.391 . S
C1440 C1442 1.394 . S
C1440 H1456 0.931 . S
C1441 C1440 1.391 . S
C1441 C1445 1.376 . S
C1442 C1440 1.394 . S
C1442 C1443 1.369 . S
C1442 C1446 1.531 . S
C1443 C1442 1.369 . S
C1443 C1444 1.410 . S
C1443 C1451 1.503 . S
C1444 C1443 1.410 . S
C1444 C1445 1.392 . S
C1444 C1447 1.511 . S
C1445 C1441 1.376 . S
C1445 C1444 1.392 . S
C1445 H1457 0.929 . S
C1446 C1442 1.531 . S
C1446 H1458 0.960 . S
C1446 H1459 0.962 . S
C1446 H1460 0.960 . S
C1447 C1444 1.511 . S
C1447 H1461 0.961 . S
C1447 H1462 0.961 . S
C1447 H1463 0.961 . S
C1448 C1449 1.370 . S
C1448 C1450 1.363 . S
C1448 H1464 0.931 . S
C1449 C1448 1.370 . S
C1449 C1453 1.408 . S
C1450 C1448 1.363 . S
C1450 C1451 1.370 . S
C1450 C1454 1.524 . S
C1451 C1443 1.503 . S
C1451 C1450 1.370 . S
C1451 C1452 1.403 . S
C1452 C1451 1.403 . S
C1452 C1453 1.404 . S
C1452 C1455 1.539 . S
C1453 C1449 1.408 . S
C1453 C1452 1.404 . S
C1453 H1465 0.930 . S
C1454 C1450 1.524 . S
C1454 H1466 0.956 . S
C1454 H1467 0.961 . S
C1454 H1468 0.961 . S
C1455 C1452 1.539 . S
C1455 H1469 0.958 . S
C1455 H1470 0.961 . S
C1455 H1471 0.960 . S
H1456 C1440 0.931 . S
H1457 C1445 0.929 . S
H1458 C1446 0.960 . S
H1459 C1446 0.962 . S
H1460 C1446 0.960 . S
H1461 C1447 0.961 . S
H1462 C1447 0.961 . S
H1463 C1447 0.961 . S
H1464 C1448 0.931 . S
H1465 C1453 0.930 . S
H1466 C1454 0.956 . S
H1467 C1454 0.961 . S
H1468 C1454 0.961 . S
H1469 C1455 0.958 . S
H1470 C1455 0.961 . S
H1471 C1455 0.960 . S
C1472 C1473 1.391 . S
C1472 C1474 1.394 . S
C1472 H1488 0.931 . S
C1473 C1472 1.391 . S
C1473 C1477 1.376 . S
C1474 C1472 1.394 . S
C1474 C1475 1.369 . S
C1474 C1478 1.531 . S
C1475 C1474 1.369 . S
C1475 C1476 1.410 . S
C1475 C1483 1.503 . S
C1476 C1475 1.410 . S
C1476 C1477 1.392 . S
C1476 C1479 1.511 . S
C1477 C1473 1.376 . S
C1477 C1476 1.392 . S
C1477 H1489 0.929 . S
C1478 C1474 1.531 . S
C1478 H1490 0.960 . S
C1478 H1491 0.962 . S
C1478 H1492 0.960 . S
C1479 C1476 1.511 . S
C1479 H1493 0.961 . S
C1479 H1494 0.961 . S
C1479 H1495 0.961 . S
C1480 C1481 1.370 . S
C1480 C1482 1.363 . S
C1480 H1496 0.931 . S
C1481 C1480 1.370 . S
C1481 C1485 1.408 . S
C1482 C1480 1.363 . S
C1482 C1483 1.370 . S
C1482 C1486 1.524 . S
C1483 C1475 1.503 . S
C1483 C1482 1.370 . S
C1483 C1484 1.403 . S
C1484 C1483 1.403 . S
C1484 C1485 1.404 . S
C1484 C1487 1.539 . S
C1485 C1481 1.408 . S
C1485 C1484 1.404 . S
C1485 H1497 0.930 . S
C1486 C1482 1.524 . S
C1486 H1498 0.956 . S
C1486 H1499 0.961 . S
C1486 H1500 0.961 . S
C1487 C1484 1.539 . S
C1487 H1501 0.958 . S
C1487 H1502 0.961 . S
C1487 H1503 0.960 . S
H1488 C1472 0.931 . S
H1489 C1477 0.929 . S
H1490 C1478 0.960 . S
H1491 C1478 0.962 . S
H1492 C1478 0.960 . S
H1493 C1479 0.961 . S
H1494 C1479 0.961 . S
H1495 C1479 0.961 . S
H1496 C1480 0.931 . S
H1497 C1485 0.930 . S
H1498 C1486 0.956 . S
H1499 C1486 0.961 . S
H1500 C1486 0.961 . S
H1501 C1487 0.958 . S
H1502 C1487 0.961 . S
H1503 C1487 0.960 . S
C1504 C1505 1.391 . S
C1504 C1506 1.394 . S
C1504 H1520 0.931 . S
C1505 C1504 1.391 . S
C1505 C1509 1.376 . S
C1506 C1504 1.394 . S
C1506 C1507 1.369 . S
C1506 C1510 1.531 . S
C1507 C1506 1.369 . S
C1507 C1508 1.410 . S
C1507 C1515 1.503 . S
C1508 C1507 1.410 . S
C1508 C1509 1.392 . S
C1508 C1511 1.511 . S
C1509 C1505 1.376 . S
C1509 C1508 1.392 . S
C1509 H1521 0.929 . S
C1510 C1506 1.531 . S
C1510 H1522 0.960 . S
C1510 H1523 0.962 . S
C1510 H1524 0.960 . S
C1511 C1508 1.511 . S
C1511 H1525 0.961 . S
C1511 H1526 0.961 . S
C1511 H1527 0.961 . S
C1512 C1513 1.370 . S
C1512 C1514 1.363 . S
C1512 H1528 0.931 . S
C1513 C1512 1.370 . S
C1513 C1517 1.408 . S
C1514 C1512 1.363 . S
C1514 C1515 1.370 . S
C1514 C1518 1.524 . S
C1515 C1507 1.503 . S
C1515 C1514 1.370 . S
C1515 C1516 1.403 . S
C1516 C1515 1.403 . S
C1516 C1517 1.404 . S
C1516 C1519 1.539 . S
C1517 C1513 1.408 . S
C1517 C1516 1.404 . S
C1517 H1529 0.930 . S
C1518 C1514 1.524 . S
C1518 H1530 0.956 . S
C1518 H1531 0.961 . S
C1518 H1532 0.961 . S
C1519 C1516 1.539 . S
C1519 H1533 0.958 . S
C1519 H1534 0.961 . S
C1519 H1535 0.960 . S
H1520 C1504 0.931 . S
H1521 C1509 0.929 . S
H1522 C1510 0.960 . S
H1523 C1510 0.962 . S
H1524 C1510 0.960 . S
H1525 C1511 0.961 . S
H1526 C1511 0.961 . S
H1527 C1511 0.961 . S
H1528 C1512 0.931 . S
H1529 C1517 0.930 . S
H1530 C1518 0.956 . S
H1531 C1518 0.961 . S
H1532 C1518 0.961 . S
H1533 C1519 0.958 . S
H1534 C1519 0.961 . S
H1535 C1519 0.960 . S
C1536 C1537 1.391 . S
C1536 C1538 1.394 . S
C1536 H1552 0.931 . S
C1537 C1536 1.391 . S
C1537 C1541 1.376 . S
C1538 C1536 1.394 . S
C1538 C1539 1.369 . S
C1538 C1542 1.531 . S
C1539 C1538 1.369 . S
C1539 C1540 1.410 . S
C1539 C1547 1.503 . S
C1540 C1539 1.410 . S
C1540 C1541 1.392 . S
C1540 C1543 1.511 . S
C1541 C1537 1.376 . S
C1541 C1540 1.392 . S
C1541 H1553 0.929 . S
C1542 C1538 1.531 . S
C1542 H1554 0.960 . S
C1542 H1555 0.962 . S
C1542 H1556 0.960 . S
C1543 C1540 1.511 . S
C1543 H1557 0.961 . S
C1543 H1558 0.961 . S
C1543 H1559 0.961 . S
C1544 C1545 1.370 . S
C1544 C1546 1.363 . S
C1544 H1560 0.931 . S
C1545 C1544 1.370 . S
C1545 C1549 1.408 . S
C1546 C1544 1.363 . S
C1546 C1547 1.370 . S
C1546 C1550 1.524 . S
C1547 C1539 1.503 . S
C1547 C1546 1.370 . S
C1547 C1548 1.403 . S
C1548 C1547 1.403 . S
C1548 C1549 1.404 . S
C1548 C1551 1.539 . S
C1549 C1545 1.408 . S
C1549 C1548 1.404 . S
C1549 H1561 0.930 . S
C1550 C1546 1.524 . S
C1550 H1562 0.956 . S
C1550 H1563 0.961 . S
C1550 H1564 0.961 . S
C1551 C1548 1.539 . S
C1551 H1565 0.958 . S
C1551 H1566 0.961 . S
C1551 H1567 0.960 . S
H1552 C1536 0.931 . S
H1553 C1541 0.929 . S
H1554 C1542 0.960 . S
H1555 C1542 0.962 . S
H1556 C1542 0.960 . S
H1557 C1543 0.961 . S
H1558 C1543 0.961 . S
H1559 C1543 0.961 . S
H1560 C1544 0.931 . S
H1561 C1549 0.930 . S
H1562 C1550 0.956 . S
H1563 C1550 0.961 . S
H1564 C1550 0.961 . S
H1565 C1551 0.958 . S
H1566 C1551 0.961 . S
H1567 C1551 0.960 . S
C1568 C1569 1.391 . S
C1568 C1570 1.394 . S
C1568 H1584 0.931 . S
C1569 C1568 1.391 . S
C1569 C1573 1.376 . S
C1570 C1568 1.394 . S
C1570 C1571 1.369 . S
C1570 C1574 1.531 . S
C1571 C1570 1.369 . S
C1571 C1572 1.410 . S
C1571 C1579 1.503 . S
C1572 C1571 1.410 . S
C1572 C1573 1.392 . S
C1572 C1575 1.511 . S
C1573 C1569 1.376 . S
C1573 C1572 1.392 . S
C1573 H1585 0.929 . S
C1574 C1570 1.531 . S
C1574 H1586 0.960 . S
C1574 H1587 0.962 . S
C1574 H1588 0.960 . S
C1575 C1572 1.511 . S
C1575 H1589 0.961 . S
C1575 H1590 0.961 . S
C1575 H1591 0.961 . S
C1576 C1577 1.370 . S
C1576 C1578 1.363 . S
C1576 H1592 0.931 . S
C1577 C1576 1.370 . S
C1577 C1581 1.408 . S
C1578 C1576 1.363 . S
C1578 C1579 1.370 . S
C1578 C1582 1.524 . S
C1579 C1571 1.503 . S
C1579 C1578 1.370 . S
C1579 C1580 1.403 . S
C1580 C1579 1.403 . S
C1580 C1581 1.404 . S
C1580 C1583 1.539 . S
C1581 C1577 1.408 . S
C1581 C1580 1.404 . S
C1581 H1593 0.930 . S
C1582 C1578 1.524 . S
C1582 H1594 0.956 . S
C1582 H1595 0.961 . S
C1582 H1596 0.961 . S
C1583 C1580 1.539 . S
C1583 H1597 0.958 . S
C1583 H1598 0.961 . S
C1583 H1599 0.960 . S
H1584 C1568 0.931 . S
H1585 C1573 0.929 . S
H1586 C1574 0.960 . S
H1587 C1574 0.962 . S
H1588 C1574 0.960 . S
H1589 C1575 0.961 . S
H1590 C1575 0.961 . S
H1591 C1575 0.961 . S
H1592 C1576 0.931 . S
H1593 C1581 0.930 . S
H1594 C1582 0.956 . S
H1595 C1582 0.961 . S
H1596 C1582 0.961 . S
H1597 C1583 0.958 . S
H1598 C1583 0.961 . S
H1599 C1583 0.960 . S
C1600 C1601 1.391 . S
C1600 C1602 1.394 . S
C1600 H1616 0.931 . S
C1601 C1600 1.391 . S
C1601 C1605 1.376 . S
C1602 C1600 1.394 . S
C1602 C1603 1.369 . S
C1602 C1606 1.531 . S
C1603 C1602 1.369 . S
C1603 C1604 1.410 . S
C1603 C1611 1.503 . S
C1604 C1603 1.410 . S
C1604 C1605 1.392 . S
C1604 C1607 1.511 . S
C1605 C1601 1.376 . S
C1605 C1604 1.392 . S
C1605 H1617 0.929 . S
C1606 C1602 1.531 . S
C1606 H1618 0.960 . S
C1606 H1619 0.962 . S
C1606 H1620 0.960 . S
C1607 C1604 1.511 . S
C1607 H1621 0.961 . S
C1607 H1622 0.961 . S
C1607 H1623 0.961 . S
C1608 C1609 1.370 . S
C1608 C1610 1.363 . S
C1608 H1624 0.931 . S
C1609 C1608 1.370 . S
C1609 C1613 1.408 . S
C1610 C1608 1.363 . S
C1610 C1611 1.370 . S
C1610 C1614 1.524 . S
C1611 C1603 1.503 . S
C1611 C1610 1.370 . S
C1611 C1612 1.403 . S
C1612 C1611 1.403 . S
C1612 C1613 1.404 . S
C1612 C1615 1.539 . S
C1613 C1609 1.408 . S
C1613 C1612 1.404 . S
C1613 H1625 0.930 . S
C1614 C1610 1.524 . S
C1614 H1626 0.956 . S
C1614 H1627 0.961 . S
C1614 H1628 0.961 . S
C1615 C1612 1.539 . S
C1615 H1629 0.958 . S
C1615 H1630 0.961 . S
C1615 H1631 0.960 . S
H1616 C1600 0.931 . S
H1617 C1605 0.929 . S
H1618 C1606 0.960 . S
H1619 C1606 0.962 . S
H1620 C1606 0.960 . S
H1621 C1607 0.961 . S
H1622 C1607 0.961 . S
H1623 C1607 0.961 . S
H1624 C1608 0.931 . S
H1625 C1613 0.930 . S
H1626 C1614 0.956 . S
H1627 C1614 0.961 . S
H1628 C1614 0.961 . S
H1629 C1615 0.958 . S
H1630 C1615 0.961 . S
H1631 C1615 0.960 . S
C1632 C1633 1.391 . S
C1632 C1634 1.394 . S
C1632 H1648 0.931 . S
C1633 C1632 1.391 . S
C1633 C1637 1.376 . S
C1634 C1632 1.394 . S
C1634 C1635 1.369 . S
C1634 C1638 1.531 . S
C1635 C1634 1.369 . S
C1635 C1636 1.410 . S
C1635 C1643 1.503 . S
C1636 C1635 1.410 . S
C1636 C1637 1.392 . S
C1636 C1639 1.511 . S
C1637 C1633 1.376 . S
C1637 C1636 1.392 . S
C1637 H1649 0.929 . S
C1638 C1634 1.531 . S
C1638 H1650 0.960 . S
C1638 H1651 0.962 . S
C1638 H1652 0.960 . S
C1639 C1636 1.511 . S
C1639 H1653 0.961 . S
C1639 H1654 0.961 . S
C1639 H1655 0.961 . S
C1640 C1641 1.370 . S
C1640 C1642 1.363 . S
C1640 H1656 0.931 . S
C1641 C1640 1.370 . S
C1641 C1645 1.408 . S
C1642 C1640 1.363 . S
C1642 C1643 1.370 . S
C1642 C1646 1.524 . S
C1643 C1635 1.503 . S
C1643 C1642 1.370 . S
C1643 C1644 1.403 . S
C1644 C1643 1.403 . S
C1644 C1645 1.404 . S
C1644 C1647 1.539 . S
C1645 C1641 1.408 . S
C1645 C1644 1.404 . S
C1645 H1657 0.930 . S
C1646 C1642 1.524 . S
C1646 H1658 0.956 . S
C1646 H1659 0.961 . S
C1646 H1660 0.961 . S
C1647 C1644 1.539 . S
C1647 H1661 0.958 . S
C1647 H1662 0.961 . S
C1647 H1663 0.960 . S
H1648 C1632 0.931 . S
H1649 C1637 0.929 . S
H1650 C1638 0.960 . S
H1651 C1638 0.962 . S
H1652 C1638 0.960 . S
H1653 C1639 0.961 . S
H1654 C1639 0.961 . S
H1655 C1639 0.961 . S
H1656 C1640 0.931 . S
H1657 C1645 0.930 . S
H1658 C1646 0.956 . S
H1659 C1646 0.961 . S
H1660 C1646 0.961 . S
H1661 C1647 0.958 . S
H1662 C1647 0.961 . S
H1663 C1647 0.960 . S
C1664 C1665 1.391 . S
C1664 C1666 1.394 . S
C1664 H1680 0.931 . S
C1665 C1664 1.391 . S
C1665 C1669 1.376 . S
C1666 C1664 1.394 . S
C1666 C1667 1.369 . S
C1666 C1670 1.531 . S
C1667 C1666 1.369 . S
C1667 C1668 1.410 . S
C1667 C1675 1.503 . S
C1668 C1667 1.410 . S
C1668 C1669 1.392 . S
C1668 C1671 1.511 . S
C1669 C1665 1.376 . S
C1669 C1668 1.392 . S
C1669 H1681 0.929 . S
C1670 C1666 1.531 . S
C1670 H1682 0.960 . S
C1670 H1683 0.962 . S
C1670 H1684 0.960 . S
C1671 C1668 1.511 . S
C1671 H1685 0.961 . S
C1671 H1686 0.961 . S
C1671 H1687 0.961 . S
C1672 C1673 1.370 . S
C1672 C1674 1.363 . S
C1672 H1688 0.931 . S
C1673 C1672 1.370 . S
C1673 C1677 1.408 . S
C1674 C1672 1.363 . S
C1674 C1675 1.370 . S
C1674 C1678 1.524 . S
C1675 C1667 1.503 . S
C1675 C1674 1.370 . S
C1675 C1676 1.403 . S
C1676 C1675 1.403 . S
C1676 C1677 1.404 . S
C1676 C1679 1.539 . S
C1677 C1673 1.408 . S
C1677 C1676 1.404 . S
C1677 H1689 0.930 . S
C1678 C1674 1.524 . S
C1678 H1690 0.956 . S
C1678 H1691 0.961 . S
C1678 H1692 0.961 . S
C1679 C1676 1.539 . S
C1679 H1693 0.958 . S
C1679 H1694 0.961 . S
C1679 H1695 0.960 . S
H1680 C1664 0.931 . S
H1681 C1669 0.929 . S
H1682 C1670 0.960 . S
H1683 C1670 0.962 . S
H1684 C1670 0.960 . S
H1685 C1671 0.961 . S
H1686 C1671 0.961 . S
H1687 C1671 0.961 . S
H1688 C1672 0.931 . S
H1689 C1677 0.930 . S
H1690 C1678 0.956 . S
H1691 C1678 0.961 . S
H1692 C1678 0.961 . S
H1693 C1679 0.958 . S
H1694 C1679 0.961 . S
H1695 C1679 0.960 . S
C1696 C1697 1.391 . S
C1696 C1698 1.394 . S
C1696 H1712 0.931 . S
C1697 C1696 1.391 . S
C1697 C1701 1.376 . S
C1698 C1696 1.394 . S
C1698 C1699 1.369 . S
C1698 C1702 1.531 . S
C1699 C1698 1.369 . S
C1699 C1700 1.410 . S
C1699 C1707 1.503 . S
C1700 C1699 1.410 . S
C1700 C1701 1.392 . S
C1700 C1703 1.511 . S
C1701 C1697 1.376 . S
C1701 C1700 1.392 . S
C1701 H1713 0.929 . S
C1702 C1698 1.531 . S
C1702 H1714 0.960 . S
C1702 H1715 0.962 . S
C1702 H1716 0.960 . S
C1703 C1700 1.511 . S
C1703 H1717 0.961 . S
C1703 H1718 0.961 . S
C1703 H1719 0.961 . S
C1704 C1705 1.370 . S
C1704 C1706 1.363 . S
C1704 H1720 0.931 . S
C1705 C1704 1.370 . S
C1705 C1709 1.408 . S
C1706 C1704 1.363 . S
C1706 C1707 1.370 . S
C1706 C1710 1.524 . S
C1707 C1699 1.503 . S
C1707 C1706 1.370 . S
C1707 C1708 1.403 . S
C1708 C1707 1.403 . S
C1708 C1709 1.404 . S
C1708 C1711 1.539 . S
C1709 C1705 1.408 . S
C1709 C1708 1.404 . S
C1709 H1721 0.930 . S
C1710 C1706 1.524 . S
C1710 H1722 0.956 . S
C1710 H1723 0.961 . S
C1710 H1724 0.961 . S
C1711 C1708 1.539 . S
C1711 H1725 0.958 . S
C1711 H1726 0.961 . S
C1711 H1727 0.960 . S
H1712 C1696 0.931 . S
H1713 C1701 0.929 . S
H1714 C1702 0.960 . S
H1715 C1702 0.962 . S
H1716 C1702 0.960 . S
H1717 C1703 0.961 . S
H1718 C1703 0.961 . S
H1719 C1703 0.961 . S
H1720 C1704 0.931 . S
H1721 C1709 0.930 . S
H1722 C1710 0.956 . S
H1723 C1710 0.961 . S
H1724 C1710 0.961 . S
H1725 C1711 0.958 . S
H1726 C1711 0.961 . S
H1727 C1711 0.960 . S
C1728 C1729 1.391 . S
C1728 C1730 1.394 . S
C1728 H1744 0.931 . S
C1729 C1728 1.391 . S
C1729 C1733 1.376 . S
C1730 C1728 1.394 . S
C1730 C1731 1.369 . S
C1730 C1734 1.531 . S
C1731 C1730 1.369 . S
C1731 C1732 1.410 . S
C1731 C1739 1.503 . S
C1732 C1731 1.410 . S
C1732 C1733 1.392 . S
C1732 C1735 1.511 . S
C1733 C1729 1.376 . S
C1733 C1732 1.392 . S
C1733 H1745 0.929 . S
C1734 C1730 1.531 . S
C1734 H1746 0.960 . S
C1734 H1747 0.962 . S
C1734 H1748 0.960 . S
C1735 C1732 1.511 . S
C1735 H1749 0.961 . S
C1735 H1750 0.961 . S
C1735 H1751 0.961 . S
C1736 C1737 1.370 . S
C1736 C1738 1.363 . S
C1736 H1752 0.931 . S
C1737 C1736 1.370 . S
C1737 C1741 1.408 . S
C1738 C1736 1.363 . S
C1738 C1739 1.370 . S
C1738 C1742 1.524 . S
C1739 C1731 1.503 . S
C1739 C1738 1.370 . S
C1739 C1740 1.403 . S
C1740 C1739 1.403 . S
C1740 C1741 1.404 . S
C1740 C1743 1.539 . S
C1741 C1737 1.408 . S
C1741 C1740 1.404 . S
C1741 H1753 0.930 . S
C1742 C1738 1.524 . S
C1742 H1754 0.956 . S
C1742 H1755 0.961 . S
C1742 H1756 0.961 . S
C1743 C1740 1.539 . S
C1743 H1757 0.958 . S
C1743 H1758 0.961 . S
C1743 H1759 0.960 . S
H1744 C1728 0.931 . S
H1745 C1733 0.929 . S
H1746 C1734 0.960 . S
H1747 C1734 0.962 . S
H1748 C1734 0.960 . S
H1749 C1735 0.961 . S
H1750 C1735 0.961 . S
H1751 C1735 0.961 . S
H1752 C1736 0.931 . S
H1753 C1741 0.930 . S
H1754 C1742 0.956 . S
H1755 C1742 0.961 . S
H1756 C1742 0.961 . S
H1757 C1743 0.958 . S
H1758 C1743 0.961 . S
H1759 C1743 0.960 . S
C1760 C1761 1.391 . S
C1760 C1762 1.394 . S
C1760 H1776 0.931 . S
C1761 C1760 1.391 . S
C1761 C1765 1.376 . S
C1762 C1760 1.394 . S
C1762 C1763 1.369 . S
C1762 C1766 1.531 . S
C1763 C1762 1.369 . S
C1763 C1764 1.410 . S
C1763 C1771 1.503 . S
C1764 C1763 1.410 . S
C1764 C1765 1.392 . S
C1764 C1767 1.511 . S
C1765 C1761 1.376 . S
C1765 C1764 1.392 . S
C1765 H1777 0.929 . S
C1766 C1762 1.531 . S
C1766 H1778 0.960 . S
C1766 H1779 0.962 . S
C1766 H1780 0.960 . S
C1767 C1764 1.511 . S
C1767 H1781 0.961 . S
C1767 H1782 0.961 . S
C1767 H1783 0.961 . S
C1768 C1769 1.370 . S
C1768 C1770 1.363 . S
C1768 H1784 0.931 . S
C1769 C1768 1.370 . S
C1769 C1773 1.408 . S
C1770 C1768 1.363 . S
C1770 C1771 1.370 . S
C1770 C1774 1.524 . S
C1771 C1763 1.503 . S
C1771 C1770 1.370 . S
C1771 C1772 1.403 . S
C1772 C1771 1.403 . S
C1772 C1773 1.404 . S
C1772 C1775 1.539 . S
C1773 C1769 1.408 . S
C1773 C1772 1.404 . S
C1773 H1785 0.930 . S
C1774 C1770 1.524 . S
C1774 H1786 0.956 . S
C1774 H1787 0.961 . S
C1774 H1788 0.961 . S
C1775 C1772 1.539 . S
C1775 H1789 0.958 . S
C1775 H1790 0.961 . S
C1775 H1791 0.960 . S
H1776 C1760 0.931 . S
H1777 C1765 0.929 . S
H1778 C1766 0.960 . S
H1779 C1766 0.962 . S
H1780 C1766 0.960 . S
H1781 C1767 0.961 . S
H1782 C1767 0.961 . S
H1783 C1767 0.961 . S
H1784 C1768 0.931 . S
H1785 C1773 0.930 . S
H1786 C1774 0.956 . S
H1787 C1774 0.961 . S
H1788 C1774 0.961 . S
H1789 C1775 0.958 . S
H1790 C1775 0.961 . S
H1791 C1775 0.960 . S
C1792 C1793 1.391 . S
C1792 C1794 1.394 . S
C1792 H1808 0.931 . S
C1793 C1792 1.391 . S
C1793 C1797 1.376 . S
C1794 C1792 1.394 . S
C1794 C1795 1.369 . S
C1794 C1798 1.531 . S
C1795 C1794 1.369 . S
C1795 C1796 1.410 . S
C1795 C1803 1.503 . S
C1796 C1795 1.410 . S
C1796 C1797 1.392 . S
C1796 C1799 1.511 . S
C1797 C1793 1.376 . S
C1797 C1796 1.392 . S
C1797 H1809 0.929 . S
C1798 C1794 1.531 . S
C1798 H1810 0.960 . S
C1798 H1811 0.962 . S
C1798 H1812 0.960 . S
C1799 C1796 1.511 . S
C1799 H1813 0.961 . S
C1799 H1814 0.961 . S
C1799 H1815 0.961 . S
C1800 C1801 1.370 . S
C1800 C1802 1.363 . S
C1800 H1816 0.931 . S
C1801 C1800 1.370 . S
C1801 C1805 1.408 . S
C1802 C1800 1.363 . S
C1802 C1803 1.370 . S
C1802 C1806 1.524 . S
C1803 C1795 1.503 . S
C1803 C1802 1.370 . S
C1803 C1804 1.403 . S
C1804 C1803 1.403 . S
C1804 C1805 1.404 . S
C1804 C1807 1.539 . S
C1805 C1801 1.408 . S
C1805 C1804 1.404 . S
C1805 H1817 0.930 . S
C1806 C1802 1.524 . S
C1806 H1818 0.956 . S
C1806 H1819 0.961 . S
C1806 H1820 0.961 . S
C1807 C1804 1.539 . S
C1807 H1821 0.958 . S
C1807 H1822 0.961 . S
C1807 H1823 0.960 . S
H1808 C1792 0.931 . S
H1809 C1797 0.929 . S
H1810 C1798 0.960 . S
H1811 C1798 0.962 . S
H1812 C1798 0.960 . S
H1813 C1799 0.961 . S
H1814 C1799 0.961 . S
H1815 C1799 0.961 . S
H1816 C1800 0.931 . S
H1817 C1805 0.930 . S
H1818 C1806 0.956 . S
H1819 C1806 0.961 . S
H1820 C1806 0.961 . S
H1821 C1807 0.958 . S
H1822 C1807 0.961 . S
H1823 C1807 0.960 . S
C1824 C1825 1.391 . S
C1824 C1826 1.394 . S
C1824 H1840 0.931 . S
C1825 C1824 1.391 . S
C1825 C1829 1.376 . S
C1826 C1824 1.394 . S
C1826 C1827 1.369 . S
C1826 C1830 1.531 . S
C1827 C1826 1.369 . S
C1827 C1828 1.410 . S
C1827 C1835 1.503 . S
C1828 C1827 1.410 . S
C1828 C1829 1.392 . S
C1828 C1831 1.511 . S
C1829 C1825 1.376 . S
C1829 C1828 1.392 . S
C1829 H1841 0.929 . S
C1830 C1826 1.531 . S
C1830 H1842 0.960 . S
C1830 H1843 0.962 . S
C1830 H1844 0.960 . S
C1831 C1828 1.511 . S
C1831 H1845 0.961 . S
C1831 H1846 0.961 . S
C1831 H1847 0.961 . S
C1832 C1833 1.370 . S
C1832 C1834 1.363 . S
C1832 H1848 0.931 . S
C1833 C1832 1.370 . S
C1833 C1837 1.408 . S
C1834 C1832 1.363 . S
C1834 C1835 1.370 . S
C1834 C1838 1.524 . S
C1835 C1827 1.503 . S
C1835 C1834 1.370 . S
C1835 C1836 1.403 . S
C1836 C1835 1.403 . S
C1836 C1837 1.404 . S
C1836 C1839 1.539 . S
C1837 C1833 1.408 . S
C1837 C1836 1.404 . S
C1837 H1849 0.930 . S
C1838 C1834 1.524 . S
C1838 H1850 0.956 . S
C1838 H1851 0.961 . S
C1838 H1852 0.961 . S
C1839 C1836 1.539 . S
C1839 H1853 0.958 . S
C1839 H1854 0.961 . S
C1839 H1855 0.960 . S
H1840 C1824 0.931 . S
H1841 C1829 0.929 . S
H1842 C1830 0.960 . S
H1843 C1830 0.962 . S
H1844 C1830 0.960 . S
H1845 C1831 0.961 . S
H1846 C1831 0.961 . S
H1847 C1831 0.961 . S
H1848 C1832 0.931 . S
H1849 C1837 0.930 . S
H1850 C1838 0.956 . S
H1851 C1838 0.961 . S
H1852 C1838 0.961 . S
H1853 C1839 0.958 . S
H1854 C1839 0.961 . S
H1855 C1839 0.960 . S
C1856 C1857 1.391 . S
C1856 C1858 1.394 . S
C1856 H1872 0.931 . S
C1857 C1856 1.391 . S
C1857 C1861 1.376 . S
C1858 C1856 1.394 . S
C1858 C1859 1.369 . S
C1858 C1862 1.531 . S
C1859 C1858 1.369 . S
C1859 C1860 1.410 . S
C1859 C1867 1.503 . S
C1860 C1859 1.410 . S
C1860 C1861 1.392 . S
C1860 C1863 1.511 . S
C1861 C1857 1.376 . S
C1861 C1860 1.392 . S
C1861 H1873 0.929 . S
C1862 C1858 1.531 . S
C1862 H1874 0.960 . S
C1862 H1875 0.962 . S
C1862 H1876 0.960 . S
C1863 C1860 1.511 . S
C1863 H1877 0.961 . S
C1863 H1878 0.961 . S
C1863 H1879 0.961 . S
C1864 C1865 1.370 . S
C1864 C1866 1.363 . S
C1864 H1880 0.931 . S
C1865 C1864 1.370 . S
C1865 C1869 1.408 . S
C1866 C1864 1.363 . S
C1866 C1867 1.370 . S
C1866 C1870 1.524 . S
C1867 C1859 1.503 . S
C1867 C1866 1.370 . S
C1867 C1868 1.403 . S
C1868 C1867 1.403 . S
C1868 C1869 1.404 . S
C1868 C1871 1.539 . S
C1869 C1865 1.408 . S
C1869 C1868 1.404 . S
C1869 H1881 0.930 . S
C1870 C1866 1.524 . S
C1870 H1882 0.956 . S
C1870 H1883 0.961 . S
C1870 H1884 0.961 . S
C1871 C1868 1.539 . S
C1871 H1885 0.958 . S
C1871 H1886 0.961 . S
C1871 H1887 0.960 . S
H1872 C1856 0.931 . S
H1873 C1861 0.929 . S
H1874 C1862 0.960 . S
H1875 C1862 0.962 . S
H1876 C1862 0.960 . S
H1877 C1863 0.961 . S
H1878 C1863 0.961 . S
H1879 C1863 0.961 . S
H1880 C1864 0.931 . S
H1881 C1869 0.930 . S
H1882 C1870 0.956 . S
H1883 C1870 0.961 . S
H1884 C1870 0.961 . S
H1885 C1871 0.958 . S
H1886 C1871 0.961 . S
H1887 C1871 0.960 . S
C1888 C1889 1.391 . S
C1888 C1890 1.394 . S
C1888 H1904 0.931 . S
C1889 C1888 1.391 . S
C1889 C1893 1.376 . S
C1890 C1888 1.394 . S
C1890 C1891 1.369 . S
C1890 C1894 1.531 . S
C1891 C1890 1.369 . S
C1891 C1892 1.410 . S
C1891 C1899 1.503 . S
C1892 C1891 1.410 . S
C1892 C1893 1.392 . S
C1892 C1895 1.511 . S
C1893 C1889 1.376 . S
C1893 C1892 1.392 . S
C1893 H1905 0.929 . S
C1894 C1890 1.531 . S
C1894 H1906 0.960 . S
C1894 H1907 0.962 . S
C1894 H1908 0.960 . S
C1895 C1892 1.511 . S
C1895 H1909 0.961 . S
C1895 H1910 0.961 . S
C1895 H1911 0.961 . S
C1896 C1897 1.370 . S
C1896 C1898 1.363 . S
C1896 H1912 0.931 . S
C1897 C1896 1.370 . S
C1897 C1901 1.408 . S
C1898 C1896 1.363 . S
C1898 C1899 1.370 . S
C1898 C1902 1.524 . S
C1899 C1891 1.503 . S
C1899 C1898 1.370 . S
C1899 C1900 1.403 . S
C1900 C1899 1.403 . S
C1900 C1901 1.404 . S
C1900 C1903 1.539 . S
C1901 C1897 1.408 . S
C1901 C1900 1.404 . S
C1901 H1913 0.930 . S
C1902 C1898 1.524 . S
C1902 H1914 0.956 . S
C1902 H1915 0.961 . S
C1902 H1916 0.961 . S
C1903 C1900 1.539 . S
C1903 H1917 0.958 . S
C1903 H1918 0.961 . S
C1903 H1919 0.960 . S
H1904 C1888 0.931 . S
H1905 C1893 0.929 . S
H1906 C1894 0.960 . S
H1907 C1894 0.962 . S
H1908 C1894 0.960 . S
H1909 C1895 0.961 . S
H1910 C1895 0.961 . S
H1911 C1895 0.961 . S
H1912 C1896 0.931 . S
H1913 C1901 0.930 . S
H1914 C1902 0.956 . S
H1915 C1902 0.961 . S
H1916 C1902 0.961 . S
H1917 C1903 0.958 . S
H1918 C1903 0.961 . S
H1919 C1903 0.960 . S
C1920 C1921 1.391 . S
C1920 C1922 1.394 . S
C1920 H1936 0.931 . S
C1921 C1920 1.391 . S
C1921 C1925 1.376 . S
C1922 C1920 1.394 . S
C1922 C1923 1.369 . S
C1922 C1926 1.531 . S
C1923 C1922 1.369 . S
C1923 C1924 1.410 . S
C1923 C1931 1.503 . S
C1924 C1923 1.410 . S
C1924 C1925 1.392 . S
C1924 C1927 1.511 . S
C1925 C1921 1.376 . S
C1925 C1924 1.392 . S
C1925 H1937 0.929 . S
C1926 C1922 1.531 . S
C1926 H1938 0.960 . S
C1926 H1939 0.962 . S
C1926 H1940 0.960 . S
C1927 C1924 1.511 . S
C1927 H1941 0.961 . S
C1927 H1942 0.961 . S
C1927 H1943 0.961 . S
C1928 C1929 1.370 . S
C1928 C1930 1.363 . S
C1928 H1944 0.931 . S
C1929 C1928 1.370 . S
C1929 C1933 1.408 . S
C1930 C1928 1.363 . S
C1930 C1931 1.370 . S
C1930 C1934 1.524 . S
C1931 C1923 1.503 . S
C1931 C1930 1.370 . S
C1931 C1932 1.403 . S
C1932 C1931 1.403 . S
C1932 C1933 1.404 . S
C1932 C1935 1.539 . S
C1933 C1929 1.408 . S
C1933 C1932 1.404 . S
C1933 H1945 0.930 . S
C1934 C1930 1.524 . S
C1934 H1946 0.956 . S
C1934 H1947 0.961 . S
C1934 H1948 0.961 . S
C1935 C1932 1.539 . S
C1935 H1949 0.958 . S
C1935 H1950 0.961 . S
C1935 H1951 0.960 . S
H1936 C1920 0.931 . S
H1937 C1925 0.929 . S
H1938 C1926 0.960 . S
H1939 C1926 0.962 . S
H1940 C1926 0.960 . S
H1941 C1927 0.961 . S
H1942 C1927 0.961 . S
H1943 C1927 0.961 . S
H1944 C1928 0.931 . S
H1945 C1933 0.930 . S
H1946 C1934 0.956 . S
H1947 C1934 0.961 . S
H1948 C1934 0.961 . S
H1949 C1935 0.958 . S
H1950 C1935 0.961 . S
H1951 C1935 0.960 . S
C1952 C1953 1.391 . S
C1952 C1954 1.394 . S
C1952 H1968 0.931 . S
C1953 C1952 1.391 . S
C1953 C1957 1.376 . S
C1954 C1952 1.394 . S
C1954 C1955 1.369 . S
C1954 C1958 1.531 . S
C1955 C1954 1.369 . S
C1955 C1956 1.410 . S
C1955 C1963 1.503 . S
C1956 C1955 1.410 . S
C1956 C1957 1.392 . S
C1956 C1959 1.511 . S
C1957 C1953 1.376 . S
C1957 C1956 1.392 . S
C1957 H1969 0.929 . S
C1958 C1954 1.531 . S
C1958 H1970 0.960 . S
C1958 H1971 0.962 . S
C1958 H1972 0.960 . S
C1959 C1956 1.511 . S
C1959 H1973 0.961 . S
C1959 H1974 0.961 . S
C1959 H1975 0.961 . S
C1960 C1961 1.370 . S
C1960 C1962 1.363 . S
C1960 H1976 0.931 . S
C1961 C1960 1.370 . S
C1961 C1965 1.408 . S
C1962 C1960 1.363 . S
C1962 C1963 1.370 . S
C1962 C1966 1.524 . S
C1963 C1955 1.503 . S
C1963 C1962 1.370 . S
C1963 C1964 1.403 . S
C1964 C1963 1.403 . S
C1964 C1965 1.404 . S
C1964 C1967 1.539 . S
C1965 C1961 1.408 . S
C1965 C1964 1.404 . S
C1965 H1977 0.930 . S
C1966 C1962 1.524 . S
C1966 H1978 0.956 . S
C1966 H1979 0.961 . S
C1966 H1980 0.961 . S
C1967 C1964 1.539 . S
C1967 H1981 0.958 . S
C1967 H1982 0.961 . S
C1967 H1983 0.960 . S
H1968 C1952 0.931 . S
H1969 C1957 0.929 . S
H1970 C1958 0.960 . S
H1971 C1958 0.962 . S
H1972 C1958 0.960 . S
H1973 C1959 0.961 . S
H1974 C1959 0.961 . S
H1975 C1959 0.961 . S
H1976 C1960 0.931 . S
H1977 C1965 0.930 . S
H1978 C1966 0.956 . S
H1979 C1966 0.961 . S
H1980 C1966 0.961 . S
H1981 C1967 0.958 . S
H1982 C1967 0.961 . S
H1983 C1967 0.960 . S
C1984 C1985 1.391 . S
C1984 C1986 1.394 . S
C1984 H2000 0.931 . S
C1985 C1984 1.391 . S
C1985 C1989 1.376 . S
C1986 C1984 1.394 . S
C1986 C1987 1.369 . S
C1986 C1990 1.531 . S
C1987 C1986 1.369 . S
C1987 C1988 1.410 . S
C1987 C1995 1.503 . S
C1988 C1987 1.410 . S
C1988 C1989 1.392 . S
C1988 C1991 1.511 . S
C1989 C1985 1.376 . S
C1989 C1988 1.392 . S
C1989 H2001 0.929 . S
C1990 C1986 1.531 . S
C1990 H2002 0.960 . S
C1990 H2003 0.962 . S
C1990 H2004 0.960 . S
C1991 C1988 1.511 . S
C1991 H2005 0.961 . S
C1991 H2006 0.961 . S
C1991 H2007 0.961 . S
C1992 C1993 1.370 . S
C1992 C1994 1.363 . S
C1992 H2008 0.931 . S
C1993 C1992 1.370 . S
C1993 C1997 1.408 . S
C1994 C1992 1.363 . S
C1994 C1995 1.370 . S
C1994 C1998 1.524 . S
C1995 C1987 1.503 . S
C1995 C1994 1.370 . S
C1995 C1996 1.403 . S
C1996 C1995 1.403 . S
C1996 C1997 1.404 . S
C1996 C1999 1.539 . S
C1997 C1993 1.408 . S
C1997 C1996 1.404 . S
C1997 H2009 0.930 . S
C1998 C1994 1.524 . S
C1998 H2010 0.956 . S
C1998 H2011 0.961 . S
C1998 H2012 0.961 . S
C1999 C1996 1.539 . S
C1999 H2013 0.958 . S
C1999 H2014 0.961 . S
C1999 H2015 0.960 . S
H2000 C1984 0.931 . S
H2001 C1989 0.929 . S
H2002 C1990 0.960 . S
H2003 C1990 0.962 . S
H2004 C1990 0.960 . S
H2005 C1991 0.961 . S
H2006 C1991 0.961 . S
H2007 C1991 0.961 . S
H2008 C1992 0.931 . S
H2009 C1997 0.930 . S
H2010 C1998 0.956 . S
H2011 C1998 0.961 . S
H2012 C1998 0.961 . S
H2013 C1999 0.958 . S
H2014 C1999 0.961 . S
H2015 C1999 0.960 . S
C2016 C2017 1.391 . S
C2016 C2018 1.394 . S
C2016 H2032 0.931 . S
C2017 C2016 1.391 . S
C2017 C2021 1.376 . S
C2018 C2016 1.394 . S
C2018 C2019 1.369 . S
C2018 C2022 1.531 . S
C2019 C2018 1.369 . S
C2019 C2020 1.410 . S
C2019 C2027 1.503 . S
C2020 C2019 1.410 . S
C2020 C2021 1.392 . S
C2020 C2023 1.511 . S
C2021 C2017 1.376 . S
C2021 C2020 1.392 . S
C2021 H2033 0.929 . S
C2022 C2018 1.531 . S
C2022 H2034 0.960 . S
C2022 H2035 0.962 . S
C2022 H2036 0.960 . S
C2023 C2020 1.511 . S
C2023 H2037 0.961 . S
C2023 H2038 0.961 . S
C2023 H2039 0.961 . S
C2024 C2025 1.370 . S
C2024 C2026 1.363 . S
C2024 H2040 0.931 . S
C2025 C2024 1.370 . S
C2025 C2029 1.408 . S
C2026 C2024 1.363 . S
C2026 C2027 1.370 . S
C2026 C2030 1.524 . S
C2027 C2019 1.503 . S
C2027 C2026 1.370 . S
C2027 C2028 1.403 . S
C2028 C2027 1.403 . S
C2028 C2029 1.404 . S
C2028 C2031 1.539 . S
C2029 C2025 1.408 . S
C2029 C2028 1.404 . S
C2029 H2041 0.930 . S
C2030 C2026 1.524 . S
C2030 H2042 0.956 . S
C2030 H2043 0.961 . S
C2030 H2044 0.961 . S
C2031 C2028 1.539 . S
C2031 H2045 0.958 . S
C2031 H2046 0.961 . S
C2031 H2047 0.960 . S
H2032 C2016 0.931 . S
H2033 C2021 0.929 . S
H2034 C2022 0.960 . S
H2035 C2022 0.962 . S
H2036 C2022 0.960 . S
H2037 C2023 0.961 . S
H2038 C2023 0.961 . S
H2039 C2023 0.961 . S
H2040 C2024 0.931 . S
H2041 C2029 0.930 . S
H2042 C2030 0.956 . S
H2043 C2030 0.961 . S
H2044 C2030 0.961 . S
H2045 C2031 0.958 . S
H2046 C2031 0.961 . S
H2047 C2031 0.960 . S
C521 C337 1.823 . S
C513 C2 1.835 . S
C553 C342 1.213 . S
C545 C48 1.251 . S
C585 C343 1.399 . S
C577 C97 1.400 . S
C609 C149 0.557 . S
C617 C347 0.567 . S
C641 C189 1.264 . S
C649 C350 1.231 . S
C681 C351 1.392 . S
C673 C202 1.418 . S
C705 C248 0.412 . S
C713 C328 0.645 . S
C737 C297 1.835 . S
C745 C344 1.827 . S
C777 C382 2.582 . S
C769 C31 2.672 . S
C801 C52 1.667 . S
C809 C408 1.649 . S
C841 C360 1.201 . S
C833 C88 1.218 . S
C873 C415 1.347 . S
C865 C122 1.322 . S
C897 C162 1.379 . S
C905 C369 1.382 . S
C937 C411 2.563 . S
C929 C231 2.655 . S
C961 C252 1.691 . S
C969 C375 1.672 . S
C993 C288 1.268 . S
C1001 C406 1.246 . S
C1025 C29 1.289 . S
C1033 C414 1.256 . S
C1057 C191 1.665 . S
C1065 C401 1.653 . S
C1097 C379 1.225 . S
C1089 C229 1.234 . S
C1129 C407 1.327 . S
C1121 C257 1.338 . S
C1153 C292 2.681 . S
C1161 C374 2.586 . S
C1185 C92 2.664 . S
C1193 C392 2.573 . S
C1225 C383 1.662 . S
C1217 C151 1.713 . S
C1249 C57 1.396 . S
C1257 C376 1.383 . S
C1281 C282 1.794 . S
C1289 C438 1.767 . S
C1313 C168 1.235 . S
C1321 C433 1.175 . S
C1353 C447 1.304 . S
C1345 C217 1.376 . S
C1385 C424 0.250 . S
C1377 C269 0.554 . S
C1409 C69 1.240 . S
C1417 C440 1.170 . S
C1449 C439 1.315 . S
C1441 C82 1.379 . S
C1473 C128 0.564 . S
C1481 C443 0.249 . S
C1505 C17 1.795 . S
C1513 C446 1.749 . S
C1537 C311 2.681 . S
C1545 C472 2.663 . S
C1577 C488 1.615 . S
C1569 C172 1.676 . S
C1601 C208 1.271 . S
C1609 C470 1.236 . S
C1633 C242 1.353 . S
C1641 C503 1.338 . S
C1673 C479 1.350 . S
C1665 C42 1.393 . S
C1697 C111 2.695 . S
C1705 C497 2.642 . S
C1737 C475 1.604 . S
C1729 C132 1.680 . S
C1769 C510 1.253 . S
C1761 C8 1.263 . S
C1801 C502 1.255 . S
C1793 C309 1.273 . S
C1825 C71 1.683 . S
C1833 C507 1.628 . S
C1857 C109 1.254 . S
C1865 C478 1.252 . S
C1897 C511 1.343 . S
C1889 C137 1.355 . S
C1921 C12 2.696 . S
C1929 C465 2.669 . S
C1953 C212 2.690 . S
C1961 C504 2.647 . S
C1993 C456 1.614 . S
C1985 C271 1.668 . S
C2025 C471 1.349 . S
C2017 C177 1.386 . S
