# Generated by pormake.
# Topology ibd, (4,6)-cn, num edge types: 1
# Building blocks:
#     Node 0, Type 0, BuildingBlock: GALJAG_clean_sbu_0, # of connection points: 4
#     Node 1, Type 0, BuildingBlock: GALJAG_clean_sbu_0, # of connection points: 4
#     Node 2, Type 0, BuildingBlock: GALJAG_clean_sbu_0, # of connection points: 4
#     Node 3, Type 0, BuildingBlock: GALJAG_clean_sbu_0, # of connection points: 4
#     Node 4, Type 0, BuildingBlock: GALJAG_clean_sbu_0, # of connection points: 4
#     Node 5, Type 0, BuildingBlock: GALJAG_clean_sbu_0, # of connection points: 4
#     Node 6, Type 0, BuildingBlock: GALJAG_clean_sbu_0, # of connection points: 4
#     Node 7, Type 0, BuildingBlock: GALJAG_clean_sbu_0, # of connection points: 4
#     Node 8, Type 0, BuildingBlock: GALJAG_clean_sbu_0, # of connection points: 4
#     Node 9, Type 0, BuildingBlock: GALJAG_clean_sbu_0, # of connection points: 4
#     Node 10, Type 0, BuildingBlock: GALJAG_clean_sbu_0, # of connection points: 4
#     Node 11, Type 0, BuildingBlock: GALJAG_clean_sbu_0, # of connection points: 4
#     Node 12, Type 0, BuildingBlock: GALJAG_clean_sbu_0, # of connection points: 4
#     Node 13, Type 0, BuildingBlock: GALJAG_clean_sbu_0, # of connection points: 4
#     Node 14, Type 0, BuildingBlock: GALJAG_clean_sbu_0, # of connection points: 4
#     Node 15, Type 0, BuildingBlock: GALJAG_clean_sbu_0, # of connection points: 4
#     Node 16, Type 0, BuildingBlock: GALJAG_clean_sbu_0, # of connection points: 4
#     Node 17, Type 0, BuildingBlock: GALJAG_clean_sbu_0, # of connection points: 4
#     Node 18, Type 0, BuildingBlock: GALJAG_clean_sbu_0, # of connection points: 4
#     Node 19, Type 0, BuildingBlock: GALJAG_clean_sbu_0, # of connection points: 4
#     Node 20, Type 0, BuildingBlock: GALJAG_clean_sbu_0, # of connection points: 4
#     Node 21, Type 0, BuildingBlock: GALJAG_clean_sbu_0, # of connection points: 4
#     Node 22, Type 0, BuildingBlock: GALJAG_clean_sbu_0, # of connection points: 4
#     Node 23, Type 0, BuildingBlock: GALJAG_clean_sbu_0, # of connection points: 4
#     Node 24, Type 1, BuildingBlock: IZENUY_clean_sbu_0, # of connection points: 6
#     Node 25, Type 1, BuildingBlock: IZENUY_clean_sbu_0, # of connection points: 6
#     Node 26, Type 1, BuildingBlock: IZENUY_clean_sbu_0, # of connection points: 6
#     Node 27, Type 1, BuildingBlock: IZENUY_clean_sbu_0, # of connection points: 6
#     Node 28, Type 1, BuildingBlock: IZENUY_clean_sbu_0, # of connection points: 6
#     Node 29, Type 1, BuildingBlock: IZENUY_clean_sbu_0, # of connection points: 6
#     Node 30, Type 1, BuildingBlock: IZENUY_clean_sbu_0, # of connection points: 6
#     Node 31, Type 1, BuildingBlock: IZENUY_clean_sbu_0, # of connection points: 6
#     Node 32, Type 1, BuildingBlock: IZENUY_clean_sbu_0, # of connection points: 6
#     Node 33, Type 1, BuildingBlock: IZENUY_clean_sbu_0, # of connection points: 6
#     Node 34, Type 1, BuildingBlock: IZENUY_clean_sbu_0, # of connection points: 6
#     Node 35, Type 1, BuildingBlock: IZENUY_clean_sbu_0, # of connection points: 6
#     Node 36, Type 1, BuildingBlock: IZENUY_clean_sbu_0, # of connection points: 6
#     Node 37, Type 1, BuildingBlock: IZENUY_clean_sbu_0, # of connection points: 6
#     Node 38, Type 1, BuildingBlock: IZENUY_clean_sbu_0, # of connection points: 6
#     Node 39, Type 1, BuildingBlock: IZENUY_clean_sbu_0, # of connection points: 6
#     Edge 40, Type (0, 1), BuildingBlock: KIFKEQ_clean_linker_1, # of connection points: 2
#     Edge 41, Type (0, 1), BuildingBlock: KIFKEQ_clean_linker_1, # of connection points: 2
#     Edge 42, Type (0, 1), BuildingBlock: KIFKEQ_clean_linker_1, # of connection points: 2
#     Edge 43, Type (0, 1), BuildingBlock: KIFKEQ_clean_linker_1, # of connection points: 2
#     Edge 44, Type (0, 1), BuildingBlock: KIFKEQ_clean_linker_1, # of connection points: 2
#     Edge 45, Type (0, 1), BuildingBlock: KIFKEQ_clean_linker_1, # of connection points: 2
#     Edge 46, Type (0, 1), BuildingBlock: KIFKEQ_clean_linker_1, # of connection points: 2
#     Edge 47, Type (0, 1), BuildingBlock: KIFKEQ_clean_linker_1, # of connection points: 2
#     Edge 48, Type (0, 1), BuildingBlock: KIFKEQ_clean_linker_1, # of connection points: 2
#     Edge 49, Type (0, 1), BuildingBlock: KIFKEQ_clean_linker_1, # of connection points: 2
#     Edge 50, Type (0, 1), BuildingBlock: KIFKEQ_clean_linker_1, # of connection points: 2
#     Edge 51, Type (0, 1), BuildingBlock: KIFKEQ_clean_linker_1, # of connection points: 2
#     Edge 52, Type (0, 1), BuildingBlock: KIFKEQ_clean_linker_1, # of connection points: 2
#     Edge 53, Type (0, 1), BuildingBlock: KIFKEQ_clean_linker_1, # of connection points: 2
#     Edge 54, Type (0, 1), BuildingBlock: KIFKEQ_clean_linker_1, # of connection points: 2
#     Edge 55, Type (0, 1), BuildingBlock: KIFKEQ_clean_linker_1, # of connection points: 2
#     Edge 56, Type (0, 1), BuildingBlock: KIFKEQ_clean_linker_1, # of connection points: 2
#     Edge 57, Type (0, 1), BuildingBlock: KIFKEQ_clean_linker_1, # of connection points: 2
#     Edge 58, Type (0, 1), BuildingBlock: KIFKEQ_clean_linker_1, # of connection points: 2
#     Edge 59, Type (0, 1), BuildingBlock: KIFKEQ_clean_linker_1, # of connection points: 2
#     Edge 60, Type (0, 1), BuildingBlock: KIFKEQ_clean_linker_1, # of connection points: 2
#     Edge 61, Type (0, 1), BuildingBlock: KIFKEQ_clean_linker_1, # of connection points: 2
#     Edge 62, Type (0, 1), BuildingBlock: KIFKEQ_clean_linker_1, # of connection points: 2
#     Edge 63, Type (0, 1), BuildingBlock: KIFKEQ_clean_linker_1, # of connection points: 2
#     Edge 64, Type (0, 1), BuildingBlock: KIFKEQ_clean_linker_1, # of connection points: 2
#     Edge 65, Type (0, 1), BuildingBlock: KIFKEQ_clean_linker_1, # of connection points: 2
#     Edge 66, Type (0, 1), BuildingBlock: KIFKEQ_clean_linker_1, # of connection points: 2
#     Edge 67, Type (0, 1), BuildingBlock: KIFKEQ_clean_linker_1, # of connection points: 2
#     Edge 68, Type (0, 1), BuildingBlock: KIFKEQ_clean_linker_1, # of connection points: 2
#     Edge 69, Type (0, 1), BuildingBlock: KIFKEQ_clean_linker_1, # of connection points: 2
#     Edge 70, Type (0, 1), BuildingBlock: KIFKEQ_clean_linker_1, # of connection points: 2
#     Edge 71, Type (0, 1), BuildingBlock: KIFKEQ_clean_linker_1, # of connection points: 2
#     Edge 72, Type (0, 1), BuildingBlock: KIFKEQ_clean_linker_1, # of connection points: 2
#     Edge 73, Type (0, 1), BuildingBlock: KIFKEQ_clean_linker_1, # of connection points: 2
#     Edge 74, Type (0, 1), BuildingBlock: KIFKEQ_clean_linker_1, # of connection points: 2
#     Edge 75, Type (0, 1), BuildingBlock: KIFKEQ_clean_linker_1, # of connection points: 2
#     Edge 76, Type (0, 1), BuildingBlock: KIFKEQ_clean_linker_1, # of connection points: 2
#     Edge 77, Type (0, 1), BuildingBlock: KIFKEQ_clean_linker_1, # of connection points: 2
#     Edge 78, Type (0, 1), BuildingBlock: KIFKEQ_clean_linker_1, # of connection points: 2
#     Edge 79, Type (0, 1), BuildingBlock: KIFKEQ_clean_linker_1, # of connection points: 2
#     Edge 80, Type (0, 1), BuildingBlock: KIFKEQ_clean_linker_1, # of connection points: 2
#     Edge 81, Type (0, 1), BuildingBlock: KIFKEQ_clean_linker_1, # of connection points: 2
#     Edge 82, Type (0, 1), BuildingBlock: KIFKEQ_clean_linker_1, # of connection points: 2
#     Edge 83, Type (0, 1), BuildingBlock: KIFKEQ_clean_linker_1, # of connection points: 2
#     Edge 84, Type (0, 1), BuildingBlock: KIFKEQ_clean_linker_1, # of connection points: 2
#     Edge 85, Type (0, 1), BuildingBlock: KIFKEQ_clean_linker_1, # of connection points: 2
#     Edge 86, Type (0, 1), BuildingBlock: KIFKEQ_clean_linker_1, # of connection points: 2
#     Edge 87, Type (0, 1), BuildingBlock: KIFKEQ_clean_linker_1, # of connection points: 2
#     Edge 88, Type (0, 1), BuildingBlock: KIFKEQ_clean_linker_1, # of connection points: 2
#     Edge 89, Type (0, 1), BuildingBlock: KIFKEQ_clean_linker_1, # of connection points: 2
#     Edge 90, Type (0, 1), BuildingBlock: KIFKEQ_clean_linker_1, # of connection points: 2
#     Edge 91, Type (0, 1), BuildingBlock: KIFKEQ_clean_linker_1, # of connection points: 2
#     Edge 92, Type (0, 1), BuildingBlock: KIFKEQ_clean_linker_1, # of connection points: 2
#     Edge 93, Type (0, 1), BuildingBlock: KIFKEQ_clean_linker_1, # of connection points: 2
#     Edge 94, Type (0, 1), BuildingBlock: KIFKEQ_clean_linker_1, # of connection points: 2
#     Edge 95, Type (0, 1), BuildingBlock: KIFKEQ_clean_linker_1, # of connection points: 2
#     Edge 96, Type (0, 1), BuildingBlock: KIFKEQ_clean_linker_1, # of connection points: 2
#     Edge 97, Type (0, 1), BuildingBlock: KIFKEQ_clean_linker_1, # of connection points: 2
#     Edge 98, Type (0, 1), BuildingBlock: KIFKEQ_clean_linker_1, # of connection points: 2
#     Edge 99, Type (0, 1), BuildingBlock: KIFKEQ_clean_linker_1, # of connection points: 2
#     Edge 100, Type (0, 1), BuildingBlock: KIFKEQ_clean_linker_1, # of connection points: 2
#     Edge 101, Type (0, 1), BuildingBlock: KIFKEQ_clean_linker_1, # of connection points: 2
#     Edge 102, Type (0, 1), BuildingBlock: KIFKEQ_clean_linker_1, # of connection points: 2
#     Edge 103, Type (0, 1), BuildingBlock: KIFKEQ_clean_linker_1, # of connection points: 2
#     Edge 104, Type (0, 1), BuildingBlock: KIFKEQ_clean_linker_1, # of connection points: 2
#     Edge 105, Type (0, 1), BuildingBlock: KIFKEQ_clean_linker_1, # of connection points: 2
#     Edge 106, Type (0, 1), BuildingBlock: KIFKEQ_clean_linker_1, # of connection points: 2
#     Edge 107, Type (0, 1), BuildingBlock: KIFKEQ_clean_linker_1, # of connection points: 2
#     Edge 108, Type (0, 1), BuildingBlock: KIFKEQ_clean_linker_1, # of connection points: 2
#     Edge 109, Type (0, 1), BuildingBlock: KIFKEQ_clean_linker_1, # of connection points: 2
#     Edge 110, Type (0, 1), BuildingBlock: KIFKEQ_clean_linker_1, # of connection points: 2
#     Edge 111, Type (0, 1), BuildingBlock: KIFKEQ_clean_linker_1, # of connection points: 2
#     Edge 112, Type (0, 1), BuildingBlock: KIFKEQ_clean_linker_1, # of connection points: 2
#     Edge 113, Type (0, 1), BuildingBlock: KIFKEQ_clean_linker_1, # of connection points: 2
#     Edge 114, Type (0, 1), BuildingBlock: KIFKEQ_clean_linker_1, # of connection points: 2
#     Edge 115, Type (0, 1), BuildingBlock: KIFKEQ_clean_linker_1, # of connection points: 2
#     Edge 116, Type (0, 1), BuildingBlock: KIFKEQ_clean_linker_1, # of connection points: 2
#     Edge 117, Type (0, 1), BuildingBlock: KIFKEQ_clean_linker_1, # of connection points: 2
#     Edge 118, Type (0, 1), BuildingBlock: KIFKEQ_clean_linker_1, # of connection points: 2
#     Edge 119, Type (0, 1), BuildingBlock: KIFKEQ_clean_linker_1, # of connection points: 2
#     Edge 120, Type (0, 1), BuildingBlock: KIFKEQ_clean_linker_1, # of connection points: 2
#     Edge 121, Type (0, 1), BuildingBlock: KIFKEQ_clean_linker_1, # of connection points: 2
#     Edge 122, Type (0, 1), BuildingBlock: KIFKEQ_clean_linker_1, # of connection points: 2
#     Edge 123, Type (0, 1), BuildingBlock: KIFKEQ_clean_linker_1, # of connection points: 2
#     Edge 124, Type (0, 1), BuildingBlock: KIFKEQ_clean_linker_1, # of connection points: 2
#     Edge 125, Type (0, 1), BuildingBlock: KIFKEQ_clean_linker_1, # of connection points: 2
#     Edge 126, Type (0, 1), BuildingBlock: KIFKEQ_clean_linker_1, # of connection points: 2
#     Edge 127, Type (0, 1), BuildingBlock: KIFKEQ_clean_linker_1, # of connection points: 2
#     Edge 128, Type (0, 1), BuildingBlock: KIFKEQ_clean_linker_1, # of connection points: 2
#     Edge 129, Type (0, 1), BuildingBlock: KIFKEQ_clean_linker_1, # of connection points: 2
#     Edge 130, Type (0, 1), BuildingBlock: KIFKEQ_clean_linker_1, # of connection points: 2
#     Edge 131, Type (0, 1), BuildingBlock: KIFKEQ_clean_linker_1, # of connection points: 2
#     Edge 132, Type (0, 1), BuildingBlock: KIFKEQ_clean_linker_1, # of connection points: 2
#     Edge 133, Type (0, 1), BuildingBlock: KIFKEQ_clean_linker_1, # of connection points: 2
#     Edge 134, Type (0, 1), BuildingBlock: KIFKEQ_clean_linker_1, # of connection points: 2
#     Edge 135, Type (0, 1), BuildingBlock: KIFKEQ_clean_linker_1, # of connection points: 2
# Relax obj value: 0.206
# Max RMSD: 0.229
# Mean RMSD: 0.214
data_MOF--net-ibd--node1-GALJAG_clean_sbu_0--node2-IZENUY_clean_sbu_0--edge1-KIFKEQ_clean_linker_1
_symmetry_space_group_name_H-M    P1
_symmetry_Int_Tables_number       1
_symmetry_cell_setting            triclinic
loop_
_symmetry_equiv_pos_as_xyz
'x, y, z'
_cell_length_a     50.445932
_cell_length_b     50.468252
_cell_length_c     50.458213
_cell_angle_alpha  90.036299
_cell_angle_beta   90.056132
_cell_angle_gamma 90.041005
loop_
_atom_site_label
_atom_site_type_symbol
_atom_site_fract_x
_atom_site_fract_y
_atom_site_fract_z
_atom_type_partial_charge
In0 In 0.99255 0.24728 0.37007 0.0
O1 O 0.02869 0.24559 0.34312 0.0
O2 O 0.00349 0.21187 0.34437 0.0
C3 C 0.01825 0.27875 0.40473 0.0
C4 C 0.96086 0.27255 0.33531 0.0
C5 C 0.96775 0.21589 0.40541 0.0
O6 O 0.02845 0.25803 0.3952 0.0
O7 O 0.99509 0.28367 0.39669 0.0
O8 O 0.95718 0.23643 0.39587 0.0
O9 O 0.99074 0.21105 0.39692 0.0
C10 C 0.02397 0.22251 0.33478 0.0
O11 O 0.95642 0.24916 0.34291 0.0
O12 O 0.98111 0.28319 0.34542 0.0
In13 In 0.99411 0.75187 0.62397 0.0
O14 O 0.98177 0.78728 0.64889 0.0
O15 O 0.95895 0.75206 0.65233 0.0
C16 C 0.01745 0.78466 0.58904 0.0
C17 C 0.0269 0.72746 0.65819 0.0
C18 C 0.97041 0.71934 0.58889 0.0
O19 O 0.99361 0.78729 0.59604 0.0
O20 O 0.02953 0.76564 0.59983 0.0
O21 O 0.9941 0.71629 0.59627 0.0
O22 O 0.95859 0.73869 0.59939 0.0
C23 C 0.96253 0.77565 0.65978 0.0
O24 O 0.00707 0.71612 0.64801 0.0
O25 O 0.03034 0.75113 0.65095 0.0
In26 In 0.50031 0.7529 0.87362 0.0
O27 O 0.52579 0.71937 0.85687 0.0
O28 O 0.52627 0.75633 0.83694 0.0
C29 C 0.522 0.78931 0.90595 0.0
C30 C 0.46197 0.77395 0.84312 0.0
C31 C 0.48139 0.71732 0.90875 0.0
O32 O 0.53571 0.77448 0.89122 0.0
O33 O 0.49725 0.78618 0.90392 0.0
O34 O 0.46795 0.72525 0.88922 0.0
O35 O 0.50434 0.72703 0.91029 0.0
C36 C 0.53452 0.73282 0.83775 0.0
O37 O 0.46466 0.74928 0.84615 0.0
O38 O 0.47825 0.78797 0.85596 0.0
In39 In 0.49422 0.25022 0.12472 0.0
O40 O 0.50797 0.21488 0.14895 0.0
O41 O 0.52971 0.25079 0.15264 0.0
C42 C 0.4718 0.21692 0.08956 0.0
C43 C 0.46141 0.27367 0.15961 0.0
C44 C 0.51733 0.28312 0.08975 0.0
O45 O 0.49571 0.21499 0.09659 0.0
O46 O 0.45912 0.23547 0.1005 0.0
O47 O 0.49326 0.28514 0.09615 0.0
O48 O 0.52975 0.26472 0.10121 0.0
C49 C 0.52707 0.22697 0.15968 0.0
O50 O 0.48038 0.28574 0.14869 0.0
O51 O 0.45876 0.24981 0.15268 0.0
In52 In -0.00247 0.74456 0.12396 0.0
O53 O 0.96339 0.76782 0.10572 0.0
O54 O 0.0019 0.77302 0.08935 0.0
C55 C 0.96587 0.71756 0.1575 0.0
C56 C 0.01757 0.70991 0.0889 0.0
C57 C 0.02885 0.77123 0.15827 0.0
O58 O 0.95924 0.73947 0.14752 0.0
O59 O 0.98822 0.70914 0.15024 0.0
O60 O 0.03392 0.74801 0.15071 0.0
O61 O 0.00818 0.78107 0.14835 0.0
C62 C 0.97765 0.77905 0.08853 0.0
O63 O 0.03181 0.72598 0.10179 0.0
O64 O 0.99307 0.71108 0.09394 0.0
In65 In 0.49569 0.75262 0.37441 0.0
O66 O 0.49498 0.71717 0.40235 0.0
O67 O 0.53111 0.7385 0.39836 0.0
C68 C 0.46381 0.72903 0.33858 0.0
C69 C 0.47217 0.78485 0.40991 0.0
C70 C 0.52897 0.77613 0.34 0.0
O71 O 0.48223 0.71694 0.35036 0.0
O72 O 0.46115 0.753 0.34518 0.0
O73 O 0.50958 0.78809 0.35028 0.0
O74 O 0.53175 0.75242 0.34734 0.0
C75 C 0.5189 0.71961 0.40925 0.0
O76 O 0.4961 0.78745 0.40321 0.0
O77 O 0.46 0.76632 0.39834 0.0
In78 In 0.50201 0.24612 0.62057 0.0
O79 O 0.53592 0.23336 0.59386 0.0
O80 O 0.50271 0.20776 0.59627 0.0
C81 C 0.53189 0.27436 0.65443 0.0
C82 C 0.47713 0.27972 0.58748 0.0
C83 C 0.47298 0.22156 0.65791 0.0
O84 O 0.53954 0.25271 0.64454 0.0
O85 O 0.50931 0.28203 0.64683 0.0
O86 O 0.46254 0.2351 0.6397 0.0
O87 O 0.49787 0.21979 0.65678 0.0
C88 C 0.52521 0.21211 0.58637 0.0
O89 O 0.46576 0.26004 0.59784 0.0
O90 O 0.50115 0.28255 0.59387 0.0
In91 In -0.00033 0.24935 0.87138 0.0
O92 O -0.00012 0.21348 0.89866 0.0
O93 O 0.03545 0.23581 0.89515 0.0
C94 C 0.96695 0.22504 0.83696 0.0
C95 C 0.97681 0.28172 0.90701 0.0
C96 C 0.03099 0.27379 0.83585 0.0
O97 O 0.98694 0.21379 0.84686 0.0
O98 O 0.96329 0.24855 0.8446 0.0
O99 O 0.01139 0.285 0.84653 0.0
O100 O 0.03498 0.25029 0.8433 0.0
C101 C 0.02372 0.21638 0.90561 0.0
O102 O 0.00064 0.28429 0.89993 0.0
O103 O 0.96451 0.26295 0.89598 0.0
In104 In 0.37123 -0.00212 0.24783 0.0
O105 O 0.34164 0.96371 0.2477 0.0
O106 O 0.34669 0.98533 0.28349 0.0
C107 C 0.40525 0.97313 0.21505 0.0
C108 C 0.33738 0.03168 0.22427 0.0
C109 C 0.40752 0.02062 0.27978 0.0
O110 O 0.39464 0.9617 0.23458 0.0
O111 O 0.39839 -0.00307 0.21185 0.0
O112 O 0.39624 0.03293 0.26119 0.0
O113 O 0.4002 -0.00312 0.28255 0.0
C114 C 0.33482 0.96685 0.27153 0.0
O115 O 0.34434 0.03413 0.24816 0.0
O116 O 0.34773 0.01237 0.21224 0.0
In117 In 0.24874 0.12309 0.49976 0.0
O118 O 0.21407 0.14197 0.52163 0.0
O119 O 0.25251 0.15806 0.52799 0.0
C120 C 0.21442 0.09029 0.47515 0.0
C121 C 0.27065 0.1572 0.46527 0.0
C122 C 0.28104 0.0884 0.52454 0.0
O123 O 0.21182 0.09708 0.49905 0.0
O124 O 0.23422 0.10022 0.46358 0.0
O125 O 0.28283 0.09343 0.50018 0.0
O126 O 0.26311 0.101 0.53646 0.0
C127 C 0.22809 0.15922 0.5331 0.0
O128 O 0.28411 0.14428 0.48193 0.0
O129 O 0.24604 0.15259 0.46571 0.0
In130 In 0.12113 0.00119 0.74868 0.0
O131 O 0.10292 0.96912 0.77447 0.0
O132 O 0.08678 0.00804 0.7771 0.0
C133 C 0.15322 0.96593 0.72432 0.0
C134 C 0.08583 0.01938 0.71319 0.0
C135 C 0.15601 0.03445 0.77228 0.0
O136 O 0.14647 0.96367 0.74822 0.0
O137 O 0.14347 0.98568 0.71262 0.0
O138 O 0.14971 0.03641 0.74821 0.0
O139 O 0.14434 0.01613 0.78453 0.0
C140 C 0.08583 0.98423 0.78473 0.0
O141 O 0.10266 0.03426 0.72427 0.0
O142 O 0.08702 0.99528 0.71978 0.0
In143 In 0.24981 0.87352 0.99077 0.0
O144 O 0.21544 0.90283 0.99112 0.0
O145 O 0.23793 0.89823 0.02645 0.0
C146 C 0.2234 0.83831 0.96045 0.0
C147 C 0.28307 0.90739 0.96646 0.0
C148 C 0.27459 0.83886 0.02278 0.0
O149 O 0.21335 0.84892 0.9807 0.0
O150 O 0.24669 0.84574 0.95524 0.0
O151 O 0.28487 0.84748 0.00171 0.0
O152 O 0.25178 0.84778 0.02776 0.0
C153 C 0.21901 0.90975 0.01488 0.0
O154 O 0.28657 0.89961 0.98994 0.0
O155 O 0.26289 0.89787 0.95512 0.0
In156 In 0.24435 0.37494 0.00014 0.0
O157 O 0.24616 0.34735 0.96444 0.0
O158 O 0.27905 0.34777 0.99077 0.0
C159 C 0.21239 0.40897 0.97448 0.0
C160 C 0.21881 0.34136 0.03267 0.0
C161 C 0.27651 0.41071 0.02333 0.0
O162 O 0.23305 0.39948 0.9641 0.0
O163 O 0.20781 0.40122 -0.00222 0.0
O164 O 0.25631 0.40133 0.03466 0.0
O165 O 0.28065 0.40188 0.00032 0.0
C166 C 0.26867 0.33814 0.97016 0.0
O167 O 0.24175 0.34998 0.03765 0.0
O168 O 0.2087 0.34995 0.01149 0.0
In169 In 0.74257 0.12675 0.00075 0.0
O170 O 0.72444 0.10637 0.03642 0.0
O171 O 0.70844 0.09724 -0.00158 0.0
C172 C 0.76731 0.16161 0.03295 0.0
C173 C 0.77583 0.09022 0.9806 0.0
C174 C 0.71842 0.15985 0.96642 0.0
O175 O 0.74284 0.15692 0.03442 0.0
O176 O 0.77936 0.14852 0.01546 0.0
O177 O 0.74251 0.15355 0.96437 0.0
O178 O 0.70642 0.14911 0.98552 0.0
C179 C 0.70785 0.09316 0.02311 0.0
O180 O 0.76428 0.10715 0.96629 0.0
O181 O 0.77078 0.09188 0.00501 0.0
In182 In 0.12452 0.50076 0.24584 0.0
O183 O 0.14936 0.48895 0.28142 0.0
O184 O 0.15173 0.46477 0.247 0.0
C185 C 0.08932 0.52283 0.2792 0.0
C186 C 0.15927 0.53349 0.22199 0.0
C187 C 0.08965 0.47721 0.21301 0.0
O188 O 0.09715 0.49923 0.28159 0.0
O189 O 0.09934 0.53533 0.26002 0.0
O190 O 0.09608 0.50126 0.21073 0.0
O191 O 0.10104 0.46505 0.23163 0.0
C192 C 0.15932 0.46883 0.27048 0.0
O193 O 0.14973 0.51335 0.21067 0.0
O194 O 0.15112 0.53727 0.24529 0.0
In195 In 0.7504 0.8711 0.49478 0.0
O196 O 0.74949 0.84264 0.4598 0.0
O197 O 0.78572 0.84676 0.48095 0.0
C198 C 0.71862 0.90551 0.46932 0.0
C199 C 0.72699 0.83645 0.52781 0.0
C200 C 0.78163 0.90656 0.51972 0.0
O201 O 0.73939 0.89618 0.45904 0.0
O202 O 0.71376 0.89732 0.49242 0.0
O203 O 0.76162 0.8962 0.53051 0.0
O204 O 0.78613 0.89878 0.49641 0.0
C205 C 0.77336 0.83567 0.46223 0.0
O206 O 0.7511 0.84278 0.52991 0.0
O207 O 0.71472 0.84775 0.5092 0.0
In208 In 0.87155 0.00193 0.24873 0.0
O209 O 0.89065 -0.00252 0.28928 0.0
O210 O 0.89169 0.96436 0.26311 0.0
C211 C 0.84123 0.04306 0.26443 0.0
C212 C 0.91039 0.02149 0.21741 0.0
C213 C 0.83637 0.96583 0.23127 0.0
O214 O 0.85708 0.0314 0.2798 0.0
O215 O 0.84136 0.0346 0.24094 0.0
O216 O 0.85698 0.97172 0.21837 0.0
O217 O 0.83397 0.97764 0.25317 0.0
C218 C 0.89834 0.97401 0.28526 0.0
O219 O 0.88693 0.01894 0.20924 0.0
O220 O 0.91388 0.01481 0.24112 0.0
In221 In 0.24405 0.62662 0.49545 0.0
O222 O 0.25813 0.60225 0.46021 0.0
O223 O 0.2795 0.59882 0.49637 0.0
C224 C 0.22064 0.66258 0.4637 0.0
C225 C 0.21108 0.59139 0.51812 0.0
C226 C 0.26821 0.66037 0.52888 0.0
O227 O 0.24433 0.6553 0.46055 0.0
O228 O 0.2087 0.65146 0.48261 0.0
O229 O 0.24453 0.653 0.53204 0.0
O230 O 0.27967 0.65063 0.50892 0.0
C231 C 0.27706 0.59158 0.47258 0.0
O232 O 0.22931 0.60296 0.53074 0.0
O233 O 0.20921 0.59785 0.49405 0.0
In234 In 0.36899 0.50018 0.74551 0.0
O235 O 0.39604 0.49985 0.7817 0.0
O236 O 0.39214 0.46414 0.75977 0.0
C237 C 0.33282 0.53314 0.76666 0.0
C238 C 0.40332 0.52534 0.71313 0.0
C239 C 0.3351 0.46552 0.72336 0.0
O240 O 0.34965 0.521 0.78059 0.0
O241 O 0.33438 0.52885 0.7421 0.0
O242 O 0.34797 0.48231 0.71003 0.0
O243 O 0.3396 0.46593 0.74799 0.0
C244 C 0.40272 0.47593 0.77912 0.0
O245 O 0.39809 0.50103 0.71098 0.0
O246 O 0.39104 0.53704 0.73143 0.0
In247 In 0.62356 -0.00237 0.75077 0.0
O248 O 0.64149 0.97295 0.78409 0.0
O249 O 0.65696 0.96771 0.74536 0.0
C250 C 0.59198 0.02853 0.78051 0.0
C251 C 0.65687 0.03338 0.72957 0.0
C252 C 0.58651 0.96964 0.7242 0.0
O253 O 0.60553 0.00991 0.79021 0.0
O254 O 0.59498 0.03206 0.75593 0.0
O255 O 0.60386 0.98321 0.71246 0.0
O256 O 0.58836 0.96967 0.74907 0.0
C257 C 0.65805 0.96135 0.76947 0.0
O258 O 0.64166 0.01913 0.71571 0.0
O259 O 0.65492 0.02996 0.75429 0.0
In260 In 0.7457 0.62568 -0.00373 0.0
O261 O 0.71073 0.6473 0.01437 0.0
O262 O 0.749 0.65519 0.03034 0.0
C263 C 0.71191 0.59066 0.97396 0.0
C264 C 0.76664 0.66115 0.96235 0.0
C265 C 0.78048 0.59253 0.01948 0.0
O266 O 0.71215 0.59551 -0.00156 0.0
O267 O 0.7285 0.60371 0.96063 0.0
O268 O 0.78108 0.59772 0.99504 0.0
O269 O 0.76253 0.60431 0.03225 0.0
C270 C 0.72446 0.66005 0.03097 0.0
O271 O 0.78055 0.64419 0.9743 0.0
O272 O 0.74215 0.65995 0.96718 0.0
In273 In 0.86948 0.49221 0.74479 0.0
O274 O 0.83999 0.45791 0.74527 0.0
O275 O 0.84825 0.47714 0.7817 0.0
C276 C 0.90333 0.47148 0.70935 0.0
C277 C 0.83558 0.52595 0.72111 0.0
C278 C 0.90569 0.51336 0.7778 0.0
O279 O 0.89115 0.45754 0.72615 0.0
O280 O 0.89817 0.49595 0.71019 0.0
O281 O 0.88809 0.52711 0.76659 0.0
O282 O 0.90487 0.48893 0.77258 0.0
C283 C 0.83536 0.45941 0.76974 0.0
O284 O 0.84287 0.52865 0.74485 0.0
O285 O 0.84564 0.50641 0.70922 0.0
In286 In 0.74127 0.37279 0.50119 0.0
O287 O 0.7072 0.40234 0.49941 0.0
O288 O 0.72385 0.39394 0.53709 0.0
C289 C 0.7204 0.33868 0.466 0.0
C290 C 0.77567 0.40681 0.47856 0.0
C291 C 0.7622 0.33715 0.53497 0.0
O292 O 0.70649 0.35131 0.48249 0.0
O293 O 0.74494 0.34356 0.46696 0.0
O294 O 0.77609 0.3544 0.52339 0.0
O295 O 0.73778 0.33808 0.52975 0.0
C296 C 0.70697 0.40684 0.52396 0.0
O297 O 0.77592 0.40172 0.50302 0.0
O298 O 0.75828 0.39449 0.46547 0.0
In299 In 0.62077 0.49504 0.24823 0.0
O300 O 0.59541 0.46069 0.26238 0.0
O301 O 0.59465 0.49601 0.28518 0.0
C302 C 0.6546 0.46575 0.21942 0.0
C303 C 0.58683 0.51916 0.21492 0.0
C304 C 0.6578 0.52245 0.27508 0.0
O305 O 0.64374 0.45722 0.24024 0.0
O306 O 0.64799 0.48895 0.21283 0.0
O307 O 0.64224 0.53342 0.25888 0.0
O308 O 0.65426 0.49792 0.27809 0.0
C309 C 0.58628 0.47266 0.28227 0.0
O310 O 0.5986 0.53128 0.23336 0.0
O311 O 0.59237 0.49486 0.2131 0.0
Fe312 Fe 0.12361 0.09749 0.14518 0.0
Fe313 Fe 0.09685 0.14601 0.12052 0.0
O314 O 0.12296 0.12268 0.12088 0.0
Fe315 Fe 0.1484 0.1246 0.09691 0.0
O316 O 0.14069 0.09188 0.08453 0.0
O317 O 0.13928 0.07269 0.12356 0.0
O318 O 0.09202 0.08455 0.13419 0.0
C319 C 0.07092 0.09788 0.13341 0.0
C320 C 0.17596 0.11058 0.14387 0.0
O321 O 0.0717 0.12296 0.13323 0.0
C322 C 0.14205 0.17693 0.10816 0.0
O323 O 0.10801 0.11775 0.17116 0.0
O324 O 0.10518 0.15739 0.15344 0.0
O325 O 0.17448 0.11177 0.11883 0.0
O326 O 0.15527 0.10877 0.15773 0.0
C327 C 0.10201 0.13678 0.06768 0.0
O328 O 0.1172 0.17336 0.10777 0.0
O329 O 0.15768 0.15746 0.10784 0.0
C330 C 0.1059 0.14266 0.17359 0.0
O331 O 0.08693 0.13603 0.08756 0.0
O332 O 0.12694 0.13771 0.07057 0.0
C333 C 0.14075 0.07122 0.09853 0.0
Fe334 Fe 0.09264 0.85262 0.37322 0.0
Fe335 Fe 0.11539 0.90311 0.3485 0.0
O336 O 0.11654 0.87824 0.37318 0.0
Fe337 Fe 0.14148 0.879 0.3978 0.0
O338 O 0.15384 0.84679 0.388 0.0
O339 O 0.11493 0.82739 0.38692 0.0
O340 O 0.1028 0.84165 0.34066 0.0
C341 C 0.1026 0.85619 0.32036 0.0
C342 C 0.09556 0.8632 0.42606 0.0
O343 O 0.10213 0.8812 0.32257 0.0
C344 C 0.12973 0.93159 0.39487 0.0
O345 O 0.06589 0.8731 0.35959 0.0
O346 O 0.08251 0.91328 0.35874 0.0
O347 O 0.12054 0.86468 0.42391 0.0
O348 O 0.08103 0.86203 0.40576 0.0
C349 C 0.16867 0.89437 0.35107 0.0
O350 O 0.12855 0.92951 0.36988 0.0
O351 O 0.13082 0.91123 0.40927 0.0
C352 C 0.06275 0.89798 0.35946 0.0
O353 O 0.14817 0.89454 0.33675 0.0
O354 O 0.16686 0.89344 0.3761 0.0
C355 C 0.13997 0.82602 0.38755 0.0
Fe356 Fe 0.36855 0.89675 0.65281 0.0
Fe357 Fe 0.34545 0.87243 0.60226 0.0
O358 O 0.36959 0.87234 0.62768 0.0
Fe359 Fe 0.39462 0.8478 0.62794 0.0
O360 O 0.38424 0.83588 0.6601 0.0
O361 O 0.38158 0.87504 0.67894 0.0
O362 O 0.33575 0.8865 0.66301 0.0
C363 C 0.31586 0.88616 0.64791 0.0
C364 C 0.42179 0.89435 0.64421 0.0
O365 O 0.31878 0.88593 0.623 0.0
C366 C 0.39262 0.85857 0.57511 0.0
O367 O 0.35537 0.92292 0.63116 0.0
O368 O 0.35548 0.90504 0.59145 0.0
O369 O 0.42011 0.86936 0.64257 0.0
O370 O 0.40127 0.90856 0.64438 0.0
C371 C 0.34858 0.81957 0.61228 0.0
O372 O 0.36758 0.85896 0.57672 0.0
O373 O 0.40669 0.85806 0.59576 0.0
C374 C 0.35553 0.92524 0.60614 0.0
O375 O 0.334 0.83983 0.61159 0.0
O376 O 0.37358 0.8218 0.61342 0.0
C377 C 0.38273 0.85003 0.68064 0.0
Fe378 Fe 0.39786 0.15122 0.87305 0.0
Fe379 Fe 0.37479 0.1018 0.84633 0.0
O380 O 0.37403 0.12553 0.87214 0.0
Fe381 Fe 0.34953 0.12357 0.89711 0.0
O382 O 0.33685 0.15612 0.88893 0.0
O383 O 0.37572 0.17564 0.8883 0.0
O384 O 0.38722 0.16368 0.84119 0.0
C385 C 0.38723 0.15006 0.82024 0.0
C386 C 0.39583 0.13844 0.9254 0.0
O387 O 0.3873 0.12497 0.82123 0.0
C388 C 0.36176 0.07125 0.89165 0.0
O389 O 0.42443 0.13161 0.85796 0.0
O390 O 0.408 0.09142 0.85538 0.0
O391 O 0.37083 0.1369 0.92349 0.0
O392 O 0.41005 0.14034 0.90497 0.0
C393 C 0.32149 0.1099 0.85028 0.0
O394 O 0.36235 0.0744 0.86676 0.0
O395 O 0.3606 0.09094 0.90697 0.0
C396 C 0.42768 0.10683 0.85621 0.0
O397 O 0.3417 0.11059 0.8356 0.0
O398 O 0.32382 0.10985 0.87528 0.0
C399 C 0.35069 0.17692 0.88935 0.0
Fe400 Fe 0.59277 0.35024 0.8728 0.0
Fe401 Fe 0.61724 0.40051 0.84934 0.0
O402 O 0.61747 0.37512 0.87346 0.0
Fe403 Fe 0.64237 0.37458 0.89815 0.0
O404 O 0.65368 0.34221 0.88773 0.0
O405 O 0.61423 0.32396 0.88601 0.0
O406 O 0.60269 0.33971 0.83997 0.0
C407 C 0.60302 0.35479 0.82006 0.0
C408 C 0.59584 0.35964 0.92591 0.0
O409 O 0.60332 0.37971 0.82293 0.0
C410 C 0.63221 0.42756 0.89627 0.0
O411 O 0.56672 0.37195 0.85956 0.0
O412 O 0.58474 0.41156 0.85967 0.0
O413 O 0.62087 0.36047 0.92389 0.0
O414 O 0.58135 0.35923 0.90554 0.0
C415 C 0.67015 0.38979 0.85178 0.0
O416 O 0.63118 0.42599 0.87125 0.0
O417 O 0.63281 0.40693 0.91029 0.0
C418 C 0.56445 0.39696 0.85965 0.0
O419 O 0.64968 0.39101 0.83749 0.0
O420 O 0.66831 0.38859 0.87679 0.0
C421 C 0.63923 0.32186 0.88689 0.0
Fe422 Fe 0.84921 0.37827 0.0942 0.0
Fe423 Fe 0.87238 0.40246 0.14479 0.0
O424 O 0.87299 0.37776 0.11995 0.0
Fe425 Fe 0.89729 0.35256 0.12085 0.0
O426 O 0.91004 0.36204 0.08873 0.0
O427 O 0.87127 0.36396 0.0691 0.0
O428 O 0.86023 0.41055 0.08324 0.0
C429 C 0.86038 0.43086 0.0978 0.0
C430 C 0.85071 0.3254 0.10495 0.0
O431 O 0.85988 0.42867 0.12281 0.0
C432 C 0.88525 0.35581 0.17336 0.0
O433 O 0.82275 0.39264 0.11456 0.0
O434 O 0.83925 0.39303 0.15482 0.0
O435 O 0.87574 0.32693 0.10645 0.0
O436 O 0.83673 0.34605 0.10362 0.0
C437 C 0.92556 0.39866 0.13622 0.0
O438 O 0.88488 0.38082 0.17128 0.0
O439 O 0.88617 0.34138 0.15301 0.0
C440 C 0.81954 0.39301 0.13944 0.0
O441 O 0.90541 0.41341 0.13629 0.0
O442 O 0.92317 0.37368 0.13543 0.0
C443 C 0.8963 0.36275 0.06789 0.0
Fe444 Fe 0.84816 0.61951 0.39814 0.0
Fe445 Fe 0.89815 0.64368 0.37366 0.0
O446 O 0.87372 0.61856 0.37419 0.0
Fe447 Fe 0.87493 0.59255 0.35072 0.0
O448 O 0.84265 0.6011 0.33781 0.0
O449 O 0.82295 0.60454 0.37649 0.0
O450 O 0.83678 0.65144 0.38649 0.0
C451 C 0.8511 0.67188 0.3856 0.0
C452 C 0.85897 0.5666 0.39799 0.0
O453 O 0.87612 0.66996 0.38569 0.0
C454 C 0.92738 0.59714 0.36222 0.0
O455 O 0.86883 0.63464 0.4241 0.0
O456 O 0.90881 0.63554 0.40688 0.0
O457 O 0.86087 0.56745 0.37298 0.0
O458 O 0.85775 0.58763 0.41142 0.0
C459 C 0.88923 0.63788 0.32077 0.0
O460 O 0.92476 0.62208 0.36154 0.0
O461 O 0.90732 0.58226 0.36214 0.0
C462 C 0.89379 0.63579 0.42683 0.0
O463 O 0.88891 0.65334 0.3404 0.0
O464 O 0.88912 0.61299 0.32411 0.0
C465 C 0.82182 0.60213 0.35152 0.0
Fe466 Fe 0.89858 0.85309 0.87768 0.0
Fe467 Fe 0.84816 0.87659 0.90164 0.0
O468 O 0.87313 0.87708 0.87717 0.0
Fe469 Fe 0.87254 0.90153 0.85219 0.0
O470 O 0.90462 0.91415 0.86231 0.0
O471 O 0.924 0.8752 0.86385 0.0
O472 O 0.90937 0.86368 0.91026 0.0
C473 C 0.89458 0.86331 0.93037 0.0
C474 C 0.88854 0.8553 0.82469 0.0
O475 O 0.8696 0.86311 0.92783 0.0
C476 C 0.82007 0.88959 0.85494 0.0
O477 O 0.87761 0.82664 0.89152 0.0
O478 O 0.8376 0.84385 0.89147 0.0
O479 O 0.88727 0.8803 0.82657 0.0
O480 O 0.88938 0.84104 0.84517 0.0
C481 C 0.85705 0.92955 0.89834 0.0
O482 O 0.82209 0.88988 0.87996 0.0
O483 O 0.84046 0.89031 0.84056 0.0
C484 C 0.85263 0.82391 0.89128 0.0
O485 O 0.85735 0.90938 0.91308 0.0
O486 O 0.85762 0.92718 0.87334 0.0
C487 C 0.92537 0.90026 0.86302 0.0
Fe488 Fe 0.87213 0.09833 0.64745 0.0
Fe489 Fe 0.84497 0.12375 0.59948 0.0
O490 O 0.8709 0.12336 0.62302 0.0
Fe491 Fe 0.89572 0.14809 0.62214 0.0
O492 O 0.88702 0.15939 0.655 0.0
O493 O 0.88695 0.11974 0.67298 0.0
O494 O 0.84018 0.10784 0.66052 0.0
C495 C 0.81913 0.10885 0.64711 0.0
C496 C 0.92447 0.10172 0.6352 0.0
O497 O 0.81991 0.10998 0.62204 0.0
C498 C 0.8904 0.13797 0.56948 0.0
O499 O 0.85741 0.07254 0.62637 0.0
O500 O 0.85395 0.09129 0.58725 0.0
O501 O 0.92219 0.1267 0.6351 0.0
O502 O 0.90422 0.08713 0.63592 0.0
C503 C 0.84894 0.17646 0.60985 0.0
O504 O 0.86545 0.13758 0.57266 0.0
O505 O 0.90577 0.13816 0.58921 0.0
C506 C 0.85536 0.07077 0.60141 0.0
O507 O 0.83429 0.15626 0.61027 0.0
O508 O 0.87391 0.17413 0.60903 0.0
C509 C 0.8873 0.14477 0.67525 0.0
Fe510 Fe 0.62555 0.09787 0.3449 0.0
Fe511 Fe 0.6497 0.12083 0.39558 0.0
O512 O 0.62494 0.12148 0.37078 0.0
Fe513 Fe 0.5997 0.1457 0.37184 0.0
O514 O 0.60912 0.15862 0.33978 0.0
O515 O 0.61114 0.12 0.31991 0.0
O516 O 0.65779 0.10929 0.33403 0.0
C517 C 0.67807 0.10971 0.34862 0.0
C518 C 0.57262 0.09915 0.35549 0.0
O519 O 0.6759 0.10837 0.37358 0.0
C520 C 0.6031 0.13335 0.42427 0.0
O521 O 0.64003 0.07131 0.36522 0.0
O522 O 0.64023 0.08777 0.4055 0.0
O523 O 0.57414 0.12416 0.35735 0.0
O524 O 0.59329 0.08518 0.35414 0.0
C525 C 0.64583 0.174 0.38719 0.0
O526 O 0.62811 0.13321 0.42209 0.0
O527 O 0.58857 0.13441 0.40399 0.0
C528 C 0.6403 0.06808 0.39013 0.0
O529 O 0.66062 0.15388 0.38717 0.0
O530 O 0.62083 0.17156 0.38648 0.0
C531 C 0.60984 0.14503 0.31885 0.0
Fe532 Fe 0.59883 0.84952 0.12453 0.0
Fe533 Fe 0.64755 0.87563 0.09931 0.0
O534 O 0.62292 0.87498 0.12424 0.0
Fe535 Fe 0.62241 0.89982 0.14893 0.0
O536 O 0.58958 0.91038 0.13913 0.0
O537 O 0.57235 0.87041 0.13828 0.0
O538 O 0.58696 0.85885 0.09206 0.0
C539 C 0.6012 0.86011 0.0716 0.0
C540 C 0.6092 0.85321 0.17733 0.0
O541 O 0.62622 0.86135 0.07343 0.0
C542 C 0.67545 0.89042 0.14574 0.0
O543 O 0.62093 0.82408 0.11079 0.0
O544 O 0.6599 0.84344 0.10902 0.0
O545 O 0.60919 0.87819 0.17501 0.0
O546 O 0.60913 0.83857 0.15709 0.0
C547 C 0.63577 0.92816 0.10236 0.0
O548 O 0.67333 0.89012 0.12072 0.0
O549 O 0.65514 0.89062 0.16025 0.0
C550 C 0.64599 0.82271 0.10982 0.0
O551 O 0.63677 0.90781 0.08795 0.0
O552 O 0.63551 0.92611 0.12738 0.0
C553 C 0.56961 0.89536 0.13876 0.0
Fe554 Fe 0.40016 0.64984 0.12076 0.0
Fe555 Fe 0.34973 0.62631 0.09657 0.0
O556 O 0.37454 0.62595 0.12132 0.0
Fe557 Fe 0.37371 0.6017 0.14653 0.0
O558 O 0.40583 0.58905 0.13699 0.0
O559 O 0.42546 0.62783 0.13492 0.0
O560 O 0.41108 0.63884 0.08842 0.0
C561 C 0.39649 0.63875 0.06814 0.0
C562 C 0.38978 0.64826 0.17372 0.0
O563 O 0.37149 0.63921 0.07037 0.0
C564 C 0.32118 0.61337 0.14317 0.0
O565 O 0.37945 0.67624 0.10653 0.0
O566 O 0.33937 0.65923 0.10609 0.0
O567 O 0.38814 0.62325 0.17214 0.0
O568 O 0.39089 0.66227 0.15308 0.0
C569 C 0.35846 0.57326 0.10044 0.0
O570 O 0.32338 0.61353 0.11817 0.0
O571 O 0.34149 0.61275 0.1577 0.0
C572 C 0.35449 0.67912 0.10605 0.0
O573 O 0.3586 0.59336 0.08561 0.0
O574 O 0.35916 0.57578 0.12543 0.0
C575 C 0.42667 0.60279 0.13611 0.0
Fe576 Fe 0.11854 0.5979 0.84642 0.0
Fe577 Fe 0.14168 0.62135 0.89728 0.0
O578 O 0.11775 0.62206 0.87173 0.0
Fe579 Fe 0.09305 0.64687 0.87143 0.0
O580 O 0.10406 0.65896 0.83956 0.0
O581 O 0.10534 0.61987 0.82057 0.0
O582 O 0.15131 0.6083 0.83621 0.0
C583 C 0.17117 0.60829 0.85136 0.0
C584 C 0.06549 0.60065 0.85537 0.0
O585 O 0.1683 0.60796 0.87631 0.0
C586 C 0.09431 0.63509 0.92408 0.0
O587 O 0.1319 0.57145 0.86759 0.0
O588 O 0.13132 0.58864 0.90752 0.0
O589 O 0.06753 0.62567 0.85621 0.0
O590 O 0.08583 0.58618 0.85525 0.0
C591 C 0.13913 0.67446 0.88804 0.0
O592 O 0.11938 0.63452 0.92283 0.0
O593 O 0.08049 0.63636 0.9033 0.0
C594 C 0.13156 0.56867 0.89254 0.0
O595 O 0.15351 0.65405 0.88863 0.0
O596 O 0.11413 0.67249 0.88656 0.0
C597 C 0.10499 0.64491 0.81893 0.0
Fe598 Fe 0.14611 0.37385 0.59465 0.0
Fe599 Fe 0.09548 0.34996 0.6179 0.0
O600 O 0.12049 0.37448 0.61852 0.0
Fe601 Fe 0.1199 0.39953 0.64299 0.0
O602 O 0.15197 0.38969 0.65558 0.0
O603 O 0.17154 0.38768 0.6168 0.0
O604 O 0.15678 0.34138 0.60549 0.0
C605 C 0.14201 0.32125 0.60549 0.0
C606 C 0.13593 0.42683 0.59661 0.0
O607 O 0.11703 0.32368 0.60485 0.0
C608 C 0.06734 0.3967 0.63108 0.0
O609 O 0.12527 0.3599 0.56809 0.0
O610 O 0.08521 0.35977 0.58505 0.0
O611 O 0.13444 0.42513 0.62162 0.0
O612 O 0.13705 0.40628 0.58244 0.0
C613 C 0.10455 0.35338 0.671 0.0
O614 O 0.0693 0.37169 0.63078 0.0
O615 O 0.08776 0.41104 0.63205 0.0
C616 C 0.1003 0.35964 0.56517 0.0
O617 O 0.10428 0.33871 0.65077 0.0
O618 O 0.10527 0.37837 0.66873 0.0
C619 C 0.17278 0.38869 0.64186 0.0
Fe620 Fe 0.64526 0.62389 0.59838 0.0
Fe621 Fe 0.62051 0.59987 0.64826 0.0
O622 O 0.621 0.62473 0.62361 0.0
Fe623 Fe 0.59723 0.65042 0.62425 0.0
O624 O 0.58474 0.64123 0.59191 0.0
O625 O 0.62377 0.63849 0.57286 0.0
O626 O 0.63399 0.59179 0.58706 0.0
C627 C 0.63298 0.57146 0.6015 0.0
C628 C 0.64443 0.6768 0.60893 0.0
O629 O 0.63301 0.57352 0.62651 0.0
C630 C 0.60849 0.64661 0.67682 0.0
O631 O 0.6711 0.60915 0.61938 0.0
O632 O 0.65355 0.60852 0.6592 0.0
O633 O 0.61937 0.67564 0.61016 0.0
O634 O 0.65809 0.65593 0.60806 0.0
C635 C 0.56768 0.60487 0.63868 0.0
O636 O 0.60781 0.62163 0.67454 0.0
O637 O 0.60832 0.66123 0.65661 0.0
C638 C 0.67364 0.6084 0.64436 0.0
O639 O 0.58751 0.5897 0.63875 0.0
O640 O 0.57067 0.62981 0.63839 0.0
C641 C 0.59876 0.64015 0.57128 0.0
Fe642 Fe 0.39568 0.34959 0.37635 0.0
Fe643 Fe 0.37126 0.39909 0.3514 0.0
O644 O 0.3711 0.3745 0.37632 0.0
Fe645 Fe 0.34637 0.37489 0.40113 0.0
O646 O 0.33473 0.34236 0.39165 0.0
O647 O 0.37405 0.32378 0.39019 0.0
O648 O 0.38573 0.33808 0.34388 0.0
C649 C 0.38536 0.35249 0.32351 0.0
C650 C 0.3929 0.36038 0.42918 0.0
O651 O 0.38508 0.3775 0.32559 0.0
C652 C 0.35684 0.42766 0.39753 0.0
O653 O 0.42177 0.37091 0.36257 0.0
O654 O 0.40375 0.41049 0.36138 0.0
O655 O 0.36786 0.36127 0.42725 0.0
O656 O 0.40721 0.35951 0.40876 0.0
C657 C 0.31842 0.38879 0.35439 0.0
O658 O 0.35744 0.42523 0.37256 0.0
O659 O 0.35638 0.4075 0.41223 0.0
C660 C 0.42402 0.39592 0.36213 0.0
O661 O 0.33881 0.38913 0.33999 0.0
O662 O 0.32044 0.38851 0.37943 0.0
C663 C 0.34902 0.32192 0.39095 0.0
H664 H 0.01674 0.1736 0.31314 0.0
H665 H 0.06797 0.24217 0.31031 0.0
H666 H 0.04111 0.15381 0.27649 0.0
H667 H 0.09273 0.22213 0.27389 0.0
H668 H 0.09914 0.1166 0.22066 0.0
H669 H 0.08362 0.13518 0.26248 0.0
H670 H 0.08257 0.21325 0.22741 0.0
H671 H 0.09853 0.19488 0.18585 0.0
C672 C 0.03347 0.18425 0.30493 0.0
C673 C 0.04032 0.20951 0.31438 0.0
C674 C 0.04756 0.17284 0.28407 0.0
C675 C 0.0688 0.18646 0.27225 0.0
C676 C 0.07625 0.21131 0.28239 0.0
C677 C 0.06215 0.22273 0.30328 0.0
C678 C 0.09598 0.13779 0.22198 0.0
C679 C 0.09974 0.15421 0.1998 0.0
C680 C 0.08697 0.14839 0.24591 0.0
C681 C 0.08163 0.17562 0.24816 0.0
C682 C 0.0867 0.19221 0.2264 0.0
C683 C 0.09568 0.18163 0.20249 0.0
H684 H 0.06766 0.78116 0.56973 0.0
H685 H 0.99501 0.82581 0.56209 0.0
H686 H 0.08653 0.8054 0.5326 0.0
H687 H 0.01414 0.85058 0.52519 0.0
H688 H 0.12066 0.86181 0.4741 0.0
H689 H 0.10206 0.84802 0.51646 0.0
H690 H 0.02516 0.83906 0.47972 0.0
H691 H 0.04352 0.85338 0.43758 0.0
C692 C 0.05589 0.79649 0.56038 0.0
C693 C 0.02979 0.80143 0.56859 0.0
C694 C 0.06678 0.81054 0.53923 0.0
C695 C 0.05178 0.82985 0.52589 0.0
C696 C 0.02604 0.83557 0.53487 0.0
C697 C 0.01514 0.82148 0.55604 0.0
C698 C 0.0997 0.85728 0.47514 0.0
C699 C 0.08366 0.85829 0.45237 0.0
C700 C 0.08908 0.84929 0.4994 0.0
C701 C 0.06223 0.84216 0.50136 0.0
C702 C 0.04589 0.84462 0.47893 0.0
C703 C 0.05648 0.85265 0.4547 0.0
H704 H 0.42442 0.74803 0.81396 0.0
H705 H 0.4576 0.82563 0.82846 0.0
H706 H 0.39829 0.76597 0.77741 0.0
H707 H 0.4323 0.84337 0.79152 0.0
H708 H 0.3781 0.87327 0.72938 0.0
H709 H 0.39054 0.85451 0.77211 0.0
H710 H 0.40973 0.78036 0.73375 0.0
H711 H 0.39653 0.79876 0.69132 0.0
C712 C 0.42585 0.76899 0.80954 0.0
C713 C 0.44324 0.78539 0.82383 0.0
C714 C 0.41102 0.77923 0.78852 0.0
C715 C 0.41343 0.80603 0.7813 0.0
C716 C 0.42969 0.82271 0.79667 0.0
C717 C 0.44437 0.8125 0.81776 0.0
C718 C 0.38458 0.85282 0.73015 0.0
C719 C 0.38673 0.83764 0.70688 0.0
C720 C 0.39179 0.84211 0.75463 0.0
C721 C 0.40146 0.81604 0.75634 0.0
C722 C 0.40213 0.80041 0.73326 0.0
C723 C 0.39474 0.81105 0.70883 0.0
H724 H 0.42134 0.21848 0.0705 0.0
H725 H 0.49591 0.17738 0.06169 0.0
H726 H 0.40337 0.19409 0.03294 0.0
H727 H 0.47773 0.15251 0.02431 0.0
H728 H 0.4476 0.15016 0.93669 0.0
H729 H 0.46575 0.16441 0.97903 0.0
H730 H 0.38982 0.15089 0.01621 0.0
H731 H 0.37141 0.13715 0.97371 0.0
C732 C 0.43373 0.20389 0.0608 0.0
C733 C 0.46008 0.19999 0.06883 0.0
C734 C 0.42338 0.18976 0.03939 0.0
C735 C 0.43917 0.17142 0.0256 0.0
C736 C 0.4652 0.16674 0.03436 0.0
C737 C 0.47556 0.18088 0.0558 0.0
C738 C 0.43485 0.14982 0.95395 0.0
C739 C 0.40793 0.14296 0.95172 0.0
C740 C 0.44532 0.15784 0.97828 0.0
C741 C 0.42912 0.15905 0.0009 0.0
C742 C 0.40264 0.15062 -0.00099 0.0
C743 C 0.39215 0.14265 0.97467 0.0
H744 H 0.07272 0.75304 0.18418 0.0
H745 H 0.02061 0.82067 0.17809 0.0
H746 H 0.09612 0.77438 0.22085 0.0
H747 H 0.04356 0.84172 0.21495 0.0
H748 H 0.09754 0.80349 0.30872 0.0
H749 H 0.08421 0.78395 0.26672 0.0
H750 H 0.08494 0.86141 0.23031 0.0
H751 H 0.09775 0.88114 0.27251 0.0
C752 C 0.06646 0.77257 0.19051 0.0
C753 C 0.04473 0.78513 0.17847 0.0
C754 C 0.07977 0.78473 0.21154 0.0
C755 C 0.0716 0.80966 0.22087 0.0
C756 C 0.05057 0.82266 0.20803 0.0
C757 C 0.03728 0.81051 0.18703 0.0
C758 C 0.09521 0.81636 0.2917 0.0
C759 C 0.09826 0.84394 0.29409 0.0
C760 C 0.08775 0.80511 0.26755 0.0
C761 C 0.08328 0.82118 0.24526 0.0
C762 C 0.08781 0.84858 0.24727 0.0
C763 C 0.09524 0.85985 0.27143 0.0
H764 H 0.42158 0.78162 0.42832 0.0
H765 H 0.49526 0.82388 0.43952 0.0
H766 H 0.40278 0.80426 0.46649 0.0
H767 H 0.47622 0.84703 0.47754 0.0
H768 H 0.44473 0.84758 0.56458 0.0
H769 H 0.46376 0.83414 0.52235 0.0
H770 H 0.38808 0.84646 0.48414 0.0
H771 H 0.36884 0.85934 0.52647 0.0
C772 C 0.4336 0.7961 0.43869 0.0
C773 C 0.45993 0.80084 0.43108 0.0
C774 C 0.42277 0.80922 0.46047 0.0
C775 C 0.43804 0.82741 0.47511 0.0
C776 C 0.46408 0.83289 0.46686 0.0
C777 C 0.47492 0.81975 0.44502 0.0
C778 C 0.43222 0.84778 0.54712 0.0
C779 C 0.40515 0.85411 0.54899 0.0
C780 C 0.44318 0.84022 0.52286 0.0
C781 C 0.42734 0.83896 0.49994 0.0
C782 C 0.40066 0.84675 0.50155 0.0
C783 C 0.38968 0.85423 0.5258 0.0
H784 H 0.4198 0.21125 0.65971 0.0
H785 H 0.49166 0.20778 0.70627 0.0
H786 H 0.39433 0.19532 0.69808 0.0
H787 H 0.46617 0.1927 0.74449 0.0
H788 H 0.40716 0.19975 0.81268 0.0
H789 H 0.42511 0.21782 0.7716 0.0
H790 H 0.39899 0.14832 0.72916 0.0
H791 H 0.38134 0.12975 0.77038 0.0
C792 C 0.43008 0.20703 0.67808 0.0
C793 C 0.45764 0.21062 0.68011 0.0
C794 C 0.41556 0.19801 0.6999 0.0
C795 C 0.42839 0.19317 0.72408 0.0
C796 C 0.45591 0.19661 0.72602 0.0
C797 C 0.47046 0.20501 0.70414 0.0
C798 C 0.40468 0.18853 0.79454 0.0
C799 C 0.39315 0.16316 0.7948 0.0
C800 C 0.41502 0.19886 0.77111 0.0
C801 C 0.41352 0.18427 0.74751 0.0
C802 C 0.40026 0.15986 0.74724 0.0
C803 C 0.39029 0.14927 0.77079 0.0
H804 H 0.07348 0.22116 0.92588 0.0
H805 H 0.00251 0.17343 0.93065 0.0
H806 H 0.09269 0.19643 0.96252 0.0
H807 H 0.02202 0.14814 0.967 0.0
H808 H 0.04977 0.14387 0.05507 0.0
H809 H 0.03165 0.15836 0.01289 0.0
H810 H 0.10968 0.1543 0.97786 0.0
H811 H 0.12803 0.14041 0.02032 0.0
C812 C 0.06219 0.20505 0.93447 0.0
C813 C 0.03641 0.19939 0.92565 0.0
C814 C 0.07327 0.19072 0.95533 0.0
C815 C 0.05883 0.17038 0.96773 0.0
C816 C 0.03348 0.16394 0.95807 0.0
C817 C 0.02236 0.17834 0.93723 0.0
C818 C 0.06304 0.14568 0.0383 0.0
C819 C 0.09043 0.14146 0.04119 0.0
C820 C 0.0526 0.15382 0.01403 0.0
C821 C 0.06929 0.15776 0.9921 0.0
C822 C 0.09641 0.15191 0.99455 0.0
C823 C 0.10688 0.14386 0.01885 0.0
H824 H 0.31021 0.07256 0.24701 0.0
H825 H 0.31911 0.02941 0.17358 0.0
H826 H 0.27371 0.09783 0.22767 0.0
H827 H 0.28244 0.0542 0.15447 0.0
H828 H 0.22468 0.11089 0.12019 0.0
H829 H 0.26676 0.09732 0.13962 0.0
H830 H 0.22831 0.08645 0.21532 0.0
H831 H 0.1864 0.10052 0.19613 0.0
C832 C 0.30455 0.0687 0.22666 0.0
C833 C 0.31732 0.04889 0.21185 0.0
C834 C 0.28361 0.08308 0.21564 0.0
C835 C 0.27512 0.07793 0.1896 0.0
C836 C 0.28871 0.0589 0.17446 0.0
C837 C 0.30959 0.04454 0.18548 0.0
C838 C 0.22528 0.10603 0.14109 0.0
C839 C 0.20208 0.10635 0.15651 0.0
C840 C 0.24938 0.09816 0.15218 0.0
C841 C 0.25078 0.09047 0.1789 0.0
C842 C 0.22795 0.09242 0.19471 0.0
C843 C 0.20385 0.10032 0.18365 0.0
H844 H 0.21793 0.07087 0.42492 0.0
H845 H 0.1711 0.0659 0.49639 0.0
H846 H 0.19192 0.03522 0.40535 0.0
H847 H 0.14461 0.03054 0.47657 0.0
H848 H 0.13796 0.94302 0.44722 0.0
H849 H 0.15376 0.98451 0.46591 0.0
H850 H 0.14883 0.02127 0.38874 0.0
H851 H 0.13353 0.97952 0.36982 0.0
C852 C 0.20176 0.06246 0.43626 0.0
C853 C 0.19671 0.07093 0.46226 0.0
C854 C 0.1867 0.04217 0.42498 0.0
C855 C 0.16626 0.02997 0.43946 0.0
C856 C 0.16046 0.03931 0.46506 0.0
C857 C 0.17556 0.0596 0.47636 0.0
C858 C 0.13983 0.96003 0.43427 0.0
C859 C 0.13493 0.9578 0.40693 0.0
C860 C 0.14874 0.98391 0.44504 0.0
C861 C 0.15284 0.0061 0.42874 0.0
C862 C 0.14631 0.00436 0.40171 0.0
C863 C 0.13742 0.98046 0.39092 0.0
H864 H 0.178 0.92305 0.74605 0.0
H865 H 0.17289 0.96936 0.67426 0.0
H866 H 0.21447 0.89757 0.727 0.0
H867 H 0.20961 0.94445 0.6555 0.0
H868 H 0.26855 0.88872 0.62152 0.0
H869 H 0.22577 0.90229 0.63931 0.0
H870 H 0.26032 0.90831 0.71749 0.0
H871 H 0.30284 0.89415 0.69991 0.0
C872 C 0.18447 0.92755 0.72609 0.0
C873 C 0.17282 0.94833 0.71171 0.0
C874 C 0.20541 0.91306 0.71524 0.0
C875 C 0.21508 0.91912 0.68983 0.0
C876 C 0.20246 0.93905 0.67499 0.0
C877 C 0.18153 0.95347 0.68581 0.0
C878 C 0.26692 0.89253 0.64258 0.0
C879 C 0.28922 0.89077 0.65922 0.0
C880 C 0.24242 0.9004 0.65274 0.0
C881 C 0.23972 0.90668 0.67974 0.0
C882 C 0.26165 0.90341 0.69663 0.0
C883 C 0.28612 0.89547 0.6865 0.0
H884 H 0.32666 0.93145 0.98759 0.0
H885 H 0.27789 0.92878 0.9172 0.0
H886 H 0.35189 0.96821 0.96878 0.0
H887 H 0.30268 0.96577 0.89865 0.0
H888 H 0.3588 0.02441 0.8645 0.0
H889 H 0.34521 0.98141 0.88177 0.0
H890 H 0.34096 0.01453 0.96063 0.0
H891 H 0.35503 0.0573 0.94357 0.0
C892 C 0.32153 0.93854 0.96798 0.0
C893 C 0.30016 0.92747 0.95394 0.0
C894 C 0.33591 0.95962 0.95727 0.0
C895 C 0.32917 0.96999 0.93232 0.0
C896 C 0.30859 0.95804 0.91779 0.0
C897 C 0.29423 0.93698 0.92849 0.0
C898 C 0.3554 0.02242 0.8856 0.0
C899 C 0.35755 0.04441 0.90259 0.0
C900 C 0.34752 -0.0022 0.89545 0.0
C901 C 0.34169 0.99467 0.92248 0.0
C902 C 0.34548 0.01623 0.93972 0.0
C903 C 0.35337 0.04083 0.92989 0.0
H904 H 0.31587 0.9716 0.32177 0.0
H905 H 0.30501 0.92761 0.24909 0.0
H906 H 0.27734 0.94972 0.34078 0.0
H907 H 0.26665 0.90521 0.26834 0.0
H908 H 0.17954 0.90507 0.29901 0.0
H909 H 0.22181 0.91857 0.28014 0.0
H910 H 0.25946 0.90792 0.35635 0.0
H911 H 0.21706 0.89499 0.37543 0.0
C912 C 0.30549 0.95692 0.31002 0.0
C913 C 0.31331 0.95144 0.2839 0.0
C914 C 0.2835 0.94424 0.32097 0.0
C915 C 0.26888 0.92577 0.30603 0.0
C916 C 0.27731 0.91959 0.28021 0.0
C917 C 0.29934 0.9323 0.26925 0.0
C918 C 0.19687 0.9053 0.3117 0.0
C919 C 0.19483 0.89934 0.33883 0.0
C920 C 0.22117 0.91288 0.30082 0.0
C921 C 0.24394 0.91454 0.31681 0.0
C922 C 0.24216 0.90729 0.34363 0.0
C923 C 0.21787 0.89978 0.35453 0.0
H924 H 0.32211 0.0604 0.50339 0.0
H925 H 0.27662 0.07044 0.57519 0.0
H926 H 0.34601 0.02359 0.52368 0.0
H927 H 0.29984 0.03324 0.59518 0.0
H928 H 0.35364 0.97334 0.63112 0.0
H929 H 0.34099 0.01581 0.61194 0.0
H930 H 0.33415 0.97888 0.53492 0.0
H931 H 0.34749 0.93675 0.55384 0.0
C932 C 0.31739 0.05486 0.52358 0.0
C933 C 0.29736 0.06807 0.53765 0.0
C934 C 0.33098 0.03373 0.53516 0.0
C935 C 0.32469 0.02533 0.56096 0.0
C936 C 0.30543 0.03937 0.57539 0.0
C937 C 0.29196 0.06058 0.56387 0.0
C938 C 0.34982 0.97438 0.61002 0.0
C939 C 0.35119 0.95157 0.59409 0.0
C940 C 0.34246 -0.00131 0.59907 0.0
C941 C 0.33627 0.00067 0.57197 0.0
C942 C 0.33903 0.97815 0.55582 0.0
C943 C 0.34649 0.95389 0.56673 0.0
H944 H 0.17507 0.03081 0.8226 0.0
H945 H 0.18454 0.07444 0.74958 0.0
H946 H 0.21323 0.05364 0.84129 0.0
H947 H 0.22246 0.09789 0.76856 0.0
H948 H 0.30985 0.09975 0.79824 0.0
H949 H 0.26749 0.08581 0.77986 0.0
H950 H 0.23097 0.09525 0.85672 0.0
H951 H 0.27352 0.10856 0.87531 0.0
C952 C 0.18503 0.04567 0.81072 0.0
C953 C 0.17698 0.05071 0.78457 0.0
C954 C 0.20681 0.05889 0.82149 0.0
C955 C 0.22097 0.07753 0.80637 0.0
C956 C 0.2122 0.08337 0.78057 0.0
C957 C 0.19041 0.07006 0.76976 0.0
C958 C 0.29274 0.09919 0.81117 0.0
C959 C 0.29517 0.10488 0.83834 0.0
C960 C 0.26837 0.09135 0.80058 0.0
C961 C 0.24589 0.08918 0.81689 0.0
C962 C 0.24803 0.09624 0.84375 0.0
C963 C 0.27241 0.10398 0.85437 0.0
H964 H 0.2245 0.92858 0.0651 0.0
H965 H 0.17811 0.93818 0.99374 0.0
H966 H 0.20134 0.96574 0.08526 0.0
H967 H 0.15442 0.97512 0.01416 0.0
H968 H 0.15069 0.0615 0.04615 0.0
H969 H 0.16586 0.0203 0.02635 0.0
H970 H 0.1591 0.98123 0.10223 0.0
H971 H 0.14449 0.02266 0.12227 0.0
C972 C 0.20906 0.93841 0.05387 0.0
C973 C 0.20323 0.93065 0.0278 0.0
C974 C 0.19564 0.95958 0.06549 0.0
C975 C 0.17607 0.97341 0.05129 0.0
C976 C 0.16963 0.96505 0.02548 0.0
C977 C 0.18309 0.94385 0.01384 0.0
C978 C 0.15215 0.04407 0.05859 0.0
C979 C 0.14675 0.04548 0.08589 0.0
C980 C 0.16067 0.02038 0.04718 0.0
C981 C 0.16389 -0.00245 0.06277 0.0
C982 C 0.15724 -0.00138 0.08979 0.0
C983 C 0.14877 0.02233 0.10124 0.0
H984 H 0.17064 0.31864 0.02428 0.0
H985 H 0.23733 0.31853 0.07808 0.0
H986 H 0.15124 0.28152 0.0481 0.0
H987 H 0.2176 0.28157 0.10234 0.0
H988 H 0.19406 0.1918 0.10457 0.0
H989 H 0.21126 0.23478 0.09121 0.0
H990 H 0.13165 0.26626 0.08962 0.0
H991 H 0.11429 0.22309 0.1025 0.0
C992 C 0.18089 0.31099 0.04152 0.0
C993 C 0.2056 0.32126 0.04918 0.0
C994 C 0.16969 0.28984 0.0553 0.0
C995 C 0.18295 0.27856 0.07705 0.0
C996 C 0.20709 0.28967 0.08546 0.0
C997 C 0.21832 0.31086 0.07165 0.0
C998 C 0.18023 0.20796 0.10175 0.0
C999 C 0.15277 0.20388 0.10413 0.0
C1000 C 0.19012 0.23268 0.09429 0.0
C1001 C 0.17277 0.25382 0.08911 0.0
C1002 C 0.14545 0.25019 0.09307 0.0
C1003 C 0.13554 0.22548 0.10054 0.0
H1004 H 0.74071 0.18663 0.92506 0.0
H1005 H 0.66783 0.17834 0.96917 0.0
H1006 H 0.72135 0.22319 0.89997 0.0
H1007 H 0.64871 0.21517 0.94463 0.0
H1008 H 0.61438 0.27368 0.88835 0.0
H1009 H 0.63318 0.23144 0.90225 0.0
H1010 H 0.70995 0.26851 0.91091 0.0
H1011 H 0.69139 0.3105 0.89644 0.0
C1012 C 0.72046 0.19244 0.92918 0.0
C1013 C 0.70583 0.17981 0.9492 0.0
C1014 C 0.70943 0.21344 0.91491 0.0
C1015 C 0.68356 0.22221 0.92042 0.0
C1016 C 0.66857 0.20873 0.93964 0.0
C1017 C 0.67958 0.18773 0.95386 0.0
C1018 C 0.63536 0.27273 0.89282 0.0
C1019 C 0.65129 0.29557 0.89167 0.0
C1020 C 0.6461 0.24854 0.90089 0.0
C1021 C 0.67298 0.24668 0.908 0.0
C1022 C 0.68921 0.26918 0.90538 0.0
C1023 C 0.67851 0.29334 0.89724 0.0
H1024 H 0.07076 0.42687 0.21667 0.0
H1025 H 0.06193 0.49948 0.17223 0.0
H1026 H 0.03322 0.40781 0.19312 0.0
H1027 H 0.02466 0.48014 0.14807 0.0
H1028 H 0.93728 0.45065 0.14604 0.0
H1029 H 0.97956 0.46903 0.16 0.0
H1030 H 0.01604 0.39207 0.15123 0.0
H1031 H 0.97349 0.37344 0.13788 0.0
C1032 C 0.06107 0.43858 0.2015 0.0
C1033 C 0.06905 0.46473 0.19646 0.0
C1034 C 0.03968 0.42759 0.18785 0.0
C1035 C 0.02587 0.44251 0.1688 0.0
C1036 C 0.03466 0.46829 0.16291 0.0
C1037 C 0.05605 0.47931 0.17664 0.0
C1038 C 0.95436 0.43767 0.14676 0.0
C1039 C 0.95191 0.41048 0.14127 0.0
C1040 C 0.97868 0.44828 0.15458 0.0
C1041 C 0.00112 0.43195 0.15694 0.0
C1042 C -0.00101 0.40505 0.15005 0.0
C1043 C 0.97463 0.39441 0.14231 0.0
H1044 H 0.75019 0.80809 0.42185 0.0
H1045 H 0.82362 0.81637 0.46523 0.0
H1046 H 0.7689 0.77086 0.39723 0.0
H1047 H 0.8421 0.77895 0.4411 0.0
H1048 H 0.79892 0.68315 0.39522 0.0
H1049 H 0.78039 0.72546 0.40895 0.0
H1050 H 0.85683 0.76261 0.39825 0.0
H1051 H 0.87558 0.72016 0.38505 0.0
C1052 C 0.77041 0.8021 0.42593 0.0
C1053 C 0.78541 0.81495 0.44558 0.0
C1054 C 0.78106 0.78075 0.41191 0.0
C1055 C 0.80692 0.7719 0.41729 0.0
C1056 C 0.82224 0.78549 0.43622 0.0
C1057 C 0.8116 0.80682 0.4502 0.0
C1058 C 0.8117 0.70041 0.39537 0.0
C1059 C 0.83884 0.69818 0.38953 0.0
C1060 C 0.80103 0.72472 0.4031 0.0
C1061 C 0.81724 0.7473 0.40501 0.0
C1062 C 0.84397 0.74543 0.39746 0.0
C1063 C 0.85467 0.72112 0.3898 0.0
H1064 H 0.9079 0.04644 0.16917 0.0
H1065 H 0.96269 0.01728 0.2282 0.0
H1066 H 0.94542 0.06278 0.14275 0.0
H1067 H -0.00026 0.03326 0.20198 0.0
H1068 H 0.06248 0.0451 0.14228 0.0
H1069 H 0.02173 0.02436 0.15776 0.0
H1070 H 0.98072 0.09907 0.1507 0.0
H1071 H 0.02143 0.11998 0.13506 0.0
C1072 C 0.92791 0.04337 0.17635 0.0
C1073 C 0.93245 0.03076 0.20074 0.0
C1074 C 0.94928 0.05269 0.1613 0.0
C1075 C 0.97542 0.04903 0.17025 0.0
C1076 C 0.97983 0.03595 0.19438 0.0
C1077 C 0.95859 0.02703 0.20952 0.0
C1078 C 0.04469 0.05705 0.14351 0.0
C1079 C 0.04534 0.08434 0.13799 0.0
C1080 C 0.02139 0.04515 0.15241 0.0
C1081 C -0.00174 0.06024 0.15576 0.0
C1082 C -0.00171 0.087 0.14822 0.0
C1083 C 0.02166 0.09897 0.13945 0.0
H1084 H 0.31816 0.68021 0.52459 0.0
H1085 H 0.24724 0.68479 0.57232 0.0
H1086 H 0.33784 0.71599 0.55026 0.0
H1087 H 0.2672 0.72033 0.59849 0.0
H1088 H 0.29625 0.80801 0.60432 0.0
H1089 H 0.27754 0.76641 0.58888 0.0
H1090 H 0.35489 0.72992 0.5932 0.0
H1091 H 0.37384 0.77181 0.60812 0.0
C1092 C 0.30696 0.68858 0.54088 0.0
C1093 C 0.28108 0.67996 0.54629 0.0
C1094 C 0.31832 0.70894 0.55574 0.0
C1095 C 0.30403 0.72104 0.57636 0.0
C1096 C 0.27855 0.71159 0.58251 0.0
C1097 C 0.26717 0.69122 0.5676 0.0
C1098 C 0.30924 0.79105 0.60235 0.0
C1099 C 0.33663 0.79336 0.60697 0.0
C1100 C 0.29846 0.76711 0.59369 0.0
C1101 C 0.3148 0.74496 0.58956 0.0
C1102 C 0.3419 0.74681 0.59577 0.0
C1103 C 0.35272 0.77078 0.6044 0.0
H1104 H 0.06837 0.57241 0.27656 0.0
H1105 H 0.0644 0.49937 0.32102 0.0
H1106 H 0.03176 0.59017 0.3024 0.0
H1107 H 0.02802 0.51738 0.34735 0.0
H1108 H 0.93965 0.54511 0.35318 0.0
H1109 H 0.98178 0.52749 0.33785 0.0
H1110 H 0.01734 0.605 0.34591 0.0
H1111 H 0.97501 0.62284 0.3607 0.0
C1112 C 0.05993 0.56032 0.29216 0.0
C1113 C 0.06902 0.53444 0.29662 0.0
C1114 C 0.0391 0.57057 0.30713 0.0
C1115 C 0.02698 0.55515 0.32691 0.0
C1116 C 0.03678 0.52961 0.33205 0.0
C1117 C 0.05764 0.51935 0.31704 0.0
C1118 C 0.95655 0.55832 0.35214 0.0
C1119 C 0.95384 0.58549 0.35766 0.0
C1120 C 0.98076 0.54817 0.34349 0.0
C1121 C 0.00278 0.56495 0.34032 0.0
C1122 C 0.00056 0.59171 0.34765 0.0
C1123 C 0.97633 0.60189 0.35622 0.0
H1124 H 0.42871 0.49772 0.82129 0.0
H1125 H 0.42216 0.42577 0.77532 0.0
H1126 H 0.46518 0.47834 0.84654 0.0
H1127 H 0.45889 0.40664 0.80005 0.0
H1128 H 0.51652 0.3718 0.85693 0.0
H1129 H 0.47436 0.39048 0.8426 0.0
H1130 H 0.5109 0.46767 0.83612 0.0
H1131 H 0.55285 0.44921 0.851 0.0
C1132 C 0.4349 0.47768 0.81677 0.0
C1133 C 0.42278 0.46331 0.79621 0.0
C1134 C 0.45584 0.46663 0.83114 0.0
C1135 C 0.46503 0.44103 0.8252 0.0
C1136 C 0.45209 0.42629 0.80537 0.0
C1137 C 0.43116 0.43731 0.79105 0.0
C1138 C 0.51547 0.39285 0.85285 0.0
C1139 C 0.53816 0.40893 0.85471 0.0
C1140 C 0.49133 0.40351 0.84453 0.0
C1141 C 0.48937 0.43047 0.83789 0.0
C1142 C 0.51167 0.44685 0.84126 0.0
C1143 C 0.5358 0.43621 0.84964 0.0
H1144 H 0.96739 0.82573 0.6791 0.0
H1145 H 0.92211 0.75361 0.68821 0.0
H1146 H 0.94472 0.84486 0.71709 0.0
H1147 H 0.89896 0.77299 0.72605 0.0
H1148 H 0.88945 0.87984 0.77644 0.0
H1149 H 0.90246 0.86078 0.73404 0.0
H1150 H 0.91203 0.78433 0.77132 0.0
H1151 H 0.89852 0.80317 0.81359 0.0
C1152 C 0.95226 0.81413 0.68898 0.0
C1153 C 0.94666 0.78812 0.68086 0.0
C1154 C 0.93912 0.82516 0.71063 0.0
C1155 C 0.92009 0.8104 0.72462 0.0
C1156 C 0.91376 0.78472 0.71585 0.0
C1157 C 0.92691 0.77368 0.69414 0.0
C1158 C 0.894 0.85888 0.77554 0.0
C1159 C 0.89333 0.84311 0.79848 0.0
C1160 C 0.90153 0.848 0.75126 0.0
C1161 C 0.90855 0.82113 0.7494 0.0
C1162 C 0.90654 0.80506 0.77204 0.0
C1163 C 0.89897 0.81592 0.79633 0.0
H1164 H 0.91926 0.2237 0.42771 0.0
H1165 H 0.98733 0.17185 0.42988 0.0
H1166 H 0.89997 0.20001 0.46503 0.0
H1167 H 0.96776 0.14773 0.46698 0.0
H1168 H 0.9425 0.14375 0.55576 0.0
H1169 H 0.96011 0.15845 0.51343 0.0
H1170 H 0.88111 0.15823 0.48028 0.0
H1171 H 0.86331 0.14401 0.52286 0.0
C1172 C 0.92989 0.20696 0.4359 0.0
C1173 C 0.95489 0.19976 0.42608 0.0
C1174 C 0.91875 0.19325 0.45717 0.0
C1175 C 0.93239 0.17204 0.46902 0.0
C1176 C 0.95694 0.1642 0.45847 0.0
C1177 C 0.96808 0.17793 0.43718 0.0
C1178 C 0.92889 0.14648 0.53938 0.0
C1179 C 0.90144 0.14311 0.54283 0.0
C1180 C 0.93903 0.15474 0.51503 0.0
C1181 C 0.92196 0.15974 0.49357 0.0
C1182 C 0.89469 0.15496 0.4966 0.0
C1183 C 0.88453 0.1467 0.52096 0.0
H1184 H 0.52439 0.17641 0.17807 0.0
H1185 H 0.56794 0.24962 0.18701 0.0
H1186 H 0.54954 0.15703 0.21436 0.0
H1187 H 0.59357 0.23001 0.22313 0.0
H1188 H 0.59885 0.19732 0.30972 0.0
H1189 H 0.58321 0.21704 0.26861 0.0
H1190 H 0.59319 0.14201 0.22858 0.0
H1191 H 0.60832 0.12204 0.26984 0.0
C1192 C 0.53963 0.18821 0.18755 0.0
C1193 C 0.54408 0.21457 0.1799 0.0
C1194 C 0.5542 0.17705 0.20821 0.0
C1195 C 0.57353 0.19202 0.22162 0.0
C1196 C 0.57861 0.21811 0.21333 0.0
C1197 C 0.56402 0.22928 0.19262 0.0
C1198 C 0.59809 0.18509 0.29208 0.0
C1199 C 0.60438 0.15799 0.29317 0.0
C1200 C 0.58928 0.19646 0.26846 0.0
C1201 C 0.58668 0.18098 0.24544 0.0
C1202 C 0.59453 0.15429 0.24614 0.0
C1203 C 0.60329 0.1429 0.26976 0.0
H1204 H 0.57405 0.79252 0.91967 0.0
H1205 H 0.497 0.82491 0.93805 0.0
H1206 H 0.59282 0.81514 0.95784 0.0
H1207 H 0.51596 0.8485 0.97581 0.0
H1208 H 0.55005 0.84593 0.0609 0.0
H1209 H 0.53108 0.83451 0.01821 0.0
H1210 H 0.60487 0.85512 0.97985 0.0
H1211 H 0.62423 0.86568 0.02287 0.0
C1212 C 0.56126 0.80504 0.93151 0.0
C1213 C 0.53401 0.80668 0.92615 0.0
C1214 C 0.57206 0.81819 0.95333 0.0
C1215 C 0.55584 0.83343 0.9701 0.0
C1216 C 0.52889 0.83646 0.96362 0.0
C1217 C 0.51805 0.8231 0.94191 0.0
C1218 C 0.56217 0.84832 0.04336 0.0
C1219 C 0.58879 0.8563 0.04533 0.0
C1220 C 0.5512 0.84199 0.01878 0.0
C1221 C 0.56649 0.84373 0.99556 0.0
C1222 C 0.59269 0.85309 -0.0026 0.0
C1223 C 0.60376 0.85921 0.02204 0.0
H1224 H 0.9243 0.24603 0.81111 0.0
H1225 H 0.97203 0.17523 0.81705 0.0
H1226 H 0.89947 0.2262 0.77453 0.0
H1227 H 0.9477 0.15568 0.78028 0.0
H1228 H 0.89101 0.11962 0.72307 0.0
H1229 H 0.90521 0.13859 0.76517 0.0
H1230 H 0.91039 0.21583 0.72864 0.0
H1231 H 0.89565 0.19708 0.68675 0.0
C1232 C 0.92929 0.22615 0.80476 0.0
C1233 C 0.95021 0.21223 0.81674 0.0
C1234 C 0.91516 0.21485 0.78378 0.0
C1235 C 0.9217 0.18944 0.77444 0.0
C1236 C 0.94193 0.17515 0.78721 0.0
C1237 C 0.95602 0.18643 0.80815 0.0
C1238 C 0.89481 0.14072 0.7241 0.0
C1239 C 0.8926 0.15676 0.70145 0.0
C1240 C 0.90303 0.15155 0.74821 0.0
C1241 C 0.9092 0.17863 0.75015 0.0
C1242 C 0.90558 0.19493 0.72786 0.0
C1243 C 0.89731 0.18412 0.70378 0.0
H1244 H 0.57464 0.2163 0.56561 0.0
H1245 H 0.5033 0.16902 0.5618 0.0
H1246 H 0.59334 0.19113 0.52907 0.0
H1247 H 0.52225 0.14345 0.5252 0.0
H1248 H 0.55071 0.1409 0.43621 0.0
H1249 H 0.53223 0.15454 0.47861 0.0
H1250 H 0.6096 0.14771 0.51474 0.0
H1251 H 0.62827 0.1345 0.47224 0.0
C1252 C 0.56313 0.20022 0.55721 0.0
C1253 C 0.53744 0.19476 0.56635 0.0
C1254 C 0.57394 0.18563 0.53641 0.0
C1255 C 0.55925 0.16531 0.52424 0.0
C1256 C 0.53392 0.15915 0.53407 0.0
C1257 C 0.52314 0.1737 0.55504 0.0
C1258 C 0.56373 0.14187 0.45327 0.0
C1259 C 0.59107 0.13716 0.45071 0.0
C1260 C 0.55308 0.14951 0.47763 0.0
C1261 C 0.56955 0.15253 0.49991 0.0
C1262 C 0.59653 0.146 0.49777 0.0
C1263 C 0.60719 0.13838 0.47343 0.0
H1264 H 0.57064 0.75364 0.31392 0.0
H1265 H 0.52543 0.82606 0.31995 0.0
H1266 H 0.59579 0.7724 0.27709 0.0
H1267 H 0.55009 0.84458 0.2829 0.0
H1268 H 0.60732 0.87848 0.22519 0.0
H1269 H 0.59301 0.86012 0.26746 0.0
H1270 H 0.58505 0.78294 0.2312 0.0
H1271 H 0.59988 0.80108 0.1891 0.0
C1272 C 0.56627 0.77365 0.30754 0.0
C1273 C 0.54596 0.78834 0.31963 0.0
C1274 C 0.58058 0.78434 0.2864 0.0
C1275 C 0.57485 0.80991 0.277 0.0
C1276 C 0.55525 0.82495 0.28987 0.0
C1277 C 0.54096 0.81428 0.31098 0.0
C1278 C 0.60291 0.8575 0.22632 0.0
C1279 C 0.60433 0.84133 0.20366 0.0
C1280 C 0.59461 0.84703 0.25052 0.0
C1281 C 0.58756 0.82018 0.25259 0.0
C1282 C 0.59051 0.80368 0.23033 0.0
C1283 C 0.59887 0.81413 0.20613 0.0
H1284 H 0.93019 0.80479 0.0892 0.0
H1285 H 0.00027 0.79277 0.04169 0.0
H1286 H 0.91063 0.83122 0.0538 0.0
H1287 H 0.98032 0.81771 0.00569 0.0
H1288 H 0.94534 0.8727 0.94685 0.0
H1289 H 0.96601 0.85779 0.98793 0.0
H1290 H 0.89126 0.82382 0.01273 0.0
H1291 H 0.87052 0.84001 0.97258 0.0
C1292 C 0.94138 0.80785 0.07115 0.0
C1293 C 0.96662 0.79664 0.06805 0.0
C1294 C 0.93015 0.82286 0.05078 0.0
C1295 C 0.94371 0.82645 0.02666 0.0
C1296 C 0.96938 0.81583 0.02404 0.0
C1297 C 0.98078 0.8013 0.04461 0.0
C1298 C 0.93331 0.86246 0.96138 0.0
C1299 C 0.90639 0.85736 0.95645 0.0
C1300 C 0.94516 0.85372 0.98484 0.0
C1301 C 0.93046 0.83924 0.00361 0.0
C1302 C 0.90322 0.83521 -0.00095 0.0
C1303 C 0.89129 0.84438 0.97587 0.0
H1304 H 0.65801 0.93532 0.81672 0.0
H1305 H 0.70492 0.94849 0.74645 0.0
H1306 H 0.69472 0.91113 0.83677 0.0
H1307 H 0.74217 0.92592 0.76689 0.0
H1308 H 0.80515 0.87756 0.80432 0.0
H1309 H 0.76315 0.88816 0.78282 0.0
H1310 H 0.73482 0.92257 0.85609 0.0
H1311 H 0.77599 0.91058 0.87769 0.0
C1312 C 0.67617 0.93286 0.80554 0.0
C1313 C 0.67879 0.94391 0.78018 0.0
C1314 C 0.6973 0.9192 0.81707 0.0
C1315 C 0.72168 0.91689 0.8037 0.0
C1316 C 0.7237 0.92691 0.77775 0.0
C1317 C 0.70238 0.94005 0.76603 0.0
C1318 C 0.78969 0.88701 0.81584 0.0
C1319 C 0.79388 0.89344 0.84258 0.0
C1320 C 0.76568 0.89324 0.80351 0.0
C1321 C 0.74557 0.90652 0.81756 0.0
C1322 C 0.74953 0.91196 0.84464 0.0
C1323 C 0.77329 0.90526 0.85705 0.0
H1324 H 0.82322 0.93436 0.49912 0.0
H1325 H 0.77535 0.92607 0.56959 0.0
H1326 H 0.84623 0.97197 0.51922 0.0
H1327 H 0.79796 0.9638 0.58945 0.0
H1328 H 0.85325 0.02257 0.62604 0.0
H1329 H 0.84021 0.98026 0.60671 0.0
H1330 H 0.83296 0.01747 0.52996 0.0
H1331 H 0.84645 0.05965 0.54908 0.0
C1332 C 0.81782 0.9404 0.519 0.0
C1333 C 0.79738 0.92745 0.53274 0.0
C1334 C 0.8309 0.96198 0.53044 0.0
C1335 C 0.82382 0.97091 0.55585 0.0
C1336 C 0.8041 0.95722 0.56997 0.0
C1337 C 0.79101 0.93571 0.55852 0.0
C1338 C 0.84922 0.02168 0.60497 0.0
C1339 C 0.85052 0.04458 0.58918 0.0
C1340 C 0.84166 -0.00255 0.59394 0.0
C1341 C 0.83531 0.9956 0.56689 0.0
C1342 C 0.83794 0.0182 0.55084 0.0
C1343 C 0.84548 0.04243 0.56186 0.0
H1344 H 0.84166 0.07074 0.31085 0.0
H1345 H 0.79526 0.05709 0.24022 0.0
H1346 H 0.80463 0.09469 0.33058 0.0
H1347 H 0.75778 0.07944 0.2603 0.0
H1348 H 0.69264 0.12375 0.29844 0.0
H1349 H 0.73524 0.11594 0.277 0.0
H1350 H 0.76495 0.0811 0.34953 0.0
H1351 H 0.72309 0.0903 0.3711 0.0
C1352 C 0.82363 0.07321 0.29943 0.0
C1353 C 0.82117 0.06185 0.27418 0.0
C1354 C 0.80231 0.0867 0.3108 0.0
C1355 C 0.77791 0.08853 0.29735 0.0
C1356 C 0.77622 0.07872 0.27128 0.0
C1357 C 0.79771 0.06572 0.25974 0.0
C1358 C 0.70849 0.11479 0.30982 0.0
C1359 C 0.70448 0.10736 0.33633 0.0
C1360 C 0.73288 0.1102 0.29754 0.0
C1361 C 0.75359 0.09761 0.31137 0.0
C1362 C 0.74978 0.09124 0.33826 0.0
C1363 C 0.7256 0.09629 0.35064 0.0
H1364 H 0.67003 0.06273 -0.00095 0.0
H1365 H 0.70763 0.07737 0.07461 0.0
H1366 H 0.64612 0.02527 0.01819 0.0
H1367 H 0.68458 0.03958 0.09348 0.0
H1368 H 0.63269 0.97672 0.12626 0.0
H1369 H 0.64386 0.01961 0.10706 0.0
H1370 H 0.65899 0.98175 0.0317 0.0
H1371 H 0.64701 0.9392 0.05057 0.0
C1372 C 0.67295 0.0581 0.01981 0.0
C1373 C 0.69086 0.07277 0.03529 0.0
C1374 C 0.65938 0.03658 0.03074 0.0
C1375 C 0.66361 0.02924 0.0573 0.0
C1376 C 0.68055 0.04482 0.07306 0.0
C1377 C 0.69396 0.0664 0.06219 0.0
C1378 C 0.63803 0.97764 0.10549 0.0
C1379 C 0.63936 0.95449 0.09005 0.0
C1380 C 0.64452 0.0022 0.09452 0.0
C1381 C 0.65263 0.0041 0.06793 0.0
C1382 C 0.65257 0.98112 0.05217 0.0
C1383 C 0.6459 0.95662 0.06307 0.0
H1384 H 0.66955 0.03778 0.67741 0.0
H1385 H 0.68998 0.06797 0.7549 0.0
H1386 H 0.70692 0.06134 0.65831 0.0
H1387 H 0.72695 0.09252 0.73563 0.0
H1388 H 0.81079 0.09351 0.69834 0.0
H1389 H 0.76915 0.08051 0.71854 0.0
H1390 H 0.72742 0.10214 0.64687 0.0
H1391 H 0.76939 0.11424 0.62624 0.0
C1392 C 0.68171 0.04997 0.69026 0.0
C1393 C 0.67708 0.0508 0.71767 0.0
C1394 C 0.70306 0.06367 0.67928 0.0
C1395 C 0.72012 0.07871 0.69545 0.0
C1396 C 0.71452 0.08072 0.72269 0.0
C1397 C 0.69326 0.0668 0.73372 0.0
C1398 C 0.79271 0.09582 0.68697 0.0
C1399 C 0.79346 0.10449 0.66052 0.0
C1400 C 0.76874 0.08855 0.69866 0.0
C1401 C 0.7449 0.09004 0.68427 0.0
C1402 C 0.74548 0.10021 0.65833 0.0
C1403 C 0.76952 0.10725 0.64654 0.0
H1404 H 0.7267 0.9274 0.42073 0.0
H1405 H 0.67376 0.9292 0.48796 0.0
H1406 H 0.70271 0.96416 0.40079 0.0
H1407 H 0.64931 0.96572 0.46771 0.0
H1408 H 0.64524 0.05441 0.44229 0.0
H1409 H 0.6598 0.01217 0.46017 0.0
H1410 H 0.66112 0.979 0.38121 0.0
H1411 H 0.64707 0.02153 0.36313 0.0
C1412 C 0.70964 0.93537 0.43102 0.0
C1413 C 0.70225 0.92566 0.45601 0.0
C1414 C 0.69576 0.9563 0.41951 0.0
C1415 C 0.67417 0.96791 0.43274 0.0
C1416 C 0.66608 0.95739 0.45722 0.0
C1417 C 0.68 0.93645 0.46875 0.0
C1418 C 0.6483 0.03805 0.42873 0.0
C1419 C 0.64543 0.04148 0.40123 0.0
C1420 C 0.65645 0.01374 0.43903 0.0
C1421 C 0.66183 0.99232 0.42207 0.0
C1422 C 0.65754 0.9953 0.39472 0.0
C1423 C 0.64938 0.01963 0.38439 0.0
H1424 H 0.7875 0.95711 0.25202 0.0
H1425 H 0.83785 0.93579 0.18621 0.0
H1426 H 0.7507 0.93384 0.23156 0.0
H1427 H 0.80118 0.91139 0.16606 0.0
H1428 H 0.72025 0.90964 0.12232 0.0
H1429 H 0.76125 0.92278 0.14403 0.0
H1430 H 0.73115 0.89342 0.21868 0.0
H1431 H 0.68964 0.88137 0.19708 0.0
C1432 C 0.79085 0.94689 0.23343 0.0
C1433 C 0.81544 0.94846 0.22057 0.0
C1434 C 0.76977 0.93334 0.22175 0.0
C1435 C 0.77288 0.9208 0.19704 0.0
C1436 C 0.79796 0.92122 0.18485 0.0
C1437 C 0.81901 0.93504 0.19646 0.0
C1438 C 0.72254 0.90567 0.1433 0.0
C1439 C 0.7016 0.89488 0.1581 0.0
C1440 C 0.74615 0.91304 0.15575 0.0
C1441 C 0.74944 0.90944 0.18321 0.0
C1442 C 0.72905 0.89708 0.19764 0.0
C1443 C 0.70531 0.89006 0.18526 0.0
H1444 H 0.80022 0.08929 0.93246 0.0
H1445 H 0.78906 0.04356 0.00383 0.0
H1446 H 0.82539 0.05294 0.91302 0.0
H1447 H 0.81265 0.00659 0.98403 0.0
H1448 H 0.86642 0.94632 0.94897 0.0
H1449 H 0.85192 0.9877 0.9693 0.0
H1450 H 0.81713 0.01171 0.89465 0.0
H1451 H 0.83299 0.97127 0.87423 0.0
C1452 C 0.80318 0.07141 0.94395 0.0
C1453 C 0.79262 0.06911 0.96954 0.0
C1454 C 0.81745 0.05049 0.93279 0.0
C1455 C 0.8209 0.02659 0.94678 0.0
C1456 C 0.81088 0.02474 0.97274 0.0
C1457 C 0.79712 0.04587 0.98407 0.0
C1458 C 0.85603 0.96072 0.93691 0.0
C1459 C 0.85072 0.95555 0.91009 0.0
C1460 C 0.84753 0.98435 0.94856 0.0
C1461 C 0.83304 0.00306 0.93376 0.0
C1462 C 0.82858 -0.00187 0.90666 0.0
C1463 C 0.83755 0.97478 0.89493 0.0
H1464 H 0.81588 0.66217 0.94019 0.0
H1465 H 0.74386 0.70765 0.94783 0.0
H1466 H 0.83678 0.69901 0.91695 0.0
H1467 H 0.765 0.74501 0.92615 0.0
H1468 H 0.80326 0.80701 0.87731 0.0
H1469 H 0.78238 0.7649 0.8885 0.0
H1470 H 0.85446 0.74012 0.92789 0.0
H1471 H 0.87558 0.78145 0.91528 0.0
C1472 C 0.80452 0.68005 0.93677 0.0
C1473 C 0.77836 0.68219 0.94591 0.0
C1474 C 0.81652 0.70125 0.92364 0.0
C1475 C 0.80276 0.72523 0.91989 0.0
C1476 C 0.77618 0.72684 0.92822 0.0
C1477 C 0.76405 0.70546 0.94087 0.0
C1478 C 0.81467 0.7923 0.888 0.0
C1479 C 0.84093 0.79751 0.8956 0.0
C1480 C 0.8027 0.76824 0.89459 0.0
C1481 C 0.81655 0.74912 0.90944 0.0
C1482 C 0.84321 0.75407 0.91611 0.0
C1483 C 0.85533 0.77789 0.90903 0.0
H1484 H 0.25574 0.81637 0.06818 0.0
H1485 H 0.32298 0.81636 0.01519 0.0
H1486 H 0.276 0.78068 0.09384 0.0
H1487 H 0.34293 0.78045 0.04044 0.0
H1488 H 0.38101 0.72578 0.09828 0.0
H1489 H 0.36254 0.76764 0.08283 0.0
H1490 H 0.28389 0.73377 0.08504 0.0
H1491 H 0.30216 0.69218 0.10097 0.0
C1492 C 0.27494 0.80888 0.06216 0.0
C1493 C 0.28771 0.81894 0.03959 0.0
C1494 C 0.28648 0.78842 0.07679 0.0
C1495 C 0.311 0.7777 0.0691 0.0
C1496 C 0.32419 0.78851 0.04709 0.0
C1497 C 0.31266 0.80894 0.03249 0.0
C1498 C 0.35973 0.7274 0.0959 0.0
C1499 C 0.3431 0.70551 0.10045 0.0
C1500 C 0.34919 0.75134 0.08693 0.0
C1501 C 0.32182 0.75389 0.08242 0.0
C1502 C 0.30504 0.73251 0.0885 0.0
C1503 C 0.31556 0.70858 0.09745 0.0
H1504 H 0.95314 0.49158 0.79081 0.0
H1505 H 0.90553 0.56178 0.80167 0.0
H1506 H 0.98989 0.5128 0.81361 0.0
H1507 H 0.94174 0.58267 0.826 0.0
H1508 H 0.02288 0.6236 0.83154 0.0
H1509 H 0.98252 0.60199 0.81669 0.0
H1510 H 0.00863 0.52866 0.85263 0.0
H1511 H 0.0498 0.55012 0.86609 0.0
C1512 C 0.95038 0.51138 0.79866 0.0
C1513 C 0.92666 0.52517 0.7943 0.0
C1514 C 0.97139 0.52353 0.81194 0.0
C1515 C 0.96894 0.54959 0.82161 0.0
C1516 C 0.94461 0.56284 0.81832 0.0
C1517 C 0.92378 0.55084 0.80456 0.0
C1518 C 0.01982 0.60295 0.83655 0.0
C1519 C 0.03956 0.58844 0.8497 0.0
C1520 C -0.00345 0.59054 0.82818 0.0
C1521 C 0.99228 0.56344 0.83323 0.0
C1522 C 0.01148 0.54936 0.84777 0.0
C1523 C 0.035 0.56166 0.85567 0.0
H1524 H 0.2506 0.20629 0.54628 0.0
H1525 H 0.17957 0.15973 0.55674 0.0
H1526 H 0.22968 0.24351 0.56845 0.0
H1527 H 0.15897 0.19642 0.58048 0.0
H1528 H 0.11902 0.27812 0.58269 0.0
H1529 H 0.14036 0.23709 0.56975 0.0
H1530 H 0.21326 0.26343 0.60662 0.0
H1531 H 0.19209 0.30528 0.61819 0.0
C1532 C 0.23069 0.20385 0.55395 0.0
C1533 C 0.21656 0.18031 0.54957 0.0
C1534 C 0.2187 0.22514 0.56688 0.0
C1535 C 0.19247 0.22315 0.57617 0.0
C1536 C 0.17893 0.19894 0.57305 0.0
C1537 C 0.19076 0.17784 0.55962 0.0
C1538 C 0.13951 0.27499 0.58834 0.0
C1539 C 0.154 0.29499 0.60116 0.0
C1540 C 0.15176 0.25132 0.58108 0.0
C1541 C 0.17869 0.24689 0.58692 0.0
C1542 C 0.19271 0.26637 0.60119 0.0
C1543 C 0.18056 0.29028 0.608 0.0
H1544 H 0.08649 0.93908 0.81417 0.0
H1545 H 0.03797 0.00676 0.7948 0.0
H1546 H 0.04999 0.92003 0.83941 0.0
H1547 H 0.0009 0.98717 0.81851 0.0
H1548 H 0.97006 0.87715 0.84369 0.0
H1549 H 0.01046 0.89881 0.82951 0.0
H1550 H 0.98013 0.97394 0.85755 0.0
H1551 H 0.93889 0.95223 0.87043 0.0
C1552 C 0.06799 0.9499 0.81545 0.0
C1553 C 0.06491 0.97425 0.80243 0.0
C1554 C 0.04698 0.93893 0.82973 0.0
C1555 C 0.02224 0.95179 0.83072 0.0
C1556 C 0.01966 0.97677 0.81857 0.0
C1557 C 0.04087 0.98798 0.80478 0.0
C1558 C 0.97214 0.89824 0.84716 0.0
C1559 C 0.95119 0.91304 0.85791 0.0
C1560 C 0.99547 0.91071 0.83918 0.0
C1561 C -0.00134 0.93825 0.8422 0.0
C1562 C 0.97819 0.95281 0.85434 0.0
C1563 C 0.95461 0.94037 0.86189 0.0
H1564 H 0.66937 0.32141 0.46473 0.0
H1565 H 0.74585 0.30947 0.42822 0.0
H1566 H 0.65175 0.28369 0.44051 0.0
H1567 H 0.72798 0.27208 0.40316 0.0
H1568 H 0.69713 0.18543 0.4004 0.0
H1569 H 0.71499 0.22786 0.41447 0.0
H1570 H 0.63936 0.26492 0.39877 0.0
H1571 H 0.62117 0.22218 0.38549 0.0
C1572 C 0.68227 0.31103 0.45108 0.0
C1573 C 0.70904 0.31816 0.44857 0.0
C1574 C 0.67212 0.2895 0.43701 0.0
C1575 C 0.6885 0.27474 0.41998 0.0
C1576 C 0.71497 0.28277 0.41645 0.0
C1577 C 0.72517 0.30424 0.43068 0.0
C1578 C 0.68437 0.20267 0.39962 0.0
C1579 C 0.6576 0.20034 0.39226 0.0
C1580 C 0.69469 0.22709 0.40751 0.0
C1581 C 0.67854 0.24978 0.40798 0.0
C1582 C 0.65218 0.24772 0.39914 0.0
C1583 C 0.64179 0.22324 0.39143 0.0
H1584 H 0.92035 0.42042 0.70726 0.0
H1585 H 0.93235 0.49734 0.6717 0.0
H1586 H 0.95777 0.40304 0.68249 0.0
H1587 H 0.9695 0.47973 0.64618 0.0
H1588 H 0.05631 0.44816 0.64395 0.0
H1589 H 0.01384 0.46632 0.65748 0.0
H1590 H 0.9761 0.39134 0.64022 0.0
H1591 H 0.01883 0.37287 0.62742 0.0
C1592 C 0.93068 0.43348 0.69371 0.0
C1593 C 0.92365 0.46029 0.69162 0.0
C1594 C 0.95203 0.42347 0.67933 0.0
C1595 C 0.96673 0.44003 0.66243 0.0
C1596 C 0.95881 0.46656 0.65933 0.0
C1597 C 0.93748 0.47661 0.67384 0.0
C1598 C 0.03891 0.43564 0.64264 0.0
C1599 C 0.04103 0.40892 0.6351 0.0
C1600 C 0.01448 0.44613 0.65024 0.0
C1601 C 0.99161 0.43018 0.65024 0.0
C1602 C 0.99345 0.40397 0.64097 0.0
C1603 C 0.01792 0.39343 0.63355 0.0
H1604 H 0.57014 0.57035 0.21718 0.0
H1605 H 0.55836 0.49699 0.17456 0.0
H1606 H 0.53366 0.59036 0.19282 0.0
H1607 H 0.52215 0.51725 0.14962 0.0
H1608 H 0.43606 0.55052 0.14674 0.0
H1609 H 0.47751 0.53063 0.16103 0.0
H1610 H 0.51746 0.60563 0.15033 0.0
H1611 H 0.47577 0.6258 0.13663 0.0
C1612 C 0.56003 0.55865 0.20225 0.0
C1613 C 0.56687 0.53205 0.19795 0.0
C1614 C 0.53926 0.57018 0.18812 0.0
C1615 C 0.52493 0.55535 0.16935 0.0
C1616 C 0.53258 0.52906 0.16422 0.0
C1617 C 0.55336 0.51751 0.17841 0.0
C1618 C 0.45373 0.56272 0.14707 0.0
C1619 C 0.4525 0.58987 0.14099 0.0
C1620 C 0.47757 0.55125 0.15509 0.0
C1621 C 0.50073 0.56663 0.15707 0.0
C1622 C 0.49984 0.5934 0.14947 0.0
C1623 C 0.47596 0.60491 0.14153 0.0
H1624 H 0.56133 0.68587 0.83861 0.0
H1625 H 0.54543 0.75418 0.78964 0.0
H1626 H 0.58571 0.66543 0.80219 0.0
H1627 H 0.56842 0.7334 0.7529 0.0
H1628 H 0.61963 0.69736 0.69184 0.0
H1629 H 0.6079 0.71881 0.73351 0.0
H1630 H 0.57497 0.64494 0.76192 0.0
H1631 H 0.58794 0.62337 0.72097 0.0
C1632 C 0.56318 0.69653 0.82007 0.0
C1633 C 0.55137 0.72148 0.81683 0.0
C1634 C 0.577 0.68479 0.79915 0.0
C1635 C 0.57888 0.69761 0.77445 0.0
C1636 C 0.56783 0.72305 0.77168 0.0
C1637 C 0.55442 0.73493 0.7927 0.0
C1638 C 0.61028 0.68568 0.70723 0.0
C1639 C 0.60444 0.65879 0.70307 0.0
C1640 C 0.60341 0.69797 0.73105 0.0
C1641 C 0.59011 0.68375 0.751 0.0
C1642 C 0.58547 0.65651 0.74723 0.0
C1643 C 0.59276 0.64413 0.72362 0.0
H1644 H 0.56789 0.28036 0.07131 0.0
H1645 H 0.49435 0.32309 0.06148 0.0
H1646 H 0.58671 0.30398 0.03378 0.0
H1647 H 0.51343 0.3473 0.02418 0.0
H1648 H 0.54387 0.34897 0.93701 0.0
H1649 H 0.52529 0.33515 0.97922 0.0
H1650 H 0.60161 0.34619 0.01662 0.0
H1651 H 0.62045 0.35941 0.97419 0.0
C1652 C 0.55591 0.29517 0.0614 0.0
C1653 C 0.52959 0.29971 0.06911 0.0
C1654 C 0.56676 0.30886 0.04001 0.0
C1655 C 0.55152 0.32745 0.02593 0.0
C1656 C 0.52554 0.33283 0.03442 0.0
C1657 C 0.51466 0.31907 0.05582 0.0
C1658 C 0.55664 0.34879 0.95428 0.0
C1659 C 0.58375 0.35485 0.95214 0.0
C1660 C 0.54592 0.34105 0.97855 0.0
C1661 C 0.56204 0.33934 0.00122 0.0
C1662 C 0.5888 0.34686 -0.00061 0.0
C1663 C 0.59956 0.35451 0.97509 0.0
H1664 H 0.91768 0.25294 0.30915 0.0
H1665 H 0.96761 0.32223 0.31557 0.0
H1666 H 0.89358 0.27366 0.2726 0.0
H1667 H 0.94399 0.34266 0.27884 0.0
H1668 H 0.88898 0.38069 0.22142 0.0
H1669 H 0.90214 0.36114 0.26358 0.0
H1670 H 0.90485 0.28386 0.2268 0.0
H1671 H 0.89117 0.3032 0.18487 0.0
C1672 C 0.92332 0.27268 0.30291 0.0
C1673 C 0.94464 0.28591 0.31502 0.0
C1674 C 0.9096 0.28449 0.28194 0.0
C1675 C 0.91695 0.30974 0.27275 0.0
C1676 C 0.93759 0.32335 0.28565 0.0
C1677 C 0.95128 0.31155 0.30657 0.0
C1678 C 0.89195 0.35946 0.22242 0.0
C1679 C 0.88943 0.34357 0.19966 0.0
C1680 C 0.89961 0.3483 0.24656 0.0
C1681 C 0.90486 0.32102 0.24845 0.0
C1682 C 0.90078 0.30491 0.22608 0.0
C1683 C 0.89311 0.31606 0.20196 0.0
H1684 H 0.99206 0.67673 0.5637 0.0
H1685 H 0.92096 0.72422 0.56779 0.0
H1686 H 0.97304 0.65145 0.52706 0.0
H1687 H 0.9022 0.69942 0.53084 0.0
H1688 H 0.94577 0.64496 0.43922 0.0
H1689 H 0.96351 0.66123 0.48096 0.0
H1690 H 0.8855 0.65674 0.51597 0.0
H1691 H 0.86753 0.64099 0.47396 0.0
C1692 C 0.97229 0.68162 0.55689 0.0
C1693 C 0.95804 0.70255 0.56843 0.0
C1694 C 0.96145 0.66722 0.53586 0.0
C1695 C 0.93618 0.67352 0.52596 0.0
C1696 C 0.92157 0.69383 0.53821 0.0
C1697 C 0.93239 0.70818 0.55926 0.0
C1698 C 0.93242 0.6471 0.45588 0.0
C1699 C 0.90515 0.64206 0.45312 0.0
C1700 C 0.94265 0.65628 0.4799 0.0
C1701 C 0.92586 0.6605 0.50171 0.0
C1702 C 0.89884 0.65411 0.49937 0.0
C1703 C 0.88859 0.64497 0.47533 0.0
H1704 H 0.52018 0.32171 0.67749 0.0
H1705 H 0.57765 0.25826 0.67824 0.0
H1706 H 0.54216 0.34204 0.71543 0.0
H1707 H 0.5998 0.27876 0.71615 0.0
H1708 H 0.5993 0.30248 0.80615 0.0
H1709 H 0.58631 0.28445 0.76326 0.0
H1710 H 0.58377 0.36351 0.73064 0.0
H1711 H 0.59649 0.38167 0.77355 0.0
C1712 C 0.53777 0.31236 0.68549 0.0
C1713 C 0.5471 0.28833 0.67508 0.0
C1714 C 0.55045 0.32407 0.70712 0.0
C1715 C 0.57262 0.31189 0.71879 0.0
C1716 C 0.58259 0.28841 0.70768 0.0
C1717 C 0.56999 0.27677 0.68595 0.0
C1718 C 0.59631 0.31601 0.78977 0.0
C1719 C 0.59854 0.34353 0.79338 0.0
C1720 C 0.58905 0.30566 0.76514 0.0
C1721 C 0.58384 0.32262 0.74369 0.0
C1722 C 0.58733 0.35002 0.74695 0.0
C1723 C 0.59469 0.36038 0.77152 0.0
H1724 H -5e-05 0.32188 0.93498 0.0
H1725 H 0.92631 0.2791 0.92563 0.0
H1726 H 0.98074 0.34698 0.97165 0.0
H1727 H 0.90732 0.30372 0.96247 0.0
H1728 H 0.94847 0.35134 0.05841 0.0
H1729 H 0.96788 0.33606 0.01702 0.0
H1730 H 0.89271 0.3472 0.97745 0.0
H1731 H 0.87307 0.36197 0.01898 0.0
C1732 C 0.9796 0.31801 0.94062 0.0
C1733 C 0.96465 0.29844 0.92761 0.0
C1734 C 0.96866 0.3323 0.96165 0.0
C1735 C 0.94256 0.32728 0.96998 0.0
C1736 C 0.92736 0.30833 0.9563 0.0
C1737 C 0.9383 0.29406 0.93533 0.0
C1738 C 0.93615 0.35091 0.04082 0.0
C1739 C 0.9091 0.35743 0.0421 0.0
C1740 C 0.94734 0.3423 0.01704 0.0
C1741 C 0.93173 0.34014 0.99405 0.0
C1742 C 0.9051 0.34819 0.99497 0.0
C1743 C 0.89389 0.35675 0.01875 0.0
H1744 H 0.97614 0.67005 0.18075 0.0
H1745 H 0.91949 0.7342 0.17983 0.0
H1746 H 0.95269 0.64981 0.2177 0.0
H1747 H 0.89571 0.71369 0.2167 0.0
H1748 H 0.8976 0.61053 0.27471 0.0
H1749 H 0.91138 0.62848 0.23204 0.0
H1750 H 0.90661 0.70781 0.26387 0.0
H1751 H 0.89244 0.69001 0.30637 0.0
C1752 C 0.9584 0.67958 0.18817 0.0
C1753 C 0.94976 0.70381 0.1776 0.0
C1754 C 0.94485 0.66789 0.20922 0.0
C1755 C 0.92241 0.68022 0.22017 0.0
C1756 C 0.91312 0.7039 0.20884 0.0
C1757 C 0.92665 0.71556 0.18769 0.0
C1758 C 0.8991 0.63183 0.27251 0.0
C1759 C 0.89429 0.64883 0.29407 0.0
C1760 C 0.90709 0.64208 0.24809 0.0
C1761 C 0.91031 0.66951 0.24469 0.0
C1762 C 0.9041 0.68658 0.2658 0.0
C1763 C 0.89617 0.67635 0.29023 0.0
H1764 H 0.496 0.67927 0.43707 0.0
H1765 H 0.56948 0.72227 0.42776 0.0
H1766 H 0.51526 0.65448 0.47393 0.0
H1767 H 0.58851 0.69799 0.4648 0.0
H1768 H 0.62265 0.64091 0.52268 0.0
H1769 H 0.60336 0.65506 0.48073 0.0
H1770 H 0.52765 0.66594 0.51918 0.0
H1771 H 0.54669 0.65125 0.56095 0.0
C1772 C 0.51633 0.68323 0.44275 0.0
C1773 C 0.5312 0.70282 0.42972 0.0
C1774 C 0.52731 0.66913 0.46389 0.0
C1775 C 0.55335 0.67435 0.47235 0.0
C1776 C 0.56851 0.69323 0.45857 0.0
C1777 C 0.55755 0.7073 0.43747 0.0
C1778 C 0.60179 0.64595 0.52211 0.0
C1779 C 0.58631 0.64534 0.54526 0.0
C1780 C 0.59078 0.65415 0.49809 0.0
C1781 C 0.56408 0.66192 0.49671 0.0
C1782 C 0.54824 0.65989 0.51952 0.0
C1783 C 0.55922 0.65164 0.54353 0.0
H1784 H 0.81032 0.56831 0.74324 0.0
H1785 H 0.81528 0.52218 0.67126 0.0
H1786 H 0.77376 0.59378 0.72434 0.0
H1787 H 0.77848 0.54715 0.65262 0.0
H1788 H 0.72114 0.60493 0.61856 0.0
H1789 H 0.76334 0.58998 0.63668 0.0
H1790 H 0.72773 0.58347 0.71426 0.0
H1791 H 0.68575 0.59895 0.69636 0.0
C1792 C 0.80376 0.5638 0.72329 0.0
C1793 C 0.81546 0.54314 0.70877 0.0
C1794 C 0.78278 0.57829 0.71253 0.0
C1795 C 0.77313 0.57238 0.68706 0.0
C1796 C 0.78564 0.55244 0.67216 0.0
C1797 C 0.80661 0.53798 0.68291 0.0
C1798 C 0.7224 0.60068 0.63957 0.0
C1799 C 0.69996 0.60274 0.65594 0.0
C1800 C 0.74656 0.59202 0.6499 0.0
C1801 C 0.74879 0.58525 0.67682 0.0
C1802 C 0.72674 0.58873 0.69347 0.0
C1803 C 0.7026 0.59744 0.68316 0.0
H1804 H 0.6741 0.56103 -0.0013 0.0
H1805 H 0.71155 0.57357 0.92277 0.0
H1806 H 0.64916 0.52387 0.98027 0.0
H1807 H 0.68726 0.53607 0.90454 0.0
H1808 H 0.64565 0.43764 0.94784 0.0
H1809 H 0.66044 0.47952 0.96653 0.0
H1810 H 0.64465 0.51846 0.89191 0.0
H1811 H 0.63052 0.47636 0.87292 0.0
C1812 C 0.67682 0.55597 0.97801 0.0
C1813 C 0.69489 0.57002 0.96219 0.0
C1814 C 0.66264 0.53462 0.9675 0.0
C1815 C 0.66634 0.52689 0.94099 0.0
C1816 C 0.68366 0.54169 0.92494 0.0
C1817 C 0.69774 0.56308 0.93542 0.0
C1818 C 0.64497 0.45518 0.9355 0.0
C1819 C 0.63733 0.45357 0.90876 0.0
C1820 C 0.6533 0.47927 0.94628 0.0
C1821 C 0.65399 0.50229 0.93061 0.0
C1822 C 0.64485 0.50097 0.90433 0.0
C1823 C 0.63664 0.47686 0.8935 0.0
H1824 H 0.6765 0.41854 0.23376 0.0
H1825 H 0.67924 0.47911 0.17333 0.0
H1826 H 0.71415 0.39623 0.21309 0.0
H1827 H 0.71691 0.45691 0.15281 0.0
H1828 H 0.80476 0.3952 0.19155 0.0
H1829 H 0.76194 0.40882 0.20922 0.0
H1830 H 0.731 0.41557 0.12967 0.0
H1831 H 0.77382 0.40217 0.11187 0.0
C1832 C 0.68492 0.42687 0.21586 0.0
C1833 C 0.67512 0.45065 0.20522 0.0
C1834 C 0.7065 0.41417 0.20413 0.0
C1835 C 0.7185 0.42492 0.18146 0.0
C1836 C 0.70789 0.44804 0.17014 0.0
C1837 C 0.68643 0.46083 0.18196 0.0
C1838 C 0.78874 0.39926 0.17782 0.0
C1839 C 0.79282 0.39796 0.1503 0.0
C1840 C 0.76417 0.40688 0.18795 0.0
C1841 C 0.74324 0.41342 0.17078 0.0
C1842 C 0.74692 0.41094 0.14332 0.0
C1843 C 0.77143 0.40318 0.13318 0.0
H1844 H 0.81424 0.436 0.50287 0.0
H1845 H 0.77621 0.42321 0.42718 0.0
H1846 H 0.84 0.47227 0.48386 0.0
H1847 H 0.80139 0.45977 0.40836 0.0
H1848 H 0.85974 0.51722 0.3757 0.0
H1849 H 0.84463 0.47587 0.3955 0.0
H1850 H 0.8297 0.51674 0.46926 0.0
H1851 H 0.8454 0.55788 0.44976 0.0
C1852 C 0.81157 0.4408 0.48212 0.0
C1853 C 0.7931 0.42694 0.46653 0.0
C1854 C 0.82622 0.46163 0.47128 0.0
C1855 C 0.82265 0.46901 0.44465 0.0
C1856 C 0.8049 0.4544 0.42884 0.0
C1857 C 0.79031 0.43356 0.43967 0.0
C1858 C 0.85362 0.51731 0.39627 0.0
C1859 C 0.85342 0.54094 0.41103 0.0
C1860 C 0.84485 0.49363 0.40756 0.0
C1861 C 0.83564 0.49308 0.43383 0.0
C1862 C 0.83685 0.51641 0.44904 0.0
C1863 C 0.84572 0.54007 0.43778 0.0
H1864 H 0.80527 0.42008 0.74799 0.0
H1865 H 0.81883 0.46285 0.82094 0.0
H1866 H 0.76755 0.3975 0.76818 0.0
H1867 H 0.78081 0.44092 0.84088 0.0
H1868 H 0.71868 0.38876 0.87597 0.0
H1869 H 0.76144 0.40006 0.85655 0.0
H1870 H 0.72363 0.4118 0.78056 0.0
H1871 H 0.68112 0.39988 0.79972 0.0
C1872 C 0.80035 0.42442 0.76843 0.0
C1873 C 0.81478 0.44338 0.78284 0.0
C1874 C 0.77869 0.41161 0.77994 0.0
C1875 C 0.77103 0.41759 0.80605 0.0
C1876 C 0.78633 0.43561 0.82083 0.0
C1877 C 0.80803 0.44834 0.80936 0.0
C1878 C 0.71956 0.39342 0.85504 0.0
C1879 C 0.69643 0.39378 0.83948 0.0
C1880 C 0.74404 0.39998 0.84395 0.0
C1881 C 0.7459 0.40706 0.81708 0.0
C1882 C 0.72297 0.40617 0.80126 0.0
C1883 C 0.69852 0.39953 0.81231 0.0
H1884 H 0.77944 0.57483 0.07039 0.0
H1885 H 0.821 0.56538 -0.00383 0.0
H1886 H 0.80446 0.53818 0.08914 0.0
H1887 H 0.8467 0.52908 0.01518 0.0
H1888 H 0.85047 0.4421 0.04571 0.0
H1889 H 0.83622 0.48415 0.02721 0.0
H1890 H 0.84673 0.52149 0.10362 0.0
H1891 H 0.86029 0.47913 0.1224 0.0
C1892 C 0.79432 0.56524 0.05826 0.0
C1893 C 0.79807 0.57272 0.03175 0.0
C1894 C 0.80884 0.54435 0.06906 0.0
C1895 C 0.82751 0.5306 0.05361 0.0
C1896 C 0.83218 0.53901 0.02747 0.0
C1897 C 0.81755 0.55985 0.01662 0.0
C1898 C 0.85015 0.45934 0.05851 0.0
C1899 C 0.85604 0.45715 0.08565 0.0
C1900 C 0.84214 0.48354 0.04784 0.0
C1901 C 0.84004 0.50613 0.06402 0.0
C1902 C 0.84763 0.50432 0.09077 0.0
C1903 C 0.85551 0.48007 0.10149 0.0
H1904 H 0.66463 0.57602 0.27976 0.0
H1905 H 0.70081 0.50079 0.29889 0.0
H1906 H 0.70336 0.59916 0.2983 0.0
H1907 H 0.73948 0.52394 0.31667 0.0
H1908 H 0.81387 0.57916 0.30325 0.0
H1909 H 0.7722 0.56229 0.28533 0.0
H1910 H 0.73017 0.59319 0.35298 0.0
H1911 H 0.77202 0.60978 0.37149 0.0
C1912 C 0.68073 0.5645 0.28806 0.0
C1913 C 0.67981 0.53666 0.28791 0.0
C1914 C 0.70272 0.5777 0.29862 0.0
C1915 C 0.72415 0.56316 0.30864 0.0
C1916 C 0.72306 0.53542 0.30891 0.0
C1917 C 0.70095 0.52226 0.29885 0.0
C1918 C 0.79575 0.58281 0.31415 0.0
C1919 C 0.79624 0.59558 0.33892 0.0
C1920 C 0.77199 0.57312 0.30389 0.0
C1921 C 0.7483 0.5765 0.31793 0.0
C1922 C 0.74836 0.59053 0.3419 0.0
C1923 C 0.77224 0.59988 0.35244 0.0
H1924 H 0.66832 0.43592 0.49987 0.0
H1925 H 0.70725 0.42373 0.57517 0.0
H1926 H 0.64384 0.4732 0.51856 0.0
H1927 H 0.68349 0.46135 0.59363 0.0
H1928 H 0.63006 0.52315 0.62574 0.0
H1929 H 0.64185 0.48024 0.60702 0.0
H1930 H 0.65643 0.51739 0.53126 0.0
H1931 H 0.64393 0.56004 0.54968 0.0
C1932 C 0.67142 0.44106 0.52049 0.0
C1933 C 0.68986 0.42715 0.53602 0.0
C1934 C 0.65751 0.46246 0.53115 0.0
C1935 C 0.66188 0.4704 0.5575 0.0
C1936 C 0.67938 0.45559 0.57336 0.0
C1937 C 0.69317 0.43414 0.56273 0.0
C1938 C 0.63538 0.52208 0.60498 0.0
C1939 C 0.63648 0.54507 0.58931 0.0
C1940 C 0.64222 0.4975 0.59429 0.0
C1941 C 0.65041 0.49544 0.56776 0.0
C1942 C 0.64999 0.5182 0.55171 0.0
C1943 C 0.643 0.54274 0.56234 0.0
H1944 H 0.67613 0.81873 0.52547 0.0
H1945 H 0.74962 0.80858 0.5683 0.0
H1946 H 0.65654 0.78236 0.55028 0.0
H1947 H 0.72979 0.77243 0.59365 0.0
H1948 H 0.69674 0.68611 0.59814 0.0
H1949 H 0.71654 0.72734 0.58305 0.0
H1950 H 0.6415 0.76726 0.59334 0.0
H1951 H 0.62144 0.72582 0.60787 0.0
C1952 C 0.68795 0.80898 0.54051 0.0
C1953 C 0.71445 0.81629 0.5448 0.0
C1954 C 0.67667 0.78827 0.55489 0.0
C1955 C 0.69164 0.77447 0.57391 0.0
C1956 C 0.71787 0.78249 0.57891 0.0
C1957 C 0.72918 0.80323 0.56448 0.0
C1958 C 0.68452 0.70374 0.59756 0.0
C1959 C 0.65738 0.70256 0.60376 0.0
C1960 C 0.69594 0.72745 0.58907 0.0
C1961 C 0.6805 0.7505 0.58672 0.0
C1962 C 0.65377 0.74969 0.59448 0.0
C1963 C 0.64232 0.72597 0.6029 0.0
H1964 H 0.17033 0.68153 0.46758 0.0
H1965 H 0.2433 0.69138 0.4239 0.0
H1966 H 0.15127 0.71922 0.44436 0.0
H1967 H 0.22401 0.72894 0.40021 0.0
H1968 H 0.11647 0.77728 0.38785 0.0
H1969 H 0.13604 0.73537 0.40153 0.0
H1970 H 0.21163 0.7742 0.41246 0.0
H1971 H 0.19225 0.81602 0.39828 0.0
C1972 C 0.18215 0.69151 0.4527 0.0
C1973 C 0.20834 0.68366 0.44767 0.0
C1974 C 0.17117 0.713 0.43925 0.0
C1975 C 0.18616 0.72708 0.42046 0.0
C1976 C 0.21209 0.71865 0.41479 0.0
C1977 C 0.22307 0.69709 0.42825 0.0
C1978 C 0.13736 0.77683 0.39282 0.0
C1979 C 0.15271 0.80009 0.39236 0.0
C1980 C 0.14853 0.75282 0.40075 0.0
C1981 C 0.17528 0.75155 0.4084 0.0
C1982 C 0.191 0.77448 0.40652 0.0
C1983 C 0.17984 0.79851 0.39853 0.0
H1984 H 0.54062 0.95225 0.74591 0.0
H1985 H 0.58211 0.95851 0.67127 0.0
H1986 H 0.50184 0.9347 0.72288 0.0
H1987 H 0.54318 0.94016 0.64828 0.0
H1988 H 0.47131 0.87309 0.6382 0.0
H1989 H 0.51321 0.89119 0.65508 0.0
H1990 H 0.47204 0.96063 0.68304 0.0
H1991 H 0.43037 0.94311 0.66587 0.0
C1992 C 0.54158 0.94951 0.72463 0.0
C1993 C 0.5643 0.95677 0.71032 0.0
C1994 C 0.51939 0.93962 0.71151 0.0
C1995 C 0.51969 0.93634 0.68392 0.0
C1996 C 0.54267 0.94261 0.6696 0.0
C1997 C 0.56479 0.95306 0.68271 0.0
C1998 C 0.47131 0.89243 0.64752 0.0
C1999 C 0.44753 0.90657 0.65091 0.0
C2000 C 0.49523 0.90274 0.65704 0.0
C2001 C 0.49555 0.9271 0.67041 0.0
C2002 C 0.47208 0.94173 0.67283 0.0
C2003 C 0.44831 0.9317 0.66294 0.0
H2004 H 0.24923 0.31301 0.92632 0.0
H2005 H 0.31642 0.31494 0.97947 0.0
H2006 H 0.26903 0.27566 0.90264 0.0
H2007 H 0.33598 0.27755 0.95607 0.0
H2008 H 0.29787 0.18725 0.89692 0.0
H2009 H 0.27824 0.22826 0.91332 0.0
H2010 H 0.35531 0.26558 0.91266 0.0
H2011 H 0.37505 0.22466 0.89657 0.0
C2012 C 0.26829 0.30557 0.93281 0.0
C2013 C 0.2813 0.31681 0.95475 0.0
C2014 C 0.27954 0.28415 0.91934 0.0
C2015 C 0.30403 0.27374 0.92751 0.0
C2016 C 0.31727 0.28541 0.94908 0.0
C2017 C 0.306 0.30672 0.96258 0.0
C2018 C 0.31058 0.20429 0.89995 0.0
C2019 C 0.33808 0.20255 0.89581 0.0
C2020 C 0.29931 0.22782 0.90921 0.0
C2021 C 0.31533 0.24999 0.91454 0.0
C2022 C 0.34258 0.24864 0.90913 0.0
C2023 C 0.35383 0.22521 0.8998 0.0
H2024 H 0.42222 0.57559 0.71855 0.0
H2025 H 0.43038 0.50474 0.67118 0.0
H2026 H 0.45968 0.5954 0.69554 0.0
H2027 H 0.46742 0.52486 0.6475 0.0
H2028 H 0.55488 0.55282 0.64611 0.0
H2029 H 0.51241 0.53473 0.65955 0.0
H2030 H 0.47745 0.61274 0.65472 0.0
H2031 H 0.5203 0.63109 0.64195 0.0
C2032 C 0.43171 0.56447 0.70283 0.0
C2033 C 0.42364 0.53853 0.69686 0.0
C2034 C 0.45306 0.57589 0.68949 0.0
C2035 C 0.46667 0.56163 0.6698 0.0
C2036 C 0.45764 0.53618 0.66289 0.0
C2037 C 0.43637 0.5247 0.67635 0.0
C2038 C 0.5381 0.56612 0.6476 0.0
C2039 C 0.5411 0.59348 0.64337 0.0
C2040 C 0.51365 0.55568 0.65511 0.0
C2041 C 0.49156 0.57232 0.65838 0.0
C2042 C 0.49421 0.59948 0.65279 0.0
C2043 C 0.51873 0.60996 0.64537 0.0
H2044 H 0.81862 0.17801 0.02984 0.0
H2045 H 0.74546 0.19181 0.07207 0.0
H2046 H 0.83877 0.21567 0.05229 0.0
H2047 H 0.76585 0.22916 0.09515 0.0
H2048 H 0.79857 0.31519 0.09424 0.0
H2049 H 0.77895 0.2731 0.08154 0.0
H2050 H 0.85431 0.23424 0.09366 0.0
H2051 H 0.87421 0.27658 0.10574 0.0
C2052 C 0.80702 0.18881 0.04431 0.0
C2053 C 0.78041 0.18221 0.04901 0.0
C2054 C 0.81862 0.21028 0.05733 0.0
C2055 C 0.80385 0.22551 0.07539 0.0
C2056 C 0.7776 0.21806 0.08103 0.0
C2057 C 0.76597 0.19662 0.06792 0.0
C2058 C 0.81093 0.29765 0.09451 0.0
C2059 C 0.83807 0.29933 0.10059 0.0
C2060 C 0.7996 0.27344 0.08742 0.0
C2061 C 0.81513 0.25035 0.08639 0.0
C2062 C 0.84194 0.25178 0.09382 0.0
C2063 C 0.85331 0.27602 0.10083 0.0
H2064 H 0.56494 0.07278 0.76578 0.0
H2065 H 0.57358 0.01673 0.82989 0.0
H2066 H 0.52753 0.09314 0.78864 0.0
H2067 H 0.53598 0.03708 0.85271 0.0
H2068 H 0.44368 0.055 0.85477 0.0
H2069 H 0.48671 0.03806 0.8405 0.0
H2070 H 0.51517 0.11813 0.83057 0.0
H2071 H 0.47232 0.13518 0.84482 0.0
C2072 C 0.55911 0.06512 0.78496 0.0
C2073 C 0.57202 0.04311 0.796 0.0
C2074 C 0.53779 0.07683 0.79809 0.0
C2075 C 0.52883 0.06655 0.82236 0.0
C2076 C 0.54241 0.04521 0.83392 0.0
C2077 C 0.56397 0.0337 0.82094 0.0
C2078 C 0.45922 0.06899 0.84988 0.0
C2079 C 0.45448 0.09641 0.85063 0.0
C2080 C 0.48389 0.05929 0.8419 0.0
C2081 C 0.50415 0.07683 0.83431 0.0
C2082 C 0.49978 0.10422 0.8361 0.0
C2083 C 0.47525 0.11392 0.84434 0.0
H2084 H 0.91778 0.92396 0.28045 0.0
H2085 H 0.92152 0.9937 0.33002 0.0
H2086 H 0.95495 0.90488 0.30454 0.0
H2087 H 0.95861 0.9744 0.35444 0.0
H2088 H 0.01595 0.87074 0.35811 0.0
H2089 H 0.9723 0.88782 0.34659 0.0
H2090 H 0.00485 0.96679 0.34072 0.0
H2091 H 0.04844 0.94987 0.35263 0.0
C2092 C 0.92613 0.93491 0.29694 0.0
C2093 C 0.91699 0.96042 0.30316 0.0
C2094 C 0.94735 0.92393 0.31085 0.0
C2095 C 0.95987 0.93828 0.33121 0.0
C2096 C 0.94957 0.96307 0.33858 0.0
C2097 C 0.92825 0.97402 0.32472 0.0
C2098 C 0.01376 0.89182 0.35473 0.0
C2099 C 0.03579 0.90889 0.35584 0.0
C2100 C 0.98874 0.90156 0.3481 0.0
C2101 C 0.98519 0.92858 0.34252 0.0
C2102 C 0.00689 0.94589 0.34514 0.0
C2103 C 0.03194 0.93615 0.35176 0.0
H2104 H 0.46495 0.32399 0.17861 0.0
H2105 H 0.42082 0.25112 0.18736 0.0
H2106 H 0.44135 0.34288 0.21613 0.0
H2107 H 0.39668 0.27027 0.22469 0.0
H2108 H 0.39511 0.30037 0.31222 0.0
H2109 H 0.40879 0.28171 0.26995 0.0
H2110 H 0.39902 0.35825 0.23287 0.0
H2111 H 0.38591 0.37713 0.27532 0.0
C2112 C 0.44985 0.31218 0.18829 0.0
C2113 C 0.44488 0.28602 0.18026 0.0
C2114 C 0.43617 0.32307 0.20967 0.0
C2115 C 0.41719 0.30803 0.22345 0.0
C2116 C 0.41143 0.28222 0.21467 0.0
C2117 C 0.42515 0.27131 0.19325 0.0
C2118 C 0.39552 0.31317 0.295 0.0
C2119 C 0.38988 0.34034 0.29724 0.0
C2120 C 0.40319 0.30241 0.2707 0.0
C2121 C 0.40526 0.31858 0.24812 0.0
C2122 C 0.39809 0.34541 0.25004 0.0
C2123 C 0.39049 0.35619 0.27435 0.0
H2124 H 0.50267 0.70664 0.957 0.0
H2125 H 0.43547 0.68866 0.90705 0.0
H2126 H 0.4824 0.68245 0.99324 0.0
H2127 H 0.41555 0.66317 0.943 0.0
H2128 H 0.37289 0.65882 0.0239 0.0
H2129 H 0.39432 0.67286 0.98324 0.0
H2130 H 0.46903 0.64213 0.012 0.0
H2131 H 0.44767 0.62927 0.05336 0.0
C2132 C 0.48379 0.69696 0.95361 0.0
C2133 C 0.47049 0.69975 0.92935 0.0
C2134 C 0.47221 0.68286 0.97435 0.0
C2135 C 0.44721 0.6709 0.97117 0.0
C2136 C 0.43457 0.67256 0.94634 0.0
C2137 C 0.44602 0.68701 0.92569 0.0
C2138 C 0.39381 0.6547 0.02139 0.0
C2139 C 0.40869 0.64331 0.04197 0.0
C2140 C 0.40612 0.6626 -0.00206 0.0
C2141 C 0.43353 0.65892 0.99437 0.0
C2142 C 0.44803 0.64589 0.01432 0.0
C2143 C 0.43578 0.63837 0.03796 0.0
H2144 H 0.06902 0.74868 0.68481 0.0
H2145 H 0.02256 0.67715 0.67693 0.0
H2146 H 0.09396 0.72851 0.7211 0.0
H2147 H 0.04701 0.65725 0.71339 0.0
H2148 H 0.09677 0.69744 0.80844 0.0
H2149 H 0.08273 0.71695 0.76669 0.0
H2150 H 0.08975 0.64065 0.72844 0.0
H2151 H 0.10327 0.62092 0.77038 0.0
C2152 C 0.06434 0.72857 0.69066 0.0
C2153 C 0.04373 0.71453 0.67824 0.0
C2154 C 0.07853 0.71708 0.71147 0.0
C2155 C 0.07239 0.69134 0.72017 0.0
C2156 C 0.05249 0.67697 0.70694 0.0
C2157 C 0.03832 0.68845 0.68618 0.0
C2158 C 0.09572 0.68487 0.79106 0.0
C2159 C 0.10066 0.65752 0.79286 0.0
C2160 C 0.08784 0.69611 0.76706 0.0
C2161 C 0.08485 0.68026 0.74434 0.0
C2162 C 0.09143 0.65326 0.74575 0.0
C2163 C 0.09926 0.64199 0.76976 0.0
H2164 H 0.00015 0.32397 0.42818 0.0
H2165 H 0.06691 0.27043 0.42654 0.0
H2166 H 0.02106 0.34889 0.46405 0.0
H2167 H 0.08752 0.29489 0.46271 0.0
H2168 H 0.12659 0.35146 0.51842 0.0
H2169 H 0.10774 0.33648 0.47648 0.0
H2170 H 0.02926 0.33974 0.51054 0.0
H2171 H 0.04791 0.35524 0.55215 0.0
C2172 C 0.01938 0.31767 0.43536 0.0
C2173 C 0.03182 0.29515 0.42476 0.0
C2174 C 0.0313 0.33187 0.45593 0.0
C2175 C 0.05588 0.32379 0.46631 0.0
C2176 C 0.06875 0.30186 0.45495 0.0
C2177 C 0.05685 0.2877 0.43437 0.0
C2178 C 0.10528 0.3494 0.51682 0.0
C2179 C 0.08879 0.35418 0.53876 0.0
C2180 C 0.09451 0.34069 0.49283 0.0
C2181 C 0.06705 0.33664 0.49028 0.0
C2182 C 0.05047 0.34286 0.51176 0.0
C2183 C 0.06121 0.35157 0.53571 0.0
H2184 H 0.42467 0.75165 0.30877 0.0
H2185 H 0.46741 0.67841 0.32039 0.0
H2186 H 0.4016 0.73215 0.27088 0.0
H2187 H 0.44488 0.65916 0.28232 0.0
H2188 H 0.38977 0.62449 0.2224 0.0
H2189 H 0.40284 0.64395 0.26464 0.0
H2190 H 0.41455 0.71954 0.22621 0.0
H2191 H 0.40093 0.70032 0.18414 0.0
C2192 C 0.42894 0.73132 0.30338 0.0
C2193 C 0.44794 0.71658 0.3174 0.0
C2194 C 0.41584 0.72021 0.28162 0.0
C2195 C 0.42149 0.69416 0.27352 0.0
C2196 C 0.43979 0.67915 0.28823 0.0
C2197 C 0.45285 0.69024 0.30995 0.0
C2198 C 0.3948 0.64535 0.22302 0.0
C2199 C 0.39466 0.66075 0.19981 0.0
C2200 C 0.40239 0.65646 0.24721 0.0
C2201 C 0.41001 0.68321 0.24873 0.0
C2202 C 0.40858 0.69893 0.22579 0.0
C2203 C 0.40094 0.68784 0.2016 0.0
H2204 H 0.06891 0.70675 0.07304 0.0
H2205 H 0.99108 0.67444 0.05761 0.0
H2206 H 0.08641 0.68288 0.03512 0.0
H2207 H 0.00879 0.64979 0.01989 0.0
H2208 H 0.04301 0.6495 0.93397 0.0
H2209 H 0.02398 0.66213 0.97636 0.0
H2210 H 0.09711 0.64091 0.01567 0.0
H2211 H 0.11647 0.62904 0.97308 0.0
C2212 C 0.05565 0.6941 0.06182 0.0
C2213 C 0.02859 0.69267 0.06808 0.0
C2214 C 0.06572 0.68022 0.04018 0.0
C2215 C 0.04897 0.66448 0.02439 0.0
C2216 C 0.02212 0.66204 0.03145 0.0
C2217 C 0.01201 0.67604 0.0531 0.0
C2218 C 0.05492 0.64715 0.95169 0.0
C2219 C 0.08143 0.63877 0.9501 0.0
C2220 C 0.04392 0.65422 0.97606 0.0
C2221 C 0.05914 0.65284 -0.00062 0.0
C2222 C 0.08506 0.64274 -0.00202 0.0
C2223 C 0.09612 0.63587 0.97359 0.0
H2224 H 0.02496 0.32353 0.81604 0.0
H2225 H 0.07253 0.25278 0.80836 0.0
H2226 H 0.04764 0.34295 0.7782 0.0
H2227 H 0.09568 0.27246 0.7707 0.0
H2228 H 0.09599 0.30118 0.68281 0.0
H2229 H 0.08265 0.28263 0.72522 0.0
H2230 H 0.08958 0.35995 0.76141 0.0
H2231 H 0.1024 0.37871 0.71883 0.0
C2232 C 0.04059 0.31232 0.80652 0.0
C2233 C 0.04683 0.28657 0.81495 0.0
C2234 C 0.05373 0.32351 0.78496 0.0
C2235 C 0.07339 0.30918 0.77141 0.0
C2236 C 0.08038 0.28383 0.78055 0.0
C2237 C 0.06722 0.27263 0.80216 0.0
C2238 C 0.09499 0.3142 0.69986 0.0
C2239 C 0.09982 0.34151 0.69734 0.0
C2240 C 0.08753 0.30351 0.72423 0.0
C2241 C 0.08485 0.31989 0.74661 0.0
C2242 C 0.09106 0.34694 0.7444 0.0
C2243 C 0.09847 0.35764 0.72002 0.0
H2244 H 0.42647 0.27568 0.5695 0.0
H2245 H 0.49757 0.32284 0.56199 0.0
H2246 H 0.40581 0.30094 0.53406 0.0
H2247 H 0.47661 0.3487 0.52685 0.0
H2248 H 0.44546 0.3532 0.43998 0.0
H2249 H 0.46507 0.33875 0.48144 0.0
H2250 H 0.38842 0.34312 0.51936 0.0
H2251 H 0.36853 0.35695 0.47753 0.0
C2252 C 0.43751 0.29178 0.56057 0.0
C2253 C 0.46373 0.29709 0.56823 0.0
C2254 C 0.42558 0.30644 0.54041 0.0
C2255 C 0.43962 0.32677 0.52755 0.0
C2256 C 0.46543 0.33291 0.53614 0.0
C2257 C 0.47739 0.31818 0.55629 0.0
C2258 C 0.43279 0.35145 0.45721 0.0
C2259 C 0.40533 0.35573 0.4553 0.0
C2260 C 0.44411 0.34336 0.48109 0.0
C2261 C 0.42825 0.33952 0.50364 0.0
C2262 C 0.40106 0.34545 0.50218 0.0
C2263 C 0.3897 0.35347 0.47824 0.0
H2264 H 0.17913 0.4749 0.32022 0.0
H2265 H 0.18432 0.42513 0.25072 0.0
H2266 H 0.21492 0.45007 0.34082 0.0
H2267 H 0.21989 0.39979 0.27162 0.0
H2268 H 0.30734 0.39497 0.30174 0.0
H2269 H 0.2659 0.40969 0.28216 0.0
H2270 H 0.22865 0.40772 0.35922 0.0
H2271 H 0.27038 0.39355 0.37903 0.0
C2272 C 0.18766 0.45837 0.30952 0.0
C2273 C 0.17917 0.4521 0.28378 0.0
C2274 C 0.20802 0.44398 0.32142 0.0
C2275 C 0.22026 0.42298 0.30782 0.0
C2276 C 0.21103 0.41606 0.28245 0.0
C2277 C 0.19064 0.4305 0.27053 0.0
C2278 C 0.29025 0.3973 0.3145 0.0
C2279 C 0.2923 0.39358 0.34203 0.0
C2280 C 0.2664 0.40555 0.30322 0.0
C2281 C 0.24409 0.41015 0.3192 0.0
C2282 C 0.24567 0.40479 0.34648 0.0
C2283 C 0.26955 0.39658 0.3578 0.0
H2284 H 0.31952 0.43563 0.00191 0.0
H2285 H 0.27076 0.43272 0.0722 0.0
H2286 H 0.34456 0.47255 0.02086 0.0
H2287 H 0.29537 0.46978 0.09088 0.0
H2288 H 0.35356 0.52596 0.12635 0.0
H2289 H 0.33833 0.48394 0.10806 0.0
H2290 H 0.33455 0.51912 0.03012 0.0
H2291 H 0.35026 0.56099 0.04821 0.0
C2292 C 0.31431 0.44274 0.02148 0.0
C2293 C 0.2931 0.43145 0.03553 0.0
C2294 C 0.32857 0.46391 0.03227 0.0
C2295 C 0.3219 0.47411 0.05732 0.0
C2296 C 0.30126 0.46216 0.0717 0.0
C2297 C 0.28701 0.44105 0.06091 0.0
C2298 C 0.34986 0.52465 0.10524 0.0
C2299 C 0.35273 0.54696 0.08881 0.0
C2300 C 0.34103 0.5006 0.0948 0.0
C2301 C 0.33493 0.49832 0.06773 0.0
C2302 C 0.33925 0.52018 0.05104 0.0
C2303 C 0.34809 0.54425 0.06146 0.0
H2304 H 0.28632 0.54766 0.74382 0.0
H2305 H 0.33198 0.55552 0.8158 0.0
H2306 H 0.24933 0.57029 0.76462 0.0
H2307 H 0.29556 0.57973 0.83632 0.0
H2308 H 0.21322 0.58411 0.87487 0.0
H2309 H 0.25424 0.5702 0.85409 0.0
H2310 H 0.23034 0.60873 0.78129 0.0
H2311 H 0.18847 0.62123 0.80186 0.0
C2312 C 0.28862 0.55483 0.76394 0.0
C2313 C 0.31183 0.54964 0.77833 0.0
C2314 C 0.26747 0.56804 0.77586 0.0
C2315 C 0.26928 0.5768 0.8023 0.0
C2316 C 0.29316 0.57275 0.81617 0.0
C2317 C 0.31412 0.55904 0.80439 0.0
C2318 C 0.21691 0.58992 0.85454 0.0
C2319 C 0.19757 0.60347 0.83987 0.0
C2320 C 0.24057 0.58208 0.8426 0.0
C2321 C 0.24564 0.58809 0.81584 0.0
C2322 C 0.22687 0.60313 0.8017 0.0
C2323 C 0.20295 0.61048 0.81351 0.0
H2324 H 0.21309 0.57346 0.56888 0.0
H2325 H 0.1721 0.56213 0.49451 0.0
H2326 H 0.18981 0.53562 0.5875 0.0
H2327 H 0.14823 0.52447 0.51338 0.0
H2328 H 0.13467 0.47538 0.62058 0.0
H2329 H 0.14748 0.51784 0.60156 0.0
H2330 H 0.16112 0.47982 0.52604 0.0
H2331 H 0.14773 0.43753 0.5448 0.0
C2332 C 0.19873 0.56315 0.55666 0.0
C2333 C 0.19458 0.57055 0.53018 0.0
C2334 C 0.18523 0.54157 0.5674 0.0
C2335 C 0.16724 0.52698 0.55188 0.0
C2336 C 0.16223 0.53512 0.52571 0.0
C2337 C 0.17579 0.55673 0.51495 0.0
C2338 C 0.14006 0.47613 0.59982 0.0
C2339 C 0.14057 0.45299 0.58431 0.0
C2340 C 0.14748 0.50046 0.58896 0.0
C2341 C 0.1556 0.50214 0.56239 0.0
C2342 C 0.15475 0.47925 0.54652 0.0
C2343 C 0.14725 0.45494 0.55735 0.0
H2344 H 0.17979 0.5287 0.17238 0.0
H2345 H 0.18468 0.57617 0.24351 0.0
H2346 H 0.21651 0.55348 0.15332 0.0
H2347 H 0.22124 0.60138 0.2242 0.0
H2348 H 0.30946 0.60551 0.19552 0.0
H2349 H 0.26745 0.59082 0.21405 0.0
H2350 H 0.2311 0.59647 0.1367 0.0
H2351 H 0.27326 0.61068 0.11797 0.0
C2352 C 0.18846 0.54473 0.18377 0.0
C2353 C 0.17957 0.55036 0.2095 0.0
C2354 C 0.20936 0.55908 0.17277 0.0
C2355 C 0.22181 0.57937 0.18729 0.0
C2356 C 0.21222 0.58567 0.21267 0.0
C2357 C 0.19126 0.57131 0.22366 0.0
C2358 C 0.29243 0.60403 0.18251 0.0
C2359 C 0.29485 0.60879 0.15517 0.0
C2360 C 0.26828 0.59577 0.19318 0.0
C2361 C 0.24605 0.59218 0.17676 0.0
C2362 C 0.24803 0.59859 0.14974 0.0
C2363 C 0.27218 0.60683 0.13906 0.0
H2364 H 0.22007 0.4304 0.9256 0.0
H2365 H 0.16715 0.4321 0.99286 0.0
H2366 H 0.19522 0.46627 0.9051 0.0
H2367 H 0.14184 0.4677 0.97204 0.0
H2368 H 0.13599 0.55593 0.94499 0.0
H2369 H 0.15114 0.51425 0.96367 0.0
H2370 H 0.15326 0.47971 0.88532 0.0
H2371 H 0.13863 0.52168 0.86644 0.0
C2372 C 0.20284 0.43816 0.93579 0.0
C2373 C 0.19569 0.42869 0.96093 0.0
C2374 C 0.18846 0.45857 0.92395 0.0
C2375 C 0.1666 0.46987 0.937 0.0
C2376 C 0.1588 0.4596 0.96167 0.0
C2377 C 0.17322 0.43919 0.97354 0.0
C2378 C 0.13931 0.53937 0.93174 0.0
C2379 C 0.13656 0.54228 0.90417 0.0
C2380 C 0.14782 0.51538 0.94249 0.0
C2381 C 0.15367 0.49378 0.92592 0.0
C2382 C 0.14934 0.49618 0.89852 0.0
C2383 C 0.14085 0.52019 0.88774 0.0
H2384 H 0.31974 0.4644 0.67172 0.0
H2385 H 0.30451 0.42803 0.74768 0.0
H2386 H 0.28258 0.44041 0.65264 0.0
H2387 H 0.26763 0.40325 0.72835 0.0
H2388 H 0.22207 0.38592 0.61952 0.0
H2389 H 0.26416 0.39861 0.6396 0.0
H2390 H 0.22396 0.41498 0.71343 0.0
H2391 H 0.18214 0.40154 0.69368 0.0
C2392 C 0.30875 0.45084 0.68422 0.0
C2393 C 0.31482 0.44829 0.71124 0.0
C2394 C 0.28754 0.4369 0.67322 0.0
C2395 C 0.27202 0.41998 0.689 0.0
C2396 C 0.27895 0.41644 0.71577 0.0
C2397 C 0.30013 0.43051 0.72681 0.0
C2398 C 0.22229 0.39186 0.64015 0.0
C2399 C 0.19869 0.39311 0.65487 0.0
C2400 C 0.2464 0.39923 0.65163 0.0
C2401 C 0.24739 0.40814 0.67802 0.0
C2402 C 0.22399 0.40799 0.69313 0.0
C2403 C 0.19993 0.40046 0.68172 0.0
H2404 H 0.27387 0.57127 0.42269 0.0
H2405 H 0.31806 0.56509 0.49582 0.0
H2406 H 0.2983 0.5338 0.40471 0.0
H2407 H 0.34297 0.52784 0.4776 0.0
H2408 H 0.35561 0.47536 0.372 0.0
H2409 H 0.34131 0.51783 0.38992 0.0
H2410 H 0.33175 0.48205 0.4671 0.0
H2411 H 0.34656 0.43974 0.4494 0.0
C2412 C 0.28913 0.56218 0.43474 0.0
C2413 C 0.29391 0.57091 0.46072 0.0
C2414 C 0.30328 0.54082 0.42438 0.0
C2415 C 0.32252 0.5278 0.43978 0.0
C2416 C 0.32804 0.53727 0.46539 0.0
C2417 C 0.31386 0.55864 0.47577 0.0
C2418 C 0.35084 0.47663 0.39289 0.0
C2419 C 0.35182 0.45406 0.40918 0.0
C2420 C 0.34255 0.50094 0.40311 0.0
C2421 C 0.33508 0.5032 0.42982 0.0
C2422 C 0.33755 0.48101 0.44646 0.0
C2423 C 0.34589 0.4567 0.43626 0.0
H2424 H 0.32203 0.17345 0.46476 0.0
H2425 H 0.24606 0.18754 0.4278 0.0
H2426 H 0.34053 0.21127 0.44145 0.0
H2427 H 0.26481 0.22507 0.4037 0.0
H2428 H 0.37264 0.27327 0.38805 0.0
H2429 H 0.3535 0.2306 0.4001 0.0
H2430 H 0.2786 0.26884 0.41632 0.0
H2431 H 0.29741 0.31123 0.4035 0.0
C2432 C 0.30942 0.18432 0.4512 0.0
C2433 C 0.28254 0.17776 0.4483 0.0
C2434 C 0.32008 0.20592 0.43766 0.0
C2435 C 0.30411 0.22132 0.4208 0.0
C2436 C 0.27752 0.21387 0.41687 0.0
C2437 C 0.26682 0.19231 0.43055 0.0
C2438 C 0.35198 0.27249 0.39384 0.0
C2439 C 0.33666 0.2957 0.3952 0.0
C2440 C 0.34105 0.24806 0.40083 0.0
C2441 C 0.31462 0.24634 0.40947 0.0
C2442 C 0.29894 0.26936 0.4095 0.0
C2443 C 0.30981 0.29375 0.40234 0.0
H2444 H 0.7399 0.29014 0.54865 0.0
H2445 H 0.81076 0.3371 0.55867 0.0
H2446 H 0.76094 0.25331 0.57134 0.0
H2447 H 0.83148 0.30082 0.58292 0.0
H2448 H 0.87176 0.21938 0.58656 0.0
H2449 H 0.85027 0.26008 0.57291 0.0
H2450 H 0.77737 0.23396 0.60979 0.0
H2451 H 0.79871 0.1924 0.62208 0.0
C2452 C 0.7598 0.29276 0.55632 0.0
C2453 C 0.77385 0.31629 0.55168 0.0
C2454 C 0.77186 0.2717 0.56955 0.0
C2455 C 0.79808 0.2739 0.57889 0.0
C2456 C 0.81153 0.29812 0.57547 0.0
C2457 C 0.79963 0.319 0.56175 0.0
C2458 C 0.85124 0.22249 0.59206 0.0
C2459 C 0.83681 0.20261 0.60511 0.0
C2460 C 0.83889 0.24598 0.58439 0.0
C2461 C 0.81193 0.25037 0.59002 0.0
C2462 C 0.79796 0.23104 0.6045 0.0
C2463 C 0.8102 0.20729 0.61173 0.0
H2464 H 0.42644 0.071 0.27679 0.0
H2465 H 0.4369 -0.00288 0.3187 0.0
H2466 H 0.46459 0.08953 0.29981 0.0
H2467 H 0.47493 0.01587 0.3422 0.0
H2468 H 0.56212 0.04726 0.34349 0.0
H2469 H 0.51997 0.02839 0.32946 0.0
H2470 H 0.48173 0.10383 0.34259 0.0
H2471 H 0.52398 0.12293 0.35612 0.0
C2472 C 0.43666 0.05887 0.29125 0.0
C2473 C 0.42884 0.03258 0.29582 0.0
C2474 C 0.45842 0.06954 0.30459 0.0
C2475 C 0.47282 0.05414 0.3228 0.0
C2476 C 0.4644 0.02811 0.32806 0.0
C2477 C 0.44258 0.01743 0.31471 0.0
C2478 C 0.54468 0.05976 0.34373 0.0
C2479 C 0.54652 0.08672 0.35051 0.0
C2480 C 0.52046 0.04888 0.33584 0.0
C2481 C 0.49757 0.06471 0.33465 0.0
C2482 C 0.49913 0.09128 0.34284 0.0
C2483 C 0.52333 0.10217 0.35069 0.0
H2484 H 0.67309 0.67618 0.0326 0.0
H2485 H 0.74975 0.69026 0.06818 0.0
H2486 H 0.65486 0.71347 0.05698 0.0
H2487 H 0.73129 0.72727 0.09332 0.0
H2488 H 0.62327 0.77362 0.11262 0.0
H2489 H 0.64272 0.73151 0.09924 0.0
H2490 H 0.71668 0.77122 0.08211 0.0
H2491 H 0.69756 0.81308 0.09623 0.0
C2492 C 0.68592 0.68696 0.04606 0.0
C2493 C 0.71288 0.68051 0.0483 0.0
C2494 C 0.67543 0.70823 0.06022 0.0
C2495 C 0.69164 0.72344 0.07705 0.0
C2496 C 0.71837 0.71618 0.08022 0.0
C2497 C 0.72891 0.69493 0.06594 0.0
C2498 C 0.64381 0.77328 0.10637 0.0
C2499 C 0.65874 0.79677 0.1051 0.0
C2500 C 0.65491 0.74917 0.09861 0.0
C2501 C 0.68113 0.74805 0.08927 0.0
C2502 C 0.6965 0.7713 0.08942 0.0
C2503 C 0.68546 0.79538 0.09735 0.0
H2504 H 0.56057 0.49581 0.32391 0.0
H2505 H 0.56645 0.42269 0.27973 0.0
H2506 H 0.52396 0.47723 0.34964 0.0
H2507 H 0.52976 0.40437 0.30495 0.0
H2508 H 0.43569 0.448 0.35266 0.0
H2509 H 0.478 0.46629 0.33862 0.0
H2510 H 0.51454 0.38948 0.3482 0.0
H2511 H 0.47204 0.37095 0.36171 0.0
C2512 C 0.55423 0.47569 0.31992 0.0
C2513 C 0.56615 0.46075 0.2997 0.0
C2514 C 0.53326 0.4651 0.33457 0.0
C2515 C 0.52393 0.43938 0.32926 0.0
C2516 C 0.53669 0.4241 0.30979 0.0
C2517 C 0.55758 0.43468 0.29516 0.0
C2518 C 0.45281 0.43507 0.35217 0.0
C2519 C 0.45038 0.40789 0.35776 0.0
C2520 C 0.47713 0.44562 0.34431 0.0
C2521 C 0.49952 0.42923 0.342 0.0
C2522 C 0.49749 0.40246 0.34933 0.0
C2523 C 0.47316 0.39188 0.35712 0.0
H2524 H 0.17389 0.81861 0.96896 0.0
H2525 H 0.24205 0.81084 0.91776 0.0
H2526 H 0.15308 0.78094 0.94707 0.0
H2527 H 0.22098 0.77336 0.89546 0.0
H2528 H 0.11419 0.72237 0.8927 0.0
H2529 H 0.13381 0.76456 0.90576 0.0
H2530 H 0.2111 0.72783 0.9086 0.0
H2531 H 0.19168 0.68583 0.89508 0.0
C2532 C 0.18423 0.80911 0.95272 0.0
C2533 C 0.20967 0.81749 0.9452 0.0
C2534 C 0.17223 0.78763 0.94005 0.0
C2535 C 0.18544 0.77411 0.9196 0.0
C2536 C 0.21047 0.78319 0.91138 0.0
C2537 C 0.22247 0.8047 0.92406 0.0
C2538 C 0.13542 0.72336 0.89578 0.0
C2539 C 0.15132 0.70063 0.89317 0.0
C2540 C 0.14663 0.74751 0.90336 0.0
C2541 C 0.17395 0.74947 0.90842 0.0
C2542 C 0.19001 0.72705 0.90461 0.0
C2543 C 0.17883 0.7029 0.89705 0.0
H2544 H 0.43144 0.99416 0.17272 0.0
H2545 H 0.4253 0.92334 0.22038 0.0
H2546 H 0.46866 0.97476 0.14868 0.0
H2547 H 0.46278 0.90421 0.19684 0.0
H2548 H 0.55684 0.94743 0.14665 0.0
H2549 H 0.51433 0.96531 0.16052 0.0
H2550 H 0.47948 0.88726 0.15502 0.0
H2551 H 0.52222 0.86917 0.14169 0.0
C2552 C 0.43788 0.97435 0.17785 0.0
C2553 C 0.42566 0.96033 0.19855 0.0
C2554 C 0.45925 0.96329 0.16418 0.0
C2555 C 0.46879 0.93803 0.17097 0.0
C2556 C 0.45574 0.92358 0.19089 0.0
C2557 C 0.43436 0.93461 0.20452 0.0
C2558 C 0.54006 0.9341 0.14805 0.0
C2559 C 0.54304 0.90679 0.14348 0.0
C2560 C 0.51561 0.94441 0.15583 0.0
C2561 C 0.49358 0.92765 0.15911 0.0
C2562 C 0.49621 0.90059 0.15311 0.0
C2563 C 0.52068 0.89026 0.14537 0.0
H2564 H 0.03876 -0.00382 0.70102 0.0
H2565 H 0.08582 0.06604 0.6861 0.0
H2566 H 0.00177 0.01576 0.67724 0.0
H2567 H 0.0494 0.08518 0.66075 0.0
H2568 H 0.96814 0.12565 0.65596 0.0
H2569 H 0.009 0.1048 0.67006 0.0
H2570 H 0.98166 0.02993 0.63829 0.0
H2571 H 0.93993 0.05074 0.62556 0.0
C2572 C 0.04137 0.01549 0.69202 0.0
C2573 C 0.06497 0.02976 0.69563 0.0
C2574 C 0.02021 0.0267 0.67816 0.0
C2575 C 0.02238 0.05225 0.66718 0.0
C2576 C 0.0467 0.06578 0.66949 0.0
C2577 C 0.06766 0.05478 0.68384 0.0
C2578 C 0.971 0.10482 0.65164 0.0
C2579 C 0.95072 0.08975 0.63994 0.0
C2580 C 0.9946 0.09282 0.65958 0.0
C2581 C -0.00129 0.06553 0.65556 0.0
C2582 C 0.97898 0.05083 0.64234 0.0
C2583 C 0.95513 0.06276 0.63485 0.0
loop_
_geom_bond_atom_site_label_1
_geom_bond_atom_site_label_2
_geom_bond_distance
_geom_bond_site_symmetry_2
_ccdc_geom_bond_type
In0 O1 2.316 . S
In0 O2 2.323 1_455 S
In0 O6 2.289 . S
In0 O7 2.322 1_455 S
In0 O8 2.244 1_455 S
In0 O9 2.330 . S
In0 O11 2.271 1_455 S
In0 O12 2.330 . S
O1 In0 2.316 . S
O1 C10 1.240 . S
O2 In0 2.323 1_655 S
O2 C10 1.252 1_655 S
C3 O6 1.252 . S
C3 O7 1.260 1_455 S
C4 O11 1.240 . S
C4 O12 1.252 1_655 S
C5 O8 1.252 . S
C5 O9 1.260 1_655 S
O6 In0 2.289 . S
O6 C3 1.252 . S
O7 In0 2.322 1_655 S
O7 C3 1.260 1_655 S
O8 In0 2.244 1_655 S
O8 C5 1.252 . S
O9 In0 2.330 . S
O9 C5 1.260 1_455 S
C10 O1 1.240 . S
C10 O2 1.252 1_455 S
O11 In0 2.271 1_655 S
O11 C4 1.240 . S
O12 In0 2.330 . S
O12 C4 1.252 1_455 S
In13 O14 2.294 1_455 S
In13 O15 2.326 1_455 S
In13 O19 2.266 . S
In13 O20 2.326 . S
In13 O21 2.266 1_455 S
In13 O22 2.326 1_455 S
In13 O24 2.294 . S
In13 O25 2.326 . S
O14 In13 2.294 1_655 S
O14 C23 1.240 . S
O15 In13 2.326 1_655 S
O15 C23 1.252 . S
C16 O19 1.252 . S
C16 O20 1.260 . S
C17 O24 1.240 . S
C17 O25 1.252 . S
C18 O21 1.252 . S
C18 O22 1.260 . S
O19 In13 2.266 . S
O19 C16 1.252 . S
O20 In13 2.326 . S
O20 C16 1.260 . S
O21 In13 2.266 1_655 S
O21 C18 1.252 . S
O22 In13 2.326 1_655 S
O22 C18 1.260 . S
C23 O14 1.240 . S
C23 O15 1.252 . S
O24 In13 2.294 . S
O24 C17 1.240 . S
O25 In13 2.326 . S
O25 C17 1.252 . S
In26 O27 2.294 . S
In26 O28 2.326 . S
In26 O32 2.266 . S
In26 O33 2.326 . S
In26 O34 2.266 . S
In26 O35 2.326 . S
In26 O37 2.294 . S
In26 O38 2.326 . S
O27 In26 2.294 . S
O27 C36 1.240 . S
O28 In26 2.326 . S
O28 C36 1.252 . S
C29 O32 1.252 . S
C29 O33 1.260 . S
C30 O37 1.240 . S
C30 O38 1.252 . S
C31 O34 1.252 . S
C31 O35 1.260 . S
O32 In26 2.266 . S
O32 C29 1.252 . S
O33 In26 2.326 . S
O33 C29 1.260 . S
O34 In26 2.266 . S
O34 C31 1.252 . S
O35 In26 2.326 . S
O35 C31 1.260 . S
C36 O27 1.240 . S
C36 O28 1.252 . S
O37 In26 2.294 . S
O37 C30 1.240 . S
O38 In26 2.326 . S
O38 C30 1.252 . S
In39 O40 2.294 . S
In39 O41 2.326 . S
In39 O45 2.266 . S
In39 O46 2.326 . S
In39 O47 2.266 . S
In39 O48 2.326 . S
In39 O50 2.294 . S
In39 O51 2.326 . S
O40 In39 2.294 . S
O40 C49 1.240 . S
O41 In39 2.326 . S
O41 C49 1.252 . S
C42 O45 1.252 . S
C42 O46 1.260 . S
C43 O50 1.240 . S
C43 O51 1.252 . S
C44 O47 1.252 . S
C44 O48 1.260 . S
O45 In39 2.266 . S
O45 C42 1.252 . S
O46 In39 2.326 . S
O46 C42 1.260 . S
O47 In39 2.266 . S
O47 C44 1.252 . S
O48 In39 2.326 . S
O48 C44 1.260 . S
C49 O40 1.240 . S
C49 O41 1.252 . S
O50 In39 2.294 . S
O50 C43 1.240 . S
O51 In39 2.326 . S
O51 C43 1.252 . S
In52 O53 2.285 1_455 S
In52 O54 2.328 . S
In52 O58 2.257 1_455 S
In52 O59 2.327 . S
In52 O60 2.275 . S
In52 O61 2.324 1_455 S
In52 O63 2.303 . S
In52 O64 2.325 1_455 S
O53 In52 2.285 1_655 S
O53 C62 1.240 . S
O54 In52 2.328 . S
O54 C62 1.252 1_455 S
C55 O58 1.252 . S
C55 O59 1.260 1_655 S
C56 O63 1.240 . S
C56 O64 1.252 1_455 S
C57 O60 1.252 . S
C57 O61 1.260 1_455 S
O58 In52 2.257 1_655 S
O58 C55 1.252 . S
O59 In52 2.327 . S
O59 C55 1.260 1_455 S
O60 In52 2.275 . S
O60 C57 1.252 . S
O61 In52 2.324 1_655 S
O61 C57 1.260 1_655 S
C62 O53 1.240 . S
C62 O54 1.252 1_655 S
O63 In52 2.303 . S
O63 C56 1.240 . S
O64 In52 2.325 1_655 S
O64 C56 1.252 1_655 S
In65 O66 2.294 . S
In65 O67 2.326 . S
In65 O71 2.266 . S
In65 O72 2.326 . S
In65 O73 2.266 . S
In65 O74 2.326 . S
In65 O76 2.294 . S
In65 O77 2.326 . S
O66 In65 2.294 . S
O66 C75 1.240 . S
O67 In65 2.326 . S
O67 C75 1.252 . S
C68 O71 1.252 . S
C68 O72 1.260 . S
C69 O76 1.240 . S
C69 O77 1.252 . S
C70 O73 1.252 . S
C70 O74 1.260 . S
O71 In65 2.266 . S
O71 C68 1.252 . S
O72 In65 2.326 . S
O72 C68 1.260 . S
O73 In65 2.266 . S
O73 C70 1.252 . S
O74 In65 2.326 . S
O74 C70 1.260 . S
C75 O66 1.240 . S
C75 O67 1.252 . S
O76 In65 2.294 . S
O76 C69 1.240 . S
O77 In65 2.326 . S
O77 C69 1.252 . S
In78 O79 2.294 . S
In78 O80 2.326 . S
In78 O84 2.266 . S
In78 O85 2.326 . S
In78 O86 2.266 . S
In78 O87 2.326 . S
In78 O89 2.294 . S
In78 O90 2.326 . S
O79 In78 2.294 . S
O79 C88 1.240 . S
O80 In78 2.326 . S
O80 C88 1.252 . S
C81 O84 1.252 . S
C81 O85 1.260 . S
C82 O89 1.240 . S
C82 O90 1.252 . S
C83 O86 1.252 . S
C83 O87 1.260 . S
O84 In78 2.266 . S
O84 C81 1.252 . S
O85 In78 2.326 . S
O85 C81 1.260 . S
O86 In78 2.266 . S
O86 C83 1.252 . S
O87 In78 2.326 . S
O87 C83 1.260 . S
C88 O79 1.240 . S
C88 O80 1.252 . S
O89 In78 2.294 . S
O89 C82 1.240 . S
O90 In78 2.326 . S
O90 C82 1.252 . S
In91 O92 2.297 . S
In91 O93 2.331 . S
In91 O97 2.263 1_455 S
In91 O98 2.320 1_455 S
In91 O99 2.269 . S
In91 O100 2.331 . S
In91 O102 2.291 1_455 S
In91 O103 2.321 1_455 S
O92 In91 2.297 . S
O92 C101 1.240 . S
O93 In91 2.331 . S
O93 C101 1.252 . S
C94 O97 1.252 . S
C94 O98 1.260 . S
C95 O102 1.240 . S
C95 O103 1.252 . S
C96 O99 1.252 . S
C96 O100 1.260 . S
O97 In91 2.263 1_655 S
O97 C94 1.252 . S
O98 In91 2.320 1_655 S
O98 C94 1.260 . S
O99 In91 2.269 . S
O99 C96 1.252 . S
O100 In91 2.331 . S
O100 C96 1.260 . S
C101 O92 1.240 . S
C101 O93 1.252 . S
O102 In91 2.291 1_655 S
O102 C95 1.240 . S
O103 In91 2.321 1_655 S
O103 C95 1.252 . S
In104 O105 2.294 1_545 S
In104 O106 2.326 . S
In104 O110 2.266 1_545 S
In104 O111 2.326 . S
In104 O112 2.266 . S
In104 O113 2.326 1_545 S
In104 O115 2.294 . S
In104 O116 2.326 1_545 S
O105 In104 2.294 1_565 S
O105 C114 1.240 . S
O106 In104 2.326 . S
O106 C114 1.252 1_545 S
C107 O110 1.252 . S
C107 O111 1.260 1_565 S
C108 O115 1.240 . S
C108 O116 1.252 1_545 S
C109 O112 1.252 . S
C109 O113 1.260 1_545 S
O110 In104 2.266 1_565 S
O110 C107 1.252 . S
O111 In104 2.326 . S
O111 C107 1.260 1_545 S
O112 In104 2.266 . S
O112 C109 1.252 . S
O113 In104 2.326 1_565 S
O113 C109 1.260 1_565 S
C114 O105 1.240 . S
C114 O106 1.252 1_565 S
O115 In104 2.294 . S
O115 C108 1.240 . S
O116 In104 2.326 1_565 S
O116 C108 1.252 1_565 S
In117 O118 2.294 . S
In117 O119 2.326 . S
In117 O123 2.266 . S
In117 O124 2.326 . S
In117 O125 2.266 . S
In117 O126 2.326 . S
In117 O128 2.294 . S
In117 O129 2.326 . S
O118 In117 2.294 . S
O118 C127 1.240 . S
O119 In117 2.326 . S
O119 C127 1.252 . S
C120 O123 1.252 . S
C120 O124 1.260 . S
C121 O128 1.240 . S
C121 O129 1.252 . S
C122 O125 1.252 . S
C122 O126 1.260 . S
O123 In117 2.266 . S
O123 C120 1.252 . S
O124 In117 2.326 . S
O124 C120 1.260 . S
O125 In117 2.266 . S
O125 C122 1.252 . S
O126 In117 2.326 . S
O126 C122 1.260 . S
C127 O118 1.240 . S
C127 O119 1.252 . S
O128 In117 2.294 . S
O128 C121 1.240 . S
O129 In117 2.326 . S
O129 C121 1.252 . S
In130 O131 2.294 1_545 S
In130 O132 2.326 . S
In130 O136 2.266 1_545 S
In130 O137 2.326 . S
In130 O138 2.266 . S
In130 O139 2.326 1_545 S
In130 O141 2.294 . S
In130 O142 2.324 1_545 S
O131 In130 2.294 1_565 S
O131 C140 1.240 . S
O132 In130 2.326 . S
O132 C140 1.252 1_545 S
C133 O136 1.252 . S
C133 O137 1.260 1_565 S
C134 O141 1.240 . S
C134 O142 1.228 1_545 S
C135 O138 1.252 . S
C135 O139 1.260 1_545 S
O136 In130 2.266 1_565 S
O136 C133 1.252 . S
O137 In130 2.326 . S
O137 C133 1.260 1_545 S
O138 In130 2.266 . S
O138 C135 1.252 . S
O139 In130 2.326 1_565 S
O139 C135 1.260 1_565 S
C140 O131 1.240 . S
C140 O132 1.252 1_565 S
O141 In130 2.294 . S
O141 C134 1.240 . S
O142 In130 2.324 1_565 S
O142 C134 1.228 1_565 S
In143 O144 2.294 . S
In143 O145 2.326 . S
In143 O149 2.266 1_554 S
In143 O150 2.326 1_554 S
In143 O151 2.266 . S
In143 O152 2.326 . S
In143 O154 2.294 1_554 S
In143 O155 2.326 1_554 S
O144 In143 2.294 . S
O144 C153 1.240 . S
O145 In143 2.326 . S
O145 C153 1.252 . S
C146 O149 1.252 . S
C146 O150 1.260 . S
C147 O154 1.240 . S
C147 O155 1.252 . S
C148 O151 1.252 . S
C148 O152 1.260 . S
O149 In143 2.266 1_556 S
O149 C146 1.252 . S
O150 In143 2.326 1_556 S
O150 C146 1.260 . S
O151 In143 2.266 . S
O151 C148 1.252 . S
O152 In143 2.326 . S
O152 C148 1.260 . S
C153 O144 1.240 . S
C153 O145 1.252 . S
O154 In143 2.294 1_556 S
O154 C147 1.240 . S
O155 In143 2.326 1_556 S
O155 C147 1.252 . S
In156 O157 2.281 1_554 S
In156 O158 2.328 . S
In156 O162 2.253 1_554 S
In156 O163 2.328 . S
In156 O164 2.279 . S
In156 O165 2.324 1_554 S
In156 O167 2.307 . S
In156 O168 2.324 1_554 S
O157 In156 2.281 1_556 S
O157 C166 1.240 . S
O158 In156 2.328 . S
O158 C166 1.252 1_554 S
C159 O162 1.252 . S
C159 O163 1.260 1_556 S
C160 O167 1.240 . S
C160 O168 1.252 1_554 S
C161 O164 1.252 . S
C161 O165 1.260 1_554 S
O162 In156 2.253 1_556 S
O162 C159 1.252 . S
O163 In156 2.328 . S
O163 C159 1.260 1_554 S
O164 In156 2.279 . S
O164 C161 1.252 . S
O165 In156 2.324 1_556 S
O165 C161 1.260 1_556 S
C166 O157 1.240 . S
C166 O158 1.252 1_556 S
O167 In156 2.307 . S
O167 C160 1.240 . S
O168 In156 2.324 1_556 S
O168 C160 1.252 1_556 S
In169 O170 2.294 . S
In169 O171 2.326 1_554 S
In169 O175 2.267 . S
In169 O176 2.325 1_554 S
In169 O177 2.266 1_554 S
In169 O178 2.326 . S
In169 O180 2.293 1_554 S
In169 O181 2.326 . S
O170 In169 2.294 . S
O170 C179 1.240 . S
O171 In169 2.326 1_556 S
O171 C179 1.252 1_556 S
C172 O175 1.252 . S
C172 O176 1.260 1_554 S
C173 O180 1.240 . S
C173 O181 1.252 1_556 S
C174 O177 1.252 . S
C174 O178 1.260 1_556 S
O175 In169 2.267 . S
O175 C172 1.252 . S
O176 In169 2.325 1_556 S
O176 C172 1.260 1_556 S
O177 In169 2.266 1_556 S
O177 C174 1.252 . S
O178 In169 2.326 . S
O178 C174 1.260 1_554 S
C179 O170 1.240 . S
C179 O171 1.252 1_554 S
O180 In169 2.293 1_556 S
O180 C173 1.240 . S
O181 In169 2.326 . S
O181 C173 1.252 1_554 S
In182 O183 2.294 . S
In182 O184 2.326 . S
In182 O188 2.266 . S
In182 O189 2.326 . S
In182 O190 2.266 . S
In182 O191 2.326 . S
In182 O193 2.294 . S
In182 O194 2.326 . S
O183 In182 2.294 . S
O183 C192 1.240 . S
O184 In182 2.326 . S
O184 C192 1.252 . S
C185 O188 1.252 . S
C185 O189 1.260 . S
C186 O193 1.240 . S
C186 O194 1.252 . S
C187 O190 1.252 . S
C187 O191 1.260 . S
O188 In182 2.266 . S
O188 C185 1.252 . S
O189 In182 2.326 . S
O189 C185 1.260 . S
O190 In182 2.266 . S
O190 C187 1.252 . S
O191 In182 2.326 . S
O191 C187 1.260 . S
C192 O183 1.240 . S
C192 O184 1.252 . S
O193 In182 2.294 . S
O193 C186 1.240 . S
O194 In182 2.326 . S
O194 C186 1.252 . S
In195 O196 2.294 . S
In195 O197 2.326 . S
In195 O201 2.266 . S
In195 O202 2.326 . S
In195 O203 2.266 . S
In195 O204 2.326 . S
In195 O206 2.294 . S
In195 O207 2.326 . S
O196 In195 2.294 . S
O196 C205 1.240 . S
O197 In195 2.326 . S
O197 C205 1.252 . S
C198 O201 1.252 . S
C198 O202 1.260 . S
C199 O206 1.240 . S
C199 O207 1.252 . S
C200 O203 1.252 . S
C200 O204 1.260 . S
O201 In195 2.266 . S
O201 C198 1.252 . S
O202 In195 2.326 . S
O202 C198 1.260 . S
O203 In195 2.266 . S
O203 C200 1.252 . S
O204 In195 2.326 . S
O204 C200 1.260 . S
C205 O196 1.240 . S
C205 O197 1.252 . S
O206 In195 2.294 . S
O206 C199 1.240 . S
O207 In195 2.326 . S
O207 C199 1.252 . S
In208 O209 2.294 1_545 S
In208 O210 2.326 1_545 S
In208 O214 2.266 . S
In208 O215 2.326 . S
In208 O216 2.266 1_545 S
In208 O217 2.326 1_545 S
In208 O219 2.294 . S
In208 O220 2.326 . S
O209 In208 2.294 1_565 S
O209 C218 1.240 . S
O210 In208 2.326 1_565 S
O210 C218 1.252 . S
C211 O214 1.252 . S
C211 O215 1.260 . S
C212 O219 1.240 . S
C212 O220 1.252 . S
C213 O216 1.252 . S
C213 O217 1.260 . S
O214 In208 2.266 . S
O214 C211 1.252 . S
O215 In208 2.326 . S
O215 C211 1.260 . S
O216 In208 2.266 1_565 S
O216 C213 1.252 . S
O217 In208 2.326 1_565 S
O217 C213 1.260 . S
C218 O209 1.240 . S
C218 O210 1.252 . S
O219 In208 2.294 . S
O219 C212 1.240 . S
O220 In208 2.326 . S
O220 C212 1.252 . S
In221 O222 2.294 . S
In221 O223 2.326 . S
In221 O227 2.266 . S
In221 O228 2.326 . S
In221 O229 2.266 . S
In221 O230 2.326 . S
In221 O232 2.294 . S
In221 O233 2.326 . S
O222 In221 2.294 . S
O222 C231 1.240 . S
O223 In221 2.326 . S
O223 C231 1.252 . S
C224 O227 1.252 . S
C224 O228 1.260 . S
C225 O232 1.240 . S
C225 O233 1.252 . S
C226 O229 1.252 . S
C226 O230 1.260 . S
O227 In221 2.266 . S
O227 C224 1.252 . S
O228 In221 2.326 . S
O228 C224 1.260 . S
O229 In221 2.266 . S
O229 C226 1.252 . S
O230 In221 2.326 . S
O230 C226 1.260 . S
C231 O222 1.240 . S
C231 O223 1.252 . S
O232 In221 2.294 . S
O232 C225 1.240 . S
O233 In221 2.326 . S
O233 C225 1.252 . S
In234 O235 2.294 . S
In234 O236 2.326 . S
In234 O240 2.266 . S
In234 O241 2.326 . S
In234 O242 2.266 . S
In234 O243 2.326 . S
In234 O245 2.294 . S
In234 O246 2.326 . S
O235 In234 2.294 . S
O235 C244 1.240 . S
O236 In234 2.326 . S
O236 C244 1.252 . S
C237 O240 1.252 . S
C237 O241 1.260 . S
C238 O245 1.240 . S
C238 O246 1.252 . S
C239 O242 1.252 . S
C239 O243 1.260 . S
O240 In234 2.266 . S
O240 C237 1.252 . S
O241 In234 2.326 . S
O241 C237 1.260 . S
O242 In234 2.266 . S
O242 C239 1.252 . S
O243 In234 2.326 . S
O243 C239 1.260 . S
C244 O235 1.240 . S
C244 O236 1.252 . S
O245 In234 2.294 . S
O245 C238 1.240 . S
O246 In234 2.326 . S
O246 C238 1.252 . S
In247 O248 2.294 1_545 S
In247 O249 2.326 1_545 S
In247 O253 2.266 . S
In247 O254 2.326 . S
In247 O255 2.266 1_545 S
In247 O256 2.326 1_545 S
In247 O258 2.294 . S
In247 O259 2.326 . S
O248 In247 2.294 1_565 S
O248 C257 1.240 . S
O249 In247 2.326 1_565 S
O249 C257 1.252 . S
C250 O253 1.252 . S
C250 O254 1.260 . S
C251 O258 1.240 . S
C251 O259 1.252 . S
C252 O255 1.252 . S
C252 O256 1.260 . S
O253 In247 2.266 . S
O253 C250 1.252 . S
O254 In247 2.326 . S
O254 C250 1.260 . S
O255 In247 2.266 1_565 S
O255 C252 1.252 . S
O256 In247 2.326 1_565 S
O256 C252 1.260 . S
C257 O248 1.240 . S
C257 O249 1.252 . S
O258 In247 2.294 . S
O258 C251 1.240 . S
O259 In247 2.326 . S
O259 C251 1.252 . S
In260 O261 2.294 . S
In260 O262 2.326 . S
In260 O266 2.266 1_554 S
In260 O267 2.326 1_554 S
In260 O268 2.266 . S
In260 O269 2.326 . S
In260 O271 2.294 1_554 S
In260 O272 2.326 1_554 S
O261 In260 2.294 . S
O261 C270 1.240 . S
O262 In260 2.326 . S
O262 C270 1.252 . S
C263 O266 1.252 . S
C263 O267 1.260 . S
C264 O271 1.240 . S
C264 O272 1.252 . S
C265 O268 1.252 . S
C265 O269 1.260 . S
O266 In260 2.266 1_556 S
O266 C263 1.252 . S
O267 In260 2.326 1_556 S
O267 C263 1.260 . S
O268 In260 2.266 . S
O268 C265 1.252 . S
O269 In260 2.326 . S
O269 C265 1.260 . S
C270 O261 1.240 . S
C270 O262 1.252 . S
O271 In260 2.294 1_556 S
O271 C264 1.240 . S
O272 In260 2.326 1_556 S
O272 C264 1.252 . S
In273 O274 2.294 . S
In273 O275 2.326 . S
In273 O279 2.266 . S
In273 O280 2.326 . S
In273 O281 2.266 . S
In273 O282 2.326 . S
In273 O284 2.294 . S
In273 O285 2.326 . S
O274 In273 2.294 . S
O274 C283 1.240 . S
O275 In273 2.326 . S
O275 C283 1.252 . S
C276 O279 1.252 . S
C276 O280 1.260 . S
C277 O284 1.240 . S
C277 O285 1.252 . S
C278 O281 1.252 . S
C278 O282 1.260 . S
O279 In273 2.266 . S
O279 C276 1.252 . S
O280 In273 2.326 . S
O280 C276 1.260 . S
O281 In273 2.266 . S
O281 C278 1.252 . S
O282 In273 2.326 . S
O282 C278 1.260 . S
C283 O274 1.240 . S
C283 O275 1.252 . S
O284 In273 2.294 . S
O284 C277 1.240 . S
O285 In273 2.326 . S
O285 C277 1.252 . S
In286 O287 2.294 . S
In286 O288 2.326 . S
In286 O292 2.266 . S
In286 O293 2.326 . S
In286 O294 2.266 . S
In286 O295 2.326 . S
In286 O297 2.294 . S
In286 O298 2.326 . S
O287 In286 2.294 . S
O287 C296 1.240 . S
O288 In286 2.326 . S
O288 C296 1.252 . S
C289 O292 1.252 . S
C289 O293 1.260 . S
C290 O297 1.240 . S
C290 O298 1.252 . S
C291 O294 1.252 . S
C291 O295 1.260 . S
O292 In286 2.266 . S
O292 C289 1.252 . S
O293 In286 2.326 . S
O293 C289 1.260 . S
O294 In286 2.266 . S
O294 C291 1.252 . S
O295 In286 2.326 . S
O295 C291 1.260 . S
C296 O287 1.240 . S
C296 O288 1.252 . S
O297 In286 2.294 . S
O297 C290 1.240 . S
O298 In286 2.326 . S
O298 C290 1.252 . S
In299 O300 2.294 . S
In299 O301 2.326 . S
In299 O305 2.266 . S
In299 O306 2.326 . S
In299 O307 2.266 . S
In299 O308 2.326 . S
In299 O310 2.294 . S
In299 O311 2.326 . S
O300 In299 2.294 . S
O300 C309 1.240 . S
O301 In299 2.326 . S
O301 C309 1.252 . S
C302 O305 1.252 . S
C302 O306 1.260 . S
C303 O310 1.240 . S
C303 O311 1.252 . S
C304 O307 1.252 . S
C304 O308 1.260 . S
O305 In299 2.266 . S
O305 C302 1.252 . S
O306 In299 2.326 . S
O306 C302 1.260 . S
O307 In299 2.266 . S
O307 C304 1.252 . S
O308 In299 2.326 . S
O308 C304 1.260 . S
C309 O300 1.240 . S
C309 O301 1.252 . S
O310 In299 2.294 . S
O310 C303 1.240 . S
O311 In299 2.326 . S
O311 C303 1.252 . S
Fe312 O314 1.918 . S
Fe312 O317 1.997 . S
Fe312 O318 2.002 . S
Fe312 O323 1.976 . S
Fe312 O326 1.996 . S
Fe313 O314 1.918 . S
Fe313 O321 1.997 . S
Fe313 O324 1.996 . S
Fe313 O328 1.976 . S
Fe313 O331 2.002 . S
O314 Fe312 1.918 . S
O314 Fe313 1.918 . S
O314 Fe315 1.918 . S
Fe315 O314 1.918 . S
Fe315 O316 2.002 . S
Fe315 O325 1.976 . S
Fe315 O329 1.996 . S
Fe315 O332 1.997 . S
O316 Fe315 2.002 . S
O316 C333 1.295 . S
O317 Fe312 1.997 . S
O317 C333 1.235 . S
O318 Fe312 2.002 . S
O318 C319 1.295 . S
C319 O318 1.295 . S
C319 O321 1.235 . S
C320 O325 1.287 . S
C320 O326 1.255 . S
O321 Fe313 1.997 . S
O321 C319 1.235 . S
C322 O328 1.287 . S
C322 O329 1.255 . S
O323 Fe312 1.976 . S
O323 C330 1.287 . S
O324 Fe313 1.996 . S
O324 C330 1.255 . S
O325 Fe315 1.976 . S
O325 C320 1.287 . S
O326 Fe312 1.996 . S
O326 C320 1.255 . S
C327 O331 1.295 . S
C327 O332 1.235 . S
O328 Fe313 1.976 . S
O328 C322 1.287 . S
O329 Fe315 1.996 . S
O329 C322 1.255 . S
C330 O323 1.287 . S
C330 O324 1.255 . S
O331 Fe313 2.002 . S
O331 C327 1.295 . S
O332 Fe315 1.997 . S
O332 C327 1.235 . S
C333 O316 1.295 . S
C333 O317 1.235 . S
Fe334 O336 1.918 . S
Fe334 O339 1.997 . S
Fe334 O340 2.002 . S
Fe334 O345 1.976 . S
Fe334 O348 1.996 . S
Fe335 O336 1.918 . S
Fe335 O343 1.997 . S
Fe335 O346 1.996 . S
Fe335 O350 1.976 . S
Fe335 O353 2.002 . S
O336 Fe334 1.918 . S
O336 Fe335 1.918 . S
O336 Fe337 1.918 . S
Fe337 O336 1.918 . S
Fe337 O338 2.002 . S
Fe337 O347 1.976 . S
Fe337 O351 1.996 . S
Fe337 O354 1.997 . S
O338 Fe337 2.002 . S
O338 C355 1.295 . S
O339 Fe334 1.997 . S
O339 C355 1.235 . S
O340 Fe334 2.002 . S
O340 C341 1.295 . S
C341 O340 1.295 . S
C341 O343 1.235 . S
C342 O347 1.287 . S
C342 O348 1.255 . S
O343 Fe335 1.997 . S
O343 C341 1.235 . S
C344 O350 1.287 . S
C344 O351 1.255 . S
O345 Fe334 1.976 . S
O345 C352 1.287 . S
O346 Fe335 1.996 . S
O346 C352 1.255 . S
O347 Fe337 1.976 . S
O347 C342 1.287 . S
O348 Fe334 1.996 . S
O348 C342 1.255 . S
C349 O353 1.295 . S
C349 O354 1.235 . S
O350 Fe335 1.976 . S
O350 C344 1.287 . S
O351 Fe337 1.996 . S
O351 C344 1.255 . S
C352 O345 1.287 . S
C352 O346 1.255 . S
O353 Fe335 2.002 . S
O353 C349 1.295 . S
O354 Fe337 1.997 . S
O354 C349 1.235 . S
C355 O338 1.295 . S
C355 O339 1.235 . S
Fe356 O358 1.918 . S
Fe356 O361 1.997 . S
Fe356 O362 2.002 . S
Fe356 O367 1.976 . S
Fe356 O370 1.996 . S
Fe357 O358 1.918 . S
Fe357 O365 1.997 . S
Fe357 O368 1.996 . S
Fe357 O372 1.976 . S
Fe357 O375 2.002 . S
O358 Fe356 1.918 . S
O358 Fe357 1.918 . S
O358 Fe359 1.918 . S
Fe359 O358 1.918 . S
Fe359 O360 2.002 . S
Fe359 O369 1.976 . S
Fe359 O373 1.996 . S
Fe359 O376 1.997 . S
O360 Fe359 2.002 . S
O360 C377 1.295 . S
O361 Fe356 1.997 . S
O361 C377 1.235 . S
O362 Fe356 2.002 . S
O362 C363 1.295 . S
C363 O362 1.295 . S
C363 O365 1.235 . S
C364 O369 1.287 . S
C364 O370 1.255 . S
O365 Fe357 1.997 . S
O365 C363 1.235 . S
C366 O372 1.287 . S
C366 O373 1.255 . S
O367 Fe356 1.976 . S
O367 C374 1.287 . S
O368 Fe357 1.996 . S
O368 C374 1.255 . S
O369 Fe359 1.976 . S
O369 C364 1.287 . S
O370 Fe356 1.996 . S
O370 C364 1.255 . S
C371 O375 1.295 . S
C371 O376 1.235 . S
O372 Fe357 1.976 . S
O372 C366 1.287 . S
O373 Fe359 1.996 . S
O373 C366 1.255 . S
C374 O367 1.287 . S
C374 O368 1.255 . S
O375 Fe357 2.002 . S
O375 C371 1.295 . S
O376 Fe359 1.997 . S
O376 C371 1.235 . S
C377 O360 1.295 . S
C377 O361 1.235 . S
Fe378 O380 1.918 . S
Fe378 O383 1.997 . S
Fe378 O384 2.002 . S
Fe378 O389 1.976 . S
Fe378 O392 1.996 . S
Fe379 O380 1.918 . S
Fe379 O387 1.997 . S
Fe379 O390 1.996 . S
Fe379 O394 1.976 . S
Fe379 O397 2.002 . S
O380 Fe378 1.918 . S
O380 Fe379 1.918 . S
O380 Fe381 1.918 . S
Fe381 O380 1.918 . S
Fe381 O382 2.002 . S
Fe381 O391 1.976 . S
Fe381 O395 1.996 . S
Fe381 O398 1.997 . S
O382 Fe381 2.002 . S
O382 C399 1.295 . S
O383 Fe378 1.997 . S
O383 C399 1.235 . S
O384 Fe378 2.002 . S
O384 C385 1.295 . S
C385 O384 1.295 . S
C385 O387 1.235 . S
C386 O391 1.287 . S
C386 O392 1.255 . S
O387 Fe379 1.997 . S
O387 C385 1.235 . S
C388 O394 1.287 . S
C388 O395 1.255 . S
O389 Fe378 1.976 . S
O389 C396 1.287 . S
O390 Fe379 1.996 . S
O390 C396 1.255 . S
O391 Fe381 1.976 . S
O391 C386 1.287 . S
O392 Fe378 1.996 . S
O392 C386 1.255 . S
C393 O397 1.295 . S
C393 O398 1.235 . S
O394 Fe379 1.976 . S
O394 C388 1.287 . S
O395 Fe381 1.996 . S
O395 C388 1.255 . S
C396 O389 1.287 . S
C396 O390 1.255 . S
O397 Fe379 2.002 . S
O397 C393 1.295 . S
O398 Fe381 1.997 . S
O398 C393 1.235 . S
C399 O382 1.295 . S
C399 O383 1.235 . S
Fe400 O402 1.918 . S
Fe400 O405 1.997 . S
Fe400 O406 2.002 . S
Fe400 O411 1.976 . S
Fe400 O414 1.996 . S
Fe401 O402 1.918 . S
Fe401 O409 1.997 . S
Fe401 O412 1.996 . S
Fe401 O416 1.976 . S
Fe401 O419 2.002 . S
O402 Fe400 1.918 . S
O402 Fe401 1.918 . S
O402 Fe403 1.918 . S
Fe403 O402 1.918 . S
Fe403 O404 2.002 . S
Fe403 O413 1.976 . S
Fe403 O417 1.996 . S
Fe403 O420 1.997 . S
O404 Fe403 2.002 . S
O404 C421 1.295 . S
O405 Fe400 1.997 . S
O405 C421 1.235 . S
O406 Fe400 2.002 . S
O406 C407 1.295 . S
C407 O406 1.295 . S
C407 O409 1.235 . S
C408 O413 1.287 . S
C408 O414 1.255 . S
O409 Fe401 1.997 . S
O409 C407 1.235 . S
C410 O416 1.287 . S
C410 O417 1.255 . S
O411 Fe400 1.976 . S
O411 C418 1.287 . S
O412 Fe401 1.996 . S
O412 C418 1.255 . S
O413 Fe403 1.976 . S
O413 C408 1.287 . S
O414 Fe400 1.996 . S
O414 C408 1.255 . S
C415 O419 1.295 . S
C415 O420 1.235 . S
O416 Fe401 1.976 . S
O416 C410 1.287 . S
O417 Fe403 1.996 . S
O417 C410 1.255 . S
C418 O411 1.287 . S
C418 O412 1.255 . S
O419 Fe401 2.002 . S
O419 C415 1.295 . S
O420 Fe403 1.997 . S
O420 C415 1.235 . S
C421 O404 1.295 . S
C421 O405 1.235 . S
Fe422 O424 1.918 . S
Fe422 O427 1.997 . S
Fe422 O428 2.002 . S
Fe422 O433 1.976 . S
Fe422 O436 1.996 . S
Fe423 O424 1.918 . S
Fe423 O431 1.997 . S
Fe423 O434 1.996 . S
Fe423 O438 1.976 . S
Fe423 O441 2.002 . S
O424 Fe422 1.918 . S
O424 Fe423 1.918 . S
O424 Fe425 1.918 . S
Fe425 O424 1.918 . S
Fe425 O426 2.002 . S
Fe425 O435 1.976 . S
Fe425 O439 1.996 . S
Fe425 O442 1.997 . S
O426 Fe425 2.002 . S
O426 C443 1.295 . S
O427 Fe422 1.997 . S
O427 C443 1.235 . S
O428 Fe422 2.002 . S
O428 C429 1.295 . S
C429 O428 1.295 . S
C429 O431 1.235 . S
C430 O435 1.287 . S
C430 O436 1.255 . S
O431 Fe423 1.997 . S
O431 C429 1.235 . S
C432 O438 1.287 . S
C432 O439 1.255 . S
O433 Fe422 1.976 . S
O433 C440 1.287 . S
O434 Fe423 1.996 . S
O434 C440 1.255 . S
O435 Fe425 1.976 . S
O435 C430 1.287 . S
O436 Fe422 1.996 . S
O436 C430 1.255 . S
C437 O441 1.295 . S
C437 O442 1.235 . S
O438 Fe423 1.976 . S
O438 C432 1.287 . S
O439 Fe425 1.996 . S
O439 C432 1.255 . S
C440 O433 1.287 . S
C440 O434 1.255 . S
O441 Fe423 2.002 . S
O441 C437 1.295 . S
O442 Fe425 1.997 . S
O442 C437 1.235 . S
C443 O426 1.295 . S
C443 O427 1.235 . S
Fe444 O446 1.918 . S
Fe444 O449 1.997 . S
Fe444 O450 2.002 . S
Fe444 O455 1.976 . S
Fe444 O458 1.996 . S
Fe445 O446 1.918 . S
Fe445 O453 1.997 . S
Fe445 O456 1.996 . S
Fe445 O460 1.976 . S
Fe445 O463 2.002 . S
O446 Fe444 1.918 . S
O446 Fe445 1.918 . S
O446 Fe447 1.918 . S
Fe447 O446 1.918 . S
Fe447 O448 2.002 . S
Fe447 O457 1.976 . S
Fe447 O461 1.996 . S
Fe447 O464 1.997 . S
O448 Fe447 2.002 . S
O448 C465 1.295 . S
O449 Fe444 1.997 . S
O449 C465 1.235 . S
O450 Fe444 2.002 . S
O450 C451 1.295 . S
C451 O450 1.295 . S
C451 O453 1.235 . S
C452 O457 1.287 . S
C452 O458 1.255 . S
O453 Fe445 1.997 . S
O453 C451 1.235 . S
C454 O460 1.287 . S
C454 O461 1.255 . S
O455 Fe444 1.976 . S
O455 C462 1.287 . S
O456 Fe445 1.996 . S
O456 C462 1.255 . S
O457 Fe447 1.976 . S
O457 C452 1.287 . S
O458 Fe444 1.996 . S
O458 C452 1.255 . S
C459 O463 1.295 . S
C459 O464 1.235 . S
O460 Fe445 1.976 . S
O460 C454 1.287 . S
O461 Fe447 1.996 . S
O461 C454 1.255 . S
C462 O455 1.287 . S
C462 O456 1.255 . S
O463 Fe445 2.002 . S
O463 C459 1.295 . S
O464 Fe447 1.997 . S
O464 C459 1.235 . S
C465 O448 1.295 . S
C465 O449 1.235 . S
Fe466 O468 1.918 . S
Fe466 O471 1.997 . S
Fe466 O472 2.002 . S
Fe466 O477 1.976 . S
Fe466 O480 1.996 . S
Fe467 O468 1.918 . S
Fe467 O475 1.997 . S
Fe467 O478 1.996 . S
Fe467 O482 1.976 . S
Fe467 O485 2.002 . S
O468 Fe466 1.918 . S
O468 Fe467 1.918 . S
O468 Fe469 1.918 . S
Fe469 O468 1.918 . S
Fe469 O470 2.002 . S
Fe469 O479 1.976 . S
Fe469 O483 1.996 . S
Fe469 O486 1.997 . S
O470 Fe469 2.002 . S
O470 C487 1.295 . S
O471 Fe466 1.997 . S
O471 C487 1.235 . S
O472 Fe466 2.002 . S
O472 C473 1.295 . S
C473 O472 1.295 . S
C473 O475 1.235 . S
C474 O479 1.287 . S
C474 O480 1.255 . S
O475 Fe467 1.997 . S
O475 C473 1.235 . S
C476 O482 1.287 . S
C476 O483 1.255 . S
O477 Fe466 1.976 . S
O477 C484 1.287 . S
O478 Fe467 1.996 . S
O478 C484 1.255 . S
O479 Fe469 1.976 . S
O479 C474 1.287 . S
O480 Fe466 1.996 . S
O480 C474 1.255 . S
C481 O485 1.295 . S
C481 O486 1.235 . S
O482 Fe467 1.976 . S
O482 C476 1.287 . S
O483 Fe469 1.996 . S
O483 C476 1.255 . S
C484 O477 1.287 . S
C484 O478 1.255 . S
O485 Fe467 2.002 . S
O485 C481 1.295 . S
O486 Fe469 1.997 . S
O486 C481 1.235 . S
C487 O470 1.295 . S
C487 O471 1.235 . S
Fe488 O490 1.918 . S
Fe488 O493 1.997 . S
Fe488 O494 2.002 . S
Fe488 O499 1.976 . S
Fe488 O502 1.996 . S
Fe489 O490 1.918 . S
Fe489 O497 1.997 . S
Fe489 O500 1.996 . S
Fe489 O504 1.976 . S
Fe489 O507 2.002 . S
O490 Fe488 1.918 . S
O490 Fe489 1.918 . S
O490 Fe491 1.918 . S
Fe491 O490 1.918 . S
Fe491 O492 2.002 . S
Fe491 O501 1.976 . S
Fe491 O505 1.996 . S
Fe491 O508 1.997 . S
O492 Fe491 2.002 . S
O492 C509 1.295 . S
O493 Fe488 1.997 . S
O493 C509 1.235 . S
O494 Fe488 2.002 . S
O494 C495 1.295 . S
C495 O494 1.295 . S
C495 O497 1.235 . S
C496 O501 1.287 . S
C496 O502 1.255 . S
O497 Fe489 1.997 . S
O497 C495 1.235 . S
C498 O504 1.287 . S
C498 O505 1.255 . S
O499 Fe488 1.976 . S
O499 C506 1.287 . S
O500 Fe489 1.996 . S
O500 C506 1.255 . S
O501 Fe491 1.976 . S
O501 C496 1.287 . S
O502 Fe488 1.996 . S
O502 C496 1.255 . S
C503 O507 1.295 . S
C503 O508 1.235 . S
O504 Fe489 1.976 . S
O504 C498 1.287 . S
O505 Fe491 1.996 . S
O505 C498 1.255 . S
C506 O499 1.287 . S
C506 O500 1.255 . S
O507 Fe489 2.002 . S
O507 C503 1.295 . S
O508 Fe491 1.997 . S
O508 C503 1.235 . S
C509 O492 1.295 . S
C509 O493 1.235 . S
Fe510 O512 1.918 . S
Fe510 O515 1.997 . S
Fe510 O516 2.002 . S
Fe510 O521 1.976 . S
Fe510 O524 1.996 . S
Fe511 O512 1.918 . S
Fe511 O519 1.997 . S
Fe511 O522 1.996 . S
Fe511 O526 1.976 . S
Fe511 O529 2.002 . S
O512 Fe510 1.918 . S
O512 Fe511 1.918 . S
O512 Fe513 1.918 . S
Fe513 O512 1.918 . S
Fe513 O514 2.002 . S
Fe513 O523 1.976 . S
Fe513 O527 1.996 . S
Fe513 O530 1.997 . S
O514 Fe513 2.002 . S
O514 C531 1.295 . S
O515 Fe510 1.997 . S
O515 C531 1.235 . S
O516 Fe510 2.002 . S
O516 C517 1.295 . S
C517 O516 1.295 . S
C517 O519 1.235 . S
C518 O523 1.287 . S
C518 O524 1.255 . S
O519 Fe511 1.997 . S
O519 C517 1.235 . S
C520 O526 1.287 . S
C520 O527 1.255 . S
O521 Fe510 1.976 . S
O521 C528 1.287 . S
O522 Fe511 1.996 . S
O522 C528 1.255 . S
O523 Fe513 1.976 . S
O523 C518 1.287 . S
O524 Fe510 1.996 . S
O524 C518 1.255 . S
C525 O529 1.295 . S
C525 O530 1.235 . S
O526 Fe511 1.976 . S
O526 C520 1.287 . S
O527 Fe513 1.996 . S
O527 C520 1.255 . S
C528 O521 1.287 . S
C528 O522 1.255 . S
O529 Fe511 2.002 . S
O529 C525 1.295 . S
O530 Fe513 1.997 . S
O530 C525 1.235 . S
C531 O514 1.295 . S
C531 O515 1.235 . S
Fe532 O534 1.918 . S
Fe532 O537 1.997 . S
Fe532 O538 2.002 . S
Fe532 O543 1.976 . S
Fe532 O546 1.996 . S
Fe533 O534 1.918 . S
Fe533 O541 1.997 . S
Fe533 O544 1.996 . S
Fe533 O548 1.976 . S
Fe533 O551 2.002 . S
O534 Fe532 1.918 . S
O534 Fe533 1.918 . S
O534 Fe535 1.918 . S
Fe535 O534 1.918 . S
Fe535 O536 2.002 . S
Fe535 O545 1.976 . S
Fe535 O549 1.996 . S
Fe535 O552 1.997 . S
O536 Fe535 2.002 . S
O536 C553 1.295 . S
O537 Fe532 1.997 . S
O537 C553 1.235 . S
O538 Fe532 2.002 . S
O538 C539 1.295 . S
C539 O538 1.295 . S
C539 O541 1.235 . S
C540 O545 1.287 . S
C540 O546 1.255 . S
O541 Fe533 1.997 . S
O541 C539 1.235 . S
C542 O548 1.287 . S
C542 O549 1.255 . S
O543 Fe532 1.976 . S
O543 C550 1.287 . S
O544 Fe533 1.996 . S
O544 C550 1.255 . S
O545 Fe535 1.976 . S
O545 C540 1.287 . S
O546 Fe532 1.996 . S
O546 C540 1.255 . S
C547 O551 1.295 . S
C547 O552 1.235 . S
O548 Fe533 1.976 . S
O548 C542 1.287 . S
O549 Fe535 1.996 . S
O549 C542 1.255 . S
C550 O543 1.287 . S
C550 O544 1.255 . S
O551 Fe533 2.002 . S
O551 C547 1.295 . S
O552 Fe535 1.997 . S
O552 C547 1.235 . S
C553 O536 1.295 . S
C553 O537 1.235 . S
Fe554 O556 1.918 . S
Fe554 O559 1.997 . S
Fe554 O560 2.002 . S
Fe554 O565 1.976 . S
Fe554 O568 1.996 . S
Fe555 O556 1.918 . S
Fe555 O563 1.997 . S
Fe555 O566 1.996 . S
Fe555 O570 1.976 . S
Fe555 O573 2.002 . S
O556 Fe554 1.918 . S
O556 Fe555 1.918 . S
O556 Fe557 1.918 . S
Fe557 O556 1.918 . S
Fe557 O558 2.002 . S
Fe557 O567 1.976 . S
Fe557 O571 1.996 . S
Fe557 O574 1.997 . S
O558 Fe557 2.002 . S
O558 C575 1.295 . S
O559 Fe554 1.997 . S
O559 C575 1.235 . S
O560 Fe554 2.002 . S
O560 C561 1.295 . S
C561 O560 1.295 . S
C561 O563 1.235 . S
C562 O567 1.287 . S
C562 O568 1.255 . S
O563 Fe555 1.997 . S
O563 C561 1.235 . S
C564 O570 1.287 . S
C564 O571 1.255 . S
O565 Fe554 1.976 . S
O565 C572 1.287 . S
O566 Fe555 1.996 . S
O566 C572 1.255 . S
O567 Fe557 1.976 . S
O567 C562 1.287 . S
O568 Fe554 1.996 . S
O568 C562 1.255 . S
C569 O573 1.295 . S
C569 O574 1.235 . S
O570 Fe555 1.976 . S
O570 C564 1.287 . S
O571 Fe557 1.996 . S
O571 C564 1.255 . S
C572 O565 1.287 . S
C572 O566 1.255 . S
O573 Fe555 2.002 . S
O573 C569 1.295 . S
O574 Fe557 1.997 . S
O574 C569 1.235 . S
C575 O558 1.295 . S
C575 O559 1.235 . S
Fe576 O578 1.918 . S
Fe576 O581 1.997 . S
Fe576 O582 2.002 . S
Fe576 O587 1.976 . S
Fe576 O590 1.996 . S
Fe577 O578 1.918 . S
Fe577 O585 1.997 . S
Fe577 O588 1.996 . S
Fe577 O592 1.976 . S
Fe577 O595 2.002 . S
O578 Fe576 1.918 . S
O578 Fe577 1.918 . S
O578 Fe579 1.918 . S
Fe579 O578 1.918 . S
Fe579 O580 2.002 . S
Fe579 O589 1.976 . S
Fe579 O593 1.996 . S
Fe579 O596 1.997 . S
O580 Fe579 2.002 . S
O580 C597 1.295 . S
O581 Fe576 1.997 . S
O581 C597 1.235 . S
O582 Fe576 2.002 . S
O582 C583 1.295 . S
C583 O582 1.295 . S
C583 O585 1.235 . S
C584 O589 1.287 . S
C584 O590 1.255 . S
O585 Fe577 1.997 . S
O585 C583 1.235 . S
C586 O592 1.287 . S
C586 O593 1.255 . S
O587 Fe576 1.976 . S
O587 C594 1.287 . S
O588 Fe577 1.996 . S
O588 C594 1.255 . S
O589 Fe579 1.976 . S
O589 C584 1.287 . S
O590 Fe576 1.996 . S
O590 C584 1.255 . S
C591 O595 1.295 . S
C591 O596 1.235 . S
O592 Fe577 1.976 . S
O592 C586 1.287 . S
O593 Fe579 1.996 . S
O593 C586 1.255 . S
C594 O587 1.287 . S
C594 O588 1.255 . S
O595 Fe577 2.002 . S
O595 C591 1.295 . S
O596 Fe579 1.997 . S
O596 C591 1.235 . S
C597 O580 1.295 . S
C597 O581 1.235 . S
Fe598 O600 1.918 . S
Fe598 O603 1.997 . S
Fe598 O604 2.002 . S
Fe598 O609 1.976 . S
Fe598 O612 1.996 . S
Fe599 O600 1.918 . S
Fe599 O607 1.997 . S
Fe599 O610 1.996 . S
Fe599 O614 1.976 . S
Fe599 O617 2.002 . S
O600 Fe598 1.918 . S
O600 Fe599 1.918 . S
O600 Fe601 1.918 . S
Fe601 O600 1.918 . S
Fe601 O602 2.002 . S
Fe601 O611 1.976 . S
Fe601 O615 1.996 . S
Fe601 O618 1.997 . S
O602 Fe601 2.002 . S
O602 C619 1.295 . S
O603 Fe598 1.997 . S
O603 C619 1.235 . S
O604 Fe598 2.002 . S
O604 C605 1.295 . S
C605 O604 1.295 . S
C605 O607 1.235 . S
C606 O611 1.287 . S
C606 O612 1.255 . S
O607 Fe599 1.997 . S
O607 C605 1.235 . S
C608 O614 1.287 . S
C608 O615 1.255 . S
O609 Fe598 1.976 . S
O609 C616 1.287 . S
O610 Fe599 1.996 . S
O610 C616 1.255 . S
O611 Fe601 1.976 . S
O611 C606 1.287 . S
O612 Fe598 1.996 . S
O612 C606 1.255 . S
C613 O617 1.295 . S
C613 O618 1.235 . S
O614 Fe599 1.976 . S
O614 C608 1.287 . S
O615 Fe601 1.996 . S
O615 C608 1.255 . S
C616 O609 1.287 . S
C616 O610 1.255 . S
O617 Fe599 2.002 . S
O617 C613 1.295 . S
O618 Fe601 1.997 . S
O618 C613 1.235 . S
C619 O602 1.295 . S
C619 O603 1.235 . S
Fe620 O622 1.918 . S
Fe620 O625 1.997 . S
Fe620 O626 2.002 . S
Fe620 O631 1.976 . S
Fe620 O634 1.996 . S
Fe621 O622 1.918 . S
Fe621 O629 1.997 . S
Fe621 O632 1.996 . S
Fe621 O636 1.976 . S
Fe621 O639 2.002 . S
O622 Fe620 1.918 . S
O622 Fe621 1.918 . S
O622 Fe623 1.918 . S
Fe623 O622 1.918 . S
Fe623 O624 2.002 . S
Fe623 O633 1.976 . S
Fe623 O637 1.996 . S
Fe623 O640 1.997 . S
O624 Fe623 2.002 . S
O624 C641 1.295 . S
O625 Fe620 1.997 . S
O625 C641 1.235 . S
O626 Fe620 2.002 . S
O626 C627 1.295 . S
C627 O626 1.295 . S
C627 O629 1.235 . S
C628 O633 1.287 . S
C628 O634 1.255 . S
O629 Fe621 1.997 . S
O629 C627 1.235 . S
C630 O636 1.287 . S
C630 O637 1.255 . S
O631 Fe620 1.976 . S
O631 C638 1.287 . S
O632 Fe621 1.996 . S
O632 C638 1.255 . S
O633 Fe623 1.976 . S
O633 C628 1.287 . S
O634 Fe620 1.996 . S
O634 C628 1.255 . S
C635 O639 1.295 . S
C635 O640 1.235 . S
O636 Fe621 1.976 . S
O636 C630 1.287 . S
O637 Fe623 1.996 . S
O637 C630 1.255 . S
C638 O631 1.287 . S
C638 O632 1.255 . S
O639 Fe621 2.002 . S
O639 C635 1.295 . S
O640 Fe623 1.997 . S
O640 C635 1.235 . S
C641 O624 1.295 . S
C641 O625 1.235 . S
Fe642 O644 1.918 . S
Fe642 O647 1.997 . S
Fe642 O648 2.002 . S
Fe642 O653 1.976 . S
Fe642 O656 1.996 . S
Fe643 O644 1.918 . S
Fe643 O651 1.997 . S
Fe643 O654 1.996 . S
Fe643 O658 1.976 . S
Fe643 O661 2.002 . S
O644 Fe642 1.918 . S
O644 Fe643 1.918 . S
O644 Fe645 1.918 . S
Fe645 O644 1.918 . S
Fe645 O646 2.002 . S
Fe645 O655 1.976 . S
Fe645 O659 1.996 . S
Fe645 O662 1.997 . S
O646 Fe645 2.002 . S
O646 C663 1.295 . S
O647 Fe642 1.997 . S
O647 C663 1.235 . S
O648 Fe642 2.002 . S
O648 C649 1.295 . S
C649 O648 1.295 . S
C649 O651 1.235 . S
C650 O655 1.287 . S
C650 O656 1.255 . S
O651 Fe643 1.997 . S
O651 C649 1.235 . S
C652 O658 1.287 . S
C652 O659 1.255 . S
O653 Fe642 1.976 . S
O653 C660 1.287 . S
O654 Fe643 1.996 . S
O654 C660 1.255 . S
O655 Fe645 1.976 . S
O655 C650 1.287 . S
O656 Fe642 1.996 . S
O656 C650 1.255 . S
C657 O661 1.295 . S
C657 O662 1.235 . S
O658 Fe643 1.976 . S
O658 C652 1.287 . S
O659 Fe645 1.996 . S
O659 C652 1.255 . S
C660 O653 1.287 . S
C660 O654 1.255 . S
O661 Fe643 2.002 . S
O661 C657 1.295 . S
O662 Fe645 1.997 . S
O662 C657 1.235 . S
C663 O646 1.295 . S
C663 O647 1.235 . S
H664 C672 0.950 . S
H665 C677 0.950 . S
H666 C674 0.950 . S
H667 C676 0.950 . S
H668 C678 0.950 . S
H669 C680 0.950 . S
H670 C682 0.950 . S
H671 C683 0.950 . S
C672 H664 0.950 . S
C672 C673 1.386 . S
C672 C674 1.391 . S
C673 C672 1.386 . S
C673 C677 1.393 . S
C674 H666 0.950 . S
C674 C672 1.391 . S
C674 C675 1.400 . S
C675 C674 1.400 . S
C675 C676 1.398 . S
C675 C681 1.491 . S
C676 H667 0.950 . S
C676 C675 1.398 . S
C676 C677 1.391 . S
C677 H665 0.950 . S
C677 C673 1.393 . S
C677 C676 1.391 . S
C678 H668 0.950 . S
C678 C679 1.386 . S
C678 C680 1.391 . S
C679 C678 1.386 . S
C679 C683 1.393 . S
C680 H669 0.950 . S
C680 C678 1.391 . S
C680 C681 1.400 . S
C681 C675 1.491 . S
C681 C680 1.400 . S
C681 C682 1.398 . S
C682 H670 0.950 . S
C682 C681 1.398 . S
C682 C683 1.391 . S
C683 H671 0.950 . S
C683 C679 1.393 . S
C683 C682 1.391 . S
H684 C692 0.950 . S
H685 C697 0.950 . S
H686 C694 0.950 . S
H687 C696 0.950 . S
H688 C698 0.950 . S
H689 C700 0.950 . S
H690 C702 0.950 . S
H691 C703 0.950 . S
C692 H684 0.950 . S
C692 C693 1.386 . S
C692 C694 1.391 . S
C693 C692 1.386 . S
C693 C697 1.393 . S
C694 H686 0.950 . S
C694 C692 1.391 . S
C694 C695 1.400 . S
C695 C694 1.400 . S
C695 C696 1.398 . S
C695 C701 1.491 . S
C696 H687 0.950 . S
C696 C695 1.398 . S
C696 C697 1.391 . S
C697 H685 0.950 . S
C697 C693 1.393 . S
C697 C696 1.391 . S
C698 H688 0.950 . S
C698 C699 1.386 . S
C698 C700 1.391 . S
C699 C698 1.386 . S
C699 C703 1.393 . S
C700 H689 0.950 . S
C700 C698 1.391 . S
C700 C701 1.400 . S
C701 C695 1.491 . S
C701 C700 1.400 . S
C701 C702 1.398 . S
C702 H690 0.950 . S
C702 C701 1.398 . S
C702 C703 1.391 . S
C703 H691 0.950 . S
C703 C699 1.393 . S
C703 C702 1.391 . S
H704 C712 0.950 . S
H705 C717 0.950 . S
H706 C714 0.950 . S
H707 C716 0.950 . S
H708 C718 0.950 . S
H709 C720 0.950 . S
H710 C722 0.950 . S
H711 C723 0.950 . S
C712 H704 0.950 . S
C712 C713 1.386 . S
C712 C714 1.391 . S
C713 C712 1.386 . S
C713 C717 1.393 . S
C714 H706 0.950 . S
C714 C712 1.391 . S
C714 C715 1.400 . S
C715 C714 1.400 . S
C715 C716 1.398 . S
C715 C721 1.491 . S
C716 H707 0.950 . S
C716 C715 1.398 . S
C716 C717 1.391 . S
C717 H705 0.950 . S
C717 C713 1.393 . S
C717 C716 1.391 . S
C718 H708 0.950 . S
C718 C719 1.386 . S
C718 C720 1.391 . S
C719 C718 1.386 . S
C719 C723 1.393 . S
C720 H709 0.950 . S
C720 C718 1.391 . S
C720 C721 1.400 . S
C721 C715 1.491 . S
C721 C720 1.400 . S
C721 C722 1.398 . S
C722 H710 0.950 . S
C722 C721 1.398 . S
C722 C723 1.391 . S
C723 H711 0.950 . S
C723 C719 1.393 . S
C723 C722 1.391 . S
H724 C732 0.950 . S
H725 C737 0.950 . S
H726 C734 0.950 . S
H727 C736 0.950 . S
H728 C738 0.950 . S
H729 C740 0.967 . S
H730 C742 0.950 1_554 S
H731 C743 0.950 . S
C732 H724 0.950 . S
C732 C733 1.386 . S
C732 C734 1.391 . S
C733 C732 1.386 . S
C733 C737 1.393 . S
C734 H726 0.950 . S
C734 C732 1.391 . S
C734 C735 1.400 . S
C735 C734 1.400 . S
C735 C736 1.398 . S
C735 C741 1.491 . S
C736 H727 0.950 . S
C736 C735 1.398 . S
C736 C737 1.391 . S
C737 H725 0.950 . S
C737 C733 1.393 . S
C737 C736 1.391 . S
C738 H728 0.950 . S
C738 C739 1.386 . S
C738 C740 1.391 . S
C739 C738 1.386 . S
C739 C743 1.393 . S
C740 H729 0.967 . S
C740 C738 1.391 . S
C740 C741 1.400 1_556 S
C741 C735 1.491 . S
C741 C740 1.400 1_554 S
C741 C742 1.398 1_554 S
C742 H730 0.950 1_556 S
C742 C741 1.398 1_556 S
C742 C743 1.391 . S
C743 H731 0.950 . S
C743 C739 1.393 . S
C743 C742 1.391 . S
H744 C752 0.950 . S
H745 C757 0.932 1_655 S
H746 C754 0.950 . S
H747 C756 0.950 . S
H748 C758 0.950 . S
H749 C760 0.950 . S
H750 C762 0.950 . S
H751 C763 0.950 . S
C752 H744 0.950 . S
C752 C753 1.386 . S
C752 C754 1.391 . S
C753 C752 1.386 . S
C753 C757 1.393 . S
C754 H746 0.950 . S
C754 C752 1.391 . S
C754 C755 1.400 . S
C755 C754 1.400 . S
C755 C756 1.398 . S
C755 C761 1.491 . S
C756 H747 0.950 . S
C756 C755 1.398 . S
C756 C757 1.391 . S
C757 H745 0.932 1_455 S
C757 C753 1.393 . S
C757 C756 1.391 . S
C758 H748 0.950 . S
C758 C759 1.386 . S
C758 C760 1.391 . S
C759 C758 1.386 . S
C759 C763 1.393 . S
C760 H749 0.950 . S
C760 C758 1.391 . S
C760 C761 1.400 . S
C761 C755 1.491 . S
C761 C760 1.400 . S
C761 C762 1.398 . S
C762 H750 0.950 . S
C762 C761 1.398 . S
C762 C763 1.391 . S
C763 H751 0.950 . S
C763 C759 1.393 . S
C763 C762 1.391 . S
H764 C772 0.950 . S
H765 C777 0.950 . S
H766 C774 0.950 . S
H767 C776 0.950 . S
H768 C778 0.950 . S
H769 C780 0.950 . S
H770 C782 0.950 . S
H771 C783 0.950 . S
C772 H764 0.950 . S
C772 C773 1.386 . S
C772 C774 1.391 . S
C773 C772 1.386 . S
C773 C777 1.393 . S
C774 H766 0.950 . S
C774 C772 1.391 . S
C774 C775 1.400 . S
C775 C774 1.400 . S
C775 C776 1.398 . S
C775 C781 1.491 . S
C776 H767 0.950 . S
C776 C775 1.398 . S
C776 C777 1.391 . S
C777 H765 0.950 . S
C777 C773 1.393 . S
C777 C776 1.391 . S
C778 H768 0.950 . S
C778 C779 1.386 . S
C778 C780 1.391 . S
C779 C778 1.386 . S
C779 C783 1.393 . S
C780 H769 0.950 . S
C780 C778 1.391 . S
C780 C781 1.400 . S
C781 C775 1.491 . S
C781 C780 1.400 . S
C781 C782 1.398 . S
C782 H770 0.950 . S
C782 C781 1.398 . S
C782 C783 1.391 . S
C783 H771 0.950 . S
C783 C779 1.393 . S
C783 C782 1.391 . S
H784 C792 0.950 . S
H785 C797 0.950 . S
H786 C794 0.950 . S
H787 C796 0.950 . S
H788 C798 0.950 . S
H789 C800 0.950 . S
H790 C802 0.950 . S
H791 C803 0.950 . S
C792 H784 0.950 . S
C792 C793 1.386 . S
C792 C794 1.391 . S
C793 C792 1.386 . S
C793 C797 1.393 . S
C794 H786 0.950 . S
C794 C792 1.391 . S
C794 C795 1.400 . S
C795 C794 1.400 . S
C795 C796 1.398 . S
C795 C801 1.491 . S
C796 H787 0.950 . S
C796 C795 1.398 . S
C796 C797 1.391 . S
C797 H785 0.950 . S
C797 C793 1.393 . S
C797 C796 1.391 . S
C798 H788 0.950 . S
C798 C799 1.386 . S
C798 C800 1.391 . S
C799 C798 1.386 . S
C799 C803 1.393 . S
C800 H789 0.950 . S
C800 C798 1.391 . S
C800 C801 1.400 . S
C801 C795 1.491 . S
C801 C800 1.400 . S
C801 C802 1.398 . S
C802 H790 0.950 . S
C802 C801 1.398 . S
C802 C803 1.391 . S
C803 H791 0.950 . S
C803 C799 1.393 . S
C803 C802 1.391 . S
H804 C812 0.950 . S
H805 C817 0.950 . S
H806 C814 0.950 . S
H807 C816 0.950 . S
H808 C818 0.950 . S
H809 C820 0.950 . S
H810 C822 0.950 1_556 S
H811 C823 0.950 . S
C812 H804 0.950 . S
C812 C813 1.386 . S
C812 C814 1.391 . S
C813 C812 1.386 . S
C813 C817 1.393 . S
C814 H806 0.950 . S
C814 C812 1.391 . S
C814 C815 1.400 . S
C815 C814 1.400 . S
C815 C816 1.398 . S
C815 C821 1.491 1_556 S
C816 H807 0.950 . S
C816 C815 1.398 . S
C816 C817 1.391 . S
C817 H805 0.950 . S
C817 C813 1.393 . S
C817 C816 1.391 . S
C818 H808 0.950 . S
C818 C819 1.386 . S
C818 C820 1.391 . S
C819 C818 1.386 . S
C819 C823 1.393 . S
C820 H809 0.950 . S
C820 C818 1.391 . S
C820 C821 1.400 . S
C821 C815 1.491 1_554 S
C821 C820 1.400 . S
C821 C822 1.398 . S
C822 H810 0.950 1_554 S
C822 C821 1.398 . S
C822 C823 1.391 . S
C823 H811 0.950 . S
C823 C819 1.393 . S
C823 C822 1.391 . S
H824 C832 0.950 . S
H825 C837 0.950 . S
H826 C834 0.950 . S
H827 C836 0.950 . S
H828 C838 0.950 . S
H829 C840 0.950 . S
H830 C842 0.950 . S
H831 C843 0.950 . S
C832 H824 0.950 . S
C832 C833 1.386 . S
C832 C834 1.391 . S
C833 C832 1.386 . S
C833 C837 1.393 . S
C834 H826 0.950 . S
C834 C832 1.391 . S
C834 C835 1.400 . S
C835 C834 1.400 . S
C835 C836 1.398 . S
C835 C841 1.491 . S
C836 H827 0.950 . S
C836 C835 1.398 . S
C836 C837 1.391 . S
C837 H825 0.950 . S
C837 C833 1.393 . S
C837 C836 1.391 . S
C838 H828 0.950 . S
C838 C839 1.386 . S
C838 C840 1.391 . S
C839 C838 1.386 . S
C839 C843 1.393 . S
C840 H829 0.950 . S
C840 C838 1.391 . S
C840 C841 1.400 . S
C841 C835 1.491 . S
C841 C840 1.400 . S
C841 C842 1.398 . S
C842 H830 0.950 . S
C842 C841 1.398 . S
C842 C843 1.391 . S
C843 H831 0.950 . S
C843 C839 1.393 . S
C843 C842 1.391 . S
H844 C852 0.950 . S
H845 C857 0.950 . S
H846 C854 0.950 . S
H847 C856 0.950 . S
H848 C858 0.950 . S
H849 C860 0.950 . S
H850 C862 0.950 . S
H851 C863 0.950 . S
C852 H844 0.950 . S
C852 C853 1.386 . S
C852 C854 1.391 . S
C853 C852 1.386 . S
C853 C857 1.393 . S
C854 H846 0.950 . S
C854 C852 1.391 . S
C854 C855 1.400 . S
C855 C854 1.400 . S
C855 C856 1.398 . S
C855 C861 1.491 . S
C856 H847 0.950 . S
C856 C855 1.398 . S
C856 C857 1.391 . S
C857 H845 0.950 . S
C857 C853 1.393 . S
C857 C856 1.391 . S
C858 H848 0.950 . S
C858 C859 1.386 . S
C858 C860 1.391 1_565 S
C859 C858 1.386 . S
C859 C863 1.393 . S
C860 H849 0.950 . S
C860 C858 1.391 1_545 S
C860 C861 1.400 . S
C861 C855 1.491 . S
C861 C860 1.400 . S
C861 C862 1.398 1_545 S
C862 H850 0.950 . S
C862 C861 1.398 1_565 S
C862 C863 1.391 . S
C863 H851 0.950 . S
C863 C859 1.393 . S
C863 C862 1.391 . S
H864 C872 0.950 . S
H865 C877 0.950 1_545 S
H866 C874 0.950 . S
H867 C876 0.950 . S
H868 C878 0.950 . S
H869 C880 0.950 . S
H870 C882 0.950 . S
H871 C883 0.950 . S
C872 H864 0.950 . S
C872 C873 1.386 . S
C872 C874 1.391 . S
C873 C872 1.386 . S
C873 C877 1.393 . S
C874 H866 0.950 . S
C874 C872 1.391 . S
C874 C875 1.400 . S
C875 C874 1.400 . S
C875 C876 1.398 . S
C875 C881 1.491 . S
C876 H867 0.950 . S
C876 C875 1.398 . S
C876 C877 1.391 . S
C877 H865 0.950 1_565 S
C877 C873 1.393 . S
C877 C876 1.391 . S
C878 H868 0.950 . S
C878 C879 1.386 . S
C878 C880 1.391 . S
C879 C878 1.386 . S
C879 C883 1.393 . S
C880 H869 0.950 . S
C880 C878 1.391 . S
C880 C881 1.400 . S
C881 C875 1.491 . S
C881 C880 1.400 . S
C881 C882 1.398 . S
C882 H870 0.950 . S
C882 C881 1.398 . S
C882 C883 1.391 . S
C883 H871 0.950 . S
C883 C879 1.393 . S
C883 C882 1.391 . S
H884 C892 0.950 . S
H885 C897 0.950 . S
H886 C894 0.950 . S
H887 C896 0.950 . S
H888 C898 0.950 . S
H889 C900 0.950 1_565 S
H890 C902 0.950 . S
H891 C903 0.950 . S
C892 H884 0.950 . S
C892 C893 1.386 . S
C892 C894 1.391 . S
C893 C892 1.386 . S
C893 C897 1.393 . S
C894 H886 0.950 . S
C894 C892 1.391 . S
C894 C895 1.400 . S
C895 C894 1.400 . S
C895 C896 1.398 . S
C895 C901 1.491 1_565 S
C896 H887 0.950 . S
C896 C895 1.398 . S
C896 C897 1.391 . S
C897 H885 0.950 . S
C897 C893 1.393 . S
C897 C896 1.391 . S
C898 H888 0.950 . S
C898 C899 1.386 . S
C898 C900 1.391 . S
C899 C898 1.386 . S
C899 C903 1.393 . S
C900 H889 0.950 1_545 S
C900 C898 1.391 . S
C900 C901 1.400 . S
C901 C895 1.491 1_545 S
C901 C900 1.400 . S
C901 C902 1.398 . S
C902 H890 0.950 . S
C902 C901 1.398 . S
C902 C903 1.391 . S
C903 H891 0.950 . S
C903 C899 1.393 . S
C903 C902 1.391 . S
H904 C912 0.950 . S
H905 C917 0.950 . S
H906 C914 0.950 . S
H907 C916 0.950 . S
H908 C918 0.950 . S
H909 C920 0.950 . S
H910 C922 0.950 . S
H911 C923 0.950 . S
C912 H904 0.950 . S
C912 C913 1.386 . S
C912 C914 1.391 . S
C913 C912 1.386 . S
C913 C917 1.393 . S
C914 H906 0.950 . S
C914 C912 1.391 . S
C914 C915 1.400 . S
C915 C914 1.400 . S
C915 C916 1.398 . S
C915 C921 1.491 . S
C916 H907 0.950 . S
C916 C915 1.398 . S
C916 C917 1.391 . S
C917 H905 0.950 . S
C917 C913 1.393 . S
C917 C916 1.391 . S
C918 H908 0.950 . S
C918 C919 1.386 . S
C918 C920 1.391 . S
C919 C918 1.386 . S
C919 C923 1.393 . S
C920 H909 0.950 . S
C920 C918 1.391 . S
C920 C921 1.400 . S
C921 C915 1.491 . S
C921 C920 1.400 . S
C921 C922 1.398 . S
C922 H910 0.950 . S
C922 C921 1.398 . S
C922 C923 1.391 . S
C923 H911 0.950 . S
C923 C919 1.393 . S
C923 C922 1.391 . S
H924 C932 0.950 . S
H925 C937 0.950 . S
H926 C934 0.950 . S
H927 C936 0.950 . S
H928 C938 0.950 . S
H929 C940 0.965 . S
H930 C942 0.950 . S
H931 C943 0.950 . S
C932 H924 0.950 . S
C932 C933 1.386 . S
C932 C934 1.391 . S
C933 C932 1.386 . S
C933 C937 1.393 . S
C934 H926 0.950 . S
C934 C932 1.391 . S
C934 C935 1.400 . S
C935 C934 1.400 . S
C935 C936 1.398 . S
C935 C941 1.491 . S
C936 H927 0.950 . S
C936 C935 1.398 . S
C936 C937 1.391 . S
C937 H925 0.950 . S
C937 C933 1.393 . S
C937 C936 1.391 . S
C938 H928 0.950 . S
C938 C939 1.386 . S
C938 C940 1.373 1_565 S
C939 C938 1.386 . S
C939 C943 1.393 . S
C940 H929 0.965 . S
C940 C938 1.373 1_545 S
C940 C941 1.405 . S
C941 C935 1.491 . S
C941 C940 1.405 . S
C941 C942 1.398 1_545 S
C942 H930 0.950 . S
C942 C941 1.398 1_565 S
C942 C943 1.391 . S
C943 H931 0.950 . S
C943 C939 1.393 . S
C943 C942 1.391 . S
H944 C952 0.950 . S
H945 C957 0.950 . S
H946 C954 0.950 . S
H947 C956 0.950 . S
H948 C958 0.950 . S
H949 C960 0.950 . S
H950 C962 0.950 . S
H951 C963 0.950 . S
C952 H944 0.950 . S
C952 C953 1.386 . S
C952 C954 1.391 . S
C953 C952 1.386 . S
C953 C957 1.393 . S
C954 H946 0.950 . S
C954 C952 1.391 . S
C954 C955 1.400 . S
C955 C954 1.400 . S
C955 C956 1.398 . S
C955 C961 1.491 . S
C956 H947 0.950 . S
C956 C955 1.398 . S
C956 C957 1.391 . S
C957 H945 0.950 . S
C957 C953 1.393 . S
C957 C956 1.391 . S
C958 H948 0.950 . S
C958 C959 1.386 . S
C958 C960 1.391 . S
C959 C958 1.386 . S
C959 C963 1.393 . S
C960 H949 0.950 . S
C960 C958 1.391 . S
C960 C961 1.400 . S
C961 C955 1.491 . S
C961 C960 1.400 . S
C961 C962 1.398 . S
C962 H950 0.950 . S
C962 C961 1.398 . S
C962 C963 1.391 . S
C963 H951 0.950 . S
C963 C959 1.393 . S
C963 C962 1.391 . S
H964 C972 0.950 . S
H965 C977 0.950 . S
H966 C974 0.950 . S
H967 C976 0.950 . S
H968 C978 0.950 . S
H969 C980 0.950 . S
H970 C982 0.943 1_565 S
H971 C983 0.950 . S
C972 H964 0.950 . S
C972 C973 1.386 . S
C972 C974 1.391 . S
C973 C972 1.386 . S
C973 C977 1.393 . S
C974 H966 0.950 . S
C974 C972 1.391 . S
C974 C975 1.400 . S
C975 C974 1.400 . S
C975 C976 1.398 . S
C975 C981 1.491 1_565 S
C976 H967 0.950 . S
C976 C975 1.398 . S
C976 C977 1.391 . S
C977 H965 0.950 . S
C977 C973 1.393 . S
C977 C976 1.391 . S
C978 H968 0.950 . S
C978 C979 1.386 . S
C978 C980 1.391 . S
C979 C978 1.386 . S
C979 C983 1.393 . S
C980 H969 0.950 . S
C980 C978 1.391 . S
C980 C981 1.400 . S
C981 C975 1.491 1_545 S
C981 C980 1.400 . S
C981 C982 1.398 . S
C982 H970 0.943 1_545 S
C982 C981 1.398 . S
C982 C983 1.391 . S
C983 H971 0.950 . S
C983 C979 1.393 . S
C983 C982 1.391 . S
H984 C992 0.950 . S
H985 C997 0.950 . S
H986 C994 0.950 . S
H987 C996 0.950 . S
H988 C998 0.950 . S
H989 C1000 0.950 . S
H990 C1002 0.950 . S
H991 C1003 0.950 . S
C992 H984 0.950 . S
C992 C993 1.386 . S
C992 C994 1.391 . S
C993 C992 1.386 . S
C993 C997 1.393 . S
C994 H986 0.950 . S
C994 C992 1.391 . S
C994 C995 1.400 . S
C995 C994 1.400 . S
C995 C996 1.398 . S
C995 C1001 1.491 . S
C996 H987 0.950 . S
C996 C995 1.398 . S
C996 C997 1.391 . S
C997 H985 0.950 . S
C997 C993 1.393 . S
C997 C996 1.391 . S
C998 H988 0.950 . S
C998 C999 1.386 . S
C998 C1000 1.391 . S
C999 C998 1.386 . S
C999 C1003 1.393 . S
C1000 H989 0.950 . S
C1000 C998 1.391 . S
C1000 C1001 1.400 . S
C1001 C995 1.491 . S
C1001 C1000 1.400 . S
C1001 C1002 1.398 . S
C1002 H990 0.950 . S
C1002 C1001 1.398 . S
C1002 C1003 1.391 . S
C1003 H991 0.950 . S
C1003 C999 1.393 . S
C1003 C1002 1.391 . S
H1004 C1012 0.950 . S
H1005 C1017 0.950 . S
H1006 C1014 0.950 . S
H1007 C1016 0.950 . S
H1008 C1018 0.950 . S
H1009 C1020 0.950 . S
H1010 C1022 0.950 . S
H1011 C1023 0.950 . S
C1012 H1004 0.950 . S
C1012 C1013 1.386 . S
C1012 C1014 1.391 . S
C1013 C1012 1.386 . S
C1013 C1017 1.393 . S
C1014 H1006 0.950 . S
C1014 C1012 1.391 . S
C1014 C1015 1.400 . S
C1015 C1014 1.400 . S
C1015 C1016 1.398 . S
C1015 C1021 1.491 . S
C1016 H1007 0.950 . S
C1016 C1015 1.398 . S
C1016 C1017 1.391 . S
C1017 H1005 0.950 . S
C1017 C1013 1.393 . S
C1017 C1016 1.391 . S
C1018 H1008 0.950 . S
C1018 C1019 1.386 . S
C1018 C1020 1.391 . S
C1019 C1018 1.386 . S
C1019 C1023 1.393 . S
C1020 H1009 0.950 . S
C1020 C1018 1.391 . S
C1020 C1021 1.400 . S
C1021 C1015 1.491 . S
C1021 C1020 1.400 . S
C1021 C1022 1.398 . S
C1022 H1010 0.950 . S
C1022 C1021 1.398 . S
C1022 C1023 1.391 . S
C1023 H1011 0.950 . S
C1023 C1019 1.393 . S
C1023 C1022 1.391 . S
H1024 C1032 0.950 . S
H1025 C1037 0.950 . S
H1026 C1034 0.950 . S
H1027 C1036 0.950 . S
H1028 C1038 0.950 . S
H1029 C1040 0.950 . S
H1030 C1042 0.950 . S
H1031 C1043 0.950 . S
C1032 H1024 0.950 . S
C1032 C1033 1.386 . S
C1032 C1034 1.391 . S
C1033 C1032 1.386 . S
C1033 C1037 1.393 . S
C1034 H1026 0.950 . S
C1034 C1032 1.391 . S
C1034 C1035 1.400 . S
C1035 C1034 1.400 . S
C1035 C1036 1.398 . S
C1035 C1041 1.477 1_455 S
C1036 H1027 0.950 . S
C1036 C1035 1.398 . S
C1036 C1037 1.391 . S
C1037 H1025 0.950 . S
C1037 C1033 1.393 . S
C1037 C1036 1.391 . S
C1038 H1028 0.950 . S
C1038 C1039 1.386 . S
C1038 C1040 1.391 . S
C1039 C1038 1.386 . S
C1039 C1043 1.393 . S
C1040 H1029 0.950 . S
C1040 C1038 1.391 . S
C1040 C1041 1.408 . S
C1041 C1035 1.477 1_655 S
C1041 C1040 1.408 . S
C1041 C1042 1.405 . S
C1042 H1030 0.950 . S
C1042 C1041 1.405 . S
C1042 C1043 1.391 . S
C1043 H1031 0.950 . S
C1043 C1039 1.393 . S
C1043 C1042 1.391 . S
H1044 C1052 0.950 . S
H1045 C1057 0.950 . S
H1046 C1054 0.950 . S
H1047 C1056 0.950 . S
H1048 C1058 0.950 . S
H1049 C1060 0.950 . S
H1050 C1062 0.950 . S
H1051 C1063 0.950 . S
C1052 H1044 0.950 . S
C1052 C1053 1.386 . S
C1052 C1054 1.391 . S
C1053 C1052 1.386 . S
C1053 C1057 1.393 . S
C1054 H1046 0.950 . S
C1054 C1052 1.391 . S
C1054 C1055 1.400 . S
C1055 C1054 1.400 . S
C1055 C1056 1.398 . S
C1055 C1061 1.491 . S
C1056 H1047 0.950 . S
C1056 C1055 1.398 . S
C1056 C1057 1.391 . S
C1057 H1045 0.950 . S
C1057 C1053 1.393 . S
C1057 C1056 1.391 . S
C1058 H1048 0.950 . S
C1058 C1059 1.386 . S
C1058 C1060 1.391 . S
C1059 C1058 1.386 . S
C1059 C1063 1.393 . S
C1060 H1049 0.950 . S
C1060 C1058 1.391 . S
C1060 C1061 1.400 . S
C1061 C1055 1.491 . S
C1061 C1060 1.400 . S
C1061 C1062 1.398 . S
C1062 H1050 0.950 . S
C1062 C1061 1.398 . S
C1062 C1063 1.391 . S
C1063 H1051 0.950 . S
C1063 C1059 1.393 . S
C1063 C1062 1.391 . S
H1064 C1072 0.950 . S
H1065 C1077 0.950 . S
H1066 C1074 0.950 . S
H1067 C1076 0.950 . S
H1068 C1078 0.950 . S
H1069 C1080 0.950 . S
H1070 C1082 0.950 . S
H1071 C1083 0.950 . S
C1072 H1064 0.950 . S
C1072 C1073 1.386 . S
C1072 C1074 1.391 . S
C1073 C1072 1.386 . S
C1073 C1077 1.393 . S
C1074 H1066 0.950 . S
C1074 C1072 1.391 . S
C1074 C1075 1.400 . S
C1075 C1074 1.400 . S
C1075 C1076 1.398 . S
C1075 C1081 1.491 1_655 S
C1076 H1067 0.950 . S
C1076 C1075 1.398 . S
C1076 C1077 1.391 . S
C1077 H1065 0.950 . S
C1077 C1073 1.393 . S
C1077 C1076 1.391 . S
C1078 H1068 0.950 . S
C1078 C1079 1.386 . S
C1078 C1080 1.391 . S
C1079 C1078 1.386 . S
C1079 C1083 1.393 . S
C1080 H1069 0.950 . S
C1080 C1078 1.391 . S
C1080 C1081 1.400 . S
C1081 C1075 1.491 1_455 S
C1081 C1080 1.400 . S
C1081 C1082 1.398 1_455 S
C1082 H1070 0.950 . S
C1082 C1081 1.398 1_655 S
C1082 C1083 1.391 1_655 S
C1083 H1071 0.950 . S
C1083 C1079 1.393 . S
C1083 C1082 1.391 1_455 S
H1084 C1092 0.950 . S
H1085 C1097 0.950 . S
H1086 C1094 0.950 . S
H1087 C1096 0.950 . S
H1088 C1098 0.950 . S
H1089 C1100 0.950 . S
H1090 C1102 0.950 . S
H1091 C1103 0.950 . S
C1092 H1084 0.950 . S
C1092 C1093 1.386 . S
C1092 C1094 1.391 . S
C1093 C1092 1.386 . S
C1093 C1097 1.393 . S
C1094 H1086 0.950 . S
C1094 C1092 1.391 . S
C1094 C1095 1.400 . S
C1095 C1094 1.400 . S
C1095 C1096 1.398 . S
C1095 C1101 1.491 . S
C1096 H1087 0.950 . S
C1096 C1095 1.398 . S
C1096 C1097 1.391 . S
C1097 H1085 0.950 . S
C1097 C1093 1.393 . S
C1097 C1096 1.391 . S
C1098 H1088 0.950 . S
C1098 C1099 1.386 . S
C1098 C1100 1.391 . S
C1099 C1098 1.386 . S
C1099 C1103 1.393 . S
C1100 H1089 0.950 . S
C1100 C1098 1.391 . S
C1100 C1101 1.400 . S
C1101 C1095 1.491 . S
C1101 C1100 1.400 . S
C1101 C1102 1.398 . S
C1102 H1090 0.950 . S
C1102 C1101 1.398 . S
C1102 C1103 1.391 . S
C1103 H1091 0.950 . S
C1103 C1099 1.393 . S
C1103 C1102 1.391 . S
H1104 C1112 0.950 . S
H1105 C1117 0.950 . S
H1106 C1114 0.950 . S
H1107 C1116 0.950 . S
H1108 C1118 0.950 . S
H1109 C1120 0.950 . S
H1110 C1122 0.942 1_455 S
H1111 C1123 0.950 . S
C1112 H1104 0.950 . S
C1112 C1113 1.386 . S
C1112 C1114 1.391 . S
C1113 C1112 1.386 . S
C1113 C1117 1.393 . S
C1114 H1106 0.950 . S
C1114 C1112 1.391 . S
C1114 C1115 1.400 . S
C1115 C1114 1.400 . S
C1115 C1116 1.398 . S
C1115 C1121 1.491 . S
C1116 H1107 0.950 . S
C1116 C1115 1.398 . S
C1116 C1117 1.391 . S
C1117 H1105 0.950 . S
C1117 C1113 1.393 . S
C1117 C1116 1.391 . S
C1118 H1108 0.950 . S
C1118 C1119 1.386 . S
C1118 C1120 1.391 . S
C1119 C1118 1.386 . S
C1119 C1123 1.393 . S
C1120 H1109 0.950 . S
C1120 C1118 1.391 . S
C1120 C1121 1.400 1_655 S
C1121 C1115 1.491 . S
C1121 C1120 1.400 1_455 S
C1121 C1122 1.398 1_455 S
C1122 H1110 0.942 1_655 S
C1122 C1121 1.398 1_655 S
C1122 C1123 1.391 . S
C1123 H1111 0.950 . S
C1123 C1119 1.393 . S
C1123 C1122 1.391 . S
H1124 C1132 0.950 . S
H1125 C1137 0.950 . S
H1126 C1134 0.950 . S
H1127 C1136 0.950 . S
H1128 C1138 0.950 . S
H1129 C1140 0.950 . S
H1130 C1142 0.950 . S
H1131 C1143 0.950 . S
C1132 H1124 0.950 . S
C1132 C1133 1.386 . S
C1132 C1134 1.391 . S
C1133 C1132 1.386 . S
C1133 C1137 1.393 . S
C1134 H1126 0.950 . S
C1134 C1132 1.391 . S
C1134 C1135 1.400 . S
C1135 C1134 1.400 . S
C1135 C1136 1.398 . S
C1135 C1141 1.491 . S
C1136 H1127 0.950 . S
C1136 C1135 1.398 . S
C1136 C1137 1.391 . S
C1137 H1125 0.950 . S
C1137 C1133 1.393 . S
C1137 C1136 1.391 . S
C1138 H1128 0.950 . S
C1138 C1139 1.386 . S
C1138 C1140 1.391 . S
C1139 C1138 1.386 . S
C1139 C1143 1.393 . S
C1140 H1129 0.950 . S
C1140 C1138 1.391 . S
C1140 C1141 1.400 . S
C1141 C1135 1.491 . S
C1141 C1140 1.400 . S
C1141 C1142 1.398 . S
C1142 H1130 0.950 . S
C1142 C1141 1.398 . S
C1142 C1143 1.391 . S
C1143 H1131 0.950 . S
C1143 C1139 1.393 . S
C1143 C1142 1.391 . S
H1144 C1152 0.950 . S
H1145 C1157 0.950 . S
H1146 C1154 0.950 . S
H1147 C1156 0.950 . S
H1148 C1158 0.950 . S
H1149 C1160 0.950 . S
H1150 C1162 0.950 . S
H1151 C1163 0.950 . S
C1152 H1144 0.950 . S
C1152 C1153 1.386 . S
C1152 C1154 1.391 . S
C1153 C1152 1.386 . S
C1153 C1157 1.393 . S
C1154 H1146 0.950 . S
C1154 C1152 1.391 . S
C1154 C1155 1.400 . S
C1155 C1154 1.400 . S
C1155 C1156 1.398 . S
C1155 C1161 1.491 . S
C1156 H1147 0.950 . S
C1156 C1155 1.398 . S
C1156 C1157 1.391 . S
C1157 H1145 0.950 . S
C1157 C1153 1.393 . S
C1157 C1156 1.391 . S
C1158 H1148 0.950 . S
C1158 C1159 1.386 . S
C1158 C1160 1.391 . S
C1159 C1158 1.386 . S
C1159 C1163 1.393 . S
C1160 H1149 0.950 . S
C1160 C1158 1.391 . S
C1160 C1161 1.400 . S
C1161 C1155 1.491 . S
C1161 C1160 1.400 . S
C1161 C1162 1.398 . S
C1162 H1150 0.950 . S
C1162 C1161 1.398 . S
C1162 C1163 1.391 . S
C1163 H1151 0.950 . S
C1163 C1159 1.393 . S
C1163 C1162 1.391 . S
H1164 C1172 0.950 . S
H1165 C1177 0.950 1_455 S
H1166 C1174 0.950 . S
H1167 C1176 0.950 . S
H1168 C1178 0.950 . S
H1169 C1180 0.950 . S
H1170 C1182 0.950 . S
H1171 C1183 0.950 . S
C1172 H1164 0.950 . S
C1172 C1173 1.386 . S
C1172 C1174 1.391 . S
C1173 C1172 1.386 . S
C1173 C1177 1.393 . S
C1174 H1166 0.950 . S
C1174 C1172 1.391 . S
C1174 C1175 1.400 . S
C1175 C1174 1.400 . S
C1175 C1176 1.398 . S
C1175 C1181 1.491 . S
C1176 H1167 0.950 . S
C1176 C1175 1.398 . S
C1176 C1177 1.391 . S
C1177 H1165 0.950 1_655 S
C1177 C1173 1.393 . S
C1177 C1176 1.391 . S
C1178 H1168 0.950 . S
C1178 C1179 1.386 . S
C1178 C1180 1.391 . S
C1179 C1178 1.386 . S
C1179 C1183 1.393 . S
C1180 H1169 0.950 . S
C1180 C1178 1.391 . S
C1180 C1181 1.400 . S
C1181 C1175 1.491 . S
C1181 C1180 1.400 . S
C1181 C1182 1.398 . S
C1182 H1170 0.950 . S
C1182 C1181 1.398 . S
C1182 C1183 1.391 . S
C1183 H1171 0.950 . S
C1183 C1179 1.393 . S
C1183 C1182 1.391 . S
H1184 C1192 0.950 . S
H1185 C1197 0.950 . S
H1186 C1194 0.950 . S
H1187 C1196 0.950 . S
H1188 C1198 0.950 . S
H1189 C1200 0.950 . S
H1190 C1202 0.950 . S
H1191 C1203 0.950 . S
C1192 H1184 0.950 . S
C1192 C1193 1.386 . S
C1192 C1194 1.391 . S
C1193 C1192 1.386 . S
C1193 C1197 1.393 . S
C1194 H1186 0.950 . S
C1194 C1192 1.391 . S
C1194 C1195 1.400 . S
C1195 C1194 1.400 . S
C1195 C1196 1.398 . S
C1195 C1201 1.491 . S
C1196 H1187 0.950 . S
C1196 C1195 1.398 . S
C1196 C1197 1.391 . S
C1197 H1185 0.950 . S
C1197 C1193 1.393 . S
C1197 C1196 1.391 . S
C1198 H1188 0.950 . S
C1198 C1199 1.386 . S
C1198 C1200 1.391 . S
C1199 C1198 1.386 . S
C1199 C1203 1.393 . S
C1200 H1189 0.950 . S
C1200 C1198 1.391 . S
C1200 C1201 1.400 . S
C1201 C1195 1.491 . S
C1201 C1200 1.400 . S
C1201 C1202 1.398 . S
C1202 H1190 0.950 . S
C1202 C1201 1.398 . S
C1202 C1203 1.391 . S
C1203 H1191 0.950 . S
C1203 C1199 1.393 . S
C1203 C1202 1.391 . S
H1204 C1212 0.950 . S
H1205 C1217 0.950 . S
H1206 C1214 0.950 . S
H1207 C1216 0.950 . S
H1208 C1218 0.950 . S
H1209 C1220 0.950 . S
H1210 C1222 0.950 1_556 S
H1211 C1223 0.950 . S
C1212 H1204 0.950 . S
C1212 C1213 1.386 . S
C1212 C1214 1.391 . S
C1213 C1212 1.386 . S
C1213 C1217 1.393 . S
C1214 H1206 0.950 . S
C1214 C1212 1.391 . S
C1214 C1215 1.400 . S
C1215 C1214 1.400 . S
C1215 C1216 1.398 . S
C1215 C1221 1.491 1_556 S
C1216 H1207 0.950 . S
C1216 C1215 1.398 . S
C1216 C1217 1.391 . S
C1217 H1205 0.950 . S
C1217 C1213 1.393 . S
C1217 C1216 1.391 . S
C1218 H1208 0.950 . S
C1218 C1219 1.386 . S
C1218 C1220 1.391 . S
C1219 C1218 1.386 . S
C1219 C1223 1.393 . S
C1220 H1209 0.950 . S
C1220 C1218 1.391 . S
C1220 C1221 1.400 . S
C1221 C1215 1.491 1_554 S
C1221 C1220 1.400 . S
C1221 C1222 1.398 . S
C1222 H1210 0.950 1_554 S
C1222 C1221 1.398 . S
C1222 C1223 1.391 . S
C1223 H1211 0.950 . S
C1223 C1219 1.393 . S
C1223 C1222 1.391 . S
H1224 C1232 0.950 . S
H1225 C1237 0.950 . S
H1226 C1234 0.950 . S
H1227 C1236 0.950 . S
H1228 C1238 0.950 . S
H1229 C1240 0.950 . S
H1230 C1242 0.950 . S
H1231 C1243 0.950 . S
C1232 H1224 0.950 . S
C1232 C1233 1.386 . S
C1232 C1234 1.391 . S
C1233 C1232 1.386 . S
C1233 C1237 1.393 . S
C1234 H1226 0.950 . S
C1234 C1232 1.391 . S
C1234 C1235 1.400 . S
C1235 C1234 1.400 . S
C1235 C1236 1.398 . S
C1235 C1241 1.491 . S
C1236 H1227 0.950 . S
C1236 C1235 1.398 . S
C1236 C1237 1.391 . S
C1237 H1225 0.950 . S
C1237 C1233 1.393 . S
C1237 C1236 1.391 . S
C1238 H1228 0.950 . S
C1238 C1239 1.386 . S
C1238 C1240 1.391 . S
C1239 C1238 1.386 . S
C1239 C1243 1.393 . S
C1240 H1229 0.950 . S
C1240 C1238 1.391 . S
C1240 C1241 1.400 . S
C1241 C1235 1.491 . S
C1241 C1240 1.400 . S
C1241 C1242 1.398 . S
C1242 H1230 0.950 . S
C1242 C1241 1.398 . S
C1242 C1243 1.391 . S
C1243 H1231 0.950 . S
C1243 C1239 1.393 . S
C1243 C1242 1.391 . S
H1244 C1252 0.950 . S
H1245 C1257 0.950 . S
H1246 C1254 0.950 . S
H1247 C1256 0.950 . S
H1248 C1258 0.950 . S
H1249 C1260 0.950 . S
H1250 C1262 0.950 . S
H1251 C1263 0.950 . S
C1252 H1244 0.950 . S
C1252 C1253 1.386 . S
C1252 C1254 1.391 . S
C1253 C1252 1.386 . S
C1253 C1257 1.393 . S
C1254 H1246 0.950 . S
C1254 C1252 1.391 . S
C1254 C1255 1.400 . S
C1255 C1254 1.400 . S
C1255 C1256 1.398 . S
C1255 C1261 1.491 . S
C1256 H1247 0.950 . S
C1256 C1255 1.398 . S
C1256 C1257 1.391 . S
C1257 H1245 0.950 . S
C1257 C1253 1.393 . S
C1257 C1256 1.391 . S
C1258 H1248 0.950 . S
C1258 C1259 1.386 . S
C1258 C1260 1.391 . S
C1259 C1258 1.386 . S
C1259 C1263 1.393 . S
C1260 H1249 0.950 . S
C1260 C1258 1.391 . S
C1260 C1261 1.400 . S
C1261 C1255 1.491 . S
C1261 C1260 1.400 . S
C1261 C1262 1.398 . S
C1262 H1250 0.950 . S
C1262 C1261 1.398 . S
C1262 C1263 1.391 . S
C1263 H1251 0.950 . S
C1263 C1259 1.393 . S
C1263 C1262 1.391 . S
H1264 C1272 0.950 . S
H1265 C1277 0.950 . S
H1266 C1274 0.950 . S
H1267 C1276 0.950 . S
H1268 C1278 0.950 . S
H1269 C1280 0.950 . S
H1270 C1282 0.950 . S
H1271 C1283 0.950 . S
C1272 H1264 0.950 . S
C1272 C1273 1.386 . S
C1272 C1274 1.391 . S
C1273 C1272 1.386 . S
C1273 C1277 1.393 . S
C1274 H1266 0.950 . S
C1274 C1272 1.391 . S
C1274 C1275 1.400 . S
C1275 C1274 1.400 . S
C1275 C1276 1.398 . S
C1275 C1281 1.491 . S
C1276 H1267 0.950 . S
C1276 C1275 1.398 . S
C1276 C1277 1.391 . S
C1277 H1265 0.950 . S
C1277 C1273 1.393 . S
C1277 C1276 1.391 . S
C1278 H1268 0.950 . S
C1278 C1279 1.386 . S
C1278 C1280 1.391 . S
C1279 C1278 1.386 . S
C1279 C1283 1.393 . S
C1280 H1269 0.950 . S
C1280 C1278 1.391 . S
C1280 C1281 1.400 . S
C1281 C1275 1.491 . S
C1281 C1280 1.400 . S
C1281 C1282 1.398 . S
C1282 H1270 0.950 . S
C1282 C1281 1.398 . S
C1282 C1283 1.391 . S
C1283 H1271 0.950 . S
C1283 C1279 1.393 . S
C1283 C1282 1.391 . S
H1284 C1292 0.950 . S
H1285 C1297 0.950 1_455 S
H1286 C1294 0.950 . S
H1287 C1296 0.950 . S
H1288 C1298 0.950 . S
H1289 C1300 0.950 . S
H1290 C1302 0.962 . S
H1291 C1303 0.950 . S
C1292 H1284 0.950 . S
C1292 C1293 1.386 . S
C1292 C1294 1.391 . S
C1293 C1292 1.386 . S
C1293 C1297 1.393 . S
C1294 H1286 0.950 . S
C1294 C1292 1.391 . S
C1294 C1295 1.400 . S
C1295 C1294 1.400 . S
C1295 C1296 1.398 . S
C1295 C1301 1.491 . S
C1296 H1287 0.950 . S
C1296 C1295 1.398 . S
C1296 C1297 1.391 . S
C1297 H1285 0.950 1_655 S
C1297 C1293 1.393 . S
C1297 C1296 1.391 . S
C1298 H1288 0.950 . S
C1298 C1299 1.386 . S
C1298 C1300 1.391 . S
C1299 C1298 1.386 . S
C1299 C1303 1.393 . S
C1300 H1289 0.950 . S
C1300 C1298 1.391 . S
C1300 C1301 1.400 1_556 S
C1301 C1295 1.491 . S
C1301 C1300 1.400 1_554 S
C1301 C1302 1.399 . S
C1302 H1290 0.962 . S
C1302 C1301 1.399 . S
C1302 C1303 1.378 1_554 S
C1303 H1291 0.950 . S
C1303 C1299 1.393 . S
C1303 C1302 1.378 1_556 S
H1304 C1312 0.950 . S
H1305 C1317 0.950 . S
H1306 C1314 0.950 . S
H1307 C1316 0.950 . S
H1308 C1318 0.950 . S
H1309 C1320 0.950 . S
H1310 C1322 0.950 . S
H1311 C1323 0.950 . S
C1312 H1304 0.950 . S
C1312 C1313 1.386 . S
C1312 C1314 1.391 . S
C1313 C1312 1.386 . S
C1313 C1317 1.393 . S
C1314 H1306 0.950 . S
C1314 C1312 1.391 . S
C1314 C1315 1.400 . S
C1315 C1314 1.400 . S
C1315 C1316 1.398 . S
C1315 C1321 1.491 . S
C1316 H1307 0.950 . S
C1316 C1315 1.398 . S
C1316 C1317 1.391 . S
C1317 H1305 0.950 . S
C1317 C1313 1.393 . S
C1317 C1316 1.391 . S
C1318 H1308 0.950 . S
C1318 C1319 1.386 . S
C1318 C1320 1.391 . S
C1319 C1318 1.386 . S
C1319 C1323 1.393 . S
C1320 H1309 0.950 . S
C1320 C1318 1.391 . S
C1320 C1321 1.400 . S
C1321 C1315 1.491 . S
C1321 C1320 1.400 . S
C1321 C1322 1.398 . S
C1322 H1310 0.950 . S
C1322 C1321 1.398 . S
C1322 C1323 1.391 . S
C1323 H1311 0.950 . S
C1323 C1319 1.393 . S
C1323 C1322 1.391 . S
H1324 C1332 0.950 . S
H1325 C1337 0.950 . S
H1326 C1334 0.950 . S
H1327 C1336 0.950 . S
H1328 C1338 0.950 . S
H1329 C1340 0.950 . S
H1330 C1342 0.950 1_565 S
H1331 C1343 0.950 . S
C1332 H1324 0.950 . S
C1332 C1333 1.386 . S
C1332 C1334 1.391 . S
C1333 C1332 1.386 . S
C1333 C1337 1.393 . S
C1334 H1326 0.950 . S
C1334 C1332 1.391 . S
C1334 C1335 1.400 . S
C1335 C1334 1.400 . S
C1335 C1336 1.398 . S
C1335 C1341 1.491 1_565 S
C1336 H1327 0.950 . S
C1336 C1335 1.398 . S
C1336 C1337 1.391 . S
C1337 H1325 0.950 . S
C1337 C1333 1.393 . S
C1337 C1336 1.391 . S
C1338 H1328 0.950 . S
C1338 C1339 1.386 . S
C1338 C1340 1.391 . S
C1339 C1338 1.386 . S
C1339 C1343 1.393 . S
C1340 H1329 0.950 . S
C1340 C1338 1.391 . S
C1340 C1341 1.400 . S
C1341 C1335 1.491 1_545 S
C1341 C1340 1.400 . S
C1341 C1342 1.398 . S
C1342 H1330 0.950 1_545 S
C1342 C1341 1.398 . S
C1342 C1343 1.391 . S
C1343 H1331 0.950 . S
C1343 C1339 1.393 . S
C1343 C1342 1.391 . S
H1344 C1352 0.950 . S
H1345 C1357 0.950 . S
H1346 C1354 0.950 . S
H1347 C1356 0.950 . S
H1348 C1358 0.950 . S
H1349 C1360 0.950 . S
H1350 C1362 0.950 . S
H1351 C1363 0.950 . S
C1352 H1344 0.950 . S
C1352 C1353 1.386 . S
C1352 C1354 1.391 . S
C1353 C1352 1.386 . S
C1353 C1357 1.393 . S
C1354 H1346 0.950 . S
C1354 C1352 1.391 . S
C1354 C1355 1.400 . S
C1355 C1354 1.400 . S
C1355 C1356 1.398 . S
C1355 C1361 1.491 . S
C1356 H1347 0.950 . S
C1356 C1355 1.398 . S
C1356 C1357 1.391 . S
C1357 H1345 0.950 . S
C1357 C1353 1.393 . S
C1357 C1356 1.391 . S
C1358 H1348 0.950 . S
C1358 C1359 1.386 . S
C1358 C1360 1.391 . S
C1359 C1358 1.386 . S
C1359 C1363 1.393 . S
C1360 H1349 0.950 . S
C1360 C1358 1.391 . S
C1360 C1361 1.400 . S
C1361 C1355 1.491 . S
C1361 C1360 1.400 . S
C1361 C1362 1.398 . S
C1362 H1350 0.950 . S
C1362 C1361 1.398 . S
C1362 C1363 1.391 . S
C1363 H1351 0.950 . S
C1363 C1359 1.393 . S
C1363 C1362 1.391 . S
H1364 C1372 0.950 . S
H1365 C1377 0.950 . S
H1366 C1374 0.950 . S
H1367 C1376 0.950 . S
H1368 C1378 0.950 . S
H1369 C1380 0.950 . S
H1370 C1382 0.950 . S
H1371 C1383 0.950 . S
C1372 H1364 0.950 . S
C1372 C1373 1.386 . S
C1372 C1374 1.391 . S
C1373 C1372 1.386 . S
C1373 C1377 1.393 . S
C1374 H1366 0.950 . S
C1374 C1372 1.391 . S
C1374 C1375 1.400 . S
C1375 C1374 1.400 . S
C1375 C1376 1.398 . S
C1375 C1381 1.491 . S
C1376 H1367 0.950 . S
C1376 C1375 1.398 . S
C1376 C1377 1.391 . S
C1377 H1365 0.950 . S
C1377 C1373 1.393 . S
C1377 C1376 1.391 . S
C1378 H1368 0.950 . S
C1378 C1379 1.386 . S
C1378 C1380 1.391 . S
C1379 C1378 1.386 . S
C1379 C1383 1.393 . S
C1380 H1369 0.950 . S
C1380 C1378 1.391 . S
C1380 C1381 1.400 1_565 S
C1381 C1375 1.491 . S
C1381 C1380 1.400 1_545 S
C1381 C1382 1.398 1_545 S
C1382 H1370 0.950 . S
C1382 C1381 1.398 1_565 S
C1382 C1383 1.391 . S
C1383 H1371 0.950 . S
C1383 C1379 1.393 . S
C1383 C1382 1.391 . S
H1384 C1392 0.950 . S
H1385 C1397 0.950 . S
H1386 C1394 0.950 . S
H1387 C1396 0.950 . S
H1388 C1398 0.950 . S
H1389 C1400 0.950 . S
H1390 C1402 0.950 . S
H1391 C1403 0.950 . S
C1392 H1384 0.950 . S
C1392 C1393 1.386 . S
C1392 C1394 1.391 . S
C1393 C1392 1.386 . S
C1393 C1397 1.393 . S
C1394 H1386 0.950 . S
C1394 C1392 1.391 . S
C1394 C1395 1.400 . S
C1395 C1394 1.400 . S
C1395 C1396 1.398 . S
C1395 C1401 1.491 . S
C1396 H1387 0.950 . S
C1396 C1395 1.398 . S
C1396 C1397 1.391 . S
C1397 H1385 0.950 . S
C1397 C1393 1.393 . S
C1397 C1396 1.391 . S
C1398 H1388 0.950 . S
C1398 C1399 1.386 . S
C1398 C1400 1.391 . S
C1399 C1398 1.386 . S
C1399 C1403 1.393 . S
C1400 H1389 0.950 . S
C1400 C1398 1.391 . S
C1400 C1401 1.400 . S
C1401 C1395 1.491 . S
C1401 C1400 1.400 . S
C1401 C1402 1.398 . S
C1402 H1390 0.950 . S
C1402 C1401 1.398 . S
C1402 C1403 1.391 . S
C1403 H1391 0.950 . S
C1403 C1399 1.393 . S
C1403 C1402 1.391 . S
H1404 C1412 0.950 . S
H1405 C1417 0.950 . S
H1406 C1414 0.950 . S
H1407 C1416 0.950 . S
H1408 C1418 0.950 . S
H1409 C1420 0.950 . S
H1410 C1422 0.950 . S
H1411 C1423 0.950 . S
C1412 H1404 0.950 . S
C1412 C1413 1.386 . S
C1412 C1414 1.391 . S
C1413 C1412 1.386 . S
C1413 C1417 1.393 . S
C1414 H1406 0.950 . S
C1414 C1412 1.391 . S
C1414 C1415 1.400 . S
C1415 C1414 1.400 . S
C1415 C1416 1.398 . S
C1415 C1421 1.491 1_565 S
C1416 H1407 0.950 . S
C1416 C1415 1.398 . S
C1416 C1417 1.391 . S
C1417 H1405 0.950 . S
C1417 C1413 1.393 . S
C1417 C1416 1.391 . S
C1418 H1408 0.950 . S
C1418 C1419 1.386 . S
C1418 C1420 1.391 . S
C1419 C1418 1.386 . S
C1419 C1423 1.393 . S
C1420 H1409 0.950 . S
C1420 C1418 1.391 . S
C1420 C1421 1.400 . S
C1421 C1415 1.491 1_545 S
C1421 C1420 1.400 . S
C1421 C1422 1.398 . S
C1422 H1410 0.950 . S
C1422 C1421 1.398 . S
C1422 C1423 1.391 . S
C1423 H1411 0.950 . S
C1423 C1419 1.393 . S
C1423 C1422 1.391 . S
H1424 C1432 0.950 . S
H1425 C1437 0.950 . S
H1426 C1434 0.950 . S
H1427 C1436 0.950 . S
H1428 C1438 0.950 . S
H1429 C1440 0.950 . S
H1430 C1442 0.950 . S
H1431 C1443 0.950 . S
C1432 H1424 0.950 . S
C1432 C1433 1.386 . S
C1432 C1434 1.391 . S
C1433 C1432 1.386 . S
C1433 C1437 1.393 . S
C1434 H1426 0.950 . S
C1434 C1432 1.391 . S
C1434 C1435 1.400 . S
C1435 C1434 1.400 . S
C1435 C1436 1.398 . S
C1435 C1441 1.491 . S
C1436 H1427 0.950 . S
C1436 C1435 1.398 . S
C1436 C1437 1.391 . S
C1437 H1425 0.950 . S
C1437 C1433 1.393 . S
C1437 C1436 1.391 . S
C1438 H1428 0.950 . S
C1438 C1439 1.386 . S
C1438 C1440 1.391 . S
C1439 C1438 1.386 . S
C1439 C1443 1.393 . S
C1440 H1429 0.950 . S
C1440 C1438 1.391 . S
C1440 C1441 1.400 . S
C1441 C1435 1.491 . S
C1441 C1440 1.400 . S
C1441 C1442 1.398 . S
C1442 H1430 0.950 . S
C1442 C1441 1.398 . S
C1442 C1443 1.391 . S
C1443 H1431 0.950 . S
C1443 C1439 1.393 . S
C1443 C1442 1.391 . S
H1444 C1452 0.950 . S
H1445 C1457 0.950 1_554 S
H1446 C1454 0.950 . S
H1447 C1456 0.950 . S
H1448 C1458 0.950 . S
H1449 C1460 0.950 . S
H1450 C1462 0.950 . S
H1451 C1463 0.950 . S
C1452 H1444 0.950 . S
C1452 C1453 1.386 . S
C1452 C1454 1.391 . S
C1453 C1452 1.386 . S
C1453 C1457 1.393 . S
C1454 H1446 0.950 . S
C1454 C1452 1.391 . S
C1454 C1455 1.400 . S
C1455 C1454 1.400 . S
C1455 C1456 1.398 . S
C1455 C1461 1.491 . S
C1456 H1447 0.950 . S
C1456 C1455 1.398 . S
C1456 C1457 1.391 . S
C1457 H1445 0.950 1_556 S
C1457 C1453 1.393 . S
C1457 C1456 1.391 . S
C1458 H1448 0.950 . S
C1458 C1459 1.386 . S
C1458 C1460 1.391 . S
C1459 C1458 1.386 . S
C1459 C1463 1.393 . S
C1460 H1449 0.950 . S
C1460 C1458 1.391 . S
C1460 C1461 1.400 1_565 S
C1461 C1455 1.491 . S
C1461 C1460 1.400 1_545 S
C1461 C1462 1.398 . S
C1462 H1450 0.950 . S
C1462 C1461 1.398 . S
C1462 C1463 1.391 1_545 S
C1463 H1451 0.950 . S
C1463 C1459 1.393 . S
C1463 C1462 1.391 1_565 S
H1464 C1472 0.950 . S
H1465 C1477 0.950 . S
H1466 C1474 0.950 . S
H1467 C1476 0.950 . S
H1468 C1478 0.950 . S
H1469 C1480 0.950 . S
H1470 C1482 0.950 . S
H1471 C1483 0.950 . S
C1472 H1464 0.950 . S
C1472 C1473 1.386 . S
C1472 C1474 1.391 . S
C1473 C1472 1.386 . S
C1473 C1477 1.393 . S
C1474 H1466 0.950 . S
C1474 C1472 1.391 . S
C1474 C1475 1.400 . S
C1475 C1474 1.400 . S
C1475 C1476 1.398 . S
C1475 C1481 1.491 . S
C1476 H1467 0.950 . S
C1476 C1475 1.398 . S
C1476 C1477 1.391 . S
C1477 H1465 0.950 . S
C1477 C1473 1.393 . S
C1477 C1476 1.391 . S
C1478 H1468 0.950 . S
C1478 C1479 1.386 . S
C1478 C1480 1.391 . S
C1479 C1478 1.386 . S
C1479 C1483 1.393 . S
C1480 H1469 0.950 . S
C1480 C1478 1.391 . S
C1480 C1481 1.400 . S
C1481 C1475 1.491 . S
C1481 C1480 1.400 . S
C1481 C1482 1.398 . S
C1482 H1470 0.950 . S
C1482 C1481 1.398 . S
C1482 C1483 1.391 . S
C1483 H1471 0.950 . S
C1483 C1479 1.393 . S
C1483 C1482 1.391 . S
H1484 C1492 0.950 . S
H1485 C1497 0.950 . S
H1486 C1494 0.950 . S
H1487 C1496 0.950 . S
H1488 C1498 0.950 . S
H1489 C1500 0.950 . S
H1490 C1502 0.950 . S
H1491 C1503 0.950 . S
C1492 H1484 0.950 . S
C1492 C1493 1.386 . S
C1492 C1494 1.391 . S
C1493 C1492 1.386 . S
C1493 C1497 1.393 . S
C1494 H1486 0.950 . S
C1494 C1492 1.391 . S
C1494 C1495 1.400 . S
C1495 C1494 1.400 . S
C1495 C1496 1.398 . S
C1495 C1501 1.491 . S
C1496 H1487 0.950 . S
C1496 C1495 1.398 . S
C1496 C1497 1.391 . S
C1497 H1485 0.950 . S
C1497 C1493 1.393 . S
C1497 C1496 1.391 . S
C1498 H1488 0.950 . S
C1498 C1499 1.386 . S
C1498 C1500 1.391 . S
C1499 C1498 1.386 . S
C1499 C1503 1.393 . S
C1500 H1489 0.950 . S
C1500 C1498 1.391 . S
C1500 C1501 1.400 . S
C1501 C1495 1.491 . S
C1501 C1500 1.400 . S
C1501 C1502 1.398 . S
C1502 H1490 0.950 . S
C1502 C1501 1.398 . S
C1502 C1503 1.391 . S
C1503 H1491 0.950 . S
C1503 C1499 1.393 . S
C1503 C1502 1.391 . S
H1504 C1512 0.950 . S
H1505 C1517 0.950 . S
H1506 C1514 0.950 . S
H1507 C1516 0.950 . S
H1508 C1518 0.950 . S
H1509 C1520 0.950 . S
H1510 C1522 0.950 1_655 S
H1511 C1523 0.950 . S
C1512 H1504 0.950 . S
C1512 C1513 1.386 . S
C1512 C1514 1.391 . S
C1513 C1512 1.386 . S
C1513 C1517 1.393 . S
C1514 H1506 0.950 . S
C1514 C1512 1.391 . S
C1514 C1515 1.400 . S
C1515 C1514 1.400 . S
C1515 C1516 1.398 . S
C1515 C1521 1.491 . S
C1516 H1507 0.950 . S
C1516 C1515 1.398 . S
C1516 C1517 1.391 . S
C1517 H1505 0.950 . S
C1517 C1513 1.393 . S
C1517 C1516 1.391 . S
C1518 H1508 0.950 . S
C1518 C1519 1.386 . S
C1518 C1520 1.391 . S
C1519 C1518 1.386 . S
C1519 C1523 1.393 . S
C1520 H1509 0.950 . S
C1520 C1518 1.391 . S
C1520 C1521 1.400 1_455 S
C1521 C1515 1.491 . S
C1521 C1520 1.400 1_655 S
C1521 C1522 1.398 1_655 S
C1522 H1510 0.950 1_455 S
C1522 C1521 1.398 1_455 S
C1522 C1523 1.391 . S
C1523 H1511 0.950 . S
C1523 C1519 1.393 . S
C1523 C1522 1.391 . S
H1524 C1532 0.950 . S
H1525 C1537 0.950 . S
H1526 C1534 0.950 . S
H1527 C1536 0.950 . S
H1528 C1538 0.950 . S
H1529 C1540 0.950 . S
H1530 C1542 0.950 . S
H1531 C1543 0.950 . S
C1532 H1524 0.950 . S
C1532 C1533 1.386 . S
C1532 C1534 1.391 . S
C1533 C1532 1.386 . S
C1533 C1537 1.393 . S
C1534 H1526 0.950 . S
C1534 C1532 1.391 . S
C1534 C1535 1.400 . S
C1535 C1534 1.400 . S
C1535 C1536 1.398 . S
C1535 C1541 1.491 . S
C1536 H1527 0.950 . S
C1536 C1535 1.398 . S
C1536 C1537 1.391 . S
C1537 H1525 0.950 . S
C1537 C1533 1.393 . S
C1537 C1536 1.391 . S
C1538 H1528 0.950 . S
C1538 C1539 1.386 . S
C1538 C1540 1.391 . S
C1539 C1538 1.386 . S
C1539 C1543 1.393 . S
C1540 H1529 0.950 . S
C1540 C1538 1.391 . S
C1540 C1541 1.400 . S
C1541 C1535 1.491 . S
C1541 C1540 1.400 . S
C1541 C1542 1.398 . S
C1542 H1530 0.950 . S
C1542 C1541 1.398 . S
C1542 C1543 1.391 . S
C1543 H1531 0.950 . S
C1543 C1539 1.393 . S
C1543 C1542 1.391 . S
H1544 C1552 0.950 . S
H1545 C1557 0.950 . S
H1546 C1554 0.950 . S
H1547 C1556 0.950 . S
H1548 C1558 0.950 . S
H1549 C1560 0.950 . S
H1550 C1562 0.965 . S
H1551 C1563 0.950 . S
C1552 H1544 0.950 . S
C1552 C1553 1.386 . S
C1552 C1554 1.391 . S
C1553 C1552 1.386 . S
C1553 C1557 1.393 . S
C1554 H1546 0.950 . S
C1554 C1552 1.391 . S
C1554 C1555 1.400 . S
C1555 C1554 1.400 . S
C1555 C1556 1.398 . S
C1555 C1561 1.515 . S
C1556 H1547 0.950 . S
C1556 C1555 1.398 . S
C1556 C1557 1.391 . S
C1557 H1545 0.950 . S
C1557 C1553 1.393 . S
C1557 C1556 1.391 . S
C1558 H1548 0.950 . S
C1558 C1559 1.386 . S
C1558 C1560 1.391 . S
C1559 C1558 1.386 . S
C1559 C1563 1.393 . S
C1560 H1549 0.950 . S
C1560 C1558 1.391 . S
C1560 C1561 1.375 1_655 S
C1561 C1555 1.515 . S
C1561 C1560 1.375 1_455 S
C1561 C1562 1.398 . S
C1562 H1550 0.965 . S
C1562 C1561 1.398 . S
C1562 C1563 1.376 1_455 S
C1563 H1551 0.950 . S
C1563 C1559 1.393 . S
C1563 C1562 1.376 1_655 S
H1564 C1572 0.950 . S
H1565 C1577 0.950 . S
H1566 C1574 0.950 . S
H1567 C1576 0.950 . S
H1568 C1578 0.950 . S
H1569 C1580 0.950 . S
H1570 C1582 0.950 . S
H1571 C1583 0.950 . S
C1572 H1564 0.950 . S
C1572 C1573 1.386 . S
C1572 C1574 1.391 . S
C1573 C1572 1.386 . S
C1573 C1577 1.393 . S
C1574 H1566 0.950 . S
C1574 C1572 1.391 . S
C1574 C1575 1.400 . S
C1575 C1574 1.400 . S
C1575 C1576 1.398 . S
C1575 C1581 1.491 . S
C1576 H1567 0.950 . S
C1576 C1575 1.398 . S
C1576 C1577 1.391 . S
C1577 H1565 0.950 . S
C1577 C1573 1.393 . S
C1577 C1576 1.391 . S
C1578 H1568 0.950 . S
C1578 C1579 1.386 . S
C1578 C1580 1.391 . S
C1579 C1578 1.386 . S
C1579 C1583 1.393 . S
C1580 H1569 0.950 . S
C1580 C1578 1.391 . S
C1580 C1581 1.400 . S
C1581 C1575 1.491 . S
C1581 C1580 1.400 . S
C1581 C1582 1.398 . S
C1582 H1570 0.950 . S
C1582 C1581 1.398 . S
C1582 C1583 1.391 . S
C1583 H1571 0.950 . S
C1583 C1579 1.393 . S
C1583 C1582 1.391 . S
H1584 C1592 0.950 . S
H1585 C1597 0.950 . S
H1586 C1594 0.950 . S
H1587 C1596 0.950 . S
H1588 C1598 0.950 . S
H1589 C1600 0.950 . S
H1590 C1602 0.950 . S
H1591 C1603 0.950 . S
C1592 H1584 0.950 . S
C1592 C1593 1.386 . S
C1592 C1594 1.391 . S
C1593 C1592 1.386 . S
C1593 C1597 1.393 . S
C1594 H1586 0.950 . S
C1594 C1592 1.391 . S
C1594 C1595 1.400 . S
C1595 C1594 1.400 . S
C1595 C1596 1.398 . S
C1595 C1601 1.491 . S
C1596 H1587 0.950 . S
C1596 C1595 1.398 . S
C1596 C1597 1.391 . S
C1597 H1585 0.950 . S
C1597 C1593 1.393 . S
C1597 C1596 1.391 . S
C1598 H1588 0.950 . S
C1598 C1599 1.386 . S
C1598 C1600 1.391 . S
C1599 C1598 1.386 . S
C1599 C1603 1.393 . S
C1600 H1589 0.950 . S
C1600 C1598 1.391 . S
C1600 C1601 1.400 1_455 S
C1601 C1595 1.491 . S
C1601 C1600 1.400 1_655 S
C1601 C1602 1.398 . S
C1602 H1590 0.950 . S
C1602 C1601 1.398 . S
C1602 C1603 1.391 1_655 S
C1603 H1591 0.950 . S
C1603 C1599 1.393 . S
C1603 C1602 1.391 1_455 S
H1604 C1612 0.950 . S
H1605 C1617 0.950 . S
H1606 C1614 0.950 . S
H1607 C1616 0.950 . S
H1608 C1618 0.950 . S
H1609 C1620 0.950 . S
H1610 C1622 0.950 . S
H1611 C1623 0.950 . S
C1612 H1604 0.950 . S
C1612 C1613 1.386 . S
C1612 C1614 1.391 . S
C1613 C1612 1.386 . S
C1613 C1617 1.393 . S
C1614 H1606 0.950 . S
C1614 C1612 1.391 . S
C1614 C1615 1.400 . S
C1615 C1614 1.400 . S
C1615 C1616 1.398 . S
C1615 C1621 1.491 . S
C1616 H1607 0.950 . S
C1616 C1615 1.398 . S
C1616 C1617 1.391 . S
C1617 H1605 0.950 . S
C1617 C1613 1.393 . S
C1617 C1616 1.391 . S
C1618 H1608 0.950 . S
C1618 C1619 1.386 . S
C1618 C1620 1.391 . S
C1619 C1618 1.386 . S
C1619 C1623 1.393 . S
C1620 H1609 0.950 . S
C1620 C1618 1.391 . S
C1620 C1621 1.400 . S
C1621 C1615 1.491 . S
C1621 C1620 1.400 . S
C1621 C1622 1.398 . S
C1622 H1610 0.950 . S
C1622 C1621 1.398 . S
C1622 C1623 1.391 . S
C1623 H1611 0.950 . S
C1623 C1619 1.393 . S
C1623 C1622 1.391 . S
H1624 C1632 0.950 . S
H1625 C1637 0.950 . S
H1626 C1634 0.950 . S
H1627 C1636 0.950 . S
H1628 C1638 0.950 . S
H1629 C1640 0.950 . S
H1630 C1642 0.950 . S
H1631 C1643 0.950 . S
C1632 H1624 0.950 . S
C1632 C1633 1.386 . S
C1632 C1634 1.391 . S
C1633 C1632 1.386 . S
C1633 C1637 1.393 . S
C1634 H1626 0.950 . S
C1634 C1632 1.391 . S
C1634 C1635 1.400 . S
C1635 C1634 1.400 . S
C1635 C1636 1.398 . S
C1635 C1641 1.491 . S
C1636 H1627 0.950 . S
C1636 C1635 1.398 . S
C1636 C1637 1.391 . S
C1637 H1625 0.950 . S
C1637 C1633 1.393 . S
C1637 C1636 1.391 . S
C1638 H1628 0.950 . S
C1638 C1639 1.386 . S
C1638 C1640 1.391 . S
C1639 C1638 1.386 . S
C1639 C1643 1.393 . S
C1640 H1629 0.950 . S
C1640 C1638 1.391 . S
C1640 C1641 1.400 . S
C1641 C1635 1.491 . S
C1641 C1640 1.400 . S
C1641 C1642 1.398 . S
C1642 H1630 0.950 . S
C1642 C1641 1.398 . S
C1642 C1643 1.391 . S
C1643 H1631 0.950 . S
C1643 C1639 1.393 . S
C1643 C1642 1.391 . S
H1644 C1652 0.950 . S
H1645 C1657 0.950 . S
H1646 C1654 0.950 . S
H1647 C1656 0.950 . S
H1648 C1658 0.950 . S
H1649 C1660 0.950 1_554 S
H1650 C1662 0.950 . S
H1651 C1663 0.950 . S
C1652 H1644 0.950 . S
C1652 C1653 1.386 . S
C1652 C1654 1.391 . S
C1653 C1652 1.386 . S
C1653 C1657 1.393 . S
C1654 H1646 0.950 . S
C1654 C1652 1.391 . S
C1654 C1655 1.400 . S
C1655 C1654 1.400 . S
C1655 C1656 1.398 . S
C1655 C1661 1.491 . S
C1656 H1647 0.950 . S
C1656 C1655 1.398 . S
C1656 C1657 1.391 . S
C1657 H1645 0.950 . S
C1657 C1653 1.393 . S
C1657 C1656 1.391 . S
C1658 H1648 0.950 . S
C1658 C1659 1.386 . S
C1658 C1660 1.391 . S
C1659 C1658 1.386 . S
C1659 C1663 1.393 . S
C1660 H1649 0.950 1_556 S
C1660 C1658 1.391 . S
C1660 C1661 1.400 1_556 S
C1661 C1655 1.491 . S
C1661 C1660 1.400 1_554 S
C1661 C1662 1.398 1_554 S
C1662 H1650 0.950 . S
C1662 C1661 1.398 1_556 S
C1662 C1663 1.391 . S
C1663 H1651 0.950 . S
C1663 C1659 1.393 . S
C1663 C1662 1.391 . S
H1664 C1672 0.950 . S
H1665 C1677 0.950 . S
H1666 C1674 0.950 . S
H1667 C1676 0.950 . S
H1668 C1678 0.950 . S
H1669 C1680 0.950 . S
H1670 C1682 0.950 . S
H1671 C1683 0.950 . S
C1672 H1664 0.950 . S
C1672 C1673 1.386 . S
C1672 C1674 1.391 . S
C1673 C1672 1.386 . S
C1673 C1677 1.393 . S
C1674 H1666 0.950 . S
C1674 C1672 1.391 . S
C1674 C1675 1.400 . S
C1675 C1674 1.400 . S
C1675 C1676 1.398 . S
C1675 C1681 1.491 . S
C1676 H1667 0.950 . S
C1676 C1675 1.398 . S
C1676 C1677 1.391 . S
C1677 H1665 0.950 . S
C1677 C1673 1.393 . S
C1677 C1676 1.391 . S
C1678 H1668 0.950 . S
C1678 C1679 1.386 . S
C1678 C1680 1.391 . S
C1679 C1678 1.386 . S
C1679 C1683 1.393 . S
C1680 H1669 0.950 . S
C1680 C1678 1.391 . S
C1680 C1681 1.400 . S
C1681 C1675 1.491 . S
C1681 C1680 1.400 . S
C1681 C1682 1.398 . S
C1682 H1670 0.950 . S
C1682 C1681 1.398 . S
C1682 C1683 1.391 . S
C1683 H1671 0.950 . S
C1683 C1679 1.393 . S
C1683 C1682 1.391 . S
H1684 C1692 0.950 . S
H1685 C1697 0.950 . S
H1686 C1694 0.950 . S
H1687 C1696 0.950 . S
H1688 C1698 0.950 . S
H1689 C1700 0.950 . S
H1690 C1702 0.950 . S
H1691 C1703 0.950 . S
C1692 H1684 0.950 . S
C1692 C1693 1.386 . S
C1692 C1694 1.391 . S
C1693 C1692 1.386 . S
C1693 C1697 1.393 . S
C1694 H1686 0.950 . S
C1694 C1692 1.391 . S
C1694 C1695 1.400 . S
C1695 C1694 1.400 . S
C1695 C1696 1.398 . S
C1695 C1701 1.491 . S
C1696 H1687 0.950 . S
C1696 C1695 1.398 . S
C1696 C1697 1.391 . S
C1697 H1685 0.950 . S
C1697 C1693 1.393 . S
C1697 C1696 1.391 . S
C1698 H1688 0.950 . S
C1698 C1699 1.386 . S
C1698 C1700 1.391 . S
C1699 C1698 1.386 . S
C1699 C1703 1.393 . S
C1700 H1689 0.950 . S
C1700 C1698 1.391 . S
C1700 C1701 1.400 . S
C1701 C1695 1.491 . S
C1701 C1700 1.400 . S
C1701 C1702 1.398 . S
C1702 H1690 0.950 . S
C1702 C1701 1.398 . S
C1702 C1703 1.391 . S
C1703 H1691 0.950 . S
C1703 C1699 1.393 . S
C1703 C1702 1.391 . S
H1704 C1712 0.950 . S
H1705 C1717 0.950 . S
H1706 C1714 0.950 . S
H1707 C1716 0.950 . S
H1708 C1718 0.950 . S
H1709 C1720 0.950 . S
H1710 C1722 0.950 . S
H1711 C1723 0.950 . S
C1712 H1704 0.950 . S
C1712 C1713 1.386 . S
C1712 C1714 1.391 . S
C1713 C1712 1.386 . S
C1713 C1717 1.393 . S
C1714 H1706 0.950 . S
C1714 C1712 1.391 . S
C1714 C1715 1.400 . S
C1715 C1714 1.400 . S
C1715 C1716 1.398 . S
C1715 C1721 1.491 . S
C1716 H1707 0.950 . S
C1716 C1715 1.398 . S
C1716 C1717 1.391 . S
C1717 H1705 0.950 . S
C1717 C1713 1.393 . S
C1717 C1716 1.391 . S
C1718 H1708 0.950 . S
C1718 C1719 1.386 . S
C1718 C1720 1.391 . S
C1719 C1718 1.386 . S
C1719 C1723 1.393 . S
C1720 H1709 0.950 . S
C1720 C1718 1.391 . S
C1720 C1721 1.400 . S
C1721 C1715 1.491 . S
C1721 C1720 1.400 . S
C1721 C1722 1.398 . S
C1722 H1710 0.950 . S
C1722 C1721 1.398 . S
C1722 C1723 1.391 . S
C1723 H1711 0.950 . S
C1723 C1719 1.393 . S
C1723 C1722 1.391 . S
H1724 C1732 0.950 . S
H1725 C1737 0.950 . S
H1726 C1734 0.950 . S
H1727 C1736 0.950 . S
H1728 C1738 0.950 . S
H1729 C1740 0.950 . S
H1730 C1742 0.977 . S
H1731 C1743 0.950 . S
C1732 H1724 0.950 . S
C1732 C1733 1.386 . S
C1732 C1734 1.391 . S
C1733 C1732 1.386 . S
C1733 C1737 1.393 . S
C1734 H1726 0.950 . S
C1734 C1732 1.391 . S
C1734 C1735 1.400 . S
C1735 C1734 1.400 . S
C1735 C1736 1.398 . S
C1735 C1741 1.491 1_556 S
C1736 H1727 0.950 . S
C1736 C1735 1.398 . S
C1736 C1737 1.391 . S
C1737 H1725 0.950 . S
C1737 C1733 1.393 . S
C1737 C1736 1.391 . S
C1738 H1728 0.950 . S
C1738 C1739 1.386 . S
C1738 C1740 1.391 . S
C1739 C1738 1.386 . S
C1739 C1743 1.393 . S
C1740 H1729 0.950 . S
C1740 C1738 1.391 . S
C1740 C1741 1.400 . S
C1741 C1735 1.491 1_554 S
C1741 C1740 1.400 . S
C1741 C1742 1.396 1_554 S
C1742 H1730 0.977 . S
C1742 C1741 1.396 1_556 S
C1742 C1743 1.367 1_556 S
C1743 H1731 0.950 . S
C1743 C1739 1.393 . S
C1743 C1742 1.367 1_554 S
H1744 C1752 0.950 1_455 S
H1745 C1757 0.950 . S
H1746 C1754 0.950 . S
H1747 C1756 0.950 . S
H1748 C1758 0.950 . S
H1749 C1760 0.950 . S
H1750 C1762 0.950 . S
H1751 C1763 0.950 . S
C1752 H1744 0.950 1_655 S
C1752 C1753 1.386 . S
C1752 C1754 1.391 . S
C1753 C1752 1.386 . S
C1753 C1757 1.393 . S
C1754 H1746 0.950 . S
C1754 C1752 1.391 . S
C1754 C1755 1.400 . S
C1755 C1754 1.400 . S
C1755 C1756 1.398 . S
C1755 C1761 1.491 . S
C1756 H1747 0.950 . S
C1756 C1755 1.398 . S
C1756 C1757 1.391 . S
C1757 H1745 0.950 . S
C1757 C1753 1.393 . S
C1757 C1756 1.391 . S
C1758 H1748 0.950 . S
C1758 C1759 1.386 . S
C1758 C1760 1.391 . S
C1759 C1758 1.386 . S
C1759 C1763 1.393 . S
C1760 H1749 0.950 . S
C1760 C1758 1.391 . S
C1760 C1761 1.400 . S
C1761 C1755 1.491 . S
C1761 C1760 1.400 . S
C1761 C1762 1.398 . S
C1762 H1750 0.950 . S
C1762 C1761 1.398 . S
C1762 C1763 1.391 . S
C1763 H1751 0.950 . S
C1763 C1759 1.393 . S
C1763 C1762 1.391 . S
H1764 C1772 0.950 . S
H1765 C1777 0.950 . S
H1766 C1774 0.950 . S
H1767 C1776 0.950 . S
H1768 C1778 0.950 . S
H1769 C1780 0.950 . S
H1770 C1782 0.950 . S
H1771 C1783 0.950 . S
C1772 H1764 0.950 . S
C1772 C1773 1.386 . S
C1772 C1774 1.391 . S
C1773 C1772 1.386 . S
C1773 C1777 1.393 . S
C1774 H1766 0.950 . S
C1774 C1772 1.391 . S
C1774 C1775 1.400 . S
C1775 C1774 1.400 . S
C1775 C1776 1.398 . S
C1775 C1781 1.491 . S
C1776 H1767 0.950 . S
C1776 C1775 1.398 . S
C1776 C1777 1.391 . S
C1777 H1765 0.950 . S
C1777 C1773 1.393 . S
C1777 C1776 1.391 . S
C1778 H1768 0.950 . S
C1778 C1779 1.386 . S
C1778 C1780 1.391 . S
C1779 C1778 1.386 . S
C1779 C1783 1.393 . S
C1780 H1769 0.950 . S
C1780 C1778 1.391 . S
C1780 C1781 1.400 . S
C1781 C1775 1.491 . S
C1781 C1780 1.400 . S
C1781 C1782 1.398 . S
C1782 H1770 0.950 . S
C1782 C1781 1.398 . S
C1782 C1783 1.391 . S
C1783 H1771 0.950 . S
C1783 C1779 1.393 . S
C1783 C1782 1.391 . S
H1784 C1792 0.950 . S
H1785 C1797 0.950 . S
H1786 C1794 0.950 . S
H1787 C1796 0.950 . S
H1788 C1798 0.950 . S
H1789 C1800 0.950 . S
H1790 C1802 0.950 . S
H1791 C1803 0.950 . S
C1792 H1784 0.950 . S
C1792 C1793 1.386 . S
C1792 C1794 1.391 . S
C1793 C1792 1.386 . S
C1793 C1797 1.393 . S
C1794 H1786 0.950 . S
C1794 C1792 1.391 . S
C1794 C1795 1.400 . S
C1795 C1794 1.400 . S
C1795 C1796 1.398 . S
C1795 C1801 1.491 . S
C1796 H1787 0.950 . S
C1796 C1795 1.398 . S
C1796 C1797 1.391 . S
C1797 H1785 0.950 . S
C1797 C1793 1.393 . S
C1797 C1796 1.391 . S
C1798 H1788 0.950 . S
C1798 C1799 1.386 . S
C1798 C1800 1.391 . S
C1799 C1798 1.386 . S
C1799 C1803 1.393 . S
C1800 H1789 0.950 . S
C1800 C1798 1.391 . S
C1800 C1801 1.400 . S
C1801 C1795 1.491 . S
C1801 C1800 1.400 . S
C1801 C1802 1.398 . S
C1802 H1790 0.950 . S
C1802 C1801 1.398 . S
C1802 C1803 1.391 . S
C1803 H1791 0.950 . S
C1803 C1799 1.393 . S
C1803 C1802 1.391 . S
H1804 C1812 0.950 . S
H1805 C1817 0.950 . S
H1806 C1814 0.950 . S
H1807 C1816 0.950 . S
H1808 C1818 0.950 . S
H1809 C1820 0.950 . S
H1810 C1822 0.950 . S
H1811 C1823 0.950 . S
C1812 H1804 0.950 . S
C1812 C1813 1.386 . S
C1812 C1814 1.391 . S
C1813 C1812 1.386 . S
C1813 C1817 1.393 . S
C1814 H1806 0.950 . S
C1814 C1812 1.391 . S
C1814 C1815 1.400 . S
C1815 C1814 1.400 . S
C1815 C1816 1.398 . S
C1815 C1821 1.491 . S
C1816 H1807 0.950 . S
C1816 C1815 1.398 . S
C1816 C1817 1.391 . S
C1817 H1805 0.950 . S
C1817 C1813 1.393 . S
C1817 C1816 1.391 . S
C1818 H1808 0.950 . S
C1818 C1819 1.386 . S
C1818 C1820 1.391 . S
C1819 C1818 1.386 . S
C1819 C1823 1.393 . S
C1820 H1809 0.950 . S
C1820 C1818 1.391 . S
C1820 C1821 1.400 . S
C1821 C1815 1.491 . S
C1821 C1820 1.400 . S
C1821 C1822 1.398 . S
C1822 H1810 0.950 . S
C1822 C1821 1.398 . S
C1822 C1823 1.391 . S
C1823 H1811 0.950 . S
C1823 C1819 1.393 . S
C1823 C1822 1.391 . S
H1824 C1832 0.950 . S
H1825 C1837 0.950 . S
H1826 C1834 0.950 . S
H1827 C1836 0.950 . S
H1828 C1838 0.950 . S
H1829 C1840 0.950 . S
H1830 C1842 0.950 . S
H1831 C1843 0.950 . S
C1832 H1824 0.950 . S
C1832 C1833 1.386 . S
C1832 C1834 1.391 . S
C1833 C1832 1.386 . S
C1833 C1837 1.393 . S
C1834 H1826 0.950 . S
C1834 C1832 1.391 . S
C1834 C1835 1.400 . S
C1835 C1834 1.400 . S
C1835 C1836 1.398 . S
C1835 C1841 1.491 . S
C1836 H1827 0.950 . S
C1836 C1835 1.398 . S
C1836 C1837 1.391 . S
C1837 H1825 0.950 . S
C1837 C1833 1.393 . S
C1837 C1836 1.391 . S
C1838 H1828 0.950 . S
C1838 C1839 1.386 . S
C1838 C1840 1.391 . S
C1839 C1838 1.386 . S
C1839 C1843 1.393 . S
C1840 H1829 0.950 . S
C1840 C1838 1.391 . S
C1840 C1841 1.400 . S
C1841 C1835 1.491 . S
C1841 C1840 1.400 . S
C1841 C1842 1.398 . S
C1842 H1830 0.950 . S
C1842 C1841 1.398 . S
C1842 C1843 1.391 . S
C1843 H1831 0.950 . S
C1843 C1839 1.393 . S
C1843 C1842 1.391 . S
H1844 C1852 0.950 . S
H1845 C1857 0.950 . S
H1846 C1854 0.950 . S
H1847 C1856 0.950 . S
H1848 C1858 0.950 . S
H1849 C1860 0.950 . S
H1850 C1862 0.950 . S
H1851 C1863 0.950 . S
C1852 H1844 0.950 . S
C1852 C1853 1.386 . S
C1852 C1854 1.391 . S
C1853 C1852 1.386 . S
C1853 C1857 1.393 . S
C1854 H1846 0.950 . S
C1854 C1852 1.391 . S
C1854 C1855 1.400 . S
C1855 C1854 1.400 . S
C1855 C1856 1.398 . S
C1855 C1861 1.491 . S
C1856 H1847 0.950 . S
C1856 C1855 1.398 . S
C1856 C1857 1.391 . S
C1857 H1845 0.950 . S
C1857 C1853 1.393 . S
C1857 C1856 1.391 . S
C1858 H1848 0.950 . S
C1858 C1859 1.386 . S
C1858 C1860 1.391 . S
C1859 C1858 1.386 . S
C1859 C1863 1.393 . S
C1860 H1849 0.950 . S
C1860 C1858 1.391 . S
C1860 C1861 1.400 . S
C1861 C1855 1.491 . S
C1861 C1860 1.400 . S
C1861 C1862 1.398 . S
C1862 H1850 0.950 . S
C1862 C1861 1.398 . S
C1862 C1863 1.391 . S
C1863 H1851 0.950 . S
C1863 C1859 1.393 . S
C1863 C1862 1.391 . S
H1864 C1872 0.950 . S
H1865 C1877 0.950 . S
H1866 C1874 0.950 . S
H1867 C1876 0.950 . S
H1868 C1878 0.950 . S
H1869 C1880 0.950 . S
H1870 C1882 0.950 . S
H1871 C1883 0.950 . S
C1872 H1864 0.950 . S
C1872 C1873 1.386 . S
C1872 C1874 1.391 . S
C1873 C1872 1.386 . S
C1873 C1877 1.393 . S
C1874 H1866 0.950 . S
C1874 C1872 1.391 . S
C1874 C1875 1.400 . S
C1875 C1874 1.400 . S
C1875 C1876 1.398 . S
C1875 C1881 1.491 . S
C1876 H1867 0.950 . S
C1876 C1875 1.398 . S
C1876 C1877 1.391 . S
C1877 H1865 0.950 . S
C1877 C1873 1.393 . S
C1877 C1876 1.391 . S
C1878 H1868 0.950 . S
C1878 C1879 1.386 . S
C1878 C1880 1.391 . S
C1879 C1878 1.386 . S
C1879 C1883 1.393 . S
C1880 H1869 0.950 . S
C1880 C1878 1.391 . S
C1880 C1881 1.400 . S
C1881 C1875 1.491 . S
C1881 C1880 1.400 . S
C1881 C1882 1.398 . S
C1882 H1870 0.950 . S
C1882 C1881 1.398 . S
C1882 C1883 1.391 . S
C1883 H1871 0.950 . S
C1883 C1879 1.393 . S
C1883 C1882 1.391 . S
H1884 C1892 0.950 . S
H1885 C1897 0.950 . S
H1886 C1894 0.950 . S
H1887 C1896 0.950 . S
H1888 C1898 0.950 . S
H1889 C1900 0.950 . S
H1890 C1902 0.950 . S
H1891 C1903 0.950 . S
C1892 H1884 0.950 . S
C1892 C1893 1.386 . S
C1892 C1894 1.391 . S
C1893 C1892 1.386 . S
C1893 C1897 1.393 . S
C1894 H1886 0.950 . S
C1894 C1892 1.391 . S
C1894 C1895 1.400 . S
C1895 C1894 1.400 . S
C1895 C1896 1.398 . S
C1895 C1901 1.491 . S
C1896 H1887 0.950 . S
C1896 C1895 1.398 . S
C1896 C1897 1.391 . S
C1897 H1885 0.950 . S
C1897 C1893 1.393 . S
C1897 C1896 1.391 . S
C1898 H1888 0.950 . S
C1898 C1899 1.386 . S
C1898 C1900 1.391 . S
C1899 C1898 1.386 . S
C1899 C1903 1.393 . S
C1900 H1889 0.950 . S
C1900 C1898 1.391 . S
C1900 C1901 1.400 . S
C1901 C1895 1.491 . S
C1901 C1900 1.400 . S
C1901 C1902 1.398 . S
C1902 H1890 0.950 . S
C1902 C1901 1.398 . S
C1902 C1903 1.391 . S
C1903 H1891 0.950 . S
C1903 C1899 1.393 . S
C1903 C1902 1.391 . S
H1904 C1912 0.950 . S
H1905 C1917 0.950 . S
H1906 C1914 0.950 . S
H1907 C1916 0.950 . S
H1908 C1918 0.950 . S
H1909 C1920 0.950 . S
H1910 C1922 0.950 . S
H1911 C1923 0.950 . S
C1912 H1904 0.950 . S
C1912 C1913 1.386 . S
C1912 C1914 1.391 . S
C1913 C1912 1.386 . S
C1913 C1917 1.393 . S
C1914 H1906 0.950 . S
C1914 C1912 1.391 . S
C1914 C1915 1.400 . S
C1915 C1914 1.400 . S
C1915 C1916 1.398 . S
C1915 C1921 1.491 . S
C1916 H1907 0.950 . S
C1916 C1915 1.398 . S
C1916 C1917 1.391 . S
C1917 H1905 0.950 . S
C1917 C1913 1.393 . S
C1917 C1916 1.391 . S
C1918 H1908 0.950 . S
C1918 C1919 1.386 . S
C1918 C1920 1.391 . S
C1919 C1918 1.386 . S
C1919 C1923 1.393 . S
C1920 H1909 0.950 . S
C1920 C1918 1.391 . S
C1920 C1921 1.400 . S
C1921 C1915 1.491 . S
C1921 C1920 1.400 . S
C1921 C1922 1.398 . S
C1922 H1910 0.950 . S
C1922 C1921 1.398 . S
C1922 C1923 1.391 . S
C1923 H1911 0.950 . S
C1923 C1919 1.393 . S
C1923 C1922 1.391 . S
H1924 C1932 0.950 . S
H1925 C1937 0.950 . S
H1926 C1934 0.950 . S
H1927 C1936 0.950 . S
H1928 C1938 0.950 . S
H1929 C1940 0.950 . S
H1930 C1942 0.950 . S
H1931 C1943 0.950 . S
C1932 H1924 0.950 . S
C1932 C1933 1.386 . S
C1932 C1934 1.391 . S
C1933 C1932 1.386 . S
C1933 C1937 1.393 . S
C1934 H1926 0.950 . S
C1934 C1932 1.391 . S
C1934 C1935 1.400 . S
C1935 C1934 1.400 . S
C1935 C1936 1.398 . S
C1935 C1941 1.491 . S
C1936 H1927 0.950 . S
C1936 C1935 1.398 . S
C1936 C1937 1.391 . S
C1937 H1925 0.950 . S
C1937 C1933 1.393 . S
C1937 C1936 1.391 . S
C1938 H1928 0.950 . S
C1938 C1939 1.386 . S
C1938 C1940 1.391 . S
C1939 C1938 1.386 . S
C1939 C1943 1.393 . S
C1940 H1929 0.950 . S
C1940 C1938 1.391 . S
C1940 C1941 1.400 . S
C1941 C1935 1.491 . S
C1941 C1940 1.400 . S
C1941 C1942 1.398 . S
C1942 H1930 0.950 . S
C1942 C1941 1.398 . S
C1942 C1943 1.391 . S
C1943 H1931 0.950 . S
C1943 C1939 1.393 . S
C1943 C1942 1.391 . S
H1944 C1952 0.950 . S
H1945 C1957 0.950 . S
H1946 C1954 0.950 . S
H1947 C1956 0.950 . S
H1948 C1958 0.950 . S
H1949 C1960 0.950 . S
H1950 C1962 0.950 . S
H1951 C1963 0.950 . S
C1952 H1944 0.950 . S
C1952 C1953 1.386 . S
C1952 C1954 1.391 . S
C1953 C1952 1.386 . S
C1953 C1957 1.393 . S
C1954 H1946 0.950 . S
C1954 C1952 1.391 . S
C1954 C1955 1.400 . S
C1955 C1954 1.400 . S
C1955 C1956 1.398 . S
C1955 C1961 1.491 . S
C1956 H1947 0.950 . S
C1956 C1955 1.398 . S
C1956 C1957 1.391 . S
C1957 H1945 0.950 . S
C1957 C1953 1.393 . S
C1957 C1956 1.391 . S
C1958 H1948 0.950 . S
C1958 C1959 1.386 . S
C1958 C1960 1.391 . S
C1959 C1958 1.386 . S
C1959 C1963 1.393 . S
C1960 H1949 0.950 . S
C1960 C1958 1.391 . S
C1960 C1961 1.400 . S
C1961 C1955 1.491 . S
C1961 C1960 1.400 . S
C1961 C1962 1.398 . S
C1962 H1950 0.950 . S
C1962 C1961 1.398 . S
C1962 C1963 1.391 . S
C1963 H1951 0.950 . S
C1963 C1959 1.393 . S
C1963 C1962 1.391 . S
H1964 C1972 0.950 . S
H1965 C1977 0.950 . S
H1966 C1974 0.950 . S
H1967 C1976 0.950 . S
H1968 C1978 0.950 . S
H1969 C1980 0.950 . S
H1970 C1982 0.950 . S
H1971 C1983 0.950 . S
C1972 H1964 0.950 . S
C1972 C1973 1.386 . S
C1972 C1974 1.391 . S
C1973 C1972 1.386 . S
C1973 C1977 1.393 . S
C1974 H1966 0.950 . S
C1974 C1972 1.391 . S
C1974 C1975 1.400 . S
C1975 C1974 1.400 . S
C1975 C1976 1.398 . S
C1975 C1981 1.491 . S
C1976 H1967 0.950 . S
C1976 C1975 1.398 . S
C1976 C1977 1.391 . S
C1977 H1965 0.950 . S
C1977 C1973 1.393 . S
C1977 C1976 1.391 . S
C1978 H1968 0.950 . S
C1978 C1979 1.386 . S
C1978 C1980 1.391 . S
C1979 C1978 1.386 . S
C1979 C1983 1.393 . S
C1980 H1969 0.950 . S
C1980 C1978 1.391 . S
C1980 C1981 1.400 . S
C1981 C1975 1.491 . S
C1981 C1980 1.400 . S
C1981 C1982 1.398 . S
C1982 H1970 0.950 . S
C1982 C1981 1.398 . S
C1982 C1983 1.391 . S
C1983 H1971 0.950 . S
C1983 C1979 1.393 . S
C1983 C1982 1.391 . S
H1984 C1992 0.950 . S
H1985 C1997 0.950 . S
H1986 C1994 0.950 . S
H1987 C1996 0.950 . S
H1988 C1998 0.950 . S
H1989 C2000 0.950 . S
H1990 C2002 0.950 . S
H1991 C2003 0.950 . S
C1992 H1984 0.950 . S
C1992 C1993 1.386 . S
C1992 C1994 1.391 . S
C1993 C1992 1.386 . S
C1993 C1997 1.393 . S
C1994 H1986 0.950 . S
C1994 C1992 1.391 . S
C1994 C1995 1.400 . S
C1995 C1994 1.400 . S
C1995 C1996 1.398 . S
C1995 C2001 1.491 . S
C1996 H1987 0.950 . S
C1996 C1995 1.398 . S
C1996 C1997 1.391 . S
C1997 H1985 0.950 . S
C1997 C1993 1.393 . S
C1997 C1996 1.391 . S
C1998 H1988 0.950 . S
C1998 C1999 1.386 . S
C1998 C2000 1.391 . S
C1999 C1998 1.386 . S
C1999 C2003 1.393 . S
C2000 H1989 0.950 . S
C2000 C1998 1.391 . S
C2000 C2001 1.400 . S
C2001 C1995 1.491 . S
C2001 C2000 1.400 . S
C2001 C2002 1.398 . S
C2002 H1990 0.950 . S
C2002 C2001 1.398 . S
C2002 C2003 1.391 . S
C2003 H1991 0.950 . S
C2003 C1999 1.393 . S
C2003 C2002 1.391 . S
H2004 C2012 0.950 . S
H2005 C2017 0.950 . S
H2006 C2014 0.950 . S
H2007 C2016 0.950 . S
H2008 C2018 0.950 . S
H2009 C2020 0.950 . S
H2010 C2022 0.950 . S
H2011 C2023 0.950 . S
C2012 H2004 0.950 . S
C2012 C2013 1.386 . S
C2012 C2014 1.391 . S
C2013 C2012 1.386 . S
C2013 C2017 1.393 . S
C2014 H2006 0.950 . S
C2014 C2012 1.391 . S
C2014 C2015 1.400 . S
C2015 C2014 1.400 . S
C2015 C2016 1.398 . S
C2015 C2021 1.491 . S
C2016 H2007 0.950 . S
C2016 C2015 1.398 . S
C2016 C2017 1.391 . S
C2017 H2005 0.950 . S
C2017 C2013 1.393 . S
C2017 C2016 1.391 . S
C2018 H2008 0.950 . S
C2018 C2019 1.386 . S
C2018 C2020 1.391 . S
C2019 C2018 1.386 . S
C2019 C2023 1.393 . S
C2020 H2009 0.950 . S
C2020 C2018 1.391 . S
C2020 C2021 1.400 . S
C2021 C2015 1.491 . S
C2021 C2020 1.400 . S
C2021 C2022 1.398 . S
C2022 H2010 0.950 . S
C2022 C2021 1.398 . S
C2022 C2023 1.391 . S
C2023 H2011 0.950 . S
C2023 C2019 1.393 . S
C2023 C2022 1.391 . S
H2024 C2032 0.950 . S
H2025 C2037 0.950 . S
H2026 C2034 0.950 . S
H2027 C2036 0.950 . S
H2028 C2038 0.950 . S
H2029 C2040 0.950 . S
H2030 C2042 0.950 . S
H2031 C2043 0.950 . S
C2032 H2024 0.950 . S
C2032 C2033 1.386 . S
C2032 C2034 1.391 . S
C2033 C2032 1.386 . S
C2033 C2037 1.393 . S
C2034 H2026 0.950 . S
C2034 C2032 1.391 . S
C2034 C2035 1.400 . S
C2035 C2034 1.400 . S
C2035 C2036 1.398 . S
C2035 C2041 1.491 . S
C2036 H2027 0.950 . S
C2036 C2035 1.398 . S
C2036 C2037 1.391 . S
C2037 H2025 0.950 . S
C2037 C2033 1.393 . S
C2037 C2036 1.391 . S
C2038 H2028 0.950 . S
C2038 C2039 1.386 . S
C2038 C2040 1.391 . S
C2039 C2038 1.386 . S
C2039 C2043 1.393 . S
C2040 H2029 0.950 . S
C2040 C2038 1.391 . S
C2040 C2041 1.400 . S
C2041 C2035 1.491 . S
C2041 C2040 1.400 . S
C2041 C2042 1.398 . S
C2042 H2030 0.950 . S
C2042 C2041 1.398 . S
C2042 C2043 1.391 . S
C2043 H2031 0.950 . S
C2043 C2039 1.393 . S
C2043 C2042 1.391 . S
H2044 C2052 0.950 1_556 S
H2045 C2057 0.950 . S
H2046 C2054 0.950 . S
H2047 C2056 0.950 . S
H2048 C2058 0.950 . S
H2049 C2060 0.950 . S
H2050 C2062 0.950 . S
H2051 C2063 0.950 . S
C2052 H2044 0.950 1_554 S
C2052 C2053 1.386 . S
C2052 C2054 1.391 . S
C2053 C2052 1.386 . S
C2053 C2057 1.393 . S
C2054 H2046 0.950 . S
C2054 C2052 1.391 . S
C2054 C2055 1.400 . S
C2055 C2054 1.400 . S
C2055 C2056 1.398 . S
C2055 C2061 1.491 . S
C2056 H2047 0.950 . S
C2056 C2055 1.398 . S
C2056 C2057 1.391 . S
C2057 H2045 0.950 . S
C2057 C2053 1.393 . S
C2057 C2056 1.391 . S
C2058 H2048 0.950 . S
C2058 C2059 1.386 . S
C2058 C2060 1.391 . S
C2059 C2058 1.386 . S
C2059 C2063 1.393 . S
C2060 H2049 0.950 . S
C2060 C2058 1.391 . S
C2060 C2061 1.400 . S
C2061 C2055 1.491 . S
C2061 C2060 1.400 . S
C2061 C2062 1.398 . S
C2062 H2050 0.950 . S
C2062 C2061 1.398 . S
C2062 C2063 1.391 . S
C2063 H2051 0.950 . S
C2063 C2059 1.393 . S
C2063 C2062 1.391 . S
H2064 C2072 0.950 . S
H2065 C2077 0.950 . S
H2066 C2074 0.950 . S
H2067 C2076 0.950 . S
H2068 C2078 0.950 . S
H2069 C2080 0.950 . S
H2070 C2082 0.950 . S
H2071 C2083 0.950 . S
C2072 H2064 0.950 . S
C2072 C2073 1.386 . S
C2072 C2074 1.391 . S
C2073 C2072 1.386 . S
C2073 C2077 1.393 . S
C2074 H2066 0.950 . S
C2074 C2072 1.391 . S
C2074 C2075 1.400 . S
C2075 C2074 1.400 . S
C2075 C2076 1.398 . S
C2075 C2081 1.491 . S
C2076 H2067 0.950 . S
C2076 C2075 1.398 . S
C2076 C2077 1.391 . S
C2077 H2065 0.950 . S
C2077 C2073 1.393 . S
C2077 C2076 1.391 . S
C2078 H2068 0.950 . S
C2078 C2079 1.386 . S
C2078 C2080 1.391 . S
C2079 C2078 1.386 . S
C2079 C2083 1.393 . S
C2080 H2069 0.950 . S
C2080 C2078 1.391 . S
C2080 C2081 1.400 . S
C2081 C2075 1.491 . S
C2081 C2080 1.400 . S
C2081 C2082 1.398 . S
C2082 H2070 0.950 . S
C2082 C2081 1.398 . S
C2082 C2083 1.391 . S
C2083 H2071 0.950 . S
C2083 C2079 1.393 . S
C2083 C2082 1.391 . S
H2084 C2092 0.950 . S
H2085 C2097 0.950 . S
H2086 C2094 0.950 . S
H2087 C2096 0.950 . S
H2088 C2098 0.950 . S
H2089 C2100 0.947 . S
H2090 C2102 0.950 . S
H2091 C2103 0.950 . S
C2092 H2084 0.950 . S
C2092 C2093 1.386 . S
C2092 C2094 1.391 . S
C2093 C2092 1.386 . S
C2093 C2097 1.393 . S
C2094 H2086 0.950 . S
C2094 C2092 1.391 . S
C2094 C2095 1.400 . S
C2095 C2094 1.400 . S
C2095 C2096 1.398 . S
C2095 C2101 1.497 . S
C2096 H2087 0.950 . S
C2096 C2095 1.398 . S
C2096 C2097 1.391 . S
C2097 H2085 0.950 . S
C2097 C2093 1.393 . S
C2097 C2096 1.391 . S
C2098 H2088 0.950 . S
C2098 C2099 1.386 . S
C2098 C2100 1.394 1_455 S
C2099 C2098 1.386 . S
C2099 C2103 1.393 . S
C2100 H2089 0.947 . S
C2100 C2098 1.394 1_655 S
C2100 C2101 1.400 . S
C2101 C2095 1.497 . S
C2101 C2100 1.400 . S
C2101 C2102 1.391 1_655 S
C2102 H2090 0.950 . S
C2102 C2101 1.391 1_455 S
C2102 C2103 1.391 . S
C2103 H2091 0.950 . S
C2103 C2099 1.393 . S
C2103 C2102 1.391 . S
H2104 C2112 0.950 . S
H2105 C2117 0.950 . S
H2106 C2114 0.950 . S
H2107 C2116 0.950 . S
H2108 C2118 0.950 . S
H2109 C2120 0.950 . S
H2110 C2122 0.950 . S
H2111 C2123 0.950 . S
C2112 H2104 0.950 . S
C2112 C2113 1.386 . S
C2112 C2114 1.391 . S
C2113 C2112 1.386 . S
C2113 C2117 1.393 . S
C2114 H2106 0.950 . S
C2114 C2112 1.391 . S
C2114 C2115 1.400 . S
C2115 C2114 1.400 . S
C2115 C2116 1.398 . S
C2115 C2121 1.491 . S
C2116 H2107 0.950 . S
C2116 C2115 1.398 . S
C2116 C2117 1.391 . S
C2117 H2105 0.950 . S
C2117 C2113 1.393 . S
C2117 C2116 1.391 . S
C2118 H2108 0.950 . S
C2118 C2119 1.386 . S
C2118 C2120 1.391 . S
C2119 C2118 1.386 . S
C2119 C2123 1.393 . S
C2120 H2109 0.950 . S
C2120 C2118 1.391 . S
C2120 C2121 1.400 . S
C2121 C2115 1.491 . S
C2121 C2120 1.400 . S
C2121 C2122 1.398 . S
C2122 H2110 0.950 . S
C2122 C2121 1.398 . S
C2122 C2123 1.391 . S
C2123 H2111 0.950 . S
C2123 C2119 1.393 . S
C2123 C2122 1.391 . S
H2124 C2132 0.950 . S
H2125 C2137 0.950 . S
H2126 C2134 0.950 . S
H2127 C2136 0.950 . S
H2128 C2138 0.950 . S
H2129 C2140 0.950 1_556 S
H2130 C2142 0.950 . S
H2131 C2143 0.950 . S
C2132 H2124 0.950 . S
C2132 C2133 1.386 . S
C2132 C2134 1.391 . S
C2133 C2132 1.386 . S
C2133 C2137 1.393 . S
C2134 H2126 0.950 . S
C2134 C2132 1.391 . S
C2134 C2135 1.400 . S
C2135 C2134 1.400 . S
C2135 C2136 1.398 . S
C2135 C2141 1.491 1_556 S
C2136 H2127 0.950 . S
C2136 C2135 1.398 . S
C2136 C2137 1.391 . S
C2137 H2125 0.950 . S
C2137 C2133 1.393 . S
C2137 C2136 1.391 . S
C2138 H2128 0.950 . S
C2138 C2139 1.386 . S
C2138 C2140 1.391 . S
C2139 C2138 1.386 . S
C2139 C2143 1.393 . S
C2140 H2129 0.950 1_554 S
C2140 C2138 1.391 . S
C2140 C2141 1.400 . S
C2141 C2135 1.491 1_554 S
C2141 C2140 1.400 . S
C2141 C2142 1.398 . S
C2142 H2130 0.950 . S
C2142 C2141 1.398 . S
C2142 C2143 1.391 . S
C2143 H2131 0.950 . S
C2143 C2139 1.393 . S
C2143 C2142 1.391 . S
H2144 C2152 0.950 . S
H2145 C2157 0.950 . S
H2146 C2154 0.950 . S
H2147 C2156 0.950 . S
H2148 C2158 0.950 . S
H2149 C2160 0.950 . S
H2150 C2162 0.950 . S
H2151 C2163 0.950 . S
C2152 H2144 0.950 . S
C2152 C2153 1.386 . S
C2152 C2154 1.391 . S
C2153 C2152 1.386 . S
C2153 C2157 1.393 . S
C2154 H2146 0.950 . S
C2154 C2152 1.391 . S
C2154 C2155 1.400 . S
C2155 C2154 1.400 . S
C2155 C2156 1.398 . S
C2155 C2161 1.491 . S
C2156 H2147 0.950 . S
C2156 C2155 1.398 . S
C2156 C2157 1.391 . S
C2157 H2145 0.950 . S
C2157 C2153 1.393 . S
C2157 C2156 1.391 . S
C2158 H2148 0.950 . S
C2158 C2159 1.386 . S
C2158 C2160 1.391 . S
C2159 C2158 1.386 . S
C2159 C2163 1.393 . S
C2160 H2149 0.950 . S
C2160 C2158 1.391 . S
C2160 C2161 1.400 . S
C2161 C2155 1.491 . S
C2161 C2160 1.400 . S
C2161 C2162 1.398 . S
C2162 H2150 0.950 . S
C2162 C2161 1.398 . S
C2162 C2163 1.391 . S
C2163 H2151 0.950 . S
C2163 C2159 1.393 . S
C2163 C2162 1.391 . S
H2164 C2172 0.950 1_655 S
H2165 C2177 0.950 . S
H2166 C2174 0.950 . S
H2167 C2176 0.950 . S
H2168 C2178 0.950 . S
H2169 C2180 0.950 . S
H2170 C2182 0.950 . S
H2171 C2183 0.950 . S
C2172 H2164 0.950 1_455 S
C2172 C2173 1.386 . S
C2172 C2174 1.391 . S
C2173 C2172 1.386 . S
C2173 C2177 1.393 . S
C2174 H2166 0.950 . S
C2174 C2172 1.391 . S
C2174 C2175 1.400 . S
C2175 C2174 1.400 . S
C2175 C2176 1.398 . S
C2175 C2181 1.491 . S
C2176 H2167 0.950 . S
C2176 C2175 1.398 . S
C2176 C2177 1.391 . S
C2177 H2165 0.950 . S
C2177 C2173 1.393 . S
C2177 C2176 1.391 . S
C2178 H2168 0.950 . S
C2178 C2179 1.386 . S
C2178 C2180 1.391 . S
C2179 C2178 1.386 . S
C2179 C2183 1.393 . S
C2180 H2169 0.950 . S
C2180 C2178 1.391 . S
C2180 C2181 1.400 . S
C2181 C2175 1.491 . S
C2181 C2180 1.400 . S
C2181 C2182 1.398 . S
C2182 H2170 0.950 . S
C2182 C2181 1.398 . S
C2182 C2183 1.391 . S
C2183 H2171 0.950 . S
C2183 C2179 1.393 . S
C2183 C2182 1.391 . S
H2184 C2192 0.950 . S
H2185 C2197 0.950 . S
H2186 C2194 0.950 . S
H2187 C2196 0.950 . S
H2188 C2198 0.950 . S
H2189 C2200 0.950 . S
H2190 C2202 0.950 . S
H2191 C2203 0.950 . S
C2192 H2184 0.950 . S
C2192 C2193 1.386 . S
C2192 C2194 1.391 . S
C2193 C2192 1.386 . S
C2193 C2197 1.393 . S
C2194 H2186 0.950 . S
C2194 C2192 1.391 . S
C2194 C2195 1.400 . S
C2195 C2194 1.400 . S
C2195 C2196 1.398 . S
C2195 C2201 1.491 . S
C2196 H2187 0.950 . S
C2196 C2195 1.398 . S
C2196 C2197 1.391 . S
C2197 H2185 0.950 . S
C2197 C2193 1.393 . S
C2197 C2196 1.391 . S
C2198 H2188 0.950 . S
C2198 C2199 1.386 . S
C2198 C2200 1.391 . S
C2199 C2198 1.386 . S
C2199 C2203 1.393 . S
C2200 H2189 0.950 . S
C2200 C2198 1.391 . S
C2200 C2201 1.400 . S
C2201 C2195 1.491 . S
C2201 C2200 1.400 . S
C2201 C2202 1.398 . S
C2202 H2190 0.950 . S
C2202 C2201 1.398 . S
C2202 C2203 1.391 . S
C2203 H2191 0.950 . S
C2203 C2199 1.393 . S
C2203 C2202 1.391 . S
H2204 C2212 0.950 . S
H2205 C2217 0.950 . S
H2206 C2214 0.950 . S
H2207 C2216 0.950 . S
H2208 C2218 0.950 . S
H2209 C2220 0.950 . S
H2210 C2222 0.950 . S
H2211 C2223 0.950 . S
C2212 H2204 0.950 . S
C2212 C2213 1.386 . S
C2212 C2214 1.391 . S
C2213 C2212 1.386 . S
C2213 C2217 1.393 . S
C2214 H2206 0.950 . S
C2214 C2212 1.391 . S
C2214 C2215 1.400 . S
C2215 C2214 1.400 . S
C2215 C2216 1.398 . S
C2215 C2221 1.491 . S
C2216 H2207 0.950 . S
C2216 C2215 1.398 . S
C2216 C2217 1.391 . S
C2217 H2205 0.950 . S
C2217 C2213 1.393 . S
C2217 C2216 1.391 . S
C2218 H2208 0.950 . S
C2218 C2219 1.386 . S
C2218 C2220 1.391 . S
C2219 C2218 1.386 . S
C2219 C2223 1.393 . S
C2220 H2209 0.950 . S
C2220 C2218 1.391 . S
C2220 C2221 1.400 1_556 S
C2221 C2215 1.491 . S
C2221 C2220 1.400 1_554 S
C2221 C2222 1.398 . S
C2222 H2210 0.950 . S
C2222 C2221 1.398 . S
C2222 C2223 1.391 1_554 S
C2223 H2211 0.950 . S
C2223 C2219 1.393 . S
C2223 C2222 1.391 1_556 S
H2224 C2232 0.950 . S
H2225 C2237 0.950 . S
H2226 C2234 0.950 . S
H2227 C2236 0.950 . S
H2228 C2238 0.950 . S
H2229 C2240 0.950 . S
H2230 C2242 0.950 . S
H2231 C2243 0.950 . S
C2232 H2224 0.950 . S
C2232 C2233 1.386 . S
C2232 C2234 1.391 . S
C2233 C2232 1.386 . S
C2233 C2237 1.393 . S
C2234 H2226 0.950 . S
C2234 C2232 1.391 . S
C2234 C2235 1.400 . S
C2235 C2234 1.400 . S
C2235 C2236 1.398 . S
C2235 C2241 1.491 . S
C2236 H2227 0.950 . S
C2236 C2235 1.398 . S
C2236 C2237 1.391 . S
C2237 H2225 0.950 . S
C2237 C2233 1.393 . S
C2237 C2236 1.391 . S
C2238 H2228 0.950 . S
C2238 C2239 1.386 . S
C2238 C2240 1.391 . S
C2239 C2238 1.386 . S
C2239 C2243 1.393 . S
C2240 H2229 0.950 . S
C2240 C2238 1.391 . S
C2240 C2241 1.400 . S
C2241 C2235 1.491 . S
C2241 C2240 1.400 . S
C2241 C2242 1.398 . S
C2242 H2230 0.950 . S
C2242 C2241 1.398 . S
C2242 C2243 1.391 . S
C2243 H2231 0.950 . S
C2243 C2239 1.393 . S
C2243 C2242 1.391 . S
H2244 C2252 0.950 . S
H2245 C2257 0.950 . S
H2246 C2254 0.950 . S
H2247 C2256 0.950 . S
H2248 C2258 0.950 . S
H2249 C2260 0.950 . S
H2250 C2262 0.950 . S
H2251 C2263 0.950 . S
C2252 H2244 0.950 . S
C2252 C2253 1.386 . S
C2252 C2254 1.391 . S
C2253 C2252 1.386 . S
C2253 C2257 1.393 . S
C2254 H2246 0.950 . S
C2254 C2252 1.391 . S
C2254 C2255 1.400 . S
C2255 C2254 1.400 . S
C2255 C2256 1.398 . S
C2255 C2261 1.491 . S
C2256 H2247 0.950 . S
C2256 C2255 1.398 . S
C2256 C2257 1.391 . S
C2257 H2245 0.950 . S
C2257 C2253 1.393 . S
C2257 C2256 1.391 . S
C2258 H2248 0.950 . S
C2258 C2259 1.386 . S
C2258 C2260 1.391 . S
C2259 C2258 1.386 . S
C2259 C2263 1.393 . S
C2260 H2249 0.950 . S
C2260 C2258 1.391 . S
C2260 C2261 1.400 . S
C2261 C2255 1.491 . S
C2261 C2260 1.400 . S
C2261 C2262 1.398 . S
C2262 H2250 0.950 . S
C2262 C2261 1.398 . S
C2262 C2263 1.391 . S
C2263 H2251 0.950 . S
C2263 C2259 1.393 . S
C2263 C2262 1.391 . S
H2264 C2272 0.950 . S
H2265 C2277 0.950 . S
H2266 C2274 0.950 . S
H2267 C2276 0.950 . S
H2268 C2278 0.950 . S
H2269 C2280 0.950 . S
H2270 C2282 0.950 . S
H2271 C2283 0.950 . S
C2272 H2264 0.950 . S
C2272 C2273 1.386 . S
C2272 C2274 1.391 . S
C2273 C2272 1.386 . S
C2273 C2277 1.393 . S
C2274 H2266 0.950 . S
C2274 C2272 1.391 . S
C2274 C2275 1.400 . S
C2275 C2274 1.400 . S
C2275 C2276 1.398 . S
C2275 C2281 1.491 . S
C2276 H2267 0.950 . S
C2276 C2275 1.398 . S
C2276 C2277 1.391 . S
C2277 H2265 0.950 . S
C2277 C2273 1.393 . S
C2277 C2276 1.391 . S
C2278 H2268 0.950 . S
C2278 C2279 1.386 . S
C2278 C2280 1.391 . S
C2279 C2278 1.386 . S
C2279 C2283 1.393 . S
C2280 H2269 0.950 . S
C2280 C2278 1.391 . S
C2280 C2281 1.400 . S
C2281 C2275 1.491 . S
C2281 C2280 1.400 . S
C2281 C2282 1.398 . S
C2282 H2270 0.950 . S
C2282 C2281 1.398 . S
C2282 C2283 1.391 . S
C2283 H2271 0.950 . S
C2283 C2279 1.393 . S
C2283 C2282 1.391 . S
H2284 C2292 0.950 . S
H2285 C2297 0.950 . S
H2286 C2294 0.950 . S
H2287 C2296 0.950 . S
H2288 C2298 0.950 . S
H2289 C2300 0.950 . S
H2290 C2302 0.950 . S
H2291 C2303 0.950 . S
C2292 H2284 0.950 . S
C2292 C2293 1.386 . S
C2292 C2294 1.391 . S
C2293 C2292 1.386 . S
C2293 C2297 1.393 . S
C2294 H2286 0.950 . S
C2294 C2292 1.391 . S
C2294 C2295 1.400 . S
C2295 C2294 1.400 . S
C2295 C2296 1.398 . S
C2295 C2301 1.491 . S
C2296 H2287 0.950 . S
C2296 C2295 1.398 . S
C2296 C2297 1.391 . S
C2297 H2285 0.950 . S
C2297 C2293 1.393 . S
C2297 C2296 1.391 . S
C2298 H2288 0.950 . S
C2298 C2299 1.386 . S
C2298 C2300 1.391 . S
C2299 C2298 1.386 . S
C2299 C2303 1.393 . S
C2300 H2289 0.950 . S
C2300 C2298 1.391 . S
C2300 C2301 1.400 . S
C2301 C2295 1.491 . S
C2301 C2300 1.400 . S
C2301 C2302 1.398 . S
C2302 H2290 0.950 . S
C2302 C2301 1.398 . S
C2302 C2303 1.391 . S
C2303 H2291 0.950 . S
C2303 C2299 1.393 . S
C2303 C2302 1.391 . S
H2304 C2312 0.950 . S
H2305 C2317 0.950 . S
H2306 C2314 0.950 . S
H2307 C2316 0.950 . S
H2308 C2318 0.950 . S
H2309 C2320 0.950 . S
H2310 C2322 0.950 . S
H2311 C2323 0.950 . S
C2312 H2304 0.950 . S
C2312 C2313 1.386 . S
C2312 C2314 1.391 . S
C2313 C2312 1.386 . S
C2313 C2317 1.393 . S
C2314 H2306 0.950 . S
C2314 C2312 1.391 . S
C2314 C2315 1.400 . S
C2315 C2314 1.400 . S
C2315 C2316 1.398 . S
C2315 C2321 1.491 . S
C2316 H2307 0.950 . S
C2316 C2315 1.398 . S
C2316 C2317 1.391 . S
C2317 H2305 0.950 . S
C2317 C2313 1.393 . S
C2317 C2316 1.391 . S
C2318 H2308 0.950 . S
C2318 C2319 1.386 . S
C2318 C2320 1.391 . S
C2319 C2318 1.386 . S
C2319 C2323 1.393 . S
C2320 H2309 0.950 . S
C2320 C2318 1.391 . S
C2320 C2321 1.400 . S
C2321 C2315 1.491 . S
C2321 C2320 1.400 . S
C2321 C2322 1.398 . S
C2322 H2310 0.950 . S
C2322 C2321 1.398 . S
C2322 C2323 1.391 . S
C2323 H2311 0.950 . S
C2323 C2319 1.393 . S
C2323 C2322 1.391 . S
H2324 C2332 0.950 . S
H2325 C2337 0.950 . S
H2326 C2334 0.950 . S
H2327 C2336 0.950 . S
H2328 C2338 0.950 . S
H2329 C2340 0.950 . S
H2330 C2342 0.950 . S
H2331 C2343 0.950 . S
C2332 H2324 0.950 . S
C2332 C2333 1.386 . S
C2332 C2334 1.391 . S
C2333 C2332 1.386 . S
C2333 C2337 1.393 . S
C2334 H2326 0.950 . S
C2334 C2332 1.391 . S
C2334 C2335 1.400 . S
C2335 C2334 1.400 . S
C2335 C2336 1.398 . S
C2335 C2341 1.491 . S
C2336 H2327 0.950 . S
C2336 C2335 1.398 . S
C2336 C2337 1.391 . S
C2337 H2325 0.950 . S
C2337 C2333 1.393 . S
C2337 C2336 1.391 . S
C2338 H2328 0.950 . S
C2338 C2339 1.386 . S
C2338 C2340 1.391 . S
C2339 C2338 1.386 . S
C2339 C2343 1.393 . S
C2340 H2329 0.950 . S
C2340 C2338 1.391 . S
C2340 C2341 1.400 . S
C2341 C2335 1.491 . S
C2341 C2340 1.400 . S
C2341 C2342 1.398 . S
C2342 H2330 0.950 . S
C2342 C2341 1.398 . S
C2342 C2343 1.391 . S
C2343 H2331 0.950 . S
C2343 C2339 1.393 . S
C2343 C2342 1.391 . S
H2344 C2352 0.950 . S
H2345 C2357 0.950 . S
H2346 C2354 0.950 . S
H2347 C2356 0.950 . S
H2348 C2358 0.950 . S
H2349 C2360 0.950 . S
H2350 C2362 0.950 . S
H2351 C2363 0.950 . S
C2352 H2344 0.950 . S
C2352 C2353 1.386 . S
C2352 C2354 1.391 . S
C2353 C2352 1.386 . S
C2353 C2357 1.393 . S
C2354 H2346 0.950 . S
C2354 C2352 1.391 . S
C2354 C2355 1.400 . S
C2355 C2354 1.400 . S
C2355 C2356 1.398 . S
C2355 C2361 1.491 . S
C2356 H2347 0.950 . S
C2356 C2355 1.398 . S
C2356 C2357 1.391 . S
C2357 H2345 0.950 . S
C2357 C2353 1.393 . S
C2357 C2356 1.391 . S
C2358 H2348 0.950 . S
C2358 C2359 1.386 . S
C2358 C2360 1.391 . S
C2359 C2358 1.386 . S
C2359 C2363 1.393 . S
C2360 H2349 0.950 . S
C2360 C2358 1.391 . S
C2360 C2361 1.400 . S
C2361 C2355 1.491 . S
C2361 C2360 1.400 . S
C2361 C2362 1.398 . S
C2362 H2350 0.950 . S
C2362 C2361 1.398 . S
C2362 C2363 1.391 . S
C2363 H2351 0.950 . S
C2363 C2359 1.393 . S
C2363 C2362 1.391 . S
H2364 C2372 0.950 . S
H2365 C2377 0.950 . S
H2366 C2374 0.950 . S
H2367 C2376 0.950 . S
H2368 C2378 0.950 . S
H2369 C2380 0.950 . S
H2370 C2382 0.950 . S
H2371 C2383 0.950 . S
C2372 H2364 0.950 . S
C2372 C2373 1.386 . S
C2372 C2374 1.391 . S
C2373 C2372 1.386 . S
C2373 C2377 1.393 . S
C2374 H2366 0.950 . S
C2374 C2372 1.391 . S
C2374 C2375 1.400 . S
C2375 C2374 1.400 . S
C2375 C2376 1.398 . S
C2375 C2381 1.491 . S
C2376 H2367 0.950 . S
C2376 C2375 1.398 . S
C2376 C2377 1.391 . S
C2377 H2365 0.950 . S
C2377 C2373 1.393 . S
C2377 C2376 1.391 . S
C2378 H2368 0.950 . S
C2378 C2379 1.386 . S
C2378 C2380 1.391 . S
C2379 C2378 1.386 . S
C2379 C2383 1.393 . S
C2380 H2369 0.950 . S
C2380 C2378 1.391 . S
C2380 C2381 1.400 . S
C2381 C2375 1.491 . S
C2381 C2380 1.400 . S
C2381 C2382 1.398 . S
C2382 H2370 0.950 . S
C2382 C2381 1.398 . S
C2382 C2383 1.391 . S
C2383 H2371 0.950 . S
C2383 C2379 1.393 . S
C2383 C2382 1.391 . S
H2384 C2392 0.950 . S
H2385 C2397 0.950 . S
H2386 C2394 0.950 . S
H2387 C2396 0.950 . S
H2388 C2398 0.950 . S
H2389 C2400 0.950 . S
H2390 C2402 0.950 . S
H2391 C2403 0.950 . S
C2392 H2384 0.950 . S
C2392 C2393 1.386 . S
C2392 C2394 1.391 . S
C2393 C2392 1.386 . S
C2393 C2397 1.393 . S
C2394 H2386 0.950 . S
C2394 C2392 1.391 . S
C2394 C2395 1.400 . S
C2395 C2394 1.400 . S
C2395 C2396 1.398 . S
C2395 C2401 1.491 . S
C2396 H2387 0.950 . S
C2396 C2395 1.398 . S
C2396 C2397 1.391 . S
C2397 H2385 0.950 . S
C2397 C2393 1.393 . S
C2397 C2396 1.391 . S
C2398 H2388 0.950 . S
C2398 C2399 1.386 . S
C2398 C2400 1.391 . S
C2399 C2398 1.386 . S
C2399 C2403 1.393 . S
C2400 H2389 0.950 . S
C2400 C2398 1.391 . S
C2400 C2401 1.400 . S
C2401 C2395 1.491 . S
C2401 C2400 1.400 . S
C2401 C2402 1.398 . S
C2402 H2390 0.950 . S
C2402 C2401 1.398 . S
C2402 C2403 1.391 . S
C2403 H2391 0.950 . S
C2403 C2399 1.393 . S
C2403 C2402 1.391 . S
H2404 C2412 0.950 . S
H2405 C2417 0.950 . S
H2406 C2414 0.950 . S
H2407 C2416 0.950 . S
H2408 C2418 0.950 . S
H2409 C2420 0.950 . S
H2410 C2422 0.950 . S
H2411 C2423 0.950 . S
C2412 H2404 0.950 . S
C2412 C2413 1.386 . S
C2412 C2414 1.391 . S
C2413 C2412 1.386 . S
C2413 C2417 1.393 . S
C2414 H2406 0.950 . S
C2414 C2412 1.391 . S
C2414 C2415 1.400 . S
C2415 C2414 1.400 . S
C2415 C2416 1.398 . S
C2415 C2421 1.491 . S
C2416 H2407 0.950 . S
C2416 C2415 1.398 . S
C2416 C2417 1.391 . S
C2417 H2405 0.950 . S
C2417 C2413 1.393 . S
C2417 C2416 1.391 . S
C2418 H2408 0.950 . S
C2418 C2419 1.386 . S
C2418 C2420 1.391 . S
C2419 C2418 1.386 . S
C2419 C2423 1.393 . S
C2420 H2409 0.950 . S
C2420 C2418 1.391 . S
C2420 C2421 1.400 . S
C2421 C2415 1.491 . S
C2421 C2420 1.400 . S
C2421 C2422 1.398 . S
C2422 H2410 0.950 . S
C2422 C2421 1.398 . S
C2422 C2423 1.391 . S
C2423 H2411 0.950 . S
C2423 C2419 1.393 . S
C2423 C2422 1.391 . S
H2424 C2432 0.950 . S
H2425 C2437 0.950 . S
H2426 C2434 0.950 . S
H2427 C2436 0.950 . S
H2428 C2438 0.950 . S
H2429 C2440 0.950 . S
H2430 C2442 0.950 . S
H2431 C2443 0.950 . S
C2432 H2424 0.950 . S
C2432 C2433 1.386 . S
C2432 C2434 1.391 . S
C2433 C2432 1.386 . S
C2433 C2437 1.393 . S
C2434 H2426 0.950 . S
C2434 C2432 1.391 . S
C2434 C2435 1.400 . S
C2435 C2434 1.400 . S
C2435 C2436 1.398 . S
C2435 C2441 1.491 . S
C2436 H2427 0.950 . S
C2436 C2435 1.398 . S
C2436 C2437 1.391 . S
C2437 H2425 0.950 . S
C2437 C2433 1.393 . S
C2437 C2436 1.391 . S
C2438 H2428 0.950 . S
C2438 C2439 1.386 . S
C2438 C2440 1.391 . S
C2439 C2438 1.386 . S
C2439 C2443 1.393 . S
C2440 H2429 0.950 . S
C2440 C2438 1.391 . S
C2440 C2441 1.400 . S
C2441 C2435 1.491 . S
C2441 C2440 1.400 . S
C2441 C2442 1.398 . S
C2442 H2430 0.950 . S
C2442 C2441 1.398 . S
C2442 C2443 1.391 . S
C2443 H2431 0.950 . S
C2443 C2439 1.393 . S
C2443 C2442 1.391 . S
H2444 C2452 0.950 . S
H2445 C2457 0.950 . S
H2446 C2454 0.950 . S
H2447 C2456 0.950 . S
H2448 C2458 0.950 . S
H2449 C2460 0.950 . S
H2450 C2462 0.950 . S
H2451 C2463 0.950 . S
C2452 H2444 0.950 . S
C2452 C2453 1.386 . S
C2452 C2454 1.391 . S
C2453 C2452 1.386 . S
C2453 C2457 1.393 . S
C2454 H2446 0.950 . S
C2454 C2452 1.391 . S
C2454 C2455 1.400 . S
C2455 C2454 1.400 . S
C2455 C2456 1.398 . S
C2455 C2461 1.491 . S
C2456 H2447 0.950 . S
C2456 C2455 1.398 . S
C2456 C2457 1.391 . S
C2457 H2445 0.950 . S
C2457 C2453 1.393 . S
C2457 C2456 1.391 . S
C2458 H2448 0.950 . S
C2458 C2459 1.386 . S
C2458 C2460 1.391 . S
C2459 C2458 1.386 . S
C2459 C2463 1.393 . S
C2460 H2449 0.950 . S
C2460 C2458 1.391 . S
C2460 C2461 1.400 . S
C2461 C2455 1.491 . S
C2461 C2460 1.400 . S
C2461 C2462 1.398 . S
C2462 H2450 0.950 . S
C2462 C2461 1.398 . S
C2462 C2463 1.391 . S
C2463 H2451 0.950 . S
C2463 C2459 1.393 . S
C2463 C2462 1.391 . S
H2464 C2472 0.950 . S
H2465 C2477 0.950 . S
H2466 C2474 0.950 . S
H2467 C2476 0.950 . S
H2468 C2478 0.950 . S
H2469 C2480 0.950 . S
H2470 C2482 0.950 . S
H2471 C2483 0.950 . S
C2472 H2464 0.950 . S
C2472 C2473 1.386 . S
C2472 C2474 1.391 . S
C2473 C2472 1.386 . S
C2473 C2477 1.393 . S
C2474 H2466 0.950 . S
C2474 C2472 1.391 . S
C2474 C2475 1.400 . S
C2475 C2474 1.400 . S
C2475 C2476 1.398 . S
C2475 C2481 1.491 . S
C2476 H2467 0.950 . S
C2476 C2475 1.398 . S
C2476 C2477 1.391 . S
C2477 H2465 0.950 . S
C2477 C2473 1.393 . S
C2477 C2476 1.391 . S
C2478 H2468 0.950 . S
C2478 C2479 1.386 . S
C2478 C2480 1.391 . S
C2479 C2478 1.386 . S
C2479 C2483 1.393 . S
C2480 H2469 0.950 . S
C2480 C2478 1.391 . S
C2480 C2481 1.400 . S
C2481 C2475 1.491 . S
C2481 C2480 1.400 . S
C2481 C2482 1.398 . S
C2482 H2470 0.950 . S
C2482 C2481 1.398 . S
C2482 C2483 1.391 . S
C2483 H2471 0.950 . S
C2483 C2479 1.393 . S
C2483 C2482 1.391 . S
H2484 C2492 0.950 . S
H2485 C2497 0.950 . S
H2486 C2494 0.950 . S
H2487 C2496 0.950 . S
H2488 C2498 0.950 . S
H2489 C2500 0.950 . S
H2490 C2502 0.950 . S
H2491 C2503 0.950 . S
C2492 H2484 0.950 . S
C2492 C2493 1.386 . S
C2492 C2494 1.391 . S
C2493 C2492 1.386 . S
C2493 C2497 1.393 . S
C2494 H2486 0.950 . S
C2494 C2492 1.391 . S
C2494 C2495 1.400 . S
C2495 C2494 1.400 . S
C2495 C2496 1.398 . S
C2495 C2501 1.491 . S
C2496 H2487 0.950 . S
C2496 C2495 1.398 . S
C2496 C2497 1.391 . S
C2497 H2485 0.950 . S
C2497 C2493 1.393 . S
C2497 C2496 1.391 . S
C2498 H2488 0.950 . S
C2498 C2499 1.386 . S
C2498 C2500 1.391 . S
C2499 C2498 1.386 . S
C2499 C2503 1.393 . S
C2500 H2489 0.950 . S
C2500 C2498 1.391 . S
C2500 C2501 1.400 . S
C2501 C2495 1.491 . S
C2501 C2500 1.400 . S
C2501 C2502 1.398 . S
C2502 H2490 0.950 . S
C2502 C2501 1.398 . S
C2502 C2503 1.391 . S
C2503 H2491 0.950 . S
C2503 C2499 1.393 . S
C2503 C2502 1.391 . S
H2504 C2512 0.950 . S
H2505 C2517 0.950 . S
H2506 C2514 0.950 . S
H2507 C2516 0.950 . S
H2508 C2518 0.950 . S
H2509 C2520 0.950 . S
H2510 C2522 0.950 . S
H2511 C2523 0.950 . S
C2512 H2504 0.950 . S
C2512 C2513 1.386 . S
C2512 C2514 1.391 . S
C2513 C2512 1.386 . S
C2513 C2517 1.393 . S
C2514 H2506 0.950 . S
C2514 C2512 1.391 . S
C2514 C2515 1.400 . S
C2515 C2514 1.400 . S
C2515 C2516 1.398 . S
C2515 C2521 1.491 . S
C2516 H2507 0.950 . S
C2516 C2515 1.398 . S
C2516 C2517 1.391 . S
C2517 H2505 0.950 . S
C2517 C2513 1.393 . S
C2517 C2516 1.391 . S
C2518 H2508 0.950 . S
C2518 C2519 1.386 . S
C2518 C2520 1.391 . S
C2519 C2518 1.386 . S
C2519 C2523 1.393 . S
C2520 H2509 0.950 . S
C2520 C2518 1.391 . S
C2520 C2521 1.400 . S
C2521 C2515 1.491 . S
C2521 C2520 1.400 . S
C2521 C2522 1.398 . S
C2522 H2510 0.950 . S
C2522 C2521 1.398 . S
C2522 C2523 1.391 . S
C2523 H2511 0.950 . S
C2523 C2519 1.393 . S
C2523 C2522 1.391 . S
H2524 C2532 0.950 . S
H2525 C2537 0.950 . S
H2526 C2534 0.950 . S
H2527 C2536 0.950 . S
H2528 C2538 0.950 . S
H2529 C2540 0.950 . S
H2530 C2542 0.950 . S
H2531 C2543 0.950 . S
C2532 H2524 0.950 . S
C2532 C2533 1.386 . S
C2532 C2534 1.391 . S
C2533 C2532 1.386 . S
C2533 C2537 1.393 . S
C2534 H2526 0.950 . S
C2534 C2532 1.391 . S
C2534 C2535 1.400 . S
C2535 C2534 1.400 . S
C2535 C2536 1.398 . S
C2535 C2541 1.491 . S
C2536 H2527 0.950 . S
C2536 C2535 1.398 . S
C2536 C2537 1.391 . S
C2537 H2525 0.950 . S
C2537 C2533 1.393 . S
C2537 C2536 1.391 . S
C2538 H2528 0.950 . S
C2538 C2539 1.386 . S
C2538 C2540 1.391 . S
C2539 C2538 1.386 . S
C2539 C2543 1.393 . S
C2540 H2529 0.950 . S
C2540 C2538 1.391 . S
C2540 C2541 1.400 . S
C2541 C2535 1.491 . S
C2541 C2540 1.400 . S
C2541 C2542 1.398 . S
C2542 H2530 0.950 . S
C2542 C2541 1.398 . S
C2542 C2543 1.391 . S
C2543 H2531 0.950 . S
C2543 C2539 1.393 . S
C2543 C2542 1.391 . S
H2544 C2552 0.950 . S
H2545 C2557 0.950 . S
H2546 C2554 0.950 . S
H2547 C2556 0.950 . S
H2548 C2558 0.950 . S
H2549 C2560 0.950 . S
H2550 C2562 0.950 . S
H2551 C2563 0.950 . S
C2552 H2544 0.950 . S
C2552 C2553 1.386 . S
C2552 C2554 1.391 . S
C2553 C2552 1.386 . S
C2553 C2557 1.393 . S
C2554 H2546 0.950 . S
C2554 C2552 1.391 . S
C2554 C2555 1.400 . S
C2555 C2554 1.400 . S
C2555 C2556 1.398 . S
C2555 C2561 1.491 . S
C2556 H2547 0.950 . S
C2556 C2555 1.398 . S
C2556 C2557 1.391 . S
C2557 H2545 0.950 . S
C2557 C2553 1.393 . S
C2557 C2556 1.391 . S
C2558 H2548 0.950 . S
C2558 C2559 1.386 . S
C2558 C2560 1.391 . S
C2559 C2558 1.386 . S
C2559 C2563 1.393 . S
C2560 H2549 0.950 . S
C2560 C2558 1.391 . S
C2560 C2561 1.400 . S
C2561 C2555 1.491 . S
C2561 C2560 1.400 . S
C2561 C2562 1.398 . S
C2562 H2550 0.950 . S
C2562 C2561 1.398 . S
C2562 C2563 1.391 . S
C2563 H2551 0.950 . S
C2563 C2559 1.393 . S
C2563 C2562 1.391 . S
H2564 C2572 0.950 . S
H2565 C2577 0.950 . S
H2566 C2574 0.950 . S
H2567 C2576 0.950 . S
H2568 C2578 0.950 . S
H2569 C2580 0.950 . S
H2570 C2582 0.950 . S
H2571 C2583 0.950 . S
C2572 H2564 0.950 . S
C2572 C2573 1.386 . S
C2572 C2574 1.391 . S
C2573 C2572 1.386 . S
C2573 C2577 1.393 . S
C2574 H2566 0.950 . S
C2574 C2572 1.391 . S
C2574 C2575 1.400 . S
C2575 C2574 1.400 . S
C2575 C2576 1.398 . S
C2575 C2581 1.491 . S
C2576 H2567 0.950 . S
C2576 C2575 1.398 . S
C2576 C2577 1.391 . S
C2577 H2565 0.950 . S
C2577 C2573 1.393 . S
C2577 C2576 1.391 . S
C2578 H2568 0.950 . S
C2578 C2579 1.386 . S
C2578 C2580 1.391 1_655 S
C2579 C2578 1.386 . S
C2579 C2583 1.393 . S
C2580 H2569 0.950 . S
C2580 C2578 1.391 1_455 S
C2580 C2581 1.400 . S
C2581 C2575 1.491 . S
C2581 C2580 1.400 . S
C2581 C2582 1.398 1_455 S
C2582 H2570 0.950 . S
C2582 C2581 1.398 1_655 S
C2582 C2583 1.391 . S
C2583 H2571 0.950 . S
C2583 C2579 1.393 . S
C2583 C2582 1.391 . S
C679 C330 1.215 . S
C673 C10 1.231 . S
C693 C16 1.251 . S
C699 C342 1.226 . S
C719 C377 1.239 . S
C713 C30 1.286 . S
C739 C386 1.251 . S
C733 C42 1.253 . S
C759 C341 1.254 . S
C753 C57 1.299 . S
C773 C69 1.256 . S
C779 C366 1.255 . S
C799 C385 1.255 . S
C793 C83 1.280 . S
C813 C101 1.294 . S
C819 C327 1.274 . S
C833 C108 1.263 . S
C839 C320 1.237 . S
C859 C344 1.254 . S
C853 C120 1.262 . S
C879 C363 1.256 . S
C873 C133 1.300 . S
C899 C388 1.230 . S
C893 C147 1.257 . S
C919 C349 1.248 . S
C913 C114 1.267 . S
C939 C374 1.229 . S
C933 C122 1.258 . S
C953 C135 1.272 . S
C959 C393 1.244 . S
C979 C333 1.250 . S
C973 C153 1.266 . S
C993 C160 1.250 . S
C999 C322 1.250 . S
C1013 C174 1.282 . S
C1019 C421 1.232 . S
C1039 C437 1.253 . S
C1033 C187 1.275 . S
C1059 C451 1.248 . S
C1053 C205 1.268 . S
C1073 C212 1.286 . S
C1079 C319 1.255 . S
C1093 C226 1.296 . S
C1099 C371 1.269 . S
C1119 C454 1.261 . S
C1113 C185 1.267 . S
C1139 C418 1.265 . S
C1133 C244 1.289 . S
C1159 C474 1.209 . S
C1153 C23 1.219 . S
C1179 C498 1.203 . S
C1173 C5 1.232 . S
C1193 C49 1.259 . S
C1199 C531 1.221 . S
C1213 C29 1.277 . S
C1219 C539 1.250 . S
C1233 C94 1.270 . S
C1239 C509 1.259 . S
C1253 C88 1.247 . S
C1259 C520 1.218 . S
C1279 C540 1.242 . S
C1273 C70 1.239 . S
C1293 C62 1.270 . S
C1299 C473 1.226 . S
C1313 C257 1.224 . S
C1319 C476 1.197 . S
C1339 C506 1.238 . S
C1333 C200 1.242 . S
C1359 C517 1.232 . S
C1353 C211 1.277 . S
C1379 C547 1.252 . S
C1373 C179 1.262 . S
C1399 C495 1.232 . S
C1393 C251 1.259 . S
C1419 C528 1.210 . S
C1413 C198 1.237 . S
C1439 C542 1.238 . S
C1433 C213 1.242 . S
C1453 C173 1.272 . S
C1459 C481 1.224 . S
C1479 C484 1.196 . S
C1473 C264 1.215 . S
C1493 C148 1.248 . S
C1499 C572 1.247 . S
C1519 C584 1.250 . S
C1513 C278 1.252 . S
C1533 C127 1.260 . S
C1539 C605 1.255 . S
C1559 C487 1.257 . S
C1553 C140 1.281 . S
C1579 C525 1.218 . S
C1573 C289 1.259 . S
C1599 C608 1.194 . S
C1593 C276 1.206 . S
C1613 C303 1.253 . S
C1619 C575 1.214 . S
C1633 C36 1.263 . S
C1639 C630 1.257 . S
C1653 C44 1.246 . S
C1659 C408 1.242 . S
C1679 C432 1.216 . S
C1673 C4 1.241 . S
C1693 C18 1.271 . S
C1699 C462 1.263 . S
C1713 C81 1.274 . S
C1719 C407 1.252 . S
C1733 C95 1.289 . S
C1739 C443 1.267 . S
C1759 C459 1.255 . S
C1753 C55 1.292 . S
C1779 C641 1.229 . S
C1773 C75 1.278 . S
C1799 C638 1.231 . S
C1793 C277 1.253 . S
C1819 C410 1.255 . S
C1813 C263 1.270 . S
C1839 C440 1.267 . S
C1833 C302 1.282 . S
C1853 C290 1.280 . S
C1859 C452 1.255 . S
C1879 C415 1.233 . S
C1873 C283 1.274 . S
C1893 C265 1.250 . S
C1899 C429 1.224 . S
C1919 C465 1.253 . S
C1913 C304 1.286 . S
C1933 C296 1.287 . S
C1939 C627 1.239 . S
C1959 C628 1.258 . S
C1953 C199 1.261 . S
C1973 C224 1.269 . S
C1979 C355 1.224 . S
C1999 C364 1.224 . S
C1993 C252 1.236 . S
C2013 C166 1.262 . S
C2019 C399 1.238 . S
C2039 C635 1.249 . S
C2033 C238 1.267 . S
C2059 C430 1.254 . S
C2053 C172 1.264 . S
C2079 C396 1.248 . S
C2073 C250 1.251 . S
C2099 C352 1.250 . S
C2093 C218 1.256 . S
C2113 C43 1.265 . S
C2119 C649 1.225 . S
C2133 C31 1.252 . S
C2139 C561 1.242 . S
C2153 C17 1.249 . S
C2159 C597 1.237 . S
C2179 C616 1.226 . S
C2173 C3 1.222 . S
C2199 C562 1.227 . S
C2193 C68 1.231 . S
C2213 C56 1.249 . S
C2219 C586 1.226 . S
C2239 C613 1.237 . S
C2233 C96 1.282 . S
C2253 C82 1.252 . S
C2259 C650 1.226 . S
C2279 C657 1.228 . S
C2273 C192 1.266 . S
C2293 C161 1.258 . S
C2299 C569 1.231 . S
C2313 C237 1.267 . S
C2319 C583 1.245 . S
C2339 C606 1.224 . S
C2333 C225 1.231 . S
C2359 C564 1.210 . S
C2353 C186 1.238 . S
C2373 C159 1.236 . S
C2379 C594 1.210 . S
C2399 C619 1.240 . S
C2393 C239 1.265 . S
C2419 C652 1.235 . S
C2413 C231 1.249 . S
C2439 C663 1.220 . S
C2433 C121 1.242 . S
C2459 C503 1.276 . S
C2453 C291 1.291 . S
C2473 C109 1.258 . S
C2479 C518 1.235 . S
C2493 C270 1.244 . S
C2499 C550 1.233 . S
C2519 C660 1.246 . S
C2513 C309 1.255 . S
C2539 C591 1.218 . S
C2533 C146 1.254 . S
C2559 C553 1.227 . S
C2553 C107 1.253 . S
C2579 C496 1.230 . S
C2573 C134 1.225 . S
