# Generated by pormake.
# Topology scu, (8,4)-cn, num edge types: 1
# Building blocks:
#     Node 0, Type 0, BuildingBlock: VETTIZ_charged_sbu_0, # of connection points: 8
#     Node 1, Type 1, BuildingBlock: ESEHIV_clean_sbu_0, # of connection points: 4
#     Node 2, Type 1, BuildingBlock: ESEHIV_clean_sbu_0, # of connection points: 4
#     Edge 3, Type (0, 1), BuildingBlock: FUNLAD_clean_linker_0, # of connection points: 2
#     Edge 4, Type (0, 1), BuildingBlock: FUNLAD_clean_linker_0, # of connection points: 2
#     Edge 5, Type (0, 1), BuildingBlock: FUNLAD_clean_linker_0, # of connection points: 2
#     Edge 6, Type (0, 1), BuildingBlock: FUNLAD_clean_linker_0, # of connection points: 2
#     Edge 7, Type (0, 1), BuildingBlock: FUNLAD_clean_linker_0, # of connection points: 2
#     Edge 8, Type (0, 1), BuildingBlock: FUNLAD_clean_linker_0, # of connection points: 2
#     Edge 9, Type (0, 1), BuildingBlock: FUNLAD_clean_linker_0, # of connection points: 2
#     Edge 10, Type (0, 1), BuildingBlock: FUNLAD_clean_linker_0, # of connection points: 2
# Relax obj value: 0.003
# Max RMSD: 0.097
# Mean RMSD: 0.073
data_MOF--net-scu--node1-VETTIZ_charged_sbu_0--node2-ESEHIV_clean_sbu_0--edge1-FUNLAD_clean_linker_0
_symmetry_space_group_name_H-M    P1
_symmetry_Int_Tables_number       1
_symmetry_cell_setting            triclinic
loop_
_symmetry_equiv_pos_as_xyz
'x, y, z'
_cell_length_a     30.723311
_cell_length_b     30.68874
_cell_length_c     21.802924
_cell_angle_alpha  92.768651
_cell_angle_beta   92.854569
_cell_angle_gamma 91.841547
loop_
_atom_site_label
_atom_site_type_symbol
_atom_site_fract_x
_atom_site_fract_y
_atom_site_fract_z
_atom_type_partial_charge
Fe0 Fe 0.01858 0.05307 0.15405 0.0
O1 O 0.01157 0.04852 0.06395 0.0
Fe2 Fe 0.02815 0.98898 1.01998 0.0
Fe3 Fe 0.95518 0.05789 1.01708 0.0
O4 O 0.01531 0.04564 0.06368 0.0
O5 O 0.97174 0.99843 0.9734 0.0
O6 O 0.96881 1.00186 0.97278 0.0
Fe7 Fe 0.965 0.99281 0.88331 0.0
C8 C 0.92052 0.02827 0.13584 0.0
O9 O 1.00857 0.11827 0.13986 0.0
O10 O 0.94845 0.11577 0.0717 0.0
O11 O 0.03107 0.99216 0.87071 0.0
O12 O 0.06347 0.02137 0.95724 0.0
O13 O 0.08714 0.98914 0.07565 0.0
O14 O 0.08417 0.05169 0.13903 0.0
O15 O 0.98845 0.09433 0.95588 0.0
O16 O 0.96642 0.05867 0.86752 0.0
C17 C 0.10508 0.02004 0.11327 0.0
O18 O 0.97015 0.92799 0.90137 0.0
O19 O 0.03158 0.929 0.96757 0.0
O20 O 0.95242 0.04722 0.16729 0.0
O21 O 0.92025 0.02296 0.07754 0.0
C22 C 0.97522 0.13576 0.11295 0.0
C23 C 0.98325 0.09236 0.89739 0.0
C24 C 0.87923 0.03125 0.92026 0.0
O25 O 0.89715 0.05998 0.96077 0.0
O26 O 0.89929 0.99864 0.89582 0.0
C27 C 0.06418 0.01012 0.90037 0.0
O28 O 0.99559 0.9538 0.08247 0.0
O29 O 0.02368 0.9872 0.16846 0.0
C30 C 1.00194 0.90902 0.92994 0.0
C31 C 1.00791 0.95306 0.13888 0.0
Cu32 Cu 0.04292 0.51888 0.52195 0.0
N33 N 0.07667 0.47563 0.55657 0.0
N34 N 0.08925 0.41736 0.61218 0.0
C35 C 0.05893 0.44324 0.58766 0.0
C36 C 0.12785 0.43429 0.59568 0.0
C37 C 0.11999 0.47022 0.5613 0.0
O38 O 0.99963 0.48713 0.46616 0.0
C39 C 0.05409 0.57143 0.62479 0.0
O40 O 0.0939 0.56148 0.61131 0.0
H41 H 0.02427 0.4398 0.5938 0.0
H42 H 0.14422 0.4914 0.54262 0.0
N43 N 0.07249 0.5592 0.47537 0.0
N44 N 0.07978 0.61901 0.42129 0.0
C45 C 0.05423 0.59622 0.45783 0.0
C46 C 0.11132 0.55852 0.4493 0.0
C47 C 0.1158 0.59535 0.41564 0.0
C48 C 0.01632 0.47126 0.41784 0.0
O49 O 0.05817 0.4781 0.41121 0.0
H50 H 0.022 0.60546 0.47021 0.0
H51 H 0.13418 0.53262 0.45289 0.0
O52 O 0.02236 0.55456 0.5906 0.0
H53 H 0.15952 0.4218 0.60771 0.0
H54 H 0.14334 0.60393 0.38903 0.0
Cu55 Cu 0.5002 0.99943 0.53226 0.0
N56 N 0.46886 0.97076 0.59064 0.0
N57 N 0.41577 0.95974 0.65559 0.0
C58 C 0.4298 0.98322 0.60911 0.0
C59 C 0.44737 0.93093 0.66615 0.0
C60 C 0.4801 0.93786 0.62606 0.0
O61 O 0.45792 0.01356 0.46669 0.0
C62 C 0.53207 0.06064 0.62947 0.0
O63 O 0.49682 0.05015 0.65784 0.0
H64 H 0.41324 0.01062 0.59052 0.0
H65 H 0.51036 0.92092 0.62399 0.0
N66 N 0.54212 0.96493 0.49652 0.0
N67 N 0.60257 0.95129 0.44675 0.0
C68 C 0.57745 0.98215 0.47135 0.0
C69 C 0.54482 0.92139 0.48781 0.0
C70 C 0.58209 0.91287 0.45676 0.0
C71 C 0.43762 0.98001 0.44104 0.0
O72 O 0.44741 0.94146 0.46035 0.0
H73 H 0.58403 0.01695 0.4701 0.0
H74 H 0.52132 0.89759 0.50254 0.0
O75 O 0.53515 0.04765 0.57345 0.0
H76 H 0.44732 0.90686 0.7008 0.0
H77 H 0.59339 0.88095 0.44319 0.0
C78 C 1.00053 0.21012 0.15341 0.0
C79 C 0.96585 0.18058 0.13555 0.0
C80 C 0.99292 0.2499 0.18422 0.0
C81 C 0.95039 0.26094 0.19871 0.0
C82 C 0.91553 0.23183 0.17969 0.0
C83 C 0.9231 0.19225 0.14755 0.0
C84 C 0.94285 0.30067 0.23837 0.0
C85 C 0.96723 0.33769 0.23501 0.0
C86 C 0.96859 0.37567 0.2805 0.0
C87 C 0.98987 0.4143 0.26445 0.0
C88 C 1.00147 0.4474 0.30885 0.0
C89 C 0.99181 0.44296 0.3705 0.0
H90 H 0.9397 0.3432 0.35597 0.0
C91 C 0.96709 0.40621 0.38613 0.0
C92 C 0.95566 0.37261 0.34145 0.0
H93 H 0.95995 0.4017 0.43361 0.0
H94 H 0.03384 0.20183 0.14525 0.0
H95 H 0.02075 0.27092 0.19942 0.0
H96 H 0.88252 0.23933 0.19077 0.0
H97 H 0.89582 0.16975 0.13523 0.0
H98 H 0.9177 0.2988 0.27147 0.0
H99 H 0.98934 0.33969 0.19774 0.0
H100 H 1.00017 0.41777 0.21805 0.0
H101 H 0.02065 0.47537 0.29564 0.0
C102 C 0.88296 0.01502 0.23331 0.0
C103 C 0.88198 0.01298 0.16864 0.0
C104 C 0.84667 1.00144 0.26461 0.0
C105 C 0.80813 0.98582 0.23204 0.0
C106 C 0.8075 0.98275 0.16747 0.0
C107 C 0.8439 0.99626 0.13608 0.0
C108 C 0.76832 0.97209 0.2638 0.0
C109 C 0.75957 0.98736 0.32084 0.0
C110 C 0.71904 0.97622 0.35255 0.0
C111 C 0.70693 1.00453 0.4008 0.0
C112 C 0.66914 0.99605 0.43186 0.0
C113 C 0.64252 0.95871 0.41596 0.0
H114 H 0.70169 0.91493 0.30158 0.0
C115 C 0.65512 0.9296 0.36878 0.0
C116 C 0.69295 0.93825 0.33728 0.0
H117 H 0.63532 0.90056 0.35546 0.0
H118 H 0.91191 0.02702 0.26006 0.0
H119 H 0.84934 1.00284 0.31432 0.0
H120 H 0.7785 0.97042 0.14108 0.0
H121 H 0.84198 0.99393 0.08628 0.0
H122 H 0.7444 0.95094 0.23765 0.0
H123 H 0.78181 0.01151 0.34451 0.0
H124 H 0.72658 0.0337 0.41424 0.0
H125 H 0.66093 0.01872 0.46873 0.0
C126 C 0.02262 0.90929 0.23157 0.0
C127 C 0.00988 0.91055 0.1688 0.0
C128 C 0.02965 0.86953 0.25863 0.0
C129 C 0.02389 0.82977 0.22367 0.0
C130 C 0.01027 0.83098 0.16125 0.0
C131 C 1.0031 0.87081 0.13417 0.0
C132 C 0.03435 0.78693 0.24965 0.0
C133 C 0.0351 0.77976 0.31032 0.0
C134 C 0.04682 0.73754 0.33693 0.0
C135 C 0.03151 0.72789 0.39453 0.0
C136 C 0.0424 0.68921 0.42204 0.0
C137 C 0.06948 0.65934 0.39309 0.0
H138 H 0.08781 0.71461 0.26444 0.0
C139 C 0.08556 0.66926 0.33591 0.0
C140 C 0.0743 0.70787 0.30801 0.0
H141 H 0.10638 0.6469 0.31233 0.0
H142 H 0.02845 0.93919 0.25966 0.0
H143 H 0.04121 0.87043 0.30636 0.0
H144 H 1.00579 0.80099 0.133 0.0
H145 H 0.99366 0.87043 0.0856 0.0
H146 H 0.04053 0.76014 0.21722 0.0
H147 H 0.02499 0.80527 0.34224 0.0
H148 H 0.0108 0.75032 0.41834 0.0
H149 H 0.03 0.68296 0.4665 0.0
C150 C 0.17266 0.97855 0.13858 0.0
C151 C 0.15193 0.01839 0.1329 0.0
C152 C 0.21449 0.97749 0.16752 0.0
C153 C 0.23639 0.0164 0.19101 0.0
C154 C 0.21676 0.05624 0.18114 0.0
C155 C 0.17502 0.05725 0.15294 0.0
C156 C 0.27878 0.01712 0.22778 0.0
C157 C 0.29175 0.98371 0.26139 0.0
C158 C 0.33148 0.98503 0.30391 0.0
C159 C 0.34743 0.9452 0.32244 0.0
C160 C 0.38234 0.94405 0.36566 0.0
C161 C 0.40233 0.98282 0.3923 0.0
H162 H 0.3401 0.0556 0.31774 0.0
C163 C 0.38704 0.02295 0.37328 0.0
C164 C 0.35189 0.02411 0.32956 0.0
H165 H 0.40155 0.05339 0.39309 0.0
H166 H 0.15581 0.94809 0.12339 0.0
H167 H 0.22913 0.94616 0.17209 0.0
H168 H 0.23297 0.08675 0.19773 0.0
H169 H 0.16022 0.0886 0.14854 0.0
H170 H 0.29827 0.04733 0.23023 0.0
H171 H 0.27189 0.95372 0.25907 0.0
H172 H 0.33244 0.91459 0.3039 0.0
H173 H 0.39318 0.91243 0.37885 0.0
C174 C 0.04481 0.84107 0.91321 0.0
C175 C 1.00467 0.8616 0.91463 0.0
C176 C 0.04691 0.79819 0.88812 0.0
C177 C 1.00875 0.77512 0.86417 0.0
C178 C 0.96851 0.79475 0.87011 0.0
C179 C 0.96648 0.8374 0.89466 0.0
C180 C 1.00899 0.73169 0.83017 0.0
C181 C 0.04425 0.71589 0.8036 0.0
C182 C 0.04341 0.67547 0.76276 0.0
C183 C 0.08267 0.65432 0.7555 0.0
C184 C 0.08513 0.61935 0.71274 0.0
C185 C 0.04844 0.60474 0.6752 0.0
H186 H 0.9753 0.67595 0.73024 0.0
C187 C 1.00854 0.62478 0.68365 0.0
C188 C 1.00601 0.65992 0.72703 0.0
H189 H 0.97979 0.6145 0.6552 0.0
H190 H 0.07474 0.85875 0.92868 0.0
H191 H 0.07852 0.78381 0.88675 0.0
H192 H 0.93851 0.77775 0.85319 0.0
H193 H 0.93486 0.85197 0.8961 0.0
H194 H 0.97809 0.71348 0.8234 0.0
H195 H 0.07537 0.73359 0.8104 0.0
H196 H 0.11197 0.66553 0.78215 0.0
H197 H 0.11642 0.60461 0.70794 0.0
C198 C 0.14625 0.01711 0.90133 0.0
C199 C 0.10562 0.01344 0.8684 0.0
C200 C 0.18516 0.01472 0.87036 0.0
C201 C 0.18413 1.00875 0.80575 0.0
C202 C 0.14353 1.00724 0.77306 0.0
C203 C 0.10484 1.00929 0.80386 0.0
C204 C 0.22408 1.00396 0.77014 0.0
C205 C 0.26264 0.99068 0.79373 0.0
C206 C 0.30155 0.98289 0.75649 0.0
C207 C 0.33593 0.95912 0.78154 0.0
C208 C 0.37302 0.95103 0.74846 0.0
C209 C 0.37685 0.96661 0.68923 0.0
H210 H 0.28073 0.01815 0.67629 0.0
C211 C 0.34239 0.99036 0.66415 0.0
C212 C 0.30551 0.99873 0.69735 0.0
H213 H 0.34366 1.00266 0.61862 0.0
H214 H 0.14801 0.02045 0.95109 0.0
H215 H 0.21575 0.01745 0.89726 0.0
H216 H 0.1416 1.00328 0.72333 0.0
H217 H 0.07418 1.00679 0.77694 0.0
H218 H 0.22009 1.00868 0.72127 0.0
H219 H 0.26545 0.98282 0.84174 0.0
H220 H 0.33415 0.9467 0.82707 0.0
H221 H 0.39893 0.93317 0.76996 0.0
C222 C 0.01613 0.16865 0.8905 0.0
C223 C 0.99584 0.13065 0.86181 0.0
C224 C 0.02737 0.2044 0.85582 0.0
C225 C 0.01852 0.20283 0.79163 0.0
C226 C 0.99827 0.16489 0.76337 0.0
C227 C 0.9873 0.12932 0.79772 0.0
C228 C 0.02765 0.24024 0.75236 0.0
C229 C 0.05669 0.27346 0.76737 0.0
C230 C 0.06476 0.31003 0.72602 0.0
C231 C 0.10514 0.33314 0.73094 0.0
C232 C 0.11353 0.36783 0.69313 0.0
C233 C 0.08148 0.38063 0.64991 0.0
H234 H 1.00061 0.30714 0.67873 0.0
C235 C 0.04099 0.35764 0.64532 0.0
C236 C 0.03264 0.32301 0.68295 0.0
H237 H 0.01557 0.36627 0.61243 0.0
H238 H 0.02309 0.17091 0.93976 0.0
H239 H 0.04205 0.23335 0.87968 0.0
H240 H 0.99078 0.16269 0.71419 0.0
H241 H 0.97173 0.1008 0.77371 0.0
H242 H 0.01071 0.23903 0.70736 0.0
H243 H 0.0767 0.27306 0.80978 0.0
H244 H 0.13037 0.32426 0.76407 0.0
H245 H 0.14484 0.38512 0.69865 0.0
C246 C 0.8149 0.0784 0.89654 0.0
C247 C 0.83404 0.03729 0.89487 0.0
C248 C 0.7756 0.08474 0.86265 0.0
C249 C 0.75481 0.04997 0.82664 0.0
C250 C 0.77291 1.00864 0.82779 0.0
C251 C 0.8117 1.0023 0.86156 0.0
C252 C 0.7164 0.05534 0.78348 0.0
C253 C 0.68715 0.08697 0.7885 0.0
C254 C 0.64822 0.08741 0.74492 0.0
C255 C 0.60723 0.09646 0.76721 0.0
C256 C 0.56941 0.09057 0.72858 0.0
C257 C 0.57195 0.07633 0.66653 0.0
H258 H 0.68236 0.07033 0.66288 0.0
C259 C 0.6134 0.071 0.6431 0.0
C260 C 0.65107 0.07629 0.68189 0.0
H261 H 0.61673 0.06023 0.59556 0.0
H262 H 0.83136 0.10613 0.92134 0.0
H263 H 0.76286 0.1172 0.86243 0.0
H264 H 0.75756 0.98117 0.80096 0.0
H265 H 0.82503 0.97003 0.85957 0.0
H266 H 0.71079 0.03018 0.7468 0.0
H267 H 0.68937 0.11008 0.82792 0.0
H268 H 0.60418 0.10563 0.81538 0.0
H269 H 0.53804 0.09522 0.74807 0.0
loop_
_geom_bond_atom_site_label_1
_geom_bond_atom_site_label_2
_geom_bond_distance
_geom_bond_site_symmetry_2
_ccdc_geom_bond_type
Fe0 O1 1.886 1_455 S
Fe0 O4 1.715 1_545 S
Fe0 O9 2.077 . S
Fe0 O14 1.935 . S
Fe0 O20 2.077 1_455 S
Fe0 O29 1.935 1_445 S
O1 Fe0 1.886 1_655 S
O1 Fe3 1.723 . S
Fe2 O4 1.886 . S
Fe2 O5 1.715 1_554 S
Fe2 O12 1.935 1_554 S
Fe2 O13 2.077 . S
Fe2 O19 1.935 1_554 S
Fe2 O28 2.077 . S
Fe3 O1 1.723 . S
Fe3 O6 1.878 1_554 S
Fe3 O10 1.941 . S
Fe3 O15 2.070 1_554 S
Fe3 O21 1.942 . S
Fe3 O25 2.070 1_554 S
O4 Fe0 1.715 1_565 S
O4 Fe2 1.886 . S
O5 Fe2 1.715 1_556 S
O5 Fe7 1.884 1_565 S
O6 Fe3 1.878 1_556 S
O6 Fe7 1.716 1_655 S
Fe7 O5 1.884 1_545 S
Fe7 O6 1.716 1_455 S
Fe7 O11 2.077 . S
Fe7 O16 1.937 . S
Fe7 O18 2.075 1_445 S
Fe7 O26 1.935 1_445 S
C8 O20 1.381 . S
C8 O21 1.421 . S
O9 Fe0 2.077 . S
O9 C22 1.381 1_455 S
O10 Fe3 1.941 . S
O10 C22 1.421 . S
O11 Fe7 2.077 . S
O11 C27 1.381 1_545 S
O12 Fe2 1.935 1_556 S
O12 C27 1.421 . S
O13 Fe2 2.077 . S
O13 C17 1.381 . S
O14 Fe0 1.935 . S
O14 C17 1.421 1_545 S
O15 Fe3 2.070 1_556 S
O15 C23 1.381 . S
O16 Fe7 1.937 . S
O16 C23 1.421 1_455 S
C17 O13 1.381 . S
C17 O14 1.421 1_565 S
O18 Fe7 2.075 1_665 S
O18 C30 1.381 1_655 S
O19 Fe2 1.935 1_556 S
O19 C30 1.421 . S
O20 Fe0 2.077 1_655 S
O20 C8 1.381 . S
O21 Fe3 1.942 . S
O21 C8 1.421 . S
C22 O9 1.381 1_655 S
C22 O10 1.421 . S
C23 O15 1.381 . S
C23 O16 1.421 1_655 S
C24 O25 1.381 . S
C24 O26 1.421 1_545 S
O25 Fe3 2.070 1_556 S
O25 C24 1.381 . S
O26 Fe7 1.935 1_665 S
O26 C24 1.421 1_565 S
C27 O11 1.381 1_565 S
C27 O12 1.421 . S
O28 Fe2 2.077 . S
O28 C31 1.381 . S
O29 Fe0 1.935 1_665 S
O29 C31 1.421 1_655 S
C30 O18 1.381 1_455 S
C30 O19 1.421 . S
C31 O28 1.381 . S
C31 O29 1.421 1_455 S
Cu32 N33 1.999 . S
Cu32 O38 1.974 . S
Cu32 N43 1.985 . S
Cu32 O52 1.959 . S
N33 Cu32 1.999 . S
N33 C35 1.263 . S
N33 C37 1.389 . S
N34 C35 1.358 . S
N34 C36 1.400 . S
C35 N33 1.263 . S
C35 N34 1.358 . S
C35 H41 0.930 1_655 S
C36 N34 1.400 . S
C36 C37 1.351 . S
C36 H53 0.930 . S
C37 N33 1.389 . S
C37 C36 1.351 . S
C37 H42 0.930 . S
O38 Cu32 1.974 . S
O38 C48 1.282 1_655 S
C39 O40 1.261 . S
C39 O52 1.251 1_455 S
O40 C39 1.261 . S
H41 C35 0.930 1_455 S
H42 C37 0.930 . S
N43 Cu32 1.985 . S
N43 C45 1.335 . S
N43 C46 1.390 1_655 S
N44 C45 1.345 . S
N44 C47 1.336 1_655 S
C45 N43 1.335 . S
C45 N44 1.345 . S
C45 H50 0.930 . S
C46 N43 1.390 1_455 S
C46 C47 1.346 . S
C46 H51 0.930 . S
C47 N44 1.336 1_455 S
C47 C46 1.346 . S
C47 H54 0.929 . S
C48 O38 1.282 1_455 S
C48 O49 1.216 . S
O49 C48 1.216 . S
H50 C45 0.930 . S
H51 C46 0.930 . S
O52 Cu32 1.959 . S
O52 C39 1.251 1_655 S
H53 C36 0.930 . S
H54 C47 0.929 . S
Cu55 N56 1.999 . S
Cu55 O61 1.974 . S
Cu55 N66 1.985 . S
Cu55 O75 1.959 . S
N56 Cu55 1.999 . S
N56 C58 1.263 . S
N56 C60 1.389 . S
N57 C58 1.358 . S
N57 C59 1.400 . S
C58 N56 1.263 . S
C58 N57 1.358 . S
C58 H64 0.930 1_545 S
C59 N57 1.400 . S
C59 C60 1.351 . S
C59 H76 0.930 . S
C60 N56 1.389 . S
C60 C59 1.351 . S
C60 H65 0.930 . S
O61 Cu55 1.974 . S
O61 C71 1.282 1_545 S
C62 O63 1.261 . S
C62 O75 1.251 1_565 S
O63 C62 1.261 . S
H64 C58 0.930 1_565 S
H65 C60 0.930 . S
N66 Cu55 1.985 . S
N66 C68 1.335 . S
N66 C69 1.390 1_545 S
N67 C68 1.345 . S
N67 C70 1.336 1_545 S
C68 N66 1.335 . S
C68 N67 1.345 . S
C68 H73 0.930 . S
C69 N66 1.390 1_565 S
C69 C70 1.346 . S
C69 H74 0.930 . S
C70 N67 1.336 1_565 S
C70 C69 1.346 . S
C70 H77 0.929 . S
C71 O61 1.282 1_565 S
C71 O72 1.216 . S
O72 C71 1.216 . S
H73 C68 0.930 . S
H74 C69 0.930 . S
O75 Cu55 1.959 . S
O75 C62 1.251 1_545 S
H76 C59 0.930 . S
H77 C70 0.929 . S
C78 C79 1.386 . S
C78 C80 1.383 . S
C78 H94 0.951 . S
C79 C78 1.386 . S
C79 C83 1.383 1_455 S
C80 C78 1.383 . S
C80 C81 1.402 1_455 S
C80 H95 0.951 . S
C81 C80 1.402 1_655 S
C81 C82 1.375 . S
C81 C84 1.481 . S
C82 C81 1.375 . S
C82 C83 1.367 . S
C82 H96 0.951 . S
C83 C79 1.383 1_655 S
C83 C82 1.367 . S
C83 H97 0.950 . S
C84 C81 1.481 . S
C84 C85 1.297 1_655 S
C84 H98 0.950 . S
C85 C84 1.297 1_455 S
C85 C86 1.479 . S
C85 H99 0.950 . S
C86 C85 1.479 . S
C86 C87 1.375 . S
C86 C92 1.404 1_455 S
C87 C86 1.375 . S
C87 C88 1.369 . S
C87 H100 0.950 . S
C88 C87 1.369 . S
C88 C89 1.392 . S
C88 H101 0.951 . S
C89 C88 1.392 . S
C89 C91 1.384 1_455 S
H90 C92 0.949 . S
C91 C89 1.384 1_655 S
C91 C92 1.385 . S
C91 H93 0.950 . S
C92 C86 1.404 1_655 S
C92 H90 0.949 . S
C92 C91 1.385 . S
H93 C91 0.950 . S
H94 C78 0.951 . S
H95 C80 0.951 . S
H96 C82 0.951 . S
H97 C83 0.950 . S
H98 C84 0.950 . S
H99 C85 0.950 . S
H100 C87 0.950 . S
H101 C88 0.951 . S
C102 C103 1.386 1_565 S
C102 C104 1.383 . S
C102 H118 0.951 . S
C103 C102 1.386 1_545 S
C103 C107 1.383 . S
C104 C102 1.383 . S
C104 C105 1.402 1_565 S
C104 H119 0.951 . S
C105 C104 1.402 1_545 S
C105 C106 1.375 . S
C105 C108 1.481 . S
C106 C105 1.375 . S
C106 C107 1.367 . S
C106 H120 0.951 . S
C107 C103 1.383 . S
C107 C106 1.367 . S
C107 H121 0.950 . S
C108 C105 1.481 . S
C108 C109 1.297 . S
C108 H122 0.950 . S
C109 C108 1.297 . S
C109 C110 1.479 . S
C109 H123 0.950 . S
C110 C109 1.479 . S
C110 C111 1.366 1_545 S
C110 C116 1.404 . S
C111 C110 1.366 1_565 S
C111 C112 1.370 . S
C111 H124 0.959 . S
C112 C111 1.370 . S
C112 C113 1.392 1_565 S
C112 H125 0.951 . S
C113 C112 1.392 1_545 S
C113 C115 1.384 . S
H114 C116 0.949 . S
C115 C113 1.384 . S
C115 C116 1.385 . S
C115 H117 0.950 . S
C116 C110 1.404 . S
C116 H114 0.949 . S
C116 C115 1.385 . S
H117 C115 0.950 . S
H118 C102 0.951 . S
H119 C104 0.951 . S
H120 C106 0.951 . S
H121 C107 0.950 . S
H122 C108 0.950 . S
H123 C109 0.950 . S
H124 C111 0.959 . S
H125 C112 0.951 . S
C126 C127 1.386 1_655 S
C126 C128 1.383 . S
C126 H142 0.951 . S
C127 C126 1.386 1_455 S
C127 C131 1.383 . S
C128 C126 1.383 . S
C128 C129 1.402 . S
C128 H143 0.951 . S
C129 C128 1.402 . S
C129 C130 1.375 . S
C129 C132 1.481 . S
C130 C129 1.375 . S
C130 C131 1.367 1_655 S
C130 H144 0.952 . S
C131 C127 1.383 . S
C131 C130 1.367 1_455 S
C131 H145 0.950 . S
C132 C129 1.481 . S
C132 C133 1.297 . S
C132 H146 0.950 . S
C133 C132 1.297 . S
C133 C134 1.479 . S
C133 H147 0.950 . S
C134 C133 1.479 . S
C134 C135 1.375 . S
C134 C140 1.404 . S
C135 C134 1.375 . S
C135 C136 1.369 . S
C135 H148 0.950 . S
C136 C135 1.369 . S
C136 C137 1.392 . S
C136 H149 0.951 . S
C137 C136 1.392 . S
C137 C139 1.384 . S
H138 C140 0.949 . S
C139 C137 1.384 . S
C139 C140 1.385 . S
C139 H141 0.950 . S
C140 C134 1.404 . S
C140 H138 0.949 . S
C140 C139 1.385 . S
H141 C139 0.950 . S
H142 C126 0.951 . S
H143 C128 0.951 . S
H144 C130 0.952 . S
H145 C131 0.950 . S
H146 C132 0.950 . S
H147 C133 0.950 . S
H148 C135 0.950 . S
H149 C136 0.951 . S
C150 C151 1.386 1_565 S
C150 C152 1.383 . S
C150 H166 0.951 . S
C151 C150 1.386 1_545 S
C151 C155 1.383 . S
C152 C150 1.383 . S
C152 C153 1.402 1_565 S
C152 H167 0.951 . S
C153 C152 1.402 1_545 S
C153 C154 1.375 . S
C153 C156 1.481 . S
C154 C153 1.375 . S
C154 C155 1.367 . S
C154 H168 0.951 . S
C155 C151 1.383 . S
C155 C154 1.367 . S
C155 H169 0.950 . S
C156 C153 1.481 . S
C156 C157 1.297 1_545 S
C156 H170 0.950 . S
C157 C156 1.297 1_565 S
C157 C158 1.479 . S
C157 H171 0.950 . S
C158 C157 1.479 . S
C158 C159 1.375 . S
C158 C164 1.404 1_565 S
C159 C158 1.375 . S
C159 C160 1.369 . S
C159 H172 0.950 . S
C160 C159 1.369 . S
C160 C161 1.392 . S
C160 H173 0.951 . S
C161 C160 1.392 . S
C161 C163 1.384 1_565 S
H162 C164 0.949 . S
C163 C161 1.384 1_545 S
C163 C164 1.385 . S
C163 H165 0.950 . S
C164 C158 1.404 1_545 S
C164 H162 0.949 . S
C164 C163 1.385 . S
H165 C163 0.950 . S
H166 C150 0.951 . S
H167 C152 0.951 . S
H168 C154 0.951 . S
H169 C155 0.950 . S
H170 C156 0.950 . S
H171 C157 0.950 . S
H172 C159 0.950 . S
H173 C160 0.951 . S
C174 C175 1.363 1_455 S
C174 C176 1.383 . S
C174 H190 0.951 . S
C175 C174 1.363 1_655 S
C175 C179 1.405 . S
C176 C174 1.383 . S
C176 C177 1.402 1_455 S
C176 H191 0.951 . S
C177 C176 1.402 1_655 S
C177 C178 1.375 . S
C177 C180 1.481 . S
C178 C177 1.375 . S
C178 C179 1.367 . S
C178 H192 0.951 . S
C179 C175 1.405 . S
C179 C178 1.367 . S
C179 H193 0.950 . S
C180 C177 1.481 . S
C180 C181 1.297 1_655 S
C180 H194 0.950 . S
C181 C180 1.297 1_455 S
C181 C182 1.479 . S
C181 H195 0.950 . S
C182 C181 1.479 . S
C182 C183 1.375 . S
C182 C188 1.404 1_455 S
C183 C182 1.375 . S
C183 C184 1.369 . S
C183 H196 0.950 . S
C184 C183 1.369 . S
C184 C185 1.392 . S
C184 H197 0.951 . S
C185 C184 1.392 . S
C185 C187 1.384 1_455 S
H186 C188 0.949 . S
C187 C185 1.384 1_655 S
C187 C188 1.385 . S
C187 H189 0.950 . S
C188 C182 1.404 1_655 S
C188 H186 0.949 . S
C188 C187 1.385 . S
H189 C187 0.950 . S
H190 C174 0.951 . S
H191 C176 0.951 . S
H192 C178 0.951 . S
H193 C179 0.950 . S
H194 C180 0.950 . S
H195 C181 0.950 . S
H196 C183 0.950 . S
H197 C184 0.951 . S
C198 C199 1.385 1_565 S
C198 C200 1.383 . S
C198 H214 0.951 . S
C199 C198 1.385 1_545 S
C199 C203 1.383 . S
C200 C198 1.383 . S
C200 C201 1.402 . S
C200 H215 0.951 . S
C201 C200 1.402 . S
C201 C202 1.375 1_565 S
C201 C204 1.481 . S
C202 C201 1.375 1_545 S
C202 C203 1.367 . S
C202 H216 0.951 . S
C203 C199 1.383 . S
C203 C202 1.367 . S
C203 H217 0.950 . S
C204 C201 1.481 . S
C204 C205 1.297 . S
C204 H218 0.950 1_565 S
C205 C204 1.297 . S
C205 C206 1.479 . S
C205 H219 0.950 . S
C206 C205 1.479 . S
C206 C207 1.375 . S
C206 C212 1.404 . S
C207 C206 1.375 . S
C207 C208 1.369 . S
C207 H220 0.950 . S
C208 C207 1.369 . S
C208 C209 1.392 1_565 S
C208 H221 0.951 . S
C209 C208 1.392 1_545 S
C209 C211 1.384 . S
H210 C212 0.949 . S
C211 C209 1.384 . S
C211 C212 1.385 1_545 S
C211 H213 0.950 . S
C212 C206 1.404 . S
C212 H210 0.949 . S
C212 C211 1.385 1_565 S
H213 C211 0.950 . S
H214 C198 0.951 . S
H215 C200 0.951 . S
H216 C202 0.951 . S
H217 C203 0.950 . S
H218 C204 0.950 1_545 S
H219 C205 0.950 . S
H220 C207 0.950 . S
H221 C208 0.951 . S
C222 C223 1.386 1_455 S
C222 C224 1.383 . S
C222 H238 0.951 . S
C223 C222 1.386 1_655 S
C223 C227 1.383 . S
C224 C222 1.383 . S
C224 C225 1.402 1_455 S
C224 H239 0.951 . S
C225 C224 1.402 1_655 S
C225 C226 1.375 . S
C225 C228 1.481 . S
C226 C225 1.375 . S
C226 C227 1.367 . S
C226 H240 0.951 . S
C227 C223 1.383 . S
C227 C226 1.367 . S
C227 H241 0.950 . S
C228 C225 1.481 . S
C228 C229 1.297 1_655 S
C228 H242 0.950 . S
C229 C228 1.297 1_455 S
C229 C230 1.481 . S
C229 H243 0.950 . S
C230 C229 1.481 . S
C230 C231 1.388 . S
C230 C236 1.390 1_455 S
C231 C230 1.388 . S
C231 C232 1.369 . S
C231 H244 0.950 . S
C232 C231 1.369 . S
C232 C233 1.392 1_455 S
C232 H245 0.951 . S
C233 C232 1.392 1_655 S
C233 C235 1.384 . S
H234 C236 0.949 . S
C235 C233 1.384 . S
C235 C236 1.385 . S
C235 H237 0.950 . S
C236 C230 1.390 1_655 S
C236 H234 0.949 . S
C236 C235 1.385 . S
H237 C235 0.950 . S
H238 C222 0.951 . S
H239 C224 0.951 . S
H240 C226 0.951 . S
H241 C227 0.950 . S
H242 C228 0.950 . S
H243 C229 0.950 . S
H244 C231 0.950 . S
H245 C232 0.951 . S
C246 C247 1.386 1_545 S
C246 C248 1.383 . S
C246 H262 0.951 . S
C247 C246 1.386 1_565 S
C247 C251 1.383 . S
C248 C246 1.383 . S
C248 C249 1.402 1_545 S
C248 H263 0.951 . S
C249 C248 1.402 1_565 S
C249 C250 1.375 . S
C249 C252 1.481 . S
C250 C249 1.375 . S
C250 C251 1.367 . S
C250 H264 0.951 . S
C251 C247 1.383 . S
C251 C250 1.367 . S
C251 H265 0.950 . S
C252 C249 1.481 . S
C252 C253 1.297 1_565 S
C252 H266 0.950 . S
C253 C252 1.297 1_545 S
C253 C254 1.481 . S
C253 H267 0.950 . S
C254 C253 1.481 . S
C254 C255 1.396 . S
C254 C260 1.383 1_545 S
C255 C254 1.396 . S
C255 C256 1.369 . S
C255 H268 0.950 . S
C256 C255 1.369 . S
C256 C257 1.392 1_545 S
C256 H269 0.951 . S
C257 C256 1.392 1_565 S
C257 C259 1.384 . S
H258 C260 0.949 . S
C259 C257 1.384 . S
C259 C260 1.385 . S
C259 H261 0.950 . S
C260 C254 1.383 1_565 S
C260 H258 0.949 . S
C260 C259 1.385 . S
H261 C259 0.950 . S
H262 C246 0.951 . S
H263 C248 0.951 . S
H264 C250 0.951 . S
H265 C251 0.950 . S
H266 C252 0.950 . S
H267 C253 0.950 . S
H268 C255 0.950 . S
H269 C256 0.951 . S
C79 C22 1.440 1_455 S
C89 C48 1.490 . S
C103 C8 1.324 . S
C113 N67 1.399 . S
C127 C31 1.388 . S
C137 N44 1.381 . S
C151 C17 1.482 1_545 S
C161 C71 1.489 . S
C175 C30 1.517 1_655 S
C185 C39 1.547 . S
C199 C27 1.381 1_545 S
C209 N57 1.435 . S
C233 N34 1.433 . S
C223 C23 1.357 . S
C247 C24 1.509 1_565 S
C257 C62 1.551 . S
