# Generated by pormake.
# Topology pyr, (3,6)-cn, num edge types: 1
# Building blocks:
#     Node 0, Type 0, BuildingBlock: WUSLED_clean_sbu_0, # of connection points: 3
#     Node 1, Type 0, BuildingBlock: WUSLED_clean_sbu_0, # of connection points: 3
#     Node 2, Type 0, BuildingBlock: WUSLED_clean_sbu_0, # of connection points: 3
#     Node 3, Type 0, BuildingBlock: WUSLED_clean_sbu_0, # of connection points: 3
#     Node 4, Type 0, BuildingBlock: WUSLED_clean_sbu_0, # of connection points: 3
#     Node 5, Type 0, BuildingBlock: WUSLED_clean_sbu_0, # of connection points: 3
#     Node 6, Type 0, BuildingBlock: WUSLED_clean_sbu_0, # of connection points: 3
#     Node 7, Type 0, BuildingBlock: WUSLED_clean_sbu_0, # of connection points: 3
#     Node 8, Type 1, BuildingBlock: LEVNOQ01_clean_sbu_1, # of connection points: 6
#     Node 9, Type 1, BuildingBlock: LEVNOQ01_clean_sbu_1, # of connection points: 6
#     Node 10, Type 1, BuildingBlock: LEVNOQ01_clean_sbu_1, # of connection points: 6
#     Node 11, Type 1, BuildingBlock: LEVNOQ01_clean_sbu_1, # of connection points: 6
#     Edge 12, Type (0, 1), BuildingBlock: TEMPAE_clean_linker_10, # of connection points: 2
#     Edge 13, Type (0, 1), BuildingBlock: TEMPAE_clean_linker_10, # of connection points: 2
#     Edge 14, Type (0, 1), BuildingBlock: TEMPAE_clean_linker_10, # of connection points: 2
#     Edge 15, Type (0, 1), BuildingBlock: TEMPAE_clean_linker_10, # of connection points: 2
#     Edge 16, Type (0, 1), BuildingBlock: TEMPAE_clean_linker_10, # of connection points: 2
#     Edge 17, Type (0, 1), BuildingBlock: TEMPAE_clean_linker_10, # of connection points: 2
#     Edge 18, Type (0, 1), BuildingBlock: TEMPAE_clean_linker_10, # of connection points: 2
#     Edge 19, Type (0, 1), BuildingBlock: TEMPAE_clean_linker_10, # of connection points: 2
#     Edge 20, Type (0, 1), BuildingBlock: TEMPAE_clean_linker_10, # of connection points: 2
#     Edge 21, Type (0, 1), BuildingBlock: TEMPAE_clean_linker_10, # of connection points: 2
#     Edge 22, Type (0, 1), BuildingBlock: TEMPAE_clean_linker_10, # of connection points: 2
#     Edge 23, Type (0, 1), BuildingBlock: TEMPAE_clean_linker_10, # of connection points: 2
#     Edge 24, Type (0, 1), BuildingBlock: TEMPAE_clean_linker_10, # of connection points: 2
#     Edge 25, Type (0, 1), BuildingBlock: TEMPAE_clean_linker_10, # of connection points: 2
#     Edge 26, Type (0, 1), BuildingBlock: TEMPAE_clean_linker_10, # of connection points: 2
#     Edge 27, Type (0, 1), BuildingBlock: TEMPAE_clean_linker_10, # of connection points: 2
#     Edge 28, Type (0, 1), BuildingBlock: TEMPAE_clean_linker_10, # of connection points: 2
#     Edge 29, Type (0, 1), BuildingBlock: TEMPAE_clean_linker_10, # of connection points: 2
#     Edge 30, Type (0, 1), BuildingBlock: TEMPAE_clean_linker_10, # of connection points: 2
#     Edge 31, Type (0, 1), BuildingBlock: TEMPAE_clean_linker_10, # of connection points: 2
#     Edge 32, Type (0, 1), BuildingBlock: TEMPAE_clean_linker_10, # of connection points: 2
#     Edge 33, Type (0, 1), BuildingBlock: TEMPAE_clean_linker_10, # of connection points: 2
#     Edge 34, Type (0, 1), BuildingBlock: TEMPAE_clean_linker_10, # of connection points: 2
#     Edge 35, Type (0, 1), BuildingBlock: TEMPAE_clean_linker_10, # of connection points: 2
# Relax obj value: 0.034
# Max RMSD: 0.109
# Mean RMSD: 0.044
data_MOF--net-pry--node1-WUSLED_clean_sbu_0--node2-LEVNOQ01_clean_sbu_1--edge1-TEMPAE_clean_linker_10
_symmetry_space_group_name_H-M    P1
_symmetry_Int_Tables_number       1
_symmetry_cell_setting            triclinic
loop_
_symmetry_equiv_pos_as_xyz
'x, y, z'
_cell_length_a     48.940789
_cell_length_b     47.302492
_cell_length_c     47.015457
_cell_angle_alpha  91.648844
_cell_angle_beta   91.731138
_cell_angle_gamma 94.179802
loop_
_atom_site_label
_atom_site_type_symbol
_atom_site_fract_x
_atom_site_fract_y
_atom_site_fract_z
_atom_type_partial_charge
C0 C 0.14988 0.2349 0.11253 0.0
C1 C 0.13279 0.2493 0.13054 0.0
C2 C 0.12119 0.28077 0.09214 0.0
C3 C 0.11857 0.27198 0.12044 0.0
C4 C 0.13805 0.26589 0.07418 0.0
C5 C 0.15217 0.24327 0.08426 0.0
U6 U 0.16992 0.17762 0.16582 0.0
O7 O 0.18234 0.13458 0.15611 0.0
O8 O 0.21121 0.1658 0.17852 0.0
C9 C 0.20749 0.14033 0.16642 0.0
C10 C 0.16613 0.21168 0.12261 0.0
C11 C 0.23052 0.13019 0.14971 0.0
C12 C 0.24784 0.1004 0.11187 0.0
C13 C 0.22589 0.11224 0.12534 0.0
C14 C 0.27954 0.12436 0.14658 0.0
C15 C 0.27499 0.106 0.12251 0.0
C16 C 0.25766 0.13614 0.16002 0.0
C17 C 0.12984 0.16813 0.23581 0.0
C18 C 0.1397 0.13702 0.27473 0.0
C19 C 0.09898 0.16311 0.27534 0.0
C20 C 0.10604 0.17511 0.24945 0.0
C21 C 0.11557 0.14373 0.28832 0.0
C22 C 0.14674 0.14906 0.24868 0.0
C23 C 0.13625 0.1812 0.20832 0.0
O24 O 0.18242 0.2175 0.14508 0.0
O25 O 0.15331 0.18631 0.12303 0.0
O26 O 0.13053 0.16526 0.18525 0.0
O27 O 0.15972 0.19644 0.20725 0.0
H28 H 0.13072 0.24324 0.15246 0.0
H29 H 0.10604 0.28306 0.13502 0.0
H30 H 0.14031 0.27167 0.05221 0.0
H31 H 0.16517 0.23242 0.06995 0.0
H32 H 0.24342 0.08623 0.09355 0.0
H33 H 0.20526 0.10679 0.11698 0.0
H34 H 0.30011 0.12967 0.15516 0.0
H35 H 0.26199 0.14955 0.17892 0.0
H36 H 0.15284 0.122 0.28392 0.0
H37 H 0.08051 0.16915 0.28527 0.0
H38 H 0.09278 0.18989 0.24 0.0
H39 H 0.16522 0.14337 0.23851 0.0
C40 C 0.28823 0.87107 0.59913 0.0
C41 C 0.26237 0.85746 0.60407 0.0
C42 C 0.23961 0.89428 0.57939 0.0
C43 C 0.23836 0.86899 0.59446 0.0
C44 C 0.26547 0.90783 0.57432 0.0
C45 C 0.28949 0.89635 0.58401 0.0
U46 U 0.35128 0.86218 0.64916 0.0
O47 O 0.36864 0.82308 0.66294 0.0
O48 O 0.3932 0.85312 0.63761 0.0
C49 C 0.39099 0.82775 0.64841 0.0
C50 C 0.31358 0.85769 0.60788 0.0
C51 C 0.39886 0.80404 0.62977 0.0
C52 C 0.38976 0.75659 0.6084 0.0
C53 C 0.38115 0.77955 0.62438 0.0
C54 C 0.43351 0.7825 0.60191 0.0
C55 C 0.41617 0.75765 0.59728 0.0
C56 C 0.42498 0.80537 0.6181 0.0
C57 C 0.36294 0.91004 0.7173 0.0
C58 C 0.4042 0.91563 0.7478 0.0
C59 C 0.36195 0.93324 0.76407 0.0
C60 C 0.34868 0.92372 0.73844 0.0
C61 C 0.38988 0.92931 0.76914 0.0
C62 C 0.39082 0.90599 0.72213 0.0
C63 C 0.34814 0.90034 0.69055 0.0
O64 O 0.33691 0.87316 0.60637 0.0
O65 O 0.31234 0.84238 0.63078 0.0
O66 O 0.33546 0.87489 0.69063 0.0
O67 O 0.36077 0.90555 0.66675 0.0
H68 H 0.26067 0.83766 0.61513 0.0
H69 H 0.21879 0.85782 0.59842 0.0
H70 H 0.26717 0.92752 0.56307 0.0
H71 H 0.30902 0.90725 0.57945 0.0
H72 H 0.37585 0.73784 0.60499 0.0
H73 H 0.36079 0.77785 0.63287 0.0
H74 H 0.45408 0.78385 0.59391 0.0
H75 H 0.43906 0.82393 0.622 0.0
H76 H 0.42563 0.91196 0.75113 0.0
H77 H 0.35038 0.94395 0.77984 0.0
H78 H 0.32717 0.92711 0.73509 0.0
H79 H 0.40219 0.89533 0.70614 0.0
C80 C 0.65116 0.32772 0.73832 0.0
C81 C 0.66847 0.34867 0.72606 0.0
C82 C 0.6313 0.35984 0.69345 0.0
C83 C 0.65864 0.36453 0.70367 0.0
C84 C 0.6143 0.33842 0.70549 0.0
C85 C 0.62416 0.32253 0.72766 0.0
U86 U 0.69812 0.31681 0.80387 0.0
O87 O 0.6866 0.30249 0.84621 0.0
O88 O 0.71277 0.27716 0.82009 0.0
C89 C 0.69857 0.27864 0.84334 0.0
C90 C 0.66022 0.31168 0.76285 0.0
C91 C 0.68214 0.25276 0.85152 0.0
C92 C 0.66475 0.2034 0.84355 0.0
C93 C 0.67959 0.22778 0.83432 0.0
C94 C 0.65463 0.22872 0.88699 0.0
C95 C 0.65228 0.20353 0.87014 0.0
C96 C 0.66949 0.25289 0.87788 0.0
C97 C 0.75687 0.3712 0.8272 0.0
C98 C 0.77783 0.37567 0.87492 0.0
C99 C 0.79971 0.39987 0.836 0.0
C100 C 0.77856 0.38882 0.81729 0.0
C101 C 0.79953 0.39359 0.86508 0.0
C102 C 0.75675 0.36446 0.85612 0.0
C103 C 0.73429 0.36071 0.80725 0.0
O104 O 0.68407 0.30073 0.76108 0.0
O105 O 0.6564 0.32336 0.78796 0.0
O106 O 0.70948 0.36112 0.81713 0.0
O107 O 0.7381 0.33733 0.79255 0.0
H108 H 0.68936 0.3531 0.73412 0.0
H109 H 0.67213 0.38108 0.69502 0.0
H110 H 0.59324 0.33414 0.69792 0.0
H111 H 0.61051 0.30642 0.73682 0.0
H112 H 0.66345 0.18436 0.83009 0.0
H113 H 0.6892 0.22696 0.8139 0.0
H114 H 0.64479 0.2299 0.90727 0.0
H115 H 0.67117 0.27179 0.8916 0.0
H116 H 0.77724 0.3702 0.89712 0.0
H117 H 0.8159 0.41387 0.82778 0.0
H118 H 0.77899 0.39432 0.79509 0.0
H119 H 0.74025 0.35074 0.86421 0.0
C120 C 0.78349 0.6091 0.37004 0.0
C121 C 0.77459 0.62696 0.3917 0.0
C122 C 0.73842 0.59127 0.40271 0.0
C123 C 0.75214 0.61818 0.40781 0.0
C124 C 0.74802 0.57309 0.38164 0.0
C125 C 0.77033 0.58199 0.36538 0.0
U126 U 0.84611 0.65848 0.35686 0.0
O127 O 0.88431 0.6514 0.33513 0.0
O128 O 0.85697 0.68235 0.31878 0.0
C129 C 0.87886 0.66848 0.31447 0.0
C130 C 0.80573 0.61893 0.35157 0.0
C131 C 0.88136 0.65668 0.28543 0.0
C132 C 0.86825 0.62118 0.24806 0.0
C133 C 0.86453 0.63302 0.27522 0.0
C134 C 0.90513 0.657 0.24083 0.0
C135 C 0.88892 0.63277 0.23072 0.0
C136 C 0.90138 0.6688 0.26792 0.0
C137 C 0.87076 0.71177 0.41734 0.0
C138 C 0.90038 0.7546 0.412 0.0
C139 C 0.88903 0.7391 0.45917 0.0
C140 C 0.87329 0.71569 0.44702 0.0
C141 C 0.90235 0.75908 0.44176 0.0
C142 C 0.88477 0.73112 0.39989 0.0
C143 C 0.85258 0.68811 0.40506 0.0
O144 O 0.80413 0.6447 0.34223 0.0
O145 O 0.8306 0.6138 0.36031 0.0
O146 O 0.86395 0.66415 0.40045 0.0
O147 O 0.83593 0.69447 0.38411 0.0
H148 H 0.78467 0.64791 0.39578 0.0
H149 H 0.74534 0.63251 0.42408 0.0
H150 H 0.73769 0.55235 0.37705 0.0
H151 H 0.77696 0.56793 0.34878 0.0
H152 H 0.85561 0.60238 0.24105 0.0
H153 H 0.84892 0.6234 0.28848 0.0
H154 H 0.92099 0.66666 0.2279 0.0
H155 H 0.91445 0.68716 0.27539 0.0
H156 H 0.91076 0.76941 0.39806 0.0
H157 H 0.89006 0.74206 0.48212 0.0
H158 H 0.86261 0.70092 0.46081 0.0
H159 H 0.88325 0.72832 0.37693 0.0
C160 C 0.85988 0.79421 0.90986 0.0
C161 C 0.88526 0.79976 0.92464 0.0
C162 C 0.88863 0.7492 0.93261 0.0
C163 C 0.89944 0.77758 0.93577 0.0
C164 C 0.86339 0.74366 0.91757 0.0
C165 C 0.84919 0.76583 0.90649 0.0
U166 U 0.83729 0.85295 0.85884 0.0
O167 O 0.79542 0.86437 0.84787 0.0
O168 O 0.82459 0.89556 0.86998 0.0
C169 C 0.79924 0.88967 0.8603 0.0
C170 C 0.84312 0.81777 0.90081 0.0
C171 C 0.77658 0.89926 0.87782 0.0
C172 C 0.72821 0.90821 0.88072 0.0
C173 C 0.7497 0.89693 0.86617 0.0
C174 C 0.75988 0.92447 0.9192 0.0
C175 C 0.73297 0.92235 0.90736 0.0
C176 C 0.78143 0.91309 0.90462 0.0
C177 C 0.87426 0.86446 0.78705 0.0
C178 C 0.88558 0.90597 0.7588 0.0
C179 C 0.88522 0.85903 0.73697 0.0
C180 C 0.87762 0.84716 0.76281 0.0
C181 C 0.88978 0.8886 0.73467 0.0
C182 C 0.87794 0.89406 0.78469 0.0
C183 C 0.8692 0.85087 0.81474 0.0
O184 O 0.85533 0.84348 0.90075 0.0
O185 O 0.82577 0.81248 0.87907 0.0
O186 O 0.84623 0.83491 0.81655 0.0
O187 O 0.8757 0.86618 0.83809 0.0
H188 H 0.89402 0.82132 0.92807 0.0
H189 H 0.91895 0.78272 0.94689 0.0
H190 H 0.85415 0.7222 0.91501 0.0
H191 H 0.82945 0.76073 0.89581 0.0
H192 H 0.70794 0.9065 0.87065 0.0
H193 H 0.74537 0.88688 0.84536 0.0
H194 H 0.76432 0.93491 0.93979 0.0
H195 H 0.8019 0.91552 0.91418 0.0
H196 H 0.88916 0.92879 0.75803 0.0
H197 H 0.8878 0.84495 0.71884 0.0
H198 H 0.87497 0.82429 0.76402 0.0
H199 H 0.87559 0.908 0.80299 0.0
C200 C 0.61375 0.14509 0.32404 0.0
C201 C 0.62165 0.1174 0.31943 0.0
C202 C 0.59939 0.11517 0.2721 0.0
C203 C 0.61452 0.10255 0.29367 0.0
C204 C 0.59196 0.14308 0.27685 0.0
C205 C 0.599 0.1578 0.30252 0.0
U206 U 0.65748 0.16273 0.39271 0.0
O207 O 0.67075 0.20435 0.41248 0.0
O208 O 0.64416 0.17426 0.43562 0.0
C209 C 0.65592 0.2001 0.43503 0.0
C210 C 0.62035 0.16122 0.35101 0.0
C211 C 0.63865 0.22315 0.44298 0.0
C212 C 0.60538 0.25692 0.43067 0.0
C213 C 0.62083 0.23428 0.42297 0.0
C214 C 0.62492 0.25715 0.47863 0.0
C215 C 0.60737 0.26878 0.45856 0.0
C216 C 0.64043 0.23459 0.47087 0.0
C217 C 0.72062 0.12062 0.40888 0.0
C218 C 0.76228 0.13511 0.43679 0.0
C219 C 0.75128 0.08548 0.42427 0.0
C220 C 0.72724 0.09235 0.41014 0.0
C221 C 0.76933 0.10679 0.43744 0.0
C222 C 0.73809 0.14196 0.4227 0.0
C223 C 0.6963 0.12721 0.39165 0.0
O224 O 0.61701 0.1472 0.37455 0.0
O225 O 0.64292 0.1781 0.35154 0.0
O226 O 0.6979 0.1516 0.37885 0.0
O227 O 0.67234 0.12113 0.40278 0.0
H228 H 0.63317 0.10723 0.33577 0.0
H229 H 0.6205 0.08109 0.29081 0.0
H230 H 0.58089 0.15376 0.26055 0.0
H231 H 0.59289 0.17921 0.30558 0.0
H232 H 0.5918 0.26511 0.41479 0.0
H233 H 0.61905 0.22561 0.40135 0.0
H234 H 0.62715 0.26592 0.50018 0.0
H235 H 0.6541 0.22628 0.48661 0.0
H236 H 0.7756 0.15198 0.44693 0.0
H237 H 0.75623 0.06352 0.42396 0.0
H238 H 0.71411 0.07558 0.39952 0.0
H239 H 0.73333 0.16395 0.42215 0.0
C240 C 0.27151 0.66166 0.18856 0.0
C241 C 0.25474 0.68059 0.1753 0.0
C242 C 0.23028 0.64143 0.14803 0.0
C243 C 0.23426 0.67056 0.1553 0.0
C244 C 0.24779 0.62273 0.16075 0.0
C245 C 0.26812 0.63276 0.18085 0.0
U246 U 0.3233 0.71862 0.22136 0.0
O247 O 0.33362 0.73067 0.26615 0.0
O248 O 0.36514 0.7149 0.23885 0.0
C249 C 0.35863 0.72236 0.26478 0.0
C250 C 0.29251 0.67154 0.21049 0.0
C251 C 0.3673 0.70376 0.28754 0.0
C252 C 0.35833 0.66452 0.31919 0.0
C253 C 0.34945 0.68199 0.2977 0.0
C254 C 0.40299 0.69027 0.32051 0.0
C255 C 0.38528 0.66834 0.33071 0.0
C256 C 0.39405 0.70781 0.2992 0.0
C257 C 0.33115 0.78989 0.18269 0.0
C258 C 0.37081 0.82406 0.184 0.0
C259 C 0.32947 0.834 0.15767 0.0
C260 C 0.31675 0.80827 0.16599 0.0
C261 C 0.35692 0.84183 0.16586 0.0
C262 C 0.35803 0.79827 0.19232 0.0
C263 C 0.31866 0.76115 0.18719 0.0
O264 O 0.31756 0.67579 0.20144 0.0
O265 O 0.28576 0.6916 0.22834 0.0
O266 O 0.30395 0.75767 0.20993 0.0
O267 O 0.33443 0.74032 0.1823 0.0
H268 H 0.25718 0.70307 0.18074 0.0
H269 H 0.22103 0.68555 0.1462 0.0
H270 H 0.24568 0.60026 0.15532 0.0
H271 H 0.28106 0.61785 0.1906 0.0
H272 H 0.3443 0.6476 0.32632 0.0
H273 H 0.32874 0.67837 0.28888 0.0
H274 H 0.42378 0.69393 0.32908 0.0
H275 H 0.40812 0.72452 0.2917 0.0
H276 H 0.39204 0.82931 0.19046 0.0
H277 H 0.31811 0.84735 0.14401 0.0
H278 H 0.29596 0.80218 0.1584 0.0
H279 H 0.3695 0.78435 0.20523 0.0
C280 C 0.09287 0.31905 0.63901 0.0
C281 C 0.10845 0.31101 0.61595 0.0
C282 C 0.0713 0.27709 0.59899 0.0
C283 C 0.09779 0.29015 0.59615 0.0
C284 C 0.05522 0.28636 0.62126 0.0
C285 C 0.06598 0.30712 0.64117 0.0
U286 U 0.152 0.3691 0.66684 0.0
O287 O 0.1535 0.40898 0.69239 0.0
O288 O 0.17357 0.37243 0.70865 0.0
C289 C 0.16655 0.39831 0.71396 0.0
C290 C 0.10525 0.33824 0.66179 0.0
C291 C 0.15539 0.40352 0.74219 0.0
C292 C 0.1218 0.39339 0.77831 0.0
C293 C 0.1322 0.38761 0.75146 0.0
C294 C 0.15783 0.43083 0.78686 0.0
C295 C 0.13441 0.41522 0.7963 0.0
C296 C 0.16819 0.425 0.76011 0.0
C297 C 0.21176 0.38344 0.61678 0.0
C298 C 0.25807 0.4018 0.63066 0.0
C299 C 0.24254 0.40241 0.58126 0.0
C300 C 0.21698 0.39002 0.58849 0.0
C301 C 0.26341 0.40832 0.60224 0.0
C302 C 0.23241 0.38958 0.6379 0.0
C303 C 0.18477 0.37004 0.62361 0.0
O304 O 0.12739 0.32946 0.67421 0.0
O305 O 0.10773 0.36527 0.65586 0.0
O306 O 0.16514 0.38734 0.62645 0.0
O307 O 0.18465 0.35058 0.64304 0.0
H308 H 0.12923 0.32013 0.61387 0.0
H309 H 0.11058 0.28355 0.57914 0.0
H310 H 0.03489 0.27646 0.62422 0.0
H311 H 0.05368 0.31309 0.65884 0.0
H312 H 0.10387 0.38081 0.78495 0.0
H313 H 0.12208 0.37087 0.73789 0.0
H314 H 0.16777 0.44813 0.79981 0.0
H315 H 0.18608 0.43755 0.75326 0.0
H316 H 0.27365 0.40644 0.64732 0.0
H317 H 0.24611 0.40697 0.55918 0.0
H318 H 0.20129 0.38542 0.57191 0.0
H319 H 0.22872 0.38489 0.65993 0.0
O320 O 0.01033 0.00627 0.58906 0.0
Mg321 Mg 0.03383 0.03176 0.56219 0.0
O322 O 0.98516 0.99122 0.55162 0.0
Mg323 Mg 0.009 0.01331 0.51297 0.0
O324 O 0.01677 0.05975 0.53516 0.0
O325 O 0.03481 0.07089 0.57903 0.0
O326 O 0.03326 0.03674 0.47477 0.0
O327 O 0.96649 0.0305 0.49945 0.0
Mg328 Mg 0.99396 0.99174 0.45682 0.0
O329 O 0.99888 0.96757 0.49177 0.0
O330 O 0.02833 0.00851 0.43683 0.0
O331 O 0.95804 0.01362 0.45561 0.0
O332 O 0.98786 0.95006 0.44755 0.0
C333 C 0.07377 1.00121 0.5388 0.0
C334 C 0.98994 0.99131 0.57855 0.0
C335 C 0.02373 0.07848 0.55554 0.0
C336 C 0.03957 0.0305 0.44917 0.0
C337 C 0.95116 0.02823 0.47686 0.0
C338 C 0.99281 0.94605 0.47417 0.0
O339 O 0.07381 0.02193 0.55619 0.0
O340 O 0.05192 0.99384 0.524 0.0
O341 O 0.46859 0.08186 0.03506 0.0
Mg342 Mg 0.50958 0.07891 0.02634 0.0
O343 O 0.46359 0.03546 0.03136 0.0
Mg344 Mg 0.5074 0.02043 0.01647 0.0
O345 O 0.52191 0.06057 0.98919 0.0
O346 O 0.52032 0.10751 0.99764 0.0
O347 O 0.55156 0.00676 1.00027 0.0
O348 O 0.48497 1.00384 0.97345 0.0
Mg349 Mg 0.51562 0.96531 0.01243 0.0
O350 O 0.49107 0.98049 0.0431 0.0
O351 O 0.55789 0.96638 0.01979 0.0
O352 O 0.49948 0.96101 0.97009 0.0
O353 O 0.49857 0.93456 0.03593 0.0
C354 C 0.54082 0.05846 0.0725 0.0
C355 C 0.45357 0.05924 0.0369 0.0
C356 C 0.52635 0.08673 0.98122 0.0
C357 C 0.56744 0.98728 1.0064 0.0
C358 C 0.48629 0.98043 0.95947 0.0
C359 C 0.48723 0.95402 0.05011 0.0
O360 O 0.53731 0.08164 0.06081 0.0
O361 O 0.53053 0.03522 0.06067 0.0
O362 O 0.5103 0.57385 0.56599 0.0
Mg363 Mg 0.50382 0.53127 0.57584 0.0
O364 O 0.49297 0.56012 0.52375 0.0
Mg365 Mg 0.50244 0.51186 0.5149 0.0
O366 O 0.52816 0.50364 0.55652 0.0
O367 O 0.53278 0.5172 0.60261 0.0
O368 O 0.51289 0.46412 0.50689 0.0
O369 O 0.5434 0.5275 0.49457 0.0
Mg370 Mg 0.49883 0.48904 0.45746 0.0
O371 O 0.47629 0.52039 0.47314 0.0
O372 O 0.49075 0.44663 0.46852 0.0
O373 O 0.54018 0.50482 0.4526 0.0
O374 O 0.47136 0.50206 0.42857 0.0
C375 C 0.45024 0.49891 0.55867 0.0
C376 C 0.49936 0.57981 0.5425 0.0
C377 C 0.54031 0.502 0.58142 0.0
C378 C 0.50512 0.44284 0.49058 0.0
C379 C 0.55368 0.52114 0.47076 0.0
C380 C 0.46473 0.52016 0.44774 0.0
O381 O 0.46289 0.51341 0.57879 0.0
O382 O 0.46138 0.49545 0.53471 0.0
O383 O 0.03284 0.47773 0.07549 0.0
Mg384 Mg 0.01659 0.51705 0.0751 0.0
O385 O 0.02562 0.47449 0.02924 0.0
Mg386 Mg 0.00716 0.51902 0.01744 0.0
O387 O 0.97901 0.52507 0.05791 0.0
O388 O 0.98782 0.51708 0.10421 0.0
O389 O 0.98614 0.56362 0.00847 0.0
O390 O 0.96891 0.49268 0.9972 0.0
Mg391 Mg 0.00603 0.53823 0.97044 0.0
O392 O 0.03467 0.50954 0.9764 0.0
O393 O 0.0149 0.5819 0.97881 0.0
O394 O 0.96456 0.52189 0.96223 0.0
O395 O 0.02616 0.5303 0.93498 0.0
C396 C 0.05591 0.55886 0.05862 0.0
C397 C 0.03436 0.46398 0.05233 0.0
C398 C 0.97129 0.52427 0.08429 0.0
C399 C 0.99537 0.58523 0.99503 0.0
C400 C 0.95524 0.50067 0.97573 0.0
C401 C 0.03975 0.51316 0.9496 0.0
O402 O 0.04389 0.55241 0.0811 0.0
O403 O 0.04727 0.54727 0.03478 0.0
C404 C 0.12631 0.12594 0.33744 0.0
C405 C 0.1071 0.13005 0.31538 0.0
C406 C 0.11839 0.1125 0.36263 0.0
C407 C 0.09063 0.10262 0.36585 0.0
C408 C 0.0711 0.10724 0.3439 0.0
C409 C 0.07953 0.12083 0.31909 0.0
C410 C 0.13984 0.10828 0.38554 0.0
C411 C 0.04135 0.09686 0.34614 0.0
C412 C 0.07039 0.03783 0.40844 0.0
C413 C 0.05765 0.04955 0.43194 0.0
C414 C 0.0826 0.05497 0.38777 0.0
C415 C 0.08224 0.08481 0.39048 0.0
C416 C 0.07122 0.09695 0.41524 0.0
C417 C 0.05904 0.07915 0.43574 0.0
C418 C 0.09419 0.04092 0.36198 0.0
C419 C 0.0707 0.12865 0.41924 0.0
H420 H 0.14758 0.13331 0.33504 0.0
H421 H 0.06453 0.1235 0.30213 0.0
H422 H 0.13299 0.1159 0.4065 0.0
H423 H 0.14275 0.08534 0.38721 0.0
H424 H 0.15991 0.11955 0.38114 0.0
H425 H 0.02841 0.10371 0.32815 0.0
H426 H 0.03948 0.07335 0.3464 0.0
H427 H 0.03317 0.10483 0.36636 0.0
H428 H 0.06968 0.01496 0.40545 0.0
H429 H 0.04918 0.08842 0.45374 0.0
H430 H 0.11507 0.05043 0.35807 0.0
H431 H 0.08113 0.04442 0.34287 0.0
H432 H 0.09521 0.01771 0.36432 0.0
H433 H 0.09062 0.13949 0.41372 0.0
H434 H 0.06607 0.13487 0.44145 0.0
H435 H 0.05471 0.13631 0.40476 0.0
C436 C 0.39058 0.93476 0.82252 0.0
C437 C 0.4038 0.93912 0.79675 0.0
C438 C 0.40353 0.94335 0.84877 0.0
C439 C 0.4304 0.95673 0.84939 0.0
C440 C 0.44369 0.96169 0.82344 0.0
C441 C 0.43028 0.95275 0.79747 0.0
C442 C 0.38871 0.93738 0.8759 0.0
C443 C 0.47228 0.97598 0.82314 0.0
C444 C 0.45703 0.99566 0.91826 0.0
C445 C 0.47234 0.97518 0.931 0.0
C446 C 0.4435 0.99016 0.89154 0.0
C447 C 0.44529 0.96357 0.87726 0.0
C448 C 0.46092 0.94299 0.88992 0.0
C449 C 0.47421 0.94903 0.91648 0.0
C450 C 0.42709 0.01269 0.87871 0.0
C451 C 0.46339 0.91435 0.87553 0.0
H452 H 0.37026 0.92396 0.82224 0.0
H453 H 0.44051 0.95658 0.77767 0.0
H454 H 0.39987 0.92222 0.8886 0.0
H455 H 0.38821 0.95716 0.88909 0.0
H456 H 0.36733 0.9283 0.87175 0.0
H457 H 0.47912 0.97985 0.80118 0.0
H458 H 0.4732 0.99654 0.83522 0.0
H459 H 0.48692 0.96256 0.83381 0.0
H460 H 0.45547 0.01593 0.92921 0.0
H461 H 0.48599 0.933 0.92598 0.0
H462 H 0.40525 0.00471 0.87606 0.0
H463 H 0.4345 0.01768 0.85722 0.0
H464 H 0.42837 0.03255 0.89204 0.0
H465 H 0.44279 0.90304 0.87246 0.0
H466 H 0.47666 0.90082 0.88799 0.0
H467 H 0.47199 0.91704 0.85413 0.0
C468 C 0.63417 0.38515 0.64703 0.0
C469 C 0.61988 0.37834 0.67165 0.0
C470 C 0.62368 0.40348 0.627 0.0
C471 C 0.5986 0.41565 0.63202 0.0
C472 C 0.58391 0.40839 0.65661 0.0
C473 C 0.59465 0.38979 0.67599 0.0
C474 C 0.63968 0.41034 0.60083 0.0
C475 C 0.55725 0.42111 0.66308 0.0
C476 C 0.58156 0.48783 0.60747 0.0
C477 C 0.56022 0.48077 0.58743 0.0
C478 C 0.59595 0.46679 0.62036 0.0
C479 C 0.58857 0.43789 0.61327 0.0
C480 C 0.56854 0.43074 0.5913 0.0
C481 C 0.55463 0.45237 0.57847 0.0
C482 C 0.61715 0.47547 0.64358 0.0
C483 C 0.56014 0.40017 0.58319 0.0
H484 H 0.65355 0.37612 0.64344 0.0
H485 H 0.58367 0.38488 0.69513 0.0
H486 H 0.62625 0.4068 0.58142 0.0
H487 H 0.64718 0.43306 0.60173 0.0
H488 H 0.65757 0.39734 0.59879 0.0
H489 H 0.54766 0.41213 0.68228 0.0
H490 H 0.56097 0.44439 0.66659 0.0
H491 H 0.54248 0.41744 0.64476 0.0
H492 H 0.58582 0.50981 0.61445 0.0
H493 H 0.5378 0.44686 0.56334 0.0
H494 H 0.63585 0.46389 0.64088 0.0
H495 H 0.60879 0.46995 0.66456 0.0
H496 H 0.62304 0.49861 0.64394 0.0
H497 H 0.57846 0.38866 0.57826 0.0
H498 H 0.54553 0.39809 0.5646 0.0
H499 H 0.55024 0.3896 0.60139 0.0
C500 C 0.92223 0.61466 0.19658 0.0
C501 C 0.89498 0.61851 0.20317 0.0
C502 C 0.92864 0.59954 0.17188 0.0
C503 C 0.90728 0.58797 0.15302 0.0
C504 C 0.87974 0.59275 0.15889 0.0
C505 C 0.87389 0.60774 0.18405 0.0
C506 C 0.95833 0.59485 0.16672 0.0
C507 C 0.85639 0.58122 0.13921 0.0
C508 C 0.93954 0.56301 0.08563 0.0
C509 C 0.94567 0.53579 0.09352 0.0
C510 C 0.92379 0.57958 0.10326 0.0
C511 C 0.91422 0.56851 0.12918 0.0
C512 C 0.91707 0.53962 0.13483 0.0
C513 C 0.93275 0.5236 0.11687 0.0
C514 C 0.92029 0.60993 0.09585 0.0
C515 C 0.90692 0.52665 0.16189 0.0
H516 H 0.93863 0.62255 0.21137 0.0
H517 H 0.85278 0.61088 0.18885 0.0
H518 H 0.96148 0.57188 0.16748 0.0
H519 H 0.96394 0.60199 0.14526 0.0
H520 H 0.97252 0.60635 0.18273 0.0
H521 H 0.83742 0.59213 0.14297 0.0
H522 H 0.8618 0.5834 0.11659 0.0
H523 H 0.85195 0.55831 0.14288 0.0
H524 H 0.94955 0.57253 0.06759 0.0
H525 H 0.93737 0.50245 0.12286 0.0
H526 H 0.93579 0.62407 0.1081 0.0
H527 H 0.89971 0.61621 0.10163 0.0
H528 H 0.92312 0.61335 0.07281 0.0
H529 H 0.92059 0.53472 0.18007 0.0
H530 H 0.90674 0.50314 0.16089 0.0
H531 H 0.88597 0.53269 0.16629 0.0
C532 C 0.29985 0.09021 0.07903 0.0
C533 C 0.29855 0.0929 0.1088 0.0
C534 C 0.32303 0.08019 0.06601 0.0
C535 C 0.34566 0.07278 0.08306 0.0
C536 C 0.34384 0.07398 0.11309 0.0
C537 C 0.3204 0.08391 0.12553 0.0
C538 C 0.3239 0.07908 0.03394 0.0
C539 C 0.36737 0.06634 0.13219 0.0
C540 C 0.40675 0.03782 0.05092 0.0
C541 C 0.42513 0.06154 0.04716 0.0
C542 C 0.3805 0.04097 0.06199 0.0
C543 C 0.37264 0.0684 0.06985 0.0
C544 C 0.39108 0.09227 0.06585 0.0
C545 C 0.41676 0.08858 0.05448 0.0
C546 C 0.36134 0.01498 0.0656 0.0
C547 C 0.38395 0.12191 0.07414 0.0
H548 H 0.28324 0.09708 0.06578 0.0
H549 H 0.31943 0.08511 0.14852 0.0
H550 H 0.33822 0.09654 0.02684 0.0
H551 H 0.33165 0.05883 0.02632 0.0
H552 H 0.30342 0.08128 0.02375 0.0
H553 H 0.36164 0.06519 0.15484 0.0
H554 H 0.37465 0.04565 0.12529 0.0
H555 H 0.38479 0.08255 0.13066 0.0
H556 H 0.4129 0.01685 0.04545 0.0
H557 H 0.43058 0.10722 0.05181 0.0
H558 H 0.34093 0.01796 0.05566 0.0
H559 H 0.35831 0.01165 0.08858 0.0
H560 H 0.36932 0.9956 0.05604 0.0
H561 H 0.36496 0.12703 0.06252 0.0
H562 H 0.40053 0.13829 0.06954 0.0
H563 H 0.37995 0.12324 0.09723 0.0
C564 C 0.19175 0.90787 0.58733 0.0
C565 C 0.21407 0.90678 0.5694 0.0
C566 C 0.16821 0.92122 0.579 0.0
C567 C 0.16688 0.9338 0.55205 0.0
C568 C 0.18887 0.93179 0.53339 0.0
C569 C 0.21223 0.91838 0.54232 0.0
C570 C 0.14529 0.923 0.59963 0.0
C571 C 0.18818 0.94474 0.50443 0.0
C572 C 0.0967 0.9563 0.52812 0.0
C573 C 0.09835 0.98465 0.53803 0.0
C574 C 0.11921 0.9396 0.53149 0.0
C575 C 0.14387 0.95164 0.54492 0.0
C576 C 0.14602 0.98065 0.55349 0.0
C577 C 0.1233 0.99673 0.54997 0.0
C578 C 0.11619 0.90878 0.52191 0.0
C579 C 0.17195 0.99447 0.56765 0.0
H580 H 0.19307 0.89918 0.60836 0.0
H581 H 0.22919 0.91718 0.52814 0.0
H582 H 0.1439 0.9454 0.60676 0.0
H583 H 0.12537 0.91566 0.58903 0.0
H584 H 0.14842 0.91013 0.61869 0.0
H585 H 0.20548 0.93874 0.49131 0.0
H586 H 0.16862 0.93804 0.49278 0.0
H587 H 0.18928 0.96819 0.50694 0.0
H588 H 0.07749 0.94682 0.51891 0.0
H589 H 0.12487 0.01872 0.55739 0.0
H590 H 0.11594 0.89528 0.54083 0.0
H591 H 0.13391 0.90336 0.50919 0.0
H592 H 0.09701 0.90348 0.50901 0.0
H593 H 0.17567 0.98469 0.58846 0.0
H594 H 0.17089 0.01766 0.57137 0.0
H595 H 0.18983 0.99096 0.5544 0.0
C596 C 0.84911 0.40757 0.87703 0.0
C597 C 0.82166 0.40628 0.88501 0.0
C598 C 0.87001 0.42134 0.89458 0.0
C599 C 0.86338 0.4343 0.92077 0.0
C600 C 0.83585 0.43224 0.92943 0.0
C601 C 0.81533 0.41821 0.91148 0.0
C602 C 0.89911 0.42284 0.8846 0.0
C603 C 0.82789 0.44586 0.9571 0.0
C604 C 0.92358 0.45621 0.97212 0.0
C605 C 0.92977 0.48445 0.96478 0.0
C606 C 0.90141 0.43978 0.95872 0.0
C607 C 0.88495 0.45199 0.93771 0.0
C608 C 0.8903 0.48089 0.93135 0.0
C609 C 0.91264 0.49669 0.94485 0.0
C610 C 0.89636 0.40905 0.96612 0.0
C611 C 0.87312 0.49489 0.90936 0.0
H612 H 0.85422 0.398 0.85684 0.0
H613 H 0.79416 0.4175 0.91772 0.0
H614 H 0.90604 0.44518 0.88058 0.0
H615 H 0.91304 0.41532 0.90135 0.0
H616 H 0.90118 0.40995 0.86476 0.0
H617 H 0.80619 0.44005 0.96207 0.0
H618 H 0.84127 0.43955 0.97494 0.0
H619 H 0.8308 0.46927 0.95586 0.0
H620 H 0.93674 0.44657 0.98745 0.0
H621 H 0.91707 0.51858 0.93923 0.0
H622 H 0.90101 0.39533 0.94761 0.0
H623 H 0.87448 0.40418 0.97085 0.0
H624 H 0.90923 0.40348 0.98471 0.0
H625 H 0.87589 0.48505 0.88803 0.0
H626 H 0.87867 0.51804 0.90842 0.0
H627 H 0.85106 0.49163 0.91409 0.0
C628 C 0.70911 0.55547 0.4287 0.0
C629 C 0.71316 0.58277 0.418 0.0
C630 C 0.68417 0.5463 0.44063 0.0
C631 C 0.66267 0.56477 0.44155 0.0
C632 C 0.66707 0.59275 0.43187 0.0
C633 C 0.69231 0.60145 0.42031 0.0
C634 C 0.6804 0.51642 0.45106 0.0
C635 C 0.6446 0.613 0.4322 0.0
C636 C 0.59024 0.53043 0.43565 0.0
C637 C 0.58154 0.53277 0.46373 0.0
C638 C 0.61649 0.54089 0.42826 0.0
C639 C 0.63474 0.55383 0.44951 0.0
C640 C 0.62621 0.55629 0.47794 0.0
C641 C 0.5996 0.54586 0.48471 0.0
C642 C 0.62467 0.5381 0.39762 0.0
C643 C 0.64523 0.56973 0.50119 0.0
H644 H 0.72533 0.5411 0.42728 0.0
H645 H 0.69525 0.62249 0.41185 0.0
H646 H 0.6717 0.51642 0.47258 0.0
H647 H 0.66565 0.50363 0.43662 0.0
H648 H 0.69997 0.50591 0.45192 0.0
H649 H 0.65212 0.6348 0.42661 0.0
H650 H 0.62799 0.60531 0.41668 0.0
H651 H 0.63549 0.61389 0.4535 0.0
H652 H 0.57641 0.52051 0.41923 0.0
H653 H 0.59308 0.54764 0.50648 0.0
H654 H 0.64275 0.52535 0.39618 0.0
H655 H 0.63065 0.55935 0.3894 0.0
H656 H 0.60789 0.52786 0.3836 0.0
H657 H 0.66402 0.55802 0.50286 0.0
H658 H 0.63552 0.56994 0.52224 0.0
H659 H 0.65175 0.59186 0.49588 0.0
C660 C 0.12073 0.32556 0.06416 0.0
C661 C 0.10709 0.30579 0.0816 0.0
C662 C 0.10842 0.35002 0.05539 0.0
C663 C 0.08171 0.35505 0.06418 0.0
C664 C 0.06741 0.33465 0.08082 0.0
C665 C 0.08025 0.31041 0.08938 0.0
C666 C 0.12462 0.37122 0.03792 0.0
C667 C 0.03889 0.33899 0.09061 0.0
C668 C 0.06424 0.43127 0.07706 0.0
C669 C 0.04739 0.4364 0.05327 0.0
C670 C 0.07579 0.40526 0.08038 0.0
C671 C 0.07036 0.38327 0.05951 0.0
C672 C 0.05392 0.38836 0.03499 0.0
C673 C 0.04274 0.41497 0.03205 0.0
C674 C 0.09354 0.40123 0.10662 0.0
C675 C 0.04763 0.3655 0.01224 0.0
H676 H 0.14155 0.32249 0.05818 0.0
H677 H 0.06928 0.29512 0.10239 0.0
H678 H 0.11199 0.3776 0.01953 0.0
H679 H 0.13047 0.39063 0.05118 0.0
H680 H 0.14359 0.36271 0.02987 0.0
H681 H 0.02936 0.31989 0.10067 0.0
H682 H 0.03971 0.35701 0.10632 0.0
H683 H 0.02554 0.34445 0.07238 0.0
H684 H 0.06842 0.44774 0.09345 0.0
H685 H 0.02982 0.41868 0.0136 0.0
H686 H 0.11392 0.39478 0.1004 0.0
H687 H 0.084 0.38402 0.11939 0.0
H688 H 0.09659 0.42079 0.12035 0.0
H689 H 0.06688 0.35729 1.0047 0.0
H690 H 0.03601 0.37323 0.99371 0.0
H691 H 0.03538 0.34744 0.02128 0.0
C692 C 0.61857 0.16076 0.86237 0.0
C693 C 0.63654 0.17789 0.88059 0.0
C694 C 0.60086 0.13912 0.87319 0.0
C695 C 0.60074 0.13499 0.90289 0.0
C696 C 0.62037 0.15067 0.92097 0.0
C697 C 0.63814 0.17166 0.90957 0.0
C698 C 0.58122 0.12182 0.85306 0.0
C699 C 0.62135 0.14671 0.95275 0.0
C700 C 0.536 0.12019 0.94275 0.0
C701 C 0.54045 0.09406 0.95475 0.0
C702 C 0.55431 0.13261 0.92367 0.0
C703 C 0.57756 0.11834 0.91597 0.0
C704 C 0.58034 0.0904 0.92531 0.0
C705 C 0.56176 0.07856 0.94484 0.0
C706 C 0.5503 0.16239 0.91434 0.0
C707 C 0.60408 0.0738 0.91679 0.0
H708 H 0.61732 0.16512 0.83989 0.0
H709 H 0.65268 0.18402 0.92365 0.0
H710 H 0.57969 0.09921 0.85895 0.0
H711 H 0.56048 0.12967 0.85443 0.0
H712 H 0.58762 0.12324 0.83064 0.0
H713 H 0.63883 0.15941 0.96361 0.0
H714 H 0.60204 0.15315 0.96198 0.0
H715 H 0.62308 0.12405 0.95738 0.0
H716 H 0.51922 0.13202 0.95001 0.0
H717 H 0.56524 0.05828 0.95393 0.0
H718 H 0.55234 0.16386 0.89101 0.0
H719 H 0.56638 0.17732 0.92473 0.0
H720 H 0.52994 0.16942 0.92001 0.0
H721 H 0.61253 0.08065 0.89625 0.0
H722 H 0.59762 0.05083 0.91498 0.0
H723 H 0.62062 0.07674 0.9335 0.0
C724 C 0.93554 0.78406 0.47787 0.0
C725 C 0.91729 0.78519 0.45436 0.0
C726 C 0.95055 0.80871 0.48885 0.0
C727 C 0.94714 0.83499 0.47602 0.0
C728 C 0.92787 0.83632 0.45305 0.0
C729 C 0.91328 0.81146 0.44253 0.0
C730 C 0.97079 0.80637 0.51337 0.0
C731 C 0.92328 0.86393 0.43886 0.0
C732 C 0.96817 0.90966 0.50283 0.0
C733 C 0.98883 0.91681 0.48381 0.0
C734 C 0.95615 0.88172 0.50319 0.0
C735 C 0.96526 0.86082 0.48416 0.0
C736 C 0.98871 0.86732 0.46799 0.0
C737 C 1.00006 0.89536 0.46784 0.0
C738 C 0.93165 0.87559 0.52132 0.0
C739 C 0.99961 0.84564 0.44796 0.0
H740 H 0.9387 0.76378 0.48712 0.0
H741 H 0.89872 0.81255 0.42481 0.0
H742 H 0.99189 0.80764 0.50528 0.0
H743 H 0.96962 0.82414 0.52911 0.0
H744 H 0.96729 0.786 0.52434 0.0
H745 H 0.90638 0.86162 0.42246 0.0
H746 H 0.91836 0.88024 0.45496 0.0
H747 H 0.94229 0.87188 0.42849 0.0
H748 H 0.9594 0.92633 0.51509 0.0
H749 H 0.01612 0.901 0.45317 0.0
H750 H 0.93107 0.85372 0.52931 0.0
H751 H 0.91264 0.87751 0.50827 0.0
H752 H 0.9317 0.89085 0.53974 0.0
H753 H 1.00017 0.82481 0.4581 0.0
H754 H 0.02054 0.85239 0.44104 0.0
H755 H 0.98583 0.84271 0.42874 0.0
C756 C 0.44105 0.73467 0.55764 0.0
C757 C 0.42629 0.73225 0.58271 0.0
C758 C 0.45245 0.71101 0.54513 0.0
C759 C 0.44946 0.68446 0.55832 0.0
C760 C 0.43383 0.68177 0.58312 0.0
C761 C 0.42235 0.70561 0.59489 0.0
C762 C 0.46853 0.71467 0.51843 0.0
C763 C 0.43034 0.65397 0.59811 0.0
C764 C 0.4648 0.61288 0.52596 0.0
C765 C 0.48986 0.60867 0.53988 0.0
C766 C 0.45211 0.63843 0.53003 0.0
C767 C 0.46489 0.66014 0.54836 0.0
C768 C 0.49127 0.6568 0.56043 0.0
C769 C 0.50339 0.63115 0.55603 0.0
C770 C 0.42424 0.64143 0.51633 0.0
C771 C 0.50572 0.67932 0.58008 0.0
H772 H 0.4439 0.75515 0.54796 0.0
H773 H 0.41123 0.70364 0.61441 0.0
H774 H 0.49068 0.71355 0.52362 0.0
H775 H 0.46242 0.69732 0.50262 0.0
H776 H 0.4656 0.73533 0.50855 0.0
H777 H 0.41621 0.65496 0.61612 0.0
H778 H 0.42227 0.63676 0.58294 0.0
H779 H 0.45055 0.64817 0.60651 0.0
H780 H 0.45413 0.59551 0.51365 0.0
H781 H 0.52285 0.62805 0.56671 0.0
H782 H 0.42453 0.66117 0.50412 0.0
H783 H 0.40881 0.64317 0.53298 0.0
H784 H 0.41754 0.62314 0.50178 0.0
H785 H 0.5058 0.70041 0.57038 0.0
H786 H 0.52723 0.67477 0.58526 0.0
H787 H 0.49458 0.68058 0.60024 0.0
C788 C 0.92041 0.88807 0.69243 0.0
C789 C 0.90028 0.90113 0.70776 0.0
C790 C 0.93223 0.90071 0.66852 0.0
C791 C 0.9239 0.9272 0.65956 0.0
C792 C 0.90269 0.93984 0.67408 0.0
C793 C 0.89121 0.92674 0.69796 0.0
C794 C 0.95483 0.88647 0.65388 0.0
C795 C 0.89298 0.96793 0.6652 0.0
C796 C 0.97864 0.97684 0.6278 0.0
C797 C 0.97225 0.97458 0.5984 0.0
C798 C 0.96303 0.96168 0.64758 0.0
C799 C 0.94011 0.94355 0.63807 0.0
C800 C 0.9333 0.9411 0.60845 0.0
C801 C 0.94949 0.95658 0.58893 0.0
C802 C 0.97125 0.96504 0.67883 0.0
C803 C 0.90912 0.92192 0.59738 0.0
H804 H 0.92787 0.86848 0.69983 0.0
H805 H 0.87535 0.93681 0.70922 0.0
H806 H 0.9512 0.88584 0.63046 0.0
H807 H 0.97467 0.89886 0.65852 0.0
H808 H 0.95663 0.86448 0.66102 0.0
H809 H 0.87422 0.97329 0.67628 0.0
H810 H 0.90935 0.98499 0.67017 0.0
H811 H 0.8887 0.96766 0.64188 0.0
H812 H 0.99609 0.9906 0.63561 0.0
H813 H 0.94437 0.95454 0.56634 0.0
H814 H 0.97575 0.94419 0.68736 0.0
H815 H 0.95412 0.97287 0.69101 0.0
H816 H 0.98961 0.98004 0.68277 0.0
H817 H 0.91336 0.89949 0.60054 0.0
H818 H 0.90465 0.92471 0.57436 0.0
H819 H 0.89058 0.92603 0.6094 0.0
C820 C 0.60997 0.08328 0.23047 0.0
C821 C 0.59148 0.09974 0.24457 0.0
C822 C 0.60356 0.0712 0.20313 0.0
C823 C 0.57817 0.07589 0.18944 0.0
C824 C 0.55887 0.09117 0.20422 0.0
C825 C 0.56569 0.10272 0.23156 0.0
C826 C 0.62454 0.05471 0.18832 0.0
C827 C 0.53153 0.09671 0.19053 0.0
C828 C 0.57126 0.08393 0.10974 0.0
C829 C 0.55469 0.05954 0.1011 0.0
C830 C 0.58043 0.08857 0.13812 0.0
C831 C 0.57294 0.06831 0.15859 0.0
C832 C 0.55792 0.04262 0.14967 0.0
C833 C 0.54895 0.03851 0.12095 0.0
C834 C 0.59655 0.11617 0.14649 0.0
C835 C 0.54989 0.02028 0.17073 0.0
H836 H 0.62996 0.08082 0.24025 0.0
H837 H 0.55096 0.11473 0.24254 0.0
H838 H 0.6147 0.03507 0.17786 0.0
H839 H 0.63401 0.06771 0.17145 0.0
H840 H 0.64107 0.04891 0.2033 0.0
H841 H 0.51798 0.10695 0.20564 0.0
H842 H 0.53482 0.11078 0.17227 0.0
H843 H 0.52083 0.07659 0.18211 0.0
H844 H 0.57613 0.10013 0.09445 0.0
H845 H 0.53616 0.01961 0.11445 0.0
H846 H 0.61526 0.11213 0.15917 0.0
H847 H 0.58393 0.12933 0.16004 0.0
H848 H 0.60273 0.12855 0.12771 0.0
H849 H 0.56743 0.0167 0.18536 0.0
H850 H 0.54253 0.99981 0.15995 0.0
H851 H 0.53319 0.02763 0.1839 0.0
C852 C 0.37923 0.64079 0.37549 0.0
C853 C 0.39531 0.64884 0.35242 0.0
C854 C 0.38825 0.62153 0.3954 0.0
C855 C 0.41377 0.60973 0.39193 0.0
C856 C 0.43029 0.61825 0.369 0.0
C857 C 0.42092 0.63771 0.34964 0.0
C858 C 0.3702 0.61328 0.41973 0.0
C859 C 0.45751 0.606 0.36425 0.0
C860 C 0.45212 0.57065 0.44862 0.0
C861 C 0.44687 0.54247 0.43874 0.0
C862 C 0.44016 0.5929 0.43465 0.0
C863 C 0.42238 0.58667 0.41053 0.0
C864 C 0.4154 0.55804 0.40203 0.0
C865 C 0.42778 0.53636 0.41616 0.0
C866 C 0.44804 0.62316 0.44437 0.0
C867 C 0.39652 0.55032 0.37654 0.0
H868 H 0.35956 0.64958 0.37797 0.0
H869 H 0.43333 0.64356 0.33172 0.0
H870 H 0.36289 0.59056 0.41721 0.0
H871 H 0.38206 0.61592 0.44024 0.0
H872 H 0.35209 0.62607 0.42085 0.0
H873 H 0.46859 0.61604 0.34643 0.0
H874 H 0.47076 0.60878 0.38383 0.0
H875 H 0.45417 0.58289 0.35939 0.0
H876 H 0.46713 0.57549 0.46582 0.0
H877 H 0.42361 0.51458 0.40851 0.0
H878 H 0.42938 0.63455 0.44806 0.0
H879 H 0.45947 0.63437 0.4275 0.0
H880 H 0.46107 0.62449 0.46417 0.0
H881 H 0.37747 0.56157 0.3779 0.0
H882 H 0.39087 0.52715 0.37458 0.0
H883 H 0.40677 0.55703 0.35685 0.0
C884 C 0.09399 0.42424 0.82605 0.0
C885 C 0.12243 0.42303 0.82401 0.0
C886 C 0.08263 0.43535 0.85067 0.0
C887 C 0.10009 0.44567 0.87385 0.0
C888 C 0.12861 0.4427 0.87272 0.0
C889 C 0.13943 0.43143 0.84783 0.0
C890 C 0.05207 0.43795 0.851 0.0
C891 C 0.14791 0.45313 0.89704 0.0
C892 C 0.07282 0.50912 0.91113 0.0
C893 C 0.05989 0.49693 0.93449 0.0
C894 C 0.08737 0.49292 0.89229 0.0
C895 C 0.08896 0.46361 0.89675 0.0
C896 C 0.07761 0.45154 0.92146 0.0
C897 C 0.06322 0.46844 0.94019 0.0
C898 C 0.09947 0.50687 0.86654 0.0
C899 C 0.07907 0.42045 0.92714 0.0
H900 H 0.08064 0.41798 0.80779 0.0
H901 H 0.16138 0.42998 0.84673 0.0
H902 H 0.04371 0.43032 0.8713 0.0
H903 H 0.04781 0.46059 0.84942 0.0
H904 H 0.04102 0.42578 0.83305 0.0
H905 H 0.16854 0.44505 0.89499 0.0
H906 H 0.15023 0.47665 0.89743 0.0
H907 H 0.13956 0.44663 0.91773 0.0
H908 H 0.07052 0.53124 0.90684 0.0
H909 H 0.05313 0.45892 0.95817 0.0
H910 H 0.08816 0.49831 0.84698 0.0
H911 H 0.1212 0.50211 0.86459 0.0
H912 H 0.09844 0.53027 0.86748 0.0
H913 H 0.06434 0.40783 0.91253 0.0
H914 H 0.07386 0.41552 0.94939 0.0
H915 H 0.09981 0.41358 0.923 0.0
C916 C 0.6838 0.92055 0.92226 0.0
C917 C 0.70994 0.93498 0.92244 0.0
C918 C 0.66181 0.9322 0.9359 0.0
C919 C 0.66586 0.95897 0.95034 0.0
C920 C 0.69208 0.9738 0.95043 0.0
C921 C 0.71377 0.96165 0.93658 0.0
C922 C 0.63414 0.91579 0.93485 0.0
C923 C 0.69717 1.00255 0.96512 0.0
C924 C 0.60035 0.99521 0.96671 0.0
C925 C 0.59499 0.98568 0.99412 0.0
C926 C 0.62379 0.9875 0.95239 0.0
C927 C 0.64277 0.97065 0.96617 0.0
C928 C 0.63835 0.96281 0.99461 0.0
C929 C 0.61449 0.97015 1.00806 0.0
C930 C 0.6276 0.9967 0.9222 0.0
C931 C 0.65807 0.94523 0.01034 0.0
H932 H 0.68056 0.89986 0.9117 0.0
H933 H 0.73368 0.97327 0.93647 0.0
H934 H 0.62791 0.91077 0.95674 0.0
H935 H 0.61847 0.92892 0.92548 0.0
H936 H 0.63409 0.89565 0.92209 0.0
H937 H 0.71871 0.01135 0.96348 0.0
H938 H 0.68337 0.01757 0.95558 0.0
H939 H 0.69234 1.00111 0.98797 0.0
H940 H 0.58535 0.0071 0.95573 0.0
H941 H 0.61054 0.96277 0.02927 0.0
H942 H 0.63666 0.98025 0.90894 0.0
H943 H 0.64173 0.01616 0.92248 0.0
H944 H 0.60786 1.00157 0.91187 0.0
H945 H 0.65741 0.92367 1.00027 0.0
H946 H 0.65313 0.94316 0.03313 0.0
H947 H 0.67936 0.9548 0.00904 0.0
C948 C 0.82037 0.1157 0.44443 0.0
C949 C 0.79612 0.09941 0.45006 0.0
C950 C 0.84614 0.10673 0.45261 0.0
C951 C 0.84773 0.08081 0.46673 0.0
C952 C 0.82328 0.06526 0.47413 0.0
C953 C 0.7978 0.07473 0.46571 0.0
C954 C 0.87167 0.124 0.44434 0.0
C955 C 0.82399 0.03762 0.4893 0.0
C956 C 0.90804 0.03778 0.45023 0.0
C957 C 0.92493 0.04223 0.47488 0.0
C958 C 0.88307 0.0503 0.44746 0.0
C959 C 0.87455 0.0679 0.46984 0.0
C960 C 0.89146 0.07271 0.49479 0.0
C961 C 0.91647 0.05976 0.49705 0.0
C962 C 0.86571 0.0445 0.42048 0.0
C963 C 0.88309 0.09143 0.51904 0.0
H964 H 0.81933 0.13471 0.43222 0.0
H965 H 0.77915 0.0623 0.47063 0.0
H966 H 0.88682 0.12636 0.46243 0.0
H967 H 0.88136 0.11284 0.42663 0.0
H968 H 0.86713 0.14542 0.43728 0.0
H969 H 0.80351 0.03008 0.49684 0.0
H970 H 0.83114 0.02114 0.47459 0.0
H971 H 0.83867 0.03987 0.50781 0.0
H972 H 0.91424 0.02429 0.43293 0.0
H973 H 0.92937 0.06339 0.51615 0.0
H974 H 0.86217 0.06473 0.41007 0.0
H975 H 0.84537 0.03438 0.42565 0.0
H976 H 0.87535 0.03042 0.40501 0.0
H977 H 0.87985 0.11293 0.51135 0.0
H978 H 0.89865 0.09337 0.53681 0.0
H979 H 0.86332 0.08274 0.52733 0.0
C980 C 0.19928 0.6453 0.10459 0.0
C981 C 0.207 0.63036 0.12861 0.0
C982 C 0.17603 0.63597 0.08755 0.0
C983 C 0.1601 0.61115 0.09471 0.0
C984 C 0.16841 0.59542 0.11824 0.0
C985 C 0.19161 0.60524 0.13489 0.0
C986 C 0.16795 0.65324 0.06258 0.0
C987 C 0.15206 0.5688 0.12667 0.0
C988 C 0.08352 0.59932 0.08225 0.0
C989 C 0.08156 0.57734 0.0615 0.0
C990 C 0.10901 0.61238 0.09139 0.0
C991 C 0.13322 0.6029 0.07982 0.0
C992 C 0.13121 0.58242 0.05706 0.0
C993 C 0.10527 0.56993 0.04801 0.0
C994 C 0.11006 0.6345 0.11529 0.0
C995 C 0.15649 0.57183 0.04403 0.0
H996 H 0.21126 0.66448 0.09927 0.0
H997 H 0.19707 0.59372 0.15357 0.0
H998 H 0.16332 0.63934 0.04338 0.0
H999 H 0.14904 0.66379 0.06741 0.0
H1000 H 0.18425 0.66979 0.05762 0.0
H1001 H 0.16245 0.55781 0.14406 0.0
H1002 H 0.13168 0.57424 0.13396 0.0
H1003 H 0.14856 0.55385 0.10809 0.0
H1004 H 0.06513 0.60516 0.09258 0.0
H1005 H 0.1038 0.55279 0.0321 0.0
H1006 H 0.12448 0.65282 0.11056 0.0
H1007 H 0.11764 0.62523 0.13519 0.0
H1008 H 0.08959 0.64232 0.11913 0.0
H1009 H 0.17198 0.58962 0.04066 0.0
H1010 H 0.15161 0.56028 0.02338 0.0
H1011 H 0.16587 0.55712 0.0588 0.0
C1012 C 0.31474 0.41047 0.60523 0.0
C1013 C 0.29067 0.42118 0.59447 0.0
C1014 C 0.34064 0.42251 0.5982 0.0
C1015 C 0.34252 0.44601 0.58018 0.0
C1016 C 0.31829 0.4568 0.56908 0.0
C1017 C 0.29266 0.44418 0.57627 0.0
C1018 C 0.366 0.41025 0.61026 0.0
C1019 C 0.31943 0.48202 0.55006 0.0
C1020 C 0.4079 0.4944 0.58715 0.0
C1021 C 0.42234 0.48583 0.56344 0.0
C1022 C 0.38177 0.4819 0.59255 0.0
C1023 C 0.36983 0.46005 0.57397 0.0
C1024 C 0.38417 0.45139 0.54988 0.0
C1025 C 0.4102 0.46451 0.54479 0.0
C1026 C 0.36701 0.49199 0.61828 0.0
C1027 C 0.37218 0.42799 0.52972 0.0
H1028 H 0.31331 0.39245 0.61898 0.0
H1029 H 0.27411 0.4527 0.56811 0.0
H1030 H 0.37941 0.40433 0.59277 0.0
H1031 H 0.37792 0.42642 0.62408 0.0
H1032 H 0.36104 0.39122 0.62297 0.0
H1033 H 0.29874 0.48726 0.54247 0.0
H1034 H 0.32954 0.50082 0.56178 0.0
H1035 H 0.33191 0.47781 0.5313 0.0
H1036 H 0.417 0.511 0.60158 0.0
H1037 H 0.42125 0.4577 0.52647 0.0
H1038 H 0.36332 0.47427 0.63297 0.0
H1039 H 0.3467 0.49902 0.61166 0.0
H1040 H 0.37876 0.50981 0.63012 0.0
H1041 H 0.36858 0.40808 0.54141 0.0
H1042 H 0.38578 0.42397 0.51177 0.0
H1043 H 0.35203 0.43347 0.5209 0.0
C1044 C 0.91666 0.72873 0.9721 0.0
C1045 C 0.90343 0.72551 0.9451 0.0
C1046 C 0.93095 0.70676 0.98383 0.0
C1047 C 0.93223 0.68081 0.96826 0.0
C1048 C 0.91856 0.67725 0.94122 0.0
C1049 C 0.90439 0.69953 0.93003 0.0
C1050 C 0.94509 0.71149 0.01273 0.0
C1051 C 0.91945 0.65008 0.92373 0.0
C1052 C 0.99227 0.6348 0.97854 0.0
C1053 C 0.98049 0.61161 0.99305 0.0
C1054 C 0.97714 0.65789 0.97147 0.0
C1055 C 0.94938 0.65808 0.97909 0.0
C1056 C 0.93779 0.63557 0.99524 0.0
C1057 C 0.95346 0.61261 1.00205 0.0
C1058 C 0.99054 0.68141 0.95448 0.0
C1059 C 0.9084 0.63504 1.00414 0.0
H1060 H 0.91573 0.74846 0.98421 0.0
H1061 H 0.89457 0.6968 0.90907 0.0
H1062 H 0.93847 0.6942 0.027 0.0
H1063 H 0.96758 0.71102 0.01065 0.0
H1064 H 0.9408 0.73211 0.02292 0.0
H1065 H 0.90664 0.65005 0.90381 0.0
H1066 H 0.9409 0.64703 0.91802 0.0
H1067 H 0.91224 0.63169 0.93634 0.0
H1068 H 0.01318 0.63443 0.97163 0.0
H1069 H 0.94411 0.59486 0.01323 0.0
H1070 H 0.98782 0.70234 0.96484 0.0
H1071 H 0.98057 0.68128 0.93296 0.0
H1072 H 0.0128 0.67923 0.95207 0.0
H1073 H 0.90442 0.65546 0.01486 0.0
H1074 H 0.90316 0.61753 0.01872 0.0
H1075 H 0.89453 0.63235 0.985 0.0
C1076 C 0.36915 0.87033 0.12348 0.0
C1077 C 0.37198 0.8665 0.15287 0.0
C1078 C 0.38629 0.89034 0.10976 0.0
C1079 C 0.40677 0.90709 0.12581 0.0
C1080 C 0.4082 0.90504 0.15581 0.0
C1081 C 0.39095 0.88457 0.16899 0.0
C1082 C 0.38406 0.89165 0.07772 0.0
C1083 C 0.42923 0.92302 0.17379 0.0
C1084 C 0.47161 0.91831 0.08483 0.0
C1085 C 0.46904 0.94506 0.07334 0.0
C1086 C 0.45226 0.90656 0.10322 0.0
C1087 C 0.42966 0.92198 0.11062 0.0
C1088 C 0.42792 0.94992 0.1008 0.0
C1089 C 0.44769 0.96117 0.08215 0.0
C1090 C 0.45514 0.87678 0.11319 0.0
C1091 C 0.40447 0.96728 0.10867 0.0
H1092 H 0.35472 0.85637 0.11078 0.0
H1093 H 0.39292 0.88208 0.19179 0.0
H1094 H 0.38441 0.91396 0.07106 0.0
H1095 H 0.40193 0.88213 0.06831 0.0
H1096 H 0.36505 0.88 0.06879 0.0
H1097 H 0.42408 0.92331 0.19664 0.0
H1098 H 0.44957 0.91437 0.17179 0.0
H1099 H 0.43102 0.94513 0.16639 0.0
H1100 H 0.48834 0.90593 0.07855 0.0
H1101 H 0.44565 0.98191 0.07344 0.0
H1102 H 0.43799 0.86239 0.10399 0.0
H1103 H 0.45404 0.87621 0.13669 0.0
H1104 H 0.47475 0.86836 0.10686 0.0
H1105 H 0.38582 0.95946 0.096 0.0
H1106 H 0.40895 0.9901 0.10437 0.0
H1107 H 0.3998 0.96511 0.13149 0.0
C1108 C 0.03485 0.24757 0.57023 0.0
C1109 C 0.06184 0.25145 0.58136 0.0
C1110 C 0.0246 0.22128 0.55796 0.0
C1111 C 0.04151 0.19823 0.55767 0.0
C1112 C 0.06938 0.20278 0.56681 0.0
C1113 C 0.07922 0.22935 0.57837 0.0
C1114 C 0.99517 0.21769 0.54721 0.0
C1115 C 0.08822 0.17885 0.56701 0.0
C1116 C 0.01538 0.12493 0.57732 0.0
C1117 C 0.02026 0.109 0.55266 0.0
C1118 C 0.01989 0.15445 0.57835 0.0
C1119 C 0.02927 0.16853 0.55393 0.0
C1120 C 0.03115 0.15285 0.52795 0.0
C1121 C 0.02674 0.12304 0.52763 0.0
C1122 C 0.01739 0.17011 0.60655 0.0
C1123 C 0.04001 0.1671 0.50113 0.0
H1124 H 0.02146 0.26477 0.57203 0.0
H1125 H 0.10006 0.23215 0.58702 0.0
H1126 H 0.993 0.20347 0.52795 0.0
H1127 H 0.98229 0.2079 0.56383 0.0
H1128 H 0.98716 0.23839 0.5421 0.0
H1129 H 0.10986 0.18646 0.57218 0.0
H1130 H 0.08146 0.16334 0.58312 0.0
H1131 H 0.0873 0.16749 0.54602 0.0
H1132 H 0.00991 0.11405 0.59657 0.0
H1133 H 0.03043 0.11075 0.50848 0.0
H1134 H 1.00499 0.18859 0.60388 0.0
H1135 H 0.03807 0.17823 0.61477 0.0
H1136 H 0.0078 0.15634 0.6228 0.0
H1137 H 0.0329 0.1888 0.50012 0.0
H1138 H 0.03209 0.15455 0.48189 0.0
H1139 H 0.06272 0.1688 0.50067 0.0
C1140 C 0.59021 0.31618 0.44792 0.0
C1141 C 0.59174 0.2936 0.46647 0.0
C1142 C 0.57571 0.33982 0.45496 0.0
C1143 C 0.56221 0.34096 0.48117 0.0
C1144 C 0.56381 0.31836 0.50011 0.0
C1145 C 0.57859 0.29498 0.49257 0.0
C1146 C 0.5748 0.3636 0.43426 0.0
C1147 C 0.54963 0.31875 0.52818 0.0
C1148 C 0.54437 0.41477 0.50488 0.0
C1149 C 0.51761 0.41541 0.49346 0.0
C1150 C 0.55876 0.3902 0.5023 0.0
C1151 C 0.54599 0.36562 0.48818 0.0
C1152 C 0.51835 0.36562 0.4783 0.0
C1153 C 0.50459 0.39058 0.48084 0.0
C1154 C 0.58823 0.39123 0.513 0.0
C1155 C 0.50381 0.33977 0.46351 0.0
H1156 H 0.6007 0.31555 0.42796 0.0
H1157 H 0.57949 0.27753 0.50693 0.0
H1158 H 0.55328 0.3661 0.42727 0.0
H1159 H 0.58284 0.38391 0.44484 0.0
H1160 H 0.58694 0.35981 0.41512 0.0
H1161 H 0.55339 0.29988 0.54086 0.0
H1162 H 0.55677 0.33812 0.54095 0.0
H1163 H 0.52721 0.31943 0.52435 0.0
H1164 H 0.55474 0.434 0.51423 0.0
H1165 H 0.48392 0.39098 0.47195 0.0
H1166 H 0.60189 0.39105 0.4946 0.0
H1167 H 0.5919 0.37229 0.52554 0.0
H1168 H 0.59407 0.41055 0.52646 0.0
H1169 H 0.51297 0.3361 0.44254 0.0
H1170 H 0.48155 0.34213 0.46 0.0
H1171 H 0.5064 0.32066 0.47616 0.0
loop_
_geom_bond_atom_site_label_1
_geom_bond_atom_site_label_2
_geom_bond_distance
_geom_bond_site_symmetry_2
_ccdc_geom_bond_type
C0 C1 1.264 . S
C0 C5 1.479 . S
C0 C10 1.465 . S
C1 C0 1.264 . S
C1 C3 1.339 . S
C1 H28 0.931 . S
C2 C3 1.395 . S
C2 C4 1.320 . S
C3 C1 1.339 . S
C3 C2 1.395 . S
C3 H29 0.929 . S
C4 C2 1.320 . S
C4 C5 1.405 . S
C4 H30 0.930 . S
C5 C0 1.479 . S
C5 C4 1.405 . S
C5 H31 0.931 . S
U6 O7 2.454 . S
U6 O8 2.458 . S
U6 C9 2.984 . S
U6 C10 2.847 . S
U6 C23 2.882 . S
U6 O24 2.441 . S
U6 O25 2.420 . S
U6 O26 2.455 . S
U6 O27 2.449 . S
O7 U6 2.454 . S
O7 C9 1.353 . S
O8 U6 2.458 . S
O8 C9 1.286 . S
C9 U6 2.984 . S
C9 O7 1.353 . S
C9 O8 1.286 . S
C9 C11 1.363 . S
C10 C0 1.465 . S
C10 U6 2.847 . S
C10 O24 1.249 . S
C10 O25 1.202 . S
C11 C9 1.363 . S
C11 C13 1.408 . S
C11 C16 1.342 . S
C12 C13 1.310 . S
C12 C15 1.461 . S
C12 H32 0.932 . S
C13 C11 1.408 . S
C13 C12 1.310 . S
C13 H33 0.930 . S
C14 C15 1.474 . S
C14 C16 1.285 . S
C14 H34 0.929 . S
C15 C12 1.461 . S
C15 C14 1.474 . S
C16 C11 1.342 . S
C16 C14 1.285 . S
C16 H35 0.930 . S
C17 C20 1.424 . S
C17 C22 1.245 . S
C17 C23 1.428 . S
C18 C21 1.260 . S
C18 C22 1.477 . S
C18 H36 0.932 . S
C19 C20 1.384 . S
C19 C21 1.479 . S
C19 H37 0.929 . S
C20 C17 1.424 . S
C20 C19 1.384 . S
C20 H38 0.928 . S
C21 C18 1.260 . S
C21 C19 1.479 . S
C22 C17 1.245 . S
C22 C18 1.477 . S
C22 H39 0.932 . S
C23 U6 2.882 . S
C23 C17 1.428 . S
C23 O26 1.301 . S
C23 O27 1.282 . S
O24 U6 2.441 . S
O24 C10 1.249 . S
O25 U6 2.420 . S
O25 C10 1.202 . S
O26 U6 2.455 . S
O26 C23 1.301 . S
O27 U6 2.449 . S
O27 C23 1.282 . S
H28 C1 0.931 . S
H29 C3 0.929 . S
H30 C4 0.930 . S
H31 C5 0.931 . S
H32 C12 0.932 . S
H33 C13 0.930 . S
H34 C14 0.929 . S
H35 C16 0.930 . S
H36 C18 0.932 . S
H37 C19 0.929 . S
H38 C20 0.928 . S
H39 C22 0.932 . S
C40 C41 1.264 . S
C40 C45 1.479 . S
C40 C50 1.465 . S
C41 C40 1.264 . S
C41 C43 1.339 . S
C41 H68 0.931 . S
C42 C43 1.395 . S
C42 C44 1.320 . S
C43 C41 1.339 . S
C43 C42 1.395 . S
C43 H69 0.929 . S
C44 C42 1.320 . S
C44 C45 1.405 . S
C44 H70 0.930 . S
C45 C40 1.479 . S
C45 C44 1.405 . S
C45 H71 0.931 . S
U46 O47 2.454 . S
U46 O48 2.458 . S
U46 C49 2.984 . S
U46 C50 2.847 . S
U46 C63 2.882 . S
U46 O64 2.441 . S
U46 O65 2.420 . S
U46 O66 2.455 . S
U46 O67 2.449 . S
O47 U46 2.454 . S
O47 C49 1.353 . S
O48 U46 2.458 . S
O48 C49 1.286 . S
C49 U46 2.984 . S
C49 O47 1.353 . S
C49 O48 1.286 . S
C49 C51 1.363 . S
C50 C40 1.465 . S
C50 U46 2.847 . S
C50 O64 1.249 . S
C50 O65 1.202 . S
C51 C49 1.363 . S
C51 C53 1.408 . S
C51 C56 1.342 . S
C52 C53 1.310 . S
C52 C55 1.461 . S
C52 H72 0.932 . S
C53 C51 1.408 . S
C53 C52 1.310 . S
C53 H73 0.930 . S
C54 C55 1.474 . S
C54 C56 1.285 . S
C54 H74 0.929 . S
C55 C52 1.461 . S
C55 C54 1.474 . S
C56 C51 1.342 . S
C56 C54 1.285 . S
C56 H75 0.930 . S
C57 C60 1.424 . S
C57 C62 1.245 . S
C57 C63 1.428 . S
C58 C61 1.260 . S
C58 C62 1.477 . S
C58 H76 0.932 . S
C59 C60 1.384 . S
C59 C61 1.479 . S
C59 H77 0.929 . S
C60 C57 1.424 . S
C60 C59 1.384 . S
C60 H78 0.928 . S
C61 C58 1.260 . S
C61 C59 1.479 . S
C62 C57 1.245 . S
C62 C58 1.477 . S
C62 H79 0.932 . S
C63 U46 2.882 . S
C63 C57 1.428 . S
C63 O66 1.301 . S
C63 O67 1.282 . S
O64 U46 2.441 . S
O64 C50 1.249 . S
O65 U46 2.420 . S
O65 C50 1.202 . S
O66 U46 2.455 . S
O66 C63 1.301 . S
O67 U46 2.449 . S
O67 C63 1.282 . S
H68 C41 0.931 . S
H69 C43 0.929 . S
H70 C44 0.930 . S
H71 C45 0.931 . S
H72 C52 0.932 . S
H73 C53 0.930 . S
H74 C54 0.929 . S
H75 C56 0.930 . S
H76 C58 0.932 . S
H77 C59 0.929 . S
H78 C60 0.928 . S
H79 C62 0.932 . S
C80 C81 1.264 . S
C80 C85 1.479 . S
C80 C90 1.465 . S
C81 C80 1.264 . S
C81 C83 1.339 . S
C81 H108 0.931 . S
C82 C83 1.395 . S
C82 C84 1.320 . S
C83 C81 1.339 . S
C83 C82 1.395 . S
C83 H109 0.929 . S
C84 C82 1.320 . S
C84 C85 1.405 . S
C84 H110 0.930 . S
C85 C80 1.479 . S
C85 C84 1.405 . S
C85 H111 0.931 . S
U86 O87 2.454 . S
U86 O88 2.458 . S
U86 C89 2.984 . S
U86 C90 2.847 . S
U86 C103 2.882 . S
U86 O104 2.441 . S
U86 O105 2.420 . S
U86 O106 2.455 . S
U86 O107 2.449 . S
O87 U86 2.454 . S
O87 C89 1.353 . S
O88 U86 2.458 . S
O88 C89 1.286 . S
C89 U86 2.984 . S
C89 O87 1.353 . S
C89 O88 1.286 . S
C89 C91 1.363 . S
C90 C80 1.465 . S
C90 U86 2.847 . S
C90 O104 1.249 . S
C90 O105 1.202 . S
C91 C89 1.363 . S
C91 C93 1.408 . S
C91 C96 1.342 . S
C92 C93 1.310 . S
C92 C95 1.461 . S
C92 H112 0.932 . S
C93 C91 1.408 . S
C93 C92 1.310 . S
C93 H113 0.930 . S
C94 C95 1.474 . S
C94 C96 1.285 . S
C94 H114 0.929 . S
C95 C92 1.461 . S
C95 C94 1.474 . S
C96 C91 1.342 . S
C96 C94 1.285 . S
C96 H115 0.930 . S
C97 C100 1.424 . S
C97 C102 1.245 . S
C97 C103 1.428 . S
C98 C101 1.260 . S
C98 C102 1.477 . S
C98 H116 0.932 . S
C99 C100 1.384 . S
C99 C101 1.479 . S
C99 H117 0.929 . S
C100 C97 1.424 . S
C100 C99 1.384 . S
C100 H118 0.928 . S
C101 C98 1.260 . S
C101 C99 1.479 . S
C102 C97 1.245 . S
C102 C98 1.477 . S
C102 H119 0.932 . S
C103 U86 2.882 . S
C103 C97 1.428 . S
C103 O106 1.301 . S
C103 O107 1.282 . S
O104 U86 2.441 . S
O104 C90 1.249 . S
O105 U86 2.420 . S
O105 C90 1.202 . S
O106 U86 2.455 . S
O106 C103 1.301 . S
O107 U86 2.449 . S
O107 C103 1.282 . S
H108 C81 0.931 . S
H109 C83 0.929 . S
H110 C84 0.930 . S
H111 C85 0.931 . S
H112 C92 0.932 . S
H113 C93 0.930 . S
H114 C94 0.929 . S
H115 C96 0.930 . S
H116 C98 0.932 . S
H117 C99 0.929 . S
H118 C100 0.928 . S
H119 C102 0.932 . S
C120 C121 1.264 . S
C120 C125 1.479 . S
C120 C130 1.465 . S
C121 C120 1.264 . S
C121 C123 1.339 . S
C121 H148 0.931 . S
C122 C123 1.395 . S
C122 C124 1.320 . S
C123 C121 1.339 . S
C123 C122 1.395 . S
C123 H149 0.929 . S
C124 C122 1.320 . S
C124 C125 1.405 . S
C124 H150 0.930 . S
C125 C120 1.479 . S
C125 C124 1.405 . S
C125 H151 0.931 . S
U126 O127 2.454 . S
U126 O128 2.458 . S
U126 C129 2.984 . S
U126 C130 2.847 . S
U126 C143 2.882 . S
U126 O144 2.441 . S
U126 O145 2.420 . S
U126 O146 2.455 . S
U126 O147 2.449 . S
O127 U126 2.454 . S
O127 C129 1.353 . S
O128 U126 2.458 . S
O128 C129 1.286 . S
C129 U126 2.984 . S
C129 O127 1.353 . S
C129 O128 1.286 . S
C129 C131 1.363 . S
C130 C120 1.465 . S
C130 U126 2.847 . S
C130 O144 1.249 . S
C130 O145 1.202 . S
C131 C129 1.363 . S
C131 C133 1.408 . S
C131 C136 1.342 . S
C132 C133 1.310 . S
C132 C135 1.461 . S
C132 H152 0.932 . S
C133 C131 1.408 . S
C133 C132 1.310 . S
C133 H153 0.930 . S
C134 C135 1.474 . S
C134 C136 1.285 . S
C134 H154 0.929 . S
C135 C132 1.461 . S
C135 C134 1.474 . S
C136 C131 1.342 . S
C136 C134 1.285 . S
C136 H155 0.930 . S
C137 C140 1.424 . S
C137 C142 1.245 . S
C137 C143 1.428 . S
C138 C141 1.260 . S
C138 C142 1.477 . S
C138 H156 0.932 . S
C139 C140 1.384 . S
C139 C141 1.479 . S
C139 H157 0.929 . S
C140 C137 1.424 . S
C140 C139 1.384 . S
C140 H158 0.928 . S
C141 C138 1.260 . S
C141 C139 1.479 . S
C142 C137 1.245 . S
C142 C138 1.477 . S
C142 H159 0.932 . S
C143 U126 2.882 . S
C143 C137 1.428 . S
C143 O146 1.301 . S
C143 O147 1.282 . S
O144 U126 2.441 . S
O144 C130 1.249 . S
O145 U126 2.420 . S
O145 C130 1.202 . S
O146 U126 2.455 . S
O146 C143 1.301 . S
O147 U126 2.449 . S
O147 C143 1.282 . S
H148 C121 0.931 . S
H149 C123 0.929 . S
H150 C124 0.930 . S
H151 C125 0.931 . S
H152 C132 0.932 . S
H153 C133 0.930 . S
H154 C134 0.929 . S
H155 C136 0.930 . S
H156 C138 0.932 . S
H157 C139 0.929 . S
H158 C140 0.928 . S
H159 C142 0.932 . S
C160 C161 1.264 . S
C160 C165 1.479 . S
C160 C170 1.465 . S
C161 C160 1.264 . S
C161 C163 1.339 . S
C161 H188 0.931 . S
C162 C163 1.395 . S
C162 C164 1.320 . S
C163 C161 1.339 . S
C163 C162 1.395 . S
C163 H189 0.929 . S
C164 C162 1.320 . S
C164 C165 1.405 . S
C164 H190 0.930 . S
C165 C160 1.479 . S
C165 C164 1.405 . S
C165 H191 0.931 . S
U166 O167 2.454 . S
U166 O168 2.458 . S
U166 C169 2.984 . S
U166 C170 2.847 . S
U166 C183 2.882 . S
U166 O184 2.441 . S
U166 O185 2.420 . S
U166 O186 2.455 . S
U166 O187 2.449 . S
O167 U166 2.454 . S
O167 C169 1.353 . S
O168 U166 2.458 . S
O168 C169 1.286 . S
C169 U166 2.984 . S
C169 O167 1.353 . S
C169 O168 1.286 . S
C169 C171 1.363 . S
C170 C160 1.465 . S
C170 U166 2.847 . S
C170 O184 1.249 . S
C170 O185 1.202 . S
C171 C169 1.363 . S
C171 C173 1.408 . S
C171 C176 1.342 . S
C172 C173 1.310 . S
C172 C175 1.461 . S
C172 H192 0.932 . S
C173 C171 1.408 . S
C173 C172 1.310 . S
C173 H193 0.930 . S
C174 C175 1.474 . S
C174 C176 1.285 . S
C174 H194 0.929 . S
C175 C172 1.461 . S
C175 C174 1.474 . S
C176 C171 1.342 . S
C176 C174 1.285 . S
C176 H195 0.930 . S
C177 C180 1.424 . S
C177 C182 1.245 . S
C177 C183 1.428 . S
C178 C181 1.260 . S
C178 C182 1.477 . S
C178 H196 0.932 . S
C179 C180 1.384 . S
C179 C181 1.479 . S
C179 H197 0.929 . S
C180 C177 1.424 . S
C180 C179 1.384 . S
C180 H198 0.928 . S
C181 C178 1.260 . S
C181 C179 1.479 . S
C182 C177 1.245 . S
C182 C178 1.477 . S
C182 H199 0.932 . S
C183 U166 2.882 . S
C183 C177 1.428 . S
C183 O186 1.301 . S
C183 O187 1.282 . S
O184 U166 2.441 . S
O184 C170 1.249 . S
O185 U166 2.420 . S
O185 C170 1.202 . S
O186 U166 2.455 . S
O186 C183 1.301 . S
O187 U166 2.449 . S
O187 C183 1.282 . S
H188 C161 0.931 . S
H189 C163 0.929 . S
H190 C164 0.930 . S
H191 C165 0.931 . S
H192 C172 0.932 . S
H193 C173 0.930 . S
H194 C174 0.929 . S
H195 C176 0.930 . S
H196 C178 0.932 . S
H197 C179 0.929 . S
H198 C180 0.928 . S
H199 C182 0.932 . S
C200 C201 1.264 . S
C200 C205 1.479 . S
C200 C210 1.465 . S
C201 C200 1.264 . S
C201 C203 1.339 . S
C201 H228 0.931 . S
C202 C203 1.395 . S
C202 C204 1.320 . S
C203 C201 1.339 . S
C203 C202 1.395 . S
C203 H229 0.929 . S
C204 C202 1.320 . S
C204 C205 1.405 . S
C204 H230 0.930 . S
C205 C200 1.479 . S
C205 C204 1.405 . S
C205 H231 0.931 . S
U206 O207 2.454 . S
U206 O208 2.458 . S
U206 C209 2.984 . S
U206 C210 2.847 . S
U206 C223 2.882 . S
U206 O224 2.441 . S
U206 O225 2.420 . S
U206 O226 2.455 . S
U206 O227 2.449 . S
O207 U206 2.454 . S
O207 C209 1.353 . S
O208 U206 2.458 . S
O208 C209 1.286 . S
C209 U206 2.984 . S
C209 O207 1.353 . S
C209 O208 1.286 . S
C209 C211 1.363 . S
C210 C200 1.465 . S
C210 U206 2.847 . S
C210 O224 1.249 . S
C210 O225 1.202 . S
C211 C209 1.363 . S
C211 C213 1.408 . S
C211 C216 1.342 . S
C212 C213 1.310 . S
C212 C215 1.461 . S
C212 H232 0.932 . S
C213 C211 1.408 . S
C213 C212 1.310 . S
C213 H233 0.930 . S
C214 C215 1.474 . S
C214 C216 1.285 . S
C214 H234 0.929 . S
C215 C212 1.461 . S
C215 C214 1.474 . S
C216 C211 1.342 . S
C216 C214 1.285 . S
C216 H235 0.930 . S
C217 C220 1.424 . S
C217 C222 1.245 . S
C217 C223 1.428 . S
C218 C221 1.260 . S
C218 C222 1.477 . S
C218 H236 0.932 . S
C219 C220 1.384 . S
C219 C221 1.479 . S
C219 H237 0.929 . S
C220 C217 1.424 . S
C220 C219 1.384 . S
C220 H238 0.928 . S
C221 C218 1.260 . S
C221 C219 1.479 . S
C222 C217 1.245 . S
C222 C218 1.477 . S
C222 H239 0.932 . S
C223 U206 2.882 . S
C223 C217 1.428 . S
C223 O226 1.301 . S
C223 O227 1.282 . S
O224 U206 2.441 . S
O224 C210 1.249 . S
O225 U206 2.420 . S
O225 C210 1.202 . S
O226 U206 2.455 . S
O226 C223 1.301 . S
O227 U206 2.449 . S
O227 C223 1.282 . S
H228 C201 0.931 . S
H229 C203 0.929 . S
H230 C204 0.930 . S
H231 C205 0.931 . S
H232 C212 0.932 . S
H233 C213 0.930 . S
H234 C214 0.929 . S
H235 C216 0.930 . S
H236 C218 0.932 . S
H237 C219 0.929 . S
H238 C220 0.928 . S
H239 C222 0.932 . S
C240 C241 1.264 . S
C240 C245 1.479 . S
C240 C250 1.465 . S
C241 C240 1.264 . S
C241 C243 1.339 . S
C241 H268 0.931 . S
C242 C243 1.395 . S
C242 C244 1.320 . S
C243 C241 1.339 . S
C243 C242 1.395 . S
C243 H269 0.929 . S
C244 C242 1.320 . S
C244 C245 1.405 . S
C244 H270 0.930 . S
C245 C240 1.479 . S
C245 C244 1.405 . S
C245 H271 0.931 . S
U246 O247 2.454 . S
U246 O248 2.458 . S
U246 C249 2.984 . S
U246 C250 2.847 . S
U246 C263 2.882 . S
U246 O264 2.441 . S
U246 O265 2.420 . S
U246 O266 2.455 . S
U246 O267 2.449 . S
O247 U246 2.454 . S
O247 C249 1.353 . S
O248 U246 2.458 . S
O248 C249 1.286 . S
C249 U246 2.984 . S
C249 O247 1.353 . S
C249 O248 1.286 . S
C249 C251 1.363 . S
C250 C240 1.465 . S
C250 U246 2.847 . S
C250 O264 1.249 . S
C250 O265 1.202 . S
C251 C249 1.363 . S
C251 C253 1.408 . S
C251 C256 1.342 . S
C252 C253 1.310 . S
C252 C255 1.461 . S
C252 H272 0.932 . S
C253 C251 1.408 . S
C253 C252 1.310 . S
C253 H273 0.930 . S
C254 C255 1.474 . S
C254 C256 1.285 . S
C254 H274 0.929 . S
C255 C252 1.461 . S
C255 C254 1.474 . S
C256 C251 1.342 . S
C256 C254 1.285 . S
C256 H275 0.930 . S
C257 C260 1.424 . S
C257 C262 1.245 . S
C257 C263 1.428 . S
C258 C261 1.260 . S
C258 C262 1.477 . S
C258 H276 0.932 . S
C259 C260 1.384 . S
C259 C261 1.479 . S
C259 H277 0.929 . S
C260 C257 1.424 . S
C260 C259 1.384 . S
C260 H278 0.928 . S
C261 C258 1.260 . S
C261 C259 1.479 . S
C262 C257 1.245 . S
C262 C258 1.477 . S
C262 H279 0.932 . S
C263 U246 2.882 . S
C263 C257 1.428 . S
C263 O266 1.301 . S
C263 O267 1.282 . S
O264 U246 2.441 . S
O264 C250 1.249 . S
O265 U246 2.420 . S
O265 C250 1.202 . S
O266 U246 2.455 . S
O266 C263 1.301 . S
O267 U246 2.449 . S
O267 C263 1.282 . S
H268 C241 0.931 . S
H269 C243 0.929 . S
H270 C244 0.930 . S
H271 C245 0.931 . S
H272 C252 0.932 . S
H273 C253 0.930 . S
H274 C254 0.929 . S
H275 C256 0.930 . S
H276 C258 0.932 . S
H277 C259 0.929 . S
H278 C260 0.928 . S
H279 C262 0.932 . S
C280 C281 1.264 . S
C280 C285 1.479 . S
C280 C290 1.465 . S
C281 C280 1.264 . S
C281 C283 1.339 . S
C281 H308 0.931 . S
C282 C283 1.395 . S
C282 C284 1.320 . S
C283 C281 1.339 . S
C283 C282 1.395 . S
C283 H309 0.929 . S
C284 C282 1.320 . S
C284 C285 1.405 . S
C284 H310 0.930 . S
C285 C280 1.479 . S
C285 C284 1.405 . S
C285 H311 0.931 . S
U286 O287 2.454 . S
U286 O288 2.458 . S
U286 C289 2.984 . S
U286 C290 2.847 . S
U286 C303 2.882 . S
U286 O304 2.441 . S
U286 O305 2.420 . S
U286 O306 2.455 . S
U286 O307 2.449 . S
O287 U286 2.454 . S
O287 C289 1.353 . S
O288 U286 2.458 . S
O288 C289 1.286 . S
C289 U286 2.984 . S
C289 O287 1.353 . S
C289 O288 1.286 . S
C289 C291 1.363 . S
C290 C280 1.465 . S
C290 U286 2.847 . S
C290 O304 1.249 . S
C290 O305 1.202 . S
C291 C289 1.363 . S
C291 C293 1.408 . S
C291 C296 1.342 . S
C292 C293 1.310 . S
C292 C295 1.461 . S
C292 H312 0.932 . S
C293 C291 1.408 . S
C293 C292 1.310 . S
C293 H313 0.930 . S
C294 C295 1.474 . S
C294 C296 1.285 . S
C294 H314 0.929 . S
C295 C292 1.461 . S
C295 C294 1.474 . S
C296 C291 1.342 . S
C296 C294 1.285 . S
C296 H315 0.930 . S
C297 C300 1.424 . S
C297 C302 1.245 . S
C297 C303 1.428 . S
C298 C301 1.260 . S
C298 C302 1.477 . S
C298 H316 0.932 . S
C299 C300 1.384 . S
C299 C301 1.479 . S
C299 H317 0.929 . S
C300 C297 1.424 . S
C300 C299 1.384 . S
C300 H318 0.928 . S
C301 C298 1.260 . S
C301 C299 1.479 . S
C302 C297 1.245 . S
C302 C298 1.477 . S
C302 H319 0.932 . S
C303 U286 2.882 . S
C303 C297 1.428 . S
C303 O306 1.301 . S
C303 O307 1.282 . S
O304 U286 2.441 . S
O304 C290 1.249 . S
O305 U286 2.420 . S
O305 C290 1.202 . S
O306 U286 2.455 . S
O306 C303 1.301 . S
O307 U286 2.449 . S
O307 C303 1.282 . S
H308 C281 0.931 . S
H309 C283 0.929 . S
H310 C284 0.930 . S
H311 C285 0.931 . S
H312 C292 0.932 . S
H313 C293 0.930 . S
H314 C294 0.929 . S
H315 C296 0.930 . S
H316 C298 0.932 . S
H317 C299 0.929 . S
H318 C300 0.928 . S
H319 C302 0.932 . S
O320 Mg321 1.990 . S
O320 C334 1.253 1_445 S
Mg321 O320 1.990 . S
Mg321 O324 2.180 . S
Mg321 O325 2.117 . S
Mg321 O339 2.030 1_545 S
O322 Mg323 2.072 1_665 S
O322 C334 1.260 . S
Mg323 O322 2.072 1_445 S
Mg323 O324 2.099 . S
Mg323 O326 2.079 . S
Mg323 O327 2.072 1_455 S
Mg323 O329 2.099 1_445 S
Mg323 O340 2.079 1_545 S
O324 Mg321 2.180 . S
O324 Mg323 2.099 . S
O324 C335 1.279 . S
O325 Mg321 2.117 . S
O325 C335 1.250 . S
O326 Mg323 2.079 . S
O326 C336 1.264 . S
O327 Mg323 2.072 1_655 S
O327 C337 1.260 . S
Mg328 O329 2.180 . S
Mg328 O330 2.030 1_565 S
Mg328 O331 1.990 1_565 S
Mg328 O332 2.117 . S
O329 Mg323 2.099 1_665 S
O329 Mg328 2.180 . S
O329 C338 1.279 . S
O330 Mg328 2.030 1_545 S
O330 C336 1.248 1_655 S
O331 Mg328 1.990 1_545 S
O331 C337 1.253 . S
O332 Mg328 2.117 . S
O332 C338 1.250 . S
C333 O339 1.248 . S
C333 O340 1.264 . S
C334 O320 1.253 1_665 S
C334 O322 1.260 . S
C335 O324 1.279 . S
C335 O325 1.250 . S
C336 O326 1.264 . S
C336 O330 1.248 1_455 S
C337 O327 1.260 . S
C337 O331 1.253 . S
C338 O329 1.279 . S
C338 O332 1.250 . S
O339 Mg321 2.030 1_565 S
O339 C333 1.248 . S
O340 Mg323 2.079 1_565 S
O340 C333 1.264 . S
O341 Mg342 1.990 . S
O341 C355 1.253 . S
Mg342 O341 1.990 . S
Mg342 O345 2.180 . S
Mg342 O346 2.117 1_554 S
Mg342 O360 2.030 . S
O343 Mg344 2.072 . S
O343 C355 1.260 . S
Mg344 O343 2.072 . S
Mg344 O345 2.099 . S
Mg344 O347 2.079 1_554 S
Mg344 O348 2.072 1_554 S
Mg344 O350 2.099 1_545 S
Mg344 O361 2.079 . S
O345 Mg342 2.180 . S
O345 Mg344 2.099 . S
O345 C356 1.279 1_554 S
O346 Mg342 2.117 1_556 S
O346 C356 1.250 . S
O347 Mg344 2.079 1_556 S
O347 C357 1.264 1_545 S
O348 Mg344 2.072 1_556 S
O348 C358 1.260 1_545 S
Mg349 O350 2.180 1_556 S
Mg349 O351 2.030 . S
Mg349 O352 1.990 . S
Mg349 O353 2.117 1_556 S
O350 Mg344 2.099 1_565 S
O350 Mg349 2.180 1_554 S
O350 C359 1.279 . S
O351 Mg349 2.030 . S
O351 C357 1.248 . S
O352 Mg349 1.990 . S
O352 C358 1.253 . S
O353 Mg349 2.117 1_554 S
O353 C359 1.250 . S
C354 O360 1.248 . S
C354 O361 1.264 . S
C355 O341 1.253 . S
C355 O343 1.260 . S
C356 O345 1.279 1_556 S
C356 O346 1.250 . S
C357 O347 1.264 1_565 S
C357 O351 1.248 . S
C358 O348 1.260 1_565 S
C358 O352 1.253 . S
C359 O350 1.279 . S
C359 O353 1.250 . S
O360 Mg342 2.030 . S
O360 C354 1.248 . S
O361 Mg344 2.079 . S
O361 C354 1.264 . S
O362 Mg363 1.990 . S
O362 C376 1.253 . S
Mg363 O362 1.990 . S
Mg363 O366 2.180 . S
Mg363 O367 2.117 . S
Mg363 O381 2.030 . S
O364 Mg365 2.072 . S
O364 C376 1.260 . S
Mg365 O364 2.072 . S
Mg365 O366 2.099 . S
Mg365 O368 2.079 . S
Mg365 O369 2.072 . S
Mg365 O371 2.099 . S
Mg365 O382 2.079 . S
O366 Mg363 2.180 . S
O366 Mg365 2.099 . S
O366 C377 1.279 . S
O367 Mg363 2.117 . S
O367 C377 1.250 . S
O368 Mg365 2.079 . S
O368 C378 1.264 . S
O369 Mg365 2.072 . S
O369 C379 1.260 . S
Mg370 O371 2.180 . S
Mg370 O372 2.030 . S
Mg370 O373 1.990 . S
Mg370 O374 2.117 . S
O371 Mg365 2.099 . S
O371 Mg370 2.180 . S
O371 C380 1.279 . S
O372 Mg370 2.030 . S
O372 C378 1.248 . S
O373 Mg370 1.990 . S
O373 C379 1.253 . S
O374 Mg370 2.117 . S
O374 C380 1.250 . S
C375 O381 1.248 . S
C375 O382 1.264 . S
C376 O362 1.253 . S
C376 O364 1.260 . S
C377 O366 1.279 . S
C377 O367 1.250 . S
C378 O368 1.264 . S
C378 O372 1.248 . S
C379 O369 1.260 . S
C379 O373 1.253 . S
C380 O371 1.279 . S
C380 O374 1.250 . S
O381 Mg363 2.030 . S
O381 C375 1.248 . S
O382 Mg365 2.079 . S
O382 C375 1.264 . S
O383 Mg384 1.990 . S
O383 C397 1.253 . S
Mg384 O383 1.990 . S
Mg384 O387 2.180 1_455 S
Mg384 O388 2.117 1_455 S
Mg384 O402 2.030 . S
O385 Mg386 2.072 . S
O385 C397 1.260 . S
Mg386 O385 2.072 . S
Mg386 O387 2.099 1_455 S
Mg386 O389 2.079 1_454 S
Mg386 O390 2.072 1_455 S
Mg386 O392 2.099 1_554 S
Mg386 O403 2.079 . S
O387 Mg384 2.180 1_655 S
O387 Mg386 2.099 1_655 S
O387 C398 1.279 . S
O388 Mg384 2.117 1_655 S
O388 C398 1.250 . S
O389 Mg386 2.079 1_656 S
O389 C399 1.264 . S
O390 Mg386 2.072 1_655 S
O390 C400 1.260 1_554 S
Mg391 O392 2.180 1_655 S
Mg391 O393 2.030 . S
Mg391 O394 1.990 . S
Mg391 O395 2.117 . S
O392 Mg386 2.099 1_556 S
O392 Mg391 2.180 1_455 S
O392 C401 1.279 . S
O393 Mg391 2.030 . S
O393 C399 1.248 . S
O394 Mg391 1.990 . S
O394 C400 1.253 . S
O395 Mg391 2.117 . S
O395 C401 1.250 1_655 S
C396 O402 1.248 . S
C396 O403 1.264 . S
C397 O383 1.253 . S
C397 O385 1.260 . S
C398 O387 1.279 . S
C398 O388 1.250 . S
C399 O389 1.264 . S
C399 O393 1.248 . S
C400 O390 1.260 1_556 S
C400 O394 1.253 . S
C401 O392 1.279 . S
C401 O395 1.250 1_455 S
O402 Mg384 2.030 . S
O402 C396 1.248 . S
O403 Mg386 2.079 . S
O403 C396 1.264 . S
C404 C405 1.391 . S
C404 C406 1.394 . S
C404 H420 0.931 . S
C405 C404 1.391 . S
C405 C409 1.376 . S
C406 C404 1.394 . S
C406 C407 1.369 . S
C406 C410 1.531 . S
C407 C406 1.369 . S
C407 C408 1.410 . S
C407 C415 1.503 . S
C408 C407 1.410 . S
C408 C409 1.392 . S
C408 C411 1.511 . S
C409 C405 1.376 . S
C409 C408 1.392 . S
C409 H421 0.929 . S
C410 C406 1.531 . S
C410 H422 0.960 . S
C410 H423 0.962 . S
C410 H424 0.960 . S
C411 C408 1.511 . S
C411 H425 0.961 . S
C411 H426 0.961 . S
C411 H427 0.961 1_455 S
C412 C413 1.370 . S
C412 C414 1.363 . S
C412 H428 0.931 . S
C413 C412 1.370 . S
C413 C417 1.408 . S
C414 C412 1.363 . S
C414 C415 1.370 . S
C414 C418 1.524 . S
C415 C407 1.503 . S
C415 C414 1.370 . S
C415 C416 1.403 . S
C416 C415 1.403 . S
C416 C417 1.404 . S
C416 C419 1.539 . S
C417 C413 1.408 . S
C417 C416 1.404 . S
C417 H429 0.930 . S
C418 C414 1.524 . S
C418 H430 0.956 . S
C418 H431 0.961 . S
C418 H432 0.961 1_545 S
C419 C416 1.539 . S
C419 H433 0.958 . S
C419 H434 0.961 . S
C419 H435 0.960 . S
H420 C404 0.931 . S
H421 C409 0.929 . S
H422 C410 0.960 . S
H423 C410 0.962 . S
H424 C410 0.960 . S
H425 C411 0.961 . S
H426 C411 0.961 . S
H427 C411 0.961 1_655 S
H428 C412 0.931 . S
H429 C417 0.930 . S
H430 C418 0.956 . S
H431 C418 0.961 . S
H432 C418 0.961 1_565 S
H433 C419 0.958 . S
H434 C419 0.961 . S
H435 C419 0.960 . S
C436 C437 1.391 . S
C436 C438 1.394 . S
C436 H452 0.931 . S
C437 C436 1.391 . S
C437 C441 1.376 . S
C438 C436 1.394 . S
C438 C439 1.369 . S
C438 C442 1.531 . S
C439 C438 1.369 . S
C439 C440 1.410 . S
C439 C447 1.503 . S
C440 C439 1.410 . S
C440 C441 1.392 . S
C440 C443 1.511 . S
C441 C437 1.376 . S
C441 C440 1.392 . S
C441 H453 0.929 . S
C442 C438 1.531 . S
C442 H454 0.960 . S
C442 H455 0.962 . S
C442 H456 0.960 . S
C443 C440 1.511 . S
C443 H457 0.961 . S
C443 H458 0.961 . S
C443 H459 0.961 . S
C444 C445 1.370 1_545 S
C444 C446 1.363 1_545 S
C444 H460 0.931 . S
C445 C444 1.370 1_565 S
C445 C449 1.408 . S
C446 C444 1.363 1_565 S
C446 C447 1.370 . S
C446 C450 1.524 1_565 S
C447 C439 1.503 . S
C447 C446 1.370 . S
C447 C448 1.403 . S
C448 C447 1.403 . S
C448 C449 1.404 . S
C448 C451 1.539 . S
C449 C445 1.408 . S
C449 C448 1.404 . S
C449 H461 0.930 . S
C450 C446 1.524 1_545 S
C450 H462 0.956 . S
C450 H463 0.961 . S
C450 H464 0.961 . S
C451 C448 1.539 . S
C451 H465 0.958 . S
C451 H466 0.961 . S
C451 H467 0.960 . S
H452 C436 0.931 . S
H453 C441 0.929 . S
H454 C442 0.960 . S
H455 C442 0.962 . S
H456 C442 0.960 . S
H457 C443 0.961 . S
H458 C443 0.961 . S
H459 C443 0.961 . S
H460 C444 0.931 . S
H461 C449 0.930 . S
H462 C450 0.956 . S
H463 C450 0.961 . S
H464 C450 0.961 . S
H465 C451 0.958 . S
H466 C451 0.961 . S
H467 C451 0.960 . S
C468 C469 1.391 . S
C468 C470 1.394 . S
C468 H484 0.931 . S
C469 C468 1.391 . S
C469 C473 1.376 . S
C470 C468 1.394 . S
C470 C471 1.369 . S
C470 C474 1.531 . S
C471 C470 1.369 . S
C471 C472 1.410 . S
C471 C479 1.503 . S
C472 C471 1.410 . S
C472 C473 1.392 . S
C472 C475 1.511 . S
C473 C469 1.376 . S
C473 C472 1.392 . S
C473 H485 0.929 . S
C474 C470 1.531 . S
C474 H486 0.960 . S
C474 H487 0.962 . S
C474 H488 0.960 . S
C475 C472 1.511 . S
C475 H489 0.961 . S
C475 H490 0.961 . S
C475 H491 0.961 . S
C476 C477 1.370 . S
C476 C478 1.363 . S
C476 H492 0.931 . S
C477 C476 1.370 . S
C477 C481 1.408 . S
C478 C476 1.363 . S
C478 C479 1.370 . S
C478 C482 1.524 . S
C479 C471 1.503 . S
C479 C478 1.370 . S
C479 C480 1.403 . S
C480 C479 1.403 . S
C480 C481 1.404 . S
C480 C483 1.539 . S
C481 C477 1.408 . S
C481 C480 1.404 . S
C481 H493 0.930 . S
C482 C478 1.524 . S
C482 H494 0.956 . S
C482 H495 0.961 . S
C482 H496 0.961 . S
C483 C480 1.539 . S
C483 H497 0.958 . S
C483 H498 0.961 . S
C483 H499 0.960 . S
H484 C468 0.931 . S
H485 C473 0.929 . S
H486 C474 0.960 . S
H487 C474 0.962 . S
H488 C474 0.960 . S
H489 C475 0.961 . S
H490 C475 0.961 . S
H491 C475 0.961 . S
H492 C476 0.931 . S
H493 C481 0.930 . S
H494 C482 0.956 . S
H495 C482 0.961 . S
H496 C482 0.961 . S
H497 C483 0.958 . S
H498 C483 0.961 . S
H499 C483 0.960 . S
C500 C501 1.391 . S
C500 C502 1.394 . S
C500 H516 0.931 . S
C501 C500 1.391 . S
C501 C505 1.376 . S
C502 C500 1.394 . S
C502 C503 1.369 . S
C502 C506 1.531 . S
C503 C502 1.369 . S
C503 C504 1.410 . S
C503 C511 1.503 . S
C504 C503 1.410 . S
C504 C505 1.392 . S
C504 C507 1.511 . S
C505 C501 1.376 . S
C505 C504 1.392 . S
C505 H517 0.929 . S
C506 C502 1.531 . S
C506 H518 0.960 . S
C506 H519 0.962 . S
C506 H520 0.960 . S
C507 C504 1.511 . S
C507 H521 0.961 . S
C507 H522 0.961 . S
C507 H523 0.961 . S
C508 C509 1.370 . S
C508 C510 1.363 . S
C508 H524 0.931 . S
C509 C508 1.370 . S
C509 C513 1.408 . S
C510 C508 1.363 . S
C510 C511 1.370 . S
C510 C514 1.524 . S
C511 C503 1.503 . S
C511 C510 1.370 . S
C511 C512 1.403 . S
C512 C511 1.403 . S
C512 C513 1.404 . S
C512 C515 1.539 . S
C513 C509 1.408 . S
C513 C512 1.404 . S
C513 H525 0.930 . S
C514 C510 1.524 . S
C514 H526 0.956 . S
C514 H527 0.961 . S
C514 H528 0.982 . S
C515 C512 1.539 . S
C515 H529 0.958 . S
C515 H530 0.961 . S
C515 H531 0.960 . S
H516 C500 0.931 . S
H517 C505 0.929 . S
H518 C506 0.960 . S
H519 C506 0.962 . S
H520 C506 0.960 . S
H521 C507 0.961 . S
H522 C507 0.961 . S
H523 C507 0.961 . S
H524 C508 0.931 . S
H525 C513 0.930 . S
H526 C514 0.956 . S
H527 C514 0.961 . S
H528 C514 0.982 . S
H529 C515 0.958 . S
H530 C515 0.961 . S
H531 C515 0.960 . S
C532 C533 1.391 . S
C532 C534 1.394 . S
C532 H548 0.931 . S
C533 C532 1.391 . S
C533 C537 1.376 . S
C534 C532 1.394 . S
C534 C535 1.369 . S
C534 C538 1.531 . S
C535 C534 1.369 . S
C535 C536 1.410 . S
C535 C543 1.503 . S
C536 C535 1.410 . S
C536 C537 1.392 . S
C536 C539 1.511 . S
C537 C533 1.376 . S
C537 C536 1.392 . S
C537 H549 0.929 . S
C538 C534 1.531 . S
C538 H550 0.960 . S
C538 H551 0.962 . S
C538 H552 0.960 . S
C539 C536 1.511 . S
C539 H553 0.969 . S
C539 H554 0.961 . S
C539 H555 0.961 . S
C540 C541 1.370 . S
C540 C542 1.363 . S
C540 H556 0.909 1_554 S
C541 C540 1.370 . S
C541 C545 1.408 . S
C542 C540 1.363 . S
C542 C543 1.370 . S
C542 C546 1.524 . S
C543 C535 1.503 . S
C543 C542 1.370 . S
C543 C544 1.403 . S
C544 C543 1.403 . S
C544 C545 1.404 . S
C544 C547 1.539 . S
C545 C541 1.408 . S
C545 C544 1.404 . S
C545 H557 0.930 . S
C546 C542 1.524 . S
C546 H558 0.956 . S
C546 H559 0.961 . S
C546 H560 0.961 1_554 S
C547 C544 1.539 . S
C547 H561 0.958 . S
C547 H562 0.961 . S
C547 H563 0.960 . S
H548 C532 0.931 . S
H549 C537 0.929 . S
H550 C538 0.960 . S
H551 C538 0.962 . S
H552 C538 0.960 . S
H553 C539 0.969 . S
H554 C539 0.961 . S
H555 C539 0.961 . S
H556 C540 0.909 1_556 S
H557 C545 0.930 . S
H558 C546 0.956 . S
H559 C546 0.961 . S
H560 C546 0.961 1_556 S
H561 C547 0.958 . S
H562 C547 0.961 . S
H563 C547 0.960 . S
C564 C565 1.391 . S
C564 C566 1.394 . S
C564 H580 0.931 . S
C565 C564 1.391 . S
C565 C569 1.376 . S
C566 C564 1.394 . S
C566 C567 1.369 . S
C566 C570 1.531 . S
C567 C566 1.369 . S
C567 C568 1.410 . S
C567 C575 1.503 . S
C568 C567 1.410 . S
C568 C569 1.392 . S
C568 C571 1.511 . S
C569 C565 1.376 . S
C569 C568 1.392 . S
C569 H581 0.929 . S
C570 C566 1.531 . S
C570 H582 0.960 1_565 S
C570 H583 0.962 . S
C570 H584 0.960 1_565 S
C571 C568 1.511 . S
C571 H585 0.961 . S
C571 H586 0.961 . S
C571 H587 0.961 . S
C572 C573 1.370 . S
C572 C574 1.363 . S
C572 H588 0.931 . S
C573 C572 1.370 . S
C573 C577 1.408 . S
C574 C572 1.363 . S
C574 C575 1.370 . S
C574 C578 1.524 . S
C575 C567 1.503 . S
C575 C574 1.370 . S
C575 C576 1.403 . S
C576 C575 1.403 . S
C576 C577 1.404 . S
C576 C579 1.539 1_565 S
C577 C573 1.408 . S
C577 C576 1.404 . S
C577 H589 0.930 1_565 S
C578 C574 1.524 . S
C578 H590 0.956 . S
C578 H591 0.961 . S
C578 H592 0.961 . S
C579 C576 1.539 1_545 S
C579 H593 0.958 . S
C579 H594 0.961 . S
C579 H595 0.960 1_545 S
H580 C564 0.931 . S
H581 C569 0.929 . S
H582 C570 0.960 1_545 S
H583 C570 0.962 . S
H584 C570 0.960 1_545 S
H585 C571 0.961 . S
H586 C571 0.961 . S
H587 C571 0.961 . S
H588 C572 0.931 . S
H589 C577 0.930 1_545 S
H590 C578 0.956 . S
H591 C578 0.961 . S
H592 C578 0.961 . S
H593 C579 0.958 . S
H594 C579 0.961 . S
H595 C579 0.960 1_565 S
C596 C597 1.391 . S
C596 C598 1.394 . S
C596 H612 0.931 . S
C597 C596 1.391 . S
C597 C601 1.376 . S
C598 C596 1.394 . S
C598 C599 1.369 . S
C598 C602 1.531 . S
C599 C598 1.369 . S
C599 C600 1.410 . S
C599 C607 1.503 . S
C600 C599 1.410 . S
C600 C601 1.392 . S
C600 C603 1.511 1_556 S
C601 C597 1.376 . S
C601 C600 1.392 . S
C601 H613 0.929 . S
C602 C598 1.531 . S
C602 H614 0.960 . S
C602 H615 0.962 . S
C602 H616 0.960 . S
C603 C600 1.511 1_554 S
C603 H617 0.961 . S
C603 H618 0.961 . S
C603 H619 0.961 . S
C604 C605 1.370 . S
C604 C606 1.363 . S
C604 H620 0.931 . S
C605 C604 1.370 . S
C605 C609 1.408 . S
C606 C604 1.363 . S
C606 C607 1.370 . S
C606 C610 1.524 . S
C607 C599 1.503 . S
C607 C606 1.370 . S
C607 C608 1.403 . S
C608 C607 1.403 . S
C608 C609 1.404 . S
C608 C611 1.539 . S
C609 C605 1.408 . S
C609 C608 1.404 . S
C609 H621 0.930 . S
C610 C606 1.524 . S
C610 H622 0.956 . S
C610 H623 0.961 . S
C610 H624 0.961 . S
C611 C608 1.539 . S
C611 H625 0.958 . S
C611 H626 0.961 . S
C611 H627 0.960 . S
H612 C596 0.931 . S
H613 C601 0.929 . S
H614 C602 0.960 . S
H615 C602 0.962 . S
H616 C602 0.960 . S
H617 C603 0.961 . S
H618 C603 0.961 . S
H619 C603 0.961 . S
H620 C604 0.931 . S
H621 C609 0.930 . S
H622 C610 0.956 . S
H623 C610 0.961 . S
H624 C610 0.961 . S
H625 C611 0.958 . S
H626 C611 0.961 . S
H627 C611 0.960 . S
C628 C629 1.391 . S
C628 C630 1.394 . S
C628 H644 0.931 . S
C629 C628 1.391 . S
C629 C633 1.376 . S
C630 C628 1.394 . S
C630 C631 1.369 . S
C630 C634 1.531 . S
C631 C630 1.369 . S
C631 C632 1.410 . S
C631 C639 1.503 . S
C632 C631 1.410 . S
C632 C633 1.392 . S
C632 C635 1.511 . S
C633 C629 1.376 . S
C633 C632 1.392 . S
C633 H645 0.929 . S
C634 C630 1.531 . S
C634 H646 0.960 . S
C634 H647 0.962 . S
C634 H648 0.960 . S
C635 C632 1.511 . S
C635 H649 0.961 . S
C635 H650 0.961 . S
C635 H651 0.961 . S
C636 C637 1.370 . S
C636 C638 1.363 . S
C636 H652 0.931 . S
C637 C636 1.370 . S
C637 C641 1.408 . S
C638 C636 1.363 . S
C638 C639 1.370 . S
C638 C642 1.524 . S
C639 C631 1.503 . S
C639 C638 1.370 . S
C639 C640 1.403 . S
C640 C639 1.403 . S
C640 C641 1.404 . S
C640 C643 1.539 . S
C641 C637 1.408 . S
C641 C640 1.404 . S
C641 H653 0.930 . S
C642 C638 1.524 . S
C642 H654 0.956 . S
C642 H655 0.961 . S
C642 H656 0.961 . S
C643 C640 1.539 . S
C643 H657 0.958 . S
C643 H658 0.961 . S
C643 H659 0.960 . S
H644 C628 0.931 . S
H645 C633 0.929 . S
H646 C634 0.960 . S
H647 C634 0.962 . S
H648 C634 0.960 . S
H649 C635 0.961 . S
H650 C635 0.961 . S
H651 C635 0.961 . S
H652 C636 0.931 . S
H653 C641 0.930 . S
H654 C642 0.956 . S
H655 C642 0.961 . S
H656 C642 0.961 . S
H657 C643 0.958 . S
H658 C643 0.961 . S
H659 C643 0.960 . S
C660 C661 1.391 . S
C660 C662 1.394 . S
C660 H676 0.931 . S
C661 C660 1.391 . S
C661 C665 1.376 . S
C662 C660 1.394 . S
C662 C663 1.369 . S
C662 C666 1.531 . S
C663 C662 1.369 . S
C663 C664 1.410 . S
C663 C671 1.503 . S
C664 C663 1.410 . S
C664 C665 1.392 . S
C664 C667 1.511 . S
C665 C661 1.376 . S
C665 C664 1.392 . S
C665 H677 0.929 . S
C666 C662 1.531 . S
C666 H678 0.960 . S
C666 H679 0.962 . S
C666 H680 0.960 . S
C667 C664 1.511 . S
C667 H681 0.956 1_455 S
C667 H682 0.961 . S
C667 H683 0.961 1_455 S
C668 C669 1.370 . S
C668 C670 1.363 . S
C668 H684 0.931 . S
C669 C668 1.370 . S
C669 C673 1.408 . S
C670 C668 1.363 . S
C670 C671 1.370 . S
C670 C674 1.524 . S
C671 C663 1.503 . S
C671 C670 1.370 . S
C671 C672 1.403 . S
C672 C671 1.403 . S
C672 C673 1.404 . S
C672 C675 1.539 1_554 S
C673 C669 1.408 . S
C673 C672 1.404 . S
C673 H685 0.930 1_554 S
C674 C670 1.524 . S
C674 H686 0.956 . S
C674 H687 0.961 . S
C674 H688 0.961 . S
C675 C672 1.539 1_556 S
C675 H689 0.958 . S
C675 H690 0.961 . S
C675 H691 0.960 . S
H676 C660 0.931 . S
H677 C665 0.929 . S
H678 C666 0.960 . S
H679 C666 0.962 . S
H680 C666 0.960 . S
H681 C667 0.956 1_655 S
H682 C667 0.961 . S
H683 C667 0.961 1_655 S
H684 C668 0.931 . S
H685 C673 0.930 1_556 S
H686 C674 0.956 . S
H687 C674 0.961 . S
H688 C674 0.961 . S
H689 C675 0.958 . S
H690 C675 0.961 . S
H691 C675 0.960 . S
C692 C693 1.391 . S
C692 C694 1.394 . S
C692 H708 0.931 . S
C693 C692 1.391 . S
C693 C697 1.376 . S
C694 C692 1.394 . S
C694 C695 1.369 . S
C694 C698 1.531 . S
C695 C694 1.369 . S
C695 C696 1.410 . S
C695 C703 1.503 . S
C696 C695 1.410 . S
C696 C697 1.392 . S
C696 C699 1.511 . S
C697 C693 1.376 . S
C697 C696 1.392 . S
C697 H709 0.929 . S
C698 C694 1.531 . S
C698 H710 0.960 . S
C698 H711 0.962 . S
C698 H712 0.960 . S
C699 C696 1.511 . S
C699 H713 0.961 . S
C699 H714 0.961 . S
C699 H715 0.961 . S
C700 C701 1.370 . S
C700 C702 1.363 . S
C700 H716 0.931 1_556 S
C701 C700 1.370 . S
C701 C705 1.408 . S
C702 C700 1.363 . S
C702 C703 1.370 . S
C702 C706 1.524 . S
C703 C695 1.503 . S
C703 C702 1.370 . S
C703 C704 1.403 . S
C704 C703 1.403 . S
C704 C705 1.404 . S
C704 C707 1.539 . S
C705 C701 1.408 . S
C705 C704 1.404 . S
C705 H717 0.930 . S
C706 C702 1.524 . S
C706 H718 0.956 . S
C706 H719 0.961 . S
C706 H720 0.961 1_556 S
C707 C704 1.539 . S
C707 H721 0.958 . S
C707 H722 0.961 . S
C707 H723 0.960 . S
H708 C692 0.931 . S
H709 C697 0.929 . S
H710 C698 0.960 . S
H711 C698 0.962 . S
H712 C698 0.960 . S
H713 C699 0.961 . S
H714 C699 0.961 . S
H715 C699 0.961 . S
H716 C700 0.931 1_554 S
H717 C705 0.930 . S
H718 C706 0.956 . S
H719 C706 0.961 . S
H720 C706 0.961 1_554 S
H721 C707 0.958 . S
H722 C707 0.961 . S
H723 C707 0.960 . S
C724 C725 1.391 . S
C724 C726 1.394 . S
C724 H740 0.931 . S
C725 C724 1.391 . S
C725 C729 1.376 . S
C726 C724 1.394 . S
C726 C727 1.369 . S
C726 C730 1.531 . S
C727 C726 1.369 . S
C727 C728 1.410 . S
C727 C735 1.503 . S
C728 C727 1.410 . S
C728 C729 1.392 . S
C728 C731 1.511 . S
C729 C725 1.376 . S
C729 C728 1.392 . S
C729 H741 0.929 . S
C730 C726 1.531 . S
C730 H742 0.960 . S
C730 H743 0.962 . S
C730 H744 0.960 . S
C731 C728 1.511 . S
C731 H745 0.961 . S
C731 H746 0.961 . S
C731 H747 0.961 . S
C732 C733 1.370 . S
C732 C734 1.363 . S
C732 H748 0.931 . S
C733 C732 1.370 . S
C733 C737 1.408 . S
C734 C732 1.363 . S
C734 C735 1.370 . S
C734 C738 1.524 . S
C735 C727 1.503 . S
C735 C734 1.370 . S
C735 C736 1.403 . S
C736 C735 1.403 . S
C736 C737 1.404 . S
C736 C739 1.539 1_655 S
C737 C733 1.408 . S
C737 C736 1.404 . S
C737 H749 0.930 1_655 S
C738 C734 1.524 . S
C738 H750 0.956 . S
C738 H751 0.961 . S
C738 H752 0.961 . S
C739 C736 1.539 1_455 S
C739 H753 0.958 . S
C739 H754 0.961 . S
C739 H755 0.960 . S
H740 C724 0.931 . S
H741 C729 0.929 . S
H742 C730 0.960 . S
H743 C730 0.962 . S
H744 C730 0.960 . S
H745 C731 0.961 . S
H746 C731 0.961 . S
H747 C731 0.961 . S
H748 C732 0.931 . S
H749 C737 0.930 1_455 S
H750 C738 0.956 . S
H751 C738 0.961 . S
H752 C738 0.961 . S
H753 C739 0.958 . S
H754 C739 0.961 . S
H755 C739 0.960 . S
C756 C757 1.391 . S
C756 C758 1.394 . S
C756 H772 0.931 . S
C757 C756 1.391 . S
C757 C761 1.376 . S
C758 C756 1.394 . S
C758 C759 1.369 . S
C758 C762 1.531 . S
C759 C758 1.369 . S
C759 C760 1.410 . S
C759 C767 1.503 . S
C760 C759 1.410 . S
C760 C761 1.392 . S
C760 C763 1.511 . S
C761 C757 1.376 . S
C761 C760 1.392 . S
C761 H773 0.929 . S
C762 C758 1.531 . S
C762 H774 0.960 . S
C762 H775 0.962 . S
C762 H776 0.960 . S
C763 C760 1.511 . S
C763 H777 0.961 . S
C763 H778 0.961 . S
C763 H779 0.961 . S
C764 C765 1.370 . S
C764 C766 1.363 . S
C764 H780 0.931 . S
C765 C764 1.370 . S
C765 C769 1.408 . S
C766 C764 1.363 . S
C766 C767 1.370 . S
C766 C770 1.524 . S
C767 C759 1.503 . S
C767 C766 1.370 . S
C767 C768 1.403 . S
C768 C767 1.403 . S
C768 C769 1.404 . S
C768 C771 1.539 . S
C769 C765 1.408 . S
C769 C768 1.404 . S
C769 H781 0.930 . S
C770 C766 1.524 . S
C770 H782 0.956 . S
C770 H783 0.961 . S
C770 H784 0.961 . S
C771 C768 1.539 . S
C771 H785 0.958 . S
C771 H786 0.961 . S
C771 H787 0.960 . S
H772 C756 0.931 . S
H773 C761 0.929 . S
H774 C762 0.960 . S
H775 C762 0.962 . S
H776 C762 0.960 . S
H777 C763 0.961 . S
H778 C763 0.961 . S
H779 C763 0.961 . S
H780 C764 0.931 . S
H781 C769 0.930 . S
H782 C770 0.956 . S
H783 C770 0.961 . S
H784 C770 0.961 . S
H785 C771 0.958 . S
H786 C771 0.961 . S
H787 C771 0.960 . S
C788 C789 1.391 . S
C788 C790 1.394 . S
C788 H804 0.931 . S
C789 C788 1.391 . S
C789 C793 1.376 . S
C790 C788 1.394 . S
C790 C791 1.369 . S
C790 C794 1.531 . S
C791 C790 1.369 . S
C791 C792 1.410 . S
C791 C799 1.503 . S
C792 C791 1.410 . S
C792 C793 1.392 . S
C792 C795 1.511 . S
C793 C789 1.376 . S
C793 C792 1.392 . S
C793 H805 0.929 . S
C794 C790 1.531 . S
C794 H806 0.960 . S
C794 H807 0.962 1_655 S
C794 H808 0.960 . S
C795 C792 1.511 . S
C795 H809 0.961 . S
C795 H810 0.961 . S
C795 H811 0.961 . S
C796 C797 1.370 . S
C796 C798 1.363 . S
C796 H812 0.931 1_565 S
C797 C796 1.370 . S
C797 C801 1.408 . S
C798 C796 1.363 . S
C798 C799 1.370 . S
C798 C802 1.524 1_565 S
C799 C791 1.503 . S
C799 C798 1.370 . S
C799 C800 1.403 . S
C800 C799 1.403 . S
C800 C801 1.404 . S
C800 C803 1.539 . S
C801 C797 1.408 . S
C801 C800 1.404 . S
C801 H813 0.930 . S
C802 C798 1.524 1_545 S
C802 H814 0.956 1_545 S
C802 H815 0.961 . S
C802 H816 0.961 . S
C803 C800 1.539 . S
C803 H817 0.958 . S
C803 H818 0.961 . S
C803 H819 0.960 . S
H804 C788 0.931 . S
H805 C793 0.929 . S
H806 C794 0.960 . S
H807 C794 0.962 1_455 S
H808 C794 0.960 . S
H809 C795 0.961 . S
H810 C795 0.961 . S
H811 C795 0.961 . S
H812 C796 0.931 1_545 S
H813 C801 0.930 . S
H814 C802 0.956 1_565 S
H815 C802 0.961 . S
H816 C802 0.961 . S
H817 C803 0.958 . S
H818 C803 0.961 . S
H819 C803 0.960 . S
C820 C821 1.391 . S
C820 C822 1.394 . S
C820 H836 0.931 . S
C821 C820 1.391 . S
C821 C825 1.376 . S
C822 C820 1.394 . S
C822 C823 1.369 . S
C822 C826 1.531 . S
C823 C822 1.369 . S
C823 C824 1.410 . S
C823 C831 1.503 . S
C824 C823 1.410 . S
C824 C825 1.392 . S
C824 C827 1.511 . S
C825 C821 1.376 . S
C825 C824 1.392 . S
C825 H837 0.929 . S
C826 C822 1.531 . S
C826 H838 0.960 . S
C826 H839 0.962 . S
C826 H840 0.960 . S
C827 C824 1.511 . S
C827 H841 0.961 . S
C827 H842 0.961 . S
C827 H843 0.961 . S
C828 C829 1.370 . S
C828 C830 1.363 . S
C828 H844 0.931 . S
C829 C828 1.370 . S
C829 C833 1.408 . S
C830 C828 1.363 . S
C830 C831 1.370 . S
C830 C834 1.524 . S
C831 C823 1.503 . S
C831 C830 1.370 . S
C831 C832 1.403 . S
C832 C831 1.403 . S
C832 C833 1.404 . S
C832 C835 1.539 1_545 S
C833 C829 1.408 . S
C833 C832 1.404 . S
C833 H845 0.930 1_545 S
C834 C830 1.524 . S
C834 H846 0.956 . S
C834 H847 0.961 . S
C834 H848 0.961 . S
C835 C832 1.539 1_565 S
C835 H849 0.958 . S
C835 H850 0.961 . S
C835 H851 0.960 1_565 S
H836 C820 0.931 . S
H837 C825 0.929 . S
H838 C826 0.960 . S
H839 C826 0.962 . S
H840 C826 0.960 . S
H841 C827 0.961 . S
H842 C827 0.961 . S
H843 C827 0.961 . S
H844 C828 0.931 . S
H845 C833 0.930 1_565 S
H846 C834 0.956 . S
H847 C834 0.961 . S
H848 C834 0.961 . S
H849 C835 0.958 . S
H850 C835 0.961 . S
H851 C835 0.960 1_545 S
C852 C853 1.391 . S
C852 C854 1.394 . S
C852 H868 0.931 . S
C853 C852 1.391 . S
C853 C857 1.376 . S
C854 C852 1.394 . S
C854 C855 1.369 . S
C854 C858 1.531 . S
C855 C854 1.369 . S
C855 C856 1.410 . S
C855 C863 1.503 . S
C856 C855 1.410 . S
C856 C857 1.392 . S
C856 C859 1.511 . S
C857 C853 1.376 . S
C857 C856 1.392 . S
C857 H869 0.929 . S
C858 C854 1.531 . S
C858 H870 0.960 . S
C858 H871 0.962 . S
C858 H872 0.960 . S
C859 C856 1.511 . S
C859 H873 0.961 . S
C859 H874 0.961 . S
C859 H875 0.961 . S
C860 C861 1.370 . S
C860 C862 1.363 . S
C860 H876 0.931 . S
C861 C860 1.370 . S
C861 C865 1.408 . S
C862 C860 1.363 . S
C862 C863 1.370 . S
C862 C866 1.524 . S
C863 C855 1.503 . S
C863 C862 1.370 . S
C863 C864 1.403 . S
C864 C863 1.403 . S
C864 C865 1.404 . S
C864 C867 1.539 . S
C865 C861 1.408 . S
C865 C864 1.404 . S
C865 H877 0.930 . S
C866 C862 1.524 . S
C866 H878 0.956 . S
C866 H879 0.961 . S
C866 H880 0.961 . S
C867 C864 1.539 . S
C867 H881 0.958 . S
C867 H882 0.961 . S
C867 H883 0.960 . S
H868 C852 0.931 . S
H869 C857 0.929 . S
H870 C858 0.960 . S
H871 C858 0.962 . S
H872 C858 0.960 . S
H873 C859 0.961 . S
H874 C859 0.961 . S
H875 C859 0.961 . S
H876 C860 0.931 . S
H877 C865 0.930 . S
H878 C866 0.956 . S
H879 C866 0.961 . S
H880 C866 0.961 . S
H881 C867 0.958 . S
H882 C867 0.961 . S
H883 C867 0.960 . S
C884 C885 1.391 . S
C884 C886 1.394 . S
C884 H900 0.931 . S
C885 C884 1.391 . S
C885 C889 1.376 . S
C886 C884 1.394 . S
C886 C887 1.369 . S
C886 C890 1.531 . S
C887 C886 1.369 . S
C887 C888 1.410 . S
C887 C895 1.503 . S
C888 C887 1.410 . S
C888 C889 1.392 . S
C888 C891 1.511 . S
C889 C885 1.376 . S
C889 C888 1.392 . S
C889 H901 0.929 . S
C890 C886 1.531 . S
C890 H902 0.960 . S
C890 H903 0.962 1_455 S
C890 H904 0.960 1_455 S
C891 C888 1.511 . S
C891 H905 0.961 . S
C891 H906 0.961 . S
C891 H907 0.961 . S
C892 C893 1.370 . S
C892 C894 1.363 . S
C892 H908 0.931 . S
C893 C892 1.370 . S
C893 C897 1.408 . S
C894 C892 1.363 . S
C894 C895 1.370 . S
C894 C898 1.524 . S
C895 C887 1.503 . S
C895 C894 1.370 . S
C895 C896 1.403 . S
C896 C895 1.403 . S
C896 C897 1.404 . S
C896 C899 1.539 . S
C897 C893 1.408 . S
C897 C896 1.404 . S
C897 H909 0.930 . S
C898 C894 1.524 . S
C898 H910 0.956 . S
C898 H911 0.961 . S
C898 H912 0.961 . S
C899 C896 1.539 . S
C899 H913 0.958 . S
C899 H914 0.961 . S
C899 H915 0.960 . S
H900 C884 0.931 . S
H901 C889 0.929 . S
H902 C890 0.960 . S
H903 C890 0.962 1_655 S
H904 C890 0.960 1_655 S
H905 C891 0.961 . S
H906 C891 0.961 . S
H907 C891 0.961 . S
H908 C892 0.931 . S
H909 C897 0.930 . S
H910 C898 0.956 . S
H911 C898 0.961 . S
H912 C898 0.961 . S
H913 C899 0.958 . S
H914 C899 0.961 . S
H915 C899 0.960 . S
C916 C917 1.391 . S
C916 C918 1.394 . S
C916 H932 0.931 . S
C917 C916 1.391 . S
C917 C921 1.376 . S
C918 C916 1.394 . S
C918 C919 1.369 . S
C918 C922 1.531 . S
C919 C918 1.369 . S
C919 C920 1.410 . S
C919 C927 1.503 . S
C920 C919 1.410 . S
C920 C921 1.392 . S
C920 C923 1.511 1_565 S
C921 C917 1.376 . S
C921 C920 1.392 . S
C921 H933 0.929 . S
C922 C918 1.531 . S
C922 H934 0.960 1_556 S
C922 H935 0.962 . S
C922 H936 0.960 1_556 S
C923 C920 1.511 1_545 S
C923 H937 0.962 . S
C923 H938 0.961 1_545 S
C923 H939 0.961 . S
C924 C925 1.370 . S
C924 C926 1.363 . S
C924 H940 0.931 . S
C925 C924 1.370 . S
C925 C929 1.412 . S
C926 C924 1.363 . S
C926 C927 1.370 . S
C926 C930 1.524 . S
C927 C919 1.503 . S
C927 C926 1.370 . S
C927 C928 1.403 . S
C928 C927 1.403 . S
C928 C929 1.406 . S
C928 C931 1.539 1_565 S
C929 C925 1.412 . S
C929 C928 1.406 . S
C929 H941 0.913 1_566 S
C930 C926 1.524 . S
C930 H942 0.956 . S
C930 H943 0.961 . S
C930 H944 0.961 . S
C931 C928 1.539 1_545 S
C931 H945 0.958 1_556 S
C931 H946 0.962 . S
C931 H947 0.960 . S
H932 C916 0.931 . S
H933 C921 0.929 . S
H934 C922 0.960 1_554 S
H935 C922 0.962 . S
H936 C922 0.960 1_554 S
H937 C923 0.962 . S
H938 C923 0.961 1_565 S
H939 C923 0.961 . S
H940 C924 0.931 . S
H941 C929 0.913 1_544 S
H942 C930 0.956 . S
H943 C930 0.961 . S
H944 C930 0.961 . S
H945 C931 0.958 1_554 S
H946 C931 0.962 . S
H947 C931 0.960 . S
C948 C949 1.391 . S
C948 C950 1.394 . S
C948 H964 0.931 . S
C949 C948 1.391 . S
C949 C953 1.376 . S
C950 C948 1.394 . S
C950 C951 1.369 . S
C950 C954 1.531 . S
C951 C950 1.369 . S
C951 C952 1.410 . S
C951 C959 1.503 . S
C952 C951 1.410 . S
C952 C953 1.392 . S
C952 C955 1.511 . S
C953 C949 1.376 . S
C953 C952 1.392 . S
C953 H965 0.929 . S
C954 C950 1.531 . S
C954 H966 0.960 . S
C954 H967 0.962 . S
C954 H968 0.960 . S
C955 C952 1.511 . S
C955 H969 0.961 . S
C955 H970 0.961 . S
C955 H971 0.961 . S
C956 C957 1.370 . S
C956 C958 1.363 . S
C956 H972 0.931 . S
C957 C956 1.370 . S
C957 C961 1.408 . S
C958 C956 1.363 . S
C958 C959 1.370 . S
C958 C962 1.524 . S
C959 C951 1.503 . S
C959 C958 1.370 . S
C959 C960 1.403 . S
C960 C959 1.403 . S
C960 C961 1.404 . S
C960 C963 1.539 . S
C961 C957 1.408 . S
C961 C960 1.404 . S
C961 H973 0.930 . S
C962 C958 1.524 . S
C962 H974 0.956 . S
C962 H975 0.961 . S
C962 H976 0.961 . S
C963 C960 1.539 . S
C963 H977 0.958 . S
C963 H978 0.961 . S
C963 H979 0.960 . S
H964 C948 0.931 . S
H965 C953 0.929 . S
H966 C954 0.960 . S
H967 C954 0.962 . S
H968 C954 0.960 . S
H969 C955 0.961 . S
H970 C955 0.961 . S
H971 C955 0.961 . S
H972 C956 0.931 . S
H973 C961 0.930 . S
H974 C962 0.956 . S
H975 C962 0.961 . S
H976 C962 0.961 . S
H977 C963 0.958 . S
H978 C963 0.961 . S
H979 C963 0.960 . S
C980 C981 1.391 . S
C980 C982 1.394 . S
C980 H996 0.931 . S
C981 C980 1.391 . S
C981 C985 1.376 . S
C982 C980 1.394 . S
C982 C983 1.369 . S
C982 C986 1.531 . S
C983 C982 1.369 . S
C983 C984 1.410 . S
C983 C991 1.503 . S
C984 C983 1.410 . S
C984 C985 1.392 . S
C984 C987 1.511 . S
C985 C981 1.376 . S
C985 C984 1.392 . S
C985 H997 0.929 . S
C986 C982 1.531 . S
C986 H998 0.960 . S
C986 H999 0.962 . S
C986 H1000 0.960 . S
C987 C984 1.511 . S
C987 H1001 0.961 . S
C987 H1002 0.961 . S
C987 H1003 0.961 . S
C988 C989 1.370 . S
C988 C990 1.363 . S
C988 H1004 0.931 . S
C989 C988 1.370 . S
C989 C993 1.408 . S
C990 C988 1.363 . S
C990 C991 1.370 . S
C990 C994 1.524 . S
C991 C983 1.503 . S
C991 C990 1.370 . S
C991 C992 1.403 . S
C992 C991 1.403 . S
C992 C993 1.404 . S
C992 C995 1.539 . S
C993 C989 1.408 . S
C993 C992 1.404 . S
C993 H1005 0.930 . S
C994 C990 1.524 . S
C994 H1006 0.956 . S
C994 H1007 0.961 . S
C994 H1008 0.961 . S
C995 C992 1.539 . S
C995 H1009 0.958 . S
C995 H1010 0.961 . S
C995 H1011 0.960 . S
H996 C980 0.931 . S
H997 C985 0.929 . S
H998 C986 0.960 . S
H999 C986 0.962 . S
H1000 C986 0.960 . S
H1001 C987 0.961 . S
H1002 C987 0.961 . S
H1003 C987 0.961 . S
H1004 C988 0.931 . S
H1005 C993 0.930 . S
H1006 C994 0.956 . S
H1007 C994 0.961 . S
H1008 C994 0.961 . S
H1009 C995 0.958 . S
H1010 C995 0.961 . S
H1011 C995 0.960 . S
C1012 C1013 1.391 . S
C1012 C1014 1.394 . S
C1012 H1028 0.931 . S
C1013 C1012 1.391 . S
C1013 C1017 1.376 . S
C1014 C1012 1.394 . S
C1014 C1015 1.369 . S
C1014 C1018 1.531 . S
C1015 C1014 1.369 . S
C1015 C1016 1.410 . S
C1015 C1023 1.503 . S
C1016 C1015 1.410 . S
C1016 C1017 1.392 . S
C1016 C1019 1.511 . S
C1017 C1013 1.376 . S
C1017 C1016 1.392 . S
C1017 H1029 0.929 . S
C1018 C1014 1.531 . S
C1018 H1030 0.960 . S
C1018 H1031 0.962 . S
C1018 H1032 0.960 . S
C1019 C1016 1.511 . S
C1019 H1033 0.961 . S
C1019 H1034 0.961 . S
C1019 H1035 0.961 . S
C1020 C1021 1.370 . S
C1020 C1022 1.363 . S
C1020 H1036 0.931 . S
C1021 C1020 1.370 . S
C1021 C1025 1.408 . S
C1022 C1020 1.363 . S
C1022 C1023 1.370 . S
C1022 C1026 1.524 . S
C1023 C1015 1.503 . S
C1023 C1022 1.370 . S
C1023 C1024 1.403 . S
C1024 C1023 1.403 . S
C1024 C1025 1.404 . S
C1024 C1027 1.539 . S
C1025 C1021 1.408 . S
C1025 C1024 1.404 . S
C1025 H1037 0.930 . S
C1026 C1022 1.524 . S
C1026 H1038 0.956 . S
C1026 H1039 0.961 . S
C1026 H1040 0.961 . S
C1027 C1024 1.539 . S
C1027 H1041 0.958 . S
C1027 H1042 0.961 . S
C1027 H1043 0.960 . S
H1028 C1012 0.931 . S
H1029 C1017 0.929 . S
H1030 C1018 0.960 . S
H1031 C1018 0.962 . S
H1032 C1018 0.960 . S
H1033 C1019 0.961 . S
H1034 C1019 0.961 . S
H1035 C1019 0.961 . S
H1036 C1020 0.931 . S
H1037 C1025 0.930 . S
H1038 C1026 0.956 . S
H1039 C1026 0.961 . S
H1040 C1026 0.961 . S
H1041 C1027 0.958 . S
H1042 C1027 0.961 . S
H1043 C1027 0.960 . S
C1044 C1045 1.391 . S
C1044 C1046 1.394 . S
C1044 H1060 0.931 . S
C1045 C1044 1.391 . S
C1045 C1049 1.376 . S
C1046 C1044 1.394 . S
C1046 C1047 1.369 . S
C1046 C1050 1.531 . S
C1047 C1046 1.369 . S
C1047 C1048 1.410 . S
C1047 C1055 1.503 . S
C1048 C1047 1.410 . S
C1048 C1049 1.392 . S
C1048 C1051 1.511 . S
C1049 C1045 1.376 . S
C1049 C1048 1.392 . S
C1049 H1061 0.929 . S
C1050 C1046 1.531 . S
C1050 H1062 0.960 . S
C1050 H1063 0.962 1_655 S
C1050 H1064 0.960 1_655 S
C1051 C1048 1.511 . S
C1051 H1065 0.961 . S
C1051 H1066 0.961 . S
C1051 H1067 0.961 . S
C1052 C1053 1.370 . S
C1052 C1054 1.363 . S
C1052 H1068 0.931 . S
C1053 C1052 1.370 . S
C1053 C1057 1.408 1_556 S
C1054 C1052 1.363 . S
C1054 C1055 1.370 . S
C1054 C1058 1.524 . S
C1055 C1047 1.503 . S
C1055 C1054 1.370 . S
C1055 C1056 1.403 . S
C1056 C1055 1.403 . S
C1056 C1057 1.404 1_556 S
C1056 C1059 1.539 1_556 S
C1057 C1053 1.408 1_554 S
C1057 C1056 1.404 1_554 S
C1057 H1069 0.930 . S
C1058 C1054 1.524 . S
C1058 H1070 0.956 . S
C1058 H1071 0.961 . S
C1058 H1072 0.961 . S
C1059 C1056 1.539 1_554 S
C1059 H1073 0.958 . S
C1059 H1074 0.961 . S
C1059 H1075 0.960 . S
H1060 C1044 0.931 . S
H1061 C1049 0.929 . S
H1062 C1050 0.960 . S
H1063 C1050 0.962 1_455 S
H1064 C1050 0.960 1_455 S
H1065 C1051 0.961 . S
H1066 C1051 0.961 . S
H1067 C1051 0.961 . S
H1068 C1052 0.931 . S
H1069 C1057 0.930 . S
H1070 C1058 0.956 . S
H1071 C1058 0.961 . S
H1072 C1058 0.961 . S
H1073 C1059 0.958 . S
H1074 C1059 0.961 . S
H1075 C1059 0.960 . S
C1076 C1077 1.391 . S
C1076 C1078 1.394 . S
C1076 H1092 0.931 . S
C1077 C1076 1.391 . S
C1077 C1081 1.376 . S
C1078 C1076 1.394 . S
C1078 C1079 1.369 . S
C1078 C1082 1.531 . S
C1079 C1078 1.369 . S
C1079 C1080 1.410 . S
C1079 C1087 1.503 . S
C1080 C1079 1.410 . S
C1080 C1081 1.392 . S
C1080 C1083 1.511 . S
C1081 C1077 1.376 . S
C1081 C1080 1.392 . S
C1081 H1093 0.929 . S
C1082 C1078 1.531 . S
C1082 H1094 0.960 . S
C1082 H1095 0.962 . S
C1082 H1096 0.960 . S
C1083 C1080 1.511 . S
C1083 H1097 0.961 . S
C1083 H1098 0.961 . S
C1083 H1099 0.961 . S
C1084 C1085 1.370 . S
C1084 C1086 1.363 . S
C1084 H1100 0.931 . S
C1085 C1084 1.370 . S
C1085 C1089 1.408 . S
C1086 C1084 1.363 . S
C1086 C1087 1.370 . S
C1086 C1090 1.524 . S
C1087 C1079 1.503 . S
C1087 C1086 1.370 . S
C1087 C1088 1.403 . S
C1088 C1087 1.403 . S
C1088 C1089 1.404 . S
C1088 C1091 1.539 . S
C1089 C1085 1.408 . S
C1089 C1088 1.404 . S
C1089 H1101 0.930 . S
C1090 C1086 1.524 . S
C1090 H1102 0.956 . S
C1090 H1103 0.961 . S
C1090 H1104 0.961 . S
C1091 C1088 1.539 . S
C1091 H1105 0.958 . S
C1091 H1106 0.961 . S
C1091 H1107 0.960 . S
H1092 C1076 0.931 . S
H1093 C1081 0.929 . S
H1094 C1082 0.960 . S
H1095 C1082 0.962 . S
H1096 C1082 0.960 . S
H1097 C1083 0.961 . S
H1098 C1083 0.961 . S
H1099 C1083 0.961 . S
H1100 C1084 0.931 . S
H1101 C1089 0.930 . S
H1102 C1090 0.956 . S
H1103 C1090 0.961 . S
H1104 C1090 0.961 . S
H1105 C1091 0.958 . S
H1106 C1091 0.961 . S
H1107 C1091 0.960 . S
C1108 C1109 1.391 . S
C1108 C1110 1.394 . S
C1108 H1124 0.931 . S
C1109 C1108 1.391 . S
C1109 C1113 1.376 . S
C1110 C1108 1.394 . S
C1110 C1111 1.369 . S
C1110 C1114 1.531 1_455 S
C1111 C1110 1.369 . S
C1111 C1112 1.410 . S
C1111 C1119 1.503 . S
C1112 C1111 1.410 . S
C1112 C1113 1.392 . S
C1112 C1115 1.511 . S
C1113 C1109 1.376 . S
C1113 C1112 1.392 . S
C1113 H1125 0.929 . S
C1114 C1110 1.531 1_655 S
C1114 H1126 0.960 . S
C1114 H1127 0.962 . S
C1114 H1128 0.960 . S
C1115 C1112 1.511 . S
C1115 H1129 0.961 . S
C1115 H1130 0.961 . S
C1115 H1131 0.961 . S
C1116 C1117 1.370 . S
C1116 C1118 1.363 . S
C1116 H1132 0.931 . S
C1117 C1116 1.370 . S
C1117 C1121 1.408 . S
C1118 C1116 1.363 . S
C1118 C1119 1.370 . S
C1118 C1122 1.524 . S
C1119 C1111 1.503 . S
C1119 C1118 1.370 . S
C1119 C1120 1.403 . S
C1120 C1119 1.403 . S
C1120 C1121 1.404 . S
C1120 C1123 1.539 . S
C1121 C1117 1.408 . S
C1121 C1120 1.404 . S
C1121 H1133 0.930 . S
C1122 C1118 1.524 . S
C1122 H1134 0.956 . S
C1122 H1135 0.961 . S
C1122 H1136 0.961 . S
C1123 C1120 1.539 . S
C1123 H1137 0.958 . S
C1123 H1138 0.961 . S
C1123 H1139 0.960 . S
H1124 C1108 0.931 . S
H1125 C1113 0.929 . S
H1126 C1114 0.960 . S
H1127 C1114 0.962 . S
H1128 C1114 0.960 . S
H1129 C1115 0.961 . S
H1130 C1115 0.961 . S
H1131 C1115 0.961 . S
H1132 C1116 0.931 . S
H1133 C1121 0.930 . S
H1134 C1122 0.956 . S
H1135 C1122 0.961 . S
H1136 C1122 0.961 . S
H1137 C1123 0.958 . S
H1138 C1123 0.961 . S
H1139 C1123 0.960 . S
C1140 C1141 1.391 . S
C1140 C1142 1.394 . S
C1140 H1156 0.931 . S
C1141 C1140 1.391 . S
C1141 C1145 1.376 . S
C1142 C1140 1.394 . S
C1142 C1143 1.369 . S
C1142 C1146 1.531 . S
C1143 C1142 1.369 . S
C1143 C1144 1.410 . S
C1143 C1151 1.503 . S
C1144 C1143 1.410 . S
C1144 C1145 1.392 . S
C1144 C1147 1.511 . S
C1145 C1141 1.376 . S
C1145 C1144 1.392 . S
C1145 H1157 0.929 . S
C1146 C1142 1.531 . S
C1146 H1158 0.960 . S
C1146 H1159 0.962 . S
C1146 H1160 0.960 . S
C1147 C1144 1.511 . S
C1147 H1161 0.961 . S
C1147 H1162 0.961 . S
C1147 H1163 0.961 . S
C1148 C1149 1.370 . S
C1148 C1150 1.363 . S
C1148 H1164 0.931 . S
C1149 C1148 1.370 . S
C1149 C1153 1.408 . S
C1150 C1148 1.363 . S
C1150 C1151 1.370 . S
C1150 C1154 1.524 . S
C1151 C1143 1.503 . S
C1151 C1150 1.370 . S
C1151 C1152 1.403 . S
C1152 C1151 1.403 . S
C1152 C1153 1.404 . S
C1152 C1155 1.539 . S
C1153 C1149 1.408 . S
C1153 C1152 1.404 . S
C1153 H1165 0.930 . S
C1154 C1150 1.524 . S
C1154 H1166 0.956 . S
C1154 H1167 0.961 . S
C1154 H1168 0.961 . S
C1155 C1152 1.539 . S
C1155 H1169 0.958 . S
C1155 H1170 0.961 . S
C1155 H1171 0.960 . S
H1156 C1140 0.931 . S
H1157 C1145 0.929 . S
H1158 C1146 0.960 . S
H1159 C1146 0.962 . S
H1160 C1146 0.960 . S
H1161 C1147 0.961 . S
H1162 C1147 0.961 . S
H1163 C1147 0.961 . S
H1164 C1148 0.931 . S
H1165 C1153 0.930 . S
H1166 C1154 0.956 . S
H1167 C1154 0.961 . S
H1168 C1154 0.961 . S
H1169 C1155 0.958 . S
H1170 C1155 0.961 . S
H1171 C1155 0.960 . S
C405 C21 1.665 . S
C413 C336 1.613 . S
C437 C61 1.485 . S
C445 C358 1.484 . S
C477 C377 1.146 . S
C469 C82 1.404 . S
C501 C135 1.893 . S
C509 C398 1.544 . S
C541 C355 1.809 . S
C533 C15 1.842 . S
C573 C333 1.725 . S
C565 C42 1.751 . S
C605 C400 1.310 . S
C597 C101 1.369 . S
C637 C379 1.471 . S
C629 C122 1.519 . S
C661 C2 1.814 . S
C669 C397 1.775 . S
C701 C356 1.305 . S
C693 C95 1.567 . S
C725 C141 1.770 . S
C733 C338 1.606 . S
C757 C55 1.522 . S
C765 C376 1.523 . S
C797 C334 1.636 . S
C789 C181 1.630 . S
C821 C202 1.331 . S
C829 C354 1.313 . S
C853 C255 1.490 . S
C861 C380 1.226 . S
C885 C295 1.754 . S
C893 C401 1.452 . S
C917 C175 1.781 . S
C925 C357 1.758 . S
C957 C337 1.816 . S
C949 C221 1.830 . S
C989 C396 1.122 . S
C981 C242 1.158 . S
C1021 C375 1.606 . S
C1013 C301 1.646 . S
C1045 C162 1.542 . S
C1053 C399 1.553 . S
C1085 C359 1.273 . S
C1077 C261 1.439 . S
C1117 C335 1.405 . S
C1109 C282 1.549 . S
C1141 C215 1.498 . S
C1149 C378 1.504 . S
