# Generated by pormake.
# Topology ctn, (3,4)-cn, num edge types: 1
# Building blocks:
#     Node 0, Type 0, BuildingBlock: WUSLED_clean_sbu_0, # of connection points: 3
#     Node 1, Type 0, BuildingBlock: WUSLED_clean_sbu_0, # of connection points: 3
#     Node 2, Type 0, BuildingBlock: WUSLED_clean_sbu_0, # of connection points: 3
#     Node 3, Type 0, BuildingBlock: WUSLED_clean_sbu_0, # of connection points: 3
#     Node 4, Type 0, BuildingBlock: WUSLED_clean_sbu_0, # of connection points: 3
#     Node 5, Type 0, BuildingBlock: WUSLED_clean_sbu_0, # of connection points: 3
#     Node 6, Type 0, BuildingBlock: WUSLED_clean_sbu_0, # of connection points: 3
#     Node 7, Type 0, BuildingBlock: WUSLED_clean_sbu_0, # of connection points: 3
#     Node 8, Type 0, BuildingBlock: WUSLED_clean_sbu_0, # of connection points: 3
#     Node 9, Type 0, BuildingBlock: WUSLED_clean_sbu_0, # of connection points: 3
#     Node 10, Type 0, BuildingBlock: WUSLED_clean_sbu_0, # of connection points: 3
#     Node 11, Type 0, BuildingBlock: WUSLED_clean_sbu_0, # of connection points: 3
#     Node 12, Type 0, BuildingBlock: WUSLED_clean_sbu_0, # of connection points: 3
#     Node 13, Type 0, BuildingBlock: WUSLED_clean_sbu_0, # of connection points: 3
#     Node 14, Type 0, BuildingBlock: WUSLED_clean_sbu_0, # of connection points: 3
#     Node 15, Type 0, BuildingBlock: WUSLED_clean_sbu_0, # of connection points: 3
#     Node 16, Type 1, BuildingBlock: UXUYUI_clean_sbu_0, # of connection points: 4
#     Node 17, Type 1, BuildingBlock: UXUYUI_clean_sbu_0, # of connection points: 4
#     Node 18, Type 1, BuildingBlock: UXUYUI_clean_sbu_0, # of connection points: 4
#     Node 19, Type 1, BuildingBlock: UXUYUI_clean_sbu_0, # of connection points: 4
#     Node 20, Type 1, BuildingBlock: UXUYUI_clean_sbu_0, # of connection points: 4
#     Node 21, Type 1, BuildingBlock: UXUYUI_clean_sbu_0, # of connection points: 4
#     Node 22, Type 1, BuildingBlock: UXUYUI_clean_sbu_0, # of connection points: 4
#     Node 23, Type 1, BuildingBlock: UXUYUI_clean_sbu_0, # of connection points: 4
#     Node 24, Type 1, BuildingBlock: UXUYUI_clean_sbu_0, # of connection points: 4
#     Node 25, Type 1, BuildingBlock: UXUYUI_clean_sbu_0, # of connection points: 4
#     Node 26, Type 1, BuildingBlock: UXUYUI_clean_sbu_0, # of connection points: 4
#     Node 27, Type 1, BuildingBlock: UXUYUI_clean_sbu_0, # of connection points: 4
#     Edge 28, Type (0, 1), None
#     Edge 29, Type (0, 1), None
#     Edge 30, Type (0, 1), None
#     Edge 31, Type (0, 1), None
#     Edge 32, Type (0, 1), None
#     Edge 33, Type (0, 1), None
#     Edge 34, Type (0, 1), None
#     Edge 35, Type (0, 1), None
#     Edge 36, Type (0, 1), None
#     Edge 37, Type (0, 1), None
#     Edge 38, Type (0, 1), None
#     Edge 39, Type (0, 1), None
#     Edge 40, Type (0, 1), None
#     Edge 41, Type (0, 1), None
#     Edge 42, Type (0, 1), None
#     Edge 43, Type (0, 1), None
#     Edge 44, Type (0, 1), None
#     Edge 45, Type (0, 1), None
#     Edge 46, Type (0, 1), None
#     Edge 47, Type (0, 1), None
#     Edge 48, Type (0, 1), None
#     Edge 49, Type (0, 1), None
#     Edge 50, Type (0, 1), None
#     Edge 51, Type (0, 1), None
#     Edge 52, Type (0, 1), None
#     Edge 53, Type (0, 1), None
#     Edge 54, Type (0, 1), None
#     Edge 55, Type (0, 1), None
#     Edge 56, Type (0, 1), None
#     Edge 57, Type (0, 1), None
#     Edge 58, Type (0, 1), None
#     Edge 59, Type (0, 1), None
#     Edge 60, Type (0, 1), None
#     Edge 61, Type (0, 1), None
#     Edge 62, Type (0, 1), None
#     Edge 63, Type (0, 1), None
#     Edge 64, Type (0, 1), None
#     Edge 65, Type (0, 1), None
#     Edge 66, Type (0, 1), None
#     Edge 67, Type (0, 1), None
#     Edge 68, Type (0, 1), None
#     Edge 69, Type (0, 1), None
#     Edge 70, Type (0, 1), None
#     Edge 71, Type (0, 1), None
#     Edge 72, Type (0, 1), None
#     Edge 73, Type (0, 1), None
#     Edge 74, Type (0, 1), None
#     Edge 75, Type (0, 1), None
# Relax obj value: 0.001
# Max RMSD: 0.015
# Mean RMSD: 0.010
data_MOF--net-ctn--node1-WUSLED_clean_sbu_0--node2-UXUYUI_clean_sbu_0--edge1-none
_symmetry_space_group_name_H-M    P1
_symmetry_Int_Tables_number       1
_symmetry_cell_setting            triclinic
loop_
_symmetry_equiv_pos_as_xyz
'x, y, z'
_cell_length_a     52.924604
_cell_length_b     53.281607
_cell_length_c     53.14223
_cell_angle_alpha  90.584598
_cell_angle_beta   90.040977
_cell_angle_gamma 89.965405
loop_
_atom_site_label
_atom_site_type_symbol
_atom_site_fract_x
_atom_site_fract_y
_atom_site_fract_z
_atom_type_partial_charge
C0 C 1.00852 0.06302 0.11184 0.0
C1 C 0.02074 0.05972 0.13509 0.0
C2 C 0.9806 0.04922 0.15518 0.0
C3 C 1.00693 0.05294 0.15652 0.0
C4 C 0.96856 0.0521 0.13176 0.0
C5 C 0.98234 0.05897 0.11042 0.0
U6 U 0.06164 0.06107 0.06127 0.0
O7 O 0.05853 0.06801 1.0205 0.0
O8 O 0.08233 0.09237 0.04412 0.0
C9 C 0.07255 0.08835 0.02167 0.0
C10 C 0.02206 0.0722 0.08925 0.0
C11 C 0.0632 0.11052 1.00771 0.0
C12 C 0.05197 0.15487 1.00545 0.0
C13 C 0.05867 0.13378 1.01962 0.0
C14 C 0.05364 0.12971 0.96734 0.0
C15 C 0.04959 0.15318 0.97906 0.0
C16 C 0.06041 0.10871 0.98148 0.0
C17 C 0.11266 1.00831 0.06339 0.0
C18 C 0.15805 1.00546 0.05567 0.0
C19 C 0.13197 0.96843 0.05114 0.0
C20 C 0.11061 0.98259 0.05768 0.0
C21 C 0.15605 0.97959 0.05031 0.0
C22 C 0.13662 1.01967 0.06211 0.0
C23 C 0.08998 0.02211 0.07255 0.0
O24 O 0.04452 0.08222 0.09272 0.0
O25 O 0.02079 0.05794 0.06896 0.0
O26 O 0.06956 1.02046 0.05853 0.0
O27 O 0.09344 0.04468 0.08221 0.0
H28 H 0.04092 0.06266 0.13685 0.0
H29 H 1.0169 0.05058 0.17413 0.0
H30 H 0.94831 0.04973 0.13002 0.0
H31 H 0.97239 0.0616 0.09282 0.0
H32 H 0.04867 0.17252 1.01519 0.0
H33 H 0.06063 0.13581 0.03983 0.0
H34 H 0.05233 0.12769 0.94708 0.0
H35 H 0.06401 0.09108 0.9718 0.0
H36 H 0.17621 1.01478 0.05491 0.0
H37 H 0.12968 0.94853 0.0475 0.0
H38 H 0.09247 0.97325 0.05881 0.0
H39 H 0.13893 0.03944 0.06645 0.0
C40 C 0.28551 0.76843 0.17653 0.0
C41 C 0.30802 0.77894 0.1674 0.0
C42 C 0.28419 0.80422 0.13736 0.0
C43 C 0.30736 0.79668 0.14802 0.0
C44 C 0.26173 0.794 0.14707 0.0
C45 C 0.26242 0.77633 0.16635 0.0
U46 U 0.31119 0.73396 0.23543 0.0
O47 O 0.28948 0.71758 0.26667 0.0
O48 O 0.31289 0.69336 0.24251 0.0
C49 C 0.29635 0.69451 0.26094 0.0
C50 C 0.28534 0.74857 0.19582 0.0
C51 C 0.27613 0.6753 0.26092 0.0
C52 C 0.24792 0.64592 0.23941 0.0
C53 C 0.26584 0.66535 0.23856 0.0
C54 C 0.24995 0.6466 0.2849 0.0
C55 C 0.23999 0.63604 0.26262 0.0
C56 C 0.26779 0.66593 0.28403 0.0
C57 C 0.37102 0.75895 0.26996 0.0
C58 C 0.39988 0.73709 0.29807 0.0
C59 C 0.40087 0.78242 0.29592 0.0
C60 C 0.38134 0.78184 0.27816 0.0
C61 C 0.41068 0.76007 0.30592 0.0
C62 C 0.38025 0.73653 0.28025 0.0
C63 C 0.35147 0.75921 0.25001 0.0
O64 O 0.30361 0.73185 0.19472 0.0
O65 O 0.27994 0.75576 0.21892 0.0
O66 O 0.32843 0.76504 0.25717 0.0
O67 O 0.35213 0.74085 0.23328 0.0
H68 H 0.3261 0.77317 0.17497 0.0
H69 H 0.32505 0.80398 0.14095 0.0
H70 H 0.24351 0.79965 0.13976 0.0
H71 H 0.24481 0.76856 0.17316 0.0
H72 H 0.24083 0.63819 0.22186 0.0
H73 H 0.27194 0.67228 0.22046 0.0
H74 H 0.24399 0.63988 0.30312 0.0
H75 H 0.27539 0.67337 0.30152 0.0
H76 H 0.40701 0.71949 0.3052 0.0
H77 H 0.40828 0.80049 0.30182 0.0
H78 H 0.37446 0.79937 0.27058 0.0
H79 H 0.37257 0.71861 0.27425 0.0
C80 C 0.9839 0.43296 1.00844 0.0
C81 C 0.98515 0.40948 1.02027 0.0
C82 C 0.99753 0.38915 0.9807 0.0
C83 C 0.99186 0.38784 1.00655 0.0
C84 C 0.99671 0.41276 0.96907 0.0
C85 C 0.98991 0.43433 0.98275 0.0
U86 U 0.98582 0.4845 0.06086 0.0
O87 O 0.97868 0.52514 0.05735 0.0
O88 O 0.95429 0.50226 0.08134 0.0
C89 C 0.95822 0.5244 0.07133 0.0
C90 C 0.97465 0.45586 0.02174 0.0
C91 C 0.93582 0.53817 0.06181 0.0
C92 C 0.89124 0.54021 0.05023 0.0
C93 C 0.91257 0.5262 0.05716 0.0
C94 C 0.91613 0.57826 0.05187 0.0
C95 C 0.89267 0.56648 0.04772 0.0
C96 C 0.93737 0.56428 0.05888 0.0
C97 C 0.03887 0.48304 0.11172 0.0
C98 C 0.04124 0.49254 0.15669 0.0
C99 C 0.07903 0.49452 0.13122 0.0
C100 C 0.06492 0.48767 0.10992 0.0
C101 C 0.06746 0.49677 0.15497 0.0
C102 C 0.0271 0.48578 0.13532 0.0
C103 C 0.02508 0.47354 0.08919 0.0
O104 O 0.96456 0.45298 0.04414 0.0
O105 O 0.98895 0.47596 1.02026 0.0
O106 O 0.02669 0.48711 0.06873 0.0
O107 O 1.00239 0.46412 0.0927 0.0
H108 H 0.98061 0.40772 0.04004 0.0
H109 H 0.99259 0.37006 1.01621 0.0
H110 H 1.00061 0.4145 0.94916 0.0
H111 H 0.98883 0.45209 0.97306 0.0
H112 H 0.87361 0.53044 0.04687 0.0
H113 H 0.91075 0.50608 0.0592 0.0
H114 H 0.91795 0.59844 0.05045 0.0
H115 H 0.95499 0.574 0.06255 0.0
H116 H 0.03162 0.4944 0.17459 0.0
H117 H 0.09919 0.49729 0.12917 0.0
H118 H 0.07455 0.48543 0.09205 0.0
H119 H 1.00705 0.48233 0.13741 0.0
C120 C 0.72939 0.75807 0.18285 0.0
C121 C 0.75494 0.7534 0.17725 0.0
C122 C 0.74289 0.7287 0.14006 0.0
C123 C 0.76161 0.73887 0.15606 0.0
C124 C 0.71739 0.73396 0.14555 0.0
C125 C 0.71077 0.74839 0.16667 0.0
U126 U 0.73395 0.81142 0.23319 0.0
O127 O 0.70289 0.83319 0.25046 0.0
O128 O 0.72703 0.80952 0.27399 0.0
C129 C 0.70691 0.82397 0.27295 0.0
C130 C 0.72136 0.77187 0.20585 0.0
C131 C 0.68426 0.8157 0.28699 0.0
C132 C 0.6579 0.78331 0.3057 0.0
C133 C 0.6788 0.79024 0.29102 0.0
C134 C 0.64743 0.82713 0.31204 0.0
C135 C 0.64207 0.8017 0.31665 0.0
C136 C 0.66826 0.834 0.29746 0.0
C137 C 0.78667 0.862 0.22823 0.0
C138 C 0.80568 0.889 0.2604 0.0
C139 C 0.81065 0.89903 0.21638 0.0
C140 C 0.79631 0.87793 0.20973 0.0
C141 C 0.81585 0.90474 0.24179 0.0
C142 C 0.79125 0.86783 0.25369 0.0
C143 C 0.77297 0.83903 0.22017 0.0
O144 O 0.73638 0.7708 0.22554 0.0
O145 O 0.71159 0.79427 0.20248 0.0
O146 O 0.75013 0.84231 0.21107 0.0
O147 O 0.77476 0.81932 0.23477 0.0
H148 H 0.76971 0.76066 0.18941 0.0
H149 H 0.78142 0.73513 0.15257 0.0
H150 H 0.70244 0.72696 0.13346 0.0
H151 H 0.69095 0.75178 0.17055 0.0
H152 H 0.65451 0.76357 0.30892 0.0
H153 H 0.69084 0.77572 0.28313 0.0
H154 H 0.63545 0.84184 0.31964 0.0
H155 H 0.67203 0.85374 0.29455 0.0
H156 H 0.80939 0.89266 0.28014 0.0
H157 H 0.81764 0.91091 0.20151 0.0
H158 H 0.79296 0.87388 0.18998 0.0
H159 H 0.78401 0.85586 0.26837 0.0
C160 C 1.00865 0.97905 0.43474 0.0
C161 C 0.02091 0.98261 0.41156 0.0
C162 C 0.9807 0.99285 0.39138 0.0
C163 C 1.00707 0.98939 0.39013 0.0
C164 C 0.96863 0.98971 0.41473 0.0
C165 C 0.98243 0.98284 0.43608 0.0
U166 U 0.06181 0.98108 0.48535 0.0
O167 O 0.05872 0.97417 0.52612 0.0
O168 O 0.08254 0.94978 0.50255 0.0
C169 C 0.07275 0.95382 0.52497 0.0
C170 C 0.02223 0.9699 0.45734 0.0
C171 C 0.06339 0.93166 0.5389 0.0
C172 C 0.05206 0.88734 0.54111 0.0
C173 C 0.0588 0.90842 0.52696 0.0
C174 C 0.05378 0.91245 0.57924 0.0
C175 C 0.04967 0.88901 0.56749 0.0
C176 C 0.0606 0.93344 0.56513 0.0
C177 C 0.11272 0.0339 0.48319 0.0
C178 C 0.15806 0.03675 0.49119 0.0
C179 C 0.13198 0.07388 0.4951 0.0
C180 C 0.11065 0.05968 0.48859 0.0
C181 C 0.15605 0.06269 0.49623 0.0
C182 C 0.13666 0.02251 0.48477 0.0
C183 C 0.09007 1.02004 0.47405 0.0
O184 O 0.04471 0.95989 0.45389 0.0
O185 O 0.02095 0.98417 0.47763 0.0
O186 O 0.06965 0.02169 0.48805 0.0
O187 O 0.09358 0.99746 0.46444 0.0
H188 H 0.04111 0.97987 0.40988 0.0
H189 H 1.01706 0.99196 0.37257 0.0
H190 H 0.94836 0.99187 0.41641 0.0
H191 H 0.97247 0.98001 0.45363 0.0
H192 H 0.04872 0.86971 0.53134 0.0
H193 H 0.06076 0.90641 0.50676 0.0
H194 H 0.05247 0.91446 0.5995 0.0
H195 H 0.06424 0.95106 0.57484 0.0
H196 H 0.17621 0.02742 0.49218 0.0
H197 H 0.12969 0.09382 0.49849 0.0
H198 H 0.09252 0.06903 0.48722 0.0
H199 H 0.13897 1.00269 0.48068 0.0
C200 C 0.22942 0.78422 0.86366 0.0
C201 C 0.25497 0.78866 0.86942 0.0
C202 C 0.24293 0.81363 0.90643 0.0
C203 C 0.26165 0.80321 0.8906 0.0
C204 C 0.21742 0.80859 0.90078 0.0
C205 C 0.21079 0.79414 0.87966 0.0
U206 U 0.23403 0.73082 0.81336 0.0
O207 O 0.20298 0.70904 0.7961 0.0
O208 O 0.22707 0.7327 0.77257 0.0
C209 C 0.20696 0.71825 0.7736 0.0
C210 C 0.2214 0.77039 0.84067 0.0
C211 C 0.1843 0.72651 0.75956 0.0
C212 C 0.15788 0.7589 0.74084 0.0
C213 C 0.1788 0.75198 0.75552 0.0
C214 C 0.14744 0.71508 0.73451 0.0
C215 C 0.14205 0.74051 0.72989 0.0
C216 C 0.16829 0.70822 0.7491 0.0
C217 C 0.28678 0.68024 0.81832 0.0
C218 C 0.30585 0.6533 0.78613 0.0
C219 C 0.31068 0.6431 0.83014 0.0
C220 C 0.29635 0.66421 0.8368 0.0
C221 C 0.31594 0.63747 0.80473 0.0
C222 C 0.29143 0.67448 0.79285 0.0
C223 C 0.27309 0.70321 0.8264 0.0
O224 O 0.23641 0.77145 0.82099 0.0
O225 O 0.21167 0.74799 0.84406 0.0
O226 O 0.25027 0.69994 0.83551 0.0
O227 O 0.27485 0.72293 0.81181 0.0
H228 H 0.26975 0.78121 0.85739 0.0
H229 H 0.28147 0.80677 0.89421 0.0
H230 H 0.20246 0.81578 0.91274 0.0
H231 H 0.19097 0.79092 0.87566 0.0
H232 H 0.15446 0.77864 0.7376 0.0
H233 H 0.19083 0.7665 0.7634 0.0
H234 H 0.13546 0.70037 0.72692 0.0
H235 H 0.17209 0.68847 0.75202 0.0
H236 H 0.30961 0.64971 0.7664 0.0
H237 H 0.31761 0.63114 0.84498 0.0
H238 H 0.29295 0.6682 0.85655 0.0
H239 H 0.28425 0.68653 0.77819 0.0
C240 C 0.98375 0.60927 0.538 0.0
C241 C 0.98501 0.63274 0.52615 0.0
C242 C 0.99737 0.65308 0.56574 0.0
C243 C 0.9917 0.65438 0.53987 0.0
C244 C 0.99654 0.62948 0.57738 0.0
C245 C 0.98975 0.60791 0.5637 0.0
U246 U 0.98571 0.55772 0.48558 0.0
O247 O 0.97862 0.51708 0.48909 0.0
O248 O 0.95419 0.53996 0.46508 0.0
C249 C 0.95814 0.51783 0.4751 0.0
C250 C 0.97452 0.58637 0.52469 0.0
C251 C 0.93576 0.50407 0.48463 0.0
C252 C 0.89119 0.50205 0.49615 0.0
C253 C 0.9125 0.51605 0.48922 0.0
C254 C 0.91613 0.46401 0.49464 0.0
C255 C 0.89266 0.47579 0.49873 0.0
C256 C 0.93735 0.47797 0.48762 0.0
C257 C 0.03876 0.55921 0.43478 0.0
C258 C 0.04118 0.54979 0.3898 0.0
C259 C 0.07894 0.54774 0.41536 0.0
C260 C 0.06482 0.55456 0.43663 0.0
C261 C 0.0674 0.54554 0.39157 0.0
C262 C 0.02701 0.55652 0.41115 0.0
C263 C 0.02495 0.56869 0.45729 0.0
O264 O 0.96442 0.58925 0.50227 0.0
O265 O 0.98884 0.56627 0.52618 0.0
O266 O 0.02658 0.55512 0.47775 0.0
O267 O 1.00225 0.5781 0.45375 0.0
H268 H 0.98048 0.6345 0.50637 0.0
H269 H 0.99244 0.67216 0.53021 0.0
H270 H 1.00042 0.62774 0.59729 0.0
H271 H 0.98866 0.59015 0.57339 0.0
H272 H 0.87355 0.51183 0.49948 0.0
H273 H 0.91065 0.53617 0.48712 0.0
H274 H 0.91798 0.44383 0.49611 0.0
H275 H 0.95499 0.46824 0.484 0.0
H276 H 0.03157 0.54796 0.37188 0.0
H277 H 0.0991 0.54496 0.41745 0.0
H278 H 0.07443 0.55676 0.45453 0.0
H279 H 1.00696 0.55998 0.40902 0.0
C280 C 0.78559 0.77386 0.86997 0.0
C281 C 0.80808 0.76321 0.87905 0.0
C282 C 0.78422 0.73808 0.90914 0.0
C283 C 0.8074 0.74548 0.89843 0.0
C284 C 0.76179 0.74846 0.89949 0.0
C285 C 0.7625 0.76612 0.8802 0.0
U286 U 0.8113 0.8083 0.8111 0.0
O287 O 0.78959 0.82476 0.77987 0.0
O288 O 0.81303 0.8489 0.80406 0.0
C289 C 0.79648 0.84781 0.78561 0.0
C290 C 0.78546 0.79372 0.85068 0.0
C291 C 0.77629 0.86706 0.78565 0.0
C292 C 0.74789 0.89624 0.8072 0.0
C293 C 0.76581 0.87678 0.80801 0.0
C294 C 0.7503 0.89605 0.76173 0.0
C295 C 0.74015 0.90637 0.78402 0.0
C296 C 0.76814 0.87668 0.76256 0.0
C297 C 0.87107 0.78326 0.77656 0.0
C298 C 0.89983 0.80513 0.74842 0.0
C299 C 0.90093 0.7598 0.75061 0.0
C300 C 0.88143 0.76038 0.76838 0.0
C301 C 0.91067 0.78216 0.74059 0.0
C302 C 0.88023 0.80568 0.76625 0.0
C303 C 0.85155 0.783 0.79651 0.0
O304 O 0.80376 0.81039 0.8518 0.0
O305 O 0.78004 0.78655 0.82757 0.0
O306 O 0.82849 0.77722 0.78934 0.0
O307 O 0.85224 0.80133 0.81326 0.0
H308 H 0.82617 0.76886 0.87144 0.0
H309 H 0.82507 0.73806 0.90545 0.0
H310 H 0.74357 0.74292 0.90684 0.0
H311 H 0.74491 0.774 0.87343 0.0
H312 H 0.74065 0.90379 0.82476 0.0
H313 H 0.77176 0.86965 0.82608 0.0
H314 H 0.74449 0.90296 0.74352 0.0
H315 H 0.77588 0.86942 0.74507 0.0
H316 H 0.9069 0.82273 0.74128 0.0
H317 H 0.90838 0.74174 0.74472 0.0
H318 H 0.87461 0.74285 0.77598 0.0
H319 H 0.87251 0.8236 0.77224 0.0
C320 C 0.2856 0.27384 0.36995 0.0
C321 C 0.30809 0.26319 0.37904 0.0
C322 C 0.28423 0.23806 0.40912 0.0
C323 C 0.30741 0.24545 0.39842 0.0
C324 C 0.26179 0.24843 0.39947 0.0
C325 C 0.26251 0.2661 0.38018 0.0
U326 U 0.3113 0.3083 0.31109 0.0
O327 O 0.28957 0.32476 0.27986 0.0
O328 O 0.31302 0.3489 0.30406 0.0
C329 C 0.29645 0.3478 0.28562 0.0
C330 C 0.28547 0.2937 0.35067 0.0
C331 C 0.27625 0.36705 0.28566 0.0
C332 C 0.24803 0.3964 0.3072 0.0
C333 C 0.26594 0.37695 0.30803 0.0
C334 C 0.25007 0.39585 0.26171 0.0
C335 C 0.24011 0.40636 0.28401 0.0
C336 C 0.26791 0.37649 0.26256 0.0
C337 C 0.37106 0.2833 0.27651 0.0
C338 C 0.40004 0.30517 0.2486 0.0
C339 C 0.40069 0.25981 0.25031 0.0
C340 C 0.3812 0.2604 0.26808 0.0
C341 C 0.41066 0.28218 0.24052 0.0
C342 C 0.38044 0.30573 0.26643 0.0
C343 C 0.35155 0.28302 0.29647 0.0
O344 O 0.30377 0.31037 0.35179 0.0
O345 O 0.28005 0.28654 0.32755 0.0
O346 O 0.32849 0.27722 0.28931 0.0
O347 O 0.35224 0.30134 0.31324 0.0
H348 H 0.32617 0.26884 0.37143 0.0
H349 H 0.32508 0.23803 0.40544 0.0
H350 H 0.24357 0.24289 0.40681 0.0
H351 H 0.24491 0.27397 0.37341 0.0
H352 H 0.24093 0.4041 0.32476 0.0
H353 H 0.27204 0.36996 0.32611 0.0
H354 H 0.24412 0.40262 0.2435 0.0
H355 H 0.27552 0.36909 0.24506 0.0
H356 H 0.4073 0.32279 0.24165 0.0
H357 H 0.40796 0.24174 0.24423 0.0
H358 H 0.3742 0.24285 0.2755 0.0
H359 H 0.37291 0.32367 0.2726 0.0
C360 C 0.48382 0.93299 0.50849 0.0
C361 C 0.48514 0.90952 0.52034 0.0
C362 C 0.49746 0.88919 0.48075 0.0
C363 C 0.49185 0.88789 0.50661 0.0
C364 C 0.49657 0.91279 0.46911 0.0
C365 C 0.48977 0.93435 0.48279 0.0
U366 U 0.48578 0.98452 0.56093 0.0
O367 O 0.47865 0.02516 0.55743 0.0
O368 O 0.45426 1.00228 0.58143 0.0
C369 C 0.45819 0.02442 0.57142 0.0
C370 C 0.47458 0.95589 0.52181 0.0
C371 C 0.43579 0.03819 0.56189 0.0
C372 C 0.39122 0.04022 0.55029 0.0
C373 C 0.41255 0.02621 0.55723 0.0
C374 C 0.4161 0.07828 0.55196 0.0
C375 C 0.39265 0.0665 0.54779 0.0
C376 C 0.43734 0.0643 0.55897 0.0
C377 C 0.53886 0.98302 0.61175 0.0
C378 C 0.5412 0.9927 0.65669 0.0
C379 C 0.57905 0.99435 0.63127 0.0
C380 C 0.56494 0.98749 0.60998 0.0
C381 C 0.56745 0.99676 0.655 0.0
C382 C 0.52706 0.98593 0.63532 0.0
C383 C 0.52505 0.97353 0.58923 0.0
O384 O 0.4645 0.953 0.54421 0.0
O385 O 0.48888 0.97599 0.52033 0.0
O386 O 0.52666 0.98711 0.56878 0.0
O387 O 0.50236 0.96413 0.59276 0.0
H388 H 0.48065 0.90776 0.54012 0.0
H389 H 0.49263 0.87011 0.51628 0.0
H390 H 0.50042 0.91453 0.44919 0.0
H391 H 0.48863 0.95211 0.47309 0.0
H392 H 0.37359 0.03045 0.54691 0.0
H393 H 0.41073 1.00609 0.55926 0.0
H394 H 0.41791 0.09846 0.55055 0.0
H395 H 0.45496 0.07403 0.56266 0.0
H396 H 0.53156 0.99469 0.67456 0.0
H397 H 0.59923 0.99698 0.62924 0.0
H398 H 0.57458 0.98513 0.59213 0.0
H399 H 0.50698 0.98262 0.63739 0.0
C400 C 0.2294 0.25809 0.68283 0.0
C401 C 0.25494 0.25341 0.67722 0.0
C402 C 0.24288 0.22872 0.64003 0.0
C403 C 0.26161 0.23888 0.65603 0.0
C404 C 0.21739 0.23399 0.64551 0.0
C405 C 0.21077 0.24843 0.66664 0.0
U406 U 0.23397 0.31144 0.73317 0.0
O407 O 0.20291 0.3332 0.75044 0.0
O408 O 0.22706 0.30953 0.77396 0.0
C409 C 0.20693 0.32398 0.77294 0.0
C410 C 0.22137 0.27189 0.70583 0.0
C411 C 0.18429 0.3157 0.78697 0.0
C412 C 0.15789 0.2833 0.80559 0.0
C413 C 0.17878 0.29023 0.79092 0.0
C414 C 0.1475 0.32711 0.81209 0.0
C415 C 0.1421 0.30168 0.81662 0.0
C416 C 0.16833 0.33399 0.79751 0.0
C417 C 0.28668 0.36203 0.72822 0.0
C418 C 0.30584 0.38894 0.76038 0.0
C419 C 0.31052 0.39915 0.71637 0.0
C420 C 0.29617 0.37805 0.70972 0.0
C421 C 0.31587 0.40477 0.74177 0.0
C422 C 0.2914 0.36777 0.75368 0.0
C423 C 0.27298 0.33906 0.72016 0.0
O424 O 0.2364 0.27082 0.72552 0.0
O425 O 0.2116 0.29429 0.70246 0.0
O426 O 0.25014 0.34234 0.71105 0.0
O427 O 0.27478 0.31933 0.73474 0.0
H428 H 0.26972 0.26066 0.68938 0.0
H429 H 0.28141 0.23512 0.65255 0.0
H430 H 0.20243 0.22701 0.63343 0.0
H431 H 0.19096 0.25183 0.67052 0.0
H432 H 0.15446 0.26355 0.80875 0.0
H433 H 0.19079 0.27572 0.78297 0.0
H434 H 0.13555 0.34182 0.81975 0.0
H435 H 0.17213 0.35374 0.79467 0.0
H436 H 0.30966 0.39252 0.7801 0.0
H437 H 0.3174 0.4111 0.70151 0.0
H438 H 0.29272 0.37407 0.68998 0.0
H439 H 0.28428 0.35573 0.76835 0.0
C440 C 0.78548 0.26837 0.67647 0.0
C441 C 0.80799 0.27911 0.66759 0.0
C442 C 0.78421 0.30415 0.63731 0.0
C443 C 0.80735 0.29685 0.64821 0.0
C444 C 0.76176 0.29368 0.64676 0.0
C445 C 0.76243 0.27602 0.66605 0.0
U446 U 0.81116 0.23394 0.73541 0.0
O447 O 0.78944 0.21758 0.76665 0.0
O448 O 0.81284 0.19334 0.74251 0.0
C449 C 0.79629 0.19451 0.76093 0.0
C450 C 0.78532 0.24853 0.69578 0.0
C451 C 0.77606 0.17531 0.76091 0.0
C452 C 0.748 0.14577 0.73941 0.0
C453 C 0.76592 0.1652 0.73855 0.0
C454 C 0.7497 0.14678 0.78491 0.0
C455 C 0.73991 0.13605 0.76264 0.0
C456 C 0.76755 0.16611 0.78403 0.0
C457 C 0.871 0.25891 0.76993 0.0
C458 C 0.89989 0.23706 0.798 0.0
C459 C 0.90081 0.2824 0.79593 0.0
C460 C 0.88128 0.28181 0.77817 0.0
C461 C 0.91066 0.26004 0.80589 0.0
C462 C 0.88026 0.2365 0.78018 0.0
C463 C 0.85145 0.25917 0.74998 0.0
O464 O 0.80359 0.23181 0.6947 0.0
O465 O 0.77992 0.25574 0.71888 0.0
O466 O 0.82841 0.26502 0.75713 0.0
O467 O 0.85211 0.24081 0.73326 0.0
H468 H 0.82604 0.27352 0.67536 0.0
H469 H 0.82503 0.30434 0.64134 0.0
H470 H 0.74357 0.29915 0.63926 0.0
H471 H 0.74483 0.26807 0.67267 0.0
H472 H 0.74104 0.13791 0.72187 0.0
H473 H 0.77215 0.17199 0.72044 0.0
H474 H 0.74362 0.1402 0.80314 0.0
H475 H 0.77502 0.17367 0.80152 0.0
H476 H 0.90706 0.21946 0.8051 0.0
H477 H 0.90819 0.30046 0.80185 0.0
H478 H 0.87437 0.29934 0.77061 0.0
H479 H 0.87262 0.21857 0.77415 0.0
C480 C 0.50857 0.5631 0.61183 0.0
C481 C 0.52082 0.55959 0.63504 0.0
C482 C 0.48063 0.54928 0.65515 0.0
C483 C 0.50699 0.5528 0.65645 0.0
C484 C 0.46857 0.55237 0.63177 0.0
C485 C 0.48236 0.55925 0.61044 0.0
U486 U 0.56172 0.56111 0.56129 0.0
O487 O 0.55863 0.56806 0.52052 0.0
O488 O 0.58243 0.59241 0.54415 0.0
C489 C 0.57265 0.58839 0.5217 0.0
C490 C 0.52213 0.57228 0.58925 0.0
C491 C 0.56331 0.61057 0.50774 0.0
C492 C 0.55208 0.65492 0.50549 0.0
C493 C 0.55879 0.63384 0.51966 0.0
C494 C 0.55371 0.62977 0.46738 0.0
C495 C 0.54968 0.65324 0.4791 0.0
C496 C 0.56049 0.60876 0.48151 0.0
C497 C 0.61268 0.5083 0.56343 0.0
C498 C 0.658 0.50552 0.55533 0.0
C499 C 0.63202 0.46834 0.55155 0.0
C500 C 0.61067 0.4825 0.55808 0.0
C501 C 0.65605 0.47957 0.55034 0.0
C502 C 0.63658 0.51973 0.56178 0.0
C503 C 0.59002 0.52213 0.57258 0.0
O504 O 0.5446 0.58228 0.59274 0.0
O505 O 0.52086 0.55802 0.56895 0.0
O506 O 0.5696 0.5205 0.55855 0.0
O507 O 0.5935 0.5447 0.58223 0.0
H508 H 0.54101 0.56238 0.63676 0.0
H509 H 0.51698 0.55028 0.67403 0.0
H510 H 0.4483 0.55016 0.63005 0.0
H511 H 0.4724 0.56204 0.59286 0.0
H512 H 0.54879 0.67257 0.51523 0.0
H513 H 0.56077 0.63586 0.53986 0.0
H514 H 0.55238 0.62774 0.44712 0.0
H515 H 0.56408 0.59113 0.47182 0.0
H516 H 0.67612 0.51488 0.55428 0.0
H517 H 0.62978 0.44838 0.54819 0.0
H518 H 0.59258 0.47312 0.5595 0.0
H519 H 0.63884 0.53956 0.56582 0.0
C520 C 0.50865 0.47912 0.93471 0.0
C521 C 0.52088 0.48251 0.9115 0.0
C522 C 0.4807 0.49289 0.89133 0.0
C523 C 0.50705 0.48928 0.89005 0.0
C524 C 0.46866 0.48992 0.91472 0.0
C525 C 0.48245 0.48306 0.93608 0.0
U526 U 0.56178 0.48114 0.98534 0.0
O527 O 0.55869 0.47424 0.02611 0.0
O528 O 0.58251 0.44985 1.00255 0.0
C529 C 0.57272 0.4539 0.02498 0.0
C530 C 0.52221 0.46996 0.95732 0.0
C531 C 0.56336 0.43175 0.03892 0.0
C532 C 0.55179 0.38749 0.0411 0.0
C533 C 0.55854 0.40857 0.02696 0.0
C534 C 0.55399 0.41249 0.07929 0.0
C535 C 0.54964 0.3891 0.06751 0.0
C536 C 0.56081 0.43348 0.06518 0.0
C537 C 0.61271 0.53394 0.98318 0.0
C538 C 0.65806 0.53678 0.99117 0.0
C539 C 0.63199 0.57391 0.9951 0.0
C540 C 0.61065 0.55972 0.98859 0.0
C541 C 0.65606 0.56272 0.99622 0.0
C542 C 0.63665 0.52255 0.98475 0.0
C543 C 0.59006 0.52009 0.97404 0.0
O544 O 0.54469 0.45994 0.95389 0.0
O545 O 0.52093 0.48424 0.9776 0.0
O546 O 0.56964 0.52175 0.98803 0.0
O547 O 0.59357 0.4975 0.96443 0.0
H548 H 0.54107 0.47965 0.90979 0.0
H549 H 0.51703 0.49171 0.87247 0.0
H550 H 0.44839 0.4922 0.91642 0.0
H551 H 0.4725 0.48035 0.95366 0.0
H552 H 0.54826 0.36991 0.03132 0.0
H553 H 0.5603 0.40661 1.00673 0.0
H554 H 0.55287 0.41445 0.09956 0.0
H555 H 0.56463 0.45105 0.0749 0.0
H556 H 0.67621 0.52745 0.99216 0.0
H557 H 0.6297 0.59385 0.99851 0.0
H558 H 0.59253 0.56907 0.98723 0.0
H559 H 0.63896 0.50273 0.98065 0.0
C560 C 0.72949 0.28421 0.36368 0.0
C561 C 0.75503 0.28899 0.36924 0.0
C562 C 0.74298 0.31361 0.40647 0.0
C563 C 0.7617 0.30353 0.39042 0.0
C564 C 0.71749 0.30825 0.40103 0.0
C565 C 0.71087 0.2938 0.37991 0.0
U566 U 0.73406 0.23084 0.31337 0.0
O567 O 0.703 0.20907 0.2961 0.0
O568 O 0.7271 0.23273 0.27257 0.0
C569 C 0.707 0.21826 0.2736 0.0
C570 C 0.72145 0.2704 0.34069 0.0
C571 C 0.68435 0.22652 0.25953 0.0
C572 C 0.65774 0.25893 0.24111 0.0
C573 C 0.67866 0.25199 0.25579 0.0
C574 C 0.6477 0.2151 0.23419 0.0
C575 C 0.64212 0.24054 0.22986 0.0
C576 C 0.66854 0.20823 0.24878 0.0
C577 C 0.78679 0.18023 0.31831 0.0
C578 C 0.80598 0.15337 0.28614 0.0
C579 C 0.81056 0.14301 0.33013 0.0
C580 C 0.79623 0.16413 0.33679 0.0
C581 C 0.81594 0.13745 0.30473 0.0
C582 C 0.79156 0.17455 0.29285 0.0
C583 C 0.77311 0.20321 0.3264 0.0
O584 O 0.73645 0.27147 0.321 0.0
O585 O 0.7117 0.24801 0.34406 0.0
O586 O 0.75029 0.19995 0.33551 0.0
O587 O 0.77487 0.22294 0.31181 0.0
H588 H 0.7698 0.2818 0.35704 0.0
H589 H 0.7815 0.30736 0.39387 0.0
H590 H 0.70254 0.31517 0.41316 0.0
H591 H 0.69106 0.29033 0.37607 0.0
H592 H 0.65417 0.27869 0.23811 0.0
H593 H 0.69054 0.26651 0.26392 0.0
H594 H 0.63588 0.20039 0.22636 0.0
H595 H 0.67249 0.18847 0.25147 0.0
H596 H 0.80983 0.14982 0.26641 0.0
H597 H 0.81739 0.131 0.34498 0.0
H598 H 0.79275 0.16807 0.35654 0.0
H599 H 0.78447 0.18665 0.27819 0.0
C600 C 0.48378 0.10933 0.03801 0.0
C601 C 0.48468 0.13285 0.02623 0.0
C602 C 0.49739 0.15315 0.06573 0.0
C603 C 0.49138 0.1545 0.03995 0.0
C604 C 0.49691 0.12951 0.07729 0.0
C605 C 0.49011 0.10794 0.06363 0.0
U606 U 0.4857 0.05773 0.98564 0.0
O607 O 0.47861 1.01709 0.98918 0.0
O608 O 0.45416 0.03995 0.96517 0.0
C609 C 0.45813 1.01782 0.97519 0.0
C610 C 0.47453 0.08641 0.02474 0.0
C611 C 0.43577 1.00405 0.98472 0.0
C612 C 0.39126 1.00206 0.99647 0.0
C613 C 0.41256 1.01606 0.98954 0.0
C614 C 0.41608 0.96396 0.9945 0.0
C615 C 0.39266 0.97577 0.99882 0.0
C616 C 0.4373 0.97792 0.98748 0.0
C617 C 0.5387 0.05919 0.9348 0.0
C618 C 0.54115 0.04996 0.88978 0.0
C619 C 0.57885 0.04752 0.9154 0.0
C620 C 0.56472 0.05435 0.93668 0.0
C621 C 0.56734 0.04552 0.89158 0.0
C622 C 0.52699 0.05669 0.91113 0.0
C623 C 0.5249 0.06869 0.95732 0.0
O624 O 0.4644 0.08926 1.00233 0.0
O625 O 0.48886 0.06631 0.02623 0.0
O626 O 0.52656 0.05513 0.97779 0.0
O627 O 0.5022 0.07809 0.95379 0.0
H628 H 0.47988 0.13465 1.00652 0.0
H629 H 0.49184 0.17231 0.03033 0.0
H630 H 0.50107 0.12774 0.09715 0.0
H631 H 0.48929 0.09014 0.07328 0.0
H632 H 0.37365 1.01186 0.99998 0.0
H633 H 0.41076 0.0362 0.98762 0.0
H634 H 0.41788 0.94376 0.99579 0.0
H635 H 0.45489 0.96818 0.98368 0.0
H636 H 0.53157 0.04829 0.87183 0.0
H637 H 0.59898 0.04459 0.91752 0.0
H638 H 0.57431 0.0564 0.95461 0.0
H639 H 0.50697 0.06031 0.90897 0.0
Li640 Li 0.29749 0.91044 1.02044 0.0
Li641 Li 0.27692 0.87863 0.04773 0.0
Li642 Li 0.26821 0.87994 1.00036 0.0
Li643 Li 0.25001 0.91209 0.02943 0.0
C644 C 0.32516 0.86691 1.01464 0.0
N645 N 0.3754 0.85521 1.00656 0.0
C646 C 0.34034 0.85909 0.03462 0.0
C647 C 0.33543 0.86841 0.99049 0.0
C648 C 0.36572 0.85334 0.03016 0.0
C649 C 0.3609 0.86254 0.9868 0.0
C650 C 0.28408 0.92038 0.07802 0.0
C651 C 0.26998 0.92324 0.1211 0.0
N652 N 0.29389 0.92914 0.12843 0.0
C653 C 0.30846 0.92672 0.08594 0.0
C654 C 0.26462 0.91886 0.09569 0.0
C655 C 0.31306 0.93099 0.11152 0.0
C656 C 0.32509 0.95123 0.99973 0.0
N657 N 0.32736 0.9309 1.01487 0.0
C658 C 0.37139 0.93975 0.021 0.0
C659 C 0.34991 0.92522 0.02577 0.0
C660 C 0.36976 0.96057 1.00501 0.0
C661 C 0.34608 0.96632 0.99451 0.0
H662 H 0.30697 0.95571 0.99154 0.0
H663 H 0.35128 0.90948 0.03831 0.0
C664 C 0.26482 0.8359 0.07644 0.0
N665 N 0.28055 0.85606 0.07605 0.0
C666 C 0.26578 0.8188 0.09621 0.0
C667 C 0.29965 0.84296 0.11478 0.0
C668 C 0.298 0.85965 0.0946 0.0
C669 C 0.28325 0.82222 0.11592 0.0
H670 H 0.25147 0.833 0.06127 0.0
H671 H 0.3108 0.87538 0.09375 0.0
C672 C 0.26619 0.92233 0.97215 0.0
N673 N 0.26121 0.93183 0.92138 0.0
C674 C 0.24352 0.93187 0.96272 0.0
C675 C 0.28643 0.91796 0.95583 0.0
C676 C 0.24134 0.93646 0.93697 0.0
C677 C 0.28352 0.92279 0.9302 0.0
C678 C 0.21978 0.87098 0.03573 0.0
C679 C 0.20187 0.86408 1.01761 0.0
C680 C 0.21247 0.87364 0.06087 0.0
C681 C 0.17678 0.86046 0.02489 0.0
C682 C 0.18721 0.86984 0.06742 0.0
N683 N 0.17003 0.86342 0.04943 0.0
C684 C 0.27622 0.83972 0.96478 0.0
C685 C 0.2409 0.8655 0.95619 0.0
C686 C 0.27081 0.82454 0.94373 0.0
N687 N 0.2613 0.85977 0.9706 0.0
C688 C 0.23484 0.8509 0.93501 0.0
C689 C 0.24973 0.82992 0.92855 0.0
H690 H 0.29213 0.83523 0.97669 0.0
H691 H 0.22907 0.88126 0.9613 0.0
C692 C 0.2226 0.95243 0.05282 0.0
N693 N 0.22112 0.93372 0.03527 0.0
C694 C 0.2017 0.96785 0.05781 0.0
C695 C 0.17819 0.9449 0.0262 0.0
C696 C 0.19956 0.93 0.02177 0.0
C697 C 0.17896 0.96408 0.04457 0.0
H698 H 0.24 0.95535 0.06309 0.0
H699 H 0.19892 0.91544 1.00748 0.0
O700 O 0.30032 0.87277 1.0187 0.0
O701 O 0.27927 0.91602 0.05305 0.0
O702 O 0.26857 0.9174 0.99725 0.0
O703 O 0.24437 0.87496 0.0289 0.0
H704 H 0.33267 0.85766 0.05339 0.0
H705 H 0.32386 0.87395 0.97473 0.0
H706 H 0.37773 0.84744 0.04549 0.0
H707 H 0.36912 0.86373 0.96822 0.0
H708 H 0.25511 0.92202 0.13499 0.0
H709 H 0.3237 0.92819 0.07252 0.0
H710 H 0.24555 0.91449 0.08986 0.0
H711 H 0.33188 0.93577 0.11793 0.0
H712 H 0.38908 0.93481 0.02994 0.0
H713 H 0.34384 0.98202 0.98192 0.0
H714 H 0.25312 0.80284 0.09586 0.0
H715 H 0.3134 0.84647 0.12948 0.0
H716 H 0.22772 0.93555 0.97511 0.0
H717 H 0.30422 0.911 0.96289 0.0
H718 H 0.22385 0.94369 0.92938 0.0
H719 H 0.29902 0.91939 0.91735 0.0
H720 H 0.20722 0.86171 0.99811 0.0
H721 H 0.22617 0.87845 0.0752 0.0
H722 H 0.16269 0.85529 1.01103 0.0
H723 H 0.18128 0.87194 0.0868 0.0
H724 H 0.28269 0.80843 0.93978 0.0
H725 H 0.21861 0.8561 0.92379 0.0
H726 H 0.20321 0.98223 0.07227 0.0
H727 H 0.16129 0.94152 1.01518 0.0
Li728 Li 0.13433 0.525 0.29711 0.0
Li729 Li 0.16657 0.49746 0.27665 0.0
Li730 Li 0.16654 0.54496 0.27002 0.0
Li731 Li 0.13433 0.51742 0.24953 0.0
C732 C 0.17664 0.52946 0.32643 0.0
N733 N 0.18577 0.53771 0.37704 0.0
C734 C 0.18421 0.50964 0.34173 0.0
C735 C 0.17408 0.55354 0.33679 0.0
C736 C 0.18864 0.51418 0.3673 0.0
C737 C 0.17867 0.55731 0.36243 0.0
C738 C 0.12476 0.46803 0.28065 0.0
C739 C 0.12383 0.42575 0.26402 0.0
N740 N 0.1167 0.41725 0.28699 0.0
C741 C 0.11718 0.45891 0.30403 0.0
C742 C 0.12789 0.45137 0.26042 0.0
C743 C 0.11328 0.43316 0.30687 0.0
C744 C 0.09369 0.54688 0.32492 0.0
N745 N 0.11311 0.53021 0.3265 0.0
C746 C 0.10273 0.52213 0.3696 0.0
C747 C 0.11757 0.51761 0.34821 0.0
C748 C 0.08285 0.53963 0.36869 0.0
C749 C 0.07831 0.5519 0.34581 0.0
H750 H 0.0902 0.55646 0.30742 0.0
H751 H 0.13265 0.50399 0.349 0.0
C752 C 0.20867 0.46725 0.2641 0.0
N753 N 0.18863 0.46855 0.28006 0.0
C754 C 0.22561 0.44713 0.26512 0.0
C755 C 0.20147 0.43006 0.29942 0.0
C756 C 0.18493 0.45056 0.29771 0.0
C757 C 0.22213 0.42803 0.28287 0.0
H758 H 0.21167 0.48199 0.25061 0.0
H759 H 0.16924 0.45213 0.31061 0.0
C760 C 0.1247 0.5744 0.26595 0.0
N761 N 0.11662 0.62518 0.25957 0.0
C762 C 0.11712 0.5835 0.24256 0.0
C763 C 0.12784 0.59107 0.28618 0.0
C764 C 0.11321 0.60925 0.23969 0.0
C765 C 0.12377 0.61668 0.28256 0.0
C766 C 0.17665 0.51294 0.22026 0.0
C767 C 0.18419 0.53273 0.20495 0.0
C768 C 0.17413 0.48884 0.20994 0.0
C769 C 0.18865 0.52816 0.1794 0.0
C770 C 0.17874 0.48503 0.1843 0.0
N771 N 0.18581 0.50462 0.16968 0.0
C772 C 0.20858 0.57522 0.28262 0.0
C773 C 0.18485 0.59183 0.24892 0.0
C774 C 0.2255 0.59533 0.28159 0.0
N775 N 0.18855 0.57388 0.26662 0.0
C776 C 0.20138 0.61232 0.24719 0.0
C777 C 0.22203 0.61438 0.26378 0.0
H778 H 0.21158 0.56051 0.29615 0.0
H779 H 0.16917 0.59023 0.23599 0.0
C780 C 0.0937 0.49554 0.22169 0.0
N781 N 0.1131 0.5122 0.22012 0.0
C782 C 0.07834 0.49049 0.20077 0.0
C783 C 0.10274 0.52022 0.17698 0.0
C784 C 0.11756 0.52477 0.19839 0.0
C785 C 0.08288 0.50272 0.17788 0.0
H786 H 0.09021 0.48598 0.23918 0.0
H787 H 0.13263 0.53838 0.19762 0.0
O788 O 0.17197 0.52532 0.30141 0.0
O789 O 0.12886 0.49316 0.27757 0.0
O790 O 0.12881 0.54927 0.26906 0.0
O791 O 0.17196 0.51711 0.24527 0.0
H792 H 0.18645 0.49094 0.334 0.0
H793 H 0.1687 0.56916 0.32514 0.0
H794 H 0.19434 0.49898 0.37939 0.0
H795 H 0.17665 0.57583 0.37072 0.0
H796 H 0.1263 0.41264 0.24854 0.0
H797 H 0.11445 0.47154 0.31983 0.0
H798 H 0.1333 0.45815 0.24211 0.0
H799 H 0.10756 0.42582 0.3249 0.0
H800 H 0.10672 0.51186 0.38663 0.0
H801 H 0.06338 0.56569 0.34419 0.0
H802 H 0.24152 0.44679 0.25233 0.0
H803 H 0.19793 0.41583 0.31338 0.0
H804 H 0.11438 0.57086 0.22677 0.0
H805 H 0.13326 0.5843 0.3045 0.0
H806 H 0.10747 0.61658 0.22166 0.0
H807 H 0.12623 0.6298 0.29803 0.0
H808 H 0.1864 0.55145 0.21265 0.0
H809 H 0.16877 0.47324 0.2216 0.0
H810 H 0.19433 0.54335 0.16728 0.0
H811 H 0.17674 0.4665 0.17604 0.0
H812 H 0.2414 0.5957 0.29441 0.0
H813 H 0.19783 0.62651 0.23318 0.0
H814 H 0.06342 0.4767 0.20238 0.0
H815 H 0.10673 0.53046 0.15994 0.0
Li816 Li 0.74996 0.63025 1.01707 0.0
Li817 Li 0.76818 0.6624 0.04613 0.0
Li818 Li 0.77688 0.6637 0.99878 0.0
Li819 Li 0.79745 0.63188 0.0261 0.0
C820 C 0.71981 0.67153 1.01053 0.0
N821 N 0.6702 0.67947 0.99641 0.0
C822 C 0.70181 0.67858 0.02849 0.0
C823 C 0.71266 0.66892 0.98533 0.0
C824 C 0.67681 0.68239 0.021 0.0
C825 C 0.68747 0.67291 0.97857 0.0
C826 C 0.76598 0.62013 0.07437 0.0
C827 C 0.78304 0.6198 0.11646 0.0
N828 N 0.76064 0.61089 0.12515 0.0
C829 C 0.74322 0.61073 0.08367 0.0
C830 C 0.78614 0.62449 0.09083 0.0
C831 C 0.74086 0.60627 0.10942 0.0
C832 C 0.72265 0.58971 0.99391 0.0
N833 N 0.72107 0.60863 1.01122 0.0
C834 C 0.67807 0.59765 1.02009 0.0
C835 C 0.69943 0.61255 0.02451 0.0
C836 C 0.67894 0.57825 1.00195 0.0
C837 C 0.70176 0.57428 0.98894 0.0
H838 H 0.74012 0.58664 0.98381 0.0
H839 H 0.69871 0.62727 0.03863 0.0
C840 C 0.77632 0.70246 0.08188 0.0
N841 N 0.76126 0.68258 0.07587 0.0
C842 C 0.77091 0.71763 0.10293 0.0
C843 C 0.73463 0.69161 0.11128 0.0
C844 C 0.74071 0.67702 0.09011 0.0
C845 C 0.74968 0.71242 0.11793 0.0
H846 H 0.79235 0.70681 0.07011 0.0
H847 H 0.72877 0.66138 0.08485 0.0
C848 C 0.78387 0.62181 0.96852 0.0
N849 N 0.79335 0.61274 0.91811 0.0
C850 C 0.80821 0.61545 0.9605 0.0
C851 C 0.76428 0.62317 0.95094 0.0
C852 C 0.81265 0.61102 0.93492 0.0
C853 C 0.76947 0.61864 0.92553 0.0
C854 C 0.82517 0.67526 0.03184 0.0
C855 C 0.84029 0.68308 1.01185 0.0
C856 C 0.83554 0.67362 0.05596 0.0
C857 C 0.86571 0.68867 1.01624 0.0
C858 C 0.86104 0.67934 0.05959 0.0
N859 N 0.87549 0.68666 0.03982 0.0
C860 C 0.76492 0.70654 0.97012 0.0
C861 C 0.79787 0.68254 0.95185 0.0
C862 C 0.7659 0.72364 0.95034 0.0
N863 N 0.78052 0.68625 0.97045 0.0
C864 C 0.79954 0.69923 0.93168 0.0
C865 C 0.78326 0.72009 0.93059 0.0
H866 H 0.75166 0.70953 0.98532 0.0
H867 H 0.81057 0.66672 0.95266 0.0
C868 C 0.82513 0.59118 0.04699 0.0
N869 N 0.82732 0.6114 0.03169 0.0
C870 C 0.84613 0.57608 0.05221 0.0
C871 C 0.87131 0.60241 0.02542 0.0
C872 C 0.84981 0.61696 0.02065 0.0
C873 C 0.86975 0.5817 0.04155 0.0
H874 H 0.80705 0.5868 0.0553 0.0
H875 H 0.85112 0.63261 1.008 0.0
O876 O 0.74433 0.66738 1.01756 0.0
O877 O 0.76855 0.62493 0.04926 0.0
O878 O 0.77921 0.62631 0.99348 0.0
O879 O 0.80028 0.66956 0.02784 0.0
H880 H 0.70704 0.68092 0.04804 0.0
H881 H 0.72643 0.66402 0.97111 0.0
H882 H 0.66265 0.68768 0.03474 0.0
H883 H 0.68167 0.67085 0.95914 0.0
H884 H 0.79846 0.62319 0.12942 0.0
H885 H 0.7275 0.60706 0.07117 0.0
H886 H 0.80399 0.63135 0.08388 0.0
H887 H 0.72329 0.59915 0.1169 0.0
H888 H 0.66111 0.60118 0.03094 0.0
H889 H 0.70336 0.55973 0.97466 0.0
H890 H 0.78291 0.73361 0.10702 0.0
H891 H 0.71829 0.68654 0.12236 0.0
H892 H 0.82355 0.61409 0.97385 0.0
H893 H 0.74524 0.62753 0.95685 0.0
H894 H 0.83143 0.60624 0.92844 0.0
H895 H 0.7545 0.61974 0.91172 0.0
H896 H 0.83255 0.68462 0.9931 0.0
H897 H 0.82401 0.66807 0.07172 0.0
H898 H 0.87768 0.69457 1.00091 0.0
H899 H 0.86934 0.67803 0.07814 0.0
H900 H 0.75335 0.73969 0.95074 0.0
H901 H 0.81321 0.69562 0.91693 0.0
H902 H 0.84395 0.56047 0.06491 0.0
H903 H 0.88895 0.60725 1.01636 0.0
Li904 Li 0.88313 0.04457 0.27872 0.0
Li905 Li 0.91529 1.01574 0.29675 0.0
Li906 Li 0.91525 0.02635 0.24976 0.0
Li907 Li 0.88312 0.99754 0.26774 0.0
C908 C 0.92616 0.07336 0.28427 0.0
N909 N 0.93656 0.12345 0.29346 0.0
C910 C 0.93468 0.08121 0.30798 0.0
C911 C 0.92333 0.09093 0.26513 0.0
C912 C 0.93973 0.10663 0.31228 0.0
C913 C 0.92857 0.11618 0.27017 0.0
C914 C 0.87227 1.0079 0.32497 0.0
C915 C 0.8694 0.97613 0.35684 0.0
N916 N 0.862 0.99391 0.37384 0.0
C917 C 0.86431 0.02581 0.34267 0.0
C918 C 0.87456 0.98282 0.33202 0.0
C919 C 0.85933 1.01839 0.36731 0.0
C920 C 0.8423 0.07949 0.27109 0.0
N921 N 0.86232 0.07373 0.28608 0.0
C922 C 0.85307 0.10894 0.31297 0.0
C923 C 0.86778 0.08796 0.30677 0.0
C924 C 0.83222 0.11541 0.29791 0.0
C925 C 0.82702 0.10035 0.27662 0.0
H926 H 0.83799 0.06772 0.25497 0.0
H927 H 0.88344 0.08287 0.31872 0.0
C928 C 0.95608 0.99322 0.32398 0.0
N929 N 0.93621 1.00934 0.326 0.0
C930 C 0.97106 0.9878 0.345 0.0
C931 C 0.94533 1.01611 0.36976 0.0
C932 C 0.93092 0.02103 0.34827 0.0
C933 C 0.96566 0.99912 0.36842 0.0
H934 H 0.96027 0.98442 0.30605 0.0
H935 H 0.91553 0.03432 0.34938 0.0
C936 C 0.87237 0.03403 0.2214 0.0
N937 N 0.86243 0.04763 0.17233 0.0
C938 C 0.86451 1.016 0.20379 0.0
C939 C 0.87474 0.05905 0.21415 0.0
C940 C 0.85969 0.02322 0.17905 0.0
C941 C 0.86974 0.06554 0.18924 0.0
C942 C 0.92631 0.96872 0.26243 0.0
C943 C 0.93485 0.96073 0.2388 0.0
C944 C 0.92364 0.9513 0.28172 0.0
C945 C 0.94008 0.93531 0.23471 0.0
C946 C 0.92907 0.92605 0.2769 0.0
N947 N 0.93707 0.91863 0.25367 0.0
C948 C 0.95583 0.04908 0.22249 0.0
C949 C 0.93103 1.02086 0.19831 0.0
C950 C 0.9708 0.05449 0.20149 0.0
N951 N 0.93615 0.03275 0.22051 0.0
C952 C 0.94543 0.02577 0.17683 0.0
C953 C 0.96557 0.04296 0.17813 0.0
H954 H 0.95988 0.05804 0.24038 0.0
H955 H 0.91579 1.00742 0.19723 0.0
C956 C 0.84211 0.96285 0.27523 0.0
N957 N 0.86228 0.9684 0.2604 0.0
C958 C 0.82681 0.94201 0.26972 0.0
C959 C 0.85316 0.93301 0.23371 0.0
C960 C 0.86788 0.95397 0.23989 0.0
C961 C 0.83215 0.92676 0.2486 0.0
H962 H 0.83769 0.97477 0.29121 0.0
H963 H 0.88366 0.9589 0.22806 0.0
O964 O 0.92086 0.04858 0.2798 0.0
O965 O 0.87754 1.01489 0.30082 0.0
O966 O 0.87749 0.02723 0.24565 0.0
O967 O 0.92084 0.99351 0.26669 0.0
H968 H 0.93722 0.06785 0.32294 0.0
H969 H 0.91732 0.08513 0.24655 0.0
H970 H 0.94617 0.11298 0.33059 0.0
H971 H 0.92636 0.12998 0.25554 0.0
H972 H 0.87121 0.95679 0.36257 0.0
H973 H 0.86217 0.04525 0.3375 0.0
H974 H 0.88008 0.96862 0.31846 0.0
H975 H 0.85336 0.03209 0.38124 0.0
H976 H 0.85812 0.12004 0.32939 0.0
H977 H 0.81099 0.1043 0.26462 0.0
H978 H 0.9864 0.97447 0.343 0.0
H979 H 0.9407 0.02569 0.38722 0.0
H980 H 0.86231 0.99661 0.2091 0.0
H981 H 0.88021 0.07334 0.22764 0.0
H982 H 0.85379 1.00942 0.16519 0.0
H983 H 0.87162 0.08483 0.18335 0.0
H984 H 0.93727 0.97397 0.22372 0.0
H985 H 0.91763 0.95722 0.30026 0.0
H986 H 0.94654 0.92884 0.21645 0.0
H987 H 0.92698 0.91236 0.29165 0.0
H988 H 0.98598 0.06799 0.20345 0.0
H989 H 0.94094 1.01603 0.15941 0.0
H990 H 0.81066 0.93822 0.28159 0.0
H991 H 0.85831 0.92176 0.21743 0.0
Li992 Li 0.26816 0.1624 0.54611 0.0
Li993 Li 0.24994 0.13024 0.51706 0.0
Li994 Li 0.29743 0.13187 0.5261 0.0
Li995 Li 0.27686 0.16369 0.49876 0.0
C996 C 0.26596 0.12014 0.57437 0.0
N997 N 0.2606 0.11093 0.62515 0.0
C998 C 0.24319 0.11076 0.58367 0.0
C999 C 0.2861 0.12452 0.59083 0.0
C1000 C 0.24082 0.10631 0.60942 0.0
C1001 C 0.283 0.11983 0.61646 0.0
C1002 C 0.2198 0.17152 0.51049 0.0
C1003 C 0.18747 0.17288 0.47852 0.0
N1004 N 0.1702 0.17945 0.49635 0.0
C1005 C 0.20179 0.17857 0.52845 0.0
C1006 C 0.21265 0.1689 0.48529 0.0
C1007 C 0.17679 0.18238 0.52095 0.0
C1008 C 0.2763 0.20246 0.58185 0.0
N1009 N 0.26124 0.18259 0.57584 0.0
C1010 C 0.23461 0.19163 0.61125 0.0
C1011 C 0.24068 0.17704 0.59008 0.0
C1012 C 0.24967 0.21243 0.6179 0.0
C1013 C 0.2709 0.21763 0.6029 0.0
H1014 H 0.29234 0.20681 0.57009 0.0
H1015 H 0.22873 0.1614 0.58482 0.0
C1016 C 0.22264 0.08969 0.49391 0.0
N1017 N 0.22105 0.10862 0.51122 0.0
C1018 C 0.20176 0.07425 0.48895 0.0
C1019 C 0.17806 0.09763 0.52008 0.0
C1020 C 0.19941 0.11255 0.5245 0.0
C1021 C 0.17893 0.07823 0.50195 0.0
H1022 H 0.24011 0.08661 0.48382 0.0
H1023 H 0.19869 0.12727 0.53861 0.0
C1024 C 0.32515 0.17526 0.53182 0.0
N1025 N 0.37547 0.18667 0.5398 0.0
C1026 C 0.34027 0.18308 0.51183 0.0
C1027 C 0.33552 0.17362 0.55594 0.0
C1028 C 0.36569 0.18867 0.51622 0.0
C1029 C 0.36103 0.17935 0.55957 0.0
C1030 C 0.28387 0.12178 0.46852 0.0
C1031 C 0.30821 0.11543 0.46051 0.0
C1032 C 0.26428 0.12314 0.45093 0.0
C1033 C 0.31266 0.111 0.43494 0.0
C1034 C 0.26949 0.1186 0.42552 0.0
N1035 N 0.29337 0.1127 0.41811 0.0
C1036 C 0.32511 0.09119 0.547 0.0
C1037 C 0.34979 0.11696 0.52068 0.0
C1038 C 0.3461 0.07609 0.55224 0.0
N1039 N 0.3273 0.1114 0.53171 0.0
C1040 C 0.3713 0.10242 0.52546 0.0
C1041 C 0.36973 0.08171 0.5416 0.0
H1042 H 0.30702 0.0868 0.55531 0.0
H1043 H 0.35111 0.13261 0.50802 0.0
C1044 C 0.26491 0.20652 0.4701 0.0
N1045 N 0.28051 0.18623 0.47043 0.0
C1046 C 0.2659 0.22362 0.45032 0.0
C1047 C 0.29953 0.19921 0.43166 0.0
C1048 C 0.29786 0.18251 0.45183 0.0
C1049 C 0.28326 0.22006 0.43057 0.0
H1050 H 0.25165 0.20951 0.4853 0.0
H1051 H 0.31056 0.16669 0.45265 0.0
O1052 O 0.26852 0.12493 0.54926 0.0
O1053 O 0.24431 0.16737 0.51754 0.0
O1054 O 0.30027 0.16955 0.52782 0.0
O1055 O 0.2792 0.12629 0.49348 0.0
H1056 H 0.22747 0.10708 0.57116 0.0
H1057 H 0.30396 0.13137 0.58388 0.0
H1058 H 0.22325 0.0992 0.6169 0.0
H1059 H 0.29842 0.12323 0.62943 0.0
H1060 H 0.18167 0.17081 0.45909 0.0
H1061 H 0.20701 0.18093 0.54799 0.0
H1062 H 0.22643 0.16399 0.47109 0.0
H1063 H 0.16262 0.18767 0.53468 0.0
H1064 H 0.21826 0.18657 0.62233 0.0
H1065 H 0.2829 0.23361 0.607 0.0
H1066 H 0.20336 0.05969 0.47467 0.0
H1067 H 0.16109 0.10117 0.53093 0.0
H1068 H 0.33253 0.18461 0.49309 0.0
H1069 H 0.324 0.16807 0.57171 0.0
H1070 H 0.37766 0.19457 0.50089 0.0
H1071 H 0.36933 0.17804 0.57812 0.0
H1072 H 0.32355 0.11408 0.47386 0.0
H1073 H 0.24524 0.12749 0.45683 0.0
H1074 H 0.33145 0.10622 0.42847 0.0
H1075 H 0.25451 0.11969 0.41171 0.0
H1076 H 0.34392 0.06048 0.56495 0.0
H1077 H 0.38894 0.10726 0.51642 0.0
H1078 H 0.25335 0.23967 0.45072 0.0
H1079 H 0.3132 0.19559 0.41691 0.0
Li1080 Li 0.4153 0.51576 0.79669 0.0
Li1081 Li 0.38314 0.5446 0.77869 0.0
Li1082 Li 0.38314 0.49756 0.76771 0.0
Li1083 Li 0.41527 0.52637 0.7497 0.0
C1084 C 0.37239 0.50802 0.82498 0.0
N1085 N 0.36235 0.49421 0.87396 0.0
C1086 C 0.36446 0.52597 0.84264 0.0
C1087 C 0.37476 0.48296 0.83214 0.0
C1088 C 0.3596 0.51865 0.86733 0.0
C1089 C 0.36972 0.47637 0.85701 0.0
C1090 C 0.42626 0.57338 0.7841 0.0
C1091 C 0.42886 0.61611 0.76976 0.0
N1092 N 0.43687 0.62347 0.79302 0.0
C1093 C 0.4348 0.58132 0.80776 0.0
C1094 C 0.42351 0.59086 0.76486 0.0
C1095 C 0.43995 0.60674 0.81193 0.0
C1096 C 0.45598 0.4931 0.82397 0.0
N1097 N 0.43621 0.50936 0.82595 0.0
C1098 C 0.44544 0.51626 0.86967 0.0
C1099 C 0.43103 0.52118 0.84817 0.0
C1100 C 0.46566 0.49915 0.86837 0.0
C1101 C 0.47096 0.48769 0.84499 0.0
H1102 H 0.46009 0.4842 0.80608 0.0
H1103 H 0.41572 0.53456 0.84925 0.0
C1104 C 0.34221 0.57943 0.77115 0.0
N1105 N 0.36232 0.57375 0.78605 0.0
C1106 C 0.32693 0.60029 0.77668 0.0
C1107 C 0.35316 0.60905 0.81286 0.0
C1108 C 0.36787 0.58807 0.80665 0.0
C1109 C 0.33222 0.61543 0.79789 0.0
H1110 H 0.33782 0.5676 0.75509 0.0
H1111 H 0.3836 0.58305 0.81854 0.0
C1112 C 0.42623 0.46874 0.76223 0.0
N1113 N 0.43679 0.41866 0.75317 0.0
C1114 C 0.43472 0.46085 0.73854 0.0
C1115 C 0.42352 0.45122 0.78142 0.0
C1116 C 0.43984 0.43543 0.7343 0.0
C1117 C 0.42884 0.42597 0.77645 0.0
C1118 C 0.37228 0.53416 0.72142 0.0
C1119 C 0.36435 0.51621 0.70377 0.0
C1120 C 0.37459 0.55922 0.71428 0.0
C1121 C 0.35941 0.52355 0.67908 0.0
C1122 C 0.36948 0.56582 0.68942 0.0
N1123 N 0.36209 0.54799 0.67247 0.0
C1124 C 0.34224 0.46278 0.7753 0.0
C1125 C 0.3678 0.4541 0.73975 0.0
C1126 C 0.32694 0.44193 0.76979 0.0
N1127 N 0.3623 0.46843 0.76036 0.0
C1128 C 0.35306 0.43314 0.73357 0.0
C1129 C 0.33217 0.42679 0.74857 0.0
H1130 H 0.3379 0.47461 0.79136 0.0
H1131 H 0.38349 0.45911 0.72784 0.0
C1132 C 0.45598 0.54894 0.7225 0.0
N1133 N 0.43617 0.53277 0.72046 0.0
C1134 C 0.47096 0.55436 0.7015 0.0
C1135 C 0.44533 0.52597 0.67672 0.0
C1136 C 0.43093 0.52104 0.6982 0.0
C1137 C 0.4656 0.543 0.67809 0.0
H1138 H 0.46013 0.55777 0.74043 0.0
H1139 H 0.41559 0.50772 0.69708 0.0
O1140 O 0.37754 0.51491 0.80078 0.0
O1141 O 0.42087 0.54859 0.77976 0.0
O1142 O 0.42087 0.49353 0.76665 0.0
O1143 O 0.37751 0.52725 0.74561 0.0
H1144 H 0.36225 0.54539 0.8374 0.0
H1145 H 0.38027 0.46873 0.81861 0.0
H1146 H 0.35365 0.5324 0.88123 0.0
H1147 H 0.3716 0.45706 0.86281 0.0
H1148 H 0.42672 0.62984 0.75506 0.0
H1149 H 0.43728 0.56803 0.8228 0.0
H1150 H 0.4175 0.58498 0.7463 0.0
H1151 H 0.4464 0.61316 0.83021 0.0
H1152 H 0.44089 0.52595 0.8871 0.0
H1153 H 0.48621 0.47426 0.84303 0.0
H1154 H 0.31083 0.60417 0.76476 0.0
H1155 H 0.35828 0.62021 0.82921 0.0
H1156 H 0.43717 0.47417 0.72354 0.0
H1157 H 0.41755 0.45706 0.80001 0.0
H1158 H 0.44625 0.42904 0.716 0.0
H1159 H 0.42672 0.4122 0.79112 0.0
H1160 H 0.36218 0.49679 0.70899 0.0
H1161 H 0.38011 0.57345 0.72781 0.0
H1162 H 0.35344 0.50981 0.66518 0.0
H1163 H 0.37131 0.58514 0.68362 0.0
H1164 H 0.31088 0.43807 0.78174 0.0
H1165 H 0.35813 0.42197 0.71721 0.0
H1166 H 0.48624 0.56774 0.70351 0.0
H1167 H 0.44074 0.51636 0.65927 0.0
Li1168 Li 0.79752 0.41045 0.52041 0.0
Li1169 Li 0.777 0.37863 0.54773 0.0
Li1170 Li 0.76827 0.37995 0.50038 0.0
Li1171 Li 0.75003 0.4121 0.52942 0.0
C1172 C 0.8253 0.3671 0.51482 0.0
N1173 N 0.87568 0.35578 0.50711 0.0
C1174 C 0.84037 0.35929 0.53489 0.0
C1175 C 0.83577 0.36878 0.49076 0.0
C1176 C 0.86582 0.35374 0.53062 0.0
C1177 C 0.8613 0.36309 0.48726 0.0
C1178 C 0.78396 0.42058 0.57799 0.0
C1179 C 0.76956 0.42386 0.62095 0.0
N1180 N 0.79344 0.42976 0.62839 0.0
C1181 C 0.8083 0.42692 0.58602 0.0
C1182 C 0.76437 0.41927 0.59554 0.0
C1183 C 0.81274 0.43141 0.6116 0.0
C1184 C 0.82515 0.45108 0.49946 0.0
N1185 N 0.82737 0.43091 0.51482 0.0
C1186 C 0.87135 0.43992 0.52112 0.0
C1187 C 0.84987 0.42539 0.52591 0.0
C1188 C 0.86976 0.46059 0.50492 0.0
C1189 C 0.84613 0.46617 0.49422 0.0
H1190 H 0.80707 0.45543 0.49111 0.0
H1191 H 0.8512 0.40977 0.53861 0.0
C1192 C 0.76515 0.33569 0.57621 0.0
N1193 N 0.78064 0.35605 0.57604 0.0
C1194 C 0.7661 0.31857 0.59597 0.0
C1195 C 0.79947 0.34309 0.61495 0.0
C1196 C 0.79784 0.35981 0.59478 0.0
C1197 C 0.78331 0.32217 0.61587 0.0
H1198 H 0.75201 0.33267 0.5609 0.0
H1199 H 0.81046 0.37569 0.5941 0.0
C1200 C 0.76593 0.42214 0.47212 0.0
N1201 N 0.76039 0.4312 0.42132 0.0
C1202 C 0.74313 0.43151 0.46284 0.0
C1203 C 0.78603 0.41771 0.45563 0.0
C1204 C 0.74066 0.43588 0.43708 0.0
C1205 C 0.78283 0.42232 0.42999 0.0
C1206 C 0.71997 0.37078 0.53604 0.0
C1207 C 0.70191 0.3637 0.51813 0.0
C1208 C 0.71293 0.37338 0.56126 0.0
C1209 C 0.67695 0.35984 0.52571 0.0
C1210 C 0.68779 0.36934 0.5681 0.0
N1211 N 0.67046 0.36275 0.55032 0.0
C1212 C 0.77649 0.33996 0.46458 0.0
C1213 C 0.7407 0.36525 0.45647 0.0
C1214 C 0.77108 0.32478 0.44354 0.0
N1215 N 0.76134 0.35977 0.47065 0.0
C1216 C 0.73462 0.35065 0.4353 0.0
C1217 C 0.74976 0.32991 0.4286 0.0
H1218 H 0.7926 0.33567 0.4763 0.0
H1219 H 0.72869 0.38084 0.46176 0.0
C1220 C 0.72273 0.45268 0.55254 0.0
N1221 N 0.72113 0.43372 0.53527 0.0
C1222 C 0.70182 0.4681 0.55753 0.0
C1223 C 0.67807 0.44463 0.52647 0.0
C1224 C 0.69945 0.42974 0.52204 0.0
C1225 C 0.67896 0.46407 0.54458 0.0
H1226 H 0.74023 0.4558 0.56259 0.0
H1227 H 0.69872 0.415 0.50795 0.0
O1228 O 0.80039 0.37276 0.51869 0.0
O1229 O 0.77931 0.41602 0.55302 0.0
O1230 O 0.76859 0.41742 0.49724 0.0
O1231 O 0.74443 0.37498 0.52892 0.0
H1232 H 0.83255 0.35773 0.55359 0.0
H1233 H 0.82429 0.37433 0.47494 0.0
H1234 H 0.87774 0.34784 0.54602 0.0
H1235 H 0.86967 0.36444 0.46876 0.0
H1236 H 0.75458 0.42282 0.63474 0.0
H1237 H 0.82364 0.42823 0.5727 0.0
H1238 H 0.74533 0.41493 0.58962 0.0
H1239 H 0.83152 0.43619 0.6181 0.0
H1240 H 0.88899 0.43511 0.53021 0.0
H1241 H 0.84393 0.48174 0.48146 0.0
H1242 H 0.75364 0.30246 0.59545 0.0
H1243 H 0.81302 0.34674 0.62981 0.0
H1244 H 0.72745 0.43523 0.47537 0.0
H1245 H 0.80391 0.41086 0.46256 0.0
H1246 H 0.72307 0.44298 0.42961 0.0
H1247 H 0.7982 0.41887 0.417 0.0
H1248 H 0.70705 0.36137 0.49857 0.0
H1249 H 0.72675 0.3783 0.57543 0.0
H1250 H 0.66274 0.35453 0.51201 0.0
H1251 H 0.68207 0.37138 0.58756 0.0
H1252 H 0.78316 0.30886 0.4394 0.0
H1253 H 0.71821 0.35565 0.42426 0.0
H1254 H 0.70343 0.48268 0.57178 0.0
H1255 H 0.66107 0.44105 0.51567 0.0
Li1256 Li 0.66656 0.99744 0.77672 0.0
Li1257 Li 0.63431 0.02499 0.79714 0.0
Li1258 Li 0.63431 1.01741 0.74957 0.0
Li1259 Li 0.6665 0.04494 0.77009 0.0
C1260 C 0.62463 0.96801 0.78056 0.0
N1261 N 0.61632 0.91724 0.78661 0.0
C1262 C 0.617 0.9588 0.80388 0.0
C1263 C 0.62769 0.95145 0.76023 0.0
C1264 C 0.61298 0.93306 0.80658 0.0
C1265 C 0.6235 0.92583 0.76369 0.0
C1266 C 0.67648 0.02928 0.82655 0.0
C1267 C 0.67828 0.0569 0.86275 0.0
N1268 N 0.68532 0.03721 0.87726 0.0
C1269 C 0.68399 1.00937 0.84176 0.0
C1270 C 0.67383 0.05329 0.83705 0.0
C1271 C 0.68828 1.01374 0.86737 0.0
C1272 C 0.70882 0.96739 0.76434 0.0
N1273 N 0.68863 0.96854 0.78012 0.0
C1274 C 0.70136 0.92991 0.7993 0.0
C1275 C 0.6848 0.9504 0.79759 0.0
C1276 C 0.72217 0.92804 0.78291 0.0
C1277 C 0.72577 0.94728 0.76535 0.0
H1278 H 0.71191 0.98224 0.75099 0.0
H1279 H 0.669 0.95185 0.81038 0.0
C1280 C 0.59378 0.04701 0.82499 0.0
N1281 N 0.61307 0.03019 0.82652 0.0
C1282 C 0.5784 0.05204 0.84589 0.0
C1283 C 0.60255 0.02197 0.86956 0.0
C1284 C 0.61739 1.01745 0.84818 0.0
C1285 C 0.58279 0.03962 0.86871 0.0
H1286 H 0.5904 0.05671 0.80755 0.0
H1287 H 0.63238 1.00372 0.84893 0.0
C1288 C 0.67675 1.01278 0.72038 0.0
N1289 N 0.68618 1.00416 0.66989 0.0
C1290 C 0.68433 0.03249 0.70498 0.0
C1291 C 0.67434 0.98862 0.71019 0.0
C1292 C 0.68891 0.02778 0.67947 0.0
C1293 C 0.67908 0.98466 0.6846 0.0
C1294 C 0.62478 0.07438 0.76587 0.0
C1295 C 0.61723 0.08341 0.74244 0.0
C1296 C 0.62802 0.09114 0.78601 0.0
C1297 C 0.61344 0.10916 0.73944 0.0
C1298 C 0.62407 0.11676 0.78226 0.0
N1299 N 0.61695 0.12517 0.75924 0.0
C1300 C 0.59358 0.99567 0.72176 0.0
C1301 C 0.61767 0.02463 0.69837 0.0
C1302 C 0.57822 0.99062 0.70084 0.0
N1303 N 0.6131 1.01219 0.72015 0.0
C1304 C 0.60285 1.02008 0.67696 0.0
C1305 C 0.58287 1.00272 0.6779 0.0
H1306 H 0.58999 0.98622 0.7393 0.0
H1307 H 0.63282 0.03815 0.69756 0.0
C1308 C 0.70839 0.07536 0.78285 0.0
N1309 N 0.68851 0.07387 0.76669 0.0
C1310 C 0.7253 0.09548 0.7818 0.0
C1311 C 0.70144 0.11218 0.74709 0.0
C1312 C 0.68492 0.09169 0.74883 0.0
C1313 C 0.72195 0.1144 0.76382 0.0
H1314 H 0.7113 0.06076 0.79651 0.0
H1315 H 0.66935 0.08997 0.73579 0.0
O1316 O 0.62885 0.99314 0.77761 0.0
O1317 O 0.67195 0.02531 0.80148 0.0
O1318 O 0.67194 1.0171 0.74534 0.0
O1319 O 0.62878 0.04925 0.76911 0.0
H1320 H 0.61432 0.97136 0.81974 0.0
H1321 H 0.63313 0.95831 0.74196 0.0
H1322 H 0.60721 0.92565 0.82456 0.0
H1323 H 0.6259 0.9128 0.74814 0.0
H1324 H 0.67618 0.07536 0.87114 0.0
H1325 H 0.6863 0.99072 0.83391 0.0
H1326 H 0.66848 0.06898 0.82548 0.0
H1327 H 0.69394 0.99847 0.8794 0.0
H1328 H 0.69772 0.91557 0.81311 0.0
H1329 H 0.7418 0.94706 0.75269 0.0
H1330 H 0.56357 0.06595 0.8443 0.0
H1331 H 0.60642 1.01159 0.88655 0.0
H1332 H 0.68646 0.05126 0.71258 0.0
H1333 H 0.66897 0.97307 0.72193 0.0
H1334 H 0.69462 0.04289 0.66729 0.0
H1335 H 0.67717 0.96607 0.67645 0.0
H1336 H 0.61442 0.0707 0.72671 0.0
H1337 H 0.63344 0.08444 0.80436 0.0
H1338 H 0.60773 0.11642 0.72137 0.0
H1339 H 0.62662 0.12994 0.79767 0.0
H1340 H 0.5632 0.97694 0.7025 0.0
H1341 H 0.60693 0.03022 0.65988 0.0
H1342 H 0.7411 0.09596 0.79475 0.0
H1343 H 0.69799 0.12627 0.73295 0.0
Li1344 Li 0.04866 0.27603 0.88277 0.0
Li1345 Li 1.01938 0.29442 0.91465 0.0
Li1346 Li 0.0285 0.24724 0.91319 0.0
Li1347 Li 1.0011 0.26733 0.88096 0.0
C1348 C 0.0769 0.2784 0.92579 0.0
N1349 N 0.1278 0.28327 0.93631 0.0
C1350 C 0.08631 0.30094 0.93568 0.0
C1351 C 0.0933 0.25825 0.92158 0.0
C1352 C 0.11213 0.30306 0.94078 0.0
C1353 C 0.11899 0.2611 0.92693 0.0
C1354 C 1.01331 0.32405 0.87331 0.0
C1355 C 0.98183 0.35675 0.87184 0.0
N1356 N 1.00004 0.37353 0.86549 0.0
C1357 C 0.03166 0.34155 0.86648 0.0
C1358 C 0.98815 0.33163 0.87576 0.0
C1359 C 0.0246 0.3665 0.86272 0.0
C1360 C 0.08404 0.26821 0.84239 0.0
N1361 N 0.07846 0.28281 0.86282 0.0
C1362 C 0.1141 0.30914 0.8544 0.0
C1363 C 0.09305 0.30296 0.86897 0.0
C1364 C 0.12026 0.29462 0.83299 0.0
C1365 C 0.10496 0.27374 0.82722 0.0
H1366 H 0.07199 0.2525 0.83758 0.0
H1367 H 0.08811 0.31458 0.885 0.0
C1368 C 0.99552 0.32241 0.95441 0.0
N1369 N 1.01341 0.32346 0.93607 0.0
C1370 C 0.99029 0.34352 0.96946 0.0
C1371 C 0.02235 0.36633 0.94695 0.0
C1372 C 0.02703 0.34476 0.93242 0.0
C1373 C 1.0036 0.36602 0.96569 0.0
H1374 H 0.98514 0.30521 0.95727 0.0
H1375 H 0.04157 0.34506 0.91816 0.0
C1376 C 0.03462 0.21937 0.86953 0.0
N1377 N 0.04328 0.16948 0.85774 0.0
C1378 C 1.01469 0.20402 0.86159 0.0
C1379 C 0.05902 0.20946 0.87109 0.0
C1380 C 1.01944 0.17881 0.8558 0.0
C1381 C 0.06299 0.18416 0.86516 0.0
C1382 C 0.97063 0.26065 0.92235 0.0
C1383 C 0.96269 0.23652 0.9287 0.0
C1384 C 0.95285 0.27993 0.92039 0.0
C1385 C 0.93699 0.23198 0.93255 0.0
C1386 C 0.92732 0.27464 0.92435 0.0
N1387 N 0.91998 0.25097 0.93027 0.0
C1388 C 0.04925 0.22006 0.95434 0.0
C1389 C 0.02301 0.19535 0.92794 0.0
C1390 C 0.05433 0.19933 0.96955 0.0
N1391 N 0.03406 0.21773 0.93377 0.0
C1392 C 0.02761 0.17412 0.94259 0.0
C1393 C 0.04363 0.17583 0.96368 0.0
H1394 H 0.05758 0.23805 0.95894 0.0
H1395 H 1.01042 0.19393 0.91201 0.0
C1396 C 0.97208 0.27919 0.83802 0.0
N1397 N 0.97264 0.26353 0.85806 0.0
C1398 C 0.9521 0.27825 0.82079 0.0
C1399 C 0.93372 0.24453 0.84455 0.0
C1400 C 0.95411 0.24615 0.86138 0.0
C1401 C 0.93237 0.26089 0.82397 0.0
H1402 H 0.98724 0.29248 0.83533 0.0
H1403 H 0.9551 0.23343 0.87702 0.0
O1404 O 0.05173 0.27608 0.92038 0.0
O1405 O 1.01994 0.2996 0.87743 0.0
O1406 O 0.03029 0.24405 0.87542 0.0
O1407 O 0.99572 0.2654 0.9184 0.0
H1408 H 0.07385 0.31666 0.93925 0.0
H1409 H 0.08625 0.24057 0.91436 0.0
H1410 H 0.1197 0.32044 0.94829 0.0
H1411 H 0.13191 0.24567 0.92366 0.0
H1412 H 0.96243 0.36288 0.87378 0.0
H1413 H 0.05118 0.336 0.86426 0.0
H1414 H 0.97365 0.31825 0.8805 0.0
H1415 H 0.03864 0.38028 0.85761 0.0
H1416 H 0.12543 0.32519 0.8599 0.0
H1417 H 0.10868 0.26215 0.81078 0.0
H1418 H 0.97555 0.34237 0.98352 0.0
H1419 H 0.03344 0.38304 0.94361 0.0
H1420 H 0.99574 0.21141 0.86012 0.0
H1421 H 0.07474 0.22118 0.8767 0.0
H1422 H 1.00416 0.16666 0.84981 0.0
H1423 H 0.08176 0.17622 0.8664 0.0
H1424 H 0.97619 0.22143 0.93052 0.0
H1425 H 0.95869 0.2988 0.916 0.0
H1426 H 0.93057 0.21336 0.93733 0.0
H1427 H 0.91335 0.28938 0.92279 0.0
H1428 H 0.06695 0.20162 0.98545 0.0
H1429 H 1.01851 0.15658 0.93754 0.0
H1430 H 0.9523 0.29086 0.80495 0.0
H1431 H 0.91901 0.23085 0.84787 0.0
Li1432 Li 0.54865 0.77608 0.38283 0.0
Li1433 Li 0.51937 0.79447 0.4147 0.0
Li1434 Li 0.5285 0.74728 0.41325 0.0
Li1435 Li 0.50109 0.76736 0.38102 0.0
C1436 C 0.57689 0.77853 0.42581 0.0
N1437 N 0.6278 0.78352 0.43624 0.0
C1438 C 0.58627 0.80109 0.43566 0.0
C1439 C 0.59334 0.7584 0.4216 0.0
C1440 C 0.61209 0.80328 0.44071 0.0
C1441 C 0.61903 0.76132 0.4269 0.0
C1442 C 0.51323 0.82406 0.37334 0.0
C1443 C 0.48167 0.85669 0.37182 0.0
N1444 N 0.49983 0.8735 0.36545 0.0
C1445 C 0.53154 0.8416 0.36648 0.0
C1446 C 0.48805 0.83159 0.37578 0.0
C1447 C 0.52441 0.86653 0.36268 0.0
C1448 C 0.58406 0.76821 0.3425 0.0
N1449 N 0.57844 0.78287 0.36287 0.0
C1450 C 0.61403 0.80923 0.35438 0.0
C1451 C 0.59299 0.80307 0.36896 0.0
C1452 C 0.62023 0.79465 0.33303 0.0
C1453 C 0.60498 0.77373 0.32732 0.0
H1454 H 0.57205 0.75246 0.33773 0.0
H1455 H 0.58801 0.81472 0.38496 0.0
C1456 C 0.49553 0.82243 0.4545 0.0
N1457 N 0.51337 0.8235 0.43612 0.0
C1458 C 0.49029 0.84354 0.46955 0.0
C1459 C 0.52225 0.8664 0.44696 0.0
C1460 C 0.52695 0.84483 0.43243 0.0
C1461 C 0.50354 0.86607 0.46574 0.0
H1462 H 0.4852 0.80521 0.4574 0.0
H1463 H 0.54145 0.84515 0.41815 0.0
C1464 C 0.5346 0.7194 0.36962 0.0
N1465 N 0.5432 0.66949 0.35789 0.0
C1466 C 0.51466 0.70407 0.36166 0.0
C1467 C 0.55897 0.70946 0.37123 0.0
C1468 C 0.51938 0.67885 0.35591 0.0
C1469 C 0.56292 0.68415 0.36533 0.0
C1470 C 0.47064 0.76069 0.42244 0.0
C1471 C 0.46269 0.73656 0.42879 0.0
C1472 C 0.45285 0.77997 0.42051 0.0
C1473 C 0.437 0.73202 0.43267 0.0
C1474 C 0.42733 0.77469 0.42451 0.0
N1475 N 0.41999 0.75102 0.43042 0.0
C1476 C 0.54931 0.72011 0.45438 0.0
C1477 C 0.52302 0.6954 0.42802 0.0
C1478 C 0.55441 0.69938 0.46958 0.0
N1479 N 0.53409 0.71778 0.43383 0.0
C1480 C 0.52765 0.67417 0.44266 0.0
C1481 C 0.54369 0.67588 0.46373 0.0
H1482 H 0.55764 0.7381 0.45896 0.0
H1483 H 0.51042 0.69398 0.4121 0.0
C1484 C 0.47211 0.77917 0.33804 0.0
N1485 N 0.47264 0.76356 0.35812 0.0
C1486 C 0.45214 0.77823 0.32081 0.0
C1487 C 0.4337 0.74459 0.34462 0.0
C1488 C 0.45408 0.74621 0.36146 0.0
C1489 C 0.43238 0.76091 0.32401 0.0
H1490 H 0.4873 0.79243 0.33533 0.0
H1491 H 0.45504 0.73351 0.37712 0.0
O1492 O 0.55172 0.77614 0.42044 0.0
O1493 O 0.51992 0.79963 0.37749 0.0
O1494 O 0.53029 0.74409 0.37548 0.0
O1495 O 0.49572 0.76543 0.41845 0.0
H1496 H 0.57378 0.81679 0.43922 0.0
H1497 H 0.58632 0.74069 0.41441 0.0
H1498 H 0.61964 0.82069 0.44819 0.0
H1499 H 0.63198 0.74591 0.42364 0.0
H1500 H 0.46226 0.86278 0.37376 0.0
H1501 H 0.55106 0.83609 0.36426 0.0
H1502 H 0.47358 0.81818 0.38055 0.0
H1503 H 0.53842 0.88033 0.35754 0.0
H1504 H 0.62533 0.82533 0.35984 0.0
H1505 H 0.60873 0.76209 0.31092 0.0
H1506 H 0.47558 0.84237 0.48364 0.0
H1507 H 0.53329 0.88313 0.44358 0.0
H1508 H 0.49572 0.71149 0.36016 0.0
H1509 H 0.5747 0.72116 0.37685 0.0
H1510 H 0.50409 0.66672 0.34991 0.0
H1511 H 0.58168 0.67618 0.36661 0.0
H1512 H 0.47619 0.72146 0.43058 0.0
H1513 H 0.45869 0.79885 0.41613 0.0
H1514 H 0.43058 0.7134 0.43745 0.0
H1515 H 0.41336 0.78943 0.42297 0.0
H1516 H 0.56705 0.70167 0.48547 0.0
H1517 H 0.51854 0.65664 0.43762 0.0
H1518 H 0.45237 0.79081 0.30494 0.0
H1519 H 0.41896 0.73094 0.34796 0.0
Li1520 Li 0.02836 0.79498 0.63326 0.0
Li1521 Li 1.00097 0.77491 0.66547 0.0
Li1522 Li 0.04853 0.76616 0.66369 0.0
Li1523 Li 1.01924 0.7478 0.63179 0.0
C1524 C 0.03443 0.82284 0.67691 0.0
N1525 N 0.04295 0.87276 0.68868 0.0
C1526 C 1.01447 0.83816 0.68485 0.0
C1527 C 0.05879 0.8328 0.67534 0.0
C1528 C 1.01914 0.86338 0.69063 0.0
C1529 C 0.0627 0.85811 0.68126 0.0
C1530 C 0.9705 0.78166 0.62403 0.0
C1531 C 0.92718 0.76776 0.62192 0.0
N1532 N 0.91986 0.79145 0.61602 0.0
C1533 C 0.96258 0.80582 0.61769 0.0
C1534 C 0.9527 0.76241 0.62593 0.0
C1535 C 0.93688 0.81041 0.6138 0.0
C1536 C 0.04916 0.82211 0.59215 0.0
N1537 N 0.03396 0.82448 0.6127 0.0
C1538 C 0.02761 0.86812 0.60389 0.0
C1539 C 0.02294 0.84689 0.61851 0.0
C1540 C 0.04364 0.86637 0.58283 0.0
C1541 C 0.0543 0.84284 0.57697 0.0
H1542 H 0.05746 0.8041 0.58757 0.0
H1543 H 1.01035 0.84834 0.63442 0.0
C1544 C 0.97209 0.7631 0.70845 0.0
N1545 N 0.97254 0.77871 0.68836 0.0
C1546 C 0.95215 0.76403 0.72569 0.0
C1547 C 0.93358 0.79764 0.70186 0.0
C1548 C 0.95393 0.79603 0.68502 0.0
C1549 C 0.93234 0.78133 0.72249 0.0
H1550 H 0.98731 0.74986 0.71116 0.0
H1551 H 0.95484 0.80872 0.66935 0.0
C1552 C 0.07676 0.76371 0.62074 0.0
N1553 N 0.12767 0.7587 0.61038 0.0
C1554 C 0.08616 0.74115 0.61088 0.0
C1555 C 0.09319 0.78383 0.625 0.0
C1556 C 0.11198 0.73896 0.60586 0.0
C1557 C 0.11888 0.7809 0.61973 0.0
C1558 C 1.01314 0.7182 0.67312 0.0
C1559 C 0.03145 0.70063 0.67999 0.0
C1560 C 0.98796 0.7107 0.67064 0.0
C1561 C 0.02432 0.67571 0.68376 0.0
C1562 C 0.98158 0.68561 0.67458 0.0
N1563 N 0.99975 0.66877 0.68096 0.0
C1564 C 0.08398 0.77401 0.70403 0.0
C1565 C 0.09289 0.73914 0.67758 0.0
C1566 C 0.10491 0.76849 0.71921 0.0
N1567 N 0.07834 0.75935 0.68366 0.0
C1568 C 0.11396 0.73297 0.69216 0.0
C1569 C 0.12018 0.74755 0.71351 0.0
H1570 H 0.07196 0.78977 0.70878 0.0
H1571 H 0.08791 0.72748 0.66159 0.0
C1572 C 0.99537 0.71984 0.59199 0.0
N1573 N 1.01325 0.71877 0.61036 0.0
C1574 C 0.99014 0.69873 0.57694 0.0
C1575 C 0.02218 0.67588 0.59952 0.0
C1576 C 0.02687 0.69745 0.61405 0.0
C1577 C 1.00344 0.67621 0.58075 0.0
H1578 H 0.985 0.73705 0.5891 0.0
H1579 H 0.0414 0.69713 0.62833 0.0
O1580 O 0.03017 0.79816 0.67103 0.0
O1581 O 0.99558 0.77686 0.62802 0.0
O1582 O 0.05159 0.76611 0.62608 0.0
O1583 O 1.01982 0.74262 0.669 0.0
H1584 H 0.99554 0.83073 0.68633 0.0
H1585 H 0.07454 0.82111 0.66972 0.0
H1586 H 1.00383 0.8755 0.69662 0.0
H1587 H 0.08144 0.8661 0.68001 0.0
H1588 H 0.9132 0.75305 0.62343 0.0
H1589 H 0.97609 0.82088 0.61592 0.0
H1590 H 0.95852 0.74352 0.6303 0.0
H1591 H 0.93048 0.82905 0.60903 0.0
H1592 H 1.01854 0.88568 0.60893 0.0
H1593 H 0.06693 0.84052 0.5611 0.0
H1594 H 0.95244 0.75145 0.74157 0.0
H1595 H 0.91881 0.81127 0.69853 0.0
H1596 H 0.07368 0.72546 0.60728 0.0
H1597 H 0.08615 0.80152 0.6322 0.0
H1598 H 0.11954 0.72156 0.59837 0.0
H1599 H 0.13182 0.7963 0.62303 0.0
H1600 H 0.05098 0.70612 0.68223 0.0
H1601 H 0.97349 0.72413 0.66587 0.0
H1602 H 0.03833 0.66189 0.68891 0.0
H1603 H 0.96217 0.67954 0.67261 0.0
H1604 H 0.10868 0.78013 0.7356 0.0
H1605 H 0.12526 0.71686 0.68671 0.0
H1606 H 0.9754 0.69989 0.56285 0.0
H1607 H 0.03326 0.65915 0.60289 0.0
Li1608 Li 0.52836 0.29504 0.13326 0.0
Li1609 Li 0.50101 0.27493 0.16546 0.0
Li1610 Li 0.54858 0.26619 0.16369 0.0
Li1611 Li 0.51926 0.24787 0.13179 0.0
C1612 C 0.53463 0.3228 0.17708 0.0
N1613 N 0.54352 0.37256 0.18922 0.0
C1614 C 0.51477 0.33822 0.18506 0.0
C1615 C 0.55908 0.33257 0.17566 0.0
C1616 C 0.51963 0.36336 0.19102 0.0
C1617 C 0.56317 0.35781 0.18177 0.0
C1618 C 0.4705 0.28189 0.12422 0.0
C1619 C 0.42707 0.26829 0.12251 0.0
N1620 N 0.41987 0.29203 0.11661 0.0
C1621 C 0.46271 0.30609 0.1179 0.0
C1622 C 0.45258 0.26277 0.12631 0.0
C1623 C 0.43701 0.31085 0.11421 0.0
C1624 C 0.54892 0.32214 0.092 0.0
N1625 N 0.53394 0.32455 0.1127 0.0
C1626 C 0.52779 0.36825 0.10406 0.0
C1627 C 0.52313 0.34702 0.11867 0.0
C1628 C 0.5436 0.36646 0.08284 0.0
C1629 C 0.55405 0.34287 0.07682 0.0
H1630 H 0.55705 0.30408 0.08728 0.0
H1631 H 0.51069 0.34852 0.1347 0.0
C1632 C 0.47192 0.26287 0.20825 0.0
N1633 N 0.47258 0.27871 0.18835 0.0
C1634 C 0.45196 0.26379 0.22547 0.0
C1635 C 0.43378 0.29787 0.20201 0.0
C1636 C 0.45414 0.29626 0.18518 0.0
C1637 C 0.43234 0.28133 0.22244 0.0
H1638 H 0.487 0.24944 0.21082 0.0
H1639 H 0.4552 0.30911 0.16966 0.0
C1640 C 0.57676 0.26404 0.12055 0.0
N1641 N 0.62764 0.25955 0.1098 0.0
C1642 C 0.58629 0.2416 0.11055 0.0
C1643 C 0.59302 0.28429 0.12475 0.0
C1644 C 0.6121 0.23967 0.10533 0.0
C1645 C 0.6187 0.28163 0.11928 0.0
C1646 C 0.51344 0.21812 0.17292 0.0
C1647 C 0.53193 0.20068 0.17964 0.0
C1648 C 0.48835 0.21038 0.17034 0.0
C1649 C 0.52507 0.17565 0.18318 0.0
C1650 C 0.48223 0.18519 0.17404 0.0
N1651 N 0.50057 0.16848 0.1803 0.0
C1652 C 0.58383 0.27385 0.20423 0.0
C1653 C 0.59318 0.23942 0.17735 0.0
C1654 C 0.60476 0.26833 0.21941 0.0
N1655 N 0.57841 0.2594 0.18365 0.0
C1656 C 0.61425 0.23325 0.19193 0.0
C1657 C 0.62025 0.24761 0.21349 0.0
H1658 H 0.57164 0.28943 0.20916 0.0
H1659 H 0.58835 0.22791 0.1612 0.0
C1660 C 0.49514 0.21981 0.09222 0.0
N1661 N 0.51327 0.21885 0.11035 0.0
C1662 C 0.48989 0.1987 0.07717 0.0
C1663 C 0.52244 0.17607 0.09927 0.0
C1664 C 0.52713 0.19763 0.11379 0.0
C1665 C 0.50345 0.17629 0.08074 0.0
H1666 H 0.48457 0.23694 0.08953 0.0
H1667 H 0.54184 0.1974 0.1279 0.0
O1668 O 0.53019 0.29818 0.17102 0.0
O1669 O 0.49558 0.27691 0.12802 0.0
O1670 O 0.5516 0.26617 0.12608 0.0
O1671 O 0.51987 0.24265 0.169 0.0
H1672 H 0.49577 0.33093 0.18642 0.0
H1673 H 0.57475 0.32079 0.17004 0.0
H1674 H 0.5044 0.37556 0.19704 0.0
H1675 H 0.58198 0.36564 0.18064 0.0
H1676 H 0.41299 0.25369 0.12418 0.0
H1677 H 0.47631 0.32105 0.11599 0.0
H1678 H 0.4583 0.24385 0.13069 0.0
H1679 H 0.4307 0.32953 0.10946 0.0
H1680 H 0.51888 0.38586 0.10923 0.0
H1681 H 0.56651 0.34051 0.06082 0.0
H1682 H 0.4521 0.25103 0.24119 0.0
H1683 H 0.41915 0.31168 0.19881 0.0
H1684 H 0.57394 0.2258 0.10699 0.0
H1685 H 0.58587 0.3019 0.13206 0.0
H1686 H 0.61977 0.22237 0.09773 0.0
H1687 H 0.63151 0.29714 0.12253 0.0
H1688 H 0.5514 0.20636 0.18195 0.0
H1689 H 0.47374 0.2237 0.16566 0.0
H1690 H 0.53922 0.16193 0.18821 0.0
H1691 H 0.46289 0.17893 0.172 0.0
H1692 H 0.60836 0.27978 0.23597 0.0
H1693 H 0.62572 0.21732 0.18631 0.0
H1694 H 0.47496 0.19978 0.06329 0.0
H1695 H 0.5337 0.15942 0.10244 0.0
loop_
_geom_bond_atom_site_label_1
_geom_bond_atom_site_label_2
_geom_bond_distance
_geom_bond_site_symmetry_2
_ccdc_geom_bond_type
C0 C1 1.264 1_545 S
C0 C5 1.479 . S
C0 C10 1.465 . S
C1 C0 1.264 1_565 S
C1 C3 1.339 . S
C1 H28 0.931 . S
C2 C3 1.395 1_545 S
C2 C4 1.320 . S
C3 C1 1.339 . S
C3 C2 1.395 1_565 S
C3 H29 0.929 . S
C4 C2 1.320 . S
C4 C5 1.405 . S
C4 H30 0.930 . S
C5 C0 1.479 . S
C5 C4 1.405 . S
C5 H31 0.931 . S
U6 O7 2.454 . S
U6 O8 2.458 1_554 S
U6 C9 2.984 1_554 S
U6 C10 2.847 1_455 S
U6 C23 2.882 1_545 S
U6 O24 2.441 1_455 S
U6 O25 2.420 . S
U6 O26 2.455 . S
U6 O27 2.449 1_545 S
O7 U6 2.454 . S
O7 C9 1.353 1_554 S
O8 U6 2.458 1_556 S
O8 C9 1.286 . S
C9 U6 2.984 1_556 S
C9 O7 1.353 1_556 S
C9 O8 1.286 . S
C9 C11 1.363 . S
C10 C0 1.465 . S
C10 U6 2.847 1_655 S
C10 O24 1.249 . S
C10 O25 1.202 1_655 S
C11 C9 1.363 . S
C11 C13 1.408 . S
C11 C16 1.342 . S
C12 C13 1.314 . S
C12 C15 1.489 . S
C12 H32 0.901 1_455 S
C13 C11 1.408 . S
C13 C12 1.314 . S
C13 H33 0.930 1_455 S
C14 C15 1.474 . S
C14 C16 1.285 . S
C14 H34 0.929 . S
C15 C12 1.489 . S
C15 C14 1.474 . S
C16 C11 1.342 . S
C16 C14 1.285 . S
C16 H35 0.930 . S
C17 C20 1.424 . S
C17 C22 1.221 1_554 S
C17 C23 1.428 . S
C18 C21 1.231 1_556 S
C18 C22 1.477 . S
C18 H36 0.966 . S
C19 C20 1.384 . S
C19 C21 1.479 . S
C19 H37 0.929 . S
C20 C17 1.424 . S
C20 C19 1.384 . S
C20 H38 0.928 . S
C21 C18 1.231 1_554 S
C21 C19 1.479 . S
C22 C17 1.221 1_556 S
C22 C18 1.477 . S
C22 H39 0.955 . S
C23 U6 2.882 1_565 S
C23 C17 1.428 . S
C23 O26 1.301 1_565 S
C23 O27 1.282 . S
O24 U6 2.441 1_655 S
O24 C10 1.249 . S
O25 U6 2.420 . S
O25 C10 1.202 1_455 S
O26 U6 2.455 . S
O26 C23 1.301 1_545 S
O27 U6 2.449 1_565 S
O27 C23 1.282 . S
H28 C1 0.931 . S
H29 C3 0.929 . S
H30 C4 0.930 . S
H31 C5 0.931 . S
H32 C12 0.901 1_655 S
H33 C13 0.930 1_655 S
H34 C14 0.929 . S
H35 C16 0.930 . S
H36 C18 0.966 . S
H37 C19 0.929 . S
H38 C20 0.928 . S
H39 C22 0.955 . S
C40 C41 1.264 . S
C40 C45 1.479 . S
C40 C50 1.465 . S
C41 C40 1.264 . S
C41 C43 1.339 . S
C41 H68 0.931 . S
C42 C43 1.395 . S
C42 C44 1.320 . S
C43 C41 1.339 . S
C43 C42 1.395 . S
C43 H69 0.929 . S
C44 C42 1.320 . S
C44 C45 1.405 . S
C44 H70 0.930 . S
C45 C40 1.479 . S
C45 C44 1.405 . S
C45 H71 0.931 . S
U46 O47 2.454 . S
U46 O48 2.458 . S
U46 C49 2.984 . S
U46 C50 2.847 . S
U46 C63 2.882 . S
U46 O64 2.441 . S
U46 O65 2.420 . S
U46 O66 2.455 . S
U46 O67 2.449 . S
O47 U46 2.454 . S
O47 C49 1.353 . S
O48 U46 2.458 . S
O48 C49 1.286 . S
C49 U46 2.984 . S
C49 O47 1.353 . S
C49 O48 1.286 . S
C49 C51 1.363 . S
C50 C40 1.465 . S
C50 U46 2.847 . S
C50 O64 1.249 . S
C50 O65 1.202 . S
C51 C49 1.363 . S
C51 C53 1.408 . S
C51 C56 1.342 . S
C52 C53 1.310 . S
C52 C55 1.461 . S
C52 H72 0.932 . S
C53 C51 1.408 . S
C53 C52 1.310 . S
C53 H73 0.930 . S
C54 C55 1.474 . S
C54 C56 1.285 . S
C54 H74 0.929 . S
C55 C52 1.461 . S
C55 C54 1.474 . S
C56 C51 1.342 . S
C56 C54 1.285 . S
C56 H75 0.930 . S
C57 C60 1.424 . S
C57 C62 1.245 . S
C57 C63 1.428 . S
C58 C61 1.260 . S
C58 C62 1.477 . S
C58 H76 0.932 . S
C59 C60 1.384 . S
C59 C61 1.479 . S
C59 H77 0.929 . S
C60 C57 1.424 . S
C60 C59 1.384 . S
C60 H78 0.928 . S
C61 C58 1.260 . S
C61 C59 1.479 . S
C62 C57 1.245 . S
C62 C58 1.477 . S
C62 H79 0.932 . S
C63 U46 2.882 . S
C63 C57 1.428 . S
C63 O66 1.301 . S
C63 O67 1.282 . S
O64 U46 2.441 . S
O64 C50 1.249 . S
O65 U46 2.420 . S
O65 C50 1.202 . S
O66 U46 2.455 . S
O66 C63 1.301 . S
O67 U46 2.449 . S
O67 C63 1.282 . S
H68 C41 0.931 . S
H69 C43 0.929 . S
H70 C44 0.930 . S
H71 C45 0.931 . S
H72 C52 0.932 . S
H73 C53 0.930 . S
H74 C54 0.929 . S
H75 C56 0.930 . S
H76 C58 0.932 . S
H77 C59 0.929 . S
H78 C60 0.928 . S
H79 C62 0.932 . S
C80 C81 1.264 1_655 S
C80 C85 1.479 . S
C80 C90 1.465 . S
C81 C80 1.264 1_455 S
C81 C83 1.339 . S
C81 H108 0.931 . S
C82 C83 1.395 1_655 S
C82 C84 1.320 . S
C83 C81 1.339 . S
C83 C82 1.395 1_455 S
C83 H109 0.929 . S
C84 C82 1.320 . S
C84 C85 1.405 . S
C84 H110 0.930 . S
C85 C80 1.479 . S
C85 C84 1.405 . S
C85 H111 0.931 . S
U86 O87 2.454 . S
U86 O88 2.458 . S
U86 C89 2.984 . S
U86 C90 2.847 1_554 S
U86 C103 2.882 1_655 S
U86 O104 2.441 1_554 S
U86 O105 2.420 1_655 S
U86 O106 2.455 . S
U86 O107 2.449 1_655 S
O87 U86 2.454 . S
O87 C89 1.353 . S
O88 U86 2.458 . S
O88 C89 1.286 . S
C89 U86 2.984 . S
C89 O87 1.353 . S
C89 O88 1.286 . S
C89 C91 1.363 . S
C90 C80 1.465 . S
C90 U86 2.847 1_556 S
C90 O104 1.249 . S
C90 O105 1.202 1_656 S
C91 C89 1.363 . S
C91 C93 1.388 1_554 S
C91 C96 1.342 . S
C92 C93 1.313 . S
C92 C95 1.461 1_556 S
C92 H112 0.932 . S
C93 C91 1.388 1_556 S
C93 C92 1.313 . S
C93 H113 0.947 . S
C94 C95 1.474 . S
C94 C96 1.285 . S
C94 H114 0.929 . S
C95 C92 1.461 1_554 S
C95 C94 1.474 . S
C96 C91 1.342 . S
C96 C94 1.285 . S
C96 H115 0.930 . S
C97 C100 1.424 . S
C97 C102 1.245 . S
C97 C103 1.428 . S
C98 C101 1.260 . S
C98 C102 1.477 . S
C98 H116 0.932 . S
C99 C100 1.384 . S
C99 C101 1.479 . S
C99 H117 0.929 . S
C100 C97 1.424 . S
C100 C99 1.384 . S
C100 H118 0.928 . S
C101 C98 1.260 . S
C101 C99 1.479 . S
C102 C97 1.245 . S
C102 C98 1.477 . S
C102 H119 0.932 . S
C103 U86 2.882 1_455 S
C103 C97 1.428 . S
C103 O106 1.301 1_455 S
C103 O107 1.282 . S
O104 U86 2.441 1_556 S
O104 C90 1.249 . S
O105 U86 2.420 1_455 S
O105 C90 1.202 1_454 S
O106 U86 2.455 . S
O106 C103 1.301 1_655 S
O107 U86 2.449 1_455 S
O107 C103 1.282 . S
H108 C81 0.931 . S
H109 C83 0.929 . S
H110 C84 0.930 . S
H111 C85 0.931 . S
H112 C92 0.932 . S
H113 C93 0.947 . S
H114 C94 0.929 . S
H115 C96 0.930 . S
H116 C98 0.932 . S
H117 C99 0.929 . S
H118 C100 0.928 . S
H119 C102 0.932 . S
C120 C121 1.264 . S
C120 C125 1.479 . S
C120 C130 1.465 . S
C121 C120 1.264 . S
C121 C123 1.339 . S
C121 H148 0.931 . S
C122 C123 1.395 . S
C122 C124 1.320 . S
C123 C121 1.339 . S
C123 C122 1.395 . S
C123 H149 0.929 . S
C124 C122 1.320 . S
C124 C125 1.405 . S
C124 H150 0.930 . S
C125 C120 1.479 . S
C125 C124 1.405 . S
C125 H151 0.931 . S
U126 O127 2.454 . S
U126 O128 2.458 . S
U126 C129 2.984 . S
U126 C130 2.847 . S
U126 C143 2.882 . S
U126 O144 2.441 . S
U126 O145 2.420 . S
U126 O146 2.455 . S
U126 O147 2.449 . S
O127 U126 2.454 . S
O127 C129 1.353 . S
O128 U126 2.458 . S
O128 C129 1.286 . S
C129 U126 2.984 . S
C129 O127 1.353 . S
C129 O128 1.286 . S
C129 C131 1.363 . S
C130 C120 1.465 . S
C130 U126 2.847 . S
C130 O144 1.249 . S
C130 O145 1.202 . S
C131 C129 1.363 . S
C131 C133 1.408 . S
C131 C136 1.342 . S
C132 C133 1.310 . S
C132 C135 1.461 . S
C132 H152 0.932 . S
C133 C131 1.408 . S
C133 C132 1.310 . S
C133 H153 0.930 . S
C134 C135 1.474 . S
C134 C136 1.285 . S
C134 H154 0.929 . S
C135 C132 1.461 . S
C135 C134 1.474 . S
C136 C131 1.342 . S
C136 C134 1.285 . S
C136 H155 0.930 . S
C137 C140 1.424 . S
C137 C142 1.245 . S
C137 C143 1.428 . S
C138 C141 1.260 . S
C138 C142 1.477 . S
C138 H156 0.932 . S
C139 C140 1.384 . S
C139 C141 1.479 . S
C139 H157 0.929 . S
C140 C137 1.424 . S
C140 C139 1.384 . S
C140 H158 0.928 . S
C141 C138 1.260 . S
C141 C139 1.479 . S
C142 C137 1.245 . S
C142 C138 1.477 . S
C142 H159 0.932 . S
C143 U126 2.882 . S
C143 C137 1.428 . S
C143 O146 1.301 . S
C143 O147 1.282 . S
O144 U126 2.441 . S
O144 C130 1.249 . S
O145 U126 2.420 . S
O145 C130 1.202 . S
O146 U126 2.455 . S
O146 C143 1.301 . S
O147 U126 2.449 . S
O147 C143 1.282 . S
H148 C121 0.931 . S
H149 C123 0.929 . S
H150 C124 0.930 . S
H151 C125 0.931 . S
H152 C132 0.932 . S
H153 C133 0.930 . S
H154 C134 0.929 . S
H155 C136 0.930 . S
H156 C138 0.932 . S
H157 C139 0.929 . S
H158 C140 0.928 . S
H159 C142 0.932 . S
C160 C161 1.264 1_565 S
C160 C165 1.479 . S
C160 C170 1.465 . S
C161 C160 1.264 1_545 S
C161 C163 1.339 . S
C161 H188 0.931 . S
C162 C163 1.395 1_565 S
C162 C164 1.320 . S
C163 C161 1.339 . S
C163 C162 1.395 1_545 S
C163 H189 0.929 . S
C164 C162 1.320 . S
C164 C165 1.405 . S
C164 H190 0.930 . S
C165 C160 1.479 . S
C165 C164 1.405 . S
C165 H191 0.931 . S
U166 O167 2.454 . S
U166 O168 2.458 . S
U166 C169 2.984 . S
U166 C170 2.847 1_455 S
U166 C183 2.882 1_565 S
U166 O184 2.441 1_455 S
U166 O185 2.420 . S
U166 O186 2.455 . S
U166 O187 2.449 1_565 S
O167 U166 2.454 . S
O167 C169 1.353 . S
O168 U166 2.458 . S
O168 C169 1.286 . S
C169 U166 2.984 . S
C169 O167 1.353 . S
C169 O168 1.286 . S
C169 C171 1.363 . S
C170 C160 1.465 . S
C170 U166 2.847 1_655 S
C170 O184 1.249 . S
C170 O185 1.202 1_655 S
C171 C169 1.363 . S
C171 C173 1.408 . S
C171 C176 1.342 . S
C172 C173 1.314 . S
C172 C175 1.489 . S
C172 H192 0.901 1_455 S
C173 C171 1.408 . S
C173 C172 1.314 . S
C173 H193 0.930 1_455 S
C174 C175 1.474 . S
C174 C176 1.285 . S
C174 H194 0.929 . S
C175 C172 1.489 . S
C175 C174 1.474 . S
C176 C171 1.342 . S
C176 C174 1.285 . S
C176 H195 0.930 . S
C177 C180 1.424 . S
C177 C182 1.245 . S
C177 C183 1.428 . S
C178 C181 1.260 . S
C178 C182 1.477 . S
C178 H196 0.932 . S
C179 C180 1.384 . S
C179 C181 1.479 . S
C179 H197 0.929 . S
C180 C177 1.424 . S
C180 C179 1.384 . S
C180 H198 0.928 . S
C181 C178 1.260 . S
C181 C179 1.479 . S
C182 C177 1.245 . S
C182 C178 1.477 . S
C182 H199 0.932 . S
C183 U166 2.882 1_545 S
C183 C177 1.428 . S
C183 O186 1.301 1_545 S
C183 O187 1.282 . S
O184 U166 2.441 1_655 S
O184 C170 1.249 . S
O185 U166 2.420 . S
O185 C170 1.202 1_455 S
O186 U166 2.455 . S
O186 C183 1.301 1_565 S
O187 U166 2.449 1_545 S
O187 C183 1.282 . S
H188 C161 0.931 . S
H189 C163 0.929 . S
H190 C164 0.930 . S
H191 C165 0.931 . S
H192 C172 0.901 1_655 S
H193 C173 0.930 1_655 S
H194 C174 0.929 . S
H195 C176 0.930 . S
H196 C178 0.932 . S
H197 C179 0.929 . S
H198 C180 0.928 . S
H199 C182 0.932 . S
C200 C201 1.264 . S
C200 C205 1.479 . S
C200 C210 1.465 . S
C201 C200 1.264 . S
C201 C203 1.339 . S
C201 H228 0.931 . S
C202 C203 1.395 . S
C202 C204 1.320 . S
C203 C201 1.339 . S
C203 C202 1.395 . S
C203 H229 0.929 . S
C204 C202 1.320 . S
C204 C205 1.405 . S
C204 H230 0.930 . S
C205 C200 1.479 . S
C205 C204 1.405 . S
C205 H231 0.931 . S
U206 O207 2.454 . S
U206 O208 2.458 . S
U206 C209 2.984 . S
U206 C210 2.847 . S
U206 C223 2.882 . S
U206 O224 2.441 . S
U206 O225 2.420 . S
U206 O226 2.455 . S
U206 O227 2.449 . S
O207 U206 2.454 . S
O207 C209 1.353 . S
O208 U206 2.458 . S
O208 C209 1.286 . S
C209 U206 2.984 . S
C209 O207 1.353 . S
C209 O208 1.286 . S
C209 C211 1.363 . S
C210 C200 1.465 . S
C210 U206 2.847 . S
C210 O224 1.249 . S
C210 O225 1.202 . S
C211 C209 1.363 . S
C211 C213 1.408 . S
C211 C216 1.342 . S
C212 C213 1.310 . S
C212 C215 1.461 . S
C212 H232 0.932 . S
C213 C211 1.408 . S
C213 C212 1.310 . S
C213 H233 0.930 . S
C214 C215 1.474 . S
C214 C216 1.285 . S
C214 H234 0.929 . S
C215 C212 1.461 . S
C215 C214 1.474 . S
C216 C211 1.342 . S
C216 C214 1.285 . S
C216 H235 0.930 . S
C217 C220 1.424 . S
C217 C222 1.245 . S
C217 C223 1.428 . S
C218 C221 1.260 . S
C218 C222 1.477 . S
C218 H236 0.932 . S
C219 C220 1.384 . S
C219 C221 1.479 . S
C219 H237 0.929 . S
C220 C217 1.424 . S
C220 C219 1.384 . S
C220 H238 0.928 . S
C221 C218 1.260 . S
C221 C219 1.479 . S
C222 C217 1.245 . S
C222 C218 1.477 . S
C222 H239 0.932 . S
C223 U206 2.882 . S
C223 C217 1.428 . S
C223 O226 1.301 . S
C223 O227 1.282 . S
O224 U206 2.441 . S
O224 C210 1.249 . S
O225 U206 2.420 . S
O225 C210 1.202 . S
O226 U206 2.455 . S
O226 C223 1.301 . S
O227 U206 2.449 . S
O227 C223 1.282 . S
H228 C201 0.931 . S
H229 C203 0.929 . S
H230 C204 0.930 . S
H231 C205 0.931 . S
H232 C212 0.932 . S
H233 C213 0.930 . S
H234 C214 0.929 . S
H235 C216 0.930 . S
H236 C218 0.932 . S
H237 C219 0.929 . S
H238 C220 0.928 . S
H239 C222 0.932 . S
C240 C241 1.264 1_655 S
C240 C245 1.479 . S
C240 C250 1.465 . S
C241 C240 1.264 1_455 S
C241 C243 1.339 . S
C241 H268 0.931 . S
C242 C243 1.395 1_655 S
C242 C244 1.320 . S
C243 C241 1.339 . S
C243 C242 1.395 1_455 S
C243 H269 0.929 . S
C244 C242 1.320 . S
C244 C245 1.405 . S
C244 H270 0.930 . S
C245 C240 1.479 . S
C245 C244 1.405 . S
C245 H271 0.931 . S
U246 O247 2.454 . S
U246 O248 2.458 . S
U246 C249 2.984 . S
U246 C250 2.847 . S
U246 C263 2.882 1_655 S
U246 O264 2.441 . S
U246 O265 2.420 1_655 S
U246 O266 2.455 . S
U246 O267 2.449 1_655 S
O247 U246 2.454 . S
O247 C249 1.353 . S
O248 U246 2.458 . S
O248 C249 1.286 . S
C249 U246 2.984 . S
C249 O247 1.353 . S
C249 O248 1.286 . S
C249 C251 1.363 . S
C250 C240 1.465 . S
C250 U246 2.847 . S
C250 O264 1.249 . S
C250 O265 1.202 1_655 S
C251 C249 1.363 . S
C251 C253 1.408 . S
C251 C256 1.342 . S
C252 C253 1.310 . S
C252 C255 1.461 . S
C252 H272 0.932 . S
C253 C251 1.408 . S
C253 C252 1.310 . S
C253 H273 0.930 . S
C254 C255 1.474 . S
C254 C256 1.285 . S
C254 H274 0.929 . S
C255 C252 1.461 . S
C255 C254 1.474 . S
C256 C251 1.342 . S
C256 C254 1.285 . S
C256 H275 0.930 . S
C257 C260 1.424 . S
C257 C262 1.245 . S
C257 C263 1.428 . S
C258 C261 1.260 . S
C258 C262 1.477 . S
C258 H276 0.932 . S
C259 C260 1.384 . S
C259 C261 1.479 . S
C259 H277 0.929 . S
C260 C257 1.424 . S
C260 C259 1.384 . S
C260 H278 0.928 . S
C261 C258 1.260 . S
C261 C259 1.479 . S
C262 C257 1.245 . S
C262 C258 1.477 . S
C262 H279 0.932 . S
C263 U246 2.882 1_455 S
C263 C257 1.428 . S
C263 O266 1.301 1_455 S
C263 O267 1.282 . S
O264 U246 2.441 . S
O264 C250 1.249 . S
O265 U246 2.420 1_455 S
O265 C250 1.202 1_455 S
O266 U246 2.455 . S
O266 C263 1.301 1_655 S
O267 U246 2.449 1_455 S
O267 C263 1.282 . S
H268 C241 0.931 . S
H269 C243 0.929 . S
H270 C244 0.930 . S
H271 C245 0.931 . S
H272 C252 0.932 . S
H273 C253 0.930 . S
H274 C254 0.929 . S
H275 C256 0.930 . S
H276 C258 0.932 . S
H277 C259 0.929 . S
H278 C260 0.928 . S
H279 C262 0.932 . S
C280 C281 1.264 . S
C280 C285 1.479 . S
C280 C290 1.465 . S
C281 C280 1.264 . S
C281 C283 1.339 . S
C281 H308 0.931 . S
C282 C283 1.395 . S
C282 C284 1.320 . S
C283 C281 1.339 . S
C283 C282 1.395 . S
C283 H309 0.929 . S
C284 C282 1.320 . S
C284 C285 1.405 . S
C284 H310 0.930 . S
C285 C280 1.479 . S
C285 C284 1.405 . S
C285 H311 0.931 . S
U286 O287 2.454 . S
U286 O288 2.458 . S
U286 C289 2.984 . S
U286 C290 2.847 . S
U286 C303 2.882 . S
U286 O304 2.441 . S
U286 O305 2.420 . S
U286 O306 2.455 . S
U286 O307 2.449 . S
O287 U286 2.454 . S
O287 C289 1.353 . S
O288 U286 2.458 . S
O288 C289 1.286 . S
C289 U286 2.984 . S
C289 O287 1.353 . S
C289 O288 1.286 . S
C289 C291 1.363 . S
C290 C280 1.465 . S
C290 U286 2.847 . S
C290 O304 1.249 . S
C290 O305 1.202 . S
C291 C289 1.363 . S
C291 C293 1.408 . S
C291 C296 1.342 . S
C292 C293 1.310 . S
C292 C295 1.461 . S
C292 H312 0.932 . S
C293 C291 1.408 . S
C293 C292 1.310 . S
C293 H313 0.930 . S
C294 C295 1.474 . S
C294 C296 1.285 . S
C294 H314 0.929 . S
C295 C292 1.461 . S
C295 C294 1.474 . S
C296 C291 1.342 . S
C296 C294 1.285 . S
C296 H315 0.930 . S
C297 C300 1.424 . S
C297 C302 1.245 . S
C297 C303 1.428 . S
C298 C301 1.260 . S
C298 C302 1.477 . S
C298 H316 0.932 . S
C299 C300 1.384 . S
C299 C301 1.479 . S
C299 H317 0.929 . S
C300 C297 1.424 . S
C300 C299 1.384 . S
C300 H318 0.928 . S
C301 C298 1.260 . S
C301 C299 1.479 . S
C302 C297 1.245 . S
C302 C298 1.477 . S
C302 H319 0.932 . S
C303 U286 2.882 . S
C303 C297 1.428 . S
C303 O306 1.301 . S
C303 O307 1.282 . S
O304 U286 2.441 . S
O304 C290 1.249 . S
O305 U286 2.420 . S
O305 C290 1.202 . S
O306 U286 2.455 . S
O306 C303 1.301 . S
O307 U286 2.449 . S
O307 C303 1.282 . S
H308 C281 0.931 . S
H309 C283 0.929 . S
H310 C284 0.930 . S
H311 C285 0.931 . S
H312 C292 0.932 . S
H313 C293 0.930 . S
H314 C294 0.929 . S
H315 C296 0.930 . S
H316 C298 0.932 . S
H317 C299 0.929 . S
H318 C300 0.928 . S
H319 C302 0.932 . S
C320 C321 1.264 . S
C320 C325 1.479 . S
C320 C330 1.465 . S
C321 C320 1.264 . S
C321 C323 1.339 . S
C321 H348 0.931 . S
C322 C323 1.395 . S
C322 C324 1.320 . S
C323 C321 1.339 . S
C323 C322 1.395 . S
C323 H349 0.929 . S
C324 C322 1.320 . S
C324 C325 1.405 . S
C324 H350 0.930 . S
C325 C320 1.479 . S
C325 C324 1.405 . S
C325 H351 0.931 . S
U326 O327 2.454 . S
U326 O328 2.458 . S
U326 C329 2.984 . S
U326 C330 2.847 . S
U326 C343 2.882 . S
U326 O344 2.441 . S
U326 O345 2.420 . S
U326 O346 2.455 . S
U326 O347 2.449 . S
O327 U326 2.454 . S
O327 C329 1.353 . S
O328 U326 2.458 . S
O328 C329 1.286 . S
C329 U326 2.984 . S
C329 O327 1.353 . S
C329 O328 1.286 . S
C329 C331 1.363 . S
C330 C320 1.465 . S
C330 U326 2.847 . S
C330 O344 1.249 . S
C330 O345 1.202 . S
C331 C329 1.363 . S
C331 C333 1.408 . S
C331 C336 1.342 . S
C332 C333 1.310 . S
C332 C335 1.461 . S
C332 H352 0.932 . S
C333 C331 1.408 . S
C333 C332 1.310 . S
C333 H353 0.930 . S
C334 C335 1.474 . S
C334 C336 1.285 . S
C334 H354 0.929 . S
C335 C332 1.461 . S
C335 C334 1.474 . S
C336 C331 1.342 . S
C336 C334 1.285 . S
C336 H355 0.930 . S
C337 C340 1.424 . S
C337 C342 1.245 . S
C337 C343 1.428 . S
C338 C341 1.260 . S
C338 C342 1.477 . S
C338 H356 0.932 . S
C339 C340 1.384 . S
C339 C341 1.479 . S
C339 H357 0.929 . S
C340 C337 1.424 . S
C340 C339 1.384 . S
C340 H358 0.928 . S
C341 C338 1.260 . S
C341 C339 1.479 . S
C342 C337 1.245 . S
C342 C338 1.477 . S
C342 H359 0.932 . S
C343 U326 2.882 . S
C343 C337 1.428 . S
C343 O346 1.301 . S
C343 O347 1.282 . S
O344 U326 2.441 . S
O344 C330 1.249 . S
O345 U326 2.420 . S
O345 C330 1.202 . S
O346 U326 2.455 . S
O346 C343 1.301 . S
O347 U326 2.449 . S
O347 C343 1.282 . S
H348 C321 0.931 . S
H349 C323 0.929 . S
H350 C324 0.930 . S
H351 C325 0.931 . S
H352 C332 0.932 . S
H353 C333 0.930 . S
H354 C334 0.929 . S
H355 C336 0.930 . S
H356 C338 0.932 . S
H357 C339 0.929 . S
H358 C340 0.928 . S
H359 C342 0.932 . S
C360 C361 1.264 . S
C360 C365 1.479 . S
C360 C370 1.465 . S
C361 C360 1.264 . S
C361 C363 1.339 . S
C361 H388 0.931 . S
C362 C363 1.395 . S
C362 C364 1.320 . S
C363 C361 1.339 . S
C363 C362 1.395 . S
C363 H389 0.929 . S
C364 C362 1.320 . S
C364 C365 1.405 . S
C364 H390 0.930 . S
C365 C360 1.479 . S
C365 C364 1.405 . S
C365 H391 0.931 . S
U366 O367 2.454 . S
U366 O368 2.458 1_565 S
U366 C369 2.984 1_565 S
U366 C370 2.847 . S
U366 C383 2.882 . S
U366 O384 2.441 . S
U366 O385 2.420 . S
U366 O386 2.447 1_565 S
U366 O387 2.449 . S
O367 U366 2.454 . S
O367 C369 1.353 1_565 S
O368 U366 2.458 1_545 S
O368 C369 1.286 . S
C369 U366 2.984 1_545 S
C369 O367 1.353 1_545 S
C369 O368 1.286 . S
C369 C371 1.363 . S
C370 C360 1.465 . S
C370 U366 2.847 . S
C370 O384 1.249 . S
C370 O385 1.202 . S
C371 C369 1.363 . S
C371 C373 1.408 . S
C371 C376 1.342 . S
C372 C373 1.310 . S
C372 C375 1.461 . S
C372 H392 0.932 . S
C373 C371 1.408 . S
C373 C372 1.310 . S
C373 H393 0.930 . S
C374 C375 1.474 . S
C374 C376 1.285 . S
C374 H394 0.929 . S
C375 C372 1.461 . S
C375 C374 1.474 . S
C376 C371 1.342 . S
C376 C374 1.285 . S
C376 H395 0.930 . S
C377 C380 1.424 . S
C377 C382 1.245 1_565 S
C377 C383 1.428 . S
C378 C381 1.260 1_545 S
C378 C382 1.477 . S
C378 H396 0.932 . S
C379 C380 1.384 . S
C379 C381 1.479 . S
C379 H397 0.929 . S
C380 C377 1.424 . S
C380 C379 1.384 . S
C380 H398 0.928 . S
C381 C378 1.260 1_565 S
C381 C379 1.479 . S
C382 C377 1.245 1_545 S
C382 C378 1.477 . S
C382 H399 0.932 . S
C383 U366 2.882 . S
C383 C377 1.428 . S
C383 O386 1.293 1_565 S
C383 O387 1.282 . S
O384 U366 2.441 . S
O384 C370 1.249 . S
O385 U366 2.420 . S
O385 C370 1.202 . S
O386 U366 2.447 1_545 S
O386 C383 1.293 1_545 S
O387 U366 2.449 . S
O387 C383 1.282 . S
H388 C361 0.931 . S
H389 C363 0.929 . S
H390 C364 0.930 . S
H391 C365 0.931 . S
H392 C372 0.932 . S
H393 C373 0.930 . S
H394 C374 0.929 . S
H395 C376 0.930 . S
H396 C378 0.932 . S
H397 C379 0.929 . S
H398 C380 0.928 . S
H399 C382 0.932 . S
C400 C401 1.264 . S
C400 C405 1.479 . S
C400 C410 1.465 . S
C401 C400 1.264 . S
C401 C403 1.339 . S
C401 H428 0.931 . S
C402 C403 1.395 . S
C402 C404 1.320 . S
C403 C401 1.339 . S
C403 C402 1.395 . S
C403 H429 0.929 . S
C404 C402 1.320 . S
C404 C405 1.405 . S
C404 H430 0.930 . S
C405 C400 1.479 . S
C405 C404 1.405 . S
C405 H431 0.931 . S
U406 O407 2.454 . S
U406 O408 2.458 . S
U406 C409 2.984 . S
U406 C410 2.847 . S
U406 C423 2.882 . S
U406 O424 2.441 . S
U406 O425 2.420 . S
U406 O426 2.455 . S
U406 O427 2.449 . S
O407 U406 2.454 . S
O407 C409 1.353 . S
O408 U406 2.458 . S
O408 C409 1.286 . S
C409 U406 2.984 . S
C409 O407 1.353 . S
C409 O408 1.286 . S
C409 C411 1.363 . S
C410 C400 1.465 . S
C410 U406 2.847 . S
C410 O424 1.249 . S
C410 O425 1.202 . S
C411 C409 1.363 . S
C411 C413 1.408 . S
C411 C416 1.342 . S
C412 C413 1.310 . S
C412 C415 1.461 . S
C412 H432 0.932 . S
C413 C411 1.408 . S
C413 C412 1.310 . S
C413 H433 0.930 . S
C414 C415 1.474 . S
C414 C416 1.285 . S
C414 H434 0.929 . S
C415 C412 1.461 . S
C415 C414 1.474 . S
C416 C411 1.342 . S
C416 C414 1.285 . S
C416 H435 0.930 . S
C417 C420 1.424 . S
C417 C422 1.245 . S
C417 C423 1.428 . S
C418 C421 1.260 . S
C418 C422 1.477 . S
C418 H436 0.932 . S
C419 C420 1.384 . S
C419 C421 1.479 . S
C419 H437 0.929 . S
C420 C417 1.424 . S
C420 C419 1.384 . S
C420 H438 0.928 . S
C421 C418 1.260 . S
C421 C419 1.479 . S
C422 C417 1.245 . S
C422 C418 1.477 . S
C422 H439 0.932 . S
C423 U406 2.882 . S
C423 C417 1.428 . S
C423 O426 1.301 . S
C423 O427 1.282 . S
O424 U406 2.441 . S
O424 C410 1.249 . S
O425 U406 2.420 . S
O425 C410 1.202 . S
O426 U406 2.455 . S
O426 C423 1.301 . S
O427 U406 2.449 . S
O427 C423 1.282 . S
H428 C401 0.931 . S
H429 C403 0.929 . S
H430 C404 0.930 . S
H431 C405 0.931 . S
H432 C412 0.932 . S
H433 C413 0.930 . S
H434 C414 0.929 . S
H435 C416 0.930 . S
H436 C418 0.932 . S
H437 C419 0.929 . S
H438 C420 0.928 . S
H439 C422 0.932 . S
C440 C441 1.264 . S
C440 C445 1.479 . S
C440 C450 1.465 . S
C441 C440 1.264 . S
C441 C443 1.339 . S
C441 H468 0.931 . S
C442 C443 1.395 . S
C442 C444 1.320 . S
C443 C441 1.339 . S
C443 C442 1.395 . S
C443 H469 0.929 . S
C444 C442 1.320 . S
C444 C445 1.405 . S
C444 H470 0.930 . S
C445 C440 1.479 . S
C445 C444 1.405 . S
C445 H471 0.931 . S
U446 O447 2.454 . S
U446 O448 2.458 . S
U446 C449 2.984 . S
U446 C450 2.847 . S
U446 C463 2.882 . S
U446 O464 2.441 . S
U446 O465 2.420 . S
U446 O466 2.455 . S
U446 O467 2.449 . S
O447 U446 2.454 . S
O447 C449 1.353 . S
O448 U446 2.458 . S
O448 C449 1.286 . S
C449 U446 2.984 . S
C449 O447 1.353 . S
C449 O448 1.286 . S
C449 C451 1.363 . S
C450 C440 1.465 . S
C450 U446 2.847 . S
C450 O464 1.249 . S
C450 O465 1.202 . S
C451 C449 1.363 . S
C451 C453 1.408 . S
C451 C456 1.342 . S
C452 C453 1.310 . S
C452 C455 1.461 . S
C452 H472 0.932 . S
C453 C451 1.408 . S
C453 C452 1.310 . S
C453 H473 0.930 . S
C454 C455 1.474 . S
C454 C456 1.285 . S
C454 H474 0.929 . S
C455 C452 1.461 . S
C455 C454 1.474 . S
C456 C451 1.342 . S
C456 C454 1.285 . S
C456 H475 0.930 . S
C457 C460 1.424 . S
C457 C462 1.245 . S
C457 C463 1.428 . S
C458 C461 1.260 . S
C458 C462 1.477 . S
C458 H476 0.932 . S
C459 C460 1.384 . S
C459 C461 1.479 . S
C459 H477 0.929 . S
C460 C457 1.424 . S
C460 C459 1.384 . S
C460 H478 0.928 . S
C461 C458 1.260 . S
C461 C459 1.479 . S
C462 C457 1.245 . S
C462 C458 1.477 . S
C462 H479 0.932 . S
C463 U446 2.882 . S
C463 C457 1.428 . S
C463 O466 1.301 . S
C463 O467 1.282 . S
O464 U446 2.441 . S
O464 C450 1.249 . S
O465 U446 2.420 . S
O465 C450 1.202 . S
O466 U446 2.455 . S
O466 C463 1.301 . S
O467 U446 2.449 . S
O467 C463 1.282 . S
H468 C441 0.931 . S
H469 C443 0.929 . S
H470 C444 0.930 . S
H471 C445 0.931 . S
H472 C452 0.932 . S
H473 C453 0.930 . S
H474 C454 0.929 . S
H475 C456 0.930 . S
H476 C458 0.932 . S
H477 C459 0.929 . S
H478 C460 0.928 . S
H479 C462 0.932 . S
C480 C481 1.264 . S
C480 C485 1.479 . S
C480 C490 1.465 . S
C481 C480 1.264 . S
C481 C483 1.339 . S
C481 H508 0.931 . S
C482 C483 1.395 . S
C482 C484 1.320 . S
C483 C481 1.339 . S
C483 C482 1.395 . S
C483 H509 0.929 . S
C484 C482 1.320 . S
C484 C485 1.405 . S
C484 H510 0.930 . S
C485 C480 1.479 . S
C485 C484 1.405 . S
C485 H511 0.931 . S
U486 O487 2.454 . S
U486 O488 2.458 . S
U486 C489 2.984 . S
U486 C490 2.847 . S
U486 C503 2.882 . S
U486 O504 2.441 . S
U486 O505 2.420 . S
U486 O506 2.455 . S
U486 O507 2.449 . S
O487 U486 2.454 . S
O487 C489 1.353 . S
O488 U486 2.458 . S
O488 C489 1.286 . S
C489 U486 2.984 . S
C489 O487 1.353 . S
C489 O488 1.286 . S
C489 C491 1.363 . S
C490 C480 1.465 . S
C490 U486 2.847 . S
C490 O504 1.249 . S
C490 O505 1.202 . S
C491 C489 1.363 . S
C491 C493 1.408 . S
C491 C496 1.342 . S
C492 C493 1.310 . S
C492 C495 1.461 . S
C492 H512 0.932 . S
C493 C491 1.408 . S
C493 C492 1.310 . S
C493 H513 0.930 . S
C494 C495 1.474 . S
C494 C496 1.285 . S
C494 H514 0.929 . S
C495 C492 1.461 . S
C495 C494 1.474 . S
C496 C491 1.342 . S
C496 C494 1.285 . S
C496 H515 0.930 . S
C497 C500 1.424 . S
C497 C502 1.245 . S
C497 C503 1.428 . S
C498 C501 1.260 . S
C498 C502 1.477 . S
C498 H516 0.932 . S
C499 C500 1.384 . S
C499 C501 1.479 . S
C499 H517 0.929 . S
C500 C497 1.424 . S
C500 C499 1.384 . S
C500 H518 0.928 . S
C501 C498 1.260 . S
C501 C499 1.479 . S
C502 C497 1.245 . S
C502 C498 1.477 . S
C502 H519 0.932 . S
C503 U486 2.882 . S
C503 C497 1.428 . S
C503 O506 1.301 . S
C503 O507 1.282 . S
O504 U486 2.441 . S
O504 C490 1.249 . S
O505 U486 2.420 . S
O505 C490 1.202 . S
O506 U486 2.455 . S
O506 C503 1.301 . S
O507 U486 2.449 . S
O507 C503 1.282 . S
H508 C481 0.931 . S
H509 C483 0.929 . S
H510 C484 0.930 . S
H511 C485 0.931 . S
H512 C492 0.932 . S
H513 C493 0.930 . S
H514 C494 0.929 . S
H515 C496 0.930 . S
H516 C498 0.932 . S
H517 C499 0.929 . S
H518 C500 0.928 . S
H519 C502 0.932 . S
C520 C521 1.264 . S
C520 C525 1.479 . S
C520 C530 1.465 . S
C521 C520 1.264 . S
C521 C523 1.339 . S
C521 H548 0.931 . S
C522 C523 1.395 . S
C522 C524 1.320 . S
C523 C521 1.339 . S
C523 C522 1.395 . S
C523 H549 0.929 . S
C524 C522 1.320 . S
C524 C525 1.405 . S
C524 H550 0.930 . S
C525 C520 1.479 . S
C525 C524 1.405 . S
C525 H551 0.931 . S
U526 O527 2.454 . S
U526 O528 2.458 1_556 S
U526 C529 2.984 1_556 S
U526 C530 2.847 . S
U526 C543 2.882 . S
U526 O544 2.441 . S
U526 O545 2.420 . S
U526 O546 2.455 1_556 S
U526 O547 2.449 . S
O527 U526 2.454 . S
O527 C529 1.353 1_556 S
O528 U526 2.458 1_554 S
O528 C529 1.286 . S
C529 U526 2.984 1_554 S
C529 O527 1.353 1_554 S
C529 O528 1.286 . S
C529 C531 1.363 . S
C530 C520 1.465 . S
C530 U526 2.847 . S
C530 O544 1.249 . S
C530 O545 1.202 . S
C531 C529 1.363 . S
C531 C533 1.408 . S
C531 C536 1.342 . S
C532 C533 1.310 . S
C532 C535 1.461 . S
C532 H552 0.932 . S
C533 C531 1.408 . S
C533 C532 1.310 . S
C533 H553 0.930 . S
C534 C535 1.474 . S
C534 C536 1.285 . S
C534 H554 0.929 . S
C535 C532 1.461 . S
C535 C534 1.474 . S
C536 C531 1.342 . S
C536 C534 1.285 . S
C536 H555 0.930 . S
C537 C540 1.424 . S
C537 C542 1.245 1_556 S
C537 C543 1.428 . S
C538 C541 1.260 1_554 S
C538 C542 1.477 . S
C538 H556 0.932 . S
C539 C540 1.384 . S
C539 C541 1.479 . S
C539 H557 0.929 . S
C540 C537 1.424 . S
C540 C539 1.384 . S
C540 H558 0.928 . S
C541 C538 1.260 1_556 S
C541 C539 1.479 . S
C542 C537 1.245 1_554 S
C542 C538 1.477 . S
C542 H559 0.932 . S
C543 U526 2.882 . S
C543 C537 1.428 . S
C543 O546 1.301 1_556 S
C543 O547 1.282 . S
O544 U526 2.441 . S
O544 C530 1.249 . S
O545 U526 2.420 . S
O545 C530 1.202 . S
O546 U526 2.455 1_554 S
O546 C543 1.301 1_554 S
O547 U526 2.449 . S
O547 C543 1.282 . S
H548 C521 0.931 . S
H549 C523 0.929 . S
H550 C524 0.930 . S
H551 C525 0.931 . S
H552 C532 0.932 . S
H553 C533 0.930 . S
H554 C534 0.929 . S
H555 C536 0.930 . S
H556 C538 0.932 . S
H557 C539 0.929 . S
H558 C540 0.928 . S
H559 C542 0.932 . S
C560 C561 1.264 . S
C560 C565 1.479 . S
C560 C570 1.465 . S
C561 C560 1.264 . S
C561 C563 1.339 . S
C561 H588 0.931 . S
C562 C563 1.395 . S
C562 C564 1.320 . S
C563 C561 1.339 . S
C563 C562 1.395 . S
C563 H589 0.929 . S
C564 C562 1.320 . S
C564 C565 1.405 . S
C564 H590 0.930 . S
C565 C560 1.479 . S
C565 C564 1.405 . S
C565 H591 0.931 . S
U566 O567 2.454 . S
U566 O568 2.458 . S
U566 C569 2.984 . S
U566 C570 2.847 . S
U566 C583 2.882 . S
U566 O584 2.441 . S
U566 O585 2.420 . S
U566 O586 2.455 . S
U566 O587 2.449 . S
O567 U566 2.454 . S
O567 C569 1.353 . S
O568 U566 2.458 . S
O568 C569 1.286 . S
C569 U566 2.984 . S
C569 O567 1.353 . S
C569 O568 1.286 . S
C569 C571 1.363 . S
C570 C560 1.465 . S
C570 U566 2.847 . S
C570 O584 1.249 . S
C570 O585 1.202 . S
C571 C569 1.363 . S
C571 C573 1.408 . S
C571 C576 1.342 . S
C572 C573 1.310 . S
C572 C575 1.461 . S
C572 H592 0.932 . S
C573 C571 1.408 . S
C573 C572 1.310 . S
C573 H593 0.930 . S
C574 C575 1.474 . S
C574 C576 1.285 . S
C574 H594 0.929 . S
C575 C572 1.461 . S
C575 C574 1.474 . S
C576 C571 1.342 . S
C576 C574 1.285 . S
C576 H595 0.930 . S
C577 C580 1.424 . S
C577 C582 1.245 . S
C577 C583 1.428 . S
C578 C581 1.260 . S
C578 C582 1.477 . S
C578 H596 0.932 . S
C579 C580 1.384 . S
C579 C581 1.479 . S
C579 H597 0.929 . S
C580 C577 1.424 . S
C580 C579 1.384 . S
C580 H598 0.928 . S
C581 C578 1.260 . S
C581 C579 1.479 . S
C582 C577 1.245 . S
C582 C578 1.477 . S
C582 H599 0.932 . S
C583 U566 2.882 . S
C583 C577 1.428 . S
C583 O586 1.301 . S
C583 O587 1.282 . S
O584 U566 2.441 . S
O584 C570 1.249 . S
O585 U566 2.420 . S
O585 C570 1.202 . S
O586 U566 2.455 . S
O586 C583 1.301 . S
O587 U566 2.449 . S
O587 C583 1.282 . S
H588 C561 0.931 . S
H589 C563 0.929 . S
H590 C564 0.930 . S
H591 C565 0.931 . S
H592 C572 0.932 . S
H593 C573 0.930 . S
H594 C574 0.929 . S
H595 C576 0.930 . S
H596 C578 0.932 . S
H597 C579 0.929 . S
H598 C580 0.928 . S
H599 C582 0.932 . S
C600 C601 1.264 . S
C600 C605 1.479 . S
C600 C610 1.465 . S
C601 C600 1.264 . S
C601 C603 1.339 . S
C601 H628 0.931 . S
C602 C603 1.395 . S
C602 C604 1.320 . S
C603 C601 1.339 . S
C603 C602 1.395 . S
C603 H629 0.929 . S
C604 C602 1.320 . S
C604 C605 1.405 . S
C604 H630 0.930 . S
C605 C600 1.479 . S
C605 C604 1.405 . S
C605 H631 0.931 . S
U606 O607 2.454 . S
U606 O608 2.458 1_545 S
U606 C609 2.984 1_545 S
U606 C610 2.847 1_556 S
U606 C623 2.882 . S
U606 O624 2.441 1_556 S
U606 O625 2.426 . S
U606 O626 2.455 1_545 S
U606 O627 2.449 . S
O607 U606 2.454 . S
O607 C609 1.353 1_545 S
O608 U606 2.458 1_565 S
O608 C609 1.286 . S
C609 U606 2.984 1_565 S
C609 O607 1.353 1_565 S
C609 O608 1.286 . S
C609 C611 1.363 . S
C610 C600 1.465 . S
C610 U606 2.847 1_554 S
C610 O624 1.249 . S
C610 O625 1.193 1_554 S
C611 C609 1.363 . S
C611 C613 1.408 1_556 S
C611 C616 1.342 . S
C612 C613 1.310 . S
C612 C615 1.461 1_554 S
C612 H632 0.932 . S
C613 C611 1.408 1_554 S
C613 C612 1.310 . S
C613 H633 0.930 . S
C614 C615 1.474 . S
C614 C616 1.285 . S
C614 H634 0.929 . S
C615 C612 1.461 1_556 S
C615 C614 1.474 . S
C616 C611 1.342 . S
C616 C614 1.285 . S
C616 H635 0.930 . S
C617 C620 1.424 . S
C617 C622 1.245 1_545 S
C617 C623 1.428 . S
C618 C621 1.260 1_565 S
C618 C622 1.477 . S
C618 H636 0.932 . S
C619 C620 1.384 . S
C619 C621 1.479 . S
C619 H637 0.929 . S
C620 C617 1.424 . S
C620 C619 1.384 . S
C620 H638 0.928 . S
C621 C618 1.260 1_545 S
C621 C619 1.479 . S
C622 C617 1.245 1_565 S
C622 C618 1.477 . S
C622 H639 0.932 . S
C623 U606 2.882 . S
C623 C617 1.428 . S
C623 O626 1.301 1_545 S
C623 O627 1.282 . S
O624 U606 2.441 1_554 S
O624 C610 1.249 . S
O625 U606 2.426 . S
O625 C610 1.193 1_556 S
O626 U606 2.455 1_565 S
O626 C623 1.301 1_565 S
O627 U606 2.449 . S
O627 C623 1.282 . S
H628 C601 0.931 . S
H629 C603 0.929 . S
H630 C604 0.930 . S
H631 C605 0.931 . S
H632 C612 0.932 . S
H633 C613 0.930 . S
H634 C614 0.929 . S
H635 C616 0.930 . S
H636 C618 0.932 . S
H637 C619 0.929 . S
H638 C620 0.928 . S
H639 C622 0.932 . S
Li640 N657 1.990 1_554 S
Li640 O700 1.956 . S
Li640 O701 1.970 . S
Li640 O702 1.961 1_554 S
Li641 N665 1.990 . S
Li641 O700 1.970 . S
Li641 O701 1.956 . S
Li641 O703 1.961 . S
Li642 N687 1.990 . S
Li642 O700 1.961 1_556 S
Li642 O702 1.956 . S
Li642 O703 1.970 1_556 S
Li643 N693 1.990 . S
Li643 O701 1.961 . S
Li643 O702 1.970 1_554 S
Li643 O703 1.956 . S
C644 C646 1.348 1_556 S
C644 C647 1.356 . S
C644 O700 1.325 1_556 S
N645 C648 1.314 1_556 S
N645 C649 1.279 . S
C646 C644 1.348 1_554 S
C646 C648 1.353 . S
C646 H704 0.929 . S
C647 C644 1.356 . S
C647 C649 1.358 . S
C647 H705 0.930 . S
C648 N645 1.314 1_554 S
C648 C646 1.353 . S
C648 H706 0.930 . S
C649 N645 1.279 . S
C649 C647 1.358 . S
C649 H707 0.930 . S
C650 C653 1.348 . S
C650 C654 1.356 . S
C650 O701 1.325 . S
C651 N652 1.279 . S
C651 C654 1.358 . S
C651 H708 0.930 . S
N652 C651 1.279 . S
N652 C655 1.314 . S
C653 C650 1.348 . S
C653 C655 1.353 . S
C653 H709 0.929 . S
C654 C650 1.356 . S
C654 C651 1.358 . S
C654 H710 0.930 . S
C655 N652 1.314 . S
C655 C653 1.353 . S
C655 H711 0.930 . S
C656 N657 1.314 . S
C656 C661 1.353 . S
C656 H662 0.930 . S
N657 Li640 1.990 1_556 S
N657 C656 1.314 . S
N657 C659 1.279 . S
C658 C659 1.358 . S
C658 C660 1.356 . S
C658 H712 0.930 . S
C659 N657 1.279 . S
C659 C658 1.358 . S
C659 H663 0.930 1_556 S
C660 C658 1.356 . S
C660 C661 1.348 . S
C661 C656 1.353 . S
C661 C660 1.348 . S
C661 H713 0.929 . S
H662 C656 0.930 . S
H663 C659 0.930 1_554 S
C664 N665 1.314 . S
C664 C666 1.353 . S
C664 H670 0.930 . S
N665 Li641 1.990 . S
N665 C664 1.314 . S
N665 C668 1.279 . S
C666 C664 1.353 . S
C666 C669 1.348 . S
C666 H714 0.929 . S
C667 C668 1.358 . S
C667 C669 1.356 . S
C667 H715 0.930 . S
C668 N665 1.279 . S
C668 C667 1.358 . S
C668 H671 0.930 . S
C669 C666 1.348 . S
C669 C667 1.356 . S
H670 C664 0.930 . S
H671 C668 0.930 . S
C672 C674 1.348 . S
C672 C675 1.356 . S
C672 O702 1.325 . S
N673 C676 1.314 . S
N673 C677 1.279 . S
C674 C672 1.348 . S
C674 C676 1.353 . S
C674 H716 0.929 . S
C675 C672 1.356 . S
C675 C677 1.358 . S
C675 H717 0.930 . S
C676 N673 1.314 . S
C676 C674 1.353 . S
C676 H718 0.930 . S
C677 N673 1.279 . S
C677 C675 1.358 . S
C677 H719 0.930 . S
C678 C679 1.348 1_554 S
C678 C680 1.356 . S
C678 O703 1.325 . S
C679 C678 1.348 1_556 S
C679 C681 1.353 . S
C679 H720 0.929 . S
C680 C678 1.356 . S
C680 C682 1.358 . S
C680 H721 0.930 . S
C681 C679 1.353 . S
C681 N683 1.314 1_556 S
C681 H722 0.930 . S
C682 C680 1.358 . S
C682 N683 1.279 . S
C682 H723 0.930 . S
N683 C681 1.314 1_554 S
N683 C682 1.279 . S
C684 C686 1.353 . S
C684 N687 1.314 . S
C684 H690 0.930 . S
C685 N687 1.279 . S
C685 C688 1.358 . S
C685 H691 0.930 . S
C686 C684 1.353 . S
C686 C689 1.348 . S
C686 H724 0.929 . S
N687 Li642 1.990 . S
N687 C684 1.314 . S
N687 C685 1.279 . S
C688 C685 1.358 . S
C688 C689 1.356 . S
C688 H725 0.930 . S
C689 C686 1.348 . S
C689 C688 1.356 . S
H690 C684 0.930 . S
H691 C685 0.930 . S
C692 N693 1.314 . S
C692 C694 1.353 . S
C692 H698 0.930 . S
N693 Li643 1.990 . S
N693 C692 1.314 . S
N693 C696 1.279 . S
C694 C692 1.353 . S
C694 C697 1.348 . S
C694 H726 0.929 . S
C695 C696 1.358 . S
C695 C697 1.356 . S
C695 H727 0.930 . S
C696 N693 1.279 . S
C696 C695 1.358 . S
C696 H699 0.930 . S
C697 C694 1.348 . S
C697 C695 1.356 . S
H698 C692 0.930 . S
H699 C696 0.930 . S
O700 Li640 1.956 . S
O700 Li641 1.970 . S
O700 Li642 1.961 1_554 S
O700 C644 1.325 1_554 S
O701 Li640 1.970 . S
O701 Li641 1.956 . S
O701 Li643 1.961 . S
O701 C650 1.325 . S
O702 Li640 1.961 1_556 S
O702 Li642 1.956 . S
O702 Li643 1.970 1_556 S
O702 C672 1.325 . S
O703 Li641 1.961 . S
O703 Li642 1.970 1_554 S
O703 Li643 1.956 . S
O703 C678 1.325 . S
H704 C646 0.929 . S
H705 C647 0.930 . S
H706 C648 0.930 . S
H707 C649 0.930 . S
H708 C651 0.930 . S
H709 C653 0.929 . S
H710 C654 0.930 . S
H711 C655 0.930 . S
H712 C658 0.930 . S
H713 C661 0.929 . S
H714 C666 0.929 . S
H715 C667 0.930 . S
H716 C674 0.929 . S
H717 C675 0.930 . S
H718 C676 0.930 . S
H719 C677 0.930 . S
H720 C679 0.929 . S
H721 C680 0.930 . S
H722 C681 0.930 . S
H723 C682 0.930 . S
H724 C686 0.929 . S
H725 C688 0.930 . S
H726 C694 0.929 . S
H727 C695 0.930 . S
Li728 N745 1.990 . S
Li728 O788 1.956 . S
Li728 O789 1.970 . S
Li728 O790 1.961 . S
Li729 N753 1.990 . S
Li729 O788 1.970 . S
Li729 O789 1.956 . S
Li729 O791 1.961 . S
Li730 N775 1.990 . S
Li730 O788 1.961 . S
Li730 O790 1.956 . S
Li730 O791 1.970 . S
Li731 N781 1.990 . S
Li731 O789 1.961 . S
Li731 O790 1.970 . S
Li731 O791 1.956 . S
C732 C734 1.348 . S
C732 C735 1.356 . S
C732 O788 1.325 . S
N733 C736 1.314 . S
N733 C737 1.279 . S
C734 C732 1.348 . S
C734 C736 1.353 . S
C734 H792 0.929 . S
C735 C732 1.356 . S
C735 C737 1.358 . S
C735 H793 0.930 . S
C736 N733 1.314 . S
C736 C734 1.353 . S
C736 H794 0.930 . S
C737 N733 1.279 . S
C737 C735 1.358 . S
C737 H795 0.930 . S
C738 C741 1.348 . S
C738 C742 1.356 . S
C738 O789 1.325 . S
C739 N740 1.279 . S
C739 C742 1.358 . S
C739 H796 0.930 . S
N740 C739 1.279 . S
N740 C743 1.314 . S
C741 C738 1.348 . S
C741 C743 1.353 . S
C741 H797 0.929 . S
C742 C738 1.356 . S
C742 C739 1.358 . S
C742 H798 0.930 . S
C743 N740 1.314 . S
C743 C741 1.353 . S
C743 H799 0.930 . S
C744 N745 1.314 . S
C744 C749 1.353 . S
C744 H750 0.930 . S
N745 Li728 1.990 . S
N745 C744 1.314 . S
N745 C747 1.279 . S
C746 C747 1.358 . S
C746 C748 1.356 . S
C746 H800 0.930 . S
C747 N745 1.279 . S
C747 C746 1.358 . S
C747 H751 0.930 . S
C748 C746 1.356 . S
C748 C749 1.348 . S
C749 C744 1.353 . S
C749 C748 1.348 . S
C749 H801 0.929 . S
H750 C744 0.930 . S
H751 C747 0.930 . S
C752 N753 1.314 . S
C752 C754 1.353 . S
C752 H758 0.930 . S
N753 Li729 1.990 . S
N753 C752 1.314 . S
N753 C756 1.279 . S
C754 C752 1.353 . S
C754 C757 1.348 . S
C754 H802 0.929 . S
C755 C756 1.358 . S
C755 C757 1.356 . S
C755 H803 0.930 . S
C756 N753 1.279 . S
C756 C755 1.358 . S
C756 H759 0.930 . S
C757 C754 1.348 . S
C757 C755 1.356 . S
H758 C752 0.930 . S
H759 C756 0.930 . S
C760 C762 1.348 . S
C760 C763 1.356 . S
C760 O790 1.325 . S
N761 C764 1.314 . S
N761 C765 1.279 . S
C762 C760 1.348 . S
C762 C764 1.353 . S
C762 H804 0.929 . S
C763 C760 1.356 . S
C763 C765 1.358 . S
C763 H805 0.930 . S
C764 N761 1.314 . S
C764 C762 1.353 . S
C764 H806 0.930 . S
C765 N761 1.279 . S
C765 C763 1.358 . S
C765 H807 0.930 . S
C766 C767 1.348 . S
C766 C768 1.356 . S
C766 O791 1.325 . S
C767 C766 1.348 . S
C767 C769 1.353 . S
C767 H808 0.929 . S
C768 C766 1.356 . S
C768 C770 1.358 . S
C768 H809 0.930 . S
C769 C767 1.353 . S
C769 N771 1.314 . S
C769 H810 0.930 . S
C770 C768 1.358 . S
C770 N771 1.279 . S
C770 H811 0.930 . S
N771 C769 1.314 . S
N771 C770 1.279 . S
C772 C774 1.353 . S
C772 N775 1.314 . S
C772 H778 0.930 . S
C773 N775 1.279 . S
C773 C776 1.358 . S
C773 H779 0.930 . S
C774 C772 1.353 . S
C774 C777 1.348 . S
C774 H812 0.929 . S
N775 Li730 1.990 . S
N775 C772 1.314 . S
N775 C773 1.279 . S
C776 C773 1.358 . S
C776 C777 1.356 . S
C776 H813 0.930 . S
C777 C774 1.348 . S
C777 C776 1.356 . S
H778 C772 0.930 . S
H779 C773 0.930 . S
C780 N781 1.314 . S
C780 C782 1.353 . S
C780 H786 0.930 . S
N781 Li731 1.990 . S
N781 C780 1.314 . S
N781 C784 1.279 . S
C782 C780 1.353 . S
C782 C785 1.348 . S
C782 H814 0.929 . S
C783 C784 1.358 . S
C783 C785 1.356 . S
C783 H815 0.930 . S
C784 N781 1.279 . S
C784 C783 1.358 . S
C784 H787 0.930 . S
C785 C782 1.348 . S
C785 C783 1.356 . S
H786 C780 0.930 . S
H787 C784 0.930 . S
O788 Li728 1.956 . S
O788 Li729 1.970 . S
O788 Li730 1.961 . S
O788 C732 1.325 . S
O789 Li728 1.970 . S
O789 Li729 1.956 . S
O789 Li731 1.961 . S
O789 C738 1.325 . S
O790 Li728 1.961 . S
O790 Li730 1.956 . S
O790 Li731 1.970 . S
O790 C760 1.325 . S
O791 Li729 1.961 . S
O791 Li730 1.970 . S
O791 Li731 1.956 . S
O791 C766 1.325 . S
H792 C734 0.929 . S
H793 C735 0.930 . S
H794 C736 0.930 . S
H795 C737 0.930 . S
H796 C739 0.930 . S
H797 C741 0.929 . S
H798 C742 0.930 . S
H799 C743 0.930 . S
H800 C746 0.930 . S
H801 C749 0.929 . S
H802 C754 0.929 . S
H803 C755 0.930 . S
H804 C762 0.929 . S
H805 C763 0.930 . S
H806 C764 0.930 . S
H807 C765 0.930 . S
H808 C767 0.929 . S
H809 C768 0.930 . S
H810 C769 0.930 . S
H811 C770 0.930 . S
H812 C774 0.929 . S
H813 C776 0.930 . S
H814 C782 0.929 . S
H815 C783 0.930 . S
Li816 N833 1.990 . S
Li816 O876 1.956 . S
Li816 O877 1.970 1_556 S
Li816 O878 1.961 . S
Li817 N841 1.990 . S
Li817 O876 1.970 1_554 S
Li817 O877 1.956 . S
Li817 O879 1.961 . S
Li818 N863 1.990 . S
Li818 O876 1.961 . S
Li818 O878 1.956 . S
Li818 O879 1.970 1_556 S
Li819 N869 1.990 . S
Li819 O877 1.961 . S
Li819 O878 1.970 1_554 S
Li819 O879 1.956 . S
C820 C822 1.348 1_556 S
C820 C823 1.356 . S
C820 O876 1.325 . S
N821 C824 1.314 1_556 S
N821 C825 1.279 . S
C822 C820 1.348 1_554 S
C822 C824 1.353 . S
C822 H880 0.929 . S
C823 C820 1.356 . S
C823 C825 1.358 . S
C823 H881 0.930 . S
C824 N821 1.314 1_554 S
C824 C822 1.353 . S
C824 H882 0.930 . S
C825 N821 1.279 . S
C825 C823 1.358 . S
C825 H883 0.930 . S
C826 C829 1.348 . S
C826 C830 1.356 . S
C826 O877 1.325 . S
C827 N828 1.279 . S
C827 C830 1.358 . S
C827 H884 0.930 . S
N828 C827 1.279 . S
N828 C831 1.314 . S
C829 C826 1.348 . S
C829 C831 1.353 . S
C829 H885 0.929 . S
C830 C826 1.356 . S
C830 C827 1.358 . S
C830 H886 0.930 . S
C831 N828 1.314 . S
C831 C829 1.353 . S
C831 H887 0.930 . S
C832 N833 1.314 . S
C832 C837 1.353 . S
C832 H838 0.930 . S
N833 Li816 1.990 . S
N833 C832 1.314 . S
N833 C835 1.279 . S
C834 C835 1.358 . S
C834 C836 1.356 . S
C834 H888 0.930 . S
C835 N833 1.279 . S
C835 C834 1.358 . S
C835 H839 0.930 . S
C836 C834 1.356 . S
C836 C837 1.348 . S
C837 C832 1.353 . S
C837 C836 1.348 . S
C837 H889 0.929 . S
H838 C832 0.930 . S
H839 C835 0.930 . S
C840 N841 1.314 . S
C840 C842 1.353 . S
C840 H846 0.930 . S
N841 Li817 1.990 . S
N841 C840 1.314 . S
N841 C844 1.279 . S
C842 C840 1.353 . S
C842 C845 1.348 . S
C842 H890 0.929 . S
C843 C844 1.358 . S
C843 C845 1.356 . S
C843 H891 0.930 . S
C844 N841 1.279 . S
C844 C843 1.358 . S
C844 H847 0.930 . S
C845 C842 1.348 . S
C845 C843 1.356 . S
H846 C840 0.930 . S
H847 C844 0.930 . S
C848 C850 1.348 . S
C848 C851 1.356 . S
C848 O878 1.325 . S
N849 C852 1.314 . S
N849 C853 1.279 . S
C850 C848 1.348 . S
C850 C852 1.353 . S
C850 H892 0.929 . S
C851 C848 1.356 . S
C851 C853 1.358 . S
C851 H893 0.930 . S
C852 N849 1.314 . S
C852 C850 1.353 . S
C852 H894 0.930 . S
C853 N849 1.279 . S
C853 C851 1.358 . S
C853 H895 0.930 . S
C854 C855 1.348 1_554 S
C854 C856 1.356 . S
C854 O879 1.325 . S
C855 C854 1.348 1_556 S
C855 C857 1.353 . S
C855 H896 0.929 . S
C856 C854 1.356 . S
C856 C858 1.358 . S
C856 H897 0.930 . S
C857 C855 1.353 . S
C857 N859 1.314 1_556 S
C857 H898 0.930 . S
C858 C856 1.358 . S
C858 N859 1.279 . S
C858 H899 0.930 . S
N859 C857 1.314 1_554 S
N859 C858 1.279 . S
C860 C862 1.353 . S
C860 N863 1.314 . S
C860 H866 0.930 . S
C861 N863 1.279 . S
C861 C864 1.358 . S
C861 H867 0.930 . S
C862 C860 1.353 . S
C862 C865 1.348 . S
C862 H900 0.929 . S
N863 Li818 1.990 . S
N863 C860 1.314 . S
N863 C861 1.279 . S
C864 C861 1.358 . S
C864 C865 1.356 . S
C864 H901 0.930 . S
C865 C862 1.348 . S
C865 C864 1.356 . S
H866 C860 0.930 . S
H867 C861 0.930 . S
C868 N869 1.314 . S
C868 C870 1.353 . S
C868 H874 0.930 . S
N869 Li819 1.990 . S
N869 C868 1.314 . S
N869 C872 1.279 . S
C870 C868 1.353 . S
C870 C873 1.348 . S
C870 H902 0.929 . S
C871 C872 1.358 . S
C871 C873 1.356 . S
C871 H903 0.930 . S
C872 N869 1.279 . S
C872 C871 1.358 . S
C872 H875 0.930 . S
C873 C870 1.348 . S
C873 C871 1.356 . S
H874 C868 0.930 . S
H875 C872 0.930 . S
O876 Li816 1.956 . S
O876 Li817 1.970 1_556 S
O876 Li818 1.961 . S
O876 C820 1.325 . S
O877 Li816 1.970 1_554 S
O877 Li817 1.956 . S
O877 Li819 1.961 . S
O877 C826 1.325 . S
O878 Li816 1.961 . S
O878 Li818 1.956 . S
O878 Li819 1.970 1_556 S
O878 C848 1.325 . S
O879 Li817 1.961 . S
O879 Li818 1.970 1_554 S
O879 Li819 1.956 . S
O879 C854 1.325 . S
H880 C822 0.929 . S
H881 C823 0.930 . S
H882 C824 0.930 . S
H883 C825 0.930 . S
H884 C827 0.930 . S
H885 C829 0.929 . S
H886 C830 0.930 . S
H887 C831 0.930 . S
H888 C834 0.930 . S
H889 C837 0.929 . S
H890 C842 0.929 . S
H891 C843 0.930 . S
H892 C850 0.929 . S
H893 C851 0.930 . S
H894 C852 0.930 . S
H895 C853 0.930 . S
H896 C855 0.929 . S
H897 C856 0.930 . S
H898 C857 0.930 . S
H899 C858 0.930 . S
H900 C862 0.929 . S
H901 C864 0.930 . S
H902 C870 0.929 . S
H903 C871 0.930 . S
Li904 N921 1.990 . S
Li904 O964 1.956 . S
Li904 O965 1.970 1_545 S
Li904 O966 1.961 . S
Li905 N929 1.990 . S
Li905 O964 1.970 1_565 S
Li905 O965 1.956 . S
Li905 O967 1.961 . S
Li906 N951 1.990 . S
Li906 O964 1.961 . S
Li906 O966 1.956 . S
Li906 O967 1.970 1_545 S
Li907 N957 1.990 . S
Li907 O965 1.961 . S
Li907 O966 1.970 1_565 S
Li907 O967 1.956 . S
C908 C910 1.348 . S
C908 C911 1.356 . S
C908 O964 1.325 . S
N909 C912 1.314 . S
N909 C913 1.279 . S
C910 C908 1.348 . S
C910 C912 1.353 . S
C910 H968 0.929 . S
C911 C908 1.356 . S
C911 C913 1.358 . S
C911 H969 0.930 . S
C912 N909 1.314 . S
C912 C910 1.353 . S
C912 H970 0.930 . S
C913 N909 1.279 . S
C913 C911 1.358 . S
C913 H971 0.930 . S
C914 C917 1.348 1_565 S
C914 C918 1.356 . S
C914 O965 1.325 . S
C915 N916 1.279 . S
C915 C918 1.358 . S
C915 H972 0.930 . S
N916 C915 1.279 . S
N916 C919 1.314 1_565 S
C917 C914 1.348 1_545 S
C917 C919 1.353 . S
C917 H973 0.929 . S
C918 C914 1.356 . S
C918 C915 1.358 . S
C918 H974 0.930 . S
C919 N916 1.314 1_545 S
C919 C917 1.353 . S
C919 H975 0.930 . S
C920 N921 1.314 . S
C920 C925 1.353 . S
C920 H926 0.930 . S
N921 Li904 1.990 . S
N921 C920 1.314 . S
N921 C923 1.279 . S
C922 C923 1.358 . S
C922 C924 1.356 . S
C922 H976 0.930 . S
C923 N921 1.279 . S
C923 C922 1.358 . S
C923 H927 0.930 . S
C924 C922 1.356 . S
C924 C925 1.348 . S
C925 C920 1.353 . S
C925 C924 1.348 . S
C925 H977 0.929 . S
H926 C920 0.930 . S
H927 C923 0.930 . S
C928 N929 1.314 . S
C928 C930 1.353 . S
C928 H934 0.930 . S
N929 Li905 1.990 . S
N929 C928 1.314 . S
N929 C932 1.279 . S
C930 C928 1.353 . S
C930 C933 1.348 . S
C930 H978 0.929 . S
C931 C932 1.358 . S
C931 C933 1.356 . S
C931 H979 0.930 . S
C932 N929 1.279 . S
C932 C931 1.358 . S
C932 H935 0.930 . S
C933 C930 1.348 . S
C933 C931 1.356 . S
H934 C928 0.930 . S
H935 C932 0.930 . S
C936 C938 1.348 1_545 S
C936 C939 1.356 . S
C936 O966 1.325 . S
N937 C940 1.314 1_545 S
N937 C941 1.279 . S
C938 C936 1.348 1_565 S
C938 C940 1.353 . S
C938 H980 0.929 . S
C939 C936 1.356 . S
C939 C941 1.358 . S
C939 H981 0.930 . S
C940 N937 1.314 1_565 S
C940 C938 1.353 . S
C940 H982 0.930 . S
C941 N937 1.279 . S
C941 C939 1.358 . S
C941 H983 0.930 . S
C942 C943 1.348 . S
C942 C944 1.356 . S
C942 O967 1.325 . S
C943 C942 1.348 . S
C943 C945 1.353 . S
C943 H984 0.929 . S
C944 C942 1.356 . S
C944 C946 1.358 . S
C944 H985 0.930 . S
C945 C943 1.353 . S
C945 N947 1.314 . S
C945 H986 0.930 . S
C946 C944 1.358 . S
C946 N947 1.279 . S
C946 H987 0.930 . S
N947 C945 1.314 . S
N947 C946 1.279 . S
C948 C950 1.353 . S
C948 N951 1.314 . S
C948 H954 0.930 . S
C949 N951 1.279 . S
C949 C952 1.358 . S
C949 H955 0.930 . S
C950 C948 1.353 . S
C950 C953 1.348 . S
C950 H988 0.929 . S
N951 Li906 1.990 . S
N951 C948 1.314 . S
N951 C949 1.279 . S
C952 C949 1.358 . S
C952 C953 1.356 . S
C952 H989 0.930 . S
C953 C950 1.348 . S
C953 C952 1.356 . S
H954 C948 0.930 . S
H955 C949 0.930 . S
C956 N957 1.314 . S
C956 C958 1.353 . S
C956 H962 0.930 . S
N957 Li907 1.990 . S
N957 C956 1.314 . S
N957 C960 1.279 . S
C958 C956 1.353 . S
C958 C961 1.348 . S
C958 H990 0.929 . S
C959 C960 1.358 . S
C959 C961 1.356 . S
C959 H991 0.930 . S
C960 N957 1.279 . S
C960 C959 1.358 . S
C960 H963 0.930 . S
C961 C958 1.348 . S
C961 C959 1.356 . S
H962 C956 0.930 . S
H963 C960 0.930 . S
O964 Li904 1.956 . S
O964 Li905 1.970 1_545 S
O964 Li906 1.961 . S
O964 C908 1.325 . S
O965 Li904 1.970 1_565 S
O965 Li905 1.956 . S
O965 Li907 1.961 . S
O965 C914 1.325 . S
O966 Li904 1.961 . S
O966 Li906 1.956 . S
O966 Li907 1.970 1_545 S
O966 C936 1.325 . S
O967 Li905 1.961 . S
O967 Li906 1.970 1_565 S
O967 Li907 1.956 . S
O967 C942 1.325 . S
H968 C910 0.929 . S
H969 C911 0.930 . S
H970 C912 0.930 . S
H971 C913 0.930 . S
H972 C915 0.930 . S
H973 C917 0.929 . S
H974 C918 0.930 . S
H975 C919 0.930 . S
H976 C922 0.930 . S
H977 C925 0.929 . S
H978 C930 0.929 . S
H979 C931 0.930 . S
H980 C938 0.929 . S
H981 C939 0.930 . S
H982 C940 0.930 . S
H983 C941 0.930 . S
H984 C943 0.929 . S
H985 C944 0.930 . S
H986 C945 0.930 . S
H987 C946 0.930 . S
H988 C950 0.929 . S
H989 C952 0.930 . S
H990 C958 0.929 . S
H991 C959 0.930 . S
Li992 N1009 1.990 . S
Li992 O1052 1.956 . S
Li992 O1053 1.970 . S
Li992 O1054 1.961 . S
Li993 N1017 1.990 . S
Li993 O1052 1.970 . S
Li993 O1053 1.956 . S
Li993 O1055 1.961 . S
Li994 N1039 1.990 . S
Li994 O1052 1.961 . S
Li994 O1054 1.956 . S
Li994 O1055 1.970 . S
Li995 N1045 1.990 . S
Li995 O1053 1.961 . S
Li995 O1054 1.970 . S
Li995 O1055 1.956 . S
C996 C998 1.348 . S
C996 C999 1.356 . S
C996 O1052 1.325 . S
N997 C1000 1.314 . S
N997 C1001 1.279 . S
C998 C996 1.348 . S
C998 C1000 1.353 . S
C998 H1056 0.929 . S
C999 C996 1.356 . S
C999 C1001 1.358 . S
C999 H1057 0.930 . S
C1000 N997 1.314 . S
C1000 C998 1.353 . S
C1000 H1058 0.930 . S
C1001 N997 1.279 . S
C1001 C999 1.358 . S
C1001 H1059 0.930 . S
C1002 C1005 1.348 . S
C1002 C1006 1.356 . S
C1002 O1053 1.325 . S
C1003 N1004 1.279 . S
C1003 C1006 1.358 . S
C1003 H1060 0.930 . S
N1004 C1003 1.279 . S
N1004 C1007 1.314 . S
C1005 C1002 1.348 . S
C1005 C1007 1.353 . S
C1005 H1061 0.929 . S
C1006 C1002 1.356 . S
C1006 C1003 1.358 . S
C1006 H1062 0.930 . S
C1007 N1004 1.314 . S
C1007 C1005 1.353 . S
C1007 H1063 0.930 . S
C1008 N1009 1.314 . S
C1008 C1013 1.353 . S
C1008 H1014 0.930 . S
N1009 Li992 1.990 . S
N1009 C1008 1.314 . S
N1009 C1011 1.279 . S
C1010 C1011 1.358 . S
C1010 C1012 1.356 . S
C1010 H1064 0.930 . S
C1011 N1009 1.279 . S
C1011 C1010 1.358 . S
C1011 H1015 0.930 . S
C1012 C1010 1.356 . S
C1012 C1013 1.348 . S
C1013 C1008 1.353 . S
C1013 C1012 1.348 . S
C1013 H1065 0.929 . S
H1014 C1008 0.930 . S
H1015 C1011 0.930 . S
C1016 N1017 1.314 . S
C1016 C1018 1.353 . S
C1016 H1022 0.930 . S
N1017 Li993 1.990 . S
N1017 C1016 1.314 . S
N1017 C1020 1.279 . S
C1018 C1016 1.353 . S
C1018 C1021 1.348 . S
C1018 H1066 0.929 . S
C1019 C1020 1.358 . S
C1019 C1021 1.356 . S
C1019 H1067 0.930 . S
C1020 N1017 1.279 . S
C1020 C1019 1.358 . S
C1020 H1023 0.930 . S
C1021 C1018 1.348 . S
C1021 C1019 1.356 . S
H1022 C1016 0.930 . S
H1023 C1020 0.930 . S
C1024 C1026 1.348 . S
C1024 C1027 1.356 . S
C1024 O1054 1.325 . S
N1025 C1028 1.314 . S
N1025 C1029 1.279 . S
C1026 C1024 1.348 . S
C1026 C1028 1.353 . S
C1026 H1068 0.929 . S
C1027 C1024 1.356 . S
C1027 C1029 1.358 . S
C1027 H1069 0.930 . S
C1028 N1025 1.314 . S
C1028 C1026 1.353 . S
C1028 H1070 0.930 . S
C1029 N1025 1.279 . S
C1029 C1027 1.358 . S
C1029 H1071 0.930 . S
C1030 C1031 1.348 . S
C1030 C1032 1.356 . S
C1030 O1055 1.325 . S
C1031 C1030 1.348 . S
C1031 C1033 1.353 . S
C1031 H1072 0.929 . S
C1032 C1030 1.356 . S
C1032 C1034 1.358 . S
C1032 H1073 0.930 . S
C1033 C1031 1.353 . S
C1033 N1035 1.314 . S
C1033 H1074 0.930 . S
C1034 C1032 1.358 . S
C1034 N1035 1.279 . S
C1034 H1075 0.930 . S
N1035 C1033 1.314 . S
N1035 C1034 1.279 . S
C1036 C1038 1.353 . S
C1036 N1039 1.314 . S
C1036 H1042 0.930 . S
C1037 N1039 1.279 . S
C1037 C1040 1.358 . S
C1037 H1043 0.930 . S
C1038 C1036 1.353 . S
C1038 C1041 1.348 . S
C1038 H1076 0.929 . S
N1039 Li994 1.990 . S
N1039 C1036 1.314 . S
N1039 C1037 1.279 . S
C1040 C1037 1.358 . S
C1040 C1041 1.356 . S
C1040 H1077 0.930 . S
C1041 C1038 1.348 . S
C1041 C1040 1.356 . S
H1042 C1036 0.930 . S
H1043 C1037 0.930 . S
C1044 N1045 1.314 . S
C1044 C1046 1.353 . S
C1044 H1050 0.930 . S
N1045 Li995 1.990 . S
N1045 C1044 1.314 . S
N1045 C1048 1.279 . S
C1046 C1044 1.353 . S
C1046 C1049 1.348 . S
C1046 H1078 0.929 . S
C1047 C1048 1.358 . S
C1047 C1049 1.356 . S
C1047 H1079 0.930 . S
C1048 N1045 1.279 . S
C1048 C1047 1.358 . S
C1048 H1051 0.930 . S
C1049 C1046 1.348 . S
C1049 C1047 1.356 . S
H1050 C1044 0.930 . S
H1051 C1048 0.930 . S
O1052 Li992 1.956 . S
O1052 Li993 1.970 . S
O1052 Li994 1.961 . S
O1052 C996 1.325 . S
O1053 Li992 1.970 . S
O1053 Li993 1.956 . S
O1053 Li995 1.961 . S
O1053 C1002 1.325 . S
O1054 Li992 1.961 . S
O1054 Li994 1.956 . S
O1054 Li995 1.970 . S
O1054 C1024 1.325 . S
O1055 Li993 1.961 . S
O1055 Li994 1.970 . S
O1055 Li995 1.956 . S
O1055 C1030 1.325 . S
H1056 C998 0.929 . S
H1057 C999 0.930 . S
H1058 C1000 0.930 . S
H1059 C1001 0.930 . S
H1060 C1003 0.930 . S
H1061 C1005 0.929 . S
H1062 C1006 0.930 . S
H1063 C1007 0.930 . S
H1064 C1010 0.930 . S
H1065 C1013 0.929 . S
H1066 C1018 0.929 . S
H1067 C1019 0.930 . S
H1068 C1026 0.929 . S
H1069 C1027 0.930 . S
H1070 C1028 0.930 . S
H1071 C1029 0.930 . S
H1072 C1031 0.929 . S
H1073 C1032 0.930 . S
H1074 C1033 0.930 . S
H1075 C1034 0.930 . S
H1076 C1038 0.929 . S
H1077 C1040 0.930 . S
H1078 C1046 0.929 . S
H1079 C1047 0.930 . S
Li1080 N1097 1.990 . S
Li1080 O1140 1.956 . S
Li1080 O1141 1.970 . S
Li1080 O1142 1.961 . S
Li1081 N1105 1.990 . S
Li1081 O1140 1.970 . S
Li1081 O1141 1.956 . S
Li1081 O1143 1.961 . S
Li1082 N1127 1.990 . S
Li1082 O1140 1.961 . S
Li1082 O1142 1.956 . S
Li1082 O1143 1.970 . S
Li1083 N1133 1.990 . S
Li1083 O1141 1.961 . S
Li1083 O1142 1.970 . S
Li1083 O1143 1.956 . S
C1084 C1086 1.348 . S
C1084 C1087 1.356 . S
C1084 O1140 1.325 . S
N1085 C1088 1.314 . S
N1085 C1089 1.279 . S
C1086 C1084 1.348 . S
C1086 C1088 1.353 . S
C1086 H1144 0.929 . S
C1087 C1084 1.356 . S
C1087 C1089 1.358 . S
C1087 H1145 0.930 . S
C1088 N1085 1.314 . S
C1088 C1086 1.353 . S
C1088 H1146 0.930 . S
C1089 N1085 1.279 . S
C1089 C1087 1.358 . S
C1089 H1147 0.930 . S
C1090 C1093 1.348 . S
C1090 C1094 1.356 . S
C1090 O1141 1.325 . S
C1091 N1092 1.279 . S
C1091 C1094 1.358 . S
C1091 H1148 0.930 . S
N1092 C1091 1.279 . S
N1092 C1095 1.314 . S
C1093 C1090 1.348 . S
C1093 C1095 1.353 . S
C1093 H1149 0.929 . S
C1094 C1090 1.356 . S
C1094 C1091 1.358 . S
C1094 H1150 0.930 . S
C1095 N1092 1.314 . S
C1095 C1093 1.353 . S
C1095 H1151 0.930 . S
C1096 N1097 1.314 . S
C1096 C1101 1.353 . S
C1096 H1102 0.930 . S
N1097 Li1080 1.990 . S
N1097 C1096 1.314 . S
N1097 C1099 1.279 . S
C1098 C1099 1.358 . S
C1098 C1100 1.356 . S
C1098 H1152 0.930 . S
C1099 N1097 1.279 . S
C1099 C1098 1.358 . S
C1099 H1103 0.930 . S
C1100 C1098 1.356 . S
C1100 C1101 1.348 . S
C1101 C1096 1.353 . S
C1101 C1100 1.348 . S
C1101 H1153 0.929 . S
H1102 C1096 0.930 . S
H1103 C1099 0.930 . S
C1104 N1105 1.314 . S
C1104 C1106 1.353 . S
C1104 H1110 0.930 . S
N1105 Li1081 1.990 . S
N1105 C1104 1.314 . S
N1105 C1108 1.279 . S
C1106 C1104 1.353 . S
C1106 C1109 1.348 . S
C1106 H1154 0.929 . S
C1107 C1108 1.358 . S
C1107 C1109 1.356 . S
C1107 H1155 0.930 . S
C1108 N1105 1.279 . S
C1108 C1107 1.358 . S
C1108 H1111 0.930 . S
C1109 C1106 1.348 . S
C1109 C1107 1.356 . S
H1110 C1104 0.930 . S
H1111 C1108 0.930 . S
C1112 C1114 1.348 . S
C1112 C1115 1.356 . S
C1112 O1142 1.325 . S
N1113 C1116 1.314 . S
N1113 C1117 1.279 . S
C1114 C1112 1.348 . S
C1114 C1116 1.353 . S
C1114 H1156 0.929 . S
C1115 C1112 1.356 . S
C1115 C1117 1.358 . S
C1115 H1157 0.930 . S
C1116 N1113 1.314 . S
C1116 C1114 1.353 . S
C1116 H1158 0.930 . S
C1117 N1113 1.279 . S
C1117 C1115 1.358 . S
C1117 H1159 0.930 . S
C1118 C1119 1.348 . S
C1118 C1120 1.356 . S
C1118 O1143 1.325 . S
C1119 C1118 1.348 . S
C1119 C1121 1.353 . S
C1119 H1160 0.929 . S
C1120 C1118 1.356 . S
C1120 C1122 1.358 . S
C1120 H1161 0.930 . S
C1121 C1119 1.353 . S
C1121 N1123 1.314 . S
C1121 H1162 0.930 . S
C1122 C1120 1.358 . S
C1122 N1123 1.279 . S
C1122 H1163 0.930 . S
N1123 C1121 1.314 . S
N1123 C1122 1.279 . S
C1124 C1126 1.353 . S
C1124 N1127 1.314 . S
C1124 H1130 0.930 . S
C1125 N1127 1.279 . S
C1125 C1128 1.358 . S
C1125 H1131 0.930 . S
C1126 C1124 1.353 . S
C1126 C1129 1.348 . S
C1126 H1164 0.929 . S
N1127 Li1082 1.990 . S
N1127 C1124 1.314 . S
N1127 C1125 1.279 . S
C1128 C1125 1.358 . S
C1128 C1129 1.356 . S
C1128 H1165 0.930 . S
C1129 C1126 1.348 . S
C1129 C1128 1.356 . S
H1130 C1124 0.930 . S
H1131 C1125 0.930 . S
C1132 N1133 1.314 . S
C1132 C1134 1.353 . S
C1132 H1138 0.930 . S
N1133 Li1083 1.990 . S
N1133 C1132 1.314 . S
N1133 C1136 1.279 . S
C1134 C1132 1.353 . S
C1134 C1137 1.348 . S
C1134 H1166 0.929 . S
C1135 C1136 1.358 . S
C1135 C1137 1.356 . S
C1135 H1167 0.930 . S
C1136 N1133 1.279 . S
C1136 C1135 1.358 . S
C1136 H1139 0.930 . S
C1137 C1134 1.348 . S
C1137 C1135 1.356 . S
H1138 C1132 0.930 . S
H1139 C1136 0.930 . S
O1140 Li1080 1.956 . S
O1140 Li1081 1.970 . S
O1140 Li1082 1.961 . S
O1140 C1084 1.325 . S
O1141 Li1080 1.970 . S
O1141 Li1081 1.956 . S
O1141 Li1083 1.961 . S
O1141 C1090 1.325 . S
O1142 Li1080 1.961 . S
O1142 Li1082 1.956 . S
O1142 Li1083 1.970 . S
O1142 C1112 1.325 . S
O1143 Li1081 1.961 . S
O1143 Li1082 1.970 . S
O1143 Li1083 1.956 . S
O1143 C1118 1.325 . S
H1144 C1086 0.929 . S
H1145 C1087 0.930 . S
H1146 C1088 0.930 . S
H1147 C1089 0.930 . S
H1148 C1091 0.930 . S
H1149 C1093 0.929 . S
H1150 C1094 0.930 . S
H1151 C1095 0.930 . S
H1152 C1098 0.930 . S
H1153 C1101 0.929 . S
H1154 C1106 0.929 . S
H1155 C1107 0.930 . S
H1156 C1114 0.929 . S
H1157 C1115 0.930 . S
H1158 C1116 0.930 . S
H1159 C1117 0.930 . S
H1160 C1119 0.929 . S
H1161 C1120 0.930 . S
H1162 C1121 0.930 . S
H1163 C1122 0.930 . S
H1164 C1126 0.929 . S
H1165 C1128 0.930 . S
H1166 C1134 0.929 . S
H1167 C1135 0.930 . S
Li1168 N1185 1.990 . S
Li1168 O1228 1.956 . S
Li1168 O1229 1.970 . S
Li1168 O1230 1.961 . S
Li1169 N1193 1.990 . S
Li1169 O1228 1.970 . S
Li1169 O1229 1.956 . S
Li1169 O1231 1.961 . S
Li1170 N1215 1.990 . S
Li1170 O1228 1.961 . S
Li1170 O1230 1.956 . S
Li1170 O1231 1.970 . S
Li1171 N1221 1.990 . S
Li1171 O1229 1.961 . S
Li1171 O1230 1.970 . S
Li1171 O1231 1.956 . S
C1172 C1174 1.348 . S
C1172 C1175 1.356 . S
C1172 O1228 1.325 . S
N1173 C1176 1.314 . S
N1173 C1177 1.279 . S
C1174 C1172 1.348 . S
C1174 C1176 1.353 . S
C1174 H1232 0.929 . S
C1175 C1172 1.356 . S
C1175 C1177 1.358 . S
C1175 H1233 0.930 . S
C1176 N1173 1.314 . S
C1176 C1174 1.353 . S
C1176 H1234 0.930 . S
C1177 N1173 1.279 . S
C1177 C1175 1.358 . S
C1177 H1235 0.930 . S
C1178 C1181 1.348 . S
C1178 C1182 1.356 . S
C1178 O1229 1.325 . S
C1179 N1180 1.279 . S
C1179 C1182 1.358 . S
C1179 H1236 0.930 . S
N1180 C1179 1.279 . S
N1180 C1183 1.314 . S
C1181 C1178 1.348 . S
C1181 C1183 1.353 . S
C1181 H1237 0.929 . S
C1182 C1178 1.356 . S
C1182 C1179 1.358 . S
C1182 H1238 0.930 . S
C1183 N1180 1.314 . S
C1183 C1181 1.353 . S
C1183 H1239 0.930 . S
C1184 N1185 1.314 . S
C1184 C1189 1.353 . S
C1184 H1190 0.930 . S
N1185 Li1168 1.990 . S
N1185 C1184 1.314 . S
N1185 C1187 1.279 . S
C1186 C1187 1.358 . S
C1186 C1188 1.356 . S
C1186 H1240 0.930 . S
C1187 N1185 1.279 . S
C1187 C1186 1.358 . S
C1187 H1191 0.930 . S
C1188 C1186 1.356 . S
C1188 C1189 1.348 . S
C1189 C1184 1.353 . S
C1189 C1188 1.348 . S
C1189 H1241 0.929 . S
H1190 C1184 0.930 . S
H1191 C1187 0.930 . S
C1192 N1193 1.314 . S
C1192 C1194 1.353 . S
C1192 H1198 0.930 . S
N1193 Li1169 1.990 . S
N1193 C1192 1.314 . S
N1193 C1196 1.279 . S
C1194 C1192 1.353 . S
C1194 C1197 1.348 . S
C1194 H1242 0.929 . S
C1195 C1196 1.358 . S
C1195 C1197 1.356 . S
C1195 H1243 0.930 . S
C1196 N1193 1.279 . S
C1196 C1195 1.358 . S
C1196 H1199 0.930 . S
C1197 C1194 1.348 . S
C1197 C1195 1.356 . S
H1198 C1192 0.930 . S
H1199 C1196 0.930 . S
C1200 C1202 1.348 . S
C1200 C1203 1.356 . S
C1200 O1230 1.325 . S
N1201 C1204 1.314 . S
N1201 C1205 1.279 . S
C1202 C1200 1.348 . S
C1202 C1204 1.353 . S
C1202 H1244 0.929 . S
C1203 C1200 1.356 . S
C1203 C1205 1.358 . S
C1203 H1245 0.930 . S
C1204 N1201 1.314 . S
C1204 C1202 1.353 . S
C1204 H1246 0.930 . S
C1205 N1201 1.279 . S
C1205 C1203 1.358 . S
C1205 H1247 0.930 . S
C1206 C1207 1.348 . S
C1206 C1208 1.356 . S
C1206 O1231 1.325 . S
C1207 C1206 1.348 . S
C1207 C1209 1.353 . S
C1207 H1248 0.929 . S
C1208 C1206 1.356 . S
C1208 C1210 1.358 . S
C1208 H1249 0.930 . S
C1209 C1207 1.353 . S
C1209 N1211 1.314 . S
C1209 H1250 0.930 . S
C1210 C1208 1.358 . S
C1210 N1211 1.279 . S
C1210 H1251 0.930 . S
N1211 C1209 1.314 . S
N1211 C1210 1.279 . S
C1212 C1214 1.353 . S
C1212 N1215 1.314 . S
C1212 H1218 0.930 . S
C1213 N1215 1.279 . S
C1213 C1216 1.358 . S
C1213 H1219 0.930 . S
C1214 C1212 1.353 . S
C1214 C1217 1.348 . S
C1214 H1252 0.929 . S
N1215 Li1170 1.990 . S
N1215 C1212 1.314 . S
N1215 C1213 1.279 . S
C1216 C1213 1.358 . S
C1216 C1217 1.356 . S
C1216 H1253 0.930 . S
C1217 C1214 1.348 . S
C1217 C1216 1.356 . S
H1218 C1212 0.930 . S
H1219 C1213 0.930 . S
C1220 N1221 1.314 . S
C1220 C1222 1.353 . S
C1220 H1226 0.930 . S
N1221 Li1171 1.990 . S
N1221 C1220 1.314 . S
N1221 C1224 1.279 . S
C1222 C1220 1.353 . S
C1222 C1225 1.348 . S
C1222 H1254 0.929 . S
C1223 C1224 1.358 . S
C1223 C1225 1.356 . S
C1223 H1255 0.930 . S
C1224 N1221 1.279 . S
C1224 C1223 1.358 . S
C1224 H1227 0.930 . S
C1225 C1222 1.348 . S
C1225 C1223 1.356 . S
H1226 C1220 0.930 . S
H1227 C1224 0.930 . S
O1228 Li1168 1.956 . S
O1228 Li1169 1.970 . S
O1228 Li1170 1.961 . S
O1228 C1172 1.325 . S
O1229 Li1168 1.970 . S
O1229 Li1169 1.956 . S
O1229 Li1171 1.961 . S
O1229 C1178 1.325 . S
O1230 Li1168 1.961 . S
O1230 Li1170 1.956 . S
O1230 Li1171 1.970 . S
O1230 C1200 1.325 . S
O1231 Li1169 1.961 . S
O1231 Li1170 1.970 . S
O1231 Li1171 1.956 . S
O1231 C1206 1.325 . S
H1232 C1174 0.929 . S
H1233 C1175 0.930 . S
H1234 C1176 0.930 . S
H1235 C1177 0.930 . S
H1236 C1179 0.930 . S
H1237 C1181 0.929 . S
H1238 C1182 0.930 . S
H1239 C1183 0.930 . S
H1240 C1186 0.930 . S
H1241 C1189 0.929 . S
H1242 C1194 0.929 . S
H1243 C1195 0.930 . S
H1244 C1202 0.929 . S
H1245 C1203 0.930 . S
H1246 C1204 0.930 . S
H1247 C1205 0.930 . S
H1248 C1207 0.929 . S
H1249 C1208 0.930 . S
H1250 C1209 0.930 . S
H1251 C1210 0.930 . S
H1252 C1214 0.929 . S
H1253 C1216 0.930 . S
H1254 C1222 0.929 . S
H1255 C1223 0.930 . S
Li1256 N1273 1.990 . S
Li1256 O1316 1.956 . S
Li1256 O1317 1.970 1_565 S
Li1256 O1318 1.961 . S
Li1257 N1281 1.990 . S
Li1257 O1316 1.970 1_545 S
Li1257 O1317 1.956 . S
Li1257 O1319 1.961 . S
Li1258 N1303 1.990 . S
Li1258 O1316 1.961 . S
Li1258 O1318 1.956 . S
Li1258 O1319 1.970 1_565 S
Li1259 N1309 1.990 . S
Li1259 O1317 1.961 . S
Li1259 O1318 1.970 1_545 S
Li1259 O1319 1.956 . S
C1260 C1262 1.348 . S
C1260 C1263 1.356 . S
C1260 O1316 1.325 . S
N1261 C1264 1.314 . S
N1261 C1265 1.279 . S
C1262 C1260 1.348 . S
C1262 C1264 1.353 . S
C1262 H1320 0.929 . S
C1263 C1260 1.356 . S
C1263 C1265 1.358 . S
C1263 H1321 0.930 . S
C1264 N1261 1.314 . S
C1264 C1262 1.353 . S
C1264 H1322 0.930 . S
C1265 N1261 1.279 . S
C1265 C1263 1.358 . S
C1265 H1323 0.930 . S
C1266 C1269 1.348 1_545 S
C1266 C1270 1.356 . S
C1266 O1317 1.325 . S
C1267 N1268 1.279 . S
C1267 C1270 1.358 . S
C1267 H1324 0.930 . S
N1268 C1267 1.279 . S
N1268 C1271 1.314 1_545 S
C1269 C1266 1.348 1_565 S
C1269 C1271 1.353 . S
C1269 H1325 0.929 . S
C1270 C1266 1.356 . S
C1270 C1267 1.358 . S
C1270 H1326 0.930 . S
C1271 N1268 1.314 1_565 S
C1271 C1269 1.353 . S
C1271 H1327 0.930 . S
C1272 N1273 1.314 . S
C1272 C1277 1.353 . S
C1272 H1278 0.930 . S
N1273 Li1256 1.990 . S
N1273 C1272 1.314 . S
N1273 C1275 1.279 . S
C1274 C1275 1.358 . S
C1274 C1276 1.356 . S
C1274 H1328 0.930 . S
C1275 N1273 1.279 . S
C1275 C1274 1.358 . S
C1275 H1279 0.930 . S
C1276 C1274 1.356 . S
C1276 C1277 1.348 . S
C1277 C1272 1.353 . S
C1277 C1276 1.348 . S
C1277 H1329 0.929 . S
H1278 C1272 0.930 . S
H1279 C1275 0.930 . S
C1280 N1281 1.314 . S
C1280 C1282 1.353 . S
C1280 H1286 0.930 . S
N1281 Li1257 1.990 . S
N1281 C1280 1.314 . S
N1281 C1284 1.279 . S
C1282 C1280 1.353 . S
C1282 C1285 1.348 . S
C1282 H1330 0.929 . S
C1283 C1284 1.358 . S
C1283 C1285 1.356 . S
C1283 H1331 0.930 . S
C1284 N1281 1.279 . S
C1284 C1283 1.358 . S
C1284 H1287 0.930 . S
C1285 C1282 1.348 . S
C1285 C1283 1.356 . S
H1286 C1280 0.930 . S
H1287 C1284 0.930 . S
C1288 C1290 1.348 1_565 S
C1288 C1291 1.356 . S
C1288 O1318 1.325 . S
N1289 C1292 1.314 1_565 S
N1289 C1293 1.279 . S
C1290 C1288 1.348 1_545 S
C1290 C1292 1.353 . S
C1290 H1332 0.929 . S
C1291 C1288 1.356 . S
C1291 C1293 1.358 . S
C1291 H1333 0.930 . S
C1292 N1289 1.314 1_545 S
C1292 C1290 1.353 . S
C1292 H1334 0.930 . S
C1293 N1289 1.279 . S
C1293 C1291 1.358 . S
C1293 H1335 0.930 . S
C1294 C1295 1.348 . S
C1294 C1296 1.356 . S
C1294 O1319 1.325 . S
C1295 C1294 1.348 . S
C1295 C1297 1.353 . S
C1295 H1336 0.929 . S
C1296 C1294 1.356 . S
C1296 C1298 1.358 . S
C1296 H1337 0.930 . S
C1297 C1295 1.353 . S
C1297 N1299 1.314 . S
C1297 H1338 0.930 . S
C1298 C1296 1.358 . S
C1298 N1299 1.279 . S
C1298 H1339 0.930 . S
N1299 C1297 1.314 . S
N1299 C1298 1.279 . S
C1300 C1302 1.353 . S
C1300 N1303 1.314 . S
C1300 H1306 0.930 . S
C1301 N1303 1.279 . S
C1301 C1304 1.358 . S
C1301 H1307 0.930 . S
C1302 C1300 1.353 . S
C1302 C1305 1.348 . S
C1302 H1340 0.929 . S
N1303 Li1258 1.990 . S
N1303 C1300 1.314 . S
N1303 C1301 1.279 . S
C1304 C1301 1.358 . S
C1304 C1305 1.356 . S
C1304 H1341 0.930 . S
C1305 C1302 1.348 . S
C1305 C1304 1.356 . S
H1306 C1300 0.930 . S
H1307 C1301 0.930 . S
C1308 N1309 1.314 . S
C1308 C1310 1.353 . S
C1308 H1314 0.930 . S
N1309 Li1259 1.990 . S
N1309 C1308 1.314 . S
N1309 C1312 1.279 . S
C1310 C1308 1.353 . S
C1310 C1313 1.348 . S
C1310 H1342 0.929 . S
C1311 C1312 1.358 . S
C1311 C1313 1.356 . S
C1311 H1343 0.930 . S
C1312 N1309 1.279 . S
C1312 C1311 1.358 . S
C1312 H1315 0.930 . S
C1313 C1310 1.348 . S
C1313 C1311 1.356 . S
H1314 C1308 0.930 . S
H1315 C1312 0.930 . S
O1316 Li1256 1.956 . S
O1316 Li1257 1.970 1_565 S
O1316 Li1258 1.961 . S
O1316 C1260 1.325 . S
O1317 Li1256 1.970 1_545 S
O1317 Li1257 1.956 . S
O1317 Li1259 1.961 . S
O1317 C1266 1.325 . S
O1318 Li1256 1.961 . S
O1318 Li1258 1.956 . S
O1318 Li1259 1.970 1_565 S
O1318 C1288 1.325 . S
O1319 Li1257 1.961 . S
O1319 Li1258 1.970 1_545 S
O1319 Li1259 1.956 . S
O1319 C1294 1.325 . S
H1320 C1262 0.929 . S
H1321 C1263 0.930 . S
H1322 C1264 0.930 . S
H1323 C1265 0.930 . S
H1324 C1267 0.930 . S
H1325 C1269 0.929 . S
H1326 C1270 0.930 . S
H1327 C1271 0.930 . S
H1328 C1274 0.930 . S
H1329 C1277 0.929 . S
H1330 C1282 0.929 . S
H1331 C1283 0.930 . S
H1332 C1290 0.929 . S
H1333 C1291 0.930 . S
H1334 C1292 0.930 . S
H1335 C1293 0.930 . S
H1336 C1295 0.929 . S
H1337 C1296 0.930 . S
H1338 C1297 0.930 . S
H1339 C1298 0.930 . S
H1340 C1302 0.929 . S
H1341 C1304 0.930 . S
H1342 C1310 0.929 . S
H1343 C1311 0.930 . S
Li1344 N1361 1.990 . S
Li1344 O1404 1.956 . S
Li1344 O1405 1.970 . S
Li1344 O1406 1.961 . S
Li1345 N1369 1.990 1_455 S
Li1345 O1404 1.970 . S
Li1345 O1405 1.956 . S
Li1345 O1407 1.961 1_455 S
Li1346 N1391 1.990 . S
Li1346 O1404 1.961 . S
Li1346 O1406 1.956 . S
Li1346 O1407 1.970 1_455 S
Li1347 N1397 1.990 . S
Li1347 O1405 1.961 1_655 S
Li1347 O1406 1.970 1_655 S
Li1347 O1407 1.956 . S
C1348 C1350 1.348 . S
C1348 C1351 1.356 . S
C1348 O1404 1.325 . S
N1349 C1352 1.314 . S
N1349 C1353 1.279 . S
C1350 C1348 1.348 . S
C1350 C1352 1.353 . S
C1350 H1408 0.929 . S
C1351 C1348 1.356 . S
C1351 C1353 1.358 . S
C1351 H1409 0.930 . S
C1352 N1349 1.314 . S
C1352 C1350 1.353 . S
C1352 H1410 0.930 . S
C1353 N1349 1.279 . S
C1353 C1351 1.358 . S
C1353 H1411 0.930 . S
C1354 C1357 1.348 1_655 S
C1354 C1358 1.356 . S
C1354 O1405 1.325 1_655 S
C1355 N1356 1.279 . S
C1355 C1358 1.358 . S
C1355 H1412 0.930 . S
N1356 C1355 1.279 . S
N1356 C1359 1.314 1_655 S
C1357 C1354 1.348 1_455 S
C1357 C1359 1.353 . S
C1357 H1413 0.929 . S
C1358 C1354 1.356 . S
C1358 C1355 1.358 . S
C1358 H1414 0.930 . S
C1359 N1356 1.314 1_455 S
C1359 C1357 1.353 . S
C1359 H1415 0.930 . S
C1360 N1361 1.314 . S
C1360 C1365 1.353 . S
C1360 H1366 0.930 . S
N1361 Li1344 1.990 . S
N1361 C1360 1.314 . S
N1361 C1363 1.279 . S
C1362 C1363 1.358 . S
C1362 C1364 1.356 . S
C1362 H1416 0.930 . S
C1363 N1361 1.279 . S
C1363 C1362 1.358 . S
C1363 H1367 0.930 . S
C1364 C1362 1.356 . S
C1364 C1365 1.348 . S
C1365 C1360 1.353 . S
C1365 C1364 1.348 . S
C1365 H1417 0.929 . S
H1366 C1360 0.930 . S
H1367 C1363 0.930 . S
C1368 N1369 1.314 . S
C1368 C1370 1.353 . S
C1368 H1374 0.930 . S
N1369 Li1345 1.990 1_655 S
N1369 C1368 1.314 . S
N1369 C1372 1.279 . S
C1370 C1368 1.353 . S
C1370 C1373 1.348 . S
C1370 H1418 0.929 . S
C1371 C1372 1.358 . S
C1371 C1373 1.356 . S
C1371 H1419 0.930 . S
C1372 N1369 1.279 . S
C1372 C1371 1.358 . S
C1372 H1375 0.930 1_655 S
C1373 C1370 1.348 . S
C1373 C1371 1.356 . S
H1374 C1368 0.930 . S
H1375 C1372 0.930 1_455 S
C1376 C1378 1.348 1_455 S
C1376 C1379 1.356 . S
C1376 O1406 1.325 . S
N1377 C1380 1.314 1_455 S
N1377 C1381 1.279 . S
C1378 C1376 1.348 1_655 S
C1378 C1380 1.353 . S
C1378 H1420 0.929 . S
C1379 C1376 1.356 . S
C1379 C1381 1.358 . S
C1379 H1421 0.930 . S
C1380 N1377 1.314 1_655 S
C1380 C1378 1.353 . S
C1380 H1422 0.930 . S
C1381 N1377 1.279 . S
C1381 C1379 1.358 . S
C1381 H1423 0.930 . S
C1382 C1383 1.348 . S
C1382 C1384 1.356 . S
C1382 O1407 1.325 . S
C1383 C1382 1.348 . S
C1383 C1385 1.353 . S
C1383 H1424 0.929 . S
C1384 C1382 1.356 . S
C1384 C1386 1.358 . S
C1384 H1425 0.930 . S
C1385 C1383 1.353 . S
C1385 N1387 1.314 . S
C1385 H1426 0.930 . S
C1386 C1384 1.358 . S
C1386 N1387 1.279 . S
C1386 H1427 0.930 . S
N1387 C1385 1.314 . S
N1387 C1386 1.279 . S
C1388 C1390 1.353 . S
C1388 N1391 1.314 . S
C1388 H1394 0.930 . S
C1389 N1391 1.279 . S
C1389 C1392 1.358 . S
C1389 H1395 0.930 . S
C1390 C1388 1.353 . S
C1390 C1393 1.348 . S
C1390 H1428 0.929 . S
N1391 Li1346 1.990 . S
N1391 C1388 1.314 . S
N1391 C1389 1.279 . S
C1392 C1389 1.358 . S
C1392 C1393 1.356 . S
C1392 H1429 0.930 . S
C1393 C1390 1.348 . S
C1393 C1392 1.356 . S
H1394 C1388 0.930 . S
H1395 C1389 0.930 . S
C1396 N1397 1.314 . S
C1396 C1398 1.353 . S
C1396 H1402 0.930 . S
N1397 Li1347 1.990 . S
N1397 C1396 1.314 . S
N1397 C1400 1.279 . S
C1398 C1396 1.353 . S
C1398 C1401 1.348 . S
C1398 H1430 0.929 . S
C1399 C1400 1.358 . S
C1399 C1401 1.356 . S
C1399 H1431 0.930 . S
C1400 N1397 1.279 . S
C1400 C1399 1.358 . S
C1400 H1403 0.930 . S
C1401 C1398 1.348 . S
C1401 C1399 1.356 . S
H1402 C1396 0.930 . S
H1403 C1400 0.930 . S
O1404 Li1344 1.956 . S
O1404 Li1345 1.970 . S
O1404 Li1346 1.961 . S
O1404 C1348 1.325 . S
O1405 Li1344 1.970 . S
O1405 Li1345 1.956 . S
O1405 Li1347 1.961 1_455 S
O1405 C1354 1.325 1_455 S
O1406 Li1344 1.961 . S
O1406 Li1346 1.956 . S
O1406 Li1347 1.970 1_455 S
O1406 C1376 1.325 . S
O1407 Li1345 1.961 1_655 S
O1407 Li1346 1.970 1_655 S
O1407 Li1347 1.956 . S
O1407 C1382 1.325 . S
H1408 C1350 0.929 . S
H1409 C1351 0.930 . S
H1410 C1352 0.930 . S
H1411 C1353 0.930 . S
H1412 C1355 0.930 . S
H1413 C1357 0.929 . S
H1414 C1358 0.930 . S
H1415 C1359 0.930 . S
H1416 C1362 0.930 . S
H1417 C1365 0.929 . S
H1418 C1370 0.929 . S
H1419 C1371 0.930 . S
H1420 C1378 0.929 . S
H1421 C1379 0.930 . S
H1422 C1380 0.930 . S
H1423 C1381 0.930 . S
H1424 C1383 0.929 . S
H1425 C1384 0.930 . S
H1426 C1385 0.930 . S
H1427 C1386 0.930 . S
H1428 C1390 0.929 . S
H1429 C1392 0.930 . S
H1430 C1398 0.929 . S
H1431 C1399 0.930 . S
Li1432 N1449 1.990 . S
Li1432 O1492 1.956 . S
Li1432 O1493 1.970 . S
Li1432 O1494 1.961 . S
Li1433 N1457 1.990 . S
Li1433 O1492 1.970 . S
Li1433 O1493 1.956 . S
Li1433 O1495 1.961 . S
Li1434 N1479 1.990 . S
Li1434 O1492 1.961 . S
Li1434 O1494 1.956 . S
Li1434 O1495 1.970 . S
Li1435 N1485 1.990 . S
Li1435 O1493 1.961 . S
Li1435 O1494 1.970 . S
Li1435 O1495 1.956 . S
C1436 C1438 1.348 . S
C1436 C1439 1.356 . S
C1436 O1492 1.325 . S
N1437 C1440 1.314 . S
N1437 C1441 1.279 . S
C1438 C1436 1.348 . S
C1438 C1440 1.353 . S
C1438 H1496 0.929 . S
C1439 C1436 1.356 . S
C1439 C1441 1.358 . S
C1439 H1497 0.930 . S
C1440 N1437 1.314 . S
C1440 C1438 1.353 . S
C1440 H1498 0.930 . S
C1441 N1437 1.279 . S
C1441 C1439 1.358 . S
C1441 H1499 0.930 . S
C1442 C1445 1.348 . S
C1442 C1446 1.356 . S
C1442 O1493 1.325 . S
C1443 N1444 1.279 . S
C1443 C1446 1.358 . S
C1443 H1500 0.930 . S
N1444 C1443 1.279 . S
N1444 C1447 1.314 . S
C1445 C1442 1.348 . S
C1445 C1447 1.353 . S
C1445 H1501 0.929 . S
C1446 C1442 1.356 . S
C1446 C1443 1.358 . S
C1446 H1502 0.930 . S
C1447 N1444 1.314 . S
C1447 C1445 1.353 . S
C1447 H1503 0.930 . S
C1448 N1449 1.314 . S
C1448 C1453 1.353 . S
C1448 H1454 0.930 . S
N1449 Li1432 1.990 . S
N1449 C1448 1.314 . S
N1449 C1451 1.279 . S
C1450 C1451 1.358 . S
C1450 C1452 1.356 . S
C1450 H1504 0.930 . S
C1451 N1449 1.279 . S
C1451 C1450 1.358 . S
C1451 H1455 0.930 . S
C1452 C1450 1.356 . S
C1452 C1453 1.348 . S
C1453 C1448 1.353 . S
C1453 C1452 1.348 . S
C1453 H1505 0.929 . S
H1454 C1448 0.930 . S
H1455 C1451 0.930 . S
C1456 N1457 1.314 . S
C1456 C1458 1.353 . S
C1456 H1462 0.930 . S
N1457 Li1433 1.990 . S
N1457 C1456 1.314 . S
N1457 C1460 1.279 . S
C1458 C1456 1.353 . S
C1458 C1461 1.348 . S
C1458 H1506 0.929 . S
C1459 C1460 1.358 . S
C1459 C1461 1.356 . S
C1459 H1507 0.930 . S
C1460 N1457 1.279 . S
C1460 C1459 1.358 . S
C1460 H1463 0.930 . S
C1461 C1458 1.348 . S
C1461 C1459 1.356 . S
H1462 C1456 0.930 . S
H1463 C1460 0.930 . S
C1464 C1466 1.348 . S
C1464 C1467 1.356 . S
C1464 O1494 1.325 . S
N1465 C1468 1.314 . S
N1465 C1469 1.279 . S
C1466 C1464 1.348 . S
C1466 C1468 1.353 . S
C1466 H1508 0.929 . S
C1467 C1464 1.356 . S
C1467 C1469 1.358 . S
C1467 H1509 0.930 . S
C1468 N1465 1.314 . S
C1468 C1466 1.353 . S
C1468 H1510 0.930 . S
C1469 N1465 1.279 . S
C1469 C1467 1.358 . S
C1469 H1511 0.930 . S
C1470 C1471 1.348 . S
C1470 C1472 1.356 . S
C1470 O1495 1.325 . S
C1471 C1470 1.348 . S
C1471 C1473 1.353 . S
C1471 H1512 0.929 . S
C1472 C1470 1.356 . S
C1472 C1474 1.358 . S
C1472 H1513 0.930 . S
C1473 C1471 1.353 . S
C1473 N1475 1.314 . S
C1473 H1514 0.930 . S
C1474 C1472 1.358 . S
C1474 N1475 1.279 . S
C1474 H1515 0.930 . S
N1475 C1473 1.314 . S
N1475 C1474 1.279 . S
C1476 C1478 1.353 . S
C1476 N1479 1.314 . S
C1476 H1482 0.930 . S
C1477 N1479 1.279 . S
C1477 C1480 1.358 . S
C1477 H1483 0.930 . S
C1478 C1476 1.353 . S
C1478 C1481 1.348 . S
C1478 H1516 0.929 . S
N1479 Li1434 1.990 . S
N1479 C1476 1.314 . S
N1479 C1477 1.279 . S
C1480 C1477 1.358 . S
C1480 C1481 1.356 . S
C1480 H1517 0.930 . S
C1481 C1478 1.348 . S
C1481 C1480 1.356 . S
H1482 C1476 0.930 . S
H1483 C1477 0.930 . S
C1484 N1485 1.314 . S
C1484 C1486 1.353 . S
C1484 H1490 0.930 . S
N1485 Li1435 1.990 . S
N1485 C1484 1.314 . S
N1485 C1488 1.279 . S
C1486 C1484 1.353 . S
C1486 C1489 1.348 . S
C1486 H1518 0.929 . S
C1487 C1488 1.358 . S
C1487 C1489 1.356 . S
C1487 H1519 0.930 . S
C1488 N1485 1.279 . S
C1488 C1487 1.358 . S
C1488 H1491 0.930 . S
C1489 C1486 1.348 . S
C1489 C1487 1.356 . S
H1490 C1484 0.930 . S
H1491 C1488 0.930 . S
O1492 Li1432 1.956 . S
O1492 Li1433 1.970 . S
O1492 Li1434 1.961 . S
O1492 C1436 1.325 . S
O1493 Li1432 1.970 . S
O1493 Li1433 1.956 . S
O1493 Li1435 1.961 . S
O1493 C1442 1.325 . S
O1494 Li1432 1.961 . S
O1494 Li1434 1.956 . S
O1494 Li1435 1.970 . S
O1494 C1464 1.325 . S
O1495 Li1433 1.961 . S
O1495 Li1434 1.970 . S
O1495 Li1435 1.956 . S
O1495 C1470 1.325 . S
H1496 C1438 0.929 . S
H1497 C1439 0.930 . S
H1498 C1440 0.930 . S
H1499 C1441 0.930 . S
H1500 C1443 0.930 . S
H1501 C1445 0.929 . S
H1502 C1446 0.930 . S
H1503 C1447 0.930 . S
H1504 C1450 0.930 . S
H1505 C1453 0.929 . S
H1506 C1458 0.929 . S
H1507 C1459 0.930 . S
H1508 C1466 0.929 . S
H1509 C1467 0.930 . S
H1510 C1468 0.930 . S
H1511 C1469 0.930 . S
H1512 C1471 0.929 . S
H1513 C1472 0.930 . S
H1514 C1473 0.930 . S
H1515 C1474 0.930 . S
H1516 C1478 0.929 . S
H1517 C1480 0.930 . S
H1518 C1486 0.929 . S
H1519 C1487 0.930 . S
Li1520 N1537 1.990 . S
Li1520 O1580 1.956 . S
Li1520 O1581 1.970 1_455 S
Li1520 O1582 1.961 . S
Li1521 N1545 1.990 . S
Li1521 O1580 1.970 1_655 S
Li1521 O1581 1.956 . S
Li1521 O1583 1.961 1_655 S
Li1522 N1567 1.990 . S
Li1522 O1580 1.961 . S
Li1522 O1582 1.956 . S
Li1522 O1583 1.970 . S
Li1523 N1573 1.990 1_455 S
Li1523 O1581 1.961 1_455 S
Li1523 O1582 1.970 . S
Li1523 O1583 1.956 . S
C1524 C1526 1.348 1_455 S
C1524 C1527 1.356 . S
C1524 O1580 1.325 . S
N1525 C1528 1.314 1_455 S
N1525 C1529 1.279 . S
C1526 C1524 1.348 1_655 S
C1526 C1528 1.353 . S
C1526 H1584 0.929 . S
C1527 C1524 1.356 . S
C1527 C1529 1.358 . S
C1527 H1585 0.930 . S
C1528 N1525 1.314 1_655 S
C1528 C1526 1.353 . S
C1528 H1586 0.930 . S
C1529 N1525 1.279 . S
C1529 C1527 1.358 . S
C1529 H1587 0.930 . S
C1530 C1533 1.348 . S
C1530 C1534 1.356 . S
C1530 O1581 1.325 . S
C1531 N1532 1.279 . S
C1531 C1534 1.358 . S
C1531 H1588 0.930 . S
N1532 C1531 1.279 . S
N1532 C1535 1.314 . S
C1533 C1530 1.348 . S
C1533 C1535 1.353 . S
C1533 H1589 0.929 . S
C1534 C1530 1.356 . S
C1534 C1531 1.358 . S
C1534 H1590 0.930 . S
C1535 N1532 1.314 . S
C1535 C1533 1.353 . S
C1535 H1591 0.930 . S
C1536 N1537 1.314 . S
C1536 C1541 1.353 . S
C1536 H1542 0.930 . S
N1537 Li1520 1.990 . S
N1537 C1536 1.314 . S
N1537 C1539 1.279 . S
C1538 C1539 1.358 . S
C1538 C1540 1.356 . S
C1538 H1592 0.930 . S
C1539 N1537 1.279 . S
C1539 C1538 1.358 . S
C1539 H1543 0.930 . S
C1540 C1538 1.356 . S
C1540 C1541 1.348 . S
C1541 C1536 1.353 . S
C1541 C1540 1.348 . S
C1541 H1593 0.929 . S
H1542 C1536 0.930 . S
H1543 C1539 0.930 . S
C1544 N1545 1.314 . S
C1544 C1546 1.353 . S
C1544 H1550 0.930 . S
N1545 Li1521 1.990 . S
N1545 C1544 1.314 . S
N1545 C1548 1.279 . S
C1546 C1544 1.353 . S
C1546 C1549 1.348 . S
C1546 H1594 0.929 . S
C1547 C1548 1.358 . S
C1547 C1549 1.356 . S
C1547 H1595 0.930 . S
C1548 N1545 1.279 . S
C1548 C1547 1.358 . S
C1548 H1551 0.930 . S
C1549 C1546 1.348 . S
C1549 C1547 1.356 . S
H1550 C1544 0.930 . S
H1551 C1548 0.930 . S
C1552 C1554 1.348 . S
C1552 C1555 1.356 . S
C1552 O1582 1.325 . S
N1553 C1556 1.314 . S
N1553 C1557 1.279 . S
C1554 C1552 1.348 . S
C1554 C1556 1.353 . S
C1554 H1596 0.929 . S
C1555 C1552 1.356 . S
C1555 C1557 1.358 . S
C1555 H1597 0.930 . S
C1556 N1553 1.314 . S
C1556 C1554 1.353 . S
C1556 H1598 0.930 . S
C1557 N1553 1.279 . S
C1557 C1555 1.358 . S
C1557 H1599 0.930 . S
C1558 C1559 1.348 1_655 S
C1558 C1560 1.356 . S
C1558 O1583 1.325 1_655 S
C1559 C1558 1.348 1_455 S
C1559 C1561 1.353 . S
C1559 H1600 0.929 . S
C1560 C1558 1.356 . S
C1560 C1562 1.358 . S
C1560 H1601 0.930 . S
C1561 C1559 1.353 . S
C1561 N1563 1.314 1_455 S
C1561 H1602 0.930 . S
C1562 C1560 1.358 . S
C1562 N1563 1.279 . S
C1562 H1603 0.930 . S
N1563 C1561 1.314 1_655 S
N1563 C1562 1.279 . S
C1564 C1566 1.353 . S
C1564 N1567 1.314 . S
C1564 H1570 0.930 . S
C1565 N1567 1.279 . S
C1565 C1568 1.358 . S
C1565 H1571 0.930 . S
C1566 C1564 1.353 . S
C1566 C1569 1.348 . S
C1566 H1604 0.929 . S
N1567 Li1522 1.990 . S
N1567 C1564 1.314 . S
N1567 C1565 1.279 . S
C1568 C1565 1.358 . S
C1568 C1569 1.356 . S
C1568 H1605 0.930 . S
C1569 C1566 1.348 . S
C1569 C1568 1.356 . S
H1570 C1564 0.930 . S
H1571 C1565 0.930 . S
C1572 N1573 1.314 . S
C1572 C1574 1.353 . S
C1572 H1578 0.930 . S
N1573 Li1523 1.990 1_655 S
N1573 C1572 1.314 . S
N1573 C1576 1.279 . S
C1574 C1572 1.353 . S
C1574 C1577 1.348 . S
C1574 H1606 0.929 . S
C1575 C1576 1.358 . S
C1575 C1577 1.356 . S
C1575 H1607 0.930 . S
C1576 N1573 1.279 . S
C1576 C1575 1.358 . S
C1576 H1579 0.930 1_655 S
C1577 C1574 1.348 . S
C1577 C1575 1.356 . S
H1578 C1572 0.930 . S
H1579 C1576 0.930 1_455 S
O1580 Li1520 1.956 . S
O1580 Li1521 1.970 1_455 S
O1580 Li1522 1.961 . S
O1580 C1524 1.325 . S
O1581 Li1520 1.970 1_655 S
O1581 Li1521 1.956 . S
O1581 Li1523 1.961 1_655 S
O1581 C1530 1.325 . S
O1582 Li1520 1.961 . S
O1582 Li1522 1.956 . S
O1582 Li1523 1.970 . S
O1582 C1552 1.325 . S
O1583 Li1521 1.961 1_455 S
O1583 Li1522 1.970 . S
O1583 Li1523 1.956 . S
O1583 C1558 1.325 1_455 S
H1584 C1526 0.929 . S
H1585 C1527 0.930 . S
H1586 C1528 0.930 . S
H1587 C1529 0.930 . S
H1588 C1531 0.930 . S
H1589 C1533 0.929 . S
H1590 C1534 0.930 . S
H1591 C1535 0.930 . S
H1592 C1538 0.930 . S
H1593 C1541 0.929 . S
H1594 C1546 0.929 . S
H1595 C1547 0.930 . S
H1596 C1554 0.929 . S
H1597 C1555 0.930 . S
H1598 C1556 0.930 . S
H1599 C1557 0.930 . S
H1600 C1559 0.929 . S
H1601 C1560 0.930 . S
H1602 C1561 0.930 . S
H1603 C1562 0.930 . S
H1604 C1566 0.929 . S
H1605 C1568 0.930 . S
H1606 C1574 0.929 . S
H1607 C1575 0.930 . S
Li1608 N1625 1.990 . S
Li1608 O1668 1.956 . S
Li1608 O1669 1.970 . S
Li1608 O1670 1.961 . S
Li1609 N1633 1.990 . S
Li1609 O1668 1.970 . S
Li1609 O1669 1.956 . S
Li1609 O1671 1.961 . S
Li1610 N1655 1.990 . S
Li1610 O1668 1.961 . S
Li1610 O1670 1.956 . S
Li1610 O1671 1.970 . S
Li1611 N1661 1.990 . S
Li1611 O1669 1.961 . S
Li1611 O1670 1.970 . S
Li1611 O1671 1.956 . S
C1612 C1614 1.348 . S
C1612 C1615 1.356 . S
C1612 O1668 1.325 . S
N1613 C1616 1.314 . S
N1613 C1617 1.279 . S
C1614 C1612 1.348 . S
C1614 C1616 1.353 . S
C1614 H1672 0.929 . S
C1615 C1612 1.356 . S
C1615 C1617 1.358 . S
C1615 H1673 0.930 . S
C1616 N1613 1.314 . S
C1616 C1614 1.353 . S
C1616 H1674 0.930 . S
C1617 N1613 1.279 . S
C1617 C1615 1.358 . S
C1617 H1675 0.930 . S
C1618 C1621 1.348 . S
C1618 C1622 1.356 . S
C1618 O1669 1.325 . S
C1619 N1620 1.279 . S
C1619 C1622 1.358 . S
C1619 H1676 0.930 . S
N1620 C1619 1.279 . S
N1620 C1623 1.314 . S
C1621 C1618 1.348 . S
C1621 C1623 1.353 . S
C1621 H1677 0.929 . S
C1622 C1618 1.356 . S
C1622 C1619 1.358 . S
C1622 H1678 0.930 . S
C1623 N1620 1.314 . S
C1623 C1621 1.353 . S
C1623 H1679 0.930 . S
C1624 N1625 1.314 . S
C1624 C1629 1.353 . S
C1624 H1630 0.930 . S
N1625 Li1608 1.990 . S
N1625 C1624 1.314 . S
N1625 C1627 1.279 . S
C1626 C1627 1.358 . S
C1626 C1628 1.356 . S
C1626 H1680 0.930 . S
C1627 N1625 1.279 . S
C1627 C1626 1.358 . S
C1627 H1631 0.930 . S
C1628 C1626 1.356 . S
C1628 C1629 1.348 . S
C1629 C1624 1.353 . S
C1629 C1628 1.348 . S
C1629 H1681 0.929 . S
H1630 C1624 0.930 . S
H1631 C1627 0.930 . S
C1632 N1633 1.314 . S
C1632 C1634 1.353 . S
C1632 H1638 0.930 . S
N1633 Li1609 1.990 . S
N1633 C1632 1.314 . S
N1633 C1636 1.279 . S
C1634 C1632 1.353 . S
C1634 C1637 1.348 . S
C1634 H1682 0.929 . S
C1635 C1636 1.358 . S
C1635 C1637 1.356 . S
C1635 H1683 0.930 . S
C1636 N1633 1.279 . S
C1636 C1635 1.358 . S
C1636 H1639 0.930 . S
C1637 C1634 1.348 . S
C1637 C1635 1.356 . S
H1638 C1632 0.930 . S
H1639 C1636 0.930 . S
C1640 C1642 1.348 . S
C1640 C1643 1.356 . S
C1640 O1670 1.325 . S
N1641 C1644 1.314 . S
N1641 C1645 1.279 . S
C1642 C1640 1.348 . S
C1642 C1644 1.353 . S
C1642 H1684 0.929 . S
C1643 C1640 1.356 . S
C1643 C1645 1.358 . S
C1643 H1685 0.930 . S
C1644 N1641 1.314 . S
C1644 C1642 1.353 . S
C1644 H1686 0.930 . S
C1645 N1641 1.279 . S
C1645 C1643 1.358 . S
C1645 H1687 0.930 . S
C1646 C1647 1.348 . S
C1646 C1648 1.356 . S
C1646 O1671 1.325 . S
C1647 C1646 1.348 . S
C1647 C1649 1.353 . S
C1647 H1688 0.929 . S
C1648 C1646 1.356 . S
C1648 C1650 1.358 . S
C1648 H1689 0.930 . S
C1649 C1647 1.353 . S
C1649 N1651 1.314 . S
C1649 H1690 0.930 . S
C1650 C1648 1.358 . S
C1650 N1651 1.279 . S
C1650 H1691 0.930 . S
N1651 C1649 1.314 . S
N1651 C1650 1.279 . S
C1652 C1654 1.353 . S
C1652 N1655 1.314 . S
C1652 H1658 0.930 . S
C1653 N1655 1.279 . S
C1653 C1656 1.358 . S
C1653 H1659 0.930 . S
C1654 C1652 1.353 . S
C1654 C1657 1.348 . S
C1654 H1692 0.929 . S
N1655 Li1610 1.990 . S
N1655 C1652 1.314 . S
N1655 C1653 1.279 . S
C1656 C1653 1.358 . S
C1656 C1657 1.356 . S
C1656 H1693 0.930 . S
C1657 C1654 1.348 . S
C1657 C1656 1.356 . S
H1658 C1652 0.930 . S
H1659 C1653 0.930 . S
C1660 N1661 1.314 . S
C1660 C1662 1.353 . S
C1660 H1666 0.930 . S
N1661 Li1611 1.990 . S
N1661 C1660 1.314 . S
N1661 C1664 1.279 . S
C1662 C1660 1.353 . S
C1662 C1665 1.348 . S
C1662 H1694 0.929 . S
C1663 C1664 1.358 . S
C1663 C1665 1.356 . S
C1663 H1695 0.930 . S
C1664 N1661 1.279 . S
C1664 C1663 1.358 . S
C1664 H1667 0.930 . S
C1665 C1662 1.348 . S
C1665 C1663 1.356 . S
H1666 C1660 0.930 . S
H1667 C1664 0.930 . S
O1668 Li1608 1.956 . S
O1668 Li1609 1.970 . S
O1668 Li1610 1.961 . S
O1668 C1612 1.325 . S
O1669 Li1608 1.970 . S
O1669 Li1609 1.956 . S
O1669 Li1611 1.961 . S
O1669 C1618 1.325 . S
O1670 Li1608 1.961 . S
O1670 Li1610 1.956 . S
O1670 Li1611 1.970 . S
O1670 C1640 1.325 . S
O1671 Li1609 1.961 . S
O1671 Li1610 1.970 . S
O1671 Li1611 1.956 . S
O1671 C1646 1.325 . S
H1672 C1614 0.929 . S
H1673 C1615 0.930 . S
H1674 C1616 0.930 . S
H1675 C1617 0.930 . S
H1676 C1619 0.930 . S
H1677 C1621 0.929 . S
H1678 C1622 0.930 . S
H1679 C1623 0.930 . S
H1680 C1626 0.930 . S
H1681 C1629 0.929 . S
H1682 C1634 0.929 . S
H1683 C1635 0.930 . S
H1684 C1642 0.929 . S
H1685 C1643 0.930 . S
H1686 C1644 0.930 . S
H1687 C1645 0.930 . S
H1688 C1647 0.929 . S
H1689 C1648 0.930 . S
H1690 C1649 0.930 . S
H1691 C1650 0.930 . S
H1692 C1654 0.929 . S
H1693 C1656 0.930 . S
H1694 C1662 0.929 . S
H1695 C1663 0.930 . S
C689 C202 1.464 . S
C748 C261 1.680 . S
C282 C865 1.616 . S
C933 C162 1.637 . S
C1012 C402 1.465 . S
C1137 C482 1.637 . S
C442 C1197 1.616 . S
C1305 C381 1.681 . S
C461 C1401 1.701 . S
C1461 C362 1.596 . S
C415 C1364 1.470 . S
C1481 C495 1.631 . S
C301 C1549 1.701 . S
C175 C1540 1.631 . S
C215 C1569 1.470 . S
C242 C1577 1.596 . S
C141 C961 1.553 . S
C581 C924 1.553 . S
C660 C615 1.494 . S
C757 C335 1.556 . S
C181 C1021 1.733 . S
C1313 C455 1.556 . S
C1041 C375 1.494 . S
C1225 C501 1.733 . S
C1217 C562 1.464 . S
C621 C1285 1.681 . S
C322 C1049 1.615 . S
C1100 C522 1.637 . S
C122 C845 1.464 . S
C953 C2 1.637 . S
C669 C42 1.615 . S
C785 C101 1.680 . S
C61 C1489 1.701 . S
C82 C1373 1.596 . S
C135 C1452 1.470 . S
C15 C1393 1.631 . S
C1637 C341 1.701 . S
C1628 C535 1.631 . S
C1657 C575 1.470 . S
C602 C1665 1.596 . S
C421 C1129 1.553 . S
C1109 C221 1.553 . S
C1188 C255 1.494 . S
C1276 C295 1.556 . S
C541 C836 1.733 . S
C777 C55 1.556 . S
C95 C873 1.494 . S
C697 C21 1.734 . S
