# Generated by pormake.
# Topology ssa, (4,4)-cn, num edge types: 1
# Building blocks:
#     Node 0, Type 0, BuildingBlock: NAWXER_clean_sbu_0, # of connection points: 4
#     Node 1, Type 0, BuildingBlock: NAWXER_clean_sbu_0, # of connection points: 4
#     Node 2, Type 0, BuildingBlock: NAWXER_clean_sbu_0, # of connection points: 4
#     Node 3, Type 0, BuildingBlock: NAWXER_clean_sbu_0, # of connection points: 4
#     Node 4, Type 0, BuildingBlock: NAWXER_clean_sbu_0, # of connection points: 4
#     Node 5, Type 0, BuildingBlock: NAWXER_clean_sbu_0, # of connection points: 4
#     Node 6, Type 1, BuildingBlock: MUDLON_clean_sbu_0, # of connection points: 4
#     Node 7, Type 1, BuildingBlock: MUDLON_clean_sbu_0, # of connection points: 4
#     Node 8, Type 1, BuildingBlock: MUDLON_clean_sbu_0, # of connection points: 4
#     Node 9, Type 1, BuildingBlock: MUDLON_clean_sbu_0, # of connection points: 4
#     Node 10, Type 1, BuildingBlock: MUDLON_clean_sbu_0, # of connection points: 4
#     Node 11, Type 1, BuildingBlock: MUDLON_clean_sbu_0, # of connection points: 4
#     Edge 12, Type (0, 1), BuildingBlock: KIFKEQ_clean_linker_1, # of connection points: 2
#     Edge 13, Type (0, 1), BuildingBlock: KIFKEQ_clean_linker_1, # of connection points: 2
#     Edge 14, Type (0, 1), BuildingBlock: KIFKEQ_clean_linker_1, # of connection points: 2
#     Edge 15, Type (0, 1), BuildingBlock: KIFKEQ_clean_linker_1, # of connection points: 2
#     Edge 16, Type (0, 1), BuildingBlock: KIFKEQ_clean_linker_1, # of connection points: 2
#     Edge 17, Type (0, 1), BuildingBlock: KIFKEQ_clean_linker_1, # of connection points: 2
#     Edge 18, Type (0, 1), BuildingBlock: KIFKEQ_clean_linker_1, # of connection points: 2
#     Edge 19, Type (0, 1), BuildingBlock: KIFKEQ_clean_linker_1, # of connection points: 2
#     Edge 20, Type (0, 1), BuildingBlock: KIFKEQ_clean_linker_1, # of connection points: 2
#     Edge 21, Type (0, 1), BuildingBlock: KIFKEQ_clean_linker_1, # of connection points: 2
#     Edge 22, Type (0, 1), BuildingBlock: KIFKEQ_clean_linker_1, # of connection points: 2
#     Edge 23, Type (0, 1), BuildingBlock: KIFKEQ_clean_linker_1, # of connection points: 2
#     Edge 24, Type (0, 1), BuildingBlock: KIFKEQ_clean_linker_1, # of connection points: 2
#     Edge 25, Type (0, 1), BuildingBlock: KIFKEQ_clean_linker_1, # of connection points: 2
#     Edge 26, Type (0, 1), BuildingBlock: KIFKEQ_clean_linker_1, # of connection points: 2
#     Edge 27, Type (0, 1), BuildingBlock: KIFKEQ_clean_linker_1, # of connection points: 2
#     Edge 28, Type (0, 1), BuildingBlock: KIFKEQ_clean_linker_1, # of connection points: 2
#     Edge 29, Type (0, 1), BuildingBlock: KIFKEQ_clean_linker_1, # of connection points: 2
#     Edge 30, Type (0, 1), BuildingBlock: KIFKEQ_clean_linker_1, # of connection points: 2
#     Edge 31, Type (0, 1), BuildingBlock: KIFKEQ_clean_linker_1, # of connection points: 2
#     Edge 32, Type (0, 1), BuildingBlock: KIFKEQ_clean_linker_1, # of connection points: 2
#     Edge 33, Type (0, 1), BuildingBlock: KIFKEQ_clean_linker_1, # of connection points: 2
#     Edge 34, Type (0, 1), BuildingBlock: KIFKEQ_clean_linker_1, # of connection points: 2
#     Edge 35, Type (0, 1), BuildingBlock: KIFKEQ_clean_linker_1, # of connection points: 2
# Relax obj value: 0.034
# Max RMSD: 0.048
# Mean RMSD: 0.037
data_MOF--net-ssa--node1-NAWXER_clean_sbu_0--node2-MUDLON_clean_sbu_0--edge1-KIFKEQ_clean_linker_1
_symmetry_space_group_name_H-M    P1
_symmetry_Int_Tables_number       1
_symmetry_cell_setting            triclinic
loop_
_symmetry_equiv_pos_as_xyz
'x, y, z'
_cell_length_a     43.175978
_cell_length_b     43.033951
_cell_length_c     39.720285
_cell_angle_alpha  89.739953
_cell_angle_beta   90.341183
_cell_angle_gamma 120.04739
loop_
_atom_site_label
_atom_site_type_symbol
_atom_site_fract_x
_atom_site_fract_y
_atom_site_fract_z
_atom_type_partial_charge
C0 C 0.07603 0.53963 0.05443 0.0
C1 C 0.0179 0.42984 0.98602 0.0
O2 O 0.04357 0.51795 0.06302 0.0
Zn3 Zn 1.00016 0.46664 0.04808 0.0
O4 O 0.08903 0.53185 0.02937 0.0
Zn5 Zn 0.04734 0.48526 0.01886 0.0
O6 O 1.00831 0.49741 0.99837 0.0
O7 O 0.96265 0.47585 0.03331 0.0
O8 O 0.0496 0.45615 0.98269 0.0
O9 O 0.99785 0.43075 1.00926 0.0
O10 O 0.99329 0.43915 0.08883 0.0
O11 O 0.0439 0.45399 0.06266 0.0
C12 C 0.97704 0.49176 1.0059 0.0
C13 C 0.02232 0.43842 0.08719 0.0
C14 C 0.49709 0.02638 0.58261 0.0
C15 C 0.52045 0.94013 0.52429 0.0
O16 O 0.4869 0.99419 0.59122 0.0
Zn17 Zn 0.50812 0.98204 0.55429 0.0
O18 O 0.51435 0.03866 0.55504 0.0
Zn19 Zn 0.53511 0.02077 0.51556 0.0
O20 O 0.50902 0.01971 0.47506 0.0
O21 O 0.47566 0.97726 0.51142 0.0
O22 O 0.53354 0.97073 0.50972 0.0
O23 O 0.50396 0.9348 0.55208 0.0
O24 O 0.56445 0.01781 0.56278 0.0
O25 O 0.58581 0.05461 0.51929 0.0
C26 C 0.47927 0.99223 0.48263 0.0
C27 C 0.59079 0.04431 0.54787 0.0
C28 C 0.49035 0.48505 0.96951 0.0
C29 C 0.51192 0.59304 0.02991 0.0
O30 O 0.4789 0.50629 0.96198 0.0
Zn31 Zn 0.50083 0.53967 0.99883 0.0
O32 O 0.50903 0.49063 0.99639 0.0
Zn33 Zn 0.53067 0.52958 0.03617 0.0
O34 O 0.50656 0.50313 0.07698 0.0
O35 O 0.4709 0.51035 0.04185 0.0
O36 O 0.52663 0.57659 0.04363 0.0
O37 O 0.4949 0.58147 1.0023 0.0
O38 O 0.55656 0.56191 0.98822 0.0
O39 O 0.58179 0.54876 0.03013 0.0
C40 C 0.47588 0.49896 0.07008 0.0
C41 C 0.58437 0.56334 1.00155 0.0
C42 C 0.04687 0.62029 0.46923 0.0
C43 C 0.98924 0.51549 0.54301 0.0
O44 O 0.0659 0.62299 0.49515 0.0
Zn45 Zn 0.06387 0.59017 0.53695 0.0
O46 O 0.01743 0.59149 0.46407 0.0
Zn47 Zn 0.01869 0.56625 0.50409 0.0
O48 O 0.01653 0.59861 0.54454 0.0
O49 O 0.06594 0.61909 0.57514 0.0
O50 O 0.97793 0.51948 0.5146 0.0
O51 O 0.02041 0.53925 0.55337 0.0
O52 O 0.10371 0.58196 0.52802 0.0
O53 O 0.05945 0.55405 0.49183 0.0
C54 C 0.03568 0.61663 0.56983 0.0
C55 C 0.09061 0.56189 0.50239 0.0
C56 C 0.55119 1.00571 0.04962 0.0
C57 C 0.49509 0.05575 0.9752 0.0
O58 O 0.5581 0.03727 0.05807 0.0
Zn59 Zn 0.54721 0.07784 0.04035 0.0
O60 O 0.53384 0.99206 0.02254 0.0
Zn61 Zn 0.52508 0.03096 1.00921 0.0
O62 O 0.5753 0.07435 0.99203 0.0
O63 O 0.59321 0.11876 0.02828 0.0
O64 O 0.49391 0.02581 0.97105 0.0
O65 O 0.51388 0.07639 0.99935 0.0
O66 O 0.52031 0.08082 0.0782 0.0
O67 O 0.49181 0.03023 0.04938 0.0
C68 C 0.59819 0.10644 1.00109 0.0
C69 C 0.4925 0.05031 0.07344 0.0
C70 C 0.5812 0.51246 0.54337 0.0
C71 C 0.47689 0.45922 0.46875 0.0
O72 O 0.55887 0.52297 0.54993 0.0
Zn73 Zn 0.50893 0.51479 0.53097 0.0
O74 O 0.57583 0.4924 0.51806 0.0
Zn75 Zn 0.53082 0.48807 0.50297 0.0
O76 O 0.54328 0.53936 0.48269 0.0
O77 O 0.5183 0.56177 0.51535 0.0
O78 O 0.50496 0.45689 0.46537 0.0
O79 O 0.47556 0.47958 0.49148 0.0
O80 O 0.4782 0.4917 0.56985 0.0
O81 O 0.49556 0.45783 0.5435 0.0
C82 C 0.53651 0.56451 0.48932 0.0
C83 C 0.47745 0.46189 0.56676 0.0
Mg84 Mg 0.24006 0.44535 0.29719 0.0
C85 C 0.16115 0.41119 0.2734 0.0
O86 O 0.155 0.41839 0.3039 0.0
C87 C 0.27165 0.39898 0.31976 0.0
O88 O 0.27586 0.39695 0.2873 0.0
C89 C 0.21367 0.46431 0.35735 0.0
O90 O 0.20521 0.43073 0.36202 0.0
O91 O 0.23108 0.48036 0.33093 0.0
O92 O 0.1922 0.41692 0.26599 0.0
O93 O 0.28498 0.46974 0.26173 0.0
C94 C 0.28002 0.45081 0.23548 0.0
O95 O 0.24863 0.42188 0.23119 0.0
O96 O 0.25392 0.41346 0.32989 0.0
Mg97 Mg 0.81515 0.25897 0.75705 0.0
C98 C 0.79625 0.21183 0.69342 0.0
O99 O 0.82038 0.24188 0.67937 0.0
C100 C 0.86605 0.25686 0.81079 0.0
O101 O 0.8375 0.22719 0.82062 0.0
C102 C 0.78098 0.25833 0.8253 0.0
O103 O 0.81396 0.28223 0.83361 0.0
O104 O 0.77409 0.2472 0.79502 0.0
O105 O 0.79119 0.21102 0.72506 0.0
O106 O 0.83011 0.30539 0.72435 0.0
C107 C 0.85917 0.31519 0.70854 0.0
O108 O 0.87685 0.2982 0.71442 0.0
O109 O 0.86433 0.27239 0.78412 0.0
Mg110 Mg 0.52975 0.77895 0.27129 0.0
C111 C 0.55255 0.85114 0.23913 0.0
O112 O 0.53245 0.85135 0.26372 0.0
C113 C 0.5518 0.72753 0.30034 0.0
O114 O 0.53202 0.70836 0.27488 0.0
C115 C 0.49388 0.77616 0.33701 0.0
O116 O 0.49703 0.74753 0.34089 0.0
O117 O 0.50164 0.79216 0.30865 0.0
O118 O 0.55942 0.8256 0.23786 0.0
O119 O 0.49674 0.73616 0.2364 0.0
C120 C 0.48989 0.74361 0.20723 0.0
O121 O 0.49674 0.77645 0.20099 0.0
O122 O 0.55901 0.76 0.30296 0.0
Mg123 Mg 0.80524 0.56838 0.78697 0.0
C124 C 0.74794 0.5599 0.73992 0.0
O125 O 0.75828 0.59104 0.75428 0.0
C126 C 0.84644 0.5339 0.81525 0.0
O127 O 0.86568 0.5485 0.78815 0.0
C128 C 0.75398 0.57169 0.83156 0.0
O129 O 0.73703 0.53969 0.81774 0.0
O130 O 0.78624 0.59314 0.8231 0.0
O131 O 0.76214 0.54155 0.74951 0.0
O132 O 0.85366 0.60372 0.75822 0.0
C133 C 0.8528 0.59351 0.72801 0.0
O134 O 0.8237 0.56499 0.71722 0.0
O135 O 0.81782 0.53503 0.81929 0.0
Mg136 Mg 0.25216 0.81204 0.25043 0.0
C137 C 0.21722 0.73665 0.22317 0.0
O138 O 0.20331 0.73071 0.25347 0.0
C139 C 0.29441 0.81968 0.31814 0.0
O140 O 0.26493 0.79281 0.33048 0.0
C141 C 0.20276 0.8087 0.3063 0.0
O142 O 0.23217 0.83702 0.31695 0.0
O143 O 0.20281 0.79538 0.27783 0.0
O144 O 0.24114 0.76847 0.21538 0.0
O145 O 0.27307 0.86165 0.22156 0.0
C146 C 0.30653 0.8748 0.21712 0.0
O147 O 0.32143 0.85617 0.22714 0.0
O148 O 0.29541 0.82829 0.28735 0.0
Mg149 Mg 0.43491 0.22815 0.77007 0.0
C150 C 0.47708 0.19391 0.74717 0.0
O151 O 0.47266 0.18429 0.779 0.0
C152 C 0.47072 0.30276 0.79845 0.0
O153 O 0.46729 0.30945 0.76676 0.0
C154 C 0.40143 0.17803 0.82914 0.0
O155 O 0.40851 0.20819 0.84385 0.0
O156 O 0.40471 0.17785 0.79739 0.0
O157 O 0.46782 0.21623 0.7372 0.0
O158 O 0.40633 0.24734 0.73869 0.0
C159 C 0.41022 0.24796 0.70695 0.0
O160 O 0.42479 0.23029 0.69399 0.0
O161 O 0.46253 0.27097 0.80681 0.0
H162 H 0.05875 0.4025 0.08139 0.0
H163 H 0.01149 0.43986 0.15455 0.0
H164 H 0.08546 0.3851 0.12646 0.0
H165 H 0.04028 0.42512 0.19981 0.0
H166 H 0.09008 0.39057 0.27916 0.0
H167 H 0.04959 0.38697 0.23425 0.0
H168 H 0.13368 0.4144 0.16149 0.0
H169 H 0.17283 0.41572 0.20579 0.0
C170 C 0.0539 0.4067 0.10726 0.0
C171 C 0.03328 0.42266 0.11456 0.0
C172 C 0.06953 0.39711 0.13317 0.0
C173 C 0.06593 0.40442 0.16701 0.0
C174 C 0.04354 0.41865 0.17426 0.0
C175 C 0.02707 0.4273 0.1483 0.0
C176 C 0.09951 0.39501 0.25341 0.0
C177 C 0.13474 0.40361 0.24611 0.0
C178 C 0.07641 0.3933 0.22763 0.0
C179 C 0.08823 0.40078 0.19401 0.0
C180 C 0.12305 0.40779 0.18676 0.0
C181 C 0.14581 0.40882 0.21237 0.0
H182 H 0.61317 0.02363 0.60365 0.0
H183 H 0.64685 0.11106 0.53285 0.0
H184 H 0.6666 0.05973 0.63743 0.0
H185 H 0.69967 0.14769 0.5672 0.0
H186 H 0.80162 0.20312 0.62599 0.0
H187 H 0.75582 0.15889 0.58878 0.0
H188 H 0.68682 0.10926 0.67441 0.0
H189 H 0.73303 0.15268 0.71159 0.0
C190 C 0.63216 0.05049 0.59513 0.0
C191 C 0.6256 0.06456 0.56566 0.0
C192 C 0.66271 0.0713 0.61465 0.0
C193 C 0.68735 0.10686 0.60539 0.0
C194 C 0.68159 0.12032 0.57503 0.0
C195 C 0.65115 0.09935 0.55533 0.0
C196 C 0.77692 0.18234 0.63694 0.0
C197 C 0.77091 0.18163 0.67177 0.0
C198 C 0.75051 0.15712 0.61554 0.0
C199 C 0.71733 0.1307 0.62841 0.0
C200 C 0.71211 0.12891 0.6635 0.0
C201 C 0.73862 0.15396 0.68492 0.0
H202 H 0.55336 0.6292 0.08347 0.0
H203 H 0.46608 0.61971 0.02201 0.0
H204 H 0.54236 0.66435 0.12429 0.0
H205 H 0.45534 0.65562 0.06328 0.0
H206 H 0.48347 0.75432 0.13998 0.0
H207 H 0.48749 0.71984 0.09304 0.0
H208 H 0.48761 0.64319 0.16336 0.0
H209 H 0.48352 0.67724 0.21017 0.0
C210 C 0.53222 0.63519 0.07831 0.0
C211 C 0.51032 0.62128 0.04965 0.0
C212 C 0.52576 0.65508 0.10189 0.0
C213 C 0.49741 0.66182 0.09733 0.0
C214 C 0.47717 0.65045 0.06746 0.0
C215 C 0.48349 0.63016 0.04378 0.0
C216 C 0.48346 0.72964 0.1454 0.0
C217 C 0.48377 0.71886 0.17889 0.0
C218 C 0.48579 0.70997 0.11849 0.0
C219 C 0.48869 0.6794 0.12471 0.0
C220 C 0.48617 0.66714 0.15797 0.0
C221 C 0.48359 0.68655 0.18477 0.0
H222 H 0.0414 0.61748 0.63839 0.0
H223 H 0.99271 0.6444 0.55674 0.0
H224 H 1.0015 0.62295 0.67827 0.0
H225 H 0.95414 0.65174 0.59652 0.0
H226 H 0.85292 0.58831 0.66034 0.0
H227 H 0.90345 0.60558 0.62379 0.0
H228 H 0.97566 0.65385 0.70806 0.0
H229 H 0.92408 0.6354 0.74532 0.0
C230 C 0.02321 0.62608 0.6292 0.0
C231 C 0.01972 0.63004 0.5945 0.0
C232 C 1.00033 0.62927 0.65205 0.0
C233 C 0.97394 0.63694 0.64054 0.0
C234 C 0.97338 0.64475 0.60617 0.0
C235 C 0.99566 0.64085 0.58336 0.0
C236 C 0.87955 0.60314 0.67111 0.0
C237 C 0.88447 0.61022 0.70578 0.0
C238 C 0.90873 0.61344 0.64999 0.0
C239 C 0.94384 0.63124 0.66285 0.0
C240 C 0.94897 0.63995 0.69736 0.0
C241 C 0.9195 0.62967 0.71865 0.0
H242 H 0.42416 1.001 0.05777 0.0
H243 H 0.48998 0.0675 0.13954 0.0
H244 H 0.37494 0.96781 0.09634 0.0
H245 H 0.44013 0.03424 0.17853 0.0
H246 H 0.28823 0.90959 0.16953 0.0
H247 H 0.32995 0.96304 0.13716 0.0
H248 H 0.41782 0.97225 0.19744 0.0
H249 H 0.37656 0.91965 0.22941 0.0
C250 C 0.42778 0.0091 0.08395 0.0
C251 C 0.46113 0.03631 0.09583 0.0
C252 C 0.39936 0.99031 0.10602 0.0
C253 C 0.40371 0.99811 0.14058 0.0
C254 C 0.43614 0.0274 0.15204 0.0
C255 C 0.46462 0.0465 0.12977 0.0
C256 C 0.31634 0.92373 0.17627 0.0
C257 C 0.32934 0.91019 0.20143 0.0
C258 C 0.34021 0.9542 0.15778 0.0
C259 C 0.37725 0.97175 0.16459 0.0
C260 C 0.38953 0.95973 0.19169 0.0
C261 C 0.36588 0.92923 0.20975 0.0
H262 H 0.47682 0.45914 0.63564 0.0
H263 H 0.42989 0.39484 0.54689 0.0
H264 H 0.45118 0.40459 0.67015 0.0
H265 H 0.4025 0.34057 0.58114 0.0
H266 H 0.41875 0.2574 0.63917 0.0
H267 H 0.42665 0.30845 0.60659 0.0
H268 H 0.40282 0.35159 0.69443 0.0
H269 H 0.39614 0.30062 0.72759 0.0
C270 C 0.45988 0.43338 0.62379 0.0
C271 C 0.45548 0.43096 0.58873 0.0
C272 C 0.44508 0.40207 0.64349 0.0
C273 C 0.42528 0.36794 0.62839 0.0
C274 C 0.41844 0.36617 0.59357 0.0
C275 C 0.4338 0.39726 0.57394 0.0
C276 C 0.41447 0.27734 0.65149 0.0
C277 C 0.40711 0.27497 0.68608 0.0
C278 C 0.41879 0.30671 0.63267 0.0
C279 C 0.41559 0.33449 0.64781 0.0
C280 C 0.40605 0.33105 0.68202 0.0
C281 C 0.40183 0.30159 0.70096 0.0
H282 H 0.47114 0.868 0.52769 0.0
H283 H 0.56648 0.9457 0.4756 0.0
H284 H 0.46053 0.82346 0.48395 0.0
H285 H 0.55571 0.90166 0.43225 0.0
H286 H 0.49662 0.84089 0.33932 0.0
H287 H 0.50296 0.87631 0.38918 0.0
H288 H 0.48996 0.78908 0.45282 0.0
H289 H 0.48371 0.75328 0.40275 0.0
C290 C 0.49045 0.87517 0.50763 0.0
C291 C 0.51946 0.91043 0.50487 0.0
C292 C 0.48419 0.84982 0.48249 0.0
C293 C 0.50678 0.85957 0.45434 0.0
C294 C 0.53741 0.89377 0.45328 0.0
C295 C 0.54373 0.91886 0.47829 0.0
C296 C 0.49443 0.82888 0.36385 0.0
C297 C 0.49014 0.79441 0.36699 0.0
C298 C 0.49833 0.84929 0.39241 0.0
C299 C 0.49773 0.83565 0.42476 0.0
C300 C 0.49074 0.80025 0.42813 0.0
C301 C 0.48713 0.77982 0.39945 0.0
H302 H 0.6442 0.5575 0.01339 0.0
H303 H 0.59911 0.60115 0.943 0.0
H304 H 0.69147 0.56928 0.97286 0.0
H305 H 0.64599 0.61257 0.90286 0.0
H306 H 0.68446 0.55303 0.8297 0.0
H307 H 0.64979 0.56108 0.87335 0.0
H308 H 0.745 0.61827 0.93438 0.0
H309 H 0.78026 0.61082 0.88979 0.0
C310 C 0.64493 0.57053 0.98978 0.0
C311 C 0.61748 0.57776 0.98121 0.0
C312 C 0.67205 0.57736 0.96663 0.0
C313 C 0.67203 0.59138 0.93459 0.0
C314 C 0.64637 0.60136 0.92724 0.0
C315 C 0.6195 0.59475 0.9503 0.0
C316 C 0.69816 0.56794 0.85214 0.0
C317 C 0.73498 0.58139 0.85639 0.0
C318 C 0.67835 0.57267 0.87707 0.0
C319 C 0.69474 0.59038 0.90721 0.0
C320 C 0.7318 0.60457 0.91133 0.0
C321 C 0.75192 0.60054 0.88583 0.0
H322 H 0.04459 0.61609 0.40078 0.0
H323 H 0.08123 0.69152 0.48293 0.0
H324 H 0.07746 0.66505 0.36118 0.0
H325 H 0.11179 0.74105 0.44343 0.0
H326 H 0.20637 0.80997 0.37466 0.0
H327 H 0.16334 0.76656 0.41337 0.0
H328 H 0.08894 0.71527 0.33097 0.0
H329 H 0.13357 0.75769 0.29184 0.0
C330 C 0.05877 0.64338 0.41015 0.0
C331 C 0.06078 0.65011 0.44482 0.0
C332 C 0.07754 0.67164 0.38745 0.0
C333 C 0.09802 0.70736 0.39891 0.0
C334 C 0.09751 0.71401 0.43355 0.0
C335 C 0.07966 0.68568 0.45626 0.0
C336 C 0.18055 0.78989 0.36487 0.0
C337 C 0.17348 0.78713 0.33016 0.0
C338 C 0.15556 0.76487 0.3872 0.0
C339 C 0.1224 0.73682 0.37554 0.0
C340 C 0.11442 0.73573 0.34096 0.0
C341 C 0.13984 0.76034 0.31849 0.0
H342 H 0.49356 0.11778 0.98002 0.0
H343 H 0.45061 0.02063 0.921 0.0
H344 H 0.46193 0.1389 0.94529 0.0
H345 H 0.41778 0.04189 0.88601 0.0
H346 H 0.41341 0.12419 0.8084 0.0
H347 H 0.4297 0.08845 0.84419 0.0
H348 H 0.40388 0.1294 0.93229 0.0
H349 H 0.38919 0.16639 0.89657 0.0
C350 C 0.47705 0.10064 0.95974 0.0
C351 C 0.47476 0.06744 0.95334 0.0
C352 C 0.45845 0.11267 0.93995 0.0
C353 C 0.43675 0.09191 0.9131 0.0
C354 C 0.43426 0.05856 0.90653 0.0
C355 C 0.45303 0.04637 0.92655 0.0
C356 C 0.41038 0.12495 0.83538 0.0
C357 C 0.40087 0.14888 0.84969 0.0
C358 C 0.41963 0.10428 0.85593 0.0
C359 C 0.4191 0.1068 0.89118 0.0
C360 C 0.40572 0.1277 0.90524 0.0
C361 C 0.39698 0.1487 0.88476 0.0
H362 H 0.40858 0.42175 0.48978 0.0
H363 H 0.4735 0.45011 0.40046 0.0
H364 H 0.35455 0.3948 0.45537 0.0
H365 H 0.41953 0.42528 0.3655 0.0
H366 H 0.31788 0.3742 0.30699 0.0
H367 H 0.36501 0.37832 0.34413 0.0
H368 H 0.32661 0.41877 0.42345 0.0
H369 H 0.27901 0.41308 0.38712 0.0
C370 C 0.41113 0.42189 0.46264 0.0
C371 C 0.445 0.43824 0.44762 0.0
C372 C 0.38021 0.40671 0.44287 0.0
C373 C 0.38249 0.40854 0.40754 0.0
C374 C 0.41655 0.42304 0.39258 0.0
C375 C 0.44756 0.43747 0.41252 0.0
C376 C 0.31898 0.38302 0.33269 0.0
C377 C 0.29491 0.39373 0.34393 0.0
C378 C 0.34626 0.38574 0.35389 0.0
C379 C 0.35017 0.39943 0.38672 0.0
C380 C 0.32446 0.40771 0.39856 0.0
C381 C 0.29707 0.40464 0.37755 0.0
H382 H 0.04618 0.42349 0.92618 0.0
H383 H 0.95408 0.36772 0.99077 0.0
H384 H 0.01595 0.37711 0.88324 0.0
H385 H 0.92378 0.32234 0.94798 0.0
H386 H 0.87614 0.23586 0.87323 0.0
H387 H 0.91928 0.27351 0.916 0.0
H388 H 0.96689 0.36144 0.84504 0.0
H389 H 0.92468 0.32356 0.80212 0.0
C390 C 0.01977 0.4011 0.93145 0.0
C391 C 1.00245 0.39954 0.9618 0.0
C392 C 1.00233 0.37463 0.90676 0.0
C393 C 0.96727 0.346 0.91197 0.0
C394 C 0.95088 0.34359 0.94311 0.0
C395 C 0.96822 0.36993 0.96765 0.0
C396 C 0.89639 0.26293 0.8665 0.0
C397 C 0.89653 0.2768 0.83436 0.0
C398 C 0.92099 0.28465 0.89112 0.0
C399 C 0.9462 0.3208 0.88424 0.0
C400 C 0.94806 0.33374 0.85131 0.0
C401 C 0.92362 0.31199 0.82665 0.0
H402 H 1.00325 0.53542 0.95098 0.0
H403 H 0.90471 0.46623 1.0033 0.0
H404 H 0.9697 0.54353 0.90582 0.0
H405 H 0.87084 0.47327 0.9574 0.0
H406 H 0.82506 0.52177 0.88121 0.0
H407 H 0.85573 0.51258 0.92863 0.0
H408 H 0.93232 0.51088 0.86018 0.0
H409 H 0.90244 0.5214 0.81306 0.0
C410 C 0.97437 0.52204 0.95292 0.0
C411 C 0.95669 0.50012 0.98075 0.0
C412 C 0.95504 0.52634 0.92677 0.0
C413 C 0.9174 0.50851 0.9275 0.0
C414 C 0.89976 0.48757 0.95596 0.0
C415 C 0.91919 0.48354 0.98234 0.0
C416 C 0.84817 0.51895 0.87625 0.0
C417 C 0.86145 0.52258 0.84333 0.0
C418 C 0.86579 0.51366 0.90349 0.0
C419 C 0.89695 0.51159 0.89844 0.0
C420 C 0.90905 0.51339 0.86525 0.0
C421 C 0.89167 0.51902 0.83811 0.0
H422 H 0.40814 0.94688 0.49304 0.0
H423 H 0.48716 0.99246 0.4144 0.0
H424 H 0.36417 0.90601 0.45259 0.0
H425 H 0.44389 0.95041 0.3741 0.0
H426 H 0.34929 0.887 0.30355 0.0
H427 H 0.39232 0.93131 0.34212 0.0
H428 H 0.34967 0.85369 0.42308 0.0
H429 H 0.30521 0.80984 0.38461 0.0
C430 C 0.41595 0.94846 0.46694 0.0
C431 C 0.45107 0.97305 0.45689 0.0
C432 C 0.39089 0.92458 0.44378 0.0
C433 C 0.40045 0.92415 0.41002 0.0
C434 C 0.43523 0.94994 0.39971 0.0
C435 C 0.46014 0.97427 0.42282 0.0
C436 C 0.34923 0.87918 0.32953 0.0
C437 C 0.32364 0.84475 0.34097 0.0
C438 C 0.37411 0.90473 0.35175 0.0
C439 C 0.3745 0.89648 0.38601 0.0
C440 C 0.34971 0.86153 0.39714 0.0
C441 C 0.32444 0.83611 0.37497 0.0
H442 H 0.45583 0.46749 0.90841 0.0
H443 H 0.51419 0.43735 0.97728 0.0
H444 H 0.45254 0.42341 0.86798 0.0
H445 H 0.51158 0.39394 0.93662 0.0
H446 H 0.48807 0.37248 0.78873 0.0
H447 H 0.49224 0.41535 0.83084 0.0
H448 H 0.47162 0.33756 0.90929 0.0
H449 H 0.46816 0.29482 0.86715 0.0
C450 C 0.46776 0.45134 0.91503 0.0
C451 C 0.48528 0.45603 0.94611 0.0
C452 C 0.4662 0.4263 0.89171 0.0
C453 C 0.48213 0.40535 0.89887 0.0
C454 C 0.4988 0.40939 0.93033 0.0
C455 C 0.50035 0.4344 0.95364 0.0
C456 C 0.48484 0.36461 0.81499 0.0
C457 C 0.47769 0.33014 0.82452 0.0
C458 C 0.48686 0.3891 0.83913 0.0
C459 C 0.48173 0.37977 0.87344 0.0
C460 C 0.47586 0.34573 0.88311 0.0
C461 C 0.47388 0.3212 0.85893 0.0
H462 H 0.16357 0.5901 0.49972 0.0
H463 H 0.06366 0.50312 0.46213 0.0
H464 H 0.19641 0.56873 0.46539 0.0
H465 H 0.09628 0.48167 0.42864 0.0
H466 H 0.16514 0.43102 0.4072 0.0
H467 H 0.13802 0.45586 0.4437 0.0
H468 H 0.20252 0.5601 0.39831 0.0
H469 H 0.22973 0.53502 0.36088 0.0
C470 C 0.14866 0.56628 0.48445 0.0
C471 C 0.11102 0.54822 0.48372 0.0
C472 C 0.16744 0.55428 0.46463 0.0
C473 C 0.14886 0.52357 0.44438 0.0
C474 C 0.11129 0.5053 0.44414 0.0
C475 C 0.09263 0.51764 0.46331 0.0
C476 C 0.1739 0.45933 0.40498 0.0
C477 C 0.19954 0.48098 0.38089 0.0
C478 C 0.15821 0.4735 0.42592 0.0
C479 C 0.16805 0.50983 0.42376 0.0
C480 C 0.19459 0.53199 0.40058 0.0
C481 C 0.21001 0.51762 0.37909 0.0
H482 H 0.64626 0.17879 1.0065 0.0
H483 H 0.61686 0.08703 0.94267 0.0
H484 H 0.68998 0.21775 0.96463 0.0
H485 H 0.66074 0.12567 0.90135 0.0
H486 H 0.71083 0.20612 0.81734 0.0
H487 H 0.66803 0.17103 0.86104 0.0
H488 H 0.74638 0.23274 0.93742 0.0
H489 H 0.78908 0.2684 0.89365 0.0
C490 C 0.64947 0.16683 0.98382 0.0
C491 C 0.62788 0.12975 0.97795 0.0
C492 C 0.67454 0.18918 0.95979 0.0
C493 C 0.67855 0.17497 0.92933 0.0
C494 C 0.65781 0.13772 0.92411 0.0
C495 C 0.63283 0.11546 0.94803 0.0
C496 C 0.71886 0.21256 0.84343 0.0
C497 C 0.75353 0.24002 0.85189 0.0
C498 C 0.69438 0.19217 0.86855 0.0
C499 C 0.70389 0.19862 0.90282 0.0
C500 C 0.73807 0.22707 0.91133 0.0
C501 C 0.76259 0.24751 0.88617 0.0
H502 H 0.57702 0.57847 0.43261 0.0
H503 H 0.51928 0.61808 0.48991 0.0
H504 H 0.58776 0.62214 0.38851 0.0
H505 H 0.52958 0.66154 0.44534 0.0
H506 H 0.57031 0.7501 0.36591 0.0
H507 H 0.57271 0.71504 0.41359 0.0
H508 H 0.5503 0.62763 0.34626 0.0
H509 H 0.54833 0.6626 0.29892 0.0
C510 C 0.5669 0.59674 0.43603 0.0
C511 C 0.54698 0.59445 0.4648 0.0
C512 C 0.57292 0.62172 0.41056 0.0
C513 C 0.55918 0.64515 0.41306 0.0
C514 C 0.54079 0.64412 0.4426 0.0
C515 C 0.53475 0.61906 0.46815 0.0
C516 C 0.56671 0.72371 0.36122 0.0
C517 C 0.55915 0.70919 0.32852 0.0
C518 C 0.5677 0.70345 0.38862 0.0
C519 C 0.56154 0.66837 0.38389 0.0
C520 C 0.55558 0.65463 0.35093 0.0
C521 C 0.55431 0.67469 0.3237 0.0
H522 H 0.46437 0.01138 0.6444 0.0
H523 H 0.52018 0.09753 0.57282 0.0
H524 H 0.46163 0.05351 0.68352 0.0
H525 H 0.51832 0.13965 0.61215 0.0
H526 H 0.4957 0.14289 0.75982 0.0
H527 H 0.5004 0.10295 0.71953 0.0
H528 H 0.47923 0.15672 0.63808 0.0
H529 H 0.47545 0.19725 0.67828 0.0
C530 C 0.47589 0.03922 0.63692 0.0
C531 C 0.49243 0.05097 0.60542 0.0
C532 C 0.47468 0.0635 0.6595 0.0
C533 C 0.49006 0.10012 0.65117 0.0
C534 C 0.50591 0.11165 0.61936 0.0
C535 C 0.50703 0.08741 0.59679 0.0
C536 C 0.49258 0.14657 0.73327 0.0
C537 C 0.48513 0.17328 0.72233 0.0
C538 C 0.49486 0.12336 0.71017 0.0
C539 C 0.48966 0.12619 0.67555 0.0
C540 C 0.48359 0.15382 0.66451 0.0
C541 C 0.48142 0.17713 0.6876 0.0
H542 H 0.40541 0.47438 0.05854 0.0
H543 H 0.48116 0.49577 0.13903 0.0
H544 H 0.35945 0.46324 0.09935 0.0
H545 H 0.43442 0.48376 0.1804 0.0
H546 H 0.35145 0.50323 0.23891 0.0
H547 H 0.39932 0.51176 0.20032 0.0
H548 H 0.3227 0.42125 0.14152 0.0
H549 H 0.27532 0.4134 0.17901 0.0
C550 C 0.41208 0.47599 0.08506 0.0
C551 C 0.44697 0.48585 0.09549 0.0
C552 C 0.38562 0.46954 0.10854 0.0
C553 C 0.3932 0.47273 0.14322 0.0
C554 C 0.42782 0.4815 0.15385 0.0
C555 C 0.45443 0.48783 0.13019 0.0
C556 C 0.3449 0.48541 0.21757 0.0
C557 C 0.30945 0.45787 0.21193 0.0
C558 C 0.37236 0.49001 0.19569 0.0
C559 C 0.36486 0.46721 0.16775 0.0
C560 C 0.32944 0.43965 0.16242 0.0
C561 C 0.30219 0.43512 0.18408 0.0
H562 H 0.99034 0.51543 0.61126 0.0
H563 H 0.93532 0.44795 0.52591 0.0
H564 H 0.95292 0.46628 0.64945 0.0
H565 H 0.89841 0.39819 0.56447 0.0
H566 H 0.89347 0.31662 0.65133 0.0
H567 H 0.91979 0.36427 0.60914 0.0
H568 H 0.88175 0.42488 0.66388 0.0
H569 H 0.85422 0.37636 0.70589 0.0
C570 C 0.97028 0.49003 0.60066 0.0
C571 C 0.96597 0.48537 0.56558 0.0
C572 C 0.94864 0.46208 0.62255 0.0
C573 C 0.92273 0.42861 0.60986 0.0
C574 C 0.91817 0.42386 0.5748 0.0
C575 C 0.93927 0.45221 0.55282 0.0
C576 C 0.89029 0.3399 0.65414 0.0
C577 C 0.87203 0.34298 0.68196 0.0
C578 C 0.90513 0.367 0.62987 0.0
C579 C 0.90276 0.39815 0.6333 0.0
C580 C 0.88385 0.40102 0.66073 0.0
C581 C 0.86811 0.37335 0.68465 0.0
H582 H 0.52927 0.9335 0.04789 0.0
H583 H 0.59245 0.02962 0.10635 0.0
H584 H 0.53589 0.8978 0.09253 0.0
H585 H 0.59939 0.99418 0.15046 0.0
H586 H 0.57063 0.84513 0.17402 0.0
H587 H 0.57622 0.88345 0.12585 0.0
H588 H 0.5581 0.95234 0.19166 0.0
H589 H 0.55281 0.91448 0.2394 0.0
C590 C 0.54522 0.94714 0.06986 0.0
C591 C 0.55998 0.98444 0.07359 0.0
C592 C 0.54909 0.92666 0.09547 0.0
C593 C 0.56776 0.94301 0.12539 0.0
C594 C 0.58422 0.98055 0.12813 0.0
C595 C 0.58038 1.00094 0.10265 0.0
C596 C 0.56861 0.8689 0.17825 0.0
C597 C 0.56137 0.87678 0.21064 0.0
C598 C 0.57144 0.89065 0.15058 0.0
C599 C 0.56757 0.92102 0.15477 0.0
C600 C 0.5617 0.9295 0.18742 0.0
C601 C 0.55852 0.90766 0.21488 0.0
H602 H 0.61059 0.47098 0.56038 0.0
H603 H 0.61684 0.57209 0.58203 0.0
H604 H 0.65044 0.47992 0.6079 0.0
H605 H 0.6582 0.5823 0.62801 0.0
H606 H 0.69444 0.57461 0.73122 0.0
H607 H 0.65608 0.5625 0.68238 0.0
H608 H 0.70701 0.50996 0.63395 0.0
H609 H 0.74412 0.52049 0.6842 0.0
C610 C 0.62135 0.49561 0.57473 0.0
C611 C 0.61047 0.52075 0.56765 0.0
C612 C 0.64421 0.50078 0.60205 0.0
C613 C 0.65711 0.53151 0.62253 0.0
C614 C 0.6479 0.55765 0.6138 0.0
C615 C 0.62454 0.5521 0.58707 0.0
C616 C 0.69713 0.56008 0.71028 0.0
C617 C 0.72228 0.54855 0.71149 0.0
C618 C 0.67543 0.55351 0.68196 0.0
C619 C 0.67887 0.536 0.65356 0.0
C620 C 0.70337 0.5234 0.65524 0.0
C621 C 0.72467 0.52939 0.68404 0.0
H622 H 0.05447 0.56385 0.10756 0.0
H623 H 0.14858 0.58752 0.05028 0.0
H624 H 0.09116 0.61161 0.1467 0.0
H625 H 0.18564 0.63552 0.09008 0.0
H626 H 0.23114 0.74135 0.1551 0.0
H627 H 0.19871 0.69524 0.11233 0.0
H628 H 0.13484 0.62063 0.19027 0.0
H629 H 0.16667 0.66645 0.23269 0.0
C630 C 0.08302 0.57937 0.10314 0.0
C631 C 0.09852 0.57157 0.07579 0.0
C632 C 0.10415 0.60666 0.12583 0.0
C633 C 0.14147 0.62703 0.12194 0.0
C634 C 0.15697 0.62033 0.09383 0.0
C635 C 0.13572 0.59282 0.07102 0.0
C636 C 0.21048 0.71495 0.16311 0.0
C637 C 0.20131 0.70777 0.19737 0.0
C638 C 0.19191 0.68851 0.13858 0.0
C639 C 0.16372 0.65441 0.14778 0.0
C640 C 0.1558 0.64686 0.18217 0.0
C641 C 0.17429 0.67313 0.20658 0.0
loop_
_geom_bond_atom_site_label_1
_geom_bond_atom_site_label_2
_geom_bond_distance
_geom_bond_site_symmetry_2
_ccdc_geom_bond_type
C0 O2 1.247 . S
C0 O4 1.258 . S
C1 O8 1.247 1_655 S
C1 O9 1.258 . S
O2 C0 1.247 . S
O2 Zn3 2.028 1_455 S
Zn3 O2 2.028 1_655 S
Zn3 O7 2.035 1_554 S
Zn3 O9 2.035 1_554 S
Zn3 O10 2.028 1_655 S
O4 C0 1.258 . S
O4 Zn5 2.035 1_554 S
Zn5 O4 2.035 1_556 S
Zn5 O6 2.028 . S
Zn5 O8 2.028 . S
Zn5 O11 2.035 1_556 S
O6 Zn5 2.028 . S
O6 C12 1.247 1_455 S
O7 Zn3 2.035 1_556 S
O7 C12 1.258 . S
O8 C1 1.247 1_455 S
O8 Zn5 2.028 . S
O9 C1 1.258 . S
O9 Zn3 2.035 1_556 S
O10 Zn3 2.028 1_455 S
O10 C13 1.247 . S
O11 Zn5 2.035 1_554 S
O11 C13 1.258 . S
C12 O6 1.247 1_655 S
C12 O7 1.258 . S
C13 O10 1.247 . S
C13 O11 1.258 . S
C14 O16 1.247 . S
C14 O18 1.258 . S
C15 O22 1.247 1_565 S
C15 O23 1.258 . S
O16 C14 1.247 . S
O16 Zn17 2.028 1_545 S
Zn17 O16 2.028 1_565 S
Zn17 O21 2.035 . S
Zn17 O23 2.035 . S
Zn17 O24 2.028 1_565 S
O18 C14 1.258 . S
O18 Zn19 2.035 . S
Zn19 O18 2.035 . S
Zn19 O20 2.028 . S
Zn19 O22 2.028 . S
Zn19 O25 2.035 . S
O20 Zn19 2.028 . S
O20 C26 1.247 1_545 S
O21 Zn17 2.035 . S
O21 C26 1.258 . S
O22 C15 1.247 1_545 S
O22 Zn19 2.028 . S
O23 C15 1.258 . S
O23 Zn17 2.035 . S
O24 Zn17 2.028 1_545 S
O24 C27 1.247 . S
O25 Zn19 2.035 . S
O25 C27 1.258 . S
C26 O20 1.247 1_565 S
C26 O21 1.258 . S
C27 O24 1.247 . S
C27 O25 1.258 . S
C28 O30 1.247 . S
C28 O32 1.258 . S
C29 O36 1.247 . S
C29 O37 1.258 . S
O30 C28 1.247 . S
O30 Zn31 2.028 . S
Zn31 O30 2.028 . S
Zn31 O35 2.035 1_556 S
Zn31 O37 2.035 1_556 S
Zn31 O38 2.028 . S
O32 C28 1.258 . S
O32 Zn33 2.035 1_556 S
Zn33 O32 2.035 1_554 S
Zn33 O34 2.028 . S
Zn33 O36 2.028 . S
Zn33 O39 2.035 1_554 S
O34 Zn33 2.028 . S
O34 C40 1.247 . S
O35 Zn31 2.035 1_554 S
O35 C40 1.258 . S
O36 C29 1.247 . S
O36 Zn33 2.028 . S
O37 C29 1.258 . S
O37 Zn31 2.035 1_554 S
O38 Zn31 2.028 . S
O38 C41 1.247 . S
O39 Zn33 2.035 1_556 S
O39 C41 1.258 . S
C40 O34 1.247 . S
C40 O35 1.258 . S
C41 O38 1.247 . S
C41 O39 1.258 . S
C42 O44 1.247 . S
C42 O46 1.248 1_455 S
C43 O50 1.247 . S
C43 O51 1.258 1_655 S
O44 C42 1.247 . S
O44 Zn45 2.028 . S
Zn45 O44 2.028 . S
Zn45 O49 2.035 . S
Zn45 O51 2.035 . S
Zn45 O52 2.028 . S
O46 C42 1.248 1_655 S
O46 Zn47 2.037 . S
Zn47 O46 2.037 . S
Zn47 O48 2.028 . S
Zn47 O50 2.028 . S
Zn47 O53 2.048 . S
O48 Zn47 2.028 . S
O48 C54 1.247 . S
O49 Zn45 2.035 . S
O49 C54 1.258 1_455 S
O50 C43 1.247 . S
O50 Zn47 2.028 . S
O51 C43 1.258 1_455 S
O51 Zn45 2.035 . S
O52 Zn45 2.028 . S
O52 C55 1.247 . S
O53 Zn47 2.048 . S
O53 C55 1.244 1_655 S
C54 O48 1.247 . S
C54 O49 1.258 1_655 S
C55 O52 1.247 . S
C55 O53 1.244 1_455 S
C56 O58 1.247 1_565 S
C56 O60 1.258 . S
C57 O64 1.284 . S
C57 O65 1.258 . S
O58 C56 1.247 1_545 S
O58 Zn59 2.028 . S
Zn59 O58 2.028 . S
Zn59 O63 2.035 1_554 S
Zn59 O65 2.035 1_554 S
Zn59 O66 2.028 . S
O60 C56 1.258 . S
O60 Zn61 2.035 1_554 S
Zn61 O60 2.035 1_556 S
Zn61 O62 2.024 1_565 S
Zn61 O64 1.996 1_565 S
Zn61 O67 2.035 1_556 S
O62 Zn61 2.024 1_545 S
O62 C68 1.274 . S
O63 Zn59 2.035 1_556 S
O63 C68 1.258 . S
O64 C57 1.284 . S
O64 Zn61 1.996 1_545 S
O65 C57 1.258 . S
O65 Zn59 2.035 1_556 S
O66 Zn59 2.028 . S
O66 C69 1.247 1_545 S
O67 Zn61 2.035 1_554 S
O67 C69 1.258 . S
C68 O62 1.274 . S
C68 O63 1.258 . S
C69 O66 1.247 1_565 S
C69 O67 1.258 . S
C70 O72 1.247 . S
C70 O74 1.258 . S
C71 O78 1.247 . S
C71 O79 1.258 . S
O72 C70 1.247 . S
O72 Zn73 2.028 . S
Zn73 O72 2.028 . S
Zn73 O77 2.035 . S
Zn73 O79 2.035 . S
Zn73 O80 2.028 . S
O74 C70 1.258 . S
O74 Zn75 2.035 . S
Zn75 O74 2.035 . S
Zn75 O76 2.028 . S
Zn75 O78 2.028 . S
Zn75 O81 2.035 . S
O76 Zn75 2.028 . S
O76 C82 1.247 . S
O77 Zn73 2.035 . S
O77 C82 1.258 . S
O78 C71 1.247 . S
O78 Zn75 2.028 . S
O79 C71 1.258 . S
O79 Zn73 2.035 . S
O80 Zn73 2.028 . S
O80 C83 1.247 . S
O81 Zn75 2.035 . S
O81 C83 1.258 . S
C82 O76 1.247 . S
C82 O77 1.258 . S
C83 O80 1.247 . S
C83 O81 1.258 . S
Mg84 O91 2.141 . S
Mg84 O92 2.048 . S
Mg84 O93 2.048 . S
Mg84 O96 2.141 . S
C85 O86 1.313 . S
C85 O92 1.195 . S
O86 C85 1.313 . S
C87 O88 1.245 . S
C87 O96 1.289 . S
O88 C87 1.245 . S
C89 O90 1.245 . S
C89 O91 1.289 . S
O90 C89 1.245 . S
O91 Mg84 2.141 . S
O91 C89 1.289 . S
O92 Mg84 2.048 . S
O92 C85 1.195 . S
O93 Mg84 2.048 . S
O93 C94 1.195 . S
C94 O93 1.195 . S
C94 O95 1.313 . S
O95 C94 1.313 . S
O96 Mg84 2.141 . S
O96 C87 1.289 . S
Mg97 O104 2.141 . S
Mg97 O105 2.048 . S
Mg97 O106 2.048 . S
Mg97 O109 2.141 . S
C98 O99 1.313 . S
C98 O105 1.195 . S
O99 C98 1.313 . S
C100 O101 1.245 . S
C100 O109 1.289 . S
O101 C100 1.245 . S
C102 O103 1.245 . S
C102 O104 1.289 . S
O103 C102 1.245 . S
O104 Mg97 2.141 . S
O104 C102 1.289 . S
O105 Mg97 2.048 . S
O105 C98 1.195 . S
O106 Mg97 2.048 . S
O106 C107 1.195 . S
C107 O106 1.195 . S
C107 O108 1.313 . S
O108 C107 1.313 . S
O109 Mg97 2.141 . S
O109 C100 1.289 . S
Mg110 O117 2.141 . S
Mg110 O118 2.048 . S
Mg110 O119 2.048 . S
Mg110 O122 2.141 . S
C111 O112 1.313 . S
C111 O118 1.195 . S
O112 C111 1.313 . S
C113 O114 1.245 . S
C113 O122 1.289 . S
O114 C113 1.245 . S
C115 O116 1.245 . S
C115 O117 1.289 . S
O116 C115 1.245 . S
O117 Mg110 2.141 . S
O117 C115 1.289 . S
O118 Mg110 2.048 . S
O118 C111 1.195 . S
O119 Mg110 2.048 . S
O119 C120 1.195 . S
C120 O119 1.195 . S
C120 O121 1.313 . S
O121 C120 1.313 . S
O122 Mg110 2.141 . S
O122 C113 1.289 . S
Mg123 O130 2.141 . S
Mg123 O131 2.048 . S
Mg123 O132 2.048 . S
Mg123 O135 2.141 . S
C124 O125 1.313 . S
C124 O131 1.195 . S
O125 C124 1.313 . S
C126 O127 1.245 . S
C126 O135 1.289 . S
O127 C126 1.245 . S
C128 O129 1.245 . S
C128 O130 1.289 . S
O129 C128 1.245 . S
O130 Mg123 2.141 . S
O130 C128 1.289 . S
O131 Mg123 2.048 . S
O131 C124 1.195 . S
O132 Mg123 2.048 . S
O132 C133 1.195 . S
C133 O132 1.195 . S
C133 O134 1.313 . S
O134 C133 1.313 . S
O135 Mg123 2.141 . S
O135 C126 1.289 . S
Mg136 O143 2.141 . S
Mg136 O144 2.048 . S
Mg136 O145 2.048 . S
Mg136 O148 2.141 . S
C137 O138 1.313 . S
C137 O144 1.195 . S
O138 C137 1.313 . S
C139 O140 1.245 . S
C139 O148 1.289 . S
O140 C139 1.245 . S
C141 O142 1.245 . S
C141 O143 1.289 . S
O142 C141 1.245 . S
O143 Mg136 2.141 . S
O143 C141 1.289 . S
O144 Mg136 2.048 . S
O144 C137 1.195 . S
O145 Mg136 2.048 . S
O145 C146 1.195 . S
C146 O145 1.195 . S
C146 O147 1.313 . S
O147 C146 1.313 . S
O148 Mg136 2.141 . S
O148 C139 1.289 . S
Mg149 O156 2.141 . S
Mg149 O157 2.048 . S
Mg149 O158 2.048 . S
Mg149 O161 2.141 . S
C150 O151 1.313 . S
C150 O157 1.195 . S
O151 C150 1.313 . S
C152 O153 1.245 . S
C152 O161 1.289 . S
O153 C152 1.245 . S
C154 O155 1.245 . S
C154 O156 1.289 . S
O155 C154 1.245 . S
O156 Mg149 2.141 . S
O156 C154 1.289 . S
O157 Mg149 2.048 . S
O157 C150 1.195 . S
O158 Mg149 2.048 . S
O158 C159 1.195 . S
C159 O158 1.195 . S
C159 O160 1.313 . S
O160 C159 1.313 . S
O161 Mg149 2.141 . S
O161 C152 1.289 . S
H162 C170 0.950 . S
H163 C175 0.950 . S
H164 C172 0.950 . S
H165 C174 0.950 . S
H166 C176 0.950 . S
H167 C178 0.950 . S
H168 C180 0.950 . S
H169 C181 0.950 . S
C170 H162 0.950 . S
C170 C171 1.386 . S
C170 C172 1.391 . S
C171 C170 1.386 . S
C171 C175 1.393 . S
C172 H164 0.950 . S
C172 C170 1.391 . S
C172 C173 1.400 . S
C173 C172 1.400 . S
C173 C174 1.398 . S
C173 C179 1.491 . S
C174 H165 0.950 . S
C174 C173 1.398 . S
C174 C175 1.391 . S
C175 H163 0.950 . S
C175 C171 1.393 . S
C175 C174 1.391 . S
C176 H166 0.950 . S
C176 C177 1.386 . S
C176 C178 1.391 . S
C177 C176 1.386 . S
C177 C181 1.393 . S
C178 H167 0.950 . S
C178 C176 1.391 . S
C178 C179 1.400 . S
C179 C173 1.491 . S
C179 C178 1.400 . S
C179 C180 1.398 . S
C180 H168 0.950 . S
C180 C179 1.398 . S
C180 C181 1.391 . S
C181 H169 0.950 . S
C181 C177 1.393 . S
C181 C180 1.391 . S
H182 C190 0.950 . S
H183 C195 0.950 . S
H184 C192 0.950 . S
H185 C194 0.950 . S
H186 C196 0.950 . S
H187 C198 0.950 . S
H188 C200 0.950 . S
H189 C201 0.950 . S
C190 H182 0.950 . S
C190 C191 1.386 . S
C190 C192 1.391 . S
C191 C190 1.386 . S
C191 C195 1.393 . S
C192 H184 0.950 . S
C192 C190 1.391 . S
C192 C193 1.400 . S
C193 C192 1.400 . S
C193 C194 1.398 . S
C193 C199 1.491 . S
C194 H185 0.950 . S
C194 C193 1.398 . S
C194 C195 1.391 . S
C195 H183 0.950 . S
C195 C191 1.393 . S
C195 C194 1.391 . S
C196 H186 0.950 . S
C196 C197 1.386 . S
C196 C198 1.391 . S
C197 C196 1.386 . S
C197 C201 1.393 . S
C198 H187 0.950 . S
C198 C196 1.391 . S
C198 C199 1.400 . S
C199 C193 1.491 . S
C199 C198 1.400 . S
C199 C200 1.398 . S
C200 H188 0.950 . S
C200 C199 1.398 . S
C200 C201 1.391 . S
C201 H189 0.950 . S
C201 C197 1.393 . S
C201 C200 1.391 . S
H202 C210 0.950 . S
H203 C215 0.950 . S
H204 C212 0.950 . S
H205 C214 0.950 . S
H206 C216 0.950 . S
H207 C218 0.950 . S
H208 C220 0.950 . S
H209 C221 0.950 . S
C210 H202 0.950 . S
C210 C211 1.386 . S
C210 C212 1.391 . S
C211 C210 1.386 . S
C211 C215 1.393 . S
C212 H204 0.950 . S
C212 C210 1.391 . S
C212 C213 1.400 . S
C213 C212 1.400 . S
C213 C214 1.398 . S
C213 C219 1.491 . S
C214 H205 0.950 . S
C214 C213 1.398 . S
C214 C215 1.391 . S
C215 H203 0.950 . S
C215 C211 1.393 . S
C215 C214 1.391 . S
C216 H206 0.950 . S
C216 C217 1.386 . S
C216 C218 1.391 . S
C217 C216 1.386 . S
C217 C221 1.393 . S
C218 H207 0.950 . S
C218 C216 1.391 . S
C218 C219 1.400 . S
C219 C213 1.491 . S
C219 C218 1.400 . S
C219 C220 1.398 . S
C220 H208 0.950 . S
C220 C219 1.398 . S
C220 C221 1.391 . S
C221 H209 0.950 . S
C221 C217 1.393 . S
C221 C220 1.391 . S
H222 C230 0.941 1_455 S
H223 C235 0.950 . S
H224 C232 0.950 . S
H225 C234 0.950 . S
H226 C236 0.950 . S
H227 C238 0.950 . S
H228 C240 0.950 . S
H229 C241 0.950 . S
C230 H222 0.941 1_655 S
C230 C231 1.386 . S
C230 C232 1.391 . S
C231 C230 1.386 . S
C231 C235 1.393 . S
C232 H224 0.950 . S
C232 C230 1.391 . S
C232 C233 1.400 . S
C233 C232 1.400 . S
C233 C234 1.398 . S
C233 C239 1.491 . S
C234 H225 0.950 . S
C234 C233 1.398 . S
C234 C235 1.391 . S
C235 H223 0.950 . S
C235 C231 1.393 . S
C235 C234 1.391 . S
C236 H226 0.950 . S
C236 C237 1.386 . S
C236 C238 1.391 . S
C237 C236 1.386 . S
C237 C241 1.393 . S
C238 H227 0.950 . S
C238 C236 1.391 . S
C238 C239 1.400 . S
C239 C233 1.491 . S
C239 C238 1.400 . S
C239 C240 1.398 . S
C240 H228 0.950 . S
C240 C239 1.398 . S
C240 C241 1.391 . S
C241 H229 0.950 . S
C241 C237 1.393 . S
C241 C240 1.391 . S
H242 C250 0.950 . S
H243 C255 0.950 . S
H244 C252 0.950 . S
H245 C254 0.950 . S
H246 C256 0.950 . S
H247 C258 0.950 . S
H248 C260 0.950 . S
H249 C261 0.950 . S
C250 H242 0.950 . S
C250 C251 1.386 . S
C250 C252 1.391 . S
C251 C250 1.386 . S
C251 C255 1.393 . S
C252 H244 0.950 . S
C252 C250 1.391 . S
C252 C253 1.400 . S
C253 C252 1.400 . S
C253 C254 1.398 . S
C253 C259 1.491 . S
C254 H245 0.950 . S
C254 C253 1.398 . S
C254 C255 1.391 . S
C255 H243 0.950 . S
C255 C251 1.393 . S
C255 C254 1.391 . S
C256 H246 0.950 . S
C256 C257 1.386 . S
C256 C258 1.391 . S
C257 C256 1.386 . S
C257 C261 1.393 . S
C258 H247 0.950 . S
C258 C256 1.391 . S
C258 C259 1.400 . S
C259 C253 1.491 . S
C259 C258 1.400 . S
C259 C260 1.398 . S
C260 H248 0.950 . S
C260 C259 1.398 . S
C260 C261 1.391 . S
C261 H249 0.950 . S
C261 C257 1.393 . S
C261 C260 1.391 . S
H262 C270 0.950 . S
H263 C275 0.950 . S
H264 C272 0.950 . S
H265 C274 0.950 . S
H266 C276 0.950 . S
H267 C278 0.950 . S
H268 C280 0.950 . S
H269 C281 0.950 . S
C270 H262 0.950 . S
C270 C271 1.386 . S
C270 C272 1.391 . S
C271 C270 1.386 . S
C271 C275 1.393 . S
C272 H264 0.950 . S
C272 C270 1.391 . S
C272 C273 1.400 . S
C273 C272 1.400 . S
C273 C274 1.398 . S
C273 C279 1.491 . S
C274 H265 0.950 . S
C274 C273 1.398 . S
C274 C275 1.391 . S
C275 H263 0.950 . S
C275 C271 1.393 . S
C275 C274 1.391 . S
C276 H266 0.950 . S
C276 C277 1.386 . S
C276 C278 1.391 . S
C277 C276 1.386 . S
C277 C281 1.393 . S
C278 H267 0.950 . S
C278 C276 1.391 . S
C278 C279 1.400 . S
C279 C273 1.491 . S
C279 C278 1.400 . S
C279 C280 1.398 . S
C280 H268 0.950 . S
C280 C279 1.398 . S
C280 C281 1.391 . S
C281 H269 0.950 . S
C281 C277 1.393 . S
C281 C280 1.391 . S
H282 C290 0.950 . S
H283 C295 0.950 . S
H284 C292 0.950 . S
H285 C294 0.950 . S
H286 C296 0.950 . S
H287 C298 0.950 . S
H288 C300 0.950 . S
H289 C301 0.950 . S
C290 H282 0.950 . S
C290 C291 1.386 . S
C290 C292 1.391 . S
C291 C290 1.386 . S
C291 C295 1.393 . S
C292 H284 0.950 . S
C292 C290 1.391 . S
C292 C293 1.400 . S
C293 C292 1.400 . S
C293 C294 1.398 . S
C293 C299 1.491 . S
C294 H285 0.950 . S
C294 C293 1.398 . S
C294 C295 1.391 . S
C295 H283 0.950 . S
C295 C291 1.393 . S
C295 C294 1.391 . S
C296 H286 0.950 . S
C296 C297 1.386 . S
C296 C298 1.391 . S
C297 C296 1.386 . S
C297 C301 1.393 . S
C298 H287 0.950 . S
C298 C296 1.391 . S
C298 C299 1.400 . S
C299 C293 1.491 . S
C299 C298 1.400 . S
C299 C300 1.398 . S
C300 H288 0.950 . S
C300 C299 1.398 . S
C300 C301 1.391 . S
C301 H289 0.950 . S
C301 C297 1.393 . S
C301 C300 1.391 . S
H302 C310 0.950 . S
H303 C315 0.950 . S
H304 C312 0.950 . S
H305 C314 0.950 . S
H306 C316 0.950 . S
H307 C318 0.950 . S
H308 C320 0.950 . S
H309 C321 0.950 . S
C310 H302 0.950 . S
C310 C311 1.386 . S
C310 C312 1.391 . S
C311 C310 1.386 . S
C311 C315 1.393 . S
C312 H304 0.950 . S
C312 C310 1.391 . S
C312 C313 1.400 . S
C313 C312 1.400 . S
C313 C314 1.398 . S
C313 C319 1.491 . S
C314 H305 0.950 . S
C314 C313 1.398 . S
C314 C315 1.391 . S
C315 H303 0.950 . S
C315 C311 1.393 . S
C315 C314 1.391 . S
C316 H306 0.950 . S
C316 C317 1.386 . S
C316 C318 1.391 . S
C317 C316 1.386 . S
C317 C321 1.393 . S
C318 H307 0.950 . S
C318 C316 1.391 . S
C318 C319 1.400 . S
C319 C313 1.491 . S
C319 C318 1.400 . S
C319 C320 1.398 . S
C320 H308 0.950 . S
C320 C319 1.398 . S
C320 C321 1.391 . S
C321 H309 0.950 . S
C321 C317 1.393 . S
C321 C320 1.391 . S
H322 C330 0.950 . S
H323 C335 0.950 . S
H324 C332 0.950 . S
H325 C334 0.950 . S
H326 C336 0.950 . S
H327 C338 0.950 . S
H328 C340 0.950 . S
H329 C341 0.950 . S
C330 H322 0.950 . S
C330 C331 1.386 . S
C330 C332 1.391 . S
C331 C330 1.386 . S
C331 C335 1.393 . S
C332 H324 0.950 . S
C332 C330 1.391 . S
C332 C333 1.400 . S
C333 C332 1.400 . S
C333 C334 1.398 . S
C333 C339 1.491 . S
C334 H325 0.950 . S
C334 C333 1.398 . S
C334 C335 1.391 . S
C335 H323 0.950 . S
C335 C331 1.393 . S
C335 C334 1.391 . S
C336 H326 0.950 . S
C336 C337 1.386 . S
C336 C338 1.391 . S
C337 C336 1.386 . S
C337 C341 1.393 . S
C338 H327 0.950 . S
C338 C336 1.391 . S
C338 C339 1.400 . S
C339 C333 1.491 . S
C339 C338 1.400 . S
C339 C340 1.398 . S
C340 H328 0.950 . S
C340 C339 1.398 . S
C340 C341 1.391 . S
C341 H329 0.950 . S
C341 C337 1.393 . S
C341 C340 1.391 . S
H342 C350 0.950 . S
H343 C355 0.950 . S
H344 C352 0.950 . S
H345 C354 0.950 . S
H346 C356 0.950 . S
H347 C358 0.950 . S
H348 C360 0.950 . S
H349 C361 0.950 . S
C350 H342 0.950 . S
C350 C351 1.386 . S
C350 C352 1.391 . S
C351 C350 1.386 . S
C351 C355 1.393 . S
C352 H344 0.950 . S
C352 C350 1.391 . S
C352 C353 1.400 . S
C353 C352 1.400 . S
C353 C354 1.398 . S
C353 C359 1.491 . S
C354 H345 0.950 . S
C354 C353 1.398 . S
C354 C355 1.391 . S
C355 H343 0.950 . S
C355 C351 1.393 . S
C355 C354 1.391 . S
C356 H346 0.950 . S
C356 C357 1.386 . S
C356 C358 1.391 . S
C357 C356 1.386 . S
C357 C361 1.393 . S
C358 H347 0.950 . S
C358 C356 1.391 . S
C358 C359 1.400 . S
C359 C353 1.491 . S
C359 C358 1.400 . S
C359 C360 1.398 . S
C360 H348 0.950 . S
C360 C359 1.398 . S
C360 C361 1.391 . S
C361 H349 0.950 . S
C361 C357 1.393 . S
C361 C360 1.391 . S
H362 C370 0.950 . S
H363 C375 0.950 . S
H364 C372 0.950 . S
H365 C374 0.950 . S
H366 C376 0.950 . S
H367 C378 0.950 . S
H368 C380 0.950 . S
H369 C381 0.950 . S
C370 H362 0.950 . S
C370 C371 1.386 . S
C370 C372 1.391 . S
C371 C370 1.386 . S
C371 C375 1.393 . S
C372 H364 0.950 . S
C372 C370 1.391 . S
C372 C373 1.400 . S
C373 C372 1.400 . S
C373 C374 1.398 . S
C373 C379 1.491 . S
C374 H365 0.950 . S
C374 C373 1.398 . S
C374 C375 1.391 . S
C375 H363 0.950 . S
C375 C371 1.393 . S
C375 C374 1.391 . S
C376 H366 0.950 . S
C376 C377 1.386 . S
C376 C378 1.391 . S
C377 C376 1.386 . S
C377 C381 1.393 . S
C378 H367 0.950 . S
C378 C376 1.391 . S
C378 C379 1.400 . S
C379 C373 1.491 . S
C379 C378 1.400 . S
C379 C380 1.398 . S
C380 H368 0.950 . S
C380 C379 1.398 . S
C380 C381 1.391 . S
C381 H369 0.950 . S
C381 C377 1.393 . S
C381 C380 1.391 . S
H382 C390 0.950 . S
H383 C395 0.950 . S
H384 C392 0.950 . S
H385 C394 0.950 . S
H386 C396 0.950 . S
H387 C398 0.950 . S
H388 C400 0.950 . S
H389 C401 0.950 . S
C390 H382 0.950 . S
C390 C391 1.386 . S
C390 C392 1.391 . S
C391 C390 1.386 . S
C391 C395 1.393 . S
C392 H384 0.950 . S
C392 C390 1.391 . S
C392 C393 1.400 . S
C393 C392 1.400 . S
C393 C394 1.398 . S
C393 C399 1.491 . S
C394 H385 0.950 . S
C394 C393 1.398 . S
C394 C395 1.391 . S
C395 H383 0.950 . S
C395 C391 1.393 . S
C395 C394 1.391 . S
C396 H386 0.950 . S
C396 C397 1.386 . S
C396 C398 1.391 . S
C397 C396 1.386 . S
C397 C401 1.393 . S
C398 H387 0.950 . S
C398 C396 1.391 . S
C398 C399 1.400 . S
C399 C393 1.491 . S
C399 C398 1.400 . S
C399 C400 1.398 . S
C400 H388 0.950 . S
C400 C399 1.398 . S
C400 C401 1.391 . S
C401 H389 0.950 . S
C401 C397 1.393 . S
C401 C400 1.391 . S
H402 C410 0.950 . S
H403 C415 0.950 . S
H404 C412 0.950 . S
H405 C414 0.950 . S
H406 C416 0.950 . S
H407 C418 0.950 . S
H408 C420 0.950 . S
H409 C421 0.950 . S
C410 H402 0.950 . S
C410 C411 1.386 . S
C410 C412 1.391 . S
C411 C410 1.386 . S
C411 C415 1.393 . S
C412 H404 0.950 . S
C412 C410 1.391 . S
C412 C413 1.400 . S
C413 C412 1.400 . S
C413 C414 1.398 . S
C413 C419 1.491 . S
C414 H405 0.950 . S
C414 C413 1.398 . S
C414 C415 1.391 . S
C415 H403 0.950 . S
C415 C411 1.393 . S
C415 C414 1.391 . S
C416 H406 0.950 . S
C416 C417 1.386 . S
C416 C418 1.391 . S
C417 C416 1.386 . S
C417 C421 1.393 . S
C418 H407 0.950 . S
C418 C416 1.391 . S
C418 C419 1.400 . S
C419 C413 1.491 . S
C419 C418 1.400 . S
C419 C420 1.398 . S
C420 H408 0.950 . S
C420 C419 1.398 . S
C420 C421 1.391 . S
C421 H409 0.950 . S
C421 C417 1.393 . S
C421 C420 1.391 . S
H422 C430 0.950 . S
H423 C435 0.950 1_545 S
H424 C432 0.950 . S
H425 C434 0.950 . S
H426 C436 0.950 . S
H427 C438 0.950 . S
H428 C440 0.950 . S
H429 C441 0.950 . S
C430 H422 0.950 . S
C430 C431 1.386 . S
C430 C432 1.391 . S
C431 C430 1.386 . S
C431 C435 1.393 . S
C432 H424 0.950 . S
C432 C430 1.391 . S
C432 C433 1.400 . S
C433 C432 1.400 . S
C433 C434 1.398 . S
C433 C439 1.491 . S
C434 H425 0.950 . S
C434 C433 1.398 . S
C434 C435 1.391 . S
C435 H423 0.950 1_565 S
C435 C431 1.393 . S
C435 C434 1.391 . S
C436 H426 0.950 . S
C436 C437 1.386 . S
C436 C438 1.391 . S
C437 C436 1.386 . S
C437 C441 1.393 . S
C438 H427 0.950 . S
C438 C436 1.391 . S
C438 C439 1.400 . S
C439 C433 1.491 . S
C439 C438 1.400 . S
C439 C440 1.398 . S
C440 H428 0.950 . S
C440 C439 1.398 . S
C440 C441 1.391 . S
C441 H429 0.950 . S
C441 C437 1.393 . S
C441 C440 1.391 . S
H442 C450 0.950 . S
H443 C455 0.950 . S
H444 C452 0.950 . S
H445 C454 0.950 . S
H446 C456 0.950 . S
H447 C458 0.950 . S
H448 C460 0.950 . S
H449 C461 0.950 . S
C450 H442 0.950 . S
C450 C451 1.386 . S
C450 C452 1.391 . S
C451 C450 1.386 . S
C451 C455 1.393 . S
C452 H444 0.950 . S
C452 C450 1.391 . S
C452 C453 1.400 . S
C453 C452 1.400 . S
C453 C454 1.398 . S
C453 C459 1.491 . S
C454 H445 0.950 . S
C454 C453 1.398 . S
C454 C455 1.391 . S
C455 H443 0.950 . S
C455 C451 1.393 . S
C455 C454 1.391 . S
C456 H446 0.950 . S
C456 C457 1.386 . S
C456 C458 1.391 . S
C457 C456 1.386 . S
C457 C461 1.393 . S
C458 H447 0.950 . S
C458 C456 1.391 . S
C458 C459 1.400 . S
C459 C453 1.491 . S
C459 C458 1.400 . S
C459 C460 1.398 . S
C460 H448 0.950 . S
C460 C459 1.398 . S
C460 C461 1.391 . S
C461 H449 0.950 . S
C461 C457 1.393 . S
C461 C460 1.391 . S
H462 C470 0.950 . S
H463 C475 0.950 . S
H464 C472 0.950 . S
H465 C474 0.950 . S
H466 C476 0.950 . S
H467 C478 0.950 . S
H468 C480 0.950 . S
H469 C481 0.950 . S
C470 H462 0.950 . S
C470 C471 1.386 . S
C470 C472 1.391 . S
C471 C470 1.386 . S
C471 C475 1.393 . S
C472 H464 0.950 . S
C472 C470 1.391 . S
C472 C473 1.400 . S
C473 C472 1.400 . S
C473 C474 1.398 . S
C473 C479 1.491 . S
C474 H465 0.950 . S
C474 C473 1.398 . S
C474 C475 1.391 . S
C475 H463 0.950 . S
C475 C471 1.393 . S
C475 C474 1.391 . S
C476 H466 0.950 . S
C476 C477 1.386 . S
C476 C478 1.391 . S
C477 C476 1.386 . S
C477 C481 1.393 . S
C478 H467 0.950 . S
C478 C476 1.391 . S
C478 C479 1.400 . S
C479 C473 1.491 . S
C479 C478 1.400 . S
C479 C480 1.398 . S
C480 H468 0.950 . S
C480 C479 1.398 . S
C480 C481 1.391 . S
C481 H469 0.950 . S
C481 C477 1.393 . S
C481 C480 1.391 . S
H482 C490 0.950 . S
H483 C495 0.950 . S
H484 C492 0.950 . S
H485 C494 0.950 . S
H486 C496 0.950 . S
H487 C498 0.950 . S
H488 C500 0.950 . S
H489 C501 0.950 . S
C490 H482 0.950 . S
C490 C491 1.386 . S
C490 C492 1.391 . S
C491 C490 1.386 . S
C491 C495 1.393 . S
C492 H484 0.950 . S
C492 C490 1.391 . S
C492 C493 1.400 . S
C493 C492 1.400 . S
C493 C494 1.398 . S
C493 C499 1.491 . S
C494 H485 0.950 . S
C494 C493 1.398 . S
C494 C495 1.391 . S
C495 H483 0.950 . S
C495 C491 1.393 . S
C495 C494 1.391 . S
C496 H486 0.950 . S
C496 C497 1.386 . S
C496 C498 1.391 . S
C497 C496 1.386 . S
C497 C501 1.393 . S
C498 H487 0.950 . S
C498 C496 1.391 . S
C498 C499 1.400 . S
C499 C493 1.491 . S
C499 C498 1.400 . S
C499 C500 1.398 . S
C500 H488 0.950 . S
C500 C499 1.398 . S
C500 C501 1.391 . S
C501 H489 0.950 . S
C501 C497 1.393 . S
C501 C500 1.391 . S
H502 C510 0.950 . S
H503 C515 0.950 . S
H504 C512 0.950 . S
H505 C514 0.950 . S
H506 C516 0.950 . S
H507 C518 0.950 . S
H508 C520 0.950 . S
H509 C521 0.950 . S
C510 H502 0.950 . S
C510 C511 1.386 . S
C510 C512 1.391 . S
C511 C510 1.386 . S
C511 C515 1.393 . S
C512 H504 0.950 . S
C512 C510 1.391 . S
C512 C513 1.400 . S
C513 C512 1.400 . S
C513 C514 1.398 . S
C513 C519 1.491 . S
C514 H505 0.950 . S
C514 C513 1.398 . S
C514 C515 1.391 . S
C515 H503 0.950 . S
C515 C511 1.393 . S
C515 C514 1.391 . S
C516 H506 0.950 . S
C516 C517 1.386 . S
C516 C518 1.391 . S
C517 C516 1.386 . S
C517 C521 1.393 . S
C518 H507 0.950 . S
C518 C516 1.391 . S
C518 C519 1.400 . S
C519 C513 1.491 . S
C519 C518 1.400 . S
C519 C520 1.398 . S
C520 H508 0.950 . S
C520 C519 1.398 . S
C520 C521 1.391 . S
C521 H509 0.950 . S
C521 C517 1.393 . S
C521 C520 1.391 . S
H522 C530 0.950 . S
H523 C535 0.950 . S
H524 C532 0.950 . S
H525 C534 0.950 . S
H526 C536 0.950 . S
H527 C538 0.950 . S
H528 C540 0.950 . S
H529 C541 0.950 . S
C530 H522 0.950 . S
C530 C531 1.386 . S
C530 C532 1.391 . S
C531 C530 1.386 . S
C531 C535 1.393 . S
C532 H524 0.950 . S
C532 C530 1.391 . S
C532 C533 1.400 . S
C533 C532 1.400 . S
C533 C534 1.398 . S
C533 C539 1.491 . S
C534 H525 0.950 . S
C534 C533 1.398 . S
C534 C535 1.391 . S
C535 H523 0.950 . S
C535 C531 1.393 . S
C535 C534 1.391 . S
C536 H526 0.950 . S
C536 C537 1.386 . S
C536 C538 1.391 . S
C537 C536 1.386 . S
C537 C541 1.393 . S
C538 H527 0.950 . S
C538 C536 1.391 . S
C538 C539 1.400 . S
C539 C533 1.491 . S
C539 C538 1.400 . S
C539 C540 1.398 . S
C540 H528 0.950 . S
C540 C539 1.398 . S
C540 C541 1.391 . S
C541 H529 0.950 . S
C541 C537 1.393 . S
C541 C540 1.391 . S
H542 C550 0.950 . S
H543 C555 0.950 . S
H544 C552 0.950 . S
H545 C554 0.950 . S
H546 C556 0.950 . S
H547 C558 0.950 . S
H548 C560 0.950 . S
H549 C561 0.950 . S
C550 H542 0.950 . S
C550 C551 1.386 . S
C550 C552 1.391 . S
C551 C550 1.386 . S
C551 C555 1.393 . S
C552 H544 0.950 . S
C552 C550 1.391 . S
C552 C553 1.400 . S
C553 C552 1.400 . S
C553 C554 1.398 . S
C553 C559 1.491 . S
C554 H545 0.950 . S
C554 C553 1.398 . S
C554 C555 1.391 . S
C555 H543 0.950 . S
C555 C551 1.393 . S
C555 C554 1.391 . S
C556 H546 0.950 . S
C556 C557 1.386 . S
C556 C558 1.391 . S
C557 C556 1.386 . S
C557 C561 1.393 . S
C558 H547 0.950 . S
C558 C556 1.391 . S
C558 C559 1.400 . S
C559 C553 1.491 . S
C559 C558 1.400 . S
C559 C560 1.398 . S
C560 H548 0.950 . S
C560 C559 1.398 . S
C560 C561 1.391 . S
C561 H549 0.950 . S
C561 C557 1.393 . S
C561 C560 1.391 . S
H562 C570 0.950 . S
H563 C575 0.950 . S
H564 C572 0.950 . S
H565 C574 0.950 . S
H566 C576 0.950 . S
H567 C578 0.950 . S
H568 C580 0.950 . S
H569 C581 0.950 . S
C570 H562 0.950 . S
C570 C571 1.386 . S
C570 C572 1.391 . S
C571 C570 1.386 . S
C571 C575 1.393 . S
C572 H564 0.950 . S
C572 C570 1.391 . S
C572 C573 1.400 . S
C573 C572 1.400 . S
C573 C574 1.398 . S
C573 C579 1.491 . S
C574 H565 0.950 . S
C574 C573 1.398 . S
C574 C575 1.391 . S
C575 H563 0.950 . S
C575 C571 1.393 . S
C575 C574 1.391 . S
C576 H566 0.950 . S
C576 C577 1.386 . S
C576 C578 1.391 . S
C577 C576 1.386 . S
C577 C581 1.393 . S
C578 H567 0.950 . S
C578 C576 1.391 . S
C578 C579 1.400 . S
C579 C573 1.491 . S
C579 C578 1.400 . S
C579 C580 1.398 . S
C580 H568 0.950 . S
C580 C579 1.398 . S
C580 C581 1.391 . S
C581 H569 0.950 . S
C581 C577 1.393 . S
C581 C580 1.391 . S
H582 C590 0.950 . S
H583 C595 0.950 . S
H584 C592 0.950 . S
H585 C594 0.950 . S
H586 C596 0.950 . S
H587 C598 0.950 . S
H588 C600 0.950 . S
H589 C601 0.950 . S
C590 H582 0.950 . S
C590 C591 1.386 . S
C590 C592 1.391 . S
C591 C590 1.386 . S
C591 C595 1.393 . S
C592 H584 0.950 . S
C592 C590 1.391 . S
C592 C593 1.400 . S
C593 C592 1.400 . S
C593 C594 1.398 . S
C593 C599 1.491 . S
C594 H585 0.950 . S
C594 C593 1.398 . S
C594 C595 1.391 . S
C595 H583 0.950 . S
C595 C591 1.393 . S
C595 C594 1.391 . S
C596 H586 0.950 . S
C596 C597 1.386 . S
C596 C598 1.391 . S
C597 C596 1.386 . S
C597 C601 1.393 . S
C598 H587 0.950 . S
C598 C596 1.391 . S
C598 C599 1.400 . S
C599 C593 1.491 . S
C599 C598 1.400 . S
C599 C600 1.398 . S
C600 H588 0.950 . S
C600 C599 1.398 . S
C600 C601 1.391 . S
C601 H589 0.950 . S
C601 C597 1.393 . S
C601 C600 1.391 . S
H602 C610 0.950 . S
H603 C615 0.950 . S
H604 C612 0.950 . S
H605 C614 0.950 . S
H606 C616 0.950 . S
H607 C618 0.950 . S
H608 C620 0.950 . S
H609 C621 0.950 . S
C610 H602 0.950 . S
C610 C611 1.386 . S
C610 C612 1.391 . S
C611 C610 1.386 . S
C611 C615 1.393 . S
C612 H604 0.950 . S
C612 C610 1.391 . S
C612 C613 1.400 . S
C613 C612 1.400 . S
C613 C614 1.398 . S
C613 C619 1.491 . S
C614 H605 0.950 . S
C614 C613 1.398 . S
C614 C615 1.391 . S
C615 H603 0.950 . S
C615 C611 1.393 . S
C615 C614 1.391 . S
C616 H606 0.950 . S
C616 C617 1.386 . S
C616 C618 1.391 . S
C617 C616 1.386 . S
C617 C621 1.393 . S
C618 H607 0.950 . S
C618 C616 1.391 . S
C618 C619 1.400 . S
C619 C613 1.491 . S
C619 C618 1.400 . S
C619 C620 1.398 . S
C620 H608 0.950 . S
C620 C619 1.398 . S
C620 C621 1.391 . S
C621 H609 0.950 . S
C621 C617 1.393 . S
C621 C620 1.391 . S
H622 C630 0.950 . S
H623 C635 0.950 . S
H624 C632 0.950 . S
H625 C634 0.950 . S
H626 C636 0.950 . S
H627 C638 0.950 . S
H628 C640 0.950 . S
H629 C641 0.950 . S
C630 H622 0.950 . S
C630 C631 1.386 . S
C630 C632 1.391 . S
C631 C630 1.386 . S
C631 C635 1.393 . S
C632 H624 0.950 . S
C632 C630 1.391 . S
C632 C633 1.400 . S
C633 C632 1.400 . S
C633 C634 1.398 . S
C633 C639 1.491 . S
C634 H625 0.950 . S
C634 C633 1.398 . S
C634 C635 1.391 . S
C635 H623 0.950 . S
C635 C631 1.393 . S
C635 C634 1.391 . S
C636 H626 0.950 . S
C636 C637 1.386 . S
C636 C638 1.391 . S
C637 C636 1.386 . S
C637 C641 1.393 . S
C638 H627 0.950 . S
C638 C636 1.391 . S
C638 C639 1.400 . S
C639 C633 1.491 . S
C639 C638 1.400 . S
C639 C640 1.398 . S
C640 H628 0.950 . S
C640 C639 1.398 . S
C640 C641 1.391 . S
C641 H629 0.950 . S
C641 C637 1.393 . S
C641 C640 1.391 . S
C171 C13 1.688 . S
C177 C85 1.680 . S
C191 C27 1.681 . S
C197 C98 1.670 . S
C217 C120 1.600 . S
C211 C29 1.681 . S
C237 C133 1.600 . S
C231 C54 1.682 . S
C257 C146 1.605 . S
C251 C69 1.683 . S
C277 C159 1.601 . S
C271 C83 1.682 . S
C291 C15 1.682 . S
C297 C115 1.606 . S
C311 C41 1.683 . S
C317 C128 1.606 . S
C337 C141 1.595 . S
C331 C42 1.679 . S
C357 C154 1.605 . S
C351 C57 1.683 . S
C371 C71 1.682 . S
C377 C87 1.678 . S
C397 C100 1.674 . S
C391 C1 1.679 . S
C417 C126 1.603 . S
C411 C12 1.681 . S
C431 C26 1.676 . S
C437 C139 1.578 . S
C457 C152 1.590 . S
C451 C28 1.680 . S
C471 C55 1.678 . S
C477 C89 1.676 . S
C491 C68 1.678 . S
C497 C102 1.673 . S
C511 C82 1.680 . S
C517 C113 1.599 . S
C531 C14 1.683 . S
C537 C150 1.607 . S
C557 C94 1.670 . S
C551 C40 1.681 . S
C571 C43 1.686 . S
C577 C107 1.679 . S
C591 C56 1.686 . S
C597 C111 1.618 . S
C611 C70 1.681 . S
C617 C124 1.598 . S
C631 C0 1.687 . S
C637 C137 1.622 . S
