# Generated by pormake.
# Topology iac, (4,6)-cn, num edge types: 1
# Building blocks:
#     Node 0, Type 0, BuildingBlock: KUFVIS_clean_sbu_0, # of connection points: 4
#     Node 1, Type 0, BuildingBlock: KUFVIS_clean_sbu_0, # of connection points: 4
#     Node 2, Type 0, BuildingBlock: KUFVIS_clean_sbu_0, # of connection points: 4
#     Node 3, Type 0, BuildingBlock: KUFVIS_clean_sbu_0, # of connection points: 4
#     Node 4, Type 0, BuildingBlock: KUFVIS_clean_sbu_0, # of connection points: 4
#     Node 5, Type 0, BuildingBlock: KUFVIS_clean_sbu_0, # of connection points: 4
#     Node 6, Type 0, BuildingBlock: KUFVIS_clean_sbu_0, # of connection points: 4
#     Node 7, Type 0, BuildingBlock: KUFVIS_clean_sbu_0, # of connection points: 4
#     Node 8, Type 0, BuildingBlock: KUFVIS_clean_sbu_0, # of connection points: 4
#     Node 9, Type 0, BuildingBlock: KUFVIS_clean_sbu_0, # of connection points: 4
#     Node 10, Type 0, BuildingBlock: KUFVIS_clean_sbu_0, # of connection points: 4
#     Node 11, Type 0, BuildingBlock: KUFVIS_clean_sbu_0, # of connection points: 4
#     Node 12, Type 0, BuildingBlock: KUFVIS_clean_sbu_0, # of connection points: 4
#     Node 13, Type 0, BuildingBlock: KUFVIS_clean_sbu_0, # of connection points: 4
#     Node 14, Type 0, BuildingBlock: KUFVIS_clean_sbu_0, # of connection points: 4
#     Node 15, Type 0, BuildingBlock: KUFVIS_clean_sbu_0, # of connection points: 4
#     Node 16, Type 0, BuildingBlock: KUFVIS_clean_sbu_0, # of connection points: 4
#     Node 17, Type 0, BuildingBlock: KUFVIS_clean_sbu_0, # of connection points: 4
#     Node 18, Type 0, BuildingBlock: KUFVIS_clean_sbu_0, # of connection points: 4
#     Node 19, Type 0, BuildingBlock: KUFVIS_clean_sbu_0, # of connection points: 4
#     Node 20, Type 0, BuildingBlock: KUFVIS_clean_sbu_0, # of connection points: 4
#     Node 21, Type 0, BuildingBlock: KUFVIS_clean_sbu_0, # of connection points: 4
#     Node 22, Type 0, BuildingBlock: KUFVIS_clean_sbu_0, # of connection points: 4
#     Node 23, Type 0, BuildingBlock: KUFVIS_clean_sbu_0, # of connection points: 4
#     Node 24, Type 1, BuildingBlock: VOLQOD_clean_sbu_1, # of connection points: 6
#     Node 25, Type 1, BuildingBlock: VOLQOD_clean_sbu_1, # of connection points: 6
#     Node 26, Type 1, BuildingBlock: VOLQOD_clean_sbu_1, # of connection points: 6
#     Node 27, Type 1, BuildingBlock: VOLQOD_clean_sbu_1, # of connection points: 6
#     Node 28, Type 1, BuildingBlock: VOLQOD_clean_sbu_1, # of connection points: 6
#     Node 29, Type 1, BuildingBlock: VOLQOD_clean_sbu_1, # of connection points: 6
#     Node 30, Type 1, BuildingBlock: VOLQOD_clean_sbu_1, # of connection points: 6
#     Node 31, Type 1, BuildingBlock: VOLQOD_clean_sbu_1, # of connection points: 6
#     Node 32, Type 1, BuildingBlock: VOLQOD_clean_sbu_1, # of connection points: 6
#     Node 33, Type 1, BuildingBlock: VOLQOD_clean_sbu_1, # of connection points: 6
#     Node 34, Type 1, BuildingBlock: VOLQOD_clean_sbu_1, # of connection points: 6
#     Node 35, Type 1, BuildingBlock: VOLQOD_clean_sbu_1, # of connection points: 6
#     Node 36, Type 1, BuildingBlock: VOLQOD_clean_sbu_1, # of connection points: 6
#     Node 37, Type 1, BuildingBlock: VOLQOD_clean_sbu_1, # of connection points: 6
#     Node 38, Type 1, BuildingBlock: VOLQOD_clean_sbu_1, # of connection points: 6
#     Node 39, Type 1, BuildingBlock: VOLQOD_clean_sbu_1, # of connection points: 6
#     Edge 40, Type (0, 1), BuildingBlock: CIFDUS_clean_linker_0, # of connection points: 2
#     Edge 41, Type (0, 1), BuildingBlock: CIFDUS_clean_linker_0, # of connection points: 2
#     Edge 42, Type (0, 1), BuildingBlock: CIFDUS_clean_linker_0, # of connection points: 2
#     Edge 43, Type (0, 1), BuildingBlock: CIFDUS_clean_linker_0, # of connection points: 2
#     Edge 44, Type (0, 1), BuildingBlock: CIFDUS_clean_linker_0, # of connection points: 2
#     Edge 45, Type (0, 1), BuildingBlock: CIFDUS_clean_linker_0, # of connection points: 2
#     Edge 46, Type (0, 1), BuildingBlock: CIFDUS_clean_linker_0, # of connection points: 2
#     Edge 47, Type (0, 1), BuildingBlock: CIFDUS_clean_linker_0, # of connection points: 2
#     Edge 48, Type (0, 1), BuildingBlock: CIFDUS_clean_linker_0, # of connection points: 2
#     Edge 49, Type (0, 1), BuildingBlock: CIFDUS_clean_linker_0, # of connection points: 2
#     Edge 50, Type (0, 1), BuildingBlock: CIFDUS_clean_linker_0, # of connection points: 2
#     Edge 51, Type (0, 1), BuildingBlock: CIFDUS_clean_linker_0, # of connection points: 2
#     Edge 52, Type (0, 1), BuildingBlock: CIFDUS_clean_linker_0, # of connection points: 2
#     Edge 53, Type (0, 1), BuildingBlock: CIFDUS_clean_linker_0, # of connection points: 2
#     Edge 54, Type (0, 1), BuildingBlock: CIFDUS_clean_linker_0, # of connection points: 2
#     Edge 55, Type (0, 1), BuildingBlock: CIFDUS_clean_linker_0, # of connection points: 2
#     Edge 56, Type (0, 1), BuildingBlock: CIFDUS_clean_linker_0, # of connection points: 2
#     Edge 57, Type (0, 1), BuildingBlock: CIFDUS_clean_linker_0, # of connection points: 2
#     Edge 58, Type (0, 1), BuildingBlock: CIFDUS_clean_linker_0, # of connection points: 2
#     Edge 59, Type (0, 1), BuildingBlock: CIFDUS_clean_linker_0, # of connection points: 2
#     Edge 60, Type (0, 1), BuildingBlock: CIFDUS_clean_linker_0, # of connection points: 2
#     Edge 61, Type (0, 1), BuildingBlock: CIFDUS_clean_linker_0, # of connection points: 2
#     Edge 62, Type (0, 1), BuildingBlock: CIFDUS_clean_linker_0, # of connection points: 2
#     Edge 63, Type (0, 1), BuildingBlock: CIFDUS_clean_linker_0, # of connection points: 2
#     Edge 64, Type (0, 1), BuildingBlock: CIFDUS_clean_linker_0, # of connection points: 2
#     Edge 65, Type (0, 1), BuildingBlock: CIFDUS_clean_linker_0, # of connection points: 2
#     Edge 66, Type (0, 1), BuildingBlock: CIFDUS_clean_linker_0, # of connection points: 2
#     Edge 67, Type (0, 1), BuildingBlock: CIFDUS_clean_linker_0, # of connection points: 2
#     Edge 68, Type (0, 1), BuildingBlock: CIFDUS_clean_linker_0, # of connection points: 2
#     Edge 69, Type (0, 1), BuildingBlock: CIFDUS_clean_linker_0, # of connection points: 2
#     Edge 70, Type (0, 1), BuildingBlock: CIFDUS_clean_linker_0, # of connection points: 2
#     Edge 71, Type (0, 1), BuildingBlock: CIFDUS_clean_linker_0, # of connection points: 2
#     Edge 72, Type (0, 1), BuildingBlock: CIFDUS_clean_linker_0, # of connection points: 2
#     Edge 73, Type (0, 1), BuildingBlock: CIFDUS_clean_linker_0, # of connection points: 2
#     Edge 74, Type (0, 1), BuildingBlock: CIFDUS_clean_linker_0, # of connection points: 2
#     Edge 75, Type (0, 1), BuildingBlock: CIFDUS_clean_linker_0, # of connection points: 2
#     Edge 76, Type (0, 1), BuildingBlock: CIFDUS_clean_linker_0, # of connection points: 2
#     Edge 77, Type (0, 1), BuildingBlock: CIFDUS_clean_linker_0, # of connection points: 2
#     Edge 78, Type (0, 1), BuildingBlock: CIFDUS_clean_linker_0, # of connection points: 2
#     Edge 79, Type (0, 1), BuildingBlock: CIFDUS_clean_linker_0, # of connection points: 2
#     Edge 80, Type (0, 1), BuildingBlock: CIFDUS_clean_linker_0, # of connection points: 2
#     Edge 81, Type (0, 1), BuildingBlock: CIFDUS_clean_linker_0, # of connection points: 2
#     Edge 82, Type (0, 1), BuildingBlock: CIFDUS_clean_linker_0, # of connection points: 2
#     Edge 83, Type (0, 1), BuildingBlock: CIFDUS_clean_linker_0, # of connection points: 2
#     Edge 84, Type (0, 1), BuildingBlock: CIFDUS_clean_linker_0, # of connection points: 2
#     Edge 85, Type (0, 1), BuildingBlock: CIFDUS_clean_linker_0, # of connection points: 2
#     Edge 86, Type (0, 1), BuildingBlock: CIFDUS_clean_linker_0, # of connection points: 2
#     Edge 87, Type (0, 1), BuildingBlock: CIFDUS_clean_linker_0, # of connection points: 2
#     Edge 88, Type (0, 1), BuildingBlock: CIFDUS_clean_linker_0, # of connection points: 2
#     Edge 89, Type (0, 1), BuildingBlock: CIFDUS_clean_linker_0, # of connection points: 2
#     Edge 90, Type (0, 1), BuildingBlock: CIFDUS_clean_linker_0, # of connection points: 2
#     Edge 91, Type (0, 1), BuildingBlock: CIFDUS_clean_linker_0, # of connection points: 2
#     Edge 92, Type (0, 1), BuildingBlock: CIFDUS_clean_linker_0, # of connection points: 2
#     Edge 93, Type (0, 1), BuildingBlock: CIFDUS_clean_linker_0, # of connection points: 2
#     Edge 94, Type (0, 1), BuildingBlock: CIFDUS_clean_linker_0, # of connection points: 2
#     Edge 95, Type (0, 1), BuildingBlock: CIFDUS_clean_linker_0, # of connection points: 2
#     Edge 96, Type (0, 1), BuildingBlock: CIFDUS_clean_linker_0, # of connection points: 2
#     Edge 97, Type (0, 1), BuildingBlock: CIFDUS_clean_linker_0, # of connection points: 2
#     Edge 98, Type (0, 1), BuildingBlock: CIFDUS_clean_linker_0, # of connection points: 2
#     Edge 99, Type (0, 1), BuildingBlock: CIFDUS_clean_linker_0, # of connection points: 2
#     Edge 100, Type (0, 1), BuildingBlock: CIFDUS_clean_linker_0, # of connection points: 2
#     Edge 101, Type (0, 1), BuildingBlock: CIFDUS_clean_linker_0, # of connection points: 2
#     Edge 102, Type (0, 1), BuildingBlock: CIFDUS_clean_linker_0, # of connection points: 2
#     Edge 103, Type (0, 1), BuildingBlock: CIFDUS_clean_linker_0, # of connection points: 2
#     Edge 104, Type (0, 1), BuildingBlock: CIFDUS_clean_linker_0, # of connection points: 2
#     Edge 105, Type (0, 1), BuildingBlock: CIFDUS_clean_linker_0, # of connection points: 2
#     Edge 106, Type (0, 1), BuildingBlock: CIFDUS_clean_linker_0, # of connection points: 2
#     Edge 107, Type (0, 1), BuildingBlock: CIFDUS_clean_linker_0, # of connection points: 2
#     Edge 108, Type (0, 1), BuildingBlock: CIFDUS_clean_linker_0, # of connection points: 2
#     Edge 109, Type (0, 1), BuildingBlock: CIFDUS_clean_linker_0, # of connection points: 2
#     Edge 110, Type (0, 1), BuildingBlock: CIFDUS_clean_linker_0, # of connection points: 2
#     Edge 111, Type (0, 1), BuildingBlock: CIFDUS_clean_linker_0, # of connection points: 2
#     Edge 112, Type (0, 1), BuildingBlock: CIFDUS_clean_linker_0, # of connection points: 2
#     Edge 113, Type (0, 1), BuildingBlock: CIFDUS_clean_linker_0, # of connection points: 2
#     Edge 114, Type (0, 1), BuildingBlock: CIFDUS_clean_linker_0, # of connection points: 2
#     Edge 115, Type (0, 1), BuildingBlock: CIFDUS_clean_linker_0, # of connection points: 2
#     Edge 116, Type (0, 1), BuildingBlock: CIFDUS_clean_linker_0, # of connection points: 2
#     Edge 117, Type (0, 1), BuildingBlock: CIFDUS_clean_linker_0, # of connection points: 2
#     Edge 118, Type (0, 1), BuildingBlock: CIFDUS_clean_linker_0, # of connection points: 2
#     Edge 119, Type (0, 1), BuildingBlock: CIFDUS_clean_linker_0, # of connection points: 2
#     Edge 120, Type (0, 1), BuildingBlock: CIFDUS_clean_linker_0, # of connection points: 2
#     Edge 121, Type (0, 1), BuildingBlock: CIFDUS_clean_linker_0, # of connection points: 2
#     Edge 122, Type (0, 1), BuildingBlock: CIFDUS_clean_linker_0, # of connection points: 2
#     Edge 123, Type (0, 1), BuildingBlock: CIFDUS_clean_linker_0, # of connection points: 2
#     Edge 124, Type (0, 1), BuildingBlock: CIFDUS_clean_linker_0, # of connection points: 2
#     Edge 125, Type (0, 1), BuildingBlock: CIFDUS_clean_linker_0, # of connection points: 2
#     Edge 126, Type (0, 1), BuildingBlock: CIFDUS_clean_linker_0, # of connection points: 2
#     Edge 127, Type (0, 1), BuildingBlock: CIFDUS_clean_linker_0, # of connection points: 2
#     Edge 128, Type (0, 1), BuildingBlock: CIFDUS_clean_linker_0, # of connection points: 2
#     Edge 129, Type (0, 1), BuildingBlock: CIFDUS_clean_linker_0, # of connection points: 2
#     Edge 130, Type (0, 1), BuildingBlock: CIFDUS_clean_linker_0, # of connection points: 2
#     Edge 131, Type (0, 1), BuildingBlock: CIFDUS_clean_linker_0, # of connection points: 2
#     Edge 132, Type (0, 1), BuildingBlock: CIFDUS_clean_linker_0, # of connection points: 2
#     Edge 133, Type (0, 1), BuildingBlock: CIFDUS_clean_linker_0, # of connection points: 2
#     Edge 134, Type (0, 1), BuildingBlock: CIFDUS_clean_linker_0, # of connection points: 2
#     Edge 135, Type (0, 1), BuildingBlock: CIFDUS_clean_linker_0, # of connection points: 2
# Relax obj value: 0.300
# Max RMSD: 0.289
# Mean RMSD: 0.134
data_MOF--net-iac--node1-KUFVIS_clean_sbu_0--node2-VOLQOD_clean_sbu_1--edge1-CIFDUS_clean_linker_0
_symmetry_space_group_name_H-M    P1
_symmetry_Int_Tables_number       1
_symmetry_cell_setting            triclinic
loop_
_symmetry_equiv_pos_as_xyz
'x, y, z'
_cell_length_a     48.354657
_cell_length_b     47.634624
_cell_length_c     49.371583
_cell_angle_alpha  90.231218
_cell_angle_beta   90.160732
_cell_angle_gamma 90.849774
loop_
_atom_site_label
_atom_site_type_symbol
_atom_site_fract_x
_atom_site_fract_y
_atom_site_fract_z
_atom_type_partial_charge
Mn0 Mn 0.00525 0.26723 0.13831 0.0
Mn1 Mn 0.96428 0.25949 0.08316 0.0
C2 C 0.00011 0.22363 0.11802 0.0
C3 C 0.04751 0.28035 0.15756 0.0
C4 C 0.94233 0.26467 0.14057 0.0
O5 O -0.00038 0.30736 0.12567 0.0
O6 O 0.97791 0.29894 0.08601 0.0
C7 C 0.00695 0.26922 0.04114 0.0
N8 N 0.98615 0.25306 0.0516 0.0
C9 C 0.99026 0.21928 0.01552 0.0
C10 C 0.01125 0.23593 0.00399 0.0
C11 C 0.01978 0.26089 0.01698 0.0
C12 C 0.97827 0.22865 0.03964 0.0
H13 H 0.01389 0.28813 0.05131 0.0
C14 C 0.99031 0.31538 0.10284 0.0
O15 O 0.02466 0.28105 0.17124 0.0
O16 O 0.04591 0.27168 0.13261 0.0
N17 N 0.94994 0.22223 0.0772 0.0
C18 C 0.93086 0.20753 0.09193 0.0
C19 C 0.92073 0.18162 0.08217 0.0
C20 C 0.93015 0.17113 0.05729 0.0
C21 C 0.94968 0.18664 0.04241 0.0
C22 C 0.95883 0.21247 0.05304 0.0
H23 H 0.92357 0.21536 0.11108 0.0
O24 O 0.00926 0.22562 0.14271 0.0
O25 O -0.00488 0.24706 0.10579 0.0
O26 O 0.96577 0.26476 0.15239 0.0
O27 O 0.93954 0.2648 0.11479 0.0
C28 C 0.96082 0.17722 0.01771 0.0
C29 C 0.98122 0.19345 0.00435 0.0
H30 H 0.02126 0.22953 0.98541 0.0
H31 H 0.03627 0.27364 0.00845 0.0
H32 H 0.90578 0.1697 0.09386 0.0
H33 H 0.92253 0.15097 0.04998 0.0
H34 H 0.95426 0.15725 0.00909 0.0
H35 H 0.99006 0.18569 0.98568 0.0
Mn36 Mn 0.00789 0.74423 0.38453 0.0
Mn37 Mn 0.9639 0.755 0.43625 0.0
C38 C 0.00167 0.789 0.40106 0.0
C39 C 0.0514 0.73105 0.37026 0.0
C40 C 0.94566 0.74317 0.37817 0.0
O41 O 0.0013 0.70537 0.39999 0.0
O42 O 0.97878 0.71656 0.43834 0.0
C43 C 0.004 0.75266 0.48166 0.0
N44 N 0.98341 0.76613 0.46836 0.0
C45 C 0.98346 0.80329 0.50153 0.0
C46 C 0.00414 0.78941 0.51598 0.0
C47 C 0.01465 0.76412 0.50585 0.0
C48 C 0.97377 0.79091 0.47748 0.0
H49 H 0.01245 0.73351 0.47369 0.0
C50 C 0.99191 0.69931 0.42336 0.0
O51 O 0.02995 0.72817 0.35455 0.0
O52 O 0.04753 0.74192 0.39408 0.0
N53 N 0.94839 0.7918 0.43739 0.0
C54 C 0.93046 0.80393 0.41977 0.0
C55 C 0.91861 0.82979 0.42642 0.0
C56 C 0.92529 0.84295 0.45113 0.0
C57 C 0.94402 0.83027 0.46883 0.0
C58 C 0.95495 0.80434 0.46123 0.0
H59 H 0.92545 0.79416 0.40067 0.0
O60 O 0.01239 0.7855 0.37721 0.0
O61 O -0.00434 0.76647 0.41442 0.0
O62 O 0.96961 0.74397 0.36756 0.0
O63 O 0.94152 0.74474 0.40374 0.0
C64 C 0.9527 0.84263 0.49346 0.0
C65 C 0.97257 0.82925 0.5097 0.0
H66 H 0.01244 0.79821 0.53462 0.0
H67 H 0.03095 0.75352 0.51663 0.0
H68 H 0.90447 0.83962 0.41246 0.0
H69 H 0.91634 0.86304 0.45606 0.0
H70 H 0.94471 0.86274 0.49978 0.0
H71 H 0.9796 0.8393 0.52825 0.0
Mn72 Mn 0.50225 0.73617 0.622 0.0
Mn73 Mn 0.47386 0.72329 0.56049 0.0
C74 C 0.49941 0.69075 0.60636 0.0
C75 C 0.53926 0.75178 0.64813 0.0
C76 C 0.44044 0.73533 0.61095 0.0
O77 O 0.50095 0.7744 0.60441 0.0
O78 O 0.4887 0.7624 0.56194 0.0
C79 C 0.52454 0.72705 0.52707 0.0
N80 N 0.50166 0.71241 0.53526 0.0
C81 C 0.51217 0.67392 0.50548 0.0
C82 C 0.53574 0.68866 0.4966 0.0
C83 C 0.542 0.71529 0.50752 0.0
C84 C 0.4956 0.68665 0.52509 0.0
H85 H 0.52943 0.74752 0.53541 0.0
C86 C 0.49771 0.78019 0.57949 0.0
O87 O 0.51399 0.75376 0.65655 0.0
O88 O 0.5432 0.73993 0.6247 0.0
N89 N 0.45899 0.6861 0.55562 0.0
C90 C 0.43588 0.67427 0.56683 0.0
C91 C 0.42688 0.64752 0.5582 0.0
C92 C 0.44146 0.63335 0.53789 0.0
C93 C 0.46486 0.64612 0.52629 0.0
C94 C 0.47276 0.67289 0.53557 0.0
H95 H 0.42438 0.68507 0.58227 0.0
O96 O 0.50356 0.69574 0.63194 0.0
O97 O 0.49847 0.71242 0.59047 0.0
O98 O 0.46077 0.73567 0.62734 0.0
O99 O 0.44319 0.73331 0.58527 0.0
C100 C 0.48093 0.63313 0.50617 0.0
C101 C 0.50465 0.64695 0.49589 0.0
H102 H 0.54927 0.67966 0.48153 0.0
H103 H 0.56023 0.72674 0.50086 0.0
H104 H 0.40877 0.63782 0.56723 0.0
H105 H 0.43462 0.61259 0.53149 0.0
H106 H 0.47544 0.61235 0.49876 0.0
H107 H 0.51706 0.63659 0.48072 0.0
Mn108 Mn 0.4894 0.24239 0.87768 0.0
Mn109 Mn 0.44354 0.22481 0.9255 0.0
C110 C 0.47299 0.27675 0.90617 0.0
C111 C 0.5354 0.24174 0.86556 0.0
C112 C 0.43064 0.22758 0.8652 0.0
O113 O 0.49029 0.19989 0.87954 0.0
O114 O 0.46947 0.19347 0.91987 0.0
C115 C 0.47868 0.21913 0.97438 0.0
N116 N 0.45724 0.23155 0.96139 0.0
C117 C 0.44698 0.25946 0.00076 0.0
C118 C 0.46899 0.24699 0.0145 0.0
C119 C 0.48493 0.22675 0.00123 0.0
C120 C 0.44171 0.251 0.974 0.0
H121 H 0.4909 0.20347 0.96437 0.0
C122 C 0.48498 0.18534 0.90045 0.0
O123 O 0.51607 0.24128 0.84718 0.0
O124 O 0.52793 0.24415 0.89065 0.0
N125 N 0.41823 0.25452 0.93295 0.0
C126 C 0.39844 0.26557 0.91658 0.0
C127 C 0.38111 0.28653 0.92668 0.0
C128 C 0.38408 0.29581 0.95356 0.0
C129 C 0.40439 0.28402 0.97013 0.0
C130 C 0.42101 0.26309 0.95899 0.0
H131 H 0.39578 0.25852 0.89599 0.0
O132 O 0.48548 0.28388 0.8839 0.0
O133 O 0.47155 0.2502 0.91111 0.0
O134 O 0.45262 0.24046 0.85794 0.0
O135 O 0.42697 0.21791 0.88914 0.0
C136 C 0.4091 0.2926 -0.0029 0.0
C137 C 0.43039 0.28035 0.0124 0.0
H138 H 0.47395 0.2529 0.03518 0.0
H139 H 0.50197 0.21703 0.01169 0.0
H140 H 0.36547 0.29553 0.91375 0.0
H141 H 0.37081 0.31214 0.96121 0.0
H142 H 0.39669 0.30886 0.00618 0.0
H143 H 0.43404 0.28738 0.03301 0.0
Mn144 Mn 0.14316 0.01073 0.25395 0.0
Mn145 Mn 0.19907 0.02521 0.29283 0.0
C146 C 0.16042 0.05575 0.25589 0.0
C147 C 0.12561 -0.00574 0.21299 0.0
C148 C 0.14103 0.01723 0.31514 0.0
O149 O 0.15849 0.9725 0.26239 0.0
O150 O 0.19853 0.98476 0.28285 0.0
C151 C 0.2428 0.01508 0.25222 0.0
N152 N 0.2306 0.03239 0.2705 0.0
C153 C 0.26429 0.06901 0.26215 0.0
C154 C 0.27736 0.05147 0.24341 0.0
C155 C 0.2665 0.02443 0.23835 0.0
C156 C 0.2407 0.05857 0.2753 0.0
H157 H 0.23448 -0.0057 0.24821 0.0
C158 C 0.18204 0.96652 0.27221 0.0
O159 O 0.1109 0.99322 0.23497 0.0
O160 O 0.15045 0.0047 0.21495 0.0
N161 N 0.20275 0.06375 0.30369 0.0
C162 C 0.18722 0.0784 0.32175 0.0
C163 C 0.19514 0.10597 0.32879 0.0
C164 C 0.21907 0.1181 0.31747 0.0
C165 C 0.23494 0.1025 0.29925 0.0
C166 C 0.22613 0.07505 0.29312 0.0
H167 H 0.16893 0.06919 0.3307 0.0
O168 O 0.13545 0.05108 0.2471 0.0
O169 O 0.17478 0.03392 0.26228 0.0
O170 O 0.12858 0.01458 0.29244 0.0
O171 O 0.16735 0.01919 0.31748 0.0
C172 C 0.25894 0.11326 0.28665 0.0
C173 C 0.27353 0.09658 0.26801 0.0
H174 H 0.29563 0.05862 0.23264 0.0
H175 H 0.27638 0.01084 0.2238 0.0
H176 H 0.18277 0.11787 0.34288 0.0
H177 H 0.22495 0.13946 0.32275 0.0
H178 H 0.26613 0.13448 0.29086 0.0
H179 H 0.29172 0.10522 0.25816 0.0
Mn180 Mn 0.26875 0.89802 0.50002 0.0
Mn181 Mn 0.28467 0.95234 0.45899 0.0
C182 C 0.3115 0.91887 0.50333 0.0
C183 C 0.24727 0.88023 0.53819 0.0
C184 C 0.28344 0.89158 0.44086 0.0
O185 O 0.23181 0.90996 0.48493 0.0
O186 O 0.24401 0.95013 0.46399 0.0
C187 C 0.26748 -0.00056 0.49412 0.0
N188 N 0.28735 0.9865 0.47932 0.0
C189 C 0.32047 0.0233 0.48943 0.0
C190 C 0.30031 0.03711 0.50464 0.0
C191 C 0.27373 0.02507 0.50707 0.0
C192 C 0.31306 -0.00224 0.47706 0.0
H193 H 0.24703 0.99026 0.49605 0.0
C194 C 0.22583 0.9328 0.4731 0.0
O195 O 0.2512 0.86488 0.51683 0.0
O196 O 0.25589 0.9062 0.53743 0.0
N197 N 0.32349 0.95741 0.45261 0.0
C198 C 0.34071 0.94126 0.43751 0.0
C199 C 0.36811 0.95031 0.43319 0.0
C200 C 0.37745 0.97602 0.44411 0.0
C201 C 0.35923 0.99254 0.45914 0.0
C202 C 0.33209 0.98253 0.46262 0.0
H203 H 0.33365 0.92159 0.42883 0.0
O204 O 0.30731 0.89399 0.5133 0.0
O205 O 0.29032 0.93125 0.49273 0.0
O206 O 0.27958 0.881 0.46412 0.0
O207 O 0.28323 0.91795 0.43617 0.0
C208 C 0.36703 0.01841 0.47105 0.0
C209 C 0.3477 0.03371 0.48629 0.0
H210 H 0.30505 0.05687 0.51467 0.0
H211 H 0.2581 0.03554 0.51888 0.0
H212 H 0.38202 0.93747 0.42151 0.0
H213 H 0.39867 0.9828 0.44096 0.0
H214 H 0.38793 0.02658 0.46887 0.0
H215 H 0.35403 0.05341 0.49561 0.0
Mn216 Mn 0.37858 0.00081 0.76513 0.0
Mn217 Mn 0.3188 0.99354 0.79932 0.0
C218 C 0.35918 0.95691 0.77059 0.0
C219 C 0.40174 0.01121 0.72558 0.0
C220 C 0.37446 0.0041 0.82591 0.0
O221 O 0.3637 0.0405 0.76707 0.0
O222 O 0.32059 0.03116 0.78219 0.0
C223 C 0.27925 -0.0058 0.75334 0.0
N224 N 0.28904 0.98176 0.77613 0.0
C225 C 0.25441 0.94507 0.7731 0.0
C226 C 0.24322 0.9582 0.75028 0.0
C227 C 0.25594 0.98267 0.74015 0.0
C228 C 0.27761 0.95761 0.78545 0.0
H229 H 0.28948 0.01245 0.74505 0.0
C230 C 0.33875 0.04751 0.77146 0.0
O231 O 0.41357 0.01458 0.74902 0.0
O232 O 0.37636 0.00189 0.72513 0.0
N233 N 0.31422 0.95755 0.81615 0.0
C234 C 0.32926 0.9459 0.8365 0.0
C235 C 0.32088 0.91992 0.84731 0.0
C236 C 0.29697 0.90632 0.83734 0.0
C237 C 0.28168 0.91878 0.81657 0.0
C238 C 0.29103 0.94471 0.80658 0.0
H239 H 0.34754 0.95623 0.84445 0.0
O240 O 0.38508 0.95947 0.76405 0.0
O241 O 0.34539 0.97992 0.7727 0.0
O242 O 0.38893 0.00156 0.80467 0.0
O243 O 0.34804 0.00469 0.82579 0.0
C244 C 0.25781 0.90624 0.80505 0.0
C245 C 0.24413 0.91942 0.78339 0.0
H246 H 0.2254 0.9492 0.7399 0.0
H247 H 0.24792 0.9925 0.72209 0.0
H248 H 0.33281 0.91043 0.86333 0.0
H249 H 0.29065 0.88622 0.84564 0.0
H250 H 0.25012 0.88619 0.81234 0.0
H251 H 0.22621 0.90922 0.77425 0.0
Mn252 Mn 0.26502 0.13371 0.00747 0.0
Mn253 Mn 0.24848 0.07291 0.97512 0.0
C254 C 0.22028 0.11691 0.00788 0.0
C255 C 0.28074 0.15943 0.04437 0.0
C256 C 0.2574 0.12804 0.94626 0.0
O257 O 0.30226 0.11568 0.00253 0.0
O258 O 0.28885 0.07519 0.9824 0.0
C259 C 0.26208 0.03394 0.01968 0.0
N260 N 0.2436 0.04374 0.00125 0.0
C261 C 0.20921 0.00971 0.01503 0.0
C262 C 0.22792 -0.00085 0.03405 0.0
C263 C 0.25443 0.0114 0.03645 0.0
C264 C 0.21794 0.03233 -0.001 0.0
H265 H 0.2825 0.04322 0.02157 0.0
C266 C 0.30735 0.09151 0.99279 0.0
O267 O 0.28256 0.16917 0.01996 0.0
O268 O 0.2703 0.13432 0.04737 0.0
N269 N 0.21001 0.06715 0.96709 0.0
C270 C 0.19413 0.08024 0.94828 0.0
C271 C 0.16706 0.07042 0.94325 0.0
C272 C 0.15664 0.04712 0.9575 0.0
C273 C 0.1734 0.03386 0.97664 0.0
C274 C 0.2003 0.04443 0.98059 0.0
H275 H 0.20193 0.09819 0.93733 0.0
O276 O 0.22537 0.14338 0.01222 0.0
O277 O 0.2414 0.10097 0.00362 0.0
O278 O 0.26269 0.14227 0.9675 0.0
O279 O 0.25209 0.10171 0.94643 0.0
C280 C 0.16433 0.01079 0.99221 0.0
C281 C 0.18217 -0.00116 0.01151 0.0
H282 H 0.22212 0.98174 0.047 0.0
H283 H 0.26896 0.00343 0.05115 0.0
H284 H 0.15422 0.08087 0.92855 0.0
H285 H 0.13565 0.0398 0.95379 0.0
H286 H 0.14356 0.00231 0.98975 0.0
H287 H 0.17485 0.98133 0.02361 0.0
Mn288 Mn 0.74353 0.40083 0.01777 0.0
Mn289 Mn 0.74951 0.4452 0.96467 0.0
C290 C 0.78359 0.42595 0.01195 0.0
C291 C 0.72815 0.38983 0.0607 0.0
C292 C 0.75557 0.38225 0.95987 0.0
O293 O 0.70427 0.40504 0.00517 0.0
O294 O 0.70979 0.43674 0.97198 0.0
C295 C 0.72431 0.49467 0.99082 0.0
N296 N 0.74596 0.48286 0.97762 0.0
C297 C 0.7716 0.52654 0.97836 0.0
C298 C 0.7495 0.53922 0.99179 0.0
C299 C 0.7258 0.52318 -0.00187 0.0
C300 C 0.769 0.49802 0.97174 0.0
H301 H 0.70606 0.48244 0.99579 0.0
C302 C 0.69462 0.42126 0.98723 0.0
O303 O 0.73172 0.37074 0.04231 0.0
O304 O 0.73387 0.41574 0.05433 0.0
N305 N 0.78646 0.45615 0.95495 0.0
C306 C 0.8059 0.44089 0.94176 0.0
C307 C 0.83068 0.45396 0.93351 0.0
C308 C 0.83517 0.48267 0.93871 0.0
C309 C 0.81468 0.4981 0.95186 0.0
C310 C 0.79023 0.484 0.95928 0.0
H311 H 0.80271 0.41883 0.93783 0.0
O312 O 0.78341 0.40354 0.02686 0.0
O313 O 0.76016 0.43364 0.00156 0.0
O314 O 0.75204 0.37714 0.98485 0.0
O315 O 0.75445 0.40685 0.94968 0.0
C316 C 0.81763 0.52689 0.95805 0.0
C317 C 0.79617 0.54106 0.97144 0.0
H318 H 0.75055 0.56121 -0.00258 0.0
H319 H 0.7087 0.53278 0.0086 0.0
H320 H 0.84638 0.44188 0.92336 0.0
H321 H 0.85445 0.4926 0.93264 0.0
H322 H 0.83639 0.53828 0.95277 0.0
H323 H 0.79877 0.56314 0.97629 0.0
Mn324 Mn 0.88212 0.50698 0.25442 0.0
Mn325 Mn 0.82538 0.49622 0.29238 0.0
C326 C 0.86235 0.46291 0.25625 0.0
C327 C 0.89935 0.52297 0.21376 0.0
C328 C 0.88359 0.50328 0.31522 0.0
O329 O 0.86905 0.54615 0.26297 0.0
O330 O 0.82708 0.53572 0.28007 0.0
C331 C 0.78319 0.50374 0.24947 0.0
N332 N 0.79377 0.48837 0.27013 0.0
C333 C 0.75733 0.4537 0.26572 0.0
C334 C 0.74554 0.46964 0.24497 0.0
C335 C 0.75871 0.49461 0.2366 0.0
C336 C 0.78186 0.46379 0.27763 0.0
H337 H 0.79359 0.52258 0.24265 0.0
C338 C 0.84495 0.55305 0.27046 0.0
O339 O 0.91482 0.5229 0.23535 0.0
O340 O 0.8743 0.51321 0.21581 0.0
N341 N 0.82044 0.4586 0.30532 0.0
C342 C 0.83596 0.44423 0.32353 0.0
C343 C 0.82621 0.41834 0.33346 0.0
C344 C 0.80059 0.40745 0.32458 0.0
C345 C 0.78514 0.42236 0.30553 0.0
C346 C 0.79579 0.4482 0.29658 0.0
H347 H 0.85574 0.45228 0.33022 0.0
O348 O 0.88745 0.46593 0.2474 0.0
O349 O 0.84963 0.48562 0.26279 0.0
O350 O 0.89655 0.50311 0.29278 0.0
O351 O 0.85717 0.50303 0.3171 0.0
C352 C 0.75986 0.41235 0.29469 0.0
C353 C 0.7461 0.42787 0.27459 0.0
H354 H 0.72668 0.46263 0.23498 0.0
H355 H 0.75006 0.50674 0.22023 0.0
H356 H 0.83848 0.40675 0.34783 0.0
H357 H 0.79327 0.38734 0.33208 0.0
H358 H 0.75118 0.39239 0.30115 0.0
H359 H 0.72709 0.41958 0.26585 0.0
Mn360 Mn 0.72836 0.6387 0.51257 0.0
Mn361 Mn 0.71937 0.57543 0.48308 0.0
C362 C 0.68489 0.61864 0.51119 0.0
C363 C 0.74234 0.66445 0.55006 0.0
C364 C 0.72687 0.62982 0.45207 0.0
O365 O 0.76727 0.62389 0.50839 0.0
O366 O 0.7578 0.5788 0.49744 0.0
C367 C 0.72438 0.53912 0.53141 0.0
N368 N 0.71 0.54726 0.5091 0.0
C369 C 0.67482 0.51197 0.51687 0.0
C370 C 0.68966 0.50271 0.53949 0.0
C371 C 0.71438 0.51656 0.54697 0.0
C372 C 0.6857 0.53473 0.50229 0.0
H373 H 0.74314 0.54995 0.53738 0.0
C374 C 0.77439 0.59845 0.50525 0.0
O375 O 0.74327 0.67519 0.52593 0.0
O376 O 0.73295 0.6389 0.55237 0.0
N377 N 0.68285 0.56894 0.46892 0.0
C378 C 0.66998 0.58174 0.44781 0.0
C379 C 0.64411 0.57156 0.43885 0.0
C380 C 0.63192 0.54805 0.45137 0.0
C381 C 0.64567 0.53499 0.47282 0.0
C382 C 0.67135 0.54616 0.48097 0.0
H383 H 0.67931 0.59956 0.43778 0.0
O384 O 0.68777 0.64528 0.51628 0.0
O385 O 0.70747 0.60455 0.50842 0.0
O386 O 0.72579 0.64617 0.47245 0.0
O387 O 0.72782 0.60307 0.45401 0.0
C388 C 0.63475 0.51151 0.48663 0.0
C389 C 0.64931 0.50001 0.50864 0.0
H390 H 0.68198 0.48535 0.55157 0.0
H391 H 0.72571 0.50987 0.56469 0.0
H392 H 0.63366 0.58173 0.42225 0.0
H393 H 0.61195 0.54029 0.44443 0.0
H394 H 0.61492 0.50245 0.48081 0.0
H395 H 0.64041 0.48235 0.51948 0.0
Mn396 Mn 0.62046 0.50668 0.78952 0.0
Mn397 Mn 0.67324 0.5224 0.8322 0.0
C398 C 0.64046 0.55062 0.78863 0.0
C399 C 0.6045 0.48636 0.74962 0.0
C400 C 0.61321 0.51861 0.84955 0.0
O401 O 0.63316 0.46885 0.80242 0.0
O402 O 0.67125 0.48111 0.82643 0.0
C403 C 0.72025 0.50565 0.79772 0.0
N404 N 0.70718 0.52555 0.81263 0.0
C405 C 0.74344 0.55946 0.80399 0.0
C406 C 0.75738 0.53926 0.78869 0.0
C407 C 0.74568 0.51227 0.78548 0.0
C408 C 0.71815 0.55164 0.81569 0.0
H409 H 0.71131 0.48489 0.79518 0.0
C410 C 0.65497 0.46283 0.81554 0.0
O411 O 0.58855 0.48888 0.77056 0.0
O412 O 0.62967 0.49606 0.75175 0.0
N413 N 0.67789 0.56175 0.83932 0.0
C414 C 0.66129 0.57914 0.85377 0.0
C415 C 0.66977 0.60708 0.85841 0.0
C416 C 0.69533 0.61677 0.84841 0.0
C417 C 0.71222 0.5984 0.83391 0.0
C418 C 0.70276 0.57074 0.83005 0.0
H419 H 0.64168 0.57182 0.86162 0.0
O420 O 0.61589 0.54656 0.7785 0.0
O421 O 0.65273 0.5288 0.79841 0.0
O422 O 0.603 0.51463 0.82604 0.0
O423 O 0.63917 0.52043 0.85422 0.0
C424 C 0.73787 0.60659 0.82274 0.0
C425 C 0.75342 0.58716 0.80771 0.0
H426 H 0.77697 0.54431 0.77916 0.0
H427 H 0.75625 0.49662 0.77359 0.0
H428 H 0.6566 0.62114 0.86961 0.0
H429 H 0.70166 0.63842 0.8518 0.0
H430 H 0.74564 0.62789 0.82525 0.0
H431 H 0.77292 0.59381 0.7989 0.0
Mn432 Mn -0.00415 0.78391 0.86956 0.0
Mn433 Mn 0.95895 0.8008 0.92458 0.0
C434 C 0.00348 0.82633 0.89019 0.0
C435 C 0.03441 0.76537 0.84952 0.0
C436 C 0.93498 0.79604 0.86783 0.0
O437 O 0.98083 0.74645 0.88294 0.0
O438 O 0.96194 0.75921 0.92302 0.0
C439 C -0.00489 0.78306 0.96958 0.0
N440 N 0.98148 0.80373 0.95634 0.0
C441 C -0.00327 0.83835 0.98895 0.0
C442 C 0.01088 0.81741 0.00299 0.0
C443 C 0.01006 0.78965 0.99325 0.0
C444 C 0.98186 0.83046 0.96569 0.0
H445 H 0.99458 0.76171 0.9621 0.0
C446 C 0.96907 0.74064 0.90549 0.0
O447 O 0.01142 0.76767 0.83612 0.0
O448 O 0.0344 0.77186 0.87506 0.0
N449 N 0.95554 0.84072 0.92757 0.0
C450 C 0.94271 0.85876 0.91045 0.0
C451 C 0.94306 0.88764 0.91636 0.0
C452 C 0.95658 0.89765 0.93978 0.0
C453 C 0.96953 0.87867 0.95714 0.0
C454 C 0.96835 0.85011 0.9503 0.0
H455 H 0.93254 0.85119 0.8923 0.0
O456 O 0.00957 0.82314 0.8648 0.0
O457 O 0.99213 0.80488 0.90223 0.0
O458 O 0.95785 0.79386 0.85553 0.0
O459 O 0.93314 0.79827 0.89351 0.0
C460 C 0.98424 0.88706 0.98055 0.0
C461 C -0.00238 0.8669 0.99659 0.0
H462 H 0.02272 0.82247 0.02106 0.0
H463 H 0.02102 0.7734 0.00391 0.0
H464 H 0.93311 0.90218 0.9028 0.0
H465 H 0.95719 0.91998 0.94407 0.0
H466 H 0.98585 0.90904 0.98612 0.0
H467 H 0.00915 0.87367 0.01434 0.0
Mn468 Mn 0.97415 0.23022 0.6341 0.0
Mn469 Mn 0.9349 0.20421 0.58342 0.0
C470 C 0.97026 0.18287 0.62793 0.0
C471 C 0.01618 0.24501 0.65094 0.0
C472 C 0.91158 0.23096 0.63388 0.0
O473 O 0.96943 0.26335 0.60939 0.0
O474 O 0.94602 0.24343 0.5742 0.0
C475 C 0.97712 0.20189 0.54022 0.0
N476 N 0.9584 0.18852 0.5564 0.0
C477 C 0.96902 0.14371 0.53662 0.0
C478 C 0.98824 0.15703 0.51957 0.0
C479 C 0.99236 0.18623 0.52144 0.0
C480 C 0.95436 0.16041 0.55485 0.0
H481 H 0.98044 0.22431 0.5417 0.0
C482 C 0.95785 0.26438 0.58615 0.0
O483 O 0.99336 0.25325 0.66208 0.0
O484 O 0.01445 0.23008 0.62897 0.0
N485 N 0.92344 0.16627 0.59037 0.0
C486 C 0.90525 0.15648 0.60924 0.0
C487 C 0.89942 0.12755 0.61064 0.0
C488 C 0.91235 0.10901 0.59264 0.0
C489 C 0.93099 0.11958 0.57338 0.0
C490 C 0.93582 0.14863 0.57281 0.0
H491 H 0.89533 0.17066 0.62318 0.0
O492 O 0.97674 0.19276 0.65167 0.0
O493 O 0.96511 0.20125 0.60936 0.0
O494 O 0.93469 0.23434 0.64583 0.0
O495 O 0.90887 0.21965 0.61048 0.0
C496 C 0.94534 0.10238 0.55506 0.0
C497 C 0.9643 0.11446 0.53665 0.0
H498 H 0.0002 0.145 0.50522 0.0
H499 H 0.00732 0.19663 0.50851 0.0
H500 H 0.88508 0.11953 0.62562 0.0
H501 H 0.90796 0.08669 0.5939 0.0
H502 H 0.94213 0.07983 0.55509 0.0
H503 H 0.97535 0.10102 0.52278 0.0
Mn504 Mn 0.48731 0.25348 0.39919 0.0
Mn505 Mn 0.47383 0.30064 0.35054 0.0
C506 C 0.44263 0.26204 0.38737 0.0
C507 C 0.49683 0.20885 0.41359 0.0
C508 C 0.4942 0.31641 0.40644 0.0
O509 O 0.52399 0.25846 0.38018 0.0
O510 O 0.51239 0.28731 0.34579 0.0
C511 C 0.47436 0.26349 0.30237 0.0
N512 N 0.4607 0.2817 0.31871 0.0
C513 C 0.41985 0.27853 0.2908 0.0
C514 C 0.43353 0.25985 0.27359 0.0
C515 C 0.46088 0.25225 0.27945 0.0
C516 C 0.43436 0.28908 0.31331 0.0
H517 H 0.49536 0.2576 0.30687 0.0
C518 C 0.52994 0.27269 0.35905 0.0
O519 O 0.50362 0.23067 0.42808 0.0
O520 O 0.48561 0.21288 0.39002 0.0
N521 N 0.43713 0.31486 0.35336 0.0
C522 C 0.42632 0.33154 0.37303 0.0
C523 C 0.3986 0.33972 0.37111 0.0
C524 C 0.38238 0.33082 0.34894 0.0
C525 C 0.39417 0.31424 0.32861 0.0
C526 C 0.42185 0.30662 0.33169 0.0
H527 H 0.43867 0.33824 0.39019 0.0
O528 O 0.44807 0.25166 0.41101 0.0
O529 O 0.46361 0.2673 0.37167 0.0
O530 O 0.49273 0.29175 0.41603 0.0
O531 O 0.48716 0.32253 0.38227 0.0
C532 C 0.37935 0.30441 0.30576 0.0
C533 C 0.3922 0.2866 0.28685 0.0
H534 H 0.42316 0.251 0.25598 0.0
H535 H 0.47152 0.23772 0.26634 0.0
H536 H 0.38968 0.3527 0.38677 0.0
H537 H 0.36091 0.33687 0.34772 0.0
H538 H 0.35791 0.30995 0.30281 0.0
H539 H 0.38044 0.27873 0.26965 0.0
Mn540 Mn 0.49737 0.73663 0.11961 0.0
Mn541 Mn 0.45825 0.7114 0.06814 0.0
C542 C 0.49508 0.68953 0.11182 0.0
C543 C 0.53814 0.75397 0.13721 0.0
C544 C 0.43475 0.73294 0.12088 0.0
O545 O 0.49068 0.77066 0.09656 0.0
O546 O 0.46791 0.75139 0.0608 0.0
C547 C 0.50003 0.71312 0.02446 0.0
N548 N 0.48154 0.69829 0.0397 0.0
C549 C 0.49104 0.65567 0.01533 0.0
C550 C 0.51005 0.67052 -0.00077 0.0
C551 C 0.51463 0.69934 0.00389 0.0
C552 C 0.47716 0.67051 0.03557 0.0
H553 H 0.50362 0.73525 0.02801 0.0
C554 C 0.47905 0.77226 0.07341 0.0
O555 O 0.51466 0.75974 0.14841 0.0
O556 O 0.53787 0.7395 0.11485 0.0
N557 N 0.44761 0.67281 0.07259 0.0
C558 C 0.42942 0.66133 0.0906 0.0
C559 C 0.42282 0.63255 0.08895 0.0
C560 C 0.43479 0.61593 0.06867 0.0
C561 C 0.45331 0.62825 0.05027 0.0
C562 C 0.459 0.65705 0.05283 0.0
H563 H 0.42 0.67403 0.1061 0.0
O564 O 0.50217 0.69884 0.13562 0.0
O565 O 0.48943 0.70806 0.09346 0.0
O566 O 0.45793 0.73753 0.13225 0.0
O567 O 0.43219 0.72382 0.09661 0.0
C568 C 0.46662 0.613 0.02969 0.0
C569 C 0.48557 0.62667 0.01232 0.0
H570 H 0.52138 0.65998 0.98336 0.0
H571 H 0.52937 0.71092 0.99163 0.0
H572 H 0.40857 0.62318 0.10327 0.0
H573 H 0.42979 0.59371 0.06757 0.0
H574 H 0.46273 0.59066 0.0273 0.0
H575 H 0.49598 0.61465 -0.00317 0.0
Mn576 Mn 0.90148 -0.00246 0.75167 0.0
Mn577 Mn 0.84549 0.98031 0.78911 0.0
C578 C 0.88175 0.95317 0.74903 0.0
C579 C 0.92017 0.01214 0.71062 0.0
C580 C 0.90312 0.98678 0.81269 0.0
O581 O 0.88673 0.03599 0.76199 0.0
O582 O 0.84914 0.02162 0.78556 0.0
C583 C 0.80191 -0.00045 0.75158 0.0
N584 N 0.81339 0.9787 0.76646 0.0
C585 C 0.77713 0.94612 0.75355 0.0
C586 C 0.76487 0.96728 0.73815 0.0
C587 C 0.77737 -0.00593 0.73709 0.0
C588 C 0.80164 0.95279 0.76746 0.0
H589 H 0.81141 0.02019 0.75082 0.0
C590 C 0.86497 0.04092 0.77583 0.0
O591 O 0.93491 0.01312 0.73268 0.0
O592 O 0.89451 0.00452 0.71281 0.0
N593 N 0.83961 0.94076 0.79377 0.0
C594 C 0.8549 0.92227 0.80826 0.0
C595 C 0.84551 0.89436 0.81094 0.0
C596 C 0.82042 0.88581 0.79886 0.0
C597 C 0.80505 0.90521 0.78403 0.0
C598 C 0.81541 0.93274 0.78211 0.0
H599 H 0.87417 0.92874 0.81757 0.0
O600 O 0.90753 0.95695 0.74279 0.0
O601 O 0.86882 0.97505 0.75758 0.0
O602 O 0.91571 0.993 0.79075 0.0
O603 O 0.87731 0.98098 0.81402 0.0
C604 C 0.78005 0.8982 0.77074 0.0
C605 C 0.76617 0.9186 0.75539 0.0
H606 H 0.74594 0.96314 0.72694 0.0
H607 H 0.76807 0.01048 0.72518 0.0
H608 H 0.8576 0.87947 0.82227 0.0
H609 H 0.81332 0.86424 0.80084 0.0
H610 H 0.77155 0.87706 0.77182 0.0
H611 H 0.74721 0.91284 0.74489 0.0
Mn612 Mn 0.75727 0.15833 0.52059 0.0
Mn613 Mn 0.73852 0.10228 0.48279 0.0
C614 C 0.71247 0.14197 0.52112 0.0
C615 C 0.77006 0.17637 0.56263 0.0
C616 C 0.74991 0.16 0.45924 0.0
O617 O 0.7941 0.14071 0.5123 0.0
O618 O 0.7793 0.10292 0.48813 0.0
C619 C 0.75262 0.0567 0.52072 0.0
N620 N 0.73352 0.07013 0.50537 0.0
C621 C 0.69793 0.03682 0.51784 0.0
C622 C 0.71724 0.02255 0.5337 0.0
C623 C 0.74468 0.03258 0.5352 0.0
C624 C 0.70706 0.06068 0.50381 0.0
H625 H 0.77373 0.06433 0.52188 0.0
C626 C 0.79851 0.11831 0.49875 0.0
O627 O 0.77403 0.19109 0.54078 0.0
O628 O 0.76144 0.15078 0.55943 0.0
N629 N 0.69946 0.09957 0.47658 0.0
C630 C 0.68305 0.11679 0.46181 0.0
C631 C 0.65467 0.11051 0.45939 0.0
C632 C 0.64351 0.08654 0.47205 0.0
C633 C 0.66086 0.06906 0.48702 0.0
C634 C 0.68899 0.07634 0.48865 0.0
H635 H 0.69154 0.13528 0.45211 0.0
O636 O 0.71796 0.16793 0.52718 0.0
O637 O 0.73326 0.12677 0.51389 0.0
O638 O 0.75536 0.17273 0.48149 0.0
O639 O 0.74283 0.1341 0.45788 0.0
C640 C 0.65127 0.04498 0.50077 0.0
C641 C 0.66983 0.02872 0.51596 0.0
H642 H 0.71116 0.00405 0.54504 0.0
H643 H 0.75967 0.02176 0.5475 0.0
H644 H 0.64141 0.12414 0.44784 0.0
H645 H 0.62159 0.08184 0.47026 0.0
H646 H 0.62959 0.03902 0.50013 0.0
H647 H 0.66213 0.01043 0.52669 0.0
Mn648 Mn 0.62452 0.01583 0.26205 0.0
Mn649 Mn 0.67583 0.04831 0.29644 0.0
C650 C 0.63396 0.0621 0.25431 0.0
C651 C 0.60915 0.99294 0.22353 0.0
C652 C 0.62131 0.02952 0.32155 0.0
O653 O 0.64733 0.98404 0.27642 0.0
O654 O 0.6842 0.00764 0.2943 0.0
C655 C 0.72309 0.04119 0.25923 0.0
N656 N 0.70582 0.05835 0.27311 0.0
C657 C 0.72993 0.09958 0.25709 0.0
C658 C 0.74806 0.08234 0.24271 0.0
C659 C 0.74458 0.05303 0.24375 0.0
C660 C 0.70898 0.08658 0.27228 0.0
H661 H 0.72043 0.01866 0.25995 0.0
C662 C 0.67111 0.98492 0.28786 0.0
O663 O 0.59552 0.99061 0.24611 0.0
O664 O 0.63293 0.00578 0.22443 0.0
N665 N 0.66959 0.08784 0.29917 0.0
C666 C 0.64906 0.10147 0.31244 0.0
C667 C 0.64871 0.13096 0.31229 0.0
C668 C 0.6695 0.1461 0.2986 0.0
C669 C 0.69041 0.13159 0.28509 0.0
C670 C 0.68972 0.10221 0.28599 0.0
H671 H 0.63302 0.08992 0.32296 0.0
O672 O 0.6095 0.052 0.24891 0.0
O673 O 0.65143 0.04503 0.2651 0.0
O674 O 0.60915 0.02221 0.29971 0.0
O675 O 0.64611 0.03908 0.32244 0.0
C676 C 0.7116 0.14512 0.27032 0.0
C677 C 0.73138 0.12914 0.25638 0.0
H678 H 0.76454 0.0914 0.2306 0.0
H679 H 0.7584 0.0396 0.2326 0.0
H680 H 0.63243 0.14199 0.32266 0.0
H681 H 0.66907 0.16883 0.29836 0.0
H682 H 0.71267 0.1678 0.26927 0.0
H683 H 0.74731 0.1398 0.24477 0.0
Mn684 Mn 0.77195 0.87165 0.0064 0.0
Mn685 Mn 0.79477 0.93118 0.97685 0.0
C686 C 0.81849 0.88015 0.00166 0.0
C687 C 0.76057 0.8487 0.04627 0.0
C688 C 0.76933 0.88223 0.94565 0.0
O689 O 0.73822 0.89626 0.00711 0.0
O690 O 0.75627 0.93634 0.98966 0.0
C691 C 0.79663 0.96853 0.02489 0.0
N692 N 0.8097 0.95618 0.00366 0.0
C693 C 0.85221 0.98097 0.01389 0.0
C694 C 0.83918 -0.00593 0.03579 0.0
C695 C 0.81131 0.98769 0.0414 0.0
C696 C 0.8366 0.96188 -0.0017 0.0
H697 H 0.77516 0.96382 0.02912 0.0
C698 C 0.73627 0.92176 -0.00039 0.0
O699 O 0.75122 0.83934 0.02313 0.0
O700 O 0.77488 0.8718 0.04615 0.0
N701 N 0.83186 0.92887 0.96368 0.0
C702 C 0.84177 0.91321 0.94279 0.0
C703 C 0.86972 0.91601 0.93543 0.0
C704 C 0.88703 0.93512 0.94939 0.0
C705 C 0.87627 0.95127 0.97056 0.0
C706 C 0.84834 0.9474 0.97714 0.0
H707 H 0.82848 0.8986 0.93194 0.0
O708 O 0.80945 0.85461 0.00472 0.0
O709 O 0.79995 0.8995 0.0009 0.0
O710 O 0.76555 0.86566 0.96567 0.0
O711 O 0.78023 0.90673 0.94782 0.0
C712 C 0.89225 0.97081 0.98559 0.0
C713 C 0.8802 0.98574 0.00718 0.0
H714 H 0.85043 0.00885 0.04857 0.0
H715 H 0.80115 -0.00238 0.05835 0.0
H716 H 0.8779 0.9035 0.91904 0.0
H717 H 0.90858 0.93713 0.94386 0.0
H718 H 0.91391 0.97422 0.98097 0.0
H719 H 0.89281 0.00041 0.01884 0.0
Mn720 Mn 0.24112 0.65574 0.99561 0.0
Mn721 Mn 0.21772 0.59729 0.96432 0.0
C722 C 0.19458 0.64747 0.99169 0.0
C723 C 0.25327 0.67469 0.03762 0.0
C724 C 0.24168 0.64787 0.93451 0.0
O725 O 0.27469 0.6313 0.99472 0.0
O726 O 0.25627 0.59149 0.97685 0.0
C727 C 0.21647 0.55761 0.0103 0.0
N728 N 0.20306 0.57118 0.99002 0.0
C729 C 0.16046 0.54655 -0.00021 0.0
C730 C 0.17385 0.5322 0.02069 0.0
C731 C 0.20194 0.53786 0.02604 0.0
C732 C 0.17599 0.56604 0.98483 0.0
H733 H 0.2381 0.56179 0.01436 0.0
C734 C 0.27633 0.60573 0.98735 0.0
O735 O 0.26156 0.68697 0.01546 0.0
O736 O 0.23926 0.65169 0.0349 0.0
N737 N 0.1804 0.60044 0.95172 0.0
C738 C 0.17012 0.61754 0.9322 0.0
C739 C 0.14182 0.61605 0.92579 0.0
C740 C 0.12448 0.59681 0.93931 0.0
C741 C 0.13563 0.57906 0.95895 0.0
C742 C 0.16393 0.58169 0.96469 0.0
H743 H 0.18336 0.63242 0.92181 0.0
O744 O 0.20373 0.67281 0.99589 0.0
O745 O 0.21302 0.62815 0.98947 0.0
O746 O 0.24596 0.66421 0.95486 0.0
O747 O 0.23178 0.62297 0.9366 0.0
C748 C 0.1197 0.55921 0.97343 0.0
C749 C 0.13216 0.54278 0.99366 0.0
H750 H 0.16268 0.51703 0.03295 0.0
H751 H 0.21238 0.52697 0.04223 0.0
H752 H 0.13337 0.62974 0.91052 0.0
H753 H 0.10262 0.59588 0.93445 0.0
H754 H 0.09775 0.55672 0.96951 0.0
H755 H 0.1196 0.52787 0.00491 0.0
Mn756 Mn 0.13038 0.499 0.75414 0.0
Mn757 Mn 0.18525 0.52959 0.78548 0.0
C758 C 0.14498 0.54296 0.74163 0.0
C759 C 0.1097 0.47402 0.71909 0.0
C760 C 0.12905 0.52211 0.81156 0.0
O761 O 0.14963 0.46617 0.77143 0.0
O762 O 0.18742 0.48811 0.78932 0.0
C763 C 0.23086 0.5096 0.75086 0.0
N764 N 0.21667 0.53116 0.76213 0.0
C765 C 0.24802 0.56534 0.74294 0.0
C766 C 0.26308 0.54348 0.73125 0.0
C767 C 0.2544 0.51551 0.73516 0.0
C768 C 0.2248 0.55817 0.75846 0.0
H769 H 0.22424 0.48809 0.75383 0.0
C770 C 0.17265 0.46606 0.78429 0.0
O771 O 0.09774 0.47632 0.74248 0.0
O772 O 0.13493 0.48352 0.71714 0.0
N773 N 0.18547 0.56969 0.78286 0.0
C774 C 0.16732 0.58832 0.79355 0.0
C775 C 0.17225 0.61725 0.79034 0.0
C776 C 0.19584 0.62673 0.77636 0.0
C777 C 0.21424 0.60716 0.7656 0.0
C778 C 0.20828 0.57859 0.76946 0.0
H779 H 0.14917 0.58114 0.80432 0.0
O780 O 0.11947 0.53517 0.73766 0.0
O781 O 0.1609 0.52525 0.75381 0.0
O782 O 0.11694 0.51128 0.79112 0.0
O783 O 0.15444 0.5297 0.81162 0.0
C784 C 0.23791 0.61487 0.75064 0.0
C785 C 0.25478 0.59397 0.7393 0.0
H786 H 0.28116 0.54794 0.71901 0.0
H787 H 0.26583 0.49854 0.72609 0.0
H788 H 0.15788 0.63221 0.79859 0.0
H789 H 0.19947 0.64906 0.77377 0.0
H790 H 0.24303 0.6368 0.7473 0.0
H791 H 0.27264 0.60015 0.72742 0.0
Mn792 Mn 0.23954 0.38739 0.50812 0.0
Mn793 Mn 0.26372 0.4417 0.47143 0.0
C794 C 0.28527 0.39978 0.51089 0.0
C795 C 0.22186 0.36918 0.54772 0.0
C796 C 0.2468 0.38518 0.44736 0.0
O797 O 0.20505 0.40822 0.49785 0.0
O798 O 0.22344 0.44699 0.47792 0.0
C799 C 0.25742 0.48907 0.50976 0.0
N800 N 0.27389 0.47294 0.49391 0.0
C801 C 0.31427 0.50025 0.50632 0.0
C802 C 0.2977 0.51728 0.52263 0.0
C803 C 0.26916 0.51164 0.52438 0.0
C804 C 0.30136 0.4783 0.49193 0.0
H805 H 0.23552 0.48464 0.51132 0.0
C806 C 0.20289 0.43227 0.48673 0.0
O807 O 0.21884 0.35578 0.52492 0.0
O808 O 0.23311 0.39403 0.54712 0.0
N809 N 0.30251 0.43847 0.46455 0.0
C810 C 0.31588 0.41858 0.44986 0.0
C811 C 0.34478 0.42027 0.44727 0.0
C812 C 0.35961 0.44234 0.45981 0.0
C813 C 0.34539 0.46254 0.47485 0.0
C814 C 0.31655 0.45992 0.47652 0.0
H815 H 0.30461 0.40147 0.44033 0.0
O816 O 0.2772 0.37444 0.5167 0.0
O817 O 0.26626 0.41692 0.50285 0.0
O818 O 0.24246 0.37272 0.46967 0.0
O819 O 0.25427 0.41094 0.44586 0.0
C820 C 0.35876 0.48481 0.48874 0.0
C821 C 0.34321 0.50368 0.50443 0.0
H822 H 0.30672 0.53452 0.53418 0.0
H823 H 0.25627 0.52457 0.53707 0.0
H824 H 0.35562 0.40452 0.43573 0.0
H825 H 0.38193 0.44343 0.45796 0.0
H826 H 0.38103 0.48736 0.48784 0.0
H827 H 0.35377 0.52045 0.51537 0.0
Mn828 Mn 0.40981 0.5052 0.27157 0.0
Mn829 Mn 0.35735 0.48173 0.31016 0.0
C830 C 0.39097 0.46114 0.26435 0.0
C831 C 0.42509 0.52404 0.23104 0.0
C832 C 0.41671 0.48756 0.33031 0.0
O833 O 0.39452 0.54139 0.2872 0.0
O834 O 0.35749 0.52363 0.30978 0.0
C835 C 0.30911 0.50045 0.27818 0.0
N836 N 0.32356 0.4794 0.28995 0.0
C837 C 0.29006 0.44478 0.2749 0.0
C838 C 0.2746 0.46617 0.26302 0.0
C839 C 0.28421 0.4941 0.26461 0.0
C840 C 0.31445 0.45243 0.2886 0.0
H841 H 0.31662 0.52187 0.27894 0.0
C842 C 0.37237 0.54432 0.30107 0.0
O843 O 0.4414 0.52349 0.25203 0.0
O844 O 0.39955 0.51666 0.23467 0.0
N845 N 0.35542 0.44158 0.31071 0.0
C846 C 0.37496 0.42326 0.31916 0.0
C847 C 0.37001 0.39432 0.31645 0.0
C848 C 0.34492 0.38442 0.30535 0.0
C849 C 0.32527 0.40367 0.2964 0.0
C850 C 0.33145 0.43235 0.29942 0.0
H851 H 0.39457 0.43067 0.32705 0.0
O852 O 0.4163 0.46645 0.25741 0.0
O853 O 0.3782 0.48124 0.27661 0.0
O854 O 0.42747 0.4958 0.30812 0.0
O855 O 0.39091 0.48235 0.33312 0.0
C856 C 0.30049 0.39554 0.28333 0.0
C857 C 0.2828 0.41609 0.27272 0.0
H858 H 0.25561 0.46132 0.25217 0.0
H859 H 0.27258 0.51069 0.25519 0.0
H860 H 0.38588 0.37984 0.32228 0.0
H861 H 0.34135 0.36204 0.30294 0.0
H862 H 0.29522 0.37352 0.28064 0.0
H863 H 0.26411 0.40955 0.26217 0.0
O864 O 0.99061 0.0751 0.0241 0.0
Zn865 Zn 0.00788 0.04709 -0.001 0.0
O866 O 0.0077 0.01143 0.01744 0.0
Zn867 Zn 0.0441 -0.00475 0.01962 0.0
Zn868 Zn 0.98868 0.01128 0.05161 0.0
Zn869 Zn 0.98612 0.9887 0.9949 0.0
O870 O 0.05033 0.96599 0.9898 0.0
O871 O 0.00976 0.96979 0.96912 0.0
O872 O 0.0471 0.06099 0.9952 0.0
O873 O 0.07115 0.02661 0.01399 0.0
O874 O 0.05111 0.98072 0.05746 0.0
O875 O 0.0143 -0.00366 0.07964 0.0
O876 O 0.95524 0.98497 0.05188 0.0
O877 O 0.98934 0.04385 0.9615 0.0
O878 O 0.96556 0.96022 0.01537 0.0
O879 O 0.95995 0.01001 0.97256 0.0
C880 C 0.98186 0.07416 0.04848 0.0
C881 C 0.03431 0.96097 0.96973 0.0
C882 C 0.03755 0.98413 0.07935 0.0
C883 C 0.06981 0.05104 0.00372 0.0
C884 C 0.95183 0.96325 0.037 0.0
C885 C 0.96868 0.02797 0.95559 0.0
O886 O 0.97974 0.05114 0.06148 0.0
O887 O 0.23674 0.69995 0.21279 0.0
Zn888 Zn 0.2374 0.70676 0.25335 0.0
O889 O 0.25256 0.74373 0.2596 0.0
Zn890 Zn 0.2876 0.74361 0.27879 0.0
Zn891 Zn 0.25616 0.76517 0.22706 0.0
Zn892 Zn 0.22609 0.76376 0.2795 0.0
O893 O 0.28864 0.77398 0.3078 0.0
O894 O 0.2455 0.78941 0.30485 0.0
O895 O 0.26233 0.67903 0.27187 0.0
O896 O 0.29483 0.70478 0.29302 0.0
O897 O 0.31811 0.75156 0.25232 0.0
O898 O 0.2956 0.7704 0.21779 0.0
O899 O 0.23785 0.80257 0.23037 0.0
O900 O 0.19905 0.70211 0.27028 0.0
O901 O 0.20317 0.78878 0.25637 0.0
O902 O 0.20103 0.73806 0.29906 0.0
C903 C 0.23802 0.71666 0.1926 0.0
C904 C 0.26987 0.79124 0.31439 0.0
C905 C 0.3179 0.76264 0.22891 0.0
C906 C 0.2835 0.68111 0.28732 0.0
C907 C 0.21443 0.80698 0.2411 0.0
C908 C 0.18982 0.71527 0.29085 0.0
O909 O 0.24207 0.74294 0.19571 0.0
O910 O 0.53968 0.9418 0.52746 0.0
Zn911 Zn 0.527 0.97565 0.50818 0.0
O912 O 0.53078 0.00654 0.53311 0.0
Zn913 Zn 0.496 0.02438 0.53943 0.0
Zn914 Zn 0.55021 -0.00243 0.56665 0.0
Zn915 Zn 0.55244 0.03268 0.51453 0.0
O916 O 0.4926 0.06174 0.52076 0.0
O917 O 0.53004 0.06046 0.49504 0.0
O918 O 0.48701 0.96768 0.50008 0.0
O919 O 0.46594 -0.0005 0.52537 0.0
O920 O 0.48969 0.02832 0.57889 0.0
O921 O 0.52569 0.00772 0.59821 0.0
O922 O 0.58604 0.02114 0.57088 0.0
O923 O 0.54869 0.98141 0.47347 0.0
O924 O 0.57539 0.05314 0.54022 0.0
O925 O 0.57703 0.01535 0.48766 0.0
C926 C 0.5494 0.93598 0.55074 0.0
C927 C 0.50728 0.07148 0.50153 0.0
C928 C 0.50256 0.02014 0.59985 0.0
C929 C 0.46508 0.97828 0.50966 0.0
C930 C 0.58982 0.04528 0.56018 0.0
C931 C 0.57016 -0.00315 0.47029 0.0
O932 O 0.55528 0.9552 0.56807 0.0
O933 O 0.23322 0.22869 0.80886 0.0
Zn934 Zn 0.24352 0.25761 0.78199 0.0
O935 O 0.23288 0.24474 0.74625 0.0
Zn936 Zn 0.26569 0.24152 0.72297 0.0
Zn937 Zn 0.21257 0.20892 0.74831 0.0
Zn938 Zn 0.20857 0.27207 0.73189 0.0
O939 O 0.26056 0.2632 0.68787 0.0
O940 O 0.2233 0.28796 0.69795 0.0
O941 O 0.28417 0.25942 0.78432 0.0
O942 O 0.30088 0.25337 0.74284 0.0
O943 O 0.27252 0.20061 0.71535 0.0
O944 O 0.23431 0.17941 0.73022 0.0
O945 O 0.17462 0.21009 0.73128 0.0
O946 O 0.22731 0.29461 0.79352 0.0
O947 O 0.17243 0.25557 0.72235 0.0
O948 O 0.2007 0.30239 0.75774 0.0
C949 C 0.22066 0.20507 0.80857 0.0
C950 C 0.24283 0.28182 0.68192 0.0
C951 C 0.2581 0.17846 0.71939 0.0
C952 C 0.30442 0.25772 0.76809 0.0
C953 C 0.16157 0.2312 0.7225 0.0
C954 C 0.20935 0.30902 0.78118 0.0
O955 O 0.21022 0.19503 0.78684 0.0
O956 O 0.01019 0.01506 0.4335 0.0
Zn957 Zn 0.98447 0.0009 0.46232 0.0
O958 O 0.00306 0.00394 0.49682 0.0
Zn959 Zn 0.01039 0.96874 0.51474 0.0
Zn960 Zn 0.03653 0.02643 0.49409 0.0
Zn961 Zn 0.97832 0.02106 0.52062 0.0
O962 O -0.00249 0.97014 0.55441 0.0
O963 O 0.96034 -0.00516 0.54616 0.0
O964 O 0.97767 0.96028 0.45496 0.0
O965 O 0.99262 0.93835 0.49204 0.0
O966 O 0.05117 0.96068 0.51343 0.0
O967 O 0.06851 0.00137 0.49908 0.0
O968 O 0.03856 0.05717 0.52259 0.0
O969 O 0.94877 0.02291 0.46048 0.0
O970 O -0.0011 0.04744 0.54327 0.0
O971 O 0.94955 0.04177 0.50158 0.0
C972 C 0.0316 0.03096 0.43387 0.0
C973 C 0.97506 0.98106 0.56255 0.0
C974 C 0.0716 0.97598 0.50611 0.0
C975 C 0.98193 0.93792 0.46833 0.0
C976 C 0.02178 0.06069 0.54213 0.0
C977 C 0.93901 0.03963 0.47812 0.0
O978 O 0.04219 0.03991 0.45602 0.0
O979 O 0.3017 0.74535 0.722 0.0
Zn980 Zn 0.27171 0.7599 0.7458 0.0
O981 O 0.23622 0.75408 0.72791 0.0
Zn982 Zn 0.21614 0.78917 0.72385 0.0
Zn983 Zn 0.24019 0.7352 0.69278 0.0
Zn984 Zn 0.21554 0.73052 0.75134 0.0
O985 O 0.17984 0.78926 0.74447 0.0
O986 O 0.1847 0.75022 0.76814 0.0
O987 O 0.27887 0.80071 0.75022 0.0
O988 O 0.24029 0.82117 0.73635 0.0
O989 O 0.20912 0.79721 0.68472 0.0
O990 O 0.22706 0.7606 0.66337 0.0
O991 O 0.21711 0.6992 0.68998 0.0
O992 O 0.27462 0.74211 0.78293 0.0
O993 O 0.19791 0.70026 0.73078 0.0
O994 O 0.23735 0.71459 0.78129 0.0
C995 C 0.30251 0.73397 0.69863 0.0
C996 C 0.1715 0.77227 0.76267 0.0
C997 C 0.21511 0.78423 0.66299 0.0
C998 C 0.2648 0.82255 0.74578 0.0
C999 C 0.19996 0.6897 0.70731 0.0
C1000 C 0.25948 0.72276 0.79296 0.0
O1001 O 0.28056 0.72849 0.68512 0.0
O1002 O 0.55762 0.02281 0.05695 0.0
Zn1003 Zn 0.5504 0.01851 0.01726 0.0
O1004 O 0.51555 -0.00053 0.01203 0.0
Zn1005 Zn 0.51789 0.96591 0.99009 0.0
Zn1006 Zn 0.4952 -0.00556 0.04499 0.0
Zn1007 Zn 0.49488 0.02452 0.99199 0.0
O1008 O 0.49531 0.96934 0.95534 0.0
O1009 O 0.46878 0.00458 0.96799 0.0
O1010 O 0.57924 0.99302 0.00393 0.0
O1011 O 0.55818 0.9567 0.9837 0.0
O1012 O 0.50129 0.93416 0.0112 0.0
O1013 O 0.48454 0.95401 0.04849 0.0
O1014 O 0.46065 0.01811 0.04506 0.0
O1015 O 0.55443 0.05492 0.99599 0.0
O1016 O 0.47338 0.05019 0.01516 0.0
O1017 O 0.51903 0.04674 0.9685 0.0
C1018 C 0.54451 0.01449 0.07788 0.0
C1019 C 0.47402 0.9845 0.95195 0.0
C1020 C 0.48866 0.93248 0.03376 0.0
C1021 C 0.58015 0.96974 0.99127 0.0
C1022 C 0.45699 0.04159 0.03342 0.0
C1023 C 0.5412 0.05999 0.97423 0.0
O1024 O 0.52039 0.00343 0.0762 0.0
O1025 O 0.19957 0.28855 0.23381 0.0
Zn1026 Zn 0.22491 0.27289 0.26165 0.0
O1027 O 0.2614 0.27214 0.24575 0.0
Zn1028 Zn 0.27685 0.2353 0.24641 0.0
Zn1029 Zn 0.26367 0.28881 0.20981 0.0
Zn1030 Zn 0.28362 0.29362 0.2693 0.0
O1031 O 0.30732 0.23088 0.2738 0.0
O1032 O 0.30258 0.27054 0.29671 0.0
O1033 O 0.21072 0.23345 0.26878 0.0
O1034 O 0.24678 0.20865 0.25524 0.0
O1035 O 0.2897 0.22394 0.20988 0.0
O1036 O 0.27704 0.25927 0.18355 0.0
O1037 O 0.29229 0.32121 0.20928 0.0
O1038 O 0.22367 0.29744 0.29551 0.0
O1039 O 0.3126 0.31277 0.2488 0.0
O1040 O 0.26221 0.32222 0.28881 0.0
C1041 C 0.20156 0.29783 0.20971 0.0
C1042 C 0.31303 0.2464 0.29414 0.0
C1043 C 0.28731 0.23496 0.1866 0.0
C1044 C 0.22206 0.21003 0.26375 0.0
C1045 C 0.31238 0.32466 0.22589 0.0
C1046 C 0.23938 0.31846 0.30094 0.0
O1047 O 0.22487 0.29969 0.19762 0.0
O1048 O 0.47838 0.48439 0.96013 0.0
Zn1049 Zn 0.45251 0.47028 0.98909 0.0
O1050 O 0.4696 0.47416 0.02378 0.0
Zn1051 Zn 0.47901 0.43859 0.04009 0.0
Zn1052 Zn 0.50183 0.49732 0.02046 0.0
Zn1053 Zn 0.44439 0.49067 0.04843 0.0
O1054 O 0.47218 0.44285 0.08067 0.0
O1055 O 0.43165 0.462 0.07461 0.0
O1056 O 0.44375 0.43001 0.98339 0.0
O1057 O 0.45753 0.40768 0.02065 0.0
O1058 O 0.51938 0.43088 0.03365 0.0
O1059 O 0.53475 0.47327 0.0218 0.0
O1060 O 0.50373 0.52667 0.04937 0.0
O1061 O 0.41759 0.49213 0.98671 0.0
O1062 O 0.46316 0.52089 0.06972 0.0
O1063 O 0.41281 0.50733 0.02903 0.0
C1064 C 0.49681 0.50378 0.96126 0.0
C1065 C 0.45025 0.45326 0.09054 0.0
C1066 C 0.53883 0.44739 0.02619 0.0
C1067 C 0.44591 0.40771 -0.00267 0.0
C1068 C 0.4866 0.53312 0.06782 0.0
C1069 C 0.40471 0.5061 0.00454 0.0
O1070 O 0.5046 0.51438 0.98378 0.0
O1071 O 0.79873 0.24613 0.2384 0.0
Zn1072 Zn 0.77212 0.25944 0.26693 0.0
O1073 O 0.73529 0.26307 0.25124 0.0
Zn1074 Zn 0.72205 0.30162 0.25242 0.0
Zn1075 Zn 0.73438 0.24834 0.21435 0.0
Zn1076 Zn 0.71088 0.241 0.27241 0.0
O1077 O 0.68911 0.30705 0.27742 0.0
O1078 O 0.68548 0.2639 0.2935 0.0
O1079 O 0.78735 0.29731 0.27618 0.0
O1080 O 0.75383 0.32595 0.26333 0.0
O1081 O 0.7111 0.3148 0.21538 0.0
O1082 O 0.71926 0.27738 0.18978 0.0
O1083 O 0.70873 0.21476 0.20982 0.0
O1084 O 0.77254 0.23484 0.30052 0.0
O1085 O 0.68688 0.21806 0.24911 0.0
O1086 O 0.73006 0.21655 0.29856 0.0
C1087 C 0.79649 0.24096 0.21312 0.0
C1088 C 0.6777 0.28916 0.29308 0.0
C1089 C 0.71099 0.30244 0.1925 0.0
C1090 C 0.7782 0.3218 0.27213 0.0
C1091 C 0.68865 0.20826 0.2253 0.0
C1092 C 0.754 0.21785 0.30913 0.0
O1093 O 0.77301 0.24079 0.2013 0.0
O1094 O 0.02315 0.50295 0.57569 0.0
Zn1095 Zn 0.01553 0.51001 0.53665 0.0
O1096 O 0.9796 0.49401 0.52744 0.0
Zn1097 Zn 0.98336 0.46024 0.50534 0.0
Zn1098 Zn 0.95816 0.48655 0.56022 0.0
Zn1099 Zn 0.96147 0.52125 0.50619 0.0
O1100 O 0.96194 0.4619 0.47036 0.0
O1101 O 0.94744 0.50588 0.47175 0.0
O1102 O 0.04458 0.48984 0.51616 0.0
O1103 O 0.02315 0.45356 0.49639 0.0
O1104 O 0.96899 0.42734 0.52566 0.0
O1105 O 0.94764 0.44569 0.56126 0.0
O1106 O 0.92302 0.50977 0.56152 0.0
O1107 O 0.02021 0.55124 0.527 0.0
O1108 O 0.92916 0.53632 0.52509 0.0
O1109 O 0.98602 0.55257 0.497 0.0
C1110 C 0.00835 0.49599 0.59593 0.0
C1111 C 0.94892 0.48224 0.46009 0.0
C1112 C 0.95449 0.42461 0.54696 0.0
C1113 C 0.04504 0.46774 0.50163 0.0
C1114 C 0.91533 0.5295 0.54591 0.0
C1115 C 0.00755 0.56324 0.50773 0.0
O1116 O 0.98238 0.49144 0.59362 0.0
O1117 O 0.72461 0.74889 0.32352 0.0
Zn1118 Zn 0.74331 0.77445 0.29744 0.0
O1119 O 0.74028 0.76001 0.26081 0.0
Zn1120 Zn 0.77732 0.75549 0.24513 0.0
Zn1121 Zn 0.71931 0.72469 0.26084 0.0
Zn1122 Zn 0.71999 0.78639 0.23982 0.0
O1123 O 0.7814 0.77654 0.20937 0.0
O1124 O 0.73972 0.79533 0.2059 0.0
O1125 O 0.78259 0.77522 0.30897 0.0
O1126 O 0.80741 0.76518 0.27254 0.0
O1127 O 0.78325 0.71465 0.23743 0.0
O1128 O 0.74249 0.69464 0.24614 0.0
O1129 O 0.6845 0.72595 0.2384 0.0
O1130 O 0.72771 0.81279 0.30201 0.0
O1131 O 0.68403 0.77106 0.2277 0.0
O1132 O 0.71208 0.82098 0.26043 0.0
C1133 C 0.71352 0.72462 0.32161 0.0
C1134 C 0.76346 0.79043 0.19622 0.0
C1135 C 0.76747 0.69307 0.23848 0.0
C1136 C 0.80579 0.77129 0.29766 0.0
C1137 C 0.67297 0.74678 0.22725 0.0
C1138 C 0.71589 0.82839 0.28488 0.0
O1139 O 0.71046 0.71232 0.29885 0.0
O1140 O 0.73474 0.20349 0.73331 0.0
Zn1141 Zn 0.73448 0.20964 0.7733 0.0
O1142 O 0.74927 0.24649 0.78026 0.0
Zn1143 Zn 0.78775 0.2463 0.79036 0.0
Zn1144 Zn 0.74295 0.26979 0.74878 0.0
Zn1145 Zn 0.73064 0.26039 0.81092 0.0
O1146 O 0.79498 0.27059 0.82343 0.0
O1147 O 0.75447 0.26424 0.84337 0.0
O1148 O 0.76022 0.1817 0.7894 0.0
O1149 O 0.79931 0.20625 0.79652 0.0
O1150 O 0.80973 0.26212 0.76012 0.0
O1151 O 0.77899 0.2846 0.7349 0.0
O1152 O 0.71803 0.30224 0.75763 0.0
O1153 O 0.69537 0.20481 0.78778 0.0
O1154 O 0.71648 0.29826 0.80251 0.0
O1155 O 0.6978 0.23759 0.81971 0.0
C1156 C 0.73233 0.22002 0.71327 0.0
C1157 C 0.77937 0.27302 0.84399 0.0
C1158 C 0.80373 0.27788 0.7403 0.0
C1159 C 0.78566 0.18311 0.79624 0.0
C1160 C 0.71117 0.31158 0.78089 0.0
C1161 C 0.685 0.21746 0.80806 0.0
O1162 O 0.73094 0.24651 0.71659 0.0
O1163 O 0.67785 0.78117 0.74195 0.0
Zn1164 Zn 0.70348 0.76668 0.77042 0.0
O1165 O 0.73949 0.76633 0.75452 0.0
Zn1166 Zn 0.75791 0.731 0.75604 0.0
Zn1167 Zn 0.7428 0.78441 0.7201 0.0
Zn1168 Zn 0.75971 0.78814 0.77868 0.0
O1169 O 0.79221 0.73461 0.78011 0.0
O1170 O 0.7737 0.76473 0.80856 0.0
O1171 O 0.69249 0.72696 0.77887 0.0
O1172 O 0.73065 0.70268 0.77045 0.0
O1173 O 0.76732 0.7186 0.71816 0.0
O1174 O 0.75469 0.75531 0.69356 0.0
O1175 O 0.77302 0.81492 0.7204 0.0
O1176 O 0.70267 0.79023 0.80513 0.0
O1177 O 0.79172 0.80496 0.76027 0.0
O1178 O 0.73735 0.81832 0.79414 0.0
C1179 C 0.68078 0.792 0.71848 0.0
C1180 C 0.79249 0.74746 0.80283 0.0
C1181 C 0.76406 0.73053 0.69532 0.0
C1182 C 0.70546 0.70387 0.77799 0.0
C1183 C 0.79292 0.81697 0.73742 0.0
C1184 C 0.7172 0.81232 0.80953 0.0
O1185 O 0.70464 0.79611 0.708 0.0
O1186 O 0.48364 0.52773 0.53964 0.0
Zn1187 Zn 0.50474 0.49647 0.52287 0.0
O1188 O 0.5035 0.46486 0.54701 0.0
Zn1189 Zn 0.54058 0.4565 0.55723 0.0
Zn1190 Zn 0.48004 0.47072 0.57786 0.0
Zn1191 Zn 0.49173 0.43164 0.52892 0.0
O1192 O 0.5559 0.42821 0.53091 0.0
O1193 O 0.51893 0.40124 0.53408 0.0
O1194 O 0.54304 0.5137 0.52124 0.0
O1195 O 0.56367 0.49072 0.55443 0.0
O1196 O 0.54163 0.44488 0.59604 0.0
O1197 O 0.50046 0.45805 0.61138 0.0
O1198 O 0.44329 0.44986 0.57312 0.0
O1199 O 0.49058 0.48586 0.48553 0.0
O1200 O 0.45624 0.41823 0.5428 0.0
O1201 O 0.48442 0.43963 0.48942 0.0
C1202 C 0.47529 0.53193 0.56377 0.0
C1203 C 0.54366 0.40493 0.52637 0.0
C1204 C 0.52457 0.44823 0.61541 0.0
C1205 C 0.56305 0.51096 0.5378 0.0
C1206 C 0.43832 0.428 0.5588 0.0
C1207 C 0.48381 0.46204 0.47537 0.0
O1208 O 0.47375 0.51223 0.58112 0.0
O1209 O 0.0058 0.46379 0.00467 0.0
Zn1210 Zn 0.99197 0.49639 0.98379 0.0
O1211 O -0.00361 0.52978 0.006 0.0
Zn1212 Zn 0.96133 0.54611 0.01596 0.0
Zn1213 Zn 0.01908 0.52242 0.03791 0.0
Zn1214 Zn 0.01474 0.55666 0.98453 0.0
O1215 O 0.95323 0.58276 -0.0031 0.0
O1216 O 0.98963 0.58498 0.96987 0.0
O1217 O 0.95167 0.48744 0.97869 0.0
O1218 O 0.93183 0.51867 0.0058 0.0
O1219 O 0.95931 0.55177 0.05613 0.0
O1220 O -0.001 0.53456 0.07095 0.0
O1221 O 0.05441 0.54576 0.03797 0.0
O1222 O 0.01292 0.4984 0.94812 0.0
O1223 O 0.04254 0.57638 0.00642 0.0
O1224 O 0.03391 0.5397 0.95344 0.0
C1225 C 0.01766 0.45998 0.02737 0.0
C1226 C 0.96643 0.59417 0.97749 0.0
C1227 C 0.97583 0.54594 0.07537 0.0
C1228 C 0.93041 0.49713 0.99049 0.0
C1229 C 0.05819 0.56901 0.0257 0.0
C1230 C 0.03022 0.51705 0.94022 0.0
O1231 O 0.02481 0.48059 0.04255 0.0
H1232 H 0.97259 0.17549 0.1307 0.0
H1233 H 0.02947 0.21215 0.0734 0.0
H1234 H 0.02792 0.16922 0.04613 0.0
H1235 H 0.00863 0.12262 0.03746 0.0
H1236 H 0.95203 0.08472 0.0945 0.0
H1237 H 0.95423 0.12729 0.12258 0.0
C1238 C 0.98471 0.17379 0.11232 0.0
C1239 C 0.00052 0.19687 0.10344 0.0
C1240 C 0.9832 0.14925 0.09648 0.0
C1241 C 0.01667 0.19464 0.08005 0.0
C1242 C 0.01576 0.1702 0.06451 0.0
C1243 C -0.00358 0.12375 0.05583 0.0
C1244 C 0.97979 0.10077 0.06366 0.0
C1245 C -0.00146 0.14771 0.07217 0.0
C1246 C 0.96469 0.10233 0.08789 0.0
C1247 C 0.96619 0.1265 0.10407 0.0
H1248 H 0.06566 0.7058 0.3228 0.0
H1249 H 0.09971 0.73848 0.39772 0.0
H1250 H 0.14637 0.73107 0.38107 0.0
H1251 H 0.17713 0.72177 0.34321 0.0
H1252 H 0.14399 0.69083 0.26747 0.0
H1253 H 0.09729 0.69014 0.28675 0.0
C1254 C 0.0833 0.71097 0.33557 0.0
C1255 C 0.07927 0.72325 0.36121 0.0
C1256 C 0.11017 0.70688 0.32577 0.0
C1257 C 0.10226 0.7294 0.37775 0.0
C1258 C 0.12897 0.72514 0.36828 0.0
C1259 C 0.15972 0.71424 0.33114 0.0
C1260 C 0.16375 0.70677 0.30393 0.0
C1261 C 0.13311 0.7148 0.34204 0.0
C1262 C 0.14128 0.69665 0.28852 0.0
C1263 C 0.11459 0.69661 0.29943 0.0
H1264 H 0.52465 0.82123 0.60849 0.0
H1265 H 0.49296 0.8016 0.52852 0.0
H1266 H 0.51054 0.8464 0.51188 0.0
H1267 H 0.53248 0.89165 0.52027 0.0
H1268 H 0.56184 0.91337 0.6005 0.0
H1269 H 0.54858 0.8665 0.61648 0.0
C1270 C 0.52141 0.82678 0.58745 0.0
C1271 C 0.50712 0.80813 0.5699 0.0
C1272 C 0.53159 0.85265 0.57793 0.0
C1273 C 0.50356 0.81558 0.5426 0.0
C1274 C 0.51378 0.84114 0.53299 0.0
C1275 C 0.53643 0.88617 0.54122 0.0
C1276 C 0.54794 0.9062 0.55921 0.0
C1277 C 0.52762 0.85985 0.5505 0.0
C1278 C 0.55303 0.89842 0.58619 0.0
C1279 C 0.54514 0.87174 0.59541 0.0
H1280 H 0.42476 0.25524 0.81708 0.0
H1281 H 0.38292 0.19728 0.87094 0.0
H1282 H 0.34077 0.2011 0.84446 0.0
H1283 H 0.31471 0.22377 0.80897 0.0
H1284 H 0.35495 0.28117 0.75398 0.0
H1285 H 0.39916 0.27464 0.77799 0.0
C1286 C 0.40657 0.24307 0.82275 0.0
C1287 C 0.40694 0.22629 0.84624 0.0
C1288 C 0.38214 0.24557 0.80754 0.0
C1289 C 0.3832 0.21058 0.85319 0.0
C1290 C 0.35902 0.21279 0.83811 0.0
C1291 C 0.3332 0.2349 0.80224 0.0
C1292 C 0.3317 0.25348 0.78034 0.0
C1293 C 0.3581 0.23081 0.81582 0.0
C1294 C 0.35576 0.26708 0.77112 0.0
C1295 C 0.38089 0.26331 0.78482 0.0
H1296 H 0.97473 0.83608 0.38674 0.0
H1297 H 0.03135 0.80213 0.44517 0.0
H1298 H 0.02943 0.84526 0.47196 0.0
H1299 H 0.00945 0.89089 0.48014 0.0
H1300 H 0.95186 0.92543 0.42269 0.0
H1301 H 0.95541 0.88323 0.39453 0.0
C1302 C 0.98681 0.8385 0.40518 0.0
C1303 C 0.0027 0.81622 0.41452 0.0
C1304 C 0.98485 0.86297 0.42088 0.0
C1305 C 0.01865 0.81919 0.4381 0.0
C1306 C 0.01748 0.84368 0.45339 0.0
C1307 C -0.00269 0.88909 0.46168 0.0
C1308 C 0.98011 0.91102 0.4537 0.0
C1309 C 1e-05 0.86531 0.44539 0.0
C1310 C 0.96499 0.90858 0.42941 0.0
C1311 C 0.9673 0.88469 0.41314 0.0
H1312 H 0.42705 0.73232 0.66409 0.0
H1313 H 0.39041 0.73708 0.58436 0.0
H1314 H 0.34423 0.73452 0.6044 0.0
H1315 H 0.3144 0.73223 0.64482 0.0
H1316 H 0.35191 0.7282 0.72415 0.0
H1317 H 0.39778 0.72862 0.7038 0.0
C1318 C 0.40905 0.73296 0.65096 0.0
C1319 C 0.41229 0.73519 0.62272 0.0
C1320 C 0.38272 0.73125 0.66253 0.0
C1321 C 0.38858 0.73563 0.60617 0.0
C1322 C 0.36217 0.73401 0.6176 0.0
C1323 C 0.33262 0.73095 0.65759 0.0
C1324 C 0.32979 0.73014 0.68595 0.0
C1325 C 0.359 0.73185 0.64578 0.0
C1326 C 0.35356 0.72888 0.70228 0.0
C1327 C 0.37979 0.72925 0.69068 0.0
H1328 H 0.5239 0.1803 0.93824 0.0
H1329 H 0.48411 0.13606 0.87225 0.0
H1330 H 0.50723 0.09263 0.88549 0.0
H1331 H 0.52997 0.06632 0.92143 0.0
H1332 H 0.56446 0.10991 0.99072 0.0
H1333 H 0.55364 0.15499 0.96999 0.0
C1334 C 0.5205 0.16109 0.92678 0.0
C1335 C 0.50168 0.16061 0.90512 0.0
C1336 C 0.5332 0.13639 0.93498 0.0
C1337 C 0.49815 0.13634 0.8894 0.0
C1338 C 0.51137 0.1117 0.89694 0.0
C1339 C 0.53598 0.08578 0.93152 0.0
C1340 C 0.54713 0.085 0.95785 0.0
C1341 C 0.52776 0.11127 0.92049 0.0
C1342 C 0.5556 0.11008 0.97054 0.0
C1343 C 0.54894 0.1358 0.95891 0.0
H1344 H 0.09806 0.2857 0.13333 0.0
H1345 H 0.05669 0.29415 0.21028 0.0
H1346 H 0.10069 0.30466 0.23243 0.0
H1347 H 0.15102 0.30685 0.23091 0.0
H1348 H 0.19331 0.29735 0.15466 0.0
H1349 H 0.1488 0.2928 0.13116 0.0
C1350 C 0.09869 0.29004 0.15491 0.0
C1351 C 0.07417 0.2887 0.1702 0.0
C1352 C 0.12419 0.29606 0.16762 0.0
C1353 C 0.07526 0.29476 0.19806 0.0
C1354 C 0.10042 0.30083 0.21078 0.0
C1355 C 0.15055 0.30427 0.20906 0.0
C1356 C 0.17546 0.30209 0.19462 0.0
C1357 C 0.12503 0.30091 0.19588 0.0
C1358 C 0.17445 0.29915 0.16628 0.0
C1359 C 0.149 0.29622 0.15288 0.0
H1360 H 0.07245 0.97973 0.20117 0.0
H1361 H 0.15316 0.99006 0.16514 0.0
H1362 H 0.13326 0.98299 0.12013 0.0
H1363 H 0.09224 0.98036 0.09086 0.0
H1364 H 0.01125 0.97316 0.12688 0.0
H1365 H 0.03197 0.97193 0.17198 0.0
C1366 C 0.08573 0.97996 0.1835 0.0
C1367 C 0.11412 0.98583 0.18643 0.0
C1368 C 0.07407 0.97655 0.15764 0.0
C1369 C 0.13114 0.98593 0.16338 0.0
C1370 C 0.11979 0.98189 0.13762 0.0
C1371 C 0.07919 0.97779 0.10854 0.0
C1372 C 0.05029 0.97715 0.10561 0.0
C1373 C 0.09117 0.97812 0.13446 0.0
C1374 C 0.03359 0.97398 0.12869 0.0
C1375 C 0.04539 0.97338 0.15448 0.0
H1376 H 0.26845 0.89803 0.38841 0.0
H1377 H 0.30848 0.84105 0.44315 0.0
H1378 H 0.31159 0.80589 0.40723 0.0
H1379 H 0.29824 0.78944 0.36167 0.0
H1380 H 0.25415 0.84491 0.30862 0.0
H1381 H 0.25765 0.88267 0.3421 0.0
C1382 C 0.27823 0.87808 0.39227 0.0
C1383 C 0.28795 0.87195 0.41831 0.0
C1384 C 0.2791 0.85764 0.37182 0.0
C1385 C 0.30048 0.84601 0.42324 0.0
C1386 C 0.30232 0.82593 0.40274 0.0
C1387 C 0.28997 0.81 0.35738 0.0
C1388 C 0.27595 0.81456 0.33299 0.0
C1389 C 0.29102 0.83121 0.37716 0.0
C1390 C 0.26491 0.84106 0.32751 0.0
C1391 C 0.26684 0.8626 0.3466 0.0
H1392 H 0.45722 0.01388 0.71901 0.0
H1393 H 0.37992 0.02089 0.67582 0.0
H1394 H 0.40488 0.02734 0.63332 0.0
H1395 H 0.44815 0.02762 0.60831 0.0
H1396 H 0.52556 0.0168 0.65052 0.0
H1397 H 0.50102 0.01548 0.69381 0.0
C1398 C 0.4459 0.01713 0.70031 0.0
C1399 C 0.41685 0.01686 0.7004 0.0
C1400 C 0.46036 0.02005 0.67591 0.0
C1401 C 0.40232 0.02084 0.67611 0.0
C1402 C 0.41656 0.02457 0.65187 0.0
C1403 C 0.45977 0.0254 0.62698 0.0
C1404 C 0.48862 0.02234 0.62626 0.0
C1405 C 0.44552 0.02374 0.65151 0.0
C1406 C 0.50331 0.01913 0.6506 0.0
C1407 C 0.4893 0.01832 0.6753 0.0
H1408 H 0.22882 0.11346 0.9002 0.0
H1409 H 0.28106 0.17855 0.93518 0.0
H1410 H 0.27252 0.20854 0.89649 0.0
H1411 H 0.24936 0.2171 0.85406 0.0
H1412 H 0.19719 0.15289 0.81764 0.0
H1413 H 0.20578 0.12205 0.85629 0.0
C1414 C 0.23844 0.13411 0.89927 0.0
C1415 C 0.25527 0.14386 0.92074 0.0
C1416 C 0.23296 0.15164 0.87713 0.0
C1417 C 0.2678 0.17062 0.91907 0.0
C1418 C 0.26283 0.18787 0.89703 0.0
C1419 C 0.23954 0.19648 0.85454 0.0
C1420 C 0.22246 0.18743 0.83304 0.0
C1421 C 0.24508 0.17879 0.87626 0.0
C1422 C 0.21023 0.16049 0.83405 0.0
C1423 C 0.21534 0.14277 0.85601 0.0
H1424 H 0.0849 0.02032 0.31867 0.0
H1425 H 0.1593 0.02219 0.36744 0.0
H1426 H 0.13193 0.03041 0.40794 0.0
H1427 H 0.08702 0.03536 0.42976 0.0
H1428 H 0.01234 0.03093 0.38181 0.0
H1429 H 0.03985 0.02624 0.34052 0.0
C1430 C 0.09518 0.02239 0.33814 0.0
C1431 C 0.12416 0.02043 0.33992 0.0
C1432 C 0.07933 0.02718 0.36142 0.0
C1433 C 0.13705 0.0234 0.36539 0.0
C1434 C 0.12143 0.0283 0.38859 0.0
C1435 C 0.07676 0.03409 0.41021 0.0
C1436 C 0.04772 0.03385 0.40874 0.0
C1437 C 0.0926 0.03022 0.38683 0.0
C1438 C 0.0347 0.03142 0.38336 0.0
C1439 C 0.0504 0.02847 0.35983 0.0
H1440 H 0.22953 0.82671 0.54465 0.0
H1441 H 0.23749 0.90602 0.58678 0.0
H1442 H 0.22306 0.88352 0.62898 0.0
H1443 H 0.21458 0.8403 0.65469 0.0
H1444 H 0.21055 0.76061 0.61283 0.0
H1445 H 0.21651 0.78441 0.56948 0.0
C1446 C 0.22777 0.83919 0.56298 0.0
C1447 C 0.23499 0.86787 0.56275 0.0
C1448 C 0.22021 0.82602 0.58717 0.0
C1449 C 0.23232 0.88382 0.58655 0.0
C1450 C 0.2241 0.87097 0.61066 0.0
C1451 C 0.21427 0.82822 0.63602 0.0
C1452 C 0.21235 0.79875 0.63689 0.0
C1453 C 0.21888 0.84192 0.61135 0.0
C1454 C 0.2122 0.78331 0.61261 0.0
C1455 C 0.21573 0.79689 0.58787 0.0
H1456 H 0.42183 0.97719 0.8358 0.0
H1457 H 0.35895 0.02634 0.87473 0.0
H1458 H 0.38332 0.02225 0.91813 0.0
H1459 H 0.42333 0.0063 0.94407 0.0
H1460 H 0.48577 0.95653 0.90498 0.0
H1461 H 0.4601 0.95864 0.86233 0.0
C1462 C 0.41358 0.98728 0.85373 0.0
C1463 C 0.38903 0.00266 0.85205 0.0
C1464 C 0.42734 0.98436 0.87846 0.0
C1465 C 0.37804 0.01477 0.87555 0.0
C1466 C 0.39188 0.01232 0.90029 0.0
C1467 C 0.43125 -0.00432 0.92628 0.0
C1468 C 0.45659 0.98153 0.92755 0.0
C1469 C 0.41664 -0.00267 0.90187 0.0
C1470 C 0.46633 0.96753 0.9045 0.0
C1471 C 0.4518 0.96895 0.88009 0.0
H1472 H 0.28997 0.14273 0.09595 0.0
H1473 H 0.28764 0.21616 0.04516 0.0
H1474 H 0.29263 0.24648 0.08487 0.0
H1475 H 0.29214 0.25204 0.13429 0.0
H1476 H 0.29518 0.17844 0.18497 0.0
H1477 H 0.29595 0.14838 0.14503 0.0
C1478 C 0.29092 0.16536 0.0936 0.0
C1479 C 0.28797 0.17723 0.06783 0.0
C1480 C 0.29381 0.18266 0.11647 0.0
C1481 C 0.2897 0.20654 0.06489 0.0
C1482 C 0.29246 0.22391 0.08757 0.0
C1483 C 0.29341 0.22946 0.13658 0.0
C1484 C 0.2931 0.21753 0.16254 0.0
C1485 C 0.29369 0.2122 0.11352 0.0
C1486 C 0.29521 0.18823 0.16521 0.0
C1487 C 0.2955 0.17094 0.14237 0.0
H1488 H 0.17211 0.13202 0.98474 0.0
H1489 H 0.20752 0.07646 0.04363 0.0
H1490 H 0.16281 0.05268 0.04948 0.0
H1491 H 0.11574 0.04416 0.03375 0.0
H1492 H 0.0801 0.09793 0.97318 0.0
H1493 H 0.12299 0.12584 0.97168 0.0
C1494 C 0.16972 0.11492 -0.00097 0.0
C1495 C 0.19282 0.10514 0.0131 0.0
C1496 C 0.14421 0.10084 0.0016 0.0
C1497 C 0.18987 0.08354 0.03208 0.0
C1498 C 0.16441 0.07006 0.03545 0.0
C1499 C 0.11727 0.06202 0.02024 0.0
C1500 C 0.09505 0.06867 0.0032 0.0
C1501 C 0.14179 0.07782 0.01951 0.0
C1502 C 0.09712 0.09224 0.98626 0.0
C1503 C 0.12155 0.10824 0.98548 0.0
H1504 H 0.65574 0.3927 0.01633 0.0
H1505 H 0.66545 0.45909 0.95746 0.0
H1506 H 0.61734 0.47197 0.96374 0.0
H1507 H 0.5744 0.46766 0.98926 0.0
H1508 H 0.5642 0.40179 0.04831 0.0
H1509 H 0.61103 0.38545 0.0387 0.0
C1510 C 0.64729 0.40974 0.00454 0.0
C1511 C 0.66438 0.4252 0.98677 0.0
C1512 C 0.61979 0.41743 0.00864 0.0
C1513 C 0.65289 0.44693 0.97141 0.0
C1514 C 0.62542 0.45447 0.97512 0.0
C1515 C 0.58245 0.44974 9e-05 0.0
C1516 C 0.56629 0.43631 0.01994 0.0
C1517 C 0.60906 0.44047 0.99433 0.0
C1518 C 0.57651 0.41261 0.03319 0.0
C1519 C 0.60319 0.4033 0.02767 0.0
H1520 H 0.87262 0.41382 0.28124 0.0
H1521 H 0.81921 0.45369 0.22344 0.0
H1522 H 0.78889 0.41229 0.22233 0.0
H1523 H 0.77492 0.36784 0.24174 0.0
H1524 H 0.82639 0.32759 0.30116 0.0
H1525 H 0.86012 0.36646 0.29827 0.0
C1526 C 0.85455 0.41298 0.26816 0.0
C1527 C 0.84739 0.43652 0.25297 0.0
C1528 C 0.83672 0.38956 0.26846 0.0
C1529 C 0.82444 0.43566 0.23566 0.0
C1530 C 0.80718 0.41215 0.23507 0.0
C1531 C 0.79338 0.36763 0.25429 0.0
C1532 C 0.79786 0.34548 0.27227 0.0
C1533 C 0.81253 0.38958 0.25226 0.0
C1534 C 0.82233 0.34491 0.28764 0.0
C1535 C 0.84168 0.36688 0.28576 0.0
H1536 H 0.78993 0.55094 0.53054 0.0
H1537 H 0.82181 0.62945 0.49948 0.0
H1538 H 0.86856 0.61673 0.51361 0.0
H1539 H 0.90041 0.5816 0.53144 0.0
H1540 H 0.86812 0.50392 0.56401 0.0
H1541 H 0.82096 0.51869 0.55391 0.0
C1542 C 0.80705 0.56531 0.52693 0.0
C1543 C 0.80259 0.59082 0.5135 0.0
C1544 C 0.83356 0.55826 0.53588 0.0
C1545 C 0.82489 0.60951 0.50946 0.0
C1546 C 0.85152 0.60233 0.51767 0.0
C1547 C 0.88296 0.56825 0.53699 0.0
C1548 C 0.88763 0.54165 0.54824 0.0
C1549 C 0.8561 0.57661 0.53057 0.0
C1550 C 0.86498 0.52458 0.55554 0.0
C1551 C 0.83808 0.53282 0.54934 0.0
H1552 H 0.14378 0.10406 0.27912 0.0
H1553 H 0.20414 0.069 0.22512 0.0
H1554 H 0.2277 0.11456 0.22176 0.0
H1555 H 0.23315 0.16258 0.23699 0.0
H1556 H 0.17406 0.19884 0.29186 0.0
H1557 H 0.14797 0.15421 0.29258 0.0
C1558 C 0.16201 0.1067 0.26659 0.0
C1559 C 0.17301 0.08348 0.25308 0.0
C1560 C 0.17571 0.13279 0.26526 0.0
C1561 C 0.19606 0.08673 0.23625 0.0
C1562 C 0.20939 0.11266 0.23428 0.0
C1563 C 0.21461 0.16082 0.24924 0.0
C1564 C 0.20577 0.18373 0.26476 0.0
C1565 C 0.19985 0.13552 0.24933 0.0
C1566 C 0.18137 0.1813 0.27997 0.0
C1567 C 0.16644 0.1559 0.28028 0.0
H1568 H 0.36065 0.90145 0.48543 0.0
H1569 H 0.32122 0.96684 0.53101 0.0
H1570 H 0.36573 0.99133 0.53698 0.0
H1571 H 0.41508 -0.00525 0.52767 0.0
H1572 H 0.45474 0.93004 0.48078 0.0
H1573 H 0.41056 0.90498 0.47602 0.0
C1574 C 0.36205 0.92106 0.49665 0.0
C1575 C 0.33809 0.93297 0.5072 0.0
C1576 C 0.38747 0.93519 0.49939 0.0
C1577 C 0.33965 0.95793 0.52222 0.0
C1578 C 0.36497 0.9718 0.52566 0.0
C1579 C 0.41415 0.97521 0.51632 0.0
C1580 C 0.43817 0.96428 0.50461 0.0
C1581 C 0.38889 0.96084 0.5139 0.0
C1582 C 0.43651 0.93897 0.48992 0.0
C1583 C 0.41134 0.9245 0.48737 0.0
H1584 H 0.79327 0.56797 0.25789 0.0
H1585 H 0.87613 0.60144 0.26734 0.0
H1586 H 0.86007 0.64804 0.25407 0.0
H1587 H 0.82163 0.67922 0.2425 0.0
H1588 H 0.73963 0.64381 0.23079 0.0
H1589 H 0.75675 0.59723 0.2408 0.0
C1590 C 0.80793 0.58534 0.25697 0.0
C1591 C 0.83571 0.58146 0.26398 0.0
C1592 C 0.79885 0.61143 0.24833 0.0
C1593 C 0.85451 0.60414 0.26236 0.0
C1594 C 0.8454 0.63063 0.25457 0.0
C1595 C 0.80768 0.66121 0.24138 0.0
C1596 C 0.77934 0.66496 0.23637 0.0
C1597 C 0.81753 0.63451 0.24767 0.0
C1598 C 0.7615 0.64145 0.23492 0.0
C1599 C 0.77118 0.61487 0.24089 0.0
H1600 H 0.64853 0.42623 0.77434 0.0
H1601 H 0.68253 0.4346 0.85491 0.0
H1602 H 0.70183 0.38748 0.85153 0.0
H1603 H 0.71108 0.34545 0.82472 0.0
H1604 H 0.68053 0.33868 0.74267 0.0
H1605 H 0.65784 0.38404 0.74746 0.0
C1606 C 0.65974 0.41748 0.79133 0.0
C1607 C 0.66388 0.43352 0.81499 0.0
C1608 C 0.67163 0.391 0.78879 0.0
C1609 C 0.67902 0.42242 0.83661 0.0
C1610 C 0.6901 0.39562 0.83462 0.0
C1611 C 0.69928 0.35379 0.80793 0.0
C1612 C 0.69735 0.33878 0.78339 0.0
C1613 C 0.68687 0.37996 0.81066 0.0
C1614 C 0.68237 0.34997 0.76169 0.0
C1615 C 0.66934 0.37579 0.76446 0.0
H1616 H 0.00585 0.88116 0.87732 0.0
H1617 H 0.03451 0.82104 0.93545 0.0
H1618 H 0.05473 0.85876 0.96321 0.0
H1619 H 0.05542 0.90912 0.97492 0.0
H1620 H 0.0267 0.96897 0.91642 0.0
H1621 H 0.01625 0.93128 0.88432 0.0
C1622 C 0.0167 0.87648 0.896 0.0
C1623 C 0.01715 0.84891 0.90553 0.0
C1624 C 0.02845 0.8982 0.91159 0.0
C1625 C 0.03248 0.84257 0.92883 0.0
C1626 C 0.0444 0.86402 0.94443 0.0
C1627 C 0.04837 0.91391 0.9546 0.0
C1628 C 0.04154 0.94151 0.94799 0.0
C1629 C 0.04133 0.89203 0.93666 0.0
C1630 C 0.03204 0.94767 0.92178 0.0
C1631 C 0.02561 0.92613 0.90361 0.0
H1632 H 0.91198 0.26641 0.67647 0.0
H1633 H 0.85654 0.22147 0.62222 0.0
H1634 H 0.81691 0.23843 0.64801 0.0
H1635 H 0.79894 0.26068 0.68919 0.0
H1636 H 0.85538 0.30005 0.74593 0.0
H1637 H 0.89403 0.2915 0.71519 0.0
C1638 C 0.89125 0.26026 0.67012 0.0
C1639 C 0.8872 0.24212 0.64785 0.0
C1640 C 0.86886 0.26956 0.68521 0.0
C1641 C 0.86018 0.23508 0.63954 0.0
C1642 C 0.83756 0.24485 0.65418 0.0
C1643 C 0.8196 0.26831 0.69421 0.0
C1644 C 0.8246 0.2813 0.71936 0.0
C1645 C 0.84175 0.26149 0.67742 0.0
C1646 C 0.85133 0.2904 0.72637 0.0
C1647 C 0.87332 0.28516 0.70902 0.0
H1648 H 0.48172 0.19352 0.46332 0.0
H1649 H 0.51567 0.16166 0.38889 0.0
H1650 H 0.52045 0.11507 0.40939 0.0
H1651 H 0.51712 0.08464 0.44942 0.0
H1652 H 0.48006 0.11595 0.52275 0.0
H1653 H 0.47363 0.16174 0.50155 0.0
C1654 C 0.49016 0.17628 0.45169 0.0
C1655 C 0.49894 0.18075 0.42501 0.0
C1656 C 0.49199 0.14968 0.4633 0.0
C1657 C 0.50912 0.15842 0.40962 0.0
C1658 C 0.51178 0.13194 0.4213 0.0
C1659 C 0.50734 0.10145 0.46058 0.0
C1660 C 0.4993 0.09725 0.4876 0.0
C1661 C 0.50357 0.12748 0.44823 0.0
C1662 C 0.4863 0.11885 0.50188 0.0
C1663 C 0.48285 0.14501 0.48986 0.0
H1664 H 0.57699 0.71598 0.14606 0.0
H1665 H 0.55487 0.80144 0.16353 0.0
H1666 H 0.59485 0.80649 0.19396 0.0
H1667 H 0.63502 0.78593 0.21622 0.0
H1668 H 0.65475 0.69908 0.20173 0.0
H1669 H 0.61601 0.69478 0.16992 0.0
C1670 C 0.58137 0.73584 0.15617 0.0
C1671 C 0.56378 0.7586 0.15227 0.0
C1672 C 0.60334 0.738 0.17454 0.0
C1673 C 0.56869 0.78394 0.16606 0.0
C1674 C 0.59127 0.78668 0.18355 0.0
C1675 C 0.63071 0.76601 0.20621 0.0
C1676 C 0.64763 0.74285 0.21116 0.0
C1677 C 0.6085 0.76372 0.18815 0.0
C1678 C 0.64177 0.71708 0.19836 0.0
C1679 C 0.61987 0.71472 0.17999 0.0
H1680 H 0.01136 0.17711 0.59326 0.0
H1681 H 0.95709 0.13021 0.64598 0.0
H1682 H 0.97549 0.08598 0.62818 0.0
H1683 H 0.00068 0.06207 0.59223 0.0
H1684 H 0.05105 0.10984 0.53637 0.0
H1685 H 0.04201 0.15269 0.56206 0.0
C1686 C 0.00382 0.15711 0.60095 0.0
C1687 C 0.98225 0.15634 0.61985 0.0
C1688 C 0.01425 0.13226 0.59049 0.0
C1689 C 0.97319 0.1308 0.63076 0.0
C1690 C 0.9838 0.10574 0.62073 0.0
C1691 C 0.01032 0.08178 0.58616 0.0
C1692 C 0.02585 0.08317 0.56212 0.0
C1693 C 0.00347 0.10635 0.59981 0.0
C1694 C 0.0389 0.10843 0.55473 0.0
C1695 C 0.03338 0.13293 0.56916 0.0
H1696 H 0.55481 0.31054 0.32534 0.0
H1697 H 0.57099 0.23755 0.37436 0.0
H1698 H 0.61957 0.23983 0.36182 0.0
H1699 H 0.65651 0.26025 0.3349 0.0
H1700 H 0.64087 0.33148 0.28365 0.0
H1701 H 0.59316 0.333 0.30019 0.0
C1702 C 0.56893 0.29503 0.33316 0.0
C1703 C 0.55916 0.27365 0.35046 0.0
C1704 C 0.59697 0.29648 0.32594 0.0
C1705 C 0.57786 0.25409 0.36085 0.0
C1706 C 0.60569 0.25545 0.35382 0.0
C1707 C 0.64281 0.27643 0.32761 0.0
C1708 C 0.65206 0.2955 0.30784 0.0
C1709 C 0.61534 0.27634 0.3362 0.0
C1710 C 0.63425 0.31661 0.29894 0.0
C1711 C 0.60688 0.3172 0.30808 0.0
H1712 H 0.47272 0.8213 0.09929 0.0
H1713 H 0.48194 0.78513 0.01966 0.0
H1714 H 0.48331 0.83217 -0.00026 0.0
H1715 H 0.48556 0.88337 0.00577 0.0
H1716 H 0.47523 0.91899 0.08567 0.0
H1717 H 0.47006 0.87213 0.10469 0.0
C1718 C 0.47498 0.82377 0.07756 0.0
C1719 C 0.47783 0.80007 0.06094 0.0
C1720 C 0.47543 0.85063 0.06637 0.0
C1721 C 0.47997 0.80327 0.03278 0.0
C1722 C 0.48077 0.83007 0.02144 0.0
C1723 C 0.48188 0.88088 0.02729 0.0
C1724 C 0.4812 0.90456 0.04434 0.0
C1725 C 0.47906 0.85389 0.03814 0.0
C1726 C 0.47595 0.90108 0.07212 0.0
C1727 C 0.47315 0.87431 0.08306 0.0
H1728 H 0.8853 0.77794 0.88667 0.0
H1729 H 0.92785 0.80127 0.81315 0.0
H1730 H 0.88836 0.7847 0.78625 0.0
H1731 H 0.84208 0.76285 0.78364 0.0
H1732 H 0.79877 0.74158 0.85703 0.0
H1733 H 0.83878 0.75705 0.88411 0.0
C1734 C 0.88579 0.77986 0.86479 0.0
C1735 C 0.90946 0.79094 0.85195 0.0
C1736 C 0.86333 0.76973 0.84945 0.0
C1737 C 0.90984 0.79291 0.82354 0.0
C1738 C 0.88741 0.78317 0.80813 0.0
C1739 C 0.84185 0.76087 0.80553 0.0
C1740 C 0.81812 0.75027 0.81846 0.0
C1741 C 0.86429 0.77107 0.82086 0.0
C1742 C 0.8173 0.74892 0.84681 0.0
C1743 C 0.83993 0.75817 0.86222 0.0
H1744 H 0.93713 0.02892 0.83074 0.0
H1745 H 0.9009 0.94919 0.85347 0.0
H1746 H 0.91758 0.95553 0.89963 0.0
H1747 H 0.93942 0.98466 0.93413 0.0
H1748 H 0.97606 0.06482 0.9131 0.0
H1749 H 0.96162 0.05774 0.86578 0.0
C1750 C 0.93352 0.01273 0.84575 0.0
C1751 C 0.91805 0.98847 0.83871 0.0
C1752 C 0.94243 0.01698 0.87269 0.0
C1753 C 0.91289 0.9679 0.85838 0.0
C1754 C 0.92218 0.97166 0.88487 0.0
C1755 C 0.94407 0.00087 0.91938 0.0
C1756 C 0.95836 0.02555 0.92733 0.0
C1757 C 0.93629 -0.00361 0.89238 0.0
C1758 C 0.96474 0.04583 0.90762 0.0
C1759 C 0.95666 0.04167 0.88055 0.0
H1760 H 0.75697 0.14977 0.60881 0.0
H1761 H 0.7792 0.23155 0.57765 0.0
H1762 H 0.76766 0.25281 0.62148 0.0
H1763 H 0.74931 0.24797 0.66799 0.0
H1764 H 0.7254 0.16578 0.69722 0.0
H1765 H 0.73868 0.14495 0.65415 0.0
C1766 C 0.75968 0.17225 0.61156 0.0
C1767 C 0.769 0.18906 0.58997 0.0
C1768 C 0.75197 0.1843 0.63619 0.0
C1769 C 0.7723 0.21812 0.59401 0.0
C1770 C 0.76532 0.2303 0.61893 0.0
C1771 C 0.74654 0.22558 0.66475 0.0
C1772 C 0.73612 0.20847 0.68574 0.0
C1773 C 0.7546 0.21362 0.63998 0.0
C1774 C 0.73318 0.17942 0.68138 0.0
C1775 C 0.741 0.16746 0.65685 0.0
H1776 H 0.64469 0.02678 0.37131 0.0
H1777 H 0.56642 0.01746 0.32961 0.0
H1778 H 0.54431 0.00268 0.37173 0.0
H1779 H 0.54706 0.9936 0.42065 0.0
H1780 H 0.62513 0.00396 0.46212 0.0
H1781 H 0.64775 0.0165 0.41957 0.0
C1782 C 0.62272 0.02183 0.37142 0.0
C1783 C 0.60719 0.02348 0.34739 0.0
C1784 C 0.61028 0.01296 0.39552 0.0
C1785 C 0.57883 0.01653 0.34788 0.0
C1786 C 0.56621 0.00788 0.37189 0.0
C1787 C 0.56916 -0.00216 0.42013 0.0
C1788 C 0.58457 -0.00232 0.44424 0.0
C1789 C 0.58177 0.00589 0.39579 0.0
C1790 C 0.61302 0.0039 0.44364 0.0
C1791 C 0.62585 0.01128 0.41942 0.0
H1792 H 0.79856 0.84471 0.08552 0.0
H1793 H 0.71582 0.81801 0.06378 0.0
H1794 H 0.70995 0.79657 0.10861 0.0
H1795 H 0.72759 0.78837 0.15467 0.0
H1796 H 0.81131 0.81264 0.17539 0.0
H1797 H 0.81787 0.83208 0.12984 0.0
C1798 C 0.77929 0.83404 0.09061 0.0
C1799 C 0.75741 0.83322 0.07176 0.0
C1800 C 0.77636 0.82152 0.11605 0.0
C1801 C 0.73279 0.8189 0.07814 0.0
C1802 C 0.72947 0.80679 0.10371 0.0
C1803 C 0.74732 0.79781 0.1491 0.0
C1804 C 0.76886 0.7996 0.1683 0.0
C1805 C 0.75096 0.80844 0.12293 0.0
C1806 C 0.7945 0.81122 0.16087 0.0
C1807 C 0.79816 0.82237 0.13495 0.0
H1808 H 0.96285 0.9828 0.6904 0.0
H1809 H 0.90249 0.04489 0.6698 0.0
H1810 H 0.91437 0.04047 0.62187 0.0
H1811 H 0.93876 0.01625 0.58592 0.0
H1812 H -0.0019 0.95248 0.60529 0.0
H1813 H 0.98932 0.95972 0.65373 0.0
C1814 C 0.95301 -0.00407 0.6754 0.0
C1815 C 0.93228 0.0146 0.68347 0.0
C1816 C 0.95905 0.99225 0.64774 0.0
C1817 C 0.91887 0.03083 0.66395 0.0
C1818 C 0.9254 0.02802 0.63658 0.0
C1819 C 0.94968 0.00364 0.60062 0.0
C1820 C 0.96871 0.98339 0.59188 0.0
C1821 C 0.94481 0.00819 0.62822 0.0
C1822 C 0.98305 0.96786 0.6114 0.0
C1823 C 0.97819 0.97218 0.63909 0.0
H1824 H 0.74152 0.139 0.40875 0.0
H1825 H 0.76688 0.21474 0.45102 0.0
H1826 H 0.77431 0.23831 0.40765 0.0
H1827 H 0.77131 0.23793 0.3576 0.0
H1828 H 0.74384 0.16258 0.31642 0.0
H1829 H 0.74027 0.13796 0.35959 0.0
C1830 C 0.74868 0.16068 0.40866 0.0
C1831 C 0.75343 0.17509 0.43324 0.0
C1832 C 0.75297 0.17399 0.3838 0.0
C1833 C 0.76282 0.20317 0.43247 0.0
C1834 C 0.76725 0.21662 0.40767 0.0
C1835 C 0.76536 0.21589 0.35817 0.0
C1836 C 0.75825 0.20181 0.33403 0.0
C1837 C 0.7623 0.20225 0.3832 0.0
C1838 C 0.74969 0.17357 0.33485 0.0
C1839 C 0.74741 0.15963 0.3595 0.0
H1840 H 0.62733 0.01183 0.17558 0.0
H1841 H 0.55955 0.9663 0.21259 0.0
H1842 H 0.53283 0.96982 0.17049 0.0
H1843 H 0.52792 0.98878 0.12442 0.0
H1844 H 0.59516 0.03725 0.0896 0.0
H1845 H 0.6226 0.0305 0.13035 0.0
C1846 C 0.6069 0.00215 0.17441 0.0
C1847 C 0.59545 0.9887 0.19713 0.0
C1848 C 0.59128 0.0056 0.15089 0.0
C1849 C 0.56887 0.97656 0.19526 0.0
C1850 C 0.55349 0.97891 0.17135 0.0
C1851 C 0.54844 -0.00184 0.12584 0.0
C1852 C 0.55939 0.01363 0.10399 0.0
C1853 C 0.56425 -0.00592 0.14931 0.0
C1854 C 0.58614 0.02539 0.10612 0.0
C1855 C 0.60197 0.02133 0.12932 0.0
H1856 H 0.73145 0.84123 0.93239 0.0
H1857 H 0.78541 0.9045 0.89755 0.0
H1858 H 0.76937 0.89185 0.85241 0.0
H1859 H 0.74297 0.86096 0.82271 0.0
H1860 H 0.69106 0.79536 0.8562 0.0
H1861 H 0.70222 0.81182 0.90203 0.0
C1862 C 0.73975 0.85213 0.9149 0.0
C1863 C 0.75986 0.87352 0.91838 0.0
C1864 C 0.73038 0.8448 0.88881 0.0
C1865 C 0.77003 0.88784 0.89552 0.0
C1866 C 0.76078 0.88075 0.86966 0.0
C1867 C 0.73363 0.85052 0.83999 0.0
C1868 C 0.71653 0.82673 0.83605 0.0
C1869 C 0.74123 0.85911 0.86608 0.0
C1870 C 0.70429 0.81375 0.85865 0.0
C1871 C 0.71102 0.82287 0.88488 0.0
H1872 H 0.83367 0.91278 0.04302 0.0
H1873 H 0.86608 0.86172 0.97863 0.0
H1874 H 0.91313 0.87867 0.98912 0.0
H1875 H 0.94247 0.91407 0.01109 0.0
H1876 H 0.90919 0.96778 0.07325 0.0
H1877 H 0.86492 0.94255 0.07027 0.0
C1878 C 0.85119 0.90524 0.03154 0.0
C1879 C 0.84683 0.8872 0.00938 0.0
C1880 C 0.87776 0.91525 0.03755 0.0
C1881 C 0.86932 0.87634 0.99524 0.0
C1882 C 0.89603 0.88593 0.00131 0.0
C1883 C 0.92579 0.91991 0.02445 0.0
C1884 C 0.92876 0.94336 0.04169 0.0
C1885 C 0.9002 0.90634 0.02161 0.0
C1886 C 0.90726 0.95009 0.0595 0.0
C1887 C 0.8819 0.93583 0.05763 0.0
H1888 H 0.2951 0.55949 0.96167 0.0
H1889 H 0.3161 0.61989 0.0242 0.0
H1890 H 0.35805 0.59431 0.03467 0.0
H1891 H 0.38758 0.55396 0.02733 0.0
H1892 H 0.36797 0.4943 0.9639 0.0
H1893 H 0.32641 0.52055 0.95239 0.0
C1894 C 0.30891 0.56705 0.97754 0.0
C1895 C 0.30248 0.59134 0.99229 0.0
C1896 C 0.33303 0.55238 0.98334 0.0
C1897 C 0.32068 0.60122 0.01253 0.0
C1898 C 0.34458 0.58658 0.01862 0.0
C1899 C 0.37414 0.54669 0.01104 0.0
C1900 C 0.38039 0.52213 -0.00329 0.0
C1901 C 0.35072 0.56199 0.00438 0.0
C1902 C 0.36333 0.51317 0.97522 0.0
C1903 C 0.33963 0.5281 0.9687 0.0
H1904 H 0.12175 0.59344 0.73676 0.0
H1905 H 0.19138 0.54501 0.71101 0.0
H1906 H 0.21278 0.58676 0.69063 0.0
H1907 H 0.21551 0.63861 0.68926 0.0
H1908 H 0.14523 0.68638 0.71497 0.0
H1909 H 0.1197 0.64333 0.72545 0.0
C1910 C 0.14146 0.59214 0.72642 0.0
C1911 C 0.15612 0.56711 0.72693 0.0
C1912 C 0.15337 0.61604 0.71467 0.0
C1913 C 0.18082 0.56486 0.71229 0.0
C1914 C 0.1928 0.58854 0.70033 0.0
C1915 C 0.19414 0.63939 0.69581 0.0
C1916 C 0.18224 0.6653 0.70171 0.0
C1917 C 0.17993 0.61457 0.70269 0.0
C1918 C 0.15466 0.66639 0.71047 0.0
C1919 C 0.14021 0.64187 0.71679 0.0
H1920 H 0.15488 0.40326 0.48148 0.0
H1921 H 0.18864 0.48747 0.48719 0.0
H1922 H 0.14195 0.50629 0.48962 0.0
H1923 H 0.09207 0.49819 0.49484 0.0
H1924 H 0.05836 0.41397 0.48856 0.0
H1925 H 0.10468 0.39572 0.48115 0.0
C1926 C 0.15197 0.42575 0.48306 0.0
C1927 C 0.17502 0.44396 0.48474 0.0
C1928 C 0.1252 0.43635 0.48437 0.0
C1929 C 0.17112 0.47307 0.4861 0.0
C1930 C 0.14448 0.48381 0.48756 0.0
C1931 C 0.09485 0.47587 0.49154 0.0
C1932 C 0.07201 0.45736 0.4927 0.0
C1933 C 0.12145 0.46556 0.48744 0.0
C1934 C 0.07571 0.4286 0.48785 0.0
C1935 C 0.10217 0.41814 0.48378 0.0
H1936 H 0.89201 0.89842 0.75829 0.0
H1937 H 0.83823 0.95395 0.71505 0.0
H1938 H 0.80847 0.91439 0.70157 0.0
H1939 H 0.79333 0.86581 0.70956 0.0
H1940 H 0.84511 0.81109 0.75628 0.0
H1941 H 0.88026 0.84806 0.76053 0.0
C1942 C 0.874 0.90157 0.74555 0.0
C1943 C 0.86646 0.92878 0.73849 0.0
C1944 C 0.8566 0.87885 0.7386 0.0
C1945 C 0.84365 0.93299 0.72144 0.0
C1946 C 0.82677 0.91043 0.7136 0.0
C1947 C 0.81275 0.86173 0.71977 0.0
C1948 C 0.81656 0.83607 0.73288 0.0
C1949 C 0.83233 0.88347 0.72315 0.0
C1950 C 0.84168 0.83096 0.74629 0.0
C1951 C 0.86174 0.85209 0.74884 0.0
H1952 H 0.70765 0.09626 0.55275 0.0
H1953 H 0.66074 0.16129 0.51429 0.0
H1954 H 0.61772 0.14028 0.53131 0.0
H1955 H 0.59385 0.1004 0.55111 0.0
H1956 H 0.63987 0.03093 0.58295 0.0
H1957 H 0.68313 0.0577 0.57664 0.0
C1958 C 0.68789 0.10553 0.54792 0.0
C1959 C 0.68685 0.12931 0.5312 0.0
C1960 C 0.66339 0.09298 0.5573 0.0
C1961 C 0.66161 0.14234 0.52632 0.0
C1962 C 0.63719 0.1305 0.53621 0.0
C1963 C 0.61333 0.0912 0.5571 0.0
C1964 C 0.61385 0.06345 0.56668 0.0
C1965 C 0.63787 0.10537 0.5509 0.0
C1966 C 0.639 0.0522 0.57535 0.0
C1967 C 0.66371 0.0673 0.57126 0.0
H1968 H 0.14362 0.41787 0.7917 0.0
H1969 H 0.22633 0.45302 0.79574 0.0
H1970 H 0.24517 0.40616 0.80163 0.0
H1971 H 0.23849 0.3549 0.79708 0.0
H1972 H 0.15591 0.32049 0.78965 0.0
H1973 H 0.13651 0.36726 0.79446 0.0
C1974 C 0.16574 0.41531 0.79423 0.0
C1975 C 0.18361 0.43869 0.79252 0.0
C1976 C 0.17642 0.38839 0.79711 0.0
C1977 C 0.21215 0.43523 0.79658 0.0
C1978 C 0.22296 0.40844 0.79991 0.0
C1979 C 0.21627 0.35771 0.79765 0.0
C1980 C 0.19851 0.33468 0.79306 0.0
C1981 C 0.20537 0.3848 0.79906 0.0
C1982 C 0.16978 0.33821 0.79328 0.0
C1983 C 0.15874 0.36489 0.79573 0.0
H1984 H 0.31968 0.5584 0.31328 0.0
H1985 H 0.39997 0.59477 0.29585 0.0
H1986 H 0.37967 0.64145 0.29395 0.0
H1987 H 0.33824 0.67091 0.29161 0.0
H1988 H 0.25765 0.63298 0.30326 0.0
H1989 H 0.2789 0.58785 0.31304 0.0
C1990 C 0.3329 0.57651 0.30939 0.0
C1991 C 0.3613 0.57298 0.30442 0.0
C1992 C 0.32091 0.60299 0.30702 0.0
C1993 C 0.37802 0.59682 0.29954 0.0
C1994 C 0.36641 0.62351 0.29836 0.0
C1995 C 0.32544 0.65285 0.29684 0.0
C1996 C 0.29648 0.65514 0.29681 0.0
C1997 C 0.33775 0.62671 0.30122 0.0
C1998 C 0.28 0.63158 0.30313 0.0
C1999 C 0.29213 0.60583 0.30868 0.0
H2000 H 0.46464 0.64924 0.62201 0.0
H2001 H 0.53355 0.66785 0.56964 0.0
H2002 H 0.53128 0.62013 0.55105 0.0
H2003 H 0.50839 0.5743 0.54836 0.0
H2004 H 0.4407 0.5541 0.6019 0.0
H2005 H 0.4429 0.60187 0.62082 0.0
C2006 C 0.47907 0.64264 0.60654 0.0
C2007 C 0.49857 0.66189 0.59632 0.0
C2008 C 0.47738 0.61536 0.59584 0.0
C2009 C 0.51785 0.65332 0.57698 0.0
C2010 C 0.51658 0.62616 0.56647 0.0
C2011 C 0.49381 0.58048 0.56388 0.0
C2012 C 0.47393 0.56111 0.57333 0.0
C2013 C 0.496 0.6073 0.57528 0.0
C2014 C 0.45582 0.56897 0.59407 0.0
C2015 C 0.45727 0.59609 0.60501 0.0
H2016 H 0.55621 0.21983 0.81899 0.0
H2017 H 0.57977 0.25209 0.89775 0.0
H2018 H 0.62809 0.24247 0.88829 0.0
H2019 H 0.66366 0.22788 0.85697 0.0
H2020 H 0.64158 0.19722 0.77737 0.0
H2021 H 0.5924 0.20195 0.78829 0.0
C2022 C 0.57199 0.2249 0.83394 0.0
C2023 C 0.56457 0.23709 0.85883 0.0
C2024 C 0.59981 0.21906 0.82847 0.0
C2025 C 0.58505 0.24299 0.87833 0.0
C2026 C 0.61264 0.23733 0.87303 0.0
C2027 C 0.64807 0.22176 0.84213 0.0
C2028 C 0.65613 0.21251 0.81634 0.0
C2029 C 0.62022 0.22564 0.84812 0.0
C2030 C 0.63581 0.20427 0.79743 0.0
C2031 C 0.60775 0.2074 0.80353 0.0
H2032 H 0.99434 0.33336 0.05128 0.0
H2033 H 0.00197 0.36213 0.13397 0.0
H2034 H 0.0144 0.40934 0.11796 0.0
H2035 H 0.02085 0.44274 0.08006 0.0
H2036 H 0.01513 0.41193 -0.00221 0.0
H2037 H 0.00528 0.36478 0.0142 0.0
C2038 C -0.00125 0.34985 0.06592 0.0
C2039 C -0.00315 0.34429 0.09378 0.0
C2040 C 0.0067 0.37645 0.05663 0.0
C2041 C 0.00301 0.36594 0.11238 0.0
C2042 C 0.01027 0.39287 0.10324 0.0
C2043 C 0.01814 0.42557 0.06576 0.0
C2044 C 0.0185 0.43093 0.03771 0.0
C2045 C 0.01206 0.39839 0.07535 0.0
C2046 C 0.01478 0.40845 0.01946 0.0
C2047 C 0.00893 0.3815 0.02881 0.0
H2048 H 0.89321 0.75785 0.39078 0.0
H2049 H 0.94375 0.73075 0.32391 0.0
H2050 H 0.90533 0.73828 0.29261 0.0
H2051 H 0.85768 0.75389 0.28417 0.0
H2052 H 0.80925 0.78453 0.35124 0.0
H2053 H 0.8471 0.77542 0.38224 0.0
C2054 C 0.89595 0.75356 0.36938 0.0
C2055 C 0.92145 0.74394 0.35976 0.0
C2056 C 0.87434 0.75919 0.35138 0.0
C2057 C 0.92436 0.73825 0.33192 0.0
C2058 C 0.90248 0.74276 0.31396 0.0
C2059 C 0.85555 0.75897 0.30549 0.0
C2060 C 0.83056 0.76983 0.31526 0.0
C2061 C 0.87749 0.75367 0.32341 0.0
C2062 C 0.82818 0.77614 0.34304 0.0
C2063 C 0.84976 0.77074 0.36091 0.0
H2064 H 0.43612 0.31874 0.90541 0.0
H2065 H 0.49942 0.28051 0.95378 0.0
H2066 H 0.49272 0.31525 0.98968 0.0
H2067 H 0.47169 0.35863 0.00525 0.0
H2068 H 0.40898 0.39778 0.95657 0.0
H2069 H 0.41133 0.3596 0.92351 0.0
C2070 C 0.44821 0.31812 0.92394 0.0
C2071 C 0.46803 0.29737 0.92736 0.0
C2072 C 0.44397 0.33789 0.94455 0.0
C2073 C 0.48389 0.29646 0.95112 0.0
C2074 C 0.48002 0.31616 0.97159 0.0
C2075 C 0.45789 0.35834 0.98788 0.0
C2076 C 0.44042 0.38103 0.98315 0.0
C2077 C 0.46029 0.33712 0.9684 0.0
C2078 C 0.42274 0.3805 0.96048 0.0
C2079 C 0.42435 0.35894 0.9414 0.0
H2080 H 0.88983 0.2502 0.12464 0.0
H2081 H 0.93843 0.27251 0.19527 0.0
H2082 H 0.89827 0.26459 0.22411 0.0
H2083 H 0.84937 0.252 0.22935 0.0
H2084 H 0.80071 0.22913 0.15894 0.0
H2085 H 0.84124 0.23569 0.13014 0.0
C2086 C 0.8917 0.2534 0.14632 0.0
C2087 C 0.91723 0.26199 0.15767 0.0
C2088 C 0.86864 0.24823 0.16294 0.0
C2089 C 0.91911 0.26594 0.18589 0.0
C2090 C 0.89617 0.26127 0.20246 0.0
C2091 C 0.84764 0.24797 0.20777 0.0
C2092 C 0.82193 0.24007 0.1964 0.0
C2093 C 0.87088 0.25231 0.19123 0.0
C2094 C 0.8202 0.23517 0.16832 0.0
C2095 C 0.84333 0.23914 0.15177 0.0
H2096 H -0.00279 0.687 0.4765 0.0
H2097 H 0.00369 0.65074 0.3965 0.0
H2098 H 0.01563 0.60556 0.41641 0.0
H2099 H 0.01887 0.57568 0.45654 0.0
H2100 H 0.01239 0.61192 0.53628 0.0
H2101 H 0.0074 0.65869 0.51643 0.0
C2102 C 0.00142 0.66933 0.46336 0.0
C2103 C -0.00097 0.672 0.43508 0.0
C2104 C 0.0089 0.64379 0.47489 0.0
C2105 C 0.00499 0.64901 0.41834 0.0
C2106 C 0.01201 0.6233 0.42968 0.0
C2107 C 0.01748 0.59408 0.46949 0.0
C2108 C 0.01603 0.59075 0.49767 0.0
C2109 C 0.0135 0.6204 0.45791 0.0
C2110 C 0.01398 0.61432 0.51453 0.0
C2111 C 0.01055 0.64085 0.50315 0.0
H2112 H 0.59026 0.76787 0.63062 0.0
H2113 H 0.53956 0.76196 0.70221 0.0
H2114 H 0.57813 0.77889 0.73008 0.0
H2115 H 0.62725 0.79065 0.73462 0.0
H2116 H 0.67837 0.79643 0.66323 0.0
H2117 H 0.63834 0.78542 0.63468 0.0
C2118 C 0.58772 0.77036 0.65231 0.0
C2119 C 0.56238 0.76313 0.66448 0.0
C2120 C 0.6099 0.78041 0.6682 0.0
C2121 C 0.55903 0.7671 0.69247 0.0
C2122 C 0.58102 0.77685 0.7084 0.0
C2123 C 0.62956 0.79011 0.71277 0.0
C2124 C 0.65587 0.79388 0.70116 0.0
C2125 C 0.60669 0.783 0.69655 0.0
C2126 C 0.65839 0.79355 0.67278 0.0
C2127 C 0.63556 0.78689 0.65642 0.0
H2128 H 0.55162 0.47114 0.73737 0.0
H2129 H 0.63449 0.47254 0.70503 0.0
H2130 H 0.61705 0.45528 0.66153 0.0
H2131 H 0.57803 0.44559 0.63145 0.0
H2132 H 0.49468 0.44784 0.6625 0.0
H2133 H 0.51266 0.45702 0.70804 0.0
C2134 C 0.56589 0.46736 0.72089 0.0
C2135 C 0.59423 0.47351 0.72424 0.0
C2136 C 0.55565 0.45801 0.69577 0.0
C2137 C 0.61252 0.46834 0.70281 0.0
C2138 C 0.60258 0.4584 0.67797 0.0
C2139 C 0.56373 0.44738 0.64824 0.0
C2140 C 0.53502 0.44634 0.6435 0.0
C2141 C 0.57413 0.45394 0.67402 0.0
C2142 C 0.51687 0.44874 0.66556 0.0
C2143 C 0.52713 0.45421 0.69156 0.0
H2144 H 0.78533 0.38151 0.91293 0.0
H2145 H 0.7389 0.32838 0.9676 0.0
H2146 H 0.7473 0.28785 0.93876 0.0
H2147 H 0.76348 0.2687 0.89584 0.0
H2148 H 0.81035 0.32112 0.84118 0.0
H2149 H 0.80754 0.36047 0.87301 0.0
C2150 C 0.7773 0.36106 0.91866 0.0
C2151 C 0.76125 0.35804 0.94219 0.0
C2152 C 0.78272 0.33764 0.9023 0.0
C2153 C 0.75118 0.33129 0.94947 0.0
C2154 C 0.75606 0.30806 0.93309 0.0
C2155 C 0.77386 0.2885 0.89136 0.0
C2156 C 0.78685 0.2922 0.86625 0.0
C2157 C 0.77137 0.31112 0.90925 0.0
C2158 C 0.80039 0.31778 0.86055 0.0
C2159 C 0.79832 0.34042 0.8785 0.0
H2160 H 0.95268 0.53276 0.19928 0.0
H2161 H 0.86869 0.53638 0.16977 0.0
H2162 H 0.88529 0.54856 0.12473 0.0
H2163 H 0.92341 0.55242 0.09279 0.0
H2164 H 0.00753 0.54547 0.12123 0.0
H2165 H 0.99115 0.54096 0.16776 0.0
C2166 C 0.93807 0.53661 0.18305 0.0
C2167 C 0.9096 0.53328 0.18762 0.0
C2168 C 0.94776 0.54293 0.15703 0.0
C2169 C 0.89078 0.5384 0.16655 0.0
C2170 C 0.90022 0.54543 0.14082 0.0
C2171 C 0.93821 0.55053 0.10921 0.0
C2172 C 0.96656 0.54893 0.10358 0.0
C2173 C 0.92865 0.54692 0.13567 0.0
C2174 C 0.98552 0.54645 0.12507 0.0
C2175 C 0.97619 0.54376 0.15165 0.0
H2176 H 0.71073 0.68253 0.44089 0.0
H2177 H 0.736 0.60556 0.4023 0.0
H2178 H 0.73017 0.62719 0.35777 0.0
H2179 H 0.72065 0.66908 0.33017 0.0
H2180 H 0.69694 0.74596 0.36971 0.0
H2181 H 0.69867 0.72287 0.41371 0.0
C2182 C 0.71517 0.67041 0.42281 0.0
C2183 C 0.72432 0.64262 0.42496 0.0
C2184 C 0.7116 0.68283 0.39748 0.0
C2185 C 0.7293 0.62712 0.40122 0.0
C2186 C 0.72581 0.63942 0.37578 0.0
C2187 C 0.71516 0.68049 0.34839 0.0
C2188 C 0.70857 0.7091 0.34683 0.0
C2189 C 0.71719 0.66735 0.37369 0.0
C2190 C 0.70199 0.7239 0.37053 0.0
C2191 C 0.70321 0.71079 0.39565 0.0
H2192 H 0.55789 0.50752 0.84946 0.0
H2193 H 0.62519 0.53472 0.90154 0.0
H2194 H 0.59382 0.53598 0.94007 0.0
H2195 H 0.54846 0.52597 0.9595 0.0
H2196 H 0.4818 0.49575 0.9083 0.0
H2197 H 0.51177 0.49971 0.86862 0.0
C2198 C 0.56571 0.51398 0.86917 0.0
C2199 C 0.59393 0.5208 0.87261 0.0
C2200 C 0.54768 0.51426 0.89132 0.0
C2201 C 0.60364 0.5291 0.89833 0.0
C2202 C 0.5857 0.52992 0.92038 0.0
C2203 C 0.54025 0.5208 0.9396 0.0
C2204 C 0.51293 0.51062 0.9368 0.0
C2205 C 0.55782 0.52212 0.91716 0.0
C2206 C 0.50277 0.50363 0.91093 0.0
C2207 C 0.51992 0.50575 0.8883 0.0
H2208 H 0.7007 0.3426 0.07362 0.0
H2209 H 0.73538 0.41842 0.10859 0.0
H2210 H 0.72821 0.3994 0.15419 0.0
H2211 H 0.71927 0.35802 0.18308 0.0
H2212 H 0.68781 0.28141 0.14668 0.0
H2213 H 0.68606 0.30409 0.10255 0.0
C2214 C 0.70632 0.35515 0.09124 0.0
C2215 C 0.71909 0.38152 0.08793 0.0
C2216 C 0.70283 0.34383 0.11705 0.0
C2217 C 0.72571 0.3979 0.11079 0.0
C2218 C 0.72175 0.38698 0.13679 0.0
C2219 C 0.71132 0.34662 0.16559 0.0
C2220 C 0.70402 0.31805 0.16789 0.0
C2221 C 0.71136 0.3595 0.14007 0.0
C2222 C 0.69385 0.30334 0.14518 0.0
C2223 C 0.69292 0.31625 0.11999 0.0
H2224 H 0.86585 0.48471 0.36405 0.0
H2225 H 0.93803 0.51743 0.32281 0.0
H2226 H 0.9656 0.5114 0.36388 0.0
H2227 H 0.96873 0.49761 0.41183 0.0
H2228 H 0.89728 0.46224 0.45169 0.0
H2229 H 0.86989 0.46725 0.41019 0.0
C2230 C 0.88766 0.49029 0.36386 0.0
C2231 C 0.8999 0.50138 0.34037 0.0
C2232 C 0.90356 0.48568 0.38704 0.0
C2233 C 0.92814 0.50879 0.34066 0.0
C2234 C 0.94394 0.50522 0.36404 0.0
C2235 C 0.94737 0.49032 0.41099 0.0
C2236 C 0.93491 0.47911 0.43418 0.0
C2237 C 0.93187 0.49355 0.38727 0.0
C2238 C 0.90717 0.47032 0.43359 0.0
C2239 C 0.89152 0.47355 0.4101 0.0
H2240 H 0.75453 0.64427 0.59971 0.0
H2241 H 0.75015 0.72106 0.55391 0.0
H2242 H 0.76036 0.74842 0.59479 0.0
H2243 H 0.76564 0.75052 0.64404 0.0
H2244 H 0.76955 0.67371 0.69 0.0
H2245 H 0.76515 0.64628 0.64832 0.0
C2246 C 0.756 0.66699 0.59867 0.0
C2247 C 0.75111 0.68072 0.57404 0.0
C2248 C 0.76188 0.68252 0.62219 0.0
C2249 C 0.75362 0.71008 0.57276 0.0
C2250 C 0.75943 0.72571 0.59609 0.0
C2251 C 0.76596 0.72778 0.64493 0.0
C2252 C 0.76745 0.71419 0.67012 0.0
C2253 C 0.76291 0.71216 0.62101 0.0
C2254 C 0.76831 0.68472 0.67089 0.0
C2255 C 0.76557 0.669 0.64708 0.0
H2256 H 0.67359 0.58028 0.54833 0.0
H2257 H 0.63692 0.62694 0.48337 0.0
H2258 H 0.59404 0.59881 0.48728 0.0
H2259 H 0.56967 0.55738 0.50609 0.0
H2260 H 0.60769 0.51136 0.57134 0.0
H2261 H 0.64732 0.54315 0.57071 0.0
C2262 C 0.65603 0.58432 0.53524 0.0
C2263 C 0.65828 0.60458 0.51499 0.0
C2264 C 0.63188 0.56821 0.53764 0.0
C2265 C 0.63544 0.61076 0.49868 0.0
C2266 C 0.6111 0.59473 0.50092 0.0
C2267 C 0.58656 0.55442 0.52024 0.0
C2268 C 0.58601 0.5316 0.53823 0.0
C2269 C 0.6095 0.57273 0.51974 0.0
C2270 C 0.60776 0.52842 0.5569 0.0
C2271 C 0.63042 0.54665 0.5567 0.0
H2272 H 0.18311 0.90953 0.50136 0.0
H2273 H 0.20315 0.97629 0.44536 0.0
H2274 H 0.15706 -0.0046 0.451 0.0
H2275 H 0.11247 -0.00512 0.47375 0.0
H2276 H 0.09176 0.9284 0.52964 0.0
H2277 H 0.13714 0.90752 0.52227 0.0
C2278 C 0.1773 0.928 0.49003 0.0
C2279 C 0.19666 0.94154 0.47306 0.0
C2280 C 0.15094 0.9392 0.49373 0.0
C2281 C 0.18874 0.96551 0.45863 0.0
C2282 C 0.16244 0.97656 0.46195 0.0
C2283 C 0.11792 0.97594 0.48454 0.0
C2284 C 0.09904 0.96346 0.50262 0.0
C2285 C 0.14368 0.96395 0.47992 0.0
C2286 C 0.10611 0.93852 0.51585 0.0
C2287 C 0.13196 0.92655 0.51155 0.0
H2288 H 0.31651 0.94372 0.73885 0.0
H2289 H 0.37203 0.90945 0.79803 0.0
H2290 H 0.34686 0.86427 0.79614 0.0
H2291 H 0.3084 0.83543 0.77814 0.0
H2292 H 0.25239 0.8708 0.7196 0.0
H2293 H 0.2784 0.91503 0.72078 0.0
C2294 C 0.32286 0.92631 0.75143 0.0
C2295 C 0.34527 0.92968 0.76915 0.0
C2296 C 0.30824 0.90089 0.75036 0.0
C2297 C 0.35435 0.90705 0.78464 0.0
C2298 C 0.33998 0.88144 0.7836 0.0
C2299 C 0.30177 0.85295 0.76587 0.0
C2300 C 0.27849 0.85003 0.74895 0.0
C2301 C 0.31668 0.87829 0.76676 0.0
C2302 C 0.27006 0.87274 0.73306 0.0
C2303 C 0.28505 0.89789 0.7335 0.0
H2304 H 0.34878 0.11194 0.02525 0.0
H2305 H 0.32857 0.0449 0.96894 0.0
H2306 H 0.3722 0.0224 0.97911 0.0
H2307 H 0.41569 0.0213 0.00417 0.0
H2308 H 0.43799 0.08891 0.05844 0.0
H2309 H 0.39341 0.11147 0.04953 0.0
C2310 C 0.35404 0.09259 0.01495 0.0
C2311 C 0.33536 0.08013 0.99637 0.0
C2312 C 0.37911 0.07955 0.02108 0.0
C2313 C 0.34249 0.05495 0.98336 0.0
C2314 C 0.36735 0.04193 0.98928 0.0
C2315 C 0.41038 0.04067 0.01447 0.0
C2316 C 0.42927 0.05315 0.03256 0.0
C2317 C 0.38555 0.05384 0.00835 0.0
C2318 C 0.42311 0.07873 0.04507 0.0
C2319 C 0.3979 0.09169 0.03968 0.0
H2320 H 0.62471 0.60233 0.80394 0.0
H2321 H 0.68823 0.55756 0.7616 0.0
H2322 H 0.71436 0.60132 0.75475 0.0
H2323 H 0.71984 0.65168 0.76245 0.0
H2324 H 0.65642 0.69707 0.80479 0.0
H2325 H 0.62978 0.65351 0.81075 0.0
C2326 C 0.64426 0.6024 0.79321 0.0
C2327 C 0.65519 0.57707 0.78397 0.0
C2328 C 0.65926 0.62752 0.78975 0.0
C2329 C 0.68006 0.57701 0.76948 0.0
C2330 C 0.69488 0.60192 0.76553 0.0
C2331 C 0.70029 0.65206 0.77317 0.0
C2332 C 0.6902 0.67749 0.78334 0.0
C2333 C 0.68493 0.62718 0.77606 0.0
C2334 C 0.66465 0.67769 0.79684 0.0
C2335 C 0.64934 0.65286 0.80013 0.0
H2336 H 0.83228 0.40919 0.99259 0.0
H2337 H 0.79068 0.47981 0.02774 0.0
H2338 H 0.83275 0.50875 0.02344 0.0
H2339 H 0.88057 0.51394 0.00847 0.0
H2340 H 0.92178 0.44381 0.97127 0.0
H2341 H 0.88008 0.41485 0.97642 0.0
C2342 C 0.83267 0.43093 -0.00072 0.0
C2343 C 0.80873 0.44286 0.00982 0.0
C2344 C 0.8565 0.44749 0.99592 0.0
C2345 C 0.80903 0.47071 0.01898 0.0
C2346 C 0.83296 0.48713 0.01654 0.0
C2347 C 0.88043 0.49238 0.00132 0.0
C2348 C 0.90424 0.48101 0.98962 0.0
C2349 C 0.85663 0.47583 0.00462 0.0
C2350 C 0.90364 0.45311 0.98023 0.0
C2351 C 0.87996 0.43643 0.98346 0.0
H2352 H 0.28746 0.05852 0.75354 0.0
H2353 H 0.36858 0.09623 0.76287 0.0
H2354 H 0.35184 0.1397 0.74238 0.0
H2355 H 0.31281 0.16761 0.72532 0.0
H2356 H 0.2329 0.12752 0.71394 0.0
H2357 H 0.25125 0.08327 0.73007 0.0
C2358 C 0.3017 0.076 0.75086 0.0
C2359 C 0.32912 0.07426 0.76007 0.0
C2360 C 0.29234 0.10014 0.73806 0.0
C2361 C 0.34724 0.09723 0.75627 0.0
C2362 C 0.33775 0.12193 0.74435 0.0
C2363 C 0.2997 0.14894 0.72539 0.0
C2364 C 0.27143 0.15088 0.71879 0.0
C2365 C 0.31021 0.12368 0.7354 0.0
C2366 C 0.25467 0.12655 0.71908 0.0
C2367 C 0.26503 0.10137 0.72866 0.0
H2368 H 0.15193 0.92032 0.25695 0.0
H2369 H 0.23463 0.9477 0.279 0.0
H2370 H 0.25209 0.90125 0.26851 0.0
H2371 H 0.24409 0.85306 0.2529 0.0
H2372 H 0.16132 0.82409 0.23445 0.0
H2373 H 0.14363 0.87135 0.24299 0.0
C2374 C 0.17375 0.91613 0.25958 0.0
C2375 C 0.19192 0.93755 0.26865 0.0
C2376 C 0.1837 0.88933 0.2536 0.0
C2377 C 0.22012 0.93164 0.27215 0.0
C2378 C 0.2302 0.90514 0.26595 0.0
C2379 C 0.22227 0.85734 0.2502 0.0
C2380 C 0.20403 0.83564 0.24235 0.0
C2381 C 0.21224 0.88397 0.2564 0.0
C2382 C 0.17567 0.84086 0.23995 0.0
C2383 C 0.1656 0.8677 0.24506 0.0
H2384 H 0.52731 0.3074 0.44929 0.0
H2385 H 0.49205 0.37384 0.4016 0.0
H2386 H 0.5135 0.40886 0.43185 0.0
H2387 H 0.536 0.41964 0.47537 0.0
H2388 H 0.56457 0.35245 0.52583 0.0
H2389 H 0.55378 0.31841 0.48994 0.0
C2390 C 0.52423 0.32954 0.44542 0.0
C2391 C 0.50743 0.33806 0.42372 0.0
C2392 C 0.53623 0.34928 0.46295 0.0
C2393 C 0.50446 0.36681 0.4185 0.0
C2394 C 0.51687 0.38677 0.43564 0.0
C2395 C 0.54101 0.39766 0.47785 0.0
C2396 C 0.55124 0.38832 0.50284 0.0
C2397 C 0.53214 0.37816 0.45832 0.0
C2398 C 0.55721 0.35993 0.50644 0.0
C2399 C 0.55039 0.34051 0.48621 0.0
H2400 H 0.4328 0.74359 0.17461 0.0
H2401 H 0.38098 0.73623 0.10338 0.0
H2402 H 0.34048 0.74788 0.13056 0.0
H2403 H 0.32 0.75857 0.17458 0.0
H2404 H 0.37161 0.76315 0.24603 0.0
H2405 H 0.41255 0.75479 0.21829 0.0
C2406 C 0.41271 0.74462 0.16488 0.0
C2407 C 0.40991 0.73907 0.13696 0.0
C2408 C 0.38969 0.75114 0.18055 0.0
C2409 C 0.38366 0.74027 0.12484 0.0
C2410 C 0.36056 0.74708 0.14032 0.0
C2411 C 0.34028 0.75831 0.18404 0.0
C2412 C 0.34296 0.76176 0.21224 0.0
C2413 C 0.3634 0.75248 0.16818 0.0
C2414 C 0.36919 0.76071 0.22432 0.0
C2415 C 0.39248 0.75577 0.20852 0.0
H2416 H 0.9422 0.71896 0.94939 0.0
H2417 H 0.98647 0.69486 0.87715 0.0
H2418 H 0.98523 0.6461 0.89148 0.0
H2419 H 0.97722 0.61164 0.92699 0.0
H2420 H 0.93459 0.63517 6e-05 0.0
H2421 H 0.92885 0.68281 0.98253 0.0
C2422 C 0.95132 0.70303 0.93661 0.0
C2423 C 0.96495 0.71073 0.9125 0.0
C2424 C 0.95082 0.67497 0.94509 0.0
C2425 C 0.97617 0.68969 0.89597 0.0
C2426 C 0.97549 0.66174 0.90413 0.0
C2427 C 0.96622 0.62708 0.93888 0.0
C2428 C 0.95676 0.6202 0.96491 0.0
C2429 C 0.9637 0.65436 0.92902 0.0
C2430 C 0.94209 0.64009 0.97995 0.0
C2431 C 0.93907 0.66735 0.97005 0.0
H2432 H 0.05504 0.20597 0.65365 0.0
H2433 H 0.03513 0.28921 0.68134 0.0
H2434 H 0.07838 0.29155 0.70744 0.0
H2435 H 0.12171 0.26988 0.72159 0.0
H2436 H 0.14002 0.18538 0.6962 0.0
H2437 H 0.09675 0.1831 0.67034 0.0
C2438 C 0.06041 0.22475 0.66516 0.0
C2439 C 0.04257 0.24772 0.66522 0.0
C2440 C 0.08453 0.2254 0.68077 0.0
C2441 C 0.04899 0.27156 0.68083 0.0
C2442 C 0.07351 0.27277 0.69579 0.0
C2443 C 0.11608 0.25088 0.71056 0.0
C2444 C 0.13394 0.22788 0.71052 0.0
C2445 C 0.09136 0.24979 0.69588 0.0
C2446 C 0.1264 0.20323 0.69656 0.0
C2447 C 0.10188 0.20206 0.6816 0.0
H2448 H 0.47472 0.6428 0.13534 0.0
H2449 H 0.52995 0.67253 0.07312 0.0
H2450 H 0.53758 0.62442 0.05782 0.0
H2451 H 0.52224 0.5756 0.05733 0.0
H2452 H 0.46262 0.54636 0.116 0.0
H2453 H 0.46331 0.59232 0.13805 0.0
C2454 C 0.48862 0.63845 0.11868 0.0
C2455 C 0.50099 0.66066 0.10456 0.0
C2456 C 0.49207 0.61093 0.10947 0.0
C2457 C 0.51956 0.65538 0.08349 0.0
C2458 C 0.52406 0.628 0.07492 0.0
C2459 C 0.51003 0.57903 0.07542 0.0
C2460 C 0.4921 0.55789 0.08485 0.0
C2461 C 0.50948 0.60577 0.08702 0.0
C2462 C 0.47631 0.56256 0.10825 0.0
C2463 C 0.47663 0.58882 0.12078 0.0
H2464 H 0.04861 0.78629 0.80111 0.0
H2465 H 0.07907 0.73705 0.86762 0.0
H2466 H 0.12498 0.73607 0.84681 0.0
H2467 H 0.15625 0.75025 0.81051 0.0
H2468 H 0.12683 0.80197 0.74519 0.0
H2469 H 0.08056 0.80187 0.76532 0.0
C2470 C 0.06522 0.77489 0.81069 0.0
C2471 C 0.06059 0.76117 0.83543 0.0
C2472 C 0.09169 0.77556 0.79927 0.0
C2473 C 0.0823 0.7473 0.8483 0.0
C2474 C 0.10848 0.74699 0.83657 0.0
C2475 C 0.13975 0.76166 0.80072 0.0
C2476 C 0.14483 0.77603 0.77637 0.0
C2477 C 0.11342 0.76134 0.81226 0.0
C2478 C 0.12341 0.79097 0.76407 0.0
C2479 C 0.09695 0.79063 0.77539 0.0
H2480 H 0.94608 0.31226 0.61155 0.0
H2481 H 0.96377 0.27774 0.53274 0.0
H2482 H 0.96151 0.32478 0.5128 0.0
H2483 H 0.95767 0.37578 0.51884 0.0
H2484 H 0.93866 0.40959 0.59786 0.0
H2485 H 0.93752 0.36238 0.61668 0.0
C2486 C 0.94951 0.31514 0.59001 0.0
C2487 C 0.95577 0.29202 0.57361 0.0
C2488 C 0.94766 0.34188 0.57881 0.0
C2489 C 0.95929 0.29553 0.54565 0.0
C2490 C 0.95795 0.3223 0.53433 0.0
C2491 C 0.95293 0.37278 0.5401 0.0
C2492 C 0.94866 0.39613 0.55702 0.0
C2493 C 0.95256 0.34565 0.55084 0.0
C2494 C 0.94209 0.39195 0.58442 0.0
C2495 C 0.94166 0.36501 0.59526 0.0
H2496 H 0.42905 0.2301 0.34493 0.0
H2497 H 0.39449 0.28328 0.40649 0.0
H2498 H 0.34866 0.27876 0.38517 0.0
H2499 H 0.32085 0.26516 0.34535 0.0
H2500 H 0.35585 0.21142 0.28416 0.0
H2501 H 0.39916 0.20983 0.30954 0.0
C2502 C 0.41134 0.24055 0.35364 0.0
C2503 C 0.4149 0.25812 0.37622 0.0
C2504 C 0.38534 0.23747 0.34155 0.0
C2505 C 0.39199 0.27048 0.38843 0.0
C2506 C 0.36592 0.26774 0.37638 0.0
C2507 C 0.33774 0.25252 0.33796 0.0
C2508 C 0.33547 0.23888 0.31273 0.0
C2509 C 0.36265 0.25212 0.35237 0.0
C2510 C 0.3572 0.22215 0.30351 0.0
C2511 C 0.38203 0.22144 0.31787 0.0
H2512 H 0.41171 0.44858 0.36982 0.0
H2513 H 0.46168 0.51957 0.34492 0.0
H2514 H 0.48799 0.51737 0.38735 0.0
H2515 H 0.49444 0.49711 0.43296 0.0
H2516 H 0.44632 0.424 0.45586 0.0
H2517 H 0.42189 0.42492 0.41261 0.0
C2518 C 0.42858 0.46336 0.37352 0.0
C2519 C 0.4346 0.48437 0.3544 0.0
C2520 C 0.44389 0.46161 0.39762 0.0
C2521 C 0.45669 0.5032 0.35935 0.0
C2522 C 0.47164 0.50202 0.38364 0.0
C2523 C 0.47883 0.48123 0.4283 0.0
C2524 C 0.472 0.46072 0.4477 0.0
C2525 C 0.4651 0.4816 0.40313 0.0
C2526 C 0.45199 0.44001 0.44129 0.0
C2527 C 0.43789 0.44059 0.4166 0.0
H2528 H 0.24228 0.6481 0.08407 0.0
H2529 H 0.27028 0.72811 0.05286 0.0
H2530 H 0.26727 0.74846 0.09859 0.0
H2531 H 0.25417 0.74363 0.14663 0.0
H2532 H 0.22459 0.66339 0.17631 0.0
H2533 H 0.22991 0.6431 0.13126 0.0
C2534 C 0.24792 0.67002 0.08714 0.0
C2535 C 0.25636 0.68667 0.06508 0.0
C2536 C 0.24521 0.68158 0.11297 0.0
C2537 C 0.26387 0.71486 0.06956 0.0
C2538 C 0.26183 0.72651 0.0956 0.0
C2539 C 0.24856 0.72177 0.14322 0.0
C2540 C 0.23868 0.70509 0.16481 0.0
C2541 C 0.25195 0.71015 0.1173 0.0
C2542 C 0.23201 0.67672 0.16008 0.0
C2543 C 0.23522 0.66507 0.13438 0.0
H2544 H 0.08364 0.49184 0.82642 0.0
H2545 H 0.13931 0.55791 0.85369 0.0
H2546 H 0.11379 0.56144 0.89599 0.0
H2547 H 0.07569 0.54639 0.92494 0.0
H2548 H 0.02071 0.47922 0.89901 0.0
H2549 H 0.04618 0.47542 0.85636 0.0
C2550 C 0.09004 0.50719 0.84156 0.0
C2551 C 0.11315 0.52481 0.83683 0.0
C2552 C 0.07554 0.50883 0.86606 0.0
C2553 C 0.12154 0.54418 0.85681 0.0
C2554 C 0.10697 0.54622 0.88102 0.0
C2555 C 0.06924 0.53083 0.91004 0.0
C2556 C 0.04623 0.5132 0.91508 0.0
C2557 C 0.08397 0.5287 0.88582 0.0
C2558 C 0.03837 0.493 0.89563 0.0
C2559 C 0.05284 0.49092 0.87123 0.0
H2560 H 0.24179 0.31865 0.55955 0.0
H2561 H 0.19849 0.38866 0.59392 0.0
H2562 H 0.20189 0.36773 0.63908 0.0
H2563 H 0.21899 0.3307 0.66859 0.0
H2564 H 0.26573 0.26247 0.63488 0.0
H2565 H 0.26003 0.28204 0.58944 0.0
C2566 C 0.23252 0.32887 0.57691 0.0
C2567 C 0.2192 0.35463 0.57362 0.0
C2568 C 0.23592 0.31749 0.60281 0.0
C2569 C 0.20824 0.36846 0.59616 0.0
C2570 C 0.21049 0.35668 0.62189 0.0
C2571 C 0.22805 0.32014 0.65132 0.0
C2572 C 0.24273 0.29515 0.65503 0.0
C2573 C 0.22468 0.33146 0.62545 0.0
C2574 C 0.25457 0.28187 0.63253 0.0
C2575 C 0.25105 0.29287 0.60657 0.0
H2576 H 0.46484 0.49024 0.21283 0.0
H2577 H 0.40608 0.55199 0.18737 0.0
H2578 H 0.4089 0.53485 0.14073 0.0
H2579 H 0.42274 0.49831 0.10916 0.0
H2580 H 0.48034 0.43502 0.13417 0.0
H2581 H 0.48269 0.45624 0.17952 0.0
C2582 C 0.4537 0.50075 0.19678 0.0
C2583 C 0.43564 0.52266 0.20328 0.0
C2584 C 0.45416 0.4896 0.17039 0.0
C2585 C 0.42052 0.53552 0.1826 0.0
C2586 C 0.42167 0.52528 0.15613 0.0
C2587 C 0.4357 0.48891 0.12452 0.0
C2588 C 0.45079 0.4646 0.1185 0.0
C2589 C 0.43736 0.50151 0.15015 0.0
C2590 C 0.46811 0.45337 0.13847 0.0
C2591 C 0.46966 0.46567 0.16427 0.0
H2592 H 0.26705 0.69706 0.91742 0.0
H2593 H 0.22901 0.61985 0.88808 0.0
H2594 H 0.23507 0.63486 0.84194 0.0
H2595 H 0.24706 0.6709 0.80966 0.0
H2596 H 0.28414 0.74896 0.83664 0.0
H2597 H 0.28338 0.73228 0.88366 0.0
C2598 C 0.26026 0.68352 0.90092 0.0
C2599 C 0.24729 0.65752 0.90652 0.0
C2600 C 0.26379 0.69226 0.87388 0.0
C2601 C 0.23891 0.64008 0.88474 0.0
C2602 C 0.24239 0.64855 0.85812 0.0
C2603 C 0.25543 0.68409 0.8258 0.0
C2604 C 0.26537 0.71111 0.81989 0.0
C2605 C 0.25428 0.67472 0.85251 0.0
C2606 C 0.27647 0.72794 0.84081 0.0
C2607 C 0.27572 0.71854 0.86769 0.0
H2608 H 0.05392 0.47551 0.71386 0.0
H2609 H 0.12887 0.46208 0.66862 0.0
H2610 H 0.10344 0.46724 0.6262 0.0
H2611 H 0.0615 0.4811 0.60242 0.0
H2612 H 0.98649 0.49561 0.64716 0.0
H2613 H 0.01056 0.48491 0.68957 0.0
C2614 C 0.06454 0.47287 0.69472 0.0
C2615 C 0.09329 0.46854 0.69436 0.0
C2616 C 0.05 0.47695 0.67044 0.0
C2617 C 0.10677 0.46541 0.66941 0.0
C2618 C 0.09231 0.46869 0.64517 0.0
C2619 C 0.0504 0.48208 0.62146 0.0
C2620 C 0.02244 0.48983 0.62177 0.0
C2621 C 0.06422 0.47559 0.64553 0.0
C2622 C 0.00814 0.49012 0.64648 0.0
C2623 C 0.02185 0.48387 0.67067 0.0
H2624 H 0.25084 0.40455 0.39572 0.0
H2625 H 0.23096 0.33007 0.44187 0.0
H2626 H 0.22228 0.30396 0.40012 0.0
H2627 H 0.2237 0.30125 0.35048 0.0
H2628 H 0.24588 0.37484 0.30453 0.0
H2629 H 0.24962 0.40258 0.34621 0.0
C2630 C 0.24458 0.38262 0.39672 0.0
C2631 C 0.24186 0.36929 0.42195 0.0
C2632 C 0.23968 0.36766 0.37265 0.0
C2633 C 0.23349 0.34088 0.42276 0.0
C2634 C 0.22836 0.32591 0.39888 0.0
C2635 C 0.22846 0.32356 0.34965 0.0
C2636 C 0.23433 0.33618 0.32469 0.0
C2637 C 0.23165 0.339 0.37373 0.0
C2638 C 0.2412 0.36489 0.32369 0.0
C2639 C 0.24356 0.38063 0.34748 0.0
H2640 H 0.33265 0.37164 0.5103 0.0
H2641 H 0.29579 0.44755 0.53956 0.0
H2642 H 0.33983 0.4626 0.55984 0.0
H2643 H 0.38961 0.45454 0.56729 0.0
H2644 H 0.42421 0.37544 0.54256 0.0
H2645 H 0.37983 0.36046 0.52378 0.0
C2646 C 0.33447 0.39159 0.52091 0.0
C2647 C 0.31192 0.4096 0.52169 0.0
C2648 C 0.35916 0.39905 0.53402 0.0
C2649 C 0.31374 0.43456 0.53683 0.0
C2650 C 0.33864 0.44276 0.54904 0.0
C2651 C 0.38717 0.43371 0.55859 0.0
C2652 C 0.41018 0.4163 0.55596 0.0
C2653 C 0.36161 0.42524 0.54754 0.0
C2654 C 0.40678 0.38933 0.54457 0.0
C2655 C 0.38153 0.38083 0.53356 0.0
H2656 H 0.8172 0.07885 0.46367 0.0
H2657 H 0.84473 0.13821 0.5249 0.0
H2658 H 0.89192 0.12157 0.52039 0.0
H2659 H 0.92408 0.08749 0.50226 0.0
H2660 H 0.89677 0.02652 0.44285 0.0
H2661 H 0.85066 0.04724 0.44269 0.0
C2662 C 0.8335 0.08823 0.47601 0.0
C2663 C 0.82734 0.10942 0.49494 0.0
C2664 C 0.86054 0.07847 0.47344 0.0
C2665 C 0.84883 0.12171 0.51035 0.0
C2666 C 0.87582 0.11225 0.50777 0.0
C2667 C 0.90811 0.07892 0.48909 0.0
C2668 C 0.91354 0.05527 0.473 0.0
C2669 C 0.88171 0.09027 0.48983 0.0
C2670 C 0.89299 0.04473 0.45545 0.0
C2671 C 0.8666 0.05636 0.45559 0.0
H2672 H 0.61011 0.11271 0.25337 0.0
H2673 H 0.6777 0.06552 0.22086 0.0
H2674 H 0.69723 0.10786 0.20017 0.0
H2675 H 0.70034 0.15923 0.20103 0.0
H2676 H 0.63398 0.20656 0.23592 0.0
H2677 H 0.60798 0.1634 0.24497 0.0
C2678 C 0.6289 0.11187 0.24145 0.0
C2679 C 0.64357 0.08692 0.23988 0.0
C2680 C 0.64005 0.13626 0.22992 0.0
C2681 C 0.66712 0.08524 0.22345 0.0
C2682 C 0.67803 0.10926 0.21134 0.0
C2683 C 0.67958 0.16006 0.20926 0.0
C2684 C 0.66921 0.18562 0.2184 0.0
C2685 C 0.66551 0.13515 0.21578 0.0
C2686 C 0.64235 0.18677 0.22911 0.0
C2687 C 0.62768 0.16215 0.23463 0.0
H2688 H 0.68692 0.89582 0.991 0.0
H2689 H 0.72469 0.97676 0.00761 0.0
H2690 H 0.67961 -0.00102 0.00425 0.0
H2691 H 0.62993 -0.00468 -0.00303 0.0
H2692 H 0.59161 0.91475 0.97964 0.0
H2693 H 0.63683 0.89246 0.98204 0.0
C2694 C 0.68515 0.91826 0.99424 0.0
C2695 C 0.70888 0.93465 -3e-05 0.0
C2696 C 0.65932 0.93095 0.9916 0.0
C2697 C 0.70658 0.96378 0.00341 0.0
C2698 C 0.6809 0.97647 0.00134 0.0
C2699 C 0.63141 0.97288 0.99351 0.0
C2700 C 0.60743 0.95668 0.9883 0.0
C2701 C 0.65722 0.96026 0.99536 0.0
C2702 C 0.60978 0.92771 0.98356 0.0
C2703 C 0.63557 0.91493 0.98521 0.0
H2704 H 0.4055 0.40684 0.25901 0.0
H2705 H 0.34355 0.46626 0.23602 0.0
H2706 H 0.31575 0.42887 0.21494 0.0
H2707 H 0.30561 0.37835 0.21045 0.0
H2708 H 0.36694 0.31881 0.23492 0.0
H2709 H 0.39881 0.35694 0.2473 0.0
C2710 C 0.386 0.41144 0.24918 0.0
C2711 C 0.37561 0.43867 0.25032 0.0
C2712 C 0.37017 0.38983 0.23717 0.0
C2713 C 0.35103 0.44495 0.23658 0.0
C2714 C 0.33535 0.4237 0.22422 0.0
C2715 C 0.32646 0.37384 0.21716 0.0
C2716 C 0.33404 0.34603 0.22181 0.0
C2717 C 0.34418 0.39587 0.22537 0.0
C2718 C 0.36086 0.34025 0.23111 0.0
C2719 C 0.37892 0.362 0.23855 0.0
H2720 H 0.17973 0.61152 0.03035 0.0
H2721 H 0.14723 0.66942 0.97193 0.0
H2722 H 0.09994 0.65422 0.98308 0.0
H2723 H 0.06965 0.61941 0.00366 0.0
H2724 H 0.10257 0.558 0.05879 0.0
H2725 H 0.14812 0.58087 0.05607 0.0
C2726 C 0.16215 0.62076 0.02019 0.0
C2727 C 0.16641 0.64035 -0.00054 0.0
C2728 C 0.13541 0.61164 0.02647 0.0
C2729 C 0.14397 0.65352 0.98728 0.0
C2730 C 0.11714 0.64496 0.99376 0.0
C2731 C 0.08664 0.61113 0.01542 0.0
C2732 C 0.0831 0.58639 0.03058 0.0
C2733 C 0.11282 0.6232 0.01243 0.0
C2734 C 0.10498 0.5767 0.04657 0.0
C2735 C 0.13101 0.58962 0.04484 0.0
H2736 H 0.64545 0.93516 0.29517 0.0
H2737 H 0.72635 0.97461 0.29342 0.0
H2738 H 0.74797 0.92864 0.29686 0.0
H2739 H 0.74346 0.87696 0.29407 0.0
H2740 H 0.66233 0.83838 0.29322 0.0
H2741 H 0.64097 0.88438 0.29753 0.0
C2742 C 0.66782 0.93372 0.29573 0.0
C2743 C 0.68433 0.95801 0.2934 0.0
C2744 C 0.67997 0.90742 0.29731 0.0
C2745 C 0.71326 0.95604 0.2949 0.0
C2746 C 0.72561 0.92981 0.2968 0.0
C2747 C 0.72118 0.87883 0.29563 0.0
C2748 C 0.70426 0.85484 0.29351 0.0
C2749 C 0.70914 0.90533 0.29717 0.0
C2750 C 0.67546 0.85694 0.29504 0.0
C2751 C 0.66334 0.88311 0.2973 0.0
H2752 H 0.82079 0.0582 0.80457 0.0
H2753 H 0.89023 0.08982 0.75832 0.0
H2754 H 0.87364 0.13777 0.76423 0.0
H2755 H 0.83687 0.16994 0.77884 0.0
H2756 H 0.76611 0.13677 0.82178 0.0
H2757 H 0.78614 0.09001 0.82129 0.0
C2758 C 0.83256 0.07548 0.79584 0.0
C2759 C 0.8566 0.07029 0.78071 0.0
C2760 C 0.82268 0.10271 0.79886 0.0
C2761 C 0.87154 0.09314 0.76987 0.0
C2762 C 0.86208 0.12056 0.77326 0.0
C2763 C 0.82626 0.15254 0.78866 0.0
C2764 C 0.80017 0.15661 0.80044 0.0
C2765 C 0.83736 0.12551 0.78726 0.0
C2766 C 0.78624 0.13397 0.81265 0.0
C2767 C 0.7976 0.10729 0.81224 0.0
loop_
_geom_bond_atom_site_label_1
_geom_bond_atom_site_label_2
_geom_bond_distance
_geom_bond_site_symmetry_2
_ccdc_geom_bond_type
Mn0 O5 2.095 . S
Mn0 O15 2.162 . S
Mn0 O16 2.297 . S
Mn0 O24 2.385 . S
Mn0 O25 2.209 . S
Mn0 O26 2.094 1_455 S
Mn1 O6 2.121 . S
Mn1 N8 2.257 . S
Mn1 N17 2.282 . S
Mn1 O25 2.215 1_655 S
Mn1 O27 2.117 . S
C2 O24 1.234 . S
C2 O25 1.283 . S
C3 O15 1.281 . S
C3 O16 1.236 . S
C4 O26 1.240 . S
C4 O27 1.264 . S
O5 Mn0 2.095 . S
O5 C14 1.248 1_455 S
O6 Mn1 2.121 . S
O6 C14 1.265 . S
C7 N8 1.326 . S
C7 C11 1.460 . S
C7 H13 0.929 . S
N8 Mn1 2.257 . S
N8 C7 1.326 . S
N8 C12 1.362 . S
C9 C10 1.258 1_554 S
C9 C12 1.431 . S
C9 C29 1.449 . S
C10 C9 1.258 1_556 S
C10 C11 1.477 1_556 S
C10 H30 0.931 . S
C11 C7 1.460 . S
C11 C10 1.477 1_554 S
C11 H31 0.930 1_554 S
C12 N8 1.362 . S
C12 C9 1.431 . S
C12 C22 1.476 . S
H13 C7 0.929 . S
C14 O5 1.248 1_655 S
C14 O6 1.265 . S
O15 Mn0 2.162 . S
O15 C3 1.281 . S
O16 Mn0 2.297 . S
O16 C3 1.236 . S
N17 Mn1 2.282 . S
N17 C18 1.328 . S
N17 C22 1.318 . S
C18 N17 1.328 . S
C18 C19 1.457 . S
C18 H23 0.929 . S
C19 C18 1.457 . S
C19 C20 1.291 . S
C19 H32 0.931 . S
C20 C19 1.291 . S
C20 C21 1.373 . S
C20 H33 0.929 . S
C21 C20 1.373 . S
C21 C22 1.396 . S
C21 C28 1.403 . S
C22 C12 1.476 . S
C22 N17 1.318 . S
C22 C21 1.396 . S
H23 C18 0.929 . S
O24 Mn0 2.385 . S
O24 C2 1.234 . S
O25 Mn0 2.209 . S
O25 Mn1 2.215 1_455 S
O25 C2 1.283 . S
O26 Mn0 2.094 1_655 S
O26 C4 1.240 . S
O27 Mn1 2.117 . S
O27 C4 1.264 . S
C28 C21 1.403 . S
C28 C29 1.399 . S
C28 H34 0.929 . S
C29 C9 1.449 . S
C29 C28 1.399 . S
C29 H35 0.930 1_554 S
H30 C10 0.931 . S
H31 C11 0.930 1_556 S
H32 C19 0.931 . S
H33 C20 0.929 . S
H34 C28 0.929 . S
H35 C29 0.930 1_556 S
Mn36 O41 2.095 . S
Mn36 O51 2.162 . S
Mn36 O52 2.297 . S
Mn36 O60 2.385 . S
Mn36 O61 2.209 . S
Mn36 O62 2.094 1_455 S
Mn37 O42 2.121 . S
Mn37 N44 2.257 . S
Mn37 N53 2.282 . S
Mn37 O61 2.215 1_655 S
Mn37 O63 2.117 . S
C38 O60 1.234 . S
C38 O61 1.283 . S
C39 O51 1.281 . S
C39 O52 1.236 . S
C40 O62 1.240 . S
C40 O63 1.264 . S
O41 Mn36 2.095 . S
O41 C50 1.246 1_455 S
O42 Mn37 2.121 . S
O42 C50 1.281 . S
C43 N44 1.326 . S
C43 C47 1.460 . S
C43 H49 0.929 . S
N44 Mn37 2.257 . S
N44 C43 1.326 . S
N44 C48 1.362 . S
C45 C46 1.258 . S
C45 C48 1.431 . S
C45 C65 1.449 . S
C46 C45 1.258 . S
C46 C47 1.477 . S
C46 H66 0.931 . S
C47 C43 1.460 . S
C47 C46 1.477 . S
C47 H67 0.930 . S
C48 N44 1.362 . S
C48 C45 1.431 . S
C48 C58 1.476 . S
H49 C43 0.929 . S
C50 O41 1.246 1_655 S
C50 O42 1.281 . S
O51 Mn36 2.162 . S
O51 C39 1.281 . S
O52 Mn36 2.297 . S
O52 C39 1.236 . S
N53 Mn37 2.282 . S
N53 C54 1.328 . S
N53 C58 1.318 . S
C54 N53 1.328 . S
C54 C55 1.457 . S
C54 H59 0.929 . S
C55 C54 1.457 . S
C55 C56 1.291 . S
C55 H68 0.931 . S
C56 C55 1.291 . S
C56 C57 1.373 . S
C56 H69 0.929 . S
C57 C56 1.373 . S
C57 C58 1.396 . S
C57 C64 1.403 . S
C58 C48 1.476 . S
C58 N53 1.318 . S
C58 C57 1.396 . S
H59 C54 0.929 . S
O60 Mn36 2.385 . S
O60 C38 1.234 . S
O61 Mn36 2.209 . S
O61 Mn37 2.215 1_455 S
O61 C38 1.283 . S
O62 Mn36 2.094 1_655 S
O62 C40 1.240 . S
O63 Mn37 2.117 . S
O63 C40 1.264 . S
C64 C57 1.403 . S
C64 C65 1.399 . S
C64 H70 0.929 . S
C65 C45 1.449 . S
C65 C64 1.399 . S
C65 H71 0.930 . S
H66 C46 0.931 . S
H67 C47 0.930 . S
H68 C55 0.931 . S
H69 C56 0.929 . S
H70 C64 0.929 . S
H71 C65 0.930 . S
Mn72 O77 2.095 . S
Mn72 O87 2.162 . S
Mn72 O88 2.297 . S
Mn72 O96 2.385 . S
Mn72 O97 2.209 . S
Mn72 O98 2.094 . S
Mn73 O78 2.121 . S
Mn73 N80 2.257 . S
Mn73 N89 2.282 . S
Mn73 O97 2.215 . S
Mn73 O99 2.117 . S
C74 O96 1.234 . S
C74 O97 1.283 . S
C75 O87 1.281 . S
C75 O88 1.236 . S
C76 O98 1.240 . S
C76 O99 1.264 . S
O77 Mn72 2.095 . S
O77 C86 1.250 . S
O78 Mn73 2.121 . S
O78 C86 1.258 . S
C79 N80 1.326 . S
C79 C83 1.460 . S
C79 H85 0.929 . S
N80 Mn73 2.257 . S
N80 C79 1.326 . S
N80 C84 1.362 . S
C81 C82 1.258 . S
C81 C84 1.431 . S
C81 C101 1.449 . S
C82 C81 1.258 . S
C82 C83 1.477 . S
C82 H102 0.931 . S
C83 C79 1.460 . S
C83 C82 1.477 . S
C83 H103 0.930 . S
C84 N80 1.362 . S
C84 C81 1.431 . S
C84 C94 1.476 . S
H85 C79 0.929 . S
C86 O77 1.250 . S
C86 O78 1.258 . S
O87 Mn72 2.162 . S
O87 C75 1.281 . S
O88 Mn72 2.297 . S
O88 C75 1.236 . S
N89 Mn73 2.282 . S
N89 C90 1.328 . S
N89 C94 1.318 . S
C90 N89 1.328 . S
C90 C91 1.457 . S
C90 H95 0.929 . S
C91 C90 1.457 . S
C91 C92 1.291 . S
C91 H104 0.931 . S
C92 C91 1.291 . S
C92 C93 1.373 . S
C92 H105 0.929 . S
C93 C92 1.373 . S
C93 C94 1.396 . S
C93 C100 1.403 . S
C94 C84 1.476 . S
C94 N89 1.318 . S
C94 C93 1.396 . S
H95 C90 0.929 . S
O96 Mn72 2.385 . S
O96 C74 1.234 . S
O97 Mn72 2.209 . S
O97 Mn73 2.215 . S
O97 C74 1.283 . S
O98 Mn72 2.094 . S
O98 C76 1.240 . S
O99 Mn73 2.117 . S
O99 C76 1.264 . S
C100 C93 1.403 . S
C100 C101 1.399 . S
C100 H106 0.929 . S
C101 C81 1.449 . S
C101 C100 1.399 . S
C101 H107 0.930 . S
H102 C82 0.931 . S
H103 C83 0.930 . S
H104 C91 0.931 . S
H105 C92 0.929 . S
H106 C100 0.929 . S
H107 C101 0.930 . S
Mn108 O113 2.095 . S
Mn108 O123 2.162 . S
Mn108 O124 2.297 . S
Mn108 O132 2.385 . S
Mn108 O133 2.209 . S
Mn108 O134 2.094 . S
Mn109 O114 2.121 . S
Mn109 N116 2.257 . S
Mn109 N125 2.282 . S
Mn109 O133 2.215 . S
Mn109 O135 2.117 . S
C110 O132 1.234 . S
C110 O133 1.283 . S
C111 O123 1.281 . S
C111 O124 1.236 . S
C112 O134 1.240 . S
C112 O135 1.264 . S
O113 Mn108 2.095 . S
O113 C122 1.250 . S
O114 Mn109 2.121 . S
O114 C122 1.258 . S
C115 N116 1.326 . S
C115 C119 1.460 1_556 S
C115 H121 0.929 . S
N116 Mn109 2.257 . S
N116 C115 1.326 . S
N116 C120 1.362 . S
C117 C118 1.258 . S
C117 C120 1.431 1_554 S
C117 C137 1.449 . S
C118 C117 1.258 . S
C118 C119 1.477 . S
C118 H138 0.931 . S
C119 C115 1.460 1_554 S
C119 C118 1.477 . S
C119 H139 0.930 . S
C120 N116 1.362 . S
C120 C117 1.431 1_556 S
C120 C130 1.476 . S
H121 C115 0.929 . S
C122 O113 1.250 . S
C122 O114 1.258 . S
O123 Mn108 2.162 . S
O123 C111 1.281 . S
O124 Mn108 2.297 . S
O124 C111 1.236 . S
N125 Mn109 2.282 . S
N125 C126 1.328 . S
N125 C130 1.318 . S
C126 N125 1.328 . S
C126 C127 1.457 . S
C126 H131 0.929 . S
C127 C126 1.457 . S
C127 C128 1.291 . S
C127 H140 0.931 . S
C128 C127 1.291 . S
C128 C129 1.373 . S
C128 H141 0.929 . S
C129 C128 1.373 . S
C129 C130 1.396 . S
C129 C136 1.403 . S
C130 C120 1.476 . S
C130 N125 1.318 . S
C130 C129 1.396 . S
H131 C126 0.929 . S
O132 Mn108 2.385 . S
O132 C110 1.234 . S
O133 Mn108 2.209 . S
O133 Mn109 2.215 . S
O133 C110 1.283 . S
O134 Mn108 2.094 . S
O134 C112 1.240 . S
O135 Mn109 2.117 . S
O135 C112 1.264 . S
C136 C129 1.403 . S
C136 C137 1.399 1_556 S
C136 H142 0.929 1_556 S
C137 C117 1.449 . S
C137 C136 1.399 1_554 S
C137 H143 0.930 . S
H138 C118 0.931 . S
H139 C119 0.930 . S
H140 C127 0.931 . S
H141 C128 0.929 . S
H142 C136 0.929 1_554 S
H143 C137 0.930 . S
Mn144 O149 2.095 1_545 S
Mn144 O159 2.162 . S
Mn144 O160 2.297 . S
Mn144 O168 2.385 . S
Mn144 O169 2.209 . S
Mn144 O170 2.094 . S
Mn145 O150 2.121 1_545 S
Mn145 N152 2.257 . S
Mn145 N161 2.282 . S
Mn145 O169 2.215 . S
Mn145 O171 2.117 . S
C146 O168 1.234 . S
C146 O169 1.283 . S
C147 O159 1.281 . S
C147 O160 1.236 . S
C148 O170 1.240 . S
C148 O171 1.264 . S
O149 Mn144 2.095 1_565 S
O149 C158 1.250 . S
O150 Mn145 2.121 1_565 S
O150 C158 1.258 . S
C151 N152 1.326 . S
C151 C155 1.460 . S
C151 H157 0.929 . S
N152 Mn145 2.257 . S
N152 C151 1.326 . S
N152 C156 1.362 . S
C153 C154 1.258 . S
C153 C156 1.431 . S
C153 C173 1.449 . S
C154 C153 1.258 . S
C154 C155 1.477 . S
C154 H174 0.931 . S
C155 C151 1.460 . S
C155 C154 1.477 . S
C155 H175 0.930 . S
C156 N152 1.362 . S
C156 C153 1.431 . S
C156 C166 1.476 . S
H157 C151 0.929 . S
C158 O149 1.250 . S
C158 O150 1.258 . S
O159 Mn144 2.162 . S
O159 C147 1.281 . S
O160 Mn144 2.297 . S
O160 C147 1.236 . S
N161 Mn145 2.282 . S
N161 C162 1.328 . S
N161 C166 1.318 . S
C162 N161 1.328 . S
C162 C163 1.457 . S
C162 H167 0.929 . S
C163 C162 1.457 . S
C163 C164 1.291 . S
C163 H176 0.931 . S
C164 C163 1.291 . S
C164 C165 1.373 . S
C164 H177 0.929 . S
C165 C164 1.373 . S
C165 C166 1.396 . S
C165 C172 1.403 . S
C166 C156 1.476 . S
C166 N161 1.318 . S
C166 C165 1.396 . S
H167 C162 0.929 . S
O168 Mn144 2.385 . S
O168 C146 1.234 . S
O169 Mn144 2.209 . S
O169 Mn145 2.215 . S
O169 C146 1.283 . S
O170 Mn144 2.094 . S
O170 C148 1.240 . S
O171 Mn145 2.117 . S
O171 C148 1.264 . S
C172 C165 1.403 . S
C172 C173 1.399 . S
C172 H178 0.929 . S
C173 C153 1.449 . S
C173 C172 1.399 . S
C173 H179 0.930 . S
H174 C154 0.931 . S
H175 C155 0.930 . S
H176 C163 0.931 . S
H177 C164 0.929 . S
H178 C172 0.929 . S
H179 C173 0.930 . S
Mn180 O185 2.095 . S
Mn180 O195 2.162 . S
Mn180 O196 2.297 . S
Mn180 O204 2.385 . S
Mn180 O205 2.209 . S
Mn180 O206 2.094 . S
Mn181 O186 2.121 . S
Mn181 N188 2.257 . S
Mn181 N197 2.282 . S
Mn181 O205 2.215 . S
Mn181 O207 2.117 . S
C182 O204 1.234 . S
C182 O205 1.283 . S
C183 O195 1.281 . S
C183 O196 1.236 . S
C184 O206 1.240 . S
C184 O207 1.264 . S
O185 Mn180 2.095 . S
O185 C194 1.250 . S
O186 Mn181 2.121 . S
O186 C194 1.258 . S
C187 N188 1.326 1_545 S
C187 C191 1.460 . S
C187 H193 0.930 1_545 S
N188 Mn181 2.257 . S
N188 C187 1.326 1_565 S
N188 C192 1.362 . S
C189 C190 1.258 . S
C189 C192 1.431 1_545 S
C189 C209 1.449 . S
C190 C189 1.258 . S
C190 C191 1.477 . S
C190 H210 0.931 . S
C191 C187 1.460 . S
C191 C190 1.477 . S
C191 H211 0.930 . S
C192 N188 1.362 . S
C192 C189 1.431 1_565 S
C192 C202 1.476 . S
H193 C187 0.930 1_565 S
C194 O185 1.250 . S
C194 O186 1.258 . S
O195 Mn180 2.162 . S
O195 C183 1.281 . S
O196 Mn180 2.297 . S
O196 C183 1.236 . S
N197 Mn181 2.282 . S
N197 C198 1.328 . S
N197 C202 1.318 . S
C198 N197 1.328 . S
C198 C199 1.457 . S
C198 H203 0.929 . S
C199 C198 1.457 . S
C199 C200 1.291 . S
C199 H212 0.931 . S
C200 C199 1.291 . S
C200 C201 1.373 . S
C200 H213 0.929 . S
C201 C200 1.373 . S
C201 C202 1.396 . S
C201 C208 1.403 1_565 S
C202 C192 1.476 . S
C202 N197 1.318 . S
C202 C201 1.396 . S
H203 C198 0.929 . S
O204 Mn180 2.385 . S
O204 C182 1.234 . S
O205 Mn180 2.209 . S
O205 Mn181 2.215 . S
O205 C182 1.283 . S
O206 Mn180 2.094 . S
O206 C184 1.240 . S
O207 Mn181 2.117 . S
O207 C184 1.264 . S
C208 C201 1.403 1_545 S
C208 C209 1.399 . S
C208 H214 0.929 . S
C209 C189 1.449 . S
C209 C208 1.399 . S
C209 H215 0.930 . S
H210 C190 0.931 . S
H211 C191 0.930 . S
H212 C199 0.931 . S
H213 C200 0.929 . S
H214 C208 0.929 . S
H215 C209 0.930 . S
Mn216 O221 2.081 1_565 S
Mn216 O231 2.161 1_565 S
Mn216 O232 2.297 . S
Mn216 O240 2.401 . S
Mn216 O241 2.216 . S
Mn216 O242 2.094 . S
Mn217 O222 2.121 1_565 S
Mn217 N224 2.257 . S
Mn217 N233 2.282 . S
Mn217 O241 2.215 . S
Mn217 O243 2.117 . S
C218 O240 1.234 . S
C218 O241 1.283 . S
C219 O231 1.283 . S
C219 O232 1.235 1_545 S
C220 O242 1.240 . S
C220 O243 1.264 . S
O221 Mn216 2.081 1_545 S
O221 C230 1.250 . S
O222 Mn217 2.121 1_545 S
O222 C230 1.258 . S
C223 N224 1.326 1_545 S
C223 C227 1.460 1_545 S
C223 H229 0.929 . S
N224 Mn217 2.257 . S
N224 C223 1.326 1_565 S
N224 C228 1.362 . S
C225 C226 1.258 . S
C225 C228 1.431 . S
C225 C245 1.449 . S
C226 C225 1.258 . S
C226 C227 1.477 . S
C226 H246 0.931 . S
C227 C223 1.460 1_565 S
C227 C226 1.477 . S
C227 H247 0.930 1_565 S
C228 N224 1.362 . S
C228 C225 1.431 . S
C228 C238 1.476 . S
H229 C223 0.929 . S
C230 O221 1.250 . S
C230 O222 1.258 . S
O231 Mn216 2.161 1_545 S
O231 C219 1.283 . S
O232 Mn216 2.297 . S
O232 C219 1.235 1_565 S
N233 Mn217 2.282 . S
N233 C234 1.328 . S
N233 C238 1.318 . S
C234 N233 1.328 . S
C234 C235 1.457 . S
C234 H239 0.929 . S
C235 C234 1.457 . S
C235 C236 1.291 . S
C235 H248 0.931 . S
C236 C235 1.291 . S
C236 C237 1.373 . S
C236 H249 0.929 . S
C237 C236 1.373 . S
C237 C238 1.396 . S
C237 C244 1.403 . S
C238 C228 1.476 . S
C238 N233 1.318 . S
C238 C237 1.396 . S
H239 C234 0.929 . S
O240 Mn216 2.401 . S
O240 C218 1.234 . S
O241 Mn216 2.216 . S
O241 Mn217 2.215 . S
O241 C218 1.283 . S
O242 Mn216 2.094 . S
O242 C220 1.240 . S
O243 Mn217 2.117 . S
O243 C220 1.264 . S
C244 C237 1.403 . S
C244 C245 1.399 . S
C244 H250 0.929 . S
C245 C225 1.449 . S
C245 C244 1.399 . S
C245 H251 0.930 . S
H246 C226 0.931 . S
H247 C227 0.930 1_545 S
H248 C235 0.931 . S
H249 C236 0.929 . S
H250 C244 0.929 . S
H251 C245 0.930 . S
Mn252 O257 2.095 . S
Mn252 O267 2.162 . S
Mn252 O268 2.297 . S
Mn252 O276 2.385 . S
Mn252 O277 2.209 . S
Mn252 O278 2.094 1_554 S
Mn253 O258 2.121 . S
Mn253 N260 2.257 . S
Mn253 N269 2.282 . S
Mn253 O277 2.215 1_556 S
Mn253 O279 2.117 . S
C254 O276 1.234 . S
C254 O277 1.283 . S
C255 O267 1.281 . S
C255 O268 1.236 . S
C256 O278 1.240 . S
C256 O279 1.264 . S
O257 Mn252 2.095 . S
O257 C266 1.254 . S
O258 Mn253 2.121 . S
O258 C266 1.242 1_556 S
C259 N260 1.326 . S
C259 C263 1.460 1_545 S
C259 H265 0.929 . S
N260 Mn253 2.257 . S
N260 C259 1.326 . S
N260 C264 1.362 . S
C261 C262 1.258 . S
C261 C264 1.431 1_565 S
C261 C281 1.449 . S
C262 C261 1.258 . S
C262 C263 1.477 . S
C262 H282 0.931 . S
C263 C259 1.460 1_565 S
C263 C262 1.477 . S
C263 H283 0.930 . S
C264 N260 1.362 . S
C264 C261 1.431 1_545 S
C264 C274 1.476 . S
H265 C259 0.929 . S
C266 O257 1.254 . S
C266 O258 1.242 1_554 S
O267 Mn252 2.162 . S
O267 C255 1.281 . S
O268 Mn252 2.297 . S
O268 C255 1.236 . S
N269 Mn253 2.282 . S
N269 C270 1.328 . S
N269 C274 1.318 . S
C270 N269 1.328 . S
C270 C271 1.457 . S
C270 H275 0.929 . S
C271 C270 1.457 . S
C271 C272 1.291 . S
C271 H284 0.931 . S
C272 C271 1.291 . S
C272 C273 1.373 . S
C272 H285 0.929 . S
C273 C272 1.373 . S
C273 C274 1.396 . S
C273 C280 1.403 . S
C274 C264 1.476 . S
C274 N269 1.318 . S
C274 C273 1.396 . S
H275 C270 0.929 . S
O276 Mn252 2.385 . S
O276 C254 1.234 . S
O277 Mn252 2.209 . S
O277 Mn253 2.215 1_554 S
O277 C254 1.283 . S
O278 Mn252 2.094 1_556 S
O278 C256 1.240 . S
O279 Mn253 2.117 . S
O279 C256 1.264 . S
C280 C273 1.403 . S
C280 C281 1.399 1_545 S
C280 H286 0.929 . S
C281 C261 1.449 . S
C281 C280 1.399 1_565 S
C281 H287 0.930 . S
H282 C262 0.931 . S
H283 C263 0.930 . S
H284 C271 0.931 . S
H285 C272 0.929 . S
H286 C280 0.929 . S
H287 C281 0.930 . S
Mn288 O293 2.095 . S
Mn288 O303 2.162 . S
Mn288 O304 2.297 . S
Mn288 O312 2.385 . S
Mn288 O313 2.209 . S
Mn288 O314 2.094 1_554 S
Mn289 O294 2.121 . S
Mn289 N296 2.257 . S
Mn289 N305 2.282 . S
Mn289 O313 2.215 1_556 S
Mn289 O315 2.117 . S
C290 O312 1.234 . S
C290 O313 1.283 . S
C291 O303 1.281 . S
C291 O304 1.236 . S
C292 O314 1.240 . S
C292 O315 1.264 . S
O293 Mn288 2.095 . S
O293 C302 1.251 . S
O294 Mn289 2.121 . S
O294 C302 1.253 1_556 S
C295 N296 1.326 . S
C295 C299 1.460 . S
C295 H301 0.929 . S
N296 Mn289 2.257 . S
N296 C295 1.326 . S
N296 C300 1.362 . S
C297 C298 1.258 . S
C297 C300 1.431 . S
C297 C317 1.449 . S
C298 C297 1.258 . S
C298 C299 1.477 . S
C298 H318 0.931 . S
C299 C295 1.460 . S
C299 C298 1.477 . S
C299 H319 0.930 . S
C300 N296 1.362 . S
C300 C297 1.431 . S
C300 C310 1.476 . S
H301 C295 0.929 . S
C302 O293 1.251 . S
C302 O294 1.253 1_554 S
O303 Mn288 2.162 . S
O303 C291 1.281 . S
O304 Mn288 2.297 . S
O304 C291 1.236 . S
N305 Mn289 2.282 . S
N305 C306 1.328 . S
N305 C310 1.318 . S
C306 N305 1.328 . S
C306 C307 1.457 . S
C306 H311 0.929 . S
C307 C306 1.457 . S
C307 C308 1.291 . S
C307 H320 0.931 . S
C308 C307 1.291 . S
C308 C309 1.373 . S
C308 H321 0.929 . S
C309 C308 1.373 . S
C309 C310 1.396 . S
C309 C316 1.403 . S
C310 C300 1.476 . S
C310 N305 1.318 . S
C310 C309 1.396 . S
H311 C306 0.929 . S
O312 Mn288 2.385 . S
O312 C290 1.234 . S
O313 Mn288 2.209 . S
O313 Mn289 2.215 1_554 S
O313 C290 1.283 . S
O314 Mn288 2.094 1_556 S
O314 C292 1.240 . S
O315 Mn289 2.117 . S
O315 C292 1.264 . S
C316 C309 1.403 . S
C316 C317 1.399 . S
C316 H322 0.929 . S
C317 C297 1.449 . S
C317 C316 1.399 . S
C317 H323 0.930 . S
H318 C298 0.931 . S
H319 C299 0.930 . S
H320 C307 0.931 . S
H321 C308 0.929 . S
H322 C316 0.929 . S
H323 C317 0.930 . S
Mn324 O329 2.095 . S
Mn324 O339 2.162 . S
Mn324 O340 2.297 . S
Mn324 O348 2.385 . S
Mn324 O349 2.209 . S
Mn324 O350 2.094 . S
Mn325 O330 2.121 . S
Mn325 N332 2.257 . S
Mn325 N341 2.282 . S
Mn325 O349 2.215 . S
Mn325 O351 2.117 . S
C326 O348 1.234 . S
C326 O349 1.283 . S
C327 O339 1.281 . S
C327 O340 1.236 . S
C328 O350 1.240 . S
C328 O351 1.264 . S
O329 Mn324 2.095 . S
O329 C338 1.250 . S
O330 Mn325 2.121 . S
O330 C338 1.258 . S
C331 N332 1.326 . S
C331 C335 1.460 . S
C331 H337 0.929 . S
N332 Mn325 2.257 . S
N332 C331 1.326 . S
N332 C336 1.362 . S
C333 C334 1.258 . S
C333 C336 1.431 . S
C333 C353 1.449 . S
C334 C333 1.258 . S
C334 C335 1.477 . S
C334 H354 0.931 . S
C335 C331 1.460 . S
C335 C334 1.477 . S
C335 H355 0.930 . S
C336 N332 1.362 . S
C336 C333 1.431 . S
C336 C346 1.476 . S
H337 C331 0.929 . S
C338 O329 1.250 . S
C338 O330 1.258 . S
O339 Mn324 2.162 . S
O339 C327 1.281 . S
O340 Mn324 2.297 . S
O340 C327 1.236 . S
N341 Mn325 2.282 . S
N341 C342 1.328 . S
N341 C346 1.318 . S
C342 N341 1.328 . S
C342 C343 1.457 . S
C342 H347 0.929 . S
C343 C342 1.457 . S
C343 C344 1.291 . S
C343 H356 0.931 . S
C344 C343 1.291 . S
C344 C345 1.373 . S
C344 H357 0.929 . S
C345 C344 1.373 . S
C345 C346 1.396 . S
C345 C352 1.403 . S
C346 C336 1.476 . S
C346 N341 1.318 . S
C346 C345 1.396 . S
H347 C342 0.929 . S
O348 Mn324 2.385 . S
O348 C326 1.234 . S
O349 Mn324 2.209 . S
O349 Mn325 2.215 . S
O349 C326 1.283 . S
O350 Mn324 2.094 . S
O350 C328 1.240 . S
O351 Mn325 2.117 . S
O351 C328 1.264 . S
C352 C345 1.403 . S
C352 C353 1.399 . S
C352 H358 0.929 . S
C353 C333 1.449 . S
C353 C352 1.399 . S
C353 H359 0.930 . S
H354 C334 0.931 . S
H355 C335 0.930 . S
H356 C343 0.931 . S
H357 C344 0.929 . S
H358 C352 0.929 . S
H359 C353 0.930 . S
Mn360 O365 2.095 . S
Mn360 O375 2.162 . S
Mn360 O376 2.297 . S
Mn360 O384 2.385 . S
Mn360 O385 2.209 . S
Mn360 O386 2.094 . S
Mn361 O366 2.121 . S
Mn361 N368 2.257 . S
Mn361 N377 2.282 . S
Mn361 O385 2.215 . S
Mn361 O387 2.117 . S
C362 O384 1.234 . S
C362 O385 1.283 . S
C363 O375 1.281 . S
C363 O376 1.236 . S
C364 O386 1.240 . S
C364 O387 1.264 . S
O365 Mn360 2.095 . S
O365 C374 1.250 . S
O366 Mn361 2.121 . S
O366 C374 1.258 . S
C367 N368 1.326 . S
C367 C371 1.460 . S
C367 H373 0.929 . S
N368 Mn361 2.257 . S
N368 C367 1.326 . S
N368 C372 1.362 . S
C369 C370 1.258 . S
C369 C372 1.431 . S
C369 C389 1.449 . S
C370 C369 1.258 . S
C370 C371 1.477 . S
C370 H390 0.931 . S
C371 C367 1.460 . S
C371 C370 1.477 . S
C371 H391 0.930 . S
C372 N368 1.362 . S
C372 C369 1.431 . S
C372 C382 1.476 . S
H373 C367 0.929 . S
C374 O365 1.250 . S
C374 O366 1.258 . S
O375 Mn360 2.162 . S
O375 C363 1.281 . S
O376 Mn360 2.297 . S
O376 C363 1.236 . S
N377 Mn361 2.282 . S
N377 C378 1.328 . S
N377 C382 1.318 . S
C378 N377 1.328 . S
C378 C379 1.457 . S
C378 H383 0.929 . S
C379 C378 1.457 . S
C379 C380 1.291 . S
C379 H392 0.931 . S
C380 C379 1.291 . S
C380 C381 1.373 . S
C380 H393 0.929 . S
C381 C380 1.373 . S
C381 C382 1.396 . S
C381 C388 1.403 . S
C382 C372 1.476 . S
C382 N377 1.318 . S
C382 C381 1.396 . S
H383 C378 0.929 . S
O384 Mn360 2.385 . S
O384 C362 1.234 . S
O385 Mn360 2.209 . S
O385 Mn361 2.215 . S
O385 C362 1.283 . S
O386 Mn360 2.094 . S
O386 C364 1.240 . S
O387 Mn361 2.117 . S
O387 C364 1.264 . S
C388 C381 1.403 . S
C388 C389 1.399 . S
C388 H394 0.929 . S
C389 C369 1.449 . S
C389 C388 1.399 . S
C389 H395 0.930 . S
H390 C370 0.931 . S
H391 C371 0.930 . S
H392 C379 0.931 . S
H393 C380 0.929 . S
H394 C388 0.929 . S
H395 C389 0.930 . S
Mn396 O401 2.095 . S
Mn396 O411 2.162 . S
Mn396 O412 2.297 . S
Mn396 O420 2.385 . S
Mn396 O421 2.209 . S
Mn396 O422 2.094 . S
Mn397 O402 2.121 . S
Mn397 N404 2.257 . S
Mn397 N413 2.282 . S
Mn397 O421 2.215 . S
Mn397 O423 2.117 . S
C398 O420 1.234 . S
C398 O421 1.283 . S
C399 O411 1.281 . S
C399 O412 1.236 . S
C400 O422 1.240 . S
C400 O423 1.264 . S
O401 Mn396 2.095 . S
O401 C410 1.250 . S
O402 Mn397 2.121 . S
O402 C410 1.258 . S
C403 N404 1.326 . S
C403 C407 1.460 . S
C403 H409 0.929 . S
N404 Mn397 2.257 . S
N404 C403 1.326 . S
N404 C408 1.362 . S
C405 C406 1.258 . S
C405 C408 1.431 . S
C405 C425 1.449 . S
C406 C405 1.258 . S
C406 C407 1.477 . S
C406 H426 0.931 . S
C407 C403 1.460 . S
C407 C406 1.477 . S
C407 H427 0.930 . S
C408 N404 1.362 . S
C408 C405 1.431 . S
C408 C418 1.476 . S
H409 C403 0.929 . S
C410 O401 1.250 . S
C410 O402 1.258 . S
O411 Mn396 2.162 . S
O411 C399 1.281 . S
O412 Mn396 2.297 . S
O412 C399 1.236 . S
N413 Mn397 2.282 . S
N413 C414 1.328 . S
N413 C418 1.318 . S
C414 N413 1.328 . S
C414 C415 1.457 . S
C414 H419 0.929 . S
C415 C414 1.457 . S
C415 C416 1.291 . S
C415 H428 0.931 . S
C416 C415 1.291 . S
C416 C417 1.373 . S
C416 H429 0.929 . S
C417 C416 1.373 . S
C417 C418 1.396 . S
C417 C424 1.403 . S
C418 C408 1.476 . S
C418 N413 1.318 . S
C418 C417 1.396 . S
H419 C414 0.929 . S
O420 Mn396 2.385 . S
O420 C398 1.234 . S
O421 Mn396 2.209 . S
O421 Mn397 2.215 . S
O421 C398 1.283 . S
O422 Mn396 2.094 . S
O422 C400 1.240 . S
O423 Mn397 2.117 . S
O423 C400 1.264 . S
C424 C417 1.403 . S
C424 C425 1.399 . S
C424 H430 0.929 . S
C425 C405 1.449 . S
C425 C424 1.399 . S
C425 H431 0.930 . S
H426 C406 0.931 . S
H427 C407 0.930 . S
H428 C415 0.931 . S
H429 C416 0.929 . S
H430 C424 0.929 . S
H431 C425 0.930 . S
Mn432 O437 2.102 . S
Mn432 O447 2.162 . S
Mn432 O448 2.297 . S
Mn432 O456 2.385 . S
Mn432 O457 2.209 . S
Mn432 O458 2.094 1_455 S
Mn433 O438 2.121 . S
Mn433 N440 2.257 . S
Mn433 N449 2.282 . S
Mn433 O457 2.215 1_655 S
Mn433 O459 2.117 . S
C434 O456 1.234 . S
C434 O457 1.283 . S
C435 O447 1.281 . S
C435 O448 1.236 . S
C436 O458 1.240 . S
C436 O459 1.264 . S
O437 Mn432 2.102 . S
O437 C446 1.246 1_455 S
O438 Mn433 2.121 . S
O438 C446 1.258 . S
C439 N440 1.326 . S
C439 C443 1.460 1_556 S
C439 H445 0.929 . S
N440 Mn433 2.257 . S
N440 C439 1.326 . S
N440 C444 1.362 . S
C441 C442 1.258 . S
C441 C444 1.431 1_554 S
C441 C461 1.449 . S
C442 C441 1.258 . S
C442 C443 1.477 . S
C442 H462 0.931 . S
C443 C439 1.460 1_554 S
C443 C442 1.477 . S
C443 H463 0.930 . S
C444 N440 1.362 . S
C444 C441 1.431 1_556 S
C444 C454 1.476 . S
H445 C439 0.929 . S
C446 O437 1.246 1_655 S
C446 O438 1.258 . S
O447 Mn432 2.162 . S
O447 C435 1.281 . S
O448 Mn432 2.297 . S
O448 C435 1.236 . S
N449 Mn433 2.282 . S
N449 C450 1.328 . S
N449 C454 1.318 . S
C450 N449 1.328 . S
C450 C451 1.457 . S
C450 H455 0.929 . S
C451 C450 1.457 . S
C451 C452 1.291 . S
C451 H464 0.931 . S
C452 C451 1.291 . S
C452 C453 1.373 . S
C452 H465 0.929 . S
C453 C452 1.373 . S
C453 C454 1.396 . S
C453 C460 1.403 . S
C454 C444 1.476 . S
C454 N449 1.318 . S
C454 C453 1.396 . S
H455 C450 0.929 . S
O456 Mn432 2.385 . S
O456 C434 1.234 . S
O457 Mn432 2.209 . S
O457 Mn433 2.215 1_455 S
O457 C434 1.283 . S
O458 Mn432 2.094 1_655 S
O458 C436 1.240 . S
O459 Mn433 2.117 . S
O459 C436 1.264 . S
C460 C453 1.403 . S
C460 C461 1.399 1_556 S
C460 H466 0.929 1_556 S
C461 C441 1.449 . S
C461 C460 1.399 1_554 S
C461 H467 0.930 . S
H462 C442 0.931 . S
H463 C443 0.930 . S
H464 C451 0.931 . S
H465 C452 0.929 . S
H466 C460 0.929 1_554 S
H467 C461 0.930 . S
Mn468 O473 2.095 . S
Mn468 O483 2.162 . S
Mn468 O484 2.297 . S
Mn468 O492 2.385 . S
Mn468 O493 2.209 . S
Mn468 O494 2.094 1_455 S
Mn469 O474 2.121 . S
Mn469 N476 2.257 . S
Mn469 N485 2.282 . S
Mn469 O493 2.215 1_655 S
Mn469 O495 2.117 . S
C470 O492 1.234 . S
C470 O493 1.283 . S
C471 O483 1.281 . S
C471 O484 1.236 . S
C472 O494 1.240 . S
C472 O495 1.264 . S
O473 Mn468 2.095 . S
O473 C482 1.247 1_455 S
O474 Mn469 2.121 . S
O474 C482 1.273 . S
C475 N476 1.326 . S
C475 C479 1.460 . S
C475 H481 0.929 . S
N476 Mn469 2.257 . S
N476 C475 1.326 . S
N476 C480 1.362 . S
C477 C478 1.258 . S
C477 C480 1.431 . S
C477 C497 1.449 . S
C478 C477 1.258 . S
C478 C479 1.477 . S
C478 H498 0.931 . S
C479 C475 1.460 . S
C479 C478 1.477 . S
C479 H499 0.930 . S
C480 N476 1.362 . S
C480 C477 1.431 . S
C480 C490 1.476 . S
H481 C475 0.929 . S
C482 O473 1.247 1_655 S
C482 O474 1.273 . S
O483 Mn468 2.162 . S
O483 C471 1.281 . S
O484 Mn468 2.297 . S
O484 C471 1.236 . S
N485 Mn469 2.282 . S
N485 C486 1.328 . S
N485 C490 1.318 . S
C486 N485 1.328 . S
C486 C487 1.457 . S
C486 H491 0.929 . S
C487 C486 1.457 . S
C487 C488 1.291 . S
C487 H500 0.931 . S
C488 C487 1.291 . S
C488 C489 1.373 . S
C488 H501 0.929 . S
C489 C488 1.373 . S
C489 C490 1.396 . S
C489 C496 1.403 . S
C490 C480 1.476 . S
C490 N485 1.318 . S
C490 C489 1.396 . S
H491 C486 0.929 . S
O492 Mn468 2.385 . S
O492 C470 1.234 . S
O493 Mn468 2.209 . S
O493 Mn469 2.215 1_455 S
O493 C470 1.283 . S
O494 Mn468 2.094 1_655 S
O494 C472 1.240 . S
O495 Mn469 2.117 . S
O495 C472 1.264 . S
C496 C489 1.403 . S
C496 C497 1.399 . S
C496 H502 0.929 . S
C497 C477 1.449 . S
C497 C496 1.399 . S
C497 H503 0.930 . S
H498 C478 0.931 . S
H499 C479 0.930 . S
H500 C487 0.931 . S
H501 C488 0.929 . S
H502 C496 0.929 . S
H503 C497 0.930 . S
Mn504 O509 2.095 . S
Mn504 O519 2.162 . S
Mn504 O520 2.297 . S
Mn504 O528 2.385 . S
Mn504 O529 2.209 . S
Mn504 O530 2.094 . S
Mn505 O510 2.121 . S
Mn505 N512 2.257 . S
Mn505 N521 2.282 . S
Mn505 O529 2.215 . S
Mn505 O531 2.117 . S
C506 O528 1.234 . S
C506 O529 1.283 . S
C507 O519 1.281 . S
C507 O520 1.236 . S
C508 O530 1.240 . S
C508 O531 1.264 . S
O509 Mn504 2.095 . S
O509 C518 1.250 . S
O510 Mn505 2.121 . S
O510 C518 1.258 . S
C511 N512 1.326 . S
C511 C515 1.460 . S
C511 H517 0.929 . S
N512 Mn505 2.257 . S
N512 C511 1.326 . S
N512 C516 1.362 . S
C513 C514 1.258 . S
C513 C516 1.431 . S
C513 C533 1.449 . S
C514 C513 1.258 . S
C514 C515 1.477 . S
C514 H534 0.931 . S
C515 C511 1.460 . S
C515 C514 1.477 . S
C515 H535 0.930 . S
C516 N512 1.362 . S
C516 C513 1.431 . S
C516 C526 1.476 . S
H517 C511 0.929 . S
C518 O509 1.250 . S
C518 O510 1.258 . S
O519 Mn504 2.162 . S
O519 C507 1.281 . S
O520 Mn504 2.297 . S
O520 C507 1.236 . S
N521 Mn505 2.282 . S
N521 C522 1.328 . S
N521 C526 1.318 . S
C522 N521 1.328 . S
C522 C523 1.457 . S
C522 H527 0.929 . S
C523 C522 1.457 . S
C523 C524 1.291 . S
C523 H536 0.931 . S
C524 C523 1.291 . S
C524 C525 1.373 . S
C524 H537 0.929 . S
C525 C524 1.373 . S
C525 C526 1.396 . S
C525 C532 1.403 . S
C526 C516 1.476 . S
C526 N521 1.318 . S
C526 C525 1.396 . S
H527 C522 0.929 . S
O528 Mn504 2.385 . S
O528 C506 1.234 . S
O529 Mn504 2.209 . S
O529 Mn505 2.215 . S
O529 C506 1.283 . S
O530 Mn504 2.094 . S
O530 C508 1.240 . S
O531 Mn505 2.117 . S
O531 C508 1.264 . S
C532 C525 1.403 . S
C532 C533 1.399 . S
C532 H538 0.929 . S
C533 C513 1.449 . S
C533 C532 1.399 . S
C533 H539 0.930 . S
H534 C514 0.931 . S
H535 C515 0.930 . S
H536 C523 0.931 . S
H537 C524 0.929 . S
H538 C532 0.929 . S
H539 C533 0.930 . S
Mn540 O545 2.095 . S
Mn540 O555 2.162 . S
Mn540 O556 2.297 . S
Mn540 O564 2.385 . S
Mn540 O565 2.209 . S
Mn540 O566 2.094 . S
Mn541 O546 2.121 . S
Mn541 N548 2.257 . S
Mn541 N557 2.282 . S
Mn541 O565 2.215 . S
Mn541 O567 2.117 . S
C542 O564 1.234 . S
C542 O565 1.283 . S
C543 O555 1.281 . S
C543 O556 1.236 . S
C544 O566 1.240 . S
C544 O567 1.264 . S
O545 Mn540 2.095 . S
O545 C554 1.250 . S
O546 Mn541 2.121 . S
O546 C554 1.258 . S
C547 N548 1.326 . S
C547 C551 1.460 . S
C547 H553 0.929 . S
N548 Mn541 2.257 . S
N548 C547 1.326 . S
N548 C552 1.362 . S
C549 C550 1.258 1_554 S
C549 C552 1.431 . S
C549 C569 1.449 . S
C550 C549 1.258 1_556 S
C550 C551 1.477 1_556 S
C550 H570 0.931 . S
C551 C547 1.460 . S
C551 C550 1.477 1_554 S
C551 H571 0.930 1_554 S
C552 N548 1.362 . S
C552 C549 1.431 . S
C552 C562 1.476 . S
H553 C547 0.929 . S
C554 O545 1.250 . S
C554 O546 1.258 . S
O555 Mn540 2.162 . S
O555 C543 1.281 . S
O556 Mn540 2.297 . S
O556 C543 1.236 . S
N557 Mn541 2.282 . S
N557 C558 1.328 . S
N557 C562 1.318 . S
C558 N557 1.328 . S
C558 C559 1.457 . S
C558 H563 0.929 . S
C559 C558 1.457 . S
C559 C560 1.291 . S
C559 H572 0.931 . S
C560 C559 1.291 . S
C560 C561 1.373 . S
C560 H573 0.929 . S
C561 C560 1.373 . S
C561 C562 1.396 . S
C561 C568 1.403 . S
C562 C552 1.476 . S
C562 N557 1.318 . S
C562 C561 1.396 . S
H563 C558 0.929 . S
O564 Mn540 2.385 . S
O564 C542 1.234 . S
O565 Mn540 2.209 . S
O565 Mn541 2.215 . S
O565 C542 1.283 . S
O566 Mn540 2.094 . S
O566 C544 1.240 . S
O567 Mn541 2.117 . S
O567 C544 1.264 . S
C568 C561 1.403 . S
C568 C569 1.399 . S
C568 H574 0.929 . S
C569 C549 1.449 . S
C569 C568 1.399 . S
C569 H575 0.930 1_554 S
H570 C550 0.931 . S
H571 C551 0.930 1_556 S
H572 C559 0.931 . S
H573 C560 0.929 . S
H574 C568 0.929 . S
H575 C569 0.930 1_556 S
Mn576 O581 2.095 . S
Mn576 O591 2.162 . S
Mn576 O592 2.297 . S
Mn576 O600 2.385 1_545 S
Mn576 O601 2.200 1_545 S
Mn576 O602 2.094 . S
Mn577 O582 2.121 . S
Mn577 N584 2.257 . S
Mn577 N593 2.282 1_545 S
Mn577 O601 2.206 1_545 S
Mn577 O603 2.117 . S
C578 O600 1.234 . S
C578 O601 1.302 . S
C579 O591 1.281 . S
C579 O592 1.236 . S
C580 O602 1.240 . S
C580 O603 1.264 . S
O581 Mn576 2.095 . S
O581 C590 1.250 . S
O582 Mn577 2.121 . S
O582 C590 1.258 . S
C583 N584 1.326 . S
C583 C587 1.460 . S
C583 H589 0.929 . S
N584 Mn577 2.257 . S
N584 C583 1.326 . S
N584 C588 1.362 1_545 S
C585 C586 1.258 . S
C585 C588 1.431 . S
C585 C605 1.449 . S
C586 C585 1.258 . S
C586 C587 1.477 1_565 S
C586 H606 0.931 . S
C587 C583 1.460 . S
C587 C586 1.477 1_545 S
C587 H607 0.930 . S
C588 N584 1.362 1_565 S
C588 C585 1.431 . S
C588 C598 1.476 . S
H589 C583 0.929 . S
C590 O581 1.250 . S
C590 O582 1.258 . S
O591 Mn576 2.162 . S
O591 C579 1.281 . S
O592 Mn576 2.297 . S
O592 C579 1.236 . S
N593 Mn577 2.282 1_565 S
N593 C594 1.328 . S
N593 C598 1.318 . S
C594 N593 1.328 . S
C594 C595 1.457 . S
C594 H599 0.929 . S
C595 C594 1.457 . S
C595 C596 1.291 . S
C595 H608 0.931 . S
C596 C595 1.291 . S
C596 C597 1.373 . S
C596 H609 0.929 . S
C597 C596 1.373 . S
C597 C598 1.396 . S
C597 C604 1.403 . S
C598 C588 1.476 . S
C598 N593 1.318 . S
C598 C597 1.396 . S
H599 C594 0.929 . S
O600 Mn576 2.385 1_565 S
O600 C578 1.234 . S
O601 Mn576 2.200 1_565 S
O601 Mn577 2.206 1_565 S
O601 C578 1.302 . S
O602 Mn576 2.094 . S
O602 C580 1.240 . S
O603 Mn577 2.117 . S
O603 C580 1.264 . S
C604 C597 1.403 . S
C604 C605 1.399 . S
C604 H610 0.929 . S
C605 C585 1.449 . S
C605 C604 1.399 . S
C605 H611 0.930 . S
H606 C586 0.931 . S
H607 C587 0.930 . S
H608 C595 0.931 . S
H609 C596 0.929 . S
H610 C604 0.929 . S
H611 C605 0.930 . S
Mn612 O617 2.095 . S
Mn612 O627 2.162 . S
Mn612 O628 2.297 . S
Mn612 O636 2.385 . S
Mn612 O637 2.209 . S
Mn612 O638 2.094 . S
Mn613 O618 2.121 . S
Mn613 N620 2.257 . S
Mn613 N629 2.282 . S
Mn613 O637 2.215 . S
Mn613 O639 2.117 . S
C614 O636 1.234 . S
C614 O637 1.283 . S
C615 O627 1.281 . S
C615 O628 1.236 . S
C616 O638 1.240 . S
C616 O639 1.264 . S
O617 Mn612 2.095 . S
O617 C626 1.250 . S
O618 Mn613 2.121 . S
O618 C626 1.258 . S
C619 N620 1.326 . S
C619 C623 1.460 . S
C619 H625 0.929 . S
N620 Mn613 2.257 . S
N620 C619 1.326 . S
N620 C624 1.362 . S
C621 C622 1.258 1_545 S
C621 C624 1.431 . S
C621 C641 1.449 . S
C622 C621 1.258 1_565 S
C622 C623 1.477 1_565 S
C622 H642 0.931 . S
C623 C619 1.460 . S
C623 C622 1.477 1_545 S
C623 H643 0.930 1_545 S
C624 N620 1.362 . S
C624 C621 1.431 . S
C624 C634 1.476 . S
H625 C619 0.929 . S
C626 O617 1.250 . S
C626 O618 1.258 . S
O627 Mn612 2.162 . S
O627 C615 1.281 . S
O628 Mn612 2.297 . S
O628 C615 1.236 . S
N629 Mn613 2.282 . S
N629 C630 1.328 . S
N629 C634 1.318 . S
C630 N629 1.328 . S
C630 C631 1.457 . S
C630 H635 0.929 . S
C631 C630 1.457 . S
C631 C632 1.291 . S
C631 H644 0.931 . S
C632 C631 1.291 . S
C632 C633 1.373 . S
C632 H645 0.929 . S
C633 C632 1.373 . S
C633 C634 1.396 . S
C633 C640 1.403 . S
C634 C624 1.476 . S
C634 N629 1.318 . S
C634 C633 1.396 . S
H635 C630 0.929 . S
O636 Mn612 2.385 . S
O636 C614 1.234 . S
O637 Mn612 2.209 . S
O637 Mn613 2.215 . S
O637 C614 1.283 . S
O638 Mn612 2.094 . S
O638 C616 1.240 . S
O639 Mn613 2.117 . S
O639 C616 1.264 . S
C640 C633 1.403 . S
C640 C641 1.399 . S
C640 H646 0.929 . S
C641 C621 1.449 . S
C641 C640 1.399 . S
C641 H647 0.930 1_545 S
H642 C622 0.931 . S
H643 C623 0.930 1_565 S
H644 C631 0.931 . S
H645 C632 0.929 . S
H646 C640 0.929 . S
H647 C641 0.930 1_565 S
Mn648 O653 2.095 1_545 S
Mn648 O663 2.162 1_545 S
Mn648 O664 2.297 . S
Mn648 O672 2.385 . S
Mn648 O673 2.209 . S
Mn648 O674 2.094 . S
Mn649 O654 2.121 1_545 S
Mn649 N656 2.257 . S
Mn649 N665 2.282 . S
Mn649 O673 2.215 . S
Mn649 O675 2.117 . S
C650 O672 1.234 . S
C650 O673 1.283 . S
C651 O663 1.281 1_545 S
C651 O664 1.236 . S
C652 O674 1.240 . S
C652 O675 1.264 . S
O653 Mn648 2.095 1_565 S
O653 C662 1.250 . S
O654 Mn649 2.121 1_565 S
O654 C662 1.258 . S
C655 N656 1.319 1_565 S
C655 C659 1.456 1_565 S
C655 H661 0.940 . S
N656 Mn649 2.257 . S
N656 C655 1.319 1_545 S
N656 C660 1.362 . S
C657 C658 1.258 . S
C657 C660 1.431 . S
C657 C677 1.449 . S
C658 C657 1.258 . S
C658 C659 1.477 . S
C658 H678 0.931 . S
C659 C655 1.456 1_545 S
C659 C658 1.477 . S
C659 H679 0.930 1_545 S
C660 N656 1.362 . S
C660 C657 1.431 . S
C660 C670 1.476 . S
H661 C655 0.940 . S
C662 O653 1.250 . S
C662 O654 1.258 . S
O663 Mn648 2.162 1_565 S
O663 C651 1.281 1_565 S
O664 Mn648 2.297 . S
O664 C651 1.236 . S
N665 Mn649 2.282 . S
N665 C666 1.328 . S
N665 C670 1.318 . S
C666 N665 1.328 . S
C666 C667 1.457 . S
C666 H671 0.929 . S
C667 C666 1.457 . S
C667 C668 1.291 . S
C667 H680 0.931 . S
C668 C667 1.291 . S
C668 C669 1.373 . S
C668 H681 0.929 . S
C669 C668 1.373 . S
C669 C670 1.396 . S
C669 C676 1.403 . S
C670 C660 1.476 . S
C670 N665 1.318 . S
C670 C669 1.396 . S
H671 C666 0.929 . S
O672 Mn648 2.385 . S
O672 C650 1.234 . S
O673 Mn648 2.209 . S
O673 Mn649 2.215 . S
O673 C650 1.283 . S
O674 Mn648 2.094 . S
O674 C652 1.240 . S
O675 Mn649 2.117 . S
O675 C652 1.264 . S
C676 C669 1.403 . S
C676 C677 1.399 . S
C676 H682 0.929 . S
C677 C657 1.449 . S
C677 C676 1.399 . S
C677 H683 0.930 . S
H678 C658 0.931 . S
H679 C659 0.930 1_565 S
H680 C667 0.931 . S
H681 C668 0.929 . S
H682 C676 0.929 . S
H683 C677 0.930 . S
Mn684 O689 2.089 1_554 S
Mn684 O699 2.162 . S
Mn684 O700 2.297 . S
Mn684 O708 2.385 . S
Mn684 O709 2.213 . S
Mn684 O710 2.094 1_554 S
Mn685 O690 2.121 . S
Mn685 N692 2.257 . S
Mn685 N701 2.282 . S
Mn685 O709 2.189 1_556 S
Mn685 O711 2.117 . S
C686 O708 1.234 . S
C686 O709 1.289 . S
C687 O699 1.281 . S
C687 O700 1.236 . S
C688 O710 1.240 . S
C688 O711 1.264 . S
O689 Mn684 2.089 1_556 S
O689 C698 1.254 . S
O690 Mn685 2.121 . S
O690 C698 1.258 . S
C691 N692 1.326 . S
C691 C695 1.460 1_565 S
C691 H697 0.929 . S
N692 Mn685 2.257 . S
N692 C691 1.326 . S
N692 C696 1.362 . S
C693 C694 1.258 . S
C693 C696 1.431 1_545 S
C693 C713 1.449 . S
C694 C693 1.258 . S
C694 C695 1.477 . S
C694 H714 0.931 . S
C695 C691 1.460 1_545 S
C695 C694 1.477 . S
C695 H715 0.930 . S
C696 N692 1.362 . S
C696 C693 1.431 1_565 S
C696 C706 1.476 . S
H697 C691 0.929 . S
C698 O689 1.254 . S
C698 O690 1.258 . S
O699 Mn684 2.162 . S
O699 C687 1.281 . S
O700 Mn684 2.297 . S
O700 C687 1.236 . S
N701 Mn685 2.282 . S
N701 C702 1.328 . S
N701 C706 1.318 . S
C702 N701 1.328 . S
C702 C703 1.457 . S
C702 H707 0.929 . S
C703 C702 1.457 . S
C703 C704 1.291 . S
C703 H716 0.931 . S
C704 C703 1.291 . S
C704 C705 1.373 . S
C704 H717 0.929 . S
C705 C704 1.373 . S
C705 C706 1.396 . S
C705 C712 1.403 . S
C706 C696 1.476 . S
C706 N701 1.318 . S
C706 C705 1.396 . S
H707 C702 0.929 . S
O708 Mn684 2.385 . S
O708 C686 1.234 . S
O709 Mn684 2.213 . S
O709 Mn685 2.189 1_554 S
O709 C686 1.289 . S
O710 Mn684 2.094 1_556 S
O710 C688 1.240 . S
O711 Mn685 2.117 . S
O711 C688 1.264 . S
C712 C705 1.403 . S
C712 C713 1.399 1_565 S
C712 H718 0.928 1_565 S
C713 C693 1.449 . S
C713 C712 1.399 1_545 S
C713 H719 0.930 . S
H714 C694 0.931 . S
H715 C695 0.930 . S
H716 C703 0.931 . S
H717 C704 0.929 . S
H718 C712 0.928 1_545 S
H719 C713 0.930 . S
Mn720 O725 2.095 1_554 S
Mn720 O735 2.162 . S
Mn720 O736 2.297 . S
Mn720 O744 2.385 . S
Mn720 O745 2.205 1_554 S
Mn720 O746 2.094 1_554 S
Mn721 O726 2.121 . S
Mn721 N728 2.257 . S
Mn721 N737 2.282 . S
Mn721 O745 2.235 . S
Mn721 O747 2.117 . S
C722 O744 1.234 . S
C722 O745 1.279 1_554 S
C723 O735 1.281 . S
C723 O736 1.236 . S
C724 O746 1.240 . S
C724 O747 1.264 . S
O725 Mn720 2.095 1_556 S
O725 C734 1.250 . S
O726 Mn721 2.121 . S
O726 C734 1.258 . S
C727 N728 1.326 . S
C727 C731 1.460 . S
C727 H733 0.929 . S
N728 Mn721 2.257 . S
N728 C727 1.326 . S
N728 C732 1.362 . S
C729 C730 1.258 . S
C729 C732 1.431 . S
C729 C749 1.449 . S
C730 C729 1.258 . S
C730 C731 1.477 . S
C730 H750 0.931 . S
C731 C727 1.460 . S
C731 C730 1.477 . S
C731 H751 0.930 . S
C732 N728 1.362 . S
C732 C729 1.431 . S
C732 C742 1.476 . S
H733 C727 0.929 . S
C734 O725 1.250 . S
C734 O726 1.258 . S
O735 Mn720 2.162 . S
O735 C723 1.281 . S
O736 Mn720 2.297 . S
O736 C723 1.236 . S
N737 Mn721 2.282 . S
N737 C738 1.328 . S
N737 C742 1.318 . S
C738 N737 1.328 . S
C738 C739 1.457 . S
C738 H743 0.929 . S
C739 C738 1.457 . S
C739 C740 1.291 . S
C739 H752 0.931 . S
C740 C739 1.291 . S
C740 C741 1.373 . S
C740 H753 0.929 . S
C741 C740 1.373 . S
C741 C742 1.396 . S
C741 C748 1.403 . S
C742 C732 1.476 . S
C742 N737 1.318 . S
C742 C741 1.396 . S
H743 C738 0.929 . S
O744 Mn720 2.385 . S
O744 C722 1.234 . S
O745 Mn720 2.205 1_556 S
O745 Mn721 2.235 . S
O745 C722 1.279 1_556 S
O746 Mn720 2.094 1_556 S
O746 C724 1.240 . S
O747 Mn721 2.117 . S
O747 C724 1.264 . S
C748 C741 1.403 . S
C748 C749 1.399 . S
C748 H754 0.929 . S
C749 C729 1.449 . S
C749 C748 1.399 . S
C749 H755 0.930 . S
H750 C730 0.931 . S
H751 C731 0.930 . S
H752 C739 0.931 . S
H753 C740 0.929 . S
H754 C748 0.929 . S
H755 C749 0.930 . S
Mn756 O761 2.095 . S
Mn756 O771 2.162 . S
Mn756 O772 2.297 . S
Mn756 O780 2.385 . S
Mn756 O781 2.209 . S
Mn756 O782 2.094 . S
Mn757 O762 2.121 . S
Mn757 N764 2.257 . S
Mn757 N773 2.282 . S
Mn757 O781 2.215 . S
Mn757 O783 2.117 . S
C758 O780 1.234 . S
C758 O781 1.283 . S
C759 O771 1.281 . S
C759 O772 1.236 . S
C760 O782 1.240 . S
C760 O783 1.264 . S
O761 Mn756 2.095 . S
O761 C770 1.250 . S
O762 Mn757 2.121 . S
O762 C770 1.258 . S
C763 N764 1.326 . S
C763 C767 1.460 . S
C763 H769 0.929 . S
N764 Mn757 2.257 . S
N764 C763 1.326 . S
N764 C768 1.362 . S
C765 C766 1.258 . S
C765 C768 1.431 . S
C765 C785 1.449 . S
C766 C765 1.258 . S
C766 C767 1.477 . S
C766 H786 0.931 . S
C767 C763 1.460 . S
C767 C766 1.477 . S
C767 H787 0.930 . S
C768 N764 1.362 . S
C768 C765 1.431 . S
C768 C778 1.476 . S
H769 C763 0.929 . S
C770 O761 1.250 . S
C770 O762 1.258 . S
O771 Mn756 2.162 . S
O771 C759 1.281 . S
O772 Mn756 2.297 . S
O772 C759 1.236 . S
N773 Mn757 2.282 . S
N773 C774 1.328 . S
N773 C778 1.318 . S
C774 N773 1.328 . S
C774 C775 1.457 . S
C774 H779 0.929 . S
C775 C774 1.457 . S
C775 C776 1.291 . S
C775 H788 0.931 . S
C776 C775 1.291 . S
C776 C777 1.373 . S
C776 H789 0.929 . S
C777 C776 1.373 . S
C777 C778 1.396 . S
C777 C784 1.403 . S
C778 C768 1.476 . S
C778 N773 1.318 . S
C778 C777 1.396 . S
H779 C774 0.929 . S
O780 Mn756 2.385 . S
O780 C758 1.234 . S
O781 Mn756 2.209 . S
O781 Mn757 2.215 . S
O781 C758 1.283 . S
O782 Mn756 2.094 . S
O782 C760 1.240 . S
O783 Mn757 2.117 . S
O783 C760 1.264 . S
C784 C777 1.403 . S
C784 C785 1.399 . S
C784 H790 0.929 . S
C785 C765 1.449 . S
C785 C784 1.399 . S
C785 H791 0.930 . S
H786 C766 0.931 . S
H787 C767 0.930 . S
H788 C775 0.931 . S
H789 C776 0.929 . S
H790 C784 0.929 . S
H791 C785 0.930 . S
Mn792 O797 2.095 . S
Mn792 O807 2.162 . S
Mn792 O808 2.297 . S
Mn792 O816 2.385 . S
Mn792 O817 2.209 . S
Mn792 O818 2.094 . S
Mn793 O798 2.121 . S
Mn793 N800 2.257 . S
Mn793 N809 2.282 . S
Mn793 O817 2.215 . S
Mn793 O819 2.117 . S
C794 O816 1.234 . S
C794 O817 1.283 . S
C795 O807 1.281 . S
C795 O808 1.236 . S
C796 O818 1.240 . S
C796 O819 1.264 . S
O797 Mn792 2.095 . S
O797 C806 1.250 . S
O798 Mn793 2.121 . S
O798 C806 1.258 . S
C799 N800 1.326 . S
C799 C803 1.460 . S
C799 H805 0.929 . S
N800 Mn793 2.257 . S
N800 C799 1.326 . S
N800 C804 1.362 . S
C801 C802 1.258 . S
C801 C804 1.431 . S
C801 C821 1.449 . S
C802 C801 1.258 . S
C802 C803 1.477 . S
C802 H822 0.931 . S
C803 C799 1.460 . S
C803 C802 1.477 . S
C803 H823 0.930 . S
C804 N800 1.362 . S
C804 C801 1.431 . S
C804 C814 1.476 . S
H805 C799 0.929 . S
C806 O797 1.250 . S
C806 O798 1.258 . S
O807 Mn792 2.162 . S
O807 C795 1.281 . S
O808 Mn792 2.297 . S
O808 C795 1.236 . S
N809 Mn793 2.282 . S
N809 C810 1.328 . S
N809 C814 1.318 . S
C810 N809 1.328 . S
C810 C811 1.457 . S
C810 H815 0.929 . S
C811 C810 1.457 . S
C811 C812 1.291 . S
C811 H824 0.931 . S
C812 C811 1.291 . S
C812 C813 1.373 . S
C812 H825 0.929 . S
C813 C812 1.373 . S
C813 C814 1.396 . S
C813 C820 1.403 . S
C814 C804 1.476 . S
C814 N809 1.318 . S
C814 C813 1.396 . S
H815 C810 0.929 . S
O816 Mn792 2.385 . S
O816 C794 1.234 . S
O817 Mn792 2.209 . S
O817 Mn793 2.215 . S
O817 C794 1.283 . S
O818 Mn792 2.094 . S
O818 C796 1.240 . S
O819 Mn793 2.117 . S
O819 C796 1.264 . S
C820 C813 1.403 . S
C820 C821 1.399 . S
C820 H826 0.929 . S
C821 C801 1.449 . S
C821 C820 1.399 . S
C821 H827 0.930 . S
H822 C802 0.931 . S
H823 C803 0.930 . S
H824 C811 0.931 . S
H825 C812 0.929 . S
H826 C820 0.929 . S
H827 C821 0.930 . S
Mn828 O833 2.095 . S
Mn828 O843 2.162 . S
Mn828 O844 2.297 . S
Mn828 O852 2.385 . S
Mn828 O853 2.209 . S
Mn828 O854 2.094 . S
Mn829 O834 2.121 . S
Mn829 N836 2.257 . S
Mn829 N845 2.282 . S
Mn829 O853 2.215 . S
Mn829 O855 2.117 . S
C830 O852 1.234 . S
C830 O853 1.283 . S
C831 O843 1.281 . S
C831 O844 1.236 . S
C832 O854 1.240 . S
C832 O855 1.264 . S
O833 Mn828 2.095 . S
O833 C842 1.250 . S
O834 Mn829 2.121 . S
O834 C842 1.258 . S
C835 N836 1.326 . S
C835 C839 1.460 . S
C835 H841 0.929 . S
N836 Mn829 2.257 . S
N836 C835 1.326 . S
N836 C840 1.362 . S
C837 C838 1.258 . S
C837 C840 1.431 . S
C837 C857 1.449 . S
C838 C837 1.258 . S
C838 C839 1.477 . S
C838 H858 0.931 . S
C839 C835 1.460 . S
C839 C838 1.477 . S
C839 H859 0.930 . S
C840 N836 1.362 . S
C840 C837 1.431 . S
C840 C850 1.476 . S
H841 C835 0.929 . S
C842 O833 1.250 . S
C842 O834 1.258 . S
O843 Mn828 2.162 . S
O843 C831 1.281 . S
O844 Mn828 2.297 . S
O844 C831 1.236 . S
N845 Mn829 2.282 . S
N845 C846 1.328 . S
N845 C850 1.318 . S
C846 N845 1.328 . S
C846 C847 1.457 . S
C846 H851 0.929 . S
C847 C846 1.457 . S
C847 C848 1.291 . S
C847 H860 0.931 . S
C848 C847 1.291 . S
C848 C849 1.373 . S
C848 H861 0.929 . S
C849 C848 1.373 . S
C849 C850 1.396 . S
C849 C856 1.403 . S
C850 C840 1.476 . S
C850 N845 1.318 . S
C850 C849 1.396 . S
H851 C846 0.929 . S
O852 Mn828 2.385 . S
O852 C830 1.234 . S
O853 Mn828 2.209 . S
O853 Mn829 2.215 . S
O853 C830 1.283 . S
O854 Mn828 2.094 . S
O854 C832 1.240 . S
O855 Mn829 2.117 . S
O855 C832 1.264 . S
C856 C849 1.403 . S
C856 C857 1.399 . S
C856 H862 0.929 . S
C857 C837 1.449 . S
C857 C856 1.399 . S
C857 H863 0.930 . S
H858 C838 0.931 . S
H859 C839 0.930 . S
H860 C847 0.931 . S
H861 C848 0.929 . S
H862 C856 0.929 . S
H863 C857 0.930 . S
O864 Zn865 1.953 . S
O864 C880 1.225 1_455 S
Zn865 O864 1.953 . S
Zn865 O866 1.949 . S
Zn865 O872 1.919 1_554 S
Zn865 O877 1.924 1_454 S
O866 Zn865 1.949 . S
O866 Zn867 1.923 1_545 S
O866 Zn868 1.950 1_455 S
O866 Zn869 1.945 1_444 S
Zn867 O866 1.923 1_565 S
Zn867 O870 1.933 . S
Zn867 O873 1.941 1_565 S
Zn867 O874 1.965 . S
Zn868 O866 1.950 1_655 S
Zn868 O875 1.938 . S
Zn868 O876 1.906 1_545 S
Zn868 O886 1.953 . S
Zn869 O866 1.945 1_666 S
Zn869 O871 1.942 . S
Zn869 O878 1.977 1_556 S
Zn869 O879 1.910 1_565 S
O870 Zn867 1.933 . S
O870 C881 1.226 1_554 S
O871 Zn869 1.942 . S
O871 C881 1.289 1_655 S
O872 Zn865 1.919 1_556 S
O872 C883 1.253 1_556 S
O873 Zn867 1.941 1_545 S
O873 C883 1.283 . S
O874 Zn867 1.965 . S
O874 C882 1.303 1_565 S
O875 Zn868 1.938 . S
O875 C882 1.247 1_655 S
O876 Zn868 1.906 1_565 S
O876 C884 1.304 . S
O877 Zn865 1.924 1_656 S
O877 C885 1.311 . S
O878 Zn869 1.977 1_554 S
O878 C884 1.272 . S
O879 Zn869 1.910 1_545 S
O879 C885 1.231 . S
C880 O864 1.225 1_655 S
C880 O886 1.298 . S
C881 O870 1.226 1_556 S
C881 O871 1.289 1_455 S
C882 O874 1.303 1_545 S
C882 O875 1.247 1_455 S
C883 O872 1.253 1_554 S
C883 O873 1.283 . S
C884 O876 1.304 . S
C884 O878 1.272 . S
C885 O877 1.311 . S
C885 O879 1.231 . S
O886 Zn868 1.953 . S
O886 C880 1.298 . S
O887 Zn888 1.953 . S
O887 C903 1.225 . S
Zn888 O887 1.953 . S
Zn888 O889 1.949 . S
Zn888 O895 1.919 . S
Zn888 O900 1.924 . S
O889 Zn888 1.949 . S
O889 Zn890 1.923 . S
O889 Zn891 1.950 . S
O889 Zn892 1.945 . S
Zn890 O889 1.923 . S
Zn890 O893 1.933 . S
Zn890 O896 1.941 . S
Zn890 O897 1.965 . S
Zn891 O889 1.950 . S
Zn891 O898 1.938 . S
Zn891 O899 1.906 . S
Zn891 O909 1.953 . S
Zn892 O889 1.945 . S
Zn892 O894 1.932 . S
Zn892 O901 1.977 . S
Zn892 O902 1.910 . S
O893 Zn890 1.933 . S
O893 C904 1.226 . S
O894 Zn892 1.932 . S
O894 C904 1.307 . S
O895 Zn888 1.919 . S
O895 C906 1.253 . S
O896 Zn890 1.941 . S
O896 C906 1.283 . S
O897 Zn890 1.965 . S
O897 C905 1.303 . S
O898 Zn891 1.938 . S
O898 C905 1.247 . S
O899 Zn891 1.906 . S
O899 C907 1.304 . S
O900 Zn888 1.924 . S
O900 C908 1.311 . S
O901 Zn892 1.977 . S
O901 C907 1.272 . S
O902 Zn892 1.910 . S
O902 C908 1.231 . S
C903 O887 1.225 . S
C903 O909 1.298 . S
C904 O893 1.226 . S
C904 O894 1.307 . S
C905 O897 1.303 . S
C905 O898 1.247 . S
C906 O895 1.253 . S
C906 O896 1.283 . S
C907 O899 1.304 . S
C907 O901 1.272 . S
C908 O900 1.311 . S
C908 O902 1.231 . S
O909 Zn891 1.953 . S
O909 C903 1.298 . S
O910 Zn911 1.953 . S
O910 C926 1.225 . S
Zn911 O910 1.953 . S
Zn911 O912 1.949 1_565 S
Zn911 O918 1.919 . S
Zn911 O923 1.924 . S
O912 Zn911 1.949 1_545 S
O912 Zn913 1.923 . S
O912 Zn914 1.959 . S
O912 Zn915 1.945 . S
Zn913 O912 1.923 . S
Zn913 O916 1.933 . S
Zn913 O919 1.941 . S
Zn913 O920 1.965 . S
Zn914 O912 1.959 . S
Zn914 O921 1.946 . S
Zn914 O922 1.929 . S
Zn914 O932 1.914 1_545 S
Zn915 O912 1.945 . S
Zn915 O917 1.932 . S
Zn915 O924 1.977 . S
Zn915 O925 1.910 . S
O916 Zn913 1.933 . S
O916 C927 1.226 . S
O917 Zn915 1.932 . S
O917 C927 1.307 . S
O918 Zn911 1.919 . S
O918 C929 1.253 . S
O919 Zn913 1.941 . S
O919 C929 1.283 1_545 S
O920 Zn913 1.965 . S
O920 C928 1.303 . S
O921 Zn914 1.946 . S
O921 C928 1.247 . S
O922 Zn914 1.929 . S
O922 C930 1.304 . S
O923 Zn911 1.924 . S
O923 C931 1.311 . S
O924 Zn915 1.977 . S
O924 C930 1.272 . S
O925 Zn915 1.910 . S
O925 C931 1.231 1_545 S
C926 O910 1.225 . S
C926 O932 1.298 . S
C927 O916 1.226 . S
C927 O917 1.307 . S
C928 O920 1.303 . S
C928 O921 1.247 . S
C929 O918 1.253 . S
C929 O919 1.283 1_565 S
C930 O922 1.304 . S
C930 O924 1.272 . S
C931 O923 1.311 . S
C931 O925 1.231 1_565 S
O932 Zn914 1.914 1_565 S
O932 C926 1.298 . S
O933 Zn934 1.953 . S
O933 C949 1.225 . S
Zn934 O933 1.953 . S
Zn934 O935 1.949 . S
Zn934 O941 1.919 . S
Zn934 O946 1.924 . S
O935 Zn934 1.949 . S
O935 Zn936 1.923 . S
O935 Zn937 1.950 . S
O935 Zn938 1.945 . S
Zn936 O935 1.923 . S
Zn936 O939 1.933 . S
Zn936 O942 1.941 . S
Zn936 O943 1.965 . S
Zn937 O935 1.950 . S
Zn937 O944 1.938 . S
Zn937 O945 1.906 . S
Zn937 O955 1.953 . S
Zn938 O935 1.945 . S
Zn938 O940 1.932 . S
Zn938 O947 1.977 . S
Zn938 O948 1.910 . S
O939 Zn936 1.933 . S
O939 C950 1.226 . S
O940 Zn938 1.932 . S
O940 C950 1.307 . S
O941 Zn934 1.919 . S
O941 C952 1.253 . S
O942 Zn936 1.941 . S
O942 C952 1.283 . S
O943 Zn936 1.965 . S
O943 C951 1.303 . S
O944 Zn937 1.938 . S
O944 C951 1.247 . S
O945 Zn937 1.906 . S
O945 C953 1.304 . S
O946 Zn934 1.924 . S
O946 C954 1.311 . S
O947 Zn938 1.977 . S
O947 C953 1.272 . S
O948 Zn938 1.910 . S
O948 C954 1.231 . S
C949 O933 1.225 . S
C949 O955 1.298 . S
C950 O939 1.226 . S
C950 O940 1.307 . S
C951 O943 1.303 . S
C951 O944 1.247 . S
C952 O941 1.253 . S
C952 O942 1.283 . S
C953 O945 1.304 . S
C953 O947 1.272 . S
C954 O946 1.311 . S
C954 O948 1.231 . S
O955 Zn937 1.953 . S
O955 C949 1.298 . S
O956 Zn957 1.957 1_455 S
O956 C972 1.225 . S
Zn957 O956 1.957 1_655 S
Zn957 O958 1.953 1_655 S
Zn957 O964 1.906 1_545 S
Zn957 O969 1.931 . S
O958 Zn957 1.953 1_455 S
O958 Zn959 1.923 1_545 S
O958 Zn960 1.950 . S
O958 Zn961 1.945 1_455 S
Zn959 O958 1.923 1_565 S
Zn959 O962 1.933 . S
Zn959 O965 1.941 . S
Zn959 O966 1.965 . S
Zn960 O958 1.950 . S
Zn960 O967 1.938 . S
Zn960 O968 1.906 . S
Zn960 O978 1.953 . S
Zn961 O958 1.945 1_655 S
Zn961 O963 1.932 . S
Zn961 O970 1.982 . S
Zn961 O971 1.910 . S
O962 Zn959 1.933 . S
O962 C973 1.226 1_455 S
O963 Zn961 1.932 . S
O963 C973 1.307 1_545 S
O964 Zn957 1.906 1_565 S
O964 C975 1.253 . S
O965 Zn959 1.941 . S
O965 C975 1.283 1_455 S
O966 Zn959 1.965 . S
O966 C974 1.303 . S
O967 Zn960 1.938 . S
O967 C974 1.247 1_545 S
O968 Zn960 1.906 . S
O968 C976 1.304 . S
O969 Zn957 1.931 . S
O969 C977 1.311 . S
O970 Zn961 1.982 . S
O970 C976 1.259 1_655 S
O971 Zn961 1.910 . S
O971 C977 1.231 . S
C972 O956 1.225 . S
C972 O978 1.298 . S
C973 O962 1.226 1_655 S
C973 O963 1.307 1_565 S
C974 O966 1.303 . S
C974 O967 1.247 1_565 S
C975 O964 1.253 . S
C975 O965 1.283 1_655 S
C976 O968 1.304 . S
C976 O970 1.259 1_455 S
C977 O969 1.311 . S
C977 O971 1.231 . S
O978 Zn960 1.953 . S
O978 C972 1.298 . S
O979 Zn980 1.953 . S
O979 C995 1.225 . S
Zn980 O979 1.953 . S
Zn980 O981 1.949 . S
Zn980 O987 1.919 . S
Zn980 O992 1.924 . S
O981 Zn980 1.949 . S
O981 Zn982 1.923 . S
O981 Zn983 1.950 . S
O981 Zn984 1.945 . S
Zn982 O981 1.923 . S
Zn982 O985 1.933 . S
Zn982 O988 1.941 . S
Zn982 O989 1.965 . S
Zn983 O981 1.950 . S
Zn983 O990 1.938 . S
Zn983 O991 1.906 . S
Zn983 O1001 1.953 . S
Zn984 O981 1.945 . S
Zn984 O986 1.932 . S
Zn984 O993 1.977 . S
Zn984 O994 1.910 . S
O985 Zn982 1.933 . S
O985 C996 1.226 . S
O986 Zn984 1.932 . S
O986 C996 1.307 . S
O987 Zn980 1.919 . S
O987 C998 1.253 . S
O988 Zn982 1.941 . S
O988 C998 1.283 . S
O989 Zn982 1.965 . S
O989 C997 1.303 . S
O990 Zn983 1.938 . S
O990 C997 1.247 . S
O991 Zn983 1.906 . S
O991 C999 1.304 . S
O992 Zn980 1.924 . S
O992 C1000 1.311 . S
O993 Zn984 1.977 . S
O993 C999 1.272 . S
O994 Zn984 1.910 . S
O994 C1000 1.231 . S
C995 O979 1.225 . S
C995 O1001 1.298 . S
C996 O985 1.226 . S
C996 O986 1.307 . S
C997 O989 1.303 . S
C997 O990 1.247 . S
C998 O987 1.253 . S
C998 O988 1.283 . S
C999 O991 1.304 . S
C999 O993 1.272 . S
C1000 O992 1.311 . S
C1000 O994 1.231 . S
O1001 Zn983 1.953 . S
O1001 C995 1.298 . S
O1002 Zn1003 1.953 . S
O1002 C1018 1.225 . S
Zn1003 O1002 1.953 . S
Zn1003 O1004 1.949 . S
Zn1003 O1010 1.914 1_545 S
Zn1003 O1015 1.924 . S
O1004 Zn1003 1.949 . S
O1004 Zn1005 1.923 1_544 S
O1004 Zn1006 1.950 . S
O1004 Zn1007 1.945 1_554 S
Zn1005 O1004 1.923 1_566 S
Zn1005 O1008 1.933 . S
Zn1005 O1011 1.941 . S
Zn1005 O1012 1.965 1_556 S
Zn1006 O1004 1.950 . S
Zn1006 O1013 1.938 1_545 S
Zn1006 O1014 1.906 . S
Zn1006 O1024 1.953 . S
Zn1007 O1004 1.945 1_556 S
Zn1007 O1009 1.932 . S
Zn1007 O1016 1.977 1_556 S
Zn1007 O1017 1.910 . S
O1008 Zn1005 1.933 . S
O1008 C1019 1.226 . S
O1009 Zn1007 1.932 . S
O1009 C1019 1.307 1_545 S
O1010 Zn1003 1.914 1_565 S
O1010 C1021 1.260 1_554 S
O1011 Zn1005 1.941 . S
O1011 C1021 1.283 . S
O1012 Zn1005 1.965 1_554 S
O1012 C1020 1.303 . S
O1013 Zn1006 1.938 1_565 S
O1013 C1020 1.247 . S
O1014 Zn1006 1.906 . S
O1014 C1022 1.304 . S
O1015 Zn1003 1.924 . S
O1015 C1023 1.311 1_554 S
O1016 Zn1007 1.977 1_554 S
O1016 C1022 1.272 . S
O1017 Zn1007 1.910 . S
O1017 C1023 1.231 . S
C1018 O1002 1.225 . S
C1018 O1024 1.298 . S
C1019 O1008 1.226 . S
C1019 O1009 1.307 1_565 S
C1020 O1012 1.303 . S
C1020 O1013 1.247 . S
C1021 O1010 1.260 1_556 S
C1021 O1011 1.283 . S
C1022 O1014 1.304 . S
C1022 O1016 1.272 . S
C1023 O1015 1.311 1_556 S
C1023 O1017 1.231 . S
O1024 Zn1006 1.953 . S
O1024 C1018 1.298 . S
O1025 Zn1026 1.953 . S
O1025 C1041 1.225 . S
Zn1026 O1025 1.953 . S
Zn1026 O1027 1.949 . S
Zn1026 O1033 1.919 . S
Zn1026 O1038 1.924 . S
O1027 Zn1026 1.949 . S
O1027 Zn1028 1.923 . S
O1027 Zn1029 1.950 . S
O1027 Zn1030 1.945 . S
Zn1028 O1027 1.923 . S
Zn1028 O1031 1.933 . S
Zn1028 O1034 1.941 . S
Zn1028 O1035 1.965 . S
Zn1029 O1027 1.950 . S
Zn1029 O1036 1.938 . S
Zn1029 O1037 1.906 . S
Zn1029 O1047 1.953 . S
Zn1030 O1027 1.945 . S
Zn1030 O1032 1.932 . S
Zn1030 O1039 1.977 . S
Zn1030 O1040 1.910 . S
O1031 Zn1028 1.933 . S
O1031 C1042 1.226 . S
O1032 Zn1030 1.932 . S
O1032 C1042 1.307 . S
O1033 Zn1026 1.919 . S
O1033 C1044 1.253 . S
O1034 Zn1028 1.941 . S
O1034 C1044 1.283 . S
O1035 Zn1028 1.965 . S
O1035 C1043 1.303 . S
O1036 Zn1029 1.938 . S
O1036 C1043 1.247 . S
O1037 Zn1029 1.906 . S
O1037 C1045 1.304 . S
O1038 Zn1026 1.924 . S
O1038 C1046 1.311 . S
O1039 Zn1030 1.977 . S
O1039 C1045 1.272 . S
O1040 Zn1030 1.910 . S
O1040 C1046 1.231 . S
C1041 O1025 1.225 . S
C1041 O1047 1.298 . S
C1042 O1031 1.226 . S
C1042 O1032 1.307 . S
C1043 O1035 1.303 . S
C1043 O1036 1.247 . S
C1044 O1033 1.253 . S
C1044 O1034 1.283 . S
C1045 O1037 1.304 . S
C1045 O1039 1.272 . S
C1046 O1038 1.311 . S
C1046 O1040 1.231 . S
O1047 Zn1029 1.953 . S
O1047 C1041 1.298 . S
O1048 Zn1049 1.953 . S
O1048 C1064 1.225 . S
Zn1049 O1048 1.953 . S
Zn1049 O1050 1.949 1_556 S
Zn1049 O1056 1.919 . S
Zn1049 O1061 1.924 . S
O1050 Zn1049 1.949 1_554 S
O1050 Zn1051 1.923 . S
O1050 Zn1052 1.950 . S
O1050 Zn1053 1.945 . S
Zn1051 O1050 1.923 . S
Zn1051 O1054 1.933 . S
Zn1051 O1057 1.941 . S
Zn1051 O1058 1.965 . S
Zn1052 O1050 1.950 . S
Zn1052 O1059 1.938 . S
Zn1052 O1060 1.906 . S
Zn1052 O1070 1.953 1_554 S
Zn1053 O1050 1.945 . S
Zn1053 O1055 1.932 . S
Zn1053 O1062 1.977 . S
Zn1053 O1063 1.910 . S
O1054 Zn1051 1.933 . S
O1054 C1065 1.226 . S
O1055 Zn1053 1.932 . S
O1055 C1065 1.307 . S
O1056 Zn1049 1.919 . S
O1056 C1067 1.253 . S
O1057 Zn1051 1.941 . S
O1057 C1067 1.283 1_554 S
O1058 Zn1051 1.965 . S
O1058 C1066 1.303 . S
O1059 Zn1052 1.938 . S
O1059 C1066 1.247 . S
O1060 Zn1052 1.906 . S
O1060 C1068 1.304 . S
O1061 Zn1049 1.924 . S
O1061 C1069 1.311 . S
O1062 Zn1053 1.977 . S
O1062 C1068 1.272 . S
O1063 Zn1053 1.910 . S
O1063 C1069 1.231 1_554 S
C1064 O1048 1.225 . S
C1064 O1070 1.298 . S
C1065 O1054 1.226 . S
C1065 O1055 1.307 . S
C1066 O1058 1.303 . S
C1066 O1059 1.247 . S
C1067 O1056 1.253 . S
C1067 O1057 1.283 1_556 S
C1068 O1060 1.304 . S
C1068 O1062 1.272 . S
C1069 O1061 1.311 . S
C1069 O1063 1.231 1_556 S
O1070 Zn1052 1.953 1_556 S
O1070 C1064 1.298 . S
O1071 Zn1072 1.953 . S
O1071 C1087 1.225 . S
Zn1072 O1071 1.953 . S
Zn1072 O1073 1.949 . S
Zn1072 O1079 1.919 . S
Zn1072 O1084 1.924 . S
O1073 Zn1072 1.949 . S
O1073 Zn1074 1.923 . S
O1073 Zn1075 1.950 . S
O1073 Zn1076 1.945 . S
Zn1074 O1073 1.923 . S
Zn1074 O1077 1.933 . S
Zn1074 O1080 1.941 . S
Zn1074 O1081 1.965 . S
Zn1075 O1073 1.950 . S
Zn1075 O1082 1.938 . S
Zn1075 O1083 1.906 . S
Zn1075 O1093 1.953 . S
Zn1076 O1073 1.945 . S
Zn1076 O1078 1.932 . S
Zn1076 O1085 1.977 . S
Zn1076 O1086 1.910 . S
O1077 Zn1074 1.933 . S
O1077 C1088 1.226 . S
O1078 Zn1076 1.932 . S
O1078 C1088 1.307 . S
O1079 Zn1072 1.919 . S
O1079 C1090 1.253 . S
O1080 Zn1074 1.941 . S
O1080 C1090 1.283 . S
O1081 Zn1074 1.965 . S
O1081 C1089 1.303 . S
O1082 Zn1075 1.938 . S
O1082 C1089 1.247 . S
O1083 Zn1075 1.906 . S
O1083 C1091 1.304 . S
O1084 Zn1072 1.924 . S
O1084 C1092 1.311 . S
O1085 Zn1076 1.977 . S
O1085 C1091 1.272 . S
O1086 Zn1076 1.910 . S
O1086 C1092 1.231 . S
C1087 O1071 1.225 . S
C1087 O1093 1.298 . S
C1088 O1077 1.226 . S
C1088 O1078 1.307 . S
C1089 O1081 1.303 . S
C1089 O1082 1.247 . S
C1090 O1079 1.253 . S
C1090 O1080 1.283 . S
C1091 O1083 1.304 . S
C1091 O1085 1.272 . S
C1092 O1084 1.311 . S
C1092 O1086 1.231 . S
O1093 Zn1075 1.953 . S
O1093 C1087 1.298 . S
O1094 Zn1095 1.953 . S
O1094 C1110 1.225 . S
Zn1095 O1094 1.953 . S
Zn1095 O1096 1.933 1_455 S
Zn1095 O1102 1.919 . S
Zn1095 O1107 1.924 . S
O1096 Zn1095 1.933 1_655 S
O1096 Zn1097 1.922 1_655 S
O1096 Zn1098 1.959 . S
O1096 Zn1099 1.952 . S
Zn1097 O1096 1.922 1_455 S
Zn1097 O1100 1.933 1_455 S
Zn1097 O1103 1.941 . S
Zn1097 O1104 1.965 1_455 S
Zn1098 O1096 1.959 . S
Zn1098 O1105 1.938 . S
Zn1098 O1106 1.906 . S
Zn1098 O1116 1.965 . S
Zn1099 O1096 1.952 . S
Zn1099 O1101 1.932 . S
Zn1099 O1108 1.977 . S
Zn1099 O1109 1.903 1_655 S
O1100 Zn1097 1.933 1_655 S
O1100 C1111 1.226 . S
O1101 Zn1099 1.932 . S
O1101 C1111 1.307 . S
O1102 Zn1095 1.919 . S
O1102 C1113 1.253 . S
O1103 Zn1097 1.941 . S
O1103 C1113 1.283 . S
O1104 Zn1097 1.965 1_655 S
O1104 C1112 1.303 . S
O1105 Zn1098 1.938 . S
O1105 C1112 1.247 . S
O1106 Zn1098 1.906 . S
O1106 C1114 1.304 . S
O1107 Zn1095 1.924 . S
O1107 C1115 1.311 . S
O1108 Zn1099 1.977 . S
O1108 C1114 1.272 . S
O1109 Zn1099 1.903 1_455 S
O1109 C1115 1.244 . S
C1110 O1094 1.225 . S
C1110 O1116 1.276 1_455 S
C1111 O1100 1.226 . S
C1111 O1101 1.307 . S
C1112 O1104 1.303 . S
C1112 O1105 1.247 . S
C1113 O1102 1.253 . S
C1113 O1103 1.283 . S
C1114 O1106 1.304 . S
C1114 O1108 1.272 . S
C1115 O1107 1.311 . S
C1115 O1109 1.244 . S
O1116 Zn1098 1.965 . S
O1116 C1110 1.276 1_655 S
O1117 Zn1118 1.953 . S
O1117 C1133 1.225 . S
Zn1118 O1117 1.953 . S
Zn1118 O1119 1.949 . S
Zn1118 O1125 1.919 . S
Zn1118 O1130 1.924 . S
O1119 Zn1118 1.949 . S
O1119 Zn1120 1.923 . S
O1119 Zn1121 1.950 . S
O1119 Zn1122 1.945 . S
Zn1120 O1119 1.923 . S
Zn1120 O1123 1.933 . S
Zn1120 O1126 1.941 . S
Zn1120 O1127 1.965 . S
Zn1121 O1119 1.950 . S
Zn1121 O1128 1.938 . S
Zn1121 O1129 1.906 . S
Zn1121 O1139 1.953 . S
Zn1122 O1119 1.945 . S
Zn1122 O1124 1.932 . S
Zn1122 O1131 1.977 . S
Zn1122 O1132 1.910 . S
O1123 Zn1120 1.933 . S
O1123 C1134 1.226 . S
O1124 Zn1122 1.932 . S
O1124 C1134 1.307 . S
O1125 Zn1118 1.919 . S
O1125 C1136 1.253 . S
O1126 Zn1120 1.941 . S
O1126 C1136 1.283 . S
O1127 Zn1120 1.965 . S
O1127 C1135 1.303 . S
O1128 Zn1121 1.938 . S
O1128 C1135 1.247 . S
O1129 Zn1121 1.906 . S
O1129 C1137 1.304 . S
O1130 Zn1118 1.924 . S
O1130 C1138 1.311 . S
O1131 Zn1122 1.977 . S
O1131 C1137 1.272 . S
O1132 Zn1122 1.910 . S
O1132 C1138 1.231 . S
C1133 O1117 1.225 . S
C1133 O1139 1.298 . S
C1134 O1123 1.226 . S
C1134 O1124 1.307 . S
C1135 O1127 1.303 . S
C1135 O1128 1.247 . S
C1136 O1125 1.253 . S
C1136 O1126 1.283 . S
C1137 O1129 1.304 . S
C1137 O1131 1.272 . S
C1138 O1130 1.311 . S
C1138 O1132 1.231 . S
O1139 Zn1121 1.953 . S
O1139 C1133 1.298 . S
O1140 Zn1141 1.953 . S
O1140 C1156 1.225 . S
Zn1141 O1140 1.953 . S
Zn1141 O1142 1.949 . S
Zn1141 O1148 1.919 . S
Zn1141 O1153 1.924 . S
O1142 Zn1141 1.949 . S
O1142 Zn1143 1.923 . S
O1142 Zn1144 1.950 . S
O1142 Zn1145 1.945 . S
Zn1143 O1142 1.923 . S
Zn1143 O1146 1.933 . S
Zn1143 O1149 1.941 . S
Zn1143 O1150 1.965 . S
Zn1144 O1142 1.950 . S
Zn1144 O1151 1.938 . S
Zn1144 O1152 1.906 . S
Zn1144 O1162 1.953 . S
Zn1145 O1142 1.945 . S
Zn1145 O1147 1.932 . S
Zn1145 O1154 1.977 . S
Zn1145 O1155 1.910 . S
O1146 Zn1143 1.933 . S
O1146 C1157 1.226 . S
O1147 Zn1145 1.932 . S
O1147 C1157 1.307 . S
O1148 Zn1141 1.919 . S
O1148 C1159 1.253 . S
O1149 Zn1143 1.941 . S
O1149 C1159 1.283 . S
O1150 Zn1143 1.965 . S
O1150 C1158 1.303 . S
O1151 Zn1144 1.938 . S
O1151 C1158 1.247 . S
O1152 Zn1144 1.906 . S
O1152 C1160 1.304 . S
O1153 Zn1141 1.924 . S
O1153 C1161 1.311 . S
O1154 Zn1145 1.977 . S
O1154 C1160 1.272 . S
O1155 Zn1145 1.910 . S
O1155 C1161 1.231 . S
C1156 O1140 1.225 . S
C1156 O1162 1.298 . S
C1157 O1146 1.226 . S
C1157 O1147 1.307 . S
C1158 O1150 1.303 . S
C1158 O1151 1.247 . S
C1159 O1148 1.253 . S
C1159 O1149 1.283 . S
C1160 O1152 1.304 . S
C1160 O1154 1.272 . S
C1161 O1153 1.311 . S
C1161 O1155 1.231 . S
O1162 Zn1144 1.953 . S
O1162 C1156 1.298 . S
O1163 Zn1164 1.953 . S
O1163 C1179 1.225 . S
Zn1164 O1163 1.953 . S
Zn1164 O1165 1.949 . S
Zn1164 O1171 1.919 . S
Zn1164 O1176 1.924 . S
O1165 Zn1164 1.949 . S
O1165 Zn1166 1.923 . S
O1165 Zn1167 1.950 . S
O1165 Zn1168 1.945 . S
Zn1166 O1165 1.923 . S
Zn1166 O1169 1.933 . S
Zn1166 O1172 1.941 . S
Zn1166 O1173 1.965 . S
Zn1167 O1165 1.950 . S
Zn1167 O1174 1.938 . S
Zn1167 O1175 1.906 . S
Zn1167 O1185 1.953 . S
Zn1168 O1165 1.945 . S
Zn1168 O1170 1.932 . S
Zn1168 O1177 1.977 . S
Zn1168 O1178 1.910 . S
O1169 Zn1166 1.933 . S
O1169 C1180 1.226 . S
O1170 Zn1168 1.932 . S
O1170 C1180 1.307 . S
O1171 Zn1164 1.919 . S
O1171 C1182 1.253 . S
O1172 Zn1166 1.941 . S
O1172 C1182 1.283 . S
O1173 Zn1166 1.965 . S
O1173 C1181 1.303 . S
O1174 Zn1167 1.938 . S
O1174 C1181 1.247 . S
O1175 Zn1167 1.906 . S
O1175 C1183 1.304 . S
O1176 Zn1164 1.924 . S
O1176 C1184 1.311 . S
O1177 Zn1168 1.977 . S
O1177 C1183 1.272 . S
O1178 Zn1168 1.910 . S
O1178 C1184 1.231 . S
C1179 O1163 1.225 . S
C1179 O1185 1.298 . S
C1180 O1169 1.226 . S
C1180 O1170 1.307 . S
C1181 O1173 1.303 . S
C1181 O1174 1.247 . S
C1182 O1171 1.253 . S
C1182 O1172 1.283 . S
C1183 O1175 1.304 . S
C1183 O1177 1.272 . S
C1184 O1176 1.311 . S
C1184 O1178 1.231 . S
O1185 Zn1167 1.953 . S
O1185 C1179 1.298 . S
O1186 Zn1187 1.953 . S
O1186 C1202 1.225 . S
Zn1187 O1186 1.953 . S
Zn1187 O1188 1.949 . S
Zn1187 O1194 1.919 . S
Zn1187 O1199 1.924 . S
O1188 Zn1187 1.949 . S
O1188 Zn1189 1.923 . S
O1188 Zn1190 1.950 . S
O1188 Zn1191 1.945 . S
Zn1189 O1188 1.923 . S
Zn1189 O1192 1.933 . S
Zn1189 O1195 1.941 . S
Zn1189 O1196 1.965 . S
Zn1190 O1188 1.950 . S
Zn1190 O1197 1.938 . S
Zn1190 O1198 1.906 . S
Zn1190 O1208 1.953 . S
Zn1191 O1188 1.945 . S
Zn1191 O1193 1.932 . S
Zn1191 O1200 1.977 . S
Zn1191 O1201 1.910 . S
O1192 Zn1189 1.933 . S
O1192 C1203 1.226 . S
O1193 Zn1191 1.932 . S
O1193 C1203 1.307 . S
O1194 Zn1187 1.919 . S
O1194 C1205 1.253 . S
O1195 Zn1189 1.941 . S
O1195 C1205 1.283 . S
O1196 Zn1189 1.965 . S
O1196 C1204 1.303 . S
O1197 Zn1190 1.938 . S
O1197 C1204 1.247 . S
O1198 Zn1190 1.906 . S
O1198 C1206 1.304 . S
O1199 Zn1187 1.924 . S
O1199 C1207 1.311 . S
O1200 Zn1191 1.977 . S
O1200 C1206 1.272 . S
O1201 Zn1191 1.910 . S
O1201 C1207 1.231 . S
C1202 O1186 1.225 . S
C1202 O1208 1.298 . S
C1203 O1192 1.226 . S
C1203 O1193 1.307 . S
C1204 O1196 1.303 . S
C1204 O1197 1.247 . S
C1205 O1194 1.253 . S
C1205 O1195 1.283 . S
C1206 O1198 1.304 . S
C1206 O1200 1.272 . S
C1207 O1199 1.311 . S
C1207 O1201 1.231 . S
O1208 Zn1190 1.953 . S
O1208 C1202 1.298 . S
O1209 Zn1210 1.953 1_455 S
O1209 C1225 1.225 . S
Zn1210 O1209 1.953 1_655 S
Zn1210 O1211 1.949 1_655 S
Zn1210 O1217 1.919 1_554 S
Zn1210 O1222 1.924 1_654 S
O1211 Zn1210 1.949 1_455 S
O1211 Zn1212 1.923 1_455 S
O1211 Zn1213 1.950 . S
O1211 Zn1214 1.945 1_554 S
Zn1212 O1211 1.923 1_655 S
Zn1212 O1215 1.933 . S
Zn1212 O1218 1.941 . S
Zn1212 O1219 1.965 . S
Zn1213 O1211 1.950 . S
Zn1213 O1220 1.938 . S
Zn1213 O1221 1.906 . S
Zn1213 O1231 1.953 . S
Zn1214 O1211 1.945 1_556 S
Zn1214 O1216 1.932 . S
Zn1214 O1223 1.977 1_556 S
Zn1214 O1224 1.910 . S
O1215 Zn1212 1.933 . S
O1215 C1226 1.226 1_554 S
O1216 Zn1214 1.932 . S
O1216 C1226 1.307 1_455 S
O1217 Zn1210 1.919 1_556 S
O1217 C1228 1.253 1_556 S
O1218 Zn1212 1.941 . S
O1218 C1228 1.283 . S
O1219 Zn1212 1.965 . S
O1219 C1227 1.303 . S
O1220 Zn1213 1.938 . S
O1220 C1227 1.247 1_455 S
O1221 Zn1213 1.906 . S
O1221 C1229 1.304 . S
O1222 Zn1210 1.924 1_456 S
O1222 C1230 1.311 . S
O1223 Zn1214 1.977 1_554 S
O1223 C1229 1.272 . S
O1224 Zn1214 1.910 . S
O1224 C1230 1.231 . S
C1225 O1209 1.225 . S
C1225 O1231 1.298 . S
C1226 O1215 1.226 1_556 S
C1226 O1216 1.307 1_655 S
C1227 O1219 1.303 . S
C1227 O1220 1.247 1_655 S
C1228 O1217 1.253 1_554 S
C1228 O1218 1.283 . S
C1229 O1221 1.304 . S
C1229 O1223 1.272 . S
C1230 O1222 1.311 . S
C1230 O1224 1.231 . S
O1231 Zn1213 1.953 . S
O1231 C1225 1.298 . S
H1232 C1238 0.930 . S
H1233 C1241 0.930 . S
H1234 C1242 0.930 . S
H1235 C1243 0.930 . S
H1236 C1246 0.930 . S
H1237 C1247 0.930 . S
C1238 H1232 0.930 . S
C1238 C1239 1.355 1_655 S
C1238 C1240 1.415 . S
C1239 C1238 1.355 1_455 S
C1239 C1241 1.419 . S
C1240 C1238 1.415 . S
C1240 C1245 1.425 1_655 S
C1240 C1247 1.409 . S
C1241 H1233 0.930 . S
C1241 C1239 1.419 . S
C1241 C1242 1.362 . S
C1242 H1234 0.930 . S
C1242 C1241 1.362 . S
C1242 C1245 1.409 . S
C1243 H1235 0.930 . S
C1243 C1244 1.355 1_455 S
C1243 C1245 1.415 . S
C1244 C1243 1.355 1_655 S
C1244 C1246 1.419 . S
C1245 C1240 1.425 1_455 S
C1245 C1242 1.409 . S
C1245 C1243 1.415 . S
C1246 H1236 0.930 . S
C1246 C1244 1.419 . S
C1246 C1247 1.362 . S
C1247 H1237 0.930 . S
C1247 C1240 1.409 . S
C1247 C1246 1.362 . S
H1248 C1254 0.930 . S
H1249 C1257 0.930 . S
H1250 C1258 0.930 . S
H1251 C1259 0.930 . S
H1252 C1262 0.930 . S
H1253 C1263 0.930 . S
C1254 H1248 0.930 . S
C1254 C1255 1.355 . S
C1254 C1256 1.415 . S
C1255 C1254 1.355 . S
C1255 C1257 1.419 . S
C1256 C1254 1.415 . S
C1256 C1261 1.425 . S
C1256 C1263 1.409 . S
C1257 H1249 0.930 . S
C1257 C1255 1.419 . S
C1257 C1258 1.362 . S
C1258 H1250 0.930 . S
C1258 C1257 1.362 . S
C1258 C1261 1.409 . S
C1259 H1251 0.930 . S
C1259 C1260 1.355 . S
C1259 C1261 1.415 . S
C1260 C1259 1.355 . S
C1260 C1262 1.419 . S
C1261 C1256 1.425 . S
C1261 C1258 1.409 . S
C1261 C1259 1.415 . S
C1262 H1252 0.930 . S
C1262 C1260 1.419 . S
C1262 C1263 1.362 . S
C1263 H1253 0.930 . S
C1263 C1256 1.409 . S
C1263 C1262 1.362 . S
H1264 C1270 0.930 . S
H1265 C1273 0.930 . S
H1266 C1274 0.930 . S
H1267 C1275 0.930 . S
H1268 C1278 0.930 . S
H1269 C1279 0.930 . S
C1270 H1264 0.930 . S
C1270 C1271 1.355 . S
C1270 C1272 1.415 . S
C1271 C1270 1.355 . S
C1271 C1273 1.419 . S
C1272 C1270 1.415 . S
C1272 C1277 1.425 . S
C1272 C1279 1.409 . S
C1273 H1265 0.930 . S
C1273 C1271 1.419 . S
C1273 C1274 1.362 . S
C1274 H1266 0.930 . S
C1274 C1273 1.362 . S
C1274 C1277 1.409 . S
C1275 H1267 0.930 . S
C1275 C1276 1.355 . S
C1275 C1277 1.415 . S
C1276 C1275 1.355 . S
C1276 C1278 1.419 . S
C1277 C1272 1.425 . S
C1277 C1274 1.409 . S
C1277 C1275 1.415 . S
C1278 H1268 0.930 . S
C1278 C1276 1.419 . S
C1278 C1279 1.362 . S
C1279 H1269 0.930 . S
C1279 C1272 1.409 . S
C1279 C1278 1.362 . S
H1280 C1286 0.930 . S
H1281 C1289 0.930 . S
H1282 C1290 0.930 . S
H1283 C1291 0.930 . S
H1284 C1294 0.930 . S
H1285 C1295 0.930 . S
C1286 H1280 0.930 . S
C1286 C1287 1.355 . S
C1286 C1288 1.415 . S
C1287 C1286 1.355 . S
C1287 C1289 1.419 . S
C1288 C1286 1.415 . S
C1288 C1293 1.425 . S
C1288 C1295 1.409 . S
C1289 H1281 0.930 . S
C1289 C1287 1.419 . S
C1289 C1290 1.362 . S
C1290 H1282 0.930 . S
C1290 C1289 1.362 . S
C1290 C1293 1.409 . S
C1291 H1283 0.930 . S
C1291 C1292 1.355 . S
C1291 C1293 1.415 . S
C1292 C1291 1.355 . S
C1292 C1294 1.419 . S
C1293 C1288 1.425 . S
C1293 C1290 1.409 . S
C1293 C1291 1.415 . S
C1294 H1284 0.930 . S
C1294 C1292 1.419 . S
C1294 C1295 1.362 . S
C1295 H1285 0.930 . S
C1295 C1288 1.409 . S
C1295 C1294 1.362 . S
H1296 C1302 0.930 . S
H1297 C1305 0.930 . S
H1298 C1306 0.930 . S
H1299 C1307 0.930 . S
H1300 C1310 0.930 . S
H1301 C1311 0.930 . S
C1302 H1296 0.930 . S
C1302 C1303 1.355 . S
C1302 C1304 1.409 1_455 S
C1303 C1302 1.355 . S
C1303 C1305 1.419 . S
C1304 C1302 1.409 1_655 S
C1304 C1309 1.427 . S
C1304 C1311 1.414 . S
C1305 H1297 0.930 . S
C1305 C1303 1.419 . S
C1305 C1306 1.362 . S
C1306 H1298 0.930 . S
C1306 C1305 1.362 . S
C1306 C1309 1.409 1_455 S
C1307 H1299 0.930 . S
C1307 C1308 1.355 . S
C1307 C1309 1.415 . S
C1308 C1307 1.355 . S
C1308 C1310 1.419 . S
C1309 C1304 1.427 . S
C1309 C1306 1.409 1_655 S
C1309 C1307 1.415 . S
C1310 H1300 0.930 . S
C1310 C1308 1.419 . S
C1310 C1311 1.362 . S
C1311 H1301 0.930 . S
C1311 C1304 1.414 . S
C1311 C1310 1.362 . S
H1312 C1318 0.930 . S
H1313 C1321 0.930 . S
H1314 C1322 0.930 . S
H1315 C1323 0.930 . S
H1316 C1326 0.930 . S
H1317 C1327 0.930 . S
C1318 H1312 0.930 . S
C1318 C1319 1.355 . S
C1318 C1320 1.415 . S
C1319 C1318 1.355 . S
C1319 C1321 1.419 . S
C1320 C1318 1.415 . S
C1320 C1325 1.425 . S
C1320 C1327 1.409 . S
C1321 H1313 0.930 . S
C1321 C1319 1.419 . S
C1321 C1322 1.362 . S
C1322 H1314 0.930 . S
C1322 C1321 1.362 . S
C1322 C1325 1.409 . S
C1323 H1315 0.930 . S
C1323 C1324 1.355 . S
C1323 C1325 1.415 . S
C1324 C1323 1.355 . S
C1324 C1326 1.419 . S
C1325 C1320 1.425 . S
C1325 C1322 1.409 . S
C1325 C1323 1.415 . S
C1326 H1316 0.930 . S
C1326 C1324 1.419 . S
C1326 C1327 1.362 . S
C1327 H1317 0.930 . S
C1327 C1320 1.409 . S
C1327 C1326 1.362 . S
H1328 C1334 0.930 . S
H1329 C1337 0.930 . S
H1330 C1338 0.930 . S
H1331 C1339 0.930 . S
H1332 C1342 0.930 . S
H1333 C1343 0.930 1_554 S
C1334 H1328 0.930 . S
C1334 C1335 1.355 . S
C1334 C1336 1.415 . S
C1335 C1334 1.355 . S
C1335 C1337 1.419 . S
C1336 C1334 1.415 . S
C1336 C1341 1.425 . S
C1336 C1343 1.409 . S
C1337 H1329 0.930 . S
C1337 C1335 1.419 . S
C1337 C1338 1.362 . S
C1338 H1330 0.930 . S
C1338 C1337 1.362 . S
C1338 C1341 1.409 . S
C1339 H1331 0.930 . S
C1339 C1340 1.355 . S
C1339 C1341 1.415 . S
C1340 C1339 1.355 . S
C1340 C1342 1.419 1_556 S
C1341 C1336 1.425 . S
C1341 C1338 1.409 . S
C1341 C1339 1.415 . S
C1342 H1332 0.930 . S
C1342 C1340 1.419 1_554 S
C1342 C1343 1.362 1_554 S
C1343 H1333 0.930 1_556 S
C1343 C1336 1.409 . S
C1343 C1342 1.362 1_556 S
H1344 C1350 0.930 . S
H1345 C1353 0.930 . S
H1346 C1354 0.930 . S
H1347 C1355 0.930 . S
H1348 C1358 0.930 . S
H1349 C1359 0.930 . S
C1350 H1344 0.930 . S
C1350 C1351 1.355 . S
C1350 C1352 1.415 . S
C1351 C1350 1.355 . S
C1351 C1353 1.419 . S
C1352 C1350 1.415 . S
C1352 C1357 1.425 . S
C1352 C1359 1.409 . S
C1353 H1345 0.930 . S
C1353 C1351 1.419 . S
C1353 C1354 1.362 . S
C1354 H1346 0.930 . S
C1354 C1353 1.362 . S
C1354 C1357 1.409 . S
C1355 H1347 0.930 . S
C1355 C1356 1.355 . S
C1355 C1357 1.415 . S
C1356 C1355 1.355 . S
C1356 C1358 1.419 . S
C1357 C1352 1.425 . S
C1357 C1354 1.409 . S
C1357 C1355 1.415 . S
C1358 H1348 0.930 . S
C1358 C1356 1.419 . S
C1358 C1359 1.362 . S
C1359 H1349 0.930 . S
C1359 C1352 1.409 . S
C1359 C1358 1.362 . S
H1360 C1366 0.930 . S
H1361 C1369 0.930 . S
H1362 C1370 0.930 . S
H1363 C1371 0.930 . S
H1364 C1374 0.930 . S
H1365 C1375 0.936 . S
C1366 H1360 0.930 . S
C1366 C1367 1.355 . S
C1366 C1368 1.415 . S
C1367 C1366 1.355 . S
C1367 C1369 1.419 . S
C1368 C1366 1.415 . S
C1368 C1373 1.425 . S
C1368 C1375 1.402 1_545 S
C1369 H1361 0.930 . S
C1369 C1367 1.419 . S
C1369 C1370 1.362 . S
C1370 H1362 0.930 . S
C1370 C1369 1.362 . S
C1370 C1373 1.409 . S
C1371 H1363 0.930 . S
C1371 C1372 1.355 . S
C1371 C1373 1.415 . S
C1372 C1371 1.355 . S
C1372 C1374 1.419 1_545 S
C1373 C1368 1.425 . S
C1373 C1370 1.409 . S
C1373 C1371 1.415 . S
C1374 H1364 0.930 . S
C1374 C1372 1.419 1_565 S
C1374 C1375 1.364 . S
C1375 H1365 0.936 . S
C1375 C1368 1.402 1_565 S
C1375 C1374 1.364 . S
H1376 C1382 0.930 . S
H1377 C1385 0.930 . S
H1378 C1386 0.930 . S
H1379 C1387 0.930 . S
H1380 C1390 0.930 . S
H1381 C1391 0.930 . S
C1382 H1376 0.930 . S
C1382 C1383 1.355 . S
C1382 C1384 1.415 . S
C1383 C1382 1.355 . S
C1383 C1385 1.419 . S
C1384 C1382 1.415 . S
C1384 C1389 1.425 . S
C1384 C1391 1.409 . S
C1385 H1377 0.930 . S
C1385 C1383 1.419 . S
C1385 C1386 1.362 . S
C1386 H1378 0.930 . S
C1386 C1385 1.362 . S
C1386 C1389 1.409 . S
C1387 H1379 0.930 . S
C1387 C1388 1.355 . S
C1387 C1389 1.415 . S
C1388 C1387 1.355 . S
C1388 C1390 1.419 . S
C1389 C1384 1.425 . S
C1389 C1386 1.409 . S
C1389 C1387 1.415 . S
C1390 H1380 0.930 . S
C1390 C1388 1.419 . S
C1390 C1391 1.362 . S
C1391 H1381 0.930 . S
C1391 C1384 1.409 . S
C1391 C1390 1.362 . S
H1392 C1398 0.930 . S
H1393 C1401 0.930 . S
H1394 C1402 0.930 . S
H1395 C1403 0.930 . S
H1396 C1406 0.930 . S
H1397 C1407 0.930 . S
C1398 H1392 0.930 . S
C1398 C1399 1.355 1_565 S
C1398 C1400 1.415 . S
C1399 C1398 1.355 1_545 S
C1399 C1401 1.419 . S
C1400 C1398 1.415 . S
C1400 C1405 1.425 1_565 S
C1400 C1407 1.409 . S
C1401 H1393 0.930 . S
C1401 C1399 1.419 . S
C1401 C1402 1.362 . S
C1402 H1394 0.930 . S
C1402 C1401 1.362 . S
C1402 C1405 1.409 . S
C1403 H1395 0.930 . S
C1403 C1404 1.355 . S
C1403 C1405 1.415 . S
C1404 C1403 1.355 . S
C1404 C1406 1.419 1_545 S
C1405 C1400 1.425 1_545 S
C1405 C1402 1.409 . S
C1405 C1403 1.415 . S
C1406 H1396 0.930 . S
C1406 C1404 1.419 1_565 S
C1406 C1407 1.362 . S
C1407 H1397 0.930 . S
C1407 C1400 1.409 . S
C1407 C1406 1.362 . S
H1408 C1414 0.930 . S
H1409 C1417 0.930 . S
H1410 C1418 0.930 . S
H1411 C1419 0.930 . S
H1412 C1422 0.930 . S
H1413 C1423 0.930 . S
C1414 H1408 0.930 . S
C1414 C1415 1.355 . S
C1414 C1416 1.415 . S
C1415 C1414 1.355 . S
C1415 C1417 1.419 . S
C1416 C1414 1.415 . S
C1416 C1421 1.425 . S
C1416 C1423 1.409 . S
C1417 H1409 0.930 . S
C1417 C1415 1.419 . S
C1417 C1418 1.362 . S
C1418 H1410 0.930 . S
C1418 C1417 1.362 . S
C1418 C1421 1.409 . S
C1419 H1411 0.930 . S
C1419 C1420 1.355 . S
C1419 C1421 1.415 . S
C1420 C1419 1.355 . S
C1420 C1422 1.419 . S
C1421 C1416 1.425 . S
C1421 C1418 1.409 . S
C1421 C1419 1.415 . S
C1422 H1412 0.930 . S
C1422 C1420 1.419 . S
C1422 C1423 1.362 . S
C1423 H1413 0.930 . S
C1423 C1416 1.409 . S
C1423 C1422 1.362 . S
H1424 C1430 0.930 . S
H1425 C1433 0.930 . S
H1426 C1434 0.930 . S
H1427 C1435 0.930 1_565 S
H1428 C1438 0.930 . S
H1429 C1439 0.930 . S
C1430 H1424 0.930 . S
C1430 C1431 1.355 . S
C1430 C1432 1.415 . S
C1431 C1430 1.355 . S
C1431 C1433 1.419 1_545 S
C1432 C1430 1.415 . S
C1432 C1437 1.425 . S
C1432 C1439 1.409 . S
C1433 H1425 0.930 . S
C1433 C1431 1.419 1_565 S
C1433 C1434 1.362 . S
C1434 H1426 0.930 . S
C1434 C1433 1.362 . S
C1434 C1437 1.409 1_565 S
C1435 H1427 0.930 1_545 S
C1435 C1436 1.355 . S
C1435 C1437 1.415 . S
C1436 C1435 1.355 . S
C1436 C1438 1.419 . S
C1437 C1432 1.425 . S
C1437 C1434 1.409 1_545 S
C1437 C1435 1.415 . S
C1438 H1428 0.930 . S
C1438 C1436 1.419 . S
C1438 C1439 1.362 . S
C1439 H1429 0.930 . S
C1439 C1432 1.409 . S
C1439 C1438 1.362 . S
H1440 C1446 0.930 . S
H1441 C1449 0.930 . S
H1442 C1450 0.930 . S
H1443 C1451 0.930 . S
H1444 C1454 0.930 . S
H1445 C1455 0.930 . S
C1446 H1440 0.930 . S
C1446 C1447 1.355 . S
C1446 C1448 1.415 . S
C1447 C1446 1.355 . S
C1447 C1449 1.419 . S
C1448 C1446 1.415 . S
C1448 C1453 1.425 . S
C1448 C1455 1.409 . S
C1449 H1441 0.930 . S
C1449 C1447 1.419 . S
C1449 C1450 1.362 . S
C1450 H1442 0.930 . S
C1450 C1449 1.362 . S
C1450 C1453 1.409 . S
C1451 H1443 0.930 . S
C1451 C1452 1.355 . S
C1451 C1453 1.415 . S
C1452 C1451 1.355 . S
C1452 C1454 1.419 . S
C1453 C1448 1.425 . S
C1453 C1450 1.409 . S
C1453 C1451 1.415 . S
C1454 H1444 0.930 . S
C1454 C1452 1.419 . S
C1454 C1455 1.362 . S
C1455 H1445 0.930 . S
C1455 C1448 1.409 . S
C1455 C1454 1.362 . S
H1456 C1462 0.930 . S
H1457 C1465 0.930 . S
H1458 C1466 0.930 . S
H1459 C1467 0.930 . S
H1460 C1470 0.930 . S
H1461 C1471 0.930 . S
C1462 H1456 0.930 . S
C1462 C1463 1.355 1_565 S
C1462 C1464 1.415 . S
C1463 C1462 1.355 1_545 S
C1463 C1465 1.419 . S
C1464 C1462 1.415 . S
C1464 C1469 1.425 1_565 S
C1464 C1471 1.409 . S
C1465 H1457 0.930 . S
C1465 C1463 1.419 . S
C1465 C1466 1.362 . S
C1466 H1458 0.930 . S
C1466 C1465 1.362 . S
C1466 C1469 1.409 . S
C1467 H1459 0.930 . S
C1467 C1468 1.355 1_545 S
C1467 C1469 1.415 . S
C1468 C1467 1.355 1_565 S
C1468 C1470 1.419 . S
C1469 C1464 1.425 1_545 S
C1469 C1466 1.409 . S
C1469 C1467 1.415 . S
C1470 H1460 0.930 . S
C1470 C1468 1.419 . S
C1470 C1471 1.362 . S
C1471 H1461 0.930 . S
C1471 C1464 1.409 . S
C1471 C1470 1.362 . S
H1472 C1478 0.930 . S
H1473 C1481 0.930 . S
H1474 C1482 0.930 . S
H1475 C1483 0.930 . S
H1476 C1486 0.930 . S
H1477 C1487 0.930 . S
C1478 H1472 0.930 . S
C1478 C1479 1.355 . S
C1478 C1480 1.415 . S
C1479 C1478 1.355 . S
C1479 C1481 1.419 . S
C1480 C1478 1.415 . S
C1480 C1485 1.425 . S
C1480 C1487 1.409 . S
C1481 H1473 0.930 . S
C1481 C1479 1.419 . S
C1481 C1482 1.362 . S
C1482 H1474 0.930 . S
C1482 C1481 1.362 . S
C1482 C1485 1.409 . S
C1483 H1475 0.930 . S
C1483 C1484 1.355 . S
C1483 C1485 1.415 . S
C1484 C1483 1.355 . S
C1484 C1486 1.419 . S
C1485 C1480 1.425 . S
C1485 C1482 1.409 . S
C1485 C1483 1.415 . S
C1486 H1476 0.930 . S
C1486 C1484 1.419 . S
C1486 C1487 1.362 . S
C1487 H1477 0.930 . S
C1487 C1480 1.409 . S
C1487 C1486 1.362 . S
H1488 C1494 0.930 . S
H1489 C1497 0.930 . S
H1490 C1498 0.930 . S
H1491 C1499 0.930 . S
H1492 C1502 0.930 . S
H1493 C1503 0.930 . S
C1494 H1488 0.930 . S
C1494 C1495 1.355 1_556 S
C1494 C1496 1.415 . S
C1495 C1494 1.355 1_554 S
C1495 C1497 1.419 . S
C1496 C1494 1.415 . S
C1496 C1501 1.425 1_556 S
C1496 C1503 1.409 . S
C1497 H1489 0.930 . S
C1497 C1495 1.419 . S
C1497 C1498 1.362 . S
C1498 H1490 0.930 . S
C1498 C1497 1.362 . S
C1498 C1501 1.409 . S
C1499 H1491 0.930 . S
C1499 C1500 1.355 1_554 S
C1499 C1501 1.415 . S
C1500 C1499 1.355 1_556 S
C1500 C1502 1.419 . S
C1501 C1496 1.425 1_554 S
C1501 C1498 1.409 . S
C1501 C1499 1.415 . S
C1502 H1492 0.930 . S
C1502 C1500 1.419 . S
C1502 C1503 1.362 . S
C1503 H1493 0.930 . S
C1503 C1496 1.409 . S
C1503 C1502 1.362 . S
H1504 C1510 0.930 . S
H1505 C1513 0.930 . S
H1506 C1514 0.930 . S
H1507 C1515 0.930 . S
H1508 C1518 0.932 . S
H1509 C1519 0.930 . S
C1510 H1504 0.930 . S
C1510 C1511 1.355 1_556 S
C1510 C1512 1.415 1_556 S
C1511 C1510 1.355 1_554 S
C1511 C1513 1.419 . S
C1512 C1510 1.415 1_554 S
C1512 C1517 1.425 . S
C1512 C1519 1.409 1_554 S
C1513 H1505 0.930 . S
C1513 C1511 1.419 . S
C1513 C1514 1.362 . S
C1514 H1506 0.930 . S
C1514 C1513 1.362 . S
C1514 C1517 1.409 . S
C1515 H1507 0.930 . S
C1515 C1516 1.355 . S
C1515 C1517 1.415 . S
C1516 C1515 1.355 . S
C1516 C1518 1.415 1_554 S
C1517 C1512 1.425 . S
C1517 C1514 1.409 . S
C1517 C1515 1.415 . S
C1518 H1508 0.932 . S
C1518 C1516 1.415 1_556 S
C1518 C1519 1.364 . S
C1519 H1509 0.930 . S
C1519 C1512 1.409 1_556 S
C1519 C1518 1.364 . S
H1520 C1526 0.930 . S
H1521 C1529 0.930 . S
H1522 C1530 0.930 . S
H1523 C1531 0.930 . S
H1524 C1534 0.930 . S
H1525 C1535 0.930 . S
C1526 H1520 0.930 . S
C1526 C1527 1.355 . S
C1526 C1528 1.415 . S
C1527 C1526 1.355 . S
C1527 C1529 1.419 . S
C1528 C1526 1.415 . S
C1528 C1533 1.425 . S
C1528 C1535 1.409 . S
C1529 H1521 0.930 . S
C1529 C1527 1.419 . S
C1529 C1530 1.362 . S
C1530 H1522 0.930 . S
C1530 C1529 1.362 . S
C1530 C1533 1.409 . S
C1531 H1523 0.930 . S
C1531 C1532 1.355 . S
C1531 C1533 1.415 . S
C1532 C1531 1.355 . S
C1532 C1534 1.419 . S
C1533 C1528 1.425 . S
C1533 C1530 1.409 . S
C1533 C1531 1.415 . S
C1534 H1524 0.930 . S
C1534 C1532 1.419 . S
C1534 C1535 1.362 . S
C1535 H1525 0.930 . S
C1535 C1528 1.409 . S
C1535 C1534 1.362 . S
H1536 C1542 0.930 . S
H1537 C1545 0.930 . S
H1538 C1546 0.930 . S
H1539 C1547 0.930 . S
H1540 C1550 0.930 . S
H1541 C1551 0.930 . S
C1542 H1536 0.930 . S
C1542 C1543 1.355 . S
C1542 C1544 1.415 . S
C1543 C1542 1.355 . S
C1543 C1545 1.419 . S
C1544 C1542 1.415 . S
C1544 C1549 1.425 . S
C1544 C1551 1.409 . S
C1545 H1537 0.930 . S
C1545 C1543 1.419 . S
C1545 C1546 1.362 . S
C1546 H1538 0.930 . S
C1546 C1545 1.362 . S
C1546 C1549 1.409 . S
C1547 H1539 0.930 . S
C1547 C1548 1.355 . S
C1547 C1549 1.415 . S
C1548 C1547 1.355 . S
C1548 C1550 1.419 . S
C1549 C1544 1.425 . S
C1549 C1546 1.409 . S
C1549 C1547 1.415 . S
C1550 H1540 0.930 . S
C1550 C1548 1.419 . S
C1550 C1551 1.362 . S
C1551 H1541 0.930 . S
C1551 C1544 1.409 . S
C1551 C1550 1.362 . S
H1552 C1558 0.930 . S
H1553 C1561 0.930 . S
H1554 C1562 0.930 . S
H1555 C1563 0.930 . S
H1556 C1566 0.930 . S
H1557 C1567 0.930 . S
C1558 H1552 0.930 . S
C1558 C1559 1.355 . S
C1558 C1560 1.415 . S
C1559 C1558 1.355 . S
C1559 C1561 1.419 . S
C1560 C1558 1.415 . S
C1560 C1565 1.425 . S
C1560 C1567 1.409 . S
C1561 H1553 0.930 . S
C1561 C1559 1.419 . S
C1561 C1562 1.362 . S
C1562 H1554 0.930 . S
C1562 C1561 1.362 . S
C1562 C1565 1.409 . S
C1563 H1555 0.930 . S
C1563 C1564 1.355 . S
C1563 C1565 1.415 . S
C1564 C1563 1.355 . S
C1564 C1566 1.419 . S
C1565 C1560 1.425 . S
C1565 C1562 1.409 . S
C1565 C1563 1.415 . S
C1566 H1556 0.930 . S
C1566 C1564 1.419 . S
C1566 C1567 1.362 . S
C1567 H1557 0.930 . S
C1567 C1560 1.409 . S
C1567 C1566 1.362 . S
H1568 C1574 0.930 . S
H1569 C1577 0.930 . S
H1570 C1578 0.930 1_545 S
H1571 C1579 0.930 1_545 S
H1572 C1582 0.930 . S
H1573 C1583 0.930 . S
C1574 H1568 0.930 . S
C1574 C1575 1.355 . S
C1574 C1576 1.415 . S
C1575 C1574 1.355 . S
C1575 C1577 1.419 . S
C1576 C1574 1.415 . S
C1576 C1581 1.425 . S
C1576 C1583 1.409 . S
C1577 H1569 0.930 . S
C1577 C1575 1.419 . S
C1577 C1578 1.362 . S
C1578 H1570 0.930 1_565 S
C1578 C1577 1.362 . S
C1578 C1581 1.409 . S
C1579 H1571 0.930 1_565 S
C1579 C1580 1.355 . S
C1579 C1581 1.415 . S
C1580 C1579 1.355 . S
C1580 C1582 1.419 . S
C1581 C1576 1.425 . S
C1581 C1578 1.409 . S
C1581 C1579 1.415 . S
C1582 H1572 0.930 . S
C1582 C1580 1.419 . S
C1582 C1583 1.362 . S
C1583 H1573 0.930 . S
C1583 C1576 1.409 . S
C1583 C1582 1.362 . S
H1584 C1590 0.930 . S
H1585 C1593 0.930 . S
H1586 C1594 0.930 . S
H1587 C1595 0.930 . S
H1588 C1598 0.930 . S
H1589 C1599 0.930 . S
C1590 H1584 0.930 . S
C1590 C1591 1.355 . S
C1590 C1592 1.415 . S
C1591 C1590 1.355 . S
C1591 C1593 1.419 . S
C1592 C1590 1.415 . S
C1592 C1597 1.425 . S
C1592 C1599 1.409 . S
C1593 H1585 0.930 . S
C1593 C1591 1.419 . S
C1593 C1594 1.362 . S
C1594 H1586 0.930 . S
C1594 C1593 1.362 . S
C1594 C1597 1.409 . S
C1595 H1587 0.930 . S
C1595 C1596 1.355 . S
C1595 C1597 1.415 . S
C1596 C1595 1.355 . S
C1596 C1598 1.419 . S
C1597 C1592 1.425 . S
C1597 C1594 1.409 . S
C1597 C1595 1.415 . S
C1598 H1588 0.930 . S
C1598 C1596 1.419 . S
C1598 C1599 1.362 . S
C1599 H1589 0.930 . S
C1599 C1592 1.409 . S
C1599 C1598 1.362 . S
H1600 C1606 0.930 . S
H1601 C1609 0.930 . S
H1602 C1610 0.930 . S
H1603 C1611 0.930 . S
H1604 C1614 0.930 . S
H1605 C1615 0.930 . S
C1606 H1600 0.930 . S
C1606 C1607 1.355 . S
C1606 C1608 1.415 . S
C1607 C1606 1.355 . S
C1607 C1609 1.419 . S
C1608 C1606 1.415 . S
C1608 C1613 1.425 . S
C1608 C1615 1.409 . S
C1609 H1601 0.930 . S
C1609 C1607 1.419 . S
C1609 C1610 1.362 . S
C1610 H1602 0.930 . S
C1610 C1609 1.362 . S
C1610 C1613 1.409 . S
C1611 H1603 0.930 . S
C1611 C1612 1.355 . S
C1611 C1613 1.415 . S
C1612 C1611 1.355 . S
C1612 C1614 1.419 . S
C1613 C1608 1.425 . S
C1613 C1610 1.409 . S
C1613 C1611 1.415 . S
C1614 H1604 0.930 . S
C1614 C1612 1.419 . S
C1614 C1615 1.362 . S
C1615 H1605 0.930 . S
C1615 C1608 1.409 . S
C1615 C1614 1.362 . S
H1616 C1622 0.930 1_655 S
H1617 C1625 0.930 . S
H1618 C1626 0.930 . S
H1619 C1627 0.926 1_554 S
H1620 C1630 0.930 1_655 S
H1621 C1631 0.930 . S
C1622 H1616 0.930 1_455 S
C1622 C1623 1.355 . S
C1622 C1624 1.415 . S
C1623 C1622 1.355 . S
C1623 C1625 1.419 . S
C1624 C1622 1.415 . S
C1624 C1629 1.425 . S
C1624 C1631 1.409 1_455 S
C1625 H1617 0.930 . S
C1625 C1623 1.419 . S
C1625 C1626 1.362 . S
C1626 H1618 0.930 . S
C1626 C1625 1.362 . S
C1626 C1629 1.409 . S
C1627 H1619 0.926 1_556 S
C1627 C1628 1.355 . S
C1627 C1629 1.415 . S
C1628 C1627 1.355 . S
C1628 C1630 1.419 . S
C1629 C1624 1.425 . S
C1629 C1626 1.409 . S
C1629 C1627 1.415 . S
C1630 H1620 0.930 1_455 S
C1630 C1628 1.419 . S
C1630 C1631 1.362 1_455 S
C1631 H1621 0.930 . S
C1631 C1624 1.409 1_655 S
C1631 C1630 1.362 1_655 S
H1632 C1638 0.930 . S
H1633 C1641 0.930 . S
H1634 C1642 0.930 . S
H1635 C1643 0.930 . S
H1636 C1646 0.930 . S
H1637 C1647 0.930 . S
C1638 H1632 0.930 . S
C1638 C1639 1.355 . S
C1638 C1640 1.415 . S
C1639 C1638 1.355 . S
C1639 C1641 1.419 . S
C1640 C1638 1.415 . S
C1640 C1645 1.425 . S
C1640 C1647 1.409 . S
C1641 H1633 0.930 . S
C1641 C1639 1.419 . S
C1641 C1642 1.362 . S
C1642 H1634 0.930 . S
C1642 C1641 1.362 . S
C1642 C1645 1.409 . S
C1643 H1635 0.930 . S
C1643 C1644 1.355 . S
C1643 C1645 1.415 . S
C1644 C1643 1.355 . S
C1644 C1646 1.419 . S
C1645 C1640 1.425 . S
C1645 C1642 1.409 . S
C1645 C1643 1.415 . S
C1646 H1636 0.930 . S
C1646 C1644 1.419 . S
C1646 C1647 1.362 . S
C1647 H1637 0.930 . S
C1647 C1640 1.409 . S
C1647 C1646 1.362 . S
H1648 C1654 0.930 . S
H1649 C1657 0.930 . S
H1650 C1658 0.930 . S
H1651 C1659 0.930 . S
H1652 C1662 0.930 . S
H1653 C1663 0.930 . S
C1654 H1648 0.930 . S
C1654 C1655 1.355 . S
C1654 C1656 1.415 . S
C1655 C1654 1.355 . S
C1655 C1657 1.419 . S
C1656 C1654 1.415 . S
C1656 C1661 1.425 . S
C1656 C1663 1.409 . S
C1657 H1649 0.930 . S
C1657 C1655 1.419 . S
C1657 C1658 1.362 . S
C1658 H1650 0.930 . S
C1658 C1657 1.362 . S
C1658 C1661 1.409 . S
C1659 H1651 0.930 . S
C1659 C1660 1.355 . S
C1659 C1661 1.415 . S
C1660 C1659 1.355 . S
C1660 C1662 1.419 . S
C1661 C1656 1.425 . S
C1661 C1658 1.409 . S
C1661 C1659 1.415 . S
C1662 H1652 0.930 . S
C1662 C1660 1.419 . S
C1662 C1663 1.362 . S
C1663 H1653 0.930 . S
C1663 C1656 1.409 . S
C1663 C1662 1.362 . S
H1664 C1670 0.930 . S
H1665 C1673 0.930 . S
H1666 C1674 0.930 . S
H1667 C1675 0.930 . S
H1668 C1678 0.930 . S
H1669 C1679 0.930 . S
C1670 H1664 0.930 . S
C1670 C1671 1.355 . S
C1670 C1672 1.415 . S
C1671 C1670 1.355 . S
C1671 C1673 1.419 . S
C1672 C1670 1.415 . S
C1672 C1677 1.425 . S
C1672 C1679 1.409 . S
C1673 H1665 0.930 . S
C1673 C1671 1.419 . S
C1673 C1674 1.362 . S
C1674 H1666 0.930 . S
C1674 C1673 1.362 . S
C1674 C1677 1.409 . S
C1675 H1667 0.930 . S
C1675 C1676 1.355 . S
C1675 C1677 1.415 . S
C1676 C1675 1.355 . S
C1676 C1678 1.419 . S
C1677 C1672 1.425 . S
C1677 C1674 1.409 . S
C1677 C1675 1.415 . S
C1678 H1668 0.930 . S
C1678 C1676 1.419 . S
C1678 C1679 1.362 . S
C1679 H1669 0.930 . S
C1679 C1672 1.409 . S
C1679 C1678 1.362 . S
H1680 C1686 0.930 . S
H1681 C1689 0.930 . S
H1682 C1690 0.930 . S
H1683 C1691 0.930 . S
H1684 C1694 0.930 1_655 S
H1685 C1695 0.930 . S
C1686 H1680 0.930 . S
C1686 C1687 1.355 1_655 S
C1686 C1688 1.415 1_655 S
C1687 C1686 1.355 1_455 S
C1687 C1689 1.419 . S
C1688 C1686 1.415 1_455 S
C1688 C1693 1.425 . S
C1688 C1695 1.409 1_455 S
C1689 H1681 0.930 . S
C1689 C1687 1.419 . S
C1689 C1690 1.362 . S
C1690 H1682 0.930 . S
C1690 C1689 1.362 . S
C1690 C1693 1.409 . S
C1691 H1683 0.930 . S
C1691 C1692 1.355 . S
C1691 C1693 1.415 . S
C1692 C1691 1.355 . S
C1692 C1694 1.419 . S
C1693 C1688 1.425 . S
C1693 C1690 1.409 . S
C1693 C1691 1.415 . S
C1694 H1684 0.930 1_455 S
C1694 C1692 1.419 . S
C1694 C1695 1.362 1_455 S
C1695 H1685 0.930 . S
C1695 C1688 1.409 1_655 S
C1695 C1694 1.362 1_655 S
H1696 C1702 0.930 . S
H1697 C1705 0.930 . S
H1698 C1706 0.930 . S
H1699 C1707 0.930 . S
H1700 C1710 0.930 . S
H1701 C1711 0.930 . S
C1702 H1696 0.930 . S
C1702 C1703 1.355 . S
C1702 C1704 1.415 . S
C1703 C1702 1.355 . S
C1703 C1705 1.419 . S
C1704 C1702 1.415 . S
C1704 C1709 1.425 . S
C1704 C1711 1.409 . S
C1705 H1697 0.930 . S
C1705 C1703 1.419 . S
C1705 C1706 1.362 . S
C1706 H1698 0.930 . S
C1706 C1705 1.362 . S
C1706 C1709 1.409 . S
C1707 H1699 0.930 . S
C1707 C1708 1.355 . S
C1707 C1709 1.415 . S
C1708 C1707 1.355 . S
C1708 C1710 1.419 . S
C1709 C1704 1.425 . S
C1709 C1706 1.409 . S
C1709 C1707 1.415 . S
C1710 H1700 0.930 . S
C1710 C1708 1.419 . S
C1710 C1711 1.362 . S
C1711 H1701 0.930 . S
C1711 C1704 1.409 . S
C1711 C1710 1.362 . S
H1712 C1718 0.930 . S
H1713 C1721 0.930 . S
H1714 C1722 0.930 . S
H1715 C1723 0.930 . S
H1716 C1726 0.930 . S
H1717 C1727 0.930 . S
C1718 H1712 0.930 . S
C1718 C1719 1.355 . S
C1718 C1720 1.415 . S
C1719 C1718 1.355 . S
C1719 C1721 1.419 . S
C1720 C1718 1.415 . S
C1720 C1725 1.425 . S
C1720 C1727 1.409 . S
C1721 H1713 0.930 . S
C1721 C1719 1.419 . S
C1721 C1722 1.362 . S
C1722 H1714 0.930 . S
C1722 C1721 1.362 . S
C1722 C1725 1.409 . S
C1723 H1715 0.930 . S
C1723 C1724 1.355 . S
C1723 C1725 1.415 . S
C1724 C1723 1.355 . S
C1724 C1726 1.419 . S
C1725 C1720 1.425 . S
C1725 C1722 1.409 . S
C1725 C1723 1.415 . S
C1726 H1716 0.930 . S
C1726 C1724 1.419 . S
C1726 C1727 1.362 . S
C1727 H1717 0.930 . S
C1727 C1720 1.409 . S
C1727 C1726 1.362 . S
H1728 C1734 0.930 . S
H1729 C1737 0.930 . S
H1730 C1738 0.930 . S
H1731 C1739 0.930 . S
H1732 C1742 0.930 . S
H1733 C1743 0.930 . S
C1734 H1728 0.930 . S
C1734 C1735 1.355 . S
C1734 C1736 1.415 . S
C1735 C1734 1.355 . S
C1735 C1737 1.419 . S
C1736 C1734 1.415 . S
C1736 C1741 1.425 . S
C1736 C1743 1.409 . S
C1737 H1729 0.930 . S
C1737 C1735 1.419 . S
C1737 C1738 1.362 . S
C1738 H1730 0.930 . S
C1738 C1737 1.362 . S
C1738 C1741 1.409 . S
C1739 H1731 0.930 . S
C1739 C1740 1.355 . S
C1739 C1741 1.415 . S
C1740 C1739 1.355 . S
C1740 C1742 1.419 . S
C1741 C1736 1.425 . S
C1741 C1738 1.409 . S
C1741 C1739 1.415 . S
C1742 H1732 0.930 . S
C1742 C1740 1.419 . S
C1742 C1743 1.362 . S
C1743 H1733 0.930 . S
C1743 C1736 1.409 . S
C1743 C1742 1.362 . S
H1744 C1750 0.930 . S
H1745 C1753 0.930 . S
H1746 C1754 0.930 . S
H1747 C1755 0.930 . S
H1748 C1758 0.930 . S
H1749 C1759 0.930 . S
C1750 H1744 0.930 . S
C1750 C1751 1.355 . S
C1750 C1752 1.415 . S
C1751 C1750 1.355 . S
C1751 C1753 1.419 1_545 S
C1752 C1750 1.415 . S
C1752 C1757 1.425 . S
C1752 C1759 1.409 . S
C1753 H1745 0.930 . S
C1753 C1751 1.419 1_565 S
C1753 C1754 1.362 . S
C1754 H1746 0.930 . S
C1754 C1753 1.362 . S
C1754 C1757 1.409 1_565 S
C1755 H1747 0.930 . S
C1755 C1756 1.355 . S
C1755 C1757 1.415 . S
C1756 C1755 1.355 . S
C1756 C1758 1.419 . S
C1757 C1752 1.425 . S
C1757 C1754 1.409 1_545 S
C1757 C1755 1.415 . S
C1758 H1748 0.930 . S
C1758 C1756 1.419 . S
C1758 C1759 1.362 . S
C1759 H1749 0.930 . S
C1759 C1752 1.409 . S
C1759 C1758 1.362 . S
H1760 C1766 0.930 . S
H1761 C1769 0.930 . S
H1762 C1770 0.930 . S
H1763 C1771 0.930 . S
H1764 C1774 0.930 . S
H1765 C1775 0.930 . S
C1766 H1760 0.930 . S
C1766 C1767 1.355 . S
C1766 C1768 1.415 . S
C1767 C1766 1.355 . S
C1767 C1769 1.419 . S
C1768 C1766 1.415 . S
C1768 C1773 1.425 . S
C1768 C1775 1.409 . S
C1769 H1761 0.930 . S
C1769 C1767 1.419 . S
C1769 C1770 1.362 . S
C1770 H1762 0.930 . S
C1770 C1769 1.362 . S
C1770 C1773 1.409 . S
C1771 H1763 0.930 . S
C1771 C1772 1.355 . S
C1771 C1773 1.415 . S
C1772 C1771 1.355 . S
C1772 C1774 1.419 . S
C1773 C1768 1.425 . S
C1773 C1770 1.409 . S
C1773 C1771 1.415 . S
C1774 H1764 0.930 . S
C1774 C1772 1.419 . S
C1774 C1775 1.362 . S
C1775 H1765 0.930 . S
C1775 C1768 1.409 . S
C1775 C1774 1.362 . S
H1776 C1782 0.930 . S
H1777 C1785 0.930 . S
H1778 C1786 0.930 . S
H1779 C1787 0.919 1_545 S
H1780 C1790 0.930 . S
H1781 C1791 0.930 . S
C1782 H1776 0.930 . S
C1782 C1783 1.364 . S
C1782 C1784 1.415 . S
C1783 C1782 1.364 . S
C1783 C1785 1.411 1_565 S
C1784 C1782 1.415 . S
C1784 C1789 1.425 . S
C1784 C1791 1.409 . S
C1785 H1777 0.930 . S
C1785 C1783 1.411 1_545 S
C1785 C1786 1.362 . S
C1786 H1778 0.930 . S
C1786 C1785 1.362 . S
C1786 C1789 1.409 1_545 S
C1787 H1779 0.919 1_565 S
C1787 C1788 1.355 . S
C1787 C1789 1.415 . S
C1788 C1787 1.355 . S
C1788 C1790 1.419 . S
C1789 C1784 1.425 . S
C1789 C1786 1.409 1_565 S
C1789 C1787 1.415 . S
C1790 H1780 0.930 . S
C1790 C1788 1.419 . S
C1790 C1791 1.362 . S
C1791 H1781 0.930 . S
C1791 C1784 1.409 . S
C1791 C1790 1.362 . S
H1792 C1798 0.930 . S
H1793 C1801 0.930 . S
H1794 C1802 0.930 . S
H1795 C1803 0.930 . S
H1796 C1806 0.930 . S
H1797 C1807 0.930 . S
C1798 H1792 0.930 . S
C1798 C1799 1.355 . S
C1798 C1800 1.415 . S
C1799 C1798 1.355 . S
C1799 C1801 1.419 . S
C1800 C1798 1.415 . S
C1800 C1805 1.425 . S
C1800 C1807 1.409 . S
C1801 H1793 0.930 . S
C1801 C1799 1.419 . S
C1801 C1802 1.362 . S
C1802 H1794 0.930 . S
C1802 C1801 1.362 . S
C1802 C1805 1.409 . S
C1803 H1795 0.930 . S
C1803 C1804 1.355 . S
C1803 C1805 1.415 . S
C1804 C1803 1.355 . S
C1804 C1806 1.419 . S
C1805 C1800 1.425 . S
C1805 C1802 1.409 . S
C1805 C1803 1.415 . S
C1806 H1796 0.930 . S
C1806 C1804 1.419 . S
C1806 C1807 1.362 . S
C1807 H1797 0.930 . S
C1807 C1800 1.409 . S
C1807 C1806 1.362 . S
H1808 C1814 0.919 1_565 S
H1809 C1817 0.930 . S
H1810 C1818 0.930 . S
H1811 C1819 0.930 . S
H1812 C1822 0.917 1_455 S
H1813 C1823 0.930 . S
C1814 H1808 0.919 1_545 S
C1814 C1815 1.368 . S
C1814 C1816 1.412 1_545 S
C1815 C1814 1.368 . S
C1815 C1817 1.419 . S
C1816 C1814 1.412 1_565 S
C1816 C1821 1.425 1_565 S
C1816 C1823 1.409 . S
C1817 H1809 0.930 . S
C1817 C1815 1.419 . S
C1817 C1818 1.362 . S
C1818 H1810 0.930 . S
C1818 C1817 1.362 . S
C1818 C1821 1.409 . S
C1819 H1811 0.930 . S
C1819 C1820 1.355 1_545 S
C1819 C1821 1.415 . S
C1820 C1819 1.355 1_565 S
C1820 C1822 1.419 . S
C1821 C1816 1.425 1_545 S
C1821 C1818 1.409 . S
C1821 C1819 1.415 . S
C1822 H1812 0.917 1_655 S
C1822 C1820 1.419 . S
C1822 C1823 1.362 . S
C1823 H1813 0.930 . S
C1823 C1816 1.409 . S
C1823 C1822 1.362 . S
H1824 C1830 0.930 . S
H1825 C1833 0.930 . S
H1826 C1834 0.930 . S
H1827 C1835 0.930 . S
H1828 C1838 0.930 . S
H1829 C1839 0.930 . S
C1830 H1824 0.930 . S
C1830 C1831 1.355 . S
C1830 C1832 1.415 . S
C1831 C1830 1.355 . S
C1831 C1833 1.419 . S
C1832 C1830 1.415 . S
C1832 C1837 1.425 . S
C1832 C1839 1.409 . S
C1833 H1825 0.930 . S
C1833 C1831 1.419 . S
C1833 C1834 1.362 . S
C1834 H1826 0.930 . S
C1834 C1833 1.362 . S
C1834 C1837 1.409 . S
C1835 H1827 0.930 . S
C1835 C1836 1.355 . S
C1835 C1837 1.415 . S
C1836 C1835 1.355 . S
C1836 C1838 1.419 . S
C1837 C1832 1.425 . S
C1837 C1834 1.409 . S
C1837 C1835 1.415 . S
C1838 H1828 0.930 . S
C1838 C1836 1.419 . S
C1838 C1839 1.362 . S
C1839 H1829 0.930 . S
C1839 C1832 1.409 . S
C1839 C1838 1.362 . S
H1840 C1846 0.930 . S
H1841 C1849 0.930 . S
H1842 C1850 0.930 . S
H1843 C1851 0.930 1_565 S
H1844 C1854 0.930 . S
H1845 C1855 0.930 . S
C1846 H1840 0.930 . S
C1846 C1847 1.355 . S
C1846 C1848 1.415 . S
C1847 C1846 1.355 . S
C1847 C1849 1.419 1_545 S
C1848 C1846 1.415 . S
C1848 C1853 1.425 . S
C1848 C1855 1.409 . S
C1849 H1841 0.930 . S
C1849 C1847 1.419 1_565 S
C1849 C1850 1.362 . S
C1850 H1842 0.930 . S
C1850 C1849 1.362 . S
C1850 C1853 1.409 1_565 S
C1851 H1843 0.930 1_545 S
C1851 C1852 1.355 . S
C1851 C1853 1.415 . S
C1852 C1851 1.355 . S
C1852 C1854 1.419 . S
C1853 C1848 1.425 . S
C1853 C1850 1.409 1_545 S
C1853 C1851 1.415 . S
C1854 H1844 0.930 . S
C1854 C1852 1.419 . S
C1854 C1855 1.362 . S
C1855 H1845 0.930 . S
C1855 C1848 1.409 . S
C1855 C1854 1.362 . S
H1856 C1862 0.930 . S
H1857 C1865 0.930 . S
H1858 C1866 0.930 . S
H1859 C1867 0.930 . S
H1860 C1870 0.930 . S
H1861 C1871 0.930 . S
C1862 H1856 0.930 . S
C1862 C1863 1.355 . S
C1862 C1864 1.415 . S
C1863 C1862 1.355 . S
C1863 C1865 1.419 . S
C1864 C1862 1.415 . S
C1864 C1869 1.425 . S
C1864 C1871 1.409 . S
C1865 H1857 0.930 . S
C1865 C1863 1.419 . S
C1865 C1866 1.362 . S
C1866 H1858 0.930 . S
C1866 C1865 1.362 . S
C1866 C1869 1.409 . S
C1867 H1859 0.930 . S
C1867 C1868 1.355 . S
C1867 C1869 1.415 . S
C1868 C1867 1.355 . S
C1868 C1870 1.419 . S
C1869 C1864 1.425 . S
C1869 C1866 1.409 . S
C1869 C1867 1.415 . S
C1870 H1860 0.930 . S
C1870 C1868 1.419 . S
C1870 C1871 1.362 . S
C1871 H1861 0.930 . S
C1871 C1864 1.409 . S
C1871 C1870 1.362 . S
H1872 C1878 0.930 . S
H1873 C1881 0.930 . S
H1874 C1882 0.930 . S
H1875 C1883 0.930 1_556 S
H1876 C1886 0.930 . S
H1877 C1887 0.930 . S
C1878 H1872 0.930 . S
C1878 C1879 1.355 . S
C1878 C1880 1.415 . S
C1879 C1878 1.355 . S
C1879 C1881 1.419 1_554 S
C1880 C1878 1.415 . S
C1880 C1885 1.425 . S
C1880 C1887 1.409 . S
C1881 H1873 0.930 . S
C1881 C1879 1.419 1_556 S
C1881 C1882 1.362 . S
C1882 H1874 0.930 . S
C1882 C1881 1.362 . S
C1882 C1885 1.409 1_556 S
C1883 H1875 0.930 1_554 S
C1883 C1884 1.355 . S
C1883 C1885 1.415 . S
C1884 C1883 1.355 . S
C1884 C1886 1.419 . S
C1885 C1880 1.425 . S
C1885 C1882 1.409 1_554 S
C1885 C1883 1.415 . S
C1886 H1876 0.930 . S
C1886 C1884 1.419 . S
C1886 C1887 1.362 . S
C1887 H1877 0.930 . S
C1887 C1880 1.409 . S
C1887 C1886 1.362 . S
H1888 C1894 0.930 . S
H1889 C1897 0.930 . S
H1890 C1898 0.930 . S
H1891 C1899 0.930 . S
H1892 C1902 0.930 . S
H1893 C1903 0.930 . S
C1894 H1888 0.930 . S
C1894 C1895 1.355 1_556 S
C1894 C1896 1.415 . S
C1895 C1894 1.355 1_554 S
C1895 C1897 1.419 . S
C1896 C1894 1.415 . S
C1896 C1901 1.425 . S
C1896 C1903 1.409 . S
C1897 H1889 0.930 . S
C1897 C1895 1.419 . S
C1897 C1898 1.362 . S
C1898 H1890 0.930 . S
C1898 C1897 1.362 . S
C1898 C1901 1.409 1_554 S
C1899 H1891 0.930 . S
C1899 C1900 1.355 . S
C1899 C1901 1.415 . S
C1900 C1899 1.355 . S
C1900 C1902 1.419 . S
C1901 C1896 1.425 . S
C1901 C1898 1.409 1_556 S
C1901 C1899 1.415 . S
C1902 H1892 0.930 . S
C1902 C1900 1.419 . S
C1902 C1903 1.362 . S
C1903 H1893 0.930 . S
C1903 C1896 1.409 . S
C1903 C1902 1.362 . S
H1904 C1910 0.930 . S
H1905 C1913 0.930 . S
H1906 C1914 0.930 . S
H1907 C1915 0.930 . S
H1908 C1918 0.930 . S
H1909 C1919 0.930 . S
C1910 H1904 0.930 . S
C1910 C1911 1.355 . S
C1910 C1912 1.415 . S
C1911 C1910 1.355 . S
C1911 C1913 1.419 . S
C1912 C1910 1.415 . S
C1912 C1917 1.425 . S
C1912 C1919 1.409 . S
C1913 H1905 0.930 . S
C1913 C1911 1.419 . S
C1913 C1914 1.362 . S
C1914 H1906 0.930 . S
C1914 C1913 1.362 . S
C1914 C1917 1.409 . S
C1915 H1907 0.930 . S
C1915 C1916 1.355 . S
C1915 C1917 1.415 . S
C1916 C1915 1.355 . S
C1916 C1918 1.419 . S
C1917 C1912 1.425 . S
C1917 C1914 1.409 . S
C1917 C1915 1.415 . S
C1918 H1908 0.930 . S
C1918 C1916 1.419 . S
C1918 C1919 1.362 . S
C1919 H1909 0.930 . S
C1919 C1912 1.409 . S
C1919 C1918 1.362 . S
H1920 C1926 0.930 . S
H1921 C1929 0.930 . S
H1922 C1930 0.930 . S
H1923 C1931 0.930 . S
H1924 C1934 0.930 . S
H1925 C1935 0.930 . S
C1926 H1920 0.930 . S
C1926 C1927 1.355 . S
C1926 C1928 1.415 . S
C1927 C1926 1.355 . S
C1927 C1929 1.419 . S
C1928 C1926 1.415 . S
C1928 C1933 1.425 . S
C1928 C1935 1.409 . S
C1929 H1921 0.930 . S
C1929 C1927 1.419 . S
C1929 C1930 1.362 . S
C1930 H1922 0.930 . S
C1930 C1929 1.362 . S
C1930 C1933 1.409 . S
C1931 H1923 0.930 . S
C1931 C1932 1.355 . S
C1931 C1933 1.415 . S
C1932 C1931 1.355 . S
C1932 C1934 1.419 . S
C1933 C1928 1.425 . S
C1933 C1930 1.409 . S
C1933 C1931 1.415 . S
C1934 H1924 0.930 . S
C1934 C1932 1.419 . S
C1934 C1935 1.362 . S
C1935 H1925 0.930 . S
C1935 C1928 1.409 . S
C1935 C1934 1.362 . S
H1936 C1942 0.930 . S
H1937 C1945 0.930 . S
H1938 C1946 0.930 . S
H1939 C1947 0.930 . S
H1940 C1950 0.930 . S
H1941 C1951 0.930 . S
C1942 H1936 0.930 . S
C1942 C1943 1.355 . S
C1942 C1944 1.415 . S
C1943 C1942 1.355 . S
C1943 C1945 1.419 . S
C1944 C1942 1.415 . S
C1944 C1949 1.425 . S
C1944 C1951 1.409 . S
C1945 H1937 0.930 . S
C1945 C1943 1.419 . S
C1945 C1946 1.362 . S
C1946 H1938 0.930 . S
C1946 C1945 1.362 . S
C1946 C1949 1.409 . S
C1947 H1939 0.930 . S
C1947 C1948 1.355 . S
C1947 C1949 1.415 . S
C1948 C1947 1.355 . S
C1948 C1950 1.419 . S
C1949 C1944 1.425 . S
C1949 C1946 1.409 . S
C1949 C1947 1.415 . S
C1950 H1940 0.930 . S
C1950 C1948 1.419 . S
C1950 C1951 1.362 . S
C1951 H1941 0.930 . S
C1951 C1944 1.409 . S
C1951 C1950 1.362 . S
H1952 C1958 0.930 . S
H1953 C1961 0.930 . S
H1954 C1962 0.930 . S
H1955 C1963 0.930 . S
H1956 C1966 0.930 . S
H1957 C1967 0.930 . S
C1958 H1952 0.930 . S
C1958 C1959 1.355 . S
C1958 C1960 1.415 . S
C1959 C1958 1.355 . S
C1959 C1961 1.419 . S
C1960 C1958 1.415 . S
C1960 C1965 1.425 . S
C1960 C1967 1.409 . S
C1961 H1953 0.930 . S
C1961 C1959 1.419 . S
C1961 C1962 1.362 . S
C1962 H1954 0.930 . S
C1962 C1961 1.362 . S
C1962 C1965 1.409 . S
C1963 H1955 0.930 . S
C1963 C1964 1.355 . S
C1963 C1965 1.415 . S
C1964 C1963 1.355 . S
C1964 C1966 1.419 . S
C1965 C1960 1.425 . S
C1965 C1962 1.409 . S
C1965 C1963 1.415 . S
C1966 H1956 0.930 . S
C1966 C1964 1.419 . S
C1966 C1967 1.362 . S
C1967 H1957 0.930 . S
C1967 C1960 1.409 . S
C1967 C1966 1.362 . S
H1968 C1974 0.930 . S
H1969 C1977 0.930 . S
H1970 C1978 0.930 . S
H1971 C1979 0.930 . S
H1972 C1982 0.930 . S
H1973 C1983 0.930 . S
C1974 H1968 0.930 . S
C1974 C1975 1.355 . S
C1974 C1976 1.415 . S
C1975 C1974 1.355 . S
C1975 C1977 1.419 . S
C1976 C1974 1.415 . S
C1976 C1981 1.425 . S
C1976 C1983 1.409 . S
C1977 H1969 0.930 . S
C1977 C1975 1.419 . S
C1977 C1978 1.362 . S
C1978 H1970 0.930 . S
C1978 C1977 1.362 . S
C1978 C1981 1.409 . S
C1979 H1971 0.930 . S
C1979 C1980 1.355 . S
C1979 C1981 1.415 . S
C1980 C1979 1.355 . S
C1980 C1982 1.419 . S
C1981 C1976 1.425 . S
C1981 C1978 1.409 . S
C1981 C1979 1.415 . S
C1982 H1972 0.930 . S
C1982 C1980 1.419 . S
C1982 C1983 1.362 . S
C1983 H1973 0.930 . S
C1983 C1976 1.409 . S
C1983 C1982 1.362 . S
H1984 C1990 0.930 . S
H1985 C1993 0.930 . S
H1986 C1994 0.930 . S
H1987 C1995 0.930 . S
H1988 C1998 0.930 . S
H1989 C1999 0.930 . S
C1990 H1984 0.930 . S
C1990 C1991 1.355 . S
C1990 C1992 1.415 . S
C1991 C1990 1.355 . S
C1991 C1993 1.419 . S
C1992 C1990 1.415 . S
C1992 C1997 1.425 . S
C1992 C1999 1.409 . S
C1993 H1985 0.930 . S
C1993 C1991 1.419 . S
C1993 C1994 1.362 . S
C1994 H1986 0.930 . S
C1994 C1993 1.362 . S
C1994 C1997 1.409 . S
C1995 H1987 0.930 . S
C1995 C1996 1.355 . S
C1995 C1997 1.415 . S
C1996 C1995 1.355 . S
C1996 C1998 1.419 . S
C1997 C1992 1.425 . S
C1997 C1994 1.409 . S
C1997 C1995 1.415 . S
C1998 H1988 0.930 . S
C1998 C1996 1.419 . S
C1998 C1999 1.362 . S
C1999 H1989 0.930 . S
C1999 C1992 1.409 . S
C1999 C1998 1.362 . S
H2000 C2006 0.930 . S
H2001 C2009 0.930 . S
H2002 C2010 0.930 . S
H2003 C2011 0.930 . S
H2004 C2014 0.930 . S
H2005 C2015 0.930 . S
C2006 H2000 0.930 . S
C2006 C2007 1.355 . S
C2006 C2008 1.415 . S
C2007 C2006 1.355 . S
C2007 C2009 1.419 . S
C2008 C2006 1.415 . S
C2008 C2013 1.425 . S
C2008 C2015 1.409 . S
C2009 H2001 0.930 . S
C2009 C2007 1.419 . S
C2009 C2010 1.362 . S
C2010 H2002 0.930 . S
C2010 C2009 1.362 . S
C2010 C2013 1.409 . S
C2011 H2003 0.930 . S
C2011 C2012 1.355 . S
C2011 C2013 1.415 . S
C2012 C2011 1.355 . S
C2012 C2014 1.419 . S
C2013 C2008 1.425 . S
C2013 C2010 1.409 . S
C2013 C2011 1.415 . S
C2014 H2004 0.930 . S
C2014 C2012 1.419 . S
C2014 C2015 1.362 . S
C2015 H2005 0.930 . S
C2015 C2008 1.409 . S
C2015 C2014 1.362 . S
H2016 C2022 0.930 . S
H2017 C2025 0.930 . S
H2018 C2026 0.930 . S
H2019 C2027 0.930 . S
H2020 C2030 0.930 . S
H2021 C2031 0.930 . S
C2022 H2016 0.930 . S
C2022 C2023 1.355 . S
C2022 C2024 1.415 . S
C2023 C2022 1.355 . S
C2023 C2025 1.419 . S
C2024 C2022 1.415 . S
C2024 C2029 1.425 . S
C2024 C2031 1.409 . S
C2025 H2017 0.930 . S
C2025 C2023 1.419 . S
C2025 C2026 1.362 . S
C2026 H2018 0.930 . S
C2026 C2025 1.362 . S
C2026 C2029 1.409 . S
C2027 H2019 0.930 . S
C2027 C2028 1.355 . S
C2027 C2029 1.415 . S
C2028 C2027 1.355 . S
C2028 C2030 1.419 . S
C2029 C2024 1.425 . S
C2029 C2026 1.409 . S
C2029 C2027 1.415 . S
C2030 H2020 0.930 . S
C2030 C2028 1.419 . S
C2030 C2031 1.362 . S
C2031 H2021 0.930 . S
C2031 C2024 1.409 . S
C2031 C2030 1.362 . S
H2032 C2038 0.930 . S
H2033 C2041 0.930 . S
H2034 C2042 0.930 . S
H2035 C2043 0.930 . S
H2036 C2046 0.913 1_655 S
H2037 C2047 0.930 . S
C2038 H2032 0.930 . S
C2038 C2039 1.355 1_655 S
C2038 C2040 1.415 1_655 S
C2039 C2038 1.355 1_455 S
C2039 C2041 1.419 . S
C2040 C2038 1.415 1_455 S
C2040 C2045 1.425 . S
C2040 C2047 1.409 1_455 S
C2041 H2033 0.930 . S
C2041 C2039 1.419 . S
C2041 C2042 1.362 . S
C2042 H2034 0.930 . S
C2042 C2041 1.362 . S
C2042 C2045 1.409 . S
C2043 H2035 0.930 . S
C2043 C2044 1.355 . S
C2043 C2045 1.415 . S
C2044 C2043 1.355 . S
C2044 C2046 1.447 . S
C2045 C2040 1.425 . S
C2045 C2042 1.409 . S
C2045 C2043 1.415 . S
C2046 H2036 0.913 1_455 S
C2046 C2044 1.447 . S
C2046 C2047 1.352 1_455 S
C2047 H2037 0.930 . S
C2047 C2040 1.409 1_655 S
C2047 C2046 1.352 1_655 S
H2048 C2054 0.930 . S
H2049 C2057 0.930 . S
H2050 C2058 0.930 . S
H2051 C2059 0.930 . S
H2052 C2062 0.930 . S
H2053 C2063 0.930 . S
C2054 H2048 0.930 . S
C2054 C2055 1.355 . S
C2054 C2056 1.415 . S
C2055 C2054 1.355 . S
C2055 C2057 1.419 . S
C2056 C2054 1.415 . S
C2056 C2061 1.425 . S
C2056 C2063 1.409 . S
C2057 H2049 0.930 . S
C2057 C2055 1.419 . S
C2057 C2058 1.362 . S
C2058 H2050 0.930 . S
C2058 C2057 1.362 . S
C2058 C2061 1.409 . S
C2059 H2051 0.930 . S
C2059 C2060 1.355 . S
C2059 C2061 1.415 . S
C2060 C2059 1.355 . S
C2060 C2062 1.419 . S
C2061 C2056 1.425 . S
C2061 C2058 1.409 . S
C2061 C2059 1.415 . S
C2062 H2052 0.930 . S
C2062 C2060 1.419 . S
C2062 C2063 1.362 . S
C2063 H2053 0.930 . S
C2063 C2056 1.409 . S
C2063 C2062 1.362 . S
H2064 C2070 0.930 . S
H2065 C2073 0.930 . S
H2066 C2074 0.930 . S
H2067 C2075 0.930 . S
H2068 C2078 0.930 . S
H2069 C2079 0.930 . S
C2070 H2064 0.930 . S
C2070 C2071 1.355 . S
C2070 C2072 1.415 . S
C2071 C2070 1.355 . S
C2071 C2073 1.419 . S
C2072 C2070 1.415 . S
C2072 C2077 1.425 . S
C2072 C2079 1.409 . S
C2073 H2065 0.930 . S
C2073 C2071 1.419 . S
C2073 C2074 1.362 . S
C2074 H2066 0.930 . S
C2074 C2073 1.362 . S
C2074 C2077 1.409 . S
C2075 H2067 0.930 . S
C2075 C2076 1.355 . S
C2075 C2077 1.415 . S
C2076 C2075 1.355 . S
C2076 C2078 1.419 . S
C2077 C2072 1.425 . S
C2077 C2074 1.409 . S
C2077 C2075 1.415 . S
C2078 H2068 0.930 . S
C2078 C2076 1.419 . S
C2078 C2079 1.362 . S
C2079 H2069 0.930 . S
C2079 C2072 1.409 . S
C2079 C2078 1.362 . S
H2080 C2086 0.930 . S
H2081 C2089 0.930 . S
H2082 C2090 0.930 . S
H2083 C2091 0.930 . S
H2084 C2094 0.930 . S
H2085 C2095 0.930 . S
C2086 H2080 0.930 . S
C2086 C2087 1.355 . S
C2086 C2088 1.415 . S
C2087 C2086 1.355 . S
C2087 C2089 1.419 . S
C2088 C2086 1.415 . S
C2088 C2093 1.425 . S
C2088 C2095 1.409 . S
C2089 H2081 0.930 . S
C2089 C2087 1.419 . S
C2089 C2090 1.362 . S
C2090 H2082 0.930 . S
C2090 C2089 1.362 . S
C2090 C2093 1.409 . S
C2091 H2083 0.930 . S
C2091 C2092 1.355 . S
C2091 C2093 1.415 . S
C2092 C2091 1.355 . S
C2092 C2094 1.419 . S
C2093 C2088 1.425 . S
C2093 C2090 1.409 . S
C2093 C2091 1.415 . S
C2094 H2084 0.930 . S
C2094 C2092 1.419 . S
C2094 C2095 1.362 . S
C2095 H2085 0.930 . S
C2095 C2088 1.409 . S
C2095 C2094 1.362 . S
H2096 C2102 0.930 . S
H2097 C2105 0.930 . S
H2098 C2106 0.930 . S
H2099 C2107 0.930 . S
H2100 C2110 0.930 . S
H2101 C2111 0.930 . S
C2102 H2096 0.930 . S
C2102 C2103 1.355 1_655 S
C2102 C2104 1.415 1_655 S
C2103 C2102 1.355 1_455 S
C2103 C2105 1.419 . S
C2104 C2102 1.415 1_455 S
C2104 C2109 1.425 . S
C2104 C2111 1.409 1_455 S
C2105 H2097 0.930 . S
C2105 C2103 1.419 . S
C2105 C2106 1.362 . S
C2106 H2098 0.930 . S
C2106 C2105 1.362 . S
C2106 C2109 1.409 . S
C2107 H2099 0.930 . S
C2107 C2108 1.355 . S
C2107 C2109 1.415 . S
C2108 C2107 1.355 . S
C2108 C2110 1.419 1_455 S
C2109 C2104 1.425 . S
C2109 C2106 1.409 . S
C2109 C2107 1.415 . S
C2110 H2100 0.930 . S
C2110 C2108 1.419 1_655 S
C2110 C2111 1.362 . S
C2111 H2101 0.930 . S
C2111 C2104 1.409 1_655 S
C2111 C2110 1.362 . S
H2112 C2118 0.930 . S
H2113 C2121 0.930 . S
H2114 C2122 0.930 . S
H2115 C2123 0.930 . S
H2116 C2126 0.930 . S
H2117 C2127 0.930 . S
C2118 H2112 0.930 . S
C2118 C2119 1.355 . S
C2118 C2120 1.415 . S
C2119 C2118 1.355 . S
C2119 C2121 1.419 . S
C2120 C2118 1.415 . S
C2120 C2125 1.425 . S
C2120 C2127 1.409 . S
C2121 H2113 0.930 . S
C2121 C2119 1.419 . S
C2121 C2122 1.362 . S
C2122 H2114 0.930 . S
C2122 C2121 1.362 . S
C2122 C2125 1.409 . S
C2123 H2115 0.930 . S
C2123 C2124 1.355 . S
C2123 C2125 1.415 . S
C2124 C2123 1.355 . S
C2124 C2126 1.419 . S
C2125 C2120 1.425 . S
C2125 C2122 1.409 . S
C2125 C2123 1.415 . S
C2126 H2116 0.930 . S
C2126 C2124 1.419 . S
C2126 C2127 1.362 . S
C2127 H2117 0.930 . S
C2127 C2120 1.409 . S
C2127 C2126 1.362 . S
H2128 C2134 0.930 . S
H2129 C2137 0.930 . S
H2130 C2138 0.930 . S
H2131 C2139 0.930 . S
H2132 C2142 0.930 . S
H2133 C2143 0.930 . S
C2134 H2128 0.930 . S
C2134 C2135 1.355 . S
C2134 C2136 1.415 . S
C2135 C2134 1.355 . S
C2135 C2137 1.419 . S
C2136 C2134 1.415 . S
C2136 C2141 1.425 . S
C2136 C2143 1.409 . S
C2137 H2129 0.930 . S
C2137 C2135 1.419 . S
C2137 C2138 1.362 . S
C2138 H2130 0.930 . S
C2138 C2137 1.362 . S
C2138 C2141 1.409 . S
C2139 H2131 0.930 . S
C2139 C2140 1.355 . S
C2139 C2141 1.415 . S
C2140 C2139 1.355 . S
C2140 C2142 1.419 . S
C2141 C2136 1.425 . S
C2141 C2138 1.409 . S
C2141 C2139 1.415 . S
C2142 H2132 0.930 . S
C2142 C2140 1.419 . S
C2142 C2143 1.362 . S
C2143 H2133 0.930 . S
C2143 C2136 1.409 . S
C2143 C2142 1.362 . S
H2144 C2150 0.930 . S
H2145 C2153 0.930 . S
H2146 C2154 0.930 . S
H2147 C2155 0.930 . S
H2148 C2158 0.930 . S
H2149 C2159 0.930 . S
C2150 H2144 0.930 . S
C2150 C2151 1.355 . S
C2150 C2152 1.415 . S
C2151 C2150 1.355 . S
C2151 C2153 1.419 . S
C2152 C2150 1.415 . S
C2152 C2157 1.425 . S
C2152 C2159 1.409 . S
C2153 H2145 0.930 . S
C2153 C2151 1.419 . S
C2153 C2154 1.362 . S
C2154 H2146 0.930 . S
C2154 C2153 1.362 . S
C2154 C2157 1.409 . S
C2155 H2147 0.930 . S
C2155 C2156 1.355 . S
C2155 C2157 1.415 . S
C2156 C2155 1.355 . S
C2156 C2158 1.419 . S
C2157 C2152 1.425 . S
C2157 C2154 1.409 . S
C2157 C2155 1.415 . S
C2158 H2148 0.930 . S
C2158 C2156 1.419 . S
C2158 C2159 1.362 . S
C2159 H2149 0.930 . S
C2159 C2152 1.409 . S
C2159 C2158 1.362 . S
H2160 C2166 0.930 . S
H2161 C2169 0.930 . S
H2162 C2170 0.930 . S
H2163 C2171 0.930 . S
H2164 C2174 0.942 . S
H2165 C2175 0.930 . S
C2166 H2160 0.930 . S
C2166 C2167 1.355 . S
C2166 C2168 1.415 . S
C2167 C2166 1.355 . S
C2167 C2169 1.419 . S
C2168 C2166 1.415 . S
C2168 C2173 1.425 . S
C2168 C2175 1.409 . S
C2169 H2161 0.930 . S
C2169 C2167 1.419 . S
C2169 C2170 1.362 . S
C2170 H2162 0.930 . S
C2170 C2169 1.362 . S
C2170 C2173 1.409 . S
C2171 H2163 0.930 . S
C2171 C2172 1.355 . S
C2171 C2173 1.415 . S
C2172 C2171 1.355 . S
C2172 C2174 1.419 . S
C2173 C2168 1.425 . S
C2173 C2170 1.409 . S
C2173 C2171 1.415 . S
C2174 H2164 0.942 . S
C2174 C2172 1.419 . S
C2174 C2175 1.362 . S
C2175 H2165 0.930 . S
C2175 C2168 1.409 . S
C2175 C2174 1.362 . S
H2176 C2182 0.930 . S
H2177 C2185 0.930 . S
H2178 C2186 0.930 . S
H2179 C2187 0.930 . S
H2180 C2190 0.930 . S
H2181 C2191 0.930 . S
C2182 H2176 0.930 . S
C2182 C2183 1.355 . S
C2182 C2184 1.415 . S
C2183 C2182 1.355 . S
C2183 C2185 1.419 . S
C2184 C2182 1.415 . S
C2184 C2189 1.425 . S
C2184 C2191 1.409 . S
C2185 H2177 0.930 . S
C2185 C2183 1.419 . S
C2185 C2186 1.362 . S
C2186 H2178 0.930 . S
C2186 C2185 1.362 . S
C2186 C2189 1.409 . S
C2187 H2179 0.930 . S
C2187 C2188 1.355 . S
C2187 C2189 1.415 . S
C2188 C2187 1.355 . S
C2188 C2190 1.419 . S
C2189 C2184 1.425 . S
C2189 C2186 1.409 . S
C2189 C2187 1.415 . S
C2190 H2180 0.930 . S
C2190 C2188 1.419 . S
C2190 C2191 1.362 . S
C2191 H2181 0.930 . S
C2191 C2184 1.409 . S
C2191 C2190 1.362 . S
H2192 C2198 0.930 . S
H2193 C2201 0.930 . S
H2194 C2202 0.930 . S
H2195 C2203 0.930 . S
H2196 C2206 0.930 . S
H2197 C2207 0.930 . S
C2198 H2192 0.930 . S
C2198 C2199 1.355 . S
C2198 C2200 1.415 . S
C2199 C2198 1.355 . S
C2199 C2201 1.419 . S
C2200 C2198 1.415 . S
C2200 C2205 1.425 . S
C2200 C2207 1.409 . S
C2201 H2193 0.930 . S
C2201 C2199 1.419 . S
C2201 C2202 1.362 . S
C2202 H2194 0.930 . S
C2202 C2201 1.362 . S
C2202 C2205 1.409 . S
C2203 H2195 0.930 . S
C2203 C2204 1.355 . S
C2203 C2205 1.415 . S
C2204 C2203 1.355 . S
C2204 C2206 1.419 . S
C2205 C2200 1.425 . S
C2205 C2202 1.409 . S
C2205 C2203 1.415 . S
C2206 H2196 0.930 . S
C2206 C2204 1.419 . S
C2206 C2207 1.362 . S
C2207 H2197 0.930 . S
C2207 C2200 1.409 . S
C2207 C2206 1.362 . S
H2208 C2214 0.930 . S
H2209 C2217 0.930 . S
H2210 C2218 0.930 . S
H2211 C2219 0.930 . S
H2212 C2222 0.930 . S
H2213 C2223 0.930 . S
C2214 H2208 0.930 . S
C2214 C2215 1.355 . S
C2214 C2216 1.415 . S
C2215 C2214 1.355 . S
C2215 C2217 1.419 . S
C2216 C2214 1.415 . S
C2216 C2221 1.425 . S
C2216 C2223 1.409 . S
C2217 H2209 0.930 . S
C2217 C2215 1.419 . S
C2217 C2218 1.362 . S
C2218 H2210 0.930 . S
C2218 C2217 1.362 . S
C2218 C2221 1.409 . S
C2219 H2211 0.930 . S
C2219 C2220 1.355 . S
C2219 C2221 1.415 . S
C2220 C2219 1.355 . S
C2220 C2222 1.419 . S
C2221 C2216 1.425 . S
C2221 C2218 1.409 . S
C2221 C2219 1.415 . S
C2222 H2212 0.930 . S
C2222 C2220 1.419 . S
C2222 C2223 1.362 . S
C2223 H2213 0.930 . S
C2223 C2216 1.409 . S
C2223 C2222 1.362 . S
H2224 C2230 0.930 . S
H2225 C2233 0.930 . S
H2226 C2234 0.930 . S
H2227 C2235 0.930 . S
H2228 C2238 0.930 . S
H2229 C2239 0.930 . S
C2230 H2224 0.930 . S
C2230 C2231 1.355 . S
C2230 C2232 1.415 . S
C2231 C2230 1.355 . S
C2231 C2233 1.419 . S
C2232 C2230 1.415 . S
C2232 C2237 1.425 . S
C2232 C2239 1.409 . S
C2233 H2225 0.930 . S
C2233 C2231 1.419 . S
C2233 C2234 1.362 . S
C2234 H2226 0.930 . S
C2234 C2233 1.362 . S
C2234 C2237 1.409 . S
C2235 H2227 0.930 . S
C2235 C2236 1.355 . S
C2235 C2237 1.415 . S
C2236 C2235 1.355 . S
C2236 C2238 1.419 . S
C2237 C2232 1.425 . S
C2237 C2234 1.409 . S
C2237 C2235 1.415 . S
C2238 H2228 0.930 . S
C2238 C2236 1.419 . S
C2238 C2239 1.362 . S
C2239 H2229 0.930 . S
C2239 C2232 1.409 . S
C2239 C2238 1.362 . S
H2240 C2246 0.930 . S
H2241 C2249 0.930 . S
H2242 C2250 0.930 . S
H2243 C2251 0.930 . S
H2244 C2254 0.930 . S
H2245 C2255 0.930 . S
C2246 H2240 0.930 . S
C2246 C2247 1.355 . S
C2246 C2248 1.415 . S
C2247 C2246 1.355 . S
C2247 C2249 1.419 . S
C2248 C2246 1.415 . S
C2248 C2253 1.425 . S
C2248 C2255 1.409 . S
C2249 H2241 0.930 . S
C2249 C2247 1.419 . S
C2249 C2250 1.362 . S
C2250 H2242 0.930 . S
C2250 C2249 1.362 . S
C2250 C2253 1.409 . S
C2251 H2243 0.930 . S
C2251 C2252 1.355 . S
C2251 C2253 1.415 . S
C2252 C2251 1.355 . S
C2252 C2254 1.419 . S
C2253 C2248 1.425 . S
C2253 C2250 1.409 . S
C2253 C2251 1.415 . S
C2254 H2244 0.930 . S
C2254 C2252 1.419 . S
C2254 C2255 1.362 . S
C2255 H2245 0.930 . S
C2255 C2248 1.409 . S
C2255 C2254 1.362 . S
H2256 C2262 0.930 . S
H2257 C2265 0.930 . S
H2258 C2266 0.930 . S
H2259 C2267 0.930 . S
H2260 C2270 0.930 . S
H2261 C2271 0.930 . S
C2262 H2256 0.930 . S
C2262 C2263 1.355 . S
C2262 C2264 1.415 . S
C2263 C2262 1.355 . S
C2263 C2265 1.419 . S
C2264 C2262 1.415 . S
C2264 C2269 1.425 . S
C2264 C2271 1.409 . S
C2265 H2257 0.930 . S
C2265 C2263 1.419 . S
C2265 C2266 1.362 . S
C2266 H2258 0.930 . S
C2266 C2265 1.362 . S
C2266 C2269 1.409 . S
C2267 H2259 0.930 . S
C2267 C2268 1.355 . S
C2267 C2269 1.415 . S
C2268 C2267 1.355 . S
C2268 C2270 1.419 . S
C2269 C2264 1.425 . S
C2269 C2266 1.409 . S
C2269 C2267 1.415 . S
C2270 H2260 0.930 . S
C2270 C2268 1.419 . S
C2270 C2271 1.362 . S
C2271 H2261 0.930 . S
C2271 C2264 1.409 . S
C2271 C2270 1.362 . S
H2272 C2278 0.930 . S
H2273 C2281 0.930 . S
H2274 C2282 0.930 . S
H2275 C2283 0.941 . S
H2276 C2286 0.930 . S
H2277 C2287 0.930 . S
C2278 H2272 0.930 . S
C2278 C2279 1.355 . S
C2278 C2280 1.415 . S
C2279 C2278 1.355 . S
C2279 C2281 1.419 . S
C2280 C2278 1.415 . S
C2280 C2285 1.425 . S
C2280 C2287 1.409 . S
C2281 H2273 0.930 . S
C2281 C2279 1.419 . S
C2281 C2282 1.362 . S
C2282 H2274 0.930 . S
C2282 C2281 1.362 . S
C2282 C2285 1.409 . S
C2283 H2275 0.941 . S
C2283 C2284 1.355 . S
C2283 C2285 1.415 . S
C2284 C2283 1.355 . S
C2284 C2286 1.419 . S
C2285 C2280 1.425 . S
C2285 C2282 1.409 . S
C2285 C2283 1.415 . S
C2286 H2276 0.930 . S
C2286 C2284 1.419 . S
C2286 C2287 1.362 . S
C2287 H2277 0.930 . S
C2287 C2280 1.409 . S
C2287 C2286 1.362 . S
H2288 C2294 0.930 . S
H2289 C2297 0.930 . S
H2290 C2298 0.930 . S
H2291 C2299 0.930 . S
H2292 C2302 0.930 . S
H2293 C2303 0.930 . S
C2294 H2288 0.930 . S
C2294 C2295 1.355 . S
C2294 C2296 1.415 . S
C2295 C2294 1.355 . S
C2295 C2297 1.419 . S
C2296 C2294 1.415 . S
C2296 C2301 1.425 . S
C2296 C2303 1.409 . S
C2297 H2289 0.930 . S
C2297 C2295 1.419 . S
C2297 C2298 1.362 . S
C2298 H2290 0.930 . S
C2298 C2297 1.362 . S
C2298 C2301 1.409 . S
C2299 H2291 0.930 . S
C2299 C2300 1.355 . S
C2299 C2301 1.415 . S
C2300 C2299 1.355 . S
C2300 C2302 1.419 . S
C2301 C2296 1.425 . S
C2301 C2298 1.409 . S
C2301 C2299 1.415 . S
C2302 H2292 0.930 . S
C2302 C2300 1.419 . S
C2302 C2303 1.362 . S
C2303 H2293 0.930 . S
C2303 C2296 1.409 . S
C2303 C2302 1.362 . S
H2304 C2310 0.930 . S
H2305 C2313 0.930 . S
H2306 C2314 0.930 . S
H2307 C2315 0.930 . S
H2308 C2318 0.930 . S
H2309 C2319 0.930 . S
C2310 H2304 0.930 . S
C2310 C2311 1.355 . S
C2310 C2312 1.415 . S
C2311 C2310 1.355 . S
C2311 C2313 1.419 . S
C2312 C2310 1.415 . S
C2312 C2317 1.425 . S
C2312 C2319 1.409 . S
C2313 H2305 0.930 . S
C2313 C2311 1.419 . S
C2313 C2314 1.362 . S
C2314 H2306 0.930 . S
C2314 C2313 1.362 . S
C2314 C2317 1.409 . S
C2315 H2307 0.930 . S
C2315 C2316 1.355 . S
C2315 C2317 1.415 . S
C2316 C2315 1.355 . S
C2316 C2318 1.419 . S
C2317 C2312 1.425 . S
C2317 C2314 1.409 . S
C2317 C2315 1.415 . S
C2318 H2308 0.930 . S
C2318 C2316 1.419 . S
C2318 C2319 1.362 . S
C2319 H2309 0.930 . S
C2319 C2312 1.409 . S
C2319 C2318 1.362 . S
H2320 C2326 0.930 . S
H2321 C2329 0.930 . S
H2322 C2330 0.930 . S
H2323 C2331 0.930 . S
H2324 C2334 0.930 . S
H2325 C2335 0.930 . S
C2326 H2320 0.930 . S
C2326 C2327 1.355 . S
C2326 C2328 1.415 . S
C2327 C2326 1.355 . S
C2327 C2329 1.419 . S
C2328 C2326 1.415 . S
C2328 C2333 1.425 . S
C2328 C2335 1.409 . S
C2329 H2321 0.930 . S
C2329 C2327 1.419 . S
C2329 C2330 1.362 . S
C2330 H2322 0.930 . S
C2330 C2329 1.362 . S
C2330 C2333 1.409 . S
C2331 H2323 0.930 . S
C2331 C2332 1.355 . S
C2331 C2333 1.415 . S
C2332 C2331 1.355 . S
C2332 C2334 1.419 . S
C2333 C2328 1.425 . S
C2333 C2330 1.409 . S
C2333 C2331 1.415 . S
C2334 H2324 0.930 . S
C2334 C2332 1.419 . S
C2334 C2335 1.362 . S
C2335 H2325 0.930 . S
C2335 C2328 1.409 . S
C2335 C2334 1.362 . S
H2336 C2342 0.930 . S
H2337 C2345 0.930 . S
H2338 C2346 0.930 . S
H2339 C2347 0.930 . S
H2340 C2350 0.930 . S
H2341 C2351 0.930 . S
C2342 H2336 0.930 . S
C2342 C2343 1.355 . S
C2342 C2344 1.415 . S
C2343 C2342 1.355 . S
C2343 C2345 1.419 1_554 S
C2344 C2342 1.415 . S
C2344 C2349 1.425 1_554 S
C2344 C2351 1.409 . S
C2345 H2337 0.930 . S
C2345 C2343 1.419 1_556 S
C2345 C2346 1.362 . S
C2346 H2338 0.930 . S
C2346 C2345 1.362 . S
C2346 C2349 1.409 . S
C2347 H2339 0.930 . S
C2347 C2348 1.355 . S
C2347 C2349 1.415 . S
C2348 C2347 1.355 . S
C2348 C2350 1.419 1_556 S
C2349 C2344 1.425 1_556 S
C2349 C2346 1.409 . S
C2349 C2347 1.415 . S
C2350 H2340 0.930 . S
C2350 C2348 1.419 1_554 S
C2350 C2351 1.362 . S
C2351 H2341 0.930 . S
C2351 C2344 1.409 . S
C2351 C2350 1.362 . S
H2352 C2358 0.930 . S
H2353 C2361 0.930 . S
H2354 C2362 0.930 . S
H2355 C2363 0.930 . S
H2356 C2366 0.930 . S
H2357 C2367 0.930 . S
C2358 H2352 0.930 . S
C2358 C2359 1.355 . S
C2358 C2360 1.415 . S
C2359 C2358 1.355 . S
C2359 C2361 1.419 . S
C2360 C2358 1.415 . S
C2360 C2365 1.425 . S
C2360 C2367 1.409 . S
C2361 H2353 0.930 . S
C2361 C2359 1.419 . S
C2361 C2362 1.362 . S
C2362 H2354 0.930 . S
C2362 C2361 1.362 . S
C2362 C2365 1.409 . S
C2363 H2355 0.930 . S
C2363 C2364 1.355 . S
C2363 C2365 1.415 . S
C2364 C2363 1.355 . S
C2364 C2366 1.419 . S
C2365 C2360 1.425 . S
C2365 C2362 1.409 . S
C2365 C2363 1.415 . S
C2366 H2356 0.930 . S
C2366 C2364 1.419 . S
C2366 C2367 1.362 . S
C2367 H2357 0.930 . S
C2367 C2360 1.409 . S
C2367 C2366 1.362 . S
H2368 C2374 0.930 . S
H2369 C2377 0.930 . S
H2370 C2378 0.930 . S
H2371 C2379 0.930 . S
H2372 C2382 0.930 . S
H2373 C2383 0.930 . S
C2374 H2368 0.930 . S
C2374 C2375 1.355 . S
C2374 C2376 1.415 . S
C2375 C2374 1.355 . S
C2375 C2377 1.419 . S
C2376 C2374 1.415 . S
C2376 C2381 1.425 . S
C2376 C2383 1.409 . S
C2377 H2369 0.930 . S
C2377 C2375 1.419 . S
C2377 C2378 1.362 . S
C2378 H2370 0.930 . S
C2378 C2377 1.362 . S
C2378 C2381 1.409 . S
C2379 H2371 0.930 . S
C2379 C2380 1.355 . S
C2379 C2381 1.415 . S
C2380 C2379 1.355 . S
C2380 C2382 1.419 . S
C2381 C2376 1.425 . S
C2381 C2378 1.409 . S
C2381 C2379 1.415 . S
C2382 H2372 0.930 . S
C2382 C2380 1.419 . S
C2382 C2383 1.362 . S
C2383 H2373 0.930 . S
C2383 C2376 1.409 . S
C2383 C2382 1.362 . S
H2384 C2390 0.930 . S
H2385 C2393 0.930 . S
H2386 C2394 0.930 . S
H2387 C2395 0.930 . S
H2388 C2398 0.930 . S
H2389 C2399 0.930 . S
C2390 H2384 0.930 . S
C2390 C2391 1.355 . S
C2390 C2392 1.415 . S
C2391 C2390 1.355 . S
C2391 C2393 1.419 . S
C2392 C2390 1.415 . S
C2392 C2397 1.425 . S
C2392 C2399 1.409 . S
C2393 H2385 0.930 . S
C2393 C2391 1.419 . S
C2393 C2394 1.362 . S
C2394 H2386 0.930 . S
C2394 C2393 1.362 . S
C2394 C2397 1.409 . S
C2395 H2387 0.930 . S
C2395 C2396 1.355 . S
C2395 C2397 1.415 . S
C2396 C2395 1.355 . S
C2396 C2398 1.419 . S
C2397 C2392 1.425 . S
C2397 C2394 1.409 . S
C2397 C2395 1.415 . S
C2398 H2388 0.930 . S
C2398 C2396 1.419 . S
C2398 C2399 1.362 . S
C2399 H2389 0.930 . S
C2399 C2392 1.409 . S
C2399 C2398 1.362 . S
H2400 C2406 0.930 . S
H2401 C2409 0.930 . S
H2402 C2410 0.930 . S
H2403 C2411 0.930 . S
H2404 C2414 0.930 . S
H2405 C2415 0.930 . S
C2406 H2400 0.930 . S
C2406 C2407 1.355 . S
C2406 C2408 1.415 . S
C2407 C2406 1.355 . S
C2407 C2409 1.419 . S
C2408 C2406 1.415 . S
C2408 C2413 1.425 . S
C2408 C2415 1.409 . S
C2409 H2401 0.930 . S
C2409 C2407 1.419 . S
C2409 C2410 1.362 . S
C2410 H2402 0.930 . S
C2410 C2409 1.362 . S
C2410 C2413 1.409 . S
C2411 H2403 0.930 . S
C2411 C2412 1.355 . S
C2411 C2413 1.415 . S
C2412 C2411 1.355 . S
C2412 C2414 1.419 . S
C2413 C2408 1.425 . S
C2413 C2410 1.409 . S
C2413 C2411 1.415 . S
C2414 H2404 0.930 . S
C2414 C2412 1.419 . S
C2414 C2415 1.362 . S
C2415 H2405 0.930 . S
C2415 C2408 1.409 . S
C2415 C2414 1.362 . S
H2416 C2422 0.930 . S
H2417 C2425 0.930 . S
H2418 C2426 0.930 . S
H2419 C2427 0.922 1_455 S
H2420 C2430 0.930 1_554 S
H2421 C2431 0.930 . S
C2422 H2416 0.930 . S
C2422 C2423 1.355 1_655 S
C2422 C2424 1.415 . S
C2423 C2422 1.355 1_455 S
C2423 C2425 1.419 . S
C2424 C2422 1.415 . S
C2424 C2429 1.425 1_655 S
C2424 C2431 1.409 . S
C2425 H2417 0.930 . S
C2425 C2423 1.419 . S
C2425 C2426 1.362 . S
C2426 H2418 0.930 . S
C2426 C2425 1.362 . S
C2426 C2429 1.409 . S
C2427 H2419 0.922 1_655 S
C2427 C2428 1.363 . S
C2427 C2429 1.413 1_655 S
C2428 C2427 1.363 . S
C2428 C2430 1.419 . S
C2429 C2424 1.425 1_455 S
C2429 C2426 1.409 . S
C2429 C2427 1.413 1_455 S
C2430 H2420 0.930 1_556 S
C2430 C2428 1.419 . S
C2430 C2431 1.362 . S
C2431 H2421 0.930 . S
C2431 C2424 1.409 . S
C2431 C2430 1.362 . S
H2432 C2438 0.930 . S
H2433 C2441 0.930 . S
H2434 C2442 0.930 . S
H2435 C2443 0.930 . S
H2436 C2446 0.930 . S
H2437 C2447 0.930 . S
C2438 H2432 0.930 . S
C2438 C2439 1.355 . S
C2438 C2440 1.415 . S
C2439 C2438 1.355 . S
C2439 C2441 1.419 . S
C2440 C2438 1.415 . S
C2440 C2445 1.425 . S
C2440 C2447 1.409 . S
C2441 H2433 0.930 . S
C2441 C2439 1.419 . S
C2441 C2442 1.362 . S
C2442 H2434 0.930 . S
C2442 C2441 1.362 . S
C2442 C2445 1.409 . S
C2443 H2435 0.930 . S
C2443 C2444 1.355 . S
C2443 C2445 1.415 . S
C2444 C2443 1.355 . S
C2444 C2446 1.419 . S
C2445 C2440 1.425 . S
C2445 C2442 1.409 . S
C2445 C2443 1.415 . S
C2446 H2436 0.930 . S
C2446 C2444 1.419 . S
C2446 C2447 1.362 . S
C2447 H2437 0.930 . S
C2447 C2440 1.409 . S
C2447 C2446 1.362 . S
H2448 C2454 0.930 . S
H2449 C2457 0.930 . S
H2450 C2458 0.930 . S
H2451 C2459 0.930 . S
H2452 C2462 0.930 . S
H2453 C2463 0.930 . S
C2454 H2448 0.930 . S
C2454 C2455 1.355 . S
C2454 C2456 1.415 . S
C2455 C2454 1.355 . S
C2455 C2457 1.419 . S
C2456 C2454 1.415 . S
C2456 C2461 1.425 . S
C2456 C2463 1.409 . S
C2457 H2449 0.930 . S
C2457 C2455 1.419 . S
C2457 C2458 1.362 . S
C2458 H2450 0.930 . S
C2458 C2457 1.362 . S
C2458 C2461 1.409 . S
C2459 H2451 0.930 . S
C2459 C2460 1.355 . S
C2459 C2461 1.415 . S
C2460 C2459 1.355 . S
C2460 C2462 1.419 . S
C2461 C2456 1.425 . S
C2461 C2458 1.409 . S
C2461 C2459 1.415 . S
C2462 H2452 0.930 . S
C2462 C2460 1.419 . S
C2462 C2463 1.362 . S
C2463 H2453 0.930 . S
C2463 C2456 1.409 . S
C2463 C2462 1.362 . S
H2464 C2470 0.930 . S
H2465 C2473 0.930 . S
H2466 C2474 0.930 . S
H2467 C2475 0.930 . S
H2468 C2478 0.930 . S
H2469 C2479 0.930 . S
C2470 H2464 0.930 . S
C2470 C2471 1.355 . S
C2470 C2472 1.415 . S
C2471 C2470 1.355 . S
C2471 C2473 1.419 . S
C2472 C2470 1.415 . S
C2472 C2477 1.425 . S
C2472 C2479 1.409 . S
C2473 H2465 0.930 . S
C2473 C2471 1.419 . S
C2473 C2474 1.362 . S
C2474 H2466 0.930 . S
C2474 C2473 1.362 . S
C2474 C2477 1.409 . S
C2475 H2467 0.930 . S
C2475 C2476 1.355 . S
C2475 C2477 1.415 . S
C2476 C2475 1.355 . S
C2476 C2478 1.419 . S
C2477 C2472 1.425 . S
C2477 C2474 1.409 . S
C2477 C2475 1.415 . S
C2478 H2468 0.930 . S
C2478 C2476 1.419 . S
C2478 C2479 1.362 . S
C2479 H2469 0.930 . S
C2479 C2472 1.409 . S
C2479 C2478 1.362 . S
H2480 C2486 0.930 . S
H2481 C2489 0.930 . S
H2482 C2490 0.930 . S
H2483 C2491 0.930 . S
H2484 C2494 0.930 . S
H2485 C2495 0.930 . S
C2486 H2480 0.930 . S
C2486 C2487 1.355 . S
C2486 C2488 1.415 . S
C2487 C2486 1.355 . S
C2487 C2489 1.419 1_455 S
C2488 C2486 1.415 . S
C2488 C2493 1.425 1_455 S
C2488 C2495 1.409 . S
C2489 H2481 0.930 . S
C2489 C2487 1.419 1_655 S
C2489 C2490 1.362 . S
C2490 H2482 0.930 . S
C2490 C2489 1.362 . S
C2490 C2493 1.409 . S
C2491 H2483 0.930 . S
C2491 C2492 1.355 . S
C2491 C2493 1.415 . S
C2492 C2491 1.355 . S
C2492 C2494 1.419 1_655 S
C2493 C2488 1.425 1_655 S
C2493 C2490 1.409 . S
C2493 C2491 1.415 . S
C2494 H2484 0.930 . S
C2494 C2492 1.419 1_455 S
C2494 C2495 1.362 . S
C2495 H2485 0.930 . S
C2495 C2488 1.409 . S
C2495 C2494 1.362 . S
H2496 C2502 0.930 . S
H2497 C2505 0.930 . S
H2498 C2506 0.930 . S
H2499 C2507 0.930 . S
H2500 C2510 0.930 . S
H2501 C2511 0.930 . S
C2502 H2496 0.930 . S
C2502 C2503 1.355 . S
C2502 C2504 1.415 . S
C2503 C2502 1.355 . S
C2503 C2505 1.419 . S
C2504 C2502 1.415 . S
C2504 C2509 1.425 . S
C2504 C2511 1.409 . S
C2505 H2497 0.930 . S
C2505 C2503 1.419 . S
C2505 C2506 1.362 . S
C2506 H2498 0.930 . S
C2506 C2505 1.362 . S
C2506 C2509 1.409 . S
C2507 H2499 0.930 . S
C2507 C2508 1.355 . S
C2507 C2509 1.415 . S
C2508 C2507 1.355 . S
C2508 C2510 1.419 . S
C2509 C2504 1.425 . S
C2509 C2506 1.409 . S
C2509 C2507 1.415 . S
C2510 H2500 0.930 . S
C2510 C2508 1.419 . S
C2510 C2511 1.362 . S
C2511 H2501 0.930 . S
C2511 C2504 1.409 . S
C2511 C2510 1.362 . S
H2512 C2518 0.930 . S
H2513 C2521 0.930 . S
H2514 C2522 0.930 . S
H2515 C2523 0.930 . S
H2516 C2526 0.930 . S
H2517 C2527 0.930 . S
C2518 H2512 0.930 . S
C2518 C2519 1.355 . S
C2518 C2520 1.415 . S
C2519 C2518 1.355 . S
C2519 C2521 1.419 . S
C2520 C2518 1.415 . S
C2520 C2525 1.425 . S
C2520 C2527 1.409 . S
C2521 H2513 0.930 . S
C2521 C2519 1.419 . S
C2521 C2522 1.362 . S
C2522 H2514 0.930 . S
C2522 C2521 1.362 . S
C2522 C2525 1.409 . S
C2523 H2515 0.930 . S
C2523 C2524 1.355 . S
C2523 C2525 1.415 . S
C2524 C2523 1.355 . S
C2524 C2526 1.419 . S
C2525 C2520 1.425 . S
C2525 C2522 1.409 . S
C2525 C2523 1.415 . S
C2526 H2516 0.930 . S
C2526 C2524 1.419 . S
C2526 C2527 1.362 . S
C2527 H2517 0.930 . S
C2527 C2520 1.409 . S
C2527 C2526 1.362 . S
H2528 C2534 0.930 . S
H2529 C2537 0.930 . S
H2530 C2538 0.930 . S
H2531 C2539 0.930 . S
H2532 C2542 0.930 . S
H2533 C2543 0.930 . S
C2534 H2528 0.930 . S
C2534 C2535 1.355 . S
C2534 C2536 1.415 . S
C2535 C2534 1.355 . S
C2535 C2537 1.419 . S
C2536 C2534 1.415 . S
C2536 C2541 1.425 . S
C2536 C2543 1.409 . S
C2537 H2529 0.930 . S
C2537 C2535 1.419 . S
C2537 C2538 1.362 . S
C2538 H2530 0.930 . S
C2538 C2537 1.362 . S
C2538 C2541 1.409 . S
C2539 H2531 0.930 . S
C2539 C2540 1.355 . S
C2539 C2541 1.415 . S
C2540 C2539 1.355 . S
C2540 C2542 1.419 . S
C2541 C2536 1.425 . S
C2541 C2538 1.409 . S
C2541 C2539 1.415 . S
C2542 H2532 0.930 . S
C2542 C2540 1.419 . S
C2542 C2543 1.362 . S
C2543 H2533 0.930 . S
C2543 C2536 1.409 . S
C2543 C2542 1.362 . S
H2544 C2550 0.930 . S
H2545 C2553 0.930 . S
H2546 C2554 0.930 . S
H2547 C2555 0.930 . S
H2548 C2558 0.930 . S
H2549 C2559 0.930 . S
C2550 H2544 0.930 . S
C2550 C2551 1.355 . S
C2550 C2552 1.415 . S
C2551 C2550 1.355 . S
C2551 C2553 1.419 . S
C2552 C2550 1.415 . S
C2552 C2557 1.425 . S
C2552 C2559 1.409 . S
C2553 H2545 0.930 . S
C2553 C2551 1.419 . S
C2553 C2554 1.362 . S
C2554 H2546 0.930 . S
C2554 C2553 1.362 . S
C2554 C2557 1.409 . S
C2555 H2547 0.930 . S
C2555 C2556 1.355 . S
C2555 C2557 1.415 . S
C2556 C2555 1.355 . S
C2556 C2558 1.419 . S
C2557 C2552 1.425 . S
C2557 C2554 1.409 . S
C2557 C2555 1.415 . S
C2558 H2548 0.930 . S
C2558 C2556 1.419 . S
C2558 C2559 1.362 . S
C2559 H2549 0.930 . S
C2559 C2552 1.409 . S
C2559 C2558 1.362 . S
H2560 C2566 0.930 . S
H2561 C2569 0.930 . S
H2562 C2570 0.930 . S
H2563 C2571 0.930 . S
H2564 C2574 0.930 . S
H2565 C2575 0.930 . S
C2566 H2560 0.930 . S
C2566 C2567 1.355 . S
C2566 C2568 1.415 . S
C2567 C2566 1.355 . S
C2567 C2569 1.419 . S
C2568 C2566 1.415 . S
C2568 C2573 1.425 . S
C2568 C2575 1.409 . S
C2569 H2561 0.930 . S
C2569 C2567 1.419 . S
C2569 C2570 1.362 . S
C2570 H2562 0.930 . S
C2570 C2569 1.362 . S
C2570 C2573 1.409 . S
C2571 H2563 0.930 . S
C2571 C2572 1.355 . S
C2571 C2573 1.415 . S
C2572 C2571 1.355 . S
C2572 C2574 1.419 . S
C2573 C2568 1.425 . S
C2573 C2570 1.409 . S
C2573 C2571 1.415 . S
C2574 H2564 0.930 . S
C2574 C2572 1.419 . S
C2574 C2575 1.362 . S
C2575 H2565 0.930 . S
C2575 C2568 1.409 . S
C2575 C2574 1.362 . S
H2576 C2582 0.930 . S
H2577 C2585 0.930 . S
H2578 C2586 0.930 . S
H2579 C2587 0.930 . S
H2580 C2590 0.930 . S
H2581 C2591 0.930 . S
C2582 H2576 0.930 . S
C2582 C2583 1.355 . S
C2582 C2584 1.415 . S
C2583 C2582 1.355 . S
C2583 C2585 1.419 . S
C2584 C2582 1.415 . S
C2584 C2589 1.425 . S
C2584 C2591 1.409 . S
C2585 H2577 0.930 . S
C2585 C2583 1.419 . S
C2585 C2586 1.362 . S
C2586 H2578 0.930 . S
C2586 C2585 1.362 . S
C2586 C2589 1.409 . S
C2587 H2579 0.930 . S
C2587 C2588 1.355 . S
C2587 C2589 1.415 . S
C2588 C2587 1.355 . S
C2588 C2590 1.419 . S
C2589 C2584 1.425 . S
C2589 C2586 1.409 . S
C2589 C2587 1.415 . S
C2590 H2580 0.930 . S
C2590 C2588 1.419 . S
C2590 C2591 1.362 . S
C2591 H2581 0.930 . S
C2591 C2584 1.409 . S
C2591 C2590 1.362 . S
H2592 C2598 0.930 . S
H2593 C2601 0.930 . S
H2594 C2602 0.930 . S
H2595 C2603 0.930 . S
H2596 C2606 0.930 . S
H2597 C2607 0.930 . S
C2598 H2592 0.930 . S
C2598 C2599 1.355 . S
C2598 C2600 1.415 . S
C2599 C2598 1.355 . S
C2599 C2601 1.419 . S
C2600 C2598 1.415 . S
C2600 C2605 1.425 . S
C2600 C2607 1.409 . S
C2601 H2593 0.930 . S
C2601 C2599 1.419 . S
C2601 C2602 1.362 . S
C2602 H2594 0.930 . S
C2602 C2601 1.362 . S
C2602 C2605 1.409 . S
C2603 H2595 0.930 . S
C2603 C2604 1.355 . S
C2603 C2605 1.415 . S
C2604 C2603 1.355 . S
C2604 C2606 1.419 . S
C2605 C2600 1.425 . S
C2605 C2602 1.409 . S
C2605 C2603 1.415 . S
C2606 H2596 0.930 . S
C2606 C2604 1.419 . S
C2606 C2607 1.362 . S
C2607 H2597 0.930 . S
C2607 C2600 1.409 . S
C2607 C2606 1.362 . S
H2608 C2614 0.930 . S
H2609 C2617 0.930 . S
H2610 C2618 0.930 . S
H2611 C2619 0.930 . S
H2612 C2622 0.930 . S
H2613 C2623 0.930 . S
C2614 H2608 0.930 . S
C2614 C2615 1.355 . S
C2614 C2616 1.415 . S
C2615 C2614 1.355 . S
C2615 C2617 1.419 . S
C2616 C2614 1.415 . S
C2616 C2621 1.425 . S
C2616 C2623 1.409 . S
C2617 H2609 0.930 . S
C2617 C2615 1.419 . S
C2617 C2618 1.362 . S
C2618 H2610 0.930 . S
C2618 C2617 1.362 . S
C2618 C2621 1.409 . S
C2619 H2611 0.930 . S
C2619 C2620 1.355 . S
C2619 C2621 1.415 . S
C2620 C2619 1.355 . S
C2620 C2622 1.419 . S
C2621 C2616 1.425 . S
C2621 C2618 1.409 . S
C2621 C2619 1.415 . S
C2622 H2612 0.930 . S
C2622 C2620 1.419 . S
C2622 C2623 1.362 . S
C2623 H2613 0.930 . S
C2623 C2616 1.409 . S
C2623 C2622 1.362 . S
H2624 C2630 0.930 . S
H2625 C2633 0.930 . S
H2626 C2634 0.930 . S
H2627 C2635 0.930 . S
H2628 C2638 0.930 . S
H2629 C2639 0.930 . S
C2630 H2624 0.930 . S
C2630 C2631 1.355 . S
C2630 C2632 1.415 . S
C2631 C2630 1.355 . S
C2631 C2633 1.419 . S
C2632 C2630 1.415 . S
C2632 C2637 1.425 . S
C2632 C2639 1.409 . S
C2633 H2625 0.930 . S
C2633 C2631 1.419 . S
C2633 C2634 1.362 . S
C2634 H2626 0.930 . S
C2634 C2633 1.362 . S
C2634 C2637 1.409 . S
C2635 H2627 0.930 . S
C2635 C2636 1.355 . S
C2635 C2637 1.415 . S
C2636 C2635 1.355 . S
C2636 C2638 1.419 . S
C2637 C2632 1.425 . S
C2637 C2634 1.409 . S
C2637 C2635 1.415 . S
C2638 H2628 0.930 . S
C2638 C2636 1.419 . S
C2638 C2639 1.362 . S
C2639 H2629 0.930 . S
C2639 C2632 1.409 . S
C2639 C2638 1.362 . S
H2640 C2646 0.930 . S
H2641 C2649 0.930 . S
H2642 C2650 0.930 . S
H2643 C2651 0.930 . S
H2644 C2654 0.930 . S
H2645 C2655 0.930 . S
C2646 H2640 0.930 . S
C2646 C2647 1.355 . S
C2646 C2648 1.415 . S
C2647 C2646 1.355 . S
C2647 C2649 1.419 . S
C2648 C2646 1.415 . S
C2648 C2653 1.425 . S
C2648 C2655 1.409 . S
C2649 H2641 0.930 . S
C2649 C2647 1.419 . S
C2649 C2650 1.362 . S
C2650 H2642 0.930 . S
C2650 C2649 1.362 . S
C2650 C2653 1.409 . S
C2651 H2643 0.930 . S
C2651 C2652 1.355 . S
C2651 C2653 1.415 . S
C2652 C2651 1.355 . S
C2652 C2654 1.419 . S
C2653 C2648 1.425 . S
C2653 C2650 1.409 . S
C2653 C2651 1.415 . S
C2654 H2644 0.930 . S
C2654 C2652 1.419 . S
C2654 C2655 1.362 . S
C2655 H2645 0.930 . S
C2655 C2648 1.409 . S
C2655 C2654 1.362 . S
H2656 C2662 0.930 . S
H2657 C2665 0.930 . S
H2658 C2666 0.930 . S
H2659 C2667 0.930 . S
H2660 C2670 0.930 . S
H2661 C2671 0.930 . S
C2662 H2656 0.930 . S
C2662 C2663 1.355 . S
C2662 C2664 1.415 . S
C2663 C2662 1.355 . S
C2663 C2665 1.419 . S
C2664 C2662 1.415 . S
C2664 C2669 1.425 . S
C2664 C2671 1.409 . S
C2665 H2657 0.930 . S
C2665 C2663 1.419 . S
C2665 C2666 1.362 . S
C2666 H2658 0.930 . S
C2666 C2665 1.362 . S
C2666 C2669 1.409 . S
C2667 H2659 0.930 . S
C2667 C2668 1.355 . S
C2667 C2669 1.415 . S
C2668 C2667 1.355 . S
C2668 C2670 1.419 . S
C2669 C2664 1.425 . S
C2669 C2666 1.409 . S
C2669 C2667 1.415 . S
C2670 H2660 0.930 . S
C2670 C2668 1.419 . S
C2670 C2671 1.362 . S
C2671 H2661 0.930 . S
C2671 C2664 1.409 . S
C2671 C2670 1.362 . S
H2672 C2678 0.930 . S
H2673 C2681 0.930 . S
H2674 C2682 0.930 . S
H2675 C2683 0.930 . S
H2676 C2686 0.930 . S
H2677 C2687 0.930 . S
C2678 H2672 0.930 . S
C2678 C2679 1.355 . S
C2678 C2680 1.415 . S
C2679 C2678 1.355 . S
C2679 C2681 1.419 . S
C2680 C2678 1.415 . S
C2680 C2685 1.425 . S
C2680 C2687 1.409 . S
C2681 H2673 0.930 . S
C2681 C2679 1.419 . S
C2681 C2682 1.362 . S
C2682 H2674 0.930 . S
C2682 C2681 1.362 . S
C2682 C2685 1.409 . S
C2683 H2675 0.930 . S
C2683 C2684 1.355 . S
C2683 C2685 1.415 . S
C2684 C2683 1.355 . S
C2684 C2686 1.419 . S
C2685 C2680 1.425 . S
C2685 C2682 1.409 . S
C2685 C2683 1.415 . S
C2686 H2676 0.930 . S
C2686 C2684 1.419 . S
C2686 C2687 1.362 . S
C2687 H2677 0.930 . S
C2687 C2680 1.409 . S
C2687 C2686 1.362 . S
H2688 C2694 0.930 . S
H2689 C2697 0.930 . S
H2690 C2698 0.930 . S
H2691 C2699 0.930 . S
H2692 C2702 0.933 . S
H2693 C2703 0.930 . S
C2694 H2688 0.930 . S
C2694 C2695 1.352 1_554 S
C2694 C2696 1.415 1_554 S
C2695 C2694 1.352 1_556 S
C2695 C2697 1.427 . S
C2696 C2694 1.415 1_556 S
C2696 C2701 1.425 . S
C2696 C2703 1.409 1_556 S
C2697 H2689 0.930 . S
C2697 C2695 1.427 . S
C2697 C2698 1.362 . S
C2698 H2690 0.930 . S
C2698 C2697 1.362 . S
C2698 C2701 1.409 . S
C2699 H2691 0.930 . S
C2699 C2700 1.355 . S
C2699 C2701 1.415 . S
C2700 C2699 1.355 . S
C2700 C2702 1.419 . S
C2701 C2696 1.425 . S
C2701 C2698 1.409 . S
C2701 C2699 1.415 . S
C2702 H2692 0.933 . S
C2702 C2700 1.419 . S
C2702 C2703 1.362 1_556 S
C2703 H2693 0.930 . S
C2703 C2696 1.409 1_554 S
C2703 C2702 1.362 1_554 S
H2704 C2710 0.930 . S
H2705 C2713 0.930 . S
H2706 C2714 0.930 . S
H2707 C2715 0.930 . S
H2708 C2718 0.930 . S
H2709 C2719 0.930 . S
C2710 H2704 0.930 . S
C2710 C2711 1.355 . S
C2710 C2712 1.415 . S
C2711 C2710 1.355 . S
C2711 C2713 1.419 . S
C2712 C2710 1.415 . S
C2712 C2717 1.425 . S
C2712 C2719 1.409 . S
C2713 H2705 0.930 . S
C2713 C2711 1.419 . S
C2713 C2714 1.362 . S
C2714 H2706 0.930 . S
C2714 C2713 1.362 . S
C2714 C2717 1.409 . S
C2715 H2707 0.930 . S
C2715 C2716 1.355 . S
C2715 C2717 1.415 . S
C2716 C2715 1.355 . S
C2716 C2718 1.419 . S
C2717 C2712 1.425 . S
C2717 C2714 1.409 . S
C2717 C2715 1.415 . S
C2718 H2708 0.930 . S
C2718 C2716 1.419 . S
C2718 C2719 1.362 . S
C2719 H2709 0.930 . S
C2719 C2712 1.409 . S
C2719 C2718 1.362 . S
H2720 C2726 0.930 1_556 S
H2721 C2729 0.930 . S
H2722 C2730 0.930 . S
H2723 C2731 0.930 . S
H2724 C2734 0.930 . S
H2725 C2735 0.930 . S
C2726 H2720 0.930 1_554 S
C2726 C2727 1.355 . S
C2726 C2728 1.415 . S
C2727 C2726 1.355 . S
C2727 C2729 1.419 . S
C2728 C2726 1.415 . S
C2728 C2733 1.425 . S
C2728 C2735 1.409 . S
C2729 H2721 0.930 . S
C2729 C2727 1.419 . S
C2729 C2730 1.362 . S
C2730 H2722 0.930 . S
C2730 C2729 1.362 . S
C2730 C2733 1.409 . S
C2731 H2723 0.930 . S
C2731 C2732 1.355 . S
C2731 C2733 1.415 . S
C2732 C2731 1.355 . S
C2732 C2734 1.419 . S
C2733 C2728 1.425 . S
C2733 C2730 1.409 . S
C2733 C2731 1.415 . S
C2734 H2724 0.930 . S
C2734 C2732 1.419 . S
C2734 C2735 1.362 . S
C2735 H2725 0.930 . S
C2735 C2728 1.409 . S
C2735 C2734 1.362 . S
H2736 C2742 0.930 . S
H2737 C2745 0.930 . S
H2738 C2746 0.930 . S
H2739 C2747 0.930 . S
H2740 C2750 0.930 . S
H2741 C2751 0.930 . S
C2742 H2736 0.930 . S
C2742 C2743 1.355 . S
C2742 C2744 1.415 . S
C2743 C2742 1.355 . S
C2743 C2745 1.419 . S
C2744 C2742 1.415 . S
C2744 C2749 1.425 . S
C2744 C2751 1.409 . S
C2745 H2737 0.930 . S
C2745 C2743 1.419 . S
C2745 C2746 1.362 . S
C2746 H2738 0.930 . S
C2746 C2745 1.362 . S
C2746 C2749 1.409 . S
C2747 H2739 0.930 . S
C2747 C2748 1.355 . S
C2747 C2749 1.415 . S
C2748 C2747 1.355 . S
C2748 C2750 1.419 . S
C2749 C2744 1.425 . S
C2749 C2746 1.409 . S
C2749 C2747 1.415 . S
C2750 H2740 0.930 . S
C2750 C2748 1.419 . S
C2750 C2751 1.362 . S
C2751 H2741 0.930 . S
C2751 C2744 1.409 . S
C2751 C2750 1.362 . S
H2752 C2758 0.930 . S
H2753 C2761 0.930 . S
H2754 C2762 0.930 . S
H2755 C2763 0.930 . S
H2756 C2766 0.930 . S
H2757 C2767 0.930 . S
C2758 H2752 0.930 . S
C2758 C2759 1.355 . S
C2758 C2760 1.415 . S
C2759 C2758 1.355 . S
C2759 C2761 1.419 . S
C2760 C2758 1.415 . S
C2760 C2765 1.425 . S
C2760 C2767 1.409 . S
C2761 H2753 0.930 . S
C2761 C2759 1.419 . S
C2761 C2762 1.362 . S
C2762 H2754 0.930 . S
C2762 C2761 1.362 . S
C2762 C2765 1.409 . S
C2763 H2755 0.930 . S
C2763 C2764 1.355 . S
C2763 C2765 1.415 . S
C2764 C2763 1.355 . S
C2764 C2766 1.419 . S
C2765 C2760 1.425 . S
C2765 C2762 1.409 . S
C2765 C2763 1.415 . S
C2766 H2756 0.930 . S
C2766 C2764 1.419 . S
C2766 C2767 1.362 . S
C2767 H2757 0.930 . S
C2767 C2760 1.409 . S
C2767 C2766 1.362 . S
C1244 C880 1.208 . S
C1239 C2 1.206 . S
C1255 C39 1.403 . S
C1260 C908 1.326 . S
C1271 C86 1.066 . S
C1276 C926 1.060 . S
C1292 C952 1.183 . S
C1287 C112 1.386 . S
C1303 C38 1.509 . S
C1308 C975 1.312 . S
C1324 C995 1.041 . S
C1319 C76 1.066 . S
C1340 C1023 1.347 . S
C1335 C122 1.436 . S
C1351 C3 1.155 . S
C1356 C1041 1.139 . S
C1367 C147 1.383 . S
C1372 C882 1.387 . S
C1383 C184 1.106 . S
C1388 C904 1.055 . S
C1404 C928 1.394 . S
C1399 C219 1.373 . S
C1420 C949 1.161 . S
C1415 C256 1.176 . S
C1431 C148 1.183 . S
C1436 C972 1.185 . S
C1452 C997 1.391 . S
C1447 C183 1.366 . S
C1468 C1019 1.153 . S
C1463 C220 1.147 1_545 S
C1484 C1043 1.357 . S
C1479 C255 1.355 . S
C1500 C883 1.118 1_556 S
C1495 C254 1.147 . S
C1516 C1066 1.228 . S
C1511 C302 1.199 . S
C1527 C326 1.168 . S
C1532 C1090 1.102 . S
C1548 C1114 1.231 . S
C1543 C374 1.215 . S
C1559 C146 1.135 . S
C1564 C1044 0.978 . S
C1580 C929 1.028 . S
C1575 C182 1.155 . S
C1591 C338 1.200 . S
C1596 C1135 1.194 . S
C1612 C1160 1.141 . S
C1607 C410 1.122 . S
C1623 C434 1.236 . S
C1628 C881 1.182 . S
C1644 C1158 1.061 . S
C1639 C472 1.062 . S
C1655 C507 1.155 . S
C1660 C927 1.160 . S
C1671 C543 1.014 . S
C1676 C1137 0.965 . S
C1692 C976 1.029 . S
C1687 C470 1.071 . S
C1708 C1088 1.214 . S
C1703 C518 1.198 . S
C1724 C1020 1.118 . S
C1719 C554 1.008 . S
C1740 C1180 1.091 . S
C1735 C436 1.144 . S
C1756 C885 1.116 . S
C1751 C580 1.140 . S
C1767 C615 1.380 . S
C1772 C1156 1.333 . S
C1788 C931 1.078 . S
C1783 C652 1.137 1_565 S
C1799 C687 1.375 . S
C1804 C1134 1.338 . S
C1815 C579 1.397 . S
C1820 C973 1.381 . S
C1831 C616 1.146 . S
C1836 C1092 1.124 . S
C1852 C1018 1.368 . S
C1847 C651 1.395 . S
C1863 C688 1.123 . S
C1868 C1184 1.101 . S
C1879 C686 1.446 . S
C1884 C884 1.426 . S
C1895 C734 1.332 1_554 S
C1900 C1069 1.291 . S
C1911 C758 1.373 . S
C1916 C999 1.312 . S
C1927 C806 1.332 . S
C1932 C1113 1.287 . S
C1948 C1183 1.355 . S
C1943 C578 1.397 . S
C1964 C930 1.436 . S
C1959 C614 1.457 . S
C1980 C954 1.194 . S
C1975 C770 1.197 . S
C1996 C906 1.234 . S
C1991 C842 1.266 . S
C2007 C74 1.149 . S
C2012 C1202 1.124 . S
C2028 C1161 1.306 . S
C2023 C111 1.398 . S
C2044 C1225 1.106 . S
C2039 C14 1.175 1_455 S
C2055 C40 1.402 . S
C2060 C1136 1.209 . S
C2071 C110 1.513 . S
C2076 C1067 1.385 . S
C2092 C1087 1.139 . S
C2087 C4 1.171 . S
C2108 C1115 1.269 . S
C2103 C50 1.396 1_455 S
C2124 C1179 1.097 . S
C2119 C75 1.103 . S
C2140 C1204 1.394 . S
C2135 C399 1.379 . S
C2151 C292 1.121 . S
C2156 C1157 1.079 . S
C2167 C327 1.356 . S
C2172 C1227 1.387 . S
C2188 C1133 1.113 . S
C2183 C364 1.143 . S
C2204 C1064 1.178 . S
C2199 C400 1.175 . S
C2215 C291 1.386 . S
C2220 C1089 1.381 . S
C2236 C1111 1.084 . S
C2231 C328 1.139 . S
C2247 C363 1.373 . S
C2252 C1181 1.362 . S
C2268 C1205 1.099 . S
C2263 C362 1.108 . S
C2284 C974 1.220 . S
C2279 C194 1.177 . S
C2300 C998 1.038 . S
C2295 C218 1.109 . S
C2311 C266 1.171 . S
C2316 C1022 1.146 . S
C2332 C1182 1.047 . S
C2327 C398 1.109 . S
C2343 C290 1.177 . S
C2348 C1228 1.013 1_556 S
C2364 C951 1.195 . S
C2359 C230 1.198 . S
C2380 C907 1.123 . S
C2375 C158 1.106 . S
C2391 C508 1.156 . S
C2396 C1203 1.164 . S
C2412 C905 1.063 . S
C2407 C544 1.064 . S
C2428 C1226 1.213 . S
C2423 C446 1.198 1_455 S
C2439 C471 1.019 . S
C2444 C953 1.003 . S
C2455 C542 1.121 . S
C2460 C1068 1.100 . S
C2471 C435 1.163 . S
C2476 C996 1.151 . S
C2487 C482 1.013 1_455 S
C2492 C1112 1.104 . S
C2503 C506 1.228 . S
C2508 C1042 1.237 . S
C2524 C1207 0.960 . S
C2519 C832 1.095 . S
C2535 C723 1.364 . S
C2540 C903 1.304 . S
C2556 C1230 1.066 . S
C2551 C760 1.120 . S
C2567 C795 1.392 . S
C2572 C950 1.375 . S
C2583 C831 1.384 . S
C2588 C1065 1.342 . S
C2604 C1000 1.098 . S
C2599 C724 1.126 . S
C2615 C759 1.411 . S
C2620 C1110 1.397 . S
C2636 C1046 0.980 . S
C2631 C796 1.096 . S
C2652 C1206 1.418 . S
C2647 C794 1.442 . S
C2668 C977 1.309 . S
C2663 C626 1.346 . S
C2679 C650 1.403 . S
C2684 C1091 1.346 . S
C2700 C1021 1.188 . S
C2695 C698 1.256 . S
C2716 C1045 1.351 . S
C2711 C830 1.402 . S
C2727 C722 1.416 . S
C2732 C1229 1.369 . S
C2748 C1138 1.189 . S
C2743 C662 1.193 . S
C2764 C1159 1.253 . S
C2759 C590 1.299 . S
