# Generated by pormake.
# Topology ssa, (4,4)-cn, num edge types: 1
# Building blocks:
#     Node 0, Type 0, BuildingBlock: ESEHIV_clean_sbu_0, # of connection points: 4
#     Node 1, Type 0, BuildingBlock: ESEHIV_clean_sbu_0, # of connection points: 4
#     Node 2, Type 0, BuildingBlock: ESEHIV_clean_sbu_0, # of connection points: 4
#     Node 3, Type 0, BuildingBlock: ESEHIV_clean_sbu_0, # of connection points: 4
#     Node 4, Type 0, BuildingBlock: ESEHIV_clean_sbu_0, # of connection points: 4
#     Node 5, Type 0, BuildingBlock: ESEHIV_clean_sbu_0, # of connection points: 4
#     Node 6, Type 1, BuildingBlock: MUDLON_clean_sbu_0, # of connection points: 4
#     Node 7, Type 1, BuildingBlock: MUDLON_clean_sbu_0, # of connection points: 4
#     Node 8, Type 1, BuildingBlock: MUDLON_clean_sbu_0, # of connection points: 4
#     Node 9, Type 1, BuildingBlock: MUDLON_clean_sbu_0, # of connection points: 4
#     Node 10, Type 1, BuildingBlock: MUDLON_clean_sbu_0, # of connection points: 4
#     Node 11, Type 1, BuildingBlock: MUDLON_clean_sbu_0, # of connection points: 4
#     Edge 12, Type (0, 1), BuildingBlock: KIFKEQ_clean_linker_1, # of connection points: 2
#     Edge 13, Type (0, 1), BuildingBlock: KIFKEQ_clean_linker_1, # of connection points: 2
#     Edge 14, Type (0, 1), BuildingBlock: KIFKEQ_clean_linker_1, # of connection points: 2
#     Edge 15, Type (0, 1), BuildingBlock: KIFKEQ_clean_linker_1, # of connection points: 2
#     Edge 16, Type (0, 1), BuildingBlock: KIFKEQ_clean_linker_1, # of connection points: 2
#     Edge 17, Type (0, 1), BuildingBlock: KIFKEQ_clean_linker_1, # of connection points: 2
#     Edge 18, Type (0, 1), BuildingBlock: KIFKEQ_clean_linker_1, # of connection points: 2
#     Edge 19, Type (0, 1), BuildingBlock: KIFKEQ_clean_linker_1, # of connection points: 2
#     Edge 20, Type (0, 1), BuildingBlock: KIFKEQ_clean_linker_1, # of connection points: 2
#     Edge 21, Type (0, 1), BuildingBlock: KIFKEQ_clean_linker_1, # of connection points: 2
#     Edge 22, Type (0, 1), BuildingBlock: KIFKEQ_clean_linker_1, # of connection points: 2
#     Edge 23, Type (0, 1), BuildingBlock: KIFKEQ_clean_linker_1, # of connection points: 2
#     Edge 24, Type (0, 1), BuildingBlock: KIFKEQ_clean_linker_1, # of connection points: 2
#     Edge 25, Type (0, 1), BuildingBlock: KIFKEQ_clean_linker_1, # of connection points: 2
#     Edge 26, Type (0, 1), BuildingBlock: KIFKEQ_clean_linker_1, # of connection points: 2
#     Edge 27, Type (0, 1), BuildingBlock: KIFKEQ_clean_linker_1, # of connection points: 2
#     Edge 28, Type (0, 1), BuildingBlock: KIFKEQ_clean_linker_1, # of connection points: 2
#     Edge 29, Type (0, 1), BuildingBlock: KIFKEQ_clean_linker_1, # of connection points: 2
#     Edge 30, Type (0, 1), BuildingBlock: KIFKEQ_clean_linker_1, # of connection points: 2
#     Edge 31, Type (0, 1), BuildingBlock: KIFKEQ_clean_linker_1, # of connection points: 2
#     Edge 32, Type (0, 1), BuildingBlock: KIFKEQ_clean_linker_1, # of connection points: 2
#     Edge 33, Type (0, 1), BuildingBlock: KIFKEQ_clean_linker_1, # of connection points: 2
#     Edge 34, Type (0, 1), BuildingBlock: KIFKEQ_clean_linker_1, # of connection points: 2
#     Edge 35, Type (0, 1), BuildingBlock: KIFKEQ_clean_linker_1, # of connection points: 2
# Relax obj value: 0.022
# Max RMSD: 0.109
# Mean RMSD: 0.059
data_MOF--net-ssa--node1-ESEHIV_clean_sbu_0--node2-MUDLON_clean_sbu_0--edge1-KIFKEQ_clean_linker_1
_symmetry_space_group_name_H-M    P1
_symmetry_Int_Tables_number       1
_symmetry_cell_setting            triclinic
loop_
_symmetry_equiv_pos_as_xyz
'x, y, z'
_cell_length_a     43.689136
_cell_length_b     47.403171
_cell_length_c     41.925163
_cell_angle_alpha  88.193527
_cell_angle_beta   91.092398
_cell_angle_gamma 122.88086
loop_
_atom_site_label
_atom_site_type_symbol
_atom_site_fract_x
_atom_site_fract_y
_atom_site_fract_z
_atom_type_partial_charge
Cu0 Cu 1.01041 0.5343 0.04287 0.0
N1 N 0.98287 0.48723 0.04567 0.0
N2 N 0.95308 0.43421 0.02924 0.0
C3 C 0.97336 0.46703 0.02053 0.0
C4 C 0.9492 0.43361 0.06116 0.0
C5 C 0.9678 0.46642 0.07127 0.0
O6 O 0.98969 0.54626 1.00749 0.0
C7 C 0.0747 0.53303 0.03447 0.0
O8 O 0.05365 0.50432 0.02027 0.0
H9 H 0.98097 0.47626 0.99619 0.0
H10 H 0.97013 0.47449 0.09553 0.0
N11 N 1.00793 0.5536 0.08022 0.0
N12 N 0.02943 0.5896 0.1206 0.0
C13 C 0.03678 0.5817 0.09226 0.0
C14 C 0.98094 0.54326 0.10147 0.0
C15 C 0.9941 0.56545 0.12639 0.0
C16 C 0.99607 0.54553 0.97813 0.0
O17 O 0.02201 0.54094 0.97027 0.0
H18 H 0.06282 0.59591 0.08029 0.0
H19 H 0.95394 0.52083 0.09938 0.0
O20 O 0.06214 0.55103 0.04037 0.0
H21 H 0.9344 0.41112 0.0761 0.0
H22 H 0.97904 0.56328 0.1475 0.0
Cu23 Cu 0.57368 0.03376 0.53565 0.0
N24 N 0.59794 0.02661 0.50365 0.0
N25 N 0.60793 0.99895 0.46715 0.0
C26 C 0.58671 0.99645 0.49154 0.0
C27 C 0.63357 0.03215 0.46391 0.0
C28 C 0.62724 0.04913 0.48633 0.0
O29 O 0.52183 1.00261 0.52687 0.0
C30 C 0.62361 0.04298 0.58306 0.0
O31 O 0.64571 0.05497 0.55846 0.0
H32 H 0.56316 0.97317 0.50042 0.0
H33 H 0.64249 0.07601 0.4894 0.0
N34 N 0.58489 0.07788 0.5354 0.0
N35 N 0.59493 0.12515 0.55608 0.0
C36 C 0.5863 0.09354 0.56214 0.0
C37 C 0.59317 0.10046 0.51141 0.0
C38 C 0.59908 0.12962 0.52412 0.0
C39 C 0.51035 1.00726 0.50026 0.0
O40 O 0.53301 0.03367 0.4825 0.0
H41 H 0.58041 0.08166 0.58564 0.0
H42 H 0.59478 0.0961 0.48652 0.0
O43 O 0.58944 0.02853 0.5781 0.0
H44 H 0.6548 0.04357 0.44603 0.0
H45 H 0.60619 0.15239 0.51094 0.0
Cu46 Cu 0.5157 0.49435 0.03931 0.0
N47 N 0.51664 0.45556 0.03469 0.0
N48 N 0.52072 0.41633 1.01021 0.0
C49 C 0.5218 0.44532 1.00679 0.0
C50 C 0.51471 0.40811 0.04163 0.0
C51 C 0.51233 0.43237 0.05666 0.0
O52 O 0.54534 0.52478 1.00459 0.0
C53 C 0.43932 0.45684 0.05055 0.0
O54 O 0.44266 0.43105 0.05453 0.0
H55 H 0.52556 0.45863 0.98428 0.0
H56 H 0.50725 0.43274 0.08173 0.0
N57 N 0.5345 0.51548 0.07818 0.0
N58 N 0.54185 0.54887 0.11811 0.0
C59 C 0.53168 0.5409 0.08745 0.0
C60 C 0.5471 0.50702 0.10386 0.0
C61 C 0.55162 0.52762 0.12861 0.0
C62 C 0.57983 0.53955 1.00709 0.0
O63 O 0.59354 0.53624 0.03406 0.0
H64 H 0.52043 0.55209 0.07239 0.0
H65 H 0.55152 0.48669 0.10493 0.0
O66 O 0.46626 0.48465 0.03977 0.0
H67 H 0.51237 0.38623 0.05305 0.0
H68 H 0.56083 0.52668 0.15254 0.0
Cu69 Cu 1.00668 0.50746 0.52664 0.0
N70 N 0.99889 0.4853 0.48805 0.0
N71 N 1.01363 0.4652 0.44746 0.0
C72 C 1.01646 0.47067 0.47912 0.0
C73 C 0.99209 0.47555 0.43617 0.0
C74 C 0.98312 0.488 0.46122 0.0
O75 O 0.05699 0.54633 0.52555 0.0
C76 C 0.99727 0.48339 0.59154 0.0
O77 O 1.01753 0.51534 0.59857 0.0
H78 H 0.03294 0.46597 0.49516 0.0
H79 H 0.9687 0.50065 0.4594 0.0
N80 N 0.97851 0.5262 0.52861 0.0
N81 N 0.94941 0.54791 0.55046 0.0
C82 C 0.95967 0.52567 0.55399 0.0
C83 C 0.98008 0.54937 0.50818 0.0
C84 C 0.96205 0.56262 0.52141 0.0
C85 C 0.08505 0.54656 0.51727 0.0
O86 O 0.08362 0.51822 0.51685 0.0
H87 H 0.95503 0.5103 0.57516 0.0
H88 H 0.9954 0.55767 0.48616 0.0
O89 O 0.99223 0.47526 0.56235 0.0
H90 H 0.98611 0.47696 0.41121 0.0
H91 H 0.9605 0.58303 0.51113 0.0
Cu92 Cu 0.52032 1.0043 0.02448 0.0
N93 N 0.49028 0.99468 0.98874 0.0
N94 N 0.466 1.0064 0.94685 0.0
C95 C 0.48713 0.01824 0.97317 0.0
C96 C 0.4553 0.97378 0.94592 0.0
C97 C 0.4703 0.96661 0.97184 0.0
O98 O 0.55485 0.05303 0.02037 0.0
C99 C 0.47138 0.95622 0.06756 0.0
O100 O 0.47038 0.93748 0.04462 0.0
H101 H 0.50135 0.04402 0.98055 0.0
H102 H 0.4675 0.9429 0.97749 0.0
N103 N 0.54494 0.98205 0.02462 0.0
N104 N 0.57075 0.95615 0.04661 0.0
C105 C 0.55865 0.97656 0.05134 0.0
C106 C 0.54871 0.96487 1.00179 0.0
C107 C 0.56474 0.94892 1.01527 0.0
C108 C 0.5889 0.06694 1.01557 0.0
O109 O 0.60366 0.0493 0.02025 0.0
H110 H 0.55869 0.98683 0.074 0.0
H111 H 0.53916 0.96295 0.97748 0.0
O112 O 0.49078 0.98814 0.06349 0.0
H113 H 0.43821 0.95636 0.92771 0.0
H114 H 0.56998 0.93215 1.00314 0.0
Cu115 Cu 0.5262 0.50122 0.49388 0.0
N116 N 0.55835 0.52364 0.45977 0.0
N117 N 0.59331 0.56761 0.42689 0.0
C118 C 0.57943 0.55734 0.45659 0.0
C119 C 0.58122 0.53903 0.41101 0.0
C120 C 0.55951 0.51195 0.4313 0.0
O121 O 0.48238 0.50102 0.48346 0.0
C122 C 0.58097 0.52365 0.53731 0.0
O123 O 0.59319 0.51514 0.51347 0.0
H124 H 0.5825 0.57394 0.47526 0.0
H125 H 0.54353 0.48582 0.42494 0.0
N126 N 0.51295 0.45672 0.50058 0.0
N127 N 0.50048 0.41128 0.52979 0.0
C128 C 0.51043 0.44362 0.53008 0.0
C129 C 0.5037 0.43157 0.48061 0.0
C130 C 0.49593 0.4034 0.49864 0.0
C131 C 0.48304 0.52733 0.4746 0.0
O132 O 0.51329 0.55689 0.4779 0.0
H133 H 0.51526 0.45759 0.55153 0.0
H134 H 0.50254 0.43344 0.45491 0.0
O135 O 0.55126 0.52248 0.53341 0.0
H136 H 0.58521 0.5377 0.38583 0.0
H137 H 0.48804 0.37924 0.48949 0.0
Mg138 Mg 0.25312 0.49244 0.25568 0.0
C139 C 0.21053 0.5034 0.20924 0.0
O140 O 0.18917 0.47293 0.22141 0.0
C141 C 0.29514 0.49502 0.31124 0.0
O142 O 0.26883 0.46337 0.30782 0.0
C143 C 0.20211 0.47493 0.31011 0.0
O144 O 0.23171 0.50256 0.31966 0.0
O145 O 0.2024 0.46277 0.28352 0.0
O146 O 0.24249 0.52177 0.22086 0.0
O147 O 0.27184 0.46724 0.22628 0.0
C148 C 0.26029 0.45598 0.19847 0.0
O149 O 0.2308 0.45382 0.18743 0.0
O150 O 0.29706 0.51677 0.29122 0.0
Mg151 Mg 0.79004 0.25035 0.80158 0.0
C152 C 0.74461 0.17918 0.77675 0.0
O153 O 0.72435 0.17574 0.80117 0.0
C154 C 0.829 0.25586 0.86603 0.0
O155 O 0.79855 0.22764 0.87397 0.0
C156 C 0.74381 0.2488 0.85641 0.0
O157 O 0.77455 0.27654 0.86399 0.0
O158 O 0.74141 0.23591 0.82955 0.0
O159 O 0.77526 0.2068 0.77279 0.0
O160 O 0.81268 0.29313 0.76716 0.0
C161 C 0.84686 0.30731 0.7626 0.0
O162 O 0.86411 0.29587 0.77881 0.0
O163 O 0.83322 0.26707 0.83739 0.0
Mg164 Mg 0.60798 0.79382 0.27081 0.0
C165 C 0.63658 0.85395 0.22591 0.0
O166 O 0.64426 0.86896 0.25341 0.0
C167 C 0.64963 0.77992 0.32026 0.0
O168 O 0.63962 0.79569 0.33828 0.0
C169 C 0.58096 0.81505 0.32987 0.0
O170 O 0.56185 0.78328 0.33913 0.0
O171 O 0.59959 0.82362 0.30436 0.0
O172 O 0.62415 0.82268 0.22583 0.0
O173 O 0.56286 0.74334 0.25959 0.0
C174 C 0.55145 0.73642 0.23098 0.0
O175 O 0.55951 0.7612 0.21071 0.0
O176 O 0.64496 0.78021 0.29025 0.0
Mg177 Mg 0.77937 0.56262 0.77937 0.0
C178 C 0.71385 0.54811 0.74298 0.0
O179 O 0.72509 0.57668 0.75675 0.0
C180 C 0.82467 0.53552 0.80567 0.0
O181 O 0.83781 0.54278 0.77654 0.0
C182 C 0.73309 0.56234 0.82607 0.0
O183 O 0.72081 0.5313 0.81821 0.0
O184 O 0.76242 0.58602 0.81304 0.0
O185 O 0.73087 0.53355 0.74899 0.0
O186 O 0.82445 0.59068 0.74545 0.0
C187 C 0.81727 0.59174 0.716 0.0
O188 O 0.78432 0.58358 0.70793 0.0
O189 O 0.79757 0.53759 0.81203 0.0
Mg190 Mg 0.27198 0.7881 0.31266 0.0
C191 C 0.22137 0.77425 0.2563 0.0
O192 O 0.25293 0.79328 0.24194 0.0
C193 C 0.31434 0.82536 0.3679 0.0
O194 O 0.32024 0.80127 0.36421 0.0
C195 C 0.2293 0.73683 0.3596 0.0
O196 O 0.21687 0.75653 0.35616 0.0
O197 O 0.25615 0.74317 0.34231 0.0
O198 O 0.22089 0.7712 0.28662 0.0
O199 O 0.31466 0.80704 0.2759 0.0
C200 C 0.3365 0.83886 0.27292 0.0
O201 O 0.33522 0.85805 0.29407 0.0
O202 O 0.29251 0.82716 0.34858 0.0
Mg203 Mg 0.50979 0.24578 0.77084 0.0
C204 C 0.56347 0.25642 0.71955 0.0
O205 O 0.55468 0.27724 0.70812 0.0
C206 C 0.52826 0.27729 0.8365 0.0
O207 O 0.52178 0.24753 0.84467 0.0
C208 C 0.47801 0.1722 0.78589 0.0
O209 O 0.49523 0.17574 0.75924 0.0
O210 O 0.47661 0.19678 0.79523 0.0
O211 O 0.5523 0.24319 0.74722 0.0
O212 O 0.48348 0.25619 0.73142 0.0
C213 C 0.48375 0.28317 0.73116 0.0
O214 O 0.49506 0.30156 0.75674 0.0
O215 O 0.52743 0.28429 0.80704 0.0
H216 H 0.10895 0.49933 0.02933 0.0
H217 H 0.11393 0.57942 0.0806 0.0
H218 H 0.15037 0.49793 0.06811 0.0
H219 H 0.15497 0.57753 0.11966 0.0
H220 H 0.23809 0.56696 0.18223 0.0
H221 H 0.21463 0.58115 0.13454 0.0
H222 H 0.13192 0.47595 0.12377 0.0
H223 H 0.15468 0.46201 0.17055 0.0
C224 C 0.1196 0.51726 0.04834 0.0
C225 C 0.10742 0.53895 0.05217 0.0
C226 C 0.14325 0.51636 0.07067 0.0
C227 C 0.15523 0.53707 0.09737 0.0
C228 C 0.14618 0.56123 0.09939 0.0
C229 C 0.12254 0.56221 0.07697 0.0
C230 C 0.21504 0.547 0.16947 0.0
C231 C 0.19813 0.5134 0.18034 0.0
C232 C 0.20164 0.55509 0.14224 0.0
C233 C 0.17172 0.52961 0.12513 0.0
C234 C 0.15544 0.49614 0.13591 0.0
C235 C 0.16831 0.4882 0.1631 0.0
H236 H 0.69225 0.06349 0.60282 0.0
H237 H 0.59124 0.04811 0.63612 0.0
H238 H 0.7223 0.09147 0.65212 0.0
H239 H 0.6215 0.07703 0.6851 0.0
H240 H 0.68042 0.11761 0.77821 0.0
H241 H 0.65086 0.0789 0.7345 0.0
H242 H 0.74304 0.14476 0.67385 0.0
H243 H 0.77293 0.18294 0.71776 0.0
C244 C 0.67629 0.06561 0.62092 0.0
C245 C 0.63935 0.05361 0.61547 0.0
C246 C 0.69364 0.08199 0.6491 0.0
C247 C 0.6746 0.08709 0.67252 0.0
C248 C 0.63707 0.07337 0.66782 0.0
C249 C 0.61962 0.05671 0.63968 0.0
C250 C 0.69466 0.12358 0.75569 0.0
C251 C 0.72905 0.15354 0.75152 0.0
C252 C 0.67754 0.10145 0.73051 0.0
C253 C 0.69429 0.1087 0.70043 0.0
C254 C 0.72937 0.13801 0.6967 0.0
C255 C 0.74655 0.16007 0.72192 0.0
H256 H 0.52665 0.54595 0.1811 0.0
H257 H 0.55274 0.60754 0.09547 0.0
H258 H 0.52149 0.58691 0.21051 0.0
H259 H 0.54885 0.64893 0.12469 0.0
H260 H 0.51669 0.70951 0.1747 0.0
H261 H 0.5095 0.66091 0.14891 0.0
H262 H 0.55573 0.64097 0.23195 0.0
H263 H 0.56121 0.68854 0.25818 0.0
C264 C 0.53166 0.56843 0.16866 0.0
C265 C 0.54006 0.5735 0.13595 0.0
C266 C 0.52868 0.59195 0.18549 0.0
C267 C 0.53442 0.62129 0.17005 0.0
C268 C 0.54319 0.62633 0.13734 0.0
C269 C 0.54573 0.60269 0.12054 0.0
C270 C 0.52443 0.69421 0.18774 0.0
C271 C 0.53971 0.70306 0.21841 0.0
C272 C 0.52077 0.66654 0.17279 0.0
C273 C 0.53289 0.64733 0.18792 0.0
C274 C 0.54593 0.65493 0.21948 0.0
C275 C 0.54908 0.68232 0.2346 0.0
H276 H 0.94257 0.5334 0.61459 0.0
H277 H 0.91744 0.58336 0.54046 0.0
H278 H 0.91396 0.54839 0.65366 0.0
H279 H 0.89088 0.60012 0.57996 0.0
H280 H 0.80532 0.58608 0.65177 0.0
H281 H 0.83887 0.57762 0.61195 0.0
H282 H 0.91898 0.59267 0.68311 0.0
H283 H 0.88432 0.59981 0.72348 0.0
C284 C 0.93108 0.54759 0.60642 0.0
C285 C 0.93237 0.55689 0.57398 0.0
C286 C 0.91512 0.55675 0.62912 0.0
C287 C 0.90015 0.57568 0.62018 0.0
C288 C 0.9017 0.58523 0.58783 0.0
C289 C 0.91739 0.57585 0.56508 0.0
C290 C 0.8304 0.58815 0.65894 0.0
C291 C 0.84192 0.59341 0.69098 0.0
C292 C 0.84982 0.58339 0.63594 0.0
C293 C 0.88157 0.58407 0.64421 0.0
C294 C 0.89422 0.5912 0.67594 0.0
C295 C 0.87459 0.59574 0.69906 0.0
H296 H 0.45561 0.98292 0.11754 0.0
H297 H 0.44515 0.89188 0.08722 0.0
H298 H 0.42402 0.95419 0.16724 0.0
H299 H 0.4154 0.86378 0.13696 0.0
H300 H 0.32908 0.81106 0.21455 0.0
H301 H 0.36139 0.83981 0.1654 0.0
H302 H 0.42819 0.93183 0.21668 0.0
H303 H 0.39471 0.90331 0.26536 0.0
C304 C 0.44679 0.95689 0.12155 0.0
C305 C 0.45264 0.9397 0.09822 0.0
C306 C 0.42888 0.94038 0.15019 0.0
C307 C 0.41684 0.9064 0.15635 0.0
C308 C 0.42332 0.88957 0.13304 0.0
C309 C 0.44069 0.90587 0.10441 0.0
C310 C 0.35098 0.8373 0.21538 0.0
C311 C 0.35929 0.85483 0.24392 0.0
C312 C 0.36965 0.85392 0.18713 0.0
C313 C 0.39749 0.88842 0.18674 0.0
C314 C 0.40647 0.90555 0.21565 0.0
C315 C 0.38751 0.88905 0.24375 0.0
H316 H 0.53512 0.43214 0.58655 0.0
H317 H 0.45663 0.34306 0.53597 0.0
H318 H 0.52601 0.39825 0.63426 0.0
H319 H 0.44755 0.30873 0.58422 0.0
H320 H 0.47774 0.26091 0.67015 0.0
H321 H 0.47927 0.28991 0.62031 0.0
H322 H 0.47902 0.36601 0.67408 0.0
H323 H 0.47812 0.33751 0.72367 0.0
C324 C 0.51558 0.4053 0.58566 0.0
C325 C 0.49619 0.39044 0.55745 0.0
C326 C 0.51032 0.3858 0.61313 0.0
C327 C 0.48556 0.35079 0.6133 0.0
C328 C 0.46684 0.33565 0.58489 0.0
C329 C 0.47209 0.35529 0.55723 0.0
C330 C 0.47733 0.2835 0.6713 0.0
C331 C 0.4782 0.29707 0.70095 0.0
C332 C 0.47819 0.30012 0.64271 0.0
C333 C 0.47994 0.33063 0.64319 0.0
C334 C 0.47859 0.34301 0.67283 0.0
C335 C 0.4778 0.3265 0.70131 0.0
H336 H 0.54561 0.93796 0.45735 0.0
H337 H 0.65988 0.99853 0.43297 0.0
H338 H 0.53802 0.89311 0.42442 0.0
H339 H 0.65225 0.95375 0.40002 0.0
H340 H 0.61846 0.88275 0.31732 0.0
H341 H 0.624 0.92648 0.35048 0.0
H342 H 0.55425 0.85142 0.42124 0.0
H343 H 0.54817 0.80738 0.38769 0.0
C344 C 0.56924 0.94168 0.44527 0.0
C345 C 0.60341 0.97207 0.44791 0.0
C346 C 0.56485 0.91588 0.42632 0.0
C347 C 0.59447 0.91977 0.40941 0.0
C348 C 0.62865 0.95005 0.41221 0.0
C349 C 0.63305 0.97581 0.43117 0.0
C350 C 0.60415 0.87544 0.33989 0.0
C351 C 0.58292 0.84143 0.34982 0.0
C352 C 0.60756 0.90063 0.35905 0.0
C353 C 0.58983 0.8926 0.38871 0.0
C354 C 0.56807 0.85854 0.39844 0.0
C355 C 0.56469 0.83326 0.37925 0.0
H356 H 0.654 0.57255 1.00515 0.0
H357 H 0.55998 0.54038 0.94469 0.0
H358 H 0.69201 0.58653 0.95822 0.0
H359 H 0.59833 0.55516 0.8976 0.0
H360 H 0.66076 0.52222 0.83628 0.0
H361 H 0.625 0.52585 0.87739 0.0
H362 H 0.71993 0.61913 0.90825 0.0
H363 H 0.75628 0.61523 0.86656 0.0
C364 C 0.64156 0.56925 0.98182 0.0
C365 C 0.60376 0.55469 0.97871 0.0
C366 C 0.66351 0.57757 0.95485 0.0
C367 C 0.64816 0.57152 0.92412 0.0
C368 C 0.61089 0.55957 0.92097 0.0
C369 C 0.58892 0.55124 0.94797 0.0
C370 C 0.67403 0.54381 0.85151 0.0
C371 C 0.71146 0.56824 0.84846 0.0
C372 C 0.65334 0.54609 0.87492 0.0
C373 C 0.6695 0.57278 0.89619 0.0
C374 C 0.70671 0.59814 0.89232 0.0
C375 C 0.72749 0.59603 0.86843 0.0
H376 H 0.10352 0.6114 0.52122 0.0
H377 H 0.13328 0.55006 0.47393 0.0
H378 H 0.14344 0.65857 0.48558 0.0
H379 H 0.17212 0.59686 0.43732 0.0
H380 H 0.25342 0.69691 0.38347 0.0
H381 H 0.22472 0.65299 0.42564 0.0
H382 H 0.13709 0.66967 0.43133 0.0
H383 H 0.16576 0.71333 0.39052 0.0
C384 C 0.11901 0.60813 0.50351 0.0
C385 C 0.1149 0.57686 0.50029 0.0
C386 C 0.14167 0.63509 0.4828 0.0
C387 C 0.16035 0.63135 0.45792 0.0
C388 C 0.15825 0.60076 0.45614 0.0
C389 C 0.1359 0.57386 0.47719 0.0
C390 C 0.22802 0.69105 0.39382 0.0
C391 C 0.21207 0.70883 0.38374 0.0
C392 C 0.21156 0.66591 0.41797 0.0
C393 C 0.17885 0.65812 0.43244 0.0
C394 C 0.16278 0.67556 0.42165 0.0
C395 C 0.17916 0.70052 0.39786 0.0
H396 H 0.47112 0.06532 0.95614 0.0
H397 H 0.44558 0.99194 0.88455 0.0
H398 H 0.46766 0.10143 0.9162 0.0
H399 H 0.43985 0.02736 0.84472 0.0
H400 H 0.48812 0.12097 0.77717 0.0
H401 H 0.47886 0.07768 0.8156 0.0
H402 H 0.43183 0.11209 0.88163 0.0
H403 H 0.44258 0.15648 0.84346 0.0
C404 C 0.46445 0.05665 0.93193 0.0
C405 C 0.45938 0.02582 0.92365 0.0
C406 C 0.46184 0.07726 0.90897 0.0
C407 C 0.45364 0.06757 0.877 0.0
C408 C 0.44684 0.03601 0.86896 0.0
C409 C 0.44973 0.01544 0.89195 0.0
C410 C 0.47531 0.11907 0.79969 0.0
C411 C 0.46649 0.14251 0.80732 0.0
C412 C 0.46977 0.09398 0.82177 0.0
C413 C 0.45492 0.09142 0.85202 0.0
C414 C 0.44409 0.11369 0.85889 0.0
C415 C 0.44996 0.13901 0.83688 0.0
H416 H 0.42107 0.46986 0.45491 0.0
H417 H 0.47625 0.57797 0.44977 0.0
H418 H 0.37548 0.46488 0.41745 0.0
H419 H 0.42969 0.57298 0.4129 0.0
H420 H 0.36583 0.54956 0.31646 0.0
H421 H 0.40974 0.55901 0.35875 0.0
H422 H 0.32567 0.47035 0.40969 0.0
H423 H 0.28277 0.46037 0.36711 0.0
C424 C 0.42307 0.4926 0.44633 0.0
C425 C 0.45243 0.52431 0.45543 0.0
C426 C 0.39674 0.48976 0.42482 0.0
C427 C 0.39874 0.51854 0.41194 0.0
C428 C 0.42748 0.55027 0.42187 0.0
C429 C 0.45401 0.55311 0.44331 0.0
C430 C 0.35681 0.53239 0.3369 0.0
C431 C 0.32103 0.50398 0.33823 0.0
C432 C 0.38189 0.53781 0.36124 0.0
C433 C 0.37152 0.51512 0.38755 0.0
C434 C 0.33509 0.48783 0.38948 0.0
C435 C 0.31034 0.48221 0.36509 0.0
H436 H 0.88768 0.37524 0.03357 0.0
H437 H 0.98606 0.42959 0.97775 0.0
H438 H 0.86125 0.32988 0.99544 0.0
H439 H 0.96076 0.38382 0.94035 0.0
H440 H 0.88653 0.32082 0.85851 0.0
H441 H 0.91841 0.36182 0.89951 0.0
H442 H 0.85935 0.28459 0.97225 0.0
H443 H 0.82593 0.24369 0.9308 0.0
C444 C 0.90388 0.37711 1.01343 0.0
C445 C 0.9387 0.40608 1.00839 0.0
C446 C 0.88888 0.35102 0.99158 0.0
C447 C 0.90863 0.35307 0.96443 0.0
C448 C 0.94421 0.38155 0.96037 0.0
C449 C 0.95886 0.40781 0.98187 0.0
C450 C 0.88068 0.31234 0.88323 0.0
C451 C 0.8534 0.27889 0.89125 0.0
C452 C 0.89921 0.33598 0.90694 0.0
C453 C 0.89142 0.32683 0.93946 0.0
C454 C 0.86559 0.29288 0.94752 0.0
C455 C 0.8467 0.26924 0.92372 0.0
H456 H 0.92658 0.52979 0.98618 0.0
H457 H 1.0082 0.55871 0.91391 0.0
H458 H 0.88323 0.52357 0.94543 0.0
H459 H 0.96563 0.55461 0.87305 0.0
H460 H 0.87454 0.51785 0.80137 0.0
H461 H 0.91469 0.51899 0.84316 0.0
H462 H 0.86523 0.54995 0.91045 0.0
H463 H 0.82383 0.54669 0.86912 0.0
C464 C 0.93552 0.53551 0.96157 0.0
C465 C 0.97095 0.54489 0.95333 0.0
C466 C 0.91059 0.53204 0.93805 0.0
C467 C 0.92055 0.5385 0.9056 0.0
C468 C 0.95638 0.54858 0.89754 0.0
C469 C 0.98109 0.55138 0.92104 0.0
C470 C 0.87187 0.5243 0.82528 0.0
C471 C 0.84586 0.53203 0.8319 0.0
C472 C 0.89529 0.52543 0.84926 0.0
C473 C 0.89387 0.53504 0.88042 0.0
C474 C 0.86709 0.54194 0.88708 0.0
C475 C 0.84322 0.54014 0.86326 0.0
H476 H 0.46066 0.94341 0.52365 0.0
H477 H 0.47884 0.01258 0.44572 0.0
H478 H 0.40645 0.89899 0.49639 0.0
H479 H 0.42578 0.96831 0.41819 0.0
H480 H 0.3205 0.88575 0.37668 0.0
H481 H 0.36128 0.92962 0.41388 0.0
H482 H 0.3975 0.86636 0.45096 0.0
H483 H 0.35644 0.82271 0.41485 0.0
C484 C 0.45283 0.94929 0.50098 0.0
C485 C 0.47439 0.98146 0.48674 0.0
C486 C 0.42189 0.92377 0.48519 0.0
C487 C 0.41186 0.92985 0.45481 0.0
C488 C 0.43228 0.96261 0.4416 0.0
C489 C 0.46305 0.98804 0.45735 0.0
C490 C 0.33672 0.88109 0.3932 0.0
C491 C 0.33544 0.85085 0.39252 0.0
C492 C 0.36027 0.90628 0.41441 0.0
C493 C 0.38296 0.90172 0.43541 0.0
C494 C 0.38023 0.87078 0.43559 0.0
C495 C 0.35683 0.84576 0.41451 0.0
H496 H 0.55729 0.4409 0.95406 0.0
H497 H 0.49197 0.34922 1.00975 0.0
H498 H 0.56249 0.40926 0.91206 0.0
H499 H 0.49668 0.31753 0.96776 0.0
H500 H 0.53642 0.27183 0.90075 0.0
H501 H 0.53739 0.30678 0.94255 0.0
H502 H 0.52839 0.36976 0.87125 0.0
H503 H 0.52852 0.33526 0.82931 0.0
C504 C 0.5438 0.41397 0.95728 0.0
C505 C 0.52422 0.39768 0.9854 0.0
C506 C 0.54676 0.39576 0.93313 0.0
C507 C 0.53011 0.36073 0.93639 0.0
C508 C 0.51055 0.34452 0.96456 0.0
C509 C 0.50775 0.36272 0.98872 0.0
C510 C 0.53501 0.29333 0.89391 0.0
C511 C 0.53225 0.3006 0.8616 0.0
C512 C 0.53526 0.31327 0.91797 0.0
C513 C 0.5325 0.34097 0.91047 0.0
C514 C 0.53087 0.34886 0.87805 0.0
C515 C 0.53083 0.32898 0.85393 0.0
H516 H 0.99662 0.43147 0.39211 0.0
H517 H 0.08364 0.48622 0.4598 0.0
H518 H 0.03766 0.42486 0.3587 0.0
H519 H 0.12484 0.48131 0.42639 0.0
H520 H 0.19375 0.45923 0.37313 0.0
H521 H 0.14375 0.4487 0.40698 0.0
H522 H 0.08684 0.45395 0.32368 0.0
H523 H 0.13603 0.46191 0.28984 0.0
C524 C 0.02446 0.44191 0.39988 0.0
C525 C 0.03673 0.45898 0.42877 0.0
C526 C 0.04812 0.43835 0.38069 0.0
C527 C 0.0848 0.45232 0.38971 0.0
C528 C 0.09671 0.46917 0.41883 0.0
C529 C 0.073 0.47218 0.43813 0.0
C530 C 0.16992 0.457 0.3621 0.0
C531 C 0.16856 0.46121 0.32898 0.0
C532 C 0.14143 0.45151 0.38149 0.0
C533 C 0.11142 0.45142 0.36837 0.0
C534 C 0.10918 0.45363 0.33485 0.0
C535 C 0.13737 0.45819 0.31533 0.0
H536 H 0.56269 0.09777 0.978 0.0
H537 H 0.66281 0.10966 1.01221 0.0
H538 H 0.59748 0.14585 0.94121 0.0
H539 H 0.6975 0.15798 0.97588 0.0
H540 H 0.75216 0.25704 0.92093 0.0
H541 H 0.71303 0.21737 0.96279 0.0
H542 H 0.6355 0.1533 0.89161 0.0
H543 H 0.67484 0.1928 0.84952 0.0
C544 C 0.59214 0.11114 0.97831 0.0
C545 C 0.60997 0.0998 0.99805 0.0
C546 C 0.61202 0.13852 0.95703 0.0
C547 C 0.65021 0.15562 0.95553 0.0
C548 C 0.66813 0.14551 0.97661 0.0
C549 C 0.64824 0.11777 0.99741 0.0
C550 C 0.72638 0.23492 0.91414 0.0
C551 C 0.71672 0.2281 0.88176 0.0
C552 C 0.70409 0.21206 0.93819 0.0
C553 C 0.6713 0.18211 0.93052 0.0
C554 C 0.66049 0.17627 0.89831 0.0
C555 C 0.68307 0.19888 0.87418 0.0
H556 H 0.63788 0.59385 0.37519 0.0
H557 H 0.5866 0.61783 0.44714 0.0
H558 H 0.66193 0.64912 0.34966 0.0
H559 H 0.61004 0.67226 0.42185 0.0
H560 H 0.66631 0.77508 0.38248 0.0
H561 H 0.66155 0.72654 0.40942 0.0
H562 H 0.6388 0.67731 0.31908 0.0
H563 H 0.6449 0.72628 0.29209 0.0
C564 C 0.63194 0.61093 0.38569 0.0
C565 C 0.61034 0.60127 0.41331 0.0
C566 C 0.6457 0.64261 0.37107 0.0
C567 C 0.63809 0.66535 0.38369 0.0
C568 C 0.6173 0.65591 0.41177 0.0
C569 C 0.6037 0.62443 0.42637 0.0
C570 C 0.66129 0.75427 0.36827 0.0
C571 C 0.65556 0.75444 0.3352 0.0
C572 C 0.65821 0.72626 0.38375 0.0
C573 C 0.6489 0.69757 0.36659 0.0
C574 C 0.6461 0.69889 0.33314 0.0
C575 C 0.64957 0.72707 0.31761 0.0
H576 H 0.61886 0.13149 0.61702 0.0
H577 H 0.57682 0.17115 0.54754 0.0
H578 H 0.61924 0.16764 0.65732 0.0
H579 H 0.57582 0.2065 0.58792 0.0
H580 H 0.56576 0.20013 0.72873 0.0
H581 H 0.57834 0.17149 0.6891 0.0
H582 H 0.60796 0.25285 0.62114 0.0
H583 H 0.59368 0.28075 0.66053 0.0
C584 C 0.60961 0.14794 0.61042 0.0
C585 C 0.59757 0.14833 0.57916 0.0
C586 C 0.6097 0.16863 0.63355 0.0
C587 C 0.59728 0.18997 0.62616 0.0
C588 C 0.58617 0.19093 0.59456 0.0
C589 C 0.58656 0.17054 0.57133 0.0
C590 C 0.57557 0.21224 0.70553 0.0
C591 C 0.57833 0.24261 0.69775 0.0
C592 C 0.58294 0.19581 0.68269 0.0
C593 C 0.59375 0.20951 0.65156 0.0
C594 C 0.59879 0.24101 0.64451 0.0
C595 C 0.59098 0.25725 0.66725 0.0
H596 H 0.37205 0.40173 0.0655 0.0
H597 H 0.43806 0.50977 0.07272 0.0
H598 H 0.32623 0.39947 0.10027 0.0
H599 H 0.39266 0.50728 0.10787 0.0
H600 H 0.33273 0.48008 0.2052 0.0
H601 H 0.37322 0.47989 0.16605 0.0
H602 H 0.28209 0.42264 0.10263 0.0
H603 H 0.24134 0.42337 0.14159 0.0
C604 C 0.37644 0.42501 0.07398 0.0
C605 C 0.40866 0.45592 0.06628 0.0
C606 C 0.35025 0.42368 0.0939 0.0
C607 C 0.35617 0.45315 0.10703 0.0
C608 C 0.38762 0.48416 0.09829 0.0
C609 C 0.41342 0.48558 0.07789 0.0
C610 C 0.32112 0.46706 0.18312 0.0
C611 C 0.28374 0.45173 0.17654 0.0
C612 C 0.34442 0.46726 0.16058 0.0
C613 C 0.33083 0.4516 0.13119 0.0
C614 C 0.29325 0.43497 0.12508 0.0
C615 C 0.26998 0.43535 0.1474 0.0
H616 H 0.93998 0.41822 0.58444 0.0
H617 H 1.0055 0.49036 0.65631 0.0
H618 H 0.9023 0.37725 0.62623 0.0
H619 H 0.96787 0.44932 0.69801 0.0
H620 H 0.92002 0.35207 0.7606 0.0
H621 H 0.9558 0.39467 0.71973 0.0
H622 H 0.85709 0.3682 0.66904 0.0
H623 H 0.82089 0.32521 0.71039 0.0
C624 C 0.94656 0.42529 0.60914 0.0
C625 C 0.976 0.45759 0.61698 0.0
C626 C 0.92467 0.4019 0.63308 0.0
C627 C 0.93191 0.41004 0.66547 0.0
C628 C 0.96163 0.44217 0.67331 0.0
C629 C 0.98324 0.4657 0.64938 0.0
C630 C 0.90579 0.35544 0.74091 0.0
C631 C 0.86753 0.33515 0.73878 0.0
C632 C 0.92638 0.38002 0.71752 0.0
C633 C 0.90938 0.38482 0.69104 0.0
C634 C 0.87103 0.36491 0.68903 0.0
C635 C 0.85027 0.3405 0.71282 0.0
H636 H 0.60847 0.92619 0.03756 0.0
H637 H 0.5631 0.95492 0.11109 0.0
H638 H 0.6299 0.90305 0.07869 0.0
H639 H 0.58523 0.93283 0.15151 0.0
H640 H 0.65628 0.91918 0.21926 0.0
H641 H 0.64466 0.94547 0.17391 0.0
H642 H 0.60202 0.8551 0.12043 0.0
H643 H 0.61376 0.8286 0.16589 0.0
C644 C 0.60304 0.9277 0.06229 0.0
C645 C 0.58419 0.94285 0.0707 0.0
C646 C 0.61544 0.9145 0.08585 0.0
C647 C 0.60966 0.91651 0.11834 0.0
C648 C 0.59089 0.93158 0.12672 0.0
C649 C 0.5782 0.94439 0.10332 0.0
C650 C 0.64502 0.90503 0.19769 0.0
C651 C 0.63555 0.87161 0.19641 0.0
C652 C 0.63819 0.92007 0.17174 0.0
C653 C 0.6219 0.90218 0.14379 0.0
C654 C 0.61465 0.86955 0.14163 0.0
C655 C 0.62132 0.85436 0.16773 0.0
H656 H 0.5543 0.52384 0.5964 0.0
H657 H 0.64646 0.53209 0.55016 0.0
H658 H 0.58084 0.52418 0.64859 0.0
H659 H 0.67281 0.53268 0.60175 0.0
H660 H 0.69893 0.50364 0.69545 0.0
H661 H 0.66284 0.49529 0.64722 0.0
H662 H 0.63291 0.56172 0.68255 0.0
H663 H 0.66814 0.56943 0.73082 0.0
C664 C 0.58038 0.5262 0.59735 0.0
C665 C 0.59826 0.528 0.56911 0.0
C666 C 0.59549 0.52619 0.62721 0.0
C667 C 0.62867 0.52784 0.62936 0.0
C668 C 0.64678 0.53044 0.60105 0.0
C669 C 0.63183 0.53054 0.5714 0.0
C670 C 0.68392 0.51577 0.69324 0.0
C671 C 0.68677 0.53749 0.71679 0.0
C672 C 0.66354 0.5113 0.66548 0.0
C673 C 0.64551 0.52836 0.66076 0.0
C674 C 0.64634 0.54817 0.68536 0.0
C675 C 0.66675 0.5527 0.713 0.0
H676 H 1.01351 0.61673 0.1692 0.0
H677 H 0.10359 0.62531 0.11851 0.0
H678 H 0.05679 0.66351 0.20257 0.0
H679 H 0.14615 0.672 0.15112 0.0
H680 H 0.21429 0.77428 0.19153 0.0
H681 H 0.16554 0.73093 0.15913 0.0
H682 H 0.10543 0.67772 0.24438 0.0
H683 H 0.15435 0.7214 0.27708 0.0
C684 C 0.04236 0.62839 0.16509 0.0
C685 C 0.05475 0.61718 0.1407 0.0
C686 C 0.06717 0.65529 0.18422 0.0
C687 C 0.10494 0.67182 0.17924 0.0
C688 C 0.11725 0.66042 0.15513 0.0
C689 C 0.09262 0.6335 0.13628 0.0
C690 C 0.19045 0.75369 0.20348 0.0
C691 C 0.18852 0.75123 0.23699 0.0
C692 C 0.16257 0.72868 0.18484 0.0
C693 C 0.13187 0.70052 0.19915 0.0
C694 C 0.1287 0.69908 0.2326 0.0
C695 C 0.15677 0.72415 0.25134 0.0
loop_
_geom_bond_atom_site_label_1
_geom_bond_atom_site_label_2
_geom_bond_distance
_geom_bond_site_symmetry_2
_ccdc_geom_bond_type
Cu0 N1 1.999 1_454 S
Cu0 O6 1.974 1_454 S
Cu0 N11 1.985 . S
Cu0 O20 1.959 . S
N1 Cu0 1.999 1_656 S
N1 C3 1.263 . S
N1 C5 1.389 1_556 S
N2 C3 1.358 . S
N2 C4 1.400 . S
C3 N1 1.263 . S
C3 N2 1.358 . S
C3 H9 0.930 . S
C4 N2 1.400 . S
C4 C5 1.351 1_556 S
C4 H21 0.930 . S
C5 N1 1.389 1_554 S
C5 C4 1.351 1_554 S
C5 H10 0.930 . S
O6 Cu0 1.974 1_656 S
O6 C16 1.282 1_655 S
C7 O8 1.261 . S
C7 O20 1.251 . S
O8 C7 1.261 . S
H9 C3 0.930 . S
H10 C5 0.930 . S
N11 Cu0 1.985 . S
N11 C13 1.335 . S
N11 C14 1.390 . S
N12 C13 1.345 . S
N12 C15 1.336 . S
C13 N11 1.335 . S
C13 N12 1.345 . S
C13 H18 0.930 . S
C14 N11 1.390 . S
C14 C15 1.346 . S
C14 H19 0.921 1_554 S
C15 N12 1.336 . S
C15 C14 1.346 . S
C15 H22 0.929 . S
C16 O6 1.282 1_455 S
C16 O17 1.216 . S
O17 C16 1.216 . S
H18 C13 0.930 . S
H19 C14 0.921 1_556 S
O20 Cu0 1.959 . S
O20 C7 1.251 . S
H21 C4 0.930 . S
H22 C15 0.929 . S
Cu23 N24 1.999 . S
Cu23 O29 1.974 . S
Cu23 N34 1.985 1_565 S
Cu23 O43 1.959 1_565 S
N24 Cu23 1.999 . S
N24 C26 1.263 . S
N24 C28 1.389 . S
N25 C26 1.358 . S
N25 C27 1.400 . S
C26 N24 1.263 . S
C26 N25 1.358 . S
C26 H32 0.930 . S
C27 N25 1.400 . S
C27 C28 1.351 . S
C27 H44 0.930 . S
C28 N24 1.389 . S
C28 C27 1.351 . S
C28 H33 0.930 . S
O29 Cu23 1.974 . S
O29 C39 1.282 . S
C30 O31 1.261 . S
C30 O43 1.251 . S
O31 C30 1.261 . S
H32 C26 0.930 . S
H33 C28 0.930 . S
N34 Cu23 1.985 1_545 S
N34 C36 1.335 . S
N34 C37 1.390 . S
N35 C36 1.345 . S
N35 C38 1.336 . S
C36 N34 1.335 . S
C36 N35 1.345 . S
C36 H41 0.930 . S
C37 N34 1.390 . S
C37 C38 1.346 . S
C37 H42 0.930 . S
C38 N35 1.336 . S
C38 C37 1.346 . S
C38 H45 0.929 . S
C39 O29 1.282 . S
C39 O40 1.216 1_565 S
O40 C39 1.216 1_545 S
H41 C36 0.930 . S
H42 C37 0.930 . S
O43 Cu23 1.959 1_545 S
O43 C30 1.251 . S
H44 C27 0.930 . S
H45 C38 0.929 . S
Cu46 N47 1.999 1_554 S
Cu46 O52 1.974 1_554 S
Cu46 N57 1.985 . S
Cu46 O66 1.959 . S
N47 Cu46 1.999 1_556 S
N47 C49 1.263 . S
N47 C51 1.389 . S
N48 C49 1.358 . S
N48 C50 1.400 . S
C49 N47 1.263 . S
C49 N48 1.358 . S
C49 H55 0.930 . S
C50 N48 1.400 . S
C50 C51 1.351 . S
C50 H67 0.930 . S
C51 N47 1.389 . S
C51 C50 1.351 . S
C51 H56 0.930 . S
O52 Cu46 1.974 1_556 S
O52 C62 1.282 . S
C53 O54 1.261 . S
C53 O66 1.251 . S
O54 C53 1.261 . S
H55 C49 0.930 . S
H56 C51 0.930 . S
N57 Cu46 1.985 . S
N57 C59 1.335 . S
N57 C60 1.390 . S
N58 C59 1.345 . S
N58 C61 1.336 . S
C59 N57 1.335 . S
C59 N58 1.345 . S
C59 H64 0.930 . S
C60 N57 1.390 . S
C60 C61 1.346 . S
C60 H65 0.930 . S
C61 N58 1.336 . S
C61 C60 1.346 . S
C61 H68 0.929 . S
C62 O52 1.282 . S
C62 O63 1.204 1_556 S
O63 C62 1.204 1_554 S
H64 C59 0.930 . S
H65 C60 0.930 . S
O66 Cu46 1.959 . S
O66 C53 1.251 . S
H67 C50 0.930 . S
H68 C61 0.929 . S
Cu69 N70 1.999 1_655 S
Cu69 O75 1.974 1_655 S
Cu69 N80 1.985 . S
Cu69 O89 1.959 . S
N70 Cu69 1.999 1_455 S
N70 C72 1.263 . S
N70 C74 1.389 1_455 S
N71 C72 1.358 . S
N71 C73 1.411 . S
C72 N70 1.263 . S
C72 N71 1.358 . S
C72 H78 0.930 . S
C73 N71 1.411 . S
C73 C74 1.333 1_455 S
C73 H90 0.937 1_455 S
C74 N70 1.389 1_655 S
C74 C73 1.333 1_655 S
C74 H79 0.930 . S
O75 Cu69 1.974 1_455 S
O75 C85 1.282 . S
C76 O77 1.261 1_655 S
C76 O89 1.251 . S
O77 C76 1.261 1_455 S
H78 C72 0.930 . S
H79 C74 0.930 . S
N80 Cu69 1.985 . S
N80 C82 1.335 . S
N80 C83 1.390 . S
N81 C82 1.345 . S
N81 C84 1.336 . S
C82 N80 1.335 . S
C82 N81 1.345 . S
C82 H87 0.930 . S
C83 N80 1.390 . S
C83 C84 1.346 . S
C83 H88 0.930 1_655 S
C84 N81 1.336 . S
C84 C83 1.346 . S
C84 H91 0.929 . S
C85 O75 1.282 . S
C85 O86 1.216 . S
O86 C85 1.216 . S
H87 C82 0.930 . S
H88 C83 0.930 1_455 S
O89 Cu69 1.959 . S
O89 C76 1.251 . S
H90 C73 0.937 1_655 S
H91 C84 0.929 . S
Cu92 N93 1.999 1_554 S
Cu92 O98 1.974 1_554 S
Cu92 N103 1.985 1_545 S
Cu92 O112 1.959 1_545 S
N93 Cu92 1.999 1_556 S
N93 C95 1.263 . S
N93 C97 1.389 1_556 S
N94 C95 1.358 . S
N94 C96 1.400 . S
C95 N93 1.263 . S
C95 N94 1.358 . S
C95 H101 0.930 . S
C96 N94 1.400 . S
C96 C97 1.351 1_556 S
C96 H113 0.930 . S
C97 N93 1.389 1_554 S
C97 C96 1.351 1_554 S
C97 H102 0.930 . S
O98 Cu92 1.974 1_556 S
O98 C108 1.282 . S
C99 O100 1.261 . S
C99 O112 1.251 . S
O100 C99 1.261 . S
H101 C95 0.930 . S
H102 C97 0.930 . S
N103 Cu92 1.985 1_565 S
N103 C105 1.335 . S
N103 C106 1.390 . S
N104 C105 1.345 . S
N104 C107 1.336 . S
C105 N103 1.335 . S
C105 N104 1.345 . S
C105 H110 0.930 . S
C106 N103 1.390 . S
C106 C107 1.346 . S
C106 H111 0.930 . S
C107 N104 1.336 . S
C107 C106 1.346 . S
C107 H114 0.929 . S
C108 O98 1.282 . S
C108 O109 1.216 1_545 S
O109 C108 1.216 1_565 S
H110 C105 0.930 . S
H111 C106 0.930 . S
O112 Cu92 1.959 1_565 S
O112 C99 1.251 . S
H113 C96 0.930 . S
H114 C107 0.929 . S
Cu115 N116 1.999 . S
Cu115 O121 1.974 . S
Cu115 N126 1.985 . S
Cu115 O135 1.959 . S
N116 Cu115 1.999 . S
N116 C118 1.263 . S
N116 C120 1.389 . S
N117 C118 1.358 . S
N117 C119 1.400 . S
C118 N116 1.263 . S
C118 N117 1.358 . S
C118 H124 0.930 . S
C119 N117 1.400 . S
C119 C120 1.351 . S
C119 H136 0.930 . S
C120 N116 1.389 . S
C120 C119 1.351 . S
C120 H125 0.930 . S
O121 Cu115 1.974 . S
O121 C131 1.282 . S
C122 O123 1.261 . S
C122 O135 1.251 . S
O123 C122 1.261 . S
H124 C118 0.930 . S
H125 C120 0.930 . S
N126 Cu115 1.985 . S
N126 C128 1.335 . S
N126 C129 1.390 . S
N127 C128 1.345 . S
N127 C130 1.336 . S
C128 N126 1.335 . S
C128 N127 1.345 . S
C128 H133 0.930 . S
C129 N126 1.390 . S
C129 C130 1.346 . S
C129 H134 0.930 . S
C130 N127 1.336 . S
C130 C129 1.346 . S
C130 H137 0.929 . S
C131 O121 1.282 . S
C131 O132 1.216 . S
O132 C131 1.216 . S
H133 C128 0.930 . S
H134 C129 0.930 . S
O135 Cu115 1.959 . S
O135 C122 1.251 . S
H136 C119 0.930 . S
H137 C130 0.929 . S
Mg138 O145 2.141 . S
Mg138 O146 2.048 . S
Mg138 O147 2.048 . S
Mg138 O150 2.141 . S
C139 O140 1.313 . S
C139 O146 1.195 . S
O140 C139 1.313 . S
C141 O142 1.245 . S
C141 O150 1.289 . S
O142 C141 1.245 . S
C143 O144 1.245 . S
C143 O145 1.289 . S
O144 C143 1.245 . S
O145 Mg138 2.141 . S
O145 C143 1.289 . S
O146 Mg138 2.048 . S
O146 C139 1.195 . S
O147 Mg138 2.048 . S
O147 C148 1.195 . S
C148 O147 1.195 . S
C148 O149 1.313 . S
O149 C148 1.313 . S
O150 Mg138 2.141 . S
O150 C141 1.289 . S
Mg151 O158 2.141 . S
Mg151 O159 2.048 . S
Mg151 O160 2.048 . S
Mg151 O163 2.141 . S
C152 O153 1.313 . S
C152 O159 1.195 . S
O153 C152 1.313 . S
C154 O155 1.245 . S
C154 O163 1.289 . S
O155 C154 1.245 . S
C156 O157 1.245 . S
C156 O158 1.289 . S
O157 C156 1.245 . S
O158 Mg151 2.141 . S
O158 C156 1.289 . S
O159 Mg151 2.048 . S
O159 C152 1.195 . S
O160 Mg151 2.048 . S
O160 C161 1.195 . S
C161 O160 1.195 . S
C161 O162 1.313 . S
O162 C161 1.313 . S
O163 Mg151 2.141 . S
O163 C154 1.289 . S
Mg164 O171 2.141 . S
Mg164 O172 2.048 . S
Mg164 O173 2.048 . S
Mg164 O176 2.141 . S
C165 O166 1.313 . S
C165 O172 1.195 . S
O166 C165 1.313 . S
C167 O168 1.245 . S
C167 O176 1.289 . S
O168 C167 1.245 . S
C169 O170 1.245 . S
C169 O171 1.289 . S
O170 C169 1.245 . S
O171 Mg164 2.141 . S
O171 C169 1.289 . S
O172 Mg164 2.048 . S
O172 C165 1.195 . S
O173 Mg164 2.048 . S
O173 C174 1.195 . S
C174 O173 1.195 . S
C174 O175 1.313 . S
O175 C174 1.313 . S
O176 Mg164 2.141 . S
O176 C167 1.289 . S
Mg177 O184 2.141 . S
Mg177 O185 2.048 . S
Mg177 O186 2.048 . S
Mg177 O189 2.141 . S
C178 O179 1.313 . S
C178 O185 1.195 . S
O179 C178 1.313 . S
C180 O181 1.245 . S
C180 O189 1.289 . S
O181 C180 1.245 . S
C182 O183 1.245 . S
C182 O184 1.289 . S
O183 C182 1.245 . S
O184 Mg177 2.141 . S
O184 C182 1.289 . S
O185 Mg177 2.048 . S
O185 C178 1.195 . S
O186 Mg177 2.048 . S
O186 C187 1.195 . S
C187 O186 1.195 . S
C187 O188 1.313 . S
O188 C187 1.313 . S
O189 Mg177 2.141 . S
O189 C180 1.289 . S
Mg190 O197 2.141 . S
Mg190 O198 2.048 . S
Mg190 O199 2.048 . S
Mg190 O202 2.141 . S
C191 O192 1.313 . S
C191 O198 1.195 . S
O192 C191 1.313 . S
C193 O194 1.245 . S
C193 O202 1.289 . S
O194 C193 1.245 . S
C195 O196 1.245 . S
C195 O197 1.289 . S
O196 C195 1.245 . S
O197 Mg190 2.141 . S
O197 C195 1.289 . S
O198 Mg190 2.048 . S
O198 C191 1.195 . S
O199 Mg190 2.048 . S
O199 C200 1.195 . S
C200 O199 1.195 . S
C200 O201 1.313 . S
O201 C200 1.313 . S
O202 Mg190 2.141 . S
O202 C193 1.289 . S
Mg203 O210 2.141 . S
Mg203 O211 2.048 . S
Mg203 O212 2.048 . S
Mg203 O215 2.141 . S
C204 O205 1.313 . S
C204 O211 1.195 . S
O205 C204 1.313 . S
C206 O207 1.245 . S
C206 O215 1.289 . S
O207 C206 1.245 . S
C208 O209 1.245 . S
C208 O210 1.289 . S
O209 C208 1.245 . S
O210 Mg203 2.141 . S
O210 C208 1.289 . S
O211 Mg203 2.048 . S
O211 C204 1.195 . S
O212 Mg203 2.048 . S
O212 C213 1.195 . S
C213 O212 1.195 . S
C213 O214 1.313 . S
O214 C213 1.313 . S
O215 Mg203 2.141 . S
O215 C206 1.289 . S
H216 C224 0.950 . S
H217 C229 0.950 . S
H218 C226 0.950 . S
H219 C228 0.950 . S
H220 C230 0.950 . S
H221 C232 0.950 . S
H222 C234 0.950 . S
H223 C235 0.950 . S
C224 H216 0.950 . S
C224 C225 1.386 . S
C224 C226 1.391 . S
C225 C224 1.386 . S
C225 C229 1.393 . S
C226 H218 0.950 . S
C226 C224 1.391 . S
C226 C227 1.400 . S
C227 C226 1.400 . S
C227 C228 1.398 . S
C227 C233 1.491 . S
C228 H219 0.950 . S
C228 C227 1.398 . S
C228 C229 1.391 . S
C229 H217 0.950 . S
C229 C225 1.393 . S
C229 C228 1.391 . S
C230 H220 0.950 . S
C230 C231 1.386 . S
C230 C232 1.391 . S
C231 C230 1.386 . S
C231 C235 1.393 . S
C232 H221 0.950 . S
C232 C230 1.391 . S
C232 C233 1.400 . S
C233 C227 1.491 . S
C233 C232 1.400 . S
C233 C234 1.398 . S
C234 H222 0.950 . S
C234 C233 1.398 . S
C234 C235 1.391 . S
C235 H223 0.950 . S
C235 C231 1.393 . S
C235 C234 1.391 . S
H236 C244 0.950 . S
H237 C249 0.950 . S
H238 C246 0.950 . S
H239 C248 0.950 . S
H240 C250 0.950 . S
H241 C252 0.950 . S
H242 C254 0.950 . S
H243 C255 0.950 . S
C244 H236 0.950 . S
C244 C245 1.386 . S
C244 C246 1.391 . S
C245 C244 1.386 . S
C245 C249 1.393 . S
C246 H238 0.950 . S
C246 C244 1.391 . S
C246 C247 1.400 . S
C247 C246 1.400 . S
C247 C248 1.398 . S
C247 C253 1.491 . S
C248 H239 0.950 . S
C248 C247 1.398 . S
C248 C249 1.391 . S
C249 H237 0.950 . S
C249 C245 1.393 . S
C249 C248 1.391 . S
C250 H240 0.950 . S
C250 C251 1.386 . S
C250 C252 1.391 . S
C251 C250 1.386 . S
C251 C255 1.393 . S
C252 H241 0.950 . S
C252 C250 1.391 . S
C252 C253 1.400 . S
C253 C247 1.491 . S
C253 C252 1.400 . S
C253 C254 1.398 . S
C254 H242 0.950 . S
C254 C253 1.398 . S
C254 C255 1.391 . S
C255 H243 0.950 . S
C255 C251 1.393 . S
C255 C254 1.391 . S
H256 C264 0.950 . S
H257 C269 0.950 . S
H258 C266 0.950 . S
H259 C268 0.950 . S
H260 C270 0.950 . S
H261 C272 0.950 . S
H262 C274 0.950 . S
H263 C275 0.950 . S
C264 H256 0.950 . S
C264 C265 1.386 . S
C264 C266 1.391 . S
C265 C264 1.386 . S
C265 C269 1.393 . S
C266 H258 0.950 . S
C266 C264 1.391 . S
C266 C267 1.400 . S
C267 C266 1.400 . S
C267 C268 1.398 . S
C267 C273 1.491 . S
C268 H259 0.950 . S
C268 C267 1.398 . S
C268 C269 1.391 . S
C269 H257 0.950 . S
C269 C265 1.393 . S
C269 C268 1.391 . S
C270 H260 0.950 . S
C270 C271 1.386 . S
C270 C272 1.391 . S
C271 C270 1.386 . S
C271 C275 1.393 . S
C272 H261 0.950 . S
C272 C270 1.391 . S
C272 C273 1.400 . S
C273 C267 1.491 . S
C273 C272 1.400 . S
C273 C274 1.398 . S
C274 H262 0.950 . S
C274 C273 1.398 . S
C274 C275 1.391 . S
C275 H263 0.950 . S
C275 C271 1.393 . S
C275 C274 1.391 . S
H276 C284 0.950 . S
H277 C289 0.950 . S
H278 C286 0.950 . S
H279 C288 0.950 . S
H280 C290 0.950 . S
H281 C292 0.950 . S
H282 C294 0.950 . S
H283 C295 0.950 . S
C284 H276 0.950 . S
C284 C285 1.386 . S
C284 C286 1.391 . S
C285 C284 1.386 . S
C285 C289 1.393 . S
C286 H278 0.950 . S
C286 C284 1.391 . S
C286 C287 1.400 . S
C287 C286 1.400 . S
C287 C288 1.398 . S
C287 C293 1.491 . S
C288 H279 0.950 . S
C288 C287 1.398 . S
C288 C289 1.391 . S
C289 H277 0.950 . S
C289 C285 1.393 . S
C289 C288 1.391 . S
C290 H280 0.950 . S
C290 C291 1.386 . S
C290 C292 1.391 . S
C291 C290 1.386 . S
C291 C295 1.393 . S
C292 H281 0.950 . S
C292 C290 1.391 . S
C292 C293 1.400 . S
C293 C287 1.491 . S
C293 C292 1.400 . S
C293 C294 1.398 . S
C294 H282 0.950 . S
C294 C293 1.398 . S
C294 C295 1.391 . S
C295 H283 0.950 . S
C295 C291 1.393 . S
C295 C294 1.391 . S
H296 C304 0.950 . S
H297 C309 0.950 . S
H298 C306 0.950 . S
H299 C308 0.950 . S
H300 C310 0.950 . S
H301 C312 0.950 . S
H302 C314 0.950 . S
H303 C315 0.950 . S
C304 H296 0.950 . S
C304 C305 1.386 . S
C304 C306 1.391 . S
C305 C304 1.386 . S
C305 C309 1.393 . S
C306 H298 0.950 . S
C306 C304 1.391 . S
C306 C307 1.400 . S
C307 C306 1.400 . S
C307 C308 1.398 . S
C307 C313 1.491 . S
C308 H299 0.950 . S
C308 C307 1.398 . S
C308 C309 1.391 . S
C309 H297 0.950 . S
C309 C305 1.393 . S
C309 C308 1.391 . S
C310 H300 0.950 . S
C310 C311 1.386 . S
C310 C312 1.391 . S
C311 C310 1.386 . S
C311 C315 1.393 . S
C312 H301 0.950 . S
C312 C310 1.391 . S
C312 C313 1.400 . S
C313 C307 1.491 . S
C313 C312 1.400 . S
C313 C314 1.398 . S
C314 H302 0.950 . S
C314 C313 1.398 . S
C314 C315 1.391 . S
C315 H303 0.950 . S
C315 C311 1.393 . S
C315 C314 1.391 . S
H316 C324 0.950 . S
H317 C329 0.950 . S
H318 C326 0.950 . S
H319 C328 0.950 . S
H320 C330 0.950 . S
H321 C332 0.950 . S
H322 C334 0.950 . S
H323 C335 0.950 . S
C324 H316 0.950 . S
C324 C325 1.386 . S
C324 C326 1.391 . S
C325 C324 1.386 . S
C325 C329 1.393 . S
C326 H318 0.950 . S
C326 C324 1.391 . S
C326 C327 1.400 . S
C327 C326 1.400 . S
C327 C328 1.398 . S
C327 C333 1.491 . S
C328 H319 0.950 . S
C328 C327 1.398 . S
C328 C329 1.391 . S
C329 H317 0.950 . S
C329 C325 1.393 . S
C329 C328 1.391 . S
C330 H320 0.950 . S
C330 C331 1.386 . S
C330 C332 1.391 . S
C331 C330 1.386 . S
C331 C335 1.393 . S
C332 H321 0.950 . S
C332 C330 1.391 . S
C332 C333 1.400 . S
C333 C327 1.491 . S
C333 C332 1.400 . S
C333 C334 1.398 . S
C334 H322 0.950 . S
C334 C333 1.398 . S
C334 C335 1.391 . S
C335 H323 0.950 . S
C335 C331 1.393 . S
C335 C334 1.391 . S
H336 C344 0.950 . S
H337 C349 0.950 . S
H338 C346 0.950 . S
H339 C348 0.950 . S
H340 C350 0.950 . S
H341 C352 0.950 . S
H342 C354 0.950 . S
H343 C355 0.950 . S
C344 H336 0.950 . S
C344 C345 1.386 . S
C344 C346 1.391 . S
C345 C344 1.386 . S
C345 C349 1.393 . S
C346 H338 0.950 . S
C346 C344 1.391 . S
C346 C347 1.400 . S
C347 C346 1.400 . S
C347 C348 1.398 . S
C347 C353 1.491 . S
C348 H339 0.950 . S
C348 C347 1.398 . S
C348 C349 1.391 . S
C349 H337 0.950 . S
C349 C345 1.393 . S
C349 C348 1.391 . S
C350 H340 0.950 . S
C350 C351 1.386 . S
C350 C352 1.391 . S
C351 C350 1.386 . S
C351 C355 1.393 . S
C352 H341 0.950 . S
C352 C350 1.391 . S
C352 C353 1.400 . S
C353 C347 1.491 . S
C353 C352 1.400 . S
C353 C354 1.398 . S
C354 H342 0.950 . S
C354 C353 1.398 . S
C354 C355 1.391 . S
C355 H343 0.950 . S
C355 C351 1.393 . S
C355 C354 1.391 . S
H356 C364 0.950 . S
H357 C369 0.950 . S
H358 C366 0.950 . S
H359 C368 0.950 . S
H360 C370 0.950 . S
H361 C372 0.950 . S
H362 C374 0.950 . S
H363 C375 0.950 . S
C364 H356 0.950 . S
C364 C365 1.386 . S
C364 C366 1.391 . S
C365 C364 1.386 . S
C365 C369 1.393 . S
C366 H358 0.950 . S
C366 C364 1.391 . S
C366 C367 1.400 . S
C367 C366 1.400 . S
C367 C368 1.398 . S
C367 C373 1.491 . S
C368 H359 0.950 . S
C368 C367 1.398 . S
C368 C369 1.391 . S
C369 H357 0.950 . S
C369 C365 1.393 . S
C369 C368 1.391 . S
C370 H360 0.950 . S
C370 C371 1.386 . S
C370 C372 1.391 . S
C371 C370 1.386 . S
C371 C375 1.393 . S
C372 H361 0.950 . S
C372 C370 1.391 . S
C372 C373 1.400 . S
C373 C367 1.491 . S
C373 C372 1.400 . S
C373 C374 1.398 . S
C374 H362 0.950 . S
C374 C373 1.398 . S
C374 C375 1.391 . S
C375 H363 0.950 . S
C375 C371 1.393 . S
C375 C374 1.391 . S
H376 C384 0.950 . S
H377 C389 0.950 . S
H378 C386 0.950 . S
H379 C388 0.950 . S
H380 C390 0.950 . S
H381 C392 0.950 . S
H382 C394 0.950 . S
H383 C395 0.950 . S
C384 H376 0.950 . S
C384 C385 1.386 . S
C384 C386 1.391 . S
C385 C384 1.386 . S
C385 C389 1.393 . S
C386 H378 0.950 . S
C386 C384 1.391 . S
C386 C387 1.400 . S
C387 C386 1.400 . S
C387 C388 1.398 . S
C387 C393 1.491 . S
C388 H379 0.950 . S
C388 C387 1.398 . S
C388 C389 1.391 . S
C389 H377 0.950 . S
C389 C385 1.393 . S
C389 C388 1.391 . S
C390 H380 0.950 . S
C390 C391 1.386 . S
C390 C392 1.391 . S
C391 C390 1.386 . S
C391 C395 1.393 . S
C392 H381 0.950 . S
C392 C390 1.391 . S
C392 C393 1.400 . S
C393 C387 1.491 . S
C393 C392 1.400 . S
C393 C394 1.398 . S
C394 H382 0.950 . S
C394 C393 1.398 . S
C394 C395 1.391 . S
C395 H383 0.950 . S
C395 C391 1.393 . S
C395 C394 1.391 . S
H396 C404 0.950 . S
H397 C409 0.950 . S
H398 C406 0.950 . S
H399 C408 0.950 . S
H400 C410 0.950 . S
H401 C412 0.950 . S
H402 C414 0.950 . S
H403 C415 0.950 . S
C404 H396 0.950 . S
C404 C405 1.386 . S
C404 C406 1.391 . S
C405 C404 1.386 . S
C405 C409 1.393 . S
C406 H398 0.950 . S
C406 C404 1.391 . S
C406 C407 1.400 . S
C407 C406 1.400 . S
C407 C408 1.398 . S
C407 C413 1.491 . S
C408 H399 0.950 . S
C408 C407 1.398 . S
C408 C409 1.391 . S
C409 H397 0.950 . S
C409 C405 1.393 . S
C409 C408 1.391 . S
C410 H400 0.950 . S
C410 C411 1.386 . S
C410 C412 1.391 . S
C411 C410 1.386 . S
C411 C415 1.393 . S
C412 H401 0.950 . S
C412 C410 1.391 . S
C412 C413 1.400 . S
C413 C407 1.491 . S
C413 C412 1.400 . S
C413 C414 1.398 . S
C414 H402 0.950 . S
C414 C413 1.398 . S
C414 C415 1.391 . S
C415 H403 0.950 . S
C415 C411 1.393 . S
C415 C414 1.391 . S
H416 C424 0.950 . S
H417 C429 0.950 . S
H418 C426 0.950 . S
H419 C428 0.950 . S
H420 C430 0.950 . S
H421 C432 0.950 . S
H422 C434 0.950 . S
H423 C435 0.950 . S
C424 H416 0.950 . S
C424 C425 1.386 . S
C424 C426 1.391 . S
C425 C424 1.386 . S
C425 C429 1.393 . S
C426 H418 0.950 . S
C426 C424 1.391 . S
C426 C427 1.400 . S
C427 C426 1.400 . S
C427 C428 1.398 . S
C427 C433 1.491 . S
C428 H419 0.950 . S
C428 C427 1.398 . S
C428 C429 1.391 . S
C429 H417 0.950 . S
C429 C425 1.393 . S
C429 C428 1.391 . S
C430 H420 0.950 . S
C430 C431 1.386 . S
C430 C432 1.391 . S
C431 C430 1.386 . S
C431 C435 1.393 . S
C432 H421 0.950 . S
C432 C430 1.391 . S
C432 C433 1.400 . S
C433 C427 1.491 . S
C433 C432 1.400 . S
C433 C434 1.398 . S
C434 H422 0.950 . S
C434 C433 1.398 . S
C434 C435 1.391 . S
C435 H423 0.950 . S
C435 C431 1.393 . S
C435 C434 1.391 . S
H436 C444 0.950 . S
H437 C449 0.950 . S
H438 C446 0.950 . S
H439 C448 0.950 . S
H440 C450 0.950 . S
H441 C452 0.950 . S
H442 C454 0.950 . S
H443 C455 0.950 . S
C444 H436 0.950 . S
C444 C445 1.386 . S
C444 C446 1.391 . S
C445 C444 1.386 . S
C445 C449 1.393 . S
C446 H438 0.950 . S
C446 C444 1.391 . S
C446 C447 1.400 . S
C447 C446 1.400 . S
C447 C448 1.398 . S
C447 C453 1.491 . S
C448 H439 0.950 . S
C448 C447 1.398 . S
C448 C449 1.391 . S
C449 H437 0.950 . S
C449 C445 1.393 . S
C449 C448 1.391 . S
C450 H440 0.950 . S
C450 C451 1.386 . S
C450 C452 1.391 . S
C451 C450 1.386 . S
C451 C455 1.393 . S
C452 H441 0.950 . S
C452 C450 1.391 . S
C452 C453 1.400 . S
C453 C447 1.491 . S
C453 C452 1.400 . S
C453 C454 1.398 . S
C454 H442 0.950 . S
C454 C453 1.398 . S
C454 C455 1.391 . S
C455 H443 0.950 . S
C455 C451 1.393 . S
C455 C454 1.391 . S
H456 C464 0.950 . S
H457 C469 0.950 . S
H458 C466 0.950 . S
H459 C468 0.950 . S
H460 C470 0.950 . S
H461 C472 0.950 . S
H462 C474 0.950 . S
H463 C475 0.950 . S
C464 H456 0.950 . S
C464 C465 1.386 . S
C464 C466 1.391 . S
C465 C464 1.386 . S
C465 C469 1.393 . S
C466 H458 0.950 . S
C466 C464 1.391 . S
C466 C467 1.400 . S
C467 C466 1.400 . S
C467 C468 1.398 . S
C467 C473 1.491 . S
C468 H459 0.950 . S
C468 C467 1.398 . S
C468 C469 1.391 . S
C469 H457 0.950 . S
C469 C465 1.393 . S
C469 C468 1.391 . S
C470 H460 0.950 . S
C470 C471 1.386 . S
C470 C472 1.391 . S
C471 C470 1.386 . S
C471 C475 1.393 . S
C472 H461 0.950 . S
C472 C470 1.391 . S
C472 C473 1.400 . S
C473 C467 1.491 . S
C473 C472 1.400 . S
C473 C474 1.398 . S
C474 H462 0.950 . S
C474 C473 1.398 . S
C474 C475 1.391 . S
C475 H463 0.950 . S
C475 C471 1.393 . S
C475 C474 1.391 . S
H476 C484 0.950 . S
H477 C489 0.950 . S
H478 C486 0.950 . S
H479 C488 0.950 . S
H480 C490 0.950 . S
H481 C492 0.950 . S
H482 C494 0.950 . S
H483 C495 0.950 . S
C484 H476 0.950 . S
C484 C485 1.386 . S
C484 C486 1.391 . S
C485 C484 1.386 . S
C485 C489 1.393 . S
C486 H478 0.950 . S
C486 C484 1.391 . S
C486 C487 1.400 . S
C487 C486 1.400 . S
C487 C488 1.398 . S
C487 C493 1.491 . S
C488 H479 0.950 . S
C488 C487 1.398 . S
C488 C489 1.391 . S
C489 H477 0.950 . S
C489 C485 1.393 . S
C489 C488 1.391 . S
C490 H480 0.950 . S
C490 C491 1.386 . S
C490 C492 1.391 . S
C491 C490 1.386 . S
C491 C495 1.393 . S
C492 H481 0.950 . S
C492 C490 1.391 . S
C492 C493 1.400 . S
C493 C487 1.491 . S
C493 C492 1.400 . S
C493 C494 1.398 . S
C494 H482 0.950 . S
C494 C493 1.398 . S
C494 C495 1.391 . S
C495 H483 0.950 . S
C495 C491 1.393 . S
C495 C494 1.391 . S
H496 C504 0.950 . S
H497 C509 0.950 . S
H498 C506 0.950 . S
H499 C508 0.950 . S
H500 C510 0.950 . S
H501 C512 0.950 . S
H502 C514 0.950 . S
H503 C515 0.950 . S
C504 H496 0.950 . S
C504 C505 1.386 . S
C504 C506 1.391 . S
C505 C504 1.386 . S
C505 C509 1.393 . S
C506 H498 0.950 . S
C506 C504 1.391 . S
C506 C507 1.400 . S
C507 C506 1.400 . S
C507 C508 1.398 . S
C507 C513 1.491 . S
C508 H499 0.950 . S
C508 C507 1.398 . S
C508 C509 1.391 . S
C509 H497 0.950 . S
C509 C505 1.393 . S
C509 C508 1.391 . S
C510 H500 0.950 . S
C510 C511 1.386 . S
C510 C512 1.391 . S
C511 C510 1.386 . S
C511 C515 1.393 . S
C512 H501 0.950 . S
C512 C510 1.391 . S
C512 C513 1.400 . S
C513 C507 1.491 . S
C513 C512 1.400 . S
C513 C514 1.398 . S
C514 H502 0.950 . S
C514 C513 1.398 . S
C514 C515 1.391 . S
C515 H503 0.950 . S
C515 C511 1.393 . S
C515 C514 1.391 . S
H516 C524 0.950 . S
H517 C529 0.950 . S
H518 C526 0.950 . S
H519 C528 0.950 . S
H520 C530 0.950 . S
H521 C532 0.950 . S
H522 C534 0.950 . S
H523 C535 0.950 . S
C524 H516 0.950 . S
C524 C525 1.386 . S
C524 C526 1.391 . S
C525 C524 1.386 . S
C525 C529 1.393 . S
C526 H518 0.950 . S
C526 C524 1.391 . S
C526 C527 1.400 . S
C527 C526 1.400 . S
C527 C528 1.398 . S
C527 C533 1.491 . S
C528 H519 0.950 . S
C528 C527 1.398 . S
C528 C529 1.391 . S
C529 H517 0.950 . S
C529 C525 1.393 . S
C529 C528 1.391 . S
C530 H520 0.950 . S
C530 C531 1.386 . S
C530 C532 1.391 . S
C531 C530 1.386 . S
C531 C535 1.393 . S
C532 H521 0.950 . S
C532 C530 1.391 . S
C532 C533 1.400 . S
C533 C527 1.491 . S
C533 C532 1.400 . S
C533 C534 1.398 . S
C534 H522 0.950 . S
C534 C533 1.398 . S
C534 C535 1.391 . S
C535 H523 0.950 . S
C535 C531 1.393 . S
C535 C534 1.391 . S
H536 C544 0.950 . S
H537 C549 0.950 . S
H538 C546 0.950 . S
H539 C548 0.950 . S
H540 C550 0.950 . S
H541 C552 0.950 . S
H542 C554 0.950 . S
H543 C555 0.950 . S
C544 H536 0.950 . S
C544 C545 1.386 . S
C544 C546 1.391 . S
C545 C544 1.386 . S
C545 C549 1.393 . S
C546 H538 0.950 . S
C546 C544 1.391 . S
C546 C547 1.400 . S
C547 C546 1.400 . S
C547 C548 1.398 . S
C547 C553 1.491 . S
C548 H539 0.950 . S
C548 C547 1.398 . S
C548 C549 1.391 . S
C549 H537 0.950 . S
C549 C545 1.393 . S
C549 C548 1.391 . S
C550 H540 0.950 . S
C550 C551 1.386 . S
C550 C552 1.391 . S
C551 C550 1.386 . S
C551 C555 1.393 . S
C552 H541 0.950 . S
C552 C550 1.391 . S
C552 C553 1.400 . S
C553 C547 1.491 . S
C553 C552 1.400 . S
C553 C554 1.398 . S
C554 H542 0.950 . S
C554 C553 1.398 . S
C554 C555 1.391 . S
C555 H543 0.950 . S
C555 C551 1.393 . S
C555 C554 1.391 . S
H556 C564 0.950 . S
H557 C569 0.950 . S
H558 C566 0.950 . S
H559 C568 0.950 . S
H560 C570 0.950 . S
H561 C572 0.950 . S
H562 C574 0.950 . S
H563 C575 0.950 . S
C564 H556 0.950 . S
C564 C565 1.386 . S
C564 C566 1.391 . S
C565 C564 1.386 . S
C565 C569 1.393 . S
C566 H558 0.950 . S
C566 C564 1.391 . S
C566 C567 1.400 . S
C567 C566 1.400 . S
C567 C568 1.398 . S
C567 C573 1.491 . S
C568 H559 0.950 . S
C568 C567 1.398 . S
C568 C569 1.391 . S
C569 H557 0.950 . S
C569 C565 1.393 . S
C569 C568 1.391 . S
C570 H560 0.950 . S
C570 C571 1.386 . S
C570 C572 1.391 . S
C571 C570 1.386 . S
C571 C575 1.393 . S
C572 H561 0.950 . S
C572 C570 1.391 . S
C572 C573 1.400 . S
C573 C567 1.491 . S
C573 C572 1.400 . S
C573 C574 1.398 . S
C574 H562 0.950 . S
C574 C573 1.398 . S
C574 C575 1.391 . S
C575 H563 0.950 . S
C575 C571 1.393 . S
C575 C574 1.391 . S
H576 C584 0.950 . S
H577 C589 0.950 . S
H578 C586 0.950 . S
H579 C588 0.950 . S
H580 C590 0.950 . S
H581 C592 0.950 . S
H582 C594 0.950 . S
H583 C595 0.950 . S
C584 H576 0.950 . S
C584 C585 1.386 . S
C584 C586 1.391 . S
C585 C584 1.386 . S
C585 C589 1.393 . S
C586 H578 0.950 . S
C586 C584 1.391 . S
C586 C587 1.400 . S
C587 C586 1.400 . S
C587 C588 1.398 . S
C587 C593 1.491 . S
C588 H579 0.950 . S
C588 C587 1.398 . S
C588 C589 1.391 . S
C589 H577 0.950 . S
C589 C585 1.393 . S
C589 C588 1.391 . S
C590 H580 0.950 . S
C590 C591 1.386 . S
C590 C592 1.391 . S
C591 C590 1.386 . S
C591 C595 1.393 . S
C592 H581 0.950 . S
C592 C590 1.391 . S
C592 C593 1.400 . S
C593 C587 1.491 . S
C593 C592 1.400 . S
C593 C594 1.398 . S
C594 H582 0.950 . S
C594 C593 1.398 . S
C594 C595 1.391 . S
C595 H583 0.950 . S
C595 C591 1.393 . S
C595 C594 1.391 . S
H596 C604 0.950 . S
H597 C609 0.950 . S
H598 C606 0.950 . S
H599 C608 0.950 . S
H600 C610 0.950 . S
H601 C612 0.950 . S
H602 C614 0.950 . S
H603 C615 0.950 . S
C604 H596 0.950 . S
C604 C605 1.386 . S
C604 C606 1.391 . S
C605 C604 1.386 . S
C605 C609 1.393 . S
C606 H598 0.950 . S
C606 C604 1.391 . S
C606 C607 1.400 . S
C607 C606 1.400 . S
C607 C608 1.398 . S
C607 C613 1.491 . S
C608 H599 0.950 . S
C608 C607 1.398 . S
C608 C609 1.391 . S
C609 H597 0.950 . S
C609 C605 1.393 . S
C609 C608 1.391 . S
C610 H600 0.950 . S
C610 C611 1.386 . S
C610 C612 1.391 . S
C611 C610 1.386 . S
C611 C615 1.393 . S
C612 H601 0.950 . S
C612 C610 1.391 . S
C612 C613 1.400 . S
C613 C607 1.491 . S
C613 C612 1.400 . S
C613 C614 1.398 . S
C614 H602 0.950 . S
C614 C613 1.398 . S
C614 C615 1.391 . S
C615 H603 0.950 . S
C615 C611 1.393 . S
C615 C614 1.391 . S
H616 C624 0.950 . S
H617 C629 0.950 . S
H618 C626 0.950 . S
H619 C628 0.950 . S
H620 C630 0.950 . S
H621 C632 0.950 . S
H622 C634 0.950 . S
H623 C635 0.950 . S
C624 H616 0.950 . S
C624 C625 1.386 . S
C624 C626 1.391 . S
C625 C624 1.386 . S
C625 C629 1.393 . S
C626 H618 0.950 . S
C626 C624 1.391 . S
C626 C627 1.400 . S
C627 C626 1.400 . S
C627 C628 1.398 . S
C627 C633 1.491 . S
C628 H619 0.950 . S
C628 C627 1.398 . S
C628 C629 1.391 . S
C629 H617 0.950 . S
C629 C625 1.393 . S
C629 C628 1.391 . S
C630 H620 0.950 . S
C630 C631 1.386 . S
C630 C632 1.391 . S
C631 C630 1.386 . S
C631 C635 1.393 . S
C632 H621 0.950 . S
C632 C630 1.391 . S
C632 C633 1.400 . S
C633 C627 1.491 . S
C633 C632 1.400 . S
C633 C634 1.398 . S
C634 H622 0.950 . S
C634 C633 1.398 . S
C634 C635 1.391 . S
C635 H623 0.950 . S
C635 C631 1.393 . S
C635 C634 1.391 . S
H636 C644 0.950 . S
H637 C649 0.950 . S
H638 C646 0.950 . S
H639 C648 0.950 . S
H640 C650 0.950 . S
H641 C652 0.950 . S
H642 C654 0.950 . S
H643 C655 0.950 . S
C644 H636 0.950 . S
C644 C645 1.386 . S
C644 C646 1.391 . S
C645 C644 1.386 . S
C645 C649 1.393 . S
C646 H638 0.950 . S
C646 C644 1.391 . S
C646 C647 1.400 . S
C647 C646 1.400 . S
C647 C648 1.398 . S
C647 C653 1.491 . S
C648 H639 0.950 . S
C648 C647 1.398 . S
C648 C649 1.391 . S
C649 H637 0.950 . S
C649 C645 1.393 . S
C649 C648 1.391 . S
C650 H640 0.950 . S
C650 C651 1.386 . S
C650 C652 1.391 . S
C651 C650 1.386 . S
C651 C655 1.393 . S
C652 H641 0.950 . S
C652 C650 1.391 . S
C652 C653 1.400 . S
C653 C647 1.491 . S
C653 C652 1.400 . S
C653 C654 1.398 . S
C654 H642 0.950 . S
C654 C653 1.398 . S
C654 C655 1.391 . S
C655 H643 0.950 . S
C655 C651 1.393 . S
C655 C654 1.391 . S
H656 C664 0.950 . S
H657 C669 0.950 . S
H658 C666 0.950 . S
H659 C668 0.950 . S
H660 C670 0.950 . S
H661 C672 0.950 . S
H662 C674 0.950 . S
H663 C675 0.950 . S
C664 H656 0.950 . S
C664 C665 1.386 . S
C664 C666 1.391 . S
C665 C664 1.386 . S
C665 C669 1.393 . S
C666 H658 0.950 . S
C666 C664 1.391 . S
C666 C667 1.400 . S
C667 C666 1.400 . S
C667 C668 1.398 . S
C667 C673 1.491 . S
C668 H659 0.950 . S
C668 C667 1.398 . S
C668 C669 1.391 . S
C669 H657 0.950 . S
C669 C665 1.393 . S
C669 C668 1.391 . S
C670 H660 0.950 . S
C670 C671 1.386 . S
C670 C672 1.391 . S
C671 C670 1.386 . S
C671 C675 1.393 . S
C672 H661 0.950 . S
C672 C670 1.391 . S
C672 C673 1.400 . S
C673 C667 1.491 . S
C673 C672 1.400 . S
C673 C674 1.398 . S
C674 H662 0.950 . S
C674 C673 1.398 . S
C674 C675 1.391 . S
C675 H663 0.950 . S
C675 C671 1.393 . S
C675 C674 1.391 . S
H676 C684 0.950 . S
H677 C689 0.950 . S
H678 C686 0.950 . S
H679 C688 0.950 . S
H680 C690 0.950 . S
H681 C692 0.950 . S
H682 C694 0.950 . S
H683 C695 0.950 . S
C684 H676 0.950 . S
C684 C685 1.386 . S
C684 C686 1.391 . S
C685 C684 1.386 . S
C685 C689 1.393 . S
C686 H678 0.950 . S
C686 C684 1.391 . S
C686 C687 1.400 . S
C687 C686 1.400 . S
C687 C688 1.398 . S
C687 C693 1.491 . S
C688 H679 0.950 . S
C688 C687 1.398 . S
C688 C689 1.391 . S
C689 H677 0.950 . S
C689 C685 1.393 . S
C689 C688 1.391 . S
C690 H680 0.950 . S
C690 C691 1.386 . S
C690 C692 1.391 . S
C691 C690 1.386 . S
C691 C695 1.393 . S
C692 H681 0.950 . S
C692 C690 1.391 . S
C692 C693 1.400 . S
C693 C687 1.491 . S
C693 C692 1.400 . S
C693 C694 1.398 . S
C694 H682 0.950 . S
C694 C693 1.398 . S
C694 C695 1.391 . S
C695 H683 0.950 . S
C695 C691 1.393 . S
C695 C694 1.391 . S
C225 C7 1.849 . S
C231 C139 1.847 . S
C245 C30 1.638 . S
C251 C152 1.632 . S
C271 C174 1.629 . S
C265 N58 1.648 . S
C291 C187 1.435 . S
C285 N81 1.438 . S
C311 C200 1.721 . S
C305 C99 1.793 . S
C331 C213 1.414 . S
C325 N127 1.436 . S
C345 N25 1.655 . S
C351 C169 1.600 . S
C365 C62 1.616 . S
C371 C182 1.556 . S
C391 C195 1.698 . S
C385 C85 1.767 . S
C411 C208 1.413 . S
C405 N94 1.448 . S
C425 C131 1.804 . S
C431 C141 1.808 . S
C451 C154 1.498 . S
C445 N2 1.451 . S
C471 C180 1.715 . S
C465 C16 1.777 1_655 S
C485 C39 1.597 . S
C491 C193 1.536 . S
C511 C206 1.617 . S
C505 N48 1.644 . S
C525 N71 1.468 . S
C531 C143 1.498 . S
C545 C108 1.786 . S
C551 C156 1.793 . S
C565 N117 1.421 . S
C571 C167 1.395 . S
C585 N35 1.630 . S
C591 C204 1.617 . S
C611 C148 1.618 . S
C605 C53 1.623 . S
C625 C76 1.813 . S
C631 C161 1.812 . S
C645 N104 1.431 . S
C651 C165 1.404 . S
C665 C122 1.778 . S
C671 C178 1.728 . S
C685 N12 1.440 . S
C691 C191 1.434 . S
