# Generated by pormake.
# Topology anh, (6,3)-cn, num edge types: 1
# Building blocks:
#     Node 0, Type 0, BuildingBlock: CUKXOW_clean_sbu_0, # of connection points: 6
#     Node 1, Type 0, BuildingBlock: CUKXOW_clean_sbu_0, # of connection points: 6
#     Node 2, Type 0, BuildingBlock: CUKXOW_clean_sbu_0, # of connection points: 6
#     Node 3, Type 1, BuildingBlock: OLANEW_clean_sbu_2, # of connection points: 3
#     Node 4, Type 1, BuildingBlock: OLANEW_clean_sbu_2, # of connection points: 3
#     Node 5, Type 1, BuildingBlock: OLANEW_clean_sbu_2, # of connection points: 3
#     Node 6, Type 1, BuildingBlock: OLANEW_clean_sbu_2, # of connection points: 3
#     Node 7, Type 1, BuildingBlock: OLANEW_clean_sbu_2, # of connection points: 3
#     Node 8, Type 1, BuildingBlock: OLANEW_clean_sbu_2, # of connection points: 3
#     Edge 9, Type (0, 1), BuildingBlock: FUNLAD_clean_linker_1, # of connection points: 2
#     Edge 10, Type (0, 1), BuildingBlock: FUNLAD_clean_linker_1, # of connection points: 2
#     Edge 11, Type (0, 1), BuildingBlock: FUNLAD_clean_linker_1, # of connection points: 2
#     Edge 12, Type (0, 1), BuildingBlock: FUNLAD_clean_linker_1, # of connection points: 2
#     Edge 13, Type (0, 1), BuildingBlock: FUNLAD_clean_linker_1, # of connection points: 2
#     Edge 14, Type (0, 1), BuildingBlock: FUNLAD_clean_linker_1, # of connection points: 2
#     Edge 15, Type (0, 1), BuildingBlock: FUNLAD_clean_linker_1, # of connection points: 2
#     Edge 16, Type (0, 1), BuildingBlock: FUNLAD_clean_linker_1, # of connection points: 2
#     Edge 17, Type (0, 1), BuildingBlock: FUNLAD_clean_linker_1, # of connection points: 2
#     Edge 18, Type (0, 1), BuildingBlock: FUNLAD_clean_linker_1, # of connection points: 2
#     Edge 19, Type (0, 1), BuildingBlock: FUNLAD_clean_linker_1, # of connection points: 2
#     Edge 20, Type (0, 1), BuildingBlock: FUNLAD_clean_linker_1, # of connection points: 2
#     Edge 21, Type (0, 1), BuildingBlock: FUNLAD_clean_linker_1, # of connection points: 2
#     Edge 22, Type (0, 1), BuildingBlock: FUNLAD_clean_linker_1, # of connection points: 2
#     Edge 23, Type (0, 1), BuildingBlock: FUNLAD_clean_linker_1, # of connection points: 2
#     Edge 24, Type (0, 1), BuildingBlock: FUNLAD_clean_linker_1, # of connection points: 2
#     Edge 25, Type (0, 1), BuildingBlock: FUNLAD_clean_linker_1, # of connection points: 2
#     Edge 26, Type (0, 1), BuildingBlock: FUNLAD_clean_linker_1, # of connection points: 2
# Relax obj value: 0.079
# Max RMSD: 0.150
# Mean RMSD: 0.110
data_MOF--net-anh--node1-CUKXOW_clean_sbu_0--node2-OLANEW_clean_sbu_2--edge1-FUNLAD_clean_linker_1
_symmetry_space_group_name_H-M    P1
_symmetry_Int_Tables_number       1
_symmetry_cell_setting            triclinic
loop_
_symmetry_equiv_pos_as_xyz
'x, y, z'
_cell_length_a     34.119155
_cell_length_b     32.946487
_cell_length_c     52.01724
_cell_angle_alpha  95.292286
_cell_angle_beta   90.011375
_cell_angle_gamma 116.44482
loop_
_atom_site_label
_atom_site_type_symbol
_atom_site_fract_x
_atom_site_fract_y
_atom_site_fract_z
_atom_type_partial_charge
Tb0 Tb 0.07997 0.55695 0.16709 0.0
C1 C 0.04021 0.52069 0.21886 0.0
Tb2 Tb 0.00892 0.4572 0.16525 0.0
O3 O 0.03144 0.58101 0.17837 0.0
O4 O 0.01287 0.51952 0.15513 0.0
O5 O 0.07511 0.55087 0.20826 0.0
C6 C 0.93306 0.3833 0.16873 0.0
O7 O 0.00871 0.48459 0.20534 0.0
C8 C 0.09016 0.46941 0.16542 0.0
C9 C 0.0492 0.49383 0.11343 0.0
O10 O 0.97136 0.38728 0.1754 0.0
O11 O 0.93754 0.42051 0.15984 0.0
O12 O 0.0575 0.43234 0.15496 0.0
O13 O 0.0757 0.49471 0.17709 0.0
O14 O 0.01487 0.46265 0.12404 0.0
O15 O 0.08022 0.53032 0.12691 0.0
C16 C 0.15335 0.63388 0.16455 0.0
O17 O 0.11419 0.62784 0.15835 0.0
O18 O 0.15137 0.59663 0.17221 0.0
C19 C 0.99879 0.54485 0.16728 0.0
Tb20 Tb 0.46738 1.00016 0.50173 0.0
C21 C 0.51909 0.04772 0.45419 0.0
Tb22 Tb 0.56851 0.07331 0.5097 0.0
O23 O 0.4399 0.04982 0.50854 0.0
O24 O 0.50593 0.06945 0.5105 0.0
O25 O 0.48549 0.01129 0.46187 0.0
C26 C 0.64427 0.14831 0.5114 0.0
O27 O 0.55169 0.07821 0.46995 0.0
C28 C 0.55119 0.98706 0.5065 0.0
C29 C 0.51449 0.03276 0.55807 0.0
O30 O 0.63408 0.1116 0.49583 0.0
O31 O 0.61202 0.14277 0.52625 0.0
O32 O 0.58692 0.01956 0.51769 0.0
O33 O 0.53033 0.00433 0.4955 0.0
O34 O 0.54964 0.06659 0.54964 0.0
O35 O 0.48139 0.00179 0.54285 0.0
C36 C 0.39749 0.91921 0.49667 0.0
O37 O 0.43339 0.92912 0.5099 0.0
O38 O 0.40086 0.9548 0.48604 0.0
C39 C 0.47832 0.08476 0.51214 0.0
Tb40 Tb 0.49967 0.52166 0.83267 0.0
C41 C 0.54538 0.52682 0.88702 0.0
Tb42 Tb 0.59914 0.54609 0.83604 0.0
O43 O 0.48476 0.45653 0.80995 0.0
O44 O 0.53863 0.48727 0.83613 0.0
O45 O 0.51057 0.52474 0.87433 0.0
C46 C 0.67469 0.54144 0.83889 0.0
O47 O 0.58227 0.53221 0.87586 0.0
C48 C 0.58046 0.61451 0.83344 0.0
C49 C 0.55249 0.5383 0.78239 0.0
O50 O 0.66505 0.56965 0.85349 0.0
O51 O 0.64203 0.51621 0.82275 0.0
O52 O 0.61738 0.61566 0.82626 0.0
O53 O 0.55928 0.57892 0.84407 0.0
O54 O 0.58376 0.53299 0.79457 0.0
O55 O 0.51978 0.5422 0.79435 0.0
C56 C 0.42173 0.52093 0.83663 0.0
O57 O 0.4561 0.55341 0.82803 0.0
O58 O 0.43127 0.48911 0.84305 0.0
C59 C 0.51962 0.45502 0.81875 0.0
O60 O 0.51261 0.07503 0.23981 0.0
Cd61 Cd 0.52892 0.07217 0.19405 0.0
O62 O 0.54129 0.02907 0.24759 0.0
Cd63 Cd 0.53529 0.00194 0.20714 0.0
O64 O 0.4884 0.93911 0.18505 0.0
C65 C 0.4487 0.92737 0.19035 0.0
O66 O 0.43951 0.95459 0.2066 0.0
C67 C 0.5252 0.05579 0.25575 0.0
C68 C 0.60776 0.14651 0.18487 0.0
O69 O 0.57122 0.14841 0.18284 0.0
O70 O 0.6072 0.1095 0.19108 0.0
O71 O 0.54666 0.52391 0.57345 0.0
Cd72 Cd 0.55839 0.51269 0.52754 0.0
O73 O 0.49528 0.54688 0.56991 0.0
Cd74 Cd 0.51011 0.56942 0.53133 0.0
O75 O 0.52628 0.63235 0.51337 0.0
C76 C 0.50882 0.65676 0.52326 0.0
O77 O 0.48173 0.64182 0.54197 0.0
C78 C 0.51769 0.53392 0.58351 0.0
C79 C 0.56343 0.43003 0.51894 0.0
O80 O 0.5981 0.46772 0.52385 0.0
O81 O 0.52654 0.43135 0.51735 0.0
O82 O 0.03395 0.49408 0.90716 0.0
Cd83 Cd 0.04163 0.51462 0.86285 0.0
O84 O 0.01462 0.42128 0.8962 0.0
Cd85 Cd 1.00109 0.42924 0.85656 0.0
O86 O 0.95459 0.44428 0.83562 0.0
C87 C 0.92989 0.45387 0.85064 0.0
O88 O 0.93532 0.45424 0.8757 0.0
C89 C 0.02519 0.45465 0.91352 0.0
C90 C 0.12781 0.5384 0.85015 0.0
O91 O 0.11663 0.56874 0.85971 0.0
O92 O 0.0981 0.49711 0.84589 0.0
O93 O 0.00232 0.5424 0.42546 0.0
Cd94 Cd 0.01462 0.55878 0.47224 0.0
O95 O 0.94773 0.5607 0.4239 0.0
Cd96 Cd 0.93791 0.55551 0.46512 0.0
O97 O 0.89885 0.50915 0.49273 0.0
C98 C 0.88162 0.46758 0.48351 0.0
O99 O 0.88996 0.4572 0.4598 0.0
C100 C 0.97504 0.54978 0.41243 0.0
C101 C 0.08898 0.64211 0.48162 0.0
O102 O 0.09215 0.60464 0.47869 0.0
O103 O 0.05068 0.64021 0.48094 0.0
O104 O 0.50379 0.97795 0.75906 0.0
Cd105 Cd 0.48948 0.95301 0.80219 0.0
O106 O 0.5611 0.03994 0.77486 0.0
Cd107 Cd 0.61233 0.10853 0.77129 0.0
O108 O 0.63218 0.18151 0.77676 0.0
C109 C 0.60026 0.19042 0.78171 0.0
O110 O 0.56084 0.15647 0.78236 0.0
C111 C 0.53601 0.01577 0.75565 0.0
C112 C 0.5235 0.89234 0.80969 0.0
O113 O 0.48462 0.87819 0.79987 0.0
O114 O 0.54624 0.93511 0.81616 0.0
O115 O 0.58055 0.48267 0.09733 0.0
Cd116 Cd 0.58761 0.46818 0.142 0.0
O117 O 0.51678 0.48372 0.08972 0.0
Cd118 Cd 0.4803 0.4708 0.12522 0.0
O119 O 0.41632 0.45809 0.14102 0.0
C120 C 0.39975 0.48453 0.13621 0.0
O121 O 0.42223 0.51948 0.12323 0.0
C122 C 0.55358 0.48701 0.08227 0.0
C123 C 0.66723 0.46336 0.14809 0.0
O124 O 0.63156 0.42746 0.14155 0.0
O125 O 0.66533 0.50137 0.15239 0.0
H126 H 0.16098 0.51352 0.17308 0.0
C127 C 0.13702 0.48073 0.16391 0.0
H128 H 0.12676 0.41983 0.14157 0.0
H129 H 0.31056 0.49546 0.09178 0.0
H130 H 0.2631 0.48815 0.05521 0.0
H131 H 0.18578 0.47105 0.06094 0.0
H132 H 0.155 0.45987 0.10318 0.0
C133 C 0.15058 0.452 0.15149 0.0
C134 C 0.19809 0.46475 0.14865 0.0
C135 C 0.21568 0.47134 0.12383 0.0
C136 C 0.26069 0.48258 0.12067 0.0
C137 C 0.27694 0.48793 0.09549 0.0
C138 C 0.25 0.48364 0.07426 0.0
C139 C 0.2064 0.47381 0.07746 0.0
C140 C 0.18919 0.46749 0.10186 0.0
H141 H 0.33514 0.44199 0.15146 0.0
C142 C 0.35436 0.4738 0.14326 0.0
H143 H 0.35474 0.53247 0.12988 0.0
H144 H 0.17443 0.45077 0.1986 0.0
H145 H 0.22286 0.46324 0.23571 0.0
H146 H 0.30208 0.48919 0.23082 0.0
H147 H 0.33317 0.50184 0.18872 0.0
C148 C 0.3359 0.50124 0.13871 0.0
C149 C 0.28844 0.48804 0.14241 0.0
C150 C 0.27106 0.48254 0.16736 0.0
C151 C 0.22566 0.4698 0.17038 0.0
C152 C 0.20885 0.46215 0.19531 0.0
C153 C 0.23626 0.46895 0.21678 0.0
C154 C 0.28083 0.48339 0.21401 0.0
C155 C 0.29821 0.4902 0.18967 0.0
H156 H 0.70617 0.19217 0.4947 0.0
C157 C 0.68421 0.19105 0.51005 0.0
H158 H 0.66992 0.22816 0.5407 0.0
H159 H 0.87651 0.3518 0.50421 0.0
H160 H 0.893 0.29415 0.5206 0.0
H161 H 0.83507 0.22737 0.53825 0.0
H162 H 0.76021 0.2176 0.53935 0.0
C163 C 0.6925 0.22887 0.52582 0.0
C164 C 0.72918 0.27337 0.52084 0.0
C165 C 0.77299 0.27932 0.52114 0.0
C166 C 0.80651 0.31827 0.51149 0.0
C167 C 0.84978 0.32278 0.51133 0.0
C168 C 0.85972 0.29007 0.52077 0.0
C169 C 0.82709 0.25244 0.53067 0.0
C170 C 0.78421 0.24703 0.53099 0.0
H171 H 0.84285 0.44166 0.51768 0.0
C172 C 0.85041 0.43189 0.49849 0.0
H173 H 0.83794 0.37794 0.46937 0.0
H174 H 0.64986 0.27601 0.52151 0.0
H175 H 0.63475 0.33612 0.50798 0.0
H176 H 0.6925 0.40315 0.49066 0.0
H177 H 0.76643 0.41122 0.48751 0.0
C178 C 0.82987 0.38819 0.4883 0.0
C179 C 0.79641 0.35175 0.5022 0.0
C180 C 0.75334 0.3477 0.5039 0.0
C181 C 0.71972 0.30857 0.51345 0.0
C182 C 0.67678 0.30494 0.5145 0.0
C183 C 0.66748 0.3391 0.50664 0.0
C184 C 0.70011 0.37696 0.497 0.0
C185 C 0.7425 0.38125 0.49541 0.0
H186 H 0.53239 0.64206 0.83532 0.0
C187 C 0.56559 0.64926 0.83024 0.0
H188 H 0.6249 0.69635 0.81623 0.0
H189 H 0.54049 0.80193 0.75968 0.0
H190 H 0.56791 0.77089 0.72386 0.0
H191 H 0.59887 0.71765 0.73071 0.0
H192 H 0.60218 0.69468 0.77325 0.0
C193 C 0.59196 0.68936 0.82178 0.0
C194 C 0.57588 0.72374 0.81813 0.0
C195 C 0.57355 0.73616 0.793 0.0
C196 C 0.55543 0.7666 0.78902 0.0
C197 C 0.55372 0.77871 0.76376 0.0
C198 C 0.56939 0.7612 0.74303 0.0
C199 C 0.5868 0.73121 0.74688 0.0
C200 C 0.58862 0.71842 0.77146 0.0
H201 H 0.57396 0.87398 0.82366 0.0
C202 C 0.5419 0.86051 0.81378 0.0
H203 H 0.48902 0.80204 0.79505 0.0
H204 H 0.58312 0.71394 0.86951 0.0
H205 H 0.55504 0.74427 0.9052 0.0
H206 H 0.51805 0.79193 0.89774 0.0
H207 H 0.50981 0.8103 0.85463 0.0
C208 C 0.52034 0.81585 0.8058 0.0
C209 C 0.53964 0.78444 0.81016 0.0
C210 C 0.54249 0.77253 0.83536 0.0
C211 C 0.56172 0.74311 0.83946 0.0
C212 C 0.56675 0.73417 0.86506 0.0
C213 C 0.55115 0.75173 0.88579 0.0
C214 C 0.5305 0.77871 0.88161 0.0
C215 C 0.52617 0.78916 0.85675 0.0
H216 H 0.94449 0.5583 0.18159 0.0
C217 C 0.95265 0.53654 0.16791 0.0
H218 H 0.92952 0.48481 0.13669 0.0
H219 H 0.74658 0.45697 0.19509 0.0
H220 H 0.77187 0.42458 0.22755 0.0
H221 H 0.84459 0.42577 0.22549 0.0
H222 H 0.89259 0.45952 0.19098 0.0
C223 C 0.92126 0.50474 0.15156 0.0
C224 C 0.87559 0.49959 0.1515 0.0
C225 C 0.84762 0.47914 0.17157 0.0
C226 C 0.80523 0.47757 0.17242 0.0
C227 C 0.77861 0.45816 0.19313 0.0
C228 C 0.79281 0.4396 0.21196 0.0
C229 C 0.83378 0.44031 0.21083 0.0
C230 C 0.86107 0.45995 0.19097 0.0
H231 H 0.70888 0.42751 0.14568 0.0
C232 C 0.70934 0.4607 0.14965 0.0
H233 H 0.74884 0.53152 0.15744 0.0
H234 H 0.91942 0.53717 0.10911 0.0
H235 H 0.89275 0.56574 0.07525 0.0
H236 H 0.81918 0.56263 0.07649 0.0
H237 H 0.77178 0.53084 0.11155 0.0
C238 C 0.74791 0.498 0.15456 0.0
C239 C 0.79068 0.49592 0.15296 0.0
C240 C 0.818 0.51453 0.13229 0.0
C241 C 0.86036 0.51613 0.13149 0.0
C242 C 0.88693 0.53502 0.11065 0.0
C243 C 0.87204 0.55154 0.09107 0.0
C244 C 0.83063 0.54981 0.09178 0.0
C245 C 0.8038 0.53159 0.11208 0.0
H246 H 0.3601 0.84841 0.50571 0.0
C247 C 0.35841 0.87493 0.49547 0.0
H248 H 0.31898 0.89295 0.47227 0.0
H249 H 0.18865 0.68627 0.43549 0.0
H250 H 0.22835 0.7093 0.39656 0.0
H251 H 0.29285 0.78415 0.39674 0.0
H252 H 0.31792 0.83655 0.43586 0.0
C253 C 0.32085 0.86713 0.48309 0.0
C254 C 0.28141 0.8224 0.48303 0.0
C255 C 0.26724 0.79217 0.46004 0.0
C256 C 0.23035 0.74881 0.46003 0.0
C257 C 0.21674 0.71942 0.43671 0.0
C258 C 0.23919 0.73224 0.41419 0.0
C259 C 0.27548 0.77439 0.41428 0.0
C260 C 0.2895 0.80415 0.43687 0.0
H261 H 0.12346 0.71722 0.48781 0.0
C262 C 0.12818 0.68662 0.48477 0.0
H263 H 0.17393 0.66021 0.47844 0.0
H264 H 0.29722 0.87403 0.52976 0.0
H265 H 0.25893 0.85026 0.56904 0.0
H266 H 0.19774 0.77334 0.56969 0.0
H267 H 0.17406 0.72002 0.53097 0.0
C268 C 0.1689 0.69043 0.48267 0.0
C269 C 0.20765 0.73579 0.48302 0.0
C270 C 0.22194 0.76598 0.50607 0.0
C271 C 0.25836 0.80966 0.50595 0.0
C272 C 0.27074 0.83989 0.52895 0.0
C273 C 0.24888 0.82677 0.55161 0.0
C274 C 0.21434 0.78352 0.55196 0.0
C275 C 0.20092 0.75333 0.52953 0.0
H276 H 0.51227 0.392 0.79625 0.0
C277 C 0.53228 0.41862 0.81121 0.0
H278 H 0.58541 0.44236 0.83846 0.0
H279 H 0.57601 0.24728 0.84314 0.0
H280 H 0.56832 0.2697 0.88792 0.0
H281 H 0.56436 0.34184 0.90033 0.0
H282 H 0.56815 0.39196 0.86817 0.0
C283 C 0.56674 0.41697 0.82267 0.0
C284 C 0.57697 0.37795 0.81603 0.0
C285 C 0.57506 0.34937 0.83525 0.0
C286 C 0.57682 0.30756 0.82808 0.0
C287 C 0.57427 0.27918 0.84752 0.0
C288 C 0.57001 0.2917 0.87329 0.0
C289 C 0.56785 0.33234 0.88028 0.0
C290 C 0.57011 0.36086 0.86157 0.0
H291 H 0.64039 0.2654 0.78694 0.0
C292 C 0.60745 0.23795 0.78752 0.0
H293 H 0.54147 0.22015 0.79559 0.0
H294 H 0.59456 0.43126 0.77608 0.0
H295 H 0.60417 0.40983 0.73145 0.0
H296 H 0.60215 0.33494 0.71841 0.0
H297 H 0.59135 0.28148 0.74996 0.0
C298 C 0.57416 0.2475 0.79404 0.0
C299 C 0.5806 0.2946 0.80181 0.0
C300 C 0.58621 0.32493 0.78295 0.0
C301 C 0.58542 0.36721 0.79022 0.0
C302 C 0.59285 0.39783 0.77131 0.0
C303 C 0.59883 0.38613 0.7457 0.0
C304 C 0.59781 0.34402 0.73838 0.0
C305 C 0.59163 0.31365 0.7567 0.0
H306 H 0.50333 0.9143 0.50163 0.0
C307 C 0.53734 0.93789 0.50667 0.0
H308 H 0.59996 0.94603 0.5176 0.0
H309 H 0.54598 0.76617 0.56981 0.0
H310 H 0.58536 0.82478 0.6047 0.0
H311 H 0.60919 0.9059 0.59941 0.0
H312 H 0.59352 0.92889 0.5594 0.0
C313 C 0.56595 0.92207 0.5127 0.0
C314 C 0.552 0.8728 0.51534 0.0
C315 C 0.56039 0.85986 0.53925 0.0
C316 C 0.546 0.81301 0.54247 0.0
C317 C 0.55556 0.80117 0.56639 0.0
C318 C 0.57829 0.83448 0.58659 0.0
C319 C 0.59179 0.88014 0.58359 0.0
C320 C 0.58269 0.89286 0.56038 0.0
H321 H 0.54673 0.71559 0.5013 0.0
C322 C 0.52174 0.70288 0.51543 0.0
H323 H 0.48131 0.71807 0.54128 0.0
H324 H 0.5388 0.88567 0.46526 0.0
H325 H 0.49866 0.82691 0.43059 0.0
H326 H 0.46748 0.74557 0.43756 0.0
H327 H 0.47726 0.72256 0.47909 0.0
C328 C 0.50513 0.73007 0.52647 0.0
C329 C 0.52266 0.779 0.52197 0.0
C330 C 0.51496 0.79185 0.49791 0.0
C331 C 0.53076 0.83883 0.49435 0.0
C332 C 0.52534 0.85064 0.46955 0.0
C333 C 0.50275 0.8172 0.44936 0.0
C334 C 0.48537 0.77141 0.45325 0.0
C335 C 0.49136 0.75868 0.47718 0.0
H336 H 0.73902 0.55732 0.85693 0.0
C337 C 0.71507 0.53639 0.84153 0.0
H338 H 0.6968 0.48294 0.81141 0.0
H339 H 0.91023 0.55166 0.83998 0.0
H340 H 0.92239 0.62161 0.82223 0.0
H341 H 0.8601 0.63391 0.80754 0.0
H342 H 0.78523 0.57652 0.81091 0.0
C343 C 0.72148 0.50496 0.82624 0.0
C344 C 0.75914 0.49525 0.83137 0.0
C345 C 0.80268 0.52839 0.82832 0.0
C346 C 0.83858 0.52057 0.8359 0.0
C347 C 0.88172 0.5552 0.83387 0.0
C348 C 0.88919 0.59563 0.82378 0.0
C349 C 0.85412 0.60261 0.81558 0.0
C350 C 0.8113 0.56951 0.81777 0.0
H351 H 0.8914 0.46307 0.81938 0.0
C352 C 0.89507 0.46345 0.84017 0.0
H353 H 0.87011 0.47072 0.87656 0.0
H354 H 0.6795 0.42315 0.83785 0.0
H355 H 0.66744 0.35173 0.85359 0.0
H356 H 0.72967 0.33727 0.86553 0.0
H357 H 0.80458 0.39445 0.862 0.0
C358 C 0.86765 0.47187 0.85583 0.0
C359 C 0.83073 0.47899 0.84571 0.0
C360 C 0.78717 0.44495 0.8475 0.0
C361 C 0.7513 0.45305 0.8403 0.0
C362 C 0.70808 0.41875 0.84279 0.0
C363 C 0.70061 0.37752 0.85181 0.0
C364 C 0.73567 0.36942 0.85859 0.0
C365 C 0.7785 0.4026 0.85652 0.0
H366 H 0.18927 0.70678 0.15934 0.0
C367 C 0.19303 0.67744 0.16451 0.0
H368 H 0.23642 0.65339 0.17786 0.0
H369 H 0.36162 0.85863 0.13766 0.0
H370 H 0.33285 0.8225 0.09453 0.0
H371 H 0.27677 0.74235 0.08772 0.0
H372 H 0.2486 0.69807 0.12409 0.0
C373 C 0.23273 0.68227 0.17182 0.0
C374 C 0.27111 0.72817 0.17525 0.0
C375 C 0.28851 0.753 0.15371 0.0
C376 C 0.32212 0.79868 0.15756 0.0
C377 C 0.33716 0.82342 0.13582 0.0
C378 C 0.32077 0.80315 0.11094 0.0
C379 C 0.2891 0.75806 0.10711 0.0
C380 C 0.27302 0.73312 0.12817 0.0
H381 H 0.42383 0.85806 0.16977 0.0
C382 C 0.41433 0.88154 0.18095 0.0
H383 H 0.36331 0.89023 0.19962 0.0
H384 H 0.24679 0.68925 0.22064 0.0
H385 H 0.27818 0.72395 0.26353 0.0
H386 H 0.3384 0.80202 0.27006 0.0
H387 H 0.36735 0.84596 0.23374 0.0
C388 C 0.37255 0.86735 0.18764 0.0
C389 C 0.33933 0.81881 0.18288 0.0
C390 C 0.32332 0.79319 0.20429 0.0
C391 C 0.28913 0.7479 0.20048 0.0
C392 C 0.27309 0.72358 0.22232 0.0
C393 C 0.29078 0.7431 0.24709 0.0
C394 C 0.32463 0.78707 0.25077 0.0
C395 C 0.34084 0.81197 0.22972 0.0
H396 H 0.45837 0.13963 0.51847 0.0
C397 C 0.48648 0.13276 0.5155 0.0
H398 H 0.55387 0.16073 0.50899 0.0
H399 H 0.55848 0.33839 0.46857 0.0
H400 H 0.5812 0.30526 0.43145 0.0
H401 H 0.58203 0.23088 0.43208 0.0
H402 H 0.55947 0.18879 0.46955 0.0
C403 C 0.5263 0.16755 0.51365 0.0
C404 C 0.53227 0.21541 0.51482 0.0
C405 C 0.54603 0.23979 0.49278 0.0
C406 C 0.5461 0.28302 0.49254 0.0
C407 C 0.55846 0.30583 0.46995 0.0
C408 C 0.57146 0.28714 0.44847 0.0
C409 C 0.57184 0.24522 0.4488 0.0
C410 C 0.55893 0.22147 0.47052 0.0
H411 H 0.59854 0.38745 0.51714 0.0
C412 C 0.56628 0.38638 0.51619 0.0
H413 H 0.49796 0.34448 0.51431 0.0
H414 H 0.5141 0.18271 0.56214 0.0
H415 H 0.49545 0.21781 0.60014 0.0
H416 H 0.49361 0.29171 0.59938 0.0
H417 H 0.51087 0.33117 0.5607 0.0
C418 C 0.5304 0.34592 0.51405 0.0
C419 C 0.53341 0.30225 0.51457 0.0
C420 C 0.52226 0.27912 0.53713 0.0
C421 C 0.52229 0.23599 0.53739 0.0
C422 C 0.51291 0.21466 0.56057 0.0
C423 C 0.50256 0.23465 0.58261 0.0
C424 C 0.50161 0.27629 0.58219 0.0
C425 C 0.51144 0.29849 0.55982 0.0
H426 H 0.3529 0.49082 0.84721 0.0
C427 C 0.37828 0.51957 0.83884 0.0
H428 H 0.39365 0.58006 0.82146 0.0
H429 H 0.19229 0.51245 0.78898 0.0
H430 H 0.22279 0.50857 0.74717 0.0
H431 H 0.29991 0.52276 0.74399 0.0
H432 H 0.34708 0.54111 0.78257 0.0
C433 C 0.36909 0.552 0.83073 0.0
C434 C 0.3241 0.54822 0.83259 0.0
C435 C 0.29715 0.53795 0.80985 0.0
C436 C 0.2526 0.52938 0.81169 0.0
C437 C 0.22628 0.5189 0.78868 0.0
C438 C 0.24338 0.51663 0.76457 0.0
C439 C 0.28681 0.52465 0.76277 0.0
C440 C 0.31353 0.53514 0.78507 0.0
H441 H 0.19816 0.58614 0.85005 0.0
C442 C 0.17422 0.55075 0.84562 0.0
H443 H 0.16432 0.48382 0.83317 0.0
H444 H 0.36888 0.57434 0.87959 0.0
H445 H 0.33839 0.57732 0.92146 0.0
H446 H 0.25999 0.55771 0.92492 0.0
H447 H 0.21188 0.53582 0.88662 0.0
C448 C 0.18784 0.51922 0.8381 0.0
C449 C 0.23517 0.53126 0.83625 0.0
C450 C 0.26249 0.54273 0.85901 0.0
C451 C 0.30724 0.55215 0.85711 0.0
C452 C 0.33428 0.56526 0.88001 0.0
C453 C 0.31727 0.56738 0.90415 0.0
C454 C 0.27318 0.55649 0.90609 0.0
C455 C 0.24594 0.54421 0.88388 0.0
H456 H 0.8916 0.31446 0.17989 0.0
C457 C 0.89105 0.34383 0.17228 0.0
H458 H 0.85186 0.37316 0.15915 0.0
H459 H 0.68453 0.18325 0.13333 0.0
H460 H 0.70537 0.20546 0.09037 0.0
H461 H 0.77416 0.27336 0.08398 0.0
H462 H 0.82266 0.31932 0.12052 0.0
C463 C 0.8526 0.34427 0.16729 0.0
C464 C 0.81005 0.30477 0.17148 0.0
C465 C 0.78163 0.27877 0.14996 0.0
C466 C 0.74166 0.23993 0.15368 0.0
C467 C 0.71474 0.21366 0.13172 0.0
C468 C 0.72644 0.22588 0.10691 0.0
C469 C 0.76519 0.26408 0.10331 0.0
C470 C 0.79269 0.29022 0.12448 0.0
H471 H 0.64735 0.21612 0.17407 0.0
C472 C 0.64912 0.18623 0.1801 0.0
H473 H 0.69089 0.15769 0.19002 0.0
H474 H 0.85398 0.35083 0.21724 0.0
H475 H 0.83252 0.3295 0.26025 0.0
H476 H 0.76412 0.26112 0.26664 0.0
H477 H 0.71656 0.21395 0.23 0.0
C478 C 0.68842 0.18663 0.1831 0.0
C479 C 0.72983 0.22763 0.17899 0.0
C480 C 0.75784 0.25419 0.20055 0.0
C481 C 0.79772 0.29312 0.19684 0.0
C482 C 0.82404 0.32013 0.21883 0.0
C483 C 0.81193 0.30847 0.24368 0.0
C484 C 0.7734 0.27001 0.24728 0.0
C485 C 0.74646 0.24316 0.22606 0.0
H486 H 0.08138 0.51542 0.07706 0.0
C487 C 0.05256 0.48989 0.08521 0.0
H488 H 0.99032 0.43367 0.07694 0.0
H489 H 0.97573 0.50408 0.96928 0.0
H490 H 0.92457 0.52252 0.99404 0.0
H491 H 0.91758 0.51291 0.04056 0.0
H492 H 0.96152 0.4845 0.06254 0.0
C493 C 0.02032 0.4582 0.06933 0.0
C494 C 0.02238 0.4604 0.04096 0.0
C495 C 0.99634 0.4769 0.02842 0.0
C496 C 1.00085 0.48303 0.00171 0.0
C497 C 0.97421 0.49938 0.98963 0.0
C498 C 0.94456 0.50999 0.00359 0.0
C499 C 0.94059 0.50454 0.02977 0.0
C500 C 0.96605 0.48819 0.04215 0.0
H501 H 0.01379 0.41213 0.94579 0.0
C502 C 0.02512 0.44688 0.94098 0.0
H503 H 0.04705 0.51586 0.95535 0.0
H504 H 0.0731 0.42293 0.05865 0.0
H505 H 0.12503 0.4051 0.03416 0.0
H506 H 0.13662 0.42048 0.98855 0.0
H507 H 0.09543 0.45234 0.96691 0.0
C508 C 0.03697 0.4812 0.95998 0.0
C509 C 0.03149 0.47275 0.98764 0.0
C510 C 0.05715 0.45563 0.00016 0.0
C511 C 0.05194 0.44866 0.02677 0.0
C512 C 0.07669 0.43 0.03865 0.0
C513 C 0.10654 0.41957 0.02482 0.0
C514 C 0.1129 0.42802 0.9991 0.0
C515 C 0.08876 0.44602 0.98685 0.0
H516 H 0.55484 0.0767 0.4201 0.0
C517 C 0.52284 0.05393 0.4265 0.0
H518 H 0.45698 0.00949 0.41531 0.0
H519 H 0.56325 0.13165 0.31763 0.0
H520 H 0.57213 0.19852 0.34552 0.0
H521 H 0.54337 0.19151 0.38924 0.0
H522 H 0.50727 0.11763 0.40571 0.0
C523 C 0.48904 0.03244 0.40911 0.0
C524 C 0.49592 0.03582 0.38091 0.0
C525 C 0.51415 0.07888 0.37096 0.0
C526 C 0.52767 0.08252 0.34504 0.0
C527 C 0.54986 0.12646 0.33655 0.0
C528 C 0.55556 0.16526 0.35247 0.0
C529 C 0.53965 0.16136 0.37714 0.0
C530 C 0.51927 0.11879 0.38642 0.0
H531 H 0.49621 0.0769 0.28919 0.0
C532 C 0.51753 0.06138 0.28348 0.0
H533 H 0.5543 0.02882 0.29548 0.0
H534 H 0.45874 0.94747 0.39318 0.0
H535 H 0.44252 0.87985 0.364 0.0
H536 H 0.45983 0.88546 0.31805 0.0
H537 H 0.49415 0.95883 0.30114 0.0
C538 C 0.53378 0.04522 0.30133 0.0
C539 C 0.51949 0.04259 0.32846 0.0
C540 C 0.49806 0.9992 0.33789 0.0
C541 C 0.48683 0.99585 0.3642 0.0
C542 C 0.46722 0.95216 0.37329 0.0
C543 C 0.45775 0.91292 0.35673 0.0
C544 C 0.46757 0.91609 0.33089 0.0
C545 C 0.48749 0.95855 0.32147 0.0
H546 H 0.58319 0.53922 0.74513 0.0
C547 C 0.55403 0.53814 0.75413 0.0
H548 H 0.49077 0.53324 0.74777 0.0
H549 H 0.54216 0.61175 0.63882 0.0
H550 H 0.53222 0.67234 0.66327 0.0
H551 H 0.51658 0.66907 0.70949 0.0
H552 H 0.51296 0.60617 0.73184 0.0
C553 C 0.5201 0.53402 0.73919 0.0
C554 C 0.52253 0.53208 0.71059 0.0
C555 C 0.52342 0.56851 0.69771 0.0
C556 C 0.53028 0.56924 0.67075 0.0
C557 C 0.53452 0.60793 0.65887 0.0
C558 C 0.52943 0.64335 0.67278 0.0
C559 C 0.52092 0.64166 0.69884 0.0
C560 C 0.51863 0.60517 0.71138 0.0
H561 H 0.48117 0.53345 0.61855 0.0
C562 C 0.51054 0.53208 0.61139 0.0
H563 H 0.56986 0.53056 0.62119 0.0
H564 H 0.51614 0.45388 0.72878 0.0
H565 H 0.52302 0.39154 0.70409 0.0
H566 H 0.53443 0.39242 0.65727 0.0
H567 H 0.53906 0.45568 0.63493 0.0
C568 C 0.54046 0.53205 0.62817 0.0
C569 C 0.53391 0.53222 0.65648 0.0
C570 C 0.53171 0.49512 0.66929 0.0
C571 C 0.5257 0.49487 0.69633 0.0
C572 C 0.52216 0.45664 0.70846 0.0
C573 C 0.52561 0.42034 0.69445 0.0
C574 C 0.53199 0.42082 0.6681 0.0
C575 C 0.53476 0.4575 0.65554 0.0
H576 H 0.4811 0.00174 0.59238 0.0
C577 C 0.51144 0.0278 0.58592 0.0
H578 H 0.57545 0.0784 0.59737 0.0
H579 H 0.52216 0.09377 0.71405 0.0
H580 H 0.53542 0.16759 0.70144 0.0
H581 H 0.55148 0.1854 0.65646 0.0
H582 H 0.55419 0.12929 0.6238 0.0
C583 C 0.54497 0.05175 0.60319 0.0
C584 C 0.54063 0.04279 0.63084 0.0
C585 C 0.54063 0.07647 0.64987 0.0
C586 C 0.5322 0.06647 0.67593 0.0
C587 C 0.52991 0.09992 0.6942 0.0
C588 C 0.53708 0.14239 0.68717 0.0
C589 C 0.54607 0.15239 0.66184 0.0
C590 C 0.54761 0.11988 0.64329 0.0
H591 H 0.57554 0.06027 0.72667 0.0
C592 C 0.54428 0.03173 0.72972 0.0
H593 H 0.48369 0.98219 0.71275 0.0
H594 H 0.54428 0.97252 0.59981 0.0
H595 H 0.53016 0.8984 0.61228 0.0
H596 H 0.51557 0.88099 0.65735 0.0
H597 H 0.5137 0.9372 0.69012 0.0
C598 C 0.51469 0.01124 0.70988 0.0
C599 C 0.52492 0.02312 0.68297 0.0
C600 C 0.52614 0.98989 0.66403 0.0
C601 C 0.53441 0.99984 0.63801 0.0
C602 C 0.53662 0.96638 0.61968 0.0
C603 C 0.52926 0.92384 0.62664 0.0
C604 C 0.52089 0.91399 0.652 0.0
C605 C 0.51966 0.94657 0.6706 0.0
H606 H 0.51062 0.5157 0.9233 0.0
C607 C 0.54155 0.52136 0.91482 0.0
H608 H 0.60559 0.52869 0.922 0.0
H609 H 0.59451 0.58287 0.04207 0.0
H610 H 0.64646 0.65577 0.02899 0.0
H611 H 0.66315 0.66501 0.98314 0.0
H612 H 0.62782 0.60137 0.95005 0.0
C613 C 0.57394 0.52191 0.92974 0.0
C614 C 0.56757 0.51491 0.95755 0.0
C615 C 0.58928 0.55212 0.97667 0.0
C616 C 0.58 0.54664 0.00314 0.0
C617 C 0.60092 0.58485 0.02175 0.0
C618 C 0.63068 0.62697 0.01449 0.0
C619 C 0.64005 0.63219 0.98867 0.0
C620 C 0.61957 0.59538 0.96988 0.0
H621 H 0.59745 0.49916 0.04959 0.0
C622 C 0.56551 0.49554 0.05534 0.0
H623 H 0.5053 0.4928 0.04291 0.0
H624 H 0.52537 0.43504 0.92608 0.0
H625 H 0.4745 0.3617 0.93917 0.0
H626 H 0.45711 0.35252 0.98495 0.0
H627 H 0.49081 0.41657 0.01794 0.0
C628 C 0.53797 0.49803 0.0378 0.0
C629 C 0.54948 0.50373 0.01038 0.0
C630 C 0.5289 0.46614 0.99133 0.0
C631 C 0.53833 0.47159 0.9649 0.0
C632 C 0.51845 0.43311 0.94635 0.0
C633 C 0.48941 0.39072 0.95362 0.0
C634 C 0.47967 0.38554 0.9794 0.0
C635 C 0.49916 0.42264 0.99813 0.0
H636 H 0.06589 0.55252 0.25822 0.0
C637 C 0.03687 0.52777 0.24694 0.0
H638 H 0.97001 0.48092 0.24768 0.0
H639 H 0.977 0.44807 0.36477 0.0
H640 H 0.95761 0.373 0.34282 0.0
H641 H 0.95659 0.36106 0.29526 0.0
H642 H 0.97466 0.42397 0.26937 0.0
C643 C 0.99919 0.50588 0.25873 0.0
C644 C 0.99713 0.51284 0.28728 0.0
C645 C 0.9868 0.47566 0.30211 0.0
C646 C 0.98809 0.48268 0.32954 0.0
C647 C 0.97715 0.44484 0.34389 0.0
C648 C 0.96586 0.40151 0.33154 0.0
C649 C 0.96524 0.39477 0.30476 0.0
C650 C 0.97565 0.43126 0.29012 0.0
H651 H 0.94983 0.55063 0.3735 0.0
C652 C 0.97433 0.54511 0.38397 0.0
H653 H 0.02631 0.52685 0.381 0.0
H654 H 0.00959 0.58941 0.26461 0.0
H655 H 0.0308 0.66489 0.28649 0.0
H656 H 0.04041 0.67869 0.33402 0.0
H657 H 0.02771 0.61689 0.35993 0.0
C658 C 0.00261 0.53396 0.3708 0.0
C659 C 1.00003 0.52691 0.34208 0.0
C660 C 0.00977 0.56401 0.32724 0.0
C661 C 0.00689 0.55664 0.2998 0.0
C662 C 0.01366 0.59357 0.28546 0.0
C663 C 0.02545 0.63702 0.29778 0.0
C664 C 0.03066 0.64474 0.32454 0.0
C665 C 0.02297 0.60883 0.3392 0.0
loop_
_geom_bond_atom_site_label_1
_geom_bond_atom_site_label_2
_geom_bond_distance
_geom_bond_site_symmetry_2
_ccdc_geom_bond_type
Tb0 O3 2.453 1_455 S
Tb0 O4 2.596 1_455 S
Tb0 O5 2.374 . S
Tb0 O13 2.343 . S
Tb0 O15 2.353 . S
Tb0 O17 2.427 . S
Tb0 O18 2.513 . S
C1 O5 1.251 . S
C1 O7 1.263 . S
Tb2 O4 2.343 1_455 S
Tb2 O7 2.353 . S
Tb2 O10 2.427 1_455 S
Tb2 O11 2.513 1_455 S
Tb2 O12 2.453 . S
Tb2 O13 2.596 . S
Tb2 O14 2.374 . S
O3 Tb0 2.453 1_655 S
O3 C19 1.245 . S
O4 Tb0 2.596 1_655 S
O4 Tb2 2.343 1_655 S
O4 C19 1.259 . S
O5 Tb0 2.374 . S
O5 C1 1.251 . S
C6 O10 1.275 . S
C6 O11 1.246 . S
O7 C1 1.263 . S
O7 Tb2 2.353 . S
C8 O12 1.245 . S
C8 O13 1.259 . S
C9 O14 1.250 . S
C9 O15 1.263 . S
O10 Tb2 2.427 1_655 S
O10 C6 1.275 . S
O11 Tb2 2.513 1_655 S
O11 C6 1.246 . S
O12 Tb2 2.453 . S
O12 C8 1.245 . S
O13 Tb0 2.343 . S
O13 Tb2 2.596 . S
O13 C8 1.259 . S
O14 Tb2 2.374 . S
O14 C9 1.250 . S
O15 Tb0 2.353 . S
O15 C9 1.263 . S
C16 O17 1.275 . S
C16 O18 1.246 . S
O17 Tb0 2.427 . S
O17 C16 1.275 . S
O18 Tb0 2.513 . S
O18 C16 1.246 . S
C19 O3 1.245 . S
C19 O4 1.259 . S
Tb20 O23 2.453 . S
Tb20 O24 2.596 . S
Tb20 O25 2.374 . S
Tb20 O33 2.343 1_545 S
Tb20 O35 2.353 . S
Tb20 O37 2.427 1_545 S
Tb20 O38 2.513 1_545 S
C21 O25 1.251 . S
C21 O27 1.263 . S
Tb22 O24 2.343 . S
Tb22 O27 2.353 . S
Tb22 O30 2.427 . S
Tb22 O31 2.513 . S
Tb22 O32 2.453 1_545 S
Tb22 O33 2.596 1_545 S
Tb22 O34 2.374 . S
O23 Tb20 2.453 . S
O23 C39 1.245 . S
O24 Tb20 2.596 . S
O24 Tb22 2.343 . S
O24 C39 1.259 . S
O25 Tb20 2.374 . S
O25 C21 1.251 . S
C26 O30 1.275 . S
C26 O31 1.246 . S
O27 C21 1.263 . S
O27 Tb22 2.353 . S
C28 O32 1.245 . S
C28 O33 1.259 . S
C29 O34 1.250 . S
C29 O35 1.263 . S
O30 Tb22 2.427 . S
O30 C26 1.275 . S
O31 Tb22 2.513 . S
O31 C26 1.246 . S
O32 Tb22 2.453 1_565 S
O32 C28 1.245 . S
O33 Tb20 2.343 1_565 S
O33 Tb22 2.596 1_565 S
O33 C28 1.259 . S
O34 Tb22 2.374 . S
O34 C29 1.250 . S
O35 Tb20 2.353 . S
O35 C29 1.263 . S
C36 O37 1.275 . S
C36 O38 1.246 . S
O37 Tb20 2.427 1_565 S
O37 C36 1.275 . S
O38 Tb20 2.513 1_565 S
O38 C36 1.246 . S
C39 O23 1.245 . S
C39 O24 1.259 . S
Tb40 O43 2.453 . S
Tb40 O44 2.596 . S
Tb40 O45 2.374 . S
Tb40 O53 2.343 . S
Tb40 O55 2.353 . S
Tb40 O57 2.427 . S
Tb40 O58 2.513 . S
C41 O45 1.251 . S
C41 O47 1.263 . S
Tb42 O44 2.343 . S
Tb42 O47 2.353 . S
Tb42 O50 2.427 . S
Tb42 O51 2.513 . S
Tb42 O52 2.453 . S
Tb42 O53 2.596 . S
Tb42 O54 2.374 . S
O43 Tb40 2.453 . S
O43 C59 1.245 . S
O44 Tb40 2.596 . S
O44 Tb42 2.343 . S
O44 C59 1.259 . S
O45 Tb40 2.374 . S
O45 C41 1.251 . S
C46 O50 1.275 . S
C46 O51 1.246 . S
O47 C41 1.263 . S
O47 Tb42 2.353 . S
C48 O52 1.245 . S
C48 O53 1.259 . S
C49 O54 1.250 . S
C49 O55 1.263 . S
O50 Tb42 2.427 . S
O50 C46 1.275 . S
O51 Tb42 2.513 . S
O51 C46 1.246 . S
O52 Tb42 2.453 . S
O52 C48 1.245 . S
O53 Tb40 2.343 . S
O53 Tb42 2.596 . S
O53 C48 1.259 . S
O54 Tb42 2.374 . S
O54 C49 1.250 . S
O55 Tb40 2.353 . S
O55 C49 1.263 . S
C56 O57 1.275 . S
C56 O58 1.246 . S
O57 Tb40 2.427 . S
O57 C56 1.275 . S
O58 Tb40 2.513 . S
O58 C56 1.246 . S
C59 O43 1.245 . S
C59 O44 1.259 . S
O60 Cd61 2.300 . S
O60 C67 1.275 . S
Cd61 O60 2.300 . S
Cd61 O69 2.381 . S
Cd61 O70 2.378 . S
O62 Cd63 2.385 1_545 S
O62 C67 1.255 . S
Cd63 O62 2.385 1_565 S
Cd63 O64 2.317 . S
O64 Cd63 2.317 . S
O64 C65 1.232 . S
C65 O64 1.232 . S
C65 O66 1.218 . S
O66 C65 1.218 . S
C67 O60 1.275 . S
C67 O62 1.255 . S
C68 O69 1.258 . S
C68 O70 1.256 . S
O69 Cd61 2.381 . S
O69 C68 1.258 . S
O70 Cd61 2.378 . S
O70 C68 1.256 . S
O71 Cd72 2.300 . S
O71 C78 1.275 . S
Cd72 O71 2.300 . S
Cd72 O80 2.381 . S
Cd72 O81 2.378 . S
O73 Cd74 2.385 . S
O73 C78 1.255 . S
Cd74 O73 2.385 . S
Cd74 O75 2.317 . S
O75 Cd74 2.317 . S
O75 C76 1.232 . S
C76 O75 1.232 . S
C76 O77 1.218 . S
O77 C76 1.218 . S
C78 O71 1.275 . S
C78 O73 1.255 . S
C79 O80 1.258 . S
C79 O81 1.256 . S
O80 Cd72 2.381 . S
O80 C79 1.258 . S
O81 Cd72 2.378 . S
O81 C79 1.256 . S
O82 Cd83 2.300 . S
O82 C89 1.275 . S
Cd83 O82 2.300 . S
Cd83 O91 2.381 . S
Cd83 O92 2.378 . S
O84 Cd85 2.385 1_455 S
O84 C89 1.255 . S
Cd85 O84 2.385 1_655 S
Cd85 O86 2.317 . S
O86 Cd85 2.317 . S
O86 C87 1.232 . S
C87 O86 1.232 . S
C87 O88 1.218 . S
O88 C87 1.218 . S
C89 O82 1.275 . S
C89 O84 1.255 . S
C90 O91 1.258 . S
C90 O92 1.256 . S
O91 Cd83 2.381 . S
O91 C90 1.258 . S
O92 Cd83 2.378 . S
O92 C90 1.256 . S
O93 Cd94 2.300 . S
O93 C100 1.275 1_455 S
Cd94 O93 2.300 . S
Cd94 O102 2.381 . S
Cd94 O103 2.378 . S
O95 Cd96 2.385 . S
O95 C100 1.255 . S
Cd96 O95 2.385 . S
Cd96 O97 2.317 . S
O97 Cd96 2.317 . S
O97 C98 1.232 . S
C98 O97 1.232 . S
C98 O99 1.218 . S
O99 C98 1.218 . S
C100 O93 1.275 1_655 S
C100 O95 1.255 . S
C101 O102 1.258 . S
C101 O103 1.256 . S
O102 Cd94 2.381 . S
O102 C101 1.258 . S
O103 Cd94 2.378 . S
O103 C101 1.256 . S
O104 Cd105 2.300 . S
O104 C111 1.275 1_565 S
Cd105 O104 2.300 . S
Cd105 O113 2.381 . S
Cd105 O114 2.378 . S
O106 Cd107 2.385 . S
O106 C111 1.255 . S
Cd107 O106 2.385 . S
Cd107 O108 2.317 . S
O108 Cd107 2.317 . S
O108 C109 1.232 . S
C109 O108 1.232 . S
C109 O110 1.218 . S
O110 C109 1.218 . S
C111 O104 1.275 1_545 S
C111 O106 1.255 . S
C112 O113 1.258 . S
C112 O114 1.256 . S
O113 Cd105 2.381 . S
O113 C112 1.258 . S
O114 Cd105 2.378 . S
O114 C112 1.256 . S
O115 Cd116 2.300 . S
O115 C122 1.275 . S
Cd116 O115 2.300 . S
Cd116 O124 2.381 . S
Cd116 O125 2.378 . S
O117 Cd118 2.385 . S
O117 C122 1.255 . S
Cd118 O117 2.385 . S
Cd118 O119 2.317 . S
O119 Cd118 2.317 . S
O119 C120 1.232 . S
C120 O119 1.232 . S
C120 O121 1.218 . S
O121 C120 1.218 . S
C122 O115 1.275 . S
C122 O117 1.255 . S
C123 O124 1.258 . S
C123 O125 1.256 . S
O124 Cd116 2.381 . S
O124 C123 1.258 . S
O125 Cd116 2.378 . S
O125 C123 1.256 . S
H126 C127 0.951 . S
C127 H126 0.951 . S
C127 C133 1.265 . S
H128 C133 0.950 . S
H129 C137 0.949 . S
H130 C138 0.950 . S
H131 C139 0.951 . S
H132 C140 0.951 . S
C133 C127 1.265 . S
C133 H128 0.950 . S
C133 C134 1.478 . S
C134 C133 1.478 . S
C134 C135 1.397 . S
C134 C151 1.394 . S
C135 C134 1.397 . S
C135 C136 1.438 . S
C135 C140 1.429 . S
C136 C135 1.438 . S
C136 C137 1.428 . S
C136 C149 1.394 . S
C137 H129 0.949 . S
C137 C136 1.428 . S
C137 C138 1.345 . S
C138 H130 0.950 . S
C138 C137 1.345 . S
C138 C139 1.424 . S
C139 H131 0.951 . S
C139 C138 1.424 . S
C139 C140 1.347 . S
C140 H132 0.951 . S
C140 C135 1.429 . S
C140 C139 1.347 . S
H141 C142 0.951 . S
C142 H141 0.951 . S
C142 C148 1.265 . S
H143 C148 0.950 . S
H144 C152 0.949 . S
H145 C153 0.950 . S
H146 C154 0.951 . S
H147 C155 0.951 . S
C148 C142 1.265 . S
C148 H143 0.950 . S
C148 C149 1.478 . S
C149 C136 1.394 . S
C149 C148 1.478 . S
C149 C150 1.397 . S
C150 C149 1.397 . S
C150 C151 1.438 . S
C150 C155 1.429 . S
C151 C134 1.394 . S
C151 C150 1.438 . S
C151 C152 1.428 . S
C152 H144 0.949 . S
C152 C151 1.428 . S
C152 C153 1.345 . S
C153 H145 0.950 . S
C153 C152 1.345 . S
C153 C154 1.424 . S
C154 H146 0.951 . S
C154 C153 1.424 . S
C154 C155 1.347 . S
C155 H147 0.951 . S
C155 C150 1.429 . S
C155 C154 1.347 . S
H156 C157 0.951 . S
C157 H156 0.951 . S
C157 C163 1.265 . S
H158 C163 0.950 . S
H159 C167 0.949 . S
H160 C168 0.950 . S
H161 C169 0.951 . S
H162 C170 0.951 . S
C163 C157 1.265 . S
C163 H158 0.950 . S
C163 C164 1.478 . S
C164 C163 1.478 . S
C164 C165 1.397 . S
C164 C181 1.394 . S
C165 C164 1.397 . S
C165 C166 1.438 . S
C165 C170 1.429 . S
C166 C165 1.438 . S
C166 C167 1.428 . S
C166 C179 1.394 . S
C167 H159 0.949 . S
C167 C166 1.428 . S
C167 C168 1.345 . S
C168 H160 0.950 . S
C168 C167 1.345 . S
C168 C169 1.424 . S
C169 H161 0.951 . S
C169 C168 1.424 . S
C169 C170 1.347 . S
C170 H162 0.951 . S
C170 C165 1.429 . S
C170 C169 1.347 . S
H171 C172 0.951 . S
C172 H171 0.951 . S
C172 C178 1.265 . S
H173 C178 0.950 . S
H174 C182 0.949 . S
H175 C183 0.950 . S
H176 C184 0.951 . S
H177 C185 0.951 . S
C178 C172 1.265 . S
C178 H173 0.950 . S
C178 C179 1.478 . S
C179 C166 1.394 . S
C179 C178 1.478 . S
C179 C180 1.397 . S
C180 C179 1.397 . S
C180 C181 1.438 . S
C180 C185 1.429 . S
C181 C164 1.394 . S
C181 C180 1.438 . S
C181 C182 1.428 . S
C182 H174 0.949 . S
C182 C181 1.428 . S
C182 C183 1.345 . S
C183 H175 0.950 . S
C183 C182 1.345 . S
C183 C184 1.424 . S
C184 H176 0.951 . S
C184 C183 1.424 . S
C184 C185 1.347 . S
C185 H177 0.951 . S
C185 C180 1.429 . S
C185 C184 1.347 . S
H186 C187 0.951 . S
C187 H186 0.951 . S
C187 C193 1.265 . S
H188 C193 0.950 . S
H189 C197 0.949 . S
H190 C198 0.950 . S
H191 C199 0.951 . S
H192 C200 0.951 . S
C193 C187 1.265 . S
C193 H188 0.950 . S
C193 C194 1.478 . S
C194 C193 1.478 . S
C194 C195 1.397 . S
C194 C211 1.394 . S
C195 C194 1.397 . S
C195 C196 1.438 . S
C195 C200 1.429 . S
C196 C195 1.438 . S
C196 C197 1.428 . S
C196 C209 1.394 . S
C197 H189 0.949 . S
C197 C196 1.428 . S
C197 C198 1.345 . S
C198 H190 0.950 . S
C198 C197 1.345 . S
C198 C199 1.424 . S
C199 H191 0.951 . S
C199 C198 1.424 . S
C199 C200 1.347 . S
C200 H192 0.951 . S
C200 C195 1.429 . S
C200 C199 1.347 . S
H201 C202 0.951 . S
C202 H201 0.951 . S
C202 C208 1.265 . S
H203 C208 0.950 . S
H204 C212 0.949 . S
H205 C213 0.950 . S
H206 C214 0.951 . S
H207 C215 0.951 . S
C208 C202 1.265 . S
C208 H203 0.950 . S
C208 C209 1.478 . S
C209 C196 1.394 . S
C209 C208 1.478 . S
C209 C210 1.397 . S
C210 C209 1.397 . S
C210 C211 1.438 . S
C210 C215 1.429 . S
C211 C194 1.394 . S
C211 C210 1.438 . S
C211 C212 1.428 . S
C212 H204 0.949 . S
C212 C211 1.428 . S
C212 C213 1.345 . S
C213 H205 0.950 . S
C213 C212 1.345 . S
C213 C214 1.424 . S
C214 H206 0.951 . S
C214 C213 1.424 . S
C214 C215 1.347 . S
C215 H207 0.951 . S
C215 C210 1.429 . S
C215 C214 1.347 . S
H216 C217 0.951 . S
C217 H216 0.951 . S
C217 C223 1.265 . S
H218 C223 0.950 . S
H219 C227 0.949 . S
H220 C228 0.950 . S
H221 C229 0.951 . S
H222 C230 0.951 . S
C223 C217 1.265 . S
C223 H218 0.950 . S
C223 C224 1.478 . S
C224 C223 1.478 . S
C224 C225 1.397 . S
C224 C241 1.394 . S
C225 C224 1.397 . S
C225 C226 1.438 . S
C225 C230 1.429 . S
C226 C225 1.438 . S
C226 C227 1.428 . S
C226 C239 1.394 . S
C227 H219 0.949 . S
C227 C226 1.428 . S
C227 C228 1.345 . S
C228 H220 0.950 . S
C228 C227 1.345 . S
C228 C229 1.424 . S
C229 H221 0.951 . S
C229 C228 1.424 . S
C229 C230 1.347 . S
C230 H222 0.951 . S
C230 C225 1.429 . S
C230 C229 1.347 . S
H231 C232 0.951 . S
C232 H231 0.951 . S
C232 C238 1.265 . S
H233 C238 0.950 . S
H234 C242 0.949 . S
H235 C243 0.950 . S
H236 C244 0.951 . S
H237 C245 0.951 . S
C238 C232 1.265 . S
C238 H233 0.950 . S
C238 C239 1.478 . S
C239 C226 1.394 . S
C239 C238 1.478 . S
C239 C240 1.397 . S
C240 C239 1.397 . S
C240 C241 1.438 . S
C240 C245 1.429 . S
C241 C224 1.394 . S
C241 C240 1.438 . S
C241 C242 1.428 . S
C242 H234 0.949 . S
C242 C241 1.428 . S
C242 C243 1.345 . S
C243 H235 0.950 . S
C243 C242 1.345 . S
C243 C244 1.424 . S
C244 H236 0.951 . S
C244 C243 1.424 . S
C244 C245 1.347 . S
C245 H237 0.951 . S
C245 C240 1.429 . S
C245 C244 1.347 . S
H246 C247 0.951 . S
C247 H246 0.951 . S
C247 C253 1.265 . S
H248 C253 0.950 . S
H249 C257 0.949 . S
H250 C258 0.950 . S
H251 C259 0.951 . S
H252 C260 0.951 . S
C253 C247 1.265 . S
C253 H248 0.950 . S
C253 C254 1.478 . S
C254 C253 1.478 . S
C254 C255 1.397 . S
C254 C271 1.394 . S
C255 C254 1.397 . S
C255 C256 1.438 . S
C255 C260 1.429 . S
C256 C255 1.438 . S
C256 C257 1.428 . S
C256 C269 1.394 . S
C257 H249 0.949 . S
C257 C256 1.428 . S
C257 C258 1.345 . S
C258 H250 0.950 . S
C258 C257 1.345 . S
C258 C259 1.424 . S
C259 H251 0.951 . S
C259 C258 1.424 . S
C259 C260 1.347 . S
C260 H252 0.951 . S
C260 C255 1.429 . S
C260 C259 1.347 . S
H261 C262 0.951 . S
C262 H261 0.951 . S
C262 C268 1.265 . S
H263 C268 0.950 . S
H264 C272 0.949 . S
H265 C273 0.950 . S
H266 C274 0.951 . S
H267 C275 0.951 . S
C268 C262 1.265 . S
C268 H263 0.950 . S
C268 C269 1.478 . S
C269 C256 1.394 . S
C269 C268 1.478 . S
C269 C270 1.397 . S
C270 C269 1.397 . S
C270 C271 1.438 . S
C270 C275 1.429 . S
C271 C254 1.394 . S
C271 C270 1.438 . S
C271 C272 1.428 . S
C272 H264 0.949 . S
C272 C271 1.428 . S
C272 C273 1.345 . S
C273 H265 0.950 . S
C273 C272 1.345 . S
C273 C274 1.424 . S
C274 H266 0.951 . S
C274 C273 1.424 . S
C274 C275 1.347 . S
C275 H267 0.951 . S
C275 C270 1.429 . S
C275 C274 1.347 . S
H276 C277 0.951 . S
C277 H276 0.951 . S
C277 C283 1.265 . S
H278 C283 0.950 . S
H279 C287 0.949 . S
H280 C288 0.950 . S
H281 C289 0.951 . S
H282 C290 0.951 . S
C283 C277 1.265 . S
C283 H278 0.950 . S
C283 C284 1.478 . S
C284 C283 1.478 . S
C284 C285 1.397 . S
C284 C301 1.394 . S
C285 C284 1.397 . S
C285 C286 1.438 . S
C285 C290 1.429 . S
C286 C285 1.438 . S
C286 C287 1.428 . S
C286 C299 1.394 . S
C287 H279 0.949 . S
C287 C286 1.428 . S
C287 C288 1.345 . S
C288 H280 0.950 . S
C288 C287 1.345 . S
C288 C289 1.424 . S
C289 H281 0.951 . S
C289 C288 1.424 . S
C289 C290 1.347 . S
C290 H282 0.951 . S
C290 C285 1.429 . S
C290 C289 1.347 . S
H291 C292 0.951 . S
C292 H291 0.951 . S
C292 C298 1.265 . S
H293 C298 0.950 . S
H294 C302 0.949 . S
H295 C303 0.950 . S
H296 C304 0.951 . S
H297 C305 0.951 . S
C298 C292 1.265 . S
C298 H293 0.950 . S
C298 C299 1.478 . S
C299 C286 1.394 . S
C299 C298 1.478 . S
C299 C300 1.397 . S
C300 C299 1.397 . S
C300 C301 1.438 . S
C300 C305 1.429 . S
C301 C284 1.394 . S
C301 C300 1.438 . S
C301 C302 1.428 . S
C302 H294 0.949 . S
C302 C301 1.428 . S
C302 C303 1.345 . S
C303 H295 0.950 . S
C303 C302 1.345 . S
C303 C304 1.424 . S
C304 H296 0.951 . S
C304 C303 1.424 . S
C304 C305 1.347 . S
C305 H297 0.951 . S
C305 C300 1.429 . S
C305 C304 1.347 . S
H306 C307 0.951 . S
C307 H306 0.951 . S
C307 C313 1.265 . S
H308 C313 0.950 . S
H309 C317 0.949 . S
H310 C318 0.950 . S
H311 C319 0.951 . S
H312 C320 0.951 . S
C313 C307 1.265 . S
C313 H308 0.950 . S
C313 C314 1.478 . S
C314 C313 1.478 . S
C314 C315 1.397 . S
C314 C331 1.394 . S
C315 C314 1.397 . S
C315 C316 1.438 . S
C315 C320 1.429 . S
C316 C315 1.438 . S
C316 C317 1.428 . S
C316 C329 1.394 . S
C317 H309 0.949 . S
C317 C316 1.428 . S
C317 C318 1.345 . S
C318 H310 0.950 . S
C318 C317 1.345 . S
C318 C319 1.424 . S
C319 H311 0.951 . S
C319 C318 1.424 . S
C319 C320 1.347 . S
C320 H312 0.951 . S
C320 C315 1.429 . S
C320 C319 1.347 . S
H321 C322 0.951 . S
C322 H321 0.951 . S
C322 C328 1.265 . S
H323 C328 0.950 . S
H324 C332 0.949 . S
H325 C333 0.950 . S
H326 C334 0.951 . S
H327 C335 0.951 . S
C328 C322 1.265 . S
C328 H323 0.950 . S
C328 C329 1.478 . S
C329 C316 1.394 . S
C329 C328 1.478 . S
C329 C330 1.397 . S
C330 C329 1.397 . S
C330 C331 1.438 . S
C330 C335 1.429 . S
C331 C314 1.394 . S
C331 C330 1.438 . S
C331 C332 1.428 . S
C332 H324 0.949 . S
C332 C331 1.428 . S
C332 C333 1.345 . S
C333 H325 0.950 . S
C333 C332 1.345 . S
C333 C334 1.424 . S
C334 H326 0.951 . S
C334 C333 1.424 . S
C334 C335 1.347 . S
C335 H327 0.951 . S
C335 C330 1.429 . S
C335 C334 1.347 . S
H336 C337 0.951 . S
C337 H336 0.951 . S
C337 C343 1.265 . S
H338 C343 0.950 . S
H339 C347 0.949 . S
H340 C348 0.950 . S
H341 C349 0.951 . S
H342 C350 0.951 . S
C343 C337 1.265 . S
C343 H338 0.950 . S
C343 C344 1.478 . S
C344 C343 1.478 . S
C344 C345 1.397 . S
C344 C361 1.394 . S
C345 C344 1.397 . S
C345 C346 1.438 . S
C345 C350 1.429 . S
C346 C345 1.438 . S
C346 C347 1.428 . S
C346 C359 1.394 . S
C347 H339 0.949 . S
C347 C346 1.428 . S
C347 C348 1.345 . S
C348 H340 0.950 . S
C348 C347 1.345 . S
C348 C349 1.424 . S
C349 H341 0.951 . S
C349 C348 1.424 . S
C349 C350 1.347 . S
C350 H342 0.951 . S
C350 C345 1.429 . S
C350 C349 1.347 . S
H351 C352 0.951 . S
C352 H351 0.951 . S
C352 C358 1.265 . S
H353 C358 0.950 . S
H354 C362 0.949 . S
H355 C363 0.950 . S
H356 C364 0.951 . S
H357 C365 0.951 . S
C358 C352 1.265 . S
C358 H353 0.950 . S
C358 C359 1.478 . S
C359 C346 1.394 . S
C359 C358 1.478 . S
C359 C360 1.397 . S
C360 C359 1.397 . S
C360 C361 1.438 . S
C360 C365 1.429 . S
C361 C344 1.394 . S
C361 C360 1.438 . S
C361 C362 1.428 . S
C362 H354 0.949 . S
C362 C361 1.428 . S
C362 C363 1.345 . S
C363 H355 0.950 . S
C363 C362 1.345 . S
C363 C364 1.424 . S
C364 H356 0.951 . S
C364 C363 1.424 . S
C364 C365 1.347 . S
C365 H357 0.951 . S
C365 C360 1.429 . S
C365 C364 1.347 . S
H366 C367 0.951 . S
C367 H366 0.951 . S
C367 C373 1.265 . S
H368 C373 0.950 . S
H369 C377 0.949 . S
H370 C378 0.950 . S
H371 C379 0.951 . S
H372 C380 0.951 . S
C373 C367 1.265 . S
C373 H368 0.950 . S
C373 C374 1.478 . S
C374 C373 1.478 . S
C374 C375 1.397 . S
C374 C391 1.394 . S
C375 C374 1.397 . S
C375 C376 1.438 . S
C375 C380 1.429 . S
C376 C375 1.438 . S
C376 C377 1.428 . S
C376 C389 1.394 . S
C377 H369 0.949 . S
C377 C376 1.428 . S
C377 C378 1.345 . S
C378 H370 0.950 . S
C378 C377 1.345 . S
C378 C379 1.424 . S
C379 H371 0.951 . S
C379 C378 1.424 . S
C379 C380 1.347 . S
C380 H372 0.951 . S
C380 C375 1.429 . S
C380 C379 1.347 . S
H381 C382 0.951 . S
C382 H381 0.951 . S
C382 C388 1.265 . S
H383 C388 0.950 . S
H384 C392 0.949 . S
H385 C393 0.950 . S
H386 C394 0.951 . S
H387 C395 0.951 . S
C388 C382 1.265 . S
C388 H383 0.950 . S
C388 C389 1.478 . S
C389 C376 1.394 . S
C389 C388 1.478 . S
C389 C390 1.397 . S
C390 C389 1.397 . S
C390 C391 1.438 . S
C390 C395 1.429 . S
C391 C374 1.394 . S
C391 C390 1.438 . S
C391 C392 1.428 . S
C392 H384 0.949 . S
C392 C391 1.428 . S
C392 C393 1.345 . S
C393 H385 0.950 . S
C393 C392 1.345 . S
C393 C394 1.424 . S
C394 H386 0.951 . S
C394 C393 1.424 . S
C394 C395 1.347 . S
C395 H387 0.951 . S
C395 C390 1.429 . S
C395 C394 1.347 . S
H396 C397 0.951 . S
C397 H396 0.951 . S
C397 C403 1.265 . S
H398 C403 0.950 . S
H399 C407 0.949 . S
H400 C408 0.950 . S
H401 C409 0.951 . S
H402 C410 0.951 . S
C403 C397 1.265 . S
C403 H398 0.950 . S
C403 C404 1.478 . S
C404 C403 1.478 . S
C404 C405 1.397 . S
C404 C421 1.394 . S
C405 C404 1.397 . S
C405 C406 1.438 . S
C405 C410 1.429 . S
C406 C405 1.438 . S
C406 C407 1.428 . S
C406 C419 1.394 . S
C407 H399 0.949 . S
C407 C406 1.428 . S
C407 C408 1.345 . S
C408 H400 0.950 . S
C408 C407 1.345 . S
C408 C409 1.424 . S
C409 H401 0.951 . S
C409 C408 1.424 . S
C409 C410 1.347 . S
C410 H402 0.951 . S
C410 C405 1.429 . S
C410 C409 1.347 . S
H411 C412 0.951 . S
C412 H411 0.951 . S
C412 C418 1.265 . S
H413 C418 0.950 . S
H414 C422 0.949 . S
H415 C423 0.950 . S
H416 C424 0.951 . S
H417 C425 0.951 . S
C418 C412 1.265 . S
C418 H413 0.950 . S
C418 C419 1.478 . S
C419 C406 1.394 . S
C419 C418 1.478 . S
C419 C420 1.397 . S
C420 C419 1.397 . S
C420 C421 1.438 . S
C420 C425 1.429 . S
C421 C404 1.394 . S
C421 C420 1.438 . S
C421 C422 1.428 . S
C422 H414 0.949 . S
C422 C421 1.428 . S
C422 C423 1.345 . S
C423 H415 0.950 . S
C423 C422 1.345 . S
C423 C424 1.424 . S
C424 H416 0.951 . S
C424 C423 1.424 . S
C424 C425 1.347 . S
C425 H417 0.951 . S
C425 C420 1.429 . S
C425 C424 1.347 . S
H426 C427 0.951 . S
C427 H426 0.951 . S
C427 C433 1.265 . S
H428 C433 0.950 . S
H429 C437 0.949 . S
H430 C438 0.950 . S
H431 C439 0.951 . S
H432 C440 0.951 . S
C433 C427 1.265 . S
C433 H428 0.950 . S
C433 C434 1.478 . S
C434 C433 1.478 . S
C434 C435 1.397 . S
C434 C451 1.394 . S
C435 C434 1.397 . S
C435 C436 1.438 . S
C435 C440 1.429 . S
C436 C435 1.438 . S
C436 C437 1.428 . S
C436 C449 1.394 . S
C437 H429 0.949 . S
C437 C436 1.428 . S
C437 C438 1.345 . S
C438 H430 0.950 . S
C438 C437 1.345 . S
C438 C439 1.424 . S
C439 H431 0.951 . S
C439 C438 1.424 . S
C439 C440 1.347 . S
C440 H432 0.951 . S
C440 C435 1.429 . S
C440 C439 1.347 . S
H441 C442 0.951 . S
C442 H441 0.951 . S
C442 C448 1.265 . S
H443 C448 0.950 . S
H444 C452 0.949 . S
H445 C453 0.950 . S
H446 C454 0.951 . S
H447 C455 0.951 . S
C448 C442 1.265 . S
C448 H443 0.950 . S
C448 C449 1.478 . S
C449 C436 1.394 . S
C449 C448 1.478 . S
C449 C450 1.397 . S
C450 C449 1.397 . S
C450 C451 1.438 . S
C450 C455 1.429 . S
C451 C434 1.394 . S
C451 C450 1.438 . S
C451 C452 1.428 . S
C452 H444 0.949 . S
C452 C451 1.428 . S
C452 C453 1.345 . S
C453 H445 0.950 . S
C453 C452 1.345 . S
C453 C454 1.424 . S
C454 H446 0.951 . S
C454 C453 1.424 . S
C454 C455 1.347 . S
C455 H447 0.951 . S
C455 C450 1.429 . S
C455 C454 1.347 . S
H456 C457 0.951 . S
C457 H456 0.951 . S
C457 C463 1.265 . S
H458 C463 0.950 . S
H459 C467 0.949 . S
H460 C468 0.950 . S
H461 C469 0.951 . S
H462 C470 0.951 . S
C463 C457 1.265 . S
C463 H458 0.950 . S
C463 C464 1.478 . S
C464 C463 1.478 . S
C464 C465 1.397 . S
C464 C481 1.394 . S
C465 C464 1.397 . S
C465 C466 1.438 . S
C465 C470 1.429 . S
C466 C465 1.438 . S
C466 C467 1.428 . S
C466 C479 1.394 . S
C467 H459 0.949 . S
C467 C466 1.428 . S
C467 C468 1.345 . S
C468 H460 0.950 . S
C468 C467 1.345 . S
C468 C469 1.424 . S
C469 H461 0.951 . S
C469 C468 1.424 . S
C469 C470 1.347 . S
C470 H462 0.951 . S
C470 C465 1.429 . S
C470 C469 1.347 . S
H471 C472 0.951 . S
C472 H471 0.951 . S
C472 C478 1.265 . S
H473 C478 0.950 . S
H474 C482 0.949 . S
H475 C483 0.950 . S
H476 C484 0.951 . S
H477 C485 0.951 . S
C478 C472 1.265 . S
C478 H473 0.950 . S
C478 C479 1.478 . S
C479 C466 1.394 . S
C479 C478 1.478 . S
C479 C480 1.397 . S
C480 C479 1.397 . S
C480 C481 1.438 . S
C480 C485 1.429 . S
C481 C464 1.394 . S
C481 C480 1.438 . S
C481 C482 1.428 . S
C482 H474 0.949 . S
C482 C481 1.428 . S
C482 C483 1.345 . S
C483 H475 0.950 . S
C483 C482 1.345 . S
C483 C484 1.424 . S
C484 H476 0.951 . S
C484 C483 1.424 . S
C484 C485 1.347 . S
C485 H477 0.951 . S
C485 C480 1.429 . S
C485 C484 1.347 . S
H486 C487 0.951 . S
C487 H486 0.951 . S
C487 C493 1.265 . S
H488 C493 0.950 . S
H489 C497 0.949 . S
H490 C498 0.950 . S
H491 C499 0.951 . S
H492 C500 0.951 . S
C493 C487 1.265 . S
C493 H488 0.950 . S
C493 C494 1.478 . S
C494 C493 1.478 . S
C494 C495 1.397 . S
C494 C511 1.394 . S
C495 C494 1.397 . S
C495 C496 1.438 . S
C495 C500 1.429 . S
C496 C495 1.438 . S
C496 C497 1.428 1_554 S
C496 C509 1.394 1_554 S
C497 H489 0.949 . S
C497 C496 1.428 1_556 S
C497 C498 1.345 1_556 S
C498 H490 0.950 . S
C498 C497 1.345 1_554 S
C498 C499 1.424 . S
C499 H491 0.951 . S
C499 C498 1.424 . S
C499 C500 1.347 . S
C500 H492 0.951 . S
C500 C495 1.429 . S
C500 C499 1.347 . S
H501 C502 0.951 . S
C502 H501 0.951 . S
C502 C508 1.265 . S
H503 C508 0.950 . S
H504 C512 0.949 . S
H505 C513 0.950 . S
H506 C514 0.951 . S
H507 C515 0.951 . S
C508 C502 1.265 . S
C508 H503 0.950 . S
C508 C509 1.478 . S
C509 C496 1.394 1_556 S
C509 C508 1.478 . S
C509 C510 1.397 . S
C510 C509 1.397 . S
C510 C511 1.438 1_556 S
C510 C515 1.429 . S
C511 C494 1.394 . S
C511 C510 1.438 1_554 S
C511 C512 1.428 . S
C512 H504 0.949 . S
C512 C511 1.428 . S
C512 C513 1.345 . S
C513 H505 0.950 . S
C513 C512 1.345 . S
C513 C514 1.424 1_554 S
C514 H506 0.951 . S
C514 C513 1.424 1_556 S
C514 C515 1.347 . S
C515 H507 0.951 . S
C515 C510 1.429 . S
C515 C514 1.347 . S
H516 C517 0.951 . S
C517 H516 0.951 . S
C517 C523 1.265 . S
H518 C523 0.950 . S
H519 C527 0.949 . S
H520 C528 0.950 . S
H521 C529 0.951 . S
H522 C530 0.951 . S
C523 C517 1.265 . S
C523 H518 0.950 . S
C523 C524 1.478 . S
C524 C523 1.478 . S
C524 C525 1.397 . S
C524 C541 1.394 . S
C525 C524 1.397 . S
C525 C526 1.438 . S
C525 C530 1.429 . S
C526 C525 1.438 . S
C526 C527 1.428 . S
C526 C539 1.394 . S
C527 H519 0.949 . S
C527 C526 1.428 . S
C527 C528 1.345 . S
C528 H520 0.950 . S
C528 C527 1.345 . S
C528 C529 1.424 . S
C529 H521 0.951 . S
C529 C528 1.424 . S
C529 C530 1.347 . S
C530 H522 0.951 . S
C530 C525 1.429 . S
C530 C529 1.347 . S
H531 C532 0.951 . S
C532 H531 0.951 . S
C532 C538 1.265 . S
H533 C538 0.950 . S
H534 C542 0.949 . S
H535 C543 0.950 . S
H536 C544 0.951 . S
H537 C545 0.951 . S
C538 C532 1.265 . S
C538 H533 0.950 . S
C538 C539 1.478 . S
C539 C526 1.394 . S
C539 C538 1.478 . S
C539 C540 1.382 1_545 S
C540 C539 1.382 1_565 S
C540 C541 1.437 1_565 S
C540 C545 1.444 . S
C541 C524 1.394 . S
C541 C540 1.437 1_545 S
C541 C542 1.428 1_545 S
C542 H534 0.949 . S
C542 C541 1.428 1_565 S
C542 C543 1.345 . S
C543 H535 0.950 . S
C543 C542 1.345 . S
C543 C544 1.424 . S
C544 H536 0.951 . S
C544 C543 1.424 . S
C544 C545 1.347 . S
C545 H537 0.951 . S
C545 C540 1.444 . S
C545 C544 1.347 . S
H546 C547 0.951 . S
C547 H546 0.951 . S
C547 C553 1.265 . S
H548 C553 0.950 . S
H549 C557 0.949 . S
H550 C558 0.950 . S
H551 C559 0.951 . S
H552 C560 0.951 . S
C553 C547 1.265 . S
C553 H548 0.950 . S
C553 C554 1.478 . S
C554 C553 1.478 . S
C554 C555 1.397 . S
C554 C571 1.394 . S
C555 C554 1.397 . S
C555 C556 1.438 . S
C555 C560 1.429 . S
C556 C555 1.438 . S
C556 C557 1.428 . S
C556 C569 1.394 . S
C557 H549 0.949 . S
C557 C556 1.428 . S
C557 C558 1.345 . S
C558 H550 0.950 . S
C558 C557 1.345 . S
C558 C559 1.424 . S
C559 H551 0.951 . S
C559 C558 1.424 . S
C559 C560 1.347 . S
C560 H552 0.951 . S
C560 C555 1.429 . S
C560 C559 1.347 . S
H561 C562 0.951 . S
C562 H561 0.951 . S
C562 C568 1.265 . S
H563 C568 0.950 . S
H564 C572 0.949 . S
H565 C573 0.950 . S
H566 C574 0.951 . S
H567 C575 0.951 . S
C568 C562 1.265 . S
C568 H563 0.950 . S
C568 C569 1.478 . S
C569 C556 1.394 . S
C569 C568 1.478 . S
C569 C570 1.397 . S
C570 C569 1.397 . S
C570 C571 1.438 . S
C570 C575 1.429 . S
C571 C554 1.394 . S
C571 C570 1.438 . S
C571 C572 1.428 . S
C572 H564 0.949 . S
C572 C571 1.428 . S
C572 C573 1.345 . S
C573 H565 0.950 . S
C573 C572 1.345 . S
C573 C574 1.424 . S
C574 H566 0.951 . S
C574 C573 1.424 . S
C574 C575 1.347 . S
C575 H567 0.951 . S
C575 C570 1.429 . S
C575 C574 1.347 . S
H576 C577 0.951 . S
C577 H576 0.951 . S
C577 C583 1.265 . S
H578 C583 0.950 . S
H579 C587 0.949 . S
H580 C588 0.950 . S
H581 C589 0.951 . S
H582 C590 0.951 . S
C583 C577 1.265 . S
C583 H578 0.950 . S
C583 C584 1.478 . S
C584 C583 1.478 . S
C584 C585 1.397 . S
C584 C601 1.394 1_545 S
C585 C584 1.397 . S
C585 C586 1.438 . S
C585 C590 1.429 . S
C586 C585 1.438 . S
C586 C587 1.428 . S
C586 C599 1.394 . S
C587 H579 0.949 . S
C587 C586 1.428 . S
C587 C588 1.345 . S
C588 H580 0.950 . S
C588 C587 1.345 . S
C588 C589 1.424 . S
C589 H581 0.951 . S
C589 C588 1.424 . S
C589 C590 1.347 . S
C590 H582 0.951 . S
C590 C585 1.429 . S
C590 C589 1.347 . S
H591 C592 0.951 . S
C592 H591 0.951 . S
C592 C598 1.265 . S
H593 C598 0.950 . S
H594 C602 0.949 . S
H595 C603 0.950 . S
H596 C604 0.951 . S
H597 C605 0.951 . S
C598 C592 1.265 . S
C598 H593 0.950 . S
C598 C599 1.478 . S
C599 C586 1.394 . S
C599 C598 1.478 . S
C599 C600 1.397 1_545 S
C600 C599 1.397 1_565 S
C600 C601 1.438 . S
C600 C605 1.429 . S
C601 C584 1.394 1_565 S
C601 C600 1.438 . S
C601 C602 1.428 . S
C602 H594 0.949 . S
C602 C601 1.428 . S
C602 C603 1.345 . S
C603 H595 0.950 . S
C603 C602 1.345 . S
C603 C604 1.424 . S
C604 H596 0.951 . S
C604 C603 1.424 . S
C604 C605 1.347 . S
C605 H597 0.951 . S
C605 C600 1.429 . S
C605 C604 1.347 . S
H606 C607 0.951 . S
C607 H606 0.951 . S
C607 C613 1.265 . S
H608 C613 0.950 . S
H609 C617 0.949 . S
H610 C618 0.950 . S
H611 C619 0.951 . S
H612 C620 0.951 . S
C613 C607 1.265 . S
C613 H608 0.950 . S
C613 C614 1.478 . S
C614 C613 1.478 . S
C614 C615 1.397 . S
C614 C631 1.394 . S
C615 C614 1.397 . S
C615 C616 1.438 1_556 S
C615 C620 1.429 . S
C616 C615 1.438 1_554 S
C616 C617 1.428 . S
C616 C629 1.394 . S
C617 H609 0.949 . S
C617 C616 1.428 . S
C617 C618 1.345 . S
C618 H610 0.950 . S
C618 C617 1.345 . S
C618 C619 1.424 1_554 S
C619 H611 0.951 . S
C619 C618 1.424 1_556 S
C619 C620 1.347 . S
C620 H612 0.951 . S
C620 C615 1.429 . S
C620 C619 1.347 . S
H621 C622 0.951 . S
C622 H621 0.951 . S
C622 C628 1.265 . S
H623 C628 0.950 . S
H624 C632 0.949 . S
H625 C633 0.950 . S
H626 C634 0.951 . S
H627 C635 0.951 1_554 S
C628 C622 1.265 . S
C628 H623 0.950 . S
C628 C629 1.478 . S
C629 C616 1.394 . S
C629 C628 1.478 . S
C629 C630 1.397 1_554 S
C630 C629 1.397 1_556 S
C630 C631 1.438 . S
C630 C635 1.429 . S
C631 C614 1.394 . S
C631 C630 1.438 . S
C631 C632 1.428 . S
C632 H624 0.949 . S
C632 C631 1.428 . S
C632 C633 1.345 . S
C633 H625 0.950 . S
C633 C632 1.345 . S
C633 C634 1.424 . S
C634 H626 0.951 . S
C634 C633 1.424 . S
C634 C635 1.347 . S
C635 H627 0.951 1_556 S
C635 C630 1.429 . S
C635 C634 1.347 . S
H636 C637 0.951 . S
C637 H636 0.951 . S
C637 C643 1.265 1_455 S
H638 C643 0.950 . S
H639 C647 0.949 . S
H640 C648 0.950 . S
H641 C649 0.951 . S
H642 C650 0.951 . S
C643 C637 1.265 1_655 S
C643 H638 0.950 . S
C643 C644 1.478 . S
C644 C643 1.478 . S
C644 C645 1.397 . S
C644 C661 1.394 1_655 S
C645 C644 1.397 . S
C645 C646 1.438 . S
C645 C650 1.429 . S
C646 C645 1.438 . S
C646 C647 1.428 . S
C646 C659 1.394 1_655 S
C647 H639 0.949 . S
C647 C646 1.428 . S
C647 C648 1.345 . S
C648 H640 0.950 . S
C648 C647 1.345 . S
C648 C649 1.424 . S
C649 H641 0.951 . S
C649 C648 1.424 . S
C649 C650 1.347 . S
C650 H642 0.951 . S
C650 C645 1.429 . S
C650 C649 1.347 . S
H651 C652 0.951 . S
C652 H651 0.951 . S
C652 C658 1.265 1_655 S
H653 C658 0.950 . S
H654 C662 0.949 . S
H655 C663 0.950 . S
H656 C664 0.951 . S
H657 C665 0.951 . S
C658 C652 1.265 1_455 S
C658 H653 0.950 . S
C658 C659 1.478 . S
C659 C646 1.394 1_455 S
C659 C658 1.478 . S
C659 C660 1.397 . S
C660 C659 1.397 . S
C660 C661 1.438 . S
C660 C665 1.429 . S
C661 C644 1.394 1_455 S
C661 C660 1.438 . S
C661 C662 1.428 . S
C662 H654 0.949 . S
C662 C661 1.428 . S
C662 C663 1.345 . S
C663 H655 0.950 . S
C663 C662 1.345 . S
C663 C664 1.424 . S
C664 H656 0.951 . S
C664 C663 1.424 . S
C664 C665 1.347 . S
C665 H657 0.951 . S
C665 C660 1.429 . S
C665 C664 1.347 . S
C127 C8 2.156 . S
C142 C120 1.938 . S
C157 C26 1.491 . S
C172 C98 1.387 . S
C187 C48 1.426 . S
C202 C112 1.377 . S
C217 C19 1.621 . S
C232 C123 1.671 . S
C262 C101 1.278 . S
C247 C36 1.357 . S
C292 C109 1.468 . S
C277 C59 1.665 . S
C307 C28 1.705 . S
C322 C76 1.557 . S
C337 C46 1.294 . S
C352 C87 1.130 . S
C367 C16 1.578 . S
C382 C65 1.273 . S
C412 C79 1.507 . S
C397 C39 1.437 . S
C442 C90 0.937 . S
C427 C56 0.814 . S
C457 C6 1.224 . S
C472 C68 1.235 . S
C502 C89 1.451 . S
C487 C9 1.482 . S
C517 C21 1.471 . S
C532 C67 1.489 . S
C547 C49 1.511 . S
C562 C78 1.459 . S
C592 C111 1.374 . S
C577 C29 1.448 . S
C622 C122 1.453 . S
C607 C41 1.544 . S
C637 C1 1.501 . S
C652 C100 1.474 . S
