# Generated by pormake.
# Topology gar, (4,6)-cn, num edge types: 1
# Building blocks:
#     Node 0, Type 0, BuildingBlock: GALJAG_clean_sbu_0, # of connection points: 4
#     Node 1, Type 0, BuildingBlock: GALJAG_clean_sbu_0, # of connection points: 4
#     Node 2, Type 0, BuildingBlock: GALJAG_clean_sbu_0, # of connection points: 4
#     Node 3, Type 0, BuildingBlock: GALJAG_clean_sbu_0, # of connection points: 4
#     Node 4, Type 0, BuildingBlock: GALJAG_clean_sbu_0, # of connection points: 4
#     Node 5, Type 0, BuildingBlock: GALJAG_clean_sbu_0, # of connection points: 4
#     Node 6, Type 0, BuildingBlock: GALJAG_clean_sbu_0, # of connection points: 4
#     Node 7, Type 0, BuildingBlock: GALJAG_clean_sbu_0, # of connection points: 4
#     Node 8, Type 0, BuildingBlock: GALJAG_clean_sbu_0, # of connection points: 4
#     Node 9, Type 0, BuildingBlock: GALJAG_clean_sbu_0, # of connection points: 4
#     Node 10, Type 0, BuildingBlock: GALJAG_clean_sbu_0, # of connection points: 4
#     Node 11, Type 0, BuildingBlock: GALJAG_clean_sbu_0, # of connection points: 4
#     Node 12, Type 0, BuildingBlock: GALJAG_clean_sbu_0, # of connection points: 4
#     Node 13, Type 0, BuildingBlock: GALJAG_clean_sbu_0, # of connection points: 4
#     Node 14, Type 0, BuildingBlock: GALJAG_clean_sbu_0, # of connection points: 4
#     Node 15, Type 0, BuildingBlock: GALJAG_clean_sbu_0, # of connection points: 4
#     Node 16, Type 0, BuildingBlock: GALJAG_clean_sbu_0, # of connection points: 4
#     Node 17, Type 0, BuildingBlock: GALJAG_clean_sbu_0, # of connection points: 4
#     Node 18, Type 0, BuildingBlock: GALJAG_clean_sbu_0, # of connection points: 4
#     Node 19, Type 0, BuildingBlock: GALJAG_clean_sbu_0, # of connection points: 4
#     Node 20, Type 0, BuildingBlock: GALJAG_clean_sbu_0, # of connection points: 4
#     Node 21, Type 0, BuildingBlock: GALJAG_clean_sbu_0, # of connection points: 4
#     Node 22, Type 0, BuildingBlock: GALJAG_clean_sbu_0, # of connection points: 4
#     Node 23, Type 0, BuildingBlock: GALJAG_clean_sbu_0, # of connection points: 4
#     Node 24, Type 1, BuildingBlock: KUMBOL_clean_sbu_0, # of connection points: 6
#     Node 25, Type 1, BuildingBlock: KUMBOL_clean_sbu_0, # of connection points: 6
#     Node 26, Type 1, BuildingBlock: KUMBOL_clean_sbu_0, # of connection points: 6
#     Node 27, Type 1, BuildingBlock: KUMBOL_clean_sbu_0, # of connection points: 6
#     Node 28, Type 1, BuildingBlock: KUMBOL_clean_sbu_0, # of connection points: 6
#     Node 29, Type 1, BuildingBlock: KUMBOL_clean_sbu_0, # of connection points: 6
#     Node 30, Type 1, BuildingBlock: KUMBOL_clean_sbu_0, # of connection points: 6
#     Node 31, Type 1, BuildingBlock: KUMBOL_clean_sbu_0, # of connection points: 6
#     Node 32, Type 1, BuildingBlock: KUMBOL_clean_sbu_0, # of connection points: 6
#     Node 33, Type 1, BuildingBlock: KUMBOL_clean_sbu_0, # of connection points: 6
#     Node 34, Type 1, BuildingBlock: KUMBOL_clean_sbu_0, # of connection points: 6
#     Node 35, Type 1, BuildingBlock: KUMBOL_clean_sbu_0, # of connection points: 6
#     Node 36, Type 1, BuildingBlock: KUMBOL_clean_sbu_0, # of connection points: 6
#     Node 37, Type 1, BuildingBlock: KUMBOL_clean_sbu_0, # of connection points: 6
#     Node 38, Type 1, BuildingBlock: KUMBOL_clean_sbu_0, # of connection points: 6
#     Node 39, Type 1, BuildingBlock: KUMBOL_clean_sbu_0, # of connection points: 6
#     Edge 40, Type (0, 1), BuildingBlock: XUDNAN_clean_linker_2, # of connection points: 2
#     Edge 41, Type (0, 1), BuildingBlock: XUDNAN_clean_linker_2, # of connection points: 2
#     Edge 42, Type (0, 1), BuildingBlock: XUDNAN_clean_linker_2, # of connection points: 2
#     Edge 43, Type (0, 1), BuildingBlock: XUDNAN_clean_linker_2, # of connection points: 2
#     Edge 44, Type (0, 1), BuildingBlock: XUDNAN_clean_linker_2, # of connection points: 2
#     Edge 45, Type (0, 1), BuildingBlock: XUDNAN_clean_linker_2, # of connection points: 2
#     Edge 46, Type (0, 1), BuildingBlock: XUDNAN_clean_linker_2, # of connection points: 2
#     Edge 47, Type (0, 1), BuildingBlock: XUDNAN_clean_linker_2, # of connection points: 2
#     Edge 48, Type (0, 1), BuildingBlock: XUDNAN_clean_linker_2, # of connection points: 2
#     Edge 49, Type (0, 1), BuildingBlock: XUDNAN_clean_linker_2, # of connection points: 2
#     Edge 50, Type (0, 1), BuildingBlock: XUDNAN_clean_linker_2, # of connection points: 2
#     Edge 51, Type (0, 1), BuildingBlock: XUDNAN_clean_linker_2, # of connection points: 2
#     Edge 52, Type (0, 1), BuildingBlock: XUDNAN_clean_linker_2, # of connection points: 2
#     Edge 53, Type (0, 1), BuildingBlock: XUDNAN_clean_linker_2, # of connection points: 2
#     Edge 54, Type (0, 1), BuildingBlock: XUDNAN_clean_linker_2, # of connection points: 2
#     Edge 55, Type (0, 1), BuildingBlock: XUDNAN_clean_linker_2, # of connection points: 2
#     Edge 56, Type (0, 1), BuildingBlock: XUDNAN_clean_linker_2, # of connection points: 2
#     Edge 57, Type (0, 1), BuildingBlock: XUDNAN_clean_linker_2, # of connection points: 2
#     Edge 58, Type (0, 1), BuildingBlock: XUDNAN_clean_linker_2, # of connection points: 2
#     Edge 59, Type (0, 1), BuildingBlock: XUDNAN_clean_linker_2, # of connection points: 2
#     Edge 60, Type (0, 1), BuildingBlock: XUDNAN_clean_linker_2, # of connection points: 2
#     Edge 61, Type (0, 1), BuildingBlock: XUDNAN_clean_linker_2, # of connection points: 2
#     Edge 62, Type (0, 1), BuildingBlock: XUDNAN_clean_linker_2, # of connection points: 2
#     Edge 63, Type (0, 1), BuildingBlock: XUDNAN_clean_linker_2, # of connection points: 2
#     Edge 64, Type (0, 1), BuildingBlock: XUDNAN_clean_linker_2, # of connection points: 2
#     Edge 65, Type (0, 1), BuildingBlock: XUDNAN_clean_linker_2, # of connection points: 2
#     Edge 66, Type (0, 1), BuildingBlock: XUDNAN_clean_linker_2, # of connection points: 2
#     Edge 67, Type (0, 1), BuildingBlock: XUDNAN_clean_linker_2, # of connection points: 2
#     Edge 68, Type (0, 1), BuildingBlock: XUDNAN_clean_linker_2, # of connection points: 2
#     Edge 69, Type (0, 1), BuildingBlock: XUDNAN_clean_linker_2, # of connection points: 2
#     Edge 70, Type (0, 1), BuildingBlock: XUDNAN_clean_linker_2, # of connection points: 2
#     Edge 71, Type (0, 1), BuildingBlock: XUDNAN_clean_linker_2, # of connection points: 2
#     Edge 72, Type (0, 1), BuildingBlock: XUDNAN_clean_linker_2, # of connection points: 2
#     Edge 73, Type (0, 1), BuildingBlock: XUDNAN_clean_linker_2, # of connection points: 2
#     Edge 74, Type (0, 1), BuildingBlock: XUDNAN_clean_linker_2, # of connection points: 2
#     Edge 75, Type (0, 1), BuildingBlock: XUDNAN_clean_linker_2, # of connection points: 2
#     Edge 76, Type (0, 1), BuildingBlock: XUDNAN_clean_linker_2, # of connection points: 2
#     Edge 77, Type (0, 1), BuildingBlock: XUDNAN_clean_linker_2, # of connection points: 2
#     Edge 78, Type (0, 1), BuildingBlock: XUDNAN_clean_linker_2, # of connection points: 2
#     Edge 79, Type (0, 1), BuildingBlock: XUDNAN_clean_linker_2, # of connection points: 2
#     Edge 80, Type (0, 1), BuildingBlock: XUDNAN_clean_linker_2, # of connection points: 2
#     Edge 81, Type (0, 1), BuildingBlock: XUDNAN_clean_linker_2, # of connection points: 2
#     Edge 82, Type (0, 1), BuildingBlock: XUDNAN_clean_linker_2, # of connection points: 2
#     Edge 83, Type (0, 1), BuildingBlock: XUDNAN_clean_linker_2, # of connection points: 2
#     Edge 84, Type (0, 1), BuildingBlock: XUDNAN_clean_linker_2, # of connection points: 2
#     Edge 85, Type (0, 1), BuildingBlock: XUDNAN_clean_linker_2, # of connection points: 2
#     Edge 86, Type (0, 1), BuildingBlock: XUDNAN_clean_linker_2, # of connection points: 2
#     Edge 87, Type (0, 1), BuildingBlock: XUDNAN_clean_linker_2, # of connection points: 2
#     Edge 88, Type (0, 1), BuildingBlock: XUDNAN_clean_linker_2, # of connection points: 2
#     Edge 89, Type (0, 1), BuildingBlock: XUDNAN_clean_linker_2, # of connection points: 2
#     Edge 90, Type (0, 1), BuildingBlock: XUDNAN_clean_linker_2, # of connection points: 2
#     Edge 91, Type (0, 1), BuildingBlock: XUDNAN_clean_linker_2, # of connection points: 2
#     Edge 92, Type (0, 1), BuildingBlock: XUDNAN_clean_linker_2, # of connection points: 2
#     Edge 93, Type (0, 1), BuildingBlock: XUDNAN_clean_linker_2, # of connection points: 2
#     Edge 94, Type (0, 1), BuildingBlock: XUDNAN_clean_linker_2, # of connection points: 2
#     Edge 95, Type (0, 1), BuildingBlock: XUDNAN_clean_linker_2, # of connection points: 2
#     Edge 96, Type (0, 1), BuildingBlock: XUDNAN_clean_linker_2, # of connection points: 2
#     Edge 97, Type (0, 1), BuildingBlock: XUDNAN_clean_linker_2, # of connection points: 2
#     Edge 98, Type (0, 1), BuildingBlock: XUDNAN_clean_linker_2, # of connection points: 2
#     Edge 99, Type (0, 1), BuildingBlock: XUDNAN_clean_linker_2, # of connection points: 2
#     Edge 100, Type (0, 1), BuildingBlock: XUDNAN_clean_linker_2, # of connection points: 2
#     Edge 101, Type (0, 1), BuildingBlock: XUDNAN_clean_linker_2, # of connection points: 2
#     Edge 102, Type (0, 1), BuildingBlock: XUDNAN_clean_linker_2, # of connection points: 2
#     Edge 103, Type (0, 1), BuildingBlock: XUDNAN_clean_linker_2, # of connection points: 2
#     Edge 104, Type (0, 1), BuildingBlock: XUDNAN_clean_linker_2, # of connection points: 2
#     Edge 105, Type (0, 1), BuildingBlock: XUDNAN_clean_linker_2, # of connection points: 2
#     Edge 106, Type (0, 1), BuildingBlock: XUDNAN_clean_linker_2, # of connection points: 2
#     Edge 107, Type (0, 1), BuildingBlock: XUDNAN_clean_linker_2, # of connection points: 2
#     Edge 108, Type (0, 1), BuildingBlock: XUDNAN_clean_linker_2, # of connection points: 2
#     Edge 109, Type (0, 1), BuildingBlock: XUDNAN_clean_linker_2, # of connection points: 2
#     Edge 110, Type (0, 1), BuildingBlock: XUDNAN_clean_linker_2, # of connection points: 2
#     Edge 111, Type (0, 1), BuildingBlock: XUDNAN_clean_linker_2, # of connection points: 2
#     Edge 112, Type (0, 1), BuildingBlock: XUDNAN_clean_linker_2, # of connection points: 2
#     Edge 113, Type (0, 1), BuildingBlock: XUDNAN_clean_linker_2, # of connection points: 2
#     Edge 114, Type (0, 1), BuildingBlock: XUDNAN_clean_linker_2, # of connection points: 2
#     Edge 115, Type (0, 1), BuildingBlock: XUDNAN_clean_linker_2, # of connection points: 2
#     Edge 116, Type (0, 1), BuildingBlock: XUDNAN_clean_linker_2, # of connection points: 2
#     Edge 117, Type (0, 1), BuildingBlock: XUDNAN_clean_linker_2, # of connection points: 2
#     Edge 118, Type (0, 1), BuildingBlock: XUDNAN_clean_linker_2, # of connection points: 2
#     Edge 119, Type (0, 1), BuildingBlock: XUDNAN_clean_linker_2, # of connection points: 2
#     Edge 120, Type (0, 1), BuildingBlock: XUDNAN_clean_linker_2, # of connection points: 2
#     Edge 121, Type (0, 1), BuildingBlock: XUDNAN_clean_linker_2, # of connection points: 2
#     Edge 122, Type (0, 1), BuildingBlock: XUDNAN_clean_linker_2, # of connection points: 2
#     Edge 123, Type (0, 1), BuildingBlock: XUDNAN_clean_linker_2, # of connection points: 2
#     Edge 124, Type (0, 1), BuildingBlock: XUDNAN_clean_linker_2, # of connection points: 2
#     Edge 125, Type (0, 1), BuildingBlock: XUDNAN_clean_linker_2, # of connection points: 2
#     Edge 126, Type (0, 1), BuildingBlock: XUDNAN_clean_linker_2, # of connection points: 2
#     Edge 127, Type (0, 1), BuildingBlock: XUDNAN_clean_linker_2, # of connection points: 2
#     Edge 128, Type (0, 1), BuildingBlock: XUDNAN_clean_linker_2, # of connection points: 2
#     Edge 129, Type (0, 1), BuildingBlock: XUDNAN_clean_linker_2, # of connection points: 2
#     Edge 130, Type (0, 1), BuildingBlock: XUDNAN_clean_linker_2, # of connection points: 2
#     Edge 131, Type (0, 1), BuildingBlock: XUDNAN_clean_linker_2, # of connection points: 2
#     Edge 132, Type (0, 1), BuildingBlock: XUDNAN_clean_linker_2, # of connection points: 2
#     Edge 133, Type (0, 1), BuildingBlock: XUDNAN_clean_linker_2, # of connection points: 2
#     Edge 134, Type (0, 1), BuildingBlock: XUDNAN_clean_linker_2, # of connection points: 2
#     Edge 135, Type (0, 1), BuildingBlock: XUDNAN_clean_linker_2, # of connection points: 2
# Relax obj value: 0.136
# Max RMSD: 0.323
# Mean RMSD: 0.168
data_MOF--net-gar--node1-GALJAG_clean_sbu_0--node2-KUMBOL_clean_sbu_0--edge1-XUDNAN_clean_linker_2
_symmetry_space_group_name_H-M    P1
_symmetry_Int_Tables_number       1
_symmetry_cell_setting            triclinic
loop_
_symmetry_equiv_pos_as_xyz
'x, y, z'
_cell_length_a     61.260865
_cell_length_b     56.116993
_cell_length_c     56.237935
_cell_angle_alpha  100.06371
_cell_angle_beta   93.58897
_cell_angle_gamma 101.65048
loop_
_atom_site_label
_atom_site_type_symbol
_atom_site_fract_x
_atom_site_fract_y
_atom_site_fract_z
_atom_type_partial_charge
In0 In 0.12535 0.33698 0.39802 0.0
O1 O 0.13573 0.31979 0.36302 0.0
O2 O 0.15776 0.35252 0.38316 0.0
C3 C 0.08305 0.33451 0.38124 0.0
C4 C 0.12753 0.29776 0.41823 0.0
C5 C 0.12977 0.38086 0.42662 0.0
O6 O 0.09848 0.33391 0.36749 0.0
O7 O 0.08892 0.33604 0.40341 0.0
O8 O 0.12951 0.3613 0.43492 0.0
O9 O 0.12984 0.37848 0.4039 0.0
C10 C 0.15358 0.33586 0.36427 0.0
O11 O 0.14283 0.31723 0.42335 0.0
O12 O 0.11186 0.29833 0.40293 0.0
In13 In 1.00641 0.76326 0.66614 0.0
O14 O 0.01161 0.76588 0.6277 0.0
O15 O 0.01525 0.79976 0.65333 0.0
C16 C 0.99223 0.71426 0.6528 0.0
C17 C 0.04858 0.77145 0.68611 0.0
C18 C 0.96978 0.77216 0.68482 0.0
O19 O 0.99107 0.72881 0.63824 0.0
O20 O 0.99971 0.72472 0.67436 0.0
O21 O 0.98558 0.76797 0.69791 0.0
O22 O 0.9735 0.77359 0.66333 0.0
C23 C 0.01605 0.78926 0.63171 0.0
O24 O 0.03576 0.78561 0.69354 0.0
O25 O 0.03971 0.75308 0.66976 0.0
In26 In 0.6205 0.83572 0.89881 0.0
O27 O 0.63539 0.82215 0.86475 0.0
O28 O 0.6571 0.84083 0.89682 0.0
C29 C 0.58419 0.83991 0.87309 0.0
C30 C 0.62059 0.79916 0.92295 0.0
C31 C 0.62578 0.88061 0.92537 0.0
O32 O 0.60378 0.84819 0.8683 0.0
O33 O 0.58273 0.82748 0.88983 0.0
O34 O 0.61146 0.86241 0.92912 0.0
O35 O 0.63812 0.87581 0.90889 0.0
C36 C 0.65514 0.83006 0.87494 0.0
O37 O 0.62873 0.82154 0.93232 0.0
O38 O 0.61136 0.7952 0.90149 0.0
In39 In 0.50502 0.2631 0.17413 0.0
O40 O 0.48585 0.23395 0.14251 0.0
O41 O 0.50435 0.2226 0.17025 0.0
C42 C 0.51093 0.29861 0.14803 0.0
C43 C 0.47232 0.26823 0.20207 0.0
C44 C 0.54626 0.26148 0.19117 0.0
O45 O 0.50868 0.27602 0.13867 0.0
O46 O 0.50976 0.30327 0.17068 0.0
O47 O 0.52926 0.25473 0.20189 0.0
O48 O 0.54265 0.27043 0.17263 0.0
C49 C 0.49208 0.21645 0.15041 0.0
O50 O 0.49239 0.27844 0.20992 0.0
O51 O 0.46922 0.25702 0.18032 0.0
In52 In 0.10302 0.81703 0.12145 0.0
O53 O 0.10092 0.78507 0.08726 0.0
O54 O 0.0994 0.77521 0.12178 0.0
C55 C 0.09994 0.86103 0.10468 0.0
C56 C 0.06185 0.80833 0.1377 0.0
C57 C 0.14354 0.82413 0.14984 0.0
O58 O 0.10444 0.84251 0.09094 0.0
O59 O 0.09788 0.85734 0.12601 0.0
O60 O 0.12481 0.82137 0.15838 0.0
O61 O 0.14196 0.82427 0.1273 0.0
C62 C 0.09877 0.7676 0.09923 0.0
O63 O 0.07902 0.8209 0.1513 0.0
O64 O 0.0654 0.80071 0.11612 0.0
In65 In 0.52132 0.77068 0.43598 0.0
O66 O 0.54141 0.75915 0.40362 0.0
O67 O 0.55929 0.78547 0.43355 0.0
C68 C 0.47931 0.76821 0.41072 0.0
C69 C 0.52534 0.72924 0.45687 0.0
C70 C 0.52866 0.82016 0.45682 0.0
O71 O 0.49601 0.76244 0.40091 0.0
O72 O 0.48308 0.77402 0.43358 0.0
O73 O 0.52191 0.80342 0.46893 0.0
O74 O 0.53184 0.81169 0.43529 0.0
C75 C 0.5601 0.77268 0.41296 0.0
O76 O 0.5287 0.75094 0.46948 0.0
O77 O 0.51843 0.7286 0.43513 0.0
In78 In 0.60255 0.31811 0.62291 0.0
O79 O 0.59823 0.28214 0.59155 0.0
O80 O 0.60363 0.27874 0.62808 0.0
C81 C 0.60048 0.35906 0.6006 0.0
C82 C 0.56121 0.3106 0.6393 0.0
C83 C 0.64268 0.32808 0.65237 0.0
O84 O 0.60564 0.33938 0.58982 0.0
O85 O 0.597 0.35826 0.62236 0.0
O86 O 0.62372 0.32562 0.66039 0.0
O87 O 0.64176 0.32678 0.62962 0.0
C88 C 0.60003 0.26762 0.60624 0.0
O89 O 0.57819 0.32476 0.65204 0.0
O90 O 0.56501 0.30091 0.61842 0.0
In91 In 0.02373 0.27156 0.93353 0.0
O92 O 0.03273 0.25722 0.96933 0.0
O93 O 0.02161 0.23004 0.93797 0.0
C94 C 0.03055 0.32101 0.95458 0.0
C95 C 0.06198 0.27194 0.90946 0.0
C96 C 0.98104 0.26966 0.9097 0.0
O97 O 0.02412 0.3041 0.96654 0.0
O98 O 0.03402 0.31278 0.93308 0.0
O99 O 0.99747 0.26509 0.89854 0.0
O100 O 0.98566 0.27354 0.93243 0.0
C101 C 0.0293 0.23439 0.96003 0.0
O102 O 0.04424 0.25532 0.90338 0.0
O103 O 0.06034 0.28853 0.92708 0.0
In104 In 0.43209 0.05405 0.31058 0.0
O105 O 0.45131 0.03337 0.28537 0.0
O106 O 0.44272 0.06596 0.27611 0.0
C107 C 0.45465 0.06065 0.35317 0.0
C108 C 0.4097 0.08945 0.31689 0.0
C109 C 0.40379 1.01037 0.30243 0.0
O110 O 0.46498 0.06218 0.33456 0.0
O111 O 0.43373 0.05748 0.34991 0.0
O112 O 0.40084 0.02707 0.29098 0.0
O113 O 0.42098 0.01582 0.31752 0.0
C114 C 0.4507 0.04701 0.26991 0.0
O115 O 0.40086 0.06693 0.31586 0.0
O116 O 0.43049 0.09435 0.31464 0.0
In117 In 0.29843 0.1976 0.51268 0.0
O118 O 0.30546 0.23133 0.54676 0.0
O119 O 0.29379 0.19453 0.55129 0.0
C120 C 0.30734 0.21737 0.47173 0.0
C121 C 0.3323 0.17393 0.51555 0.0
C122 C 0.25697 0.16669 0.50413 0.0
O123 O 0.29092 0.22123 0.48332 0.0
O124 O 0.31947 0.20577 0.48186 0.0
O125 O 0.27498 0.15914 0.50298 0.0
O126 O 0.25972 0.19003 0.50881 0.0
C127 C 0.30004 0.2169 0.56153 0.0
O128 O 0.31402 0.16418 0.50248 0.0
O129 O 0.33356 0.19569 0.52715 0.0
In130 In 0.18657 0.01838 0.77854 0.0
O131 O 0.15368 0.0215 0.75304 0.0
O132 O 0.17934 1.01246 0.7336 0.0
C133 C 0.1624 0.01949 0.82341 0.0
C134 C 0.21348 0.97881 0.77564 0.0
C135 C 0.21196 0.06813 0.78018 0.0
O136 O 0.15605 1.00469 0.80314 0.0
O137 O 0.18078 0.03372 0.82138 0.0
O138 O 0.21875 0.05326 0.79194 0.0
O139 O 0.19333 0.05798 0.76823 0.0
C140 C 0.16007 0.01764 0.73186 0.0
O141 O 0.22015 1.00172 0.78472 0.0
O142 O 0.19301 0.97514 0.7674 0.0
In143 In 0.3346 0.94567 0.02085 0.0
O144 O 0.32481 0.91567 0.04222 0.0
O145 O 0.33429 0.95348 0.06101 0.0
C146 C 0.33901 0.92397 0.97675 0.0
C147 C 0.29825 0.96215 0.01186 0.0
C148 C 0.37633 0.9703 0.02916 0.0
O149 O 0.33837 0.91191 0.99384 0.0
O150 O 0.3365 0.94591 0.98215 0.0
O151 O 0.36031 0.98111 0.03287 0.0
O152 O 0.37122 0.94703 0.02286 0.0
C153 C 0.32786 0.93095 0.06219 0.0
O154 O 0.31764 0.97542 0.01272 0.0
O155 O 0.2972 0.94042 0.0156 0.0
In156 In 0.32935 0.39256 0.04114 0.0
O157 O 0.3181 0.35863 0.05996 0.0
O158 O 0.33506 0.39282 0.08147 0.0
C159 C 0.32588 0.36947 0.9944 0.0
C160 C 0.2904 0.40881 0.03847 0.0
C161 C 0.37107 0.42298 0.04489 0.0
O162 O 0.33276 0.35972 0.01131 0.0
O163 O 0.32198 0.39072 1.00117 0.0
O164 O 0.35406 0.4304 0.05219 0.0
O165 O 0.3672 0.40015 0.03566 0.0
C166 C 0.32537 0.37069 0.08099 0.0
O167 O 0.30882 0.42339 0.04709 0.0
O168 O 0.29171 0.38657 0.03198 0.0
In169 In 0.78657 0.13841 0.04371 0.0
O170 O 0.80539 0.1082 0.04492 0.0
O171 O 0.82296 0.14582 0.05691 0.0
C172 C 0.74798 0.10765 0.02494 0.0
C173 C 0.77637 0.16652 0.08263 0.0
C174 C 0.79715 0.16608 0.01096 0.0
O175 O 0.75509 0.11055 0.04706 0.0
O176 O 0.76125 0.11869 0.01225 0.0
O177 O 0.79313 0.1748 0.03205 0.0
O178 O 0.79745 0.14334 1.00683 0.0
C179 C 0.82373 0.12327 0.05278 0.0
O180 O 0.76923 0.16764 0.06143 0.0
O181 O 0.78767 0.15025 0.08416 0.0
In182 In 0.20736 0.54927 0.24444 0.0
O183 O 0.23498 0.53051 0.23449 0.0
O184 O 0.20166 0.50841 0.22956 0.0
C185 C 0.2291 0.59519 0.26059 0.0
C186 C 0.18325 0.5576 0.20791 0.0
C187 C 0.19528 0.54178 0.2876 0.0
O188 O 0.23832 0.57969 0.24818 0.0
O189 O 0.20895 0.5877 0.26394 0.0
O190 O 0.18143 0.53626 0.2688 0.0
O191 O 0.21549 0.54892 0.28403 0.0
C192 C 0.22225 0.50931 0.228 0.0
O193 O 0.17513 0.55317 0.22711 0.0
O194 O 0.20356 0.55704 0.20655 0.0
In195 In 0.82957 0.8952 0.54223 0.0
O196 O 0.8163 0.86016 0.55928 0.0
O197 O 0.8356 0.89256 0.58177 0.0
C198 C 0.82692 0.87683 0.49404 0.0
C199 C 0.79317 0.91641 0.54525 0.0
C200 C 0.87215 0.92403 0.54676 0.0
O201 O 0.83092 0.86402 0.50961 0.0
O202 O 0.82416 0.89815 0.50296 0.0
O203 O 0.8553 0.93216 0.55345 0.0
O204 O 0.86781 0.90106 0.53801 0.0
C205 C 0.82413 0.87103 0.58061 0.0
O206 O 0.81255 0.92758 0.55477 0.0
O207 O 0.79207 0.89462 0.53403 0.0
In208 In 0.94622 0.07386 0.28149 0.0
O209 O 0.98095 0.07844 0.26169 0.0
O210 O 0.95179 0.06505 0.23831 0.0
C211 C 0.97462 0.07462 0.32654 0.0
C212 C 0.92334 0.11689 0.27874 0.0
C213 C 0.91576 0.0263 0.2809 0.0
O214 O 0.96745 0.05604 0.30968 0.0
O215 O 0.96888 0.09348 0.32038 0.0
O216 O 0.92613 0.03145 0.26302 0.0
O217 O 0.91918 0.04528 0.29764 0.0
C218 C 0.97299 0.07156 0.23951 0.0
O219 O 0.91932 0.10198 0.29336 0.0
O220 O 0.93835 0.1103 0.26619 0.0
In221 In 0.29134 0.63417 0.54424 0.0
O222 O 0.3095 0.60251 0.54312 0.0
O223 O 0.32828 0.63959 0.55075 0.0
C224 C 0.25109 0.60486 0.53098 0.0
C225 C 0.29751 0.6704 0.58236 0.0
C226 C 0.28925 0.65809 0.508 0.0
O227 O 0.26607 0.60743 0.51675 0.0
O228 O 0.2572 0.61504 0.553 0.0
O229 O 0.27922 0.66229 0.52667 0.0
O230 O 0.3002 0.64125 0.50728 0.0
C231 C 0.32851 0.61703 0.54679 0.0
O232 O 0.30354 0.67319 0.5619 0.0
O233 O 0.28764 0.64862 0.58398 0.0
In234 In 0.44659 0.57446 0.77991 0.0
O235 O 0.41576 0.59626 0.79026 0.0
O236 O 0.43925 0.61492 0.77199 0.0
C237 C 0.42165 0.52366 0.77565 0.0
C238 C 0.47326 0.57476 0.73793 0.0
C239 C 0.47153 0.57534 0.82713 0.0
O240 O 0.4154 0.53867 0.76348 0.0
O241 O 0.4398 0.53396 0.78851 0.0
O242 O 0.48064 0.57814 0.8078 0.0
O243 O 0.45072 0.57404 0.8231 0.0
C244 C 0.42106 0.61571 0.78133 0.0
O245 O 0.47702 0.59084 0.7575 0.0
O246 O 0.45625 0.55798 0.73927 0.0
In247 In 0.71415 0.05113 0.74338 0.0
O248 O 0.73471 0.02302 0.73331 0.0
O249 O 0.70049 1.01025 0.73928 0.0
C250 C 0.74357 0.09329 0.75772 0.0
C251 C 0.6954 0.05518 0.70127 0.0
C252 C 0.69491 0.05397 0.78428 0.0
O253 O 0.749 0.07293 0.75874 0.0
O254 O 0.72421 0.09203 0.74799 0.0
O255 O 0.68381 0.05044 0.76382 0.0
O256 O 0.71557 0.05472 0.78398 0.0
C257 C 0.7188 1.00486 0.73381 0.0
O258 O 0.68769 0.06154 0.72111 0.0
O259 O 0.71322 0.04726 0.70266 0.0
In260 In 0.79544 0.6973 0.01291 0.0
O261 O 0.81281 0.66556 1.00474 0.0
O262 O 0.83271 0.69993 0.0242 0.0
C263 C 0.75416 0.66682 1.00711 0.0
C264 C 0.79742 0.71688 0.0616 0.0
C265 C 0.80135 0.71175 0.969 0.0
O266 O 0.77225 0.65988 0.01011 0.0
O267 O 0.75651 0.68967 1.00657 0.0
O268 O 0.79663 0.7266 0.98677 0.0
O269 O 0.80269 0.69107 0.97391 0.0
C270 C 0.83176 0.67753 0.01474 0.0
O271 O 0.80202 0.731 0.04635 0.0
O272 O 0.7918 0.69424 0.05203 0.0
In273 In 0.93036 0.55194 0.81634 0.0
O274 O 0.89858 0.56283 0.8273 0.0
O275 O 0.92618 0.5909 0.82208 0.0
C276 C 0.91246 0.50436 0.80833 0.0
C277 C 0.943 0.55265 0.77225 0.0
C278 C 0.95621 0.56146 0.85712 0.0
O279 O 0.90108 0.52006 0.80476 0.0
O280 O 0.93285 0.51274 0.81582 0.0
O281 O 0.96197 0.57188 0.83961 0.0
O282 O 0.9374 0.54667 0.85403 0.0
C283 C 0.90601 0.58533 0.82647 0.0
O284 O 0.95476 0.54657 0.78845 0.0
O285 O 0.92555 0.55937 0.77859 0.0
In286 In 0.83614 0.4376 0.52246 0.0
O287 O 0.82148 0.40262 0.53593 0.0
O288 O 0.83486 0.43602 0.56169 0.0
C289 C 0.84259 0.41394 0.47941 0.0
C290 C 0.80251 0.45909 0.51496 0.0
C291 C 0.8762 0.46746 0.53415 0.0
O292 O 0.85094 0.40965 0.49884 0.0
O293 O 0.82969 0.42887 0.48175 0.0
O294 O 0.85867 0.47537 0.53823 0.0
O295 O 0.87331 0.44459 0.52604 0.0
C296 C 0.82547 0.41333 0.55792 0.0
O297 O 0.82218 0.46827 0.51094 0.0
O298 O 0.7998 0.43881 0.52237 0.0
In299 In 0.6858 0.51871 0.27702 0.0
O300 O 0.71984 0.50194 0.27951 0.0
O301 O 0.69083 0.47502 0.27442 0.0
C302 C 0.71526 0.56615 0.27783 0.0
C303 C 0.65839 0.51917 0.23105 0.0
C304 C 0.66221 0.52009 0.32223 0.0
O305 O 0.71533 0.54612 0.26353 0.0
O306 O 0.70089 0.56256 0.29277 0.0
O307 O 0.65557 0.50534 0.30195 0.0
O308 O 0.68083 0.53404 0.32018 0.0
C309 C 0.71212 0.47875 0.27678 0.0
O310 O 0.65507 0.52823 0.25248 0.0
O311 O 0.67447 0.50824 0.23244 0.0
Gd312 Gd 0.09955 0.06609 0.0484 0.0
Gd313 Gd 0.04572 0.03795 0.02266 0.0
C314 C 0.02377 0.95515 0.02172 0.0
C315 C 0.01703 0.93807 0.97855 0.0
C316 C 0.0309 0.98248 0.99267 0.0
C317 C 0.03128 0.97908 0.01662 0.0
C318 C 0.023 0.96202 0.97348 0.0
C319 C 0.01744 0.93464 1.0026 0.0
C320 C 0.02127 0.95268 0.04577 0.0
C321 C 0.02494 0.97381 0.06389 0.0
N322 N 0.03629 0.99937 0.0348 0.0
C323 C 0.03204 0.99709 0.05799 0.0
H324 H 0.03438 0.01297 0.07232 0.0
C325 C 0.03088 1.01032 0.96552 0.0
N326 N 0.03561 1.00597 0.98829 0.0
C327 C 0.02342 0.99062 0.94594 0.0
C328 C 0.01986 0.96634 0.94987 0.0
H329 H 0.0331 0.02913 0.96249 0.0
H330 H 0.01175 0.91618 1.00623 0.0
H331 H 0.10848 0.08693 0.99368 0.0
H332 H 0.01544 0.93466 0.05037 0.0
H333 H 0.02218 0.97223 0.08244 0.0
H334 H 0.01104 0.92217 0.96402 0.0
H335 H 0.10491 0.08412 0.11049 0.0
H336 H 0.13271 0.16448 0.01011 0.0
H337 H 0.12254 0.12508 0.98065 0.0
H338 H 0.13356 0.18622 0.09572 0.0
H339 H 0.02021 0.99421 0.9279 0.0
H340 H 0.01369 0.95112 0.93472 0.0
H341 H 0.13649 0.1869 0.05263 0.0
H342 H 0.11465 0.122 0.14077 0.0
N343 N 0.11058 0.10272 0.03172 0.0
C344 C 0.12656 0.14738 0.01636 0.0
C345 C 0.12094 0.12521 0.99973 0.0
C346 C 0.12426 0.14728 0.04085 0.0
C347 C 0.11609 0.12447 0.04821 0.0
C348 C 0.11315 0.10311 1.00765 0.0
N349 N 0.1067 0.10218 0.07967 0.0
C350 C 0.11399 0.12419 0.07265 0.0
C351 C 0.11408 0.12301 0.12169 0.0
C352 C 0.12015 0.14574 0.11467 0.0
C353 C 0.10797 0.10141 0.10406 0.0
C354 C 0.12063 0.14656 0.09005 0.0
H355 H 0.12526 0.16245 0.12844 0.0
O356 O 0.1196 0.05807 0.07805 0.0
O357 O 0.07334 0.03155 0.04686 0.0
O358 O 0.04029 0.05284 0.06267 0.0
O359 O 0.07652 0.0633 0.0806 0.0
O360 O 0.1036 0.02658 0.03558 0.0
O361 O 0.13578 0.07436 0.04891 0.0
O362 O 0.02139 0.06154 0.02479 0.0
O363 O 0.06816 0.07574 0.03368 0.0
O364 O 0.10531 0.05156 0.00791 0.0
O365 O 0.06926 0.03179 0.99112 0.0
O366 O 0.05303 0.0654 0.99802 0.0
O367 O 0.01012 0.02187 0.01806 0.0
C368 C 0.08467 0.01502 0.04085 0.0
C369 C 0.12843 0.16903 0.08258 0.0
C370 C 0.13018 0.1694 0.05807 0.0
C371 C 0.13811 0.06718 0.06959 0.0
C372 C 0.15999 0.06782 0.08164 0.0
C373 C 0.16465 0.07546 0.10687 0.0
C374 C 0.17615 0.0599 0.06778 0.0
C375 C 0.19677 0.05872 0.07902 0.0
C376 C 0.18552 0.075 0.11812 0.0
C377 C 0.20151 0.06639 0.10429 0.0
C378 C 0.05449 0.06046 0.08267 0.0
C379 C 0.06478 0.08372 0.01397 0.0
C380 C 1.00435 0.04298 0.02037 0.0
C381 C 0.9856 0.04471 1.00401 0.0
C382 C 0.98152 0.03214 0.97979 0.0
C383 C 0.97068 0.05843 0.01376 0.0
C384 C 0.9518 0.06023 0.99948 0.0
C385 C 0.96281 0.03394 0.96532 0.0
C386 C 0.94797 0.04799 0.97505 0.0
C387 C 0.0912 0.03904 0.9885 0.0
H388 H 0.15221 0.08174 0.11779 0.0
H389 H 0.17218 0.05332 0.04835 0.0
H390 H 0.18916 0.08089 0.13759 0.0
H391 H 0.21739 0.0654 0.11326 0.0
H392 H 0.99238 0.02065 0.97219 0.0
H393 H 0.97347 0.06704 0.03285 0.0
H394 H 0.95968 0.02425 0.94662 0.0
H395 H 0.93353 0.04917 0.96354 0.0
Gd396 Gd 0.29104 0.81462 0.31972 0.0
Gd397 Gd 0.32291 0.79951 0.26853 0.0
C398 C 0.30183 0.73347 0.20479 0.0
C399 C 0.33595 0.71798 0.20178 0.0
C400 C 0.3339 0.75219 0.23423 0.0
C401 C 0.31223 0.75148 0.22533 0.0
C402 C 0.34599 0.73536 0.22261 0.0
C403 C 0.31391 0.71705 0.19288 0.0
C404 C 0.27933 0.73186 0.19729 0.0
C405 C 0.26733 0.74671 0.21111 0.0
N406 N 0.30081 0.76715 0.23777 0.0
C407 C 0.27818 0.76389 0.23154 0.0
H408 H 0.26782 0.77361 0.2425 0.0
C409 C 0.36476 0.77073 0.26342 0.0
N410 N 0.34309 0.76909 0.25445 0.0
C411 C 0.3773 0.75431 0.2527 0.0
C412 C 0.36787 0.73652 0.23219 0.0
H413 H 0.3727 0.7852 0.27858 0.0
H414 H 0.3062 0.70322 0.17707 0.0
H415 H 0.34184 0.83678 0.35494 0.0
H416 H 0.27078 0.71831 0.18165 0.0
H417 H 0.24956 0.74464 0.20632 0.0
H418 H 0.34501 0.705 0.19257 0.0
H419 H 0.23961 0.82543 0.30868 0.0
H420 H 0.34314 0.90897 0.39352 0.0
H421 H 0.36051 0.87286 0.38443 0.0
H422 H 0.27332 0.92555 0.36699 0.0
H423 H 0.39438 0.75571 0.26001 0.0
H424 H 0.37769 0.72395 0.22376 0.0
H425 H 0.31123 0.92882 0.38605 0.0
H426 H 0.21967 0.85926 0.31695 0.0
N427 N 0.31276 0.85071 0.34642 0.0
C428 C 0.33457 0.89286 0.38023 0.0
C429 C 0.34432 0.87248 0.3753 0.0
C430 C 0.31379 0.89217 0.36815 0.0
C431 C 0.30307 0.87055 0.35124 0.0
C432 C 0.33323 0.85159 0.35838 0.0
N433 N 0.27128 0.84719 0.32565 0.0
C434 C 0.2818 0.8688 0.3404 0.0
C435 C 0.23724 0.8624 0.32334 0.0
C436 C 0.2483 0.88523 0.33708 0.0
C437 C 0.2488 0.84336 0.31841 0.0
C438 C 0.27063 0.88847 0.34634 0.0
H439 H 0.23919 0.89984 0.34132 0.0
O440 O 0.25943 0.79955 0.332 0.0
O441 O 0.301 0.78477 0.29458 0.0
O442 O 0.29247 0.81189 0.25392 0.0
O443 O 0.27206 0.82267 0.2863 0.0
O444 O 0.26752 0.78097 0.2979 0.0
O445 O 0.29089 0.80469 0.35546 0.0
O446 O 0.35526 0.81792 0.26017 0.0
O447 O 0.31297 0.82848 0.29444 0.0
O448 O 0.32287 0.80043 0.33303 0.0
O449 O 0.33772 0.78356 0.29828 0.0
O450 O 0.34682 0.83059 0.29403 0.0
O451 O 0.32462 0.82078 0.23998 0.0
C452 C 0.28244 0.76989 0.28885 0.0
C453 C 0.28163 0.91029 0.36232 0.0
C454 C 0.30317 0.91213 0.37321 0.0
C455 C 0.26903 0.79859 0.3529 0.0
C456 C 0.25593 0.79 0.37151 0.0
C457 C 0.23524 0.79628 0.37542 0.0
C458 C 0.26375 0.77411 0.38454 0.0
C459 C 0.25079 0.76366 0.40109 0.0
C460 C 0.22254 0.78657 0.39269 0.0
C461 C 0.23025 0.7702 0.40553 0.0
C462 C 0.27499 0.81962 0.26281 0.0
C463 C 0.33171 0.84203 0.30194 0.0
C464 C 0.34648 0.82652 0.24273 0.0
C465 C 0.35758 0.82633 0.22068 0.0
C466 C 0.37106 0.8096 0.21286 0.0
C467 C 0.35441 0.84408 0.20725 0.0
C468 C 0.36408 0.84508 0.18567 0.0
C469 C 0.38102 0.81072 0.19124 0.0
C470 C 0.37736 0.82829 0.17745 0.0
C471 C 0.33815 0.78913 0.32224 0.0
H472 H 0.22897 0.80859 0.3652 0.0
H473 H 0.27979 0.76937 0.38133 0.0
H474 H 0.20661 0.79144 0.39587 0.0
H475 H 0.22005 0.7623 0.41846 0.0
H476 H 0.37382 0.79579 0.22325 0.0
H477 H 0.34375 0.8568 0.21329 0.0
H478 H 0.39137 0.79783 0.18506 0.0
H479 H 0.38475 0.82877 0.1605 0.0
Gd480 Gd 0.52934 0.04047 0.55346 0.0
Gd481 Gd 0.5837 0.04056 0.53139 0.0
C482 C 0.62455 0.12008 0.54148 0.0
C483 C 0.62208 0.12807 0.50049 0.0
C484 C 0.60462 0.08766 0.50856 0.0
C485 C 0.61159 0.09584 0.53304 0.0
C486 C 0.61073 0.1034 0.4919 0.0
C487 C 0.62902 0.13638 0.52525 0.0
C488 C 0.63344 0.12692 0.56579 0.0
C489 C 0.63013 0.1095 0.5808 0.0
N490 N 0.6072 0.07957 0.54831 0.0
C491 C 0.61707 0.08576 0.57173 0.0
H492 H 0.61501 0.07276 0.58381 0.0
C493 C 0.59263 0.05321 0.47658 0.0
N494 N 0.59407 0.06358 0.50075 0.0
C495 C 0.59812 0.06807 0.45938 0.0
C496 C 0.60658 0.09345 0.46705 0.0
H497 H 0.58637 0.03349 0.47039 0.0
H498 H 0.63867 0.15514 0.53151 0.0
H499 H 0.51178 0.99749 0.50111 0.0
H500 H 0.64346 0.14534 0.57295 0.0
H501 H 0.63746 0.11445 0.59946 0.0
H502 H 0.62655 0.14052 0.488 0.0
H503 H 0.52602 0.05408 0.61414 0.0
H504 H 0.47155 0.93322 0.51837 0.0
H505 H 0.48752 0.95665 0.48796 0.0
H506 H 0.4749 0.95127 0.60477 0.0
H507 H 0.59589 0.0599 0.44023 0.0
H508 H 0.61103 0.10491 0.45371 0.0
H509 H 0.4678 0.93102 0.56182 0.0
H510 H 0.51064 0.03302 0.64633 0.0
N511 N 0.50791 0.99969 0.53868 0.0
C512 C 0.48166 0.9518 0.52426 0.0
C513 C 0.49038 0.96505 0.50706 0.0
C514 C 0.48631 0.96256 0.54889 0.0
C515 C 0.4996 0.98689 0.55571 0.0
C516 C 0.50355 0.98891 0.51461 0.0
N517 N 0.51617 0.0219 0.58613 0.0
C518 C 0.50392 0.99823 0.58002 0.0
C519 C 0.50886 0.02292 0.62783 0.0
C520 C 0.49762 0.99815 0.62208 0.0
C521 C 0.51758 0.03474 0.60952 0.0
C522 C 0.49462 0.98562 0.59794 0.0
H523 H 0.4907 0.98908 0.63629 0.0
O524 O 0.51526 0.06874 0.57462 0.0
O525 O 0.5645 0.06409 0.55468 0.0
O526 O 0.58676 0.03785 0.57024 0.0
O527 O 0.55173 0.0367 0.58476 0.0
O528 O 0.53817 0.07936 0.54607 0.0
O529 O 0.49555 0.0438 0.54277 0.0
O530 O 0.59591 1.01269 0.50739 0.0
O531 O 0.54919 0.01712 0.5307 0.0
O532 O 0.52471 0.042 0.51535 0.0
O533 O 0.55803 0.03841 0.49898 0.0
O534 O 0.57548 1.00309 0.54183 0.0
O535 O 0.61754 0.03477 0.53902 0.0
C536 C 0.55952 0.08385 0.54983 0.0
C537 C 0.48198 0.96123 0.59121 0.0
C538 C 0.47785 0.94973 0.56676 0.0
C539 C 0.49665 0.06292 0.56014 0.0
C540 C 0.47596 0.06735 0.57008 0.0
C541 C 0.47015 0.0615 0.5924 0.0
C542 C 0.46248 0.07935 0.55733 0.0
C543 C 0.44351 0.08606 0.56698 0.0
C544 C 0.4512 0.06795 0.60203 0.0
C545 C 0.43802 0.08032 0.58952 0.0
C546 C 0.5728 0.03534 0.58692 0.0
C547 C 0.55425 0.99751 0.53593 0.0
C548 C 0.61494 0.01638 0.52066 0.0
C549 C 0.63452 1.01032 0.50895 0.0
C550 C 0.63697 1.01229 0.4847 0.0
C551 C 0.64968 0.99982 0.5215 0.0
C552 C 0.66684 0.99075 0.50972 0.0
C553 C 0.6541 1.00361 0.47303 0.0
C554 C 0.66882 0.99277 0.48533 0.0
C555 C 0.53687 0.04062 0.49717 0.0
H556 H 0.48027 0.05225 0.60249 0.0
H557 H 0.46712 0.0841 0.54016 0.0
H558 H 0.44678 0.06349 0.61931 0.0
H559 H 0.42337 0.08511 0.59729 0.0
H560 H 0.62543 0.02008 0.47465 0.0
H561 H 0.64764 0.99794 0.54015 0.0
H562 H 0.65586 1.00508 0.45428 0.0
H563 H 0.68199 0.98627 0.47585 0.0
Gd564 Gd 0.34402 0.28678 0.78351 0.0
Gd565 Gd 0.29073 0.30398 0.77546 0.0
C566 C 0.25252 0.29501 0.70029 0.0
C567 C 0.24935 0.33718 0.69908 0.0
C568 C 0.26855 0.32789 0.73443 0.0
C569 C 0.26463 0.30329 0.72352 0.0
C570 C 0.26051 0.34508 0.7226 0.0
C571 C 0.24541 0.31217 0.68792 0.0
C572 C 0.24708 0.26963 0.69061 0.0
C573 C 0.25286 0.25316 0.70444 0.0
N574 N 0.27124 0.28719 0.73629 0.0
C575 C 0.26457 0.26229 0.72742 0.0
H576 H 0.26958 0.24916 0.73699 0.0
C577 C 0.28055 0.35829 0.77003 0.0
N578 N 0.27887 0.33473 0.75734 0.0
C579 C 0.27309 0.37607 0.75901 0.0
C580 C 0.26321 0.3695 0.73508 0.0
H581 H 0.28809 0.36347 0.78861 0.0
H582 H 0.23623 0.30616 0.67005 0.0
H583 H 0.36395 0.34086 0.82288 0.0
H584 H 0.23793 0.26253 0.67283 0.0
H585 H 0.24854 0.2334 0.69735 0.0
H586 H 0.24316 0.35013 0.68965 0.0
H587 H 0.34403 0.22633 0.77038 0.0
H588 H 0.40807 0.32885 0.87868 0.0
H589 H 0.39101 0.35735 0.85848 0.0
H590 H 0.40002 0.24083 0.86318 0.0
H591 H 0.27485 0.39478 0.76902 0.0
H592 H 0.25721 0.38323 0.72665 0.0
H593 H 0.40997 0.28526 0.88139 0.0
H594 H 0.35858 0.19497 0.78847 0.0
N595 N 0.36533 0.30323 0.82166 0.0
C596 C 0.39607 0.32147 0.86281 0.0
C597 C 0.38655 0.33759 0.85144 0.0
C598 C 0.3896 0.29598 0.85391 0.0
C599 C 0.37431 0.28737 0.8328 0.0
C600 C 0.37117 0.3281 0.83092 0.0
N601 N 0.35634 0.25558 0.80073 0.0
C602 C 0.36916 0.26262 0.82232 0.0
C603 C 0.36157 0.21391 0.7983 0.0
C604 C 0.37412 0.22075 0.82092 0.0
C605 C 0.35325 0.23174 0.78817 0.0
C606 C 0.37853 0.24548 0.83296 0.0
H607 H 0.38093 0.20702 0.82854 0.0
O608 O 0.36319 0.27133 0.75564 0.0
O609 O 0.31799 0.29117 0.75535 0.0
O610 O 0.28519 0.26232 0.77686 0.0
O611 O 0.31801 0.25354 0.79261 0.0
O612 O 0.32943 0.25823 0.75104 0.0
O613 O 0.37556 0.30851 0.77549 0.0
O614 O 0.26955 0.32037 0.79997 0.0
O615 O 0.3161 0.29809 0.80347 0.0
O616 O 0.3494 0.32927 0.78292 0.0
O617 O 0.31641 0.33745 0.76694 0.0
O618 O 0.3082 0.33193 0.80811 0.0
O619 O 0.25967 0.28174 0.78513 0.0
C620 C 0.31695 0.27041 0.74119 0.0
C621 C 0.39275 0.25372 0.85469 0.0
C622 C 0.39843 0.27899 0.86504 0.0
C623 C 0.37927 0.29093 0.75884 0.0
C624 C 0.4023 0.2866 0.75888 0.0
C625 C 0.41201 0.27896 0.77869 0.0
C626 C 0.41442 0.28915 0.73854 0.0
C627 C 0.43605 0.28406 0.73819 0.0
C628 C 0.43337 0.27382 0.7783 0.0
C629 C 0.44531 0.27632 0.75821 0.0
C630 C 0.296 0.24668 0.78541 0.0
C631 C 0.31805 0.318 0.81901 0.0
C632 C 0.25484 0.30017 0.79977 0.0
C633 C 0.23102 0.30258 0.80002 0.0
C634 C 0.22228 0.31491 0.78332 0.0
C635 C 0.21754 0.29478 0.81825 0.0
C636 C 0.1958 0.30003 0.81992 0.0
C637 C 0.20098 0.31995 0.7848 0.0
C638 C 0.18798 0.31279 0.80292 0.0
C639 C 0.33831 0.34473 0.77424 0.0
H640 H 0.40306 0.2768 0.79437 0.0
H641 H 0.40699 0.29479 0.72301 0.0
H642 H 0.44065 0.26774 0.7936 0.0
H643 H 0.46179 0.27204 0.75819 0.0
H644 H 0.23214 0.32111 0.76936 0.0
H645 H 0.22414 0.28533 0.83136 0.0
H646 H 0.19452 0.32964 0.77186 0.0
H647 H 0.17144 0.31688 0.80332 0.0
Gd648 Gd 0.07353 1.01219 0.51443 0.0
Gd649 Gd 0.06186 0.06841 0.53803 0.0
C650 C 0.07893 0.1078 0.61763 0.0
C651 C 0.04254 0.11339 0.62919 0.0
C652 C 0.04613 0.09231 0.5884 0.0
C653 C 0.06896 0.09555 0.59415 0.0
C654 C 0.03272 0.10149 0.60579 0.0
C655 C 0.06559 0.1165 0.6351 0.0
C656 C 0.10208 0.11124 0.62285 0.0
C657 C 0.11478 0.10292 0.60482 0.0
N658 N 0.08147 0.08712 0.57678 0.0
C659 C 0.10425 0.09115 0.58185 0.0
H660 H 0.11472 0.08503 0.5687 0.0
C661 C 0.01497 0.07934 0.5586 0.0
N662 N 0.0371 0.0809 0.56561 0.0
C663 C 1.001 0.08794 0.57526 0.0
C664 C 0.00988 0.09891 0.59901 0.0
H665 H 1.00804 0.07097 0.54017 0.0
H666 H 0.07299 0.12593 0.65316 0.0
H667 H 0.01969 0.99365 0.48606 0.0
H668 H 0.11032 0.12047 0.64064 0.0
H669 H 0.13275 0.10556 0.60856 0.0
H670 H 0.0325 0.12052 0.64277 0.0
H671 H 0.12754 1.01055 0.51028 0.0
H672 H 0.02242 0.95545 0.41458 0.0
H673 H 1.00067 0.96901 0.44789 0.0
H674 H 0.1005 0.96113 0.40805 0.0
H675 H 0.98342 0.08619 0.56973 0.0
H676 H 0.99905 0.10572 0.61186 0.0
H677 H 0.05961 0.95349 0.39966 0.0
H678 H 0.15147 0.99617 0.47944 0.0
N679 N 0.0529 0.99296 0.47638 0.0
C680 C 0.03112 0.96586 0.4318 0.0
C681 C 0.0188 0.9733 0.45059 0.0
C682 C 0.0545 0.97166 0.43552 0.0
C683 C 0.06509 0.98508 0.4584 0.0
C684 C 0.02993 0.98728 0.4726 0.0
N685 N 0.09785 1.00078 0.48574 0.0
C686 C 0.08819 0.98926 0.46316 0.0
C687 C 0.13376 0.99435 0.47455 0.0
C688 C 0.12424 0.98338 0.45101 0.0
C689 C 0.12021 1.00257 0.4919 0.0
C690 C 0.10119 0.98035 0.44514 0.0
H691 H 0.13473 0.97671 0.43767 0.0
O692 O 0.0899 0.98856 0.53211 0.0
O693 O 0.0727 0.03627 0.5514 0.0
O694 O 0.09818 0.07353 0.53001 0.0
O695 O 0.10007 0.03977 0.50116 0.0
O696 O 0.10145 0.02375 0.54596 0.0
O697 O 0.05633 0.97393 0.51391 0.0
O698 O 0.04526 0.09318 0.52301 0.0
O699 O 0.06283 0.04471 0.50092 0.0
O700 O 0.03738 1.00625 0.52425 0.0
O701 O 0.03595 0.04113 0.55197 0.0
O702 O 0.03384 0.05508 0.5066 0.0
O703 O 0.08096 0.10559 0.53593 0.0
C704 C 0.0915 0.03496 0.56265 0.0
C705 C 0.09076 0.96798 0.42211 0.0
C706 C 0.06748 0.96362 0.41733 0.0
C707 C 0.07326 0.96952 0.52637 0.0
C708 C 0.07934 0.94552 0.52002 0.0
C709 C 0.09711 0.94245 0.50607 0.0
C710 C 0.06915 0.92637 0.53116 0.0
C711 C 0.07697 0.90435 0.52891 0.0
C712 C 0.10505 0.92066 0.50386 0.0
C713 C 0.09519 0.90176 0.51539 0.0
C714 C 0.10889 0.06218 0.5135 0.0
C715 C 0.04392 0.04508 0.48927 0.0
C716 C 0.06325 0.11057 0.52546 0.0
C717 C 0.06052 0.13571 0.52509 0.0
C718 C 0.04104 0.14335 0.53219 0.0
C719 C 0.07559 0.15037 0.51305 0.0
C720 C 0.07081 0.17206 0.50713 0.0
C721 C 0.03647 0.16526 0.52665 0.0
C722 C 0.05114 0.17944 0.51388 0.0
C723 C 0.02698 0.01829 0.54067 0.0
H724 H 0.10529 0.957 0.49747 0.0
H725 H 0.05534 0.9288 0.54184 0.0
H726 H 0.11908 0.91858 0.49351 0.0
H727 H 0.10193 0.8852 0.51387 0.0
H728 H 0.02901 0.13195 0.54113 0.0
H729 H 0.0903 0.14413 0.50692 0.0
H730 H 0.02127 0.17094 0.53173 0.0
H731 H 0.04718 0.19614 0.50927 0.0
Gd732 Gd 0.29398 0.78126 0.77936 0.0
Gd733 Gd 0.34654 0.81437 0.76896 0.0
C734 C 0.35621 0.89387 0.75676 0.0
C735 C 0.36302 0.88923 0.7143 0.0
C736 C 0.35636 0.85318 0.73357 0.0
C737 C 0.35344 0.86801 0.7551 0.0
C738 C 0.36211 0.86385 0.71327 0.0
C739 C 0.36 0.9042 0.73599 0.0
C740 C 0.35666 0.90881 0.77955 0.0
C741 C 0.35576 0.89807 0.80013 0.0
N742 N 0.35033 0.85761 0.77505 0.0
C743 C 0.3527 0.87232 0.79751 0.0
H744 H 0.3525 0.86438 0.81355 0.0
C745 C 0.36244 0.81447 0.71394 0.0
N746 N 0.35552 0.82872 0.73314 0.0
C747 C 0.36865 0.82439 0.69357 0.0
C748 C 0.36794 0.84901 0.693 0.0
H749 H 0.36282 0.79536 0.7143 0.0
H750 H 0.36178 0.92395 0.73684 0.0
H751 H 0.30067 0.73662 0.73157 0.0
H752 H 0.3589 0.92874 0.7816 0.0
H753 H 0.35715 0.90953 0.818 0.0
H754 H 0.36702 0.89767 0.69875 0.0
H755 H 0.28534 0.79418 0.83987 0.0
H756 H 0.29783 0.66952 0.75735 0.0
H757 H 0.30136 0.69291 0.7241 0.0
H758 H 0.28948 0.69082 0.84154 0.0
H759 H 0.37376 0.81298 0.67827 0.0
H760 H 0.37269 0.85662 0.67717 0.0
H761 H 0.29334 0.66892 0.80085 0.0
H762 H 0.28347 0.77326 0.87429 0.0
N763 N 0.29706 0.73942 0.76961 0.0
C764 C 0.29743 0.68903 0.76097 0.0
C765 C 0.29939 0.70216 0.74215 0.0
C766 C 0.29509 0.70119 0.78424 0.0
C767 C 0.29496 0.72677 0.78818 0.0
C768 C 0.29887 0.72727 0.74666 0.0
N769 N 0.29277 0.76388 0.81495 0.0
C770 C 0.29308 0.73932 0.81139 0.0
C771 C 0.28663 0.76362 0.85686 0.0
C772 C 0.28808 0.7389 0.85375 0.0
C773 C 0.28847 0.7757 0.83718 0.0
C774 C 0.29091 0.7263 0.83082 0.0
H775 H 0.28631 0.72949 0.86901 0.0
O776 O 0.26218 0.77313 0.79402 0.0
O777 O 0.31066 0.81986 0.77355 0.0
O778 O 0.34431 0.81798 0.80925 0.0
O779 O 0.30627 0.81032 0.81166 0.0
O780 O 0.27733 0.81411 0.77726 0.0
O781 O 0.26381 0.76585 0.75428 0.0
O782 O 0.37872 0.80563 0.76252 0.0
O783 O 0.3313 0.77803 0.78097 0.0
O784 O 0.29608 0.77638 0.7399 0.0
O785 O 0.32387 0.80865 0.73429 0.0
O786 O 0.35132 0.77558 0.75298 0.0
O787 O 0.37635 0.83421 0.79304 0.0
C788 C 0.2936 0.83106 0.77343 0.0
C789 C 0.29112 0.70099 0.82681 0.0
C790 C 0.29321 0.68849 0.80362 0.0
C791 C 0.2515 0.76526 0.77242 0.0
C792 C 0.22744 0.75554 0.7692 0.0
C793 C 0.21774 0.73866 0.78323 0.0
C794 C 0.21394 0.76424 0.75319 0.0
C795 C 0.19068 0.75595 0.75117 0.0
C796 C 0.19457 0.73013 0.78094 0.0
C797 C 0.18105 0.73868 0.76493 0.0
C798 C 0.32684 0.81878 0.82149 0.0
C799 C 0.34175 0.76297 0.76808 0.0
C800 C 0.38955 0.82291 0.78026 0.0
C801 C 0.41055 0.83811 0.77515 0.0
C802 C 0.41384 0.84308 0.75187 0.0
C803 C 0.4283 0.84603 0.79357 0.0
C804 C 0.44945 0.85814 0.78867 0.0
C805 C 0.43466 0.85545 0.74696 0.0
C806 C 0.45246 0.86277 0.76515 0.0
C807 C 0.30634 0.79057 0.72609 0.0
H808 H 0.2281 0.73217 0.79595 0.0
H809 H 0.22141 0.77779 0.7428 0.0
H810 H 0.18705 0.71714 0.7918 0.0
H811 H 0.16302 0.73232 0.76374 0.0
H812 H 0.40066 0.83699 0.73729 0.0
H813 H 0.42575 0.84215 0.81154 0.0
H814 H 0.43715 0.85879 0.72884 0.0
H815 H 0.46872 0.87132 0.76055 0.0
Gd816 Gd 0.55151 0.07234 0.98399 0.0
Gd817 Gd 0.56671 0.0537 0.04196 0.0
C818 C 0.62516 0.07654 0.10137 0.0
C819 C 0.63748 0.03791 0.10063 0.0
C820 C 0.60746 0.04022 0.07125 0.0
C821 C 0.60909 0.06485 0.08151 0.0
C822 C 0.62142 0.02635 0.08091 0.0
C823 C 0.63937 0.06296 0.11081 0.0
C824 C 0.62645 0.10152 0.11118 0.0
C825 C 0.61202 0.11424 0.10115 0.0
N826 N 0.59488 0.07732 0.07218 0.0
C827 C 0.59622 0.10181 0.08166 0.0
H828 H 0.58556 0.11216 0.07408 0.0
C829 C 0.58756 1.00458 0.04372 0.0
N830 N 0.59136 0.02946 0.0527 0.0
C831 C 0.60124 0.99015 0.05235 0.0
C832 C 0.61836 1.00112 0.07092 0.0
H833 H 0.57379 0.99583 0.03004 0.0
H834 H 0.6518 0.07163 0.12605 0.0
H835 H 0.53749 1.01233 0.95488 0.0
H836 H 0.63862 0.11119 0.12637 0.0
H837 H 0.61301 0.13365 0.10844 0.0
H838 H 0.64837 0.02758 0.10828 0.0
H839 H 0.53951 0.12811 0.98988 0.0
H840 H 0.47142 0.99863 0.91919 0.0
H841 H 0.50568 0.98401 0.92923 0.0
H842 H 0.45149 0.07761 0.93643 0.0
H843 H 0.59827 0.9705 0.04503 0.0
H844 H 0.62873 0.98982 0.07785 0.0
H845 H 0.45105 0.0334 0.92265 0.0
H846 H 0.50773 0.1468 0.97934 0.0
N847 N 0.52155 0.04309 0.96013 0.0
C848 C 0.48533 1.01123 0.93072 0.0
C849 C 0.50467 1.00294 0.93625 0.0
C850 C 0.48435 0.03581 0.93969 0.0
C851 C 0.50305 0.05156 0.95437 0.0
C852 C 0.52275 0.0192 0.95095 0.0
N853 N 0.52202 0.09127 0.97495 0.0
C854 C 0.50328 0.07641 0.96206 0.0
C855 C 0.50621 0.12697 0.97449 0.0
C856 C 0.48639 0.11179 0.96214 0.0
C857 C 0.52412 0.11639 0.9804 0.0
C858 C 0.48486 0.08624 0.9554 0.0
H859 H 0.4726 0.12005 0.95737 0.0
O860 O 0.56708 0.10007 0.96482 0.0
O861 O 0.5772 0.07601 0.01424 0.0
O862 O 0.55565 0.09018 0.04566 0.0
O863 O 0.53068 0.08681 0.01179 0.0
O864 O 0.57672 0.1075 1.00191 0.0
O865 O 0.56459 0.06061 0.95014 0.0
O866 O 0.54374 0.02714 0.05675 0.0
O867 O 0.54238 0.05005 0.01095 0.0
O868 O 0.56821 0.0393 0.97955 0.0
O869 O 0.59017 0.04156 0.01596 0.0
O870 O 0.54252 0.01823 0.02233 0.0
O871 O 0.55166 0.06609 0.07452 0.0
C872 C 0.58847 0.09768 0.01581 0.0
C873 C 0.46586 0.07043 0.94162 0.0
C874 C 0.46561 0.04527 0.93377 0.0
C875 C 0.57091 0.08347 0.94719 0.0
C876 C 0.56773 0.08815 0.92292 0.0
C877 C 0.54872 0.09539 0.91396 0.0
C878 C 0.58561 0.08713 0.9092 0.0
C879 C 0.5852 0.0939 0.8866 0.0
C880 C 0.54811 0.10203 0.89109 0.0
C881 C 0.56647 0.10158 0.87747 0.0
C882 C 0.53804 0.09569 0.03476 0.0
C883 C 0.53147 0.02824 0.00798 0.0
C884 C 0.5411 0.04357 0.07512 0.0
C885 C 0.54192 0.03566 0.09825 0.0
C886 C 0.56068 0.02819 0.10756 0.0
C887 C 0.52242 0.03291 0.10975 0.0
C888 C 0.52138 0.02212 0.13023 0.0
C889 C 0.5598 0.01782 0.12836 0.0
C890 C 0.54008 0.0146 0.13966 0.0
C891 C 0.58488 0.03387 0.99231 0.0
H892 H 0.53473 0.09631 0.92469 0.0
H893 H 0.60039 0.08188 0.91659 0.0
H894 H 0.53359 0.10784 0.88409 0.0
H895 H 0.56602 0.10702 0.85992 0.0
H896 H 0.5757 0.02978 0.09856 0.0
H897 H 0.50783 0.03848 0.1024 0.0
H898 H 0.57427 1.01204 0.13554 0.0
H899 H 0.53949 1.00658 0.15586 0.0
Gd900 Gd 0.27884 0.24174 0.24696 0.0
Gd901 Gd 0.31373 0.30003 0.2822 0.0
C902 C 0.38348 0.33236 0.26373 0.0
C903 C 0.40258 0.35085 0.30386 0.0
C904 C 0.36494 0.32514 0.29938 0.0
C905 C 0.36441 0.32225 0.27446 0.0
C906 C 0.38413 0.33925 0.3144 0.0
C907 C 0.40231 0.3473 0.27854 0.0
C908 C 0.38335 0.3264 0.23852 0.0
C909 C 0.36494 0.30983 0.22487 0.0
N910 N 0.34589 0.30772 0.26082 0.0
C911 C 0.34637 0.30049 0.23638 0.0
H912 H 0.33281 0.28706 0.22558 0.0
C913 C 0.347 0.31498 0.33338 0.0
N914 N 0.34694 0.31323 0.30881 0.0
C915 C 0.36565 0.32878 0.34904 0.0
C916 C 0.38423 0.34113 0.33953 0.0
H917 H 0.33222 0.30676 0.34106 0.0
H918 H 0.41695 0.35563 0.27062 0.0
H919 H 0.26099 0.23287 0.30413 0.0
H920 H 0.3977 0.33364 0.22956 0.0
H921 H 0.36502 0.3042 0.20547 0.0
H922 H 0.41735 0.36208 0.3151 0.0
H923 H 0.26186 0.24729 0.18985 0.0
H924 H 0.19182 0.20069 0.29181 0.0
H925 H 0.22728 0.21304 0.31843 0.0
H926 H 0.1707 0.20854 0.21125 0.0
H927 H 0.36546 0.33036 0.36848 0.0
H928 H 0.39857 0.35198 0.35171 0.0
H929 H 0.17101 0.1995 0.25229 0.0
H930 H 0.2273 0.23977 0.16366 0.0
N931 N 0.24654 0.23141 0.26782 0.0
C932 C 0.20696 0.20933 0.28494 0.0
C933 C 0.22694 0.21613 0.29995 0.0
C934 C 0.20657 0.21451 0.26155 0.0
C935 C 0.22676 0.22597 0.25336 0.0
C936 C 0.24652 0.22721 0.29122 0.0
N937 N 0.24617 0.24166 0.22207 0.0
C938 C 0.22653 0.23159 0.23019 0.0
C939 C 0.2267 0.23814 0.18252 0.0
C940 C 0.20644 0.22909 0.19094 0.0
C941 C 0.24644 0.24358 0.19806 0.0
C942 C 0.20618 0.22515 0.21475 0.0
H943 H 0.19124 0.2241 0.17857 0.0
O944 O 0.27919 0.21669 0.21297 0.0
O945 O 0.31263 0.26326 0.26094 0.0
O946 O 0.3006 0.30786 0.24699 0.0
O947 O 0.28726 0.26964 0.22118 0.0
O948 O 0.31114 0.22992 0.23886 0.0
O949 O 0.26632 0.20253 0.24432 0.0
O950 O 0.30786 0.32686 0.31302 0.0
O951 O 0.27896 0.27992 0.2659 0.0
O952 O 0.2917 0.236 0.28491 0.0
O953 O 0.31721 0.27226 0.30541 0.0
O954 O 0.28365 0.29285 0.30274 0.0
O955 O 0.31683 0.33807 0.27873 0.0
C956 C 0.32448 0.24868 0.25225 0.0
C957 C 0.1863 0.21374 0.22297 0.0
C958 C 0.18651 0.20842 0.24626 0.0
C959 C 0.27065 0.19713 0.22174 0.0
C960 C 0.28086 0.17581 0.21587 0.0
C961 C 0.27237 0.15749 0.19525 0.0
C962 C 0.29841 0.17305 0.23144 0.0
C963 C 0.30757 0.15213 0.22657 0.0
C964 C 0.28147 0.13644 0.19034 0.0
C965 C 0.299 0.13366 0.206 0.0
C966 C 0.29382 0.29427 0.22514 0.0
C967 C 0.26877 0.28346 0.28445 0.0
C968 C 0.31354 0.34496 0.30141 0.0
C969 C 0.30826 0.36905 0.30932 0.0
C970 C 0.31619 0.3824 0.33278 0.0
C971 C 0.29646 0.37942 0.29335 0.0
C972 C 0.29228 0.40298 0.30078 0.0
C973 C 0.31232 0.40613 0.34016 0.0
C974 C 0.30041 0.4165 0.32419 0.0
C975 C 0.30558 0.24943 0.30417 0.0
H976 H 0.25856 0.15933 0.18319 0.0
H977 H 0.30438 0.18668 0.24793 0.0
H978 H 0.27478 0.12218 0.17454 0.0
H979 H 0.30578 0.11715 0.20218 0.0
H980 H 0.32563 0.37458 0.34522 0.0
H981 H 0.2908 0.36934 0.275 0.0
H982 H 0.31858 0.41647 0.35823 0.0
H983 H 0.29738 0.43487 0.33013 0.0
Gd984 Gd 0.57208 0.51045 0.01216 0.0
Gd985 Gd 0.56141 0.56917 0.03884 0.0
C986 C 0.58181 0.60584 0.11859 0.0
C987 C 0.54609 0.61072 0.13275 0.0
C988 C 0.54776 0.59054 0.09108 0.0
C989 C 0.57085 0.59413 0.09535 0.0
C990 C 0.53524 0.59932 0.10965 0.0
C991 C 0.5693 0.61388 0.13723 0.0
C992 C 0.60509 0.60937 0.12244 0.0
C993 C 0.61698 0.6017 0.10334 0.0
N994 N 0.58263 0.58643 0.07689 0.0
C995 C 0.60553 0.59053 0.08062 0.0
H996 H 0.61544 0.58508 0.06653 0.0
C997 C 0.51533 0.57867 0.06295 0.0
N998 N 0.53762 0.57949 0.06858 0.0
C999 C 0.50228 0.58697 0.08077 0.0
C1000 C 0.51222 0.59708 0.10431 0.0
H1001 H 0.5076 0.5712 0.04461 0.0
H1002 H 0.57746 0.62289 0.15511 0.0
H1003 H 0.52002 0.48336 0.984 0.0
H1004 H 0.61405 0.61817 0.14001 0.0
H1005 H 0.63503 0.60446 0.10605 0.0
H1006 H 0.53672 0.61749 0.14721 0.0
H1007 H 0.62674 0.51214 0.00985 0.0
H1008 H 0.52562 0.45166 0.91096 0.0
H1009 H 0.50253 0.46001 0.9446 0.0
H1010 H 0.6046 0.46532 0.90629 0.0
H1011 H 0.4846 0.58573 0.07628 0.0
H1012 H 0.50209 0.60368 0.11807 0.0
H1013 H 0.5637 0.45416 0.89675 0.0
H1014 H 0.65259 0.50103 0.97983 0.0
N1015 N 0.55336 0.48964 0.97369 0.0
C1016 C 0.53357 0.46227 0.92842 0.0
C1017 C 0.52051 0.46685 0.94734 0.0
C1018 C 0.55682 0.47051 0.93257 0.0
C1019 C 0.56638 0.48413 0.95575 0.0
C1020 C 0.53072 0.48035 0.96993 0.0
N1021 N 0.59786 0.50152 0.98414 0.0
C1022 C 0.58935 0.49028 0.96113 0.0
C1023 C 0.63487 0.4981 0.97427 0.0
C1024 C 0.62649 0.48771 0.95024 0.0
C1025 C 0.6202 0.5044 0.99119 0.0
C1026 C 0.60344 0.48317 0.94351 0.0
H1027 H 0.63783 0.4825 0.93723 0.0
O1028 O 0.5889 0.48573 0.02762 0.0
O1029 O 0.57238 0.53557 0.04911 0.0
O1030 O 0.59682 0.57247 0.02877 0.0
O1031 O 0.59631 0.53941 0.99779 0.0
O1032 O 0.59993 0.52096 0.04392 0.0
O1033 O 0.55327 0.47387 0.01496 0.0
O1034 O 0.54365 0.59575 0.02993 0.0
O1035 O 0.55599 0.54107 1.00352 0.0
O1036 O 0.53579 0.5054 0.02139 0.0
O1037 O 0.53406 0.54056 0.04915 0.0
O1038 O 0.54098 0.56983 1.00352 0.0
O1039 O 0.58074 0.60606 0.03612 0.0
C1040 C 0.59076 0.53338 0.06049 0.0
C1041 C 0.59405 0.4708 0.92008 0.0
C1042 C 0.57077 0.46446 0.91463 0.0
C1043 C 0.5709 0.46831 0.02486 0.0
C1044 C 0.57363 0.44283 0.01999 0.0
C1045 C 0.58917 0.43477 1.00496 0.0
C1046 C 0.56314 0.42775 0.03486 0.0
C1047 C 0.5695 0.40563 0.03702 0.0
C1048 C 0.59429 0.41162 1.00545 0.0
C1049 C 0.58478 0.3972 0.02173 0.0
C1050 C 0.60608 0.5613 0.01076 0.0
C1051 C 0.54452 0.55099 0.98911 0.0
C1052 C 0.56187 0.61257 0.03074 0.0
C1053 C 0.55993 0.63705 0.0267 0.0
C1054 C 0.5397 0.64478 0.0302 0.0
C1055 C 0.57671 0.65115 0.0161 0.0
C1056 C 0.57285 0.67231 0.00819 0.0
C1057 C 0.53608 0.66612 0.0226 0.0
C1058 C 0.55253 0.67976 0.01138 0.0
C1059 C 0.52538 0.51762 0.03776 0.0
H1060 H 0.59773 0.44657 0.99357 0.0
H1061 H 0.55105 0.43429 0.04623 0.0
H1062 H 0.60639 0.40536 0.99404 0.0
H1063 H 0.58998 0.38009 0.02298 0.0
H1064 H 0.52644 0.63397 0.03823 0.0
H1065 H 0.59218 0.64508 0.0129 0.0
H1066 H 0.52039 0.67183 0.02503 0.0
H1067 H 0.54947 0.69615 1.0052 0.0
Gd1068 Gd 0.79696 0.28153 0.27828 0.0
Gd1069 Gd 0.84707 0.3167 0.26664 0.0
C1070 C 0.85843 0.39829 0.26277 0.0
C1071 C 0.86898 0.3982 0.22181 0.0
C1072 C 0.85881 0.35933 0.23615 0.0
C1073 C 0.85523 0.3722 0.25851 0.0
C1074 C 0.86592 0.37227 0.21766 0.0
C1075 C 0.86527 0.41117 0.2443 0.0
C1076 C 0.85435 0.41065 0.28537 0.0
C1077 C 0.84711 0.39703 0.30301 0.0
N1078 N 0.84816 0.35926 0.27593 0.0
C1079 C 0.84412 0.37123 0.29795 0.0
H1080 H 0.83864 0.36101 0.31166 0.0
C1081 C 0.86123 0.32117 0.21175 0.0
N1082 N 0.85601 0.33428 0.23269 0.0
C1083 C 0.86801 0.33316 0.1928 0.0
C1084 C 0.87023 0.3588 0.19571 0.0
H1085 H 0.86008 0.30145 0.20974 0.0
H1086 H 0.86773 0.43118 0.24722 0.0
H1087 H 0.79899 0.23234 0.2346 0.0
H1088 H 0.85655 0.43064 0.2893 0.0
H1089 H 0.8438 0.40638 0.32051 0.0
H1090 H 0.8744 0.40843 0.20781 0.0
H1091 H 0.78003 0.29642 0.33431 0.0
H1092 H 0.80778 0.17262 0.26897 0.0
H1093 H 0.80424 0.18998 0.23182 0.0
H1094 H 0.79962 0.20219 0.35211 0.0
H1095 H 0.87179 0.32268 0.1761 0.0
H1096 H 0.87572 0.36807 0.18108 0.0
H1097 H 0.80568 0.17727 0.31369 0.0
H1098 H 0.77857 0.28017 0.37221 0.0
N1099 N 0.80197 0.24055 0.27344 0.0
C1100 C 0.80605 0.19165 0.27044 0.0
C1101 C 0.80401 0.20134 0.24943 0.0
C1102 C 0.80469 0.20619 0.29297 0.0
C1103 C 0.80265 0.23097 0.29399 0.0
C1104 C 0.80131 0.22568 0.2512 0.0
N1105 N 0.79449 0.2678 0.31564 0.0
C1106 C 0.799 0.24506 0.31573 0.0
C1107 C 0.78473 0.27032 0.35663 0.0
C1108 C 0.79089 0.2479 0.3576 0.0
C1109 C 0.78594 0.27964 0.3352 0.0
C1110 C 0.79737 0.23457 0.33681 0.0
H1111 H 0.78942 0.24042 0.37407 0.0
O1112 O 0.76491 0.26176 0.28594 0.0
O1113 O 0.81125 0.32111 0.27322 0.0
O1114 O 0.84796 0.31445 0.30587 0.0
O1115 O 0.81084 0.3096 0.31161 0.0
O1116 O 0.77933 0.31401 0.28192 0.0
O1117 O 0.76822 0.27234 0.25089 0.0
O1118 O 0.88005 0.31191 0.25853 0.0
O1119 O 0.83425 0.27857 0.27706 0.0
O1120 O 0.80358 0.27504 0.23944 0.0
O1121 O 0.82296 0.31259 0.23408 0.0
O1122 O 0.852 0.27918 0.2473 0.0
O1123 O 0.87604 0.33753 0.29124 0.0
C1124 C 0.79372 0.33139 0.27581 0.0
C1125 C 0.80073 0.21046 0.33608 0.0
C1126 C 0.80419 0.19626 0.31419 0.0
C1127 C 0.75453 0.26373 0.26576 0.0
C1128 C 0.73437 0.27391 0.26834 0.0
C1129 C 0.73316 0.29243 0.28837 0.0
C1130 C 0.71589 0.26464 0.25096 0.0
C1131 C 0.69663 0.27428 0.25328 0.0
C1132 C 0.71425 0.30261 0.29011 0.0
C1133 C 0.69602 0.29365 0.27255 0.0
C1134 C 0.83199 0.31598 0.31996 0.0
C1135 C 0.84421 0.26487 0.26198 0.0
C1136 C 0.88988 0.32787 0.27781 0.0
C1137 C 0.91141 0.3437 0.27559 0.0
C1138 C 0.91563 0.355 0.25548 0.0
C1139 C 0.92884 0.34517 0.29328 0.0
C1140 C 0.95067 0.35717 0.29083 0.0
C1141 C 0.93734 0.36758 0.25322 0.0
C1142 C 0.95492 0.36843 0.27068 0.0
C1143 C 0.80871 0.29167 0.22586 0.0
H1144 H 0.74673 0.299 0.30277 0.0
H1145 H 0.71629 0.24966 0.23602 0.0
H1146 H 0.71355 0.31709 0.30534 0.0
H1147 H 0.68108 0.30109 0.27452 0.0
H1148 H 0.90246 0.35361 0.24132 0.0
H1149 H 0.9256 0.33573 0.3084 0.0
H1150 H 0.94064 0.37615 0.23763 0.0
H1151 H 0.97177 0.37767 0.26841 0.0
Gd1152 Gd 0.0511 0.57506 0.48462 0.0
Gd1153 Gd 0.06516 0.55243 0.54076 0.0
C1154 C 0.12318 0.57432 0.60125 0.0
C1155 C 0.13257 0.53465 0.60318 0.0
C1156 C 0.10421 0.53776 0.57224 0.0
C1157 C 0.10711 0.56273 0.58133 0.0
C1158 C 0.11678 0.52333 0.58317 0.0
C1159 C 0.1357 0.5601 0.61226 0.0
C1160 C 0.12672 0.59998 0.60897 0.0
C1161 C 0.11595 0.61361 0.59549 0.0
N1162 N 0.0951 0.57594 0.56982 0.0
C1163 C 0.10073 0.60129 0.57546 0.0
H1164 H 0.09475 0.61235 0.56387 0.0
C1165 C 0.08317 0.50221 0.54573 0.0
N1166 N 0.08841 0.52734 0.55331 0.0
C1167 C 0.09552 0.48716 0.55544 0.0
C1168 C 0.11259 0.49781 0.57413 0.0
H1169 H 0.06884 0.49372 0.53284 0.0
H1170 H 0.14808 0.56868 0.62757 0.0
H1171 H 0.03366 0.51445 0.45215 0.0
H1172 H 0.13881 0.60957 0.62424 0.0
H1173 H 0.11985 0.63366 0.60005 0.0
H1174 H 0.14234 0.52387 0.61184 0.0
H1175 H 0.04141 0.63184 0.49002 0.0
H1176 H 0.96701 0.505 0.42114 0.0
H1177 H 1.00067 0.48848 0.42829 0.0
H1178 H 0.95068 0.5852 0.44163 0.0
H1179 H 0.09141 0.46729 0.54903 0.0
H1180 H 0.12188 0.48609 0.582 0.0
H1181 H 0.94822 0.54073 0.4271 0.0
H1182 H 0.01036 0.65218 0.48123 0.0
N1183 N 0.01972 0.54689 0.4605 0.0
C1184 C 0.98159 0.51683 0.43225 0.0
C1185 C 1.00057 0.5075 0.43614 0.0
C1186 C 0.98185 0.5415 0.44213 0.0
C1187 C 1.00143 0.55633 0.45615 0.0
C1188 C 0.01953 0.52275 0.45015 0.0
N1189 N 0.02225 0.59539 0.47634 0.0
C1190 C 1.00275 0.58132 0.46435 0.0
C1191 C 1.00792 0.63222 0.47655 0.0
C1192 C 0.98733 0.61786 0.46544 0.0
C1193 C 0.02542 0.62066 0.48148 0.0
C1194 C 0.98465 0.59216 0.45875 0.0
H1195 H 0.97384 0.62687 0.46143 0.0
O1196 O 0.06764 0.60378 0.4669 0.0
O1197 O 0.07766 0.57218 0.5118 0.0
O1198 O 0.05933 0.59106 0.54811 0.0
O1199 O 0.03638 0.59618 0.51557 0.0
O1200 O 0.08013 0.60603 0.50229 0.0
O1201 O 0.06437 0.56471 0.45046 0.0
O1202 O 0.04252 0.52485 0.55491 0.0
O1203 O 0.03974 0.55561 0.51299 0.0
O1204 O 0.0625 0.5385 0.47711 0.0
O1205 O 0.08252 0.53322 0.51204 0.0
O1206 O 0.03708 0.5212 0.52065 0.0
O1207 O 0.04878 0.56368 0.57264 0.0
C1208 C 0.09061 0.59306 0.51388 0.0
C1209 C 0.9648 0.57723 0.44589 0.0
C1210 C 0.9634 0.55193 0.43761 0.0
C1211 C 0.0718 0.58782 0.44893 0.0
C1212 C 0.07124 0.59416 0.42501 0.0
C1213 C 0.05537 0.60621 0.41624 0.0
C1214 C 0.08872 0.58964 0.41156 0.0
C1215 C 0.09102 0.59755 0.38959 0.0
C1216 C 0.05746 0.61391 0.39394 0.0
C1217 C 0.0754 0.60977 0.38063 0.0
C1218 C 0.04525 0.60256 0.53845 0.0
C1219 C 0.02717 0.53461 0.50906 0.0
C1220 C 0.03873 0.5409 0.57297 0.0
C1221 C 0.0389 0.5333 0.59638 0.0
C1222 C 0.05631 0.5235 0.60538 0.0
C1223 C 0.02063 0.53518 0.60951 0.0
C1224 C 0.01989 0.52812 0.63214 0.0
C1225 C 0.05572 0.51635 0.62788 0.0
C1226 C 0.03769 0.51881 0.64136 0.0
C1227 C 0.07541 0.52694 0.48865 0.0
H1228 H 0.04176 0.60994 0.42671 0.0
H1229 H 0.10108 0.58048 0.41855 0.0
H1230 H 0.04537 0.62336 0.38713 0.0
H1231 H 0.07709 0.61603 0.36355 0.0
H1232 H 0.07014 0.5211 0.59507 0.0
H1233 H 1.00691 0.54199 0.60191 0.0
H1234 H 0.06929 0.509 0.63491 0.0
H1235 H 0.0379 0.51379 0.65909 0.0
Gd1236 Gd 0.84488 0.79031 0.27674 0.0
Gd1237 Gd 0.78918 0.79893 0.28354 0.0
C1238 C 0.75425 0.78129 0.20616 0.0
C1239 C 0.75649 0.82232 0.19696 0.0
C1240 C 0.77051 0.81756 0.23696 0.0
C1241 C 0.76484 0.79208 0.22972 0.0
C1242 C 0.76532 0.83291 0.221 0.0
C1243 C 0.75101 0.79652 0.18953 0.0
C1244 C 0.7464 0.75559 0.20032 0.0
C1245 C 0.74816 0.74148 0.21814 0.0
N1246 N 0.76825 0.77786 0.24622 0.0
C1247 C 0.75889 0.75298 0.24117 0.0
H1248 H 0.7594 0.74159 0.2546 0.0
C1249 C 0.77883 0.85144 0.26982 0.0
N1250 N 0.77883 0.82719 0.26037 0.0
C1251 C 0.77408 0.86744 0.25474 0.0
C1252 C 0.76794 0.85828 0.23003 0.0
H1253 H 0.783 0.85871 0.28905 0.0
H1254 H 0.74336 0.78854 0.17122 0.0
H1255 H 0.86986 0.84565 0.3131 0.0
H1256 H 0.73819 0.74661 0.18245 0.0
H1257 H 0.74136 0.72169 0.21414 0.0
H1258 H 0.75286 0.83386 0.18432 0.0
H1259 H 0.85119 0.7306 0.26406 0.0
H1260 H 0.89349 0.83195 0.38112 0.0
H1261 H 0.88716 0.86121 0.35465 0.0
H1262 H 0.88458 0.74394 0.36715 0.0
H1263 H 0.77499 0.88678 0.26223 0.0
H1264 H 0.76405 0.87066 0.2184 0.0
H1265 H 0.89217 0.78817 0.3857 0.0
H1266 H 0.86132 0.69949 0.28594 0.0
N1267 N 0.86456 0.80746 0.31568 0.0
C1268 C 0.88551 0.82488 0.36279 0.0
C1269 C 0.88199 0.84144 0.34791 0.0
C1270 C 0.87947 0.79941 0.35354 0.0
C1271 C 0.86891 0.79113 0.32959 0.0
C1272 C 0.87185 0.83239 0.3242 0.0
N1273 N 0.85547 0.75905 0.29574 0.0
C1274 C 0.86415 0.76616 0.31933 0.0
C1275 C 0.86184 0.71806 0.29569 0.0
C1276 C 0.86862 0.72449 0.3205 0.0
C1277 C 0.85598 0.7358 0.28341 0.0
C1278 C 0.87055 0.74896 0.33248 0.0
H1279 H 0.87342 0.71078 0.32993 0.0
O1280 O 0.86168 0.77125 0.24854 0.0
O1281 O 0.81046 0.78216 0.2569 0.0
O1282 O 0.78679 0.75839 0.28688 0.0
O1283 O 0.82014 0.75137 0.27272 0.0
O1284 O 0.83633 0.80181 0.24173 0.0
O1285 O 0.87867 0.80655 0.27017 0.0
O1286 O 0.77309 0.82011 0.31098 0.0
O1287 O 0.82357 0.80696 0.30282 0.0
O1288 O 0.84842 0.83158 0.27549 0.0
O1289 O 0.81404 0.83828 0.28699 0.0
O1290 O 0.79833 0.78725 0.31838 0.0
O1291 O 0.7556 0.78382 0.29245 0.0
C1292 C 0.81575 0.79022 0.23776 0.0
C1293 C 0.87988 0.75695 0.35671 0.0
C1294 C 0.88428 0.78214 0.36724 0.0
C1295 C 0.88006 0.78836 0.25291 0.0
C1296 C 0.90154 0.78033 0.25302 0.0
C1297 C 0.90941 0.77098 0.27266 0.0
C1298 C 0.91476 0.78292 0.23358 0.0
C1299 C 0.9355 0.77574 0.23367 0.0
C1300 C 0.92991 0.76373 0.2727 0.0
C1301 C 0.94285 0.76597 0.25329 0.0
C1302 C 0.79998 0.743 0.27994 0.0
C1303 C 0.81885 0.79904 0.32209 0.0
C1304 C 0.75496 0.8028 0.30912 0.0
C1305 C 0.73307 0.81023 0.3114 0.0
C1306 C 0.72744 0.82764 0.29845 0.0
C1307 C 0.71771 0.80012 0.32692 0.0
C1308 C 0.69722 0.80801 0.32983 0.0
C1309 C 0.70735 0.83539 0.30114 0.0
C1310 C 0.69247 0.82583 0.31669 0.0
C1311 C 0.83479 0.84688 0.28103 0.0
H1312 H 0.89985 0.76944 0.28804 0.0
H1313 H 0.90891 0.79034 0.21842 0.0
H1314 H 0.93583 0.7564 0.28786 0.0
H1315 H 0.95868 0.76019 0.25362 0.0
H1316 H 0.73858 0.83531 0.28623 0.0
H1317 H 0.72184 0.78648 0.33689 0.0
H1318 H 0.70322 0.84888 0.29101 0.0
H1319 H 0.67688 0.83205 0.31798 0.0
Gd1320 Gd 0.79368 0.31432 0.81684 0.0
Gd1321 Gd 0.82054 0.2924 0.76327 0.0
C1322 C 0.79264 0.22756 0.7004 0.0
C1323 C 0.82501 0.20911 0.6948 0.0
C1324 C 0.82579 0.24254 0.72903 0.0
C1325 C 0.80455 0.24438 0.72095 0.0
C1326 C 0.83618 0.2247 0.7162 0.0
C1327 C 0.80327 0.21055 0.68688 0.0
C1328 C 0.76986 0.22679 0.69536 0.0
C1329 C 0.75921 0.24096 0.7118 0.0
N1330 N 0.79469 0.26064 0.73492 0.0
C1331 C 0.7718 0.25724 0.73192 0.0
H1332 H 0.76294 0.26692 0.7449 0.0
C1333 C 0.85709 0.25657 0.75847 0.0
N1334 N 0.83599 0.25777 0.74992 0.0
C1335 C 0.86789 0.23893 0.74663 0.0
C1336 C 0.85744 0.22296 0.72534 0.0
H1337 H 0.86632 0.27005 0.7737 0.0
H1338 H 0.79445 0.19765 0.67095 0.0
H1339 H 0.83293 0.33491 0.86582 0.0
H1340 H 0.76004 0.21396 0.67993 0.0
H1341 H 0.74126 0.23915 0.70917 0.0
H1342 H 0.83279 0.19544 0.6846 0.0
H1343 H 0.74099 0.32088 0.80533 0.0
H1344 H 0.83884 0.41239 0.8894 0.0
H1345 H 0.85203 0.37401 0.89175 0.0
H1346 H 0.77212 0.42634 0.85103 0.0
H1347 H 0.88459 0.23819 0.75354 0.0
H1348 H 0.86598 0.20951 0.71603 0.0
H1349 H 0.80898 0.43192 0.87375 0.0
H1350 H 0.71963 0.35398 0.80845 0.0
N1351 N 0.811 0.35094 0.84542 0.0
C1352 C 0.83092 0.39531 0.87703 0.0
C1353 C 0.83839 0.37372 0.87843 0.0
C1354 C 0.81207 0.39409 0.86115 0.0
C1355 C 0.80235 0.37134 0.84542 0.0
C1356 C 0.82771 0.35151 0.86305 0.0
N1357 N 0.77207 0.34533 0.82007 0.0
C1358 C 0.78195 0.36836 0.83238 0.0
C1359 C 0.73726 0.35842 0.81489 0.0
C1360 C 0.74789 0.38273 0.82537 0.0
C1361 C 0.74945 0.33976 0.81313 0.0
C1362 C 0.77028 0.38781 0.83508 0.0
H1363 H 0.73831 0.3971 0.82719 0.0
O1364 O 0.76466 0.29672 0.83182 0.0
O1365 O 0.8013 0.28154 0.79285 0.0
O1366 O 0.78955 0.30449 0.74819 0.0
O1367 O 0.77595 0.32351 0.78319 0.0
O1368 O 0.7681 0.28129 0.79729 0.0
O1369 O 0.79776 0.30084 0.85046 0.0
O1370 O 0.85544 0.31276 0.76693 0.0
O1371 O 0.82017 0.32238 0.7939 0.0
O1372 O 0.82998 0.31089 0.82733 0.0
O1373 O 0.83733 0.28138 0.79647 0.0
O1374 O 0.82087 0.33201 0.75997 0.0
O1375 O 0.83808 0.29489 0.73157 0.0
C1376 C 0.78189 0.26817 0.78897 0.0
C1377 C 0.78069 0.4111 0.84901 0.0
C1378 C 0.80166 0.41428 0.86196 0.0
C1379 C 0.77625 0.29368 0.85065 0.0
C1380 C 0.76659 0.29646 0.87363 0.0
C1381 C 0.74688 0.30533 0.87667 0.0
C1382 C 0.77366 0.28287 0.8897 0.0
C1383 C 0.7591 0.27325 0.90541 0.0
C1384 C 0.73371 0.2988 0.89494 0.0
C1385 C 0.73933 0.28204 0.90875 0.0
C1386 C 0.77487 0.31619 0.7592 0.0
C1387 C 0.82159 0.34012 0.78302 0.0
C1388 C 0.85585 0.31011 0.74349 0.0
C1389 C 0.86383 0.33249 0.73354 0.0
C1390 C 0.88519 0.34743 0.74136 0.0
C1391 C 0.85054 0.33819 0.71501 0.0
C1392 C 0.85881 0.35766 0.70336 0.0
C1393 C 0.89325 0.36756 0.73042 0.0
C1394 C 0.88025 0.37255 0.71133 0.0
C1395 C 0.84246 0.29502 0.81874 0.0
H1396 H 0.74107 0.31594 0.86421 0.0
H1397 H 0.7894 0.27706 0.88759 0.0
H1398 H 0.7183 0.3052 0.89713 0.0
H1399 H 0.72774 0.27519 0.92101 0.0
H1400 H 0.89571 0.34331 0.75563 0.0
H1401 H 0.83382 0.32707 0.7091 0.0
H1402 H 0.90982 0.37895 0.73634 0.0
H1403 H 0.8872 0.38758 0.70242 0.0
Gd1404 Gd 0.78232 0.74485 0.74854 0.0
Gd1405 Gd 0.81625 0.80459 0.77939 0.0
C1406 C 0.88883 0.82808 0.76388 0.0
C1407 C 0.90863 0.8348 0.80396 0.0
C1408 C 0.86855 0.81648 0.79729 0.0
C1409 C 0.86856 0.81851 0.77302 0.0
C1410 C 0.8887 0.82477 0.81297 0.0
C1411 C 0.90864 0.8367 0.77957 0.0
C1412 C 0.88867 0.82912 0.73925 0.0
C1413 C 0.86861 0.8212 0.72439 0.0
N1414 N 0.84883 0.81196 0.75856 0.0
C1415 C 0.84881 0.81299 0.73437 0.0
H1416 H 0.83393 0.80685 0.72205 0.0
C1417 C 0.84815 0.80942 0.83057 0.0
N1418 N 0.84878 0.80811 0.80599 0.0
C1419 C 0.8677 0.81658 0.84648 0.0
C1420 C 0.88812 0.82413 0.83763 0.0
H1421 H 0.83246 0.80617 0.83847 0.0
H1422 H 0.92418 0.84457 0.7729 0.0
H1423 H 0.76262 0.73987 0.8046 0.0
H1424 H 0.90395 0.83591 0.73153 0.0
H1425 H 0.8683 0.82157 0.70519 0.0
H1426 H 0.9241 0.84153 0.81583 0.0
H1427 H 0.76811 0.74134 0.68886 0.0
H1428 H 0.6918 0.72156 0.79436 0.0
H1429 H 0.72715 0.72983 0.82083 0.0
H1430 H 0.67431 0.71761 0.70991 0.0
H1431 H 0.86686 0.8173 0.86576 0.0
H1432 H 0.9032 0.83048 0.85017 0.0
H1433 H 0.67242 0.71685 0.75318 0.0
H1434 H 0.7343 0.73159 0.66052 0.0
N1435 N 0.74885 0.73851 0.76825 0.0
C1436 C 0.70762 0.72643 0.78689 0.0
C1437 C 0.7275 0.73093 0.80182 0.0
C1438 C 0.70835 0.72794 0.76244 0.0
C1439 C 0.72942 0.73462 0.75355 0.0
C1440 C 0.74794 0.73655 0.79217 0.0
N1441 N 0.75075 0.74213 0.72081 0.0
C1442 C 0.7304 0.73616 0.72922 0.0
C1443 C 0.73289 0.73337 0.67981 0.0
C1444 C 0.71194 0.72861 0.68833 0.0
C1445 C 0.7521 0.73948 0.6962 0.0
C1446 C 0.71046 0.72956 0.71315 0.0
H1447 H 0.69705 0.72328 0.67549 0.0
O1448 O 0.78949 0.7214 0.7163 0.0
O1449 O 0.81532 0.77096 0.75218 0.0
O1450 O 0.80361 0.81234 0.74434 0.0
O1451 O 0.78486 0.77325 0.7228 0.0
O1452 O 0.81565 0.73489 0.7549 0.0
O1453 O 0.76837 0.70549 0.74186 0.0
O1454 O 0.81001 0.82775 0.81232 0.0
O1455 O 0.78357 0.77805 0.77613 0.0
O1456 O 0.7942 0.73741 0.78505 0.0
O1457 O 0.81298 0.77713 0.80517 0.0
O1458 O 0.7825 0.81353 0.77288 0.0
O1459 O 0.82859 0.84424 0.78534 0.0
C1460 C 0.82801 0.75631 0.75458 0.0
C1461 C 0.68967 0.72285 0.72203 0.0
C1462 C 0.68861 0.72229 0.74664 0.0
C1463 C 0.77728 0.70142 0.72142 0.0
C1464 C 0.78566 0.67875 0.71607 0.0
C1465 C 0.78146 0.66461 0.69246 0.0
C1466 C 0.79694 0.67058 0.73433 0.0
C1467 C 0.80385 0.64811 0.72915 0.0
C1468 C 0.78844 0.64226 0.68719 0.0
C1469 C 0.79957 0.63396 0.70545 0.0
C1470 C 0.7923 0.79758 0.72461 0.0
C1471 C 0.77045 0.79233 0.77444 0.0
C1472 C 0.82059 0.84807 0.80631 0.0
C1473 C 0.81071 0.8697 0.8116 0.0
C1474 C 0.81824 0.88684 0.8333 0.0
C1475 C 0.79499 0.87427 0.7948 0.0
C1476 C 0.78707 0.89608 0.79965 0.0
C1477 C 0.81026 0.9086 0.8381 0.0
C1478 C 0.79477 0.91332 0.82126 0.0
C1479 C 0.80518 0.75321 0.80459 0.0
H1480 H 0.77263 0.67077 0.6782 0.0
H1481 H 0.80048 0.68181 0.75247 0.0
H1482 H 0.78512 0.63131 0.66897 0.0
H1483 H 0.80475 0.61648 0.70111 0.0
H1484 H 0.83059 0.88356 0.8463 0.0
H1485 H 0.7895 0.86143 0.77773 0.0
H1486 H 0.81631 0.92196 0.85471 0.0
H1487 H 0.78899 0.9305 0.82489 0.0
Gd1488 Gd 0.59953 0.56657 0.54757 0.0
Gd1489 Gd 0.54546 0.53594 0.52212 0.0
C1490 C 0.51664 0.45415 0.52387 0.0
C1491 C 0.50764 0.43627 0.4811 0.0
C1492 C 0.52577 0.48001 0.49393 0.0
C1493 C 0.52586 0.47748 0.51811 0.0
C1494 C 0.51625 0.4594 0.47528 0.0
C1495 C 0.50784 0.43366 0.50531 0.0
C1496 C 0.51584 0.45205 0.54817 0.0
C1497 C 0.52389 0.47282 0.56617 0.0
N1498 N 0.5339 0.49777 0.53593 0.0
C1499 C 0.53282 0.49544 0.55981 0.0
H1500 H 0.5398 0.51028 0.57468 0.0
C1501 C 0.53054 0.50623 0.46511 0.0
N1502 N 0.53348 0.50276 0.4886 0.0
C1503 C 0.52169 0.48631 0.44617 0.0
C1504 C 0.51471 0.46274 0.45123 0.0
H1505 H 0.5351 0.52451 0.46078 0.0
H1506 H 0.50069 0.41576 0.50952 0.0
H1507 H 0.60573 0.5945 0.49924 0.0
H1508 H 0.50886 0.43452 0.55323 0.0
H1509 H 0.52342 0.47143 0.5851 0.0
H1510 H 0.50027 0.42037 0.467 0.0
H1511 H 0.60897 0.57293 0.6081 0.0
H1512 H 0.6279 0.67237 0.52455 0.0
H1513 H 0.6173 0.63626 0.49077 0.0
H1514 H 0.63622 0.68059 0.61091 0.0
H1515 H 0.5199 0.48927 0.42771 0.0
H1516 H 0.50746 0.44738 0.43653 0.0
H1517 H 0.63493 0.68868 0.56933 0.0
H1518 H 0.62188 0.60647 0.64395 0.0
N1519 N 0.60854 0.60635 0.5377 0.0
C1520 C 0.6225 0.65397 0.52845 0.0
C1521 C 0.61662 0.63366 0.50935 0.0
C1522 C 0.62201 0.65021 0.55238 0.0
C1523 C 0.6148 0.62586 0.5565 0.0
C1524 C 0.61004 0.60987 0.51433 0.0
N1525 N 0.60945 0.59748 0.58314 0.0
C1526 C 0.61536 0.62129 0.57992 0.0
C1527 C 0.61989 0.61092 0.62609 0.0
C1528 C 0.62524 0.63553 0.62312 0.0
C1529 C 0.61244 0.59201 0.60579 0.0
C1530 C 0.62336 0.64096 0.59983 0.0
H1531 H 0.6314 0.65011 0.63884 0.0
O1532 O 0.6248 0.54717 0.55794 0.0
O1533 O 0.57763 0.52852 0.53592 0.0
O1534 O 0.54245 0.54666 0.56341 0.0
O1535 O 0.57506 0.57602 0.57727 0.0
O1536 O 0.59305 0.53718 0.57093 0.0
O1537 O 0.63405 0.57792 0.53981 0.0
O1538 O 0.52331 0.54824 0.49753 0.0
O1539 O 0.57158 0.57036 0.5224 0.0
O1540 O 0.60383 0.55375 0.50617 0.0
O1541 O 0.56824 0.53234 0.48968 0.0
O1542 O 0.54226 0.57581 0.53463 0.0
O1543 O 0.51087 0.53258 0.52856 0.0
C1544 C 0.58092 0.51947 0.5548 0.0
C1545 C 0.63001 0.66529 0.59584 0.0
C1546 C 0.62929 0.6699 0.57217 0.0
C1547 C 0.64082 0.56116 0.54966 0.0
C1548 C 0.66245 0.56819 0.56423 0.0
C1549 C 0.66561 0.5814 0.58822 0.0
C1550 C 0.68006 0.55944 0.554 0.0
C1551 C 0.7006 0.56296 0.56772 0.0
C1552 C 0.68625 0.5851 0.60202 0.0
C1553 C 0.7037 0.57558 0.59191 0.0
C1554 C 0.55481 0.56367 0.58127 0.0
C1555 C 0.56059 0.58714 0.52823 0.0
C1556 C 0.50644 0.54268 0.51011 0.0
C1557 C 0.48411 0.53462 0.49766 0.0
C1558 C 0.476 0.51096 0.48343 0.0
C1559 C 0.47015 0.55126 0.50175 0.0
C1560 C 0.44807 0.54465 0.49145 0.0
C1561 C 0.45384 0.50436 0.4728 0.0
C1562 C 0.43985 0.52123 0.4767 0.0
C1563 C 0.58994 0.54071 0.48685 0.0
H1564 H 0.65227 0.58847 0.59639 0.0
H1565 H 0.67749 0.54884 0.53555 0.0
H1566 H 0.68857 0.59498 0.62064 0.0
H1567 H 0.71947 0.57795 0.60283 0.0
H1568 H 0.48652 0.49763 0.48079 0.0
H1569 H 0.47642 0.56942 0.5132 0.0
H1570 H 0.44745 0.48613 0.46178 0.0
H1571 H 0.42261 0.51589 0.4687 0.0
Gd1572 Gd 0.02862 0.54119 0.04887 0.0
Gd1573 Gd 0.08503 0.53953 0.03339 0.0
C1574 C 0.12603 0.61865 0.0405 0.0
C1575 C 0.12692 0.62318 0.99842 0.0
C1576 C 0.10893 0.58384 0.00841 0.0
C1577 C 0.11394 0.5939 0.03292 0.0
C1578 C 0.11626 0.59813 0.99093 0.0
C1579 C 0.13177 0.63344 0.02317 0.0
C1580 C 0.13248 0.62768 0.06524 0.0
C1581 C 0.12794 0.61179 0.08162 0.0
N1582 N 0.1082 0.57914 0.04929 0.0
C1583 C 0.11614 0.58737 0.07328 0.0
H1584 H 0.11355 0.57549 0.08641 0.0
C1585 C 0.09861 0.54762 0.97814 0.0
N1586 N 0.0988 0.55952 1.0017 0.0
C1587 C 0.10537 0.56102 0.96017 0.0
C1588 C 0.11369 0.58653 0.9665 0.0
H1589 H 0.09242 0.52779 0.97292 0.0
H1590 H 0.14066 0.65259 0.02871 0.0
H1591 H 1.00843 0.50536 0.9951 0.0
H1592 H 0.14161 0.64661 0.07177 0.0
H1593 H 0.13357 0.61832 0.10072 0.0
H1594 H 0.13228 0.63452 0.98523 0.0
H1595 H 0.02064 0.55346 0.1083 0.0
H1596 H 0.972 0.43565 1.00707 0.0
H1597 H 0.98671 0.46282 0.97882 0.0
H1598 H 0.97103 0.44912 0.09352 0.0
H1599 H 0.10425 0.55161 0.94147 0.0
H1600 H 0.1191 0.59686 0.95256 0.0
H1601 H 0.96654 0.43059 0.05 0.0
H1602 H 1.00335 0.53081 0.13889 0.0
N1603 N 1.00645 0.50201 0.03189 0.0
C1604 C 0.98151 0.4543 0.01424 0.0
C1605 C 0.98973 0.46958 0.99823 0.0
C1606 C 0.98511 0.46352 0.03929 0.0
C1607 C 0.99773 0.48786 0.04769 0.0
C1608 C 1.00205 0.49364 1.00745 0.0
N1609 N 0.01219 0.52196 0.07955 0.0
C1610 C 1.00053 0.49818 0.07223 0.0
C1611 C 1.00264 0.52136 0.12027 0.0
C1612 C 0.99195 0.49638 0.11333 0.0
C1613 C 0.01237 0.53411 0.10299 0.0
C1614 C 0.99044 0.48459 0.089 0.0
H1615 H 0.98437 0.48657 0.12675 0.0
O1616 O 0.01339 0.57177 0.06236 0.0
O1617 O 0.06142 0.56495 0.04333 0.0
O1618 O 0.08297 0.54375 0.07315 0.0
O1619 O 0.04585 0.52829 0.07853 0.0
O1620 O 0.04728 0.57589 0.07478 0.0
O1621 O 0.99651 0.54398 0.03164 0.0
O1622 O 0.10048 0.5123 0.01247 0.0
O1623 O 0.04969 0.5172 0.02929 0.0
O1624 O 0.03262 0.54995 0.01187 0.0
O1625 O 0.06276 0.53365 0.99885 0.0
O1626 O 0.07378 0.50194 0.04338 0.0
O1627 O 0.11615 0.53212 0.04797 0.0
C1628 C 0.06328 0.58243 0.06174 0.0
C1629 C 0.97865 0.45997 0.08086 0.0
C1630 C 0.97606 0.44943 0.05607 0.0
C1631 C 0.99575 0.56413 0.04676 0.0
C1632 C 0.97435 0.56635 0.05626 0.0
C1633 C 0.96763 0.5567 0.07667 0.0
C1634 C 0.9614 0.5805 0.04591 0.0
C1635 C 0.94217 0.58558 0.0562 0.0
C1636 C 0.94863 0.5619 0.08714 0.0
C1637 C 0.93601 0.57648 0.0771 0.0
C1638 C 0.06715 0.53505 0.08606 0.0
C1639 C 0.05302 0.49723 0.03513 0.0
C1640 C 0.11739 0.51571 0.02886 0.0
C1641 C 0.13955 0.51645 0.02009 0.0
C1642 C 0.14909 0.53507 0.00781 0.0
C1643 C 0.15111 0.49783 0.02355 0.0
C1644 C 0.17194 0.49772 0.01446 0.0
C1645 C 0.16973 0.53488 0.99867 0.0
C1646 C 0.18108 0.51627 1.00188 0.0
C1647 C 0.04551 0.54356 0.99514 0.0
H1648 H 0.97708 0.54544 0.0847 0.0
H1649 H 0.96656 0.58803 0.03014 0.0
H1650 H 0.94369 0.55464 0.10307 0.0
H1651 H 0.92119 0.58017 0.08528 0.0
H1652 H 0.14059 0.54967 1.00521 0.0
H1653 H 0.14379 0.48332 0.03295 0.0
H1654 H 0.17691 0.54914 0.98898 0.0
H1655 H 0.197 0.51628 0.9945 0.0
H1656 H 0.03018 0.18509 0.94148 0.0
H1657 H 0.04279 0.23888 0.00885 0.0
H1658 H 0.05419 0.20764 0.03036 0.0
H1659 H 1.00829 0.13106 0.96718 0.0
H1660 H 0.02125 0.11069 0.94703 0.0
H1661 H 0.01365 0.13716 0.93741 0.0
H1662 H 0.05458 0.15247 0.92841 0.0
H1663 H 0.06228 0.1261 0.93816 0.0
H1664 H 0.0771 0.15702 0.9521 0.0
H1665 H 0.06365 0.168 0.04507 0.0
H1666 H 0.06981 0.1266 0.05004 0.0
H1667 H 0.05373 0.10021 0.97261 0.0
C1668 C 0.03517 0.19034 0.9608 0.0
C1669 C 0.03528 0.21474 0.97332 0.0
C1670 C 0.0423 0.2205 0.99864 0.0
C1671 C 0.0489 0.20275 0.01109 0.0
C1672 C 0.04872 0.17895 0.99817 0.0
C1673 C 0.04204 0.17285 0.97349 0.0
C1674 C 0.04356 0.14622 0.96355 0.0
C1675 C 0.02031 0.13035 0.95318 0.0
C1676 C 0.06038 0.14542 0.94442 0.0
C1677 C 0.0521 0.13817 0.98628 0.0
C1678 C 0.05488 0.15715 1.00624 0.0
C1679 C 0.06172 0.15329 0.02933 0.0
C1680 C 0.06547 0.12964 0.03203 0.0
C1681 C 0.06296 0.10994 0.01172 0.0
C1682 C 0.05626 0.11473 0.9886 0.0
H1683 H 0.15172 0.81924 0.19829 0.0
H1684 H 0.18543 0.83278 0.1348 0.0
H1685 H 0.22174 0.83458 0.15733 0.0
H1686 H 0.19556 0.85933 0.24374 0.0
H1687 H 0.19243 0.8387 0.26513 0.0
H1688 H 0.16881 0.83911 0.24452 0.0
H1689 H 0.16359 0.79198 0.22891 0.0
H1690 H 0.18716 0.79143 0.24949 0.0
H1691 H 0.18678 0.77984 0.21745 0.0
H1692 H 0.25455 0.83409 0.18589 0.0
H1693 H 0.28188 0.83079 0.21836 0.0
H1694 H 0.22856 0.81725 0.26486 0.0
C1695 C 0.16678 0.82281 0.18921 0.0
C1696 C 0.16551 0.82604 0.16458 0.0
C1697 C 0.18572 0.83035 0.15349 0.0
C1698 C 0.20654 0.83141 0.16622 0.0
C1699 C 0.20723 0.82811 0.19027 0.0
C1700 C 0.18793 0.82387 0.20176 0.0
C1701 C 0.19364 0.82037 0.22768 0.0
C1702 C 0.18722 0.84058 0.24637 0.0
C1703 C 0.18211 0.79436 0.23108 0.0
C1704 C 0.21911 0.82331 0.22886 0.0
C1705 C 0.22642 0.82779 0.20698 0.0
C1706 C 0.24898 0.8307 0.20312 0.0
C1707 C 0.26448 0.82879 0.22183 0.0
C1708 C 0.25775 0.82403 0.24456 0.0
C1709 C 0.23457 0.82144 0.24806 0.0
H1710 H 0.5236 0.84721 0.50293 0.0
H1711 H 0.54224 0.85599 0.43117 0.0
H1712 H 0.54736 0.90102 0.44309 0.0
H1713 H 0.49397 0.89851 0.51163 0.0
H1714 H 0.50371 0.90921 0.54337 0.0
H1715 H 0.50035 0.87692 0.52984 0.0
H1716 H 0.54161 0.87823 0.54389 0.0
H1717 H 0.54501 0.91032 0.55799 0.0
H1718 H 0.56354 0.90137 0.53607 0.0
H1719 H 0.54943 0.94498 0.46128 0.0
H1720 H 0.55429 0.98627 0.48722 0.0
H1721 H 0.53784 0.95202 0.54906 0.0
C1722 C 0.52872 0.85865 0.48977 0.0
C1723 C 0.53224 0.84767 0.46588 0.0
C1724 C 0.53916 0.86355 0.44942 0.0
C1725 C 0.54207 0.88933 0.45599 0.0
C1726 C 0.53815 0.89951 0.47929 0.0
C1727 C 0.53198 0.88486 0.49617 0.0
C1728 C 0.52987 0.90124 0.52033 0.0
C1729 C 0.50553 0.89616 0.52668 0.0
C1730 C 0.54598 0.89757 0.54078 0.0
C1731 C 0.53659 0.92717 0.51446 0.0
C1732 C 0.54055 0.92549 0.49038 0.0
C1733 C 0.54645 0.94654 0.48019 0.0
C1734 C 0.54906 0.96998 0.49506 0.0
C1735 C 0.54626 0.97249 0.52011 0.0
C1736 C 0.53981 0.95069 0.5299 0.0
H1737 H 0.54176 0.33892 0.67359 0.0
H1738 H 0.53082 0.26694 0.62619 0.0
H1739 H 0.49519 0.25372 0.64333 0.0
H1740 H 0.52161 0.32092 0.7252 0.0
H1741 H 0.50713 0.34568 0.73333 0.0
H1742 H 0.53069 0.3502 0.71585 0.0
H1743 H 0.50624 0.36213 0.68246 0.0
H1744 H 0.4825 0.35756 0.69987 0.0
H1745 H 0.48044 0.34109 0.66902 0.0
H1746 H 0.46293 0.24673 0.66878 0.0
H1747 H 0.43623 0.24698 0.7001 0.0
H1748 H 0.46655 0.32393 0.72976 0.0
C1749 C 0.53168 0.3205 0.66667 0.0
C1750 C 0.53907 0.3039 0.64861 0.0
C1751 C 0.5254 0.28 0.63989 0.0
C1752 C 0.50511 0.27233 0.64951 0.0
C1753 C 0.49833 0.28901 0.66743 0.0
C1754 C 0.511 0.31276 0.67564 0.0
C1755 C 0.49995 0.32688 0.69525 0.0
C1756 C 0.51579 0.33646 0.7188 0.0
C1757 C 0.49181 0.34818 0.68611 0.0
C1758 C 0.4802 0.30674 0.69825 0.0
C1759 C 0.47925 0.28522 0.68156 0.0
C1760 C 0.46323 0.26364 0.68157 0.0
C1761 C 0.44808 0.26394 0.69934 0.0
C1762 C 0.44906 0.2856 0.71689 0.0
C1763 C 0.46512 0.30735 0.7161 0.0
H1764 H 0.02575 0.8397 0.63489 0.0
H1765 H 0.02187 0.76968 0.5857 0.0
H1766 H 0.0351 0.79212 0.55378 0.0
H1767 H 1.00776 0.87234 0.58823 0.0
H1768 H 0.02653 0.90136 0.60168 0.0
H1769 H 0.01532 0.87994 0.62057 0.0
H1770 H 0.05545 0.87987 0.63776 0.0
H1771 H 0.0668 0.90132 0.61903 0.0
H1772 H 0.07553 0.87229 0.61719 0.0
H1773 H 0.05002 0.82073 0.52818 0.0
H1774 H 0.06688 0.85529 0.50913 0.0
H1775 H 0.06221 0.90754 0.57452 0.0
C1776 C 0.02744 0.82918 0.61728 0.0
C1777 C 0.0227 0.80302 0.6126 0.0
C1778 C 0.02525 0.78975 0.58952 0.0
C1779 C 0.03273 0.80229 0.57128 0.0
C1780 C 0.03738 0.82803 0.57643 0.0
C1781 C 0.03483 0.84144 0.59875 0.0
C1782 C 0.04182 0.86907 0.5995 0.0
C1783 C 0.02166 0.8814 0.60267 0.0
C1784 C 0.06105 0.88134 0.61955 0.0
C1785 C 0.04949 0.86885 0.57434 0.0
C1786 C 0.0464 0.84493 0.56138 0.0
C1787 C 0.05253 0.83961 0.538 0.0
C1788 C 0.06228 0.85932 0.52745 0.0
C1789 C 0.06603 0.884 0.54039 0.0
C1790 C 0.05935 0.88884 0.5641 0.0
H1791 H 0.53963 0.81769 0.86971 0.0
H1792 H 0.58613 0.88097 0.85394 0.0
H1793 H 0.55466 0.89689 0.83849 0.0
H1794 H 0.505 0.80659 0.81669 0.0
H1795 H 0.47907 0.79758 0.82957 0.0
H1796 H 0.5048 0.79369 0.8439 0.0
H1797 H 0.49734 0.81976 0.88413 0.0
H1798 H 0.47168 0.82411 0.86971 0.0
H1799 H 0.49287 0.85061 0.88464 0.0
H1800 H 0.51977 0.90429 0.82162 0.0
H1801 H 0.48362 0.89923 0.79761 0.0
H1802 H 0.45953 0.82962 0.82097 0.0
C1803 C 0.54302 0.83504 0.86326 0.0
C1804 C 0.56514 0.84816 0.86293 0.0
C1805 C 0.56921 0.87058 0.85411 0.0
C1806 C 0.55147 0.88001 0.84571 0.0
C1807 C 0.5298 0.86671 0.84618 0.0
C1808 C 0.52543 0.84452 0.85435 0.0
C1809 C 0.50081 0.83222 0.84949 0.0
C1810 C 0.49723 0.80599 0.83397 0.0
C1811 C 0.49004 0.83165 0.87342 0.0
C1812 C 0.49249 0.85009 0.83569 0.0
C1813 C 0.50931 0.87041 0.83509 0.0
C1814 C 0.50632 0.88862 0.82208 0.0
C1815 C 0.48583 0.88546 0.80832 0.0
C1816 C 0.46889 0.86392 0.80721 0.0
C1817 C 0.472 0.84651 0.82181 0.0
H1818 H 0.52335 0.18976 0.14933 0.0
H1819 H 0.45804 0.19074 0.1157 0.0
H1820 H 0.46047 0.15488 0.0839 0.0
H1821 H 0.54562 0.18516 0.0959 0.0
H1822 H 0.56551 0.16728 0.10336 0.0
H1823 H 0.55615 0.1875 0.12707 0.0
H1824 H 0.54286 0.15079 0.14889 0.0
H1825 H 0.55278 0.13056 0.1255 0.0
H1826 H 0.52412 0.12297 0.13234 0.0
H1827 H 0.4731 0.12368 0.05258 0.0
H1828 H 0.49458 0.09994 0.02502 0.0
H1829 H 0.55265 0.12469 0.07849 0.0
C1830 C 0.50903 0.18159 0.13602 0.0
C1831 C 0.49027 0.19229 0.13507 0.0
C1832 C 0.47235 0.18222 0.1167 0.0
C1833 C 0.47362 0.16197 0.09869 0.0
C1834 C 0.49309 0.15272 0.09932 0.0
C1835 C 0.51049 0.16232 0.11757 0.0
C1836 C 0.53135 0.1531 0.11189 0.0
C1837 C 0.55077 0.17453 0.10941 0.0
C1838 C 0.53815 0.13846 0.13078 0.0
C1839 C 0.52294 0.13656 0.08776 0.0
C1840 C 0.50088 0.13631 0.0807 0.0
C1841 C 0.4903 0.1235 0.05807 0.0
C1842 C 0.50266 0.11039 0.04248 0.0
C1843 C 0.52525 0.11056 0.04977 0.0
C1844 C 0.53536 0.1239 0.07256 0.0
H1845 H 0.15678 0.29418 0.33485 0.0
H1846 H 0.18522 0.37306 0.35283 0.0
H1847 H 0.21271 0.36791 0.32285 0.0
H1848 H 0.20639 0.27879 0.33829 0.0
H1849 H 0.1985 0.25106 0.31533 0.0
H1850 H 0.1775 0.26246 0.33163 0.0
H1851 H 0.15598 0.26338 0.29053 0.0
H1852 H 0.17764 0.25276 0.27416 0.0
H1853 H 0.1698 0.28105 0.26978 0.0
H1854 H 0.24 0.35323 0.29674 0.0
H1855 H 0.26861 0.33067 0.28153 0.0
H1856 H 0.22545 0.26235 0.28935 0.0
C1857 C 0.16825 0.31049 0.33174 0.0
C1858 C 0.16881 0.33401 0.34553 0.0
C1859 C 0.18456 0.35491 0.34202 0.0
C1860 C 0.19995 0.35217 0.32486 0.0
C1861 C 0.1993 0.32843 0.31179 0.0
C1862 C 0.18405 0.30791 0.31546 0.0
C1863 C 0.19 0.284 0.30421 0.0
C1864 C 0.19332 0.26821 0.32351 0.0
C1865 C 0.17229 0.26945 0.28343 0.0
C1866 C 0.21168 0.29418 0.29467 0.0
C1867 C 0.21614 0.31974 0.29798 0.0
C1868 C 0.23633 0.33326 0.29288 0.0
C1869 C 0.25258 0.32035 0.28477 0.0
C1870 C 0.24911 0.29452 0.28379 0.0
C1871 C 0.22825 0.28142 0.28821 0.0
H1872 H 0.97799 0.09565 0.19764 0.0
H1873 H 1.00142 0.03954 0.22983 0.0
H1874 H 0.02406 0.03182 0.19548 0.0
H1875 H 0.97451 0.0678 0.13415 0.0
H1876 H 0.98637 0.09577 0.12369 0.0
H1877 H 0.97221 0.09755 0.15087 0.0
H1878 H 1.00736 0.12732 0.17485 0.0
H1879 H 0.02162 0.12559 0.14768 0.0
H1880 H 0.03387 0.1181 0.17463 0.0
H1881 H 0.04617 0.03047 0.15662 0.0
H1882 H 0.06248 0.0338 0.11804 0.0
H1883 H 0.02478 0.08912 0.10712 0.0
C1884 C 0.98783 0.08165 0.19754 0.0
C1885 C 0.98733 0.06813 0.21733 0.0
C1886 C 1.00108 0.05038 0.21571 0.0
C1887 C 0.01419 0.04582 0.19592 0.0
C1888 C 0.01436 0.05931 0.17703 0.0
C1889 C 1.0016 0.07709 0.17774 0.0
C1890 C 1.00554 0.08947 0.15525 0.0
C1891 C 0.98332 0.08752 0.14008 0.0
C1892 C 0.0178 0.11674 0.16359 0.0
C1893 C 0.02093 0.07463 0.14086 0.0
C1894 C 0.02643 0.05796 0.15441 0.0
C1895 C 0.04154 0.04335 0.14601 0.0
C1896 C 0.05091 0.04537 0.12362 0.0
C1897 C 0.04512 0.06127 0.10825 0.0
C1898 C 0.0297 0.07626 0.11757 0.0
H1899 H 0.27639 0.70153 0.5117 0.0
H1900 H 0.29948 0.64616 0.46145 0.0
H1901 H 0.29456 0.66926 0.4285 0.0
H1902 H 0.23394 0.7098 0.4732 0.0
H1903 H 0.23805 0.74277 0.4838 0.0
H1904 H 0.24591 0.72355 0.50385 0.0
H1905 H 0.28636 0.75041 0.51126 0.0
H1906 H 0.27862 0.76987 0.4913 0.0
H1907 H 0.30194 0.75526 0.48573 0.0
H1908 H 0.28306 0.69549 0.40084 0.0
H1909 H 0.26744 0.72453 0.38008 0.0
H1910 H 0.2529 0.76292 0.44924 0.0
C1911 C 0.2807 0.69444 0.49382 0.0
C1912 C 0.28819 0.67219 0.48882 0.0
C1913 C 0.29377 0.66335 0.4654 0.0
C1914 C 0.29107 0.67631 0.44671 0.0
C1915 C 0.28317 0.69803 0.45216 0.0
C1916 C 0.27832 0.70717 0.4752 0.0
C1917 C 0.26893 0.7301 0.47614 0.0
C1918 C 0.24531 0.7263 0.48475 0.0
C1919 C 0.28492 0.75275 0.49204 0.0
C1920 C 0.26825 0.73179 0.44973 0.0
C1921 C 0.27678 0.71334 0.43625 0.0
C1922 C 0.27669 0.71028 0.4112 0.0
C1923 C 0.26773 0.72672 0.39963 0.0
C1924 C 0.25903 0.74577 0.41326 0.0
C1925 C 0.25932 0.74834 0.43853 0.0
H1926 H 0.6684 0.08443 0.68897 0.0
H1927 H 0.68946 0.01568 0.66459 0.0
H1928 H 0.65491 1.00033 0.63646 0.0
H1929 H 0.61246 0.06068 0.68994 0.0
H1930 H 0.60209 0.08436 0.67768 0.0
H1931 H 0.62949 0.09162 0.69421 0.0
H1932 H 0.64786 0.10692 0.65779 0.0
H1933 H 0.62052 0.10093 0.6414 0.0
H1934 H 0.64218 0.08704 0.62826 0.0
H1935 H 0.61638 0.99031 0.61633 0.0
H1936 H 0.58211 0.99207 0.59194 0.0
H1937 H 0.58682 0.06775 0.6285 0.0
C1938 C 0.6661 0.0666 0.67691 0.0
C1939 C 0.6812 0.05106 0.67876 0.0
C1940 C 0.67797 0.02782 0.66302 0.0
C1941 C 0.65825 0.01877 0.64747 0.0
C1942 C 0.64256 0.03359 0.64784 0.0
C1943 C 0.64673 0.05747 0.66112 0.0
C1944 C 0.62749 0.06992 0.65741 0.0
C1945 C 0.6173 0.07706 0.68124 0.0
C1946 C 0.63493 0.09254 0.6455 0.0
C1947 C 0.61164 0.04906 0.64033 0.0
C1948 C 0.62044 0.02805 0.63562 0.0
C1949 C 0.60929 1.00661 0.61973 0.0
C1950 C 0.58966 1.00757 0.60641 0.0
C1951 C 0.58218 0.02998 0.60885 0.0
C1952 C 0.59212 0.0503 0.62712 0.0
H1953 H 0.34823 0.33969 0.96411 0.0
H1954 H 0.28862 0.37024 0.96763 0.0
H1955 H 0.27768 0.35309 0.92441 0.0
H1956 H 0.36152 0.35476 0.9084 0.0
H1957 H 0.37153 0.32699 0.89837 0.0
H1958 H 0.37197 0.33848 0.93011 0.0
H1959 H 0.34932 0.29437 0.93259 0.0
H1960 H 0.34805 0.28453 0.90013 0.0
H1961 H 0.32258 0.28241 0.91481 0.0
H1962 H 0.27634 0.34085 0.88184 0.0
H1963 H 0.28372 0.33397 0.84036 0.0
H1964 H 0.34271 0.30647 0.85929 0.0
C1965 C 0.33256 0.34195 0.95576 0.0
C1966 C 0.31916 0.35617 0.96913 0.0
C1967 C 0.29909 0.35946 0.95766 0.0
C1968 C 0.29264 0.34959 0.93315 0.0
C1969 C 0.30643 0.33641 0.92016 0.0
C1970 C 0.32588 0.3323 0.93085 0.0
C1971 C 0.33873 0.32012 0.91155 0.0
C1972 C 0.36232 0.33613 0.91216 0.0
C1973 C 0.33972 0.29379 0.91498 0.0
C1974 C 0.32407 0.31952 0.8883 0.0
C1975 C 0.30538 0.3286 0.89424 0.0
C1976 C 0.29045 0.33284 0.87687 0.0
C1977 C 0.29482 0.3284 0.85277 0.0
C1978 C 0.31364 0.31886 0.84527 0.0
C1979 C 0.32818 0.31367 0.8636 0.0
H1980 H 0.98454 0.03407 0.34809 0.0
H1981 H 0.99529 0.11415 0.36343 0.0
H1982 H 0.01574 0.11519 0.4031 0.0
H1983 H 0.97532 0.02473 0.4096 0.0
H1984 H 0.98994 0.99979 0.4088 0.0
H1985 H 0.97716 1.00517 0.38104 0.0
H1986 H 0.01514 1.00858 0.36307 0.0
H1987 H 0.02801 1.00342 0.39093 0.0
H1988 H 0.03934 0.03067 0.37911 0.0
H1989 H 0.03695 0.10749 0.44323 0.0
H1990 H 0.05125 0.09238 0.47828 0.0
H1991 H 0.02502 0.01702 0.44066 0.0
C1992 C 0.99127 0.05195 0.35963 0.0
C1993 C 0.98794 0.07422 0.35146 0.0
C1994 C 0.99724 0.09676 0.36817 0.0
C1995 C 0.00912 0.09751 0.39115 0.0
C1996 C 0.01206 0.07551 0.39848 0.0
C1997 C 1.00318 0.05302 0.38316 0.0
C1998 C 1.0082 0.03202 0.39593 0.0
C1999 C 0.98635 0.01437 0.39902 0.0
C2000 C 0.02357 0.01781 0.38139 0.0
C2001 C 0.02056 0.04598 0.42096 0.0
C2002 C 0.0231 0.07113 0.42169 0.0
C2003 C 0.03459 0.08772 0.44247 0.0
C2004 C 0.04288 0.07875 0.46281 0.0
C2005 C 0.03983 0.05302 0.46382 0.0
C2006 C 0.02841 0.03665 0.44175 0.0
H2007 H 0.27487 0.67559 0.62255 0.0
H2008 H 0.32752 0.71365 0.58577 0.0
H2009 H 0.33 0.7523 0.61532 0.0
H2010 H 0.24791 0.72749 0.63846 0.0
H2011 H 0.24194 0.72054 0.66779 0.0
H2012 H 0.24324 0.6959 0.64297 0.0
H2013 H 0.27367 0.68198 0.6683 0.0
H2014 H 0.27156 0.70579 0.69337 0.0
H2015 H 0.2984 0.7046 0.68228 0.0
H2016 H 0.32622 0.78693 0.64815 0.0
H2017 H 0.32345 0.81171 0.68839 0.0
H2018 H 0.27456 0.75036 0.70366 0.0
C2019 C 0.28695 0.69205 0.62086 0.0
C2020 C 0.30077 0.69193 0.60191 0.0
C2021 C 0.31654 0.71365 0.60014 0.0
C2022 C 0.31792 0.73571 0.6166 0.0
C2023 C 0.30328 0.73563 0.63447 0.0
C2024 C 0.28846 0.71428 0.63704 0.0
C2025 C 0.27592 0.71873 0.65899 0.0
C2026 C 0.25076 0.71547 0.6516 0.0
C2027 C 0.28017 0.70179 0.67679 0.0
C2028 C 0.28674 0.74559 0.66888 0.0
C2029 C 0.30192 0.75526 0.65407 0.0
C2030 C 0.31471 0.77939 0.66016 0.0
C2031 C 0.3134 0.79316 0.68311 0.0
C2032 C 0.30055 0.78201 0.6998 0.0
C2033 C 0.28539 0.75903 0.69167 0.0
H2034 H 0.67183 0.03083 0.81658 0.0
H2035 H 0.69722 0.10216 0.79787 0.0
H2036 H 0.67633 0.12208 0.82857 0.0
H2037 H 0.61988 0.03499 0.81929 0.0
H2038 H 0.6135 0.02107 0.84531 0.0
H2039 H 0.63557 0.01337 0.828 0.0
H2040 H 0.66382 0.02693 0.86655 0.0
H2041 H 0.64168 0.03429 0.88425 0.0
H2042 H 0.66696 0.0574 0.88484 0.0
H2043 H 0.64618 0.13196 0.85172 0.0
H2044 H 0.61071 0.13218 0.87045 0.0
H2045 H 0.6045 0.05477 0.87481 0.0
C2046 C 0.67371 0.05078 0.82004 0.0
C2047 C 0.68631 0.06531 0.80572 0.0
C2048 C 0.68804 0.09115 0.80951 0.0
C2049 C 0.67627 0.10256 0.82684 0.0
C2050 C 0.66306 0.08772 0.84016 0.0
C2051 C 0.66207 0.06245 0.83745 0.0
C2052 C 0.64416 0.0503 0.85143 0.0
C2053 C 0.62729 0.02868 0.835 0.0
C2054 C 0.65479 0.04174 0.87306 0.0
C2055 C 0.63365 0.07206 0.85986 0.0
C2056 C 0.64523 0.09362 0.85386 0.0
C2057 C 0.63726 0.11543 0.85719 0.0
C2058 C 0.61696 0.11529 0.86727 0.0
C2059 C 0.60505 0.09344 0.87361 0.0
C2060 C 0.61354 0.07168 0.87003 0.0
H2061 H 0.29589 0.3283 0.08955 0.0
H2062 H 0.34912 0.39077 0.12406 0.0
H2063 H 0.34501 0.37777 0.16311 0.0
H2064 H 0.2622 0.33078 0.14175 0.0
H2065 H 0.25302 0.29766 0.1383 0.0
H2066 H 0.25927 0.31134 0.11211 0.0
H2067 H 0.2875 0.28346 0.10186 0.0
H2068 H 0.28129 0.26967 0.12796 0.0
H2069 H 0.30981 0.2837 0.12447 0.0
H2070 H 0.33482 0.36134 0.19807 0.0
H2071 H 0.3224 0.33853 0.22906 0.0
H2072 H 0.27667 0.28263 0.17491 0.0
C2073 C 0.30677 0.33899 0.10536 0.0
C2074 C 0.32291 0.36065 0.10368 0.0
C2075 C 0.33663 0.37429 0.12479 0.0
C2076 C 0.33439 0.36708 0.14714 0.0
C2077 C 0.31828 0.34611 0.14837 0.0
C2078 C 0.30473 0.33198 0.12825 0.0
C2079 C 0.28886 0.31022 0.13556 0.0
C2080 C 0.26439 0.31264 0.13169 0.0
C2081 C 0.29208 0.28527 0.12163 0.0
C2082 C 0.29652 0.31402 0.16265 0.0
C2083 C 0.31301 0.33539 0.16933 0.0
C2084 C 0.32215 0.34435 0.1931 0.0
C2085 C 0.31473 0.33101 0.21071 0.0
C2086 C 0.29866 0.30814 0.20482 0.0
C2087 C 0.28923 0.29963 0.18023 0.0
H2088 H 0.26816 0.95814 0.04381 0.0
H2089 H 0.28727 0.99311 0.98322 0.0
H2090 H 0.26015 0.02006 0.99187 0.0
H2091 H 0.20874 0.9638 0.04331 0.0
H2092 H 0.21121 0.97185 0.07599 0.0
H2093 H 0.22766 0.95152 0.0612 0.0
H2094 H 0.26372 0.98073 0.08452 0.0
H2095 H 0.24762 1.00157 0.09893 0.0
H2096 H 0.27001 0.01286 0.08173 0.0
H2097 H 0.23459 0.04607 0.01019 0.0
H2098 H 0.21236 0.0696 0.03687 0.0
H2099 H 0.21398 0.02007 0.08782 0.0
C2100 C 0.26567 0.97057 0.03163 0.0
C2101 C 0.2789 0.97324 0.01242 0.0
C2102 C 0.27657 0.99062 0.99762 0.0
C2103 C 0.26135 1.00595 1.00246 0.0
C2104 C 0.24926 1.00379 0.02245 0.0
C2105 C 0.25131 0.98655 0.03682 0.0
C2106 C 0.23955 0.99061 0.05946 0.0
C2107 C 0.22066 0.96811 0.06001 0.0
C2108 C 0.25622 0.99681 0.0825 0.0
C2109 C 0.23054 0.01285 0.05564 0.0
C2110 C 0.23607 0.02003 0.03409 0.0
C2111 C 0.23004 0.04058 0.02704 0.0
C2112 C 0.21766 0.0539 0.04231 0.0
C2113 C 0.21193 0.04673 0.06442 0.0
C2114 C 0.21858 0.02611 0.07119 0.0
H2115 H 0.7159 0.6476 0.97438 0.0
H2116 H 0.74493 0.64887 0.04703 0.0
H2117 H 0.71163 0.61865 0.05342 0.0
H2118 H 0.65878 0.64282 0.98689 0.0
H2119 H 0.64693 0.62099 0.95943 0.0
H2120 H 0.67341 0.64209 0.96 0.0
H2121 H 0.69153 0.60495 0.94549 0.0
H2122 H 0.66514 0.58364 0.94525 0.0
H2123 H 0.68974 0.5805 0.96269 0.0
H2124 H 0.67672 0.5877 0.05198 0.0
H2125 H 0.63823 0.56264 0.04575 0.0
H2126 H 0.62884 0.58215 0.97512 0.0
C2127 C 0.71497 0.64164 0.99166 0.0
C2128 C 0.73282 0.65063 0.01039 0.0
C2129 C 0.73136 0.64217 0.03258 0.0
C2130 C 0.71261 0.62488 0.03629 0.0
C2131 C 0.69547 0.6159 0.01747 0.0
C2132 C 0.69623 0.62405 0.99565 0.0
C2133 C 0.67504 0.61137 0.9788 0.0
C2134 C 0.66281 0.63047 0.97083 0.0
C2135 C 0.6807 0.5941 0.95674 0.0
C2136 C 0.6617 0.59635 0.99528 0.0
C2137 C 0.67442 0.59854 0.01706 0.0
C2138 C 0.66646 0.58611 0.03516 0.0
C2139 C 0.64453 0.572 0.0315 0.0
C2140 C 0.6304 0.571 0.01031 0.0
C2141 C 0.6393 0.58266 0.99152 0.0
H2142 H 0.704 0.42694 0.28425 0.0
H2143 H 0.75607 0.48331 0.26583 0.0
H2144 H 0.78142 0.45401 0.26235 0.0
H2145 H 0.74132 0.40134 0.32176 0.0
H2146 H 0.72658 0.36949 0.31214 0.0
H2147 H 0.71179 0.39413 0.31172 0.0
H2148 H 0.69851 0.37717 0.26639 0.0
H2149 H 0.71334 0.35253 0.26675 0.0
H2150 H 0.71891 0.37275 0.24522 0.0
H2151 H 0.80178 0.41425 0.25685 0.0
H2152 H 0.81397 0.37477 0.25684 0.0
H2153 H 0.75319 0.34587 0.28635 0.0
C2154 C 0.72069 0.4333 0.27938 0.0
C2155 C 0.72725 0.4585 0.27513 0.0
C2156 C 0.74978 0.46485 0.26917 0.0
C2157 C 0.76461 0.44793 0.26704 0.0
C2158 C 0.75772 0.42364 0.27128 0.0
C2159 C 0.73623 0.41649 0.27777 0.0
C2160 C 0.7334 0.38958 0.28245 0.0
C2161 C 0.72795 0.38858 0.30858 0.0
C2162 C 0.71493 0.37196 0.26413 0.0
C2163 C 0.75652 0.38298 0.27825 0.0
C2164 C 0.77012 0.4026 0.271 0.0
C2165 C 0.7913 0.39957 0.26376 0.0
C2166 C 0.79879 0.37688 0.26451 0.0
C2167 C 0.78638 0.35686 0.27384 0.0
C2168 C 0.7644 0.36054 0.28021 0.0
H2169 H 0.90424 0.45962 0.50073 0.0
H2170 H 0.89536 0.51214 0.56379 0.0
H2171 H 0.93169 0.53943 0.55938 0.0
H2172 H 0.95936 0.46163 0.51117 0.0
H2173 H 0.96555 0.46021 0.48008 0.0
H2174 H 0.93782 0.44732 0.48656 0.0
H2175 H 0.92107 0.47559 0.46121 0.0
H2176 H 0.94905 0.48679 0.45408 0.0
H2177 H 0.93299 0.50842 0.46728 0.0
H2178 H 0.96991 0.55795 0.55036 0.0
H2179 H 1.00883 0.56484 0.54057 0.0
H2180 H 0.99248 0.49916 0.48389 0.0
C2181 C 0.90995 0.47693 0.5136 0.0
C2182 C 0.8975 0.48389 0.5328 0.0
C2183 C 0.90499 0.50673 0.54905 0.0
C2184 C 0.92533 0.52232 0.54647 0.0
C2185 C 0.93723 0.51488 0.52713 0.0
C2186 C 0.92975 0.49274 0.51096 0.0
C2187 C 0.94619 0.48799 0.49279 0.0
C2188 C 0.95261 0.46282 0.4927 0.0
C2189 C 0.93676 0.48985 0.46734 0.0
C2190 C 0.96534 0.50956 0.50292 0.0
C2191 C 0.95937 0.52555 0.52189 0.0
C2192 C 0.9746 0.54598 0.53517 0.0
C2193 C 0.99666 0.54977 0.52938 0.0
C2194 C 1.0033 0.53289 0.5109 0.0
C2195 C 0.98748 0.51273 0.49737 0.0
H2196 H 0.36501 0.07854 0.30823 0.0
H2197 H 0.42312 0.13949 0.3198 0.0
H2198 H 0.4002 0.16547 0.30325 0.0
H2199 H 0.35242 0.084 0.25228 0.0
H2200 H 0.32238 0.07486 0.25116 0.0
H2201 H 0.33981 0.06393 0.27176 0.0
H2202 H 0.32078 0.08212 0.30834 0.0
H2203 H 0.30248 0.09243 0.28789 0.0
H2204 H 0.31892 0.11424 0.3132 0.0
H2205 H 0.37424 0.18075 0.27715 0.0
H2206 H 0.34627 0.18537 0.24556 0.0
H2207 H 0.3071 0.11232 0.24762 0.0
C2208 C 0.37265 0.09778 0.30852 0.0
C2209 C 0.39568 0.10724 0.31525 0.0
C2210 C 0.40536 0.13217 0.3148 0.0
C2211 C 0.39247 0.14696 0.30542 0.0
C2212 C 0.37022 0.13626 0.29664 0.0
C2213 C 0.36033 0.11224 0.29832 0.0
C2214 C 0.33807 0.10304 0.2831 0.0
C2215 C 0.33822 0.08013 0.26343 0.0
C2216 C 0.31892 0.09767 0.2991 0.0
C2217 C 0.33722 0.1254 0.27201 0.0
C2218 C 0.35567 0.14451 0.28031 0.0
C2219 C 0.35946 0.16619 0.27095 0.0
C2220 C 0.3437 0.16854 0.25291 0.0
C2221 C 0.32481 0.14905 0.24426 0.0
C2222 C 0.32155 0.12732 0.25393 0.0
H2223 H 0.36369 0.17982 0.55401 0.0
H2224 H 0.34172 0.1378 0.4812 0.0
H2225 H 0.37111 0.11381 0.48483 0.0
H2226 H 0.42432 0.18005 0.55345 0.0
H2227 H 0.42702 0.17584 0.58446 0.0
H2228 H 0.40669 0.19226 0.5748 0.0
H2229 H 0.37527 0.16207 0.5901 0.0
H2230 H 0.39545 0.14555 0.59973 0.0
H2231 H 0.3713 0.12918 0.57903 0.0
H2232 H 0.40113 0.09264 0.49736 0.0
H2233 H 0.42719 0.07338 0.51906 0.0
H2234 H 0.42795 0.12748 0.58457 0.0
C2235 C 0.36544 0.16593 0.53867 0.0
C2236 C 0.35067 0.16074 0.51723 0.0
C2237 C 0.35297 0.14202 0.49774 0.0
C2238 C 0.36968 0.12845 0.49959 0.0
C2239 C 0.38376 0.13368 0.52115 0.0
C2240 C 0.38172 0.15187 0.54042 0.0
C2241 C 0.39728 0.15199 0.56249 0.0
C2242 C 0.41487 0.17649 0.56918 0.0
C2243 C 0.38402 0.14688 0.5841 0.0
C2244 C 0.4079 0.13059 0.55285 0.0
C2245 C 0.4003 0.12067 0.5288 0.0
C2246 C 0.40728 0.10032 0.51617 0.0
C2247 C 0.42207 0.08952 0.5286 0.0
C2248 C 0.42939 0.09885 0.5535 0.0
C2249 C 0.42244 0.11987 0.56559 0.0
H2250 H 0.72111 0.61468 0.30759 0.0
H2251 H 0.74373 0.57587 0.24339 0.0
H2252 H 0.7676 0.61512 0.23793 0.0
H2253 H 0.71908 0.6715 0.28629 0.0
H2254 H 0.73009 0.69202 0.31475 0.0
H2255 H 0.71515 0.66082 0.31448 0.0
H2256 H 0.749 0.65298 0.33932 0.0
H2257 H 0.76404 0.6842 0.33966 0.0
H2258 H 0.77619 0.65832 0.32823 0.0
H2259 H 0.7905 0.65958 0.23932 0.0
H2260 H 0.80764 0.70441 0.24607 0.0
H2261 H 0.76996 0.71706 0.30802 0.0
C2262 C 0.73112 0.61436 0.2924 0.0
C2263 C 0.7302 0.59138 0.27596 0.0
C2264 C 0.74384 0.59256 0.25645 0.0
C2265 C 0.75763 0.61505 0.25314 0.0
C2266 C 0.75818 0.63711 0.26948 0.0
C2267 C 0.74526 0.63702 0.28879 0.0
C2268 C 0.74914 0.66361 0.30363 0.0
C2269 C 0.72704 0.67251 0.30485 0.0
C2270 C 0.76024 0.66485 0.32924 0.0
C2271 C 0.76538 0.6787 0.2891 0.0
C2272 C 0.7708 0.66282 0.26981 0.0
C2273 C 0.78617 0.67203 0.25437 0.0
C2274 C 0.79603 0.69778 0.25842 0.0
C2275 C 0.79044 0.71495 0.27752 0.0
C2276 C 0.77473 0.70486 0.29307 0.0
H2277 H 0.87764 0.47693 0.7768 0.0
H2278 H 0.92372 0.47485 0.83788 0.0
H2279 H 0.90184 0.43368 0.84101 0.0
H2280 H 0.82734 0.44765 0.7959 0.0
H2281 H 0.81593 0.42896 0.76665 0.0
H2282 H 0.83515 0.45827 0.76852 0.0
H2283 H 0.86158 0.43693 0.74204 0.0
H2284 H 0.84219 0.40763 0.73939 0.0
H2285 H 0.87099 0.41102 0.75084 0.0
H2286 H 0.87608 0.39397 0.83745 0.0
H2287 H 0.85095 0.35356 0.82309 0.0
H2288 H 0.81986 0.38157 0.76564 0.0
C2289 C 0.8831 0.46758 0.79064 0.0
C2290 C 0.90195 0.47872 0.80731 0.0
C2291 C 0.9092 0.46622 0.82499 0.0
C2292 C 0.8968 0.44312 0.82707 0.0
C2293 C 0.87765 0.43302 0.81104 0.0
C2294 C 0.8712 0.44436 0.79267 0.0
C2295 C 0.85089 0.42853 0.77675 0.0
C2296 C 0.83116 0.44165 0.777 0.0
C2297 C 0.85676 0.42056 0.75072 0.0
C2298 C 0.84653 0.4069 0.78961 0.0
C2299 C 0.86218 0.40998 0.80934 0.0
C2300 C 0.86331 0.3915 0.8225 0.0
C2301 C 0.84862 0.36876 0.81455 0.0
C2302 C 0.83271 0.36513 0.79424 0.0
C2303 C 0.83129 0.38448 0.7819 0.0
H2304 H 0.10728 0.88004 0.06092 0.0
H2305 H 0.08364 0.89712 0.13179 0.0
H2306 H 0.07674 0.93632 0.12272 0.0
H2307 H 0.13534 0.94434 0.05998 0.0
H2308 H 0.12805 0.94235 0.02805 0.0
H2309 H 0.13118 0.91497 0.03939 0.0
H2310 H 0.09111 0.89278 0.02023 0.0
H2311 H 0.08795 0.92014 0.00888 0.0
H2312 H 0.06789 0.90701 0.02774 0.0
H2313 H 0.07413 0.97547 0.1077 0.0
H2314 H 0.07414 1.01036 0.0864 0.0
H2315 H 0.09704 0.96978 0.02374 0.0
C2316 C 0.10061 0.892 0.0745 0.0
C2317 C 0.09614 0.88498 0.09733 0.0
C2318 C 0.08745 0.9016 0.11433 0.0
C2319 C 0.08339 0.92415 0.10932 0.0
C2320 C 0.08804 0.93057 0.08703 0.0
C2321 C 0.09644 0.91505 0.06976 0.0
C2322 C 0.10018 0.92714 0.0474 0.0
C2323 C 0.12517 0.9325 0.04346 0.0
C2324 C 0.08593 0.91078 0.02472 0.0
C2325 C 0.09221 0.95141 0.05471 0.0
C2326 C 0.08556 0.95298 0.07784 0.0
C2327 C 0.07881 0.97406 0.08935 0.0
C2328 C 0.07861 0.99384 0.07699 0.0
C2329 C 0.08423 0.99263 0.05283 0.0
C2330 C 0.09165 0.9711 0.04179 0.0
H2331 H 0.94713 0.24153 0.87263 0.0
H2332 H 0.9683 0.31339 0.9202 0.0
H2333 H 0.93641 0.32718 0.90203 0.0
H2334 H 0.92606 0.26099 0.81941 0.0
H2335 H 0.90142 0.23628 0.81189 0.0
H2336 H 0.92601 0.23154 0.82813 0.0
H2337 H 0.90258 0.21901 0.86241 0.0
H2338 H 0.87788 0.22357 0.84619 0.0
H2339 H 0.88639 0.23976 0.87701 0.0
H2340 H 0.90242 0.33406 0.87828 0.0
H2341 H 0.86835 0.33299 0.85231 0.0
H2342 H 0.86604 0.25636 0.81997 0.0
C2343 C 0.94505 0.26018 0.87915 0.0
C2344 C 0.96063 0.27643 0.89797 0.0
C2345 C 0.95684 0.30051 0.90603 0.0
C2346 C 0.93867 0.30857 0.8957 0.0
C2347 C 0.92368 0.29228 0.87737 0.0
C2348 C 0.92639 0.26843 0.86933 0.0
C2349 C 0.90693 0.2545 0.85014 0.0
C2350 C 0.91564 0.24528 0.82595 0.0
C2351 C 0.8926 0.23292 0.85948 0.0
C2352 C 0.89361 0.27455 0.84782 0.0
C2353 C 0.90356 0.29608 0.86403 0.0
C2354 C 0.89446 0.31715 0.86575 0.0
C2355 C 0.87476 0.31627 0.85089 0.0
C2356 C 0.86379 0.29454 0.83409 0.0
C2357 C 0.87372 0.27338 0.8325 0.0
H2358 H 0.58416 0.23349 0.56177 0.0
H2359 H 0.60995 0.23781 0.63644 0.0
H2360 H 0.60468 0.19254 0.62938 0.0
H2361 H 0.54163 0.17754 0.55773 0.0
H2362 H 0.54506 0.1644 0.52693 0.0
H2363 H 0.55162 0.19754 0.53708 0.0
H2364 H 0.59112 0.19921 0.52346 0.0
H2365 H 0.58537 0.16596 0.51398 0.0
H2366 H 0.60901 0.18155 0.53572 0.0
H2367 H 0.59436 0.14616 0.61583 0.0
H2368 H 0.58034 0.10226 0.59587 0.0
H2369 H 0.56214 0.12556 0.5293 0.0
C2370 C 0.58897 0.22492 0.57652 0.0
C2371 C 0.59765 0.23974 0.59978 0.0
C2372 C 0.60335 0.22736 0.61849 0.0
C2373 C 0.60042 0.20142 0.61467 0.0
C2374 C 0.59174 0.1874 0.59187 0.0
C2375 C 0.58611 0.19861 0.57299 0.0
C2376 C 0.57653 0.17869 0.55046 0.0
C2377 C 0.55227 0.17961 0.54259 0.0
C2378 C 0.59139 0.18151 0.52966 0.0
C2379 C 0.57748 0.15481 0.5598 0.0
C2380 C 0.58637 0.16039 0.58378 0.0
C2381 C 0.58785 0.14163 0.59688 0.0
C2382 C 0.58005 0.11662 0.58532 0.0
C2383 C 0.57122 0.11018 0.56063 0.0
C2384 C 0.56972 0.12975 0.54788 0.0
H2385 H 0.59323 0.81295 0.40943 0.0
H2386 H 0.57499 0.73287 0.38979 0.0
H2387 H 0.61042 0.73269 0.37074 0.0
H2388 H 0.6149 0.82109 0.35315 0.0
H2389 H 0.63674 0.84765 0.36637 0.0
H2390 H 0.61135 0.84111 0.38075 0.0
H2391 H 0.63466 0.84082 0.4207 0.0
H2392 H 0.66014 0.84714 0.40635 0.0
H2393 H 0.65396 0.82043 0.42049 0.0
H2394 H 0.64829 0.74171 0.35275 0.0
H2395 H 0.68128 0.75901 0.33282 0.0
H2396 H 0.67344 0.83329 0.36174 0.0
C2397 C 0.59684 0.79538 0.40132 0.0
C2398 C 0.58139 0.77286 0.40126 0.0
C2399 C 0.58652 0.75031 0.39001 0.0
C2400 C 0.60672 0.75005 0.3793 0.0
C2401 C 0.62158 0.77256 0.37948 0.0
C2402 C 0.61666 0.79485 0.38989 0.0
C2403 C 0.63427 0.81656 0.38557 0.0
C2404 C 0.62368 0.83254 0.37057 0.0
C2405 C 0.64648 0.83215 0.40972 0.0
C2406 C 0.64983 0.80311 0.37109 0.0
C2407 C 0.64252 0.77773 0.36814 0.0
C2408 C 0.65406 0.76158 0.35496 0.0
C2409 C 0.67295 0.77159 0.34381 0.0
C2410 C 0.68003 0.79754 0.34547 0.0
C2411 C 0.66849 0.81336 0.35991 0.0
H2412 H 0.09434 0.25674 0.41099 0.0
H2413 H 0.15776 0.29168 0.45371 0.0
H2414 H 0.15281 0.25783 0.47719 0.0
H2415 H 0.06579 0.24282 0.45821 0.0
H2416 H 0.04864 0.21383 0.44203 0.0
H2417 H 0.05953 0.23766 0.42572 0.0
H2418 H 0.0779 0.20683 0.39824 0.0
H2419 H 0.06719 0.18284 0.41466 0.0
H2420 H 0.09679 0.19101 0.41179 0.0
H2421 H 0.13857 0.22338 0.49904 0.0
H2422 H 0.1149 0.19367 0.5197 0.0
H2423 H 0.06035 0.18308 0.46343 0.0
C2424 C 0.10756 0.25692 0.42479 0.0
C2425 C 0.12658 0.27655 0.43041 0.0
C2426 C 0.14322 0.27653 0.44898 0.0
C2427 C 0.14058 0.25736 0.46229 0.0
C2428 C 0.1213 0.23849 0.4566 0.0
C2429 C 0.10506 0.23821 0.43828 0.0
C2430 C 0.08451 0.21801 0.43775 0.0
C2431 C 0.0634 0.22874 0.44115 0.0
C2432 C 0.08143 0.19851 0.41422 0.0
C2433 C 0.09118 0.20772 0.45949 0.0
C2434 C 0.11271 0.21921 0.46969 0.0
C2435 C 0.12183 0.21403 0.49105 0.0
C2436 C 0.10833 0.19728 0.50267 0.0
C2437 C 0.08592 0.18657 0.49312 0.0
C2438 C 0.07749 0.19124 0.47097 0.0
H2439 H 0.58721 0.28593 0.18236 0.0
H2440 H 0.55414 0.22573 0.21518 0.0
H2441 H 0.59072 0.2165 0.22618 0.0
H2442 H 0.63542 0.25748 0.1617 0.0
H2443 H 0.65498 0.28697 0.16958 0.0
H2444 H 0.62618 0.28558 0.15931 0.0
H2445 H 0.62257 0.31615 0.19845 0.0
H2446 H 0.65134 0.31791 0.2085 0.0
H2447 H 0.62976 0.30905 0.22763 0.0
H2448 H 0.62996 0.21671 0.23778 0.0
H2449 H 0.66937 0.23086 0.25547 0.0
H2450 H 0.67738 0.29251 0.21771 0.0
C2451 C 0.58776 0.27054 0.19146 0.0
C2452 C 0.56808 0.25647 0.19795 0.0
C2453 C 0.5692 0.23677 0.21024 0.0
C2454 C 0.58982 0.23114 0.21617 0.0
C2455 C 0.60905 0.24545 0.20972 0.0
C2456 C 0.60827 0.26498 0.19792 0.0
C2457 C 0.6315 0.27994 0.19661 0.0
C2458 C 0.63736 0.27733 0.17023 0.0
C2459 C 0.63392 0.30736 0.20853 0.0
C2460 C 0.64527 0.26689 0.21111 0.0
C2461 C 0.63209 0.24629 0.21743 0.0
C2462 C 0.64058 0.23244 0.23257 0.0
C2463 C 0.6629 0.24052 0.24247 0.0
C2464 C 0.67607 0.26246 0.23752 0.0
C2465 C 0.66751 0.27534 0.22111 0.0
H2466 H 0.59386 0.89566 0.95141 0.0
H2467 H 0.65661 0.92251 0.9231 0.0
H2468 H 0.65316 0.96573 0.93745 0.0
H2469 H 0.56583 0.93919 0.933 0.0
H2470 H 0.5505 0.94224 0.9593 0.0
H2471 H 0.55898 0.91367 0.94868 0.0
H2472 H 0.57934 0.91647 0.99113 0.0
H2473 H 0.57118 0.94519 1.0021 0.0
H2474 H 0.60036 0.94375 1.00449 0.0
H2475 H 0.6425 1.00571 0.95467 0.0
H2476 H 0.6247 0.03971 0.97307 0.0
H2477 H 0.56783 0.98545 0.98608 0.0
C2478 C 0.60715 0.91062 0.94873 0.0
C2479 C 0.62567 0.906 0.93661 0.0
C2480 C 0.64246 0.92591 0.93276 0.0
C2481 C 0.64059 0.9504 0.94071 0.0
C2482 C 0.6218 0.95432 0.95217 0.0
C2483 C 0.60536 0.93497 0.9561 0.0
C2484 C 0.58626 0.94392 0.9677 0.0
C2485 C 0.5641 0.93418 0.95117 0.0
C2486 C 0.58417 0.93693 0.99285 0.0
C2487 C 0.59451 0.97139 0.96965 0.0
C2488 C 0.61513 0.97712 0.96085 0.0
C2489 C 0.62633 1.00151 0.96153 0.0
C2490 C 0.61621 0.02055 0.97184 0.0
C2491 C 0.59515 0.01466 0.98066 0.0
C2492 C 0.58403 0.99001 0.97931 0.0
H2493 H 0.95538 0.7657 0.72894 0.0
H2494 H 0.93344 0.77537 0.65685 0.0
H2495 H 0.89456 0.76865 0.66672 0.0
H2496 H 0.90515 0.71815 0.73522 0.0
H2497 H 0.90521 0.73085 0.76698 0.0
H2498 H 0.93119 0.73333 0.75328 0.0
H2499 H 0.939 0.77904 0.77025 0.0
H2500 H 0.91198 0.7805 0.78065 0.0
H2501 H 0.92277 0.79815 0.75828 0.0
H2502 H 0.85887 0.75951 0.68263 0.0
H2503 H 0.82702 0.75614 0.70724 0.0
H2504 H 0.87123 0.75637 0.77071 0.0
C2505 C 0.94235 0.76643 0.71533 0.0
C2506 C 0.9473 0.7711 0.69221 0.0
C2507 C 0.92995 0.77199 0.67477 0.0
C2508 C 0.90781 0.76786 0.68003 0.0
C2509 C 0.90341 0.76292 0.70278 0.0
C2510 C 0.92003 0.76234 0.72028 0.0
C2511 C 0.9106 0.75872 0.74396 0.0
C2512 C 0.91319 0.73377 0.75021 0.0
C2513 C 0.92165 0.78037 0.76458 0.0
C2514 C 0.88624 0.7585 0.73713 0.0
C2515 C 0.88253 0.75988 0.71295 0.0
C2516 C 0.86145 0.75871 0.70166 0.0
C2517 C 0.84358 0.75679 0.7157 0.0
C2518 C 0.84715 0.7568 0.74075 0.0
C2519 C 0.8685 0.75697 0.75162 0.0
H2520 H 0.1734 0.04779 0.87337 0.0
H2521 H 0.12037 0.99225 0.82855 0.0
H2522 H 0.09818 0.99129 0.86371 0.0
H2523 H 0.16673 0.02196 0.92958 0.0
H2524 H 0.17228 0.05161 0.94989 0.0
H2525 H 0.18431 0.04851 0.92134 0.0
H2526 H 0.16658 0.08342 0.90991 0.0
H2527 H 0.15452 0.08664 0.93843 0.0
H2528 H 0.1368 0.08091 0.91031 0.0
H2529 H 0.08042 0.99584 0.90575 0.0
H2530 H 0.07001 1.00524 0.94734 0.0
H2531 H 0.13294 0.05848 0.96828 0.0
C2532 C 0.15711 0.03535 0.87076 0.0
C2533 C 0.14919 0.01996 0.84694 0.0
C2534 C 0.12752 1.00426 0.84564 0.0
C2535 C 0.11453 1.0036 0.86595 0.0
C2536 C 0.12276 0.0187 0.88877 0.0
C2537 C 0.14368 0.03435 0.89133 0.0
C2538 C 0.1485 0.04849 0.9182 0.0
C2539 C 0.1692 0.04229 0.93048 0.0
C2540 C 0.15181 0.07654 0.91928 0.0
C2541 C 0.12715 0.03864 0.93027 0.0
C2542 C 0.11258 0.02137 0.91274 0.0
C2543 C 0.09191 1.00953 0.91922 0.0
C2544 C 0.08588 0.01526 0.94342 0.0
C2545 C 0.09987 0.03308 0.96238 0.0
C2546 C 0.12122 0.04474 0.95509 0.0
H2547 H 0.83244 0.43366 0.60555 0.0
H2548 H 0.80979 0.36354 0.5553 0.0
H2549 H 0.80887 0.34145 0.58972 0.0
H2550 H 0.87038 0.41536 0.63884 0.0
H2551 H 0.86674 0.43291 0.66782 0.0
H2552 H 0.85998 0.44339 0.64049 0.0
H2553 H 0.81967 0.44343 0.65198 0.0
H2554 H 0.82626 0.43304 0.67962 0.0
H2555 H 0.80263 0.41569 0.65864 0.0
H2556 H 0.81779 0.32718 0.62776 0.0
H2557 H 0.83593 0.32151 0.66605 0.0
H2558 H 0.85285 0.40121 0.69148 0.0
C2559 C 0.82652 0.41371 0.60186 0.0
C2560 C 0.82111 0.40021 0.57797 0.0
C2561 C 0.81383 0.37414 0.57364 0.0
C2562 C 0.81316 0.3615 0.59306 0.0
C2563 C 0.81958 0.37537 0.61646 0.0
C2564 C 0.82594 0.40094 0.62091 0.0
C2565 C 0.83534 0.41139 0.64693 0.0
C2566 C 0.85953 0.42664 0.64859 0.0
C2567 C 0.82005 0.42679 0.66008 0.0
C2568 C 0.8346 0.38764 0.65617 0.0
C2569 C 0.82494 0.36708 0.63854 0.0
C2570 C 0.82478 0.3431 0.64195 0.0
C2571 C 0.83515 0.34009 0.66376 0.0
C2572 C 0.84568 0.361 0.68174 0.0
C2573 C 0.84486 0.38496 0.67807 0.0
H2574 H 0.4996 0.06896 0.36878 0.0
H2575 H 0.4323 0.04251 0.38779 0.0
H2576 H 0.4477 0.02826 0.4221 0.0
H2577 H 0.52529 0.02093 0.38871 0.0
H2578 H 0.55099 0.04216 0.40219 0.0
H2579 H 0.53531 0.04837 0.37658 0.0
H2580 H 0.53342 0.09146 0.40122 0.0
H2581 H 0.54942 0.08546 0.42664 0.0
H2582 H 0.52257 0.09334 0.43041 0.0
H2583 H 0.4677 0.01957 0.45395 0.0
H2584 H 0.49227 0.02248 0.48908 0.0
H2585 H 0.5497 0.05324 0.45342 0.0
C2586 C 0.48831 0.06028 0.38037 0.0
C2587 C 0.46486 0.05658 0.37561 0.0
C2588 C 0.45036 0.04552 0.39112 0.0
C2589 C 0.4589 0.03696 0.41045 0.0
C2590 C 0.48194 0.04004 0.41424 0.0
C2591 C 0.49663 0.05204 0.40037 0.0
C2592 C 0.52071 0.0554 0.41096 0.0
C2593 C 0.53385 0.04084 0.39356 0.0
C2594 C 0.53221 0.08306 0.41771 0.0
C2595 C 0.5169 0.04405 0.4333 0.0
C2596 C 0.49429 0.03477 0.43397 0.0
C2597 C 0.48553 0.02592 0.45341 0.0
C2598 C 0.50005 0.02743 0.4734 0.0
C2599 C 0.52349 0.03687 0.4738 0.0
C2600 C 0.53216 0.0449 0.45324 0.0
H2601 H 0.81266 0.76427 0.09149 0.0
H2602 H 0.78438 0.68724 0.09351 0.0
H2603 H 0.78528 0.69765 0.13776 0.0
H2604 H 0.8497 0.77556 0.14824 0.0
H2605 H 0.84623 0.80679 0.158 0.0
H2606 H 0.84389 0.79369 0.12607 0.0
H2607 H 0.80441 0.80327 0.12078 0.0
H2608 H 0.80665 0.81629 0.15271 0.0
H2609 H 0.78324 0.79156 0.13926 0.0
H2610 H 0.79011 0.71544 0.18225 0.0
H2611 H 0.79786 0.7403 0.22383 0.0
H2612 H 0.8208 0.80652 0.19475 0.0
C2613 C 0.80656 0.74967 0.10126 0.0
C2614 C 0.79828 0.72487 0.08865 0.0
C2615 C 0.79074 0.70637 0.10239 0.0
C2616 C 0.79118 0.71207 0.12772 0.0
C2617 C 0.79924 0.73649 0.13956 0.0
C2618 C 0.80687 0.75507 0.12691 0.0
C2619 C 0.81488 0.77975 0.14456 0.0
C2620 C 0.84017 0.78953 0.14419 0.0
C2621 C 0.80149 0.79885 0.13898 0.0
C2622 C 0.80982 0.77215 0.16872 0.0
C2623 C 0.80116 0.74699 0.16539 0.0
C2624 C 0.79639 0.73528 0.18501 0.0
C2625 C 0.80051 0.74963 0.20864 0.0
C2626 C 0.80866 0.77561 0.21261 0.0
C2627 C 0.81359 0.78686 0.19226 0.0
H2628 H 0.16523 1.00429 0.67991 0.0
H2629 H 0.12351 0.03941 0.72791 0.0
H2630 H 0.10203 0.04719 0.69244 0.0
H2631 H 0.16765 0.04328 0.63478 0.0
H2632 H 0.16467 0.0186 0.60873 0.0
H2633 H 0.1766 0.01512 0.6377 0.0
H2634 H 0.14698 0.97472 0.63548 0.0
H2635 H 0.13499 0.97815 0.60646 0.0
H2636 H 0.11768 0.97512 0.63097 0.0
H2637 H 0.08275 0.05057 0.64858 0.0
H2638 H 0.07116 0.05027 0.6054 0.0
H2639 H 0.12582 0.01568 0.58429 0.0
C2640 C 0.15158 0.01362 0.68317 0.0
C2641 C 0.14666 0.02109 0.70796 0.0
C2642 C 0.12821 0.03311 0.71003 0.0
C2643 C 0.11566 0.03774 0.68954 0.0
C2644 C 0.12089 0.03023 0.66573 0.0
C2645 C 0.13847 0.01822 0.66249 0.0
C2646 C 0.14025 1.01154 0.63481 0.0
C2647 C 0.1637 0.02282 0.62865 0.0
C2648 C 0.13467 0.98321 0.62643 0.0
C2649 C 0.12215 0.02293 0.62315 0.0
C2650 C 0.11063 0.033 0.64129 0.0
C2651 C 0.09224 0.04304 0.63464 0.0
C2652 C 0.08573 0.04309 0.6096 0.0
C2653 C 0.09773 0.03411 0.59029 0.0
C2654 C 0.11621 0.02357 0.59789 0.0
H2655 H 0.8185 0.40936 0.43639 0.0
H2656 H 0.87836 0.3934 0.46973 0.0
H2657 H 0.88491 0.37047 0.43014 0.0
H2658 H 0.79805 0.35315 0.40444 0.0
H2659 H 0.78691 0.3614 0.37732 0.0
H2660 H 0.78998 0.38252 0.40585 0.0
H2661 H 0.8146 0.41718 0.38819 0.0
H2662 H 0.81106 0.39636 0.35924 0.0
H2663 H 0.83879 0.41114 0.37351 0.0
H2664 H 0.88187 0.34459 0.38934 0.0
H2665 H 0.86934 0.31717 0.34928 0.0
H2666 H 0.80955 0.34712 0.34468 0.0
C2667 C 0.83332 0.40164 0.43511 0.0
C2668 C 0.84784 0.40274 0.45579 0.0
C2669 C 0.86695 0.39231 0.45387 0.0
C2670 C 0.87094 0.37959 0.43151 0.0
C2671 C 0.85564 0.37767 0.41156 0.0
C2672 C 0.83731 0.38861 0.41306 0.0
C2673 C 0.82161 0.38074 0.39001 0.0
C2674 C 0.79775 0.36873 0.39471 0.0
C2675 C 0.82152 0.40266 0.37697 0.0
C2676 C 0.833 0.36209 0.37622 0.0
C2677 C 0.85306 0.36136 0.38845 0.0
C2678 C 0.86632 0.34513 0.37942 0.0
C2679 C 0.85898 0.32949 0.35697 0.0
C2680 C 0.83836 0.3299 0.3445 0.0
C2681 C 0.82514 0.34616 0.35431 0.0
H2682 H 0.46327 0.07534 0.23661 0.0
H2683 H 0.44614 0.99948 0.24755 0.0
H2684 H 0.45151 0.98433 0.20516 0.0
H2685 H 0.44231 0.06185 0.16844 0.0
H2686 H 0.46597 0.08428 0.16273 0.0
H2687 H 0.45389 0.08918 0.19115 0.0
H2688 H 0.49267 0.09351 0.21475 0.0
H2689 H 0.50474 0.0891 0.18658 0.0
H2690 H 0.50778 0.06911 0.20787 0.0
H2691 H 0.46658 0.97752 0.16726 0.0
H2692 H 0.49527 0.97994 0.13845 0.0
H2693 H 0.50333 0.05965 0.15022 0.0
C2694 C 0.46019 0.05557 0.22969 0.0
C2695 C 0.45447 0.03852 0.24497 0.0
C2696 C 0.45085 1.01278 0.23593 0.0
C2697 C 0.45334 1.004 0.21178 0.0
C2698 C 0.45949 0.02123 0.19706 0.0
C2699 C 0.46307 0.04654 0.20569 0.0
C2700 C 0.47425 0.06113 0.18798 0.0
C2701 C 0.45813 0.07491 0.17691 0.0
C2702 C 0.49615 0.07923 0.20001 0.0
C2703 C 0.47855 0.04007 0.16941 0.0
C2704 C 0.4688 0.01717 0.17434 0.0
C2705 C 0.47375 0.99517 0.16262 0.0
C2706 C 0.49013 0.99666 0.14654 0.0
C2707 C 0.5011 0.01995 0.1425 0.0
C2708 C 0.4945 0.04169 0.1529 0.0
H2709 H 0.79759 0.75343 0.94793 0.0
H2710 H 0.81335 0.68047 0.93264 0.0
H2711 H 0.81729 0.6842 0.89045 0.0
H2712 H 0.76546 0.74858 0.89116 0.0
H2713 H 0.77607 0.77995 0.88747 0.0
H2714 H 0.77531 0.7728 0.91745 0.0
H2715 H 0.8178 0.79177 0.92682 0.0
H2716 H 0.81859 0.79902 0.89685 0.0
H2717 H 0.83702 0.78066 0.90688 0.0
H2718 H 0.81623 0.69289 0.84899 0.0
H2719 H 0.81345 0.70867 0.81078 0.0
H2720 H 0.80092 0.77712 0.85095 0.0
C2721 C 0.80206 0.7384 0.93573 0.0
C2722 C 0.80489 0.7165 0.9439 0.0
C2723 C 0.81082 0.69736 0.92715 0.0
C2724 C 0.81318 0.69925 0.90295 0.0
C2725 C 0.80986 0.72057 0.89532 0.0
C2726 C 0.80475 0.74006 0.91112 0.0
C2727 C 0.80202 0.76075 0.89752 0.0
C2728 C 0.7783 0.76581 0.89846 0.0
C2729 C 0.81993 0.78445 0.90763 0.0
C2730 C 0.80583 0.74938 0.87179 0.0
C2731 C 0.81027 0.72615 0.87107 0.0
C2732 C 0.81311 0.71125 0.84933 0.0
C2733 C 0.81143 0.72028 0.82767 0.0
C2734 C 0.80732 0.74418 0.82783 0.0
C2735 C 0.80459 0.75895 0.85028 0.0
H2736 H 0.83152 0.08211 0.02561 0.0
H2737 H 0.86382 0.14879 0.07714 0.0
H2738 H 0.90087 0.1392 0.07002 0.0
H2739 H 0.86876 0.04243 0.03751 0.0
H2740 H 0.86792 0.02892 1.00582 0.0
H2741 H 0.84418 0.03995 0.01708 0.0
H2742 H 0.84568 0.06821 0.98503 0.0
H2743 H 0.86951 0.05743 0.97372 0.0
H2744 H 0.8713 0.09013 0.9837 0.0
H2745 H 0.93389 0.12416 0.05439 0.0
H2746 H 0.96104 0.1038 0.03286 0.0
H2747 H 0.90622 0.04697 0.9919 0.0
C2748 C 0.84632 0.09418 0.03607 0.0
C2749 C 0.84504 0.11574 0.05236 0.0
C2750 C 0.86471 0.13187 0.06493 0.0
C2751 C 0.8857 0.12666 0.06091 0.0
C2752 C 0.88642 0.10552 0.0441 0.0
C2753 C 0.86726 0.08958 0.0319 0.0
C2754 C 0.87251 0.06934 0.01326 0.0
C2755 C 0.86278 0.04364 0.01877 0.0
C2756 C 0.86425 0.07141 0.98741 0.0
C2757 C 0.89768 0.07592 0.01733 0.0
C2758 C 0.90541 0.09701 0.03493 0.0
C2759 C 0.9281 0.10743 0.04081 0.0
C2760 C 0.94332 0.09571 0.02851 0.0
C2761 C 0.93569 0.07372 0.0108 0.0
C2762 C 0.91257 0.06386 1.00514 0.0
H2763 H 0.40679 0.41841 0.0177 0.0
H2764 H 0.3866 0.46555 0.0782 0.0
H2765 H 0.42402 0.49353 0.08373 0.0
H2766 H 0.46463 0.42532 0.04079 0.0
H2767 H 0.47546 0.42686 0.01189 0.0
H2768 H 0.44737 0.40989 0.01306 0.0
H2769 H 0.4319 0.43604 0.98511 0.0
H2770 H 0.45996 0.45304 0.98382 0.0
H2771 H 0.43865 0.46937 0.99367 0.0
H2772 H 0.46395 0.51592 0.08355 0.0
H2773 H 0.50237 0.53318 0.07565 0.0
H2774 H 0.49673 0.4736 0.01342 0.0
C2775 C 0.41033 0.43456 0.03219 0.0
C2776 C 0.39375 0.43967 0.04768 0.0
C2777 C 0.39895 0.46123 0.06614 0.0
C2778 C 0.42022 0.4772 0.06947 0.0
C2779 C 0.43617 0.4717 0.05394 0.0
C2780 C 0.43144 0.45109 0.03545 0.0
C2781 C 0.45135 0.45025 0.02061 0.0
C2782 C 0.46022 0.42668 0.02167 0.0
C2783 C 0.44509 0.4523 0.99424 0.0
C2784 C 0.46809 0.47335 0.03392 0.0
C2785 C 0.45894 0.48533 0.05313 0.0
C2786 C 0.47111 0.50687 0.0683 0.0
C2787 C 0.49298 0.51672 0.06349 0.0
C2788 C 0.50263 0.50545 0.04337 0.0
C2789 C 0.48997 0.4831 0.02869 0.0
H2790 H 0.41948 0.65426 0.75216 0.0
H2791 H 0.39054 0.62806 0.8136 0.0
H2792 H 0.36909 0.66126 0.81791 0.0
H2793 H 0.42221 0.72136 0.77433 0.0
H2794 H 0.41445 0.72758 0.74496 0.0
H2795 H 0.42863 0.70273 0.74727 0.0
H2796 H 0.39658 0.67187 0.71898 0.0
H2797 H 0.38243 0.6967 0.71658 0.0
H2798 H 0.36814 0.6694 0.72656 0.0
H2799 H 0.35168 0.70258 0.81769 0.0
H2800 H 0.33791 0.73911 0.80911 0.0
H2801 H 0.37166 0.73578 0.74381 0.0
C2802 C 0.40871 0.65536 0.76666 0.0
C2803 C 0.40755 0.6375 0.78273 0.0
C2804 C 0.39253 0.64063 0.80093 0.0
C2805 C 0.38004 0.65991 0.80359 0.0
C2806 C 0.3816 0.67692 0.78769 0.0
C2807 C 0.39541 0.67447 0.7692 0.0
C2808 C 0.39324 0.69459 0.75384 0.0
C2809 C 0.41599 0.71262 0.75516 0.0
C2810 C 0.38459 0.68241 0.72741 0.0
C2811 C 0.37598 0.70834 0.76608 0.0
C2812 C 0.36998 0.69832 0.7861 0.0
C2813 C 0.35588 0.70951 0.8014 0.0
C2814 C 0.34751 0.73044 0.79608 0.0
C2815 C 0.35161 0.74031 0.77465 0.0
C2816 C 0.36678 0.72877 0.75987 0.0
H2817 H 0.21545 0.58802 0.55486 0.0
H2818 H 0.23368 0.6066 0.48597 0.0
H2819 H 0.19406 0.60467 0.47309 0.0
H2820 H 0.16173 0.54413 0.53075 0.0
H2821 H 0.14855 0.55451 0.55718 0.0
H2822 H 0.1781 0.55539 0.55984 0.0
H2823 H 0.18534 0.60184 0.57915 0.0
H2824 H 0.15608 0.60209 0.57524 0.0
H2825 H 0.17587 0.62312 0.56239 0.0
H2826 H 0.15368 0.60939 0.47185 0.0
H2827 H 0.11417 0.60966 0.478 0.0
H2828 H 0.12178 0.57827 0.54209 0.0
C2829 C 0.21096 0.59069 0.53672 0.0
C2830 C 0.22745 0.59728 0.52138 0.0
C2831 C 0.22114 0.60117 0.4979 0.0
C2832 C 0.19874 0.60037 0.49047 0.0
C2833 C 0.18294 0.59492 0.50649 0.0
C2834 C 0.18865 0.58916 0.52868 0.0
C2835 C 0.16862 0.58449 0.54273 0.0
C2836 C 0.16398 0.55804 0.5479 0.0
C2837 C 0.17171 0.60404 0.56627 0.0
C2838 C 0.15076 0.58814 0.52485 0.0
C2839 C 0.15943 0.59526 0.50456 0.0
C2840 C 0.14656 0.60313 0.4874 0.0
C2841 C 0.12416 0.60337 0.49116 0.0
C2842 C 0.11471 0.59482 0.51136 0.0
C2843 C 0.12821 0.58634 0.52764 0.0
H2844 H 0.75748 0.9905 0.72637 0.0
H2845 H 0.68857 0.96345 0.73886 0.0
H2846 H 0.69804 0.92496 0.74745 0.0
H2847 H 0.7728 0.9276 0.70501 0.0
H2848 H 0.79999 0.9393 0.72192 0.0
H2849 H 0.7863 0.9598 0.70808 0.0
H2850 H 0.79046 0.98931 0.74978 0.0
H2851 H 0.80367 0.96895 0.7639 0.0
H2852 H 0.77886 0.9775 0.77518 0.0
H2853 H 0.71635 0.89622 0.76547 0.0
H2854 H 0.74194 0.8798 0.79107 0.0
H2855 H 0.79905 0.92659 0.76881 0.0
C2856 C 0.74418 0.9759 0.72969 0.0
C2857 C 0.7224 0.97971 0.73195 0.0
C2858 C 0.70539 0.96063 0.73687 0.0
C2859 C 0.71061 0.93869 0.74168 0.0
C2860 C 0.7328 0.93625 0.74123 0.0
C2861 C 0.74928 0.9543 0.73506 0.0
C2862 C 0.77243 0.95021 0.74092 0.0
C2863 C 0.78353 0.94383 0.71759 0.0
C2864 C 0.78718 0.97281 0.75849 0.0
C2865 C 0.76657 0.9281 0.75298 0.0
C2866 C 0.74362 0.91977 0.75231 0.0
C2867 C 0.73431 0.90193 0.76539 0.0
C2868 C 0.74883 0.89282 0.77994 0.0
C2869 C 0.77215 0.90196 0.78138 0.0
C2870 C 0.78116 0.91913 0.7673 0.0
H2871 H 0.75425 0.90385 0.51455 0.0
H2872 H 0.78799 0.95589 0.57878 0.0
H2873 H 0.75622 0.97704 0.58006 0.0
H2874 H 0.73542 0.94733 0.48637 0.0
H2875 H 0.70894 0.92754 0.47314 0.0
H2876 H 0.73242 0.91414 0.47959 0.0
H2877 H 0.70881 0.88713 0.50575 0.0
H2878 H 0.68524 0.90057 0.49944 0.0
H2879 H 0.69571 0.90178 0.53039 0.0
H2880 H 0.72196 0.9945 0.57253 0.0
H2881 H 0.6906 1.00937 0.55434 0.0
H2882 H 0.68019 0.94733 0.49386 0.0
C2883 C 0.75471 0.91938 0.52917 0.0
C2884 C 0.7735 0.92813 0.5467 0.0
C2885 C 0.77373 0.94886 0.56521 0.0
C2886 C 0.75568 0.96088 0.56617 0.0
C2887 C 0.73753 0.95206 0.54839 0.0
C2888 C 0.73698 0.93184 0.53014 0.0
C2889 C 0.71671 0.9277 0.51177 0.0
C2890 C 0.72381 0.92929 0.48622 0.0
C2891 C 0.70067 0.90282 0.51185 0.0
C2892 C 0.7065 0.94933 0.52193 0.0
C2893 C 0.71835 0.96273 0.54346 0.0
C2894 C 0.71251 0.98405 0.55574 0.0
C2895 C 0.69464 0.99234 0.54532 0.0
C2896 C 0.68309 0.97964 0.52261 0.0
C2897 C 0.68881 0.9575 0.51118 0.0
H2898 H 0.39163 0.48339 0.74119 0.0
H2899 H 0.42222 0.50289 0.81561 0.0
H2900 H 0.40416 0.46179 0.82255 0.0
H2901 H 0.33831 0.44428 0.75238 0.0
H2902 H 0.33651 0.42073 0.72562 0.0
H2903 H 0.3509 0.45218 0.72587 0.0
H2904 H 0.38643 0.43678 0.71405 0.0
H2905 H 0.37215 0.4053 0.71381 0.0
H2906 H 0.39826 0.41838 0.7325 0.0
H2907 H 0.38193 0.41837 0.82287 0.0
H2908 H 0.35974 0.37591 0.81579 0.0
H2909 H 0.34401 0.37874 0.74032 0.0
C2910 C 0.39437 0.47915 0.75903 0.0
C2911 C 0.40862 0.49743 0.77795 0.0
C2912 C 0.41167 0.49006 0.80068 0.0
C2913 C 0.40131 0.46642 0.80489 0.0
C2914 C 0.38769 0.44904 0.78617 0.0
C2915 C 0.38428 0.45486 0.76353 0.0
C2916 C 0.36947 0.43171 0.74653 0.0
C2917 C 0.34749 0.43758 0.73702 0.0
C2918 C 0.38234 0.4225 0.72546 0.0
C2919 C 0.36487 0.41239 0.76321 0.0
C2920 C 0.37566 0.42315 0.78602 0.0
C2921 C 0.3739 0.40978 0.80486 0.0
C2922 C 0.36135 0.38503 0.80048 0.0
C2923 C 0.35046 0.37249 0.77728 0.0
C2924 C 0.3521 0.38701 0.75837 0.0
H2925 H 0.25638 0.62674 0.23879 0.0
H2926 H 0.22677 0.61939 0.30579 0.0
H2927 H 0.24452 0.66298 0.32341 0.0
H2928 H 0.30869 0.67379 0.2628 0.0
H2929 H 0.30579 0.69071 0.23874 0.0
H2930 H 0.29552 0.65758 0.23321 0.0
H2931 H 0.25599 0.66268 0.21866 0.0
H2932 H 0.26623 0.69558 0.22378 0.0
H2933 H 0.24235 0.68289 0.2382 0.0
H2934 H 0.26126 0.70744 0.33183 0.0
H2935 H 0.27155 0.75138 0.32871 0.0
H2936 H 0.28777 0.72997 0.25532 0.0
C2937 C 0.25452 0.6342 0.25749 0.0
C2938 C 0.24103 0.62003 0.2714 0.0
C2939 C 0.23758 0.63026 0.29527 0.0
C2940 C 0.2477 0.65479 0.30542 0.0
C2941 C 0.26082 0.66861 0.29118 0.0
C2942 C 0.26395 0.65884 0.26758 0.0
C2943 C 0.27462 0.67872 0.25448 0.0
C2944 C 0.29753 0.67497 0.24687 0.0
C2945 C 0.25884 0.68003 0.23251 0.0
C2946 C 0.277 0.70114 0.27439 0.0
C2947 C 0.26932 0.69487 0.29552 0.0
C2948 C 0.26767 0.7126 0.31552 0.0
C2949 C 0.27339 0.73745 0.31351 0.0
C2950 C 0.28025 0.74413 0.29155 0.0
C2951 C 0.28284 0.72579 0.27223 0.0
H2952 H 0.53269 0.7183 0.50431 0.0
H2953 H 0.53246 0.6883 0.42772 0.0
H2954 H 0.5437 0.65142 0.43793 0.0
H2955 H 0.58013 0.69369 0.5262 0.0
H2956 H 0.56793 0.68568 0.55284 0.0
H2957 H 0.56096 0.71096 0.54026 0.0
H2958 H 0.51882 0.69028 0.53685 0.0
H2959 H 0.52575 0.66509 0.54959 0.0
H2960 H 0.50921 0.65878 0.52064 0.0
H2961 H 0.55555 0.61716 0.45566 0.0
H2962 H 0.56291 0.58621 0.47971 0.0
H2963 H 0.55369 0.63481 0.54542 0.0
C2964 C 0.53503 0.70398 0.48971 0.0
C2965 C 0.53157 0.70668 0.46498 0.0
C2966 C 0.53476 0.6871 0.44669 0.0
C2967 C 0.54134 0.66592 0.45233 0.0
C2968 C 0.5446 0.66379 0.47657 0.0
C2969 C 0.54128 0.68208 0.49507 0.0
C2970 C 0.5449 0.67409 0.51953 0.0
C2971 C 0.56465 0.69219 0.53566 0.0
C2972 C 0.52339 0.67193 0.53241 0.0
C2973 C 0.55053 0.64857 0.51176 0.0
C2974 C 0.55065 0.64334 0.48685 0.0
C2975 C 0.55549 0.62114 0.47518 0.0
C2976 C 0.55984 0.60362 0.48906 0.0
C2977 C 0.55934 0.60796 0.51459 0.0
C2978 C 0.55458 0.63093 0.526 0.0
H2979 H 0.65954 0.29254 0.67141 0.0
H2980 H 0.67413 0.37092 0.66963 0.0
H2981 H 0.70897 0.37679 0.6971 0.0
H2982 H 0.68049 0.29755 0.73414 0.0
H2983 H 0.69229 0.27042 0.72836 0.0
H2984 H 0.66844 0.27261 0.70909 0.0
H2985 H 0.69016 0.2653 0.67138 0.0
H2986 H 0.71399 0.26298 0.69059 0.0
H2987 H 0.71714 0.28514 0.67072 0.0
H2988 H 0.74232 0.37402 0.7265 0.0
H2989 H 0.77177 0.36236 0.75173 0.0
H2990 H 0.73631 0.28555 0.73284 0.0
C2991 C 0.67013 0.31093 0.67681 0.0
C2992 C 0.66406 0.33134 0.66836 0.0
C2993 C 0.67842 0.35505 0.67578 0.0
C2994 C 0.69824 0.35853 0.69147 0.0
C2995 C 0.70379 0.33806 0.69953 0.0
C2996 C 0.6902 0.31464 0.69222 0.0
C2997 C 0.70022 0.2956 0.70292 0.0
C2998 C 0.68442 0.28332 0.71962 0.0
C2999 C 0.7057 0.2761 0.68269 0.0
C3000 C 0.72154 0.31184 0.71737 0.0
C3001 C 0.72321 0.33635 0.71541 0.0
C3002 C 0.7412 0.3548 0.72778 0.0
C3003 C 0.75792 0.34803 0.7421 0.0
C3004 C 0.75694 0.32295 0.74381 0.0
C3005 C 0.73824 0.30476 0.73139 0.0
H3006 H 0.02576 0.34727 1.00111 0.0
H3007 H 0.04139 0.35725 0.92872 0.0
H3008 H 0.04484 0.40204 0.94095 0.0
H3009 H 0.99404 0.39734 0.01183 0.0
H3010 H 1.00476 0.40777 0.0433 0.0
H3011 H 1.00186 0.3757 0.0292 0.0
H3012 H 0.04383 0.37844 0.04173 0.0
H3013 H 0.04666 0.41036 0.0561 0.0
H3014 H 0.06468 0.40226 0.03326 0.0
H3015 H 0.04624 0.44557 0.95968 0.0
H3016 H 0.05136 0.4865 0.98606 0.0
H3017 H 0.03781 0.45152 0.04805 0.0
C3018 C 0.02984 0.35891 0.98787 0.0
C3019 C 0.0331 0.34837 0.96374 0.0
C3020 C 0.03863 0.36449 0.94717 0.0
C3021 C 0.04054 0.39012 0.95391 0.0
C3022 C 0.03698 0.39988 0.97748 0.0
C3023 C 0.03205 0.38499 0.99443 0.0
C3024 C 0.03029 0.40102 0.01893 0.0
C3025 C 1.00631 0.39509 0.02625 0.0
C3026 C 0.0474 0.39783 0.03867 0.0
C3027 C 0.03584 0.42705 0.01311 0.0
C3028 C 0.03886 0.42568 0.98883 0.0
C3029 C 0.04387 0.44689 0.97874 0.0
C3030 C 0.04658 0.47018 0.99389 0.0
C3031 C 0.04465 0.4724 0.0191 0.0
C3032 C 0.03901 0.45043 0.02878 0.0
H3033 H 0.03966 0.8359 0.16958 0.0
H3034 H 0.03473 0.76276 0.12625 0.0
H3035 H 0.99943 0.74746 0.1431 0.0
H3036 H 0.01984 0.81984 0.22198 0.0
H3037 H 1.00284 0.84259 0.22769 0.0
H3038 H 0.02665 0.84838 0.21075 0.0
H3039 H 1.0012 0.85522 0.17516 0.0
H3040 H 0.97723 0.84942 0.19205 0.0
H3041 H 0.97693 0.83148 0.1621 0.0
H3042 H 0.9677 0.73879 0.16827 0.0
H3043 H 0.94026 0.73787 0.19876 0.0
H3044 H 0.96325 0.81706 0.22382 0.0
C3045 C 0.03092 0.81677 0.1635 0.0
C3046 C 0.03989 0.8004 0.14674 0.0
C3047 C 0.02802 0.77556 0.13898 0.0
C3048 C 1.00796 0.76673 0.14843 0.0
C3049 C 0.99958 0.78318 0.16507 0.0
C3050 C 0.01038 0.80782 0.17218 0.0
C3051 C 0.99766 0.82145 0.19042 0.0
C3052 C 0.01265 0.83377 0.21411 0.0
C3053 C 0.98767 0.84053 0.17927 0.0
C3054 C 0.97927 0.80015 0.19408 0.0
C3055 C 0.98043 0.77836 0.17883 0.0
C3056 C 0.96627 0.75582 0.17989 0.0
C3057 C 0.95076 0.75544 0.19721 0.0
C3058 C 0.94944 0.77742 0.21319 0.0
C3059 C 0.96362 0.80013 0.21134 0.0
H3060 H 0.52025 0.29298 0.10083 0.0
H3061 H 0.51544 0.34819 0.16375 0.0
H3062 H 0.52959 0.38141 0.14156 0.0
H3063 H 0.57108 0.3251 0.08473 0.0
H3064 H 0.56372 0.3161 0.05241 0.0
H3065 H 0.55163 0.29625 0.07228 0.0
H3066 H 0.51173 0.29702 0.05461 0.0
H3067 H 0.52368 0.31663 0.03447 0.0
H3068 H 0.50402 0.32638 0.05458 0.0
H3069 H 0.54783 0.40799 0.11502 0.0
H3070 H 0.56512 0.42766 0.08317 0.0
H3071 H 0.55613 0.35549 0.03601 0.0
C3072 C 0.52177 0.31206 0.10975 0.0
C3073 C 0.51677 0.31817 0.13395 0.0
C3074 C 0.51919 0.34325 0.1452 0.0
C3075 C 0.52724 0.36218 0.13279 0.0
C3076 C 0.53264 0.35556 0.10922 0.0
C3077 C 0.52977 0.33117 0.09764 0.0
C3078 C 0.53757 0.32925 0.07248 0.0
C3079 C 0.55716 0.31588 0.07037 0.0
C3080 C 0.51808 0.31658 0.05288 0.0
C3081 C 0.54529 0.35643 0.07182 0.0
C3082 C 0.54249 0.37117 0.09334 0.0
C3083 C 0.54959 0.39675 0.09783 0.0
C3084 C 0.5593 0.4077 0.07954 0.0
C3085 C 0.56129 0.39311 0.05677 0.0
C3086 C 0.5546 0.36709 0.05308 0.0
H3087 H 0.06518 0.32507 0.33423 0.0
H3088 H 0.05025 0.3469 0.40831 0.0
H3089 H 0.01385 0.35391 0.39304 0.0
H3090 H 0.04423 0.36883 0.30963 0.0
H3091 H 0.03218 0.34891 0.28117 0.0
H3092 H 0.05579 0.3426 0.2977 0.0
H3093 H 0.03363 0.29822 0.29817 0.0
H3094 H 0.01 0.30414 0.2812 0.0
H3095 H 1.00659 0.29398 0.30969 0.0
H3096 H 0.98118 0.36229 0.36991 0.0
H3097 H 0.95258 0.36875 0.34009 0.0
H3098 H 0.98903 0.34151 0.28122 0.0
C3099 C 0.05404 0.33088 0.3472 0.0
C3100 C 0.06037 0.33552 0.37236 0.0
C3101 C 0.04552 0.34313 0.38892 0.0
C3102 C 0.02489 0.3472 0.38044 0.0
C3103 C 0.01943 0.34321 0.35545 0.0
C3104 C 0.03338 0.33483 0.33907 0.0
C3105 C 0.02394 0.33288 0.31316 0.0
C3106 C 0.04 0.34929 0.29964 0.0
C3107 C 0.01819 0.30569 0.29977 0.0
C3108 C 1.00304 0.34269 0.31757 0.0
C3109 C 1.0006 0.3482 0.34207 0.0
C3110 C 0.98277 0.35788 0.35067 0.0
C3111 C 0.96676 0.36163 0.33369 0.0
C3112 C 0.96889 0.35589 0.30853 0.0
C3113 C 0.98732 0.34647 0.30041 0.0
H3114 H 0.96982 0.68319 0.61134 0.0
H3115 H 0.01848 0.68866 0.6727 0.0
H3116 H 0.03544 0.65809 0.64861 0.0
H3117 H 0.96952 0.61002 0.58871 0.0
H3118 H 0.96416 0.61336 0.55773 0.0
H3119 H 0.95155 0.6301 0.58154 0.0
H3120 H 0.96858 0.67076 0.56746 0.0
H3121 H 0.98231 0.65449 0.54458 0.0
H3122 H 0.99855 0.67971 0.56716 0.0
H3123 H 0.05634 0.64845 0.615 0.0
H3124 H 0.0704 0.63186 0.57787 0.0
H3125 H 1.00436 0.61783 0.53877 0.0
C3126 C 0.98289 0.67641 0.62017 0.0
C3127 C 0.99316 0.6885 0.64363 0.0
C3128 C 0.01039 0.67965 0.65478 0.0
C3129 C 0.02029 0.66241 0.64118 0.0
C3130 C 0.01157 0.65304 0.6172 0.0
C3131 C 0.99211 0.65778 0.60724 0.0
C3132 C 0.98723 0.64527 0.58053 0.0
C3133 C 0.96691 0.62338 0.57691 0.0
C3134 C 0.98399 0.66368 0.56398 0.0
C3135 C 1.00864 0.63615 0.57661 0.0
C3136 C 0.02248 0.64166 0.5981 0.0
C3137 C 0.04499 0.64133 0.59861 0.0
C3138 C 0.05289 0.63203 0.57722 0.0
C3139 C 0.0381 0.62133 0.556 0.0
C3140 C 0.01584 0.62471 0.55511 0.0
H3141 H 0.65943 0.82186 0.82633 0.0
H3142 H 0.69427 0.82716 0.89742 0.0
H3143 H 0.72626 0.8149 0.87822 0.0
H3144 H 0.67813 0.76991 0.79485 0.0
H3145 H 0.68253 0.78189 0.76742 0.0
H3146 H 0.66162 0.7908 0.78619 0.0
H3147 H 0.68019 0.8372 0.78958 0.0
H3148 H 0.70104 0.82866 0.77058 0.0
H3149 H 0.7095 0.84798 0.80017 0.0
H3150 H 0.75262 0.80017 0.85284 0.0
H3151 H 0.77714 0.79104 0.82141 0.0
H3152 H 0.72742 0.79765 0.7659 0.0
C3153 C 0.67386 0.82042 0.8377 0.0
C3154 C 0.67452 0.82501 0.86319 0.0
C3155 C 0.69363 0.82357 0.87779 0.0
C3156 C 0.71173 0.81646 0.86711 0.0
C3157 C 0.71038 0.81135 0.84195 0.0
C3158 C 0.69236 0.81387 0.82733 0.0
C3159 C 0.69617 0.80876 0.80075 0.0
C3160 C 0.67856 0.78651 0.78647 0.0
C3161 C 0.69677 0.83203 0.78961 0.0
C3162 C 0.71902 0.80263 0.80293 0.0
C3163 C 0.72654 0.80387 0.82691 0.0
C3164 C 0.74705 0.79916 0.83398 0.0
C3165 C 0.76075 0.79384 0.81601 0.0
C3166 C 0.7538 0.79335 0.79145 0.0
C3167 C 0.73269 0.79757 0.78463 0.0
H3168 H 0.48338 0.53758 0.69962 0.0
H3169 H 0.49479 0.61715 0.72328 0.0
H3170 H 0.51595 0.62305 0.68794 0.0
H3171 H 0.54073 0.54065 0.67835 0.0
H3172 H 0.53157 0.51465 0.65359 0.0
H3173 H 0.51715 0.5164 0.68064 0.0
H3174 H 0.47982 0.51225 0.65471 0.0
H3175 H 0.49413 0.51046 0.62763 0.0
H3176 H 0.47776 0.53366 0.63461 0.0
H3177 H 0.53788 0.6205 0.64805 0.0
H3178 H 0.5555 0.60969 0.61021 0.0
H3179 H 0.5304 0.53185 0.61034 0.0
C3180 C 0.4902 0.55633 0.69743 0.0
C3181 C 0.48674 0.57693 0.71512 0.0
C3182 C 0.49674 0.60085 0.71082 0.0
C3183 C 0.50899 0.60443 0.69041 0.0
C3184 C 0.51213 0.58398 0.67361 0.0
C3185 C 0.50312 0.56028 0.67708 0.0
C3186 C 0.50991 0.54148 0.65682 0.0
C3187 C 0.52576 0.52744 0.668 0.0
C3188 C 0.48916 0.52339 0.64259 0.0
C3189 C 0.52258 0.55799 0.64048 0.0
C3190 C 0.52428 0.58257 0.65097 0.0
C3191 C 0.53631 0.60119 0.63995 0.0
C3192 C 0.54652 0.59482 0.61813 0.0
C3193 C 0.54466 0.56982 0.60613 0.0
C3194 C 0.53228 0.55126 0.61806 0.0
H3195 H 0.77325 0.2008 0.01083 0.0
H3196 H 0.81411 0.15974 0.96675 0.0
H3197 H 0.80544 0.18006 0.93246 0.0
H3198 H 0.7305 0.19665 0.96007 0.0
H3199 H 0.72538 0.22658 0.97261 0.0
H3200 H 0.73365 0.20729 0.99249 0.0
H3201 H 0.76712 0.2431 0.01233 0.0
H3202 H 0.75902 0.26239 0.99256 0.0
H3203 H 0.78695 0.25661 0.99341 0.0
H3204 H 0.79205 0.2051 0.90393 0.0
H3205 H 0.77898 0.23604 0.88429 0.0
H3206 H 0.7493 0.26204 0.94953 0.0
C3207 C 0.78069 0.19633 0.99409 0.0
C3208 C 0.79479 0.17938 0.99136 0.0
C3209 C 0.80356 0.17315 0.96903 0.0
C3210 C 0.79849 0.18427 0.94953 0.0
C3211 C 0.7842 0.20079 0.95284 0.0
C3212 C 0.77539 0.20665 0.97455 0.0
C3213 C 0.76092 0.22527 0.97389 0.0
C3214 C 0.73615 0.21323 0.97483 0.0
C3215 C 0.76902 0.24821 0.99424 0.0
C3216 C 0.76474 0.23097 0.9492 0.0
C3217 C 0.77727 0.21581 0.93689 0.0
C3218 C 0.78251 0.21728 0.91352 0.0
C3219 C 0.77529 0.23527 0.90276 0.0
C3220 C 0.76395 0.25234 0.9159 0.0
C3221 C 0.75807 0.24955 0.93911 0.0
H3222 H 0.16788 0.5246 0.16702 0.0
H3223 H 0.16574 0.59743 0.20664 0.0
H3224 H 0.13126 0.59702 0.18113 0.0
H3225 H 0.14295 0.53231 0.10625 0.0
H3226 H 0.12819 0.50033 0.09987 0.0
H3227 H 0.15482 0.50929 0.118 0.0
H3228 H 0.13583 0.48855 0.15149 0.0
H3229 H 0.10881 0.48126 0.13418 0.0
H3230 H 0.11262 0.49943 0.1645 0.0
H3231 H 0.09531 0.58649 0.15575 0.0
H3232 H 0.06435 0.571 0.12302 0.0
H3233 H 0.08864 0.50381 0.10249 0.0
C3234 C 0.16069 0.5409 0.1693 0.0
C3235 C 0.16913 0.56123 0.18815 0.0
C3236 C 0.15927 0.582 0.19174 0.0
C3237 C 0.13969 0.58176 0.17765 0.0
C3238 C 0.1305 0.56047 0.16052 0.0
C3239 C 0.141 0.54076 0.15564 0.0
C3240 C 0.127 0.51964 0.1371 0.0
C3241 C 0.13894 0.51515 0.11394 0.0
C3242 C 0.12071 0.49583 0.14747 0.0
C3243 C 0.10681 0.53039 0.13288 0.0
C3244 C 0.1091 0.55386 0.14668 0.0
C3245 C 0.09315 0.56809 0.14489 0.0
C3246 C 0.07534 0.55892 0.12679 0.0
C3247 C 0.07427 0.53616 0.11099 0.0
C3248 C 0.08898 0.52088 0.11515 0.0
H3249 H 0.83157 0.83139 0.46781 0.0
H3250 H 0.82049 0.90376 0.45975 0.0
H3251 H 0.82078 0.89242 0.41565 0.0
H3252 H 0.86818 0.8248 0.41874 0.0
H3253 H 0.85653 0.79213 0.40867 0.0
H3254 H 0.85683 0.80626 0.44006 0.0
H3255 H 0.81381 0.78966 0.43732 0.0
H3256 H 0.81372 0.77572 0.40594 0.0
H3257 H 0.79592 0.79714 0.41429 0.0
H3258 H 0.82269 0.87446 0.37297 0.0
H3259 H 0.82043 0.84821 0.33278 0.0
H3260 H 0.82834 0.78607 0.36613 0.0
C3261 C 0.82927 0.84481 0.45671 0.0
C3262 C 0.82629 0.86863 0.46737 0.0
C3263 C 0.82304 0.88553 0.45217 0.0
C3264 C 0.82327 0.87932 0.42703 0.0
C3265 C 0.82667 0.85603 0.41713 0.0
C3266 C 0.82926 0.8388 0.4313 0.0
C3267 C 0.83148 0.81462 0.41547 0.0
C3268 C 0.85464 0.80914 0.42108 0.0
C3269 C 0.81259 0.79301 0.41843 0.0
C3270 C 0.82914 0.82089 0.39031 0.0
C3271 C 0.82702 0.84515 0.39192 0.0
C3272 C 0.82456 0.8555 0.37144 0.0
C3273 C 0.82363 0.84052 0.34861 0.0
C3274 C 0.82502 0.81537 0.34626 0.0
C3275 C 0.82784 0.80543 0.36744 0.0
H3276 H 0.50882 0.60056 0.86424 0.0
H3277 H 0.45884 0.53203 0.84361 0.0
H3278 H 0.47322 0.51715 0.87906 0.0
H3279 H 0.55462 0.57574 0.88894 0.0
H3280 H 0.56356 0.60069 0.91478 0.0
H3281 H 0.55007 0.60624 0.88748 0.0
H3282 H 0.52038 0.62294 0.91199 0.0
H3283 H 0.53392 0.61762 0.93938 0.0
H3284 H 0.50464 0.60407 0.9306 0.0
H3285 H 0.49116 0.51056 0.92094 0.0
H3286 H 0.51023 0.51364 0.9616 0.0
H3287 H 0.55213 0.58334 0.95589 0.0
C3288 C 0.50096 0.58229 0.86695 0.0
C3289 C 0.48232 0.56754 0.85 0.0
C3290 C 0.47284 0.54402 0.8555 0.0
C3291 C 0.48106 0.53527 0.87595 0.0
C3292 C 0.49908 0.55005 0.89214 0.0
C3293 C 0.50888 0.57325 0.88797 0.0
C3294 C 0.52737 0.58579 0.90914 0.0
C3295 C 0.55027 0.59251 0.8995 0.0
C3296 C 0.52123 0.60899 0.92362 0.0
C3297 C 0.5271 0.56577 0.9251 0.0
C3298 C 0.51029 0.54546 0.9151 0.0
C3299 C 0.50515 0.5259 0.9279 0.0
C3300 C 0.51705 0.52702 0.95098 0.0
C3301 C 0.53551 0.5466 0.96152 0.0
C3302 C 0.53981 0.56664 0.94803 0.0
H3303 H 0.80652 0.18156 0.122 0.0
H3304 H 0.74653 0.19684 0.08823 0.0
H3305 H 0.75062 0.23491 0.1196 0.0
H3306 H 0.79894 0.20394 0.18425 0.0
H3307 H 0.82846 0.2166 0.19216 0.0
H3308 H 0.81918 0.19016 0.168 0.0
H3309 H 0.84253 0.21432 0.1393 0.0
H3310 H 0.85102 0.24122 0.16323 0.0
H3311 H 0.83719 0.24375 0.13482 0.0
H3312 H 0.76103 0.27037 0.15561 0.0
H3313 H 0.77566 0.29857 0.195 0.0
H3314 H 0.83075 0.26167 0.20083 0.0
C3315 C 0.79393 0.19258 0.12154 0.0
C3316 C 0.77602 0.18628 0.10313 0.0
C3317 C 0.76021 0.20143 0.10255 0.0
C3318 C 0.76253 0.2231 0.12006 0.0
C3319 C 0.781 0.22936 0.13743 0.0
C3320 C 0.79634 0.21444 0.13832 0.0
C3321 C 0.81496 0.22533 0.15839 0.0
C3322 C 0.81539 0.20799 0.17679 0.0
C3323 C 0.83777 0.23152 0.14831 0.0
C3324 C 0.80749 0.24853 0.169 0.0
C3325 C 0.78791 0.25068 0.15674 0.0
C3326 C 0.77666 0.26931 0.16502 0.0
C3327 C 0.78515 0.28539 0.1871 0.0
C3328 C 0.80464 0.28257 0.20002 0.0
C3329 C 0.81639 0.26472 0.19046 0.0
H3330 H 0.15773 0.51855 0.30432 0.0
H3331 H 0.21475 0.58051 0.32326 0.0
H3332 H 0.19494 0.60061 0.35501 0.0
H3333 H 0.11765 0.54779 0.30627 0.0
H3334 H 0.09775 0.52864 0.32112 0.0
H3335 H 0.11808 0.5155 0.30475 0.0
H3336 H 0.13278 0.50126 0.34293 0.0
H3337 H 0.11184 0.51349 0.35938 0.0
H3338 H 0.14097 0.52333 0.37102 0.0
H3339 H 0.16571 0.6185 0.37598 0.0
H3340 H 0.13124 0.6291 0.39177 0.0
H3341 H 0.09403 0.55474 0.36102 0.0
C3342 C 0.16647 0.53558 0.31621 0.0
C3343 C 0.18766 0.54796 0.31159 0.0
C3344 C 0.19861 0.57056 0.32691 0.0
C3345 C 0.18743 0.58221 0.34488 0.0
C3346 C 0.16577 0.57043 0.34781 0.0
C3347 C 0.15576 0.54707 0.33469 0.0
C3348 C 0.13171 0.53939 0.33993 0.0
C3349 C 0.11537 0.53245 0.31662 0.0
C3350 C 0.12917 0.51812 0.35417 0.0
C3351 C 0.12906 0.5631 0.35569 0.0
C3352 C 0.14898 0.58064 0.36047 0.0
C3353 C 0.15014 0.60473 0.3729 0.0
C3354 C 0.13052 0.61076 0.38131 0.0
C3355 C 0.1102 0.59283 0.37687 0.0
C3356 C 0.10945 0.56878 0.36406 0.0
H3357 H 0.8081 0.82226 0.5883 0.0
H3358 H 0.8254 0.8997 0.6243 0.0
H3359 H 0.81374 0.88808 0.66214 0.0
H3360 H 0.75979 0.80367 0.62384 0.0
H3361 H 0.76611 0.77416 0.62635 0.0
H3362 H 0.77319 0.78775 0.60027 0.0
H3363 H 0.81451 0.78496 0.60875 0.0
H3364 H 0.80742 0.77114 0.63461 0.0
H3365 H 0.82933 0.79871 0.63826 0.0
H3366 H 0.79955 0.8702 0.69538 0.0
H3367 H 0.79231 0.84579 0.72696 0.0
H3368 H 0.78857 0.77808 0.67418 0.0
C3369 C 0.80929 0.83666 0.60418 0.0
C3370 C 0.8176 0.86203 0.60314 0.0
C3371 C 0.81916 0.88024 0.62442 0.0
C3372 C 0.81232 0.87386 0.64607 0.0
C3373 C 0.80411 0.84903 0.64658 0.0
C3374 C 0.80299 0.83049 0.62656 0.0
C3375 C 0.79534 0.80513 0.63354 0.0
C3376 C 0.77224 0.79189 0.6202 0.0
C3377 C 0.8127 0.78905 0.6285 0.0
C3378 C 0.79367 0.81264 0.66076 0.0
C3379 C 0.79774 0.83815 0.66722 0.0
C3380 C 0.79666 0.8502 0.69071 0.0
C3381 C 0.79251 0.83603 0.70859 0.0
C3382 C 0.79032 0.80996 0.70338 0.0
C3383 C 0.7901 0.79792 0.67884 0.0
H3384 H 0.77119 0.45963 0.54616 0.0
H3385 H 0.79628 0.49134 0.4856 0.0
H3386 H 0.77107 0.5208 0.49152 0.0
H3387 H 0.71309 0.46834 0.53911 0.0
H3388 H 0.7126 0.47685 0.57148 0.0
H3389 H 0.72936 0.45552 0.55942 0.0
H3390 H 0.76431 0.48374 0.5858 0.0
H3391 H 0.74789 0.50549 0.59758 0.0
H3392 H 0.77247 0.51575 0.58293 0.0
H3393 H 0.7457 0.54841 0.50604 0.0
H3394 H 0.72135 0.57286 0.52832 0.0
H3395 H 0.71617 0.52533 0.58165 0.0
C3396 C 0.77066 0.47214 0.53357 0.0
C3397 C 0.78506 0.47312 0.51512 0.0
C3398 C 0.78491 0.49031 0.49958 0.0
C3399 C 0.77076 0.50702 0.50283 0.0
C3400 C 0.75736 0.50631 0.52193 0.0
C3401 C 0.7572 0.48932 0.53703 0.0
C3402 C 0.74343 0.49428 0.55794 0.0
C3403 C 0.72342 0.47246 0.55691 0.0
C3404 C 0.7579 0.50017 0.5825 0.0
C3405 C 0.73605 0.51693 0.55237 0.0
C3406 C 0.74402 0.52338 0.53137 0.0
C3407 C 0.7394 0.54368 0.52255 0.0
C3408 C 0.72588 0.55754 0.53537 0.0
C3409 C 0.71766 0.55117 0.55686 0.0
C3410 C 0.72291 0.53082 0.56558 0.0
H3411 H 0.21959 0.14284 0.4714 0.0
H3412 H 0.24745 0.15335 0.54621 0.0
H3413 H 0.21396 0.1248 0.55497 0.0
H3414 H 0.1625 0.14092 0.48295 0.0
H3415 H 0.15045 0.11675 0.45724 0.0
H3416 H 0.17717 0.13684 0.45621 0.0
H3417 H 0.19482 0.09856 0.44623 0.0
H3418 H 0.16818 0.0783 0.44747 0.0
H3419 H 0.19252 0.07657 0.46626 0.0
H3420 H 0.17899 0.0942 0.55561 0.0
H3421 H 0.14081 0.06849 0.5504 0.0
H3422 H 0.13208 0.07981 0.4764 0.0
C3423 C 0.21847 0.13903 0.48956 0.0
C3424 C 0.23605 0.15017 0.50823 0.0
C3425 C 0.23417 0.14487 0.53175 0.0
C3426 C 0.21528 0.12859 0.53684 0.0
C3427 C 0.19833 0.11762 0.51814 0.0
C3428 C 0.19949 0.12273 0.49503 0.0
C3429 C 0.17826 0.10888 0.47872 0.0
C3430 C 0.16639 0.12694 0.46817 0.0
C3431 C 0.18377 0.08943 0.45846 0.0
C3432 C 0.1646 0.09636 0.49668 0.0
C3433 C 0.17706 0.10102 0.51901 0.0
C3434 C 0.16887 0.0909 0.5384 0.0
C3435 C 0.14703 0.07654 0.53536 0.0
C3436 C 0.13313 0.07304 0.51344 0.0
C3437 C 0.14226 0.08242 0.49348 0.0
H3438 H 0.20973 0.92746 0.74876 0.0
H3439 H 0.25302 0.98337 0.80411 0.0
H3440 H 0.27821 0.95469 0.8076 0.0
H3441 H 0.21617 0.8726 0.77297 0.0
H3442 H 0.21786 0.85338 0.74418 0.0
H3443 H 0.20298 0.87812 0.74547 0.0
H3444 H 0.22749 0.89645 0.71465 0.0
H3445 H 0.24253 0.8718 0.71337 0.0
H3446 H 0.25754 0.90366 0.72098 0.0
H3447 H 0.30013 0.91777 0.8061 0.0
H3448 H 0.31328 0.87898 0.80102 0.0
H3449 H 0.25847 0.84455 0.74615 0.0
C3450 C 0.22445 0.93384 0.76173 0.0
C3451 C 0.22861 0.95878 0.77629 0.0
C3452 C 0.24867 0.96519 0.79255 0.0
C3453 C 0.26341 0.94864 0.7947 0.0
C3454 C 0.25895 0.92469 0.78027 0.0
C3455 C 0.23988 0.91728 0.76392 0.0
C3456 C 0.2395 0.89049 0.75023 0.0
C3457 C 0.21783 0.87258 0.7534 0.0
C3458 C 0.24188 0.8906 0.7232 0.0
C3459 C 0.26041 0.88357 0.76222 0.0
C3460 C 0.27164 0.90393 0.77913 0.0
C3461 C 0.29135 0.90215 0.79242 0.0
C3462 C 0.29942 0.87959 0.7889 0.0
C3463 C 0.28868 0.85771 0.77201 0.0
C3464 C 0.2684 0.86047 0.75865 0.0
H3465 H 0.40519 0.95678 0.99799 0.0
H3466 H 0.39712 0.01462 0.05684 0.0
H3467 H 0.43495 0.03846 0.05311 0.0
H3468 H 0.45996 0.9562 0.01242 0.0
H3469 H 0.46796 0.95234 0.98189 0.0
H3470 H 0.43934 0.94137 0.98707 0.0
H3471 H 0.42573 0.96841 0.95821 0.0
H3472 H 0.45447 0.97773 0.95241 0.0
H3473 H 0.43884 1.00088 0.96279 0.0
H3474 H 0.47371 0.05177 0.04781 0.0
H3475 H 0.51277 0.05571 0.04099 0.0
H3476 H 0.49652 0.99135 0.98293 0.0
C3477 C 0.4115 0.97451 0.01004 0.0
C3478 C 0.39878 0.984 0.02795 0.0
C3479 C 0.40698 1.00728 0.04317 0.0
C3480 C 0.4282 0.02093 0.04097 0.0
C3481 C 0.44036 1.01113 0.02302 0.0
C3482 C 0.43235 0.9886 1.00767 0.0
C3483 C 0.44944 0.98174 0.99091 0.0
C3484 C 0.45447 0.95642 0.99325 0.0
C3485 C 0.44165 0.98226 0.96452 0.0
C3486 C 0.46913 1.00286 1.00094 0.0
C3487 C 0.46307 0.0199 0.01887 0.0
C3488 C 0.47847 0.03942 0.03298 0.0
C3489 C 0.5007 0.04172 0.02869 0.0
C3490 C 0.50745 0.02511 0.01008 0.0
C3491 C 0.49154 1.00515 0.99619 0.0
H3492 H 0.9038 0.59957 0.78442 0.0
H3493 H 0.87242 0.60033 0.85137 0.0
H3494 H 0.84265 0.61865 0.83411 0.0
H3495 H 0.89132 0.65365 0.76622 0.0
H3496 H 0.88483 0.6387 0.73475 0.0
H3497 H 0.90473 0.62909 0.75387 0.0
H3498 H 0.8817 0.5839 0.74278 0.0
H3499 H 0.86151 0.59326 0.72379 0.0
H3500 H 0.85251 0.57737 0.74785 0.0
H3501 H 0.81634 0.6358 0.8084 0.0
H3502 H 0.79403 0.6478 0.77599 0.0
H3503 H 0.842 0.63102 0.72544 0.0
C3504 C 0.89113 0.60454 0.79579 0.0
C3505 C 0.89064 0.59988 0.81948 0.0
C3506 C 0.87318 0.60484 0.83345 0.0
C3507 C 0.85629 0.61498 0.82373 0.0
C3508 C 0.85705 0.61897 0.79994 0.0
C3509 C 0.87389 0.61352 0.7861 0.0
C3510 C 0.86973 0.61639 0.76021 0.0
C3511 C 0.88878 0.63562 0.75338 0.0
C3512 C 0.86615 0.59124 0.74264 0.0
C3513 C 0.84831 0.62546 0.76176 0.0
C3514 C 0.84117 0.62681 0.78473 0.0
C3515 C 0.82169 0.63473 0.79034 0.0
C3516 C 0.80921 0.64152 0.7719 0.0
C3517 C 0.81632 0.64007 0.74829 0.0
C3518 C 0.83605 0.63189 0.74324 0.0
H3519 H 0.86388 0.68249 0.0524 0.0
H3520 H 0.8417 0.64474 0.9782 0.0
H3521 H 0.87093 0.62038 0.97956 0.0
H3522 H 0.92489 0.68201 0.05085 0.0
H3523 H 0.92735 0.67558 0.08108 0.0
H3524 H 0.90753 0.69334 0.07302 0.0
H3525 H 0.87561 0.66231 0.08662 0.0
H3526 H 0.89527 0.64442 0.09453 0.0
H3527 H 0.87093 0.62979 0.07343 0.0
H3528 H 0.89987 0.59787 0.98966 0.0
H3529 H 0.92542 0.5763 0.00891 0.0
H3530 H 0.92733 0.62627 0.07757 0.0
C3531 C 0.86578 0.66967 0.03627 0.0
C3532 C 0.85099 0.6657 0.01503 0.0
C3533 C 0.85316 0.64813 0.99449 0.0
C3534 C 0.86973 0.63432 0.99508 0.0
C3535 C 0.88377 0.63815 0.01645 0.0
C3536 C 0.88195 0.65528 0.03675 0.0
C3537 C 0.89733 0.65352 0.05826 0.0
C3538 C 0.91535 0.67754 0.06627 0.0
C3539 C 0.88398 0.64712 0.07945 0.0
C3540 C 0.90746 0.63225 0.04703 0.0
C3541 C 0.8998 0.62411 0.02274 0.0
C3542 C 0.90618 0.6042 0.0086 0.0
C3543 C 0.92066 0.59209 0.01964 0.0
C3544 C 0.9282 0.59969 0.04462 0.0
C3545 C 0.92168 0.62014 0.05843 0.0
H3546 H 0.25213 0.10126 0.80731 0.0
H3547 H 0.19899 0.09718 0.75088 0.0
H3548 H 0.21466 0.14004 0.74764 0.0
H3549 H 0.25445 0.16764 0.83456 0.0
H3550 H 0.28441 0.17595 0.8418 0.0
H3551 H 0.26943 0.14458 0.84097 0.0
H3552 H 0.29478 0.12829 0.80993 0.0
H3553 H 0.30983 0.15958 0.81065 0.0
H3554 H 0.29722 0.1401 0.78214 0.0
H3555 H 0.23246 0.18442 0.75275 0.0
H3556 H 0.25484 0.22614 0.76061 0.0
H3557 H 0.30284 0.20546 0.8089 0.0
C3558 C 0.24386 0.10935 0.79419 0.0
C3559 C 0.22383 0.095 0.77937 0.0
C3560 C 0.21393 0.107 0.76265 0.0
C3561 C 0.2228 0.13169 0.76064 0.0
C3562 C 0.24204 0.14519 0.77539 0.0
C3563 C 0.25277 0.13461 0.79175 0.0
C3564 C 0.27339 0.15429 0.80515 0.0
C3565 C 0.27025 0.161 0.83223 0.0
C3566 C 0.2951 0.145 0.80175 0.0
C3567 C 0.273 0.17685 0.7928 0.0
C3568 C 0.25406 0.17098 0.77645 0.0
C3569 C 0.24786 0.18879 0.7647 0.0
C3570 C 0.2613 0.21288 0.76906 0.0
C3571 C 0.2821 0.21988 0.78398 0.0
C3572 C 0.28777 0.20117 0.79644 0.0
H3573 H 0.40439 0.97663 0.33079 0.0
H3574 H 0.36783 0.99087 0.26801 0.0
H3575 H 0.34121 0.9505 0.26484 0.0
H3576 H 0.40259 0.91525 0.30975 0.0
H3577 H 0.39929 0.90619 0.33877 0.0
H3578 H 0.41308 0.93729 0.3375 0.0
H3579 H 0.38423 0.95502 0.36444 0.0
H3580 H 0.37219 0.92349 0.36626 0.0
H3581 H 0.35471 0.94268 0.35585 0.0
H3582 H 0.32004 0.90815 0.26794 0.0
H3583 H 0.30942 0.86462 0.27266 0.0
H3584 H 0.36277 0.87809 0.33087 0.0
C3585 C 0.39065 0.97143 0.31649 0.0
C3586 C 0.3879 0.98673 0.29977 0.0
C3587 C 0.36992 0.97931 0.28116 0.0
C3588 C 0.3547 0.95663 0.27937 0.0
C3589 C 0.35778 0.9421 0.29651 0.0
C3590 C 0.37547 0.94914 0.31452 0.0
C3591 C 0.37654 0.92946 0.32934 0.0
C3592 C 0.39921 0.92158 0.32875 0.0
C3593 C 0.37158 0.93819 0.35551 0.0
C3594 C 0.35766 0.90937 0.31574 0.0
C3595 C 0.34632 0.91738 0.29763 0.0
C3596 C 0.32857 0.90178 0.28225 0.0
C3597 C 0.32267 0.87718 0.28512 0.0
C3598 C 0.33511 0.86848 0.30258 0.0
C3599 C 0.35265 0.8847 0.31807 0.0
H3600 H 0.58687 0.40248 0.62012 0.0
H3601 H 0.60864 0.36614 0.55416 0.0
H3602 H 0.60436 0.40149 0.53462 0.0
H3603 H 0.54537 0.42963 0.58932 0.0
H3604 H 0.5509 0.45743 0.61232 0.0
H3605 H 0.55463 0.4286 0.62011 0.0
H3606 H 0.59554 0.44989 0.63755 0.0
H3607 H 0.59166 0.47843 0.62926 0.0
H3608 H 0.61425 0.46474 0.61837 0.0
H3609 H 0.59614 0.44177 0.52144 0.0
H3610 H 0.58937 0.48336 0.51822 0.0
H3611 H 0.57592 0.49509 0.59354 0.0
C3612 C 0.59078 0.40188 0.60155 0.0
C3613 C 0.59813 0.38107 0.58881 0.0
C3614 C 0.60293 0.38148 0.56448 0.0
C3615 C 0.60047 0.40161 0.55314 0.0
C3616 C 0.59305 0.42165 0.56612 0.0
C3617 C 0.58842 0.42195 0.58992 0.0
C3618 C 0.58106 0.44586 0.60008 0.0
C3619 C 0.55654 0.44003 0.6058 0.0
C3620 C 0.59657 0.4606 0.62265 0.0
C3621 C 0.58329 0.45952 0.57881 0.0
C3622 C 0.58947 0.44492 0.55905 0.0
C3623 C 0.59143 0.45324 0.53697 0.0
C3624 C 0.58741 0.47696 0.53521 0.0
C3625 C 0.58202 0.49276 0.55552 0.0
C3626 C 0.58003 0.48364 0.5776 0.0
H3627 H 0.44774 0.79875 0.419 0.0
H3628 H 0.46096 0.73659 0.36872 0.0
H3629 H 0.42592 0.7343 0.34349 0.0
H3630 H 0.38659 0.77971 0.41409 0.0
H3631 H 0.38157 0.81026 0.41395 0.0
H3632 H 0.40716 0.80672 0.42921 0.0
H3633 H 0.43023 0.83471 0.40367 0.0
H3634 H 0.4047 0.83835 0.38838 0.0
H3635 H 0.42547 0.82695 0.37102 0.0
H3636 H 0.38911 0.73755 0.32367 0.0
H3637 H 0.35517 0.74869 0.30777 0.0
H3638 H 0.36472 0.81131 0.36778 0.0
C3639 C 0.44308 0.78447 0.40282 0.0
C3640 C 0.45724 0.76744 0.39625 0.0
C3641 C 0.45062 0.74964 0.37447 0.0
C3642 C 0.43058 0.74819 0.35995 0.0
C3643 C 0.41707 0.765 0.36685 0.0
C3644 C 0.42314 0.78315 0.38754 0.0
C3645 C 0.40597 0.79984 0.38957 0.0
C3646 C 0.39465 0.79908 0.41311 0.0
C3647 C 0.41726 0.82655 0.38808 0.0
C3648 C 0.3891 0.78781 0.36719 0.0
C3649 C 0.39602 0.76767 0.35457 0.0
C3650 C 0.38367 0.75336 0.33341 0.0
C3651 C 0.36417 0.75992 0.32449 0.0
C3652 C 0.35666 0.78095 0.3362 0.0
C3653 C 0.36938 0.79491 0.35828 0.0
H3654 H 0.09419 0.72777 0.12284 0.0
H3655 H 0.09393 0.74494 0.05064 0.0
H3656 H 0.08643 0.69996 0.03298 0.0
H3657 H 0.12134 0.67538 0.11014 0.0
H3658 H 0.10499 0.65793 0.1294 0.0
H3659 H 0.11082 0.69134 0.13616 0.0
H3660 H 0.06828 0.69031 0.1355 0.0
H3661 H 0.0624 0.65694 0.12888 0.0
H3662 H 0.04977 0.67351 0.10907 0.0
H3663 H 0.07777 0.65148 0.02318 0.0
H3664 H 0.06848 0.60625 0.02271 0.0
H3665 H 0.07478 0.62083 0.10121 0.0
C3666 C 0.09272 0.72217 0.10328 0.0
C3667 C 0.09486 0.74026 0.08821 0.0
C3668 C 0.09257 0.73174 0.0627 0.0
C3669 C 0.08827 0.70609 0.05249 0.0
C3670 C 0.0863 0.68882 0.06789 0.0
C3671 C 0.08848 0.69663 0.0928 0.0
C3672 C 0.08536 0.67446 0.1055 0.0
C3673 C 0.10691 0.67481 0.12124 0.0
C3674 C 0.06526 0.67377 0.12063 0.0
C3675 C 0.08079 0.65288 0.08397 0.0
C3676 C 0.08153 0.66146 0.06237 0.0
C3677 C 0.07739 0.64479 0.0401 0.0
C3678 C 0.07226 0.61899 0.03995 0.0
C3679 C 0.07147 0.60972 0.06185 0.0
C3680 C 0.07572 0.62715 0.0841 0.0
H3681 H 0.09348 0.31151 0.90078 0.0
H3682 H 0.07875 0.23146 0.89151 0.0
H3683 H 0.11422 0.2304 0.87278 0.0
H3684 H 0.11405 0.3132 0.84318 0.0
H3685 H 0.13514 0.34125 0.85349 0.0
H3686 H 0.11017 0.33573 0.86874 0.0
H3687 H 0.13453 0.3414 0.90947 0.0
H3688 H 0.15961 0.34667 0.89427 0.0
H3689 H 0.15485 0.32255 0.91193 0.0
H3690 H 0.15166 0.23831 0.85373 0.0
H3691 H 0.18328 0.25343 0.83085 0.0
H3692 H 0.17214 0.32795 0.84962 0.0
C3693 C 0.09785 0.29378 0.89499 0.0
C3694 C 0.08329 0.27153 0.89775 0.0
C3695 C 0.0895 0.24872 0.88953 0.0
C3696 C 0.10977 0.24798 0.87904 0.0
C3697 C 0.12369 0.27021 0.8764 0.0
C3698 C 0.11777 0.29268 0.88383 0.0
C3699 C 0.13446 0.31367 0.87678 0.0
C3700 C 0.12276 0.32672 0.85952 0.0
C3701 C 0.14658 0.33216 0.89946 0.0
C3702 C 0.15047 0.29954 0.86385 0.0
C3703 C 0.14435 0.27457 0.86437 0.0
C3704 C 0.15649 0.25784 0.85322 0.0
C3705 C 0.17462 0.26662 0.84037 0.0
C3706 C 0.18032 0.29188 0.83825 0.0
C3707 C 0.16832 0.30852 0.85082 0.0
H3708 H 0.59949 0.75059 0.90971 0.0
H3709 H 0.64432 0.80337 0.96647 0.0
H3710 H 0.64401 0.77094 0.9908 0.0
H3711 H 0.56461 0.72518 0.94545 0.0
H3712 H 0.55914 0.69357 0.92915 0.0
H3713 H 0.56777 0.71851 0.91345 0.0
H3714 H 0.60104 0.69951 0.89919 0.0
H3715 H 0.59249 0.67444 0.9151 0.0
H3716 H 0.62059 0.6931 0.92127 0.0
H3717 H 0.63348 0.73681 0.01196 0.0
H3718 H 0.61048 0.70442 0.02996 0.0
H3719 H 0.57172 0.67368 0.96047 0.0
C3720 C 0.60979 0.755 0.92692 0.0
C3721 C 0.62197 0.77927 0.93626 0.0
C3722 C 0.6349 0.78475 0.95903 0.0
C3723 C 0.63506 0.7664 0.97283 0.0
C3724 C 0.6224 0.74269 0.96345 0.0
C3725 C 0.60998 0.7369 0.94099 0.0
C3726 C 0.59487 0.71138 0.93689 0.0
C3727 C 0.57016 0.71225 0.93092 0.0
C3728 C 0.60272 0.69355 0.91693 0.0
C3729 C 0.59905 0.70489 0.96151 0.0
C3730 C 0.61582 0.72265 0.97612 0.0
C3731 C 0.62083 0.72235 1.00057 0.0
C3732 C 0.60774 0.70403 0.01066 0.0
C3733 C 0.58978 0.6868 0.99632 0.0
C3734 C 0.58585 0.68656 0.97138 0.0
H3735 H 0.07577 0.73921 0.67788 0.0
H3736 H 0.07507 0.81414 0.71332 0.0
H3737 H 0.11565 0.82132 0.72641 0.0
H3738 H 0.10824 0.72602 0.72304 0.0
H3739 H 0.12291 0.70727 0.70325 0.0
H3740 H 0.09537 0.71018 0.69323 0.0
H3741 H 0.11079 0.72552 0.65535 0.0
H3742 H 0.1386 0.72318 0.66569 0.0
H3743 H 0.13372 0.75212 0.65924 0.0
H3744 H 0.15483 0.81855 0.73927 0.0
H3745 H 0.18681 0.80399 0.75651 0.0
H3746 H 0.161 0.73067 0.71333 0.0
C3747 C 0.08424 0.75731 0.68803 0.0
C3748 C 0.07248 0.7762 0.69455 0.0
C3749 C 0.08392 0.79945 0.70821 0.0
C3750 C 0.10696 0.80377 0.71539 0.0
C3751 C 0.11813 0.78467 0.70859 0.0
C3752 C 0.10702 0.76181 0.69539 0.0
C3753 C 0.12176 0.74316 0.69328 0.0
C3754 C 0.11146 0.72035 0.70385 0.0
C3755 C 0.1265 0.73556 0.66682 0.0
C3756 C 0.14253 0.75861 0.70868 0.0
C3757 C 0.14051 0.7828 0.71656 0.0
C3758 C 0.15676 0.79981 0.73294 0.0
C3759 C 0.17484 0.79145 0.74258 0.0
C3760 C 0.17604 0.76629 0.73608 0.0
C3761 C 0.16036 0.75005 0.71819 0.0
H3762 H 0.13764 0.42872 0.41922 0.0
H3763 H 0.1046 0.37962 0.46411 0.0
H3764 H 0.0835 0.41077 0.47995 0.0
H3765 H 0.1445 0.48504 0.46482 0.0
H3766 H 0.13977 0.50396 0.443 0.0
H3767 H 0.15167 0.47731 0.43421 0.0
H3768 H 0.1199 0.46056 0.39892 0.0
H3769 H 0.10761 0.48689 0.40815 0.0
H3770 H 0.09112 0.45592 0.40557 0.0
H3771 H 0.06206 0.44338 0.4858 0.0
H3772 H 0.05141 0.48376 0.49518 0.0
H3773 H 0.10344 0.51569 0.45413 0.0
C3774 C 0.1264 0.42492 0.43288 0.0
C3775 C 0.12268 0.40192 0.44054 0.0
C3776 C 0.10783 0.3973 0.45827 0.0
C3777 C 0.09544 0.41462 0.46699 0.0
C3778 C 0.09861 0.43656 0.45819 0.0
C3779 C 0.1144 0.44239 0.44245 0.0
C3780 C 0.11568 0.4684 0.43774 0.0
C3781 C 0.13931 0.48464 0.44543 0.0
C3782 C 0.10813 0.4679 0.41101 0.0
C3783 C 0.09874 0.47642 0.45409 0.0
C3784 C 0.08822 0.45711 0.46443 0.0
C3785 C 0.07075 0.45899 0.47869 0.0
C3786 C 0.065 0.48191 0.48409 0.0
C3787 C 0.0777 0.50269 0.47662 0.0
C3788 C 0.09402 0.49992 0.46048 0.0
H3789 H 0.43283 0.23623 0.19129 0.0
H3790 H 0.46991 0.29737 0.24645 0.0
H3791 H 0.43658 0.29483 0.26984 0.0
H3792 H 0.38415 0.25462 0.18829 0.0
H3793 H 0.36635 0.22406 0.18375 0.0
H3794 H 0.39411 0.22783 0.17451 0.0
H3795 H 0.40319 0.19694 0.20125 0.0
H3796 H 0.37524 0.19312 0.21051 0.0
H3797 H 0.3991 0.20249 0.23304 0.0
H3798 H 0.39792 0.28435 0.28663 0.0
H3799 H 0.35687 0.2738 0.28998 0.0
H3800 H 0.3467 0.22587 0.21961 0.0
C3801 C 0.43413 0.24895 0.20845 0.0
C3802 C 0.45372 0.26704 0.21717 0.0
C3803 C 0.45489 0.28329 0.23968 0.0
C3804 C 0.4362 0.28181 0.25309 0.0
C3805 C 0.41693 0.26372 0.24373 0.0
C3806 C 0.41591 0.2477 0.22181 0.0
C3807 C 0.39287 0.2318 0.21393 0.0
C3808 C 0.38385 0.23481 0.18865 0.0
C3809 C 0.3926 0.20448 0.21473 0.0
C3810 C 0.38052 0.2428 0.23374 0.0
C3811 C 0.39468 0.26006 0.25159 0.0
C3812 C 0.38668 0.2715 0.27228 0.0
C3813 C 0.36345 0.26608 0.27383 0.0
C3814 C 0.34882 0.25137 0.25397 0.0
C3815 C 0.35756 0.2384 0.2345 0.0
H3816 H 0.66884 0.55435 0.36954 0.0
H3817 H 0.62485 0.48651 0.33055 0.0
H3818 H 0.60326 0.48464 0.36608 0.0
H3819 H 0.66928 0.53868 0.43036 0.0
H3820 H 0.66811 0.5691 0.44638 0.0
H3821 H 0.68039 0.56568 0.41801 0.0
H3822 H 0.6533 0.58947 0.40059 0.0
H3823 H 0.64097 0.59297 0.42896 0.0
H3824 H 0.62355 0.57888 0.40103 0.0
H3825 H 0.58472 0.48999 0.40781 0.0
H3826 H 0.57291 0.50129 0.44866 0.0
H3827 H 0.62765 0.56584 0.46406 0.0
C3828 C 0.65471 0.53895 0.36831 0.0
C3829 C 0.6492 0.52038 0.34599 0.0
C3830 C 0.63012 0.50109 0.34641 0.0
C3831 C 0.61749 0.49986 0.36697 0.0
C3832 C 0.6233 0.51817 0.38828 0.0
C3833 C 0.64153 0.53752 0.38908 0.0
C3834 C 0.64377 0.55501 0.41433 0.0
C3835 C 0.66677 0.55725 0.42809 0.0
C3836 C 0.64021 0.58062 0.41104 0.0
C3837 C 0.62464 0.54221 0.42784 0.0
C3838 C 0.61285 0.52111 0.41211 0.0
C3839 C 0.59412 0.50654 0.41991 0.0
C3840 C 0.58729 0.5133 0.44363 0.0
C3841 C 0.59878 0.53465 0.46088 0.0
C3842 C 0.61808 0.5492 0.45224 0.0
H3843 H 0.31606 0.88383 0.06938 0.0
H3844 H 0.33863 0.96018 0.10706 0.0
H3845 H 0.34563 0.94591 0.14523 0.0
H3846 H 0.29228 0.8585 0.12389 0.0
H3847 H 0.30181 0.83026 0.11457 0.0
H3848 H 0.29258 0.84636 0.09208 0.0
H3849 H 0.33049 0.84777 0.07375 0.0
H3850 H 0.34011 0.83228 0.09636 0.0
H3851 H 0.3562 0.86191 0.0929 0.0
H3852 H 0.35769 0.92397 0.17623 0.0
H3853 H 0.3714 0.89515 0.19919 0.0
H3854 H 0.34222 0.83343 0.14076 0.0
C3855 C 0.32155 0.89751 0.0859 0.0
C3856 C 0.32684 0.92296 0.08547 0.0
C3857 C 0.33437 0.94051 0.1072 0.0
C3858 C 0.33832 0.93261 0.12895 0.0
C3859 C 0.33428 0.90723 0.1285 0.0
C3860 C 0.32562 0.88991 0.10765 0.0
C3861 C 0.32574 0.86387 0.11109 0.0
C3862 C 0.30167 0.84886 0.11038 0.0
C3863 C 0.33893 0.85073 0.09242 0.0
C3864 C 0.33771 0.86947 0.13629 0.0
C3865 C 0.34186 0.89447 0.14633 0.0
C3866 C 0.35418 0.9043 0.16878 0.0
C3867 C 0.3622 0.88799 0.18144 0.0
C3868 C 0.35821 0.86244 0.1712 0.0
C3869 C 0.34579 0.85306 0.14852 0.0
H3870 H 0.96185 0.52464 0.88006 0.0
H3871 H 0.98479 0.60321 0.88101 0.0
H3872 H 0.01341 0.60599 0.91505 0.0
H3873 H 0.96965 0.52647 0.9443 0.0
H3874 H 0.97953 0.49803 0.9408 0.0
H3875 H 0.96032 0.5028 0.91747 0.0
H3876 H 0.98827 0.49425 0.88597 0.0
H3877 H 1.00786 0.49016 0.90939 0.0
H3878 H 0.01646 0.51271 0.8907 0.0
H3879 H 0.03882 0.60031 0.94788 0.0
H3880 H 0.05782 0.58726 0.9818 0.0
H3881 H 0.02012 0.51184 0.95738 0.0
C3882 C 0.97276 0.54245 0.88776 0.0
C3883 C 0.97146 0.56383 0.8784 0.0
C3884 C 0.98595 0.58679 0.88824 0.0
C3885 C 1.00216 0.58846 0.90734 0.0
C3886 C 1.00368 0.56683 0.91561 0.0
C3887 C 0.98931 0.54429 0.90634 0.0
C3888 C 0.99477 0.52382 0.91828 0.0
C3889 C 0.97489 0.51212 0.93098 0.0
C3890 C 1.00229 0.50408 0.89998 0.0
C3891 C 0.01409 0.53866 0.93622 0.0
C3892 C 0.01909 0.56333 0.93411 0.0
C3893 C 0.03538 0.58104 0.94959 0.0
C3894 C 0.04614 0.5735 0.96857 0.0
C3895 C 0.04035 0.54869 0.97159 0.0
C3896 C 0.02491 0.53082 0.95486 0.0
H3897 H 0.31152 0.26413 0.59422 0.0
H3898 H 0.29133 0.1846 0.5913 0.0
H3899 H 0.29174 0.19155 0.63507 0.0
H3900 H 0.34892 0.27672 0.65081 0.0
H3901 H 0.34157 0.3055 0.66344 0.0
H3902 H 0.33972 0.29554 0.63098 0.0
H3903 H 0.29815 0.29885 0.62768 0.0
H3904 H 0.29987 0.3086 0.66018 0.0
H3905 H 0.27886 0.28206 0.64504 0.0
H3906 H 0.29404 0.20448 0.67776 0.0
H3907 H 0.30037 0.22392 0.72061 0.0
H3908 H 0.31915 0.29656 0.70155 0.0
C3909 C 0.30711 0.24829 0.60288 0.0
C3910 C 0.30111 0.2237 0.58876 0.0
C3911 C 0.29574 0.2036 0.6011 0.0
C3912 C 0.2959 0.20729 0.62624 0.0
C3913 C 0.30144 0.23132 0.63949 0.0
C3914 C 0.30713 0.25166 0.62864 0.0
C3915 C 0.31282 0.27532 0.64839 0.0
C3916 C 0.33721 0.28909 0.6484 0.0
C3917 C 0.29645 0.29222 0.64511 0.0
C3918 C 0.30947 0.26472 0.67162 0.0
C3919 C 0.30277 0.23922 0.6655 0.0
C3920 C 0.29908 0.22445 0.68285 0.0
C3921 C 0.30268 0.23576 0.70725 0.0
C3922 C 0.30966 0.26181 0.71467 0.0
C3923 C 0.31303 0.27669 0.69652 0.0
H3924 H 0.66333 0.50425 0.17941 0.0
H3925 H 0.62244 0.54188 0.22645 0.0
H3926 H 0.60109 0.54886 0.19045 0.0
H3927 H 0.6667 0.54328 0.13401 0.0
H3928 H 0.6641 0.51847 0.10815 0.0
H3929 H 0.67562 0.51521 0.13739 0.0
H3930 H 0.64599 0.4748 0.13501 0.0
H3931 H 0.63441 0.47798 0.10572 0.0
H3932 H 0.61671 0.47507 0.12991 0.0
H3933 H 0.5812 0.5499 0.14615 0.0
H3934 H 0.56959 0.5482 0.1027 0.0
H3935 H 0.62537 0.51512 0.08294 0.0
C3936 C 0.64984 0.51391 0.18234 0.0
C3937 C 0.64504 0.52225 0.20699 0.0
C3938 C 0.62699 0.5349 0.20868 0.0
C3939 C 0.61451 0.53903 0.18789 0.0
C3940 C 0.61964 0.53068 0.16421 0.0
C3941 C 0.63707 0.5184 0.16139 0.0
C3942 C 0.63925 0.51151 0.13382 0.0
C3943 C 0.66283 0.5228 0.128 0.0
C3944 C 0.63379 0.48316 0.12563 0.0
C3945 C 0.6213 0.52278 0.1217 0.0
C3946 C 0.6096 0.53304 0.13955 0.0
C3947 C 0.59101 0.54253 0.13247 0.0
C3948 C 0.58457 0.54195 0.10729 0.0
C3949 C 0.597 0.53322 0.08829 0.0
C3950 C 0.61558 0.52307 0.09631 0.0
H3951 H 0.35458 0.88207 0.95976 0.0
H3952 H 0.3297 0.94314 0.93794 0.0
H3953 H 0.32936 0.92447 0.89537 0.0
H3954 H 0.38985 0.87337 0.90521 0.0
H3955 H 0.38369 0.84021 0.90297 0.0
H3956 H 0.38636 0.86035 0.93222 0.0
H3957 H 0.34699 0.83748 0.93968 0.0
H3958 H 0.34394 0.81767 0.91031 0.0
H3959 H 0.32331 0.8357 0.9182 0.0
H3960 H 0.31625 0.89304 0.86074 0.0
H3961 H 0.30676 0.85638 0.82825 0.0
H3962 H 0.35037 0.82007 0.86542 0.0
C3963 C 0.34968 0.89167 0.94588 0.0
C3964 C 0.34173 0.91365 0.95188 0.0
C3965 C 0.33558 0.92608 0.9336 0.0
C3966 C 0.33545 0.91576 0.90939 0.0
C3967 C 0.34218 0.89348 0.90393 0.0
C3968 C 0.35019 0.88196 0.92135 0.0
C3969 C 0.35503 0.85727 0.90986 0.0
C3970 C 0.38024 0.85785 0.91273 0.0
C3971 C 0.34151 0.83578 0.92013 0.0
C3972 C 0.34668 0.85613 0.88369 0.0
C3973 C 0.33875 0.87705 0.88114 0.0
C3974 C 0.3243 0.87765 0.86139 0.0
C3975 C 0.31901 0.85692 0.84306 0.0
C3976 C 0.32977 0.8371 0.84352 0.0
C3977 C 0.34344 0.83615 0.86419 0.0
H3978 H 0.95823 0.51511 0.74698 0.0
H3979 H 0.93868 0.58416 0.74174 0.0
H3980 H 0.94955 0.58075 0.69982 0.0
H3981 H 1.00485 0.52284 0.71976 0.0
H3982 H 1.0014 0.49172 0.70279 0.0
H3983 H 0.98802 0.49708 0.73008 0.0
H3984 H 0.94952 0.47507 0.70636 0.0
H3985 H 0.96286 0.46966 0.67882 0.0
H3986 H 0.94004 0.48555 0.67981 0.0
H3987 H 0.97049 0.57512 0.66431 0.0
H3988 H 0.99817 0.5666 0.63614 0.0
H3989 H 0.99974 0.49796 0.66122 0.0
C3990 C 0.95593 0.5292 0.7367 0.0
C3991 C 0.94815 0.55009 0.74724 0.0
C3992 C 0.94487 0.56816 0.73363 0.0
C3993 C 0.95073 0.56621 0.70987 0.0
C3994 C 0.95887 0.54557 0.69999 0.0
C3995 C 0.96095 0.52705 0.71276 0.0
C3996 C 0.97193 0.50796 0.69885 0.0
C3997 C 0.99279 0.50476 0.71376 0.0
C3998 C 0.95508 0.48309 0.69046 0.0
C3999 C 0.97804 0.52017 0.67761 0.0
C4000 C 0.9698 0.54147 0.67824 0.0
C4001 C 0.97627 0.55798 0.6629 0.0
C4002 C 0.99205 0.55296 0.64695 0.0
C4003 C 1.00104 0.53152 0.64646 0.0
C4004 C 0.9932 0.51451 0.66128 0.0
H4005 H 0.28371 0.2414 0.44243 0.0
H4006 H 0.33928 0.2042 0.44407 0.0
H4007 H 0.34393 0.20715 0.40157 0.0
H4008 H 0.26014 0.21435 0.38194 0.0
H4009 H 0.25359 0.24218 0.37434 0.0
H4010 H 0.25468 0.23808 0.40543 0.0
H4011 H 0.28395 0.27949 0.41838 0.0
H4012 H 0.28266 0.28383 0.38737 0.0
H4013 H 0.3092 0.28428 0.4034 0.0
H4014 H 0.34153 0.21156 0.35782 0.0
H4015 H 0.33449 0.22167 0.31716 0.0
H4016 H 0.28207 0.25779 0.34327 0.0
C4017 C 0.29703 0.2342 0.43393 0.0
C4018 C 0.31105 0.22247 0.44683 0.0
C4019 C 0.32826 0.21328 0.43484 0.0
C4020 C 0.33104 0.21476 0.41053 0.0
C4021 C 0.3167 0.22582 0.39817 0.0
C4022 C 0.3003 0.23586 0.40952 0.0
C4023 C 0.28754 0.24721 0.39194 0.0
C4024 C 0.2625 0.2347 0.3882 0.0
C4025 C 0.29105 0.27538 0.4008 0.0
C4026 C 0.29887 0.24124 0.36893 0.0
C4027 C 0.31563 0.22884 0.37294 0.0
C4028 C 0.3284 0.22122 0.35445 0.0
C4029 C 0.32417 0.22676 0.33134 0.0
C4030 C 0.30728 0.23967 0.32689 0.0
C4031 C 0.29458 0.24711 0.346 0.0
H4032 H 0.3638 0.6036 0.56895 0.0
H4033 H 0.33573 0.61626 0.50082 0.0
H4034 H 0.36914 0.6083 0.48146 0.0
H4035 H 0.42484 0.62797 0.55965 0.0
H4036 H 0.43374 0.60444 0.57355 0.0
H4037 H 0.41009 0.61663 0.58355 0.0
H4038 H 0.38535 0.57223 0.57526 0.0
H4039 H 0.40885 0.55993 0.56546 0.0
H4040 H 0.38319 0.55305 0.54557 0.0
H4041 H 0.40054 0.59238 0.46775 0.0
H4042 H 0.42763 0.56564 0.45928 0.0
H4043 H 0.43656 0.56271 0.53569 0.0
C4044 C 0.365 0.60471 0.55002 0.0
C4045 C 0.34749 0.60993 0.536 0.0
C4046 C 0.34915 0.61171 0.51144 0.0
C4047 C 0.36815 0.60774 0.5005 0.0
C4048 C 0.38523 0.60223 0.51455 0.0
C4049 C 0.38389 0.60059 0.53873 0.0
C4050 C 0.40312 0.59084 0.54857 0.0
C4051 C 0.41889 0.61118 0.56743 0.0
C4052 C 0.39461 0.56763 0.55931 0.0
C4053 C 0.41399 0.58485 0.52543 0.0
C4054 C 0.40397 0.59269 0.50635 0.0
C4055 C 0.40894 0.58656 0.48251 0.0
C4056 C 0.424 0.57117 0.47779 0.0
C4057 C 0.43369 0.56224 0.49683 0.0
C4058 C 0.42931 0.56975 0.521 0.0
H4059 H 0.90756 0.9199 0.51869 0.0
H4060 H 0.88836 0.96539 0.58108 0.0
H4061 H 0.92577 0.99331 0.58664 0.0
H4062 H 0.96552 0.9257 0.53995 0.0
H4063 H 0.97595 0.92861 0.51108 0.0
H4064 H 0.94785 0.91162 0.51214 0.0
H4065 H 0.93231 0.93945 0.48624 0.0
H4066 H 0.96038 0.95653 0.4851 0.0
H4067 H 0.93932 0.97262 0.49627 0.0
H4068 H 0.96527 0.01621 0.58606 0.0
H4069 H 1.0037 0.0339 0.57822 0.0
H4070 H 0.99796 0.97521 0.5151 0.0
C4071 C 0.91137 0.93564 0.53362 0.0
C4072 C 0.89505 0.94029 0.54967 0.0
C4073 C 0.90053 0.96139 0.56863 0.0
C4074 C 0.92178 0.97736 0.57195 0.0
C4075 C 0.93746 0.97238 0.5559 0.0
C4076 C 0.9325 0.95221 0.5369 0.0
C4077 C 0.95221 0.95195 0.52165 0.0
C4078 C 0.9609 0.92805 0.5212 0.0
C4079 C 0.94566 0.95534 0.49579 0.0
C4080 C 0.96922 0.97458 0.53558 0.0
C4081 C 0.96021 0.9861 0.55516 0.0
C4082 C 0.97245 1.00741 0.57068 0.0
C4083 C 0.99435 0.01739 0.56601 0.0
C4084 C 1.00406 1.00626 0.5459 0.0
C4085 C 0.99122 0.98433 0.53063 0.0
H4086 H 0.89861 0.14953 0.30976 0.0
H4087 H 0.91993 0.13643 0.23747 0.0
H4088 H 0.90215 0.16937 0.22706 0.0
H4089 H 0.84424 0.16708 0.29373 0.0
H4090 H 0.84803 0.1915 0.3202 0.0
H4091 H 0.86089 0.16546 0.32077 0.0
H4092 H 0.89853 0.19739 0.33395 0.0
H4093 H 0.88501 0.22269 0.33137 0.0
H4094 H 0.90851 0.21874 0.3145 0.0
H4095 H 0.88055 0.20415 0.22265 0.0
H4096 H 0.86098 0.23832 0.22553 0.0
H4097 H 0.85352 0.23579 0.3013 0.0
C4098 C 0.89951 0.15335 0.29161 0.0
C4099 C 0.91112 0.13882 0.27443 0.0
C4100 C 0.91157 0.14602 0.2513 0.0
C4101 C 0.90125 0.16515 0.24507 0.0
C4102 C 0.89013 0.17867 0.26199 0.0
C4103 C 0.88946 0.17339 0.28506 0.0
C4104 C 0.87722 0.19221 0.2999 0.0
C4105 C 0.85632 0.17819 0.30918 0.0
C4106 C 0.89327 0.20873 0.32121 0.0
C4107 C 0.87056 0.20822 0.2815 0.0
C4108 C 0.87837 0.19966 0.25975 0.0
C4109 C 0.8746 0.21072 0.23978 0.0
C4110 C 0.86311 0.23063 0.24167 0.0
C4111 C 0.85472 0.241 0.2634 0.0
C4112 C 0.85888 0.22903 0.2839 0.0
H4113 H 0.7143 0.09299 0.05163 0.0
H4114 H 0.72828 0.10385 0.97911 0.0
H4115 H 0.68808 0.10118 0.96818 0.0
H4116 H 0.6588 0.0506 0.03313 0.0
H4117 H 0.64781 0.06378 0.05992 0.0
H4118 H 0.6769 0.06271 0.06108 0.0
H4119 H 0.68759 0.10988 0.07736 0.0
H4120 H 0.65862 0.11172 0.07625 0.0
H4121 H 0.67755 0.13054 0.06024 0.0
H4122 H 0.64797 0.10541 0.96811 0.0
H4123 H 0.60961 0.10836 0.97627 0.0
H4124 H 0.62276 0.09432 0.04836 0.0
C4125 C 0.70882 0.09377 0.03315 0.0
C4126 C 0.72426 0.09846 0.01619 0.0
C4127 C 0.71656 0.09996 0.99231 0.0
C4128 C 0.69384 0.0987 0.98599 0.0
C4129 C 0.67923 0.09574 1.00373 0.0
C4130 C 0.68637 0.09279 0.02663 0.0
C4131 C 0.66773 0.09122 0.04282 0.0
C4132 C 0.66253 0.06552 0.04961 0.0
C4133 C 0.67323 0.11207 0.06549 0.0
C4134 C 0.64913 0.09482 0.02584 0.0
C4135 C 0.65604 0.09737 1.00339 0.0
C4136 C 0.6422 0.10277 0.98545 0.0
C4137 C 0.62043 0.10464 0.99041 0.0
C4138 C 0.61265 0.10089 0.01301 0.0
C4139 C 0.62751 0.09644 0.0309 0.0
H4140 H 0.26535 0.50785 0.23665 0.0
H4141 H 0.19905 0.46119 0.21509 0.0
H4142 H 0.21286 0.42544 0.22512 0.0
H4143 H 0.30051 0.45928 0.22461 0.0
H4144 H 0.31807 0.47353 0.25246 0.0
H4145 H 0.30566 0.49238 0.23501 0.0
H4146 H 0.28834 0.51027 0.27324 0.0
H4147 H 0.29986 0.491 0.29064 0.0
H4148 H 0.27011 0.48939 0.28813 0.0
H4149 H 0.23103 0.39818 0.24572 0.0
H4150 H 0.25232 0.38093 0.27452 0.0
H4151 H 0.30458 0.44778 0.28792 0.0
C4152 C 0.25407 0.48979 0.23268 0.0
C4153 C 0.23129 0.48703 0.22497 0.0
C4154 C 0.21671 0.46342 0.2207 0.0
C4155 C 0.2244 0.44308 0.22639 0.0
C4156 C 0.24656 0.447 0.23631 0.0
C4157 C 0.26123 0.4698 0.23929 0.0
C4158 C 0.28227 0.47105 0.25532 0.0
C4159 C 0.30285 0.47423 0.24099 0.0
C4160 C 0.28529 0.49163 0.27816 0.0
C4161 C 0.27683 0.44575 0.26171 0.0
C4162 C 0.25647 0.43193 0.25008 0.0
C4163 C 0.24717 0.40864 0.25457 0.0
C4164 C 0.25917 0.39915 0.2712 0.0
C4165 C 0.27976 0.41329 0.2836 0.0
C4166 C 0.28874 0.43678 0.27872 0.0
H4167 H 0.27304 0.44546 0.0657 0.0
H4168 H 0.26069 0.39073 0.99886 0.0
H4169 H 0.22643 0.40461 0.98762 0.0
H4170 H 0.21164 0.43791 0.07482 0.0
H4171 H 0.21476 0.4702 0.08809 0.0
H4172 H 0.23759 0.45492 0.09203 0.0
H4173 H 0.26379 0.48807 0.07405 0.0
H4174 H 0.24113 0.50349 0.0703 0.0
H4175 H 0.2556 0.49386 0.04457 0.0
H4176 H 0.19602 0.42692 0.98141 0.0
H4177 H 0.17109 0.45651 0.98097 0.0
H4178 H 0.20094 0.49544 0.05263 0.0
C4179 C 0.26294 0.43633 0.04885 0.0
C4180 C 0.26947 0.41706 0.03309 0.0
C4181 C 0.25585 0.40539 0.01125 0.0
C4182 C 0.23634 0.41311 1.00473 0.0
C4183 C 0.23027 0.4321 0.02057 0.0
C4184 C 0.24292 0.44336 0.04236 0.0
C4185 C 0.23256 0.46354 0.05582 0.0
C4186 C 0.22361 0.45621 0.07907 0.0
C4187 C 0.24927 0.48873 0.06149 0.0
C4188 C 0.21338 0.46327 0.03723 0.0
C4189 C 0.21204 0.44451 0.01731 0.0
C4190 C 0.1966 0.44137 0.99709 0.0
C4191 C 0.18251 0.45818 0.99697 0.0
C4192 C 0.184 0.47785 0.01688 0.0
C4193 C 0.19929 0.48016 0.03745 0.0
H4194 H 0.89405 0.98181 0.24594 0.0
H4195 H 0.9085 1.00992 0.32338 0.0
H4196 H 0.88988 0.96923 0.33126 0.0
H4197 H 0.8378 0.94331 0.25119 0.0
H4198 H 0.83961 0.91847 0.22684 0.0
H4199 H 0.85422 0.94975 0.22665 0.0
H4200 H 0.89142 0.93509 0.22321 0.0
H4201 H 0.87692 0.9038 0.22337 0.0
H4202 H 0.90055 0.91859 0.24541 0.0
H4203 H 0.86865 0.92417 0.33157 0.0
H4204 H 0.84843 0.88038 0.32398 0.0
H4205 H 0.84647 0.87832 0.24655 0.0
C4206 C 0.89331 0.97951 0.2646 0.0
C4207 C 0.90312 1.00009 0.28403 0.0
C4208 C 0.90127 0.99535 0.30798 0.0
C4209 C 0.89061 0.97193 0.31271 0.0
C4210 C 0.88104 0.95238 0.29345 0.0
C4211 C 0.88215 0.9559 0.26977 0.0
C4212 C 0.86981 0.93163 0.25254 0.0
C4213 C 0.84915 0.93606 0.23845 0.0
C4214 C 0.88562 0.92169 0.2351 0.0
C4215 C 0.8625 0.91378 0.27005 0.0
C4216 C 0.86888 0.92645 0.29364 0.0
C4217 C 0.86358 0.91438 0.31308 0.0
C4218 C 0.85175 0.88918 0.30856 0.0
C4219 C 0.84507 0.87514 0.28469 0.0
C4220 C 0.85086 0.88805 0.26515 0.0
H4221 H 0.77458 0.12676 0.74239 0.0
H4222 H 0.73746 0.11246 0.80314 0.0
H4223 H 0.747 0.15711 0.82134 0.0
H4224 H 0.81997 0.18008 0.77586 0.0
H4225 H 0.81928 0.19626 0.75097 0.0
H4226 H 0.81339 0.16289 0.7451 0.0
H4227 H 0.77576 0.1616 0.72138 0.0
H4228 H 0.78025 0.19471 0.7277 0.0
H4229 H 0.75544 0.1766 0.7362 0.0
H4230 H 0.75128 0.20273 0.8258 0.0
H4231 H 0.75728 0.24639 0.82134 0.0
H4232 H 0.79775 0.23112 0.76263 0.0
C4233 C 0.7699 0.13295 0.76032 0.0
C4234 C 0.75594 0.11663 0.77186 0.0
C4235 C 0.74866 0.12508 0.79454 0.0
C4236 C 0.75393 0.15029 0.80491 0.0
C4237 C 0.76686 0.16636 0.79246 0.0
C4238 C 0.7754 0.15795 0.77109 0.0
C4239 C 0.78624 0.17906 0.75967 0.0
C4240 C 0.81121 0.17959 0.75781 0.0
C4241 C 0.77366 0.17784 0.73476 0.0
C4242 C 0.78265 0.20062 0.77792 0.0
C4243 C 0.77073 0.19294 0.79624 0.0
C4244 C 0.76149 0.20913 0.81219 0.0
C4245 C 0.76483 0.23384 0.80935 0.0
C4246 C 0.77789 0.24211 0.79125 0.0
C4247 C 0.78744 0.2254 0.77608 0.0
loop_
_geom_bond_atom_site_label_1
_geom_bond_atom_site_label_2
_geom_bond_distance
_geom_bond_site_symmetry_2
_ccdc_geom_bond_type
In0 O1 2.294 . S
In0 O2 2.326 . S
In0 O6 2.266 . S
In0 O7 2.326 . S
In0 O8 2.266 . S
In0 O9 2.326 . S
In0 O11 2.294 . S
In0 O12 2.326 . S
O1 In0 2.294 . S
O1 C10 1.240 . S
O2 In0 2.326 . S
O2 C10 1.252 . S
C3 O6 1.252 . S
C3 O7 1.260 . S
C4 O11 1.240 . S
C4 O12 1.252 . S
C5 O8 1.252 . S
C5 O9 1.260 . S
O6 In0 2.266 . S
O6 C3 1.252 . S
O7 In0 2.326 . S
O7 C3 1.260 . S
O8 In0 2.266 . S
O8 C5 1.252 . S
O9 In0 2.326 . S
O9 C5 1.260 . S
C10 O1 1.240 . S
C10 O2 1.252 . S
O11 In0 2.294 . S
O11 C4 1.240 . S
O12 In0 2.326 . S
O12 C4 1.252 . S
In13 O14 2.294 . S
In13 O15 2.326 . S
In13 O19 2.266 1_455 S
In13 O20 2.326 1_455 S
In13 O21 2.262 1_455 S
In13 O22 2.319 1_455 S
In13 O24 2.298 . S
In13 O25 2.333 . S
O14 In13 2.294 . S
O14 C23 1.240 . S
O15 In13 2.326 . S
O15 C23 1.252 . S
C16 O19 1.252 . S
C16 O20 1.260 . S
C17 O24 1.240 . S
C17 O25 1.252 . S
C18 O21 1.252 . S
C18 O22 1.260 . S
O19 In13 2.266 1_655 S
O19 C16 1.252 . S
O20 In13 2.326 1_655 S
O20 C16 1.260 . S
O21 In13 2.262 1_655 S
O21 C18 1.252 . S
O22 In13 2.319 1_655 S
O22 C18 1.260 . S
C23 O14 1.240 . S
C23 O15 1.252 . S
O24 In13 2.298 . S
O24 C17 1.240 . S
O25 In13 2.333 . S
O25 C17 1.252 . S
In26 O27 2.294 . S
In26 O28 2.326 . S
In26 O32 2.266 . S
In26 O33 2.326 . S
In26 O34 2.266 . S
In26 O35 2.326 . S
In26 O37 2.294 . S
In26 O38 2.326 . S
O27 In26 2.294 . S
O27 C36 1.240 . S
O28 In26 2.326 . S
O28 C36 1.252 . S
C29 O32 1.252 . S
C29 O33 1.260 . S
C30 O37 1.240 . S
C30 O38 1.252 . S
C31 O34 1.252 . S
C31 O35 1.260 . S
O32 In26 2.266 . S
O32 C29 1.252 . S
O33 In26 2.326 . S
O33 C29 1.260 . S
O34 In26 2.266 . S
O34 C31 1.252 . S
O35 In26 2.326 . S
O35 C31 1.260 . S
C36 O27 1.240 . S
C36 O28 1.252 . S
O37 In26 2.294 . S
O37 C30 1.240 . S
O38 In26 2.326 . S
O38 C30 1.252 . S
In39 O40 2.294 . S
In39 O41 2.326 . S
In39 O45 2.266 . S
In39 O46 2.326 . S
In39 O47 2.266 . S
In39 O48 2.326 . S
In39 O50 2.294 . S
In39 O51 2.326 . S
O40 In39 2.294 . S
O40 C49 1.240 . S
O41 In39 2.326 . S
O41 C49 1.252 . S
C42 O45 1.252 . S
C42 O46 1.260 . S
C43 O50 1.240 . S
C43 O51 1.252 . S
C44 O47 1.252 . S
C44 O48 1.260 . S
O45 In39 2.266 . S
O45 C42 1.252 . S
O46 In39 2.326 . S
O46 C42 1.260 . S
O47 In39 2.266 . S
O47 C44 1.252 . S
O48 In39 2.326 . S
O48 C44 1.260 . S
C49 O40 1.240 . S
C49 O41 1.252 . S
O50 In39 2.294 . S
O50 C43 1.240 . S
O51 In39 2.326 . S
O51 C43 1.252 . S
In52 O53 2.294 . S
In52 O54 2.326 . S
In52 O58 2.266 . S
In52 O59 2.326 . S
In52 O60 2.266 . S
In52 O61 2.326 . S
In52 O63 2.294 . S
In52 O64 2.326 . S
O53 In52 2.294 . S
O53 C62 1.240 . S
O54 In52 2.326 . S
O54 C62 1.252 . S
C55 O58 1.252 . S
C55 O59 1.260 . S
C56 O63 1.240 . S
C56 O64 1.252 . S
C57 O60 1.252 . S
C57 O61 1.260 . S
O58 In52 2.266 . S
O58 C55 1.252 . S
O59 In52 2.326 . S
O59 C55 1.260 . S
O60 In52 2.266 . S
O60 C57 1.252 . S
O61 In52 2.326 . S
O61 C57 1.260 . S
C62 O53 1.240 . S
C62 O54 1.252 . S
O63 In52 2.294 . S
O63 C56 1.240 . S
O64 In52 2.326 . S
O64 C56 1.252 . S
In65 O66 2.294 . S
In65 O67 2.326 . S
In65 O71 2.266 . S
In65 O72 2.326 . S
In65 O73 2.266 . S
In65 O74 2.326 . S
In65 O76 2.294 . S
In65 O77 2.326 . S
O66 In65 2.294 . S
O66 C75 1.240 . S
O67 In65 2.326 . S
O67 C75 1.252 . S
C68 O71 1.252 . S
C68 O72 1.260 . S
C69 O76 1.240 . S
C69 O77 1.252 . S
C70 O73 1.252 . S
C70 O74 1.260 . S
O71 In65 2.266 . S
O71 C68 1.252 . S
O72 In65 2.326 . S
O72 C68 1.260 . S
O73 In65 2.266 . S
O73 C70 1.252 . S
O74 In65 2.326 . S
O74 C70 1.260 . S
C75 O66 1.240 . S
C75 O67 1.252 . S
O76 In65 2.294 . S
O76 C69 1.240 . S
O77 In65 2.326 . S
O77 C69 1.252 . S
In78 O79 2.294 . S
In78 O80 2.326 . S
In78 O84 2.266 . S
In78 O85 2.326 . S
In78 O86 2.266 . S
In78 O87 2.326 . S
In78 O89 2.294 . S
In78 O90 2.326 . S
O79 In78 2.294 . S
O79 C88 1.240 . S
O80 In78 2.326 . S
O80 C88 1.252 . S
C81 O84 1.252 . S
C81 O85 1.260 . S
C82 O89 1.240 . S
C82 O90 1.252 . S
C83 O86 1.252 . S
C83 O87 1.260 . S
O84 In78 2.266 . S
O84 C81 1.252 . S
O85 In78 2.326 . S
O85 C81 1.260 . S
O86 In78 2.266 . S
O86 C83 1.252 . S
O87 In78 2.326 . S
O87 C83 1.260 . S
C88 O79 1.240 . S
C88 O80 1.252 . S
O89 In78 2.294 . S
O89 C82 1.240 . S
O90 In78 2.326 . S
O90 C82 1.252 . S
In91 O92 2.294 . S
In91 O93 2.326 . S
In91 O97 2.266 . S
In91 O98 2.326 . S
In91 O99 2.266 1_455 S
In91 O100 2.326 1_455 S
In91 O102 2.294 . S
In91 O103 2.326 . S
O92 In91 2.294 . S
O92 C101 1.240 . S
O93 In91 2.326 . S
O93 C101 1.252 . S
C94 O97 1.252 . S
C94 O98 1.260 . S
C95 O102 1.240 . S
C95 O103 1.252 . S
C96 O99 1.252 . S
C96 O100 1.260 . S
O97 In91 2.266 . S
O97 C94 1.252 . S
O98 In91 2.326 . S
O98 C94 1.260 . S
O99 In91 2.266 1_655 S
O99 C96 1.252 . S
O100 In91 2.326 1_655 S
O100 C96 1.260 . S
C101 O92 1.240 . S
C101 O93 1.252 . S
O102 In91 2.294 . S
O102 C95 1.240 . S
O103 In91 2.326 . S
O103 C95 1.252 . S
In104 O105 2.294 . S
In104 O106 2.326 . S
In104 O110 2.266 . S
In104 O111 2.326 . S
In104 O112 2.266 1_545 S
In104 O113 2.326 1_545 S
In104 O115 2.294 . S
In104 O116 2.326 . S
O105 In104 2.294 . S
O105 C114 1.240 . S
O106 In104 2.326 . S
O106 C114 1.252 . S
C107 O110 1.252 . S
C107 O111 1.260 . S
C108 O115 1.240 . S
C108 O116 1.252 . S
C109 O112 1.252 . S
C109 O113 1.260 . S
O110 In104 2.266 . S
O110 C107 1.252 . S
O111 In104 2.326 . S
O111 C107 1.260 . S
O112 In104 2.266 1_565 S
O112 C109 1.252 . S
O113 In104 2.326 1_565 S
O113 C109 1.260 . S
C114 O105 1.240 . S
C114 O106 1.252 . S
O115 In104 2.294 . S
O115 C108 1.240 . S
O116 In104 2.326 . S
O116 C108 1.252 . S
In117 O118 2.294 . S
In117 O119 2.326 . S
In117 O123 2.266 . S
In117 O124 2.326 . S
In117 O125 2.266 . S
In117 O126 2.326 . S
In117 O128 2.294 . S
In117 O129 2.326 . S
O118 In117 2.294 . S
O118 C127 1.240 . S
O119 In117 2.326 . S
O119 C127 1.252 . S
C120 O123 1.252 . S
C120 O124 1.260 . S
C121 O128 1.240 . S
C121 O129 1.252 . S
C122 O125 1.252 . S
C122 O126 1.260 . S
O123 In117 2.266 . S
O123 C120 1.252 . S
O124 In117 2.326 . S
O124 C120 1.260 . S
O125 In117 2.266 . S
O125 C122 1.252 . S
O126 In117 2.326 . S
O126 C122 1.260 . S
C127 O118 1.240 . S
C127 O119 1.252 . S
O128 In117 2.294 . S
O128 C121 1.240 . S
O129 In117 2.326 . S
O129 C121 1.252 . S
In130 O131 2.294 1_545 S
In130 O132 2.326 1_545 S
In130 O136 2.266 . S
In130 O137 2.326 . S
In130 O138 2.264 . S
In130 O139 2.322 . S
In130 O141 2.296 1_545 S
In130 O142 2.330 1_545 S
O131 In130 2.294 1_565 S
O131 C140 1.240 . S
O132 In130 2.326 1_565 S
O132 C140 1.252 . S
C133 O136 1.252 . S
C133 O137 1.260 . S
C134 O141 1.240 . S
C134 O142 1.252 . S
C135 O138 1.252 . S
C135 O139 1.260 . S
O136 In130 2.266 . S
O136 C133 1.252 . S
O137 In130 2.326 . S
O137 C133 1.260 . S
O138 In130 2.264 . S
O138 C135 1.252 . S
O139 In130 2.322 . S
O139 C135 1.260 . S
C140 O131 1.240 . S
C140 O132 1.252 . S
O141 In130 2.296 1_565 S
O141 C134 1.240 . S
O142 In130 2.330 1_565 S
O142 C134 1.252 . S
In143 O144 2.294 . S
In143 O145 2.326 . S
In143 O149 2.266 1_554 S
In143 O150 2.326 1_554 S
In143 O151 2.266 . S
In143 O152 2.326 . S
In143 O154 2.294 . S
In143 O155 2.326 . S
O144 In143 2.294 . S
O144 C153 1.240 . S
O145 In143 2.326 . S
O145 C153 1.252 . S
C146 O149 1.252 . S
C146 O150 1.260 . S
C147 O154 1.240 . S
C147 O155 1.252 . S
C148 O151 1.252 . S
C148 O152 1.260 . S
O149 In143 2.266 1_556 S
O149 C146 1.252 . S
O150 In143 2.326 1_556 S
O150 C146 1.260 . S
O151 In143 2.266 . S
O151 C148 1.252 . S
O152 In143 2.326 . S
O152 C148 1.260 . S
C153 O144 1.240 . S
C153 O145 1.252 . S
O154 In143 2.294 . S
O154 C147 1.240 . S
O155 In143 2.326 . S
O155 C147 1.252 . S
In156 O157 2.294 . S
In156 O158 2.326 . S
In156 O162 2.266 . S
In156 O163 2.326 1_554 S
In156 O164 2.266 . S
In156 O165 2.326 . S
In156 O167 2.294 . S
In156 O168 2.326 . S
O157 In156 2.294 . S
O157 C166 1.240 . S
O158 In156 2.326 . S
O158 C166 1.252 . S
C159 O162 1.252 1_556 S
C159 O163 1.260 . S
C160 O167 1.240 . S
C160 O168 1.252 . S
C161 O164 1.252 . S
C161 O165 1.260 . S
O162 In156 2.266 . S
O162 C159 1.252 1_554 S
O163 In156 2.326 1_556 S
O163 C159 1.260 . S
O164 In156 2.266 . S
O164 C161 1.252 . S
O165 In156 2.326 . S
O165 C161 1.260 . S
C166 O157 1.240 . S
C166 O158 1.252 . S
O167 In156 2.294 . S
O167 C160 1.240 . S
O168 In156 2.326 . S
O168 C160 1.252 . S
In169 O170 2.294 . S
In169 O171 2.326 . S
In169 O175 2.266 . S
In169 O176 2.326 . S
In169 O177 2.266 . S
In169 O178 2.326 1_554 S
In169 O180 2.294 . S
In169 O181 2.326 . S
O170 In169 2.294 . S
O170 C179 1.240 . S
O171 In169 2.326 . S
O171 C179 1.252 . S
C172 O175 1.252 . S
C172 O176 1.260 . S
C173 O180 1.240 . S
C173 O181 1.252 . S
C174 O177 1.252 1_556 S
C174 O178 1.260 . S
O175 In169 2.266 . S
O175 C172 1.252 . S
O176 In169 2.326 . S
O176 C172 1.260 . S
O177 In169 2.266 . S
O177 C174 1.252 1_554 S
O178 In169 2.326 1_556 S
O178 C174 1.260 . S
C179 O170 1.240 . S
C179 O171 1.252 . S
O180 In169 2.294 . S
O180 C173 1.240 . S
O181 In169 2.326 . S
O181 C173 1.252 . S
In182 O183 2.294 . S
In182 O184 2.326 . S
In182 O188 2.266 . S
In182 O189 2.326 . S
In182 O190 2.266 . S
In182 O191 2.326 . S
In182 O193 2.294 . S
In182 O194 2.326 . S
O183 In182 2.294 . S
O183 C192 1.240 . S
O184 In182 2.326 . S
O184 C192 1.252 . S
C185 O188 1.252 . S
C185 O189 1.260 . S
C186 O193 1.240 . S
C186 O194 1.252 . S
C187 O190 1.252 . S
C187 O191 1.260 . S
O188 In182 2.266 . S
O188 C185 1.252 . S
O189 In182 2.326 . S
O189 C185 1.260 . S
O190 In182 2.266 . S
O190 C187 1.252 . S
O191 In182 2.326 . S
O191 C187 1.260 . S
C192 O183 1.240 . S
C192 O184 1.252 . S
O193 In182 2.294 . S
O193 C186 1.240 . S
O194 In182 2.326 . S
O194 C186 1.252 . S
In195 O196 2.294 . S
In195 O197 2.326 . S
In195 O201 2.266 . S
In195 O202 2.326 . S
In195 O203 2.266 . S
In195 O204 2.326 . S
In195 O206 2.294 . S
In195 O207 2.326 . S
O196 In195 2.294 . S
O196 C205 1.240 . S
O197 In195 2.326 . S
O197 C205 1.252 . S
C198 O201 1.252 . S
C198 O202 1.260 . S
C199 O206 1.240 . S
C199 O207 1.252 . S
C200 O203 1.252 . S
C200 O204 1.260 . S
O201 In195 2.266 . S
O201 C198 1.252 . S
O202 In195 2.326 . S
O202 C198 1.260 . S
O203 In195 2.266 . S
O203 C200 1.252 . S
O204 In195 2.326 . S
O204 C200 1.260 . S
C205 O196 1.240 . S
C205 O197 1.252 . S
O206 In195 2.294 . S
O206 C199 1.240 . S
O207 In195 2.326 . S
O207 C199 1.252 . S
In208 O209 2.294 . S
In208 O210 2.326 . S
In208 O214 2.266 . S
In208 O215 2.326 . S
In208 O216 2.266 . S
In208 O217 2.326 . S
In208 O219 2.294 . S
In208 O220 2.326 . S
O209 In208 2.294 . S
O209 C218 1.240 . S
O210 In208 2.326 . S
O210 C218 1.252 . S
C211 O214 1.252 . S
C211 O215 1.260 . S
C212 O219 1.240 . S
C212 O220 1.252 . S
C213 O216 1.252 . S
C213 O217 1.260 . S
O214 In208 2.266 . S
O214 C211 1.252 . S
O215 In208 2.326 . S
O215 C211 1.260 . S
O216 In208 2.266 . S
O216 C213 1.252 . S
O217 In208 2.326 . S
O217 C213 1.260 . S
C218 O209 1.240 . S
C218 O210 1.252 . S
O219 In208 2.294 . S
O219 C212 1.240 . S
O220 In208 2.326 . S
O220 C212 1.252 . S
In221 O222 2.294 . S
In221 O223 2.326 . S
In221 O227 2.266 . S
In221 O228 2.326 . S
In221 O229 2.266 . S
In221 O230 2.326 . S
In221 O232 2.294 . S
In221 O233 2.326 . S
O222 In221 2.294 . S
O222 C231 1.240 . S
O223 In221 2.326 . S
O223 C231 1.252 . S
C224 O227 1.252 . S
C224 O228 1.260 . S
C225 O232 1.240 . S
C225 O233 1.252 . S
C226 O229 1.252 . S
C226 O230 1.260 . S
O227 In221 2.266 . S
O227 C224 1.252 . S
O228 In221 2.326 . S
O228 C224 1.260 . S
O229 In221 2.266 . S
O229 C226 1.252 . S
O230 In221 2.326 . S
O230 C226 1.260 . S
C231 O222 1.240 . S
C231 O223 1.252 . S
O232 In221 2.294 . S
O232 C225 1.240 . S
O233 In221 2.326 . S
O233 C225 1.252 . S
In234 O235 2.294 . S
In234 O236 2.326 . S
In234 O240 2.266 . S
In234 O241 2.326 . S
In234 O242 2.266 . S
In234 O243 2.326 . S
In234 O245 2.294 . S
In234 O246 2.326 . S
O235 In234 2.294 . S
O235 C244 1.240 . S
O236 In234 2.326 . S
O236 C244 1.252 . S
C237 O240 1.252 . S
C237 O241 1.260 . S
C238 O245 1.240 . S
C238 O246 1.252 . S
C239 O242 1.252 . S
C239 O243 1.260 . S
O240 In234 2.266 . S
O240 C237 1.252 . S
O241 In234 2.326 . S
O241 C237 1.260 . S
O242 In234 2.266 . S
O242 C239 1.252 . S
O243 In234 2.326 . S
O243 C239 1.260 . S
C244 O235 1.240 . S
C244 O236 1.252 . S
O245 In234 2.294 . S
O245 C238 1.240 . S
O246 In234 2.326 . S
O246 C238 1.252 . S
In247 O248 2.294 . S
In247 O249 2.326 . S
In247 O253 2.266 . S
In247 O254 2.326 . S
In247 O255 2.266 . S
In247 O256 2.326 . S
In247 O258 2.294 . S
In247 O259 2.326 . S
O248 In247 2.294 . S
O248 C257 1.240 . S
O249 In247 2.326 . S
O249 C257 1.252 . S
C250 O253 1.252 . S
C250 O254 1.260 . S
C251 O258 1.240 . S
C251 O259 1.252 . S
C252 O255 1.252 . S
C252 O256 1.260 . S
O253 In247 2.266 . S
O253 C250 1.252 . S
O254 In247 2.326 . S
O254 C250 1.260 . S
O255 In247 2.266 . S
O255 C252 1.252 . S
O256 In247 2.326 . S
O256 C252 1.260 . S
C257 O248 1.240 . S
C257 O249 1.252 . S
O258 In247 2.294 . S
O258 C251 1.240 . S
O259 In247 2.326 . S
O259 C251 1.252 . S
In260 O261 2.297 . S
In260 O262 2.327 . S
In260 O266 2.265 1_554 S
In260 O267 2.325 1_554 S
In260 O268 2.253 1_554 S
In260 O269 2.307 1_554 S
In260 O271 2.305 . S
In260 O272 2.345 . S
O261 In260 2.297 . S
O261 C270 1.240 . S
O262 In260 2.327 . S
O262 C270 1.252 . S
C263 O266 1.252 . S
C263 O267 1.260 . S
C264 O271 1.240 . S
C264 O272 1.252 . S
C265 O268 1.252 . S
C265 O269 1.260 . S
O266 In260 2.265 1_556 S
O266 C263 1.252 . S
O267 In260 2.325 1_556 S
O267 C263 1.260 . S
O268 In260 2.253 1_556 S
O268 C265 1.252 . S
O269 In260 2.307 1_556 S
O269 C265 1.260 . S
C270 O261 1.240 . S
C270 O262 1.252 . S
O271 In260 2.305 . S
O271 C264 1.240 . S
O272 In260 2.345 . S
O272 C264 1.252 . S
In273 O274 2.294 . S
In273 O275 2.326 . S
In273 O279 2.266 . S
In273 O280 2.326 . S
In273 O281 2.266 . S
In273 O282 2.326 . S
In273 O284 2.294 . S
In273 O285 2.326 . S
O274 In273 2.294 . S
O274 C283 1.240 . S
O275 In273 2.326 . S
O275 C283 1.252 . S
C276 O279 1.252 . S
C276 O280 1.260 . S
C277 O284 1.240 . S
C277 O285 1.252 . S
C278 O281 1.252 . S
C278 O282 1.260 . S
O279 In273 2.266 . S
O279 C276 1.252 . S
O280 In273 2.326 . S
O280 C276 1.260 . S
O281 In273 2.266 . S
O281 C278 1.252 . S
O282 In273 2.326 . S
O282 C278 1.260 . S
C283 O274 1.240 . S
C283 O275 1.252 . S
O284 In273 2.294 . S
O284 C277 1.240 . S
O285 In273 2.326 . S
O285 C277 1.252 . S
In286 O287 2.294 . S
In286 O288 2.326 . S
In286 O292 2.266 . S
In286 O293 2.326 . S
In286 O294 2.266 . S
In286 O295 2.326 . S
In286 O297 2.294 . S
In286 O298 2.326 . S
O287 In286 2.294 . S
O287 C296 1.240 . S
O288 In286 2.326 . S
O288 C296 1.252 . S
C289 O292 1.252 . S
C289 O293 1.260 . S
C290 O297 1.240 . S
C290 O298 1.252 . S
C291 O294 1.252 . S
C291 O295 1.260 . S
O292 In286 2.266 . S
O292 C289 1.252 . S
O293 In286 2.326 . S
O293 C289 1.260 . S
O294 In286 2.266 . S
O294 C291 1.252 . S
O295 In286 2.326 . S
O295 C291 1.260 . S
C296 O287 1.240 . S
C296 O288 1.252 . S
O297 In286 2.294 . S
O297 C290 1.240 . S
O298 In286 2.326 . S
O298 C290 1.252 . S
In299 O300 2.294 . S
In299 O301 2.326 . S
In299 O305 2.266 . S
In299 O306 2.326 . S
In299 O307 2.266 . S
In299 O308 2.326 . S
In299 O310 2.294 . S
In299 O311 2.326 . S
O300 In299 2.294 . S
O300 C309 1.240 . S
O301 In299 2.326 . S
O301 C309 1.252 . S
C302 O305 1.252 . S
C302 O306 1.260 . S
C303 O310 1.240 . S
C303 O311 1.252 . S
C304 O307 1.252 . S
C304 O308 1.260 . S
O305 In299 2.266 . S
O305 C302 1.252 . S
O306 In299 2.326 . S
O306 C302 1.260 . S
O307 In299 2.266 . S
O307 C304 1.252 . S
O308 In299 2.326 . S
O308 C304 1.260 . S
C309 O300 1.240 . S
C309 O301 1.252 . S
O310 In299 2.294 . S
O310 C303 1.240 . S
O311 In299 2.326 . S
O311 C303 1.252 . S
Gd312 N343 2.661 . S
Gd312 N349 2.601 . S
Gd312 O356 2.545 . S
Gd312 O357 2.606 . S
Gd312 O359 2.429 . S
Gd312 O360 2.545 . S
Gd312 O361 2.412 . S
Gd312 O363 2.362 . S
Gd312 O364 2.324 . S
Gd312 C371 2.828 . S
Gd313 N322 2.661 1_545 S
Gd313 N326 2.601 1_544 S
Gd313 O357 2.362 . S
Gd313 O358 2.324 . S
Gd313 O362 2.545 1_554 S
Gd313 O363 2.606 . S
Gd313 O365 2.429 1_554 S
Gd313 O366 2.545 . S
Gd313 O367 2.412 1_455 S
Gd313 C380 2.828 1_455 S
C314 C317 1.409 1_655 S
C314 C319 1.440 . S
C314 C320 1.414 1_655 S
C315 C318 1.437 . S
C315 C319 1.317 1_556 S
C315 H334 0.929 . S
C316 C317 1.426 1_556 S
C316 C318 1.413 1_455 S
C316 N326 1.359 . S
C317 C314 1.409 1_455 S
C317 C316 1.426 1_554 S
C317 N322 1.350 . S
C318 C315 1.437 . S
C318 C316 1.413 1_655 S
C318 C328 1.391 . S
C319 C314 1.440 . S
C319 C315 1.317 1_554 S
C319 H330 0.930 . S
C320 C314 1.414 1_455 S
C320 C321 1.359 . S
C320 H332 0.926 1_455 S
C321 C320 1.359 . S
C321 C323 1.402 . S
C321 H333 0.930 . S
N322 Gd313 2.661 1_565 S
N322 C317 1.350 . S
N322 C323 1.307 . S
C323 C321 1.402 . S
C323 N322 1.307 . S
C323 H324 0.930 1_565 S
H324 C323 0.930 1_545 S
C325 N326 1.334 . S
C325 C327 1.394 . S
C325 H329 0.930 1_565 S
N326 Gd313 2.601 1_566 S
N326 C316 1.359 . S
N326 C325 1.334 . S
C327 C325 1.394 . S
C327 C328 1.359 1_455 S
C327 H339 0.930 . S
C328 C318 1.391 . S
C328 C327 1.359 1_655 S
C328 H340 0.929 . S
H329 C325 0.930 1_545 S
H330 C319 0.930 . S
H331 C348 0.930 1_556 S
H332 C320 0.926 1_655 S
H333 C321 0.930 . S
H334 C315 0.929 . S
H335 C353 0.930 . S
H336 C344 0.930 . S
H337 C345 0.930 . S
H338 C369 0.929 . S
H339 C327 0.930 . S
H340 C328 0.929 . S
H341 C370 0.930 . S
H342 C351 0.930 . S
N343 Gd312 2.661 . S
N343 C347 1.350 . S
N343 C348 1.307 . S
C344 H336 0.930 . S
C344 C345 1.355 1_554 S
C344 C346 1.412 . S
C345 H337 0.930 . S
C345 C344 1.355 1_556 S
C345 C348 1.402 1_556 S
C346 C344 1.412 . S
C346 C347 1.417 . S
C346 C370 1.431 . S
C347 N343 1.350 . S
C347 C346 1.417 . S
C347 C350 1.426 . S
C348 H331 0.930 1_554 S
C348 N343 1.307 . S
C348 C345 1.402 1_554 S
N349 Gd312 2.601 . S
N349 C350 1.359 . S
N349 C353 1.334 . S
C350 C347 1.426 . S
C350 N349 1.359 . S
C350 C354 1.413 . S
C351 H342 0.930 . S
C351 C352 1.359 . S
C351 C353 1.394 . S
C352 C351 1.359 . S
C352 C354 1.391 . S
C352 H355 0.929 . S
C353 H335 0.930 . S
C353 N349 1.334 . S
C353 C351 1.394 . S
C354 C350 1.413 . S
C354 C352 1.391 . S
C354 C369 1.437 . S
H355 C352 0.929 . S
O356 Gd312 2.545 . S
O356 C371 1.258 . S
O357 Gd312 2.606 . S
O357 Gd313 2.362 . S
O357 C368 1.284 . S
O358 Gd313 2.324 . S
O358 C378 1.254 . S
O359 Gd312 2.429 . S
O359 C378 1.268 . S
O360 Gd312 2.545 . S
O360 C368 1.250 . S
O361 Gd312 2.412 . S
O361 C371 1.252 . S
O362 Gd313 2.545 1_556 S
O362 C380 1.258 1_456 S
O363 Gd312 2.362 . S
O363 Gd313 2.606 . S
O363 C379 1.284 . S
O364 Gd312 2.324 . S
O364 C387 1.254 1_554 S
O365 Gd313 2.429 1_556 S
O365 C387 1.268 . S
O366 Gd313 2.545 . S
O366 C379 1.250 . S
O367 Gd313 2.412 1_655 S
O367 C380 1.252 . S
C368 O357 1.284 . S
C368 O360 1.250 . S
C369 H338 0.929 . S
C369 C354 1.437 . S
C369 C370 1.317 . S
C370 H341 0.930 . S
C370 C346 1.431 . S
C370 C369 1.317 . S
C371 Gd312 2.828 . S
C371 O356 1.258 . S
C371 O361 1.252 . S
C371 C372 1.497 . S
C372 C371 1.497 . S
C372 C373 1.395 . S
C372 C374 1.380 . S
C373 C372 1.395 . S
C373 C376 1.398 . S
C373 H388 0.930 . S
C374 C372 1.380 . S
C374 C375 1.391 . S
C374 H389 0.930 . S
C375 C374 1.391 . S
C375 C377 1.387 . S
C376 C373 1.398 . S
C376 C377 1.380 . S
C376 H390 0.930 . S
C377 C375 1.387 . S
C377 C376 1.380 . S
C377 H391 0.930 . S
C378 O358 1.254 . S
C378 O359 1.268 . S
C379 O363 1.284 . S
C379 O366 1.250 . S
C380 Gd313 2.828 1_655 S
C380 O362 1.258 1_654 S
C380 O367 1.252 . S
C380 C381 1.495 1_554 S
C381 C380 1.495 1_556 S
C381 C382 1.405 . S
C381 C383 1.373 1_556 S
C382 C381 1.405 . S
C382 C385 1.398 . S
C382 H392 0.930 . S
C383 C381 1.373 1_554 S
C383 C384 1.391 . S
C383 H393 0.930 . S
C384 C383 1.391 . S
C384 C386 1.387 1_554 S
C385 C382 1.398 . S
C385 C386 1.380 . S
C385 H394 0.930 . S
C386 C384 1.387 1_556 S
C386 C385 1.380 . S
C386 H395 0.930 . S
C387 O364 1.254 1_556 S
C387 O365 1.268 . S
H388 C373 0.930 . S
H389 C374 0.930 . S
H390 C376 0.930 . S
H391 C377 0.930 . S
H392 C382 0.930 . S
H393 C383 0.930 . S
H394 C385 0.930 . S
H395 C386 0.930 . S
Gd396 N427 2.661 . S
Gd396 N433 2.601 . S
Gd396 O440 2.545 . S
Gd396 O441 2.606 . S
Gd396 O443 2.429 . S
Gd396 O444 2.545 . S
Gd396 O445 2.412 . S
Gd396 O447 2.362 . S
Gd396 O448 2.324 . S
Gd396 C455 2.828 . S
Gd397 N406 2.661 . S
Gd397 N410 2.601 . S
Gd397 O441 2.362 . S
Gd397 O442 2.324 . S
Gd397 O446 2.545 . S
Gd397 O447 2.606 . S
Gd397 O449 2.429 . S
Gd397 O450 2.545 . S
Gd397 O451 2.412 . S
Gd397 C464 2.828 . S
C398 C401 1.417 . S
C398 C403 1.431 . S
C398 C404 1.412 . S
C399 C402 1.437 . S
C399 C403 1.317 . S
C399 H418 0.929 . S
C400 C401 1.426 . S
C400 C402 1.413 . S
C400 N410 1.359 . S
C401 C398 1.417 . S
C401 C400 1.426 . S
C401 N406 1.350 . S
C402 C399 1.437 . S
C402 C400 1.413 . S
C402 C412 1.391 . S
C403 C398 1.431 . S
C403 C399 1.317 . S
C403 H414 0.930 . S
C404 C398 1.412 . S
C404 C405 1.355 . S
C404 H416 0.930 . S
C405 C404 1.355 . S
C405 C407 1.402 . S
C405 H417 0.930 . S
N406 Gd397 2.661 . S
N406 C401 1.350 . S
N406 C407 1.307 . S
C407 C405 1.402 . S
C407 N406 1.307 . S
C407 H408 0.930 . S
H408 C407 0.930 . S
C409 N410 1.334 . S
C409 C411 1.394 . S
C409 H413 0.930 . S
N410 Gd397 2.601 . S
N410 C400 1.359 . S
N410 C409 1.334 . S
C411 C409 1.394 . S
C411 C412 1.359 . S
C411 H423 0.930 . S
C412 C402 1.391 . S
C412 C411 1.359 . S
C412 H424 0.929 . S
H413 C409 0.930 . S
H414 C403 0.930 . S
H415 C432 0.930 . S
H416 C404 0.930 . S
H417 C405 0.930 . S
H418 C399 0.929 . S
H419 C437 0.930 . S
H420 C428 0.930 . S
H421 C429 0.930 . S
H422 C453 0.929 . S
H423 C411 0.930 . S
H424 C412 0.929 . S
H425 C454 0.930 . S
H426 C435 0.930 . S
N427 Gd396 2.661 . S
N427 C431 1.350 . S
N427 C432 1.307 . S
C428 H420 0.930 . S
C428 C429 1.355 . S
C428 C430 1.412 . S
C429 H421 0.930 . S
C429 C428 1.355 . S
C429 C432 1.402 . S
C430 C428 1.412 . S
C430 C431 1.417 . S
C430 C454 1.431 . S
C431 N427 1.350 . S
C431 C430 1.417 . S
C431 C434 1.426 . S
C432 H415 0.930 . S
C432 N427 1.307 . S
C432 C429 1.402 . S
N433 Gd396 2.601 . S
N433 C434 1.359 . S
N433 C437 1.334 . S
C434 C431 1.426 . S
C434 N433 1.359 . S
C434 C438 1.413 . S
C435 H426 0.930 . S
C435 C436 1.359 . S
C435 C437 1.394 . S
C436 C435 1.359 . S
C436 C438 1.391 . S
C436 H439 0.929 . S
C437 H419 0.930 . S
C437 N433 1.334 . S
C437 C435 1.394 . S
C438 C434 1.413 . S
C438 C436 1.391 . S
C438 C453 1.437 . S
H439 C436 0.929 . S
O440 Gd396 2.545 . S
O440 C455 1.258 . S
O441 Gd396 2.606 . S
O441 Gd397 2.362 . S
O441 C452 1.284 . S
O442 Gd397 2.324 . S
O442 C462 1.254 . S
O443 Gd396 2.429 . S
O443 C462 1.268 . S
O444 Gd396 2.545 . S
O444 C452 1.250 . S
O445 Gd396 2.412 . S
O445 C455 1.252 . S
O446 Gd397 2.545 . S
O446 C464 1.258 . S
O447 Gd396 2.362 . S
O447 Gd397 2.606 . S
O447 C463 1.284 . S
O448 Gd396 2.324 . S
O448 C471 1.254 . S
O449 Gd397 2.429 . S
O449 C471 1.268 . S
O450 Gd397 2.545 . S
O450 C463 1.250 . S
O451 Gd397 2.412 . S
O451 C464 1.252 . S
C452 O441 1.284 . S
C452 O444 1.250 . S
C453 H422 0.929 . S
C453 C438 1.437 . S
C453 C454 1.317 . S
C454 H425 0.930 . S
C454 C430 1.431 . S
C454 C453 1.317 . S
C455 Gd396 2.828 . S
C455 O440 1.258 . S
C455 O445 1.252 . S
C455 C456 1.497 . S
C456 C455 1.497 . S
C456 C457 1.395 . S
C456 C458 1.380 . S
C457 C456 1.395 . S
C457 C460 1.398 . S
C457 H472 0.930 . S
C458 C456 1.380 . S
C458 C459 1.391 . S
C458 H473 0.930 . S
C459 C458 1.391 . S
C459 C461 1.387 . S
C460 C457 1.398 . S
C460 C461 1.380 . S
C460 H474 0.930 . S
C461 C459 1.387 . S
C461 C460 1.380 . S
C461 H475 0.930 . S
C462 O442 1.254 . S
C462 O443 1.268 . S
C463 O447 1.284 . S
C463 O450 1.250 . S
C464 Gd397 2.828 . S
C464 O446 1.258 . S
C464 O451 1.252 . S
C464 C465 1.497 . S
C465 C464 1.497 . S
C465 C466 1.395 . S
C465 C467 1.380 . S
C466 C465 1.395 . S
C466 C469 1.398 . S
C466 H476 0.930 . S
C467 C465 1.380 . S
C467 C468 1.391 . S
C467 H477 0.930 . S
C468 C467 1.391 . S
C468 C470 1.387 . S
C469 C466 1.398 . S
C469 C470 1.380 . S
C469 H478 0.930 . S
C470 C468 1.387 . S
C470 C469 1.380 . S
C470 H479 0.930 . S
C471 O448 1.254 . S
C471 O449 1.268 . S
H472 C457 0.930 . S
H473 C458 0.930 . S
H474 C460 0.930 . S
H475 C461 0.930 . S
H476 C466 0.930 . S
H477 C467 0.930 . S
H478 C469 0.930 . S
H479 C470 0.930 . S
Gd480 N511 2.661 1_545 S
Gd480 N517 2.601 1_545 S
Gd480 O524 2.545 . S
Gd480 O525 2.606 . S
Gd480 O527 2.429 . S
Gd480 O528 2.545 . S
Gd480 O529 2.412 . S
Gd480 O531 2.362 1_545 S
Gd480 O532 2.324 . S
Gd480 C539 2.828 . S
Gd481 N490 2.661 . S
Gd481 N494 2.601 . S
Gd481 O525 2.362 . S
Gd481 O526 2.324 . S
Gd481 O530 2.545 . S
Gd481 O531 2.606 1_545 S
Gd481 O533 2.429 . S
Gd481 O534 2.545 1_545 S
Gd481 O535 2.412 . S
Gd481 C548 2.828 . S
C482 C485 1.417 . S
C482 C487 1.431 . S
C482 C488 1.412 . S
C483 C486 1.437 . S
C483 C487 1.317 . S
C483 H502 0.929 . S
C484 C485 1.426 . S
C484 C486 1.413 . S
C484 N494 1.359 . S
C485 C482 1.417 . S
C485 C484 1.426 . S
C485 N490 1.350 . S
C486 C483 1.437 . S
C486 C484 1.413 . S
C486 C496 1.391 . S
C487 C482 1.431 . S
C487 C483 1.317 . S
C487 H498 0.930 . S
C488 C482 1.412 . S
C488 C489 1.355 . S
C488 H500 0.930 . S
C489 C488 1.355 . S
C489 C491 1.402 . S
C489 H501 0.930 . S
N490 Gd481 2.661 . S
N490 C485 1.350 . S
N490 C491 1.307 . S
C491 C489 1.402 . S
C491 N490 1.307 . S
C491 H492 0.930 . S
H492 C491 0.930 . S
C493 N494 1.334 . S
C493 C495 1.394 . S
C493 H497 0.930 . S
N494 Gd481 2.601 . S
N494 C484 1.359 . S
N494 C493 1.334 . S
C495 C493 1.394 . S
C495 C496 1.359 . S
C495 H507 0.930 . S
C496 C486 1.391 . S
C496 C495 1.359 . S
C496 H508 0.929 . S
H497 C493 0.930 . S
H498 C487 0.930 . S
H499 C516 0.930 . S
H500 C488 0.930 . S
H501 C489 0.930 . S
H502 C483 0.929 . S
H503 C521 0.930 . S
H504 C512 0.930 . S
H505 C513 0.930 . S
H506 C537 0.929 . S
H507 C495 0.930 . S
H508 C496 0.929 . S
H509 C538 0.930 . S
H510 C519 0.930 . S
N511 Gd480 2.661 1_565 S
N511 C515 1.350 . S
N511 C516 1.307 . S
C512 H504 0.930 . S
C512 C513 1.355 . S
C512 C514 1.412 . S
C513 H505 0.930 . S
C513 C512 1.355 . S
C513 C516 1.402 . S
C514 C512 1.412 . S
C514 C515 1.417 . S
C514 C538 1.431 . S
C515 N511 1.350 . S
C515 C514 1.417 . S
C515 C518 1.426 . S
C516 H499 0.930 . S
C516 N511 1.307 . S
C516 C513 1.402 . S
N517 Gd480 2.601 1_565 S
N517 C518 1.359 . S
N517 C521 1.334 1_565 S
C518 C515 1.426 . S
C518 N517 1.359 . S
C518 C522 1.413 . S
C519 H510 0.930 . S
C519 C520 1.359 . S
C519 C521 1.394 1_565 S
C520 C519 1.359 . S
C520 C522 1.391 . S
C520 H523 0.929 . S
C521 H503 0.930 . S
C521 N517 1.334 1_545 S
C521 C519 1.394 1_545 S
C522 C518 1.413 . S
C522 C520 1.391 . S
C522 C537 1.437 . S
H523 C520 0.929 . S
O524 Gd480 2.545 . S
O524 C539 1.258 . S
O525 Gd480 2.606 . S
O525 Gd481 2.362 . S
O525 C536 1.284 . S
O526 Gd481 2.324 . S
O526 C546 1.254 . S
O527 Gd480 2.429 . S
O527 C546 1.268 . S
O528 Gd480 2.545 . S
O528 C536 1.250 . S
O529 Gd480 2.412 . S
O529 C539 1.252 . S
O530 Gd481 2.545 . S
O530 C548 1.258 . S
O531 Gd480 2.362 1_565 S
O531 Gd481 2.606 1_565 S
O531 C547 1.284 . S
O532 Gd480 2.324 . S
O532 C555 1.254 . S
O533 Gd481 2.429 . S
O533 C555 1.268 . S
O534 Gd481 2.545 1_565 S
O534 C547 1.250 . S
O535 Gd481 2.412 . S
O535 C548 1.252 . S
C536 O525 1.284 . S
C536 O528 1.250 . S
C537 H506 0.929 . S
C537 C522 1.437 . S
C537 C538 1.317 . S
C538 H509 0.930 . S
C538 C514 1.431 . S
C538 C537 1.317 . S
C539 Gd480 2.828 . S
C539 O524 1.258 . S
C539 O529 1.252 . S
C539 C540 1.497 . S
C540 C539 1.497 . S
C540 C541 1.395 . S
C540 C542 1.380 . S
C541 C540 1.395 . S
C541 C544 1.398 . S
C541 H556 0.930 . S
C542 C540 1.380 . S
C542 C543 1.391 . S
C542 H557 0.930 . S
C543 C542 1.391 . S
C543 C545 1.387 . S
C544 C541 1.398 . S
C544 C545 1.380 . S
C544 H558 0.930 . S
C545 C543 1.387 . S
C545 C544 1.380 . S
C545 H559 0.930 . S
C546 O526 1.254 . S
C546 O527 1.268 . S
C547 O531 1.284 . S
C547 O534 1.250 . S
C548 Gd481 2.828 . S
C548 O530 1.258 . S
C548 O535 1.252 . S
C548 C549 1.497 1_545 S
C549 C548 1.497 1_565 S
C549 C550 1.395 . S
C549 C551 1.380 . S
C550 C549 1.395 . S
C550 C553 1.398 . S
C550 H560 0.933 1_565 S
C551 C549 1.380 . S
C551 C552 1.391 . S
C551 H561 0.930 . S
C552 C551 1.391 . S
C552 C554 1.387 . S
C553 C550 1.398 . S
C553 C554 1.380 . S
C553 H562 0.930 . S
C554 C552 1.387 . S
C554 C553 1.380 . S
C554 H563 0.930 . S
C555 O532 1.254 . S
C555 O533 1.268 . S
H556 C541 0.930 . S
H557 C542 0.930 . S
H558 C544 0.930 . S
H559 C545 0.930 . S
H560 C550 0.933 1_545 S
H561 C551 0.930 . S
H562 C553 0.930 . S
H563 C554 0.930 . S
Gd564 N595 2.661 . S
Gd564 N601 2.601 . S
Gd564 O608 2.545 . S
Gd564 O609 2.606 . S
Gd564 O611 2.429 . S
Gd564 O612 2.545 . S
Gd564 O613 2.412 . S
Gd564 O615 2.362 . S
Gd564 O616 2.324 . S
Gd564 C623 2.828 . S
Gd565 N574 2.661 . S
Gd565 N578 2.601 . S
Gd565 O609 2.362 . S
Gd565 O610 2.324 . S
Gd565 O614 2.545 . S
Gd565 O615 2.606 . S
Gd565 O617 2.429 . S
Gd565 O618 2.545 . S
Gd565 O619 2.412 . S
Gd565 C632 2.828 . S
C566 C569 1.417 . S
C566 C571 1.431 . S
C566 C572 1.412 . S
C567 C570 1.437 . S
C567 C571 1.317 . S
C567 H586 0.929 . S
C568 C569 1.426 . S
C568 C570 1.413 . S
C568 N578 1.359 . S
C569 C566 1.417 . S
C569 C568 1.426 . S
C569 N574 1.350 . S
C570 C567 1.437 . S
C570 C568 1.413 . S
C570 C580 1.391 . S
C571 C566 1.431 . S
C571 C567 1.317 . S
C571 H582 0.930 . S
C572 C566 1.412 . S
C572 C573 1.355 . S
C572 H584 0.930 . S
C573 C572 1.355 . S
C573 C575 1.402 . S
C573 H585 0.930 . S
N574 Gd565 2.661 . S
N574 C569 1.350 . S
N574 C575 1.307 . S
C575 C573 1.402 . S
C575 N574 1.307 . S
C575 H576 0.930 . S
H576 C575 0.930 . S
C577 N578 1.334 . S
C577 C579 1.394 . S
C577 H581 0.930 . S
N578 Gd565 2.601 . S
N578 C568 1.359 . S
N578 C577 1.334 . S
C579 C577 1.394 . S
C579 C580 1.359 . S
C579 H591 0.930 . S
C580 C570 1.391 . S
C580 C579 1.359 . S
C580 H592 0.929 . S
H581 C577 0.930 . S
H582 C571 0.930 . S
H583 C600 0.930 . S
H584 C572 0.930 . S
H585 C573 0.930 . S
H586 C567 0.929 . S
H587 C605 0.930 . S
H588 C596 0.930 . S
H589 C597 0.930 . S
H590 C621 0.929 . S
H591 C579 0.930 . S
H592 C580 0.929 . S
H593 C622 0.930 . S
H594 C603 0.930 . S
N595 Gd564 2.661 . S
N595 C599 1.350 . S
N595 C600 1.307 . S
C596 H588 0.930 . S
C596 C597 1.355 . S
C596 C598 1.412 . S
C597 H589 0.930 . S
C597 C596 1.355 . S
C597 C600 1.402 . S
C598 C596 1.412 . S
C598 C599 1.417 . S
C598 C622 1.431 . S
C599 N595 1.350 . S
C599 C598 1.417 . S
C599 C602 1.426 . S
C600 H583 0.930 . S
C600 N595 1.307 . S
C600 C597 1.402 . S
N601 Gd564 2.601 . S
N601 C602 1.359 . S
N601 C605 1.334 . S
C602 C599 1.426 . S
C602 N601 1.359 . S
C602 C606 1.413 . S
C603 H594 0.930 . S
C603 C604 1.359 . S
C603 C605 1.394 . S
C604 C603 1.359 . S
C604 C606 1.391 . S
C604 H607 0.929 . S
C605 H587 0.930 . S
C605 N601 1.334 . S
C605 C603 1.394 . S
C606 C602 1.413 . S
C606 C604 1.391 . S
C606 C621 1.437 . S
H607 C604 0.929 . S
O608 Gd564 2.545 . S
O608 C623 1.258 . S
O609 Gd564 2.606 . S
O609 Gd565 2.362 . S
O609 C620 1.284 . S
O610 Gd565 2.324 . S
O610 C630 1.254 . S
O611 Gd564 2.429 . S
O611 C630 1.268 . S
O612 Gd564 2.545 . S
O612 C620 1.250 . S
O613 Gd564 2.412 . S
O613 C623 1.252 . S
O614 Gd565 2.545 . S
O614 C632 1.258 . S
O615 Gd564 2.362 . S
O615 Gd565 2.606 . S
O615 C631 1.284 . S
O616 Gd564 2.324 . S
O616 C639 1.254 . S
O617 Gd565 2.429 . S
O617 C639 1.268 . S
O618 Gd565 2.545 . S
O618 C631 1.250 . S
O619 Gd565 2.412 . S
O619 C632 1.252 . S
C620 O609 1.284 . S
C620 O612 1.250 . S
C621 H590 0.929 . S
C621 C606 1.437 . S
C621 C622 1.317 . S
C622 H593 0.930 . S
C622 C598 1.431 . S
C622 C621 1.317 . S
C623 Gd564 2.828 . S
C623 O608 1.258 . S
C623 O613 1.252 . S
C623 C624 1.497 . S
C624 C623 1.497 . S
C624 C625 1.395 . S
C624 C626 1.380 . S
C625 C624 1.395 . S
C625 C628 1.398 . S
C625 H640 0.930 . S
C626 C624 1.380 . S
C626 C627 1.391 . S
C626 H641 0.930 . S
C627 C626 1.391 . S
C627 C629 1.387 . S
C628 C625 1.398 . S
C628 C629 1.380 . S
C628 H642 0.930 . S
C629 C627 1.387 . S
C629 C628 1.380 . S
C629 H643 0.930 . S
C630 O610 1.254 . S
C630 O611 1.268 . S
C631 O615 1.284 . S
C631 O618 1.250 . S
C632 Gd565 2.828 . S
C632 O614 1.258 . S
C632 O619 1.252 . S
C632 C633 1.497 . S
C633 C632 1.497 . S
C633 C634 1.395 . S
C633 C635 1.380 . S
C634 C633 1.395 . S
C634 C637 1.398 . S
C634 H644 0.930 . S
C635 C633 1.380 . S
C635 C636 1.391 . S
C635 H645 0.930 . S
C636 C635 1.391 . S
C636 C638 1.387 . S
C637 C634 1.398 . S
C637 C638 1.380 . S
C637 H646 0.930 . S
C638 C636 1.387 . S
C638 C637 1.380 . S
C638 H647 0.930 . S
C639 O616 1.254 . S
C639 O617 1.268 . S
H640 C625 0.930 . S
H641 C626 0.930 . S
H642 C628 0.930 . S
H643 C629 0.930 . S
H644 C634 0.930 . S
H645 C635 0.930 . S
H646 C637 0.930 . S
H647 C638 0.930 . S
Gd648 N679 2.661 . S
Gd648 N685 2.601 . S
Gd648 O692 2.545 . S
Gd648 O693 2.606 1_565 S
Gd648 O695 2.429 1_565 S
Gd648 O696 2.545 . S
Gd648 O697 2.412 . S
Gd648 O699 2.362 1_565 S
Gd648 O700 2.324 . S
Gd648 C707 2.828 . S
Gd649 N658 2.661 . S
Gd649 N662 2.601 . S
Gd649 O693 2.362 . S
Gd649 O694 2.324 . S
Gd649 O698 2.545 . S
Gd649 O699 2.606 . S
Gd649 O701 2.429 . S
Gd649 O702 2.545 . S
Gd649 O703 2.412 . S
Gd649 C716 2.828 . S
C650 C653 1.417 . S
C650 C655 1.431 . S
C650 C656 1.412 . S
C651 C654 1.437 . S
C651 C655 1.317 . S
C651 H670 0.929 . S
C652 C653 1.426 . S
C652 C654 1.413 . S
C652 N662 1.359 . S
C653 C650 1.417 . S
C653 C652 1.426 . S
C653 N658 1.350 . S
C654 C651 1.437 . S
C654 C652 1.413 . S
C654 C664 1.391 . S
C655 C650 1.431 . S
C655 C651 1.317 . S
C655 H666 0.930 . S
C656 C650 1.412 . S
C656 C657 1.355 . S
C656 H668 0.930 . S
C657 C656 1.355 . S
C657 C659 1.402 . S
C657 H669 0.930 . S
N658 Gd649 2.661 . S
N658 C653 1.350 . S
N658 C659 1.307 . S
C659 C657 1.402 . S
C659 N658 1.307 . S
C659 H660 0.930 . S
H660 C659 0.930 . S
C661 N662 1.334 . S
C661 C663 1.394 . S
C661 H665 0.930 . S
N662 Gd649 2.601 . S
N662 C652 1.359 . S
N662 C661 1.334 . S
C663 C661 1.394 . S
C663 C664 1.359 . S
C663 H675 0.930 1_455 S
C664 C654 1.391 . S
C664 C663 1.359 . S
C664 H676 0.929 . S
H665 C661 0.930 . S
H666 C655 0.930 . S
H667 C684 0.930 . S
H668 C656 0.930 . S
H669 C657 0.930 . S
H670 C651 0.929 . S
H671 C689 0.930 . S
H672 C680 0.930 . S
H673 C681 0.930 1_655 S
H674 C705 0.929 . S
H675 C663 0.930 1_655 S
H676 C664 0.929 . S
H677 C706 0.930 . S
H678 C687 0.930 . S
N679 Gd648 2.661 . S
N679 C683 1.350 . S
N679 C684 1.307 . S
C680 H672 0.930 . S
C680 C681 1.355 . S
C680 C682 1.412 . S
C681 H673 0.930 1_455 S
C681 C680 1.355 . S
C681 C684 1.402 . S
C682 C680 1.412 . S
C682 C683 1.417 . S
C682 C706 1.431 . S
C683 N679 1.350 . S
C683 C682 1.417 . S
C683 C686 1.426 . S
C684 H667 0.930 . S
C684 N679 1.307 . S
C684 C681 1.402 . S
N685 Gd648 2.601 . S
N685 C686 1.359 . S
N685 C689 1.334 . S
C686 C683 1.426 . S
C686 N685 1.359 . S
C686 C690 1.413 . S
C687 H678 0.930 . S
C687 C688 1.359 . S
C687 C689 1.394 . S
C688 C687 1.359 . S
C688 C690 1.391 . S
C688 H691 0.929 . S
C689 H671 0.930 . S
C689 N685 1.334 . S
C689 C687 1.394 . S
C690 C686 1.413 . S
C690 C688 1.391 . S
C690 C705 1.437 . S
H691 C688 0.929 . S
O692 Gd648 2.545 . S
O692 C707 1.258 . S
O693 Gd648 2.606 1_545 S
O693 Gd649 2.362 . S
O693 C704 1.284 . S
O694 Gd649 2.324 . S
O694 C714 1.254 . S
O695 Gd648 2.429 1_545 S
O695 C714 1.268 . S
O696 Gd648 2.545 . S
O696 C704 1.250 1_565 S
O697 Gd648 2.412 . S
O697 C707 1.252 . S
O698 Gd649 2.545 . S
O698 C716 1.258 . S
O699 Gd648 2.362 1_545 S
O699 Gd649 2.606 . S
O699 C715 1.284 . S
O700 Gd648 2.324 . S
O700 C723 1.254 1_565 S
O701 Gd649 2.429 . S
O701 C723 1.268 . S
O702 Gd649 2.545 . S
O702 C715 1.250 . S
O703 Gd649 2.412 . S
O703 C716 1.252 . S
C704 O693 1.284 . S
C704 O696 1.250 1_545 S
C705 H674 0.929 . S
C705 C690 1.437 . S
C705 C706 1.317 . S
C706 H677 0.930 . S
C706 C682 1.431 . S
C706 C705 1.317 . S
C707 Gd648 2.828 . S
C707 O692 1.258 . S
C707 O697 1.252 . S
C707 C708 1.497 . S
C708 C707 1.497 . S
C708 C709 1.395 . S
C708 C710 1.380 . S
C709 C708 1.395 . S
C709 C712 1.398 . S
C709 H724 0.930 . S
C710 C708 1.380 . S
C710 C711 1.391 . S
C710 H725 0.930 . S
C711 C710 1.391 . S
C711 C713 1.387 . S
C712 C709 1.398 . S
C712 C713 1.380 . S
C712 H726 0.930 . S
C713 C711 1.387 . S
C713 C712 1.380 . S
C713 H727 0.930 . S
C714 O694 1.254 . S
C714 O695 1.268 . S
C715 O699 1.284 . S
C715 O702 1.250 . S
C716 Gd649 2.828 . S
C716 O698 1.258 . S
C716 O703 1.252 . S
C716 C717 1.497 . S
C717 C716 1.497 . S
C717 C718 1.395 . S
C717 C719 1.380 . S
C718 C717 1.395 . S
C718 C721 1.398 . S
C718 H728 0.930 . S
C719 C717 1.380 . S
C719 C720 1.391 . S
C719 H729 0.930 . S
C720 C719 1.391 . S
C720 C722 1.387 . S
C721 C718 1.398 . S
C721 C722 1.380 . S
C721 H730 0.930 . S
C722 C720 1.387 . S
C722 C721 1.380 . S
C722 H731 0.930 . S
C723 O700 1.254 1_545 S
C723 O701 1.268 . S
H724 C709 0.930 . S
H725 C710 0.930 . S
H726 C712 0.930 . S
H727 C713 0.930 . S
H728 C718 0.930 . S
H729 C719 0.930 . S
H730 C721 0.930 . S
H731 C722 0.930 . S
Gd732 N763 2.661 . S
Gd732 N769 2.601 . S
Gd732 O776 2.545 . S
Gd732 O777 2.606 . S
Gd732 O779 2.429 . S
Gd732 O780 2.545 . S
Gd732 O781 2.412 . S
Gd732 O783 2.362 . S
Gd732 O784 2.324 . S
Gd732 C791 2.828 . S
Gd733 N742 2.661 . S
Gd733 N746 2.601 . S
Gd733 O777 2.362 . S
Gd733 O778 2.324 . S
Gd733 O782 2.545 . S
Gd733 O783 2.606 . S
Gd733 O785 2.429 . S
Gd733 O786 2.545 . S
Gd733 O787 2.412 . S
Gd733 C800 2.828 . S
C734 C737 1.417 . S
C734 C739 1.431 . S
C734 C740 1.412 . S
C735 C738 1.437 . S
C735 C739 1.317 . S
C735 H754 0.929 . S
C736 C737 1.426 . S
C736 C738 1.413 . S
C736 N746 1.359 . S
C737 C734 1.417 . S
C737 C736 1.426 . S
C737 N742 1.350 . S
C738 C735 1.437 . S
C738 C736 1.413 . S
C738 C748 1.391 . S
C739 C734 1.431 . S
C739 C735 1.317 . S
C739 H750 0.930 . S
C740 C734 1.412 . S
C740 C741 1.355 . S
C740 H752 0.930 . S
C741 C740 1.355 . S
C741 C743 1.402 . S
C741 H753 0.930 . S
N742 Gd733 2.661 . S
N742 C737 1.350 . S
N742 C743 1.307 . S
C743 C741 1.402 . S
C743 N742 1.307 . S
C743 H744 0.930 . S
H744 C743 0.930 . S
C745 N746 1.334 . S
C745 C747 1.394 . S
C745 H749 0.930 . S
N746 Gd733 2.601 . S
N746 C736 1.359 . S
N746 C745 1.334 . S
C747 C745 1.394 . S
C747 C748 1.359 . S
C747 H759 0.930 . S
C748 C738 1.391 . S
C748 C747 1.359 . S
C748 H760 0.929 . S
H749 C745 0.930 . S
H750 C739 0.930 . S
H751 C768 0.930 . S
H752 C740 0.930 . S
H753 C741 0.930 . S
H754 C735 0.929 . S
H755 C773 0.930 . S
H756 C764 0.930 . S
H757 C765 0.930 . S
H758 C789 0.929 . S
H759 C747 0.930 . S
H760 C748 0.929 . S
H761 C790 0.930 . S
H762 C771 0.930 . S
N763 Gd732 2.661 . S
N763 C767 1.350 . S
N763 C768 1.307 . S
C764 H756 0.930 . S
C764 C765 1.355 . S
C764 C766 1.412 . S
C765 H757 0.930 . S
C765 C764 1.355 . S
C765 C768 1.402 . S
C766 C764 1.412 . S
C766 C767 1.417 . S
C766 C790 1.431 . S
C767 N763 1.350 . S
C767 C766 1.417 . S
C767 C770 1.426 . S
C768 H751 0.930 . S
C768 N763 1.307 . S
C768 C765 1.402 . S
N769 Gd732 2.601 . S
N769 C770 1.359 . S
N769 C773 1.334 . S
C770 C767 1.426 . S
C770 N769 1.359 . S
C770 C774 1.413 . S
C771 H762 0.930 . S
C771 C772 1.359 . S
C771 C773 1.394 . S
C772 C771 1.359 . S
C772 C774 1.391 . S
C772 H775 0.929 . S
C773 H755 0.930 . S
C773 N769 1.334 . S
C773 C771 1.394 . S
C774 C770 1.413 . S
C774 C772 1.391 . S
C774 C789 1.437 . S
H775 C772 0.929 . S
O776 Gd732 2.545 . S
O776 C791 1.258 . S
O777 Gd732 2.606 . S
O777 Gd733 2.362 . S
O777 C788 1.284 . S
O778 Gd733 2.324 . S
O778 C798 1.254 . S
O779 Gd732 2.429 . S
O779 C798 1.268 . S
O780 Gd732 2.545 . S
O780 C788 1.250 . S
O781 Gd732 2.412 . S
O781 C791 1.252 . S
O782 Gd733 2.545 . S
O782 C800 1.258 . S
O783 Gd732 2.362 . S
O783 Gd733 2.606 . S
O783 C799 1.284 . S
O784 Gd732 2.324 . S
O784 C807 1.254 . S
O785 Gd733 2.429 . S
O785 C807 1.268 . S
O786 Gd733 2.545 . S
O786 C799 1.250 . S
O787 Gd733 2.412 . S
O787 C800 1.252 . S
C788 O777 1.284 . S
C788 O780 1.250 . S
C789 H758 0.929 . S
C789 C774 1.437 . S
C789 C790 1.317 . S
C790 H761 0.930 . S
C790 C766 1.431 . S
C790 C789 1.317 . S
C791 Gd732 2.828 . S
C791 O776 1.258 . S
C791 O781 1.252 . S
C791 C792 1.497 . S
C792 C791 1.497 . S
C792 C793 1.395 . S
C792 C794 1.380 . S
C793 C792 1.395 . S
C793 C796 1.398 . S
C793 H808 0.930 . S
C794 C792 1.380 . S
C794 C795 1.391 . S
C794 H809 0.930 . S
C795 C794 1.391 . S
C795 C797 1.387 . S
C796 C793 1.398 . S
C796 C797 1.380 . S
C796 H810 0.930 . S
C797 C795 1.387 . S
C797 C796 1.380 . S
C797 H811 0.930 . S
C798 O778 1.254 . S
C798 O779 1.268 . S
C799 O783 1.284 . S
C799 O786 1.250 . S
C800 Gd733 2.828 . S
C800 O782 1.258 . S
C800 O787 1.252 . S
C800 C801 1.497 . S
C801 C800 1.497 . S
C801 C802 1.395 . S
C801 C803 1.380 . S
C802 C801 1.395 . S
C802 C805 1.398 . S
C802 H812 0.930 . S
C803 C801 1.380 . S
C803 C804 1.391 . S
C803 H813 0.930 . S
C804 C803 1.391 . S
C804 C806 1.387 . S
C805 C802 1.398 . S
C805 C806 1.380 . S
C805 H814 0.930 . S
C806 C804 1.387 . S
C806 C805 1.380 . S
C806 H815 0.930 . S
C807 O784 1.254 . S
C807 O785 1.268 . S
H808 C793 0.930 . S
H809 C794 0.930 . S
H810 C796 0.930 . S
H811 C797 0.930 . S
H812 C802 0.930 . S
H813 C803 0.930 . S
H814 C805 0.930 . S
H815 C806 0.930 . S
Gd816 N847 2.661 . S
Gd816 N853 2.601 . S
Gd816 O860 2.545 . S
Gd816 O861 2.606 1_556 S
Gd816 O863 2.429 1_556 S
Gd816 O864 2.545 . S
Gd816 O865 2.412 . S
Gd816 O867 2.362 1_556 S
Gd816 O868 2.324 . S
Gd816 C875 2.828 . S
Gd817 N826 2.661 . S
Gd817 N830 2.601 . S
Gd817 O861 2.362 . S
Gd817 O862 2.324 . S
Gd817 O866 2.545 . S
Gd817 O867 2.606 . S
Gd817 O869 2.454 . S
Gd817 O870 2.545 . S
Gd817 O871 2.412 . S
Gd817 C884 2.828 . S
C818 C821 1.417 . S
C818 C823 1.431 . S
C818 C824 1.412 . S
C819 C822 1.437 . S
C819 C823 1.317 . S
C819 H838 0.929 . S
C820 C821 1.426 . S
C820 C822 1.413 . S
C820 N830 1.359 . S
C821 C818 1.417 . S
C821 C820 1.426 . S
C821 N826 1.350 . S
C822 C819 1.437 . S
C822 C820 1.413 . S
C822 C832 1.391 1_545 S
C823 C818 1.431 . S
C823 C819 1.317 . S
C823 H834 0.930 . S
C824 C818 1.412 . S
C824 C825 1.355 . S
C824 H836 0.930 . S
C825 C824 1.355 . S
C825 C827 1.402 . S
C825 H837 0.930 . S
N826 Gd817 2.661 . S
N826 C821 1.350 . S
N826 C827 1.307 . S
C827 C825 1.402 . S
C827 N826 1.307 . S
C827 H828 0.930 . S
H828 C827 0.930 . S
C829 N830 1.334 1_565 S
C829 C831 1.394 . S
C829 H833 0.930 . S
N830 Gd817 2.601 . S
N830 C820 1.359 . S
N830 C829 1.334 1_545 S
C831 C829 1.394 . S
C831 C832 1.359 . S
C831 H843 0.930 . S
C832 C822 1.391 1_565 S
C832 C831 1.359 . S
C832 H844 0.929 . S
H833 C829 0.930 . S
H834 C823 0.930 . S
H835 C852 0.902 1_565 S
H836 C824 0.930 . S
H837 C825 0.930 . S
H838 C819 0.929 . S
H839 C857 0.930 . S
H840 C848 0.930 . S
H841 C849 0.930 . S
H842 C873 0.929 . S
H843 C831 0.930 . S
H844 C832 0.929 . S
H845 C874 0.930 . S
H846 C855 0.930 . S
N847 Gd816 2.661 . S
N847 C851 1.350 . S
N847 C852 1.352 . S
C848 H840 0.930 . S
C848 C849 1.355 . S
C848 C850 1.412 1_565 S
C849 H841 0.930 . S
C849 C848 1.355 . S
C849 C852 1.385 1_565 S
C850 C848 1.412 1_545 S
C850 C851 1.417 . S
C850 C874 1.431 . S
C851 N847 1.350 . S
C851 C850 1.417 . S
C851 C854 1.426 . S
C852 H835 0.902 1_545 S
C852 N847 1.352 . S
C852 C849 1.385 1_545 S
N853 Gd816 2.601 . S
N853 C854 1.359 . S
N853 C857 1.334 . S
C854 C851 1.426 . S
C854 N853 1.359 . S
C854 C858 1.413 . S
C855 H846 0.930 . S
C855 C856 1.359 . S
C855 C857 1.394 . S
C856 C855 1.359 . S
C856 C858 1.391 . S
C856 H859 0.929 . S
C857 H839 0.930 . S
C857 N853 1.334 . S
C857 C855 1.394 . S
C858 C854 1.413 . S
C858 C856 1.391 . S
C858 C873 1.437 . S
H859 C856 0.929 . S
O860 Gd816 2.545 . S
O860 C875 1.258 . S
O861 Gd816 2.606 1_554 S
O861 Gd817 2.362 . S
O861 C872 1.284 . S
O862 Gd817 2.324 . S
O862 C882 1.254 . S
O863 Gd816 2.429 1_554 S
O863 C882 1.268 . S
O864 Gd816 2.545 . S
O864 C872 1.250 1_556 S
O865 Gd816 2.412 . S
O865 C875 1.252 . S
O866 Gd817 2.545 . S
O866 C884 1.258 . S
O867 Gd816 2.362 1_554 S
O867 Gd817 2.606 . S
O867 C883 1.284 . S
O868 Gd816 2.324 . S
O868 C891 1.254 . S
O869 Gd817 2.454 . S
O869 C891 1.278 1_554 S
O870 Gd817 2.545 . S
O870 C883 1.250 . S
O871 Gd817 2.412 . S
O871 C884 1.252 . S
C872 O861 1.284 . S
C872 O864 1.250 1_554 S
C873 H842 0.929 . S
C873 C858 1.437 . S
C873 C874 1.317 . S
C874 H845 0.930 . S
C874 C850 1.431 . S
C874 C873 1.317 . S
C875 Gd816 2.828 . S
C875 O860 1.258 . S
C875 O865 1.252 . S
C875 C876 1.497 . S
C876 C875 1.497 . S
C876 C877 1.395 . S
C876 C878 1.380 . S
C877 C876 1.395 . S
C877 C880 1.398 . S
C877 H892 0.930 . S
C878 C876 1.380 . S
C878 C879 1.391 . S
C878 H893 0.930 . S
C879 C878 1.391 . S
C879 C881 1.387 . S
C880 C877 1.398 . S
C880 C881 1.380 . S
C880 H894 0.930 . S
C881 C879 1.387 . S
C881 C880 1.380 . S
C881 H895 0.930 . S
C882 O862 1.254 . S
C882 O863 1.268 . S
C883 O867 1.284 . S
C883 O870 1.250 . S
C884 Gd817 2.828 . S
C884 O866 1.258 . S
C884 O871 1.252 . S
C884 C885 1.497 . S
C885 C884 1.497 . S
C885 C886 1.395 1_545 S
C885 C887 1.380 . S
C886 C885 1.395 1_565 S
C886 C889 1.398 . S
C886 H896 0.930 . S
C887 C885 1.380 . S
C887 C888 1.391 . S
C887 H897 0.930 . S
C888 C887 1.391 . S
C888 C890 1.388 1_545 S
C889 C886 1.398 . S
C889 C890 1.380 . S
C889 H898 0.930 . S
C890 C888 1.388 1_565 S
C890 C889 1.380 . S
C890 H899 0.930 . S
C891 O868 1.254 . S
C891 O869 1.278 1_556 S
H892 C877 0.930 . S
H893 C878 0.930 . S
H894 C880 0.930 . S
H895 C881 0.930 . S
H896 C886 0.930 . S
H897 C887 0.930 . S
H898 C889 0.930 . S
H899 C890 0.930 . S
Gd900 N931 2.661 . S
Gd900 N937 2.601 . S
Gd900 O944 2.545 . S
Gd900 O945 2.606 . S
Gd900 O947 2.429 . S
Gd900 O948 2.545 . S
Gd900 O949 2.412 . S
Gd900 O951 2.362 . S
Gd900 O952 2.324 . S
Gd900 C959 2.828 . S
Gd901 N910 2.661 . S
Gd901 N914 2.601 . S
Gd901 O945 2.362 . S
Gd901 O946 2.324 . S
Gd901 O950 2.545 . S
Gd901 O951 2.606 . S
Gd901 O953 2.429 . S
Gd901 O954 2.545 . S
Gd901 O955 2.412 . S
Gd901 C968 2.828 . S
C902 C905 1.417 . S
C902 C907 1.431 . S
C902 C908 1.412 . S
C903 C906 1.437 . S
C903 C907 1.317 . S
C903 H922 0.929 . S
C904 C905 1.426 . S
C904 C906 1.413 . S
C904 N914 1.359 . S
C905 C902 1.417 . S
C905 C904 1.426 . S
C905 N910 1.350 . S
C906 C903 1.437 . S
C906 C904 1.413 . S
C906 C916 1.391 . S
C907 C902 1.431 . S
C907 C903 1.317 . S
C907 H918 0.930 . S
C908 C902 1.412 . S
C908 C909 1.355 . S
C908 H920 0.930 . S
C909 C908 1.355 . S
C909 C911 1.402 . S
C909 H921 0.930 . S
N910 Gd901 2.661 . S
N910 C905 1.350 . S
N910 C911 1.307 . S
C911 C909 1.402 . S
C911 N910 1.307 . S
C911 H912 0.930 . S
H912 C911 0.930 . S
C913 N914 1.334 . S
C913 C915 1.394 . S
C913 H917 0.930 . S
N914 Gd901 2.601 . S
N914 C904 1.359 . S
N914 C913 1.334 . S
C915 C913 1.394 . S
C915 C916 1.359 . S
C915 H927 0.930 . S
C916 C906 1.391 . S
C916 C915 1.359 . S
C916 H928 0.929 . S
H917 C913 0.930 . S
H918 C907 0.930 . S
H919 C936 0.930 . S
H920 C908 0.930 . S
H921 C909 0.930 . S
H922 C903 0.929 . S
H923 C941 0.930 . S
H924 C932 0.930 . S
H925 C933 0.930 . S
H926 C957 0.929 . S
H927 C915 0.930 . S
H928 C916 0.929 . S
H929 C958 0.930 . S
H930 C939 0.930 . S
N931 Gd900 2.661 . S
N931 C935 1.350 . S
N931 C936 1.307 . S
C932 H924 0.930 . S
C932 C933 1.355 . S
C932 C934 1.412 . S
C933 H925 0.930 . S
C933 C932 1.355 . S
C933 C936 1.402 . S
C934 C932 1.412 . S
C934 C935 1.417 . S
C934 C958 1.431 . S
C935 N931 1.350 . S
C935 C934 1.417 . S
C935 C938 1.426 . S
C936 H919 0.930 . S
C936 N931 1.307 . S
C936 C933 1.402 . S
N937 Gd900 2.601 . S
N937 C938 1.359 . S
N937 C941 1.334 . S
C938 C935 1.426 . S
C938 N937 1.359 . S
C938 C942 1.413 . S
C939 H930 0.930 . S
C939 C940 1.359 . S
C939 C941 1.394 . S
C940 C939 1.359 . S
C940 C942 1.391 . S
C940 H943 0.929 . S
C941 H923 0.930 . S
C941 N937 1.334 . S
C941 C939 1.394 . S
C942 C938 1.413 . S
C942 C940 1.391 . S
C942 C957 1.437 . S
H943 C940 0.929 . S
O944 Gd900 2.545 . S
O944 C959 1.258 . S
O945 Gd900 2.606 . S
O945 Gd901 2.362 . S
O945 C956 1.284 . S
O946 Gd901 2.324 . S
O946 C966 1.254 . S
O947 Gd900 2.429 . S
O947 C966 1.268 . S
O948 Gd900 2.545 . S
O948 C956 1.250 . S
O949 Gd900 2.412 . S
O949 C959 1.252 . S
O950 Gd901 2.545 . S
O950 C968 1.258 . S
O951 Gd900 2.362 . S
O951 Gd901 2.606 . S
O951 C967 1.284 . S
O952 Gd900 2.324 . S
O952 C975 1.254 . S
O953 Gd901 2.429 . S
O953 C975 1.268 . S
O954 Gd901 2.545 . S
O954 C967 1.250 . S
O955 Gd901 2.412 . S
O955 C968 1.252 . S
C956 O945 1.284 . S
C956 O948 1.250 . S
C957 H926 0.929 . S
C957 C942 1.437 . S
C957 C958 1.317 . S
C958 H929 0.930 . S
C958 C934 1.431 . S
C958 C957 1.317 . S
C959 Gd900 2.828 . S
C959 O944 1.258 . S
C959 O949 1.252 . S
C959 C960 1.497 . S
C960 C959 1.497 . S
C960 C961 1.395 . S
C960 C962 1.380 . S
C961 C960 1.395 . S
C961 C964 1.398 . S
C961 H976 0.930 . S
C962 C960 1.380 . S
C962 C963 1.391 . S
C962 H977 0.930 . S
C963 C962 1.391 . S
C963 C965 1.387 . S
C964 C961 1.398 . S
C964 C965 1.380 . S
C964 H978 0.930 . S
C965 C963 1.387 . S
C965 C964 1.380 . S
C965 H979 0.930 . S
C966 O946 1.254 . S
C966 O947 1.268 . S
C967 O951 1.284 . S
C967 O954 1.250 . S
C968 Gd901 2.828 . S
C968 O950 1.258 . S
C968 O955 1.252 . S
C968 C969 1.497 . S
C969 C968 1.497 . S
C969 C970 1.395 . S
C969 C971 1.380 . S
C970 C969 1.395 . S
C970 C973 1.398 . S
C970 H980 0.930 . S
C971 C969 1.380 . S
C971 C972 1.391 . S
C971 H981 0.930 . S
C972 C971 1.391 . S
C972 C974 1.387 . S
C973 C970 1.398 . S
C973 C974 1.380 . S
C973 H982 0.930 . S
C974 C972 1.387 . S
C974 C973 1.380 . S
C974 H983 0.930 . S
C975 O952 1.254 . S
C975 O953 1.268 . S
H976 C961 0.930 . S
H977 C962 0.930 . S
H978 C964 0.930 . S
H979 C965 0.930 . S
H980 C970 0.930 . S
H981 C971 0.930 . S
H982 C973 0.930 . S
H983 C974 0.930 . S
Gd984 N1015 2.661 1_554 S
Gd984 N1021 2.601 1_554 S
Gd984 O1028 2.545 . S
Gd984 O1029 2.606 . S
Gd984 O1031 2.429 . S
Gd984 O1032 2.545 . S
Gd984 O1033 2.412 . S
Gd984 O1035 2.362 1_554 S
Gd984 O1036 2.324 . S
Gd984 C1043 2.828 . S
Gd985 N994 2.661 . S
Gd985 N998 2.601 . S
Gd985 O1029 2.362 . S
Gd985 O1030 2.324 . S
Gd985 O1034 2.545 . S
Gd985 O1035 2.606 1_554 S
Gd985 O1037 2.429 . S
Gd985 O1038 2.545 1_554 S
Gd985 O1039 2.412 . S
Gd985 C1052 2.828 . S
C986 C989 1.417 . S
C986 C991 1.431 . S
C986 C992 1.412 . S
C987 C990 1.437 . S
C987 C991 1.317 . S
C987 H1006 0.929 . S
C988 C989 1.426 . S
C988 C990 1.413 . S
C988 N998 1.359 . S
C989 C986 1.417 . S
C989 C988 1.426 . S
C989 N994 1.350 . S
C990 C987 1.437 . S
C990 C988 1.413 . S
C990 C1000 1.391 . S
C991 C986 1.431 . S
C991 C987 1.317 . S
C991 H1002 0.930 . S
C992 C986 1.412 . S
C992 C993 1.355 . S
C992 H1004 0.930 . S
C993 C992 1.355 . S
C993 C995 1.402 . S
C993 H1005 0.930 . S
N994 Gd985 2.661 . S
N994 C989 1.350 . S
N994 C995 1.307 . S
C995 C993 1.402 . S
C995 N994 1.307 . S
C995 H996 0.930 . S
H996 C995 0.930 . S
C997 N998 1.334 . S
C997 C999 1.394 . S
C997 H1001 0.930 . S
N998 Gd985 2.601 . S
N998 C988 1.359 . S
N998 C997 1.334 . S
C999 C997 1.394 . S
C999 C1000 1.359 . S
C999 H1011 0.930 . S
C1000 C990 1.391 . S
C1000 C999 1.359 . S
C1000 H1012 0.929 . S
H1001 C997 0.930 . S
H1002 C991 0.930 . S
H1003 C1020 0.930 . S
H1004 C992 0.930 . S
H1005 C993 0.930 . S
H1006 C987 0.929 . S
H1007 C1025 0.930 . S
H1008 C1016 0.930 . S
H1009 C1017 0.930 . S
H1010 C1041 0.929 . S
H1011 C999 0.930 . S
H1012 C1000 0.929 . S
H1013 C1042 0.930 . S
H1014 C1023 0.930 . S
N1015 Gd984 2.661 1_556 S
N1015 C1019 1.350 . S
N1015 C1020 1.307 . S
C1016 H1008 0.930 . S
C1016 C1017 1.355 . S
C1016 C1018 1.412 . S
C1017 H1009 0.930 . S
C1017 C1016 1.355 . S
C1017 C1020 1.402 . S
C1018 C1016 1.412 . S
C1018 C1019 1.417 . S
C1018 C1042 1.431 . S
C1019 N1015 1.350 . S
C1019 C1018 1.417 . S
C1019 C1022 1.426 . S
C1020 H1003 0.930 . S
C1020 N1015 1.307 . S
C1020 C1017 1.402 . S
N1021 Gd984 2.601 1_556 S
N1021 C1022 1.359 . S
N1021 C1025 1.334 . S
C1022 C1019 1.426 . S
C1022 N1021 1.359 . S
C1022 C1026 1.413 . S
C1023 H1014 0.930 . S
C1023 C1024 1.359 . S
C1023 C1025 1.394 . S
C1024 C1023 1.359 . S
C1024 C1026 1.391 . S
C1024 H1027 0.929 . S
C1025 H1007 0.930 . S
C1025 N1021 1.334 . S
C1025 C1023 1.394 . S
C1026 C1022 1.413 . S
C1026 C1024 1.391 . S
C1026 C1041 1.437 . S
H1027 C1024 0.929 . S
O1028 Gd984 2.545 . S
O1028 C1043 1.258 . S
O1029 Gd984 2.606 . S
O1029 Gd985 2.362 . S
O1029 C1040 1.284 . S
O1030 Gd985 2.324 . S
O1030 C1050 1.254 . S
O1031 Gd984 2.429 . S
O1031 C1050 1.268 . S
O1032 Gd984 2.545 . S
O1032 C1040 1.250 . S
O1033 Gd984 2.412 . S
O1033 C1043 1.252 . S
O1034 Gd985 2.545 . S
O1034 C1052 1.258 . S
O1035 Gd984 2.362 1_556 S
O1035 Gd985 2.606 1_556 S
O1035 C1051 1.284 . S
O1036 Gd984 2.324 . S
O1036 C1059 1.254 . S
O1037 Gd985 2.429 . S
O1037 C1059 1.268 . S
O1038 Gd985 2.545 1_556 S
O1038 C1051 1.250 . S
O1039 Gd985 2.412 . S
O1039 C1052 1.252 . S
C1040 O1029 1.284 . S
C1040 O1032 1.250 . S
C1041 H1010 0.929 . S
C1041 C1026 1.437 . S
C1041 C1042 1.317 . S
C1042 H1013 0.930 . S
C1042 C1018 1.431 . S
C1042 C1041 1.317 . S
C1043 Gd984 2.828 . S
C1043 O1028 1.258 . S
C1043 O1033 1.252 . S
C1043 C1044 1.497 . S
C1044 C1043 1.497 . S
C1044 C1045 1.395 . S
C1044 C1046 1.380 . S
C1045 C1044 1.395 . S
C1045 C1048 1.398 . S
C1045 H1060 0.930 1_554 S
C1046 C1044 1.380 . S
C1046 C1047 1.391 . S
C1046 H1061 0.930 . S
C1047 C1046 1.391 . S
C1047 C1049 1.387 . S
C1048 C1045 1.398 . S
C1048 C1049 1.380 . S
C1048 H1062 0.930 . S
C1049 C1047 1.387 . S
C1049 C1048 1.380 . S
C1049 H1063 0.930 . S
C1050 O1030 1.254 . S
C1050 O1031 1.268 . S
C1051 O1035 1.284 . S
C1051 O1038 1.250 . S
C1052 Gd985 2.828 . S
C1052 O1034 1.258 . S
C1052 O1039 1.252 . S
C1052 C1053 1.497 . S
C1053 C1052 1.497 . S
C1053 C1054 1.395 . S
C1053 C1055 1.380 1_554 S
C1054 C1053 1.395 . S
C1054 C1057 1.398 . S
C1054 H1064 0.930 . S
C1055 C1053 1.380 1_556 S
C1055 C1056 1.391 . S
C1055 H1065 0.930 . S
C1056 C1055 1.391 . S
C1056 C1058 1.387 . S
C1057 C1054 1.398 . S
C1057 C1058 1.380 1_554 S
C1057 H1066 0.930 . S
C1058 C1056 1.387 . S
C1058 C1057 1.380 1_556 S
C1058 H1067 0.930 . S
C1059 O1036 1.254 . S
C1059 O1037 1.268 . S
H1060 C1045 0.930 1_556 S
H1061 C1046 0.930 . S
H1062 C1048 0.930 . S
H1063 C1049 0.930 . S
H1064 C1054 0.930 . S
H1065 C1055 0.930 . S
H1066 C1057 0.930 . S
H1067 C1058 0.930 . S
Gd1068 N1099 2.661 . S
Gd1068 N1105 2.601 . S
Gd1068 O1112 2.545 . S
Gd1068 O1113 2.606 . S
Gd1068 O1115 2.429 . S
Gd1068 O1116 2.545 . S
Gd1068 O1117 2.412 . S
Gd1068 O1119 2.362 . S
Gd1068 O1120 2.324 . S
Gd1068 C1127 2.828 . S
Gd1069 N1078 2.661 . S
Gd1069 N1082 2.601 . S
Gd1069 O1113 2.362 . S
Gd1069 O1114 2.324 . S
Gd1069 O1118 2.545 . S
Gd1069 O1119 2.606 . S
Gd1069 O1121 2.429 . S
Gd1069 O1122 2.545 . S
Gd1069 O1123 2.412 . S
Gd1069 C1136 2.828 . S
C1070 C1073 1.417 . S
C1070 C1075 1.431 . S
C1070 C1076 1.412 . S
C1071 C1074 1.437 . S
C1071 C1075 1.317 . S
C1071 H1090 0.929 . S
C1072 C1073 1.426 . S
C1072 C1074 1.413 . S
C1072 N1082 1.359 . S
C1073 C1070 1.417 . S
C1073 C1072 1.426 . S
C1073 N1078 1.350 . S
C1074 C1071 1.437 . S
C1074 C1072 1.413 . S
C1074 C1084 1.391 . S
C1075 C1070 1.431 . S
C1075 C1071 1.317 . S
C1075 H1086 0.930 . S
C1076 C1070 1.412 . S
C1076 C1077 1.355 . S
C1076 H1088 0.930 . S
C1077 C1076 1.355 . S
C1077 C1079 1.402 . S
C1077 H1089 0.930 . S
N1078 Gd1069 2.661 . S
N1078 C1073 1.350 . S
N1078 C1079 1.307 . S
C1079 C1077 1.402 . S
C1079 N1078 1.307 . S
C1079 H1080 0.930 . S
H1080 C1079 0.930 . S
C1081 N1082 1.334 . S
C1081 C1083 1.394 . S
C1081 H1085 0.930 . S
N1082 Gd1069 2.601 . S
N1082 C1072 1.359 . S
N1082 C1081 1.334 . S
C1083 C1081 1.394 . S
C1083 C1084 1.359 . S
C1083 H1095 0.930 . S
C1084 C1074 1.391 . S
C1084 C1083 1.359 . S
C1084 H1096 0.929 . S
H1085 C1081 0.930 . S
H1086 C1075 0.930 . S
H1087 C1104 0.930 . S
H1088 C1076 0.930 . S
H1089 C1077 0.930 . S
H1090 C1071 0.929 . S
H1091 C1109 0.930 . S
H1092 C1100 0.930 . S
H1093 C1101 0.930 . S
H1094 C1125 0.929 . S
H1095 C1083 0.930 . S
H1096 C1084 0.929 . S
H1097 C1126 0.930 . S
H1098 C1107 0.930 . S
N1099 Gd1068 2.661 . S
N1099 C1103 1.350 . S
N1099 C1104 1.307 . S
C1100 H1092 0.930 . S
C1100 C1101 1.355 . S
C1100 C1102 1.412 . S
C1101 H1093 0.930 . S
C1101 C1100 1.355 . S
C1101 C1104 1.402 . S
C1102 C1100 1.412 . S
C1102 C1103 1.417 . S
C1102 C1126 1.431 . S
C1103 N1099 1.350 . S
C1103 C1102 1.417 . S
C1103 C1106 1.426 . S
C1104 H1087 0.930 . S
C1104 N1099 1.307 . S
C1104 C1101 1.402 . S
N1105 Gd1068 2.601 . S
N1105 C1106 1.359 . S
N1105 C1109 1.334 . S
C1106 C1103 1.426 . S
C1106 N1105 1.359 . S
C1106 C1110 1.413 . S
C1107 H1098 0.930 . S
C1107 C1108 1.359 . S
C1107 C1109 1.394 . S
C1108 C1107 1.359 . S
C1108 C1110 1.391 . S
C1108 H1111 0.929 . S
C1109 H1091 0.930 . S
C1109 N1105 1.334 . S
C1109 C1107 1.394 . S
C1110 C1106 1.413 . S
C1110 C1108 1.391 . S
C1110 C1125 1.437 . S
H1111 C1108 0.929 . S
O1112 Gd1068 2.545 . S
O1112 C1127 1.258 . S
O1113 Gd1068 2.606 . S
O1113 Gd1069 2.362 . S
O1113 C1124 1.284 . S
O1114 Gd1069 2.324 . S
O1114 C1134 1.254 . S
O1115 Gd1068 2.429 . S
O1115 C1134 1.268 . S
O1116 Gd1068 2.545 . S
O1116 C1124 1.250 . S
O1117 Gd1068 2.412 . S
O1117 C1127 1.252 . S
O1118 Gd1069 2.545 . S
O1118 C1136 1.258 . S
O1119 Gd1068 2.362 . S
O1119 Gd1069 2.606 . S
O1119 C1135 1.284 . S
O1120 Gd1068 2.324 . S
O1120 C1143 1.254 . S
O1121 Gd1069 2.429 . S
O1121 C1143 1.268 . S
O1122 Gd1069 2.545 . S
O1122 C1135 1.250 . S
O1123 Gd1069 2.412 . S
O1123 C1136 1.252 . S
C1124 O1113 1.284 . S
C1124 O1116 1.250 . S
C1125 H1094 0.929 . S
C1125 C1110 1.437 . S
C1125 C1126 1.317 . S
C1126 H1097 0.930 . S
C1126 C1102 1.431 . S
C1126 C1125 1.317 . S
C1127 Gd1068 2.828 . S
C1127 O1112 1.258 . S
C1127 O1117 1.252 . S
C1127 C1128 1.497 . S
C1128 C1127 1.497 . S
C1128 C1129 1.395 . S
C1128 C1130 1.380 . S
C1129 C1128 1.395 . S
C1129 C1132 1.398 . S
C1129 H1144 0.930 . S
C1130 C1128 1.380 . S
C1130 C1131 1.391 . S
C1130 H1145 0.930 . S
C1131 C1130 1.391 . S
C1131 C1133 1.387 . S
C1132 C1129 1.398 . S
C1132 C1133 1.380 . S
C1132 H1146 0.930 . S
C1133 C1131 1.387 . S
C1133 C1132 1.380 . S
C1133 H1147 0.930 . S
C1134 O1114 1.254 . S
C1134 O1115 1.268 . S
C1135 O1119 1.284 . S
C1135 O1122 1.250 . S
C1136 Gd1069 2.828 . S
C1136 O1118 1.258 . S
C1136 O1123 1.252 . S
C1136 C1137 1.497 . S
C1137 C1136 1.497 . S
C1137 C1138 1.395 . S
C1137 C1139 1.380 . S
C1138 C1137 1.395 . S
C1138 C1141 1.398 . S
C1138 H1148 0.930 . S
C1139 C1137 1.380 . S
C1139 C1140 1.391 . S
C1139 H1149 0.930 . S
C1140 C1139 1.391 . S
C1140 C1142 1.387 . S
C1141 C1138 1.398 . S
C1141 C1142 1.380 . S
C1141 H1150 0.930 . S
C1142 C1140 1.387 . S
C1142 C1141 1.380 . S
C1142 H1151 0.930 . S
C1143 O1120 1.254 . S
C1143 O1121 1.268 . S
H1144 C1129 0.930 . S
H1145 C1130 0.930 . S
H1146 C1132 0.930 . S
H1147 C1133 0.930 . S
H1148 C1138 0.930 . S
H1149 C1139 0.930 . S
H1150 C1141 0.930 . S
H1151 C1142 0.930 . S
Gd1152 N1183 2.661 . S
Gd1152 N1189 2.601 . S
Gd1152 O1196 2.545 . S
Gd1152 O1197 2.606 . S
Gd1152 O1199 2.429 . S
Gd1152 O1200 2.545 . S
Gd1152 O1201 2.412 . S
Gd1152 O1203 2.362 . S
Gd1152 O1204 2.324 . S
Gd1152 C1211 2.828 . S
Gd1153 N1162 2.661 . S
Gd1153 N1166 2.601 . S
Gd1153 O1197 2.362 . S
Gd1153 O1198 2.324 . S
Gd1153 O1202 2.545 . S
Gd1153 O1203 2.606 . S
Gd1153 O1205 2.429 . S
Gd1153 O1206 2.545 . S
Gd1153 O1207 2.412 . S
Gd1153 C1220 2.828 . S
C1154 C1157 1.417 . S
C1154 C1159 1.431 . S
C1154 C1160 1.412 . S
C1155 C1158 1.437 . S
C1155 C1159 1.317 . S
C1155 H1174 0.929 . S
C1156 C1157 1.426 . S
C1156 C1158 1.413 . S
C1156 N1166 1.359 . S
C1157 C1154 1.417 . S
C1157 C1156 1.426 . S
C1157 N1162 1.350 . S
C1158 C1155 1.437 . S
C1158 C1156 1.413 . S
C1158 C1168 1.391 . S
C1159 C1154 1.431 . S
C1159 C1155 1.317 . S
C1159 H1170 0.930 . S
C1160 C1154 1.412 . S
C1160 C1161 1.355 . S
C1160 H1172 0.930 . S
C1161 C1160 1.355 . S
C1161 C1163 1.402 . S
C1161 H1173 0.930 . S
N1162 Gd1153 2.661 . S
N1162 C1157 1.350 . S
N1162 C1163 1.307 . S
C1163 C1161 1.402 . S
C1163 N1162 1.307 . S
C1163 H1164 0.930 . S
H1164 C1163 0.930 . S
C1165 N1166 1.334 . S
C1165 C1167 1.394 . S
C1165 H1169 0.930 . S
N1166 Gd1153 2.601 . S
N1166 C1156 1.359 . S
N1166 C1165 1.334 . S
C1167 C1165 1.394 . S
C1167 C1168 1.359 . S
C1167 H1179 0.930 . S
C1168 C1158 1.391 . S
C1168 C1167 1.359 . S
C1168 H1180 0.929 . S
H1169 C1165 0.930 . S
H1170 C1159 0.930 . S
H1171 C1188 0.930 . S
H1172 C1160 0.930 . S
H1173 C1161 0.930 . S
H1174 C1155 0.929 . S
H1175 C1193 0.930 . S
H1176 C1184 0.930 . S
H1177 C1185 0.930 . S
H1178 C1209 0.929 . S
H1179 C1167 0.930 . S
H1180 C1168 0.929 . S
H1181 C1210 0.930 . S
H1182 C1191 0.930 . S
N1183 Gd1152 2.661 . S
N1183 C1187 1.350 1_455 S
N1183 C1188 1.307 . S
C1184 H1176 0.930 . S
C1184 C1185 1.355 . S
C1184 C1186 1.412 . S
C1185 H1177 0.930 . S
C1185 C1184 1.355 . S
C1185 C1188 1.402 1_655 S
C1186 C1184 1.412 . S
C1186 C1187 1.417 . S
C1186 C1210 1.431 . S
C1187 N1183 1.350 1_655 S
C1187 C1186 1.417 . S
C1187 C1190 1.426 . S
C1188 H1171 0.930 . S
C1188 N1183 1.307 . S
C1188 C1185 1.402 1_455 S
N1189 Gd1152 2.601 . S
N1189 C1190 1.359 1_455 S
N1189 C1193 1.334 . S
C1190 C1187 1.426 . S
C1190 N1189 1.359 1_655 S
C1190 C1194 1.413 . S
C1191 H1182 0.930 . S
C1191 C1192 1.359 . S
C1191 C1193 1.394 1_655 S
C1192 C1191 1.359 . S
C1192 C1194 1.391 . S
C1192 H1195 0.929 . S
C1193 H1175 0.930 . S
C1193 N1189 1.334 . S
C1193 C1191 1.394 1_455 S
C1194 C1190 1.413 . S
C1194 C1192 1.391 . S
C1194 C1209 1.437 . S
H1195 C1192 0.929 . S
O1196 Gd1152 2.545 . S
O1196 C1211 1.258 . S
O1197 Gd1152 2.606 . S
O1197 Gd1153 2.362 . S
O1197 C1208 1.284 . S
O1198 Gd1153 2.324 . S
O1198 C1218 1.254 . S
O1199 Gd1152 2.429 . S
O1199 C1218 1.268 . S
O1200 Gd1152 2.545 . S
O1200 C1208 1.250 . S
O1201 Gd1152 2.412 . S
O1201 C1211 1.252 . S
O1202 Gd1153 2.545 . S
O1202 C1220 1.258 . S
O1203 Gd1152 2.362 . S
O1203 Gd1153 2.606 . S
O1203 C1219 1.284 . S
O1204 Gd1152 2.324 . S
O1204 C1227 1.254 . S
O1205 Gd1153 2.429 . S
O1205 C1227 1.268 . S
O1206 Gd1153 2.545 . S
O1206 C1219 1.250 . S
O1207 Gd1153 2.412 . S
O1207 C1220 1.252 . S
C1208 O1197 1.284 . S
C1208 O1200 1.250 . S
C1209 H1178 0.929 . S
C1209 C1194 1.437 . S
C1209 C1210 1.317 . S
C1210 H1181 0.930 . S
C1210 C1186 1.431 . S
C1210 C1209 1.317 . S
C1211 Gd1152 2.828 . S
C1211 O1196 1.258 . S
C1211 O1201 1.252 . S
C1211 C1212 1.497 . S
C1212 C1211 1.497 . S
C1212 C1213 1.395 . S
C1212 C1214 1.380 . S
C1213 C1212 1.395 . S
C1213 C1216 1.398 . S
C1213 H1228 0.930 . S
C1214 C1212 1.380 . S
C1214 C1215 1.391 . S
C1214 H1229 0.930 . S
C1215 C1214 1.391 . S
C1215 C1217 1.387 . S
C1216 C1213 1.398 . S
C1216 C1217 1.380 . S
C1216 H1230 0.930 . S
C1217 C1215 1.387 . S
C1217 C1216 1.380 . S
C1217 H1231 0.930 . S
C1218 O1198 1.254 . S
C1218 O1199 1.268 . S
C1219 O1203 1.284 . S
C1219 O1206 1.250 . S
C1220 Gd1153 2.828 . S
C1220 O1202 1.258 . S
C1220 O1207 1.252 . S
C1220 C1221 1.497 . S
C1221 C1220 1.497 . S
C1221 C1222 1.395 . S
C1221 C1223 1.380 . S
C1222 C1221 1.395 . S
C1222 C1225 1.398 . S
C1222 H1232 0.930 . S
C1223 C1221 1.380 . S
C1223 C1224 1.391 1_455 S
C1223 H1233 0.930 . S
C1224 C1223 1.391 1_655 S
C1224 C1226 1.387 . S
C1225 C1222 1.398 . S
C1225 C1226 1.380 1_455 S
C1225 H1234 0.930 . S
C1226 C1224 1.387 . S
C1226 C1225 1.380 1_655 S
C1226 H1235 0.930 . S
C1227 O1204 1.254 . S
C1227 O1205 1.268 . S
H1228 C1213 0.930 . S
H1229 C1214 0.930 . S
H1230 C1216 0.930 . S
H1231 C1217 0.930 . S
H1232 C1222 0.930 . S
H1233 C1223 0.930 . S
H1234 C1225 0.930 . S
H1235 C1226 0.930 . S
Gd1236 N1267 2.661 . S
Gd1236 N1273 2.601 . S
Gd1236 O1280 2.545 . S
Gd1236 O1281 2.606 . S
Gd1236 O1283 2.429 . S
Gd1236 O1284 2.545 . S
Gd1236 O1285 2.412 . S
Gd1236 O1287 2.362 . S
Gd1236 O1288 2.324 . S
Gd1236 C1295 2.828 . S
Gd1237 N1246 2.661 . S
Gd1237 N1250 2.601 . S
Gd1237 O1281 2.362 . S
Gd1237 O1282 2.324 . S
Gd1237 O1286 2.545 . S
Gd1237 O1287 2.606 . S
Gd1237 O1289 2.429 . S
Gd1237 O1290 2.545 . S
Gd1237 O1291 2.412 . S
Gd1237 C1304 2.828 . S
C1238 C1241 1.417 . S
C1238 C1243 1.431 . S
C1238 C1244 1.412 . S
C1239 C1242 1.437 . S
C1239 C1243 1.317 . S
C1239 H1258 0.929 . S
C1240 C1241 1.426 . S
C1240 C1242 1.413 . S
C1240 N1250 1.359 . S
C1241 C1238 1.417 . S
C1241 C1240 1.426 . S
C1241 N1246 1.350 . S
C1242 C1239 1.437 . S
C1242 C1240 1.413 . S
C1242 C1252 1.391 . S
C1243 C1238 1.431 . S
C1243 C1239 1.317 . S
C1243 H1254 0.930 . S
C1244 C1238 1.412 . S
C1244 C1245 1.355 . S
C1244 H1256 0.930 . S
C1245 C1244 1.355 . S
C1245 C1247 1.402 . S
C1245 H1257 0.930 . S
N1246 Gd1237 2.661 . S
N1246 C1241 1.350 . S
N1246 C1247 1.307 . S
C1247 C1245 1.402 . S
C1247 N1246 1.307 . S
C1247 H1248 0.930 . S
H1248 C1247 0.930 . S
C1249 N1250 1.334 . S
C1249 C1251 1.394 . S
C1249 H1253 0.930 . S
N1250 Gd1237 2.601 . S
N1250 C1240 1.359 . S
N1250 C1249 1.334 . S
C1251 C1249 1.394 . S
C1251 C1252 1.359 . S
C1251 H1263 0.930 . S
C1252 C1242 1.391 . S
C1252 C1251 1.359 . S
C1252 H1264 0.929 . S
H1253 C1249 0.930 . S
H1254 C1243 0.930 . S
H1255 C1272 0.930 . S
H1256 C1244 0.930 . S
H1257 C1245 0.930 . S
H1258 C1239 0.929 . S
H1259 C1277 0.930 . S
H1260 C1268 0.930 . S
H1261 C1269 0.930 . S
H1262 C1293 0.929 . S
H1263 C1251 0.930 . S
H1264 C1252 0.929 . S
H1265 C1294 0.930 . S
H1266 C1275 0.930 . S
N1267 Gd1236 2.661 . S
N1267 C1271 1.350 . S
N1267 C1272 1.307 . S
C1268 H1260 0.930 . S
C1268 C1269 1.355 . S
C1268 C1270 1.412 . S
C1269 H1261 0.930 . S
C1269 C1268 1.355 . S
C1269 C1272 1.402 . S
C1270 C1268 1.412 . S
C1270 C1271 1.417 . S
C1270 C1294 1.431 . S
C1271 N1267 1.350 . S
C1271 C1270 1.417 . S
C1271 C1274 1.426 . S
C1272 H1255 0.930 . S
C1272 N1267 1.307 . S
C1272 C1269 1.402 . S
N1273 Gd1236 2.601 . S
N1273 C1274 1.359 . S
N1273 C1277 1.334 . S
C1274 C1271 1.426 . S
C1274 N1273 1.359 . S
C1274 C1278 1.413 . S
C1275 H1266 0.930 . S
C1275 C1276 1.359 . S
C1275 C1277 1.394 . S
C1276 C1275 1.359 . S
C1276 C1278 1.391 . S
C1276 H1279 0.929 . S
C1277 H1259 0.930 . S
C1277 N1273 1.334 . S
C1277 C1275 1.394 . S
C1278 C1274 1.413 . S
C1278 C1276 1.391 . S
C1278 C1293 1.437 . S
H1279 C1276 0.929 . S
O1280 Gd1236 2.545 . S
O1280 C1295 1.258 . S
O1281 Gd1236 2.606 . S
O1281 Gd1237 2.362 . S
O1281 C1292 1.284 . S
O1282 Gd1237 2.324 . S
O1282 C1302 1.254 . S
O1283 Gd1236 2.429 . S
O1283 C1302 1.268 . S
O1284 Gd1236 2.545 . S
O1284 C1292 1.250 . S
O1285 Gd1236 2.412 . S
O1285 C1295 1.252 . S
O1286 Gd1237 2.545 . S
O1286 C1304 1.258 . S
O1287 Gd1236 2.362 . S
O1287 Gd1237 2.606 . S
O1287 C1303 1.284 . S
O1288 Gd1236 2.324 . S
O1288 C1311 1.254 . S
O1289 Gd1237 2.429 . S
O1289 C1311 1.268 . S
O1290 Gd1237 2.545 . S
O1290 C1303 1.250 . S
O1291 Gd1237 2.412 . S
O1291 C1304 1.252 . S
C1292 O1281 1.284 . S
C1292 O1284 1.250 . S
C1293 H1262 0.929 . S
C1293 C1278 1.437 . S
C1293 C1294 1.317 . S
C1294 H1265 0.930 . S
C1294 C1270 1.431 . S
C1294 C1293 1.317 . S
C1295 Gd1236 2.828 . S
C1295 O1280 1.258 . S
C1295 O1285 1.252 . S
C1295 C1296 1.497 . S
C1296 C1295 1.497 . S
C1296 C1297 1.395 . S
C1296 C1298 1.380 . S
C1297 C1296 1.395 . S
C1297 C1300 1.398 . S
C1297 H1312 0.930 . S
C1298 C1296 1.380 . S
C1298 C1299 1.391 . S
C1298 H1313 0.930 . S
C1299 C1298 1.391 . S
C1299 C1301 1.387 . S
C1300 C1297 1.398 . S
C1300 C1301 1.380 . S
C1300 H1314 0.930 . S
C1301 C1299 1.387 . S
C1301 C1300 1.380 . S
C1301 H1315 0.930 . S
C1302 O1282 1.254 . S
C1302 O1283 1.268 . S
C1303 O1287 1.284 . S
C1303 O1290 1.250 . S
C1304 Gd1237 2.828 . S
C1304 O1286 1.258 . S
C1304 O1291 1.252 . S
C1304 C1305 1.497 . S
C1305 C1304 1.497 . S
C1305 C1306 1.395 . S
C1305 C1307 1.380 . S
C1306 C1305 1.395 . S
C1306 C1309 1.398 . S
C1306 H1316 0.930 . S
C1307 C1305 1.380 . S
C1307 C1308 1.391 . S
C1307 H1317 0.930 . S
C1308 C1307 1.391 . S
C1308 C1310 1.387 . S
C1309 C1306 1.398 . S
C1309 C1310 1.380 . S
C1309 H1318 0.930 . S
C1310 C1308 1.387 . S
C1310 C1309 1.380 . S
C1310 H1319 0.930 . S
C1311 O1288 1.254 . S
C1311 O1289 1.268 . S
H1312 C1297 0.930 . S
H1313 C1298 0.930 . S
H1314 C1300 0.930 . S
H1315 C1301 0.930 . S
H1316 C1306 0.930 . S
H1317 C1307 0.930 . S
H1318 C1309 0.930 . S
H1319 C1310 0.930 . S
Gd1320 N1351 2.661 . S
Gd1320 N1357 2.601 . S
Gd1320 O1364 2.545 . S
Gd1320 O1365 2.606 . S
Gd1320 O1367 2.429 . S
Gd1320 O1368 2.545 . S
Gd1320 O1369 2.412 . S
Gd1320 O1371 2.362 . S
Gd1320 O1372 2.324 . S
Gd1320 C1379 2.828 . S
Gd1321 N1330 2.661 . S
Gd1321 N1334 2.601 . S
Gd1321 O1365 2.362 . S
Gd1321 O1366 2.324 . S
Gd1321 O1370 2.545 . S
Gd1321 O1371 2.606 . S
Gd1321 O1373 2.429 . S
Gd1321 O1374 2.545 . S
Gd1321 O1375 2.412 . S
Gd1321 C1388 2.828 . S
C1322 C1325 1.417 . S
C1322 C1327 1.431 . S
C1322 C1328 1.412 . S
C1323 C1326 1.437 . S
C1323 C1327 1.317 . S
C1323 H1342 0.929 . S
C1324 C1325 1.426 . S
C1324 C1326 1.413 . S
C1324 N1334 1.359 . S
C1325 C1322 1.417 . S
C1325 C1324 1.426 . S
C1325 N1330 1.350 . S
C1326 C1323 1.437 . S
C1326 C1324 1.413 . S
C1326 C1336 1.391 . S
C1327 C1322 1.431 . S
C1327 C1323 1.317 . S
C1327 H1338 0.930 . S
C1328 C1322 1.412 . S
C1328 C1329 1.355 . S
C1328 H1340 0.930 . S
C1329 C1328 1.355 . S
C1329 C1331 1.402 . S
C1329 H1341 0.930 . S
N1330 Gd1321 2.661 . S
N1330 C1325 1.350 . S
N1330 C1331 1.307 . S
C1331 C1329 1.402 . S
C1331 N1330 1.307 . S
C1331 H1332 0.930 . S
H1332 C1331 0.930 . S
C1333 N1334 1.334 . S
C1333 C1335 1.394 . S
C1333 H1337 0.930 . S
N1334 Gd1321 2.601 . S
N1334 C1324 1.359 . S
N1334 C1333 1.334 . S
C1335 C1333 1.394 . S
C1335 C1336 1.359 . S
C1335 H1347 0.930 . S
C1336 C1326 1.391 . S
C1336 C1335 1.359 . S
C1336 H1348 0.929 . S
H1337 C1333 0.930 . S
H1338 C1327 0.930 . S
H1339 C1356 0.930 . S
H1340 C1328 0.930 . S
H1341 C1329 0.930 . S
H1342 C1323 0.929 . S
H1343 C1361 0.930 . S
H1344 C1352 0.930 . S
H1345 C1353 0.930 . S
H1346 C1377 0.929 . S
H1347 C1335 0.930 . S
H1348 C1336 0.929 . S
H1349 C1378 0.930 . S
H1350 C1359 0.930 . S
N1351 Gd1320 2.661 . S
N1351 C1355 1.350 . S
N1351 C1356 1.307 . S
C1352 H1344 0.930 . S
C1352 C1353 1.355 . S
C1352 C1354 1.412 . S
C1353 H1345 0.930 . S
C1353 C1352 1.355 . S
C1353 C1356 1.402 . S
C1354 C1352 1.412 . S
C1354 C1355 1.417 . S
C1354 C1378 1.431 . S
C1355 N1351 1.350 . S
C1355 C1354 1.417 . S
C1355 C1358 1.426 . S
C1356 H1339 0.930 . S
C1356 N1351 1.307 . S
C1356 C1353 1.402 . S
N1357 Gd1320 2.601 . S
N1357 C1358 1.359 . S
N1357 C1361 1.334 . S
C1358 C1355 1.426 . S
C1358 N1357 1.359 . S
C1358 C1362 1.413 . S
C1359 H1350 0.930 . S
C1359 C1360 1.359 . S
C1359 C1361 1.394 . S
C1360 C1359 1.359 . S
C1360 C1362 1.391 . S
C1360 H1363 0.929 . S
C1361 H1343 0.930 . S
C1361 N1357 1.334 . S
C1361 C1359 1.394 . S
C1362 C1358 1.413 . S
C1362 C1360 1.391 . S
C1362 C1377 1.437 . S
H1363 C1360 0.929 . S
O1364 Gd1320 2.545 . S
O1364 C1379 1.258 . S
O1365 Gd1320 2.606 . S
O1365 Gd1321 2.362 . S
O1365 C1376 1.284 . S
O1366 Gd1321 2.324 . S
O1366 C1386 1.254 . S
O1367 Gd1320 2.429 . S
O1367 C1386 1.268 . S
O1368 Gd1320 2.545 . S
O1368 C1376 1.250 . S
O1369 Gd1320 2.412 . S
O1369 C1379 1.252 . S
O1370 Gd1321 2.545 . S
O1370 C1388 1.258 . S
O1371 Gd1320 2.362 . S
O1371 Gd1321 2.606 . S
O1371 C1387 1.284 . S
O1372 Gd1320 2.324 . S
O1372 C1395 1.254 . S
O1373 Gd1321 2.429 . S
O1373 C1395 1.268 . S
O1374 Gd1321 2.545 . S
O1374 C1387 1.250 . S
O1375 Gd1321 2.412 . S
O1375 C1388 1.252 . S
C1376 O1365 1.284 . S
C1376 O1368 1.250 . S
C1377 H1346 0.929 . S
C1377 C1362 1.437 . S
C1377 C1378 1.317 . S
C1378 H1349 0.930 . S
C1378 C1354 1.431 . S
C1378 C1377 1.317 . S
C1379 Gd1320 2.828 . S
C1379 O1364 1.258 . S
C1379 O1369 1.252 . S
C1379 C1380 1.497 . S
C1380 C1379 1.497 . S
C1380 C1381 1.395 . S
C1380 C1382 1.380 . S
C1381 C1380 1.395 . S
C1381 C1384 1.398 . S
C1381 H1396 0.930 . S
C1382 C1380 1.380 . S
C1382 C1383 1.391 . S
C1382 H1397 0.930 . S
C1383 C1382 1.391 . S
C1383 C1385 1.387 . S
C1384 C1381 1.398 . S
C1384 C1385 1.380 . S
C1384 H1398 0.930 . S
C1385 C1383 1.387 . S
C1385 C1384 1.380 . S
C1385 H1399 0.930 . S
C1386 O1366 1.254 . S
C1386 O1367 1.268 . S
C1387 O1371 1.284 . S
C1387 O1374 1.250 . S
C1388 Gd1321 2.828 . S
C1388 O1370 1.258 . S
C1388 O1375 1.252 . S
C1388 C1389 1.497 . S
C1389 C1388 1.497 . S
C1389 C1390 1.395 . S
C1389 C1391 1.380 . S
C1390 C1389 1.395 . S
C1390 C1393 1.398 . S
C1390 H1400 0.930 . S
C1391 C1389 1.380 . S
C1391 C1392 1.391 . S
C1391 H1401 0.930 . S
C1392 C1391 1.391 . S
C1392 C1394 1.387 . S
C1393 C1390 1.398 . S
C1393 C1394 1.380 . S
C1393 H1402 0.930 . S
C1394 C1392 1.387 . S
C1394 C1393 1.380 . S
C1394 H1403 0.930 . S
C1395 O1372 1.254 . S
C1395 O1373 1.268 . S
H1396 C1381 0.930 . S
H1397 C1382 0.930 . S
H1398 C1384 0.930 . S
H1399 C1385 0.930 . S
H1400 C1390 0.930 . S
H1401 C1391 0.930 . S
H1402 C1393 0.930 . S
H1403 C1394 0.930 . S
Gd1404 N1435 2.661 . S
Gd1404 N1441 2.601 . S
Gd1404 O1448 2.545 . S
Gd1404 O1449 2.606 . S
Gd1404 O1451 2.429 . S
Gd1404 O1452 2.545 . S
Gd1404 O1453 2.412 . S
Gd1404 O1455 2.362 . S
Gd1404 O1456 2.324 . S
Gd1404 C1463 2.828 . S
Gd1405 N1414 2.661 . S
Gd1405 N1418 2.601 . S
Gd1405 O1449 2.362 . S
Gd1405 O1450 2.324 . S
Gd1405 O1454 2.545 . S
Gd1405 O1455 2.606 . S
Gd1405 O1457 2.429 . S
Gd1405 O1458 2.545 . S
Gd1405 O1459 2.412 . S
Gd1405 C1472 2.828 . S
C1406 C1409 1.417 . S
C1406 C1411 1.431 . S
C1406 C1412 1.412 . S
C1407 C1410 1.437 . S
C1407 C1411 1.317 . S
C1407 H1426 0.929 . S
C1408 C1409 1.426 . S
C1408 C1410 1.413 . S
C1408 N1418 1.359 . S
C1409 C1406 1.417 . S
C1409 C1408 1.426 . S
C1409 N1414 1.350 . S
C1410 C1407 1.437 . S
C1410 C1408 1.413 . S
C1410 C1420 1.391 . S
C1411 C1406 1.431 . S
C1411 C1407 1.317 . S
C1411 H1422 0.930 . S
C1412 C1406 1.412 . S
C1412 C1413 1.355 . S
C1412 H1424 0.930 . S
C1413 C1412 1.355 . S
C1413 C1415 1.402 . S
C1413 H1425 0.930 . S
N1414 Gd1405 2.661 . S
N1414 C1409 1.350 . S
N1414 C1415 1.307 . S
C1415 C1413 1.402 . S
C1415 N1414 1.307 . S
C1415 H1416 0.930 . S
H1416 C1415 0.930 . S
C1417 N1418 1.334 . S
C1417 C1419 1.394 . S
C1417 H1421 0.930 . S
N1418 Gd1405 2.601 . S
N1418 C1408 1.359 . S
N1418 C1417 1.334 . S
C1419 C1417 1.394 . S
C1419 C1420 1.359 . S
C1419 H1431 0.930 . S
C1420 C1410 1.391 . S
C1420 C1419 1.359 . S
C1420 H1432 0.929 . S
H1421 C1417 0.930 . S
H1422 C1411 0.930 . S
H1423 C1440 0.930 . S
H1424 C1412 0.930 . S
H1425 C1413 0.930 . S
H1426 C1407 0.929 . S
H1427 C1445 0.930 . S
H1428 C1436 0.930 . S
H1429 C1437 0.930 . S
H1430 C1461 0.929 . S
H1431 C1419 0.930 . S
H1432 C1420 0.929 . S
H1433 C1462 0.930 . S
H1434 C1443 0.930 . S
N1435 Gd1404 2.661 . S
N1435 C1439 1.350 . S
N1435 C1440 1.307 . S
C1436 H1428 0.930 . S
C1436 C1437 1.355 . S
C1436 C1438 1.412 . S
C1437 H1429 0.930 . S
C1437 C1436 1.355 . S
C1437 C1440 1.402 . S
C1438 C1436 1.412 . S
C1438 C1439 1.417 . S
C1438 C1462 1.431 . S
C1439 N1435 1.350 . S
C1439 C1438 1.417 . S
C1439 C1442 1.426 . S
C1440 H1423 0.930 . S
C1440 N1435 1.307 . S
C1440 C1437 1.402 . S
N1441 Gd1404 2.601 . S
N1441 C1442 1.359 . S
N1441 C1445 1.334 . S
C1442 C1439 1.426 . S
C1442 N1441 1.359 . S
C1442 C1446 1.413 . S
C1443 H1434 0.930 . S
C1443 C1444 1.359 . S
C1443 C1445 1.394 . S
C1444 C1443 1.359 . S
C1444 C1446 1.391 . S
C1444 H1447 0.929 . S
C1445 H1427 0.930 . S
C1445 N1441 1.334 . S
C1445 C1443 1.394 . S
C1446 C1442 1.413 . S
C1446 C1444 1.391 . S
C1446 C1461 1.437 . S
H1447 C1444 0.929 . S
O1448 Gd1404 2.545 . S
O1448 C1463 1.258 . S
O1449 Gd1404 2.606 . S
O1449 Gd1405 2.362 . S
O1449 C1460 1.284 . S
O1450 Gd1405 2.324 . S
O1450 C1470 1.254 . S
O1451 Gd1404 2.429 . S
O1451 C1470 1.268 . S
O1452 Gd1404 2.545 . S
O1452 C1460 1.250 . S
O1453 Gd1404 2.412 . S
O1453 C1463 1.252 . S
O1454 Gd1405 2.545 . S
O1454 C1472 1.258 . S
O1455 Gd1404 2.362 . S
O1455 Gd1405 2.606 . S
O1455 C1471 1.284 . S
O1456 Gd1404 2.324 . S
O1456 C1479 1.254 . S
O1457 Gd1405 2.429 . S
O1457 C1479 1.268 . S
O1458 Gd1405 2.545 . S
O1458 C1471 1.250 . S
O1459 Gd1405 2.412 . S
O1459 C1472 1.252 . S
C1460 O1449 1.284 . S
C1460 O1452 1.250 . S
C1461 H1430 0.929 . S
C1461 C1446 1.437 . S
C1461 C1462 1.317 . S
C1462 H1433 0.930 . S
C1462 C1438 1.431 . S
C1462 C1461 1.317 . S
C1463 Gd1404 2.828 . S
C1463 O1448 1.258 . S
C1463 O1453 1.252 . S
C1463 C1464 1.497 . S
C1464 C1463 1.497 . S
C1464 C1465 1.395 . S
C1464 C1466 1.380 . S
C1465 C1464 1.395 . S
C1465 C1468 1.398 . S
C1465 H1480 0.930 . S
C1466 C1464 1.380 . S
C1466 C1467 1.391 . S
C1466 H1481 0.930 . S
C1467 C1466 1.391 . S
C1467 C1469 1.387 . S
C1468 C1465 1.398 . S
C1468 C1469 1.380 . S
C1468 H1482 0.930 . S
C1469 C1467 1.387 . S
C1469 C1468 1.380 . S
C1469 H1483 0.930 . S
C1470 O1450 1.254 . S
C1470 O1451 1.268 . S
C1471 O1455 1.284 . S
C1471 O1458 1.250 . S
C1472 Gd1405 2.828 . S
C1472 O1454 1.258 . S
C1472 O1459 1.252 . S
C1472 C1473 1.497 . S
C1473 C1472 1.497 . S
C1473 C1474 1.395 . S
C1473 C1475 1.380 . S
C1474 C1473 1.395 . S
C1474 C1477 1.398 . S
C1474 H1484 0.930 . S
C1475 C1473 1.380 . S
C1475 C1476 1.391 . S
C1475 H1485 0.930 . S
C1476 C1475 1.391 . S
C1476 C1478 1.387 . S
C1477 C1474 1.398 . S
C1477 C1478 1.380 . S
C1477 H1486 0.930 . S
C1478 C1476 1.387 . S
C1478 C1477 1.380 . S
C1478 H1487 0.930 . S
C1479 O1456 1.254 . S
C1479 O1457 1.268 . S
H1480 C1465 0.930 . S
H1481 C1466 0.930 . S
H1482 C1468 0.930 . S
H1483 C1469 0.930 . S
H1484 C1474 0.930 . S
H1485 C1475 0.930 . S
H1486 C1477 0.930 . S
H1487 C1478 0.930 . S
Gd1488 N1519 2.661 . S
Gd1488 N1525 2.601 . S
Gd1488 O1532 2.545 . S
Gd1488 O1533 2.606 . S
Gd1488 O1535 2.429 . S
Gd1488 O1536 2.545 . S
Gd1488 O1537 2.412 . S
Gd1488 O1539 2.362 . S
Gd1488 O1540 2.324 . S
Gd1488 C1547 2.828 . S
Gd1489 N1498 2.661 . S
Gd1489 N1502 2.601 . S
Gd1489 O1533 2.362 . S
Gd1489 O1534 2.324 . S
Gd1489 O1538 2.545 . S
Gd1489 O1539 2.606 . S
Gd1489 O1541 2.429 . S
Gd1489 O1542 2.545 . S
Gd1489 O1543 2.412 . S
Gd1489 C1556 2.828 . S
C1490 C1493 1.417 . S
C1490 C1495 1.431 . S
C1490 C1496 1.412 . S
C1491 C1494 1.437 . S
C1491 C1495 1.317 . S
C1491 H1510 0.929 . S
C1492 C1493 1.426 . S
C1492 C1494 1.413 . S
C1492 N1502 1.359 . S
C1493 C1490 1.417 . S
C1493 C1492 1.426 . S
C1493 N1498 1.350 . S
C1494 C1491 1.437 . S
C1494 C1492 1.413 . S
C1494 C1504 1.391 . S
C1495 C1490 1.431 . S
C1495 C1491 1.317 . S
C1495 H1506 0.930 . S
C1496 C1490 1.412 . S
C1496 C1497 1.355 . S
C1496 H1508 0.930 . S
C1497 C1496 1.355 . S
C1497 C1499 1.402 . S
C1497 H1509 0.930 . S
N1498 Gd1489 2.661 . S
N1498 C1493 1.350 . S
N1498 C1499 1.307 . S
C1499 C1497 1.402 . S
C1499 N1498 1.307 . S
C1499 H1500 0.930 . S
H1500 C1499 0.930 . S
C1501 N1502 1.334 . S
C1501 C1503 1.394 . S
C1501 H1505 0.930 . S
N1502 Gd1489 2.601 . S
N1502 C1492 1.359 . S
N1502 C1501 1.334 . S
C1503 C1501 1.394 . S
C1503 C1504 1.359 . S
C1503 H1515 0.930 . S
C1504 C1494 1.391 . S
C1504 C1503 1.359 . S
C1504 H1516 0.929 . S
H1505 C1501 0.930 . S
H1506 C1495 0.930 . S
H1507 C1524 0.930 . S
H1508 C1496 0.930 . S
H1509 C1497 0.930 . S
H1510 C1491 0.929 . S
H1511 C1529 0.930 . S
H1512 C1520 0.930 . S
H1513 C1521 0.930 . S
H1514 C1545 0.929 . S
H1515 C1503 0.930 . S
H1516 C1504 0.929 . S
H1517 C1546 0.930 . S
H1518 C1527 0.930 . S
N1519 Gd1488 2.661 . S
N1519 C1523 1.350 . S
N1519 C1524 1.307 . S
C1520 H1512 0.930 . S
C1520 C1521 1.355 . S
C1520 C1522 1.412 . S
C1521 H1513 0.930 . S
C1521 C1520 1.355 . S
C1521 C1524 1.402 . S
C1522 C1520 1.412 . S
C1522 C1523 1.417 . S
C1522 C1546 1.431 . S
C1523 N1519 1.350 . S
C1523 C1522 1.417 . S
C1523 C1526 1.426 . S
C1524 H1507 0.930 . S
C1524 N1519 1.307 . S
C1524 C1521 1.402 . S
N1525 Gd1488 2.601 . S
N1525 C1526 1.359 . S
N1525 C1529 1.334 . S
C1526 C1523 1.426 . S
C1526 N1525 1.359 . S
C1526 C1530 1.413 . S
C1527 H1518 0.930 . S
C1527 C1528 1.359 . S
C1527 C1529 1.394 . S
C1528 C1527 1.359 . S
C1528 C1530 1.391 . S
C1528 H1531 0.929 . S
C1529 H1511 0.930 . S
C1529 N1525 1.334 . S
C1529 C1527 1.394 . S
C1530 C1526 1.413 . S
C1530 C1528 1.391 . S
C1530 C1545 1.437 . S
H1531 C1528 0.929 . S
O1532 Gd1488 2.545 . S
O1532 C1547 1.258 . S
O1533 Gd1488 2.606 . S
O1533 Gd1489 2.362 . S
O1533 C1544 1.284 . S
O1534 Gd1489 2.324 . S
O1534 C1554 1.254 . S
O1535 Gd1488 2.429 . S
O1535 C1554 1.268 . S
O1536 Gd1488 2.545 . S
O1536 C1544 1.250 . S
O1537 Gd1488 2.412 . S
O1537 C1547 1.252 . S
O1538 Gd1489 2.545 . S
O1538 C1556 1.258 . S
O1539 Gd1488 2.362 . S
O1539 Gd1489 2.606 . S
O1539 C1555 1.284 . S
O1540 Gd1488 2.324 . S
O1540 C1563 1.254 . S
O1541 Gd1489 2.429 . S
O1541 C1563 1.268 . S
O1542 Gd1489 2.545 . S
O1542 C1555 1.250 . S
O1543 Gd1489 2.412 . S
O1543 C1556 1.252 . S
C1544 O1533 1.284 . S
C1544 O1536 1.250 . S
C1545 H1514 0.929 . S
C1545 C1530 1.437 . S
C1545 C1546 1.317 . S
C1546 H1517 0.930 . S
C1546 C1522 1.431 . S
C1546 C1545 1.317 . S
C1547 Gd1488 2.828 . S
C1547 O1532 1.258 . S
C1547 O1537 1.252 . S
C1547 C1548 1.497 . S
C1548 C1547 1.497 . S
C1548 C1549 1.395 . S
C1548 C1550 1.380 . S
C1549 C1548 1.395 . S
C1549 C1552 1.398 . S
C1549 H1564 0.930 . S
C1550 C1548 1.380 . S
C1550 C1551 1.391 . S
C1550 H1565 0.930 . S
C1551 C1550 1.391 . S
C1551 C1553 1.387 . S
C1552 C1549 1.398 . S
C1552 C1553 1.380 . S
C1552 H1566 0.930 . S
C1553 C1551 1.387 . S
C1553 C1552 1.380 . S
C1553 H1567 0.930 . S
C1554 O1534 1.254 . S
C1554 O1535 1.268 . S
C1555 O1539 1.284 . S
C1555 O1542 1.250 . S
C1556 Gd1489 2.828 . S
C1556 O1538 1.258 . S
C1556 O1543 1.252 . S
C1556 C1557 1.497 . S
C1557 C1556 1.497 . S
C1557 C1558 1.395 . S
C1557 C1559 1.380 . S
C1558 C1557 1.395 . S
C1558 C1561 1.398 . S
C1558 H1568 0.930 . S
C1559 C1557 1.380 . S
C1559 C1560 1.391 . S
C1559 H1569 0.930 . S
C1560 C1559 1.391 . S
C1560 C1562 1.387 . S
C1561 C1558 1.398 . S
C1561 C1562 1.380 . S
C1561 H1570 0.930 . S
C1562 C1560 1.387 . S
C1562 C1561 1.380 . S
C1562 H1571 0.930 . S
C1563 O1540 1.254 . S
C1563 O1541 1.268 . S
H1564 C1549 0.930 . S
H1565 C1550 0.930 . S
H1566 C1552 0.930 . S
H1567 C1553 0.930 . S
H1568 C1558 0.930 . S
H1569 C1559 0.930 . S
H1570 C1561 0.930 . S
H1571 C1562 0.930 . S
Gd1572 N1603 2.661 1_455 S
Gd1572 N1609 2.604 . S
Gd1572 O1616 2.545 1_455 S
Gd1572 O1617 2.606 . S
Gd1572 O1619 2.429 . S
Gd1572 O1620 2.545 . S
Gd1572 O1621 2.412 1_455 S
Gd1572 O1623 2.362 . S
Gd1572 O1624 2.324 . S
Gd1572 C1631 2.828 1_455 S
Gd1573 N1582 2.661 . S
Gd1573 N1586 2.601 1_554 S
Gd1573 O1617 2.362 . S
Gd1573 O1618 2.324 . S
Gd1573 O1622 2.545 1_554 S
Gd1573 O1623 2.606 . S
Gd1573 O1625 2.429 1_554 S
Gd1573 O1626 2.545 . S
Gd1573 O1627 2.412 . S
Gd1573 C1640 2.828 . S
C1574 C1577 1.417 . S
C1574 C1579 1.431 . S
C1574 C1580 1.412 . S
C1575 C1578 1.437 . S
C1575 C1579 1.317 1_556 S
C1575 H1594 0.929 . S
C1576 C1577 1.426 1_556 S
C1576 C1578 1.413 . S
C1576 N1586 1.359 . S
C1577 C1574 1.417 . S
C1577 C1576 1.426 1_554 S
C1577 N1582 1.350 . S
C1578 C1575 1.437 . S
C1578 C1576 1.413 . S
C1578 C1588 1.391 . S
C1579 C1574 1.431 . S
C1579 C1575 1.317 1_554 S
C1579 H1590 0.930 . S
C1580 C1574 1.412 . S
C1580 C1581 1.355 . S
C1580 H1592 0.930 . S
C1581 C1580 1.355 . S
C1581 C1583 1.402 . S
C1581 H1593 0.930 . S
N1582 Gd1573 2.661 . S
N1582 C1577 1.350 . S
N1582 C1583 1.307 . S
C1583 C1581 1.402 . S
C1583 N1582 1.307 . S
C1583 H1584 0.930 . S
H1584 C1583 0.930 . S
C1585 N1586 1.334 . S
C1585 C1587 1.394 . S
C1585 H1589 0.930 . S
N1586 Gd1573 2.601 1_556 S
N1586 C1576 1.359 . S
N1586 C1585 1.334 . S
C1587 C1585 1.394 . S
C1587 C1588 1.359 . S
C1587 H1599 0.930 . S
C1588 C1578 1.391 . S
C1588 C1587 1.359 . S
C1588 H1600 0.929 . S
H1589 C1585 0.930 . S
H1590 C1579 0.930 . S
H1591 C1608 0.930 1_556 S
H1592 C1580 0.930 . S
H1593 C1581 0.930 . S
H1594 C1575 0.929 . S
H1595 C1613 0.930 . S
H1596 C1604 0.929 . S
H1597 C1605 0.930 . S
H1598 C1629 0.929 . S
H1599 C1587 0.930 . S
H1600 C1588 0.929 . S
H1601 C1630 0.930 . S
H1602 C1611 0.930 . S
N1603 Gd1572 2.661 1_655 S
N1603 C1607 1.350 . S
N1603 C1608 1.307 . S
C1604 H1596 0.929 . S
C1604 C1605 1.355 1_554 S
C1604 C1606 1.412 . S
C1605 H1597 0.930 . S
C1605 C1604 1.355 1_556 S
C1605 C1608 1.402 1_556 S
C1606 C1604 1.412 . S
C1606 C1607 1.417 . S
C1606 C1630 1.431 . S
C1607 N1603 1.350 . S
C1607 C1606 1.417 . S
C1607 C1610 1.426 . S
C1608 H1591 0.930 1_554 S
C1608 N1603 1.307 . S
C1608 C1605 1.402 1_554 S
N1609 Gd1572 2.604 . S
N1609 C1610 1.355 1_455 S
N1609 C1613 1.335 . S
C1610 C1607 1.426 . S
C1610 N1609 1.355 1_655 S
C1610 C1614 1.413 . S
C1611 H1602 0.930 . S
C1611 C1612 1.359 . S
C1611 C1613 1.394 1_655 S
C1612 C1611 1.359 . S
C1612 C1614 1.391 . S
C1612 H1615 0.929 . S
C1613 H1595 0.930 . S
C1613 N1609 1.335 . S
C1613 C1611 1.394 1_455 S
C1614 C1610 1.413 . S
C1614 C1612 1.391 . S
C1614 C1629 1.437 . S
H1615 C1612 0.929 . S
O1616 Gd1572 2.545 1_655 S
O1616 C1631 1.258 . S
O1617 Gd1572 2.606 . S
O1617 Gd1573 2.362 . S
O1617 C1628 1.284 . S
O1618 Gd1573 2.324 . S
O1618 C1638 1.254 . S
O1619 Gd1572 2.429 . S
O1619 C1638 1.268 . S
O1620 Gd1572 2.545 . S
O1620 C1628 1.250 . S
O1621 Gd1572 2.412 1_655 S
O1621 C1631 1.252 . S
O1622 Gd1573 2.545 1_556 S
O1622 C1640 1.258 1_556 S
O1623 Gd1572 2.362 . S
O1623 Gd1573 2.606 . S
O1623 C1639 1.284 . S
O1624 Gd1572 2.324 . S
O1624 C1647 1.254 1_554 S
O1625 Gd1573 2.429 1_556 S
O1625 C1647 1.268 . S
O1626 Gd1573 2.545 . S
O1626 C1639 1.250 . S
O1627 Gd1573 2.412 . S
O1627 C1640 1.252 . S
C1628 O1617 1.284 . S
C1628 O1620 1.250 . S
C1629 H1598 0.929 . S
C1629 C1614 1.437 . S
C1629 C1630 1.317 . S
C1630 H1601 0.930 . S
C1630 C1606 1.431 . S
C1630 C1629 1.317 . S
C1631 Gd1572 2.828 1_655 S
C1631 O1616 1.258 . S
C1631 O1621 1.252 . S
C1631 C1632 1.497 . S
C1632 C1631 1.497 . S
C1632 C1633 1.395 . S
C1632 C1634 1.380 . S
C1633 C1632 1.395 . S
C1633 C1636 1.398 . S
C1633 H1648 0.930 . S
C1634 C1632 1.380 . S
C1634 C1635 1.391 . S
C1634 H1649 0.930 . S
C1635 C1634 1.391 . S
C1635 C1637 1.387 . S
C1636 C1633 1.398 . S
C1636 C1637 1.380 . S
C1636 H1650 0.930 . S
C1637 C1635 1.387 . S
C1637 C1636 1.380 . S
C1637 H1651 0.930 . S
C1638 O1618 1.254 . S
C1638 O1619 1.268 . S
C1639 O1623 1.284 . S
C1639 O1626 1.250 . S
C1640 Gd1573 2.828 . S
C1640 O1622 1.258 1_554 S
C1640 O1627 1.252 . S
C1640 C1641 1.497 1_554 S
C1641 C1640 1.497 1_556 S
C1641 C1642 1.395 . S
C1641 C1643 1.380 1_556 S
C1642 C1641 1.395 . S
C1642 C1645 1.398 . S
C1642 H1652 0.930 . S
C1643 C1641 1.380 1_554 S
C1643 C1644 1.391 . S
C1643 H1653 0.930 . S
C1644 C1643 1.391 . S
C1644 C1646 1.387 1_554 S
C1645 C1642 1.398 . S
C1645 C1646 1.380 . S
C1645 H1654 0.930 . S
C1646 C1644 1.387 1_556 S
C1646 C1645 1.380 . S
C1646 H1655 0.930 . S
C1647 O1624 1.254 1_556 S
C1647 O1625 1.268 . S
H1648 C1633 0.930 . S
H1649 C1634 0.930 . S
H1650 C1636 0.930 . S
H1651 C1637 0.930 . S
H1652 C1642 0.930 . S
H1653 C1643 0.930 . S
H1654 C1645 0.930 . S
H1655 C1646 0.930 . S
H1656 C1668 0.930 . S
H1657 C1670 0.935 . S
H1658 C1671 0.930 . S
H1659 C1675 0.959 . S
H1660 C1675 0.959 . S
H1661 C1675 0.961 . S
H1662 C1676 0.960 . S
H1663 C1676 0.961 . S
H1664 C1676 0.959 . S
H1665 C1679 0.929 . S
H1666 C1680 0.931 . S
H1667 C1682 0.930 1_556 S
C1668 H1656 0.930 . S
C1668 C1669 1.399 . S
C1668 C1673 1.399 . S
C1669 C1668 1.399 . S
C1669 C1670 1.376 . S
C1670 H1657 0.935 . S
C1670 C1669 1.376 . S
C1670 C1671 1.388 1_556 S
C1671 H1658 0.930 . S
C1671 C1670 1.388 1_554 S
C1671 C1672 1.388 1_554 S
C1672 C1671 1.388 1_556 S
C1672 C1673 1.405 . S
C1672 C1678 1.458 1_556 S
C1673 C1668 1.399 . S
C1673 C1672 1.405 . S
C1673 C1674 1.516 . S
C1674 C1673 1.516 . S
C1674 C1675 1.502 . S
C1674 C1676 1.561 . S
C1674 C1677 1.526 . S
C1675 H1659 0.959 . S
C1675 H1660 0.959 . S
C1675 H1661 0.961 . S
C1675 C1674 1.502 . S
C1676 H1662 0.960 . S
C1676 H1663 0.961 . S
C1676 H1664 0.959 . S
C1676 C1674 1.561 . S
C1677 C1674 1.526 . S
C1677 C1678 1.396 1_556 S
C1677 C1682 1.390 1_556 S
C1678 C1672 1.458 1_554 S
C1678 C1677 1.396 1_554 S
C1678 C1679 1.399 . S
C1679 H1665 0.929 . S
C1679 C1678 1.399 . S
C1679 C1680 1.385 . S
C1680 H1666 0.931 . S
C1680 C1679 1.385 . S
C1680 C1681 1.389 . S
C1681 C1680 1.389 . S
C1681 C1682 1.387 . S
C1682 H1667 0.930 1_554 S
C1682 C1677 1.390 1_554 S
C1682 C1681 1.387 . S
H1683 C1695 0.930 . S
H1684 C1697 0.930 . S
H1685 C1698 0.930 . S
H1686 C1702 0.959 . S
H1687 C1702 0.959 . S
H1688 C1702 0.961 . S
H1689 C1703 0.960 . S
H1690 C1703 0.961 . S
H1691 C1703 0.959 . S
H1692 C1706 0.929 . S
H1693 C1707 0.931 . S
H1694 C1709 0.930 . S
C1695 H1683 0.930 . S
C1695 C1696 1.399 . S
C1695 C1700 1.399 . S
C1696 C1695 1.399 . S
C1696 C1697 1.376 . S
C1697 H1684 0.930 . S
C1697 C1696 1.376 . S
C1697 C1698 1.388 . S
C1698 H1685 0.930 . S
C1698 C1697 1.388 . S
C1698 C1699 1.390 . S
C1699 C1698 1.390 . S
C1699 C1700 1.394 . S
C1699 C1705 1.465 . S
C1700 C1695 1.399 . S
C1700 C1699 1.394 . S
C1700 C1701 1.516 . S
C1701 C1700 1.516 . S
C1701 C1702 1.502 . S
C1701 C1703 1.561 . S
C1701 C1704 1.526 . S
C1702 H1686 0.959 . S
C1702 H1687 0.959 . S
C1702 H1688 0.961 . S
C1702 C1701 1.502 . S
C1703 H1689 0.960 . S
C1703 H1690 0.961 . S
C1703 H1691 0.959 . S
C1703 C1701 1.561 . S
C1704 C1701 1.526 . S
C1704 C1705 1.396 . S
C1704 C1709 1.390 . S
C1705 C1699 1.465 . S
C1705 C1704 1.396 . S
C1705 C1706 1.399 . S
C1706 H1692 0.929 . S
C1706 C1705 1.399 . S
C1706 C1707 1.385 . S
C1707 H1693 0.931 . S
C1707 C1706 1.385 . S
C1707 C1708 1.389 . S
C1708 C1707 1.389 . S
C1708 C1709 1.387 . S
C1709 H1694 0.930 . S
C1709 C1704 1.390 . S
C1709 C1708 1.387 . S
H1710 C1722 0.930 . S
H1711 C1724 0.930 . S
H1712 C1725 0.930 . S
H1713 C1729 0.959 . S
H1714 C1729 0.959 . S
H1715 C1729 0.961 . S
H1716 C1730 0.960 . S
H1717 C1730 0.961 . S
H1718 C1730 0.959 . S
H1719 C1733 0.929 . S
H1720 C1734 0.931 . S
H1721 C1736 0.930 . S
C1722 H1710 0.930 . S
C1722 C1723 1.399 . S
C1722 C1727 1.399 . S
C1723 C1722 1.399 . S
C1723 C1724 1.376 . S
C1724 H1711 0.930 . S
C1724 C1723 1.376 . S
C1724 C1725 1.388 . S
C1725 H1712 0.930 . S
C1725 C1724 1.388 . S
C1725 C1726 1.390 . S
C1726 C1725 1.390 . S
C1726 C1727 1.394 . S
C1726 C1732 1.465 . S
C1727 C1722 1.399 . S
C1727 C1726 1.394 . S
C1727 C1728 1.516 . S
C1728 C1727 1.516 . S
C1728 C1729 1.502 . S
C1728 C1730 1.561 . S
C1728 C1731 1.526 . S
C1729 H1713 0.959 . S
C1729 H1714 0.959 . S
C1729 H1715 0.961 . S
C1729 C1728 1.502 . S
C1730 H1716 0.960 . S
C1730 H1717 0.961 . S
C1730 H1718 0.959 . S
C1730 C1728 1.561 . S
C1731 C1728 1.526 . S
C1731 C1732 1.396 . S
C1731 C1736 1.390 . S
C1732 C1726 1.465 . S
C1732 C1731 1.396 . S
C1732 C1733 1.399 . S
C1733 H1719 0.929 . S
C1733 C1732 1.399 . S
C1733 C1734 1.385 . S
C1734 H1720 0.931 . S
C1734 C1733 1.385 . S
C1734 C1735 1.389 . S
C1735 C1734 1.389 . S
C1735 C1736 1.387 . S
C1736 H1721 0.930 . S
C1736 C1731 1.390 . S
C1736 C1735 1.387 . S
H1737 C1749 0.930 . S
H1738 C1751 0.930 . S
H1739 C1752 0.930 . S
H1740 C1756 0.959 . S
H1741 C1756 0.959 . S
H1742 C1756 0.961 . S
H1743 C1757 0.960 . S
H1744 C1757 0.961 . S
H1745 C1757 0.959 . S
H1746 C1760 0.929 . S
H1747 C1761 0.931 . S
H1748 C1763 0.930 . S
C1749 H1737 0.930 . S
C1749 C1750 1.399 . S
C1749 C1754 1.399 . S
C1750 C1749 1.399 . S
C1750 C1751 1.376 . S
C1751 H1738 0.930 . S
C1751 C1750 1.376 . S
C1751 C1752 1.388 . S
C1752 H1739 0.930 . S
C1752 C1751 1.388 . S
C1752 C1753 1.390 . S
C1753 C1752 1.390 . S
C1753 C1754 1.394 . S
C1753 C1759 1.465 . S
C1754 C1749 1.399 . S
C1754 C1753 1.394 . S
C1754 C1755 1.516 . S
C1755 C1754 1.516 . S
C1755 C1756 1.502 . S
C1755 C1757 1.561 . S
C1755 C1758 1.526 . S
C1756 H1740 0.959 . S
C1756 H1741 0.959 . S
C1756 H1742 0.961 . S
C1756 C1755 1.502 . S
C1757 H1743 0.960 . S
C1757 H1744 0.961 . S
C1757 H1745 0.959 . S
C1757 C1755 1.561 . S
C1758 C1755 1.526 . S
C1758 C1759 1.396 . S
C1758 C1763 1.390 . S
C1759 C1753 1.465 . S
C1759 C1758 1.396 . S
C1759 C1760 1.399 . S
C1760 H1746 0.929 . S
C1760 C1759 1.399 . S
C1760 C1761 1.385 . S
C1761 H1747 0.931 . S
C1761 C1760 1.385 . S
C1761 C1762 1.389 . S
C1762 C1761 1.389 . S
C1762 C1763 1.387 . S
C1763 H1748 0.930 . S
C1763 C1758 1.390 . S
C1763 C1762 1.387 . S
H1764 C1776 0.930 . S
H1765 C1778 0.930 . S
H1766 C1779 0.930 . S
H1767 C1783 0.959 1_655 S
H1768 C1783 0.959 . S
H1769 C1783 0.961 1_655 S
H1770 C1784 0.960 . S
H1771 C1784 0.961 . S
H1772 C1784 0.959 . S
H1773 C1787 0.929 . S
H1774 C1788 0.931 . S
H1775 C1790 0.930 . S
C1776 H1764 0.930 . S
C1776 C1777 1.399 . S
C1776 C1781 1.399 . S
C1777 C1776 1.399 . S
C1777 C1778 1.376 . S
C1778 H1765 0.930 . S
C1778 C1777 1.376 . S
C1778 C1779 1.388 . S
C1779 H1766 0.930 . S
C1779 C1778 1.388 . S
C1779 C1780 1.390 . S
C1780 C1779 1.390 . S
C1780 C1781 1.394 . S
C1780 C1786 1.465 . S
C1781 C1776 1.399 . S
C1781 C1780 1.394 . S
C1781 C1782 1.516 . S
C1782 C1781 1.516 . S
C1782 C1783 1.502 . S
C1782 C1784 1.561 . S
C1782 C1785 1.526 . S
C1783 H1767 0.959 1_455 S
C1783 H1768 0.959 . S
C1783 H1769 0.961 1_455 S
C1783 C1782 1.502 . S
C1784 H1770 0.960 . S
C1784 H1771 0.961 . S
C1784 H1772 0.959 . S
C1784 C1782 1.561 . S
C1785 C1782 1.526 . S
C1785 C1786 1.396 . S
C1785 C1790 1.390 . S
C1786 C1780 1.465 . S
C1786 C1785 1.396 . S
C1786 C1787 1.399 . S
C1787 H1773 0.929 . S
C1787 C1786 1.399 . S
C1787 C1788 1.385 . S
C1788 H1774 0.931 . S
C1788 C1787 1.385 . S
C1788 C1789 1.389 . S
C1789 C1788 1.389 . S
C1789 C1790 1.387 . S
C1790 H1775 0.930 . S
C1790 C1785 1.390 . S
C1790 C1789 1.387 . S
H1791 C1803 0.930 . S
H1792 C1805 0.930 . S
H1793 C1806 0.930 . S
H1794 C1810 0.959 . S
H1795 C1810 0.959 . S
H1796 C1810 0.961 . S
H1797 C1811 0.960 . S
H1798 C1811 0.961 . S
H1799 C1811 0.959 . S
H1800 C1814 0.929 . S
H1801 C1815 0.931 . S
H1802 C1817 0.930 . S
C1803 H1791 0.930 . S
C1803 C1804 1.399 . S
C1803 C1808 1.399 . S
C1804 C1803 1.399 . S
C1804 C1805 1.376 . S
C1805 H1792 0.930 . S
C1805 C1804 1.376 . S
C1805 C1806 1.388 . S
C1806 H1793 0.930 . S
C1806 C1805 1.388 . S
C1806 C1807 1.390 . S
C1807 C1806 1.390 . S
C1807 C1808 1.394 . S
C1807 C1813 1.465 . S
C1808 C1803 1.399 . S
C1808 C1807 1.394 . S
C1808 C1809 1.516 . S
C1809 C1808 1.516 . S
C1809 C1810 1.502 . S
C1809 C1811 1.561 . S
C1809 C1812 1.526 . S
C1810 H1794 0.959 . S
C1810 H1795 0.959 . S
C1810 H1796 0.961 . S
C1810 C1809 1.502 . S
C1811 H1797 0.960 . S
C1811 H1798 0.961 . S
C1811 H1799 0.959 . S
C1811 C1809 1.561 . S
C1812 C1809 1.526 . S
C1812 C1813 1.396 . S
C1812 C1817 1.390 . S
C1813 C1807 1.465 . S
C1813 C1812 1.396 . S
C1813 C1814 1.399 . S
C1814 H1800 0.929 . S
C1814 C1813 1.399 . S
C1814 C1815 1.385 . S
C1815 H1801 0.931 . S
C1815 C1814 1.385 . S
C1815 C1816 1.389 . S
C1816 C1815 1.389 . S
C1816 C1817 1.387 . S
C1817 H1802 0.930 . S
C1817 C1812 1.390 . S
C1817 C1816 1.387 . S
H1818 C1830 0.930 . S
H1819 C1832 0.930 . S
H1820 C1833 0.930 . S
H1821 C1837 0.959 . S
H1822 C1837 0.959 . S
H1823 C1837 0.961 . S
H1824 C1838 0.960 . S
H1825 C1838 0.961 . S
H1826 C1838 0.959 . S
H1827 C1841 0.929 . S
H1828 C1842 0.931 . S
H1829 C1844 0.930 . S
C1830 H1818 0.930 . S
C1830 C1831 1.399 . S
C1830 C1835 1.399 . S
C1831 C1830 1.399 . S
C1831 C1832 1.376 . S
C1832 H1819 0.930 . S
C1832 C1831 1.376 . S
C1832 C1833 1.388 . S
C1833 H1820 0.930 . S
C1833 C1832 1.388 . S
C1833 C1834 1.390 . S
C1834 C1833 1.390 . S
C1834 C1835 1.394 . S
C1834 C1840 1.465 . S
C1835 C1830 1.399 . S
C1835 C1834 1.394 . S
C1835 C1836 1.516 . S
C1836 C1835 1.516 . S
C1836 C1837 1.502 . S
C1836 C1838 1.561 . S
C1836 C1839 1.526 . S
C1837 H1821 0.959 . S
C1837 H1822 0.959 . S
C1837 H1823 0.961 . S
C1837 C1836 1.502 . S
C1838 H1824 0.960 . S
C1838 H1825 0.961 . S
C1838 H1826 0.959 . S
C1838 C1836 1.561 . S
C1839 C1836 1.526 . S
C1839 C1840 1.396 . S
C1839 C1844 1.390 . S
C1840 C1834 1.465 . S
C1840 C1839 1.396 . S
C1840 C1841 1.399 . S
C1841 H1827 0.929 . S
C1841 C1840 1.399 . S
C1841 C1842 1.385 . S
C1842 H1828 0.931 . S
C1842 C1841 1.385 . S
C1842 C1843 1.389 . S
C1843 C1842 1.389 . S
C1843 C1844 1.387 . S
C1844 H1829 0.930 . S
C1844 C1839 1.390 . S
C1844 C1843 1.387 . S
H1845 C1857 0.930 . S
H1846 C1859 0.930 . S
H1847 C1860 0.930 . S
H1848 C1864 0.959 . S
H1849 C1864 0.959 . S
H1850 C1864 0.961 . S
H1851 C1865 0.960 . S
H1852 C1865 0.961 . S
H1853 C1865 0.959 . S
H1854 C1868 0.929 . S
H1855 C1869 0.931 . S
H1856 C1871 0.930 . S
C1857 H1845 0.930 . S
C1857 C1858 1.399 . S
C1857 C1862 1.399 . S
C1858 C1857 1.399 . S
C1858 C1859 1.376 . S
C1859 H1846 0.930 . S
C1859 C1858 1.376 . S
C1859 C1860 1.388 . S
C1860 H1847 0.930 . S
C1860 C1859 1.388 . S
C1860 C1861 1.390 . S
C1861 C1860 1.390 . S
C1861 C1862 1.394 . S
C1861 C1867 1.465 . S
C1862 C1857 1.399 . S
C1862 C1861 1.394 . S
C1862 C1863 1.516 . S
C1863 C1862 1.516 . S
C1863 C1864 1.502 . S
C1863 C1865 1.561 . S
C1863 C1866 1.526 . S
C1864 H1848 0.959 . S
C1864 H1849 0.959 . S
C1864 H1850 0.961 . S
C1864 C1863 1.502 . S
C1865 H1851 0.960 . S
C1865 H1852 0.961 . S
C1865 H1853 0.959 . S
C1865 C1863 1.561 . S
C1866 C1863 1.526 . S
C1866 C1867 1.396 . S
C1866 C1871 1.390 . S
C1867 C1861 1.465 . S
C1867 C1866 1.396 . S
C1867 C1868 1.399 . S
C1868 H1854 0.929 . S
C1868 C1867 1.399 . S
C1868 C1869 1.385 . S
C1869 H1855 0.931 . S
C1869 C1868 1.385 . S
C1869 C1870 1.389 . S
C1870 C1869 1.389 . S
C1870 C1871 1.387 . S
C1871 H1856 0.930 . S
C1871 C1866 1.390 . S
C1871 C1870 1.387 . S
H1872 C1884 0.930 . S
H1873 C1886 0.930 . S
H1874 C1887 0.925 1_455 S
H1875 C1891 0.959 . S
H1876 C1891 0.959 . S
H1877 C1891 0.961 . S
H1878 C1892 0.960 . S
H1879 C1892 0.961 . S
H1880 C1892 0.959 . S
H1881 C1895 0.929 . S
H1882 C1896 0.931 . S
H1883 C1898 0.930 . S
C1884 H1872 0.930 . S
C1884 C1885 1.399 . S
C1884 C1889 1.399 . S
C1885 C1884 1.399 . S
C1885 C1886 1.376 . S
C1886 H1873 0.930 . S
C1886 C1885 1.376 . S
C1886 C1887 1.394 . S
C1887 H1874 0.925 1_655 S
C1887 C1886 1.394 . S
C1887 C1888 1.389 1_655 S
C1888 C1887 1.389 1_455 S
C1888 C1889 1.394 1_455 S
C1888 C1894 1.465 . S
C1889 C1884 1.399 . S
C1889 C1888 1.394 1_655 S
C1889 C1890 1.516 1_655 S
C1890 C1889 1.516 1_455 S
C1890 C1891 1.502 1_455 S
C1890 C1892 1.561 . S
C1890 C1893 1.526 . S
C1891 H1875 0.959 . S
C1891 H1876 0.959 . S
C1891 H1877 0.961 . S
C1891 C1890 1.502 1_655 S
C1892 H1878 0.960 . S
C1892 H1879 0.961 . S
C1892 H1880 0.959 . S
C1892 C1890 1.561 . S
C1893 C1890 1.526 . S
C1893 C1894 1.396 . S
C1893 C1898 1.390 . S
C1894 C1888 1.465 . S
C1894 C1893 1.396 . S
C1894 C1895 1.399 . S
C1895 H1881 0.929 . S
C1895 C1894 1.399 . S
C1895 C1896 1.385 . S
C1896 H1882 0.931 . S
C1896 C1895 1.385 . S
C1896 C1897 1.389 . S
C1897 C1896 1.389 . S
C1897 C1898 1.387 . S
C1898 H1883 0.930 . S
C1898 C1893 1.390 . S
C1898 C1897 1.387 . S
H1899 C1911 0.930 . S
H1900 C1913 0.930 . S
H1901 C1914 0.930 . S
H1902 C1918 0.959 . S
H1903 C1918 0.959 . S
H1904 C1918 0.961 . S
H1905 C1919 0.960 . S
H1906 C1919 0.961 . S
H1907 C1919 0.959 . S
H1908 C1922 0.929 . S
H1909 C1923 0.931 . S
H1910 C1925 0.930 . S
C1911 H1899 0.930 . S
C1911 C1912 1.399 . S
C1911 C1916 1.399 . S
C1912 C1911 1.399 . S
C1912 C1913 1.376 . S
C1913 H1900 0.930 . S
C1913 C1912 1.376 . S
C1913 C1914 1.388 . S
C1914 H1901 0.930 . S
C1914 C1913 1.388 . S
C1914 C1915 1.390 . S
C1915 C1914 1.390 . S
C1915 C1916 1.394 . S
C1915 C1921 1.465 . S
C1916 C1911 1.399 . S
C1916 C1915 1.394 . S
C1916 C1917 1.516 . S
C1917 C1916 1.516 . S
C1917 C1918 1.502 . S
C1917 C1919 1.561 . S
C1917 C1920 1.526 . S
C1918 H1902 0.959 . S
C1918 H1903 0.959 . S
C1918 H1904 0.961 . S
C1918 C1917 1.502 . S
C1919 H1905 0.960 . S
C1919 H1906 0.961 . S
C1919 H1907 0.959 . S
C1919 C1917 1.561 . S
C1920 C1917 1.526 . S
C1920 C1921 1.396 . S
C1920 C1925 1.390 . S
C1921 C1915 1.465 . S
C1921 C1920 1.396 . S
C1921 C1922 1.399 . S
C1922 H1908 0.929 . S
C1922 C1921 1.399 . S
C1922 C1923 1.385 . S
C1923 H1909 0.931 . S
C1923 C1922 1.385 . S
C1923 C1924 1.389 . S
C1924 C1923 1.389 . S
C1924 C1925 1.387 . S
C1925 H1910 0.930 . S
C1925 C1920 1.390 . S
C1925 C1924 1.387 . S
H1926 C1938 0.930 . S
H1927 C1940 0.930 . S
H1928 C1941 0.930 1_565 S
H1929 C1945 0.959 . S
H1930 C1945 0.959 . S
H1931 C1945 0.961 . S
H1932 C1946 0.960 . S
H1933 C1946 0.961 . S
H1934 C1946 0.959 . S
H1935 C1949 0.929 . S
H1936 C1950 0.931 . S
H1937 C1952 0.930 . S
C1938 H1926 0.930 . S
C1938 C1939 1.399 . S
C1938 C1943 1.399 . S
C1939 C1938 1.399 . S
C1939 C1940 1.376 . S
C1940 H1927 0.930 . S
C1940 C1939 1.376 . S
C1940 C1941 1.388 . S
C1941 H1928 0.930 1_545 S
C1941 C1940 1.388 . S
C1941 C1942 1.390 . S
C1942 C1941 1.390 . S
C1942 C1943 1.394 . S
C1942 C1948 1.465 . S
C1943 C1938 1.399 . S
C1943 C1942 1.394 . S
C1943 C1944 1.516 . S
C1944 C1943 1.516 . S
C1944 C1945 1.502 . S
C1944 C1946 1.561 . S
C1944 C1947 1.526 . S
C1945 H1929 0.959 . S
C1945 H1930 0.959 . S
C1945 H1931 0.961 . S
C1945 C1944 1.502 . S
C1946 H1932 0.960 . S
C1946 H1933 0.961 . S
C1946 H1934 0.959 . S
C1946 C1944 1.561 . S
C1947 C1944 1.526 . S
C1947 C1948 1.396 . S
C1947 C1952 1.390 . S
C1948 C1942 1.465 . S
C1948 C1947 1.396 . S
C1948 C1949 1.399 1_545 S
C1949 H1935 0.929 . S
C1949 C1948 1.399 1_565 S
C1949 C1950 1.385 . S
C1950 H1936 0.931 . S
C1950 C1949 1.385 . S
C1950 C1951 1.389 1_565 S
C1951 C1950 1.389 1_545 S
C1951 C1952 1.387 . S
C1952 H1937 0.930 . S
C1952 C1947 1.390 . S
C1952 C1951 1.387 . S
H1953 C1965 0.930 . S
H1954 C1967 0.930 . S
H1955 C1968 0.930 . S
H1956 C1972 0.959 . S
H1957 C1972 0.959 . S
H1958 C1972 0.961 . S
H1959 C1973 0.960 . S
H1960 C1973 0.961 . S
H1961 C1973 0.959 . S
H1962 C1976 0.929 . S
H1963 C1977 0.931 . S
H1964 C1979 0.930 . S
C1965 H1953 0.930 . S
C1965 C1966 1.399 . S
C1965 C1970 1.399 . S
C1966 C1965 1.399 . S
C1966 C1967 1.376 . S
C1967 H1954 0.930 . S
C1967 C1966 1.376 . S
C1967 C1968 1.388 . S
C1968 H1955 0.930 . S
C1968 C1967 1.388 . S
C1968 C1969 1.390 . S
C1969 C1968 1.390 . S
C1969 C1970 1.394 . S
C1969 C1975 1.465 . S
C1970 C1965 1.399 . S
C1970 C1969 1.394 . S
C1970 C1971 1.516 . S
C1971 C1970 1.516 . S
C1971 C1972 1.502 . S
C1971 C1973 1.561 . S
C1971 C1974 1.526 . S
C1972 H1956 0.959 . S
C1972 H1957 0.959 . S
C1972 H1958 0.961 . S
C1972 C1971 1.502 . S
C1973 H1959 0.960 . S
C1973 H1960 0.961 . S
C1973 H1961 0.959 . S
C1973 C1971 1.561 . S
C1974 C1971 1.526 . S
C1974 C1975 1.396 . S
C1974 C1979 1.390 . S
C1975 C1969 1.465 . S
C1975 C1974 1.396 . S
C1975 C1976 1.399 . S
C1976 H1962 0.929 . S
C1976 C1975 1.399 . S
C1976 C1977 1.385 . S
C1977 H1963 0.931 . S
C1977 C1976 1.385 . S
C1977 C1978 1.389 . S
C1978 C1977 1.389 . S
C1978 C1979 1.387 . S
C1979 H1964 0.930 . S
C1979 C1974 1.390 . S
C1979 C1978 1.387 . S
H1980 C1992 0.930 . S
H1981 C1994 0.930 . S
H1982 C1995 0.930 . S
H1983 C1999 0.976 . S
H1984 C1999 0.919 1_565 S
H1985 C1999 0.960 1_565 S
H1986 C2000 0.960 . S
H1987 C2000 0.961 1_565 S
H1988 C2000 0.959 . S
H1989 C2003 0.929 . S
H1990 C2004 0.931 . S
H1991 C2006 0.930 . S
C1992 H1980 0.930 . S
C1992 C1993 1.399 . S
C1992 C1997 1.399 . S
C1993 C1992 1.399 . S
C1993 C1994 1.376 . S
C1994 H1981 0.930 . S
C1994 C1993 1.376 . S
C1994 C1995 1.388 1_655 S
C1995 H1982 0.930 . S
C1995 C1994 1.388 1_455 S
C1995 C1996 1.390 . S
C1996 C1995 1.390 . S
C1996 C1997 1.394 1_455 S
C1996 C2002 1.465 . S
C1997 C1992 1.399 . S
C1997 C1996 1.394 1_655 S
C1997 C1998 1.516 1_655 S
C1998 C1997 1.516 1_455 S
C1998 C1999 1.529 1_455 S
C1998 C2000 1.561 . S
C1998 C2001 1.526 . S
C1999 H1983 0.976 . S
C1999 H1984 0.919 1_545 S
C1999 H1985 0.960 1_545 S
C1999 C1998 1.529 1_655 S
C2000 H1986 0.960 . S
C2000 H1987 0.961 1_545 S
C2000 H1988 0.959 . S
C2000 C1998 1.561 . S
C2001 C1998 1.526 . S
C2001 C2002 1.396 . S
C2001 C2006 1.390 . S
C2002 C1996 1.465 . S
C2002 C2001 1.396 . S
C2002 C2003 1.399 . S
C2003 H1989 0.929 . S
C2003 C2002 1.399 . S
C2003 C2004 1.385 . S
C2004 H1990 0.931 . S
C2004 C2003 1.385 . S
C2004 C2005 1.389 . S
C2005 C2004 1.389 . S
C2005 C2006 1.387 . S
C2006 H1991 0.930 . S
C2006 C2001 1.390 . S
C2006 C2005 1.387 . S
H2007 C2019 0.930 . S
H2008 C2021 0.930 . S
H2009 C2022 0.930 . S
H2010 C2026 0.959 . S
H2011 C2026 0.959 . S
H2012 C2026 0.961 . S
H2013 C2027 0.960 . S
H2014 C2027 0.961 . S
H2015 C2027 0.959 . S
H2016 C2030 0.929 . S
H2017 C2031 0.931 . S
H2018 C2033 0.930 . S
C2019 H2007 0.930 . S
C2019 C2020 1.399 . S
C2019 C2024 1.399 . S
C2020 C2019 1.399 . S
C2020 C2021 1.376 . S
C2021 H2008 0.930 . S
C2021 C2020 1.376 . S
C2021 C2022 1.388 . S
C2022 H2009 0.930 . S
C2022 C2021 1.388 . S
C2022 C2023 1.390 . S
C2023 C2022 1.390 . S
C2023 C2024 1.394 . S
C2023 C2029 1.465 . S
C2024 C2019 1.399 . S
C2024 C2023 1.394 . S
C2024 C2025 1.516 . S
C2025 C2024 1.516 . S
C2025 C2026 1.502 . S
C2025 C2027 1.561 . S
C2025 C2028 1.526 . S
C2026 H2010 0.959 . S
C2026 H2011 0.959 . S
C2026 H2012 0.961 . S
C2026 C2025 1.502 . S
C2027 H2013 0.960 . S
C2027 H2014 0.961 . S
C2027 H2015 0.959 . S
C2027 C2025 1.561 . S
C2028 C2025 1.526 . S
C2028 C2029 1.396 . S
C2028 C2033 1.390 . S
C2029 C2023 1.465 . S
C2029 C2028 1.396 . S
C2029 C2030 1.399 . S
C2030 H2016 0.929 . S
C2030 C2029 1.399 . S
C2030 C2031 1.385 . S
C2031 H2017 0.931 . S
C2031 C2030 1.385 . S
C2031 C2032 1.389 . S
C2032 C2031 1.389 . S
C2032 C2033 1.387 . S
C2033 H2018 0.930 . S
C2033 C2028 1.390 . S
C2033 C2032 1.387 . S
H2034 C2046 0.930 . S
H2035 C2048 0.930 . S
H2036 C2049 0.930 . S
H2037 C2053 0.959 . S
H2038 C2053 0.956 . S
H2039 C2053 0.960 1_565 S
H2040 C2054 0.960 . S
H2041 C2054 0.961 . S
H2042 C2054 0.959 . S
H2043 C2057 0.929 . S
H2044 C2058 0.931 . S
H2045 C2060 0.930 . S
C2046 H2034 0.930 . S
C2046 C2047 1.399 . S
C2046 C2051 1.399 . S
C2047 C2046 1.399 . S
C2047 C2048 1.376 . S
C2048 H2035 0.930 . S
C2048 C2047 1.376 . S
C2048 C2049 1.388 . S
C2049 H2036 0.930 . S
C2049 C2048 1.388 . S
C2049 C2050 1.390 . S
C2050 C2049 1.390 . S
C2050 C2051 1.394 . S
C2050 C2056 1.465 . S
C2051 C2046 1.399 . S
C2051 C2050 1.394 . S
C2051 C2052 1.516 . S
C2052 C2051 1.516 . S
C2052 C2053 1.502 . S
C2052 C2054 1.561 . S
C2052 C2055 1.526 . S
C2053 H2037 0.959 . S
C2053 H2038 0.956 . S
C2053 H2039 0.960 1_545 S
C2053 C2052 1.502 . S
C2054 H2040 0.960 . S
C2054 H2041 0.961 . S
C2054 H2042 0.959 . S
C2054 C2052 1.561 . S
C2055 C2052 1.526 . S
C2055 C2056 1.396 . S
C2055 C2060 1.390 . S
C2056 C2050 1.465 . S
C2056 C2055 1.396 . S
C2056 C2057 1.399 . S
C2057 H2043 0.929 . S
C2057 C2056 1.399 . S
C2057 C2058 1.385 . S
C2058 H2044 0.931 . S
C2058 C2057 1.385 . S
C2058 C2059 1.389 . S
C2059 C2058 1.389 . S
C2059 C2060 1.387 . S
C2060 H2045 0.930 . S
C2060 C2055 1.390 . S
C2060 C2059 1.387 . S
H2061 C2073 0.930 . S
H2062 C2075 0.930 . S
H2063 C2076 0.930 . S
H2064 C2080 0.959 . S
H2065 C2080 0.959 . S
H2066 C2080 0.961 . S
H2067 C2081 0.960 . S
H2068 C2081 0.961 . S
H2069 C2081 0.959 . S
H2070 C2084 0.929 . S
H2071 C2085 0.931 . S
H2072 C2087 0.930 . S
C2073 H2061 0.930 . S
C2073 C2074 1.399 . S
C2073 C2078 1.399 . S
C2074 C2073 1.399 . S
C2074 C2075 1.376 . S
C2075 H2062 0.930 . S
C2075 C2074 1.376 . S
C2075 C2076 1.388 . S
C2076 H2063 0.930 . S
C2076 C2075 1.388 . S
C2076 C2077 1.390 . S
C2077 C2076 1.390 . S
C2077 C2078 1.394 . S
C2077 C2083 1.465 . S
C2078 C2073 1.399 . S
C2078 C2077 1.394 . S
C2078 C2079 1.516 . S
C2079 C2078 1.516 . S
C2079 C2080 1.502 . S
C2079 C2081 1.561 . S
C2079 C2082 1.526 . S
C2080 H2064 0.959 . S
C2080 H2065 0.959 . S
C2080 H2066 0.961 . S
C2080 C2079 1.502 . S
C2081 H2067 0.960 . S
C2081 H2068 0.961 . S
C2081 H2069 0.959 . S
C2081 C2079 1.561 . S
C2082 C2079 1.526 . S
C2082 C2083 1.396 . S
C2082 C2087 1.390 . S
C2083 C2077 1.465 . S
C2083 C2082 1.396 . S
C2083 C2084 1.399 . S
C2084 H2070 0.929 . S
C2084 C2083 1.399 . S
C2084 C2085 1.385 . S
C2085 H2071 0.931 . S
C2085 C2084 1.385 . S
C2085 C2086 1.389 . S
C2086 C2085 1.389 . S
C2086 C2087 1.387 . S
C2087 H2072 0.930 . S
C2087 C2082 1.390 . S
C2087 C2086 1.387 . S
H2088 C2100 0.930 . S
H2089 C2102 0.930 1_556 S
H2090 C2103 0.930 1_556 S
H2091 C2107 0.959 . S
H2092 C2107 0.959 . S
H2093 C2107 0.961 . S
H2094 C2108 0.960 . S
H2095 C2108 0.961 . S
H2096 C2108 0.959 1_545 S
H2097 C2111 0.966 . S
H2098 C2112 0.931 . S
H2099 C2114 0.920 1_565 S
C2100 H2088 0.930 . S
C2100 C2101 1.399 . S
C2100 C2105 1.399 . S
C2101 C2100 1.399 . S
C2101 C2102 1.376 . S
C2102 H2089 0.930 1_554 S
C2102 C2101 1.376 . S
C2102 C2103 1.388 . S
C2103 H2090 0.930 1_554 S
C2103 C2102 1.388 . S
C2103 C2104 1.390 . S
C2104 C2103 1.390 . S
C2104 C2105 1.394 . S
C2104 C2110 1.480 . S
C2105 C2100 1.399 . S
C2105 C2104 1.394 . S
C2105 C2106 1.516 . S
C2106 C2105 1.516 . S
C2106 C2107 1.502 . S
C2106 C2108 1.561 . S
C2106 C2109 1.526 . S
C2107 H2091 0.959 . S
C2107 H2092 0.959 . S
C2107 H2093 0.961 . S
C2107 C2106 1.502 . S
C2108 H2094 0.960 . S
C2108 H2095 0.961 . S
C2108 H2096 0.959 1_565 S
C2108 C2106 1.561 . S
C2109 C2106 1.526 . S
C2109 C2110 1.405 . S
C2109 C2114 1.376 1_565 S
C2110 C2104 1.480 . S
C2110 C2109 1.405 . S
C2110 C2111 1.379 1_565 S
C2111 H2097 0.966 . S
C2111 C2110 1.379 1_545 S
C2111 C2112 1.385 . S
C2112 H2098 0.931 . S
C2112 C2111 1.385 . S
C2112 C2113 1.389 . S
C2113 C2112 1.389 . S
C2113 C2114 1.411 . S
C2114 H2099 0.920 1_545 S
C2114 C2109 1.376 1_545 S
C2114 C2113 1.411 . S
H2115 C2127 0.930 . S
H2116 C2129 0.930 . S
H2117 C2130 0.930 . S
H2118 C2134 0.959 . S
H2119 C2134 0.959 . S
H2120 C2134 0.961 . S
H2121 C2135 0.960 . S
H2122 C2135 0.961 . S
H2123 C2135 0.959 . S
H2124 C2138 0.929 . S
H2125 C2139 0.931 . S
H2126 C2141 0.930 . S
C2127 H2115 0.930 . S
C2127 C2128 1.399 . S
C2127 C2132 1.399 . S
C2128 C2127 1.399 . S
C2128 C2129 1.376 1_556 S
C2129 H2116 0.930 . S
C2129 C2128 1.376 1_554 S
C2129 C2130 1.388 . S
C2130 H2117 0.930 . S
C2130 C2129 1.388 . S
C2130 C2131 1.390 . S
C2131 C2130 1.390 . S
C2131 C2132 1.394 1_554 S
C2131 C2137 1.465 . S
C2132 C2127 1.399 . S
C2132 C2131 1.394 1_556 S
C2132 C2133 1.516 . S
C2133 C2132 1.516 . S
C2133 C2134 1.502 . S
C2133 C2135 1.561 . S
C2133 C2136 1.526 . S
C2134 H2118 0.959 . S
C2134 H2119 0.959 . S
C2134 H2120 0.961 . S
C2134 C2133 1.502 . S
C2135 H2121 0.960 . S
C2135 H2122 0.961 . S
C2135 H2123 0.959 . S
C2135 C2133 1.561 . S
C2136 C2133 1.526 . S
C2136 C2137 1.396 1_556 S
C2136 C2141 1.390 . S
C2137 C2131 1.465 . S
C2137 C2136 1.396 1_554 S
C2137 C2138 1.399 . S
C2138 H2124 0.929 . S
C2138 C2137 1.399 . S
C2138 C2139 1.385 . S
C2139 H2125 0.931 . S
C2139 C2138 1.385 . S
C2139 C2140 1.389 1_554 S
C2140 C2139 1.389 1_556 S
C2140 C2141 1.387 . S
C2141 H2126 0.930 . S
C2141 C2136 1.390 . S
C2141 C2140 1.387 . S
H2142 C2154 0.930 . S
H2143 C2156 0.930 . S
H2144 C2157 0.930 . S
H2145 C2161 0.959 . S
H2146 C2161 0.959 . S
H2147 C2161 0.961 . S
H2148 C2162 0.960 . S
H2149 C2162 0.961 . S
H2150 C2162 0.959 . S
H2151 C2165 0.929 . S
H2152 C2166 0.931 . S
H2153 C2168 0.930 . S
C2154 H2142 0.930 . S
C2154 C2155 1.399 . S
C2154 C2159 1.399 . S
C2155 C2154 1.399 . S
C2155 C2156 1.376 . S
C2156 H2143 0.930 . S
C2156 C2155 1.376 . S
C2156 C2157 1.388 . S
C2157 H2144 0.930 . S
C2157 C2156 1.388 . S
C2157 C2158 1.390 . S
C2158 C2157 1.390 . S
C2158 C2159 1.394 . S
C2158 C2164 1.465 . S
C2159 C2154 1.399 . S
C2159 C2158 1.394 . S
C2159 C2160 1.516 . S
C2160 C2159 1.516 . S
C2160 C2161 1.502 . S
C2160 C2162 1.561 . S
C2160 C2163 1.526 . S
C2161 H2145 0.959 . S
C2161 H2146 0.959 . S
C2161 H2147 0.961 . S
C2161 C2160 1.502 . S
C2162 H2148 0.960 . S
C2162 H2149 0.961 . S
C2162 H2150 0.959 . S
C2162 C2160 1.561 . S
C2163 C2160 1.526 . S
C2163 C2164 1.396 . S
C2163 C2168 1.390 . S
C2164 C2158 1.465 . S
C2164 C2163 1.396 . S
C2164 C2165 1.399 . S
C2165 H2151 0.929 . S
C2165 C2164 1.399 . S
C2165 C2166 1.385 . S
C2166 H2152 0.931 . S
C2166 C2165 1.385 . S
C2166 C2167 1.389 . S
C2167 C2166 1.389 . S
C2167 C2168 1.387 . S
C2168 H2153 0.930 . S
C2168 C2163 1.390 . S
C2168 C2167 1.387 . S
H2169 C2181 0.930 . S
H2170 C2183 0.930 . S
H2171 C2184 0.930 . S
H2172 C2188 0.959 . S
H2173 C2188 0.959 . S
H2174 C2188 0.961 . S
H2175 C2189 0.960 . S
H2176 C2189 0.961 . S
H2177 C2189 0.959 . S
H2178 C2192 0.929 . S
H2179 C2193 0.931 . S
H2180 C2195 0.930 . S
C2181 H2169 0.930 . S
C2181 C2182 1.399 . S
C2181 C2186 1.399 . S
C2182 C2181 1.399 . S
C2182 C2183 1.376 . S
C2183 H2170 0.930 . S
C2183 C2182 1.376 . S
C2183 C2184 1.388 . S
C2184 H2171 0.930 . S
C2184 C2183 1.388 . S
C2184 C2185 1.390 . S
C2185 C2184 1.390 . S
C2185 C2186 1.394 . S
C2185 C2191 1.465 . S
C2186 C2181 1.399 . S
C2186 C2185 1.394 . S
C2186 C2187 1.516 . S
C2187 C2186 1.516 . S
C2187 C2188 1.502 . S
C2187 C2189 1.561 . S
C2187 C2190 1.526 . S
C2188 H2172 0.959 . S
C2188 H2173 0.959 . S
C2188 H2174 0.961 . S
C2188 C2187 1.502 . S
C2189 H2175 0.960 . S
C2189 H2176 0.961 . S
C2189 H2177 0.959 . S
C2189 C2187 1.561 . S
C2190 C2187 1.526 . S
C2190 C2191 1.396 . S
C2190 C2195 1.390 . S
C2191 C2185 1.465 . S
C2191 C2190 1.396 . S
C2191 C2192 1.399 . S
C2192 H2178 0.929 . S
C2192 C2191 1.399 . S
C2192 C2193 1.385 . S
C2193 H2179 0.931 . S
C2193 C2192 1.385 . S
C2193 C2194 1.389 . S
C2194 C2193 1.389 . S
C2194 C2195 1.387 . S
C2195 H2180 0.930 . S
C2195 C2190 1.390 . S
C2195 C2194 1.387 . S
H2196 C2208 0.930 . S
H2197 C2210 0.930 . S
H2198 C2211 0.930 . S
H2199 C2215 0.959 . S
H2200 C2215 0.959 . S
H2201 C2215 0.961 . S
H2202 C2216 0.960 . S
H2203 C2216 0.961 . S
H2204 C2216 0.959 . S
H2205 C2219 0.929 . S
H2206 C2220 0.931 . S
H2207 C2222 0.930 . S
C2208 H2196 0.930 . S
C2208 C2209 1.399 . S
C2208 C2213 1.399 . S
C2209 C2208 1.399 . S
C2209 C2210 1.376 . S
C2210 H2197 0.930 . S
C2210 C2209 1.376 . S
C2210 C2211 1.388 . S
C2211 H2198 0.930 . S
C2211 C2210 1.388 . S
C2211 C2212 1.390 . S
C2212 C2211 1.390 . S
C2212 C2213 1.394 . S
C2212 C2218 1.465 . S
C2213 C2208 1.399 . S
C2213 C2212 1.394 . S
C2213 C2214 1.516 . S
C2214 C2213 1.516 . S
C2214 C2215 1.502 . S
C2214 C2216 1.561 . S
C2214 C2217 1.526 . S
C2215 H2199 0.959 . S
C2215 H2200 0.959 . S
C2215 H2201 0.961 . S
C2215 C2214 1.502 . S
C2216 H2202 0.960 . S
C2216 H2203 0.961 . S
C2216 H2204 0.959 . S
C2216 C2214 1.561 . S
C2217 C2214 1.526 . S
C2217 C2218 1.396 . S
C2217 C2222 1.390 . S
C2218 C2212 1.465 . S
C2218 C2217 1.396 . S
C2218 C2219 1.399 . S
C2219 H2205 0.929 . S
C2219 C2218 1.399 . S
C2219 C2220 1.385 . S
C2220 H2206 0.931 . S
C2220 C2219 1.385 . S
C2220 C2221 1.389 . S
C2221 C2220 1.389 . S
C2221 C2222 1.387 . S
C2222 H2207 0.930 . S
C2222 C2217 1.390 . S
C2222 C2221 1.387 . S
H2223 C2235 0.930 . S
H2224 C2237 0.930 . S
H2225 C2238 0.930 . S
H2226 C2242 0.959 . S
H2227 C2242 0.959 . S
H2228 C2242 0.961 . S
H2229 C2243 0.960 . S
H2230 C2243 0.961 . S
H2231 C2243 0.959 . S
H2232 C2246 0.929 . S
H2233 C2247 0.931 . S
H2234 C2249 0.930 . S
C2235 H2223 0.930 . S
C2235 C2236 1.399 . S
C2235 C2240 1.399 . S
C2236 C2235 1.399 . S
C2236 C2237 1.376 . S
C2237 H2224 0.930 . S
C2237 C2236 1.376 . S
C2237 C2238 1.388 . S
C2238 H2225 0.930 . S
C2238 C2237 1.388 . S
C2238 C2239 1.390 . S
C2239 C2238 1.390 . S
C2239 C2240 1.394 . S
C2239 C2245 1.465 . S
C2240 C2235 1.399 . S
C2240 C2239 1.394 . S
C2240 C2241 1.516 . S
C2241 C2240 1.516 . S
C2241 C2242 1.502 . S
C2241 C2243 1.561 . S
C2241 C2244 1.526 . S
C2242 H2226 0.959 . S
C2242 H2227 0.959 . S
C2242 H2228 0.961 . S
C2242 C2241 1.502 . S
C2243 H2229 0.960 . S
C2243 H2230 0.961 . S
C2243 H2231 0.959 . S
C2243 C2241 1.561 . S
C2244 C2241 1.526 . S
C2244 C2245 1.396 . S
C2244 C2249 1.390 . S
C2245 C2239 1.465 . S
C2245 C2244 1.396 . S
C2245 C2246 1.399 . S
C2246 H2232 0.929 . S
C2246 C2245 1.399 . S
C2246 C2247 1.385 . S
C2247 H2233 0.931 . S
C2247 C2246 1.385 . S
C2247 C2248 1.389 . S
C2248 C2247 1.389 . S
C2248 C2249 1.387 . S
C2249 H2234 0.930 . S
C2249 C2244 1.390 . S
C2249 C2248 1.387 . S
H2250 C2262 0.930 . S
H2251 C2264 0.930 . S
H2252 C2265 0.930 . S
H2253 C2269 0.959 . S
H2254 C2269 0.959 . S
H2255 C2269 0.961 . S
H2256 C2270 0.960 . S
H2257 C2270 0.961 . S
H2258 C2270 0.959 . S
H2259 C2273 0.929 . S
H2260 C2274 0.931 . S
H2261 C2276 0.930 . S
C2262 H2250 0.930 . S
C2262 C2263 1.399 . S
C2262 C2267 1.399 . S
C2263 C2262 1.399 . S
C2263 C2264 1.376 . S
C2264 H2251 0.930 . S
C2264 C2263 1.376 . S
C2264 C2265 1.388 . S
C2265 H2252 0.930 . S
C2265 C2264 1.388 . S
C2265 C2266 1.390 . S
C2266 C2265 1.390 . S
C2266 C2267 1.394 . S
C2266 C2272 1.465 . S
C2267 C2262 1.399 . S
C2267 C2266 1.394 . S
C2267 C2268 1.516 . S
C2268 C2267 1.516 . S
C2268 C2269 1.502 . S
C2268 C2270 1.561 . S
C2268 C2271 1.526 . S
C2269 H2253 0.959 . S
C2269 H2254 0.959 . S
C2269 H2255 0.961 . S
C2269 C2268 1.502 . S
C2270 H2256 0.960 . S
C2270 H2257 0.961 . S
C2270 H2258 0.959 . S
C2270 C2268 1.561 . S
C2271 C2268 1.526 . S
C2271 C2272 1.396 . S
C2271 C2276 1.390 . S
C2272 C2266 1.465 . S
C2272 C2271 1.396 . S
C2272 C2273 1.399 . S
C2273 H2259 0.929 . S
C2273 C2272 1.399 . S
C2273 C2274 1.385 . S
C2274 H2260 0.931 . S
C2274 C2273 1.385 . S
C2274 C2275 1.389 . S
C2275 C2274 1.389 . S
C2275 C2276 1.387 . S
C2276 H2261 0.930 . S
C2276 C2271 1.390 . S
C2276 C2275 1.387 . S
H2277 C2289 0.930 . S
H2278 C2291 0.930 . S
H2279 C2292 0.930 . S
H2280 C2296 0.959 . S
H2281 C2296 0.959 . S
H2282 C2296 0.961 . S
H2283 C2297 0.960 . S
H2284 C2297 0.961 . S
H2285 C2297 0.959 . S
H2286 C2300 0.929 . S
H2287 C2301 0.931 . S
H2288 C2303 0.930 . S
C2289 H2277 0.930 . S
C2289 C2290 1.399 . S
C2289 C2294 1.399 . S
C2290 C2289 1.399 . S
C2290 C2291 1.376 . S
C2291 H2278 0.930 . S
C2291 C2290 1.376 . S
C2291 C2292 1.388 . S
C2292 H2279 0.930 . S
C2292 C2291 1.388 . S
C2292 C2293 1.390 . S
C2293 C2292 1.390 . S
C2293 C2294 1.394 . S
C2293 C2299 1.465 . S
C2294 C2289 1.399 . S
C2294 C2293 1.394 . S
C2294 C2295 1.516 . S
C2295 C2294 1.516 . S
C2295 C2296 1.502 . S
C2295 C2297 1.561 . S
C2295 C2298 1.526 . S
C2296 H2280 0.959 . S
C2296 H2281 0.959 . S
C2296 H2282 0.961 . S
C2296 C2295 1.502 . S
C2297 H2283 0.960 . S
C2297 H2284 0.961 . S
C2297 H2285 0.959 . S
C2297 C2295 1.561 . S
C2298 C2295 1.526 . S
C2298 C2299 1.396 . S
C2298 C2303 1.390 . S
C2299 C2293 1.465 . S
C2299 C2298 1.396 . S
C2299 C2300 1.399 . S
C2300 H2286 0.929 . S
C2300 C2299 1.399 . S
C2300 C2301 1.385 . S
C2301 H2287 0.931 . S
C2301 C2300 1.385 . S
C2301 C2302 1.389 . S
C2302 C2301 1.389 . S
C2302 C2303 1.387 . S
C2303 H2288 0.930 . S
C2303 C2298 1.390 . S
C2303 C2302 1.387 . S
H2304 C2316 0.930 . S
H2305 C2318 0.930 . S
H2306 C2319 0.930 . S
H2307 C2323 0.959 . S
H2308 C2323 0.959 . S
H2309 C2323 0.961 . S
H2310 C2324 0.960 . S
H2311 C2324 0.964 . S
H2312 C2324 0.959 . S
H2313 C2327 0.929 . S
H2314 C2328 0.931 . S
H2315 C2330 0.930 . S
C2316 H2304 0.930 . S
C2316 C2317 1.399 . S
C2316 C2321 1.399 . S
C2317 C2316 1.399 . S
C2317 C2318 1.376 . S
C2318 H2305 0.930 . S
C2318 C2317 1.376 . S
C2318 C2319 1.388 . S
C2319 H2306 0.930 . S
C2319 C2318 1.388 . S
C2319 C2320 1.390 . S
C2320 C2319 1.390 . S
C2320 C2321 1.394 . S
C2320 C2326 1.465 . S
C2321 C2316 1.399 . S
C2321 C2320 1.394 . S
C2321 C2322 1.516 . S
C2322 C2321 1.516 . S
C2322 C2323 1.502 . S
C2322 C2324 1.561 . S
C2322 C2325 1.526 . S
C2323 H2307 0.959 . S
C2323 H2308 0.959 . S
C2323 H2309 0.961 . S
C2323 C2322 1.502 . S
C2324 H2310 0.960 . S
C2324 H2311 0.964 . S
C2324 H2312 0.959 . S
C2324 C2322 1.561 . S
C2325 C2322 1.526 . S
C2325 C2326 1.396 . S
C2325 C2330 1.390 . S
C2326 C2320 1.465 . S
C2326 C2325 1.396 . S
C2326 C2327 1.399 . S
C2327 H2313 0.929 . S
C2327 C2326 1.399 . S
C2327 C2328 1.385 . S
C2328 H2314 0.931 . S
C2328 C2327 1.385 . S
C2328 C2329 1.389 . S
C2329 C2328 1.389 . S
C2329 C2330 1.387 . S
C2330 H2315 0.930 . S
C2330 C2325 1.390 . S
C2330 C2329 1.387 . S
H2331 C2343 0.930 . S
H2332 C2345 0.930 . S
H2333 C2346 0.930 . S
H2334 C2350 0.959 . S
H2335 C2350 0.959 . S
H2336 C2350 0.961 . S
H2337 C2351 0.960 . S
H2338 C2351 0.961 . S
H2339 C2351 0.959 . S
H2340 C2354 0.929 . S
H2341 C2355 0.931 . S
H2342 C2357 0.930 . S
C2343 H2331 0.930 . S
C2343 C2344 1.399 . S
C2343 C2348 1.399 . S
C2344 C2343 1.399 . S
C2344 C2345 1.376 . S
C2345 H2332 0.930 . S
C2345 C2344 1.376 . S
C2345 C2346 1.388 . S
C2346 H2333 0.930 . S
C2346 C2345 1.388 . S
C2346 C2347 1.390 . S
C2347 C2346 1.390 . S
C2347 C2348 1.394 . S
C2347 C2353 1.465 . S
C2348 C2343 1.399 . S
C2348 C2347 1.394 . S
C2348 C2349 1.516 . S
C2349 C2348 1.516 . S
C2349 C2350 1.502 . S
C2349 C2351 1.561 . S
C2349 C2352 1.526 . S
C2350 H2334 0.959 . S
C2350 H2335 0.959 . S
C2350 H2336 0.961 . S
C2350 C2349 1.502 . S
C2351 H2337 0.960 . S
C2351 H2338 0.961 . S
C2351 H2339 0.959 . S
C2351 C2349 1.561 . S
C2352 C2349 1.526 . S
C2352 C2353 1.396 . S
C2352 C2357 1.390 . S
C2353 C2347 1.465 . S
C2353 C2352 1.396 . S
C2353 C2354 1.399 . S
C2354 H2340 0.929 . S
C2354 C2353 1.399 . S
C2354 C2355 1.385 . S
C2355 H2341 0.931 . S
C2355 C2354 1.385 . S
C2355 C2356 1.389 . S
C2356 C2355 1.389 . S
C2356 C2357 1.387 . S
C2357 H2342 0.930 . S
C2357 C2352 1.390 . S
C2357 C2356 1.387 . S
H2358 C2370 0.930 . S
H2359 C2372 0.930 . S
H2360 C2373 0.930 . S
H2361 C2377 0.959 . S
H2362 C2377 0.959 . S
H2363 C2377 0.961 . S
H2364 C2378 0.960 . S
H2365 C2378 0.961 . S
H2366 C2378 0.959 . S
H2367 C2381 0.929 . S
H2368 C2382 0.931 . S
H2369 C2384 0.930 . S
C2370 H2358 0.930 . S
C2370 C2371 1.399 . S
C2370 C2375 1.399 . S
C2371 C2370 1.399 . S
C2371 C2372 1.376 . S
C2372 H2359 0.930 . S
C2372 C2371 1.376 . S
C2372 C2373 1.388 . S
C2373 H2360 0.930 . S
C2373 C2372 1.388 . S
C2373 C2374 1.390 . S
C2374 C2373 1.390 . S
C2374 C2375 1.394 . S
C2374 C2380 1.465 . S
C2375 C2370 1.399 . S
C2375 C2374 1.394 . S
C2375 C2376 1.516 . S
C2376 C2375 1.516 . S
C2376 C2377 1.502 . S
C2376 C2378 1.561 . S
C2376 C2379 1.526 . S
C2377 H2361 0.959 . S
C2377 H2362 0.959 . S
C2377 H2363 0.961 . S
C2377 C2376 1.502 . S
C2378 H2364 0.960 . S
C2378 H2365 0.961 . S
C2378 H2366 0.959 . S
C2378 C2376 1.561 . S
C2379 C2376 1.526 . S
C2379 C2380 1.396 . S
C2379 C2384 1.390 . S
C2380 C2374 1.465 . S
C2380 C2379 1.396 . S
C2380 C2381 1.399 . S
C2381 H2367 0.929 . S
C2381 C2380 1.399 . S
C2381 C2382 1.385 . S
C2382 H2368 0.931 . S
C2382 C2381 1.385 . S
C2382 C2383 1.389 . S
C2383 C2382 1.389 . S
C2383 C2384 1.387 . S
C2384 H2369 0.930 . S
C2384 C2379 1.390 . S
C2384 C2383 1.387 . S
H2385 C2397 0.930 . S
H2386 C2399 0.930 . S
H2387 C2400 0.930 . S
H2388 C2404 0.959 . S
H2389 C2404 0.959 . S
H2390 C2404 0.961 . S
H2391 C2405 0.960 . S
H2392 C2405 0.961 . S
H2393 C2405 0.959 . S
H2394 C2408 0.929 . S
H2395 C2409 0.931 . S
H2396 C2411 0.930 . S
C2397 H2385 0.930 . S
C2397 C2398 1.399 . S
C2397 C2402 1.399 . S
C2398 C2397 1.399 . S
C2398 C2399 1.376 . S
C2399 H2386 0.930 . S
C2399 C2398 1.376 . S
C2399 C2400 1.388 . S
C2400 H2387 0.930 . S
C2400 C2399 1.388 . S
C2400 C2401 1.390 . S
C2401 C2400 1.390 . S
C2401 C2402 1.394 . S
C2401 C2407 1.465 . S
C2402 C2397 1.399 . S
C2402 C2401 1.394 . S
C2402 C2403 1.516 . S
C2403 C2402 1.516 . S
C2403 C2404 1.502 . S
C2403 C2405 1.561 . S
C2403 C2406 1.526 . S
C2404 H2388 0.959 . S
C2404 H2389 0.959 . S
C2404 H2390 0.961 . S
C2404 C2403 1.502 . S
C2405 H2391 0.960 . S
C2405 H2392 0.961 . S
C2405 H2393 0.959 . S
C2405 C2403 1.561 . S
C2406 C2403 1.526 . S
C2406 C2407 1.396 . S
C2406 C2411 1.390 . S
C2407 C2401 1.465 . S
C2407 C2406 1.396 . S
C2407 C2408 1.399 . S
C2408 H2394 0.929 . S
C2408 C2407 1.399 . S
C2408 C2409 1.385 . S
C2409 H2395 0.931 . S
C2409 C2408 1.385 . S
C2409 C2410 1.389 . S
C2410 C2409 1.389 . S
C2410 C2411 1.387 . S
C2411 H2396 0.930 . S
C2411 C2406 1.390 . S
C2411 C2410 1.387 . S
H2412 C2424 0.930 . S
H2413 C2426 0.930 . S
H2414 C2427 0.930 . S
H2415 C2431 0.959 . S
H2416 C2431 0.959 . S
H2417 C2431 0.961 . S
H2418 C2432 0.960 . S
H2419 C2432 0.961 . S
H2420 C2432 0.959 . S
H2421 C2435 0.929 . S
H2422 C2436 0.931 . S
H2423 C2438 0.930 . S
C2424 H2412 0.930 . S
C2424 C2425 1.399 . S
C2424 C2429 1.399 . S
C2425 C2424 1.399 . S
C2425 C2426 1.376 . S
C2426 H2413 0.930 . S
C2426 C2425 1.376 . S
C2426 C2427 1.388 . S
C2427 H2414 0.930 . S
C2427 C2426 1.388 . S
C2427 C2428 1.390 . S
C2428 C2427 1.390 . S
C2428 C2429 1.394 . S
C2428 C2434 1.465 . S
C2429 C2424 1.399 . S
C2429 C2428 1.394 . S
C2429 C2430 1.516 . S
C2430 C2429 1.516 . S
C2430 C2431 1.502 . S
C2430 C2432 1.561 . S
C2430 C2433 1.526 . S
C2431 H2415 0.959 . S
C2431 H2416 0.959 . S
C2431 H2417 0.961 . S
C2431 C2430 1.502 . S
C2432 H2418 0.960 . S
C2432 H2419 0.961 . S
C2432 H2420 0.959 . S
C2432 C2430 1.561 . S
C2433 C2430 1.526 . S
C2433 C2434 1.396 . S
C2433 C2438 1.390 . S
C2434 C2428 1.465 . S
C2434 C2433 1.396 . S
C2434 C2435 1.399 . S
C2435 H2421 0.929 . S
C2435 C2434 1.399 . S
C2435 C2436 1.385 . S
C2436 H2422 0.931 . S
C2436 C2435 1.385 . S
C2436 C2437 1.389 . S
C2437 C2436 1.389 . S
C2437 C2438 1.387 . S
C2438 H2423 0.930 . S
C2438 C2433 1.390 . S
C2438 C2437 1.387 . S
H2439 C2451 0.930 . S
H2440 C2453 0.930 . S
H2441 C2454 0.930 . S
H2442 C2458 0.959 . S
H2443 C2458 0.959 . S
H2444 C2458 0.961 . S
H2445 C2459 0.960 . S
H2446 C2459 0.961 . S
H2447 C2459 0.959 . S
H2448 C2462 0.929 . S
H2449 C2463 0.931 . S
H2450 C2465 0.930 . S
C2451 H2439 0.930 . S
C2451 C2452 1.399 . S
C2451 C2456 1.399 . S
C2452 C2451 1.399 . S
C2452 C2453 1.376 . S
C2453 H2440 0.930 . S
C2453 C2452 1.376 . S
C2453 C2454 1.388 . S
C2454 H2441 0.930 . S
C2454 C2453 1.388 . S
C2454 C2455 1.390 . S
C2455 C2454 1.390 . S
C2455 C2456 1.394 . S
C2455 C2461 1.465 . S
C2456 C2451 1.399 . S
C2456 C2455 1.394 . S
C2456 C2457 1.516 . S
C2457 C2456 1.516 . S
C2457 C2458 1.502 . S
C2457 C2459 1.561 . S
C2457 C2460 1.526 . S
C2458 H2442 0.959 . S
C2458 H2443 0.959 . S
C2458 H2444 0.961 . S
C2458 C2457 1.502 . S
C2459 H2445 0.960 . S
C2459 H2446 0.961 . S
C2459 H2447 0.959 . S
C2459 C2457 1.561 . S
C2460 C2457 1.526 . S
C2460 C2461 1.396 . S
C2460 C2465 1.390 . S
C2461 C2455 1.465 . S
C2461 C2460 1.396 . S
C2461 C2462 1.399 . S
C2462 H2448 0.929 . S
C2462 C2461 1.399 . S
C2462 C2463 1.385 . S
C2463 H2449 0.931 . S
C2463 C2462 1.385 . S
C2463 C2464 1.389 . S
C2464 C2463 1.389 . S
C2464 C2465 1.387 . S
C2465 H2450 0.930 . S
C2465 C2460 1.390 . S
C2465 C2464 1.387 . S
H2466 C2478 0.930 . S
H2467 C2480 0.930 . S
H2468 C2481 0.930 . S
H2469 C2485 0.959 . S
H2470 C2485 0.959 . S
H2471 C2485 0.961 . S
H2472 C2486 0.960 . S
H2473 C2486 0.961 . S
H2474 C2486 0.959 . S
H2475 C2489 0.929 . S
H2476 C2490 0.931 . S
H2477 C2492 0.930 . S
C2478 H2466 0.930 . S
C2478 C2479 1.399 . S
C2478 C2483 1.399 . S
C2479 C2478 1.399 . S
C2479 C2480 1.376 . S
C2480 H2467 0.930 . S
C2480 C2479 1.376 . S
C2480 C2481 1.388 . S
C2481 H2468 0.930 . S
C2481 C2480 1.388 . S
C2481 C2482 1.390 . S
C2482 C2481 1.390 . S
C2482 C2483 1.394 . S
C2482 C2488 1.465 . S
C2483 C2478 1.399 . S
C2483 C2482 1.394 . S
C2483 C2484 1.516 . S
C2484 C2483 1.516 . S
C2484 C2485 1.502 . S
C2484 C2486 1.561 . S
C2484 C2487 1.526 . S
C2485 H2469 0.959 . S
C2485 H2470 0.959 . S
C2485 H2471 0.961 . S
C2485 C2484 1.502 . S
C2486 H2472 0.960 . S
C2486 H2473 0.961 . S
C2486 H2474 0.959 . S
C2486 C2484 1.561 . S
C2487 C2484 1.526 . S
C2487 C2488 1.396 . S
C2487 C2492 1.390 . S
C2488 C2482 1.465 . S
C2488 C2487 1.396 . S
C2488 C2489 1.399 . S
C2489 H2475 0.929 . S
C2489 C2488 1.399 . S
C2489 C2490 1.385 1_565 S
C2490 H2476 0.931 . S
C2490 C2489 1.385 1_545 S
C2490 C2491 1.389 1_545 S
C2491 C2490 1.389 1_565 S
C2491 C2492 1.387 . S
C2492 H2477 0.930 . S
C2492 C2487 1.390 . S
C2492 C2491 1.387 . S
H2493 C2505 0.930 . S
H2494 C2507 0.930 . S
H2495 C2508 0.930 . S
H2496 C2512 0.959 . S
H2497 C2512 0.959 . S
H2498 C2512 0.961 . S
H2499 C2513 0.960 . S
H2500 C2513 0.961 . S
H2501 C2513 0.959 . S
H2502 C2516 0.929 . S
H2503 C2517 0.931 . S
H2504 C2519 0.930 . S
C2505 H2493 0.930 . S
C2505 C2506 1.399 . S
C2505 C2510 1.399 . S
C2506 C2505 1.399 . S
C2506 C2507 1.376 . S
C2507 H2494 0.930 . S
C2507 C2506 1.376 . S
C2507 C2508 1.388 . S
C2508 H2495 0.930 . S
C2508 C2507 1.388 . S
C2508 C2509 1.390 . S
C2509 C2508 1.390 . S
C2509 C2510 1.394 . S
C2509 C2515 1.465 . S
C2510 C2505 1.399 . S
C2510 C2509 1.394 . S
C2510 C2511 1.516 . S
C2511 C2510 1.516 . S
C2511 C2512 1.502 . S
C2511 C2513 1.561 . S
C2511 C2514 1.526 . S
C2512 H2496 0.959 . S
C2512 H2497 0.959 . S
C2512 H2498 0.961 . S
C2512 C2511 1.502 . S
C2513 H2499 0.960 . S
C2513 H2500 0.961 . S
C2513 H2501 0.959 . S
C2513 C2511 1.561 . S
C2514 C2511 1.526 . S
C2514 C2515 1.396 . S
C2514 C2519 1.390 . S
C2515 C2509 1.465 . S
C2515 C2514 1.396 . S
C2515 C2516 1.399 . S
C2516 H2502 0.929 . S
C2516 C2515 1.399 . S
C2516 C2517 1.385 . S
C2517 H2503 0.931 . S
C2517 C2516 1.385 . S
C2517 C2518 1.389 . S
C2518 C2517 1.389 . S
C2518 C2519 1.387 . S
C2519 H2504 0.930 . S
C2519 C2514 1.390 . S
C2519 C2518 1.387 . S
H2520 C2532 0.930 . S
H2521 C2534 0.930 . S
H2522 C2535 0.930 . S
H2523 C2539 0.959 . S
H2524 C2539 0.959 . S
H2525 C2539 0.961 . S
H2526 C2540 0.960 . S
H2527 C2540 0.961 . S
H2528 C2540 0.959 . S
H2529 C2543 0.929 1_565 S
H2530 C2544 0.931 1_565 S
H2531 C2546 0.930 . S
C2532 H2520 0.930 . S
C2532 C2533 1.399 . S
C2532 C2537 1.399 . S
C2533 C2532 1.399 . S
C2533 C2534 1.376 1_545 S
C2534 H2521 0.930 . S
C2534 C2533 1.376 1_565 S
C2534 C2535 1.388 . S
C2535 H2522 0.930 . S
C2535 C2534 1.388 . S
C2535 C2536 1.390 1_565 S
C2536 C2535 1.390 1_545 S
C2536 C2537 1.394 . S
C2536 C2542 1.465 . S
C2537 C2532 1.399 . S
C2537 C2536 1.394 . S
C2537 C2538 1.516 . S
C2538 C2537 1.516 . S
C2538 C2539 1.502 . S
C2538 C2540 1.561 . S
C2538 C2541 1.526 . S
C2539 H2523 0.959 . S
C2539 H2524 0.959 . S
C2539 H2525 0.961 . S
C2539 C2538 1.502 . S
C2540 H2526 0.960 . S
C2540 H2527 0.961 . S
C2540 H2528 0.959 . S
C2540 C2538 1.561 . S
C2541 C2538 1.526 . S
C2541 C2542 1.396 . S
C2541 C2546 1.390 . S
C2542 C2536 1.465 . S
C2542 C2541 1.396 . S
C2542 C2543 1.399 . S
C2543 H2529 0.929 1_545 S
C2543 C2542 1.399 . S
C2543 C2544 1.385 . S
C2544 H2530 0.931 1_545 S
C2544 C2543 1.385 . S
C2544 C2545 1.389 . S
C2545 C2544 1.389 . S
C2545 C2546 1.387 . S
C2546 H2531 0.930 . S
C2546 C2541 1.390 . S
C2546 C2545 1.387 . S
H2547 C2559 0.930 . S
H2548 C2561 0.930 . S
H2549 C2562 0.930 . S
H2550 C2566 0.959 . S
H2551 C2566 0.959 . S
H2552 C2566 0.961 . S
H2553 C2567 0.960 . S
H2554 C2567 0.961 . S
H2555 C2567 0.959 . S
H2556 C2570 0.929 . S
H2557 C2571 0.931 . S
H2558 C2573 0.930 . S
C2559 H2547 0.930 . S
C2559 C2560 1.399 . S
C2559 C2564 1.399 . S
C2560 C2559 1.399 . S
C2560 C2561 1.376 . S
C2561 H2548 0.930 . S
C2561 C2560 1.376 . S
C2561 C2562 1.388 . S
C2562 H2549 0.930 . S
C2562 C2561 1.388 . S
C2562 C2563 1.390 . S
C2563 C2562 1.390 . S
C2563 C2564 1.394 . S
C2563 C2569 1.465 . S
C2564 C2559 1.399 . S
C2564 C2563 1.394 . S
C2564 C2565 1.516 . S
C2565 C2564 1.516 . S
C2565 C2566 1.502 . S
C2565 C2567 1.561 . S
C2565 C2568 1.526 . S
C2566 H2550 0.959 . S
C2566 H2551 0.959 . S
C2566 H2552 0.961 . S
C2566 C2565 1.502 . S
C2567 H2553 0.960 . S
C2567 H2554 0.961 . S
C2567 H2555 0.959 . S
C2567 C2565 1.561 . S
C2568 C2565 1.526 . S
C2568 C2569 1.396 . S
C2568 C2573 1.390 . S
C2569 C2563 1.465 . S
C2569 C2568 1.396 . S
C2569 C2570 1.399 . S
C2570 H2556 0.929 . S
C2570 C2569 1.399 . S
C2570 C2571 1.385 . S
C2571 H2557 0.931 . S
C2571 C2570 1.385 . S
C2571 C2572 1.389 . S
C2572 C2571 1.389 . S
C2572 C2573 1.387 . S
C2573 H2558 0.930 . S
C2573 C2568 1.390 . S
C2573 C2572 1.387 . S
H2574 C2586 0.930 . S
H2575 C2588 0.930 . S
H2576 C2589 0.930 . S
H2577 C2593 0.959 . S
H2578 C2593 0.959 . S
H2579 C2593 0.961 . S
H2580 C2594 0.960 . S
H2581 C2594 0.961 . S
H2582 C2594 0.959 . S
H2583 C2597 0.929 . S
H2584 C2598 0.931 . S
H2585 C2600 0.930 . S
C2586 H2574 0.930 . S
C2586 C2587 1.399 . S
C2586 C2591 1.399 . S
C2587 C2586 1.399 . S
C2587 C2588 1.376 . S
C2588 H2575 0.930 . S
C2588 C2587 1.376 . S
C2588 C2589 1.388 . S
C2589 H2576 0.930 . S
C2589 C2588 1.388 . S
C2589 C2590 1.390 . S
C2590 C2589 1.390 . S
C2590 C2591 1.394 . S
C2590 C2596 1.465 . S
C2591 C2586 1.399 . S
C2591 C2590 1.394 . S
C2591 C2592 1.516 . S
C2592 C2591 1.516 . S
C2592 C2593 1.502 . S
C2592 C2594 1.561 . S
C2592 C2595 1.526 . S
C2593 H2577 0.959 . S
C2593 H2578 0.959 . S
C2593 H2579 0.961 . S
C2593 C2592 1.502 . S
C2594 H2580 0.960 . S
C2594 H2581 0.961 . S
C2594 H2582 0.959 . S
C2594 C2592 1.561 . S
C2595 C2592 1.526 . S
C2595 C2596 1.396 . S
C2595 C2600 1.390 . S
C2596 C2590 1.465 . S
C2596 C2595 1.396 . S
C2596 C2597 1.399 . S
C2597 H2583 0.929 . S
C2597 C2596 1.399 . S
C2597 C2598 1.385 . S
C2598 H2584 0.931 . S
C2598 C2597 1.385 . S
C2598 C2599 1.389 . S
C2599 C2598 1.389 . S
C2599 C2600 1.387 . S
C2600 H2585 0.930 . S
C2600 C2595 1.390 . S
C2600 C2599 1.387 . S
H2601 C2613 0.930 . S
H2602 C2615 0.930 . S
H2603 C2616 0.930 . S
H2604 C2620 0.959 . S
H2605 C2620 0.959 . S
H2606 C2620 0.961 . S
H2607 C2621 0.960 . S
H2608 C2621 0.961 . S
H2609 C2621 0.959 . S
H2610 C2624 0.929 . S
H2611 C2625 0.931 . S
H2612 C2627 0.930 . S
C2613 H2601 0.930 . S
C2613 C2614 1.399 . S
C2613 C2618 1.399 . S
C2614 C2613 1.399 . S
C2614 C2615 1.376 . S
C2615 H2602 0.930 . S
C2615 C2614 1.376 . S
C2615 C2616 1.388 . S
C2616 H2603 0.930 . S
C2616 C2615 1.388 . S
C2616 C2617 1.390 . S
C2617 C2616 1.390 . S
C2617 C2618 1.394 . S
C2617 C2623 1.465 . S
C2618 C2613 1.399 . S
C2618 C2617 1.394 . S
C2618 C2619 1.516 . S
C2619 C2618 1.516 . S
C2619 C2620 1.502 . S
C2619 C2621 1.561 . S
C2619 C2622 1.526 . S
C2620 H2604 0.959 . S
C2620 H2605 0.959 . S
C2620 H2606 0.961 . S
C2620 C2619 1.502 . S
C2621 H2607 0.960 . S
C2621 H2608 0.961 . S
C2621 H2609 0.959 . S
C2621 C2619 1.561 . S
C2622 C2619 1.526 . S
C2622 C2623 1.396 . S
C2622 C2627 1.390 . S
C2623 C2617 1.465 . S
C2623 C2622 1.396 . S
C2623 C2624 1.399 . S
C2624 H2610 0.929 . S
C2624 C2623 1.399 . S
C2624 C2625 1.385 . S
C2625 H2611 0.931 . S
C2625 C2624 1.385 . S
C2625 C2626 1.389 . S
C2626 C2625 1.389 . S
C2626 C2627 1.387 . S
C2627 H2612 0.930 . S
C2627 C2622 1.390 . S
C2627 C2626 1.387 . S
H2628 C2640 0.930 . S
H2629 C2642 0.930 . S
H2630 C2643 0.930 . S
H2631 C2647 0.959 1_545 S
H2632 C2647 0.959 . S
H2633 C2647 0.961 . S
H2634 C2648 0.960 . S
H2635 C2648 0.961 . S
H2636 C2648 0.959 . S
H2637 C2651 0.929 . S
H2638 C2652 0.931 . S
H2639 C2654 0.931 1_565 S
C2640 H2628 0.930 . S
C2640 C2641 1.399 . S
C2640 C2645 1.399 . S
C2641 C2640 1.399 . S
C2641 C2642 1.376 1_565 S
C2642 H2629 0.930 . S
C2642 C2641 1.376 1_545 S
C2642 C2643 1.388 . S
C2643 H2630 0.930 . S
C2643 C2642 1.388 . S
C2643 C2644 1.390 . S
C2644 C2643 1.390 . S
C2644 C2645 1.394 1_545 S
C2644 C2650 1.465 . S
C2645 C2640 1.399 . S
C2645 C2644 1.394 1_565 S
C2645 C2646 1.516 . S
C2646 C2645 1.516 . S
C2646 C2647 1.502 . S
C2646 C2648 1.561 . S
C2646 C2649 1.526 . S
C2647 H2631 0.959 1_565 S
C2647 H2632 0.959 . S
C2647 H2633 0.961 . S
C2647 C2646 1.502 . S
C2648 H2634 0.960 . S
C2648 H2635 0.961 . S
C2648 H2636 0.959 . S
C2648 C2646 1.561 . S
C2649 C2646 1.526 . S
C2649 C2650 1.396 1_565 S
C2649 C2654 1.390 1_565 S
C2650 C2644 1.465 . S
C2650 C2649 1.396 1_545 S
C2650 C2651 1.399 . S
C2651 H2637 0.929 . S
C2651 C2650 1.399 . S
C2651 C2652 1.385 . S
C2652 H2638 0.931 . S
C2652 C2651 1.385 . S
C2652 C2653 1.389 . S
C2653 C2652 1.389 . S
C2653 C2654 1.385 . S
C2654 H2639 0.931 1_545 S
C2654 C2649 1.390 1_545 S
C2654 C2653 1.385 . S
H2655 C2667 0.930 . S
H2656 C2669 0.930 . S
H2657 C2670 0.930 . S
H2658 C2674 0.959 . S
H2659 C2674 0.959 . S
H2660 C2674 0.961 . S
H2661 C2675 0.960 . S
H2662 C2675 0.961 . S
H2663 C2675 0.959 . S
H2664 C2678 0.929 . S
H2665 C2679 0.931 . S
H2666 C2681 0.930 . S
C2667 H2655 0.930 . S
C2667 C2668 1.399 . S
C2667 C2672 1.399 . S
C2668 C2667 1.399 . S
C2668 C2669 1.376 . S
C2669 H2656 0.930 . S
C2669 C2668 1.376 . S
C2669 C2670 1.388 . S
C2670 H2657 0.930 . S
C2670 C2669 1.388 . S
C2670 C2671 1.390 . S
C2671 C2670 1.390 . S
C2671 C2672 1.394 . S
C2671 C2677 1.465 . S
C2672 C2667 1.399 . S
C2672 C2671 1.394 . S
C2672 C2673 1.516 . S
C2673 C2672 1.516 . S
C2673 C2674 1.502 . S
C2673 C2675 1.561 . S
C2673 C2676 1.526 . S
C2674 H2658 0.959 . S
C2674 H2659 0.959 . S
C2674 H2660 0.961 . S
C2674 C2673 1.502 . S
C2675 H2661 0.960 . S
C2675 H2662 0.961 . S
C2675 H2663 0.959 . S
C2675 C2673 1.561 . S
C2676 C2673 1.526 . S
C2676 C2677 1.396 . S
C2676 C2681 1.390 . S
C2677 C2671 1.465 . S
C2677 C2676 1.396 . S
C2677 C2678 1.399 . S
C2678 H2664 0.929 . S
C2678 C2677 1.399 . S
C2678 C2679 1.385 . S
C2679 H2665 0.931 . S
C2679 C2678 1.385 . S
C2679 C2680 1.389 . S
C2680 C2679 1.389 . S
C2680 C2681 1.387 . S
C2681 H2666 0.930 . S
C2681 C2676 1.390 . S
C2681 C2680 1.387 . S
H2682 C2694 0.930 . S
H2683 C2696 0.930 . S
H2684 C2697 0.930 . S
H2685 C2701 0.959 . S
H2686 C2701 0.959 . S
H2687 C2701 0.961 . S
H2688 C2702 0.960 . S
H2689 C2702 0.961 . S
H2690 C2702 0.959 . S
H2691 C2705 0.929 . S
H2692 C2706 0.908 1_565 S
H2693 C2708 0.930 . S
C2694 H2682 0.930 . S
C2694 C2695 1.399 . S
C2694 C2699 1.399 . S
C2695 C2694 1.399 . S
C2695 C2696 1.376 1_545 S
C2696 H2683 0.930 . S
C2696 C2695 1.376 1_565 S
C2696 C2697 1.388 . S
C2697 H2684 0.930 . S
C2697 C2696 1.388 . S
C2697 C2698 1.390 1_565 S
C2698 C2697 1.390 1_545 S
C2698 C2699 1.394 . S
C2698 C2704 1.465 . S
C2699 C2694 1.399 . S
C2699 C2698 1.394 . S
C2699 C2700 1.516 . S
C2700 C2699 1.516 . S
C2700 C2701 1.502 . S
C2700 C2702 1.561 . S
C2700 C2703 1.526 . S
C2701 H2685 0.959 . S
C2701 H2686 0.959 . S
C2701 H2687 0.961 . S
C2701 C2700 1.502 . S
C2702 H2688 0.960 . S
C2702 H2689 0.961 . S
C2702 H2690 0.959 . S
C2702 C2700 1.561 . S
C2703 C2700 1.526 . S
C2703 C2704 1.396 . S
C2703 C2708 1.390 . S
C2704 C2698 1.465 . S
C2704 C2703 1.396 . S
C2704 C2705 1.399 1_545 S
C2705 H2691 0.929 . S
C2705 C2704 1.399 1_565 S
C2705 C2706 1.374 1_565 S
C2706 H2692 0.908 1_545 S
C2706 C2705 1.374 1_545 S
C2706 C2707 1.424 . S
C2707 C2706 1.424 . S
C2707 C2708 1.387 . S
C2708 H2693 0.930 . S
C2708 C2703 1.390 . S
C2708 C2707 1.387 . S
H2709 C2721 0.930 . S
H2710 C2723 0.930 . S
H2711 C2724 0.930 . S
H2712 C2728 0.959 . S
H2713 C2728 0.959 . S
H2714 C2728 0.961 . S
H2715 C2729 0.960 . S
H2716 C2729 0.961 . S
H2717 C2729 0.959 . S
H2718 C2732 0.929 . S
H2719 C2733 0.931 . S
H2720 C2735 0.930 . S
C2721 H2709 0.930 . S
C2721 C2722 1.399 . S
C2721 C2726 1.399 . S
C2722 C2721 1.399 . S
C2722 C2723 1.376 . S
C2723 H2710 0.930 . S
C2723 C2722 1.376 . S
C2723 C2724 1.388 . S
C2724 H2711 0.930 . S
C2724 C2723 1.388 . S
C2724 C2725 1.390 . S
C2725 C2724 1.390 . S
C2725 C2726 1.394 . S
C2725 C2731 1.465 . S
C2726 C2721 1.399 . S
C2726 C2725 1.394 . S
C2726 C2727 1.516 . S
C2727 C2726 1.516 . S
C2727 C2728 1.502 . S
C2727 C2729 1.561 . S
C2727 C2730 1.526 . S
C2728 H2712 0.959 . S
C2728 H2713 0.959 . S
C2728 H2714 0.961 . S
C2728 C2727 1.502 . S
C2729 H2715 0.960 . S
C2729 H2716 0.961 . S
C2729 H2717 0.959 . S
C2729 C2727 1.561 . S
C2730 C2727 1.526 . S
C2730 C2731 1.396 . S
C2730 C2735 1.390 . S
C2731 C2725 1.465 . S
C2731 C2730 1.396 . S
C2731 C2732 1.399 . S
C2732 H2718 0.929 . S
C2732 C2731 1.399 . S
C2732 C2733 1.385 . S
C2733 H2719 0.931 . S
C2733 C2732 1.385 . S
C2733 C2734 1.389 . S
C2734 C2733 1.389 . S
C2734 C2735 1.387 . S
C2735 H2720 0.930 . S
C2735 C2730 1.390 . S
C2735 C2734 1.387 . S
H2736 C2748 0.930 . S
H2737 C2750 0.930 . S
H2738 C2751 0.930 . S
H2739 C2755 0.959 . S
H2740 C2755 0.959 1_556 S
H2741 C2755 0.961 1_556 S
H2742 C2756 0.960 . S
H2743 C2756 0.961 . S
H2744 C2756 0.959 . S
H2745 C2759 0.929 . S
H2746 C2760 0.931 . S
H2747 C2762 0.901 1_556 S
C2748 H2736 0.930 . S
C2748 C2749 1.399 . S
C2748 C2753 1.399 . S
C2749 C2748 1.399 . S
C2749 C2750 1.376 . S
C2750 H2737 0.930 . S
C2750 C2749 1.376 . S
C2750 C2751 1.388 . S
C2751 H2738 0.930 . S
C2751 C2750 1.388 . S
C2751 C2752 1.390 . S
C2752 C2751 1.390 . S
C2752 C2753 1.394 . S
C2752 C2758 1.465 . S
C2753 C2748 1.399 . S
C2753 C2752 1.394 . S
C2753 C2754 1.516 . S
C2754 C2753 1.516 . S
C2754 C2755 1.502 . S
C2754 C2756 1.561 1_554 S
C2754 C2757 1.526 . S
C2755 H2739 0.959 . S
C2755 H2740 0.959 1_554 S
C2755 H2741 0.961 1_554 S
C2755 C2754 1.502 . S
C2756 H2742 0.960 . S
C2756 H2743 0.961 . S
C2756 H2744 0.959 . S
C2756 C2754 1.561 1_556 S
C2757 C2754 1.526 . S
C2757 C2758 1.396 . S
C2757 C2762 1.390 . S
C2758 C2752 1.465 . S
C2758 C2757 1.396 . S
C2758 C2759 1.399 . S
C2759 H2745 0.929 . S
C2759 C2758 1.399 . S
C2759 C2760 1.385 . S
C2760 H2746 0.931 . S
C2760 C2759 1.385 . S
C2760 C2761 1.389 . S
C2761 C2760 1.389 . S
C2761 C2762 1.387 . S
C2762 H2747 0.901 1_554 S
C2762 C2757 1.390 . S
C2762 C2761 1.387 . S
H2763 C2775 0.930 . S
H2764 C2777 0.930 . S
H2765 C2778 0.930 . S
H2766 C2782 0.959 1_554 S
H2767 C2782 0.959 . S
H2768 C2782 0.961 . S
H2769 C2783 0.960 . S
H2770 C2783 0.961 . S
H2771 C2783 0.959 . S
H2772 C2786 0.929 . S
H2773 C2787 0.931 . S
H2774 C2789 0.930 . S
C2775 H2763 0.930 . S
C2775 C2776 1.399 . S
C2775 C2780 1.399 . S
C2776 C2775 1.399 . S
C2776 C2777 1.376 . S
C2777 H2764 0.930 . S
C2777 C2776 1.376 . S
C2777 C2778 1.388 . S
C2778 H2765 0.930 . S
C2778 C2777 1.388 . S
C2778 C2779 1.390 . S
C2779 C2778 1.390 . S
C2779 C2780 1.394 . S
C2779 C2785 1.465 . S
C2780 C2775 1.399 . S
C2780 C2779 1.394 . S
C2780 C2781 1.516 . S
C2781 C2780 1.516 . S
C2781 C2782 1.502 1_554 S
C2781 C2783 1.561 1_554 S
C2781 C2784 1.526 . S
C2782 H2766 0.959 1_556 S
C2782 H2767 0.959 . S
C2782 H2768 0.961 . S
C2782 C2781 1.502 1_556 S
C2783 H2769 0.960 . S
C2783 H2770 0.961 . S
C2783 H2771 0.959 . S
C2783 C2781 1.561 1_556 S
C2784 C2781 1.526 . S
C2784 C2785 1.396 . S
C2784 C2789 1.390 . S
C2785 C2779 1.465 . S
C2785 C2784 1.396 . S
C2785 C2786 1.399 . S
C2786 H2772 0.929 . S
C2786 C2785 1.399 . S
C2786 C2787 1.385 . S
C2787 H2773 0.931 . S
C2787 C2786 1.385 . S
C2787 C2788 1.389 . S
C2788 C2787 1.389 . S
C2788 C2789 1.387 . S
C2789 H2774 0.930 . S
C2789 C2784 1.390 . S
C2789 C2788 1.387 . S
H2790 C2802 0.930 . S
H2791 C2804 0.930 . S
H2792 C2805 0.930 . S
H2793 C2809 0.959 . S
H2794 C2809 0.959 . S
H2795 C2809 0.961 . S
H2796 C2810 0.960 . S
H2797 C2810 0.961 . S
H2798 C2810 0.959 . S
H2799 C2813 0.929 . S
H2800 C2814 0.931 . S
H2801 C2816 0.930 . S
C2802 H2790 0.930 . S
C2802 C2803 1.399 . S
C2802 C2807 1.399 . S
C2803 C2802 1.399 . S
C2803 C2804 1.376 . S
C2804 H2791 0.930 . S
C2804 C2803 1.376 . S
C2804 C2805 1.388 . S
C2805 H2792 0.930 . S
C2805 C2804 1.388 . S
C2805 C2806 1.390 . S
C2806 C2805 1.390 . S
C2806 C2807 1.394 . S
C2806 C2812 1.465 . S
C2807 C2802 1.399 . S
C2807 C2806 1.394 . S
C2807 C2808 1.516 . S
C2808 C2807 1.516 . S
C2808 C2809 1.502 . S
C2808 C2810 1.561 . S
C2808 C2811 1.526 . S
C2809 H2793 0.959 . S
C2809 H2794 0.959 . S
C2809 H2795 0.961 . S
C2809 C2808 1.502 . S
C2810 H2796 0.960 . S
C2810 H2797 0.961 . S
C2810 H2798 0.959 . S
C2810 C2808 1.561 . S
C2811 C2808 1.526 . S
C2811 C2812 1.396 . S
C2811 C2816 1.390 . S
C2812 C2806 1.465 . S
C2812 C2811 1.396 . S
C2812 C2813 1.399 . S
C2813 H2799 0.929 . S
C2813 C2812 1.399 . S
C2813 C2814 1.385 . S
C2814 H2800 0.931 . S
C2814 C2813 1.385 . S
C2814 C2815 1.389 . S
C2815 C2814 1.389 . S
C2815 C2816 1.387 . S
C2816 H2801 0.930 . S
C2816 C2811 1.390 . S
C2816 C2815 1.387 . S
H2817 C2829 0.930 . S
H2818 C2831 0.930 . S
H2819 C2832 0.930 . S
H2820 C2836 0.959 . S
H2821 C2836 0.959 . S
H2822 C2836 0.961 . S
H2823 C2837 0.960 . S
H2824 C2837 0.961 . S
H2825 C2837 0.959 . S
H2826 C2840 0.929 . S
H2827 C2841 0.931 . S
H2828 C2843 0.930 . S
C2829 H2817 0.930 . S
C2829 C2830 1.399 . S
C2829 C2834 1.399 . S
C2830 C2829 1.399 . S
C2830 C2831 1.376 . S
C2831 H2818 0.930 . S
C2831 C2830 1.376 . S
C2831 C2832 1.388 . S
C2832 H2819 0.930 . S
C2832 C2831 1.388 . S
C2832 C2833 1.390 . S
C2833 C2832 1.390 . S
C2833 C2834 1.394 . S
C2833 C2839 1.465 . S
C2834 C2829 1.399 . S
C2834 C2833 1.394 . S
C2834 C2835 1.516 . S
C2835 C2834 1.516 . S
C2835 C2836 1.502 . S
C2835 C2837 1.561 . S
C2835 C2838 1.526 . S
C2836 H2820 0.959 . S
C2836 H2821 0.959 . S
C2836 H2822 0.961 . S
C2836 C2835 1.502 . S
C2837 H2823 0.960 . S
C2837 H2824 0.961 . S
C2837 H2825 0.959 . S
C2837 C2835 1.561 . S
C2838 C2835 1.526 . S
C2838 C2839 1.396 . S
C2838 C2843 1.390 . S
C2839 C2833 1.465 . S
C2839 C2838 1.396 . S
C2839 C2840 1.399 . S
C2840 H2826 0.929 . S
C2840 C2839 1.399 . S
C2840 C2841 1.385 . S
C2841 H2827 0.931 . S
C2841 C2840 1.385 . S
C2841 C2842 1.389 . S
C2842 C2841 1.389 . S
C2842 C2843 1.387 . S
C2843 H2828 0.930 . S
C2843 C2838 1.390 . S
C2843 C2842 1.387 . S
H2844 C2856 0.930 . S
H2845 C2858 0.930 . S
H2846 C2859 0.930 . S
H2847 C2863 0.959 . S
H2848 C2863 0.959 . S
H2849 C2863 0.961 . S
H2850 C2864 0.960 . S
H2851 C2864 0.961 . S
H2852 C2864 0.959 . S
H2853 C2867 0.929 . S
H2854 C2868 0.931 . S
H2855 C2870 0.930 . S
C2856 H2844 0.930 . S
C2856 C2857 1.399 . S
C2856 C2861 1.399 . S
C2857 C2856 1.399 . S
C2857 C2858 1.376 . S
C2858 H2845 0.930 . S
C2858 C2857 1.376 . S
C2858 C2859 1.388 . S
C2859 H2846 0.930 . S
C2859 C2858 1.388 . S
C2859 C2860 1.390 . S
C2860 C2859 1.390 . S
C2860 C2861 1.394 . S
C2860 C2866 1.465 . S
C2861 C2856 1.399 . S
C2861 C2860 1.394 . S
C2861 C2862 1.516 . S
C2862 C2861 1.516 . S
C2862 C2863 1.502 . S
C2862 C2864 1.561 . S
C2862 C2865 1.526 . S
C2863 H2847 0.959 . S
C2863 H2848 0.959 . S
C2863 H2849 0.961 . S
C2863 C2862 1.502 . S
C2864 H2850 0.960 . S
C2864 H2851 0.961 . S
C2864 H2852 0.959 . S
C2864 C2862 1.561 . S
C2865 C2862 1.526 . S
C2865 C2866 1.396 . S
C2865 C2870 1.390 . S
C2866 C2860 1.465 . S
C2866 C2865 1.396 . S
C2866 C2867 1.399 . S
C2867 H2853 0.929 . S
C2867 C2866 1.399 . S
C2867 C2868 1.385 . S
C2868 H2854 0.931 . S
C2868 C2867 1.385 . S
C2868 C2869 1.389 . S
C2869 C2868 1.389 . S
C2869 C2870 1.387 . S
C2870 H2855 0.930 . S
C2870 C2865 1.390 . S
C2870 C2869 1.387 . S
H2871 C2883 0.930 . S
H2872 C2885 0.930 . S
H2873 C2886 0.930 . S
H2874 C2890 0.959 . S
H2875 C2890 0.959 . S
H2876 C2890 0.961 . S
H2877 C2891 0.960 . S
H2878 C2891 0.961 . S
H2879 C2891 0.959 . S
H2880 C2894 0.929 . S
H2881 C2895 0.931 . S
H2882 C2897 0.930 . S
C2883 H2871 0.930 . S
C2883 C2884 1.399 . S
C2883 C2888 1.399 . S
C2884 C2883 1.399 . S
C2884 C2885 1.376 . S
C2885 H2872 0.930 . S
C2885 C2884 1.376 . S
C2885 C2886 1.388 . S
C2886 H2873 0.930 . S
C2886 C2885 1.388 . S
C2886 C2887 1.390 . S
C2887 C2886 1.390 . S
C2887 C2888 1.394 . S
C2887 C2893 1.465 . S
C2888 C2883 1.399 . S
C2888 C2887 1.394 . S
C2888 C2889 1.516 . S
C2889 C2888 1.516 . S
C2889 C2890 1.502 . S
C2889 C2891 1.561 . S
C2889 C2892 1.526 . S
C2890 H2874 0.959 . S
C2890 H2875 0.959 . S
C2890 H2876 0.961 . S
C2890 C2889 1.502 . S
C2891 H2877 0.960 . S
C2891 H2878 0.961 . S
C2891 H2879 0.959 . S
C2891 C2889 1.561 . S
C2892 C2889 1.526 . S
C2892 C2893 1.396 . S
C2892 C2897 1.390 . S
C2893 C2887 1.465 . S
C2893 C2892 1.396 . S
C2893 C2894 1.399 . S
C2894 H2880 0.929 . S
C2894 C2893 1.399 . S
C2894 C2895 1.385 . S
C2895 H2881 0.931 . S
C2895 C2894 1.385 . S
C2895 C2896 1.389 . S
C2896 C2895 1.389 . S
C2896 C2897 1.387 . S
C2897 H2882 0.930 . S
C2897 C2892 1.390 . S
C2897 C2896 1.387 . S
H2898 C2910 0.930 . S
H2899 C2912 0.930 . S
H2900 C2913 0.930 . S
H2901 C2917 0.959 . S
H2902 C2917 0.959 . S
H2903 C2917 0.961 . S
H2904 C2918 0.960 . S
H2905 C2918 0.961 . S
H2906 C2918 0.959 . S
H2907 C2921 0.929 . S
H2908 C2922 0.931 . S
H2909 C2924 0.930 . S
C2910 H2898 0.930 . S
C2910 C2911 1.399 . S
C2910 C2915 1.399 . S
C2911 C2910 1.399 . S
C2911 C2912 1.376 . S
C2912 H2899 0.930 . S
C2912 C2911 1.376 . S
C2912 C2913 1.388 . S
C2913 H2900 0.930 . S
C2913 C2912 1.388 . S
C2913 C2914 1.390 . S
C2914 C2913 1.390 . S
C2914 C2915 1.394 . S
C2914 C2920 1.465 . S
C2915 C2910 1.399 . S
C2915 C2914 1.394 . S
C2915 C2916 1.516 . S
C2916 C2915 1.516 . S
C2916 C2917 1.502 . S
C2916 C2918 1.561 . S
C2916 C2919 1.526 . S
C2917 H2901 0.959 . S
C2917 H2902 0.959 . S
C2917 H2903 0.961 . S
C2917 C2916 1.502 . S
C2918 H2904 0.960 . S
C2918 H2905 0.961 . S
C2918 H2906 0.959 . S
C2918 C2916 1.561 . S
C2919 C2916 1.526 . S
C2919 C2920 1.396 . S
C2919 C2924 1.390 . S
C2920 C2914 1.465 . S
C2920 C2919 1.396 . S
C2920 C2921 1.399 . S
C2921 H2907 0.929 . S
C2921 C2920 1.399 . S
C2921 C2922 1.385 . S
C2922 H2908 0.931 . S
C2922 C2921 1.385 . S
C2922 C2923 1.389 . S
C2923 C2922 1.389 . S
C2923 C2924 1.387 . S
C2924 H2909 0.930 . S
C2924 C2919 1.390 . S
C2924 C2923 1.387 . S
H2925 C2937 0.930 . S
H2926 C2939 0.930 . S
H2927 C2940 0.930 . S
H2928 C2944 0.959 . S
H2929 C2944 0.959 . S
H2930 C2944 0.961 . S
H2931 C2945 0.960 . S
H2932 C2945 0.961 . S
H2933 C2945 0.959 . S
H2934 C2948 0.929 . S
H2935 C2949 0.931 . S
H2936 C2951 0.930 . S
C2937 H2925 0.930 . S
C2937 C2938 1.399 . S
C2937 C2942 1.399 . S
C2938 C2937 1.399 . S
C2938 C2939 1.376 . S
C2939 H2926 0.930 . S
C2939 C2938 1.376 . S
C2939 C2940 1.388 . S
C2940 H2927 0.930 . S
C2940 C2939 1.388 . S
C2940 C2941 1.390 . S
C2941 C2940 1.390 . S
C2941 C2942 1.394 . S
C2941 C2947 1.465 . S
C2942 C2937 1.399 . S
C2942 C2941 1.394 . S
C2942 C2943 1.516 . S
C2943 C2942 1.516 . S
C2943 C2944 1.502 . S
C2943 C2945 1.561 . S
C2943 C2946 1.526 . S
C2944 H2928 0.959 . S
C2944 H2929 0.959 . S
C2944 H2930 0.961 . S
C2944 C2943 1.502 . S
C2945 H2931 0.960 . S
C2945 H2932 0.961 . S
C2945 H2933 0.959 . S
C2945 C2943 1.561 . S
C2946 C2943 1.526 . S
C2946 C2947 1.396 . S
C2946 C2951 1.390 . S
C2947 C2941 1.465 . S
C2947 C2946 1.396 . S
C2947 C2948 1.399 . S
C2948 H2934 0.929 . S
C2948 C2947 1.399 . S
C2948 C2949 1.385 . S
C2949 H2935 0.931 . S
C2949 C2948 1.385 . S
C2949 C2950 1.389 . S
C2950 C2949 1.389 . S
C2950 C2951 1.387 . S
C2951 H2936 0.930 . S
C2951 C2946 1.390 . S
C2951 C2950 1.387 . S
H2952 C2964 0.930 . S
H2953 C2966 0.930 . S
H2954 C2967 0.930 . S
H2955 C2971 0.959 . S
H2956 C2971 0.959 . S
H2957 C2971 0.961 . S
H2958 C2972 0.960 . S
H2959 C2972 0.961 . S
H2960 C2972 0.959 . S
H2961 C2975 0.929 . S
H2962 C2976 0.931 . S
H2963 C2978 0.930 . S
C2964 H2952 0.930 . S
C2964 C2965 1.399 . S
C2964 C2969 1.399 . S
C2965 C2964 1.399 . S
C2965 C2966 1.376 . S
C2966 H2953 0.930 . S
C2966 C2965 1.376 . S
C2966 C2967 1.388 . S
C2967 H2954 0.930 . S
C2967 C2966 1.388 . S
C2967 C2968 1.390 . S
C2968 C2967 1.390 . S
C2968 C2969 1.394 . S
C2968 C2974 1.465 . S
C2969 C2964 1.399 . S
C2969 C2968 1.394 . S
C2969 C2970 1.516 . S
C2970 C2969 1.516 . S
C2970 C2971 1.502 . S
C2970 C2972 1.561 . S
C2970 C2973 1.526 . S
C2971 H2955 0.959 . S
C2971 H2956 0.959 . S
C2971 H2957 0.961 . S
C2971 C2970 1.502 . S
C2972 H2958 0.960 . S
C2972 H2959 0.961 . S
C2972 H2960 0.959 . S
C2972 C2970 1.561 . S
C2973 C2970 1.526 . S
C2973 C2974 1.396 . S
C2973 C2978 1.390 . S
C2974 C2968 1.465 . S
C2974 C2973 1.396 . S
C2974 C2975 1.399 . S
C2975 H2961 0.929 . S
C2975 C2974 1.399 . S
C2975 C2976 1.385 . S
C2976 H2962 0.931 . S
C2976 C2975 1.385 . S
C2976 C2977 1.389 . S
C2977 C2976 1.389 . S
C2977 C2978 1.387 . S
C2978 H2963 0.930 . S
C2978 C2973 1.390 . S
C2978 C2977 1.387 . S
H2979 C2991 0.930 . S
H2980 C2993 0.930 . S
H2981 C2994 0.930 . S
H2982 C2998 0.959 . S
H2983 C2998 0.959 . S
H2984 C2998 0.961 . S
H2985 C2999 0.960 . S
H2986 C2999 0.961 . S
H2987 C2999 0.959 . S
H2988 C3002 0.929 . S
H2989 C3003 0.931 . S
H2990 C3005 0.930 . S
C2991 H2979 0.930 . S
C2991 C2992 1.399 . S
C2991 C2996 1.399 . S
C2992 C2991 1.399 . S
C2992 C2993 1.376 . S
C2993 H2980 0.930 . S
C2993 C2992 1.376 . S
C2993 C2994 1.388 . S
C2994 H2981 0.930 . S
C2994 C2993 1.388 . S
C2994 C2995 1.390 . S
C2995 C2994 1.390 . S
C2995 C2996 1.394 . S
C2995 C3001 1.465 . S
C2996 C2991 1.399 . S
C2996 C2995 1.394 . S
C2996 C2997 1.516 . S
C2997 C2996 1.516 . S
C2997 C2998 1.502 . S
C2997 C2999 1.561 . S
C2997 C3000 1.526 . S
C2998 H2982 0.959 . S
C2998 H2983 0.959 . S
C2998 H2984 0.961 . S
C2998 C2997 1.502 . S
C2999 H2985 0.960 . S
C2999 H2986 0.961 . S
C2999 H2987 0.959 . S
C2999 C2997 1.561 . S
C3000 C2997 1.526 . S
C3000 C3001 1.396 . S
C3000 C3005 1.390 . S
C3001 C2995 1.465 . S
C3001 C3000 1.396 . S
C3001 C3002 1.399 . S
C3002 H2988 0.929 . S
C3002 C3001 1.399 . S
C3002 C3003 1.385 . S
C3003 H2989 0.931 . S
C3003 C3002 1.385 . S
C3003 C3004 1.389 . S
C3004 C3003 1.389 . S
C3004 C3005 1.387 . S
C3005 H2990 0.930 . S
C3005 C3000 1.390 . S
C3005 C3004 1.387 . S
H3006 C3018 0.930 1_554 S
H3007 C3020 0.930 . S
H3008 C3021 0.930 . S
H3009 C3025 0.959 . S
H3010 C3025 0.959 . S
H3011 C3025 0.961 . S
H3012 C3026 0.960 . S
H3013 C3026 0.961 . S
H3014 C3026 0.959 . S
H3015 C3029 0.929 . S
H3016 C3030 0.943 . S
H3017 C3032 0.930 . S
C3018 H3006 0.930 1_556 S
C3018 C3019 1.399 . S
C3018 C3023 1.399 . S
C3019 C3018 1.399 . S
C3019 C3020 1.376 . S
C3020 H3007 0.930 . S
C3020 C3019 1.376 . S
C3020 C3021 1.388 . S
C3021 H3008 0.930 . S
C3021 C3020 1.388 . S
C3021 C3022 1.390 . S
C3022 C3021 1.390 . S
C3022 C3023 1.394 . S
C3022 C3028 1.465 . S
C3023 C3018 1.399 . S
C3023 C3022 1.394 . S
C3023 C3024 1.516 1_556 S
C3024 C3023 1.516 1_554 S
C3024 C3025 1.502 1_455 S
C3024 C3026 1.561 . S
C3024 C3027 1.526 . S
C3025 H3009 0.959 . S
C3025 H3010 0.959 . S
C3025 H3011 0.961 . S
C3025 C3024 1.502 1_655 S
C3026 H3012 0.960 . S
C3026 H3013 0.961 . S
C3026 H3014 0.959 . S
C3026 C3024 1.561 . S
C3027 C3024 1.526 . S
C3027 C3028 1.396 1_554 S
C3027 C3032 1.390 . S
C3028 C3022 1.465 . S
C3028 C3027 1.396 1_556 S
C3028 C3029 1.399 . S
C3029 H3015 0.929 . S
C3029 C3028 1.399 . S
C3029 C3030 1.394 . S
C3030 H3016 0.943 . S
C3030 C3029 1.394 . S
C3030 C3031 1.368 1_556 S
C3031 C3030 1.368 1_554 S
C3031 C3032 1.387 . S
C3032 H3017 0.930 . S
C3032 C3027 1.390 . S
C3032 C3031 1.387 . S
H3033 C3045 0.930 . S
H3034 C3047 0.930 . S
H3035 C3048 0.930 1_655 S
H3036 C3052 0.959 1_455 S
H3037 C3052 0.959 . S
H3038 C3052 0.961 1_455 S
H3039 C3053 0.960 . S
H3040 C3053 0.961 . S
H3041 C3053 0.959 . S
H3042 C3056 0.929 . S
H3043 C3057 0.931 . S
H3044 C3059 0.930 . S
C3045 H3033 0.930 . S
C3045 C3046 1.399 . S
C3045 C3050 1.399 1_455 S
C3046 C3045 1.399 . S
C3046 C3047 1.376 . S
C3047 H3034 0.930 . S
C3047 C3046 1.376 . S
C3047 C3048 1.388 . S
C3048 H3035 0.930 1_455 S
C3048 C3047 1.388 . S
C3048 C3049 1.390 1_455 S
C3049 C3048 1.390 1_655 S
C3049 C3050 1.394 . S
C3049 C3055 1.465 . S
C3050 C3045 1.399 1_655 S
C3050 C3049 1.394 . S
C3050 C3051 1.516 . S
C3051 C3050 1.516 . S
C3051 C3052 1.502 . S
C3051 C3053 1.561 . S
C3051 C3054 1.526 . S
C3052 H3036 0.959 1_655 S
C3052 H3037 0.959 . S
C3052 H3038 0.961 1_655 S
C3052 C3051 1.502 . S
C3053 H3039 0.960 . S
C3053 H3040 0.961 . S
C3053 H3041 0.959 . S
C3053 C3051 1.561 . S
C3054 C3051 1.526 . S
C3054 C3055 1.396 . S
C3054 C3059 1.390 . S
C3055 C3049 1.465 . S
C3055 C3054 1.396 . S
C3055 C3056 1.399 . S
C3056 H3042 0.929 . S
C3056 C3055 1.399 . S
C3056 C3057 1.385 . S
C3057 H3043 0.931 . S
C3057 C3056 1.385 . S
C3057 C3058 1.389 . S
C3058 C3057 1.389 . S
C3058 C3059 1.387 . S
C3059 H3044 0.930 . S
C3059 C3054 1.390 . S
C3059 C3058 1.387 . S
H3060 C3072 0.930 . S
H3061 C3074 0.930 . S
H3062 C3075 0.930 . S
H3063 C3079 0.959 . S
H3064 C3079 0.959 . S
H3065 C3079 0.961 . S
H3066 C3080 0.960 . S
H3067 C3080 0.961 . S
H3068 C3080 0.959 . S
H3069 C3083 0.929 . S
H3070 C3084 0.931 . S
H3071 C3086 0.930 . S
C3072 H3060 0.930 . S
C3072 C3073 1.399 . S
C3072 C3077 1.399 . S
C3073 C3072 1.399 . S
C3073 C3074 1.376 . S
C3074 H3061 0.930 . S
C3074 C3073 1.376 . S
C3074 C3075 1.388 . S
C3075 H3062 0.930 . S
C3075 C3074 1.388 . S
C3075 C3076 1.390 . S
C3076 C3075 1.390 . S
C3076 C3077 1.394 . S
C3076 C3082 1.465 . S
C3077 C3072 1.399 . S
C3077 C3076 1.394 . S
C3077 C3078 1.516 . S
C3078 C3077 1.516 . S
C3078 C3079 1.502 . S
C3078 C3080 1.561 . S
C3078 C3081 1.526 . S
C3079 H3063 0.959 . S
C3079 H3064 0.959 . S
C3079 H3065 0.961 . S
C3079 C3078 1.502 . S
C3080 H3066 0.960 . S
C3080 H3067 0.961 . S
C3080 H3068 0.959 . S
C3080 C3078 1.561 . S
C3081 C3078 1.526 . S
C3081 C3082 1.396 . S
C3081 C3086 1.390 . S
C3082 C3076 1.465 . S
C3082 C3081 1.396 . S
C3082 C3083 1.399 . S
C3083 H3069 0.929 . S
C3083 C3082 1.399 . S
C3083 C3084 1.385 . S
C3084 H3070 0.931 . S
C3084 C3083 1.385 . S
C3084 C3085 1.389 . S
C3085 C3084 1.389 . S
C3085 C3086 1.387 . S
C3086 H3071 0.930 . S
C3086 C3081 1.390 . S
C3086 C3085 1.387 . S
H3087 C3099 0.930 . S
H3088 C3101 0.930 . S
H3089 C3102 0.930 . S
H3090 C3106 0.959 . S
H3091 C3106 0.959 . S
H3092 C3106 0.961 . S
H3093 C3107 0.960 . S
H3094 C3107 0.961 . S
H3095 C3107 0.959 . S
H3096 C3110 0.929 . S
H3097 C3111 0.931 . S
H3098 C3113 0.930 . S
C3099 H3087 0.930 . S
C3099 C3100 1.399 . S
C3099 C3104 1.399 . S
C3100 C3099 1.399 . S
C3100 C3101 1.376 . S
C3101 H3088 0.930 . S
C3101 C3100 1.376 . S
C3101 C3102 1.388 . S
C3102 H3089 0.930 . S
C3102 C3101 1.388 . S
C3102 C3103 1.390 . S
C3103 C3102 1.390 . S
C3103 C3104 1.394 . S
C3103 C3109 1.465 1_455 S
C3104 C3099 1.399 . S
C3104 C3103 1.394 . S
C3104 C3105 1.516 . S
C3105 C3104 1.516 . S
C3105 C3106 1.502 . S
C3105 C3107 1.561 . S
C3105 C3108 1.526 1_455 S
C3106 H3090 0.959 . S
C3106 H3091 0.959 . S
C3106 H3092 0.961 . S
C3106 C3105 1.502 . S
C3107 H3093 0.960 . S
C3107 H3094 0.961 . S
C3107 H3095 0.959 . S
C3107 C3105 1.561 . S
C3108 C3105 1.526 1_655 S
C3108 C3109 1.396 . S
C3108 C3113 1.390 . S
C3109 C3103 1.465 1_655 S
C3109 C3108 1.396 . S
C3109 C3110 1.399 . S
C3110 H3096 0.929 . S
C3110 C3109 1.399 . S
C3110 C3111 1.385 . S
C3111 H3097 0.931 . S
C3111 C3110 1.385 . S
C3111 C3112 1.389 . S
C3112 C3111 1.389 . S
C3112 C3113 1.387 . S
C3113 H3098 0.930 . S
C3113 C3108 1.390 . S
C3113 C3112 1.387 . S
H3114 C3126 0.930 . S
H3115 C3128 0.930 . S
H3116 C3129 0.930 . S
H3117 C3133 0.959 . S
H3118 C3133 0.959 . S
H3119 C3133 0.961 . S
H3120 C3134 0.960 . S
H3121 C3134 0.961 . S
H3122 C3134 0.959 . S
H3123 C3137 0.929 . S
H3124 C3138 0.931 . S
H3125 C3140 0.930 1_655 S
C3126 H3114 0.930 . S
C3126 C3127 1.399 . S
C3126 C3131 1.399 . S
C3127 C3126 1.399 . S
C3127 C3128 1.376 1_655 S
C3128 H3115 0.930 . S
C3128 C3127 1.376 1_455 S
C3128 C3129 1.388 . S
C3129 H3116 0.930 . S
C3129 C3128 1.388 . S
C3129 C3130 1.390 . S
C3130 C3129 1.390 . S
C3130 C3131 1.394 1_455 S
C3130 C3136 1.465 . S
C3131 C3126 1.399 . S
C3131 C3130 1.394 1_655 S
C3131 C3132 1.516 . S
C3132 C3131 1.516 . S
C3132 C3133 1.502 . S
C3132 C3134 1.561 . S
C3132 C3135 1.526 1_655 S
C3133 H3117 0.959 . S
C3133 H3118 0.959 . S
C3133 H3119 0.961 . S
C3133 C3132 1.502 . S
C3134 H3120 0.960 . S
C3134 H3121 0.961 . S
C3134 H3122 0.959 . S
C3134 C3132 1.561 . S
C3135 C3132 1.526 1_455 S
C3135 C3136 1.396 . S
C3135 C3140 1.390 . S
C3136 C3130 1.465 . S
C3136 C3135 1.396 . S
C3136 C3137 1.399 . S
C3137 H3123 0.929 . S
C3137 C3136 1.399 . S
C3137 C3138 1.385 . S
C3138 H3124 0.931 . S
C3138 C3137 1.385 . S
C3138 C3139 1.389 . S
C3139 C3138 1.389 . S
C3139 C3140 1.387 . S
C3140 H3125 0.930 1_455 S
C3140 C3135 1.390 . S
C3140 C3139 1.387 . S
H3141 C3153 0.930 . S
H3142 C3155 0.930 . S
H3143 C3156 0.930 . S
H3144 C3160 0.959 . S
H3145 C3160 0.959 . S
H3146 C3160 0.961 . S
H3147 C3161 0.960 . S
H3148 C3161 0.961 . S
H3149 C3161 0.959 . S
H3150 C3164 0.929 . S
H3151 C3165 0.931 . S
H3152 C3167 0.930 . S
C3153 H3141 0.930 . S
C3153 C3154 1.399 . S
C3153 C3158 1.399 . S
C3154 C3153 1.399 . S
C3154 C3155 1.376 . S
C3155 H3142 0.930 . S
C3155 C3154 1.376 . S
C3155 C3156 1.388 . S
C3156 H3143 0.930 . S
C3156 C3155 1.388 . S
C3156 C3157 1.390 . S
C3157 C3156 1.390 . S
C3157 C3158 1.394 . S
C3157 C3163 1.465 . S
C3158 C3153 1.399 . S
C3158 C3157 1.394 . S
C3158 C3159 1.516 . S
C3159 C3158 1.516 . S
C3159 C3160 1.502 . S
C3159 C3161 1.561 . S
C3159 C3162 1.526 . S
C3160 H3144 0.959 . S
C3160 H3145 0.959 . S
C3160 H3146 0.961 . S
C3160 C3159 1.502 . S
C3161 H3147 0.960 . S
C3161 H3148 0.961 . S
C3161 H3149 0.959 . S
C3161 C3159 1.561 . S
C3162 C3159 1.526 . S
C3162 C3163 1.396 . S
C3162 C3167 1.390 . S
C3163 C3157 1.465 . S
C3163 C3162 1.396 . S
C3163 C3164 1.399 . S
C3164 H3150 0.929 . S
C3164 C3163 1.399 . S
C3164 C3165 1.385 . S
C3165 H3151 0.931 . S
C3165 C3164 1.385 . S
C3165 C3166 1.389 . S
C3166 C3165 1.389 . S
C3166 C3167 1.387 . S
C3167 H3152 0.930 . S
C3167 C3162 1.390 . S
C3167 C3166 1.387 . S
H3168 C3180 0.930 . S
H3169 C3182 0.930 . S
H3170 C3183 0.930 . S
H3171 C3187 0.959 . S
H3172 C3187 0.959 . S
H3173 C3187 0.961 . S
H3174 C3188 0.960 . S
H3175 C3188 0.961 . S
H3176 C3188 0.959 . S
H3177 C3191 0.929 . S
H3178 C3192 0.931 . S
H3179 C3194 0.930 . S
C3180 H3168 0.930 . S
C3180 C3181 1.399 . S
C3180 C3185 1.399 . S
C3181 C3180 1.399 . S
C3181 C3182 1.376 . S
C3182 H3169 0.930 . S
C3182 C3181 1.376 . S
C3182 C3183 1.388 . S
C3183 H3170 0.930 . S
C3183 C3182 1.388 . S
C3183 C3184 1.390 . S
C3184 C3183 1.390 . S
C3184 C3185 1.394 . S
C3184 C3190 1.465 . S
C3185 C3180 1.399 . S
C3185 C3184 1.394 . S
C3185 C3186 1.516 . S
C3186 C3185 1.516 . S
C3186 C3187 1.502 . S
C3186 C3188 1.561 . S
C3186 C3189 1.526 . S
C3187 H3171 0.959 . S
C3187 H3172 0.959 . S
C3187 H3173 0.961 . S
C3187 C3186 1.502 . S
C3188 H3174 0.960 . S
C3188 H3175 0.961 . S
C3188 H3176 0.959 . S
C3188 C3186 1.561 . S
C3189 C3186 1.526 . S
C3189 C3190 1.396 . S
C3189 C3194 1.390 . S
C3190 C3184 1.465 . S
C3190 C3189 1.396 . S
C3190 C3191 1.399 . S
C3191 H3177 0.929 . S
C3191 C3190 1.399 . S
C3191 C3192 1.385 . S
C3192 H3178 0.931 . S
C3192 C3191 1.385 . S
C3192 C3193 1.389 . S
C3193 C3192 1.389 . S
C3193 C3194 1.387 . S
C3194 H3179 0.930 . S
C3194 C3189 1.390 . S
C3194 C3193 1.387 . S
H3195 C3207 0.930 . S
H3196 C3209 0.930 . S
H3197 C3210 0.930 . S
H3198 C3214 0.959 . S
H3199 C3214 0.959 . S
H3200 C3214 0.961 . S
H3201 C3215 0.960 . S
H3202 C3215 0.961 . S
H3203 C3215 0.959 . S
H3204 C3218 0.929 . S
H3205 C3219 0.931 . S
H3206 C3221 0.930 . S
C3207 H3195 0.930 . S
C3207 C3208 1.399 . S
C3207 C3212 1.399 . S
C3208 C3207 1.399 . S
C3208 C3209 1.376 . S
C3209 H3196 0.930 . S
C3209 C3208 1.376 . S
C3209 C3210 1.388 . S
C3210 H3197 0.930 . S
C3210 C3209 1.388 . S
C3210 C3211 1.390 . S
C3211 C3210 1.390 . S
C3211 C3212 1.394 . S
C3211 C3217 1.465 . S
C3212 C3207 1.399 . S
C3212 C3211 1.394 . S
C3212 C3213 1.516 . S
C3213 C3212 1.516 . S
C3213 C3214 1.502 . S
C3213 C3215 1.561 . S
C3213 C3216 1.526 . S
C3214 H3198 0.959 . S
C3214 H3199 0.959 . S
C3214 H3200 0.961 . S
C3214 C3213 1.502 . S
C3215 H3201 0.960 . S
C3215 H3202 0.961 . S
C3215 H3203 0.959 . S
C3215 C3213 1.561 . S
C3216 C3213 1.526 . S
C3216 C3217 1.396 . S
C3216 C3221 1.390 . S
C3217 C3211 1.465 . S
C3217 C3216 1.396 . S
C3217 C3218 1.399 . S
C3218 H3204 0.929 . S
C3218 C3217 1.399 . S
C3218 C3219 1.385 . S
C3219 H3205 0.931 . S
C3219 C3218 1.385 . S
C3219 C3220 1.389 . S
C3220 C3219 1.389 . S
C3220 C3221 1.387 . S
C3221 H3206 0.930 . S
C3221 C3216 1.390 . S
C3221 C3220 1.387 . S
H3222 C3234 0.930 . S
H3223 C3236 0.930 . S
H3224 C3237 0.930 . S
H3225 C3241 0.959 . S
H3226 C3241 0.959 . S
H3227 C3241 0.961 . S
H3228 C3242 0.960 . S
H3229 C3242 0.961 . S
H3230 C3242 0.959 . S
H3231 C3245 0.929 . S
H3232 C3246 0.931 . S
H3233 C3248 0.930 . S
C3234 H3222 0.930 . S
C3234 C3235 1.399 . S
C3234 C3239 1.399 . S
C3235 C3234 1.399 . S
C3235 C3236 1.376 . S
C3236 H3223 0.930 . S
C3236 C3235 1.376 . S
C3236 C3237 1.388 . S
C3237 H3224 0.930 . S
C3237 C3236 1.388 . S
C3237 C3238 1.390 . S
C3238 C3237 1.390 . S
C3238 C3239 1.394 . S
C3238 C3244 1.465 . S
C3239 C3234 1.399 . S
C3239 C3238 1.394 . S
C3239 C3240 1.516 . S
C3240 C3239 1.516 . S
C3240 C3241 1.502 . S
C3240 C3242 1.561 . S
C3240 C3243 1.526 . S
C3241 H3225 0.959 . S
C3241 H3226 0.959 . S
C3241 H3227 0.961 . S
C3241 C3240 1.502 . S
C3242 H3228 0.960 . S
C3242 H3229 0.961 . S
C3242 H3230 0.959 . S
C3242 C3240 1.561 . S
C3243 C3240 1.526 . S
C3243 C3244 1.396 . S
C3243 C3248 1.390 . S
C3244 C3238 1.465 . S
C3244 C3243 1.396 . S
C3244 C3245 1.399 . S
C3245 H3231 0.929 . S
C3245 C3244 1.399 . S
C3245 C3246 1.385 . S
C3246 H3232 0.931 . S
C3246 C3245 1.385 . S
C3246 C3247 1.389 . S
C3247 C3246 1.389 . S
C3247 C3248 1.387 . S
C3248 H3233 0.930 . S
C3248 C3243 1.390 . S
C3248 C3247 1.387 . S
H3249 C3261 0.930 . S
H3250 C3263 0.930 . S
H3251 C3264 0.930 . S
H3252 C3268 0.959 . S
H3253 C3268 0.959 . S
H3254 C3268 0.961 . S
H3255 C3269 0.960 . S
H3256 C3269 0.961 . S
H3257 C3269 0.959 . S
H3258 C3272 0.929 . S
H3259 C3273 0.931 . S
H3260 C3275 0.930 . S
C3261 H3249 0.930 . S
C3261 C3262 1.399 . S
C3261 C3266 1.399 . S
C3262 C3261 1.399 . S
C3262 C3263 1.376 . S
C3263 H3250 0.930 . S
C3263 C3262 1.376 . S
C3263 C3264 1.388 . S
C3264 H3251 0.930 . S
C3264 C3263 1.388 . S
C3264 C3265 1.390 . S
C3265 C3264 1.390 . S
C3265 C3266 1.394 . S
C3265 C3271 1.465 . S
C3266 C3261 1.399 . S
C3266 C3265 1.394 . S
C3266 C3267 1.516 . S
C3267 C3266 1.516 . S
C3267 C3268 1.502 . S
C3267 C3269 1.561 . S
C3267 C3270 1.526 . S
C3268 H3252 0.959 . S
C3268 H3253 0.959 . S
C3268 H3254 0.961 . S
C3268 C3267 1.502 . S
C3269 H3255 0.960 . S
C3269 H3256 0.961 . S
C3269 H3257 0.959 . S
C3269 C3267 1.561 . S
C3270 C3267 1.526 . S
C3270 C3271 1.396 . S
C3270 C3275 1.390 . S
C3271 C3265 1.465 . S
C3271 C3270 1.396 . S
C3271 C3272 1.399 . S
C3272 H3258 0.929 . S
C3272 C3271 1.399 . S
C3272 C3273 1.385 . S
C3273 H3259 0.931 . S
C3273 C3272 1.385 . S
C3273 C3274 1.389 . S
C3274 C3273 1.389 . S
C3274 C3275 1.387 . S
C3275 H3260 0.930 . S
C3275 C3270 1.390 . S
C3275 C3274 1.387 . S
H3276 C3288 0.930 . S
H3277 C3290 0.930 . S
H3278 C3291 0.930 . S
H3279 C3295 0.959 . S
H3280 C3295 0.959 . S
H3281 C3295 0.961 . S
H3282 C3296 0.960 . S
H3283 C3296 0.961 . S
H3284 C3296 0.959 . S
H3285 C3299 0.929 . S
H3286 C3300 0.931 . S
H3287 C3302 0.930 . S
C3288 H3276 0.930 . S
C3288 C3289 1.399 . S
C3288 C3293 1.399 . S
C3289 C3288 1.399 . S
C3289 C3290 1.376 . S
C3290 H3277 0.930 . S
C3290 C3289 1.376 . S
C3290 C3291 1.388 . S
C3291 H3278 0.930 . S
C3291 C3290 1.388 . S
C3291 C3292 1.390 . S
C3292 C3291 1.390 . S
C3292 C3293 1.394 . S
C3292 C3298 1.465 . S
C3293 C3288 1.399 . S
C3293 C3292 1.394 . S
C3293 C3294 1.516 . S
C3294 C3293 1.516 . S
C3294 C3295 1.502 . S
C3294 C3296 1.561 . S
C3294 C3297 1.526 . S
C3295 H3279 0.959 . S
C3295 H3280 0.959 . S
C3295 H3281 0.961 . S
C3295 C3294 1.502 . S
C3296 H3282 0.960 . S
C3296 H3283 0.961 . S
C3296 H3284 0.959 . S
C3296 C3294 1.561 . S
C3297 C3294 1.526 . S
C3297 C3298 1.396 . S
C3297 C3302 1.390 . S
C3298 C3292 1.465 . S
C3298 C3297 1.396 . S
C3298 C3299 1.399 . S
C3299 H3285 0.929 . S
C3299 C3298 1.399 . S
C3299 C3300 1.385 . S
C3300 H3286 0.931 . S
C3300 C3299 1.385 . S
C3300 C3301 1.389 . S
C3301 C3300 1.389 . S
C3301 C3302 1.387 . S
C3302 H3287 0.930 . S
C3302 C3297 1.390 . S
C3302 C3301 1.387 . S
H3303 C3315 0.930 . S
H3304 C3317 0.930 . S
H3305 C3318 0.930 . S
H3306 C3322 0.959 . S
H3307 C3322 0.959 . S
H3308 C3322 0.961 . S
H3309 C3323 0.960 . S
H3310 C3323 0.961 . S
H3311 C3323 0.959 . S
H3312 C3326 0.929 . S
H3313 C3327 0.931 . S
H3314 C3329 0.930 . S
C3315 H3303 0.930 . S
C3315 C3316 1.399 . S
C3315 C3320 1.399 . S
C3316 C3315 1.399 . S
C3316 C3317 1.376 . S
C3317 H3304 0.930 . S
C3317 C3316 1.376 . S
C3317 C3318 1.388 . S
C3318 H3305 0.930 . S
C3318 C3317 1.388 . S
C3318 C3319 1.390 . S
C3319 C3318 1.390 . S
C3319 C3320 1.394 . S
C3319 C3325 1.465 . S
C3320 C3315 1.399 . S
C3320 C3319 1.394 . S
C3320 C3321 1.516 . S
C3321 C3320 1.516 . S
C3321 C3322 1.502 . S
C3321 C3323 1.561 . S
C3321 C3324 1.526 . S
C3322 H3306 0.959 . S
C3322 H3307 0.959 . S
C3322 H3308 0.961 . S
C3322 C3321 1.502 . S
C3323 H3309 0.960 . S
C3323 H3310 0.961 . S
C3323 H3311 0.959 . S
C3323 C3321 1.561 . S
C3324 C3321 1.526 . S
C3324 C3325 1.396 . S
C3324 C3329 1.390 . S
C3325 C3319 1.465 . S
C3325 C3324 1.396 . S
C3325 C3326 1.399 . S
C3326 H3312 0.929 . S
C3326 C3325 1.399 . S
C3326 C3327 1.385 . S
C3327 H3313 0.931 . S
C3327 C3326 1.385 . S
C3327 C3328 1.389 . S
C3328 C3327 1.389 . S
C3328 C3329 1.387 . S
C3329 H3314 0.930 . S
C3329 C3324 1.390 . S
C3329 C3328 1.387 . S
H3330 C3342 0.930 . S
H3331 C3344 0.930 . S
H3332 C3345 0.930 . S
H3333 C3349 0.959 . S
H3334 C3349 0.959 . S
H3335 C3349 0.961 . S
H3336 C3350 0.960 . S
H3337 C3350 0.961 . S
H3338 C3350 0.959 . S
H3339 C3353 0.929 . S
H3340 C3354 0.931 . S
H3341 C3356 0.930 . S
C3342 H3330 0.930 . S
C3342 C3343 1.399 . S
C3342 C3347 1.399 . S
C3343 C3342 1.399 . S
C3343 C3344 1.376 . S
C3344 H3331 0.930 . S
C3344 C3343 1.376 . S
C3344 C3345 1.388 . S
C3345 H3332 0.930 . S
C3345 C3344 1.388 . S
C3345 C3346 1.390 . S
C3346 C3345 1.390 . S
C3346 C3347 1.394 . S
C3346 C3352 1.465 . S
C3347 C3342 1.399 . S
C3347 C3346 1.394 . S
C3347 C3348 1.516 . S
C3348 C3347 1.516 . S
C3348 C3349 1.502 . S
C3348 C3350 1.561 . S
C3348 C3351 1.526 . S
C3349 H3333 0.959 . S
C3349 H3334 0.959 . S
C3349 H3335 0.961 . S
C3349 C3348 1.502 . S
C3350 H3336 0.960 . S
C3350 H3337 0.961 . S
C3350 H3338 0.959 . S
C3350 C3348 1.561 . S
C3351 C3348 1.526 . S
C3351 C3352 1.396 . S
C3351 C3356 1.390 . S
C3352 C3346 1.465 . S
C3352 C3351 1.396 . S
C3352 C3353 1.399 . S
C3353 H3339 0.929 . S
C3353 C3352 1.399 . S
C3353 C3354 1.385 . S
C3354 H3340 0.931 . S
C3354 C3353 1.385 . S
C3354 C3355 1.389 . S
C3355 C3354 1.389 . S
C3355 C3356 1.387 . S
C3356 H3341 0.930 . S
C3356 C3351 1.390 . S
C3356 C3355 1.387 . S
H3357 C3369 0.930 . S
H3358 C3371 0.930 . S
H3359 C3372 0.930 . S
H3360 C3376 0.959 . S
H3361 C3376 0.959 . S
H3362 C3376 0.961 . S
H3363 C3377 0.960 . S
H3364 C3377 0.961 . S
H3365 C3377 0.959 . S
H3366 C3380 0.929 . S
H3367 C3381 0.931 . S
H3368 C3383 0.930 . S
C3369 H3357 0.930 . S
C3369 C3370 1.399 . S
C3369 C3374 1.399 . S
C3370 C3369 1.399 . S
C3370 C3371 1.376 . S
C3371 H3358 0.930 . S
C3371 C3370 1.376 . S
C3371 C3372 1.388 . S
C3372 H3359 0.930 . S
C3372 C3371 1.388 . S
C3372 C3373 1.390 . S
C3373 C3372 1.390 . S
C3373 C3374 1.394 . S
C3373 C3379 1.465 . S
C3374 C3369 1.399 . S
C3374 C3373 1.394 . S
C3374 C3375 1.516 . S
C3375 C3374 1.516 . S
C3375 C3376 1.502 . S
C3375 C3377 1.561 . S
C3375 C3378 1.526 . S
C3376 H3360 0.959 . S
C3376 H3361 0.959 . S
C3376 H3362 0.961 . S
C3376 C3375 1.502 . S
C3377 H3363 0.960 . S
C3377 H3364 0.961 . S
C3377 H3365 0.959 . S
C3377 C3375 1.561 . S
C3378 C3375 1.526 . S
C3378 C3379 1.396 . S
C3378 C3383 1.390 . S
C3379 C3373 1.465 . S
C3379 C3378 1.396 . S
C3379 C3380 1.399 . S
C3380 H3366 0.929 . S
C3380 C3379 1.399 . S
C3380 C3381 1.385 . S
C3381 H3367 0.931 . S
C3381 C3380 1.385 . S
C3381 C3382 1.389 . S
C3382 C3381 1.389 . S
C3382 C3383 1.387 . S
C3383 H3368 0.930 . S
C3383 C3378 1.390 . S
C3383 C3382 1.387 . S
H3384 C3396 0.930 . S
H3385 C3398 0.930 . S
H3386 C3399 0.930 . S
H3387 C3403 0.959 . S
H3388 C3403 0.959 . S
H3389 C3403 0.961 . S
H3390 C3404 0.960 . S
H3391 C3404 0.961 . S
H3392 C3404 0.959 . S
H3393 C3407 0.929 . S
H3394 C3408 0.931 . S
H3395 C3410 0.930 . S
C3396 H3384 0.930 . S
C3396 C3397 1.399 . S
C3396 C3401 1.399 . S
C3397 C3396 1.399 . S
C3397 C3398 1.376 . S
C3398 H3385 0.930 . S
C3398 C3397 1.376 . S
C3398 C3399 1.388 . S
C3399 H3386 0.930 . S
C3399 C3398 1.388 . S
C3399 C3400 1.390 . S
C3400 C3399 1.390 . S
C3400 C3401 1.394 . S
C3400 C3406 1.465 . S
C3401 C3396 1.399 . S
C3401 C3400 1.394 . S
C3401 C3402 1.516 . S
C3402 C3401 1.516 . S
C3402 C3403 1.502 . S
C3402 C3404 1.561 . S
C3402 C3405 1.526 . S
C3403 H3387 0.959 . S
C3403 H3388 0.959 . S
C3403 H3389 0.961 . S
C3403 C3402 1.502 . S
C3404 H3390 0.960 . S
C3404 H3391 0.961 . S
C3404 H3392 0.959 . S
C3404 C3402 1.561 . S
C3405 C3402 1.526 . S
C3405 C3406 1.396 . S
C3405 C3410 1.390 . S
C3406 C3400 1.465 . S
C3406 C3405 1.396 . S
C3406 C3407 1.399 . S
C3407 H3393 0.929 . S
C3407 C3406 1.399 . S
C3407 C3408 1.385 . S
C3408 H3394 0.931 . S
C3408 C3407 1.385 . S
C3408 C3409 1.389 . S
C3409 C3408 1.389 . S
C3409 C3410 1.387 . S
C3410 H3395 0.930 . S
C3410 C3405 1.390 . S
C3410 C3409 1.387 . S
H3411 C3423 0.930 . S
H3412 C3425 0.930 . S
H3413 C3426 0.930 . S
H3414 C3430 0.959 . S
H3415 C3430 0.959 . S
H3416 C3430 0.961 . S
H3417 C3431 0.960 . S
H3418 C3431 0.961 . S
H3419 C3431 0.959 . S
H3420 C3434 0.929 . S
H3421 C3435 0.931 . S
H3422 C3437 0.930 . S
C3423 H3411 0.930 . S
C3423 C3424 1.399 . S
C3423 C3428 1.399 . S
C3424 C3423 1.399 . S
C3424 C3425 1.376 . S
C3425 H3412 0.930 . S
C3425 C3424 1.376 . S
C3425 C3426 1.388 . S
C3426 H3413 0.930 . S
C3426 C3425 1.388 . S
C3426 C3427 1.390 . S
C3427 C3426 1.390 . S
C3427 C3428 1.394 . S
C3427 C3433 1.465 . S
C3428 C3423 1.399 . S
C3428 C3427 1.394 . S
C3428 C3429 1.516 . S
C3429 C3428 1.516 . S
C3429 C3430 1.502 . S
C3429 C3431 1.561 . S
C3429 C3432 1.526 . S
C3430 H3414 0.959 . S
C3430 H3415 0.959 . S
C3430 H3416 0.961 . S
C3430 C3429 1.502 . S
C3431 H3417 0.960 . S
C3431 H3418 0.961 . S
C3431 H3419 0.959 . S
C3431 C3429 1.561 . S
C3432 C3429 1.526 . S
C3432 C3433 1.396 . S
C3432 C3437 1.390 . S
C3433 C3427 1.465 . S
C3433 C3432 1.396 . S
C3433 C3434 1.399 . S
C3434 H3420 0.929 . S
C3434 C3433 1.399 . S
C3434 C3435 1.385 . S
C3435 H3421 0.931 . S
C3435 C3434 1.385 . S
C3435 C3436 1.389 . S
C3436 C3435 1.389 . S
C3436 C3437 1.387 . S
C3437 H3422 0.930 . S
C3437 C3432 1.390 . S
C3437 C3436 1.387 . S
H3438 C3450 0.930 . S
H3439 C3452 0.930 . S
H3440 C3453 0.930 . S
H3441 C3457 0.959 . S
H3442 C3457 0.959 . S
H3443 C3457 0.961 . S
H3444 C3458 0.960 . S
H3445 C3458 0.961 . S
H3446 C3458 0.959 . S
H3447 C3461 0.929 . S
H3448 C3462 0.931 . S
H3449 C3464 0.930 . S
C3450 H3438 0.930 . S
C3450 C3451 1.399 . S
C3450 C3455 1.399 . S
C3451 C3450 1.399 . S
C3451 C3452 1.376 . S
C3452 H3439 0.930 . S
C3452 C3451 1.376 . S
C3452 C3453 1.388 . S
C3453 H3440 0.930 . S
C3453 C3452 1.388 . S
C3453 C3454 1.390 . S
C3454 C3453 1.390 . S
C3454 C3455 1.394 . S
C3454 C3460 1.465 . S
C3455 C3450 1.399 . S
C3455 C3454 1.394 . S
C3455 C3456 1.516 . S
C3456 C3455 1.516 . S
C3456 C3457 1.502 . S
C3456 C3458 1.561 . S
C3456 C3459 1.526 . S
C3457 H3441 0.959 . S
C3457 H3442 0.959 . S
C3457 H3443 0.961 . S
C3457 C3456 1.502 . S
C3458 H3444 0.960 . S
C3458 H3445 0.961 . S
C3458 H3446 0.959 . S
C3458 C3456 1.561 . S
C3459 C3456 1.526 . S
C3459 C3460 1.396 . S
C3459 C3464 1.390 . S
C3460 C3454 1.465 . S
C3460 C3459 1.396 . S
C3460 C3461 1.399 . S
C3461 H3447 0.929 . S
C3461 C3460 1.399 . S
C3461 C3462 1.385 . S
C3462 H3448 0.931 . S
C3462 C3461 1.385 . S
C3462 C3463 1.389 . S
C3463 C3462 1.389 . S
C3463 C3464 1.387 . S
C3464 H3449 0.930 . S
C3464 C3459 1.390 . S
C3464 C3463 1.387 . S
H3465 C3477 0.930 . S
H3466 C3479 0.930 . S
H3467 C3480 0.930 1_545 S
H3468 C3484 0.959 . S
H3469 C3484 0.959 . S
H3470 C3484 0.961 . S
H3471 C3485 0.960 . S
H3472 C3485 0.961 . S
H3473 C3485 0.959 . S
H3474 C3488 0.929 . S
H3475 C3489 0.931 . S
H3476 C3491 0.930 . S
C3477 H3465 0.930 . S
C3477 C3478 1.399 1_556 S
C3477 C3482 1.399 . S
C3478 C3477 1.399 1_554 S
C3478 C3479 1.376 . S
C3479 H3466 0.930 . S
C3479 C3478 1.376 . S
C3479 C3480 1.388 . S
C3480 H3467 0.930 1_565 S
C3480 C3479 1.388 . S
C3480 C3481 1.390 . S
C3481 C3480 1.390 . S
C3481 C3482 1.394 1_554 S
C3481 C3487 1.465 1_565 S
C3482 C3477 1.399 . S
C3482 C3481 1.394 1_556 S
C3482 C3483 1.516 . S
C3483 C3482 1.516 . S
C3483 C3484 1.502 . S
C3483 C3485 1.561 . S
C3483 C3486 1.547 . S
C3484 H3468 0.959 . S
C3484 H3469 0.959 . S
C3484 H3470 0.961 . S
C3484 C3483 1.502 . S
C3485 H3471 0.960 . S
C3485 H3472 0.961 . S
C3485 H3473 0.959 . S
C3485 C3483 1.561 . S
C3486 C3483 1.547 . S
C3486 C3487 1.386 1_566 S
C3486 C3491 1.379 1_565 S
C3487 C3481 1.465 1_545 S
C3487 C3486 1.386 1_544 S
C3487 C3488 1.399 . S
C3488 H3474 0.929 . S
C3488 C3487 1.399 . S
C3488 C3489 1.385 . S
C3489 H3475 0.931 . S
C3489 C3488 1.385 . S
C3489 C3490 1.389 . S
C3490 C3489 1.389 . S
C3490 C3491 1.387 1_554 S
C3491 H3476 0.930 . S
C3491 C3486 1.379 1_545 S
C3491 C3490 1.387 1_556 S
H3492 C3504 0.930 . S
H3493 C3506 0.930 . S
H3494 C3507 0.930 . S
H3495 C3511 0.959 . S
H3496 C3511 0.959 . S
H3497 C3511 0.961 . S
H3498 C3512 0.960 . S
H3499 C3512 0.961 . S
H3500 C3512 0.959 . S
H3501 C3515 0.929 . S
H3502 C3516 0.931 . S
H3503 C3518 0.930 . S
C3504 H3492 0.930 . S
C3504 C3505 1.399 . S
C3504 C3509 1.399 . S
C3505 C3504 1.399 . S
C3505 C3506 1.376 . S
C3506 H3493 0.930 . S
C3506 C3505 1.376 . S
C3506 C3507 1.388 . S
C3507 H3494 0.930 . S
C3507 C3506 1.388 . S
C3507 C3508 1.390 . S
C3508 C3507 1.390 . S
C3508 C3509 1.394 . S
C3508 C3514 1.465 . S
C3509 C3504 1.399 . S
C3509 C3508 1.394 . S
C3509 C3510 1.516 . S
C3510 C3509 1.516 . S
C3510 C3511 1.502 . S
C3510 C3512 1.561 . S
C3510 C3513 1.526 . S
C3511 H3495 0.959 . S
C3511 H3496 0.959 . S
C3511 H3497 0.961 . S
C3511 C3510 1.502 . S
C3512 H3498 0.960 . S
C3512 H3499 0.961 . S
C3512 H3500 0.959 . S
C3512 C3510 1.561 . S
C3513 C3510 1.526 . S
C3513 C3514 1.396 . S
C3513 C3518 1.390 . S
C3514 C3508 1.465 . S
C3514 C3513 1.396 . S
C3514 C3515 1.399 . S
C3515 H3501 0.929 . S
C3515 C3514 1.399 . S
C3515 C3516 1.385 . S
C3516 H3502 0.931 . S
C3516 C3515 1.385 . S
C3516 C3517 1.389 . S
C3517 C3516 1.389 . S
C3517 C3518 1.387 . S
C3518 H3503 0.930 . S
C3518 C3513 1.390 . S
C3518 C3517 1.387 . S
H3519 C3531 0.930 . S
H3520 C3533 0.930 . S
H3521 C3534 0.930 . S
H3522 C3538 0.959 . S
H3523 C3538 0.959 . S
H3524 C3538 0.961 . S
H3525 C3539 0.960 . S
H3526 C3539 0.961 . S
H3527 C3539 0.959 . S
H3528 C3542 0.929 1_556 S
H3529 C3543 0.931 . S
H3530 C3545 0.930 . S
C3531 H3519 0.930 . S
C3531 C3532 1.399 . S
C3531 C3536 1.399 . S
C3532 C3531 1.399 . S
C3532 C3533 1.376 1_554 S
C3533 H3520 0.930 . S
C3533 C3532 1.376 1_556 S
C3533 C3534 1.388 . S
C3534 H3521 0.930 . S
C3534 C3533 1.388 . S
C3534 C3535 1.390 1_556 S
C3535 C3534 1.390 1_554 S
C3535 C3536 1.394 . S
C3535 C3541 1.465 . S
C3536 C3531 1.399 . S
C3536 C3535 1.394 . S
C3536 C3537 1.516 . S
C3537 C3536 1.516 . S
C3537 C3538 1.502 . S
C3537 C3539 1.561 . S
C3537 C3540 1.526 . S
C3538 H3522 0.959 . S
C3538 H3523 0.959 . S
C3538 H3524 0.961 . S
C3538 C3537 1.502 . S
C3539 H3525 0.960 . S
C3539 H3526 0.961 . S
C3539 H3527 0.959 . S
C3539 C3537 1.561 . S
C3540 C3537 1.526 . S
C3540 C3541 1.396 . S
C3540 C3545 1.390 . S
C3541 C3535 1.465 . S
C3541 C3540 1.396 . S
C3541 C3542 1.399 . S
C3542 H3528 0.929 1_554 S
C3542 C3541 1.399 . S
C3542 C3543 1.385 . S
C3543 H3529 0.931 . S
C3543 C3542 1.385 . S
C3543 C3544 1.389 . S
C3544 C3543 1.389 . S
C3544 C3545 1.387 . S
C3545 H3530 0.930 . S
C3545 C3540 1.390 . S
C3545 C3544 1.387 . S
H3546 C3558 0.930 . S
H3547 C3560 0.930 . S
H3548 C3561 0.930 . S
H3549 C3565 0.959 . S
H3550 C3565 0.959 . S
H3551 C3565 0.961 . S
H3552 C3566 0.960 . S
H3553 C3566 0.961 . S
H3554 C3566 0.959 . S
H3555 C3569 0.929 . S
H3556 C3570 0.931 . S
H3557 C3572 0.930 . S
C3558 H3546 0.930 . S
C3558 C3559 1.399 . S
C3558 C3563 1.399 . S
C3559 C3558 1.399 . S
C3559 C3560 1.376 . S
C3560 H3547 0.930 . S
C3560 C3559 1.376 . S
C3560 C3561 1.388 . S
C3561 H3548 0.930 . S
C3561 C3560 1.388 . S
C3561 C3562 1.390 . S
C3562 C3561 1.390 . S
C3562 C3563 1.394 . S
C3562 C3568 1.465 . S
C3563 C3558 1.399 . S
C3563 C3562 1.394 . S
C3563 C3564 1.516 . S
C3564 C3563 1.516 . S
C3564 C3565 1.502 . S
C3564 C3566 1.561 . S
C3564 C3567 1.526 . S
C3565 H3549 0.959 . S
C3565 H3550 0.959 . S
C3565 H3551 0.961 . S
C3565 C3564 1.502 . S
C3566 H3552 0.960 . S
C3566 H3553 0.961 . S
C3566 H3554 0.959 . S
C3566 C3564 1.561 . S
C3567 C3564 1.526 . S
C3567 C3568 1.396 . S
C3567 C3572 1.390 . S
C3568 C3562 1.465 . S
C3568 C3567 1.396 . S
C3568 C3569 1.399 . S
C3569 H3555 0.929 . S
C3569 C3568 1.399 . S
C3569 C3570 1.385 . S
C3570 H3556 0.931 . S
C3570 C3569 1.385 . S
C3570 C3571 1.389 . S
C3571 C3570 1.389 . S
C3571 C3572 1.387 . S
C3572 H3557 0.930 . S
C3572 C3567 1.390 . S
C3572 C3571 1.387 . S
H3573 C3585 0.930 . S
H3574 C3587 0.930 . S
H3575 C3588 0.930 . S
H3576 C3592 0.959 . S
H3577 C3592 0.959 . S
H3578 C3592 0.961 . S
H3579 C3593 0.960 . S
H3580 C3593 0.961 . S
H3581 C3593 0.959 . S
H3582 C3596 0.929 . S
H3583 C3597 0.931 . S
H3584 C3599 0.930 . S
C3585 H3573 0.930 . S
C3585 C3586 1.399 . S
C3585 C3590 1.399 . S
C3586 C3585 1.399 . S
C3586 C3587 1.376 . S
C3587 H3574 0.930 . S
C3587 C3586 1.376 . S
C3587 C3588 1.388 . S
C3588 H3575 0.930 . S
C3588 C3587 1.388 . S
C3588 C3589 1.390 . S
C3589 C3588 1.390 . S
C3589 C3590 1.394 . S
C3589 C3595 1.465 . S
C3590 C3585 1.399 . S
C3590 C3589 1.394 . S
C3590 C3591 1.516 . S
C3591 C3590 1.516 . S
C3591 C3592 1.502 . S
C3591 C3593 1.561 . S
C3591 C3594 1.526 . S
C3592 H3576 0.959 . S
C3592 H3577 0.959 . S
C3592 H3578 0.961 . S
C3592 C3591 1.502 . S
C3593 H3579 0.960 . S
C3593 H3580 0.961 . S
C3593 H3581 0.959 . S
C3593 C3591 1.561 . S
C3594 C3591 1.526 . S
C3594 C3595 1.396 . S
C3594 C3599 1.390 . S
C3595 C3589 1.465 . S
C3595 C3594 1.396 . S
C3595 C3596 1.399 . S
C3596 H3582 0.929 . S
C3596 C3595 1.399 . S
C3596 C3597 1.385 . S
C3597 H3583 0.931 . S
C3597 C3596 1.385 . S
C3597 C3598 1.389 . S
C3598 C3597 1.389 . S
C3598 C3599 1.387 . S
C3599 H3584 0.930 . S
C3599 C3594 1.390 . S
C3599 C3598 1.387 . S
H3600 C3612 0.930 . S
H3601 C3614 0.930 . S
H3602 C3615 0.930 . S
H3603 C3619 0.959 . S
H3604 C3619 0.959 . S
H3605 C3619 0.961 . S
H3606 C3620 0.960 . S
H3607 C3620 0.961 . S
H3608 C3620 0.959 . S
H3609 C3623 0.929 . S
H3610 C3624 0.931 . S
H3611 C3626 0.930 . S
C3612 H3600 0.930 . S
C3612 C3613 1.399 . S
C3612 C3617 1.399 . S
C3613 C3612 1.399 . S
C3613 C3614 1.376 . S
C3614 H3601 0.930 . S
C3614 C3613 1.376 . S
C3614 C3615 1.388 . S
C3615 H3602 0.930 . S
C3615 C3614 1.388 . S
C3615 C3616 1.390 . S
C3616 C3615 1.390 . S
C3616 C3617 1.394 . S
C3616 C3622 1.465 . S
C3617 C3612 1.399 . S
C3617 C3616 1.394 . S
C3617 C3618 1.516 . S
C3618 C3617 1.516 . S
C3618 C3619 1.502 . S
C3618 C3620 1.561 . S
C3618 C3621 1.526 . S
C3619 H3603 0.959 . S
C3619 H3604 0.959 . S
C3619 H3605 0.961 . S
C3619 C3618 1.502 . S
C3620 H3606 0.960 . S
C3620 H3607 0.961 . S
C3620 H3608 0.959 . S
C3620 C3618 1.561 . S
C3621 C3618 1.526 . S
C3621 C3622 1.396 . S
C3621 C3626 1.390 . S
C3622 C3616 1.465 . S
C3622 C3621 1.396 . S
C3622 C3623 1.399 . S
C3623 H3609 0.929 . S
C3623 C3622 1.399 . S
C3623 C3624 1.385 . S
C3624 H3610 0.931 . S
C3624 C3623 1.385 . S
C3624 C3625 1.389 . S
C3625 C3624 1.389 . S
C3625 C3626 1.387 . S
C3626 H3611 0.930 . S
C3626 C3621 1.390 . S
C3626 C3625 1.387 . S
H3627 C3639 0.930 . S
H3628 C3641 0.930 . S
H3629 C3642 0.930 . S
H3630 C3646 0.959 . S
H3631 C3646 0.959 . S
H3632 C3646 0.961 . S
H3633 C3647 0.960 . S
H3634 C3647 0.961 . S
H3635 C3647 0.959 . S
H3636 C3650 0.929 . S
H3637 C3651 0.931 . S
H3638 C3653 0.930 . S
C3639 H3627 0.930 . S
C3639 C3640 1.399 . S
C3639 C3644 1.399 . S
C3640 C3639 1.399 . S
C3640 C3641 1.376 . S
C3641 H3628 0.930 . S
C3641 C3640 1.376 . S
C3641 C3642 1.388 . S
C3642 H3629 0.930 . S
C3642 C3641 1.388 . S
C3642 C3643 1.390 . S
C3643 C3642 1.390 . S
C3643 C3644 1.394 . S
C3643 C3649 1.465 . S
C3644 C3639 1.399 . S
C3644 C3643 1.394 . S
C3644 C3645 1.516 . S
C3645 C3644 1.516 . S
C3645 C3646 1.502 . S
C3645 C3647 1.561 . S
C3645 C3648 1.526 . S
C3646 H3630 0.959 . S
C3646 H3631 0.959 . S
C3646 H3632 0.961 . S
C3646 C3645 1.502 . S
C3647 H3633 0.960 . S
C3647 H3634 0.961 . S
C3647 H3635 0.959 . S
C3647 C3645 1.561 . S
C3648 C3645 1.526 . S
C3648 C3649 1.396 . S
C3648 C3653 1.390 . S
C3649 C3643 1.465 . S
C3649 C3648 1.396 . S
C3649 C3650 1.399 . S
C3650 H3636 0.929 . S
C3650 C3649 1.399 . S
C3650 C3651 1.385 . S
C3651 H3637 0.931 . S
C3651 C3650 1.385 . S
C3651 C3652 1.389 . S
C3652 C3651 1.389 . S
C3652 C3653 1.387 . S
C3653 H3638 0.930 . S
C3653 C3648 1.390 . S
C3653 C3652 1.387 . S
H3654 C3666 0.930 . S
H3655 C3668 0.930 . S
H3656 C3669 0.930 . S
H3657 C3673 0.959 . S
H3658 C3673 0.959 . S
H3659 C3673 0.961 . S
H3660 C3674 0.960 . S
H3661 C3674 0.961 . S
H3662 C3674 0.959 . S
H3663 C3677 0.929 . S
H3664 C3678 0.931 . S
H3665 C3680 0.930 . S
C3666 H3654 0.930 . S
C3666 C3667 1.399 . S
C3666 C3671 1.399 . S
C3667 C3666 1.399 . S
C3667 C3668 1.376 . S
C3668 H3655 0.930 . S
C3668 C3667 1.376 . S
C3668 C3669 1.388 . S
C3669 H3656 0.930 . S
C3669 C3668 1.388 . S
C3669 C3670 1.390 . S
C3670 C3669 1.390 . S
C3670 C3671 1.394 . S
C3670 C3676 1.465 . S
C3671 C3666 1.399 . S
C3671 C3670 1.394 . S
C3671 C3672 1.516 . S
C3672 C3671 1.516 . S
C3672 C3673 1.502 . S
C3672 C3674 1.561 . S
C3672 C3675 1.526 . S
C3673 H3657 0.959 . S
C3673 H3658 0.959 . S
C3673 H3659 0.961 . S
C3673 C3672 1.502 . S
C3674 H3660 0.960 . S
C3674 H3661 0.961 . S
C3674 H3662 0.959 . S
C3674 C3672 1.561 . S
C3675 C3672 1.526 . S
C3675 C3676 1.396 . S
C3675 C3680 1.390 . S
C3676 C3670 1.465 . S
C3676 C3675 1.396 . S
C3676 C3677 1.399 . S
C3677 H3663 0.929 . S
C3677 C3676 1.399 . S
C3677 C3678 1.385 . S
C3678 H3664 0.931 . S
C3678 C3677 1.385 . S
C3678 C3679 1.389 . S
C3679 C3678 1.389 . S
C3679 C3680 1.387 . S
C3680 H3665 0.930 . S
C3680 C3675 1.390 . S
C3680 C3679 1.387 . S
H3681 C3693 0.930 . S
H3682 C3695 0.930 . S
H3683 C3696 0.930 . S
H3684 C3700 0.959 . S
H3685 C3700 0.959 . S
H3686 C3700 0.961 . S
H3687 C3701 0.960 . S
H3688 C3701 0.961 . S
H3689 C3701 0.959 . S
H3690 C3704 0.929 . S
H3691 C3705 0.931 . S
H3692 C3707 0.930 . S
C3693 H3681 0.930 . S
C3693 C3694 1.399 . S
C3693 C3698 1.399 . S
C3694 C3693 1.399 . S
C3694 C3695 1.376 . S
C3695 H3682 0.930 . S
C3695 C3694 1.376 . S
C3695 C3696 1.388 . S
C3696 H3683 0.930 . S
C3696 C3695 1.388 . S
C3696 C3697 1.390 . S
C3697 C3696 1.390 . S
C3697 C3698 1.394 . S
C3697 C3703 1.465 . S
C3698 C3693 1.399 . S
C3698 C3697 1.394 . S
C3698 C3699 1.516 . S
C3699 C3698 1.516 . S
C3699 C3700 1.502 . S
C3699 C3701 1.561 . S
C3699 C3702 1.526 . S
C3700 H3684 0.959 . S
C3700 H3685 0.959 . S
C3700 H3686 0.961 . S
C3700 C3699 1.502 . S
C3701 H3687 0.960 . S
C3701 H3688 0.961 . S
C3701 H3689 0.959 . S
C3701 C3699 1.561 . S
C3702 C3699 1.526 . S
C3702 C3703 1.396 . S
C3702 C3707 1.390 . S
C3703 C3697 1.465 . S
C3703 C3702 1.396 . S
C3703 C3704 1.399 . S
C3704 H3690 0.929 . S
C3704 C3703 1.399 . S
C3704 C3705 1.385 . S
C3705 H3691 0.931 . S
C3705 C3704 1.385 . S
C3705 C3706 1.389 . S
C3706 C3705 1.389 . S
C3706 C3707 1.387 . S
C3707 H3692 0.930 . S
C3707 C3702 1.390 . S
C3707 C3706 1.387 . S
H3708 C3720 0.930 . S
H3709 C3722 0.930 . S
H3710 C3723 0.930 . S
H3711 C3727 0.959 . S
H3712 C3727 0.959 . S
H3713 C3727 0.961 . S
H3714 C3728 0.960 . S
H3715 C3728 0.961 . S
H3716 C3728 0.959 . S
H3717 C3731 0.929 . S
H3718 C3732 0.931 1_554 S
H3719 C3734 0.930 . S
C3720 H3708 0.930 . S
C3720 C3721 1.399 . S
C3720 C3725 1.399 . S
C3721 C3720 1.399 . S
C3721 C3722 1.376 . S
C3722 H3709 0.930 . S
C3722 C3721 1.376 . S
C3722 C3723 1.388 . S
C3723 H3710 0.930 . S
C3723 C3722 1.388 . S
C3723 C3724 1.390 . S
C3724 C3723 1.390 . S
C3724 C3725 1.394 . S
C3724 C3730 1.465 . S
C3725 C3720 1.399 . S
C3725 C3724 1.394 . S
C3725 C3726 1.516 . S
C3726 C3725 1.516 . S
C3726 C3727 1.502 . S
C3726 C3728 1.561 . S
C3726 C3729 1.526 . S
C3727 H3711 0.959 . S
C3727 H3712 0.959 . S
C3727 H3713 0.961 . S
C3727 C3726 1.502 . S
C3728 H3714 0.960 . S
C3728 H3715 0.961 . S
C3728 H3716 0.959 . S
C3728 C3726 1.561 . S
C3729 C3726 1.526 . S
C3729 C3730 1.396 . S
C3729 C3734 1.390 . S
C3730 C3724 1.465 . S
C3730 C3729 1.396 . S
C3730 C3731 1.399 . S
C3731 H3717 0.929 . S
C3731 C3730 1.399 . S
C3731 C3732 1.385 . S
C3732 H3718 0.931 1_556 S
C3732 C3731 1.385 . S
C3732 C3733 1.389 . S
C3733 C3732 1.389 . S
C3733 C3734 1.387 . S
C3734 H3719 0.930 . S
C3734 C3729 1.390 . S
C3734 C3733 1.387 . S
H3735 C3747 0.930 . S
H3736 C3749 0.930 . S
H3737 C3750 0.930 . S
H3738 C3754 0.959 . S
H3739 C3754 0.959 . S
H3740 C3754 0.961 . S
H3741 C3755 0.960 . S
H3742 C3755 0.961 . S
H3743 C3755 0.959 . S
H3744 C3758 0.929 . S
H3745 C3759 0.931 . S
H3746 C3761 0.930 . S
C3747 H3735 0.930 . S
C3747 C3748 1.399 . S
C3747 C3752 1.399 . S
C3748 C3747 1.399 . S
C3748 C3749 1.376 . S
C3749 H3736 0.930 . S
C3749 C3748 1.376 . S
C3749 C3750 1.388 . S
C3750 H3737 0.930 . S
C3750 C3749 1.388 . S
C3750 C3751 1.390 . S
C3751 C3750 1.390 . S
C3751 C3752 1.394 . S
C3751 C3757 1.465 . S
C3752 C3747 1.399 . S
C3752 C3751 1.394 . S
C3752 C3753 1.516 . S
C3753 C3752 1.516 . S
C3753 C3754 1.502 . S
C3753 C3755 1.561 . S
C3753 C3756 1.526 . S
C3754 H3738 0.959 . S
C3754 H3739 0.959 . S
C3754 H3740 0.961 . S
C3754 C3753 1.502 . S
C3755 H3741 0.960 . S
C3755 H3742 0.961 . S
C3755 H3743 0.959 . S
C3755 C3753 1.561 . S
C3756 C3753 1.526 . S
C3756 C3757 1.396 . S
C3756 C3761 1.390 . S
C3757 C3751 1.465 . S
C3757 C3756 1.396 . S
C3757 C3758 1.399 . S
C3758 H3744 0.929 . S
C3758 C3757 1.399 . S
C3758 C3759 1.385 . S
C3759 H3745 0.931 . S
C3759 C3758 1.385 . S
C3759 C3760 1.389 . S
C3760 C3759 1.389 . S
C3760 C3761 1.387 . S
C3761 H3746 0.930 . S
C3761 C3756 1.390 . S
C3761 C3760 1.387 . S
H3762 C3774 0.930 . S
H3763 C3776 0.930 . S
H3764 C3777 0.930 . S
H3765 C3781 0.959 . S
H3766 C3781 0.959 . S
H3767 C3781 0.961 . S
H3768 C3782 0.960 . S
H3769 C3782 0.961 . S
H3770 C3782 0.959 . S
H3771 C3785 0.929 . S
H3772 C3786 0.931 . S
H3773 C3788 0.930 . S
C3774 H3762 0.930 . S
C3774 C3775 1.399 . S
C3774 C3779 1.399 . S
C3775 C3774 1.399 . S
C3775 C3776 1.376 . S
C3776 H3763 0.930 . S
C3776 C3775 1.376 . S
C3776 C3777 1.388 . S
C3777 H3764 0.930 . S
C3777 C3776 1.388 . S
C3777 C3778 1.390 . S
C3778 C3777 1.390 . S
C3778 C3779 1.394 . S
C3778 C3784 1.465 . S
C3779 C3774 1.399 . S
C3779 C3778 1.394 . S
C3779 C3780 1.516 . S
C3780 C3779 1.516 . S
C3780 C3781 1.502 . S
C3780 C3782 1.561 . S
C3780 C3783 1.526 . S
C3781 H3765 0.959 . S
C3781 H3766 0.959 . S
C3781 H3767 0.961 . S
C3781 C3780 1.502 . S
C3782 H3768 0.960 . S
C3782 H3769 0.961 . S
C3782 H3770 0.959 . S
C3782 C3780 1.561 . S
C3783 C3780 1.526 . S
C3783 C3784 1.396 . S
C3783 C3788 1.390 . S
C3784 C3778 1.465 . S
C3784 C3783 1.396 . S
C3784 C3785 1.399 . S
C3785 H3771 0.929 . S
C3785 C3784 1.399 . S
C3785 C3786 1.385 . S
C3786 H3772 0.931 . S
C3786 C3785 1.385 . S
C3786 C3787 1.389 . S
C3787 C3786 1.389 . S
C3787 C3788 1.387 . S
C3788 H3773 0.930 . S
C3788 C3783 1.390 . S
C3788 C3787 1.387 . S
H3789 C3801 0.930 . S
H3790 C3803 0.930 . S
H3791 C3804 0.930 . S
H3792 C3808 0.959 . S
H3793 C3808 0.959 . S
H3794 C3808 0.961 . S
H3795 C3809 0.960 . S
H3796 C3809 0.961 . S
H3797 C3809 0.959 . S
H3798 C3812 0.929 . S
H3799 C3813 0.931 . S
H3800 C3815 0.930 . S
C3801 H3789 0.930 . S
C3801 C3802 1.399 . S
C3801 C3806 1.399 . S
C3802 C3801 1.399 . S
C3802 C3803 1.376 . S
C3803 H3790 0.930 . S
C3803 C3802 1.376 . S
C3803 C3804 1.388 . S
C3804 H3791 0.930 . S
C3804 C3803 1.388 . S
C3804 C3805 1.390 . S
C3805 C3804 1.390 . S
C3805 C3806 1.394 . S
C3805 C3811 1.465 . S
C3806 C3801 1.399 . S
C3806 C3805 1.394 . S
C3806 C3807 1.516 . S
C3807 C3806 1.516 . S
C3807 C3808 1.502 . S
C3807 C3809 1.561 . S
C3807 C3810 1.526 . S
C3808 H3792 0.959 . S
C3808 H3793 0.959 . S
C3808 H3794 0.961 . S
C3808 C3807 1.502 . S
C3809 H3795 0.960 . S
C3809 H3796 0.961 . S
C3809 H3797 0.959 . S
C3809 C3807 1.561 . S
C3810 C3807 1.526 . S
C3810 C3811 1.396 . S
C3810 C3815 1.390 . S
C3811 C3805 1.465 . S
C3811 C3810 1.396 . S
C3811 C3812 1.399 . S
C3812 H3798 0.929 . S
C3812 C3811 1.399 . S
C3812 C3813 1.385 . S
C3813 H3799 0.931 . S
C3813 C3812 1.385 . S
C3813 C3814 1.389 . S
C3814 C3813 1.389 . S
C3814 C3815 1.387 . S
C3815 H3800 0.930 . S
C3815 C3810 1.390 . S
C3815 C3814 1.387 . S
H3816 C3828 0.930 . S
H3817 C3830 0.930 . S
H3818 C3831 0.930 . S
H3819 C3835 0.959 . S
H3820 C3835 0.959 . S
H3821 C3835 0.961 . S
H3822 C3836 0.960 . S
H3823 C3836 0.961 . S
H3824 C3836 0.959 . S
H3825 C3839 0.929 . S
H3826 C3840 0.931 . S
H3827 C3842 0.930 . S
C3828 H3816 0.930 . S
C3828 C3829 1.399 . S
C3828 C3833 1.399 . S
C3829 C3828 1.399 . S
C3829 C3830 1.376 . S
C3830 H3817 0.930 . S
C3830 C3829 1.376 . S
C3830 C3831 1.388 . S
C3831 H3818 0.930 . S
C3831 C3830 1.388 . S
C3831 C3832 1.390 . S
C3832 C3831 1.390 . S
C3832 C3833 1.394 . S
C3832 C3838 1.465 . S
C3833 C3828 1.399 . S
C3833 C3832 1.394 . S
C3833 C3834 1.516 . S
C3834 C3833 1.516 . S
C3834 C3835 1.502 . S
C3834 C3836 1.561 . S
C3834 C3837 1.526 . S
C3835 H3819 0.959 . S
C3835 H3820 0.959 . S
C3835 H3821 0.961 . S
C3835 C3834 1.502 . S
C3836 H3822 0.960 . S
C3836 H3823 0.961 . S
C3836 H3824 0.959 . S
C3836 C3834 1.561 . S
C3837 C3834 1.526 . S
C3837 C3838 1.396 . S
C3837 C3842 1.390 . S
C3838 C3832 1.465 . S
C3838 C3837 1.396 . S
C3838 C3839 1.399 . S
C3839 H3825 0.929 . S
C3839 C3838 1.399 . S
C3839 C3840 1.385 . S
C3840 H3826 0.931 . S
C3840 C3839 1.385 . S
C3840 C3841 1.389 . S
C3841 C3840 1.389 . S
C3841 C3842 1.387 . S
C3842 H3827 0.930 . S
C3842 C3837 1.390 . S
C3842 C3841 1.387 . S
H3843 C3855 0.930 . S
H3844 C3857 0.930 . S
H3845 C3858 0.930 . S
H3846 C3862 0.959 . S
H3847 C3862 0.959 . S
H3848 C3862 0.961 . S
H3849 C3863 0.960 . S
H3850 C3863 0.961 . S
H3851 C3863 0.959 . S
H3852 C3866 0.929 . S
H3853 C3867 0.931 . S
H3854 C3869 0.930 . S
C3855 H3843 0.930 . S
C3855 C3856 1.399 . S
C3855 C3860 1.399 . S
C3856 C3855 1.399 . S
C3856 C3857 1.376 . S
C3857 H3844 0.930 . S
C3857 C3856 1.376 . S
C3857 C3858 1.388 . S
C3858 H3845 0.930 . S
C3858 C3857 1.388 . S
C3858 C3859 1.390 . S
C3859 C3858 1.390 . S
C3859 C3860 1.394 . S
C3859 C3865 1.465 . S
C3860 C3855 1.399 . S
C3860 C3859 1.394 . S
C3860 C3861 1.516 . S
C3861 C3860 1.516 . S
C3861 C3862 1.502 . S
C3861 C3863 1.561 . S
C3861 C3864 1.526 . S
C3862 H3846 0.959 . S
C3862 H3847 0.959 . S
C3862 H3848 0.961 . S
C3862 C3861 1.502 . S
C3863 H3849 0.960 . S
C3863 H3850 0.961 . S
C3863 H3851 0.959 . S
C3863 C3861 1.561 . S
C3864 C3861 1.526 . S
C3864 C3865 1.396 . S
C3864 C3869 1.390 . S
C3865 C3859 1.465 . S
C3865 C3864 1.396 . S
C3865 C3866 1.399 . S
C3866 H3852 0.929 . S
C3866 C3865 1.399 . S
C3866 C3867 1.385 . S
C3867 H3853 0.931 . S
C3867 C3866 1.385 . S
C3867 C3868 1.389 . S
C3868 C3867 1.389 . S
C3868 C3869 1.387 . S
C3869 H3854 0.930 . S
C3869 C3864 1.390 . S
C3869 C3868 1.387 . S
H3870 C3882 0.930 . S
H3871 C3884 0.930 . S
H3872 C3885 0.930 . S
H3873 C3889 0.959 . S
H3874 C3889 0.959 . S
H3875 C3889 0.961 . S
H3876 C3890 0.960 . S
H3877 C3890 0.987 . S
H3878 C3890 0.959 1_455 S
H3879 C3893 0.929 . S
H3880 C3894 0.931 . S
H3881 C3896 0.930 . S
C3882 H3870 0.930 . S
C3882 C3883 1.399 . S
C3882 C3887 1.399 . S
C3883 C3882 1.399 . S
C3883 C3884 1.376 . S
C3884 H3871 0.930 . S
C3884 C3883 1.376 . S
C3884 C3885 1.388 . S
C3885 H3872 0.930 . S
C3885 C3884 1.388 . S
C3885 C3886 1.390 . S
C3886 C3885 1.390 . S
C3886 C3887 1.394 . S
C3886 C3892 1.465 . S
C3887 C3882 1.399 . S
C3887 C3886 1.394 . S
C3887 C3888 1.516 . S
C3888 C3887 1.516 . S
C3888 C3889 1.502 . S
C3888 C3890 1.561 . S
C3888 C3891 1.526 . S
C3889 H3873 0.959 . S
C3889 H3874 0.959 . S
C3889 H3875 0.961 . S
C3889 C3888 1.502 . S
C3890 H3876 0.960 . S
C3890 H3877 0.987 . S
C3890 H3878 0.959 1_655 S
C3890 C3888 1.561 . S
C3891 C3888 1.526 . S
C3891 C3892 1.396 . S
C3891 C3896 1.390 1_655 S
C3892 C3886 1.465 . S
C3892 C3891 1.396 . S
C3892 C3893 1.399 1_655 S
C3893 H3879 0.929 . S
C3893 C3892 1.399 1_455 S
C3893 C3894 1.385 . S
C3894 H3880 0.931 . S
C3894 C3893 1.385 . S
C3894 C3895 1.389 . S
C3895 C3894 1.389 . S
C3895 C3896 1.387 . S
C3896 H3881 0.930 . S
C3896 C3891 1.390 1_455 S
C3896 C3895 1.387 . S
H3897 C3909 0.930 . S
H3898 C3911 0.930 . S
H3899 C3912 0.930 . S
H3900 C3916 0.959 . S
H3901 C3916 0.959 . S
H3902 C3916 0.961 . S
H3903 C3917 0.960 . S
H3904 C3917 0.961 . S
H3905 C3917 0.959 . S
H3906 C3920 0.929 . S
H3907 C3921 0.931 . S
H3908 C3923 0.930 . S
C3909 H3897 0.930 . S
C3909 C3910 1.399 . S
C3909 C3914 1.399 . S
C3910 C3909 1.399 . S
C3910 C3911 1.376 . S
C3911 H3898 0.930 . S
C3911 C3910 1.376 . S
C3911 C3912 1.388 . S
C3912 H3899 0.930 . S
C3912 C3911 1.388 . S
C3912 C3913 1.390 . S
C3913 C3912 1.390 . S
C3913 C3914 1.394 . S
C3913 C3919 1.465 . S
C3914 C3909 1.399 . S
C3914 C3913 1.394 . S
C3914 C3915 1.516 . S
C3915 C3914 1.516 . S
C3915 C3916 1.502 . S
C3915 C3917 1.561 . S
C3915 C3918 1.526 . S
C3916 H3900 0.959 . S
C3916 H3901 0.959 . S
C3916 H3902 0.961 . S
C3916 C3915 1.502 . S
C3917 H3903 0.960 . S
C3917 H3904 0.961 . S
C3917 H3905 0.959 . S
C3917 C3915 1.561 . S
C3918 C3915 1.526 . S
C3918 C3919 1.396 . S
C3918 C3923 1.390 . S
C3919 C3913 1.465 . S
C3919 C3918 1.396 . S
C3919 C3920 1.399 . S
C3920 H3906 0.929 . S
C3920 C3919 1.399 . S
C3920 C3921 1.385 . S
C3921 H3907 0.931 . S
C3921 C3920 1.385 . S
C3921 C3922 1.389 . S
C3922 C3921 1.389 . S
C3922 C3923 1.387 . S
C3923 H3908 0.930 . S
C3923 C3918 1.390 . S
C3923 C3922 1.387 . S
H3924 C3936 0.930 . S
H3925 C3938 0.930 . S
H3926 C3939 0.930 . S
H3927 C3943 0.959 . S
H3928 C3943 0.959 . S
H3929 C3943 0.961 . S
H3930 C3944 0.960 . S
H3931 C3944 0.961 . S
H3932 C3944 0.959 . S
H3933 C3947 0.929 . S
H3934 C3948 0.931 . S
H3935 C3950 0.930 . S
C3936 H3924 0.930 . S
C3936 C3937 1.399 . S
C3936 C3941 1.399 . S
C3937 C3936 1.399 . S
C3937 C3938 1.376 . S
C3938 H3925 0.930 . S
C3938 C3937 1.376 . S
C3938 C3939 1.388 . S
C3939 H3926 0.930 . S
C3939 C3938 1.388 . S
C3939 C3940 1.390 . S
C3940 C3939 1.390 . S
C3940 C3941 1.394 . S
C3940 C3946 1.465 . S
C3941 C3936 1.399 . S
C3941 C3940 1.394 . S
C3941 C3942 1.516 . S
C3942 C3941 1.516 . S
C3942 C3943 1.502 . S
C3942 C3944 1.561 . S
C3942 C3945 1.526 . S
C3943 H3927 0.959 . S
C3943 H3928 0.959 . S
C3943 H3929 0.961 . S
C3943 C3942 1.502 . S
C3944 H3930 0.960 . S
C3944 H3931 0.961 . S
C3944 H3932 0.959 . S
C3944 C3942 1.561 . S
C3945 C3942 1.526 . S
C3945 C3946 1.396 . S
C3945 C3950 1.390 . S
C3946 C3940 1.465 . S
C3946 C3945 1.396 . S
C3946 C3947 1.399 . S
C3947 H3933 0.929 . S
C3947 C3946 1.399 . S
C3947 C3948 1.385 . S
C3948 H3934 0.931 . S
C3948 C3947 1.385 . S
C3948 C3949 1.389 . S
C3949 C3948 1.389 . S
C3949 C3950 1.387 . S
C3950 H3935 0.930 . S
C3950 C3945 1.390 . S
C3950 C3949 1.387 . S
H3951 C3963 0.930 . S
H3952 C3965 0.930 . S
H3953 C3966 0.930 . S
H3954 C3970 0.959 . S
H3955 C3970 0.959 . S
H3956 C3970 0.961 . S
H3957 C3971 0.960 . S
H3958 C3971 0.961 . S
H3959 C3971 0.959 . S
H3960 C3974 0.929 . S
H3961 C3975 0.931 . S
H3962 C3977 0.930 . S
C3963 H3951 0.930 . S
C3963 C3964 1.399 . S
C3963 C3968 1.399 . S
C3964 C3963 1.399 . S
C3964 C3965 1.376 . S
C3965 H3952 0.930 . S
C3965 C3964 1.376 . S
C3965 C3966 1.388 . S
C3966 H3953 0.930 . S
C3966 C3965 1.388 . S
C3966 C3967 1.390 . S
C3967 C3966 1.390 . S
C3967 C3968 1.394 . S
C3967 C3973 1.465 . S
C3968 C3963 1.399 . S
C3968 C3967 1.394 . S
C3968 C3969 1.516 . S
C3969 C3968 1.516 . S
C3969 C3970 1.502 . S
C3969 C3971 1.561 . S
C3969 C3972 1.526 . S
C3970 H3954 0.959 . S
C3970 H3955 0.959 . S
C3970 H3956 0.961 . S
C3970 C3969 1.502 . S
C3971 H3957 0.960 . S
C3971 H3958 0.961 . S
C3971 H3959 0.959 . S
C3971 C3969 1.561 . S
C3972 C3969 1.526 . S
C3972 C3973 1.396 . S
C3972 C3977 1.390 . S
C3973 C3967 1.465 . S
C3973 C3972 1.396 . S
C3973 C3974 1.399 . S
C3974 H3960 0.929 . S
C3974 C3973 1.399 . S
C3974 C3975 1.385 . S
C3975 H3961 0.931 . S
C3975 C3974 1.385 . S
C3975 C3976 1.389 . S
C3976 C3975 1.389 . S
C3976 C3977 1.387 . S
C3977 H3962 0.930 . S
C3977 C3972 1.390 . S
C3977 C3976 1.387 . S
H3978 C3990 0.930 . S
H3979 C3992 0.930 . S
H3980 C3993 0.930 . S
H3981 C3997 0.959 . S
H3982 C3997 0.959 . S
H3983 C3997 0.961 . S
H3984 C3998 0.960 . S
H3985 C3998 0.961 . S
H3986 C3998 0.959 . S
H3987 C4001 0.929 . S
H3988 C4002 0.931 . S
H3989 C4004 0.930 . S
C3990 H3978 0.930 . S
C3990 C3991 1.399 . S
C3990 C3995 1.399 . S
C3991 C3990 1.399 . S
C3991 C3992 1.376 . S
C3992 H3979 0.930 . S
C3992 C3991 1.376 . S
C3992 C3993 1.388 . S
C3993 H3980 0.930 . S
C3993 C3992 1.388 . S
C3993 C3994 1.390 . S
C3994 C3993 1.390 . S
C3994 C3995 1.394 . S
C3994 C4000 1.465 . S
C3995 C3990 1.399 . S
C3995 C3994 1.394 . S
C3995 C3996 1.516 . S
C3996 C3995 1.516 . S
C3996 C3997 1.502 . S
C3996 C3998 1.561 . S
C3996 C3999 1.526 . S
C3997 H3981 0.959 . S
C3997 H3982 0.959 . S
C3997 H3983 0.961 . S
C3997 C3996 1.502 . S
C3998 H3984 0.960 . S
C3998 H3985 0.961 . S
C3998 H3986 0.959 . S
C3998 C3996 1.561 . S
C3999 C3996 1.526 . S
C3999 C4000 1.396 . S
C3999 C4004 1.390 . S
C4000 C3994 1.465 . S
C4000 C3999 1.396 . S
C4000 C4001 1.399 . S
C4001 H3987 0.929 . S
C4001 C4000 1.399 . S
C4001 C4002 1.385 . S
C4002 H3988 0.931 . S
C4002 C4001 1.385 . S
C4002 C4003 1.389 . S
C4003 C4002 1.389 . S
C4003 C4004 1.387 . S
C4004 H3989 0.930 . S
C4004 C3999 1.390 . S
C4004 C4003 1.387 . S
H4005 C4017 0.930 . S
H4006 C4019 0.930 . S
H4007 C4020 0.930 . S
H4008 C4024 0.959 . S
H4009 C4024 0.959 . S
H4010 C4024 0.961 . S
H4011 C4025 0.960 . S
H4012 C4025 0.961 . S
H4013 C4025 0.959 . S
H4014 C4028 0.929 . S
H4015 C4029 0.931 . S
H4016 C4031 0.930 . S
C4017 H4005 0.930 . S
C4017 C4018 1.399 . S
C4017 C4022 1.399 . S
C4018 C4017 1.399 . S
C4018 C4019 1.376 . S
C4019 H4006 0.930 . S
C4019 C4018 1.376 . S
C4019 C4020 1.388 . S
C4020 H4007 0.930 . S
C4020 C4019 1.388 . S
C4020 C4021 1.390 . S
C4021 C4020 1.390 . S
C4021 C4022 1.394 . S
C4021 C4027 1.465 . S
C4022 C4017 1.399 . S
C4022 C4021 1.394 . S
C4022 C4023 1.516 . S
C4023 C4022 1.516 . S
C4023 C4024 1.502 . S
C4023 C4025 1.561 . S
C4023 C4026 1.526 . S
C4024 H4008 0.959 . S
C4024 H4009 0.959 . S
C4024 H4010 0.961 . S
C4024 C4023 1.502 . S
C4025 H4011 0.960 . S
C4025 H4012 0.961 . S
C4025 H4013 0.959 . S
C4025 C4023 1.561 . S
C4026 C4023 1.526 . S
C4026 C4027 1.396 . S
C4026 C4031 1.390 . S
C4027 C4021 1.465 . S
C4027 C4026 1.396 . S
C4027 C4028 1.399 . S
C4028 H4014 0.929 . S
C4028 C4027 1.399 . S
C4028 C4029 1.385 . S
C4029 H4015 0.931 . S
C4029 C4028 1.385 . S
C4029 C4030 1.389 . S
C4030 C4029 1.389 . S
C4030 C4031 1.387 . S
C4031 H4016 0.930 . S
C4031 C4026 1.390 . S
C4031 C4030 1.387 . S
H4032 C4044 0.930 . S
H4033 C4046 0.930 . S
H4034 C4047 0.930 . S
H4035 C4051 0.959 . S
H4036 C4051 0.959 . S
H4037 C4051 0.961 . S
H4038 C4052 0.960 . S
H4039 C4052 0.961 . S
H4040 C4052 0.959 . S
H4041 C4055 0.929 . S
H4042 C4056 0.931 . S
H4043 C4058 0.930 . S
C4044 H4032 0.930 . S
C4044 C4045 1.399 . S
C4044 C4049 1.399 . S
C4045 C4044 1.399 . S
C4045 C4046 1.376 . S
C4046 H4033 0.930 . S
C4046 C4045 1.376 . S
C4046 C4047 1.388 . S
C4047 H4034 0.930 . S
C4047 C4046 1.388 . S
C4047 C4048 1.390 . S
C4048 C4047 1.390 . S
C4048 C4049 1.394 . S
C4048 C4054 1.465 . S
C4049 C4044 1.399 . S
C4049 C4048 1.394 . S
C4049 C4050 1.516 . S
C4050 C4049 1.516 . S
C4050 C4051 1.502 . S
C4050 C4052 1.561 . S
C4050 C4053 1.526 . S
C4051 H4035 0.959 . S
C4051 H4036 0.959 . S
C4051 H4037 0.961 . S
C4051 C4050 1.502 . S
C4052 H4038 0.960 . S
C4052 H4039 0.961 . S
C4052 H4040 0.959 . S
C4052 C4050 1.561 . S
C4053 C4050 1.526 . S
C4053 C4054 1.396 . S
C4053 C4058 1.390 . S
C4054 C4048 1.465 . S
C4054 C4053 1.396 . S
C4054 C4055 1.399 . S
C4055 H4041 0.929 . S
C4055 C4054 1.399 . S
C4055 C4056 1.385 . S
C4056 H4042 0.931 . S
C4056 C4055 1.385 . S
C4056 C4057 1.389 . S
C4057 C4056 1.389 . S
C4057 C4058 1.387 . S
C4058 H4043 0.930 . S
C4058 C4053 1.390 . S
C4058 C4057 1.387 . S
H4059 C4071 0.930 . S
H4060 C4073 0.930 . S
H4061 C4074 0.930 . S
H4062 C4078 0.959 . S
H4063 C4078 0.959 . S
H4064 C4078 0.961 . S
H4065 C4079 0.960 . S
H4066 C4079 0.961 . S
H4067 C4079 0.959 . S
H4068 C4082 0.929 . S
H4069 C4083 0.931 1_545 S
H4070 C4085 0.930 . S
C4071 H4059 0.930 . S
C4071 C4072 1.399 . S
C4071 C4076 1.399 . S
C4072 C4071 1.399 . S
C4072 C4073 1.376 . S
C4073 H4060 0.930 . S
C4073 C4072 1.376 . S
C4073 C4074 1.388 . S
C4074 H4061 0.930 . S
C4074 C4073 1.388 . S
C4074 C4075 1.390 . S
C4075 C4074 1.390 . S
C4075 C4076 1.394 . S
C4075 C4081 1.465 . S
C4076 C4071 1.399 . S
C4076 C4075 1.394 . S
C4076 C4077 1.516 . S
C4077 C4076 1.516 . S
C4077 C4078 1.502 . S
C4077 C4079 1.561 . S
C4077 C4080 1.526 . S
C4078 H4062 0.959 . S
C4078 H4063 0.959 . S
C4078 H4064 0.961 . S
C4078 C4077 1.502 . S
C4079 H4065 0.960 . S
C4079 H4066 0.961 . S
C4079 H4067 0.959 . S
C4079 C4077 1.561 . S
C4080 C4077 1.526 . S
C4080 C4081 1.396 . S
C4080 C4085 1.390 . S
C4081 C4075 1.465 . S
C4081 C4080 1.396 . S
C4081 C4082 1.399 . S
C4082 H4068 0.929 . S
C4082 C4081 1.399 . S
C4082 C4083 1.385 . S
C4083 H4069 0.931 1_565 S
C4083 C4082 1.385 . S
C4083 C4084 1.389 . S
C4084 C4083 1.389 . S
C4084 C4085 1.387 . S
C4085 H4070 0.930 . S
C4085 C4080 1.390 . S
C4085 C4084 1.387 . S
H4086 C4098 0.930 . S
H4087 C4100 0.930 . S
H4088 C4101 0.930 . S
H4089 C4105 0.959 . S
H4090 C4105 0.959 . S
H4091 C4105 0.961 . S
H4092 C4106 0.960 . S
H4093 C4106 0.961 . S
H4094 C4106 0.959 . S
H4095 C4109 0.929 . S
H4096 C4110 0.931 . S
H4097 C4112 0.930 . S
C4098 H4086 0.930 . S
C4098 C4099 1.399 . S
C4098 C4103 1.399 . S
C4099 C4098 1.399 . S
C4099 C4100 1.376 . S
C4100 H4087 0.930 . S
C4100 C4099 1.376 . S
C4100 C4101 1.388 . S
C4101 H4088 0.930 . S
C4101 C4100 1.388 . S
C4101 C4102 1.390 . S
C4102 C4101 1.390 . S
C4102 C4103 1.394 . S
C4102 C4108 1.465 . S
C4103 C4098 1.399 . S
C4103 C4102 1.394 . S
C4103 C4104 1.516 . S
C4104 C4103 1.516 . S
C4104 C4105 1.502 . S
C4104 C4106 1.561 . S
C4104 C4107 1.526 . S
C4105 H4089 0.959 . S
C4105 H4090 0.959 . S
C4105 H4091 0.961 . S
C4105 C4104 1.502 . S
C4106 H4092 0.960 . S
C4106 H4093 0.961 . S
C4106 H4094 0.959 . S
C4106 C4104 1.561 . S
C4107 C4104 1.526 . S
C4107 C4108 1.396 . S
C4107 C4112 1.390 . S
C4108 C4102 1.465 . S
C4108 C4107 1.396 . S
C4108 C4109 1.399 . S
C4109 H4095 0.929 . S
C4109 C4108 1.399 . S
C4109 C4110 1.385 . S
C4110 H4096 0.931 . S
C4110 C4109 1.385 . S
C4110 C4111 1.389 . S
C4111 C4110 1.389 . S
C4111 C4112 1.387 . S
C4112 H4097 0.930 . S
C4112 C4107 1.390 . S
C4112 C4111 1.387 . S
H4113 C4125 0.930 . S
H4114 C4127 0.930 . S
H4115 C4128 0.930 . S
H4116 C4132 0.959 . S
H4117 C4132 0.959 . S
H4118 C4132 0.961 . S
H4119 C4133 0.960 . S
H4120 C4133 0.961 . S
H4121 C4133 0.959 . S
H4122 C4136 0.929 . S
H4123 C4137 0.931 . S
H4124 C4139 0.930 . S
C4125 H4113 0.930 . S
C4125 C4126 1.399 . S
C4125 C4130 1.399 . S
C4126 C4125 1.399 . S
C4126 C4127 1.376 1_554 S
C4127 H4114 0.930 . S
C4127 C4126 1.376 1_556 S
C4127 C4128 1.388 . S
C4128 H4115 0.930 . S
C4128 C4127 1.388 . S
C4128 C4129 1.390 1_556 S
C4129 C4128 1.390 1_554 S
C4129 C4130 1.394 . S
C4129 C4135 1.465 . S
C4130 C4125 1.399 . S
C4130 C4129 1.394 . S
C4130 C4131 1.516 . S
C4131 C4130 1.516 . S
C4131 C4132 1.502 . S
C4131 C4133 1.561 . S
C4131 C4134 1.526 . S
C4132 H4116 0.959 . S
C4132 H4117 0.959 . S
C4132 H4118 0.961 . S
C4132 C4131 1.502 . S
C4133 H4119 0.960 . S
C4133 H4120 0.961 . S
C4133 H4121 0.959 . S
C4133 C4131 1.561 . S
C4134 C4131 1.526 . S
C4134 C4135 1.396 . S
C4134 C4139 1.390 . S
C4135 C4129 1.465 . S
C4135 C4134 1.396 . S
C4135 C4136 1.399 1_554 S
C4136 H4122 0.929 . S
C4136 C4135 1.399 1_556 S
C4136 C4137 1.385 . S
C4137 H4123 0.931 . S
C4137 C4136 1.385 . S
C4137 C4138 1.389 1_556 S
C4138 C4137 1.389 1_554 S
C4138 C4139 1.387 . S
C4139 H4124 0.930 . S
C4139 C4134 1.390 . S
C4139 C4138 1.387 . S
H4140 C4152 0.930 . S
H4141 C4154 0.930 . S
H4142 C4155 0.930 . S
H4143 C4159 0.959 . S
H4144 C4159 0.959 . S
H4145 C4159 0.961 . S
H4146 C4160 0.960 . S
H4147 C4160 0.961 . S
H4148 C4160 0.959 . S
H4149 C4163 0.929 . S
H4150 C4164 0.931 . S
H4151 C4166 0.930 . S
C4152 H4140 0.930 . S
C4152 C4153 1.399 . S
C4152 C4157 1.399 . S
C4153 C4152 1.399 . S
C4153 C4154 1.376 . S
C4154 H4141 0.930 . S
C4154 C4153 1.376 . S
C4154 C4155 1.388 . S
C4155 H4142 0.930 . S
C4155 C4154 1.388 . S
C4155 C4156 1.390 . S
C4156 C4155 1.390 . S
C4156 C4157 1.394 . S
C4156 C4162 1.465 . S
C4157 C4152 1.399 . S
C4157 C4156 1.394 . S
C4157 C4158 1.516 . S
C4158 C4157 1.516 . S
C4158 C4159 1.502 . S
C4158 C4160 1.561 . S
C4158 C4161 1.526 . S
C4159 H4143 0.959 . S
C4159 H4144 0.959 . S
C4159 H4145 0.961 . S
C4159 C4158 1.502 . S
C4160 H4146 0.960 . S
C4160 H4147 0.961 . S
C4160 H4148 0.959 . S
C4160 C4158 1.561 . S
C4161 C4158 1.526 . S
C4161 C4162 1.396 . S
C4161 C4166 1.390 . S
C4162 C4156 1.465 . S
C4162 C4161 1.396 . S
C4162 C4163 1.399 . S
C4163 H4149 0.929 . S
C4163 C4162 1.399 . S
C4163 C4164 1.385 . S
C4164 H4150 0.931 . S
C4164 C4163 1.385 . S
C4164 C4165 1.389 . S
C4165 C4164 1.389 . S
C4165 C4166 1.387 . S
C4166 H4151 0.930 . S
C4166 C4161 1.390 . S
C4166 C4165 1.387 . S
H4167 C4179 0.930 . S
H4168 C4181 0.930 . S
H4169 C4182 0.930 1_556 S
H4170 C4186 0.959 . S
H4171 C4186 0.959 . S
H4172 C4186 0.961 . S
H4173 C4187 0.960 . S
H4174 C4187 0.961 . S
H4175 C4187 0.959 . S
H4176 C4190 0.929 . S
H4177 C4191 0.931 . S
H4178 C4193 0.930 . S
C4179 H4167 0.930 . S
C4179 C4180 1.399 . S
C4179 C4184 1.399 . S
C4180 C4179 1.399 . S
C4180 C4181 1.376 . S
C4181 H4168 0.930 . S
C4181 C4180 1.376 . S
C4181 C4182 1.388 . S
C4182 H4169 0.930 1_554 S
C4182 C4181 1.388 . S
C4182 C4183 1.390 . S
C4183 C4182 1.390 . S
C4183 C4184 1.394 . S
C4183 C4189 1.465 . S
C4184 C4179 1.399 . S
C4184 C4183 1.394 . S
C4184 C4185 1.516 . S
C4185 C4184 1.516 . S
C4185 C4186 1.502 . S
C4185 C4187 1.561 . S
C4185 C4188 1.526 . S
C4186 H4170 0.959 . S
C4186 H4171 0.959 . S
C4186 H4172 0.961 . S
C4186 C4185 1.502 . S
C4187 H4173 0.960 . S
C4187 H4174 0.961 . S
C4187 H4175 0.959 . S
C4187 C4185 1.561 . S
C4188 C4185 1.526 . S
C4188 C4189 1.396 . S
C4188 C4193 1.390 . S
C4189 C4183 1.465 . S
C4189 C4188 1.396 . S
C4189 C4190 1.399 1_554 S
C4190 H4176 0.929 . S
C4190 C4189 1.399 1_556 S
C4190 C4191 1.385 . S
C4191 H4177 0.931 . S
C4191 C4190 1.385 . S
C4191 C4192 1.389 1_556 S
C4192 C4191 1.389 1_554 S
C4192 C4193 1.387 . S
C4193 H4178 0.930 . S
C4193 C4188 1.390 . S
C4193 C4192 1.387 . S
H4194 C4206 0.930 . S
H4195 C4208 0.930 . S
H4196 C4209 0.930 . S
H4197 C4213 0.959 . S
H4198 C4213 0.959 . S
H4199 C4213 0.961 . S
H4200 C4214 0.960 . S
H4201 C4214 0.961 . S
H4202 C4214 0.959 . S
H4203 C4217 0.929 . S
H4204 C4218 0.931 . S
H4205 C4220 0.930 . S
C4206 H4194 0.930 . S
C4206 C4207 1.399 . S
C4206 C4211 1.399 . S
C4207 C4206 1.399 . S
C4207 C4208 1.376 . S
C4208 H4195 0.930 . S
C4208 C4207 1.376 . S
C4208 C4209 1.388 . S
C4209 H4196 0.930 . S
C4209 C4208 1.388 . S
C4209 C4210 1.390 . S
C4210 C4209 1.390 . S
C4210 C4211 1.394 . S
C4210 C4216 1.465 . S
C4211 C4206 1.399 . S
C4211 C4210 1.394 . S
C4211 C4212 1.516 . S
C4212 C4211 1.516 . S
C4212 C4213 1.502 . S
C4212 C4214 1.561 . S
C4212 C4215 1.526 . S
C4213 H4197 0.959 . S
C4213 H4198 0.959 . S
C4213 H4199 0.961 . S
C4213 C4212 1.502 . S
C4214 H4200 0.960 . S
C4214 H4201 0.961 . S
C4214 H4202 0.959 . S
C4214 C4212 1.561 . S
C4215 C4212 1.526 . S
C4215 C4216 1.396 . S
C4215 C4220 1.390 . S
C4216 C4210 1.465 . S
C4216 C4215 1.396 . S
C4216 C4217 1.399 . S
C4217 H4203 0.929 . S
C4217 C4216 1.399 . S
C4217 C4218 1.385 . S
C4218 H4204 0.931 . S
C4218 C4217 1.385 . S
C4218 C4219 1.389 . S
C4219 C4218 1.389 . S
C4219 C4220 1.387 . S
C4220 H4205 0.930 . S
C4220 C4215 1.390 . S
C4220 C4219 1.387 . S
H4221 C4233 0.930 . S
H4222 C4235 0.930 . S
H4223 C4236 0.930 . S
H4224 C4240 0.959 . S
H4225 C4240 0.959 . S
H4226 C4240 0.961 . S
H4227 C4241 0.960 . S
H4228 C4241 0.961 . S
H4229 C4241 0.959 . S
H4230 C4244 0.929 . S
H4231 C4245 0.931 . S
H4232 C4247 0.930 . S
C4233 H4221 0.930 . S
C4233 C4234 1.399 . S
C4233 C4238 1.399 . S
C4234 C4233 1.399 . S
C4234 C4235 1.376 . S
C4235 H4222 0.930 . S
C4235 C4234 1.376 . S
C4235 C4236 1.388 . S
C4236 H4223 0.930 . S
C4236 C4235 1.388 . S
C4236 C4237 1.390 . S
C4237 C4236 1.390 . S
C4237 C4238 1.394 . S
C4237 C4243 1.465 . S
C4238 C4233 1.399 . S
C4238 C4237 1.394 . S
C4238 C4239 1.516 . S
C4239 C4238 1.516 . S
C4239 C4240 1.502 . S
C4239 C4241 1.561 . S
C4239 C4242 1.526 . S
C4240 H4224 0.959 . S
C4240 H4225 0.959 . S
C4240 H4226 0.961 . S
C4240 C4239 1.502 . S
C4241 H4227 0.960 . S
C4241 H4228 0.961 . S
C4241 H4229 0.959 . S
C4241 C4239 1.561 . S
C4242 C4239 1.526 . S
C4242 C4243 1.396 . S
C4242 C4247 1.390 . S
C4243 C4237 1.465 . S
C4243 C4242 1.396 . S
C4243 C4244 1.399 . S
C4244 H4230 0.929 . S
C4244 C4243 1.399 . S
C4244 C4245 1.385 . S
C4245 H4231 0.931 . S
C4245 C4244 1.385 . S
C4245 C4246 1.389 . S
C4246 C4245 1.389 . S
C4246 C4247 1.387 . S
C4247 H4232 0.930 . S
C4247 C4242 1.390 . S
C4247 C4246 1.387 . S
C1669 C101 1.711 . S
C1681 C379 1.612 . S
C1696 C57 2.174 . S
C1708 C462 2.120 . S
C1723 C70 1.388 . S
C1735 C547 1.232 . S
C1762 C627 1.402 . S
C1750 C82 1.553 . S
C1777 C23 1.568 . S
C1789 C711 1.559 . S
C1816 C804 0.844 . S
C1804 C29 0.907 . S
C1843 C882 0.865 . S
C1831 C49 0.883 . S
C1858 C10 1.579 . S
C1870 C967 1.273 . S
C1897 C378 1.898 . S
C1885 C218 2.019 . S
C1912 C226 0.771 . S
C1924 C459 0.805 . S
C1951 C546 1.243 . S
C1939 C251 1.288 . S
C1978 C631 1.370 . S
C1966 C159 1.536 . S
C1993 C211 2.096 . S
C2005 C715 1.856 . S
C2032 C807 1.119 . S
C2020 C225 1.208 . S
C2059 C879 0.718 . S
C2047 C252 0.813 . S
C2086 C966 1.406 . S
C2074 C166 1.621 . S
C2113 C375 1.434 . S
C2101 C147 1.478 . S
C2128 C263 1.858 . S
C2140 C1050 1.782 1_556 S
C2167 C1124 2.192 . S
C2155 C309 2.350 . S
C2194 C1219 0.567 1_655 S
C2182 C291 0.336 . S
C2209 C108 1.166 . S
C2221 C963 1.162 . S
C2236 C121 1.488 . S
C2248 C543 1.505 . S
C2263 C302 2.158 . S
C2275 C1302 2.063 . S
C2302 C1387 0.722 . S
C2290 C276 0.731 . S
C2329 C368 1.811 1_565 S
C2317 C55 1.908 . S
C2356 C1395 2.318 . S
C2344 C96 2.385 . S
C2371 C88 1.742 . S
C2383 C536 1.651 . S
C2398 C75 1.779 . S
C2410 C1308 1.672 . S
C2437 C720 1.616 . S
C2425 C4 1.665 . S
C2452 C44 1.169 . S
C2464 C1131 0.982 . S
C2491 C891 1.252 1_565 S
C2479 C31 1.246 . S
C2518 C1460 1.491 . S
C2506 C18 1.628 . S
C2545 C387 2.192 . S
C2533 C133 2.291 . S
C2572 C1392 0.806 . S
C2560 C296 0.862 . S
C2587 C107 1.426 . S
C2599 C555 1.346 . S
C2614 C264 1.845 . S
C2626 C1292 1.745 . S
C2641 C140 2.269 . S
C2653 C704 2.169 . S
C2680 C1134 1.307 . S
C2668 C289 1.358 . S
C2695 C114 0.994 . S
C2707 C888 0.833 . S
C2722 C265 1.838 . S
C2734 C1479 1.756 . S
C2749 C179 1.579 . S
C2761 C384 1.517 . S
C2776 C161 2.119 . S
C2788 C1059 2.061 . S
C2803 C244 2.588 . S
C2815 C799 2.463 . S
C2830 C224 0.843 . S
C2842 C1208 0.767 . S
C2869 C1476 0.936 . S
C2857 C257 0.925 1_565 S
C2884 C199 1.595 . S
C2896 C552 1.536 . S
C2923 C639 2.303 . S
C2911 C237 2.426 . S
C2950 C452 0.890 . S
C2938 C185 0.983 . S
C2965 C69 1.742 . S
C2977 C1555 1.515 . S
C3004 C1386 2.150 . S
C2992 C83 2.182 . S
C3019 C94 1.390 . S
C3031 C1639 1.233 . S
C3046 C56 1.551 . S
C3058 C1299 1.398 . S
C3073 C42 1.635 . S
C3085 C1047 1.616 . S
C3112 C1140 0.966 . S
C3100 C3 0.929 . S
C3139 C1218 0.767 . S
C3127 C16 0.752 . S
C3166 C1471 1.266 . S
C3154 C36 1.590 . S
C3193 C1554 1.963 . S
C3181 C238 2.036 . S
C3208 C174 0.743 . S
C3220 C1383 0.818 . S
C3247 C1638 1.182 . S
C3235 C186 1.221 . S
C3274 C1303 1.364 . S
C3262 C198 1.535 . S
C3301 C1051 1.899 . S
C3289 C239 2.084 . S
C3316 C173 1.182 . S
C3328 C1143 1.190 . S
C3355 C1215 0.753 . S
C3343 C187 0.834 . S
C3370 C205 1.625 . S
C3382 C1470 1.424 . S
C3409 C1551 1.430 . S
C3397 C290 1.475 . S
C3424 C122 1.861 . S
C3436 C714 1.783 . S
C3463 C788 2.155 . S
C3451 C134 2.360 . S
C3490 C883 0.595 . S
C3478 C148 0.325 . S
C3517 C1467 1.171 . S
C3505 C283 1.104 . S
C3532 C270 1.484 . S
C3544 C1635 1.501 . S
C3571 C630 2.059 . S
C3559 C135 2.153 . S
C3598 C463 0.725 . S
C3586 C109 0.639 . S
C3613 C81 1.946 . S
C3625 C1544 1.812 . S
C3652 C471 2.353 . S
C3640 C68 2.381 . S
C3667 C62 1.759 . S
C3679 C1628 1.685 . S
C3694 C95 1.778 . S
C3706 C636 1.672 . S
C3721 C30 1.653 . S
C3733 C1056 1.591 . S
C3760 C795 1.033 . S
C3748 C17 1.163 . S
C3775 C5 1.162 . S
C3787 C1227 1.206 . S
C3802 C43 1.616 . S
C3814 C956 1.553 . S
C3841 C1563 2.207 . S
C3829 C304 2.291 . S
C3856 C153 0.895 . S
C3868 C468 0.845 . S
C3895 C1647 1.404 . S
C3883 C278 1.406 . S
C3910 C127 1.845 . S
C3922 C620 1.736 . S
C3937 C303 2.263 . S
C3949 C1040 2.164 . S
C3976 C798 1.197 . S
C3964 C146 1.353 . S
C3991 C277 0.994 . S
C4003 C1224 1.010 . S
C4030 C975 1.766 . S
C4018 C120 1.836 . S
C4057 C1560 1.422 . S
C4045 C231 1.573 . S
C4084 C723 2.061 1_665 S
C4072 C200 2.118 . S
C4099 C212 2.607 . S
C4111 C1135 2.404 . S
C4138 C872 0.767 . S
C4126 C172 0.842 . S
C4153 C192 0.952 . S
C4165 C972 0.974 . S
C4180 C160 1.559 . S
C4192 C1644 1.465 . S
C4219 C1311 2.307 . S
C4207 C213 2.428 1_565 S
C4246 C1376 0.885 . S
C4234 C250 0.984 . S
