# Generated by pormake.
# Topology ibd, (4,6)-cn, num edge types: 1
# Building blocks:
#     Node 0, Type 0, BuildingBlock: CEKHIL_clean_sbu_0, # of connection points: 4
#     Node 1, Type 0, BuildingBlock: CEKHIL_clean_sbu_0, # of connection points: 4
#     Node 2, Type 0, BuildingBlock: CEKHIL_clean_sbu_0, # of connection points: 4
#     Node 3, Type 0, BuildingBlock: CEKHIL_clean_sbu_0, # of connection points: 4
#     Node 4, Type 0, BuildingBlock: CEKHIL_clean_sbu_0, # of connection points: 4
#     Node 5, Type 0, BuildingBlock: CEKHIL_clean_sbu_0, # of connection points: 4
#     Node 6, Type 0, BuildingBlock: CEKHIL_clean_sbu_0, # of connection points: 4
#     Node 7, Type 0, BuildingBlock: CEKHIL_clean_sbu_0, # of connection points: 4
#     Node 8, Type 0, BuildingBlock: CEKHIL_clean_sbu_0, # of connection points: 4
#     Node 9, Type 0, BuildingBlock: CEKHIL_clean_sbu_0, # of connection points: 4
#     Node 10, Type 0, BuildingBlock: CEKHIL_clean_sbu_0, # of connection points: 4
#     Node 11, Type 0, BuildingBlock: CEKHIL_clean_sbu_0, # of connection points: 4
#     Node 12, Type 0, BuildingBlock: CEKHIL_clean_sbu_0, # of connection points: 4
#     Node 13, Type 0, BuildingBlock: CEKHIL_clean_sbu_0, # of connection points: 4
#     Node 14, Type 0, BuildingBlock: CEKHIL_clean_sbu_0, # of connection points: 4
#     Node 15, Type 0, BuildingBlock: CEKHIL_clean_sbu_0, # of connection points: 4
#     Node 16, Type 0, BuildingBlock: CEKHIL_clean_sbu_0, # of connection points: 4
#     Node 17, Type 0, BuildingBlock: CEKHIL_clean_sbu_0, # of connection points: 4
#     Node 18, Type 0, BuildingBlock: CEKHIL_clean_sbu_0, # of connection points: 4
#     Node 19, Type 0, BuildingBlock: CEKHIL_clean_sbu_0, # of connection points: 4
#     Node 20, Type 0, BuildingBlock: CEKHIL_clean_sbu_0, # of connection points: 4
#     Node 21, Type 0, BuildingBlock: CEKHIL_clean_sbu_0, # of connection points: 4
#     Node 22, Type 0, BuildingBlock: CEKHIL_clean_sbu_0, # of connection points: 4
#     Node 23, Type 0, BuildingBlock: CEKHIL_clean_sbu_0, # of connection points: 4
#     Node 24, Type 1, BuildingBlock: OJICUG_clean_sbu_0, # of connection points: 6
#     Node 25, Type 1, BuildingBlock: OJICUG_clean_sbu_0, # of connection points: 6
#     Node 26, Type 1, BuildingBlock: OJICUG_clean_sbu_0, # of connection points: 6
#     Node 27, Type 1, BuildingBlock: OJICUG_clean_sbu_0, # of connection points: 6
#     Node 28, Type 1, BuildingBlock: OJICUG_clean_sbu_0, # of connection points: 6
#     Node 29, Type 1, BuildingBlock: OJICUG_clean_sbu_0, # of connection points: 6
#     Node 30, Type 1, BuildingBlock: OJICUG_clean_sbu_0, # of connection points: 6
#     Node 31, Type 1, BuildingBlock: OJICUG_clean_sbu_0, # of connection points: 6
#     Node 32, Type 1, BuildingBlock: OJICUG_clean_sbu_0, # of connection points: 6
#     Node 33, Type 1, BuildingBlock: OJICUG_clean_sbu_0, # of connection points: 6
#     Node 34, Type 1, BuildingBlock: OJICUG_clean_sbu_0, # of connection points: 6
#     Node 35, Type 1, BuildingBlock: OJICUG_clean_sbu_0, # of connection points: 6
#     Node 36, Type 1, BuildingBlock: OJICUG_clean_sbu_0, # of connection points: 6
#     Node 37, Type 1, BuildingBlock: OJICUG_clean_sbu_0, # of connection points: 6
#     Node 38, Type 1, BuildingBlock: OJICUG_clean_sbu_0, # of connection points: 6
#     Node 39, Type 1, BuildingBlock: OJICUG_clean_sbu_0, # of connection points: 6
#     Edge 40, Type (0, 1), BuildingBlock: OJICUG_clean_linker_0, # of connection points: 2
#     Edge 41, Type (0, 1), BuildingBlock: OJICUG_clean_linker_0, # of connection points: 2
#     Edge 42, Type (0, 1), BuildingBlock: OJICUG_clean_linker_0, # of connection points: 2
#     Edge 43, Type (0, 1), BuildingBlock: OJICUG_clean_linker_0, # of connection points: 2
#     Edge 44, Type (0, 1), BuildingBlock: OJICUG_clean_linker_0, # of connection points: 2
#     Edge 45, Type (0, 1), BuildingBlock: OJICUG_clean_linker_0, # of connection points: 2
#     Edge 46, Type (0, 1), BuildingBlock: OJICUG_clean_linker_0, # of connection points: 2
#     Edge 47, Type (0, 1), BuildingBlock: OJICUG_clean_linker_0, # of connection points: 2
#     Edge 48, Type (0, 1), BuildingBlock: OJICUG_clean_linker_0, # of connection points: 2
#     Edge 49, Type (0, 1), BuildingBlock: OJICUG_clean_linker_0, # of connection points: 2
#     Edge 50, Type (0, 1), BuildingBlock: OJICUG_clean_linker_0, # of connection points: 2
#     Edge 51, Type (0, 1), BuildingBlock: OJICUG_clean_linker_0, # of connection points: 2
#     Edge 52, Type (0, 1), BuildingBlock: OJICUG_clean_linker_0, # of connection points: 2
#     Edge 53, Type (0, 1), BuildingBlock: OJICUG_clean_linker_0, # of connection points: 2
#     Edge 54, Type (0, 1), BuildingBlock: OJICUG_clean_linker_0, # of connection points: 2
#     Edge 55, Type (0, 1), BuildingBlock: OJICUG_clean_linker_0, # of connection points: 2
#     Edge 56, Type (0, 1), BuildingBlock: OJICUG_clean_linker_0, # of connection points: 2
#     Edge 57, Type (0, 1), BuildingBlock: OJICUG_clean_linker_0, # of connection points: 2
#     Edge 58, Type (0, 1), BuildingBlock: OJICUG_clean_linker_0, # of connection points: 2
#     Edge 59, Type (0, 1), BuildingBlock: OJICUG_clean_linker_0, # of connection points: 2
#     Edge 60, Type (0, 1), BuildingBlock: OJICUG_clean_linker_0, # of connection points: 2
#     Edge 61, Type (0, 1), BuildingBlock: OJICUG_clean_linker_0, # of connection points: 2
#     Edge 62, Type (0, 1), BuildingBlock: OJICUG_clean_linker_0, # of connection points: 2
#     Edge 63, Type (0, 1), BuildingBlock: OJICUG_clean_linker_0, # of connection points: 2
#     Edge 64, Type (0, 1), BuildingBlock: OJICUG_clean_linker_0, # of connection points: 2
#     Edge 65, Type (0, 1), BuildingBlock: OJICUG_clean_linker_0, # of connection points: 2
#     Edge 66, Type (0, 1), BuildingBlock: OJICUG_clean_linker_0, # of connection points: 2
#     Edge 67, Type (0, 1), BuildingBlock: OJICUG_clean_linker_0, # of connection points: 2
#     Edge 68, Type (0, 1), BuildingBlock: OJICUG_clean_linker_0, # of connection points: 2
#     Edge 69, Type (0, 1), BuildingBlock: OJICUG_clean_linker_0, # of connection points: 2
#     Edge 70, Type (0, 1), BuildingBlock: OJICUG_clean_linker_0, # of connection points: 2
#     Edge 71, Type (0, 1), BuildingBlock: OJICUG_clean_linker_0, # of connection points: 2
#     Edge 72, Type (0, 1), BuildingBlock: OJICUG_clean_linker_0, # of connection points: 2
#     Edge 73, Type (0, 1), BuildingBlock: OJICUG_clean_linker_0, # of connection points: 2
#     Edge 74, Type (0, 1), BuildingBlock: OJICUG_clean_linker_0, # of connection points: 2
#     Edge 75, Type (0, 1), BuildingBlock: OJICUG_clean_linker_0, # of connection points: 2
#     Edge 76, Type (0, 1), BuildingBlock: OJICUG_clean_linker_0, # of connection points: 2
#     Edge 77, Type (0, 1), BuildingBlock: OJICUG_clean_linker_0, # of connection points: 2
#     Edge 78, Type (0, 1), BuildingBlock: OJICUG_clean_linker_0, # of connection points: 2
#     Edge 79, Type (0, 1), BuildingBlock: OJICUG_clean_linker_0, # of connection points: 2
#     Edge 80, Type (0, 1), BuildingBlock: OJICUG_clean_linker_0, # of connection points: 2
#     Edge 81, Type (0, 1), BuildingBlock: OJICUG_clean_linker_0, # of connection points: 2
#     Edge 82, Type (0, 1), BuildingBlock: OJICUG_clean_linker_0, # of connection points: 2
#     Edge 83, Type (0, 1), BuildingBlock: OJICUG_clean_linker_0, # of connection points: 2
#     Edge 84, Type (0, 1), BuildingBlock: OJICUG_clean_linker_0, # of connection points: 2
#     Edge 85, Type (0, 1), BuildingBlock: OJICUG_clean_linker_0, # of connection points: 2
#     Edge 86, Type (0, 1), BuildingBlock: OJICUG_clean_linker_0, # of connection points: 2
#     Edge 87, Type (0, 1), BuildingBlock: OJICUG_clean_linker_0, # of connection points: 2
#     Edge 88, Type (0, 1), BuildingBlock: OJICUG_clean_linker_0, # of connection points: 2
#     Edge 89, Type (0, 1), BuildingBlock: OJICUG_clean_linker_0, # of connection points: 2
#     Edge 90, Type (0, 1), BuildingBlock: OJICUG_clean_linker_0, # of connection points: 2
#     Edge 91, Type (0, 1), BuildingBlock: OJICUG_clean_linker_0, # of connection points: 2
#     Edge 92, Type (0, 1), BuildingBlock: OJICUG_clean_linker_0, # of connection points: 2
#     Edge 93, Type (0, 1), BuildingBlock: OJICUG_clean_linker_0, # of connection points: 2
#     Edge 94, Type (0, 1), BuildingBlock: OJICUG_clean_linker_0, # of connection points: 2
#     Edge 95, Type (0, 1), BuildingBlock: OJICUG_clean_linker_0, # of connection points: 2
#     Edge 96, Type (0, 1), BuildingBlock: OJICUG_clean_linker_0, # of connection points: 2
#     Edge 97, Type (0, 1), BuildingBlock: OJICUG_clean_linker_0, # of connection points: 2
#     Edge 98, Type (0, 1), BuildingBlock: OJICUG_clean_linker_0, # of connection points: 2
#     Edge 99, Type (0, 1), BuildingBlock: OJICUG_clean_linker_0, # of connection points: 2
#     Edge 100, Type (0, 1), BuildingBlock: OJICUG_clean_linker_0, # of connection points: 2
#     Edge 101, Type (0, 1), BuildingBlock: OJICUG_clean_linker_0, # of connection points: 2
#     Edge 102, Type (0, 1), BuildingBlock: OJICUG_clean_linker_0, # of connection points: 2
#     Edge 103, Type (0, 1), BuildingBlock: OJICUG_clean_linker_0, # of connection points: 2
#     Edge 104, Type (0, 1), BuildingBlock: OJICUG_clean_linker_0, # of connection points: 2
#     Edge 105, Type (0, 1), BuildingBlock: OJICUG_clean_linker_0, # of connection points: 2
#     Edge 106, Type (0, 1), BuildingBlock: OJICUG_clean_linker_0, # of connection points: 2
#     Edge 107, Type (0, 1), BuildingBlock: OJICUG_clean_linker_0, # of connection points: 2
#     Edge 108, Type (0, 1), BuildingBlock: OJICUG_clean_linker_0, # of connection points: 2
#     Edge 109, Type (0, 1), BuildingBlock: OJICUG_clean_linker_0, # of connection points: 2
#     Edge 110, Type (0, 1), BuildingBlock: OJICUG_clean_linker_0, # of connection points: 2
#     Edge 111, Type (0, 1), BuildingBlock: OJICUG_clean_linker_0, # of connection points: 2
#     Edge 112, Type (0, 1), BuildingBlock: OJICUG_clean_linker_0, # of connection points: 2
#     Edge 113, Type (0, 1), BuildingBlock: OJICUG_clean_linker_0, # of connection points: 2
#     Edge 114, Type (0, 1), BuildingBlock: OJICUG_clean_linker_0, # of connection points: 2
#     Edge 115, Type (0, 1), BuildingBlock: OJICUG_clean_linker_0, # of connection points: 2
#     Edge 116, Type (0, 1), BuildingBlock: OJICUG_clean_linker_0, # of connection points: 2
#     Edge 117, Type (0, 1), BuildingBlock: OJICUG_clean_linker_0, # of connection points: 2
#     Edge 118, Type (0, 1), BuildingBlock: OJICUG_clean_linker_0, # of connection points: 2
#     Edge 119, Type (0, 1), BuildingBlock: OJICUG_clean_linker_0, # of connection points: 2
#     Edge 120, Type (0, 1), BuildingBlock: OJICUG_clean_linker_0, # of connection points: 2
#     Edge 121, Type (0, 1), BuildingBlock: OJICUG_clean_linker_0, # of connection points: 2
#     Edge 122, Type (0, 1), BuildingBlock: OJICUG_clean_linker_0, # of connection points: 2
#     Edge 123, Type (0, 1), BuildingBlock: OJICUG_clean_linker_0, # of connection points: 2
#     Edge 124, Type (0, 1), BuildingBlock: OJICUG_clean_linker_0, # of connection points: 2
#     Edge 125, Type (0, 1), BuildingBlock: OJICUG_clean_linker_0, # of connection points: 2
#     Edge 126, Type (0, 1), BuildingBlock: OJICUG_clean_linker_0, # of connection points: 2
#     Edge 127, Type (0, 1), BuildingBlock: OJICUG_clean_linker_0, # of connection points: 2
#     Edge 128, Type (0, 1), BuildingBlock: OJICUG_clean_linker_0, # of connection points: 2
#     Edge 129, Type (0, 1), BuildingBlock: OJICUG_clean_linker_0, # of connection points: 2
#     Edge 130, Type (0, 1), BuildingBlock: OJICUG_clean_linker_0, # of connection points: 2
#     Edge 131, Type (0, 1), BuildingBlock: OJICUG_clean_linker_0, # of connection points: 2
#     Edge 132, Type (0, 1), BuildingBlock: OJICUG_clean_linker_0, # of connection points: 2
#     Edge 133, Type (0, 1), BuildingBlock: OJICUG_clean_linker_0, # of connection points: 2
#     Edge 134, Type (0, 1), BuildingBlock: OJICUG_clean_linker_0, # of connection points: 2
#     Edge 135, Type (0, 1), BuildingBlock: OJICUG_clean_linker_0, # of connection points: 2
# Relax obj value: 0.371
# Max RMSD: 0.283
# Mean RMSD: 0.280
data_MOF--net-ibd--node1-CEKHIL_clean_sbu_0--node2-OJICUG_clean_sbu_0--edge1-OJICUG_clean_linker_0
_symmetry_space_group_name_H-M    P1
_symmetry_Int_Tables_number       1
_symmetry_cell_setting            triclinic
loop_
_symmetry_equiv_pos_as_xyz
'x, y, z'
_cell_length_a     36.284096
_cell_length_b     36.303953
_cell_length_c     36.326494
_cell_angle_alpha  90.221368
_cell_angle_beta   90.198502
_cell_angle_gamma 91.050427
loop_
_atom_site_label
_atom_site_type_symbol
_atom_site_fract_x
_atom_site_fract_y
_atom_site_fract_z
_atom_type_partial_charge
Co0 Co 0.0123 0.24496 0.37225 0.0
O1 O 0.98971 0.28304 0.34415 0.0
O2 O 0.969 0.22513 0.34825 0.0
C3 C 0.02225 0.28086 0.42133 0.0
O4 O 0.02614 0.19885 0.39923 0.0
Co5 Co 0.08935 0.24285 0.40793 0.0
O6 O 0.0616 0.21418 0.44612 0.0
C7 C 0.08029 0.23263 0.32715 0.0
C8 C 0.96465 0.25825 0.33587 0.0
C9 C 0.03336 0.19702 0.43358 0.0
O10 O 0.04484 0.2318 0.32986 0.0
O11 O 0.10225 0.23756 0.35451 0.0
O12 O 0.99001 0.26513 0.41648 0.0
O13 O 0.04706 0.27416 0.39697 0.0
Co14 Co 0.98673 0.72235 0.61687 0.0
O15 O 0.94669 0.71891 0.65202 0.0
O16 O 0.9817 0.76849 0.64187 0.0
C17 C 0.95807 0.69505 0.56914 0.0
O18 O 0.02812 0.73933 0.58379 0.0
Co19 Co 0.02665 0.65706 0.5797 0.0
O20 O 0.05429 0.69462 0.55089 0.0
C21 C 0.03487 0.67171 0.65912 0.0
C22 C 0.95456 0.75331 0.65964 0.0
C23 C 0.051 0.72842 0.55947 0.0
O24 O 0.02184 0.70417 0.65506 0.0
O25 O 0.03574 0.64786 0.63314 0.0
O26 O 0.95184 0.72943 0.5769 0.0
O27 O 0.97894 0.67774 0.59178 0.0
Co28 Co 0.51213 0.76924 0.87186 0.0
O29 O 0.48705 0.807 0.84484 0.0
O30 O 0.46917 0.74831 0.84862 0.0
C31 C 0.52227 0.80338 0.92242 0.0
O32 O 0.52814 0.72272 0.89677 0.0
Co33 Co 0.59015 0.7692 0.90556 0.0
O34 O 0.56496 0.73728 0.94306 0.0
C35 C 0.57926 0.75595 0.82543 0.0
C36 C 0.46305 0.78116 0.83645 0.0
C37 C 0.53751 0.71895 0.93039 0.0
O38 O 0.54393 0.75746 0.82853 0.0
O39 O 0.60188 0.76046 0.85231 0.0
O40 O 0.4903 0.78718 0.9173 0.0
O41 O 0.54641 0.79898 0.89685 0.0
Co42 Co 0.47666 0.21488 0.11983 0.0
O43 O 0.44016 0.20993 0.15849 0.0
O44 O 0.47232 0.26068 0.14528 0.0
C45 C 0.44495 0.18647 0.07459 0.0
O46 O 0.51444 0.23347 0.08378 0.0
Co47 Co 0.51597 0.15169 0.07887 0.0
O48 O 0.54199 0.19044 0.04998 0.0
C49 C 0.53231 0.16737 0.15676 0.0
C50 C 0.44764 0.24454 0.16553 0.0
C51 C 0.53726 0.22395 0.05891 0.0
O52 O 0.51598 0.19842 0.15447 0.0
O53 O 0.53213 0.14344 0.13082 0.0
O54 O 0.43806 0.22055 0.08306 0.0
O55 O 0.46848 0.17006 0.09524 0.0
Co56 Co 0.01252 0.79267 0.12109 0.0
O57 O 0.01173 0.82731 0.08117 0.0
O58 O 0.96575 0.78932 0.0967 0.0
C59 C 0.0368 0.83124 0.16363 0.0
O60 O 0.00121 0.75424 0.15938 0.0
Co61 Co 0.08426 0.76785 0.16009 0.0
O62 O 0.05149 0.73455 0.18889 0.0
C63 C 0.06308 0.73524 0.08843 0.0
C64 C 0.97816 0.81529 0.07541 0.0
C65 C 0.01697 0.73307 0.18248 0.0
O66 O 0.03282 0.75321 0.08827 0.0
O67 O 0.08821 0.73963 0.11294 0.0
O68 O 0.00179 0.83189 0.15599 0.0
O69 O 0.05627 0.80971 0.14344 0.0
Co70 Co 0.43841 0.73023 0.36036 0.0
O71 O 0.40402 0.72932 0.40022 0.0
O72 O 0.4416 0.77624 0.38584 0.0
C73 C 0.40061 0.70572 0.31772 0.0
O74 O 0.47717 0.74314 0.32274 0.0
Co75 Co 0.46616 0.66029 0.32149 0.0
O76 O 0.4986 0.6941 0.29266 0.0
C77 C 0.48913 0.67672 0.39733 0.0
C78 C 0.41728 0.76205 0.40797 0.0
C79 C 0.49886 0.72857 0.29935 0.0
O80 O 0.47631 0.70927 0.394 0.0
O81 O 0.4854 0.65172 0.37261 0.0
O82 O 0.39955 0.74082 0.32517 0.0
O83 O 0.4226 0.68652 0.33764 0.0
Co84 Co 0.49682 0.27134 0.62713 0.0
O85 O 0.4948 0.309 0.59029 0.0
O86 O 0.45104 0.26681 0.60066 0.0
C87 C 0.51687 0.30867 0.67257 0.0
O88 O 0.48752 0.22917 0.6621 0.0
Co89 Co 0.56931 0.24972 0.66714 0.0
O90 O 0.53825 0.21263 0.69294 0.0
C91 C 0.55388 0.22261 0.59189 0.0
C92 C 0.46225 0.29554 0.58238 0.0
C93 C 0.50427 0.20828 0.68482 0.0
O94 O 0.52156 0.23669 0.59225 0.0
O95 O 0.57773 0.22756 0.61754 0.0
O96 O 0.48197 0.30685 0.66439 0.0
O97 O 0.53842 0.2899 0.65184 0.0
Co98 Co 0.94777 0.23671 0.86988 0.0
O99 O 0.9182 0.23431 0.91335 0.0
O100 O 0.95656 0.28043 0.89792 0.0
C101 C 0.90466 0.21788 0.82974 0.0
O102 O 0.98229 0.25064 0.82901 0.0
Co103 Co 0.96752 0.16834 0.82402 0.0
O104 O -0.00253 0.20289 0.79336 0.0
C105 C -0.00246 0.17762 0.8982 0.0
C106 C 0.93405 0.2658 0.92157 0.0
C107 C -9e-05 0.23689 0.80203 0.0
O108 O 0.98772 0.21138 0.89731 0.0
O109 O 0.98973 0.15434 0.87271 0.0
O110 O 0.90625 0.25222 0.84022 0.0
O111 O 0.92709 0.19579 0.84585 0.0
Co112 Co 0.37471 -0.00605 0.21789 0.0
O113 O 0.41655 0.98703 0.18687 0.0
O114 O 0.3873 0.94283 0.2181 0.0
C115 C 0.34345 0.02952 0.17844 0.0
O116 O 0.33035 0.98892 0.25077 0.0
Co117 Co 0.34979 0.06986 0.24716 0.0
O118 O 0.30394 0.04327 0.26139 0.0
C119 C 0.41092 0.03111 0.28423 0.0
C120 C 0.4132 0.95232 0.19531 0.0
C121 C 0.30424 0.00832 0.26373 0.0
O122 O 0.40744 0.00358 0.262 0.0
O123 O 0.39184 0.06034 0.28162 0.0
O124 O 0.34287 -0.0061 0.17471 0.0
O125 O 0.36496 0.04264 0.20392 0.0
Co126 Co 0.27393 0.12243 0.55494 0.0
O127 O 0.28386 0.0891 0.5945 0.0
O128 O 0.31881 0.09732 0.54495 0.0
C129 C 0.25851 0.16953 0.59117 0.0
O130 O 0.27562 0.15473 0.50973 0.0
Co131 Co 0.19859 0.15899 0.54074 0.0
O132 O 0.22502 0.18848 0.50284 0.0
C133 C 0.20823 0.08 0.52448 0.0
C134 C 0.31328 0.08077 0.5761 0.0
C135 C 0.2574 0.17965 0.49315 0.0
O136 O 0.2435 0.08319 0.52869 0.0
O137 O 0.18595 0.10601 0.53146 0.0
O138 O 0.29319 0.16394 0.58443 0.0
O139 O 0.23525 0.14627 0.57724 0.0
Co140 Co 0.10625 -0.00342 0.70464 0.0
O141 O 0.13954 0.99055 0.66374 0.0
O142 O 0.12668 0.94871 0.70652 0.0
C143 C 0.06031 0.02314 0.67417 0.0
O144 O 0.07408 0.9895 0.74929 0.0
Co145 Co 0.07775 0.07078 0.73501 0.0
O146 O 0.04582 0.04047 0.76792 0.0
C147 C 0.15586 0.05134 0.742 0.0
C148 C 0.14553 0.95817 0.67775 0.0
C149 C 0.05145 0.00604 0.77034 0.0
O150 O 0.14797 0.01743 0.73469 0.0
O151 O 0.13238 0.07714 0.74021 0.0
O152 O 0.06339 0.98741 0.673 0.0
O153 O 0.08606 0.04111 0.6912 0.0
Co154 Co 0.21258 0.86827 0.00795 0.0
O155 O 0.21038 0.825 0.0384 0.0
O156 O 0.26034 0.84787 0.01065 0.0
C157 C 0.18074 0.90467 0.04521 0.0
O158 O 0.22811 0.91133 0.97668 0.0
Co159 Co 0.14587 0.90653 0.97267 0.0
O160 O 0.18172 0.94207 0.95095 0.0
C161 C 0.16987 0.83461 0.94473 0.0
C162 C 0.24567 0.82334 0.03215 0.0
C163 C 0.2159 0.93721 0.95654 0.0
O164 O 0.19992 0.83781 0.96338 0.0
O165 O 0.1435 0.8574 0.94737 0.0
O166 O 0.21547 0.89892 0.05138 0.0
O167 O 0.16563 0.8864 0.01831 0.0
Co168 Co 0.30648 0.36306 0.95597 0.0
O169 O 0.34212 0.32704 0.94475 0.0
O170 O 0.2941 0.34064 0.9093 0.0
C171 C 0.34786 0.40588 0.97345 0.0
O172 O 0.26501 0.39983 0.95806 0.0
Co173 Co 0.29945 0.3951 0.03532 0.0
O174 O 0.26522 0.43008 0.01215 0.0
C175 C 0.26539 0.32278 0.0167 0.0
C176 C 0.3238 0.32174 0.91442 0.0
C177 C 0.25249 0.42466 0.9798 0.0
O178 O 0.27516 0.32578 0.98281 0.0
O179 O 0.27434 0.34613 0.04181 0.0
O180 O 0.34017 0.40159 0.9387 0.0
O181 O 0.33238 0.38278 -0.00437 0.0
Co182 Co 0.72692 0.11178 -0.00534 0.0
O183 O 0.75991 0.07122 0.00067 0.0
O184 O 0.72996 0.08441 0.94926 0.0
C185 C 0.76425 0.15295 0.0224 0.0
O186 O 0.69313 0.15131 0.97577 0.0
Co187 Co 0.69449 0.16041 0.05659 0.0
O188 O 0.69494 0.1975 0.0165 0.0
C189 C 0.66644 0.08389 0.04419 0.0
C190 C 0.75384 0.06415 0.96601 0.0
C191 C 0.69155 0.18565 0.98365 0.0
O192 O 0.68424 0.08114 0.01357 0.0
O193 O 0.66858 0.11218 0.06533 0.0
O194 O 0.76922 0.14505 0.98781 0.0
O195 O 0.73793 0.13555 0.03885 0.0
Co196 Co 0.13216 0.47428 0.20267 0.0
O197 O 0.17349 0.44244 0.19891 0.0
O198 O 0.16578 0.48505 0.24217 0.0
C199 C 0.08949 0.42996 0.19543 0.0
O200 O 0.09273 0.50992 0.21767 0.0
Co201 Co 0.07646 0.48617 0.13977 0.0
O202 O 0.0436 0.49688 0.18242 0.0
C203 C 0.14938 0.5226 0.13637 0.0
C204 C 0.18421 0.45723 0.22987 0.0
C205 C 0.05778 0.50883 0.21243 0.0
O206 O 0.15611 0.51177 0.16941 0.0
O207 O 0.12037 0.51316 0.11822 0.0
O208 O 0.10488 0.43553 0.22729 0.0
O209 O 0.10239 0.44923 0.16823 0.0
Co210 Co 0.80881 0.8691 0.47855 0.0
O211 O 0.84484 0.83225 0.47124 0.0
O212 O 0.80135 0.84725 0.43087 0.0
C213 C 0.8477 0.91202 0.50056 0.0
O214 O 0.76813 0.90661 0.47563 0.0
Co215 Co 0.79235 0.90123 0.55627 0.0
O216 O 0.76271 0.9375 0.52898 0.0
C217 C 0.75975 0.82954 0.53362 0.0
C218 C 0.82985 0.82763 0.439 0.0
C219 C 0.75392 0.93213 0.49537 0.0
O220 O 0.77393 0.83241 0.50136 0.0
O221 O 0.7656 0.85278 0.55966 0.0
O222 O 0.84473 0.90695 0.46522 0.0
O223 O 0.83003 0.88878 0.52101 0.0
Co224 Co 0.88072 -0.00173 0.257 0.0
O225 O 0.91592 0.96021 0.26419 0.0
O226 O 0.9039 0.00466 0.30438 0.0
C227 C 0.83531 0.96104 0.23606 0.0
O228 O 0.84534 0.04032 0.26132 0.0
Co229 Co 0.84709 0.01739 0.18083 0.0
O230 O 0.80906 0.04126 0.21128 0.0
C231 C 0.92169 0.04491 0.20047 0.0
C232 C 0.9215 0.97484 0.2965 0.0
C233 C 0.8164 0.05088 0.24429 0.0
O234 O 0.91881 0.03108 0.23295 0.0
O235 O 0.89704 0.04089 0.17542 0.0
O236 O 0.84129 0.96424 0.27123 0.0
O237 O 0.85848 0.97803 0.21485 0.0
Co238 Co 0.2276 0.61121 0.49065 0.0
O239 O 0.25676 0.56841 0.49935 0.0
O240 O 0.23189 0.58351 0.44573 0.0
C241 C 0.26564 0.64985 0.52077 0.0
O242 O 0.19857 0.65313 0.46921 0.0
Co243 Co 0.19389 0.662 0.54982 0.0
O244 O 0.20049 0.69909 0.51014 0.0
C245 C 0.16219 0.58722 0.53558 0.0
C246 C 0.25283 0.56167 0.46434 0.0
C247 C 0.19921 0.68756 0.47704 0.0
O248 O 0.18159 0.58376 0.50608 0.0
O249 O 0.16465 0.61527 0.55703 0.0
O250 O 0.27254 0.641 0.48677 0.0
O251 O 0.23705 0.6345 0.53549 0.0
Co252 Co 0.37154 0.49891 0.7552 0.0
O253 O 0.40814 0.46226 0.76283 0.0
O254 O 0.39291 0.50532 0.80341 0.0
C255 C 0.32853 0.46023 0.73218 0.0
O256 O 0.33416 0.53922 0.75926 0.0
Co257 Co 0.33842 0.51842 0.67892 0.0
O258 O 0.29762 0.53723 0.70945 0.0
C259 C 0.41145 0.54875 0.70087 0.0
C260 C 0.41185 0.47632 0.79564 0.0
C261 C 0.30406 0.54691 0.74262 0.0
O262 O 0.40874 0.53381 0.73288 0.0
O263 O 0.3873 0.5445 0.67535 0.0
O264 O 0.33336 0.46289 0.76756 0.0
O265 O 0.35144 0.47877 0.712 0.0
Co266 Co 0.62523 0.97595 0.7095 0.0
O267 O 0.66861 0.94734 0.70334 0.0
O268 O 0.65771 0.98514 0.7502 0.0
C269 C 0.58583 0.92971 0.69716 0.0
O270 O 0.58379 0.0075 0.72747 0.0
Co271 Co 0.56791 0.99066 0.64899 0.0
O272 O 0.53469 -0.00636 0.69279 0.0
C273 C 0.63883 0.03165 0.64866 0.0
C274 C 0.67805 0.95988 0.73568 0.0
C275 C 0.54888 0.00357 0.72347 0.0
O276 O 0.64687 0.0179 0.68027 0.0
O277 O 0.60995 0.02247 0.63014 0.0
O278 O 0.60029 0.93319 0.72973 0.0
O279 O 0.59729 0.95278 0.6724 0.0
Co280 Co 0.77364 0.62053 0.038 0.0
O281 O 0.77744 0.58678 0.07798 0.0
O282 O 0.81672 0.59128 0.03126 0.0
C283 C 0.76049 0.66808 0.07416 0.0
O284 O 0.78081 0.65311 -0.00682 0.0
Co285 Co 0.70192 0.66258 0.0206 0.0
O286 O 0.73253 0.68993 0.9845 0.0
C287 C 0.70628 0.58295 0.00549 0.0
C288 C 0.80745 0.57594 0.06223 0.0
C289 C 0.76476 0.67936 0.97625 0.0
O290 O 0.74158 0.58393 0.01007 0.0
O291 O 0.68566 0.61047 0.01175 0.0
O292 O 0.79484 0.65982 0.06904 0.0
O293 O 0.73607 0.64731 0.0584 0.0
Co294 Co 0.86239 0.49353 0.72174 0.0
O295 O 0.90533 0.49023 0.69145 0.0
O296 O 0.87765 0.44311 0.7196 0.0
C297 C 0.83028 0.52973 0.68337 0.0
O298 O 0.81737 0.48468 0.75314 0.0
Co299 Co 0.83336 0.56664 0.75408 0.0
O300 O 0.78776 0.53739 0.76341 0.0
C301 C 0.89604 0.52952 0.7902 0.0
C302 C 0.90361 0.45502 0.69799 0.0
C303 C 0.78948 0.50244 0.7647 0.0
O304 O 0.89371 0.50258 0.76707 0.0
O305 O 0.87578 0.558 0.78837 0.0
O306 O 0.83142 0.49438 0.67777 0.0
O307 O 0.85065 0.54229 0.70999 0.0
Co308 Co 0.71547 0.38389 0.49459 0.0
O309 O 0.7105 0.34295 0.52767 0.0
O310 O 0.76228 0.36168 0.50029 0.0
C311 C 0.684 0.42303 0.52924 0.0
O312 O 0.73341 0.42428 0.46107 0.0
Co313 Co 0.65146 0.42166 0.45508 0.0
O314 O 0.68886 0.45487 0.43222 0.0
C315 C 0.67299 0.34706 0.43312 0.0
C316 C 0.74581 0.33936 0.52294 0.0
C317 C 0.72271 0.44927 0.43897 0.0
O318 O 0.70291 0.35102 0.45181 0.0
O319 O 0.6472 0.37065 0.43367 0.0
O320 O 0.71855 0.41707 0.53602 0.0
O321 O 0.66881 0.40404 0.50281 0.0
Co322 Co 0.61173 0.4961 0.23642 0.0
O323 O 0.64475 0.49289 0.19498 0.0
O324 O 0.63576 0.44989 0.2375 0.0
C325 C 0.56424 0.51919 0.20548 0.0
O326 O 0.58013 0.48585 0.28113 0.0
Co327 Co 0.57807 0.56716 0.26786 0.0
O328 O 0.54727 0.53416 0.29909 0.0
C329 C 0.65811 0.55536 0.2686 0.0
C330 C 0.65279 0.46061 0.20803 0.0
C331 C 0.55527 0.50023 0.30129 0.0
O332 O 0.65228 0.52041 0.26561 0.0
O333 O 0.63226 0.57882 0.2671 0.0
O334 O 0.56978 0.4838 0.20472 0.0
O335 O 0.58808 0.53903 0.22328 0.0
Sc336 Sc 0.09839 0.17786 0.10693 0.0
Sc337 Sc 0.14286 0.10839 0.15507 0.0
Sc338 Sc 0.15685 0.11716 0.06129 0.0
O339 O 0.1325 0.13494 0.1078 0.0
C340 C 0.08143 0.14516 0.02777 0.0
C341 C 0.05639 0.11708 0.15587 0.0
C342 C 0.13691 0.04307 0.09628 0.0
C343 C 0.13083 0.18913 0.18668 0.0
C344 C 0.16922 0.20318 0.05967 0.0
C345 C 0.21993 0.10591 0.12209 0.0
O346 O 0.07187 0.1611 0.05712 0.0
O347 O 0.08527 0.09919 0.16356 0.0
O348 O 0.13284 0.0637 0.06852 0.0
O349 O 0.11797 0.2021 0.15714 0.0
O350 O 0.18036 0.17079 0.05277 0.0
O351 O 0.20081 0.11743 0.14876 0.0
O352 O 0.13967 0.21006 0.07741 0.0
O353 O 0.14076 0.15603 0.18966 0.0
O354 O 0.20633 0.10032 0.09015 0.0
O355 O 0.05652 0.1465 0.13658 0.0
O356 O 0.11221 0.12965 0.02447 0.0
O357 O 0.14596 0.05553 0.12788 0.0
Sc358 Sc 0.17161 0.87728 0.41202 0.0
Sc359 Sc 0.08839 0.84322 0.37997 0.0
Sc360 Sc 0.10789 0.93522 0.37007 0.0
O361 O 0.1231 0.88582 0.38766 0.0
C362 C 0.15105 0.95434 0.44533 0.0
C363 C 0.11068 0.83328 0.45997 0.0
C364 C 0.03143 0.90843 0.38532 0.0
C365 C 0.16445 0.80165 0.37936 0.0
C366 C 0.19168 0.93498 0.34836 0.0
C367 C 0.08828 0.8787 0.30432 0.0
O368 O 0.16576 0.92303 0.44864 0.0
O369 O 0.08378 0.83919 0.43817 0.0
O370 O 0.05593 0.93053 0.39743 0.0
O371 O 0.18256 0.83157 0.37662 0.0
O372 O 0.15864 0.9441 0.3423 0.0
O373 O 0.0957 0.8497 0.32236 0.0
O374 O 0.20102 0.91231 0.37335 0.0
O375 O 0.12981 0.8018 0.38317 0.0
O376 O 0.08542 0.91062 0.31919 0.0
O377 O 0.14441 0.84109 0.45229 0.0
O378 O 0.13028 0.96283 0.41834 0.0
O379 O 0.03992 0.87625 0.3752 0.0
Sc380 Sc 0.39204 0.80427 0.63578 0.0
Sc381 Sc 0.3401 0.865 0.58569 0.0
Sc382 Sc 0.36137 0.88373 0.67814 0.0
O383 O 0.36394 0.85128 0.63346 0.0
C384 C 0.36724 0.81093 0.71955 0.0
C385 C 0.32409 0.77781 0.59409 0.0
C386 C 0.2801 0.8874 0.64393 0.0
C387 C 0.40321 0.82501 0.55169 0.0
C388 C 0.44606 0.86097 0.67092 0.0
C389 C 0.36766 0.94348 0.61526 0.0
O390 O 0.38602 0.79705 0.6939 0.0
O391 O 0.32332 0.80817 0.57645 0.0
O392 O 0.30315 0.89209 0.67022 0.0
O393 O 0.40344 0.80246 0.57814 0.0
O394 O 0.41997 0.87717 0.68775 0.0
O395 O 0.35497 0.92214 0.59031 0.0
O396 O 0.441 0.83599 0.64657 0.0
O397 O 0.38958 0.85663 0.5551 0.0
O398 O 0.37365 0.9331 0.64802 0.0
O399 O 0.34262 0.77355 0.62365 0.0
O400 O 0.34811 0.83928 0.71466 0.0
O401 O 0.28869 0.87582 0.61207 0.0
Sc402 Sc 0.37478 0.05126 0.81625 0.0
Sc403 Sc 0.42361 0.12311 0.85837 0.0
Sc404 Sc 0.33281 0.11021 0.87767 0.0
O405 O 0.37699 0.09451 0.85042 0.0
C406 C 0.2985 0.08282 0.80105 0.0
C407 C 0.42346 0.11231 0.77456 0.0
C408 C 0.36339 0.18534 0.8575 0.0
C409 C 0.45297 0.04246 0.84138 0.0
C410 C 0.32499 0.02671 0.88529 0.0
C411 C 0.39692 0.12392 0.93681 0.0
O412 O 0.32834 0.07173 0.78712 0.0
O413 O 0.42454 0.13467 0.80149 0.0
O414 O 0.33655 0.16301 0.85274 0.0
O415 O 0.42097 0.02808 0.84377 0.0
O416 O 0.32838 0.05731 0.9021 0.0
O417 O 0.4223 0.11194 0.91615 0.0
O418 O 0.337 0.0212 0.85269 0.0
O419 O 0.45835 0.07674 0.84695 0.0
O420 O 0.36448 0.1297 0.92489 0.0
O421 O 0.41115 0.07913 0.77662 0.0
O422 O 0.29578 0.09331 0.83433 0.0
O423 O 0.3952 0.17443 0.86709 0.0
Sc424 Sc 0.65579 0.37425 0.91283 0.0
Sc425 Sc 0.57048 0.34018 0.88778 0.0
Sc426 Sc 0.59256 0.42975 0.86758 0.0
O427 O 0.60684 0.38195 0.88939 0.0
C428 C 0.63926 0.45432 0.93925 0.0
C429 C 0.5964 0.33519 0.96634 0.0
C430 C 0.51646 0.40798 0.8892 0.0
C431 C 0.64564 0.29686 0.88624 0.0
C432 C 0.67506 0.42582 0.84366 0.0
C433 C 0.56751 0.36774 0.80918 0.0
O434 O 0.65149 0.42251 0.94631 0.0
O435 O 0.56871 0.3425 0.94616 0.0
O436 O 0.54253 0.42963 0.89846 0.0
O437 O 0.66407 0.32608 0.88006 0.0
O438 O 0.64186 0.43352 0.83637 0.0
O439 O 0.57494 0.34049 0.82971 0.0
O440 O 0.68459 0.40644 0.87126 0.0
O441 O 0.61136 0.29807 0.89263 0.0
O442 O 0.56627 0.40109 0.82075 0.0
O443 O 0.62983 0.3408 0.95617 0.0
O444 O 0.61896 0.46113 0.91141 0.0
O445 O 0.5229 0.37452 0.88194 0.0
Sc446 Sc 0.89376 0.30513 0.1439 0.0
Sc447 Sc 0.86159 0.38537 0.18459 0.0
Sc448 Sc 0.83701 0.36457 0.09476 0.0
O449 O 0.86402 0.35117 0.14099 0.0
C450 C 0.90848 0.32774 0.06193 0.0
C451 C 0.94519 0.3681 0.17982 0.0
C452 C 0.86127 0.44231 0.11831 0.0
C453 C 0.86989 0.30826 0.22542 0.0
C454 C 0.82246 0.27904 0.0984 0.0
C455 C 0.78097 0.38597 0.15918 0.0
O456 O 0.91954 0.31389 0.09185 0.0
O457 O 0.92017 0.39187 0.18402 0.0
O458 O 0.86291 0.41778 0.09358 0.0
O459 O 0.87134 0.2893 0.19615 0.0
O460 O 0.81111 0.31112 0.09077 0.0
O461 O 0.80289 0.37911 0.18562 0.0
O462 O 0.8514 0.2728 0.1171 0.0
O463 O 0.86787 0.34304 0.2248 0.0
O464 O 0.79078 0.3856 0.12551 0.0
O465 O 0.93927 0.33504 0.16906 0.0
O466 O 0.87904 0.34569 0.05896 0.0
O467 O 0.85598 0.43437 0.15189 0.0
Sc468 Sc 0.88128 0.57198 0.30462 0.0
Sc469 Sc 0.93374 0.63711 0.35334 0.0
Sc470 Sc 0.84338 0.62359 0.37436 0.0
O471 O 0.8861 0.61057 0.34376 0.0
C472 C 0.80457 0.60456 0.29739 0.0
C473 C 0.93051 0.63673 0.26904 0.0
C474 C 0.87481 0.69994 0.36351 0.0
C475 C 0.96022 0.55813 0.3259 0.0
C476 C 0.83384 0.53998 0.37224 0.0
C477 C 0.90987 0.63096 0.43199 0.0
O478 O 0.8337 0.59622 0.28021 0.0
O479 O 0.93284 0.65565 0.2984 0.0
O480 O 0.84758 0.67896 0.35556 0.0
O481 O 0.9278 0.54455 0.3271 0.0
O482 O 0.83904 0.56815 0.39259 0.0
O483 O 0.93433 0.61973 0.40978 0.0
O484 O 0.84421 0.53835 0.33865 0.0
O485 O 0.96686 0.59156 0.33476 0.0
O486 O 0.87713 0.63748 0.42156 0.0
O487 O 0.91714 0.60387 0.26744 0.0
O488 O 0.80422 0.61158 0.33162 0.0
O489 O 0.90678 0.68734 0.36978 0.0
Sc490 Sc 0.90868 0.83644 0.86561 0.0
Sc491 Sc 0.8259 0.8664 0.89768 0.0
Sc492 Sc 0.86361 0.90543 0.82133 0.0
O493 O 0.86644 0.86964 0.8617 0.0
C494 C 0.94485 0.91389 0.84075 0.0
C495 C 0.89768 0.85402 0.94634 0.0
C496 C 0.83143 0.94883 0.89154 0.0
C497 C 0.83885 0.78532 0.88739 0.0
C498 C 0.89692 0.83407 0.7823 0.0
C499 C 0.78434 0.88425 0.82248 0.0
O500 O 0.94733 0.87886 0.84425 0.0
O501 O 0.86286 0.84959 0.94226 0.0
O502 O 0.83473 0.94579 0.85648 0.0
O503 O 0.8738 0.79129 0.88801 0.0
O504 O 0.89148 0.86883 0.78216 0.0
O505 O 0.78464 0.88462 0.85764 0.0
O506 O 0.89803 0.8156 0.81183 0.0
O507 O 0.81631 0.81094 0.88148 0.0
O508 O 0.81352 0.88016 0.80424 0.0
O509 O 0.91935 0.85713 0.91922 0.0
O510 O 0.9141 0.92973 0.8387 0.0
O511 O 0.83623 0.92185 0.91295 0.0
Sc512 Sc 0.83309 0.13554 0.55196 0.0
Sc513 Sc 0.89154 0.17674 0.61707 0.0
Sc514 Sc 0.84216 0.09734 0.63801 0.0
O515 O 0.85586 0.13686 0.60231 0.0
C516 C 0.76646 0.1108 0.60491 0.0
C517 C 0.82693 0.21792 0.57479 0.0
C518 C 0.85296 0.16592 0.69222 0.0
C519 C 0.91543 0.16465 0.53531 0.0
C520 C 0.8493 0.05433 0.56273 0.0
C521 C 0.92709 0.10143 0.64558 0.0
O522 O 0.78032 0.11271 0.57261 0.0
O523 O 0.85783 0.21885 0.5918 0.0
O524 O 0.84788 0.13169 0.6864 0.0
O525 O 0.88273 0.15675 0.5244 0.0
O526 O 0.83623 0.05618 0.59515 0.0
O527 O 0.92797 0.1366 0.64246 0.0
O528 O 0.85402 0.0824 0.54269 0.0
O529 O 0.92332 0.16969 0.56888 0.0
O530 O 0.89779 0.08214 0.64224 0.0
O531 O 0.81259 0.18896 0.56075 0.0
O532 O 0.78624 0.1125 0.63372 0.0
O533 O 0.86326 0.18781 0.66713 0.0
Sc534 Sc 0.61806 0.06182 0.34984 0.0
Sc535 Sc 0.66385 0.12168 0.41128 0.0
Sc536 Sc 0.57523 0.13976 0.38293 0.0
O537 O 0.61904 0.10719 0.38172 0.0
C538 C 0.58255 0.12419 0.29968 0.0
C539 C 0.69847 0.09257 0.3365 0.0
C540 C 0.64043 0.19945 0.38873 0.0
C541 C 0.66135 0.0361 0.42257 0.0
C542 C 0.5363 0.0603 0.37122 0.0
C543 C 0.59558 0.13993 0.46443 0.0
O544 O 0.59099 0.09066 0.3053 0.0
O545 O 0.7023 0.10587 0.36878 0.0
O546 O 0.60668 0.19008 0.39153 0.0
O547 O 0.64667 0.02946 0.39114 0.0
O548 O 0.53653 0.09522 0.3734 0.0
O549 O 0.62992 0.1402 0.45671 0.0
O550 O 0.56581 0.04207 0.37024 0.0
O551 O 0.66568 0.06842 0.43557 0.0
O552 O 0.57065 0.13257 0.44073 0.0
O553 O 0.66868 0.07782 0.32502 0.0
O554 O 0.57975 0.14778 0.32536 0.0
O555 O 0.66588 0.17602 0.38882 0.0
Sc556 Sc 0.6599 0.87049 0.10206 0.0
Sc557 Sc 0.59803 0.81169 0.14485 0.0
Sc558 Sc 0.61624 0.8977 0.18105 0.0
O559 O 0.6248 0.85974 0.14225 0.0
C560 C 0.70003 0.90122 0.17562 0.0
C561 C 0.67888 0.78935 0.11924 0.0
C562 C 0.60382 0.82251 0.22486 0.0
C563 C 0.59295 0.82854 0.06113 0.0
C564 C 0.62789 0.94689 0.10992 0.0
C565 C 0.53815 0.87253 0.16104 0.0
O566 O 0.69735 0.89852 0.14052 0.0
O567 O 0.64549 0.78118 0.12712 0.0
O568 O 0.5984 0.857 0.22236 0.0
O569 O 0.62483 0.84403 0.06095 0.0
O570 O 0.62913 0.9442 0.1449 0.0
O571 O 0.54733 0.83869 0.16281 0.0
O572 O 0.63154 0.91919 0.08927 0.0
O573 O 0.57765 0.81669 0.0902 0.0
O574 O 0.56124 0.89919 0.16258 0.0
O575 O 0.68981 0.82183 0.11206 0.0
O576 O 0.67282 0.89554 0.19714 0.0
O577 O 0.61912 0.80575 0.19887 0.0
Sc578 Sc 0.34713 0.62302 0.03989 0.0
Sc579 Sc 0.40121 0.66236 0.1092 0.0
Sc580 Sc 0.3575 0.57877 0.12285 0.0
O581 O 0.36922 0.62128 0.09033 0.0
C582 C 0.28117 0.59137 0.08916 0.0
C583 C 0.336 0.70259 0.06806 0.0
C584 C 0.35923 0.64516 0.18037 0.0
C585 C 0.42872 0.6579 0.02881 0.0
C586 C 0.36738 0.5422 0.04363 0.0
C587 C 0.44001 0.58867 0.13817 0.0
O588 O 0.29504 0.59605 0.05715 0.0
O589 O 0.36765 0.70431 0.08349 0.0
O590 O 0.35929 0.61074 0.17356 0.0
O591 O 0.39639 0.64994 0.01665 0.0
O592 O 0.3559 0.54078 0.07676 0.0
O593 O 0.43767 0.62383 0.13731 0.0
O594 O 0.37074 0.57202 0.02598 0.0
O595 O 0.43633 0.65889 0.06285 0.0
O596 O 0.41388 0.5672 0.12834 0.0
O597 O 0.3228 0.67368 0.05311 0.0
O598 O 0.30079 0.59018 0.11803 0.0
O599 O 0.36741 0.66888 0.15624 0.0
Sc600 Sc 0.10334 0.55644 0.85203 0.0
Sc601 Sc 0.1536 0.61224 0.91318 0.0
Sc602 Sc 0.06503 0.63521 0.88885 0.0
O603 O 0.10722 0.60077 0.88506 0.0
C604 C 0.06829 0.6212 0.80496 0.0
C605 C 0.18425 0.58302 0.83659 0.0
C606 C 0.13374 0.6912 0.89236 0.0
C607 C 0.14871 0.52711 0.92211 0.0
C608 C 0.02272 0.55737 0.87695 0.0
C609 C 0.08905 0.63518 0.96909 0.0
O610 O 0.07517 0.58716 0.80962 0.0
O611 O 0.18959 0.59415 0.86948 0.0
O612 O 0.0997 0.68357 0.8967 0.0
O613 O 0.13347 0.52222 0.89064 0.0
O614 O 0.02413 0.59228 0.88001 0.0
O615 O 0.12282 0.63328 0.95963 0.0
O616 O 0.05162 0.53823 0.87492 0.0
O617 O 0.15266 0.55867 0.93702 0.0
O618 O 0.06267 0.6277 0.94701 0.0
O619 O 0.15316 0.57151 0.82499 0.0
O620 O 0.06734 0.64431 0.83123 0.0
O621 O 0.15791 0.66648 0.89079 0.0
Sc622 Sc 0.15259 0.37407 0.59589 0.0
Sc623 Sc 0.09079 0.31767 0.64177 0.0
Sc624 Sc 0.10888 0.40482 0.67377 0.0
O625 O 0.11716 0.36552 0.63631 0.0
C626 C 0.19282 0.40636 0.66837 0.0
C627 C 0.17136 0.29354 0.61716 0.0
C628 C 0.09794 0.33201 0.72085 0.0
C629 C 0.0855 0.32933 0.55743 0.0
C630 C 0.12112 0.45122 0.60079 0.0
C631 C 0.03068 0.37953 0.65634 0.0
O632 O 0.1904 0.40321 0.63328 0.0
O633 O 0.13796 0.2859 0.62538 0.0
O634 O 0.0911 0.36604 0.71692 0.0
O635 O 0.11705 0.34558 0.55639 0.0
O636 O 0.122 0.44962 0.63584 0.0
O637 O 0.04013 0.34577 0.65913 0.0
O638 O 0.125 0.42288 0.58097 0.0
O639 O 0.07007 0.31939 0.58716 0.0
O640 O 0.05382 0.40616 0.65561 0.0
O641 O 0.18226 0.32556 0.6081 0.0
O642 O 0.16526 0.40221 0.68971 0.0
O643 O 0.11344 0.31489 0.69533 0.0
Sc644 Sc 0.58759 0.68333 0.60884 0.0
Sc645 Sc 0.63153 0.61324 0.65676 0.0
Sc646 Sc 0.64733 0.62413 0.56395 0.0
O647 O 0.62193 0.64075 0.61 0.0
C648 C 0.57236 0.65251 0.52953 0.0
C649 C 0.54541 0.62235 0.6575 0.0
C650 C 0.62652 0.54969 0.59549 0.0
C651 C 0.62034 0.69448 0.68822 0.0
C652 C 0.65979 0.7094 0.56398 0.0
C653 C 0.70874 0.60975 0.62566 0.0
O654 O 0.56069 0.66573 0.55944 0.0
O655 O 0.57397 0.60365 0.6642 0.0
O656 O 0.62111 0.57165 0.56908 0.0
O657 O 0.60847 0.70753 0.65831 0.0
O658 O 0.67234 0.67729 0.55851 0.0
O659 O 0.68957 0.62262 0.65164 0.0
O660 O 0.62862 0.71563 0.57902 0.0
O661 O 0.62864 0.66089 0.69197 0.0
O662 O 0.69546 0.6044 0.59354 0.0
O663 O 0.54586 0.65235 0.63914 0.0
O664 O 0.60431 0.6394 0.52638 0.0
O665 O 0.63563 0.56093 0.62764 0.0
Sc666 Sc 0.31861 0.3595 0.40109 0.0
Sc667 Sc 0.36373 0.39758 0.32814 0.0
Sc668 Sc 0.40305 0.32757 0.37628 0.0
O669 O 0.36208 0.36168 0.3685 0.0
C670 C 0.3855 0.34494 0.45551 0.0
C671 C 0.32824 0.44182 0.3959 0.0
C672 C 0.44361 0.40362 0.35495 0.0
C673 C 0.28373 0.37968 0.32309 0.0
C674 C 0.3299 0.27876 0.39375 0.0
C675 C 0.39723 0.32476 0.29214 0.0
O676 O 0.35112 0.34094 0.44845 0.0
O677 O 0.33424 0.43891 0.36123 0.0
O678 O 0.44498 0.36854 0.35838 0.0
O679 O 0.28133 0.37954 0.35815 0.0
O680 O 0.3649 0.28396 0.39639 0.0
O681 O 0.39251 0.35964 0.29132 0.0
O682 O 0.30884 0.30438 0.38378 0.0
O683 O 0.31401 0.37467 0.30705 0.0
O684 O 0.39665 0.30655 0.32189 0.0
O685 O 0.32958 0.41447 0.41743 0.0
O686 O 0.40934 0.34874 0.43036 0.0
O687 O 0.41366 0.42008 0.34925 0.0
C688 C 0.13111 0.21017 0.28746 0.0
C689 C 0.09685 0.22729 0.29075 0.0
H690 H 0.16952 0.18498 0.25099 0.0
C691 C 0.0782 0.23843 0.25895 0.0
H692 H 0.14628 0.20181 0.31167 0.0
C693 C 0.09218 0.23005 0.22431 0.0
C694 C 0.12447 0.20945 0.22104 0.0
H695 H 0.05217 0.25248 0.26086 0.0
H696 H 0.07587 0.23678 0.2003 0.0
C697 C 0.14463 0.20093 0.25282 0.0
C698 C 0.10193 0.74818 0.51688 0.0
C699 C 0.07153 0.757 0.53886 0.0
H700 H 0.1393 0.76683 0.47505 0.0
C701 C 0.05867 0.79336 0.53894 0.0
H702 H 0.1126 0.7205 0.51649 0.0
C703 C 0.07369 0.81947 0.51512 0.0
C704 C 0.10246 0.81 0.49165 0.0
H705 H 0.03538 0.80115 0.55563 0.0
H706 H 0.0615 0.84645 0.51357 0.0
C707 C 0.11752 0.77472 0.49361 0.0
C708 C 0.41922 0.82409 0.80657 0.0
C709 C 0.43117 0.78808 0.8125 0.0
H710 H 0.38682 0.85938 0.77301 0.0
C711 C 0.41415 0.75874 0.7932 0.0
H712 H 0.43149 0.8471 0.82156 0.0
C713 C 0.38877 0.76575 0.76528 0.0
C714 C 0.37945 0.8021 0.75695 0.0
H715 H 0.42259 0.73062 0.79757 0.0
H716 H 0.37894 0.74313 0.74811 0.0
C717 C 0.39309 0.83101 0.77928 0.0
C718 C 0.40083 0.1838 0.02179 0.0
C719 C 0.43067 0.16884 0.0408 0.0
H720 H 0.3662 0.1806 0.97411 0.0
C721 C 0.44766 0.13728 0.02671 0.0
H722 H 0.38714 0.20795 0.0322 0.0
C723 C 0.43612 0.12196 -0.00675 0.0
C724 C 0.4068 0.13738 0.97384 0.0
H725 H 0.4706 0.12498 0.04092 0.0
H726 H 0.4504 0.09837 0.98236 0.0
C727 C 0.38873 0.16796 0.98874 0.0
C728 C 0.08765 0.83946 0.20908 0.0
C729 C 0.05233 0.84896 0.19685 0.0
H730 H 0.12671 0.84171 0.25332 0.0
C731 C 0.03125 0.87313 0.21813 0.0
H732 H 0.10474 0.82128 0.19308 0.0
C733 C 0.0444 0.88566 0.25225 0.0
C734 C 0.07842 0.87356 0.26557 0.0
H735 H 0.00406 0.88114 0.20913 0.0
H736 H 0.02696 0.90262 0.26924 0.0
C737 C 0.10036 0.85126 0.2434 0.0
C738 C 0.40152 0.75709 0.47366 0.0
C739 C 0.41059 0.77941 0.44363 0.0
H740 H 0.3937 0.75385 0.53145 0.0
C741 C 0.41807 0.81717 0.44913 0.0
H742 H 0.39623 0.7278 0.47023 0.0
C743 C 0.41632 0.83242 0.48445 0.0
C744 C 0.40821 0.80975 0.51463 0.0
H745 H 0.42552 0.83478 0.42622 0.0
H746 H 0.42159 0.86166 0.48821 0.0
C747 C 0.40083 0.77198 0.50884 0.0
C748 C 0.44422 0.17729 0.69992 0.0
C749 C 0.48297 0.1779 0.70186 0.0
H750 H 0.39414 0.15386 0.72127 0.0
C751 C 0.5009 0.14972 0.7209 0.0
H752 H 0.42955 0.19828 0.68501 0.0
C753 C 0.48041 0.12359 0.74057 0.0
C754 C 0.44189 0.12553 0.7416 0.0
H755 H 0.5307 0.14894 0.72219 0.0
H756 H 0.49476 0.10425 0.75791 0.0
C757 C 0.42383 0.15142 0.71994 0.0
C758 C 0.04485 0.13923 0.92991 0.0
C759 C 0.01704 0.16556 0.93136 0.0
H760 H 0.08762 0.11204 0.95966 0.0
C761 C 0.0082 0.18183 0.96516 0.0
H762 H 0.05187 0.12615 0.90408 0.0
C763 C 0.0278 0.17336 -0.00325 0.0
C764 C 0.05731 0.14887 -0.00478 0.0
H765 H 0.98639 0.20172 0.96709 0.0
H766 H 0.0207 0.18736 0.02207 0.0
C767 C 0.06517 0.13119 0.96165 0.0
C768 C 0.30748 0.08727 0.17383 0.0
C769 C 0.31643 0.05259 0.15948 0.0
H770 H 0.26938 0.13166 0.17303 0.0
C771 C 0.29704 0.03879 0.12874 0.0
H772 H 0.32225 0.09882 0.19723 0.0
C773 C 0.26748 0.05813 0.11424 0.0
C774 C 0.25642 0.09116 0.13078 0.0
H775 H 0.3037 0.01232 0.11689 0.0
H776 H 0.25163 0.0458 0.0919 0.0
C777 C 0.27736 0.10618 0.15991 0.0
C778 C 0.15625 0.0462 0.49349 0.0
C779 C 0.19208 0.04586 0.50852 0.0
H780 H 0.11503 0.01736 0.4619 0.0
C781 C 0.21233 0.01337 0.50655 0.0
H782 H 0.1397 0.07071 0.49474 0.0
C783 C 0.19772 0.98247 0.48821 0.0
C784 C 0.16291 0.98381 0.47101 0.0
H785 H 0.23977 0.01212 0.51829 0.0
H786 H 0.21461 0.9583 0.48574 0.0
C787 C 0.14196 0.01562 0.47468 0.0
C788 C 0.19339 0.94108 0.63163 0.0
C789 C 0.17634 0.93538 0.66576 0.0
H790 H 0.23974 0.92901 0.5975 0.0
C791 C 0.19151 0.91028 0.69076 0.0
H792 H 0.18222 0.9603 0.61197 0.0
C793 C 0.22464 0.89325 0.68295 0.0
C794 C 0.24249 0.90013 0.64956 0.0
H795 H 0.17901 0.90544 0.71739 0.0
H796 H 0.23693 0.87564 0.70347 0.0
C797 C 0.22609 0.92311 0.62336 0.0
C798 C 0.24 0.96867 0.90055 0.0
C799 C 0.24347 0.9605 0.93808 0.0
H800 H 0.26476 -0.00511 0.85369 0.0
C801 C 0.27547 0.97156 0.95726 0.0
H802 H 0.21577 0.95976 0.88518 0.0
C803 C 0.30316 0.99163 0.93948 0.0
C804 C 0.29979 -0.00022 0.90197 0.0
H805 H 0.27876 0.96519 0.9862 0.0
H806 H 0.32692 0.00137 0.95511 0.0
C807 C 0.26826 0.98787 0.88245 0.0
C808 C 0.28166 0.95453 0.30005 0.0
C809 C 0.27498 0.98916 0.28434 0.0
H810 H 0.26057 0.91032 0.33314 0.0
C811 C 0.2407 0.0055 0.28943 0.0
H812 H 0.30802 0.94141 0.29674 0.0
C813 C 0.2135 0.98749 0.30987 0.0
C814 C 0.22036 0.95312 0.32607 0.0
H815 H 0.23487 0.03212 0.27757 0.0
H816 H 0.1873 0.00085 0.31352 0.0
C817 C 0.25467 0.93681 0.32105 0.0
C818 C 0.33738 0.04014 0.62513 0.0
C819 C 0.33709 0.05092 0.58813 0.0
H820 H 0.34955 -0.00255 0.66327 0.0
C821 C 0.35571 0.02987 0.56185 0.0
H822 H 0.32369 0.05636 0.64593 0.0
C823 C 0.37006 -0.0041 0.57161 0.0
C824 C 0.36662 0.98315 0.60788 0.0
H825 H 0.35615 0.03789 0.53316 0.0
H826 H 0.38094 0.97829 0.55024 0.0
C827 C 0.35258 0.00663 0.63507 0.0
C828 C 0.20008 0.0939 0.77359 0.0
C829 C 0.1935 0.06126 0.75358 0.0
H830 H 0.23921 0.12654 0.80404 0.0
C831 C 0.22304 0.03829 0.74511 0.0
H832 H 0.17785 0.11228 0.78023 0.0
C833 C 0.25836 0.04698 0.75806 0.0
C834 C 0.26426 0.07836 0.78014 0.0
H835 H 0.21874 0.01329 0.72915 0.0
H836 H 0.28047 0.02803 0.75275 0.0
C837 C 0.23514 0.10221 0.78703 0.0
C838 C 0.13346 0.95325 0.04561 0.0
C839 C 0.16214 0.93503 0.06348 0.0
H840 H 0.10251 0.00274 0.04245 0.0
C841 C 0.17631 0.94904 0.09674 0.0
H842 H 0.12171 0.94263 0.02019 0.0
C843 C 0.16476 0.98292 0.10991 0.0
C844 C 0.1395 0.00342 0.08946 0.0
H845 H 0.198 0.93498 0.11132 0.0
H846 H 0.17823 -0.00554 0.13412 0.0
C847 C 0.12243 0.98755 0.05835 0.0
C848 C 0.24016 0.25898 0.00709 0.0
C849 C 0.24075 0.29205 0.02719 0.0
H850 H 0.21696 0.20461 0.00189 0.0
C851 C 0.21679 0.29612 0.05719 0.0
H852 H 0.25827 0.25525 0.98377 0.0
C853 C 0.19274 0.26757 0.06709 0.0
C854 C 0.19271 0.23419 0.04758 0.0
H855 H 0.21635 0.32155 0.07288 0.0
H856 H 0.17479 0.27135 0.09053 0.0
C857 C 0.21657 0.2301 0.01747 0.0
C858 C 0.70238 0.24622 0.95397 0.0
C859 C 0.68406 0.2119 0.95413 0.0
H860 H 0.706 0.29976 0.93012 0.0
C861 C 0.65826 0.20332 0.92641 0.0
H862 H 0.72285 0.2531 0.97479 0.0
C863 C 0.64819 0.2302 0.90106 0.0
C864 C 0.66469 0.26549 0.9025 0.0
H865 H 0.64416 0.17676 0.92586 0.0
H866 H 0.62581 0.22427 0.88198 0.0
C867 C 0.69323 0.27263 0.92794 0.0
C868 C 0.02949 0.41151 0.22235 0.0
C869 C 0.05417 0.41028 0.19271 0.0
H870 H 0.97457 0.39962 0.24092 0.0
C871 C 0.04366 0.39278 0.1598 0.0
H872 H 0.03704 0.42526 0.24789 0.0
C873 C 0.00846 0.37717 0.15634 0.0
C874 C 0.98325 0.38015 0.18531 0.0
H875 H 0.06243 0.39169 0.1367 0.0
H876 H 0.00033 0.3643 0.13051 0.0
C877 C -0.0061 0.3971 0.21841 0.0
C878 C 0.82111 0.78419 0.38652 0.0
C879 C 0.84403 0.80001 0.41362 0.0
H880 H 0.81332 0.73961 0.34851 0.0
C881 C 0.8798 0.78693 0.41865 0.0
H882 H 0.79354 0.79422 0.38193 0.0
C883 C 0.89135 0.75621 0.39923 0.0
C884 C 0.86697 0.73779 0.37503 0.0
H885 H 0.89824 0.7993 0.43892 0.0
H886 H 0.91824 0.74531 0.40549 0.0
C887 C 0.83246 0.75306 0.36741 0.0
C888 C 0.95566 0.09015 0.16084 0.0
C889 C 0.95542 0.06598 0.19105 0.0
H890 H 0.98785 0.12587 0.12631 0.0
C891 C 0.98799 0.06113 0.21121 0.0
H892 H 0.93081 0.09476 0.14504 0.0
C893 C 0.02059 0.07869 0.20028 0.0
C894 C 0.02111 0.10184 0.16934 0.0
H895 H 0.98862 0.04281 0.23466 0.0
H896 H 0.04557 0.07365 0.21575 0.0
C897 C 0.9882 0.10817 0.15025 0.0
C898 C 0.29569 0.71167 0.51883 0.0
C899 C 0.28338 0.68129 0.53921 0.0
H900 H 0.31699 0.76678 0.52057 0.0
C901 C 0.28415 0.68268 0.57785 0.0
H902 H 0.29476 0.71128 0.48901 0.0
C903 C 0.29717 0.71421 0.59601 0.0
C904 C 0.30855 0.74504 0.57568 0.0
H905 H 0.27445 0.65944 0.594 0.0
H906 H 0.2979 0.71466 0.62583 0.0
C907 C 0.30774 0.74352 0.53695 0.0
C908 C 0.04689 0.54304 0.27127 0.0
C909 C 0.03355 0.51988 0.24294 0.0
H910 H 0.03424 0.57283 0.3205 0.0
C911 C -0.00252 0.50547 0.24518 0.0
H912 H 0.07482 0.55409 0.27057 0.0
C913 C 0.97469 0.51517 0.27438 0.0
C914 C 0.98721 0.54016 0.3016 0.0
H915 H 0.98674 0.48681 0.22423 0.0
H916 H 0.94655 0.50469 0.27433 0.0
C917 C 0.02385 0.55335 0.30014 0.0
C918 C 0.45183 0.47891 0.85183 0.0
C919 C 0.43468 0.45845 0.82352 0.0
H920 H 0.49137 0.47866 0.8958 0.0
C921 C 0.43948 0.42031 0.82174 0.0
H922 H 0.44788 0.50834 0.85407 0.0
C923 C 0.46305 0.40313 0.84628 0.0
C924 C 0.48331 0.42402 0.87235 0.0
H925 H 0.42568 0.40379 0.80075 0.0
H926 H 0.46743 0.37389 0.84281 0.0
C927 C 0.47634 0.46187 0.8759 0.0
C928 C 0.93903 0.81299 0.68979 0.0
C929 C 0.9351 0.77435 0.68825 0.0
H930 H 0.92929 0.86245 0.72044 0.0
C931 C 0.91482 0.75618 0.7157 0.0
H932 H 0.95429 0.82778 0.66876 0.0
C933 C 0.90082 0.77603 0.74542 0.0
C934 C 0.90635 0.81447 0.74794 0.0
H935 H 0.91127 0.72649 0.71517 0.0
H936 H 0.88663 0.76109 0.76708 0.0
C937 C 0.92452 0.83292 0.71921 0.0
C938 C 0.96915 0.1733 0.44594 0.0
C939 C 0.00461 0.18313 0.45909 0.0
H940 H 0.91295 0.16001 0.45952 0.0
C941 C 0.01083 0.18414 0.49717 0.0
H942 H 0.96338 0.17239 0.41668 0.0
C943 C 0.982 0.17721 0.52157 0.0
C944 C 0.94604 0.16918 0.50859 0.0
H945 H 0.03771 0.19164 0.50825 0.0
H946 H 0.98789 0.17913 0.55077 0.0
C947 C 0.94013 0.16644 0.47046 0.0
C948 C 0.55092 0.18314 0.221 0.0
C949 C 0.54972 0.15762 0.19193 0.0
H950 H 0.56244 0.19266 0.27775 0.0
C951 C 0.56253 0.12176 0.19773 0.0
H952 H 0.54159 0.21107 0.21735 0.0
C953 C 0.57432 0.11105 0.23255 0.0
C954 C 0.57363 0.13607 0.26207 0.0
H955 H 0.5622 0.10148 0.17578 0.0
H956 H 0.58292 0.08292 0.23649 0.0
C957 C 0.56282 0.17249 0.2557 0.0
C958 C 0.56759 0.83727 0.96092 0.0
C959 C 0.53523 0.81558 0.95878 0.0
H960 H 0.61141 0.85807 -0.00525 0.0
C961 C 0.52015 0.8005 0.99094 0.0
H962 H 0.57966 0.84927 0.93638 0.0
C963 C 0.53866 0.80509 0.02446 0.0
C964 C 0.57238 0.82495 0.02619 0.0
H965 H 0.49545 0.78329 0.98986 0.0
H966 H 0.52715 0.79206 0.04872 0.0
C967 C 0.58601 0.84191 -0.00574 0.0
C968 C 0.8712 0.2305 0.77131 0.0
C969 C 0.8824 0.2054 0.79816 0.0
H970 H 0.85208 0.23742 0.71607 0.0
C971 C 0.8759 0.16757 0.79259 0.0
H972 H 0.87554 0.25986 0.77522 0.0
C973 C 0.86195 0.15472 0.75908 0.0
C974 C 0.855 0.17954 0.73043 0.0
H975 H 0.88366 0.14775 0.81331 0.0
H976 H 0.85985 0.12523 0.75462 0.0
C977 C 0.85772 0.21763 0.73752 0.0
C978 C 0.60048 0.18696 0.55682 0.0
C979 C 0.56396 0.19864 0.56087 0.0
H980 H 0.63907 0.15839 0.52346 0.0
C981 C 0.53716 0.18675 0.53532 0.0
H982 H 0.62172 0.19517 0.57637 0.0
C983 C 0.54704 0.1652 0.50529 0.0
C984 C 0.58399 0.15544 0.49999 0.0
H985 H 0.50865 0.19463 0.53809 0.0
H986 H 0.52591 0.15773 0.48534 0.0
C987 C 0.61041 0.16562 0.52663 0.0
C988 C 0.55827 0.73805 0.26563 0.0
C989 C 0.52682 0.7529 0.2819 0.0
H990 H 0.60835 0.74865 0.23662 0.0
C991 C 0.52342 0.79147 0.28339 0.0
H992 H 0.56218 0.70855 0.2648 0.0
C993 C 0.55003 0.81461 0.26739 0.0
C994 C 0.58071 0.79965 0.2497 0.0
H995 H 0.49969 0.80385 0.29616 0.0
H996 H 0.54557 0.84403 0.26731 0.0
C997 C 0.58502 0.76115 0.24999 0.0
C998 C 0.97052 0.85455 0.01999 0.0
C999 C 0.9554 0.82946 0.04523 0.0
H1000 H 0.96346 0.88262 0.96899 0.0
C1001 C 0.9189 0.81655 0.0403 0.0
H1002 H -0.00162 0.8653 0.02334 0.0
C1003 C 0.89871 0.82675 0.00929 0.0
C1004 C 0.9149 0.84974 0.98272 0.0
H1005 H 0.90641 0.79747 0.05963 0.0
H1006 H 0.87141 0.81486 0.00505 0.0
C1007 C 0.95047 0.86453 0.98896 0.0
C1008 C 0.70915 0.94859 0.79577 0.0
C1009 C 0.70579 0.94102 0.7579 0.0
H1010 H 0.73585 0.9353 0.84654 0.0
C1011 C 0.72578 0.91211 0.74252 0.0
H1012 H 0.69355 0.97034 0.80852 0.0
C1013 C 0.74936 0.89168 0.7644 0.0
C1014 C 0.7533 0.89967 0.80209 0.0
H1015 H 0.72326 0.90523 0.71356 0.0
H1016 H 0.76542 0.87029 0.75159 0.0
C1017 C 0.73261 0.92795 0.81775 0.0
C1018 C 0.86118 0.97871 0.49312 0.0
C1019 C 0.85874 0.94773 0.51593 0.0
H1020 H 0.85969 0.03735 0.49029 0.0
C1021 C 0.85937 0.95217 0.5543 0.0
H1022 H 0.861 0.97591 0.46342 0.0
C1023 C 0.85798 0.98716 0.56966 0.0
C1024 C 0.85639 0.01809 0.54679 0.0
H1025 H 0.85817 0.92855 0.57244 0.0
H1026 H 0.85644 0.98983 0.59933 0.0
C1027 C 0.86004 0.01381 0.50852 0.0
C1028 C 0.75328 0.07579 0.25088 0.0
C1029 C 0.78861 0.07086 0.26564 0.0
H1030 H 0.69693 0.08707 0.262 0.0
C1031 C 0.7953 0.08001 0.30282 0.0
H1032 H 0.74728 0.06951 0.22229 0.0
C1033 C 0.76631 0.09008 0.32569 0.0
C1034 C 0.73031 0.09097 0.31166 0.0
H1035 H 0.82241 0.07705 0.31491 0.0
H1036 H 0.77169 0.09446 0.35474 0.0
C1037 C 0.72438 0.08568 0.27372 0.0
C1038 C 0.64277 0.01923 0.03723 0.0
C1039 C 0.6471 0.05102 0.05888 0.0
H1040 H 0.63225 0.96137 0.03634 0.0
C1041 C 0.63804 0.0494 0.09659 0.0
H1042 H 0.64886 0.01968 0.00806 0.0
C1043 C 0.62914 0.01578 0.11308 0.0
C1044 C 0.62863 0.98335 0.09205 0.0
H1045 H 0.64053 0.07355 0.11408 0.0
H1046 H 0.62495 0.01496 0.14258 0.0
C1047 C 0.63333 0.98575 0.05361 0.0
C1048 C 0.67802 0.0553 0.59687 0.0
C1049 C 0.66504 0.05875 0.63313 0.0
H1050 H 0.72109 0.06981 0.55883 0.0
C1051 C 0.68091 0.08548 0.65643 0.0
H1052 H 0.66599 0.03486 0.57839 0.0
C1053 C 0.71157 0.10593 0.64507 0.0
C1054 C 0.72758 0.09939 0.61051 0.0
H1055 H 0.67089 0.08906 0.68426 0.0
H1056 H 0.72462 0.12469 0.66462 0.0
C1057 C 0.70936 0.07545 0.58561 0.0
C1058 C 0.71376 0.94948 0.44208 0.0
C1059 C 0.72644 0.95634 0.47817 0.0
H1060 H 0.6824 0.96896 0.39633 0.0
C1061 C 0.71332 0.98712 0.49729 0.0
H1062 H 0.7229 0.92572 0.42674 0.0
C1063 C 0.68994 0.01172 0.47992 0.0
C1064 C 0.67904 0.00607 0.44307 0.0
H1065 H 0.72211 -0.00697 0.52526 0.0
H1066 H 0.68163 0.03602 0.49494 0.0
C1067 C 0.69017 0.97405 0.42474 0.0
C1068 C 0.79744 0.93908 0.18295 0.0
C1069 C 0.80172 0.94323 0.22114 0.0
H1070 H 0.76221 0.9223 0.13865 0.0
C1071 C 0.77313 0.93165 0.24456 0.0
H1072 H 0.81915 0.9476 0.16426 0.0
C1073 C 0.74027 0.91721 0.22989 0.0
C1074 C 0.73557 0.91397 0.19154 0.0
H1075 H 0.77578 0.93452 0.27415 0.0
H1076 H 0.71839 0.90919 0.24858 0.0
C1077 C 0.76477 0.92452 0.1683 0.0
C1078 C 0.80153 0.01557 0.96468 0.0
C1079 C 0.77501 0.03606 0.94599 0.0
H1080 H 0.84098 0.97277 0.96169 0.0
C1081 C 0.76995 0.03029 0.90792 0.0
H1082 H 0.80649 0.01969 -0.00615 0.0
C1083 C 0.79015 0.00353 0.88925 0.0
C1084 C 0.8156 0.98205 0.90842 0.0
H1085 H 0.74997 0.046 0.89267 0.0
H1086 H 0.78459 -0.00151 0.86032 0.0
C1087 C 0.82154 0.9889 0.94614 0.0
C1088 C 0.76612 0.71885 0.92036 0.0
C1089 C 0.78533 0.69978 0.94762 0.0
H1090 H 0.7686 0.75963 0.87834 0.0
C1091 C 0.82399 0.70349 0.9494 0.0
H1092 H 0.73645 0.71591 0.91782 0.0
C1093 C 0.84257 0.72895 0.9269 0.0
C1094 C 0.8227 0.75073 0.90216 0.0
H1095 H 0.83953 0.68884 0.97002 0.0
H1096 H 0.87185 0.73366 0.93107 0.0
C1097 C 0.78465 0.74375 0.89762 0.0
C1098 C 0.30706 0.7991 0.0485 0.0
C1099 C 0.26849 0.79435 0.04745 0.0
H1100 H 0.35914 0.77341 0.05681 0.0
C1101 C 0.25246 0.76078 0.0582 0.0
H1102 H 0.31996 0.82507 0.04077 0.0
C1103 C 0.27483 0.73136 0.06697 0.0
C1104 C 0.31342 0.7354 0.06566 0.0
H1105 H 0.22281 0.75662 0.05781 0.0
H1106 H 0.26197 0.70498 0.07337 0.0
C1107 C 0.32946 0.7698 0.0579 0.0
C1108 C 0.95562 0.50629 0.81606 0.0
C1109 C 0.92494 0.5292 0.81912 0.0
H1110 H 0.01105 0.49652 0.83332 0.0
C1111 C 0.92391 0.55481 0.84822 0.0
H1112 H 0.95704 0.48588 0.7943 0.0
C1113 C 0.95462 0.56059 0.87083 0.0
C1114 C 0.98708 0.54102 0.86471 0.0
H1115 H 0.90027 0.57219 0.85207 0.0
H1116 H 0.95406 0.58272 0.89091 0.0
C1117 C 0.98648 0.51212 0.83876 0.0
C1118 C 0.25514 0.23768 0.59356 0.0
C1119 C 0.24422 0.20322 0.60728 0.0
H1120 H 0.24004 0.29382 0.58568 0.0
C1121 C 0.21233 0.19998 0.6288 0.0
H1122 H 0.27934 0.24049 0.57633 0.0
C1123 C 0.18954 0.22994 0.63358 0.0
C1124 C 0.19835 0.26371 0.61689 0.0
H1125 H 0.20348 0.17343 0.63951 0.0
H1126 H 0.16412 0.22609 0.64876 0.0
C1127 C 0.23229 0.26791 0.59844 0.0
C1128 C 0.03374 0.9445 0.79663 0.0
C1129 C 0.02915 0.98301 0.79575 0.0
H1130 H 0.01077 0.89207 0.81225 0.0
C1131 C 0.0007 -0.00159 0.81641 0.0
H1132 H 0.05583 0.93167 0.78157 0.0
C1133 C 0.9752 0.97562 0.83435 0.0
C1134 C 0.97753 0.93698 0.83184 0.0
H1135 H -0.00326 0.02791 0.81692 0.0
H1136 H 0.95217 0.98827 0.84811 0.0
C1137 C 0.00813 0.92167 0.81452 0.0
C1138 C 0.69481 0.28598 0.41109 0.0
C1139 C 0.66654 0.31183 0.41351 0.0
H1140 H 0.70885 0.23007 0.40064 0.0
C1141 C 0.63096 0.30183 0.40124 0.0
H1142 H 0.72267 0.29298 0.41975 0.0
C1143 C 0.623 0.26566 0.39041 0.0
C1144 C 0.65052 0.23893 0.39142 0.0
H1145 H 0.60864 0.32121 0.4023 0.0
H1146 H 0.5948 0.25821 0.38331 0.0
C1147 C 0.68689 0.24988 0.40001 0.0
C1148 C 0.95056 0.44103 0.65099 0.0
C1149 C 0.9308 0.43006 0.68224 0.0
H1150 H -0.00267 0.43174 0.61704 0.0
C1151 C 0.93944 0.39678 0.69973 0.0
H1152 H 0.94388 0.46611 0.63654 0.0
C1153 C 0.9702 0.37696 0.68849 0.0
C1154 C 0.99212 0.39027 0.65954 0.0
H1155 H 0.92424 0.38764 0.72374 0.0
H1156 H 0.97873 0.35346 0.7045 0.0
C1157 C 0.98082 0.42113 0.63958 0.0
C1158 C 0.5295 0.57522 0.1891 0.0
C1159 C 0.53286 0.53667 0.18742 0.0
H1160 H 0.49772 0.62204 0.17456 0.0
C1161 C 0.50652 0.51562 0.16811 0.0
H1162 H 0.54963 0.59222 0.20369 0.0
C1163 C 0.47689 0.53278 0.15127 0.0
C1164 C 0.47309 0.57133 0.15348 0.0
H1165 H 0.50863 0.48594 0.1662 0.0
H1166 H 0.45674 0.51567 0.13684 0.0
C1167 C 0.49992 0.59241 0.17224 0.0
C1168 C 0.57706 0.75705 0.75708 0.0
C1169 C 0.59458 0.74606 0.78952 0.0
H1170 H 0.57287 0.75042 0.69889 0.0
C1171 C 0.62521 0.72303 0.78755 0.0
H1172 H 0.55375 0.77527 0.75799 0.0
C1173 C 0.63586 0.70823 0.75382 0.0
C1174 C 0.61658 0.71708 0.72161 0.0
H1175 H 0.6393 0.7144 0.81232 0.0
H1176 H 0.65776 0.68835 0.75322 0.0
C1177 C 0.58834 0.7431 0.72327 0.0
C1178 C 0.54409 0.29 0.04196 0.0
C1179 C 0.55717 0.25379 0.03952 0.0
H1180 H 0.54709 0.34482 0.02066 0.0
C1181 C 0.58814 0.24677 0.0177 0.0
H1182 H 0.52046 0.29648 0.05877 0.0
C1183 C 0.60411 0.27506 -0.0032 0.0
C1184 C 0.58884 0.31035 -0.00297 0.0
H1185 H 0.59914 0.21929 0.0157 0.0
H1186 H 0.62629 0.26858 0.97818 0.0
C1187 C 0.55953 0.3179 0.02057 0.0
C1188 C 0.91828 0.30294 0.31557 0.0
C1189 C 0.93279 0.26757 0.31318 0.0
H1190 H 0.8841 0.34292 0.29081 0.0
C1191 C 0.91852 0.24251 0.2871 0.0
H1192 H 0.92817 0.32229 0.3363 0.0
C1193 C 0.89356 0.25438 0.26047 0.0
C1194 C 0.88242 0.29133 0.26009 0.0
H1195 H 0.92896 0.21478 0.28535 0.0
H1196 H 0.88579 0.23564 0.23838 0.0
C1197 C 0.8927 0.31452 0.28968 0.0
C1198 C 0.91545 0.69244 0.51553 0.0
C1199 C 0.94503 0.67756 0.53485 0.0
H1200 H 0.88077 0.68875 0.46815 0.0
C1201 C 0.96228 0.64598 0.52101 0.0
H1202 H 0.90164 0.71665 0.52568 0.0
C1203 C 0.95074 0.63019 0.48768 0.0
C1204 C 0.92113 0.64518 0.46836 0.0
H1205 H 0.9852 0.63392 0.53547 0.0
H1206 H 0.96492 0.60645 0.477 0.0
C1207 C 0.90336 0.67619 0.48279 0.0
C1208 C 0.50883 0.35225 0.72532 0.0
C1209 C 0.53106 0.32808 0.70531 0.0
H1210 H 0.50389 0.38522 0.7742 0.0
C1211 C 0.56704 0.32132 0.71755 0.0
H1212 H 0.48112 0.35816 0.71617 0.0
C1213 C 0.57968 0.33631 0.75059 0.0
C1214 C 0.55693 0.35904 0.77138 0.0
H1215 H 0.58496 0.30316 0.7025 0.0
H1216 H 0.60676 0.32906 0.76063 0.0
C1217 C 0.52189 0.36799 0.75814 0.0
C1218 C 0.92715 0.25952 0.98872 0.0
C1219 C 0.93027 0.28232 0.95788 0.0
H1220 H 0.9202 0.25684 0.04691 0.0
C1221 C 0.93186 0.32073 0.96225 0.0
H1222 H 0.92652 0.2298 0.98586 0.0
C1223 C 0.92764 0.33625 -0.0029 0.0
C1224 C 0.92345 0.31336 0.02782 0.0
H1225 H 0.93478 0.33865 0.93862 0.0
H1226 H 0.92615 0.36591 -8e-05 0.0
C1227 C 0.92441 0.27497 0.02359 0.0
C1228 C 0.95529 0.708 0.2009 0.0
C1229 C -0.00612 0.70477 0.20066 0.0
H1230 H 0.90412 0.68722 0.22239 0.0
C1231 C 0.00985 0.67386 0.21699 0.0
H1232 H 0.94211 0.7313 0.1882 0.0
C1233 C 0.98779 0.648 0.23535 0.0
C1234 C 0.94963 0.65289 0.23779 0.0
H1235 H 0.03941 0.67023 0.21658 0.0
H1236 H 0.00086 0.62591 0.25023 0.0
C1237 C 0.93338 0.68241 0.21967 0.0
C1238 C 0.50063 0.68751 0.46389 0.0
C1239 C 0.50886 0.66815 0.43153 0.0
H1240 H 0.51375 0.69716 0.52036 0.0
C1241 C 0.53637 0.64146 0.43217 0.0
H1242 H 0.47915 0.70786 0.46428 0.0
C1243 C 0.55657 0.63553 0.46436 0.0
C1244 C 0.54901 0.65571 0.49647 0.0
H1245 H 0.54308 0.62608 0.40755 0.0
H1246 H 0.57844 0.61561 0.46393 0.0
C1247 C 0.52028 0.68114 0.4961 0.0
C1248 C 0.78346 0.53967 0.63389 0.0
C1249 C 0.80301 0.55296 0.66476 0.0
H1250 H 0.73868 0.54802 0.59649 0.0
C1251 C 0.79452 0.58772 0.67926 0.0
H1252 H 0.78965 0.51311 0.62195 0.0
C1253 C 0.7651 0.60748 0.66502 0.0
C1254 C 0.74426 0.59326 0.63543 0.0
H1255 H 0.80936 0.5989 0.7028 0.0
H1256 H 0.75773 0.6332 0.67805 0.0
C1257 C 0.75453 0.55983 0.61911 0.0
C1258 C 0.65264 0.55082 0.97566 0.0
C1259 C 0.68806 0.54907 0.99141 0.0
H1260 H 0.60917 0.52204 0.94715 0.0
C1261 C 0.70551 0.51498 -0.00669 0.0
H1262 H 0.6383 0.57667 0.97398 0.0
C1263 C 0.68837 0.48347 0.97851 0.0
C1264 C 0.65379 0.4857 0.96103 0.0
H1265 H 0.73256 0.51272 0.00575 0.0
H1266 H 0.70307 0.45778 0.97918 0.0
C1267 C 0.6358 0.51952 0.9604 0.0
C1268 C 0.69625 0.40883 0.21311 0.0
C1269 C 0.68224 0.43815 0.19247 0.0
H1270 H 0.73877 0.36914 0.21859 0.0
C1271 C 0.69838 0.44713 0.15859 0.0
H1272 H 0.68426 0.40118 0.23932 0.0
C1273 C 0.72921 0.42818 0.14641 0.0
C1274 C 0.74464 0.40053 0.16832 0.0
H1275 H 0.68797 0.46949 0.14211 0.0
H1276 H 0.74222 0.4367 0.12095 0.0
C1277 C 0.72742 0.39042 0.20131 0.0
C1278 C 0.74719 0.48361 0.38441 0.0
C1279 C 0.75155 0.47142 0.42076 0.0
H1280 H 0.77137 0.51382 0.33965 0.0
C1281 C 0.78487 0.47879 0.43942 0.0
H1282 H 0.72191 0.4778 0.36936 0.0
C1283 C 0.81283 0.49932 0.42264 0.0
C1284 C 0.80838 0.51188 0.38654 0.0
H1285 H 0.78892 0.46955 0.46745 0.0
H1286 H 0.83755 0.5063 0.43819 0.0
C1287 C 0.77567 0.50342 0.36723 0.0
C1288 C 0.72397 0.49561 0.78392 0.0
C1289 C 0.7596 0.4815 0.7826 0.0
H1290 H 0.66909 0.48853 0.80378 0.0
C1291 C 0.76691 0.44771 0.79973 0.0
H1292 H 0.71763 0.52147 0.77075 0.0
C1293 C 0.73928 0.42903 0.81912 0.0
C1294 C 0.70377 0.44346 0.82095 0.0
H1295 H 0.79428 0.4363 0.79918 0.0
H1296 H 0.74578 0.40356 0.83296 0.0
C1297 C 0.6962 0.47657 0.80263 0.0
C1298 C 0.82466 0.53783 0.11573 0.0
C1299 C 0.82873 0.54612 0.07829 0.0
H1300 H 0.83322 0.49871 0.15832 0.0
C1301 C 0.85021 0.52354 0.05589 0.0
H1302 H 0.80881 0.55536 0.13369 0.0
C1303 C 0.86403 0.49082 0.06988 0.0
C1304 C 0.85683 0.48069 0.10652 0.0
H1305 H 0.85403 0.52971 0.02698 0.0
H1306 H 0.87816 0.47238 0.0514 0.0
C1307 C 0.83894 0.50553 0.12987 0.0
C1308 C 0.72599 0.54827 0.26065 0.0
C1309 C 0.69617 0.56961 0.27206 0.0
H1310 H 0.7847 0.54396 0.25805 0.0
C1311 C 0.70286 0.60548 0.28544 0.0
H1312 H 0.72155 0.52086 0.24939 0.0
C1313 C 0.73882 0.61871 0.29002 0.0
C1314 C 0.76863 0.59657 0.28068 0.0
H1315 H 0.68038 0.62278 0.29391 0.0
H1316 H 0.74342 0.64535 0.30297 0.0
C1317 C 0.76203 0.56183 0.26466 0.0
C1318 C 0.67775 0.46269 0.58446 0.0
C1319 C 0.66369 0.45028 0.55049 0.0
H1320 H 0.67552 0.50364 0.62662 0.0
C1321 C 0.63175 0.46595 0.53604 0.0
H1322 H 0.70193 0.45041 0.59652 0.0
C1323 C 0.61661 0.4965 0.55327 0.0
C1324 C 0.63301 0.51126 0.58531 0.0
H1325 H 0.62011 0.45638 0.51014 0.0
H1326 H 0.5939 0.51027 0.54003 0.0
C1327 C 0.66225 0.49278 0.602 0.0
C1328 C 0.70641 0.80267 0.56756 0.0
C1329 C 0.73383 0.79892 0.54067 0.0
H1330 H 0.66083 0.7774 0.59544 0.0
C1331 C 0.73558 0.76619 0.52016 0.0
H1332 H 0.70416 0.82786 0.58342 0.0
C1333 C 0.71092 0.73722 0.52724 0.0
C1334 C 0.68374 0.74088 0.55441 0.0
H1335 H 0.75638 0.76272 0.49916 0.0
H1336 H 0.71324 0.71191 0.51159 0.0
C1337 C 0.68135 0.774 0.57415 0.0
C1338 C 0.2149 0.74836 0.44965 0.0
C1339 C 0.19607 0.71437 0.44715 0.0
H1340 H 0.22129 0.80262 0.42792 0.0
C1341 C 0.17347 0.70679 0.41653 0.0
H1342 H 0.23315 0.75439 0.47265 0.0
C1343 C 0.16645 0.73445 0.39098 0.0
C1344 C 0.18269 0.76963 0.39533 0.0
H1345 H 0.15912 0.68048 0.41381 0.0
H1346 H 0.14607 0.72932 0.36961 0.0
C1347 C 0.20869 0.77565 0.42359 0.0
C1348 C 0.52822 0.90102 0.72075 0.0
C1349 C 0.55252 0.90724 0.69136 0.0
H1350 H 0.47466 0.88166 0.73699 0.0
C1351 C 0.54305 0.89492 0.65592 0.0
H1352 H 0.53494 0.91059 0.7483 0.0
C1353 C 0.50899 0.87767 0.64965 0.0
C1354 C 0.48376 0.87361 0.6786 0.0
H1355 H 0.56156 0.8995 0.63298 0.0
H1356 H 0.50162 0.86936 0.62187 0.0
C1357 C 0.49378 0.88474 0.7143 0.0
C1358 C 0.37245 0.28315 0.88845 0.0
C1359 C 0.33528 0.29301 0.88898 0.0
H1360 H 0.41093 0.24116 0.87666 0.0
C1361 C 0.30891 0.27108 0.8706 0.0
H1362 H 0.39334 0.30029 0.9018 0.0
C1363 C 0.31887 0.23695 0.85643 0.0
C1364 C 0.35528 0.22477 0.86054 0.0
H1365 H 0.28013 0.27852 0.87042 0.0
H1366 H 0.29743 0.21893 0.84531 0.0
C1367 C 0.38248 0.24931 0.87403 0.0
C1368 C 0.47719 0.56625 0.71263 0.0
C1369 C 0.44468 0.57092 0.69233 0.0
H1370 H 0.53467 0.57907 0.71736 0.0
C1371 C 0.44475 0.59549 0.66245 0.0
H1372 H 0.47794 0.54764 0.73586 0.0
C1373 C 0.47719 0.61384 0.65209 0.0
C1374 C 0.51011 0.6074 0.67109 0.0
H1375 H 0.41992 0.59998 0.64657 0.0
H1376 H 0.47683 0.63169 0.62826 0.0
C1377 C 0.50967 0.58413 0.70194 0.0
C1378 C 0.78769 0.18307 0.0789 0.0
C1379 C 0.78155 0.18466 0.04077 0.0
H1380 H 0.80561 0.21221 0.12733 0.0
C1381 C 0.78754 0.21779 0.02195 0.0
H1382 H 0.78286 0.15769 0.09389 0.0
C1383 C 0.7989 0.24927 0.04135 0.0
C1384 C 0.80526 0.24755 0.07951 0.0
H1385 H 0.78241 0.21958 -0.00738 0.0
H1386 H 0.80379 0.27466 0.02641 0.0
C1387 C 0.80011 0.21417 0.09807 0.0
C1388 C 0.48934 -0.0047 0.75726 0.0
C1389 C 0.52516 0.01044 0.75561 0.0
H1390 H 0.43873 0.99193 0.78704 0.0
C1391 C 0.53891 0.03076 0.78586 0.0
H1392 H 0.47838 0.97862 0.73482 0.0
C1393 C 0.51637 0.03812 0.81595 0.0
C1394 C 0.47976 0.02494 0.81664 0.0
H1395 H 0.56668 0.04223 0.78571 0.0
H1396 H 0.52692 0.05591 0.83772 0.0
C1397 C 0.46694 0.0022 0.78764 0.0
C1398 C 0.95147 0.91927 0.32101 0.0
C1399 C 0.9456 0.95722 0.32349 0.0
H1400 H 0.98168 0.87352 0.34029 0.0
C1401 C 0.96331 0.97784 0.35136 0.0
H1402 H 0.93736 0.9026 0.30035 0.0
C1403 C 0.98923 0.96126 0.37424 0.0
C1404 C -0.00276 0.92372 0.36986 0.0
H1405 H 0.95867 0.00711 0.35412 0.0
H1406 H 0.00451 0.97828 0.39376 0.0
C1407 C 0.97659 0.90257 0.34431 0.0
C1408 C 0.41397 0.24633 0.22552 0.0
C1409 C 0.4306 0.26495 0.19605 0.0
H1410 H 0.39039 0.25079 0.2792 0.0
C1411 C 0.43344 0.30366 0.19706 0.0
H1412 H 0.41144 0.21655 0.22543 0.0
C1413 C 0.42115 0.32334 0.2276 0.0
C1414 C 0.40628 0.30464 0.25798 0.0
H1415 H 0.44595 0.31878 0.17454 0.0
H1416 H 0.42467 0.35304 0.228 0.0
C1417 C 0.40213 0.26599 0.25633 0.0
C1418 C 0.51921 0.69706 -0.00695 0.0
C1419 C 0.51278 0.69768 0.955 0.0
H1420 H 0.49791 0.6839 0.04609 0.0
C1421 C 0.47978 0.6819 0.94105 0.0
H1422 H 0.54422 0.70907 0.00469 0.0
C1423 C 0.45285 0.66782 0.9648 0.0
C1424 C 0.45845 0.66899 0.00301 0.0
H1425 H 0.47393 0.68189 0.91179 0.0
H1426 H 0.42725 0.6571 0.95326 0.0
C1427 C 0.49242 0.68276 0.01677 0.0
C1428 C 0.04242 0.68353 0.72646 0.0
C1429 C 0.04665 0.66009 0.69603 0.0
H1430 H 0.04565 0.68954 0.7848 0.0
C1431 C 0.05937 0.62415 0.70158 0.0
H1432 H 0.03263 0.71134 0.72314 0.0
C1433 C 0.0665 0.61151 0.73696 0.0
C1434 C 0.06125 0.63461 0.76747 0.0
H1435 H 0.06305 0.60537 0.6787 0.0
H1436 H 0.07587 0.58356 0.74034 0.0
C1437 C 0.04969 0.67093 0.76185 0.0
C1438 C 0.06529 0.32114 0.45607 0.0
C1439 C 0.03364 0.29834 0.45594 0.0
H1440 H 0.10651 0.34892 0.48822 0.0
C1441 C 0.01691 0.28861 0.48925 0.0
H1442 H 0.07847 0.3292 0.43054 0.0
C1443 C 0.0332 0.29963 0.52246 0.0
C1444 C 0.0663 0.32062 0.52262 0.0
H1445 H -0.00738 0.2708 0.4897 0.0
H1446 H 0.02058 0.29053 0.5479 0.0
C1447 C 0.08147 0.33224 0.48909 0.0
C1448 C 0.36491 0.71135 0.25937 0.0
C1449 C 0.38126 0.6891 0.28603 0.0
H1450 H 0.34368 0.71425 0.20456 0.0
C1451 C 0.38208 0.65078 0.28051 0.0
H1452 H 0.3633 0.74088 0.26327 0.0
C1453 C 0.37051 0.63543 0.2471 0.0
C1454 C 0.35835 0.65833 0.2187 0.0
H1455 H 0.39382 0.63288 0.30108 0.0
H1456 H 0.37436 0.60626 0.24246 0.0
C1457 C 0.35352 0.69605 0.22587 0.0
C1458 C 0.10315 0.69007 0.05623 0.0
C1459 C 0.06878 0.70699 0.05978 0.0
H1460 H 0.13627 0.65311 0.02534 0.0
C1461 C 0.03975 0.69598 0.0363 0.0
H1462 H 0.12597 0.69745 0.07425 0.0
C1463 C 0.04551 0.67004 0.0086 0.0
C1464 C 0.08055 0.65489 0.00355 0.0
H1465 H 0.01271 0.70789 0.03881 0.0
H1466 H 0.02297 0.66346 0.98994 0.0
C1467 C 0.10898 0.66433 0.02838 0.0
C1468 C 0.05692 0.24732 0.76519 0.0
C1469 C 0.02581 0.26156 0.78246 0.0
H1470 H 0.10544 0.25883 0.73411 0.0
C1471 C 0.02101 0.29997 0.78323 0.0
H1472 H 0.06183 0.21797 0.765 0.0
C1473 C 0.046 0.32358 0.76548 0.0
C1474 C 0.07645 0.30919 0.74698 0.0
H1475 H -0.0026 0.31175 0.79678 0.0
H1476 H 0.04051 0.3528 0.76485 0.0
C1477 C 0.08218 0.27089 0.74802 0.0
C1478 C 0.45291 0.34212 0.5334 0.0
C1479 C 0.43933 0.31189 0.55344 0.0
H1480 H 0.44554 0.377 0.48686 0.0
C1481 C 0.40448 0.29665 0.54453 0.0
H1482 H 0.47938 0.35481 0.53999 0.0
C1483 C 0.3848 0.30977 0.51429 0.0
C1484 C 0.39993 0.33807 0.49258 0.0
H1485 H 0.39316 0.27358 0.55987 0.0
H1486 H 0.35919 0.29603 0.50638 0.0
C1487 C 0.43342 0.35502 0.50319 0.0
C1488 C 0.21265 0.44653 0.29136 0.0
C1489 C 0.21075 0.43834 0.25353 0.0
H1490 H 0.23629 0.43313 0.3436 0.0
C1491 C 0.23066 0.40866 0.23957 0.0
H1492 H 0.19705 0.46889 0.30299 0.0
C1493 C 0.25261 0.38793 0.26289 0.0
C1494 C 0.25475 0.39626 0.30064 0.0
H1495 H 0.22929 0.40139 0.21064 0.0
H1496 H 0.26862 0.36586 0.25124 0.0
C1497 C 0.23432 0.4255 0.31478 0.0
C1498 C 0.3642 0.47223 0.96746 0.0
C1499 C 0.36432 0.43979 0.98819 0.0
H1500 H 0.36519 0.53105 0.96925 0.0
C1501 C 0.37337 0.44123 0.02575 0.0
H1502 H 0.35763 0.47164 0.93834 0.0
C1503 C 0.3772 0.47498 0.04348 0.0
C1504 C 0.37241 0.50758 0.02371 0.0
H1505 H 0.37444 0.41634 0.04207 0.0
H1506 H 0.38151 0.47547 0.07301 0.0
C1507 C 0.36832 0.50615 0.98521 0.0
C1508 C 0.23853 0.56467 0.75045 0.0
C1509 C 0.27461 0.56386 0.76437 0.0
H1510 H 0.18161 0.57166 0.76243 0.0
C1511 C 0.28126 0.5746 0.8011 0.0
H1512 H 0.23249 0.55681 0.72223 0.0
C1513 C 0.25201 0.58296 0.82429 0.0
C1514 C 0.21565 0.58062 0.81113 0.0
H1515 H 0.30886 0.57465 0.81257 0.0
H1516 H 0.25779 0.58926 0.85293 0.0
C1517 C 0.20932 0.57293 0.77362 0.0
C1518 C 0.12956 0.55365 0.58609 0.0
C1519 C 0.14113 0.55484 0.54909 0.0
H1520 H 0.11427 0.51967 0.63173 0.0
C1521 C 0.1385 0.52265 0.52772 0.0
H1522 H 0.1306 0.57808 0.60329 0.0
C1523 C 0.12876 0.48921 0.54406 0.0
C1524 C 0.12191 0.48731 0.58216 0.0
H1525 H 0.14653 0.52273 0.49902 0.0
H1526 H 0.12933 0.46452 0.52724 0.0
C1527 C 0.1203 0.5201 0.60255 0.0
C1528 C 0.19368 0.57495 0.14011 0.0
C1529 C 0.17709 0.54689 0.11897 0.0
H1530 H 0.2391 0.61263 0.14583 0.0
C1531 C 0.1906 0.5395 0.08349 0.0
H1532 H 0.18332 0.58154 0.16725 0.0
C1533 C 0.22304 0.55715 0.07121 0.0
C1534 C 0.24175 0.58245 0.09431 0.0
H1535 H 0.178 0.51796 0.06671 0.0
H1536 H 0.23514 0.54859 0.0454 0.0
C1537 C 0.22546 0.59283 0.12773 0.0
C1538 C 0.20891 0.47654 0.98894 0.0
C1539 C 0.22207 0.44792 0.96671 0.0
H1540 H 0.17444 0.52343 -0.00735 0.0
C1541 C 0.2064 0.44233 0.93159 0.0
H1542 H 0.21988 0.48131 0.01635 0.0
C1543 C 0.17992 0.46634 0.9181 0.0
C1544 C 0.16878 0.49653 0.93937 0.0
H1545 H 0.21547 0.42018 0.91395 0.0
H1546 H 0.16997 0.46251 0.89017 0.0
C1547 C 0.18259 0.50056 0.97542 0.0
C1548 C 0.29131 0.44055 0.67777 0.0
C1549 C 0.29521 0.44306 0.71615 0.0
H1550 H 0.25594 0.42683 0.6325 0.0
C1551 C 0.2661 0.43134 0.73881 0.0
H1552 H 0.31346 0.44925 0.65968 0.0
C1553 C 0.23304 0.41866 0.72327 0.0
C1554 C 0.2286 0.41733 0.6848 0.0
H1555 H 0.26844 0.43297 0.76851 0.0
H1556 H 0.21077 0.41053 0.74147 0.0
C1557 C 0.25834 0.42771 0.66222 0.0
C1558 C 0.2711 0.52688 0.40769 0.0
C1559 C 0.27346 0.53221 0.44604 0.0
H1560 H 0.28746 0.49431 0.36129 0.0
C1561 C 0.29695 0.51005 0.46674 0.0
H1562 H 0.25351 0.54391 0.39097 0.0
C1563 C 0.31662 0.48219 0.44974 0.0
C1564 C 0.31328 0.47586 0.41165 0.0
H1565 H 0.2998 0.51381 0.49621 0.0
H1566 H 0.33366 0.46481 0.46669 0.0
C1567 C 0.29095 0.49893 0.39058 0.0
C1568 C 0.31456 0.20019 0.45993 0.0
C1569 C 0.27586 0.19997 0.46296 0.0
H1570 H 0.36231 0.22501 0.43512 0.0
C1571 C 0.25534 0.22102 0.43828 0.0
H1572 H 0.3312 0.18395 0.47835 0.0
C1573 C 0.27318 0.24391 0.41294 0.0
C1574 C 0.31198 0.24685 0.41224 0.0
H1575 H 0.2255 0.22087 0.4394 0.0
H1576 H 0.2564 0.2611 0.39556 0.0
C1577 C 0.33247 0.22353 0.43492 0.0
C1578 C 0.80529 0.313 0.54304 0.0
C1579 C 0.76656 0.31079 0.54172 0.0
H1580 H 0.85523 0.28502 0.55583 0.0
C1581 C 0.7481 0.2801 0.5565 0.0
H1582 H 0.82007 0.33677 0.53224 0.0
C1583 C 0.76817 0.25065 0.56969 0.0
C1584 C 0.80687 0.25186 0.56881 0.0
H1585 H 0.71828 0.27795 0.55605 0.0
H1586 H 0.75344 0.22621 0.57907 0.0
C1587 C 0.82539 0.28374 0.55685 0.0
C1588 C 0.47097 0.00855 0.3094 0.0
C1589 C 0.43963 0.03042 0.31321 0.0
H1590 H 0.52682 0.00019 0.32622 0.0
C1591 C 0.4377 0.05489 0.34317 0.0
H1592 H 0.47303 0.98904 0.28689 0.0
C1593 C 0.46818 0.06084 0.36599 0.0
C1594 C 0.5013 0.04267 0.3591 0.0
H1595 H 0.41348 0.07136 0.34753 0.0
H1596 H 0.46695 0.08228 0.38677 0.0
C1597 C 0.50167 0.01463 0.33225 0.0
C1598 C 0.7174 0.69437 0.11793 0.0
C1599 C 0.74824 0.69961 0.09529 0.0
H1600 H 0.67118 0.71899 0.14362 0.0
C1601 C 0.76012 0.73522 0.08609 0.0
H1602 H 0.70803 0.66685 0.1253 0.0
C1603 C 0.73876 0.7652 0.09623 0.0
C1604 C 0.70543 0.75949 0.11542 0.0
H1605 H 0.78365 0.73956 0.06823 0.0
H1606 H 0.74688 0.79235 0.0866 0.0
C1607 C 0.69613 0.72411 0.12801 0.0
C1608 C 0.53641 0.43656 0.32151 0.0
C1609 C 0.53222 0.47508 0.32404 0.0
H1610 H 0.51152 0.38318 0.32991 0.0
C1611 C 0.50258 0.48877 0.3443 0.0
H1612 H 0.55928 0.42498 0.30659 0.0
C1613 C 0.47554 0.46472 0.35791 0.0
C1614 C 0.47748 0.42653 0.35145 0.0
H1615 H 0.49883 0.51814 0.34744 0.0
H1616 H 0.45163 0.47631 0.37112 0.0
C1617 C 0.50921 0.41245 0.33511 0.0
C1618 C 0.19084 0.77382 0.9209 0.0
C1619 C 0.16369 0.80089 0.92258 0.0
H1620 H 0.20279 0.71761 0.90921 0.0
C1621 C 0.12881 0.79331 0.90706 0.0
H1622 H 0.21819 0.77896 0.93206 0.0
C1623 C 0.11996 0.7581 0.89408 0.0
C1624 C 0.14591 0.72995 0.89612 0.0
H1625 H 0.10743 0.81374 0.90726 0.0
H1626 H 0.09207 0.75235 0.88468 0.0
C1627 C 0.18205 0.73864 0.90763 0.0
C1628 C 0.4592 0.93377 0.14915 0.0
C1629 C 0.43901 0.92534 0.18087 0.0
H1630 H 0.50641 0.92149 0.11683 0.0
C1631 C 0.44649 0.89299 0.2005 0.0
H1632 H 0.45336 0.9581 0.13311 0.0
C1633 C 0.47693 0.87188 0.19107 0.0
C1634 C 0.49957 0.88304 0.16183 0.0
H1635 H 0.43091 0.88582 0.22491 0.0
H1636 H 0.48485 0.8494 0.20879 0.0
C1637 C 0.48918 0.91259 0.13956 0.0
C1638 C 0.02727 0.0812 0.66299 0.0
C1639 C 0.02674 0.04243 0.66363 0.0
H1640 H -0.00372 0.13034 0.65714 0.0
C1641 C -0.00644 0.02318 0.65745 0.0
H1642 H 0.05265 0.09676 0.66758 0.0
C1643 C 0.96117 0.04249 0.65176 0.0
C1644 C 0.9615 0.08139 0.652 0.0
H1645 H -0.00759 -0.00665 0.65803 0.0
H1646 H 0.93585 0.0268 0.64738 0.0
C1647 C -0.00501 0.10051 0.6572 0.0
loop_
_geom_bond_atom_site_label_1
_geom_bond_atom_site_label_2
_geom_bond_distance
_geom_bond_site_symmetry_2
_ccdc_geom_bond_type
Co0 O1 2.216 1_655 S
Co0 O2 2.091 . S
Co0 O4 2.004 . S
Co0 O10 2.021 1_655 S
Co0 O12 2.140 . S
Co0 O13 2.244 1_655 S
O1 Co0 2.216 1_455 S
O1 C8 1.247 1_455 S
O2 Co0 2.091 . S
O2 C8 1.261 . S
C3 O12 1.226 1_455 S
C3 O13 1.272 . S
O4 Co0 2.004 . S
O4 C9 1.259 . S
Co5 O6 2.061 . S
Co5 O11 2.052 . S
Co5 O13 2.135 . S
O6 Co5 2.061 . S
O6 C9 1.235 1_455 S
C7 O10 1.238 . S
C7 O11 1.241 . S
C8 O1 1.247 1_655 S
C8 O2 1.261 . S
C9 O4 1.259 . S
C9 O6 1.235 1_655 S
O10 Co0 2.021 1_455 S
O10 C7 1.238 . S
O11 Co5 2.052 . S
O11 C7 1.241 . S
O12 Co0 2.140 . S
O12 C3 1.226 1_655 S
O13 Co0 2.244 1_455 S
O13 C3 1.272 . S
O13 Co5 2.135 . S
Co14 O15 2.216 . S
Co14 O16 2.091 . S
Co14 O18 2.004 1_655 S
Co14 O24 2.021 1_655 S
Co14 O26 2.137 . S
Co14 O27 2.244 . S
O15 Co14 2.216 . S
O15 C22 1.247 . S
O16 Co14 2.091 . S
O16 C22 1.261 . S
C17 O26 1.247 . S
C17 O27 1.272 . S
O18 Co14 2.004 1_455 S
O18 C23 1.259 . S
Co19 O20 2.061 . S
Co19 O25 2.052 . S
Co19 O27 2.135 1_455 S
O20 Co19 2.061 . S
O20 C23 1.235 . S
C21 O24 1.238 . S
C21 O25 1.241 . S
C22 O15 1.247 . S
C22 O16 1.261 . S
C23 O18 1.259 . S
C23 O20 1.235 . S
O24 Co14 2.021 1_455 S
O24 C21 1.238 . S
O25 Co19 2.052 . S
O25 C21 1.241 . S
O26 Co14 2.137 . S
O26 C17 1.247 . S
O27 Co14 2.244 . S
O27 C17 1.272 . S
O27 Co19 2.135 1_655 S
Co28 O29 2.216 . S
Co28 O30 2.091 . S
Co28 O32 2.004 . S
Co28 O38 2.021 . S
Co28 O40 2.137 . S
Co28 O41 2.244 . S
O29 Co28 2.216 . S
O29 C36 1.247 . S
O30 Co28 2.091 . S
O30 C36 1.261 . S
C31 O40 1.247 . S
C31 O41 1.272 . S
O32 Co28 2.004 . S
O32 C37 1.259 . S
Co33 O34 2.061 . S
Co33 O39 2.052 . S
Co33 O41 2.135 . S
O34 Co33 2.061 . S
O34 C37 1.235 . S
C35 O38 1.238 . S
C35 O39 1.241 . S
C36 O29 1.247 . S
C36 O30 1.261 . S
C37 O32 1.259 . S
C37 O34 1.235 . S
O38 Co28 2.021 . S
O38 C35 1.238 . S
O39 Co33 2.052 . S
O39 C35 1.241 . S
O40 Co28 2.137 . S
O40 C31 1.247 . S
O41 Co28 2.244 . S
O41 C31 1.272 . S
O41 Co33 2.135 . S
Co42 O43 2.216 . S
Co42 O44 2.091 . S
Co42 O46 2.004 . S
Co42 O52 2.021 . S
Co42 O54 2.137 . S
Co42 O55 2.244 . S
O43 Co42 2.216 . S
O43 C50 1.247 . S
O44 Co42 2.091 . S
O44 C50 1.261 . S
C45 O54 1.247 . S
C45 O55 1.272 . S
O46 Co42 2.004 . S
O46 C51 1.259 . S
Co47 O48 2.061 . S
Co47 O53 2.052 . S
Co47 O55 2.135 . S
O48 Co47 2.061 . S
O48 C51 1.235 . S
C49 O52 1.238 . S
C49 O53 1.241 . S
C50 O43 1.247 . S
C50 O44 1.261 . S
C51 O46 1.259 . S
C51 O48 1.235 . S
O52 Co42 2.021 . S
O52 C49 1.238 . S
O53 Co47 2.052 . S
O53 C49 1.241 . S
O54 Co42 2.137 . S
O54 C45 1.247 . S
O55 Co42 2.244 . S
O55 C45 1.272 . S
O55 Co47 2.135 . S
Co56 O57 2.216 1_655 S
Co56 O58 2.091 . S
Co56 O60 2.004 . S
Co56 O66 2.021 1_655 S
Co56 O68 2.137 . S
Co56 O69 2.244 1_655 S
O57 Co56 2.216 1_455 S
O57 C64 1.247 1_455 S
O58 Co56 2.091 . S
O58 C64 1.261 . S
C59 O68 1.247 1_455 S
C59 O69 1.272 . S
O60 Co56 2.004 . S
O60 C65 1.259 . S
Co61 O62 2.061 . S
Co61 O67 2.052 . S
Co61 O69 2.135 . S
O62 Co61 2.061 . S
O62 C65 1.235 1_455 S
C63 O66 1.238 . S
C63 O67 1.241 . S
C64 O57 1.247 1_655 S
C64 O58 1.261 . S
C65 O60 1.259 . S
C65 O62 1.235 1_655 S
O66 Co56 2.021 1_455 S
O66 C63 1.238 . S
O67 Co61 2.052 . S
O67 C63 1.241 . S
O68 Co56 2.137 . S
O68 C59 1.247 1_655 S
O69 Co56 2.244 1_455 S
O69 C59 1.272 . S
O69 Co61 2.135 . S
Co70 O71 2.216 . S
Co70 O72 2.091 . S
Co70 O74 2.004 . S
Co70 O80 2.021 . S
Co70 O82 2.137 . S
Co70 O83 2.244 . S
O71 Co70 2.216 . S
O71 C78 1.247 . S
O72 Co70 2.091 . S
O72 C78 1.261 . S
C73 O82 1.247 . S
C73 O83 1.272 . S
O74 Co70 2.004 . S
O74 C79 1.259 . S
Co75 O76 2.061 . S
Co75 O81 2.052 . S
Co75 O83 2.135 . S
O76 Co75 2.061 . S
O76 C79 1.235 . S
C77 O80 1.238 . S
C77 O81 1.241 . S
C78 O71 1.247 . S
C78 O72 1.261 . S
C79 O74 1.259 . S
C79 O76 1.235 . S
O80 Co70 2.021 . S
O80 C77 1.238 . S
O81 Co75 2.052 . S
O81 C77 1.241 . S
O82 Co70 2.137 . S
O82 C73 1.247 . S
O83 Co70 2.244 . S
O83 C73 1.272 . S
O83 Co75 2.135 . S
Co84 O85 2.216 . S
Co84 O86 2.091 . S
Co84 O88 2.004 . S
Co84 O94 2.021 . S
Co84 O96 2.137 . S
Co84 O97 2.244 . S
O85 Co84 2.216 . S
O85 C92 1.247 . S
O86 Co84 2.091 . S
O86 C92 1.261 . S
C87 O96 1.247 . S
C87 O97 1.272 . S
O88 Co84 2.004 . S
O88 C93 1.259 . S
Co89 O90 2.061 . S
Co89 O95 2.052 . S
Co89 O97 2.135 . S
O90 Co89 2.061 . S
O90 C93 1.235 . S
C91 O94 1.238 . S
C91 O95 1.241 . S
C92 O85 1.247 . S
C92 O86 1.261 . S
C93 O88 1.259 . S
C93 O90 1.235 . S
O94 Co84 2.021 . S
O94 C91 1.238 . S
O95 Co89 2.052 . S
O95 C91 1.241 . S
O96 Co84 2.137 . S
O96 C87 1.247 . S
O97 Co84 2.244 . S
O97 C87 1.272 . S
O97 Co89 2.135 . S
Co98 O99 2.216 . S
Co98 O100 2.091 . S
Co98 O102 2.004 1_655 S
Co98 O108 2.021 1_655 S
Co98 O110 2.137 . S
Co98 O111 2.244 . S
O99 Co98 2.216 . S
O99 C106 1.247 . S
O100 Co98 2.091 . S
O100 C106 1.261 . S
C101 O110 1.247 . S
C101 O111 1.272 . S
O102 Co98 2.004 1_455 S
O102 C107 1.259 . S
Co103 O104 2.061 . S
Co103 O109 2.052 . S
Co103 O111 2.135 1_455 S
O104 Co103 2.061 . S
O104 C107 1.235 . S
C105 O108 1.238 . S
C105 O109 1.241 . S
C106 O99 1.247 . S
C106 O100 1.261 . S
C107 O102 1.259 . S
C107 O104 1.235 . S
O108 Co98 2.021 1_455 S
O108 C105 1.238 . S
O109 Co103 2.052 . S
O109 C105 1.241 . S
O110 Co98 2.137 . S
O110 C101 1.247 . S
O111 Co98 2.244 . S
O111 C101 1.272 . S
O111 Co103 2.135 1_655 S
Co112 O113 2.216 1_565 S
Co112 O114 2.091 . S
Co112 O116 2.004 . S
Co112 O122 2.021 1_565 S
Co112 O124 2.141 . S
Co112 O125 2.244 1_565 S
O113 Co112 2.216 1_545 S
O113 C120 1.247 1_545 S
O114 Co112 2.091 . S
O114 C120 1.261 . S
C115 O124 1.221 1_545 S
C115 O125 1.272 . S
O116 Co112 2.004 . S
O116 C121 1.259 . S
Co117 O118 2.061 . S
Co117 O123 2.052 . S
Co117 O125 2.135 . S
O118 Co117 2.061 . S
O118 C121 1.235 1_545 S
C119 O122 1.238 . S
C119 O123 1.241 . S
C120 O113 1.247 1_565 S
C120 O114 1.261 . S
C121 O116 1.259 . S
C121 O118 1.235 1_565 S
O122 Co112 2.021 1_545 S
O122 C119 1.238 . S
O123 Co117 2.052 . S
O123 C119 1.241 . S
O124 Co112 2.141 . S
O124 C115 1.221 1_565 S
O125 Co112 2.244 1_545 S
O125 C115 1.272 . S
O125 Co117 2.135 . S
Co126 O127 2.216 . S
Co126 O128 2.091 . S
Co126 O130 2.004 . S
Co126 O136 2.021 . S
Co126 O138 2.137 . S
Co126 O139 2.244 . S
O127 Co126 2.216 . S
O127 C134 1.247 . S
O128 Co126 2.091 . S
O128 C134 1.261 . S
C129 O138 1.247 . S
C129 O139 1.272 . S
O130 Co126 2.004 . S
O130 C135 1.259 . S
Co131 O132 2.061 . S
Co131 O137 2.052 . S
Co131 O139 2.135 . S
O132 Co131 2.061 . S
O132 C135 1.235 . S
C133 O136 1.238 . S
C133 O137 1.241 . S
C134 O127 1.247 . S
C134 O128 1.261 . S
C135 O130 1.259 . S
C135 O132 1.235 . S
O136 Co126 2.021 . S
O136 C133 1.238 . S
O137 Co131 2.052 . S
O137 C133 1.241 . S
O138 Co126 2.137 . S
O138 C129 1.247 . S
O139 Co126 2.244 . S
O139 C129 1.272 . S
O139 Co131 2.135 . S
Co140 O141 2.216 1_565 S
Co140 O142 2.091 . S
Co140 O144 2.004 . S
Co140 O150 2.021 1_565 S
Co140 O152 2.137 . S
Co140 O153 2.244 1_565 S
O141 Co140 2.216 1_545 S
O141 C148 1.247 1_545 S
O142 Co140 2.091 . S
O142 C148 1.261 . S
C143 O152 1.247 1_545 S
C143 O153 1.272 . S
O144 Co140 2.004 . S
O144 C149 1.259 . S
Co145 O146 2.061 . S
Co145 O151 2.052 . S
Co145 O153 2.135 . S
O146 Co145 2.061 . S
O146 C149 1.235 1_545 S
C147 O150 1.238 . S
C147 O151 1.241 . S
C148 O141 1.247 1_565 S
C148 O142 1.261 . S
C149 O144 1.259 . S
C149 O146 1.235 1_565 S
O150 Co140 2.021 1_545 S
O150 C147 1.238 . S
O151 Co145 2.052 . S
O151 C147 1.241 . S
O152 Co140 2.137 . S
O152 C143 1.247 1_565 S
O153 Co140 2.244 1_545 S
O153 C143 1.272 . S
O153 Co145 2.135 . S
Co154 O155 2.216 . S
Co154 O156 2.091 . S
Co154 O158 2.004 1_554 S
Co154 O164 2.021 1_554 S
Co154 O166 2.137 . S
Co154 O167 2.244 . S
O155 Co154 2.216 . S
O155 C162 1.247 . S
O156 Co154 2.091 . S
O156 C162 1.261 . S
C157 O166 1.247 . S
C157 O167 1.272 . S
O158 Co154 2.004 1_556 S
O158 C163 1.259 . S
Co159 O160 2.061 . S
Co159 O165 2.052 . S
Co159 O167 2.135 1_556 S
O160 Co159 2.061 . S
O160 C163 1.235 . S
C161 O164 1.238 . S
C161 O165 1.241 . S
C162 O155 1.247 . S
C162 O156 1.261 . S
C163 O158 1.259 . S
C163 O160 1.235 . S
O164 Co154 2.021 1_556 S
O164 C161 1.238 . S
O165 Co159 2.052 . S
O165 C161 1.241 . S
O166 Co154 2.137 . S
O166 C157 1.247 . S
O167 Co154 2.244 . S
O167 C157 1.272 . S
O167 Co159 2.135 1_554 S
Co168 O169 2.216 1_556 S
Co168 O170 2.091 . S
Co168 O172 2.004 . S
Co168 O178 2.021 1_556 S
Co168 O180 2.137 . S
Co168 O181 2.244 1_556 S
O169 Co168 2.216 1_554 S
O169 C176 1.247 1_554 S
O170 Co168 2.091 . S
O170 C176 1.261 . S
C171 O180 1.247 1_554 S
C171 O181 1.272 . S
O172 Co168 2.004 . S
O172 C177 1.259 . S
Co173 O174 2.061 . S
Co173 O179 2.052 . S
Co173 O181 2.135 . S
O174 Co173 2.061 . S
O174 C177 1.235 1_554 S
C175 O178 1.238 . S
C175 O179 1.241 . S
C176 O169 1.247 1_556 S
C176 O170 1.261 . S
C177 O172 1.259 . S
C177 O174 1.235 1_556 S
O178 Co168 2.021 1_554 S
O178 C175 1.238 . S
O179 Co173 2.052 . S
O179 C175 1.241 . S
O180 Co168 2.137 . S
O180 C171 1.247 1_556 S
O181 Co168 2.244 1_554 S
O181 C171 1.272 . S
O181 Co173 2.135 . S
Co182 O183 2.216 1_556 S
Co182 O184 2.091 . S
Co182 O186 2.004 . S
Co182 O192 2.021 1_556 S
Co182 O194 2.137 . S
Co182 O195 2.244 1_556 S
O183 Co182 2.216 1_554 S
O183 C190 1.247 1_554 S
O184 Co182 2.091 . S
O184 C190 1.261 . S
C185 O194 1.247 1_554 S
C185 O195 1.272 . S
O186 Co182 2.004 . S
O186 C191 1.259 . S
Co187 O188 2.061 . S
Co187 O193 2.052 . S
Co187 O195 2.135 . S
O188 Co187 2.061 . S
O188 C191 1.235 1_554 S
C189 O192 1.238 . S
C189 O193 1.241 . S
C190 O183 1.247 1_556 S
C190 O184 1.261 . S
C191 O186 1.259 . S
C191 O188 1.235 1_556 S
O192 Co182 2.021 1_554 S
O192 C189 1.238 . S
O193 Co187 2.052 . S
O193 C189 1.241 . S
O194 Co182 2.137 . S
O194 C185 1.247 1_556 S
O195 Co182 2.244 1_554 S
O195 C185 1.272 . S
O195 Co187 2.135 . S
Co196 O197 2.216 . S
Co196 O198 2.091 . S
Co196 O200 2.004 . S
Co196 O206 2.021 . S
Co196 O208 2.137 . S
Co196 O209 2.244 . S
O197 Co196 2.216 . S
O197 C204 1.247 . S
O198 Co196 2.091 . S
O198 C204 1.261 . S
C199 O208 1.247 . S
C199 O209 1.272 . S
O200 Co196 2.004 . S
O200 C205 1.259 . S
Co201 O202 2.061 . S
Co201 O207 2.052 . S
Co201 O209 2.135 . S
O202 Co201 2.061 . S
O202 C205 1.235 . S
C203 O206 1.238 . S
C203 O207 1.241 . S
C204 O197 1.247 . S
C204 O198 1.261 . S
C205 O200 1.259 . S
C205 O202 1.235 . S
O206 Co196 2.021 . S
O206 C203 1.238 . S
O207 Co201 2.052 . S
O207 C203 1.241 . S
O208 Co196 2.137 . S
O208 C199 1.247 . S
O209 Co196 2.244 . S
O209 C199 1.272 . S
O209 Co201 2.135 . S
Co210 O211 2.216 . S
Co210 O212 2.091 . S
Co210 O214 2.004 . S
Co210 O220 2.021 . S
Co210 O222 2.137 . S
Co210 O223 2.244 . S
O211 Co210 2.216 . S
O211 C218 1.247 . S
O212 Co210 2.091 . S
O212 C218 1.261 . S
C213 O222 1.247 . S
C213 O223 1.272 . S
O214 Co210 2.004 . S
O214 C219 1.259 . S
Co215 O216 2.061 . S
Co215 O221 2.052 . S
Co215 O223 2.135 . S
O216 Co215 2.061 . S
O216 C219 1.235 . S
C217 O220 1.238 . S
C217 O221 1.241 . S
C218 O211 1.247 . S
C218 O212 1.261 . S
C219 O214 1.259 . S
C219 O216 1.235 . S
O220 Co210 2.021 . S
O220 C217 1.238 . S
O221 Co215 2.052 . S
O221 C217 1.241 . S
O222 Co210 2.137 . S
O222 C213 1.247 . S
O223 Co210 2.244 . S
O223 C213 1.272 . S
O223 Co215 2.135 . S
Co224 O225 2.216 . S
Co224 O226 2.091 . S
Co224 O228 2.004 1_565 S
Co224 O234 2.021 1_565 S
Co224 O236 2.137 . S
Co224 O237 2.244 . S
O225 Co224 2.216 . S
O225 C232 1.247 . S
O226 Co224 2.091 . S
O226 C232 1.261 . S
C227 O236 1.247 . S
C227 O237 1.272 . S
O228 Co224 2.004 1_545 S
O228 C233 1.259 . S
Co229 O230 2.061 . S
Co229 O235 2.052 . S
Co229 O237 2.135 1_545 S
O230 Co229 2.061 . S
O230 C233 1.235 . S
C231 O234 1.238 . S
C231 O235 1.241 . S
C232 O225 1.247 . S
C232 O226 1.261 . S
C233 O228 1.259 . S
C233 O230 1.235 . S
O234 Co224 2.021 1_545 S
O234 C231 1.238 . S
O235 Co229 2.052 . S
O235 C231 1.241 . S
O236 Co224 2.137 . S
O236 C227 1.247 . S
O237 Co224 2.244 . S
O237 C227 1.272 . S
O237 Co229 2.135 1_565 S
Co238 O239 2.216 . S
Co238 O240 2.091 . S
Co238 O242 2.004 . S
Co238 O248 2.021 . S
Co238 O250 2.137 . S
Co238 O251 2.244 . S
O239 Co238 2.216 . S
O239 C246 1.247 . S
O240 Co238 2.091 . S
O240 C246 1.261 . S
C241 O250 1.247 . S
C241 O251 1.272 . S
O242 Co238 2.004 . S
O242 C247 1.259 . S
Co243 O244 2.061 . S
Co243 O249 2.052 . S
Co243 O251 2.135 . S
O244 Co243 2.061 . S
O244 C247 1.235 . S
C245 O248 1.238 . S
C245 O249 1.241 . S
C246 O239 1.247 . S
C246 O240 1.261 . S
C247 O242 1.259 . S
C247 O244 1.235 . S
O248 Co238 2.021 . S
O248 C245 1.238 . S
O249 Co243 2.052 . S
O249 C245 1.241 . S
O250 Co238 2.137 . S
O250 C241 1.247 . S
O251 Co238 2.244 . S
O251 C241 1.272 . S
O251 Co243 2.135 . S
Co252 O253 2.216 . S
Co252 O254 2.091 . S
Co252 O256 2.004 . S
Co252 O262 2.021 . S
Co252 O264 2.137 . S
Co252 O265 2.244 . S
O253 Co252 2.216 . S
O253 C260 1.247 . S
O254 Co252 2.091 . S
O254 C260 1.261 . S
C255 O264 1.247 . S
C255 O265 1.272 . S
O256 Co252 2.004 . S
O256 C261 1.259 . S
Co257 O258 2.061 . S
Co257 O263 2.052 . S
Co257 O265 2.135 . S
O258 Co257 2.061 . S
O258 C261 1.235 . S
C259 O262 1.238 . S
C259 O263 1.241 . S
C260 O253 1.247 . S
C260 O254 1.261 . S
C261 O256 1.259 . S
C261 O258 1.235 . S
O262 Co252 2.021 . S
O262 C259 1.238 . S
O263 Co257 2.052 . S
O263 C259 1.241 . S
O264 Co252 2.137 . S
O264 C255 1.247 . S
O265 Co252 2.244 . S
O265 C255 1.272 . S
O265 Co257 2.135 . S
Co266 O267 2.216 . S
Co266 O268 2.091 . S
Co266 O270 2.004 1_565 S
Co266 O276 2.021 1_565 S
Co266 O278 2.137 . S
Co266 O279 2.244 . S
O267 Co266 2.216 . S
O267 C274 1.247 . S
O268 Co266 2.091 . S
O268 C274 1.261 . S
C269 O278 1.247 . S
C269 O279 1.272 . S
O270 Co266 2.004 1_545 S
O270 C275 1.259 . S
Co271 O272 2.061 . S
Co271 O277 2.052 . S
Co271 O279 2.135 1_545 S
O272 Co271 2.061 . S
O272 C275 1.235 . S
C273 O276 1.238 . S
C273 O277 1.241 . S
C274 O267 1.247 . S
C274 O268 1.261 . S
C275 O270 1.259 . S
C275 O272 1.235 . S
O276 Co266 2.021 1_545 S
O276 C273 1.238 . S
O277 Co271 2.052 . S
O277 C273 1.241 . S
O278 Co266 2.137 . S
O278 C269 1.247 . S
O279 Co266 2.244 . S
O279 C269 1.272 . S
O279 Co271 2.135 1_565 S
Co280 O281 2.216 . S
Co280 O282 2.091 . S
Co280 O284 2.004 1_554 S
Co280 O290 2.021 1_554 S
Co280 O292 2.137 . S
Co280 O293 2.244 . S
O281 Co280 2.216 . S
O281 C288 1.247 . S
O282 Co280 2.091 . S
O282 C288 1.261 . S
C283 O292 1.247 . S
C283 O293 1.272 . S
O284 Co280 2.004 1_556 S
O284 C289 1.259 . S
Co285 O286 2.061 . S
Co285 O291 2.052 . S
Co285 O293 2.135 1_556 S
O286 Co285 2.061 . S
O286 C289 1.235 . S
C287 O290 1.238 . S
C287 O291 1.241 . S
C288 O281 1.247 . S
C288 O282 1.261 . S
C289 O284 1.259 . S
C289 O286 1.235 . S
O290 Co280 2.021 1_556 S
O290 C287 1.238 . S
O291 Co285 2.052 . S
O291 C287 1.241 . S
O292 Co280 2.137 . S
O292 C283 1.247 . S
O293 Co280 2.244 . S
O293 C283 1.272 . S
O293 Co285 2.135 1_554 S
Co294 O295 2.216 . S
Co294 O296 2.091 . S
Co294 O298 2.004 . S
Co294 O304 2.021 . S
Co294 O306 2.137 . S
Co294 O307 2.244 . S
O295 Co294 2.216 . S
O295 C302 1.247 . S
O296 Co294 2.091 . S
O296 C302 1.261 . S
C297 O306 1.247 . S
C297 O307 1.272 . S
O298 Co294 2.004 . S
O298 C303 1.259 . S
Co299 O300 2.061 . S
Co299 O305 2.052 . S
Co299 O307 2.135 . S
O300 Co299 2.061 . S
O300 C303 1.235 . S
C301 O304 1.238 . S
C301 O305 1.241 . S
C302 O295 1.247 . S
C302 O296 1.261 . S
C303 O298 1.259 . S
C303 O300 1.235 . S
O304 Co294 2.021 . S
O304 C301 1.238 . S
O305 Co299 2.052 . S
O305 C301 1.241 . S
O306 Co294 2.137 . S
O306 C297 1.247 . S
O307 Co294 2.244 . S
O307 C297 1.272 . S
O307 Co299 2.135 . S
Co308 O309 2.216 . S
Co308 O310 2.091 . S
Co308 O312 2.004 . S
Co308 O318 2.021 . S
Co308 O320 2.137 . S
Co308 O321 2.244 . S
O309 Co308 2.216 . S
O309 C316 1.247 . S
O310 Co308 2.091 . S
O310 C316 1.261 . S
C311 O320 1.247 . S
C311 O321 1.272 . S
O312 Co308 2.004 . S
O312 C317 1.259 . S
Co313 O314 2.061 . S
Co313 O319 2.052 . S
Co313 O321 2.135 . S
O314 Co313 2.061 . S
O314 C317 1.235 . S
C315 O318 1.238 . S
C315 O319 1.241 . S
C316 O309 1.247 . S
C316 O310 1.261 . S
C317 O312 1.259 . S
C317 O314 1.235 . S
O318 Co308 2.021 . S
O318 C315 1.238 . S
O319 Co313 2.052 . S
O319 C315 1.241 . S
O320 Co308 2.137 . S
O320 C311 1.247 . S
O321 Co308 2.244 . S
O321 C311 1.272 . S
O321 Co313 2.135 . S
Co322 O323 2.216 . S
Co322 O324 2.091 . S
Co322 O326 2.004 . S
Co322 O332 2.021 . S
Co322 O334 2.137 . S
Co322 O335 2.244 . S
O323 Co322 2.216 . S
O323 C330 1.247 . S
O324 Co322 2.091 . S
O324 C330 1.261 . S
C325 O334 1.247 . S
C325 O335 1.272 . S
O326 Co322 2.004 . S
O326 C331 1.259 . S
Co327 O328 2.061 . S
Co327 O333 2.052 . S
Co327 O335 2.135 . S
O328 Co327 2.061 . S
O328 C331 1.235 . S
C329 O332 1.238 . S
C329 O333 1.241 . S
C330 O323 1.247 . S
C330 O324 1.261 . S
C331 O326 1.259 . S
C331 O328 1.235 . S
O332 Co322 2.021 . S
O332 C329 1.238 . S
O333 Co327 2.052 . S
O333 C329 1.241 . S
O334 Co322 2.137 . S
O334 C325 1.247 . S
O335 Co322 2.244 . S
O335 C325 1.272 . S
O335 Co327 2.135 . S
Sc336 O339 2.025 . S
Sc336 O346 2.105 . S
Sc336 O349 2.105 . S
Sc336 O352 2.105 . S
Sc336 O355 2.105 . S
Sc337 O339 2.025 . S
Sc337 O347 2.105 . S
Sc337 O351 2.105 . S
Sc337 O353 2.105 . S
Sc337 O357 2.105 . S
Sc338 O339 2.025 . S
Sc338 O348 2.105 . S
Sc338 O350 2.105 . S
Sc338 O354 2.105 . S
Sc338 O356 2.105 . S
O339 Sc336 2.025 . S
O339 Sc337 2.025 . S
O339 Sc338 2.025 . S
C340 O346 1.268 . S
C340 O356 1.268 . S
C341 O347 1.268 . S
C341 O355 1.268 . S
C342 O348 1.268 . S
C342 O357 1.268 . S
C343 O349 1.268 . S
C343 O353 1.268 . S
C344 O350 1.268 . S
C344 O352 1.268 . S
C345 O351 1.268 . S
C345 O354 1.268 . S
O346 Sc336 2.105 . S
O346 C340 1.268 . S
O347 Sc337 2.105 . S
O347 C341 1.268 . S
O348 Sc338 2.105 . S
O348 C342 1.268 . S
O349 Sc336 2.105 . S
O349 C343 1.268 . S
O350 Sc338 2.105 . S
O350 C344 1.268 . S
O351 Sc337 2.105 . S
O351 C345 1.268 . S
O352 Sc336 2.105 . S
O352 C344 1.268 . S
O353 Sc337 2.105 . S
O353 C343 1.268 . S
O354 Sc338 2.105 . S
O354 C345 1.268 . S
O355 Sc336 2.105 . S
O355 C341 1.268 . S
O356 Sc338 2.105 . S
O356 C340 1.268 . S
O357 Sc337 2.105 . S
O357 C342 1.268 . S
Sc358 O361 2.025 . S
Sc358 O368 2.105 . S
Sc358 O371 2.105 . S
Sc358 O374 2.105 . S
Sc358 O377 2.105 . S
Sc359 O361 2.025 . S
Sc359 O369 2.105 . S
Sc359 O373 2.105 . S
Sc359 O375 2.105 . S
Sc359 O379 2.105 . S
Sc360 O361 2.025 . S
Sc360 O370 2.105 . S
Sc360 O372 2.105 . S
Sc360 O376 2.105 . S
Sc360 O378 2.105 . S
O361 Sc358 2.025 . S
O361 Sc359 2.025 . S
O361 Sc360 2.025 . S
C362 O368 1.268 . S
C362 O378 1.268 . S
C363 O369 1.268 . S
C363 O377 1.268 . S
C364 O370 1.268 . S
C364 O379 1.268 . S
C365 O371 1.268 . S
C365 O375 1.268 . S
C366 O372 1.268 . S
C366 O374 1.268 . S
C367 O373 1.268 . S
C367 O376 1.268 . S
O368 Sc358 2.105 . S
O368 C362 1.268 . S
O369 Sc359 2.105 . S
O369 C363 1.268 . S
O370 Sc360 2.105 . S
O370 C364 1.268 . S
O371 Sc358 2.105 . S
O371 C365 1.268 . S
O372 Sc360 2.105 . S
O372 C366 1.268 . S
O373 Sc359 2.105 . S
O373 C367 1.268 . S
O374 Sc358 2.105 . S
O374 C366 1.268 . S
O375 Sc359 2.105 . S
O375 C365 1.268 . S
O376 Sc360 2.105 . S
O376 C367 1.268 . S
O377 Sc358 2.105 . S
O377 C363 1.268 . S
O378 Sc360 2.105 . S
O378 C362 1.268 . S
O379 Sc359 2.105 . S
O379 C364 1.268 . S
Sc380 O383 2.025 . S
Sc380 O390 2.105 . S
Sc380 O393 2.105 . S
Sc380 O396 2.105 . S
Sc380 O399 2.105 . S
Sc381 O383 2.025 . S
Sc381 O391 2.105 . S
Sc381 O395 2.105 . S
Sc381 O397 2.105 . S
Sc381 O401 2.105 . S
Sc382 O383 2.025 . S
Sc382 O392 2.105 . S
Sc382 O394 2.105 . S
Sc382 O398 2.105 . S
Sc382 O400 2.105 . S
O383 Sc380 2.025 . S
O383 Sc381 2.025 . S
O383 Sc382 2.025 . S
C384 O390 1.268 . S
C384 O400 1.268 . S
C385 O391 1.268 . S
C385 O399 1.268 . S
C386 O392 1.268 . S
C386 O401 1.268 . S
C387 O393 1.268 . S
C387 O397 1.268 . S
C388 O394 1.268 . S
C388 O396 1.268 . S
C389 O395 1.268 . S
C389 O398 1.268 . S
O390 Sc380 2.105 . S
O390 C384 1.268 . S
O391 Sc381 2.105 . S
O391 C385 1.268 . S
O392 Sc382 2.105 . S
O392 C386 1.268 . S
O393 Sc380 2.105 . S
O393 C387 1.268 . S
O394 Sc382 2.105 . S
O394 C388 1.268 . S
O395 Sc381 2.105 . S
O395 C389 1.268 . S
O396 Sc380 2.105 . S
O396 C388 1.268 . S
O397 Sc381 2.105 . S
O397 C387 1.268 . S
O398 Sc382 2.105 . S
O398 C389 1.268 . S
O399 Sc380 2.105 . S
O399 C385 1.268 . S
O400 Sc382 2.105 . S
O400 C384 1.268 . S
O401 Sc381 2.105 . S
O401 C386 1.268 . S
Sc402 O405 2.025 . S
Sc402 O412 2.105 . S
Sc402 O415 2.105 . S
Sc402 O418 2.105 . S
Sc402 O421 2.105 . S
Sc403 O405 2.025 . S
Sc403 O413 2.105 . S
Sc403 O417 2.105 . S
Sc403 O419 2.105 . S
Sc403 O423 2.105 . S
Sc404 O405 2.025 . S
Sc404 O414 2.105 . S
Sc404 O416 2.105 . S
Sc404 O420 2.105 . S
Sc404 O422 2.105 . S
O405 Sc402 2.025 . S
O405 Sc403 2.025 . S
O405 Sc404 2.025 . S
C406 O412 1.268 . S
C406 O422 1.268 . S
C407 O413 1.268 . S
C407 O421 1.268 . S
C408 O414 1.268 . S
C408 O423 1.268 . S
C409 O415 1.268 . S
C409 O419 1.268 . S
C410 O416 1.268 . S
C410 O418 1.268 . S
C411 O417 1.268 . S
C411 O420 1.268 . S
O412 Sc402 2.105 . S
O412 C406 1.268 . S
O413 Sc403 2.105 . S
O413 C407 1.268 . S
O414 Sc404 2.105 . S
O414 C408 1.268 . S
O415 Sc402 2.105 . S
O415 C409 1.268 . S
O416 Sc404 2.105 . S
O416 C410 1.268 . S
O417 Sc403 2.105 . S
O417 C411 1.268 . S
O418 Sc402 2.105 . S
O418 C410 1.268 . S
O419 Sc403 2.105 . S
O419 C409 1.268 . S
O420 Sc404 2.105 . S
O420 C411 1.268 . S
O421 Sc402 2.105 . S
O421 C407 1.268 . S
O422 Sc404 2.105 . S
O422 C406 1.268 . S
O423 Sc403 2.105 . S
O423 C408 1.268 . S
Sc424 O427 2.025 . S
Sc424 O434 2.105 . S
Sc424 O437 2.105 . S
Sc424 O440 2.105 . S
Sc424 O443 2.105 . S
Sc425 O427 2.025 . S
Sc425 O435 2.105 . S
Sc425 O439 2.105 . S
Sc425 O441 2.105 . S
Sc425 O445 2.105 . S
Sc426 O427 2.025 . S
Sc426 O436 2.105 . S
Sc426 O438 2.105 . S
Sc426 O442 2.105 . S
Sc426 O444 2.105 . S
O427 Sc424 2.025 . S
O427 Sc425 2.025 . S
O427 Sc426 2.025 . S
C428 O434 1.268 . S
C428 O444 1.268 . S
C429 O435 1.268 . S
C429 O443 1.268 . S
C430 O436 1.268 . S
C430 O445 1.268 . S
C431 O437 1.268 . S
C431 O441 1.268 . S
C432 O438 1.268 . S
C432 O440 1.268 . S
C433 O439 1.268 . S
C433 O442 1.268 . S
O434 Sc424 2.105 . S
O434 C428 1.268 . S
O435 Sc425 2.105 . S
O435 C429 1.268 . S
O436 Sc426 2.105 . S
O436 C430 1.268 . S
O437 Sc424 2.105 . S
O437 C431 1.268 . S
O438 Sc426 2.105 . S
O438 C432 1.268 . S
O439 Sc425 2.105 . S
O439 C433 1.268 . S
O440 Sc424 2.105 . S
O440 C432 1.268 . S
O441 Sc425 2.105 . S
O441 C431 1.268 . S
O442 Sc426 2.105 . S
O442 C433 1.268 . S
O443 Sc424 2.105 . S
O443 C429 1.268 . S
O444 Sc426 2.105 . S
O444 C428 1.268 . S
O445 Sc425 2.105 . S
O445 C430 1.268 . S
Sc446 O449 2.025 . S
Sc446 O456 2.105 . S
Sc446 O459 2.105 . S
Sc446 O462 2.105 . S
Sc446 O465 2.105 . S
Sc447 O449 2.025 . S
Sc447 O457 2.105 . S
Sc447 O461 2.105 . S
Sc447 O463 2.105 . S
Sc447 O467 2.105 . S
Sc448 O449 2.025 . S
Sc448 O458 2.105 . S
Sc448 O460 2.105 . S
Sc448 O464 2.105 . S
Sc448 O466 2.105 . S
O449 Sc446 2.025 . S
O449 Sc447 2.025 . S
O449 Sc448 2.025 . S
C450 O456 1.268 . S
C450 O466 1.268 . S
C451 O457 1.268 . S
C451 O465 1.268 . S
C452 O458 1.268 . S
C452 O467 1.268 . S
C453 O459 1.268 . S
C453 O463 1.268 . S
C454 O460 1.268 . S
C454 O462 1.268 . S
C455 O461 1.268 . S
C455 O464 1.268 . S
O456 Sc446 2.105 . S
O456 C450 1.268 . S
O457 Sc447 2.105 . S
O457 C451 1.268 . S
O458 Sc448 2.105 . S
O458 C452 1.268 . S
O459 Sc446 2.105 . S
O459 C453 1.268 . S
O460 Sc448 2.105 . S
O460 C454 1.268 . S
O461 Sc447 2.105 . S
O461 C455 1.268 . S
O462 Sc446 2.105 . S
O462 C454 1.268 . S
O463 Sc447 2.105 . S
O463 C453 1.268 . S
O464 Sc448 2.105 . S
O464 C455 1.268 . S
O465 Sc446 2.105 . S
O465 C451 1.268 . S
O466 Sc448 2.105 . S
O466 C450 1.268 . S
O467 Sc447 2.105 . S
O467 C452 1.268 . S
Sc468 O471 2.025 . S
Sc468 O478 2.105 . S
Sc468 O481 2.105 . S
Sc468 O484 2.105 . S
Sc468 O487 2.105 . S
Sc469 O471 2.025 . S
Sc469 O479 2.105 . S
Sc469 O483 2.105 . S
Sc469 O485 2.105 . S
Sc469 O489 2.105 . S
Sc470 O471 2.025 . S
Sc470 O480 2.105 . S
Sc470 O482 2.105 . S
Sc470 O486 2.105 . S
Sc470 O488 2.105 . S
O471 Sc468 2.025 . S
O471 Sc469 2.025 . S
O471 Sc470 2.025 . S
C472 O478 1.268 . S
C472 O488 1.268 . S
C473 O479 1.268 . S
C473 O487 1.268 . S
C474 O480 1.268 . S
C474 O489 1.268 . S
C475 O481 1.268 . S
C475 O485 1.268 . S
C476 O482 1.268 . S
C476 O484 1.268 . S
C477 O483 1.268 . S
C477 O486 1.268 . S
O478 Sc468 2.105 . S
O478 C472 1.268 . S
O479 Sc469 2.105 . S
O479 C473 1.268 . S
O480 Sc470 2.105 . S
O480 C474 1.268 . S
O481 Sc468 2.105 . S
O481 C475 1.268 . S
O482 Sc470 2.105 . S
O482 C476 1.268 . S
O483 Sc469 2.105 . S
O483 C477 1.268 . S
O484 Sc468 2.105 . S
O484 C476 1.268 . S
O485 Sc469 2.105 . S
O485 C475 1.268 . S
O486 Sc470 2.105 . S
O486 C477 1.268 . S
O487 Sc468 2.105 . S
O487 C473 1.268 . S
O488 Sc470 2.105 . S
O488 C472 1.268 . S
O489 Sc469 2.105 . S
O489 C474 1.268 . S
Sc490 O493 2.025 . S
Sc490 O500 2.105 . S
Sc490 O503 2.105 . S
Sc490 O506 2.105 . S
Sc490 O509 2.105 . S
Sc491 O493 2.025 . S
Sc491 O501 2.105 . S
Sc491 O505 2.105 . S
Sc491 O507 2.105 . S
Sc491 O511 2.105 . S
Sc492 O493 2.025 . S
Sc492 O502 2.105 . S
Sc492 O504 2.105 . S
Sc492 O508 2.105 . S
Sc492 O510 2.105 . S
O493 Sc490 2.025 . S
O493 Sc491 2.025 . S
O493 Sc492 2.025 . S
C494 O500 1.268 . S
C494 O510 1.268 . S
C495 O501 1.268 . S
C495 O509 1.268 . S
C496 O502 1.268 . S
C496 O511 1.268 . S
C497 O503 1.268 . S
C497 O507 1.268 . S
C498 O504 1.268 . S
C498 O506 1.268 . S
C499 O505 1.268 . S
C499 O508 1.268 . S
O500 Sc490 2.105 . S
O500 C494 1.268 . S
O501 Sc491 2.105 . S
O501 C495 1.268 . S
O502 Sc492 2.105 . S
O502 C496 1.268 . S
O503 Sc490 2.105 . S
O503 C497 1.268 . S
O504 Sc492 2.105 . S
O504 C498 1.268 . S
O505 Sc491 2.105 . S
O505 C499 1.268 . S
O506 Sc490 2.105 . S
O506 C498 1.268 . S
O507 Sc491 2.105 . S
O507 C497 1.268 . S
O508 Sc492 2.105 . S
O508 C499 1.268 . S
O509 Sc490 2.105 . S
O509 C495 1.268 . S
O510 Sc492 2.105 . S
O510 C494 1.268 . S
O511 Sc491 2.105 . S
O511 C496 1.268 . S
Sc512 O515 2.025 . S
Sc512 O522 2.105 . S
Sc512 O525 2.105 . S
Sc512 O528 2.105 . S
Sc512 O531 2.105 . S
Sc513 O515 2.025 . S
Sc513 O523 2.105 . S
Sc513 O527 2.105 . S
Sc513 O529 2.105 . S
Sc513 O533 2.105 . S
Sc514 O515 2.025 . S
Sc514 O524 2.105 . S
Sc514 O526 2.105 . S
Sc514 O530 2.105 . S
Sc514 O532 2.105 . S
O515 Sc512 2.025 . S
O515 Sc513 2.025 . S
O515 Sc514 2.025 . S
C516 O522 1.268 . S
C516 O532 1.268 . S
C517 O523 1.268 . S
C517 O531 1.268 . S
C518 O524 1.268 . S
C518 O533 1.268 . S
C519 O525 1.268 . S
C519 O529 1.268 . S
C520 O526 1.268 . S
C520 O528 1.268 . S
C521 O527 1.268 . S
C521 O530 1.268 . S
O522 Sc512 2.105 . S
O522 C516 1.268 . S
O523 Sc513 2.105 . S
O523 C517 1.268 . S
O524 Sc514 2.105 . S
O524 C518 1.268 . S
O525 Sc512 2.105 . S
O525 C519 1.268 . S
O526 Sc514 2.105 . S
O526 C520 1.268 . S
O527 Sc513 2.105 . S
O527 C521 1.268 . S
O528 Sc512 2.105 . S
O528 C520 1.268 . S
O529 Sc513 2.105 . S
O529 C519 1.268 . S
O530 Sc514 2.105 . S
O530 C521 1.268 . S
O531 Sc512 2.105 . S
O531 C517 1.268 . S
O532 Sc514 2.105 . S
O532 C516 1.268 . S
O533 Sc513 2.105 . S
O533 C518 1.268 . S
Sc534 O537 2.025 . S
Sc534 O544 2.105 . S
Sc534 O547 2.105 . S
Sc534 O550 2.105 . S
Sc534 O553 2.105 . S
Sc535 O537 2.025 . S
Sc535 O545 2.105 . S
Sc535 O549 2.105 . S
Sc535 O551 2.105 . S
Sc535 O555 2.105 . S
Sc536 O537 2.025 . S
Sc536 O546 2.105 . S
Sc536 O548 2.105 . S
Sc536 O552 2.105 . S
Sc536 O554 2.105 . S
O537 Sc534 2.025 . S
O537 Sc535 2.025 . S
O537 Sc536 2.025 . S
C538 O544 1.268 . S
C538 O554 1.268 . S
C539 O545 1.268 . S
C539 O553 1.268 . S
C540 O546 1.268 . S
C540 O555 1.268 . S
C541 O547 1.268 . S
C541 O551 1.268 . S
C542 O548 1.268 . S
C542 O550 1.268 . S
C543 O549 1.268 . S
C543 O552 1.268 . S
O544 Sc534 2.105 . S
O544 C538 1.268 . S
O545 Sc535 2.105 . S
O545 C539 1.268 . S
O546 Sc536 2.105 . S
O546 C540 1.268 . S
O547 Sc534 2.105 . S
O547 C541 1.268 . S
O548 Sc536 2.105 . S
O548 C542 1.268 . S
O549 Sc535 2.105 . S
O549 C543 1.268 . S
O550 Sc534 2.105 . S
O550 C542 1.268 . S
O551 Sc535 2.105 . S
O551 C541 1.268 . S
O552 Sc536 2.105 . S
O552 C543 1.268 . S
O553 Sc534 2.105 . S
O553 C539 1.268 . S
O554 Sc536 2.105 . S
O554 C538 1.268 . S
O555 Sc535 2.105 . S
O555 C540 1.268 . S
Sc556 O559 2.025 . S
Sc556 O566 2.105 . S
Sc556 O569 2.105 . S
Sc556 O572 2.105 . S
Sc556 O575 2.105 . S
Sc557 O559 2.025 . S
Sc557 O567 2.105 . S
Sc557 O571 2.105 . S
Sc557 O573 2.105 . S
Sc557 O577 2.105 . S
Sc558 O559 2.025 . S
Sc558 O568 2.105 . S
Sc558 O570 2.105 . S
Sc558 O574 2.105 . S
Sc558 O576 2.105 . S
O559 Sc556 2.025 . S
O559 Sc557 2.025 . S
O559 Sc558 2.025 . S
C560 O566 1.268 . S
C560 O576 1.268 . S
C561 O567 1.268 . S
C561 O575 1.268 . S
C562 O568 1.268 . S
C562 O577 1.268 . S
C563 O569 1.268 . S
C563 O573 1.268 . S
C564 O570 1.268 . S
C564 O572 1.268 . S
C565 O571 1.268 . S
C565 O574 1.268 . S
O566 Sc556 2.105 . S
O566 C560 1.268 . S
O567 Sc557 2.105 . S
O567 C561 1.268 . S
O568 Sc558 2.105 . S
O568 C562 1.268 . S
O569 Sc556 2.105 . S
O569 C563 1.268 . S
O570 Sc558 2.105 . S
O570 C564 1.268 . S
O571 Sc557 2.105 . S
O571 C565 1.268 . S
O572 Sc556 2.105 . S
O572 C564 1.268 . S
O573 Sc557 2.105 . S
O573 C563 1.268 . S
O574 Sc558 2.105 . S
O574 C565 1.268 . S
O575 Sc556 2.105 . S
O575 C561 1.268 . S
O576 Sc558 2.105 . S
O576 C560 1.268 . S
O577 Sc557 2.105 . S
O577 C562 1.268 . S
Sc578 O581 2.025 . S
Sc578 O588 2.105 . S
Sc578 O591 2.105 . S
Sc578 O594 2.105 . S
Sc578 O597 2.105 . S
Sc579 O581 2.025 . S
Sc579 O589 2.105 . S
Sc579 O593 2.105 . S
Sc579 O595 2.105 . S
Sc579 O599 2.105 . S
Sc580 O581 2.025 . S
Sc580 O590 2.105 . S
Sc580 O592 2.105 . S
Sc580 O596 2.105 . S
Sc580 O598 2.105 . S
O581 Sc578 2.025 . S
O581 Sc579 2.025 . S
O581 Sc580 2.025 . S
C582 O588 1.268 . S
C582 O598 1.268 . S
C583 O589 1.268 . S
C583 O597 1.268 . S
C584 O590 1.268 . S
C584 O599 1.268 . S
C585 O591 1.268 . S
C585 O595 1.268 . S
C586 O592 1.268 . S
C586 O594 1.268 . S
C587 O593 1.268 . S
C587 O596 1.268 . S
O588 Sc578 2.105 . S
O588 C582 1.268 . S
O589 Sc579 2.105 . S
O589 C583 1.268 . S
O590 Sc580 2.105 . S
O590 C584 1.268 . S
O591 Sc578 2.105 . S
O591 C585 1.268 . S
O592 Sc580 2.105 . S
O592 C586 1.268 . S
O593 Sc579 2.105 . S
O593 C587 1.268 . S
O594 Sc578 2.105 . S
O594 C586 1.268 . S
O595 Sc579 2.105 . S
O595 C585 1.268 . S
O596 Sc580 2.105 . S
O596 C587 1.268 . S
O597 Sc578 2.105 . S
O597 C583 1.268 . S
O598 Sc580 2.105 . S
O598 C582 1.268 . S
O599 Sc579 2.105 . S
O599 C584 1.268 . S
Sc600 O603 2.025 . S
Sc600 O610 2.105 . S
Sc600 O613 2.105 . S
Sc600 O616 2.105 . S
Sc600 O619 2.105 . S
Sc601 O603 2.025 . S
Sc601 O611 2.105 . S
Sc601 O615 2.105 . S
Sc601 O617 2.105 . S
Sc601 O621 2.105 . S
Sc602 O603 2.025 . S
Sc602 O612 2.105 . S
Sc602 O614 2.105 . S
Sc602 O618 2.105 . S
Sc602 O620 2.105 . S
O603 Sc600 2.025 . S
O603 Sc601 2.025 . S
O603 Sc602 2.025 . S
C604 O610 1.268 . S
C604 O620 1.268 . S
C605 O611 1.268 . S
C605 O619 1.268 . S
C606 O612 1.268 . S
C606 O621 1.268 . S
C607 O613 1.268 . S
C607 O617 1.268 . S
C608 O614 1.268 . S
C608 O616 1.268 . S
C609 O615 1.268 . S
C609 O618 1.268 . S
O610 Sc600 2.105 . S
O610 C604 1.268 . S
O611 Sc601 2.105 . S
O611 C605 1.268 . S
O612 Sc602 2.105 . S
O612 C606 1.268 . S
O613 Sc600 2.105 . S
O613 C607 1.268 . S
O614 Sc602 2.105 . S
O614 C608 1.268 . S
O615 Sc601 2.105 . S
O615 C609 1.268 . S
O616 Sc600 2.105 . S
O616 C608 1.268 . S
O617 Sc601 2.105 . S
O617 C607 1.268 . S
O618 Sc602 2.105 . S
O618 C609 1.268 . S
O619 Sc600 2.105 . S
O619 C605 1.268 . S
O620 Sc602 2.105 . S
O620 C604 1.268 . S
O621 Sc601 2.105 . S
O621 C606 1.268 . S
Sc622 O625 2.025 . S
Sc622 O632 2.105 . S
Sc622 O635 2.105 . S
Sc622 O638 2.105 . S
Sc622 O641 2.105 . S
Sc623 O625 2.025 . S
Sc623 O633 2.105 . S
Sc623 O637 2.105 . S
Sc623 O639 2.105 . S
Sc623 O643 2.105 . S
Sc624 O625 2.025 . S
Sc624 O634 2.105 . S
Sc624 O636 2.105 . S
Sc624 O640 2.105 . S
Sc624 O642 2.105 . S
O625 Sc622 2.025 . S
O625 Sc623 2.025 . S
O625 Sc624 2.025 . S
C626 O632 1.268 . S
C626 O642 1.268 . S
C627 O633 1.268 . S
C627 O641 1.268 . S
C628 O634 1.268 . S
C628 O643 1.268 . S
C629 O635 1.268 . S
C629 O639 1.268 . S
C630 O636 1.268 . S
C630 O638 1.268 . S
C631 O637 1.268 . S
C631 O640 1.268 . S
O632 Sc622 2.105 . S
O632 C626 1.268 . S
O633 Sc623 2.105 . S
O633 C627 1.268 . S
O634 Sc624 2.105 . S
O634 C628 1.268 . S
O635 Sc622 2.105 . S
O635 C629 1.268 . S
O636 Sc624 2.105 . S
O636 C630 1.268 . S
O637 Sc623 2.105 . S
O637 C631 1.268 . S
O638 Sc622 2.105 . S
O638 C630 1.268 . S
O639 Sc623 2.105 . S
O639 C629 1.268 . S
O640 Sc624 2.105 . S
O640 C631 1.268 . S
O641 Sc622 2.105 . S
O641 C627 1.268 . S
O642 Sc624 2.105 . S
O642 C626 1.268 . S
O643 Sc623 2.105 . S
O643 C628 1.268 . S
Sc644 O647 2.025 . S
Sc644 O654 2.105 . S
Sc644 O657 2.105 . S
Sc644 O660 2.105 . S
Sc644 O663 2.105 . S
Sc645 O647 2.025 . S
Sc645 O655 2.105 . S
Sc645 O659 2.105 . S
Sc645 O661 2.105 . S
Sc645 O665 2.105 . S
Sc646 O647 2.025 . S
Sc646 O656 2.105 . S
Sc646 O658 2.105 . S
Sc646 O662 2.105 . S
Sc646 O664 2.105 . S
O647 Sc644 2.025 . S
O647 Sc645 2.025 . S
O647 Sc646 2.025 . S
C648 O654 1.268 . S
C648 O664 1.268 . S
C649 O655 1.268 . S
C649 O663 1.268 . S
C650 O656 1.268 . S
C650 O665 1.268 . S
C651 O657 1.268 . S
C651 O661 1.268 . S
C652 O658 1.268 . S
C652 O660 1.268 . S
C653 O659 1.268 . S
C653 O662 1.268 . S
O654 Sc644 2.105 . S
O654 C648 1.268 . S
O655 Sc645 2.105 . S
O655 C649 1.268 . S
O656 Sc646 2.105 . S
O656 C650 1.268 . S
O657 Sc644 2.105 . S
O657 C651 1.268 . S
O658 Sc646 2.105 . S
O658 C652 1.268 . S
O659 Sc645 2.105 . S
O659 C653 1.268 . S
O660 Sc644 2.105 . S
O660 C652 1.268 . S
O661 Sc645 2.105 . S
O661 C651 1.268 . S
O662 Sc646 2.105 . S
O662 C653 1.268 . S
O663 Sc644 2.105 . S
O663 C649 1.268 . S
O664 Sc646 2.105 . S
O664 C648 1.268 . S
O665 Sc645 2.105 . S
O665 C650 1.268 . S
Sc666 O669 2.025 . S
Sc666 O676 2.105 . S
Sc666 O679 2.105 . S
Sc666 O682 2.105 . S
Sc666 O685 2.105 . S
Sc667 O669 2.025 . S
Sc667 O677 2.105 . S
Sc667 O681 2.105 . S
Sc667 O683 2.105 . S
Sc667 O687 2.105 . S
Sc668 O669 2.025 . S
Sc668 O678 2.105 . S
Sc668 O680 2.105 . S
Sc668 O684 2.105 . S
Sc668 O686 2.105 . S
O669 Sc666 2.025 . S
O669 Sc667 2.025 . S
O669 Sc668 2.025 . S
C670 O676 1.268 . S
C670 O686 1.268 . S
C671 O677 1.268 . S
C671 O685 1.268 . S
C672 O678 1.268 . S
C672 O687 1.268 . S
C673 O679 1.268 . S
C673 O683 1.268 . S
C674 O680 1.268 . S
C674 O682 1.268 . S
C675 O681 1.268 . S
C675 O684 1.268 . S
O676 Sc666 2.105 . S
O676 C670 1.268 . S
O677 Sc667 2.105 . S
O677 C671 1.268 . S
O678 Sc668 2.105 . S
O678 C672 1.268 . S
O679 Sc666 2.105 . S
O679 C673 1.268 . S
O680 Sc668 2.105 . S
O680 C674 1.268 . S
O681 Sc667 2.105 . S
O681 C675 1.268 . S
O682 Sc666 2.105 . S
O682 C674 1.268 . S
O683 Sc667 2.105 . S
O683 C673 1.268 . S
O684 Sc668 2.105 . S
O684 C675 1.268 . S
O685 Sc666 2.105 . S
O685 C671 1.268 . S
O686 Sc668 2.105 . S
O686 C670 1.268 . S
O687 Sc667 2.105 . S
O687 C672 1.268 . S
C688 C689 1.387 . S
C688 H692 0.950 . S
C688 C697 1.390 . S
C689 C688 1.387 . S
C689 C691 1.387 . S
H690 C697 0.950 . S
C691 C689 1.387 . S
C691 C693 1.390 . S
C691 H695 0.950 . S
H692 C688 0.950 . S
C693 C691 1.390 . S
C693 C694 1.387 . S
C693 H696 0.950 . S
C694 C693 1.387 . S
C694 C697 1.387 . S
H695 C691 0.950 . S
H696 C693 0.950 . S
C697 C688 1.390 . S
C697 H690 0.950 . S
C697 C694 1.387 . S
C698 C699 1.387 . S
C698 H702 0.950 . S
C698 C707 1.390 . S
C699 C698 1.387 . S
C699 C701 1.387 . S
H700 C707 0.950 . S
C701 C699 1.387 . S
C701 C703 1.390 . S
C701 H705 0.950 . S
H702 C698 0.950 . S
C703 C701 1.390 . S
C703 C704 1.387 . S
C703 H706 0.950 . S
C704 C703 1.387 . S
C704 C707 1.387 . S
H705 C701 0.950 . S
H706 C703 0.950 . S
C707 C698 1.390 . S
C707 H700 0.950 . S
C707 C704 1.387 . S
C708 C709 1.387 . S
C708 H712 0.950 . S
C708 C717 1.390 . S
C709 C708 1.387 . S
C709 C711 1.387 . S
H710 C717 0.950 . S
C711 C709 1.387 . S
C711 C713 1.390 . S
C711 H715 0.950 . S
H712 C708 0.950 . S
C713 C711 1.390 . S
C713 C714 1.387 . S
C713 H716 0.950 . S
C714 C713 1.387 . S
C714 C717 1.387 . S
H715 C711 0.950 . S
H716 C713 0.950 . S
C717 C708 1.390 . S
C717 H710 0.950 . S
C717 C714 1.387 . S
C718 C719 1.387 . S
C718 H722 0.950 . S
C718 C727 1.390 . S
C719 C718 1.387 . S
C719 C721 1.387 . S
H720 C727 0.950 . S
C721 C719 1.387 . S
C721 C723 1.390 1_554 S
C721 H725 0.950 . S
H722 C718 0.950 . S
C723 C721 1.390 1_556 S
C723 C724 1.387 . S
C723 H726 0.950 . S
C724 C723 1.387 . S
C724 C727 1.387 1_556 S
H725 C721 0.950 . S
H726 C723 0.950 . S
C727 C718 1.390 . S
C727 H720 0.950 . S
C727 C724 1.387 1_554 S
C728 C729 1.387 . S
C728 H732 0.950 . S
C728 C737 1.390 . S
C729 C728 1.387 . S
C729 C731 1.387 . S
H730 C737 0.950 . S
C731 C729 1.387 . S
C731 C733 1.390 . S
C731 H735 0.950 . S
H732 C728 0.950 . S
C733 C731 1.390 . S
C733 C734 1.387 . S
C733 H736 0.950 . S
C734 C733 1.387 . S
C734 C737 1.387 . S
H735 C731 0.950 . S
H736 C733 0.950 . S
C737 C728 1.390 . S
C737 H730 0.950 . S
C737 C734 1.387 . S
C738 C739 1.387 . S
C738 H742 0.950 . S
C738 C747 1.390 . S
C739 C738 1.387 . S
C739 C741 1.387 . S
H740 C747 0.950 . S
C741 C739 1.387 . S
C741 C743 1.390 . S
C741 H745 0.950 . S
H742 C738 0.950 . S
C743 C741 1.390 . S
C743 C744 1.387 . S
C743 H746 0.950 . S
C744 C743 1.387 . S
C744 C747 1.387 . S
H745 C741 0.950 . S
H746 C743 0.950 . S
C747 C738 1.390 . S
C747 H740 0.950 . S
C747 C744 1.387 . S
C748 C749 1.387 . S
C748 H752 0.950 . S
C748 C757 1.390 . S
C749 C748 1.387 . S
C749 C751 1.387 . S
H750 C757 0.950 . S
C751 C749 1.387 . S
C751 C753 1.390 . S
C751 H755 0.950 . S
H752 C748 0.950 . S
C753 C751 1.390 . S
C753 C754 1.387 . S
C753 H756 0.950 . S
C754 C753 1.387 . S
C754 C757 1.387 . S
H755 C751 0.950 . S
H756 C753 0.950 . S
C757 C748 1.390 . S
C757 H750 0.950 . S
C757 C754 1.387 . S
C758 C759 1.387 . S
C758 H762 0.950 . S
C758 C767 1.390 . S
C759 C758 1.387 . S
C759 C761 1.387 . S
H760 C767 0.950 . S
C761 C759 1.387 . S
C761 C763 1.390 . S
C761 H765 0.950 . S
H762 C758 0.950 . S
C763 C761 1.390 . S
C763 C764 1.387 1_556 S
C763 H766 0.950 1_556 S
C764 C763 1.387 1_554 S
C764 C767 1.387 1_554 S
H765 C761 0.950 . S
H766 C763 0.950 1_554 S
C767 C758 1.390 . S
C767 H760 0.950 . S
C767 C764 1.387 1_556 S
C768 C769 1.387 . S
C768 H772 0.950 . S
C768 C777 1.390 . S
C769 C768 1.387 . S
C769 C771 1.387 . S
H770 C777 0.950 . S
C771 C769 1.387 . S
C771 C773 1.390 . S
C771 H775 0.950 . S
H772 C768 0.950 . S
C773 C771 1.390 . S
C773 C774 1.387 . S
C773 H776 0.950 . S
C774 C773 1.387 . S
C774 C777 1.387 . S
H775 C771 0.950 . S
H776 C773 0.950 . S
C777 C768 1.390 . S
C777 H770 0.950 . S
C777 C774 1.387 . S
C778 C779 1.387 . S
C778 H782 0.950 . S
C778 C787 1.390 . S
C779 C778 1.387 . S
C779 C781 1.387 . S
H780 C787 0.950 . S
C781 C779 1.387 . S
C781 C783 1.390 1_545 S
C781 H785 0.950 . S
H782 C778 0.950 . S
C783 C781 1.390 1_565 S
C783 C784 1.387 . S
C783 H786 0.950 . S
C784 C783 1.387 . S
C784 C787 1.387 1_565 S
H785 C781 0.950 . S
H786 C783 0.950 . S
C787 C778 1.390 . S
C787 H780 0.950 . S
C787 C784 1.387 1_545 S
C788 C789 1.387 . S
C788 H792 0.950 . S
C788 C797 1.390 . S
C789 C788 1.387 . S
C789 C791 1.387 . S
H790 C797 0.950 . S
C791 C789 1.387 . S
C791 C793 1.390 . S
C791 H795 0.950 . S
H792 C788 0.950 . S
C793 C791 1.390 . S
C793 C794 1.387 . S
C793 H796 0.950 . S
C794 C793 1.387 . S
C794 C797 1.387 . S
H795 C791 0.950 . S
H796 C793 0.950 . S
C797 C788 1.390 . S
C797 H790 0.950 . S
C797 C794 1.387 . S
C798 C799 1.387 . S
C798 H802 0.950 . S
C798 C807 1.390 . S
C799 C798 1.387 . S
C799 C801 1.387 . S
H800 C807 0.950 . S
C801 C799 1.387 . S
C801 C803 1.390 1_565 S
C801 H805 0.950 . S
H802 C798 0.950 . S
C803 C801 1.390 1_545 S
C803 C804 1.387 . S
C803 H806 0.950 . S
C804 C803 1.387 . S
C804 C807 1.387 1_545 S
H805 C801 0.950 . S
H806 C803 0.950 . S
C807 C798 1.390 . S
C807 H800 0.950 . S
C807 C804 1.387 1_565 S
C808 C809 1.387 . S
C808 H812 0.950 . S
C808 C817 1.390 . S
C809 C808 1.387 . S
C809 C811 1.387 . S
H810 C817 0.950 . S
C811 C809 1.387 . S
C811 C813 1.390 . S
C811 H815 0.950 . S
H812 C808 0.950 . S
C813 C811 1.390 . S
C813 C814 1.387 . S
C813 H816 0.950 . S
C814 C813 1.387 . S
C814 C817 1.387 . S
H815 C811 0.950 . S
H816 C813 0.950 . S
C817 C808 1.390 . S
C817 H810 0.950 . S
C817 C814 1.387 . S
C818 C819 1.387 . S
C818 H822 0.950 . S
C818 C827 1.390 . S
C819 C818 1.387 . S
C819 C821 1.387 . S
H820 C827 0.950 . S
C821 C819 1.387 . S
C821 C823 1.390 . S
C821 H825 0.950 . S
H822 C818 0.950 . S
C823 C821 1.390 . S
C823 C824 1.387 1_545 S
C823 H826 0.950 1_545 S
C824 C823 1.387 1_565 S
C824 C827 1.387 1_565 S
H825 C821 0.950 . S
H826 C823 0.950 1_565 S
C827 C818 1.390 . S
C827 H820 0.950 . S
C827 C824 1.387 1_545 S
C828 C829 1.387 . S
C828 H832 0.950 . S
C828 C837 1.390 . S
C829 C828 1.387 . S
C829 C831 1.387 . S
H830 C837 0.950 . S
C831 C829 1.387 . S
C831 C833 1.390 . S
C831 H835 0.950 . S
H832 C828 0.950 . S
C833 C831 1.390 . S
C833 C834 1.387 . S
C833 H836 0.950 . S
C834 C833 1.387 . S
C834 C837 1.387 . S
H835 C831 0.950 . S
H836 C833 0.950 . S
C837 C828 1.390 . S
C837 H830 0.950 . S
C837 C834 1.387 . S
C838 C839 1.387 . S
C838 H842 0.950 . S
C838 C847 1.390 1_565 S
C839 C838 1.387 . S
C839 C841 1.387 . S
H840 C847 0.950 . S
C841 C839 1.387 . S
C841 C843 1.390 . S
C841 H845 0.950 . S
H842 C838 0.950 . S
C843 C841 1.390 . S
C843 C844 1.387 1_565 S
C843 H846 0.950 . S
C844 C843 1.387 1_545 S
C844 C847 1.387 . S
H845 C841 0.950 . S
H846 C843 0.950 . S
C847 C838 1.390 1_545 S
C847 H840 0.950 . S
C847 C844 1.387 . S
C848 C849 1.387 . S
C848 H852 0.950 . S
C848 C857 1.390 . S
C849 C848 1.387 . S
C849 C851 1.387 . S
H850 C857 0.950 . S
C851 C849 1.387 . S
C851 C853 1.390 . S
C851 H855 0.950 . S
H852 C848 0.950 . S
C853 C851 1.390 . S
C853 C854 1.387 . S
C853 H856 0.950 . S
C854 C853 1.387 . S
C854 C857 1.387 . S
H855 C851 0.950 . S
H856 C853 0.950 . S
C857 C848 1.390 . S
C857 H850 0.950 . S
C857 C854 1.387 . S
C858 C859 1.387 . S
C858 H862 0.950 . S
C858 C867 1.390 . S
C859 C858 1.387 . S
C859 C861 1.387 . S
H860 C867 0.950 . S
C861 C859 1.387 . S
C861 C863 1.390 . S
C861 H865 0.950 . S
H862 C858 0.950 . S
C863 C861 1.390 . S
C863 C864 1.387 . S
C863 H866 0.950 . S
C864 C863 1.387 . S
C864 C867 1.387 . S
H865 C861 0.950 . S
H866 C863 0.950 . S
C867 C858 1.390 . S
C867 H860 0.950 . S
C867 C864 1.387 . S
C868 C869 1.387 . S
C868 H872 0.950 . S
C868 C877 1.390 1_455 S
C869 C868 1.387 . S
C869 C871 1.387 . S
H870 C877 0.950 . S
C871 C869 1.387 . S
C871 C873 1.390 . S
C871 H875 0.950 . S
H872 C868 0.950 . S
C873 C871 1.390 . S
C873 C874 1.387 1_455 S
C873 H876 0.950 . S
C874 C873 1.387 1_655 S
C874 C877 1.387 . S
H875 C871 0.950 . S
H876 C873 0.950 . S
C877 C868 1.390 1_655 S
C877 H870 0.950 . S
C877 C874 1.387 . S
C878 C879 1.387 . S
C878 H882 0.950 . S
C878 C887 1.390 . S
C879 C878 1.387 . S
C879 C881 1.387 . S
H880 C887 0.950 . S
C881 C879 1.387 . S
C881 C883 1.390 . S
C881 H885 0.950 . S
H882 C878 0.950 . S
C883 C881 1.390 . S
C883 C884 1.387 . S
C883 H886 0.950 . S
C884 C883 1.387 . S
C884 C887 1.387 . S
H885 C881 0.950 . S
H886 C883 0.950 . S
C887 C878 1.390 . S
C887 H880 0.950 . S
C887 C884 1.387 . S
C888 C889 1.387 . S
C888 H892 0.950 . S
C888 C897 1.390 . S
C889 C888 1.387 . S
C889 C891 1.387 . S
H890 C897 0.950 1_455 S
C891 C889 1.387 . S
C891 C893 1.390 . S
C891 H895 0.950 . S
H892 C888 0.950 . S
C893 C891 1.390 . S
C893 C894 1.387 1_655 S
C893 H896 0.950 1_655 S
C894 C893 1.387 1_455 S
C894 C897 1.387 1_455 S
H895 C891 0.950 . S
H896 C893 0.950 1_455 S
C897 C888 1.390 . S
C897 H890 0.950 1_655 S
C897 C894 1.387 1_655 S
C898 C899 1.387 . S
C898 H902 0.950 . S
C898 C907 1.390 . S
C899 C898 1.387 . S
C899 C901 1.387 . S
H900 C907 0.950 . S
C901 C899 1.387 . S
C901 C903 1.390 . S
C901 H905 0.950 . S
H902 C898 0.950 . S
C903 C901 1.390 . S
C903 C904 1.387 . S
C903 H906 0.950 . S
C904 C903 1.387 . S
C904 C907 1.387 . S
H905 C901 0.950 . S
H906 C903 0.950 . S
C907 C898 1.390 . S
C907 H900 0.950 . S
C907 C904 1.387 . S
C908 C909 1.387 . S
C908 H912 0.950 . S
C908 C917 1.390 . S
C909 C908 1.387 . S
C909 C911 1.387 . S
H910 C917 0.950 . S
C911 C909 1.387 . S
C911 C913 1.390 . S
C911 H915 0.950 . S
H912 C908 0.950 . S
C913 C911 1.390 . S
C913 C914 1.387 1_455 S
C913 H916 0.950 1_455 S
C914 C913 1.387 1_655 S
C914 C917 1.387 1_655 S
H915 C911 0.950 . S
H916 C913 0.950 1_655 S
C917 C908 1.390 . S
C917 H910 0.950 . S
C917 C914 1.387 1_455 S
C918 C919 1.387 . S
C918 H922 0.950 . S
C918 C927 1.390 . S
C919 C918 1.387 . S
C919 C921 1.387 . S
H920 C927 0.950 . S
C921 C919 1.387 . S
C921 C923 1.390 . S
C921 H925 0.950 . S
H922 C918 0.950 . S
C923 C921 1.390 . S
C923 C924 1.387 . S
C923 H926 0.950 . S
C924 C923 1.387 . S
C924 C927 1.387 . S
H925 C921 0.950 . S
H926 C923 0.950 . S
C927 C918 1.390 . S
C927 H920 0.950 . S
C927 C924 1.387 . S
C928 C929 1.387 . S
C928 H932 0.950 . S
C928 C937 1.390 . S
C929 C928 1.387 . S
C929 C931 1.387 . S
H930 C937 0.950 . S
C931 C929 1.387 . S
C931 C933 1.390 . S
C931 H935 0.950 . S
H932 C928 0.950 . S
C933 C931 1.390 . S
C933 C934 1.387 . S
C933 H936 0.950 . S
C934 C933 1.387 . S
C934 C937 1.387 . S
H935 C931 0.950 . S
H936 C933 0.950 . S
C937 C928 1.390 . S
C937 H930 0.950 . S
C937 C934 1.387 . S
C938 C939 1.387 . S
C938 H942 0.950 . S
C938 C947 1.390 . S
C939 C938 1.387 . S
C939 C941 1.387 . S
H940 C947 0.950 . S
C941 C939 1.387 . S
C941 C943 1.390 . S
C941 H945 0.950 . S
H942 C938 0.950 . S
C943 C941 1.390 . S
C943 C944 1.387 . S
C943 H946 0.950 . S
C944 C943 1.387 . S
C944 C947 1.387 . S
H945 C941 0.950 . S
H946 C943 0.950 . S
C947 C938 1.390 . S
C947 H940 0.950 . S
C947 C944 1.387 . S
C948 C949 1.387 . S
C948 H952 0.950 . S
C948 C957 1.390 . S
C949 C948 1.387 . S
C949 C951 1.387 . S
H950 C957 0.950 . S
C951 C949 1.387 . S
C951 C953 1.390 . S
C951 H955 0.950 . S
H952 C948 0.950 . S
C953 C951 1.390 . S
C953 C954 1.387 . S
C953 H956 0.950 . S
C954 C953 1.387 . S
C954 C957 1.387 . S
H955 C951 0.950 . S
H956 C953 0.950 . S
C957 C948 1.390 . S
C957 H950 0.950 . S
C957 C954 1.387 . S
C958 C959 1.387 . S
C958 H962 0.950 . S
C958 C967 1.390 . S
C959 C958 1.387 . S
C959 C961 1.387 . S
H960 C967 0.950 . S
C961 C959 1.387 . S
C961 C963 1.390 1_556 S
C961 H965 0.950 . S
H962 C958 0.950 . S
C963 C961 1.390 1_554 S
C963 C964 1.387 . S
C963 H966 0.950 . S
C964 C963 1.387 . S
C964 C967 1.387 1_554 S
H965 C961 0.950 . S
H966 C963 0.950 . S
C967 C958 1.390 . S
C967 H960 0.950 . S
C967 C964 1.387 1_556 S
C968 C969 1.387 . S
C968 H972 0.950 . S
C968 C977 1.390 . S
C969 C968 1.387 . S
C969 C971 1.387 . S
H970 C977 0.950 . S
C971 C969 1.387 . S
C971 C973 1.390 . S
C971 H975 0.950 . S
H972 C968 0.950 . S
C973 C971 1.390 . S
C973 C974 1.387 . S
C973 H976 0.950 . S
C974 C973 1.387 . S
C974 C977 1.387 . S
H975 C971 0.950 . S
H976 C973 0.950 . S
C977 C968 1.390 . S
C977 H970 0.950 . S
C977 C974 1.387 . S
C978 C979 1.387 . S
C978 H982 0.950 . S
C978 C987 1.390 . S
C979 C978 1.387 . S
C979 C981 1.387 . S
H980 C987 0.950 . S
C981 C979 1.387 . S
C981 C983 1.390 . S
C981 H985 0.950 . S
H982 C978 0.950 . S
C983 C981 1.390 . S
C983 C984 1.387 . S
C983 H986 0.950 . S
C984 C983 1.387 . S
C984 C987 1.387 . S
H985 C981 0.950 . S
H986 C983 0.950 . S
C987 C978 1.390 . S
C987 H980 0.950 . S
C987 C984 1.387 . S
C988 C989 1.387 . S
C988 H992 0.950 . S
C988 C997 1.390 . S
C989 C988 1.387 . S
C989 C991 1.387 . S
H990 C997 0.950 . S
C991 C989 1.387 . S
C991 C993 1.390 . S
C991 H995 0.950 . S
H992 C988 0.950 . S
C993 C991 1.390 . S
C993 C994 1.387 . S
C993 H996 0.950 . S
C994 C993 1.387 . S
C994 C997 1.387 . S
H995 C991 0.950 . S
H996 C993 0.950 . S
C997 C988 1.390 . S
C997 H990 0.950 . S
C997 C994 1.387 . S
C998 C999 1.387 . S
C998 H1002 0.950 . S
C998 C1007 1.390 . S
C999 C998 1.387 . S
C999 C1001 1.387 . S
H1000 C1007 0.950 . S
C1001 C999 1.387 . S
C1001 C1003 1.390 1_554 S
C1001 H1005 0.950 . S
H1002 C998 0.950 . S
C1003 C1001 1.390 1_556 S
C1003 C1004 1.387 . S
C1003 H1006 0.950 . S
C1004 C1003 1.387 . S
C1004 C1007 1.387 1_556 S
H1005 C1001 0.950 . S
H1006 C1003 0.950 . S
C1007 C998 1.390 . S
C1007 H1000 0.950 . S
C1007 C1004 1.387 1_554 S
C1008 C1009 1.387 . S
C1008 H1012 0.950 . S
C1008 C1017 1.390 . S
C1009 C1008 1.387 . S
C1009 C1011 1.387 . S
H1010 C1017 0.950 . S
C1011 C1009 1.387 . S
C1011 C1013 1.390 . S
C1011 H1015 0.950 . S
H1012 C1008 0.950 . S
C1013 C1011 1.390 . S
C1013 C1014 1.387 . S
C1013 H1016 0.950 . S
C1014 C1013 1.387 . S
C1014 C1017 1.387 . S
H1015 C1011 0.950 . S
H1016 C1013 0.950 . S
C1017 C1008 1.390 . S
C1017 H1010 0.950 . S
C1017 C1014 1.387 . S
C1018 C1019 1.387 . S
C1018 H1022 0.950 . S
C1018 C1027 1.390 1_565 S
C1019 C1018 1.387 . S
C1019 C1021 1.387 . S
H1020 C1027 0.950 . S
C1021 C1019 1.387 . S
C1021 C1023 1.390 . S
C1021 H1025 0.950 . S
H1022 C1018 0.950 . S
C1023 C1021 1.390 . S
C1023 C1024 1.387 1_565 S
C1023 H1026 0.950 . S
C1024 C1023 1.387 1_545 S
C1024 C1027 1.387 . S
H1025 C1021 0.950 . S
H1026 C1023 0.950 . S
C1027 C1018 1.390 1_545 S
C1027 H1020 0.950 . S
C1027 C1024 1.387 . S
C1028 C1029 1.387 . S
C1028 H1032 0.950 . S
C1028 C1037 1.390 . S
C1029 C1028 1.387 . S
C1029 C1031 1.387 . S
H1030 C1037 0.950 . S
C1031 C1029 1.387 . S
C1031 C1033 1.390 . S
C1031 H1035 0.950 . S
H1032 C1028 0.950 . S
C1033 C1031 1.390 . S
C1033 C1034 1.387 . S
C1033 H1036 0.950 . S
C1034 C1033 1.387 . S
C1034 C1037 1.387 . S
H1035 C1031 0.950 . S
H1036 C1033 0.950 . S
C1037 C1028 1.390 . S
C1037 H1030 0.950 . S
C1037 C1034 1.387 . S
C1038 C1039 1.387 . S
C1038 H1042 0.950 1_554 S
C1038 C1047 1.390 1_545 S
C1039 C1038 1.387 . S
C1039 C1041 1.387 . S
H1040 C1047 0.950 . S
C1041 C1039 1.387 . S
C1041 C1043 1.390 . S
C1041 H1045 0.950 . S
H1042 C1038 0.950 1_556 S
C1043 C1041 1.390 . S
C1043 C1044 1.387 1_545 S
C1043 H1046 0.950 . S
C1044 C1043 1.387 1_565 S
C1044 C1047 1.387 . S
H1045 C1041 0.950 . S
H1046 C1043 0.950 . S
C1047 C1038 1.390 1_565 S
C1047 H1040 0.950 . S
C1047 C1044 1.387 . S
C1048 C1049 1.387 . S
C1048 H1052 0.950 . S
C1048 C1057 1.390 . S
C1049 C1048 1.387 . S
C1049 C1051 1.387 . S
H1050 C1057 0.950 . S
C1051 C1049 1.387 . S
C1051 C1053 1.390 . S
C1051 H1055 0.950 . S
H1052 C1048 0.950 . S
C1053 C1051 1.390 . S
C1053 C1054 1.387 . S
C1053 H1056 0.950 . S
C1054 C1053 1.387 . S
C1054 C1057 1.387 . S
H1055 C1051 0.950 . S
H1056 C1053 0.950 . S
C1057 C1048 1.390 . S
C1057 H1050 0.950 . S
C1057 C1054 1.387 . S
C1058 C1059 1.387 . S
C1058 H1062 0.950 . S
C1058 C1067 1.390 . S
C1059 C1058 1.387 . S
C1059 C1061 1.387 . S
H1060 C1067 0.950 . S
C1061 C1059 1.387 . S
C1061 C1063 1.390 1_565 S
C1061 H1065 0.950 . S
H1062 C1058 0.950 . S
C1063 C1061 1.390 1_545 S
C1063 C1064 1.387 . S
C1063 H1066 0.950 . S
C1064 C1063 1.387 . S
C1064 C1067 1.387 1_545 S
H1065 C1061 0.950 . S
H1066 C1063 0.950 . S
C1067 C1058 1.390 . S
C1067 H1060 0.950 . S
C1067 C1064 1.387 1_565 S
C1068 C1069 1.387 . S
C1068 H1072 0.950 . S
C1068 C1077 1.390 . S
C1069 C1068 1.387 . S
C1069 C1071 1.387 . S
H1070 C1077 0.950 . S
C1071 C1069 1.387 . S
C1071 C1073 1.390 . S
C1071 H1075 0.950 . S
H1072 C1068 0.950 . S
C1073 C1071 1.390 . S
C1073 C1074 1.387 . S
C1073 H1076 0.950 . S
C1074 C1073 1.387 . S
C1074 C1077 1.387 . S
H1075 C1071 0.950 . S
H1076 C1073 0.950 . S
C1077 C1068 1.390 . S
C1077 H1070 0.950 . S
C1077 C1074 1.387 . S
C1078 C1079 1.387 . S
C1078 H1082 0.950 1_556 S
C1078 C1087 1.390 1_545 S
C1079 C1078 1.387 . S
C1079 C1081 1.387 . S
H1080 C1087 0.950 . S
C1081 C1079 1.387 . S
C1081 C1083 1.390 . S
C1081 H1085 0.950 . S
H1082 C1078 0.950 1_554 S
C1083 C1081 1.390 . S
C1083 C1084 1.387 1_545 S
C1083 H1086 0.950 . S
C1084 C1083 1.387 1_565 S
C1084 C1087 1.387 . S
H1085 C1081 0.950 . S
H1086 C1083 0.950 . S
C1087 C1078 1.390 1_565 S
C1087 H1080 0.950 . S
C1087 C1084 1.387 . S
C1088 C1089 1.387 . S
C1088 H1092 0.950 . S
C1088 C1097 1.390 . S
C1089 C1088 1.387 . S
C1089 C1091 1.387 . S
H1090 C1097 0.950 . S
C1091 C1089 1.387 . S
C1091 C1093 1.390 . S
C1091 H1095 0.950 . S
H1092 C1088 0.950 . S
C1093 C1091 1.390 . S
C1093 C1094 1.387 . S
C1093 H1096 0.950 . S
C1094 C1093 1.387 . S
C1094 C1097 1.387 . S
H1095 C1091 0.950 . S
H1096 C1093 0.950 . S
C1097 C1088 1.390 . S
C1097 H1090 0.950 . S
C1097 C1094 1.387 . S
C1098 C1099 1.387 . S
C1098 H1102 0.950 . S
C1098 C1107 1.390 . S
C1099 C1098 1.387 . S
C1099 C1101 1.387 . S
H1100 C1107 0.950 . S
C1101 C1099 1.387 . S
C1101 C1103 1.390 . S
C1101 H1105 0.950 . S
H1102 C1098 0.950 . S
C1103 C1101 1.390 . S
C1103 C1104 1.387 . S
C1103 H1106 0.950 . S
C1104 C1103 1.387 . S
C1104 C1107 1.387 . S
H1105 C1101 0.950 . S
H1106 C1103 0.950 . S
C1107 C1098 1.390 . S
C1107 H1100 0.950 . S
C1107 C1104 1.387 . S
C1108 C1109 1.387 . S
C1108 H1112 0.950 . S
C1108 C1117 1.390 . S
C1109 C1108 1.387 . S
C1109 C1111 1.387 . S
H1110 C1117 0.950 1_455 S
C1111 C1109 1.387 . S
C1111 C1113 1.390 . S
C1111 H1115 0.950 . S
H1112 C1108 0.950 . S
C1113 C1111 1.390 . S
C1113 C1114 1.387 1_655 S
C1113 H1116 0.950 1_655 S
C1114 C1113 1.387 1_455 S
C1114 C1117 1.387 1_455 S
H1115 C1111 0.950 . S
H1116 C1113 0.950 1_455 S
C1117 C1108 1.390 . S
C1117 H1110 0.950 1_655 S
C1117 C1114 1.387 1_655 S
C1118 C1119 1.387 . S
C1118 H1122 0.950 . S
C1118 C1127 1.390 . S
C1119 C1118 1.387 . S
C1119 C1121 1.387 . S
H1120 C1127 0.950 . S
C1121 C1119 1.387 . S
C1121 C1123 1.390 . S
C1121 H1125 0.950 . S
H1122 C1118 0.950 . S
C1123 C1121 1.390 . S
C1123 C1124 1.387 . S
C1123 H1126 0.950 . S
C1124 C1123 1.387 . S
C1124 C1127 1.387 . S
H1125 C1121 0.950 . S
H1126 C1123 0.950 . S
C1127 C1118 1.390 . S
C1127 H1120 0.950 . S
C1127 C1124 1.387 . S
C1128 C1129 1.387 . S
C1128 H1132 0.950 . S
C1128 C1137 1.390 . S
C1129 C1128 1.387 . S
C1129 C1131 1.387 . S
H1130 C1137 0.950 . S
C1131 C1129 1.387 . S
C1131 C1133 1.390 . S
C1131 H1135 0.950 1_565 S
H1132 C1128 0.950 . S
C1133 C1131 1.390 . S
C1133 C1134 1.387 1_455 S
C1133 H1136 0.950 1_455 S
C1134 C1133 1.387 1_655 S
C1134 C1137 1.387 1_655 S
H1135 C1131 0.950 1_545 S
H1136 C1133 0.950 1_655 S
C1137 C1128 1.390 . S
C1137 H1130 0.950 . S
C1137 C1134 1.387 1_455 S
C1138 C1139 1.387 . S
C1138 H1142 0.950 . S
C1138 C1147 1.390 . S
C1139 C1138 1.387 . S
C1139 C1141 1.387 . S
H1140 C1147 0.950 . S
C1141 C1139 1.387 . S
C1141 C1143 1.390 . S
C1141 H1145 0.950 . S
H1142 C1138 0.950 . S
C1143 C1141 1.390 . S
C1143 C1144 1.387 . S
C1143 H1146 0.950 . S
C1144 C1143 1.387 . S
C1144 C1147 1.387 . S
H1145 C1141 0.950 . S
H1146 C1143 0.950 . S
C1147 C1138 1.390 . S
C1147 H1140 0.950 . S
C1147 C1144 1.387 . S
C1148 C1149 1.387 . S
C1148 H1152 0.950 . S
C1148 C1157 1.390 1_655 S
C1149 C1148 1.387 . S
C1149 C1151 1.387 . S
H1150 C1157 0.950 . S
C1151 C1149 1.387 . S
C1151 C1153 1.408 . S
C1151 H1155 0.950 . S
H1152 C1148 0.950 . S
C1153 C1151 1.408 . S
C1153 C1154 1.378 1_655 S
C1153 H1156 0.942 1_655 S
C1154 C1153 1.378 1_455 S
C1154 C1157 1.387 . S
H1155 C1151 0.950 . S
H1156 C1153 0.942 1_455 S
C1157 C1148 1.390 1_455 S
C1157 H1150 0.950 . S
C1157 C1154 1.387 . S
C1158 C1159 1.387 . S
C1158 H1162 0.950 . S
C1158 C1167 1.390 . S
C1159 C1158 1.387 . S
C1159 C1161 1.387 . S
H1160 C1167 0.950 . S
C1161 C1159 1.387 . S
C1161 C1163 1.390 . S
C1161 H1165 0.950 . S
H1162 C1158 0.950 . S
C1163 C1161 1.390 . S
C1163 C1164 1.387 . S
C1163 H1166 0.950 . S
C1164 C1163 1.387 . S
C1164 C1167 1.387 . S
H1165 C1161 0.950 . S
H1166 C1163 0.950 . S
C1167 C1158 1.390 . S
C1167 H1160 0.950 . S
C1167 C1164 1.387 . S
C1168 C1169 1.387 . S
C1168 H1172 0.950 . S
C1168 C1177 1.390 . S
C1169 C1168 1.387 . S
C1169 C1171 1.387 . S
H1170 C1177 0.950 . S
C1171 C1169 1.387 . S
C1171 C1173 1.390 . S
C1171 H1175 0.950 . S
H1172 C1168 0.950 . S
C1173 C1171 1.390 . S
C1173 C1174 1.387 . S
C1173 H1176 0.950 . S
C1174 C1173 1.387 . S
C1174 C1177 1.387 . S
H1175 C1171 0.950 . S
H1176 C1173 0.950 . S
C1177 C1168 1.390 . S
C1177 H1170 0.950 . S
C1177 C1174 1.387 . S
C1178 C1179 1.387 . S
C1178 H1182 0.950 . S
C1178 C1187 1.390 1_554 S
C1179 C1178 1.387 . S
C1179 C1181 1.387 . S
H1180 C1187 0.950 . S
C1181 C1179 1.387 . S
C1181 C1183 1.390 . S
C1181 H1185 0.950 . S
H1182 C1178 0.950 . S
C1183 C1181 1.390 . S
C1183 C1184 1.387 1_554 S
C1183 H1186 0.950 . S
C1184 C1183 1.387 1_556 S
C1184 C1187 1.387 . S
H1185 C1181 0.950 . S
H1186 C1183 0.950 . S
C1187 C1178 1.390 1_556 S
C1187 H1180 0.950 . S
C1187 C1184 1.387 . S
C1188 C1189 1.387 . S
C1188 H1192 0.950 . S
C1188 C1197 1.390 . S
C1189 C1188 1.387 . S
C1189 C1191 1.387 . S
H1190 C1197 0.950 . S
C1191 C1189 1.387 . S
C1191 C1193 1.390 . S
C1191 H1195 0.950 . S
H1192 C1188 0.950 . S
C1193 C1191 1.390 . S
C1193 C1194 1.387 . S
C1193 H1196 0.950 . S
C1194 C1193 1.387 . S
C1194 C1197 1.387 . S
H1195 C1191 0.950 . S
H1196 C1193 0.950 . S
C1197 C1188 1.390 . S
C1197 H1190 0.950 . S
C1197 C1194 1.387 . S
C1198 C1199 1.387 . S
C1198 H1202 0.950 . S
C1198 C1207 1.390 . S
C1199 C1198 1.387 . S
C1199 C1201 1.387 . S
H1200 C1207 0.950 . S
C1201 C1199 1.387 . S
C1201 C1203 1.390 . S
C1201 H1205 0.950 . S
H1202 C1198 0.950 . S
C1203 C1201 1.390 . S
C1203 C1204 1.387 . S
C1203 H1206 0.950 . S
C1204 C1203 1.387 . S
C1204 C1207 1.387 . S
H1205 C1201 0.950 . S
H1206 C1203 0.950 . S
C1207 C1198 1.390 . S
C1207 H1200 0.950 . S
C1207 C1204 1.387 . S
C1208 C1209 1.387 . S
C1208 H1212 0.950 . S
C1208 C1217 1.390 . S
C1209 C1208 1.387 . S
C1209 C1211 1.387 . S
H1210 C1217 0.950 . S
C1211 C1209 1.387 . S
C1211 C1213 1.390 . S
C1211 H1215 0.950 . S
H1212 C1208 0.950 . S
C1213 C1211 1.390 . S
C1213 C1214 1.387 . S
C1213 H1216 0.950 . S
C1214 C1213 1.387 . S
C1214 C1217 1.387 . S
H1215 C1211 0.950 . S
H1216 C1213 0.950 . S
C1217 C1208 1.390 . S
C1217 H1210 0.950 . S
C1217 C1214 1.387 . S
C1218 C1219 1.387 . S
C1218 H1222 0.950 . S
C1218 C1227 1.390 1_556 S
C1219 C1218 1.387 . S
C1219 C1221 1.387 . S
H1220 C1227 0.950 . S
C1221 C1219 1.387 . S
C1221 C1223 1.390 . S
C1221 H1225 0.950 . S
H1222 C1218 0.950 . S
C1223 C1221 1.390 . S
C1223 C1224 1.387 1_556 S
C1223 H1226 0.950 . S
C1224 C1223 1.387 1_554 S
C1224 C1227 1.387 . S
H1225 C1221 0.950 . S
H1226 C1223 0.950 . S
C1227 C1218 1.390 1_554 S
C1227 H1220 0.950 . S
C1227 C1224 1.387 . S
C1228 C1229 1.387 . S
C1228 H1232 0.950 . S
C1228 C1237 1.390 . S
C1229 C1228 1.387 . S
C1229 C1231 1.387 . S
H1230 C1237 0.950 . S
C1231 C1229 1.387 . S
C1231 C1233 1.390 . S
C1231 H1235 0.950 . S
H1232 C1228 0.950 . S
C1233 C1231 1.390 . S
C1233 C1234 1.387 . S
C1233 H1236 0.950 . S
C1234 C1233 1.387 . S
C1234 C1237 1.387 . S
H1235 C1231 0.950 . S
H1236 C1233 0.950 . S
C1237 C1228 1.390 . S
C1237 H1230 0.950 . S
C1237 C1234 1.387 . S
C1238 C1239 1.387 . S
C1238 H1242 0.950 . S
C1238 C1247 1.390 . S
C1239 C1238 1.387 . S
C1239 C1241 1.387 . S
H1240 C1247 0.950 . S
C1241 C1239 1.387 . S
C1241 C1243 1.390 . S
C1241 H1245 0.950 . S
H1242 C1238 0.950 . S
C1243 C1241 1.390 . S
C1243 C1244 1.387 . S
C1243 H1246 0.950 . S
C1244 C1243 1.387 . S
C1244 C1247 1.387 . S
H1245 C1241 0.950 . S
H1246 C1243 0.950 . S
C1247 C1238 1.390 . S
C1247 H1240 0.950 . S
C1247 C1244 1.387 . S
C1248 C1249 1.387 . S
C1248 H1252 0.950 . S
C1248 C1257 1.390 . S
C1249 C1248 1.387 . S
C1249 C1251 1.387 . S
H1250 C1257 0.950 . S
C1251 C1249 1.387 . S
C1251 C1253 1.390 . S
C1251 H1255 0.950 . S
H1252 C1248 0.950 . S
C1253 C1251 1.390 . S
C1253 C1254 1.387 . S
C1253 H1256 0.950 . S
C1254 C1253 1.387 . S
C1254 C1257 1.387 . S
H1255 C1251 0.950 . S
H1256 C1253 0.950 . S
C1257 C1248 1.390 . S
C1257 H1250 0.950 . S
C1257 C1254 1.387 . S
C1258 C1259 1.387 . S
C1258 H1262 0.950 . S
C1258 C1267 1.390 . S
C1259 C1258 1.387 . S
C1259 C1261 1.387 . S
H1260 C1267 0.950 . S
C1261 C1259 1.387 . S
C1261 C1263 1.390 . S
C1261 H1265 0.950 . S
H1262 C1258 0.950 . S
C1263 C1261 1.390 . S
C1263 C1264 1.387 . S
C1263 H1266 0.950 . S
C1264 C1263 1.387 . S
C1264 C1267 1.387 . S
H1265 C1261 0.950 . S
H1266 C1263 0.950 . S
C1267 C1258 1.390 . S
C1267 H1260 0.950 . S
C1267 C1264 1.387 . S
C1268 C1269 1.387 . S
C1268 H1272 0.950 . S
C1268 C1277 1.390 . S
C1269 C1268 1.387 . S
C1269 C1271 1.387 . S
H1270 C1277 0.950 . S
C1271 C1269 1.387 . S
C1271 C1273 1.390 . S
C1271 H1275 0.950 . S
H1272 C1268 0.950 . S
C1273 C1271 1.390 . S
C1273 C1274 1.387 . S
C1273 H1276 0.950 . S
C1274 C1273 1.387 . S
C1274 C1277 1.387 . S
H1275 C1271 0.950 . S
H1276 C1273 0.950 . S
C1277 C1268 1.390 . S
C1277 H1270 0.950 . S
C1277 C1274 1.387 . S
C1278 C1279 1.387 . S
C1278 H1282 0.950 . S
C1278 C1287 1.390 . S
C1279 C1278 1.387 . S
C1279 C1281 1.387 . S
H1280 C1287 0.950 . S
C1281 C1279 1.387 . S
C1281 C1283 1.390 . S
C1281 H1285 0.950 . S
H1282 C1278 0.950 . S
C1283 C1281 1.390 . S
C1283 C1284 1.387 . S
C1283 H1286 0.950 . S
C1284 C1283 1.387 . S
C1284 C1287 1.387 . S
H1285 C1281 0.950 . S
H1286 C1283 0.950 . S
C1287 C1278 1.390 . S
C1287 H1280 0.950 . S
C1287 C1284 1.387 . S
C1288 C1289 1.387 . S
C1288 H1292 0.950 . S
C1288 C1297 1.390 . S
C1289 C1288 1.387 . S
C1289 C1291 1.387 . S
H1290 C1297 0.950 . S
C1291 C1289 1.387 . S
C1291 C1293 1.390 . S
C1291 H1295 0.950 . S
H1292 C1288 0.950 . S
C1293 C1291 1.390 . S
C1293 C1294 1.387 . S
C1293 H1296 0.950 . S
C1294 C1293 1.387 . S
C1294 C1297 1.387 . S
H1295 C1291 0.950 . S
H1296 C1293 0.950 . S
C1297 C1288 1.390 . S
C1297 H1290 0.950 . S
C1297 C1294 1.387 . S
C1298 C1299 1.387 . S
C1298 H1302 0.950 . S
C1298 C1307 1.390 . S
C1299 C1298 1.387 . S
C1299 C1301 1.387 . S
H1300 C1307 0.950 . S
C1301 C1299 1.387 . S
C1301 C1303 1.390 . S
C1301 H1305 0.950 . S
H1302 C1298 0.950 . S
C1303 C1301 1.390 . S
C1303 C1304 1.387 . S
C1303 H1306 0.950 . S
C1304 C1303 1.387 . S
C1304 C1307 1.387 . S
H1305 C1301 0.950 . S
H1306 C1303 0.950 . S
C1307 C1298 1.390 . S
C1307 H1300 0.950 . S
C1307 C1304 1.387 . S
C1308 C1309 1.387 . S
C1308 H1312 0.950 . S
C1308 C1317 1.390 . S
C1309 C1308 1.387 . S
C1309 C1311 1.387 . S
H1310 C1317 0.950 . S
C1311 C1309 1.387 . S
C1311 C1313 1.390 . S
C1311 H1315 0.950 . S
H1312 C1308 0.950 . S
C1313 C1311 1.390 . S
C1313 C1314 1.387 . S
C1313 H1316 0.950 . S
C1314 C1313 1.387 . S
C1314 C1317 1.387 . S
H1315 C1311 0.950 . S
H1316 C1313 0.950 . S
C1317 C1308 1.390 . S
C1317 H1310 0.950 . S
C1317 C1314 1.387 . S
C1318 C1319 1.387 . S
C1318 H1322 0.950 . S
C1318 C1327 1.390 . S
C1319 C1318 1.387 . S
C1319 C1321 1.387 . S
H1320 C1327 0.950 . S
C1321 C1319 1.387 . S
C1321 C1323 1.390 . S
C1321 H1325 0.950 . S
H1322 C1318 0.950 . S
C1323 C1321 1.390 . S
C1323 C1324 1.387 . S
C1323 H1326 0.950 . S
C1324 C1323 1.387 . S
C1324 C1327 1.387 . S
H1325 C1321 0.950 . S
H1326 C1323 0.950 . S
C1327 C1318 1.390 . S
C1327 H1320 0.950 . S
C1327 C1324 1.387 . S
C1328 C1329 1.387 . S
C1328 H1332 0.950 . S
C1328 C1337 1.390 . S
C1329 C1328 1.387 . S
C1329 C1331 1.387 . S
H1330 C1337 0.950 . S
C1331 C1329 1.387 . S
C1331 C1333 1.390 . S
C1331 H1335 0.950 . S
H1332 C1328 0.950 . S
C1333 C1331 1.390 . S
C1333 C1334 1.387 . S
C1333 H1336 0.950 . S
C1334 C1333 1.387 . S
C1334 C1337 1.387 . S
H1335 C1331 0.950 . S
H1336 C1333 0.950 . S
C1337 C1328 1.390 . S
C1337 H1330 0.950 . S
C1337 C1334 1.387 . S
C1338 C1339 1.387 . S
C1338 H1342 0.950 . S
C1338 C1347 1.390 . S
C1339 C1338 1.387 . S
C1339 C1341 1.387 . S
H1340 C1347 0.950 . S
C1341 C1339 1.387 . S
C1341 C1343 1.390 . S
C1341 H1345 0.950 . S
H1342 C1338 0.950 . S
C1343 C1341 1.390 . S
C1343 C1344 1.387 . S
C1343 H1346 0.950 . S
C1344 C1343 1.387 . S
C1344 C1347 1.387 . S
H1345 C1341 0.950 . S
H1346 C1343 0.950 . S
C1347 C1338 1.390 . S
C1347 H1340 0.950 . S
C1347 C1344 1.387 . S
C1348 C1349 1.387 . S
C1348 H1352 0.950 . S
C1348 C1357 1.390 . S
C1349 C1348 1.387 . S
C1349 C1351 1.387 . S
H1350 C1357 0.950 . S
C1351 C1349 1.387 . S
C1351 C1353 1.390 . S
C1351 H1355 0.950 . S
H1352 C1348 0.950 . S
C1353 C1351 1.390 . S
C1353 C1354 1.387 . S
C1353 H1356 0.950 . S
C1354 C1353 1.387 . S
C1354 C1357 1.387 . S
H1355 C1351 0.950 . S
H1356 C1353 0.950 . S
C1357 C1348 1.390 . S
C1357 H1350 0.950 . S
C1357 C1354 1.387 . S
C1358 C1359 1.387 . S
C1358 H1362 0.950 . S
C1358 C1367 1.390 . S
C1359 C1358 1.387 . S
C1359 C1361 1.387 . S
H1360 C1367 0.950 . S
C1361 C1359 1.387 . S
C1361 C1363 1.390 . S
C1361 H1365 0.950 . S
H1362 C1358 0.950 . S
C1363 C1361 1.390 . S
C1363 C1364 1.387 . S
C1363 H1366 0.950 . S
C1364 C1363 1.387 . S
C1364 C1367 1.387 . S
H1365 C1361 0.950 . S
H1366 C1363 0.950 . S
C1367 C1358 1.390 . S
C1367 H1360 0.950 . S
C1367 C1364 1.387 . S
C1368 C1369 1.387 . S
C1368 H1372 0.950 . S
C1368 C1377 1.390 . S
C1369 C1368 1.387 . S
C1369 C1371 1.387 . S
H1370 C1377 0.950 . S
C1371 C1369 1.387 . S
C1371 C1373 1.390 . S
C1371 H1375 0.950 . S
H1372 C1368 0.950 . S
C1373 C1371 1.390 . S
C1373 C1374 1.387 . S
C1373 H1376 0.950 . S
C1374 C1373 1.387 . S
C1374 C1377 1.387 . S
H1375 C1371 0.950 . S
H1376 C1373 0.950 . S
C1377 C1368 1.390 . S
C1377 H1370 0.950 . S
C1377 C1374 1.387 . S
C1378 C1379 1.387 . S
C1378 H1382 0.950 . S
C1378 C1387 1.390 . S
C1379 C1378 1.387 . S
C1379 C1381 1.387 . S
H1380 C1387 0.950 . S
C1381 C1379 1.387 . S
C1381 C1383 1.390 . S
C1381 H1385 0.950 . S
H1382 C1378 0.950 . S
C1383 C1381 1.390 . S
C1383 C1384 1.387 . S
C1383 H1386 0.950 . S
C1384 C1383 1.387 . S
C1384 C1387 1.387 . S
H1385 C1381 0.950 . S
H1386 C1383 0.950 . S
C1387 C1378 1.390 . S
C1387 H1380 0.950 . S
C1387 C1384 1.387 . S
C1388 C1389 1.387 . S
C1388 H1392 0.950 . S
C1388 C1397 1.390 . S
C1389 C1388 1.387 . S
C1389 C1391 1.387 . S
H1390 C1397 0.950 . S
C1391 C1389 1.387 . S
C1391 C1393 1.390 . S
C1391 H1395 0.950 . S
H1392 C1388 0.950 . S
C1393 C1391 1.390 . S
C1393 C1394 1.387 . S
C1393 H1396 0.950 . S
C1394 C1393 1.387 . S
C1394 C1397 1.387 . S
H1395 C1391 0.950 . S
H1396 C1393 0.950 . S
C1397 C1388 1.390 . S
C1397 H1390 0.950 . S
C1397 C1394 1.387 . S
C1398 C1399 1.387 . S
C1398 H1402 0.950 . S
C1398 C1407 1.397 . S
C1399 C1398 1.387 . S
C1399 C1401 1.387 . S
H1400 C1407 0.946 1_455 S
C1401 C1399 1.387 . S
C1401 C1403 1.390 . S
C1401 H1405 0.950 . S
H1402 C1398 0.950 . S
C1403 C1401 1.390 . S
C1403 C1404 1.387 1_655 S
C1403 H1406 0.950 1_655 S
C1404 C1403 1.387 1_455 S
C1404 C1407 1.385 1_455 S
H1405 C1401 0.950 . S
H1406 C1403 0.950 1_455 S
C1407 C1398 1.397 . S
C1407 H1400 0.946 1_655 S
C1407 C1404 1.385 1_655 S
C1408 C1409 1.387 . S
C1408 H1412 0.950 . S
C1408 C1417 1.390 . S
C1409 C1408 1.387 . S
C1409 C1411 1.387 . S
H1410 C1417 0.950 . S
C1411 C1409 1.387 . S
C1411 C1413 1.390 . S
C1411 H1415 0.950 . S
H1412 C1408 0.950 . S
C1413 C1411 1.390 . S
C1413 C1414 1.387 . S
C1413 H1416 0.950 . S
C1414 C1413 1.387 . S
C1414 C1417 1.387 . S
H1415 C1411 0.950 . S
H1416 C1413 0.950 . S
C1417 C1408 1.390 . S
C1417 H1410 0.950 . S
C1417 C1414 1.387 . S
C1418 C1419 1.387 . S
C1418 H1422 0.950 . S
C1418 C1427 1.390 1_556 S
C1419 C1418 1.387 . S
C1419 C1421 1.387 . S
H1420 C1427 0.950 . S
C1421 C1419 1.387 . S
C1421 C1423 1.390 . S
C1421 H1425 0.950 . S
H1422 C1418 0.950 . S
C1423 C1421 1.390 . S
C1423 C1424 1.387 1_556 S
C1423 H1426 0.950 . S
C1424 C1423 1.387 1_554 S
C1424 C1427 1.387 . S
H1425 C1421 0.950 . S
H1426 C1423 0.950 . S
C1427 C1418 1.390 1_554 S
C1427 H1420 0.950 . S
C1427 C1424 1.387 . S
C1428 C1429 1.387 . S
C1428 H1432 0.950 . S
C1428 C1437 1.390 . S
C1429 C1428 1.387 . S
C1429 C1431 1.387 . S
H1430 C1437 0.950 . S
C1431 C1429 1.387 . S
C1431 C1433 1.390 . S
C1431 H1435 0.950 . S
H1432 C1428 0.950 . S
C1433 C1431 1.390 . S
C1433 C1434 1.387 . S
C1433 H1436 0.950 . S
C1434 C1433 1.387 . S
C1434 C1437 1.387 . S
H1435 C1431 0.950 . S
H1436 C1433 0.950 . S
C1437 C1428 1.390 . S
C1437 H1430 0.950 . S
C1437 C1434 1.387 . S
C1438 C1439 1.387 . S
C1438 H1442 0.950 . S
C1438 C1447 1.390 . S
C1439 C1438 1.387 . S
C1439 C1441 1.387 . S
H1440 C1447 0.950 . S
C1441 C1439 1.387 . S
C1441 C1443 1.390 . S
C1441 H1445 0.950 . S
H1442 C1438 0.950 . S
C1443 C1441 1.390 . S
C1443 C1444 1.387 . S
C1443 H1446 0.950 . S
C1444 C1443 1.387 . S
C1444 C1447 1.387 . S
H1445 C1441 0.950 . S
H1446 C1443 0.950 . S
C1447 C1438 1.390 . S
C1447 H1440 0.950 . S
C1447 C1444 1.387 . S
C1448 C1449 1.387 . S
C1448 H1452 0.950 . S
C1448 C1457 1.390 . S
C1449 C1448 1.387 . S
C1449 C1451 1.387 . S
H1450 C1457 0.950 . S
C1451 C1449 1.387 . S
C1451 C1453 1.390 . S
C1451 H1455 0.950 . S
H1452 C1448 0.950 . S
C1453 C1451 1.390 . S
C1453 C1454 1.387 . S
C1453 H1456 0.950 . S
C1454 C1453 1.387 . S
C1454 C1457 1.387 . S
H1455 C1451 0.950 . S
H1456 C1453 0.950 . S
C1457 C1448 1.390 . S
C1457 H1450 0.950 . S
C1457 C1454 1.387 . S
C1458 C1459 1.387 . S
C1458 H1462 0.950 . S
C1458 C1467 1.390 . S
C1459 C1458 1.387 . S
C1459 C1461 1.387 . S
H1460 C1467 0.950 . S
C1461 C1459 1.387 . S
C1461 C1463 1.390 1_554 S
C1461 H1465 0.950 . S
H1462 C1458 0.950 . S
C1463 C1461 1.390 1_556 S
C1463 C1464 1.387 . S
C1463 H1466 0.950 . S
C1464 C1463 1.387 . S
C1464 C1467 1.387 1_556 S
H1465 C1461 0.950 . S
H1466 C1463 0.950 . S
C1467 C1458 1.390 . S
C1467 H1460 0.950 . S
C1467 C1464 1.387 1_554 S
C1468 C1469 1.387 . S
C1468 H1472 0.950 . S
C1468 C1477 1.390 . S
C1469 C1468 1.387 . S
C1469 C1471 1.387 . S
H1470 C1477 0.950 . S
C1471 C1469 1.387 . S
C1471 C1473 1.390 . S
C1471 H1475 0.950 . S
H1472 C1468 0.950 . S
C1473 C1471 1.390 . S
C1473 C1474 1.387 . S
C1473 H1476 0.950 . S
C1474 C1473 1.387 . S
C1474 C1477 1.387 . S
H1475 C1471 0.950 . S
H1476 C1473 0.950 . S
C1477 C1468 1.390 . S
C1477 H1470 0.950 . S
C1477 C1474 1.387 . S
C1478 C1479 1.387 . S
C1478 H1482 0.950 . S
C1478 C1487 1.390 . S
C1479 C1478 1.387 . S
C1479 C1481 1.387 . S
H1480 C1487 0.950 . S
C1481 C1479 1.387 . S
C1481 C1483 1.390 . S
C1481 H1485 0.950 . S
H1482 C1478 0.950 . S
C1483 C1481 1.390 . S
C1483 C1484 1.387 . S
C1483 H1486 0.950 . S
C1484 C1483 1.387 . S
C1484 C1487 1.387 . S
H1485 C1481 0.950 . S
H1486 C1483 0.950 . S
C1487 C1478 1.390 . S
C1487 H1480 0.950 . S
C1487 C1484 1.387 . S
C1488 C1489 1.387 . S
C1488 H1492 0.950 . S
C1488 C1497 1.390 . S
C1489 C1488 1.387 . S
C1489 C1491 1.387 . S
H1490 C1497 0.950 . S
C1491 C1489 1.387 . S
C1491 C1493 1.390 . S
C1491 H1495 0.950 . S
H1492 C1488 0.950 . S
C1493 C1491 1.390 . S
C1493 C1494 1.387 . S
C1493 H1496 0.950 . S
C1494 C1493 1.387 . S
C1494 C1497 1.387 . S
H1495 C1491 0.950 . S
H1496 C1493 0.950 . S
C1497 C1488 1.390 . S
C1497 H1490 0.950 . S
C1497 C1494 1.387 . S
C1498 C1499 1.387 . S
C1498 H1502 0.931 1_554 S
C1498 C1507 1.390 . S
C1499 C1498 1.387 . S
C1499 C1501 1.387 . S
H1500 C1507 0.950 . S
C1501 C1499 1.387 . S
C1501 C1503 1.390 . S
C1501 H1505 0.950 . S
H1502 C1498 0.931 1_556 S
C1503 C1501 1.390 . S
C1503 C1504 1.387 . S
C1503 H1506 0.950 . S
C1504 C1503 1.387 . S
C1504 C1507 1.387 . S
H1505 C1501 0.950 . S
H1506 C1503 0.950 . S
C1507 C1498 1.390 . S
C1507 H1500 0.950 . S
C1507 C1504 1.387 . S
C1508 C1509 1.387 . S
C1508 H1512 0.950 . S
C1508 C1517 1.390 . S
C1509 C1508 1.387 . S
C1509 C1511 1.387 . S
H1510 C1517 0.950 . S
C1511 C1509 1.387 . S
C1511 C1513 1.390 . S
C1511 H1515 0.950 . S
H1512 C1508 0.950 . S
C1513 C1511 1.390 . S
C1513 C1514 1.387 . S
C1513 H1516 0.950 . S
C1514 C1513 1.387 . S
C1514 C1517 1.387 . S
H1515 C1511 0.950 . S
H1516 C1513 0.950 . S
C1517 C1508 1.390 . S
C1517 H1510 0.950 . S
C1517 C1514 1.387 . S
C1518 C1519 1.387 . S
C1518 H1522 0.950 . S
C1518 C1527 1.390 . S
C1519 C1518 1.387 . S
C1519 C1521 1.387 . S
H1520 C1527 0.950 . S
C1521 C1519 1.387 . S
C1521 C1523 1.390 . S
C1521 H1525 0.950 . S
H1522 C1518 0.950 . S
C1523 C1521 1.390 . S
C1523 C1524 1.387 . S
C1523 H1526 0.950 . S
C1524 C1523 1.387 . S
C1524 C1527 1.387 . S
H1525 C1521 0.950 . S
H1526 C1523 0.950 . S
C1527 C1518 1.390 . S
C1527 H1520 0.950 . S
C1527 C1524 1.387 . S
C1528 C1529 1.387 . S
C1528 H1532 0.950 . S
C1528 C1537 1.390 . S
C1529 C1528 1.387 . S
C1529 C1531 1.387 . S
H1530 C1537 0.950 . S
C1531 C1529 1.387 . S
C1531 C1533 1.390 . S
C1531 H1535 0.950 . S
H1532 C1528 0.950 . S
C1533 C1531 1.390 . S
C1533 C1534 1.387 . S
C1533 H1536 0.950 . S
C1534 C1533 1.387 . S
C1534 C1537 1.387 . S
H1535 C1531 0.950 . S
H1536 C1533 0.950 . S
C1537 C1528 1.390 . S
C1537 H1530 0.950 . S
C1537 C1534 1.387 . S
C1538 C1539 1.387 . S
C1538 H1542 0.950 1_556 S
C1538 C1547 1.390 . S
C1539 C1538 1.387 . S
C1539 C1541 1.387 . S
H1540 C1547 0.950 . S
C1541 C1539 1.387 . S
C1541 C1543 1.390 . S
C1541 H1545 0.950 . S
H1542 C1538 0.950 1_554 S
C1543 C1541 1.390 . S
C1543 C1544 1.387 . S
C1543 H1546 0.950 . S
C1544 C1543 1.387 . S
C1544 C1547 1.387 . S
H1545 C1541 0.950 . S
H1546 C1543 0.950 . S
C1547 C1538 1.390 . S
C1547 H1540 0.950 . S
C1547 C1544 1.387 . S
C1548 C1549 1.387 . S
C1548 H1552 0.950 . S
C1548 C1557 1.390 . S
C1549 C1548 1.387 . S
C1549 C1551 1.387 . S
H1550 C1557 0.950 . S
C1551 C1549 1.387 . S
C1551 C1553 1.390 . S
C1551 H1555 0.950 . S
H1552 C1548 0.950 . S
C1553 C1551 1.390 . S
C1553 C1554 1.387 . S
C1553 H1556 0.950 . S
C1554 C1553 1.387 . S
C1554 C1557 1.387 . S
H1555 C1551 0.950 . S
H1556 C1553 0.950 . S
C1557 C1548 1.390 . S
C1557 H1550 0.950 . S
C1557 C1554 1.387 . S
C1558 C1559 1.387 . S
C1558 H1562 0.950 . S
C1558 C1567 1.390 . S
C1559 C1558 1.387 . S
C1559 C1561 1.387 . S
H1560 C1567 0.950 . S
C1561 C1559 1.387 . S
C1561 C1563 1.390 . S
C1561 H1565 0.950 . S
H1562 C1558 0.950 . S
C1563 C1561 1.390 . S
C1563 C1564 1.387 . S
C1563 H1566 0.950 . S
C1564 C1563 1.387 . S
C1564 C1567 1.387 . S
H1565 C1561 0.950 . S
H1566 C1563 0.950 . S
C1567 C1558 1.390 . S
C1567 H1560 0.950 . S
C1567 C1564 1.387 . S
C1568 C1569 1.387 . S
C1568 H1572 0.950 . S
C1568 C1577 1.390 . S
C1569 C1568 1.387 . S
C1569 C1571 1.387 . S
H1570 C1577 0.950 . S
C1571 C1569 1.387 . S
C1571 C1573 1.390 . S
C1571 H1575 0.950 . S
H1572 C1568 0.950 . S
C1573 C1571 1.390 . S
C1573 C1574 1.387 . S
C1573 H1576 0.950 . S
C1574 C1573 1.387 . S
C1574 C1577 1.387 . S
H1575 C1571 0.950 . S
H1576 C1573 0.950 . S
C1577 C1568 1.390 . S
C1577 H1570 0.950 . S
C1577 C1574 1.387 . S
C1578 C1579 1.387 . S
C1578 H1582 0.950 . S
C1578 C1587 1.390 . S
C1579 C1578 1.387 . S
C1579 C1581 1.387 . S
H1580 C1587 0.950 . S
C1581 C1579 1.387 . S
C1581 C1583 1.390 . S
C1581 H1585 0.950 . S
H1582 C1578 0.950 . S
C1583 C1581 1.390 . S
C1583 C1584 1.387 . S
C1583 H1586 0.950 . S
C1584 C1583 1.387 . S
C1584 C1587 1.387 . S
H1585 C1581 0.950 . S
H1586 C1583 0.950 . S
C1587 C1578 1.390 . S
C1587 H1580 0.950 . S
C1587 C1584 1.387 . S
C1588 C1589 1.387 . S
C1588 H1592 0.950 . S
C1588 C1597 1.390 . S
C1589 C1588 1.387 . S
C1589 C1591 1.387 . S
H1590 C1597 0.950 . S
C1591 C1589 1.387 . S
C1591 C1593 1.390 . S
C1591 H1595 0.950 . S
H1592 C1588 0.950 . S
C1593 C1591 1.390 . S
C1593 C1594 1.387 . S
C1593 H1596 0.950 . S
C1594 C1593 1.387 . S
C1594 C1597 1.387 . S
H1595 C1591 0.950 . S
H1596 C1593 0.950 . S
C1597 C1588 1.390 . S
C1597 H1590 0.950 . S
C1597 C1594 1.387 . S
C1598 C1599 1.387 . S
C1598 H1602 0.950 . S
C1598 C1607 1.390 . S
C1599 C1598 1.387 . S
C1599 C1601 1.387 . S
H1600 C1607 0.950 . S
C1601 C1599 1.387 . S
C1601 C1603 1.390 . S
C1601 H1605 0.950 . S
H1602 C1598 0.950 . S
C1603 C1601 1.390 . S
C1603 C1604 1.387 . S
C1603 H1606 0.950 . S
C1604 C1603 1.387 . S
C1604 C1607 1.387 . S
H1605 C1601 0.950 . S
H1606 C1603 0.950 . S
C1607 C1598 1.390 . S
C1607 H1600 0.950 . S
C1607 C1604 1.387 . S
C1608 C1609 1.387 . S
C1608 H1612 0.950 . S
C1608 C1617 1.390 . S
C1609 C1608 1.387 . S
C1609 C1611 1.387 . S
H1610 C1617 0.950 . S
C1611 C1609 1.387 . S
C1611 C1613 1.390 . S
C1611 H1615 0.950 . S
H1612 C1608 0.950 . S
C1613 C1611 1.390 . S
C1613 C1614 1.387 . S
C1613 H1616 0.950 . S
C1614 C1613 1.387 . S
C1614 C1617 1.387 . S
H1615 C1611 0.950 . S
H1616 C1613 0.950 . S
C1617 C1608 1.390 . S
C1617 H1610 0.950 . S
C1617 C1614 1.387 . S
C1618 C1619 1.387 . S
C1618 H1622 0.950 . S
C1618 C1627 1.390 . S
C1619 C1618 1.387 . S
C1619 C1621 1.387 . S
H1620 C1627 0.950 . S
C1621 C1619 1.387 . S
C1621 C1623 1.390 . S
C1621 H1625 0.950 . S
H1622 C1618 0.950 . S
C1623 C1621 1.390 . S
C1623 C1624 1.387 . S
C1623 H1626 0.950 . S
C1624 C1623 1.387 . S
C1624 C1627 1.387 . S
H1625 C1621 0.950 . S
H1626 C1623 0.950 . S
C1627 C1618 1.390 . S
C1627 H1620 0.950 . S
C1627 C1624 1.387 . S
C1628 C1629 1.387 . S
C1628 H1632 0.950 . S
C1628 C1637 1.390 . S
C1629 C1628 1.387 . S
C1629 C1631 1.387 . S
H1630 C1637 0.950 . S
C1631 C1629 1.387 . S
C1631 C1633 1.390 . S
C1631 H1635 0.950 . S
H1632 C1628 0.950 . S
C1633 C1631 1.390 . S
C1633 C1634 1.387 . S
C1633 H1636 0.950 . S
C1634 C1633 1.387 . S
C1634 C1637 1.387 . S
H1635 C1631 0.950 . S
H1636 C1633 0.950 . S
C1637 C1628 1.390 . S
C1637 H1630 0.950 . S
C1637 C1634 1.387 . S
C1638 C1639 1.387 . S
C1638 H1642 0.950 . S
C1638 C1647 1.390 . S
C1639 C1638 1.387 . S
C1639 C1641 1.387 . S
H1640 C1647 0.950 1_655 S
C1641 C1639 1.387 . S
C1641 C1643 1.390 . S
C1641 H1645 0.950 . S
H1642 C1638 0.950 . S
C1643 C1641 1.390 . S
C1643 C1644 1.387 1_455 S
C1643 H1646 0.950 . S
C1644 C1643 1.387 1_655 S
C1644 C1647 1.387 1_655 S
H1645 C1641 0.950 . S
H1646 C1643 0.950 . S
C1647 C1638 1.390 . S
C1647 H1640 0.950 1_455 S
C1647 C1644 1.387 1_455 S
C694 C343 1.304 . S
C689 C7 1.387 . S
C699 C23 1.347 . S
C704 C363 1.249 . S
C714 C384 1.188 . S
C709 C36 1.270 . S
C724 C411 1.240 . S
C719 C45 1.332 . S
C734 C367 1.245 . S
C729 C59 1.332 . S
C739 C78 1.272 . S
C744 C387 1.191 . S
C754 C407 1.254 . S
C749 C93 1.346 . S
C759 C105 1.387 . S
C764 C340 1.304 . S
C769 C115 1.404 . S
C774 C345 1.307 . S
C784 C362 1.239 . S
C779 C133 1.314 . S
C794 C386 1.225 . S
C789 C148 1.309 . S
C804 C410 1.213 . S
C799 C163 1.308 . S
C814 C366 1.217 . S
C809 C121 1.307 . S
C824 C389 1.223 . S
C819 C134 1.308 . S
C829 C147 1.314 . S
C834 C406 1.239 . S
C844 C342 1.308 . S
C839 C157 1.404 . S
C849 C175 1.374 . S
C854 C344 1.293 . S
C859 C191 1.360 . S
C864 C431 1.269 . S
C874 C451 1.223 . S
C869 C199 1.313 . S
C884 C474 1.209 . S
C879 C218 1.286 . S
C889 C231 1.373 . S
C894 C341 1.292 . S
C899 C241 1.313 . S
C904 C385 1.221 . S
C914 C475 1.264 . S
C909 C205 1.361 . S
C924 C430 1.209 . S
C919 C260 1.287 . S
C934 C498 1.148 . S
C929 C22 1.196 . S
C944 C519 1.264 . S
C939 C9 1.297 . S
C949 C49 1.327 . S
C954 C538 1.267 . S
C959 C31 1.264 . S
C964 C563 1.207 . S
C969 C101 1.264 . S
C974 C518 1.203 . S
C979 C91 1.326 . S
C984 C543 1.269 . S
C994 C562 1.261 . S
C989 C79 1.298 . S
C999 C64 1.196 . S
C1004 C495 1.149 . S
C1009 C274 1.196 . S
C1014 C499 1.151 . S
C1024 C520 1.203 . S
C1019 C213 1.264 . S
C1034 C539 1.273 . S
C1029 C233 1.313 . S
C1044 C564 1.252 . S
C1039 C189 1.307 . S
C1054 C516 1.256 . S
C1049 C273 1.307 . S
C1064 C541 1.276 . S
C1059 C219 1.311 . S
C1074 C560 1.206 . S
C1069 C227 1.264 . S
C1079 C190 1.197 . S
C1084 C496 1.147 . S
C1094 C497 1.165 . S
C1089 C289 1.202 . S
C1099 C162 1.288 . S
C1104 C583 1.242 . S
C1114 C608 1.215 . S
C1109 C301 1.275 . S
C1119 C129 1.311 . S
C1124 C627 1.256 . S
C1134 C494 1.169 . S
C1129 C149 1.199 . S
C1144 C540 1.215 . S
C1139 C315 1.275 . S
C1154 C631 1.239 . S
C1149 C302 1.289 . S
C1159 C325 1.309 . S
C1164 C587 1.259 . S
C1169 C35 1.389 . S
C1174 C651 1.309 . S
C1179 C51 1.346 . S
C1184 C429 1.254 . S
C1194 C453 1.188 . S
C1189 C8 1.271 . S
C1199 C17 1.332 . S
C1204 C477 1.240 . S
C1209 C87 1.332 . S
C1214 C433 1.240 . S
C1219 C106 1.273 . S
C1224 C450 1.192 . S
C1234 C473 1.254 . S
C1229 C65 1.345 . S
C1244 C648 1.309 . S
C1239 C77 1.389 . S
C1254 C653 1.305 . S
C1249 C297 1.405 . S
C1264 C428 1.240 . S
C1259 C287 1.314 . S
C1274 C455 1.228 . S
C1269 C330 1.310 . S
C1279 C317 1.308 . S
C1284 C476 1.213 . S
C1294 C432 1.215 . S
C1289 C303 1.309 . S
C1299 C288 1.308 . S
C1304 C452 1.223 . S
C1314 C472 1.243 . S
C1309 C329 1.316 . S
C1319 C311 1.403 . S
C1324 C650 1.303 . S
C1334 C652 1.291 . S
C1329 C217 1.372 . S
C1339 C247 1.361 . S
C1344 C365 1.269 . S
C1354 C388 1.219 . S
C1349 C269 1.313 . S
C1359 C176 1.285 . S
C1364 C408 1.204 . S
C1374 C649 1.292 . S
C1369 C259 1.373 . S
C1384 C454 1.222 . S
C1379 C185 1.311 . S
C1394 C409 1.268 . S
C1389 C275 1.359 . S
C1404 C364 1.205 . S
C1399 C232 1.286 . S
C1409 C50 1.196 . S
C1414 C675 1.148 . S
C1419 C37 1.297 . S
C1424 C585 1.261 . S
C1429 C21 1.327 . S
C1434 C604 1.267 . S
C1444 C629 1.205 . S
C1439 C3 1.263 . S
C1454 C584 1.203 . S
C1449 C73 1.264 . S
C1459 C63 1.326 . S
C1464 C609 1.269 . S
C1474 C628 1.261 . S
C1469 C107 1.298 . S
C1479 C92 1.196 . S
C1484 C670 1.147 . S
C1494 C673 1.150 . S
C1489 C204 1.196 . S
C1499 C171 1.265 . S
C1504 C586 1.203 . S
C1509 C261 1.313 . S
C1514 C605 1.273 . S
C1524 C630 1.256 . S
C1519 C245 1.307 . S
C1534 C582 1.253 . S
C1529 C203 1.307 . S
C1539 C177 1.313 . S
C1544 C607 1.272 . S
C1554 C626 1.207 . S
C1549 C255 1.264 . S
C1564 C671 1.151 . S
C1559 C246 1.196 . S
C1574 C674 1.168 . S
C1569 C135 1.199 . S
C1584 C517 1.241 . S
C1579 C316 1.288 . S
C1589 C119 1.275 . S
C1594 C542 1.216 . S
C1599 C283 1.310 . S
C1604 C561 1.259 . S
C1614 C672 1.169 . S
C1609 C331 1.200 . S
C1624 C606 1.216 . S
C1619 C161 1.276 . S
C1634 C565 1.239 . S
C1629 C120 1.289 . S
C1644 C521 1.258 . S
C1639 C143 1.309 . S
