# Generated by pormake.
# Topology zzz, (3,6)-cn, num edge types: 1
# Building blocks:
#     Node 0, Type 0, BuildingBlock: OLANEW_clean_sbu_2, # of connection points: 3
#     Node 1, Type 0, BuildingBlock: OLANEW_clean_sbu_2, # of connection points: 3
#     Node 2, Type 0, BuildingBlock: OLANEW_clean_sbu_2, # of connection points: 3
#     Node 3, Type 0, BuildingBlock: OLANEW_clean_sbu_2, # of connection points: 3
#     Node 4, Type 0, BuildingBlock: OLANEW_clean_sbu_2, # of connection points: 3
#     Node 5, Type 0, BuildingBlock: OLANEW_clean_sbu_2, # of connection points: 3
#     Node 6, Type 0, BuildingBlock: OLANEW_clean_sbu_2, # of connection points: 3
#     Node 7, Type 0, BuildingBlock: OLANEW_clean_sbu_2, # of connection points: 3
#     Node 8, Type 1, BuildingBlock: PAMTUU_clean_sbu_0, # of connection points: 6
#     Node 9, Type 1, BuildingBlock: PAMTUU_clean_sbu_0, # of connection points: 6
#     Node 10, Type 1, BuildingBlock: PAMTUU_clean_sbu_0, # of connection points: 6
#     Node 11, Type 1, BuildingBlock: PAMTUU_clean_sbu_0, # of connection points: 6
#     Edge 12, Type (0, 1), BuildingBlock: EZIPEK_clean_linker_0, # of connection points: 2
#     Edge 13, Type (0, 1), BuildingBlock: EZIPEK_clean_linker_0, # of connection points: 2
#     Edge 14, Type (0, 1), BuildingBlock: EZIPEK_clean_linker_0, # of connection points: 2
#     Edge 15, Type (0, 1), BuildingBlock: EZIPEK_clean_linker_0, # of connection points: 2
#     Edge 16, Type (0, 1), BuildingBlock: EZIPEK_clean_linker_0, # of connection points: 2
#     Edge 17, Type (0, 1), BuildingBlock: EZIPEK_clean_linker_0, # of connection points: 2
#     Edge 18, Type (0, 1), BuildingBlock: EZIPEK_clean_linker_0, # of connection points: 2
#     Edge 19, Type (0, 1), BuildingBlock: EZIPEK_clean_linker_0, # of connection points: 2
#     Edge 20, Type (0, 1), BuildingBlock: EZIPEK_clean_linker_0, # of connection points: 2
#     Edge 21, Type (0, 1), BuildingBlock: EZIPEK_clean_linker_0, # of connection points: 2
#     Edge 22, Type (0, 1), BuildingBlock: EZIPEK_clean_linker_0, # of connection points: 2
#     Edge 23, Type (0, 1), BuildingBlock: EZIPEK_clean_linker_0, # of connection points: 2
#     Edge 24, Type (0, 1), BuildingBlock: EZIPEK_clean_linker_0, # of connection points: 2
#     Edge 25, Type (0, 1), BuildingBlock: EZIPEK_clean_linker_0, # of connection points: 2
#     Edge 26, Type (0, 1), BuildingBlock: EZIPEK_clean_linker_0, # of connection points: 2
#     Edge 27, Type (0, 1), BuildingBlock: EZIPEK_clean_linker_0, # of connection points: 2
#     Edge 28, Type (0, 1), BuildingBlock: EZIPEK_clean_linker_0, # of connection points: 2
#     Edge 29, Type (0, 1), BuildingBlock: EZIPEK_clean_linker_0, # of connection points: 2
#     Edge 30, Type (0, 1), BuildingBlock: EZIPEK_clean_linker_0, # of connection points: 2
#     Edge 31, Type (0, 1), BuildingBlock: EZIPEK_clean_linker_0, # of connection points: 2
#     Edge 32, Type (0, 1), BuildingBlock: EZIPEK_clean_linker_0, # of connection points: 2
#     Edge 33, Type (0, 1), BuildingBlock: EZIPEK_clean_linker_0, # of connection points: 2
#     Edge 34, Type (0, 1), BuildingBlock: EZIPEK_clean_linker_0, # of connection points: 2
#     Edge 35, Type (0, 1), BuildingBlock: EZIPEK_clean_linker_0, # of connection points: 2
# Relax obj value: 0.240
# Max RMSD: 0.253
# Mean RMSD: 0.126
data_MOF--net-zzz--node1-OLANEW_clean_sbu_2--node2-PAMTUU_clean_sbu_0--edge1-EZIPEK_clean_linker_0
_symmetry_space_group_name_H-M    P1
_symmetry_Int_Tables_number       1
_symmetry_cell_setting            triclinic
loop_
_symmetry_equiv_pos_as_xyz
'x, y, z'
_cell_length_a     41.639461
_cell_length_b     43.346524
_cell_length_c     13.711333
_cell_angle_alpha  103.63559
_cell_angle_beta   90.346284
_cell_angle_gamma 89.607187
loop_
_atom_site_label
_atom_site_type_symbol
_atom_site_fract_x
_atom_site_fract_y
_atom_site_fract_z
_atom_type_partial_charge
O0 O 0.75727 0.55455 0.30197 0.0
Cd1 Cd 0.71064 0.58804 0.34293 0.0
O2 O 0.74457 0.5342 0.42865 0.0
Cd3 Cd 0.75723 0.50284 0.52508 0.0
O4 O 0.79733 0.48953 0.60773 0.0
C5 C 0.80394 0.50626 0.69454 0.0
O6 O 0.7841 0.52891 0.73855 0.0
C7 C 0.76311 0.53518 0.35618 0.0
C8 C 0.65838 0.55729 0.23979 0.0
O9 O 0.67639 0.5749 0.20052 0.0
O10 O 0.66485 0.55424 0.3285 0.0
O11 O 0.97147 0.74657 0.30101 0.0
Cd12 Cd 0.95237 0.70547 0.3805 0.0
O13 O 0.0174 0.74452 0.37875 0.0
Cd14 Cd 0.06105 0.76979 0.43523 0.0
O15 O 0.03973 0.81482 0.50979 0.0
C16 C 0.04206 0.82735 0.60283 0.0
O17 O 0.06097 0.81436 0.65917 0.0
C18 C -0.00031 0.75696 0.32243 0.0
C19 C 0.96636 0.64531 0.26596 0.0
O20 O 0.93991 0.65927 0.25388 0.0
O21 O 0.98624 0.65965 0.3329 0.0
O22 O 0.77521 0.94944 0.37425 0.0
Cd23 Cd 0.82541 0.94651 0.46351 0.0
O24 O 0.77184 0.99872 0.46204 0.0
Cd25 Cd 0.74122 0.04059 0.50096 0.0
O26 O 0.69112 0.04527 0.54435 0.0
C27 C 0.68515 0.0361 0.62364 0.0
O28 O 0.70908 0.02771 0.67495 0.0
C29 C 0.76021 0.97571 0.39657 0.0
C30 C 0.87337 0.96632 0.35404 0.0
O31 O 0.86547 0.93702 0.3376 0.0
O32 O 0.85956 0.98631 0.42558 0.0
O33 O 0.54424 0.71588 0.82435 0.0
Cd34 Cd 0.57677 0.7643 0.85145 0.0
O35 O 0.55609 0.72352 0.98379 0.0
Cd36 Cd 0.55975 0.70437 0.11582 0.0
O37 O 0.5593 0.66978 0.20659 0.0
C38 C 0.55709 0.67719 0.3015 0.0
O39 O 0.55529 0.70715 0.34976 0.0
C40 C 0.54388 0.70613 0.90478 0.0
C41 C 0.55096 0.82301 0.84138 0.0
O42 O 0.56713 0.80637 0.76806 0.0
O43 O 0.54532 0.81101 0.9165 0.0
O44 O 0.26139 0.55215 0.39105 0.0
Cd45 Cd 0.31532 0.5578 0.33384 0.0
O46 O 0.25952 0.50753 0.27574 0.0
Cd47 Cd 0.23181 0.46729 0.19561 0.0
O48 O 0.18564 0.45803 0.12227 0.0
C49 C 0.17989 0.43812 0.04032 0.0
O50 O 0.20275 0.41908 0.99516 0.0
C51 C 0.24627 0.52741 0.34746 0.0
C52 C 0.35603 0.55208 0.48812 0.0
O53 O 0.34645 0.57945 0.47935 0.0
O54 O 0.34706 0.52737 0.42261 0.0
O55 O 0.96254 0.21086 0.32236 0.0
Cd56 Cd 0.97838 0.25126 0.23362 0.0
O57 O 0.00571 0.21594 0.41913 0.0
Cd58 Cd 0.0326 0.23635 0.31469 0.0
O59 O 0.04038 0.19471 0.19517 0.0
C60 C 0.06102 0.17488 0.21178 0.0
O61 O 0.08049 0.18306 0.28921 0.0
C62 C 0.97796 0.20439 0.3955 0.0
C63 C 0.98368 0.30856 0.37522 0.0
O64 O 0.95643 0.29948 0.33514 0.0
O65 O 0.00849 0.29152 0.34524 0.0
O66 O 0.21374 0.95958 0.31719 0.0
Cd67 Cd 0.15928 0.9567 0.25085 0.0
O68 O 0.22243 0.99803 0.24173 0.0
Cd69 Cd 0.25717 0.02934 0.19861 0.0
O70 O 0.30449 0.0349 0.1406 0.0
C71 C 0.3203 0.00923 0.1122 0.0
O72 O 0.30743 0.98232 0.11979 0.0
C73 C 0.23249 0.98004 0.29643 0.0
C74 C 0.11793 0.97586 0.4106 0.0
O75 O 0.12635 0.9467 0.3807 0.0
O76 O 0.12855 0.99609 0.36422 0.0
O77 O 0.45784 0.31495 0.97522 0.0
Cd78 Cd 0.42634 0.26797 0.98424 0.0
O79 O 0.43464 0.30884 0.82843 0.0
Cd80 Cd 0.42097 0.32706 0.69995 0.0
O81 O 0.41688 0.35807 0.59793 0.0
C82 C 0.44135 0.36085 0.54608 0.0
O83 O 0.46675 0.343 0.54948 0.0
C84 C 0.45213 0.32527 0.89742 0.0
C85 C 0.45228 0.20688 0.93388 0.0
O86 O 0.44223 0.22033 0.86547 0.0
O87 O 0.45195 0.22293 0.02529 0.0
Tb88 Tb 0.97174 0.0125 0.86208 0.0
Tb89 Tb 0.02804 0.97566 0.96363 0.0
C90 C 0.96103 0.99215 0.06054 0.0
C91 C 0.93321 0.06765 0.73214 0.0
C92 C 0.94167 0.11383 0.62158 0.0
C93 C 0.91278 0.09691 0.614 0.0
C94 C 0.9086 0.07385 0.66903 0.0
C95 C 0.9619 0.08493 0.74062 0.0
C96 C 0.96607 0.10794 0.68585 0.0
C97 C 0.93004 0.04172 0.7834 0.0
O98 O 0.99784 0.04827 0.97215 0.0
O99 O 0.0464 0.02322 0.9842 0.0
O100 O 0.04451 0.97626 0.81343 0.0
O101 O 0.01531 0.01861 0.78363 0.0
O102 O 0.05281 0.96941 0.09215 0.0
O103 O 0.06084 0.93785 0.9473 0.0
O104 O 0.99029 0.94251 0.90306 0.0
O105 O 0.97617 0.96396 0.77413 0.0
O106 O 0.94839 0.99188 0.97252 0.0
O107 O 0.99205 0.9948 0.07588 0.0
C108 C 0.02836 0.04879 0.99819 0.0
O109 O 0.94332 0.01506 0.73721 0.0
O110 O 0.93693 0.04869 0.87894 0.0
C111 C 0.03845 0.99746 0.76081 0.0
C112 C 0.05807 0.91487 0.08739 0.0
C113 C 0.04186 0.86459 0.17565 0.0
C114 C 0.06114 0.88958 0.22807 0.0
C115 C 0.06919 0.91456 0.18405 0.0
C116 C 0.03895 0.88963 0.0351 0.0
C117 C 0.03098 0.86472 0.07883 0.0
C118 C 0.06485 0.94229 0.04403 0.0
C119 C 0.97998 0.93891 0.81082 0.0
H120 H 0.89381 0.10119 0.56433 0.0
H121 H 0.88646 0.06047 0.66095 0.0
H122 H 0.98129 0.08018 0.78821 0.0
H123 H 0.98852 0.12076 0.69213 0.0
H124 H 0.06973 0.88981 0.30298 0.0
H125 H 0.08379 0.93381 0.22568 0.0
H126 H 0.02986 0.88927 0.96075 0.0
H127 H 0.0161 0.8456 0.03738 0.0
Tb128 Tb 0.48519 0.00284 0.73979 0.0
Tb129 Tb 0.52029 0.02319 0.96409 0.0
C130 C 0.51705 0.95345 0.84381 0.0
C131 C 0.42511 0.98884 0.53082 0.0
C132 C 0.3628 0.98895 0.45079 0.0
C133 C 0.3896 0.98519 0.38736 0.0
C134 C 0.42058 0.98505 0.42722 0.0
C135 C 0.39835 0.99365 0.59463 0.0
C136 C 0.36737 0.99359 0.55476 0.0
C137 C 0.45759 0.98609 0.5706 0.0
O138 O 0.44623 0.01555 0.84506 0.0
O139 O 0.47185 0.00766 0.98671 0.0
O140 O 0.49309 0.0649 0.95188 0.0
O141 O 0.48795 0.05462 0.77932 0.0
O142 O 0.52715 0.0135 0.10558 0.0
O143 O 0.5513 0.05268 0.06663 0.0
O144 O 0.55359 0.03408 0.85589 0.0
O145 O 0.53643 0.99903 0.71192 0.0
O146 O 0.49109 0.96069 0.7992 0.0
O147 O 0.53634 0.9756 0.89258 0.0
C148 C 0.44565 0.01133 0.93662 0.0
O149 O 0.47374 0.01228 0.59963 0.0
O150 O 0.46027 0.96828 0.6345 0.0
C151 C 0.48695 0.07406 0.86896 0.0
C152 C 0.57952 0.0246 0.16768 0.0
C153 C 0.63814 0.005 0.23656 0.0
C154 C 0.62242 0.03225 0.29162 0.0
C155 C 0.59322 0.04198 0.25735 0.0
C156 C 0.59521 0.99723 0.11279 0.0
C157 C 0.62433 0.98743 0.14726 0.0
C158 C 0.54903 0.03523 0.1317 0.0
C159 C 0.55815 0.018 0.76324 0.0
H160 H 0.38644 0.98169 0.307 0.0
H161 H 0.44097 0.98136 0.377 0.0
H162 H 0.40138 0.99676 0.67489 0.0
H163 H 0.34692 0.9966 0.60468 0.0
H164 H 0.63287 0.04603 0.36067 0.0
H165 H 0.58142 0.06313 0.30054 0.0
H166 H 0.585 0.98354 0.04325 0.0
H167 H 0.63627 0.9664 0.10392 0.0
Tb168 Tb 0.47076 0.52373 0.99199 0.0
Tb169 Tb 0.5173 0.50553 0.79336 0.0
C170 C 0.44524 0.53173 0.78774 0.0
C171 C 0.43966 0.50784 0.22154 0.0
C172 C 0.44319 0.46086 0.3322 0.0
C173 C 0.41334 0.46994 0.29922 0.0
C174 C 0.41157 0.49349 0.245 0.0
C175 C 0.46943 0.49918 0.25697 0.0
C176 C 0.47107 0.47639 0.3137 0.0
C177 C 0.43832 0.52811 0.14887 0.0
O178 O 0.46173 0.47573 0.90207 0.0
O179 O 0.51227 0.46261 0.84795 0.0
O180 O 0.54968 0.51802 0.91999 0.0
O181 O 0.5165 0.50778 0.04117 0.0
O182 O 0.52104 0.48104 0.64161 0.0
O183 O 0.561 0.50727 0.71909 0.0
O184 O 0.51513 0.55699 0.82714 0.0
O185 O 0.48902 0.56998 0.98033 0.0
O186 O 0.44369 0.54271 0.885 0.0
O187 O 0.4681 0.51225 0.74406 0.0
C188 C 0.48429 0.45416 0.87546 0.0
O189 O 0.46369 0.54519 0.14438 0.0
O190 O 0.42788 0.51417 0.05958 0.0
C191 C 0.54488 0.51422 0.01057 0.0
C192 C 0.54722 0.51679 0.565 0.0
C193 C 0.54991 0.56804 0.47269 0.0
C194 C 0.57309 0.54362 0.45 0.0
C195 C 0.57202 0.51823 0.49741 0.0
C196 C 0.52336 0.5404 0.58265 0.0
C197 C 0.52512 0.56611 0.53902 0.0
C198 C 0.54818 0.49492 0.63197 0.0
C199 C 0.50524 0.5778 0.90747 0.0
H200 H 0.39151 0.45848 0.31442 0.0
H201 H 0.38844 0.49951 0.2177 0.0
H202 H 0.49166 0.50891 0.23722 0.0
H203 H 0.49423 0.46992 0.33968 0.0
H204 H 0.59251 0.54489 0.39891 0.0
H205 H 0.59096 0.5005 0.48411 0.0
H206 H 0.50414 0.53972 0.63443 0.0
H207 H 0.50728 0.5848 0.55732 0.0
Tb208 Tb 0.00675 0.49001 0.7768 0.0
Tb209 Tb 0.97935 0.44862 0.93626 0.0
C210 C 0.98717 0.52322 0.99609 0.0
C211 C 0.0598 0.5171 0.59696 0.0
C212 C 0.11921 0.51475 0.49944 0.0
C213 C 0.10094 0.54283 0.52029 0.0
C214 C 0.07142 0.544 0.56889 0.0
C215 C 0.07761 0.48868 0.57347 0.0
C216 C 0.10717 0.4875 0.52476 0.0
C217 C 0.03018 0.51964 0.65602 0.0
O218 O 0.0469 0.48027 0.86753 0.0
O219 O 0.0289 0.43471 0.9071 0.0
O220 O 0.97477 0.41828 0.78641 0.0
O221 O 0.01321 0.4404 0.704 0.0
O222 O 0.98476 0.43557 0.07379 0.0
O223 O 0.94602 0.41697 0.97251 0.0
O224 O 0.93825 0.47472 0.90103 0.0
O225 O 0.95497 0.48684 0.75389 0.0
O226 O 0.98745 0.52492 0.90199 0.0
O227 O 0.99012 0.49633 0.02385 0.0
C228 C 0.05201 0.45423 0.89872 0.0
O229 O 0.00985 0.49636 0.62998 0.0
O230 O 0.03407 0.52808 0.75302 0.0
C231 C 0.99329 0.41754 0.70878 0.0
C232 C 0.9332 0.43353 0.14205 0.0
C233 C 0.87824 0.461 0.24545 0.0
C234 C 0.88035 0.4279 0.20953 0.0
C235 C 0.90768 0.41424 0.15724 0.0
C236 C 0.93225 0.4662 0.18715 0.0
C237 C 0.90493 0.47982 0.23829 0.0
C238 C 0.95709 0.42122 0.06377 0.0
C239 C 0.93248 0.48369 0.81779 0.0
H240 H 0.11 0.56407 0.50145 0.0
H241 H 0.05801 0.56611 0.58675 0.0
H242 H 0.06897 0.46768 0.59463 0.0
H243 H 0.12106 0.46568 0.50936 0.0
H244 H 0.85995 0.41305 0.21509 0.0
H245 H 0.9079 0.38904 0.12262 0.0
H246 H 0.95164 0.48161 0.17675 0.0
H247 H 0.90379 0.50535 0.26644 0.0
C248 C 0.11203 0.99082 0.59672 0.0
C249 C 0.09771 0.98601 0.5003 0.0
C250 C 0.04412 0.99179 0.57452 0.0
C251 C 0.05845 0.99692 0.67155 0.0
N252 N 0.10541 0.00996 0.77634 0.0
N253 N 0.05135 0.98903 0.39705 0.0
C254 C 0.09228 0.99902 0.68304 0.0
C255 C 0.0641 0.98895 0.48917 0.0
N256 N 0.14445 0.98692 0.60566 0.0
N257 N 0.01166 0.98777 0.56302 0.0
H258 H 0.06538 0.98652 0.33284 0.0
H259 H 0.0274 0.99432 0.3856 0.0
H260 H 0.99598 0.98957 0.62285 0.0
H261 H 0.00036 0.98019 0.49363 0.0
H262 H 0.15578 0.98623 0.67302 0.0
H263 H 0.15995 0.98248 0.54434 0.0
H264 H 0.12971 0.01496 0.78886 0.0
H265 H 0.0915 0.01716 0.84079 0.0
C266 C 0.43864 0.14924 0.87055 0.0
C267 C 0.46196 0.17288 0.90918 0.0
C268 C 0.50265 0.13141 0.90768 0.0
C269 C 0.47868 0.10792 0.87739 0.0
N270 N 0.42343 0.09381 0.83784 0.0
N271 N 0.51566 0.18719 0.9689 0.0
C272 C 0.44664 0.11663 0.85969 0.0
C273 C 0.49385 0.16414 0.92898 0.0
N274 N 0.40865 0.15794 0.84521 0.0
N275 N 0.53403 0.12233 0.91266 0.0
H276 H 0.5109 0.21136 0.97828 0.0
H277 H 0.53799 0.18261 0.99707 0.0
H278 H 0.54127 0.09862 0.89838 0.0
H279 H 0.55328 0.13796 0.92344 0.0
H280 H 0.39212 0.1421 0.80402 0.0
H281 H 0.40052 0.18136 0.86051 0.0
H282 H 0.39894 0.09865 0.83712 0.0
H283 H 0.42839 0.06967 0.82645 0.0
C284 C 0.36659 0.53408 0.64635 0.0
C285 C 0.37749 0.54916 0.57128 0.0
C286 C 0.42852 0.56095 0.65942 0.0
C287 C 0.42011 0.54107 0.72344 0.0
N288 N 0.3811 0.50841 0.78005 0.0
N289 N 0.42042 0.57347 0.4988 0.0
C290 C 0.38884 0.52803 0.71906 0.0
C291 C 0.40878 0.56191 0.57612 0.0
N292 N 0.33496 0.52611 0.64899 0.0
N293 N 0.45462 0.58018 0.68084 0.0
H294 H 0.40696 0.57415 0.43493 0.0
H295 H 0.44442 0.57969 0.4942 0.0
H296 H 0.46945 0.58032 0.74207 0.0
H297 H 0.45907 0.59839 0.64494 0.0
H298 H 0.32484 0.51791 0.70732 0.0
H299 H 0.31812 0.53014 0.59665 0.0
H300 H 0.36015 0.49507 0.77223 0.0
H301 H 0.3967 0.5038 0.83478 0.0
C302 C 0.97789 0.36715 0.44622 0.0
C303 C 0.98621 0.33668 0.45985 0.0
C304 C 0.00235 0.3599 0.63363 0.0
C305 C 0.99139 0.38988 0.62269 0.0
N306 N 0.96412 0.42171 0.52472 0.0
N307 N 0.00075 0.30292 0.57068 0.0
C308 C 0.97792 0.39348 0.53057 0.0
C309 C 0.99699 0.33271 0.55467 0.0
N310 N 0.97109 0.37111 0.35221 0.0
N311 N 0.01879 0.35754 0.71823 0.0
H312 H 0.99676 0.28227 0.51525 0.0
H313 H 0.00497 0.29858 0.6412 0.0
H314 H 0.02317 0.37697 0.77787 0.0
H315 H 0.03053 0.33692 0.72568 0.0
H316 H 0.96822 0.39323 0.33579 0.0
H317 H 0.97096 0.35235 0.28857 0.0
H318 H 0.95073 0.42473 0.46321 0.0
H319 H 0.96376 0.4416 0.58475 0.0
C320 C 0.88946 0.99948 0.23444 0.0
C321 C 0.89747 0.97653 0.28958 0.0
C322 C 0.94711 0.9637 0.19424 0.0
C323 C 0.94014 0.98795 0.14321 0.0
N324 N 0.90928 0.03462 0.13514 0.0
N325 N 0.93809 0.94409 0.34282 0.0
C326 C 0.91271 0.00766 0.16964 0.0
C327 C 0.92766 0.96096 0.27611 0.0
N328 N 0.85922 0.01221 0.23927 0.0
N329 N 0.9709 0.94194 0.16109 0.0
H330 H 0.92467 0.94208 0.40503 0.0
H331 H 0.96145 0.9353 0.3426 0.0
H332 H 0.98499 0.94186 0.09857 0.0
H333 H 0.97434 0.92186 0.18931 0.0
H334 H 0.85127 0.02632 0.192 0.0
H335 H 0.8411 0.00649 0.28392 0.0
H336 H 0.89132 0.05144 0.16004 0.0
H337 H 0.92635 0.04186 0.08989 0.0
C338 C 0.5458 0.88082 0.9297 0.0
C339 C 0.5409 0.85612 0.8422 0.0
C340 C 0.52327 0.89588 0.75183 0.0
C341 C 0.52418 0.91971 0.84286 0.0
N342 N 0.52738 0.93198 0.02395 0.0
N343 N 0.51744 0.83982 0.67641 0.0
C344 C 0.53278 0.91135 0.93354 0.0
C345 C 0.5274 0.86352 0.75495 0.0
N346 N 0.56436 0.87591 0.00727 0.0
N347 N 0.52002 0.90403 0.66188 0.0
H348 H 0.51854 0.81588 0.67759 0.0
H349 H 0.50481 0.84417 0.61512 0.0
H350 H 0.51855 0.92749 0.65549 0.0
H351 H 0.52232 0.88765 0.59314 0.0
H352 H 0.57083 0.89423 0.06813 0.0
H353 H 0.57655 0.85472 0.00549 0.0
H354 H 0.53091 0.92581 0.09228 0.0
H355 H 0.51559 0.95364 0.0304 0.0
C356 C 0.60259 0.56579 0.18693 0.0
C357 C 0.62835 0.54459 0.18921 0.0
C358 C 0.59689 0.5009 0.08605 0.0
C359 C 0.57137 0.5226 0.0841 0.0
N360 N 0.54908 0.57548 0.14722 0.0
N361 N 0.64906 0.4911 0.15499 0.0
C362 C 0.57387 0.55453 0.13926 0.0
C363 C 0.62515 0.51172 0.14345 0.0
N364 N 0.60431 0.59739 0.23112 0.0
N365 N 0.59438 0.47037 0.03052 0.0
H366 H 0.67033 0.49858 0.19372 0.0
H367 H 0.64727 0.46654 0.13136 0.0
H368 H 0.57341 0.46171 0.99183 0.0
H369 H 0.61314 0.45397 0.01962 0.0
H370 H 0.62427 0.60848 0.27015 0.0
H371 H 0.62427 0.60848 0.27015 0.0
H372 H 0.526 0.56922 0.12108 0.0
H373 H 0.526 0.56922 0.12108 0.0
C374 C 0.95161 0.58824 0.20397 0.0
C375 C 0.97347 0.61319 0.20413 0.0
C376 C 0.00754 0.57667 0.08391 0.0
C377 C 0.98344 0.55315 0.07343 0.0
N378 N 0.93019 0.53804 0.11252 0.0
N379 N 0.02022 0.63262 0.13433 0.0
C380 C 0.9549 0.55921 0.13092 0.0
C381 C 0.00109 0.60779 0.14207 0.0
N382 N 0.92829 0.59191 0.27562 0.0
N383 N 0.0368 0.56907 0.03968 0.0
H384 H 0.01608 0.65592 0.17411 0.0
H385 H 0.03856 0.63063 0.08186 0.0
H386 H 0.04238 0.54639 0.99706 0.0
H387 H 0.05642 0.58427 0.05298 0.0
H388 H 0.91383 0.57335 0.28538 0.0
H389 H 0.92553 0.61263 0.33188 0.0
H390 H 0.90737 0.54313 0.14309 0.0
H391 H 0.93163 0.51633 0.06053 0.0
C392 C 0.95521 0.19241 0.55126 0.0
C393 C 0.96468 0.18163 0.4496 0.0
C394 C 0.95707 0.12631 0.45863 0.0
C395 C 0.94715 0.13713 0.55985 0.0
N396 N 0.93087 0.17978 0.6976 0.0
N397 N 0.96921 0.13918 0.30019 0.0
C398 C 0.94443 0.17004 0.60471 0.0
C399 C 0.96366 0.14883 0.4011 0.0
N400 N 0.95692 0.22402 0.59685 0.0
N401 N 0.96177 0.09454 0.41919 0.0
H402 H 0.97617 0.15454 0.25618 0.0
H403 H 0.96513 0.11617 0.25837 0.0
H404 H 0.95671 0.07724 0.4583 0.0
H405 H 0.97274 0.08529 0.35038 0.0
H406 H 0.95428 0.23312 0.6737 0.0
H407 H 0.96244 0.24128 0.55804 0.0
H408 H 0.92522 0.20331 0.73095 0.0
H409 H 0.92285 0.16394 0.73871 0.0
C410 C 0.27754 0.01177 0.39352 0.0
C411 C 0.2661 0.98249 0.33397 0.0
C412 C 0.31746 0.95701 0.35651 0.0
C413 C 0.32978 0.98688 0.40823 0.0
N414 N 0.32378 0.04374 0.45979 0.0
N415 N 0.27736 0.92895 0.24111 0.0
C416 C 0.31046 0.01461 0.42189 0.0
C417 C 0.28666 0.95553 0.31061 0.0
N418 N 0.25668 0.03645 0.42693 0.0
N419 N 0.33471 0.92989 0.35404 0.0
H420 H 0.25533 0.92718 0.20372 0.0
H421 H 0.29272 0.90989 0.21315 0.0
H422 H 0.35737 0.92989 0.38688 0.0
H423 H 0.3254 0.90721 0.32718 0.0
H424 H 0.263 0.05713 0.47922 0.0
H425 H 0.23222 0.03519 0.40974 0.0
H426 H 0.31179 0.06501 0.46121 0.0
H427 H 0.34786 0.04672 0.48121 0.0
C428 C 0.44833 0.38434 0.96175 0.0
C429 C 0.46191 0.3579 0.89306 0.0
C430 C 0.4891 0.39413 0.80687 0.0
C431 C 0.47804 0.42063 0.88197 0.0
N432 N 0.45439 0.43956 0.04555 0.0
N433 N 0.49933 0.33726 0.76016 0.0
C434 C 0.45964 0.4153 0.96348 0.0
C435 C 0.48364 0.3627 0.8187 0.0
N436 N 0.42412 0.38002 0.02414 0.0
N437 N 0.503 0.39873 0.72138 0.0
H438 H 0.49553 0.314 0.76612 0.0
H439 H 0.518 0.33939 0.71206 0.0
H440 H 0.50485 0.4209 0.70498 0.0
H441 H 0.50968 0.38032 0.66132 0.0
H442 H 0.41082 0.39863 0.06767 0.0
H443 H 0.4151 0.35776 0.02562 0.0
H444 H 0.44113 0.43727 0.10732 0.0
H445 H 0.46654 0.46104 0.05724 0.0
C446 C 0.18663 0.52105 0.31962 0.0
C447 C 0.21386 0.52147 0.38269 0.0
C448 C 0.17904 0.5169 0.52195 0.0
C449 C 0.15196 0.5148 0.45742 0.0
N450 N 0.13023 0.5081 0.2905 0.0
N451 N 0.23684 0.51257 0.53575 0.0
C452 C 0.15585 0.51474 0.35469 0.0
C453 C 0.21031 0.51723 0.48153 0.0
N454 N 0.18995 0.52812 0.22818 0.0
N455 N 0.17488 0.51983 0.62262 0.0
H456 H 0.26017 0.5123 0.50826 0.0
H457 H 0.23563 0.506 0.60395 0.0
H458 H 0.15241 0.51941 0.65544 0.0
H459 H 0.19347 0.52517 0.6749 0.0
H460 H 0.17056 0.53156 0.18352 0.0
H461 H 0.2121 0.53284 0.19987 0.0
H462 H 0.13221 0.50446 0.21293 0.0
H463 H 0.10738 0.50338 0.31404 0.0
C464 C 0.99685 0.81516 0.32639 0.0
C465 C 0.01115 0.78491 0.28802 0.0
C466 C 0.0493 0.8085 0.1911 0.0
C467 C 0.03285 0.83795 0.22107 0.0
N468 N 0.99003 0.86955 0.31225 0.0
N469 N 0.04857 0.75163 0.17624 0.0
C470 C 0.00642 0.84138 0.28774 0.0
C471 C 0.03689 0.78129 0.21877 0.0
N472 N 0.97519 0.81908 0.40302 0.0
N473 N 0.07717 0.80679 0.13779 0.0
H474 H 0.04015 0.73112 0.19466 0.0
H475 H 0.06479 0.74692 0.11705 0.0
H476 H 0.08681 0.82625 0.11586 0.0
H477 H 0.0922 0.78697 0.12258 0.0
H478 H 0.96664 0.8411 0.44225 0.0
H479 H 0.96779 0.80049 0.43381 0.0
H480 H 0.96821 0.87257 0.35005 0.0
H481 H 0.99751 0.88974 0.29015 0.0
C482 C 0.72806 0.00234 0.28463 0.0
C483 C 0.72949 0.98018 0.3462 0.0
C484 C 0.67101 0.97355 0.33353 0.0
C485 C 0.66968 0.99542 0.27121 0.0
N486 N 0.69656 0.02659 0.17268 0.0
N487 N 0.70378 0.94027 0.4146 0.0
C488 C 0.69815 0.00862 0.24234 0.0
C489 C 0.7014 0.96426 0.36562 0.0
N490 N 0.75534 0.01769 0.26771 0.0
N491 N 0.64309 0.9626 0.36492 0.0
H492 H 0.72525 0.93395 0.44434 0.0
H493 H 0.68488 0.92528 0.42089 0.0
H494 H 0.62045 0.96839 0.34124 0.0
H495 H 0.64203 0.94939 0.41905 0.0
H496 H 0.75544 0.03707 0.23514 0.0
H497 H 0.77811 0.01191 0.29026 0.0
H498 H 0.71659 0.03409 0.13979 0.0
H499 H 0.67499 0.03226 0.1418 0.0
C500 C 0.55712 0.65078 0.91797 0.0
C501 C 0.53355 0.67333 0.90485 0.0
C502 C 0.49075 0.63482 0.91005 0.0
C503 C 0.51445 0.61156 0.91615 0.0
N504 N 0.57014 0.5968 0.92542 0.0
N505 N 0.47844 0.68676 0.87976 0.0
C506 C 0.54761 0.61948 0.92034 0.0
C507 C 0.50048 0.66532 0.89852 0.0
N508 N 0.58874 0.65947 0.92923 0.0
N509 N 0.45896 0.62788 0.91638 0.0
H510 H 0.48459 0.70961 0.87474 0.0
H511 H 0.45441 0.6815 0.86288 0.0
H512 H 0.45089 0.60565 0.92156 0.0
H513 H 0.44052 0.64453 0.92303 0.0
H514 H 0.60665 0.64609 0.95312 0.0
H515 H 0.59721 0.68104 0.91882 0.0
H516 H 0.5946 0.59911 0.91421 0.0
H517 H 0.5643 0.57482 0.93824 0.0
C518 C 0.79279 0.49207 0.2379 0.0
C519 C 0.79112 0.51362 0.3331 0.0
C520 C 0.84354 0.49488 0.37805 0.0
C521 C 0.84709 0.47676 0.27815 0.0
N522 N 0.82744 0.46317 0.10681 0.0
N523 N 0.8171 0.5395 0.48831 0.0
C524 C 0.82228 0.4765 0.2063 0.0
C525 C 0.81697 0.51598 0.40225 0.0
N526 N 0.76607 0.4861 0.17816 0.0
N527 N 0.86536 0.49167 0.4499 0.0
H528 H 0.79807 0.5554 0.5093 0.0
H529 H 0.8373 0.54487 0.53416 0.0
H530 H 0.88494 0.47615 0.43454 0.0
H531 H 0.86239 0.50213 0.52593 0.0
H532 H 0.76517 0.46822 0.11238 0.0
H533 H 0.74386 0.49681 0.19934 0.0
H534 H 0.81138 0.46557 0.05045 0.0
H535 H 0.84901 0.45235 0.07898 0.0
C536 C 0.04885 0.1183 0.21149 0.0
C537 C 0.05786 0.14127 0.15793 0.0
C538 C 0.05028 0.1024 0.99817 0.0
C539 C 0.04206 0.07937 0.05191 0.0
N540 N 0.04045 0.06279 0.20783 0.0
N541 N 0.07367 0.15391 0.00332 0.0
C542 C 0.0439 0.08644 0.15803 0.0
C543 C 0.06056 0.13289 0.05197 0.0
N544 N 0.04256 0.12726 0.31214 0.0
N545 N 0.04763 0.09529 0.89591 0.0
H546 H 0.08175 0.1763 0.04107 0.0
H547 H 0.07914 0.14828 0.92717 0.0
H548 H 0.04226 0.0726 0.85381 0.0
H549 H 0.04922 0.11212 0.85312 0.0
H550 H 0.03249 0.11222 0.35252 0.0
H551 H 0.04423 0.15054 0.35441 0.0
H552 H 0.04506 0.06582 0.28423 0.0
H553 H 0.03571 0.0393 0.1715 0.0
C554 C 0.35856 0.99126 0.96981 0.0
C555 C 0.35259 0.00937 0.06854 0.0
C556 C 0.40717 0.03044 0.07892 0.0
C557 C 0.41407 0.01 0.98403 0.0
N558 N 0.39849 0.96549 0.85028 0.0
N559 N 0.3731 0.04069 0.22558 0.0
C560 C 0.39038 0.98881 0.93252 0.0
C561 C 0.37745 0.02739 0.12574 0.0
N562 N 0.3337 0.97743 0.91 0.0
N563 N 0.4282 0.0538 0.12235 0.0
H564 H 0.35179 0.03859 0.26297 0.0
H565 H 0.39164 0.05108 0.27325 0.0
H566 H 0.44988 0.05757 0.0896 0.0
H567 H 0.42272 0.07139 0.18621 0.0
H568 H 0.33634 0.9669 0.83388 0.0
H569 H 0.30986 0.97917 0.93361 0.0
H570 H 0.38281 0.94753 0.81586 0.0
H571 H 0.42185 0.96204 0.82267 0.0
C572 C 0.43672 0.4183 0.54395 0.0
C573 C 0.44259 0.38642 0.49152 0.0
C574 C 0.45492 0.40433 0.33937 0.0
C575 C 0.44497 0.43551 0.38833 0.0
N576 N 0.42335 0.47169 0.53419 0.0
N577 N 0.45228 0.34823 0.33526 0.0
C578 C 0.43499 0.44231 0.48964 0.0
C579 C 0.45049 0.37916 0.38811 0.0
N580 N 0.43441 0.42604 0.64637 0.0
N581 N 0.46908 0.39876 0.24723 0.0
H582 H 0.44852 0.32911 0.36781 0.0
H583 H 0.45442 0.34152 0.25747 0.0
H584 H 0.47338 0.41663 0.21006 0.0
H585 H 0.47953 0.37712 0.21219 0.0
H586 H 0.4341 0.44935 0.68914 0.0
H587 H 0.43589 0.40942 0.69007 0.0
H588 H 0.4107 0.47584 0.60104 0.0
H589 H 0.42409 0.49102 0.50113 0.0
C590 C 0.14244 0.44276 0.89932 0.0
C591 C 0.14727 0.43751 0.99686 0.0
C592 C 0.08988 0.445 0.03126 0.0
C593 C 0.08465 0.44755 0.93117 0.0
N594 N 0.1048 0.44186 0.76326 0.0
N595 N 0.12472 0.42559 0.14544 0.0
C596 C 0.1106 0.44424 0.86297 0.0
C597 C 0.12066 0.43602 0.0595 0.0
N598 N 0.16797 0.44826 0.84367 0.0
N599 N 0.06609 0.45299 0.10112 0.0
H600 H 0.14688 0.41792 0.16709 0.0
H601 H 0.10562 0.42137 0.18922 0.0
H602 H 0.0436 0.46125 0.08488 0.0
H603 H 0.06982 0.45471 0.17743 0.0
H604 H 0.1654 0.45579 0.77725 0.0
H605 H 0.19173 0.44815 0.86782 0.0
H606 H 0.12258 0.43641 0.70867 0.0
H607 H 0.08168 0.44225 0.73389 0.0
C608 C 0.01652 0.88016 0.60331 0.0
C609 C 0.02027 0.85399 0.64834 0.0
C610 C 0.98374 0.87961 0.78356 0.0
C611 C 0.98275 0.90667 0.74242 0.0
N612 N 0.98111 0.9229 0.58602 0.0
N613 N 0.99791 0.82393 0.7595 0.0
C614 C 0.99358 0.90389 0.64325 0.0
C615 C 0.00094 0.85213 0.73216 0.0
N616 N 0.03575 0.88344 0.52601 0.0
N617 N 0.96812 0.8804 0.8714 0.0
H618 H 0.00847 0.80288 0.71966 0.0
H619 H 0.98245 0.82052 0.81532 0.0
H620 H 0.95239 0.89886 0.90321 0.0
H621 H 0.97104 0.86335 0.91301 0.0
H622 H 0.03544 0.90375 0.49763 0.0
H623 H 0.05413 0.86754 0.49696 0.0
H624 H 0.98696 0.92023 0.51064 0.0
H625 H 0.96151 0.93785 0.60966 0.0
C626 C 0.62943 0.0566 0.67125 0.0
C627 C 0.65167 0.03096 0.65124 0.0
C628 C 0.61181 0.99606 0.69986 0.0
C629 C 0.58928 0.02138 0.71633 0.0
N630 N 0.57376 0.07322 0.69675 0.0
N631 N 0.66194 0.97465 0.62392 0.0
C632 C 0.59723 0.05092 0.6955 0.0
C633 C 0.64224 1.00018 0.65893 0.0
N634 N 0.63943 0.08665 0.6721 0.0
N635 N 0.60464 0.9685 0.72699 0.0
H636 H 0.6843 0.97653 0.59221 0.0
H637 H 0.65493 0.95123 0.61723 0.0
H638 H 0.58226 0.96409 0.75429 0.0
H639 H 0.62153 0.95083 0.72903 0.0
H640 H 0.62523 0.10679 0.69702 0.0
H641 H 0.66292 0.09188 0.65585 0.0
H642 H 0.57728 0.09399 0.67262 0.0
H643 H 0.54984 0.06957 0.71307 0.0
C644 C 0.57821 0.64625 0.42183 0.0
C645 C 0.55373 0.65167 0.35528 0.0
C646 C 0.52706 0.60257 0.36553 0.0
C647 C 0.55167 0.59659 0.43102 0.0
N648 N 0.59602 0.61652 0.54171 0.0
N649 N 0.50272 0.63714 0.27258 0.0
C650 C 0.57597 0.61954 0.46509 0.0
C651 C 0.52747 0.63066 0.33087 0.0
N652 N 0.60457 0.66545 0.43879 0.0
N653 N 0.50279 0.58168 0.33338 0.0
H654 H 0.50106 0.65816 0.24829 0.0
H655 H 0.48331 0.62185 0.25146 0.0
H656 H 0.50059 0.55983 0.35196 0.0
H657 H 0.50059 0.55983 0.35196 0.0
H658 H 0.62513 0.66037 0.4758 0.0
H659 H 0.60696 0.68539 0.40932 0.0
H660 H 0.61179 0.63419 0.57746 0.0
H661 H 0.59502 0.59748 0.57599 0.0
C662 C 0.84414 0.47128 0.7514 0.0
C663 C 0.8354 0.5019 0.74005 0.0
C664 C 0.88882 0.52169 0.79823 0.0
C665 C 0.89884 0.49016 0.79466 0.0
N666 N 0.88722 0.43412 0.75872 0.0
N667 N 0.85055 0.55587 0.74166 0.0
C668 C 0.87677 0.4647 0.76945 0.0
C669 C 0.8579 0.52716 0.76149 0.0
N670 N 0.82103 0.44877 0.74757 0.0
N671 N 0.90853 0.54651 0.83917 0.0
H672 H 0.82827 0.5613 0.71499 0.0
H673 H 0.86749 0.5736 0.74377 0.0
H674 H 0.93131 0.54339 0.86719 0.0
H675 H 0.90115 0.57016 0.85417 0.0
H676 H 0.82539 0.42703 0.76529 0.0
H677 H 0.79675 0.45309 0.73654 0.0
H678 H 0.87302 0.4144 0.72929 0.0
H679 H 0.91094 0.42826 0.77156 0.0
loop_
_geom_bond_atom_site_label_1
_geom_bond_atom_site_label_2
_geom_bond_distance
_geom_bond_site_symmetry_2
_ccdc_geom_bond_type
O0 Cd1 2.300 . S
O0 C7 1.275 . S
Cd1 O0 2.300 . S
Cd1 O9 2.381 . S
Cd1 O10 2.378 . S
O2 Cd3 2.385 . S
O2 C7 1.255 . S
Cd3 O2 2.385 . S
Cd3 O4 2.317 . S
O4 Cd3 2.317 . S
O4 C5 1.232 . S
C5 O4 1.232 . S
C5 O6 1.218 . S
O6 C5 1.218 . S
C7 O0 1.275 . S
C7 O2 1.255 . S
C8 O9 1.258 . S
C8 O10 1.256 . S
O9 Cd1 2.381 . S
O9 C8 1.258 . S
O10 Cd1 2.378 . S
O10 C8 1.256 . S
O11 Cd12 2.300 1_655 S
O11 C18 1.275 1_655 S
Cd12 O11 2.300 1_455 S
Cd12 O20 2.381 1_455 S
Cd12 O21 2.378 . S
O13 Cd14 2.385 . S
O13 C18 1.255 . S
Cd14 O13 2.385 . S
Cd14 O15 2.317 . S
O15 Cd14 2.317 . S
O15 C16 1.232 . S
C16 O15 1.232 . S
C16 O17 1.218 . S
O17 C16 1.218 . S
C18 O11 1.275 1_455 S
C18 O13 1.255 . S
C19 O20 1.258 1_455 S
C19 O21 1.256 . S
O20 Cd12 2.381 1_655 S
O20 C19 1.258 1_655 S
O21 Cd12 2.378 . S
O21 C19 1.256 . S
O22 Cd23 2.300 1_565 S
O22 C29 1.275 1_565 S
Cd23 O22 2.300 1_545 S
Cd23 O31 2.381 1_545 S
Cd23 O32 2.378 . S
O24 Cd25 2.385 . S
O24 C29 1.255 . S
Cd25 O24 2.385 . S
Cd25 O26 2.317 . S
O26 Cd25 2.317 . S
O26 C27 1.232 . S
C27 O26 1.232 . S
C27 O28 1.218 . S
O28 C27 1.218 . S
C29 O22 1.275 1_545 S
C29 O24 1.255 . S
C30 O31 1.258 1_545 S
C30 O32 1.256 . S
O31 Cd23 2.381 1_565 S
O31 C30 1.258 1_565 S
O32 Cd23 2.378 . S
O32 C30 1.256 . S
O33 Cd34 2.300 . S
O33 C40 1.275 . S
Cd34 O33 2.300 . S
Cd34 O42 2.381 . S
Cd34 O43 2.378 . S
O35 Cd36 2.385 1_556 S
O35 C40 1.255 . S
Cd36 O35 2.385 1_554 S
Cd36 O37 2.317 . S
O37 Cd36 2.317 . S
O37 C38 1.232 . S
C38 O37 1.232 . S
C38 O39 1.218 . S
O39 C38 1.218 . S
C40 O33 1.275 . S
C40 O35 1.255 . S
C41 O42 1.258 . S
C41 O43 1.256 . S
O42 Cd34 2.381 . S
O42 C41 1.258 . S
O43 Cd34 2.378 . S
O43 C41 1.256 . S
O44 Cd45 2.300 . S
O44 C51 1.275 . S
Cd45 O44 2.300 . S
Cd45 O53 2.381 . S
Cd45 O54 2.378 . S
O46 Cd47 2.385 . S
O46 C51 1.255 . S
Cd47 O46 2.385 . S
Cd47 O48 2.317 . S
O48 Cd47 2.317 . S
O48 C49 1.232 . S
C49 O48 1.232 . S
C49 O50 1.218 . S
O50 C49 1.218 . S
C51 O44 1.275 . S
C51 O46 1.255 . S
C52 O53 1.258 . S
C52 O54 1.256 . S
O53 Cd45 2.381 . S
O53 C52 1.258 . S
O54 Cd45 2.378 . S
O54 C52 1.256 . S
O55 Cd56 2.300 1_655 S
O55 C62 1.275 1_655 S
Cd56 O55 2.300 1_455 S
Cd56 O64 2.381 1_455 S
Cd56 O65 2.378 . S
O57 Cd58 2.385 . S
O57 C62 1.255 . S
Cd58 O57 2.385 . S
Cd58 O59 2.317 . S
O59 Cd58 2.317 . S
O59 C60 1.232 . S
C60 O59 1.232 . S
C60 O61 1.218 . S
O61 C60 1.218 . S
C62 O55 1.275 1_455 S
C62 O57 1.255 . S
C63 O64 1.258 1_455 S
C63 O65 1.256 . S
O64 Cd56 2.381 1_655 S
O64 C63 1.258 1_655 S
O65 Cd56 2.378 . S
O65 C63 1.256 . S
O66 Cd67 2.300 1_565 S
O66 C73 1.275 1_565 S
Cd67 O66 2.300 1_545 S
Cd67 O75 2.381 1_545 S
Cd67 O76 2.378 . S
O68 Cd69 2.385 . S
O68 C73 1.255 . S
Cd69 O68 2.385 . S
Cd69 O70 2.317 . S
O70 Cd69 2.317 . S
O70 C71 1.232 . S
C71 O70 1.232 . S
C71 O72 1.218 . S
O72 C71 1.218 . S
C73 O66 1.275 1_545 S
C73 O68 1.255 . S
C74 O75 1.258 1_545 S
C74 O76 1.256 . S
O75 Cd67 2.381 1_565 S
O75 C74 1.258 1_565 S
O76 Cd67 2.378 . S
O76 C74 1.256 . S
O77 Cd78 2.300 . S
O77 C84 1.275 . S
Cd78 O77 2.300 . S
Cd78 O86 2.381 . S
Cd78 O87 2.378 . S
O79 Cd80 2.385 . S
O79 C84 1.255 . S
Cd80 O79 2.385 . S
Cd80 O81 2.317 . S
O81 Cd80 2.317 . S
O81 C82 1.232 . S
C82 O81 1.232 . S
C82 O83 1.218 . S
O83 C82 1.218 . S
C84 O77 1.275 . S
C84 O79 1.255 . S
C85 O86 1.258 . S
C85 O87 1.256 . S
O86 Cd78 2.381 . S
O86 C85 1.258 . S
O87 Cd78 2.378 . S
O87 C85 1.256 . S
Tb88 C97 2.764 . S
Tb88 O98 2.325 . S
Tb88 O101 2.303 1_655 S
Tb88 O105 2.322 1_545 S
Tb88 O106 2.349 . S
Tb88 O109 2.415 . S
Tb88 O110 2.399 . S
Tb89 O99 2.321 1_565 S
Tb89 O100 2.349 . S
Tb89 O102 2.415 1_556 S
Tb89 O103 2.399 1_556 S
Tb89 O104 2.325 . S
Tb89 O107 2.303 1_455 S
Tb89 C118 2.764 1_556 S
C90 O106 1.261 . S
C90 O107 1.257 1_545 S
C91 C94 1.358 . S
C91 C95 1.332 . S
C91 C97 1.504 . S
C92 C93 1.373 . S
C92 C96 1.308 . S
C93 C92 1.373 . S
C93 C94 1.429 . S
C93 H120 0.932 . S
C94 C91 1.358 . S
C94 C93 1.429 . S
C94 H121 0.930 . S
C95 C91 1.332 . S
C95 C96 1.394 . S
C95 H122 0.932 1_655 S
C96 C92 1.308 . S
C96 C95 1.394 . S
C96 H123 0.929 . S
C97 Tb88 2.764 . S
C97 C91 1.504 . S
C97 O109 1.239 . S
C97 O110 1.263 . S
O98 Tb88 2.325 . S
O98 C108 1.236 1_655 S
O99 Tb89 2.321 1_545 S
O99 C108 1.263 . S
O100 Tb89 2.349 . S
O100 C111 1.283 . S
O101 Tb88 2.303 1_455 S
O101 C111 1.251 1_545 S
O102 Tb89 2.415 1_554 S
O102 C118 1.239 . S
O103 Tb89 2.399 1_554 S
O103 C118 1.263 . S
O104 Tb89 2.325 . S
O104 C119 1.236 1_455 S
O105 Tb88 2.322 1_565 S
O105 C119 1.257 . S
O106 Tb88 2.349 . S
O106 C90 1.261 . S
O107 Tb89 2.303 1_655 S
O107 C90 1.257 1_565 S
C108 O98 1.236 1_455 S
C108 O99 1.263 . S
O109 Tb88 2.415 . S
O109 C97 1.239 . S
O110 Tb88 2.399 . S
O110 C97 1.263 . S
C111 O100 1.283 . S
C111 O101 1.251 1_565 S
C112 C115 1.358 . S
C112 C116 1.332 . S
C112 C118 1.504 . S
C113 C114 1.373 . S
C113 C117 1.308 . S
C114 C113 1.373 . S
C114 C115 1.429 . S
C114 H124 0.932 . S
C115 C112 1.358 . S
C115 C114 1.429 . S
C115 H125 0.930 . S
C116 C112 1.332 . S
C116 C117 1.394 . S
C116 H126 0.932 1_455 S
C117 C113 1.308 . S
C117 C116 1.394 . S
C117 H127 0.929 . S
C118 Tb89 2.764 1_554 S
C118 O102 1.239 . S
C118 O103 1.263 . S
C118 C112 1.504 . S
C119 O104 1.236 1_655 S
C119 O105 1.257 . S
H120 C93 0.932 . S
H121 C94 0.930 . S
H122 C95 0.932 1_455 S
H123 C96 0.929 . S
H124 C114 0.932 . S
H125 C115 0.930 . S
H126 C116 0.932 1_655 S
H127 C117 0.929 . S
Tb128 C137 2.764 . S
Tb128 O138 2.325 . S
Tb128 O141 2.303 1_565 S
Tb128 O145 2.322 . S
Tb128 O146 2.349 . S
Tb128 O149 2.415 1_565 S
Tb128 O150 2.399 . S
Tb129 O139 2.322 . S
Tb129 O140 2.349 1_554 S
Tb129 O142 2.415 1_545 S
Tb129 O143 2.399 . S
Tb129 O144 2.325 1_554 S
Tb129 O147 2.303 1_544 S
Tb129 C158 2.764 . S
C130 O146 1.261 . S
C130 O147 1.257 . S
C131 C134 1.358 . S
C131 C135 1.332 1_565 S
C131 C137 1.504 . S
C132 C133 1.373 . S
C132 C136 1.308 1_565 S
C133 C132 1.373 . S
C133 C134 1.429 . S
C133 H160 0.932 . S
C134 C131 1.358 . S
C134 C133 1.429 . S
C134 H161 0.930 . S
C135 C131 1.332 1_545 S
C135 C136 1.394 . S
C135 H162 0.932 . S
C136 C132 1.308 1_545 S
C136 C135 1.394 . S
C136 H163 0.929 . S
C137 Tb128 2.764 . S
C137 C131 1.504 . S
C137 O149 1.239 1_565 S
C137 O150 1.263 . S
O138 Tb128 2.325 . S
O138 C148 1.236 1_565 S
O139 Tb129 2.322 . S
O139 C148 1.257 1_554 S
O140 Tb129 2.349 1_556 S
O140 C151 1.261 . S
O141 Tb128 2.303 1_545 S
O141 C151 1.257 . S
O142 Tb129 2.415 1_565 S
O142 C158 1.239 1_565 S
O143 Tb129 2.399 . S
O143 C158 1.263 . S
O144 Tb129 2.325 1_556 S
O144 C159 1.236 1_545 S
O145 Tb128 2.322 . S
O145 C159 1.257 . S
O146 Tb128 2.349 . S
O146 C130 1.261 . S
O147 Tb129 2.303 1_566 S
O147 C130 1.257 . S
C148 O138 1.236 1_545 S
C148 O139 1.257 1_556 S
O149 Tb128 2.415 1_545 S
O149 C137 1.239 1_545 S
O150 Tb128 2.399 . S
O150 C137 1.263 . S
C151 O140 1.261 . S
C151 O141 1.257 . S
C152 C155 1.358 . S
C152 C156 1.332 1_545 S
C152 C158 1.504 . S
C153 C154 1.373 . S
C153 C157 1.308 1_545 S
C154 C153 1.373 . S
C154 C155 1.429 . S
C154 H164 0.932 . S
C155 C152 1.358 . S
C155 C154 1.429 . S
C155 H165 0.930 . S
C156 C152 1.332 1_565 S
C156 C157 1.394 . S
C156 H166 0.932 . S
C157 C153 1.308 1_565 S
C157 C156 1.394 . S
C157 H167 0.929 . S
C158 Tb129 2.764 . S
C158 O142 1.239 1_545 S
C158 O143 1.263 . S
C158 C152 1.504 . S
C159 O144 1.236 1_565 S
C159 O145 1.257 . S
H160 C133 0.932 . S
H161 C134 0.930 . S
H162 C135 0.932 . S
H163 C136 0.929 . S
H164 C154 0.932 . S
H165 C155 0.930 . S
H166 C156 0.932 . S
H167 C157 0.929 . S
Tb168 C177 2.764 1_556 S
Tb168 O178 2.325 . S
Tb168 O181 2.303 . S
Tb168 O185 2.322 . S
Tb168 O186 2.349 . S
Tb168 O189 2.415 1_556 S
Tb168 O190 2.399 1_556 S
Tb169 O179 2.322 . S
Tb169 O180 2.349 . S
Tb169 O182 2.415 . S
Tb169 O183 2.399 . S
Tb169 O184 2.325 . S
Tb169 O187 2.303 . S
Tb169 C198 2.764 . S
C170 O186 1.261 . S
C170 O187 1.257 . S
C171 C174 1.358 . S
C171 C175 1.332 . S
C171 C177 1.504 . S
C172 C173 1.373 . S
C172 C176 1.308 . S
C173 C172 1.373 . S
C173 C174 1.429 . S
C173 H200 0.932 . S
C174 C171 1.358 . S
C174 C173 1.429 . S
C174 H201 0.930 . S
C175 C171 1.332 . S
C175 C176 1.394 . S
C175 H202 0.932 . S
C176 C172 1.308 . S
C176 C175 1.394 . S
C176 H203 0.929 . S
C177 Tb168 2.764 1_554 S
C177 C171 1.504 . S
C177 O189 1.239 . S
C177 O190 1.263 . S
O178 Tb168 2.325 . S
O178 C188 1.236 . S
O179 Tb169 2.322 . S
O179 C188 1.257 . S
O180 Tb169 2.349 . S
O180 C191 1.261 . S
O181 Tb168 2.303 . S
O181 C191 1.257 . S
O182 Tb169 2.415 . S
O182 C198 1.239 . S
O183 Tb169 2.399 . S
O183 C198 1.263 . S
O184 Tb169 2.325 . S
O184 C199 1.236 . S
O185 Tb168 2.322 . S
O185 C199 1.257 . S
O186 Tb168 2.349 . S
O186 C170 1.261 . S
O187 Tb169 2.303 . S
O187 C170 1.257 . S
C188 O178 1.236 . S
C188 O179 1.257 . S
O189 Tb168 2.415 1_554 S
O189 C177 1.239 . S
O190 Tb168 2.399 1_554 S
O190 C177 1.263 . S
C191 O180 1.261 . S
C191 O181 1.257 . S
C192 C195 1.358 . S
C192 C196 1.332 . S
C192 C198 1.504 . S
C193 C194 1.373 . S
C193 C197 1.308 . S
C194 C193 1.373 . S
C194 C195 1.429 . S
C194 H204 0.932 . S
C195 C192 1.358 . S
C195 C194 1.429 . S
C195 H205 0.930 . S
C196 C192 1.332 . S
C196 C197 1.394 . S
C196 H206 0.932 . S
C197 C193 1.308 . S
C197 C196 1.394 . S
C197 H207 0.929 . S
C198 Tb169 2.764 . S
C198 O182 1.239 . S
C198 O183 1.263 . S
C198 C192 1.504 . S
C199 O184 1.236 . S
C199 O185 1.257 . S
H200 C173 0.932 . S
H201 C174 0.930 . S
H202 C175 0.932 . S
H203 C176 0.929 . S
H204 C194 0.932 . S
H205 C195 0.930 . S
H206 C196 0.932 . S
H207 C197 0.929 . S
Tb208 C217 2.764 . S
Tb208 O218 2.325 . S
Tb208 O221 2.303 . S
Tb208 O225 2.322 1_455 S
Tb208 O226 2.349 . S
Tb208 O229 2.415 . S
Tb208 O230 2.399 . S
Tb209 O219 2.322 1_655 S
Tb209 O220 2.349 . S
Tb209 O222 2.415 1_556 S
Tb209 O223 2.399 1_556 S
Tb209 O224 2.325 . S
Tb209 O227 2.303 . S
Tb209 C238 2.764 1_556 S
C210 O226 1.261 . S
C210 O227 1.257 1_455 S
C211 C214 1.358 . S
C211 C215 1.332 . S
C211 C217 1.504 . S
C212 C213 1.373 . S
C212 C216 1.308 . S
C213 C212 1.373 . S
C213 C214 1.429 . S
C213 H240 0.932 . S
C214 C211 1.358 . S
C214 C213 1.429 . S
C214 H241 0.930 . S
C215 C211 1.332 . S
C215 C216 1.394 . S
C215 H242 0.932 . S
C216 C212 1.308 . S
C216 C215 1.394 . S
C216 H243 0.929 . S
C217 Tb208 2.764 . S
C217 C211 1.504 . S
C217 O229 1.239 . S
C217 O230 1.263 . S
O218 Tb208 2.325 . S
O218 C228 1.236 . S
O219 Tb209 2.322 1_455 S
O219 C228 1.257 . S
O220 Tb209 2.349 . S
O220 C231 1.261 . S
O221 Tb208 2.303 . S
O221 C231 1.257 1_455 S
O222 Tb209 2.415 1_554 S
O222 C238 1.239 . S
O223 Tb209 2.399 1_554 S
O223 C238 1.263 . S
O224 Tb209 2.325 . S
O224 C239 1.236 . S
O225 Tb208 2.322 1_655 S
O225 C239 1.257 . S
O226 Tb208 2.349 . S
O226 C210 1.261 . S
O227 Tb209 2.303 . S
O227 C210 1.257 1_655 S
C228 O218 1.236 . S
C228 O219 1.257 . S
O229 Tb208 2.415 . S
O229 C217 1.239 . S
O230 Tb208 2.399 . S
O230 C217 1.263 . S
C231 O220 1.261 . S
C231 O221 1.257 1_655 S
C232 C235 1.358 . S
C232 C236 1.332 . S
C232 C238 1.504 . S
C233 C234 1.373 . S
C233 C237 1.308 . S
C234 C233 1.373 . S
C234 C235 1.429 . S
C234 H244 0.932 . S
C235 C232 1.358 . S
C235 C234 1.429 . S
C235 H245 0.930 . S
C236 C232 1.332 . S
C236 C237 1.394 . S
C236 H246 0.932 . S
C237 C233 1.308 . S
C237 C236 1.394 . S
C237 H247 0.929 . S
C238 Tb209 2.764 1_554 S
C238 O222 1.239 . S
C238 O223 1.263 . S
C238 C232 1.504 . S
C239 O224 1.236 . S
C239 O225 1.257 . S
H240 C213 0.932 . S
H241 C214 0.930 . S
H242 C215 0.932 . S
H243 C216 0.929 . S
H244 C234 0.932 . S
H245 C235 0.930 . S
H246 C236 0.932 . S
H247 C237 0.929 . S
C248 C249 1.388 . S
C248 C254 1.379 . S
C248 N256 1.356 . S
C249 C248 1.388 . S
C249 C255 1.331 1_545 S
C250 C251 1.363 1_565 S
C250 C255 1.379 . S
C250 N257 1.356 . S
C251 C250 1.363 1_545 S
C251 C254 1.363 . S
N252 C254 1.356 . S
N252 H264 0.984 . S
N252 H265 0.985 . S
N253 C255 1.356 . S
N253 H258 0.984 . S
N253 H259 0.985 . S
C254 C248 1.379 . S
C254 C251 1.363 . S
C254 N252 1.356 . S
C255 C249 1.331 1_565 S
C255 C250 1.379 . S
C255 N253 1.356 . S
N256 C248 1.356 . S
N256 H262 0.984 . S
N256 H263 0.984 . S
N257 C250 1.356 . S
N257 H260 0.984 . S
N257 H261 0.985 . S
H258 N253 0.984 . S
H259 N253 0.985 . S
H260 N257 0.984 . S
H261 N257 0.985 . S
H262 N256 0.984 . S
H263 N256 0.984 . S
H264 N252 0.984 . S
H265 N252 0.985 . S
C266 C267 1.363 . S
C266 C272 1.379 . S
C266 N274 1.356 . S
C267 C266 1.363 . S
C267 C273 1.363 . S
C268 C269 1.363 . S
C268 C273 1.379 . S
C268 N275 1.356 . S
C269 C268 1.363 . S
C269 C272 1.363 . S
N270 C272 1.356 . S
N270 H282 0.984 . S
N270 H283 0.985 . S
N271 C273 1.356 . S
N271 H276 0.984 . S
N271 H277 0.985 1_556 S
C272 C266 1.379 . S
C272 C269 1.363 . S
C272 N270 1.356 . S
C273 C267 1.363 . S
C273 C268 1.379 . S
C273 N271 1.356 . S
N274 C266 1.356 . S
N274 H280 0.984 . S
N274 H281 0.984 . S
N275 C268 1.356 . S
N275 H278 0.984 . S
N275 H279 0.985 1_556 S
H276 N271 0.984 . S
H277 N271 0.985 1_554 S
H278 N275 0.984 . S
H279 N275 0.985 1_554 S
H280 N274 0.984 . S
H281 N274 0.984 . S
H282 N270 0.984 . S
H283 N270 0.985 . S
C284 C285 1.363 . S
C284 C290 1.379 . S
C284 N292 1.356 . S
C285 C284 1.363 . S
C285 C291 1.363 . S
C286 C287 1.363 . S
C286 C291 1.379 . S
C286 N293 1.356 . S
C287 C286 1.363 . S
C287 C290 1.363 . S
N288 C290 1.356 . S
N288 H300 0.984 . S
N288 H301 0.985 . S
N289 C291 1.356 . S
N289 H294 0.984 . S
N289 H295 0.985 . S
C290 C284 1.379 . S
C290 C287 1.363 . S
C290 N288 1.356 . S
C291 C285 1.363 . S
C291 C286 1.379 . S
C291 N289 1.356 . S
N292 C284 1.356 . S
N292 H298 0.984 . S
N292 H299 0.984 . S
N293 C286 1.356 . S
N293 H296 0.984 . S
N293 H297 0.985 . S
H294 N289 0.984 . S
H295 N289 0.985 . S
H296 N293 0.984 . S
H297 N293 0.985 . S
H298 N292 0.984 . S
H299 N292 0.984 . S
H300 N288 0.984 . S
H301 N288 0.985 . S
C302 C303 1.363 . S
C302 C308 1.379 . S
C302 N310 1.356 . S
C303 C302 1.363 . S
C303 C309 1.363 . S
C304 C305 1.363 . S
C304 C309 1.379 . S
C304 N311 1.356 . S
C305 C304 1.363 . S
C305 C308 1.363 . S
N306 C308 1.357 . S
N306 H318 0.984 . S
N306 H319 0.985 . S
N307 C309 1.356 1_655 S
N307 H312 0.984 . S
N307 H313 0.984 . S
C308 C302 1.379 . S
C308 C305 1.363 . S
C308 N306 1.357 . S
C309 C303 1.363 . S
C309 C304 1.379 . S
C309 N307 1.356 1_455 S
N310 C302 1.356 . S
N310 H316 0.984 . S
N310 H317 0.984 . S
N311 C304 1.356 . S
N311 H314 0.984 . S
N311 H315 0.984 . S
H312 N307 0.984 . S
H313 N307 0.984 . S
H314 N311 0.984 . S
H315 N311 0.984 . S
H316 N310 0.984 . S
H317 N310 0.984 . S
H318 N306 0.984 . S
H319 N306 0.985 . S
C320 C321 1.340 1_545 S
C320 C326 1.379 . S
C320 N328 1.356 . S
C321 C320 1.340 1_565 S
C321 C327 1.380 . S
C322 C323 1.363 . S
C322 C327 1.379 . S
C322 N329 1.356 . S
C323 C322 1.363 . S
C323 C326 1.363 1_565 S
N324 C326 1.356 . S
N324 H336 0.984 . S
N324 H337 0.985 . S
N325 C327 1.356 . S
N325 H330 0.984 . S
N325 H331 0.985 . S
C326 C320 1.379 . S
C326 C323 1.363 1_545 S
C326 N324 1.356 . S
C327 C321 1.380 . S
C327 C322 1.379 . S
C327 N325 1.356 . S
N328 C320 1.356 . S
N328 H334 0.984 . S
N328 H335 0.984 . S
N329 C322 1.356 . S
N329 H332 0.984 . S
N329 H333 0.985 . S
H330 N325 0.984 . S
H331 N325 0.985 . S
H332 N329 0.984 . S
H333 N329 0.985 . S
H334 N328 0.984 . S
H335 N328 0.984 . S
H336 N324 0.984 . S
H337 N324 0.985 . S
C338 C339 1.363 . S
C338 C344 1.379 . S
C338 N346 1.356 1_556 S
C339 C338 1.363 . S
C339 C345 1.363 . S
C340 C341 1.363 . S
C340 C345 1.379 . S
C340 N347 1.356 . S
C341 C340 1.363 . S
C341 C344 1.363 . S
N342 C344 1.356 1_554 S
N342 H354 0.984 . S
N342 H355 0.985 1_554 S
N343 C345 1.356 . S
N343 H348 0.984 . S
N343 H349 0.985 . S
C344 C338 1.379 . S
C344 C341 1.363 . S
C344 N342 1.356 1_556 S
C345 C339 1.363 . S
C345 C340 1.379 . S
C345 N343 1.356 . S
N346 C338 1.356 1_554 S
N346 H352 0.984 . S
N346 H353 0.984 . S
N347 C340 1.356 . S
N347 H350 0.984 . S
N347 H351 0.985 . S
H348 N343 0.984 . S
H349 N343 0.985 . S
H350 N347 0.984 . S
H351 N347 0.985 . S
H352 N346 0.984 . S
H353 N346 0.984 . S
H354 N342 0.984 . S
H355 N342 0.985 1_556 S
C356 C357 1.363 . S
C356 C362 1.379 . S
C356 N364 1.356 . S
C357 C356 1.363 . S
C357 C363 1.363 . S
C358 C359 1.363 . S
C358 C363 1.379 . S
C358 N365 1.356 . S
C359 C358 1.363 . S
C359 C362 1.363 . S
N360 C362 1.356 . S
N360 H372 0.984 . S
N360 H373 0.985 . S
N361 C363 1.356 . S
N361 H366 0.984 . S
N361 H367 0.985 . S
C362 C356 1.379 . S
C362 C359 1.363 . S
C362 N360 1.356 . S
C363 C357 1.363 . S
C363 C358 1.379 . S
C363 N361 1.356 . S
N364 C356 1.356 . S
N364 H370 0.984 . S
N364 H371 0.984 . S
N365 C358 1.356 . S
N365 H368 0.984 . S
N365 H369 0.985 . S
H366 N361 0.984 . S
H367 N361 0.985 . S
H368 N365 0.984 . S
H369 N365 0.985 . S
H370 N364 0.984 . S
H371 N364 0.984 . S
H372 N360 0.984 . S
H373 N360 0.985 . S
C374 C375 1.367 . S
C374 C380 1.379 . S
C374 N382 1.356 . S
C375 C374 1.367 . S
C375 C381 1.359 1_655 S
C376 C377 1.343 1_455 S
C376 C381 1.379 . S
C376 N383 1.356 . S
C377 C376 1.343 1_655 S
C377 C380 1.383 . S
N378 C380 1.356 . S
N378 H390 0.984 . S
N378 H391 0.985 . S
N379 C381 1.356 . S
N379 H384 0.984 . S
N379 H385 0.985 . S
C380 C374 1.379 . S
C380 C377 1.383 . S
C380 N378 1.356 . S
C381 C375 1.359 1_455 S
C381 C376 1.379 . S
C381 N379 1.356 . S
N382 C374 1.356 . S
N382 H388 0.984 . S
N382 H389 0.984 . S
N383 C376 1.356 . S
N383 H386 0.984 1_554 S
N383 H387 0.985 . S
H384 N379 0.984 . S
H385 N379 0.985 . S
H386 N383 0.984 1_556 S
H387 N383 0.985 . S
H388 N382 0.984 . S
H389 N382 0.984 . S
H390 N378 0.984 . S
H391 N378 0.985 . S
C392 C393 1.363 . S
C392 C398 1.379 . S
C392 N400 1.356 1_655 S
C393 C392 1.363 . S
C393 C399 1.363 . S
C394 C395 1.363 . S
C394 C399 1.379 . S
C394 N401 1.356 . S
C395 C394 1.363 . S
C395 C398 1.363 . S
N396 C398 1.356 . S
N396 H408 0.984 . S
N396 H409 0.985 . S
N397 C399 1.356 . S
N397 H402 0.984 . S
N397 H403 0.985 . S
C398 C392 1.379 . S
C398 C395 1.363 . S
C398 N396 1.356 . S
C399 C393 1.363 . S
C399 C394 1.379 . S
C399 N397 1.356 . S
N400 C392 1.356 1_455 S
N400 H406 0.984 . S
N400 H407 0.984 . S
N401 C394 1.356 . S
N401 H404 0.984 . S
N401 H405 0.985 . S
H402 N397 0.984 . S
H403 N397 0.985 . S
H404 N401 0.984 . S
H405 N401 0.985 . S
H406 N400 0.984 . S
H407 N400 0.984 . S
H408 N396 0.984 . S
H409 N396 0.985 . S
C410 C411 1.363 . S
C410 C416 1.379 . S
C410 N418 1.356 . S
C411 C410 1.363 . S
C411 C417 1.363 1_545 S
C412 C413 1.363 . S
C412 C417 1.379 . S
C412 N419 1.356 . S
C413 C412 1.363 . S
C413 C416 1.363 1_565 S
N414 C416 1.356 . S
N414 H426 0.984 . S
N414 H427 0.985 1_545 S
N415 C417 1.356 . S
N415 H420 0.984 . S
N415 H421 0.985 . S
C416 C410 1.379 . S
C416 C413 1.363 1_545 S
C416 N414 1.356 . S
C417 C411 1.363 1_565 S
C417 C412 1.379 . S
C417 N415 1.356 . S
N418 C410 1.356 . S
N418 H424 0.984 . S
N418 H425 0.984 . S
N419 C412 1.356 . S
N419 H422 0.984 . S
N419 H423 0.985 . S
H420 N415 0.984 . S
H421 N415 0.985 . S
H422 N419 0.984 . S
H423 N419 0.985 . S
H424 N418 0.984 . S
H425 N418 0.984 . S
H426 N414 0.984 . S
H427 N414 0.985 1_565 S
C428 C429 1.363 . S
C428 C434 1.379 . S
C428 N436 1.356 1_556 S
C429 C428 1.363 . S
C429 C435 1.363 . S
C430 C431 1.363 . S
C430 C435 1.379 . S
C430 N437 1.356 . S
C431 C430 1.363 . S
C431 C434 1.363 . S
N432 C434 1.356 . S
N432 H444 0.984 1_556 S
N432 H445 0.985 . S
N433 C435 1.356 . S
N433 H438 0.984 . S
N433 H439 0.985 . S
C434 C428 1.379 . S
C434 C431 1.363 . S
C434 N432 1.356 . S
C435 C429 1.363 . S
C435 C430 1.379 . S
C435 N433 1.356 . S
N436 C428 1.356 1_554 S
N436 H442 0.984 . S
N436 H443 0.984 . S
N437 C430 1.356 . S
N437 H440 0.984 . S
N437 H441 0.985 . S
H438 N433 0.984 . S
H439 N433 0.985 . S
H440 N437 0.984 . S
H441 N437 0.985 . S
H442 N436 0.984 . S
H443 N436 0.984 . S
H444 N432 0.984 1_554 S
H445 N432 0.985 . S
C446 C447 1.363 . S
C446 C452 1.379 . S
C446 N454 1.356 . S
C447 C446 1.363 . S
C447 C453 1.363 . S
C448 C449 1.363 . S
C448 C453 1.379 . S
C448 N455 1.356 . S
C449 C448 1.363 . S
C449 C452 1.363 . S
N450 C452 1.356 . S
N450 H462 0.984 . S
N450 H463 0.985 . S
N451 C453 1.356 . S
N451 H456 0.984 . S
N451 H457 0.985 . S
C452 C446 1.379 . S
C452 C449 1.363 . S
C452 N450 1.356 . S
C453 C447 1.363 . S
C453 C448 1.379 . S
C453 N451 1.356 . S
N454 C446 1.356 . S
N454 H460 0.984 . S
N454 H461 0.984 . S
N455 C448 1.356 . S
N455 H458 0.984 . S
N455 H459 0.985 . S
H456 N451 0.984 . S
H457 N451 0.985 . S
H458 N455 0.984 . S
H459 N455 0.985 . S
H460 N454 0.984 . S
H461 N454 0.984 . S
H462 N450 0.984 . S
H463 N450 0.985 . S
C464 C465 1.363 . S
C464 C470 1.379 . S
C464 N472 1.356 1_455 S
C465 C464 1.363 . S
C465 C471 1.363 . S
C466 C467 1.363 . S
C466 C471 1.379 . S
C466 N473 1.356 . S
C467 C466 1.363 . S
C467 C470 1.363 . S
N468 C470 1.356 . S
N468 H480 0.984 . S
N468 H481 0.985 . S
N469 C471 1.356 . S
N469 H474 0.984 . S
N469 H475 0.985 . S
C470 C464 1.379 . S
C470 C467 1.363 . S
C470 N468 1.356 . S
C471 C465 1.363 . S
C471 C466 1.379 . S
C471 N469 1.356 . S
N472 C464 1.356 1_655 S
N472 H478 0.984 . S
N472 H479 0.984 . S
N473 C466 1.356 . S
N473 H476 0.984 . S
N473 H477 0.985 . S
H474 N469 0.984 . S
H475 N469 0.985 . S
H476 N473 0.984 . S
H477 N473 0.985 . S
H478 N472 0.984 . S
H479 N472 0.984 . S
H480 N468 0.984 . S
H481 N468 0.985 . S
C482 C483 1.363 1_545 S
C482 C488 1.379 . S
C482 N490 1.356 . S
C483 C482 1.363 1_565 S
C483 C489 1.363 . S
C484 C485 1.363 1_565 S
C484 C489 1.379 . S
C484 N491 1.356 . S
C485 C484 1.363 1_545 S
C485 C488 1.363 . S
N486 C488 1.356 . S
N486 H498 0.984 . S
N486 H499 0.985 . S
N487 C489 1.356 . S
N487 H492 0.984 . S
N487 H493 0.985 . S
C488 C482 1.379 . S
C488 C485 1.363 . S
C488 N486 1.356 . S
C489 C483 1.363 . S
C489 C484 1.379 . S
C489 N487 1.356 . S
N490 C482 1.356 . S
N490 H496 0.984 . S
N490 H497 0.984 . S
N491 C484 1.356 . S
N491 H494 0.984 1_565 S
N491 H495 0.985 . S
H492 N487 0.984 . S
H493 N487 0.985 . S
H494 N491 0.984 1_545 S
H495 N491 0.985 . S
H496 N490 0.984 . S
H497 N490 0.984 . S
H498 N486 0.984 . S
H499 N486 0.985 . S
C500 C501 1.363 . S
C500 C506 1.379 . S
C500 N508 1.356 . S
C501 C500 1.363 . S
C501 C507 1.363 . S
C502 C503 1.363 . S
C502 C507 1.379 . S
C502 N509 1.356 . S
C503 C502 1.363 . S
C503 C506 1.363 . S
N504 C506 1.356 1_554 S
N504 H516 0.984 . S
N504 H517 0.985 . S
N505 C507 1.356 . S
N505 H510 0.984 . S
N505 H511 0.985 . S
C506 C500 1.379 . S
C506 C503 1.363 . S
C506 N504 1.356 1_556 S
C507 C501 1.363 . S
C507 C502 1.379 . S
C507 N505 1.356 . S
N508 C500 1.356 . S
N508 H514 0.984 1_556 S
N508 H515 0.984 . S
N509 C502 1.356 . S
N509 H512 0.984 . S
N509 H513 0.985 . S
H510 N505 0.984 . S
H511 N505 0.985 . S
H512 N509 0.984 . S
H513 N509 0.985 . S
H514 N508 0.984 1_554 S
H515 N508 0.984 . S
H516 N504 0.984 . S
H517 N504 0.985 . S
C518 C519 1.363 . S
C518 C524 1.379 . S
C518 N526 1.356 . S
C519 C518 1.363 . S
C519 C525 1.363 . S
C520 C521 1.363 . S
C520 C525 1.379 . S
C520 N527 1.356 . S
C521 C520 1.363 . S
C521 C524 1.363 . S
N522 C524 1.356 . S
N522 H534 0.984 . S
N522 H535 0.985 . S
N523 C525 1.356 . S
N523 H528 0.984 . S
N523 H529 0.985 . S
C524 C518 1.379 . S
C524 C521 1.363 . S
C524 N522 1.356 . S
C525 C519 1.363 . S
C525 C520 1.379 . S
C525 N523 1.356 . S
N526 C518 1.356 . S
N526 H532 0.984 . S
N526 H533 0.984 . S
N527 C520 1.356 . S
N527 H530 0.984 . S
N527 H531 0.985 . S
H528 N523 0.984 . S
H529 N523 0.985 . S
H530 N527 0.984 . S
H531 N527 0.985 . S
H532 N526 0.984 . S
H533 N526 0.984 . S
H534 N522 0.984 . S
H535 N522 0.985 . S
C536 C537 1.363 1_655 S
C536 C542 1.376 1_655 S
C536 N544 1.356 . S
C537 C536 1.363 1_455 S
C537 C543 1.363 1_554 S
C538 C539 1.363 . S
C538 C543 1.379 . S
C538 N545 1.356 . S
C539 C538 1.363 . S
C539 C542 1.370 1_556 S
N540 C542 1.353 1_655 S
N540 H552 0.984 . S
N540 H553 0.985 1_655 S
N541 C543 1.356 . S
N541 H546 0.984 . S
N541 H547 0.985 . S
C542 C536 1.376 1_455 S
C542 C539 1.370 1_554 S
C542 N540 1.353 1_455 S
C543 C537 1.363 1_556 S
C543 C538 1.379 . S
C543 N541 1.356 . S
N544 C536 1.356 . S
N544 H550 0.984 . S
N544 H551 0.984 . S
N545 C538 1.356 . S
N545 H548 0.984 . S
N545 H549 0.985 . S
H546 N541 0.984 . S
H547 N541 0.985 . S
H548 N545 0.984 . S
H549 N545 0.985 . S
H550 N544 0.984 . S
H551 N544 0.984 . S
H552 N540 0.984 . S
H553 N540 0.985 1_455 S
C554 C555 1.363 1_565 S
C554 C560 1.379 . S
C554 N562 1.356 . S
C555 C554 1.363 1_545 S
C555 C561 1.363 1_556 S
C556 C557 1.363 1_554 S
C556 C561 1.379 . S
C556 N563 1.356 . S
C557 C556 1.363 1_556 S
C557 C560 1.363 1_545 S
N558 C560 1.356 . S
N558 H570 0.984 . S
N558 H571 0.985 . S
N559 C561 1.356 . S
N559 H564 0.984 . S
N559 H565 0.985 . S
C560 C554 1.379 . S
C560 C557 1.363 1_565 S
C560 N558 1.356 . S
C561 C555 1.363 1_554 S
C561 C556 1.379 . S
C561 N559 1.356 . S
N562 C554 1.356 . S
N562 H568 0.984 . S
N562 H569 0.984 . S
N563 C556 1.356 . S
N563 H566 0.984 . S
N563 H567 0.985 . S
H564 N559 0.984 . S
H565 N559 0.985 . S
H566 N563 0.984 . S
H567 N563 0.985 . S
H568 N562 0.984 . S
H569 N562 0.984 . S
H570 N558 0.984 . S
H571 N558 0.985 . S
C572 C573 1.363 . S
C572 C578 1.379 . S
C572 N580 1.356 . S
C573 C572 1.363 . S
C573 C579 1.363 . S
C574 C575 1.363 . S
C574 C579 1.379 . S
C574 N581 1.356 . S
C575 C574 1.363 . S
C575 C578 1.363 . S
N576 C578 1.356 . S
N576 H588 0.984 . S
N576 H589 0.985 . S
N577 C579 1.356 . S
N577 H582 0.984 . S
N577 H583 0.985 . S
C578 C572 1.379 . S
C578 C575 1.363 . S
C578 N576 1.356 . S
C579 C573 1.363 . S
C579 C574 1.379 . S
C579 N577 1.356 . S
N580 C572 1.356 . S
N580 H586 0.984 . S
N580 H587 0.984 . S
N581 C574 1.356 . S
N581 H584 0.984 . S
N581 H585 0.985 . S
H582 N577 0.984 . S
H583 N577 0.985 . S
H584 N581 0.984 . S
H585 N581 0.985 . S
H586 N580 0.984 . S
H587 N580 0.984 . S
H588 N576 0.984 . S
H589 N576 0.985 . S
C590 C591 1.363 . S
C590 C596 1.379 . S
C590 N598 1.356 . S
C591 C590 1.363 . S
C591 C597 1.363 1_556 S
C592 C593 1.363 1_554 S
C592 C597 1.379 . S
C592 N599 1.356 . S
C593 C592 1.363 1_556 S
C593 C596 1.363 . S
N594 C596 1.356 . S
N594 H606 0.984 . S
N594 H607 0.985 . S
N595 C597 1.356 . S
N595 H600 0.984 . S
N595 H601 0.985 . S
C596 C590 1.379 . S
C596 C593 1.363 . S
C596 N594 1.356 . S
C597 C591 1.363 1_554 S
C597 C592 1.379 . S
C597 N595 1.356 . S
N598 C590 1.356 . S
N598 H604 0.984 . S
N598 H605 0.984 . S
N599 C592 1.356 . S
N599 H602 0.984 . S
N599 H603 0.985 . S
H600 N595 0.984 . S
H601 N595 0.985 . S
H602 N599 0.984 . S
H603 N599 0.985 . S
H604 N598 0.984 . S
H605 N598 0.984 . S
H606 N594 0.984 . S
H607 N594 0.985 . S
C608 C609 1.363 1_455 S
C608 C614 1.379 . S
C608 N616 1.356 . S
C609 C608 1.363 1_655 S
C609 C615 1.363 . S
C610 C611 1.363 . S
C610 C615 1.379 . S
C610 N617 1.356 . S
C611 C610 1.363 . S
C611 C614 1.363 1_655 S
N612 C614 1.356 . S
N612 H624 0.984 . S
N612 H625 0.985 . S
N613 C615 1.356 . S
N613 H618 0.984 . S
N613 H619 0.985 . S
C614 C608 1.379 . S
C614 C611 1.363 1_455 S
C614 N612 1.356 . S
C615 C609 1.363 . S
C615 C610 1.379 . S
C615 N613 1.356 . S
N616 C608 1.356 . S
N616 H622 0.984 . S
N616 H623 0.984 . S
N617 C610 1.356 . S
N617 H620 0.984 . S
N617 H621 0.985 . S
H618 N613 0.984 . S
H619 N613 0.985 . S
H620 N617 0.984 . S
H621 N617 0.985 . S
H622 N616 0.984 . S
H623 N616 0.984 . S
H624 N612 0.984 . S
H625 N612 0.985 . S
C626 C627 1.363 1_545 S
C626 C632 1.379 . S
C626 N634 1.356 . S
C627 C626 1.363 1_565 S
C627 C633 1.363 . S
C628 C629 1.363 . S
C628 C633 1.379 . S
C628 N635 1.356 . S
C629 C628 1.363 . S
C629 C632 1.363 1_565 S
N630 C632 1.356 . S
N630 H642 0.984 . S
N630 H643 0.985 . S
N631 C633 1.356 . S
N631 H636 0.984 . S
N631 H637 0.985 . S
C632 C626 1.379 . S
C632 C629 1.363 1_545 S
C632 N630 1.356 . S
C633 C627 1.363 . S
C633 C628 1.379 . S
C633 N631 1.356 . S
N634 C626 1.356 . S
N634 H640 0.984 . S
N634 H641 0.984 . S
N635 C628 1.356 . S
N635 H638 0.984 . S
N635 H639 0.985 . S
H636 N631 0.984 . S
H637 N631 0.985 . S
H638 N635 0.984 . S
H639 N635 0.985 . S
H640 N634 0.984 . S
H641 N634 0.984 . S
H642 N630 0.984 . S
H643 N630 0.985 . S
C644 C645 1.363 . S
C644 C650 1.379 . S
C644 N652 1.356 . S
C645 C644 1.363 . S
C645 C651 1.363 . S
C646 C647 1.363 . S
C646 C651 1.379 . S
C646 N653 1.356 . S
C647 C646 1.363 . S
C647 C650 1.363 . S
N648 C650 1.356 . S
N648 H660 0.984 . S
N648 H661 0.985 . S
N649 C651 1.356 . S
N649 H654 0.984 . S
N649 H655 0.985 . S
C650 C644 1.379 . S
C650 C647 1.363 . S
C650 N648 1.356 . S
C651 C645 1.363 . S
C651 C646 1.379 . S
C651 N649 1.356 . S
N652 C644 1.356 . S
N652 H658 0.984 . S
N652 H659 0.984 . S
N653 C646 1.356 . S
N653 H656 0.984 . S
N653 H657 0.985 . S
H654 N649 0.984 . S
H655 N649 0.985 . S
H656 N653 0.984 . S
H657 N653 0.985 . S
H658 N652 0.984 . S
H659 N652 0.984 . S
H660 N648 0.984 . S
H661 N648 0.985 . S
C662 C663 1.363 . S
C662 C668 1.379 . S
C662 N670 1.356 . S
C663 C662 1.363 . S
C663 C669 1.363 . S
C664 C665 1.363 . S
C664 C669 1.379 . S
C664 N671 1.356 . S
C665 C664 1.363 . S
C665 C668 1.363 . S
N666 C668 1.356 . S
N666 H678 0.984 . S
N666 H679 0.985 . S
N667 C669 1.356 . S
N667 H672 0.984 . S
N667 H673 0.985 . S
C668 C662 1.379 . S
C668 C665 1.363 . S
C668 N666 1.356 . S
C669 C663 1.363 . S
C669 C664 1.379 . S
C669 N667 1.356 . S
N670 C662 1.356 . S
N670 H676 0.984 . S
N670 H677 0.984 . S
N671 C664 1.356 . S
N671 H674 0.984 . S
N671 H675 0.985 . S
H672 N667 0.984 . S
H673 N667 0.985 . S
H674 N671 0.984 . S
H675 N671 0.985 . S
H676 N670 0.984 . S
H677 N670 0.984 . S
H678 N666 0.984 . S
H679 N666 0.985 . S
C249 C74 2.020 . S
C251 C111 2.196 1_545 S
C269 C151 1.808 . S
C267 C85 1.823 . S
C287 C170 2.232 . S
C285 C52 2.074 . S
C305 C231 1.518 1_455 S
C303 C63 1.401 . S
C323 C90 2.209 1_564 S
C321 C30 2.022 1_565 S
C339 C41 1.777 . S
C341 C130 1.812 . S
C357 C8 2.007 . S
C359 C191 2.232 1_554 S
C375 C19 1.401 1_655 S
C377 C210 1.520 1_654 S
C395 C92 1.192 . S
C393 C62 1.300 1_655 S
C413 C132 0.621 . S
C411 C73 0.589 . S
C431 C188 1.457 . S
C429 C84 1.481 . S
C447 C51 0.796 . S
C449 C212 0.782 . S
C465 C18 1.171 . S
C467 C113 1.196 . S
C485 C153 0.621 . S
C483 C29 0.642 1_565 S
C503 C199 1.457 . S
C501 C40 1.350 . S
C519 C7 0.774 . S
C521 C233 0.788 . S
C537 C60 1.325 . S
C539 C108 1.845 . S
C555 C71 1.993 1_556 S
C557 C148 2.560 . S
C575 C172 1.590 . S
C573 C82 1.255 . S
C593 C228 2.557 . S
C591 C49 2.076 1_556 S
C609 C16 1.470 1_655 S
C611 C119 1.854 . S
C629 C159 2.559 . S
C627 C27 2.048 1_565 S
C647 C193 1.590 . S
C645 C38 1.514 . S
C663 C5 1.968 . S
C665 C239 2.561 . S
