# Generated by pormake.
# Topology tbo, (3,4)-cn, num edge types: 1
# Building blocks:
#     Node 0, Type 0, BuildingBlock: WUSLED_clean_sbu_0, # of connection points: 3
#     Node 1, Type 0, BuildingBlock: WUSLED_clean_sbu_0, # of connection points: 3
#     Node 2, Type 0, BuildingBlock: WUSLED_clean_sbu_0, # of connection points: 3
#     Node 3, Type 0, BuildingBlock: WUSLED_clean_sbu_0, # of connection points: 3
#     Node 4, Type 0, BuildingBlock: WUSLED_clean_sbu_0, # of connection points: 3
#     Node 5, Type 0, BuildingBlock: WUSLED_clean_sbu_0, # of connection points: 3
#     Node 6, Type 0, BuildingBlock: WUSLED_clean_sbu_0, # of connection points: 3
#     Node 7, Type 0, BuildingBlock: WUSLED_clean_sbu_0, # of connection points: 3
#     Node 8, Type 0, BuildingBlock: WUSLED_clean_sbu_0, # of connection points: 3
#     Node 9, Type 0, BuildingBlock: WUSLED_clean_sbu_0, # of connection points: 3
#     Node 10, Type 0, BuildingBlock: WUSLED_clean_sbu_0, # of connection points: 3
#     Node 11, Type 0, BuildingBlock: WUSLED_clean_sbu_0, # of connection points: 3
#     Node 12, Type 0, BuildingBlock: WUSLED_clean_sbu_0, # of connection points: 3
#     Node 13, Type 0, BuildingBlock: WUSLED_clean_sbu_0, # of connection points: 3
#     Node 14, Type 0, BuildingBlock: WUSLED_clean_sbu_0, # of connection points: 3
#     Node 15, Type 0, BuildingBlock: WUSLED_clean_sbu_0, # of connection points: 3
#     Node 16, Type 0, BuildingBlock: WUSLED_clean_sbu_0, # of connection points: 3
#     Node 17, Type 0, BuildingBlock: WUSLED_clean_sbu_0, # of connection points: 3
#     Node 18, Type 0, BuildingBlock: WUSLED_clean_sbu_0, # of connection points: 3
#     Node 19, Type 0, BuildingBlock: WUSLED_clean_sbu_0, # of connection points: 3
#     Node 20, Type 0, BuildingBlock: WUSLED_clean_sbu_0, # of connection points: 3
#     Node 21, Type 0, BuildingBlock: WUSLED_clean_sbu_0, # of connection points: 3
#     Node 22, Type 0, BuildingBlock: WUSLED_clean_sbu_0, # of connection points: 3
#     Node 23, Type 0, BuildingBlock: WUSLED_clean_sbu_0, # of connection points: 3
#     Node 24, Type 0, BuildingBlock: WUSLED_clean_sbu_0, # of connection points: 3
#     Node 25, Type 0, BuildingBlock: WUSLED_clean_sbu_0, # of connection points: 3
#     Node 26, Type 0, BuildingBlock: WUSLED_clean_sbu_0, # of connection points: 3
#     Node 27, Type 0, BuildingBlock: WUSLED_clean_sbu_0, # of connection points: 3
#     Node 28, Type 0, BuildingBlock: WUSLED_clean_sbu_0, # of connection points: 3
#     Node 29, Type 0, BuildingBlock: WUSLED_clean_sbu_0, # of connection points: 3
#     Node 30, Type 0, BuildingBlock: WUSLED_clean_sbu_0, # of connection points: 3
#     Node 31, Type 0, BuildingBlock: WUSLED_clean_sbu_0, # of connection points: 3
#     Node 32, Type 1, BuildingBlock: ESEHIV_clean_sbu_0, # of connection points: 4
#     Node 33, Type 1, BuildingBlock: ESEHIV_clean_sbu_0, # of connection points: 4
#     Node 34, Type 1, BuildingBlock: ESEHIV_clean_sbu_0, # of connection points: 4
#     Node 35, Type 1, BuildingBlock: ESEHIV_clean_sbu_0, # of connection points: 4
#     Node 36, Type 1, BuildingBlock: ESEHIV_clean_sbu_0, # of connection points: 4
#     Node 37, Type 1, BuildingBlock: ESEHIV_clean_sbu_0, # of connection points: 4
#     Node 38, Type 1, BuildingBlock: ESEHIV_clean_sbu_0, # of connection points: 4
#     Node 39, Type 1, BuildingBlock: ESEHIV_clean_sbu_0, # of connection points: 4
#     Node 40, Type 1, BuildingBlock: ESEHIV_clean_sbu_0, # of connection points: 4
#     Node 41, Type 1, BuildingBlock: ESEHIV_clean_sbu_0, # of connection points: 4
#     Node 42, Type 1, BuildingBlock: ESEHIV_clean_sbu_0, # of connection points: 4
#     Node 43, Type 1, BuildingBlock: ESEHIV_clean_sbu_0, # of connection points: 4
#     Node 44, Type 1, BuildingBlock: ESEHIV_clean_sbu_0, # of connection points: 4
#     Node 45, Type 1, BuildingBlock: ESEHIV_clean_sbu_0, # of connection points: 4
#     Node 46, Type 1, BuildingBlock: ESEHIV_clean_sbu_0, # of connection points: 4
#     Node 47, Type 1, BuildingBlock: ESEHIV_clean_sbu_0, # of connection points: 4
#     Node 48, Type 1, BuildingBlock: ESEHIV_clean_sbu_0, # of connection points: 4
#     Node 49, Type 1, BuildingBlock: ESEHIV_clean_sbu_0, # of connection points: 4
#     Node 50, Type 1, BuildingBlock: ESEHIV_clean_sbu_0, # of connection points: 4
#     Node 51, Type 1, BuildingBlock: ESEHIV_clean_sbu_0, # of connection points: 4
#     Node 52, Type 1, BuildingBlock: ESEHIV_clean_sbu_0, # of connection points: 4
#     Node 53, Type 1, BuildingBlock: ESEHIV_clean_sbu_0, # of connection points: 4
#     Node 54, Type 1, BuildingBlock: ESEHIV_clean_sbu_0, # of connection points: 4
#     Node 55, Type 1, BuildingBlock: ESEHIV_clean_sbu_0, # of connection points: 4
#     Edge 56, Type (0, 1), BuildingBlock: MIFKUJ_clean_linker_0, # of connection points: 2
#     Edge 57, Type (0, 1), BuildingBlock: MIFKUJ_clean_linker_0, # of connection points: 2
#     Edge 58, Type (0, 1), BuildingBlock: MIFKUJ_clean_linker_0, # of connection points: 2
#     Edge 59, Type (0, 1), BuildingBlock: MIFKUJ_clean_linker_0, # of connection points: 2
#     Edge 60, Type (0, 1), BuildingBlock: MIFKUJ_clean_linker_0, # of connection points: 2
#     Edge 61, Type (0, 1), BuildingBlock: MIFKUJ_clean_linker_0, # of connection points: 2
#     Edge 62, Type (0, 1), BuildingBlock: MIFKUJ_clean_linker_0, # of connection points: 2
#     Edge 63, Type (0, 1), BuildingBlock: MIFKUJ_clean_linker_0, # of connection points: 2
#     Edge 64, Type (0, 1), BuildingBlock: MIFKUJ_clean_linker_0, # of connection points: 2
#     Edge 65, Type (0, 1), BuildingBlock: MIFKUJ_clean_linker_0, # of connection points: 2
#     Edge 66, Type (0, 1), BuildingBlock: MIFKUJ_clean_linker_0, # of connection points: 2
#     Edge 67, Type (0, 1), BuildingBlock: MIFKUJ_clean_linker_0, # of connection points: 2
#     Edge 68, Type (0, 1), BuildingBlock: MIFKUJ_clean_linker_0, # of connection points: 2
#     Edge 69, Type (0, 1), BuildingBlock: MIFKUJ_clean_linker_0, # of connection points: 2
#     Edge 70, Type (0, 1), BuildingBlock: MIFKUJ_clean_linker_0, # of connection points: 2
#     Edge 71, Type (0, 1), BuildingBlock: MIFKUJ_clean_linker_0, # of connection points: 2
#     Edge 72, Type (0, 1), BuildingBlock: MIFKUJ_clean_linker_0, # of connection points: 2
#     Edge 73, Type (0, 1), BuildingBlock: MIFKUJ_clean_linker_0, # of connection points: 2
#     Edge 74, Type (0, 1), BuildingBlock: MIFKUJ_clean_linker_0, # of connection points: 2
#     Edge 75, Type (0, 1), BuildingBlock: MIFKUJ_clean_linker_0, # of connection points: 2
#     Edge 76, Type (0, 1), BuildingBlock: MIFKUJ_clean_linker_0, # of connection points: 2
#     Edge 77, Type (0, 1), BuildingBlock: MIFKUJ_clean_linker_0, # of connection points: 2
#     Edge 78, Type (0, 1), BuildingBlock: MIFKUJ_clean_linker_0, # of connection points: 2
#     Edge 79, Type (0, 1), BuildingBlock: MIFKUJ_clean_linker_0, # of connection points: 2
#     Edge 80, Type (0, 1), BuildingBlock: MIFKUJ_clean_linker_0, # of connection points: 2
#     Edge 81, Type (0, 1), BuildingBlock: MIFKUJ_clean_linker_0, # of connection points: 2
#     Edge 82, Type (0, 1), BuildingBlock: MIFKUJ_clean_linker_0, # of connection points: 2
#     Edge 83, Type (0, 1), BuildingBlock: MIFKUJ_clean_linker_0, # of connection points: 2
#     Edge 84, Type (0, 1), BuildingBlock: MIFKUJ_clean_linker_0, # of connection points: 2
#     Edge 85, Type (0, 1), BuildingBlock: MIFKUJ_clean_linker_0, # of connection points: 2
#     Edge 86, Type (0, 1), BuildingBlock: MIFKUJ_clean_linker_0, # of connection points: 2
#     Edge 87, Type (0, 1), BuildingBlock: MIFKUJ_clean_linker_0, # of connection points: 2
#     Edge 88, Type (0, 1), BuildingBlock: MIFKUJ_clean_linker_0, # of connection points: 2
#     Edge 89, Type (0, 1), BuildingBlock: MIFKUJ_clean_linker_0, # of connection points: 2
#     Edge 90, Type (0, 1), BuildingBlock: MIFKUJ_clean_linker_0, # of connection points: 2
#     Edge 91, Type (0, 1), BuildingBlock: MIFKUJ_clean_linker_0, # of connection points: 2
#     Edge 92, Type (0, 1), BuildingBlock: MIFKUJ_clean_linker_0, # of connection points: 2
#     Edge 93, Type (0, 1), BuildingBlock: MIFKUJ_clean_linker_0, # of connection points: 2
#     Edge 94, Type (0, 1), BuildingBlock: MIFKUJ_clean_linker_0, # of connection points: 2
#     Edge 95, Type (0, 1), BuildingBlock: MIFKUJ_clean_linker_0, # of connection points: 2
#     Edge 96, Type (0, 1), BuildingBlock: MIFKUJ_clean_linker_0, # of connection points: 2
#     Edge 97, Type (0, 1), BuildingBlock: MIFKUJ_clean_linker_0, # of connection points: 2
#     Edge 98, Type (0, 1), BuildingBlock: MIFKUJ_clean_linker_0, # of connection points: 2
#     Edge 99, Type (0, 1), BuildingBlock: MIFKUJ_clean_linker_0, # of connection points: 2
#     Edge 100, Type (0, 1), BuildingBlock: MIFKUJ_clean_linker_0, # of connection points: 2
#     Edge 101, Type (0, 1), BuildingBlock: MIFKUJ_clean_linker_0, # of connection points: 2
#     Edge 102, Type (0, 1), BuildingBlock: MIFKUJ_clean_linker_0, # of connection points: 2
#     Edge 103, Type (0, 1), BuildingBlock: MIFKUJ_clean_linker_0, # of connection points: 2
#     Edge 104, Type (0, 1), BuildingBlock: MIFKUJ_clean_linker_0, # of connection points: 2
#     Edge 105, Type (0, 1), BuildingBlock: MIFKUJ_clean_linker_0, # of connection points: 2
#     Edge 106, Type (0, 1), BuildingBlock: MIFKUJ_clean_linker_0, # of connection points: 2
#     Edge 107, Type (0, 1), BuildingBlock: MIFKUJ_clean_linker_0, # of connection points: 2
#     Edge 108, Type (0, 1), BuildingBlock: MIFKUJ_clean_linker_0, # of connection points: 2
#     Edge 109, Type (0, 1), BuildingBlock: MIFKUJ_clean_linker_0, # of connection points: 2
#     Edge 110, Type (0, 1), BuildingBlock: MIFKUJ_clean_linker_0, # of connection points: 2
#     Edge 111, Type (0, 1), BuildingBlock: MIFKUJ_clean_linker_0, # of connection points: 2
#     Edge 112, Type (0, 1), BuildingBlock: MIFKUJ_clean_linker_0, # of connection points: 2
#     Edge 113, Type (0, 1), BuildingBlock: MIFKUJ_clean_linker_0, # of connection points: 2
#     Edge 114, Type (0, 1), BuildingBlock: MIFKUJ_clean_linker_0, # of connection points: 2
#     Edge 115, Type (0, 1), BuildingBlock: MIFKUJ_clean_linker_0, # of connection points: 2
#     Edge 116, Type (0, 1), BuildingBlock: MIFKUJ_clean_linker_0, # of connection points: 2
#     Edge 117, Type (0, 1), BuildingBlock: MIFKUJ_clean_linker_0, # of connection points: 2
#     Edge 118, Type (0, 1), BuildingBlock: MIFKUJ_clean_linker_0, # of connection points: 2
#     Edge 119, Type (0, 1), BuildingBlock: MIFKUJ_clean_linker_0, # of connection points: 2
#     Edge 120, Type (0, 1), BuildingBlock: MIFKUJ_clean_linker_0, # of connection points: 2
#     Edge 121, Type (0, 1), BuildingBlock: MIFKUJ_clean_linker_0, # of connection points: 2
#     Edge 122, Type (0, 1), BuildingBlock: MIFKUJ_clean_linker_0, # of connection points: 2
#     Edge 123, Type (0, 1), BuildingBlock: MIFKUJ_clean_linker_0, # of connection points: 2
#     Edge 124, Type (0, 1), BuildingBlock: MIFKUJ_clean_linker_0, # of connection points: 2
#     Edge 125, Type (0, 1), BuildingBlock: MIFKUJ_clean_linker_0, # of connection points: 2
#     Edge 126, Type (0, 1), BuildingBlock: MIFKUJ_clean_linker_0, # of connection points: 2
#     Edge 127, Type (0, 1), BuildingBlock: MIFKUJ_clean_linker_0, # of connection points: 2
#     Edge 128, Type (0, 1), BuildingBlock: MIFKUJ_clean_linker_0, # of connection points: 2
#     Edge 129, Type (0, 1), BuildingBlock: MIFKUJ_clean_linker_0, # of connection points: 2
#     Edge 130, Type (0, 1), BuildingBlock: MIFKUJ_clean_linker_0, # of connection points: 2
#     Edge 131, Type (0, 1), BuildingBlock: MIFKUJ_clean_linker_0, # of connection points: 2
#     Edge 132, Type (0, 1), BuildingBlock: MIFKUJ_clean_linker_0, # of connection points: 2
#     Edge 133, Type (0, 1), BuildingBlock: MIFKUJ_clean_linker_0, # of connection points: 2
#     Edge 134, Type (0, 1), BuildingBlock: MIFKUJ_clean_linker_0, # of connection points: 2
#     Edge 135, Type (0, 1), BuildingBlock: MIFKUJ_clean_linker_0, # of connection points: 2
#     Edge 136, Type (0, 1), BuildingBlock: MIFKUJ_clean_linker_0, # of connection points: 2
#     Edge 137, Type (0, 1), BuildingBlock: MIFKUJ_clean_linker_0, # of connection points: 2
#     Edge 138, Type (0, 1), BuildingBlock: MIFKUJ_clean_linker_0, # of connection points: 2
#     Edge 139, Type (0, 1), BuildingBlock: MIFKUJ_clean_linker_0, # of connection points: 2
#     Edge 140, Type (0, 1), BuildingBlock: MIFKUJ_clean_linker_0, # of connection points: 2
#     Edge 141, Type (0, 1), BuildingBlock: MIFKUJ_clean_linker_0, # of connection points: 2
#     Edge 142, Type (0, 1), BuildingBlock: MIFKUJ_clean_linker_0, # of connection points: 2
#     Edge 143, Type (0, 1), BuildingBlock: MIFKUJ_clean_linker_0, # of connection points: 2
#     Edge 144, Type (0, 1), BuildingBlock: MIFKUJ_clean_linker_0, # of connection points: 2
#     Edge 145, Type (0, 1), BuildingBlock: MIFKUJ_clean_linker_0, # of connection points: 2
#     Edge 146, Type (0, 1), BuildingBlock: MIFKUJ_clean_linker_0, # of connection points: 2
#     Edge 147, Type (0, 1), BuildingBlock: MIFKUJ_clean_linker_0, # of connection points: 2
#     Edge 148, Type (0, 1), BuildingBlock: MIFKUJ_clean_linker_0, # of connection points: 2
#     Edge 149, Type (0, 1), BuildingBlock: MIFKUJ_clean_linker_0, # of connection points: 2
#     Edge 150, Type (0, 1), BuildingBlock: MIFKUJ_clean_linker_0, # of connection points: 2
#     Edge 151, Type (0, 1), BuildingBlock: MIFKUJ_clean_linker_0, # of connection points: 2
# Relax obj value: 0.001
# Max RMSD: 0.113
# Mean RMSD: 0.046
data_MOF--net-tbo--node1-WUSLED_clean_sbu_0--node2-ESEHIV_clean_sbu_0--edge1-MIFKUJ_clean_linker_0
_symmetry_space_group_name_H-M    P1
_symmetry_Int_Tables_number       1
_symmetry_cell_setting            triclinic
loop_
_symmetry_equiv_pos_as_xyz
'x, y, z'
_cell_length_a     117.80967
_cell_length_b     117.74502
_cell_length_c     117.75379
_cell_angle_alpha  89.680481
_cell_angle_beta   91.658409
_cell_angle_gamma 91.123574
loop_
_atom_site_label
_atom_site_type_symbol
_atom_site_fract_x
_atom_site_fract_y
_atom_site_fract_z
_atom_type_partial_charge
C0 C 0.19624 0.15064 0.2053 0.0
C1 C 0.20699 0.14883 0.20086 0.0
C2 C 0.2083 0.13075 0.21111 0.0
C3 C 0.21299 0.13898 0.20377 0.0
C4 C 0.19752 0.13269 0.2155 0.0
C5 C 0.19158 0.1425 0.21262 0.0
U6 U 0.18946 0.17781 0.18784 0.0
O7 O 0.17269 0.18427 0.1825 0.0
O8 O 0.18378 0.19435 0.19399 0.0
C9 C 0.17373 0.19336 0.1889 0.0
C10 C 0.18968 0.16091 0.20257 0.0
C11 C 0.16387 0.196 0.19585 0.0
C12 C 0.15131 0.19196 0.21152 0.0
C13 C 0.16071 0.18916 0.20508 0.0
C14 C 0.14814 0.20843 0.19955 0.0
C15 C 0.14491 0.20167 0.20887 0.0
C16 C 0.1575 0.20562 0.19314 0.0
C17 C 0.2086 0.18617 0.16232 0.0
C18 C 0.20707 0.19153 0.14227 0.0
C19 C 0.22342 0.1978 0.15363 0.0
C20 C 0.21899 0.19223 0.16312 0.0
C21 C 0.21762 0.19737 0.14302 0.0
C22 C 0.20263 0.18599 0.15179 0.0
C23 C 0.2049 0.17907 0.1721 0.0
O24 O 0.19489 0.17073 0.20442 0.0
O25 O 0.18366 0.16069 0.193 0.0
O26 O 0.19529 0.17325 0.17089 0.0
O27 O 0.20642 0.18341 0.18231 0.0
H28 H 0.21073 0.15502 0.19517 0.0
H29 H 0.22123 0.13774 0.20018 0.0
H30 H 0.19371 0.12668 0.22134 0.0
H31 H 0.18332 0.14376 0.21618 0.0
H32 H 0.14916 0.18661 0.21868 0.0
H33 H 0.16553 0.18169 0.20733 0.0
H34 H 0.14335 0.21585 0.1971 0.0
H35 H 0.15976 0.21099 0.18602 0.0
H36 H 0.20229 0.19113 0.13428 0.0
H37 H 0.23162 0.20206 0.15452 0.0
H38 H 0.22391 0.19238 0.17104 0.0
H39 H 0.19464 0.18134 0.1508 0.0
C40 C 0.83779 0.19661 0.16108 0.0
C41 C 0.83583 0.20833 0.16183 0.0
C42 C 0.82982 0.20901 0.14179 0.0
C43 C 0.83188 0.21444 0.1523 0.0
C44 C 0.83196 0.19731 0.14107 0.0
C45 C 0.83584 0.1912 0.1506 0.0
U46 U 0.85813 0.19027 0.18647 0.0
O47 O 0.85442 0.18438 0.2038 0.0
O48 O 0.86462 0.17392 0.19279 0.0
C49 C 0.8596 0.1747 0.20257 0.0
C50 C 0.84146 0.18977 0.17112 0.0
C51 C 0.85354 0.16439 0.20657 0.0
C52 C 0.83915 0.14936 0.20428 0.0
C53 C 0.8445 0.15933 0.20029 0.0
C54 C 0.85177 0.14952 0.22087 0.0
C55 C 0.84279 0.14426 0.21459 0.0
C56 C 0.85707 0.15944 0.2169 0.0
C57 C 0.884 0.21089 0.19124 0.0
C58 C 0.89852 0.20971 0.20632 0.0
C59 C 0.89961 0.22471 0.19221 0.0
C60 C 0.88962 0.2205 0.18692 0.0
C61 C 0.90423 0.21937 0.20197 0.0
C62 C 0.88849 0.2055 0.20098 0.0
C63 C 0.87351 0.20674 0.18535 0.0
O64 O 0.85087 0.18409 0.17011 0.0
O65 O 0.84065 0.19451 0.18115 0.0
O66 O 0.86406 0.20759 0.19091 0.0
O67 O 0.8742 0.19709 0.17988 0.0
H68 H 0.83724 0.21277 0.16979 0.0
H69 H 0.83022 0.22339 0.15326 0.0
H70 H 0.83069 0.19285 0.1331 0.0
H71 H 0.83728 0.18218 0.14978 0.0
H72 H 0.83233 0.14552 0.19917 0.0
H73 H 0.84165 0.16302 0.19228 0.0
H74 H 0.85468 0.146 0.22893 0.0
H75 H 0.864 0.16324 0.2219 0.0
H76 H 0.90188 0.20532 0.21375 0.0
H77 H 0.90362 0.23225 0.18872 0.0
H78 H 0.88626 0.2248 0.17943 0.0
H79 H 0.88428 0.19804 0.20443 0.0
C80 C 0.83333 0.84976 0.15174 0.0
C81 C 0.84012 0.84073 0.14848 0.0
C82 C 0.82716 0.8366 0.13231 0.0
C83 C 0.83708 0.83422 0.13883 0.0
C84 C 0.8205 0.84574 0.13562 0.0
C85 C 0.82354 0.85221 0.14521 0.0
U86 U 0.85049 0.85804 0.17941 0.0
O87 O 0.85535 0.87524 0.18546 0.0
O88 O 0.84384 0.8645 0.19537 0.0
C89 C 0.8488 0.87454 0.19429 0.0
C90 C 0.8361 0.85681 0.16186 0.0
C91 C 0.84191 0.88461 0.19676 0.0
C92 C 0.82387 0.89444 0.19731 0.0
C93 C 0.83024 0.8851 0.19396 0.0
C94 C 0.84078 0.90299 0.20602 0.0
C95 C 0.82902 0.90344 0.20356 0.0
C96 C 0.84711 0.89371 0.20267 0.0
C97 C 0.87602 0.83945 0.18967 0.0
C98 C 0.8906 0.84365 0.20427 0.0
C99 C 0.88962 0.82508 0.19556 0.0
C100 C 0.88029 0.82847 0.18882 0.0
C101 C 0.89495 0.83261 0.20338 0.0
C102 C 0.88122 0.84703 0.19748 0.0
C103 C 0.86642 0.84273 0.182 0.0
O104 O 0.83411 0.85217 0.17179 0.0
O105 O 0.84569 0.86271 0.16178 0.0
O106 O 0.86771 0.85214 0.17609 0.0
O107 O 0.85616 0.84143 0.18597 0.0
H108 H 0.84772 0.83869 0.15342 0.0
H109 H 0.84238 0.82721 0.1366 0.0
H110 H 0.81293 0.84799 0.13074 0.0
H111 H 0.81821 0.85917 0.14753 0.0
H112 H 0.81484 0.89444 0.1953 0.0
H113 H 0.82601 0.87819 0.1894 0.0
H114 H 0.84511 0.90982 0.21062 0.0
H115 H 0.8561 0.89355 0.20491 0.0
H116 H 0.89438 0.84965 0.21026 0.0
H117 H 0.89279 0.8166 0.19444 0.0
H118 H 0.87646 0.8225 0.18279 0.0
H119 H 0.87807 0.85556 0.1983 0.0
C120 C 0.15215 0.82389 0.18348 0.0
C121 C 0.14824 0.82852 0.19357 0.0
C122 C 0.13252 0.81461 0.19371 0.0
C123 C 0.13852 0.82391 0.19865 0.0
C124 C 0.13652 0.81007 0.18357 0.0
C125 C 0.14621 0.81466 0.17853 0.0
U126 U 0.17717 0.84539 0.18063 0.0
O127 O 0.19484 0.84226 0.17611 0.0
O128 O 0.18417 0.85302 0.16513 0.0
C129 C 0.19402 0.84809 0.16658 0.0
C130 C 0.16241 0.82844 0.17798 0.0
C131 C 0.19875 0.84285 0.15642 0.0
C132 C 0.19953 0.82766 0.1425 0.0
C133 C 0.19475 0.83234 0.15218 0.0
C134 C 0.21231 0.84395 0.14123 0.0
C135 C 0.20836 0.83344 0.13686 0.0
C136 C 0.20756 0.84858 0.15088 0.0
C137 C 0.18063 0.87021 0.20208 0.0
C138 C 0.19731 0.88244 0.20547 0.0
C139 C 0.17942 0.88717 0.21368 0.0
C140 C 0.17431 0.87754 0.20867 0.0
C141 C 0.19102 0.88972 0.21226 0.0
C142 C 0.19217 0.87278 0.20043 0.0
C143 C 0.17499 0.85988 0.19735 0.0
O144 O 0.16138 0.83829 0.17279 0.0
O145 O 0.17202 0.82761 0.18386 0.0
O146 O 0.18058 0.85036 0.19841 0.0
O147 O 0.16984 0.86099 0.18737 0.0
H148 H 0.15269 0.83568 0.19751 0.0
H149 H 0.13565 0.82773 0.20637 0.0
H150 H 0.13227 0.80281 0.17961 0.0
H151 H 0.14911 0.81094 0.17076 0.0
H152 H 0.19621 0.81961 0.13933 0.0
H153 H 0.18794 0.82779 0.15633 0.0
H154 H 0.2192 0.84856 0.13729 0.0
H155 H 0.2108 0.85667 0.15404 0.0
H156 H 0.20627 0.88408 0.20424 0.0
H157 H 0.17423 0.89266 0.21863 0.0
H158 H 0.16539 0.87575 0.21001 0.0
H159 H 0.19721 0.86725 0.19536 0.0
C160 C 0.15525 0.83492 0.84015 0.0
C161 C 0.15527 0.83675 0.82834 0.0
C162 C 0.1355 0.83009 0.82652 0.0
C163 C 0.1455 0.83432 0.82158 0.0
C164 C 0.13555 0.82838 0.83836 0.0
C165 C 0.14529 0.83076 0.84507 0.0
U166 U 0.18295 0.85109 0.84965 0.0
O167 O 0.18897 0.85546 0.86701 0.0
O168 O 0.19895 0.84417 0.85662 0.0
C169 C 0.19786 0.84892 0.86659 0.0
C170 C 0.16547 0.8369 0.84756 0.0
C171 C 0.20025 0.84181 0.87675 0.0
C172 C 0.19944 0.82389 0.88723 0.0
C173 C 0.19665 0.83038 0.87751 0.0
C174 C 0.20933 0.8402 0.89549 0.0
C175 C 0.20581 0.82874 0.89637 0.0
C176 C 0.20657 0.84663 0.88582 0.0
C177 C 0.19313 0.8776 0.8329 0.0
C178 C 0.21004 0.88907 0.83759 0.0
C179 C 0.19771 0.89444 0.82174 0.0
C180 C 0.1906 0.88506 0.82391 0.0
C181 C 0.20754 0.89659 0.82853 0.0
C182 C 0.2029 0.87965 0.83975 0.0
C183 C 0.18534 0.86787 0.83498 0.0
O184 O 0.17539 0.83508 0.84312 0.0
O185 O 0.16547 0.84601 0.85395 0.0
O186 O 0.17918 0.86853 0.84406 0.0
O187 O 0.18946 0.85771 0.8335 0.0
H188 H 0.16284 0.83999 0.82432 0.0
H189 H 0.14575 0.83584 0.81252 0.0
H190 H 0.1281 0.82496 0.84246 0.0
H191 H 0.14509 0.82922 0.85414 0.0
H192 H 0.19653 0.81513 0.88763 0.0
H193 H 0.19174 0.82648 0.87061 0.0
H194 H 0.21442 0.84419 0.90222 0.0
H195 H 0.20949 0.85541 0.88539 0.0
H196 H 0.21758 0.89038 0.84294 0.0
H197 H 0.19537 0.90011 0.81483 0.0
H198 H 0.18307 0.88366 0.81856 0.0
H199 H 0.20499 0.87399 0.84675 0.0
C200 C 0.16426 0.19506 0.84187 0.0
C201 C 0.16184 0.20474 0.8482 0.0
C202 C 0.14523 0.20847 0.83584 0.0
C203 C 0.15243 0.2114 0.8452 0.0
C204 C 0.14778 0.19876 0.82954 0.0
C205 C 0.15717 0.19215 0.83252 0.0
U206 U 0.19025 0.18607 0.86056 0.0
O207 O 0.1955 0.16875 0.8653 0.0
O208 O 0.2067 0.17962 0.85519 0.0
C209 C 0.20498 0.16951 0.8597 0.0
C210 C 0.17403 0.18778 0.84478 0.0
C211 C 0.20783 0.1596 0.85268 0.0
C212 C 0.20525 0.14763 0.83589 0.0
C213 C 0.20205 0.157 0.84238 0.0
C214 C 0.21992 0.14333 0.84997 0.0
C215 C 0.21432 0.14072 0.83955 0.0
C216 C 0.21672 0.15264 0.85642 0.0
C217 C 0.19779 0.20426 0.88785 0.0
C218 C 0.21512 0.21043 0.89814 0.0
C219 C 0.19706 0.21114 0.90732 0.0
C220 C 0.19162 0.20677 0.89751 0.0
C221 C 0.20889 0.21317 0.90777 0.0
C222 C 0.20964 0.20604 0.88828 0.0
C223 C 0.19142 0.20095 0.87724 0.0
O224 O 0.18418 0.19247 0.84388 0.0
O225 O 0.1731 0.18145 0.85395 0.0
O226 O 0.18519 0.19158 0.87756 0.0
O227 O 0.1965 0.20244 0.86753 0.0
H228 H 0.1672 0.20712 0.85547 0.0
H229 H 0.15069 0.21874 0.85032 0.0
H230 H 0.1426 0.19632 0.82217 0.0
H231 H 0.1589 0.18474 0.8275 0.0
H232 H 0.20077 0.14596 0.8279 0.0
H233 H 0.19515 0.16226 0.83933 0.0
H234 H 0.22678 0.13814 0.85321 0.0
H235 H 0.22126 0.15443 0.86436 0.0
H236 H 0.22425 0.21173 0.89818 0.0
H237 H 0.1919 0.21329 0.91443 0.0
H238 H 0.18246 0.20564 0.89737 0.0
H239 H 0.21465 0.20424 0.88096 0.0
C240 C 0.83993 0.16549 0.84516 0.0
C241 C 0.84265 0.16291 0.83394 0.0
C242 C 0.82959 0.14649 0.83407 0.0
C243 C 0.83754 0.15347 0.82845 0.0
C244 C 0.82711 0.14906 0.84538 0.0
C245 C 0.83221 0.15844 0.85083 0.0
U246 U 0.86135 0.19074 0.85028 0.0
O247 O 0.85757 0.20797 0.85602 0.0
O248 O 0.86825 0.19699 0.86676 0.0
C249 C 0.86279 0.20659 0.86594 0.0
C250 C 0.84466 0.17559 0.85114 0.0
C251 C 0.85654 0.20999 0.87609 0.0
C252 C 0.83896 0.21326 0.88592 0.0
C253 C 0.84462 0.20946 0.87636 0.0
C254 C 0.85706 0.2179 0.89517 0.0
C255 C 0.8451 0.21764 0.89543 0.0
C256 C 0.86268 0.21415 0.88561 0.0
C257 C 0.8866 0.19621 0.83026 0.0
C258 C 0.90491 0.20574 0.8339 0.0
C259 C 0.89819 0.2026 0.81455 0.0
C260 C 0.88829 0.19738 0.81856 0.0
C261 C 0.90671 0.20677 0.82214 0.0
C262 C 0.89497 0.20052 0.83792 0.0
C263 C 0.87633 0.19001 0.83413 0.0
O264 O 0.85448 0.17438 0.85653 0.0
O265 O 0.8438 0.18537 0.84578 0.0
O266 O 0.86666 0.19534 0.83299 0.0
O267 O 0.8773 0.18431 0.84373 0.0
H268 H 0.8486 0.16825 0.8294 0.0
H269 H 0.83961 0.15178 0.81972 0.0
H270 H 0.82123 0.14378 0.85007 0.0
H271 H 0.83003 0.16025 0.85951 0.0
H272 H 0.82977 0.213 0.88575 0.0
H273 H 0.83966 0.20625 0.86914 0.0
H274 H 0.86211 0.22097 0.90238 0.0
H275 H 0.87188 0.21459 0.88563 0.0
H276 H 0.91129 0.20874 0.84003 0.0
H277 H 0.89911 0.20342 0.80546 0.0
H278 H 0.88196 0.19413 0.81249 0.0
H279 H 0.8939 0.19973 0.84699 0.0
C280 C 0.84688 0.88685 0.8216 0.0
C281 C 0.84056 0.89399 0.82842 0.0
C282 C 0.83608 0.90615 0.81202 0.0
C283 C 0.83522 0.90354 0.82368 0.0
C284 C 0.84229 0.89884 0.80524 0.0
C285 C 0.84763 0.88932 0.80998 0.0
U286 U 0.85207 0.86275 0.84365 0.0
O287 O 0.85754 0.84526 0.84078 0.0
O288 O 0.86833 0.85684 0.85109 0.0
C289 C 0.86728 0.84678 0.84635 0.0
C290 C 0.85308 0.87701 0.82637 0.0
C291 C 0.87751 0.84233 0.84103 0.0
C292 C 0.8887 0.83808 0.82453 0.0
C293 C 0.87919 0.84305 0.82928 0.0
C294 C 0.89504 0.83182 0.84323 0.0
C295 C 0.89669 0.83226 0.83144 0.0
C296 C 0.88557 0.83677 0.84794 0.0
C297 C 0.83183 0.85902 0.86895 0.0
C298 C 0.8292 0.84245 0.88119 0.0
C299 C 0.82119 0.86042 0.88629 0.0
C300 C 0.82565 0.86543 0.87653 0.0
C301 C 0.82278 0.84882 0.88871 0.0
C302 C 0.83368 0.84749 0.87139 0.0
C303 C 0.83584 0.86453 0.85843 0.0
O304 O 0.85862 0.87863 0.8361 0.0
O305 O 0.84775 0.86711 0.82581 0.0
O306 O 0.83473 0.85858 0.84903 0.0
O307 O 0.84553 0.87022 0.85926 0.0
H308 H 0.83987 0.89226 0.83742 0.0
H309 H 0.83061 0.90901 0.82921 0.0
H310 H 0.84299 0.90041 0.79621 0.0
H311 H 0.85243 0.88391 0.80455 0.0
H312 H 0.88964 0.83855 0.81542 0.0
H313 H 0.87308 0.8473 0.82377 0.0
H314 H 0.90109 0.82764 0.84886 0.0
H315 H 0.88447 0.83614 0.85703 0.0
H316 H 0.83055 0.83349 0.88271 0.0
H317 H 0.81651 0.86568 0.89196 0.0
H318 H 0.82415 0.87434 0.87484 0.0
H319 H 0.83844 0.84237 0.86567 0.0
C320 C 0.19462 0.6633 0.6934 0.0
C321 C 0.20459 0.66466 0.70018 0.0
C322 C 0.20785 0.64423 0.69982 0.0
C323 C 0.21112 0.65526 0.70332 0.0
C324 C 0.19797 0.6429 0.69291 0.0
C325 C 0.19143 0.65229 0.68979 0.0
U326 U 0.18474 0.68994 0.67637 0.0
O327 O 0.16733 0.69503 0.67155 0.0
O328 O 0.17801 0.70596 0.68267 0.0
C329 C 0.16789 0.70417 0.67791 0.0
C330 C 0.18702 0.67306 0.69098 0.0
C331 C 0.158 0.7062 0.68504 0.0
C332 C 0.14856 0.70578 0.7032 0.0
C333 C 0.15795 0.70329 0.69663 0.0
C334 C 0.13911 0.71395 0.68665 0.0
C335 C 0.13901 0.71117 0.69829 0.0
C336 C 0.14848 0.7115 0.68013 0.0
C337 C 0.20207 0.69947 0.6501 0.0
C338 C 0.20206 0.71757 0.63992 0.0
C339 C 0.21174 0.70152 0.63221 0.0
C340 C 0.20846 0.69486 0.64146 0.0
C341 C 0.20873 0.71302 0.63136 0.0
C342 C 0.19878 0.71086 0.64923 0.0
C343 C 0.19944 0.69224 0.66003 0.0
O344 O 0.19126 0.68333 0.69279 0.0
O345 O 0.1805 0.67245 0.68174 0.0
O346 O 0.19023 0.68579 0.65915 0.0
O347 O 0.20092 0.69685 0.67012 0.0
H348 H 0.20727 0.67297 0.70325 0.0
H349 H 0.21874 0.65665 0.70854 0.0
H350 H 0.19508 0.63454 0.69019 0.0
H351 H 0.1837 0.65088 0.68475 0.0
H352 H 0.14873 0.7034 0.7121 0.0
H353 H 0.16518 0.69915 0.70061 0.0
H354 H 0.13201 0.71825 0.6826 0.0
H355 H 0.14836 0.71387 0.67122 0.0
H356 H 0.19962 0.72638 0.63958 0.0
H357 H 0.21666 0.69764 0.6257 0.0
H358 H 0.21105 0.68609 0.64193 0.0
H359 H 0.19382 0.71459 0.65581 0.0
C360 C 0.83383 0.69642 0.65019 0.0
C361 C 0.83574 0.70799 0.6478 0.0
C362 C 0.82365 0.70652 0.63057 0.0
C363 C 0.8307 0.71299 0.63808 0.0
C364 C 0.82193 0.6949 0.63299 0.0
C365 C 0.82696 0.68993 0.64267 0.0
U366 U 0.85552 0.69342 0.6755 0.0
O367 O 0.85223 0.68835 0.69317 0.0
O368 O 0.86287 0.6778 0.68269 0.0
C369 C 0.85792 0.6789 0.69247 0.0
C370 C 0.83857 0.69093 0.66057 0.0
C371 C 0.85247 0.66856 0.69716 0.0
C372 C 0.83822 0.65327 0.69646 0.0
C373 C 0.84304 0.66319 0.69177 0.0
C374 C 0.85217 0.65407 0.71196 0.0
C375 C 0.84278 0.64854 0.7066 0.0
C376 C 0.85694 0.66394 0.70729 0.0
C377 C 0.88056 0.71486 0.67973 0.0
C378 C 0.89726 0.71231 0.69213 0.0
C379 C 0.89362 0.73073 0.68372 0.0
C380 C 0.88376 0.7263 0.67832 0.0
C381 C 0.90056 0.7238 0.69067 0.0
C382 C 0.88736 0.70789 0.68672 0.0
C383 C 0.87026 0.7104 0.67365 0.0
O384 O 0.84839 0.68596 0.65962 0.0
O385 O 0.8378 0.69656 0.67012 0.0
O386 O 0.86067 0.71122 0.67899 0.0
O387 O 0.87123 0.70062 0.66847 0.0
H388 H 0.84101 0.71317 0.65348 0.0
H389 H 0.83215 0.72197 0.63658 0.0
H390 H 0.81676 0.68957 0.62733 0.0
H391 H 0.8254 0.68098 0.64434 0.0
H392 H 0.83106 0.64921 0.69205 0.0
H393 H 0.83947 0.66663 0.68393 0.0
H394 H 0.85578 0.65084 0.71987 0.0
H395 H 0.86418 0.66799 0.71161 0.0
H396 H 0.90241 0.70666 0.6973 0.0
H397 H 0.89572 0.73965 0.68254 0.0
H398 H 0.87862 0.73184 0.67299 0.0
H399 H 0.88506 0.69902 0.68794 0.0
C400 C 0.83417 0.35146 0.65574 0.0
C401 C 0.84097 0.34212 0.65345 0.0
C402 C 0.8288 0.33714 0.63691 0.0
C403 C 0.83832 0.33504 0.64412 0.0
C404 C 0.82207 0.34655 0.63929 0.0
C405 C 0.82472 0.35359 0.64858 0.0
U406 U 0.85129 0.36146 0.68269 0.0
O407 O 0.85597 0.37892 0.68798 0.0
O408 O 0.84481 0.36843 0.69853 0.0
C409 C 0.84978 0.37841 0.69709 0.0
C410 C 0.83664 0.35912 0.66546 0.0
C411 C 0.8431 0.38856 0.69967 0.0
C412 C 0.82642 0.40044 0.69741 0.0
C413 C 0.83248 0.39074 0.69445 0.0
C414 C 0.84152 0.40579 0.7108 0.0
C415 C 0.8309 0.40814 0.70561 0.0
C416 C 0.84752 0.39616 0.70785 0.0
C417 C 0.87754 0.34427 0.69347 0.0
C418 C 0.89565 0.34954 0.7028 0.0
C419 C 0.8886 0.33015 0.70393 0.0
C420 C 0.87894 0.33311 0.69745 0.0
C421 C 0.8972 0.33827 0.70657 0.0
C422 C 0.88594 0.3525 0.69631 0.0
C423 C 0.86771 0.34675 0.6857 0.0
O424 O 0.83494 0.35486 0.67562 0.0
O425 O 0.84599 0.36536 0.66501 0.0
O426 O 0.86853 0.3558 0.67915 0.0
O427 O 0.85753 0.34527 0.68983 0.0
H428 H 0.8483 0.34031 0.65888 0.0
H429 H 0.84365 0.32784 0.64264 0.0
H430 H 0.8148 0.34859 0.63387 0.0
H431 H 0.81938 0.36077 0.65015 0.0
H432 H 0.81831 0.40197 0.69318 0.0
H433 H 0.82889 0.38497 0.68812 0.0
H434 H 0.84517 0.41133 0.71731 0.0
H435 H 0.85565 0.39461 0.71206 0.0
H436 H 0.9021 0.35602 0.70456 0.0
H437 H 0.88934 0.32145 0.70684 0.0
H438 H 0.87261 0.32659 0.69537 0.0
H439 H 0.88514 0.36118 0.69334 0.0
C440 C 0.15945 0.33776 0.69762 0.0
C441 C 0.15433 0.34363 0.7064 0.0
C442 C 0.13966 0.32869 0.70774 0.0
C443 C 0.14451 0.33914 0.7114 0.0
C444 C 0.1449 0.32288 0.69895 0.0
C445 C 0.15467 0.32736 0.69397 0.0
U446 U 0.18466 0.3591 0.69409 0.0
O447 O 0.20228 0.3555 0.68957 0.0
O448 O 0.19164 0.36601 0.67829 0.0
C449 C 0.2014 0.3609 0.6798 0.0
C450 C 0.1697 0.34224 0.69205 0.0
C451 C 0.20589 0.35505 0.66984 0.0
C452 C 0.20342 0.34352 0.65278 0.0
C453 C 0.19889 0.34853 0.66242 0.0
C454 C 0.22198 0.35135 0.65798 0.0
C455 C 0.21503 0.3449 0.65041 0.0
C456 C 0.21746 0.35635 0.66756 0.0
C457 C 0.18926 0.38435 0.7147 0.0
C458 C 0.20321 0.39971 0.71255 0.0
C459 C 0.19224 0.39846 0.72959 0.0
C460 C 0.18666 0.38869 0.72536 0.0
C461 C 0.20058 0.40415 0.72324 0.0
C462 C 0.19761 0.3899 0.70832 0.0
C463 C 0.18309 0.3741 0.71046 0.0
O464 O 0.16868 0.35201 0.68669 0.0
O465 O 0.17933 0.34147 0.6979 0.0
O466 O 0.18841 0.36445 0.71174 0.0
O467 O 0.17785 0.37505 0.7005 0.0
H468 H 0.15791 0.35166 0.70937 0.0
H469 H 0.14081 0.34381 0.71822 0.0
H470 H 0.14135 0.31492 0.69577 0.0
H471 H 0.15847 0.32271 0.68718 0.0
H472 H 0.19783 0.33852 0.64722 0.0
H473 H 0.18994 0.34737 0.66403 0.0
H474 H 0.2309 0.35277 0.65637 0.0
H475 H 0.223 0.36139 0.67314 0.0
H476 H 0.20948 0.4039 0.70735 0.0
H477 H 0.19011 0.40146 0.73792 0.0
H478 H 0.18028 0.38451 0.73044 0.0
H479 H 0.19975 0.38669 0.70006 0.0
C480 C 0.16139 0.32704 0.35197 0.0
C481 C 0.1551 0.33528 0.34599 0.0
C482 C 0.14208 0.32058 0.33843 0.0
C483 C 0.14553 0.33208 0.33929 0.0
C484 C 0.14862 0.31237 0.34423 0.0
C485 C 0.15813 0.31558 0.35093 0.0
U486 U 0.18688 0.34632 0.3608 0.0
O487 O 0.19259 0.35195 0.37789 0.0
O488 O 0.20378 0.34173 0.36767 0.0
C489 C 0.20221 0.34651 0.37755 0.0
C490 C 0.17118 0.33015 0.35954 0.0
C491 C 0.20535 0.33972 0.38774 0.0
C492 C 0.20332 0.323 0.3999 0.0
C493 C 0.19993 0.3293 0.39024 0.0
C494 C 0.21747 0.33751 0.40466 0.0
C495 C 0.21222 0.32699 0.4072 0.0
C496 C 0.21408 0.34378 0.39506 0.0
C497 C 0.19261 0.37276 0.34117 0.0
C498 C 0.20965 0.3838 0.33669 0.0
C499 C 0.19112 0.39103 0.33152 0.0
C500 C 0.18601 0.38137 0.33627 0.0
C501 C 0.20302 0.39236 0.33156 0.0
C502 C 0.2045 0.37409 0.34146 0.0
C503 C 0.18677 0.36223 0.345 0.0
O504 O 0.18128 0.3292 0.35521 0.0
O505 O 0.17019 0.33942 0.36558 0.0
O506 O 0.18093 0.36285 0.35431 0.0
O507 O 0.19222 0.35265 0.34413 0.0
H508 H 0.15749 0.34419 0.34662 0.0
H509 H 0.14069 0.33864 0.33501 0.0
H510 H 0.14641 0.30342 0.34359 0.0
H511 H 0.16291 0.30908 0.3554 0.0
H512 H 0.19913 0.31492 0.40151 0.0
H513 H 0.19316 0.32602 0.38469 0.0
H514 H 0.22418 0.34099 0.41016 0.0
H515 H 0.21833 0.35182 0.39333 0.0
H516 H 0.21883 0.38458 0.33701 0.0
H517 H 0.1857 0.39729 0.32748 0.0
H518 H 0.17683 0.38049 0.33583 0.0
H519 H 0.2098 0.36755 0.34518 0.0
C520 C 0.16358 0.68316 0.32784 0.0
C521 C 0.16123 0.6928 0.33428 0.0
C522 C 0.14431 0.69649 0.32231 0.0
C523 C 0.15168 0.69939 0.33156 0.0
C524 C 0.14673 0.68677 0.31597 0.0
C525 C 0.15624 0.68021 0.3187 0.0
U526 U 0.19061 0.67504 0.3454 0.0
O527 O 0.19684 0.65805 0.35014 0.0
O528 O 0.2071 0.66928 0.33944 0.0
C529 C 0.20601 0.65914 0.34408 0.0
C530 C 0.17362 0.67608 0.33037 0.0
C531 C 0.20941 0.64913 0.3373 0.0
C532 C 0.21191 0.6286 0.33603 0.0
C533 C 0.20731 0.63804 0.34135 0.0
C534 C 0.22071 0.64104 0.32233 0.0
C535 C 0.21885 0.62996 0.32656 0.0
C536 C 0.21609 0.65049 0.32764 0.0
C537 C 0.19917 0.69365 0.3718 0.0
C538 C 0.21253 0.68962 0.38744 0.0
C539 C 0.20437 0.70827 0.38564 0.0
C540 C 0.1983 0.70476 0.37586 0.0
C541 C 0.21149 0.70074 0.39167 0.0
C542 C 0.20641 0.6861 0.37761 0.0
C543 C 0.19206 0.69021 0.36178 0.0
O544 O 0.1836 0.68096 0.3289 0.0
O545 O 0.1733 0.66985 0.33965 0.0
O546 O 0.18631 0.68057 0.36256 0.0
O547 O 0.1965 0.6918 0.35178 0.0
H548 H 0.16679 0.69525 0.34137 0.0
H549 H 0.15019 0.70685 0.33658 0.0
H550 H 0.1412 0.68411 0.30893 0.0
H551 H 0.15786 0.67278 0.31364 0.0
H552 H 0.21039 0.62026 0.33966 0.0
H553 H 0.20242 0.63666 0.3489 0.0
H554 H 0.22587 0.64246 0.31497 0.0
H555 H 0.21805 0.65888 0.32434 0.0
H556 H 0.21788 0.68356 0.39188 0.0
H557 H 0.2035 0.71694 0.38847 0.0
H558 H 0.19279 0.71074 0.37149 0.0
H559 H 0.2072 0.67748 0.37463 0.0
C560 C 0.83485 0.65902 0.34344 0.0
C561 C 0.83256 0.65823 0.33167 0.0
C562 C 0.82566 0.63863 0.33387 0.0
C563 C 0.82799 0.64815 0.32695 0.0
C564 C 0.82813 0.63943 0.34561 0.0
C565 C 0.83264 0.6495 0.35032 0.0
U566 U 0.85487 0.68551 0.34651 0.0
O567 O 0.85063 0.70302 0.35107 0.0
O568 O 0.86216 0.69326 0.36214 0.0
C569 C 0.85651 0.7027 0.36072 0.0
C570 C 0.83894 0.66974 0.34887 0.0
C571 C 0.85083 0.70702 0.37081 0.0
C572 C 0.83616 0.70584 0.38498 0.0
C573 C 0.84129 0.70149 0.37533 0.0
C574 C 0.85004 0.72127 0.38565 0.0
C575 C 0.84051 0.71578 0.3903 0.0
C576 C 0.85513 0.71693 0.37604 0.0
C577 C 0.87912 0.68993 0.32506 0.0
C578 C 0.89569 0.7026 0.3268 0.0
C579 C 0.89155 0.69284 0.30908 0.0
C580 C 0.88193 0.68774 0.3138 0.0
C581 C 0.89864 0.70027 0.31553 0.0
C582 C 0.88603 0.69747 0.33152 0.0
C583 C 0.86922 0.68389 0.32986 0.0
O584 O 0.84887 0.66944 0.35423 0.0
O585 O 0.83739 0.67922 0.34311 0.0
O586 O 0.85938 0.68891 0.32873 0.0
O587 O 0.8708 0.67911 0.33988 0.0
H588 H 0.83419 0.66541 0.32613 0.0
H589 H 0.82633 0.6478 0.31787 0.0
H590 H 0.82633 0.63235 0.35123 0.0
H591 H 0.83424 0.64992 0.35942 0.0
H592 H 0.82891 0.70132 0.38836 0.0
H593 H 0.83785 0.6938 0.37143 0.0
H594 H 0.85352 0.72903 0.38935 0.0
H595 H 0.86245 0.72136 0.37266 0.0
H596 H 0.90098 0.70819 0.33206 0.0
H597 H 0.89338 0.69098 0.30034 0.0
H598 H 0.8767 0.68197 0.30865 0.0
H599 H 0.88404 0.69928 0.34024 0.0
C600 C 0.85153 0.37564 0.32975 0.0
C601 C 0.84548 0.38292 0.3367 0.0
C602 C 0.84195 0.39577 0.32063 0.0
C603 C 0.84074 0.39288 0.33218 0.0
C604 C 0.84783 0.3883 0.31371 0.0
C605 C 0.85256 0.37838 0.31823 0.0
U606 U 0.85484 0.35069 0.35107 0.0
O607 O 0.85925 0.33291 0.34772 0.0
O608 O 0.87047 0.34353 0.35862 0.0
C609 C 0.86893 0.33369 0.35351 0.0
C610 C 0.85711 0.36536 0.3343 0.0
C611 C 0.87895 0.3289 0.34811 0.0
C612 C 0.89549 0.33058 0.3362 0.0
C613 C 0.88577 0.33532 0.34076 0.0
C614 C 0.89157 0.31295 0.34613 0.0
C615 C 0.89859 0.31935 0.33892 0.0
C616 C 0.88189 0.31768 0.35066 0.0
C617 C 0.8336 0.34738 0.3755 0.0
C618 C 0.8341 0.33274 0.39019 0.0
C619 C 0.81911 0.34652 0.38982 0.0
C620 C 0.82377 0.35164 0.38021 0.0
C621 C 0.8242 0.33699 0.39496 0.0
C622 C 0.83875 0.33788 0.38054 0.0
C623 C 0.83825 0.35303 0.36537 0.0
O624 O 0.86249 0.36638 0.34419 0.0
O625 O 0.85127 0.35577 0.33328 0.0
O626 O 0.83709 0.34743 0.35577 0.0
O627 O 0.84828 0.358 0.36671 0.0
H628 H 0.84455 0.38097 0.34563 0.0
H629 H 0.83637 0.39845 0.33781 0.0
H630 H 0.84876 0.39008 0.30475 0.0
H631 H 0.85714 0.37286 0.3127 0.0
H632 H 0.90072 0.3358 0.33075 0.0
H633 H 0.88365 0.34401 0.33867 0.0
H634 H 0.89352 0.30424 0.34826 0.0
H635 H 0.87672 0.31256 0.35627 0.0
H636 H 0.83818 0.32535 0.39382 0.0
H637 H 0.81161 0.35016 0.39332 0.0
H638 H 0.81968 0.35899 0.37647 0.0
H639 H 0.84634 0.33444 0.377 0.0
C640 C 0.70482 0.1631 0.69433 0.0
C641 C 0.71009 0.15626 0.68635 0.0
C642 C 0.71653 0.14333 0.70146 0.0
C643 C 0.71591 0.14648 0.68988 0.0
C644 C 0.71146 0.1504 0.70939 0.0
C645 C 0.70569 0.16013 0.70586 0.0
U646 U 0.69644 0.18881 0.67505 0.0
O647 O 0.67935 0.19495 0.67054 0.0
O648 O 0.69132 0.20587 0.68031 0.0
C649 C 0.68094 0.20456 0.67605 0.0
C650 C 0.69799 0.17307 0.69099 0.0
C651 C 0.67156 0.20857 0.68307 0.0
C652 C 0.65269 0.20624 0.6909 0.0
C653 C 0.66199 0.2017 0.68542 0.0
C654 C 0.66246 0.22447 0.69205 0.0
C655 C 0.65271 0.21775 0.6941 0.0
C656 C 0.67172 0.21994 0.68659 0.0
C657 C 0.71266 0.19629 0.64796 0.0
C658 C 0.7099 0.2135 0.6367 0.0
C659 C 0.72289 0.19926 0.63052 0.0
C660 C 0.72036 0.19257 0.64 0.0
C661 C 0.71779 0.20988 0.62877 0.0
C662 C 0.70737 0.20677 0.64622 0.0
C663 C 0.71052 0.1892 0.65809 0.0
O664 O 0.70313 0.18306 0.69177 0.0
O665 O 0.69138 0.17206 0.68184 0.0
O666 O 0.70094 0.18327 0.65793 0.0
O667 O 0.71283 0.19401 0.66796 0.0
H668 H 0.70955 0.15838 0.67739 0.0
H669 H 0.71965 0.14123 0.68353 0.0
H670 H 0.71194 0.14841 0.71838 0.0
H671 H 0.70174 0.16529 0.71218 0.0
H672 H 0.64531 0.20082 0.69226 0.0
H673 H 0.66156 0.1929 0.68276 0.0
H674 H 0.66289 0.2333 0.69457 0.0
H675 H 0.67895 0.22545 0.68485 0.0
H676 H 0.70588 0.22165 0.63569 0.0
H677 H 0.72883 0.19608 0.62451 0.0
H678 H 0.72449 0.18448 0.64116 0.0
H679 H 0.7014 0.20979 0.65228 0.0
C680 C 0.34255 0.19619 0.6624 0.0
C681 C 0.34856 0.20478 0.65666 0.0
C682 C 0.33279 0.20666 0.64277 0.0
C683 C 0.34371 0.20998 0.64693 0.0
C684 C 0.32685 0.19809 0.64865 0.0
C685 C 0.33168 0.19294 0.65832 0.0
U686 U 0.36426 0.19094 0.68764 0.0
O687 O 0.36025 0.18552 0.70506 0.0
O688 O 0.37006 0.17445 0.69425 0.0
C689 C 0.36489 0.17554 0.70393 0.0
C690 C 0.34728 0.19034 0.67257 0.0
C691 C 0.35832 0.16557 0.70814 0.0
C692 C 0.35118 0.14606 0.7062 0.0
C693 C 0.35639 0.15576 0.70153 0.0
C694 C 0.34946 0.15588 0.72404 0.0
C695 C 0.3478 0.14593 0.71758 0.0
C696 C 0.35468 0.16554 0.71939 0.0
C697 C 0.39091 0.20937 0.69386 0.0
C698 C 0.40348 0.20636 0.71037 0.0
C699 C 0.40812 0.22094 0.6966 0.0
C700 C 0.39825 0.2181 0.69024 0.0
C701 C 0.4109 0.21511 0.70676 0.0
C702 C 0.3936 0.20351 0.70398 0.0
C703 C 0.38053 0.20656 0.68701 0.0
O704 O 0.35677 0.18485 0.67137 0.0
O705 O 0.34694 0.19581 0.68225 0.0
O706 O 0.37086 0.20803 0.69204 0.0
O707 O 0.38072 0.19702 0.68128 0.0
H708 H 0.35697 0.20741 0.65965 0.0
H709 H 0.34858 0.21648 0.64259 0.0
H710 H 0.31837 0.19544 0.64588 0.0
H711 H 0.32687 0.18636 0.66265 0.0
H712 H 0.35014 0.13854 0.70099 0.0
H713 H 0.35913 0.15547 0.69284 0.0
H714 H 0.3468 0.15619 0.73276 0.0
H715 H 0.3561 0.17295 0.72469 0.0
H716 H 0.40538 0.2016 0.71806 0.0
H717 H 0.4135 0.22783 0.69363 0.0
H718 H 0.39631 0.22276 0.68249 0.0
H719 H 0.38806 0.19671 0.70691 0.0
C720 C 0.3301 0.85559 0.662 0.0
C721 C 0.33867 0.84927 0.6571 0.0
C722 C 0.32513 0.84179 0.64271 0.0
C723 C 0.33622 0.84247 0.64754 0.0
C724 C 0.31659 0.8481 0.64774 0.0
C725 C 0.31905 0.8549 0.65725 0.0
U726 U 0.34745 0.86506 0.68884 0.0
O727 O 0.35168 0.88235 0.69494 0.0
O728 O 0.34131 0.87089 0.70531 0.0
C729 C 0.34583 0.88112 0.70422 0.0
C730 C 0.33241 0.86305 0.67193 0.0
C731 C 0.3388 0.89079 0.70753 0.0
C732 C 0.32382 0.90452 0.70396 0.0
C733 C 0.33001 0.89508 0.70051 0.0
C734 C 0.33507 0.90536 0.72146 0.0
C735 C 0.32636 0.90987 0.71446 0.0
C736 C 0.34119 0.89598 0.71803 0.0
C737 C 0.37428 0.84746 0.69739 0.0
C738 C 0.39021 0.85215 0.71034 0.0
C739 C 0.38813 0.83315 0.70274 0.0
C740 C 0.37825 0.83634 0.69676 0.0
C741 C 0.39435 0.84103 0.70952 0.0
C742 C 0.38029 0.85535 0.7043 0.0
C743 C 0.36417 0.85052 0.69035 0.0
O744 O 0.33103 0.85838 0.68197 0.0
O745 O 0.34151 0.86968 0.67155 0.0
O746 O 0.36474 0.8601 0.68458 0.0
O747 O 0.35421 0.84866 0.69481 0.0
H748 H 0.34726 0.84961 0.66066 0.0
H749 H 0.343 0.83765 0.644 0.0
H750 H 0.308 0.84795 0.6442 0.0
H751 H 0.31231 0.85973 0.66086 0.0
H752 H 0.31723 0.90777 0.69831 0.0
H753 H 0.32802 0.89121 0.69235 0.0
H754 H 0.33714 0.90905 0.72969 0.0
H755 H 0.34789 0.89279 0.72362 0.0
H756 H 0.39479 0.85847 0.71542 0.0
H757 H 0.39088 0.82447 0.70205 0.0
H758 H 0.37375 0.8301 0.69151 0.0
H759 H 0.37739 0.864 0.70492 0.0
C760 C 0.65382 0.82874 0.68514 0.0
C761 C 0.65139 0.83251 0.69608 0.0
C762 C 0.63431 0.82032 0.69626 0.0
C763 C 0.64174 0.82833 0.70159 0.0
C764 C 0.6368 0.81667 0.68525 0.0
C765 C 0.64644 0.82083 0.67978 0.0
U766 U 0.67917 0.84953 0.68093 0.0
O767 O 0.69662 0.84594 0.67594 0.0
O768 O 0.68582 0.85666 0.66505 0.0
C769 C 0.69563 0.85162 0.66634 0.0
C770 C 0.664 0.83284 0.67917 0.0
C771 C 0.70008 0.84618 0.65615 0.0
C772 C 0.7002 0.83098 0.64219 0.0
C773 C 0.69567 0.83582 0.65192 0.0
C774 C 0.71355 0.84679 0.64087 0.0
C775 C 0.70919 0.83644 0.6365 0.0
C776 C 0.70904 0.85159 0.65055 0.0
C777 C 0.68381 0.87483 0.70154 0.0
C778 C 0.69992 0.88814 0.70173 0.0
C779 C 0.68409 0.89133 0.7139 0.0
C780 C 0.67869 0.88145 0.70975 0.0
C781 C 0.69476 0.89486 0.70994 0.0
C782 C 0.69447 0.87823 0.69755 0.0
C783 C 0.67779 0.86448 0.69736 0.0
O784 O 0.66303 0.84256 0.67372 0.0
O785 O 0.67377 0.83194 0.68475 0.0
O786 O 0.68327 0.8549 0.69849 0.0
O787 O 0.67235 0.86541 0.68752 0.0
H788 H 0.65698 0.83861 0.70038 0.0
H789 H 0.6402 0.83126 0.71009 0.0
H790 H 0.63122 0.81068 0.68078 0.0
H791 H 0.64813 0.81785 0.67131 0.0
H792 H 0.69657 0.82305 0.63903 0.0
H793 H 0.68873 0.83152 0.65612 0.0
H794 H 0.72058 0.85115 0.63689 0.0
H795 H 0.71261 0.85956 0.65371 0.0
H796 H 0.70807 0.89064 0.69841 0.0
H797 H 0.67993 0.89614 0.72034 0.0
H798 H 0.67048 0.87895 0.71297 0.0
H799 H 0.69855 0.87325 0.69118 0.0
C800 C 0.64985 0.83204 0.34141 0.0
C801 C 0.64445 0.84051 0.3349 0.0
C802 C 0.63039 0.8266 0.32758 0.0
C803 C 0.63479 0.83782 0.32808 0.0
C804 C 0.6359 0.81818 0.33412 0.0
C805 C 0.64549 0.82088 0.34094 0.0
U806 U 0.67688 0.84934 0.35061 0.0
O807 O 0.68318 0.85381 0.36784 0.0
O808 O 0.69334 0.84303 0.35709 0.0
C809 C 0.69239 0.84777 0.36709 0.0
C810 C 0.65988 0.83453 0.34892 0.0
C811 C 0.69564 0.8408 0.3771 0.0
C812 C 0.69207 0.8258 0.391 0.0
C813 C 0.68865 0.83201 0.38128 0.0
C814 C 0.70948 0.83704 0.39232 0.0
C815 C 0.7025 0.82832 0.39671 0.0
C816 C 0.70608 0.84319 0.38266 0.0
C817 C 0.68633 0.87558 0.33291 0.0
C818 C 0.69905 0.89124 0.33864 0.0
C819 C 0.69401 0.88853 0.31876 0.0
C820 C 0.68731 0.87904 0.32156 0.0
C821 C 0.69989 0.89486 0.32725 0.0
C822 C 0.69234 0.88169 0.34144 0.0
C823 C 0.6787 0.86583 0.33554 0.0
O824 O 0.66984 0.8329 0.34453 0.0
O825 O 0.65959 0.84382 0.35504 0.0
O826 O 0.67274 0.8666 0.34477 0.0
O827 O 0.68283 0.85568 0.3341 0.0
H828 H 0.64768 0.84918 0.3351 0.0
H829 H 0.63085 0.8445 0.32309 0.0
H830 H 0.63269 0.8095 0.33413 0.0
H831 H 0.64948 0.81422 0.34593 0.0
H832 H 0.68646 0.81919 0.39416 0.0
H833 H 0.68055 0.83003 0.37709 0.0
H834 H 0.71766 0.83909 0.39631 0.0
H835 H 0.71163 0.84988 0.37954 0.0
H836 H 0.70337 0.89593 0.34542 0.0
H837 H 0.69461 0.89088 0.30989 0.0
H838 H 0.6828 0.87443 0.31484 0.0
H839 H 0.69173 0.87918 0.35027 0.0
C840 C 0.65437 0.18602 0.32198 0.0
C841 C 0.64799 0.192 0.3298 0.0
C842 C 0.63476 0.19802 0.31456 0.0
C843 C 0.63828 0.19793 0.32613 0.0
C844 C 0.64128 0.19205 0.30682 0.0
C845 C 0.65093 0.18616 0.31048 0.0
U846 U 0.68076 0.17751 0.34104 0.0
O847 O 0.68633 0.16019 0.34534 0.0
O848 O 0.69723 0.17145 0.33531 0.0
C849 C 0.69578 0.16127 0.33972 0.0
C850 C 0.66432 0.17914 0.32545 0.0
C851 C 0.69894 0.15155 0.33262 0.0
C852 C 0.69571 0.13855 0.31672 0.0
C853 C 0.69227 0.14781 0.32323 0.0
C854 C 0.71245 0.13671 0.32893 0.0
C855 C 0.70591 0.13292 0.31945 0.0
C856 C 0.70901 0.14589 0.3354 0.0
C857 C 0.68988 0.19456 0.3682 0.0
C858 C 0.70845 0.19671 0.3778 0.0
C859 C 0.69152 0.20186 0.38754 0.0
C860 C 0.68486 0.19869 0.37798 0.0
C861 C 0.70344 0.20101 0.38758 0.0
C862 C 0.70175 0.1935 0.36822 0.0
C863 C 0.68255 0.19204 0.35799 0.0
O864 O 0.6744 0.18396 0.32444 0.0
O865 O 0.66349 0.17294 0.33472 0.0
O866 O 0.67626 0.18271 0.35832 0.0
O867 O 0.68703 0.19385 0.34803 0.0
H868 H 0.65046 0.19202 0.33874 0.0
H869 H 0.63358 0.20251 0.33234 0.0
H870 H 0.6388 0.19171 0.2979 0.0
H871 H 0.65565 0.18155 0.3043 0.0
H872 H 0.69049 0.13594 0.30944 0.0
H873 H 0.68446 0.15206 0.32092 0.0
H874 H 0.72022 0.1325 0.33147 0.0
H875 H 0.71426 0.14859 0.34264 0.0
H876 H 0.71756 0.19578 0.37754 0.0
H877 H 0.68733 0.20527 0.3948 0.0
H878 H 0.67574 0.19966 0.37816 0.0
H879 H 0.70586 0.19031 0.36081 0.0
C880 C 0.33282 0.1571 0.35814 0.0
C881 C 0.33196 0.15633 0.34623 0.0
C882 C 0.32314 0.13739 0.34762 0.0
C883 C 0.32718 0.14657 0.34103 0.0
C884 C 0.3243 0.13815 0.35953 0.0
C885 C 0.32905 0.14787 0.3647 0.0
U886 U 0.35308 0.18332 0.36274 0.0
O887 O 0.34894 0.20054 0.36825 0.0
O888 O 0.3603 0.1901 0.37888 0.0
C889 C 0.35481 0.19968 0.37787 0.0
C890 C 0.33701 0.16753 0.36403 0.0
C891 C 0.34955 0.20397 0.38823 0.0
C892 C 0.33313 0.20951 0.39891 0.0
C893 C 0.33772 0.20438 0.38938 0.0
C894 C 0.35212 0.21363 0.40637 0.0
C895 C 0.34029 0.21438 0.40745 0.0
C896 C 0.35667 0.20851 0.39689 0.0
C897 C 0.37788 0.18989 0.34313 0.0
C898 C 0.39396 0.20251 0.3478 0.0
C899 C 0.39068 0.19624 0.32842 0.0
C900 C 0.3811 0.18998 0.33176 0.0
C901 C 0.39731 0.20254 0.3364 0.0
C902 C 0.38434 0.19628 0.35112 0.0
C903 C 0.36792 0.18296 0.34648 0.0
O904 O 0.34688 0.16688 0.36948 0.0
O905 O 0.33564 0.17726 0.35865 0.0
O906 O 0.35801 0.18785 0.34533 0.0
O907 O 0.36907 0.1772 0.35603 0.0
H908 H 0.33481 0.16333 0.34095 0.0
H909 H 0.32638 0.14635 0.33185 0.0
H910 H 0.32151 0.1312 0.36491 0.0
H911 H 0.32963 0.14825 0.3739 0.0
H912 H 0.32399 0.20998 0.39943 0.0
H913 H 0.33203 0.20095 0.38281 0.0
H914 H 0.3579 0.21706 0.41286 0.0
H915 H 0.36582 0.20829 0.3962 0.0
H916 H 0.39889 0.20714 0.35422 0.0
H917 H 0.39282 0.1962 0.31954 0.0
H918 H 0.37621 0.18517 0.32545 0.0
H919 H 0.382 0.19636 0.35995 0.0
C920 C 0.34644 0.87972 0.33438 0.0
C921 C 0.33635 0.88363 0.3389 0.0
C922 C 0.33599 0.89935 0.3252 0.0
C923 C 0.33116 0.89335 0.33434 0.0
C924 C 0.34614 0.89536 0.32079 0.0
C925 C 0.35129 0.88567 0.32533 0.0
U926 U 0.35017 0.85477 0.35569 0.0
O927 O 0.35461 0.83706 0.35219 0.0
O928 O 0.36604 0.84771 0.36281 0.0
C929 C 0.36445 0.83789 0.3577 0.0
C930 C 0.35205 0.86943 0.33883 0.0
C931 C 0.37434 0.83338 0.35187 0.0
C932 C 0.3882 0.83412 0.33691 0.0
C933 C 0.37869 0.83859 0.34213 0.0
C934 C 0.38903 0.81918 0.3511 0.0
C935 C 0.39354 0.82438 0.34137 0.0
C936 C 0.37955 0.82364 0.35627 0.0
C937 C 0.32981 0.85153 0.38093 0.0
C938 C 0.32728 0.835 0.39322 0.0
C939 C 0.31868 0.85279 0.39798 0.0
C940 C 0.32323 0.85783 0.38827 0.0
C941 C 0.32059 0.84129 0.40059 0.0
C942 C 0.33186 0.84008 0.3835 0.0
C943 C 0.33411 0.85709 0.37057 0.0
O944 O 0.35762 0.8705 0.3486 0.0
O945 O 0.34612 0.85988 0.33803 0.0
O946 O 0.33265 0.85146 0.36101 0.0
O947 O 0.34413 0.86215 0.37155 0.0
H948 H 0.33249 0.87917 0.34592 0.0
H949 H 0.32343 0.89623 0.33805 0.0
H950 H 0.35002 0.89961 0.31366 0.0
H951 H 0.35906 0.88276 0.3217 0.0
H952 H 0.39148 0.83841 0.3295 0.0
H953 H 0.37479 0.84614 0.33861 0.0
H954 H 0.39275 0.81157 0.35467 0.0
H955 H 0.37629 0.81945 0.36376 0.0
H956 H 0.32905 0.82617 0.39501 0.0
H957 H 0.31345 0.85788 0.40331 0.0
H958 H 0.3215 0.86667 0.38643 0.0
H959 H 0.33695 0.83506 0.37797 0.0
C960 C 0.68948 0.66116 0.19785 0.0
C961 C 0.69826 0.65809 0.19074 0.0
C962 C 0.70385 0.64295 0.20394 0.0
C963 C 0.70537 0.64906 0.19375 0.0
C964 C 0.69501 0.64611 0.211 0.0
C965 C 0.68792 0.6551 0.20799 0.0
U966 U 0.67942 0.68647 0.1793 0.0
O967 O 0.66193 0.69097 0.17413 0.0
O968 O 0.67234 0.70267 0.18468 0.0
C969 C 0.66229 0.70046 0.17997 0.0
C970 C 0.68174 0.67051 0.19491 0.0
C971 C 0.65237 0.70262 0.187 0.0
C972 C 0.64217 0.70092 0.20467 0.0
C973 C 0.65158 0.69838 0.19813 0.0
C974 C 0.63421 0.7118 0.18897 0.0
C975 C 0.63339 0.70775 0.2002 0.0
C976 C 0.64359 0.70928 0.18248 0.0
C977 C 0.69644 0.69528 0.15277 0.0
C978 C 0.69642 0.71326 0.14241 0.0
C979 C 0.7047 0.69672 0.13409 0.0
C980 C 0.70194 0.6903 0.1437 0.0
C981 C 0.70204 0.7083 0.13332 0.0
C982 C 0.69362 0.70681 0.15203 0.0
C983 C 0.69416 0.68829 0.16297 0.0
O984 O 0.68597 0.68086 0.19609 0.0
O985 O 0.6755 0.66921 0.18556 0.0
O986 O 0.68514 0.68155 0.16237 0.0
O987 O 0.69553 0.69332 0.17287 0.0
H988 H 0.69961 0.66268 0.18287 0.0
H989 H 0.71215 0.64695 0.18815 0.0
H990 H 0.69343 0.64151 0.21881 0.0
H991 H 0.68116 0.6573 0.21357 0.0
H992 H 0.64189 0.69771 0.21329 0.0
H993 H 0.65827 0.69321 0.20179 0.0
H994 H 0.62755 0.71689 0.18514 0.0
H995 H 0.644 0.71259 0.17389 0.0
H996 H 0.69413 0.72212 0.14206 0.0
H997 H 0.70916 0.69263 0.12737 0.0
H998 H 0.70424 0.68144 0.1441 0.0
H999 H 0.68934 0.71083 0.15892 0.0
C1000 C 0.32803 0.69153 0.15108 0.0
C1001 C 0.33504 0.69813 0.14408 0.0
C1002 C 0.31886 0.70213 0.13127 0.0
C1003 C 0.3305 0.70338 0.13427 0.0
C1004 C 0.31189 0.69566 0.13846 0.0
C1005 C 0.31643 0.69043 0.14823 0.0
U1006 U 0.34938 0.68626 0.17635 0.0
O1007 O 0.34553 0.68022 0.19358 0.0
O1008 O 0.35584 0.66987 0.1826 0.0
C1009 C 0.35054 0.67047 0.19224 0.0
C1010 C 0.33255 0.68534 0.16114 0.0
C1011 C 0.34394 0.66022 0.19552 0.0
C1012 C 0.32796 0.64699 0.19273 0.0
C1013 C 0.33405 0.65678 0.18945 0.0
C1014 C 0.34158 0.644 0.20819 0.0
C1015 C 0.33166 0.64044 0.20215 0.0
C1016 C 0.34763 0.65377 0.20491 0.0
C1017 C 0.37513 0.70698 0.1817 0.0
C1018 C 0.38903 0.70621 0.19741 0.0
C1019 C 0.39082 0.72074 0.18292 0.0
C1020 C 0.38102 0.71642 0.17733 0.0
C1021 C 0.39499 0.71572 0.19305 0.0
C1022 C 0.3792 0.70188 0.19178 0.0
C1023 C 0.36473 0.70283 0.17558 0.0
O1024 O 0.34221 0.68012 0.15999 0.0
O1025 O 0.33185 0.69046 0.17098 0.0
O1026 O 0.35517 0.70357 0.18099 0.0
O1027 O 0.36553 0.69324 0.17001 0.0
H1028 H 0.34404 0.69909 0.14611 0.0
H1029 H 0.33616 0.70821 0.1289 0.0
H1030 H 0.30287 0.69467 0.13658 0.0
H1031 H 0.31086 0.6854 0.15353 0.0
H1032 H 0.32044 0.64446 0.1878 0.0
H1033 H 0.33106 0.66164 0.18215 0.0
H1034 H 0.34461 0.63932 0.21558 0.0
H1035 H 0.35522 0.65631 0.20974 0.0
H1036 H 0.39203 0.70204 0.20511 0.0
H1037 H 0.395 0.72816 0.17938 0.0
H1038 H 0.378 0.72052 0.16959 0.0
H1039 H 0.37477 0.69457 0.19529 0.0
C1040 C 0.33814 0.3499 0.16051 0.0
C1041 C 0.33614 0.33808 0.16015 0.0
C1042 C 0.32969 0.33927 0.14021 0.0
C1043 C 0.33196 0.33284 0.15013 0.0
C1044 C 0.3319 0.35107 0.14059 0.0
C1045 C 0.33603 0.35629 0.15059 0.0
U1046 U 0.35681 0.35528 0.18801 0.0
O1047 O 0.36246 0.37167 0.19543 0.0
O1048 O 0.3513 0.36027 0.205 0.0
C1049 C 0.35659 0.37019 0.20467 0.0
C1050 C 0.34154 0.35593 0.17119 0.0
C1051 C 0.35034 0.3801 0.20879 0.0
C1052 C 0.33648 0.39514 0.2064 0.0
C1053 C 0.34205 0.38565 0.20212 0.0
C1054 C 0.34743 0.39359 0.22402 0.0
C1055 C 0.33908 0.39924 0.21745 0.0
C1056 C 0.35295 0.38417 0.21975 0.0
C1057 C 0.38221 0.33496 0.19484 0.0
C1058 C 0.40048 0.33736 0.20499 0.0
C1059 C 0.39295 0.31847 0.20117 0.0
C1060 C 0.38336 0.32315 0.19578 0.0
C1061 C 0.40172 0.32548 0.20581 0.0
C1062 C 0.39084 0.34205 0.19957 0.0
C1063 C 0.37235 0.33943 0.18816 0.0
O1064 O 0.33991 0.35053 0.18084 0.0
O1065 O 0.35114 0.36181 0.17118 0.0
O1066 O 0.37361 0.34936 0.18313 0.0
O1067 O 0.36226 0.33794 0.1925 0.0
H1068 H 0.33766 0.33289 0.16764 0.0
H1069 H 0.33052 0.32373 0.15016 0.0
H1070 H 0.33012 0.35636 0.13322 0.0
H1071 H 0.33737 0.36542 0.15064 0.0
H1072 H 0.33004 0.39916 0.20111 0.0
H1073 H 0.33988 0.38266 0.19364 0.0
H1074 H 0.34985 0.39655 0.23245 0.0
H1075 H 0.35937 0.38007 0.22503 0.0
H1076 H 0.40696 0.34305 0.20856 0.0
H1077 H 0.39361 0.30931 0.20142 0.0
H1078 H 0.37691 0.31749 0.19211 0.0
H1079 H 0.39021 0.3512 0.19896 0.0
C1080 C 0.66059 0.339 0.19478 0.0
C1081 C 0.6577 0.34533 0.2043 0.0
C1082 C 0.64091 0.33318 0.20696 0.0
C1083 C 0.64796 0.34244 0.21035 0.0
C1084 C 0.64388 0.32691 0.19738 0.0
C1085 C 0.65361 0.32979 0.19137 0.0
U1086 U 0.68699 0.35756 0.18904 0.0
O1087 O 0.70422 0.35245 0.18457 0.0
O1088 O 0.69418 0.36302 0.1728 0.0
C1089 C 0.70349 0.35718 0.17444 0.0
C1090 C 0.67086 0.34178 0.18837 0.0
C1091 C 0.70704 0.35013 0.16483 0.0
C1092 C 0.70274 0.33811 0.14841 0.0
C1093 C 0.69911 0.34431 0.15774 0.0
C1094 C 0.72226 0.34326 0.15326 0.0
C1095 C 0.71437 0.33754 0.14601 0.0
C1096 C 0.71863 0.34949 0.16254 0.0
C1097 C 0.6923 0.38372 0.20887 0.0
C1098 C 0.70722 0.39826 0.20775 0.0
C1099 C 0.69378 0.3988 0.2229 0.0
C1100 C 0.68839 0.38898 0.21862 0.0
C1101 C 0.70325 0.40363 0.21752 0.0
C1102 C 0.70178 0.38839 0.20346 0.0
C1103 C 0.68618 0.37347 0.20462 0.0
O1104 O 0.67049 0.35113 0.18223 0.0
O1105 O 0.68058 0.3406 0.19396 0.0
O1106 O 0.69122 0.36373 0.20632 0.0
O1107 O 0.68118 0.37427 0.19453 0.0
H1108 H 0.66298 0.35249 0.20706 0.0
H1109 H 0.64588 0.34754 0.2176 0.0
H1110 H 0.63878 0.31963 0.19461 0.0
H1111 H 0.65572 0.32477 0.18407 0.0
H1112 H 0.69643 0.3337 0.14312 0.0
H1113 H 0.69012 0.34462 0.15937 0.0
H1114 H 0.73126 0.34315 0.15162 0.0
H1115 H 0.72489 0.35394 0.16786 0.0
H1116 H 0.71443 0.40177 0.20333 0.0
H1117 H 0.6906 0.40254 0.23053 0.0
H1118 H 0.68111 0.38548 0.22295 0.0
H1119 H 0.70492 0.38445 0.1959 0.0
C1120 C 0.66551 0.33097 0.84767 0.0
C1121 C 0.65811 0.33808 0.84149 0.0
C1122 C 0.64546 0.32187 0.83698 0.0
C1123 C 0.64819 0.33356 0.83618 0.0
C1124 C 0.65308 0.3148 0.84298 0.0
C1125 C 0.66295 0.31931 0.84825 0.0
U1126 U 0.6909 0.35205 0.85386 0.0
O1127 O 0.69718 0.35846 0.8705 0.0
O1128 O 0.70812 0.34803 0.8602 0.0
C1129 C 0.7069 0.35325 0.86991 0.0
C1130 C 0.67561 0.33543 0.8541 0.0
C1131 C 0.71082 0.34715 0.88025 0.0
C1132 C 0.71235 0.33007 0.89192 0.0
C1133 C 0.708 0.33568 0.88222 0.0
C1134 C 0.72218 0.34739 0.89782 0.0
C1135 C 0.7196 0.33583 0.89979 0.0
C1136 C 0.71785 0.35296 0.88817 0.0
C1137 C 0.6974 0.37785 0.8348 0.0
C1138 C 0.71433 0.38993 0.83716 0.0
C1139 C 0.69975 0.39486 0.82319 0.0
C1140 C 0.69336 0.38523 0.82629 0.0
C1141 C 0.71035 0.39734 0.82854 0.0
C1142 C 0.70791 0.38029 0.84026 0.0
C1143 C 0.69056 0.36766 0.83776 0.0
O1144 O 0.68545 0.3346 0.84921 0.0
O1145 O 0.6745 0.3451 0.85946 0.0
O1146 O 0.68471 0.36835 0.84706 0.0
O1147 O 0.69562 0.35787 0.8368 0.0
H1148 H 0.65989 0.34712 0.84093 0.0
H1149 H 0.6425 0.33928 0.83171 0.0
H1150 H 0.65141 0.30575 0.84362 0.0
H1151 H 0.66854 0.31366 0.85296 0.0
H1152 H 0.71023 0.32116 0.89311 0.0
H1153 H 0.70257 0.33104 0.87621 0.0
H1154 H 0.72754 0.35218 0.90378 0.0
H1155 H 0.72008 0.36183 0.88683 0.0
H1156 H 0.72249 0.39148 0.8414 0.0
H1157 H 0.69629 0.40043 0.81667 0.0
H1158 H 0.68525 0.38353 0.82201 0.0
H1159 H 0.71119 0.3747 0.84687 0.0
C1160 C 0.66433 0.69243 0.83292 0.0
C1161 C 0.66417 0.70392 0.83609 0.0
C1162 C 0.64499 0.70576 0.82777 0.0
C1163 C 0.65461 0.71052 0.8335 0.0
C1164 C 0.64521 0.69422 0.82473 0.0
C1165 C 0.65475 0.68766 0.82727 0.0
U1166 U 0.69147 0.68342 0.84991 0.0
O1167 O 0.69713 0.66614 0.85417 0.0
O1168 O 0.70762 0.6772 0.84351 0.0
C1169 C 0.7063 0.66708 0.84811 0.0
C1170 C 0.67438 0.68526 0.83512 0.0
C1171 C 0.70903 0.65719 0.84105 0.0
C1172 C 0.70574 0.64473 0.82473 0.0
C1173 C 0.70286 0.65433 0.83104 0.0
C1174 C 0.72097 0.64083 0.83834 0.0
C1175 C 0.7148 0.63779 0.82836 0.0
C1176 C 0.71811 0.65038 0.84458 0.0
C1177 C 0.70048 0.70055 0.87725 0.0
C1178 C 0.71872 0.70335 0.88733 0.0
C1179 C 0.70131 0.70774 0.89663 0.0
C1180 C 0.69503 0.7044 0.8869 0.0
C1181 C 0.71325 0.70733 0.89701 0.0
C1182 C 0.7124 0.69998 0.87756 0.0
C1183 C 0.69343 0.69785 0.86693 0.0
O1184 O 0.68441 0.69008 0.83373 0.0
O1185 O 0.67405 0.67865 0.84413 0.0
O1186 O 0.68718 0.68849 0.86726 0.0
O1187 O 0.69799 0.69964 0.857 0.0
H1188 H 0.67144 0.7078 0.8405 0.0
H1189 H 0.65473 0.71934 0.83609 0.0
H1190 H 0.63808 0.69027 0.82017 0.0
H1191 H 0.65469 0.67883 0.82471 0.0
H1192 H 0.70076 0.64264 0.81713 0.0
H1193 H 0.69581 0.65947 0.82816 0.0
H1194 H 0.72813 0.63589 0.8413 0.0
H1195 H 0.72303 0.65245 0.85224 0.0
H1196 H 0.72788 0.70281 0.88732 0.0
H1197 H 0.69676 0.71094 0.90376 0.0
H1198 H 0.68587 0.70502 0.88685 0.0
H1199 H 0.71683 0.69705 0.87023 0.0
C1200 C 0.33861 0.65973 0.84509 0.0
C1201 C 0.34443 0.65416 0.83657 0.0
C1202 C 0.32929 0.63965 0.83507 0.0
C1203 C 0.33981 0.64422 0.8316 0.0
C1204 C 0.32352 0.64535 0.84358 0.0
C1205 C 0.32813 0.65525 0.84852 0.0
U1206 U 0.35968 0.6854 0.84862 0.0
O1207 O 0.3559 0.70287 0.8536 0.0
O1208 O 0.36705 0.69255 0.86454 0.0
C1209 C 0.3616 0.70213 0.86334 0.0
C1210 C 0.34322 0.67011 0.85067 0.0
C1211 C 0.35588 0.70629 0.87349 0.0
C1212 C 0.33897 0.70901 0.88457 0.0
C1213 C 0.34422 0.7044 0.87512 0.0
C1214 C 0.357 0.71725 0.89097 0.0
C1215 C 0.34528 0.71561 0.89257 0.0
C1216 C 0.36221 0.71266 0.88155 0.0
C1217 C 0.38409 0.69032 0.82757 0.0
C1218 C 0.40134 0.70188 0.83029 0.0
C1219 C 0.39582 0.69523 0.81149 0.0
C1220 C 0.38621 0.68981 0.81593 0.0
C1221 C 0.40358 0.70129 0.8186 0.0
C1222 C 0.39169 0.69646 0.83473 0.0
C1223 C 0.37408 0.68408 0.83199 0.0
O1224 O 0.35324 0.66929 0.8558 0.0
O1225 O 0.34203 0.67966 0.84498 0.0
O1226 O 0.3643 0.68921 0.83094 0.0
O1227 O 0.37549 0.67888 0.84182 0.0
H1228 H 0.35254 0.65748 0.83381 0.0
H1229 H 0.34456 0.64002 0.82516 0.0
H1230 H 0.31533 0.64225 0.84634 0.0
H1231 H 0.32348 0.65944 0.85505 0.0
H1232 H 0.32993 0.70762 0.88544 0.0
H1233 H 0.33915 0.69949 0.86902 0.0
H1234 H 0.3622 0.72207 0.89704 0.0
H1235 H 0.37122 0.7142 0.8805 0.0
H1236 H 0.40714 0.70636 0.83607 0.0
H1237 H 0.39709 0.69475 0.80244 0.0
H1238 H 0.38045 0.68515 0.81024 0.0
H1239 H 0.39024 0.69698 0.84375 0.0
C1240 C 0.35872 0.38084 0.83344 0.0
C1241 C 0.34954 0.38529 0.83919 0.0
C1242 C 0.34788 0.40061 0.82512 0.0
C1243 C 0.34414 0.39509 0.83505 0.0
C1244 C 0.35701 0.39597 0.8194 0.0
C1245 C 0.36235 0.38623 0.82352 0.0
U1246 U 0.3655 0.3547 0.85318 0.0
O1247 O 0.3711 0.33792 0.84757 0.0
O1248 O 0.3825 0.34865 0.85814 0.0
C1249 C 0.38135 0.33933 0.85209 0.0
C1250 C 0.36483 0.37067 0.83743 0.0
C1251 C 0.39085 0.33673 0.84467 0.0
C1252 C 0.40498 0.34239 0.83091 0.0
C1253 C 0.39577 0.34505 0.83766 0.0
C1254 C 0.40433 0.32305 0.83798 0.0
C1255 C 0.40939 0.33135 0.831 0.0
C1256 C 0.39518 0.32572 0.84474 0.0
C1257 C 0.34847 0.34645 0.87984 0.0
C1258 C 0.34009 0.32938 0.88835 0.0
C1259 C 0.34763 0.3444 0.90046 0.0
C1260 C 0.35067 0.3507 0.89084 0.0
C1261 C 0.3422 0.33369 0.89935 0.0
C1262 C 0.34317 0.33567 0.87872 0.0
C1263 C 0.35094 0.35368 0.86974 0.0
O1264 O 0.37086 0.3716 0.84696 0.0
O1265 O 0.35941 0.36084 0.83642 0.0
O1266 O 0.34891 0.3492 0.85965 0.0
O1267 O 0.36037 0.35986 0.87024 0.0
H1268 H 0.34661 0.38124 0.84688 0.0
H1269 H 0.33717 0.39845 0.83971 0.0
H1270 H 0.35999 0.39981 0.81162 0.0
H1271 H 0.36938 0.38289 0.81891 0.0
H1272 H 0.40857 0.34896 0.82555 0.0
H1273 H 0.39252 0.35359 0.83743 0.0
H1274 H 0.40757 0.31451 0.83839 0.0
H1275 H 0.39153 0.31919 0.8501 0.0
H1276 H 0.33603 0.32112 0.88715 0.0
H1277 H 0.34926 0.34807 0.90877 0.0
H1278 H 0.35457 0.35904 0.89201 0.0
H1279 H 0.34125 0.33212 0.8704 0.0
Cu1280 Cu 0.27921 0.26915 0.02266 0.0
N1281 N 0.2925 0.27031 0.01427 0.0
N1282 N 0.30405 0.27573 1.00034 0.0
C1283 C 0.29327 0.27535 1.00399 0.0
C1284 C 0.31029 0.27065 1.00866 0.0
C1285 C 0.30314 0.2673 0.01722 0.0
O1286 O 0.26687 0.26901 1.01102 0.0
C1287 C 0.28677 0.28915 0.035 0.0
O1288 O 0.2936 0.29084 0.02651 0.0
H1289 H 0.2861 0.27906 0.99949 0.0
H1290 H 0.30556 0.26319 0.02514 0.0
N1291 N 0.27852 0.2555 0.03093 0.0
N1292 N 0.27319 0.24318 0.04444 0.0
C1293 C 0.27376 0.25419 0.04116 0.0
C1294 C 0.28115 0.24498 0.02765 0.0
C1295 C 0.27785 0.23736 0.03595 0.0
C1296 C 0.25861 0.26182 1.0108 0.0
O1297 O 0.25677 0.25556 0.01985 0.0
H1298 H 0.27024 0.26114 0.0458 0.0
H1299 H 0.28482 0.24296 0.01961 0.0
O1300 O 0.27929 0.28115 0.03429 0.0
H1301 H 0.31938 0.26949 1.00861 0.0
H1302 H 0.27866 0.22822 0.03566 0.0
Cu1303 Cu 0.77411 0.27177 0.02087 0.0
N1304 N 0.76126 0.27572 0.03032 0.0
N1305 N 0.75096 0.28249 0.04439 0.0
C1306 C 0.76153 0.28087 0.04056 0.0
C1307 C 0.74383 0.27821 0.03624 0.0
C1308 C 0.7502 0.27402 0.0276 0.0
O1309 O 0.78156 0.26366 0.0345 0.0
C1310 C 0.77061 0.28778 1.00185 0.0
O1311 O 0.78041 0.29211 1.00546 0.0
H1312 H 0.76925 0.2836 0.04501 0.0
H1313 H 0.74699 0.27007 0.01985 0.0
N1314 N 0.78701 0.26795 1.01143 0.0
N1315 N 0.7974 0.26259 0.99681 0.0
C1316 C 0.7869 0.26273 1.00122 0.0
C1317 C 0.79788 0.27115 0.01353 0.0
C1318 C 0.80429 0.26784 1.00459 0.0
C1319 C 0.78815 0.2687 0.04171 0.0
O1320 O 0.79059 0.27954 0.04026 0.0
H1321 H 0.77925 0.2595 0.99696 0.0
H1322 H 0.80092 0.27582 0.02092 0.0
O1323 O 0.7663 0.27935 1.00713 0.0
H1324 H 0.73465 0.27802 0.03653 0.0
H1325 H 0.81335 0.26923 1.00389 0.0
Cu1326 Cu 0.76541 0.77844 0.01304 0.0
N1327 N 0.76555 0.79126 1.00346 0.0
N1328 N 0.77038 0.80255 0.98888 0.0
C1329 C 0.77175 0.79235 0.99404 0.0
C1330 C 0.76302 0.80808 0.99536 0.0
C1331 C 0.7601 0.80114 1.00435 0.0
O1332 O 0.76592 0.76533 1.00273 0.0
C1333 C 0.77583 0.78822 0.03177 0.0
O1334 O 0.76661 0.79422 0.03029 0.0
H1335 H 0.77711 0.78572 0.99101 0.0
H1336 H 0.75452 0.80323 1.01112 0.0
N1337 N 0.75212 0.7769 0.02152 0.0
N1338 N 0.7407 0.7708 0.03533 0.0
C1339 C 0.75103 0.77007 0.03068 0.0
C1340 C 0.74212 0.78218 0.02031 0.0
C1341 C 0.73507 0.77842 0.02877 0.0
C1342 C 0.75657 0.76296 0.99739 0.0
O1343 O 0.7476 0.76895 0.99947 0.0
H1344 H 0.75773 0.76461 0.03381 0.0
H1345 H 0.74007 0.7883 0.01373 0.0
O1346 O 0.77775 0.78044 0.02457 0.0
H1347 H 0.76014 0.81665 0.99388 0.0
H1348 H 0.72652 0.78124 0.03007 0.0
Cu1349 Cu 0.27218 0.77307 1.01277 0.0
N1350 N 0.2711 0.78554 0.02263 0.0
N1351 N 0.26546 0.79556 0.03754 0.0
C1352 C 0.26479 0.78552 0.03201 0.0
C1353 C 0.27251 0.80216 0.03136 0.0
C1354 C 0.27601 0.79595 0.02222 0.0
O1355 O 0.27376 0.76003 0.0231 0.0
C1356 C 0.25755 0.78279 0.99716 0.0
O1357 O 0.26441 0.79132 0.99991 0.0
H1358 H 0.25965 0.7783 0.03462 0.0
H1359 H 0.28162 0.79891 0.01568 0.0
N1360 N 0.28501 0.77364 1.00361 0.0
N1361 N 0.29649 0.7691 0.9895 0.0
C1362 C 0.28636 0.76714 0.99435 0.0
C1363 C 0.29463 0.77993 1.00469 0.0
C1364 C 0.3017 0.77717 0.99602 0.0
C1365 C 0.28244 0.76112 0.02978 0.0
O1366 O 0.28923 0.76997 0.02833 0.0
H1367 H 0.27996 0.76113 0.99123 0.0
H1368 H 0.2965 0.78593 1.01143 0.0
O1369 O 0.25906 0.77321 1.00207 0.0
H1370 H 0.27504 0.81083 0.03333 0.0
H1371 H 0.31015 0.78066 0.9948 0.0
Cu1372 Cu 0.02367 0.26014 0.27694 0.0
N1373 N 0.03212 0.24687 0.27532 0.0
N1374 N 0.04601 0.23577 0.26928 0.0
C1375 C 0.04154 0.24628 0.26912 0.0
C1376 C 0.03903 0.2295 0.27586 0.0
C1377 C 0.0305 0.23635 0.27957 0.0
O1378 O 0.03505 0.27235 0.27924 0.0
C1379 C 1.00533 0.25323 0.2643 0.0
O1380 O 1.0061 0.24555 0.27241 0.0
H1381 H 0.04494 0.25346 0.26446 0.0
H1382 H 0.02359 0.2338 0.28493 0.0
N1383 N 0.01423 0.26023 0.28959 0.0
N1384 N 0.99946 0.26525 0.3 0.0
C1385 C 1.00544 0.26731 0.29054 0.0
C1386 C 0.01387 0.25343 0.29879 0.0
C1387 C 1.00481 0.25651 0.30522 0.0
C1388 C 0.04107 0.27073 0.28828 0.0
O1389 O 0.03866 0.26178 0.29455 0.0
H1390 H 1.00349 0.2738 0.28429 0.0
H1391 H 0.01967 0.24662 0.30063 0.0
O1392 O 0.013 0.26104 0.2639 0.0
H1393 H 0.04003 0.22062 0.27799 0.0
H1394 H 1.00223 0.2524 0.313 0.0
Cu1395 Cu 0.77149 0.0175 0.26822 0.0
N1396 N 0.78482 0.0266 0.26813 0.0
N1397 N 0.79631 0.04123 0.26345 0.0
C1398 C 0.78615 0.03591 0.26155 0.0
C1399 C 0.80159 0.03491 0.27156 0.0
C1400 C 0.79449 0.02592 0.27443 0.0
O1401 O 0.75905 0.02847 0.2675 0.0
C1402 C 0.78106 0.99933 0.25824 0.0
O1403 O 0.78731 1.0011 0.2675 0.0
H1404 H 0.77971 0.03871 0.25548 0.0
H1405 H 0.79624 0.01945 0.28076 0.0
N1406 N 0.7697 1.00899 0.28164 0.0
N1407 N 0.76325 0.99504 0.29296 0.0
C1408 C 0.76285 0.99973 0.28245 0.0
C1409 C 0.77461 1.01028 0.29202 0.0
C1410 C 0.77068 1.00168 0.29901 0.0
C1411 C 0.76015 0.03603 0.27524 0.0
O1412 O 0.76866 0.03524 0.28265 0.0
H1413 H 0.75783 0.99638 0.27534 0.0
H1414 H 0.7806 0.01699 0.29438 0.0
O1415 O 0.77287 1.00609 0.25613 0.0
H1416 H 0.80988 0.03675 0.27536 0.0
H1417 H 0.77301 1.0005 0.30789 0.0
Cu1418 Cu 0.01846 0.76693 0.26771 0.0
N1419 N 1.01027 0.78053 0.26709 0.0
N1420 N 0.99624 0.79233 0.26196 0.0
C1421 C 1.00028 0.78169 0.26131 0.0
C1422 C 1.00405 0.7981 0.26842 0.0
C1423 C 0.01266 0.79081 0.27159 0.0
O1424 O 1.00666 0.75497 0.26863 0.0
C1425 C 0.03659 0.77463 0.25597 0.0
O1426 O 0.03664 0.7812 0.26495 0.0
H1427 H 0.99618 0.77486 0.25654 0.0
H1428 H 0.02014 0.79288 0.27677 0.0
N1429 N 0.0283 0.76529 0.28053 0.0
N1430 N 0.04327 0.75902 0.29087 0.0
C1431 C 0.03717 0.75819 0.28099 0.0
C1432 C 0.02875 0.77084 0.29048 0.0
C1433 C 0.03794 0.76698 0.29689 0.0
C1434 C 1.00037 0.75637 0.27716 0.0
O1435 O 1.00302 0.76472 0.28418 0.0
H1436 H 0.0391 0.75256 0.27411 0.0
H1437 H 0.02295 0.77736 0.29286 0.0
O1438 O 0.02858 0.7672 0.25473 0.0
H1439 H 1.00355 0.80695 0.27077 0.0
H1440 H 0.04063 0.77004 0.3052 0.0
Cu1441 Cu 0.26153 1.01344 0.27587 0.0
N1442 N 0.26241 0.02243 0.28901 0.0
N1443 N 0.26794 0.03674 0.30057 0.0
C1444 C 0.26828 0.03236 0.28998 0.0
C1445 C 0.26156 0.02922 0.30646 0.0
C1446 C 0.2582 0.02042 0.29934 0.0
O1447 O 0.26096 0.02426 0.26312 0.0
C1448 C 0.27289 0.99503 0.28421 0.0
O1449 O 0.26394 0.9953 0.2906 0.0
H1450 H 0.27273 0.03624 0.28301 0.0
H1451 H 0.25324 1.01297 0.30162 0.0
N1452 N 0.24832 1.00414 0.27479 0.0
N1453 N 0.23681 0.98973 0.26908 0.0
C1454 C 0.24688 0.99522 0.26771 0.0
C1455 C 0.23883 1.00435 0.28085 0.0
C1456 C 0.23172 0.9955 0.27735 0.0
C1457 C 0.25157 0.02947 0.26215 0.0
O1458 O 0.24354 0.02695 0.26929 0.0
H1459 H 0.25328 0.99264 0.26189 0.0
H1460 H 0.23718 1.01048 0.28737 0.0
O1461 O 0.27419 1.00283 0.27673 0.0
H1462 H 0.2597 0.02981 0.31538 0.0
H1463 H 0.22342 0.99354 0.28062 0.0
Cu1464 Cu 0.01865 0.77059 0.76611 0.0
N1465 N 0.02788 0.75777 0.76591 0.0
N1466 N 0.04218 0.74676 0.76075 0.0
C1467 C 0.03706 0.75688 0.75941 0.0
C1468 C 0.03592 0.74105 0.76843 0.0
C1469 C 0.02713 0.74786 0.77162 0.0
O1470 O 0.02966 0.78339 0.76606 0.0
C1471 C 1.00084 0.76069 0.75438 0.0
O1472 O 1.00245 0.7539 0.76314 0.0
H1473 H 0.03979 0.76352 0.75365 0.0
H1474 H 0.02065 0.74571 0.77761 0.0
N1475 N 1.00978 0.77134 0.77911 0.0
N1476 N 0.99554 0.77657 0.79008 0.0
C1477 C 1.00006 0.77718 0.77967 0.0
C1478 C 1.01148 0.76683 0.78952 0.0
C1479 C 1.00269 0.77001 0.7963 0.0
C1480 C 0.03026 0.79085 0.7739 0.0
O1481 O 0.02182 0.79161 0.78087 0.0
H1482 H 0.99642 0.78181 0.77253 0.0
H1483 H 0.01867 0.76175 0.79207 0.0
O1484 O 1.00762 0.76922 0.75332 0.0
H1485 H 0.03759 0.7326 0.77163 0.0
H1486 H 1.00182 0.76789 0.80519 0.0
Cu1487 Cu 0.27531 0.0256 0.77974 0.0
N1488 N 0.28923 0.03369 0.77927 0.0
N1489 N 0.30205 0.0466 0.77346 0.0
C1490 C 0.29157 0.04196 0.77168 0.0
C1491 C 0.30648 0.04099 0.78254 0.0
C1492 C 0.29857 0.03302 0.78608 0.0
O1493 O 0.26363 0.03736 0.78111 0.0
C1494 C 0.28375 1.00923 0.76625 0.0
O1495 O 0.29156 1.01056 0.77434 0.0
H1496 H 0.28556 0.0447 0.76515 0.0
H1497 H 0.29958 0.02715 0.79311 0.0
N1498 N 0.2743 0.01572 0.79227 0.0
N1499 N 0.26915 1.00021 0.8022 0.0
C1500 C 0.2685 1.00573 0.7921 0.0
C1501 C 0.27877 0.01664 0.80286 0.0
C1502 C 0.27563 1.0071 0.809 0.0
C1503 C 0.2659 0.04456 0.78901 0.0
O1504 O 0.27507 0.04307 0.79541 0.0
H1505 H 0.26377 1.00269 0.78468 0.0
H1506 H 0.28393 0.02372 0.80595 0.0
O1507 O 0.27492 0.0154 0.76648 0.0
H1508 H 0.31485 0.04248 0.78632 0.0
H1509 H 0.27806 1.00538 0.81776 0.0
Cu1510 Cu 0.02304 0.27979 0.77548 0.0
N1511 N 0.01289 0.292 0.77501 0.0
N1512 N 0.99806 0.30242 0.769 0.0
C1513 C 1.00514 0.2939 0.76656 0.0
C1514 C 1.00155 0.306 0.77944 0.0
C1515 C 1.0106 0.29954 0.78313 0.0
O1516 O 0.0131 0.2664 0.77752 0.0
C1517 C 0.03664 0.29046 0.75996 0.0
O1518 O 0.0335 0.29901 0.76619 0.0
H1519 H 1.00459 0.28891 0.75887 0.0
H1520 H 0.01481 0.29998 0.79139 0.0
N1521 N 0.03381 0.28027 0.78761 0.0
N1522 N 0.04902 0.27492 0.79817 0.0
C1523 C 0.04079 0.27169 0.79051 0.0
C1524 C 0.03778 0.28928 0.79359 0.0
C1525 C 0.04707 0.286 0.80015 0.0
C1526 C 1.00813 0.26646 0.78703 0.0
O1527 O 1.01102 0.27449 0.79431 0.0
H1528 H 0.04023 0.26344 0.78653 0.0
H1529 H 0.0346 0.29779 0.79279 0.0
O1530 O 0.03243 0.2806 0.76198 0.0
H1531 H 0.99752 0.31247 0.78433 0.0
H1532 H 0.05216 0.29149 0.80569 0.0
Cu1533 Cu 0.76489 0.02297 0.76458 0.0
N1534 N 0.76579 0.03248 0.77735 0.0
N1535 N 0.77129 0.04736 0.7881 0.0
C1536 C 0.77275 0.04168 0.77833 0.0
C1537 C 0.76309 0.04147 0.7935 0.0
C1538 C 0.75973 0.03229 0.78687 0.0
O1539 O 0.76402 0.03355 0.7516 0.0
C1540 C 0.7769 1.00607 0.77462 0.0
O1541 O 0.76869 1.00794 0.78165 0.0
H1542 H 0.77857 0.04429 0.77182 0.0
H1543 H 0.75332 0.02596 0.78887 0.0
N1544 N 0.75186 1.01342 0.76398 0.0
N1545 N 0.74082 0.99833 0.75928 0.0
C1546 C 0.75112 1.00346 0.75835 0.0
C1547 C 0.74168 0.01461 0.76869 0.0
C1548 C 0.73485 1.00536 0.76577 0.0
C1549 C 0.75521 0.03971 0.75181 0.0
O1550 O 0.74803 0.03788 0.75998 0.0
H1551 H 0.75798 1.00014 0.75353 0.0
H1552 H 0.73932 0.02171 0.77384 0.0
O1553 O 0.77758 1.01242 0.76581 0.0
H1554 H 0.75981 0.04356 0.8017 0.0
H1555 H 0.72619 1.00388 0.76832 0.0
Cu1556 Cu 0.27239 0.7693 0.51633 0.0
N1557 N 0.28527 0.77183 0.52589 0.0
N1558 N 0.29576 0.77846 0.54074 0.0
C1559 C 0.2852 0.77708 0.53606 0.0
C1560 C 0.30274 0.77387 0.53318 0.0
C1561 C 0.29626 0.76978 0.52406 0.0
O1562 O 0.25969 0.76744 0.52663 0.0
C1563 C 0.27897 0.7809 0.4972 0.0
O1564 O 0.28601 0.77239 0.49748 0.0
H1565 H 0.27755 0.78016 0.53977 0.0
H1566 H 0.29937 0.7658 0.51654 0.0
N1567 N 0.27281 0.75589 0.5077 0.0
N1568 N 0.26834 0.74373 0.49357 0.0
C1569 C 0.26571 0.7535 0.4988 0.0
C1570 C 0.2802 0.74731 0.50819 0.0
C1571 C 0.27746 0.73981 0.49949 0.0
C1572 C 0.26096 0.75888 0.53323 0.0
O1573 O 0.26993 0.7526 0.53198 0.0
H1574 H 0.259 0.75909 0.49598 0.0
H1575 H 0.28718 0.74665 0.5143 0.0
O1576 O 0.27184 0.78175 0.50512 0.0
H1577 H 0.31189 0.77351 0.53414 0.0
H1578 H 0.28189 0.7321 0.49767 0.0
Cu1579 Cu 0.77112 0.77394 0.51253 0.0
N1580 N 0.78362 0.77433 0.5029 0.0
N1581 N 0.79461 0.76953 0.48848 0.0
C1582 C 0.78461 0.76775 0.49364 0.0
C1583 C 0.80011 0.77759 0.49477 0.0
C1584 C 0.79333 0.78054 0.50362 0.0
O1585 O 0.75771 0.7744 0.50222 0.0
C1586 C 0.78214 0.76129 0.52861 0.0
O1587 O 0.78927 0.76975 0.52668 0.0
H1588 H 0.77818 0.76158 0.49092 0.0
H1589 H 0.79545 0.78663 0.51021 0.0
N1590 N 0.77056 0.78645 0.52242 0.0
N1591 N 0.76533 0.79673 0.53732 0.0
C1592 C 0.76444 0.78662 0.53193 0.0
C1593 C 0.77556 0.7968 0.52179 0.0
C1594 C 0.77233 0.80315 0.53093 0.0
C1595 C 0.75691 0.78381 0.49682 0.0
O1596 O 0.7646 0.79179 0.49896 0.0
H1597 H 0.75923 0.77951 0.53469 0.0
H1598 H 0.78102 0.79964 0.51507 0.0
O1599 O 0.77283 0.76084 0.52278 0.0
H1600 H 0.80843 0.78116 0.49311 0.0
H1601 H 0.77498 0.81183 0.53273 0.0
Cu1602 Cu 0.7743 0.26613 0.51056 0.0
N1603 N 0.77357 0.25331 0.501 0.0
N1604 N 0.76757 0.2422 0.48644 0.0
C1605 C 0.76642 0.25221 0.49187 0.0
C1606 C 0.77581 0.23681 0.49246 0.0
C1607 C 0.77948 0.24365 0.5014 0.0
O1608 O 0.77507 0.27918 0.50015 0.0
C1609 C 0.76301 0.2563 0.52772 0.0
O1610 O 0.77134 0.24937 0.52578 0.0
H1611 H 0.76039 0.25864 0.48938 0.0
H1612 H 0.78597 0.24167 0.50774 0.0
N1613 N 0.78717 0.26724 0.5205 0.0
N1614 N 0.79757 0.27316 0.53573 0.0
C1615 C 0.78762 0.27394 0.52978 0.0
C1616 C 0.79721 0.26198 0.52056 0.0
C1617 C 0.80364 0.26564 0.5299 0.0
C1618 C 0.78441 0.27963 0.49489 0.0
O1619 O 0.79199 0.27186 0.4972 0.0
H1620 H 0.78073 0.27935 0.53205 0.0
H1621 H 0.79971 0.25593 0.51428 0.0
O1622 O 0.76172 0.26484 0.52109 0.0
H1623 H 0.7791 0.22855 0.49053 0.0
H1624 H 0.81207 0.26282 0.53229 0.0
Cu1625 Cu 0.276 0.27855 0.52839 0.0
N1626 N 0.27459 0.29203 0.53669 0.0
N1627 N 0.26873 0.3036 0.55033 0.0
C1628 C 0.26798 0.29308 0.54578 0.0
C1629 C 0.2761 0.3094 0.54377 0.0
C1630 C 0.27971 0.30225 0.5354 0.0
O1631 O 0.2773 0.26635 0.53984 0.0
C1632 C 0.26472 0.28599 0.50944 0.0
O1633 O 0.27308 0.29342 0.51098 0.0
H1634 H 0.2627 0.28621 0.54894 0.0
H1635 H 0.28571 0.30434 0.52889 0.0
N1636 N 0.28921 0.27799 0.51987 0.0
N1637 N 0.3004 0.27241 0.50592 0.0
C1638 C 0.29015 0.27128 0.51072 0.0
C1639 C 0.29923 0.2836 0.52098 0.0
C1640 C 0.30615 0.28018 0.51239 0.0
C1641 C 0.28534 0.26838 0.54712 0.0
O1642 O 0.29149 0.27771 0.54589 0.0
H1643 H 0.28328 0.26583 0.50756 0.0
H1644 H 0.30139 0.28971 0.52756 0.0
O1645 O 0.26358 0.27807 0.51683 0.0
H1646 H 0.27888 0.31812 0.54504 0.0
H1647 H 0.31478 0.28312 0.51113 0.0
Cu1648 Cu 0.77716 0.52342 0.77019 0.0
N1649 N 0.78988 0.53336 0.76968 0.0
N1650 N 0.80067 0.54814 0.76395 0.0
C1651 C 0.79053 0.54258 0.76285 0.0
C1652 C 0.8066 0.54214 0.77184 0.0
C1653 C 0.79995 0.53306 0.77535 0.0
O1654 O 0.76418 0.5336 0.77158 0.0
C1655 C 0.78712 0.50799 0.75656 0.0
O1656 O 0.79508 0.51035 0.76426 0.0
H1657 H 0.78373 0.545 0.75701 0.0
H1658 H 0.80241 0.52662 0.78145 0.0
N1659 N 0.77717 0.51345 0.78276 0.0
N1660 N 0.77195 0.49839 0.79334 0.0
C1661 C 0.77037 0.50412 0.78344 0.0
C1662 C 0.78329 0.51366 0.79258 0.0
C1663 C 0.78011 0.50442 0.7991 0.0
C1664 C 0.7643 0.53883 0.78109 0.0
O1665 O 0.77243 0.53656 0.78857 0.0
H1666 H 0.76427 0.50173 0.77681 0.0
H1667 H 0.78953 0.52014 0.79494 0.0
O1668 O 0.77771 0.51319 0.75702 0.0
H1669 H 0.81515 0.54414 0.77493 0.0
H1670 H 0.78363 0.5023 0.80741 0.0
Cu1671 Cu 0.27664 0.52287 0.7641 0.0
N1672 N 0.2898 0.51409 0.76478 0.0
N1673 N 0.30123 0.49996 0.77033 0.0
C1674 C 0.29111 0.50495 0.77161 0.0
C1675 C 0.3065 0.50628 0.76237 0.0
C1676 C 0.29943 0.51497 0.75894 0.0
O1677 O 0.26406 0.51165 0.76427 0.0
C1678 C 0.28641 0.54105 0.77487 0.0
O1679 O 0.29259 0.53974 0.76587 0.0
H1680 H 0.28473 0.50209 0.77746 0.0
H1681 H 0.30117 0.52141 0.75261 0.0
N1682 N 0.27492 0.53156 0.75071 0.0
N1683 N 0.26885 0.54554 0.73916 0.0
C1684 C 0.26881 0.54111 0.74978 0.0
C1685 C 0.27902 0.52988 0.74031 0.0
C1686 C 0.27526 0.53846 0.73317 0.0
C1687 C 0.26481 0.50427 0.75641 0.0
O1688 O 0.27308 0.50549 0.74923 0.0
H1689 H 0.26427 0.54464 0.75676 0.0
H1690 H 0.28433 0.5229 0.73806 0.0
O1691 O 0.27822 0.53399 0.77645 0.0
H1692 H 0.3148 0.50466 0.75908 0.0
H1693 H 0.2772 0.53945 0.72429 0.0
Cu1694 Cu 0.26843 0.51432 0.26332 0.0
N1695 N 0.25528 0.50508 0.26448 0.0
N1696 N 0.24385 0.49099 0.27068 0.0
C1697 C 0.25463 0.49427 0.2684 0.0
C1698 C 0.23748 0.50007 0.26796 0.0
C1699 C 0.24452 0.50871 0.26427 0.0
O1700 O 0.28126 0.50438 0.26043 0.0
C1701 C 0.27412 0.53294 0.27873 0.0
O1702 O 0.28307 0.53506 0.27263 0.0
H1703 H 0.26198 0.48918 0.27031 0.0
H1704 H 0.24204 0.51732 0.26235 0.0
N1705 N 0.26728 0.52451 0.25095 0.0
N1706 N 0.27155 0.53954 0.23991 0.0
C1707 C 0.2754 0.53207 0.24783 0.0
C1708 C 0.25805 0.52709 0.24451 0.0
C1709 C 0.26064 0.53633 0.23774 0.0
C1710 C 0.28518 0.49655 0.26687 0.0
O1711 O 0.28178 0.49576 0.27738 0.0
H1712 H 0.28384 0.53239 0.25166 0.0
H1713 H 0.24989 0.5228 0.24491 0.0
O1714 O 0.26835 0.52381 0.277 0.0
H1715 H 0.22841 0.50063 0.26901 0.0
H1716 H 0.25484 0.54048 0.23183 0.0
Cu1717 Cu 0.77469 0.52266 0.26561 0.0
N1718 N 0.78826 0.51459 0.26717 0.0
N1719 N 0.79992 0.50054 0.27242 0.0
C1720 C 0.78915 0.50432 0.27219 0.0
C1721 C 0.80603 0.50884 0.26728 0.0
C1722 C 0.79882 0.51749 0.26408 0.0
O1723 O 0.76256 0.51108 0.26403 0.0
C1724 C 0.78064 0.53363 0.28671 0.0
O1725 O 0.78723 0.52491 0.2886 0.0
H1726 H 0.78196 0.4997 0.27556 0.0
H1727 H 0.80114 0.52538 0.25991 0.0
N1728 N 0.77411 0.53184 0.25257 0.0
N1729 N 0.7685 0.54603 0.24106 0.0
C1730 C 0.76755 0.54105 0.25137 0.0
C1731 C 0.77946 0.53094 0.24268 0.0
C1732 C 0.77599 0.53966 0.23556 0.0
C1733 C 0.76427 0.50387 0.25622 0.0
O1734 O 0.77324 0.50531 0.24996 0.0
H1735 H 0.76201 0.54389 0.25791 0.0
H1736 H 0.78542 0.52439 0.24078 0.0
O1737 O 0.77376 0.53345 0.27815 0.0
H1738 H 0.81511 0.50881 0.2661 0.0
H1739 H 0.77886 0.54123 0.22703 0.0
Cu1740 Cu 0.53021 0.27413 0.76295 0.0
N1741 N 0.52174 0.2874 0.76432 0.0
N1742 N 0.50798 0.29892 0.76979 0.0
C1743 C 0.51131 0.28807 0.76868 0.0
C1744 C 0.51666 0.30534 0.76586 0.0
C1745 C 0.52512 0.29823 0.7625 0.0
O1746 O 0.51948 0.26161 0.75965 0.0
C1747 C 0.54071 0.27906 0.78472 0.0
O1748 O 0.53183 0.28536 0.78633 0.0
H1749 H 0.50648 0.28076 0.77153 0.0
H1750 H 0.53331 0.30078 0.75932 0.0
N1751 N 0.53974 0.27494 0.75051 0.0
N1752 N 0.55407 0.27055 0.7393 0.0
C1753 C 0.54884 0.26837 0.74918 0.0
C1754 C 0.53912 0.28154 0.74117 0.0
C1755 C 0.54796 0.27888 0.73425 0.0
C1756 C 0.51191 0.25745 0.76606 0.0
O1757 O 0.51188 0.26043 0.77679 0.0
H1758 H 0.5516 0.26215 0.75542 0.0
H1759 H 0.53265 0.28776 0.73945 0.0
O1760 O 0.54078 0.27263 0.77604 0.0
H1761 H 0.51699 0.31453 0.76561 0.0
H1762 H 0.5496 0.28264 0.72604 0.0
Cu1763 Cu 0.51956 0.77584 0.77161 0.0
N1764 N 0.52978 0.77459 0.78416 0.0
N1765 N 0.54488 0.76853 0.79445 0.0
C1766 C 0.53912 0.76811 0.78433 0.0
C1767 C 0.53887 0.77559 0.80088 0.0
C1768 C 0.5296 0.77931 0.79453 0.0
O1769 O 0.52935 0.7768 0.75838 0.0
C1770 C 0.50225 0.76406 0.78133 0.0
O1771 O 0.50449 0.77246 0.78838 0.0
H1772 H 0.54149 0.76303 0.77719 0.0
H1773 H 0.52315 0.78496 0.79736 0.0
N1774 N 0.5107 0.78904 0.77148 0.0
N1775 N 0.49637 0.80058 0.76659 0.0
C1776 C 0.50139 0.79054 0.76471 0.0
C1777 C 0.51165 0.79848 0.77785 0.0
C1778 C 0.50284 0.80558 0.77488 0.0
C1779 C 0.53561 0.7858 0.75849 0.0
O1780 O 0.53443 0.79304 0.7668 0.0
H1781 H 0.49823 0.78424 0.75869 0.0
H1782 H 0.51828 0.80012 0.7842 0.0
O1783 O 0.50841 0.76323 0.77261 0.0
H1784 H 0.54103 0.77801 0.80953 0.0
H1785 H 0.50139 0.81385 0.77847 0.0
Cu1786 Cu 0.51222 0.76488 0.26849 0.0
N1787 N 0.50433 0.76574 0.28209 0.0
N1788 N 0.49101 0.7712 0.29406 0.0
C1789 C 0.49514 0.77219 0.28349 0.0
C1790 C 0.49797 0.76384 0.29952 0.0
C1791 C 0.50616 0.76049 0.29212 0.0
O1792 O 0.50045 0.76453 0.25627 0.0
C1793 C 0.53189 0.77586 0.2757 0.0
O1794 O 0.53204 0.76653 0.28187 0.0
H1795 H 0.49163 0.77758 0.27685 0.0
H1796 H 0.51293 0.75462 0.29392 0.0
N1797 N 0.52057 0.75155 0.267 0.0
N1798 N 0.53422 0.74024 0.26079 0.0
C1799 C 0.52966 0.75071 0.26039 0.0
C1800 C 0.51921 0.74125 0.2718 0.0
C1801 C 0.52759 0.73427 0.268 0.0
C1802 C 0.49277 0.75689 0.2578 0.0
O1803 O 0.49371 0.75029 0.26679 0.0
H1804 H 0.53289 0.75781 0.25551 0.0
H1805 H 0.51262 0.73897 0.27763 0.0
O1806 O 0.5235 0.77744 0.26877 0.0
H1807 H 0.49714 0.76092 0.30819 0.0
H1808 H 0.52861 0.72547 0.2704 0.0
Cu1809 Cu 0.51814 0.27176 0.27309 0.0
N1810 N 0.50838 0.27204 0.2854 0.0
N1811 N 0.4944 0.26644 0.29685 0.0
C1812 C 0.50241 0.26314 0.2896 0.0
C1813 C 0.49558 0.27787 0.29735 0.0
C1814 C 0.50413 0.28128 0.29026 0.0
O1815 O 0.50838 0.27414 0.25946 0.0
C1816 C 0.53599 0.2562 0.26882 0.0
O1817 O 0.53793 0.26272 0.25998 0.0
H1818 H 0.50356 0.25449 0.28688 0.0
H1819 H 0.50659 0.28994 0.28824 0.0
N1820 N 0.52866 0.28394 0.27395 0.0
N1821 N 0.54333 0.29532 0.26931 0.0
C1822 C 0.53533 0.28772 0.26555 0.0
C1823 C 0.53243 0.28944 0.28333 0.0
C1824 C 0.54143 0.29648 0.28051 0.0
C1825 C 0.49856 0.26944 0.25831 0.0
O1826 O 0.4959 0.26098 0.2651 0.0
H1827 H 0.53471 0.28445 0.25698 0.0
H1828 H 0.52922 0.28805 0.29175 0.0
O1829 O 0.52715 0.2579 0.27455 0.0
H1830 H 0.49017 0.28348 0.3019 0.0
H1831 H 0.54636 0.30178 0.28636 0.0
H1832 H 0.21779 0.18874 0.1214 0.0
H1833 H 0.22697 0.1968 0.10476 0.0
H1834 H 0.23872 0.22562 0.12457 0.0
H1835 H 0.22929 0.21775 0.14121 0.0
H1836 H 0.23097 0.23218 0.10362 0.0
H1837 H 0.25659 0.20417 0.11864 0.0
H1838 H 0.26204 0.18512 0.12536 0.0
H1839 H 0.25283 0.17116 0.09269 0.0
H1840 H 0.24717 0.19012 0.08581 0.0
H1841 H 0.27161 0.25332 0.06495 0.0
H1842 H 0.26217 0.24578 0.08171 0.0
H1843 H 0.25294 0.21521 0.06334 0.0
H1844 H 0.26258 0.22263 0.04667 0.0
H1845 H 0.25939 0.20962 0.08376 0.0
H1846 H 0.23356 0.23721 0.06861 0.0
H1847 H 0.2277 0.25607 0.06167 0.0
H1848 H 0.2367 0.27058 0.09415 0.0
H1849 H 0.24275 0.25183 0.10124 0.0
C1850 C 0.22219 0.19687 0.12221 0.0
C1851 C 0.2228 0.20256 0.1327 0.0
C1852 C 0.22754 0.20142 0.11269 0.0
C1853 C 0.23369 0.21176 0.11341 0.0
C1854 C 0.23408 0.21761 0.12379 0.0
C1855 C 0.22875 0.21305 0.13333 0.0
C1856 C 0.23983 0.21637 0.10341 0.0
C1857 C 0.23729 0.22731 0.09937 0.0
C1858 C 0.24789 0.20994 0.09765 0.0
C1859 C 0.25136 0.19855 0.10175 0.0
C1860 C 0.25565 0.19703 0.11291 0.0
C1861 C 0.25878 0.18625 0.11674 0.0
C1862 C 0.25775 0.17693 0.10946 0.0
C1863 C 0.25361 0.17838 0.09832 0.0
C1864 C 0.25045 0.18915 0.09445 0.0
C1865 C 0.26753 0.24501 0.06448 0.0
C1866 C 0.26784 0.23861 0.05444 0.0
C1867 C 0.2621 0.24071 0.07407 0.0
C1868 C 0.25663 0.22997 0.0738 0.0
C1869 C 0.25707 0.2235 0.06382 0.0
C1870 C 0.26262 0.22775 0.05428 0.0
C1871 C 0.25052 0.22545 0.08389 0.0
C1872 C 0.25307 0.21452 0.08798 0.0
C1873 C 0.24241 0.23187 0.08964 0.0
C1874 C 0.23871 0.24314 0.08542 0.0
C1875 C 0.23436 0.24444 0.07425 0.0
C1876 C 0.23099 0.25511 0.07029 0.0
C1877 C 0.23185 0.26453 0.07746 0.0
C1878 C 0.23605 0.26329 0.08861 0.0
C1879 C 0.23944 0.25264 0.0926 0.0
H1880 H 0.22925 0.27278 0.07438 0.0
H1881 H 0.26019 0.16859 0.11245 0.0
H1882 H 0.81434 0.20174 0.12534 0.0
H1883 H 0.80744 0.21204 0.10855 0.0
H1884 H 0.82785 0.24129 0.1185 0.0
H1885 H 0.83505 0.23096 0.13522 0.0
H1886 H 0.80602 0.24706 0.11121 0.0
H1887 H 0.83659 0.22469 0.09784 0.0
H1888 H 0.84715 0.2071 0.09504 0.0
H1889 H 0.81847 0.19248 0.0767 0.0
H1890 H 0.80768 0.20994 0.07953 0.0
H1891 H 0.80227 0.27696 0.05874 0.0
H1892 H 0.80926 0.26698 0.07572 0.0
H1893 H 0.79109 0.2366 0.06489 0.0
H1894 H 0.78419 0.24647 0.04778 0.0
H1895 H 0.81181 0.23152 0.07277 0.0
H1896 H 0.78114 0.25346 0.08579 0.0
H1897 H 0.77022 0.27089 0.08828 0.0
H1898 H 0.79827 0.28601 0.10719 0.0
H1899 H 0.80944 0.26873 0.10464 0.0
C1900 C 0.8175 0.21032 0.12393 0.0
C1901 C 0.82536 0.21545 0.13166 0.0
C1902 C 0.81347 0.21622 0.11433 0.0
C1903 C 0.81719 0.22741 0.11219 0.0
C1904 C 0.82484 0.23267 0.11998 0.0
C1905 C 0.82892 0.22675 0.12957 0.0
C1906 C 0.81324 0.23353 0.10173 0.0
C1907 C 0.80742 0.24375 0.1028 0.0
C1908 C 0.8148 0.22907 0.09075 0.0
C1909 C 0.82129 0.21858 0.08899 0.0
C1910 C 0.8325 0.21769 0.09329 0.0
C1911 C 0.83854 0.20775 0.09168 0.0
C1912 C 0.83347 0.19866 0.08572 0.0
C1913 C 0.82237 0.19952 0.08133 0.0
C1914 C 0.8163 0.20944 0.08292 0.0
C1915 C 0.79977 0.26815 0.05994 0.0
C1916 C 0.79263 0.26254 0.05189 0.0
C1917 C 0.80374 0.26246 0.0697 0.0
C1918 C 0.80059 0.25106 0.07169 0.0
C1919 C 0.79362 0.24539 0.06357 0.0
C1920 C 0.78966 0.25106 0.0538 0.0
C1921 C 0.80457 0.24506 0.08222 0.0
C1922 C 0.8104 0.23485 0.08117 0.0
C1923 C 0.80293 0.2495 0.09321 0.0
C1924 C 0.79617 0.25983 0.09493 0.0
C1925 C 0.78501 0.26053 0.09042 0.0
C1926 C 0.77877 0.27038 0.09184 0.0
C1927 C 0.78356 0.27955 0.09787 0.0
C1928 C 0.79458 0.27889 0.10251 0.0
C1929 C 0.80087 0.26907 0.10109 0.0
H1930 H 0.77871 0.28716 0.09897 0.0
H1931 H 0.83816 0.19097 0.08449 0.0
H1932 H 0.80566 0.82954 0.12573 0.0
H1933 H 0.79961 0.81907 0.10877 0.0
H1934 H 0.83445 0.81692 0.09885 0.0
H1935 H 0.84057 0.82782 0.11574 0.0
H1936 H 0.82124 0.8222 0.08082 0.0
H1937 H 0.8201 0.79343 0.10913 0.0
H1938 H 0.8155 0.78454 0.12747 0.0
H1939 H 0.77988 0.78715 0.11934 0.0
H1940 H 0.78426 0.79622 0.10101 0.0
H1941 H 0.7991 0.78586 0.03514 0.0
H1942 H 0.81053 0.79155 0.05218 0.0
H1943 H 0.77998 0.80101 0.06875 0.0
H1944 H 0.76871 0.79553 0.05196 0.0
H1945 H 0.79442 0.78932 0.08316 0.0
H1946 H 0.79618 0.82081 0.05624 0.0
H1947 H 0.80096 0.82966 0.03791 0.0
H1948 H 0.83598 0.82125 0.04352 0.0
H1949 H 0.83138 0.81221 0.06183 0.0
C1950 C 0.81207 0.82692 0.11994 0.0
C1951 C 0.82362 0.82961 0.12215 0.0
C1952 C 0.8086 0.82079 0.11026 0.0
C1953 C 0.81656 0.81703 0.10253 0.0
C1954 C 0.82812 0.81966 0.10468 0.0
C1955 C 0.83162 0.82582 0.11441 0.0
C1956 C 0.81266 0.81065 0.09211 0.0
C1957 C 0.81558 0.81485 0.08136 0.0
C1958 C 0.80522 0.80106 0.0927 0.0
C1959 C 0.80252 0.79558 0.10371 0.0
C1960 C 0.81128 0.79219 0.11128 0.0
C1961 C 0.80871 0.7871 0.12167 0.0
C1962 C 0.7974 0.7853 0.12458 0.0
C1963 C 0.78864 0.78856 0.11708 0.0
C1964 C 0.79116 0.79366 0.10668 0.0
C1965 C 0.79487 0.78901 0.04249 0.0
C1966 C 0.78301 0.79031 0.04217 0.0
C1967 C 0.80139 0.79232 0.05219 0.0
C1968 C 0.79612 0.79679 0.06176 0.0
C1969 C 0.78426 0.7976 0.06153 0.0
C1970 C 0.77783 0.7945 0.05187 0.0
C1971 C 0.80273 0.80109 0.07193 0.0
C1972 C 0.80029 0.79651 0.08265 0.0
C1973 C 0.81065 0.81026 0.07129 0.0
C1974 C 0.81341 0.8157 0.06031 0.0
C1975 C 0.80488 0.82076 0.05351 0.0
C1976 C 0.80756 0.82583 0.04314 0.0
C1977 C 0.81876 0.82598 0.03953 0.0
C1978 C 0.82731 0.8211 0.04631 0.0
C1979 C 0.82467 0.816 0.05668 0.0
H1980 H 0.82082 0.82992 0.0315 0.0
H1981 H 0.79543 0.78136 0.13263 0.0
H1982 H 0.21358 0.8112 0.13247 0.0
H1983 H 0.22262 0.80366 0.11569 0.0
H1984 H 0.22409 0.83732 0.10111 0.0
H1985 H 0.21474 0.84482 0.11762 0.0
H1986 H 0.21775 0.82242 0.08532 0.0
H1987 H 0.24754 0.82472 0.11417 0.0
H1988 H 0.25673 0.82074 0.13281 0.0
H1989 H 0.2553 0.78498 0.1258 0.0
H1990 H 0.24595 0.78875 0.10717 0.0
H1991 H 0.259 0.81663 0.04356 0.0
H1992 H 0.2489 0.82189 0.06052 0.0
H1993 H 0.24836 0.7869 0.07154 0.0
H1994 H 0.2587 0.78161 0.05466 0.0
H1995 H 0.2535 0.80097 0.08914 0.0
H1996 H 0.22461 0.7987 0.05991 0.0
H1997 H 0.21558 0.80265 0.0412 0.0
H1998 H 0.21533 0.83825 0.04886 0.0
H1999 H 0.22451 0.83453 0.06757 0.0
C2000 C 0.2157 0.81698 0.12564 0.0
C2001 C 0.21349 0.82865 0.12648 0.0
C2002 C 0.22099 0.81267 0.11608 0.0
C2003 C 0.22422 0.81993 0.10716 0.0
C2004 C 0.22176 0.83153 0.10787 0.0
C2005 C 0.21649 0.83583 0.11739 0.0
C2006 C 0.23019 0.81556 0.09709 0.0
C2007 C 0.22563 0.81784 0.08617 0.0
C2008 C 0.24032 0.80928 0.09814 0.0
C2009 C 0.24592 0.80701 0.10934 0.0
C2010 C 0.24909 0.816 0.11665 0.0
C2011 C 0.25435 0.81379 0.1272 0.0
C2012 C 0.25656 0.80261 0.13051 0.0
C2013 C 0.25355 0.79363 0.12324 0.0
C2014 C 0.24828 0.7958 0.11268 0.0
C2015 C 0.25682 0.81005 0.04962 0.0
C2016 C 0.25962 0.79868 0.04768 0.0
C2017 C 0.25094 0.81306 0.05929 0.0
C2018 C 0.24769 0.80478 0.06726 0.0
C2019 C 0.25069 0.79344 0.06549 0.0
C2020 C 0.25653 0.79041 0.05578 0.0
C2021 C 0.24115 0.808 0.07739 0.0
C2022 C 0.24559 0.8055 0.0883 0.0
C2023 C 0.2309 0.81407 0.07634 0.0
C2024 C 0.22534 0.81634 0.06511 0.0
C2025 C 0.22271 0.80738 0.05758 0.0
C2026 C 0.21755 0.80958 0.04697 0.0
C2027 C 0.21491 0.8207 0.04383 0.0
C2028 C 0.21739 0.82964 0.0513 0.0
C2029 C 0.22256 0.82749 0.06191 0.0
H2030 H 0.21091 0.82238 0.03562 0.0
H2031 H 0.26063 0.80091 0.13868 0.0
H2032 H 0.20599 0.8356 0.91856 0.0
H2033 H 0.21312 0.82544 0.93533 0.0
H2034 H 0.21985 0.79633 0.91472 0.0
H2035 H 0.21284 0.80654 0.89777 0.0
H2036 H 0.21104 0.79037 0.9363 0.0
H2037 H 0.2412 0.8132 0.92123 0.0
H2038 H 0.25015 0.83073 0.91383 0.0
H2039 H 0.24494 0.84747 0.94551 0.0
H2040 H 0.23579 0.83008 0.95304 0.0
H2041 H 0.25088 0.76845 0.97962 0.0
H2042 H 0.24021 0.77391 0.96219 0.0
H2043 H 0.23457 0.80694 0.97645 0.0
H2044 H 0.24537 0.80163 0.99355 0.0
H2045 H 0.24364 0.80925 0.95661 0.0
H2046 H 0.21283 0.78664 0.97155 0.0
H2047 H 0.20368 0.76919 0.9789 0.0
H2048 H 0.21017 0.75196 0.94778 0.0
H2049 H 0.2195 0.76928 0.94029 0.0
C2050 C 0.20898 0.82704 0.91755 0.0
C2051 C 0.209 0.82198 0.90674 0.0
C2052 C 0.213 0.8212 0.92718 0.0
C2053 C 0.21717 0.81017 0.92628 0.0
C2054 C 0.21668 0.80484 0.91563 0.0
C2055 C 0.21265 0.81069 0.90594 0.0
C2056 C 0.22275 0.80464 0.93636 0.0
C2057 C 0.21827 0.7944 0.94068 0.0
C2058 C 0.23213 0.80992 0.94213 0.0
C2059 C 0.23772 0.82037 0.93767 0.0
C2060 C 0.24188 0.82065 0.92659 0.0
C2061 C 0.24701 0.83055 0.92237 0.0
C2062 C 0.24809 0.84021 0.92918 0.0
C2063 C 0.24408 0.83998 0.94024 0.0
C2064 C 0.23894 0.8301 0.94449 0.0
C2065 C 0.24705 0.77673 0.97913 0.0
C2066 C 0.24896 0.78463 0.98793 0.0
C2067 C 0.24098 0.77988 0.96915 0.0
C2068 C 0.23663 0.7909 0.96793 0.0
C2069 C 0.23792 0.79844 0.97709 0.0
C2070 C 0.24405 0.79537 0.98691 0.0
C2071 C 0.23171 0.79514 0.95688 0.0
C2072 C 0.23642 0.80515 0.95228 0.0
C2073 C 0.22257 0.78962 0.95092 0.0
C2074 C 0.21699 0.77921 0.95541 0.0
C2075 C 0.2124 0.7791 0.96631 0.0
C2076 C 0.20716 0.76924 0.9705 0.0
C2077 C 0.20638 0.75946 0.96383 0.0
C2078 C 0.2108 0.75954 0.95295 0.0
C2079 C 0.21606 0.76937 0.94872 0.0
H2080 H 0.20231 0.75184 0.96708 0.0
H2081 H 0.25206 0.84787 0.92591 0.0
H2082 H 0.20418 0.20929 0.93025 0.0
H2083 H 0.21246 0.21875 0.94701 0.0
H2084 H 0.23479 0.23837 0.92579 0.0
H2085 H 0.22643 0.22904 0.9089 0.0
H2086 H 0.24607 0.23108 0.94467 0.0
H2087 H 0.21141 0.25031 0.93677 0.0
H2088 H 0.19086 0.25204 0.93279 0.0
H2089 H 0.18377 0.23674 0.96507 0.0
H2090 H 0.20429 0.23476 0.96917 0.0
H2091 H 0.26348 0.26901 0.98914 0.0
H2092 H 0.25495 0.26206 0.9712 0.0
H2093 H 0.23157 0.24089 0.98974 0.0
H2094 H 0.23995 0.24786 1.00766 0.0
H2095 H 0.221 0.25019 0.97147 0.0
H2096 H 0.25572 0.23007 0.97879 0.0
H2097 H 0.2763 0.22854 0.98278 0.0
H2098 H 0.28327 0.24584 0.95148 0.0
H2099 H 0.26271 0.24761 0.94737 0.0
C2100 C 0.21079 0.21567 0.92909 0.0
C2101 C 0.21453 0.21843 0.91813 0.0
C2102 C 0.21555 0.22108 0.93873 0.0
C2103 C 0.22415 0.22944 0.93771 0.0
C2104 C 0.22816 0.23198 0.92683 0.0
C2105 C 0.22339 0.22658 0.91716 0.0
C2106 C 0.22885 0.23556 0.94798 0.0
C2107 C 0.2406 0.23541 0.95042 0.0
C2108 C 0.22174 0.2411 0.95565 0.0
C2109 C 0.20939 0.24229 0.95323 0.0
C2110 C 0.20547 0.24723 0.94298 0.0
C2111 C 0.19382 0.24827 0.94071 0.0
C2112 C 0.18601 0.24448 0.94866 0.0
C2113 C 0.18983 0.23966 0.95891 0.0
C2114 C 0.20147 0.23859 0.96122 0.0
C2115 C 0.25639 0.26303 0.98941 0.0
C2116 C 0.25244 0.25899 0.99989 0.0
C2117 C 0.25158 0.25898 0.97912 0.0
C2118 C 0.24272 0.25078 0.97906 0.0
C2119 C 0.23841 0.24717 0.98951 0.0
C2120 C 0.24323 0.25117 0.99978 0.0
C2121 C 0.2382 0.24561 0.96821 0.0
C2122 C 0.22648 0.24592 0.96567 0.0
C2123 C 0.24534 0.24025 0.96045 0.0
C2124 C 0.25769 0.23908 0.96284 0.0
C2125 C 0.26164 0.23362 0.9728 0.0
C2126 C 0.2733 0.2327 0.97507 0.0
C2127 C 0.28109 0.23712 0.9674 0.0
C2128 C 0.27723 0.24244 0.95742 0.0
C2129 C 0.26558 0.2434 0.95511 0.0
H2130 H 0.29011 0.23641 0.96918 0.0
H2131 H 0.177 0.24529 0.94688 0.0
H2132 H 0.82569 0.20922 0.90531 0.0
H2133 H 0.8163 0.21642 0.92203 0.0
H2134 H 0.84168 0.24318 0.92527 0.0
H2135 H 0.85097 0.2362 0.90851 0.0
H2136 H 0.83822 0.23295 0.94542 0.0
H2137 H 0.81479 0.24843 0.91513 0.0
H2138 H 0.80246 0.24759 0.89787 0.0
H2139 H 0.7787 0.22597 0.91514 0.0
H2140 H 0.79098 0.22656 0.93247 0.0
H2141 H 0.81486 0.27008 0.9841 0.0
H2142 H 0.82159 0.26181 0.96669 0.0
H2143 H 0.79437 0.23681 0.96717 0.0
H2144 H 0.78754 0.24512 0.98476 0.0
H2145 H 0.79796 0.24455 0.94556 0.0
H2146 H 0.82083 0.22961 0.97603 0.0
H2147 H 0.83306 0.23033 0.99337 0.0
H2148 H 0.85784 0.25047 0.97581 0.0
H2149 H 0.84568 0.25 0.9584 0.0
C2150 C 0.8292 0.21673 0.90948 0.0
C2151 C 0.83915 0.22208 0.90553 0.0
C2152 C 0.82382 0.22082 0.91908 0.0
C2153 C 0.82824 0.23038 0.92493 0.0
C2154 C 0.83812 0.23576 0.92097 0.0
C2155 C 0.84347 0.2317 0.91138 0.0
C2156 C 0.82281 0.23468 0.93533 0.0
C2157 C 0.82945 0.23559 0.94539 0.0
C2158 C 0.81125 0.23779 0.93546 0.0
C2159 C 0.80387 0.23743 0.92505 0.0
C2160 C 0.80699 0.24342 0.91522 0.0
C2161 C 0.8 0.243 0.90542 0.0
C2162 C 0.78982 0.2367 0.90539 0.0
C2163 C 0.7866 0.23083 0.91517 0.0
C2164 C 0.79357 0.23121 0.92498 0.0
C2165 C 0.81031 0.26279 0.98058 0.0
C2166 C 0.80076 0.25815 0.98599 0.0
C2167 C 0.81416 0.25808 0.97057 0.0
C2168 C 0.80865 0.24852 0.96571 0.0
C2169 C 0.79881 0.24414 0.97078 0.0
C2170 C 0.79491 0.24891 0.98083 0.0
C2171 C 0.81345 0.24301 0.95556 0.0
C2172 C 0.80671 0.24184 0.94558 0.0
C2173 C 0.82492 0.23959 0.9555 0.0
C2174 C 0.83229 0.23984 0.96593 0.0
C2175 C 0.82885 0.23426 0.97589 0.0
C2176 C 0.83578 0.23461 0.98572 0.0
C2177 C 0.84621 0.24046 0.9857 0.0
C2178 C 0.84975 0.24595 0.97582 0.0
C2179 C 0.84285 0.24563 0.96596 0.0
H2180 H 0.85156 0.24073 0.99332 0.0
H2181 H 0.78442 0.2364 0.8978 0.0
H2182 H 0.83191 0.83284 0.90336 0.0
H2183 H 0.82341 0.82447 0.92028 0.0
H2184 H 0.79344 0.84433 0.91427 0.0
H2185 H 0.80181 0.85263 0.89734 0.0
H2186 H 0.80002 0.84529 0.93615 0.0
H2187 H 0.79384 0.81558 0.90853 0.0
H2188 H 0.79957 0.80177 0.89421 0.0
H2189 H 0.82124 0.78555 0.91908 0.0
H2190 H 0.81575 0.79937 0.93352 0.0
H2191 H 0.76236 0.81828 0.97388 0.0
H2192 H 0.77163 0.82564 0.95701 0.0
H2193 H 0.80004 0.80385 0.96388 0.0
H2194 H 0.79073 0.79636 0.98073 0.0
H2195 H 0.79509 0.80375 0.94194 0.0
H2196 H 0.80129 0.83293 0.96963 0.0
H2197 H 0.79599 0.84673 0.98413 0.0
H2198 H 0.77498 0.86402 0.95944 0.0
H2199 H 0.78003 0.85022 0.94482 0.0
C2200 C 0.82345 0.83534 0.90555 0.0
C2201 C 0.81759 0.84346 0.89895 0.0
C2202 C 0.8186 0.83055 0.91526 0.0
C2203 C 0.80773 0.8337 0.91856 0.0
C2204 C 0.80185 0.84178 0.91197 0.0
C2205 C 0.80669 0.84656 0.90229 0.0
C2206 C 0.80249 0.82878 0.92895 0.0
C2207 C 0.79882 0.83621 0.93733 0.0
C2208 C 0.80121 0.81691 0.93073 0.0
C2209 C 0.80448 0.80858 0.92207 0.0
C2210 C 0.7999 0.80913 0.91092 0.0
C2211 C 0.80309 0.80129 0.90279 0.0
C2212 C 0.81079 0.79281 0.90573 0.0
C2213 C 0.81529 0.79213 0.91682 0.0
C2214 C 0.81214 0.79996 0.92498 0.0
C2215 C 0.77061 0.8151 0.97187 0.0
C2216 C 0.7758 0.80676 0.97875 0.0
C2217 C 0.77592 0.81933 0.96219 0.0
C2218 C 0.78666 0.81547 0.95921 0.0
C2219 C 0.79178 0.807 0.96596 0.0
C2220 C 0.78642 0.8027 0.9756 0.0
C2221 C 0.79251 0.82027 0.94909 0.0
C2222 C 0.79631 0.81283 0.94077 0.0
C2223 C 0.79399 0.83213 0.9474 0.0
C2224 C 0.79096 0.84047 0.95616 0.0
C2225 C 0.79548 0.83962 0.96731 0.0
C2226 C 0.79253 0.84746 0.97555 0.0
C2227 C 0.78513 0.85623 0.97271 0.0
C2228 C 0.7807 0.85721 0.96163 0.0
C2229 C 0.78361 0.84939 0.95336 0.0
H2230 H 0.78286 0.86229 0.97911 0.0
H2231 H 0.81325 0.78675 0.89942 0.0
H2232 H 0.13853 0.22296 0.21532 0.0
H2233 H 0.12189 0.22819 0.22585 0.0
H2234 H 0.11206 0.19286 0.22882 0.0
H2235 H 0.12853 0.18756 0.21792 0.0
H2236 H 0.09398 0.20539 0.22325 0.0
H2237 H 0.12401 0.20775 0.25152 0.0
H2238 H 0.14261 0.21395 0.25968 0.0
H2239 H 0.1326 0.24878 0.25733 0.0
H2240 H 0.11399 0.24279 0.24902 0.0
H2241 H 0.05157 0.21408 0.26396 0.0
H2242 H 0.06843 0.20791 0.25434 0.0
H2243 H 0.08008 0.24273 0.25152 0.0
H2244 H 0.06349 0.24894 0.26155 0.0
H2245 H 0.09731 0.22988 0.25737 0.0
H2246 H 0.06765 0.22776 0.22859 0.0
H2247 H 0.04905 0.22179 0.22025 0.0
H2248 H 0.05834 0.1868 0.22331 0.0
H2249 H 0.07695 0.19256 0.23181 0.0
C2250 C 0.13281 0.21628 0.21813 0.0
C2251 C 0.13492 0.20481 0.21572 0.0
C2252 C 0.12333 0.21929 0.22428 0.0
C2253 C 0.11574 0.21093 0.22828 0.0
C2254 C 0.11779 0.19948 0.22588 0.0
C2255 C 0.12729 0.19645 0.21972 0.0
C2256 C 0.10558 0.21417 0.23479 0.0
C2257 C 0.09473 0.21059 0.23081 0.0
C2258 C 0.10647 0.22121 0.24452 0.0
C2259 C 0.11764 0.22483 0.24955 0.0
C2260 C 0.12581 0.21674 0.25267 0.0
C2261 C 0.13635 0.22021 0.25733 0.0
C2262 C 0.1388 0.23175 0.259 0.0
C2263 C 0.1307 0.23984 0.25603 0.0
C2264 C 0.12015 0.23641 0.25135 0.0
C2265 C 0.05773 0.22045 0.26141 0.0
C2266 C 0.05603 0.23206 0.26355 0.0
C2267 C 0.06736 0.2169 0.25577 0.0
C2268 C 0.07551 0.22485 0.25201 0.0
C2269 C 0.07392 0.2364 0.25427 0.0
C2270 C 0.06433 0.23997 0.25994 0.0
C2271 C 0.08569 0.22114 0.2458 0.0
C2272 C 0.09655 0.22464 0.24982 0.0
C2273 C 0.08481 0.21407 0.23609 0.0
C2274 C 0.07364 0.21059 0.23094 0.0
C2275 C 0.06569 0.21879 0.22756 0.0
C2276 C 0.05516 0.21545 0.22279 0.0
C2277 C 0.0525 0.20393 0.22128 0.0
C2278 C 0.0604 0.19573 0.2245 0.0
C2279 C 0.07095 0.19902 0.22929 0.0
H2280 H 0.04434 0.20136 0.21758 0.0
H2281 H 0.14696 0.23442 0.26261 0.0
H2282 H 0.85323 0.12611 0.22482 0.0
H2283 H 0.84451 0.10882 0.23239 0.0
H2284 H 0.81146 0.12033 0.22131 0.0
H2285 H 0.82013 0.13791 0.21402 0.0
H2286 H 0.81056 0.11154 0.24229 0.0
H2287 H 0.82479 0.09932 0.20702 0.0
H2288 H 0.83891 0.09689 0.19223 0.0
H2289 H 0.85989 0.07787 0.21558 0.0
H2290 H 0.84596 0.08032 0.23058 0.0
H2291 H 0.78389 0.05766 0.25275 0.0
H2292 H 0.79101 0.07494 0.24366 0.0
H2293 H 0.82531 0.06603 0.25323 0.0
H2294 H 0.81831 0.04848 0.26193 0.0
H2295 H 0.82449 0.07357 0.23201 0.0
H2296 H 0.81008 0.08664 0.26754 0.0
H2297 H 0.79546 0.0889 0.28189 0.0
H2298 H 0.77421 0.10618 0.25741 0.0
H2299 H 0.78864 0.10389 0.24286 0.0
C2300 C 0.84409 0.12504 0.22404 0.0
C2301 C 0.8374 0.13347 0.21881 0.0
C2302 C 0.83912 0.11505 0.22828 0.0
C2303 C 0.82732 0.11315 0.22733 0.0
C2304 C 0.82058 0.12155 0.22213 0.0
C2305 C 0.82557 0.13157 0.21787 0.0
C2306 C 0.82207 0.10247 0.23191 0.0
C2307 C 0.81349 0.10323 0.2399 0.0
C2308 C 0.82597 0.0916 0.22895 0.0
C2309 C 0.83437 0.09009 0.21996 0.0
C2310 C 0.83245 0.09469 0.20904 0.0
C2311 C 0.84042 0.0933 0.20061 0.0
C2312 C 0.8503 0.08725 0.20297 0.0
C2313 C 0.85223 0.08257 0.21377 0.0
C2314 C 0.8443 0.08395 0.22223 0.0
C2315 C 0.79296 0.05927 0.25285 0.0
C2316 C 0.80049 0.05158 0.25813 0.0
C2317 C 0.79702 0.06927 0.24774 0.0
C2318 C 0.80871 0.07192 0.24787 0.0
C2319 C 0.81625 0.06423 0.25304 0.0
C2320 C 0.81221 0.05421 0.25812 0.0
C2321 C 0.81312 0.08263 0.24254 0.0
C2322 C 0.82154 0.08187 0.23438 0.0
C2323 C 0.80902 0.09349 0.2453 0.0
C2324 C 0.8004 0.09499 0.25408 0.0
C2325 C 0.80226 0.09086 0.2652 0.0
C2326 C 0.79401 0.09215 0.27337 0.0
C2327 C 0.7839 0.09765 0.27055 0.0
C2328 C 0.78204 0.10191 0.25957 0.0
C2329 C 0.79025 0.10062 0.25136 0.0
H2330 H 0.77752 0.09864 0.27689 0.0
H2331 H 0.85646 0.08618 0.19643 0.0
H2332 H 0.89881 0.81171 0.21321 0.0
H2333 H 0.91576 0.80533 0.22356 0.0
H2334 H 0.93105 0.83871 0.22022 0.0
H2335 H 0.91426 0.84505 0.20941 0.0
H2336 H 0.94615 0.82328 0.2158 0.0
H2337 H 0.92023 0.82839 0.24579 0.0
H2338 H 0.90238 0.82593 0.25604 0.0
H2339 H 0.90752 0.78997 0.25821 0.0
H2340 H 0.92532 0.79219 0.24783 0.0
H2341 H 0.99205 0.81402 0.25524 0.0
H2342 H 0.97472 0.82114 0.24597 0.0
H2343 H 0.95958 0.78753 0.24719 0.0
H2344 H 0.97682 0.7804 0.25665 0.0
H2345 H 0.94448 0.80337 0.25297 0.0
H2346 H 0.97005 0.79821 0.22256 0.0
H2347 H 0.98798 0.80062 0.21245 0.0
H2348 H 0.98353 0.83672 0.21125 0.0
H2349 H 0.96563 0.83454 0.22151 0.0
C2350 C 0.90578 0.81772 0.2146 0.0
C2351 C 0.9051 0.82892 0.21039 0.0
C2352 C 0.91546 0.81407 0.22067 0.0
C2353 C 0.92472 0.82154 0.22284 0.0
C2354 C 0.92405 0.83275 0.21872 0.0
C2355 C 0.91436 0.83641 0.21262 0.0
C2356 C 0.93519 0.81756 0.22909 0.0
C2357 C 0.94577 0.8191 0.22402 0.0
C2358 C 0.93477 0.81181 0.2397 0.0
C2359 C 0.92405 0.81045 0.24592 0.0
C2360 C 0.9175 0.81995 0.24836 0.0
C2361 C 0.9074 0.8186 0.25421 0.0
C2362 C 0.9038 0.8078 0.25774 0.0
C2363 C 0.91031 0.79833 0.25545 0.0
C2364 C 0.92041 0.79963 0.24959 0.0
C2365 C 0.98501 0.80815 0.25363 0.0
C2366 C 0.9859 0.79661 0.25665 0.0
C2367 C 0.97512 0.81222 0.24823 0.0
C2368 C 0.96585 0.80486 0.24572 0.0
C2369 C 0.96661 0.79338 0.24895 0.0
C2370 C 0.97653 0.78929 0.25429 0.0
C2371 C 0.9554 0.80911 0.23968 0.0
C2372 C 0.94483 0.8076 0.24477 0.0
C2373 C 0.95583 0.81489 0.2291 0.0
C2374 C 0.96656 0.81622 0.22291 0.0
C2375 C 0.97294 0.80668 0.22023 0.0
C2376 C 0.98309 0.808 0.21445 0.0
C2377 C 0.98691 0.81882 0.21124 0.0
C2378 C 0.98057 0.82835 0.21376 0.0
C2379 C 0.97042 0.82707 0.21955 0.0
H2380 H 0.99476 0.81983 0.20676 0.0
H2381 H 0.89598 0.80677 0.26227 0.0
H2382 H 0.18743 0.89773 0.23367 0.0
H2383 H 0.1956 0.91469 0.24276 0.0
H2384 H 0.21532 0.92168 0.21315 0.0
H2385 H 0.20706 0.90471 0.2039 0.0
H2386 H 0.22792 0.92517 0.23268 0.0
H2387 H 0.19157 0.93656 0.21784 0.0
H2388 H 0.1708 0.93519 0.21477 0.0
H2389 H 0.16616 0.9382 0.25065 0.0
H2390 H 0.18692 0.93943 0.25396 0.0
H2391 H 0.24267 0.98226 0.24823 0.0
H2392 H 0.23546 0.9653 0.23834 0.0
H2393 H 0.21395 0.95736 0.26642 0.0
H2394 H 0.22113 0.97427 0.27638 0.0
H2395 H 0.20241 0.95461 0.24691 0.0
H2396 H 0.23865 0.94282 0.26189 0.0
H2397 H 0.25941 0.94406 0.26513 0.0
H2398 H 0.26429 0.94173 0.22923 0.0
H2399 H 0.24354 0.94063 0.22576 0.0
C2400 C 0.19342 0.9029 0.22901 0.0
C2401 C 0.19646 0.89987 0.21796 0.0
C2402 C 0.19813 0.91261 0.23425 0.0
C2403 C 0.20596 0.91959 0.22859 0.0
C2404 C 0.20928 0.91645 0.2177 0.0
C2405 C 0.20456 0.90671 0.21243 0.0
C2406 C 0.21055 0.93023 0.23403 0.0
C2407 C 0.22235 0.93169 0.23564 0.0
C2408 C 0.2033 0.93866 0.23812 0.0
C2409 C 0.19081 0.93799 0.23616 0.0
C2410 C 0.18613 0.93685 0.22509 0.0
C2411 C 0.17435 0.93611 0.2233 0.0
C2412 C 0.16716 0.93658 0.23251 0.0
C2413 C 0.17174 0.93782 0.24353 0.0
C2414 C 0.18351 0.93855 0.24536 0.0
C2415 C 0.23649 0.97687 0.25238 0.0
C2416 C 0.23253 0.97969 0.26316 0.0
C2417 C 0.23236 0.96715 0.24668 0.0
C2418 C 0.22423 0.95994 0.25166 0.0
C2419 C 0.22019 0.96277 0.26237 0.0
C2420 C 0.2243 0.9725 0.26805 0.0
C2421 C 0.21979 0.94953 0.24567 0.0
C2422 C 0.208 0.94812 0.24394 0.0
C2423 C 0.22706 0.94115 0.24149 0.0
C2424 C 0.23954 0.94176 0.24356 0.0
C2425 C 0.24415 0.94266 0.25468 0.0
C2426 C 0.25591 0.94332 0.25656 0.0
C2427 C 0.26316 0.943 0.24739 0.0
C2428 C 0.25866 0.94199 0.23632 0.0
C2429 C 0.2469 0.94134 0.2344 0.0
H2430 H 0.27227 0.94352 0.24886 0.0
H2431 H 0.15805 0.93601 0.23111 0.0
H2432 H 0.11335 0.8342 0.83138 0.0
H2433 H 0.09619 0.82829 0.82071 0.0
H2434 H 0.11664 0.8138 0.79491 0.0
H2435 H 0.13393 0.81967 0.80561 0.0
H2436 H 0.09819 0.8244 0.78539 0.0
H2437 H 0.10477 0.79675 0.81437 0.0
H2438 H 0.10881 0.78973 0.83381 0.0
H2439 H 0.07778 0.80395 0.84498 0.0
H2440 H 0.07364 0.81121 0.82564 0.0
H2441 H 0.05107 0.7888 0.76394 0.0
H2442 H 0.06946 0.79644 0.77104 0.0
H2443 H 0.05268 0.81379 0.79777 0.0
H2444 H 0.03438 0.80633 0.79075 0.0
H2445 H 0.07014 0.80064 0.80591 0.0
H2446 H 0.06402 0.82858 0.77639 0.0
H2447 H 0.06031 0.83508 0.75672 0.0
H2448 H 0.09076 0.81924 0.74617 0.0
H2449 H 0.09458 0.81251 0.76577 0.0
C2450 C 0.11423 0.82974 0.82345 0.0
C2451 C 0.12506 0.82729 0.81946 0.0
C2452 C 0.10439 0.82638 0.81733 0.0
C2453 C 0.10508 0.82041 0.80708 0.0
C2454 C 0.11586 0.81836 0.8028 0.0
C2455 C 0.12575 0.82175 0.80893 0.0
C2456 C 0.09453 0.81594 0.80117 0.0
C2457 C 0.09214 0.81907 0.78982 0.0
C2458 C 0.08655 0.80904 0.80694 0.0
C2459 C 0.08895 0.80461 0.81857 0.0
C2460 C 0.09885 0.79845 0.82099 0.0
C2461 C 0.10115 0.79442 0.83199 0.0
C2462 C 0.09357 0.79641 0.84063 0.0
C2463 C 0.08365 0.80242 0.83828 0.0
C2464 C 0.08132 0.80649 0.8273 0.0
C2465 C 0.05126 0.79445 0.77117 0.0
C2466 C 0.0412 0.7969 0.77678 0.0
C2467 C 0.06181 0.79879 0.77524 0.0
C2468 C 0.06248 0.80565 0.785 0.0
C2469 C 0.05241 0.80847 0.79028 0.0
C2470 C 0.04191 0.80422 0.7862 0.0
C2471 C 0.07366 0.80931 0.79022 0.0
C2472 C 0.0762 0.80595 0.80145 0.0
C2473 C 0.08179 0.81588 0.78429 0.0
C2474 C 0.07951 0.81993 0.77252 0.0
C2475 C 0.06987 0.82639 0.76986 0.0
C2476 C 0.06776 0.83014 0.75872 0.0
C2477 C 0.07527 0.82754 0.75019 0.0
C2478 C 0.08493 0.82122 0.75278 0.0
C2479 C 0.08708 0.81745 0.7639 0.0
H2480 H 0.07362 0.83045 0.74157 0.0
H2481 H 0.09536 0.79328 0.84914 0.0
H2482 H 0.20127 0.12508 0.8272 0.0
H2483 H 0.2078 0.10894 0.81618 0.0
H2484 H 0.24253 0.11795 0.82523 0.0
H2485 H 0.23613 0.13418 0.83591 0.0
H2486 H 0.24077 0.11281 0.80342 0.0
H2487 H 0.22757 0.09556 0.83819 0.0
H2488 H 0.21335 0.09091 0.85255 0.0
H2489 H 0.19198 0.07475 0.82701 0.0
H2490 H 0.20602 0.07943 0.81247 0.0
H2491 H 0.27326 0.06419 0.79872 0.0
H2492 H 0.26237 0.08044 0.80427 0.0
H2493 H 0.23185 0.06467 0.79009 0.0
H2494 H 0.2429 0.04811 0.78441 0.0
H2495 H 0.22859 0.07311 0.81156 0.0
H2496 H 0.24291 0.08829 0.77726 0.0
H2497 H 0.25652 0.09381 0.76261 0.0
H2498 H 0.27551 0.11413 0.78694 0.0
H2499 H 0.26208 0.10865 0.80177 0.0
C2500 C 0.21031 0.12368 0.82676 0.0
C2501 C 0.21815 0.13095 0.83256 0.0
C2502 C 0.21403 0.11436 0.82054 0.0
C2503 C 0.22569 0.11208 0.81994 0.0
C2504 C 0.2335 0.11944 0.82555 0.0
C2505 C 0.2298 0.12871 0.83177 0.0
C2506 C 0.22991 0.10214 0.81347 0.0
C2507 C 0.23815 0.10412 0.80528 0.0
C2508 C 0.2262 0.09079 0.81549 0.0
C2509 C 0.21778 0.08797 0.82423 0.0
C2510 C 0.21979 0.0911 0.83562 0.0
C2511 C 0.21177 0.08844 0.8438 0.0
C2512 C 0.20175 0.08257 0.84069 0.0
C2513 C 0.19974 0.07932 0.8294 0.0
C2514 C 0.20772 0.08197 0.82119 0.0
C2515 C 0.26424 0.06415 0.79665 0.0
C2516 C 0.25897 0.05478 0.79112 0.0
C2517 C 0.25801 0.07355 0.79978 0.0
C2518 C 0.24626 0.07392 0.79755 0.0
C2519 C 0.24092 0.06464 0.79188 0.0
C2520 C 0.24724 0.0552 0.78858 0.0
C2521 C 0.23974 0.08377 0.80178 0.0
C2522 C 0.23108 0.08179 0.80956 0.0
C2523 C 0.24306 0.09516 0.79939 0.0
C2524 C 0.25149 0.09802 0.79064 0.0
C2525 C 0.25006 0.09383 0.77952 0.0
C2526 C 0.25772 0.09699 0.77117 0.0
C2527 C 0.26685 0.10435 0.77383 0.0
C2528 C 0.26841 0.10846 0.78488 0.0
C2529 C 0.26077 0.10535 0.79326 0.0
H2530 H 0.27272 0.10688 0.76734 0.0
H2531 H 0.19555 0.08052 0.84703 0.0
H2532 H 0.91881 0.2252 0.83071 0.0
H2533 H 0.93609 0.23403 0.82346 0.0
H2534 H 0.93599 0.20971 0.79621 0.0
H2535 H 0.91897 0.20051 0.8037 0.0
H2536 H 0.95705 0.21304 0.804 0.0
H2537 H 0.92722 0.23725 0.79166 0.0
H2538 H 0.91029 0.24903 0.79338 0.0
H2539 H 0.92874 0.27129 0.81636 0.0
H2540 H 0.94575 0.25954 0.81491 0.0
H2541 H 0.99834 0.24894 0.77413 0.0
H2542 H 0.98127 0.23749 0.77861 0.0
H2543 H 0.9788 0.25531 0.81029 0.0
H2544 H 0.99567 0.26651 0.80605 0.0
H2545 H 0.95846 0.2547 0.79762 0.0
H2546 H 0.98795 0.22914 0.81057 0.0
H2547 H 1.00474 0.21731 0.80816 0.0
H2548 H 0.98657 0.19767 0.78268 0.0
H2549 H 0.96971 0.20949 0.78484 0.0
C2550 C 0.92251 0.22162 0.82325 0.0
C2551 C 0.91738 0.21215 0.81778 0.0
C2552 C 0.93235 0.22677 0.81903 0.0
C2553 C 0.93729 0.22269 0.80914 0.0
C2554 C 0.93234 0.2131 0.80379 0.0
C2555 C 0.92251 0.20791 0.80804 0.0
C2556 C 0.94754 0.22848 0.80441 0.0
C2557 C 0.95727 0.22212 0.80243 0.0
C2558 C 0.94794 0.24035 0.80235 0.0
C2559 C 0.93773 0.24745 0.80325 0.0
C2560 C 0.92765 0.2446 0.79715 0.0
C2561 C 0.91804 0.25128 0.79806 0.0
C2562 C 0.91843 0.26088 0.80499 0.0
C2563 C 0.92844 0.26384 0.81101 0.0
C2564 C 0.93808 0.25718 0.81013 0.0
C2565 C 0.99422 0.25031 0.78209 0.0
C2566 C 0.99841 0.25869 0.78969 0.0
C2567 C 0.98446 0.24377 0.78464 0.0
C2568 C 0.97871 0.24559 0.79478 0.0
C2569 C 0.98302 0.2538 0.8024 0.0
C2570 C 0.99275 0.26019 0.79994 0.0
C2571 C 0.968 0.23931 0.79751 0.0
C2572 C 0.95817 0.2456 0.79908 0.0
C2573 C 0.9675 0.22739 0.79906 0.0
C2574 C 0.97762 0.22029 0.79776 0.0
C2575 C 0.98757 0.22237 0.80438 0.0
C2576 C 0.99709 0.21565 0.80307 0.0
C2577 C 0.99674 0.20677 0.79524 0.0
C2578 C 0.98685 0.20457 0.78873 0.0
C2579 C 0.9773 0.21127 0.78999 0.0
H2580 H 1.00412 0.20157 0.79425 0.0
H2581 H 0.91098 0.26605 0.80569 0.0
H2582 H 0.84437 0.92065 0.79568 0.0
H2583 H 0.83535 0.9373 0.78722 0.0
H2584 H 0.80657 0.93205 0.80856 0.0
H2585 H 0.81534 0.91511 0.81676 0.0
H2586 H 0.79949 0.93733 0.78759 0.0
H2587 H 0.82754 0.95269 0.81424 0.0
H2588 H 0.84678 0.95549 0.82269 0.0
H2589 H 0.8585 0.96872 0.79096 0.0
H2590 H 0.83935 0.96587 0.78228 0.0
H2591 H 0.77453 0.99018 0.79115 0.0
H2592 H 0.78569 0.97343 0.7949 0.0
H2593 H 0.80732 0.98224 0.76716 0.0
H2594 H 0.79594 0.99929 0.76318 0.0
H2595 H 0.81906 0.97505 0.78829 0.0
H2596 H 0.78992 0.9619 0.7625 0.0
H2597 H 0.77028 0.95993 0.75485 0.0
H2598 H 0.76033 0.94286 0.78541 0.0
H2599 H 0.77986 0.94494 0.79336 0.0
C2600 C 0.83607 0.92294 0.79851 0.0
C2601 C 0.83061 0.91647 0.80695 0.0
C2602 C 0.83096 0.93257 0.79373 0.0
C2603 C 0.8203 0.93606 0.79731 0.0
C2604 C 0.81479 0.92958 0.80565 0.0
C2605 C 0.81989 0.91993 0.81042 0.0
C2606 C 0.81488 0.94646 0.79244 0.0
C2607 C 0.80377 0.94557 0.78781 0.0
C2608 C 0.82054 0.95722 0.79237 0.0
C2609 C 0.83205 0.95894 0.79757 0.0
C2610 C 0.83424 0.95611 0.80904 0.0
C2611 C 0.84513 0.95772 0.81387 0.0
C2612 C 0.85387 0.96225 0.80736 0.0
C2613 C 0.85173 0.9652 0.79599 0.0
C2614 C 0.84086 0.96359 0.79111 0.0
C2615 C 0.78166 0.98867 0.78579 0.0
C2616 C 0.7843 0.99613 0.77681 0.0
C2617 C 0.78803 0.97901 0.78796 0.0
C2618 C 0.79727 0.97649 0.78126 0.0
C2619 C 0.80018 0.98401 0.77242 0.0
C2620 C 0.79367 0.99372 0.77014 0.0
C2621 C 0.80365 0.9659 0.78367 0.0
C2622 C 0.81489 0.96675 0.78787 0.0
C2623 C 0.79811 0.95511 0.78339 0.0
C2624 C 0.78637 0.95364 0.77856 0.0
C2625 C 0.78353 0.95779 0.76763 0.0
C2626 C 0.77242 0.95665 0.76323 0.0
C2627 C 0.76406 0.95128 0.76964 0.0
C2628 C 0.76681 0.94702 0.78045 0.0
C2629 C 0.77791 0.94817 0.78491 0.0
H2630 H 0.75546 0.95041 0.76622 0.0
H2631 H 0.86229 0.96349 0.81112 0.0
H2632 H 0.19958 0.10913 0.21312 0.0
H2633 H 0.20918 0.09222 0.22018 0.0
H2634 H 0.24073 0.11127 0.22331 0.0
H2635 H 0.23111 0.12837 0.21634 0.0
H2636 H 0.24357 0.08889 0.21514 0.0
H2637 H 0.22641 0.10717 0.24633 0.0
H2638 H 0.21093 0.11626 0.25637 0.0
H2639 H 0.19088 0.08547 0.25397 0.0
H2640 H 0.20618 0.07625 0.24376 0.0
H2641 H 0.26655 0.04589 0.25429 0.0
H2642 H 0.26142 0.06333 0.24382 0.0
H2643 H 0.22662 0.05132 0.24106 0.0
H2644 H 0.23162 0.03422 0.25162 0.0
H2645 H 0.22752 0.0717 0.24987 0.0
H2646 H 0.24431 0.05365 0.21783 0.0
H2647 H 0.25968 0.04464 0.20757 0.0
H2648 H 0.2805 0.07477 0.21167 0.0
H2649 H 0.2653 0.08391 0.22209 0.0
C2650 C 0.20856 0.10977 0.21531 0.0
C2651 C 0.21451 0.1202 0.21432 0.0
C2652 C 0.21406 0.10006 0.21929 0.0
C2653 C 0.22565 0.10049 0.22244 0.0
C2654 C 0.23178 0.11072 0.22095 0.0
C2655 C 0.22626 0.12049 0.21695 0.0
C2656 C 0.23103 0.09044 0.22796 0.0
C2657 C 0.24018 0.0852 0.22283 0.0
C2658 C 0.22658 0.08557 0.23795 0.0
C2659 C 0.21741 0.09105 0.2442 0.0
C2660 C 0.21867 0.10236 0.24787 0.0
C2661 C 0.20993 0.10753 0.2536 0.0
C2662 C 0.19992 0.10145 0.25579 0.0
C2663 C 0.19864 0.09017 0.25227 0.0
C2664 C 0.20734 0.08497 0.24652 0.0
C2665 C 0.25789 0.04687 0.25115 0.0
C2666 C 0.24947 0.03873 0.2538 0.0
C2667 C 0.25494 0.05685 0.2452 0.0
C2668 C 0.24358 0.05872 0.24171 0.0
C2669 C 0.2354 0.05019 0.24376 0.0
C2670 C 0.23829 0.04037 0.24976 0.0
C2671 C 0.23982 0.06982 0.23685 0.0
C2672 C 0.23098 0.07536 0.2422 0.0
C2673 C 0.24458 0.0749 0.2271 0.0
C2674 C 0.25372 0.06941 0.22086 0.0
C2675 C 0.25221 0.05832 0.21664 0.0
C2676 C 0.26088 0.0532 0.21077 0.0
C2677 C 0.27108 0.05911 0.209 0.0
C2678 C 0.27261 0.07018 0.21306 0.0
C2679 C 0.26396 0.07534 0.21894 0.0
H2680 H 0.27778 0.05514 0.20445 0.0
H2681 H 0.19317 0.10547 0.26022 0.0
H2682 H 0.21847 0.91095 0.84385 0.0
H2683 H 0.23002 0.92792 0.83984 0.0
H2684 H 0.22484 0.92238 0.80388 0.0
H2685 H 0.21366 0.90519 0.8078 0.0
H2686 H 0.24628 0.92889 0.80833 0.0
H2687 H 0.20951 0.94217 0.81839 0.0
H2688 H 0.19299 0.94394 0.83061 0.0
H2689 H 0.21449 0.95824 0.85713 0.0
H2690 H 0.23117 0.95641 0.84512 0.0
H2691 H 0.26109 0.98374 0.78769 0.0
H2692 H 0.25154 0.96594 0.79259 0.0
H2693 H 0.25603 0.9737 0.8282 0.0
H2694 H 0.26507 0.99183 0.82338 0.0
H2695 H 0.23554 0.96583 0.82451 0.0
H2696 H 0.2723 0.95323 0.8142 0.0
H2697 H 0.28882 0.9514 0.80198 0.0
H2698 H 0.26751 0.93593 0.77598 0.0
H2699 H 0.25084 0.93777 0.78799 0.0
C2700 C 0.21991 0.91324 0.83508 0.0
C2701 C 0.21502 0.9067 0.82616 0.0
C2702 C 0.22644 0.92303 0.83279 0.0
C2703 C 0.22818 0.92658 0.82154 0.0
C2704 C 0.22359 0.91989 0.81263 0.0
C2705 C 0.21709 0.9101 0.8149 0.0
C2706 C 0.23458 0.93734 0.81901 0.0
C2707 C 0.24386 0.93699 0.81179 0.0
C2708 C 0.23163 0.9479 0.82369 0.0
C2709 C 0.2216 0.94904 0.83091 0.0
C2710 C 0.21073 0.94561 0.82686 0.0
C2711 C 0.20133 0.94664 0.83374 0.0
C2712 C 0.20269 0.95117 0.84465 0.0
C2713 C 0.21345 0.95472 0.84869 0.0
C2714 C 0.22287 0.95369 0.84185 0.0
C2715 C 0.26 0.98177 0.79658 0.0
C2716 C 0.26388 0.98937 0.80511 0.0
C2717 C 0.25464 0.97145 0.79938 0.0
C2718 C 0.25317 0.96833 0.81079 0.0
C2719 C 0.25707 0.97585 0.81933 0.0
C2720 C 0.26236 0.98623 0.81654 0.0
C2721 C 0.24725 0.95742 0.81381 0.0
C2722 C 0.23803 0.95774 0.82111 0.0
C2723 C 0.25028 0.94683 0.80921 0.0
C2724 C 0.2603 0.94571 0.80197 0.0
C2725 C 0.27112 0.9495 0.80585 0.0
C2726 C 0.28052 0.94844 0.79897 0.0
C2727 C 0.27921 0.94355 0.78821 0.0
C2728 C 0.26851 0.93971 0.78431 0.0
C2729 C 0.25909 0.94073 0.79116 0.0
H2730 H 0.2865 0.94273 0.7829 0.0
H2731 H 0.19541 0.95196 0.84997 0.0
H2732 H 0.1434 0.23177 0.83581 0.0
H2733 H 0.127 0.24305 0.82992 0.0
H2734 H 0.10775 0.21233 0.82249 0.0
H2735 H 0.12407 0.20101 0.82839 0.0
H2736 H 0.10473 0.22723 0.80576 0.0
H2737 H 0.1031 0.2285 0.84641 0.0
H2738 H 0.11048 0.23197 0.86592 0.0
H2739 H 0.1164 0.26715 0.8578 0.0
H2740 H 0.1092 0.26385 0.83818 0.0
H2741 H 0.05021 0.25187 0.79958 0.0
H2742 H 0.06638 0.24071 0.80627 0.0
H2743 H 0.08559 0.27154 0.81324 0.0
H2744 H 0.06953 0.28275 0.80653 0.0
H2745 H 0.08864 0.25667 0.83024 0.0
H2746 H 0.09037 0.25544 0.78963 0.0
H2747 H 0.08305 0.25204 0.7701 0.0
H2748 H 0.07704 0.21684 0.7781 0.0
H2749 H 0.08419 0.22007 0.79774 0.0
C2750 C 0.13564 0.22739 0.83306 0.0
C2751 C 0.13512 0.21544 0.83259 0.0
C2752 C 0.12625 0.23387 0.82967 0.0
C2753 C 0.11605 0.22857 0.82582 0.0
C2754 C 0.1155 0.21665 0.82537 0.0
C2755 C 0.12488 0.21018 0.82873 0.0
C2756 C 0.10602 0.23541 0.82208 0.0
C2757 C 0.10113 0.23355 0.81119 0.0
C2758 C 0.10142 0.24388 0.829 0.0
C2759 C 0.10572 0.2459 0.8408 0.0
C2760 C 0.10606 0.23695 0.84876 0.0
C2761 C 0.11019 0.2389 0.85984 0.0
C2762 C 0.11393 0.24977 0.86309 0.0
C2763 C 0.11351 0.25873 0.85527 0.0
C2764 C 0.1094 0.25683 0.84417 0.0
C2765 C 0.05788 0.25631 0.80246 0.0
C2766 C 0.05849 0.26827 0.80244 0.0
C2767 C 0.06715 0.24989 0.80631 0.0
C2768 C 0.07731 0.25525 0.81016 0.0
C2769 C 0.07788 0.26717 0.81034 0.0
C2770 C 0.06862 0.2736 0.80651 0.0
C2771 C 0.08735 0.24846 0.81395 0.0
C2772 C 0.09224 0.25033 0.82482 0.0
C2773 C 0.09197 0.24 0.80701 0.0
C2774 C 0.08771 0.23803 0.79519 0.0
C2775 C 0.08741 0.24699 0.78725 0.0
C2776 C 0.0833 0.24509 0.77616 0.0
C2777 C 0.07955 0.23424 0.77287 0.0
C2778 C 0.07993 0.22525 0.78066 0.0
C2779 C 0.08402 0.22711 0.79178 0.0
H2780 H 0.07638 0.23278 0.76427 0.0
H2781 H 0.11713 0.25125 0.87167 0.0
H2782 H 0.80725 0.13983 0.83517 0.0
H2783 H 0.79784 0.12319 0.82663 0.0
H2784 H 0.8291 0.11417 0.81111 0.0
H2785 H 0.83863 0.13086 0.81971 0.0
H2786 H 0.81105 0.11106 0.79647 0.0
H2787 H 0.82042 0.10033 0.83479 0.0
H2788 H 0.82113 0.10228 0.85564 0.0
H2789 H 0.78469 0.10128 0.85604 0.0
H2790 H 0.78376 0.09949 0.83517 0.0
H2791 H 0.79275 0.05425 0.78323 0.0
H2792 H 0.80288 0.0713 0.79009 0.0
H2793 H 0.77336 0.08091 0.80835 0.0
H2794 H 0.76327 0.06377 0.80165 0.0
H2795 H 0.79137 0.08346 0.82149 0.0
H2796 H 0.7821 0.09495 0.78286 0.0
H2797 H 0.78168 0.09346 0.76195 0.0
H2798 H 0.81808 0.0927 0.76215 0.0
H2799 H 0.81875 0.09425 0.78305 0.0
C2800 C 0.81217 0.13429 0.83 0.0
C2801 C 0.82376 0.13664 0.82826 0.0
C2802 C 0.80676 0.12477 0.8251 0.0
C2803 C 0.81279 0.11728 0.81838 0.0
C2804 C 0.82427 0.11979 0.81629 0.0
C2805 C 0.8297 0.12936 0.8212 0.0
C2806 C 0.80712 0.10678 0.81373 0.0
C2807 C 0.80687 0.10495 0.80195 0.0
C2808 C 0.8015 0.09887 0.82084 0.0
C2809 C 0.80202 0.09988 0.8334 0.0
C2810 C 0.81256 0.10061 0.83932 0.0
C2811 C 0.813 0.10167 0.85114 0.0
C2812 C 0.80296 0.10193 0.85716 0.0
C2813 C 0.79246 0.10109 0.85137 0.0
C2814 C 0.79197 0.10004 0.83954 0.0
C2815 C 0.78837 0.06005 0.78861 0.0
C2816 C 0.77719 0.05761 0.7919 0.0
C2817 C 0.79417 0.06984 0.79251 0.0
C2818 C 0.78887 0.07753 0.79965 0.0
C2819 C 0.77768 0.07514 0.80288 0.0
C2820 C 0.77191 0.0653 0.79906 0.0
C2821 C 0.79511 0.0878 0.80417 0.0
C2822 C 0.79551 0.08957 0.81597 0.0
C2823 C 0.80088 0.09563 0.79708 0.0
C2824 C 0.80047 0.09461 0.78453 0.0
C2825 C 0.79001 0.09439 0.77845 0.0
C2826 C 0.78972 0.09355 0.76661 0.0
C2827 C 0.79983 0.09291 0.76074 0.0
C2828 C 0.81026 0.09317 0.76671 0.0
C2829 C 0.8106 0.09407 0.77855 0.0
H2830 H 0.79958 0.09225 0.75157 0.0
H2831 H 0.80332 0.10275 0.86631 0.0
H2832 H 0.90555 0.81163 0.83739 0.0
H2833 H 0.92215 0.80249 0.82991 0.0
H2834 H 0.92692 0.83042 0.8066 0.0
H2835 H 0.91029 0.83971 0.81412 0.0
H2836 H 0.93012 0.81023 0.79626 0.0
H2837 H 0.94362 0.82815 0.83065 0.0
H2838 H 0.9436 0.83273 0.85106 0.0
H2839 H 0.94777 0.79751 0.85949 0.0
H2840 H 0.94766 0.79269 0.83912 0.0
H2841 H 0.98643 0.79608 0.78179 0.0
H2842 H 0.96954 0.80553 0.78825 0.0
H2843 H 0.96474 0.77923 0.8134 0.0
H2844 H 0.98172 0.76979 0.80702 0.0
H2845 H 0.96164 0.7991 0.82261 0.0
H2846 H 0.9479 0.78106 0.78828 0.0
H2847 H 0.94782 0.77638 0.76789 0.0
H2848 H 0.94404 0.81162 0.75931 0.0
H2849 H 0.94424 0.81653 0.77966 0.0
C2850 C 0.91016 0.81591 0.83074 0.0
C2851 C 0.90661 0.82651 0.82647 0.0
C2852 C 0.91967 0.81064 0.82644 0.0
C2853 C 0.92594 0.81583 0.8178 0.0
C2854 C 0.92226 0.82625 0.81328 0.0
C2855 C 0.91271 0.83154 0.81758 0.0
C2856 C 0.93638 0.8104 0.81361 0.0
C2857 C 0.93708 0.80794 0.802 0.0
C2858 C 0.9454 0.80717 0.8211 0.0
C2859 C 0.94553 0.81005 0.83336 0.0
C2860 C 0.94445 0.82137 0.83686 0.0
C2861 C 0.94448 0.82401 0.84842 0.0
C2862 C 0.94566 0.81541 0.85657 0.0
C2863 C 0.94684 0.80416 0.85317 0.0
C2864 C 0.94681 0.80147 0.84162 0.0
C2865 C 0.98172 0.79222 0.78861 0.0
C2866 C 0.98544 0.78211 0.79383 0.0
C2867 C 0.97203 0.79765 0.79231 0.0
C2868 C 0.96571 0.79305 0.80124 0.0
C2869 C 0.96944 0.78299 0.80651 0.0
C2870 C 0.97918 0.77759 0.80286 0.0
C2871 C 0.95537 0.79882 0.80525 0.0
C2872 C 0.95469 0.80138 0.81685 0.0
C2873 C 0.94637 0.80211 0.79773 0.0
C2874 C 0.94619 0.79917 0.78549 0.0
C2875 C 0.94713 0.78782 0.78204 0.0
C2876 C 0.94705 0.78512 0.77049 0.0
C2877 C 0.94595 0.7937 0.76231 0.0
C2878 C 0.9449 0.80499 0.76566 0.0
C2879 C 0.94498 0.80773 0.7772 0.0
H2880 H 0.9459 0.79159 0.75337 0.0
H2881 H 0.94567 0.81747 0.86551 0.0
H2882 H 0.831 0.91373 0.22435 0.0
H2883 H 0.82027 0.92952 0.23152 0.0
H2884 H 0.80061 0.93075 0.2001 0.0
H2885 H 0.81158 0.915 0.1927 0.0
H2886 H 0.80677 0.95222 0.20737 0.0
H2887 H 0.78873 0.91971 0.22349 0.0
H2888 H 0.78749 0.90133 0.23355 0.0
H2889 H 0.80259 0.91653 0.26356 0.0
H2890 H 0.80409 0.93497 0.25363 0.0
H2891 H 0.77219 0.99312 0.23686 0.0
H2892 H 0.77744 0.97652 0.22555 0.0
H2893 H 0.80117 0.9666 0.25218 0.0
H2894 H 0.79603 0.98279 0.26335 0.0
H2895 H 0.78904 0.94863 0.24495 0.0
H2896 H 0.80964 0.98023 0.22764 0.0
H2897 H 0.81103 0.99859 0.21752 0.0
H2898 H 0.79072 0.98498 0.18975 0.0
H2899 H 0.7891 0.96658 0.19978 0.0
C2900 C 0.82447 0.91739 0.21888 0.0
C2901 C 0.82222 0.91305 0.2079 0.0
C2902 C 0.81824 0.92638 0.22305 0.0
C2903 C 0.80951 0.9313 0.21643 0.0
C2904 C 0.80727 0.9271 0.20541 0.0
C2905 C 0.8135 0.91803 0.20123 0.0
C2906 C 0.80283 0.9408 0.22113 0.0
C2907 C 0.80269 0.95136 0.21548 0.0
C2908 C 0.79751 0.93978 0.23174 0.0
C2909 C 0.79658 0.92871 0.23778 0.0
C2910 C 0.79186 0.91912 0.23221 0.0
C2911 C 0.7911 0.90869 0.23789 0.0
C2912 C 0.79497 0.90776 0.24918 0.0
C2913 C 0.7996 0.91726 0.25481 0.0
C2914 C 0.80039 0.92771 0.24916 0.0
C2915 C 0.77849 0.98736 0.24028 0.0
C2916 C 0.78368 0.98937 0.25103 0.0
C2917 C 0.78153 0.97789 0.23379 0.0
C2918 C 0.78976 0.97026 0.23798 0.0
C2919 C 0.79479 0.97226 0.24873 0.0
C2920 C 0.79184 0.98164 0.25512 0.0
C2921 C 0.79339 0.96016 0.23143 0.0
C2922 C 0.79293 0.94944 0.23673 0.0
C2923 C 0.79814 0.96105 0.22053 0.0
C2924 C 0.79913 0.97209 0.21452 0.0
C2925 C 0.80539 0.98119 0.21942 0.0
C2926 C 0.80624 0.99159 0.21369 0.0
C2927 C 0.80093 0.99296 0.20302 0.0
C2928 C 0.7948 0.98392 0.19803 0.0
C2929 C 0.79392 0.9735 0.20373 0.0
H2930 H 0.8016 1.00102 0.1986 0.0
H2931 H 0.79438 0.89967 0.25357 0.0
H2932 H 0.12892 0.81107 0.21644 0.0
H2933 H 0.1123 0.80245 0.22524 0.0
H2934 H 0.09629 0.79763 0.19218 0.0
H2935 H 0.11274 0.80662 0.18333 0.0
H2936 H 0.0812 0.80496 0.20663 0.0
H2937 H 0.10827 0.77541 0.20705 0.0
H2938 H 0.12667 0.76629 0.21082 0.0
H2939 H 0.12336 0.77146 0.24663 0.0
H2940 H 0.10504 0.78079 0.24307 0.0
H2941 H 0.0369 0.77135 0.23267 0.0
H2942 H 0.0528 0.77599 0.22013 0.0
H2943 H 0.07374 0.78532 0.24939 0.0
H2944 H 0.05809 0.78079 0.26176 0.0
H2945 H 0.08569 0.77347 0.23444 0.0
H2946 H 0.06011 0.80529 0.23362 0.0
H2947 H 0.04167 0.81441 0.23002 0.0
H2948 H 0.04218 0.80462 0.19496 0.0
H2949 H 0.06057 0.7953 0.19841 0.0
C2950 C 0.12183 0.8083 0.21103 0.0
C2951 C 0.12225 0.80953 0.19914 0.0
C2952 C 0.11236 0.80323 0.21607 0.0
C2953 C 0.10307 0.79918 0.20938 0.0
C2954 C 0.10336 0.80059 0.19754 0.0
C2955 C 0.11283 0.80566 0.19248 0.0
C2956 C 0.09306 0.79359 0.21477 0.0
C2957 C 0.08218 0.79793 0.21254 0.0
C2958 C 0.09426 0.78446 0.22259 0.0
C2959 C 0.10532 0.7789 0.22477 0.0
C2960 C 0.11151 0.7747 0.21572 0.0
C2961 C 0.12192 0.76948 0.21782 0.0
C2962 C 0.1262 0.76832 0.22895 0.0
C2963 C 0.12006 0.77238 0.23801 0.0
C2964 C 0.10965 0.77763 0.23595 0.0
C2965 C 0.04496 0.77421 0.23638 0.0
C2966 C 0.04622 0.77579 0.24818 0.0
C2967 C 0.05401 0.77693 0.22923 0.0
C2968 C 0.06446 0.78112 0.2338 0.0
C2969 C 0.06581 0.78213 0.24562 0.0
C2970 C 0.05681 0.77957 0.25269 0.0
C2971 C 0.07393 0.78502 0.2265 0.0
C2972 C 0.08471 0.78037 0.22838 0.0
C2973 C 0.07264 0.79386 0.21838 0.0
C2974 C 0.06163 0.79947 0.2163 0.0
C2975 C 0.05624 0.805 0.22517 0.0
C2976 C 0.04581 0.81022 0.22315 0.0
C2977 C 0.04074 0.81006 0.21228 0.0
C2978 C 0.04611 0.80471 0.20339 0.0
C2979 C 0.05653 0.79946 0.20536 0.0
H2980 H 0.03267 0.8141 0.21073 0.0
H2981 H 0.13425 0.76427 0.23056 0.0
H2982 H 0.9094 0.22128 0.22481 0.0
H2983 H 0.92671 0.22919 0.23387 0.0
H2984 H 0.94044 0.23614 0.20094 0.0
H2985 H 0.92332 0.22788 0.19182 0.0
H2986 H 0.95634 0.22758 0.21457 0.0
H2987 H 0.92975 0.25739 0.21739 0.0
H2988 H 0.91187 0.26652 0.22216 0.0
H2989 H 0.91797 0.25883 0.25748 0.0
H2990 H 0.93578 0.24944 0.25289 0.0
H2991 H 1.00314 0.25859 0.24143 0.0
H2992 H 0.9861 0.25531 0.22908 0.0
H2993 H 0.96747 0.24391 0.25816 0.0
H2994 H 0.98426 0.24708 0.27033 0.0
H2995 H 0.95451 0.25712 0.24429 0.0
H2996 H 0.97942 0.22505 0.24101 0.0
H2997 H 0.99739 0.21592 0.2365 0.0
H2998 H 0.99444 0.2282 0.20215 0.0
H2999 H 0.97651 0.23754 0.20651 0.0
C3000 C 0.91614 0.22438 0.21948 0.0
C3001 C 0.9149 0.22397 0.20756 0.0
C3002 C 0.926 0.22904 0.22468 0.0
C3003 C 0.93484 0.23347 0.2181 0.0
C3004 C 0.93373 0.23287 0.20621 0.0
C3005 C 0.92387 0.22822 0.20101 0.0
C3006 C 0.94532 0.23852 0.22363 0.0
C3007 C 0.95594 0.2342 0.22091 0.0
C3008 C 0.94485 0.24709 0.23201 0.0
C3009 C 0.93406 0.25262 0.23478 0.0
C3010 C 0.92723 0.25754 0.22616 0.0
C3011 C 0.9171 0.26278 0.22883 0.0
C3012 C 0.91377 0.26323 0.24011 0.0
C3013 C 0.92055 0.25845 0.24874 0.0
C3014 C 0.93066 0.25317 0.24611 0.0
C3015 C 0.99533 0.25558 0.24515 0.0
C3016 C 0.99503 0.253 0.2568 0.0
C3017 C 0.98564 0.25364 0.23811 0.0
C3018 C 0.97552 0.24924 0.24268 0.0
C3019 C 0.97514 0.24728 0.25441 0.0
C3020 C 0.98477 0.24905 0.26136 0.0
C3021 C 0.96544 0.24601 0.23539 0.0
C3022 C 0.9549 0.25065 0.2378 0.0
C3023 C 0.96596 0.23774 0.22675 0.0
C3024 C 0.97671 0.23211 0.22412 0.0
C3025 C 0.98266 0.22589 0.23252 0.0
C3026 C 0.99282 0.22066 0.22999 0.0
C3027 C 0.99708 0.22152 0.21906 0.0
C3028 C 0.99115 0.22757 0.21063 0.0
C3029 C 0.98099 0.23283 0.21312 0.0
H3030 H 1.00495 0.21746 0.21711 0.0
H3031 H 0.90594 0.26731 0.24216 0.0
H3032 H 0.19708 0.72917 0.61886 0.0
H3033 H 0.20376 0.74017 0.60251 0.0
H3034 H 0.23616 0.72381 0.60548 0.0
H3035 H 0.2297 0.71313 0.62195 0.0
H3036 H 0.23937 0.74564 0.60097 0.0
H3037 H 0.21506 0.71535 0.58585 0.0
H3038 H 0.19713 0.70434 0.58351 0.0
H3039 H 0.18017 0.73421 0.57142 0.0
H3040 H 0.198 0.74543 0.57383 0.0
H3041 H 0.26301 0.74154 0.54831 0.0
H3042 H 0.25165 0.73722 0.56467 0.0
H3043 H 0.22989 0.76525 0.55636 0.0
H3044 H 0.24148 0.76983 0.53972 0.0
H3045 H 0.21901 0.74181 0.56366 0.0
H3046 H 0.24508 0.77126 0.57615 0.0
H3047 H 0.26405 0.78051 0.5765 0.0
H3048 H 0.27827 0.75105 0.59265 0.0
H3049 H 0.25942 0.74155 0.59223 0.0
C3050 C 0.20567 0.72802 0.61611 0.0
C3051 C 0.2128 0.72015 0.62168 0.0
C3052 C 0.20946 0.73426 0.6067 0.0
C3053 C 0.22044 0.73275 0.60264 0.0
C3054 C 0.22765 0.72514 0.6084 0.0
C3055 C 0.22389 0.71893 0.61776 0.0
C3056 C 0.22446 0.73876 0.59223 0.0
C3057 C 0.23485 0.74484 0.59285 0.0
C3058 C 0.21851 0.73798 0.5816 0.0
C3059 C 0.20781 0.73125 0.58017 0.0
C3060 C 0.20748 0.71958 0.58279 0.0
C3061 C 0.19735 0.71331 0.58143 0.0
C3062 C 0.18751 0.71858 0.57736 0.0
C3063 C 0.18779 0.73014 0.57461 0.0
C3064 C 0.19791 0.73646 0.57596 0.0
C3065 C 0.25579 0.74682 0.54982 0.0
C3066 C 0.25323 0.75612 0.54268 0.0
C3067 C 0.24927 0.74429 0.55922 0.0
C3068 C 0.23997 0.75093 0.56177 0.0
C3069 C 0.23705 0.76001 0.55451 0.0
C3070 C 0.24369 0.76264 0.54505 0.0
C3071 C 0.23391 0.74848 0.57245 0.0
C3072 C 0.22326 0.74296 0.57188 0.0
C3073 C 0.23962 0.74972 0.58312 0.0
C3074 C 0.25084 0.75567 0.58411 0.0
C3075 C 0.25225 0.76675 0.57978 0.0
C3076 C 0.26298 0.77204 0.57997 0.0
C3077 C 0.27236 0.76636 0.58456 0.0
C3078 C 0.271 0.75544 0.5891 0.0
C3079 C 0.26029 0.75011 0.5889 0.0
H3080 H 0.28067 0.77043 0.58456 0.0
H3081 H 0.17967 0.71371 0.57631 0.0
H3082 H 0.80213 0.70243 0.62164 0.0
H3083 H 0.79326 0.71064 0.60455 0.0
H3084 H 0.82351 0.73088 0.59908 0.0
H3085 H 0.83249 0.72264 0.61612 0.0
H3086 H 0.80494 0.74336 0.59561 0.0
H3087 H 0.81725 0.70658 0.58366 0.0
H3088 H 0.81836 0.6857 0.58445 0.0
H3089 H 0.78221 0.68275 0.57916 0.0
H3090 H 0.78087 0.70364 0.57849 0.0
H3091 H 0.80277 0.75833 0.53875 0.0
H3092 H 0.80742 0.74789 0.55605 0.0
H3093 H 0.77273 0.73583 0.55776 0.0
H3094 H 0.76789 0.74648 0.54021 0.0
H3095 H 0.79065 0.71901 0.5638 0.0
H3096 H 0.77876 0.75611 0.5739 0.0
H3097 H 0.77833 0.77694 0.5718 0.0
H3098 H 0.81401 0.77926 0.58016 0.0
H3099 H 0.81472 0.75841 0.58209 0.0
C3100 C 0.80696 0.70855 0.61677 0.0
C3101 C 0.81809 0.7118 0.62028 0.0
C3102 C 0.80184 0.71327 0.60698 0.0
C3103 C 0.80774 0.72131 0.60041 0.0
C3104 C 0.81876 0.72472 0.60399 0.0
C3105 C 0.82389 0.72001 0.61378 0.0
C3106 C 0.80248 0.72615 0.58978 0.0
C3107 C 0.80187 0.73801 0.58866 0.0
C3108 C 0.79815 0.71922 0.58077 0.0
C3109 C 0.79894 0.70667 0.58116 0.0
C3110 C 0.80953 0.70148 0.58276 0.0
C3111 C 0.8102 0.68965 0.58317 0.0
C3112 C 0.80036 0.6829 0.58189 0.0
C3113 C 0.78983 0.68799 0.58017 0.0
C3114 C 0.7891 0.69982 0.57977 0.0
C3115 C 0.79609 0.75338 0.54268 0.0
C3116 C 0.78491 0.75336 0.53813 0.0
C3117 C 0.79879 0.74739 0.5526 0.0
C3118 C 0.79041 0.74122 0.55831 0.0
C3119 C 0.77933 0.74058 0.5535 0.0
C3120 C 0.77658 0.74665 0.54348 0.0
C3121 C 0.79331 0.73616 0.56962 0.0
C3122 C 0.79352 0.72431 0.57086 0.0
C3123 C 0.79728 0.74309 0.57876 0.0
C3124 C 0.79681 0.75567 0.57805 0.0
C3125 C 0.78653 0.76105 0.57523 0.0
C3126 C 0.78624 0.77286 0.57405 0.0
C3127 C 0.79615 0.77941 0.57579 0.0
C3128 C 0.80635 0.77417 0.57879 0.0
C3129 C 0.8067 0.76235 0.57994 0.0
H3130 H 0.79592 0.78855 0.57484 0.0
H3131 H 0.8009 0.67374 0.58221 0.0
H3132 H 0.84326 0.3272 0.62206 0.0
H3133 H 0.83831 0.31562 0.60539 0.0
H3134 H 0.80275 0.31882 0.61216 0.0
H3135 H 0.80763 0.33004 0.62905 0.0
H3136 H 0.80675 0.29772 0.60577 0.0
H3137 H 0.81592 0.33491 0.59138 0.0
H3138 H 0.8278 0.35215 0.58883 0.0
H3139 H 0.85372 0.33223 0.57417 0.0
H3140 H 0.84205 0.31483 0.57678 0.0
H3141 H 0.78373 0.28187 0.55151 0.0
H3142 H 0.78937 0.29211 0.5688 0.0
H3143 H 0.82463 0.28795 0.56125 0.0
H3144 H 0.81905 0.27798 0.54372 0.0
H3145 H 0.82116 0.30913 0.56814 0.0
H3146 H 0.81156 0.27196 0.58196 0.0
H3147 H 0.79942 0.25485 0.58424 0.0
H3148 H 0.77408 0.27479 0.59983 0.0
H3149 H 0.786 0.29208 0.59748 0.0
C3150 C 0.83438 0.32533 0.62011 0.0
C3151 C 0.82586 0.32968 0.62692 0.0
C3152 C 0.83155 0.31878 0.61047 0.0
C3153 C 0.82013 0.31645 0.60735 0.0
C3154 C 0.81162 0.32052 0.6143 0.0
C3155 C 0.81444 0.32705 0.62393 0.0
C3156 C 0.817 0.30994 0.59677 0.0
C3157 C 0.80981 0.30031 0.59753 0.0
C3158 C 0.82114 0.31311 0.586 0.0
C3159 C 0.82816 0.32355 0.58439 0.0
C3160 C 0.82419 0.33419 0.5877 0.0
C3161 C 0.83088 0.344 0.58622 0.0
C3162 C 0.84152 0.34328 0.58137 0.0
C3163 C 0.84548 0.33277 0.57795 0.0
C3164 C 0.83883 0.32293 0.57941 0.0
C3165 C 0.79269 0.28319 0.55344 0.0
C3166 C 0.80092 0.27906 0.54613 0.0
C3167 C 0.79592 0.28897 0.56344 0.0
C3168 C 0.80745 0.29073 0.56646 0.0
C3169 C 0.81568 0.28669 0.55916 0.0
C3170 C 0.81246 0.28089 0.54916 0.0
C3171 C 0.81091 0.29692 0.57713 0.0
C3172 C 0.81815 0.30651 0.57638 0.0
C3173 C 0.80678 0.29373 0.58791 0.0
C3174 C 0.79963 0.28334 0.58944 0.0
C3175 C 0.80336 0.27272 0.5858 0.0
C3176 C 0.79653 0.26299 0.58711 0.0
C3177 C 0.78597 0.26375 0.59214 0.0
C3178 C 0.78225 0.27423 0.59591 0.0
C3179 C 0.78905 0.284 0.5946 0.0
H3180 H 0.7807 0.2562 0.59313 0.0
H3181 H 0.84669 0.35089 0.58023 0.0
H3182 H 0.23566 0.33473 0.64839 0.0
H3183 H 0.24417 0.32767 0.6312 0.0
H3184 H 0.2141 0.33651 0.61163 0.0
H3185 H 0.20552 0.34366 0.62882 0.0
H3186 H 0.22164 0.31638 0.60495 0.0
H3187 H 0.23798 0.35344 0.61124 0.0
H3188 H 0.24789 0.36861 0.62221 0.0
H3189 H 0.27729 0.34782 0.62624 0.0
H3190 H 0.26749 0.33245 0.61542 0.0
H3191 H 0.26392 0.32549 0.55535 0.0
H3192 H 0.25424 0.33236 0.57198 0.0
H3193 H 0.25078 0.29801 0.58445 0.0
H3194 H 0.26049 0.29108 0.56789 0.0
H3195 H 0.25929 0.33177 0.59396 0.0
H3196 H 0.22633 0.29509 0.59913 0.0
H3197 H 0.21562 0.28117 0.58721 0.0
H3198 H 0.21803 0.30354 0.55842 0.0
H3199 H 0.22862 0.31764 0.57019 0.0
C3200 C 0.23085 0.33523 0.64044 0.0
C3201 C 0.21992 0.33989 0.64002 0.0
C3202 C 0.23573 0.33116 0.63059 0.0
C3203 C 0.22987 0.3317 0.62005 0.0
C3204 C 0.21881 0.336 0.61965 0.0
C3205 C 0.2139 0.34006 0.62951 0.0
C3206 C 0.23536 0.32801 0.60944 0.0
C3207 C 0.22988 0.31973 0.60257 0.0
C3208 C 0.24602 0.33251 0.60615 0.0
C3209 C 0.25196 0.34176 0.61261 0.0
C3210 C 0.24653 0.35207 0.61453 0.0
C3211 C 0.25213 0.36071 0.62072 0.0
C3212 C 0.2632 0.35917 0.62494 0.0
C3213 C 0.2687 0.34899 0.62297 0.0
C3214 C 0.26314 0.34032 0.61681 0.0
C3215 C 0.26117 0.31938 0.56164 0.0
C3216 C 0.26298 0.3077 0.56019 0.0
C3217 C 0.2556 0.32333 0.57116 0.0
C3218 C 0.25164 0.31571 0.57945 0.0
C3219 C 0.25353 0.30406 0.57809 0.0
C3220 C 0.25909 0.30009 0.56857 0.0
C3221 C 0.24568 0.31998 0.58957 0.0
C3222 C 0.25107 0.32838 0.59635 0.0
C3223 C 0.23485 0.31573 0.59265 0.0
C3224 C 0.22837 0.30737 0.58552 0.0
C3225 C 0.22454 0.29705 0.59026 0.0
C3226 C 0.2185 0.28912 0.58353 0.0
C3227 C 0.21618 0.29145 0.57206 0.0
C3228 C 0.21987 0.30172 0.5673 0.0
C3229 C 0.2259 0.30968 0.57399 0.0
H3230 H 0.21151 0.2853 0.56686 0.0
H3231 H 0.26752 0.36587 0.62973 0.0
H3232 H 0.19937 0.31459 0.42231 0.0
H3233 H 0.20601 0.30422 0.43928 0.0
H3234 H 0.24057 0.31401 0.43224 0.0
H3235 H 0.23407 0.32401 0.41514 0.0
H3236 H 0.23978 0.29255 0.43893 0.0
H3237 H 0.22447 0.32779 0.45236 0.0
H3238 H 0.2095 0.34188 0.45472 0.0
H3239 H 0.18861 0.31666 0.47094 0.0
H3240 H 0.20342 0.30238 0.46854 0.0
H3241 H 0.27121 0.29535 0.48968 0.0
H3242 H 0.26001 0.29853 0.47239 0.0
H3243 H 0.23108 0.2819 0.48731 0.0
H3244 H 0.24246 0.2786 0.50496 0.0
H3245 H 0.226 0.30301 0.47682 0.0
H3246 H 0.24352 0.26878 0.46642 0.0
H3247 H 0.25916 0.25539 0.46453 0.0
H3248 H 0.27644 0.27903 0.44282 0.0
H3249 H 0.26099 0.29266 0.44472 0.0
C3250 C 0.2084 0.31442 0.42429 0.0
C3251 C 0.21616 0.32025 0.41736 0.0
C3252 C 0.21218 0.30856 0.43408 0.0
C3253 C 0.2238 0.30842 0.43718 0.0
C3254 C 0.23156 0.31399 0.4301 0.0
C3255 C 0.2278 0.31982 0.42035 0.0
C3256 C 0.22801 0.30275 0.44786 0.0
C3257 C 0.23677 0.29486 0.44721 0.0
C3258 C 0.22386 0.30543 0.4587 0.0
C3259 C 0.21497 0.31399 0.46014 0.0
C3260 C 0.21664 0.32523 0.45634 0.0
C3261 C 0.2082 0.33325 0.4577 0.0
C3262 C 0.1981 0.33015 0.46294 0.0
C3263 C 0.19643 0.31904 0.46686 0.0
C3264 C 0.20484 0.31098 0.4655 0.0
C3265 C 0.26248 0.29226 0.48933 0.0
C3266 C 0.25772 0.28675 0.49875 0.0
C3267 C 0.25609 0.29404 0.47936 0.0
C3268 C 0.24471 0.29039 0.47846 0.0
C3269 C 0.23987 0.28475 0.48779 0.0
C3270 C 0.24638 0.28281 0.49784 0.0
C3271 C 0.238 0.29311 0.46787 0.0
C3272 C 0.22881 0.30047 0.46853 0.0
C3273 C 0.24179 0.28999 0.45702 0.0
C3274 C 0.25109 0.28178 0.45576 0.0
C3275 C 0.25068 0.27117 0.4613 0.0
C3276 C 0.25952 0.26352 0.46022 0.0
C3277 C 0.2688 0.26636 0.45357 0.0
C3278 C 0.26924 0.27684 0.44797 0.0
C3279 C 0.26043 0.28452 0.44903 0.0
H3280 H 0.27563 0.26043 0.45275 0.0
H3281 H 0.19157 0.33638 0.46399 0.0
H3282 H 0.23337 0.6961 0.39897 0.0
H3283 H 0.24343 0.70287 0.41622 0.0
H3284 H 0.2136 0.72073 0.42581 0.0
H3285 H 0.20352 0.71399 0.40866 0.0
H3286 H 0.23188 0.73404 0.42869 0.0
H3287 H 0.22183 0.69555 0.43891 0.0
H3288 H 0.22113 0.67474 0.43663 0.0
H3289 H 0.25757 0.67398 0.43811 0.0
H3290 H 0.25849 0.69482 0.44026 0.0
H3291 H 0.24658 0.7467 0.48596 0.0
H3292 H 0.23748 0.73901 0.46869 0.0
H3293 H 0.26832 0.72194 0.4609 0.0
H3294 H 0.2775 0.72961 0.47819 0.0
H3295 H 0.25036 0.70823 0.45672 0.0
H3296 H 0.26056 0.7465 0.44703 0.0
H3297 H 0.26146 0.7673 0.44937 0.0
H3298 H 0.22508 0.76854 0.44667 0.0
H3299 H 0.22395 0.74772 0.44449 0.0
C3300 C 0.22891 0.70136 0.40481 0.0
C3301 C 0.21762 0.70451 0.40236 0.0
C3302 C 0.23468 0.70525 0.41468 0.0
C3303 C 0.22928 0.71229 0.4224 0.0
C3304 C 0.21801 0.71538 0.41999 0.0
C3305 C 0.21225 0.71153 0.41014 0.0
C3306 C 0.23535 0.7166 0.4329 0.0
C3307 C 0.2358 0.72837 0.43488 0.0
C3308 C 0.24077 0.70928 0.44087 0.0
C3309 C 0.24023 0.69675 0.43963 0.0
C3310 C 0.22969 0.69096 0.43867 0.0
C3311 C 0.22926 0.67915 0.43741 0.0
C3312 C 0.2393 0.67305 0.43719 0.0
C3313 C 0.2498 0.67873 0.43826 0.0
C3314 C 0.25028 0.69053 0.43951 0.0
C3315 C 0.25148 0.74138 0.48056 0.0
C3316 C 0.26283 0.73887 0.48349 0.0
C3317 C 0.24625 0.73697 0.47066 0.0
C3318 C 0.25224 0.73001 0.46335 0.0
C3319 C 0.2635 0.72728 0.46636 0.0
C3320 C 0.26874 0.73167 0.4763 0.0
C3321 C 0.24678 0.72565 0.45256 0.0
C3322 C 0.24647 0.7139 0.45052 0.0
C3323 C 0.24152 0.73299 0.4445 0.0
C3324 C 0.24217 0.74553 0.4457 0.0
C3325 C 0.25275 0.7512 0.44701 0.0
C3326 C 0.2533 0.76299 0.4483 0.0
C3327 C 0.24333 0.76924 0.44819 0.0
C3328 C 0.23279 0.7637 0.44677 0.0
C3329 C 0.23219 0.7519 0.44549 0.0
H3330 H 0.24377 0.77837 0.44919 0.0
H3331 H 0.23894 0.66391 0.43622 0.0
H3332 H 0.81778 0.7171 0.39499 0.0
H3333 H 0.80926 0.72537 0.41169 0.0
H3334 H 0.84264 0.73364 0.42561 0.0
H3335 H 0.85121 0.72507 0.40917 0.0
H3336 H 0.82957 0.7255 0.44185 0.0
H3337 H 0.82561 0.75383 0.41241 0.0
H3338 H 0.81958 0.7612 0.39359 0.0
H3339 H 0.78477 0.75334 0.40081 0.0
H3340 H 0.79062 0.74578 0.41963 0.0
H3341 H 0.81658 0.76653 0.48289 0.0
H3342 H 0.82351 0.75683 0.46628 0.0
H3343 H 0.78903 0.74943 0.45497 0.0
H3344 H 0.78202 0.75944 0.47145 0.0
H3345 H 0.80163 0.75631 0.43743 0.0
H3346 H 0.80546 0.72881 0.46723 0.0
H3347 H 0.81147 0.72152 0.48608 0.0
H3348 H 0.84641 0.72774 0.47823 0.0
H3349 H 0.84061 0.73523 0.45938 0.0
C3350 C 0.82332 0.72056 0.40166 0.0
C3351 C 0.83521 0.72047 0.40064 0.0
C3352 C 0.81843 0.72539 0.41117 0.0
C3353 C 0.82529 0.7303 0.41988 0.0
C3354 C 0.83714 0.72998 0.41901 0.0
C3355 C 0.84204 0.72515 0.40952 0.0
C3356 C 0.82019 0.73585 0.42988 0.0
C3357 C 0.82355 0.73232 0.44087 0.0
C3358 C 0.8121 0.74456 0.42867 0.0
C3359 C 0.80857 0.74912 0.41737 0.0
C3360 C 0.81668 0.75359 0.40995 0.0
C3361 C 0.81329 0.75781 0.39929 0.0
C3362 C 0.8018 0.7577 0.39599 0.0
C3363 C 0.79367 0.7534 0.40337 0.0
C3364 C 0.79702 0.74915 0.41403 0.0
C3365 C 0.81044 0.76295 0.47685 0.0
C3366 C 0.79871 0.76378 0.47859 0.0
C3367 C 0.81443 0.75727 0.46738 0.0
C3368 C 0.80682 0.75223 0.45941 0.0
C3369 C 0.7951 0.75319 0.46101 0.0
C3370 C 0.79109 0.75884 0.47051 0.0
C3371 C 0.81111 0.74604 0.4494 0.0
C3372 C 0.8076 0.74945 0.43841 0.0
C3373 C 0.81907 0.73721 0.45061 0.0
C3374 C 0.82259 0.73268 0.46193 0.0
C3375 C 0.81443 0.72871 0.46955 0.0
C3376 C 0.81779 0.72452 0.48024 0.0
C3377 C 0.82931 0.72419 0.48337 0.0
C3378 C 0.83749 0.72802 0.4758 0.0
C3379 C 0.83417 0.73222 0.46511 0.0
H3380 H 0.8319 0.72095 0.49164 0.0
H3381 H 0.7992 0.76098 0.38774 0.0
H3382 H 0.83539 0.32856 0.41388 0.0
H3383 H 0.82722 0.31981 0.43072 0.0
H3384 H 0.79352 0.32457 0.41644 0.0
H3385 H 0.80164 0.3333 0.39952 0.0
H3386 H 0.79424 0.32983 0.43874 0.0
H3387 H 0.80549 0.29848 0.41633 0.0
H3388 H 0.81849 0.28718 0.40509 0.0
H3389 H 0.84103 0.28391 0.43418 0.0
H3390 H 0.82825 0.29533 0.44556 0.0
H3391 H 0.76958 0.29034 0.47981 0.0
H3392 H 0.77482 0.30127 0.46276 0.0
H3393 H 0.81024 0.29853 0.47254 0.0
H3394 H 0.8051 0.2876 0.48926 0.0
H3395 H 0.80685 0.29176 0.4514 0.0
H3396 H 0.79586 0.32393 0.47358 0.0
H3397 H 0.78274 0.33519 0.48471 0.0
H3398 H 0.75943 0.33665 0.45606 0.0
H3399 H 0.77235 0.32526 0.44479 0.0
C3400 C 0.82625 0.32765 0.41425 0.0
C3401 C 0.81921 0.3316 0.40527 0.0
C3402 C 0.82157 0.32267 0.42392 0.0
C3403 C 0.80973 0.3214 0.42484 0.0
C3404 C 0.80267 0.32547 0.41597 0.0
C3405 C 0.80734 0.33048 0.40629 0.0
C3406 C 0.80479 0.31568 0.43497 0.0
C3407 C 0.79688 0.32144 0.44143 0.0
C3408 C 0.80827 0.30476 0.43857 0.0
C3409 C 0.81595 0.29784 0.43177 0.0
C3410 C 0.81326 0.29542 0.42031 0.0
C3411 C 0.82058 0.28899 0.41392 0.0
C3412 C 0.83059 0.28485 0.41891 0.0
C3413 C 0.83328 0.28712 0.43032 0.0
C3414 C 0.826 0.29357 0.43675 0.0
C3415 C 0.77845 0.29233 0.47842 0.0
C3416 C 0.78693 0.28806 0.48584 0.0
C3417 C 0.78145 0.29855 0.46867 0.0
C3418 C 0.79296 0.30067 0.46628 0.0
C3419 C 0.80133 0.29692 0.47407 0.0
C3420 C 0.79836 0.29069 0.48368 0.0
C3421 C 0.79655 0.30604 0.4554 0.0
C3422 C 0.80417 0.30015 0.44872 0.0
C3423 C 0.79278 0.3168 0.45163 0.0
C3424 C 0.78501 0.32363 0.45839 0.0
C3425 C 0.78789 0.32657 0.46968 0.0
C3426 C 0.7805 0.33299 0.47601 0.0
C3427 C 0.77024 0.3366 0.47111 0.0
C3428 C 0.76737 0.33382 0.45985 0.0
C3429 C 0.77472 0.32739 0.45349 0.0
H3430 H 0.76453 0.34157 0.47602 0.0
H3431 H 0.83625 0.27987 0.41395 0.0
H3432 H 0.13896 0.7196 0.72005 0.0
H3433 H 0.12259 0.72503 0.731 0.0
H3434 H 0.10007 0.71483 0.70322 0.0
H3435 H 0.11636 0.70938 0.69225 0.0
H3436 H 0.0938 0.73455 0.71096 0.0
H3437 H 0.10309 0.69864 0.72778 0.0
H3438 H 0.11551 0.68455 0.7371 0.0
H3439 H 0.12141 0.70698 0.76537 0.0
H3440 H 0.10914 0.72128 0.75615 0.0
H3441 H 0.0481 0.72491 0.75689 0.0
H3442 H 0.06456 0.71842 0.74672 0.0
H3443 H 0.07538 0.75319 0.74141 0.0
H3444 H 0.05899 0.75973 0.75159 0.0
H3445 H 0.08701 0.72044 0.75 0.0
H3446 H 0.08757 0.75581 0.71573 0.0
H3447 H 0.07418 0.76857 0.70575 0.0
H3448 H 0.04685 0.74465 0.71111 0.0
H3449 H 0.06009 0.73169 0.72098 0.0
C3450 C 0.13052 0.71837 0.71632 0.0
C3451 C 0.12902 0.71405 0.70523 0.0
C3452 C 0.12114 0.7215 0.72259 0.0
C3453 C 0.11004 0.72029 0.71799 0.0
C3454 C 0.10853 0.71592 0.70696 0.0
C3455 C 0.11788 0.71281 0.70068 0.0
C3456 C 0.1 0.72378 0.72453 0.0
C3457 C 0.09235 0.73146 0.7195 0.0
C3458 C 0.09794 0.71967 0.73564 0.0
C3459 C 0.10528 0.71107 0.74122 0.0
C3460 C 0.1071 0.70061 0.73595 0.0
C3461 C 0.1141 0.69257 0.74122 0.0
C3462 C 0.11927 0.69488 0.75181 0.0
C3463 C 0.11742 0.70521 0.75716 0.0
C3464 C 0.11043 0.71328 0.75192 0.0
C3465 C 0.05402 0.73119 0.75366 0.0
C3466 C 0.0521 0.74287 0.75502 0.0
C3467 C 0.06344 0.72746 0.74781 0.0
C3468 C 0.07117 0.7353 0.74314 0.0
C3469 C 0.06944 0.74695 0.74472 0.0
C3470 C 0.06001 0.75069 0.75054 0.0
C3471 C 0.08092 0.73131 0.73647 0.0
C3472 C 0.0885 0.72355 0.74147 0.0
C3473 C 0.08282 0.73518 0.72526 0.0
C3474 C 0.07481 0.74284 0.71919 0.0
C3475 C 0.07871 0.75326 0.71474 0.0
C3476 C 0.07115 0.76053 0.70911 0.0
C3477 C 0.05967 0.75744 0.70783 0.0
C3478 C 0.05574 0.74705 0.71214 0.0
C3479 C 0.06326 0.73975 0.71777 0.0
H3480 H 0.05383 0.76308 0.70348 0.0
H3481 H 0.12469 0.68865 0.75587 0.0
H3482 H 0.82026 0.64205 0.70812 0.0
H3483 H 0.8124 0.62486 0.71698 0.0
H3484 H 0.84628 0.61385 0.72561 0.0
H3485 H 0.85418 0.63077 0.71646 0.0
H3486 H 0.83364 0.5964 0.71806 0.0
H3487 H 0.82913 0.62616 0.7454 0.0
H3488 H 0.82258 0.64465 0.75212 0.0
H3489 H 0.78797 0.63443 0.74471 0.0
H3490 H 0.79434 0.61593 0.73781 0.0
H3491 H 0.82245 0.5551 0.76032 0.0
H3492 H 0.82878 0.57199 0.75004 0.0
H3493 H 0.79395 0.58088 0.74296 0.0
H3494 H 0.78752 0.56419 0.75361 0.0
H3495 H 0.80609 0.59931 0.74893 0.0
H3496 H 0.81044 0.56923 0.72239 0.0
H3497 H 0.81692 0.55072 0.71568 0.0
H3498 H 0.85165 0.56145 0.7214 0.0
H3499 H 0.84537 0.57999 0.7283 0.0
C3500 C 0.82605 0.63591 0.71178 0.0
C3501 C 0.83788 0.63788 0.71163 0.0
C3502 C 0.82153 0.62612 0.71696 0.0
C3503 C 0.82873 0.61809 0.72214 0.0
C3504 C 0.84053 0.61991 0.72174 0.0
C3505 C 0.84504 0.62967 0.71658 0.0
C3506 C 0.82405 0.60784 0.72806 0.0
C3507 C 0.82771 0.59706 0.72489 0.0
C3508 C 0.81606 0.60861 0.73679 0.0
C3509 C 0.81222 0.61971 0.74097 0.0
C3510 C 0.82013 0.62789 0.74512 0.0
C3511 C 0.81645 0.63837 0.74898 0.0
C3512 C 0.80487 0.64073 0.74881 0.0
C3513 C 0.79694 0.6326 0.74482 0.0
C3514 C 0.80058 0.62212 0.74094 0.0
C3515 C 0.8161 0.56067 0.75669 0.0
C3516 C 0.80444 0.55818 0.75782 0.0
C3517 C 0.81975 0.5703 0.75068 0.0
C3518 C 0.81186 0.57767 0.74555 0.0
C3519 C 0.80023 0.57532 0.74678 0.0
C3520 C 0.79655 0.56568 0.7528 0.0
C3521 C 0.81578 0.58787 0.739 0.0
C3522 C 0.81198 0.59863 0.74206 0.0
C3523 C 0.82362 0.58708 0.73015 0.0
C3524 C 0.82743 0.57596 0.72596 0.0
C3525 C 0.81946 0.56761 0.7223 0.0
C3526 C 0.8231 0.55712 0.71845 0.0
C3527 C 0.83469 0.5549 0.71814 0.0
C3528 C 0.84267 0.56318 0.72166 0.0
C3529 C 0.83908 0.57369 0.72553 0.0
H3530 H 0.83749 0.54677 0.71515 0.0
H3531 H 0.80203 0.64884 0.7518 0.0
H3532 H 0.90916 0.31861 0.70458 0.0
H3533 H 0.92626 0.31289 0.71513 0.0
H3534 H 0.92672 0.34449 0.73347 0.0
H3535 H 0.9095 0.35026 0.72299 0.0
H3536 H 0.9478 0.33936 0.72704 0.0
H3537 H 0.91775 0.3196 0.74593 0.0
H3538 H 0.90077 0.30714 0.74734 0.0
H3539 H 0.91912 0.27934 0.73388 0.0
H3540 H 0.93617 0.29168 0.73224 0.0
H3541 H 0.9878 0.32288 0.7703 0.0
H3542 H 0.97094 0.32915 0.75969 0.0
H3543 H 0.96928 0.29735 0.74169 0.0
H3544 H 0.98592 0.29085 0.75255 0.0
H3545 H 0.94874 0.30277 0.7481 0.0
H3546 H 0.97874 0.32247 0.72908 0.0
H3547 H 0.99575 0.33487 0.72757 0.0
H3548 H 0.97757 0.36273 0.74116 0.0
H3549 H 0.96049 0.35044 0.7429 0.0
C3550 C 0.91279 0.32432 0.71095 0.0
C3551 C 0.90781 0.33488 0.71297 0.0
C3552 C 0.92262 0.32103 0.71697 0.0
C3553 C 0.92775 0.32817 0.72524 0.0
C3554 C 0.92295 0.33881 0.72715 0.0
C3555 C 0.91309 0.34211 0.72111 0.0
C3556 C 0.93809 0.32451 0.73186 0.0
C3557 C 0.94794 0.33144 0.73178 0.0
C3558 C 0.93844 0.31404 0.73786 0.0
C3559 C 0.9282 0.30659 0.73886 0.0
C3560 C 0.91814 0.31085 0.74319 0.0
C3561 C 0.90851 0.30381 0.74404 0.0
C3562 C 0.90886 0.29247 0.74067 0.0
C3563 C 0.91885 0.28813 0.73647 0.0
C3564 C 0.92851 0.29514 0.73558 0.0
C3565 C 0.98385 0.31717 0.76414 0.0
C3566 C 0.98832 0.30633 0.76234 0.0
C3567 C 0.97423 0.32083 0.75796 0.0
C3568 C 0.96885 0.31379 0.74975 0.0
C3569 C 0.97327 0.30297 0.74793 0.0
C3570 C 0.98289 0.2993 0.75411 0.0
C3571 C 0.95848 0.3176 0.74325 0.0
C3572 C 0.94861 0.3107 0.74337 0.0
C3573 C 0.95813 0.32809 0.73728 0.0
C3574 C 0.96838 0.3355 0.73623 0.0
C3575 C 0.9784 0.33121 0.73184 0.0
C3576 C 0.98805 0.33823 0.73092 0.0
C3577 C 0.98775 0.34957 0.7343 0.0
C3578 C 0.97779 0.35393 0.73857 0.0
C3579 C 0.96813 0.34695 0.73951 0.0
H3580 H 0.99523 0.35499 0.73358 0.0
H3581 H 0.90139 0.28703 0.74135 0.0
H3582 H 0.19152 0.42157 0.73532 0.0
H3583 H 0.20124 0.43842 0.74314 0.0
H3584 H 0.23264 0.42765 0.72908 0.0
H3585 H 0.22307 0.41054 0.72161 0.0
H3586 H 0.23648 0.4352 0.75001 0.0
H3587 H 0.21636 0.44903 0.71675 0.0
H3588 H 0.1996 0.45231 0.70422 0.0
H3589 H 0.18401 0.47086 0.73071 0.0
H3590 H 0.20063 0.46756 0.74346 0.0
H3591 H 0.26918 0.48497 0.74518 0.0
H3592 H 0.25704 0.46833 0.74215 0.0
H3593 H 0.23106 0.48333 0.76193 0.0
H3594 H 0.24338 0.50031 0.76509 0.0
H3595 H 0.22295 0.47392 0.74084 0.0
H3596 H 0.24497 0.46199 0.77317 0.0
H3597 H 0.26251 0.45925 0.7847 0.0
H3598 H 0.27523 0.43739 0.75913 0.0
H3599 H 0.25784 0.44015 0.74734 0.0
C3600 C 0.20052 0.4227 0.73397 0.0
C3601 C 0.20648 0.41463 0.7278 0.0
C3602 C 0.20606 0.43243 0.73836 0.0
C3603 C 0.21768 0.43442 0.73663 0.0
C3604 C 0.22367 0.42635 0.73054 0.0
C3605 C 0.21815 0.4166 0.72616 0.0
C3606 C 0.22364 0.44486 0.74113 0.0
C3607 C 0.23354 0.44366 0.74794 0.0
C3608 C 0.21967 0.45595 0.73874 0.0
C3609 C 0.20967 0.45792 0.7311 0.0
C3610 C 0.20931 0.45372 0.71994 0.0
C3611 C 0.19985 0.4556 0.71279 0.0
C3612 C 0.19073 0.46176 0.71668 0.0
C3613 C 0.19107 0.46607 0.72772 0.0
C3614 C 0.20051 0.4642 0.73491 0.0
C3615 C 0.26091 0.4848 0.74896 0.0
C3616 C 0.25725 0.49404 0.75537 0.0
C3617 C 0.25398 0.4752 0.74725 0.0
C3618 C 0.24317 0.4745 0.75188 0.0
C3619 C 0.23941 0.48367 0.75832 0.0
C3620 C 0.24645 0.49334 0.76016 0.0
C3621 C 0.23587 0.46424 0.74953 0.0
C3622 C 0.22575 0.46546 0.7431 0.0
C3623 C 0.23969 0.45317 0.75218 0.0
C3624 C 0.25011 0.45133 0.75933 0.0
C3625 C 0.25153 0.45665 0.76996 0.0
C3626 C 0.26145 0.45509 0.77655 0.0
C3627 C 0.26999 0.44816 0.77264 0.0
C3628 C 0.26861 0.44275 0.76215 0.0
C3629 C 0.25871 0.4443 0.75551 0.0
H3630 H 0.27767 0.44697 0.77775 0.0
H3631 H 0.18341 0.46321 0.71113 0.0
H3632 H 0.12623 0.3043 0.34391 0.0
H3633 H 0.10965 0.29783 0.33274 0.0
H3634 H 0.11717 0.32255 0.30675 0.0
H3635 H 0.13402 0.32901 0.31785 0.0
H3636 H 0.09387 0.32103 0.31125 0.0
H3637 H 0.12334 0.29606 0.30175 0.0
H3638 H 0.1394 0.28328 0.30532 0.0
H3639 H 0.11779 0.26047 0.32385 0.0
H3640 H 0.10164 0.2732 0.32054 0.0
H3641 H 0.05124 0.28871 0.27669 0.0
H3642 H 0.06871 0.29933 0.28255 0.0
H3643 H 0.07072 0.27961 0.31348 0.0
H3644 H 0.05357 0.26919 0.30785 0.0
H3645 H 0.09076 0.27996 0.30223 0.0
H3646 H 0.06215 0.30652 0.31379 0.0
H3647 H 0.04618 0.31943 0.31029 0.0
H3648 H 0.06632 0.33919 0.28733 0.0
H3649 H 0.08237 0.32629 0.29058 0.0
C3650 C 0.12447 0.30832 0.33577 0.0
C3651 C 0.13162 0.31708 0.33173 0.0
C3652 C 0.11492 0.30464 0.32941 0.0
C3653 C 0.11223 0.30959 0.31882 0.0
C3654 C 0.11908 0.31859 0.31489 0.0
C3655 C 0.12871 0.32228 0.32126 0.0
C3656 C 0.10242 0.30502 0.31186 0.0
C3657 C 0.09327 0.3121 0.30906 0.0
C3658 C 0.10162 0.29337 0.30899 0.0
C3659 C 0.11129 0.28563 0.31095 0.0
C3660 C 0.12203 0.28836 0.30665 0.0
C3661 C 0.13115 0.28112 0.30862 0.0
C3662 C 0.12962 0.27108 0.31482 0.0
C3663 C 0.11896 0.26825 0.31905 0.0
C3664 C 0.10982 0.27547 0.31711 0.0
C3665 C 0.05537 0.28675 0.28478 0.0
C3666 C 0.05102 0.27803 0.29174 0.0
C3667 C 0.06534 0.29281 0.28811 0.0
C3668 C 0.07108 0.2902 0.29844 0.0
C3669 C 0.06654 0.28171 0.30545 0.0
C3670 C 0.05666 0.27576 0.30218 0.0
C3671 C 0.08201 0.29584 0.30205 0.0
C3672 C 0.09143 0.28895 0.3042 0.0
C3673 C 0.08304 0.30763 0.30426 0.0
C3674 C 0.07339 0.31535 0.30231 0.0
C3675 C 0.06313 0.31355 0.30791 0.0
C3676 C 0.05407 0.32088 0.30599 0.0
C3677 C 0.05522 0.3301 0.29856 0.0
C3678 C 0.06544 0.33203 0.29306 0.0
C3679 C 0.07451 0.32471 0.29494 0.0
H3680 H 0.0482 0.33577 0.29709 0.0
H3681 H 0.13669 0.26548 0.31634 0.0
H3682 H 0.21009 0.60832 0.32309 0.0
H3683 H 0.21963 0.59184 0.31554 0.0
H3684 H 0.24992 0.61226 0.31084 0.0
H3685 H 0.24046 0.62877 0.31842 0.0
H3686 H 0.24618 0.59877 0.29292 0.0
H3687 H 0.2474 0.59338 0.33345 0.0
H3688 H 0.23936 0.5917 0.3525 0.0
H3689 H 0.21885 0.56306 0.34149 0.0
H3690 H 0.22666 0.56467 0.32232 0.0
H3691 H 0.2837 0.5538 0.28382 0.0
H3692 H 0.27468 0.56996 0.29256 0.0
H3693 H 0.24446 0.54952 0.29764 0.0
H3694 H 0.25352 0.53325 0.28912 0.0
H3695 H 0.24819 0.56303 0.31534 0.0
H3696 H 0.24696 0.56819 0.27491 0.0
H3697 H 0.25511 0.56955 0.25588 0.0
H3698 H 0.2754 0.59849 0.26646 0.0
H3699 H 0.26753 0.59718 0.28564 0.0
C3700 C 0.2188 0.60932 0.32052 0.0
C3701 C 0.22448 0.61994 0.32144 0.0
C3702 C 0.22426 0.59986 0.31618 0.0
C3703 C 0.23559 0.6007 0.31273 0.0
C3704 C 0.24119 0.61134 0.31341 0.0
C3705 C 0.23573 0.62081 0.31772 0.0
C3706 C 0.24163 0.59051 0.30855 0.0
C3707 C 0.24674 0.59102 0.2979 0.0
C3708 C 0.24219 0.58023 0.31488 0.0
C3709 C 0.23753 0.57922 0.32642 0.0
C3710 C 0.24112 0.58678 0.33507 0.0
C3711 C 0.23661 0.58583 0.34589 0.0
C3712 C 0.22858 0.5773 0.3482 0.0
C3713 C 0.22506 0.56967 0.33969 0.0
C3714 C 0.22953 0.57059 0.32884 0.0
C3715 C 0.2752 0.55266 0.28696 0.0
C3716 C 0.26935 0.54219 0.28569 0.0
C3717 C 0.27 0.56197 0.29189 0.0
C3718 C 0.25875 0.5611 0.29555 0.0
C3719 C 0.25311 0.55049 0.29484 0.0
C3720 C 0.25833 0.54115 0.28996 0.0
C3721 C 0.25275 0.57131 0.29973 0.0
C3722 C 0.24764 0.57079 0.31036 0.0
C3723 C 0.25215 0.58156 0.29336 0.0
C3724 C 0.25673 0.58251 0.28176 0.0
C3725 C 0.25321 0.5748 0.27321 0.0
C3726 C 0.25778 0.57556 0.26239 0.0
C3727 C 0.26579 0.58408 0.25997 0.0
C3728 C 0.26921 0.59188 0.26836 0.0
C3729 C 0.26469 0.59114 0.2792 0.0
H3730 H 0.26933 0.58465 0.2516 0.0
H3731 H 0.2251 0.57658 0.35659 0.0
H3732 H 0.91369 0.69029 0.30141 0.0
H3733 H 0.93052 0.69879 0.29291 0.0
H3734 H 0.92445 0.73033 0.30993 0.0
H3735 H 0.90734 0.722 0.31816 0.0
H3736 H 0.93026 0.7344 0.28855 0.0
H3737 H 0.94507 0.71175 0.31947 0.0
H3738 H 0.94781 0.69427 0.33077 0.0
H3739 H 0.96201 0.67799 0.30205 0.0
H3740 H 0.95921 0.69534 0.29053 0.0
H3741 H 0.98334 0.7619 0.2909 0.0
H3742 H 0.96609 0.75124 0.29494 0.0
H3743 H 0.97578 0.7248 0.27219 0.0
H3744 H 0.99335 0.73562 0.26797 0.0
H3745 H 0.96801 0.71683 0.29383 0.0
H3746 H 0.95527 0.74104 0.26374 0.0
H3747 H 0.95329 0.75919 0.2534 0.0
H3748 H 0.93557 0.7731 0.28131 0.0
H3749 H 0.93764 0.75512 0.29193 0.0
C3750 C 0.91584 0.69908 0.30328 0.0
C3751 C 0.90909 0.70544 0.3105 0.0
C3752 C 0.92557 0.7039 0.29848 0.0
C3753 C 0.92887 0.7152 0.30084 0.0
C3754 C 0.92212 0.7216 0.30797 0.0
C3755 C 0.91238 0.71678 0.31278 0.0
C3756 C 0.93936 0.72034 0.29592 0.0
C3757 C 0.93852 0.73058 0.28978 0.0
C3758 C 0.95013 0.71523 0.2972 0.0
C3759 C 0.9518 0.70479 0.3041 0.0
C3760 C 0.94868 0.70441 0.31554 0.0
C3761 C 0.95026 0.69453 0.32199 0.0
C3762 C 0.95504 0.68501 0.31712 0.0
C3763 C 0.95828 0.68536 0.3058 0.0
C3764 C 0.95671 0.69522 0.29931 0.0
C3765 C 0.98188 0.75382 0.28669 0.0
C3766 C 0.98979 0.74961 0.27911 0.0
C3767 C 0.97193 0.74775 0.289 0.0
C3768 C 0.96956 0.73726 0.28382 0.0
C3769 C 0.97742 0.73291 0.27626 0.0
C3770 C 0.98743 0.7391 0.27382 0.0
C3771 C 0.95891 0.73094 0.28665 0.0
C3772 C 0.95972 0.72052 0.29243 0.0
C3773 C 0.94812 0.73592 0.28511 0.0
C3774 C 0.94668 0.74673 0.27867 0.0
C3775 C 0.95102 0.74799 0.26772 0.0
C3776 C 0.94988 0.75826 0.2618 0.0
C3777 C 0.94433 0.7673 0.2667 0.0
C3778 C 0.93988 0.76609 0.27752 0.0
C3779 C 0.94102 0.75586 0.28349 0.0
H3780 H 0.94346 0.77524 0.26211 0.0
H3781 H 0.95627 0.67738 0.32213 0.0
H3782 H 0.8517 0.41019 0.30515 0.0
H3783 H 0.84414 0.42768 0.29706 0.0
H3784 H 0.81438 0.42378 0.3173 0.0
H3785 H 0.82171 0.40597 0.32515 0.0
H3786 H 0.80852 0.43038 0.29611 0.0
H3787 H 0.8357 0.44299 0.32453 0.0
H3788 H 0.85434 0.44405 0.33458 0.0
H3789 H 0.86977 0.45658 0.30426 0.0
H3790 H 0.85124 0.45544 0.29397 0.0
H3791 H 0.78974 0.4872 0.28832 0.0
H3792 H 0.79649 0.46934 0.29631 0.0
H3793 H 0.82619 0.47183 0.27584 0.0
H3794 H 0.81943 0.48967 0.26766 0.0
H3795 H 0.83175 0.46597 0.29744 0.0
H3796 H 0.80435 0.45344 0.26906 0.0
H3797 H 0.78561 0.45246 0.25918 0.0
H3798 H 0.77043 0.43991 0.28961 0.0
H3799 H 0.78905 0.44099 0.29974 0.0
C3800 C 0.84348 0.41295 0.30782 0.0
C3801 C 0.83733 0.40659 0.31583 0.0
C3802 C 0.83922 0.42306 0.30326 0.0
C3803 C 0.82874 0.42718 0.30665 0.0
C3804 C 0.8225 0.42082 0.31456 0.0
C3805 C 0.82677 0.41068 0.31913 0.0
C3806 C 0.82434 0.43811 0.30194 0.0
C3807 C 0.81354 0.43819 0.29655 0.0
C3808 C 0.83094 0.4483 0.30228 0.0
C3809 C 0.8421 0.44902 0.30845 0.0
C3810 C 0.84308 0.44588 0.31998 0.0
C3811 C 0.85362 0.44652 0.32572 0.0
C3812 C 0.86324 0.45035 0.32005 0.0
C3813 C 0.86232 0.45359 0.30863 0.0
C3814 C 0.8518 0.45297 0.30285 0.0
C3815 C 0.79764 0.48393 0.28537 0.0
C3816 C 0.80398 0.48995 0.27724 0.0
C3817 C 0.80151 0.47368 0.28999 0.0
C3818 C 0.8118 0.46914 0.2866 0.0
C3819 C 0.81822 0.47515 0.2786 0.0
C3820 C 0.81435 0.4854 0.27395 0.0
C3821 C 0.81597 0.45823 0.29155 0.0
C3822 C 0.82673 0.45816 0.297 0.0
C3823 C 0.8093 0.44808 0.29128 0.0
C3824 C 0.79808 0.44741 0.2852 0.0
C3825 C 0.797 0.45057 0.27368 0.0
C3826 C 0.7864 0.44997 0.26803 0.0
C3827 C 0.77683 0.44615 0.27377 0.0
C3828 C 0.77785 0.44288 0.28518 0.0
C3829 C 0.78842 0.44348 0.29088 0.0
H3830 H 0.76864 0.44568 0.26937 0.0
H3831 H 0.87139 0.45084 0.32451 0.0
H3832 H 0.21307 0.62533 0.68751 0.0
H3833 H 0.22357 0.60866 0.69397 0.0
H3834 H 0.22819 0.62349 0.72723 0.0
H3835 H 0.2177 0.64017 0.72084 0.0
H3836 H 0.24739 0.61441 0.72089 0.0
H3837 H 0.20842 0.60183 0.72169 0.0
H3838 H 0.18905 0.59829 0.71383 0.0
H3839 H 0.20218 0.57622 0.68866 0.0
H3840 H 0.22166 0.57975 0.69628 0.0
H3841 H 0.2638 0.56429 0.75126 0.0
H3842 H 0.25382 0.58113 0.74434 0.0
H3843 H 0.25093 0.56657 0.71083 0.0
H3844 H 0.26077 0.54966 0.71774 0.0
H3845 H 0.23101 0.57547 0.71698 0.0
H3846 H 0.27004 0.5872 0.71728 0.0
H3847 H 0.28933 0.59112 0.72511 0.0
H3848 H 0.27613 0.61539 0.74813 0.0
H3849 H 0.25671 0.61126 0.74081 0.0
C3850 C 0.21625 0.62503 0.69623 0.0
C3851 C 0.2145 0.63413 0.70365 0.0
C3852 C 0.22227 0.61547 0.69992 0.0
C3853 C 0.22658 0.61471 0.71115 0.0
C3854 C 0.22498 0.62385 0.71853 0.0
C3855 C 0.219 0.63342 0.71483 0.0
C3856 C 0.23282 0.60446 0.71523 0.0
C3857 C 0.24373 0.60591 0.7202 0.0
C3858 C 0.22821 0.5933 0.71406 0.0
C3859 C 0.21651 0.59115 0.70948 0.0
C3860 C 0.20718 0.59629 0.71442 0.0
C3861 C 0.19618 0.59428 0.71002 0.0
C3862 C 0.19439 0.58706 0.70074 0.0
C3863 C 0.20359 0.58182 0.69585 0.0
C3864 C 0.21461 0.58382 0.70021 0.0
C3865 C 0.26099 0.56464 0.74243 0.0
C3866 C 0.2631 0.55559 0.73506 0.0
C3867 C 0.25536 0.57433 0.73846 0.0
C3868 C 0.25167 0.57519 0.72703 0.0
C3869 C 0.2537 0.56614 0.71968 0.0
C3870 C 0.25941 0.55649 0.72362 0.0
C3871 C 0.24555 0.58543 0.72275 0.0
C3872 C 0.23467 0.58397 0.71772 0.0
C3873 C 0.25018 0.59658 0.72392 0.0
C3874 C 0.26186 0.59879 0.72859 0.0
C3875 C 0.27121 0.59322 0.72416 0.0
C3876 C 0.28218 0.59548 0.72851 0.0
C3877 C 0.28395 0.60344 0.73717 0.0
C3878 C 0.27475 0.60916 0.74148 0.0
C3879 C 0.26375 0.60682 0.73727 0.0
H3880 H 0.29246 0.60522 0.74049 0.0
H3881 H 0.18586 0.58551 0.69734 0.0
H3882 H 0.22221 0.39328 0.31871 0.0
H3883 H 0.23004 0.40962 0.3084 0.0
H3884 H 0.20365 0.43063 0.32096 0.0
H3885 H 0.1959 0.41445 0.33145 0.0
H3886 H 0.20572 0.43317 0.29823 0.0
H3887 H 0.23086 0.43323 0.3312 0.0
H3888 H 0.24453 0.42496 0.34501 0.0
H3889 H 0.26755 0.41876 0.31823 0.0
H3890 H 0.25394 0.42685 0.30422 0.0
H3891 H 0.22539 0.48806 0.2838 0.0
H3892 H 0.21934 0.47087 0.29366 0.0
H3893 H 0.24785 0.4531 0.28072 0.0
H3894 H 0.25401 0.4704 0.27077 0.0
H3895 H 0.24528 0.44803 0.30266 0.0
H3896 H 0.22071 0.44842 0.26975 0.0
H3897 H 0.20714 0.45647 0.2557 0.0
H3898 H 0.18313 0.46137 0.2819 0.0
H3899 H 0.19662 0.45349 0.29614 0.0
C3900 C 0.21818 0.40142 0.31947 0.0
C3901 C 0.20836 0.40248 0.32591 0.0
C3902 C 0.22266 0.41076 0.31351 0.0
C3903 C 0.21745 0.42139 0.31388 0.0
C3904 C 0.20778 0.42252 0.32046 0.0
C3905 C 0.20333 0.41322 0.32643 0.0
C3906 C 0.22178 0.43126 0.30715 0.0
C3907 C 0.21433 0.4365 0.2993 0.0
C3908 C 0.23313 0.43539 0.30824 0.0
C3909 C 0.24132 0.43053 0.31665 0.0
C3910 C 0.23879 0.43001 0.32824 0.0
C3911 C 0.24654 0.42538 0.33611 0.0
C3912 C 0.25689 0.42131 0.33249 0.0
C3913 C 0.25952 0.42189 0.32101 0.0
C3914 C 0.2518 0.42651 0.3131 0.0
C3915 C 0.23032 0.48049 0.28287 0.0
C3916 C 0.24015 0.48065 0.27634 0.0
C3917 C 0.22685 0.47063 0.28857 0.0
C3918 C 0.23302 0.46059 0.28783 0.0
C3919 C 0.24292 0.46071 0.28143 0.0
C3920 C 0.24644 0.47062 0.27573 0.0
C3921 C 0.22916 0.45006 0.29385 0.0
C3922 C 0.23668 0.44467 0.30154 0.0
C3923 C 0.21788 0.44573 0.29257 0.0
C3924 C 0.20972 0.45045 0.28403 0.0
C3925 C 0.21257 0.45129 0.27253 0.0
C3926 C 0.20488 0.45581 0.26453 0.0
C3927 C 0.19429 0.45945 0.26791 0.0
C3928 C 0.19134 0.45856 0.2793 0.0
C3929 C 0.199 0.45405 0.28733 0.0
H3930 H 0.18835 0.46295 0.26171 0.0
H3931 H 0.26288 0.41772 0.3386 0.0
H3932 H 0.12966 0.707 0.3366 0.0
H3933 H 0.11288 0.71804 0.33147 0.0
H3934 H 0.11883 0.71267 0.29597 0.0
H3935 H 0.13583 0.702 0.30101 0.0
H3936 H 0.11272 0.73384 0.29893 0.0
H3937 H 0.09809 0.69747 0.3104 0.0
H3938 H 0.09549 0.68096 0.32311 0.0
H3939 H 0.08173 0.70251 0.34837 0.0
H3940 H 0.0844 0.71918 0.33587 0.0
H3941 H 0.05821 0.74905 0.27693 0.0
H3942 H 0.0753 0.73877 0.28244 0.0
H3943 H 0.06911 0.74513 0.31773 0.0
H3944 H 0.05176 0.7551 0.31229 0.0
H3945 H 0.07541 0.72372 0.31506 0.0
H3946 H 0.08972 0.76016 0.30282 0.0
H3947 H 0.09193 0.77623 0.2895 0.0
H3948 H 0.10601 0.75405 0.26499 0.0
H3949 H 0.10374 0.7378 0.27811 0.0
C3950 C 0.1275 0.70826 0.32769 0.0
C3951 C 0.13414 0.7035 0.31924 0.0
C3952 C 0.11779 0.7145 0.32476 0.0
C3953 C 0.11441 0.71609 0.31331 0.0
C3954 C 0.12116 0.71155 0.30486 0.0
C3955 C 0.13086 0.70533 0.30778 0.0
C3956 C 0.10385 0.72241 0.31011 0.0
C3957 C 0.10455 0.73153 0.30237 0.0
C3958 C 0.09316 0.71959 0.3147 0.0
C3959 C 0.09156 0.70959 0.32225 0.0
C3960 C 0.0946 0.6987 0.3187 0.0
C3961 C 0.0931 0.68932 0.32586 0.0
C3962 C 0.08848 0.69069 0.33655 0.0
C3963 C 0.08533 0.70146 0.3401 0.0
C3964 C 0.08683 0.71088 0.33298 0.0
C3965 C 0.06037 0.7482 0.28587 0.0
C3966 C 0.0535 0.75297 0.29414 0.0
C3967 C 0.07027 0.7424 0.28902 0.0
C3968 C 0.07365 0.74127 0.30052 0.0
C3969 C 0.06676 0.7459 0.3088 0.0
C3970 C 0.05685 0.75171 0.30566 0.0
C3971 C 0.08428 0.73516 0.30391 0.0
C3972 C 0.08359 0.72607 0.31166 0.0
C3973 C 0.09496 0.73795 0.29927 0.0
C3974 C 0.09646 0.74774 0.29142 0.0
C3975 C 0.09322 0.75869 0.29456 0.0
C3976 C 0.09449 0.76784 0.28705 0.0
C3977 C 0.09908 0.76616 0.27639 0.0
C3978 C 0.10245 0.75533 0.27324 0.0
C3979 C 0.10117 0.74615 0.28072 0.0
H3980 H 0.10006 0.77324 0.27058 0.0
H3981 H 0.08732 0.68341 0.34208 0.0
H3982 H 0.80862 0.63642 0.31754 0.0
H3983 H 0.80002 0.61888 0.30984 0.0
H3984 H 0.82229 0.59914 0.33152 0.0
H3985 H 0.8311 0.61661 0.33905 0.0
H3986 H 0.82109 0.59061 0.31039 0.0
H3987 H 0.79434 0.60258 0.33777 0.0
H3988 H 0.78137 0.61589 0.34661 0.0
H3989 H 0.76141 0.61756 0.31557 0.0
H3990 H 0.77436 0.60438 0.30649 0.0
H3991 H 0.79481 0.5369 0.30525 0.0
H3992 H 0.80123 0.55493 0.31357 0.0
H3993 H 0.77866 0.57292 0.29065 0.0
H3994 H 0.77208 0.55485 0.28231 0.0
H3995 H 0.77962 0.58267 0.31181 0.0
H3996 H 0.80609 0.57077 0.28444 0.0
H3997 H 0.81894 0.55749 0.27539 0.0
H3998 H 0.83943 0.55594 0.3061 0.0
H3999 H 0.82659 0.56909 0.31539 0.0
C4000 C 0.81176 0.62834 0.3206 0.0
C4001 C 0.82055 0.62795 0.32895 0.0
C4002 C 0.80675 0.61831 0.31626 0.0
C4003 C 0.81039 0.60765 0.32019 0.0
C4004 C 0.81928 0.60724 0.32838 0.0
C4005 C 0.82426 0.61725 0.33275 0.0
C4006 C 0.80506 0.59691 0.3157 0.0
C4007 C 0.81204 0.58883 0.31085 0.0
C4008 C 0.7932 0.59467 0.31597 0.0
C4009 C 0.78539 0.60258 0.32141 0.0
C4010 C 0.78724 0.60586 0.3328 0.0
C4011 C 0.77988 0.61337 0.33786 0.0
C4012 C 0.77059 0.61759 0.33164 0.0
C4013 C 0.76862 0.6143 0.32037 0.0
C4014 C 0.77596 0.6068 0.31526 0.0
C4015 C 0.79105 0.54466 0.30208 0.0
C4016 C 0.78298 0.54439 0.29303 0.0
C4017 C 0.79478 0.55499 0.30682 0.0
C4018 C 0.79061 0.56533 0.30259 0.0
C4019 C 0.78205 0.56507 0.29403 0.0
C4020 C 0.77828 0.55471 0.28927 0.0
C4021 C 0.79569 0.57634 0.30666 0.0
C4022 C 0.78867 0.58447 0.31137 0.0
C4023 C 0.80752 0.57867 0.30623 0.0
C4024 C 0.81531 0.57083 0.30065 0.0
C4025 C 0.81328 0.56753 0.28929 0.0
C4026 C 0.82057 0.56003 0.28412 0.0
C4027 C 0.82998 0.55585 0.29018 0.0
C4028 C 0.83213 0.55918 0.30142 0.0
C4029 C 0.82485 0.56666 0.30664 0.0
H4030 H 0.83562 0.55005 0.28616 0.0
H4031 H 0.7649 0.6234 0.33558 0.0
H4032 H 0.9138 0.30566 0.3502 0.0
H4033 H 0.93075 0.29701 0.34294 0.0
H4034 H 0.92467 0.31315 0.31043 0.0
H4035 H 0.9074 0.32159 0.31756 0.0
H4036 H 0.93074 0.2914 0.30768 0.0
H4037 H 0.94546 0.32316 0.32888 0.0
H4038 H 0.94799 0.33569 0.34551 0.0
H4039 H 0.96149 0.30802 0.36521 0.0
H4040 H 0.9589 0.29528 0.34874 0.0
H4041 H 0.98525 0.27848 0.28707 0.0
H4042 H 0.96845 0.28823 0.29314 0.0
H4043 H 0.97326 0.27449 0.32691 0.0
H4044 H 0.99042 0.26516 0.32108 0.0
H4045 H 0.96788 0.29586 0.32827 0.0
H4046 H 0.95267 0.26396 0.30693 0.0
H4047 H 0.95025 0.25164 0.29013 0.0
H4048 H 0.9377 0.27976 0.27045 0.0
H4049 H 0.94021 0.29231 0.2871 0.0
C4050 C 0.91598 0.30732 0.34147 0.0
C4051 C 0.90916 0.31433 0.33447 0.0
C4052 C 0.92578 0.30244 0.33735 0.0
C4053 C 0.92911 0.3045 0.32615 0.0
C4054 C 0.92232 0.31144 0.31911 0.0
C4055 C 0.91249 0.31635 0.32323 0.0
C4056 C 0.93965 0.29934 0.32185 0.0
C4057 C 0.93889 0.29252 0.31209 0.0
C4058 C 0.95029 0.30059 0.32768 0.0
C4059 C 0.95189 0.30824 0.3376 0.0
C4060 C 0.94889 0.31973 0.33678 0.0
C4061 C 0.95035 0.32687 0.34618 0.0
C4062 C 0.95487 0.32265 0.35642 0.0
C4063 C 0.95797 0.31128 0.35728 0.0
C4064 C 0.95653 0.30409 0.34791 0.0
C4065 C 0.98287 0.27758 0.29583 0.0
C4066 C 0.98933 0.27095 0.30355 0.0
C4067 C 0.97311 0.28309 0.29926 0.0
C4068 C 0.96942 0.28199 0.31046 0.0
C4069 C 0.97586 0.27546 0.31821 0.0
C4070 C 0.98567 0.27002 0.31481 0.0
C4071 C 0.95896 0.28777 0.31419 0.0
C4072 C 0.95973 0.29474 0.32384 0.0
C4073 C 0.94835 0.28666 0.30823 0.0
C4074 C 0.94674 0.2791 0.29824 0.0
C4075 C 0.94947 0.26754 0.299 0.0
C4076 C 0.94807 0.26051 0.28951 0.0
C4077 C 0.94386 0.26493 0.27922 0.0
C4078 C 0.94099 0.27637 0.27842 0.0
C4079 C 0.94239 0.28343 0.28788 0.0
H4080 H 0.94279 0.25948 0.27188 0.0
H4081 H 0.95599 0.32819 0.36368 0.0
H4082 H 0.83972 0.42941 0.71016 0.0
H4083 H 0.83002 0.44588 0.71733 0.0
H4084 H 0.79813 0.42733 0.71556 0.0
H4085 H 0.80786 0.41062 0.70852 0.0
H4086 H 0.79608 0.45033 0.70853 0.0
H4087 H 0.8109 0.42967 0.74047 0.0
H4088 H 0.82543 0.41955 0.75187 0.0
H4089 H 0.84617 0.44991 0.75363 0.0
H4090 H 0.83184 0.46018 0.74209 0.0
H4091 H 0.7721 0.49214 0.74683 0.0
H4092 H 0.77724 0.47488 0.73651 0.0
H4093 H 0.81239 0.48589 0.73775 0.0
H4094 H 0.80736 0.50283 0.74806 0.0
H4095 H 0.8104 0.46498 0.74578 0.0
H4096 H 0.79602 0.48531 0.71277 0.0
H4097 H 0.7815 0.49535 0.70127 0.0
H4098 H 0.75972 0.46568 0.70175 0.0
H4099 H 0.77406 0.45551 0.71339 0.0
C4100 C 0.83065 0.42876 0.71131 0.0
C4101 C 0.82464 0.41855 0.70891 0.0
C4102 C 0.82509 0.43825 0.71537 0.0
C4103 C 0.81335 0.43784 0.71716 0.0
C4104 C 0.80719 0.42787 0.71427 0.0
C4105 C 0.81278 0.41831 0.71022 0.0
C4106 C 0.8078 0.44765 0.72262 0.0
C4107 C 0.79908 0.45344 0.71676 0.0
C4108 C 0.81172 0.45179 0.73333 0.0
C4109 C 0.82033 0.44567 0.74034 0.0
C4110 C 0.8186 0.43417 0.74322 0.0
C4111 C 0.82679 0.42841 0.74972 0.0
C4112 C 0.83673 0.43408 0.75345 0.0
C4113 C 0.83848 0.44553 0.75072 0.0
C4114 C 0.83031 0.45133 0.74421 0.0
C4115 C 0.78086 0.49099 0.74461 0.0
C4116 C 0.78932 0.49884 0.74829 0.0
C4117 C 0.78381 0.4811 0.73875 0.0
C4118 C 0.79525 0.47898 0.73641 0.0
C4119 C 0.80354 0.48719 0.73954 0.0
C4120 C 0.80063 0.49694 0.7454 0.0
C4121 C 0.79895 0.46798 0.73153 0.0
C4122 C 0.80731 0.46187 0.73758 0.0
C4123 C 0.79466 0.46359 0.72103 0.0
C4124 C 0.78605 0.4697 0.71406 0.0
C4125 C 0.78809 0.48096 0.71051 0.0
C4126 C 0.7799 0.48667 0.70395 0.0
C4127 C 0.76968 0.48117 0.70082 0.0
C4128 C 0.76763 0.46994 0.70421 0.0
C4129 C 0.77579 0.4642 0.71078 0.0
H4130 H 0.76335 0.4856 0.69573 0.0
H4131 H 0.84306 0.4296 0.75848 0.0
H4132 H 0.13458 0.30639 0.71295 0.0
H4133 H 0.11715 0.29852 0.7209 0.0
H4134 H 0.10341 0.33214 0.72231 0.0
H4135 H 0.12079 0.34007 0.7143 0.0
H4136 H 0.09954 0.32083 0.7415 0.0
H4137 H 0.09484 0.31261 0.70156 0.0
H4138 H 0.10031 0.3046 0.68324 0.0
H4139 H 0.10059 0.27116 0.69797 0.0
H4140 H 0.09526 0.279 0.71642 0.0
H4141 H 0.0423 0.31028 0.74965 0.0
H4142 H 0.05973 0.31505 0.73992 0.0
H4143 H 0.07026 0.28028 0.74296 0.0
H4144 H 0.05257 0.27537 0.75271 0.0
H4145 H 0.07645 0.29056 0.72217 0.0
H4146 H 0.08039 0.2985 0.76181 0.0
H4147 H 0.07475 0.30635 0.78013 0.0
H4148 H 0.07615 0.34009 0.76613 0.0
H4149 H 0.08161 0.33242 0.74766 0.0
C4150 C 0.12782 0.31212 0.71485 0.0
C4151 C 0.12912 0.32389 0.71291 0.0
C4152 C 0.11783 0.30759 0.71941 0.0
C4153 C 0.10886 0.31469 0.72209 0.0
C4154 C 0.11019 0.32646 0.72032 0.0
C4155 C 0.12018 0.331 0.71578 0.0
C4156 C 0.09814 0.30994 0.72688 0.0
C4157 C 0.09445 0.3143 0.73719 0.0
C4158 C 0.09162 0.30113 0.72149 0.0
C4159 C 0.09477 0.29641 0.7104 0.0
C4160 C 0.09615 0.30356 0.70091 0.0
C4161 C 0.09921 0.29905 0.6905 0.0
C4162 C 0.10083 0.28738 0.68945 0.0
C4163 C 0.09935 0.2802 0.6988 0.0
C4164 C 0.09631 0.28467 0.70923 0.0
C4165 C 0.0482 0.30357 0.74807 0.0
C4166 C 0.04608 0.29246 0.75204 0.0
C4167 C 0.0582 0.30633 0.74253 0.0
C4168 C 0.06645 0.2981 0.74092 0.0
C4169 C 0.06405 0.28679 0.74416 0.0
C4170 C 0.05392 0.28398 0.74969 0.0
C4171 C 0.07779 0.30163 0.73664 0.0
C4172 C 0.0816 0.29704 0.72649 0.0
C4173 C 0.08447 0.3102 0.74218 0.0
C4174 C 0.08133 0.31487 0.75332 0.0
C4175 C 0.07942 0.30759 0.76261 0.0
C4176 C 0.07626 0.312 0.77303 0.0
C4177 C 0.07507 0.32371 0.77429 0.0
C4178 C 0.07706 0.33102 0.76514 0.0
C4179 C 0.0802 0.32664 0.7547 0.0
H4180 H 0.07262 0.32711 0.78236 0.0
H4181 H 0.10319 0.2839 0.68139 0.0
H4182 H 0.90922 0.71907 0.7121 0.0
H4183 H 0.9263 0.72702 0.72147 0.0
H4184 H 0.93282 0.74764 0.69191 0.0
H4185 H 0.91598 0.73936 0.68226 0.0
H4186 H 0.95216 0.73932 0.69996 0.0
H4187 H 0.92178 0.75916 0.71606 0.0
H4188 H 0.90347 0.76154 0.7253 0.0
H4189 H 0.91589 0.74325 0.7546 0.0
H4190 H 0.93423 0.7406 0.74547 0.0
H4191 H 0.99508 0.77091 0.7337 0.0
H4192 H 0.9782 0.76663 0.72144 0.0
H4193 H 0.9672 0.74126 0.74549 0.0
H4194 H 0.98376 0.74537 0.75756 0.0
H4195 H 0.9499 0.75504 0.7388 0.0
H4196 H 0.97965 0.73372 0.72134 0.0
H4197 H 0.99794 0.73178 0.71193 0.0
H4198 H 0.98657 0.75392 0.68501 0.0
H4199 H 0.96825 0.75611 0.69435 0.0
C4200 C 0.91433 0.7252 0.7075 0.0
C4201 C 0.91111 0.72858 0.6964 0.0
C4202 C 0.92406 0.72985 0.71295 0.0
C4203 C 0.9308 0.73811 0.7075 0.0
C4204 C 0.92775 0.74136 0.69635 0.0
C4205 C 0.91803 0.73668 0.69088 0.0
C4206 C 0.94098 0.74331 0.71349 0.0
C4207 C 0.95162 0.74294 0.70837 0.0
C4208 C 0.94037 0.74803 0.72449 0.0
C4209 C 0.92935 0.74961 0.73003 0.0
C4210 C 0.92058 0.75557 0.72444 0.0
C4211 C 0.9102 0.75698 0.72967 0.0
C4212 C 0.90851 0.75253 0.74052 0.0
C4213 C 0.91721 0.74668 0.74619 0.0
C4214 C 0.9276 0.74523 0.74099 0.0
C4215 C 0.98905 0.76443 0.73633 0.0
C4216 C 0.99084 0.75848 0.74661 0.0
C4217 C 0.97943 0.76197 0.72932 0.0
C4218 C 0.97141 0.7536 0.73254 0.0
C4219 C 0.9732 0.74777 0.74282 0.0
C4220 C 0.98276 0.75012 0.74971 0.0
C4221 C 0.96108 0.75073 0.72541 0.0
C4222 C 0.9504 0.75156 0.73032 0.0
C4223 C 0.96166 0.74652 0.71421 0.0
C4224 C 0.97265 0.74519 0.70861 0.0
C4225 C 0.98109 0.73825 0.71347 0.0
C4226 C 0.99146 0.73709 0.70814 0.0
C4227 C 0.99344 0.74275 0.6979 0.0
C4228 C 0.98504 0.74956 0.69295 0.0
C4229 C 0.97467 0.75076 0.69826 0.0
H4230 H 1.00146 0.74184 0.69379 0.0
H4231 H 0.90047 0.75363 0.74456 0.0
H4232 H 0.73887 0.21336 0.62001 0.0
H4233 H 0.744 0.22449 0.60338 0.0
H4234 H 0.70915 0.2344 0.59841 0.0
H4235 H 0.70384 0.22287 0.61493 0.0
H4236 H 0.71773 0.22868 0.5786 0.0
H4237 H 0.72953 0.25361 0.6083 0.0
H4238 H 0.73886 0.25975 0.62631 0.0
H4239 H 0.77136 0.25116 0.61357 0.0
H4240 H 0.7622 0.24476 0.59556 0.0
H4241 H 0.7413 0.26324 0.53281 0.0
H4242 H 0.73098 0.25886 0.55035 0.0
H4243 H 0.76019 0.24123 0.56385 0.0
H4244 H 0.77032 0.24543 0.54665 0.0
H4245 H 0.75107 0.25508 0.5797 0.0
H4246 H 0.73816 0.22678 0.55166 0.0
H4247 H 0.72873 0.22089 0.5336 0.0
H4248 H 0.69801 0.23673 0.54339 0.0
H4249 H 0.70731 0.24283 0.56146 0.0
C4250 C 0.73225 0.21784 0.61537 0.0
C4251 C 0.72092 0.21714 0.61883 0.0
C4252 C 0.73523 0.22434 0.60591 0.0
C4253 C 0.72701 0.23046 0.59969 0.0
C4254 C 0.71567 0.22982 0.6031 0.0
C4255 C 0.71267 0.22329 0.6126 0.0
C4256 C 0.73031 0.2371 0.58941 0.0
C4257 C 0.72486 0.23466 0.5789 0.0
C4258 C 0.73961 0.24493 0.58971 0.0
C4259 C 0.74516 0.24866 0.60058 0.0
C4260 C 0.73866 0.25294 0.60937 0.0
C4261 C 0.74392 0.25648 0.61957 0.0
C4262 C 0.7557 0.25584 0.62108 0.0
C4263 C 0.76224 0.25165 0.61239 0.0
C4264 C 0.75702 0.24808 0.60217 0.0
C4265 C 0.74549 0.25851 0.53958 0.0
C4266 C 0.75657 0.25459 0.53828 0.0
C4267 C 0.73959 0.25598 0.54957 0.0
C4268 C 0.74481 0.24967 0.55842 0.0
C4269 C 0.75598 0.24611 0.55719 0.0
C4270 C 0.76174 0.24847 0.54727 0.0
C4271 C 0.7388 0.24627 0.56891 0.0
C4272 C 0.74376 0.24933 0.57947 0.0
C4273 C 0.72903 0.23907 0.56866 0.0
C4274 C 0.72347 0.23539 0.55782 0.0
C4275 C 0.72942 0.22909 0.54991 0.0
C4276 C 0.7241 0.22569 0.53969 0.0
C4277 C 0.71279 0.22847 0.53733 0.0
C4278 C 0.70677 0.23461 0.54521 0.0
C4279 C 0.71207 0.23804 0.55545 0.0
H4280 H 0.70868 0.22583 0.52941 0.0
H4281 H 0.75975 0.25859 0.62898 0.0
H4282 H 0.3336 0.22919 0.6364 0.0
H4283 H 0.32417 0.23816 0.62001 0.0
H4284 H 0.31016 0.20566 0.60949 0.0
H4285 H 0.31989 0.19656 0.62565 0.0
H4286 H 0.31697 0.21739 0.59138 0.0
H4287 H 0.29382 0.225 0.62295 0.0
H4288 H 0.2896 0.23153 0.64221 0.0
H4289 H 0.30104 0.26527 0.63364 0.0
H4290 H 0.30548 0.2589 0.61437 0.0
H4291 H 0.27966 0.24559 0.55053 0.0
H4292 H 0.28592 0.23348 0.56662 0.0
H4293 H 0.3035 0.26227 0.58192 0.0
H4294 H 0.29731 0.27423 0.56618 0.0
H4295 H 0.29253 0.25046 0.59764 0.0
H4296 H 0.31746 0.24219 0.56676 0.0
H4297 H 0.32173 0.2356 0.54753 0.0
H4298 H 0.30661 0.20299 0.55485 0.0
H4299 H 0.30212 0.20945 0.57409 0.0
C4300 C 0.32865 0.2239 0.63054 0.0
C4301 C 0.32747 0.21213 0.63245 0.0
C4302 C 0.32314 0.22907 0.6212 0.0
C4303 C 0.31625 0.22264 0.61358 0.0
C4304 C 0.31533 0.21084 0.61527 0.0
C4305 C 0.32084 0.20566 0.6246 0.0
C4306 C 0.30993 0.22824 0.60394 0.0
C4307 C 0.31148 0.2245 0.59278 0.0
C4308 C 0.30278 0.23757 0.60568 0.0
C4309 C 0.30007 0.24145 0.61725 0.0
C4310 C 0.29551 0.23379 0.6252 0.0
C4311 C 0.29307 0.23747 0.63611 0.0
C4312 C 0.29507 0.2488 0.63915 0.0
C4313 C 0.2995 0.25649 0.63128 0.0
C4314 C 0.30197 0.25286 0.62035 0.0
C4315 C 0.28475 0.24931 0.5574 0.0
C4316 C 0.28803 0.26086 0.55701 0.0
C4317 C 0.28839 0.24239 0.56656 0.0
C4318 C 0.29529 0.24694 0.57548 0.0
C4319 C 0.2982 0.25853 0.5752 0.0
C4320 C 0.29468 0.26536 0.56611 0.0
C4321 C 0.29982 0.23982 0.58507 0.0
C4322 C 0.29791 0.24325 0.59626 0.0
C4323 C 0.30661 0.23022 0.58334 0.0
C4324 C 0.30933 0.22634 0.5718 0.0
C4325 C 0.31496 0.23365 0.56423 0.0
C4326 C 0.31744 0.22993 0.55334 0.0
C4327 C 0.31441 0.2189 0.54996 0.0
C4328 C 0.30893 0.21155 0.55748 0.0
C4329 C 0.30642 0.21522 0.56837 0.0
H4330 H 0.31634 0.21604 0.54152 0.0
H4331 H 0.29317 0.25163 0.64761 0.0
H4332 H 0.33799 0.83895 0.6238 0.0
H4333 H 0.33327 0.82773 0.60683 0.0
H4334 H 0.30135 0.81747 0.62112 0.0
H4335 H 0.30615 0.82841 0.63825 0.0
H4336 H 0.31092 0.79977 0.61123 0.0
H4337 H 0.30283 0.8382 0.60048 0.0
H4338 H 0.30699 0.85864 0.59791 0.0
H4339 H 0.33379 0.85094 0.57541 0.0
H4340 H 0.3299 0.83043 0.57797 0.0
H4341 H 0.28319 0.78021 0.55967 0.0
H4342 H 0.28843 0.79038 0.57723 0.0
H4343 H 0.32075 0.79985 0.56336 0.0
H4344 H 0.31552 0.78985 0.54577 0.0
H4345 H 0.31107 0.81783 0.57309 0.0
H4346 H 0.31851 0.77935 0.58312 0.0
H4347 H 0.31476 0.75892 0.58613 0.0
H4348 H 0.28949 0.76654 0.61035 0.0
H4349 H 0.29284 0.78705 0.60724 0.0
C4350 C 0.33001 0.83421 0.62341 0.0
C4351 C 0.32244 0.83467 0.63243 0.0
C4352 C 0.32727 0.82787 0.61362 0.0
C4353 C 0.31686 0.82184 0.61257 0.0
C4354 C 0.3094 0.82207 0.62166 0.0
C4355 C 0.31213 0.82843 0.63143 0.0
C4356 C 0.31372 0.81536 0.60201 0.0
C4357 C 0.31079 0.80376 0.6029 0.0
C4358 C 0.3138 0.82045 0.59108 0.0
C4359 C 0.31615 0.83278 0.58951 0.0
C4360 C 0.30967 0.84086 0.59506 0.0
C4361 C 0.31197 0.85246 0.59359 0.0
C4362 C 0.32067 0.85609 0.58653 0.0
C4363 C 0.32707 0.84812 0.58089 0.0
C4364 C 0.32482 0.83651 0.58234 0.0
C4365 C 0.2914 0.78448 0.56034 0.0
C4366 C 0.29893 0.78419 0.55127 0.0
C4367 C 0.29443 0.79022 0.57044 0.0
C4368 C 0.30503 0.79584 0.57169 0.0
C4369 C 0.31254 0.79558 0.56264 0.0
C4370 C 0.30956 0.78977 0.55259 0.0
C4371 C 0.30823 0.80223 0.5823 0.0
C4372 C 0.31117 0.81382 0.58141 0.0
C4373 C 0.30813 0.79712 0.59323 0.0
C4374 C 0.30582 0.78477 0.59483 0.0
C4375 C 0.31202 0.77669 0.58895 0.0
C4376 C 0.30999 0.76509 0.5907 0.0
C4377 C 0.30189 0.76144 0.59842 0.0
C4378 C 0.29578 0.76939 0.60439 0.0
C4379 C 0.2977 0.781 0.6026 0.0
H4380 H 0.30036 0.75245 0.59978 0.0
H4381 H 0.32243 0.86507 0.5854 0.0
H4382 H 0.71595 0.84762 0.61728 0.0
H4383 H 0.72488 0.83979 0.6007 0.0
H4384 H 0.7222 0.80615 0.61517 0.0
H4385 H 0.71358 0.81402 0.63205 0.0
H4386 H 0.74268 0.80946 0.60653 0.0
H4387 H 0.70466 0.81452 0.59283 0.0
H4388 H 0.68684 0.8247 0.58906 0.0
H4389 H 0.70454 0.84899 0.56838 0.0
H4390 H 0.72251 0.83904 0.57216 0.0
H4391 H 0.75819 0.78308 0.55454 0.0
H4392 H 0.74814 0.78878 0.57144 0.0
H4393 H 0.74971 0.82371 0.56029 0.0
H4394 H 0.75948 0.81804 0.54328 0.0
H4395 H 0.72892 0.81831 0.56733 0.0
H4396 H 0.76716 0.81373 0.58223 0.0
H4397 H 0.78494 0.80363 0.58646 0.0
H4398 H 0.76648 0.77801 0.6048 0.0
H4399 H 0.74857 0.78794 0.60063 0.0
C4400 C 0.7173 0.83855 0.617 0.0
C4401 C 0.71406 0.83147 0.62607 0.0
C4402 C 0.72231 0.83406 0.60742 0.0
C4403 C 0.72413 0.82234 0.60657 0.0
C4404 C 0.72087 0.81522 0.61558 0.0
C4405 C 0.71584 0.81972 0.62519 0.0
C4406 C 0.72968 0.81764 0.59639 0.0
C4407 C 0.73954 0.81123 0.59796 0.0
C4408 C 0.72575 0.82008 0.58517 0.0
C4409 C 0.71495 0.82609 0.58286 0.0
C4410 C 0.70477 0.82208 0.58755 0.0
C4411 C 0.69464 0.8278 0.5854 0.0
C4412 C 0.69456 0.8375 0.57851 0.0
C4413 C 0.70461 0.84148 0.57373 0.0
C4414 C 0.71477 0.8358 0.57586 0.0
C4415 C 0.75634 0.79196 0.55564 0.0
C4416 C 0.75966 0.80009 0.5475 0.0
C4417 C 0.75068 0.79523 0.56539 0.0
C4418 C 0.74822 0.8067 0.56723 0.0
C4419 C 0.75151 0.81481 0.5591 0.0
C4420 C 0.7572 0.81156 0.5494 0.0
C4421 C 0.74202 0.81029 0.57747 0.0
C4422 C 0.73201 0.81648 0.5759 0.0
C4423 C 0.74579 0.80759 0.58868 0.0
C4424 C 0.75652 0.80152 0.59102 0.0
C4425 C 0.76688 0.80589 0.58708 0.0
C4426 C 0.77699 0.80021 0.5895 0.0
C4427 C 0.77684 0.79018 0.59589 0.0
C4428 C 0.76658 0.78579 0.59986 0.0
C4429 C 0.75646 0.79144 0.59748 0.0
H4430 H 0.78468 0.78582 0.59779 0.0
H4431 H 0.68671 0.84191 0.57685 0.0
H4432 H 0.70054 0.80538 0.40152 0.0
H4433 H 0.70792 0.79527 0.41839 0.0
H4434 H 0.72024 0.82703 0.43255 0.0
H4435 H 0.71285 0.83714 0.4159 0.0
H4436 H 0.73646 0.81148 0.43353 0.0
H4437 H 0.69668 0.81274 0.44264 0.0
H4438 H 0.6762 0.80895 0.43927 0.0
H4439 H 0.68216 0.77311 0.43828 0.0
H4440 H 0.70271 0.77671 0.44149 0.0
H4441 H 0.74886 0.80418 0.49031 0.0
H4442 H 0.73776 0.80879 0.47322 0.0
H4443 H 0.73443 0.77321 0.46508 0.0
H4444 H 0.74567 0.76846 0.48244 0.0
H4445 H 0.71403 0.78727 0.45963 0.0
H4446 H 0.75364 0.78594 0.45218 0.0
H4447 H 0.77401 0.78982 0.45609 0.0
H4448 H 0.76836 0.82569 0.4538 0.0
H4449 H 0.74791 0.82202 0.45007 0.0
C4450 C 0.70467 0.81023 0.40831 0.0
C4451 C 0.70619 0.82209 0.40726 0.0
C4452 C 0.70891 0.80442 0.41795 0.0
C4453 C 0.71468 0.81036 0.42677 0.0
C4454 C 0.71593 0.82221 0.42584 0.0
C4455 C 0.71172 0.82799 0.41626 0.0
C4456 C 0.71989 0.80437 0.4368 0.0
C4457 C 0.73151 0.80623 0.43923 0.0
C4458 C 0.71358 0.79716 0.44409 0.0
C4459 C 0.70124 0.795 0.44217 0.0
C4460 C 0.69364 0.80406 0.4416 0.0
C4461 C 0.68201 0.80195 0.43974 0.0
C4462 C 0.67789 0.7908 0.43852 0.0
C4463 C 0.68537 0.78174 0.4392 0.0
C4464 C 0.697 0.78381 0.44105 0.0
C4465 C 0.7456 0.79727 0.48503 0.0
C4466 C 0.74825 0.78595 0.48768 0.0
C4467 C 0.73924 0.79994 0.47524 0.0
C4468 C 0.73541 0.79138 0.46776 0.0
C4469 C 0.73732 0.77996 0.47073 0.0
C4470 C 0.74372 0.77725 0.48065 0.0
C4471 C 0.73048 0.7947 0.45645 0.0
C4472 C 0.71898 0.79235 0.45379 0.0
C4473 C 0.73689 0.80145 0.44887 0.0
C4474 C 0.74922 0.8037 0.45092 0.0
C4475 C 0.75673 0.79466 0.45258 0.0
C4476 C 0.76829 0.79682 0.45476 0.0
C4477 C 0.77248 0.80799 0.45521 0.0
C4478 C 0.76511 0.81703 0.45345 0.0
C4479 C 0.75353 0.81492 0.45129 0.0
H4480 H 0.78144 0.80965 0.4569 0.0
H4481 H 0.66888 0.78918 0.43709 0.0
H4482 H 0.69899 0.19822 0.41027 0.0
H4483 H 0.71008 0.20526 0.42671 0.0
H4484 H 0.73511 0.21952 0.40445 0.0
H4485 H 0.72403 0.21252 0.38795 0.0
H4486 H 0.74549 0.21004 0.42222 0.0
H4487 H 0.71519 0.23625 0.41708 0.0
H4488 H 0.69527 0.24213 0.41481 0.0
H4489 H 0.68794 0.22806 0.44758 0.0
H4490 H 0.70779 0.22196 0.44998 0.0
H4491 H 0.7558 0.25475 0.47065 0.0
H4492 H 0.7453 0.24785 0.45381 0.0
H4493 H 0.75449 0.21352 0.46227 0.0
H4494 H 0.76491 0.2203 0.47919 0.0
H4495 H 0.72734 0.23401 0.4508 0.0
H4496 H 0.75759 0.19843 0.43785 0.0
H4497 H 0.778 0.19411 0.43917 0.0
H4498 H 0.78632 0.22974 0.44092 0.0
H4499 H 0.76598 0.23427 0.43945 0.0
C4500 C 0.70682 0.20291 0.40883 0.0
C4501 C 0.71053 0.20484 0.3977 0.0
C4502 C 0.71318 0.20694 0.41828 0.0
C4503 C 0.72339 0.2131 0.41689 0.0
C4504 C 0.72727 0.2148 0.40581 0.0
C4505 C 0.72093 0.21075 0.39635 0.0
C4506 C 0.72995 0.21786 0.42694 0.0
C4507 C 0.74149 0.21525 0.42847 0.0
C4508 C 0.72487 0.22486 0.43506 0.0
C4509 C 0.71295 0.22856 0.43366 0.0
C4510 C 0.70931 0.23434 0.42377 0.0
C4511 C 0.69803 0.23772 0.42246 0.0
C4512 C 0.69034 0.23545 0.43103 0.0
C4513 C 0.69391 0.22981 0.44094 0.0
C4514 C 0.70517 0.22639 0.44228 0.0
C4515 C 0.75555 0.24571 0.46904 0.0
C4516 C 0.76131 0.23813 0.47639 0.0
C4517 C 0.74953 0.24177 0.45933 0.0
C4518 C 0.74915 0.23016 0.45664 0.0
C4519 C 0.75479 0.22254 0.464 0.0
C4520 C 0.7608 0.22647 0.47371 0.0
C4521 C 0.74282 0.22601 0.44619 0.0
C4522 C 0.73133 0.22875 0.44458 0.0
C4523 C 0.74799 0.2193 0.4379 0.0
C4524 C 0.76025 0.21667 0.43866 0.0
C4525 C 0.76378 0.20534 0.43847 0.0
C4526 C 0.77533 0.20286 0.43925 0.0
C4527 C 0.78345 0.21165 0.44017 0.0
C4528 C 0.78003 0.22294 0.44026 0.0
C4529 C 0.76848 0.22547 0.43947 0.0
H4530 H 0.79239 0.20971 0.44078 0.0
H4531 H 0.68161 0.23807 0.43001 0.0
H4532 H 0.32174 0.20844 0.42008 0.0
H4533 H 0.31447 0.21834 0.43653 0.0
H4534 H 0.34083 0.24402 0.43355 0.0
H4535 H 0.34811 0.23423 0.41715 0.0
H4536 H 0.33931 0.23762 0.45495 0.0
H4537 H 0.31284 0.2488 0.42546 0.0
H4538 H 0.29866 0.24604 0.40985 0.0
H4539 H 0.27669 0.22789 0.43242 0.0
H4540 H 0.29082 0.23039 0.44812 0.0
H4541 H 0.31766 0.2788 0.49219 0.0
H4542 H 0.32407 0.2689 0.47545 0.0
H4543 H 0.2983 0.24291 0.48004 0.0
H4544 H 0.29193 0.25263 0.49685 0.0
H4545 H 0.29928 0.24926 0.45796 0.0
H4546 H 0.32583 0.23799 0.48738 0.0
H4547 H 0.33991 0.24097 0.50303 0.0
H4548 H 0.36166 0.25948 0.48055 0.0
H4549 H 0.34763 0.25674 0.46479 0.0
C4550 C 0.32592 0.21626 0.42285 0.0
C4551 C 0.33556 0.22048 0.4173 0.0
C4552 C 0.32175 0.22192 0.43228 0.0
C4553 C 0.32705 0.23199 0.43628 0.0
C4554 C 0.33662 0.23625 0.43069 0.0
C4555 C 0.34079 0.2306 0.42132 0.0
C4556 C 0.32288 0.23798 0.44646 0.0
C4557 C 0.33059 0.24028 0.45552 0.0
C4558 C 0.31143 0.24124 0.44739 0.0
C4559 C 0.30295 0.23966 0.43793 0.0
C4560 C 0.30503 0.24412 0.42707 0.0
C4561 C 0.29699 0.24262 0.41821 0.0
C4562 C 0.2868 0.23676 0.42013 0.0
C4563 C 0.28461 0.23241 0.43093 0.0
C4564 C 0.29262 0.23387 0.43981 0.0
C4565 C 0.3134 0.27093 0.48974 0.0
C4566 C 0.30426 0.26656 0.49598 0.0
C4567 C 0.31707 0.26528 0.48012 0.0
C4568 C 0.31173 0.25509 0.4765 0.0
C4569 C 0.30254 0.25077 0.48262 0.0
C4570 C 0.29888 0.25639 0.49225 0.0
C4571 C 0.31574 0.24892 0.46639 0.0
C4572 C 0.308 0.24657 0.45736 0.0
C4573 C 0.32717 0.24562 0.46548 0.0
C4574 C 0.33563 0.24725 0.47493 0.0
C4575 C 0.33357 0.24277 0.48579 0.0
C4576 C 0.34155 0.24441 0.49468 0.0
C4577 C 0.35166 0.25044 0.4928 0.0
C4578 C 0.35382 0.25483 0.482 0.0
C4579 C 0.34586 0.25323 0.47309 0.0
H4580 H 0.35782 0.2517 0.49969 0.0
H4581 H 0.28058 0.23562 0.41326 0.0
H4582 H 0.31106 0.81989 0.40267 0.0
H4583 H 0.3023 0.81132 0.41931 0.0
H4584 H 0.30933 0.84199 0.43832 0.0
H4585 H 0.31845 0.85047 0.42183 0.0
H4586 H 0.314 0.82408 0.45116 0.0
H4587 H 0.28235 0.83531 0.42793 0.0
H4588 H 0.27035 0.83672 0.4105 0.0
H4589 H 0.26552 0.80048 0.41023 0.0
H4590 H 0.27763 0.79883 0.42758 0.0
H4591 H 0.28042 0.80426 0.49721 0.0
H4592 H 0.28555 0.81647 0.48099 0.0
H4593 H 0.28417 0.78725 0.45903 0.0
H4594 H 0.27928 0.77513 0.47515 0.0
H4595 H 0.27542 0.80647 0.44836 0.0
H4596 H 0.30878 0.79543 0.4704 0.0
H4597 H 0.32069 0.79407 0.4879 0.0
H4598 H 0.32199 0.83044 0.49042 0.0
H4599 H 0.30993 0.832 0.47301 0.0
C4600 C 0.31086 0.82479 0.41041 0.0
C4601 C 0.31545 0.83591 0.41084 0.0
C4602 C 0.30571 0.81992 0.41991 0.0
C4603 C 0.30496 0.82606 0.43006 0.0
C4604 C 0.30972 0.83708 0.43059 0.0
C4605 C 0.31486 0.84196 0.4211 0.0
C4606 C 0.29936 0.82091 0.44016 0.0
C4607 C 0.30548 0.82043 0.45057 0.0
C4608 C 0.28827 0.816 0.43945 0.0
C4609 C 0.28098 0.81694 0.42901 0.0
C4610 C 0.2788 0.82763 0.42411 0.0
C4611 C 0.27197 0.82848 0.41425 0.0
C4612 C 0.2672 0.8187 0.40924 0.0
C4613 C 0.26923 0.80805 0.41411 0.0
C4614 C 0.27607 0.80716 0.42396 0.0
C4615 C 0.28089 0.80055 0.48885 0.0
C4616 C 0.27942 0.78878 0.4874 0.0
C4617 C 0.28391 0.80749 0.47961 0.0
C4618 C 0.28536 0.80276 0.46879 0.0
C4619 C 0.28312 0.79112 0.46725 0.0
C4620 C 0.28031 0.78419 0.47647 0.0
C4621 C 0.29012 0.80956 0.45926 0.0
C4622 C 0.28387 0.8103 0.44895 0.0
C4623 C 0.30106 0.81475 0.46006 0.0
C4624 C 0.30834 0.81383 0.47049 0.0
C4625 C 0.31152 0.80313 0.47474 0.0
C4626 C 0.31831 0.80232 0.48464 0.0
C4627 C 0.32206 0.81216 0.49029 0.0
C4628 C 0.31905 0.82283 0.48605 0.0
C4629 C 0.31224 0.82368 0.47617 0.0
H4630 H 0.32733 0.81152 0.49795 0.0
H4631 H 0.26191 0.81937 0.40161 0.0
H4632 H 0.6384 0.20848 0.70994 0.0
H4633 H 0.62167 0.21704 0.71803 0.0
H4634 H 0.62716 0.24719 0.6978 0.0
H4635 H 0.6438 0.23871 0.68968 0.0
H4636 H 0.62229 0.25287 0.7189 0.0
H4637 H 0.60618 0.22716 0.69085 0.0
H4638 H 0.603 0.20861 0.68155 0.0
H4639 H 0.58983 0.19471 0.71239 0.0
H4640 H 0.59308 0.21315 0.72193 0.0
H4641 H 0.56897 0.27897 0.72399 0.0
H4642 H 0.58561 0.26964 0.71677 0.0
H4643 H 0.57862 0.24037 0.73779 0.0
H4644 H 0.56176 0.2495 0.74478 0.0
H4645 H 0.58435 0.23385 0.71707 0.0
H4646 H 0.59992 0.25948 0.74504 0.0
H4647 H 0.60308 0.27793 0.75453 0.0
H4648 H 0.61734 0.29183 0.72419 0.0
H4649 H 0.61411 0.2735 0.71446 0.0
C4650 C 0.636 0.2169 0.70715 0.0
C4651 C 0.6425 0.22289 0.69916 0.0
C4652 C 0.62642 0.2218 0.71179 0.0
C4653 C 0.62306 0.23275 0.70847 0.0
C4654 C 0.62958 0.23876 0.70055 0.0
C4655 C 0.63914 0.23389 0.69594 0.0
C4656 C 0.61281 0.23803 0.71324 0.0
C4657 C 0.61398 0.24876 0.71837 0.0
C4658 C 0.60197 0.23258 0.71286 0.0
C4659 C 0.59999 0.2215 0.70713 0.0
C4660 C 0.60269 0.22012 0.69567 0.0
C4661 C 0.60086 0.20963 0.69035 0.0
C4662 C 0.59625 0.20048 0.69638 0.0
C4663 C 0.59342 0.2018 0.70774 0.0
C4664 C 0.59525 0.21227 0.7131 0.0
C4665 C 0.57089 0.27052 0.72703 0.0
C4666 C 0.56398 0.26505 0.73503 0.0
C4667 C 0.5805 0.26522 0.72296 0.0
C4668 C 0.58349 0.25433 0.72683 0.0
C4669 C 0.57654 0.24878 0.7347 0.0
C4670 C 0.56693 0.25408 0.73878 0.0
C4671 C 0.59382 0.24873 0.72263 0.0
C4672 C 0.59267 0.23794 0.71762 0.0
C4673 C 0.60468 0.25412 0.72315 0.0
C4674 C 0.60667 0.26514 0.72899 0.0
C4675 C 0.60365 0.2665 0.74036 0.0
C4676 C 0.60547 0.27693 0.74579 0.0
C4677 C 0.61038 0.28606 0.73996 0.0
C4678 C 0.61352 0.28476 0.72869 0.0
C4679 C 0.61171 0.27434 0.72322 0.0
H4680 H 0.61179 0.29413 0.74418 0.0
H4681 H 0.59484 0.19237 0.69225 0.0
H4682 H 0.3519 0.13764 0.73909 0.0
H4683 H 0.34413 0.12043 0.74776 0.0
H4684 H 0.32535 0.11271 0.71669 0.0
H4685 H 0.33276 0.13022 0.70806 0.0
H4686 H 0.31242 0.10869 0.73462 0.0
H4687 H 0.34974 0.09862 0.72407 0.0
H4688 H 0.37056 0.10066 0.72305 0.0
H4689 H 0.37376 0.09826 0.75939 0.0
H4690 H 0.35294 0.09637 0.76065 0.0
H4691 H 0.29825 0.05213 0.75129 0.0
H4692 H 0.30637 0.06828 0.74095 0.0
H4693 H 0.32565 0.07831 0.77106 0.0
H4694 H 0.31765 0.0621 0.78139 0.0
H4695 H 0.3383 0.08067 0.75264 0.0
H4696 H 0.30043 0.09015 0.76276 0.0
H4697 H 0.27979 0.0866 0.76308 0.0
H4698 H 0.27744 0.09003 0.72678 0.0
H4699 H 0.2982 0.09295 0.72616 0.0
C4700 C 0.346 0.13239 0.73411 0.0
C4701 C 0.34297 0.13538 0.72285 0.0
C4702 C 0.34166 0.12244 0.73906 0.0
C4703 C 0.33427 0.11515 0.73284 0.0
C4704 C 0.33108 0.11816 0.72165 0.0
C4705 C 0.33541 0.12814 0.71669 0.0
C4706 C 0.32988 0.10442 0.73807 0.0
C4707 C 0.31809 0.10248 0.73841 0.0
C4708 C 0.33724 0.09636 0.74318 0.0
C4709 C 0.34977 0.09746 0.74246 0.0
C4710 C 0.35488 0.09862 0.73185 0.0
C4711 C 0.36668 0.09973 0.73123 0.0
C4712 C 0.37348 0.09962 0.74115 0.0
C4713 C 0.36848 0.09836 0.75172 0.0
C4714 C 0.35668 0.09726 0.75239 0.0
C4715 C 0.30419 0.05779 0.75572 0.0
C4716 C 0.30721 0.05586 0.76721 0.0
C4717 C 0.30886 0.06701 0.74979 0.0
C4718 C 0.31651 0.07464 0.75526 0.0
C4719 C 0.31977 0.07256 0.76664 0.0
C4720 C 0.31519 0.06328 0.77255 0.0
C4721 C 0.32084 0.08499 0.74928 0.0
C4722 C 0.33263 0.08685 0.74881 0.0
C4723 C 0.31347 0.09294 0.74399 0.0
C4724 C 0.30092 0.09164 0.7444 0.0
C4725 C 0.29554 0.09006 0.75482 0.0
C4726 C 0.28381 0.08814 0.75506 0.0
C4727 C 0.27728 0.08816 0.74497 0.0
C4728 C 0.2825 0.09003 0.7346 0.0
C4729 C 0.29427 0.09174 0.73429 0.0
H4730 H 0.26819 0.08671 0.74518 0.0
H4731 H 0.38261 0.10048 0.74065 0.0
H4732 H 0.41111 0.82761 0.70154 0.0
H4733 H 0.42827 0.82119 0.71152 0.0
H4734 H 0.41946 0.84019 0.74109 0.0
H4735 H 0.40218 0.84666 0.73112 0.0
H4736 H 0.44184 0.84245 0.73729 0.0
H4737 H 0.41535 0.81115 0.73986 0.0
H4738 H 0.4016 0.79673 0.73253 0.0
H4739 H 0.42735 0.78239 0.71223 0.0
H4740 H 0.44123 0.79683 0.71932 0.0
H4741 H 0.48148 0.81549 0.77508 0.0
H4742 H 0.46431 0.82276 0.7657 0.0
H4743 H 0.4709 0.80295 0.73599 0.0
H4744 H 0.48802 0.79557 0.74539 0.0
H4745 H 0.44931 0.80121 0.74036 0.0
H4746 H 0.47572 0.83259 0.73735 0.0
H4747 H 0.48954 0.84708 0.74441 0.0
H4748 H 0.46415 0.8613 0.76524 0.0
H4749 H 0.45021 0.8468 0.75842 0.0
C4750 C 0.41274 0.83037 0.7102 0.0
C4751 C 0.40513 0.83756 0.71554 0.0
C4752 C 0.4226 0.82669 0.71591 0.0
C4753 C 0.42512 0.83002 0.72716 0.0
C4754 C 0.41772 0.83746 0.73243 0.0
C4755 C 0.40784 0.84118 0.7267 0.0
C4756 C 0.4354 0.82565 0.73339 0.0
C4757 C 0.44339 0.83343 0.73811 0.0
C4758 C 0.43761 0.81387 0.73427 0.0
C4759 C 0.4293 0.80514 0.73005 0.0
C4760 C 0.41806 0.80497 0.73377 0.0
C4761 C 0.41025 0.79679 0.72967 0.0
C4762 C 0.41359 0.78867 0.7219 0.0
C4763 C 0.42477 0.7887 0.71824 0.0
C4764 C 0.43261 0.79687 0.7223 0.0
C4765 C 0.47935 0.81275 0.76652 0.0
C4766 C 0.48621 0.80495 0.76101 0.0
C4767 C 0.4695 0.81693 0.76114 0.0
C4768 C 0.46631 0.81355 0.75004 0.0
C4769 C 0.47311 0.80571 0.74455 0.0
C4770 C 0.48292 0.80146 0.74995 0.0
C4771 C 0.45583 0.81802 0.7442 0.0
C4772 C 0.44778 0.81024 0.73957 0.0
C4773 C 0.45359 0.82979 0.74338 0.0
C4774 C 0.46195 0.83854 0.74746 0.0
C4775 C 0.4731 0.83876 0.7435 0.0
C4776 C 0.48096 0.84698 0.74745 0.0
C4777 C 0.47774 0.85509 0.75529 0.0
C4778 C 0.46664 0.85501 0.75918 0.0
C4779 C 0.45876 0.84679 0.75527 0.0
H4780 H 0.48383 0.86145 0.75833 0.0
H4781 H 0.40753 0.78234 0.71873 0.0
H4782 H 0.71738 0.89875 0.71549 0.0
H4783 H 0.72633 0.9161 0.72328 0.0
H4784 H 0.6938 0.93231 0.72254 0.0
H4785 H 0.6849 0.91518 0.71444 0.0
H4786 H 0.70969 0.9466 0.71514 0.0
H4787 H 0.70603 0.92144 0.74729 0.0
H4788 H 0.70886 0.90379 0.75829 0.0
H4789 H 0.74502 0.90893 0.75745 0.0
H4790 H 0.7424 0.92654 0.7463 0.0
H4791 H 0.71924 0.99244 0.75278 0.0
H4792 H 0.71266 0.97466 0.74399 0.0
H4793 H 0.7469 0.96232 0.74528 0.0
H4794 H 0.75353 0.98008 0.75428 0.0
H4795 H 0.73171 0.94592 0.75169 0.0
H4796 H 0.73542 0.97153 0.72044 0.0
H4797 H 0.73266 0.98929 0.70962 0.0
H4798 H 0.69657 0.98335 0.70881 0.0
H4799 H 0.6991 0.96562 0.71978 0.0
C4800 C 0.71215 0.90605 0.71687 0.0
C4801 C 0.70038 0.9055 0.71439 0.0
C4802 C 0.71726 0.91594 0.72144 0.0
C4803 C 0.71073 0.92551 0.72366 0.0
C4804 C 0.69904 0.92505 0.72096 0.0
C4805 C 0.69393 0.91519 0.71642 0.0
C4806 C 0.71598 0.936 0.72881 0.0
C4807 C 0.7144 0.94644 0.7232 0.0
C4808 C 0.72243 0.93583 0.73916 0.0
C4809 C 0.72402 0.92523 0.74584 0.0
C4810 C 0.71458 0.91875 0.74936 0.0
C4811 C 0.71615 0.90877 0.75564 0.0
C4812 C 0.72712 0.90522 0.75853 0.0
C4813 C 0.73653 0.91167 0.75518 0.0
C4814 C 0.73501 0.92166 0.74888 0.0
C4815 C 0.72537 0.98593 0.75128 0.0
C4816 C 0.73693 0.98774 0.75419 0.0
C4817 C 0.72161 0.97579 0.74616 0.0
C4818 C 0.72929 0.96719 0.74381 0.0
C4819 C 0.74081 0.96885 0.74692 0.0
C4820 C 0.7446 0.97905 0.75199 0.0
C4821 C 0.72524 0.9565 0.73812 0.0
C4822 C 0.72705 0.94605 0.74361 0.0
C4823 C 0.71901 0.95665 0.72764 0.0
C4824 C 0.71745 0.96729 0.72102 0.0
C4825 C 0.72689 0.97405 0.71803 0.0
C4826 C 0.72536 0.98411 0.71186 0.0
C4827 C 0.71444 0.98746 0.70855 0.0
C4828 C 0.70502 0.98075 0.71139 0.0
C4829 C 0.7065 0.97068 0.71757 0.0
H4830 H 0.71328 0.99525 0.70377 0.0
H4831 H 0.72831 0.89749 0.7634 0.0
H4832 H 0.61076 0.8387 0.32429 0.0
H4833 H 0.59367 0.8332 0.31312 0.0
H4834 H 0.60949 0.80206 0.30364 0.0
H4835 H 0.62667 0.80765 0.31447 0.0
H4836 H 0.59833 0.81098 0.28579 0.0
H4837 H 0.58998 0.80314 0.3251 0.0
H4838 H 0.58779 0.80807 0.34524 0.0
H4839 H 0.56263 0.83252 0.33571 0.0
H4840 H 0.56478 0.82783 0.31549 0.0
H4841 H 0.55403 0.77057 0.27595 0.0
H4842 H 0.57027 0.78252 0.28192 0.0
H4843 H 0.54817 0.81101 0.28528 0.0
H4844 H 0.53179 0.79898 0.27904 0.0
H4845 H 0.56141 0.80699 0.30474 0.0
H4846 H 0.56727 0.81151 0.26546 0.0
H4847 H 0.56965 0.80631 0.24545 0.0
H4848 H 0.59982 0.78815 0.25467 0.0
H4849 H 0.59738 0.79281 0.27479 0.0
C4850 C 0.61066 0.83075 0.31971 0.0
C4851 C 0.6201 0.82359 0.32037 0.0
C4852 C 0.60083 0.82756 0.3134 0.0
C4853 C 0.60019 0.81713 0.30763 0.0
C4854 C 0.60972 0.81013 0.30803 0.0
C4855 C 0.61952 0.8133 0.31433 0.0
C4856 C 0.58959 0.81328 0.30137 0.0
C4857 C 0.59027 0.81002 0.28995 0.0
C4858 C 0.57894 0.81242 0.30665 0.0
C4859 C 0.57765 0.81524 0.31879 0.0
C4860 C 0.58405 0.80963 0.3273 0.0
C4861 C 0.58281 0.81237 0.33872 0.0
C4862 C 0.57511 0.82063 0.34175 0.0
C4863 C 0.56861 0.82614 0.33335 0.0
C4864 C 0.56984 0.82345 0.32191 0.0
C4865 C 0.55268 0.77947 0.27765 0.0
C4866 C 0.54168 0.78388 0.27694 0.0
C4867 C 0.56198 0.7863 0.28107 0.0
C4868 C 0.56049 0.79769 0.28405 0.0
C4869 C 0.54954 0.80226 0.28298 0.0
C4870 C 0.54021 0.79543 0.27932 0.0
C4871 C 0.57023 0.80433 0.28924 0.0
C4872 C 0.5694 0.8081 0.30048 0.0
C4873 C 0.58076 0.80559 0.28381 0.0
C4874 C 0.58207 0.80244 0.27171 0.0
C4875 C 0.57431 0.80624 0.26327 0.0
C4876 C 0.57567 0.80339 0.25189 0.0
C4877 C 0.58484 0.79685 0.24879 0.0
C4878 C 0.59268 0.79316 0.25708 0.0
C4879 C 0.59129 0.79588 0.26848 0.0
H4880 H 0.58591 0.79468 0.23997 0.0
H4881 H 0.57415 0.82273 0.3506 0.0
H4882 H 0.72765 0.12833 0.31334 0.0
H4883 H 0.73436 0.11196 0.30311 0.0
H4884 H 0.69998 0.09905 0.29918 0.0
H4885 H 0.6932 0.1153 0.30984 0.0
H4886 H 0.71369 0.08226 0.30524 0.0
H4887 H 0.71444 0.11082 0.27655 0.0
H4888 H 0.71886 0.12943 0.26787 0.0
H4889 H 0.75455 0.12341 0.27226 0.0
H4890 H 0.75036 0.10484 0.28114 0.0
H4891 H 0.73686 0.03758 0.27152 0.0
H4892 H 0.72507 0.05401 0.27599 0.0
H4893 H 0.75532 0.07341 0.28532 0.0
H4894 H 0.76694 0.05723 0.28096 0.0
H4895 H 0.74051 0.08647 0.27372 0.0
H4896 H 0.73951 0.05972 0.30526 0.0
H4897 H 0.73534 0.04114 0.31414 0.0
H4898 H 0.70015 0.04389 0.30416 0.0
H4899 H 0.70416 0.06243 0.29508 0.0
C4900 C 0.72147 0.12201 0.31037 0.0
C4901 C 0.70985 0.12318 0.31251 0.0
C4902 C 0.72533 0.11268 0.30436 0.0
C4903 C 0.7177 0.10427 0.30019 0.0
C4904 C 0.70607 0.10542 0.30224 0.0
C4905 C 0.70218 0.11478 0.30827 0.0
C4906 C 0.72199 0.09415 0.29408 0.0
C4907 C 0.71935 0.0832 0.29818 0.0
C4908 C 0.7295 0.09527 0.28492 0.0
C4909 C 0.73207 0.10646 0.2796 0.0
C4910 C 0.72323 0.1135 0.27575 0.0
C4911 C 0.7257 0.12404 0.27078 0.0
C4912 C 0.73698 0.12761 0.26954 0.0
C4913 C 0.74582 0.12064 0.27324 0.0
C4914 C 0.7434 0.1101 0.27824 0.0
C4915 C 0.74095 0.04545 0.27429 0.0
C4916 C 0.75281 0.04611 0.27593 0.0
C4917 C 0.73422 0.0548 0.27694 0.0
C4918 C 0.73929 0.06495 0.28113 0.0
C4919 C 0.75117 0.06572 0.28214 0.0
C4920 C 0.75781 0.05643 0.27966 0.0
C4921 C 0.73246 0.07467 0.2851 0.0
C4922 C 0.73465 0.08555 0.28062 0.0
C4923 C 0.72456 0.07349 0.29391 0.0
C4924 C 0.72216 0.06237 0.29936 0.0
C4925 C 0.7309 0.05631 0.30487 0.0
C4926 C 0.72857 0.0458 0.30996 0.0
C4927 C 0.71749 0.04132 0.30968 0.0
C4928 C 0.70873 0.04736 0.30434 0.0
C4929 C 0.71102 0.05786 0.29923 0.0
H4930 H 0.7157 0.03318 0.31363 0.0
H4931 H 0.73887 0.13577 0.26568 0.0
H4932 H 0.40527 0.22342 0.34389 0.0
H4933 H 0.4222 0.23394 0.33799 0.0
H4934 H 0.42961 0.20719 0.31461 0.0
H4935 H 0.41301 0.19638 0.32085 0.0
H4936 H 0.44853 0.21415 0.32487 0.0
H4937 H 0.41754 0.23272 0.30572 0.0
H4938 H 0.39923 0.24246 0.30408 0.0
H4939 H 0.41237 0.26921 0.32565 0.0
H4940 H 0.43074 0.25954 0.32755 0.0
H4941 H 0.48649 0.24561 0.28981 0.0
H4942 H 0.47066 0.2346 0.2974 0.0
H4943 H 0.46566 0.26052 0.32237 0.0
H4944 H 0.48165 0.27152 0.31499 0.0
H4945 H 0.44573 0.25412 0.31169 0.0
H4946 H 0.47713 0.23545 0.33014 0.0
H4947 H 0.49543 0.22564 0.33111 0.0
H4948 H 0.48141 0.19895 0.30998 0.0
H4949 H 0.46306 0.20869 0.30876 0.0
C4950 C 0.41056 0.21969 0.33759 0.0
C4951 C 0.40768 0.20903 0.33282 0.0
C4952 C 0.42019 0.2258 0.33412 0.0
C4953 C 0.42714 0.22147 0.32571 0.0
C4954 C 0.42439 0.21077 0.32107 0.0
C4955 C 0.41479 0.20463 0.32457 0.0
C4956 C 0.43724 0.22808 0.32173 0.0
C4957 C 0.44787 0.22285 0.32186 0.0
C4958 C 0.4365 0.23952 0.318 0.0
C4959 C 0.42547 0.24535 0.31687 0.0
C4960 C 0.4165 0.24063 0.31019 0.0
C4961 C 0.40611 0.24615 0.3092 0.0
C4962 C 0.40463 0.25643 0.31478 0.0
C4963 C 0.41353 0.26123 0.32135 0.0
C4964 C 0.42393 0.25575 0.32237 0.0
C4965 C 0.48221 0.24893 0.29705 0.0
C4966 C 0.48544 0.25953 0.30175 0.0
C4967 C 0.47309 0.24261 0.30136 0.0
C4968 C 0.46697 0.24669 0.3105 0.0
C4969 C 0.47021 0.2572 0.31529 0.0
C4970 C 0.47936 0.2635 0.31102 0.0
C4971 C 0.45699 0.24019 0.31483 0.0
C4972 C 0.44638 0.24544 0.31474 0.0
C4973 C 0.45774 0.22875 0.31851 0.0
C4974 C 0.46875 0.22286 0.31927 0.0
C4975 C 0.47797 0.22753 0.32562 0.0
C4976 C 0.48835 0.22198 0.32623 0.0
C4977 C 0.4896 0.21169 0.32058 0.0
C4978 C 0.48045 0.20693 0.31434 0.0
C4979 C 0.47005 0.21245 0.31369 0.0
H4980 H 0.49764 0.2074 0.32106 0.0
H4981 H 0.39658 0.26069 0.314 0.0
H4982 H 0.31322 0.90289 0.32124 0.0
H4983 H 0.30422 0.91946 0.31257 0.0
H4984 H 0.33709 0.93553 0.30866 0.0
H4985 H 0.34614 0.91914 0.3177 0.0
H4986 H 0.32244 0.95064 0.31574 0.0
H4987 H 0.32253 0.92356 0.28588 0.0
H4988 H 0.31919 0.90504 0.27656 0.0
H4989 H 0.28332 0.90779 0.28111 0.0
H4990 H 0.28645 0.92624 0.29061 0.0
H4991 H 0.2961 0.99438 0.2812 0.0
H4992 H 0.30871 0.97847 0.28615 0.0
H4993 H 0.27961 0.95808 0.29554 0.0
H4994 H 0.26717 0.97377 0.29076 0.0
H4995 H 0.29468 0.94578 0.28356 0.0
H4996 H 0.29522 0.97171 0.31549 0.0
H4997 H 0.29864 0.99026 0.32472 0.0
H4998 H 0.33368 0.98968 0.31573 0.0
H4999 H 0.33043 0.97118 0.3063 0.0
C5000 C 0.31855 0.90999 0.31866 0.0
C5001 C 0.33043 0.90961 0.32015 0.0
C5002 C 0.31339 0.91943 0.31357 0.0
C5003 C 0.31997 0.92871 0.30975 0.0
C5004 C 0.33181 0.92847 0.31144 0.0
C5005 C 0.33698 0.91903 0.31654 0.0
C5006 C 0.31446 0.93866 0.3041 0.0
C5007 C 0.31654 0.94958 0.30856 0.0
C5008 C 0.30668 0.93735 0.29477 0.0
C5009 C 0.30474 0.92625 0.28905 0.0
C5010 C 0.31394 0.92017 0.28498 0.0
C5011 C 0.31208 0.90969 0.27965 0.0
C5012 C 0.30105 0.90523 0.27827 0.0
C5013 C 0.29186 0.91125 0.28219 0.0
C5014 C 0.29367 0.92173 0.28755 0.0
C5015 C 0.29244 0.98643 0.28415 0.0
C5016 C 0.28067 0.98534 0.28567 0.0
C5017 C 0.29962 0.97738 0.28704 0.0
C5018 C 0.29511 0.96709 0.29132 0.0
C5019 C 0.28332 0.96589 0.29228 0.0
C5020 C 0.27621 0.97491 0.28959 0.0
C5021 C 0.30248 0.95766 0.29536 0.0
C5022 C 0.30074 0.94683 0.29061 0.0
C5023 C 0.31059 0.95905 0.30438 0.0
C5024 C 0.31255 0.97015 0.31007 0.0
C5025 C 0.30363 0.97559 0.31539 0.0
C5026 C 0.30554 0.98608 0.32068 0.0
C5027 C 0.31636 0.99117 0.32078 0.0
C5028 C 0.3253 0.98575 0.31562 0.0
C5029 C 0.32343 0.97526 0.31031 0.0
H5030 H 0.31782 0.99929 0.32487 0.0
H5031 H 0.29963 0.89712 0.27413 0.0
H5032 H 0.73643 0.13411 0.69417 0.0
H5033 H 0.74564 0.11677 0.70105 0.0
H5034 H 0.71852 0.11094 0.72433 0.0
H5035 H 0.70932 0.12814 0.71753 0.0
H5036 H 0.73809 0.10765 0.73495 0.0
H5037 H 0.72092 0.09577 0.69907 0.0
H5038 H 0.71753 0.09657 0.67831 0.0
H5039 H 0.75294 0.09121 0.6731 0.0
H5040 H 0.75657 0.09052 0.69384 0.0
H5041 H 0.73541 0.0506 0.74846 0.0
H5042 H 0.73198 0.06819 0.7382 0.0
H5043 H 0.76647 0.06884 0.72696 0.0
H5044 H 0.7701 0.051 0.73749 0.0
H5045 H 0.74735 0.07566 0.70979 0.0
H5046 H 0.76322 0.08435 0.74674 0.0
H5047 H 0.76492 0.08194 0.76754 0.0
H5048 H 0.73064 0.09282 0.77087 0.0
H5049 H 0.72855 0.09487 0.75007 0.0
C5050 C 0.73238 0.12908 0.70069 0.0
C5051 C 0.72214 0.13261 0.70533 0.0
C5052 C 0.73768 0.11915 0.70463 0.0
C5053 C 0.73279 0.11247 0.71322 0.0
C5054 C 0.72254 0.11595 0.71778 0.0
C5055 C 0.71729 0.12585 0.71388 0.0
C5056 C 0.73826 0.10188 0.71763 0.0
C5057 C 0.7401 0.10068 0.72942 0.0
C5058 C 0.74121 0.09282 0.71045 0.0
C5059 C 0.73904 0.09325 0.698 0.0
C5060 C 0.728 0.09487 0.69349 0.0
C5061 C 0.72603 0.09528 0.68174 0.0
C5062 C 0.73502 0.09398 0.67439 0.0
C5063 C 0.74599 0.09224 0.6788 0.0
C5064 C 0.74801 0.09183 0.69055 0.0
C5065 C 0.7423 0.05435 0.74373 0.0
C5066 C 0.7531 0.04942 0.74393 0.0
C5067 C 0.74028 0.06443 0.73783 0.0
C5068 C 0.74898 0.06991 0.73193 0.0
C5069 C 0.75963 0.06474 0.73149 0.0
C5070 C 0.7617 0.05456 0.73749 0.0
C5071 C 0.74688 0.08142 0.72707 0.0
C5072 C 0.74561 0.08277 0.71526 0.0
C5073 C 0.74436 0.09061 0.73423 0.0
C5074 C 0.7457 0.0897 0.7468 0.0
C5075 C 0.756 0.08614 0.75189 0.0
C5076 C 0.75705 0.08484 0.76368 0.0
C5077 C 0.74792 0.08726 0.77051 0.0
C5078 C 0.73771 0.09096 0.76557 0.0
C5079 C 0.73658 0.09218 0.75377 0.0
H5080 H 0.74875 0.08626 0.77964 0.0
H5081 H 0.73347 0.0943 0.66529 0.0
H5082 H 0.72053 0.90232 0.33634 0.0
H5083 H 0.73164 0.91922 0.33104 0.0
H5084 H 0.7059 0.92783 0.30585 0.0
H5085 H 0.6947 0.91108 0.31117 0.0
H5086 H 0.72671 0.92998 0.29723 0.0
H5087 H 0.70866 0.94208 0.33119 0.0
H5088 H 0.70361 0.94085 0.35135 0.0
H5089 H 0.73892 0.94288 0.36141 0.0
H5090 H 0.74418 0.94396 0.34129 0.0
H5091 H 0.74309 0.98661 0.28459 0.0
H5092 H 0.7329 0.96954 0.29081 0.0
H5093 H 0.75912 0.96352 0.31632 0.0
H5094 H 0.76934 0.98067 0.31017 0.0
H5095 H 0.73892 0.9596 0.32502 0.0
H5096 H 0.75715 0.94798 0.2914 0.0
H5097 H 0.76252 0.94908 0.27133 0.0
H5098 H 0.72745 0.94579 0.26069 0.0
H5099 H 0.72184 0.94484 0.2807 0.0
C5100 C 0.71716 0.90786 0.32976 0.0
C5101 C 0.7067 0.90526 0.32419 0.0
C5102 C 0.72355 0.91753 0.32671 0.0
C5103 C 0.7196 0.92488 0.31807 0.0
C5104 C 0.70918 0.92229 0.31249 0.0
C5105 C 0.70279 0.91265 0.31554 0.0
C5106 C 0.72633 0.93519 0.31471 0.0
C5107 C 0.72926 0.93652 0.30329 0.0
C5108 C 0.72998 0.94359 0.32264 0.0
C5109 C 0.72682 0.94298 0.33474 0.0
C5110 C 0.71535 0.94217 0.3377 0.0
C5111 C 0.71245 0.94152 0.34912 0.0
C5112 C 0.72094 0.94175 0.35765 0.0
C5113 C 0.73235 0.94268 0.35479 0.0
C5114 C 0.7353 0.94332 0.34338 0.0
C5115 C 0.74676 0.98163 0.29146 0.0
C5116 C 0.75711 0.98502 0.2968 0.0
C5117 C 0.7409 0.97184 0.29502 0.0
C5118 C 0.7453 0.96509 0.30394 0.0
C5119 C 0.75553 0.96855 0.30943 0.0
C5120 C 0.76137 0.97839 0.3059 0.0
C5121 C 0.7392 0.95446 0.30751 0.0
C5122 C 0.73641 0.95305 0.31896 0.0
C5123 C 0.73573 0.94594 0.29961 0.0
C5124 C 0.73907 0.94644 0.28756 0.0
C5125 C 0.75057 0.94757 0.28478 0.0
C5126 C 0.75366 0.94816 0.27341 0.0
C5127 C 0.74533 0.94753 0.26474 0.0
C5128 C 0.73389 0.94629 0.26742 0.0
C5129 C 0.73075 0.94571 0.27877 0.0
H5130 H 0.74774 0.94799 0.25595 0.0
H5131 H 0.71868 0.94125 0.36649 0.0
H5132 H 0.63149 0.21008 0.2947 0.0
H5133 H 0.61429 0.2192 0.28756 0.0
H5134 H 0.59713 0.20947 0.31807 0.0
H5135 H 0.61423 0.19987 0.32509 0.0
H5136 H 0.58329 0.20602 0.30019 0.0
H5137 H 0.60651 0.23725 0.3132 0.0
H5138 H 0.62377 0.24937 0.31497 0.0
H5139 H 0.62204 0.25629 0.27913 0.0
H5140 H 0.60486 0.24407 0.27711 0.0
H5141 H 0.5367 0.24378 0.28877 0.0
H5142 H 0.55282 0.23337 0.29696 0.0
H5143 H 0.57208 0.24096 0.26718 0.0
H5144 H 0.55612 0.25144 0.25902 0.0
H5145 H 0.58447 0.24569 0.28582 0.0
H5146 H 0.56135 0.21386 0.27296 0.0
H5147 H 0.54395 0.20191 0.27152 0.0
H5148 H 0.54528 0.19649 0.30762 0.0
H5149 H 0.56262 0.20853 0.30929 0.0
C5150 C 0.62406 0.20978 0.2999 0.0
C5151 C 0.62433 0.20417 0.3105 0.0
C5152 C 0.61422 0.21514 0.29583 0.0
C5153 C 0.60437 0.21519 0.3023 0.0
C5154 C 0.60459 0.20961 0.3129 0.0
C5155 C 0.61444 0.20421 0.31697 0.0
C5156 C 0.59387 0.22095 0.2979 0.0
C5157 C 0.58353 0.21476 0.29722 0.0
C5158 C 0.59411 0.2323 0.29381 0.0
C5159 C 0.60445 0.23966 0.29499 0.0
C5160 C 0.60986 0.24128 0.30568 0.0
C5161 C 0.61962 0.24818 0.30673 0.0
C5162 C 0.62401 0.25357 0.29717 0.0
C5163 C 0.61864 0.25209 0.28653 0.0
C5164 C 0.60888 0.24519 0.28543 0.0
C5165 C 0.54429 0.24307 0.28387 0.0
C5166 C 0.54506 0.24848 0.2732 0.0
C5167 C 0.55353 0.2371 0.28857 0.0
C5168 C 0.56374 0.23633 0.28271 0.0
C5169 C 0.56437 0.24145 0.27193 0.0
C5170 C 0.55516 0.2474 0.26723 0.0
C5171 C 0.57395 0.23071 0.28795 0.0
C5172 C 0.58423 0.23696 0.28882 0.0
C5173 C 0.57362 0.21945 0.29226 0.0
C5174 C 0.56321 0.21219 0.29126 0.0
C5175 C 0.55788 0.21019 0.2806 0.0
C5176 C 0.54804 0.20339 0.27974 0.0
C5177 C 0.54349 0.19847 0.28947 0.0
C5178 C 0.5488 0.20032 0.30009 0.0
C5179 C 0.55864 0.20713 0.301 0.0
H5180 H 0.53587 0.1932 0.28879 0.0
H5181 H 0.63157 0.25891 0.298 0.0
H5182 H 0.32895 0.1263 0.32812 0.0
H5183 H 0.31982 0.10941 0.31958 0.0
H5184 H 0.29556 0.10838 0.34631 0.0
H5185 H 0.30455 0.12525 0.35483 0.0
H5186 H 0.30338 0.08767 0.34272 0.0
H5187 H 0.28847 0.11776 0.31922 0.0
H5188 H 0.28957 0.13452 0.30662 0.0
H5189 H 0.308 0.11539 0.28255 0.0
H5190 H 0.30715 0.09855 0.29509 0.0
H5191 H 0.26249 0.04905 0.31908 0.0
H5192 H 0.2722 0.06604 0.32652 0.0
H5193 H 0.29575 0.06511 0.29921 0.0
H5194 H 0.28615 0.04804 0.29175 0.0
H5195 H 0.28903 0.08654 0.30271 0.0
H5196 H 0.30365 0.05639 0.32587 0.0
H5197 H 0.30265 0.03957 0.33839 0.0
H5198 H 0.28501 0.05875 0.36302 0.0
H5199 H 0.28575 0.07565 0.35057 0.0
C5200 C 0.3216 0.12256 0.33212 0.0
C5201 C 0.31754 0.12717 0.34221 0.0
C5202 C 0.31639 0.11287 0.32723 0.0
C5203 C 0.30693 0.10761 0.33224 0.0
C5204 C 0.30287 0.11221 0.34229 0.0
C5205 C 0.30806 0.12187 0.34718 0.0
C5206 C 0.30134 0.09724 0.32717 0.0
C5207 C 0.30012 0.08749 0.334 0.0
C5208 C 0.29735 0.09683 0.31571 0.0
C5209 C 0.29785 0.10693 0.30815 0.0
C5210 C 0.29284 0.11715 0.31129 0.0
C5211 C 0.29341 0.12666 0.30415 0.0
C5212 C 0.29888 0.12603 0.29381 0.0
C5213 C 0.30378 0.11588 0.29057 0.0
C5214 C 0.30325 0.10634 0.29769 0.0
C5215 C 0.26978 0.05236 0.31468 0.0
C5216 C 0.27353 0.04703 0.30482 0.0
C5217 C 0.27533 0.06213 0.31895 0.0
C5218 C 0.28482 0.06682 0.31352 0.0
C5219 C 0.28846 0.06168 0.30356 0.0
C5220 C 0.28291 0.05189 0.29928 0.0
C5221 C 0.29096 0.07703 0.31829 0.0
C5222 C 0.29231 0.08673 0.31141 0.0
C5223 C 0.2951 0.0774 0.32971 0.0
C5224 C 0.29466 0.06726 0.33724 0.0
C5225 C 0.29948 0.057 0.33392 0.0
C5226 C 0.29897 0.04745 0.34101 0.0
C5227 C 0.29374 0.04808 0.35148 0.0
C5228 C 0.28904 0.05827 0.3549 0.0
C5229 C 0.28951 0.06784 0.34783 0.0
H5230 H 0.29336 0.04068 0.35696 0.0
H5231 H 0.29931 0.1334 0.28829 0.0
H5232 H 0.39785 0.82225 0.31861 0.0
H5233 H 0.41443 0.81392 0.31002 0.0
H5234 H 0.42887 0.80709 0.34336 0.0
H5235 H 0.41255 0.81572 0.35199 0.0
H5236 H 0.44484 0.81516 0.32977 0.0
H5237 H 0.41546 0.78612 0.32699 0.0
H5238 H 0.39662 0.77817 0.32137 0.0
H5239 H 0.40342 0.78471 0.28628 0.0
H5240 H 0.42225 0.79285 0.29171 0.0
H5241 H 0.48652 0.77523 0.31623 0.0
H5242 H 0.47003 0.78465 0.32364 0.0
H5243 H 0.45679 0.78968 0.2895 0.0
H5244 H 0.47304 0.77989 0.28204 0.0
H5245 H 0.44018 0.78316 0.3027 0.0
H5246 H 0.46955 0.81167 0.30509 0.0
H5247 H 0.48839 0.81984 0.31038 0.0
H5248 H 0.48164 0.8147 0.3457 0.0
H5249 H 0.46282 0.80635 0.34061 0.0
C5250 C 0.40461 0.81909 0.32412 0.0
C5251 C 0.40378 0.81961 0.33602 0.0
C5252 C 0.41405 0.81422 0.31919 0.0
C5253 C 0.42287 0.8097 0.32602 0.0
C5254 C 0.42218 0.81045 0.33788 0.0
C5255 C 0.41276 0.8153 0.34281 0.0
C5256 C 0.4328 0.80416 0.3209 0.0
C5257 C 0.44381 0.80807 0.32395 0.0
C5258 C 0.43152 0.79512 0.31304 0.0
C5259 C 0.42021 0.79021 0.30977 0.0
C5260 C 0.4129 0.78595 0.31808 0.0
C5261 C 0.40223 0.7814 0.31493 0.0
C5262 C 0.39881 0.78097 0.30347 0.0
C5263 C 0.40607 0.78507 0.29515 0.0
C5264 C 0.41674 0.78965 0.29826 0.0
C5265 C 0.48008 0.77824 0.31027 0.0
C5266 C 0.48122 0.77681 0.29849 0.0
C5267 C 0.47068 0.78376 0.31453 0.0
C5268 C 0.4622 0.78807 0.30714 0.0
C5269 C 0.46322 0.78651 0.2954 0.0
C5270 C 0.47261 0.78098 0.29113 0.0
C5271 C 0.45223 0.79409 0.31166 0.0
C5272 C 0.44122 0.79027 0.30849 0.0
C5273 C 0.45351 0.80326 0.31937 0.0
C5274 C 0.46482 0.80829 0.32246 0.0
C5275 C 0.47212 0.8122 0.31398 0.0
C5276 C 0.48279 0.81688 0.31695 0.0
C5277 C 0.48622 0.81776 0.32837 0.0
C5278 C 0.47898 0.814 0.33686 0.0
C5279 C 0.4683 0.8093 0.33394 0.0
H5280 H 0.49448 0.82138 0.33065 0.0
H5281 H 0.39055 0.77744 0.30105 0.0
H5282 H 0.30346 0.91447 0.71211 0.0
H5283 H 0.29346 0.93097 0.71924 0.0
H5284 H 0.32522 0.94507 0.73235 0.0
H5285 H 0.33521 0.92876 0.72523 0.0
H5286 H 0.30939 0.94592 0.74807 0.0
H5287 H 0.31131 0.95539 0.70791 0.0
H5288 H 0.30756 0.95202 0.68748 0.0
H5289 H 0.27168 0.95056 0.69299 0.0
H5290 H 0.27524 0.95379 0.71349 0.0
H5291 H 0.3038 1.0027 0.75839 0.0
H5292 H 0.30787 0.98559 0.74788 0.0
H5293 H 0.27205 0.97774 0.74449 0.0
H5294 H 0.26786 0.99512 0.75517 0.0
H5295 H 0.28617 0.97215 0.72432 0.0
H5296 H 0.284 0.96498 0.764 0.0
H5297 H 0.28762 0.96911 0.78428 0.0
H5298 H 0.32345 0.96564 0.77994 0.0
H5299 H 0.32008 0.9619 0.75952 0.0
C5300 C 0.30834 0.92115 0.71639 0.0
C5301 C 0.32017 0.92018 0.71816 0.0
C5302 C 0.30259 0.93059 0.72049 0.0
C5303 C 0.30855 0.93932 0.72638 0.0
C5304 C 0.32037 0.93844 0.72795 0.0
C5305 C 0.32609 0.92905 0.72388 0.0
C5306 C 0.30264 0.94927 0.73122 0.0
C5307 C 0.30436 0.95165 0.74283 0.0
C5308 C 0.29566 0.95659 0.72456 0.0
C5309 C 0.29354 0.9547 0.71224 0.0
C5310 C 0.30263 0.95426 0.70478 0.0
C5311 C 0.30054 0.9524 0.69318 0.0
C5312 C 0.28939 0.95104 0.68895 0.0
C5313 C 0.28031 0.95159 0.69629 0.0
C5314 C 0.28236 0.95345 0.70789 0.0
C5315 C 0.29673 0.99749 0.75521 0.0
C5316 C 0.28551 1.00024 0.75769 0.0
C5317 C 0.29908 0.98769 0.74919 0.0
C5318 C 0.29029 0.98027 0.74553 0.0
C5319 C 0.27897 0.98334 0.74724 0.0
C5320 C 0.27659 0.99329 0.7533 0.0
C5321 C 0.29329 0.9689 0.74103 0.0
C5322 C 0.29104 0.96628 0.72956 0.0
C5323 C 0.29971 0.96126 0.74783 0.0
C5324 C 0.30178 0.96324 0.76018 0.0
C5325 C 0.29266 0.9652 0.76733 0.0
C5326 C 0.29467 0.96748 0.77886 0.0
C5327 C 0.30576 0.96762 0.7834 0.0
C5328 C 0.31486 0.96552 0.77641 0.0
C5329 C 0.31291 0.96334 0.76485 0.0
H5330 H 0.30729 0.96935 0.79234 0.0
H5331 H 0.28779 0.94959 0.67997 0.0
H5332 H 0.61981 0.83183 0.70979 0.0
H5333 H 0.60313 0.82442 0.71943 0.0
H5334 H 0.60852 0.79122 0.70554 0.0
H5335 H 0.62532 0.79854 0.69595 0.0
H5336 H 0.58616 0.7963 0.70432 0.0
H5337 H 0.61553 0.79666 0.7331 0.0
H5338 H 0.63132 0.8048 0.74483 0.0
H5339 H 0.60913 0.82989 0.7577 0.0
H5340 H 0.59324 0.822 0.74593 0.0
H5341 H 0.54594 0.771 0.74386 0.0
H5342 H 0.56259 0.77523 0.73221 0.0
H5343 H 0.56227 0.81018 0.74293 0.0
H5344 H 0.54593 0.80607 0.75445 0.0
H5345 H 0.58299 0.80181 0.74582 0.0
H5346 H 0.55395 0.80207 0.71593 0.0
H5347 H 0.53824 0.79383 0.70416 0.0
H5348 H 0.55988 0.76719 0.69358 0.0
H5349 H 0.57568 0.77519 0.70541 0.0
C5350 C 0.61755 0.82292 0.70886 0.0
C5351 C 0.62402 0.8158 0.70211 0.0
C5352 C 0.60795 0.81869 0.71436 0.0
C5353 C 0.60459 0.80721 0.71333 0.0
C5354 C 0.6109 0.80011 0.70646 0.0
C5355 C 0.62051 0.80433 0.70096 0.0
C5356 C 0.59459 0.80265 0.71955 0.0
C5357 C 0.58554 0.79734 0.71343 0.0
C5358 C 0.59369 0.80405 0.73142 0.0
C5359 C 0.60321 0.80879 0.73856 0.0
C5360 C 0.61403 0.80397 0.73837 0.0
C5361 C 0.623 0.80853 0.74503 0.0
C5362 C 0.62123 0.81787 0.75198 0.0
C5363 C 0.61049 0.82266 0.75231 0.0
C5364 C 0.60149 0.81814 0.74565 0.0
C5365 C 0.54933 0.77961 0.74356 0.0
C5366 C 0.54464 0.78816 0.75016 0.0
C5367 C 0.55886 0.78202 0.73692 0.0
C5368 C 0.56377 0.79304 0.73674 0.0
C5369 C 0.55877 0.80161 0.74299 0.0
C5370 C 0.54936 0.79922 0.74958 0.0
C5371 C 0.5744 0.79576 0.73056 0.0
C5372 C 0.58362 0.80068 0.73672 0.0
C5373 C 0.57544 0.79397 0.71875 0.0
C5374 C 0.56595 0.78915 0.71166 0.0
C5375 C 0.55532 0.7944 0.71118 0.0
C5376 C 0.54641 0.78978 0.70448 0.0
C5377 C 0.54805 0.77997 0.69816 0.0
C5378 C 0.55861 0.77477 0.6985 0.0
C5379 C 0.56755 0.77935 0.70519 0.0
H5380 H 0.54114 0.77642 0.69297 0.0
H5381 H 0.62819 0.82139 0.75714 0.0
H5382 H 0.41384 0.21644 0.73001 0.0
H5383 H 0.43104 0.22193 0.74094 0.0
H5384 H 0.44904 0.22661 0.70985 0.0
H5385 H 0.432 0.22079 0.69888 0.0
H5386 H 0.46213 0.21606 0.72543 0.0
H5387 H 0.43886 0.24928 0.72467 0.0
H5388 H 0.42149 0.26007 0.72773 0.0
H5389 H 0.42377 0.25244 0.76342 0.0
H5390 H 0.44107 0.24147 0.76055 0.0
H5391 H 0.50866 0.25108 0.74384 0.0
H5392 H 0.49175 0.24235 0.7349 0.0
H5393 H 0.476 0.24009 0.76746 0.0
H5394 H 0.49286 0.24909 0.77647 0.0
H5395 H 0.46151 0.24833 0.75228 0.0
H5396 H 0.48547 0.21611 0.75335 0.0
H5397 H 0.50287 0.20535 0.75036 0.0
H5398 H 0.49937 0.2109 0.71437 0.0
H5399 H 0.48203 0.22183 0.71715 0.0
C5400 C 0.42148 0.21851 0.72548 0.0
C5401 C 0.42146 0.21822 0.71352 0.0
C5402 C 0.4313 0.22176 0.73176 0.0
C5403 C 0.44134 0.22484 0.72624 0.0
C5404 C 0.44142 0.22433 0.71433 0.0
C5405 C 0.43161 0.22109 0.70805 0.0
C5406 C 0.45174 0.22874 0.73281 0.0
C5407 C 0.46201 0.22319 0.73122 0.0
C5408 C 0.45158 0.23784 0.74063 0.0
C5409 C 0.44119 0.24445 0.74237 0.0
C5410 C 0.4356 0.24982 0.73316 0.0
C5411 C 0.42578 0.25599 0.73486 0.0
C5412 C 0.42151 0.25691 0.74576 0.0
C5413 C 0.42707 0.2517 0.75498 0.0
C5414 C 0.43689 0.24552 0.75332 0.0
C5415 C 0.50168 0.24859 0.74916 0.0
C5416 C 0.50218 0.25079 0.76091 0.0
C5417 C 0.49199 0.24354 0.74402 0.0
C5418 C 0.48257 0.24043 0.75048 0.0
C5419 C 0.48313 0.24239 0.76226 0.0
C5420 C 0.49282 0.24748 0.76742 0.0
C5421 C 0.47196 0.23571 0.74484 0.0
C5422 C 0.46163 0.24113 0.74659 0.0
C5423 C 0.47208 0.22647 0.73718 0.0
C5424 C 0.48249 0.21987 0.73547 0.0
C5425 C 0.48845 0.21511 0.7448 0.0
C5426 C 0.4983 0.20897 0.74315 0.0
C5427 C 0.50224 0.20746 0.73219 0.0
C5428 C 0.49632 0.21208 0.72286 0.0
C5429 C 0.48647 0.21823 0.72447 0.0
H5430 H 0.50986 0.20271 0.73092 0.0
H5431 H 0.4139 0.26169 0.74706 0.0
H5432 H 0.71072 0.73015 0.13257 0.0
H5433 H 0.71676 0.74096 0.11592 0.0
H5434 H 0.70693 0.71276 0.09433 0.0
H5435 H 0.70086 0.70193 0.11092 0.0
H5436 H 0.72694 0.72076 0.08846 0.0
H5437 H 0.69087 0.73701 0.09556 0.0
H5438 H 0.67646 0.74621 0.10697 0.0
H5439 H 0.69891 0.77495 0.11245 0.0
H5440 H 0.71353 0.76585 0.1012 0.0
H5441 H 0.71872 0.76613 0.04048 0.0
H5442 H 0.71182 0.75578 0.05703 0.0
H5443 H 0.7463 0.75139 0.06928 0.0
H5444 H 0.75327 0.76177 0.0528 0.0
H5445 H 0.71329 0.75944 0.07934 0.0
H5446 H 0.74841 0.72582 0.08282 0.0
H5447 H 0.76146 0.71589 0.07039 0.0
H5448 H 0.73837 0.72055 0.04193 0.0
H5449 H 0.72513 0.73036 0.05421 0.0
C5450 C 0.7097 0.72629 0.12427 0.0
C5451 C 0.70529 0.71514 0.12312 0.0
C5452 C 0.71319 0.73249 0.11473 0.0
C5453 C 0.71226 0.72773 0.10381 0.0
C5454 C 0.7078 0.71662 0.10265 0.0
C5455 C 0.70435 0.71042 0.11216 0.0
C5456 C 0.71609 0.7342 0.09361 0.0
C5457 C 0.72396 0.72923 0.0865 0.0
C5458 C 0.71211 0.74519 0.09089 0.0
C5459 C 0.70333 0.7507 0.09762 0.0
C5460 C 0.69277 0.74526 0.09927 0.0
C5461 C 0.68456 0.75046 0.1057 0.0
C5462 C 0.68678 0.76114 0.11046 0.0
C5463 C 0.69721 0.76666 0.10877 0.0
C5464 C 0.70546 0.76149 0.10236 0.0
C5465 C 0.72486 0.76305 0.04672 0.0
C5466 C 0.73659 0.76477 0.0452 0.0
C5467 C 0.72088 0.75711 0.0562 0.0
C5468 C 0.72852 0.75268 0.06439 0.0
C5469 C 0.74022 0.75453 0.063 0.0
C5470 C 0.74421 0.76046 0.05352 0.0
C5471 C 0.72425 0.74605 0.07429 0.0
C5472 C 0.7163 0.75099 0.08134 0.0
C5473 C 0.728 0.73494 0.07685 0.0
C5474 C 0.73584 0.72893 0.06942 0.0
C5475 C 0.7461 0.72469 0.07392 0.0
C5476 C 0.75353 0.71908 0.0669 0.0
C5477 C 0.75076 0.71762 0.05537 0.0
C5478 C 0.74053 0.72173 0.05085 0.0
C5479 C 0.73307 0.72732 0.05783 0.0
H5480 H 0.75653 0.7133 0.04995 0.0
H5481 H 0.68041 0.76516 0.11543 0.0
H5482 H 0.30279 0.69316 0.11629 0.0
H5483 H 0.29456 0.70195 0.0992 0.0
H5484 H 0.3158 0.73174 0.10483 0.0
H5485 H 0.32379 0.72317 0.12218 0.0
H5486 H 0.29467 0.73771 0.09882 0.0
H5487 H 0.32187 0.7115 0.08476 0.0
H5488 H 0.33053 0.69278 0.08251 0.0
H5489 H 0.29915 0.67943 0.06815 0.0
H5490 H 0.29025 0.69804 0.07045 0.0
H5491 H 0.29901 0.76379 0.04604 0.0
H5492 H 0.30263 0.75241 0.06291 0.0
H5493 H 0.27492 0.72968 0.05331 0.0
H5494 H 0.27106 0.74129 0.03614 0.0
H5495 H 0.29622 0.71886 0.06131 0.0
H5496 H 0.26983 0.74613 0.07323 0.0
H5497 H 0.26184 0.76523 0.07476 0.0
H5498 H 0.29198 0.77684 0.09288 0.0
H5499 H 0.30026 0.75786 0.09126 0.0
C5500 C 0.30565 0.70163 0.11398 0.0
C5501 C 0.31398 0.70744 0.12067 0.0
C5502 C 0.301 0.70661 0.10411 0.0
C5503 C 0.30461 0.71749 0.10062 0.0
C5504 C 0.31286 0.72334 0.10731 0.0
C5505 C 0.31752 0.71837 0.11719 0.0
C5506 C 0.29985 0.72279 0.09 0.0
C5507 C 0.29507 0.7336 0.09062 0.0
C5508 C 0.30002 0.7173 0.0793 0.0
C5509 C 0.30536 0.70612 0.0779 0.0
C5510 C 0.31679 0.70454 0.08121 0.0
C5511 C 0.32175 0.69396 0.07991 0.0
C5512 C 0.31539 0.68491 0.07523 0.0
C5513 C 0.30406 0.68644 0.0718 0.0
C5514 C 0.29906 0.697 0.07309 0.0
C5515 C 0.29364 0.75637 0.04739 0.0
C5516 C 0.28468 0.7535 0.03969 0.0
C5517 C 0.29574 0.74987 0.05711 0.0
C5518 C 0.289 0.74027 0.05945 0.0
C5519 C 0.28021 0.7371 0.05167 0.0
C5520 C 0.278 0.74374 0.04189 0.0
C5521 C 0.29126 0.73382 0.07016 0.0
C5522 C 0.29561 0.72285 0.06955 0.0
C5523 C 0.29072 0.73915 0.08088 0.0
C5524 C 0.28571 0.75056 0.08205 0.0
C5525 C 0.2748 0.75277 0.07747 0.0
C5526 C 0.27021 0.76358 0.07836 0.0
C5527 C 0.2764 0.77225 0.0839 0.0
C5528 C 0.28719 0.77012 0.08859 0.0
C5529 C 0.29183 0.75933 0.08769 0.0
H5530 H 0.27283 0.78061 0.08458 0.0
H5531 H 0.31924 0.67672 0.07422 0.0
H5532 H 0.31334 0.32228 0.13826 0.0
H5533 H 0.30496 0.31392 0.12091 0.0
H5534 H 0.32642 0.33558 0.10071 0.0
H5535 H 0.33484 0.34397 0.118 0.0
H5536 H 0.30553 0.33539 0.09192 0.0
H5537 H 0.33138 0.30662 0.10475 0.0
H5538 H 0.33974 0.29294 0.11839 0.0
H5539 H 0.3076 0.27531 0.12035 0.0
H5540 H 0.29901 0.28898 0.10684 0.0
H5541 H 0.30117 0.30731 0.03878 0.0
H5542 H 0.30697 0.31587 0.0569 0.0
H5543 H 0.2838 0.29343 0.07426 0.0
H5544 H 0.27802 0.28468 0.05608 0.0
H5545 H 0.3042 0.29387 0.08502 0.0
H5546 H 0.27861 0.32209 0.07131 0.0
H5547 H 0.27038 0.3357 0.05755 0.0
H5548 H 0.30205 0.35436 0.05714 0.0
H5549 H 0.31053 0.34076 0.07079 0.0
C5550 C 0.3164 0.32518 0.13014 0.0
C5551 C 0.32481 0.33383 0.1296 0.0
C5552 C 0.31156 0.32038 0.12019 0.0
C5553 C 0.31508 0.32402 0.10942 0.0
C5554 C 0.32349 0.33263 0.10887 0.0
C5555 C 0.3283 0.33745 0.1188 0.0
C5556 C 0.30994 0.319 0.09873 0.0
C5557 C 0.30537 0.32632 0.09038 0.0
C5558 C 0.30938 0.30713 0.09676 0.0
C5559 C 0.31452 0.2989 0.10488 0.0
C5560 C 0.32607 0.29988 0.10816 0.0
C5561 C 0.33086 0.29212 0.11586 0.0
C5562 C 0.3242 0.28329 0.12026 0.0
C5563 C 0.31274 0.28217 0.11695 0.0
C5564 C 0.30791 0.28992 0.10927 0.0
C5565 C 0.29715 0.30428 0.04641 0.0
C5566 C 0.28907 0.29531 0.04591 0.0
C5567 C 0.30048 0.30922 0.05681 0.0
C5568 C 0.29579 0.30539 0.06702 0.0
C5569 C 0.28755 0.29658 0.06654 0.0
C5570 C 0.28418 0.29163 0.0561 0.0
C5571 C 0.2999 0.31027 0.07817 0.0
C5572 C 0.30429 0.30294 0.0866 0.0
C5573 C 0.30031 0.32213 0.0802 0.0
C5574 C 0.29523 0.33034 0.07201 0.0
C5575 C 0.28385 0.32904 0.06822 0.0
C5576 C 0.27913 0.33677 0.06045 0.0
C5577 C 0.28569 0.34587 0.05645 0.0
C5578 C 0.29698 0.34729 0.06024 0.0
C5579 C 0.30174 0.33959 0.068 0.0
H5580 H 0.28202 0.35185 0.05044 0.0
H5581 H 0.32792 0.27728 0.12621 0.0
H5582 H 0.70473 0.33687 0.12451 0.0
H5583 H 0.71136 0.32689 0.10789 0.0
H5584 H 0.73955 0.31392 0.12786 0.0
H5585 H 0.73298 0.32394 0.14452 0.0
H5586 H 0.74675 0.32082 0.10792 0.0
H5587 H 0.71617 0.29691 0.12011 0.0
H5588 H 0.69669 0.2922 0.12592 0.0
H5589 H 0.68349 0.3034 0.09347 0.0
H5590 H 0.70289 0.30833 0.08751 0.0
H5591 H 0.76239 0.28189 0.06476 0.0
H5592 H 0.75668 0.29038 0.08262 0.0
H5593 H 0.72685 0.30375 0.06557 0.0
H5594 H 0.73237 0.29499 0.04786 0.0
H5595 H 0.72103 0.29559 0.08494 0.0
H5596 H 0.75187 0.32054 0.07335 0.0
H5597 H 0.77151 0.3248 0.06768 0.0
H5598 H 0.78433 0.31099 0.09924 0.0
H5599 H 0.76477 0.30657 0.10505 0.0
C5600 C 0.71226 0.33179 0.12542 0.0
C5601 C 0.71828 0.33119 0.13591 0.0
C5602 C 0.71607 0.32608 0.11588 0.0
C5603 C 0.72591 0.3195 0.1166 0.0
C5604 C 0.73196 0.31893 0.12704 0.0
C5605 C 0.72819 0.32469 0.13658 0.0
C5606 C 0.72994 0.31335 0.10644 0.0
C5607 C 0.74115 0.31518 0.10299 0.0
C5608 C 0.72266 0.30607 0.09986 0.0
C5609 C 0.71098 0.30308 0.1034 0.0
C5610 C 0.70911 0.29844 0.11424 0.0
C5611 C 0.69808 0.29573 0.11756 0.0
C5612 C 0.68886 0.29753 0.11008 0.0
C5613 C 0.69065 0.30202 0.09926 0.0
C5614 C 0.70166 0.30477 0.0959 0.0
C5615 C 0.75467 0.28672 0.06482 0.0
C5616 C 0.74784 0.28777 0.05488 0.0
C5617 C 0.7514 0.2916 0.07504 0.0
C5618 C 0.74137 0.29788 0.07549 0.0
C5619 C 0.73459 0.29894 0.06553 0.0
C5620 C 0.73776 0.29392 0.05538 0.0
C5621 C 0.73777 0.30325 0.08627 0.0
C5622 C 0.72663 0.30122 0.08987 0.0
C5623 C 0.74513 0.31031 0.093 0.0
C5624 C 0.75687 0.31315 0.08959 0.0
C5625 C 0.75888 0.31838 0.07906 0.0
C5626 C 0.77 0.32083 0.07582 0.0
C5627 C 0.77916 0.31815 0.08309 0.0
C5628 C 0.77723 0.31306 0.09362 0.0
C5629 C 0.76613 0.3106 0.0969 0.0
H5630 H 0.78776 0.32003 0.08056 0.0
H5631 H 0.68033 0.29541 0.11266 0.0
H5632 H 0.70938 0.3201 0.91378 0.0
H5633 H 0.71757 0.31089 0.93074 0.0
H5634 H 0.7492 0.32911 0.92598 0.0
H5635 H 0.74123 0.33802 0.90885 0.0
H5636 H 0.75321 0.3077 0.93187 0.0
H5637 H 0.72991 0.33749 0.94572 0.0
H5638 H 0.71222 0.34806 0.94768 0.0
H5639 H 0.69583 0.31829 0.96131 0.0
H5640 H 0.7134 0.3075 0.95929 0.0
H5641 H 0.77893 0.30349 0.98684 0.0
H5642 H 0.76976 0.31057 0.96939 0.0
H5643 H 0.74022 0.28951 0.97563 0.0
H5644 H 0.74934 0.28237 0.99315 0.0
H5645 H 0.73451 0.31114 0.96888 0.0
H5646 H 0.75825 0.28166 0.9561 0.0
H5647 H 0.7761 0.27128 0.95449 0.0
H5648 H 0.79177 0.30048 0.939 0.0
H5649 H 0.77406 0.31112 0.94069 0.0
C5650 C 0.71812 0.32205 0.91626 0.0
C5651 C 0.7246 0.3299 0.90997 0.0
C5652 C 0.72277 0.31685 0.92604 0.0
C5653 C 0.73397 0.31941 0.92976 0.0
C5654 C 0.74053 0.32702 0.92334 0.0
C5655 C 0.73591 0.3322 0.91358 0.0
C5656 C 0.73886 0.31433 0.94043 0.0
C5657 C 0.74917 0.30856 0.93998 0.0
C5658 C 0.73348 0.31518 0.95099 0.0
C5659 C 0.72293 0.32166 0.95223 0.0
C5660 C 0.72251 0.33318 0.94905 0.0
C5661 C 0.7125 0.33921 0.95019 0.0
C5662 C 0.70289 0.33384 0.95458 0.0
C5663 C 0.70327 0.32244 0.95788 0.0
C5664 C 0.71325 0.31636 0.95675 0.0
C5665 C 0.77047 0.30037 0.98454 0.0
C5666 C 0.76489 0.29232 0.9914 0.0
C5667 C 0.76525 0.3044 0.97451 0.0
C5668 C 0.75434 0.30049 0.97112 0.0
C5669 C 0.74865 0.29263 0.97805 0.0
C5670 C 0.75389 0.28853 0.98805 0.0
C5671 C 0.7489 0.30464 0.96033 0.0
C5672 C 0.73851 0.31023 0.96076 0.0
C5673 C 0.75421 0.30363 0.94975 0.0
C5674 C 0.76485 0.29723 0.94862 0.0
C5675 C 0.76552 0.2859 0.95243 0.0
C5676 C 0.77561 0.27997 0.95149 0.0
C5677 C 0.78507 0.28522 0.94667 0.0
C5678 C 0.78444 0.29642 0.94275 0.0
C5679 C 0.77437 0.30241 0.94369 0.0
H5680 H 0.79287 0.28061 0.94596 0.0
H5681 H 0.69516 0.33853 0.95546 0.0
H5682 H 0.708 0.70409 0.91938 0.0
H5683 H 0.71755 0.71218 0.93622 0.0
H5684 H 0.74312 0.72751 0.91529 0.0
H5685 H 0.73347 0.71958 0.89829 0.0
H5686 H 0.75224 0.71859 0.93597 0.0
H5687 H 0.72255 0.74355 0.92365 0.0
H5688 H 0.70303 0.74844 0.91762 0.0
H5689 H 0.6907 0.73662 0.94964 0.0
H5690 H 0.71015 0.7315 0.9558 0.0
H5691 H 0.77024 0.75968 0.97917 0.0
H5692 H 0.76511 0.74873 0.96197 0.0
H5693 H 0.73488 0.73604 0.978 0.0
H5694 H 0.73977 0.74727 0.99485 0.0
H5695 H 0.7291 0.74432 0.95868 0.0
H5696 H 0.75859 0.71896 0.9711 0.0
H5697 H 0.77801 0.7137 0.97715 0.0
H5698 H 0.7907 0.72592 0.94543 0.0
H5699 H 0.77136 0.7314 0.93924 0.0
C5700 C 0.71564 0.70919 0.9183 0.0
C5701 C 0.71983 0.7113 0.90739 0.0
C5702 C 0.72114 0.71377 0.92798 0.0
C5703 C 0.73099 0.72059 0.92704 0.0
C5704 C 0.73554 0.72228 0.91625 0.0
C5705 C 0.73001 0.71771 0.90652 0.0
C5706 C 0.73601 0.7265 0.93727 0.0
C5707 C 0.74724 0.72433 0.94088 0.0
C5708 C 0.72948 0.73388 0.94378 0.0
C5709 C 0.71779 0.73705 0.94014 0.0
C5710 C 0.71567 0.74192 0.92937 0.0
C5711 C 0.70462 0.74474 0.92594 0.0
C5712 C 0.69563 0.74282 0.93323 0.0
C5713 C 0.69767 0.7381 0.94399 0.0
C5714 C 0.70871 0.73524 0.94746 0.0
C5715 C 0.76272 0.75424 0.97911 0.0
C5716 C 0.75544 0.75425 0.98837 0.0
C5717 C 0.75974 0.74801 0.96926 0.0
C5718 C 0.74954 0.74154 0.96858 0.0
C5719 C 0.74272 0.74101 0.97818 0.0
C5720 C 0.74558 0.74735 0.98788 0.0
C5721 C 0.74528 0.73618 0.9577 0.0
C5722 C 0.73416 0.73856 0.95386 0.0
C5723 C 0.75193 0.72897 0.95106 0.0
C5724 C 0.76355 0.7257 0.95476 0.0
C5725 C 0.76553 0.72062 0.96545 0.0
C5726 C 0.77652 0.71758 0.9689 0.0
C5727 C 0.78559 0.71951 0.96169 0.0
C5728 C 0.78367 0.72445 0.95101 0.0
C5729 C 0.7727 0.72752 0.94753 0.0
H5730 H 0.79409 0.71715 0.96437 0.0
H5731 H 0.68708 0.74501 0.93056 0.0
H5732 H 0.32844 0.70661 0.90592 0.0
H5733 H 0.31966 0.71534 0.92223 0.0
H5734 H 0.34073 0.74534 0.91801 0.0
H5735 H 0.34945 0.73675 0.90168 0.0
H5736 H 0.34052 0.73913 0.93987 0.0
H5737 H 0.31235 0.7448 0.91008 0.0
H5738 H 0.29901 0.73891 0.89459 0.0
H5739 H 0.28086 0.71746 0.91774 0.0
H5740 H 0.29419 0.7231 0.93335 0.0
H5741 H 0.31268 0.77729 0.97544 0.0
H5742 H 0.3205 0.76781 0.95912 0.0
H5743 H 0.29832 0.73886 0.96462 0.0
H5744 H 0.29046 0.74829 0.98099 0.0
H5745 H 0.29892 0.74379 0.94246 0.0
H5746 H 0.3267 0.73824 0.97229 0.0
H5747 H 0.34 0.7439 0.98789 0.0
H5748 H 0.35891 0.76476 0.96481 0.0
H5749 H 0.34562 0.75934 0.9491 0.0
C5750 C 0.33113 0.71512 0.90837 0.0
C5751 C 0.33971 0.72093 0.90245 0.0
C5752 C 0.3261 0.7201 0.91773 0.0
C5753 C 0.32947 0.73106 0.92135 0.0
C5754 C 0.33801 0.73687 0.91545 0.0
C5755 C 0.34303 0.7319 0.90611 0.0
C5756 C 0.32427 0.73643 0.93137 0.0
C5757 C 0.33143 0.74027 0.94035 0.0
C5758 C 0.31238 0.73766 0.93221 0.0
C5759 C 0.30434 0.73428 0.92285 0.0
C5760 C 0.30557 0.73875 0.91185 0.0
C5761 C 0.298 0.73548 0.90305 0.0
C5762 C 0.28912 0.72779 0.90517 0.0
C5763 C 0.28776 0.72339 0.91611 0.0
C5764 C 0.29532 0.72663 0.92493 0.0
C5765 C 0.3095 0.76887 0.97327 0.0
C5766 C 0.30095 0.76357 0.97965 0.0
C5767 C 0.31399 0.76345 0.96389 0.0
C5768 C 0.31014 0.75252 0.96069 0.0
C5769 C 0.30146 0.74728 0.96689 0.0
C5770 C 0.29694 0.75271 0.97627 0.0
C5771 C 0.31519 0.74659 0.9509 0.0
C5772 C 0.308 0.74263 0.94198 0.0
C5773 C 0.32707 0.74521 0.95012 0.0
C5774 C 0.33509 0.74846 0.95954 0.0
C5775 C 0.33364 0.7441 0.97056 0.0
C5776 C 0.34119 0.74725 0.97942 0.0
C5777 C 0.35028 0.75471 0.97735 0.0
C5778 C 0.35185 0.759 0.96641 0.0
C5779 C 0.34432 0.75588 0.95752 0.0
H5780 H 0.35611 0.75714 0.98422 0.0
H5781 H 0.28326 0.72527 0.89835 0.0
H5782 H 0.32229 0.32158 0.90219 0.0
H5783 H 0.31607 0.31133 0.9191 0.0
H5784 H 0.34728 0.321 0.93683 0.0
H5785 H 0.35368 0.33107 0.91985 0.0
H5786 H 0.3417 0.29883 0.94083 0.0
H5787 H 0.3227 0.33455 0.94189 0.0
H5788 H 0.31064 0.34988 0.93433 0.0
H5789 H 0.28249 0.32635 0.93053 0.0
H5790 H 0.29443 0.31084 0.93793 0.0
H5791 H 0.32486 0.28529 0.99691 0.0
H5792 H 0.33145 0.29465 0.97967 0.0
H5793 H 0.29904 0.28751 0.96299 0.0
H5794 H 0.29236 0.27829 0.9803 0.0
H5795 H 0.30527 0.30828 0.95827 0.0
H5796 H 0.32391 0.27255 0.95715 0.0
H5797 H 0.33582 0.25697 0.96444 0.0
H5798 H 0.36438 0.28003 0.96798 0.0
H5799 H 0.3526 0.29578 0.96085 0.0
C5800 C 0.32791 0.32144 0.90964 0.0
C5801 C 0.3385 0.3272 0.90962 0.0
C5802 C 0.32428 0.31565 0.91935 0.0
C5803 C 0.33113 0.31548 0.92933 0.0
C5804 C 0.3418 0.32103 0.92928 0.0
C5805 C 0.34542 0.32686 0.91958 0.0
C5806 C 0.32715 0.3096 0.93981 0.0
C5807 C 0.3338 0.301 0.94473 0.0
C5808 C 0.3167 0.31219 0.94477 0.0
C5809 C 0.30949 0.32151 0.94036 0.0
C5810 C 0.31396 0.33263 0.93936 0.0
C5811 C 0.30714 0.34135 0.93512 0.0
C5812 C 0.29581 0.33909 0.93193 0.0
C5813 C 0.29127 0.32809 0.933 0.0
C5814 C 0.29806 0.31933 0.93722 0.0
C5815 C 0.31917 0.2856 0.98954 0.0
C5816 C 0.30808 0.28099 0.99002 0.0
C5817 C 0.32296 0.29096 0.97965 0.0
C5818 C 0.31582 0.29169 0.9699 0.0
C5819 C 0.30474 0.2871 0.97036 0.0
C5820 C 0.30091 0.28183 0.98029 0.0
C5821 C 0.3198 0.29746 0.95932 0.0
C5822 C 0.31315 0.30607 0.95438 0.0
C5823 C 0.33023 0.29482 0.95431 0.0
C5824 C 0.33734 0.28536 0.95856 0.0
C5825 C 0.33271 0.27431 0.95956 0.0
C5826 C 0.33944 0.26545 0.96365 0.0
C5827 C 0.35084 0.26752 0.9667 0.0
C5828 C 0.35555 0.27844 0.96563 0.0
C5829 C 0.34885 0.28734 0.96155 0.0
H5830 H 0.35604 0.26064 0.96986 0.0
H5831 H 0.29054 0.34586 0.92865 0.0
H5832 H 0.6217 0.69423 0.21526 0.0
H5833 H 0.60521 0.69917 0.22628 0.0
H5834 H 0.60582 0.73285 0.21169 0.0
H5835 H 0.62252 0.72813 0.20101 0.0
H5836 H 0.60181 0.7342 0.23348 0.0
H5837 H 0.58655 0.71188 0.20247 0.0
H5838 H 0.58464 0.69514 0.19002 0.0
H5839 H 0.57572 0.6743 0.21857 0.0
H5840 H 0.57773 0.6909 0.23122 0.0
H5841 H 0.5462 0.7516 0.2445 0.0
H5842 H 0.56303 0.74539 0.23512 0.0
H5843 H 0.56196 0.71384 0.25378 0.0
H5844 H 0.54512 0.71997 0.26341 0.0
H5845 H 0.56637 0.71075 0.23092 0.0
H5846 H 0.58095 0.73388 0.26173 0.0
H5847 H 0.58186 0.75119 0.27344 0.0
H5848 H 0.59135 0.77099 0.24436 0.0
H5849 H 0.59037 0.75384 0.23247 0.0
C5850 C 0.61841 0.70273 0.21449 0.0
C5851 C 0.62344 0.71074 0.20715 0.0
C5852 C 0.60889 0.70552 0.22071 0.0
C5853 C 0.60412 0.71635 0.21972 0.0
C5854 C 0.60927 0.72442 0.21259 0.0
C5855 C 0.61878 0.72165 0.20639 0.0
C5856 C 0.59375 0.71932 0.22602 0.0
C5857 C 0.59404 0.72911 0.23281 0.0
C5858 C 0.58363 0.7126 0.22539 0.0
C5859 C 0.58242 0.70261 0.21781 0.0
C5860 C 0.58428 0.70371 0.20611 0.0
C5861 C 0.58316 0.69425 0.19901 0.0
C5862 C 0.58009 0.68366 0.2035 0.0
C5863 C 0.57811 0.68251 0.2151 0.0
C5864 C 0.57924 0.69194 0.22224 0.0
C5865 C 0.54946 0.74336 0.24677 0.0
C5866 C 0.54414 0.7364 0.25492 0.0
C5867 C 0.55917 0.73981 0.24132 0.0
C5868 C 0.56387 0.7292 0.24382 0.0
C5869 C 0.5585 0.72208 0.25171 0.0
C5870 C 0.54881 0.72565 0.25724 0.0
C5871 C 0.57444 0.72564 0.23826 0.0
C5872 C 0.57418 0.71577 0.23163 0.0
C5873 C 0.58457 0.73231 0.23896 0.0
C5874 C 0.58551 0.74259 0.24619 0.0
C5875 C 0.58319 0.74194 0.25783 0.0
C5876 C 0.58372 0.75173 0.26451 0.0
C5877 C 0.58664 0.7622 0.25966 0.0
C5878 C 0.58909 0.76289 0.24813 0.0
C5879 C 0.58857 0.75314 0.24142 0.0
H5880 H 0.587 0.76976 0.26485 0.0
H5881 H 0.57922 0.67635 0.19799 0.0
H5882 H 0.30851 0.63683 0.2026 0.0
H5883 H 0.29819 0.6197 0.20864 0.0
H5884 H 0.32994 0.60322 0.21603 0.0
H5885 H 0.34031 0.62016 0.20967 0.0
H5886 H 0.31557 0.58894 0.20543 0.0
H5887 H 0.31363 0.61412 0.23717 0.0
H5888 H 0.30936 0.63186 0.24708 0.0
H5889 H 0.27407 0.6278 0.23754 0.0
H5890 H 0.27815 0.61012 0.22742 0.0
H5891 H 0.29438 0.54282 0.23838 0.0
H5892 H 0.30438 0.55991 0.23185 0.0
H5893 H 0.27232 0.57601 0.225 0.0
H5894 H 0.26229 0.5591 0.2319 0.0
H5895 H 0.28665 0.59051 0.23515 0.0
H5896 H 0.2886 0.56529 0.2034 0.0
H5897 H 0.29288 0.54744 0.19369 0.0
H5898 H 0.32814 0.55149 0.20339 0.0
H5899 H 0.32405 0.5693 0.21329 0.0
C5900 C 0.31331 0.62953 0.2054 0.0
C5901 C 0.32528 0.62994 0.20568 0.0
C5902 C 0.30738 0.61976 0.20897 0.0
C5903 C 0.31326 0.61018 0.21295 0.0
C5904 C 0.32519 0.6105 0.21306 0.0
C5905 C 0.33112 0.62025 0.2095 0.0
C5906 C 0.30702 0.59979 0.21695 0.0
C5907 C 0.30935 0.58928 0.21203 0.0
C5908 C 0.29869 0.60021 0.22538 0.0
C5909 C 0.29623 0.61086 0.23142 0.0
C5910 C 0.30498 0.61707 0.23709 0.0
C5911 C 0.30259 0.6271 0.24277 0.0
C5912 C 0.29146 0.63097 0.24291 0.0
C5913 C 0.28269 0.6248 0.2374 0.0
C5914 C 0.28504 0.61477 0.2317 0.0
C5915 C 0.28944 0.54999 0.23553 0.0
C5916 C 0.27749 0.54949 0.23562 0.0
C5917 C 0.29518 0.55975 0.23169 0.0
C5918 C 0.28913 0.56924 0.22775 0.0
C5919 C 0.27721 0.5688 0.22792 0.0
C5920 C 0.27146 0.55905 0.23176 0.0
C5921 C 0.2952 0.57966 0.22362 0.0
C5922 C 0.29285 0.59018 0.22852 0.0
C5923 C 0.30351 0.57925 0.21517 0.0
C5924 C 0.306 0.56857 0.20918 0.0
C5925 C 0.29726 0.56233 0.20353 0.0
C5926 C 0.29965 0.55223 0.19798 0.0
C5927 C 0.31077 0.54832 0.19795 0.0
C5928 C 0.31953 0.55452 0.20344 0.0
C5929 C 0.31718 0.56463 0.20901 0.0
H5930 H 0.3126 0.54049 0.19365 0.0
H5931 H 0.28962 0.63874 0.24731 0.0
H5932 H 0.4031 0.30626 0.21916 0.0
H5933 H 0.42003 0.29732 0.22719 0.0
H5934 H 0.44098 0.3241 0.21329 0.0
H5935 H 0.42406 0.33287 0.20477 0.0
H5936 H 0.45075 0.30434 0.21019 0.0
H5937 H 0.43521 0.32259 0.24209 0.0
H5938 H 0.42051 0.32774 0.25553 0.0
H5939 H 0.41654 0.29275 0.26535 0.0
H5940 H 0.43111 0.28736 0.25185 0.0
H5941 H 0.49986 0.28873 0.2449 0.0
H5942 H 0.48412 0.2986 0.23528 0.0
H5943 H 0.46082 0.27224 0.24598 0.0
H5944 H 0.47641 0.26237 0.25558 0.0
H5945 H 0.45294 0.29296 0.2508 0.0
H5946 H 0.46841 0.2749 0.21823 0.0
H5947 H 0.48342 0.27019 0.20496 0.0
H5948 H 0.48799 0.30554 0.19677 0.0
H5949 H 0.47311 0.31047 0.21012 0.0
C5950 C 0.41129 0.31025 0.21771 0.0
C5951 C 0.41212 0.32033 0.21126 0.0
C5952 C 0.42101 0.30516 0.22244 0.0
C5953 C 0.43186 0.31006 0.22101 0.0
C5954 C 0.43274 0.32013 0.21458 0.0
C5955 C 0.42301 0.32522 0.2098 0.0
C5956 C 0.44222 0.30459 0.22613 0.0
C5957 C 0.45129 0.30202 0.21912 0.0
C5958 C 0.44295 0.30137 0.23774 0.0
C5959 C 0.43418 0.30456 0.24588 0.0
C5960 C 0.43114 0.31598 0.24705 0.0
C5961 C 0.42284 0.31894 0.25469 0.0
C5962 C 0.41758 0.31057 0.26127 0.0
C5963 C 0.42062 0.29922 0.26024 0.0
C5964 C 0.42891 0.29621 0.2526 0.0
C5965 C 0.49142 0.28493 0.24504 0.0
C5966 C 0.48946 0.27472 0.25104 0.0
C5967 C 0.4824 0.2906 0.23953 0.0
C5968 C 0.47122 0.2862 0.23989 0.0
C5969 C 0.46932 0.27586 0.2456 0.0
C5970 C 0.47831 0.27018 0.25105 0.0
C5971 C 0.46138 0.29255 0.23483 0.0
C5972 C 0.45241 0.29531 0.24188 0.0
C5973 C 0.4608 0.29601 0.22329 0.0
C5974 C 0.46974 0.29306 0.21527 0.0
C5975 C 0.47269 0.28168 0.21368 0.0
C5976 C 0.48116 0.27897 0.20612 0.0
C5977 C 0.48668 0.28757 0.20005 0.0
C5978 C 0.48372 0.29889 0.2015 0.0
C5979 C 0.47526 0.30165 0.20905 0.0
H5980 H 0.49323 0.28545 0.19421 0.0
H5981 H 0.41116 0.31288 0.26718 0.0
H5982 H 0.72609 0.40888 0.21927 0.0
H5983 H 0.73522 0.42595 0.22737 0.0
H5984 H 0.70238 0.43922 0.23472 0.0
H5985 H 0.69319 0.42238 0.22628 0.0
H5986 H 0.71534 0.45558 0.22653 0.0
H5987 H 0.71977 0.42763 0.25557 0.0
H5988 H 0.72514 0.40937 0.26431 0.0
H5989 H 0.76009 0.41614 0.25687 0.0
H5990 H 0.75492 0.43436 0.24789 0.0
H5991 H 0.74149 0.50047 0.26059 0.0
H5992 H 0.72972 0.48352 0.25574 0.0
H5993 H 0.75917 0.46715 0.24299 0.0
H5994 H 0.77079 0.48389 0.24764 0.0
H5995 H 0.74619 0.45265 0.25591 0.0
H5996 H 0.74102 0.47956 0.22496 0.0
H5997 H 0.73556 0.49797 0.21657 0.0
H5998 H 0.70168 0.49317 0.22848 0.0
H5999 H 0.707 0.47478 0.23708 0.0
C6000 C 0.72079 0.41548 0.2225 0.0
C6001 C 0.70889 0.41418 0.22217 0.0
C6002 C 0.72604 0.4252 0.22726 0.0
C6003 C 0.71951 0.43383 0.23186 0.0
C6004 C 0.70762 0.43267 0.23132 0.0
C6005 C 0.70238 0.42296 0.22656 0.0
C6006 C 0.72508 0.44412 0.23711 0.0
C6007 C 0.72195 0.45492 0.2331 0.0
C6008 C 0.73378 0.44333 0.24563 0.0
C6009 C 0.73692 0.43232 0.25093 0.0
C6010 C 0.72858 0.42518 0.25568 0.0
C6011 C 0.7316 0.41484 0.2607 0.0
C6012 C 0.74294 0.41158 0.26111 0.0
C6013 C 0.7513 0.41866 0.25652 0.0
C6014 C 0.74833 0.429 0.25147 0.0
C6015 C 0.74543 0.49319 0.25686 0.0
C6016 C 0.75704 0.49355 0.2544 0.0
C6017 C 0.73871 0.48355 0.25405 0.0
C6018 C 0.74355 0.47409 0.24892 0.0
C6019 C 0.75522 0.47432 0.24691 0.0
C6020 C 0.76185 0.48395 0.24954 0.0
C6021 C 0.73659 0.46402 0.24517 0.0
C6022 C 0.73947 0.45327 0.24945 0.0
C6023 C 0.72764 0.46485 0.23696 0.0
C6024 C 0.72444 0.47588 0.23179 0.0
C6025 C 0.73243 0.48248 0.22588 0.0
C6026 C 0.72936 0.4929 0.22107 0.0
C6027 C 0.71829 0.49676 0.22203 0.0
C6028 C 0.71026 0.49018 0.22777 0.0
C6029 C 0.7133 0.47976 0.23261 0.0
H6030 H 0.71592 0.50482 0.2183 0.0
H6031 H 0.74526 0.40358 0.26502 0.0
H6032 H 0.63514 0.32706 0.81635 0.0
H6033 H 0.61748 0.319 0.80807 0.0
H6034 H 0.61361 0.29766 0.83764 0.0
H6035 H 0.63121 0.30567 0.84596 0.0
H6036 H 0.60864 0.28569 0.81921 0.0
H6037 H 0.59788 0.32187 0.83349 0.0
H6038 H 0.59899 0.34268 0.83572 0.0
H6039 H 0.59238 0.34705 0.79993 0.0
H6040 H 0.59138 0.32625 0.79746 0.0
H6041 H 0.54329 0.29145 0.80424 0.0
H6042 H 0.561 0.29758 0.81384 0.0
H6043 H 0.58006 0.27854 0.78997 0.0
H6044 H 0.56235 0.27217 0.78046 0.0
H6045 H 0.57725 0.31051 0.80626 0.0
H6046 H 0.6057 0.27135 0.80175 0.0
H6047 H 0.60386 0.25045 0.80127 0.0
H6048 H 0.57363 0.25182 0.82069 0.0
H6049 H 0.57537 0.27271 0.82141 0.0
C6050 C 0.6305 0.32072 0.82114 0.0
C6051 C 0.63465 0.31703 0.83184 0.0
C6052 C 0.62039 0.31609 0.81637 0.0
C6053 C 0.61412 0.30775 0.82224 0.0
C6054 C 0.61829 0.30402 0.83289 0.0
C6055 C 0.62839 0.30861 0.83763 0.0
C6056 C 0.60318 0.30298 0.81738 0.0
C6057 C 0.60179 0.29113 0.81635 0.0
C6058 C 0.59411 0.31 0.81382 0.0
C6059 C 0.59467 0.32251 0.81528 0.0
C6060 C 0.59675 0.32727 0.82608 0.0
C6061 C 0.59735 0.33906 0.82739 0.0
C6062 C 0.59579 0.34618 0.81797 0.0
C6063 C 0.5936 0.34152 0.80722 0.0
C6064 C 0.59301 0.32974 0.80586 0.0
C6065 C 0.55123 0.28837 0.80114 0.0
C6066 C 0.55135 0.28128 0.79157 0.0
C6067 C 0.56138 0.29196 0.80661 0.0
C6068 C 0.57193 0.28857 0.80267 0.0
C6069 C 0.57207 0.28119 0.79331 0.0
C6070 C 0.5619 0.27753 0.78787 0.0
C6071 C 0.58272 0.29322 0.80799 0.0
C6072 C 0.5841 0.30505 0.80908 0.0
C6073 C 0.59169 0.28617 0.81181 0.0
C6074 C 0.59061 0.2736 0.81153 0.0
C6075 C 0.59868 0.26719 0.80595 0.0
C6076 C 0.59765 0.25534 0.80563 0.0
C6077 C 0.58861 0.24981 0.81091 0.0
C6078 C 0.5806 0.25611 0.81656 0.0
C6079 C 0.5816 0.26796 0.81691 0.0
H6080 H 0.58782 0.24064 0.81065 0.0
H6081 H 0.59625 0.35531 0.819 0.0
H6082 H 0.72104 0.61711 0.83701 0.0
H6083 H 0.72778 0.60069 0.82685 0.0
H6084 H 0.72224 0.6181 0.79494 0.0
H6085 H 0.71554 0.63474 0.80512 0.0
H6086 H 0.71605 0.59496 0.79364 0.0
H6087 H 0.74843 0.61724 0.80568 0.0
H6088 H 0.76068 0.62814 0.81919 0.0
H6089 H 0.76503 0.59832 0.8399 0.0
H6090 H 0.75266 0.58727 0.82659 0.0
H6091 H 0.75315 0.55405 0.76677 0.0
H6092 H 0.74295 0.57107 0.77263 0.0
H6093 H 0.74733 0.561 0.80773 0.0
H6094 H 0.75751 0.5443 0.80199 0.0
H6095 H 0.75463 0.58215 0.80492 0.0
H6096 H 0.72115 0.56019 0.79338 0.0
H6097 H 0.7088 0.5494 0.77987 0.0
H6098 H 0.70676 0.57858 0.75792 0.0
H6099 H 0.71923 0.58951 0.77125 0.0
C6100 C 0.72127 0.61752 0.82783 0.0
C6101 C 0.71791 0.62739 0.82193 0.0
C6102 C 0.72509 0.60806 0.82201 0.0
C6103 C 0.72571 0.60818 0.81011 0.0
C6104 C 0.72187 0.61779 0.80411 0.0
C6105 C 0.71802 0.62731 0.80996 0.0
C6106 C 0.73094 0.59847 0.80416 0.0
C6107 C 0.72455 0.59225 0.79596 0.0
C6108 C 0.74202 0.59486 0.8072 0.0
C6109 C 0.74955 0.60145 0.81518 0.0
C6110 C 0.75194 0.61302 0.81316 0.0
C6111 C 0.75891 0.61923 0.82077 0.0
C6112 C 0.76361 0.61394 0.83041 0.0
C6113 C 0.76137 0.60241 0.83243 0.0
C6114 C 0.75439 0.59617 0.82485 0.0
C6115 C 0.75166 0.55536 0.7757 0.0
C6116 C 0.75618 0.54785 0.78392 0.0
C6117 C 0.74587 0.56511 0.77905 0.0
C6118 C 0.74443 0.56742 0.79066 0.0
C6119 C 0.74841 0.55954 0.79875 0.0
C6120 C 0.75421 0.54994 0.79543 0.0
C6121 C 0.7396 0.57832 0.79468 0.0
C6122 C 0.74614 0.58486 0.8025 0.0
C6123 C 0.7287 0.58218 0.79125 0.0
C6124 C 0.72123 0.57562 0.78324 0.0
C6125 C 0.71816 0.56427 0.78562 0.0
C6126 C 0.71111 0.55814 0.77801 0.0
C6127 C 0.70703 0.56329 0.76802 0.0
C6128 C 0.70995 0.57459 0.76565 0.0
C6129 C 0.717 0.58076 0.77323 0.0
H6130 H 0.70158 0.55852 0.76214 0.0
H6131 H 0.769 0.61876 0.8363 0.0
H6132 H 0.41345 0.72189 0.82451 0.0
H6133 H 0.43012 0.7312 0.81651 0.0
H6134 H 0.43367 0.7032 0.79353 0.0
H6135 H 0.41727 0.69358 0.80183 0.0
H6136 H 0.45401 0.70978 0.80149 0.0
H6137 H 0.42246 0.72865 0.78433 0.0
H6138 H 0.40431 0.73876 0.78359 0.0
H6139 H 0.41941 0.76593 0.80334 0.0
H6140 H 0.43761 0.75592 0.80435 0.0
H6141 H 0.49503 0.74426 0.77023 0.0
H6142 H 0.47824 0.73228 0.77455 0.0
H6143 H 0.47029 0.75488 0.80175 0.0
H6144 H 0.48674 0.76667 0.7976 0.0
H6145 H 0.45162 0.74986 0.78861 0.0
H6146 H 0.48264 0.72965 0.80715 0.0
H6147 H 0.50071 0.71941 0.80758 0.0
H6148 H 0.48641 0.69468 0.78433 0.0
H6149 H 0.46828 0.70487 0.78366 0.0
C6150 C 0.41783 0.71761 0.81785 0.0
C6151 C 0.4139 0.70697 0.81381 0.0
C6152 C 0.42731 0.72303 0.81317 0.0
C6153 C 0.43309 0.71803 0.80424 0.0
C6154 C 0.42935 0.7073 0.80034 0.0
C6155 C 0.41987 0.70185 0.80504 0.0
C6156 C 0.44297 0.72403 0.79901 0.0
C6157 C 0.45342 0.71848 0.7985 0.0
C6158 C 0.4423 0.7354 0.79509 0.0
C6159 C 0.43138 0.74148 0.79449 0.0
C6160 C 0.42189 0.73674 0.78859 0.0
C6161 C 0.4116 0.74246 0.78811 0.0
C6162 C 0.4107 0.75297 0.79343 0.0
C6163 C 0.42011 0.75779 0.79923 0.0
C6164 C 0.43042 0.7521 0.79975 0.0
C6165 C 0.48969 0.74663 0.77712 0.0
C6166 C 0.49229 0.75643 0.78356 0.0
C6167 C 0.48012 0.73978 0.77961 0.0
C6168 C 0.47297 0.74268 0.7885 0.0
C6169 C 0.47559 0.75247 0.79483 0.0
C6170 C 0.4851 0.7592 0.79244 0.0
C6171 C 0.4627 0.73574 0.79141 0.0
C6172 C 0.45216 0.7411 0.79147 0.0
C6173 C 0.46329 0.72421 0.79483 0.0
C6174 C 0.47416 0.7181 0.79524 0.0
C6175 C 0.48338 0.72208 0.80205 0.0
C6176 C 0.49363 0.71628 0.80236 0.0
C6177 C 0.49472 0.70642 0.79596 0.0
C6178 C 0.48556 0.70233 0.78927 0.0
C6179 C 0.4753 0.70811 0.78892 0.0
H6180 H 0.50266 0.70194 0.79621 0.0
H6181 H 0.40273 0.75738 0.79305 0.0
H6182 H 0.32512 0.40569 0.82388 0.0
H6183 H 0.31633 0.42265 0.81558 0.0
H6184 H 0.34945 0.43621 0.80764 0.0
H6185 H 0.35827 0.41954 0.81623 0.0
H6186 H 0.33682 0.45252 0.81556 0.0
H6187 H 0.3315 0.42301 0.78753 0.0
H6188 H 0.32482 0.40439 0.78023 0.0
H6189 H 0.29041 0.41282 0.78715 0.0
H6190 H 0.29691 0.43144 0.79466 0.0
H6191 H 0.32326 0.49412 0.77406 0.0
H6192 H 0.3303 0.47734 0.78406 0.0
H6193 H 0.29589 0.46633 0.79026 0.0
H6194 H 0.28877 0.48291 0.77993 0.0
H6195 H 0.30801 0.44878 0.78418 0.0
H6196 H 0.313 0.47848 0.81144 0.0
H6197 H 0.31945 0.49717 0.81872 0.0
H6198 H 0.35412 0.48848 0.81343 0.0
H6199 H 0.34787 0.46978 0.80596 0.0
C6200 C 0.33054 0.41235 0.8205 0.0
C6201 C 0.34241 0.41116 0.82065 0.0
C6202 C 0.32549 0.422 0.81565 0.0
C6203 C 0.3322 0.43067 0.8108 0.0
C6204 C 0.34406 0.42964 0.81125 0.0
C6205 C 0.3491 0.42003 0.81609 0.0
C6206 C 0.32698 0.44077 0.80513 0.0
C6207 C 0.3306 0.45168 0.80862 0.0
C6208 C 0.31862 0.43976 0.79627 0.0
C6209 C 0.31471 0.42856 0.79179 0.0
C6210 C 0.32252 0.42085 0.78759 0.0
C6211 C 0.31877 0.4103 0.7834 0.0
C6212 C 0.3072 0.40741 0.78327 0.0
C6213 C 0.29937 0.41507 0.78729 0.0
C6214 C 0.30308 0.42561 0.79152 0.0
C6215 C 0.31716 0.48811 0.77746 0.0
C6216 C 0.30543 0.48997 0.77621 0.0
C6217 C 0.32122 0.47854 0.7833 0.0
C6218 C 0.31365 0.47062 0.78811 0.0
C6219 C 0.30192 0.47234 0.78671 0.0
C6220 C 0.29786 0.48191 0.78087 0.0
C6221 C 0.31797 0.46051 0.7945 0.0
C6222 C 0.31418 0.44962 0.79116 0.0
C6223 C 0.32615 0.46153 0.80352 0.0
C6224 C 0.32995 0.47276 0.80804 0.0
C6225 C 0.32199 0.48058 0.81174 0.0
C6226 C 0.32562 0.49118 0.81592 0.0
C6227 C 0.33719 0.49403 0.81651 0.0
C6228 C 0.34516 0.48627 0.81295 0.0
C6229 C 0.34158 0.47567 0.80875 0.0
H6230 H 0.33998 0.50223 0.81975 0.0
H6231 H 0.30431 0.39924 0.78001 0.0
H6232 H 0.7122 0.62638 0.19025 0.0
H6233 H 0.72391 0.61023 0.19586 0.0
H6234 H 0.72386 0.6212 0.23074 0.0
H6235 H 0.71252 0.63756 0.22514 0.0
H6236 H 0.74441 0.61446 0.22567 0.0
H6237 H 0.70655 0.59912 0.22092 0.0
H6238 H 0.68832 0.59511 0.21078 0.0
H6239 H 0.70568 0.57712 0.18507 0.0
H6240 H 0.72405 0.58116 0.19498 0.0
H6241 H 0.76053 0.56337 0.25348 0.0
H6242 H 0.75021 0.5799 0.24647 0.0
H6243 H 0.75287 0.56803 0.21209 0.0
H6244 H 0.76301 0.5513 0.21909 0.0
H6245 H 0.73153 0.5752 0.21614 0.0
H6246 H 0.76946 0.59 0.22171 0.0
H6247 H 0.78744 0.5938 0.23237 0.0
H6248 H 0.76962 0.61265 0.25713 0.0
H6249 H 0.7515 0.60883 0.24668 0.0
C6250 C 0.71479 0.62545 0.19909 0.0
C6251 C 0.71132 0.63327 0.20724 0.0
C6252 C 0.7214 0.61613 0.20232 0.0
C6253 C 0.72465 0.61437 0.21377 0.0
C6254 C 0.72143 0.62231 0.22187 0.0
C6255 C 0.71484 0.63162 0.21865 0.0
C6256 C 0.73131 0.60423 0.21737 0.0
C6257 C 0.74152 0.60587 0.22368 0.0
C6258 C 0.72771 0.593 0.2146 0.0
C6259 C 0.71669 0.59056 0.20862 0.0
C6260 C 0.70649 0.59439 0.21305 0.0
C6261 C 0.69613 0.5921 0.20735 0.0
C6262 C 0.69585 0.58589 0.19727 0.0
C6263 C 0.70592 0.58195 0.19287 0.0
C6264 C 0.71631 0.58423 0.19853 0.0
C6265 C 0.75888 0.56421 0.24443 0.0
C6266 C 0.76262 0.55596 0.23686 0.0
C6267 C 0.75305 0.57374 0.24042 0.0
C6268 C 0.75084 0.5753 0.22873 0.0
C6269 C 0.7545 0.56705 0.22114 0.0
C6270 C 0.76038 0.55753 0.22515 0.0
C6271 C 0.74458 0.58544 0.22447 0.0
C6272 C 0.73445 0.58379 0.21806 0.0
C6273 C 0.74821 0.59666 0.2272 0.0
C6274 C 0.75911 0.59904 0.23346 0.0
C6275 C 0.76936 0.59489 0.22947 0.0
C6276 C 0.77958 0.59706 0.23547 0.0
C6277 C 0.77967 0.60344 0.24544 0.0
C6278 C 0.76954 0.6077 0.24941 0.0
C6279 C 0.75929 0.60554 0.24345 0.0
H6280 H 0.78759 0.60511 0.25007 0.0
H6281 H 0.68782 0.58412 0.19287 0.0
H6282 H 0.72316 0.41195 0.84213 0.0
H6283 H 0.73412 0.42877 0.83639 0.0
H6284 H 0.72378 0.42301 0.80144 0.0
H6285 H 0.71317 0.40596 0.80704 0.0
H6286 H 0.74565 0.42885 0.80275 0.0
H6287 H 0.71144 0.44358 0.81784 0.0
H6288 H 0.69694 0.44609 0.83226 0.0
H6289 H 0.72234 0.45983 0.85549 0.0
H6290 H 0.73703 0.45726 0.84126 0.0
H6291 H 0.76027 0.48293 0.78011 0.0
H6292 H 0.75016 0.46586 0.78633 0.0
H6293 H 0.76043 0.4729 0.82106 0.0
H6294 H 0.77014 0.49028 0.81498 0.0
H6295 H 0.73897 0.46629 0.8202 0.0
H6296 H 0.77315 0.45196 0.80499 0.0
H6297 H 0.78764 0.44956 0.79054 0.0
H6298 H 0.7624 0.43513 0.76756 0.0
H6299 H 0.74772 0.43758 0.78183 0.0
C6300 C 0.7233 0.41417 0.8332 0.0
C6301 C 0.71719 0.40757 0.82508 0.0
C6302 C 0.72949 0.42389 0.82994 0.0
C6303 C 0.72967 0.4273 0.81848 0.0
C6304 C 0.72375 0.42062 0.81033 0.0
C6305 C 0.71758 0.41091 0.81358 0.0
C6306 C 0.73598 0.43782 0.81495 0.0
C6307 C 0.74409 0.43706 0.80648 0.0
C6308 C 0.73417 0.44853 0.81997 0.0
C6309 C 0.72535 0.45011 0.82853 0.0
C6310 C 0.71395 0.44705 0.82606 0.0
C6311 C 0.70569 0.4485 0.83419 0.0
C6312 C 0.70872 0.45308 0.84479 0.0
C6313 C 0.72001 0.45626 0.84728 0.0
C6314 C 0.7283 0.45482 0.83918 0.0
C6315 C 0.76033 0.48096 0.78909 0.0
C6316 C 0.7661 0.4881 0.797 0.0
C6317 C 0.75462 0.47107 0.79263 0.0
C6318 C 0.75464 0.46794 0.80417 0.0
C6319 C 0.76031 0.47506 0.81211 0.0
C6320 C 0.76597 0.485 0.80858 0.0
C6321 C 0.74863 0.45734 0.80797 0.0
C6322 C 0.74057 0.45809 0.81649 0.0
C6323 C 0.75049 0.44662 0.803 0.0
C6324 C 0.75932 0.44504 0.79444 0.0
C6325 C 0.77068 0.44834 0.79683 0.0
C6326 C 0.77892 0.44696 0.78867 0.0
C6327 C 0.77594 0.44222 0.77813 0.0
C6328 C 0.7647 0.43881 0.77573 0.0
C6329 C 0.75641 0.44018 0.78385 0.0
H6330 H 0.78233 0.44117 0.77182 0.0
H6331 H 0.70232 0.4542 0.85108 0.0
H6332 H 0.62243 0.69956 0.82876 0.0
H6333 H 0.60587 0.71061 0.82301 0.0
H6334 H 0.62779 0.73888 0.81428 0.0
H6335 H 0.64443 0.72786 0.82001 0.0
H6336 H 0.60982 0.74644 0.82468 0.0
H6337 H 0.61561 0.72132 0.7937 0.0
H6338 H 0.61834 0.70287 0.78445 0.0
H6339 H 0.58574 0.69111 0.79555 0.0
H6340 H 0.58288 0.70945 0.805 0.0
H6341 H 0.56077 0.76016 0.78052 0.0
H6342 H 0.578 0.75006 0.78607 0.0
H6343 H 0.56976 0.75317 0.82133 0.0
H6344 H 0.5525 0.76322 0.81586 0.0
H6345 H 0.58162 0.73056 0.79665 0.0
H6346 H 0.5941 0.75542 0.83764 0.0
H6347 H 0.59238 0.7747 0.84543 0.0
H6348 H 0.5902 0.78853 0.81163 0.0
H6349 H 0.59206 0.76936 0.80365 0.0
C6350 C 0.62376 0.70811 0.82555 0.0
C6351 C 0.63483 0.71275 0.82478 0.0
C6352 C 0.61425 0.71444 0.82228 0.0
C6353 C 0.61553 0.72556 0.81803 0.0
C6354 C 0.62654 0.73033 0.81751 0.0
C6355 C 0.63607 0.72401 0.82083 0.0
C6356 C 0.60541 0.73213 0.81402 0.0
C6357 C 0.60365 0.74295 0.81857 0.0
C6358 C 0.59742 0.72773 0.80586 0.0
C6359 C 0.59908 0.71672 0.80014 0.0
C6360 C 0.60906 0.71477 0.79424 0.0
C6361 C 0.61062 0.70434 0.78895 0.0
C6362 C 0.60223 0.69582 0.78944 0.0
C6363 C 0.59224 0.69772 0.79519 0.0
C6364 C 0.59064 0.70813 0.80051 0.0
C6365 C 0.56254 0.75865 0.78946 0.0
C6366 C 0.55516 0.76258 0.79772 0.0
C6367 C 0.57246 0.75288 0.79263 0.0
C6368 C 0.5753 0.75092 0.80414 0.0
C6369 C 0.56791 0.75474 0.8124 0.0
C6370 C 0.55801 0.76052 0.80924 0.0
C6371 C 0.58591 0.74478 0.80748 0.0
C6372 C 0.58776 0.73405 0.80279 0.0
C6373 C 0.5941 0.74936 0.81534 0.0
C6374 C 0.5931 0.76094 0.82006 0.0
C6375 C 0.59329 0.76258 0.83187 0.0
C6376 C 0.59229 0.77349 0.83632 0.0
C6377 C 0.59114 0.78283 0.82903 0.0
C6378 C 0.59104 0.78128 0.81727 0.0
C6379 C 0.59205 0.7704 0.81278 0.0
H6380 H 0.59036 0.79126 0.83249 0.0
H6381 H 0.60345 0.68775 0.78534 0.0
H6382 H 0.31777 0.62214 0.84555 0.0
H6383 H 0.30886 0.60528 0.83685 0.0
H6384 H 0.32074 0.61601 0.80412 0.0
H6385 H 0.3293 0.63312 0.81268 0.0
H6386 H 0.29937 0.60892 0.80214 0.0
H6387 H 0.33338 0.59429 0.81986 0.0
H6388 H 0.34703 0.59058 0.83564 0.0
H6389 H 0.3212 0.57229 0.8536 0.0
H6390 H 0.30734 0.57603 0.83797 0.0
H6391 H 0.2993 0.55955 0.76984 0.0
H6392 H 0.30456 0.57565 0.78176 0.0
H6393 H 0.28505 0.56141 0.80898 0.0
H6394 H 0.27961 0.54498 0.79689 0.0
H6395 H 0.30779 0.56988 0.81558 0.0
H6396 H 0.27436 0.58306 0.79604 0.0
H6397 H 0.26184 0.58602 0.77918 0.0
H6398 H 0.28775 0.60665 0.76386 0.0
H6399 H 0.30045 0.60368 0.78053 0.0
C6400 C 0.31843 0.62098 0.83648 0.0
C6401 C 0.32427 0.62906 0.82983 0.0
C6402 C 0.31342 0.61124 0.83153 0.0
C6403 C 0.31418 0.60927 0.81982 0.0
C6404 C 0.32002 0.6173 0.81317 0.0
C6405 C 0.32502 0.62705 0.81811 0.0
C6406 C 0.30879 0.59896 0.81443 0.0
C6407 C 0.30128 0.6004 0.80507 0.0
C6408 C 0.31098 0.58779 0.8184 0.0
C6409 C 0.31929 0.58556 0.82781 0.0
C6410 C 0.33058 0.58957 0.82722 0.0
C6411 C 0.33836 0.58745 0.83613 0.0
C6412 C 0.33498 0.58124 0.84564 0.0
C6413 C 0.3238 0.57712 0.84624 0.0
C6414 C 0.31598 0.57924 0.83736 0.0
C6415 C 0.29606 0.55976 0.77835 0.0
C6416 C 0.28902 0.55093 0.7824 0.0
C6417 C 0.29908 0.56904 0.78516 0.0
C6418 C 0.29516 0.56981 0.79624 0.0
C6419 C 0.28815 0.561 0.80043 0.0
C6420 C 0.28501 0.55166 0.79351 0.0
C6421 C 0.29857 0.57989 0.80322 0.0
C6422 C 0.30573 0.57842 0.81283 0.0
C6423 C 0.29614 0.59104 0.79945 0.0
C6424 C 0.28838 0.5931 0.78952 0.0
C6425 C 0.2774 0.58819 0.78905 0.0
C6426 C 0.27026 0.58987 0.77952 0.0
C6427 C 0.27398 0.5965 0.77044 0.0
C6428 C 0.28484 0.60151 0.77089 0.0
C6429 C 0.29201 0.59985 0.78039 0.0
H6430 H 0.26844 0.59777 0.76307 0.0
H6431 H 0.34102 0.5796 0.85252 0.0
H6432 H 0.42873 0.34413 0.82739 0.0
H6433 H 0.44518 0.33907 0.81639 0.0
H6434 H 0.42897 0.30699 0.80771 0.0
H6435 H 0.41253 0.31198 0.81871 0.0
H6436 H 0.45037 0.30376 0.81383 0.0
H6437 H 0.43111 0.32932 0.7883 0.0
H6438 H 0.42205 0.34722 0.78248 0.0
H6439 H 0.45337 0.36554 0.78924 0.0
H6440 H 0.46258 0.34777 0.79525 0.0
H6441 H 0.48782 0.28746 0.77114 0.0
H6442 H 0.47095 0.29338 0.78095 0.0
H6443 H 0.48789 0.32493 0.79019 0.0
H6444 H 0.50481 0.31906 0.78039 0.0
H6445 H 0.4662 0.32857 0.78375 0.0
H6446 H 0.48538 0.30299 0.80939 0.0
H6447 H 0.49445 0.28506 0.81508 0.0
H6448 H 0.46318 0.26674 0.80803 0.0
H6449 H 0.45396 0.28456 0.80215 0.0
C6450 C 0.4286 0.33605 0.82303 0.0
C6451 C 0.41928 0.32847 0.82395 0.0
C6452 C 0.43803 0.33316 0.81673 0.0
C6453 C 0.43832 0.32267 0.8111 0.0
C6454 C 0.429 0.31511 0.81198 0.0
C6455 C 0.4196 0.31798 0.81831 0.0
C6456 C 0.44841 0.31944 0.80452 0.0
C6457 C 0.45372 0.30913 0.80714 0.0
C6458 C 0.453 0.32653 0.79597 0.0
C6459 C 0.4475 0.33723 0.79233 0.0
C6460 C 0.43604 0.33718 0.78862 0.0
C6461 C 0.43088 0.3473 0.78528 0.0
C6462 C 0.43712 0.35752 0.78552 0.0
C6463 C 0.44854 0.35763 0.78907 0.0
C6464 C 0.45374 0.34753 0.79244 0.0
C6465 C 0.488 0.29564 0.77529 0.0
C6466 C 0.49776 0.30272 0.77503 0.0
C6467 C 0.47832 0.29903 0.7809 0.0
C6468 C 0.47817 0.30954 0.78648 0.0
C6469 C 0.48777 0.31678 0.78596 0.0
C6470 C 0.49745 0.31341 0.78032 0.0
C6471 C 0.46811 0.31288 0.79303 0.0
C6472 C 0.46283 0.32321 0.79043 0.0
C6473 C 0.46352 0.30581 0.8016 0.0
C6474 C 0.46901 0.2951 0.80523 0.0
C6475 C 0.48046 0.29513 0.80898 0.0
C6476 C 0.48562 0.28499 0.81225 0.0
C6477 C 0.4794 0.27476 0.81189 0.0
C6478 C 0.46799 0.27467 0.80829 0.0
C6479 C 0.46279 0.28479 0.805 0.0
H6480 H 0.48341 0.26692 0.81442 0.0
H6481 H 0.43311 0.36534 0.78292 0.0
H6482 H 0.3322 0.40253 0.2393 0.0
H6483 H 0.32357 0.41924 0.24728 0.0
H6484 H 0.32362 0.43557 0.21442 0.0
H6485 H 0.3327 0.41898 0.20643 0.0
H6486 H 0.33034 0.45038 0.23033 0.0
H6487 H 0.29891 0.42432 0.22593 0.0
H6488 H 0.28837 0.40616 0.22804 0.0
H6489 H 0.29056 0.40936 0.26434 0.0
H6490 H 0.30125 0.42746 0.26246 0.0
H6491 H 0.29259 0.49464 0.24503 0.0
H6492 H 0.30201 0.47857 0.23655 0.0
H6493 H 0.30274 0.46134 0.26896 0.0
H6494 H 0.29316 0.47732 0.27747 0.0
H6495 H 0.29547 0.44713 0.25282 0.0
H6496 H 0.3271 0.47323 0.25708 0.0
H6497 H 0.33749 0.49145 0.25481 0.0
H6498 H 0.33465 0.48829 0.21852 0.0
H6499 H 0.32411 0.47011 0.22058 0.0
C6500 C 0.33047 0.40968 0.23374 0.0
C6501 C 0.33322 0.40933 0.22217 0.0
C6502 C 0.32539 0.41924 0.23832 0.0
C6503 C 0.32278 0.42871 0.23147 0.0
C6504 C 0.3255 0.4284 0.21992 0.0
C6505 C 0.3306 0.41883 0.21532 0.0
C6506 C 0.31738 0.43893 0.23643 0.0
C6507 C 0.32262 0.44967 0.2351 0.0
C6508 C 0.30742 0.43808 0.24289 0.0
C6509 C 0.30098 0.4272 0.24405 0.0
C6510 C 0.29722 0.42111 0.23437 0.0
C6511 C 0.29121 0.41083 0.23552 0.0
C6512 C 0.28882 0.4066 0.24632 0.0
C6513 C 0.29243 0.41264 0.25599 0.0
C6514 C 0.29846 0.42292 0.25488 0.0
C6515 C 0.29488 0.48751 0.25041 0.0
C6516 C 0.29211 0.48735 0.26198 0.0
C6517 C 0.30031 0.47829 0.24553 0.0
C6518 C 0.30319 0.46869 0.25209 0.0
C6519 C 0.30061 0.4686 0.26368 0.0
C6520 C 0.29518 0.47781 0.26856 0.0
C6521 C 0.30847 0.45857 0.2468 0.0
C6522 C 0.30319 0.44784 0.24805 0.0
C6523 C 0.31836 0.45945 0.24024 0.0
C6524 C 0.32472 0.47036 0.23899 0.0
C6525 C 0.32862 0.47646 0.24862 0.0
C6526 C 0.33455 0.48677 0.24737 0.0
C6527 C 0.3367 0.49104 0.23653 0.0
C6528 C 0.33296 0.48498 0.22691 0.0
C6529 C 0.32702 0.47467 0.22812 0.0
H6530 H 0.34129 0.49902 0.23558 0.0
H6531 H 0.28416 0.39864 0.24719 0.0
H6532 H 0.63834 0.33294 0.23009 0.0
H6533 H 0.62154 0.32725 0.2406 0.0
H6534 H 0.60334 0.32012 0.20906 0.0
H6535 H 0.61999 0.32615 0.19848 0.0
H6536 H 0.58999 0.33085 0.2234 0.0
H6537 H 0.61441 0.29872 0.22558 0.0
H6538 H 0.63222 0.28864 0.22971 0.0
H6539 H 0.63088 0.29796 0.26484 0.0
H6540 H 0.61314 0.30825 0.26089 0.0
H6541 H 0.54471 0.29772 0.24635 0.0
H6542 H 0.56101 0.30463 0.2358 0.0
H6543 H 0.57961 0.31091 0.26729 0.0
H6544 H 0.56357 0.3036 0.27788 0.0
H6545 H 0.59273 0.30073 0.25292 0.0
H6546 H 0.56817 0.33277 0.25073 0.0
H6547 H 0.55031 0.34276 0.24656 0.0
H6548 H 0.55183 0.3335 0.21142 0.0
H6549 H 0.56963 0.32333 0.21542 0.0
C6550 C 0.63073 0.33029 0.22537 0.0
C6551 C 0.63057 0.32997 0.21342 0.0
C6552 C 0.62115 0.32692 0.23141 0.0
C6553 C 0.61119 0.32309 0.22565 0.0
C6554 C 0.61092 0.32299 0.21372 0.0
C6555 C 0.6205 0.32635 0.20767 0.0
C6556 C 0.60109 0.3191 0.23204 0.0
C6557 C 0.59057 0.32416 0.22976 0.0
C6558 C 0.60185 0.31054 0.24051 0.0
C6559 C 0.61251 0.30436 0.24291 0.0
C6560 C 0.61796 0.2987 0.23417 0.0
C6561 C 0.62804 0.29294 0.23648 0.0
C6562 C 0.6327 0.29269 0.24753 0.0
C6563 C 0.62728 0.29818 0.25629 0.0
C6564 C 0.61721 0.30398 0.25402 0.0
C6565 C 0.55226 0.30052 0.25106 0.0
C6566 C 0.55273 0.30006 0.26303 0.0
C6567 C 0.56157 0.3046 0.24499 0.0
C6568 C 0.57155 0.30842 0.25072 0.0
C6569 C 0.57202 0.30804 0.26265 0.0
C6570 C 0.56274 0.30394 0.26872 0.0
C6571 C 0.58162 0.31251 0.24432 0.0
C6572 C 0.59215 0.30744 0.24659 0.0
C6573 C 0.58086 0.32106 0.23583 0.0
C6574 C 0.57017 0.32719 0.2334 0.0
C6575 C 0.56465 0.33279 0.24213 0.0
C6576 C 0.55455 0.3385 0.2398 0.0
C6577 C 0.54993 0.33874 0.22874 0.0
C6578 C 0.55541 0.33329 0.21999 0.0
C6579 C 0.56551 0.32757 0.22228 0.0
H6580 H 0.5421 0.34316 0.22694 0.0
H6581 H 0.64049 0.28821 0.2493 0.0
H6582 H 0.41448 0.72434 0.18364 0.0
H6583 H 0.43109 0.73295 0.19334 0.0
H6584 H 0.41601 0.72637 0.22571 0.0
H6585 H 0.39916 0.71813 0.21604 0.0
H6586 H 0.42502 0.7471 0.22553 0.0
H6587 H 0.4379 0.71016 0.21556 0.0
H6588 H 0.44173 0.69424 0.20279 0.0
H6589 H 0.46392 0.71579 0.18352 0.0
H6590 H 0.46009 0.73189 0.19609 0.0
H6591 H 0.47223 0.74839 0.26344 0.0
H6592 H 0.45605 0.74344 0.25103 0.0
H6593 H 0.47408 0.75616 0.22211 0.0
H6594 H 0.49052 0.76126 0.23469 0.0
H6595 H 0.46409 0.73417 0.21887 0.0
H6596 H 0.45238 0.7707 0.23071 0.0
H6597 H 0.44886 0.78587 0.24445 0.0
H6598 H 0.42461 0.76432 0.26111 0.0
H6599 H 0.4281 0.74895 0.24758 0.0
C6600 C 0.41463 0.72478 0.19283 0.0
C6601 C 0.4054 0.72052 0.19903 0.0
C6602 C 0.42422 0.72963 0.19838 0.0
C6603 C 0.42491 0.73025 0.2103 0.0
C6604 C 0.41573 0.726 0.21652 0.0
C6605 C 0.40612 0.72116 0.21097 0.0
C6606 C 0.43511 0.73544 0.21629 0.0
C6607 C 0.43354 0.74419 0.22412 0.0
C6608 C 0.44632 0.73191 0.21427 0.0
C6609 C 0.4486 0.72226 0.20668 0.0
C6610 C 0.44351 0.71153 0.20853 0.0
C6611 C 0.4457 0.70247 0.20135 0.0
C6612 C 0.45303 0.70401 0.19232 0.0
C6613 C 0.45822 0.71461 0.19049 0.0
C6614 C 0.45605 0.72371 0.19765 0.0
C6615 C 0.47277 0.75027 0.25446 0.0
C6616 C 0.48269 0.75522 0.25005 0.0
C6617 C 0.46345 0.74746 0.24736 0.0
C6618 C 0.46379 0.74946 0.23563 0.0
C6619 C 0.47362 0.75456 0.23115 0.0
C6620 C 0.48297 0.75755 0.23833 0.0
C6621 C 0.45396 0.7457 0.22819 0.0
C6622 C 0.45558 0.73719 0.22012 0.0
C6623 C 0.44279 0.74937 0.23007 0.0
C6624 C 0.44056 0.75864 0.23816 0.0
C6625 C 0.44635 0.76916 0.23735 0.0
C6626 C 0.44435 0.77781 0.2451 0.0
C6627 C 0.43653 0.77605 0.25366 0.0
C6628 C 0.43067 0.76566 0.25447 0.0
C6629 C 0.43264 0.75699 0.24676 0.0
H6630 H 0.435 0.78275 0.25965 0.0
H6631 H 0.45472 0.69699 0.18677 0.0
loop_
_geom_bond_atom_site_label_1
_geom_bond_atom_site_label_2
_geom_bond_distance
_geom_bond_site_symmetry_2
_ccdc_geom_bond_type
C0 C1 1.264 . S
C0 C5 1.479 . S
C0 C10 1.465 . S
C1 C0 1.264 . S
C1 C3 1.339 . S
C1 H28 0.931 . S
C2 C3 1.395 . S
C2 C4 1.320 . S
C3 C1 1.339 . S
C3 C2 1.395 . S
C3 H29 0.929 . S
C4 C2 1.320 . S
C4 C5 1.405 . S
C4 H30 0.930 . S
C5 C0 1.479 . S
C5 C4 1.405 . S
C5 H31 0.931 . S
U6 O7 2.454 . S
U6 O8 2.458 . S
U6 C9 2.984 . S
U6 C10 2.847 . S
U6 C23 2.882 . S
U6 O24 2.441 . S
U6 O25 2.420 . S
U6 O26 2.455 . S
U6 O27 2.449 . S
O7 U6 2.454 . S
O7 C9 1.353 . S
O8 U6 2.458 . S
O8 C9 1.286 . S
C9 U6 2.984 . S
C9 O7 1.353 . S
C9 O8 1.286 . S
C9 C11 1.363 . S
C10 C0 1.465 . S
C10 U6 2.847 . S
C10 O24 1.249 . S
C10 O25 1.202 . S
C11 C9 1.363 . S
C11 C13 1.408 . S
C11 C16 1.342 . S
C12 C13 1.310 . S
C12 C15 1.461 . S
C12 H32 0.932 . S
C13 C11 1.408 . S
C13 C12 1.310 . S
C13 H33 0.930 . S
C14 C15 1.474 . S
C14 C16 1.285 . S
C14 H34 0.929 . S
C15 C12 1.461 . S
C15 C14 1.474 . S
C16 C11 1.342 . S
C16 C14 1.285 . S
C16 H35 0.930 . S
C17 C20 1.424 . S
C17 C22 1.245 . S
C17 C23 1.428 . S
C18 C21 1.260 . S
C18 C22 1.477 . S
C18 H36 0.932 . S
C19 C20 1.384 . S
C19 C21 1.479 . S
C19 H37 0.929 . S
C20 C17 1.424 . S
C20 C19 1.384 . S
C20 H38 0.928 . S
C21 C18 1.260 . S
C21 C19 1.479 . S
C22 C17 1.245 . S
C22 C18 1.477 . S
C22 H39 0.932 . S
C23 U6 2.882 . S
C23 C17 1.428 . S
C23 O26 1.301 . S
C23 O27 1.282 . S
O24 U6 2.441 . S
O24 C10 1.249 . S
O25 U6 2.420 . S
O25 C10 1.202 . S
O26 U6 2.455 . S
O26 C23 1.301 . S
O27 U6 2.449 . S
O27 C23 1.282 . S
H28 C1 0.931 . S
H29 C3 0.929 . S
H30 C4 0.930 . S
H31 C5 0.931 . S
H32 C12 0.932 . S
H33 C13 0.930 . S
H34 C14 0.929 . S
H35 C16 0.930 . S
H36 C18 0.932 . S
H37 C19 0.929 . S
H38 C20 0.928 . S
H39 C22 0.932 . S
C40 C41 1.264 . S
C40 C45 1.479 . S
C40 C50 1.465 . S
C41 C40 1.264 . S
C41 C43 1.339 . S
C41 H68 0.931 . S
C42 C43 1.395 . S
C42 C44 1.320 . S
C43 C41 1.339 . S
C43 C42 1.395 . S
C43 H69 0.929 . S
C44 C42 1.320 . S
C44 C45 1.405 . S
C44 H70 0.930 . S
C45 C40 1.479 . S
C45 C44 1.405 . S
C45 H71 0.931 . S
U46 O47 2.454 . S
U46 O48 2.458 . S
U46 C49 2.984 . S
U46 C50 2.847 . S
U46 C63 2.882 . S
U46 O64 2.441 . S
U46 O65 2.420 . S
U46 O66 2.455 . S
U46 O67 2.449 . S
O47 U46 2.454 . S
O47 C49 1.353 . S
O48 U46 2.458 . S
O48 C49 1.286 . S
C49 U46 2.984 . S
C49 O47 1.353 . S
C49 O48 1.286 . S
C49 C51 1.363 . S
C50 C40 1.465 . S
C50 U46 2.847 . S
C50 O64 1.249 . S
C50 O65 1.202 . S
C51 C49 1.363 . S
C51 C53 1.408 . S
C51 C56 1.342 . S
C52 C53 1.310 . S
C52 C55 1.461 . S
C52 H72 0.932 . S
C53 C51 1.408 . S
C53 C52 1.310 . S
C53 H73 0.930 . S
C54 C55 1.474 . S
C54 C56 1.285 . S
C54 H74 0.929 . S
C55 C52 1.461 . S
C55 C54 1.474 . S
C56 C51 1.342 . S
C56 C54 1.285 . S
C56 H75 0.930 . S
C57 C60 1.424 . S
C57 C62 1.245 . S
C57 C63 1.428 . S
C58 C61 1.260 . S
C58 C62 1.477 . S
C58 H76 0.932 . S
C59 C60 1.384 . S
C59 C61 1.479 . S
C59 H77 0.929 . S
C60 C57 1.424 . S
C60 C59 1.384 . S
C60 H78 0.928 . S
C61 C58 1.260 . S
C61 C59 1.479 . S
C62 C57 1.245 . S
C62 C58 1.477 . S
C62 H79 0.932 . S
C63 U46 2.882 . S
C63 C57 1.428 . S
C63 O66 1.301 . S
C63 O67 1.282 . S
O64 U46 2.441 . S
O64 C50 1.249 . S
O65 U46 2.420 . S
O65 C50 1.202 . S
O66 U46 2.455 . S
O66 C63 1.301 . S
O67 U46 2.449 . S
O67 C63 1.282 . S
H68 C41 0.931 . S
H69 C43 0.929 . S
H70 C44 0.930 . S
H71 C45 0.931 . S
H72 C52 0.932 . S
H73 C53 0.930 . S
H74 C54 0.929 . S
H75 C56 0.930 . S
H76 C58 0.932 . S
H77 C59 0.929 . S
H78 C60 0.928 . S
H79 C62 0.932 . S
C80 C81 1.264 . S
C80 C85 1.479 . S
C80 C90 1.465 . S
C81 C80 1.264 . S
C81 C83 1.339 . S
C81 H108 0.931 . S
C82 C83 1.395 . S
C82 C84 1.320 . S
C83 C81 1.339 . S
C83 C82 1.395 . S
C83 H109 0.929 . S
C84 C82 1.320 . S
C84 C85 1.405 . S
C84 H110 0.930 . S
C85 C80 1.479 . S
C85 C84 1.405 . S
C85 H111 0.931 . S
U86 O87 2.454 . S
U86 O88 2.458 . S
U86 C89 2.984 . S
U86 C90 2.847 . S
U86 C103 2.882 . S
U86 O104 2.441 . S
U86 O105 2.420 . S
U86 O106 2.455 . S
U86 O107 2.449 . S
O87 U86 2.454 . S
O87 C89 1.353 . S
O88 U86 2.458 . S
O88 C89 1.286 . S
C89 U86 2.984 . S
C89 O87 1.353 . S
C89 O88 1.286 . S
C89 C91 1.363 . S
C90 C80 1.465 . S
C90 U86 2.847 . S
C90 O104 1.249 . S
C90 O105 1.202 . S
C91 C89 1.363 . S
C91 C93 1.408 . S
C91 C96 1.342 . S
C92 C93 1.310 . S
C92 C95 1.461 . S
C92 H112 0.932 . S
C93 C91 1.408 . S
C93 C92 1.310 . S
C93 H113 0.930 . S
C94 C95 1.474 . S
C94 C96 1.285 . S
C94 H114 0.929 . S
C95 C92 1.461 . S
C95 C94 1.474 . S
C96 C91 1.342 . S
C96 C94 1.285 . S
C96 H115 0.930 . S
C97 C100 1.424 . S
C97 C102 1.245 . S
C97 C103 1.428 . S
C98 C101 1.260 . S
C98 C102 1.477 . S
C98 H116 0.932 . S
C99 C100 1.384 . S
C99 C101 1.479 . S
C99 H117 0.929 . S
C100 C97 1.424 . S
C100 C99 1.384 . S
C100 H118 0.928 . S
C101 C98 1.260 . S
C101 C99 1.479 . S
C102 C97 1.245 . S
C102 C98 1.477 . S
C102 H119 0.932 . S
C103 U86 2.882 . S
C103 C97 1.428 . S
C103 O106 1.301 . S
C103 O107 1.282 . S
O104 U86 2.441 . S
O104 C90 1.249 . S
O105 U86 2.420 . S
O105 C90 1.202 . S
O106 U86 2.455 . S
O106 C103 1.301 . S
O107 U86 2.449 . S
O107 C103 1.282 . S
H108 C81 0.931 . S
H109 C83 0.929 . S
H110 C84 0.930 . S
H111 C85 0.931 . S
H112 C92 0.932 . S
H113 C93 0.930 . S
H114 C94 0.929 . S
H115 C96 0.930 . S
H116 C98 0.932 . S
H117 C99 0.929 . S
H118 C100 0.928 . S
H119 C102 0.932 . S
C120 C121 1.264 . S
C120 C125 1.479 . S
C120 C130 1.465 . S
C121 C120 1.264 . S
C121 C123 1.339 . S
C121 H148 0.931 . S
C122 C123 1.395 . S
C122 C124 1.320 . S
C123 C121 1.339 . S
C123 C122 1.395 . S
C123 H149 0.929 . S
C124 C122 1.320 . S
C124 C125 1.405 . S
C124 H150 0.930 . S
C125 C120 1.479 . S
C125 C124 1.405 . S
C125 H151 0.931 . S
U126 O127 2.454 . S
U126 O128 2.458 . S
U126 C129 2.984 . S
U126 C130 2.847 . S
U126 C143 2.882 . S
U126 O144 2.441 . S
U126 O145 2.420 . S
U126 O146 2.455 . S
U126 O147 2.449 . S
O127 U126 2.454 . S
O127 C129 1.353 . S
O128 U126 2.458 . S
O128 C129 1.286 . S
C129 U126 2.984 . S
C129 O127 1.353 . S
C129 O128 1.286 . S
C129 C131 1.363 . S
C130 C120 1.465 . S
C130 U126 2.847 . S
C130 O144 1.249 . S
C130 O145 1.202 . S
C131 C129 1.363 . S
C131 C133 1.408 . S
C131 C136 1.342 . S
C132 C133 1.310 . S
C132 C135 1.461 . S
C132 H152 0.932 . S
C133 C131 1.408 . S
C133 C132 1.310 . S
C133 H153 0.930 . S
C134 C135 1.474 . S
C134 C136 1.285 . S
C134 H154 0.929 . S
C135 C132 1.461 . S
C135 C134 1.474 . S
C136 C131 1.342 . S
C136 C134 1.285 . S
C136 H155 0.930 . S
C137 C140 1.424 . S
C137 C142 1.245 . S
C137 C143 1.428 . S
C138 C141 1.260 . S
C138 C142 1.477 . S
C138 H156 0.932 . S
C139 C140 1.384 . S
C139 C141 1.479 . S
C139 H157 0.929 . S
C140 C137 1.424 . S
C140 C139 1.384 . S
C140 H158 0.928 . S
C141 C138 1.260 . S
C141 C139 1.479 . S
C142 C137 1.245 . S
C142 C138 1.477 . S
C142 H159 0.932 . S
C143 U126 2.882 . S
C143 C137 1.428 . S
C143 O146 1.301 . S
C143 O147 1.282 . S
O144 U126 2.441 . S
O144 C130 1.249 . S
O145 U126 2.420 . S
O145 C130 1.202 . S
O146 U126 2.455 . S
O146 C143 1.301 . S
O147 U126 2.449 . S
O147 C143 1.282 . S
H148 C121 0.931 . S
H149 C123 0.929 . S
H150 C124 0.930 . S
H151 C125 0.931 . S
H152 C132 0.932 . S
H153 C133 0.930 . S
H154 C134 0.929 . S
H155 C136 0.930 . S
H156 C138 0.932 . S
H157 C139 0.929 . S
H158 C140 0.928 . S
H159 C142 0.932 . S
C160 C161 1.264 . S
C160 C165 1.479 . S
C160 C170 1.465 . S
C161 C160 1.264 . S
C161 C163 1.339 . S
C161 H188 0.931 . S
C162 C163 1.395 . S
C162 C164 1.320 . S
C163 C161 1.339 . S
C163 C162 1.395 . S
C163 H189 0.929 . S
C164 C162 1.320 . S
C164 C165 1.405 . S
C164 H190 0.930 . S
C165 C160 1.479 . S
C165 C164 1.405 . S
C165 H191 0.931 . S
U166 O167 2.454 . S
U166 O168 2.458 . S
U166 C169 2.984 . S
U166 C170 2.847 . S
U166 C183 2.882 . S
U166 O184 2.441 . S
U166 O185 2.420 . S
U166 O186 2.455 . S
U166 O187 2.449 . S
O167 U166 2.454 . S
O167 C169 1.353 . S
O168 U166 2.458 . S
O168 C169 1.286 . S
C169 U166 2.984 . S
C169 O167 1.353 . S
C169 O168 1.286 . S
C169 C171 1.363 . S
C170 C160 1.465 . S
C170 U166 2.847 . S
C170 O184 1.249 . S
C170 O185 1.202 . S
C171 C169 1.363 . S
C171 C173 1.408 . S
C171 C176 1.342 . S
C172 C173 1.310 . S
C172 C175 1.461 . S
C172 H192 0.932 . S
C173 C171 1.408 . S
C173 C172 1.310 . S
C173 H193 0.930 . S
C174 C175 1.474 . S
C174 C176 1.285 . S
C174 H194 0.929 . S
C175 C172 1.461 . S
C175 C174 1.474 . S
C176 C171 1.342 . S
C176 C174 1.285 . S
C176 H195 0.930 . S
C177 C180 1.424 . S
C177 C182 1.245 . S
C177 C183 1.428 . S
C178 C181 1.260 . S
C178 C182 1.477 . S
C178 H196 0.932 . S
C179 C180 1.384 . S
C179 C181 1.479 . S
C179 H197 0.929 . S
C180 C177 1.424 . S
C180 C179 1.384 . S
C180 H198 0.928 . S
C181 C178 1.260 . S
C181 C179 1.479 . S
C182 C177 1.245 . S
C182 C178 1.477 . S
C182 H199 0.932 . S
C183 U166 2.882 . S
C183 C177 1.428 . S
C183 O186 1.301 . S
C183 O187 1.282 . S
O184 U166 2.441 . S
O184 C170 1.249 . S
O185 U166 2.420 . S
O185 C170 1.202 . S
O186 U166 2.455 . S
O186 C183 1.301 . S
O187 U166 2.449 . S
O187 C183 1.282 . S
H188 C161 0.931 . S
H189 C163 0.929 . S
H190 C164 0.930 . S
H191 C165 0.931 . S
H192 C172 0.932 . S
H193 C173 0.930 . S
H194 C174 0.929 . S
H195 C176 0.930 . S
H196 C178 0.932 . S
H197 C179 0.929 . S
H198 C180 0.928 . S
H199 C182 0.932 . S
C200 C201 1.264 . S
C200 C205 1.479 . S
C200 C210 1.465 . S
C201 C200 1.264 . S
C201 C203 1.339 . S
C201 H228 0.931 . S
C202 C203 1.395 . S
C202 C204 1.320 . S
C203 C201 1.339 . S
C203 C202 1.395 . S
C203 H229 0.929 . S
C204 C202 1.320 . S
C204 C205 1.405 . S
C204 H230 0.930 . S
C205 C200 1.479 . S
C205 C204 1.405 . S
C205 H231 0.931 . S
U206 O207 2.454 . S
U206 O208 2.458 . S
U206 C209 2.984 . S
U206 C210 2.847 . S
U206 C223 2.882 . S
U206 O224 2.441 . S
U206 O225 2.420 . S
U206 O226 2.455 . S
U206 O227 2.449 . S
O207 U206 2.454 . S
O207 C209 1.353 . S
O208 U206 2.458 . S
O208 C209 1.286 . S
C209 U206 2.984 . S
C209 O207 1.353 . S
C209 O208 1.286 . S
C209 C211 1.363 . S
C210 C200 1.465 . S
C210 U206 2.847 . S
C210 O224 1.249 . S
C210 O225 1.202 . S
C211 C209 1.363 . S
C211 C213 1.408 . S
C211 C216 1.342 . S
C212 C213 1.310 . S
C212 C215 1.461 . S
C212 H232 0.932 . S
C213 C211 1.408 . S
C213 C212 1.310 . S
C213 H233 0.930 . S
C214 C215 1.474 . S
C214 C216 1.285 . S
C214 H234 0.929 . S
C215 C212 1.461 . S
C215 C214 1.474 . S
C216 C211 1.342 . S
C216 C214 1.285 . S
C216 H235 0.930 . S
C217 C220 1.424 . S
C217 C222 1.245 . S
C217 C223 1.428 . S
C218 C221 1.260 . S
C218 C222 1.477 . S
C218 H236 0.932 . S
C219 C220 1.384 . S
C219 C221 1.479 . S
C219 H237 0.929 . S
C220 C217 1.424 . S
C220 C219 1.384 . S
C220 H238 0.928 . S
C221 C218 1.260 . S
C221 C219 1.479 . S
C222 C217 1.245 . S
C222 C218 1.477 . S
C222 H239 0.932 . S
C223 U206 2.882 . S
C223 C217 1.428 . S
C223 O226 1.301 . S
C223 O227 1.282 . S
O224 U206 2.441 . S
O224 C210 1.249 . S
O225 U206 2.420 . S
O225 C210 1.202 . S
O226 U206 2.455 . S
O226 C223 1.301 . S
O227 U206 2.449 . S
O227 C223 1.282 . S
H228 C201 0.931 . S
H229 C203 0.929 . S
H230 C204 0.930 . S
H231 C205 0.931 . S
H232 C212 0.932 . S
H233 C213 0.930 . S
H234 C214 0.929 . S
H235 C216 0.930 . S
H236 C218 0.932 . S
H237 C219 0.929 . S
H238 C220 0.928 . S
H239 C222 0.932 . S
C240 C241 1.264 . S
C240 C245 1.479 . S
C240 C250 1.465 . S
C241 C240 1.264 . S
C241 C243 1.339 . S
C241 H268 0.931 . S
C242 C243 1.395 . S
C242 C244 1.320 . S
C243 C241 1.339 . S
C243 C242 1.395 . S
C243 H269 0.929 . S
C244 C242 1.320 . S
C244 C245 1.405 . S
C244 H270 0.930 . S
C245 C240 1.479 . S
C245 C244 1.405 . S
C245 H271 0.931 . S
U246 O247 2.454 . S
U246 O248 2.458 . S
U246 C249 2.984 . S
U246 C250 2.847 . S
U246 C263 2.882 . S
U246 O264 2.441 . S
U246 O265 2.420 . S
U246 O266 2.455 . S
U246 O267 2.449 . S
O247 U246 2.454 . S
O247 C249 1.353 . S
O248 U246 2.458 . S
O248 C249 1.286 . S
C249 U246 2.984 . S
C249 O247 1.353 . S
C249 O248 1.286 . S
C249 C251 1.363 . S
C250 C240 1.465 . S
C250 U246 2.847 . S
C250 O264 1.249 . S
C250 O265 1.202 . S
C251 C249 1.363 . S
C251 C253 1.408 . S
C251 C256 1.342 . S
C252 C253 1.310 . S
C252 C255 1.461 . S
C252 H272 0.932 . S
C253 C251 1.408 . S
C253 C252 1.310 . S
C253 H273 0.930 . S
C254 C255 1.474 . S
C254 C256 1.285 . S
C254 H274 0.929 . S
C255 C252 1.461 . S
C255 C254 1.474 . S
C256 C251 1.342 . S
C256 C254 1.285 . S
C256 H275 0.930 . S
C257 C260 1.424 . S
C257 C262 1.245 . S
C257 C263 1.428 . S
C258 C261 1.260 . S
C258 C262 1.477 . S
C258 H276 0.932 . S
C259 C260 1.384 . S
C259 C261 1.479 . S
C259 H277 0.929 . S
C260 C257 1.424 . S
C260 C259 1.384 . S
C260 H278 0.928 . S
C261 C258 1.260 . S
C261 C259 1.479 . S
C262 C257 1.245 . S
C262 C258 1.477 . S
C262 H279 0.932 . S
C263 U246 2.882 . S
C263 C257 1.428 . S
C263 O266 1.301 . S
C263 O267 1.282 . S
O264 U246 2.441 . S
O264 C250 1.249 . S
O265 U246 2.420 . S
O265 C250 1.202 . S
O266 U246 2.455 . S
O266 C263 1.301 . S
O267 U246 2.449 . S
O267 C263 1.282 . S
H268 C241 0.931 . S
H269 C243 0.929 . S
H270 C244 0.930 . S
H271 C245 0.931 . S
H272 C252 0.932 . S
H273 C253 0.930 . S
H274 C254 0.929 . S
H275 C256 0.930 . S
H276 C258 0.932 . S
H277 C259 0.929 . S
H278 C260 0.928 . S
H279 C262 0.932 . S
C280 C281 1.264 . S
C280 C285 1.479 . S
C280 C290 1.465 . S
C281 C280 1.264 . S
C281 C283 1.339 . S
C281 H308 0.931 . S
C282 C283 1.395 . S
C282 C284 1.320 . S
C283 C281 1.339 . S
C283 C282 1.395 . S
C283 H309 0.929 . S
C284 C282 1.320 . S
C284 C285 1.405 . S
C284 H310 0.930 . S
C285 C280 1.479 . S
C285 C284 1.405 . S
C285 H311 0.931 . S
U286 O287 2.454 . S
U286 O288 2.458 . S
U286 C289 2.984 . S
U286 C290 2.847 . S
U286 C303 2.882 . S
U286 O304 2.441 . S
U286 O305 2.420 . S
U286 O306 2.455 . S
U286 O307 2.449 . S
O287 U286 2.454 . S
O287 C289 1.353 . S
O288 U286 2.458 . S
O288 C289 1.286 . S
C289 U286 2.984 . S
C289 O287 1.353 . S
C289 O288 1.286 . S
C289 C291 1.363 . S
C290 C280 1.465 . S
C290 U286 2.847 . S
C290 O304 1.249 . S
C290 O305 1.202 . S
C291 C289 1.363 . S
C291 C293 1.408 . S
C291 C296 1.342 . S
C292 C293 1.310 . S
C292 C295 1.461 . S
C292 H312 0.932 . S
C293 C291 1.408 . S
C293 C292 1.310 . S
C293 H313 0.930 . S
C294 C295 1.474 . S
C294 C296 1.285 . S
C294 H314 0.929 . S
C295 C292 1.461 . S
C295 C294 1.474 . S
C296 C291 1.342 . S
C296 C294 1.285 . S
C296 H315 0.930 . S
C297 C300 1.424 . S
C297 C302 1.245 . S
C297 C303 1.428 . S
C298 C301 1.260 . S
C298 C302 1.477 . S
C298 H316 0.932 . S
C299 C300 1.384 . S
C299 C301 1.479 . S
C299 H317 0.929 . S
C300 C297 1.424 . S
C300 C299 1.384 . S
C300 H318 0.928 . S
C301 C298 1.260 . S
C301 C299 1.479 . S
C302 C297 1.245 . S
C302 C298 1.477 . S
C302 H319 0.932 . S
C303 U286 2.882 . S
C303 C297 1.428 . S
C303 O306 1.301 . S
C303 O307 1.282 . S
O304 U286 2.441 . S
O304 C290 1.249 . S
O305 U286 2.420 . S
O305 C290 1.202 . S
O306 U286 2.455 . S
O306 C303 1.301 . S
O307 U286 2.449 . S
O307 C303 1.282 . S
H308 C281 0.931 . S
H309 C283 0.929 . S
H310 C284 0.930 . S
H311 C285 0.931 . S
H312 C292 0.932 . S
H313 C293 0.930 . S
H314 C294 0.929 . S
H315 C296 0.930 . S
H316 C298 0.932 . S
H317 C299 0.929 . S
H318 C300 0.928 . S
H319 C302 0.932 . S
C320 C321 1.264 . S
C320 C325 1.479 . S
C320 C330 1.465 . S
C321 C320 1.264 . S
C321 C323 1.339 . S
C321 H348 0.931 . S
C322 C323 1.395 . S
C322 C324 1.320 . S
C323 C321 1.339 . S
C323 C322 1.395 . S
C323 H349 0.929 . S
C324 C322 1.320 . S
C324 C325 1.405 . S
C324 H350 0.930 . S
C325 C320 1.479 . S
C325 C324 1.405 . S
C325 H351 0.931 . S
U326 O327 2.454 . S
U326 O328 2.458 . S
U326 C329 2.984 . S
U326 C330 2.847 . S
U326 C343 2.882 . S
U326 O344 2.441 . S
U326 O345 2.420 . S
U326 O346 2.455 . S
U326 O347 2.449 . S
O327 U326 2.454 . S
O327 C329 1.353 . S
O328 U326 2.458 . S
O328 C329 1.286 . S
C329 U326 2.984 . S
C329 O327 1.353 . S
C329 O328 1.286 . S
C329 C331 1.363 . S
C330 C320 1.465 . S
C330 U326 2.847 . S
C330 O344 1.249 . S
C330 O345 1.202 . S
C331 C329 1.363 . S
C331 C333 1.408 . S
C331 C336 1.342 . S
C332 C333 1.310 . S
C332 C335 1.461 . S
C332 H352 0.932 . S
C333 C331 1.408 . S
C333 C332 1.310 . S
C333 H353 0.930 . S
C334 C335 1.474 . S
C334 C336 1.285 . S
C334 H354 0.929 . S
C335 C332 1.461 . S
C335 C334 1.474 . S
C336 C331 1.342 . S
C336 C334 1.285 . S
C336 H355 0.930 . S
C337 C340 1.424 . S
C337 C342 1.245 . S
C337 C343 1.428 . S
C338 C341 1.260 . S
C338 C342 1.477 . S
C338 H356 0.932 . S
C339 C340 1.384 . S
C339 C341 1.479 . S
C339 H357 0.929 . S
C340 C337 1.424 . S
C340 C339 1.384 . S
C340 H358 0.928 . S
C341 C338 1.260 . S
C341 C339 1.479 . S
C342 C337 1.245 . S
C342 C338 1.477 . S
C342 H359 0.932 . S
C343 U326 2.882 . S
C343 C337 1.428 . S
C343 O346 1.301 . S
C343 O347 1.282 . S
O344 U326 2.441 . S
O344 C330 1.249 . S
O345 U326 2.420 . S
O345 C330 1.202 . S
O346 U326 2.455 . S
O346 C343 1.301 . S
O347 U326 2.449 . S
O347 C343 1.282 . S
H348 C321 0.931 . S
H349 C323 0.929 . S
H350 C324 0.930 . S
H351 C325 0.931 . S
H352 C332 0.932 . S
H353 C333 0.930 . S
H354 C334 0.929 . S
H355 C336 0.930 . S
H356 C338 0.932 . S
H357 C339 0.929 . S
H358 C340 0.928 . S
H359 C342 0.932 . S
C360 C361 1.264 . S
C360 C365 1.479 . S
C360 C370 1.465 . S
C361 C360 1.264 . S
C361 C363 1.339 . S
C361 H388 0.931 . S
C362 C363 1.395 . S
C362 C364 1.320 . S
C363 C361 1.339 . S
C363 C362 1.395 . S
C363 H389 0.929 . S
C364 C362 1.320 . S
C364 C365 1.405 . S
C364 H390 0.930 . S
C365 C360 1.479 . S
C365 C364 1.405 . S
C365 H391 0.931 . S
U366 O367 2.454 . S
U366 O368 2.458 . S
U366 C369 2.984 . S
U366 C370 2.847 . S
U366 C383 2.882 . S
U366 O384 2.441 . S
U366 O385 2.420 . S
U366 O386 2.455 . S
U366 O387 2.449 . S
O367 U366 2.454 . S
O367 C369 1.353 . S
O368 U366 2.458 . S
O368 C369 1.286 . S
C369 U366 2.984 . S
C369 O367 1.353 . S
C369 O368 1.286 . S
C369 C371 1.363 . S
C370 C360 1.465 . S
C370 U366 2.847 . S
C370 O384 1.249 . S
C370 O385 1.202 . S
C371 C369 1.363 . S
C371 C373 1.408 . S
C371 C376 1.342 . S
C372 C373 1.310 . S
C372 C375 1.461 . S
C372 H392 0.932 . S
C373 C371 1.408 . S
C373 C372 1.310 . S
C373 H393 0.930 . S
C374 C375 1.474 . S
C374 C376 1.285 . S
C374 H394 0.929 . S
C375 C372 1.461 . S
C375 C374 1.474 . S
C376 C371 1.342 . S
C376 C374 1.285 . S
C376 H395 0.930 . S
C377 C380 1.424 . S
C377 C382 1.245 . S
C377 C383 1.428 . S
C378 C381 1.260 . S
C378 C382 1.477 . S
C378 H396 0.932 . S
C379 C380 1.384 . S
C379 C381 1.479 . S
C379 H397 0.929 . S
C380 C377 1.424 . S
C380 C379 1.384 . S
C380 H398 0.928 . S
C381 C378 1.260 . S
C381 C379 1.479 . S
C382 C377 1.245 . S
C382 C378 1.477 . S
C382 H399 0.932 . S
C383 U366 2.882 . S
C383 C377 1.428 . S
C383 O386 1.301 . S
C383 O387 1.282 . S
O384 U366 2.441 . S
O384 C370 1.249 . S
O385 U366 2.420 . S
O385 C370 1.202 . S
O386 U366 2.455 . S
O386 C383 1.301 . S
O387 U366 2.449 . S
O387 C383 1.282 . S
H388 C361 0.931 . S
H389 C363 0.929 . S
H390 C364 0.930 . S
H391 C365 0.931 . S
H392 C372 0.932 . S
H393 C373 0.930 . S
H394 C374 0.929 . S
H395 C376 0.930 . S
H396 C378 0.932 . S
H397 C379 0.929 . S
H398 C380 0.928 . S
H399 C382 0.932 . S
C400 C401 1.264 . S
C400 C405 1.479 . S
C400 C410 1.465 . S
C401 C400 1.264 . S
C401 C403 1.339 . S
C401 H428 0.931 . S
C402 C403 1.395 . S
C402 C404 1.320 . S
C403 C401 1.339 . S
C403 C402 1.395 . S
C403 H429 0.929 . S
C404 C402 1.320 . S
C404 C405 1.405 . S
C404 H430 0.930 . S
C405 C400 1.479 . S
C405 C404 1.405 . S
C405 H431 0.931 . S
U406 O407 2.454 . S
U406 O408 2.458 . S
U406 C409 2.984 . S
U406 C410 2.847 . S
U406 C423 2.882 . S
U406 O424 2.441 . S
U406 O425 2.420 . S
U406 O426 2.455 . S
U406 O427 2.449 . S
O407 U406 2.454 . S
O407 C409 1.353 . S
O408 U406 2.458 . S
O408 C409 1.286 . S
C409 U406 2.984 . S
C409 O407 1.353 . S
C409 O408 1.286 . S
C409 C411 1.363 . S
C410 C400 1.465 . S
C410 U406 2.847 . S
C410 O424 1.249 . S
C410 O425 1.202 . S
C411 C409 1.363 . S
C411 C413 1.408 . S
C411 C416 1.342 . S
C412 C413 1.310 . S
C412 C415 1.461 . S
C412 H432 0.932 . S
C413 C411 1.408 . S
C413 C412 1.310 . S
C413 H433 0.930 . S
C414 C415 1.474 . S
C414 C416 1.285 . S
C414 H434 0.929 . S
C415 C412 1.461 . S
C415 C414 1.474 . S
C416 C411 1.342 . S
C416 C414 1.285 . S
C416 H435 0.930 . S
C417 C420 1.424 . S
C417 C422 1.245 . S
C417 C423 1.428 . S
C418 C421 1.260 . S
C418 C422 1.477 . S
C418 H436 0.932 . S
C419 C420 1.384 . S
C419 C421 1.479 . S
C419 H437 0.929 . S
C420 C417 1.424 . S
C420 C419 1.384 . S
C420 H438 0.928 . S
C421 C418 1.260 . S
C421 C419 1.479 . S
C422 C417 1.245 . S
C422 C418 1.477 . S
C422 H439 0.932 . S
C423 U406 2.882 . S
C423 C417 1.428 . S
C423 O426 1.301 . S
C423 O427 1.282 . S
O424 U406 2.441 . S
O424 C410 1.249 . S
O425 U406 2.420 . S
O425 C410 1.202 . S
O426 U406 2.455 . S
O426 C423 1.301 . S
O427 U406 2.449 . S
O427 C423 1.282 . S
H428 C401 0.931 . S
H429 C403 0.929 . S
H430 C404 0.930 . S
H431 C405 0.931 . S
H432 C412 0.932 . S
H433 C413 0.930 . S
H434 C414 0.929 . S
H435 C416 0.930 . S
H436 C418 0.932 . S
H437 C419 0.929 . S
H438 C420 0.928 . S
H439 C422 0.932 . S
C440 C441 1.264 . S
C440 C445 1.479 . S
C440 C450 1.465 . S
C441 C440 1.264 . S
C441 C443 1.339 . S
C441 H468 0.931 . S
C442 C443 1.395 . S
C442 C444 1.320 . S
C443 C441 1.339 . S
C443 C442 1.395 . S
C443 H469 0.929 . S
C444 C442 1.320 . S
C444 C445 1.405 . S
C444 H470 0.930 . S
C445 C440 1.479 . S
C445 C444 1.405 . S
C445 H471 0.931 . S
U446 O447 2.454 . S
U446 O448 2.458 . S
U446 C449 2.984 . S
U446 C450 2.847 . S
U446 C463 2.882 . S
U446 O464 2.441 . S
U446 O465 2.420 . S
U446 O466 2.455 . S
U446 O467 2.449 . S
O447 U446 2.454 . S
O447 C449 1.353 . S
O448 U446 2.458 . S
O448 C449 1.286 . S
C449 U446 2.984 . S
C449 O447 1.353 . S
C449 O448 1.286 . S
C449 C451 1.363 . S
C450 C440 1.465 . S
C450 U446 2.847 . S
C450 O464 1.249 . S
C450 O465 1.202 . S
C451 C449 1.363 . S
C451 C453 1.408 . S
C451 C456 1.342 . S
C452 C453 1.310 . S
C452 C455 1.461 . S
C452 H472 0.932 . S
C453 C451 1.408 . S
C453 C452 1.310 . S
C453 H473 0.930 . S
C454 C455 1.474 . S
C454 C456 1.285 . S
C454 H474 0.929 . S
C455 C452 1.461 . S
C455 C454 1.474 . S
C456 C451 1.342 . S
C456 C454 1.285 . S
C456 H475 0.930 . S
C457 C460 1.424 . S
C457 C462 1.245 . S
C457 C463 1.428 . S
C458 C461 1.260 . S
C458 C462 1.477 . S
C458 H476 0.932 . S
C459 C460 1.384 . S
C459 C461 1.479 . S
C459 H477 0.929 . S
C460 C457 1.424 . S
C460 C459 1.384 . S
C460 H478 0.928 . S
C461 C458 1.260 . S
C461 C459 1.479 . S
C462 C457 1.245 . S
C462 C458 1.477 . S
C462 H479 0.932 . S
C463 U446 2.882 . S
C463 C457 1.428 . S
C463 O466 1.301 . S
C463 O467 1.282 . S
O464 U446 2.441 . S
O464 C450 1.249 . S
O465 U446 2.420 . S
O465 C450 1.202 . S
O466 U446 2.455 . S
O466 C463 1.301 . S
O467 U446 2.449 . S
O467 C463 1.282 . S
H468 C441 0.931 . S
H469 C443 0.929 . S
H470 C444 0.930 . S
H471 C445 0.931 . S
H472 C452 0.932 . S
H473 C453 0.930 . S
H474 C454 0.929 . S
H475 C456 0.930 . S
H476 C458 0.932 . S
H477 C459 0.929 . S
H478 C460 0.928 . S
H479 C462 0.932 . S
C480 C481 1.264 . S
C480 C485 1.479 . S
C480 C490 1.465 . S
C481 C480 1.264 . S
C481 C483 1.339 . S
C481 H508 0.931 . S
C482 C483 1.395 . S
C482 C484 1.320 . S
C483 C481 1.339 . S
C483 C482 1.395 . S
C483 H509 0.929 . S
C484 C482 1.320 . S
C484 C485 1.405 . S
C484 H510 0.930 . S
C485 C480 1.479 . S
C485 C484 1.405 . S
C485 H511 0.931 . S
U486 O487 2.454 . S
U486 O488 2.458 . S
U486 C489 2.984 . S
U486 C490 2.847 . S
U486 C503 2.882 . S
U486 O504 2.441 . S
U486 O505 2.420 . S
U486 O506 2.455 . S
U486 O507 2.449 . S
O487 U486 2.454 . S
O487 C489 1.353 . S
O488 U486 2.458 . S
O488 C489 1.286 . S
C489 U486 2.984 . S
C489 O487 1.353 . S
C489 O488 1.286 . S
C489 C491 1.363 . S
C490 C480 1.465 . S
C490 U486 2.847 . S
C490 O504 1.249 . S
C490 O505 1.202 . S
C491 C489 1.363 . S
C491 C493 1.408 . S
C491 C496 1.342 . S
C492 C493 1.310 . S
C492 C495 1.461 . S
C492 H512 0.932 . S
C493 C491 1.408 . S
C493 C492 1.310 . S
C493 H513 0.930 . S
C494 C495 1.474 . S
C494 C496 1.285 . S
C494 H514 0.929 . S
C495 C492 1.461 . S
C495 C494 1.474 . S
C496 C491 1.342 . S
C496 C494 1.285 . S
C496 H515 0.930 . S
C497 C500 1.424 . S
C497 C502 1.245 . S
C497 C503 1.428 . S
C498 C501 1.260 . S
C498 C502 1.477 . S
C498 H516 0.932 . S
C499 C500 1.384 . S
C499 C501 1.479 . S
C499 H517 0.929 . S
C500 C497 1.424 . S
C500 C499 1.384 . S
C500 H518 0.928 . S
C501 C498 1.260 . S
C501 C499 1.479 . S
C502 C497 1.245 . S
C502 C498 1.477 . S
C502 H519 0.932 . S
C503 U486 2.882 . S
C503 C497 1.428 . S
C503 O506 1.301 . S
C503 O507 1.282 . S
O504 U486 2.441 . S
O504 C490 1.249 . S
O505 U486 2.420 . S
O505 C490 1.202 . S
O506 U486 2.455 . S
O506 C503 1.301 . S
O507 U486 2.449 . S
O507 C503 1.282 . S
H508 C481 0.931 . S
H509 C483 0.929 . S
H510 C484 0.930 . S
H511 C485 0.931 . S
H512 C492 0.932 . S
H513 C493 0.930 . S
H514 C494 0.929 . S
H515 C496 0.930 . S
H516 C498 0.932 . S
H517 C499 0.929 . S
H518 C500 0.928 . S
H519 C502 0.932 . S
C520 C521 1.264 . S
C520 C525 1.479 . S
C520 C530 1.465 . S
C521 C520 1.264 . S
C521 C523 1.339 . S
C521 H548 0.931 . S
C522 C523 1.395 . S
C522 C524 1.320 . S
C523 C521 1.339 . S
C523 C522 1.395 . S
C523 H549 0.929 . S
C524 C522 1.320 . S
C524 C525 1.405 . S
C524 H550 0.930 . S
C525 C520 1.479 . S
C525 C524 1.405 . S
C525 H551 0.931 . S
U526 O527 2.454 . S
U526 O528 2.458 . S
U526 C529 2.984 . S
U526 C530 2.847 . S
U526 C543 2.882 . S
U526 O544 2.441 . S
U526 O545 2.420 . S
U526 O546 2.455 . S
U526 O547 2.449 . S
O527 U526 2.454 . S
O527 C529 1.353 . S
O528 U526 2.458 . S
O528 C529 1.286 . S
C529 U526 2.984 . S
C529 O527 1.353 . S
C529 O528 1.286 . S
C529 C531 1.363 . S
C530 C520 1.465 . S
C530 U526 2.847 . S
C530 O544 1.249 . S
C530 O545 1.202 . S
C531 C529 1.363 . S
C531 C533 1.408 . S
C531 C536 1.342 . S
C532 C533 1.310 . S
C532 C535 1.461 . S
C532 H552 0.932 . S
C533 C531 1.408 . S
C533 C532 1.310 . S
C533 H553 0.930 . S
C534 C535 1.474 . S
C534 C536 1.285 . S
C534 H554 0.929 . S
C535 C532 1.461 . S
C535 C534 1.474 . S
C536 C531 1.342 . S
C536 C534 1.285 . S
C536 H555 0.930 . S
C537 C540 1.424 . S
C537 C542 1.245 . S
C537 C543 1.428 . S
C538 C541 1.260 . S
C538 C542 1.477 . S
C538 H556 0.932 . S
C539 C540 1.384 . S
C539 C541 1.479 . S
C539 H557 0.929 . S
C540 C537 1.424 . S
C540 C539 1.384 . S
C540 H558 0.928 . S
C541 C538 1.260 . S
C541 C539 1.479 . S
C542 C537 1.245 . S
C542 C538 1.477 . S
C542 H559 0.932 . S
C543 U526 2.882 . S
C543 C537 1.428 . S
C543 O546 1.301 . S
C543 O547 1.282 . S
O544 U526 2.441 . S
O544 C530 1.249 . S
O545 U526 2.420 . S
O545 C530 1.202 . S
O546 U526 2.455 . S
O546 C543 1.301 . S
O547 U526 2.449 . S
O547 C543 1.282 . S
H548 C521 0.931 . S
H549 C523 0.929 . S
H550 C524 0.930 . S
H551 C525 0.931 . S
H552 C532 0.932 . S
H553 C533 0.930 . S
H554 C534 0.929 . S
H555 C536 0.930 . S
H556 C538 0.932 . S
H557 C539 0.929 . S
H558 C540 0.928 . S
H559 C542 0.932 . S
C560 C561 1.264 . S
C560 C565 1.479 . S
C560 C570 1.465 . S
C561 C560 1.264 . S
C561 C563 1.339 . S
C561 H588 0.931 . S
C562 C563 1.395 . S
C562 C564 1.320 . S
C563 C561 1.339 . S
C563 C562 1.395 . S
C563 H589 0.929 . S
C564 C562 1.320 . S
C564 C565 1.405 . S
C564 H590 0.930 . S
C565 C560 1.479 . S
C565 C564 1.405 . S
C565 H591 0.931 . S
U566 O567 2.454 . S
U566 O568 2.458 . S
U566 C569 2.984 . S
U566 C570 2.847 . S
U566 C583 2.882 . S
U566 O584 2.441 . S
U566 O585 2.420 . S
U566 O586 2.455 . S
U566 O587 2.449 . S
O567 U566 2.454 . S
O567 C569 1.353 . S
O568 U566 2.458 . S
O568 C569 1.286 . S
C569 U566 2.984 . S
C569 O567 1.353 . S
C569 O568 1.286 . S
C569 C571 1.363 . S
C570 C560 1.465 . S
C570 U566 2.847 . S
C570 O584 1.249 . S
C570 O585 1.202 . S
C571 C569 1.363 . S
C571 C573 1.408 . S
C571 C576 1.342 . S
C572 C573 1.310 . S
C572 C575 1.461 . S
C572 H592 0.932 . S
C573 C571 1.408 . S
C573 C572 1.310 . S
C573 H593 0.930 . S
C574 C575 1.474 . S
C574 C576 1.285 . S
C574 H594 0.929 . S
C575 C572 1.461 . S
C575 C574 1.474 . S
C576 C571 1.342 . S
C576 C574 1.285 . S
C576 H595 0.930 . S
C577 C580 1.424 . S
C577 C582 1.245 . S
C577 C583 1.428 . S
C578 C581 1.260 . S
C578 C582 1.477 . S
C578 H596 0.932 . S
C579 C580 1.384 . S
C579 C581 1.479 . S
C579 H597 0.929 . S
C580 C577 1.424 . S
C580 C579 1.384 . S
C580 H598 0.928 . S
C581 C578 1.260 . S
C581 C579 1.479 . S
C582 C577 1.245 . S
C582 C578 1.477 . S
C582 H599 0.932 . S
C583 U566 2.882 . S
C583 C577 1.428 . S
C583 O586 1.301 . S
C583 O587 1.282 . S
O584 U566 2.441 . S
O584 C570 1.249 . S
O585 U566 2.420 . S
O585 C570 1.202 . S
O586 U566 2.455 . S
O586 C583 1.301 . S
O587 U566 2.449 . S
O587 C583 1.282 . S
H588 C561 0.931 . S
H589 C563 0.929 . S
H590 C564 0.930 . S
H591 C565 0.931 . S
H592 C572 0.932 . S
H593 C573 0.930 . S
H594 C574 0.929 . S
H595 C576 0.930 . S
H596 C578 0.932 . S
H597 C579 0.929 . S
H598 C580 0.928 . S
H599 C582 0.932 . S
C600 C601 1.264 . S
C600 C605 1.479 . S
C600 C610 1.465 . S
C601 C600 1.264 . S
C601 C603 1.339 . S
C601 H628 0.931 . S
C602 C603 1.395 . S
C602 C604 1.320 . S
C603 C601 1.339 . S
C603 C602 1.395 . S
C603 H629 0.929 . S
C604 C602 1.320 . S
C604 C605 1.405 . S
C604 H630 0.930 . S
C605 C600 1.479 . S
C605 C604 1.405 . S
C605 H631 0.931 . S
U606 O607 2.454 . S
U606 O608 2.458 . S
U606 C609 2.984 . S
U606 C610 2.847 . S
U606 C623 2.882 . S
U606 O624 2.441 . S
U606 O625 2.420 . S
U606 O626 2.455 . S
U606 O627 2.449 . S
O607 U606 2.454 . S
O607 C609 1.353 . S
O608 U606 2.458 . S
O608 C609 1.286 . S
C609 U606 2.984 . S
C609 O607 1.353 . S
C609 O608 1.286 . S
C609 C611 1.363 . S
C610 C600 1.465 . S
C610 U606 2.847 . S
C610 O624 1.249 . S
C610 O625 1.202 . S
C611 C609 1.363 . S
C611 C613 1.408 . S
C611 C616 1.342 . S
C612 C613 1.310 . S
C612 C615 1.461 . S
C612 H632 0.932 . S
C613 C611 1.408 . S
C613 C612 1.310 . S
C613 H633 0.930 . S
C614 C615 1.474 . S
C614 C616 1.285 . S
C614 H634 0.929 . S
C615 C612 1.461 . S
C615 C614 1.474 . S
C616 C611 1.342 . S
C616 C614 1.285 . S
C616 H635 0.930 . S
C617 C620 1.424 . S
C617 C622 1.245 . S
C617 C623 1.428 . S
C618 C621 1.260 . S
C618 C622 1.477 . S
C618 H636 0.932 . S
C619 C620 1.384 . S
C619 C621 1.479 . S
C619 H637 0.929 . S
C620 C617 1.424 . S
C620 C619 1.384 . S
C620 H638 0.928 . S
C621 C618 1.260 . S
C621 C619 1.479 . S
C622 C617 1.245 . S
C622 C618 1.477 . S
C622 H639 0.932 . S
C623 U606 2.882 . S
C623 C617 1.428 . S
C623 O626 1.301 . S
C623 O627 1.282 . S
O624 U606 2.441 . S
O624 C610 1.249 . S
O625 U606 2.420 . S
O625 C610 1.202 . S
O626 U606 2.455 . S
O626 C623 1.301 . S
O627 U606 2.449 . S
O627 C623 1.282 . S
H628 C601 0.931 . S
H629 C603 0.929 . S
H630 C604 0.930 . S
H631 C605 0.931 . S
H632 C612 0.932 . S
H633 C613 0.930 . S
H634 C614 0.929 . S
H635 C616 0.930 . S
H636 C618 0.932 . S
H637 C619 0.929 . S
H638 C620 0.928 . S
H639 C622 0.932 . S
C640 C641 1.264 . S
C640 C645 1.479 . S
C640 C650 1.465 . S
C641 C640 1.264 . S
C641 C643 1.339 . S
C641 H668 0.931 . S
C642 C643 1.395 . S
C642 C644 1.320 . S
C643 C641 1.339 . S
C643 C642 1.395 . S
C643 H669 0.929 . S
C644 C642 1.320 . S
C644 C645 1.405 . S
C644 H670 0.930 . S
C645 C640 1.479 . S
C645 C644 1.405 . S
C645 H671 0.931 . S
U646 O647 2.454 . S
U646 O648 2.458 . S
U646 C649 2.984 . S
U646 C650 2.847 . S
U646 C663 2.882 . S
U646 O664 2.441 . S
U646 O665 2.420 . S
U646 O666 2.455 . S
U646 O667 2.449 . S
O647 U646 2.454 . S
O647 C649 1.353 . S
O648 U646 2.458 . S
O648 C649 1.286 . S
C649 U646 2.984 . S
C649 O647 1.353 . S
C649 O648 1.286 . S
C649 C651 1.363 . S
C650 C640 1.465 . S
C650 U646 2.847 . S
C650 O664 1.249 . S
C650 O665 1.202 . S
C651 C649 1.363 . S
C651 C653 1.408 . S
C651 C656 1.342 . S
C652 C653 1.310 . S
C652 C655 1.461 . S
C652 H672 0.932 . S
C653 C651 1.408 . S
C653 C652 1.310 . S
C653 H673 0.930 . S
C654 C655 1.474 . S
C654 C656 1.285 . S
C654 H674 0.929 . S
C655 C652 1.461 . S
C655 C654 1.474 . S
C656 C651 1.342 . S
C656 C654 1.285 . S
C656 H675 0.930 . S
C657 C660 1.424 . S
C657 C662 1.245 . S
C657 C663 1.428 . S
C658 C661 1.260 . S
C658 C662 1.477 . S
C658 H676 0.932 . S
C659 C660 1.384 . S
C659 C661 1.479 . S
C659 H677 0.929 . S
C660 C657 1.424 . S
C660 C659 1.384 . S
C660 H678 0.928 . S
C661 C658 1.260 . S
C661 C659 1.479 . S
C662 C657 1.245 . S
C662 C658 1.477 . S
C662 H679 0.932 . S
C663 U646 2.882 . S
C663 C657 1.428 . S
C663 O666 1.301 . S
C663 O667 1.282 . S
O664 U646 2.441 . S
O664 C650 1.249 . S
O665 U646 2.420 . S
O665 C650 1.202 . S
O666 U646 2.455 . S
O666 C663 1.301 . S
O667 U646 2.449 . S
O667 C663 1.282 . S
H668 C641 0.931 . S
H669 C643 0.929 . S
H670 C644 0.930 . S
H671 C645 0.931 . S
H672 C652 0.932 . S
H673 C653 0.930 . S
H674 C654 0.929 . S
H675 C656 0.930 . S
H676 C658 0.932 . S
H677 C659 0.929 . S
H678 C660 0.928 . S
H679 C662 0.932 . S
C680 C681 1.264 . S
C680 C685 1.479 . S
C680 C690 1.465 . S
C681 C680 1.264 . S
C681 C683 1.339 . S
C681 H708 0.931 . S
C682 C683 1.395 . S
C682 C684 1.320 . S
C683 C681 1.339 . S
C683 C682 1.395 . S
C683 H709 0.929 . S
C684 C682 1.320 . S
C684 C685 1.405 . S
C684 H710 0.930 . S
C685 C680 1.479 . S
C685 C684 1.405 . S
C685 H711 0.931 . S
U686 O687 2.454 . S
U686 O688 2.458 . S
U686 C689 2.984 . S
U686 C690 2.847 . S
U686 C703 2.882 . S
U686 O704 2.441 . S
U686 O705 2.420 . S
U686 O706 2.455 . S
U686 O707 2.449 . S
O687 U686 2.454 . S
O687 C689 1.353 . S
O688 U686 2.458 . S
O688 C689 1.286 . S
C689 U686 2.984 . S
C689 O687 1.353 . S
C689 O688 1.286 . S
C689 C691 1.363 . S
C690 C680 1.465 . S
C690 U686 2.847 . S
C690 O704 1.249 . S
C690 O705 1.202 . S
C691 C689 1.363 . S
C691 C693 1.408 . S
C691 C696 1.342 . S
C692 C693 1.310 . S
C692 C695 1.461 . S
C692 H712 0.932 . S
C693 C691 1.408 . S
C693 C692 1.310 . S
C693 H713 0.930 . S
C694 C695 1.474 . S
C694 C696 1.285 . S
C694 H714 0.929 . S
C695 C692 1.461 . S
C695 C694 1.474 . S
C696 C691 1.342 . S
C696 C694 1.285 . S
C696 H715 0.930 . S
C697 C700 1.424 . S
C697 C702 1.245 . S
C697 C703 1.428 . S
C698 C701 1.260 . S
C698 C702 1.477 . S
C698 H716 0.932 . S
C699 C700 1.384 . S
C699 C701 1.479 . S
C699 H717 0.929 . S
C700 C697 1.424 . S
C700 C699 1.384 . S
C700 H718 0.928 . S
C701 C698 1.260 . S
C701 C699 1.479 . S
C702 C697 1.245 . S
C702 C698 1.477 . S
C702 H719 0.932 . S
C703 U686 2.882 . S
C703 C697 1.428 . S
C703 O706 1.301 . S
C703 O707 1.282 . S
O704 U686 2.441 . S
O704 C690 1.249 . S
O705 U686 2.420 . S
O705 C690 1.202 . S
O706 U686 2.455 . S
O706 C703 1.301 . S
O707 U686 2.449 . S
O707 C703 1.282 . S
H708 C681 0.931 . S
H709 C683 0.929 . S
H710 C684 0.930 . S
H711 C685 0.931 . S
H712 C692 0.932 . S
H713 C693 0.930 . S
H714 C694 0.929 . S
H715 C696 0.930 . S
H716 C698 0.932 . S
H717 C699 0.929 . S
H718 C700 0.928 . S
H719 C702 0.932 . S
C720 C721 1.264 . S
C720 C725 1.479 . S
C720 C730 1.465 . S
C721 C720 1.264 . S
C721 C723 1.339 . S
C721 H748 0.931 . S
C722 C723 1.395 . S
C722 C724 1.320 . S
C723 C721 1.339 . S
C723 C722 1.395 . S
C723 H749 0.929 . S
C724 C722 1.320 . S
C724 C725 1.405 . S
C724 H750 0.930 . S
C725 C720 1.479 . S
C725 C724 1.405 . S
C725 H751 0.931 . S
U726 O727 2.454 . S
U726 O728 2.458 . S
U726 C729 2.984 . S
U726 C730 2.847 . S
U726 C743 2.882 . S
U726 O744 2.441 . S
U726 O745 2.420 . S
U726 O746 2.455 . S
U726 O747 2.449 . S
O727 U726 2.454 . S
O727 C729 1.353 . S
O728 U726 2.458 . S
O728 C729 1.286 . S
C729 U726 2.984 . S
C729 O727 1.353 . S
C729 O728 1.286 . S
C729 C731 1.363 . S
C730 C720 1.465 . S
C730 U726 2.847 . S
C730 O744 1.249 . S
C730 O745 1.202 . S
C731 C729 1.363 . S
C731 C733 1.408 . S
C731 C736 1.342 . S
C732 C733 1.310 . S
C732 C735 1.461 . S
C732 H752 0.932 . S
C733 C731 1.408 . S
C733 C732 1.310 . S
C733 H753 0.930 . S
C734 C735 1.474 . S
C734 C736 1.285 . S
C734 H754 0.929 . S
C735 C732 1.461 . S
C735 C734 1.474 . S
C736 C731 1.342 . S
C736 C734 1.285 . S
C736 H755 0.930 . S
C737 C740 1.424 . S
C737 C742 1.245 . S
C737 C743 1.428 . S
C738 C741 1.260 . S
C738 C742 1.477 . S
C738 H756 0.932 . S
C739 C740 1.384 . S
C739 C741 1.479 . S
C739 H757 0.929 . S
C740 C737 1.424 . S
C740 C739 1.384 . S
C740 H758 0.928 . S
C741 C738 1.260 . S
C741 C739 1.479 . S
C742 C737 1.245 . S
C742 C738 1.477 . S
C742 H759 0.932 . S
C743 U726 2.882 . S
C743 C737 1.428 . S
C743 O746 1.301 . S
C743 O747 1.282 . S
O744 U726 2.441 . S
O744 C730 1.249 . S
O745 U726 2.420 . S
O745 C730 1.202 . S
O746 U726 2.455 . S
O746 C743 1.301 . S
O747 U726 2.449 . S
O747 C743 1.282 . S
H748 C721 0.931 . S
H749 C723 0.929 . S
H750 C724 0.930 . S
H751 C725 0.931 . S
H752 C732 0.932 . S
H753 C733 0.930 . S
H754 C734 0.929 . S
H755 C736 0.930 . S
H756 C738 0.932 . S
H757 C739 0.929 . S
H758 C740 0.928 . S
H759 C742 0.932 . S
C760 C761 1.264 . S
C760 C765 1.479 . S
C760 C770 1.465 . S
C761 C760 1.264 . S
C761 C763 1.339 . S
C761 H788 0.931 . S
C762 C763 1.395 . S
C762 C764 1.320 . S
C763 C761 1.339 . S
C763 C762 1.395 . S
C763 H789 0.929 . S
C764 C762 1.320 . S
C764 C765 1.405 . S
C764 H790 0.930 . S
C765 C760 1.479 . S
C765 C764 1.405 . S
C765 H791 0.931 . S
U766 O767 2.454 . S
U766 O768 2.458 . S
U766 C769 2.984 . S
U766 C770 2.847 . S
U766 C783 2.882 . S
U766 O784 2.441 . S
U766 O785 2.420 . S
U766 O786 2.455 . S
U766 O787 2.449 . S
O767 U766 2.454 . S
O767 C769 1.353 . S
O768 U766 2.458 . S
O768 C769 1.286 . S
C769 U766 2.984 . S
C769 O767 1.353 . S
C769 O768 1.286 . S
C769 C771 1.363 . S
C770 C760 1.465 . S
C770 U766 2.847 . S
C770 O784 1.249 . S
C770 O785 1.202 . S
C771 C769 1.363 . S
C771 C773 1.408 . S
C771 C776 1.342 . S
C772 C773 1.310 . S
C772 C775 1.461 . S
C772 H792 0.932 . S
C773 C771 1.408 . S
C773 C772 1.310 . S
C773 H793 0.930 . S
C774 C775 1.474 . S
C774 C776 1.285 . S
C774 H794 0.929 . S
C775 C772 1.461 . S
C775 C774 1.474 . S
C776 C771 1.342 . S
C776 C774 1.285 . S
C776 H795 0.930 . S
C777 C780 1.424 . S
C777 C782 1.245 . S
C777 C783 1.428 . S
C778 C781 1.260 . S
C778 C782 1.477 . S
C778 H796 0.932 . S
C779 C780 1.384 . S
C779 C781 1.479 . S
C779 H797 0.929 . S
C780 C777 1.424 . S
C780 C779 1.384 . S
C780 H798 0.928 . S
C781 C778 1.260 . S
C781 C779 1.479 . S
C782 C777 1.245 . S
C782 C778 1.477 . S
C782 H799 0.932 . S
C783 U766 2.882 . S
C783 C777 1.428 . S
C783 O786 1.301 . S
C783 O787 1.282 . S
O784 U766 2.441 . S
O784 C770 1.249 . S
O785 U766 2.420 . S
O785 C770 1.202 . S
O786 U766 2.455 . S
O786 C783 1.301 . S
O787 U766 2.449 . S
O787 C783 1.282 . S
H788 C761 0.931 . S
H789 C763 0.929 . S
H790 C764 0.930 . S
H791 C765 0.931 . S
H792 C772 0.932 . S
H793 C773 0.930 . S
H794 C774 0.929 . S
H795 C776 0.930 . S
H796 C778 0.932 . S
H797 C779 0.929 . S
H798 C780 0.928 . S
H799 C782 0.932 . S
C800 C801 1.264 . S
C800 C805 1.479 . S
C800 C810 1.465 . S
C801 C800 1.264 . S
C801 C803 1.339 . S
C801 H828 0.931 . S
C802 C803 1.395 . S
C802 C804 1.320 . S
C803 C801 1.339 . S
C803 C802 1.395 . S
C803 H829 0.929 . S
C804 C802 1.320 . S
C804 C805 1.405 . S
C804 H830 0.930 . S
C805 C800 1.479 . S
C805 C804 1.405 . S
C805 H831 0.931 . S
U806 O807 2.454 . S
U806 O808 2.458 . S
U806 C809 2.984 . S
U806 C810 2.847 . S
U806 C823 2.882 . S
U806 O824 2.441 . S
U806 O825 2.420 . S
U806 O826 2.455 . S
U806 O827 2.449 . S
O807 U806 2.454 . S
O807 C809 1.353 . S
O808 U806 2.458 . S
O808 C809 1.286 . S
C809 U806 2.984 . S
C809 O807 1.353 . S
C809 O808 1.286 . S
C809 C811 1.363 . S
C810 C800 1.465 . S
C810 U806 2.847 . S
C810 O824 1.249 . S
C810 O825 1.202 . S
C811 C809 1.363 . S
C811 C813 1.408 . S
C811 C816 1.342 . S
C812 C813 1.310 . S
C812 C815 1.461 . S
C812 H832 0.932 . S
C813 C811 1.408 . S
C813 C812 1.310 . S
C813 H833 0.930 . S
C814 C815 1.474 . S
C814 C816 1.285 . S
C814 H834 0.929 . S
C815 C812 1.461 . S
C815 C814 1.474 . S
C816 C811 1.342 . S
C816 C814 1.285 . S
C816 H835 0.930 . S
C817 C820 1.424 . S
C817 C822 1.245 . S
C817 C823 1.428 . S
C818 C821 1.260 . S
C818 C822 1.477 . S
C818 H836 0.932 . S
C819 C820 1.384 . S
C819 C821 1.479 . S
C819 H837 0.929 . S
C820 C817 1.424 . S
C820 C819 1.384 . S
C820 H838 0.928 . S
C821 C818 1.260 . S
C821 C819 1.479 . S
C822 C817 1.245 . S
C822 C818 1.477 . S
C822 H839 0.932 . S
C823 U806 2.882 . S
C823 C817 1.428 . S
C823 O826 1.301 . S
C823 O827 1.282 . S
O824 U806 2.441 . S
O824 C810 1.249 . S
O825 U806 2.420 . S
O825 C810 1.202 . S
O826 U806 2.455 . S
O826 C823 1.301 . S
O827 U806 2.449 . S
O827 C823 1.282 . S
H828 C801 0.931 . S
H829 C803 0.929 . S
H830 C804 0.930 . S
H831 C805 0.931 . S
H832 C812 0.932 . S
H833 C813 0.930 . S
H834 C814 0.929 . S
H835 C816 0.930 . S
H836 C818 0.932 . S
H837 C819 0.929 . S
H838 C820 0.928 . S
H839 C822 0.932 . S
C840 C841 1.264 . S
C840 C845 1.479 . S
C840 C850 1.465 . S
C841 C840 1.264 . S
C841 C843 1.339 . S
C841 H868 0.931 . S
C842 C843 1.395 . S
C842 C844 1.320 . S
C843 C841 1.339 . S
C843 C842 1.395 . S
C843 H869 0.929 . S
C844 C842 1.320 . S
C844 C845 1.405 . S
C844 H870 0.930 . S
C845 C840 1.479 . S
C845 C844 1.405 . S
C845 H871 0.931 . S
U846 O847 2.454 . S
U846 O848 2.458 . S
U846 C849 2.984 . S
U846 C850 2.847 . S
U846 C863 2.882 . S
U846 O864 2.441 . S
U846 O865 2.420 . S
U846 O866 2.455 . S
U846 O867 2.449 . S
O847 U846 2.454 . S
O847 C849 1.353 . S
O848 U846 2.458 . S
O848 C849 1.286 . S
C849 U846 2.984 . S
C849 O847 1.353 . S
C849 O848 1.286 . S
C849 C851 1.363 . S
C850 C840 1.465 . S
C850 U846 2.847 . S
C850 O864 1.249 . S
C850 O865 1.202 . S
C851 C849 1.363 . S
C851 C853 1.408 . S
C851 C856 1.342 . S
C852 C853 1.310 . S
C852 C855 1.461 . S
C852 H872 0.932 . S
C853 C851 1.408 . S
C853 C852 1.310 . S
C853 H873 0.930 . S
C854 C855 1.474 . S
C854 C856 1.285 . S
C854 H874 0.929 . S
C855 C852 1.461 . S
C855 C854 1.474 . S
C856 C851 1.342 . S
C856 C854 1.285 . S
C856 H875 0.930 . S
C857 C860 1.424 . S
C857 C862 1.245 . S
C857 C863 1.428 . S
C858 C861 1.260 . S
C858 C862 1.477 . S
C858 H876 0.932 . S
C859 C860 1.384 . S
C859 C861 1.479 . S
C859 H877 0.929 . S
C860 C857 1.424 . S
C860 C859 1.384 . S
C860 H878 0.928 . S
C861 C858 1.260 . S
C861 C859 1.479 . S
C862 C857 1.245 . S
C862 C858 1.477 . S
C862 H879 0.932 . S
C863 U846 2.882 . S
C863 C857 1.428 . S
C863 O866 1.301 . S
C863 O867 1.282 . S
O864 U846 2.441 . S
O864 C850 1.249 . S
O865 U846 2.420 . S
O865 C850 1.202 . S
O866 U846 2.455 . S
O866 C863 1.301 . S
O867 U846 2.449 . S
O867 C863 1.282 . S
H868 C841 0.931 . S
H869 C843 0.929 . S
H870 C844 0.930 . S
H871 C845 0.931 . S
H872 C852 0.932 . S
H873 C853 0.930 . S
H874 C854 0.929 . S
H875 C856 0.930 . S
H876 C858 0.932 . S
H877 C859 0.929 . S
H878 C860 0.928 . S
H879 C862 0.932 . S
C880 C881 1.264 . S
C880 C885 1.479 . S
C880 C890 1.465 . S
C881 C880 1.264 . S
C881 C883 1.339 . S
C881 H908 0.931 . S
C882 C883 1.395 . S
C882 C884 1.320 . S
C883 C881 1.339 . S
C883 C882 1.395 . S
C883 H909 0.929 . S
C884 C882 1.320 . S
C884 C885 1.405 . S
C884 H910 0.930 . S
C885 C880 1.479 . S
C885 C884 1.405 . S
C885 H911 0.931 . S
U886 O887 2.454 . S
U886 O888 2.458 . S
U886 C889 2.984 . S
U886 C890 2.847 . S
U886 C903 2.882 . S
U886 O904 2.441 . S
U886 O905 2.420 . S
U886 O906 2.455 . S
U886 O907 2.449 . S
O887 U886 2.454 . S
O887 C889 1.353 . S
O888 U886 2.458 . S
O888 C889 1.286 . S
C889 U886 2.984 . S
C889 O887 1.353 . S
C889 O888 1.286 . S
C889 C891 1.363 . S
C890 C880 1.465 . S
C890 U886 2.847 . S
C890 O904 1.249 . S
C890 O905 1.202 . S
C891 C889 1.363 . S
C891 C893 1.408 . S
C891 C896 1.342 . S
C892 C893 1.310 . S
C892 C895 1.461 . S
C892 H912 0.932 . S
C893 C891 1.408 . S
C893 C892 1.310 . S
C893 H913 0.930 . S
C894 C895 1.474 . S
C894 C896 1.285 . S
C894 H914 0.929 . S
C895 C892 1.461 . S
C895 C894 1.474 . S
C896 C891 1.342 . S
C896 C894 1.285 . S
C896 H915 0.930 . S
C897 C900 1.424 . S
C897 C902 1.245 . S
C897 C903 1.428 . S
C898 C901 1.260 . S
C898 C902 1.477 . S
C898 H916 0.932 . S
C899 C900 1.384 . S
C899 C901 1.479 . S
C899 H917 0.929 . S
C900 C897 1.424 . S
C900 C899 1.384 . S
C900 H918 0.928 . S
C901 C898 1.260 . S
C901 C899 1.479 . S
C902 C897 1.245 . S
C902 C898 1.477 . S
C902 H919 0.932 . S
C903 U886 2.882 . S
C903 C897 1.428 . S
C903 O906 1.301 . S
C903 O907 1.282 . S
O904 U886 2.441 . S
O904 C890 1.249 . S
O905 U886 2.420 . S
O905 C890 1.202 . S
O906 U886 2.455 . S
O906 C903 1.301 . S
O907 U886 2.449 . S
O907 C903 1.282 . S
H908 C881 0.931 . S
H909 C883 0.929 . S
H910 C884 0.930 . S
H911 C885 0.931 . S
H912 C892 0.932 . S
H913 C893 0.930 . S
H914 C894 0.929 . S
H915 C896 0.930 . S
H916 C898 0.932 . S
H917 C899 0.929 . S
H918 C900 0.928 . S
H919 C902 0.932 . S
C920 C921 1.264 . S
C920 C925 1.479 . S
C920 C930 1.465 . S
C921 C920 1.264 . S
C921 C923 1.339 . S
C921 H948 0.931 . S
C922 C923 1.395 . S
C922 C924 1.320 . S
C923 C921 1.339 . S
C923 C922 1.395 . S
C923 H949 0.929 . S
C924 C922 1.320 . S
C924 C925 1.405 . S
C924 H950 0.930 . S
C925 C920 1.479 . S
C925 C924 1.405 . S
C925 H951 0.931 . S
U926 O927 2.454 . S
U926 O928 2.458 . S
U926 C929 2.984 . S
U926 C930 2.847 . S
U926 C943 2.882 . S
U926 O944 2.441 . S
U926 O945 2.420 . S
U926 O946 2.455 . S
U926 O947 2.449 . S
O927 U926 2.454 . S
O927 C929 1.353 . S
O928 U926 2.458 . S
O928 C929 1.286 . S
C929 U926 2.984 . S
C929 O927 1.353 . S
C929 O928 1.286 . S
C929 C931 1.363 . S
C930 C920 1.465 . S
C930 U926 2.847 . S
C930 O944 1.249 . S
C930 O945 1.202 . S
C931 C929 1.363 . S
C931 C933 1.408 . S
C931 C936 1.342 . S
C932 C933 1.310 . S
C932 C935 1.461 . S
C932 H952 0.932 . S
C933 C931 1.408 . S
C933 C932 1.310 . S
C933 H953 0.930 . S
C934 C935 1.474 . S
C934 C936 1.285 . S
C934 H954 0.929 . S
C935 C932 1.461 . S
C935 C934 1.474 . S
C936 C931 1.342 . S
C936 C934 1.285 . S
C936 H955 0.930 . S
C937 C940 1.424 . S
C937 C942 1.245 . S
C937 C943 1.428 . S
C938 C941 1.260 . S
C938 C942 1.477 . S
C938 H956 0.932 . S
C939 C940 1.384 . S
C939 C941 1.479 . S
C939 H957 0.929 . S
C940 C937 1.424 . S
C940 C939 1.384 . S
C940 H958 0.928 . S
C941 C938 1.260 . S
C941 C939 1.479 . S
C942 C937 1.245 . S
C942 C938 1.477 . S
C942 H959 0.932 . S
C943 U926 2.882 . S
C943 C937 1.428 . S
C943 O946 1.301 . S
C943 O947 1.282 . S
O944 U926 2.441 . S
O944 C930 1.249 . S
O945 U926 2.420 . S
O945 C930 1.202 . S
O946 U926 2.455 . S
O946 C943 1.301 . S
O947 U926 2.449 . S
O947 C943 1.282 . S
H948 C921 0.931 . S
H949 C923 0.929 . S
H950 C924 0.930 . S
H951 C925 0.931 . S
H952 C932 0.932 . S
H953 C933 0.930 . S
H954 C934 0.929 . S
H955 C936 0.930 . S
H956 C938 0.932 . S
H957 C939 0.929 . S
H958 C940 0.928 . S
H959 C942 0.932 . S
C960 C961 1.264 . S
C960 C965 1.479 . S
C960 C970 1.465 . S
C961 C960 1.264 . S
C961 C963 1.339 . S
C961 H988 0.931 . S
C962 C963 1.395 . S
C962 C964 1.320 . S
C963 C961 1.339 . S
C963 C962 1.395 . S
C963 H989 0.929 . S
C964 C962 1.320 . S
C964 C965 1.405 . S
C964 H990 0.930 . S
C965 C960 1.479 . S
C965 C964 1.405 . S
C965 H991 0.931 . S
U966 O967 2.454 . S
U966 O968 2.458 . S
U966 C969 2.984 . S
U966 C970 2.847 . S
U966 C983 2.882 . S
U966 O984 2.441 . S
U966 O985 2.420 . S
U966 O986 2.455 . S
U966 O987 2.449 . S
O967 U966 2.454 . S
O967 C969 1.353 . S
O968 U966 2.458 . S
O968 C969 1.286 . S
C969 U966 2.984 . S
C969 O967 1.353 . S
C969 O968 1.286 . S
C969 C971 1.363 . S
C970 C960 1.465 . S
C970 U966 2.847 . S
C970 O984 1.249 . S
C970 O985 1.202 . S
C971 C969 1.363 . S
C971 C973 1.408 . S
C971 C976 1.342 . S
C972 C973 1.310 . S
C972 C975 1.461 . S
C972 H992 0.932 . S
C973 C971 1.408 . S
C973 C972 1.310 . S
C973 H993 0.930 . S
C974 C975 1.474 . S
C974 C976 1.285 . S
C974 H994 0.929 . S
C975 C972 1.461 . S
C975 C974 1.474 . S
C976 C971 1.342 . S
C976 C974 1.285 . S
C976 H995 0.930 . S
C977 C980 1.424 . S
C977 C982 1.245 . S
C977 C983 1.428 . S
C978 C981 1.260 . S
C978 C982 1.477 . S
C978 H996 0.932 . S
C979 C980 1.384 . S
C979 C981 1.479 . S
C979 H997 0.929 . S
C980 C977 1.424 . S
C980 C979 1.384 . S
C980 H998 0.928 . S
C981 C978 1.260 . S
C981 C979 1.479 . S
C982 C977 1.245 . S
C982 C978 1.477 . S
C982 H999 0.932 . S
C983 U966 2.882 . S
C983 C977 1.428 . S
C983 O986 1.301 . S
C983 O987 1.282 . S
O984 U966 2.441 . S
O984 C970 1.249 . S
O985 U966 2.420 . S
O985 C970 1.202 . S
O986 U966 2.455 . S
O986 C983 1.301 . S
O987 U966 2.449 . S
O987 C983 1.282 . S
H988 C961 0.931 . S
H989 C963 0.929 . S
H990 C964 0.930 . S
H991 C965 0.931 . S
H992 C972 0.932 . S
H993 C973 0.930 . S
H994 C974 0.929 . S
H995 C976 0.930 . S
H996 C978 0.932 . S
H997 C979 0.929 . S
H998 C980 0.928 . S
H999 C982 0.932 . S
C1000 C1001 1.264 . S
C1000 C1005 1.479 . S
C1000 C1010 1.465 . S
C1001 C1000 1.264 . S
C1001 C1003 1.339 . S
C1001 H1028 0.931 . S
C1002 C1003 1.395 . S
C1002 C1004 1.320 . S
C1003 C1001 1.339 . S
C1003 C1002 1.395 . S
C1003 H1029 0.929 . S
C1004 C1002 1.320 . S
C1004 C1005 1.405 . S
C1004 H1030 0.930 . S
C1005 C1000 1.479 . S
C1005 C1004 1.405 . S
C1005 H1031 0.931 . S
U1006 O1007 2.454 . S
U1006 O1008 2.458 . S
U1006 C1009 2.984 . S
U1006 C1010 2.847 . S
U1006 C1023 2.882 . S
U1006 O1024 2.441 . S
U1006 O1025 2.420 . S
U1006 O1026 2.455 . S
U1006 O1027 2.449 . S
O1007 U1006 2.454 . S
O1007 C1009 1.353 . S
O1008 U1006 2.458 . S
O1008 C1009 1.286 . S
C1009 U1006 2.984 . S
C1009 O1007 1.353 . S
C1009 O1008 1.286 . S
C1009 C1011 1.363 . S
C1010 C1000 1.465 . S
C1010 U1006 2.847 . S
C1010 O1024 1.249 . S
C1010 O1025 1.202 . S
C1011 C1009 1.363 . S
C1011 C1013 1.408 . S
C1011 C1016 1.342 . S
C1012 C1013 1.310 . S
C1012 C1015 1.461 . S
C1012 H1032 0.932 . S
C1013 C1011 1.408 . S
C1013 C1012 1.310 . S
C1013 H1033 0.930 . S
C1014 C1015 1.474 . S
C1014 C1016 1.285 . S
C1014 H1034 0.929 . S
C1015 C1012 1.461 . S
C1015 C1014 1.474 . S
C1016 C1011 1.342 . S
C1016 C1014 1.285 . S
C1016 H1035 0.930 . S
C1017 C1020 1.424 . S
C1017 C1022 1.245 . S
C1017 C1023 1.428 . S
C1018 C1021 1.260 . S
C1018 C1022 1.477 . S
C1018 H1036 0.932 . S
C1019 C1020 1.384 . S
C1019 C1021 1.479 . S
C1019 H1037 0.929 . S
C1020 C1017 1.424 . S
C1020 C1019 1.384 . S
C1020 H1038 0.928 . S
C1021 C1018 1.260 . S
C1021 C1019 1.479 . S
C1022 C1017 1.245 . S
C1022 C1018 1.477 . S
C1022 H1039 0.932 . S
C1023 U1006 2.882 . S
C1023 C1017 1.428 . S
C1023 O1026 1.301 . S
C1023 O1027 1.282 . S
O1024 U1006 2.441 . S
O1024 C1010 1.249 . S
O1025 U1006 2.420 . S
O1025 C1010 1.202 . S
O1026 U1006 2.455 . S
O1026 C1023 1.301 . S
O1027 U1006 2.449 . S
O1027 C1023 1.282 . S
H1028 C1001 0.931 . S
H1029 C1003 0.929 . S
H1030 C1004 0.930 . S
H1031 C1005 0.931 . S
H1032 C1012 0.932 . S
H1033 C1013 0.930 . S
H1034 C1014 0.929 . S
H1035 C1016 0.930 . S
H1036 C1018 0.932 . S
H1037 C1019 0.929 . S
H1038 C1020 0.928 . S
H1039 C1022 0.932 . S
C1040 C1041 1.264 . S
C1040 C1045 1.479 . S
C1040 C1050 1.465 . S
C1041 C1040 1.264 . S
C1041 C1043 1.339 . S
C1041 H1068 0.931 . S
C1042 C1043 1.395 . S
C1042 C1044 1.320 . S
C1043 C1041 1.339 . S
C1043 C1042 1.395 . S
C1043 H1069 0.929 . S
C1044 C1042 1.320 . S
C1044 C1045 1.405 . S
C1044 H1070 0.930 . S
C1045 C1040 1.479 . S
C1045 C1044 1.405 . S
C1045 H1071 0.931 . S
U1046 O1047 2.454 . S
U1046 O1048 2.458 . S
U1046 C1049 2.984 . S
U1046 C1050 2.847 . S
U1046 C1063 2.882 . S
U1046 O1064 2.441 . S
U1046 O1065 2.420 . S
U1046 O1066 2.455 . S
U1046 O1067 2.449 . S
O1047 U1046 2.454 . S
O1047 C1049 1.353 . S
O1048 U1046 2.458 . S
O1048 C1049 1.286 . S
C1049 U1046 2.984 . S
C1049 O1047 1.353 . S
C1049 O1048 1.286 . S
C1049 C1051 1.363 . S
C1050 C1040 1.465 . S
C1050 U1046 2.847 . S
C1050 O1064 1.249 . S
C1050 O1065 1.202 . S
C1051 C1049 1.363 . S
C1051 C1053 1.408 . S
C1051 C1056 1.342 . S
C1052 C1053 1.310 . S
C1052 C1055 1.461 . S
C1052 H1072 0.932 . S
C1053 C1051 1.408 . S
C1053 C1052 1.310 . S
C1053 H1073 0.930 . S
C1054 C1055 1.474 . S
C1054 C1056 1.285 . S
C1054 H1074 0.929 . S
C1055 C1052 1.461 . S
C1055 C1054 1.474 . S
C1056 C1051 1.342 . S
C1056 C1054 1.285 . S
C1056 H1075 0.930 . S
C1057 C1060 1.424 . S
C1057 C1062 1.245 . S
C1057 C1063 1.428 . S
C1058 C1061 1.260 . S
C1058 C1062 1.477 . S
C1058 H1076 0.932 . S
C1059 C1060 1.384 . S
C1059 C1061 1.479 . S
C1059 H1077 0.929 . S
C1060 C1057 1.424 . S
C1060 C1059 1.384 . S
C1060 H1078 0.928 . S
C1061 C1058 1.260 . S
C1061 C1059 1.479 . S
C1062 C1057 1.245 . S
C1062 C1058 1.477 . S
C1062 H1079 0.932 . S
C1063 U1046 2.882 . S
C1063 C1057 1.428 . S
C1063 O1066 1.301 . S
C1063 O1067 1.282 . S
O1064 U1046 2.441 . S
O1064 C1050 1.249 . S
O1065 U1046 2.420 . S
O1065 C1050 1.202 . S
O1066 U1046 2.455 . S
O1066 C1063 1.301 . S
O1067 U1046 2.449 . S
O1067 C1063 1.282 . S
H1068 C1041 0.931 . S
H1069 C1043 0.929 . S
H1070 C1044 0.930 . S
H1071 C1045 0.931 . S
H1072 C1052 0.932 . S
H1073 C1053 0.930 . S
H1074 C1054 0.929 . S
H1075 C1056 0.930 . S
H1076 C1058 0.932 . S
H1077 C1059 0.929 . S
H1078 C1060 0.928 . S
H1079 C1062 0.932 . S
C1080 C1081 1.264 . S
C1080 C1085 1.479 . S
C1080 C1090 1.465 . S
C1081 C1080 1.264 . S
C1081 C1083 1.339 . S
C1081 H1108 0.931 . S
C1082 C1083 1.395 . S
C1082 C1084 1.320 . S
C1083 C1081 1.339 . S
C1083 C1082 1.395 . S
C1083 H1109 0.929 . S
C1084 C1082 1.320 . S
C1084 C1085 1.405 . S
C1084 H1110 0.930 . S
C1085 C1080 1.479 . S
C1085 C1084 1.405 . S
C1085 H1111 0.931 . S
U1086 O1087 2.454 . S
U1086 O1088 2.458 . S
U1086 C1089 2.984 . S
U1086 C1090 2.847 . S
U1086 C1103 2.882 . S
U1086 O1104 2.441 . S
U1086 O1105 2.420 . S
U1086 O1106 2.455 . S
U1086 O1107 2.449 . S
O1087 U1086 2.454 . S
O1087 C1089 1.353 . S
O1088 U1086 2.458 . S
O1088 C1089 1.286 . S
C1089 U1086 2.984 . S
C1089 O1087 1.353 . S
C1089 O1088 1.286 . S
C1089 C1091 1.363 . S
C1090 C1080 1.465 . S
C1090 U1086 2.847 . S
C1090 O1104 1.249 . S
C1090 O1105 1.202 . S
C1091 C1089 1.363 . S
C1091 C1093 1.408 . S
C1091 C1096 1.342 . S
C1092 C1093 1.310 . S
C1092 C1095 1.461 . S
C1092 H1112 0.932 . S
C1093 C1091 1.408 . S
C1093 C1092 1.310 . S
C1093 H1113 0.930 . S
C1094 C1095 1.474 . S
C1094 C1096 1.285 . S
C1094 H1114 0.929 . S
C1095 C1092 1.461 . S
C1095 C1094 1.474 . S
C1096 C1091 1.342 . S
C1096 C1094 1.285 . S
C1096 H1115 0.930 . S
C1097 C1100 1.424 . S
C1097 C1102 1.245 . S
C1097 C1103 1.428 . S
C1098 C1101 1.260 . S
C1098 C1102 1.477 . S
C1098 H1116 0.932 . S
C1099 C1100 1.384 . S
C1099 C1101 1.479 . S
C1099 H1117 0.929 . S
C1100 C1097 1.424 . S
C1100 C1099 1.384 . S
C1100 H1118 0.928 . S
C1101 C1098 1.260 . S
C1101 C1099 1.479 . S
C1102 C1097 1.245 . S
C1102 C1098 1.477 . S
C1102 H1119 0.932 . S
C1103 U1086 2.882 . S
C1103 C1097 1.428 . S
C1103 O1106 1.301 . S
C1103 O1107 1.282 . S
O1104 U1086 2.441 . S
O1104 C1090 1.249 . S
O1105 U1086 2.420 . S
O1105 C1090 1.202 . S
O1106 U1086 2.455 . S
O1106 C1103 1.301 . S
O1107 U1086 2.449 . S
O1107 C1103 1.282 . S
H1108 C1081 0.931 . S
H1109 C1083 0.929 . S
H1110 C1084 0.930 . S
H1111 C1085 0.931 . S
H1112 C1092 0.932 . S
H1113 C1093 0.930 . S
H1114 C1094 0.929 . S
H1115 C1096 0.930 . S
H1116 C1098 0.932 . S
H1117 C1099 0.929 . S
H1118 C1100 0.928 . S
H1119 C1102 0.932 . S
C1120 C1121 1.264 . S
C1120 C1125 1.479 . S
C1120 C1130 1.465 . S
C1121 C1120 1.264 . S
C1121 C1123 1.339 . S
C1121 H1148 0.931 . S
C1122 C1123 1.395 . S
C1122 C1124 1.320 . S
C1123 C1121 1.339 . S
C1123 C1122 1.395 . S
C1123 H1149 0.929 . S
C1124 C1122 1.320 . S
C1124 C1125 1.405 . S
C1124 H1150 0.930 . S
C1125 C1120 1.479 . S
C1125 C1124 1.405 . S
C1125 H1151 0.931 . S
U1126 O1127 2.454 . S
U1126 O1128 2.458 . S
U1126 C1129 2.984 . S
U1126 C1130 2.847 . S
U1126 C1143 2.882 . S
U1126 O1144 2.441 . S
U1126 O1145 2.420 . S
U1126 O1146 2.455 . S
U1126 O1147 2.449 . S
O1127 U1126 2.454 . S
O1127 C1129 1.353 . S
O1128 U1126 2.458 . S
O1128 C1129 1.286 . S
C1129 U1126 2.984 . S
C1129 O1127 1.353 . S
C1129 O1128 1.286 . S
C1129 C1131 1.363 . S
C1130 C1120 1.465 . S
C1130 U1126 2.847 . S
C1130 O1144 1.249 . S
C1130 O1145 1.202 . S
C1131 C1129 1.363 . S
C1131 C1133 1.408 . S
C1131 C1136 1.342 . S
C1132 C1133 1.310 . S
C1132 C1135 1.461 . S
C1132 H1152 0.932 . S
C1133 C1131 1.408 . S
C1133 C1132 1.310 . S
C1133 H1153 0.930 . S
C1134 C1135 1.474 . S
C1134 C1136 1.285 . S
C1134 H1154 0.929 . S
C1135 C1132 1.461 . S
C1135 C1134 1.474 . S
C1136 C1131 1.342 . S
C1136 C1134 1.285 . S
C1136 H1155 0.930 . S
C1137 C1140 1.424 . S
C1137 C1142 1.245 . S
C1137 C1143 1.428 . S
C1138 C1141 1.260 . S
C1138 C1142 1.477 . S
C1138 H1156 0.932 . S
C1139 C1140 1.384 . S
C1139 C1141 1.479 . S
C1139 H1157 0.929 . S
C1140 C1137 1.424 . S
C1140 C1139 1.384 . S
C1140 H1158 0.928 . S
C1141 C1138 1.260 . S
C1141 C1139 1.479 . S
C1142 C1137 1.245 . S
C1142 C1138 1.477 . S
C1142 H1159 0.932 . S
C1143 U1126 2.882 . S
C1143 C1137 1.428 . S
C1143 O1146 1.301 . S
C1143 O1147 1.282 . S
O1144 U1126 2.441 . S
O1144 C1130 1.249 . S
O1145 U1126 2.420 . S
O1145 C1130 1.202 . S
O1146 U1126 2.455 . S
O1146 C1143 1.301 . S
O1147 U1126 2.449 . S
O1147 C1143 1.282 . S
H1148 C1121 0.931 . S
H1149 C1123 0.929 . S
H1150 C1124 0.930 . S
H1151 C1125 0.931 . S
H1152 C1132 0.932 . S
H1153 C1133 0.930 . S
H1154 C1134 0.929 . S
H1155 C1136 0.930 . S
H1156 C1138 0.932 . S
H1157 C1139 0.929 . S
H1158 C1140 0.928 . S
H1159 C1142 0.932 . S
C1160 C1161 1.264 . S
C1160 C1165 1.479 . S
C1160 C1170 1.465 . S
C1161 C1160 1.264 . S
C1161 C1163 1.339 . S
C1161 H1188 0.931 . S
C1162 C1163 1.395 . S
C1162 C1164 1.320 . S
C1163 C1161 1.339 . S
C1163 C1162 1.395 . S
C1163 H1189 0.929 . S
C1164 C1162 1.320 . S
C1164 C1165 1.405 . S
C1164 H1190 0.930 . S
C1165 C1160 1.479 . S
C1165 C1164 1.405 . S
C1165 H1191 0.931 . S
U1166 O1167 2.454 . S
U1166 O1168 2.458 . S
U1166 C1169 2.984 . S
U1166 C1170 2.847 . S
U1166 C1183 2.882 . S
U1166 O1184 2.441 . S
U1166 O1185 2.420 . S
U1166 O1186 2.455 . S
U1166 O1187 2.449 . S
O1167 U1166 2.454 . S
O1167 C1169 1.353 . S
O1168 U1166 2.458 . S
O1168 C1169 1.286 . S
C1169 U1166 2.984 . S
C1169 O1167 1.353 . S
C1169 O1168 1.286 . S
C1169 C1171 1.363 . S
C1170 C1160 1.465 . S
C1170 U1166 2.847 . S
C1170 O1184 1.249 . S
C1170 O1185 1.202 . S
C1171 C1169 1.363 . S
C1171 C1173 1.408 . S
C1171 C1176 1.342 . S
C1172 C1173 1.310 . S
C1172 C1175 1.461 . S
C1172 H1192 0.932 . S
C1173 C1171 1.408 . S
C1173 C1172 1.310 . S
C1173 H1193 0.930 . S
C1174 C1175 1.474 . S
C1174 C1176 1.285 . S
C1174 H1194 0.929 . S
C1175 C1172 1.461 . S
C1175 C1174 1.474 . S
C1176 C1171 1.342 . S
C1176 C1174 1.285 . S
C1176 H1195 0.930 . S
C1177 C1180 1.424 . S
C1177 C1182 1.245 . S
C1177 C1183 1.428 . S
C1178 C1181 1.260 . S
C1178 C1182 1.477 . S
C1178 H1196 0.932 . S
C1179 C1180 1.384 . S
C1179 C1181 1.479 . S
C1179 H1197 0.929 . S
C1180 C1177 1.424 . S
C1180 C1179 1.384 . S
C1180 H1198 0.928 . S
C1181 C1178 1.260 . S
C1181 C1179 1.479 . S
C1182 C1177 1.245 . S
C1182 C1178 1.477 . S
C1182 H1199 0.932 . S
C1183 U1166 2.882 . S
C1183 C1177 1.428 . S
C1183 O1186 1.301 . S
C1183 O1187 1.282 . S
O1184 U1166 2.441 . S
O1184 C1170 1.249 . S
O1185 U1166 2.420 . S
O1185 C1170 1.202 . S
O1186 U1166 2.455 . S
O1186 C1183 1.301 . S
O1187 U1166 2.449 . S
O1187 C1183 1.282 . S
H1188 C1161 0.931 . S
H1189 C1163 0.929 . S
H1190 C1164 0.930 . S
H1191 C1165 0.931 . S
H1192 C1172 0.932 . S
H1193 C1173 0.930 . S
H1194 C1174 0.929 . S
H1195 C1176 0.930 . S
H1196 C1178 0.932 . S
H1197 C1179 0.929 . S
H1198 C1180 0.928 . S
H1199 C1182 0.932 . S
C1200 C1201 1.264 . S
C1200 C1205 1.479 . S
C1200 C1210 1.465 . S
C1201 C1200 1.264 . S
C1201 C1203 1.339 . S
C1201 H1228 0.931 . S
C1202 C1203 1.395 . S
C1202 C1204 1.320 . S
C1203 C1201 1.339 . S
C1203 C1202 1.395 . S
C1203 H1229 0.929 . S
C1204 C1202 1.320 . S
C1204 C1205 1.405 . S
C1204 H1230 0.930 . S
C1205 C1200 1.479 . S
C1205 C1204 1.405 . S
C1205 H1231 0.931 . S
U1206 O1207 2.454 . S
U1206 O1208 2.458 . S
U1206 C1209 2.984 . S
U1206 C1210 2.847 . S
U1206 C1223 2.882 . S
U1206 O1224 2.441 . S
U1206 O1225 2.420 . S
U1206 O1226 2.455 . S
U1206 O1227 2.449 . S
O1207 U1206 2.454 . S
O1207 C1209 1.353 . S
O1208 U1206 2.458 . S
O1208 C1209 1.286 . S
C1209 U1206 2.984 . S
C1209 O1207 1.353 . S
C1209 O1208 1.286 . S
C1209 C1211 1.363 . S
C1210 C1200 1.465 . S
C1210 U1206 2.847 . S
C1210 O1224 1.249 . S
C1210 O1225 1.202 . S
C1211 C1209 1.363 . S
C1211 C1213 1.408 . S
C1211 C1216 1.342 . S
C1212 C1213 1.310 . S
C1212 C1215 1.461 . S
C1212 H1232 0.932 . S
C1213 C1211 1.408 . S
C1213 C1212 1.310 . S
C1213 H1233 0.930 . S
C1214 C1215 1.474 . S
C1214 C1216 1.285 . S
C1214 H1234 0.929 . S
C1215 C1212 1.461 . S
C1215 C1214 1.474 . S
C1216 C1211 1.342 . S
C1216 C1214 1.285 . S
C1216 H1235 0.930 . S
C1217 C1220 1.424 . S
C1217 C1222 1.245 . S
C1217 C1223 1.428 . S
C1218 C1221 1.260 . S
C1218 C1222 1.477 . S
C1218 H1236 0.932 . S
C1219 C1220 1.384 . S
C1219 C1221 1.479 . S
C1219 H1237 0.929 . S
C1220 C1217 1.424 . S
C1220 C1219 1.384 . S
C1220 H1238 0.928 . S
C1221 C1218 1.260 . S
C1221 C1219 1.479 . S
C1222 C1217 1.245 . S
C1222 C1218 1.477 . S
C1222 H1239 0.932 . S
C1223 U1206 2.882 . S
C1223 C1217 1.428 . S
C1223 O1226 1.301 . S
C1223 O1227 1.282 . S
O1224 U1206 2.441 . S
O1224 C1210 1.249 . S
O1225 U1206 2.420 . S
O1225 C1210 1.202 . S
O1226 U1206 2.455 . S
O1226 C1223 1.301 . S
O1227 U1206 2.449 . S
O1227 C1223 1.282 . S
H1228 C1201 0.931 . S
H1229 C1203 0.929 . S
H1230 C1204 0.930 . S
H1231 C1205 0.931 . S
H1232 C1212 0.932 . S
H1233 C1213 0.930 . S
H1234 C1214 0.929 . S
H1235 C1216 0.930 . S
H1236 C1218 0.932 . S
H1237 C1219 0.929 . S
H1238 C1220 0.928 . S
H1239 C1222 0.932 . S
C1240 C1241 1.264 . S
C1240 C1245 1.479 . S
C1240 C1250 1.465 . S
C1241 C1240 1.264 . S
C1241 C1243 1.339 . S
C1241 H1268 0.931 . S
C1242 C1243 1.395 . S
C1242 C1244 1.320 . S
C1243 C1241 1.339 . S
C1243 C1242 1.395 . S
C1243 H1269 0.929 . S
C1244 C1242 1.320 . S
C1244 C1245 1.405 . S
C1244 H1270 0.930 . S
C1245 C1240 1.479 . S
C1245 C1244 1.405 . S
C1245 H1271 0.931 . S
U1246 O1247 2.454 . S
U1246 O1248 2.458 . S
U1246 C1249 2.984 . S
U1246 C1250 2.847 . S
U1246 C1263 2.882 . S
U1246 O1264 2.441 . S
U1246 O1265 2.420 . S
U1246 O1266 2.455 . S
U1246 O1267 2.449 . S
O1247 U1246 2.454 . S
O1247 C1249 1.353 . S
O1248 U1246 2.458 . S
O1248 C1249 1.286 . S
C1249 U1246 2.984 . S
C1249 O1247 1.353 . S
C1249 O1248 1.286 . S
C1249 C1251 1.363 . S
C1250 C1240 1.465 . S
C1250 U1246 2.847 . S
C1250 O1264 1.249 . S
C1250 O1265 1.202 . S
C1251 C1249 1.363 . S
C1251 C1253 1.408 . S
C1251 C1256 1.342 . S
C1252 C1253 1.310 . S
C1252 C1255 1.461 . S
C1252 H1272 0.932 . S
C1253 C1251 1.408 . S
C1253 C1252 1.310 . S
C1253 H1273 0.930 . S
C1254 C1255 1.474 . S
C1254 C1256 1.285 . S
C1254 H1274 0.929 . S
C1255 C1252 1.461 . S
C1255 C1254 1.474 . S
C1256 C1251 1.342 . S
C1256 C1254 1.285 . S
C1256 H1275 0.930 . S
C1257 C1260 1.424 . S
C1257 C1262 1.245 . S
C1257 C1263 1.428 . S
C1258 C1261 1.260 . S
C1258 C1262 1.477 . S
C1258 H1276 0.932 . S
C1259 C1260 1.384 . S
C1259 C1261 1.479 . S
C1259 H1277 0.929 . S
C1260 C1257 1.424 . S
C1260 C1259 1.384 . S
C1260 H1278 0.928 . S
C1261 C1258 1.260 . S
C1261 C1259 1.479 . S
C1262 C1257 1.245 . S
C1262 C1258 1.477 . S
C1262 H1279 0.932 . S
C1263 U1246 2.882 . S
C1263 C1257 1.428 . S
C1263 O1266 1.301 . S
C1263 O1267 1.282 . S
O1264 U1246 2.441 . S
O1264 C1250 1.249 . S
O1265 U1246 2.420 . S
O1265 C1250 1.202 . S
O1266 U1246 2.455 . S
O1266 C1263 1.301 . S
O1267 U1246 2.449 . S
O1267 C1263 1.282 . S
H1268 C1241 0.931 . S
H1269 C1243 0.929 . S
H1270 C1244 0.930 . S
H1271 C1245 0.931 . S
H1272 C1252 0.932 . S
H1273 C1253 0.930 . S
H1274 C1254 0.929 . S
H1275 C1256 0.930 . S
H1276 C1258 0.932 . S
H1277 C1259 0.929 . S
H1278 C1260 0.928 . S
H1279 C1262 0.932 . S
Cu1280 N1281 1.999 . S
Cu1280 O1286 1.974 1_554 S
Cu1280 N1291 1.985 . S
Cu1280 O1300 1.959 . S
N1281 Cu1280 1.999 . S
N1281 C1283 1.263 1_554 S
N1281 C1285 1.389 . S
N1282 C1283 1.358 . S
N1282 C1284 1.400 . S
C1283 N1281 1.263 1_556 S
C1283 N1282 1.358 . S
C1283 H1289 0.930 . S
C1284 N1282 1.400 . S
C1284 C1285 1.351 1_556 S
C1284 H1301 0.930 . S
C1285 N1281 1.389 . S
C1285 C1284 1.351 1_554 S
C1285 H1290 0.930 . S
O1286 Cu1280 1.974 1_556 S
O1286 C1296 1.282 . S
C1287 O1288 1.261 . S
C1287 O1300 1.251 . S
O1288 C1287 1.261 . S
H1289 C1283 0.930 . S
H1290 C1285 0.930 . S
N1291 Cu1280 1.985 . S
N1291 C1293 1.335 . S
N1291 C1294 1.390 . S
N1292 C1293 1.345 . S
N1292 C1295 1.336 . S
C1293 N1291 1.335 . S
C1293 N1292 1.345 . S
C1293 H1298 0.930 . S
C1294 N1291 1.390 . S
C1294 C1295 1.346 . S
C1294 H1299 0.930 . S
C1295 N1292 1.336 . S
C1295 C1294 1.346 . S
C1295 H1302 0.929 . S
C1296 O1286 1.282 . S
C1296 O1297 1.216 . S
O1297 C1296 1.216 . S
H1298 C1293 0.930 . S
H1299 C1294 0.930 . S
O1300 Cu1280 1.959 . S
O1300 C1287 1.251 . S
H1301 C1284 0.930 . S
H1302 C1295 0.929 . S
Cu1303 N1304 1.999 . S
Cu1303 O1309 1.974 . S
Cu1303 N1314 1.985 1_554 S
Cu1303 O1323 1.959 1_554 S
N1304 Cu1303 1.999 . S
N1304 C1306 1.263 . S
N1304 C1308 1.389 . S
N1305 C1306 1.358 . S
N1305 C1307 1.400 . S
C1306 N1304 1.263 . S
C1306 N1305 1.358 . S
C1306 H1312 0.930 . S
C1307 N1305 1.400 . S
C1307 C1308 1.351 . S
C1307 H1324 0.930 . S
C1308 N1304 1.389 . S
C1308 C1307 1.351 . S
C1308 H1313 0.930 . S
O1309 Cu1303 1.974 . S
O1309 C1319 1.282 . S
C1310 O1311 1.261 . S
C1310 O1323 1.251 . S
O1311 C1310 1.261 . S
H1312 C1306 0.930 . S
H1313 C1308 0.930 . S
N1314 Cu1303 1.985 1_556 S
N1314 C1316 1.335 . S
N1314 C1317 1.387 1_556 S
N1315 C1316 1.345 . S
N1315 C1318 1.336 . S
C1316 N1314 1.335 . S
C1316 N1315 1.345 . S
C1316 H1321 0.930 . S
C1317 N1314 1.387 1_554 S
C1317 C1318 1.334 1_554 S
C1317 H1322 0.944 . S
C1318 N1315 1.336 . S
C1318 C1317 1.334 1_556 S
C1318 H1325 0.929 . S
C1319 O1309 1.282 . S
C1319 O1320 1.216 . S
O1320 C1319 1.216 . S
H1321 C1316 0.930 . S
H1322 C1317 0.944 . S
O1323 Cu1303 1.959 1_556 S
O1323 C1310 1.251 . S
H1324 C1307 0.930 . S
H1325 C1318 0.929 . S
Cu1326 N1327 1.960 1_554 S
Cu1326 O1332 1.925 1_554 S
Cu1326 N1337 2.024 . S
Cu1326 O1346 2.007 . S
N1327 Cu1326 1.960 1_556 S
N1327 C1329 1.263 . S
N1327 C1331 1.389 . S
N1328 C1329 1.358 . S
N1328 C1330 1.400 . S
C1329 N1327 1.263 . S
C1329 N1328 1.358 . S
C1329 H1335 0.930 . S
C1330 N1328 1.400 . S
C1330 C1331 1.351 . S
C1330 H1347 0.930 . S
C1331 N1327 1.389 . S
C1331 C1330 1.351 . S
C1331 H1336 0.930 . S
O1332 Cu1326 1.925 1_556 S
O1332 C1342 1.282 . S
C1333 O1334 1.261 . S
C1333 O1346 1.251 . S
O1334 C1333 1.261 . S
H1335 C1329 0.930 . S
H1336 C1331 0.930 . S
N1337 Cu1326 2.024 . S
N1337 C1339 1.335 . S
N1337 C1340 1.390 . S
N1338 C1339 1.345 . S
N1338 C1341 1.336 . S
C1339 N1337 1.335 . S
C1339 N1338 1.345 . S
C1339 H1344 0.930 . S
C1340 N1337 1.390 . S
C1340 C1341 1.346 . S
C1340 H1345 0.994 . S
C1341 N1338 1.336 . S
C1341 C1340 1.346 . S
C1341 H1348 0.929 . S
C1342 O1332 1.282 . S
C1342 O1343 1.216 . S
O1343 C1342 1.216 . S
H1344 C1339 0.930 . S
H1345 C1340 0.994 . S
O1346 Cu1326 2.007 . S
O1346 C1333 1.251 . S
H1347 C1330 0.930 . S
H1348 C1341 0.929 . S
Cu1349 N1350 1.999 . S
Cu1349 O1355 1.974 . S
Cu1349 N1360 1.985 1_554 S
Cu1349 O1369 1.959 1_554 S
N1350 Cu1349 1.999 . S
N1350 C1352 1.263 . S
N1350 C1354 1.389 . S
N1351 C1352 1.358 . S
N1351 C1353 1.400 . S
C1352 N1350 1.263 . S
C1352 N1351 1.358 . S
C1352 H1358 0.930 . S
C1353 N1351 1.400 . S
C1353 C1354 1.351 . S
C1353 H1370 0.930 . S
C1354 N1350 1.389 . S
C1354 C1353 1.351 . S
C1354 H1359 0.930 . S
O1355 Cu1349 1.974 . S
O1355 C1365 1.282 . S
C1356 O1357 1.261 . S
C1356 O1369 1.251 . S
O1357 C1356 1.261 . S
H1358 C1352 0.930 . S
H1359 C1354 0.930 . S
N1360 Cu1349 1.985 1_556 S
N1360 C1362 1.335 . S
N1360 C1363 1.390 . S
N1361 C1362 1.345 . S
N1361 C1364 1.336 . S
C1362 N1360 1.335 . S
C1362 N1361 1.345 . S
C1362 H1367 0.930 . S
C1363 N1360 1.390 . S
C1363 C1364 1.346 . S
C1363 H1368 0.930 1_556 S
C1364 N1361 1.336 . S
C1364 C1363 1.346 . S
C1364 H1371 0.929 . S
C1365 O1355 1.282 . S
C1365 O1366 1.216 . S
O1366 C1365 1.216 . S
H1367 C1362 0.930 . S
H1368 C1363 0.930 1_554 S
O1369 Cu1349 1.959 1_556 S
O1369 C1356 1.251 . S
H1370 C1353 0.930 . S
H1371 C1364 0.929 . S
Cu1372 N1373 1.999 . S
Cu1372 O1378 1.974 . S
Cu1372 N1383 1.919 1_455 S
Cu1372 O1392 1.959 1_455 S
N1373 Cu1372 1.999 . S
N1373 C1375 1.263 . S
N1373 C1377 1.389 . S
N1374 C1375 1.358 . S
N1374 C1376 1.400 . S
C1375 N1373 1.263 . S
C1375 N1374 1.358 . S
C1375 H1381 0.930 . S
C1376 N1374 1.400 . S
C1376 C1377 1.351 . S
C1376 H1393 0.930 . S
C1377 N1373 1.389 . S
C1377 C1376 1.351 . S
C1377 H1382 0.930 . S
O1378 Cu1372 1.974 . S
O1378 C1388 1.282 . S
C1379 O1380 1.261 . S
C1379 O1392 1.251 . S
O1380 C1379 1.261 . S
H1381 C1375 0.930 . S
H1382 C1377 0.930 . S
N1383 Cu1372 1.919 1_655 S
N1383 C1385 1.436 . S
N1383 C1386 1.374 1_655 S
N1384 C1385 1.345 . S
N1384 C1387 1.336 . S
C1385 N1383 1.436 . S
C1385 N1384 1.345 . S
C1385 H1390 0.930 . S
C1386 N1383 1.374 1_455 S
C1386 C1387 1.346 1_455 S
C1386 H1391 0.930 . S
C1387 N1384 1.336 . S
C1387 C1386 1.346 1_655 S
C1387 H1394 0.929 . S
C1388 O1378 1.282 . S
C1388 O1389 1.216 . S
O1389 C1388 1.216 . S
H1390 C1385 0.930 . S
H1391 C1386 0.930 . S
O1392 Cu1372 1.959 1_655 S
O1392 C1379 1.251 . S
H1393 C1376 0.930 . S
H1394 C1387 0.929 . S
Cu1395 N1396 1.999 . S
Cu1395 O1401 1.974 . S
Cu1395 N1406 1.985 1_545 S
Cu1395 O1415 1.959 1_545 S
N1396 Cu1395 1.999 . S
N1396 C1398 1.263 . S
N1396 C1400 1.389 . S
N1397 C1398 1.358 . S
N1397 C1399 1.400 . S
C1398 N1396 1.263 . S
C1398 N1397 1.358 . S
C1398 H1404 0.930 . S
C1399 N1397 1.400 . S
C1399 C1400 1.351 . S
C1399 H1416 0.930 . S
C1400 N1396 1.389 . S
C1400 C1399 1.351 . S
C1400 H1405 0.930 . S
O1401 Cu1395 1.974 . S
O1401 C1411 1.282 . S
C1402 O1403 1.261 . S
C1402 O1415 1.251 . S
O1403 C1402 1.261 . S
H1404 C1398 0.930 . S
H1405 C1400 0.930 . S
N1406 Cu1395 1.985 1_565 S
N1406 C1408 1.335 . S
N1406 C1409 1.390 . S
N1407 C1408 1.345 . S
N1407 C1410 1.336 . S
C1408 N1406 1.335 . S
C1408 N1407 1.345 . S
C1408 H1413 0.930 . S
C1409 N1406 1.390 . S
C1409 C1410 1.346 . S
C1409 H1414 0.930 1_565 S
C1410 N1407 1.336 . S
C1410 C1409 1.346 . S
C1410 H1417 0.929 . S
C1411 O1401 1.282 . S
C1411 O1412 1.216 . S
O1412 C1411 1.216 . S
H1413 C1408 0.930 . S
H1414 C1409 0.930 1_545 S
O1415 Cu1395 1.959 1_565 S
O1415 C1402 1.251 . S
H1416 C1399 0.930 . S
H1417 C1410 0.929 . S
Cu1418 N1419 2.005 1_455 S
Cu1418 O1424 1.981 1_455 S
Cu1418 N1429 1.979 . S
Cu1418 O1438 1.952 . S
N1419 Cu1418 2.005 1_655 S
N1419 C1421 1.263 . S
N1419 C1423 1.389 . S
N1420 C1421 1.358 . S
N1420 C1422 1.400 . S
C1421 N1419 1.263 . S
C1421 N1420 1.358 . S
C1421 H1427 0.930 . S
C1422 N1420 1.400 . S
C1422 C1423 1.351 . S
C1422 H1439 0.930 . S
C1423 N1419 1.389 . S
C1423 C1422 1.351 . S
C1423 H1428 0.930 . S
O1424 Cu1418 1.981 1_655 S
O1424 C1434 1.282 . S
C1425 O1426 1.261 . S
C1425 O1438 1.251 . S
O1426 C1425 1.261 . S
H1427 C1421 0.930 . S
H1428 C1423 0.930 . S
N1429 Cu1418 1.979 . S
N1429 C1431 1.335 . S
N1429 C1432 1.390 . S
N1430 C1431 1.345 . S
N1430 C1433 1.336 . S
C1431 N1429 1.335 . S
C1431 N1430 1.345 . S
C1431 H1436 0.930 . S
C1432 N1429 1.390 . S
C1432 C1433 1.346 . S
C1432 H1437 0.930 . S
C1433 N1430 1.336 . S
C1433 C1432 1.346 . S
C1433 H1440 0.929 . S
C1434 O1424 1.282 . S
C1434 O1435 1.216 . S
O1435 C1434 1.216 . S
H1436 C1431 0.930 . S
H1437 C1432 0.930 . S
O1438 Cu1418 1.952 . S
O1438 C1425 1.251 . S
H1439 C1422 0.930 . S
H1440 C1433 0.929 . S
Cu1441 N1442 2.000 1_565 S
Cu1441 O1447 1.974 1_565 S
Cu1441 N1452 1.984 . S
Cu1441 O1461 1.959 . S
N1442 Cu1441 2.000 1_545 S
N1442 C1444 1.263 . S
N1442 C1446 1.389 . S
N1443 C1444 1.358 . S
N1443 C1445 1.400 . S
C1444 N1442 1.263 . S
C1444 N1443 1.358 . S
C1444 H1450 0.930 . S
C1445 N1443 1.400 . S
C1445 C1446 1.351 . S
C1445 H1462 0.930 . S
C1446 N1442 1.389 . S
C1446 C1445 1.351 . S
C1446 H1451 0.930 . S
O1447 Cu1441 1.974 1_545 S
O1447 C1457 1.282 . S
C1448 O1449 1.261 . S
C1448 O1461 1.251 . S
O1449 C1448 1.261 . S
H1450 C1444 0.930 . S
H1451 C1446 0.930 . S
N1452 Cu1441 1.984 . S
N1452 C1454 1.335 . S
N1452 C1455 1.390 . S
N1453 C1454 1.345 . S
N1453 C1456 1.336 . S
C1454 N1452 1.335 . S
C1454 N1453 1.345 . S
C1454 H1459 0.930 . S
C1455 N1452 1.390 . S
C1455 C1456 1.346 . S
C1455 H1460 0.930 . S
C1456 N1453 1.336 . S
C1456 C1455 1.346 . S
C1456 H1463 0.929 . S
C1457 O1447 1.282 . S
C1457 O1458 1.216 . S
O1458 C1457 1.216 . S
H1459 C1454 0.930 . S
H1460 C1455 0.930 . S
O1461 Cu1441 1.959 . S
O1461 C1448 1.251 . S
H1462 C1445 0.930 . S
H1463 C1456 0.929 . S
Cu1464 N1465 1.999 . S
Cu1464 O1470 1.974 . S
Cu1464 N1475 1.985 1_455 S
Cu1464 O1484 1.959 1_455 S
N1465 Cu1464 1.999 . S
N1465 C1467 1.263 . S
N1465 C1469 1.389 . S
N1466 C1467 1.358 . S
N1466 C1468 1.400 . S
C1467 N1465 1.263 . S
C1467 N1466 1.358 . S
C1467 H1473 0.930 . S
C1468 N1466 1.400 . S
C1468 C1469 1.351 . S
C1468 H1485 0.930 . S
C1469 N1465 1.389 . S
C1469 C1468 1.351 . S
C1469 H1474 0.930 . S
O1470 Cu1464 1.974 . S
O1470 C1480 1.282 . S
C1471 O1472 1.261 . S
C1471 O1484 1.251 . S
O1472 C1471 1.261 . S
H1473 C1467 0.930 . S
H1474 C1469 0.930 . S
N1475 Cu1464 1.985 1_655 S
N1475 C1477 1.335 . S
N1475 C1478 1.390 1_655 S
N1476 C1477 1.345 . S
N1476 C1479 1.336 . S
C1477 N1475 1.335 . S
C1477 N1476 1.345 . S
C1477 H1482 0.930 . S
C1478 N1475 1.390 1_455 S
C1478 C1479 1.346 1_455 S
C1478 H1483 0.930 . S
C1479 N1476 1.336 . S
C1479 C1478 1.346 1_655 S
C1479 H1486 0.929 . S
C1480 O1470 1.282 . S
C1480 O1481 1.216 . S
O1481 C1480 1.216 . S
H1482 C1477 0.930 . S
H1483 C1478 0.930 . S
O1484 Cu1464 1.959 1_655 S
O1484 C1471 1.251 . S
H1485 C1468 0.930 . S
H1486 C1479 0.929 . S
Cu1487 N1488 1.999 . S
Cu1487 O1493 1.974 . S
Cu1487 N1498 1.985 1_545 S
Cu1487 O1507 1.959 1_545 S
N1488 Cu1487 1.999 . S
N1488 C1490 1.263 . S
N1488 C1492 1.389 . S
N1489 C1490 1.358 . S
N1489 C1491 1.400 . S
C1490 N1488 1.263 . S
C1490 N1489 1.358 . S
C1490 H1496 0.930 . S
C1491 N1489 1.400 . S
C1491 C1492 1.351 . S
C1491 H1508 0.930 . S
C1492 N1488 1.389 . S
C1492 C1491 1.351 . S
C1492 H1497 0.930 . S
O1493 Cu1487 1.974 . S
O1493 C1503 1.282 . S
C1494 O1495 1.261 . S
C1494 O1507 1.251 . S
O1495 C1494 1.261 . S
H1496 C1490 0.930 . S
H1497 C1492 0.930 . S
N1498 Cu1487 1.985 1_565 S
N1498 C1500 1.335 . S
N1498 C1501 1.397 . S
N1499 C1500 1.345 . S
N1499 C1502 1.336 . S
C1500 N1498 1.335 . S
C1500 N1499 1.345 . S
C1500 H1505 0.930 . S
C1501 N1498 1.397 . S
C1501 C1502 1.375 . S
C1501 H1506 0.901 1_565 S
C1502 N1499 1.336 . S
C1502 C1501 1.375 . S
C1502 H1509 0.929 . S
C1503 O1493 1.282 . S
C1503 O1504 1.216 . S
O1504 C1503 1.216 . S
H1505 C1500 0.930 . S
H1506 C1501 0.901 1_545 S
O1507 Cu1487 1.959 1_565 S
O1507 C1494 1.251 . S
H1508 C1491 0.930 . S
H1509 C1502 0.929 . S
Cu1510 N1511 1.999 . S
Cu1510 O1516 1.974 . S
Cu1510 N1521 1.985 . S
Cu1510 O1530 1.959 . S
N1511 Cu1510 1.999 . S
N1511 C1513 1.263 1_455 S
N1511 C1515 1.389 . S
N1512 C1513 1.358 . S
N1512 C1514 1.400 . S
C1513 N1511 1.263 1_655 S
C1513 N1512 1.358 . S
C1513 H1519 0.930 . S
C1514 N1512 1.400 . S
C1514 C1515 1.351 1_655 S
C1514 H1531 0.930 . S
C1515 N1511 1.389 . S
C1515 C1514 1.351 1_455 S
C1515 H1520 0.930 . S
O1516 Cu1510 1.974 . S
O1516 C1526 1.282 1_455 S
C1517 O1518 1.261 . S
C1517 O1530 1.251 . S
O1518 C1517 1.261 . S
H1519 C1513 0.930 . S
H1520 C1515 0.930 . S
N1521 Cu1510 1.985 . S
N1521 C1523 1.335 . S
N1521 C1524 1.390 . S
N1522 C1523 1.345 . S
N1522 C1525 1.336 . S
C1523 N1521 1.335 . S
C1523 N1522 1.345 . S
C1523 H1528 0.930 . S
C1524 N1521 1.390 . S
C1524 C1525 1.346 . S
C1524 H1529 0.930 . S
C1525 N1522 1.336 . S
C1525 C1524 1.346 . S
C1525 H1532 0.929 . S
C1526 O1516 1.282 1_655 S
C1526 O1527 1.216 1_655 S
O1527 C1526 1.216 1_455 S
H1528 C1523 0.930 . S
H1529 C1524 0.930 . S
O1530 Cu1510 1.959 . S
O1530 C1517 1.251 . S
H1531 C1514 0.930 . S
H1532 C1525 0.929 . S
Cu1533 N1534 1.999 . S
Cu1533 O1539 1.974 . S
Cu1533 N1544 2.025 . S
Cu1533 O1553 1.959 1_545 S
N1534 Cu1533 1.999 . S
N1534 C1536 1.263 . S
N1534 C1538 1.389 . S
N1535 C1536 1.358 . S
N1535 C1537 1.400 . S
C1536 N1534 1.263 . S
C1536 N1535 1.358 . S
C1536 H1542 0.930 . S
C1537 N1535 1.400 . S
C1537 C1538 1.351 . S
C1537 H1554 0.930 . S
C1538 N1534 1.389 . S
C1538 C1537 1.351 . S
C1538 H1543 0.930 . S
O1539 Cu1533 1.974 . S
O1539 C1549 1.282 . S
C1540 O1541 1.258 . S
C1540 O1553 1.251 . S
O1541 C1540 1.258 . S
H1542 C1536 0.930 . S
H1543 C1538 0.930 . S
N1544 Cu1533 2.025 . S
N1544 C1546 1.273 1_545 S
N1544 C1547 1.406 . S
N1545 C1546 1.345 . S
N1545 C1548 1.336 . S
C1546 N1544 1.273 1_565 S
C1546 N1545 1.345 . S
C1546 H1551 0.930 . S
C1547 N1544 1.406 . S
C1547 C1548 1.346 1_545 S
C1547 H1552 0.930 . S
C1548 N1545 1.336 . S
C1548 C1547 1.346 1_565 S
C1548 H1555 0.929 . S
C1549 O1539 1.282 . S
C1549 O1550 1.216 . S
O1550 C1549 1.216 . S
H1551 C1546 0.930 . S
H1552 C1547 0.930 . S
O1553 Cu1533 1.959 1_565 S
O1553 C1540 1.251 . S
H1554 C1537 0.930 . S
H1555 C1548 0.929 . S
Cu1556 N1557 1.999 . S
Cu1556 O1562 1.974 . S
Cu1556 N1567 1.985 . S
Cu1556 O1576 1.959 . S
N1557 Cu1556 1.999 . S
N1557 C1559 1.263 . S
N1557 C1561 1.389 . S
N1558 C1559 1.358 . S
N1558 C1560 1.400 . S
C1559 N1557 1.263 . S
C1559 N1558 1.358 . S
C1559 H1565 0.930 . S
C1560 N1558 1.400 . S
C1560 C1561 1.351 . S
C1560 H1577 0.930 . S
C1561 N1557 1.389 . S
C1561 C1560 1.351 . S
C1561 H1566 0.930 . S
O1562 Cu1556 1.974 . S
O1562 C1572 1.282 . S
C1563 O1564 1.261 . S
C1563 O1576 1.251 . S
O1564 C1563 1.261 . S
H1565 C1559 0.930 . S
H1566 C1561 0.930 . S
N1567 Cu1556 1.985 . S
N1567 C1569 1.335 . S
N1567 C1570 1.390 . S
N1568 C1569 1.345 . S
N1568 C1571 1.336 . S
C1569 N1567 1.335 . S
C1569 N1568 1.345 . S
C1569 H1574 0.930 . S
C1570 N1567 1.390 . S
C1570 C1571 1.346 . S
C1570 H1575 0.930 . S
C1571 N1568 1.336 . S
C1571 C1570 1.346 . S
C1571 H1578 0.929 . S
C1572 O1562 1.282 . S
C1572 O1573 1.216 . S
O1573 C1572 1.216 . S
H1574 C1569 0.930 . S
H1575 C1570 0.930 . S
O1576 Cu1556 1.959 . S
O1576 C1563 1.251 . S
H1577 C1560 0.930 . S
H1578 C1571 0.929 . S
Cu1579 N1580 1.999 . S
Cu1579 O1585 1.974 . S
Cu1579 N1590 1.985 . S
Cu1579 O1599 1.959 . S
N1580 Cu1579 1.999 . S
N1580 C1582 1.263 . S
N1580 C1584 1.389 . S
N1581 C1582 1.358 . S
N1581 C1583 1.400 . S
C1582 N1580 1.263 . S
C1582 N1581 1.358 . S
C1582 H1588 0.930 . S
C1583 N1581 1.400 . S
C1583 C1584 1.351 . S
C1583 H1600 0.930 . S
C1584 N1580 1.389 . S
C1584 C1583 1.351 . S
C1584 H1589 0.930 . S
O1585 Cu1579 1.974 . S
O1585 C1595 1.282 . S
C1586 O1587 1.261 . S
C1586 O1599 1.251 . S
O1587 C1586 1.261 . S
H1588 C1582 0.930 . S
H1589 C1584 0.930 . S
N1590 Cu1579 1.985 . S
N1590 C1592 1.335 . S
N1590 C1593 1.390 . S
N1591 C1592 1.345 . S
N1591 C1594 1.336 . S
C1592 N1590 1.335 . S
C1592 N1591 1.345 . S
C1592 H1597 0.930 . S
C1593 N1590 1.390 . S
C1593 C1594 1.346 . S
C1593 H1598 0.930 . S
C1594 N1591 1.336 . S
C1594 C1593 1.346 . S
C1594 H1601 0.929 . S
C1595 O1585 1.282 . S
C1595 O1596 1.216 . S
O1596 C1595 1.216 . S
H1597 C1592 0.930 . S
H1598 C1593 0.930 . S
O1599 Cu1579 1.959 . S
O1599 C1586 1.251 . S
H1600 C1583 0.930 . S
H1601 C1594 0.929 . S
Cu1602 N1603 1.999 . S
Cu1602 O1608 1.974 . S
Cu1602 N1613 1.985 . S
Cu1602 O1622 1.959 . S
N1603 Cu1602 1.999 . S
N1603 C1605 1.263 . S
N1603 C1607 1.389 . S
N1604 C1605 1.358 . S
N1604 C1606 1.400 . S
C1605 N1603 1.263 . S
C1605 N1604 1.358 . S
C1605 H1611 0.930 . S
C1606 N1604 1.400 . S
C1606 C1607 1.351 . S
C1606 H1623 0.930 . S
C1607 N1603 1.389 . S
C1607 C1606 1.351 . S
C1607 H1612 0.930 . S
O1608 Cu1602 1.974 . S
O1608 C1618 1.282 . S
C1609 O1610 1.261 . S
C1609 O1622 1.251 . S
O1610 C1609 1.261 . S
H1611 C1605 0.930 . S
H1612 C1607 0.930 . S
N1613 Cu1602 1.985 . S
N1613 C1615 1.335 . S
N1613 C1616 1.390 . S
N1614 C1615 1.345 . S
N1614 C1617 1.336 . S
C1615 N1613 1.335 . S
C1615 N1614 1.345 . S
C1615 H1620 0.930 . S
C1616 N1613 1.390 . S
C1616 C1617 1.346 . S
C1616 H1621 0.930 . S
C1617 N1614 1.336 . S
C1617 C1616 1.346 . S
C1617 H1624 0.929 . S
C1618 O1608 1.282 . S
C1618 O1619 1.216 . S
O1619 C1618 1.216 . S
H1620 C1615 0.930 . S
H1621 C1616 0.930 . S
O1622 Cu1602 1.959 . S
O1622 C1609 1.251 . S
H1623 C1606 0.930 . S
H1624 C1617 0.929 . S
Cu1625 N1626 1.999 . S
Cu1625 O1631 1.974 . S
Cu1625 N1636 1.985 . S
Cu1625 O1645 1.959 . S
N1626 Cu1625 1.999 . S
N1626 C1628 1.263 . S
N1626 C1630 1.389 . S
N1627 C1628 1.358 . S
N1627 C1629 1.400 . S
C1628 N1626 1.263 . S
C1628 N1627 1.358 . S
C1628 H1634 0.930 . S
C1629 N1627 1.400 . S
C1629 C1630 1.351 . S
C1629 H1646 0.930 . S
C1630 N1626 1.389 . S
C1630 C1629 1.351 . S
C1630 H1635 0.930 . S
O1631 Cu1625 1.974 . S
O1631 C1641 1.282 . S
C1632 O1633 1.261 . S
C1632 O1645 1.251 . S
O1633 C1632 1.261 . S
H1634 C1628 0.930 . S
H1635 C1630 0.930 . S
N1636 Cu1625 1.985 . S
N1636 C1638 1.335 . S
N1636 C1639 1.390 . S
N1637 C1638 1.345 . S
N1637 C1640 1.336 . S
C1638 N1636 1.335 . S
C1638 N1637 1.345 . S
C1638 H1643 0.930 . S
C1639 N1636 1.390 . S
C1639 C1640 1.346 . S
C1639 H1644 0.930 . S
C1640 N1637 1.336 . S
C1640 C1639 1.346 . S
C1640 H1647 0.929 . S
C1641 O1631 1.282 . S
C1641 O1642 1.216 . S
O1642 C1641 1.216 . S
H1643 C1638 0.930 . S
H1644 C1639 0.930 . S
O1645 Cu1625 1.959 . S
O1645 C1632 1.251 . S
H1646 C1629 0.930 . S
H1647 C1640 0.929 . S
Cu1648 N1649 1.999 . S
Cu1648 O1654 1.974 . S
Cu1648 N1659 1.985 . S
Cu1648 O1668 1.959 . S
N1649 Cu1648 1.999 . S
N1649 C1651 1.263 . S
N1649 C1653 1.389 . S
N1650 C1651 1.358 . S
N1650 C1652 1.400 . S
C1651 N1649 1.263 . S
C1651 N1650 1.358 . S
C1651 H1657 0.930 . S
C1652 N1650 1.400 . S
C1652 C1653 1.351 . S
C1652 H1669 0.930 . S
C1653 N1649 1.389 . S
C1653 C1652 1.351 . S
C1653 H1658 0.930 . S
O1654 Cu1648 1.974 . S
O1654 C1664 1.282 . S
C1655 O1656 1.261 . S
C1655 O1668 1.251 . S
O1656 C1655 1.261 . S
H1657 C1651 0.930 . S
H1658 C1653 0.930 . S
N1659 Cu1648 1.985 . S
N1659 C1661 1.335 . S
N1659 C1662 1.390 . S
N1660 C1661 1.345 . S
N1660 C1663 1.336 . S
C1661 N1659 1.335 . S
C1661 N1660 1.345 . S
C1661 H1666 0.930 . S
C1662 N1659 1.390 . S
C1662 C1663 1.346 . S
C1662 H1667 0.930 . S
C1663 N1660 1.336 . S
C1663 C1662 1.346 . S
C1663 H1670 0.929 . S
C1664 O1654 1.282 . S
C1664 O1665 1.216 . S
O1665 C1664 1.216 . S
H1666 C1661 0.930 . S
H1667 C1662 0.930 . S
O1668 Cu1648 1.959 . S
O1668 C1655 1.251 . S
H1669 C1652 0.930 . S
H1670 C1663 0.929 . S
Cu1671 N1672 1.999 . S
Cu1671 O1677 1.974 . S
Cu1671 N1682 1.985 . S
Cu1671 O1691 1.959 . S
N1672 Cu1671 1.999 . S
N1672 C1674 1.263 . S
N1672 C1676 1.389 . S
N1673 C1674 1.358 . S
N1673 C1675 1.400 . S
C1674 N1672 1.263 . S
C1674 N1673 1.358 . S
C1674 H1680 0.930 . S
C1675 N1673 1.400 . S
C1675 C1676 1.351 . S
C1675 H1692 0.930 . S
C1676 N1672 1.389 . S
C1676 C1675 1.351 . S
C1676 H1681 0.930 . S
O1677 Cu1671 1.974 . S
O1677 C1687 1.282 . S
C1678 O1679 1.261 . S
C1678 O1691 1.251 . S
O1679 C1678 1.261 . S
H1680 C1674 0.930 . S
H1681 C1676 0.930 . S
N1682 Cu1671 1.985 . S
N1682 C1684 1.335 . S
N1682 C1685 1.390 . S
N1683 C1684 1.345 . S
N1683 C1686 1.336 . S
C1684 N1682 1.335 . S
C1684 N1683 1.345 . S
C1684 H1689 0.930 . S
C1685 N1682 1.390 . S
C1685 C1686 1.346 . S
C1685 H1690 0.930 . S
C1686 N1683 1.336 . S
C1686 C1685 1.346 . S
C1686 H1693 0.929 . S
C1687 O1677 1.282 . S
C1687 O1688 1.216 . S
O1688 C1687 1.216 . S
H1689 C1684 0.930 . S
H1690 C1685 0.930 . S
O1691 Cu1671 1.959 . S
O1691 C1678 1.251 . S
H1692 C1675 0.930 . S
H1693 C1686 0.929 . S
Cu1694 N1695 1.999 . S
Cu1694 O1700 1.974 . S
Cu1694 N1705 1.985 . S
Cu1694 O1714 1.959 . S
N1695 Cu1694 1.999 . S
N1695 C1697 1.263 . S
N1695 C1699 1.389 . S
N1696 C1697 1.358 . S
N1696 C1698 1.400 . S
C1697 N1695 1.263 . S
C1697 N1696 1.358 . S
C1697 H1703 0.930 . S
C1698 N1696 1.400 . S
C1698 C1699 1.351 . S
C1698 H1715 0.930 . S
C1699 N1695 1.389 . S
C1699 C1698 1.351 . S
C1699 H1704 0.930 . S
O1700 Cu1694 1.974 . S
O1700 C1710 1.282 . S
C1701 O1702 1.261 . S
C1701 O1714 1.251 . S
O1702 C1701 1.261 . S
H1703 C1697 0.930 . S
H1704 C1699 0.930 . S
N1705 Cu1694 1.985 . S
N1705 C1707 1.335 . S
N1705 C1708 1.390 . S
N1706 C1707 1.345 . S
N1706 C1709 1.336 . S
C1707 N1705 1.335 . S
C1707 N1706 1.345 . S
C1707 H1712 0.930 . S
C1708 N1705 1.390 . S
C1708 C1709 1.346 . S
C1708 H1713 0.930 . S
C1709 N1706 1.336 . S
C1709 C1708 1.346 . S
C1709 H1716 0.929 . S
C1710 O1700 1.282 . S
C1710 O1711 1.216 . S
O1711 C1710 1.216 . S
H1712 C1707 0.930 . S
H1713 C1708 0.930 . S
O1714 Cu1694 1.959 . S
O1714 C1701 1.251 . S
H1715 C1698 0.930 . S
H1716 C1709 0.929 . S
Cu1717 N1718 1.999 . S
Cu1717 O1723 1.974 . S
Cu1717 N1728 1.985 . S
Cu1717 O1737 1.959 . S
N1718 Cu1717 1.999 . S
N1718 C1720 1.263 . S
N1718 C1722 1.389 . S
N1719 C1720 1.358 . S
N1719 C1721 1.400 . S
C1720 N1718 1.263 . S
C1720 N1719 1.358 . S
C1720 H1726 0.930 . S
C1721 N1719 1.400 . S
C1721 C1722 1.351 . S
C1721 H1738 0.930 . S
C1722 N1718 1.389 . S
C1722 C1721 1.351 . S
C1722 H1727 0.930 . S
O1723 Cu1717 1.974 . S
O1723 C1733 1.282 . S
C1724 O1725 1.261 . S
C1724 O1737 1.251 . S
O1725 C1724 1.261 . S
H1726 C1720 0.930 . S
H1727 C1722 0.930 . S
N1728 Cu1717 1.985 . S
N1728 C1730 1.335 . S
N1728 C1731 1.390 . S
N1729 C1730 1.345 . S
N1729 C1732 1.336 . S
C1730 N1728 1.335 . S
C1730 N1729 1.345 . S
C1730 H1735 0.930 . S
C1731 N1728 1.390 . S
C1731 C1732 1.346 . S
C1731 H1736 0.930 . S
C1732 N1729 1.336 . S
C1732 C1731 1.346 . S
C1732 H1739 0.929 . S
C1733 O1723 1.282 . S
C1733 O1734 1.216 . S
O1734 C1733 1.216 . S
H1735 C1730 0.930 . S
H1736 C1731 0.930 . S
O1737 Cu1717 1.959 . S
O1737 C1724 1.251 . S
H1738 C1721 0.930 . S
H1739 C1732 0.929 . S
Cu1740 N1741 1.999 . S
Cu1740 O1746 1.974 . S
Cu1740 N1751 1.985 . S
Cu1740 O1760 1.959 . S
N1741 Cu1740 1.999 . S
N1741 C1743 1.263 . S
N1741 C1745 1.389 . S
N1742 C1743 1.358 . S
N1742 C1744 1.400 . S
C1743 N1741 1.263 . S
C1743 N1742 1.358 . S
C1743 H1749 0.930 . S
C1744 N1742 1.400 . S
C1744 C1745 1.351 . S
C1744 H1761 0.930 . S
C1745 N1741 1.389 . S
C1745 C1744 1.351 . S
C1745 H1750 0.930 . S
O1746 Cu1740 1.974 . S
O1746 C1756 1.282 . S
C1747 O1748 1.261 . S
C1747 O1760 1.251 . S
O1748 C1747 1.261 . S
H1749 C1743 0.930 . S
H1750 C1745 0.930 . S
N1751 Cu1740 1.985 . S
N1751 C1753 1.335 . S
N1751 C1754 1.390 . S
N1752 C1753 1.345 . S
N1752 C1755 1.336 . S
C1753 N1751 1.335 . S
C1753 N1752 1.345 . S
C1753 H1758 0.930 . S
C1754 N1751 1.390 . S
C1754 C1755 1.346 . S
C1754 H1759 0.930 . S
C1755 N1752 1.336 . S
C1755 C1754 1.346 . S
C1755 H1762 0.929 . S
C1756 O1746 1.282 . S
C1756 O1757 1.216 . S
O1757 C1756 1.216 . S
H1758 C1753 0.930 . S
H1759 C1754 0.930 . S
O1760 Cu1740 1.959 . S
O1760 C1747 1.251 . S
H1761 C1744 0.930 . S
H1762 C1755 0.929 . S
Cu1763 N1764 1.999 . S
Cu1763 O1769 1.974 . S
Cu1763 N1774 1.985 . S
Cu1763 O1783 1.959 . S
N1764 Cu1763 1.999 . S
N1764 C1766 1.263 . S
N1764 C1768 1.389 . S
N1765 C1766 1.358 . S
N1765 C1767 1.400 . S
C1766 N1764 1.263 . S
C1766 N1765 1.358 . S
C1766 H1772 0.930 . S
C1767 N1765 1.400 . S
C1767 C1768 1.351 . S
C1767 H1784 0.930 . S
C1768 N1764 1.389 . S
C1768 C1767 1.351 . S
C1768 H1773 0.930 . S
O1769 Cu1763 1.974 . S
O1769 C1779 1.282 . S
C1770 O1771 1.261 . S
C1770 O1783 1.251 . S
O1771 C1770 1.261 . S
H1772 C1766 0.930 . S
H1773 C1768 0.930 . S
N1774 Cu1763 1.985 . S
N1774 C1776 1.335 . S
N1774 C1777 1.390 . S
N1775 C1776 1.345 . S
N1775 C1778 1.336 . S
C1776 N1774 1.335 . S
C1776 N1775 1.345 . S
C1776 H1781 0.930 . S
C1777 N1774 1.390 . S
C1777 C1778 1.346 . S
C1777 H1782 0.930 . S
C1778 N1775 1.336 . S
C1778 C1777 1.346 . S
C1778 H1785 0.929 . S
C1779 O1769 1.282 . S
C1779 O1780 1.216 . S
O1780 C1779 1.216 . S
H1781 C1776 0.930 . S
H1782 C1777 0.930 . S
O1783 Cu1763 1.959 . S
O1783 C1770 1.251 . S
H1784 C1767 0.930 . S
H1785 C1778 0.929 . S
Cu1786 N1787 1.999 . S
Cu1786 O1792 1.974 . S
Cu1786 N1797 1.985 . S
Cu1786 O1806 1.959 . S
N1787 Cu1786 1.999 . S
N1787 C1789 1.263 . S
N1787 C1791 1.389 . S
N1788 C1789 1.358 . S
N1788 C1790 1.400 . S
C1789 N1787 1.263 . S
C1789 N1788 1.358 . S
C1789 H1795 0.930 . S
C1790 N1788 1.400 . S
C1790 C1791 1.351 . S
C1790 H1807 0.930 . S
C1791 N1787 1.389 . S
C1791 C1790 1.351 . S
C1791 H1796 0.930 . S
O1792 Cu1786 1.974 . S
O1792 C1802 1.282 . S
C1793 O1794 1.261 . S
C1793 O1806 1.251 . S
O1794 C1793 1.261 . S
H1795 C1789 0.930 . S
H1796 C1791 0.930 . S
N1797 Cu1786 1.985 . S
N1797 C1799 1.335 . S
N1797 C1800 1.390 . S
N1798 C1799 1.345 . S
N1798 C1801 1.336 . S
C1799 N1797 1.335 . S
C1799 N1798 1.345 . S
C1799 H1804 0.930 . S
C1800 N1797 1.390 . S
C1800 C1801 1.346 . S
C1800 H1805 0.930 . S
C1801 N1798 1.336 . S
C1801 C1800 1.346 . S
C1801 H1808 0.929 . S
C1802 O1792 1.282 . S
C1802 O1803 1.216 . S
O1803 C1802 1.216 . S
H1804 C1799 0.930 . S
H1805 C1800 0.930 . S
O1806 Cu1786 1.959 . S
O1806 C1793 1.251 . S
H1807 C1790 0.930 . S
H1808 C1801 0.929 . S
Cu1809 N1810 1.999 . S
Cu1809 O1815 1.974 . S
Cu1809 N1820 1.985 . S
Cu1809 O1829 1.959 . S
N1810 Cu1809 1.999 . S
N1810 C1812 1.263 . S
N1810 C1814 1.389 . S
N1811 C1812 1.358 . S
N1811 C1813 1.400 . S
C1812 N1810 1.263 . S
C1812 N1811 1.358 . S
C1812 H1818 0.930 . S
C1813 N1811 1.400 . S
C1813 C1814 1.351 . S
C1813 H1830 0.930 . S
C1814 N1810 1.389 . S
C1814 C1813 1.351 . S
C1814 H1819 0.930 . S
O1815 Cu1809 1.974 . S
O1815 C1825 1.282 . S
C1816 O1817 1.261 . S
C1816 O1829 1.251 . S
O1817 C1816 1.261 . S
H1818 C1812 0.930 . S
H1819 C1814 0.930 . S
N1820 Cu1809 1.985 . S
N1820 C1822 1.335 . S
N1820 C1823 1.390 . S
N1821 C1822 1.345 . S
N1821 C1824 1.336 . S
C1822 N1820 1.335 . S
C1822 N1821 1.345 . S
C1822 H1827 0.930 . S
C1823 N1820 1.390 . S
C1823 C1824 1.346 . S
C1823 H1828 0.930 . S
C1824 N1821 1.336 . S
C1824 C1823 1.346 . S
C1824 H1831 0.929 . S
C1825 O1815 1.282 . S
C1825 O1826 1.216 . S
O1826 C1825 1.216 . S
H1827 C1822 0.930 . S
H1828 C1823 0.930 . S
O1829 Cu1809 1.959 . S
O1829 C1816 1.251 . S
H1830 C1813 0.930 . S
H1831 C1824 0.929 . S
H1832 C1850 0.951 . S
H1833 C1852 0.951 . S
H1834 C1854 0.950 . S
H1835 C1855 0.950 . S
H1836 C1857 0.950 . S
H1837 C1860 0.950 . S
H1838 C1861 0.950 . S
H1839 C1863 0.950 . S
H1840 C1864 0.950 . S
H1841 C1865 0.951 . S
H1842 C1867 0.951 . S
H1843 C1869 0.950 . S
H1844 C1870 0.950 . S
H1845 C1872 0.950 . S
H1846 C1875 0.950 . S
H1847 C1876 0.950 . S
H1848 C1878 0.950 . S
H1849 C1879 0.950 . S
C1850 H1832 0.951 . S
C1850 C1851 1.366 . S
C1850 C1852 1.388 . S
C1851 C1850 1.366 . S
C1851 C1855 1.385 . S
C1852 H1833 0.951 . S
C1852 C1850 1.388 . S
C1852 C1853 1.366 . S
C1853 C1852 1.366 . S
C1853 C1854 1.414 . S
C1853 C1856 1.499 . S
C1854 H1834 0.950 . S
C1854 C1853 1.414 . S
C1854 C1855 1.374 . S
C1855 H1835 0.950 . S
C1855 C1851 1.385 . S
C1855 C1854 1.374 . S
C1856 C1853 1.499 . S
C1856 C1857 1.373 . S
C1856 C1858 1.389 . S
C1857 H1836 0.950 . S
C1857 C1856 1.373 . S
C1857 C1873 1.377 . S
C1858 C1856 1.389 . S
C1858 C1859 1.524 . S
C1858 C1872 1.377 . S
C1859 C1858 1.524 . S
C1859 C1860 1.397 . S
C1859 C1864 1.363 . S
C1860 H1837 0.950 . S
C1860 C1859 1.397 . S
C1860 C1861 1.334 . S
C1861 H1838 0.950 . S
C1861 C1860 1.334 . S
C1861 C1862 1.287 . S
C1862 C1861 1.287 . S
C1862 C1863 1.524 . S
C1862 H1881 0.913 . S
C1863 H1839 0.950 . S
C1863 C1862 1.524 . S
C1863 C1864 1.415 . S
C1864 H1840 0.950 . S
C1864 C1859 1.363 . S
C1864 C1863 1.415 . S
C1865 H1841 0.951 . S
C1865 C1866 1.366 . S
C1865 C1867 1.388 . S
C1866 C1865 1.366 . S
C1866 C1870 1.385 . S
C1867 H1842 0.951 . S
C1867 C1865 1.388 . S
C1867 C1868 1.366 . S
C1868 C1867 1.366 . S
C1868 C1869 1.414 . S
C1868 C1871 1.499 . S
C1869 H1843 0.950 . S
C1869 C1868 1.414 . S
C1869 C1870 1.374 . S
C1870 H1844 0.950 . S
C1870 C1866 1.385 . S
C1870 C1869 1.374 . S
C1871 C1868 1.499 . S
C1871 C1872 1.373 . S
C1871 C1873 1.389 . S
C1872 H1845 0.950 . S
C1872 C1858 1.377 . S
C1872 C1871 1.373 . S
C1873 C1857 1.377 . S
C1873 C1871 1.389 . S
C1873 C1874 1.524 . S
C1874 C1873 1.524 . S
C1874 C1875 1.397 . S
C1874 C1879 1.363 . S
C1875 H1846 0.950 . S
C1875 C1874 1.397 . S
C1875 C1876 1.334 . S
C1876 H1847 0.950 . S
C1876 C1875 1.334 . S
C1876 C1877 1.287 . S
C1877 C1876 1.287 . S
C1877 C1878 1.524 . S
C1877 H1880 0.999 . S
C1878 H1848 0.950 . S
C1878 C1877 1.524 . S
C1878 C1879 1.415 . S
C1879 H1849 0.950 . S
C1879 C1874 1.363 . S
C1879 C1878 1.415 . S
H1880 C1877 0.999 . S
H1881 C1862 0.913 . S
H1882 C1900 0.951 . S
H1883 C1902 0.951 . S
H1884 C1904 0.950 . S
H1885 C1905 0.950 . S
H1886 C1907 0.950 . S
H1887 C1910 0.950 . S
H1888 C1911 0.950 . S
H1889 C1913 0.950 . S
H1890 C1914 0.950 . S
H1891 C1915 0.951 . S
H1892 C1917 0.951 . S
H1893 C1919 0.950 . S
H1894 C1920 0.950 . S
H1895 C1922 0.950 . S
H1896 C1925 0.950 . S
H1897 C1926 0.950 . S
H1898 C1928 0.950 . S
H1899 C1929 0.950 . S
C1900 H1882 0.951 . S
C1900 C1901 1.366 . S
C1900 C1902 1.388 . S
C1901 C1900 1.366 . S
C1901 C1905 1.385 . S
C1902 H1883 0.951 . S
C1902 C1900 1.388 . S
C1902 C1903 1.366 . S
C1903 C1902 1.366 . S
C1903 C1904 1.414 . S
C1903 C1906 1.499 . S
C1904 H1884 0.950 . S
C1904 C1903 1.414 . S
C1904 C1905 1.374 . S
C1905 H1885 0.950 . S
C1905 C1901 1.385 . S
C1905 C1904 1.374 . S
C1906 C1903 1.499 . S
C1906 C1907 1.373 . S
C1906 C1908 1.389 . S
C1907 H1886 0.950 . S
C1907 C1906 1.373 . S
C1907 C1923 1.377 . S
C1908 C1906 1.389 . S
C1908 C1909 1.524 . S
C1908 C1922 1.377 . S
C1909 C1908 1.524 . S
C1909 C1910 1.397 . S
C1909 C1914 1.363 . S
C1910 H1887 0.950 . S
C1910 C1909 1.397 . S
C1910 C1911 1.334 . S
C1911 H1888 0.950 . S
C1911 C1910 1.334 . S
C1911 C1912 1.287 . S
C1912 C1911 1.287 . S
C1912 C1913 1.524 . S
C1912 H1931 0.913 . S
C1913 H1889 0.950 . S
C1913 C1912 1.524 . S
C1913 C1914 1.415 . S
C1914 H1890 0.950 . S
C1914 C1909 1.363 . S
C1914 C1913 1.415 . S
C1915 H1891 0.951 . S
C1915 C1916 1.366 . S
C1915 C1917 1.388 . S
C1916 C1915 1.366 . S
C1916 C1920 1.385 . S
C1917 H1892 0.951 . S
C1917 C1915 1.388 . S
C1917 C1918 1.366 . S
C1918 C1917 1.366 . S
C1918 C1919 1.414 . S
C1918 C1921 1.499 . S
C1919 H1893 0.950 . S
C1919 C1918 1.414 . S
C1919 C1920 1.374 . S
C1920 H1894 0.950 . S
C1920 C1916 1.385 . S
C1920 C1919 1.374 . S
C1921 C1918 1.499 . S
C1921 C1922 1.373 . S
C1921 C1923 1.389 . S
C1922 H1895 0.950 . S
C1922 C1908 1.377 . S
C1922 C1921 1.373 . S
C1923 C1907 1.377 . S
C1923 C1921 1.389 . S
C1923 C1924 1.524 . S
C1924 C1923 1.524 . S
C1924 C1925 1.397 . S
C1924 C1929 1.363 . S
C1925 H1896 0.950 . S
C1925 C1924 1.397 . S
C1925 C1926 1.334 . S
C1926 H1897 0.950 . S
C1926 C1925 1.334 . S
C1926 C1927 1.287 . S
C1927 C1926 1.287 . S
C1927 C1928 1.524 . S
C1927 H1930 0.999 . S
C1928 H1898 0.950 . S
C1928 C1927 1.524 . S
C1928 C1929 1.415 . S
C1929 H1899 0.950 . S
C1929 C1924 1.363 . S
C1929 C1928 1.415 . S
H1930 C1927 0.999 . S
H1931 C1912 0.913 . S
H1932 C1950 0.951 . S
H1933 C1952 0.951 . S
H1934 C1954 0.950 . S
H1935 C1955 0.950 . S
H1936 C1957 0.950 . S
H1937 C1960 0.950 . S
H1938 C1961 0.950 . S
H1939 C1963 0.950 . S
H1940 C1964 0.950 . S
H1941 C1965 0.951 . S
H1942 C1967 0.951 . S
H1943 C1969 0.950 . S
H1944 C1970 0.950 . S
H1945 C1972 0.950 . S
H1946 C1975 0.950 . S
H1947 C1976 0.950 . S
H1948 C1978 0.950 . S
H1949 C1979 0.950 . S
C1950 H1932 0.951 . S
C1950 C1951 1.366 . S
C1950 C1952 1.388 . S
C1951 C1950 1.366 . S
C1951 C1955 1.385 . S
C1952 H1933 0.951 . S
C1952 C1950 1.388 . S
C1952 C1953 1.366 . S
C1953 C1952 1.366 . S
C1953 C1954 1.414 . S
C1953 C1956 1.499 . S
C1954 H1934 0.950 . S
C1954 C1953 1.414 . S
C1954 C1955 1.374 . S
C1955 H1935 0.950 . S
C1955 C1951 1.385 . S
C1955 C1954 1.374 . S
C1956 C1953 1.499 . S
C1956 C1957 1.373 . S
C1956 C1958 1.389 . S
C1957 H1936 0.950 . S
C1957 C1956 1.373 . S
C1957 C1973 1.377 . S
C1958 C1956 1.389 . S
C1958 C1959 1.524 . S
C1958 C1972 1.377 . S
C1959 C1958 1.524 . S
C1959 C1960 1.397 . S
C1959 C1964 1.363 . S
C1960 H1937 0.950 . S
C1960 C1959 1.397 . S
C1960 C1961 1.334 . S
C1961 H1938 0.950 . S
C1961 C1960 1.334 . S
C1961 C1962 1.287 . S
C1962 C1961 1.287 . S
C1962 C1963 1.524 . S
C1962 H1981 0.913 . S
C1963 H1939 0.950 . S
C1963 C1962 1.524 . S
C1963 C1964 1.415 . S
C1964 H1940 0.950 . S
C1964 C1959 1.363 . S
C1964 C1963 1.415 . S
C1965 H1941 0.951 . S
C1965 C1966 1.366 . S
C1965 C1967 1.388 . S
C1966 C1965 1.366 . S
C1966 C1970 1.385 . S
C1967 H1942 0.951 . S
C1967 C1965 1.388 . S
C1967 C1968 1.366 . S
C1968 C1967 1.366 . S
C1968 C1969 1.414 . S
C1968 C1971 1.499 . S
C1969 H1943 0.950 . S
C1969 C1968 1.414 . S
C1969 C1970 1.374 . S
C1970 H1944 0.950 . S
C1970 C1966 1.385 . S
C1970 C1969 1.374 . S
C1971 C1968 1.499 . S
C1971 C1972 1.373 . S
C1971 C1973 1.389 . S
C1972 H1945 0.950 . S
C1972 C1958 1.377 . S
C1972 C1971 1.373 . S
C1973 C1957 1.377 . S
C1973 C1971 1.389 . S
C1973 C1974 1.524 . S
C1974 C1973 1.524 . S
C1974 C1975 1.397 . S
C1974 C1979 1.363 . S
C1975 H1946 0.950 . S
C1975 C1974 1.397 . S
C1975 C1976 1.334 . S
C1976 H1947 0.950 . S
C1976 C1975 1.334 . S
C1976 C1977 1.287 . S
C1977 C1976 1.287 . S
C1977 C1978 1.524 . S
C1977 H1980 0.999 . S
C1978 H1948 0.950 . S
C1978 C1977 1.524 . S
C1978 C1979 1.415 . S
C1979 H1949 0.950 . S
C1979 C1974 1.363 . S
C1979 C1978 1.415 . S
H1980 C1977 0.999 . S
H1981 C1962 0.913 . S
H1982 C2000 0.951 . S
H1983 C2002 0.951 . S
H1984 C2004 0.950 . S
H1985 C2005 0.950 . S
H1986 C2007 0.950 . S
H1987 C2010 0.950 . S
H1988 C2011 0.950 . S
H1989 C2013 0.950 . S
H1990 C2014 0.950 . S
H1991 C2015 0.951 . S
H1992 C2017 0.951 . S
H1993 C2019 0.950 . S
H1994 C2020 0.950 . S
H1995 C2022 0.950 . S
H1996 C2025 0.950 . S
H1997 C2026 0.950 . S
H1998 C2028 0.950 . S
H1999 C2029 0.950 . S
C2000 H1982 0.951 . S
C2000 C2001 1.366 . S
C2000 C2002 1.388 . S
C2001 C2000 1.366 . S
C2001 C2005 1.385 . S
C2002 H1983 0.951 . S
C2002 C2000 1.388 . S
C2002 C2003 1.366 . S
C2003 C2002 1.366 . S
C2003 C2004 1.414 . S
C2003 C2006 1.499 . S
C2004 H1984 0.950 . S
C2004 C2003 1.414 . S
C2004 C2005 1.374 . S
C2005 H1985 0.950 . S
C2005 C2001 1.385 . S
C2005 C2004 1.374 . S
C2006 C2003 1.499 . S
C2006 C2007 1.373 . S
C2006 C2008 1.389 . S
C2007 H1986 0.950 . S
C2007 C2006 1.373 . S
C2007 C2023 1.377 . S
C2008 C2006 1.389 . S
C2008 C2009 1.524 . S
C2008 C2022 1.377 . S
C2009 C2008 1.524 . S
C2009 C2010 1.397 . S
C2009 C2014 1.363 . S
C2010 H1987 0.950 . S
C2010 C2009 1.397 . S
C2010 C2011 1.334 . S
C2011 H1988 0.950 . S
C2011 C2010 1.334 . S
C2011 C2012 1.287 . S
C2012 C2011 1.287 . S
C2012 C2013 1.524 . S
C2012 H2031 0.913 . S
C2013 H1989 0.950 . S
C2013 C2012 1.524 . S
C2013 C2014 1.415 . S
C2014 H1990 0.950 . S
C2014 C2009 1.363 . S
C2014 C2013 1.415 . S
C2015 H1991 0.951 . S
C2015 C2016 1.366 . S
C2015 C2017 1.388 . S
C2016 C2015 1.366 . S
C2016 C2020 1.385 . S
C2017 H1992 0.951 . S
C2017 C2015 1.388 . S
C2017 C2018 1.366 . S
C2018 C2017 1.366 . S
C2018 C2019 1.414 . S
C2018 C2021 1.499 . S
C2019 H1993 0.950 . S
C2019 C2018 1.414 . S
C2019 C2020 1.374 . S
C2020 H1994 0.950 . S
C2020 C2016 1.385 . S
C2020 C2019 1.374 . S
C2021 C2018 1.499 . S
C2021 C2022 1.373 . S
C2021 C2023 1.389 . S
C2022 H1995 0.950 . S
C2022 C2008 1.377 . S
C2022 C2021 1.373 . S
C2023 C2007 1.377 . S
C2023 C2021 1.389 . S
C2023 C2024 1.524 . S
C2024 C2023 1.524 . S
C2024 C2025 1.397 . S
C2024 C2029 1.363 . S
C2025 H1996 0.950 . S
C2025 C2024 1.397 . S
C2025 C2026 1.334 . S
C2026 H1997 0.950 . S
C2026 C2025 1.334 . S
C2026 C2027 1.287 . S
C2027 C2026 1.287 . S
C2027 C2028 1.524 . S
C2027 H2030 0.999 . S
C2028 H1998 0.950 . S
C2028 C2027 1.524 . S
C2028 C2029 1.415 . S
C2029 H1999 0.950 . S
C2029 C2024 1.363 . S
C2029 C2028 1.415 . S
H2030 C2027 0.999 . S
H2031 C2012 0.913 . S
H2032 C2050 0.951 . S
H2033 C2052 0.951 . S
H2034 C2054 0.950 . S
H2035 C2055 0.950 . S
H2036 C2057 0.950 . S
H2037 C2060 0.950 . S
H2038 C2061 0.950 . S
H2039 C2063 0.950 . S
H2040 C2064 0.950 . S
H2041 C2065 0.951 . S
H2042 C2067 0.951 . S
H2043 C2069 0.950 . S
H2044 C2070 0.950 . S
H2045 C2072 0.950 . S
H2046 C2075 0.950 . S
H2047 C2076 0.950 . S
H2048 C2078 0.950 . S
H2049 C2079 0.950 . S
C2050 H2032 0.951 . S
C2050 C2051 1.366 . S
C2050 C2052 1.388 . S
C2051 C2050 1.366 . S
C2051 C2055 1.385 . S
C2052 H2033 0.951 . S
C2052 C2050 1.388 . S
C2052 C2053 1.366 . S
C2053 C2052 1.366 . S
C2053 C2054 1.414 . S
C2053 C2056 1.499 . S
C2054 H2034 0.950 . S
C2054 C2053 1.414 . S
C2054 C2055 1.374 . S
C2055 H2035 0.950 . S
C2055 C2051 1.385 . S
C2055 C2054 1.374 . S
C2056 C2053 1.499 . S
C2056 C2057 1.373 . S
C2056 C2058 1.389 . S
C2057 H2036 0.950 . S
C2057 C2056 1.373 . S
C2057 C2073 1.377 . S
C2058 C2056 1.389 . S
C2058 C2059 1.524 . S
C2058 C2072 1.377 . S
C2059 C2058 1.524 . S
C2059 C2060 1.397 . S
C2059 C2064 1.363 . S
C2060 H2037 0.950 . S
C2060 C2059 1.397 . S
C2060 C2061 1.334 . S
C2061 H2038 0.950 . S
C2061 C2060 1.334 . S
C2061 C2062 1.287 . S
C2062 C2061 1.287 . S
C2062 C2063 1.524 . S
C2062 H2081 0.913 . S
C2063 H2039 0.950 . S
C2063 C2062 1.524 . S
C2063 C2064 1.415 . S
C2064 H2040 0.950 . S
C2064 C2059 1.363 . S
C2064 C2063 1.415 . S
C2065 H2041 0.951 . S
C2065 C2066 1.366 . S
C2065 C2067 1.388 . S
C2066 C2065 1.366 . S
C2066 C2070 1.385 . S
C2067 H2042 0.951 . S
C2067 C2065 1.388 . S
C2067 C2068 1.366 . S
C2068 C2067 1.366 . S
C2068 C2069 1.414 . S
C2068 C2071 1.499 . S
C2069 H2043 0.950 . S
C2069 C2068 1.414 . S
C2069 C2070 1.374 . S
C2070 H2044 0.950 . S
C2070 C2066 1.385 . S
C2070 C2069 1.374 . S
C2071 C2068 1.499 . S
C2071 C2072 1.373 . S
C2071 C2073 1.389 . S
C2072 H2045 0.950 . S
C2072 C2058 1.377 . S
C2072 C2071 1.373 . S
C2073 C2057 1.377 . S
C2073 C2071 1.389 . S
C2073 C2074 1.524 . S
C2074 C2073 1.524 . S
C2074 C2075 1.397 . S
C2074 C2079 1.363 . S
C2075 H2046 0.950 . S
C2075 C2074 1.397 . S
C2075 C2076 1.334 . S
C2076 H2047 0.950 . S
C2076 C2075 1.334 . S
C2076 C2077 1.287 . S
C2077 C2076 1.287 . S
C2077 C2078 1.524 . S
C2077 H2080 0.999 . S
C2078 H2048 0.950 . S
C2078 C2077 1.524 . S
C2078 C2079 1.415 . S
C2079 H2049 0.950 . S
C2079 C2074 1.363 . S
C2079 C2078 1.415 . S
H2080 C2077 0.999 . S
H2081 C2062 0.913 . S
H2082 C2100 0.951 . S
H2083 C2102 0.951 . S
H2084 C2104 0.950 . S
H2085 C2105 0.950 . S
H2086 C2107 0.950 . S
H2087 C2110 0.950 . S
H2088 C2111 0.950 . S
H2089 C2113 0.950 . S
H2090 C2114 0.950 . S
H2091 C2115 0.951 . S
H2092 C2117 0.951 . S
H2093 C2119 0.950 . S
H2094 C2120 0.950 . S
H2095 C2122 0.950 . S
H2096 C2125 0.950 . S
H2097 C2126 0.950 . S
H2098 C2128 0.950 . S
H2099 C2129 0.950 . S
C2100 H2082 0.951 . S
C2100 C2101 1.366 . S
C2100 C2102 1.388 . S
C2101 C2100 1.366 . S
C2101 C2105 1.385 . S
C2102 H2083 0.951 . S
C2102 C2100 1.388 . S
C2102 C2103 1.366 . S
C2103 C2102 1.366 . S
C2103 C2104 1.414 . S
C2103 C2106 1.499 . S
C2104 H2084 0.950 . S
C2104 C2103 1.414 . S
C2104 C2105 1.374 . S
C2105 H2085 0.950 . S
C2105 C2101 1.385 . S
C2105 C2104 1.374 . S
C2106 C2103 1.499 . S
C2106 C2107 1.373 . S
C2106 C2108 1.389 . S
C2107 H2086 0.950 . S
C2107 C2106 1.373 . S
C2107 C2123 1.377 . S
C2108 C2106 1.389 . S
C2108 C2109 1.524 . S
C2108 C2122 1.377 . S
C2109 C2108 1.524 . S
C2109 C2110 1.397 . S
C2109 C2114 1.363 . S
C2110 H2087 0.950 . S
C2110 C2109 1.397 . S
C2110 C2111 1.334 . S
C2111 H2088 0.950 . S
C2111 C2110 1.334 . S
C2111 C2112 1.287 . S
C2112 C2111 1.287 . S
C2112 C2113 1.524 . S
C2112 H2131 0.913 . S
C2113 H2089 0.950 . S
C2113 C2112 1.524 . S
C2113 C2114 1.415 . S
C2114 H2090 0.950 . S
C2114 C2109 1.363 . S
C2114 C2113 1.415 . S
C2115 H2091 0.951 . S
C2115 C2116 1.366 . S
C2115 C2117 1.388 . S
C2116 C2115 1.366 . S
C2116 C2120 1.385 . S
C2117 H2092 0.951 . S
C2117 C2115 1.388 . S
C2117 C2118 1.366 . S
C2118 C2117 1.366 . S
C2118 C2119 1.414 . S
C2118 C2121 1.499 . S
C2119 H2093 0.950 . S
C2119 C2118 1.414 . S
C2119 C2120 1.374 . S
C2120 H2094 0.950 . S
C2120 C2116 1.385 . S
C2120 C2119 1.374 . S
C2121 C2118 1.499 . S
C2121 C2122 1.373 . S
C2121 C2123 1.389 . S
C2122 H2095 0.950 . S
C2122 C2108 1.377 . S
C2122 C2121 1.373 . S
C2123 C2107 1.377 . S
C2123 C2121 1.389 . S
C2123 C2124 1.524 . S
C2124 C2123 1.524 . S
C2124 C2125 1.397 . S
C2124 C2129 1.363 . S
C2125 H2096 0.950 . S
C2125 C2124 1.397 . S
C2125 C2126 1.334 . S
C2126 H2097 0.950 . S
C2126 C2125 1.334 . S
C2126 C2127 1.287 . S
C2127 C2126 1.287 . S
C2127 C2128 1.524 . S
C2127 H2130 0.999 . S
C2128 H2098 0.950 . S
C2128 C2127 1.524 . S
C2128 C2129 1.415 . S
C2129 H2099 0.950 . S
C2129 C2124 1.363 . S
C2129 C2128 1.415 . S
H2130 C2127 0.999 . S
H2131 C2112 0.913 . S
H2132 C2150 0.951 . S
H2133 C2152 0.951 . S
H2134 C2154 0.950 . S
H2135 C2155 0.950 . S
H2136 C2157 0.950 . S
H2137 C2160 0.950 . S
H2138 C2161 0.950 . S
H2139 C2163 0.950 . S
H2140 C2164 0.950 . S
H2141 C2165 0.951 . S
H2142 C2167 0.951 . S
H2143 C2169 0.950 . S
H2144 C2170 0.950 . S
H2145 C2172 0.950 . S
H2146 C2175 0.950 . S
H2147 C2176 0.950 . S
H2148 C2178 0.950 . S
H2149 C2179 0.950 . S
C2150 H2132 0.951 . S
C2150 C2151 1.366 . S
C2150 C2152 1.388 . S
C2151 C2150 1.366 . S
C2151 C2155 1.385 . S
C2152 H2133 0.951 . S
C2152 C2150 1.388 . S
C2152 C2153 1.366 . S
C2153 C2152 1.366 . S
C2153 C2154 1.414 . S
C2153 C2156 1.499 . S
C2154 H2134 0.950 . S
C2154 C2153 1.414 . S
C2154 C2155 1.374 . S
C2155 H2135 0.950 . S
C2155 C2151 1.385 . S
C2155 C2154 1.374 . S
C2156 C2153 1.499 . S
C2156 C2157 1.373 . S
C2156 C2158 1.389 . S
C2157 H2136 0.950 . S
C2157 C2156 1.373 . S
C2157 C2173 1.377 . S
C2158 C2156 1.389 . S
C2158 C2159 1.524 . S
C2158 C2172 1.377 . S
C2159 C2158 1.524 . S
C2159 C2160 1.397 . S
C2159 C2164 1.363 . S
C2160 H2137 0.950 . S
C2160 C2159 1.397 . S
C2160 C2161 1.334 . S
C2161 H2138 0.950 . S
C2161 C2160 1.334 . S
C2161 C2162 1.287 . S
C2162 C2161 1.287 . S
C2162 C2163 1.524 . S
C2162 H2181 0.913 . S
C2163 H2139 0.950 . S
C2163 C2162 1.524 . S
C2163 C2164 1.415 . S
C2164 H2140 0.950 . S
C2164 C2159 1.363 . S
C2164 C2163 1.415 . S
C2165 H2141 0.951 . S
C2165 C2166 1.366 . S
C2165 C2167 1.388 . S
C2166 C2165 1.366 . S
C2166 C2170 1.385 . S
C2167 H2142 0.951 . S
C2167 C2165 1.388 . S
C2167 C2168 1.366 . S
C2168 C2167 1.366 . S
C2168 C2169 1.414 . S
C2168 C2171 1.499 . S
C2169 H2143 0.950 . S
C2169 C2168 1.414 . S
C2169 C2170 1.374 . S
C2170 H2144 0.950 . S
C2170 C2166 1.385 . S
C2170 C2169 1.374 . S
C2171 C2168 1.499 . S
C2171 C2172 1.373 . S
C2171 C2173 1.389 . S
C2172 H2145 0.950 . S
C2172 C2158 1.377 . S
C2172 C2171 1.373 . S
C2173 C2157 1.377 . S
C2173 C2171 1.389 . S
C2173 C2174 1.524 . S
C2174 C2173 1.524 . S
C2174 C2175 1.397 . S
C2174 C2179 1.363 . S
C2175 H2146 0.950 . S
C2175 C2174 1.397 . S
C2175 C2176 1.334 . S
C2176 H2147 0.950 . S
C2176 C2175 1.334 . S
C2176 C2177 1.287 . S
C2177 C2176 1.287 . S
C2177 C2178 1.524 . S
C2177 H2180 0.999 . S
C2178 H2148 0.950 . S
C2178 C2177 1.524 . S
C2178 C2179 1.415 . S
C2179 H2149 0.950 . S
C2179 C2174 1.363 . S
C2179 C2178 1.415 . S
H2180 C2177 0.999 . S
H2181 C2162 0.913 . S
H2182 C2200 0.951 . S
H2183 C2202 0.951 . S
H2184 C2204 0.950 . S
H2185 C2205 0.950 . S
H2186 C2207 0.950 . S
H2187 C2210 0.950 . S
H2188 C2211 0.950 . S
H2189 C2213 0.950 . S
H2190 C2214 0.950 . S
H2191 C2215 0.951 . S
H2192 C2217 0.951 . S
H2193 C2219 0.950 . S
H2194 C2220 0.950 . S
H2195 C2222 0.950 . S
H2196 C2225 0.950 . S
H2197 C2226 0.950 . S
H2198 C2228 0.950 . S
H2199 C2229 0.950 . S
C2200 H2182 0.951 . S
C2200 C2201 1.366 . S
C2200 C2202 1.388 . S
C2201 C2200 1.366 . S
C2201 C2205 1.385 . S
C2202 H2183 0.951 . S
C2202 C2200 1.388 . S
C2202 C2203 1.366 . S
C2203 C2202 1.366 . S
C2203 C2204 1.414 . S
C2203 C2206 1.499 . S
C2204 H2184 0.950 . S
C2204 C2203 1.414 . S
C2204 C2205 1.374 . S
C2205 H2185 0.950 . S
C2205 C2201 1.385 . S
C2205 C2204 1.374 . S
C2206 C2203 1.499 . S
C2206 C2207 1.373 . S
C2206 C2208 1.389 . S
C2207 H2186 0.950 . S
C2207 C2206 1.373 . S
C2207 C2223 1.377 . S
C2208 C2206 1.389 . S
C2208 C2209 1.524 . S
C2208 C2222 1.377 . S
C2209 C2208 1.524 . S
C2209 C2210 1.397 . S
C2209 C2214 1.363 . S
C2210 H2187 0.950 . S
C2210 C2209 1.397 . S
C2210 C2211 1.334 . S
C2211 H2188 0.950 . S
C2211 C2210 1.334 . S
C2211 C2212 1.287 . S
C2212 C2211 1.287 . S
C2212 C2213 1.524 . S
C2212 H2231 0.913 . S
C2213 H2189 0.950 . S
C2213 C2212 1.524 . S
C2213 C2214 1.415 . S
C2214 H2190 0.950 . S
C2214 C2209 1.363 . S
C2214 C2213 1.415 . S
C2215 H2191 0.951 . S
C2215 C2216 1.366 . S
C2215 C2217 1.388 . S
C2216 C2215 1.366 . S
C2216 C2220 1.385 . S
C2217 H2192 0.951 . S
C2217 C2215 1.388 . S
C2217 C2218 1.366 . S
C2218 C2217 1.366 . S
C2218 C2219 1.414 . S
C2218 C2221 1.499 . S
C2219 H2193 0.950 . S
C2219 C2218 1.414 . S
C2219 C2220 1.374 . S
C2220 H2194 0.950 . S
C2220 C2216 1.385 . S
C2220 C2219 1.374 . S
C2221 C2218 1.499 . S
C2221 C2222 1.373 . S
C2221 C2223 1.389 . S
C2222 H2195 0.950 . S
C2222 C2208 1.377 . S
C2222 C2221 1.373 . S
C2223 C2207 1.377 . S
C2223 C2221 1.389 . S
C2223 C2224 1.524 . S
C2224 C2223 1.524 . S
C2224 C2225 1.397 . S
C2224 C2229 1.363 . S
C2225 H2196 0.950 . S
C2225 C2224 1.397 . S
C2225 C2226 1.334 . S
C2226 H2197 0.950 . S
C2226 C2225 1.334 . S
C2226 C2227 1.287 . S
C2227 C2226 1.287 . S
C2227 C2228 1.524 . S
C2227 H2230 0.999 . S
C2228 H2198 0.950 . S
C2228 C2227 1.524 . S
C2228 C2229 1.415 . S
C2229 H2199 0.950 . S
C2229 C2224 1.363 . S
C2229 C2228 1.415 . S
H2230 C2227 0.999 . S
H2231 C2212 0.913 . S
H2232 C2250 0.951 . S
H2233 C2252 0.951 . S
H2234 C2254 0.950 . S
H2235 C2255 0.950 . S
H2236 C2257 0.950 . S
H2237 C2260 0.950 . S
H2238 C2261 0.950 . S
H2239 C2263 0.950 . S
H2240 C2264 0.950 . S
H2241 C2265 0.951 . S
H2242 C2267 0.951 . S
H2243 C2269 0.950 . S
H2244 C2270 0.950 . S
H2245 C2272 0.950 . S
H2246 C2275 0.950 . S
H2247 C2276 0.950 . S
H2248 C2278 0.950 . S
H2249 C2279 0.950 . S
C2250 H2232 0.951 . S
C2250 C2251 1.366 . S
C2250 C2252 1.388 . S
C2251 C2250 1.366 . S
C2251 C2255 1.385 . S
C2252 H2233 0.951 . S
C2252 C2250 1.388 . S
C2252 C2253 1.366 . S
C2253 C2252 1.366 . S
C2253 C2254 1.414 . S
C2253 C2256 1.499 . S
C2254 H2234 0.950 . S
C2254 C2253 1.414 . S
C2254 C2255 1.374 . S
C2255 H2235 0.950 . S
C2255 C2251 1.385 . S
C2255 C2254 1.374 . S
C2256 C2253 1.499 . S
C2256 C2257 1.373 . S
C2256 C2258 1.389 . S
C2257 H2236 0.950 . S
C2257 C2256 1.373 . S
C2257 C2273 1.377 . S
C2258 C2256 1.389 . S
C2258 C2259 1.524 . S
C2258 C2272 1.377 . S
C2259 C2258 1.524 . S
C2259 C2260 1.397 . S
C2259 C2264 1.363 . S
C2260 H2237 0.950 . S
C2260 C2259 1.397 . S
C2260 C2261 1.334 . S
C2261 H2238 0.950 . S
C2261 C2260 1.334 . S
C2261 C2262 1.287 . S
C2262 C2261 1.287 . S
C2262 C2263 1.524 . S
C2262 H2281 0.913 . S
C2263 H2239 0.950 . S
C2263 C2262 1.524 . S
C2263 C2264 1.415 . S
C2264 H2240 0.950 . S
C2264 C2259 1.363 . S
C2264 C2263 1.415 . S
C2265 H2241 0.951 . S
C2265 C2266 1.366 . S
C2265 C2267 1.388 . S
C2266 C2265 1.366 . S
C2266 C2270 1.385 . S
C2267 H2242 0.951 . S
C2267 C2265 1.388 . S
C2267 C2268 1.366 . S
C2268 C2267 1.366 . S
C2268 C2269 1.414 . S
C2268 C2271 1.499 . S
C2269 H2243 0.950 . S
C2269 C2268 1.414 . S
C2269 C2270 1.374 . S
C2270 H2244 0.950 . S
C2270 C2266 1.385 . S
C2270 C2269 1.374 . S
C2271 C2268 1.499 . S
C2271 C2272 1.373 . S
C2271 C2273 1.389 . S
C2272 H2245 0.950 . S
C2272 C2258 1.377 . S
C2272 C2271 1.373 . S
C2273 C2257 1.377 . S
C2273 C2271 1.389 . S
C2273 C2274 1.524 . S
C2274 C2273 1.524 . S
C2274 C2275 1.397 . S
C2274 C2279 1.363 . S
C2275 H2246 0.950 . S
C2275 C2274 1.397 . S
C2275 C2276 1.334 . S
C2276 H2247 0.950 . S
C2276 C2275 1.334 . S
C2276 C2277 1.287 . S
C2277 C2276 1.287 . S
C2277 C2278 1.524 . S
C2277 H2280 0.999 . S
C2278 H2248 0.950 . S
C2278 C2277 1.524 . S
C2278 C2279 1.415 . S
C2279 H2249 0.950 . S
C2279 C2274 1.363 . S
C2279 C2278 1.415 . S
H2280 C2277 0.999 . S
H2281 C2262 0.913 . S
H2282 C2300 0.951 . S
H2283 C2302 0.951 . S
H2284 C2304 0.950 . S
H2285 C2305 0.950 . S
H2286 C2307 0.950 . S
H2287 C2310 0.950 . S
H2288 C2311 0.950 . S
H2289 C2313 0.950 . S
H2290 C2314 0.950 . S
H2291 C2315 0.951 . S
H2292 C2317 0.951 . S
H2293 C2319 0.950 . S
H2294 C2320 0.950 . S
H2295 C2322 0.950 . S
H2296 C2325 0.950 . S
H2297 C2326 0.950 . S
H2298 C2328 0.950 . S
H2299 C2329 0.950 . S
C2300 H2282 0.951 . S
C2300 C2301 1.366 . S
C2300 C2302 1.388 . S
C2301 C2300 1.366 . S
C2301 C2305 1.385 . S
C2302 H2283 0.951 . S
C2302 C2300 1.388 . S
C2302 C2303 1.366 . S
C2303 C2302 1.366 . S
C2303 C2304 1.414 . S
C2303 C2306 1.499 . S
C2304 H2284 0.950 . S
C2304 C2303 1.414 . S
C2304 C2305 1.374 . S
C2305 H2285 0.950 . S
C2305 C2301 1.385 . S
C2305 C2304 1.374 . S
C2306 C2303 1.499 . S
C2306 C2307 1.373 . S
C2306 C2308 1.389 . S
C2307 H2286 0.950 . S
C2307 C2306 1.373 . S
C2307 C2323 1.377 . S
C2308 C2306 1.389 . S
C2308 C2309 1.524 . S
C2308 C2322 1.377 . S
C2309 C2308 1.524 . S
C2309 C2310 1.397 . S
C2309 C2314 1.363 . S
C2310 H2287 0.950 . S
C2310 C2309 1.397 . S
C2310 C2311 1.334 . S
C2311 H2288 0.950 . S
C2311 C2310 1.334 . S
C2311 C2312 1.287 . S
C2312 C2311 1.287 . S
C2312 C2313 1.524 . S
C2312 H2331 0.913 . S
C2313 H2289 0.950 . S
C2313 C2312 1.524 . S
C2313 C2314 1.415 . S
C2314 H2290 0.950 . S
C2314 C2309 1.363 . S
C2314 C2313 1.415 . S
C2315 H2291 0.951 . S
C2315 C2316 1.366 . S
C2315 C2317 1.388 . S
C2316 C2315 1.366 . S
C2316 C2320 1.385 . S
C2317 H2292 0.951 . S
C2317 C2315 1.388 . S
C2317 C2318 1.366 . S
C2318 C2317 1.366 . S
C2318 C2319 1.414 . S
C2318 C2321 1.499 . S
C2319 H2293 0.950 . S
C2319 C2318 1.414 . S
C2319 C2320 1.374 . S
C2320 H2294 0.950 . S
C2320 C2316 1.385 . S
C2320 C2319 1.374 . S
C2321 C2318 1.499 . S
C2321 C2322 1.373 . S
C2321 C2323 1.389 . S
C2322 H2295 0.950 . S
C2322 C2308 1.377 . S
C2322 C2321 1.373 . S
C2323 C2307 1.377 . S
C2323 C2321 1.389 . S
C2323 C2324 1.524 . S
C2324 C2323 1.524 . S
C2324 C2325 1.397 . S
C2324 C2329 1.363 . S
C2325 H2296 0.950 . S
C2325 C2324 1.397 . S
C2325 C2326 1.334 . S
C2326 H2297 0.950 . S
C2326 C2325 1.334 . S
C2326 C2327 1.287 . S
C2327 C2326 1.287 . S
C2327 C2328 1.524 . S
C2327 H2330 0.999 . S
C2328 H2298 0.950 . S
C2328 C2327 1.524 . S
C2328 C2329 1.415 . S
C2329 H2299 0.950 . S
C2329 C2324 1.363 . S
C2329 C2328 1.415 . S
H2330 C2327 0.999 . S
H2331 C2312 0.913 . S
H2332 C2350 0.951 . S
H2333 C2352 0.951 . S
H2334 C2354 0.950 . S
H2335 C2355 0.950 . S
H2336 C2357 0.950 . S
H2337 C2360 0.950 . S
H2338 C2361 0.950 . S
H2339 C2363 0.950 . S
H2340 C2364 0.950 . S
H2341 C2365 0.951 . S
H2342 C2367 0.951 . S
H2343 C2369 0.950 . S
H2344 C2370 0.950 . S
H2345 C2372 0.950 . S
H2346 C2375 0.950 . S
H2347 C2376 0.950 . S
H2348 C2378 0.950 . S
H2349 C2379 0.950 . S
C2350 H2332 0.951 . S
C2350 C2351 1.366 . S
C2350 C2352 1.388 . S
C2351 C2350 1.366 . S
C2351 C2355 1.385 . S
C2352 H2333 0.951 . S
C2352 C2350 1.388 . S
C2352 C2353 1.366 . S
C2353 C2352 1.366 . S
C2353 C2354 1.414 . S
C2353 C2356 1.499 . S
C2354 H2334 0.950 . S
C2354 C2353 1.414 . S
C2354 C2355 1.374 . S
C2355 H2335 0.950 . S
C2355 C2351 1.385 . S
C2355 C2354 1.374 . S
C2356 C2353 1.499 . S
C2356 C2357 1.373 . S
C2356 C2358 1.389 . S
C2357 H2336 0.950 . S
C2357 C2356 1.373 . S
C2357 C2373 1.377 . S
C2358 C2356 1.389 . S
C2358 C2359 1.524 . S
C2358 C2372 1.377 . S
C2359 C2358 1.524 . S
C2359 C2360 1.397 . S
C2359 C2364 1.363 . S
C2360 H2337 0.950 . S
C2360 C2359 1.397 . S
C2360 C2361 1.334 . S
C2361 H2338 0.950 . S
C2361 C2360 1.334 . S
C2361 C2362 1.287 . S
C2362 C2361 1.287 . S
C2362 C2363 1.524 . S
C2362 H2381 0.913 . S
C2363 H2339 0.950 . S
C2363 C2362 1.524 . S
C2363 C2364 1.415 . S
C2364 H2340 0.950 . S
C2364 C2359 1.363 . S
C2364 C2363 1.415 . S
C2365 H2341 0.951 . S
C2365 C2366 1.366 . S
C2365 C2367 1.388 . S
C2366 C2365 1.366 . S
C2366 C2370 1.385 . S
C2367 H2342 0.951 . S
C2367 C2365 1.388 . S
C2367 C2368 1.366 . S
C2368 C2367 1.366 . S
C2368 C2369 1.414 . S
C2368 C2371 1.499 . S
C2369 H2343 0.950 . S
C2369 C2368 1.414 . S
C2369 C2370 1.374 . S
C2370 H2344 0.950 . S
C2370 C2366 1.385 . S
C2370 C2369 1.374 . S
C2371 C2368 1.499 . S
C2371 C2372 1.373 . S
C2371 C2373 1.389 . S
C2372 H2345 0.950 . S
C2372 C2358 1.377 . S
C2372 C2371 1.373 . S
C2373 C2357 1.377 . S
C2373 C2371 1.389 . S
C2373 C2374 1.524 . S
C2374 C2373 1.524 . S
C2374 C2375 1.397 . S
C2374 C2379 1.363 . S
C2375 H2346 0.950 . S
C2375 C2374 1.397 . S
C2375 C2376 1.334 . S
C2376 H2347 0.950 . S
C2376 C2375 1.334 . S
C2376 C2377 1.287 . S
C2377 C2376 1.287 . S
C2377 C2378 1.524 . S
C2377 H2380 0.999 . S
C2378 H2348 0.950 . S
C2378 C2377 1.524 . S
C2378 C2379 1.415 . S
C2379 H2349 0.950 . S
C2379 C2374 1.363 . S
C2379 C2378 1.415 . S
H2380 C2377 0.999 . S
H2381 C2362 0.913 . S
H2382 C2400 0.951 . S
H2383 C2402 0.951 . S
H2384 C2404 0.950 . S
H2385 C2405 0.950 . S
H2386 C2407 0.950 . S
H2387 C2410 0.950 . S
H2388 C2411 0.950 . S
H2389 C2413 0.950 . S
H2390 C2414 0.950 . S
H2391 C2415 0.951 . S
H2392 C2417 0.951 . S
H2393 C2419 0.950 . S
H2394 C2420 0.950 . S
H2395 C2422 0.950 . S
H2396 C2425 0.950 . S
H2397 C2426 0.950 . S
H2398 C2428 0.950 . S
H2399 C2429 0.950 . S
C2400 H2382 0.951 . S
C2400 C2401 1.366 . S
C2400 C2402 1.388 . S
C2401 C2400 1.366 . S
C2401 C2405 1.385 . S
C2402 H2383 0.951 . S
C2402 C2400 1.388 . S
C2402 C2403 1.366 . S
C2403 C2402 1.366 . S
C2403 C2404 1.414 . S
C2403 C2406 1.499 . S
C2404 H2384 0.950 . S
C2404 C2403 1.414 . S
C2404 C2405 1.374 . S
C2405 H2385 0.950 . S
C2405 C2401 1.385 . S
C2405 C2404 1.374 . S
C2406 C2403 1.499 . S
C2406 C2407 1.373 . S
C2406 C2408 1.389 . S
C2407 H2386 0.950 . S
C2407 C2406 1.373 . S
C2407 C2423 1.377 . S
C2408 C2406 1.389 . S
C2408 C2409 1.524 . S
C2408 C2422 1.377 . S
C2409 C2408 1.524 . S
C2409 C2410 1.397 . S
C2409 C2414 1.363 . S
C2410 H2387 0.950 . S
C2410 C2409 1.397 . S
C2410 C2411 1.334 . S
C2411 H2388 0.950 . S
C2411 C2410 1.334 . S
C2411 C2412 1.287 . S
C2412 C2411 1.287 . S
C2412 C2413 1.524 . S
C2412 H2431 0.913 . S
C2413 H2389 0.950 . S
C2413 C2412 1.524 . S
C2413 C2414 1.415 . S
C2414 H2390 0.950 . S
C2414 C2409 1.363 . S
C2414 C2413 1.415 . S
C2415 H2391 0.951 . S
C2415 C2416 1.366 . S
C2415 C2417 1.388 . S
C2416 C2415 1.366 . S
C2416 C2420 1.385 . S
C2417 H2392 0.951 . S
C2417 C2415 1.388 . S
C2417 C2418 1.366 . S
C2418 C2417 1.366 . S
C2418 C2419 1.414 . S
C2418 C2421 1.499 . S
C2419 H2393 0.950 . S
C2419 C2418 1.414 . S
C2419 C2420 1.374 . S
C2420 H2394 0.950 . S
C2420 C2416 1.385 . S
C2420 C2419 1.374 . S
C2421 C2418 1.499 . S
C2421 C2422 1.373 . S
C2421 C2423 1.389 . S
C2422 H2395 0.950 . S
C2422 C2408 1.377 . S
C2422 C2421 1.373 . S
C2423 C2407 1.377 . S
C2423 C2421 1.389 . S
C2423 C2424 1.524 . S
C2424 C2423 1.524 . S
C2424 C2425 1.397 . S
C2424 C2429 1.363 . S
C2425 H2396 0.950 . S
C2425 C2424 1.397 . S
C2425 C2426 1.334 . S
C2426 H2397 0.950 . S
C2426 C2425 1.334 . S
C2426 C2427 1.287 . S
C2427 C2426 1.287 . S
C2427 C2428 1.524 . S
C2427 H2430 0.999 . S
C2428 H2398 0.950 . S
C2428 C2427 1.524 . S
C2428 C2429 1.415 . S
C2429 H2399 0.950 . S
C2429 C2424 1.363 . S
C2429 C2428 1.415 . S
H2430 C2427 0.999 . S
H2431 C2412 0.913 . S
H2432 C2450 0.951 . S
H2433 C2452 0.951 . S
H2434 C2454 0.950 . S
H2435 C2455 0.950 . S
H2436 C2457 0.950 . S
H2437 C2460 0.950 . S
H2438 C2461 0.950 . S
H2439 C2463 0.950 . S
H2440 C2464 0.950 . S
H2441 C2465 0.951 . S
H2442 C2467 0.951 . S
H2443 C2469 0.950 . S
H2444 C2470 0.950 . S
H2445 C2472 0.950 . S
H2446 C2475 0.950 . S
H2447 C2476 0.950 . S
H2448 C2478 0.950 . S
H2449 C2479 0.950 . S
C2450 H2432 0.951 . S
C2450 C2451 1.366 . S
C2450 C2452 1.388 . S
C2451 C2450 1.366 . S
C2451 C2455 1.385 . S
C2452 H2433 0.951 . S
C2452 C2450 1.388 . S
C2452 C2453 1.366 . S
C2453 C2452 1.366 . S
C2453 C2454 1.414 . S
C2453 C2456 1.499 . S
C2454 H2434 0.950 . S
C2454 C2453 1.414 . S
C2454 C2455 1.374 . S
C2455 H2435 0.950 . S
C2455 C2451 1.385 . S
C2455 C2454 1.374 . S
C2456 C2453 1.499 . S
C2456 C2457 1.373 . S
C2456 C2458 1.389 . S
C2457 H2436 0.950 . S
C2457 C2456 1.373 . S
C2457 C2473 1.377 . S
C2458 C2456 1.389 . S
C2458 C2459 1.524 . S
C2458 C2472 1.377 . S
C2459 C2458 1.524 . S
C2459 C2460 1.397 . S
C2459 C2464 1.363 . S
C2460 H2437 0.950 . S
C2460 C2459 1.397 . S
C2460 C2461 1.334 . S
C2461 H2438 0.950 . S
C2461 C2460 1.334 . S
C2461 C2462 1.287 . S
C2462 C2461 1.287 . S
C2462 C2463 1.524 . S
C2462 H2481 0.913 . S
C2463 H2439 0.950 . S
C2463 C2462 1.524 . S
C2463 C2464 1.415 . S
C2464 H2440 0.950 . S
C2464 C2459 1.363 . S
C2464 C2463 1.415 . S
C2465 H2441 0.951 . S
C2465 C2466 1.366 . S
C2465 C2467 1.388 . S
C2466 C2465 1.366 . S
C2466 C2470 1.385 . S
C2467 H2442 0.951 . S
C2467 C2465 1.388 . S
C2467 C2468 1.366 . S
C2468 C2467 1.366 . S
C2468 C2469 1.414 . S
C2468 C2471 1.499 . S
C2469 H2443 0.950 . S
C2469 C2468 1.414 . S
C2469 C2470 1.374 . S
C2470 H2444 0.950 . S
C2470 C2466 1.385 . S
C2470 C2469 1.374 . S
C2471 C2468 1.499 . S
C2471 C2472 1.373 . S
C2471 C2473 1.389 . S
C2472 H2445 0.950 . S
C2472 C2458 1.377 . S
C2472 C2471 1.373 . S
C2473 C2457 1.377 . S
C2473 C2471 1.389 . S
C2473 C2474 1.524 . S
C2474 C2473 1.524 . S
C2474 C2475 1.397 . S
C2474 C2479 1.363 . S
C2475 H2446 0.950 . S
C2475 C2474 1.397 . S
C2475 C2476 1.334 . S
C2476 H2447 0.950 . S
C2476 C2475 1.334 . S
C2476 C2477 1.287 . S
C2477 C2476 1.287 . S
C2477 C2478 1.524 . S
C2477 H2480 0.999 . S
C2478 H2448 0.950 . S
C2478 C2477 1.524 . S
C2478 C2479 1.415 . S
C2479 H2449 0.950 . S
C2479 C2474 1.363 . S
C2479 C2478 1.415 . S
H2480 C2477 0.999 . S
H2481 C2462 0.913 . S
H2482 C2500 0.951 . S
H2483 C2502 0.951 . S
H2484 C2504 0.950 . S
H2485 C2505 0.950 . S
H2486 C2507 0.950 . S
H2487 C2510 0.950 . S
H2488 C2511 0.950 . S
H2489 C2513 0.950 . S
H2490 C2514 0.950 . S
H2491 C2515 0.951 . S
H2492 C2517 0.951 . S
H2493 C2519 0.950 . S
H2494 C2520 0.950 . S
H2495 C2522 0.950 . S
H2496 C2525 0.950 . S
H2497 C2526 0.950 . S
H2498 C2528 0.950 . S
H2499 C2529 0.950 . S
C2500 H2482 0.951 . S
C2500 C2501 1.366 . S
C2500 C2502 1.388 . S
C2501 C2500 1.366 . S
C2501 C2505 1.385 . S
C2502 H2483 0.951 . S
C2502 C2500 1.388 . S
C2502 C2503 1.366 . S
C2503 C2502 1.366 . S
C2503 C2504 1.414 . S
C2503 C2506 1.499 . S
C2504 H2484 0.950 . S
C2504 C2503 1.414 . S
C2504 C2505 1.374 . S
C2505 H2485 0.950 . S
C2505 C2501 1.385 . S
C2505 C2504 1.374 . S
C2506 C2503 1.499 . S
C2506 C2507 1.373 . S
C2506 C2508 1.389 . S
C2507 H2486 0.950 . S
C2507 C2506 1.373 . S
C2507 C2523 1.377 . S
C2508 C2506 1.389 . S
C2508 C2509 1.524 . S
C2508 C2522 1.377 . S
C2509 C2508 1.524 . S
C2509 C2510 1.397 . S
C2509 C2514 1.363 . S
C2510 H2487 0.950 . S
C2510 C2509 1.397 . S
C2510 C2511 1.334 . S
C2511 H2488 0.950 . S
C2511 C2510 1.334 . S
C2511 C2512 1.287 . S
C2512 C2511 1.287 . S
C2512 C2513 1.524 . S
C2512 H2531 0.913 . S
C2513 H2489 0.950 . S
C2513 C2512 1.524 . S
C2513 C2514 1.415 . S
C2514 H2490 0.950 . S
C2514 C2509 1.363 . S
C2514 C2513 1.415 . S
C2515 H2491 0.951 . S
C2515 C2516 1.366 . S
C2515 C2517 1.388 . S
C2516 C2515 1.366 . S
C2516 C2520 1.385 . S
C2517 H2492 0.951 . S
C2517 C2515 1.388 . S
C2517 C2518 1.366 . S
C2518 C2517 1.366 . S
C2518 C2519 1.414 . S
C2518 C2521 1.499 . S
C2519 H2493 0.950 . S
C2519 C2518 1.414 . S
C2519 C2520 1.374 . S
C2520 H2494 0.950 . S
C2520 C2516 1.385 . S
C2520 C2519 1.374 . S
C2521 C2518 1.499 . S
C2521 C2522 1.373 . S
C2521 C2523 1.389 . S
C2522 H2495 0.950 . S
C2522 C2508 1.377 . S
C2522 C2521 1.373 . S
C2523 C2507 1.377 . S
C2523 C2521 1.389 . S
C2523 C2524 1.524 . S
C2524 C2523 1.524 . S
C2524 C2525 1.397 . S
C2524 C2529 1.363 . S
C2525 H2496 0.950 . S
C2525 C2524 1.397 . S
C2525 C2526 1.334 . S
C2526 H2497 0.950 . S
C2526 C2525 1.334 . S
C2526 C2527 1.287 . S
C2527 C2526 1.287 . S
C2527 C2528 1.524 . S
C2527 H2530 0.999 . S
C2528 H2498 0.950 . S
C2528 C2527 1.524 . S
C2528 C2529 1.415 . S
C2529 H2499 0.950 . S
C2529 C2524 1.363 . S
C2529 C2528 1.415 . S
H2530 C2527 0.999 . S
H2531 C2512 0.913 . S
H2532 C2550 0.951 . S
H2533 C2552 0.951 . S
H2534 C2554 0.950 . S
H2535 C2555 0.950 . S
H2536 C2557 0.950 . S
H2537 C2560 0.950 . S
H2538 C2561 0.950 . S
H2539 C2563 0.950 . S
H2540 C2564 0.950 . S
H2541 C2565 0.951 . S
H2542 C2567 0.951 . S
H2543 C2569 0.950 . S
H2544 C2570 0.950 . S
H2545 C2572 0.950 . S
H2546 C2575 0.950 . S
H2547 C2576 0.950 . S
H2548 C2578 0.950 . S
H2549 C2579 0.950 . S
C2550 H2532 0.951 . S
C2550 C2551 1.366 . S
C2550 C2552 1.388 . S
C2551 C2550 1.366 . S
C2551 C2555 1.385 . S
C2552 H2533 0.951 . S
C2552 C2550 1.388 . S
C2552 C2553 1.366 . S
C2553 C2552 1.366 . S
C2553 C2554 1.414 . S
C2553 C2556 1.499 . S
C2554 H2534 0.950 . S
C2554 C2553 1.414 . S
C2554 C2555 1.374 . S
C2555 H2535 0.950 . S
C2555 C2551 1.385 . S
C2555 C2554 1.374 . S
C2556 C2553 1.499 . S
C2556 C2557 1.373 . S
C2556 C2558 1.389 . S
C2557 H2536 0.950 . S
C2557 C2556 1.373 . S
C2557 C2573 1.377 . S
C2558 C2556 1.389 . S
C2558 C2559 1.524 . S
C2558 C2572 1.377 . S
C2559 C2558 1.524 . S
C2559 C2560 1.397 . S
C2559 C2564 1.363 . S
C2560 H2537 0.950 . S
C2560 C2559 1.397 . S
C2560 C2561 1.334 . S
C2561 H2538 0.950 . S
C2561 C2560 1.334 . S
C2561 C2562 1.287 . S
C2562 C2561 1.287 . S
C2562 C2563 1.524 . S
C2562 H2581 0.913 . S
C2563 H2539 0.950 . S
C2563 C2562 1.524 . S
C2563 C2564 1.415 . S
C2564 H2540 0.950 . S
C2564 C2559 1.363 . S
C2564 C2563 1.415 . S
C2565 H2541 0.951 . S
C2565 C2566 1.366 . S
C2565 C2567 1.388 . S
C2566 C2565 1.366 . S
C2566 C2570 1.385 . S
C2567 H2542 0.951 . S
C2567 C2565 1.388 . S
C2567 C2568 1.366 . S
C2568 C2567 1.366 . S
C2568 C2569 1.414 . S
C2568 C2571 1.499 . S
C2569 H2543 0.950 . S
C2569 C2568 1.414 . S
C2569 C2570 1.374 . S
C2570 H2544 0.950 . S
C2570 C2566 1.385 . S
C2570 C2569 1.374 . S
C2571 C2568 1.499 . S
C2571 C2572 1.373 . S
C2571 C2573 1.389 . S
C2572 H2545 0.950 . S
C2572 C2558 1.377 . S
C2572 C2571 1.373 . S
C2573 C2557 1.377 . S
C2573 C2571 1.389 . S
C2573 C2574 1.524 . S
C2574 C2573 1.524 . S
C2574 C2575 1.397 . S
C2574 C2579 1.363 . S
C2575 H2546 0.950 . S
C2575 C2574 1.397 . S
C2575 C2576 1.334 . S
C2576 H2547 0.950 . S
C2576 C2575 1.334 . S
C2576 C2577 1.287 . S
C2577 C2576 1.287 . S
C2577 C2578 1.524 . S
C2577 H2580 1.028 . S
C2578 H2548 0.950 . S
C2578 C2577 1.524 . S
C2578 C2579 1.415 . S
C2579 H2549 0.950 . S
C2579 C2574 1.363 . S
C2579 C2578 1.415 . S
H2580 C2577 1.028 . S
H2581 C2562 0.913 . S
H2582 C2600 0.951 . S
H2583 C2602 0.951 . S
H2584 C2604 0.950 . S
H2585 C2605 0.950 . S
H2586 C2607 0.950 . S
H2587 C2610 0.950 . S
H2588 C2611 0.950 . S
H2589 C2613 0.950 . S
H2590 C2614 0.950 . S
H2591 C2615 0.951 . S
H2592 C2617 0.951 . S
H2593 C2619 0.950 . S
H2594 C2620 0.950 . S
H2595 C2622 0.950 . S
H2596 C2625 0.950 . S
H2597 C2626 0.950 . S
H2598 C2628 0.950 . S
H2599 C2629 0.950 . S
C2600 H2582 0.951 . S
C2600 C2601 1.366 . S
C2600 C2602 1.388 . S
C2601 C2600 1.366 . S
C2601 C2605 1.385 . S
C2602 H2583 0.951 . S
C2602 C2600 1.388 . S
C2602 C2603 1.366 . S
C2603 C2602 1.366 . S
C2603 C2604 1.414 . S
C2603 C2606 1.499 . S
C2604 H2584 0.950 . S
C2604 C2603 1.414 . S
C2604 C2605 1.374 . S
C2605 H2585 0.950 . S
C2605 C2601 1.385 . S
C2605 C2604 1.374 . S
C2606 C2603 1.499 . S
C2606 C2607 1.373 . S
C2606 C2608 1.389 . S
C2607 H2586 0.950 . S
C2607 C2606 1.373 . S
C2607 C2623 1.377 . S
C2608 C2606 1.389 . S
C2608 C2609 1.524 . S
C2608 C2622 1.377 . S
C2609 C2608 1.524 . S
C2609 C2610 1.397 . S
C2609 C2614 1.363 . S
C2610 H2587 0.950 . S
C2610 C2609 1.397 . S
C2610 C2611 1.334 . S
C2611 H2588 0.950 . S
C2611 C2610 1.334 . S
C2611 C2612 1.287 . S
C2612 C2611 1.287 . S
C2612 C2613 1.524 . S
C2612 H2631 0.913 . S
C2613 H2589 0.950 . S
C2613 C2612 1.524 . S
C2613 C2614 1.415 . S
C2614 H2590 0.950 . S
C2614 C2609 1.363 . S
C2614 C2613 1.415 . S
C2615 H2591 0.951 . S
C2615 C2616 1.366 . S
C2615 C2617 1.388 . S
C2616 C2615 1.366 . S
C2616 C2620 1.385 . S
C2617 H2592 0.951 . S
C2617 C2615 1.388 . S
C2617 C2618 1.366 . S
C2618 C2617 1.366 . S
C2618 C2619 1.414 . S
C2618 C2621 1.499 . S
C2619 H2593 0.950 . S
C2619 C2618 1.414 . S
C2619 C2620 1.374 . S
C2620 H2594 0.950 . S
C2620 C2616 1.385 . S
C2620 C2619 1.374 . S
C2621 C2618 1.499 . S
C2621 C2622 1.373 . S
C2621 C2623 1.389 . S
C2622 H2595 0.950 . S
C2622 C2608 1.377 . S
C2622 C2621 1.373 . S
C2623 C2607 1.377 . S
C2623 C2621 1.389 . S
C2623 C2624 1.524 . S
C2624 C2623 1.524 . S
C2624 C2625 1.397 . S
C2624 C2629 1.363 . S
C2625 H2596 0.950 . S
C2625 C2624 1.397 . S
C2625 C2626 1.334 . S
C2626 H2597 0.950 . S
C2626 C2625 1.334 . S
C2626 C2627 1.287 . S
C2627 C2626 1.287 . S
C2627 C2628 1.524 . S
C2627 H2630 0.999 . S
C2628 H2598 0.950 . S
C2628 C2627 1.524 . S
C2628 C2629 1.415 . S
C2629 H2599 0.950 . S
C2629 C2624 1.363 . S
C2629 C2628 1.415 . S
H2630 C2627 0.999 . S
H2631 C2612 0.913 . S
H2632 C2650 0.951 . S
H2633 C2652 0.951 . S
H2634 C2654 0.950 . S
H2635 C2655 0.950 . S
H2636 C2657 0.950 . S
H2637 C2660 0.950 . S
H2638 C2661 0.950 . S
H2639 C2663 0.950 . S
H2640 C2664 0.950 . S
H2641 C2665 0.951 . S
H2642 C2667 0.951 . S
H2643 C2669 0.950 . S
H2644 C2670 0.950 . S
H2645 C2672 0.950 . S
H2646 C2675 0.950 . S
H2647 C2676 0.950 . S
H2648 C2678 0.950 . S
H2649 C2679 0.950 . S
C2650 H2632 0.951 . S
C2650 C2651 1.366 . S
C2650 C2652 1.388 . S
C2651 C2650 1.366 . S
C2651 C2655 1.385 . S
C2652 H2633 0.951 . S
C2652 C2650 1.388 . S
C2652 C2653 1.366 . S
C2653 C2652 1.366 . S
C2653 C2654 1.414 . S
C2653 C2656 1.499 . S
C2654 H2634 0.950 . S
C2654 C2653 1.414 . S
C2654 C2655 1.374 . S
C2655 H2635 0.950 . S
C2655 C2651 1.385 . S
C2655 C2654 1.374 . S
C2656 C2653 1.499 . S
C2656 C2657 1.373 . S
C2656 C2658 1.389 . S
C2657 H2636 0.950 . S
C2657 C2656 1.373 . S
C2657 C2673 1.377 . S
C2658 C2656 1.389 . S
C2658 C2659 1.524 . S
C2658 C2672 1.377 . S
C2659 C2658 1.524 . S
C2659 C2660 1.397 . S
C2659 C2664 1.363 . S
C2660 H2637 0.950 . S
C2660 C2659 1.397 . S
C2660 C2661 1.334 . S
C2661 H2638 0.950 . S
C2661 C2660 1.334 . S
C2661 C2662 1.287 . S
C2662 C2661 1.287 . S
C2662 C2663 1.524 . S
C2662 H2681 0.913 . S
C2663 H2639 0.950 . S
C2663 C2662 1.524 . S
C2663 C2664 1.415 . S
C2664 H2640 0.950 . S
C2664 C2659 1.363 . S
C2664 C2663 1.415 . S
C2665 H2641 0.951 . S
C2665 C2666 1.366 . S
C2665 C2667 1.388 . S
C2666 C2665 1.366 . S
C2666 C2670 1.385 . S
C2667 H2642 0.951 . S
C2667 C2665 1.388 . S
C2667 C2668 1.366 . S
C2668 C2667 1.366 . S
C2668 C2669 1.414 . S
C2668 C2671 1.499 . S
C2669 H2643 0.950 . S
C2669 C2668 1.414 . S
C2669 C2670 1.374 . S
C2670 H2644 0.950 . S
C2670 C2666 1.385 . S
C2670 C2669 1.374 . S
C2671 C2668 1.499 . S
C2671 C2672 1.373 . S
C2671 C2673 1.389 . S
C2672 H2645 0.950 . S
C2672 C2658 1.377 . S
C2672 C2671 1.373 . S
C2673 C2657 1.377 . S
C2673 C2671 1.389 . S
C2673 C2674 1.524 . S
C2674 C2673 1.524 . S
C2674 C2675 1.397 . S
C2674 C2679 1.363 . S
C2675 H2646 0.950 . S
C2675 C2674 1.397 . S
C2675 C2676 1.334 . S
C2676 H2647 0.950 . S
C2676 C2675 1.334 . S
C2676 C2677 1.287 . S
C2677 C2676 1.287 . S
C2677 C2678 1.524 . S
C2677 H2680 0.999 . S
C2678 H2648 0.950 . S
C2678 C2677 1.524 . S
C2678 C2679 1.415 . S
C2679 H2649 0.950 . S
C2679 C2674 1.363 . S
C2679 C2678 1.415 . S
H2680 C2677 0.999 . S
H2681 C2662 0.913 . S
H2682 C2700 0.951 . S
H2683 C2702 0.951 . S
H2684 C2704 0.950 . S
H2685 C2705 0.950 . S
H2686 C2707 0.950 . S
H2687 C2710 0.950 . S
H2688 C2711 0.950 . S
H2689 C2713 0.950 . S
H2690 C2714 0.950 . S
H2691 C2715 0.951 . S
H2692 C2717 0.951 . S
H2693 C2719 0.950 . S
H2694 C2720 0.950 . S
H2695 C2722 0.950 . S
H2696 C2725 0.950 . S
H2697 C2726 0.950 . S
H2698 C2728 0.950 . S
H2699 C2729 0.950 . S
C2700 H2682 0.951 . S
C2700 C2701 1.366 . S
C2700 C2702 1.388 . S
C2701 C2700 1.366 . S
C2701 C2705 1.385 . S
C2702 H2683 0.951 . S
C2702 C2700 1.388 . S
C2702 C2703 1.366 . S
C2703 C2702 1.366 . S
C2703 C2704 1.414 . S
C2703 C2706 1.499 . S
C2704 H2684 0.950 . S
C2704 C2703 1.414 . S
C2704 C2705 1.374 . S
C2705 H2685 0.950 . S
C2705 C2701 1.385 . S
C2705 C2704 1.374 . S
C2706 C2703 1.499 . S
C2706 C2707 1.373 . S
C2706 C2708 1.389 . S
C2707 H2686 0.950 . S
C2707 C2706 1.373 . S
C2707 C2723 1.377 . S
C2708 C2706 1.389 . S
C2708 C2709 1.524 . S
C2708 C2722 1.377 . S
C2709 C2708 1.524 . S
C2709 C2710 1.397 . S
C2709 C2714 1.363 . S
C2710 H2687 0.950 . S
C2710 C2709 1.397 . S
C2710 C2711 1.334 . S
C2711 H2688 0.950 . S
C2711 C2710 1.334 . S
C2711 C2712 1.287 . S
C2712 C2711 1.287 . S
C2712 C2713 1.524 . S
C2712 H2731 0.913 . S
C2713 H2689 0.950 . S
C2713 C2712 1.524 . S
C2713 C2714 1.415 . S
C2714 H2690 0.950 . S
C2714 C2709 1.363 . S
C2714 C2713 1.415 . S
C2715 H2691 0.951 . S
C2715 C2716 1.366 . S
C2715 C2717 1.388 . S
C2716 C2715 1.366 . S
C2716 C2720 1.385 . S
C2717 H2692 0.951 . S
C2717 C2715 1.388 . S
C2717 C2718 1.366 . S
C2718 C2717 1.366 . S
C2718 C2719 1.414 . S
C2718 C2721 1.499 . S
C2719 H2693 0.950 . S
C2719 C2718 1.414 . S
C2719 C2720 1.374 . S
C2720 H2694 0.950 . S
C2720 C2716 1.385 . S
C2720 C2719 1.374 . S
C2721 C2718 1.499 . S
C2721 C2722 1.373 . S
C2721 C2723 1.389 . S
C2722 H2695 0.950 . S
C2722 C2708 1.377 . S
C2722 C2721 1.373 . S
C2723 C2707 1.377 . S
C2723 C2721 1.389 . S
C2723 C2724 1.524 . S
C2724 C2723 1.524 . S
C2724 C2725 1.397 . S
C2724 C2729 1.363 . S
C2725 H2696 0.950 . S
C2725 C2724 1.397 . S
C2725 C2726 1.334 . S
C2726 H2697 0.950 . S
C2726 C2725 1.334 . S
C2726 C2727 1.287 . S
C2727 C2726 1.287 . S
C2727 C2728 1.524 . S
C2727 H2730 0.999 . S
C2728 H2698 0.950 . S
C2728 C2727 1.524 . S
C2728 C2729 1.415 . S
C2729 H2699 0.950 . S
C2729 C2724 1.363 . S
C2729 C2728 1.415 . S
H2730 C2727 0.999 . S
H2731 C2712 0.913 . S
H2732 C2750 0.951 . S
H2733 C2752 0.951 . S
H2734 C2754 0.950 . S
H2735 C2755 0.950 . S
H2736 C2757 0.950 . S
H2737 C2760 0.950 . S
H2738 C2761 0.950 . S
H2739 C2763 0.950 . S
H2740 C2764 0.950 . S
H2741 C2765 0.951 . S
H2742 C2767 0.951 . S
H2743 C2769 0.950 . S
H2744 C2770 0.950 . S
H2745 C2772 0.950 . S
H2746 C2775 0.950 . S
H2747 C2776 0.950 . S
H2748 C2778 0.950 . S
H2749 C2779 0.950 . S
C2750 H2732 0.951 . S
C2750 C2751 1.366 . S
C2750 C2752 1.388 . S
C2751 C2750 1.366 . S
C2751 C2755 1.385 . S
C2752 H2733 0.951 . S
C2752 C2750 1.388 . S
C2752 C2753 1.366 . S
C2753 C2752 1.366 . S
C2753 C2754 1.414 . S
C2753 C2756 1.499 . S
C2754 H2734 0.950 . S
C2754 C2753 1.414 . S
C2754 C2755 1.374 . S
C2755 H2735 0.950 . S
C2755 C2751 1.385 . S
C2755 C2754 1.374 . S
C2756 C2753 1.499 . S
C2756 C2757 1.373 . S
C2756 C2758 1.389 . S
C2757 H2736 0.950 . S
C2757 C2756 1.373 . S
C2757 C2773 1.377 . S
C2758 C2756 1.389 . S
C2758 C2759 1.524 . S
C2758 C2772 1.377 . S
C2759 C2758 1.524 . S
C2759 C2760 1.397 . S
C2759 C2764 1.363 . S
C2760 H2737 0.950 . S
C2760 C2759 1.397 . S
C2760 C2761 1.334 . S
C2761 H2738 0.950 . S
C2761 C2760 1.334 . S
C2761 C2762 1.287 . S
C2762 C2761 1.287 . S
C2762 C2763 1.524 . S
C2762 H2781 0.913 . S
C2763 H2739 0.950 . S
C2763 C2762 1.524 . S
C2763 C2764 1.415 . S
C2764 H2740 0.950 . S
C2764 C2759 1.363 . S
C2764 C2763 1.415 . S
C2765 H2741 0.951 . S
C2765 C2766 1.366 . S
C2765 C2767 1.388 . S
C2766 C2765 1.366 . S
C2766 C2770 1.385 . S
C2767 H2742 0.951 . S
C2767 C2765 1.388 . S
C2767 C2768 1.366 . S
C2768 C2767 1.366 . S
C2768 C2769 1.414 . S
C2768 C2771 1.499 . S
C2769 H2743 0.950 . S
C2769 C2768 1.414 . S
C2769 C2770 1.374 . S
C2770 H2744 0.950 . S
C2770 C2766 1.385 . S
C2770 C2769 1.374 . S
C2771 C2768 1.499 . S
C2771 C2772 1.373 . S
C2771 C2773 1.389 . S
C2772 H2745 0.950 . S
C2772 C2758 1.377 . S
C2772 C2771 1.373 . S
C2773 C2757 1.377 . S
C2773 C2771 1.389 . S
C2773 C2774 1.524 . S
C2774 C2773 1.524 . S
C2774 C2775 1.397 . S
C2774 C2779 1.363 . S
C2775 H2746 0.950 . S
C2775 C2774 1.397 . S
C2775 C2776 1.334 . S
C2776 H2747 0.950 . S
C2776 C2775 1.334 . S
C2776 C2777 1.287 . S
C2777 C2776 1.287 . S
C2777 C2778 1.524 . S
C2777 H2780 0.999 . S
C2778 H2748 0.950 . S
C2778 C2777 1.524 . S
C2778 C2779 1.415 . S
C2779 H2749 0.950 . S
C2779 C2774 1.363 . S
C2779 C2778 1.415 . S
H2780 C2777 0.999 . S
H2781 C2762 0.913 . S
H2782 C2800 0.951 . S
H2783 C2802 0.951 . S
H2784 C2804 0.950 . S
H2785 C2805 0.950 . S
H2786 C2807 0.950 . S
H2787 C2810 0.950 . S
H2788 C2811 0.950 . S
H2789 C2813 0.950 . S
H2790 C2814 0.950 . S
H2791 C2815 0.951 . S
H2792 C2817 0.951 . S
H2793 C2819 0.950 . S
H2794 C2820 0.950 . S
H2795 C2822 0.950 . S
H2796 C2825 0.950 . S
H2797 C2826 0.950 . S
H2798 C2828 0.950 . S
H2799 C2829 0.950 . S
C2800 H2782 0.951 . S
C2800 C2801 1.366 . S
C2800 C2802 1.388 . S
C2801 C2800 1.366 . S
C2801 C2805 1.385 . S
C2802 H2783 0.951 . S
C2802 C2800 1.388 . S
C2802 C2803 1.366 . S
C2803 C2802 1.366 . S
C2803 C2804 1.414 . S
C2803 C2806 1.499 . S
C2804 H2784 0.950 . S
C2804 C2803 1.414 . S
C2804 C2805 1.374 . S
C2805 H2785 0.950 . S
C2805 C2801 1.385 . S
C2805 C2804 1.374 . S
C2806 C2803 1.499 . S
C2806 C2807 1.373 . S
C2806 C2808 1.389 . S
C2807 H2786 0.950 . S
C2807 C2806 1.373 . S
C2807 C2823 1.377 . S
C2808 C2806 1.389 . S
C2808 C2809 1.524 . S
C2808 C2822 1.377 . S
C2809 C2808 1.524 . S
C2809 C2810 1.397 . S
C2809 C2814 1.363 . S
C2810 H2787 0.950 . S
C2810 C2809 1.397 . S
C2810 C2811 1.334 . S
C2811 H2788 0.950 . S
C2811 C2810 1.334 . S
C2811 C2812 1.287 . S
C2812 C2811 1.287 . S
C2812 C2813 1.524 . S
C2812 H2831 0.913 . S
C2813 H2789 0.950 . S
C2813 C2812 1.524 . S
C2813 C2814 1.415 . S
C2814 H2790 0.950 . S
C2814 C2809 1.363 . S
C2814 C2813 1.415 . S
C2815 H2791 0.951 . S
C2815 C2816 1.366 . S
C2815 C2817 1.388 . S
C2816 C2815 1.366 . S
C2816 C2820 1.385 . S
C2817 H2792 0.951 . S
C2817 C2815 1.388 . S
C2817 C2818 1.366 . S
C2818 C2817 1.366 . S
C2818 C2819 1.414 . S
C2818 C2821 1.499 . S
C2819 H2793 0.950 . S
C2819 C2818 1.414 . S
C2819 C2820 1.374 . S
C2820 H2794 0.950 . S
C2820 C2816 1.385 . S
C2820 C2819 1.374 . S
C2821 C2818 1.499 . S
C2821 C2822 1.373 . S
C2821 C2823 1.389 . S
C2822 H2795 0.950 . S
C2822 C2808 1.377 . S
C2822 C2821 1.373 . S
C2823 C2807 1.377 . S
C2823 C2821 1.389 . S
C2823 C2824 1.524 . S
C2824 C2823 1.524 . S
C2824 C2825 1.397 . S
C2824 C2829 1.363 . S
C2825 H2796 0.950 . S
C2825 C2824 1.397 . S
C2825 C2826 1.334 . S
C2826 H2797 0.950 . S
C2826 C2825 1.334 . S
C2826 C2827 1.287 . S
C2827 C2826 1.287 . S
C2827 C2828 1.524 . S
C2827 H2830 0.999 . S
C2828 H2798 0.950 . S
C2828 C2827 1.524 . S
C2828 C2829 1.415 . S
C2829 H2799 0.950 . S
C2829 C2824 1.363 . S
C2829 C2828 1.415 . S
H2830 C2827 0.999 . S
H2831 C2812 0.913 . S
H2832 C2850 0.951 . S
H2833 C2852 0.951 . S
H2834 C2854 0.950 . S
H2835 C2855 0.950 . S
H2836 C2857 0.950 . S
H2837 C2860 0.950 . S
H2838 C2861 0.950 . S
H2839 C2863 0.950 . S
H2840 C2864 0.950 . S
H2841 C2865 0.951 . S
H2842 C2867 0.951 . S
H2843 C2869 0.950 . S
H2844 C2870 0.950 . S
H2845 C2872 0.950 . S
H2846 C2875 0.950 . S
H2847 C2876 0.950 . S
H2848 C2878 0.950 . S
H2849 C2879 0.950 . S
C2850 H2832 0.951 . S
C2850 C2851 1.366 . S
C2850 C2852 1.388 . S
C2851 C2850 1.366 . S
C2851 C2855 1.385 . S
C2852 H2833 0.951 . S
C2852 C2850 1.388 . S
C2852 C2853 1.366 . S
C2853 C2852 1.366 . S
C2853 C2854 1.414 . S
C2853 C2856 1.499 . S
C2854 H2834 0.950 . S
C2854 C2853 1.414 . S
C2854 C2855 1.374 . S
C2855 H2835 0.950 . S
C2855 C2851 1.385 . S
C2855 C2854 1.374 . S
C2856 C2853 1.499 . S
C2856 C2857 1.373 . S
C2856 C2858 1.389 . S
C2857 H2836 0.950 . S
C2857 C2856 1.373 . S
C2857 C2873 1.377 . S
C2858 C2856 1.389 . S
C2858 C2859 1.524 . S
C2858 C2872 1.377 . S
C2859 C2858 1.524 . S
C2859 C2860 1.397 . S
C2859 C2864 1.363 . S
C2860 H2837 0.950 . S
C2860 C2859 1.397 . S
C2860 C2861 1.334 . S
C2861 H2838 0.950 . S
C2861 C2860 1.334 . S
C2861 C2862 1.287 . S
C2862 C2861 1.287 . S
C2862 C2863 1.524 . S
C2862 H2881 0.913 . S
C2863 H2839 0.950 . S
C2863 C2862 1.524 . S
C2863 C2864 1.415 . S
C2864 H2840 0.950 . S
C2864 C2859 1.363 . S
C2864 C2863 1.415 . S
C2865 H2841 0.951 . S
C2865 C2866 1.366 . S
C2865 C2867 1.388 . S
C2866 C2865 1.366 . S
C2866 C2870 1.385 . S
C2867 H2842 0.951 . S
C2867 C2865 1.388 . S
C2867 C2868 1.366 . S
C2868 C2867 1.366 . S
C2868 C2869 1.414 . S
C2868 C2871 1.499 . S
C2869 H2843 0.950 . S
C2869 C2868 1.414 . S
C2869 C2870 1.374 . S
C2870 H2844 0.950 . S
C2870 C2866 1.385 . S
C2870 C2869 1.374 . S
C2871 C2868 1.499 . S
C2871 C2872 1.373 . S
C2871 C2873 1.389 . S
C2872 H2845 0.950 . S
C2872 C2858 1.377 . S
C2872 C2871 1.373 . S
C2873 C2857 1.377 . S
C2873 C2871 1.389 . S
C2873 C2874 1.524 . S
C2874 C2873 1.524 . S
C2874 C2875 1.397 . S
C2874 C2879 1.363 . S
C2875 H2846 0.950 . S
C2875 C2874 1.397 . S
C2875 C2876 1.334 . S
C2876 H2847 0.950 . S
C2876 C2875 1.334 . S
C2876 C2877 1.287 . S
C2877 C2876 1.287 . S
C2877 C2878 1.524 . S
C2877 H2880 0.999 . S
C2878 H2848 0.950 . S
C2878 C2877 1.524 . S
C2878 C2879 1.415 . S
C2879 H2849 0.950 . S
C2879 C2874 1.363 . S
C2879 C2878 1.415 . S
H2880 C2877 0.999 . S
H2881 C2862 0.913 . S
H2882 C2900 0.951 . S
H2883 C2902 0.951 . S
H2884 C2904 0.950 . S
H2885 C2905 0.950 . S
H2886 C2907 0.950 . S
H2887 C2910 0.950 . S
H2888 C2911 0.950 . S
H2889 C2913 0.950 . S
H2890 C2914 0.950 . S
H2891 C2915 0.951 . S
H2892 C2917 0.951 . S
H2893 C2919 0.950 . S
H2894 C2920 0.950 . S
H2895 C2922 0.950 . S
H2896 C2925 0.950 . S
H2897 C2926 0.950 . S
H2898 C2928 0.950 . S
H2899 C2929 0.950 . S
C2900 H2882 0.951 . S
C2900 C2901 1.366 . S
C2900 C2902 1.388 . S
C2901 C2900 1.366 . S
C2901 C2905 1.385 . S
C2902 H2883 0.951 . S
C2902 C2900 1.388 . S
C2902 C2903 1.366 . S
C2903 C2902 1.366 . S
C2903 C2904 1.414 . S
C2903 C2906 1.499 . S
C2904 H2884 0.950 . S
C2904 C2903 1.414 . S
C2904 C2905 1.374 . S
C2905 H2885 0.950 . S
C2905 C2901 1.385 . S
C2905 C2904 1.374 . S
C2906 C2903 1.499 . S
C2906 C2907 1.373 . S
C2906 C2908 1.389 . S
C2907 H2886 0.950 . S
C2907 C2906 1.373 . S
C2907 C2923 1.377 . S
C2908 C2906 1.389 . S
C2908 C2909 1.524 . S
C2908 C2922 1.377 . S
C2909 C2908 1.524 . S
C2909 C2910 1.397 . S
C2909 C2914 1.363 . S
C2910 H2887 0.950 . S
C2910 C2909 1.397 . S
C2910 C2911 1.334 . S
C2911 H2888 0.950 . S
C2911 C2910 1.334 . S
C2911 C2912 1.287 . S
C2912 C2911 1.287 . S
C2912 C2913 1.524 . S
C2912 H2931 0.913 . S
C2913 H2889 0.950 . S
C2913 C2912 1.524 . S
C2913 C2914 1.415 . S
C2914 H2890 0.950 . S
C2914 C2909 1.363 . S
C2914 C2913 1.415 . S
C2915 H2891 0.951 . S
C2915 C2916 1.366 . S
C2915 C2917 1.388 . S
C2916 C2915 1.366 . S
C2916 C2920 1.385 . S
C2917 H2892 0.951 . S
C2917 C2915 1.388 . S
C2917 C2918 1.366 . S
C2918 C2917 1.366 . S
C2918 C2919 1.414 . S
C2918 C2921 1.499 . S
C2919 H2893 0.950 . S
C2919 C2918 1.414 . S
C2919 C2920 1.374 . S
C2920 H2894 0.950 . S
C2920 C2916 1.385 . S
C2920 C2919 1.374 . S
C2921 C2918 1.499 . S
C2921 C2922 1.373 . S
C2921 C2923 1.389 . S
C2922 H2895 0.950 . S
C2922 C2908 1.377 . S
C2922 C2921 1.373 . S
C2923 C2907 1.377 . S
C2923 C2921 1.389 . S
C2923 C2924 1.524 . S
C2924 C2923 1.524 . S
C2924 C2925 1.397 . S
C2924 C2929 1.363 . S
C2925 H2896 0.950 . S
C2925 C2924 1.397 . S
C2925 C2926 1.334 . S
C2926 H2897 0.950 . S
C2926 C2925 1.334 . S
C2926 C2927 1.287 . S
C2927 C2926 1.287 . S
C2927 C2928 1.524 . S
C2927 H2930 0.999 . S
C2928 H2898 0.950 . S
C2928 C2927 1.524 . S
C2928 C2929 1.415 . S
C2929 H2899 0.950 . S
C2929 C2924 1.363 . S
C2929 C2928 1.415 . S
H2930 C2927 0.999 . S
H2931 C2912 0.913 . S
H2932 C2950 0.951 . S
H2933 C2952 0.951 . S
H2934 C2954 0.950 . S
H2935 C2955 0.950 . S
H2936 C2957 0.950 . S
H2937 C2960 0.950 . S
H2938 C2961 0.950 . S
H2939 C2963 0.950 . S
H2940 C2964 0.950 . S
H2941 C2965 0.951 . S
H2942 C2967 0.951 . S
H2943 C2969 0.950 . S
H2944 C2970 0.950 . S
H2945 C2972 0.950 . S
H2946 C2975 0.950 . S
H2947 C2976 0.950 . S
H2948 C2978 0.950 . S
H2949 C2979 0.950 . S
C2950 H2932 0.951 . S
C2950 C2951 1.366 . S
C2950 C2952 1.388 . S
C2951 C2950 1.366 . S
C2951 C2955 1.385 . S
C2952 H2933 0.951 . S
C2952 C2950 1.388 . S
C2952 C2953 1.366 . S
C2953 C2952 1.366 . S
C2953 C2954 1.414 . S
C2953 C2956 1.499 . S
C2954 H2934 0.950 . S
C2954 C2953 1.414 . S
C2954 C2955 1.374 . S
C2955 H2935 0.950 . S
C2955 C2951 1.385 . S
C2955 C2954 1.374 . S
C2956 C2953 1.499 . S
C2956 C2957 1.373 . S
C2956 C2958 1.389 . S
C2957 H2936 0.950 . S
C2957 C2956 1.373 . S
C2957 C2973 1.377 . S
C2958 C2956 1.389 . S
C2958 C2959 1.524 . S
C2958 C2972 1.377 . S
C2959 C2958 1.524 . S
C2959 C2960 1.397 . S
C2959 C2964 1.363 . S
C2960 H2937 0.950 . S
C2960 C2959 1.397 . S
C2960 C2961 1.334 . S
C2961 H2938 0.950 . S
C2961 C2960 1.334 . S
C2961 C2962 1.287 . S
C2962 C2961 1.287 . S
C2962 C2963 1.524 . S
C2962 H2981 0.913 . S
C2963 H2939 0.950 . S
C2963 C2962 1.524 . S
C2963 C2964 1.415 . S
C2964 H2940 0.950 . S
C2964 C2959 1.363 . S
C2964 C2963 1.415 . S
C2965 H2941 0.951 . S
C2965 C2966 1.366 . S
C2965 C2967 1.388 . S
C2966 C2965 1.366 . S
C2966 C2970 1.385 . S
C2967 H2942 0.951 . S
C2967 C2965 1.388 . S
C2967 C2968 1.366 . S
C2968 C2967 1.366 . S
C2968 C2969 1.414 . S
C2968 C2971 1.499 . S
C2969 H2943 0.950 . S
C2969 C2968 1.414 . S
C2969 C2970 1.374 . S
C2970 H2944 0.950 . S
C2970 C2966 1.385 . S
C2970 C2969 1.374 . S
C2971 C2968 1.499 . S
C2971 C2972 1.373 . S
C2971 C2973 1.389 . S
C2972 H2945 0.950 . S
C2972 C2958 1.377 . S
C2972 C2971 1.373 . S
C2973 C2957 1.377 . S
C2973 C2971 1.389 . S
C2973 C2974 1.524 . S
C2974 C2973 1.524 . S
C2974 C2975 1.397 . S
C2974 C2979 1.363 . S
C2975 H2946 0.950 . S
C2975 C2974 1.397 . S
C2975 C2976 1.334 . S
C2976 H2947 0.950 . S
C2976 C2975 1.334 . S
C2976 C2977 1.287 . S
C2977 C2976 1.287 . S
C2977 C2978 1.524 . S
C2977 H2980 0.999 . S
C2978 H2948 0.950 . S
C2978 C2977 1.524 . S
C2978 C2979 1.415 . S
C2979 H2949 0.950 . S
C2979 C2974 1.363 . S
C2979 C2978 1.415 . S
H2980 C2977 0.999 . S
H2981 C2962 0.913 . S
H2982 C3000 0.951 . S
H2983 C3002 0.951 . S
H2984 C3004 0.950 . S
H2985 C3005 0.950 . S
H2986 C3007 0.950 . S
H2987 C3010 0.950 . S
H2988 C3011 0.950 . S
H2989 C3013 0.950 . S
H2990 C3014 0.950 . S
H2991 C3015 0.951 . S
H2992 C3017 0.951 . S
H2993 C3019 0.950 . S
H2994 C3020 0.950 . S
H2995 C3022 0.950 . S
H2996 C3025 0.950 . S
H2997 C3026 0.950 . S
H2998 C3028 0.950 . S
H2999 C3029 0.950 . S
C3000 H2982 0.951 . S
C3000 C3001 1.366 . S
C3000 C3002 1.388 . S
C3001 C3000 1.366 . S
C3001 C3005 1.385 . S
C3002 H2983 0.951 . S
C3002 C3000 1.388 . S
C3002 C3003 1.366 . S
C3003 C3002 1.366 . S
C3003 C3004 1.414 . S
C3003 C3006 1.499 . S
C3004 H2984 0.950 . S
C3004 C3003 1.414 . S
C3004 C3005 1.374 . S
C3005 H2985 0.950 . S
C3005 C3001 1.385 . S
C3005 C3004 1.374 . S
C3006 C3003 1.499 . S
C3006 C3007 1.373 . S
C3006 C3008 1.389 . S
C3007 H2986 0.950 . S
C3007 C3006 1.373 . S
C3007 C3023 1.377 . S
C3008 C3006 1.389 . S
C3008 C3009 1.524 . S
C3008 C3022 1.377 . S
C3009 C3008 1.524 . S
C3009 C3010 1.397 . S
C3009 C3014 1.363 . S
C3010 H2987 0.950 . S
C3010 C3009 1.397 . S
C3010 C3011 1.334 . S
C3011 H2988 0.950 . S
C3011 C3010 1.334 . S
C3011 C3012 1.287 . S
C3012 C3011 1.287 . S
C3012 C3013 1.524 . S
C3012 H3031 0.913 . S
C3013 H2989 0.950 . S
C3013 C3012 1.524 . S
C3013 C3014 1.415 . S
C3014 H2990 0.950 . S
C3014 C3009 1.363 . S
C3014 C3013 1.415 . S
C3015 H2991 0.951 . S
C3015 C3016 1.366 . S
C3015 C3017 1.388 . S
C3016 C3015 1.366 . S
C3016 C3020 1.385 . S
C3017 H2992 0.951 . S
C3017 C3015 1.388 . S
C3017 C3018 1.366 . S
C3018 C3017 1.366 . S
C3018 C3019 1.414 . S
C3018 C3021 1.499 . S
C3019 H2993 0.950 . S
C3019 C3018 1.414 . S
C3019 C3020 1.374 . S
C3020 H2994 0.950 . S
C3020 C3016 1.385 . S
C3020 C3019 1.374 . S
C3021 C3018 1.499 . S
C3021 C3022 1.373 . S
C3021 C3023 1.389 . S
C3022 H2995 0.950 . S
C3022 C3008 1.377 . S
C3022 C3021 1.373 . S
C3023 C3007 1.377 . S
C3023 C3021 1.389 . S
C3023 C3024 1.524 . S
C3024 C3023 1.524 . S
C3024 C3025 1.397 . S
C3024 C3029 1.363 . S
C3025 H2996 0.950 . S
C3025 C3024 1.397 . S
C3025 C3026 1.334 . S
C3026 H2997 0.950 . S
C3026 C3025 1.334 . S
C3026 C3027 1.287 . S
C3027 C3026 1.287 . S
C3027 C3028 1.524 . S
C3027 H3030 0.999 . S
C3028 H2998 0.950 . S
C3028 C3027 1.524 . S
C3028 C3029 1.415 . S
C3029 H2999 0.950 . S
C3029 C3024 1.363 . S
C3029 C3028 1.415 . S
H3030 C3027 0.999 . S
H3031 C3012 0.913 . S
H3032 C3050 0.951 . S
H3033 C3052 0.951 . S
H3034 C3054 0.950 . S
H3035 C3055 0.950 . S
H3036 C3057 0.950 . S
H3037 C3060 0.950 . S
H3038 C3061 0.950 . S
H3039 C3063 0.950 . S
H3040 C3064 0.950 . S
H3041 C3065 0.951 . S
H3042 C3067 0.951 . S
H3043 C3069 0.950 . S
H3044 C3070 0.950 . S
H3045 C3072 0.950 . S
H3046 C3075 0.950 . S
H3047 C3076 0.950 . S
H3048 C3078 0.950 . S
H3049 C3079 0.950 . S
C3050 H3032 0.951 . S
C3050 C3051 1.366 . S
C3050 C3052 1.388 . S
C3051 C3050 1.366 . S
C3051 C3055 1.385 . S
C3052 H3033 0.951 . S
C3052 C3050 1.388 . S
C3052 C3053 1.366 . S
C3053 C3052 1.366 . S
C3053 C3054 1.414 . S
C3053 C3056 1.499 . S
C3054 H3034 0.950 . S
C3054 C3053 1.414 . S
C3054 C3055 1.374 . S
C3055 H3035 0.950 . S
C3055 C3051 1.385 . S
C3055 C3054 1.374 . S
C3056 C3053 1.499 . S
C3056 C3057 1.373 . S
C3056 C3058 1.389 . S
C3057 H3036 0.950 . S
C3057 C3056 1.373 . S
C3057 C3073 1.377 . S
C3058 C3056 1.389 . S
C3058 C3059 1.524 . S
C3058 C3072 1.377 . S
C3059 C3058 1.524 . S
C3059 C3060 1.397 . S
C3059 C3064 1.363 . S
C3060 H3037 0.950 . S
C3060 C3059 1.397 . S
C3060 C3061 1.334 . S
C3061 H3038 0.950 . S
C3061 C3060 1.334 . S
C3061 C3062 1.287 . S
C3062 C3061 1.287 . S
C3062 C3063 1.524 . S
C3062 H3081 0.913 . S
C3063 H3039 0.950 . S
C3063 C3062 1.524 . S
C3063 C3064 1.415 . S
C3064 H3040 0.950 . S
C3064 C3059 1.363 . S
C3064 C3063 1.415 . S
C3065 H3041 0.951 . S
C3065 C3066 1.366 . S
C3065 C3067 1.388 . S
C3066 C3065 1.366 . S
C3066 C3070 1.385 . S
C3067 H3042 0.951 . S
C3067 C3065 1.388 . S
C3067 C3068 1.366 . S
C3068 C3067 1.366 . S
C3068 C3069 1.414 . S
C3068 C3071 1.499 . S
C3069 H3043 0.950 . S
C3069 C3068 1.414 . S
C3069 C3070 1.374 . S
C3070 H3044 0.950 . S
C3070 C3066 1.385 . S
C3070 C3069 1.374 . S
C3071 C3068 1.499 . S
C3071 C3072 1.373 . S
C3071 C3073 1.389 . S
C3072 H3045 0.950 . S
C3072 C3058 1.377 . S
C3072 C3071 1.373 . S
C3073 C3057 1.377 . S
C3073 C3071 1.389 . S
C3073 C3074 1.524 . S
C3074 C3073 1.524 . S
C3074 C3075 1.397 . S
C3074 C3079 1.363 . S
C3075 H3046 0.950 . S
C3075 C3074 1.397 . S
C3075 C3076 1.334 . S
C3076 H3047 0.950 . S
C3076 C3075 1.334 . S
C3076 C3077 1.287 . S
C3077 C3076 1.287 . S
C3077 C3078 1.524 . S
C3077 H3080 0.999 . S
C3078 H3048 0.950 . S
C3078 C3077 1.524 . S
C3078 C3079 1.415 . S
C3079 H3049 0.950 . S
C3079 C3074 1.363 . S
C3079 C3078 1.415 . S
H3080 C3077 0.999 . S
H3081 C3062 0.913 . S
H3082 C3100 0.951 . S
H3083 C3102 0.951 . S
H3084 C3104 0.950 . S
H3085 C3105 0.950 . S
H3086 C3107 0.950 . S
H3087 C3110 0.950 . S
H3088 C3111 0.950 . S
H3089 C3113 0.950 . S
H3090 C3114 0.950 . S
H3091 C3115 0.951 . S
H3092 C3117 0.951 . S
H3093 C3119 0.950 . S
H3094 C3120 0.950 . S
H3095 C3122 0.950 . S
H3096 C3125 0.950 . S
H3097 C3126 0.950 . S
H3098 C3128 0.950 . S
H3099 C3129 0.950 . S
C3100 H3082 0.951 . S
C3100 C3101 1.366 . S
C3100 C3102 1.388 . S
C3101 C3100 1.366 . S
C3101 C3105 1.385 . S
C3102 H3083 0.951 . S
C3102 C3100 1.388 . S
C3102 C3103 1.366 . S
C3103 C3102 1.366 . S
C3103 C3104 1.414 . S
C3103 C3106 1.499 . S
C3104 H3084 0.950 . S
C3104 C3103 1.414 . S
C3104 C3105 1.374 . S
C3105 H3085 0.950 . S
C3105 C3101 1.385 . S
C3105 C3104 1.374 . S
C3106 C3103 1.499 . S
C3106 C3107 1.373 . S
C3106 C3108 1.389 . S
C3107 H3086 0.950 . S
C3107 C3106 1.373 . S
C3107 C3123 1.377 . S
C3108 C3106 1.389 . S
C3108 C3109 1.524 . S
C3108 C3122 1.377 . S
C3109 C3108 1.524 . S
C3109 C3110 1.397 . S
C3109 C3114 1.363 . S
C3110 H3087 0.950 . S
C3110 C3109 1.397 . S
C3110 C3111 1.334 . S
C3111 H3088 0.950 . S
C3111 C3110 1.334 . S
C3111 C3112 1.287 . S
C3112 C3111 1.287 . S
C3112 C3113 1.524 . S
C3112 H3131 0.913 . S
C3113 H3089 0.950 . S
C3113 C3112 1.524 . S
C3113 C3114 1.415 . S
C3114 H3090 0.950 . S
C3114 C3109 1.363 . S
C3114 C3113 1.415 . S
C3115 H3091 0.951 . S
C3115 C3116 1.366 . S
C3115 C3117 1.388 . S
C3116 C3115 1.366 . S
C3116 C3120 1.385 . S
C3117 H3092 0.951 . S
C3117 C3115 1.388 . S
C3117 C3118 1.366 . S
C3118 C3117 1.366 . S
C3118 C3119 1.414 . S
C3118 C3121 1.499 . S
C3119 H3093 0.950 . S
C3119 C3118 1.414 . S
C3119 C3120 1.374 . S
C3120 H3094 0.950 . S
C3120 C3116 1.385 . S
C3120 C3119 1.374 . S
C3121 C3118 1.499 . S
C3121 C3122 1.373 . S
C3121 C3123 1.389 . S
C3122 H3095 0.950 . S
C3122 C3108 1.377 . S
C3122 C3121 1.373 . S
C3123 C3107 1.377 . S
C3123 C3121 1.389 . S
C3123 C3124 1.524 . S
C3124 C3123 1.524 . S
C3124 C3125 1.397 . S
C3124 C3129 1.363 . S
C3125 H3096 0.950 . S
C3125 C3124 1.397 . S
C3125 C3126 1.334 . S
C3126 H3097 0.950 . S
C3126 C3125 1.334 . S
C3126 C3127 1.287 . S
C3127 C3126 1.287 . S
C3127 C3128 1.524 . S
C3127 H3130 0.999 . S
C3128 H3098 0.950 . S
C3128 C3127 1.524 . S
C3128 C3129 1.415 . S
C3129 H3099 0.950 . S
C3129 C3124 1.363 . S
C3129 C3128 1.415 . S
H3130 C3127 0.999 . S
H3131 C3112 0.913 . S
H3132 C3150 0.951 . S
H3133 C3152 0.951 . S
H3134 C3154 0.950 . S
H3135 C3155 0.950 . S
H3136 C3157 0.950 . S
H3137 C3160 0.950 . S
H3138 C3161 0.950 . S
H3139 C3163 0.950 . S
H3140 C3164 0.950 . S
H3141 C3165 0.951 . S
H3142 C3167 0.951 . S
H3143 C3169 0.950 . S
H3144 C3170 0.950 . S
H3145 C3172 0.950 . S
H3146 C3175 0.950 . S
H3147 C3176 0.950 . S
H3148 C3178 0.950 . S
H3149 C3179 0.950 . S
C3150 H3132 0.951 . S
C3150 C3151 1.366 . S
C3150 C3152 1.388 . S
C3151 C3150 1.366 . S
C3151 C3155 1.385 . S
C3152 H3133 0.951 . S
C3152 C3150 1.388 . S
C3152 C3153 1.366 . S
C3153 C3152 1.366 . S
C3153 C3154 1.414 . S
C3153 C3156 1.499 . S
C3154 H3134 0.950 . S
C3154 C3153 1.414 . S
C3154 C3155 1.374 . S
C3155 H3135 0.950 . S
C3155 C3151 1.385 . S
C3155 C3154 1.374 . S
C3156 C3153 1.499 . S
C3156 C3157 1.373 . S
C3156 C3158 1.389 . S
C3157 H3136 0.950 . S
C3157 C3156 1.373 . S
C3157 C3173 1.377 . S
C3158 C3156 1.389 . S
C3158 C3159 1.524 . S
C3158 C3172 1.377 . S
C3159 C3158 1.524 . S
C3159 C3160 1.397 . S
C3159 C3164 1.363 . S
C3160 H3137 0.950 . S
C3160 C3159 1.397 . S
C3160 C3161 1.334 . S
C3161 H3138 0.950 . S
C3161 C3160 1.334 . S
C3161 C3162 1.287 . S
C3162 C3161 1.287 . S
C3162 C3163 1.524 . S
C3162 H3181 0.913 . S
C3163 H3139 0.950 . S
C3163 C3162 1.524 . S
C3163 C3164 1.415 . S
C3164 H3140 0.950 . S
C3164 C3159 1.363 . S
C3164 C3163 1.415 . S
C3165 H3141 0.951 . S
C3165 C3166 1.366 . S
C3165 C3167 1.388 . S
C3166 C3165 1.366 . S
C3166 C3170 1.385 . S
C3167 H3142 0.951 . S
C3167 C3165 1.388 . S
C3167 C3168 1.366 . S
C3168 C3167 1.366 . S
C3168 C3169 1.414 . S
C3168 C3171 1.499 . S
C3169 H3143 0.950 . S
C3169 C3168 1.414 . S
C3169 C3170 1.374 . S
C3170 H3144 0.950 . S
C3170 C3166 1.385 . S
C3170 C3169 1.374 . S
C3171 C3168 1.499 . S
C3171 C3172 1.373 . S
C3171 C3173 1.389 . S
C3172 H3145 0.950 . S
C3172 C3158 1.377 . S
C3172 C3171 1.373 . S
C3173 C3157 1.377 . S
C3173 C3171 1.389 . S
C3173 C3174 1.524 . S
C3174 C3173 1.524 . S
C3174 C3175 1.397 . S
C3174 C3179 1.363 . S
C3175 H3146 0.950 . S
C3175 C3174 1.397 . S
C3175 C3176 1.334 . S
C3176 H3147 0.950 . S
C3176 C3175 1.334 . S
C3176 C3177 1.287 . S
C3177 C3176 1.287 . S
C3177 C3178 1.524 . S
C3177 H3180 0.999 . S
C3178 H3148 0.950 . S
C3178 C3177 1.524 . S
C3178 C3179 1.415 . S
C3179 H3149 0.950 . S
C3179 C3174 1.363 . S
C3179 C3178 1.415 . S
H3180 C3177 0.999 . S
H3181 C3162 0.913 . S
H3182 C3200 0.951 . S
H3183 C3202 0.951 . S
H3184 C3204 0.950 . S
H3185 C3205 0.950 . S
H3186 C3207 0.950 . S
H3187 C3210 0.950 . S
H3188 C3211 0.950 . S
H3189 C3213 0.950 . S
H3190 C3214 0.950 . S
H3191 C3215 0.951 . S
H3192 C3217 0.951 . S
H3193 C3219 0.950 . S
H3194 C3220 0.950 . S
H3195 C3222 0.950 . S
H3196 C3225 0.950 . S
H3197 C3226 0.950 . S
H3198 C3228 0.950 . S
H3199 C3229 0.950 . S
C3200 H3182 0.951 . S
C3200 C3201 1.366 . S
C3200 C3202 1.388 . S
C3201 C3200 1.366 . S
C3201 C3205 1.385 . S
C3202 H3183 0.951 . S
C3202 C3200 1.388 . S
C3202 C3203 1.366 . S
C3203 C3202 1.366 . S
C3203 C3204 1.414 . S
C3203 C3206 1.499 . S
C3204 H3184 0.950 . S
C3204 C3203 1.414 . S
C3204 C3205 1.374 . S
C3205 H3185 0.950 . S
C3205 C3201 1.385 . S
C3205 C3204 1.374 . S
C3206 C3203 1.499 . S
C3206 C3207 1.373 . S
C3206 C3208 1.389 . S
C3207 H3186 0.950 . S
C3207 C3206 1.373 . S
C3207 C3223 1.377 . S
C3208 C3206 1.389 . S
C3208 C3209 1.524 . S
C3208 C3222 1.377 . S
C3209 C3208 1.524 . S
C3209 C3210 1.397 . S
C3209 C3214 1.363 . S
C3210 H3187 0.950 . S
C3210 C3209 1.397 . S
C3210 C3211 1.334 . S
C3211 H3188 0.950 . S
C3211 C3210 1.334 . S
C3211 C3212 1.287 . S
C3212 C3211 1.287 . S
C3212 C3213 1.524 . S
C3212 H3231 0.913 . S
C3213 H3189 0.950 . S
C3213 C3212 1.524 . S
C3213 C3214 1.415 . S
C3214 H3190 0.950 . S
C3214 C3209 1.363 . S
C3214 C3213 1.415 . S
C3215 H3191 0.951 . S
C3215 C3216 1.366 . S
C3215 C3217 1.388 . S
C3216 C3215 1.366 . S
C3216 C3220 1.385 . S
C3217 H3192 0.951 . S
C3217 C3215 1.388 . S
C3217 C3218 1.366 . S
C3218 C3217 1.366 . S
C3218 C3219 1.414 . S
C3218 C3221 1.499 . S
C3219 H3193 0.950 . S
C3219 C3218 1.414 . S
C3219 C3220 1.374 . S
C3220 H3194 0.950 . S
C3220 C3216 1.385 . S
C3220 C3219 1.374 . S
C3221 C3218 1.499 . S
C3221 C3222 1.373 . S
C3221 C3223 1.389 . S
C3222 H3195 0.950 . S
C3222 C3208 1.377 . S
C3222 C3221 1.373 . S
C3223 C3207 1.377 . S
C3223 C3221 1.389 . S
C3223 C3224 1.524 . S
C3224 C3223 1.524 . S
C3224 C3225 1.397 . S
C3224 C3229 1.363 . S
C3225 H3196 0.950 . S
C3225 C3224 1.397 . S
C3225 C3226 1.334 . S
C3226 H3197 0.950 . S
C3226 C3225 1.334 . S
C3226 C3227 1.287 . S
C3227 C3226 1.287 . S
C3227 C3228 1.524 . S
C3227 H3230 0.999 . S
C3228 H3198 0.950 . S
C3228 C3227 1.524 . S
C3228 C3229 1.415 . S
C3229 H3199 0.950 . S
C3229 C3224 1.363 . S
C3229 C3228 1.415 . S
H3230 C3227 0.999 . S
H3231 C3212 0.913 . S
H3232 C3250 0.951 . S
H3233 C3252 0.951 . S
H3234 C3254 0.950 . S
H3235 C3255 0.950 . S
H3236 C3257 0.950 . S
H3237 C3260 0.950 . S
H3238 C3261 0.950 . S
H3239 C3263 0.950 . S
H3240 C3264 0.950 . S
H3241 C3265 0.951 . S
H3242 C3267 0.951 . S
H3243 C3269 0.950 . S
H3244 C3270 0.950 . S
H3245 C3272 0.950 . S
H3246 C3275 0.950 . S
H3247 C3276 0.950 . S
H3248 C3278 0.950 . S
H3249 C3279 0.950 . S
C3250 H3232 0.951 . S
C3250 C3251 1.366 . S
C3250 C3252 1.388 . S
C3251 C3250 1.366 . S
C3251 C3255 1.385 . S
C3252 H3233 0.951 . S
C3252 C3250 1.388 . S
C3252 C3253 1.366 . S
C3253 C3252 1.366 . S
C3253 C3254 1.414 . S
C3253 C3256 1.499 . S
C3254 H3234 0.950 . S
C3254 C3253 1.414 . S
C3254 C3255 1.374 . S
C3255 H3235 0.950 . S
C3255 C3251 1.385 . S
C3255 C3254 1.374 . S
C3256 C3253 1.499 . S
C3256 C3257 1.373 . S
C3256 C3258 1.389 . S
C3257 H3236 0.950 . S
C3257 C3256 1.373 . S
C3257 C3273 1.377 . S
C3258 C3256 1.389 . S
C3258 C3259 1.524 . S
C3258 C3272 1.377 . S
C3259 C3258 1.524 . S
C3259 C3260 1.397 . S
C3259 C3264 1.363 . S
C3260 H3237 0.950 . S
C3260 C3259 1.397 . S
C3260 C3261 1.334 . S
C3261 H3238 0.950 . S
C3261 C3260 1.334 . S
C3261 C3262 1.287 . S
C3262 C3261 1.287 . S
C3262 C3263 1.524 . S
C3262 H3281 0.913 . S
C3263 H3239 0.950 . S
C3263 C3262 1.524 . S
C3263 C3264 1.415 . S
C3264 H3240 0.950 . S
C3264 C3259 1.363 . S
C3264 C3263 1.415 . S
C3265 H3241 0.951 . S
C3265 C3266 1.366 . S
C3265 C3267 1.388 . S
C3266 C3265 1.366 . S
C3266 C3270 1.385 . S
C3267 H3242 0.951 . S
C3267 C3265 1.388 . S
C3267 C3268 1.366 . S
C3268 C3267 1.366 . S
C3268 C3269 1.414 . S
C3268 C3271 1.499 . S
C3269 H3243 0.950 . S
C3269 C3268 1.414 . S
C3269 C3270 1.374 . S
C3270 H3244 0.950 . S
C3270 C3266 1.385 . S
C3270 C3269 1.374 . S
C3271 C3268 1.499 . S
C3271 C3272 1.373 . S
C3271 C3273 1.389 . S
C3272 H3245 0.950 . S
C3272 C3258 1.377 . S
C3272 C3271 1.373 . S
C3273 C3257 1.377 . S
C3273 C3271 1.389 . S
C3273 C3274 1.524 . S
C3274 C3273 1.524 . S
C3274 C3275 1.397 . S
C3274 C3279 1.363 . S
C3275 H3246 0.950 . S
C3275 C3274 1.397 . S
C3275 C3276 1.334 . S
C3276 H3247 0.950 . S
C3276 C3275 1.334 . S
C3276 C3277 1.287 . S
C3277 C3276 1.287 . S
C3277 C3278 1.524 . S
C3277 H3280 0.999 . S
C3278 H3248 0.950 . S
C3278 C3277 1.524 . S
C3278 C3279 1.415 . S
C3279 H3249 0.950 . S
C3279 C3274 1.363 . S
C3279 C3278 1.415 . S
H3280 C3277 0.999 . S
H3281 C3262 0.913 . S
H3282 C3300 0.951 . S
H3283 C3302 0.951 . S
H3284 C3304 0.950 . S
H3285 C3305 0.950 . S
H3286 C3307 0.950 . S
H3287 C3310 0.950 . S
H3288 C3311 0.950 . S
H3289 C3313 0.950 . S
H3290 C3314 0.950 . S
H3291 C3315 0.951 . S
H3292 C3317 0.951 . S
H3293 C3319 0.950 . S
H3294 C3320 0.950 . S
H3295 C3322 0.950 . S
H3296 C3325 0.950 . S
H3297 C3326 0.950 . S
H3298 C3328 0.950 . S
H3299 C3329 0.950 . S
C3300 H3282 0.951 . S
C3300 C3301 1.366 . S
C3300 C3302 1.388 . S
C3301 C3300 1.366 . S
C3301 C3305 1.385 . S
C3302 H3283 0.951 . S
C3302 C3300 1.388 . S
C3302 C3303 1.366 . S
C3303 C3302 1.366 . S
C3303 C3304 1.414 . S
C3303 C3306 1.499 . S
C3304 H3284 0.950 . S
C3304 C3303 1.414 . S
C3304 C3305 1.374 . S
C3305 H3285 0.950 . S
C3305 C3301 1.385 . S
C3305 C3304 1.374 . S
C3306 C3303 1.499 . S
C3306 C3307 1.373 . S
C3306 C3308 1.389 . S
C3307 H3286 0.950 . S
C3307 C3306 1.373 . S
C3307 C3323 1.377 . S
C3308 C3306 1.389 . S
C3308 C3309 1.524 . S
C3308 C3322 1.377 . S
C3309 C3308 1.524 . S
C3309 C3310 1.397 . S
C3309 C3314 1.363 . S
C3310 H3287 0.950 . S
C3310 C3309 1.397 . S
C3310 C3311 1.334 . S
C3311 H3288 0.950 . S
C3311 C3310 1.334 . S
C3311 C3312 1.287 . S
C3312 C3311 1.287 . S
C3312 C3313 1.524 . S
C3312 H3331 0.913 . S
C3313 H3289 0.950 . S
C3313 C3312 1.524 . S
C3313 C3314 1.415 . S
C3314 H3290 0.950 . S
C3314 C3309 1.363 . S
C3314 C3313 1.415 . S
C3315 H3291 0.951 . S
C3315 C3316 1.366 . S
C3315 C3317 1.388 . S
C3316 C3315 1.366 . S
C3316 C3320 1.385 . S
C3317 H3292 0.951 . S
C3317 C3315 1.388 . S
C3317 C3318 1.366 . S
C3318 C3317 1.366 . S
C3318 C3319 1.414 . S
C3318 C3321 1.499 . S
C3319 H3293 0.950 . S
C3319 C3318 1.414 . S
C3319 C3320 1.374 . S
C3320 H3294 0.950 . S
C3320 C3316 1.385 . S
C3320 C3319 1.374 . S
C3321 C3318 1.499 . S
C3321 C3322 1.373 . S
C3321 C3323 1.389 . S
C3322 H3295 0.950 . S
C3322 C3308 1.377 . S
C3322 C3321 1.373 . S
C3323 C3307 1.377 . S
C3323 C3321 1.389 . S
C3323 C3324 1.524 . S
C3324 C3323 1.524 . S
C3324 C3325 1.397 . S
C3324 C3329 1.363 . S
C3325 H3296 0.950 . S
C3325 C3324 1.397 . S
C3325 C3326 1.334 . S
C3326 H3297 0.950 . S
C3326 C3325 1.334 . S
C3326 C3327 1.287 . S
C3327 C3326 1.287 . S
C3327 C3328 1.524 . S
C3327 H3330 0.999 . S
C3328 H3298 0.950 . S
C3328 C3327 1.524 . S
C3328 C3329 1.415 . S
C3329 H3299 0.950 . S
C3329 C3324 1.363 . S
C3329 C3328 1.415 . S
H3330 C3327 0.999 . S
H3331 C3312 0.913 . S
H3332 C3350 0.951 . S
H3333 C3352 0.951 . S
H3334 C3354 0.950 . S
H3335 C3355 0.950 . S
H3336 C3357 0.950 . S
H3337 C3360 0.950 . S
H3338 C3361 0.950 . S
H3339 C3363 0.950 . S
H3340 C3364 0.950 . S
H3341 C3365 0.951 . S
H3342 C3367 0.951 . S
H3343 C3369 0.950 . S
H3344 C3370 0.950 . S
H3345 C3372 0.950 . S
H3346 C3375 0.950 . S
H3347 C3376 0.950 . S
H3348 C3378 0.950 . S
H3349 C3379 0.950 . S
C3350 H3332 0.951 . S
C3350 C3351 1.366 . S
C3350 C3352 1.388 . S
C3351 C3350 1.366 . S
C3351 C3355 1.385 . S
C3352 H3333 0.951 . S
C3352 C3350 1.388 . S
C3352 C3353 1.366 . S
C3353 C3352 1.366 . S
C3353 C3354 1.414 . S
C3353 C3356 1.499 . S
C3354 H3334 0.950 . S
C3354 C3353 1.414 . S
C3354 C3355 1.374 . S
C3355 H3335 0.950 . S
C3355 C3351 1.385 . S
C3355 C3354 1.374 . S
C3356 C3353 1.499 . S
C3356 C3357 1.373 . S
C3356 C3358 1.389 . S
C3357 H3336 0.950 . S
C3357 C3356 1.373 . S
C3357 C3373 1.377 . S
C3358 C3356 1.389 . S
C3358 C3359 1.524 . S
C3358 C3372 1.377 . S
C3359 C3358 1.524 . S
C3359 C3360 1.397 . S
C3359 C3364 1.363 . S
C3360 H3337 0.950 . S
C3360 C3359 1.397 . S
C3360 C3361 1.334 . S
C3361 H3338 0.950 . S
C3361 C3360 1.334 . S
C3361 C3362 1.287 . S
C3362 C3361 1.287 . S
C3362 C3363 1.524 . S
C3362 H3381 0.913 . S
C3363 H3339 0.950 . S
C3363 C3362 1.524 . S
C3363 C3364 1.415 . S
C3364 H3340 0.950 . S
C3364 C3359 1.363 . S
C3364 C3363 1.415 . S
C3365 H3341 0.951 . S
C3365 C3366 1.366 . S
C3365 C3367 1.388 . S
C3366 C3365 1.366 . S
C3366 C3370 1.385 . S
C3367 H3342 0.951 . S
C3367 C3365 1.388 . S
C3367 C3368 1.366 . S
C3368 C3367 1.366 . S
C3368 C3369 1.414 . S
C3368 C3371 1.499 . S
C3369 H3343 0.950 . S
C3369 C3368 1.414 . S
C3369 C3370 1.374 . S
C3370 H3344 0.950 . S
C3370 C3366 1.385 . S
C3370 C3369 1.374 . S
C3371 C3368 1.499 . S
C3371 C3372 1.373 . S
C3371 C3373 1.389 . S
C3372 H3345 0.950 . S
C3372 C3358 1.377 . S
C3372 C3371 1.373 . S
C3373 C3357 1.377 . S
C3373 C3371 1.389 . S
C3373 C3374 1.524 . S
C3374 C3373 1.524 . S
C3374 C3375 1.397 . S
C3374 C3379 1.363 . S
C3375 H3346 0.950 . S
C3375 C3374 1.397 . S
C3375 C3376 1.334 . S
C3376 H3347 0.950 . S
C3376 C3375 1.334 . S
C3376 C3377 1.287 . S
C3377 C3376 1.287 . S
C3377 C3378 1.524 . S
C3377 H3380 0.999 . S
C3378 H3348 0.950 . S
C3378 C3377 1.524 . S
C3378 C3379 1.415 . S
C3379 H3349 0.950 . S
C3379 C3374 1.363 . S
C3379 C3378 1.415 . S
H3380 C3377 0.999 . S
H3381 C3362 0.913 . S
H3382 C3400 0.951 . S
H3383 C3402 0.951 . S
H3384 C3404 0.950 . S
H3385 C3405 0.950 . S
H3386 C3407 0.950 . S
H3387 C3410 0.950 . S
H3388 C3411 0.950 . S
H3389 C3413 0.950 . S
H3390 C3414 0.950 . S
H3391 C3415 0.951 . S
H3392 C3417 0.951 . S
H3393 C3419 0.950 . S
H3394 C3420 0.950 . S
H3395 C3422 0.950 . S
H3396 C3425 0.950 . S
H3397 C3426 0.950 . S
H3398 C3428 0.950 . S
H3399 C3429 0.950 . S
C3400 H3382 0.951 . S
C3400 C3401 1.366 . S
C3400 C3402 1.388 . S
C3401 C3400 1.366 . S
C3401 C3405 1.385 . S
C3402 H3383 0.951 . S
C3402 C3400 1.388 . S
C3402 C3403 1.366 . S
C3403 C3402 1.366 . S
C3403 C3404 1.414 . S
C3403 C3406 1.499 . S
C3404 H3384 0.950 . S
C3404 C3403 1.414 . S
C3404 C3405 1.374 . S
C3405 H3385 0.950 . S
C3405 C3401 1.385 . S
C3405 C3404 1.374 . S
C3406 C3403 1.499 . S
C3406 C3407 1.373 . S
C3406 C3408 1.389 . S
C3407 H3386 0.950 . S
C3407 C3406 1.373 . S
C3407 C3423 1.377 . S
C3408 C3406 1.389 . S
C3408 C3409 1.524 . S
C3408 C3422 1.377 . S
C3409 C3408 1.524 . S
C3409 C3410 1.397 . S
C3409 C3414 1.363 . S
C3410 H3387 0.950 . S
C3410 C3409 1.397 . S
C3410 C3411 1.334 . S
C3411 H3388 0.950 . S
C3411 C3410 1.334 . S
C3411 C3412 1.287 . S
C3412 C3411 1.287 . S
C3412 C3413 1.524 . S
C3412 H3431 0.913 . S
C3413 H3389 0.950 . S
C3413 C3412 1.524 . S
C3413 C3414 1.415 . S
C3414 H3390 0.950 . S
C3414 C3409 1.363 . S
C3414 C3413 1.415 . S
C3415 H3391 0.951 . S
C3415 C3416 1.366 . S
C3415 C3417 1.388 . S
C3416 C3415 1.366 . S
C3416 C3420 1.385 . S
C3417 H3392 0.951 . S
C3417 C3415 1.388 . S
C3417 C3418 1.366 . S
C3418 C3417 1.366 . S
C3418 C3419 1.414 . S
C3418 C3421 1.499 . S
C3419 H3393 0.950 . S
C3419 C3418 1.414 . S
C3419 C3420 1.374 . S
C3420 H3394 0.950 . S
C3420 C3416 1.385 . S
C3420 C3419 1.374 . S
C3421 C3418 1.499 . S
C3421 C3422 1.373 . S
C3421 C3423 1.389 . S
C3422 H3395 0.950 . S
C3422 C3408 1.377 . S
C3422 C3421 1.373 . S
C3423 C3407 1.377 . S
C3423 C3421 1.389 . S
C3423 C3424 1.524 . S
C3424 C3423 1.524 . S
C3424 C3425 1.397 . S
C3424 C3429 1.363 . S
C3425 H3396 0.950 . S
C3425 C3424 1.397 . S
C3425 C3426 1.334 . S
C3426 H3397 0.950 . S
C3426 C3425 1.334 . S
C3426 C3427 1.287 . S
C3427 C3426 1.287 . S
C3427 C3428 1.524 . S
C3427 H3430 0.999 . S
C3428 H3398 0.950 . S
C3428 C3427 1.524 . S
C3428 C3429 1.415 . S
C3429 H3399 0.950 . S
C3429 C3424 1.363 . S
C3429 C3428 1.415 . S
H3430 C3427 0.999 . S
H3431 C3412 0.913 . S
H3432 C3450 0.951 . S
H3433 C3452 0.951 . S
H3434 C3454 0.950 . S
H3435 C3455 0.950 . S
H3436 C3457 0.950 . S
H3437 C3460 0.950 . S
H3438 C3461 0.950 . S
H3439 C3463 0.950 . S
H3440 C3464 0.950 . S
H3441 C3465 0.951 . S
H3442 C3467 0.951 . S
H3443 C3469 0.950 . S
H3444 C3470 0.950 . S
H3445 C3472 0.950 . S
H3446 C3475 0.950 . S
H3447 C3476 0.950 . S
H3448 C3478 0.950 . S
H3449 C3479 0.950 . S
C3450 H3432 0.951 . S
C3450 C3451 1.366 . S
C3450 C3452 1.388 . S
C3451 C3450 1.366 . S
C3451 C3455 1.385 . S
C3452 H3433 0.951 . S
C3452 C3450 1.388 . S
C3452 C3453 1.366 . S
C3453 C3452 1.366 . S
C3453 C3454 1.414 . S
C3453 C3456 1.499 . S
C3454 H3434 0.950 . S
C3454 C3453 1.414 . S
C3454 C3455 1.374 . S
C3455 H3435 0.950 . S
C3455 C3451 1.385 . S
C3455 C3454 1.374 . S
C3456 C3453 1.499 . S
C3456 C3457 1.373 . S
C3456 C3458 1.389 . S
C3457 H3436 0.950 . S
C3457 C3456 1.373 . S
C3457 C3473 1.377 . S
C3458 C3456 1.389 . S
C3458 C3459 1.524 . S
C3458 C3472 1.377 . S
C3459 C3458 1.524 . S
C3459 C3460 1.397 . S
C3459 C3464 1.363 . S
C3460 H3437 0.950 . S
C3460 C3459 1.397 . S
C3460 C3461 1.334 . S
C3461 H3438 0.950 . S
C3461 C3460 1.334 . S
C3461 C3462 1.287 . S
C3462 C3461 1.287 . S
C3462 C3463 1.524 . S
C3462 H3481 0.913 . S
C3463 H3439 0.950 . S
C3463 C3462 1.524 . S
C3463 C3464 1.415 . S
C3464 H3440 0.950 . S
C3464 C3459 1.363 . S
C3464 C3463 1.415 . S
C3465 H3441 0.951 . S
C3465 C3466 1.366 . S
C3465 C3467 1.388 . S
C3466 C3465 1.366 . S
C3466 C3470 1.385 . S
C3467 H3442 0.951 . S
C3467 C3465 1.388 . S
C3467 C3468 1.366 . S
C3468 C3467 1.366 . S
C3468 C3469 1.414 . S
C3468 C3471 1.499 . S
C3469 H3443 0.950 . S
C3469 C3468 1.414 . S
C3469 C3470 1.374 . S
C3470 H3444 0.950 . S
C3470 C3466 1.385 . S
C3470 C3469 1.374 . S
C3471 C3468 1.499 . S
C3471 C3472 1.373 . S
C3471 C3473 1.389 . S
C3472 H3445 0.950 . S
C3472 C3458 1.377 . S
C3472 C3471 1.373 . S
C3473 C3457 1.377 . S
C3473 C3471 1.389 . S
C3473 C3474 1.524 . S
C3474 C3473 1.524 . S
C3474 C3475 1.397 . S
C3474 C3479 1.363 . S
C3475 H3446 0.950 . S
C3475 C3474 1.397 . S
C3475 C3476 1.334 . S
C3476 H3447 0.950 . S
C3476 C3475 1.334 . S
C3476 C3477 1.287 . S
C3477 C3476 1.287 . S
C3477 C3478 1.524 . S
C3477 H3480 0.999 . S
C3478 H3448 0.950 . S
C3478 C3477 1.524 . S
C3478 C3479 1.415 . S
C3479 H3449 0.950 . S
C3479 C3474 1.363 . S
C3479 C3478 1.415 . S
H3480 C3477 0.999 . S
H3481 C3462 0.913 . S
H3482 C3500 0.951 . S
H3483 C3502 0.951 . S
H3484 C3504 0.950 . S
H3485 C3505 0.950 . S
H3486 C3507 0.950 . S
H3487 C3510 0.950 . S
H3488 C3511 0.950 . S
H3489 C3513 0.950 . S
H3490 C3514 0.950 . S
H3491 C3515 0.951 . S
H3492 C3517 0.951 . S
H3493 C3519 0.950 . S
H3494 C3520 0.950 . S
H3495 C3522 0.950 . S
H3496 C3525 0.950 . S
H3497 C3526 0.950 . S
H3498 C3528 0.950 . S
H3499 C3529 0.950 . S
C3500 H3482 0.951 . S
C3500 C3501 1.366 . S
C3500 C3502 1.388 . S
C3501 C3500 1.366 . S
C3501 C3505 1.385 . S
C3502 H3483 0.951 . S
C3502 C3500 1.388 . S
C3502 C3503 1.366 . S
C3503 C3502 1.366 . S
C3503 C3504 1.414 . S
C3503 C3506 1.499 . S
C3504 H3484 0.950 . S
C3504 C3503 1.414 . S
C3504 C3505 1.374 . S
C3505 H3485 0.950 . S
C3505 C3501 1.385 . S
C3505 C3504 1.374 . S
C3506 C3503 1.499 . S
C3506 C3507 1.373 . S
C3506 C3508 1.389 . S
C3507 H3486 0.950 . S
C3507 C3506 1.373 . S
C3507 C3523 1.377 . S
C3508 C3506 1.389 . S
C3508 C3509 1.524 . S
C3508 C3522 1.377 . S
C3509 C3508 1.524 . S
C3509 C3510 1.397 . S
C3509 C3514 1.363 . S
C3510 H3487 0.950 . S
C3510 C3509 1.397 . S
C3510 C3511 1.334 . S
C3511 H3488 0.950 . S
C3511 C3510 1.334 . S
C3511 C3512 1.287 . S
C3512 C3511 1.287 . S
C3512 C3513 1.524 . S
C3512 H3531 0.913 . S
C3513 H3489 0.950 . S
C3513 C3512 1.524 . S
C3513 C3514 1.415 . S
C3514 H3490 0.950 . S
C3514 C3509 1.363 . S
C3514 C3513 1.415 . S
C3515 H3491 0.951 . S
C3515 C3516 1.366 . S
C3515 C3517 1.388 . S
C3516 C3515 1.366 . S
C3516 C3520 1.385 . S
C3517 H3492 0.951 . S
C3517 C3515 1.388 . S
C3517 C3518 1.366 . S
C3518 C3517 1.366 . S
C3518 C3519 1.414 . S
C3518 C3521 1.499 . S
C3519 H3493 0.950 . S
C3519 C3518 1.414 . S
C3519 C3520 1.374 . S
C3520 H3494 0.950 . S
C3520 C3516 1.385 . S
C3520 C3519 1.374 . S
C3521 C3518 1.499 . S
C3521 C3522 1.373 . S
C3521 C3523 1.389 . S
C3522 H3495 0.950 . S
C3522 C3508 1.377 . S
C3522 C3521 1.373 . S
C3523 C3507 1.377 . S
C3523 C3521 1.389 . S
C3523 C3524 1.524 . S
C3524 C3523 1.524 . S
C3524 C3525 1.397 . S
C3524 C3529 1.363 . S
C3525 H3496 0.950 . S
C3525 C3524 1.397 . S
C3525 C3526 1.334 . S
C3526 H3497 0.950 . S
C3526 C3525 1.334 . S
C3526 C3527 1.287 . S
C3527 C3526 1.287 . S
C3527 C3528 1.524 . S
C3527 H3530 0.999 . S
C3528 H3498 0.950 . S
C3528 C3527 1.524 . S
C3528 C3529 1.415 . S
C3529 H3499 0.950 . S
C3529 C3524 1.363 . S
C3529 C3528 1.415 . S
H3530 C3527 0.999 . S
H3531 C3512 0.913 . S
H3532 C3550 0.951 . S
H3533 C3552 0.951 . S
H3534 C3554 0.950 . S
H3535 C3555 0.950 . S
H3536 C3557 0.950 . S
H3537 C3560 0.950 . S
H3538 C3561 0.950 . S
H3539 C3563 0.950 . S
H3540 C3564 0.950 . S
H3541 C3565 0.951 . S
H3542 C3567 0.951 . S
H3543 C3569 0.950 . S
H3544 C3570 0.950 . S
H3545 C3572 0.950 . S
H3546 C3575 0.950 . S
H3547 C3576 0.950 . S
H3548 C3578 0.950 . S
H3549 C3579 0.950 . S
C3550 H3532 0.951 . S
C3550 C3551 1.366 . S
C3550 C3552 1.388 . S
C3551 C3550 1.366 . S
C3551 C3555 1.385 . S
C3552 H3533 0.951 . S
C3552 C3550 1.388 . S
C3552 C3553 1.366 . S
C3553 C3552 1.366 . S
C3553 C3554 1.414 . S
C3553 C3556 1.499 . S
C3554 H3534 0.950 . S
C3554 C3553 1.414 . S
C3554 C3555 1.374 . S
C3555 H3535 0.950 . S
C3555 C3551 1.385 . S
C3555 C3554 1.374 . S
C3556 C3553 1.499 . S
C3556 C3557 1.373 . S
C3556 C3558 1.389 . S
C3557 H3536 0.950 . S
C3557 C3556 1.373 . S
C3557 C3573 1.377 . S
C3558 C3556 1.389 . S
C3558 C3559 1.524 . S
C3558 C3572 1.377 . S
C3559 C3558 1.524 . S
C3559 C3560 1.397 . S
C3559 C3564 1.363 . S
C3560 H3537 0.950 . S
C3560 C3559 1.397 . S
C3560 C3561 1.334 . S
C3561 H3538 0.950 . S
C3561 C3560 1.334 . S
C3561 C3562 1.287 . S
C3562 C3561 1.287 . S
C3562 C3563 1.524 . S
C3562 H3581 0.913 . S
C3563 H3539 0.950 . S
C3563 C3562 1.524 . S
C3563 C3564 1.415 . S
C3564 H3540 0.950 . S
C3564 C3559 1.363 . S
C3564 C3563 1.415 . S
C3565 H3541 0.951 . S
C3565 C3566 1.366 . S
C3565 C3567 1.388 . S
C3566 C3565 1.366 . S
C3566 C3570 1.385 . S
C3567 H3542 0.951 . S
C3567 C3565 1.388 . S
C3567 C3568 1.366 . S
C3568 C3567 1.366 . S
C3568 C3569 1.414 . S
C3568 C3571 1.499 . S
C3569 H3543 0.950 . S
C3569 C3568 1.414 . S
C3569 C3570 1.374 . S
C3570 H3544 0.950 . S
C3570 C3566 1.385 . S
C3570 C3569 1.374 . S
C3571 C3568 1.499 . S
C3571 C3572 1.373 . S
C3571 C3573 1.389 . S
C3572 H3545 0.950 . S
C3572 C3558 1.377 . S
C3572 C3571 1.373 . S
C3573 C3557 1.377 . S
C3573 C3571 1.389 . S
C3573 C3574 1.524 . S
C3574 C3573 1.524 . S
C3574 C3575 1.397 . S
C3574 C3579 1.363 . S
C3575 H3546 0.950 . S
C3575 C3574 1.397 . S
C3575 C3576 1.334 . S
C3576 H3547 0.950 . S
C3576 C3575 1.334 . S
C3576 C3577 1.287 . S
C3577 C3576 1.287 . S
C3577 C3578 1.524 . S
C3577 H3580 0.999 . S
C3578 H3548 0.950 . S
C3578 C3577 1.524 . S
C3578 C3579 1.415 . S
C3579 H3549 0.950 . S
C3579 C3574 1.363 . S
C3579 C3578 1.415 . S
H3580 C3577 0.999 . S
H3581 C3562 0.913 . S
H3582 C3600 0.951 . S
H3583 C3602 0.951 . S
H3584 C3604 0.950 . S
H3585 C3605 0.950 . S
H3586 C3607 0.950 . S
H3587 C3610 0.950 . S
H3588 C3611 0.950 . S
H3589 C3613 0.950 . S
H3590 C3614 0.950 . S
H3591 C3615 0.951 . S
H3592 C3617 0.951 . S
H3593 C3619 0.950 . S
H3594 C3620 0.950 . S
H3595 C3622 0.950 . S
H3596 C3625 0.950 . S
H3597 C3626 0.950 . S
H3598 C3628 0.950 . S
H3599 C3629 0.950 . S
C3600 H3582 0.951 . S
C3600 C3601 1.366 . S
C3600 C3602 1.388 . S
C3601 C3600 1.366 . S
C3601 C3605 1.385 . S
C3602 H3583 0.951 . S
C3602 C3600 1.388 . S
C3602 C3603 1.366 . S
C3603 C3602 1.366 . S
C3603 C3604 1.414 . S
C3603 C3606 1.499 . S
C3604 H3584 0.950 . S
C3604 C3603 1.414 . S
C3604 C3605 1.374 . S
C3605 H3585 0.950 . S
C3605 C3601 1.385 . S
C3605 C3604 1.374 . S
C3606 C3603 1.499 . S
C3606 C3607 1.373 . S
C3606 C3608 1.389 . S
C3607 H3586 0.950 . S
C3607 C3606 1.373 . S
C3607 C3623 1.377 . S
C3608 C3606 1.389 . S
C3608 C3609 1.524 . S
C3608 C3622 1.377 . S
C3609 C3608 1.524 . S
C3609 C3610 1.397 . S
C3609 C3614 1.363 . S
C3610 H3587 0.950 . S
C3610 C3609 1.397 . S
C3610 C3611 1.334 . S
C3611 H3588 0.950 . S
C3611 C3610 1.334 . S
C3611 C3612 1.287 . S
C3612 C3611 1.287 . S
C3612 C3613 1.524 . S
C3612 H3631 0.913 . S
C3613 H3589 0.950 . S
C3613 C3612 1.524 . S
C3613 C3614 1.415 . S
C3614 H3590 0.950 . S
C3614 C3609 1.363 . S
C3614 C3613 1.415 . S
C3615 H3591 0.951 . S
C3615 C3616 1.366 . S
C3615 C3617 1.388 . S
C3616 C3615 1.366 . S
C3616 C3620 1.385 . S
C3617 H3592 0.951 . S
C3617 C3615 1.388 . S
C3617 C3618 1.366 . S
C3618 C3617 1.366 . S
C3618 C3619 1.414 . S
C3618 C3621 1.499 . S
C3619 H3593 0.950 . S
C3619 C3618 1.414 . S
C3619 C3620 1.374 . S
C3620 H3594 0.950 . S
C3620 C3616 1.385 . S
C3620 C3619 1.374 . S
C3621 C3618 1.499 . S
C3621 C3622 1.373 . S
C3621 C3623 1.389 . S
C3622 H3595 0.950 . S
C3622 C3608 1.377 . S
C3622 C3621 1.373 . S
C3623 C3607 1.377 . S
C3623 C3621 1.389 . S
C3623 C3624 1.524 . S
C3624 C3623 1.524 . S
C3624 C3625 1.397 . S
C3624 C3629 1.363 . S
C3625 H3596 0.950 . S
C3625 C3624 1.397 . S
C3625 C3626 1.334 . S
C3626 H3597 0.950 . S
C3626 C3625 1.334 . S
C3626 C3627 1.287 . S
C3627 C3626 1.287 . S
C3627 C3628 1.524 . S
C3627 H3630 0.999 . S
C3628 H3598 0.950 . S
C3628 C3627 1.524 . S
C3628 C3629 1.415 . S
C3629 H3599 0.950 . S
C3629 C3624 1.363 . S
C3629 C3628 1.415 . S
H3630 C3627 0.999 . S
H3631 C3612 0.913 . S
H3632 C3650 0.951 . S
H3633 C3652 0.951 . S
H3634 C3654 0.950 . S
H3635 C3655 0.950 . S
H3636 C3657 0.950 . S
H3637 C3660 0.950 . S
H3638 C3661 0.950 . S
H3639 C3663 0.950 . S
H3640 C3664 0.950 . S
H3641 C3665 0.951 . S
H3642 C3667 0.951 . S
H3643 C3669 0.950 . S
H3644 C3670 0.950 . S
H3645 C3672 0.950 . S
H3646 C3675 0.950 . S
H3647 C3676 0.950 . S
H3648 C3678 0.950 . S
H3649 C3679 0.950 . S
C3650 H3632 0.951 . S
C3650 C3651 1.366 . S
C3650 C3652 1.388 . S
C3651 C3650 1.366 . S
C3651 C3655 1.385 . S
C3652 H3633 0.951 . S
C3652 C3650 1.388 . S
C3652 C3653 1.366 . S
C3653 C3652 1.366 . S
C3653 C3654 1.414 . S
C3653 C3656 1.499 . S
C3654 H3634 0.950 . S
C3654 C3653 1.414 . S
C3654 C3655 1.374 . S
C3655 H3635 0.950 . S
C3655 C3651 1.385 . S
C3655 C3654 1.374 . S
C3656 C3653 1.499 . S
C3656 C3657 1.373 . S
C3656 C3658 1.389 . S
C3657 H3636 0.950 . S
C3657 C3656 1.373 . S
C3657 C3673 1.377 . S
C3658 C3656 1.389 . S
C3658 C3659 1.524 . S
C3658 C3672 1.377 . S
C3659 C3658 1.524 . S
C3659 C3660 1.397 . S
C3659 C3664 1.363 . S
C3660 H3637 0.950 . S
C3660 C3659 1.397 . S
C3660 C3661 1.334 . S
C3661 H3638 0.950 . S
C3661 C3660 1.334 . S
C3661 C3662 1.287 . S
C3662 C3661 1.287 . S
C3662 C3663 1.524 . S
C3662 H3681 0.913 . S
C3663 H3639 0.950 . S
C3663 C3662 1.524 . S
C3663 C3664 1.415 . S
C3664 H3640 0.950 . S
C3664 C3659 1.363 . S
C3664 C3663 1.415 . S
C3665 H3641 0.951 . S
C3665 C3666 1.366 . S
C3665 C3667 1.388 . S
C3666 C3665 1.366 . S
C3666 C3670 1.385 . S
C3667 H3642 0.951 . S
C3667 C3665 1.388 . S
C3667 C3668 1.366 . S
C3668 C3667 1.366 . S
C3668 C3669 1.414 . S
C3668 C3671 1.499 . S
C3669 H3643 0.950 . S
C3669 C3668 1.414 . S
C3669 C3670 1.374 . S
C3670 H3644 0.950 . S
C3670 C3666 1.385 . S
C3670 C3669 1.374 . S
C3671 C3668 1.499 . S
C3671 C3672 1.373 . S
C3671 C3673 1.389 . S
C3672 H3645 0.950 . S
C3672 C3658 1.377 . S
C3672 C3671 1.373 . S
C3673 C3657 1.377 . S
C3673 C3671 1.389 . S
C3673 C3674 1.524 . S
C3674 C3673 1.524 . S
C3674 C3675 1.397 . S
C3674 C3679 1.363 . S
C3675 H3646 0.950 . S
C3675 C3674 1.397 . S
C3675 C3676 1.334 . S
C3676 H3647 0.950 . S
C3676 C3675 1.334 . S
C3676 C3677 1.287 . S
C3677 C3676 1.287 . S
C3677 C3678 1.524 . S
C3677 H3680 0.999 . S
C3678 H3648 0.950 . S
C3678 C3677 1.524 . S
C3678 C3679 1.415 . S
C3679 H3649 0.950 . S
C3679 C3674 1.363 . S
C3679 C3678 1.415 . S
H3680 C3677 0.999 . S
H3681 C3662 0.913 . S
H3682 C3700 0.951 . S
H3683 C3702 0.951 . S
H3684 C3704 0.950 . S
H3685 C3705 0.950 . S
H3686 C3707 0.950 . S
H3687 C3710 0.950 . S
H3688 C3711 0.950 . S
H3689 C3713 0.950 . S
H3690 C3714 0.950 . S
H3691 C3715 0.951 . S
H3692 C3717 0.951 . S
H3693 C3719 0.950 . S
H3694 C3720 0.950 . S
H3695 C3722 0.950 . S
H3696 C3725 0.950 . S
H3697 C3726 0.950 . S
H3698 C3728 0.950 . S
H3699 C3729 0.950 . S
C3700 H3682 0.951 . S
C3700 C3701 1.366 . S
C3700 C3702 1.388 . S
C3701 C3700 1.366 . S
C3701 C3705 1.385 . S
C3702 H3683 0.951 . S
C3702 C3700 1.388 . S
C3702 C3703 1.366 . S
C3703 C3702 1.366 . S
C3703 C3704 1.414 . S
C3703 C3706 1.499 . S
C3704 H3684 0.950 . S
C3704 C3703 1.414 . S
C3704 C3705 1.374 . S
C3705 H3685 0.950 . S
C3705 C3701 1.385 . S
C3705 C3704 1.374 . S
C3706 C3703 1.499 . S
C3706 C3707 1.373 . S
C3706 C3708 1.389 . S
C3707 H3686 0.950 . S
C3707 C3706 1.373 . S
C3707 C3723 1.377 . S
C3708 C3706 1.389 . S
C3708 C3709 1.524 . S
C3708 C3722 1.377 . S
C3709 C3708 1.524 . S
C3709 C3710 1.397 . S
C3709 C3714 1.363 . S
C3710 H3687 0.950 . S
C3710 C3709 1.397 . S
C3710 C3711 1.334 . S
C3711 H3688 0.950 . S
C3711 C3710 1.334 . S
C3711 C3712 1.287 . S
C3712 C3711 1.287 . S
C3712 C3713 1.524 . S
C3712 H3731 0.913 . S
C3713 H3689 0.950 . S
C3713 C3712 1.524 . S
C3713 C3714 1.415 . S
C3714 H3690 0.950 . S
C3714 C3709 1.363 . S
C3714 C3713 1.415 . S
C3715 H3691 0.951 . S
C3715 C3716 1.366 . S
C3715 C3717 1.388 . S
C3716 C3715 1.366 . S
C3716 C3720 1.385 . S
C3717 H3692 0.951 . S
C3717 C3715 1.388 . S
C3717 C3718 1.366 . S
C3718 C3717 1.366 . S
C3718 C3719 1.414 . S
C3718 C3721 1.499 . S
C3719 H3693 0.950 . S
C3719 C3718 1.414 . S
C3719 C3720 1.374 . S
C3720 H3694 0.950 . S
C3720 C3716 1.385 . S
C3720 C3719 1.374 . S
C3721 C3718 1.499 . S
C3721 C3722 1.373 . S
C3721 C3723 1.389 . S
C3722 H3695 0.950 . S
C3722 C3708 1.377 . S
C3722 C3721 1.373 . S
C3723 C3707 1.377 . S
C3723 C3721 1.389 . S
C3723 C3724 1.524 . S
C3724 C3723 1.524 . S
C3724 C3725 1.397 . S
C3724 C3729 1.363 . S
C3725 H3696 0.950 . S
C3725 C3724 1.397 . S
C3725 C3726 1.334 . S
C3726 H3697 0.950 . S
C3726 C3725 1.334 . S
C3726 C3727 1.287 . S
C3727 C3726 1.287 . S
C3727 C3728 1.524 . S
C3727 H3730 0.999 . S
C3728 H3698 0.950 . S
C3728 C3727 1.524 . S
C3728 C3729 1.415 . S
C3729 H3699 0.950 . S
C3729 C3724 1.363 . S
C3729 C3728 1.415 . S
H3730 C3727 0.999 . S
H3731 C3712 0.913 . S
H3732 C3750 0.951 . S
H3733 C3752 0.951 . S
H3734 C3754 0.950 . S
H3735 C3755 0.950 . S
H3736 C3757 0.950 . S
H3737 C3760 0.950 . S
H3738 C3761 0.950 . S
H3739 C3763 0.950 . S
H3740 C3764 0.950 . S
H3741 C3765 0.951 . S
H3742 C3767 0.951 . S
H3743 C3769 0.950 . S
H3744 C3770 0.950 . S
H3745 C3772 0.950 . S
H3746 C3775 0.950 . S
H3747 C3776 0.950 . S
H3748 C3778 0.950 . S
H3749 C3779 0.950 . S
C3750 H3732 0.951 . S
C3750 C3751 1.366 . S
C3750 C3752 1.388 . S
C3751 C3750 1.366 . S
C3751 C3755 1.385 . S
C3752 H3733 0.951 . S
C3752 C3750 1.388 . S
C3752 C3753 1.366 . S
C3753 C3752 1.366 . S
C3753 C3754 1.414 . S
C3753 C3756 1.499 . S
C3754 H3734 0.950 . S
C3754 C3753 1.414 . S
C3754 C3755 1.374 . S
C3755 H3735 0.950 . S
C3755 C3751 1.385 . S
C3755 C3754 1.374 . S
C3756 C3753 1.499 . S
C3756 C3757 1.373 . S
C3756 C3758 1.389 . S
C3757 H3736 0.950 . S
C3757 C3756 1.373 . S
C3757 C3773 1.377 . S
C3758 C3756 1.389 . S
C3758 C3759 1.524 . S
C3758 C3772 1.377 . S
C3759 C3758 1.524 . S
C3759 C3760 1.397 . S
C3759 C3764 1.363 . S
C3760 H3737 0.950 . S
C3760 C3759 1.397 . S
C3760 C3761 1.334 . S
C3761 H3738 0.950 . S
C3761 C3760 1.334 . S
C3761 C3762 1.287 . S
C3762 C3761 1.287 . S
C3762 C3763 1.524 . S
C3762 H3781 0.913 . S
C3763 H3739 0.950 . S
C3763 C3762 1.524 . S
C3763 C3764 1.415 . S
C3764 H3740 0.950 . S
C3764 C3759 1.363 . S
C3764 C3763 1.415 . S
C3765 H3741 0.951 . S
C3765 C3766 1.366 . S
C3765 C3767 1.388 . S
C3766 C3765 1.366 . S
C3766 C3770 1.385 . S
C3767 H3742 0.951 . S
C3767 C3765 1.388 . S
C3767 C3768 1.366 . S
C3768 C3767 1.366 . S
C3768 C3769 1.414 . S
C3768 C3771 1.499 . S
C3769 H3743 0.950 . S
C3769 C3768 1.414 . S
C3769 C3770 1.374 . S
C3770 H3744 0.950 . S
C3770 C3766 1.385 . S
C3770 C3769 1.374 . S
C3771 C3768 1.499 . S
C3771 C3772 1.373 . S
C3771 C3773 1.389 . S
C3772 H3745 0.950 . S
C3772 C3758 1.377 . S
C3772 C3771 1.373 . S
C3773 C3757 1.377 . S
C3773 C3771 1.389 . S
C3773 C3774 1.524 . S
C3774 C3773 1.524 . S
C3774 C3775 1.397 . S
C3774 C3779 1.363 . S
C3775 H3746 0.950 . S
C3775 C3774 1.397 . S
C3775 C3776 1.334 . S
C3776 H3747 0.950 . S
C3776 C3775 1.334 . S
C3776 C3777 1.287 . S
C3777 C3776 1.287 . S
C3777 C3778 1.524 . S
C3777 H3780 0.999 . S
C3778 H3748 0.950 . S
C3778 C3777 1.524 . S
C3778 C3779 1.415 . S
C3779 H3749 0.950 . S
C3779 C3774 1.363 . S
C3779 C3778 1.415 . S
H3780 C3777 0.999 . S
H3781 C3762 0.913 . S
H3782 C3800 0.951 . S
H3783 C3802 0.951 . S
H3784 C3804 0.950 . S
H3785 C3805 0.950 . S
H3786 C3807 0.950 . S
H3787 C3810 0.950 . S
H3788 C3811 0.950 . S
H3789 C3813 0.950 . S
H3790 C3814 0.950 . S
H3791 C3815 0.951 . S
H3792 C3817 0.951 . S
H3793 C3819 0.950 . S
H3794 C3820 0.950 . S
H3795 C3822 0.950 . S
H3796 C3825 0.950 . S
H3797 C3826 0.950 . S
H3798 C3828 0.950 . S
H3799 C3829 0.950 . S
C3800 H3782 0.951 . S
C3800 C3801 1.366 . S
C3800 C3802 1.388 . S
C3801 C3800 1.366 . S
C3801 C3805 1.385 . S
C3802 H3783 0.951 . S
C3802 C3800 1.388 . S
C3802 C3803 1.366 . S
C3803 C3802 1.366 . S
C3803 C3804 1.414 . S
C3803 C3806 1.499 . S
C3804 H3784 0.950 . S
C3804 C3803 1.414 . S
C3804 C3805 1.374 . S
C3805 H3785 0.950 . S
C3805 C3801 1.385 . S
C3805 C3804 1.374 . S
C3806 C3803 1.499 . S
C3806 C3807 1.373 . S
C3806 C3808 1.389 . S
C3807 H3786 0.950 . S
C3807 C3806 1.373 . S
C3807 C3823 1.377 . S
C3808 C3806 1.389 . S
C3808 C3809 1.524 . S
C3808 C3822 1.377 . S
C3809 C3808 1.524 . S
C3809 C3810 1.397 . S
C3809 C3814 1.363 . S
C3810 H3787 0.950 . S
C3810 C3809 1.397 . S
C3810 C3811 1.334 . S
C3811 H3788 0.950 . S
C3811 C3810 1.334 . S
C3811 C3812 1.287 . S
C3812 C3811 1.287 . S
C3812 C3813 1.524 . S
C3812 H3831 0.913 . S
C3813 H3789 0.950 . S
C3813 C3812 1.524 . S
C3813 C3814 1.415 . S
C3814 H3790 0.950 . S
C3814 C3809 1.363 . S
C3814 C3813 1.415 . S
C3815 H3791 0.951 . S
C3815 C3816 1.366 . S
C3815 C3817 1.388 . S
C3816 C3815 1.366 . S
C3816 C3820 1.385 . S
C3817 H3792 0.951 . S
C3817 C3815 1.388 . S
C3817 C3818 1.366 . S
C3818 C3817 1.366 . S
C3818 C3819 1.414 . S
C3818 C3821 1.499 . S
C3819 H3793 0.950 . S
C3819 C3818 1.414 . S
C3819 C3820 1.374 . S
C3820 H3794 0.950 . S
C3820 C3816 1.385 . S
C3820 C3819 1.374 . S
C3821 C3818 1.499 . S
C3821 C3822 1.373 . S
C3821 C3823 1.389 . S
C3822 H3795 0.950 . S
C3822 C3808 1.377 . S
C3822 C3821 1.373 . S
C3823 C3807 1.377 . S
C3823 C3821 1.389 . S
C3823 C3824 1.524 . S
C3824 C3823 1.524 . S
C3824 C3825 1.397 . S
C3824 C3829 1.363 . S
C3825 H3796 0.950 . S
C3825 C3824 1.397 . S
C3825 C3826 1.334 . S
C3826 H3797 0.950 . S
C3826 C3825 1.334 . S
C3826 C3827 1.287 . S
C3827 C3826 1.287 . S
C3827 C3828 1.524 . S
C3827 H3830 0.999 . S
C3828 H3798 0.950 . S
C3828 C3827 1.524 . S
C3828 C3829 1.415 . S
C3829 H3799 0.950 . S
C3829 C3824 1.363 . S
C3829 C3828 1.415 . S
H3830 C3827 0.999 . S
H3831 C3812 0.913 . S
H3832 C3850 0.951 . S
H3833 C3852 0.951 . S
H3834 C3854 0.950 . S
H3835 C3855 0.950 . S
H3836 C3857 0.950 . S
H3837 C3860 0.950 . S
H3838 C3861 0.950 . S
H3839 C3863 0.950 . S
H3840 C3864 0.950 . S
H3841 C3865 0.951 . S
H3842 C3867 0.951 . S
H3843 C3869 0.950 . S
H3844 C3870 0.950 . S
H3845 C3872 0.950 . S
H3846 C3875 0.950 . S
H3847 C3876 0.950 . S
H3848 C3878 0.950 . S
H3849 C3879 0.950 . S
C3850 H3832 0.951 . S
C3850 C3851 1.366 . S
C3850 C3852 1.388 . S
C3851 C3850 1.366 . S
C3851 C3855 1.385 . S
C3852 H3833 0.951 . S
C3852 C3850 1.388 . S
C3852 C3853 1.366 . S
C3853 C3852 1.366 . S
C3853 C3854 1.414 . S
C3853 C3856 1.499 . S
C3854 H3834 0.950 . S
C3854 C3853 1.414 . S
C3854 C3855 1.374 . S
C3855 H3835 0.950 . S
C3855 C3851 1.385 . S
C3855 C3854 1.374 . S
C3856 C3853 1.499 . S
C3856 C3857 1.373 . S
C3856 C3858 1.389 . S
C3857 H3836 0.950 . S
C3857 C3856 1.373 . S
C3857 C3873 1.377 . S
C3858 C3856 1.389 . S
C3858 C3859 1.524 . S
C3858 C3872 1.377 . S
C3859 C3858 1.524 . S
C3859 C3860 1.397 . S
C3859 C3864 1.363 . S
C3860 H3837 0.950 . S
C3860 C3859 1.397 . S
C3860 C3861 1.334 . S
C3861 H3838 0.950 . S
C3861 C3860 1.334 . S
C3861 C3862 1.287 . S
C3862 C3861 1.287 . S
C3862 C3863 1.524 . S
C3862 H3881 0.913 . S
C3863 H3839 0.950 . S
C3863 C3862 1.524 . S
C3863 C3864 1.415 . S
C3864 H3840 0.950 . S
C3864 C3859 1.363 . S
C3864 C3863 1.415 . S
C3865 H3841 0.951 . S
C3865 C3866 1.366 . S
C3865 C3867 1.388 . S
C3866 C3865 1.366 . S
C3866 C3870 1.385 . S
C3867 H3842 0.951 . S
C3867 C3865 1.388 . S
C3867 C3868 1.366 . S
C3868 C3867 1.366 . S
C3868 C3869 1.414 . S
C3868 C3871 1.499 . S
C3869 H3843 0.950 . S
C3869 C3868 1.414 . S
C3869 C3870 1.374 . S
C3870 H3844 0.950 . S
C3870 C3866 1.385 . S
C3870 C3869 1.374 . S
C3871 C3868 1.499 . S
C3871 C3872 1.373 . S
C3871 C3873 1.389 . S
C3872 H3845 0.950 . S
C3872 C3858 1.377 . S
C3872 C3871 1.373 . S
C3873 C3857 1.377 . S
C3873 C3871 1.389 . S
C3873 C3874 1.524 . S
C3874 C3873 1.524 . S
C3874 C3875 1.397 . S
C3874 C3879 1.363 . S
C3875 H3846 0.950 . S
C3875 C3874 1.397 . S
C3875 C3876 1.334 . S
C3876 H3847 0.950 . S
C3876 C3875 1.334 . S
C3876 C3877 1.287 . S
C3877 C3876 1.287 . S
C3877 C3878 1.524 . S
C3877 H3880 0.999 . S
C3878 H3848 0.950 . S
C3878 C3877 1.524 . S
C3878 C3879 1.415 . S
C3879 H3849 0.950 . S
C3879 C3874 1.363 . S
C3879 C3878 1.415 . S
H3880 C3877 0.999 . S
H3881 C3862 0.913 . S
H3882 C3900 0.951 . S
H3883 C3902 0.951 . S
H3884 C3904 0.950 . S
H3885 C3905 0.950 . S
H3886 C3907 0.950 . S
H3887 C3910 0.950 . S
H3888 C3911 0.950 . S
H3889 C3913 0.950 . S
H3890 C3914 0.950 . S
H3891 C3915 0.951 . S
H3892 C3917 0.951 . S
H3893 C3919 0.950 . S
H3894 C3920 0.950 . S
H3895 C3922 0.950 . S
H3896 C3925 0.950 . S
H3897 C3926 0.950 . S
H3898 C3928 0.950 . S
H3899 C3929 0.950 . S
C3900 H3882 0.951 . S
C3900 C3901 1.366 . S
C3900 C3902 1.388 . S
C3901 C3900 1.366 . S
C3901 C3905 1.385 . S
C3902 H3883 0.951 . S
C3902 C3900 1.388 . S
C3902 C3903 1.366 . S
C3903 C3902 1.366 . S
C3903 C3904 1.414 . S
C3903 C3906 1.499 . S
C3904 H3884 0.950 . S
C3904 C3903 1.414 . S
C3904 C3905 1.374 . S
C3905 H3885 0.950 . S
C3905 C3901 1.385 . S
C3905 C3904 1.374 . S
C3906 C3903 1.499 . S
C3906 C3907 1.373 . S
C3906 C3908 1.389 . S
C3907 H3886 0.950 . S
C3907 C3906 1.373 . S
C3907 C3923 1.377 . S
C3908 C3906 1.389 . S
C3908 C3909 1.524 . S
C3908 C3922 1.377 . S
C3909 C3908 1.524 . S
C3909 C3910 1.397 . S
C3909 C3914 1.363 . S
C3910 H3887 0.950 . S
C3910 C3909 1.397 . S
C3910 C3911 1.334 . S
C3911 H3888 0.950 . S
C3911 C3910 1.334 . S
C3911 C3912 1.287 . S
C3912 C3911 1.287 . S
C3912 C3913 1.524 . S
C3912 H3931 0.913 . S
C3913 H3889 0.950 . S
C3913 C3912 1.524 . S
C3913 C3914 1.415 . S
C3914 H3890 0.950 . S
C3914 C3909 1.363 . S
C3914 C3913 1.415 . S
C3915 H3891 0.951 . S
C3915 C3916 1.366 . S
C3915 C3917 1.388 . S
C3916 C3915 1.366 . S
C3916 C3920 1.385 . S
C3917 H3892 0.951 . S
C3917 C3915 1.388 . S
C3917 C3918 1.366 . S
C3918 C3917 1.366 . S
C3918 C3919 1.414 . S
C3918 C3921 1.499 . S
C3919 H3893 0.950 . S
C3919 C3918 1.414 . S
C3919 C3920 1.374 . S
C3920 H3894 0.950 . S
C3920 C3916 1.385 . S
C3920 C3919 1.374 . S
C3921 C3918 1.499 . S
C3921 C3922 1.373 . S
C3921 C3923 1.389 . S
C3922 H3895 0.950 . S
C3922 C3908 1.377 . S
C3922 C3921 1.373 . S
C3923 C3907 1.377 . S
C3923 C3921 1.389 . S
C3923 C3924 1.524 . S
C3924 C3923 1.524 . S
C3924 C3925 1.397 . S
C3924 C3929 1.363 . S
C3925 H3896 0.950 . S
C3925 C3924 1.397 . S
C3925 C3926 1.334 . S
C3926 H3897 0.950 . S
C3926 C3925 1.334 . S
C3926 C3927 1.287 . S
C3927 C3926 1.287 . S
C3927 C3928 1.524 . S
C3927 H3930 0.999 . S
C3928 H3898 0.950 . S
C3928 C3927 1.524 . S
C3928 C3929 1.415 . S
C3929 H3899 0.950 . S
C3929 C3924 1.363 . S
C3929 C3928 1.415 . S
H3930 C3927 0.999 . S
H3931 C3912 0.913 . S
H3932 C3950 0.951 . S
H3933 C3952 0.951 . S
H3934 C3954 0.950 . S
H3935 C3955 0.950 . S
H3936 C3957 0.950 . S
H3937 C3960 0.950 . S
H3938 C3961 0.950 . S
H3939 C3963 0.950 . S
H3940 C3964 0.950 . S
H3941 C3965 0.951 . S
H3942 C3967 0.951 . S
H3943 C3969 0.950 . S
H3944 C3970 0.950 . S
H3945 C3972 0.950 . S
H3946 C3975 0.950 . S
H3947 C3976 0.950 . S
H3948 C3978 0.950 . S
H3949 C3979 0.950 . S
C3950 H3932 0.951 . S
C3950 C3951 1.366 . S
C3950 C3952 1.388 . S
C3951 C3950 1.366 . S
C3951 C3955 1.385 . S
C3952 H3933 0.951 . S
C3952 C3950 1.388 . S
C3952 C3953 1.366 . S
C3953 C3952 1.366 . S
C3953 C3954 1.414 . S
C3953 C3956 1.499 . S
C3954 H3934 0.950 . S
C3954 C3953 1.414 . S
C3954 C3955 1.374 . S
C3955 H3935 0.950 . S
C3955 C3951 1.385 . S
C3955 C3954 1.374 . S
C3956 C3953 1.499 . S
C3956 C3957 1.373 . S
C3956 C3958 1.389 . S
C3957 H3936 0.950 . S
C3957 C3956 1.373 . S
C3957 C3973 1.377 . S
C3958 C3956 1.389 . S
C3958 C3959 1.524 . S
C3958 C3972 1.377 . S
C3959 C3958 1.524 . S
C3959 C3960 1.397 . S
C3959 C3964 1.363 . S
C3960 H3937 0.950 . S
C3960 C3959 1.397 . S
C3960 C3961 1.334 . S
C3961 H3938 0.950 . S
C3961 C3960 1.334 . S
C3961 C3962 1.287 . S
C3962 C3961 1.287 . S
C3962 C3963 1.524 . S
C3962 H3981 0.913 . S
C3963 H3939 0.950 . S
C3963 C3962 1.524 . S
C3963 C3964 1.415 . S
C3964 H3940 0.950 . S
C3964 C3959 1.363 . S
C3964 C3963 1.415 . S
C3965 H3941 0.951 . S
C3965 C3966 1.366 . S
C3965 C3967 1.388 . S
C3966 C3965 1.366 . S
C3966 C3970 1.385 . S
C3967 H3942 0.951 . S
C3967 C3965 1.388 . S
C3967 C3968 1.366 . S
C3968 C3967 1.366 . S
C3968 C3969 1.414 . S
C3968 C3971 1.499 . S
C3969 H3943 0.950 . S
C3969 C3968 1.414 . S
C3969 C3970 1.374 . S
C3970 H3944 0.950 . S
C3970 C3966 1.385 . S
C3970 C3969 1.374 . S
C3971 C3968 1.499 . S
C3971 C3972 1.373 . S
C3971 C3973 1.389 . S
C3972 H3945 0.950 . S
C3972 C3958 1.377 . S
C3972 C3971 1.373 . S
C3973 C3957 1.377 . S
C3973 C3971 1.389 . S
C3973 C3974 1.524 . S
C3974 C3973 1.524 . S
C3974 C3975 1.397 . S
C3974 C3979 1.363 . S
C3975 H3946 0.950 . S
C3975 C3974 1.397 . S
C3975 C3976 1.334 . S
C3976 H3947 0.950 . S
C3976 C3975 1.334 . S
C3976 C3977 1.287 . S
C3977 C3976 1.287 . S
C3977 C3978 1.524 . S
C3977 H3980 0.999 . S
C3978 H3948 0.950 . S
C3978 C3977 1.524 . S
C3978 C3979 1.415 . S
C3979 H3949 0.950 . S
C3979 C3974 1.363 . S
C3979 C3978 1.415 . S
H3980 C3977 0.999 . S
H3981 C3962 0.913 . S
H3982 C4000 0.951 . S
H3983 C4002 0.951 . S
H3984 C4004 0.950 . S
H3985 C4005 0.950 . S
H3986 C4007 0.950 . S
H3987 C4010 0.950 . S
H3988 C4011 0.950 . S
H3989 C4013 0.950 . S
H3990 C4014 0.950 . S
H3991 C4015 0.951 . S
H3992 C4017 0.951 . S
H3993 C4019 0.950 . S
H3994 C4020 0.950 . S
H3995 C4022 0.950 . S
H3996 C4025 0.950 . S
H3997 C4026 0.950 . S
H3998 C4028 0.950 . S
H3999 C4029 0.950 . S
C4000 H3982 0.951 . S
C4000 C4001 1.366 . S
C4000 C4002 1.388 . S
C4001 C4000 1.366 . S
C4001 C4005 1.385 . S
C4002 H3983 0.951 . S
C4002 C4000 1.388 . S
C4002 C4003 1.366 . S
C4003 C4002 1.366 . S
C4003 C4004 1.414 . S
C4003 C4006 1.499 . S
C4004 H3984 0.950 . S
C4004 C4003 1.414 . S
C4004 C4005 1.374 . S
C4005 H3985 0.950 . S
C4005 C4001 1.385 . S
C4005 C4004 1.374 . S
C4006 C4003 1.499 . S
C4006 C4007 1.373 . S
C4006 C4008 1.389 . S
C4007 H3986 0.950 . S
C4007 C4006 1.373 . S
C4007 C4023 1.377 . S
C4008 C4006 1.389 . S
C4008 C4009 1.524 . S
C4008 C4022 1.377 . S
C4009 C4008 1.524 . S
C4009 C4010 1.397 . S
C4009 C4014 1.363 . S
C4010 H3987 0.950 . S
C4010 C4009 1.397 . S
C4010 C4011 1.334 . S
C4011 H3988 0.950 . S
C4011 C4010 1.334 . S
C4011 C4012 1.287 . S
C4012 C4011 1.287 . S
C4012 C4013 1.524 . S
C4012 H4031 0.913 . S
C4013 H3989 0.950 . S
C4013 C4012 1.524 . S
C4013 C4014 1.415 . S
C4014 H3990 0.950 . S
C4014 C4009 1.363 . S
C4014 C4013 1.415 . S
C4015 H3991 0.951 . S
C4015 C4016 1.366 . S
C4015 C4017 1.388 . S
C4016 C4015 1.366 . S
C4016 C4020 1.385 . S
C4017 H3992 0.951 . S
C4017 C4015 1.388 . S
C4017 C4018 1.366 . S
C4018 C4017 1.366 . S
C4018 C4019 1.414 . S
C4018 C4021 1.499 . S
C4019 H3993 0.950 . S
C4019 C4018 1.414 . S
C4019 C4020 1.374 . S
C4020 H3994 0.950 . S
C4020 C4016 1.385 . S
C4020 C4019 1.374 . S
C4021 C4018 1.499 . S
C4021 C4022 1.373 . S
C4021 C4023 1.389 . S
C4022 H3995 0.950 . S
C4022 C4008 1.377 . S
C4022 C4021 1.373 . S
C4023 C4007 1.377 . S
C4023 C4021 1.389 . S
C4023 C4024 1.524 . S
C4024 C4023 1.524 . S
C4024 C4025 1.397 . S
C4024 C4029 1.363 . S
C4025 H3996 0.950 . S
C4025 C4024 1.397 . S
C4025 C4026 1.334 . S
C4026 H3997 0.950 . S
C4026 C4025 1.334 . S
C4026 C4027 1.287 . S
C4027 C4026 1.287 . S
C4027 C4028 1.524 . S
C4027 H4030 0.999 . S
C4028 H3998 0.950 . S
C4028 C4027 1.524 . S
C4028 C4029 1.415 . S
C4029 H3999 0.950 . S
C4029 C4024 1.363 . S
C4029 C4028 1.415 . S
H4030 C4027 0.999 . S
H4031 C4012 0.913 . S
H4032 C4050 0.951 . S
H4033 C4052 0.951 . S
H4034 C4054 0.950 . S
H4035 C4055 0.950 . S
H4036 C4057 0.950 . S
H4037 C4060 0.950 . S
H4038 C4061 0.950 . S
H4039 C4063 0.950 . S
H4040 C4064 0.950 . S
H4041 C4065 0.951 . S
H4042 C4067 0.951 . S
H4043 C4069 0.950 . S
H4044 C4070 0.950 . S
H4045 C4072 0.950 . S
H4046 C4075 0.950 . S
H4047 C4076 0.950 . S
H4048 C4078 0.950 . S
H4049 C4079 0.950 . S
C4050 H4032 0.951 . S
C4050 C4051 1.366 . S
C4050 C4052 1.388 . S
C4051 C4050 1.366 . S
C4051 C4055 1.385 . S
C4052 H4033 0.951 . S
C4052 C4050 1.388 . S
C4052 C4053 1.366 . S
C4053 C4052 1.366 . S
C4053 C4054 1.414 . S
C4053 C4056 1.499 . S
C4054 H4034 0.950 . S
C4054 C4053 1.414 . S
C4054 C4055 1.374 . S
C4055 H4035 0.950 . S
C4055 C4051 1.385 . S
C4055 C4054 1.374 . S
C4056 C4053 1.499 . S
C4056 C4057 1.373 . S
C4056 C4058 1.389 . S
C4057 H4036 0.950 . S
C4057 C4056 1.373 . S
C4057 C4073 1.377 . S
C4058 C4056 1.389 . S
C4058 C4059 1.524 . S
C4058 C4072 1.377 . S
C4059 C4058 1.524 . S
C4059 C4060 1.397 . S
C4059 C4064 1.363 . S
C4060 H4037 0.950 . S
C4060 C4059 1.397 . S
C4060 C4061 1.334 . S
C4061 H4038 0.950 . S
C4061 C4060 1.334 . S
C4061 C4062 1.287 . S
C4062 C4061 1.287 . S
C4062 C4063 1.524 . S
C4062 H4081 0.913 . S
C4063 H4039 0.950 . S
C4063 C4062 1.524 . S
C4063 C4064 1.415 . S
C4064 H4040 0.950 . S
C4064 C4059 1.363 . S
C4064 C4063 1.415 . S
C4065 H4041 0.951 . S
C4065 C4066 1.366 . S
C4065 C4067 1.388 . S
C4066 C4065 1.366 . S
C4066 C4070 1.385 . S
C4067 H4042 0.951 . S
C4067 C4065 1.388 . S
C4067 C4068 1.366 . S
C4068 C4067 1.366 . S
C4068 C4069 1.414 . S
C4068 C4071 1.499 . S
C4069 H4043 0.950 . S
C4069 C4068 1.414 . S
C4069 C4070 1.374 . S
C4070 H4044 0.950 . S
C4070 C4066 1.385 . S
C4070 C4069 1.374 . S
C4071 C4068 1.499 . S
C4071 C4072 1.373 . S
C4071 C4073 1.389 . S
C4072 H4045 0.950 . S
C4072 C4058 1.377 . S
C4072 C4071 1.373 . S
C4073 C4057 1.377 . S
C4073 C4071 1.389 . S
C4073 C4074 1.524 . S
C4074 C4073 1.524 . S
C4074 C4075 1.397 . S
C4074 C4079 1.363 . S
C4075 H4046 0.950 . S
C4075 C4074 1.397 . S
C4075 C4076 1.334 . S
C4076 H4047 0.950 . S
C4076 C4075 1.334 . S
C4076 C4077 1.287 . S
C4077 C4076 1.287 . S
C4077 C4078 1.524 . S
C4077 H4080 0.999 . S
C4078 H4048 0.950 . S
C4078 C4077 1.524 . S
C4078 C4079 1.415 . S
C4079 H4049 0.950 . S
C4079 C4074 1.363 . S
C4079 C4078 1.415 . S
H4080 C4077 0.999 . S
H4081 C4062 0.913 . S
H4082 C4100 0.951 . S
H4083 C4102 0.951 . S
H4084 C4104 0.950 . S
H4085 C4105 0.950 . S
H4086 C4107 0.950 . S
H4087 C4110 0.950 . S
H4088 C4111 0.950 . S
H4089 C4113 0.950 . S
H4090 C4114 0.950 . S
H4091 C4115 0.951 . S
H4092 C4117 0.951 . S
H4093 C4119 0.950 . S
H4094 C4120 0.950 . S
H4095 C4122 0.950 . S
H4096 C4125 0.950 . S
H4097 C4126 0.950 . S
H4098 C4128 0.950 . S
H4099 C4129 0.950 . S
C4100 H4082 0.951 . S
C4100 C4101 1.366 . S
C4100 C4102 1.388 . S
C4101 C4100 1.366 . S
C4101 C4105 1.385 . S
C4102 H4083 0.951 . S
C4102 C4100 1.388 . S
C4102 C4103 1.366 . S
C4103 C4102 1.366 . S
C4103 C4104 1.414 . S
C4103 C4106 1.499 . S
C4104 H4084 0.950 . S
C4104 C4103 1.414 . S
C4104 C4105 1.374 . S
C4105 H4085 0.950 . S
C4105 C4101 1.385 . S
C4105 C4104 1.374 . S
C4106 C4103 1.499 . S
C4106 C4107 1.373 . S
C4106 C4108 1.389 . S
C4107 H4086 0.950 . S
C4107 C4106 1.373 . S
C4107 C4123 1.377 . S
C4108 C4106 1.389 . S
C4108 C4109 1.524 . S
C4108 C4122 1.377 . S
C4109 C4108 1.524 . S
C4109 C4110 1.397 . S
C4109 C4114 1.363 . S
C4110 H4087 0.950 . S
C4110 C4109 1.397 . S
C4110 C4111 1.334 . S
C4111 H4088 0.950 . S
C4111 C4110 1.334 . S
C4111 C4112 1.287 . S
C4112 C4111 1.287 . S
C4112 C4113 1.524 . S
C4112 H4131 0.913 . S
C4113 H4089 0.950 . S
C4113 C4112 1.524 . S
C4113 C4114 1.415 . S
C4114 H4090 0.950 . S
C4114 C4109 1.363 . S
C4114 C4113 1.415 . S
C4115 H4091 0.951 . S
C4115 C4116 1.366 . S
C4115 C4117 1.388 . S
C4116 C4115 1.366 . S
C4116 C4120 1.385 . S
C4117 H4092 0.951 . S
C4117 C4115 1.388 . S
C4117 C4118 1.366 . S
C4118 C4117 1.366 . S
C4118 C4119 1.414 . S
C4118 C4121 1.499 . S
C4119 H4093 0.950 . S
C4119 C4118 1.414 . S
C4119 C4120 1.374 . S
C4120 H4094 0.950 . S
C4120 C4116 1.385 . S
C4120 C4119 1.374 . S
C4121 C4118 1.499 . S
C4121 C4122 1.373 . S
C4121 C4123 1.389 . S
C4122 H4095 0.950 . S
C4122 C4108 1.377 . S
C4122 C4121 1.373 . S
C4123 C4107 1.377 . S
C4123 C4121 1.389 . S
C4123 C4124 1.524 . S
C4124 C4123 1.524 . S
C4124 C4125 1.397 . S
C4124 C4129 1.363 . S
C4125 H4096 0.950 . S
C4125 C4124 1.397 . S
C4125 C4126 1.334 . S
C4126 H4097 0.950 . S
C4126 C4125 1.334 . S
C4126 C4127 1.287 . S
C4127 C4126 1.287 . S
C4127 C4128 1.524 . S
C4127 H4130 0.999 . S
C4128 H4098 0.950 . S
C4128 C4127 1.524 . S
C4128 C4129 1.415 . S
C4129 H4099 0.950 . S
C4129 C4124 1.363 . S
C4129 C4128 1.415 . S
H4130 C4127 0.999 . S
H4131 C4112 0.913 . S
H4132 C4150 0.951 . S
H4133 C4152 0.951 . S
H4134 C4154 0.950 . S
H4135 C4155 0.950 . S
H4136 C4157 0.950 . S
H4137 C4160 0.950 . S
H4138 C4161 0.950 . S
H4139 C4163 0.950 . S
H4140 C4164 0.950 . S
H4141 C4165 0.951 . S
H4142 C4167 0.951 . S
H4143 C4169 0.950 . S
H4144 C4170 0.950 . S
H4145 C4172 0.950 . S
H4146 C4175 0.950 . S
H4147 C4176 0.950 . S
H4148 C4178 0.950 . S
H4149 C4179 0.950 . S
C4150 H4132 0.951 . S
C4150 C4151 1.366 . S
C4150 C4152 1.388 . S
C4151 C4150 1.366 . S
C4151 C4155 1.385 . S
C4152 H4133 0.951 . S
C4152 C4150 1.388 . S
C4152 C4153 1.366 . S
C4153 C4152 1.366 . S
C4153 C4154 1.414 . S
C4153 C4156 1.499 . S
C4154 H4134 0.950 . S
C4154 C4153 1.414 . S
C4154 C4155 1.374 . S
C4155 H4135 0.950 . S
C4155 C4151 1.385 . S
C4155 C4154 1.374 . S
C4156 C4153 1.499 . S
C4156 C4157 1.373 . S
C4156 C4158 1.389 . S
C4157 H4136 0.950 . S
C4157 C4156 1.373 . S
C4157 C4173 1.377 . S
C4158 C4156 1.389 . S
C4158 C4159 1.524 . S
C4158 C4172 1.377 . S
C4159 C4158 1.524 . S
C4159 C4160 1.397 . S
C4159 C4164 1.363 . S
C4160 H4137 0.950 . S
C4160 C4159 1.397 . S
C4160 C4161 1.334 . S
C4161 H4138 0.950 . S
C4161 C4160 1.334 . S
C4161 C4162 1.287 . S
C4162 C4161 1.287 . S
C4162 C4163 1.524 . S
C4162 H4181 0.913 . S
C4163 H4139 0.950 . S
C4163 C4162 1.524 . S
C4163 C4164 1.415 . S
C4164 H4140 0.950 . S
C4164 C4159 1.363 . S
C4164 C4163 1.415 . S
C4165 H4141 0.951 . S
C4165 C4166 1.366 . S
C4165 C4167 1.388 . S
C4166 C4165 1.366 . S
C4166 C4170 1.385 . S
C4167 H4142 0.951 . S
C4167 C4165 1.388 . S
C4167 C4168 1.366 . S
C4168 C4167 1.366 . S
C4168 C4169 1.414 . S
C4168 C4171 1.499 . S
C4169 H4143 0.950 . S
C4169 C4168 1.414 . S
C4169 C4170 1.374 . S
C4170 H4144 0.950 . S
C4170 C4166 1.385 . S
C4170 C4169 1.374 . S
C4171 C4168 1.499 . S
C4171 C4172 1.373 . S
C4171 C4173 1.389 . S
C4172 H4145 0.950 . S
C4172 C4158 1.377 . S
C4172 C4171 1.373 . S
C4173 C4157 1.377 . S
C4173 C4171 1.389 . S
C4173 C4174 1.524 . S
C4174 C4173 1.524 . S
C4174 C4175 1.397 . S
C4174 C4179 1.363 . S
C4175 H4146 0.950 . S
C4175 C4174 1.397 . S
C4175 C4176 1.334 . S
C4176 H4147 0.950 . S
C4176 C4175 1.334 . S
C4176 C4177 1.287 . S
C4177 C4176 1.287 . S
C4177 C4178 1.524 . S
C4177 H4180 0.999 . S
C4178 H4148 0.950 . S
C4178 C4177 1.524 . S
C4178 C4179 1.415 . S
C4179 H4149 0.950 . S
C4179 C4174 1.363 . S
C4179 C4178 1.415 . S
H4180 C4177 0.999 . S
H4181 C4162 0.913 . S
H4182 C4200 0.951 . S
H4183 C4202 0.951 . S
H4184 C4204 0.950 . S
H4185 C4205 0.950 . S
H4186 C4207 0.950 . S
H4187 C4210 0.950 . S
H4188 C4211 0.950 . S
H4189 C4213 0.950 . S
H4190 C4214 0.950 . S
H4191 C4215 0.951 . S
H4192 C4217 0.951 . S
H4193 C4219 0.950 . S
H4194 C4220 0.950 . S
H4195 C4222 0.950 . S
H4196 C4225 0.950 . S
H4197 C4226 0.950 . S
H4198 C4228 0.950 . S
H4199 C4229 0.950 . S
C4200 H4182 0.951 . S
C4200 C4201 1.366 . S
C4200 C4202 1.388 . S
C4201 C4200 1.366 . S
C4201 C4205 1.385 . S
C4202 H4183 0.951 . S
C4202 C4200 1.388 . S
C4202 C4203 1.366 . S
C4203 C4202 1.366 . S
C4203 C4204 1.414 . S
C4203 C4206 1.499 . S
C4204 H4184 0.950 . S
C4204 C4203 1.414 . S
C4204 C4205 1.374 . S
C4205 H4185 0.950 . S
C4205 C4201 1.385 . S
C4205 C4204 1.374 . S
C4206 C4203 1.499 . S
C4206 C4207 1.373 . S
C4206 C4208 1.389 . S
C4207 H4186 0.950 . S
C4207 C4206 1.373 . S
C4207 C4223 1.377 . S
C4208 C4206 1.389 . S
C4208 C4209 1.524 . S
C4208 C4222 1.377 . S
C4209 C4208 1.524 . S
C4209 C4210 1.397 . S
C4209 C4214 1.363 . S
C4210 H4187 0.950 . S
C4210 C4209 1.397 . S
C4210 C4211 1.334 . S
C4211 H4188 0.950 . S
C4211 C4210 1.334 . S
C4211 C4212 1.287 . S
C4212 C4211 1.287 . S
C4212 C4213 1.524 . S
C4212 H4231 0.913 . S
C4213 H4189 0.950 . S
C4213 C4212 1.524 . S
C4213 C4214 1.415 . S
C4214 H4190 0.950 . S
C4214 C4209 1.363 . S
C4214 C4213 1.415 . S
C4215 H4191 0.951 . S
C4215 C4216 1.366 . S
C4215 C4217 1.388 . S
C4216 C4215 1.366 . S
C4216 C4220 1.385 . S
C4217 H4192 0.951 . S
C4217 C4215 1.388 . S
C4217 C4218 1.366 . S
C4218 C4217 1.366 . S
C4218 C4219 1.414 . S
C4218 C4221 1.499 . S
C4219 H4193 0.950 . S
C4219 C4218 1.414 . S
C4219 C4220 1.374 . S
C4220 H4194 0.950 . S
C4220 C4216 1.385 . S
C4220 C4219 1.374 . S
C4221 C4218 1.499 . S
C4221 C4222 1.373 . S
C4221 C4223 1.389 . S
C4222 H4195 0.950 . S
C4222 C4208 1.377 . S
C4222 C4221 1.373 . S
C4223 C4207 1.377 . S
C4223 C4221 1.389 . S
C4223 C4224 1.524 . S
C4224 C4223 1.524 . S
C4224 C4225 1.397 . S
C4224 C4229 1.363 . S
C4225 H4196 0.950 . S
C4225 C4224 1.397 . S
C4225 C4226 1.334 . S
C4226 H4197 0.950 . S
C4226 C4225 1.334 . S
C4226 C4227 1.287 . S
C4227 C4226 1.287 . S
C4227 C4228 1.524 . S
C4227 H4230 0.999 . S
C4228 H4198 0.950 . S
C4228 C4227 1.524 . S
C4228 C4229 1.415 . S
C4229 H4199 0.950 . S
C4229 C4224 1.363 . S
C4229 C4228 1.415 . S
H4230 C4227 0.999 . S
H4231 C4212 0.913 . S
H4232 C4250 0.951 . S
H4233 C4252 0.951 . S
H4234 C4254 0.950 . S
H4235 C4255 0.950 . S
H4236 C4257 0.950 . S
H4237 C4260 0.950 . S
H4238 C4261 0.950 . S
H4239 C4263 0.950 . S
H4240 C4264 0.950 . S
H4241 C4265 0.951 . S
H4242 C4267 0.951 . S
H4243 C4269 0.950 . S
H4244 C4270 0.950 . S
H4245 C4272 0.950 . S
H4246 C4275 0.950 . S
H4247 C4276 0.950 . S
H4248 C4278 0.950 . S
H4249 C4279 0.950 . S
C4250 H4232 0.951 . S
C4250 C4251 1.366 . S
C4250 C4252 1.388 . S
C4251 C4250 1.366 . S
C4251 C4255 1.385 . S
C4252 H4233 0.951 . S
C4252 C4250 1.388 . S
C4252 C4253 1.366 . S
C4253 C4252 1.366 . S
C4253 C4254 1.414 . S
C4253 C4256 1.499 . S
C4254 H4234 0.950 . S
C4254 C4253 1.414 . S
C4254 C4255 1.374 . S
C4255 H4235 0.950 . S
C4255 C4251 1.385 . S
C4255 C4254 1.374 . S
C4256 C4253 1.499 . S
C4256 C4257 1.373 . S
C4256 C4258 1.389 . S
C4257 H4236 0.950 . S
C4257 C4256 1.373 . S
C4257 C4273 1.377 . S
C4258 C4256 1.389 . S
C4258 C4259 1.524 . S
C4258 C4272 1.377 . S
C4259 C4258 1.524 . S
C4259 C4260 1.397 . S
C4259 C4264 1.363 . S
C4260 H4237 0.950 . S
C4260 C4259 1.397 . S
C4260 C4261 1.334 . S
C4261 H4238 0.950 . S
C4261 C4260 1.334 . S
C4261 C4262 1.287 . S
C4262 C4261 1.287 . S
C4262 C4263 1.524 . S
C4262 H4281 0.913 . S
C4263 H4239 0.950 . S
C4263 C4262 1.524 . S
C4263 C4264 1.415 . S
C4264 H4240 0.950 . S
C4264 C4259 1.363 . S
C4264 C4263 1.415 . S
C4265 H4241 0.951 . S
C4265 C4266 1.366 . S
C4265 C4267 1.388 . S
C4266 C4265 1.366 . S
C4266 C4270 1.385 . S
C4267 H4242 0.951 . S
C4267 C4265 1.388 . S
C4267 C4268 1.366 . S
C4268 C4267 1.366 . S
C4268 C4269 1.414 . S
C4268 C4271 1.499 . S
C4269 H4243 0.950 . S
C4269 C4268 1.414 . S
C4269 C4270 1.374 . S
C4270 H4244 0.950 . S
C4270 C4266 1.385 . S
C4270 C4269 1.374 . S
C4271 C4268 1.499 . S
C4271 C4272 1.373 . S
C4271 C4273 1.389 . S
C4272 H4245 0.950 . S
C4272 C4258 1.377 . S
C4272 C4271 1.373 . S
C4273 C4257 1.377 . S
C4273 C4271 1.389 . S
C4273 C4274 1.524 . S
C4274 C4273 1.524 . S
C4274 C4275 1.397 . S
C4274 C4279 1.363 . S
C4275 H4246 0.950 . S
C4275 C4274 1.397 . S
C4275 C4276 1.334 . S
C4276 H4247 0.950 . S
C4276 C4275 1.334 . S
C4276 C4277 1.287 . S
C4277 C4276 1.287 . S
C4277 C4278 1.524 . S
C4277 H4280 0.999 . S
C4278 H4248 0.950 . S
C4278 C4277 1.524 . S
C4278 C4279 1.415 . S
C4279 H4249 0.950 . S
C4279 C4274 1.363 . S
C4279 C4278 1.415 . S
H4280 C4277 0.999 . S
H4281 C4262 0.913 . S
H4282 C4300 0.951 . S
H4283 C4302 0.951 . S
H4284 C4304 0.950 . S
H4285 C4305 0.950 . S
H4286 C4307 0.950 . S
H4287 C4310 0.950 . S
H4288 C4311 0.950 . S
H4289 C4313 0.950 . S
H4290 C4314 0.950 . S
H4291 C4315 0.951 . S
H4292 C4317 0.951 . S
H4293 C4319 0.950 . S
H4294 C4320 0.950 . S
H4295 C4322 0.950 . S
H4296 C4325 0.950 . S
H4297 C4326 0.950 . S
H4298 C4328 0.950 . S
H4299 C4329 0.950 . S
C4300 H4282 0.951 . S
C4300 C4301 1.366 . S
C4300 C4302 1.388 . S
C4301 C4300 1.366 . S
C4301 C4305 1.385 . S
C4302 H4283 0.951 . S
C4302 C4300 1.388 . S
C4302 C4303 1.366 . S
C4303 C4302 1.366 . S
C4303 C4304 1.414 . S
C4303 C4306 1.499 . S
C4304 H4284 0.950 . S
C4304 C4303 1.414 . S
C4304 C4305 1.374 . S
C4305 H4285 0.950 . S
C4305 C4301 1.385 . S
C4305 C4304 1.374 . S
C4306 C4303 1.499 . S
C4306 C4307 1.373 . S
C4306 C4308 1.389 . S
C4307 H4286 0.950 . S
C4307 C4306 1.373 . S
C4307 C4323 1.377 . S
C4308 C4306 1.389 . S
C4308 C4309 1.524 . S
C4308 C4322 1.377 . S
C4309 C4308 1.524 . S
C4309 C4310 1.397 . S
C4309 C4314 1.363 . S
C4310 H4287 0.950 . S
C4310 C4309 1.397 . S
C4310 C4311 1.334 . S
C4311 H4288 0.950 . S
C4311 C4310 1.334 . S
C4311 C4312 1.287 . S
C4312 C4311 1.287 . S
C4312 C4313 1.524 . S
C4312 H4331 0.913 . S
C4313 H4289 0.950 . S
C4313 C4312 1.524 . S
C4313 C4314 1.415 . S
C4314 H4290 0.950 . S
C4314 C4309 1.363 . S
C4314 C4313 1.415 . S
C4315 H4291 0.951 . S
C4315 C4316 1.366 . S
C4315 C4317 1.388 . S
C4316 C4315 1.366 . S
C4316 C4320 1.385 . S
C4317 H4292 0.951 . S
C4317 C4315 1.388 . S
C4317 C4318 1.366 . S
C4318 C4317 1.366 . S
C4318 C4319 1.414 . S
C4318 C4321 1.499 . S
C4319 H4293 0.950 . S
C4319 C4318 1.414 . S
C4319 C4320 1.374 . S
C4320 H4294 0.950 . S
C4320 C4316 1.385 . S
C4320 C4319 1.374 . S
C4321 C4318 1.499 . S
C4321 C4322 1.373 . S
C4321 C4323 1.389 . S
C4322 H4295 0.950 . S
C4322 C4308 1.377 . S
C4322 C4321 1.373 . S
C4323 C4307 1.377 . S
C4323 C4321 1.389 . S
C4323 C4324 1.524 . S
C4324 C4323 1.524 . S
C4324 C4325 1.397 . S
C4324 C4329 1.363 . S
C4325 H4296 0.950 . S
C4325 C4324 1.397 . S
C4325 C4326 1.334 . S
C4326 H4297 0.950 . S
C4326 C4325 1.334 . S
C4326 C4327 1.287 . S
C4327 C4326 1.287 . S
C4327 C4328 1.524 . S
C4327 H4330 0.999 . S
C4328 H4298 0.950 . S
C4328 C4327 1.524 . S
C4328 C4329 1.415 . S
C4329 H4299 0.950 . S
C4329 C4324 1.363 . S
C4329 C4328 1.415 . S
H4330 C4327 0.999 . S
H4331 C4312 0.913 . S
H4332 C4350 0.951 . S
H4333 C4352 0.951 . S
H4334 C4354 0.950 . S
H4335 C4355 0.950 . S
H4336 C4357 0.950 . S
H4337 C4360 0.950 . S
H4338 C4361 0.950 . S
H4339 C4363 0.950 . S
H4340 C4364 0.950 . S
H4341 C4365 0.951 . S
H4342 C4367 0.951 . S
H4343 C4369 0.950 . S
H4344 C4370 0.950 . S
H4345 C4372 0.950 . S
H4346 C4375 0.950 . S
H4347 C4376 0.950 . S
H4348 C4378 0.950 . S
H4349 C4379 0.950 . S
C4350 H4332 0.951 . S
C4350 C4351 1.366 . S
C4350 C4352 1.388 . S
C4351 C4350 1.366 . S
C4351 C4355 1.385 . S
C4352 H4333 0.951 . S
C4352 C4350 1.388 . S
C4352 C4353 1.366 . S
C4353 C4352 1.366 . S
C4353 C4354 1.414 . S
C4353 C4356 1.499 . S
C4354 H4334 0.950 . S
C4354 C4353 1.414 . S
C4354 C4355 1.374 . S
C4355 H4335 0.950 . S
C4355 C4351 1.385 . S
C4355 C4354 1.374 . S
C4356 C4353 1.499 . S
C4356 C4357 1.373 . S
C4356 C4358 1.389 . S
C4357 H4336 0.950 . S
C4357 C4356 1.373 . S
C4357 C4373 1.377 . S
C4358 C4356 1.389 . S
C4358 C4359 1.524 . S
C4358 C4372 1.377 . S
C4359 C4358 1.524 . S
C4359 C4360 1.397 . S
C4359 C4364 1.363 . S
C4360 H4337 0.950 . S
C4360 C4359 1.397 . S
C4360 C4361 1.334 . S
C4361 H4338 0.950 . S
C4361 C4360 1.334 . S
C4361 C4362 1.287 . S
C4362 C4361 1.287 . S
C4362 C4363 1.524 . S
C4362 H4381 0.913 . S
C4363 H4339 0.950 . S
C4363 C4362 1.524 . S
C4363 C4364 1.415 . S
C4364 H4340 0.950 . S
C4364 C4359 1.363 . S
C4364 C4363 1.415 . S
C4365 H4341 0.951 . S
C4365 C4366 1.366 . S
C4365 C4367 1.388 . S
C4366 C4365 1.366 . S
C4366 C4370 1.385 . S
C4367 H4342 0.951 . S
C4367 C4365 1.388 . S
C4367 C4368 1.366 . S
C4368 C4367 1.366 . S
C4368 C4369 1.414 . S
C4368 C4371 1.499 . S
C4369 H4343 0.950 . S
C4369 C4368 1.414 . S
C4369 C4370 1.374 . S
C4370 H4344 0.950 . S
C4370 C4366 1.385 . S
C4370 C4369 1.374 . S
C4371 C4368 1.499 . S
C4371 C4372 1.373 . S
C4371 C4373 1.389 . S
C4372 H4345 0.950 . S
C4372 C4358 1.377 . S
C4372 C4371 1.373 . S
C4373 C4357 1.377 . S
C4373 C4371 1.389 . S
C4373 C4374 1.524 . S
C4374 C4373 1.524 . S
C4374 C4375 1.397 . S
C4374 C4379 1.363 . S
C4375 H4346 0.950 . S
C4375 C4374 1.397 . S
C4375 C4376 1.334 . S
C4376 H4347 0.950 . S
C4376 C4375 1.334 . S
C4376 C4377 1.287 . S
C4377 C4376 1.287 . S
C4377 C4378 1.524 . S
C4377 H4380 0.999 . S
C4378 H4348 0.950 . S
C4378 C4377 1.524 . S
C4378 C4379 1.415 . S
C4379 H4349 0.950 . S
C4379 C4374 1.363 . S
C4379 C4378 1.415 . S
H4380 C4377 0.999 . S
H4381 C4362 0.913 . S
H4382 C4400 0.951 . S
H4383 C4402 0.951 . S
H4384 C4404 0.950 . S
H4385 C4405 0.950 . S
H4386 C4407 0.950 . S
H4387 C4410 0.950 . S
H4388 C4411 0.950 . S
H4389 C4413 0.950 . S
H4390 C4414 0.950 . S
H4391 C4415 0.951 . S
H4392 C4417 0.951 . S
H4393 C4419 0.950 . S
H4394 C4420 0.950 . S
H4395 C4422 0.950 . S
H4396 C4425 0.950 . S
H4397 C4426 0.950 . S
H4398 C4428 0.950 . S
H4399 C4429 0.950 . S
C4400 H4382 0.951 . S
C4400 C4401 1.366 . S
C4400 C4402 1.388 . S
C4401 C4400 1.366 . S
C4401 C4405 1.385 . S
C4402 H4383 0.951 . S
C4402 C4400 1.388 . S
C4402 C4403 1.366 . S
C4403 C4402 1.366 . S
C4403 C4404 1.414 . S
C4403 C4406 1.499 . S
C4404 H4384 0.950 . S
C4404 C4403 1.414 . S
C4404 C4405 1.374 . S
C4405 H4385 0.950 . S
C4405 C4401 1.385 . S
C4405 C4404 1.374 . S
C4406 C4403 1.499 . S
C4406 C4407 1.373 . S
C4406 C4408 1.389 . S
C4407 H4386 0.950 . S
C4407 C4406 1.373 . S
C4407 C4423 1.377 . S
C4408 C4406 1.389 . S
C4408 C4409 1.524 . S
C4408 C4422 1.377 . S
C4409 C4408 1.524 . S
C4409 C4410 1.397 . S
C4409 C4414 1.363 . S
C4410 H4387 0.950 . S
C4410 C4409 1.397 . S
C4410 C4411 1.334 . S
C4411 H4388 0.950 . S
C4411 C4410 1.334 . S
C4411 C4412 1.287 . S
C4412 C4411 1.287 . S
C4412 C4413 1.524 . S
C4412 H4431 0.913 . S
C4413 H4389 0.950 . S
C4413 C4412 1.524 . S
C4413 C4414 1.415 . S
C4414 H4390 0.950 . S
C4414 C4409 1.363 . S
C4414 C4413 1.415 . S
C4415 H4391 0.951 . S
C4415 C4416 1.366 . S
C4415 C4417 1.388 . S
C4416 C4415 1.366 . S
C4416 C4420 1.385 . S
C4417 H4392 0.951 . S
C4417 C4415 1.388 . S
C4417 C4418 1.366 . S
C4418 C4417 1.366 . S
C4418 C4419 1.414 . S
C4418 C4421 1.499 . S
C4419 H4393 0.950 . S
C4419 C4418 1.414 . S
C4419 C4420 1.374 . S
C4420 H4394 0.950 . S
C4420 C4416 1.385 . S
C4420 C4419 1.374 . S
C4421 C4418 1.499 . S
C4421 C4422 1.373 . S
C4421 C4423 1.389 . S
C4422 H4395 0.950 . S
C4422 C4408 1.377 . S
C4422 C4421 1.373 . S
C4423 C4407 1.377 . S
C4423 C4421 1.389 . S
C4423 C4424 1.524 . S
C4424 C4423 1.524 . S
C4424 C4425 1.397 . S
C4424 C4429 1.363 . S
C4425 H4396 0.950 . S
C4425 C4424 1.397 . S
C4425 C4426 1.334 . S
C4426 H4397 0.950 . S
C4426 C4425 1.334 . S
C4426 C4427 1.287 . S
C4427 C4426 1.287 . S
C4427 C4428 1.524 . S
C4427 H4430 0.999 . S
C4428 H4398 0.950 . S
C4428 C4427 1.524 . S
C4428 C4429 1.415 . S
C4429 H4399 0.950 . S
C4429 C4424 1.363 . S
C4429 C4428 1.415 . S
H4430 C4427 0.999 . S
H4431 C4412 0.913 . S
H4432 C4450 0.951 . S
H4433 C4452 0.951 . S
H4434 C4454 0.950 . S
H4435 C4455 0.950 . S
H4436 C4457 0.950 . S
H4437 C4460 0.950 . S
H4438 C4461 0.950 . S
H4439 C4463 0.950 . S
H4440 C4464 0.950 . S
H4441 C4465 0.951 . S
H4442 C4467 0.951 . S
H4443 C4469 0.950 . S
H4444 C4470 0.950 . S
H4445 C4472 0.950 . S
H4446 C4475 0.950 . S
H4447 C4476 0.950 . S
H4448 C4478 0.950 . S
H4449 C4479 0.950 . S
C4450 H4432 0.951 . S
C4450 C4451 1.366 . S
C4450 C4452 1.388 . S
C4451 C4450 1.366 . S
C4451 C4455 1.385 . S
C4452 H4433 0.951 . S
C4452 C4450 1.388 . S
C4452 C4453 1.366 . S
C4453 C4452 1.366 . S
C4453 C4454 1.414 . S
C4453 C4456 1.499 . S
C4454 H4434 0.950 . S
C4454 C4453 1.414 . S
C4454 C4455 1.374 . S
C4455 H4435 0.950 . S
C4455 C4451 1.385 . S
C4455 C4454 1.374 . S
C4456 C4453 1.499 . S
C4456 C4457 1.373 . S
C4456 C4458 1.389 . S
C4457 H4436 0.950 . S
C4457 C4456 1.373 . S
C4457 C4473 1.377 . S
C4458 C4456 1.389 . S
C4458 C4459 1.524 . S
C4458 C4472 1.377 . S
C4459 C4458 1.524 . S
C4459 C4460 1.397 . S
C4459 C4464 1.363 . S
C4460 H4437 0.950 . S
C4460 C4459 1.397 . S
C4460 C4461 1.334 . S
C4461 H4438 0.950 . S
C4461 C4460 1.334 . S
C4461 C4462 1.287 . S
C4462 C4461 1.287 . S
C4462 C4463 1.524 . S
C4462 H4481 0.913 . S
C4463 H4439 0.950 . S
C4463 C4462 1.524 . S
C4463 C4464 1.415 . S
C4464 H4440 0.950 . S
C4464 C4459 1.363 . S
C4464 C4463 1.415 . S
C4465 H4441 0.951 . S
C4465 C4466 1.366 . S
C4465 C4467 1.388 . S
C4466 C4465 1.366 . S
C4466 C4470 1.385 . S
C4467 H4442 0.951 . S
C4467 C4465 1.388 . S
C4467 C4468 1.366 . S
C4468 C4467 1.366 . S
C4468 C4469 1.414 . S
C4468 C4471 1.499 . S
C4469 H4443 0.950 . S
C4469 C4468 1.414 . S
C4469 C4470 1.374 . S
C4470 H4444 0.950 . S
C4470 C4466 1.385 . S
C4470 C4469 1.374 . S
C4471 C4468 1.499 . S
C4471 C4472 1.373 . S
C4471 C4473 1.389 . S
C4472 H4445 0.950 . S
C4472 C4458 1.377 . S
C4472 C4471 1.373 . S
C4473 C4457 1.377 . S
C4473 C4471 1.389 . S
C4473 C4474 1.524 . S
C4474 C4473 1.524 . S
C4474 C4475 1.397 . S
C4474 C4479 1.363 . S
C4475 H4446 0.950 . S
C4475 C4474 1.397 . S
C4475 C4476 1.334 . S
C4476 H4447 0.950 . S
C4476 C4475 1.334 . S
C4476 C4477 1.287 . S
C4477 C4476 1.287 . S
C4477 C4478 1.524 . S
C4477 H4480 0.999 . S
C4478 H4448 0.950 . S
C4478 C4477 1.524 . S
C4478 C4479 1.415 . S
C4479 H4449 0.950 . S
C4479 C4474 1.363 . S
C4479 C4478 1.415 . S
H4480 C4477 0.999 . S
H4481 C4462 0.913 . S
H4482 C4500 0.951 . S
H4483 C4502 0.951 . S
H4484 C4504 0.950 . S
H4485 C4505 0.950 . S
H4486 C4507 0.950 . S
H4487 C4510 0.950 . S
H4488 C4511 0.950 . S
H4489 C4513 0.950 . S
H4490 C4514 0.950 . S
H4491 C4515 0.951 . S
H4492 C4517 0.951 . S
H4493 C4519 0.950 . S
H4494 C4520 0.950 . S
H4495 C4522 0.950 . S
H4496 C4525 0.950 . S
H4497 C4526 0.950 . S
H4498 C4528 0.950 . S
H4499 C4529 0.950 . S
C4500 H4482 0.951 . S
C4500 C4501 1.366 . S
C4500 C4502 1.388 . S
C4501 C4500 1.366 . S
C4501 C4505 1.385 . S
C4502 H4483 0.951 . S
C4502 C4500 1.388 . S
C4502 C4503 1.366 . S
C4503 C4502 1.366 . S
C4503 C4504 1.414 . S
C4503 C4506 1.499 . S
C4504 H4484 0.950 . S
C4504 C4503 1.414 . S
C4504 C4505 1.374 . S
C4505 H4485 0.950 . S
C4505 C4501 1.385 . S
C4505 C4504 1.374 . S
C4506 C4503 1.499 . S
C4506 C4507 1.373 . S
C4506 C4508 1.389 . S
C4507 H4486 0.950 . S
C4507 C4506 1.373 . S
C4507 C4523 1.377 . S
C4508 C4506 1.389 . S
C4508 C4509 1.524 . S
C4508 C4522 1.377 . S
C4509 C4508 1.524 . S
C4509 C4510 1.397 . S
C4509 C4514 1.363 . S
C4510 H4487 0.950 . S
C4510 C4509 1.397 . S
C4510 C4511 1.334 . S
C4511 H4488 0.950 . S
C4511 C4510 1.334 . S
C4511 C4512 1.287 . S
C4512 C4511 1.287 . S
C4512 C4513 1.524 . S
C4512 H4531 0.913 . S
C4513 H4489 0.950 . S
C4513 C4512 1.524 . S
C4513 C4514 1.415 . S
C4514 H4490 0.950 . S
C4514 C4509 1.363 . S
C4514 C4513 1.415 . S
C4515 H4491 0.951 . S
C4515 C4516 1.366 . S
C4515 C4517 1.388 . S
C4516 C4515 1.366 . S
C4516 C4520 1.385 . S
C4517 H4492 0.951 . S
C4517 C4515 1.388 . S
C4517 C4518 1.366 . S
C4518 C4517 1.366 . S
C4518 C4519 1.414 . S
C4518 C4521 1.499 . S
C4519 H4493 0.950 . S
C4519 C4518 1.414 . S
C4519 C4520 1.374 . S
C4520 H4494 0.950 . S
C4520 C4516 1.385 . S
C4520 C4519 1.374 . S
C4521 C4518 1.499 . S
C4521 C4522 1.373 . S
C4521 C4523 1.389 . S
C4522 H4495 0.950 . S
C4522 C4508 1.377 . S
C4522 C4521 1.373 . S
C4523 C4507 1.377 . S
C4523 C4521 1.389 . S
C4523 C4524 1.524 . S
C4524 C4523 1.524 . S
C4524 C4525 1.397 . S
C4524 C4529 1.363 . S
C4525 H4496 0.950 . S
C4525 C4524 1.397 . S
C4525 C4526 1.334 . S
C4526 H4497 0.950 . S
C4526 C4525 1.334 . S
C4526 C4527 1.287 . S
C4527 C4526 1.287 . S
C4527 C4528 1.524 . S
C4527 H4530 0.999 . S
C4528 H4498 0.950 . S
C4528 C4527 1.524 . S
C4528 C4529 1.415 . S
C4529 H4499 0.950 . S
C4529 C4524 1.363 . S
C4529 C4528 1.415 . S
H4530 C4527 0.999 . S
H4531 C4512 0.913 . S
H4532 C4550 0.951 . S
H4533 C4552 0.951 . S
H4534 C4554 0.950 . S
H4535 C4555 0.950 . S
H4536 C4557 0.950 . S
H4537 C4560 0.950 . S
H4538 C4561 0.950 . S
H4539 C4563 0.950 . S
H4540 C4564 0.950 . S
H4541 C4565 0.951 . S
H4542 C4567 0.951 . S
H4543 C4569 0.950 . S
H4544 C4570 0.950 . S
H4545 C4572 0.950 . S
H4546 C4575 0.950 . S
H4547 C4576 0.950 . S
H4548 C4578 0.950 . S
H4549 C4579 0.950 . S
C4550 H4532 0.951 . S
C4550 C4551 1.366 . S
C4550 C4552 1.388 . S
C4551 C4550 1.366 . S
C4551 C4555 1.385 . S
C4552 H4533 0.951 . S
C4552 C4550 1.388 . S
C4552 C4553 1.366 . S
C4553 C4552 1.366 . S
C4553 C4554 1.414 . S
C4553 C4556 1.499 . S
C4554 H4534 0.950 . S
C4554 C4553 1.414 . S
C4554 C4555 1.374 . S
C4555 H4535 0.950 . S
C4555 C4551 1.385 . S
C4555 C4554 1.374 . S
C4556 C4553 1.499 . S
C4556 C4557 1.373 . S
C4556 C4558 1.389 . S
C4557 H4536 0.950 . S
C4557 C4556 1.373 . S
C4557 C4573 1.377 . S
C4558 C4556 1.389 . S
C4558 C4559 1.524 . S
C4558 C4572 1.377 . S
C4559 C4558 1.524 . S
C4559 C4560 1.397 . S
C4559 C4564 1.363 . S
C4560 H4537 0.950 . S
C4560 C4559 1.397 . S
C4560 C4561 1.334 . S
C4561 H4538 0.950 . S
C4561 C4560 1.334 . S
C4561 C4562 1.287 . S
C4562 C4561 1.287 . S
C4562 C4563 1.524 . S
C4562 H4581 0.913 . S
C4563 H4539 0.950 . S
C4563 C4562 1.524 . S
C4563 C4564 1.415 . S
C4564 H4540 0.950 . S
C4564 C4559 1.363 . S
C4564 C4563 1.415 . S
C4565 H4541 0.951 . S
C4565 C4566 1.366 . S
C4565 C4567 1.388 . S
C4566 C4565 1.366 . S
C4566 C4570 1.385 . S
C4567 H4542 0.951 . S
C4567 C4565 1.388 . S
C4567 C4568 1.366 . S
C4568 C4567 1.366 . S
C4568 C4569 1.414 . S
C4568 C4571 1.499 . S
C4569 H4543 0.950 . S
C4569 C4568 1.414 . S
C4569 C4570 1.374 . S
C4570 H4544 0.950 . S
C4570 C4566 1.385 . S
C4570 C4569 1.374 . S
C4571 C4568 1.499 . S
C4571 C4572 1.373 . S
C4571 C4573 1.389 . S
C4572 H4545 0.950 . S
C4572 C4558 1.377 . S
C4572 C4571 1.373 . S
C4573 C4557 1.377 . S
C4573 C4571 1.389 . S
C4573 C4574 1.524 . S
C4574 C4573 1.524 . S
C4574 C4575 1.397 . S
C4574 C4579 1.363 . S
C4575 H4546 0.950 . S
C4575 C4574 1.397 . S
C4575 C4576 1.334 . S
C4576 H4547 0.950 . S
C4576 C4575 1.334 . S
C4576 C4577 1.287 . S
C4577 C4576 1.287 . S
C4577 C4578 1.524 . S
C4577 H4580 0.999 . S
C4578 H4548 0.950 . S
C4578 C4577 1.524 . S
C4578 C4579 1.415 . S
C4579 H4549 0.950 . S
C4579 C4574 1.363 . S
C4579 C4578 1.415 . S
H4580 C4577 0.999 . S
H4581 C4562 0.913 . S
H4582 C4600 0.951 . S
H4583 C4602 0.951 . S
H4584 C4604 0.950 . S
H4585 C4605 0.950 . S
H4586 C4607 0.950 . S
H4587 C4610 0.950 . S
H4588 C4611 0.950 . S
H4589 C4613 0.950 . S
H4590 C4614 0.950 . S
H4591 C4615 0.951 . S
H4592 C4617 0.951 . S
H4593 C4619 0.950 . S
H4594 C4620 0.950 . S
H4595 C4622 0.950 . S
H4596 C4625 0.950 . S
H4597 C4626 0.950 . S
H4598 C4628 0.950 . S
H4599 C4629 0.950 . S
C4600 H4582 0.951 . S
C4600 C4601 1.366 . S
C4600 C4602 1.388 . S
C4601 C4600 1.366 . S
C4601 C4605 1.385 . S
C4602 H4583 0.951 . S
C4602 C4600 1.388 . S
C4602 C4603 1.366 . S
C4603 C4602 1.366 . S
C4603 C4604 1.414 . S
C4603 C4606 1.499 . S
C4604 H4584 0.950 . S
C4604 C4603 1.414 . S
C4604 C4605 1.374 . S
C4605 H4585 0.950 . S
C4605 C4601 1.385 . S
C4605 C4604 1.374 . S
C4606 C4603 1.499 . S
C4606 C4607 1.373 . S
C4606 C4608 1.389 . S
C4607 H4586 0.950 . S
C4607 C4606 1.373 . S
C4607 C4623 1.377 . S
C4608 C4606 1.389 . S
C4608 C4609 1.524 . S
C4608 C4622 1.377 . S
C4609 C4608 1.524 . S
C4609 C4610 1.397 . S
C4609 C4614 1.363 . S
C4610 H4587 0.950 . S
C4610 C4609 1.397 . S
C4610 C4611 1.334 . S
C4611 H4588 0.950 . S
C4611 C4610 1.334 . S
C4611 C4612 1.287 . S
C4612 C4611 1.287 . S
C4612 C4613 1.524 . S
C4612 H4631 0.913 . S
C4613 H4589 0.950 . S
C4613 C4612 1.524 . S
C4613 C4614 1.415 . S
C4614 H4590 0.950 . S
C4614 C4609 1.363 . S
C4614 C4613 1.415 . S
C4615 H4591 0.951 . S
C4615 C4616 1.366 . S
C4615 C4617 1.388 . S
C4616 C4615 1.366 . S
C4616 C4620 1.385 . S
C4617 H4592 0.951 . S
C4617 C4615 1.388 . S
C4617 C4618 1.366 . S
C4618 C4617 1.366 . S
C4618 C4619 1.414 . S
C4618 C4621 1.499 . S
C4619 H4593 0.950 . S
C4619 C4618 1.414 . S
C4619 C4620 1.374 . S
C4620 H4594 0.950 . S
C4620 C4616 1.385 . S
C4620 C4619 1.374 . S
C4621 C4618 1.499 . S
C4621 C4622 1.373 . S
C4621 C4623 1.389 . S
C4622 H4595 0.950 . S
C4622 C4608 1.377 . S
C4622 C4621 1.373 . S
C4623 C4607 1.377 . S
C4623 C4621 1.389 . S
C4623 C4624 1.524 . S
C4624 C4623 1.524 . S
C4624 C4625 1.397 . S
C4624 C4629 1.363 . S
C4625 H4596 0.950 . S
C4625 C4624 1.397 . S
C4625 C4626 1.334 . S
C4626 H4597 0.950 . S
C4626 C4625 1.334 . S
C4626 C4627 1.287 . S
C4627 C4626 1.287 . S
C4627 C4628 1.524 . S
C4627 H4630 0.999 . S
C4628 H4598 0.950 . S
C4628 C4627 1.524 . S
C4628 C4629 1.415 . S
C4629 H4599 0.950 . S
C4629 C4624 1.363 . S
C4629 C4628 1.415 . S
H4630 C4627 0.999 . S
H4631 C4612 0.913 . S
H4632 C4650 0.951 . S
H4633 C4652 0.951 . S
H4634 C4654 0.950 . S
H4635 C4655 0.950 . S
H4636 C4657 0.950 . S
H4637 C4660 0.950 . S
H4638 C4661 0.950 . S
H4639 C4663 0.950 . S
H4640 C4664 0.950 . S
H4641 C4665 0.951 . S
H4642 C4667 0.951 . S
H4643 C4669 0.950 . S
H4644 C4670 0.950 . S
H4645 C4672 0.950 . S
H4646 C4675 0.950 . S
H4647 C4676 0.950 . S
H4648 C4678 0.950 . S
H4649 C4679 0.950 . S
C4650 H4632 0.951 . S
C4650 C4651 1.366 . S
C4650 C4652 1.388 . S
C4651 C4650 1.366 . S
C4651 C4655 1.385 . S
C4652 H4633 0.951 . S
C4652 C4650 1.388 . S
C4652 C4653 1.366 . S
C4653 C4652 1.366 . S
C4653 C4654 1.414 . S
C4653 C4656 1.499 . S
C4654 H4634 0.950 . S
C4654 C4653 1.414 . S
C4654 C4655 1.374 . S
C4655 H4635 0.950 . S
C4655 C4651 1.385 . S
C4655 C4654 1.374 . S
C4656 C4653 1.499 . S
C4656 C4657 1.373 . S
C4656 C4658 1.389 . S
C4657 H4636 0.950 . S
C4657 C4656 1.373 . S
C4657 C4673 1.377 . S
C4658 C4656 1.389 . S
C4658 C4659 1.524 . S
C4658 C4672 1.377 . S
C4659 C4658 1.524 . S
C4659 C4660 1.397 . S
C4659 C4664 1.363 . S
C4660 H4637 0.950 . S
C4660 C4659 1.397 . S
C4660 C4661 1.334 . S
C4661 H4638 0.950 . S
C4661 C4660 1.334 . S
C4661 C4662 1.287 . S
C4662 C4661 1.287 . S
C4662 C4663 1.524 . S
C4662 H4681 0.913 . S
C4663 H4639 0.950 . S
C4663 C4662 1.524 . S
C4663 C4664 1.415 . S
C4664 H4640 0.950 . S
C4664 C4659 1.363 . S
C4664 C4663 1.415 . S
C4665 H4641 0.951 . S
C4665 C4666 1.366 . S
C4665 C4667 1.388 . S
C4666 C4665 1.366 . S
C4666 C4670 1.385 . S
C4667 H4642 0.951 . S
C4667 C4665 1.388 . S
C4667 C4668 1.366 . S
C4668 C4667 1.366 . S
C4668 C4669 1.414 . S
C4668 C4671 1.499 . S
C4669 H4643 0.950 . S
C4669 C4668 1.414 . S
C4669 C4670 1.374 . S
C4670 H4644 0.950 . S
C4670 C4666 1.385 . S
C4670 C4669 1.374 . S
C4671 C4668 1.499 . S
C4671 C4672 1.373 . S
C4671 C4673 1.389 . S
C4672 H4645 0.950 . S
C4672 C4658 1.377 . S
C4672 C4671 1.373 . S
C4673 C4657 1.377 . S
C4673 C4671 1.389 . S
C4673 C4674 1.524 . S
C4674 C4673 1.524 . S
C4674 C4675 1.397 . S
C4674 C4679 1.363 . S
C4675 H4646 0.950 . S
C4675 C4674 1.397 . S
C4675 C4676 1.334 . S
C4676 H4647 0.950 . S
C4676 C4675 1.334 . S
C4676 C4677 1.287 . S
C4677 C4676 1.287 . S
C4677 C4678 1.524 . S
C4677 H4680 0.999 . S
C4678 H4648 0.950 . S
C4678 C4677 1.524 . S
C4678 C4679 1.415 . S
C4679 H4649 0.950 . S
C4679 C4674 1.363 . S
C4679 C4678 1.415 . S
H4680 C4677 0.999 . S
H4681 C4662 0.913 . S
H4682 C4700 0.951 . S
H4683 C4702 0.951 . S
H4684 C4704 0.950 . S
H4685 C4705 0.950 . S
H4686 C4707 0.950 . S
H4687 C4710 0.950 . S
H4688 C4711 0.950 . S
H4689 C4713 0.950 . S
H4690 C4714 0.950 . S
H4691 C4715 0.951 . S
H4692 C4717 0.951 . S
H4693 C4719 0.950 . S
H4694 C4720 0.950 . S
H4695 C4722 0.950 . S
H4696 C4725 0.950 . S
H4697 C4726 0.950 . S
H4698 C4728 0.950 . S
H4699 C4729 0.950 . S
C4700 H4682 0.951 . S
C4700 C4701 1.366 . S
C4700 C4702 1.388 . S
C4701 C4700 1.366 . S
C4701 C4705 1.385 . S
C4702 H4683 0.951 . S
C4702 C4700 1.388 . S
C4702 C4703 1.366 . S
C4703 C4702 1.366 . S
C4703 C4704 1.414 . S
C4703 C4706 1.499 . S
C4704 H4684 0.950 . S
C4704 C4703 1.414 . S
C4704 C4705 1.374 . S
C4705 H4685 0.950 . S
C4705 C4701 1.385 . S
C4705 C4704 1.374 . S
C4706 C4703 1.499 . S
C4706 C4707 1.373 . S
C4706 C4708 1.389 . S
C4707 H4686 0.950 . S
C4707 C4706 1.373 . S
C4707 C4723 1.377 . S
C4708 C4706 1.389 . S
C4708 C4709 1.524 . S
C4708 C4722 1.377 . S
C4709 C4708 1.524 . S
C4709 C4710 1.397 . S
C4709 C4714 1.363 . S
C4710 H4687 0.950 . S
C4710 C4709 1.397 . S
C4710 C4711 1.334 . S
C4711 H4688 0.950 . S
C4711 C4710 1.334 . S
C4711 C4712 1.287 . S
C4712 C4711 1.287 . S
C4712 C4713 1.524 . S
C4712 H4731 0.913 . S
C4713 H4689 0.950 . S
C4713 C4712 1.524 . S
C4713 C4714 1.415 . S
C4714 H4690 0.950 . S
C4714 C4709 1.363 . S
C4714 C4713 1.415 . S
C4715 H4691 0.951 . S
C4715 C4716 1.366 . S
C4715 C4717 1.388 . S
C4716 C4715 1.366 . S
C4716 C4720 1.385 . S
C4717 H4692 0.951 . S
C4717 C4715 1.388 . S
C4717 C4718 1.366 . S
C4718 C4717 1.366 . S
C4718 C4719 1.414 . S
C4718 C4721 1.499 . S
C4719 H4693 0.950 . S
C4719 C4718 1.414 . S
C4719 C4720 1.374 . S
C4720 H4694 0.950 . S
C4720 C4716 1.385 . S
C4720 C4719 1.374 . S
C4721 C4718 1.499 . S
C4721 C4722 1.373 . S
C4721 C4723 1.389 . S
C4722 H4695 0.950 . S
C4722 C4708 1.377 . S
C4722 C4721 1.373 . S
C4723 C4707 1.377 . S
C4723 C4721 1.389 . S
C4723 C4724 1.524 . S
C4724 C4723 1.524 . S
C4724 C4725 1.397 . S
C4724 C4729 1.363 . S
C4725 H4696 0.950 . S
C4725 C4724 1.397 . S
C4725 C4726 1.334 . S
C4726 H4697 0.950 . S
C4726 C4725 1.334 . S
C4726 C4727 1.287 . S
C4727 C4726 1.287 . S
C4727 C4728 1.524 . S
C4727 H4730 0.999 . S
C4728 H4698 0.950 . S
C4728 C4727 1.524 . S
C4728 C4729 1.415 . S
C4729 H4699 0.950 . S
C4729 C4724 1.363 . S
C4729 C4728 1.415 . S
H4730 C4727 0.999 . S
H4731 C4712 0.913 . S
H4732 C4750 0.951 . S
H4733 C4752 0.951 . S
H4734 C4754 0.950 . S
H4735 C4755 0.950 . S
H4736 C4757 0.950 . S
H4737 C4760 0.950 . S
H4738 C4761 0.950 . S
H4739 C4763 0.950 . S
H4740 C4764 0.950 . S
H4741 C4765 0.951 . S
H4742 C4767 0.951 . S
H4743 C4769 0.950 . S
H4744 C4770 0.950 . S
H4745 C4772 0.950 . S
H4746 C4775 0.950 . S
H4747 C4776 0.950 . S
H4748 C4778 0.950 . S
H4749 C4779 0.950 . S
C4750 H4732 0.951 . S
C4750 C4751 1.366 . S
C4750 C4752 1.388 . S
C4751 C4750 1.366 . S
C4751 C4755 1.385 . S
C4752 H4733 0.951 . S
C4752 C4750 1.388 . S
C4752 C4753 1.366 . S
C4753 C4752 1.366 . S
C4753 C4754 1.414 . S
C4753 C4756 1.499 . S
C4754 H4734 0.950 . S
C4754 C4753 1.414 . S
C4754 C4755 1.374 . S
C4755 H4735 0.950 . S
C4755 C4751 1.385 . S
C4755 C4754 1.374 . S
C4756 C4753 1.499 . S
C4756 C4757 1.373 . S
C4756 C4758 1.389 . S
C4757 H4736 0.950 . S
C4757 C4756 1.373 . S
C4757 C4773 1.377 . S
C4758 C4756 1.389 . S
C4758 C4759 1.524 . S
C4758 C4772 1.377 . S
C4759 C4758 1.524 . S
C4759 C4760 1.397 . S
C4759 C4764 1.363 . S
C4760 H4737 0.950 . S
C4760 C4759 1.397 . S
C4760 C4761 1.334 . S
C4761 H4738 0.950 . S
C4761 C4760 1.334 . S
C4761 C4762 1.287 . S
C4762 C4761 1.287 . S
C4762 C4763 1.524 . S
C4762 H4781 0.913 . S
C4763 H4739 0.950 . S
C4763 C4762 1.524 . S
C4763 C4764 1.415 . S
C4764 H4740 0.950 . S
C4764 C4759 1.363 . S
C4764 C4763 1.415 . S
C4765 H4741 0.951 . S
C4765 C4766 1.366 . S
C4765 C4767 1.388 . S
C4766 C4765 1.366 . S
C4766 C4770 1.385 . S
C4767 H4742 0.951 . S
C4767 C4765 1.388 . S
C4767 C4768 1.366 . S
C4768 C4767 1.366 . S
C4768 C4769 1.414 . S
C4768 C4771 1.499 . S
C4769 H4743 0.950 . S
C4769 C4768 1.414 . S
C4769 C4770 1.374 . S
C4770 H4744 0.950 . S
C4770 C4766 1.385 . S
C4770 C4769 1.374 . S
C4771 C4768 1.499 . S
C4771 C4772 1.373 . S
C4771 C4773 1.389 . S
C4772 H4745 0.950 . S
C4772 C4758 1.377 . S
C4772 C4771 1.373 . S
C4773 C4757 1.377 . S
C4773 C4771 1.389 . S
C4773 C4774 1.524 . S
C4774 C4773 1.524 . S
C4774 C4775 1.397 . S
C4774 C4779 1.363 . S
C4775 H4746 0.950 . S
C4775 C4774 1.397 . S
C4775 C4776 1.334 . S
C4776 H4747 0.950 . S
C4776 C4775 1.334 . S
C4776 C4777 1.287 . S
C4777 C4776 1.287 . S
C4777 C4778 1.524 . S
C4777 H4780 0.999 . S
C4778 H4748 0.950 . S
C4778 C4777 1.524 . S
C4778 C4779 1.415 . S
C4779 H4749 0.950 . S
C4779 C4774 1.363 . S
C4779 C4778 1.415 . S
H4780 C4777 0.999 . S
H4781 C4762 0.913 . S
H4782 C4800 0.951 . S
H4783 C4802 0.951 . S
H4784 C4804 0.950 . S
H4785 C4805 0.950 . S
H4786 C4807 0.950 . S
H4787 C4810 0.950 . S
H4788 C4811 0.950 . S
H4789 C4813 0.950 . S
H4790 C4814 0.950 . S
H4791 C4815 0.951 . S
H4792 C4817 0.951 . S
H4793 C4819 0.950 . S
H4794 C4820 0.950 . S
H4795 C4822 0.950 . S
H4796 C4825 0.950 . S
H4797 C4826 0.950 . S
H4798 C4828 0.950 . S
H4799 C4829 0.950 . S
C4800 H4782 0.951 . S
C4800 C4801 1.366 . S
C4800 C4802 1.388 . S
C4801 C4800 1.366 . S
C4801 C4805 1.385 . S
C4802 H4783 0.951 . S
C4802 C4800 1.388 . S
C4802 C4803 1.366 . S
C4803 C4802 1.366 . S
C4803 C4804 1.414 . S
C4803 C4806 1.499 . S
C4804 H4784 0.950 . S
C4804 C4803 1.414 . S
C4804 C4805 1.374 . S
C4805 H4785 0.950 . S
C4805 C4801 1.385 . S
C4805 C4804 1.374 . S
C4806 C4803 1.499 . S
C4806 C4807 1.373 . S
C4806 C4808 1.389 . S
C4807 H4786 0.950 . S
C4807 C4806 1.373 . S
C4807 C4823 1.377 . S
C4808 C4806 1.389 . S
C4808 C4809 1.524 . S
C4808 C4822 1.377 . S
C4809 C4808 1.524 . S
C4809 C4810 1.397 . S
C4809 C4814 1.363 . S
C4810 H4787 0.950 . S
C4810 C4809 1.397 . S
C4810 C4811 1.334 . S
C4811 H4788 0.950 . S
C4811 C4810 1.334 . S
C4811 C4812 1.287 . S
C4812 C4811 1.287 . S
C4812 C4813 1.524 . S
C4812 H4831 0.913 . S
C4813 H4789 0.950 . S
C4813 C4812 1.524 . S
C4813 C4814 1.415 . S
C4814 H4790 0.950 . S
C4814 C4809 1.363 . S
C4814 C4813 1.415 . S
C4815 H4791 0.951 . S
C4815 C4816 1.366 . S
C4815 C4817 1.388 . S
C4816 C4815 1.366 . S
C4816 C4820 1.385 . S
C4817 H4792 0.951 . S
C4817 C4815 1.388 . S
C4817 C4818 1.366 . S
C4818 C4817 1.366 . S
C4818 C4819 1.414 . S
C4818 C4821 1.499 . S
C4819 H4793 0.950 . S
C4819 C4818 1.414 . S
C4819 C4820 1.374 . S
C4820 H4794 0.950 . S
C4820 C4816 1.385 . S
C4820 C4819 1.374 . S
C4821 C4818 1.499 . S
C4821 C4822 1.373 . S
C4821 C4823 1.389 . S
C4822 H4795 0.950 . S
C4822 C4808 1.377 . S
C4822 C4821 1.373 . S
C4823 C4807 1.377 . S
C4823 C4821 1.389 . S
C4823 C4824 1.524 . S
C4824 C4823 1.524 . S
C4824 C4825 1.397 . S
C4824 C4829 1.363 . S
C4825 H4796 0.950 . S
C4825 C4824 1.397 . S
C4825 C4826 1.334 . S
C4826 H4797 0.950 . S
C4826 C4825 1.334 . S
C4826 C4827 1.287 . S
C4827 C4826 1.287 . S
C4827 C4828 1.524 . S
C4827 H4830 0.999 . S
C4828 H4798 0.950 . S
C4828 C4827 1.524 . S
C4828 C4829 1.415 . S
C4829 H4799 0.950 . S
C4829 C4824 1.363 . S
C4829 C4828 1.415 . S
H4830 C4827 0.999 . S
H4831 C4812 0.913 . S
H4832 C4850 0.951 . S
H4833 C4852 0.951 . S
H4834 C4854 0.950 . S
H4835 C4855 0.950 . S
H4836 C4857 0.950 . S
H4837 C4860 0.950 . S
H4838 C4861 0.950 . S
H4839 C4863 0.950 . S
H4840 C4864 0.950 . S
H4841 C4865 0.951 . S
H4842 C4867 0.951 . S
H4843 C4869 0.950 . S
H4844 C4870 0.950 . S
H4845 C4872 0.950 . S
H4846 C4875 0.950 . S
H4847 C4876 0.950 . S
H4848 C4878 0.950 . S
H4849 C4879 0.950 . S
C4850 H4832 0.951 . S
C4850 C4851 1.366 . S
C4850 C4852 1.388 . S
C4851 C4850 1.366 . S
C4851 C4855 1.385 . S
C4852 H4833 0.951 . S
C4852 C4850 1.388 . S
C4852 C4853 1.366 . S
C4853 C4852 1.366 . S
C4853 C4854 1.414 . S
C4853 C4856 1.499 . S
C4854 H4834 0.950 . S
C4854 C4853 1.414 . S
C4854 C4855 1.374 . S
C4855 H4835 0.950 . S
C4855 C4851 1.385 . S
C4855 C4854 1.374 . S
C4856 C4853 1.499 . S
C4856 C4857 1.373 . S
C4856 C4858 1.389 . S
C4857 H4836 0.950 . S
C4857 C4856 1.373 . S
C4857 C4873 1.377 . S
C4858 C4856 1.389 . S
C4858 C4859 1.524 . S
C4858 C4872 1.377 . S
C4859 C4858 1.524 . S
C4859 C4860 1.397 . S
C4859 C4864 1.363 . S
C4860 H4837 0.950 . S
C4860 C4859 1.397 . S
C4860 C4861 1.334 . S
C4861 H4838 0.950 . S
C4861 C4860 1.334 . S
C4861 C4862 1.287 . S
C4862 C4861 1.287 . S
C4862 C4863 1.524 . S
C4862 H4881 0.913 . S
C4863 H4839 0.950 . S
C4863 C4862 1.524 . S
C4863 C4864 1.415 . S
C4864 H4840 0.950 . S
C4864 C4859 1.363 . S
C4864 C4863 1.415 . S
C4865 H4841 0.951 . S
C4865 C4866 1.366 . S
C4865 C4867 1.388 . S
C4866 C4865 1.366 . S
C4866 C4870 1.385 . S
C4867 H4842 0.951 . S
C4867 C4865 1.388 . S
C4867 C4868 1.366 . S
C4868 C4867 1.366 . S
C4868 C4869 1.414 . S
C4868 C4871 1.499 . S
C4869 H4843 0.950 . S
C4869 C4868 1.414 . S
C4869 C4870 1.374 . S
C4870 H4844 0.950 . S
C4870 C4866 1.385 . S
C4870 C4869 1.374 . S
C4871 C4868 1.499 . S
C4871 C4872 1.373 . S
C4871 C4873 1.389 . S
C4872 H4845 0.950 . S
C4872 C4858 1.377 . S
C4872 C4871 1.373 . S
C4873 C4857 1.377 . S
C4873 C4871 1.389 . S
C4873 C4874 1.524 . S
C4874 C4873 1.524 . S
C4874 C4875 1.397 . S
C4874 C4879 1.363 . S
C4875 H4846 0.950 . S
C4875 C4874 1.397 . S
C4875 C4876 1.334 . S
C4876 H4847 0.950 . S
C4876 C4875 1.334 . S
C4876 C4877 1.287 . S
C4877 C4876 1.287 . S
C4877 C4878 1.524 . S
C4877 H4880 0.999 . S
C4878 H4848 0.950 . S
C4878 C4877 1.524 . S
C4878 C4879 1.415 . S
C4879 H4849 0.950 . S
C4879 C4874 1.363 . S
C4879 C4878 1.415 . S
H4880 C4877 0.999 . S
H4881 C4862 0.913 . S
H4882 C4900 0.951 . S
H4883 C4902 0.951 . S
H4884 C4904 0.950 . S
H4885 C4905 0.950 . S
H4886 C4907 0.950 . S
H4887 C4910 0.950 . S
H4888 C4911 0.950 . S
H4889 C4913 0.950 . S
H4890 C4914 0.950 . S
H4891 C4915 0.951 . S
H4892 C4917 0.951 . S
H4893 C4919 0.950 . S
H4894 C4920 0.950 . S
H4895 C4922 0.950 . S
H4896 C4925 0.950 . S
H4897 C4926 0.950 . S
H4898 C4928 0.950 . S
H4899 C4929 0.950 . S
C4900 H4882 0.951 . S
C4900 C4901 1.366 . S
C4900 C4902 1.388 . S
C4901 C4900 1.366 . S
C4901 C4905 1.385 . S
C4902 H4883 0.951 . S
C4902 C4900 1.388 . S
C4902 C4903 1.366 . S
C4903 C4902 1.366 . S
C4903 C4904 1.414 . S
C4903 C4906 1.499 . S
C4904 H4884 0.950 . S
C4904 C4903 1.414 . S
C4904 C4905 1.374 . S
C4905 H4885 0.950 . S
C4905 C4901 1.385 . S
C4905 C4904 1.374 . S
C4906 C4903 1.499 . S
C4906 C4907 1.373 . S
C4906 C4908 1.389 . S
C4907 H4886 0.950 . S
C4907 C4906 1.373 . S
C4907 C4923 1.377 . S
C4908 C4906 1.389 . S
C4908 C4909 1.524 . S
C4908 C4922 1.377 . S
C4909 C4908 1.524 . S
C4909 C4910 1.397 . S
C4909 C4914 1.363 . S
C4910 H4887 0.950 . S
C4910 C4909 1.397 . S
C4910 C4911 1.334 . S
C4911 H4888 0.950 . S
C4911 C4910 1.334 . S
C4911 C4912 1.287 . S
C4912 C4911 1.287 . S
C4912 C4913 1.524 . S
C4912 H4931 0.913 . S
C4913 H4889 0.950 . S
C4913 C4912 1.524 . S
C4913 C4914 1.415 . S
C4914 H4890 0.950 . S
C4914 C4909 1.363 . S
C4914 C4913 1.415 . S
C4915 H4891 0.951 . S
C4915 C4916 1.366 . S
C4915 C4917 1.388 . S
C4916 C4915 1.366 . S
C4916 C4920 1.385 . S
C4917 H4892 0.951 . S
C4917 C4915 1.388 . S
C4917 C4918 1.366 . S
C4918 C4917 1.366 . S
C4918 C4919 1.414 . S
C4918 C4921 1.499 . S
C4919 H4893 0.950 . S
C4919 C4918 1.414 . S
C4919 C4920 1.374 . S
C4920 H4894 0.950 . S
C4920 C4916 1.385 . S
C4920 C4919 1.374 . S
C4921 C4918 1.499 . S
C4921 C4922 1.373 . S
C4921 C4923 1.389 . S
C4922 H4895 0.950 . S
C4922 C4908 1.377 . S
C4922 C4921 1.373 . S
C4923 C4907 1.377 . S
C4923 C4921 1.389 . S
C4923 C4924 1.524 . S
C4924 C4923 1.524 . S
C4924 C4925 1.397 . S
C4924 C4929 1.363 . S
C4925 H4896 0.950 . S
C4925 C4924 1.397 . S
C4925 C4926 1.334 . S
C4926 H4897 0.950 . S
C4926 C4925 1.334 . S
C4926 C4927 1.287 . S
C4927 C4926 1.287 . S
C4927 C4928 1.524 . S
C4927 H4930 0.999 . S
C4928 H4898 0.950 . S
C4928 C4927 1.524 . S
C4928 C4929 1.415 . S
C4929 H4899 0.950 . S
C4929 C4924 1.363 . S
C4929 C4928 1.415 . S
H4930 C4927 0.999 . S
H4931 C4912 0.913 . S
H4932 C4950 0.951 . S
H4933 C4952 0.951 . S
H4934 C4954 0.950 . S
H4935 C4955 0.950 . S
H4936 C4957 0.950 . S
H4937 C4960 0.950 . S
H4938 C4961 0.950 . S
H4939 C4963 0.950 . S
H4940 C4964 0.950 . S
H4941 C4965 0.951 . S
H4942 C4967 0.951 . S
H4943 C4969 0.950 . S
H4944 C4970 0.950 . S
H4945 C4972 0.950 . S
H4946 C4975 0.950 . S
H4947 C4976 0.950 . S
H4948 C4978 0.950 . S
H4949 C4979 0.950 . S
C4950 H4932 0.951 . S
C4950 C4951 1.366 . S
C4950 C4952 1.388 . S
C4951 C4950 1.366 . S
C4951 C4955 1.385 . S
C4952 H4933 0.951 . S
C4952 C4950 1.388 . S
C4952 C4953 1.366 . S
C4953 C4952 1.366 . S
C4953 C4954 1.414 . S
C4953 C4956 1.499 . S
C4954 H4934 0.950 . S
C4954 C4953 1.414 . S
C4954 C4955 1.374 . S
C4955 H4935 0.950 . S
C4955 C4951 1.385 . S
C4955 C4954 1.374 . S
C4956 C4953 1.499 . S
C4956 C4957 1.373 . S
C4956 C4958 1.389 . S
C4957 H4936 0.950 . S
C4957 C4956 1.373 . S
C4957 C4973 1.377 . S
C4958 C4956 1.389 . S
C4958 C4959 1.524 . S
C4958 C4972 1.377 . S
C4959 C4958 1.524 . S
C4959 C4960 1.397 . S
C4959 C4964 1.363 . S
C4960 H4937 0.950 . S
C4960 C4959 1.397 . S
C4960 C4961 1.334 . S
C4961 H4938 0.950 . S
C4961 C4960 1.334 . S
C4961 C4962 1.287 . S
C4962 C4961 1.287 . S
C4962 C4963 1.524 . S
C4962 H4981 0.913 . S
C4963 H4939 0.950 . S
C4963 C4962 1.524 . S
C4963 C4964 1.415 . S
C4964 H4940 0.950 . S
C4964 C4959 1.363 . S
C4964 C4963 1.415 . S
C4965 H4941 0.951 . S
C4965 C4966 1.366 . S
C4965 C4967 1.388 . S
C4966 C4965 1.366 . S
C4966 C4970 1.385 . S
C4967 H4942 0.951 . S
C4967 C4965 1.388 . S
C4967 C4968 1.366 . S
C4968 C4967 1.366 . S
C4968 C4969 1.414 . S
C4968 C4971 1.499 . S
C4969 H4943 0.950 . S
C4969 C4968 1.414 . S
C4969 C4970 1.374 . S
C4970 H4944 0.950 . S
C4970 C4966 1.385 . S
C4970 C4969 1.374 . S
C4971 C4968 1.499 . S
C4971 C4972 1.373 . S
C4971 C4973 1.389 . S
C4972 H4945 0.950 . S
C4972 C4958 1.377 . S
C4972 C4971 1.373 . S
C4973 C4957 1.377 . S
C4973 C4971 1.389 . S
C4973 C4974 1.524 . S
C4974 C4973 1.524 . S
C4974 C4975 1.397 . S
C4974 C4979 1.363 . S
C4975 H4946 0.950 . S
C4975 C4974 1.397 . S
C4975 C4976 1.334 . S
C4976 H4947 0.950 . S
C4976 C4975 1.334 . S
C4976 C4977 1.287 . S
C4977 C4976 1.287 . S
C4977 C4978 1.524 . S
C4977 H4980 0.999 . S
C4978 H4948 0.950 . S
C4978 C4977 1.524 . S
C4978 C4979 1.415 . S
C4979 H4949 0.950 . S
C4979 C4974 1.363 . S
C4979 C4978 1.415 . S
H4980 C4977 0.999 . S
H4981 C4962 0.913 . S
H4982 C5000 0.951 . S
H4983 C5002 0.951 . S
H4984 C5004 0.950 . S
H4985 C5005 0.950 . S
H4986 C5007 0.950 . S
H4987 C5010 0.950 . S
H4988 C5011 0.950 . S
H4989 C5013 0.950 . S
H4990 C5014 0.950 . S
H4991 C5015 0.951 . S
H4992 C5017 0.951 . S
H4993 C5019 0.950 . S
H4994 C5020 0.950 . S
H4995 C5022 0.950 . S
H4996 C5025 0.950 . S
H4997 C5026 0.950 . S
H4998 C5028 0.950 . S
H4999 C5029 0.950 . S
C5000 H4982 0.951 . S
C5000 C5001 1.366 . S
C5000 C5002 1.388 . S
C5001 C5000 1.366 . S
C5001 C5005 1.385 . S
C5002 H4983 0.951 . S
C5002 C5000 1.388 . S
C5002 C5003 1.366 . S
C5003 C5002 1.366 . S
C5003 C5004 1.414 . S
C5003 C5006 1.499 . S
C5004 H4984 0.950 . S
C5004 C5003 1.414 . S
C5004 C5005 1.374 . S
C5005 H4985 0.950 . S
C5005 C5001 1.385 . S
C5005 C5004 1.374 . S
C5006 C5003 1.499 . S
C5006 C5007 1.373 . S
C5006 C5008 1.389 . S
C5007 H4986 0.950 . S
C5007 C5006 1.373 . S
C5007 C5023 1.377 . S
C5008 C5006 1.389 . S
C5008 C5009 1.524 . S
C5008 C5022 1.377 . S
C5009 C5008 1.524 . S
C5009 C5010 1.397 . S
C5009 C5014 1.363 . S
C5010 H4987 0.950 . S
C5010 C5009 1.397 . S
C5010 C5011 1.334 . S
C5011 H4988 0.950 . S
C5011 C5010 1.334 . S
C5011 C5012 1.287 . S
C5012 C5011 1.287 . S
C5012 C5013 1.524 . S
C5012 H5031 0.913 . S
C5013 H4989 0.950 . S
C5013 C5012 1.524 . S
C5013 C5014 1.415 . S
C5014 H4990 0.950 . S
C5014 C5009 1.363 . S
C5014 C5013 1.415 . S
C5015 H4991 0.951 . S
C5015 C5016 1.366 . S
C5015 C5017 1.388 . S
C5016 C5015 1.366 . S
C5016 C5020 1.385 . S
C5017 H4992 0.951 . S
C5017 C5015 1.388 . S
C5017 C5018 1.366 . S
C5018 C5017 1.366 . S
C5018 C5019 1.414 . S
C5018 C5021 1.499 . S
C5019 H4993 0.950 . S
C5019 C5018 1.414 . S
C5019 C5020 1.374 . S
C5020 H4994 0.950 . S
C5020 C5016 1.385 . S
C5020 C5019 1.374 . S
C5021 C5018 1.499 . S
C5021 C5022 1.373 . S
C5021 C5023 1.389 . S
C5022 H4995 0.950 . S
C5022 C5008 1.377 . S
C5022 C5021 1.373 . S
C5023 C5007 1.377 . S
C5023 C5021 1.389 . S
C5023 C5024 1.524 . S
C5024 C5023 1.524 . S
C5024 C5025 1.397 . S
C5024 C5029 1.363 . S
C5025 H4996 0.950 . S
C5025 C5024 1.397 . S
C5025 C5026 1.334 . S
C5026 H4997 0.950 . S
C5026 C5025 1.334 . S
C5026 C5027 1.287 . S
C5027 C5026 1.287 . S
C5027 C5028 1.524 . S
C5027 H5030 0.999 . S
C5028 H4998 0.950 . S
C5028 C5027 1.524 . S
C5028 C5029 1.415 . S
C5029 H4999 0.950 . S
C5029 C5024 1.363 . S
C5029 C5028 1.415 . S
H5030 C5027 0.999 . S
H5031 C5012 0.913 . S
H5032 C5050 0.951 . S
H5033 C5052 0.951 . S
H5034 C5054 0.950 . S
H5035 C5055 0.950 . S
H5036 C5057 0.950 . S
H5037 C5060 0.950 . S
H5038 C5061 0.950 . S
H5039 C5063 0.950 . S
H5040 C5064 0.950 . S
H5041 C5065 0.951 . S
H5042 C5067 0.951 . S
H5043 C5069 0.950 . S
H5044 C5070 0.950 . S
H5045 C5072 0.950 . S
H5046 C5075 0.950 . S
H5047 C5076 0.950 . S
H5048 C5078 0.950 . S
H5049 C5079 0.950 . S
C5050 H5032 0.951 . S
C5050 C5051 1.366 . S
C5050 C5052 1.388 . S
C5051 C5050 1.366 . S
C5051 C5055 1.385 . S
C5052 H5033 0.951 . S
C5052 C5050 1.388 . S
C5052 C5053 1.366 . S
C5053 C5052 1.366 . S
C5053 C5054 1.414 . S
C5053 C5056 1.499 . S
C5054 H5034 0.950 . S
C5054 C5053 1.414 . S
C5054 C5055 1.374 . S
C5055 H5035 0.950 . S
C5055 C5051 1.385 . S
C5055 C5054 1.374 . S
C5056 C5053 1.499 . S
C5056 C5057 1.373 . S
C5056 C5058 1.389 . S
C5057 H5036 0.950 . S
C5057 C5056 1.373 . S
C5057 C5073 1.377 . S
C5058 C5056 1.389 . S
C5058 C5059 1.524 . S
C5058 C5072 1.377 . S
C5059 C5058 1.524 . S
C5059 C5060 1.397 . S
C5059 C5064 1.363 . S
C5060 H5037 0.950 . S
C5060 C5059 1.397 . S
C5060 C5061 1.334 . S
C5061 H5038 0.950 . S
C5061 C5060 1.334 . S
C5061 C5062 1.287 . S
C5062 C5061 1.287 . S
C5062 C5063 1.524 . S
C5062 H5081 0.913 . S
C5063 H5039 0.950 . S
C5063 C5062 1.524 . S
C5063 C5064 1.415 . S
C5064 H5040 0.950 . S
C5064 C5059 1.363 . S
C5064 C5063 1.415 . S
C5065 H5041 0.951 . S
C5065 C5066 1.366 . S
C5065 C5067 1.388 . S
C5066 C5065 1.366 . S
C5066 C5070 1.385 . S
C5067 H5042 0.951 . S
C5067 C5065 1.388 . S
C5067 C5068 1.366 . S
C5068 C5067 1.366 . S
C5068 C5069 1.414 . S
C5068 C5071 1.499 . S
C5069 H5043 0.950 . S
C5069 C5068 1.414 . S
C5069 C5070 1.374 . S
C5070 H5044 0.950 . S
C5070 C5066 1.385 . S
C5070 C5069 1.374 . S
C5071 C5068 1.499 . S
C5071 C5072 1.373 . S
C5071 C5073 1.389 . S
C5072 H5045 0.950 . S
C5072 C5058 1.377 . S
C5072 C5071 1.373 . S
C5073 C5057 1.377 . S
C5073 C5071 1.389 . S
C5073 C5074 1.524 . S
C5074 C5073 1.524 . S
C5074 C5075 1.397 . S
C5074 C5079 1.363 . S
C5075 H5046 0.950 . S
C5075 C5074 1.397 . S
C5075 C5076 1.334 . S
C5076 H5047 0.950 . S
C5076 C5075 1.334 . S
C5076 C5077 1.287 . S
C5077 C5076 1.287 . S
C5077 C5078 1.524 . S
C5077 H5080 0.999 . S
C5078 H5048 0.950 . S
C5078 C5077 1.524 . S
C5078 C5079 1.415 . S
C5079 H5049 0.950 . S
C5079 C5074 1.363 . S
C5079 C5078 1.415 . S
H5080 C5077 0.999 . S
H5081 C5062 0.913 . S
H5082 C5100 0.951 . S
H5083 C5102 0.951 . S
H5084 C5104 0.950 . S
H5085 C5105 0.950 . S
H5086 C5107 0.950 . S
H5087 C5110 0.950 . S
H5088 C5111 0.950 . S
H5089 C5113 0.950 . S
H5090 C5114 0.950 . S
H5091 C5115 0.951 . S
H5092 C5117 0.951 . S
H5093 C5119 0.950 . S
H5094 C5120 0.950 . S
H5095 C5122 0.950 . S
H5096 C5125 0.950 . S
H5097 C5126 0.950 . S
H5098 C5128 0.950 . S
H5099 C5129 0.950 . S
C5100 H5082 0.951 . S
C5100 C5101 1.366 . S
C5100 C5102 1.388 . S
C5101 C5100 1.366 . S
C5101 C5105 1.385 . S
C5102 H5083 0.951 . S
C5102 C5100 1.388 . S
C5102 C5103 1.366 . S
C5103 C5102 1.366 . S
C5103 C5104 1.414 . S
C5103 C5106 1.499 . S
C5104 H5084 0.950 . S
C5104 C5103 1.414 . S
C5104 C5105 1.374 . S
C5105 H5085 0.950 . S
C5105 C5101 1.385 . S
C5105 C5104 1.374 . S
C5106 C5103 1.499 . S
C5106 C5107 1.373 . S
C5106 C5108 1.389 . S
C5107 H5086 0.950 . S
C5107 C5106 1.373 . S
C5107 C5123 1.377 . S
C5108 C5106 1.389 . S
C5108 C5109 1.524 . S
C5108 C5122 1.377 . S
C5109 C5108 1.524 . S
C5109 C5110 1.397 . S
C5109 C5114 1.363 . S
C5110 H5087 0.950 . S
C5110 C5109 1.397 . S
C5110 C5111 1.334 . S
C5111 H5088 0.950 . S
C5111 C5110 1.334 . S
C5111 C5112 1.287 . S
C5112 C5111 1.287 . S
C5112 C5113 1.524 . S
C5112 H5131 0.913 . S
C5113 H5089 0.950 . S
C5113 C5112 1.524 . S
C5113 C5114 1.415 . S
C5114 H5090 0.950 . S
C5114 C5109 1.363 . S
C5114 C5113 1.415 . S
C5115 H5091 0.951 . S
C5115 C5116 1.366 . S
C5115 C5117 1.388 . S
C5116 C5115 1.366 . S
C5116 C5120 1.385 . S
C5117 H5092 0.951 . S
C5117 C5115 1.388 . S
C5117 C5118 1.366 . S
C5118 C5117 1.366 . S
C5118 C5119 1.414 . S
C5118 C5121 1.499 . S
C5119 H5093 0.950 . S
C5119 C5118 1.414 . S
C5119 C5120 1.374 . S
C5120 H5094 0.950 . S
C5120 C5116 1.385 . S
C5120 C5119 1.374 . S
C5121 C5118 1.499 . S
C5121 C5122 1.373 . S
C5121 C5123 1.389 . S
C5122 H5095 0.950 . S
C5122 C5108 1.377 . S
C5122 C5121 1.373 . S
C5123 C5107 1.377 . S
C5123 C5121 1.389 . S
C5123 C5124 1.524 . S
C5124 C5123 1.524 . S
C5124 C5125 1.397 . S
C5124 C5129 1.363 . S
C5125 H5096 0.950 . S
C5125 C5124 1.397 . S
C5125 C5126 1.334 . S
C5126 H5097 0.950 . S
C5126 C5125 1.334 . S
C5126 C5127 1.287 . S
C5127 C5126 1.287 . S
C5127 C5128 1.524 . S
C5127 H5130 0.999 . S
C5128 H5098 0.950 . S
C5128 C5127 1.524 . S
C5128 C5129 1.415 . S
C5129 H5099 0.950 . S
C5129 C5124 1.363 . S
C5129 C5128 1.415 . S
H5130 C5127 0.999 . S
H5131 C5112 0.913 . S
H5132 C5150 0.951 . S
H5133 C5152 0.951 . S
H5134 C5154 0.950 . S
H5135 C5155 0.950 . S
H5136 C5157 0.950 . S
H5137 C5160 0.950 . S
H5138 C5161 0.950 . S
H5139 C5163 0.950 . S
H5140 C5164 0.950 . S
H5141 C5165 0.951 . S
H5142 C5167 0.951 . S
H5143 C5169 0.950 . S
H5144 C5170 0.950 . S
H5145 C5172 0.950 . S
H5146 C5175 0.950 . S
H5147 C5176 0.950 . S
H5148 C5178 0.950 . S
H5149 C5179 0.950 . S
C5150 H5132 0.951 . S
C5150 C5151 1.366 . S
C5150 C5152 1.388 . S
C5151 C5150 1.366 . S
C5151 C5155 1.385 . S
C5152 H5133 0.951 . S
C5152 C5150 1.388 . S
C5152 C5153 1.366 . S
C5153 C5152 1.366 . S
C5153 C5154 1.414 . S
C5153 C5156 1.499 . S
C5154 H5134 0.950 . S
C5154 C5153 1.414 . S
C5154 C5155 1.374 . S
C5155 H5135 0.950 . S
C5155 C5151 1.385 . S
C5155 C5154 1.374 . S
C5156 C5153 1.499 . S
C5156 C5157 1.373 . S
C5156 C5158 1.389 . S
C5157 H5136 0.950 . S
C5157 C5156 1.373 . S
C5157 C5173 1.377 . S
C5158 C5156 1.389 . S
C5158 C5159 1.524 . S
C5158 C5172 1.377 . S
C5159 C5158 1.524 . S
C5159 C5160 1.397 . S
C5159 C5164 1.363 . S
C5160 H5137 0.950 . S
C5160 C5159 1.397 . S
C5160 C5161 1.334 . S
C5161 H5138 0.950 . S
C5161 C5160 1.334 . S
C5161 C5162 1.287 . S
C5162 C5161 1.287 . S
C5162 C5163 1.524 . S
C5162 H5181 0.913 . S
C5163 H5139 0.950 . S
C5163 C5162 1.524 . S
C5163 C5164 1.415 . S
C5164 H5140 0.950 . S
C5164 C5159 1.363 . S
C5164 C5163 1.415 . S
C5165 H5141 0.951 . S
C5165 C5166 1.366 . S
C5165 C5167 1.388 . S
C5166 C5165 1.366 . S
C5166 C5170 1.385 . S
C5167 H5142 0.951 . S
C5167 C5165 1.388 . S
C5167 C5168 1.366 . S
C5168 C5167 1.366 . S
C5168 C5169 1.414 . S
C5168 C5171 1.499 . S
C5169 H5143 0.950 . S
C5169 C5168 1.414 . S
C5169 C5170 1.374 . S
C5170 H5144 0.950 . S
C5170 C5166 1.385 . S
C5170 C5169 1.374 . S
C5171 C5168 1.499 . S
C5171 C5172 1.373 . S
C5171 C5173 1.389 . S
C5172 H5145 0.950 . S
C5172 C5158 1.377 . S
C5172 C5171 1.373 . S
C5173 C5157 1.377 . S
C5173 C5171 1.389 . S
C5173 C5174 1.524 . S
C5174 C5173 1.524 . S
C5174 C5175 1.397 . S
C5174 C5179 1.363 . S
C5175 H5146 0.950 . S
C5175 C5174 1.397 . S
C5175 C5176 1.334 . S
C5176 H5147 0.950 . S
C5176 C5175 1.334 . S
C5176 C5177 1.287 . S
C5177 C5176 1.287 . S
C5177 C5178 1.524 . S
C5177 H5180 0.999 . S
C5178 H5148 0.950 . S
C5178 C5177 1.524 . S
C5178 C5179 1.415 . S
C5179 H5149 0.950 . S
C5179 C5174 1.363 . S
C5179 C5178 1.415 . S
H5180 C5177 0.999 . S
H5181 C5162 0.913 . S
H5182 C5200 0.951 . S
H5183 C5202 0.951 . S
H5184 C5204 0.950 . S
H5185 C5205 0.950 . S
H5186 C5207 0.950 . S
H5187 C5210 0.950 . S
H5188 C5211 0.950 . S
H5189 C5213 0.950 . S
H5190 C5214 0.950 . S
H5191 C5215 0.951 . S
H5192 C5217 0.951 . S
H5193 C5219 0.950 . S
H5194 C5220 0.950 . S
H5195 C5222 0.950 . S
H5196 C5225 0.950 . S
H5197 C5226 0.950 . S
H5198 C5228 0.950 . S
H5199 C5229 0.950 . S
C5200 H5182 0.951 . S
C5200 C5201 1.366 . S
C5200 C5202 1.388 . S
C5201 C5200 1.366 . S
C5201 C5205 1.385 . S
C5202 H5183 0.951 . S
C5202 C5200 1.388 . S
C5202 C5203 1.366 . S
C5203 C5202 1.366 . S
C5203 C5204 1.414 . S
C5203 C5206 1.499 . S
C5204 H5184 0.950 . S
C5204 C5203 1.414 . S
C5204 C5205 1.374 . S
C5205 H5185 0.950 . S
C5205 C5201 1.385 . S
C5205 C5204 1.374 . S
C5206 C5203 1.499 . S
C5206 C5207 1.373 . S
C5206 C5208 1.389 . S
C5207 H5186 0.950 . S
C5207 C5206 1.373 . S
C5207 C5223 1.377 . S
C5208 C5206 1.389 . S
C5208 C5209 1.524 . S
C5208 C5222 1.377 . S
C5209 C5208 1.524 . S
C5209 C5210 1.397 . S
C5209 C5214 1.363 . S
C5210 H5187 0.950 . S
C5210 C5209 1.397 . S
C5210 C5211 1.334 . S
C5211 H5188 0.950 . S
C5211 C5210 1.334 . S
C5211 C5212 1.287 . S
C5212 C5211 1.287 . S
C5212 C5213 1.524 . S
C5212 H5231 0.913 . S
C5213 H5189 0.950 . S
C5213 C5212 1.524 . S
C5213 C5214 1.415 . S
C5214 H5190 0.950 . S
C5214 C5209 1.363 . S
C5214 C5213 1.415 . S
C5215 H5191 0.951 . S
C5215 C5216 1.366 . S
C5215 C5217 1.388 . S
C5216 C5215 1.366 . S
C5216 C5220 1.385 . S
C5217 H5192 0.951 . S
C5217 C5215 1.388 . S
C5217 C5218 1.366 . S
C5218 C5217 1.366 . S
C5218 C5219 1.414 . S
C5218 C5221 1.499 . S
C5219 H5193 0.950 . S
C5219 C5218 1.414 . S
C5219 C5220 1.374 . S
C5220 H5194 0.950 . S
C5220 C5216 1.385 . S
C5220 C5219 1.374 . S
C5221 C5218 1.499 . S
C5221 C5222 1.373 . S
C5221 C5223 1.389 . S
C5222 H5195 0.950 . S
C5222 C5208 1.377 . S
C5222 C5221 1.373 . S
C5223 C5207 1.377 . S
C5223 C5221 1.389 . S
C5223 C5224 1.524 . S
C5224 C5223 1.524 . S
C5224 C5225 1.397 . S
C5224 C5229 1.363 . S
C5225 H5196 0.950 . S
C5225 C5224 1.397 . S
C5225 C5226 1.334 . S
C5226 H5197 0.950 . S
C5226 C5225 1.334 . S
C5226 C5227 1.287 . S
C5227 C5226 1.287 . S
C5227 C5228 1.524 . S
C5227 H5230 0.999 . S
C5228 H5198 0.950 . S
C5228 C5227 1.524 . S
C5228 C5229 1.415 . S
C5229 H5199 0.950 . S
C5229 C5224 1.363 . S
C5229 C5228 1.415 . S
H5230 C5227 0.999 . S
H5231 C5212 0.913 . S
H5232 C5250 0.951 . S
H5233 C5252 0.951 . S
H5234 C5254 0.950 . S
H5235 C5255 0.950 . S
H5236 C5257 0.950 . S
H5237 C5260 0.950 . S
H5238 C5261 0.950 . S
H5239 C5263 0.950 . S
H5240 C5264 0.950 . S
H5241 C5265 0.951 . S
H5242 C5267 0.951 . S
H5243 C5269 0.950 . S
H5244 C5270 0.950 . S
H5245 C5272 0.950 . S
H5246 C5275 0.950 . S
H5247 C5276 0.950 . S
H5248 C5278 0.950 . S
H5249 C5279 0.950 . S
C5250 H5232 0.951 . S
C5250 C5251 1.366 . S
C5250 C5252 1.388 . S
C5251 C5250 1.366 . S
C5251 C5255 1.385 . S
C5252 H5233 0.951 . S
C5252 C5250 1.388 . S
C5252 C5253 1.366 . S
C5253 C5252 1.366 . S
C5253 C5254 1.414 . S
C5253 C5256 1.499 . S
C5254 H5234 0.950 . S
C5254 C5253 1.414 . S
C5254 C5255 1.374 . S
C5255 H5235 0.950 . S
C5255 C5251 1.385 . S
C5255 C5254 1.374 . S
C5256 C5253 1.499 . S
C5256 C5257 1.373 . S
C5256 C5258 1.389 . S
C5257 H5236 0.950 . S
C5257 C5256 1.373 . S
C5257 C5273 1.377 . S
C5258 C5256 1.389 . S
C5258 C5259 1.524 . S
C5258 C5272 1.377 . S
C5259 C5258 1.524 . S
C5259 C5260 1.397 . S
C5259 C5264 1.363 . S
C5260 H5237 0.950 . S
C5260 C5259 1.397 . S
C5260 C5261 1.334 . S
C5261 H5238 0.950 . S
C5261 C5260 1.334 . S
C5261 C5262 1.287 . S
C5262 C5261 1.287 . S
C5262 C5263 1.524 . S
C5262 H5281 0.913 . S
C5263 H5239 0.950 . S
C5263 C5262 1.524 . S
C5263 C5264 1.415 . S
C5264 H5240 0.950 . S
C5264 C5259 1.363 . S
C5264 C5263 1.415 . S
C5265 H5241 0.951 . S
C5265 C5266 1.366 . S
C5265 C5267 1.388 . S
C5266 C5265 1.366 . S
C5266 C5270 1.385 . S
C5267 H5242 0.951 . S
C5267 C5265 1.388 . S
C5267 C5268 1.366 . S
C5268 C5267 1.366 . S
C5268 C5269 1.414 . S
C5268 C5271 1.499 . S
C5269 H5243 0.950 . S
C5269 C5268 1.414 . S
C5269 C5270 1.374 . S
C5270 H5244 0.950 . S
C5270 C5266 1.385 . S
C5270 C5269 1.374 . S
C5271 C5268 1.499 . S
C5271 C5272 1.373 . S
C5271 C5273 1.389 . S
C5272 H5245 0.950 . S
C5272 C5258 1.377 . S
C5272 C5271 1.373 . S
C5273 C5257 1.377 . S
C5273 C5271 1.389 . S
C5273 C5274 1.524 . S
C5274 C5273 1.524 . S
C5274 C5275 1.397 . S
C5274 C5279 1.363 . S
C5275 H5246 0.950 . S
C5275 C5274 1.397 . S
C5275 C5276 1.334 . S
C5276 H5247 0.950 . S
C5276 C5275 1.334 . S
C5276 C5277 1.287 . S
C5277 C5276 1.287 . S
C5277 C5278 1.524 . S
C5277 H5280 0.999 . S
C5278 H5248 0.950 . S
C5278 C5277 1.524 . S
C5278 C5279 1.415 . S
C5279 H5249 0.950 . S
C5279 C5274 1.363 . S
C5279 C5278 1.415 . S
H5280 C5277 0.999 . S
H5281 C5262 0.913 . S
H5282 C5300 0.951 . S
H5283 C5302 0.951 . S
H5284 C5304 0.950 . S
H5285 C5305 0.950 . S
H5286 C5307 0.950 . S
H5287 C5310 0.950 . S
H5288 C5311 0.950 . S
H5289 C5313 0.950 . S
H5290 C5314 0.950 . S
H5291 C5315 0.951 . S
H5292 C5317 0.951 . S
H5293 C5319 0.950 . S
H5294 C5320 0.950 . S
H5295 C5322 0.950 . S
H5296 C5325 0.950 . S
H5297 C5326 0.950 . S
H5298 C5328 0.950 . S
H5299 C5329 0.950 . S
C5300 H5282 0.951 . S
C5300 C5301 1.366 . S
C5300 C5302 1.388 . S
C5301 C5300 1.366 . S
C5301 C5305 1.385 . S
C5302 H5283 0.951 . S
C5302 C5300 1.388 . S
C5302 C5303 1.366 . S
C5303 C5302 1.366 . S
C5303 C5304 1.414 . S
C5303 C5306 1.499 . S
C5304 H5284 0.950 . S
C5304 C5303 1.414 . S
C5304 C5305 1.374 . S
C5305 H5285 0.950 . S
C5305 C5301 1.385 . S
C5305 C5304 1.374 . S
C5306 C5303 1.499 . S
C5306 C5307 1.373 . S
C5306 C5308 1.389 . S
C5307 H5286 0.950 . S
C5307 C5306 1.373 . S
C5307 C5323 1.377 . S
C5308 C5306 1.389 . S
C5308 C5309 1.524 . S
C5308 C5322 1.377 . S
C5309 C5308 1.524 . S
C5309 C5310 1.397 . S
C5309 C5314 1.363 . S
C5310 H5287 0.950 . S
C5310 C5309 1.397 . S
C5310 C5311 1.334 . S
C5311 H5288 0.950 . S
C5311 C5310 1.334 . S
C5311 C5312 1.287 . S
C5312 C5311 1.287 . S
C5312 C5313 1.524 . S
C5312 H5331 0.913 . S
C5313 H5289 0.950 . S
C5313 C5312 1.524 . S
C5313 C5314 1.415 . S
C5314 H5290 0.950 . S
C5314 C5309 1.363 . S
C5314 C5313 1.415 . S
C5315 H5291 0.951 . S
C5315 C5316 1.366 . S
C5315 C5317 1.388 . S
C5316 C5315 1.366 . S
C5316 C5320 1.385 . S
C5317 H5292 0.951 . S
C5317 C5315 1.388 . S
C5317 C5318 1.366 . S
C5318 C5317 1.366 . S
C5318 C5319 1.414 . S
C5318 C5321 1.499 . S
C5319 H5293 0.950 . S
C5319 C5318 1.414 . S
C5319 C5320 1.374 . S
C5320 H5294 0.950 . S
C5320 C5316 1.385 . S
C5320 C5319 1.374 . S
C5321 C5318 1.499 . S
C5321 C5322 1.373 . S
C5321 C5323 1.389 . S
C5322 H5295 0.950 . S
C5322 C5308 1.377 . S
C5322 C5321 1.373 . S
C5323 C5307 1.377 . S
C5323 C5321 1.389 . S
C5323 C5324 1.524 . S
C5324 C5323 1.524 . S
C5324 C5325 1.397 . S
C5324 C5329 1.363 . S
C5325 H5296 0.950 . S
C5325 C5324 1.397 . S
C5325 C5326 1.334 . S
C5326 H5297 0.950 . S
C5326 C5325 1.334 . S
C5326 C5327 1.287 . S
C5327 C5326 1.287 . S
C5327 C5328 1.524 . S
C5327 H5330 0.999 . S
C5328 H5298 0.950 . S
C5328 C5327 1.524 . S
C5328 C5329 1.415 . S
C5329 H5299 0.950 . S
C5329 C5324 1.363 . S
C5329 C5328 1.415 . S
H5330 C5327 0.999 . S
H5331 C5312 0.913 . S
H5332 C5350 0.951 . S
H5333 C5352 0.951 . S
H5334 C5354 0.950 . S
H5335 C5355 0.950 . S
H5336 C5357 0.950 . S
H5337 C5360 0.950 . S
H5338 C5361 0.950 . S
H5339 C5363 0.950 . S
H5340 C5364 0.950 . S
H5341 C5365 0.951 . S
H5342 C5367 0.951 . S
H5343 C5369 0.950 . S
H5344 C5370 0.950 . S
H5345 C5372 0.950 . S
H5346 C5375 0.950 . S
H5347 C5376 0.950 . S
H5348 C5378 0.950 . S
H5349 C5379 0.950 . S
C5350 H5332 0.951 . S
C5350 C5351 1.366 . S
C5350 C5352 1.388 . S
C5351 C5350 1.366 . S
C5351 C5355 1.385 . S
C5352 H5333 0.951 . S
C5352 C5350 1.388 . S
C5352 C5353 1.366 . S
C5353 C5352 1.366 . S
C5353 C5354 1.414 . S
C5353 C5356 1.499 . S
C5354 H5334 0.950 . S
C5354 C5353 1.414 . S
C5354 C5355 1.374 . S
C5355 H5335 0.950 . S
C5355 C5351 1.385 . S
C5355 C5354 1.374 . S
C5356 C5353 1.499 . S
C5356 C5357 1.373 . S
C5356 C5358 1.389 . S
C5357 H5336 0.950 . S
C5357 C5356 1.373 . S
C5357 C5373 1.377 . S
C5358 C5356 1.389 . S
C5358 C5359 1.524 . S
C5358 C5372 1.377 . S
C5359 C5358 1.524 . S
C5359 C5360 1.397 . S
C5359 C5364 1.363 . S
C5360 H5337 0.950 . S
C5360 C5359 1.397 . S
C5360 C5361 1.334 . S
C5361 H5338 0.950 . S
C5361 C5360 1.334 . S
C5361 C5362 1.287 . S
C5362 C5361 1.287 . S
C5362 C5363 1.524 . S
C5362 H5381 0.913 . S
C5363 H5339 0.950 . S
C5363 C5362 1.524 . S
C5363 C5364 1.415 . S
C5364 H5340 0.950 . S
C5364 C5359 1.363 . S
C5364 C5363 1.415 . S
C5365 H5341 0.951 . S
C5365 C5366 1.366 . S
C5365 C5367 1.388 . S
C5366 C5365 1.366 . S
C5366 C5370 1.385 . S
C5367 H5342 0.951 . S
C5367 C5365 1.388 . S
C5367 C5368 1.366 . S
C5368 C5367 1.366 . S
C5368 C5369 1.414 . S
C5368 C5371 1.499 . S
C5369 H5343 0.950 . S
C5369 C5368 1.414 . S
C5369 C5370 1.374 . S
C5370 H5344 0.950 . S
C5370 C5366 1.385 . S
C5370 C5369 1.374 . S
C5371 C5368 1.499 . S
C5371 C5372 1.373 . S
C5371 C5373 1.389 . S
C5372 H5345 0.950 . S
C5372 C5358 1.377 . S
C5372 C5371 1.373 . S
C5373 C5357 1.377 . S
C5373 C5371 1.389 . S
C5373 C5374 1.524 . S
C5374 C5373 1.524 . S
C5374 C5375 1.397 . S
C5374 C5379 1.363 . S
C5375 H5346 0.950 . S
C5375 C5374 1.397 . S
C5375 C5376 1.334 . S
C5376 H5347 0.950 . S
C5376 C5375 1.334 . S
C5376 C5377 1.287 . S
C5377 C5376 1.287 . S
C5377 C5378 1.524 . S
C5377 H5380 0.999 . S
C5378 H5348 0.950 . S
C5378 C5377 1.524 . S
C5378 C5379 1.415 . S
C5379 H5349 0.950 . S
C5379 C5374 1.363 . S
C5379 C5378 1.415 . S
H5380 C5377 0.999 . S
H5381 C5362 0.913 . S
H5382 C5400 0.951 . S
H5383 C5402 0.951 . S
H5384 C5404 0.950 . S
H5385 C5405 0.950 . S
H5386 C5407 0.950 . S
H5387 C5410 0.950 . S
H5388 C5411 0.950 . S
H5389 C5413 0.950 . S
H5390 C5414 0.950 . S
H5391 C5415 0.951 . S
H5392 C5417 0.951 . S
H5393 C5419 0.950 . S
H5394 C5420 0.950 . S
H5395 C5422 0.950 . S
H5396 C5425 0.950 . S
H5397 C5426 0.950 . S
H5398 C5428 0.950 . S
H5399 C5429 0.950 . S
C5400 H5382 0.951 . S
C5400 C5401 1.366 . S
C5400 C5402 1.388 . S
C5401 C5400 1.366 . S
C5401 C5405 1.385 . S
C5402 H5383 0.951 . S
C5402 C5400 1.388 . S
C5402 C5403 1.366 . S
C5403 C5402 1.366 . S
C5403 C5404 1.414 . S
C5403 C5406 1.499 . S
C5404 H5384 0.950 . S
C5404 C5403 1.414 . S
C5404 C5405 1.374 . S
C5405 H5385 0.950 . S
C5405 C5401 1.385 . S
C5405 C5404 1.374 . S
C5406 C5403 1.499 . S
C5406 C5407 1.373 . S
C5406 C5408 1.389 . S
C5407 H5386 0.950 . S
C5407 C5406 1.373 . S
C5407 C5423 1.377 . S
C5408 C5406 1.389 . S
C5408 C5409 1.524 . S
C5408 C5422 1.377 . S
C5409 C5408 1.524 . S
C5409 C5410 1.397 . S
C5409 C5414 1.363 . S
C5410 H5387 0.950 . S
C5410 C5409 1.397 . S
C5410 C5411 1.334 . S
C5411 H5388 0.950 . S
C5411 C5410 1.334 . S
C5411 C5412 1.287 . S
C5412 C5411 1.287 . S
C5412 C5413 1.524 . S
C5412 H5431 0.913 . S
C5413 H5389 0.950 . S
C5413 C5412 1.524 . S
C5413 C5414 1.415 . S
C5414 H5390 0.950 . S
C5414 C5409 1.363 . S
C5414 C5413 1.415 . S
C5415 H5391 0.951 . S
C5415 C5416 1.366 . S
C5415 C5417 1.388 . S
C5416 C5415 1.366 . S
C5416 C5420 1.385 . S
C5417 H5392 0.951 . S
C5417 C5415 1.388 . S
C5417 C5418 1.366 . S
C5418 C5417 1.366 . S
C5418 C5419 1.414 . S
C5418 C5421 1.499 . S
C5419 H5393 0.950 . S
C5419 C5418 1.414 . S
C5419 C5420 1.374 . S
C5420 H5394 0.950 . S
C5420 C5416 1.385 . S
C5420 C5419 1.374 . S
C5421 C5418 1.499 . S
C5421 C5422 1.373 . S
C5421 C5423 1.389 . S
C5422 H5395 0.950 . S
C5422 C5408 1.377 . S
C5422 C5421 1.373 . S
C5423 C5407 1.377 . S
C5423 C5421 1.389 . S
C5423 C5424 1.524 . S
C5424 C5423 1.524 . S
C5424 C5425 1.397 . S
C5424 C5429 1.363 . S
C5425 H5396 0.950 . S
C5425 C5424 1.397 . S
C5425 C5426 1.334 . S
C5426 H5397 0.950 . S
C5426 C5425 1.334 . S
C5426 C5427 1.287 . S
C5427 C5426 1.287 . S
C5427 C5428 1.524 . S
C5427 H5430 0.999 . S
C5428 H5398 0.950 . S
C5428 C5427 1.524 . S
C5428 C5429 1.415 . S
C5429 H5399 0.950 . S
C5429 C5424 1.363 . S
C5429 C5428 1.415 . S
H5430 C5427 0.999 . S
H5431 C5412 0.913 . S
H5432 C5450 0.951 . S
H5433 C5452 0.951 . S
H5434 C5454 0.950 . S
H5435 C5455 0.950 . S
H5436 C5457 0.950 . S
H5437 C5460 0.950 . S
H5438 C5461 0.950 . S
H5439 C5463 0.950 . S
H5440 C5464 0.950 . S
H5441 C5465 0.951 . S
H5442 C5467 0.951 . S
H5443 C5469 0.950 . S
H5444 C5470 0.950 . S
H5445 C5472 0.950 . S
H5446 C5475 0.950 . S
H5447 C5476 0.950 . S
H5448 C5478 0.950 . S
H5449 C5479 0.950 . S
C5450 H5432 0.951 . S
C5450 C5451 1.366 . S
C5450 C5452 1.388 . S
C5451 C5450 1.366 . S
C5451 C5455 1.385 . S
C5452 H5433 0.951 . S
C5452 C5450 1.388 . S
C5452 C5453 1.366 . S
C5453 C5452 1.366 . S
C5453 C5454 1.414 . S
C5453 C5456 1.499 . S
C5454 H5434 0.950 . S
C5454 C5453 1.414 . S
C5454 C5455 1.374 . S
C5455 H5435 0.950 . S
C5455 C5451 1.385 . S
C5455 C5454 1.374 . S
C5456 C5453 1.499 . S
C5456 C5457 1.373 . S
C5456 C5458 1.389 . S
C5457 H5436 0.950 . S
C5457 C5456 1.373 . S
C5457 C5473 1.377 . S
C5458 C5456 1.389 . S
C5458 C5459 1.524 . S
C5458 C5472 1.377 . S
C5459 C5458 1.524 . S
C5459 C5460 1.397 . S
C5459 C5464 1.363 . S
C5460 H5437 0.950 . S
C5460 C5459 1.397 . S
C5460 C5461 1.334 . S
C5461 H5438 0.950 . S
C5461 C5460 1.334 . S
C5461 C5462 1.287 . S
C5462 C5461 1.287 . S
C5462 C5463 1.524 . S
C5462 H5481 0.913 . S
C5463 H5439 0.950 . S
C5463 C5462 1.524 . S
C5463 C5464 1.415 . S
C5464 H5440 0.950 . S
C5464 C5459 1.363 . S
C5464 C5463 1.415 . S
C5465 H5441 0.951 . S
C5465 C5466 1.366 . S
C5465 C5467 1.388 . S
C5466 C5465 1.366 . S
C5466 C5470 1.385 . S
C5467 H5442 0.951 . S
C5467 C5465 1.388 . S
C5467 C5468 1.366 . S
C5468 C5467 1.366 . S
C5468 C5469 1.414 . S
C5468 C5471 1.499 . S
C5469 H5443 0.950 . S
C5469 C5468 1.414 . S
C5469 C5470 1.374 . S
C5470 H5444 0.950 . S
C5470 C5466 1.385 . S
C5470 C5469 1.374 . S
C5471 C5468 1.499 . S
C5471 C5472 1.373 . S
C5471 C5473 1.389 . S
C5472 H5445 0.950 . S
C5472 C5458 1.377 . S
C5472 C5471 1.373 . S
C5473 C5457 1.377 . S
C5473 C5471 1.389 . S
C5473 C5474 1.524 . S
C5474 C5473 1.524 . S
C5474 C5475 1.397 . S
C5474 C5479 1.363 . S
C5475 H5446 0.950 . S
C5475 C5474 1.397 . S
C5475 C5476 1.334 . S
C5476 H5447 0.950 . S
C5476 C5475 1.334 . S
C5476 C5477 1.287 . S
C5477 C5476 1.287 . S
C5477 C5478 1.524 . S
C5477 H5480 0.999 . S
C5478 H5448 0.950 . S
C5478 C5477 1.524 . S
C5478 C5479 1.415 . S
C5479 H5449 0.950 . S
C5479 C5474 1.363 . S
C5479 C5478 1.415 . S
H5480 C5477 0.999 . S
H5481 C5462 0.913 . S
H5482 C5500 0.951 . S
H5483 C5502 0.951 . S
H5484 C5504 0.950 . S
H5485 C5505 0.950 . S
H5486 C5507 0.950 . S
H5487 C5510 0.950 . S
H5488 C5511 0.950 . S
H5489 C5513 0.950 . S
H5490 C5514 0.950 . S
H5491 C5515 0.951 . S
H5492 C5517 0.951 . S
H5493 C5519 0.950 . S
H5494 C5520 0.950 . S
H5495 C5522 0.950 . S
H5496 C5525 0.950 . S
H5497 C5526 0.950 . S
H5498 C5528 0.950 . S
H5499 C5529 0.950 . S
C5500 H5482 0.951 . S
C5500 C5501 1.366 . S
C5500 C5502 1.388 . S
C5501 C5500 1.366 . S
C5501 C5505 1.385 . S
C5502 H5483 0.951 . S
C5502 C5500 1.388 . S
C5502 C5503 1.366 . S
C5503 C5502 1.366 . S
C5503 C5504 1.414 . S
C5503 C5506 1.499 . S
C5504 H5484 0.950 . S
C5504 C5503 1.414 . S
C5504 C5505 1.374 . S
C5505 H5485 0.950 . S
C5505 C5501 1.385 . S
C5505 C5504 1.374 . S
C5506 C5503 1.499 . S
C5506 C5507 1.373 . S
C5506 C5508 1.389 . S
C5507 H5486 0.950 . S
C5507 C5506 1.373 . S
C5507 C5523 1.377 . S
C5508 C5506 1.389 . S
C5508 C5509 1.524 . S
C5508 C5522 1.377 . S
C5509 C5508 1.524 . S
C5509 C5510 1.397 . S
C5509 C5514 1.363 . S
C5510 H5487 0.950 . S
C5510 C5509 1.397 . S
C5510 C5511 1.334 . S
C5511 H5488 0.950 . S
C5511 C5510 1.334 . S
C5511 C5512 1.287 . S
C5512 C5511 1.287 . S
C5512 C5513 1.524 . S
C5512 H5531 0.913 . S
C5513 H5489 0.950 . S
C5513 C5512 1.524 . S
C5513 C5514 1.415 . S
C5514 H5490 0.950 . S
C5514 C5509 1.363 . S
C5514 C5513 1.415 . S
C5515 H5491 0.951 . S
C5515 C5516 1.366 . S
C5515 C5517 1.388 . S
C5516 C5515 1.366 . S
C5516 C5520 1.385 . S
C5517 H5492 0.951 . S
C5517 C5515 1.388 . S
C5517 C5518 1.366 . S
C5518 C5517 1.366 . S
C5518 C5519 1.414 . S
C5518 C5521 1.499 . S
C5519 H5493 0.950 . S
C5519 C5518 1.414 . S
C5519 C5520 1.374 . S
C5520 H5494 0.950 . S
C5520 C5516 1.385 . S
C5520 C5519 1.374 . S
C5521 C5518 1.499 . S
C5521 C5522 1.373 . S
C5521 C5523 1.389 . S
C5522 H5495 0.950 . S
C5522 C5508 1.377 . S
C5522 C5521 1.373 . S
C5523 C5507 1.377 . S
C5523 C5521 1.389 . S
C5523 C5524 1.524 . S
C5524 C5523 1.524 . S
C5524 C5525 1.397 . S
C5524 C5529 1.363 . S
C5525 H5496 0.950 . S
C5525 C5524 1.397 . S
C5525 C5526 1.334 . S
C5526 H5497 0.950 . S
C5526 C5525 1.334 . S
C5526 C5527 1.287 . S
C5527 C5526 1.287 . S
C5527 C5528 1.524 . S
C5527 H5530 0.999 . S
C5528 H5498 0.950 . S
C5528 C5527 1.524 . S
C5528 C5529 1.415 . S
C5529 H5499 0.950 . S
C5529 C5524 1.363 . S
C5529 C5528 1.415 . S
H5530 C5527 0.999 . S
H5531 C5512 0.913 . S
H5532 C5550 0.951 . S
H5533 C5552 0.951 . S
H5534 C5554 0.950 . S
H5535 C5555 0.950 . S
H5536 C5557 0.950 . S
H5537 C5560 0.950 . S
H5538 C5561 0.950 . S
H5539 C5563 0.950 . S
H5540 C5564 0.950 . S
H5541 C5565 0.951 . S
H5542 C5567 0.951 . S
H5543 C5569 0.950 . S
H5544 C5570 0.950 . S
H5545 C5572 0.950 . S
H5546 C5575 0.950 . S
H5547 C5576 0.950 . S
H5548 C5578 0.950 . S
H5549 C5579 0.950 . S
C5550 H5532 0.951 . S
C5550 C5551 1.366 . S
C5550 C5552 1.388 . S
C5551 C5550 1.366 . S
C5551 C5555 1.385 . S
C5552 H5533 0.951 . S
C5552 C5550 1.388 . S
C5552 C5553 1.366 . S
C5553 C5552 1.366 . S
C5553 C5554 1.414 . S
C5553 C5556 1.499 . S
C5554 H5534 0.950 . S
C5554 C5553 1.414 . S
C5554 C5555 1.374 . S
C5555 H5535 0.950 . S
C5555 C5551 1.385 . S
C5555 C5554 1.374 . S
C5556 C5553 1.499 . S
C5556 C5557 1.373 . S
C5556 C5558 1.389 . S
C5557 H5536 0.950 . S
C5557 C5556 1.373 . S
C5557 C5573 1.377 . S
C5558 C5556 1.389 . S
C5558 C5559 1.524 . S
C5558 C5572 1.377 . S
C5559 C5558 1.524 . S
C5559 C5560 1.397 . S
C5559 C5564 1.363 . S
C5560 H5537 0.950 . S
C5560 C5559 1.397 . S
C5560 C5561 1.334 . S
C5561 H5538 0.950 . S
C5561 C5560 1.334 . S
C5561 C5562 1.287 . S
C5562 C5561 1.287 . S
C5562 C5563 1.524 . S
C5562 H5581 0.913 . S
C5563 H5539 0.950 . S
C5563 C5562 1.524 . S
C5563 C5564 1.415 . S
C5564 H5540 0.950 . S
C5564 C5559 1.363 . S
C5564 C5563 1.415 . S
C5565 H5541 0.951 . S
C5565 C5566 1.366 . S
C5565 C5567 1.388 . S
C5566 C5565 1.366 . S
C5566 C5570 1.385 . S
C5567 H5542 0.951 . S
C5567 C5565 1.388 . S
C5567 C5568 1.366 . S
C5568 C5567 1.366 . S
C5568 C5569 1.414 . S
C5568 C5571 1.499 . S
C5569 H5543 0.950 . S
C5569 C5568 1.414 . S
C5569 C5570 1.374 . S
C5570 H5544 0.950 . S
C5570 C5566 1.385 . S
C5570 C5569 1.374 . S
C5571 C5568 1.499 . S
C5571 C5572 1.373 . S
C5571 C5573 1.389 . S
C5572 H5545 0.950 . S
C5572 C5558 1.377 . S
C5572 C5571 1.373 . S
C5573 C5557 1.377 . S
C5573 C5571 1.389 . S
C5573 C5574 1.524 . S
C5574 C5573 1.524 . S
C5574 C5575 1.397 . S
C5574 C5579 1.363 . S
C5575 H5546 0.950 . S
C5575 C5574 1.397 . S
C5575 C5576 1.334 . S
C5576 H5547 0.950 . S
C5576 C5575 1.334 . S
C5576 C5577 1.287 . S
C5577 C5576 1.287 . S
C5577 C5578 1.524 . S
C5577 H5580 0.999 . S
C5578 H5548 0.950 . S
C5578 C5577 1.524 . S
C5578 C5579 1.415 . S
C5579 H5549 0.950 . S
C5579 C5574 1.363 . S
C5579 C5578 1.415 . S
H5580 C5577 0.999 . S
H5581 C5562 0.913 . S
H5582 C5600 0.951 . S
H5583 C5602 0.951 . S
H5584 C5604 0.950 . S
H5585 C5605 0.950 . S
H5586 C5607 0.950 . S
H5587 C5610 0.950 . S
H5588 C5611 0.950 . S
H5589 C5613 0.950 . S
H5590 C5614 0.950 . S
H5591 C5615 0.951 . S
H5592 C5617 0.951 . S
H5593 C5619 0.950 . S
H5594 C5620 0.950 . S
H5595 C5622 0.950 . S
H5596 C5625 0.950 . S
H5597 C5626 0.950 . S
H5598 C5628 0.950 . S
H5599 C5629 0.950 . S
C5600 H5582 0.951 . S
C5600 C5601 1.366 . S
C5600 C5602 1.388 . S
C5601 C5600 1.366 . S
C5601 C5605 1.385 . S
C5602 H5583 0.951 . S
C5602 C5600 1.388 . S
C5602 C5603 1.366 . S
C5603 C5602 1.366 . S
C5603 C5604 1.414 . S
C5603 C5606 1.499 . S
C5604 H5584 0.950 . S
C5604 C5603 1.414 . S
C5604 C5605 1.374 . S
C5605 H5585 0.950 . S
C5605 C5601 1.385 . S
C5605 C5604 1.374 . S
C5606 C5603 1.499 . S
C5606 C5607 1.373 . S
C5606 C5608 1.389 . S
C5607 H5586 0.950 . S
C5607 C5606 1.373 . S
C5607 C5623 1.377 . S
C5608 C5606 1.389 . S
C5608 C5609 1.524 . S
C5608 C5622 1.377 . S
C5609 C5608 1.524 . S
C5609 C5610 1.397 . S
C5609 C5614 1.363 . S
C5610 H5587 0.950 . S
C5610 C5609 1.397 . S
C5610 C5611 1.334 . S
C5611 H5588 0.950 . S
C5611 C5610 1.334 . S
C5611 C5612 1.287 . S
C5612 C5611 1.287 . S
C5612 C5613 1.524 . S
C5612 H5631 0.913 . S
C5613 H5589 0.950 . S
C5613 C5612 1.524 . S
C5613 C5614 1.415 . S
C5614 H5590 0.950 . S
C5614 C5609 1.363 . S
C5614 C5613 1.415 . S
C5615 H5591 0.951 . S
C5615 C5616 1.366 . S
C5615 C5617 1.388 . S
C5616 C5615 1.366 . S
C5616 C5620 1.385 . S
C5617 H5592 0.951 . S
C5617 C5615 1.388 . S
C5617 C5618 1.366 . S
C5618 C5617 1.366 . S
C5618 C5619 1.414 . S
C5618 C5621 1.499 . S
C5619 H5593 0.950 . S
C5619 C5618 1.414 . S
C5619 C5620 1.374 . S
C5620 H5594 0.950 . S
C5620 C5616 1.385 . S
C5620 C5619 1.374 . S
C5621 C5618 1.499 . S
C5621 C5622 1.373 . S
C5621 C5623 1.389 . S
C5622 H5595 0.950 . S
C5622 C5608 1.377 . S
C5622 C5621 1.373 . S
C5623 C5607 1.377 . S
C5623 C5621 1.389 . S
C5623 C5624 1.524 . S
C5624 C5623 1.524 . S
C5624 C5625 1.397 . S
C5624 C5629 1.363 . S
C5625 H5596 0.950 . S
C5625 C5624 1.397 . S
C5625 C5626 1.334 . S
C5626 H5597 0.950 . S
C5626 C5625 1.334 . S
C5626 C5627 1.287 . S
C5627 C5626 1.287 . S
C5627 C5628 1.524 . S
C5627 H5630 0.999 . S
C5628 H5598 0.950 . S
C5628 C5627 1.524 . S
C5628 C5629 1.415 . S
C5629 H5599 0.950 . S
C5629 C5624 1.363 . S
C5629 C5628 1.415 . S
H5630 C5627 0.999 . S
H5631 C5612 0.913 . S
H5632 C5650 0.951 . S
H5633 C5652 0.951 . S
H5634 C5654 0.950 . S
H5635 C5655 0.950 . S
H5636 C5657 0.950 . S
H5637 C5660 0.950 . S
H5638 C5661 0.950 . S
H5639 C5663 0.950 . S
H5640 C5664 0.950 . S
H5641 C5665 0.951 . S
H5642 C5667 0.951 . S
H5643 C5669 0.950 . S
H5644 C5670 0.950 . S
H5645 C5672 0.950 . S
H5646 C5675 0.950 . S
H5647 C5676 0.950 . S
H5648 C5678 0.950 . S
H5649 C5679 0.950 . S
C5650 H5632 0.951 . S
C5650 C5651 1.366 . S
C5650 C5652 1.388 . S
C5651 C5650 1.366 . S
C5651 C5655 1.385 . S
C5652 H5633 0.951 . S
C5652 C5650 1.388 . S
C5652 C5653 1.366 . S
C5653 C5652 1.366 . S
C5653 C5654 1.414 . S
C5653 C5656 1.499 . S
C5654 H5634 0.950 . S
C5654 C5653 1.414 . S
C5654 C5655 1.374 . S
C5655 H5635 0.950 . S
C5655 C5651 1.385 . S
C5655 C5654 1.374 . S
C5656 C5653 1.499 . S
C5656 C5657 1.373 . S
C5656 C5658 1.389 . S
C5657 H5636 0.950 . S
C5657 C5656 1.373 . S
C5657 C5673 1.377 . S
C5658 C5656 1.389 . S
C5658 C5659 1.524 . S
C5658 C5672 1.377 . S
C5659 C5658 1.524 . S
C5659 C5660 1.397 . S
C5659 C5664 1.363 . S
C5660 H5637 0.950 . S
C5660 C5659 1.397 . S
C5660 C5661 1.334 . S
C5661 H5638 0.950 . S
C5661 C5660 1.334 . S
C5661 C5662 1.287 . S
C5662 C5661 1.287 . S
C5662 C5663 1.524 . S
C5662 H5681 0.913 . S
C5663 H5639 0.950 . S
C5663 C5662 1.524 . S
C5663 C5664 1.415 . S
C5664 H5640 0.950 . S
C5664 C5659 1.363 . S
C5664 C5663 1.415 . S
C5665 H5641 0.951 . S
C5665 C5666 1.366 . S
C5665 C5667 1.388 . S
C5666 C5665 1.366 . S
C5666 C5670 1.385 . S
C5667 H5642 0.951 . S
C5667 C5665 1.388 . S
C5667 C5668 1.366 . S
C5668 C5667 1.366 . S
C5668 C5669 1.414 . S
C5668 C5671 1.499 . S
C5669 H5643 0.950 . S
C5669 C5668 1.414 . S
C5669 C5670 1.374 . S
C5670 H5644 0.950 . S
C5670 C5666 1.385 . S
C5670 C5669 1.374 . S
C5671 C5668 1.499 . S
C5671 C5672 1.373 . S
C5671 C5673 1.389 . S
C5672 H5645 0.950 . S
C5672 C5658 1.377 . S
C5672 C5671 1.373 . S
C5673 C5657 1.377 . S
C5673 C5671 1.389 . S
C5673 C5674 1.524 . S
C5674 C5673 1.524 . S
C5674 C5675 1.397 . S
C5674 C5679 1.363 . S
C5675 H5646 0.950 . S
C5675 C5674 1.397 . S
C5675 C5676 1.334 . S
C5676 H5647 0.950 . S
C5676 C5675 1.334 . S
C5676 C5677 1.287 . S
C5677 C5676 1.287 . S
C5677 C5678 1.524 . S
C5677 H5680 0.999 . S
C5678 H5648 0.950 . S
C5678 C5677 1.524 . S
C5678 C5679 1.415 . S
C5679 H5649 0.950 . S
C5679 C5674 1.363 . S
C5679 C5678 1.415 . S
H5680 C5677 0.999 . S
H5681 C5662 0.913 . S
H5682 C5700 0.951 . S
H5683 C5702 0.951 . S
H5684 C5704 0.950 . S
H5685 C5705 0.950 . S
H5686 C5707 0.950 . S
H5687 C5710 0.950 . S
H5688 C5711 0.950 . S
H5689 C5713 0.950 . S
H5690 C5714 0.950 . S
H5691 C5715 0.951 . S
H5692 C5717 0.951 . S
H5693 C5719 0.950 . S
H5694 C5720 0.950 . S
H5695 C5722 0.950 . S
H5696 C5725 0.950 . S
H5697 C5726 0.950 . S
H5698 C5728 0.950 . S
H5699 C5729 0.950 . S
C5700 H5682 0.951 . S
C5700 C5701 1.366 . S
C5700 C5702 1.388 . S
C5701 C5700 1.366 . S
C5701 C5705 1.385 . S
C5702 H5683 0.951 . S
C5702 C5700 1.388 . S
C5702 C5703 1.366 . S
C5703 C5702 1.366 . S
C5703 C5704 1.414 . S
C5703 C5706 1.499 . S
C5704 H5684 0.950 . S
C5704 C5703 1.414 . S
C5704 C5705 1.374 . S
C5705 H5685 0.950 . S
C5705 C5701 1.385 . S
C5705 C5704 1.374 . S
C5706 C5703 1.499 . S
C5706 C5707 1.373 . S
C5706 C5708 1.389 . S
C5707 H5686 0.950 . S
C5707 C5706 1.373 . S
C5707 C5723 1.377 . S
C5708 C5706 1.389 . S
C5708 C5709 1.524 . S
C5708 C5722 1.377 . S
C5709 C5708 1.524 . S
C5709 C5710 1.397 . S
C5709 C5714 1.363 . S
C5710 H5687 0.950 . S
C5710 C5709 1.397 . S
C5710 C5711 1.334 . S
C5711 H5688 0.950 . S
C5711 C5710 1.334 . S
C5711 C5712 1.287 . S
C5712 C5711 1.287 . S
C5712 C5713 1.524 . S
C5712 H5731 0.913 . S
C5713 H5689 0.950 . S
C5713 C5712 1.524 . S
C5713 C5714 1.415 . S
C5714 H5690 0.950 . S
C5714 C5709 1.363 . S
C5714 C5713 1.415 . S
C5715 H5691 0.951 . S
C5715 C5716 1.366 . S
C5715 C5717 1.388 . S
C5716 C5715 1.366 . S
C5716 C5720 1.385 . S
C5717 H5692 0.951 . S
C5717 C5715 1.388 . S
C5717 C5718 1.366 . S
C5718 C5717 1.366 . S
C5718 C5719 1.414 . S
C5718 C5721 1.499 . S
C5719 H5693 0.950 . S
C5719 C5718 1.414 . S
C5719 C5720 1.374 . S
C5720 H5694 0.950 . S
C5720 C5716 1.385 . S
C5720 C5719 1.374 . S
C5721 C5718 1.499 . S
C5721 C5722 1.373 . S
C5721 C5723 1.389 . S
C5722 H5695 0.950 . S
C5722 C5708 1.377 . S
C5722 C5721 1.373 . S
C5723 C5707 1.377 . S
C5723 C5721 1.389 . S
C5723 C5724 1.524 . S
C5724 C5723 1.524 . S
C5724 C5725 1.397 . S
C5724 C5729 1.363 . S
C5725 H5696 0.950 . S
C5725 C5724 1.397 . S
C5725 C5726 1.334 . S
C5726 H5697 0.950 . S
C5726 C5725 1.334 . S
C5726 C5727 1.287 . S
C5727 C5726 1.287 . S
C5727 C5728 1.524 . S
C5727 H5730 0.999 . S
C5728 H5698 0.950 . S
C5728 C5727 1.524 . S
C5728 C5729 1.415 . S
C5729 H5699 0.950 . S
C5729 C5724 1.363 . S
C5729 C5728 1.415 . S
H5730 C5727 0.999 . S
H5731 C5712 0.913 . S
H5732 C5750 0.951 . S
H5733 C5752 0.951 . S
H5734 C5754 0.950 . S
H5735 C5755 0.950 . S
H5736 C5757 0.950 . S
H5737 C5760 0.950 . S
H5738 C5761 0.950 . S
H5739 C5763 0.950 . S
H5740 C5764 0.950 . S
H5741 C5765 0.951 . S
H5742 C5767 0.951 . S
H5743 C5769 0.950 . S
H5744 C5770 0.950 . S
H5745 C5772 0.950 . S
H5746 C5775 0.950 . S
H5747 C5776 0.950 . S
H5748 C5778 0.950 . S
H5749 C5779 0.950 . S
C5750 H5732 0.951 . S
C5750 C5751 1.366 . S
C5750 C5752 1.388 . S
C5751 C5750 1.366 . S
C5751 C5755 1.385 . S
C5752 H5733 0.951 . S
C5752 C5750 1.388 . S
C5752 C5753 1.366 . S
C5753 C5752 1.366 . S
C5753 C5754 1.414 . S
C5753 C5756 1.499 . S
C5754 H5734 0.950 . S
C5754 C5753 1.414 . S
C5754 C5755 1.374 . S
C5755 H5735 0.950 . S
C5755 C5751 1.385 . S
C5755 C5754 1.374 . S
C5756 C5753 1.499 . S
C5756 C5757 1.373 . S
C5756 C5758 1.389 . S
C5757 H5736 0.950 . S
C5757 C5756 1.373 . S
C5757 C5773 1.377 . S
C5758 C5756 1.389 . S
C5758 C5759 1.524 . S
C5758 C5772 1.377 . S
C5759 C5758 1.524 . S
C5759 C5760 1.397 . S
C5759 C5764 1.363 . S
C5760 H5737 0.950 . S
C5760 C5759 1.397 . S
C5760 C5761 1.334 . S
C5761 H5738 0.950 . S
C5761 C5760 1.334 . S
C5761 C5762 1.287 . S
C5762 C5761 1.287 . S
C5762 C5763 1.524 . S
C5762 H5781 0.913 . S
C5763 H5739 0.950 . S
C5763 C5762 1.524 . S
C5763 C5764 1.415 . S
C5764 H5740 0.950 . S
C5764 C5759 1.363 . S
C5764 C5763 1.415 . S
C5765 H5741 0.951 . S
C5765 C5766 1.366 . S
C5765 C5767 1.388 . S
C5766 C5765 1.366 . S
C5766 C5770 1.385 . S
C5767 H5742 0.951 . S
C5767 C5765 1.388 . S
C5767 C5768 1.366 . S
C5768 C5767 1.366 . S
C5768 C5769 1.414 . S
C5768 C5771 1.499 . S
C5769 H5743 0.950 . S
C5769 C5768 1.414 . S
C5769 C5770 1.374 . S
C5770 H5744 0.950 . S
C5770 C5766 1.385 . S
C5770 C5769 1.374 . S
C5771 C5768 1.499 . S
C5771 C5772 1.373 . S
C5771 C5773 1.389 . S
C5772 H5745 0.950 . S
C5772 C5758 1.377 . S
C5772 C5771 1.373 . S
C5773 C5757 1.377 . S
C5773 C5771 1.389 . S
C5773 C5774 1.524 . S
C5774 C5773 1.524 . S
C5774 C5775 1.397 . S
C5774 C5779 1.363 . S
C5775 H5746 0.950 . S
C5775 C5774 1.397 . S
C5775 C5776 1.334 . S
C5776 H5747 0.950 . S
C5776 C5775 1.334 . S
C5776 C5777 1.287 . S
C5777 C5776 1.287 . S
C5777 C5778 1.524 . S
C5777 H5780 0.999 . S
C5778 H5748 0.950 . S
C5778 C5777 1.524 . S
C5778 C5779 1.415 . S
C5779 H5749 0.950 . S
C5779 C5774 1.363 . S
C5779 C5778 1.415 . S
H5780 C5777 0.999 . S
H5781 C5762 0.913 . S
H5782 C5800 0.951 . S
H5783 C5802 0.951 . S
H5784 C5804 0.950 . S
H5785 C5805 0.950 . S
H5786 C5807 0.950 . S
H5787 C5810 0.950 . S
H5788 C5811 0.950 . S
H5789 C5813 0.950 . S
H5790 C5814 0.950 . S
H5791 C5815 0.951 . S
H5792 C5817 0.951 . S
H5793 C5819 0.950 . S
H5794 C5820 0.950 . S
H5795 C5822 0.950 . S
H5796 C5825 0.950 . S
H5797 C5826 0.950 . S
H5798 C5828 0.950 . S
H5799 C5829 0.950 . S
C5800 H5782 0.951 . S
C5800 C5801 1.366 . S
C5800 C5802 1.388 . S
C5801 C5800 1.366 . S
C5801 C5805 1.385 . S
C5802 H5783 0.951 . S
C5802 C5800 1.388 . S
C5802 C5803 1.366 . S
C5803 C5802 1.366 . S
C5803 C5804 1.414 . S
C5803 C5806 1.499 . S
C5804 H5784 0.950 . S
C5804 C5803 1.414 . S
C5804 C5805 1.374 . S
C5805 H5785 0.950 . S
C5805 C5801 1.385 . S
C5805 C5804 1.374 . S
C5806 C5803 1.499 . S
C5806 C5807 1.373 . S
C5806 C5808 1.389 . S
C5807 H5786 0.950 . S
C5807 C5806 1.373 . S
C5807 C5823 1.377 . S
C5808 C5806 1.389 . S
C5808 C5809 1.524 . S
C5808 C5822 1.377 . S
C5809 C5808 1.524 . S
C5809 C5810 1.397 . S
C5809 C5814 1.363 . S
C5810 H5787 0.950 . S
C5810 C5809 1.397 . S
C5810 C5811 1.334 . S
C5811 H5788 0.950 . S
C5811 C5810 1.334 . S
C5811 C5812 1.287 . S
C5812 C5811 1.287 . S
C5812 C5813 1.524 . S
C5812 H5831 0.913 . S
C5813 H5789 0.950 . S
C5813 C5812 1.524 . S
C5813 C5814 1.415 . S
C5814 H5790 0.950 . S
C5814 C5809 1.363 . S
C5814 C5813 1.415 . S
C5815 H5791 0.951 . S
C5815 C5816 1.366 . S
C5815 C5817 1.388 . S
C5816 C5815 1.366 . S
C5816 C5820 1.385 . S
C5817 H5792 0.951 . S
C5817 C5815 1.388 . S
C5817 C5818 1.366 . S
C5818 C5817 1.366 . S
C5818 C5819 1.414 . S
C5818 C5821 1.499 . S
C5819 H5793 0.950 . S
C5819 C5818 1.414 . S
C5819 C5820 1.374 . S
C5820 H5794 0.950 . S
C5820 C5816 1.385 . S
C5820 C5819 1.374 . S
C5821 C5818 1.499 . S
C5821 C5822 1.373 . S
C5821 C5823 1.389 . S
C5822 H5795 0.950 . S
C5822 C5808 1.377 . S
C5822 C5821 1.373 . S
C5823 C5807 1.377 . S
C5823 C5821 1.389 . S
C5823 C5824 1.524 . S
C5824 C5823 1.524 . S
C5824 C5825 1.397 . S
C5824 C5829 1.363 . S
C5825 H5796 0.950 . S
C5825 C5824 1.397 . S
C5825 C5826 1.334 . S
C5826 H5797 0.950 . S
C5826 C5825 1.334 . S
C5826 C5827 1.287 . S
C5827 C5826 1.287 . S
C5827 C5828 1.524 . S
C5827 H5830 0.999 . S
C5828 H5798 0.950 . S
C5828 C5827 1.524 . S
C5828 C5829 1.415 . S
C5829 H5799 0.950 . S
C5829 C5824 1.363 . S
C5829 C5828 1.415 . S
H5830 C5827 0.999 . S
H5831 C5812 0.913 . S
H5832 C5850 0.951 . S
H5833 C5852 0.951 . S
H5834 C5854 0.950 . S
H5835 C5855 0.950 . S
H5836 C5857 0.950 . S
H5837 C5860 0.950 . S
H5838 C5861 0.950 . S
H5839 C5863 0.950 . S
H5840 C5864 0.950 . S
H5841 C5865 0.951 . S
H5842 C5867 0.951 . S
H5843 C5869 0.950 . S
H5844 C5870 0.950 . S
H5845 C5872 0.950 . S
H5846 C5875 0.950 . S
H5847 C5876 0.950 . S
H5848 C5878 0.950 . S
H5849 C5879 0.950 . S
C5850 H5832 0.951 . S
C5850 C5851 1.366 . S
C5850 C5852 1.388 . S
C5851 C5850 1.366 . S
C5851 C5855 1.385 . S
C5852 H5833 0.951 . S
C5852 C5850 1.388 . S
C5852 C5853 1.366 . S
C5853 C5852 1.366 . S
C5853 C5854 1.414 . S
C5853 C5856 1.499 . S
C5854 H5834 0.950 . S
C5854 C5853 1.414 . S
C5854 C5855 1.374 . S
C5855 H5835 0.950 . S
C5855 C5851 1.385 . S
C5855 C5854 1.374 . S
C5856 C5853 1.499 . S
C5856 C5857 1.373 . S
C5856 C5858 1.389 . S
C5857 H5836 0.950 . S
C5857 C5856 1.373 . S
C5857 C5873 1.377 . S
C5858 C5856 1.389 . S
C5858 C5859 1.524 . S
C5858 C5872 1.377 . S
C5859 C5858 1.524 . S
C5859 C5860 1.397 . S
C5859 C5864 1.363 . S
C5860 H5837 0.950 . S
C5860 C5859 1.397 . S
C5860 C5861 1.334 . S
C5861 H5838 0.950 . S
C5861 C5860 1.334 . S
C5861 C5862 1.287 . S
C5862 C5861 1.287 . S
C5862 C5863 1.524 . S
C5862 H5881 0.913 . S
C5863 H5839 0.950 . S
C5863 C5862 1.524 . S
C5863 C5864 1.415 . S
C5864 H5840 0.950 . S
C5864 C5859 1.363 . S
C5864 C5863 1.415 . S
C5865 H5841 0.951 . S
C5865 C5866 1.366 . S
C5865 C5867 1.388 . S
C5866 C5865 1.366 . S
C5866 C5870 1.385 . S
C5867 H5842 0.951 . S
C5867 C5865 1.388 . S
C5867 C5868 1.366 . S
C5868 C5867 1.366 . S
C5868 C5869 1.414 . S
C5868 C5871 1.499 . S
C5869 H5843 0.950 . S
C5869 C5868 1.414 . S
C5869 C5870 1.374 . S
C5870 H5844 0.950 . S
C5870 C5866 1.385 . S
C5870 C5869 1.374 . S
C5871 C5868 1.499 . S
C5871 C5872 1.373 . S
C5871 C5873 1.389 . S
C5872 H5845 0.950 . S
C5872 C5858 1.377 . S
C5872 C5871 1.373 . S
C5873 C5857 1.377 . S
C5873 C5871 1.389 . S
C5873 C5874 1.524 . S
C5874 C5873 1.524 . S
C5874 C5875 1.397 . S
C5874 C5879 1.363 . S
C5875 H5846 0.950 . S
C5875 C5874 1.397 . S
C5875 C5876 1.334 . S
C5876 H5847 0.950 . S
C5876 C5875 1.334 . S
C5876 C5877 1.287 . S
C5877 C5876 1.287 . S
C5877 C5878 1.524 . S
C5877 H5880 0.999 . S
C5878 H5848 0.950 . S
C5878 C5877 1.524 . S
C5878 C5879 1.415 . S
C5879 H5849 0.950 . S
C5879 C5874 1.363 . S
C5879 C5878 1.415 . S
H5880 C5877 0.999 . S
H5881 C5862 0.913 . S
H5882 C5900 0.951 . S
H5883 C5902 0.951 . S
H5884 C5904 0.950 . S
H5885 C5905 0.950 . S
H5886 C5907 0.950 . S
H5887 C5910 0.950 . S
H5888 C5911 0.950 . S
H5889 C5913 0.950 . S
H5890 C5914 0.950 . S
H5891 C5915 0.951 . S
H5892 C5917 0.951 . S
H5893 C5919 0.950 . S
H5894 C5920 0.950 . S
H5895 C5922 0.950 . S
H5896 C5925 0.950 . S
H5897 C5926 0.950 . S
H5898 C5928 0.950 . S
H5899 C5929 0.950 . S
C5900 H5882 0.951 . S
C5900 C5901 1.366 . S
C5900 C5902 1.388 . S
C5901 C5900 1.366 . S
C5901 C5905 1.385 . S
C5902 H5883 0.951 . S
C5902 C5900 1.388 . S
C5902 C5903 1.366 . S
C5903 C5902 1.366 . S
C5903 C5904 1.414 . S
C5903 C5906 1.499 . S
C5904 H5884 0.950 . S
C5904 C5903 1.414 . S
C5904 C5905 1.374 . S
C5905 H5885 0.950 . S
C5905 C5901 1.385 . S
C5905 C5904 1.374 . S
C5906 C5903 1.499 . S
C5906 C5907 1.373 . S
C5906 C5908 1.389 . S
C5907 H5886 0.950 . S
C5907 C5906 1.373 . S
C5907 C5923 1.377 . S
C5908 C5906 1.389 . S
C5908 C5909 1.524 . S
C5908 C5922 1.377 . S
C5909 C5908 1.524 . S
C5909 C5910 1.397 . S
C5909 C5914 1.363 . S
C5910 H5887 0.950 . S
C5910 C5909 1.397 . S
C5910 C5911 1.334 . S
C5911 H5888 0.950 . S
C5911 C5910 1.334 . S
C5911 C5912 1.287 . S
C5912 C5911 1.287 . S
C5912 C5913 1.524 . S
C5912 H5931 0.913 . S
C5913 H5889 0.950 . S
C5913 C5912 1.524 . S
C5913 C5914 1.415 . S
C5914 H5890 0.950 . S
C5914 C5909 1.363 . S
C5914 C5913 1.415 . S
C5915 H5891 0.951 . S
C5915 C5916 1.366 . S
C5915 C5917 1.388 . S
C5916 C5915 1.366 . S
C5916 C5920 1.385 . S
C5917 H5892 0.951 . S
C5917 C5915 1.388 . S
C5917 C5918 1.366 . S
C5918 C5917 1.366 . S
C5918 C5919 1.414 . S
C5918 C5921 1.499 . S
C5919 H5893 0.950 . S
C5919 C5918 1.414 . S
C5919 C5920 1.374 . S
C5920 H5894 0.950 . S
C5920 C5916 1.385 . S
C5920 C5919 1.374 . S
C5921 C5918 1.499 . S
C5921 C5922 1.373 . S
C5921 C5923 1.389 . S
C5922 H5895 0.950 . S
C5922 C5908 1.377 . S
C5922 C5921 1.373 . S
C5923 C5907 1.377 . S
C5923 C5921 1.389 . S
C5923 C5924 1.524 . S
C5924 C5923 1.524 . S
C5924 C5925 1.397 . S
C5924 C5929 1.363 . S
C5925 H5896 0.950 . S
C5925 C5924 1.397 . S
C5925 C5926 1.334 . S
C5926 H5897 0.950 . S
C5926 C5925 1.334 . S
C5926 C5927 1.287 . S
C5927 C5926 1.287 . S
C5927 C5928 1.524 . S
C5927 H5930 0.999 . S
C5928 H5898 0.950 . S
C5928 C5927 1.524 . S
C5928 C5929 1.415 . S
C5929 H5899 0.950 . S
C5929 C5924 1.363 . S
C5929 C5928 1.415 . S
H5930 C5927 0.999 . S
H5931 C5912 0.913 . S
H5932 C5950 0.951 . S
H5933 C5952 0.951 . S
H5934 C5954 0.950 . S
H5935 C5955 0.950 . S
H5936 C5957 0.950 . S
H5937 C5960 0.950 . S
H5938 C5961 0.950 . S
H5939 C5963 0.950 . S
H5940 C5964 0.950 . S
H5941 C5965 0.951 . S
H5942 C5967 0.951 . S
H5943 C5969 0.950 . S
H5944 C5970 0.950 . S
H5945 C5972 0.950 . S
H5946 C5975 0.950 . S
H5947 C5976 0.950 . S
H5948 C5978 0.950 . S
H5949 C5979 0.950 . S
C5950 H5932 0.951 . S
C5950 C5951 1.366 . S
C5950 C5952 1.388 . S
C5951 C5950 1.366 . S
C5951 C5955 1.385 . S
C5952 H5933 0.951 . S
C5952 C5950 1.388 . S
C5952 C5953 1.366 . S
C5953 C5952 1.366 . S
C5953 C5954 1.414 . S
C5953 C5956 1.499 . S
C5954 H5934 0.950 . S
C5954 C5953 1.414 . S
C5954 C5955 1.374 . S
C5955 H5935 0.950 . S
C5955 C5951 1.385 . S
C5955 C5954 1.374 . S
C5956 C5953 1.499 . S
C5956 C5957 1.373 . S
C5956 C5958 1.389 . S
C5957 H5936 0.950 . S
C5957 C5956 1.373 . S
C5957 C5973 1.377 . S
C5958 C5956 1.389 . S
C5958 C5959 1.524 . S
C5958 C5972 1.377 . S
C5959 C5958 1.524 . S
C5959 C5960 1.397 . S
C5959 C5964 1.363 . S
C5960 H5937 0.950 . S
C5960 C5959 1.397 . S
C5960 C5961 1.334 . S
C5961 H5938 0.950 . S
C5961 C5960 1.334 . S
C5961 C5962 1.287 . S
C5962 C5961 1.287 . S
C5962 C5963 1.524 . S
C5962 H5981 0.913 . S
C5963 H5939 0.950 . S
C5963 C5962 1.524 . S
C5963 C5964 1.415 . S
C5964 H5940 0.950 . S
C5964 C5959 1.363 . S
C5964 C5963 1.415 . S
C5965 H5941 0.951 . S
C5965 C5966 1.366 . S
C5965 C5967 1.388 . S
C5966 C5965 1.366 . S
C5966 C5970 1.385 . S
C5967 H5942 0.951 . S
C5967 C5965 1.388 . S
C5967 C5968 1.366 . S
C5968 C5967 1.366 . S
C5968 C5969 1.414 . S
C5968 C5971 1.499 . S
C5969 H5943 0.950 . S
C5969 C5968 1.414 . S
C5969 C5970 1.374 . S
C5970 H5944 0.950 . S
C5970 C5966 1.385 . S
C5970 C5969 1.374 . S
C5971 C5968 1.499 . S
C5971 C5972 1.373 . S
C5971 C5973 1.389 . S
C5972 H5945 0.950 . S
C5972 C5958 1.377 . S
C5972 C5971 1.373 . S
C5973 C5957 1.377 . S
C5973 C5971 1.389 . S
C5973 C5974 1.524 . S
C5974 C5973 1.524 . S
C5974 C5975 1.397 . S
C5974 C5979 1.363 . S
C5975 H5946 0.950 . S
C5975 C5974 1.397 . S
C5975 C5976 1.334 . S
C5976 H5947 0.950 . S
C5976 C5975 1.334 . S
C5976 C5977 1.287 . S
C5977 C5976 1.287 . S
C5977 C5978 1.524 . S
C5977 H5980 0.999 . S
C5978 H5948 0.950 . S
C5978 C5977 1.524 . S
C5978 C5979 1.415 . S
C5979 H5949 0.950 . S
C5979 C5974 1.363 . S
C5979 C5978 1.415 . S
H5980 C5977 0.999 . S
H5981 C5962 0.913 . S
H5982 C6000 0.951 . S
H5983 C6002 0.951 . S
H5984 C6004 0.950 . S
H5985 C6005 0.950 . S
H5986 C6007 0.950 . S
H5987 C6010 0.950 . S
H5988 C6011 0.950 . S
H5989 C6013 0.950 . S
H5990 C6014 0.950 . S
H5991 C6015 0.951 . S
H5992 C6017 0.951 . S
H5993 C6019 0.950 . S
H5994 C6020 0.950 . S
H5995 C6022 0.950 . S
H5996 C6025 0.950 . S
H5997 C6026 0.950 . S
H5998 C6028 0.950 . S
H5999 C6029 0.950 . S
C6000 H5982 0.951 . S
C6000 C6001 1.366 . S
C6000 C6002 1.388 . S
C6001 C6000 1.366 . S
C6001 C6005 1.385 . S
C6002 H5983 0.951 . S
C6002 C6000 1.388 . S
C6002 C6003 1.366 . S
C6003 C6002 1.366 . S
C6003 C6004 1.414 . S
C6003 C6006 1.499 . S
C6004 H5984 0.950 . S
C6004 C6003 1.414 . S
C6004 C6005 1.374 . S
C6005 H5985 0.950 . S
C6005 C6001 1.385 . S
C6005 C6004 1.374 . S
C6006 C6003 1.499 . S
C6006 C6007 1.373 . S
C6006 C6008 1.389 . S
C6007 H5986 0.950 . S
C6007 C6006 1.373 . S
C6007 C6023 1.377 . S
C6008 C6006 1.389 . S
C6008 C6009 1.524 . S
C6008 C6022 1.377 . S
C6009 C6008 1.524 . S
C6009 C6010 1.397 . S
C6009 C6014 1.363 . S
C6010 H5987 0.950 . S
C6010 C6009 1.397 . S
C6010 C6011 1.334 . S
C6011 H5988 0.950 . S
C6011 C6010 1.334 . S
C6011 C6012 1.287 . S
C6012 C6011 1.287 . S
C6012 C6013 1.524 . S
C6012 H6031 0.913 . S
C6013 H5989 0.950 . S
C6013 C6012 1.524 . S
C6013 C6014 1.415 . S
C6014 H5990 0.950 . S
C6014 C6009 1.363 . S
C6014 C6013 1.415 . S
C6015 H5991 0.951 . S
C6015 C6016 1.366 . S
C6015 C6017 1.388 . S
C6016 C6015 1.366 . S
C6016 C6020 1.385 . S
C6017 H5992 0.951 . S
C6017 C6015 1.388 . S
C6017 C6018 1.366 . S
C6018 C6017 1.366 . S
C6018 C6019 1.414 . S
C6018 C6021 1.499 . S
C6019 H5993 0.950 . S
C6019 C6018 1.414 . S
C6019 C6020 1.374 . S
C6020 H5994 0.950 . S
C6020 C6016 1.385 . S
C6020 C6019 1.374 . S
C6021 C6018 1.499 . S
C6021 C6022 1.373 . S
C6021 C6023 1.389 . S
C6022 H5995 0.950 . S
C6022 C6008 1.377 . S
C6022 C6021 1.373 . S
C6023 C6007 1.377 . S
C6023 C6021 1.389 . S
C6023 C6024 1.524 . S
C6024 C6023 1.524 . S
C6024 C6025 1.397 . S
C6024 C6029 1.363 . S
C6025 H5996 0.950 . S
C6025 C6024 1.397 . S
C6025 C6026 1.334 . S
C6026 H5997 0.950 . S
C6026 C6025 1.334 . S
C6026 C6027 1.287 . S
C6027 C6026 1.287 . S
C6027 C6028 1.524 . S
C6027 H6030 0.999 . S
C6028 H5998 0.950 . S
C6028 C6027 1.524 . S
C6028 C6029 1.415 . S
C6029 H5999 0.950 . S
C6029 C6024 1.363 . S
C6029 C6028 1.415 . S
H6030 C6027 0.999 . S
H6031 C6012 0.913 . S
H6032 C6050 0.951 . S
H6033 C6052 0.951 . S
H6034 C6054 0.950 . S
H6035 C6055 0.950 . S
H6036 C6057 0.950 . S
H6037 C6060 0.950 . S
H6038 C6061 0.950 . S
H6039 C6063 0.950 . S
H6040 C6064 0.950 . S
H6041 C6065 0.951 . S
H6042 C6067 0.951 . S
H6043 C6069 0.950 . S
H6044 C6070 0.950 . S
H6045 C6072 0.950 . S
H6046 C6075 0.950 . S
H6047 C6076 0.950 . S
H6048 C6078 0.950 . S
H6049 C6079 0.950 . S
C6050 H6032 0.951 . S
C6050 C6051 1.366 . S
C6050 C6052 1.388 . S
C6051 C6050 1.366 . S
C6051 C6055 1.385 . S
C6052 H6033 0.951 . S
C6052 C6050 1.388 . S
C6052 C6053 1.366 . S
C6053 C6052 1.366 . S
C6053 C6054 1.414 . S
C6053 C6056 1.499 . S
C6054 H6034 0.950 . S
C6054 C6053 1.414 . S
C6054 C6055 1.374 . S
C6055 H6035 0.950 . S
C6055 C6051 1.385 . S
C6055 C6054 1.374 . S
C6056 C6053 1.499 . S
C6056 C6057 1.373 . S
C6056 C6058 1.389 . S
C6057 H6036 0.950 . S
C6057 C6056 1.373 . S
C6057 C6073 1.377 . S
C6058 C6056 1.389 . S
C6058 C6059 1.524 . S
C6058 C6072 1.377 . S
C6059 C6058 1.524 . S
C6059 C6060 1.397 . S
C6059 C6064 1.363 . S
C6060 H6037 0.950 . S
C6060 C6059 1.397 . S
C6060 C6061 1.334 . S
C6061 H6038 0.950 . S
C6061 C6060 1.334 . S
C6061 C6062 1.287 . S
C6062 C6061 1.287 . S
C6062 C6063 1.524 . S
C6062 H6081 0.913 . S
C6063 H6039 0.950 . S
C6063 C6062 1.524 . S
C6063 C6064 1.415 . S
C6064 H6040 0.950 . S
C6064 C6059 1.363 . S
C6064 C6063 1.415 . S
C6065 H6041 0.951 . S
C6065 C6066 1.366 . S
C6065 C6067 1.388 . S
C6066 C6065 1.366 . S
C6066 C6070 1.385 . S
C6067 H6042 0.951 . S
C6067 C6065 1.388 . S
C6067 C6068 1.366 . S
C6068 C6067 1.366 . S
C6068 C6069 1.414 . S
C6068 C6071 1.499 . S
C6069 H6043 0.950 . S
C6069 C6068 1.414 . S
C6069 C6070 1.374 . S
C6070 H6044 0.950 . S
C6070 C6066 1.385 . S
C6070 C6069 1.374 . S
C6071 C6068 1.499 . S
C6071 C6072 1.373 . S
C6071 C6073 1.389 . S
C6072 H6045 0.950 . S
C6072 C6058 1.377 . S
C6072 C6071 1.373 . S
C6073 C6057 1.377 . S
C6073 C6071 1.389 . S
C6073 C6074 1.524 . S
C6074 C6073 1.524 . S
C6074 C6075 1.397 . S
C6074 C6079 1.363 . S
C6075 H6046 0.950 . S
C6075 C6074 1.397 . S
C6075 C6076 1.334 . S
C6076 H6047 0.950 . S
C6076 C6075 1.334 . S
C6076 C6077 1.287 . S
C6077 C6076 1.287 . S
C6077 C6078 1.524 . S
C6077 H6080 0.999 . S
C6078 H6048 0.950 . S
C6078 C6077 1.524 . S
C6078 C6079 1.415 . S
C6079 H6049 0.950 . S
C6079 C6074 1.363 . S
C6079 C6078 1.415 . S
H6080 C6077 0.999 . S
H6081 C6062 0.913 . S
H6082 C6100 0.951 . S
H6083 C6102 0.951 . S
H6084 C6104 0.950 . S
H6085 C6105 0.950 . S
H6086 C6107 0.950 . S
H6087 C6110 0.950 . S
H6088 C6111 0.950 . S
H6089 C6113 0.950 . S
H6090 C6114 0.950 . S
H6091 C6115 0.951 . S
H6092 C6117 0.951 . S
H6093 C6119 0.950 . S
H6094 C6120 0.950 . S
H6095 C6122 0.950 . S
H6096 C6125 0.950 . S
H6097 C6126 0.950 . S
H6098 C6128 0.950 . S
H6099 C6129 0.950 . S
C6100 H6082 0.951 . S
C6100 C6101 1.366 . S
C6100 C6102 1.388 . S
C6101 C6100 1.366 . S
C6101 C6105 1.385 . S
C6102 H6083 0.951 . S
C6102 C6100 1.388 . S
C6102 C6103 1.366 . S
C6103 C6102 1.366 . S
C6103 C6104 1.414 . S
C6103 C6106 1.499 . S
C6104 H6084 0.950 . S
C6104 C6103 1.414 . S
C6104 C6105 1.374 . S
C6105 H6085 0.950 . S
C6105 C6101 1.385 . S
C6105 C6104 1.374 . S
C6106 C6103 1.499 . S
C6106 C6107 1.373 . S
C6106 C6108 1.389 . S
C6107 H6086 0.950 . S
C6107 C6106 1.373 . S
C6107 C6123 1.377 . S
C6108 C6106 1.389 . S
C6108 C6109 1.524 . S
C6108 C6122 1.377 . S
C6109 C6108 1.524 . S
C6109 C6110 1.397 . S
C6109 C6114 1.363 . S
C6110 H6087 0.950 . S
C6110 C6109 1.397 . S
C6110 C6111 1.334 . S
C6111 H6088 0.950 . S
C6111 C6110 1.334 . S
C6111 C6112 1.287 . S
C6112 C6111 1.287 . S
C6112 C6113 1.524 . S
C6112 H6131 0.913 . S
C6113 H6089 0.950 . S
C6113 C6112 1.524 . S
C6113 C6114 1.415 . S
C6114 H6090 0.950 . S
C6114 C6109 1.363 . S
C6114 C6113 1.415 . S
C6115 H6091 0.951 . S
C6115 C6116 1.366 . S
C6115 C6117 1.388 . S
C6116 C6115 1.366 . S
C6116 C6120 1.385 . S
C6117 H6092 0.951 . S
C6117 C6115 1.388 . S
C6117 C6118 1.366 . S
C6118 C6117 1.366 . S
C6118 C6119 1.414 . S
C6118 C6121 1.499 . S
C6119 H6093 0.950 . S
C6119 C6118 1.414 . S
C6119 C6120 1.374 . S
C6120 H6094 0.950 . S
C6120 C6116 1.385 . S
C6120 C6119 1.374 . S
C6121 C6118 1.499 . S
C6121 C6122 1.373 . S
C6121 C6123 1.389 . S
C6122 H6095 0.950 . S
C6122 C6108 1.377 . S
C6122 C6121 1.373 . S
C6123 C6107 1.377 . S
C6123 C6121 1.389 . S
C6123 C6124 1.524 . S
C6124 C6123 1.524 . S
C6124 C6125 1.397 . S
C6124 C6129 1.363 . S
C6125 H6096 0.950 . S
C6125 C6124 1.397 . S
C6125 C6126 1.334 . S
C6126 H6097 0.950 . S
C6126 C6125 1.334 . S
C6126 C6127 1.287 . S
C6127 C6126 1.287 . S
C6127 C6128 1.524 . S
C6127 H6130 0.999 . S
C6128 H6098 0.950 . S
C6128 C6127 1.524 . S
C6128 C6129 1.415 . S
C6129 H6099 0.950 . S
C6129 C6124 1.363 . S
C6129 C6128 1.415 . S
H6130 C6127 0.999 . S
H6131 C6112 0.913 . S
H6132 C6150 0.951 . S
H6133 C6152 0.951 . S
H6134 C6154 0.950 . S
H6135 C6155 0.950 . S
H6136 C6157 0.950 . S
H6137 C6160 0.950 . S
H6138 C6161 0.950 . S
H6139 C6163 0.950 . S
H6140 C6164 0.950 . S
H6141 C6165 0.951 . S
H6142 C6167 0.951 . S
H6143 C6169 0.950 . S
H6144 C6170 0.950 . S
H6145 C6172 0.950 . S
H6146 C6175 0.950 . S
H6147 C6176 0.950 . S
H6148 C6178 0.950 . S
H6149 C6179 0.950 . S
C6150 H6132 0.951 . S
C6150 C6151 1.366 . S
C6150 C6152 1.388 . S
C6151 C6150 1.366 . S
C6151 C6155 1.385 . S
C6152 H6133 0.951 . S
C6152 C6150 1.388 . S
C6152 C6153 1.366 . S
C6153 C6152 1.366 . S
C6153 C6154 1.414 . S
C6153 C6156 1.499 . S
C6154 H6134 0.950 . S
C6154 C6153 1.414 . S
C6154 C6155 1.374 . S
C6155 H6135 0.950 . S
C6155 C6151 1.385 . S
C6155 C6154 1.374 . S
C6156 C6153 1.499 . S
C6156 C6157 1.373 . S
C6156 C6158 1.389 . S
C6157 H6136 0.950 . S
C6157 C6156 1.373 . S
C6157 C6173 1.377 . S
C6158 C6156 1.389 . S
C6158 C6159 1.524 . S
C6158 C6172 1.377 . S
C6159 C6158 1.524 . S
C6159 C6160 1.397 . S
C6159 C6164 1.363 . S
C6160 H6137 0.950 . S
C6160 C6159 1.397 . S
C6160 C6161 1.334 . S
C6161 H6138 0.950 . S
C6161 C6160 1.334 . S
C6161 C6162 1.287 . S
C6162 C6161 1.287 . S
C6162 C6163 1.524 . S
C6162 H6181 0.913 . S
C6163 H6139 0.950 . S
C6163 C6162 1.524 . S
C6163 C6164 1.415 . S
C6164 H6140 0.950 . S
C6164 C6159 1.363 . S
C6164 C6163 1.415 . S
C6165 H6141 0.951 . S
C6165 C6166 1.366 . S
C6165 C6167 1.388 . S
C6166 C6165 1.366 . S
C6166 C6170 1.385 . S
C6167 H6142 0.951 . S
C6167 C6165 1.388 . S
C6167 C6168 1.366 . S
C6168 C6167 1.366 . S
C6168 C6169 1.414 . S
C6168 C6171 1.499 . S
C6169 H6143 0.950 . S
C6169 C6168 1.414 . S
C6169 C6170 1.374 . S
C6170 H6144 0.950 . S
C6170 C6166 1.385 . S
C6170 C6169 1.374 . S
C6171 C6168 1.499 . S
C6171 C6172 1.373 . S
C6171 C6173 1.389 . S
C6172 H6145 0.950 . S
C6172 C6158 1.377 . S
C6172 C6171 1.373 . S
C6173 C6157 1.377 . S
C6173 C6171 1.389 . S
C6173 C6174 1.524 . S
C6174 C6173 1.524 . S
C6174 C6175 1.397 . S
C6174 C6179 1.363 . S
C6175 H6146 0.950 . S
C6175 C6174 1.397 . S
C6175 C6176 1.334 . S
C6176 H6147 0.950 . S
C6176 C6175 1.334 . S
C6176 C6177 1.287 . S
C6177 C6176 1.287 . S
C6177 C6178 1.524 . S
C6177 H6180 0.999 . S
C6178 H6148 0.950 . S
C6178 C6177 1.524 . S
C6178 C6179 1.415 . S
C6179 H6149 0.950 . S
C6179 C6174 1.363 . S
C6179 C6178 1.415 . S
H6180 C6177 0.999 . S
H6181 C6162 0.913 . S
H6182 C6200 0.951 . S
H6183 C6202 0.951 . S
H6184 C6204 0.950 . S
H6185 C6205 0.950 . S
H6186 C6207 0.950 . S
H6187 C6210 0.950 . S
H6188 C6211 0.950 . S
H6189 C6213 0.950 . S
H6190 C6214 0.950 . S
H6191 C6215 0.951 . S
H6192 C6217 0.951 . S
H6193 C6219 0.950 . S
H6194 C6220 0.950 . S
H6195 C6222 0.950 . S
H6196 C6225 0.950 . S
H6197 C6226 0.950 . S
H6198 C6228 0.950 . S
H6199 C6229 0.950 . S
C6200 H6182 0.951 . S
C6200 C6201 1.366 . S
C6200 C6202 1.388 . S
C6201 C6200 1.366 . S
C6201 C6205 1.385 . S
C6202 H6183 0.951 . S
C6202 C6200 1.388 . S
C6202 C6203 1.366 . S
C6203 C6202 1.366 . S
C6203 C6204 1.414 . S
C6203 C6206 1.499 . S
C6204 H6184 0.950 . S
C6204 C6203 1.414 . S
C6204 C6205 1.374 . S
C6205 H6185 0.950 . S
C6205 C6201 1.385 . S
C6205 C6204 1.374 . S
C6206 C6203 1.499 . S
C6206 C6207 1.373 . S
C6206 C6208 1.389 . S
C6207 H6186 0.950 . S
C6207 C6206 1.373 . S
C6207 C6223 1.377 . S
C6208 C6206 1.389 . S
C6208 C6209 1.524 . S
C6208 C6222 1.377 . S
C6209 C6208 1.524 . S
C6209 C6210 1.397 . S
C6209 C6214 1.363 . S
C6210 H6187 0.950 . S
C6210 C6209 1.397 . S
C6210 C6211 1.334 . S
C6211 H6188 0.950 . S
C6211 C6210 1.334 . S
C6211 C6212 1.287 . S
C6212 C6211 1.287 . S
C6212 C6213 1.524 . S
C6212 H6231 0.913 . S
C6213 H6189 0.950 . S
C6213 C6212 1.524 . S
C6213 C6214 1.415 . S
C6214 H6190 0.950 . S
C6214 C6209 1.363 . S
C6214 C6213 1.415 . S
C6215 H6191 0.951 . S
C6215 C6216 1.366 . S
C6215 C6217 1.388 . S
C6216 C6215 1.366 . S
C6216 C6220 1.385 . S
C6217 H6192 0.951 . S
C6217 C6215 1.388 . S
C6217 C6218 1.366 . S
C6218 C6217 1.366 . S
C6218 C6219 1.414 . S
C6218 C6221 1.499 . S
C6219 H6193 0.950 . S
C6219 C6218 1.414 . S
C6219 C6220 1.374 . S
C6220 H6194 0.950 . S
C6220 C6216 1.385 . S
C6220 C6219 1.374 . S
C6221 C6218 1.499 . S
C6221 C6222 1.373 . S
C6221 C6223 1.389 . S
C6222 H6195 0.950 . S
C6222 C6208 1.377 . S
C6222 C6221 1.373 . S
C6223 C6207 1.377 . S
C6223 C6221 1.389 . S
C6223 C6224 1.524 . S
C6224 C6223 1.524 . S
C6224 C6225 1.397 . S
C6224 C6229 1.363 . S
C6225 H6196 0.950 . S
C6225 C6224 1.397 . S
C6225 C6226 1.334 . S
C6226 H6197 0.950 . S
C6226 C6225 1.334 . S
C6226 C6227 1.287 . S
C6227 C6226 1.287 . S
C6227 C6228 1.524 . S
C6227 H6230 0.999 . S
C6228 H6198 0.950 . S
C6228 C6227 1.524 . S
C6228 C6229 1.415 . S
C6229 H6199 0.950 . S
C6229 C6224 1.363 . S
C6229 C6228 1.415 . S
H6230 C6227 0.999 . S
H6231 C6212 0.913 . S
H6232 C6250 0.951 . S
H6233 C6252 0.951 . S
H6234 C6254 0.950 . S
H6235 C6255 0.950 . S
H6236 C6257 0.950 . S
H6237 C6260 0.950 . S
H6238 C6261 0.950 . S
H6239 C6263 0.950 . S
H6240 C6264 0.950 . S
H6241 C6265 0.951 . S
H6242 C6267 0.951 . S
H6243 C6269 0.950 . S
H6244 C6270 0.950 . S
H6245 C6272 0.950 . S
H6246 C6275 0.950 . S
H6247 C6276 0.950 . S
H6248 C6278 0.950 . S
H6249 C6279 0.950 . S
C6250 H6232 0.951 . S
C6250 C6251 1.366 . S
C6250 C6252 1.388 . S
C6251 C6250 1.366 . S
C6251 C6255 1.385 . S
C6252 H6233 0.951 . S
C6252 C6250 1.388 . S
C6252 C6253 1.366 . S
C6253 C6252 1.366 . S
C6253 C6254 1.414 . S
C6253 C6256 1.499 . S
C6254 H6234 0.950 . S
C6254 C6253 1.414 . S
C6254 C6255 1.374 . S
C6255 H6235 0.950 . S
C6255 C6251 1.385 . S
C6255 C6254 1.374 . S
C6256 C6253 1.499 . S
C6256 C6257 1.373 . S
C6256 C6258 1.389 . S
C6257 H6236 0.950 . S
C6257 C6256 1.373 . S
C6257 C6273 1.377 . S
C6258 C6256 1.389 . S
C6258 C6259 1.524 . S
C6258 C6272 1.377 . S
C6259 C6258 1.524 . S
C6259 C6260 1.397 . S
C6259 C6264 1.363 . S
C6260 H6237 0.950 . S
C6260 C6259 1.397 . S
C6260 C6261 1.334 . S
C6261 H6238 0.950 . S
C6261 C6260 1.334 . S
C6261 C6262 1.287 . S
C6262 C6261 1.287 . S
C6262 C6263 1.524 . S
C6262 H6281 0.913 . S
C6263 H6239 0.950 . S
C6263 C6262 1.524 . S
C6263 C6264 1.415 . S
C6264 H6240 0.950 . S
C6264 C6259 1.363 . S
C6264 C6263 1.415 . S
C6265 H6241 0.951 . S
C6265 C6266 1.366 . S
C6265 C6267 1.388 . S
C6266 C6265 1.366 . S
C6266 C6270 1.385 . S
C6267 H6242 0.951 . S
C6267 C6265 1.388 . S
C6267 C6268 1.366 . S
C6268 C6267 1.366 . S
C6268 C6269 1.414 . S
C6268 C6271 1.499 . S
C6269 H6243 0.950 . S
C6269 C6268 1.414 . S
C6269 C6270 1.374 . S
C6270 H6244 0.950 . S
C6270 C6266 1.385 . S
C6270 C6269 1.374 . S
C6271 C6268 1.499 . S
C6271 C6272 1.373 . S
C6271 C6273 1.389 . S
C6272 H6245 0.950 . S
C6272 C6258 1.377 . S
C6272 C6271 1.373 . S
C6273 C6257 1.377 . S
C6273 C6271 1.389 . S
C6273 C6274 1.524 . S
C6274 C6273 1.524 . S
C6274 C6275 1.397 . S
C6274 C6279 1.363 . S
C6275 H6246 0.950 . S
C6275 C6274 1.397 . S
C6275 C6276 1.334 . S
C6276 H6247 0.950 . S
C6276 C6275 1.334 . S
C6276 C6277 1.287 . S
C6277 C6276 1.287 . S
C6277 C6278 1.524 . S
C6277 H6280 0.999 . S
C6278 H6248 0.950 . S
C6278 C6277 1.524 . S
C6278 C6279 1.415 . S
C6279 H6249 0.950 . S
C6279 C6274 1.363 . S
C6279 C6278 1.415 . S
H6280 C6277 0.999 . S
H6281 C6262 0.913 . S
H6282 C6300 0.951 . S
H6283 C6302 0.951 . S
H6284 C6304 0.950 . S
H6285 C6305 0.950 . S
H6286 C6307 0.950 . S
H6287 C6310 0.950 . S
H6288 C6311 0.950 . S
H6289 C6313 0.950 . S
H6290 C6314 0.950 . S
H6291 C6315 0.951 . S
H6292 C6317 0.951 . S
H6293 C6319 0.950 . S
H6294 C6320 0.950 . S
H6295 C6322 0.950 . S
H6296 C6325 0.950 . S
H6297 C6326 0.950 . S
H6298 C6328 0.950 . S
H6299 C6329 0.950 . S
C6300 H6282 0.951 . S
C6300 C6301 1.366 . S
C6300 C6302 1.388 . S
C6301 C6300 1.366 . S
C6301 C6305 1.385 . S
C6302 H6283 0.951 . S
C6302 C6300 1.388 . S
C6302 C6303 1.366 . S
C6303 C6302 1.366 . S
C6303 C6304 1.414 . S
C6303 C6306 1.499 . S
C6304 H6284 0.950 . S
C6304 C6303 1.414 . S
C6304 C6305 1.374 . S
C6305 H6285 0.950 . S
C6305 C6301 1.385 . S
C6305 C6304 1.374 . S
C6306 C6303 1.499 . S
C6306 C6307 1.373 . S
C6306 C6308 1.389 . S
C6307 H6286 0.950 . S
C6307 C6306 1.373 . S
C6307 C6323 1.377 . S
C6308 C6306 1.389 . S
C6308 C6309 1.524 . S
C6308 C6322 1.377 . S
C6309 C6308 1.524 . S
C6309 C6310 1.397 . S
C6309 C6314 1.363 . S
C6310 H6287 0.950 . S
C6310 C6309 1.397 . S
C6310 C6311 1.334 . S
C6311 H6288 0.950 . S
C6311 C6310 1.334 . S
C6311 C6312 1.287 . S
C6312 C6311 1.287 . S
C6312 C6313 1.524 . S
C6312 H6331 0.913 . S
C6313 H6289 0.950 . S
C6313 C6312 1.524 . S
C6313 C6314 1.415 . S
C6314 H6290 0.950 . S
C6314 C6309 1.363 . S
C6314 C6313 1.415 . S
C6315 H6291 0.951 . S
C6315 C6316 1.366 . S
C6315 C6317 1.388 . S
C6316 C6315 1.366 . S
C6316 C6320 1.385 . S
C6317 H6292 0.951 . S
C6317 C6315 1.388 . S
C6317 C6318 1.366 . S
C6318 C6317 1.366 . S
C6318 C6319 1.414 . S
C6318 C6321 1.499 . S
C6319 H6293 0.950 . S
C6319 C6318 1.414 . S
C6319 C6320 1.374 . S
C6320 H6294 0.950 . S
C6320 C6316 1.385 . S
C6320 C6319 1.374 . S
C6321 C6318 1.499 . S
C6321 C6322 1.373 . S
C6321 C6323 1.389 . S
C6322 H6295 0.950 . S
C6322 C6308 1.377 . S
C6322 C6321 1.373 . S
C6323 C6307 1.377 . S
C6323 C6321 1.389 . S
C6323 C6324 1.524 . S
C6324 C6323 1.524 . S
C6324 C6325 1.397 . S
C6324 C6329 1.363 . S
C6325 H6296 0.950 . S
C6325 C6324 1.397 . S
C6325 C6326 1.334 . S
C6326 H6297 0.950 . S
C6326 C6325 1.334 . S
C6326 C6327 1.287 . S
C6327 C6326 1.287 . S
C6327 C6328 1.524 . S
C6327 H6330 0.999 . S
C6328 H6298 0.950 . S
C6328 C6327 1.524 . S
C6328 C6329 1.415 . S
C6329 H6299 0.950 . S
C6329 C6324 1.363 . S
C6329 C6328 1.415 . S
H6330 C6327 0.999 . S
H6331 C6312 0.913 . S
H6332 C6350 0.951 . S
H6333 C6352 0.951 . S
H6334 C6354 0.950 . S
H6335 C6355 0.950 . S
H6336 C6357 0.950 . S
H6337 C6360 0.950 . S
H6338 C6361 0.950 . S
H6339 C6363 0.950 . S
H6340 C6364 0.950 . S
H6341 C6365 0.951 . S
H6342 C6367 0.951 . S
H6343 C6369 0.950 . S
H6344 C6370 0.950 . S
H6345 C6372 0.950 . S
H6346 C6375 0.950 . S
H6347 C6376 0.950 . S
H6348 C6378 0.950 . S
H6349 C6379 0.950 . S
C6350 H6332 0.951 . S
C6350 C6351 1.366 . S
C6350 C6352 1.388 . S
C6351 C6350 1.366 . S
C6351 C6355 1.385 . S
C6352 H6333 0.951 . S
C6352 C6350 1.388 . S
C6352 C6353 1.366 . S
C6353 C6352 1.366 . S
C6353 C6354 1.414 . S
C6353 C6356 1.499 . S
C6354 H6334 0.950 . S
C6354 C6353 1.414 . S
C6354 C6355 1.374 . S
C6355 H6335 0.950 . S
C6355 C6351 1.385 . S
C6355 C6354 1.374 . S
C6356 C6353 1.499 . S
C6356 C6357 1.373 . S
C6356 C6358 1.389 . S
C6357 H6336 0.950 . S
C6357 C6356 1.373 . S
C6357 C6373 1.377 . S
C6358 C6356 1.389 . S
C6358 C6359 1.524 . S
C6358 C6372 1.377 . S
C6359 C6358 1.524 . S
C6359 C6360 1.397 . S
C6359 C6364 1.363 . S
C6360 H6337 0.950 . S
C6360 C6359 1.397 . S
C6360 C6361 1.334 . S
C6361 H6338 0.950 . S
C6361 C6360 1.334 . S
C6361 C6362 1.287 . S
C6362 C6361 1.287 . S
C6362 C6363 1.524 . S
C6362 H6381 0.913 . S
C6363 H6339 0.950 . S
C6363 C6362 1.524 . S
C6363 C6364 1.415 . S
C6364 H6340 0.950 . S
C6364 C6359 1.363 . S
C6364 C6363 1.415 . S
C6365 H6341 0.951 . S
C6365 C6366 1.366 . S
C6365 C6367 1.388 . S
C6366 C6365 1.366 . S
C6366 C6370 1.385 . S
C6367 H6342 0.951 . S
C6367 C6365 1.388 . S
C6367 C6368 1.366 . S
C6368 C6367 1.366 . S
C6368 C6369 1.414 . S
C6368 C6371 1.499 . S
C6369 H6343 0.950 . S
C6369 C6368 1.414 . S
C6369 C6370 1.374 . S
C6370 H6344 0.950 . S
C6370 C6366 1.385 . S
C6370 C6369 1.374 . S
C6371 C6368 1.499 . S
C6371 C6372 1.373 . S
C6371 C6373 1.389 . S
C6372 H6345 0.950 . S
C6372 C6358 1.377 . S
C6372 C6371 1.373 . S
C6373 C6357 1.377 . S
C6373 C6371 1.389 . S
C6373 C6374 1.524 . S
C6374 C6373 1.524 . S
C6374 C6375 1.397 . S
C6374 C6379 1.363 . S
C6375 H6346 0.950 . S
C6375 C6374 1.397 . S
C6375 C6376 1.334 . S
C6376 H6347 0.950 . S
C6376 C6375 1.334 . S
C6376 C6377 1.287 . S
C6377 C6376 1.287 . S
C6377 C6378 1.524 . S
C6377 H6380 0.999 . S
C6378 H6348 0.950 . S
C6378 C6377 1.524 . S
C6378 C6379 1.415 . S
C6379 H6349 0.950 . S
C6379 C6374 1.363 . S
C6379 C6378 1.415 . S
H6380 C6377 0.999 . S
H6381 C6362 0.913 . S
H6382 C6400 0.951 . S
H6383 C6402 0.951 . S
H6384 C6404 0.950 . S
H6385 C6405 0.950 . S
H6386 C6407 0.950 . S
H6387 C6410 0.950 . S
H6388 C6411 0.950 . S
H6389 C6413 0.950 . S
H6390 C6414 0.950 . S
H6391 C6415 0.951 . S
H6392 C6417 0.951 . S
H6393 C6419 0.950 . S
H6394 C6420 0.950 . S
H6395 C6422 0.950 . S
H6396 C6425 0.950 . S
H6397 C6426 0.950 . S
H6398 C6428 0.950 . S
H6399 C6429 0.950 . S
C6400 H6382 0.951 . S
C6400 C6401 1.366 . S
C6400 C6402 1.388 . S
C6401 C6400 1.366 . S
C6401 C6405 1.385 . S
C6402 H6383 0.951 . S
C6402 C6400 1.388 . S
C6402 C6403 1.366 . S
C6403 C6402 1.366 . S
C6403 C6404 1.414 . S
C6403 C6406 1.499 . S
C6404 H6384 0.950 . S
C6404 C6403 1.414 . S
C6404 C6405 1.374 . S
C6405 H6385 0.950 . S
C6405 C6401 1.385 . S
C6405 C6404 1.374 . S
C6406 C6403 1.499 . S
C6406 C6407 1.373 . S
C6406 C6408 1.389 . S
C6407 H6386 0.950 . S
C6407 C6406 1.373 . S
C6407 C6423 1.377 . S
C6408 C6406 1.389 . S
C6408 C6409 1.524 . S
C6408 C6422 1.377 . S
C6409 C6408 1.524 . S
C6409 C6410 1.397 . S
C6409 C6414 1.363 . S
C6410 H6387 0.950 . S
C6410 C6409 1.397 . S
C6410 C6411 1.334 . S
C6411 H6388 0.950 . S
C6411 C6410 1.334 . S
C6411 C6412 1.287 . S
C6412 C6411 1.287 . S
C6412 C6413 1.524 . S
C6412 H6431 0.913 . S
C6413 H6389 0.950 . S
C6413 C6412 1.524 . S
C6413 C6414 1.415 . S
C6414 H6390 0.950 . S
C6414 C6409 1.363 . S
C6414 C6413 1.415 . S
C6415 H6391 0.951 . S
C6415 C6416 1.366 . S
C6415 C6417 1.388 . S
C6416 C6415 1.366 . S
C6416 C6420 1.385 . S
C6417 H6392 0.951 . S
C6417 C6415 1.388 . S
C6417 C6418 1.366 . S
C6418 C6417 1.366 . S
C6418 C6419 1.414 . S
C6418 C6421 1.499 . S
C6419 H6393 0.950 . S
C6419 C6418 1.414 . S
C6419 C6420 1.374 . S
C6420 H6394 0.950 . S
C6420 C6416 1.385 . S
C6420 C6419 1.374 . S
C6421 C6418 1.499 . S
C6421 C6422 1.373 . S
C6421 C6423 1.389 . S
C6422 H6395 0.950 . S
C6422 C6408 1.377 . S
C6422 C6421 1.373 . S
C6423 C6407 1.377 . S
C6423 C6421 1.389 . S
C6423 C6424 1.524 . S
C6424 C6423 1.524 . S
C6424 C6425 1.397 . S
C6424 C6429 1.363 . S
C6425 H6396 0.950 . S
C6425 C6424 1.397 . S
C6425 C6426 1.334 . S
C6426 H6397 0.950 . S
C6426 C6425 1.334 . S
C6426 C6427 1.287 . S
C6427 C6426 1.287 . S
C6427 C6428 1.524 . S
C6427 H6430 0.999 . S
C6428 H6398 0.950 . S
C6428 C6427 1.524 . S
C6428 C6429 1.415 . S
C6429 H6399 0.950 . S
C6429 C6424 1.363 . S
C6429 C6428 1.415 . S
H6430 C6427 0.999 . S
H6431 C6412 0.913 . S
H6432 C6450 0.951 . S
H6433 C6452 0.951 . S
H6434 C6454 0.950 . S
H6435 C6455 0.950 . S
H6436 C6457 0.950 . S
H6437 C6460 0.950 . S
H6438 C6461 0.950 . S
H6439 C6463 0.950 . S
H6440 C6464 0.950 . S
H6441 C6465 0.951 . S
H6442 C6467 0.951 . S
H6443 C6469 0.950 . S
H6444 C6470 0.950 . S
H6445 C6472 0.950 . S
H6446 C6475 0.950 . S
H6447 C6476 0.950 . S
H6448 C6478 0.950 . S
H6449 C6479 0.950 . S
C6450 H6432 0.951 . S
C6450 C6451 1.366 . S
C6450 C6452 1.388 . S
C6451 C6450 1.366 . S
C6451 C6455 1.385 . S
C6452 H6433 0.951 . S
C6452 C6450 1.388 . S
C6452 C6453 1.366 . S
C6453 C6452 1.366 . S
C6453 C6454 1.414 . S
C6453 C6456 1.499 . S
C6454 H6434 0.950 . S
C6454 C6453 1.414 . S
C6454 C6455 1.374 . S
C6455 H6435 0.950 . S
C6455 C6451 1.385 . S
C6455 C6454 1.374 . S
C6456 C6453 1.499 . S
C6456 C6457 1.373 . S
C6456 C6458 1.389 . S
C6457 H6436 0.950 . S
C6457 C6456 1.373 . S
C6457 C6473 1.377 . S
C6458 C6456 1.389 . S
C6458 C6459 1.524 . S
C6458 C6472 1.377 . S
C6459 C6458 1.524 . S
C6459 C6460 1.397 . S
C6459 C6464 1.363 . S
C6460 H6437 0.950 . S
C6460 C6459 1.397 . S
C6460 C6461 1.334 . S
C6461 H6438 0.950 . S
C6461 C6460 1.334 . S
C6461 C6462 1.287 . S
C6462 C6461 1.287 . S
C6462 C6463 1.524 . S
C6462 H6481 0.913 . S
C6463 H6439 0.950 . S
C6463 C6462 1.524 . S
C6463 C6464 1.415 . S
C6464 H6440 0.950 . S
C6464 C6459 1.363 . S
C6464 C6463 1.415 . S
C6465 H6441 0.951 . S
C6465 C6466 1.366 . S
C6465 C6467 1.388 . S
C6466 C6465 1.366 . S
C6466 C6470 1.385 . S
C6467 H6442 0.951 . S
C6467 C6465 1.388 . S
C6467 C6468 1.366 . S
C6468 C6467 1.366 . S
C6468 C6469 1.414 . S
C6468 C6471 1.499 . S
C6469 H6443 0.950 . S
C6469 C6468 1.414 . S
C6469 C6470 1.374 . S
C6470 H6444 0.950 . S
C6470 C6466 1.385 . S
C6470 C6469 1.374 . S
C6471 C6468 1.499 . S
C6471 C6472 1.373 . S
C6471 C6473 1.389 . S
C6472 H6445 0.950 . S
C6472 C6458 1.377 . S
C6472 C6471 1.373 . S
C6473 C6457 1.377 . S
C6473 C6471 1.389 . S
C6473 C6474 1.524 . S
C6474 C6473 1.524 . S
C6474 C6475 1.397 . S
C6474 C6479 1.363 . S
C6475 H6446 0.950 . S
C6475 C6474 1.397 . S
C6475 C6476 1.334 . S
C6476 H6447 0.950 . S
C6476 C6475 1.334 . S
C6476 C6477 1.287 . S
C6477 C6476 1.287 . S
C6477 C6478 1.524 . S
C6477 H6480 0.999 . S
C6478 H6448 0.950 . S
C6478 C6477 1.524 . S
C6478 C6479 1.415 . S
C6479 H6449 0.950 . S
C6479 C6474 1.363 . S
C6479 C6478 1.415 . S
H6480 C6477 0.999 . S
H6481 C6462 0.913 . S
H6482 C6500 0.951 . S
H6483 C6502 0.951 . S
H6484 C6504 0.950 . S
H6485 C6505 0.950 . S
H6486 C6507 0.950 . S
H6487 C6510 0.950 . S
H6488 C6511 0.950 . S
H6489 C6513 0.950 . S
H6490 C6514 0.950 . S
H6491 C6515 0.951 . S
H6492 C6517 0.951 . S
H6493 C6519 0.950 . S
H6494 C6520 0.950 . S
H6495 C6522 0.950 . S
H6496 C6525 0.950 . S
H6497 C6526 0.950 . S
H6498 C6528 0.950 . S
H6499 C6529 0.950 . S
C6500 H6482 0.951 . S
C6500 C6501 1.366 . S
C6500 C6502 1.388 . S
C6501 C6500 1.366 . S
C6501 C6505 1.385 . S
C6502 H6483 0.951 . S
C6502 C6500 1.388 . S
C6502 C6503 1.366 . S
C6503 C6502 1.366 . S
C6503 C6504 1.414 . S
C6503 C6506 1.499 . S
C6504 H6484 0.950 . S
C6504 C6503 1.414 . S
C6504 C6505 1.374 . S
C6505 H6485 0.950 . S
C6505 C6501 1.385 . S
C6505 C6504 1.374 . S
C6506 C6503 1.499 . S
C6506 C6507 1.373 . S
C6506 C6508 1.389 . S
C6507 H6486 0.950 . S
C6507 C6506 1.373 . S
C6507 C6523 1.377 . S
C6508 C6506 1.389 . S
C6508 C6509 1.524 . S
C6508 C6522 1.377 . S
C6509 C6508 1.524 . S
C6509 C6510 1.397 . S
C6509 C6514 1.363 . S
C6510 H6487 0.950 . S
C6510 C6509 1.397 . S
C6510 C6511 1.334 . S
C6511 H6488 0.950 . S
C6511 C6510 1.334 . S
C6511 C6512 1.287 . S
C6512 C6511 1.287 . S
C6512 C6513 1.524 . S
C6512 H6531 0.913 . S
C6513 H6489 0.950 . S
C6513 C6512 1.524 . S
C6513 C6514 1.415 . S
C6514 H6490 0.950 . S
C6514 C6509 1.363 . S
C6514 C6513 1.415 . S
C6515 H6491 0.951 . S
C6515 C6516 1.366 . S
C6515 C6517 1.388 . S
C6516 C6515 1.366 . S
C6516 C6520 1.385 . S
C6517 H6492 0.951 . S
C6517 C6515 1.388 . S
C6517 C6518 1.366 . S
C6518 C6517 1.366 . S
C6518 C6519 1.414 . S
C6518 C6521 1.499 . S
C6519 H6493 0.950 . S
C6519 C6518 1.414 . S
C6519 C6520 1.374 . S
C6520 H6494 0.950 . S
C6520 C6516 1.385 . S
C6520 C6519 1.374 . S
C6521 C6518 1.499 . S
C6521 C6522 1.373 . S
C6521 C6523 1.389 . S
C6522 H6495 0.950 . S
C6522 C6508 1.377 . S
C6522 C6521 1.373 . S
C6523 C6507 1.377 . S
C6523 C6521 1.389 . S
C6523 C6524 1.524 . S
C6524 C6523 1.524 . S
C6524 C6525 1.397 . S
C6524 C6529 1.363 . S
C6525 H6496 0.950 . S
C6525 C6524 1.397 . S
C6525 C6526 1.334 . S
C6526 H6497 0.950 . S
C6526 C6525 1.334 . S
C6526 C6527 1.287 . S
C6527 C6526 1.287 . S
C6527 C6528 1.524 . S
C6527 H6530 0.999 . S
C6528 H6498 0.950 . S
C6528 C6527 1.524 . S
C6528 C6529 1.415 . S
C6529 H6499 0.950 . S
C6529 C6524 1.363 . S
C6529 C6528 1.415 . S
H6530 C6527 0.999 . S
H6531 C6512 0.913 . S
H6532 C6550 0.951 . S
H6533 C6552 0.951 . S
H6534 C6554 0.950 . S
H6535 C6555 0.950 . S
H6536 C6557 0.950 . S
H6537 C6560 0.950 . S
H6538 C6561 0.950 . S
H6539 C6563 0.950 . S
H6540 C6564 0.950 . S
H6541 C6565 0.951 . S
H6542 C6567 0.951 . S
H6543 C6569 0.950 . S
H6544 C6570 0.950 . S
H6545 C6572 0.950 . S
H6546 C6575 0.950 . S
H6547 C6576 0.950 . S
H6548 C6578 0.950 . S
H6549 C6579 0.950 . S
C6550 H6532 0.951 . S
C6550 C6551 1.366 . S
C6550 C6552 1.388 . S
C6551 C6550 1.366 . S
C6551 C6555 1.385 . S
C6552 H6533 0.951 . S
C6552 C6550 1.388 . S
C6552 C6553 1.366 . S
C6553 C6552 1.366 . S
C6553 C6554 1.414 . S
C6553 C6556 1.499 . S
C6554 H6534 0.950 . S
C6554 C6553 1.414 . S
C6554 C6555 1.374 . S
C6555 H6535 0.950 . S
C6555 C6551 1.385 . S
C6555 C6554 1.374 . S
C6556 C6553 1.499 . S
C6556 C6557 1.373 . S
C6556 C6558 1.389 . S
C6557 H6536 0.950 . S
C6557 C6556 1.373 . S
C6557 C6573 1.377 . S
C6558 C6556 1.389 . S
C6558 C6559 1.524 . S
C6558 C6572 1.377 . S
C6559 C6558 1.524 . S
C6559 C6560 1.397 . S
C6559 C6564 1.363 . S
C6560 H6537 0.950 . S
C6560 C6559 1.397 . S
C6560 C6561 1.334 . S
C6561 H6538 0.950 . S
C6561 C6560 1.334 . S
C6561 C6562 1.287 . S
C6562 C6561 1.287 . S
C6562 C6563 1.524 . S
C6562 H6581 0.913 . S
C6563 H6539 0.950 . S
C6563 C6562 1.524 . S
C6563 C6564 1.415 . S
C6564 H6540 0.950 . S
C6564 C6559 1.363 . S
C6564 C6563 1.415 . S
C6565 H6541 0.951 . S
C6565 C6566 1.366 . S
C6565 C6567 1.388 . S
C6566 C6565 1.366 . S
C6566 C6570 1.385 . S
C6567 H6542 0.951 . S
C6567 C6565 1.388 . S
C6567 C6568 1.366 . S
C6568 C6567 1.366 . S
C6568 C6569 1.414 . S
C6568 C6571 1.499 . S
C6569 H6543 0.950 . S
C6569 C6568 1.414 . S
C6569 C6570 1.374 . S
C6570 H6544 0.950 . S
C6570 C6566 1.385 . S
C6570 C6569 1.374 . S
C6571 C6568 1.499 . S
C6571 C6572 1.373 . S
C6571 C6573 1.389 . S
C6572 H6545 0.950 . S
C6572 C6558 1.377 . S
C6572 C6571 1.373 . S
C6573 C6557 1.377 . S
C6573 C6571 1.389 . S
C6573 C6574 1.524 . S
C6574 C6573 1.524 . S
C6574 C6575 1.397 . S
C6574 C6579 1.363 . S
C6575 H6546 0.950 . S
C6575 C6574 1.397 . S
C6575 C6576 1.334 . S
C6576 H6547 0.950 . S
C6576 C6575 1.334 . S
C6576 C6577 1.287 . S
C6577 C6576 1.287 . S
C6577 C6578 1.524 . S
C6577 H6580 0.999 . S
C6578 H6548 0.950 . S
C6578 C6577 1.524 . S
C6578 C6579 1.415 . S
C6579 H6549 0.950 . S
C6579 C6574 1.363 . S
C6579 C6578 1.415 . S
H6580 C6577 0.999 . S
H6581 C6562 0.913 . S
H6582 C6600 0.951 . S
H6583 C6602 0.951 . S
H6584 C6604 0.950 . S
H6585 C6605 0.950 . S
H6586 C6607 0.950 . S
H6587 C6610 0.950 . S
H6588 C6611 0.950 . S
H6589 C6613 0.950 . S
H6590 C6614 0.950 . S
H6591 C6615 0.951 . S
H6592 C6617 0.951 . S
H6593 C6619 0.950 . S
H6594 C6620 0.950 . S
H6595 C6622 0.950 . S
H6596 C6625 0.950 . S
H6597 C6626 0.950 . S
H6598 C6628 0.950 . S
H6599 C6629 0.950 . S
C6600 H6582 0.951 . S
C6600 C6601 1.366 . S
C6600 C6602 1.388 . S
C6601 C6600 1.366 . S
C6601 C6605 1.385 . S
C6602 H6583 0.951 . S
C6602 C6600 1.388 . S
C6602 C6603 1.366 . S
C6603 C6602 1.366 . S
C6603 C6604 1.414 . S
C6603 C6606 1.499 . S
C6604 H6584 0.950 . S
C6604 C6603 1.414 . S
C6604 C6605 1.374 . S
C6605 H6585 0.950 . S
C6605 C6601 1.385 . S
C6605 C6604 1.374 . S
C6606 C6603 1.499 . S
C6606 C6607 1.373 . S
C6606 C6608 1.389 . S
C6607 H6586 0.950 . S
C6607 C6606 1.373 . S
C6607 C6623 1.377 . S
C6608 C6606 1.389 . S
C6608 C6609 1.524 . S
C6608 C6622 1.377 . S
C6609 C6608 1.524 . S
C6609 C6610 1.397 . S
C6609 C6614 1.363 . S
C6610 H6587 0.950 . S
C6610 C6609 1.397 . S
C6610 C6611 1.334 . S
C6611 H6588 0.950 . S
C6611 C6610 1.334 . S
C6611 C6612 1.287 . S
C6612 C6611 1.287 . S
C6612 C6613 1.524 . S
C6612 H6631 0.913 . S
C6613 H6589 0.950 . S
C6613 C6612 1.524 . S
C6613 C6614 1.415 . S
C6614 H6590 0.950 . S
C6614 C6609 1.363 . S
C6614 C6613 1.415 . S
C6615 H6591 0.951 . S
C6615 C6616 1.366 . S
C6615 C6617 1.388 . S
C6616 C6615 1.366 . S
C6616 C6620 1.385 . S
C6617 H6592 0.951 . S
C6617 C6615 1.388 . S
C6617 C6618 1.366 . S
C6618 C6617 1.366 . S
C6618 C6619 1.414 . S
C6618 C6621 1.499 . S
C6619 H6593 0.950 . S
C6619 C6618 1.414 . S
C6619 C6620 1.374 . S
C6620 H6594 0.950 . S
C6620 C6616 1.385 . S
C6620 C6619 1.374 . S
C6621 C6618 1.499 . S
C6621 C6622 1.373 . S
C6621 C6623 1.389 . S
C6622 H6595 0.950 . S
C6622 C6608 1.377 . S
C6622 C6621 1.373 . S
C6623 C6607 1.377 . S
C6623 C6621 1.389 . S
C6623 C6624 1.524 . S
C6624 C6623 1.524 . S
C6624 C6625 1.397 . S
C6624 C6629 1.363 . S
C6625 H6596 0.950 . S
C6625 C6624 1.397 . S
C6625 C6626 1.334 . S
C6626 H6597 0.950 . S
C6626 C6625 1.334 . S
C6626 C6627 1.287 . S
C6627 C6626 1.287 . S
C6627 C6628 1.524 . S
C6627 H6630 0.999 . S
C6628 H6598 0.950 . S
C6628 C6627 1.524 . S
C6628 C6629 1.415 . S
C6629 H6599 0.950 . S
C6629 C6624 1.363 . S
C6629 C6628 1.415 . S
H6630 C6627 0.999 . S
H6631 C6612 0.913 . S
C1866 N1292 1.499 . S
C1851 C21 1.538 . S
C1916 C1319 1.515 . S
C1901 C42 1.502 . S
C1951 C82 1.534 . S
C1966 C1333 1.530 . S
C2016 N1351 1.434 . S
C2001 C135 1.474 . S
C2051 C175 1.484 . S
C2066 C1356 1.482 . S
C2101 C221 1.525 . S
C2116 C1296 1.525 . S
C2151 C255 1.395 . S
C2166 N1315 1.363 . S
C2216 N1328 1.513 . S
C2201 C301 1.542 . S
C2266 N1374 1.419 . S
C2251 C15 1.458 . S
C2301 C55 1.466 . S
C2316 N1397 1.434 . S
C2351 C101 1.600 . S
C2366 N1420 1.579 . S
C2416 N1453 1.425 . S
C2401 C141 1.456 . S
C2451 C162 1.480 . S
C2466 C1480 1.476 . S
C2516 C1503 1.566 . S
C2501 C215 1.572 . S
C2551 C261 1.472 . S
C2566 C1526 1.485 . S
C2616 C1540 1.459 . S
C2601 C282 1.439 . S
C2651 C2 1.455 . S
C2666 C1457 1.452 . S
C2701 C181 1.419 . S
C2716 N1499 1.392 . S
C2766 N1522 1.475 . S
C2751 C202 1.506 . S
C2801 C242 1.455 . S
C2816 N1535 1.436 . S
C2866 N1476 1.426 . S
C2851 C295 1.467 . S
C2916 C1402 1.689 . S
C2901 C95 1.691 . S
C2951 C122 1.494 . S
C2966 C1425 1.502 . S
C3016 C1379 1.518 . S
C3001 C61 1.505 . S
C3066 C1572 1.499 . S
C3051 C341 1.501 . S
C3101 C362 1.513 . S
C3116 C1586 1.531 . S
C3151 C402 1.524 . S
C3166 N1614 1.489 . S
C3216 N1627 1.421 . S
C3201 C455 1.462 . S
C3251 C495 1.498 . S
C3266 C1632 1.497 . S
C3301 C541 1.512 . S
C3316 N1568 1.475 . S
C3351 C575 1.490 . S
C3366 N1581 1.453 . S
C3401 C621 1.487 . S
C3416 C1618 1.498 . S
C3466 N1466 1.425 . S
C3451 C335 1.460 . S
C3501 C375 1.460 . S
C3516 N1650 1.420 . S
C3566 N1512 1.492 . S
C3551 C421 1.524 . S
C3601 C461 1.489 . S
C3616 C1687 1.502 . S
C3651 C482 1.503 . S
C3666 C1388 1.506 . S
C3716 C1701 1.605 . S
C3701 C535 1.607 . S
C3751 C581 1.530 . S
C3766 C1434 1.549 . S
C3816 N1719 1.416 . S
C3801 C602 1.434 . S
C3851 C322 1.486 . S
C3866 N1683 1.455 . S
C3916 N1696 1.422 . S
C3901 C501 1.453 . S
C3951 C522 1.508 . S
C3966 N1430 1.465 . S
C4016 C1724 1.447 . S
C4001 C562 1.430 . S
C4051 C615 1.437 . S
C4066 N1384 1.399 . S
C4101 C415 1.589 . S
C4116 C1655 1.587 . S
C4151 C442 1.529 . S
C4166 C1517 1.546 . S
C4201 C381 1.524 . S
C4216 C1471 1.540 . S
C4251 C661 1.565 . S
C4266 C1609 1.569 . S
C4316 C1641 1.466 . S
C4301 C682 1.456 . S
C4351 C722 1.493 . S
C4366 N1558 1.459 . S
C4401 C775 1.437 . S
C4416 N1591 1.402 . S
C4451 C815 1.498 . S
C4466 C1595 1.492 . S
C4501 C861 1.590 . S
C4516 N1604 1.556 . S
C4566 N1637 1.350 . S
C4551 C895 1.383 . S
C4601 C941 1.550 . S
C4616 C1563 1.567 . S
C4666 N1752 1.443 . S
C4651 C655 1.484 . S
C4701 C695 1.405 . S
C4716 N1489 1.370 . S
C4766 N1775 1.424 . S
C4751 C741 1.463 . S
C4801 C781 1.454 . S
C4816 N1545 1.432 . S
C4851 C802 1.480 . S
C4866 C1793 1.488 . S
C4901 C855 1.673 . S
C4916 C1411 1.667 . S
C4966 N1811 1.395 . S
C4951 C901 1.415 . S
C5001 C922 1.489 . S
C5016 C1448 1.517 . S
C5066 C1549 1.512 . S
C5051 C642 1.506 . S
C5116 N1407 1.425 . S
C5101 C821 1.459 . S
C5151 C842 1.612 . S
C5166 C1816 1.618 . S
C5201 C882 1.392 . S
C5216 N1443 1.363 . S
C5266 N1788 1.480 . S
C5251 C935 1.513 . S
C5316 C1494 1.584 . S
C5301 C735 1.586 . S
C5366 C1779 1.532 . S
C5351 C762 1.521 . S
C5416 C1756 1.484 . S
C5401 C701 1.477 . S
C5451 C981 1.449 . S
C5466 N1338 1.404 . S
C5501 C1002 1.463 . S
C5516 C1365 1.472 . S
C5566 C1287 1.566 . S
C5551 C1042 1.558 . S
C5616 N1305 1.367 . S
C5601 C1095 1.406 . S
C5666 C1310 1.500 . S
C5651 C1135 1.503 . S
C5716 C1342 1.518 . S
C5701 C1181 1.524 . S
C5766 N1361 1.461 . S
C5751 C1215 1.497 . S
C5801 C1261 1.551 . S
C5816 N1282 1.539 . S
C5851 C975 1.394 . S
C5866 N1798 1.356 . S
C5916 N1706 1.389 . S
C5901 C1015 1.420 . S
C5966 C1825 1.623 . S
C5951 C1061 1.621 . S
C6016 C1733 1.382 . S
C6001 C1101 1.372 . S
C6051 C1122 1.518 . S
C6066 C1747 1.525 . S
C6116 C1664 1.594 . S
C6101 C1175 1.600 . S
C6166 C1770 1.638 . S
C6151 C1221 1.622 . S
C6201 C1242 1.486 . S
C6216 N1673 1.470 . S
C6266 N1729 1.376 . S
C6251 C962 1.404 . S
C6316 N1660 1.401 . S
C6301 C1141 1.427 . S
C6366 N1765 1.434 . S
C6351 C1162 1.460 . S
C6401 C1202 1.491 . S
C6416 C1678 1.511 . S
C6451 C1255 1.457 . S
C6466 N1742 1.423 . S
C6501 C1055 1.681 . S
C6516 C1710 1.673 . S
C6551 C1082 1.418 . S
C6566 N1821 1.400 . S
C6616 C1802 1.461 . S
C6601 C1021 1.454 . S
