# Generated by pormake.
# Topology apo, (3,6)-cn, num edge types: 1
# Building blocks:
#     Node 0, Type 0, BuildingBlock: OLANEW_clean_sbu_2, # of connection points: 3
#     Node 1, Type 0, BuildingBlock: OLANEW_clean_sbu_2, # of connection points: 3
#     Node 2, Type 0, BuildingBlock: OLANEW_clean_sbu_2, # of connection points: 3
#     Node 3, Type 0, BuildingBlock: OLANEW_clean_sbu_2, # of connection points: 3
#     Node 4, Type 0, BuildingBlock: OLANEW_clean_sbu_2, # of connection points: 3
#     Node 5, Type 0, BuildingBlock: OLANEW_clean_sbu_2, # of connection points: 3
#     Node 6, Type 0, BuildingBlock: OLANEW_clean_sbu_2, # of connection points: 3
#     Node 7, Type 0, BuildingBlock: OLANEW_clean_sbu_2, # of connection points: 3
#     Node 8, Type 1, BuildingBlock: KUMBUR_clean_sbu_1, # of connection points: 6
#     Node 9, Type 1, BuildingBlock: KUMBUR_clean_sbu_1, # of connection points: 6
#     Node 10, Type 1, BuildingBlock: KUMBUR_clean_sbu_1, # of connection points: 6
#     Node 11, Type 1, BuildingBlock: KUMBUR_clean_sbu_1, # of connection points: 6
#     Edge 12, Type (0, 1), BuildingBlock: KIFKEQ_clean_linker_1, # of connection points: 2
#     Edge 13, Type (0, 1), BuildingBlock: KIFKEQ_clean_linker_1, # of connection points: 2
#     Edge 14, Type (0, 1), BuildingBlock: KIFKEQ_clean_linker_1, # of connection points: 2
#     Edge 15, Type (0, 1), BuildingBlock: KIFKEQ_clean_linker_1, # of connection points: 2
#     Edge 16, Type (0, 1), BuildingBlock: KIFKEQ_clean_linker_1, # of connection points: 2
#     Edge 17, Type (0, 1), BuildingBlock: KIFKEQ_clean_linker_1, # of connection points: 2
#     Edge 18, Type (0, 1), BuildingBlock: KIFKEQ_clean_linker_1, # of connection points: 2
#     Edge 19, Type (0, 1), BuildingBlock: KIFKEQ_clean_linker_1, # of connection points: 2
#     Edge 20, Type (0, 1), BuildingBlock: KIFKEQ_clean_linker_1, # of connection points: 2
#     Edge 21, Type (0, 1), BuildingBlock: KIFKEQ_clean_linker_1, # of connection points: 2
#     Edge 22, Type (0, 1), BuildingBlock: KIFKEQ_clean_linker_1, # of connection points: 2
#     Edge 23, Type (0, 1), BuildingBlock: KIFKEQ_clean_linker_1, # of connection points: 2
#     Edge 24, Type (0, 1), BuildingBlock: KIFKEQ_clean_linker_1, # of connection points: 2
#     Edge 25, Type (0, 1), BuildingBlock: KIFKEQ_clean_linker_1, # of connection points: 2
#     Edge 26, Type (0, 1), BuildingBlock: KIFKEQ_clean_linker_1, # of connection points: 2
#     Edge 27, Type (0, 1), BuildingBlock: KIFKEQ_clean_linker_1, # of connection points: 2
#     Edge 28, Type (0, 1), BuildingBlock: KIFKEQ_clean_linker_1, # of connection points: 2
#     Edge 29, Type (0, 1), BuildingBlock: KIFKEQ_clean_linker_1, # of connection points: 2
#     Edge 30, Type (0, 1), BuildingBlock: KIFKEQ_clean_linker_1, # of connection points: 2
#     Edge 31, Type (0, 1), BuildingBlock: KIFKEQ_clean_linker_1, # of connection points: 2
#     Edge 32, Type (0, 1), BuildingBlock: KIFKEQ_clean_linker_1, # of connection points: 2
#     Edge 33, Type (0, 1), BuildingBlock: KIFKEQ_clean_linker_1, # of connection points: 2
#     Edge 34, Type (0, 1), BuildingBlock: KIFKEQ_clean_linker_1, # of connection points: 2
#     Edge 35, Type (0, 1), BuildingBlock: KIFKEQ_clean_linker_1, # of connection points: 2
# Relax obj value: 0.030
# Max RMSD: 0.223
# Mean RMSD: 0.133
data_MOF--net-apo--node1-OLANEW_clean_sbu_2--node2-KUMBUR_clean_sbu_1--edge1-KIFKEQ_clean_linker_1
_symmetry_space_group_name_H-M    P1
_symmetry_Int_Tables_number       1
_symmetry_cell_setting            triclinic
loop_
_symmetry_equiv_pos_as_xyz
'x, y, z'
_cell_length_a     28.065792
_cell_length_b     45.767681
_cell_length_c     56.156891
_cell_angle_alpha  88.935937
_cell_angle_beta   90.076032
_cell_angle_gamma 91.42584
loop_
_atom_site_label
_atom_site_type_symbol
_atom_site_fract_x
_atom_site_fract_y
_atom_site_fract_z
_atom_type_partial_charge
O0 O 0.30627 0.38338 0.37394 0.0
Cd1 Cd 0.273 0.34342 0.39876 0.0
O2 O 0.37665 0.38194 0.39118 0.0
Cd3 Cd 0.35789 0.35086 0.41978 0.0
O4 O 0.36829 0.34726 0.45829 0.0
C5 C 0.38574 0.37068 0.46695 0.0
O6 O 0.39446 0.39305 0.45245 0.0
C7 C 0.34917 0.39271 0.37547 0.0
C8 C 0.23469 0.29846 0.37114 0.0
O9 O 0.21056 0.32102 0.37589 0.0
O10 O 0.2771 0.297 0.3795 0.0
O11 O 0.2594 0.14878 0.94182 0.0
Cd12 Cd 0.27152 0.15238 0.89846 0.0
O13 O 0.30218 0.10954 0.94727 0.0
Cd14 Cd 0.30856 0.10183 0.90922 0.0
O15 O 0.27849 0.07499 0.88086 0.0
C16 C 0.23658 0.06503 0.88507 0.0
O17 O 0.2157 0.07223 0.90498 0.0
C18 C 0.27701 0.1296 0.95573 0.0
C19 C 0.32979 0.1986 0.88102 0.0
O20 O 0.28631 0.20269 0.88676 0.0
O21 O 0.34624 0.17293 0.88417 0.0
O22 O 0.82523 0.11794 0.64666 0.0
Cd23 Cd 0.78896 0.15642 0.6223 0.0
O24 O 0.87721 0.10695 0.61903 0.0
Cd25 Cd 0.85831 0.1368 0.59026 0.0
O26 O 0.87597 0.14086 0.55254 0.0
C27 C 0.85982 0.12145 0.53856 0.0
O28 O 0.8302 0.10107 0.54689 0.0
C29 C 0.85962 0.10267 0.63967 0.0
C30 C 0.74872 0.20012 0.64947 0.0
O31 O 0.72547 0.17638 0.64506 0.0
O32 O 0.79112 0.20318 0.64118 0.0
O33 O 0.76045 0.35313 0.07327 0.0
Cd34 Cd 0.79284 0.35776 0.11365 0.0
O35 O 0.80037 0.39222 0.06019 0.0
Cd36 Cd 0.81195 0.40758 0.09639 0.0
O37 O 0.78071 0.4326 0.12503 0.0
C38 C 0.74194 0.44465 0.11921 0.0
O39 O 0.72551 0.44107 0.09751 0.0
C40 C 0.77366 0.37002 0.05613 0.0
C41 C 0.83775 0.30784 0.13129 0.0
O42 O 0.79355 0.31211 0.13537 0.0
O43 O 0.86065 0.3269 0.11846 0.0
O44 O 0.73425 0.61623 0.63544 0.0
Cd45 Cd 0.75743 0.65644 0.60808 0.0
O46 O 0.77182 0.58285 0.61564 0.0
Cd47 Cd 0.78713 0.613 0.58604 0.0
O48 O 0.76732 0.62486 0.54971 0.0
C49 C 0.72295 0.62654 0.5455 0.0
O50 O 0.69295 0.62361 0.56339 0.0
C51 C 0.74687 0.58989 0.63341 0.0
C52 C 0.80753 0.70094 0.63137 0.0
O53 O 0.76187 0.69987 0.63106 0.0
O54 O 0.82976 0.68095 0.62058 0.0
O55 O 0.82688 0.88419 0.13996 0.0
Cd56 Cd 0.79899 0.84296 0.11623 0.0
O57 O 0.78921 0.91642 0.11794 0.0
Cd58 Cd 0.77006 0.88482 0.09075 0.0
O59 O 0.79257 0.87823 0.05415 0.0
C60 C 0.82527 0.89662 0.04819 0.0
O61 O 0.8407 0.91528 0.06413 0.0
C62 C 0.81529 0.91047 0.13582 0.0
C63 C 0.7444 0.80282 0.14303 0.0
O64 O 0.78998 0.80171 0.14258 0.0
O65 O 0.72444 0.82302 0.13078 0.0
O66 O 0.22919 0.88155 0.36077 0.0
Cd67 Cd 0.26073 0.84509 0.38901 0.0
O68 O 0.25392 0.91796 0.3831 0.0
Cd69 Cd 0.26724 0.89103 0.41455 0.0
O70 O 0.24829 0.87943 0.4512 0.0
C71 C 0.2215 0.89673 0.46214 0.0
O72 O 0.20738 0.92054 0.45106 0.0
C73 C 0.23514 0.90888 0.36391 0.0
C74 C 0.31123 0.80042 0.36774 0.0
O75 O 0.26696 0.7969 0.37291 0.0
O76 O 0.33144 0.82509 0.37237 0.0
O77 O 0.3149 0.60761 0.86619 0.0
Cd78 Cd 0.27134 0.6417 0.89069 0.0
O79 O 0.29425 0.57047 0.88973 0.0
Cd80 Cd 0.27154 0.59734 0.91886 0.0
O81 O 0.29058 0.60971 0.95495 0.0
C82 C 0.31871 0.59282 0.96602 0.0
O83 O 0.33319 0.56929 0.9554 0.0
C84 C 0.3141 0.58027 0.87079 0.0
C85 C 0.22634 0.68528 0.86415 0.0
O86 O 0.26791 0.68975 0.87305 0.0
O87 O 0.20621 0.66012 0.86759 0.0
Tb88 Tb 0.10024 0.10529 0.22128 0.0
C89 C 0.8933 0.07347 0.25055 0.0
N90 N 0.91382 0.10051 0.24798 0.0
C91 C 0.84597 0.11686 0.22589 0.0
C92 C 0.84848 0.06683 0.24037 0.0
C93 C 0.89066 0.12232 0.23615 0.0
C94 C 0.82486 0.08895 0.2279 0.0
C95 C 0.89767 0.02401 0.26629 0.0
C96 C 0.91794 0.05233 0.26312 0.0
C97 C 0.8536 0.01699 0.25565 0.0
C98 C 0.82902 0.03837 0.24275 0.0
Tb99 Tb 0.98667 0.10716 0.26538 0.0
N100 N 0.96054 0.05994 0.27317 0.0
C101 C 0.92143 0.00392 0.28077 0.0
C102 C 0.98071 0.04139 0.28945 0.0
C103 C 0.96257 0.01288 0.29284 0.0
H104 H 0.90658 0.14394 0.23478 0.0
H105 H 0.97967 -0.00192 0.30524 0.0
H106 H 0.16747 0.05044 0.23958 0.0
H107 H 0.1337 0.22219 0.2147 0.0
H108 H 1.00995 0.04852 0.30052 0.0
H109 H 0.90708 0.98194 0.28368 0.0
H110 H 0.08595 0.177 0.21075 0.0
H111 H 0.82785 0.13417 0.21644 0.0
H112 H 0.83774 0.99527 0.25771 0.0
H113 H 0.79484 0.03275 0.23486 0.0
H114 H 0.24835 0.04448 0.25588 0.0
H115 H 0.79036 0.08473 0.21981 0.0
H116 H 0.21657 0.22031 0.22955 0.0
N117 N 0.17421 0.09668 0.23623 0.0
C118 C 0.20361 0.1206 0.23798 0.0
C119 C 0.23609 0.06605 0.25109 0.0
C120 C 0.25045 0.11818 0.24673 0.0
C121 C 0.18993 0.06954 0.24227 0.0
C122 C 0.26647 0.09047 0.25338 0.0
N123 N 0.13952 0.1494 0.22476 0.0
C124 C 0.1212 0.17563 0.218 0.0
C125 C 0.21482 0.17322 0.23407 0.0
C126 C 0.1859 0.14781 0.23181 0.0
C127 C 0.19551 0.20026 0.22807 0.0
C128 C 0.14863 0.20142 0.21985 0.0
H129 H 0.30223 0.0877 0.26022 0.0
H130 H 0.3156 0.14203 0.25553 0.0
H131 H 0.28447 0.19018 0.24439 0.0
O132 O 0.10424 0.11813 0.18515 0.0
O133 O 0.11152 0.1238 0.25699 0.0
O134 O 0.0391 0.14295 0.26514 0.0
O135 O 0.14561 0.08265 0.19872 0.0
O136 O 0.03845 0.1303 0.20892 0.0
O137 O 1.0002 0.14596 0.24281 0.0
O138 O 0.98221 0.10848 0.30348 0.0
O139 O 0.97661 0.09133 0.22899 0.0
O140 O 0.04672 0.06964 0.21862 0.0
O141 O 0.93619 0.13383 0.28029 0.0
O142 O 0.05123 0.08388 0.27649 0.0
O143 O 0.08261 0.06562 0.24189 0.0
C144 C 0.08468 0.14099 0.26944 0.0
C145 C 0.1239 0.08153 0.15822 0.0
C146 C 0.13694 0.07614 0.11558 0.0
C147 C 0.10635 0.0513 0.11604 0.0
C148 C 0.0935 0.05675 0.1584 0.0
C149 C 0.08488 0.04169 0.13735 0.0
C150 C 0.1455 0.0911 0.13687 0.0
C151 C 1.00842 0.14744 0.2197 0.0
C152 C 0.13397 0.09785 0.17997 0.0
C153 C 0.27948 0.14344 0.24885 0.0
C154 C 0.26174 0.17088 0.2425 0.0
C155 C 0.99988 0.07099 0.21812 0.0
C156 C 0.92453 0.1411 0.32213 0.0
C157 C 0.91202 0.14712 0.36474 0.0
C158 C 0.88303 0.17105 0.35963 0.0
C159 C 0.89524 0.16508 0.31756 0.0
C160 C 0.9325 0.13192 0.34587 0.0
C161 C 0.87461 0.17985 0.3362 0.0
C162 C 0.07599 0.06437 0.26507 0.0
C163 C 0.94838 0.12737 0.30193 0.0
H164 H 0.09944 0.03912 0.1 0.0
H165 H 0.07661 0.04905 0.17475 0.0
H166 H 0.06154 0.0225 0.13755 0.0
H167 H 0.16853 0.11049 0.13681 0.0
H168 H 0.86646 0.18284 0.37385 0.0
H169 H 0.8887 0.17278 0.29952 0.0
H170 H 0.95522 0.11361 0.34967 0.0
H171 H 0.85224 0.19832 0.33248 0.0
Tb172 Tb 0.49639 0.39338 0.7409 0.0
C173 C 0.70497 0.42274 0.77448 0.0
N174 N 0.67994 0.39694 0.77303 0.0
C175 C 0.74798 0.37466 0.75574 0.0
C176 C 0.75198 0.42573 0.76579 0.0
C177 C 0.70159 0.37268 0.76482 0.0
C178 C 0.77311 0.40137 0.75597 0.0
C179 C 0.70849 0.47315 0.78736 0.0
C180 C 0.68381 0.44612 0.78532 0.0
C181 C 0.75485 0.47642 0.77819 0.0
C182 C 0.77659 0.45275 0.76749 0.0
Tb183 Tb 0.60493 0.39701 0.78909 0.0
N184 N 0.6384 0.44246 0.79342 0.0
C185 C 0.68567 0.49611 0.79846 0.0
C186 C 0.61705 0.4642 0.8055 0.0
C187 C 0.63989 0.49151 0.80774 0.0
H188 H 0.68409 0.3515 0.76593 0.0
H189 H 0.62236 0.5089 0.81684 0.0
H190 H 0.41487 0.43258 0.76722 0.0
H191 H 0.49778 0.27966 0.71556 0.0
H192 H 0.58264 0.46058 0.81362 0.0
H193 H 0.70328 0.5173 0.80022 0.0
H194 H 0.52772 0.33036 0.71591 0.0
H195 H 0.76465 0.35544 0.74895 0.0
H196 H 0.7743 0.49708 0.77943 0.0
H197 H 0.81261 0.4555 0.76075 0.0
H198 H 0.33538 0.42412 0.7852 0.0
H199 H 0.80917 0.40275 0.7491 0.0
H200 H 0.42119 0.26621 0.73504 0.0
N201 N 0.42361 0.38806 0.75856 0.0
C202 C 0.40313 0.36088 0.75776 0.0
C203 C 0.3542 0.4061 0.77769 0.0
C204 C 0.35756 0.35507 0.76755 0.0
C205 C 0.39951 0.41078 0.76778 0.0
C206 C 0.33318 0.3781 0.77766 0.0
N207 N 0.47278 0.34524 0.73848 0.0
C208 C 0.49635 0.32467 0.72607 0.0
C209 C 0.40919 0.31007 0.7471 0.0
C210 C 0.4289 0.33867 0.74781 0.0
C211 C 0.4351 0.28846 0.73601 0.0
C212 C 0.47852 0.29591 0.72514 0.0
H213 H 0.29812 0.37452 0.7854 0.0
H214 H 0.30334 0.32155 0.77472 0.0
H215 H 0.34839 0.28217 0.75671 0.0
O216 O 0.47425 0.38435 0.70574 0.0
O217 O 0.48701 0.37777 0.77803 0.0
O218 O 0.55859 0.35787 0.78741 0.0
O219 O 0.45474 0.42465 0.72299 0.0
O220 O 0.56431 0.37468 0.73055 0.0
O221 O 0.59958 0.35916 0.76581 0.0
O222 O 0.59238 0.39693 0.82617 0.0
O223 O 0.60285 0.43214 0.76173 0.0
O224 O 0.562 0.41562 0.72831 0.0
O225 O 0.65755 0.38087 0.81201 0.0
O226 O 0.53793 0.41843 0.79712 0.0
O227 O 0.50608 0.43375 0.7608 0.0
C228 C 0.512 0.35798 0.7893 0.0
C229 C 0.42614 0.41804 0.68231 0.0
C230 C 0.40946 0.41403 0.63979 0.0
C231 C 0.37855 0.43754 0.64122 0.0
C232 C 0.39488 0.44147 0.68334 0.0
C233 C 0.37128 0.45112 0.66289 0.0
C234 C 0.43325 0.40421 0.66038 0.0
C235 C 0.59484 0.35864 0.74248 0.0
C236 C 0.45214 0.4089 0.70395 0.0
C237 C 0.3382 0.32651 0.76719 0.0
C238 C 0.36396 0.30406 0.75702 0.0
C239 C 0.59372 0.43289 0.73871 0.0
C240 C 0.63133 0.35989 0.84824 0.0
C241 C 0.64687 0.3416 0.88869 0.0
C242 C 0.63751 0.31295 0.88077 0.0
C243 C 0.62261 0.33122 0.84076 0.0
C244 C 0.64271 0.36501 0.87217 0.0
C245 C 0.62506 0.30792 0.85706 0.0
C246 C 0.51276 0.43665 0.78392 0.0
C247 C 0.63256 0.38456 0.83109 0.0
H248 H 0.36015 0.44543 0.62548 0.0
H249 H 0.38877 0.45245 0.69994 0.0
H250 H 0.34741 0.46928 0.66382 0.0
H251 H 0.45743 0.38618 0.65923 0.0
H252 H 0.64114 0.29422 0.89262 0.0
H253 H 0.61507 0.32689 0.82225 0.0
H254 H 0.64898 0.38733 0.87769 0.0
H255 H 0.61851 0.28579 0.85117 0.0
Tb256 Tb 0.07543 0.88835 0.72985 0.0
C257 C 0.86805 0.86485 0.75864 0.0
N258 N 0.89515 0.88996 0.75834 0.0
C259 C 0.83157 0.91516 0.73872 0.0
C260 C 0.82232 0.86372 0.7482 0.0
C261 C 0.87619 0.91535 0.74984 0.0
C262 C 0.80479 0.88914 0.73757 0.0
C263 C 0.8572 0.81462 0.77271 0.0
C264 C 0.88509 0.84056 0.77069 0.0
C265 C 0.81223 0.81315 0.76177 0.0
C266 C 0.7949 0.83761 0.74946 0.0
Tb267 Tb 0.96739 0.88671 0.77734 0.0
N268 N 0.92922 0.84248 0.78056 0.0
C269 C 0.87529 0.79103 0.78582 0.0
C270 C 0.94628 0.82005 0.7942 0.0
C271 C 0.91986 0.79387 0.79678 0.0
H272 H 0.89408 0.93611 0.75235 0.0
H273 H 0.93372 0.77599 0.80737 0.0
H274 H 0.15449 0.84702 0.75661 0.0
H275 H 0.08802 -0.00016 0.69541 0.0
H276 H 0.98004 0.8224 0.80327 0.0
H277 H 0.85489 0.77074 0.78787 0.0
H278 H 0.05393 0.94999 0.69843 0.0
H279 H 0.81729 0.93529 0.73164 0.0
H280 H 0.79034 0.79334 0.76296 0.0
H281 H 0.75977 0.83633 0.74147 0.0
H282 H 0.23423 0.85323 0.77462 0.0
H283 H 0.76986 0.88919 0.72933 0.0
H284 H 0.16356 0.0122 0.71608 0.0
N285 N 0.14884 0.89195 0.74699 0.0
C286 C 0.17159 0.9184 0.74519 0.0
C287 C 0.21678 0.87184 0.76664 0.0
C288 C 0.21728 0.92299 0.75506 0.0
C289 C 0.17131 0.86845 0.7567 0.0
C290 C 0.23969 0.8993 0.76606 0.0
N291 N 0.10528 0.935 0.72345 0.0
C292 C 0.08484 0.95543 0.70893 0.0
C293 C 0.17076 0.96875 0.73134 0.0
C294 C 0.14854 0.94086 0.73351 0.0
C295 C 0.14775 0.99046 0.71817 0.0
C296 C 0.10499 0.98361 0.70658 0.0
H297 H 0.27487 0.90188 0.77383 0.0
H298 H 0.27391 0.95502 0.76123 0.0
H299 H 0.23316 0.99515 0.74045 0.0
O300 O 0.10668 0.89275 0.69538 0.0
O301 O 0.08705 0.90342 0.76643 0.0
O302 O 1.01684 0.92442 0.77676 0.0
O303 O 0.10048 0.85058 0.71412 0.0
O304 O 1.01087 0.91202 0.71975 0.0
O305 O 0.9762 0.92659 0.75508 0.0
O306 O 0.97722 0.88361 0.81445 0.0
O307 O 0.97331 0.85164 0.7514 0.0
O308 O 1.00348 0.87559 0.71847 0.0
O309 O 0.91407 0.90233 0.79961 0.0
O310 O 0.03278 0.86438 0.78765 0.0
O311 O 0.06541 0.84877 0.75216 0.0
C312 C 0.06357 0.92359 0.77746 0.0
C313 C 0.13909 0.85016 0.67567 0.0
C314 C 0.15859 0.84555 0.63356 0.0
C315 C 0.184 0.82023 0.63922 0.0
C316 C 0.16452 0.82478 0.68081 0.0
C317 C 0.18705 0.81005 0.66268 0.0
C318 C 0.1367 0.86079 0.652 0.0
C319 C 0.98471 0.93 0.73205 0.0
C320 C 0.11496 0.86493 0.69517 0.0
C321 C 0.23897 0.95094 0.75357 0.0
C322 C 0.21569 0.9738 0.74179 0.0
C323 C 0.97811 0.85413 0.72821 0.0
C324 C 0.93923 0.91898 0.83699 0.0
C325 C 0.92883 0.9323 0.87837 0.0
C326 C 0.94232 0.9613 0.87237 0.0
C327 C 0.95219 0.94802 0.83112 0.0
C328 C 0.92729 0.91127 0.86052 0.0
C329 C 0.95371 0.96909 0.84882 0.0
C330 C 0.05875 0.8463 0.77538 0.0
C331 C 0.93739 0.89629 0.81898 0.0
H332 H 0.20195 0.80842 0.62545 0.0
H333 H 0.16719 0.81638 0.69892 0.0
H334 H 0.20685 0.7906 0.66682 0.0
H335 H 0.1169 0.88028 0.64787 0.0
H336 H 0.94345 0.97796 0.88583 0.0
H337 H 0.96091 0.95431 0.81294 0.0
H338 H 0.91733 0.88878 0.86499 0.0
H339 H 0.96369 0.9915 0.84427 0.0
Tb340 Tb 0.46237 0.60737 0.2354 0.0
C341 C 0.6748 0.63124 0.26209 0.0
N342 N 0.65087 0.60507 0.26185 0.0
C343 C 0.71743 0.58312 0.24304 0.0
C344 C 0.72096 0.63447 0.25241 0.0
C345 C 0.6717 0.58099 0.25286 0.0
C346 C 0.74214 0.61 0.24274 0.0
C347 C 0.67575 0.68257 0.27202 0.0
C348 C 0.65212 0.65504 0.2715 0.0
C349 C 0.72176 0.68594 0.26237 0.0
C350 C 0.74427 0.66197 0.25256 0.0
Tb351 Tb 0.57687 0.60413 0.27859 0.0
N352 N 0.60705 0.6511 0.2802 0.0
C353 C 0.65277 0.70576 0.28261 0.0
C354 C 0.58639 0.67309 0.29229 0.0
C355 C 0.60823 0.70085 0.29314 0.0
H356 H 0.6537 0.55995 0.25392 0.0
H357 H 0.5912 0.71825 0.30245 0.0
H358 H 0.38621 0.64613 0.26599 0.0
H359 H 0.45227 0.4966 0.20247 0.0
H360 H 0.55436 0.66929 0.30235 0.0
H361 H 0.66976 0.72723 0.28346 0.0
H362 H 0.48688 0.54589 0.20576 0.0
H363 H 0.73375 0.56397 0.23592 0.0
H364 H 0.74037 0.70697 0.26255 0.0
H365 H 0.77977 0.66492 0.2452 0.0
H366 H 0.30717 0.63831 0.28453 0.0
H367 H 0.77759 0.61157 0.23514 0.0
H368 H 0.37545 0.48383 0.22197 0.0
N369 N 0.38995 0.60269 0.2535 0.0
C370 C 0.36705 0.57638 0.25115 0.0
C371 C 0.32377 0.62064 0.27535 0.0
C372 C 0.32171 0.571 0.26131 0.0
C373 C 0.36886 0.62489 0.26512 0.0
C374 C 0.30013 0.59355 0.27351 0.0
N375 N 0.43417 0.5605 0.22986 0.0
C376 C 0.45528 0.54045 0.21584 0.0
C377 C 0.36791 0.52671 0.23694 0.0
C378 C 0.39016 0.55449 0.23925 0.0
C379 C 0.39133 0.50544 0.22416 0.0
C380 C 0.43486 0.5125 0.21328 0.0
H381 H 0.26526 0.5903 0.28152 0.0
H382 H 0.26495 0.53867 0.26697 0.0
H383 H 0.30528 0.49993 0.24557 0.0
O384 O 0.45454 0.60713 0.19749 0.0
O385 O 0.45524 0.58492 0.27043 0.0
O386 O 0.52889 0.56594 0.2788 0.0
O387 O 0.41185 0.63448 0.22002 0.0
O388 O 0.5273 0.58741 0.22203 0.0
O389 O 0.56513 0.567 0.25495 0.0
O390 O 0.58178 0.60976 0.31567 0.0
O391 O 0.58544 0.62523 0.24349 0.0
O392 O 0.51271 0.64484 0.2347 0.0
O393 O 0.62738 0.58012 0.29778 0.0
O394 O 0.51135 0.62425 0.29191 0.0
O395 O 0.47678 0.64433 0.2583 0.0
C396 C 0.48209 0.56459 0.27983 0.0
C397 C 0.39634 0.63941 0.17795 0.0
C398 C 0.38108 0.64351 0.13523 0.0
C399 C 0.35159 0.66727 0.13936 0.0
C400 C 0.3664 0.66313 0.18157 0.0
C401 C 0.34419 0.67687 0.16239 0.0
C402 C 0.40323 0.6294 0.15466 0.0
C403 C 0.55714 0.56879 0.2318 0.0
C404 C 0.42159 0.62661 0.19857 0.0
C405 C 0.29974 0.54327 0.25924 0.0
C406 C 0.32279 0.52118 0.24711 0.0
C407 C 0.5593 0.64464 0.23259 0.0
C408 C 0.61445 0.57162 0.33912 0.0
C409 C 0.62585 0.56677 0.38213 0.0
C410 C 0.62394 0.53616 0.38 0.0
C411 C 0.61231 0.54107 0.33733 0.0
C412 C 0.62049 0.58425 0.36151 0.0
C413 C 0.6169 0.52348 0.35776 0.0
C414 C 0.48292 0.64311 0.28145 0.0
C415 C 0.61572 0.59109 0.31802 0.0
H416 H 0.33368 0.6782 0.12473 0.0
H417 H 0.36047 0.67137 0.19925 0.0
H418 H 0.32129 0.69513 0.16538 0.0
H419 H 0.42626 0.61118 0.15159 0.0
H420 H 0.62894 0.52197 0.3954 0.0
H421 H 0.60804 0.53084 0.32019 0.0
H422 H 0.62185 0.60788 0.36273 0.0
H423 H 0.6159 0.49992 0.3563 0.0
H424 H 0.1707 0.8997 0.32789 0.0
H425 H 0.25702 0.96712 0.36096 0.0
H426 H 0.13205 0.93682 0.30332 0.0
H427 H 0.21957 0.00398 0.33603 0.0
H428 H 0.10312 0.06463 0.3117 0.0
H429 H 0.14313 0.0262 0.33403 0.0
H430 H 0.14212 0.9726 0.27145 0.0
H431 H 0.10039 0.0107 0.24942 0.0
C432 C 0.18209 0.92236 0.32957 0.0
C433 C 0.2166 0.93049 0.34652 0.0
C434 C 0.15997 0.94364 0.31549 0.0
C435 C 0.17218 0.97345 0.31797 0.0
C436 C 0.2084 0.98133 0.3341 0.0
C437 C 0.23018 0.96014 0.34826 0.0
C438 C 0.11115 0.04455 0.3028 0.0
C439 C 0.09897 0.04073 0.2788 0.0
C440 C 0.13454 0.02263 0.31549 0.0
C441 C 0.14638 0.99642 0.30445 0.0
C442 C 0.13336 0.99243 0.28053 0.0
C443 C 0.10979 0.01433 0.26787 0.0
H444 H 0.31183 0.52077 0.87353 0.0
H445 H 0.37499 0.59364 0.83377 0.0
H446 H 0.36053 0.48723 0.85173 0.0
H447 H 0.42462 0.55991 0.81221 0.0
H448 H 0.47235 0.48498 0.76388 0.0
H449 H 0.42242 0.52022 0.78346 0.0
H450 H 0.44453 0.47562 0.85092 0.0
H451 H 0.49324 0.44004 0.83133 0.0
C452 C 0.33593 0.52964 0.86003 0.0
C453 C 0.33974 0.55992 0.85549 0.0
C454 C 0.36415 0.51041 0.84768 0.0
C455 C 0.39698 0.52096 0.83053 0.0
C456 C 0.39953 0.55112 0.82528 0.0
C457 C 0.37112 0.57043 0.83763 0.0
C458 C 0.46661 0.48278 0.7829 0.0
C459 C 0.48627 0.45955 0.79602 0.0
C460 C 0.43823 0.50304 0.79412 0.0
C461 C 0.42904 0.50048 0.81867 0.0
C462 C 0.45011 0.47782 0.83188 0.0
C463 C 0.47843 0.45759 0.82069 0.0
H464 H 0.69144 0.59695 0.67285 0.0
H465 H 0.76205 0.53107 0.63261 0.0
H466 H 0.65626 0.5589 0.6987 0.0
H467 H 0.72729 0.49309 0.65871 0.0
H468 H 0.60684 0.43381 0.69037 0.0
H469 H 0.64693 0.47171 0.666 0.0
H470 H 0.6759 0.52186 0.72902 0.0
H471 H 0.63395 0.48469 0.75312 0.0
C472 C 0.69999 0.5744 0.6697 0.0
C473 C 0.72945 0.56708 0.65059 0.0
C474 C 0.67992 0.55258 0.68458 0.0
C475 C 0.68874 0.52295 0.68067 0.0
C476 C 0.71924 0.51569 0.66197 0.0
C477 C 0.73944 0.5375 0.64712 0.0
C478 C 0.62175 0.45293 0.69903 0.0
C479 C 0.61804 0.4559 0.72383 0.0
C480 C 0.64511 0.47452 0.68508 0.0
C481 C 0.66502 0.49968 0.69559 0.0
C482 C 0.66092 0.50278 0.72035 0.0
C483 C 0.63753 0.48122 0.73425 0.0
H484 H 0.81234 0.96916 0.12651 0.0
H485 H 0.86667 0.90601 0.17717 0.0
H486 H 0.85608 0.008 0.14656 0.0
H487 H 0.90915 0.94514 0.19785 0.0
H488 H 0.02538 0.01491 0.21003 0.0
H489 H 0.97753 0.97637 0.19143 0.0
H490 H 0.86279 0.03665 0.18098 0.0
H491 H 0.91206 0.07547 0.19803 0.0
C492 C 0.83284 0.96363 0.14224 0.0
C493 C 0.83626 0.93443 0.15013 0.0
C494 C 0.85788 0.98597 0.15381 0.0
C495 C 0.88662 0.97972 0.17371 0.0
C496 C 0.88827 0.95066 0.18225 0.0
C497 C 0.86353 0.92825 0.17054 0.0
C498 C 0.99014 0.01993 0.20348 0.0
C499 C 0.97212 0.04806 0.20575 0.0
C500 C 0.96239 -0.00225 0.19315 0.0
C501 C 0.91598 0.00325 0.18493 0.0
C502 C 0.89841 0.0316 0.18693 0.0
C503 C 0.92639 0.0538 0.19698 0.0
H504 H 0.93451 0.06818 0.63001 0.0
H505 H 0.82735 0.08281 0.68347 0.0
H506 H 0.96312 0.02689 0.65312 0.0
H507 H 0.85605 0.04089 0.70661 0.0
H508 H 0.95879 0.98192 0.75079 0.0
H509 H 0.92753 0.0244 0.72945 0.0
H510 H 0.93282 0.97744 0.66353 0.0
H511 H 0.96395 0.93509 0.68479 0.0
C512 C 0.91703 0.06265 0.64674 0.0
C513 C 0.87841 0.07876 0.65483 0.0
C514 C 0.93331 0.03881 0.65991 0.0
C515 C 0.91148 0.03044 0.68152 0.0
C516 C 0.87366 0.04694 0.69002 0.0
C517 C 0.85719 0.07087 0.67676 0.0
C518 C 0.95287 0.98065 0.73176 0.0
C519 C 0.96408 0.9553 0.7194 0.0
C520 C 0.93489 0.00492 0.71959 0.0
C521 C 0.92807 0.00431 0.69481 0.0
C522 C 0.93846 0.97872 0.68257 0.0
C523 C 0.95617 0.95446 0.69474 0.0
H524 H 0.7635 0.45564 0.16601 0.0
H525 H 0.66002 0.47386 0.11099 0.0
H526 H 0.71912 0.48544 0.19364 0.0
H527 H 0.61558 0.50304 0.13856 0.0
H528 H 0.57833 0.57937 0.18516 0.0
H529 H 0.62392 0.54938 0.15856 0.0
H530 H 0.64272 0.48574 0.21537 0.0
H531 H 0.5972 0.51605 0.24216 0.0
C532 C 0.73128 0.46591 0.15983 0.0
C533 C 0.71539 0.46243 0.13627 0.0
C534 C 0.70572 0.48283 0.17569 0.0
C535 C 0.66388 0.49668 0.16828 0.0
C536 C 0.64802 0.49304 0.14476 0.0
C537 C 0.67342 0.47614 0.12897 0.0
C538 C 0.59196 0.5589 0.19196 0.0
C539 C 0.58428 0.55007 0.21576 0.0
C540 C 0.61805 0.54168 0.1767 0.0
C541 C 0.6369 0.51512 0.18482 0.0
C542 C 0.62919 0.50626 0.20865 0.0
C543 C 0.60299 0.52353 0.22396 0.0
H544 H 0.30084 0.42269 0.34046 0.0
H545 H 0.4378 0.41835 0.37552 0.0
H546 H 0.33072 0.46397 0.31591 0.0
H547 H 0.46699 0.45954 0.35146 0.0
H548 H 0.52212 0.51214 0.28873 0.0
H549 H 0.48797 0.47008 0.31012 0.0
H550 H 0.35732 0.51628 0.32009 0.0
H551 H 0.39195 0.5588 0.29875 0.0
C552 C 0.33727 0.43044 0.3429 0.0
C553 C 0.36702 0.41705 0.35986 0.0
C554 C 0.35422 0.45419 0.32896 0.0
C555 C 0.40128 0.46489 0.33166 0.0
C556 C 0.43083 0.45149 0.34863 0.0
C557 C 0.41398 0.42789 0.36251 0.0
C558 C 0.48608 0.51341 0.29545 0.0
C559 C 0.45969 0.53884 0.29201 0.0
C560 C 0.46653 0.48928 0.30774 0.0
C561 C 0.42009 0.48991 0.31698 0.0
C562 C 0.39307 0.51503 0.31301 0.0
C563 C 0.41282 0.53935 0.30074 0.0
H564 H 0.14468 0.04458 0.88754 0.0
H565 H 0.27246 0.04007 0.84501 0.0
H566 H 0.10382 0.01087 0.86089 0.0
H567 H 0.2312 0.00625 0.81822 0.0
H568 H 0.15348 0.91928 0.79585 0.0
H569 H 0.19664 0.95457 0.8204 0.0
H570 H 0.0749 0.01045 0.81868 0.0
H571 H 0.03258 0.9758 0.79325 0.0
C572 C 0.16404 0.0365 0.87245 0.0
C573 C 0.21184 0.04507 0.86838 0.0
C574 C 0.1405 0.01728 0.85711 0.0
C575 C 0.16428 0.006 0.83745 0.0
C576 C 0.21211 0.01447 0.83335 0.0
C577 C 0.23561 0.03394 0.84861 0.0
C578 C 0.13638 0.9394 0.80022 0.0
C579 C 0.08983 0.94488 0.79237 0.0
C580 C 0.16099 0.95953 0.8144 0.0
C581 C 0.13914 0.98526 0.82146 0.0
C582 C 0.0925 0.99068 0.8137 0.0
C583 C 0.06822 0.97079 0.7992 0.0
H584 H 0.31953 0.09939 0.99215 0.0
H585 H 0.20092 0.15504 0.97654 0.0
H586 H 0.28739 0.08932 0.03195 0.0
H587 H 0.16875 0.14477 0.01628 0.0
H588 H 0.09571 0.08126 0.07163 0.0
H589 H 0.13294 0.09823 0.03444 0.0
H590 H 0.26649 0.11219 0.07125 0.0
H591 H 0.22942 0.09481 0.10847 0.0
C592 C 0.28711 0.10991 0.99736 0.0
C593 C 0.26266 0.12789 0.98112 0.0
C594 C 0.26877 0.10418 0.02018 0.0
C595 C 0.22526 0.11596 0.02709 0.0
C596 C 0.20205 0.13509 0.0113 0.0
C597 C 0.22074 0.14117 0.98862 0.0
C598 C 0.13305 0.08784 0.07177 0.0
C599 C 0.15962 0.08662 0.09298 0.0
C600 C 0.15422 0.09789 0.05054 0.0
C601 C 0.20255 0.10671 0.04998 0.0
C602 C 0.2292 0.10548 0.07115 0.0
C603 C 0.20789 0.0957 0.09246 0.0
H604 H 0.37805 0.32813 0.50206 0.0
H605 H 0.41575 0.41935 0.49024 0.0
H606 H 0.39249 0.3337 0.54476 0.0
H607 H 0.42907 0.42502 0.53259 0.0
H608 H 0.47892 0.4269 0.60741 0.0
H609 H 0.48025 0.41237 0.56564 0.0
H610 H 0.35421 0.35793 0.57772 0.0
H611 H 0.3538 0.37221 0.61947 0.0
C612 C 0.38948 0.34932 0.50855 0.0
C613 C 0.39556 0.37331 0.49275 0.0
C614 C 0.39771 0.35252 0.533 0.0
C615 C 0.41218 0.37978 0.54213 0.0
C616 C 0.41894 0.40357 0.5262 0.0
C617 C 0.41083 0.40037 0.50186 0.0
C618 C 0.45251 0.41114 0.60117 0.0
C619 C 0.41642 0.40046 0.61647 0.0
C620 C 0.45288 0.40305 0.57727 0.0
C621 C 0.41694 0.38427 0.56824 0.0
C622 C 0.38262 0.37222 0.58407 0.0
C623 C 0.38226 0.38037 0.60795 0.0
H624 H 0.81765 0.38366 0.01396 0.0
H625 H 0.68781 0.34612 0.0436 0.0
H626 H 0.7865 0.37683 0.97395 0.0
H627 H 0.65467 0.34137 1.00383 0.0
H628 H 0.62225 0.31058 0.92961 0.0
H629 H 0.65396 0.31644 0.96931 0.0
H630 H 0.73584 0.39263 0.94513 0.0
H631 H 0.70865 0.38461 0.90491 0.0
C632 C 0.78222 0.37412 0.01184 0.0
C633 C 0.75535 0.36512 0.03183 0.0
C634 C 0.76394 0.3705 0.98887 0.0
C635 C 0.71769 0.3586 0.98533 0.0
C636 C 0.69076 0.34993 0.00554 0.0
C637 C 0.70964 0.35277 0.02846 0.0
C638 C 0.64773 0.32828 0.93257 0.0
C639 C 0.66301 0.34687 0.91369 0.0
C640 C 0.66534 0.33204 0.95564 0.0
C641 C 0.69789 0.35501 0.96075 0.0
C642 C 0.71184 0.37422 0.94203 0.0
C643 C 0.69522 0.36999 0.91884 0.0
H644 H 0.93981 0.14724 0.51924 0.0
H645 H 0.81577 0.09438 0.50134 0.0
H646 H 0.96467 0.14787 0.47767 0.0
H647 H 0.8393 0.09607 0.45958 0.0
H648 H 0.89692 0.09339 0.38599 0.0
H649 H 0.89335 0.08266 0.42889 0.0
H650 H 0.93826 0.17182 0.44279 0.0
H651 H 0.94311 0.18193 0.40029 0.0
C652 C 0.91773 0.13588 0.50637 0.0
C653 C 0.87545 0.12117 0.51345 0.0
C654 C 0.93198 0.1362 0.48254 0.0
C655 C 0.90383 0.12224 0.46516 0.0
C656 C 0.8623 0.10671 0.47246 0.0
C657 C 0.84845 0.10602 0.49637 0.0
C658 C 0.90741 0.1103 0.39833 0.0
C659 C 0.91974 0.13856 0.38995 0.0
C660 C 0.90484 0.10431 0.42287 0.0
C661 C 0.91474 0.1265 0.43936 0.0
C662 C 0.93065 0.15409 0.43076 0.0
C663 C 0.93313 0.16002 0.40636 0.0
H664 H 0.81142 0.85793 0.01177 0.0
H665 H 0.88085 0.9402 0.02891 0.0
H666 H 0.84037 0.86315 0.9708 0.0
H667 H 0.90764 0.94611 0.98818 0.0
H668 H 0.98075 0.94301 0.91831 0.0
H669 H 0.96 0.93026 0.95938 0.0
H670 H 0.82726 0.89067 0.93539 0.0
H671 H 0.84952 0.90228 0.89422 0.0
C672 C 0.83278 0.87711 0.00678 0.0
C673 C 0.84378 0.89867 0.02356 0.0
C674 C 0.84917 0.88021 0.98329 0.0
C675 C 0.87644 0.90508 0.97608 0.0
C676 C 0.8877 0.92636 0.99306 0.0
C677 C 0.87191 0.92308 0.01648 0.0
C678 C 0.94724 0.93151 0.92191 0.0
C679 C 0.91648 0.92391 0.90321 0.0
C680 C 0.93518 0.92425 0.94542 0.0
C681 C 0.89156 0.90977 0.95084 0.0
C682 C 0.86135 0.90152 0.93196 0.0
C683 C 0.87386 0.90836 0.90838 0.0
H684 H 0.63058 0.62098 0.53047 0.0
H685 H 0.77494 0.63134 0.50438 0.0
H686 H 0.60269 0.61178 0.49011 0.0
H687 H 0.74711 0.62172 0.46414 0.0
H688 H 0.6814 0.6155 0.39141 0.0
H689 H 0.69942 0.63677 0.42991 0.0
H690 H 0.61212 0.56961 0.46457 0.0
H691 H 0.59209 0.54917 0.42602 0.0
C692 C 0.65629 0.62178 0.51609 0.0
C693 C 0.70513 0.62637 0.52069 0.0
C694 C 0.6403 0.61632 0.49299 0.0
C695 C 0.67277 0.61549 0.474 0.0
C696 C 0.72112 0.62225 0.47835 0.0
C697 C 0.73714 0.62761 0.50146 0.0
C698 C 0.66514 0.6056 0.40717 0.0
C699 C 0.63535 0.58049 0.40557 0.0
C700 C 0.6759 0.61767 0.42927 0.0
C701 C 0.65732 0.60487 0.45031 0.0
C702 C 0.62657 0.58025 0.44868 0.0
C703 C 0.61568 0.56823 0.42659 0.0
H704 H 0.37093 0.55845 0.99614 0.0
H705 H 0.3039 0.64234 0.99101 0.0
H706 H 0.39687 0.56932 0.03667 0.0
H707 H 0.32933 0.65299 0.03141 0.0
H708 H 0.40779 0.67654 0.09665 0.0
H709 H 0.40111 0.66325 0.05488 0.0
H710 H 0.35896 0.57517 0.07619 0.0
H711 H 0.36655 0.58851 0.11809 0.0
C712 C 0.36185 0.57923 1.00362 0.0
C713 C 0.33517 0.59951 0.9904 0.0
C714 C 0.37663 0.58539 0.02684 0.0
C715 C 0.3654 0.61206 0.0372 0.0
C716 C 0.33929 0.63244 0.02381 0.0
C717 C 0.32429 0.62623 1.00072 0.0
C718 C 0.39808 0.65419 0.09235 0.0
C719 C 0.38703 0.63362 0.1105 0.0
C720 C 0.39399 0.64662 0.06848 0.0
C721 C 0.37845 0.61836 0.06226 0.0
C722 C 0.37105 0.59712 0.08042 0.0
C723 C 0.3754 0.60471 0.10439 0.0
H724 H 0.23832 0.84758 0.48873 0.0
H725 H 0.17032 0.93113 0.49169 0.0
H726 H 0.21481 0.83702 0.52969 0.0
H727 H 0.14629 0.92033 0.53285 0.0
H728 H 0.17612 0.9006 0.61492 0.0
H729 H 0.18496 0.91425 0.57271 0.0
H730 H 0.14298 0.82641 0.55331 0.0
H731 H 0.13476 0.81283 0.59529 0.0
C732 C 0.21814 0.86365 0.49808 0.0
C733 C 0.20633 0.89021 0.48695 0.0
C734 C 0.2043 0.8575 0.52153 0.0
C735 C 0.17839 0.87777 0.53448 0.0
C736 C 0.16642 0.90435 0.52337 0.0
C737 C 0.18007 0.91046 0.49979 0.0
C738 C 0.16784 0.88446 0.60157 0.0
C739 C 0.15569 0.85552 0.60833 0.0
C740 C 0.17286 0.89225 0.57742 0.0
C741 C 0.16566 0.87121 0.55972 0.0
C742 C 0.15001 0.8429 0.56655 0.0
C743 C 0.14518 0.83514 0.59056 0.0
H744 H 0.2647 0.24229 0.36745 0.0
H745 H 0.15807 0.30138 0.34149 0.0
H746 H 0.22871 0.20309 0.3441 0.0
H747 H 0.12357 0.26288 0.31722 0.0
H748 H 0.04123 0.18321 0.29457 0.0
H749 H 0.07787 0.21986 0.31975 0.0
H750 H 0.21654 0.18474 0.30581 0.0
H751 H 0.17917 0.14654 0.28217 0.0
C752 C 0.23384 0.24695 0.35655 0.0
C753 C 0.214 0.27484 0.35642 0.0
C754 C 0.21332 0.22453 0.34303 0.0
C755 C 0.17292 0.22962 0.3288 0.0
C756 C 0.15384 0.25779 0.32838 0.0
C757 C 0.17384 0.28001 0.34219 0.0
C758 C 0.07955 0.18315 0.29693 0.0
C759 C 0.1074 0.16235 0.28571 0.0
C760 C 0.10071 0.20445 0.31124 0.0
C761 C 0.15042 0.20581 0.31451 0.0
C762 C 0.17816 0.18445 0.30382 0.0
C763 C 0.15679 0.16275 0.28987 0.0
H764 H 0.40716 0.19342 0.85229 0.0
H765 H 0.31851 0.25755 0.88428 0.0
H766 H 0.45113 0.23196 0.83095 0.0
H767 H 0.36465 0.29657 0.86445 0.0
H768 H 0.42175 0.35933 0.80759 0.0
H769 H 0.37865 0.321 0.82955 0.0
H770 H 0.50564 0.26917 0.83061 0.0
H771 H 0.54602 0.3059 0.80575 0.0
C772 C 0.39776 0.2159 0.85514 0.0
C773 C 0.35927 0.22244 0.86988 0.0
C774 C 0.42328 0.23819 0.843 0.0
C775 C 0.41182 0.26778 0.84574 0.0
C776 C 0.3741 0.27422 0.86122 0.0
C777 C 0.34781 0.25183 0.87287 0.0
C778 C 0.44 0.3394 0.81199 0.0
C779 C 0.48711 0.33552 0.8045 0.0
C780 C 0.41559 0.31754 0.82518 0.0
C781 C 0.43824 0.29156 0.83208 0.0
C782 C 0.48616 0.28832 0.82529 0.0
C783 C 0.50992 0.30977 0.81139 0.0
H784 H 0.66914 0.19588 0.67744 0.0
H785 H 0.77923 0.25703 0.6532 0.0
H786 H 0.633 0.23448 0.70033 0.0
H787 H 0.74267 0.29564 0.67593 0.0
H788 H 0.62534 0.36134 0.69653 0.0
H789 H 0.66342 0.32287 0.67417 0.0
H790 H 0.65626 0.2659 0.73629 0.0
H791 H 0.6185 0.30441 0.75867 0.0
C792 C 0.6856 0.21754 0.67699 0.0
C793 C 0.72706 0.22341 0.66353 0.0
C794 C 0.66503 0.23957 0.69018 0.0
C795 C 0.68507 0.268 0.68987 0.0
C796 C 0.72635 0.27394 0.67634 0.0
C797 C 0.74737 0.2518 0.66344 0.0
C798 C 0.6322 0.34063 0.70538 0.0
C799 C 0.61942 0.33586 0.72933 0.0
C800 C 0.65408 0.31871 0.69266 0.0
C801 C 0.66279 0.29146 0.70353 0.0
C802 C 0.64974 0.28667 0.72746 0.0
C803 C 0.62854 0.30874 0.74029 0.0
H804 H 0.80292 0.26932 0.16501 0.0
H805 H 0.92766 0.28886 0.12201 0.0
H806 H 0.84475 0.22982 0.18508 0.0
H807 H 0.96949 0.24912 0.14217 0.0
H808 H 1.00816 0.15583 0.17109 0.0
H809 H 0.96665 0.19346 0.14814 0.0
H810 H 0.91434 0.22921 0.21342 0.0
H811 H 0.95588 0.19215 0.23632 0.0
C812 C 0.83912 0.26504 0.15968 0.0
C813 C 0.86206 0.28239 0.14203 0.0
C814 C 0.86314 0.2425 0.17127 0.0
C815 C 0.91051 0.23657 0.16533 0.0
C816 C 0.93294 0.25315 0.14705 0.0
C817 C 0.90905 0.27597 0.13561 0.0
C818 C 0.98799 0.17181 0.18054 0.0
C819 C 0.98499 0.17074 0.20556 0.0
C820 C 0.9643 0.19335 0.16739 0.0
C821 C 0.93684 0.21404 0.17899 0.0
C822 C 0.93451 0.21322 0.20397 0.0
C823 C 0.95852 0.192 0.21708 0.0
H824 H 0.7722 0.73749 0.66439 0.0
H825 H 0.90184 0.71718 0.62737 0.0
H826 H 0.81566 0.7749 0.6868 0.0
H827 H 0.94493 0.75528 0.64954 0.0
H828 H 0.97308 0.85365 0.67933 0.0
H829 H 0.93341 0.8167 0.65454 0.0
H830 H 0.89298 0.7671 0.71767 0.0
H831 H 0.93529 0.80247 0.74221 0.0
C832 C 0.80983 0.74118 0.66088 0.0
C833 C 0.83365 0.72432 0.64418 0.0
C834 C 0.83461 0.76254 0.67372 0.0
C835 C 0.88342 0.76785 0.66977 0.0
C836 C 0.90717 0.75159 0.65271 0.0
C837 C 0.88257 0.72977 0.64017 0.0
C838 C 0.956 0.83477 0.68791 0.0
C839 C 0.9559 0.83156 0.71289 0.0
C840 C 0.93339 0.81371 0.67372 0.0
C841 C 0.90965 0.78945 0.68433 0.0
C842 C 0.91037 0.78594 0.70916 0.0
C843 C 0.93403 0.80646 0.72322 0.0
H844 H 0.77609 0.76444 0.1768 0.0
H845 H 0.64817 0.79205 0.14089 0.0
H846 H 0.72988 0.72744 0.199 0.0
H847 H 0.60204 0.75423 0.16248 0.0
H848 H 0.52784 0.69942 0.22176 0.0
H849 H 0.57186 0.73901 0.20102 0.0
H850 H 0.6905 0.68187 0.19152 0.0
H851 H 0.64686 0.64275 0.21234 0.0
C852 C 0.73809 0.76252 0.17358 0.0
C853 C 0.71582 0.78105 0.157 0.0
C854 C 0.71161 0.74119 0.1862 0.0
C855 C 0.6623 0.73764 0.18234 0.0
C856 C 0.63985 0.75655 0.16606 0.0
C857 C 0.66632 0.77812 0.15359 0.0
C858 C 0.5632 0.69538 0.21506 0.0
C859 C 0.58414 0.66814 0.21884 0.0
C860 C 0.58842 0.718 0.20318 0.0
C861 C 0.63491 0.71372 0.19477 0.0
C862 C 0.65525 0.6862 0.19822 0.0
C863 C 0.63017 0.66371 0.21009 0.0
H864 H 0.28575 0.74245 0.36478 0.0
H865 H 0.39787 0.80492 0.34575 0.0
H866 H 0.32985 0.70377 0.34568 0.0
H867 H 0.44143 0.76634 0.32645 0.0
H868 H 0.46241 0.69819 0.26701 0.0
H869 H 0.42272 0.73567 0.28936 0.0
H870 H 0.41159 0.67696 0.35026 0.0
H871 H 0.45225 0.63923 0.32782 0.0
C872 C 0.31979 0.74791 0.35657 0.0
C873 C 0.33821 0.77678 0.35667 0.0
C874 C 0.34514 0.72573 0.34581 0.0
C875 C 0.38898 0.7321 0.3346 0.0
C876 C 0.40757 0.76088 0.33487 0.0
C877 C 0.38266 0.78294 0.34595 0.0
C878 C 0.45163 0.69326 0.2852 0.0
C879 C 0.46026 0.66579 0.2957 0.0
C880 C 0.42918 0.71479 0.29802 0.0
C881 C 0.41415 0.70922 0.32153 0.0
C882 C 0.42271 0.68174 0.33211 0.0
C883 C 0.44613 0.66028 0.31937 0.0
H884 H 0.14706 0.67995 0.83605 0.0
H885 H 0.2504 0.74345 0.8618 0.0
H886 H 0.1061 0.71879 0.81435 0.0
H887 H 0.20905 0.78222 0.84029 0.0
H888 H 0.08533 0.84461 0.82208 0.0
H889 H 0.12622 0.80538 0.84331 0.0
H890 H 0.12584 0.75463 0.77927 0.0
H891 H 0.0854 0.79398 0.75791 0.0
C892 C 0.16103 0.70216 0.83707 0.0
C893 C 0.20197 0.70864 0.85064 0.0
C894 C 0.13769 0.72433 0.82459 0.0
C895 C 0.1544 0.75345 0.82573 0.0
C896 C 0.19524 0.75996 0.83929 0.0
C897 C 0.21901 0.73775 0.85148 0.0
C898 C 0.09382 0.82502 0.81257 0.0
C899 C 0.08226 0.82231 0.78836 0.0
C900 C 0.11746 0.8027 0.82467 0.0
C901 C 0.1292 0.77705 0.81289 0.0
C902 C 0.11696 0.77414 0.78878 0.0
C903 C 0.09406 0.79667 0.77656 0.0
loop_
_geom_bond_atom_site_label_1
_geom_bond_atom_site_label_2
_geom_bond_distance
_geom_bond_site_symmetry_2
_ccdc_geom_bond_type
O0 Cd1 2.300 . S
O0 C7 1.275 . S
Cd1 O0 2.300 . S
Cd1 O9 2.381 . S
Cd1 O10 2.378 . S
O2 Cd3 2.385 . S
O2 C7 1.255 . S
Cd3 O2 2.385 . S
Cd3 O4 2.317 . S
O4 Cd3 2.317 . S
O4 C5 1.232 . S
C5 O4 1.232 . S
C5 O6 1.218 . S
O6 C5 1.218 . S
C7 O0 1.275 . S
C7 O2 1.255 . S
C8 O9 1.258 . S
C8 O10 1.256 . S
O9 Cd1 2.381 . S
O9 C8 1.258 . S
O10 Cd1 2.378 . S
O10 C8 1.256 . S
O11 Cd12 2.300 . S
O11 C18 1.275 . S
Cd12 O11 2.300 . S
Cd12 O20 2.381 . S
Cd12 O21 2.378 . S
O13 Cd14 2.385 . S
O13 C18 1.255 . S
Cd14 O13 2.385 . S
Cd14 O15 2.317 . S
O15 Cd14 2.317 . S
O15 C16 1.232 . S
C16 O15 1.232 . S
C16 O17 1.218 . S
O17 C16 1.218 . S
C18 O11 1.275 . S
C18 O13 1.255 . S
C19 O20 1.258 . S
C19 O21 1.256 . S
O20 Cd12 2.381 . S
O20 C19 1.258 . S
O21 Cd12 2.378 . S
O21 C19 1.256 . S
O22 Cd23 2.300 . S
O22 C29 1.275 . S
Cd23 O22 2.300 . S
Cd23 O31 2.381 . S
Cd23 O32 2.378 . S
O24 Cd25 2.385 . S
O24 C29 1.255 . S
Cd25 O24 2.385 . S
Cd25 O26 2.317 . S
O26 Cd25 2.317 . S
O26 C27 1.232 . S
C27 O26 1.232 . S
C27 O28 1.218 . S
O28 C27 1.218 . S
C29 O22 1.275 . S
C29 O24 1.255 . S
C30 O31 1.258 . S
C30 O32 1.256 . S
O31 Cd23 2.381 . S
O31 C30 1.258 . S
O32 Cd23 2.378 . S
O32 C30 1.256 . S
O33 Cd34 2.300 . S
O33 C40 1.275 . S
Cd34 O33 2.300 . S
Cd34 O42 2.381 . S
Cd34 O43 2.378 . S
O35 Cd36 2.385 . S
O35 C40 1.255 . S
Cd36 O35 2.385 . S
Cd36 O37 2.317 . S
O37 Cd36 2.317 . S
O37 C38 1.232 . S
C38 O37 1.232 . S
C38 O39 1.218 . S
O39 C38 1.218 . S
C40 O33 1.275 . S
C40 O35 1.255 . S
C41 O42 1.258 . S
C41 O43 1.256 . S
O42 Cd34 2.381 . S
O42 C41 1.258 . S
O43 Cd34 2.378 . S
O43 C41 1.256 . S
O44 Cd45 2.300 . S
O44 C51 1.275 . S
Cd45 O44 2.300 . S
Cd45 O53 2.381 . S
Cd45 O54 2.378 . S
O46 Cd47 2.385 . S
O46 C51 1.255 . S
Cd47 O46 2.385 . S
Cd47 O48 2.317 . S
O48 Cd47 2.317 . S
O48 C49 1.232 . S
C49 O48 1.232 . S
C49 O50 1.218 . S
O50 C49 1.218 . S
C51 O44 1.275 . S
C51 O46 1.255 . S
C52 O53 1.258 . S
C52 O54 1.256 . S
O53 Cd45 2.381 . S
O53 C52 1.258 . S
O54 Cd45 2.378 . S
O54 C52 1.256 . S
O55 Cd56 2.300 . S
O55 C62 1.275 . S
Cd56 O55 2.300 . S
Cd56 O64 2.381 . S
Cd56 O65 2.378 . S
O57 Cd58 2.385 . S
O57 C62 1.255 . S
Cd58 O57 2.385 . S
Cd58 O59 2.317 . S
O59 Cd58 2.317 . S
O59 C60 1.232 . S
C60 O59 1.232 . S
C60 O61 1.218 . S
O61 C60 1.218 . S
C62 O55 1.275 . S
C62 O57 1.255 . S
C63 O64 1.258 . S
C63 O65 1.256 . S
O64 Cd56 2.381 . S
O64 C63 1.258 . S
O65 Cd56 2.378 . S
O65 C63 1.256 . S
O66 Cd67 2.300 . S
O66 C73 1.275 . S
Cd67 O66 2.300 . S
Cd67 O75 2.381 . S
Cd67 O76 2.378 . S
O68 Cd69 2.385 . S
O68 C73 1.255 . S
Cd69 O68 2.385 . S
Cd69 O70 2.317 . S
O70 Cd69 2.317 . S
O70 C71 1.232 . S
C71 O70 1.232 . S
C71 O72 1.218 . S
O72 C71 1.218 . S
C73 O66 1.275 . S
C73 O68 1.255 . S
C74 O75 1.258 . S
C74 O76 1.256 . S
O75 Cd67 2.381 . S
O75 C74 1.258 . S
O76 Cd67 2.378 . S
O76 C74 1.256 . S
O77 Cd78 2.300 . S
O77 C84 1.275 . S
Cd78 O77 2.300 . S
Cd78 O86 2.381 . S
Cd78 O87 2.378 . S
O79 Cd80 2.385 . S
O79 C84 1.255 . S
Cd80 O79 2.385 . S
Cd80 O81 2.317 . S
O81 Cd80 2.317 . S
O81 C82 1.232 . S
C82 O81 1.232 . S
C82 O83 1.218 . S
O83 C82 1.218 . S
C84 O77 1.275 . S
C84 O79 1.255 . S
C85 O86 1.258 . S
C85 O87 1.256 . S
O86 Cd78 2.381 . S
O86 C85 1.258 . S
O87 Cd78 2.378 . S
O87 C85 1.256 . S
Tb88 N117 2.617 . S
Tb88 N123 2.572 . S
Tb88 O132 2.465 . S
Tb88 O133 2.387 . S
Tb88 O135 2.428 . S
Tb88 O136 2.308 . S
Tb88 O140 2.349 . S
Tb88 O143 2.393 . S
Tb88 C152 2.802 . S
C89 N90 1.379 . S
C89 C92 1.416 . S
C89 C96 1.424 . S
N90 C89 1.379 . S
N90 C93 1.334 . S
N90 Tb99 2.617 . S
C91 C93 1.390 . S
C91 C94 1.339 . S
C91 H111 0.930 . S
C92 C89 1.416 . S
C92 C94 1.416 . S
C92 C98 1.448 . S
C93 N90 1.334 . S
C93 C91 1.390 . S
C93 H104 0.930 . S
C94 C91 1.339 . S
C94 C92 1.416 . S
C94 H115 0.930 . S
C95 C96 1.413 . S
C95 C97 1.427 . S
C95 C101 1.416 . S
C96 C89 1.424 . S
C96 C95 1.413 . S
C96 N100 1.361 . S
C97 C95 1.427 . S
C97 C98 1.328 . S
C97 H112 0.929 . S
C98 C92 1.448 . S
C98 C97 1.328 . S
C98 H113 0.930 . S
Tb99 N90 2.617 . S
Tb99 N100 2.572 . S
Tb99 O134 2.349 1_655 S
Tb99 O137 2.393 . S
Tb99 O138 2.465 . S
Tb99 O139 2.387 . S
Tb99 O141 2.428 . S
Tb99 O142 2.308 1_655 S
Tb99 C163 2.802 . S
N100 C96 1.361 . S
N100 Tb99 2.572 . S
N100 C102 1.340 . S
C101 C95 1.416 . S
C101 C103 1.332 . S
C101 H109 0.931 1_545 S
C102 N100 1.340 . S
C102 C103 1.407 . S
C102 H108 0.930 . S
C103 C101 1.332 . S
C103 C102 1.407 . S
C103 H105 0.929 1_545 S
H104 C93 0.930 . S
H105 C103 0.929 1_565 S
H106 C121 0.930 . S
H107 C128 0.929 . S
H108 C102 0.930 . S
H109 C101 0.931 1_565 S
H110 C124 0.930 . S
H111 C91 0.930 . S
H112 C97 0.929 . S
H113 C98 0.930 . S
H114 C119 0.930 . S
H115 C94 0.930 . S
H116 C127 0.931 . S
N117 Tb88 2.617 . S
N117 C118 1.379 . S
N117 C121 1.334 . S
C118 N117 1.379 . S
C118 C120 1.416 . S
C118 C126 1.424 . S
C119 H114 0.930 . S
C119 C121 1.390 . S
C119 C122 1.339 . S
C120 C118 1.416 . S
C120 C122 1.416 . S
C120 C153 1.448 . S
C121 H106 0.930 . S
C121 N117 1.334 . S
C121 C119 1.390 . S
C122 C119 1.339 . S
C122 C120 1.416 . S
C122 H129 0.930 . S
N123 Tb88 2.572 . S
N123 C124 1.340 . S
N123 C126 1.361 . S
C124 H110 0.930 . S
C124 N123 1.340 . S
C124 C128 1.407 . S
C125 C126 1.413 . S
C125 C127 1.416 . S
C125 C154 1.427 . S
C126 C118 1.424 . S
C126 N123 1.361 . S
C126 C125 1.413 . S
C127 H116 0.931 . S
C127 C125 1.416 . S
C127 C128 1.332 . S
C128 H107 0.929 . S
C128 C124 1.407 . S
C128 C127 1.332 . S
H129 C122 0.930 . S
H130 C153 0.930 . S
H131 C154 0.929 . S
O132 Tb88 2.465 . S
O132 C152 1.264 . S
O133 Tb88 2.387 . S
O133 C144 1.264 . S
O134 Tb99 2.349 1_455 S
O134 C144 1.243 . S
O135 Tb88 2.428 . S
O135 C152 1.256 . S
O136 Tb88 2.308 . S
O136 C151 1.266 1_455 S
O137 Tb99 2.393 . S
O137 C151 1.248 . S
O138 Tb99 2.465 . S
O138 C163 1.264 . S
O139 Tb99 2.387 . S
O139 C155 1.264 . S
O140 Tb88 2.349 . S
O140 C155 1.243 1_455 S
O141 Tb99 2.428 . S
O141 C163 1.256 . S
O142 Tb99 2.308 1_455 S
O142 C162 1.266 . S
O143 Tb88 2.393 . S
O143 C162 1.248 . S
C144 O133 1.264 . S
C144 O134 1.243 . S
C145 C148 1.399 . S
C145 C150 1.383 . S
C145 C152 1.496 . S
C146 C147 1.399 . S
C146 C150 1.389 . S
C147 C146 1.399 . S
C147 C149 1.380 . S
C147 H164 0.929 . S
C148 C145 1.399 . S
C148 C149 1.392 . S
C148 H165 0.929 . S
C149 C147 1.380 . S
C149 C148 1.392 . S
C149 H166 0.929 . S
C150 C145 1.383 . S
C150 C146 1.389 . S
C150 H167 0.931 . S
C151 O136 1.266 1_655 S
C151 O137 1.248 . S
C152 Tb88 2.802 . S
C152 O132 1.264 . S
C152 O135 1.256 . S
C152 C145 1.496 . S
C153 C120 1.448 . S
C153 H130 0.930 . S
C153 C154 1.328 . S
C154 C125 1.427 . S
C154 H131 0.929 . S
C154 C153 1.328 . S
C155 O139 1.264 . S
C155 O140 1.243 1_655 S
C156 C159 1.399 . S
C156 C160 1.383 . S
C156 C163 1.496 . S
C157 C158 1.399 . S
C157 C160 1.389 . S
C158 C157 1.399 . S
C158 C161 1.380 . S
C158 H168 0.929 . S
C159 C156 1.399 . S
C159 C161 1.392 . S
C159 H169 0.929 . S
C160 C156 1.383 . S
C160 C157 1.389 . S
C160 H170 0.931 . S
C161 C158 1.380 . S
C161 C159 1.392 . S
C161 H171 0.929 . S
C162 O142 1.266 . S
C162 O143 1.248 . S
C163 Tb99 2.802 . S
C163 O138 1.264 . S
C163 O141 1.256 . S
C163 C156 1.496 . S
H164 C147 0.929 . S
H165 C148 0.929 . S
H166 C149 0.929 . S
H167 C150 0.931 . S
H168 C158 0.929 . S
H169 C159 0.929 . S
H170 C160 0.931 . S
H171 C161 0.929 . S
Tb172 N201 2.617 . S
Tb172 N207 2.572 . S
Tb172 O216 2.465 . S
Tb172 O217 2.387 . S
Tb172 O219 2.428 . S
Tb172 O220 2.308 . S
Tb172 O224 2.349 . S
Tb172 O227 2.393 . S
Tb172 C236 2.802 . S
C173 N174 1.379 . S
C173 C176 1.416 . S
C173 C180 1.424 . S
N174 C173 1.379 . S
N174 C177 1.334 . S
N174 Tb183 2.617 . S
C175 C177 1.390 . S
C175 C178 1.339 . S
C175 H195 0.930 . S
C176 C173 1.416 . S
C176 C178 1.416 . S
C176 C182 1.448 . S
C177 N174 1.334 . S
C177 C175 1.390 . S
C177 H188 0.930 . S
C178 C175 1.339 . S
C178 C176 1.416 . S
C178 H199 0.930 . S
C179 C180 1.413 . S
C179 C181 1.427 . S
C179 C185 1.416 . S
C180 C173 1.424 . S
C180 C179 1.413 . S
C180 N184 1.361 . S
C181 C179 1.427 . S
C181 C182 1.328 . S
C181 H196 0.929 . S
C182 C176 1.448 . S
C182 C181 1.328 . S
C182 H197 0.930 . S
Tb183 N174 2.617 . S
Tb183 N184 2.572 . S
Tb183 O218 2.349 . S
Tb183 O221 2.393 . S
Tb183 O222 2.465 . S
Tb183 O223 2.387 . S
Tb183 O225 2.428 . S
Tb183 O226 2.308 . S
Tb183 C247 2.802 . S
N184 C180 1.361 . S
N184 Tb183 2.572 . S
N184 C186 1.340 . S
C185 C179 1.416 . S
C185 C187 1.332 . S
C185 H193 0.931 . S
C186 N184 1.340 . S
C186 C187 1.407 . S
C186 H192 0.930 . S
C187 C185 1.332 . S
C187 C186 1.407 . S
C187 H189 0.929 . S
H188 C177 0.930 . S
H189 C187 0.929 . S
H190 C205 0.930 . S
H191 C212 0.929 . S
H192 C186 0.930 . S
H193 C185 0.931 . S
H194 C208 0.930 . S
H195 C175 0.930 . S
H196 C181 0.929 . S
H197 C182 0.930 . S
H198 C203 0.930 . S
H199 C178 0.930 . S
H200 C211 0.931 . S
N201 Tb172 2.617 . S
N201 C202 1.379 . S
N201 C205 1.334 . S
C202 N201 1.379 . S
C202 C204 1.416 . S
C202 C210 1.424 . S
C203 H198 0.930 . S
C203 C205 1.390 . S
C203 C206 1.339 . S
C204 C202 1.416 . S
C204 C206 1.416 . S
C204 C237 1.448 . S
C205 H190 0.930 . S
C205 N201 1.334 . S
C205 C203 1.390 . S
C206 C203 1.339 . S
C206 C204 1.416 . S
C206 H213 0.930 . S
N207 Tb172 2.572 . S
N207 C208 1.340 . S
N207 C210 1.361 . S
C208 H194 0.930 . S
C208 N207 1.340 . S
C208 C212 1.407 . S
C209 C210 1.413 . S
C209 C211 1.416 . S
C209 C238 1.427 . S
C210 C202 1.424 . S
C210 N207 1.361 . S
C210 C209 1.413 . S
C211 H200 0.931 . S
C211 C209 1.416 . S
C211 C212 1.332 . S
C212 H191 0.929 . S
C212 C208 1.407 . S
C212 C211 1.332 . S
H213 C206 0.930 . S
H214 C237 0.930 . S
H215 C238 0.929 . S
O216 Tb172 2.465 . S
O216 C236 1.264 . S
O217 Tb172 2.387 . S
O217 C228 1.264 . S
O218 Tb183 2.349 . S
O218 C228 1.243 . S
O219 Tb172 2.428 . S
O219 C236 1.256 . S
O220 Tb172 2.308 . S
O220 C235 1.266 . S
O221 Tb183 2.393 . S
O221 C235 1.248 . S
O222 Tb183 2.465 . S
O222 C247 1.264 . S
O223 Tb183 2.387 . S
O223 C239 1.264 . S
O224 Tb172 2.349 . S
O224 C239 1.243 . S
O225 Tb183 2.428 . S
O225 C247 1.256 . S
O226 Tb183 2.308 . S
O226 C246 1.266 . S
O227 Tb172 2.393 . S
O227 C246 1.248 . S
C228 O217 1.264 . S
C228 O218 1.243 . S
C229 C232 1.399 . S
C229 C234 1.383 . S
C229 C236 1.496 . S
C230 C231 1.399 . S
C230 C234 1.389 . S
C231 C230 1.399 . S
C231 C233 1.380 . S
C231 H248 0.929 . S
C232 C229 1.399 . S
C232 C233 1.392 . S
C232 H249 0.929 . S
C233 C231 1.380 . S
C233 C232 1.392 . S
C233 H250 0.929 . S
C234 C229 1.383 . S
C234 C230 1.389 . S
C234 H251 0.931 . S
C235 O220 1.266 . S
C235 O221 1.248 . S
C236 Tb172 2.802 . S
C236 O216 1.264 . S
C236 O219 1.256 . S
C236 C229 1.496 . S
C237 C204 1.448 . S
C237 H214 0.930 . S
C237 C238 1.328 . S
C238 C209 1.427 . S
C238 H215 0.929 . S
C238 C237 1.328 . S
C239 O223 1.264 . S
C239 O224 1.243 . S
C240 C243 1.399 . S
C240 C244 1.383 . S
C240 C247 1.496 . S
C241 C242 1.399 . S
C241 C244 1.389 . S
C242 C241 1.399 . S
C242 C245 1.380 . S
C242 H252 0.929 . S
C243 C240 1.399 . S
C243 C245 1.392 . S
C243 H253 0.929 . S
C244 C240 1.383 . S
C244 C241 1.389 . S
C244 H254 0.931 . S
C245 C242 1.380 . S
C245 C243 1.392 . S
C245 H255 0.929 . S
C246 O226 1.266 . S
C246 O227 1.248 . S
C247 Tb183 2.802 . S
C247 O222 1.264 . S
C247 O225 1.256 . S
C247 C240 1.496 . S
H248 C231 0.929 . S
H249 C232 0.929 . S
H250 C233 0.929 . S
H251 C234 0.931 . S
H252 C242 0.929 . S
H253 C243 0.929 . S
H254 C244 0.931 . S
H255 C245 0.929 . S
Tb256 N285 2.617 . S
Tb256 N291 2.572 . S
Tb256 O300 2.465 . S
Tb256 O301 2.387 . S
Tb256 O303 2.428 . S
Tb256 O304 2.308 . S
Tb256 O308 2.368 . S
Tb256 O311 2.393 . S
Tb256 C320 2.802 . S
C257 N258 1.379 . S
C257 C260 1.416 . S
C257 C264 1.424 . S
N258 C257 1.379 . S
N258 C261 1.334 . S
N258 Tb267 2.617 . S
C259 C261 1.390 . S
C259 C262 1.339 . S
C259 H279 0.930 . S
C260 C257 1.416 . S
C260 C262 1.416 . S
C260 C266 1.448 . S
C261 N258 1.334 . S
C261 C259 1.390 . S
C261 H272 0.930 . S
C262 C259 1.339 . S
C262 C260 1.416 . S
C262 H283 0.930 . S
C263 C264 1.413 . S
C263 C265 1.427 . S
C263 C269 1.416 . S
C264 C257 1.424 . S
C264 C263 1.413 . S
C264 N268 1.361 . S
C265 C263 1.427 . S
C265 C266 1.328 . S
C265 H280 0.929 . S
C266 C260 1.448 . S
C266 C265 1.328 . S
C266 H281 0.930 . S
Tb267 N258 2.617 . S
Tb267 N268 2.572 . S
Tb267 O302 2.349 1_655 S
Tb267 O305 2.393 . S
Tb267 O306 2.465 . S
Tb267 O307 2.387 . S
Tb267 O309 2.428 . S
Tb267 O310 2.308 1_655 S
Tb267 C331 2.802 . S
N268 C264 1.361 . S
N268 Tb267 2.572 . S
N268 C270 1.340 . S
C269 C263 1.416 . S
C269 C271 1.332 . S
C269 H277 0.931 . S
C270 N268 1.340 . S
C270 C271 1.407 . S
C270 H276 0.930 . S
C271 C269 1.332 . S
C271 C270 1.407 . S
C271 H273 0.929 . S
H272 C261 0.930 . S
H273 C271 0.929 . S
H274 C289 0.930 . S
H275 C296 0.929 1_545 S
H276 C270 0.930 . S
H277 C269 0.931 . S
H278 C292 0.930 . S
H279 C259 0.930 . S
H280 C265 0.929 . S
H281 C266 0.930 . S
H282 C287 0.930 . S
H283 C262 0.930 . S
H284 C295 0.931 1_545 S
N285 Tb256 2.617 . S
N285 C286 1.379 . S
N285 C289 1.334 . S
C286 N285 1.379 . S
C286 C288 1.416 . S
C286 C294 1.424 . S
C287 H282 0.930 . S
C287 C289 1.390 . S
C287 C290 1.339 . S
C288 C286 1.416 . S
C288 C290 1.416 . S
C288 C321 1.448 . S
C289 H274 0.930 . S
C289 N285 1.334 . S
C289 C287 1.390 . S
C290 C287 1.339 . S
C290 C288 1.416 . S
C290 H297 0.930 . S
N291 Tb256 2.572 . S
N291 C292 1.340 . S
N291 C294 1.361 . S
C292 H278 0.930 . S
C292 N291 1.340 . S
C292 C296 1.407 . S
C293 C294 1.413 . S
C293 C295 1.416 . S
C293 C322 1.427 . S
C294 C286 1.424 . S
C294 N291 1.361 . S
C294 C293 1.413 . S
C295 H284 0.931 1_565 S
C295 C293 1.416 . S
C295 C296 1.332 . S
C296 H275 0.929 1_565 S
C296 C292 1.407 . S
C296 C295 1.332 . S
H297 C290 0.930 . S
H298 C321 0.930 . S
H299 C322 0.929 . S
O300 Tb256 2.465 . S
O300 C320 1.264 . S
O301 Tb256 2.387 . S
O301 C312 1.264 . S
O302 Tb267 2.349 1_455 S
O302 C312 1.243 . S
O303 Tb256 2.428 . S
O303 C320 1.256 . S
O304 Tb256 2.308 . S
O304 C319 1.266 1_455 S
O305 Tb267 2.393 . S
O305 C319 1.248 . S
O306 Tb267 2.465 . S
O306 C331 1.264 . S
O307 Tb267 2.387 . S
O307 C323 1.264 . S
O308 Tb256 2.368 . S
O308 C323 1.220 1_455 S
O309 Tb267 2.428 . S
O309 C331 1.256 . S
O310 Tb267 2.308 1_455 S
O310 C330 1.266 . S
O311 Tb256 2.393 . S
O311 C330 1.248 . S
C312 O301 1.264 . S
C312 O302 1.243 . S
C313 C316 1.399 . S
C313 C318 1.383 . S
C313 C320 1.496 . S
C314 C315 1.399 . S
C314 C318 1.389 . S
C315 C314 1.399 . S
C315 C317 1.380 . S
C315 H332 0.929 . S
C316 C313 1.399 . S
C316 C317 1.392 . S
C316 H333 0.929 . S
C317 C315 1.380 . S
C317 C316 1.392 . S
C317 H334 0.929 . S
C318 C313 1.383 . S
C318 C314 1.389 . S
C318 H335 0.931 . S
C319 O304 1.266 1_655 S
C319 O305 1.248 . S
C320 Tb256 2.802 . S
C320 O300 1.264 . S
C320 O303 1.256 . S
C320 C313 1.496 . S
C321 C288 1.448 . S
C321 H298 0.930 . S
C321 C322 1.328 . S
C322 C293 1.427 . S
C322 H299 0.929 . S
C322 C321 1.328 . S
C323 O307 1.264 . S
C323 O308 1.220 1_655 S
C324 C327 1.399 . S
C324 C328 1.383 . S
C324 C331 1.496 . S
C325 C326 1.399 . S
C325 C328 1.389 . S
C326 C325 1.399 . S
C326 C329 1.380 . S
C326 H336 0.929 . S
C327 C324 1.399 . S
C327 C329 1.392 . S
C327 H337 0.929 . S
C328 C324 1.383 . S
C328 C325 1.389 . S
C328 H338 0.931 . S
C329 C326 1.380 . S
C329 C327 1.392 . S
C329 H339 0.929 . S
C330 O310 1.266 . S
C330 O311 1.248 . S
C331 Tb267 2.802 . S
C331 O306 1.264 . S
C331 O309 1.256 . S
C331 C324 1.496 . S
H332 C315 0.929 . S
H333 C316 0.929 . S
H334 C317 0.929 . S
H335 C318 0.931 . S
H336 C326 0.929 . S
H337 C327 0.929 . S
H338 C328 0.931 . S
H339 C329 0.929 . S
Tb340 N369 2.617 . S
Tb340 N375 2.572 . S
Tb340 O384 2.465 . S
Tb340 O385 2.387 . S
Tb340 O387 2.428 . S
Tb340 O388 2.308 . S
Tb340 O392 2.349 . S
Tb340 O395 2.393 . S
Tb340 C404 2.802 . S
C341 N342 1.379 . S
C341 C344 1.416 . S
C341 C348 1.424 . S
N342 C341 1.379 . S
N342 C345 1.334 . S
N342 Tb351 2.617 . S
C343 C345 1.390 . S
C343 C346 1.339 . S
C343 H363 0.930 . S
C344 C341 1.416 . S
C344 C346 1.416 . S
C344 C350 1.448 . S
C345 N342 1.334 . S
C345 C343 1.390 . S
C345 H356 0.930 . S
C346 C343 1.339 . S
C346 C344 1.416 . S
C346 H367 0.930 . S
C347 C348 1.413 . S
C347 C349 1.427 . S
C347 C353 1.416 . S
C348 C341 1.424 . S
C348 C347 1.413 . S
C348 N352 1.361 . S
C349 C347 1.427 . S
C349 C350 1.328 . S
C349 H364 0.929 . S
C350 C344 1.448 . S
C350 C349 1.328 . S
C350 H365 0.930 . S
Tb351 N342 2.617 . S
Tb351 N352 2.572 . S
Tb351 O386 2.349 . S
Tb351 O389 2.393 . S
Tb351 O390 2.465 . S
Tb351 O391 2.387 . S
Tb351 O393 2.428 . S
Tb351 O394 2.308 . S
Tb351 C415 2.802 . S
N352 C348 1.361 . S
N352 Tb351 2.572 . S
N352 C354 1.340 . S
C353 C347 1.416 . S
C353 C355 1.332 . S
C353 H361 0.931 . S
C354 N352 1.340 . S
C354 C355 1.407 . S
C354 H360 0.930 . S
C355 C353 1.332 . S
C355 C354 1.407 . S
C355 H357 0.929 . S
H356 C345 0.930 . S
H357 C355 0.929 . S
H358 C373 0.930 . S
H359 C380 0.929 . S
H360 C354 0.930 . S
H361 C353 0.931 . S
H362 C376 0.930 . S
H363 C343 0.930 . S
H364 C349 0.929 . S
H365 C350 0.930 . S
H366 C371 0.930 . S
H367 C346 0.930 . S
H368 C379 0.931 . S
N369 Tb340 2.617 . S
N369 C370 1.379 . S
N369 C373 1.334 . S
C370 N369 1.379 . S
C370 C372 1.416 . S
C370 C378 1.424 . S
C371 H366 0.930 . S
C371 C373 1.390 . S
C371 C374 1.339 . S
C372 C370 1.416 . S
C372 C374 1.416 . S
C372 C405 1.448 . S
C373 H358 0.930 . S
C373 N369 1.334 . S
C373 C371 1.390 . S
C374 C371 1.339 . S
C374 C372 1.416 . S
C374 H381 0.930 . S
N375 Tb340 2.572 . S
N375 C376 1.340 . S
N375 C378 1.361 . S
C376 H362 0.930 . S
C376 N375 1.340 . S
C376 C380 1.407 . S
C377 C378 1.413 . S
C377 C379 1.416 . S
C377 C406 1.427 . S
C378 C370 1.424 . S
C378 N375 1.361 . S
C378 C377 1.413 . S
C379 H368 0.931 . S
C379 C377 1.416 . S
C379 C380 1.332 . S
C380 H359 0.929 . S
C380 C376 1.407 . S
C380 C379 1.332 . S
H381 C374 0.930 . S
H382 C405 0.930 . S
H383 C406 0.929 . S
O384 Tb340 2.465 . S
O384 C404 1.264 . S
O385 Tb340 2.387 . S
O385 C396 1.264 . S
O386 Tb351 2.349 . S
O386 C396 1.243 . S
O387 Tb340 2.428 . S
O387 C404 1.256 . S
O388 Tb340 2.308 . S
O388 C403 1.266 . S
O389 Tb351 2.393 . S
O389 C403 1.248 . S
O390 Tb351 2.465 . S
O390 C415 1.264 . S
O391 Tb351 2.387 . S
O391 C407 1.264 . S
O392 Tb340 2.349 . S
O392 C407 1.243 . S
O393 Tb351 2.428 . S
O393 C415 1.256 . S
O394 Tb351 2.308 . S
O394 C414 1.266 . S
O395 Tb340 2.393 . S
O395 C414 1.248 . S
C396 O385 1.264 . S
C396 O386 1.243 . S
C397 C400 1.399 . S
C397 C402 1.383 . S
C397 C404 1.496 . S
C398 C399 1.399 . S
C398 C402 1.389 . S
C399 C398 1.399 . S
C399 C401 1.380 . S
C399 H416 0.929 . S
C400 C397 1.399 . S
C400 C401 1.392 . S
C400 H417 0.929 . S
C401 C399 1.380 . S
C401 C400 1.392 . S
C401 H418 0.929 . S
C402 C397 1.383 . S
C402 C398 1.389 . S
C402 H419 0.931 . S
C403 O388 1.266 . S
C403 O389 1.248 . S
C404 Tb340 2.802 . S
C404 O384 1.264 . S
C404 O387 1.256 . S
C404 C397 1.496 . S
C405 C372 1.448 . S
C405 H382 0.930 . S
C405 C406 1.328 . S
C406 C377 1.427 . S
C406 H383 0.929 . S
C406 C405 1.328 . S
C407 O391 1.264 . S
C407 O392 1.243 . S
C408 C411 1.399 . S
C408 C412 1.383 . S
C408 C415 1.496 . S
C409 C410 1.399 . S
C409 C412 1.389 . S
C410 C409 1.399 . S
C410 C413 1.380 . S
C410 H420 0.929 . S
C411 C408 1.399 . S
C411 C413 1.392 . S
C411 H421 0.929 . S
C412 C408 1.383 . S
C412 C409 1.389 . S
C412 H422 0.931 . S
C413 C410 1.380 . S
C413 C411 1.392 . S
C413 H423 0.929 . S
C414 O394 1.266 . S
C414 O395 1.248 . S
C415 Tb351 2.802 . S
C415 O390 1.264 . S
C415 O393 1.256 . S
C415 C408 1.496 . S
H416 C399 0.929 . S
H417 C400 0.929 . S
H418 C401 0.929 . S
H419 C402 0.931 . S
H420 C410 0.929 . S
H421 C411 0.929 . S
H422 C412 0.931 . S
H423 C413 0.929 . S
H424 C432 0.950 . S
H425 C437 0.950 . S
H426 C434 0.950 . S
H427 C436 0.950 . S
H428 C438 0.950 . S
H429 C440 0.950 . S
H430 C442 0.950 . S
H431 C443 0.950 . S
C432 H424 0.950 . S
C432 C433 1.386 . S
C432 C434 1.391 . S
C433 C432 1.386 . S
C433 C437 1.393 . S
C434 H426 0.950 . S
C434 C432 1.391 . S
C434 C435 1.400 . S
C435 C434 1.400 . S
C435 C436 1.398 . S
C435 C441 1.491 . S
C436 H427 0.950 . S
C436 C435 1.398 . S
C436 C437 1.391 . S
C437 H425 0.950 . S
C437 C433 1.393 . S
C437 C436 1.391 . S
C438 H428 0.950 . S
C438 C439 1.386 . S
C438 C440 1.391 . S
C439 C438 1.386 . S
C439 C443 1.393 . S
C440 H429 0.950 . S
C440 C438 1.391 . S
C440 C441 1.400 1_545 S
C441 C435 1.491 . S
C441 C440 1.400 1_565 S
C441 C442 1.398 . S
C442 H430 0.950 . S
C442 C441 1.398 . S
C442 C443 1.391 1_565 S
C443 H431 0.950 . S
C443 C439 1.393 . S
C443 C442 1.391 1_545 S
H444 C452 0.950 . S
H445 C457 0.950 . S
H446 C454 0.950 . S
H447 C456 0.950 . S
H448 C458 0.950 . S
H449 C460 0.950 . S
H450 C462 0.950 . S
H451 C463 0.950 . S
C452 H444 0.950 . S
C452 C453 1.386 . S
C452 C454 1.391 . S
C453 C452 1.386 . S
C453 C457 1.393 . S
C454 H446 0.950 . S
C454 C452 1.391 . S
C454 C455 1.400 . S
C455 C454 1.400 . S
C455 C456 1.398 . S
C455 C461 1.491 . S
C456 H447 0.950 . S
C456 C455 1.398 . S
C456 C457 1.391 . S
C457 H445 0.950 . S
C457 C453 1.393 . S
C457 C456 1.391 . S
C458 H448 0.950 . S
C458 C459 1.386 . S
C458 C460 1.391 . S
C459 C458 1.386 . S
C459 C463 1.393 . S
C460 H449 0.950 . S
C460 C458 1.391 . S
C460 C461 1.400 . S
C461 C455 1.491 . S
C461 C460 1.400 . S
C461 C462 1.398 . S
C462 H450 0.950 . S
C462 C461 1.398 . S
C462 C463 1.391 . S
C463 H451 0.950 . S
C463 C459 1.393 . S
C463 C462 1.391 . S
H464 C472 0.950 . S
H465 C477 0.950 . S
H466 C474 0.950 . S
H467 C476 0.950 . S
H468 C478 0.950 . S
H469 C480 0.950 . S
H470 C482 0.950 . S
H471 C483 0.950 . S
C472 H464 0.950 . S
C472 C473 1.386 . S
C472 C474 1.391 . S
C473 C472 1.386 . S
C473 C477 1.393 . S
C474 H466 0.950 . S
C474 C472 1.391 . S
C474 C475 1.400 . S
C475 C474 1.400 . S
C475 C476 1.398 . S
C475 C481 1.491 . S
C476 H467 0.950 . S
C476 C475 1.398 . S
C476 C477 1.391 . S
C477 H465 0.950 . S
C477 C473 1.393 . S
C477 C476 1.391 . S
C478 H468 0.950 . S
C478 C479 1.386 . S
C478 C480 1.391 . S
C479 C478 1.386 . S
C479 C483 1.393 . S
C480 H469 0.950 . S
C480 C478 1.391 . S
C480 C481 1.400 . S
C481 C475 1.491 . S
C481 C480 1.400 . S
C481 C482 1.398 . S
C482 H470 0.950 . S
C482 C481 1.398 . S
C482 C483 1.391 . S
C483 H471 0.950 . S
C483 C479 1.393 . S
C483 C482 1.391 . S
H484 C492 0.950 . S
H485 C497 0.950 . S
H486 C494 0.950 1_545 S
H487 C496 0.950 . S
H488 C498 0.945 1_565 S
H489 C500 0.950 . S
H490 C502 0.950 . S
H491 C503 0.950 . S
C492 H484 0.950 . S
C492 C493 1.386 . S
C492 C494 1.391 . S
C493 C492 1.386 . S
C493 C497 1.393 . S
C494 H486 0.950 1_565 S
C494 C492 1.391 . S
C494 C495 1.400 . S
C495 C494 1.400 . S
C495 C496 1.398 . S
C495 C501 1.491 . S
C496 H487 0.950 . S
C496 C495 1.398 . S
C496 C497 1.391 . S
C497 H485 0.950 . S
C497 C493 1.393 . S
C497 C496 1.391 . S
C498 H488 0.945 1_545 S
C498 C499 1.386 . S
C498 C500 1.391 1_545 S
C499 C498 1.386 . S
C499 C503 1.393 . S
C500 H489 0.950 . S
C500 C498 1.391 1_565 S
C500 C501 1.400 . S
C501 C495 1.491 . S
C501 C500 1.400 . S
C501 C502 1.398 1_565 S
C502 H490 0.950 . S
C502 C501 1.398 1_545 S
C502 C503 1.391 . S
C503 H491 0.950 . S
C503 C499 1.393 . S
C503 C502 1.391 . S
H504 C512 0.950 . S
H505 C517 0.950 . S
H506 C514 0.950 . S
H507 C516 0.950 . S
H508 C518 0.950 . S
H509 C520 0.950 1_545 S
H510 C522 0.950 . S
H511 C523 0.950 . S
C512 H504 0.950 . S
C512 C513 1.386 . S
C512 C514 1.391 . S
C513 C512 1.386 . S
C513 C517 1.393 . S
C514 H506 0.950 . S
C514 C512 1.391 . S
C514 C515 1.400 . S
C515 C514 1.400 . S
C515 C516 1.398 . S
C515 C521 1.491 . S
C516 H507 0.950 . S
C516 C515 1.398 . S
C516 C517 1.391 . S
C517 H505 0.950 . S
C517 C513 1.393 . S
C517 C516 1.391 . S
C518 H508 0.950 . S
C518 C519 1.386 . S
C518 C520 1.391 . S
C519 C518 1.386 . S
C519 C523 1.393 . S
C520 H509 0.950 1_565 S
C520 C518 1.391 . S
C520 C521 1.400 1_565 S
C521 C515 1.491 . S
C521 C520 1.400 1_545 S
C521 C522 1.398 1_545 S
C522 H510 0.950 . S
C522 C521 1.398 1_565 S
C522 C523 1.391 . S
C523 H511 0.950 . S
C523 C519 1.393 . S
C523 C522 1.391 . S
H524 C532 0.950 . S
H525 C537 0.950 . S
H526 C534 0.950 . S
H527 C536 0.950 . S
H528 C538 0.950 . S
H529 C540 0.950 . S
H530 C542 0.950 . S
H531 C543 0.950 . S
C532 H524 0.950 . S
C532 C533 1.386 . S
C532 C534 1.391 . S
C533 C532 1.386 . S
C533 C537 1.393 . S
C534 H526 0.950 . S
C534 C532 1.391 . S
C534 C535 1.400 . S
C535 C534 1.400 . S
C535 C536 1.398 . S
C535 C541 1.491 . S
C536 H527 0.950 . S
C536 C535 1.398 . S
C536 C537 1.391 . S
C537 H525 0.950 . S
C537 C533 1.393 . S
C537 C536 1.391 . S
C538 H528 0.950 . S
C538 C539 1.386 . S
C538 C540 1.391 . S
C539 C538 1.386 . S
C539 C543 1.393 . S
C540 H529 0.950 . S
C540 C538 1.391 . S
C540 C541 1.400 . S
C541 C535 1.491 . S
C541 C540 1.400 . S
C541 C542 1.398 . S
C542 H530 0.950 . S
C542 C541 1.398 . S
C542 C543 1.391 . S
C543 H531 0.950 . S
C543 C539 1.393 . S
C543 C542 1.391 . S
H544 C552 0.950 . S
H545 C557 0.950 . S
H546 C554 0.950 . S
H547 C556 0.950 . S
H548 C558 0.950 . S
H549 C560 0.950 . S
H550 C562 0.950 . S
H551 C563 0.950 . S
C552 H544 0.950 . S
C552 C553 1.386 . S
C552 C554 1.391 . S
C553 C552 1.386 . S
C553 C557 1.393 . S
C554 H546 0.950 . S
C554 C552 1.391 . S
C554 C555 1.400 . S
C555 C554 1.400 . S
C555 C556 1.398 . S
C555 C561 1.491 . S
C556 H547 0.950 . S
C556 C555 1.398 . S
C556 C557 1.391 . S
C557 H545 0.950 . S
C557 C553 1.393 . S
C557 C556 1.391 . S
C558 H548 0.950 . S
C558 C559 1.386 . S
C558 C560 1.391 . S
C559 C558 1.386 . S
C559 C563 1.393 . S
C560 H549 0.950 . S
C560 C558 1.391 . S
C560 C561 1.400 . S
C561 C555 1.491 . S
C561 C560 1.400 . S
C561 C562 1.398 . S
C562 H550 0.950 . S
C562 C561 1.398 . S
C562 C563 1.391 . S
C563 H551 0.950 . S
C563 C559 1.393 . S
C563 C562 1.391 . S
H564 C572 0.950 . S
H565 C577 0.950 . S
H566 C574 0.950 . S
H567 C576 0.950 . S
H568 C578 0.950 . S
H569 C580 0.950 . S
H570 C582 0.950 . S
H571 C583 0.950 . S
C572 H564 0.950 . S
C572 C573 1.386 . S
C572 C574 1.391 . S
C573 C572 1.386 . S
C573 C577 1.393 . S
C574 H566 0.950 . S
C574 C572 1.391 . S
C574 C575 1.400 . S
C575 C574 1.400 . S
C575 C576 1.398 . S
C575 C581 1.491 1_545 S
C576 H567 0.950 . S
C576 C575 1.398 . S
C576 C577 1.391 . S
C577 H565 0.950 . S
C577 C573 1.393 . S
C577 C576 1.391 . S
C578 H568 0.950 . S
C578 C579 1.386 . S
C578 C580 1.391 . S
C579 C578 1.386 . S
C579 C583 1.393 . S
C580 H569 0.950 . S
C580 C578 1.391 . S
C580 C581 1.400 . S
C581 C575 1.491 1_565 S
C581 C580 1.400 . S
C581 C582 1.398 . S
C582 H570 0.950 . S
C582 C581 1.398 . S
C582 C583 1.391 . S
C583 H571 0.950 . S
C583 C579 1.393 . S
C583 C582 1.391 . S
H584 C592 0.950 . S
H585 C597 0.950 . S
H586 C594 0.950 . S
H587 C596 0.950 . S
H588 C598 0.950 . S
H589 C600 0.950 . S
H590 C602 0.950 . S
H591 C603 0.950 . S
C592 H584 0.950 . S
C592 C593 1.386 . S
C592 C594 1.391 1_556 S
C593 C592 1.386 . S
C593 C597 1.393 . S
C594 H586 0.950 . S
C594 C592 1.391 1_554 S
C594 C595 1.400 . S
C595 C594 1.400 . S
C595 C596 1.398 1_554 S
C595 C601 1.491 . S
C596 H587 0.950 . S
C596 C595 1.398 1_556 S
C596 C597 1.391 . S
C597 H585 0.950 . S
C597 C593 1.393 . S
C597 C596 1.391 . S
C598 H588 0.950 . S
C598 C599 1.386 . S
C598 C600 1.391 . S
C599 C598 1.386 . S
C599 C603 1.393 . S
C600 H589 0.950 . S
C600 C598 1.391 . S
C600 C601 1.400 . S
C601 C595 1.491 . S
C601 C600 1.400 . S
C601 C602 1.398 . S
C602 H590 0.950 . S
C602 C601 1.398 . S
C602 C603 1.391 . S
C603 H591 0.950 . S
C603 C599 1.393 . S
C603 C602 1.391 . S
H604 C612 0.950 . S
H605 C617 0.950 . S
H606 C614 0.950 . S
H607 C616 0.950 . S
H608 C618 0.950 . S
H609 C620 0.950 . S
H610 C622 0.950 . S
H611 C623 0.950 . S
C612 H604 0.950 . S
C612 C613 1.386 . S
C612 C614 1.391 . S
C613 C612 1.386 . S
C613 C617 1.393 . S
C614 H606 0.950 . S
C614 C612 1.391 . S
C614 C615 1.400 . S
C615 C614 1.400 . S
C615 C616 1.398 . S
C615 C621 1.491 . S
C616 H607 0.950 . S
C616 C615 1.398 . S
C616 C617 1.391 . S
C617 H605 0.950 . S
C617 C613 1.393 . S
C617 C616 1.391 . S
C618 H608 0.950 . S
C618 C619 1.386 . S
C618 C620 1.391 . S
C619 C618 1.386 . S
C619 C623 1.393 . S
C620 H609 0.950 . S
C620 C618 1.391 . S
C620 C621 1.400 . S
C621 C615 1.491 . S
C621 C620 1.400 . S
C621 C622 1.398 . S
C622 H610 0.950 . S
C622 C621 1.398 . S
C622 C623 1.391 . S
C623 H611 0.950 . S
C623 C619 1.393 . S
C623 C622 1.391 . S
H624 C632 0.950 . S
H625 C637 0.950 . S
H626 C634 0.950 . S
H627 C636 0.950 . S
H628 C638 0.950 . S
H629 C640 0.950 . S
H630 C642 0.950 . S
H631 C643 0.950 . S
C632 H624 0.950 . S
C632 C633 1.386 . S
C632 C634 1.391 1_554 S
C633 C632 1.386 . S
C633 C637 1.393 . S
C634 H626 0.950 . S
C634 C632 1.391 1_556 S
C634 C635 1.400 . S
C635 C634 1.400 . S
C635 C636 1.398 1_556 S
C635 C641 1.491 . S
C636 H627 0.950 . S
C636 C635 1.398 1_554 S
C636 C637 1.391 . S
C637 H625 0.950 . S
C637 C633 1.393 . S
C637 C636 1.391 . S
C638 H628 0.950 . S
C638 C639 1.386 . S
C638 C640 1.391 . S
C639 C638 1.386 . S
C639 C643 1.393 . S
C640 H629 0.950 . S
C640 C638 1.391 . S
C640 C641 1.400 . S
C641 C635 1.491 . S
C641 C640 1.400 . S
C641 C642 1.398 . S
C642 H630 0.950 . S
C642 C641 1.398 . S
C642 C643 1.391 . S
C643 H631 0.950 . S
C643 C639 1.393 . S
C643 C642 1.391 . S
H644 C652 0.950 . S
H645 C657 0.950 . S
H646 C654 0.950 . S
H647 C656 0.950 . S
H648 C658 0.950 . S
H649 C660 0.950 . S
H650 C662 0.950 . S
H651 C663 0.950 . S
C652 H644 0.950 . S
C652 C653 1.386 . S
C652 C654 1.391 . S
C653 C652 1.386 . S
C653 C657 1.393 . S
C654 H646 0.950 . S
C654 C652 1.391 . S
C654 C655 1.400 . S
C655 C654 1.400 . S
C655 C656 1.398 . S
C655 C661 1.491 . S
C656 H647 0.950 . S
C656 C655 1.398 . S
C656 C657 1.391 . S
C657 H645 0.950 . S
C657 C653 1.393 . S
C657 C656 1.391 . S
C658 H648 0.950 . S
C658 C659 1.386 . S
C658 C660 1.391 . S
C659 C658 1.386 . S
C659 C663 1.393 . S
C660 H649 0.950 . S
C660 C658 1.391 . S
C660 C661 1.400 . S
C661 C655 1.491 . S
C661 C660 1.400 . S
C661 C662 1.398 . S
C662 H650 0.950 . S
C662 C661 1.398 . S
C662 C663 1.391 . S
C663 H651 0.950 . S
C663 C659 1.393 . S
C663 C662 1.391 . S
H664 C672 0.950 . S
H665 C677 0.950 . S
H666 C674 0.950 . S
H667 C676 0.950 . S
H668 C678 0.950 . S
H669 C680 0.950 . S
H670 C682 0.950 . S
H671 C683 0.950 . S
C672 H664 0.950 . S
C672 C673 1.386 . S
C672 C674 1.391 1_554 S
C673 C672 1.386 . S
C673 C677 1.393 . S
C674 H666 0.950 . S
C674 C672 1.391 1_556 S
C674 C675 1.400 . S
C675 C674 1.400 . S
C675 C676 1.398 . S
C675 C681 1.491 . S
C676 H667 0.950 . S
C676 C675 1.398 . S
C676 C677 1.391 1_556 S
C677 H665 0.950 . S
C677 C673 1.393 . S
C677 C676 1.391 1_554 S
C678 H668 0.950 . S
C678 C679 1.386 . S
C678 C680 1.391 . S
C679 C678 1.386 . S
C679 C683 1.393 . S
C680 H669 0.950 . S
C680 C678 1.391 . S
C680 C681 1.400 . S
C681 C675 1.491 . S
C681 C680 1.400 . S
C681 C682 1.398 . S
C682 H670 0.950 . S
C682 C681 1.398 . S
C682 C683 1.391 . S
C683 H671 0.950 . S
C683 C679 1.393 . S
C683 C682 1.391 . S
H684 C692 0.950 . S
H685 C697 0.950 . S
H686 C694 0.950 . S
H687 C696 0.950 . S
H688 C698 0.950 . S
H689 C700 0.950 . S
H690 C702 0.950 . S
H691 C703 0.950 . S
C692 H684 0.950 . S
C692 C693 1.386 . S
C692 C694 1.391 . S
C693 C692 1.386 . S
C693 C697 1.393 . S
C694 H686 0.950 . S
C694 C692 1.391 . S
C694 C695 1.400 . S
C695 C694 1.400 . S
C695 C696 1.398 . S
C695 C701 1.491 . S
C696 H687 0.950 . S
C696 C695 1.398 . S
C696 C697 1.391 . S
C697 H685 0.950 . S
C697 C693 1.393 . S
C697 C696 1.391 . S
C698 H688 0.950 . S
C698 C699 1.386 . S
C698 C700 1.391 . S
C699 C698 1.386 . S
C699 C703 1.393 . S
C700 H689 0.950 . S
C700 C698 1.391 . S
C700 C701 1.400 . S
C701 C695 1.491 . S
C701 C700 1.400 . S
C701 C702 1.398 . S
C702 H690 0.950 . S
C702 C701 1.398 . S
C702 C703 1.391 . S
C703 H691 0.950 . S
C703 C699 1.393 . S
C703 C702 1.391 . S
H704 C712 0.950 . S
H705 C717 0.950 . S
H706 C714 0.950 . S
H707 C716 0.950 . S
H708 C718 0.950 . S
H709 C720 0.950 . S
H710 C722 0.950 . S
H711 C723 0.950 . S
C712 H704 0.950 . S
C712 C713 1.386 . S
C712 C714 1.391 1_556 S
C713 C712 1.386 . S
C713 C717 1.393 . S
C714 H706 0.950 . S
C714 C712 1.391 1_554 S
C714 C715 1.400 . S
C715 C714 1.400 . S
C715 C716 1.398 . S
C715 C721 1.491 . S
C716 H707 0.950 . S
C716 C715 1.398 . S
C716 C717 1.391 1_554 S
C717 H705 0.950 . S
C717 C713 1.393 . S
C717 C716 1.391 1_556 S
C718 H708 0.950 . S
C718 C719 1.386 . S
C718 C720 1.391 . S
C719 C718 1.386 . S
C719 C723 1.393 . S
C720 H709 0.950 . S
C720 C718 1.391 . S
C720 C721 1.400 . S
C721 C715 1.491 . S
C721 C720 1.400 . S
C721 C722 1.398 . S
C722 H710 0.950 . S
C722 C721 1.398 . S
C722 C723 1.391 . S
C723 H711 0.950 . S
C723 C719 1.393 . S
C723 C722 1.391 . S
H724 C732 0.950 . S
H725 C737 0.950 . S
H726 C734 0.950 . S
H727 C736 0.950 . S
H728 C738 0.950 . S
H729 C740 0.950 . S
H730 C742 0.950 . S
H731 C743 0.950 . S
C732 H724 0.950 . S
C732 C733 1.386 . S
C732 C734 1.391 . S
C733 C732 1.386 . S
C733 C737 1.393 . S
C734 H726 0.950 . S
C734 C732 1.391 . S
C734 C735 1.400 . S
C735 C734 1.400 . S
C735 C736 1.398 . S
C735 C741 1.491 . S
C736 H727 0.950 . S
C736 C735 1.398 . S
C736 C737 1.391 . S
C737 H725 0.950 . S
C737 C733 1.393 . S
C737 C736 1.391 . S
C738 H728 0.950 . S
C738 C739 1.386 . S
C738 C740 1.391 . S
C739 C738 1.386 . S
C739 C743 1.393 . S
C740 H729 0.950 . S
C740 C738 1.391 . S
C740 C741 1.400 . S
C741 C735 1.491 . S
C741 C740 1.400 . S
C741 C742 1.398 . S
C742 H730 0.950 . S
C742 C741 1.398 . S
C742 C743 1.391 . S
C743 H731 0.950 . S
C743 C739 1.393 . S
C743 C742 1.391 . S
H744 C752 0.950 . S
H745 C757 0.950 . S
H746 C754 0.950 . S
H747 C756 0.950 . S
H748 C758 0.950 . S
H749 C760 0.950 . S
H750 C762 0.950 . S
H751 C763 0.950 . S
C752 H744 0.950 . S
C752 C753 1.386 . S
C752 C754 1.391 . S
C753 C752 1.386 . S
C753 C757 1.393 . S
C754 H746 0.950 . S
C754 C752 1.391 . S
C754 C755 1.400 . S
C755 C754 1.400 . S
C755 C756 1.398 . S
C755 C761 1.491 . S
C756 H747 0.950 . S
C756 C755 1.398 . S
C756 C757 1.391 . S
C757 H745 0.950 . S
C757 C753 1.393 . S
C757 C756 1.391 . S
C758 H748 0.950 . S
C758 C759 1.386 . S
C758 C760 1.391 . S
C759 C758 1.386 . S
C759 C763 1.393 . S
C760 H749 0.950 . S
C760 C758 1.391 . S
C760 C761 1.400 . S
C761 C755 1.491 . S
C761 C760 1.400 . S
C761 C762 1.398 . S
C762 H750 0.950 . S
C762 C761 1.398 . S
C762 C763 1.391 . S
C763 H751 0.950 . S
C763 C759 1.393 . S
C763 C762 1.391 . S
H764 C772 0.950 . S
H765 C777 0.950 . S
H766 C774 0.950 . S
H767 C776 0.950 . S
H768 C778 0.950 . S
H769 C780 0.950 . S
H770 C782 0.950 . S
H771 C783 0.950 . S
C772 H764 0.950 . S
C772 C773 1.386 . S
C772 C774 1.391 . S
C773 C772 1.386 . S
C773 C777 1.393 . S
C774 H766 0.950 . S
C774 C772 1.391 . S
C774 C775 1.400 . S
C775 C774 1.400 . S
C775 C776 1.398 . S
C775 C781 1.491 . S
C776 H767 0.950 . S
C776 C775 1.398 . S
C776 C777 1.391 . S
C777 H765 0.950 . S
C777 C773 1.393 . S
C777 C776 1.391 . S
C778 H768 0.950 . S
C778 C779 1.386 . S
C778 C780 1.391 . S
C779 C778 1.386 . S
C779 C783 1.393 . S
C780 H769 0.950 . S
C780 C778 1.391 . S
C780 C781 1.400 . S
C781 C775 1.491 . S
C781 C780 1.400 . S
C781 C782 1.398 . S
C782 H770 0.950 . S
C782 C781 1.398 . S
C782 C783 1.391 . S
C783 H771 0.950 . S
C783 C779 1.393 . S
C783 C782 1.391 . S
H784 C792 0.950 . S
H785 C797 0.950 . S
H786 C794 0.950 . S
H787 C796 0.950 . S
H788 C798 0.950 . S
H789 C800 0.950 . S
H790 C802 0.950 . S
H791 C803 0.950 . S
C792 H784 0.950 . S
C792 C793 1.386 . S
C792 C794 1.391 . S
C793 C792 1.386 . S
C793 C797 1.393 . S
C794 H786 0.950 . S
C794 C792 1.391 . S
C794 C795 1.400 . S
C795 C794 1.400 . S
C795 C796 1.398 . S
C795 C801 1.491 . S
C796 H787 0.950 . S
C796 C795 1.398 . S
C796 C797 1.391 . S
C797 H785 0.950 . S
C797 C793 1.393 . S
C797 C796 1.391 . S
C798 H788 0.950 . S
C798 C799 1.386 . S
C798 C800 1.391 . S
C799 C798 1.386 . S
C799 C803 1.393 . S
C800 H789 0.950 . S
C800 C798 1.391 . S
C800 C801 1.400 . S
C801 C795 1.491 . S
C801 C800 1.400 . S
C801 C802 1.398 . S
C802 H790 0.950 . S
C802 C801 1.398 . S
C802 C803 1.391 . S
C803 H791 0.950 . S
C803 C799 1.393 . S
C803 C802 1.391 . S
H804 C812 0.950 . S
H805 C817 0.950 . S
H806 C814 0.950 . S
H807 C816 0.950 . S
H808 C818 0.950 1_455 S
H809 C820 0.950 . S
H810 C822 0.950 . S
H811 C823 0.950 . S
C812 H804 0.950 . S
C812 C813 1.386 . S
C812 C814 1.391 . S
C813 C812 1.386 . S
C813 C817 1.393 . S
C814 H806 0.950 . S
C814 C812 1.391 . S
C814 C815 1.400 . S
C815 C814 1.400 . S
C815 C816 1.398 . S
C815 C821 1.491 . S
C816 H807 0.950 . S
C816 C815 1.398 . S
C816 C817 1.391 . S
C817 H805 0.950 . S
C817 C813 1.393 . S
C817 C816 1.391 . S
C818 H808 0.950 1_655 S
C818 C819 1.386 . S
C818 C820 1.391 . S
C819 C818 1.386 . S
C819 C823 1.393 . S
C820 H809 0.950 . S
C820 C818 1.391 . S
C820 C821 1.400 . S
C821 C815 1.491 . S
C821 C820 1.400 . S
C821 C822 1.398 . S
C822 H810 0.950 . S
C822 C821 1.398 . S
C822 C823 1.391 . S
C823 H811 0.950 . S
C823 C819 1.393 . S
C823 C822 1.391 . S
H824 C832 0.950 . S
H825 C837 0.950 . S
H826 C834 0.950 . S
H827 C836 0.950 . S
H828 C838 0.950 . S
H829 C840 0.950 . S
H830 C842 0.950 . S
H831 C843 0.950 . S
C832 H824 0.950 . S
C832 C833 1.386 . S
C832 C834 1.391 . S
C833 C832 1.386 . S
C833 C837 1.393 . S
C834 H826 0.950 . S
C834 C832 1.391 . S
C834 C835 1.400 . S
C835 C834 1.400 . S
C835 C836 1.398 . S
C835 C841 1.491 . S
C836 H827 0.950 . S
C836 C835 1.398 . S
C836 C837 1.391 . S
C837 H825 0.950 . S
C837 C833 1.393 . S
C837 C836 1.391 . S
C838 H828 0.950 . S
C838 C839 1.386 . S
C838 C840 1.391 . S
C839 C838 1.386 . S
C839 C843 1.393 . S
C840 H829 0.950 . S
C840 C838 1.391 . S
C840 C841 1.400 . S
C841 C835 1.491 . S
C841 C840 1.400 . S
C841 C842 1.398 . S
C842 H830 0.950 . S
C842 C841 1.398 . S
C842 C843 1.391 . S
C843 H831 0.950 . S
C843 C839 1.393 . S
C843 C842 1.391 . S
H844 C852 0.950 . S
H845 C857 0.950 . S
H846 C854 0.950 . S
H847 C856 0.950 . S
H848 C858 0.950 . S
H849 C860 0.950 . S
H850 C862 0.950 . S
H851 C863 0.950 . S
C852 H844 0.950 . S
C852 C853 1.386 . S
C852 C854 1.391 . S
C853 C852 1.386 . S
C853 C857 1.393 . S
C854 H846 0.950 . S
C854 C852 1.391 . S
C854 C855 1.400 . S
C855 C854 1.400 . S
C855 C856 1.398 . S
C855 C861 1.491 . S
C856 H847 0.950 . S
C856 C855 1.398 . S
C856 C857 1.391 . S
C857 H845 0.950 . S
C857 C853 1.393 . S
C857 C856 1.391 . S
C858 H848 0.950 . S
C858 C859 1.386 . S
C858 C860 1.391 . S
C859 C858 1.386 . S
C859 C863 1.393 . S
C860 H849 0.950 . S
C860 C858 1.391 . S
C860 C861 1.400 . S
C861 C855 1.491 . S
C861 C860 1.400 . S
C861 C862 1.398 . S
C862 H850 0.950 . S
C862 C861 1.398 . S
C862 C863 1.391 . S
C863 H851 0.950 . S
C863 C859 1.393 . S
C863 C862 1.391 . S
H864 C872 0.950 . S
H865 C877 0.950 . S
H866 C874 0.950 . S
H867 C876 0.950 . S
H868 C878 0.950 . S
H869 C880 0.950 . S
H870 C882 0.950 . S
H871 C883 0.950 . S
C872 H864 0.950 . S
C872 C873 1.386 . S
C872 C874 1.391 . S
C873 C872 1.386 . S
C873 C877 1.393 . S
C874 H866 0.950 . S
C874 C872 1.391 . S
C874 C875 1.400 . S
C875 C874 1.400 . S
C875 C876 1.398 . S
C875 C881 1.491 . S
C876 H867 0.950 . S
C876 C875 1.398 . S
C876 C877 1.391 . S
C877 H865 0.950 . S
C877 C873 1.393 . S
C877 C876 1.391 . S
C878 H868 0.950 . S
C878 C879 1.386 . S
C878 C880 1.391 . S
C879 C878 1.386 . S
C879 C883 1.393 . S
C880 H869 0.950 . S
C880 C878 1.391 . S
C880 C881 1.400 . S
C881 C875 1.491 . S
C881 C880 1.400 . S
C881 C882 1.398 . S
C882 H870 0.950 . S
C882 C881 1.398 . S
C882 C883 1.391 . S
C883 H871 0.950 . S
C883 C879 1.393 . S
C883 C882 1.391 . S
H884 C892 0.950 . S
H885 C897 0.950 . S
H886 C894 0.950 . S
H887 C896 0.950 . S
H888 C898 0.950 . S
H889 C900 0.950 . S
H890 C902 0.950 . S
H891 C903 0.950 . S
C892 H884 0.950 . S
C892 C893 1.386 . S
C892 C894 1.391 . S
C893 C892 1.386 . S
C893 C897 1.393 . S
C894 H886 0.950 . S
C894 C892 1.391 . S
C894 C895 1.400 . S
C895 C894 1.400 . S
C895 C896 1.398 . S
C895 C901 1.491 . S
C896 H887 0.950 . S
C896 C895 1.398 . S
C896 C897 1.391 . S
C897 H885 0.950 . S
C897 C893 1.393 . S
C897 C896 1.391 . S
C898 H888 0.950 . S
C898 C899 1.386 . S
C898 C900 1.391 . S
C899 C898 1.386 . S
C899 C903 1.393 . S
C900 H889 0.950 . S
C900 C898 1.391 . S
C900 C901 1.400 . S
C901 C895 1.491 . S
C901 C900 1.400 . S
C901 C902 1.398 . S
C902 H890 0.950 . S
C902 C901 1.398 . S
C902 C903 1.391 . S
C903 H891 0.950 . S
C903 C899 1.393 . S
C903 C902 1.391 . S
C433 C73 1.615 . S
C439 C162 1.640 . S
C459 C246 1.754 . S
C453 C84 1.734 . S
C479 C239 1.645 . S
C473 C51 1.611 . S
C493 C62 1.725 . S
C499 C155 1.767 . S
C519 C319 1.652 . S
C513 C29 1.579 . S
C539 C403 1.593 . S
C533 C38 1.459 . S
C553 C7 1.590 . S
C559 C396 1.656 . S
C573 C16 1.499 . S
C579 C312 1.583 . S
C599 C146 1.481 . S
C593 C18 1.658 . S
C619 C230 1.495 . S
C613 C5 1.401 . S
C639 C241 1.476 . S
C633 C40 1.660 . S
C659 C157 1.463 . S
C653 C27 1.446 . S
C679 C325 1.346 . S
C673 C60 1.345 . S
C693 C49 1.387 . S
C699 C409 1.346 . S
C719 C398 1.313 . S
C713 C82 1.374 . S
C733 C71 1.346 . S
C739 C314 1.351 . S
C759 C144 1.661 . S
C753 C8 1.644 . S
C779 C228 1.558 . S
C773 C19 1.551 . S
C793 C30 1.632 . S
C799 C235 1.640 . S
C819 C151 1.528 . S
C813 C41 1.551 . S
C839 C323 1.423 . S
C833 C52 1.420 . S
C853 C63 1.551 . S
C859 C407 1.550 . S
C873 C74 1.414 . S
C879 C414 1.398 . S
C893 C85 1.543 . S
C899 C330 1.502 . S
