# Generated by pormake.
# Topology ftw, (4,12)-cn, num edge types: 1
# Building blocks:
#     Node 0, Type 0, BuildingBlock: ESEHIV_clean_sbu_0, # of connection points: 4
#     Node 1, Type 0, BuildingBlock: ESEHIV_clean_sbu_0, # of connection points: 4
#     Node 2, Type 0, BuildingBlock: ESEHIV_clean_sbu_0, # of connection points: 4
#     Node 3, Type 1, BuildingBlock: QEWDON_clean_sbu_0, # of connection points: 12
#     Edge 4, Type (0, 1), BuildingBlock: MIFKUJ_clean_linker_0, # of connection points: 2
#     Edge 5, Type (0, 1), BuildingBlock: MIFKUJ_clean_linker_0, # of connection points: 2
#     Edge 6, Type (0, 1), BuildingBlock: MIFKUJ_clean_linker_0, # of connection points: 2
#     Edge 7, Type (0, 1), BuildingBlock: MIFKUJ_clean_linker_0, # of connection points: 2
#     Edge 8, Type (0, 1), BuildingBlock: MIFKUJ_clean_linker_0, # of connection points: 2
#     Edge 9, Type (0, 1), BuildingBlock: MIFKUJ_clean_linker_0, # of connection points: 2
#     Edge 10, Type (0, 1), BuildingBlock: MIFKUJ_clean_linker_0, # of connection points: 2
#     Edge 11, Type (0, 1), BuildingBlock: MIFKUJ_clean_linker_0, # of connection points: 2
#     Edge 12, Type (0, 1), BuildingBlock: MIFKUJ_clean_linker_0, # of connection points: 2
#     Edge 13, Type (0, 1), BuildingBlock: MIFKUJ_clean_linker_0, # of connection points: 2
#     Edge 14, Type (0, 1), BuildingBlock: MIFKUJ_clean_linker_0, # of connection points: 2
#     Edge 15, Type (0, 1), BuildingBlock: MIFKUJ_clean_linker_0, # of connection points: 2
# Relax obj value: 0.056
# Max RMSD: 0.169
# Mean RMSD: 0.145
data_MOF--net-ftw--node1-ESEHIV_clean_sbu_0--node2-QEWDON_clean_sbu_0--edge1-MIFKUJ_clean_linker_0
_symmetry_space_group_name_H-M    P1
_symmetry_Int_Tables_number       1
_symmetry_cell_setting            triclinic
loop_
_symmetry_equiv_pos_as_xyz
'x, y, z'
_cell_length_a     32.023997
_cell_length_b     30.96203
_cell_length_c     31.183322
_cell_angle_alpha  87.385912
_cell_angle_beta   87.135314
_cell_angle_gamma 92.446622
loop_
_atom_site_label
_atom_site_type_symbol
_atom_site_fract_x
_atom_site_fract_y
_atom_site_fract_z
_atom_type_partial_charge
Cu0 Cu 0.97904 0.50748 0.49588 0.0
N1 N 0.95277 0.46737 0.46194 0.0
N2 N 0.9473 0.41605 0.41392 0.0
C3 C 0.97336 0.43963 0.43746 0.0
C4 C 0.90868 0.42973 0.42423 0.0
C5 C 0.91218 0.46148 0.45369 0.0
O6 O 0.01759 0.47636 0.53127 0.0
C7 C 0.97541 0.58005 0.44309 0.0
O8 O 0.93607 0.5732 0.4566 0.0
H9 H 0.00707 0.43801 0.43603 0.0
H10 H 0.88705 0.47959 0.46728 0.0
N11 N 0.94328 0.53254 0.53618 0.0
N12 N 0.92803 0.57413 0.59112 0.0
C13 C 0.95636 0.56543 0.55958 0.0
C14 C 0.90505 0.51984 0.55336 0.0
C15 C 0.89559 0.54547 0.5874 0.0
C16 C 0.99803 0.44745 0.55595 0.0
O17 O 0.95781 0.44009 0.55156 0.0
H18 H 0.98738 0.58079 0.55518 0.0
H19 H 0.88639 0.49247 0.54353 0.0
O20 O 1.00247 0.5543 0.45662 0.0
H21 H 0.87982 0.41797 0.41132 0.0
H22 H 0.86766 0.54233 0.60853 0.0
Cu23 Cu 0.51001 0.97694 0.47683 0.0
N24 N 0.5285 0.93738 0.51766 0.0
N25 N 0.565 0.91301 0.57229 0.0
C26 C 0.56258 0.94376 0.5405 0.0
C27 C 0.53103 0.88616 0.56917 0.0
C28 C 0.50851 0.90136 0.53549 0.0
O29 O 0.5603 0.00279 0.4463 0.0
C30 C 0.4385 0.00195 0.52161 0.0
O31 O 0.42462 0.9646 0.50834 0.0
H32 H 0.58375 0.97194 0.53549 0.0
H33 H 0.47873 0.88822 0.52594 0.0
N34 N 0.47773 0.94875 0.4372 0.0
N35 N 0.42953 0.93679 0.38914 0.0
C36 C 0.44886 0.96646 0.41269 0.0
C37 C 0.47704 0.90657 0.42847 0.0
C38 C 0.44719 0.89904 0.39898 0.0
C39 C 0.56121 0.02525 0.411 0.0
O40 O 0.52592 0.0374 0.39554 0.0
H41 H 0.44129 0.00018 0.4132 0.0
H42 H 0.4966 0.88287 0.44286 0.0
O43 O 0.47562 0.0158 0.50986 0.0
H44 H 0.52245 0.8582 0.59037 0.0
H45 H 0.43928 0.86826 0.38564 0.0
Cu46 Cu 0.50869 0.50381 0.13947 0.0
N47 N 0.49653 0.5499 0.1735 0.0
N48 N 0.47266 0.61477 0.18703 0.0
C49 C 0.48172 0.58649 0.15676 0.0
C50 C 0.48224 0.59515 0.22462 0.0
C51 C 0.4974 0.55505 0.21608 0.0
O52 O 0.46071 0.49241 0.10527 0.0
C53 C 0.59327 0.52027 0.12801 0.0
O54 O 0.58969 0.50762 0.16888 0.0
H55 H 0.47586 0.59131 0.12302 0.0
H56 H 0.50747 0.53121 0.2393 0.0
N57 N 0.51697 0.45204 0.16989 0.0
N58 N 0.53771 0.38445 0.17834 0.0
C59 C 0.53636 0.41956 0.15144 0.0
C60 C 0.50516 0.43708 0.21007 0.0
C61 C 0.51836 0.39528 0.21554 0.0
C62 C 0.42576 0.48833 0.12681 0.0
O63 O 0.42523 0.49399 0.16833 0.0
H64 H 0.5498 0.42211 0.11883 0.0
H65 H 0.48782 0.45492 0.23347 0.0
O66 O 0.56041 0.52072 0.1066 0.0
H67 H 0.47805 0.60851 0.25594 0.0
H68 H 0.51358 0.37438 0.2443 0.0
Zn69 Zn 0.1054 0.12281 0.94391 0.0
Zn70 Zn 0.07557 0.10597 0.04542 0.0
O71 O 0.08426 0.07654 0.98945 0.0
H72 H 0.07557 0.04706 0.98419 0.0
C73 C 0.98027 0.14869 0.89846 0.0
O74 O 1.00119 0.11398 0.9069 0.0
Zn75 Zn 0.94494 0.91096 0.05794 0.0
Zn76 Zn 0.92668 0.90861 0.95653 0.0
O77 O 0.93699 0.94863 1.00494 0.0
H78 H 0.94781 0.97816 1.00046 0.0
Zn79 Zn 0.91535 0.10663 0.96165 0.0
O80 O 0.95029 0.0661 0.99731 0.0
Zn81 Zn 0.92107 0.06106 0.05573 0.0
H82 H 0.97847 0.05791 0.99008 0.0
Zn83 Zn 0.11927 0.90621 0.96409 0.0
O84 O 0.07778 0.9426 0.9959 0.0
H85 H 0.05172 0.95286 0.9859 0.0
Zn86 Zn 0.09991 0.94942 0.05387 0.0
C87 C 0.06607 0.83938 0.92642 0.0
O88 O 0.04919 0.83637 0.96579 0.0
O89 O 0.11757 0.18145 0.9701 0.0
O90 O 0.09516 0.17 0.03866 0.0
O91 O 0.91452 0.84621 0.97942 0.0
O92 O 0.92649 0.84775 0.04913 0.0
O93 O 0.85782 0.12015 0.99084 0.0
O94 O 0.86283 0.08311 0.05302 0.0
C95 C 0.11739 0.03709 0.09102 0.0
O96 O 0.17138 0.89131 0.99811 0.0
O97 O 0.15854 0.92843 0.05656 0.0
O98 O 0.88843 0.92683 0.90738 0.0
C99 C 0.11168 0.19483 1.00789 0.0
O100 O 0.14295 0.10895 0.88944 0.0
C101 C 0.90276 0.97315 0.10883 0.0
O102 O 0.94453 0.1525 0.91735 0.0
C103 C 0.91517 0.82742 0.01652 0.0
O104 O 0.09688 0.86616 0.91753 0.0
C105 C 0.98911 0.11383 0.09142 0.0
O106 O 0.11187 0.07755 0.08863 0.0
O107 O 0.09677 0.01267 0.06712 0.0
C108 C 0.84234 0.10672 0.02777 0.0
O109 O 0.90999 0.93314 0.10741 0.0
O110 O 0.91945 -0.00147 0.07877 0.0
C111 C 0.0284 0.89855 0.09642 0.0
O112 O 0.95072 0.10125 0.09381 0.0
O113 O 0.01413 0.09699 0.06457 0.0
C114 C 0.18182 0.90441 0.03447 0.0
O115 O 0.06718 0.90871 0.09612 0.0
O116 O 0.00588 0.91791 0.06991 0.0
C117 C 0.85015 0.91414 0.91272 0.0
O118 O 0.83745 0.89323 0.94897 0.0
C119 C 0.17112 0.08119 0.89024 0.0
O120 O 0.17604 0.0586 0.92619 0.0
H121 H 0.01925 0.37203 0.40817 0.0
H122 H 0.03873 0.32017 0.35471 0.0
H123 H 0.92097 0.33581 0.29594 0.0
H124 H 0.90154 0.38821 0.34846 0.0
H125 H 0.93848 0.25097 0.30827 0.0
H126 H 0.01126 0.38349 0.25162 0.0
H127 H 0.06112 0.44622 0.25352 0.0
H128 H 0.16182 0.3609 0.27078 0.0
H129 H 0.1124 0.29763 0.26967 0.0
H130 H 0.94695 0.18539 0.10302 0.0
H131 H 0.95393 0.23563 0.16022 0.0
H132 H 0.0644 0.17318 0.20003 0.0
H133 H 0.05734 0.12198 0.14199 0.0
H134 H 0.06149 0.27307 0.20505 0.0
H135 H 0.98995 0.14027 0.25396 0.0
H136 H 0.94009 0.07769 0.2512 0.0
H137 H 0.8377 0.16265 0.24954 0.0
H138 H 0.88706 0.22596 0.25145 0.0
C139 C 0.99758 0.36491 0.38366 0.0
C140 C 0.95871 0.38465 0.38284 0.0
C141 C 0.00882 0.33509 0.35313 0.0
C142 C 0.98144 0.32427 0.32114 0.0
C143 C 0.94258 0.34356 0.32041 0.0
C144 C 0.9314 0.37347 0.35073 0.0
C145 C 0.99248 0.2923 0.28871 0.0
C146 C 0.96536 0.2559 0.28571 0.0
C147 C 0.02845 0.2978 0.26022 0.0
C148 C 0.05804 0.33585 0.26118 0.0
C149 C 0.04395 0.37811 0.2563 0.0
C150 C 0.07215 0.41376 0.25714 0.0
C151 C 0.11458 0.40756 0.26244 0.0
C152 C 0.12893 0.36567 0.26681 0.0
C153 C 0.10084 0.3299 0.26609 0.0
C154 C 0.97349 0.18306 0.12313 0.0
C155 C 1.00149 0.1497 0.11832 0.0
C156 C 0.97738 0.21176 0.15584 0.0
C157 C 0.00922 0.20765 0.18472 0.0
C158 C 0.03956 0.17674 0.17798 0.0
C159 C 0.03567 0.14772 0.1448 0.0
C160 C 0.00682 0.23265 0.22413 0.0
C161 C 0.03527 0.26769 0.22835 0.0
C162 C 0.97218 0.22587 0.25406 0.0
C163 C 0.9423 0.18794 0.25245 0.0
C164 C 0.95687 0.14571 0.25246 0.0
C165 C 0.92869 0.1101 0.25115 0.0
C166 C 0.88579 0.11625 0.25019 0.0
C167 C 0.87097 0.15802 0.25027 0.0
C168 C 0.89903 0.19377 0.25149 0.0
H169 H 0.86402 0.08863 0.24967 0.0
H170 H 0.13637 0.4352 0.26303 0.0
H171 H 0.63342 0.98248 0.41981 0.0
H172 H 0.69519 0.98547 0.37086 0.0
H173 H 0.64195 0.0859 0.2931 0.0
H174 H 0.57883 0.08131 0.34105 0.0
H175 H 0.67094 0.03321 0.24258 0.0
H176 H 0.73208 0.10292 0.3573 0.0
H177 H 0.75038 0.11536 0.43174 0.0
H178 H 0.81675 0.99777 0.43576 0.0
H179 H 0.79839 0.98429 0.36153 0.0
H180 H 0.87959 0.05617 0.12659 0.0
H181 H 0.82486 0.0763 0.1794 0.0
H182 H 0.80775 0.94323 0.22505 0.0
H183 H 0.86033 0.9225 0.17163 0.0
H184 H 0.81663 0.02524 0.28836 0.0
H185 H 0.7468 0.95816 0.16912 0.0
H186 H 0.72974 0.95481 0.09324 0.0
H187 H 0.67819 0.08035 0.09729 0.0
H188 H 0.6966 0.08525 0.17282 0.0
C189 C 0.63505 0.00575 0.3927 0.0
C190 C 0.60107 0.03168 0.38442 0.0
C191 C 0.6707 0.00765 0.36471 0.0
C192 C 0.6739 0.03638 0.3283 0.0
C193 C 0.64049 0.06338 0.3208 0.0
C194 C 0.60441 0.06089 0.34839 0.0
C195 C 0.71049 0.03562 0.29651 0.0
C196 C 0.70282 0.03242 0.25272 0.0
C197 C 0.75241 0.03456 0.30921 0.0
C198 C 0.76357 0.04245 0.35391 0.0
C199 C 0.75032 0.07954 0.37415 0.0
C200 C 0.76076 0.08681 0.4163 0.0
C201 C 0.78464 0.05733 0.4385 0.0
C202 C 0.79824 0.02057 0.41854 0.0
C203 C 0.78788 0.01313 0.37639 0.0
C204 C 0.86352 0.03112 0.14708 0.0
C205 C 0.87323 0.98751 0.14333 0.0
C206 C 0.83251 0.04271 0.1774 0.0
C207 C 0.81144 0.01104 0.20504 0.0
C208 C 0.82316 0.96807 0.20349 0.0
C209 C 0.8533 0.95635 0.17275 0.0
C210 C 0.77658 0.02199 0.23522 0.0
C211 C 0.7847 0.02697 0.27853 0.0
C212 C 0.73523 0.02584 0.22191 0.0
C213 C 0.72459 0.02276 0.1763 0.0
C214 C 0.73304 0.98564 0.15357 0.0
C215 C 0.72285 0.98334 0.11063 0.0
C216 C 0.70337 0.01759 0.09027 0.0
C217 C 0.69368 0.05403 0.11295 0.0
C218 C 0.70416 0.05664 0.15578 0.0
H219 H 0.69542 0.01572 0.05706 0.0
H220 H 0.79268 0.06301 0.47113 0.0
H221 H 0.93771 0.65625 0.43626 0.0
H222 H 0.94611 0.71132 0.3777 0.0
H223 H 0.04331 0.6393 0.31712 0.0
H224 H 0.036 0.58455 0.37707 0.0
H225 H 0.06121 0.72459 0.30628 0.0
H226 H 0.93925 0.63171 0.28538 0.0
H227 H 0.87136 0.59454 0.30739 0.0
H228 H 0.81764 0.71696 0.32872 0.0
H229 H 0.88534 0.75483 0.30716 0.0
H230 H 0.05728 0.81865 0.10039 0.0
H231 H 0.04497 0.76384 0.15897 0.0
H232 H 0.95382 0.84329 0.21945 0.0
H233 H 0.96587 0.89829 0.16001 0.0
H234 H 0.93204 0.75558 0.23077 0.0
H235 H 0.05135 0.84908 0.25087 0.0
H236 H 0.11827 0.88826 0.22967 0.0
H237 H 0.1768 0.7677 0.21174 0.0
H238 H 0.10992 0.72772 0.23253 0.0
C239 C 0.96136 0.65246 0.41079 0.0
C240 C 0.98598 0.61596 0.41098 0.0
C241 C 0.96592 0.68383 0.37715 0.0
C242 C 0.99439 0.67884 0.34223 0.0
C243 C 0.02081 0.64365 0.3435 0.0
C244 C 0.01676 0.61246 0.37777 0.0
C245 C 0.99514 0.70941 0.30385 0.0
C246 C 0.0331 0.73085 0.28944 0.0
C247 C 0.95821 0.7187 0.28249 0.0
C248 C 0.91739 0.69604 0.29497 0.0
C249 C 0.913 0.65066 0.29497 0.0
C250 C 0.87456 0.62948 0.30734 0.0
C251 C 0.84025 0.65336 0.31957 0.0
C252 C 0.84427 0.6985 0.31936 0.0
C253 C 0.88264 0.71984 0.30701 0.0
C254 C 0.03366 0.82377 0.12554 0.0
C255 C 0.01229 0.86241 0.12572 0.0
C256 C 0.02691 0.79264 0.15915 0.0
C257 C 0.99928 0.79995 0.19411 0.0
C258 C 0.97547 0.83714 0.19286 0.0
C259 C 0.98204 0.86834 0.1588 0.0
C260 C 0.99812 0.7704 0.23312 0.0
C261 C 0.96014 0.74924 0.24763 0.0
C262 C 0.03498 0.76162 0.25477 0.0
C263 C 0.0755 0.78541 0.24289 0.0
C264 C 0.07841 0.83091 0.24216 0.0
C265 C 0.11636 0.85327 0.23023 0.0
C266 C 0.15177 0.83051 0.21917 0.0
C267 C 0.14932 0.78529 0.22024 0.0
C268 C 0.1114 0.76275 0.23219 0.0
H269 H 0.18111 0.84791 0.2099 0.0
H270 H 0.81051 0.63691 0.3291 0.0
H271 H 0.3663 0.88011 0.37233 0.0
H272 H 0.31015 0.89217 0.32333 0.0
H273 H 0.36179 0.02126 0.29119 0.0
H274 H 0.41742 0.00958 0.34085 0.0
H275 H 0.2791 0.02176 0.30255 0.0
H276 H 0.3764 0.93429 0.22365 0.0
H277 H 0.41835 0.86949 0.21941 0.0
H278 H 0.30628 0.78789 0.23376 0.0
H279 H 0.26362 0.85223 0.23823 0.0
H280 H 0.18826 0.07992 0.11205 0.0
H281 H 0.23923 0.05668 0.16277 0.0
H282 H 0.17041 0.93442 0.18564 0.0
H283 H 0.11895 0.95767 0.13442 0.0
H284 H 0.25601 0.92482 0.18267 0.0
H285 H 0.15783 0.01053 0.25603 0.0
H286 H 0.11473 0.07376 0.26612 0.0
H287 H 0.22579 0.15648 0.26642 0.0
H288 H 0.26958 0.09383 0.25563 0.0
C289 C 0.36579 0.91095 0.35462 0.0
C290 C 0.39642 0.94383 0.36028 0.0
C291 C 0.33367 0.91783 0.32662 0.0
C292 C 0.33202 0.95743 0.30302 0.0
C293 C 0.36233 0.99045 0.30903 0.0
C294 C 0.39412 0.98377 0.33742 0.0
C295 C 0.29899 0.96466 0.27186 0.0
C296 C 0.27438 0.00079 0.27611 0.0
C297 C 0.29169 0.93644 0.23819 0.0
C298 C 0.31692 0.898 0.23195 0.0
C299 C 0.36073 0.90251 0.22594 0.0
C300 C 0.38461 0.86589 0.22355 0.0
C301 C 0.365 0.82463 0.22701 0.0
C302 C 0.3214 0.81989 0.23154 0.0
C303 C 0.29734 0.85642 0.23381 0.0
C304 C 0.18402 0.04792 0.12763 0.0
C305 C 0.14954 0.02056 0.11923 0.0
C306 C 0.21321 0.03469 0.15663 0.0
C307 C 0.20823 0.99408 0.17856 0.0
C308 C 0.17471 0.96593 0.16916 0.0
C309 C 0.14546 0.97914 0.13978 0.0
C310 C 0.23699 0.98253 0.2128 0.0
C311 C 0.26061 0.94559 0.20923 0.0
C312 C 0.24318 0.0098 0.24742 0.0
C313 C 0.21699 0.0475 0.25471 0.0
C314 C 0.17307 0.04224 0.258 0.0
C315 C 0.14851 0.07798 0.26386 0.0
C316 C 0.16751 0.11912 0.26683 0.0
C317 C 0.21112 0.12459 0.26409 0.0
C318 C 0.23583 0.08897 0.25815 0.0
H319 H 0.14843 0.14676 0.27131 0.0
H320 H 0.38363 0.79635 0.22592 0.0
H321 H 0.89734 0.56619 0.67412 0.0
H322 H 0.91558 0.61283 0.73242 0.0
H323 H 0.99202 0.69598 0.64243 0.0
H324 H 0.97392 0.64955 0.58427 0.0
H325 H 0.03449 0.67329 0.71049 0.0
H326 H 0.89821 0.72807 0.68758 0.0
H327 H 0.82167 0.7231 0.68156 0.0
H328 H 0.80591 0.66902 0.81093 0.0
H329 H 0.88241 0.67325 0.81757 0.0
H330 H 0.086 0.84569 0.84001 0.0
H331 H 0.05785 0.80153 0.78443 0.0
H332 H 0.97989 0.72747 0.8806 0.0
H333 H 0.00698 0.77256 0.93633 0.0
H334 H 0.93702 0.74267 0.81207 0.0
H335 H 0.0719 0.68792 0.83602 0.0
H336 H 0.14829 0.69196 0.84323 0.0
H337 H 0.16662 0.74331 0.71308 0.0
H338 H 0.09028 0.74009 0.70525 0.0
C339 C 0.91731 0.5949 0.66664 0.0
C340 C 0.93445 0.60401 0.62461 0.0
C341 C 0.92777 0.62153 0.70001 0.0
C342 C 0.95521 0.65795 0.69184 0.0
C343 C 0.97103 0.66791 0.6496 0.0
C344 C 0.96074 0.64131 0.61638 0.0
C345 C 0.96988 0.68414 0.72744 0.0
C346 C 0.01315 0.68895 0.73232 0.0
C347 C 0.94205 0.70329 0.75693 0.0
C348 C 0.89607 0.70055 0.7529 0.0
C349 C 0.87845 0.71476 0.71461 0.0
C350 C 0.83506 0.71217 0.71112 0.0
C351 C 0.80895 0.69563 0.74579 0.0
C352 C 0.82617 0.68177 0.78408 0.0
C353 C 0.86954 0.6843 0.78773 0.0
C354 C 0.06291 0.81998 0.84941 0.0
C355 C 0.04904 0.81242 0.89269 0.0
C356 C 0.04691 0.79461 0.81757 0.0
C357 C 0.01728 0.76057 0.82835 0.0
C358 C 1.00283 0.75341 0.87147 0.0
C359 C 0.0185 0.77911 0.90333 0.0
C360 C 1.00167 0.73241 0.7946 0.0
C361 C 0.95832 0.727 0.79023 0.0
C362 C 0.02939 0.71237 0.76565 0.0
C363 C 0.07534 0.7141 0.77018 0.0
C364 C 0.09221 0.70034 0.80903 0.0
C365 C 0.1355 0.70244 0.81321 0.0
C366 C 0.16228 0.71798 0.77867 0.0
C367 C 0.14583 0.73132 0.73982 0.0
C368 C 0.10256 0.72932 0.73548 0.0
H369 H 0.19579 0.71959 0.78197 0.0
H370 H 0.77538 0.69366 0.74303 0.0
H371 H 0.4646 0.04654 0.59029 0.0
H372 H 0.42066 0.06578 0.65283 0.0
H373 H 0.31025 0.02417 0.58942 0.0
H374 H 0.35398 0.00343 0.52802 0.0
H375 H 0.35792 0.11596 0.67359 0.0
H376 H 0.24219 0.96924 0.65804 0.0
H377 H 0.24145 0.89703 0.62764 0.0
H378 H 0.37385 0.89126 0.64159 0.0
H379 H 0.37526 0.96313 0.67264 0.0
H380 H 0.17669 0.12986 0.81419 0.0
H381 H 0.22457 0.12174 0.75168 0.0
H382 H 0.27746 0.01249 0.81643 0.0
H383 H 0.22969 0.02029 0.87898 0.0
H384 H 0.26302 0.99546 0.7352 0.0
H385 H 0.33093 0.10858 0.80734 0.0
H386 H 0.3374 0.17813 0.84244 0.0
H387 H 0.31056 0.24616 0.72462 0.0
H388 H 0.30333 0.1769 0.68894 0.0
C389 C 0.4309 0.04254 0.58938 0.0
C390 C 0.41269 0.02317 0.5545 0.0
C391 C 0.40579 0.05339 0.62517 0.0
C392 C 0.36214 0.04535 0.6264 0.0
C393 C 0.34387 0.02958 0.58985 0.0
C394 C 0.36888 0.01803 0.5546 0.0
C395 C 0.33595 0.05005 0.66672 0.0
C396 C 0.33709 0.08967 0.68695 0.0
C397 C 0.30948 0.01541 0.68505 0.0
C398 C 0.30885 0.97173 0.6673 0.0
C399 C 0.27109 0.95245 0.65483 0.0
C400 C 0.27056 0.9116 0.63745 0.0
C401 C 0.3076 0.88963 0.63258 0.0
C402 C 0.34521 0.90836 0.64527 0.0
C403 C 0.34589 0.94916 0.66274 0.0
C404 C 0.19845 0.10403 0.81514 0.0
C405 C 0.19932 0.07574 0.8517 0.0
C406 C 0.226 0.09961 0.77943 0.0
C407 C 0.25496 0.06677 0.77945 0.0
C408 C 0.25549 0.03813 0.81566 0.0
C409 C 0.22815 0.04269 0.85146 0.0
C410 C 0.28415 0.0617 0.74145 0.0
C411 C 0.28367 0.02187 0.72173 0.0
C412 C 0.31187 0.09579 0.72431 0.0
C413 C 0.31617 0.13752 0.74559 0.0
C414 C 0.32604 0.13834 0.78901 0.0
C415 C 0.32992 0.17771 0.80899 0.0
C416 C 0.32428 0.21653 0.78581 0.0
C417 C 0.31485 0.21605 0.74255 0.0
C418 C 0.3109 0.17675 0.72242 0.0
H419 H 0.32731 0.24698 0.80134 0.0
H420 H 0.30713 0.85805 0.61904 0.0
H421 H 0.07207 0.4052 0.55978 0.0
H422 H 0.093 0.35876 0.62084 0.0
H423 H 0.98518 0.39627 0.69661 0.0
H424 H 0.96459 0.44193 0.63644 0.0
H425 H 0.05122 0.38744 0.74627 0.0
H426 H 0.98132 0.30647 0.63617 0.0
H427 H 0.97654 0.28019 0.56297 0.0
H428 H 0.09497 0.22145 0.573 0.0
H429 H 0.10062 0.24789 0.64612 0.0
H430 H 0.94681 0.22591 0.87715 0.0
H431 H 0.97246 0.28001 0.82184 0.0
H432 H 0.07772 0.20271 0.79083 0.0
H433 H 0.05204 0.14791 0.84637 0.0
H434 H 0.03873 0.23093 0.71888 0.0
H435 H 0.09595 0.29602 0.83913 0.0
H436 H 0.09476 0.31922 0.91381 0.0
H437 H 0.99811 0.40671 0.8861 0.0
H438 H 0.99839 0.38377 0.81141 0.0
C439 C 0.05375 0.40431 0.58998 0.0
C440 C 0.01667 0.4268 0.59353 0.0
C441 C 0.0655 0.37768 0.6247 0.0
C442 C 0.0404 0.3737 0.66324 0.0
C443 C 0.00513 0.39878 0.66741 0.0
C444 C 0.99326 0.42474 0.6329 0.0
C445 C 0.04703 0.34031 0.69779 0.0
C446 C 0.04899 0.3532 0.74029 0.0
C447 C 0.04514 0.29557 0.69003 0.0
C448 C 0.04166 0.27961 0.64626 0.0
C449 C 0.00645 0.28821 0.6226 0.0
C450 C 0.00357 0.27326 0.58118 0.0
C451 C 0.03551 0.2493 0.56328 0.0
C452 C 0.07033 0.24012 0.58685 0.0
C453 C 0.07339 0.25509 0.62826 0.0
C454 C 0.9756 0.22042 0.85888 0.0
C455 C 0.99728 0.18247 0.86619 0.0
C456 C 0.9904 0.25158 0.82738 0.0
C457 C 0.02732 0.24572 0.8025 0.0
C458 C 0.04929 0.20801 0.8098 0.0
C459 C 0.03456 0.17677 0.84157 0.0
C460 C 0.04105 0.27816 0.76744 0.0
C461 C 0.04278 0.26506 0.72491 0.0
C462 C 0.04617 0.32271 0.77522 0.0
C463 C 0.04709 0.33801 0.81965 0.0
C464 C 0.0744 0.32017 0.84897 0.0
C465 C 0.07387 0.33325 0.89131 0.0
C466 C 0.0462 0.36422 0.9047 0.0
C467 C 0.01945 0.38265 0.87566 0.0
C468 C 0.01988 0.36972 0.83328 0.0
H469 H 0.04541 0.37391 0.9376 0.0
H470 H 0.03322 0.23774 0.53121 0.0
H471 H 0.6454 0.94452 0.56534 0.0
H472 H 0.69498 0.9472 0.62245 0.0
H473 H 0.60258 0.88237 0.71115 0.0
H474 H 0.5526 0.8804 0.65442 0.0
H475 H 0.64006 0.95248 0.74559 0.0
H476 H 0.6838 0.82824 0.67094 0.0
H477 H 0.70707 0.7881 0.60822 0.0
H478 H 0.81534 0.87459 0.58745 0.0
H479 H 0.79242 0.91561 0.64976 0.0
H480 H 0.76723 0.88952 0.91458 0.0
H481 H 0.7201 0.89323 0.85563 0.0
H482 H 0.81927 0.95426 0.7724 0.0
H483 H 0.86702 0.9501 0.83128 0.0
H484 H 0.7799 0.88973 0.73365 0.0
H485 H 0.73816 0.01224 0.81003 0.0
H486 H 0.71553 0.05212 0.87315 0.0
H487 H 0.60402 0.96987 0.89062 0.0
H488 H 0.62627 0.92906 0.82795 0.0
C489 C 0.63563 0.93088 0.59701 0.0
C490 C 0.59502 0.91224 0.60529 0.0
C491 C 0.66409 0.93216 0.62954 0.0
C492 C 0.65256 0.91477 0.67102 0.0
C493 C 0.61215 0.89593 0.67935 0.0
C494 C 0.58374 0.89446 0.64678 0.0
C495 C 0.68228 0.91708 0.70599 0.0
C496 C 0.67044 0.93831 0.74322 0.0
C497 C 0.72243 0.89975 0.70233 0.0
C498 C 0.73614 0.87528 0.66472 0.0
C499 C 0.71236 0.83895 0.65275 0.0
C500 C 0.72554 0.81598 0.61734 0.0
C501 C 0.7626 0.82886 0.59379 0.0
C502 C 0.78661 0.86469 0.60568 0.0
C503 C 0.77356 0.88779 0.64106 0.0
C504 C 0.77902 0.9041 0.88388 0.0
C505 C 0.82094 0.91952 0.87767 0.0
C506 C 0.75192 0.90636 0.85021 0.0
C507 C 0.76601 0.92437 0.80967 0.0
C508 C 0.80772 0.94027 0.80344 0.0
C509 C 0.83491 0.93802 0.83717 0.0
C510 C 0.73758 0.92484 0.77345 0.0
C511 C 0.74963 0.90415 0.73596 0.0
C512 C 0.69767 0.94277 0.77684 0.0
C513 C 0.68409 0.96734 0.81449 0.0
C514 C 0.70897 0.00242 0.82753 0.0
C515 C 0.69618 0.02524 0.86319 0.0
C516 C 0.65841 0.01347 0.88594 0.0
C517 C 0.63329 0.97892 0.87299 0.0
C518 C 0.64596 0.95597 0.83737 0.0
H519 H 0.64856 0.03118 0.91354 0.0
H520 H 0.77276 0.81102 0.56639 0.0
H521 H 0.34765 0.48064 0.16526 0.0
H522 H 0.28621 0.44258 0.1399 0.0
H523 H 0.35356 0.42121 0.02015 0.0
H524 H 0.41603 0.45901 0.0456 0.0
H525 H 0.25941 0.44252 0.01852 0.0
H526 H 0.3571 0.34473 0.08139 0.0
H527 H 0.4035 0.32158 0.13805 0.0
H528 H 0.2995 0.31433 0.23093 0.0
H529 H 0.25262 0.33822 0.17488 0.0
H530 H 0.15444 0.25315 0.95169 0.0
H531 H 0.19811 0.31513 0.96934 0.0
H532 H 0.1544 0.2976 0.10244 0.0
H533 H 0.11158 0.23405 0.08524 0.0
H534 H 0.23446 0.30049 0.0981 0.0
H535 H 0.13516 0.39309 0.0379 0.0
H536 H 0.087 0.42001 0.98462 0.0
H537 H 0.1891 0.43867 0.89006 0.0
H538 H 0.238 0.41218 0.94298 0.0
C539 C 0.3494 0.46855 0.1332 0.0
C540 C 0.38702 0.47219 0.10771 0.0
C541 C 0.3141 0.44699 0.11872 0.0
C542 C 0.31555 0.42889 0.07838 0.0
C543 C 0.35194 0.43516 0.05139 0.0
C544 C 0.38758 0.45658 0.06603 0.0
C545 C 0.28105 0.3988 0.06733 0.0
C546 C 0.25406 0.41121 0.03542 0.0
C547 C 0.27348 0.3587 0.09049 0.0
C548 C 0.30148 0.34372 0.12407 0.0
C549 C 0.34421 0.33858 0.11398 0.0
C550 C 0.37059 0.32526 0.14596 0.0
C551 C 0.35448 0.31661 0.18809 0.0
C552 C 0.31194 0.32112 0.19829 0.0
C553 C 0.28546 0.33453 0.16643 0.0
C554 C 0.15329 0.26289 0.98464 0.0
C555 C 0.13001 0.23803 0.01719 0.0
C556 C 0.17816 0.29878 0.99464 0.0
C557 C 0.17971 0.31122 0.03727 0.0
C558 C 0.15397 0.28848 0.06933 0.0
C559 C 0.12935 0.25221 0.05942 0.0
C560 C 0.21215 0.34384 0.04901 0.0
C561 C 0.23917 0.33185 0.08117 0.0
C562 C 0.21933 0.38442 0.02629 0.0
C563 C 0.19016 0.40036 0.99431 0.0
C564 C 0.1473 0.40271 1.00567 0.0
C565 C 0.1199 0.418 0.97557 0.0
C566 C 0.13493 0.43081 0.93389 0.0
C567 C 0.17749 0.42869 0.92234 0.0
C568 C 0.20511 0.41376 0.95245 0.0
H569 H 0.11361 0.44248 0.91058 0.0
H570 H 0.37495 0.30631 0.21282 0.0
H571 H 0.41638 0.65089 0.24089 0.0
H572 H 0.37265 0.71145 0.22263 0.0
H573 H 0.43772 0.72836 0.09807 0.0
H574 H 0.48212 0.66889 0.11666 0.0
H575 H 0.41739 0.80526 0.12765 0.0
H576 H 0.34855 0.66588 0.11263 0.0
H577 H 0.32129 0.59274 0.13715 0.0
H578 H 0.23988 0.64723 0.23195 0.0
H579 H 0.26714 0.72068 0.20844 0.0
H580 H 0.25388 0.87768 0.99489 0.0
H581 H 0.31001 0.83932 0.02908 0.0
H582 H 0.24644 0.84927 0.15317 0.0
H583 H 0.19113 0.88854 0.11962 0.0
H584 H 0.26591 0.7636 0.13023 0.0
H585 H 0.32831 0.90387 0.13802 0.0
H586 H 0.3556 0.9767 0.11326 0.0
H587 H 0.4477 0.92125 0.03014 0.0
H588 H 0.42066 0.84789 0.05417 0.0
C589 C 0.42209 0.66833 0.21014 0.0
C590 C 0.45212 0.65471 0.17988 0.0
C591 C 0.39692 0.70269 0.1996 0.0
C592 C 0.40136 0.72375 0.15861 0.0
C593 C 0.43352 0.71237 0.12972 0.0
C594 C 0.45862 0.67815 0.14024 0.0
C595 C 0.37029 0.75465 0.14408 0.0
C596 C 0.38432 0.79607 0.12777 0.0
C597 C 0.32701 0.74289 0.1452 0.0
C598 C 0.31038 0.69875 0.15922 0.0
C599 C 0.32512 0.66224 0.13898 0.0
C600 C 0.30962 0.62073 0.15265 0.0
C601 C 0.279 0.61534 0.1862 0.0
C602 C 0.26371 0.65145 0.20606 0.0
C603 C 0.2792 0.69304 0.1926 0.0
C604 C 0.25246 0.87251 0.02954 0.0
C605 C 0.21841 0.8864 0.05463 0.0
C606 C 0.28446 0.85073 0.04899 0.0
C607 C 0.2823 0.84179 0.09362 0.0
C608 C 0.24877 0.85632 0.11877 0.0
C609 C 0.21738 0.87896 0.09953 0.0
C610 C 0.31307 0.81399 0.11348 0.0
C611 C 0.29895 0.77296 0.13042 0.0
C612 C 0.35613 0.82615 0.11279 0.0
C613 C 0.3722 0.87024 0.09773 0.0
C614 C 0.35415 0.9071 0.11422 0.0
C615 C 0.36965 0.94853 0.10038 0.0
C616 C 0.40332 0.95362 0.07006 0.0
C617 C 0.4216 0.91725 0.05361 0.0
C618 C 0.40623 0.87572 0.06741 0.0
H619 H 0.4153 0.98574 0.05937 0.0
H620 H 0.26701 0.58317 0.19672 0.0
H621 H 0.54587 0.34946 0.10081 0.0
H622 H 0.58911 0.28991 0.08172 0.0
H623 H 0.61722 0.2688 0.21478 0.0
H624 H 0.57506 0.33009 0.23382 0.0
H625 H 0.68622 0.27455 0.1665 0.0
H626 H 0.55828 0.19304 0.16099 0.0
H627 H 0.48565 0.17655 0.14219 0.0
H628 H 0.52416 0.18385 1.00809 0.0
H629 H 0.59694 0.20104 0.02601 0.0
H630 H 0.81245 0.10373 0.11071 0.0
H631 H 0.75314 0.1402 0.14128 0.0
H632 H 0.72221 0.18491 0.01425 0.0
H633 H 0.78258 0.14866 0.98325 0.0
H634 H 0.65161 0.15905 0.06717 0.0
H635 H 0.7792 0.24774 0.07554 0.0
H636 H 0.85153 0.26197 0.09662 0.0
H637 H 0.81165 0.23924 0.22955 0.0
H638 H 0.73937 0.22354 0.20918 0.0
C639 C 0.56102 0.33202 0.1261 0.0
C640 C 0.55764 0.34494 0.16873 0.0
C641 C 0.58529 0.29748 0.11523 0.0
C642 C 0.60626 0.27458 0.14683 0.0
C643 C 0.60125 0.28597 0.18986 0.0
C644 C 0.57698 0.32079 0.20077 0.0
C645 C 0.63688 0.24232 0.13386 0.0
C646 C 0.67835 0.24864 0.14562 0.0
C647 C 0.62687 0.20902 0.10589 0.0
C648 C 0.58309 0.19863 0.09488 0.0
C649 C 0.55124 0.19147 0.12747 0.0
C650 C 0.51003 0.18193 0.11697 0.0
C651 C 0.50029 0.17923 0.07398 0.0
C652 C 0.53175 0.18597 0.04139 0.0
C653 C 0.57301 0.19555 0.0517 0.0
C654 C 0.79263 0.12044 0.08911 0.0
C655 C 0.80239 0.12334 0.04459 0.0
C656 C 0.75878 0.14151 0.1067 0.0
C657 C 0.73347 0.16549 0.08009 0.0
C658 C 0.74145 0.16648 0.03533 0.0
C659 C 0.77593 0.14586 0.01769 0.0
C660 C 0.70069 0.192 0.09929 0.0
C661 C 0.65906 0.18459 0.08861 0.0
C662 C 0.71041 0.22411 0.12859 0.0
C663 C 0.75392 0.23397 0.14079 0.0
C664 C 0.78594 0.24533 0.10924 0.0
C665 C 0.82696 0.2536 0.12106 0.0
C666 C 0.83627 0.25123 0.16438 0.0
C667 C 0.80452 0.24075 0.19598 0.0
C668 C 0.76352 0.2321 0.18431 0.0
H669 H 0.86803 0.2577 0.17346 0.0
H670 H 0.46836 0.17184 0.06591 0.0
H671 H 0.6104 0.56987 0.05334 0.0
H672 H 0.67731 0.60704 0.02993 0.0
H673 H 0.73577 0.54662 0.13753 0.0
H674 H 0.66916 0.51009 0.16137 0.0
H675 H 0.74976 0.63063 0.13581 0.0
H676 H 0.76244 0.52185 0.03352 0.0
H677 H 0.74085 0.4753 0.97574 0.0
H678 H 0.73008 0.58743 0.89149 0.0
H679 H 0.75097 0.63473 0.94896 0.0
H680 H 0.92919 0.7644 0.07875 0.0
H681 H 0.88913 0.69543 0.09281 0.0
H682 H 0.815 0.7246 0.98405 0.0
H683 H 0.85685 0.79089 0.96798 0.0
H684 H 0.8191 0.64397 0.98977 0.0
H685 H 0.7877 0.75099 0.09964 0.0
H686 H 0.81016 0.79798 0.15698 0.0
H687 H 0.8568 0.68813 0.22539 0.0
H688 H 0.83435 0.6407 0.16884 0.0
C689 C 0.63773 0.56385 0.07145 0.0
C690 C 0.6344 0.53747 0.10945 0.0
C691 C 0.67602 0.58497 0.05797 0.0
C692 C 0.71163 0.5796 0.08199 0.0
C693 C 0.70873 0.55141 0.1186 0.0
C694 C 0.67056 0.53057 0.13218 0.0
C695 C 0.75046 0.60689 0.07185 0.0
C696 C 0.76534 0.6329 0.10402 0.0
C697 C 0.77069 0.61023 0.03038 0.0
C698 C 0.758 0.58187 0.99572 0.0
C699 C 0.75512 0.53662 1.0028 0.0
C700 C 0.74307 0.51009 0.97007 0.0
C701 C 0.73402 0.5284 0.93 0.0
C702 C 0.73707 0.57329 0.92255 0.0
C703 C 0.74907 0.59998 0.95519 0.0
C704 C 0.90495 0.75541 0.0574 0.0
C705 C 0.89588 0.78321 0.02257 0.0
C706 C 0.88178 0.71621 0.06561 0.0
C707 C 0.84791 0.70533 0.0404 0.0
C708 C 0.84071 0.73202 1.00418 0.0
C709 C 0.86469 0.7702 0.99511 0.0
C710 C 0.81721 0.66893 0.05323 0.0
C711 C 0.80383 0.64114 0.02168 0.0
C712 C 0.79798 0.66409 0.09518 0.0
C713 C 0.8096 0.69244 0.13002 0.0
C714 C 0.80256 0.73696 0.12711 0.0
C715 C 0.81529 0.76365 0.15948 0.0
C716 C 0.83487 0.74609 0.19494 0.0
C717 C 0.84147 0.70176 0.19819 0.0
C718 C 0.82865 0.67493 0.16607 0.0
H719 H 0.84496 0.76679 0.21985 0.0
H720 H 0.72471 0.50779 0.9047 0.0
loop_
_geom_bond_atom_site_label_1
_geom_bond_atom_site_label_2
_geom_bond_distance
_geom_bond_site_symmetry_2
_ccdc_geom_bond_type
Cu0 N1 1.999 . S
Cu0 O6 1.974 . S
Cu0 N11 1.985 . S
Cu0 O20 1.959 . S
N1 Cu0 1.999 . S
N1 C3 1.263 . S
N1 C5 1.389 . S
N2 C3 1.358 . S
N2 C4 1.400 . S
C3 N1 1.263 . S
C3 N2 1.358 . S
C3 H9 0.930 1_455 S
C4 N2 1.400 . S
C4 C5 1.351 . S
C4 H21 0.930 . S
C5 N1 1.389 . S
C5 C4 1.351 . S
C5 H10 0.930 . S
O6 Cu0 1.974 . S
O6 C16 1.282 1_455 S
C7 O8 1.261 . S
C7 O20 1.251 1_655 S
O8 C7 1.261 . S
H9 C3 0.930 1_655 S
H10 C5 0.930 . S
N11 Cu0 1.985 . S
N11 C13 1.335 . S
N11 C14 1.390 1_455 S
N12 C13 1.345 . S
N12 C15 1.336 1_455 S
C13 N11 1.335 . S
C13 N12 1.345 . S
C13 H18 0.930 . S
C14 N11 1.390 1_655 S
C14 C15 1.346 . S
C14 H19 0.930 . S
C15 N12 1.336 1_655 S
C15 C14 1.346 . S
C15 H22 0.929 . S
C16 O6 1.282 1_655 S
C16 O17 1.216 . S
O17 C16 1.216 . S
H18 C13 0.930 . S
H19 C14 0.930 . S
O20 Cu0 1.959 . S
O20 C7 1.251 1_455 S
H21 C4 0.930 . S
H22 C15 0.929 . S
Cu23 N24 1.999 . S
Cu23 O29 1.974 . S
Cu23 N34 1.985 . S
Cu23 O43 1.959 . S
N24 Cu23 1.999 . S
N24 C26 1.263 . S
N24 C28 1.389 . S
N25 C26 1.358 . S
N25 C27 1.400 . S
C26 N24 1.263 . S
C26 N25 1.358 . S
C26 H32 0.930 1_565 S
C27 N25 1.400 . S
C27 C28 1.351 . S
C27 H44 0.930 . S
C28 N24 1.389 . S
C28 C27 1.351 . S
C28 H33 0.930 . S
O29 Cu23 1.974 . S
O29 C39 1.282 1_565 S
C30 O31 1.261 . S
C30 O43 1.251 1_545 S
O31 C30 1.261 . S
H32 C26 0.930 1_545 S
H33 C28 0.930 . S
N34 Cu23 1.985 . S
N34 C36 1.335 . S
N34 C37 1.390 1_565 S
N35 C36 1.345 . S
N35 C38 1.336 1_565 S
C36 N34 1.335 . S
C36 N35 1.345 . S
C36 H41 0.930 . S
C37 N34 1.390 1_545 S
C37 C38 1.346 . S
C37 H42 0.930 . S
C38 N35 1.336 1_545 S
C38 C37 1.346 . S
C38 H45 0.929 . S
C39 O29 1.282 1_545 S
C39 O40 1.216 . S
O40 C39 1.216 . S
H41 C36 0.930 . S
H42 C37 0.930 . S
O43 Cu23 1.959 . S
O43 C30 1.251 1_565 S
H44 C27 0.930 . S
H45 C38 0.929 . S
Cu46 N47 1.999 1_554 S
Cu46 O52 1.974 . S
Cu46 N57 1.985 . S
Cu46 O66 1.959 . S
N47 Cu46 1.999 1_556 S
N47 C49 1.263 1_556 S
N47 C51 1.389 . S
N48 C49 1.358 . S
N48 C50 1.400 1_554 S
C49 N47 1.263 1_554 S
C49 N48 1.358 . S
C49 H55 0.930 . S
C50 N48 1.400 1_556 S
C50 C51 1.351 . S
C50 H67 0.930 . S
C51 N47 1.389 . S
C51 C50 1.351 . S
C51 H56 0.930 . S
O52 Cu46 1.974 . S
O52 C62 1.282 . S
C53 O54 1.261 . S
C53 O66 1.263 . S
O54 C53 1.261 . S
H55 C49 0.930 . S
H56 C51 0.930 . S
N57 Cu46 1.985 . S
N57 C59 1.335 . S
N57 C60 1.390 . S
N58 C59 1.345 . S
N58 C61 1.336 . S
C59 N57 1.335 . S
C59 N58 1.345 . S
C59 H64 0.930 1_554 S
C60 N57 1.390 . S
C60 C61 1.346 . S
C60 H65 0.930 . S
C61 N58 1.336 . S
C61 C60 1.346 . S
C61 H68 0.929 . S
C62 O52 1.282 . S
C62 O63 1.216 . S
O63 C62 1.216 . S
H64 C59 0.930 1_556 S
H65 C60 0.930 . S
O66 Cu46 1.959 . S
O66 C53 1.263 . S
H67 C50 0.930 . S
H68 C61 0.929 . S
Zn69 O71 1.933 1_556 S
Zn69 O89 1.985 . S
Zn69 O100 1.955 . S
Zn70 O71 1.911 . S
Zn70 O90 1.970 . S
Zn70 O106 1.945 . S
Zn70 O113 1.981 . S
O71 Zn69 1.933 1_554 S
O71 Zn70 1.911 . S
O71 H72 0.841 . S
H72 O71 0.841 . S
C73 O74 1.246 . S
C73 O102 1.276 1_455 S
O74 C73 1.246 . S
Zn75 O77 1.911 . S
Zn75 O92 1.970 . S
Zn75 O109 1.945 . S
Zn75 O116 1.981 . S
Zn76 O77 1.933 1_556 S
Zn76 O91 1.985 . S
Zn76 O98 1.955 . S
O77 Zn75 1.911 . S
O77 Zn76 1.933 1_554 S
O77 H78 0.841 . S
H78 O77 0.841 . S
Zn79 O80 1.933 1_556 S
Zn79 O93 1.985 . S
Zn79 O102 1.955 . S
O80 Zn79 1.933 1_554 S
O80 Zn81 1.911 . S
O80 H82 0.841 . S
Zn81 O80 1.911 . S
Zn81 O94 1.970 . S
Zn81 O110 1.981 . S
Zn81 O112 1.945 . S
H82 O80 0.841 . S
Zn83 O84 1.933 1_556 S
Zn83 O96 1.985 . S
Zn83 O104 1.955 . S
O84 Zn83 1.933 1_554 S
O84 H85 0.841 . S
O84 Zn86 1.911 . S
H85 O84 0.841 . S
Zn86 O84 1.911 . S
Zn86 O97 1.970 . S
Zn86 O107 1.981 . S
Zn86 O115 1.945 . S
C87 O88 1.246 . S
C87 O104 1.276 1_655 S
O88 C87 1.246 . S
O89 Zn69 1.985 . S
O89 C99 1.245 1_556 S
O90 Zn70 1.970 . S
O90 C99 1.263 . S
O91 Zn76 1.985 . S
O91 C103 1.245 1_556 S
O92 Zn75 1.970 . S
O92 C103 1.263 . S
O93 Zn79 1.985 . S
O93 C108 1.245 1_556 S
O94 Zn81 1.970 . S
O94 C108 1.263 . S
C95 O106 1.262 . S
C95 O107 1.245 1_545 S
O96 Zn83 1.985 . S
O96 C114 1.245 1_556 S
O97 Zn86 1.970 . S
O97 C114 1.263 . S
O98 Zn76 1.955 . S
O98 C117 1.276 1_565 S
C99 O89 1.245 1_554 S
C99 O90 1.263 . S
O100 Zn69 1.955 . S
O100 C119 1.276 . S
C101 O109 1.262 . S
C101 O110 1.245 1_565 S
O102 C73 1.276 1_655 S
O102 Zn79 1.955 . S
C103 O91 1.245 1_554 S
C103 O92 1.263 . S
O104 Zn83 1.955 . S
O104 C87 1.276 1_455 S
C105 O112 1.262 1_455 S
C105 O113 1.245 . S
O106 Zn70 1.945 . S
O106 C95 1.262 . S
O107 Zn86 1.981 . S
O107 C95 1.245 1_565 S
C108 O93 1.245 1_554 S
C108 O94 1.263 . S
O109 Zn75 1.945 . S
O109 C101 1.262 . S
O110 Zn81 1.981 . S
O110 C101 1.245 1_545 S
C111 O115 1.262 1_655 S
C111 O116 1.245 . S
O112 Zn81 1.945 . S
O112 C105 1.262 1_655 S
O113 Zn70 1.981 . S
O113 C105 1.245 . S
C114 O96 1.245 1_554 S
C114 O97 1.263 . S
O115 Zn86 1.945 . S
O115 C111 1.262 1_455 S
O116 Zn75 1.981 . S
O116 C111 1.245 . S
C117 O98 1.276 1_545 S
C117 O118 1.246 . S
O118 C117 1.246 . S
C119 O100 1.276 . S
C119 O120 1.246 1_545 S
O120 C119 1.246 1_565 S
H121 C139 0.951 . S
H122 C141 0.951 . S
H123 C143 0.950 . S
H124 C144 0.950 . S
H125 C146 0.950 . S
H126 C149 0.950 . S
H127 C150 0.950 . S
H128 C152 0.950 . S
H129 C153 0.950 . S
H130 C154 0.951 . S
H131 C156 0.951 . S
H132 C158 0.950 . S
H133 C159 0.950 . S
H134 C161 0.950 . S
H135 C164 0.950 . S
H136 C165 0.950 . S
H137 C167 0.950 . S
H138 C168 0.950 . S
C139 H121 0.951 . S
C139 C140 1.366 . S
C139 C141 1.388 . S
C140 C139 1.366 . S
C140 C144 1.385 1_455 S
C141 H122 0.951 . S
C141 C139 1.388 . S
C141 C142 1.366 . S
C142 C141 1.366 . S
C142 C143 1.414 1_455 S
C142 C145 1.499 . S
C143 H123 0.950 . S
C143 C142 1.414 1_655 S
C143 C144 1.374 . S
C144 H124 0.950 . S
C144 C140 1.385 1_655 S
C144 C143 1.374 . S
C145 C142 1.499 . S
C145 C146 1.373 1_455 S
C145 C147 1.389 . S
C146 H125 0.950 . S
C146 C145 1.373 1_655 S
C146 C162 1.377 . S
C147 C145 1.389 . S
C147 C148 1.524 . S
C147 C161 1.377 . S
C148 C147 1.524 . S
C148 C149 1.397 . S
C148 C153 1.363 . S
C149 H126 0.950 . S
C149 C148 1.397 . S
C149 C150 1.334 . S
C150 H127 0.950 . S
C150 C149 1.334 . S
C150 C151 1.287 . S
C151 C150 1.287 . S
C151 C152 1.524 . S
C151 H170 0.913 . S
C152 H128 0.950 . S
C152 C151 1.524 . S
C152 C153 1.415 . S
C153 H129 0.950 . S
C153 C148 1.363 . S
C153 C152 1.415 . S
C154 H130 0.951 . S
C154 C155 1.366 1_655 S
C154 C156 1.388 . S
C155 C154 1.366 1_455 S
C155 C159 1.385 . S
C156 H131 0.951 . S
C156 C154 1.388 . S
C156 C157 1.366 1_655 S
C157 C156 1.366 1_455 S
C157 C158 1.414 . S
C157 C160 1.499 . S
C158 H132 0.950 . S
C158 C157 1.414 . S
C158 C159 1.374 . S
C159 H133 0.950 . S
C159 C155 1.385 . S
C159 C158 1.374 . S
C160 C157 1.499 . S
C160 C161 1.373 . S
C160 C162 1.389 1_455 S
C161 H134 0.950 . S
C161 C147 1.377 . S
C161 C160 1.373 . S
C162 C146 1.377 . S
C162 C160 1.389 1_655 S
C162 C163 1.524 . S
C163 C162 1.524 . S
C163 C164 1.397 . S
C163 C168 1.363 . S
C164 H135 0.950 . S
C164 C163 1.397 . S
C164 C165 1.334 . S
C165 H136 0.950 . S
C165 C164 1.334 . S
C165 C166 1.287 . S
C166 C165 1.287 . S
C166 C167 1.524 . S
C166 H169 0.999 . S
C167 H137 0.950 . S
C167 C166 1.524 . S
C167 C168 1.415 . S
C168 H138 0.950 . S
C168 C163 1.363 . S
C168 C167 1.415 . S
H169 C166 0.999 . S
H170 C151 0.913 . S
H171 C189 0.951 . S
H172 C191 0.951 . S
H173 C193 0.950 . S
H174 C194 0.950 . S
H175 C196 0.950 . S
H176 C199 0.950 . S
H177 C200 0.950 . S
H178 C202 0.950 . S
H179 C203 0.950 . S
H180 C204 0.951 . S
H181 C206 0.951 . S
H182 C208 0.950 . S
H183 C209 0.950 . S
H184 C211 0.950 1_565 S
H185 C214 0.950 . S
H186 C215 0.950 . S
H187 C217 0.950 . S
H188 C218 0.950 . S
C189 H171 0.951 . S
C189 C190 1.366 1_565 S
C189 C191 1.388 . S
C190 C189 1.366 1_545 S
C190 C194 1.385 . S
C191 H172 0.951 . S
C191 C189 1.388 . S
C191 C192 1.366 1_565 S
C192 C191 1.366 1_545 S
C192 C193 1.414 . S
C192 C195 1.499 . S
C193 H173 0.950 . S
C193 C192 1.414 . S
C193 C194 1.374 . S
C194 H174 0.950 . S
C194 C190 1.385 . S
C194 C193 1.374 . S
C195 C192 1.499 . S
C195 C196 1.373 . S
C195 C197 1.389 . S
C196 H175 0.950 . S
C196 C195 1.373 . S
C196 C212 1.377 . S
C197 C195 1.389 . S
C197 C198 1.524 . S
C197 C211 1.377 . S
C198 C197 1.524 . S
C198 C199 1.397 . S
C198 C203 1.363 1_545 S
C199 H176 0.950 . S
C199 C198 1.397 . S
C199 C200 1.334 . S
C200 H177 0.950 . S
C200 C199 1.334 . S
C200 C201 1.287 . S
C201 C200 1.287 . S
C201 C202 1.524 1_545 S
C201 H220 0.913 . S
C202 H178 0.950 . S
C202 C201 1.524 1_565 S
C202 C203 1.415 . S
C203 H179 0.950 . S
C203 C198 1.363 1_565 S
C203 C202 1.415 . S
C204 H180 0.951 . S
C204 C205 1.366 . S
C204 C206 1.388 . S
C205 C204 1.366 . S
C205 C209 1.385 1_545 S
C206 H181 0.951 . S
C206 C204 1.388 . S
C206 C207 1.366 . S
C207 C206 1.366 . S
C207 C208 1.414 1_545 S
C207 C210 1.499 . S
C208 H182 0.950 . S
C208 C207 1.414 1_565 S
C208 C209 1.374 . S
C209 H183 0.950 . S
C209 C205 1.385 1_565 S
C209 C208 1.374 . S
C210 C207 1.499 . S
C210 C211 1.373 . S
C210 C212 1.389 . S
C211 H184 0.950 1_545 S
C211 C197 1.377 . S
C211 C210 1.373 . S
C212 C196 1.377 . S
C212 C210 1.389 . S
C212 C213 1.524 . S
C213 C212 1.524 . S
C213 C214 1.397 1_545 S
C213 C218 1.363 . S
C214 H185 0.950 . S
C214 C213 1.397 1_565 S
C214 C215 1.334 . S
C215 H186 0.950 . S
C215 C214 1.334 . S
C215 C216 1.287 1_565 S
C216 C215 1.287 1_545 S
C216 C217 1.524 . S
C216 H219 0.999 . S
C217 H187 0.950 . S
C217 C216 1.524 . S
C217 C218 1.415 . S
C218 H188 0.950 . S
C218 C213 1.363 . S
C218 C217 1.415 . S
H219 C216 0.999 . S
H220 C201 0.913 . S
H221 C239 0.951 . S
H222 C241 0.951 . S
H223 C243 0.950 . S
H224 C244 0.950 . S
H225 C246 0.950 . S
H226 C249 0.950 . S
H227 C250 0.950 . S
H228 C252 0.950 . S
H229 C253 0.950 . S
H230 C254 0.951 . S
H231 C256 0.951 . S
H232 C258 0.950 . S
H233 C259 0.950 . S
H234 C261 0.950 . S
H235 C264 0.950 . S
H236 C265 0.950 . S
H237 C267 0.950 . S
H238 C268 0.950 . S
C239 H221 0.951 . S
C239 C240 1.366 . S
C239 C241 1.388 . S
C240 C239 1.366 . S
C240 C244 1.385 1_655 S
C241 H222 0.951 . S
C241 C239 1.388 . S
C241 C242 1.366 . S
C242 C241 1.366 . S
C242 C243 1.414 1_655 S
C242 C245 1.499 . S
C243 H223 0.950 . S
C243 C242 1.414 1_455 S
C243 C244 1.374 . S
C244 H224 0.950 . S
C244 C240 1.385 1_455 S
C244 C243 1.374 . S
C245 C242 1.499 . S
C245 C246 1.373 1_655 S
C245 C247 1.389 . S
C246 H225 0.950 . S
C246 C245 1.373 1_455 S
C246 C262 1.377 . S
C247 C245 1.389 . S
C247 C248 1.524 . S
C247 C261 1.377 . S
C248 C247 1.524 . S
C248 C249 1.397 . S
C248 C253 1.363 . S
C249 H226 0.950 . S
C249 C248 1.397 . S
C249 C250 1.334 . S
C250 H227 0.950 . S
C250 C249 1.334 . S
C250 C251 1.287 . S
C251 C250 1.287 . S
C251 C252 1.524 . S
C251 H270 0.913 . S
C252 H228 0.950 . S
C252 C251 1.524 . S
C252 C253 1.415 . S
C253 H229 0.950 . S
C253 C248 1.363 . S
C253 C252 1.415 . S
C254 H230 0.951 . S
C254 C255 1.366 1_455 S
C254 C256 1.388 . S
C255 C254 1.366 1_655 S
C255 C259 1.385 . S
C256 H231 0.951 . S
C256 C254 1.388 . S
C256 C257 1.366 1_455 S
C257 C256 1.366 1_655 S
C257 C258 1.414 . S
C257 C260 1.499 . S
C258 H232 0.950 . S
C258 C257 1.414 . S
C258 C259 1.374 . S
C259 H233 0.950 . S
C259 C255 1.385 . S
C259 C258 1.374 . S
C260 C257 1.499 . S
C260 C261 1.373 . S
C260 C262 1.389 1_655 S
C261 H234 0.950 . S
C261 C247 1.377 . S
C261 C260 1.373 . S
C262 C246 1.377 . S
C262 C260 1.389 1_455 S
C262 C263 1.524 . S
C263 C262 1.524 . S
C263 C264 1.397 . S
C263 C268 1.363 . S
C264 H235 0.950 . S
C264 C263 1.397 . S
C264 C265 1.334 . S
C265 H236 0.950 . S
C265 C264 1.334 . S
C265 C266 1.287 . S
C266 C265 1.287 . S
C266 C267 1.524 . S
C266 H269 0.999 . S
C267 H237 0.950 . S
C267 C266 1.524 . S
C267 C268 1.415 . S
C268 H238 0.950 . S
C268 C263 1.363 . S
C268 C267 1.415 . S
H269 C266 0.999 . S
H270 C251 0.913 . S
H271 C289 0.951 . S
H272 C291 0.951 . S
H273 C293 0.950 . S
H274 C294 0.950 . S
H275 C296 0.950 . S
H276 C299 0.950 . S
H277 C300 0.950 . S
H278 C302 0.950 . S
H279 C303 0.950 . S
H280 C304 0.951 . S
H281 C306 0.951 . S
H282 C308 0.950 . S
H283 C309 0.950 . S
H284 C311 0.950 . S
H285 C314 0.950 . S
H286 C315 0.950 . S
H287 C317 0.950 . S
H288 C318 0.950 . S
C289 H271 0.951 . S
C289 C290 1.366 . S
C289 C291 1.388 . S
C290 C289 1.366 . S
C290 C294 1.385 1_565 S
C291 H272 0.951 . S
C291 C289 1.388 . S
C291 C292 1.366 . S
C292 C291 1.366 . S
C292 C293 1.414 1_565 S
C292 C295 1.499 . S
C293 H273 0.950 . S
C293 C292 1.414 1_545 S
C293 C294 1.374 . S
C294 H274 0.950 . S
C294 C290 1.385 1_545 S
C294 C293 1.374 . S
C295 C292 1.499 . S
C295 C296 1.373 1_565 S
C295 C297 1.389 . S
C296 H275 0.950 . S
C296 C295 1.373 1_545 S
C296 C312 1.377 . S
C297 C295 1.389 . S
C297 C298 1.524 . S
C297 C311 1.377 . S
C298 C297 1.524 . S
C298 C299 1.397 . S
C298 C303 1.363 . S
C299 H276 0.950 . S
C299 C298 1.397 . S
C299 C300 1.334 . S
C300 H277 0.950 . S
C300 C299 1.334 . S
C300 C301 1.287 . S
C301 C300 1.287 . S
C301 C302 1.524 . S
C301 H320 0.913 . S
C302 H278 0.950 . S
C302 C301 1.524 . S
C302 C303 1.415 . S
C303 H279 0.950 . S
C303 C298 1.363 . S
C303 C302 1.415 . S
C304 H280 0.951 . S
C304 C305 1.366 1_545 S
C304 C306 1.388 . S
C305 C304 1.366 1_565 S
C305 C309 1.385 . S
C306 H281 0.951 . S
C306 C304 1.388 . S
C306 C307 1.366 1_545 S
C307 C306 1.366 1_565 S
C307 C308 1.414 . S
C307 C310 1.499 . S
C308 H282 0.950 . S
C308 C307 1.414 . S
C308 C309 1.374 . S
C309 H283 0.950 . S
C309 C305 1.385 . S
C309 C308 1.374 . S
C310 C307 1.499 . S
C310 C311 1.373 . S
C310 C312 1.389 1_565 S
C311 H284 0.950 . S
C311 C297 1.377 . S
C311 C310 1.373 . S
C312 C296 1.377 . S
C312 C310 1.389 1_545 S
C312 C313 1.524 . S
C313 C312 1.524 . S
C313 C314 1.397 . S
C313 C318 1.363 . S
C314 H285 0.950 . S
C314 C313 1.397 . S
C314 C315 1.334 . S
C315 H286 0.950 . S
C315 C314 1.334 . S
C315 C316 1.287 . S
C316 C315 1.287 . S
C316 C317 1.524 . S
C316 H319 0.999 . S
C317 H287 0.950 . S
C317 C316 1.524 . S
C317 C318 1.415 . S
C318 H288 0.950 . S
C318 C313 1.363 . S
C318 C317 1.415 . S
H319 C316 0.999 . S
H320 C301 0.913 . S
H321 C339 0.950 1_655 S
H322 C341 0.953 . S
H323 C343 0.950 . S
H324 C344 0.950 . S
H325 C346 0.950 . S
H326 C349 0.950 . S
H327 C350 0.950 . S
H328 C352 0.950 . S
H329 C353 0.950 . S
H330 C354 0.951 1_455 S
H331 C356 0.951 . S
H332 C358 0.950 . S
H333 C359 0.950 . S
H334 C361 0.950 . S
H335 C364 0.950 . S
H336 C365 0.950 . S
H337 C367 0.950 . S
H338 C368 0.950 . S
C339 H321 0.950 1_455 S
C339 C340 1.366 . S
C339 C341 1.387 1_455 S
C340 C339 1.366 . S
C340 C344 1.385 . S
C341 H322 0.953 . S
C341 C339 1.387 1_655 S
C341 C342 1.365 1_655 S
C342 C341 1.365 1_455 S
C342 C343 1.414 . S
C342 C345 1.499 . S
C343 H323 0.950 . S
C343 C342 1.414 . S
C343 C344 1.374 . S
C344 H324 0.950 . S
C344 C340 1.385 . S
C344 C343 1.374 . S
C345 C342 1.499 . S
C345 C346 1.373 . S
C345 C347 1.389 1_455 S
C346 H325 0.950 . S
C346 C345 1.373 . S
C346 C362 1.377 . S
C347 C345 1.389 1_655 S
C347 C348 1.524 . S
C347 C361 1.377 . S
C348 C347 1.524 . S
C348 C349 1.397 . S
C348 C353 1.363 . S
C349 H326 0.950 . S
C349 C348 1.397 . S
C349 C350 1.334 . S
C350 H327 0.950 . S
C350 C349 1.334 . S
C350 C351 1.287 . S
C351 C350 1.287 . S
C351 C352 1.524 . S
C351 H370 0.913 . S
C352 H328 0.950 . S
C352 C351 1.524 . S
C352 C353 1.415 . S
C353 H329 0.950 . S
C353 C348 1.363 . S
C353 C352 1.415 . S
C354 H330 0.951 1_655 S
C354 C355 1.366 . S
C354 C356 1.388 1_655 S
C355 C354 1.366 . S
C355 C359 1.385 . S
C356 H331 0.951 . S
C356 C354 1.388 1_455 S
C356 C357 1.366 1_455 S
C357 C356 1.366 1_655 S
C357 C358 1.414 . S
C357 C360 1.499 . S
C358 H332 0.950 . S
C358 C357 1.414 . S
C358 C359 1.374 . S
C359 H333 0.950 . S
C359 C355 1.385 . S
C359 C358 1.374 . S
C360 C357 1.499 . S
C360 C361 1.373 . S
C360 C362 1.390 1_655 S
C361 H334 0.950 . S
C361 C347 1.377 . S
C361 C360 1.373 . S
C362 C346 1.377 . S
C362 C360 1.390 1_455 S
C362 C363 1.524 . S
C363 C362 1.524 . S
C363 C364 1.397 . S
C363 C368 1.363 . S
C364 H335 0.950 . S
C364 C363 1.397 . S
C364 C365 1.334 . S
C365 H336 0.950 . S
C365 C364 1.334 . S
C365 C366 1.287 . S
C366 C365 1.287 . S
C366 C367 1.524 . S
C366 H369 0.999 . S
C367 H337 0.950 . S
C367 C366 1.524 . S
C367 C368 1.415 . S
C368 H338 0.950 . S
C368 C363 1.363 . S
C368 C367 1.415 . S
H369 C366 0.999 . S
H370 C351 0.913 . S
H371 C389 0.951 . S
H372 C391 0.951 . S
H373 C393 0.950 . S
H374 C394 0.950 . S
H375 C396 0.950 . S
H376 C399 0.950 1_545 S
H377 C400 0.950 . S
H378 C402 0.950 . S
H379 C403 0.950 . S
H380 C404 0.951 . S
H381 C406 0.951 . S
H382 C408 0.950 . S
H383 C409 0.950 . S
H384 C411 0.950 . S
H385 C414 0.950 1_565 S
H386 C415 0.950 . S
H387 C417 0.950 . S
H388 C418 0.950 . S
C389 H371 0.951 . S
C389 C390 1.366 1_565 S
C389 C391 1.388 . S
C390 C389 1.366 1_545 S
C390 C394 1.385 . S
C391 H372 0.951 . S
C391 C389 1.388 . S
C391 C392 1.366 1_565 S
C392 C391 1.366 1_545 S
C392 C393 1.414 . S
C392 C395 1.499 . S
C393 H373 0.950 . S
C393 C392 1.414 . S
C393 C394 1.374 . S
C394 H374 0.950 . S
C394 C390 1.385 . S
C394 C393 1.374 . S
C395 C392 1.499 . S
C395 C396 1.373 . S
C395 C397 1.389 1_545 S
C396 H375 0.950 . S
C396 C395 1.373 . S
C396 C412 1.377 . S
C397 C395 1.389 1_565 S
C397 C398 1.524 . S
C397 C411 1.377 . S
C398 C397 1.524 . S
C398 C399 1.397 . S
C398 C403 1.363 . S
C399 H376 0.950 1_565 S
C399 C398 1.397 . S
C399 C400 1.334 . S
C400 H377 0.950 . S
C400 C399 1.334 . S
C400 C401 1.287 . S
C401 C400 1.287 . S
C401 C402 1.524 . S
C401 H420 0.913 . S
C402 H378 0.950 . S
C402 C401 1.524 . S
C402 C403 1.415 . S
C403 H379 0.950 . S
C403 C398 1.363 . S
C403 C402 1.415 . S
C404 H380 0.951 . S
C404 C405 1.366 1_545 S
C404 C406 1.388 . S
C405 C404 1.366 1_565 S
C405 C409 1.385 . S
C406 H381 0.951 . S
C406 C404 1.388 . S
C406 C407 1.366 1_545 S
C407 C406 1.366 1_565 S
C407 C408 1.414 . S
C407 C410 1.499 . S
C408 H382 0.950 . S
C408 C407 1.414 . S
C408 C409 1.374 . S
C409 H383 0.950 . S
C409 C405 1.385 . S
C409 C408 1.374 . S
C410 C407 1.499 . S
C410 C411 1.373 . S
C410 C412 1.389 1_565 S
C411 H384 0.950 . S
C411 C397 1.377 . S
C411 C410 1.373 . S
C412 C396 1.377 . S
C412 C410 1.389 1_545 S
C412 C413 1.524 . S
C413 C412 1.524 . S
C413 C414 1.397 . S
C413 C418 1.363 . S
C414 H385 0.950 1_545 S
C414 C413 1.397 . S
C414 C415 1.334 . S
C415 H386 0.950 . S
C415 C414 1.334 . S
C415 C416 1.287 . S
C416 C415 1.287 . S
C416 C417 1.524 . S
C416 H419 0.999 . S
C417 H387 0.950 . S
C417 C416 1.524 . S
C417 C418 1.415 . S
C418 H388 0.950 . S
C418 C413 1.363 . S
C418 C417 1.415 . S
H419 C416 0.999 . S
H420 C401 0.913 . S
H421 C439 0.951 . S
H422 C441 0.951 . S
H423 C443 0.950 . S
H424 C444 0.950 . S
H425 C446 0.950 . S
H426 C449 0.950 . S
H427 C450 0.950 . S
H428 C452 0.950 . S
H429 C453 0.950 . S
H430 C454 0.951 . S
H431 C456 0.951 . S
H432 C458 0.950 . S
H433 C459 0.950 . S
H434 C461 0.950 . S
H435 C464 0.950 . S
H436 C465 0.950 . S
H437 C467 0.950 . S
H438 C468 0.950 . S
C439 H421 0.951 . S
C439 C440 1.366 1_455 S
C439 C441 1.388 . S
C440 C439 1.366 1_655 S
C440 C444 1.385 . S
C441 H422 0.951 . S
C441 C439 1.388 . S
C441 C442 1.366 1_455 S
C442 C441 1.366 1_655 S
C442 C443 1.414 . S
C442 C445 1.499 . S
C443 H423 0.950 . S
C443 C442 1.414 . S
C443 C444 1.374 . S
C444 H424 0.950 . S
C444 C440 1.385 . S
C444 C443 1.374 . S
C445 C442 1.499 . S
C445 C446 1.374 . S
C445 C447 1.387 1_655 S
C446 H425 0.950 . S
C446 C445 1.374 . S
C446 C462 1.377 . S
C447 C445 1.387 1_455 S
C447 C448 1.524 . S
C447 C461 1.377 . S
C448 C447 1.524 . S
C448 C449 1.397 1_455 S
C448 C453 1.363 . S
C449 H426 0.950 . S
C449 C448 1.397 1_655 S
C449 C450 1.334 . S
C450 H427 0.950 . S
C450 C449 1.334 . S
C450 C451 1.287 1_655 S
C451 C450 1.287 1_455 S
C451 C452 1.524 . S
C451 H470 0.913 . S
C452 H428 0.950 . S
C452 C451 1.524 . S
C452 C453 1.415 . S
C453 H429 0.950 . S
C453 C448 1.363 . S
C453 C452 1.415 . S
C454 H430 0.951 . S
C454 C455 1.366 1_655 S
C454 C456 1.388 . S
C455 C454 1.366 1_455 S
C455 C459 1.385 . S
C456 H431 0.951 . S
C456 C454 1.388 . S
C456 C457 1.366 1_655 S
C457 C456 1.366 1_455 S
C457 C458 1.414 . S
C457 C460 1.499 . S
C458 H432 0.950 . S
C458 C457 1.414 . S
C458 C459 1.374 . S
C459 H433 0.950 . S
C459 C455 1.385 . S
C459 C458 1.374 . S
C460 C457 1.499 . S
C460 C461 1.373 . S
C460 C462 1.389 1_455 S
C461 H434 0.950 . S
C461 C447 1.377 . S
C461 C460 1.373 . S
C462 C446 1.377 . S
C462 C460 1.389 1_655 S
C462 C463 1.524 . S
C463 C462 1.524 . S
C463 C464 1.397 1_655 S
C463 C468 1.363 . S
C464 H435 0.950 . S
C464 C463 1.397 1_455 S
C464 C465 1.334 . S
C465 H436 0.950 . S
C465 C464 1.334 . S
C465 C466 1.287 1_455 S
C466 C465 1.287 1_655 S
C466 C467 1.524 . S
C466 H469 0.999 . S
C467 H437 0.950 . S
C467 C466 1.524 . S
C467 C468 1.415 . S
C468 H438 0.950 . S
C468 C463 1.363 . S
C468 C467 1.415 . S
H469 C466 0.999 . S
H470 C451 0.913 . S
H471 C489 0.951 . S
H472 C491 0.951 . S
H473 C493 0.950 . S
H474 C494 0.950 . S
H475 C496 0.950 . S
H476 C499 0.950 . S
H477 C500 0.950 . S
H478 C502 0.950 . S
H479 C503 0.950 . S
H480 C504 0.951 . S
H481 C506 0.951 . S
H482 C508 0.950 . S
H483 C509 0.950 . S
H484 C511 0.950 . S
H485 C514 0.950 . S
H486 C515 0.950 . S
H487 C517 0.950 . S
H488 C518 0.950 . S
C489 H471 0.951 . S
C489 C490 1.366 . S
C489 C491 1.388 . S
C490 C489 1.366 . S
C490 C494 1.385 . S
C491 H472 0.951 . S
C491 C489 1.388 . S
C491 C492 1.366 . S
C492 C491 1.366 . S
C492 C493 1.414 . S
C492 C495 1.499 . S
C493 H473 0.950 . S
C493 C492 1.414 . S
C493 C494 1.374 . S
C494 H474 0.950 . S
C494 C490 1.385 . S
C494 C493 1.374 . S
C495 C492 1.499 . S
C495 C496 1.373 1_565 S
C495 C497 1.389 . S
C496 H475 0.950 . S
C496 C495 1.373 1_545 S
C496 C512 1.377 . S
C497 C495 1.389 . S
C497 C498 1.524 . S
C497 C511 1.377 . S
C498 C497 1.524 . S
C498 C499 1.397 . S
C498 C503 1.363 . S
C499 H476 0.950 . S
C499 C498 1.397 . S
C499 C500 1.334 . S
C500 H477 0.950 . S
C500 C499 1.334 . S
C500 C501 1.287 . S
C501 C500 1.287 . S
C501 C502 1.524 . S
C501 H520 0.913 . S
C502 H478 0.950 . S
C502 C501 1.524 . S
C502 C503 1.415 . S
C503 H479 0.950 . S
C503 C498 1.363 . S
C503 C502 1.415 . S
C504 H480 0.951 . S
C504 C505 1.366 . S
C504 C506 1.388 . S
C505 C504 1.366 . S
C505 C509 1.385 . S
C506 H481 0.951 . S
C506 C504 1.388 . S
C506 C507 1.366 . S
C507 C506 1.366 . S
C507 C508 1.414 . S
C507 C510 1.499 . S
C508 H482 0.950 . S
C508 C507 1.414 . S
C508 C509 1.374 . S
C509 H483 0.950 . S
C509 C505 1.385 . S
C509 C508 1.374 . S
C510 C507 1.499 . S
C510 C511 1.373 1_545 S
C510 C512 1.389 . S
C511 H484 0.950 . S
C511 C497 1.377 . S
C511 C510 1.373 1_565 S
C512 C496 1.377 . S
C512 C510 1.389 . S
C512 C513 1.524 . S
C513 C512 1.524 . S
C513 C514 1.397 . S
C513 C518 1.363 . S
C514 H485 0.950 . S
C514 C513 1.397 . S
C514 C515 1.334 . S
C515 H486 0.950 . S
C515 C514 1.334 . S
C515 C516 1.287 . S
C516 C515 1.287 . S
C516 C517 1.524 . S
C516 H519 0.999 . S
C517 H487 0.950 . S
C517 C516 1.524 . S
C517 C518 1.415 . S
C518 H488 0.950 . S
C518 C513 1.363 . S
C518 C517 1.415 . S
H519 C516 0.999 . S
H520 C501 0.913 . S
H521 C539 0.951 . S
H522 C541 0.951 . S
H523 C543 0.950 . S
H524 C544 0.950 . S
H525 C546 0.950 . S
H526 C549 0.950 . S
H527 C550 0.950 . S
H528 C552 0.950 . S
H529 C553 0.950 . S
H530 C554 0.951 . S
H531 C556 0.951 . S
H532 C558 0.950 . S
H533 C559 0.950 . S
H534 C561 0.950 . S
H535 C564 0.946 1_554 S
H536 C565 0.950 . S
H537 C567 0.950 . S
H538 C568 0.950 . S
C539 H521 0.951 . S
C539 C540 1.366 . S
C539 C541 1.388 . S
C540 C539 1.366 . S
C540 C544 1.385 1_554 S
C541 H522 0.951 . S
C541 C539 1.388 . S
C541 C542 1.366 . S
C542 C541 1.366 . S
C542 C543 1.414 1_554 S
C542 C545 1.499 . S
C543 H523 0.950 . S
C543 C542 1.414 1_556 S
C543 C544 1.374 . S
C544 H524 0.950 . S
C544 C540 1.385 1_556 S
C544 C543 1.374 . S
C545 C542 1.499 . S
C545 C546 1.373 1_554 S
C545 C547 1.389 . S
C546 H525 0.950 . S
C546 C545 1.373 1_556 S
C546 C562 1.377 . S
C547 C545 1.389 . S
C547 C548 1.524 . S
C547 C561 1.377 . S
C548 C547 1.524 . S
C548 C549 1.397 . S
C548 C553 1.363 . S
C549 H526 0.950 . S
C549 C548 1.397 . S
C549 C550 1.334 . S
C550 H527 0.950 . S
C550 C549 1.334 . S
C550 C551 1.287 . S
C551 C550 1.287 . S
C551 C552 1.524 . S
C551 H570 0.913 . S
C552 H528 0.950 . S
C552 C551 1.524 . S
C552 C553 1.415 . S
C553 H529 0.950 . S
C553 C548 1.363 . S
C553 C552 1.415 . S
C554 H530 0.951 . S
C554 C555 1.366 1_556 S
C554 C556 1.388 . S
C555 C554 1.366 1_554 S
C555 C559 1.385 . S
C556 H531 0.951 . S
C556 C554 1.388 . S
C556 C557 1.366 1_556 S
C557 C556 1.366 1_554 S
C557 C558 1.414 . S
C557 C560 1.499 . S
C558 H532 0.950 . S
C558 C557 1.414 . S
C558 C559 1.374 . S
C559 H533 0.950 . S
C559 C555 1.385 . S
C559 C558 1.374 . S
C560 C557 1.499 . S
C560 C561 1.373 . S
C560 C562 1.389 1_554 S
C561 H534 0.950 . S
C561 C547 1.377 . S
C561 C560 1.373 . S
C562 C546 1.377 . S
C562 C560 1.389 1_556 S
C562 C563 1.524 . S
C563 C562 1.524 . S
C563 C564 1.397 . S
C563 C568 1.363 . S
C564 H535 0.946 1_556 S
C564 C563 1.397 . S
C564 C565 1.334 . S
C565 H536 0.950 . S
C565 C564 1.334 . S
C565 C566 1.287 . S
C566 C565 1.287 . S
C566 C567 1.524 . S
C566 H569 0.999 . S
C567 H537 0.950 . S
C567 C566 1.524 . S
C567 C568 1.415 . S
C568 H538 0.950 . S
C568 C563 1.363 . S
C568 C567 1.415 . S
H569 C566 0.999 . S
H570 C551 0.913 . S
H571 C589 0.951 . S
H572 C591 0.951 . S
H573 C593 0.950 . S
H574 C594 0.950 . S
H575 C596 0.950 . S
H576 C599 0.950 . S
H577 C600 0.950 . S
H578 C602 0.950 . S
H579 C603 0.950 . S
H580 C604 0.951 . S
H581 C606 0.951 . S
H582 C608 0.950 . S
H583 C609 0.950 . S
H584 C611 0.950 . S
H585 C614 0.950 1_554 S
H586 C615 0.950 . S
H587 C617 0.950 . S
H588 C618 0.950 . S
C589 H571 0.951 . S
C589 C590 1.366 . S
C589 C591 1.388 . S
C590 C589 1.366 . S
C590 C594 1.385 1_554 S
C591 H572 0.951 . S
C591 C589 1.388 . S
C591 C592 1.366 . S
C592 C591 1.366 . S
C592 C593 1.414 1_554 S
C592 C595 1.499 . S
C593 H573 0.950 . S
C593 C592 1.414 1_556 S
C593 C594 1.374 . S
C594 H574 0.950 . S
C594 C590 1.385 1_556 S
C594 C593 1.374 . S
C595 C592 1.499 . S
C595 C596 1.373 1_554 S
C595 C597 1.389 . S
C596 H575 0.950 . S
C596 C595 1.373 1_556 S
C596 C612 1.377 . S
C597 C595 1.389 . S
C597 C598 1.524 . S
C597 C611 1.377 . S
C598 C597 1.524 . S
C598 C599 1.397 . S
C598 C603 1.363 . S
C599 H576 0.950 . S
C599 C598 1.397 . S
C599 C600 1.334 . S
C600 H577 0.950 . S
C600 C599 1.334 . S
C600 C601 1.287 . S
C601 C600 1.287 . S
C601 C602 1.524 . S
C601 H620 0.913 . S
C602 H578 0.950 . S
C602 C601 1.524 . S
C602 C603 1.415 . S
C603 H579 0.950 . S
C603 C598 1.363 . S
C603 C602 1.415 . S
C604 H580 0.951 . S
C604 C605 1.366 1_556 S
C604 C606 1.388 . S
C605 C604 1.366 1_554 S
C605 C609 1.385 . S
C606 H581 0.951 . S
C606 C604 1.388 . S
C606 C607 1.366 1_556 S
C607 C606 1.366 1_554 S
C607 C608 1.414 . S
C607 C610 1.499 . S
C608 H582 0.950 . S
C608 C607 1.414 . S
C608 C609 1.374 . S
C609 H583 0.950 . S
C609 C605 1.385 . S
C609 C608 1.374 . S
C610 C607 1.499 . S
C610 C611 1.373 . S
C610 C612 1.389 1_554 S
C611 H584 0.950 . S
C611 C597 1.377 . S
C611 C610 1.373 . S
C612 C596 1.377 . S
C612 C610 1.389 1_556 S
C612 C613 1.524 . S
C613 C612 1.524 . S
C613 C614 1.397 . S
C613 C618 1.363 . S
C614 H585 0.950 1_556 S
C614 C613 1.397 . S
C614 C615 1.334 . S
C615 H586 0.950 . S
C615 C614 1.334 . S
C615 C616 1.287 . S
C616 C615 1.287 . S
C616 C617 1.524 . S
C616 H619 0.999 . S
C617 H587 0.950 . S
C617 C616 1.524 . S
C617 C618 1.415 . S
C618 H588 0.950 . S
C618 C613 1.363 . S
C618 C617 1.415 . S
H619 C616 0.999 . S
H620 C601 0.913 . S
H621 C639 0.951 . S
H622 C641 0.951 . S
H623 C643 0.950 . S
H624 C644 0.950 . S
H625 C646 0.950 . S
H626 C649 0.950 . S
H627 C650 0.950 . S
H628 C652 0.950 . S
H629 C653 0.950 1_556 S
H630 C654 0.951 . S
H631 C656 0.951 . S
H632 C658 0.950 . S
H633 C659 0.950 . S
H634 C661 0.950 . S
H635 C664 0.950 . S
H636 C665 0.950 . S
H637 C667 0.950 . S
H638 C668 0.950 . S
C639 H621 0.951 . S
C639 C640 1.366 1_556 S
C639 C641 1.388 . S
C640 C639 1.366 1_554 S
C640 C644 1.385 . S
C641 H622 0.951 . S
C641 C639 1.388 . S
C641 C642 1.366 1_556 S
C642 C641 1.366 1_554 S
C642 C643 1.414 . S
C642 C645 1.499 . S
C643 H623 0.950 . S
C643 C642 1.414 . S
C643 C644 1.374 . S
C644 H624 0.950 . S
C644 C640 1.385 . S
C644 C643 1.374 . S
C645 C642 1.499 . S
C645 C646 1.373 . S
C645 C647 1.389 . S
C646 H625 0.950 . S
C646 C645 1.373 . S
C646 C662 1.377 . S
C647 C645 1.389 . S
C647 C648 1.524 . S
C647 C661 1.377 . S
C648 C647 1.524 . S
C648 C649 1.397 . S
C648 C653 1.363 . S
C649 H626 0.950 . S
C649 C648 1.397 . S
C649 C650 1.334 . S
C650 H627 0.950 . S
C650 C649 1.334 . S
C650 C651 1.287 . S
C651 C650 1.287 . S
C651 C652 1.524 . S
C651 H670 0.913 . S
C652 H628 0.950 . S
C652 C651 1.524 . S
C652 C653 1.415 . S
C653 H629 0.950 1_554 S
C653 C648 1.363 . S
C653 C652 1.415 . S
C654 H630 0.951 . S
C654 C655 1.366 . S
C654 C656 1.388 . S
C655 C654 1.366 . S
C655 C659 1.385 1_554 S
C656 H631 0.951 . S
C656 C654 1.388 . S
C656 C657 1.366 . S
C657 C656 1.366 . S
C657 C658 1.414 1_554 S
C657 C660 1.499 . S
C658 H632 0.950 . S
C658 C657 1.414 1_556 S
C658 C659 1.374 . S
C659 H633 0.950 . S
C659 C655 1.385 1_556 S
C659 C658 1.374 . S
C660 C657 1.499 . S
C660 C661 1.373 . S
C660 C662 1.389 . S
C661 H634 0.950 . S
C661 C647 1.377 . S
C661 C660 1.373 . S
C662 C646 1.377 . S
C662 C660 1.389 . S
C662 C663 1.524 1_554 S
C663 C662 1.524 1_556 S
C663 C664 1.397 . S
C663 C668 1.363 1_556 S
C664 H635 0.950 . S
C664 C663 1.397 . S
C664 C665 1.334 . S
C665 H636 0.950 . S
C665 C664 1.334 . S
C665 C666 1.287 . S
C666 C665 1.287 . S
C666 C667 1.524 1_556 S
C666 H669 0.999 . S
C667 H637 0.950 . S
C667 C666 1.524 1_554 S
C667 C668 1.415 . S
C668 H638 0.950 . S
C668 C663 1.363 1_554 S
C668 C667 1.415 . S
H669 C666 0.999 . S
H670 C651 0.913 . S
H671 C689 0.951 1_556 S
H672 C691 0.951 1_556 S
H673 C693 0.950 . S
H674 C694 0.950 . S
H675 C696 0.950 . S
H676 C699 0.950 . S
H677 C700 0.950 . S
H678 C702 0.950 . S
H679 C703 0.950 . S
H680 C704 0.951 . S
H681 C706 0.951 . S
H682 C708 0.950 . S
H683 C709 0.950 . S
H684 C711 0.950 . S
H685 C714 0.950 . S
H686 C715 0.950 . S
H687 C717 0.950 . S
H688 C718 0.950 . S
C689 H671 0.951 1_554 S
C689 C690 1.366 . S
C689 C691 1.388 . S
C690 C689 1.366 . S
C690 C694 1.385 . S
C691 H672 0.951 1_554 S
C691 C689 1.388 . S
C691 C692 1.366 . S
C692 C691 1.366 . S
C692 C693 1.414 . S
C692 C695 1.499 . S
C693 H673 0.950 . S
C693 C692 1.414 . S
C693 C694 1.374 . S
C694 H674 0.950 . S
C694 C690 1.385 . S
C694 C693 1.374 . S
C695 C692 1.499 . S
C695 C696 1.373 . S
C695 C697 1.389 1_554 S
C696 H675 0.950 . S
C696 C695 1.373 . S
C696 C712 1.377 . S
C697 C695 1.389 1_556 S
C697 C698 1.524 . S
C697 C711 1.377 . S
C698 C697 1.524 . S
C698 C699 1.397 . S
C698 C703 1.363 . S
C699 H676 0.950 . S
C699 C698 1.397 . S
C699 C700 1.334 . S
C700 H677 0.950 . S
C700 C699 1.334 . S
C700 C701 1.287 . S
C701 C700 1.287 . S
C701 C702 1.524 . S
C701 H720 0.913 . S
C702 H678 0.950 . S
C702 C701 1.524 . S
C702 C703 1.415 . S
C703 H679 0.950 . S
C703 C698 1.363 . S
C703 C702 1.415 . S
C704 H680 0.951 . S
C704 C705 1.366 . S
C704 C706 1.388 . S
C705 C704 1.366 . S
C705 C709 1.385 1_554 S
C706 H681 0.951 . S
C706 C704 1.388 . S
C706 C707 1.366 . S
C707 C706 1.366 . S
C707 C708 1.414 1_554 S
C707 C710 1.499 . S
C708 H682 0.950 . S
C708 C707 1.414 1_556 S
C708 C709 1.374 . S
C709 H683 0.950 . S
C709 C705 1.385 1_556 S
C709 C708 1.374 . S
C710 C707 1.499 . S
C710 C711 1.373 1_554 S
C710 C712 1.389 . S
C711 H684 0.950 . S
C711 C697 1.377 . S
C711 C710 1.373 1_556 S
C712 C696 1.377 . S
C712 C710 1.389 . S
C712 C713 1.524 . S
C713 C712 1.524 . S
C713 C714 1.397 . S
C713 C718 1.363 . S
C714 H685 0.950 . S
C714 C713 1.397 . S
C714 C715 1.334 . S
C715 H686 0.950 . S
C715 C714 1.334 . S
C715 C716 1.287 . S
C716 C715 1.287 . S
C716 C717 1.524 . S
C716 H719 0.999 . S
C717 H687 0.950 . S
C717 C716 1.524 . S
C717 C718 1.415 . S
C718 H688 0.950 . S
C718 C713 1.363 . S
C718 C717 1.415 . S
H719 C716 0.999 . S
H720 C701 0.913 . S
C155 C105 1.322 . S
C140 N2 1.332 . S
C205 C101 1.731 1_545 S
C190 C39 1.795 . S
C255 C111 1.543 . S
C240 C7 1.618 . S
C305 C95 1.523 1_565 S
C290 N35 1.539 . S
C340 N12 1.429 . S
C355 C87 1.406 . S
C405 C119 1.879 1_565 S
C390 C30 1.986 . S
C440 C16 1.727 . S
C455 C73 1.627 . S
C490 N25 1.717 . S
C505 C117 1.656 . S
C540 C62 1.274 . S
C555 C99 1.251 . S
C590 N48 1.041 . S
C605 C114 1.057 . S
C655 C108 1.030 . S
C640 N58 1.011 . S
C705 C103 1.290 . S
C690 C53 1.318 . S
