# Generated by pormake.
# Topology anh, (6,3)-cn, num edge types: 1
# Building blocks:
#     Node 0, Type 0, BuildingBlock: MIFKUJ_clean_sbu_0, # of connection points: 6
#     Node 1, Type 0, BuildingBlock: MIFKUJ_clean_sbu_0, # of connection points: 6
#     Node 2, Type 0, BuildingBlock: MIFKUJ_clean_sbu_0, # of connection points: 6
#     Node 3, Type 1, BuildingBlock: OLANEW_clean_sbu_2, # of connection points: 3
#     Node 4, Type 1, BuildingBlock: OLANEW_clean_sbu_2, # of connection points: 3
#     Node 5, Type 1, BuildingBlock: OLANEW_clean_sbu_2, # of connection points: 3
#     Node 6, Type 1, BuildingBlock: OLANEW_clean_sbu_2, # of connection points: 3
#     Node 7, Type 1, BuildingBlock: OLANEW_clean_sbu_2, # of connection points: 3
#     Node 8, Type 1, BuildingBlock: OLANEW_clean_sbu_2, # of connection points: 3
#     Edge 9, Type (0, 1), BuildingBlock: AJUNOK_clean_linker_0, # of connection points: 2
#     Edge 10, Type (0, 1), BuildingBlock: AJUNOK_clean_linker_0, # of connection points: 2
#     Edge 11, Type (0, 1), BuildingBlock: AJUNOK_clean_linker_0, # of connection points: 2
#     Edge 12, Type (0, 1), BuildingBlock: AJUNOK_clean_linker_0, # of connection points: 2
#     Edge 13, Type (0, 1), BuildingBlock: AJUNOK_clean_linker_0, # of connection points: 2
#     Edge 14, Type (0, 1), BuildingBlock: AJUNOK_clean_linker_0, # of connection points: 2
#     Edge 15, Type (0, 1), BuildingBlock: AJUNOK_clean_linker_0, # of connection points: 2
#     Edge 16, Type (0, 1), BuildingBlock: AJUNOK_clean_linker_0, # of connection points: 2
#     Edge 17, Type (0, 1), BuildingBlock: AJUNOK_clean_linker_0, # of connection points: 2
#     Edge 18, Type (0, 1), BuildingBlock: AJUNOK_clean_linker_0, # of connection points: 2
#     Edge 19, Type (0, 1), BuildingBlock: AJUNOK_clean_linker_0, # of connection points: 2
#     Edge 20, Type (0, 1), BuildingBlock: AJUNOK_clean_linker_0, # of connection points: 2
#     Edge 21, Type (0, 1), BuildingBlock: AJUNOK_clean_linker_0, # of connection points: 2
#     Edge 22, Type (0, 1), BuildingBlock: AJUNOK_clean_linker_0, # of connection points: 2
#     Edge 23, Type (0, 1), BuildingBlock: AJUNOK_clean_linker_0, # of connection points: 2
#     Edge 24, Type (0, 1), BuildingBlock: AJUNOK_clean_linker_0, # of connection points: 2
#     Edge 25, Type (0, 1), BuildingBlock: AJUNOK_clean_linker_0, # of connection points: 2
#     Edge 26, Type (0, 1), BuildingBlock: AJUNOK_clean_linker_0, # of connection points: 2
# Relax obj value: 0.069
# Max RMSD: 0.129
# Mean RMSD: 0.111
data_MOF--net-anh--node1-MIFKUJ_clean_sbu_0--node2-OLANEW_clean_sbu_2--edge1-AJUNOK_clean_linker_0
_symmetry_space_group_name_H-M    P1
_symmetry_Int_Tables_number       1
_symmetry_cell_setting            triclinic
loop_
_symmetry_equiv_pos_as_xyz
'x, y, z'
_cell_length_a     26.474174
_cell_length_b     26.423144
_cell_length_c     35.278446
_cell_angle_alpha  93.336063
_cell_angle_beta   90.773882
_cell_angle_gamma 120.2247
loop_
_atom_site_label
_atom_site_type_symbol
_atom_site_fract_x
_atom_site_fract_y
_atom_site_fract_z
_atom_type_partial_charge
Zn0 Zn 0.03013 0.56818 0.14686 0.0
Zn1 Zn 0.92487 0.44624 0.14507 0.0
C2 C 0.11721 0.54048 0.17102 0.0
O3 O 0.12996 0.58381 0.19669 0.0
C4 C 0.83427 0.46572 0.12171 0.0
O5 O 0.82761 0.42407 0.09639 0.0
O6 O 0.09519 0.65254 0.14901 0.0
O7 O 0.98894 0.54839 0.09495 0.0
O8 O 0.96688 0.4567 0.09681 0.0
C9 C 0.13487 0.666 0.1252 0.0
O10 O 0.12829 0.62601 0.09851 0.0
O11 O 0.07375 0.5238 0.14772 0.0
C12 C 0.82184 0.35093 0.16835 0.0
O13 O 0.82837 0.39382 0.19249 0.0
O14 O 0.86163 0.36099 0.14514 0.0
O15 O 0.9721 0.46676 0.19425 0.0
O16 O 0.98666 0.55632 0.19549 0.0
O17 O 0.87867 0.48856 0.14491 0.0
C18 C 0.98081 0.50094 0.07788 0.0
C19 C 0.98116 0.51326 0.21296 0.0
Zn20 Zn 0.5191 0.06793 0.48827 0.0
Zn21 Zn 0.52605 0.95486 0.49343 0.0
C22 C 0.6356 0.14615 0.51593 0.0
O23 O 0.60636 0.15354 0.54334 0.0
C24 C 0.42215 0.85132 0.46953 0.0
O25 O 0.461 0.84751 0.44866 0.0
O26 O 0.51556 0.14097 0.48135 0.0
O27 O 0.48425 0.01604 0.4406 0.0
O28 O 0.54948 0.98804 0.44215 0.0
C29 C 0.50972 0.17111 0.50842 0.0
O30 O 0.489 0.14674 0.54028 0.0
O31 O 0.60738 0.10449 0.49033 0.0
C32 C 0.54077 0.87073 0.52842 0.0
O33 O 0.50287 0.87513 0.54999 0.0
O34 O 0.56007 0.90318 0.5008 0.0
O35 O 0.55026 0.00672 0.54233 0.0
O36 O 0.48627 0.0358 0.53793 0.0
O37 O 0.43845 0.89794 0.49088 0.0
C38 C 0.51625 1.0002 0.42325 0.0
C39 C 0.51749 0.02294 0.55826 0.0
Zn40 Zn 0.62969 0.59252 0.85521 0.0
Zn41 Zn 0.52247 0.59395 0.82489 0.0
C42 C 0.56179 0.47358 0.87407 0.0
O43 O 0.58655 0.49906 0.90763 0.0
C44 C 0.54103 0.70225 0.80205 0.0
O45 O 0.5106 0.66659 0.77245 0.0
O46 O 0.69872 0.5889 0.87535 0.0
O47 O 0.65074 0.62817 0.80544 0.0
O48 O 0.56033 0.57004 0.78322 0.0
C49 C 0.70897 0.55349 0.85572 0.0
O50 O 0.67974 0.52988 0.82299 0.0
O51 O 0.56933 0.50569 0.8467 0.0
C52 C 0.39501 0.51848 0.81698 0.0
O53 O 0.40233 0.48312 0.83813 0.0
O54 O 0.43963 0.56441 0.80707 0.0
O55 O 0.51616 0.5677 0.87829 0.0
O56 O 0.60701 0.6315 0.89605 0.0
O57 O 0.55697 0.68223 0.82877 0.0
C58 C 0.61489 0.59822 0.77781 0.0
C59 C 0.55429 0.59946 0.90452 0.0
O60 O 0.49543 0.01039 0.23814 0.0
Cd61 Cd 0.50503 0.01719 0.16969 0.0
O62 O 0.52201 0.94434 0.24084 0.0
Cd63 Cd 0.49488 0.91867 0.18093 0.0
O64 O 0.4113 0.8627 0.14951 0.0
C65 C 0.36784 0.86388 0.16349 0.0
O66 O 0.37763 0.90088 0.193 0.0
C67 C 0.51056 0.98092 0.25775 0.0
C68 C 0.6054 0.12528 0.16131 0.0
O69 O 0.55494 0.12057 0.16339 0.0
O70 O 0.60807 0.07817 0.16139 0.0
O71 O 0.73163 0.55009 0.62667 0.0
Cd72 Cd 0.74509 0.53583 0.55945 0.0
O73 O 0.66802 0.56748 0.59961 0.0
Cd74 Cd 0.60751 0.60023 0.59804 0.0
O75 O 0.57737 0.66048 0.58603 0.0
C76 C 0.60219 0.69391 0.55954 0.0
O77 O 0.64253 0.68885 0.54128 0.0
C78 C 0.69192 0.56335 0.62984 0.0
C79 C 0.66414 0.42116 0.53327 0.0
O80 O 0.71789 0.43695 0.54034 0.0
O81 O 0.64853 0.45965 0.538 0.0
O82 O 0.07668 0.53857 0.90545 0.0
Cd83 Cd 0.07908 0.52518 0.83661 0.0
O84 O 0.99582 0.45428 0.895 0.0
Cd85 Cd 0.90822 0.39176 0.91118 0.0
O86 O 0.8374 0.40934 0.90344 0.0
C87 C 0.84946 0.46092 0.91483 0.0
O88 O 0.89986 0.49598 0.93328 0.0
C89 C 0.03165 0.49619 0.91822 0.0
C90 C 0.17503 0.51452 0.81871 0.0
O91 O 0.17702 0.56396 0.81825 0.0
O92 O 0.1271 0.46967 0.82721 0.0
O93 O 0.04412 0.54035 0.39561 0.0
Cd94 Cd 0.0693 0.55706 0.46371 0.0
O95 O 0.94725 0.49254 0.39344 0.0
Cd96 Cd 0.93299 0.46634 0.45179 0.0
O97 O 0.87134 0.3944 0.48477 0.0
C98 C 0.8536 0.34212 0.47127 0.0
O99 O 0.87603 0.33439 0.43997 0.0
C100 C 0.99533 0.51811 0.37695 0.0
C101 C 0.18466 0.65148 0.47176 0.0
O102 O 0.17322 0.59822 0.46725 0.0
O103 O 0.14132 0.6602 0.47408 0.0
O104 O 0.54823 0.0424 0.74501 0.0
Cd105 Cd 0.55629 0.03537 0.8132 0.0
O106 O 0.50761 0.09664 0.73645 0.0
Cd107 Cd 0.51041 0.13426 0.79372 0.0
O108 O 0.52095 0.21908 0.81425 0.0
C109 C 0.50022 0.2302 0.84379 0.0
O110 O 0.47028 0.18824 0.86634 0.0
C111 C 0.52711 0.06437 0.72308 0.0
C112 C 0.55449 0.92918 0.8185 0.0
O113 O 0.50718 0.93102 0.81537 0.0
O114 O 0.6032 0.97794 0.82098 0.0
O115 O 0.54852 0.56956 0.086 0.0
Cd116 Cd 0.559 0.54685 0.1505 0.0
O117 O 0.45343 0.53182 0.07504 0.0
Cd118 Cd 0.42132 0.51234 0.13206 0.0
O119 O 0.34594 0.50923 0.15908 0.0
C120 C 0.29816 0.48338 0.13898 0.0
O121 O 0.29713 0.45746 0.10581 0.0
C122 C 0.50521 0.55702 0.0635 0.0
C123 C 0.64688 0.51745 0.1468 0.0
O124 O 0.59273 0.47857 0.14053 0.0
O125 O 0.65946 0.57008 0.1568 0.0
C126 C 0.2098 0.542 0.18904 0.0
C127 C 0.15819 0.51796 0.1657 0.0
C128 C 0.25353 0.52827 0.18134 0.0
C129 C 0.24756 0.48994 0.14993 0.0
H130 H 0.21769 0.57351 0.21271 0.0
H131 H 0.29334 0.54985 0.19933 0.0
S132 S 0.11729 0.40887 0.08291 0.0
N133 N 0.10106 0.44919 0.11205 0.0
N134 N 0.18301 0.42335 0.09759 0.0
C135 C 0.19454 0.46267 0.12776 0.0
C136 C 0.14994 0.47664 0.13564 0.0
C137 C 0.72633 0.18719 0.47884 0.0
C138 C 0.69636 0.19351 0.50971 0.0
C139 C 0.7787 0.23478 0.46793 0.0
C140 C 0.80324 0.29092 0.48724 0.0
H141 H 0.70802 0.14574 0.46189 0.0
H142 H 0.79865 0.22785 0.44307 0.0
S143 S 0.74546 0.32963 0.57258 0.0
N144 N 0.69806 0.25949 0.5616 0.0
N145 N 0.79599 0.34874 0.54087 0.0
C146 C 0.77564 0.29707 0.51957 0.0
C147 C 0.72242 0.24846 0.53086 0.0
C148 C 0.50457 0.77023 0.78925 0.0
C149 C 0.54721 0.76122 0.80671 0.0
C150 C 0.50678 0.82425 0.79414 0.0
C151 C 0.55251 0.87204 0.81597 0.0
H152 H 0.46843 0.73492 0.77206 0.0
H153 H 0.47284 0.82884 0.78005 0.0
S154 S 0.6755 0.8718 0.86746 0.0
N155 N 0.6363 0.80446 0.84711 0.0
N156 N 0.64174 0.90709 0.8552 0.0
C157 C 0.59588 0.86402 0.83334 0.0
C158 C 0.59285 0.80832 0.82906 0.0
C159 C 0.79732 0.53133 0.14691 0.0
C160 C 0.78633 0.47877 0.12705 0.0
C161 C 0.75201 0.54333 0.1534 0.0
C162 C 0.69371 0.50276 0.1409 0.0
H163 H 0.84136 0.56368 0.15734 0.0
H164 H 0.76283 0.58473 0.16845 0.0
S165 S 0.64127 0.35729 0.08887 0.0
N166 N 0.71245 0.38511 0.09565 0.0
N167 N 0.62754 0.40718 0.10826 0.0
C168 C 0.68205 0.44961 0.12147 0.0
C169 C 0.72826 0.43779 0.1144 0.0
C170 C 0.31542 0.80754 0.48182 0.0
C171 C 0.36212 0.80004 0.47049 0.0
C172 C 0.25832 0.75929 0.48251 0.0
C173 C 0.24589 0.70156 0.47253 0.0
H174 H 0.32283 0.85109 0.48966 0.0
H175 H 0.22367 0.76742 0.49087 0.0
S176 S 0.35376 0.65803 0.44304 0.0
N177 N 0.39259 0.73018 0.45046 0.0
N178 N 0.28594 0.63984 0.45213 0.0
C179 C 0.29259 0.69346 0.46197 0.0
C180 C 0.35047 0.74257 0.46083 0.0
C181 C 0.53904 0.3869 0.8296 0.0
C182 C 0.5378 0.40956 0.86643 0.0
C183 C 0.52584 0.32867 0.82262 0.0
C184 C 0.51003 0.29035 0.85203 0.0
H185 H 0.55281 0.41497 0.80617 0.0
H186 H 0.52896 0.3139 0.79391 0.0
S187 S 0.49532 0.3267 0.95301 0.0
N188 N 0.51619 0.38825 0.93234 0.0
N189 N 0.49053 0.27847 0.91909 0.0
C190 C 0.50592 0.31162 0.88868 0.0
C191 C 0.52006 0.37127 0.8959 0.0
C192 C 0.53619 0.79225 0.56674 0.0
C193 C 0.55809 0.82671 0.53552 0.0
C194 C 0.55041 0.74932 0.57403 0.0
C195 C 0.5873 0.73909 0.55049 0.0
H196 H 0.50766 0.79827 0.58586 0.0
H197 H 0.53245 0.72422 0.59853 0.0
S198 S 0.65561 0.81668 0.46454 0.0
N199 N 0.61814 0.84725 0.48051 0.0
N200 N 0.64502 0.7666 0.49425 0.0
C201 C 0.60952 0.77313 0.51907 0.0
C202 C 0.59492 0.81691 0.5116 0.0
C203 C 0.73945 0.4785 0.85605 0.0
C204 C 0.74577 0.53172 0.87168 0.0
C205 C 0.77163 0.45499 0.87111 0.0
C206 C 0.81202 0.48408 0.90216 0.0
H207 H 0.70897 0.45427 0.83209 0.0
H208 H 0.76561 0.41428 0.85767 0.0
S209 S 0.84369 0.62388 0.95435 0.0
N210 N 0.79422 0.61212 0.9207 0.0
N211 N 0.85544 0.56822 0.94883 0.0
C212 C 0.81837 0.53703 0.91842 0.0
C213 C 0.78508 0.56076 0.90324 0.0
C214 C 0.24094 0.72741 0.11247 0.0
C215 C 0.19198 0.72144 0.13145 0.0
C216 C 0.29725 0.77503 0.12178 0.0
C217 C 0.30699 0.81884 0.15037 0.0
H218 H 0.23635 0.69378 0.09132 0.0
H219 H 0.33362 0.77618 0.10735 0.0
S220 S 0.19235 0.82818 0.20484 0.0
N221 N 0.1561 0.76658 0.17744 0.0
N222 N 0.26172 0.85626 0.19484 0.0
C223 C 0.25789 0.8154 0.16788 0.0
C224 C 0.2005 0.76669 0.15847 0.0
C225 C 0.5306 0.26998 0.5348 0.0
C226 C 0.54328 0.23603 0.50871 0.0
C227 C 0.5684 0.33084 0.54098 0.0
C228 C 0.62091 0.35937 0.52209 0.0
H229 H 0.49227 0.24908 0.55155 0.0
H230 H 0.55809 0.35512 0.56223 0.0
S231 S 0.67198 0.29256 0.44819 0.0
N232 N 0.60983 0.23725 0.46105 0.0
N233 N 0.68175 0.35101 0.47427 0.0
C234 C 0.633 0.32675 0.49481 0.0
C235 C 0.59384 0.2652 0.48763 0.0
C236 C 0.28817 0.46822 0.82912 0.0
C237 C 0.33628 0.51171 0.81108 0.0
C238 C 0.23487 0.46746 0.82967 0.0
C239 C 0.22795 0.51046 0.8125 0.0
H240 H 0.29234 0.43607 0.84446 0.0
H241 H 0.19993 0.43479 0.84538 0.0
S242 S 0.33672 0.6278 0.75608 0.0
N243 N 0.37062 0.59423 0.77125 0.0
N244 N 0.27084 0.5932 0.77306 0.0
C245 C 0.2742 0.5517 0.7922 0.0
C246 C 0.32823 0.55215 0.79123 0.0
C247 C 0.76525 0.24191 0.1537 0.0
C248 C 0.76625 0.29409 0.16561 0.0
C249 C 0.71289 0.18755 0.15184 0.0
C250 C 0.65942 0.1836 0.161 0.0
H251 H 0.8054 0.2429 0.14656 0.0
H252 H 0.71445 0.14832 0.14334 0.0
S253 S 0.63821 0.30861 0.19079 0.0
N254 N 0.70909 0.33911 0.18488 0.0
N255 N 0.61072 0.23751 0.18072 0.0
C256 C 0.65971 0.23592 0.17173 0.0
C257 C 0.71311 0.29101 0.17423 0.0
C258 C 0.01474 0.54961 0.01682 0.0
C259 C 0.9923 0.49857 0.03688 0.0
C260 C 0.02829 0.54892 0.97852 0.0
C261 C 0.01908 0.497 0.95879 0.0
H262 H 0.02241 0.59063 0.03081 0.0
H263 H 0.04519 0.58903 0.9641 0.0
S264 S 0.96519 0.35255 -0.00173 0.0
N265 N 0.96383 0.39507 0.03392 0.0
N266 N 0.98969 0.39441 0.96225 0.0
C267 C 0.99749 0.44599 0.97843 0.0
C268 C 0.98393 0.44658 0.01737 0.0
C269 C 0.53383 0.96172 0.36137 0.0
C270 C 0.51551 0.99692 0.3812 0.0
C271 C 0.53243 0.9571 0.32153 0.0
C272 C 0.51319 0.98798 0.29994 0.0
H273 H 0.54855 0.93676 0.3767 0.0
H274 H 0.54634 0.92885 0.30762 0.0
S275 S 0.46393 0.08911 0.33852 0.0
N276 N 0.47972 0.06507 0.37646 0.0
N277 N 0.47731 0.0568 0.30178 0.0
C278 C 0.49581 0.0243 0.31956 0.0
C279 C 0.49686 0.02861 0.36009 0.0
C280 C 0.59683 0.56588 0.70846 0.0
C281 C 0.63653 0.59216 0.74017 0.0
C282 C 0.61531 0.55717 0.67291 0.0
C283 C 0.67416 0.57429 0.66759 0.0
H284 H 0.55088 0.55141 0.71109 0.0
H285 H 0.58279 0.5354 0.64966 0.0
S286 S 0.79579 0.64427 0.74115 0.0
N287 N 0.73784 0.63492 0.76376 0.0
N288 N 0.77215 0.61828 0.69681 0.0
C289 C 0.71438 0.60035 0.69893 0.0
C290 C 0.69573 0.6096 0.73518 0.0
C291 C 0.49335 0.06133 0.61762 0.0
C292 C 0.51954 0.03153 0.60031 0.0
C293 C 0.49609 0.07162 0.65718 0.0
C294 C 0.52469 0.05213 0.68122 0.0
H295 H 0.47094 0.07745 0.60055 0.0
H296 H 0.47545 0.09515 0.66891 0.0
S297 S 0.59849 0.96969 0.65021 0.0
N298 N 0.57396 0.98129 0.61033 0.0
N299 N 0.5787 1.00014 0.68461 0.0
C300 C 0.55039 0.02143 0.66431 0.0
C301 C 0.54791 0.0113 0.62394 0.0
C302 C 0.58511 0.61487 0.97344 0.0
C303 C 0.53979 0.59179 0.94499 0.0
C304 C 0.57329 0.6042 0.0116 0.0
C305 C 0.51555 0.57026 0.02305 0.0
H306 H 0.63047 0.64031 0.9662 0.0
H307 H 0.60998 0.62223 0.03217 0.0
S308 S 0.3806 0.50275 0.95988 0.0
N309 N 0.43454 0.53567 0.93104 0.0
N310 N 0.41213 0.51561 0.00279 0.0
C311 C 0.46955 0.54837 0.99503 0.0
C312 C 0.48168 0.55908 0.95604 0.0
C313 C 0.95372 0.53393 0.27691 0.0
C314 C 0.98753 0.5176 0.25465 0.0
C315 C 0.95634 0.53398 0.31669 0.0
C316 C 0.99438 0.51974 0.33529 0.0
H317 H 0.92382 0.54494 0.26346 0.0
H318 H 0.92866 0.54543 0.33299 0.0
S319 S 0.09353 0.47629 0.28954 0.0
N320 N 0.06012 0.48715 0.25374 0.0
N321 N 0.06742 0.49027 0.32852 0.0
C322 C 0.0296 0.50504 0.31328 0.0
C323 C 0.02551 0.50315 0.27288 0.0
loop_
_geom_bond_atom_site_label_1
_geom_bond_atom_site_label_2
_geom_bond_distance
_geom_bond_site_symmetry_2
_ccdc_geom_bond_type
Zn0 O6 1.969 . S
Zn0 O7 1.965 . S
Zn0 O11 2.024 . S
Zn0 O16 1.969 . S
Zn1 O8 1.969 . S
Zn1 O14 1.969 . S
Zn1 O15 1.965 . S
Zn1 O17 2.024 . S
C2 O3 1.229 . S
C2 O11 1.058 . S
O3 C2 1.229 . S
C4 O5 1.229 . S
C4 O17 1.058 . S
O5 C4 1.229 . S
O6 Zn0 1.969 . S
O6 C9 1.267 . S
O7 Zn0 1.965 . S
O7 C18 1.260 . S
O8 Zn1 1.969 . S
O8 C18 1.258 1_655 S
C9 O6 1.267 . S
C9 O10 1.228 . S
O10 C9 1.228 . S
O11 Zn0 2.024 . S
O11 C2 1.058 . S
C12 O13 1.228 . S
C12 O14 1.267 . S
O13 C12 1.228 . S
O14 Zn1 1.969 . S
O14 C12 1.267 . S
O15 Zn1 1.965 . S
O15 C19 1.260 1_655 S
O16 Zn0 1.969 . S
O16 C19 1.258 . S
O17 Zn1 2.024 . S
O17 C4 1.058 . S
C18 O7 1.260 . S
C18 O8 1.258 1_455 S
C19 O15 1.260 1_455 S
C19 O16 1.258 . S
Zn20 O26 1.969 . S
Zn20 O27 1.965 . S
Zn20 O31 2.024 . S
Zn20 O36 1.969 . S
Zn21 O28 1.969 . S
Zn21 O34 1.969 . S
Zn21 O35 1.965 . S
Zn21 O37 2.024 . S
C22 O23 1.229 . S
C22 O31 1.058 . S
O23 C22 1.229 . S
C24 O25 1.229 . S
C24 O37 1.058 . S
O25 C24 1.229 . S
O26 Zn20 1.969 . S
O26 C29 1.267 . S
O27 Zn20 1.965 . S
O27 C38 1.260 . S
O28 Zn21 1.969 . S
O28 C38 1.258 1_565 S
C29 O26 1.267 . S
C29 O30 1.228 . S
O30 C29 1.228 . S
O31 Zn20 2.024 . S
O31 C22 1.058 . S
C32 O33 1.228 . S
C32 O34 1.267 . S
O33 C32 1.228 . S
O34 Zn21 1.969 . S
O34 C32 1.267 . S
O35 Zn21 1.965 . S
O35 C39 1.260 1_565 S
O36 Zn20 1.969 . S
O36 C39 1.258 . S
O37 Zn21 2.024 . S
O37 C24 1.058 . S
C38 O27 1.260 . S
C38 O28 1.258 1_545 S
C39 O35 1.260 1_545 S
C39 O36 1.258 . S
Zn40 O46 1.969 . S
Zn40 O47 1.965 . S
Zn40 O51 2.024 . S
Zn40 O56 1.969 . S
Zn41 O48 1.969 . S
Zn41 O54 1.969 . S
Zn41 O55 1.965 . S
Zn41 O57 2.024 . S
C42 O43 1.229 . S
C42 O51 1.058 . S
O43 C42 1.229 . S
C44 O45 1.229 . S
C44 O57 1.058 . S
O45 C44 1.229 . S
O46 Zn40 1.969 . S
O46 C49 1.267 . S
O47 Zn40 1.965 . S
O47 C58 1.260 . S
O48 Zn41 1.969 . S
O48 C58 1.258 . S
C49 O46 1.267 . S
C49 O50 1.228 . S
O50 C49 1.228 . S
O51 Zn40 2.024 . S
O51 C42 1.058 . S
C52 O53 1.228 . S
C52 O54 1.267 . S
O53 C52 1.228 . S
O54 Zn41 1.969 . S
O54 C52 1.267 . S
O55 Zn41 1.965 . S
O55 C59 1.260 . S
O56 Zn40 1.969 . S
O56 C59 1.258 . S
O57 Zn41 2.024 . S
O57 C44 1.058 . S
C58 O47 1.260 . S
C58 O48 1.258 . S
C59 O55 1.260 . S
C59 O56 1.258 . S
O60 Cd61 2.300 . S
O60 C67 1.275 . S
Cd61 O60 2.300 . S
Cd61 O69 2.381 . S
Cd61 O70 2.378 . S
O62 Cd63 2.385 . S
O62 C67 1.255 1_565 S
Cd63 O62 2.385 . S
Cd63 O64 2.317 . S
O64 Cd63 2.317 . S
O64 C65 1.232 . S
C65 O64 1.232 . S
C65 O66 1.218 . S
O66 C65 1.218 . S
C67 O60 1.275 . S
C67 O62 1.255 1_545 S
C68 O69 1.258 . S
C68 O70 1.256 . S
O69 Cd61 2.381 . S
O69 C68 1.258 . S
O70 Cd61 2.378 . S
O70 C68 1.256 . S
O71 Cd72 2.300 . S
O71 C78 1.275 . S
Cd72 O71 2.300 . S
Cd72 O80 2.381 . S
Cd72 O81 2.378 . S
O73 Cd74 2.385 . S
O73 C78 1.255 . S
Cd74 O73 2.385 . S
Cd74 O75 2.317 . S
O75 Cd74 2.317 . S
O75 C76 1.232 . S
C76 O75 1.232 . S
C76 O77 1.218 . S
O77 C76 1.218 . S
C78 O71 1.275 . S
C78 O73 1.255 . S
C79 O80 1.258 . S
C79 O81 1.256 . S
O80 Cd72 2.381 . S
O80 C79 1.258 . S
O81 Cd72 2.378 . S
O81 C79 1.256 . S
O82 Cd83 2.300 . S
O82 C89 1.275 . S
Cd83 O82 2.300 . S
Cd83 O91 2.381 . S
Cd83 O92 2.378 . S
O84 Cd85 2.385 . S
O84 C89 1.255 1_655 S
Cd85 O84 2.385 . S
Cd85 O86 2.317 . S
O86 Cd85 2.317 . S
O86 C87 1.232 . S
C87 O86 1.232 . S
C87 O88 1.218 . S
O88 C87 1.218 . S
C89 O82 1.275 . S
C89 O84 1.255 1_455 S
C90 O91 1.258 . S
C90 O92 1.256 . S
O91 Cd83 2.381 . S
O91 C90 1.258 . S
O92 Cd83 2.378 . S
O92 C90 1.256 . S
O93 Cd94 2.300 . S
O93 C100 1.275 . S
Cd94 O93 2.300 . S
Cd94 O102 2.381 . S
Cd94 O103 2.378 . S
O95 Cd96 2.385 . S
O95 C100 1.255 1_655 S
Cd96 O95 2.385 . S
Cd96 O97 2.317 . S
O97 Cd96 2.317 . S
O97 C98 1.232 . S
C98 O97 1.232 . S
C98 O99 1.218 . S
O99 C98 1.218 . S
C100 O93 1.275 . S
C100 O95 1.255 1_455 S
C101 O102 1.258 . S
C101 O103 1.256 . S
O102 Cd94 2.381 . S
O102 C101 1.258 . S
O103 Cd94 2.378 . S
O103 C101 1.256 . S
O104 Cd105 2.300 . S
O104 C111 1.275 1_565 S
Cd105 O104 2.300 . S
Cd105 O113 2.381 . S
Cd105 O114 2.378 . S
O106 Cd107 2.385 . S
O106 C111 1.255 . S
Cd107 O106 2.385 . S
Cd107 O108 2.317 . S
O108 Cd107 2.317 . S
O108 C109 1.232 . S
C109 O108 1.232 . S
C109 O110 1.218 . S
O110 C109 1.218 . S
C111 O104 1.275 1_545 S
C111 O106 1.255 . S
C112 O113 1.258 . S
C112 O114 1.256 . S
O113 Cd105 2.381 . S
O113 C112 1.258 . S
O114 Cd105 2.378 . S
O114 C112 1.256 . S
O115 Cd116 2.300 . S
O115 C122 1.275 . S
Cd116 O115 2.300 . S
Cd116 O124 2.381 . S
Cd116 O125 2.378 . S
O117 Cd118 2.385 . S
O117 C122 1.255 . S
Cd118 O117 2.385 . S
Cd118 O119 2.317 . S
O119 Cd118 2.317 . S
O119 C120 1.232 . S
C120 O119 1.232 . S
C120 O121 1.218 . S
O121 C120 1.218 . S
C122 O115 1.275 . S
C122 O117 1.255 . S
C123 O124 1.258 . S
C123 O125 1.256 . S
O124 Cd116 2.381 . S
O124 C123 1.258 . S
O125 Cd116 2.378 . S
O125 C123 1.256 . S
C126 C127 1.369 . S
C126 C128 1.419 . S
C126 H130 0.930 . S
C127 C126 1.369 . S
C127 C136 1.429 . S
C128 C126 1.419 . S
C128 C129 1.363 . S
C128 H131 0.929 . S
C129 C128 1.363 . S
C129 C135 1.428 . S
H130 C126 0.930 . S
H131 C128 0.929 . S
S132 N133 1.613 . S
S132 N134 1.610 . S
N133 S132 1.613 . S
N133 C136 1.350 . S
N134 S132 1.610 . S
N134 C135 1.351 . S
C135 C129 1.428 . S
C135 N134 1.351 . S
C135 C136 1.434 . S
C136 C127 1.429 . S
C136 N133 1.350 . S
C136 C135 1.434 . S
C137 C138 1.369 . S
C137 C139 1.419 . S
C137 H141 0.930 . S
C138 C137 1.369 . S
C138 C147 1.429 . S
C139 C137 1.419 . S
C139 C140 1.363 . S
C139 H142 0.929 . S
C140 C139 1.363 . S
C140 C146 1.428 . S
H141 C137 0.930 . S
H142 C139 0.929 . S
S143 N144 1.613 . S
S143 N145 1.610 . S
N144 S143 1.613 . S
N144 C147 1.350 . S
N145 S143 1.610 . S
N145 C146 1.351 . S
C146 C140 1.428 . S
C146 N145 1.351 . S
C146 C147 1.434 . S
C147 C138 1.429 . S
C147 N144 1.350 . S
C147 C146 1.434 . S
C148 C149 1.369 . S
C148 C150 1.419 . S
C148 H152 0.930 . S
C149 C148 1.369 . S
C149 C158 1.429 . S
C150 C148 1.419 . S
C150 C151 1.363 . S
C150 H153 0.929 . S
C151 C150 1.363 . S
C151 C157 1.428 . S
H152 C148 0.930 . S
H153 C150 0.929 . S
S154 N155 1.613 . S
S154 N156 1.610 . S
N155 S154 1.613 . S
N155 C158 1.350 . S
N156 S154 1.610 . S
N156 C157 1.351 . S
C157 C151 1.428 . S
C157 N156 1.351 . S
C157 C158 1.434 . S
C158 C149 1.429 . S
C158 N155 1.350 . S
C158 C157 1.434 . S
C159 C160 1.369 . S
C159 C161 1.419 . S
C159 H163 0.930 . S
C160 C159 1.369 . S
C160 C169 1.429 . S
C161 C159 1.419 . S
C161 C162 1.363 . S
C161 H164 0.929 . S
C162 C161 1.363 . S
C162 C168 1.428 . S
H163 C159 0.930 . S
H164 C161 0.929 . S
S165 N166 1.613 . S
S165 N167 1.610 . S
N166 S165 1.613 . S
N166 C169 1.350 . S
N167 S165 1.610 . S
N167 C168 1.351 . S
C168 C162 1.428 . S
C168 N167 1.351 . S
C168 C169 1.434 . S
C169 C160 1.429 . S
C169 N166 1.350 . S
C169 C168 1.434 . S
C170 C171 1.369 . S
C170 C172 1.419 . S
C170 H174 0.930 . S
C171 C170 1.369 . S
C171 C180 1.429 . S
C172 C170 1.419 . S
C172 C173 1.363 . S
C172 H175 0.929 . S
C173 C172 1.363 . S
C173 C179 1.428 . S
H174 C170 0.930 . S
H175 C172 0.929 . S
S176 N177 1.613 . S
S176 N178 1.610 . S
N177 S176 1.613 . S
N177 C180 1.350 . S
N178 S176 1.610 . S
N178 C179 1.351 . S
C179 C173 1.428 . S
C179 N178 1.351 . S
C179 C180 1.434 . S
C180 C171 1.429 . S
C180 N177 1.350 . S
C180 C179 1.434 . S
C181 C182 1.369 . S
C181 C183 1.419 . S
C181 H185 0.930 . S
C182 C181 1.369 . S
C182 C191 1.429 . S
C183 C181 1.419 . S
C183 C184 1.363 . S
C183 H186 0.929 . S
C184 C183 1.363 . S
C184 C190 1.428 . S
H185 C181 0.930 . S
H186 C183 0.929 . S
S187 N188 1.613 . S
S187 N189 1.610 . S
N188 S187 1.613 . S
N188 C191 1.350 . S
N189 S187 1.610 . S
N189 C190 1.351 . S
C190 C184 1.428 . S
C190 N189 1.351 . S
C190 C191 1.434 . S
C191 C182 1.429 . S
C191 N188 1.350 . S
C191 C190 1.434 . S
C192 C193 1.369 . S
C192 C194 1.419 . S
C192 H196 0.930 . S
C193 C192 1.369 . S
C193 C202 1.429 . S
C194 C192 1.419 . S
C194 C195 1.363 . S
C194 H197 0.929 . S
C195 C194 1.363 . S
C195 C201 1.428 . S
H196 C192 0.930 . S
H197 C194 0.929 . S
S198 N199 1.613 . S
S198 N200 1.610 . S
N199 S198 1.613 . S
N199 C202 1.350 . S
N200 S198 1.610 . S
N200 C201 1.351 . S
C201 C195 1.428 . S
C201 N200 1.351 . S
C201 C202 1.434 . S
C202 C193 1.429 . S
C202 N199 1.350 . S
C202 C201 1.434 . S
C203 C204 1.369 . S
C203 C205 1.419 . S
C203 H207 0.930 . S
C204 C203 1.369 . S
C204 C213 1.429 . S
C205 C203 1.419 . S
C205 C206 1.363 . S
C205 H208 0.929 . S
C206 C205 1.363 . S
C206 C212 1.428 . S
H207 C203 0.930 . S
H208 C205 0.929 . S
S209 N210 1.613 . S
S209 N211 1.610 . S
N210 S209 1.613 . S
N210 C213 1.350 . S
N211 S209 1.610 . S
N211 C212 1.351 . S
C212 C206 1.428 . S
C212 N211 1.351 . S
C212 C213 1.434 . S
C213 C204 1.429 . S
C213 N210 1.350 . S
C213 C212 1.434 . S
C214 C215 1.369 . S
C214 C216 1.419 . S
C214 H218 0.930 . S
C215 C214 1.369 . S
C215 C224 1.429 . S
C216 C214 1.419 . S
C216 C217 1.363 . S
C216 H219 0.929 . S
C217 C216 1.363 . S
C217 C223 1.428 . S
H218 C214 0.930 . S
H219 C216 0.929 . S
S220 N221 1.613 . S
S220 N222 1.610 . S
N221 S220 1.613 . S
N221 C224 1.350 . S
N222 S220 1.610 . S
N222 C223 1.351 . S
C223 C217 1.428 . S
C223 N222 1.351 . S
C223 C224 1.434 . S
C224 C215 1.429 . S
C224 N221 1.350 . S
C224 C223 1.434 . S
C225 C226 1.369 . S
C225 C227 1.419 . S
C225 H229 0.930 . S
C226 C225 1.369 . S
C226 C235 1.429 . S
C227 C225 1.419 . S
C227 C228 1.363 . S
C227 H230 0.929 . S
C228 C227 1.363 . S
C228 C234 1.428 . S
H229 C225 0.930 . S
H230 C227 0.929 . S
S231 N232 1.613 . S
S231 N233 1.610 . S
N232 S231 1.613 . S
N232 C235 1.350 . S
N233 S231 1.610 . S
N233 C234 1.351 . S
C234 C228 1.428 . S
C234 N233 1.351 . S
C234 C235 1.434 . S
C235 C226 1.429 . S
C235 N232 1.350 . S
C235 C234 1.434 . S
C236 C237 1.369 . S
C236 C238 1.419 . S
C236 H240 0.930 . S
C237 C236 1.369 . S
C237 C246 1.429 . S
C238 C236 1.419 . S
C238 C239 1.363 . S
C238 H241 0.929 . S
C239 C238 1.363 . S
C239 C245 1.428 . S
H240 C236 0.930 . S
H241 C238 0.929 . S
S242 N243 1.613 . S
S242 N244 1.610 . S
N243 S242 1.613 . S
N243 C246 1.350 . S
N244 S242 1.610 . S
N244 C245 1.351 . S
C245 C239 1.428 . S
C245 N244 1.351 . S
C245 C246 1.434 . S
C246 C237 1.429 . S
C246 N243 1.350 . S
C246 C245 1.434 . S
C247 C248 1.369 . S
C247 C249 1.419 . S
C247 H251 0.930 . S
C248 C247 1.369 . S
C248 C257 1.429 . S
C249 C247 1.419 . S
C249 C250 1.363 . S
C249 H252 0.929 . S
C250 C249 1.363 . S
C250 C256 1.428 . S
H251 C247 0.930 . S
H252 C249 0.929 . S
S253 N254 1.613 . S
S253 N255 1.610 . S
N254 S253 1.613 . S
N254 C257 1.350 . S
N255 S253 1.610 . S
N255 C256 1.351 . S
C256 C250 1.428 . S
C256 N255 1.351 . S
C256 C257 1.434 . S
C257 C248 1.429 . S
C257 N254 1.350 . S
C257 C256 1.434 . S
C258 C259 1.369 . S
C258 C260 1.419 . S
C258 H262 0.930 . S
C259 C258 1.369 . S
C259 C268 1.429 1_455 S
C260 C258 1.419 . S
C260 C261 1.363 1_554 S
C260 H263 0.929 . S
C261 C260 1.363 1_556 S
C261 C267 1.429 1_456 S
H262 C258 0.930 . S
H263 C260 0.929 . S
S264 N265 1.613 . S
S264 N266 1.610 1_554 S
N265 S264 1.613 . S
N265 C268 1.350 . S
N266 S264 1.610 1_556 S
N266 C267 1.352 1_556 S
C267 C261 1.429 1_654 S
C267 N266 1.352 1_554 S
C267 C268 1.432 . S
C268 C259 1.429 1_655 S
C268 N265 1.350 . S
C268 C267 1.432 . S
C269 C270 1.369 1_565 S
C269 C271 1.419 . S
C269 H273 0.930 . S
C270 C269 1.369 1_545 S
C270 C279 1.429 . S
C271 C269 1.419 . S
C271 C272 1.363 1_565 S
C271 H274 0.929 . S
C272 C271 1.363 1_545 S
C272 C278 1.428 . S
H273 C269 0.930 . S
H274 C271 0.929 . S
S275 N276 1.613 . S
S275 N277 1.610 . S
N276 S275 1.613 . S
N276 C279 1.350 . S
N277 S275 1.610 . S
N277 C278 1.351 . S
C278 C272 1.428 . S
C278 N277 1.351 . S
C278 C279 1.434 . S
C279 C270 1.429 . S
C279 N276 1.350 . S
C279 C278 1.434 . S
C280 C281 1.369 . S
C280 C282 1.419 . S
C280 H284 0.930 . S
C281 C280 1.369 . S
C281 C290 1.429 . S
C282 C280 1.419 . S
C282 C283 1.363 . S
C282 H285 0.929 . S
C283 C282 1.363 . S
C283 C289 1.428 . S
H284 C280 0.930 . S
H285 C282 0.929 . S
S286 N287 1.613 . S
S286 N288 1.610 . S
N287 S286 1.613 . S
N287 C290 1.350 . S
N288 S286 1.610 . S
N288 C289 1.351 . S
C289 C283 1.428 . S
C289 N288 1.351 . S
C289 C290 1.434 . S
C290 C281 1.429 . S
C290 N287 1.350 . S
C290 C289 1.434 . S
C291 C292 1.369 . S
C291 C293 1.419 . S
C291 H295 0.930 . S
C292 C291 1.369 . S
C292 C301 1.429 1_545 S
C293 C291 1.419 . S
C293 C294 1.363 . S
C293 H296 0.929 . S
C294 C293 1.363 . S
C294 C300 1.428 1_545 S
H295 C291 0.930 . S
H296 C293 0.929 . S
S297 N298 1.613 . S
S297 N299 1.610 . S
N298 S297 1.613 . S
N298 C301 1.350 . S
N299 S297 1.610 . S
N299 C300 1.351 . S
C300 C294 1.428 1_565 S
C300 N299 1.351 . S
C300 C301 1.434 . S
C301 C292 1.429 1_565 S
C301 N298 1.350 . S
C301 C300 1.434 . S
C302 C303 1.369 . S
C302 C304 1.419 . S
C302 H306 0.930 . S
C303 C302 1.369 . S
C303 C312 1.429 . S
C304 C302 1.419 . S
C304 C305 1.363 1_556 S
C304 H307 0.929 1_556 S
C305 C304 1.363 1_554 S
C305 C311 1.428 1_554 S
H306 C302 0.930 . S
H307 C304 0.929 1_554 S
S308 N309 1.613 . S
S308 N310 1.610 1_556 S
N309 S308 1.613 . S
N309 C312 1.350 . S
N310 S308 1.610 1_554 S
N310 C311 1.351 1_554 S
C311 C305 1.428 1_556 S
C311 N310 1.351 1_556 S
C311 C312 1.434 . S
C312 C303 1.429 . S
C312 N309 1.350 . S
C312 C311 1.434 . S
C313 C314 1.369 1_655 S
C313 C315 1.419 . S
C313 H317 0.930 . S
C314 C313 1.369 1_455 S
C314 C323 1.429 . S
C315 C313 1.419 . S
C315 C316 1.363 1_655 S
C315 H318 0.929 . S
C316 C315 1.363 1_455 S
C316 C322 1.428 . S
H317 C313 0.930 . S
H318 C315 0.929 . S
S319 N320 1.613 . S
S319 N321 1.610 . S
N320 S319 1.613 . S
N320 C323 1.350 . S
N321 S319 1.610 . S
N321 C322 1.351 . S
C322 C316 1.428 . S
C322 N321 1.351 . S
C322 C323 1.434 . S
C323 C314 1.429 . S
C323 N320 1.350 . S
C323 C322 1.434 . S
C127 C2 1.531 . S
C129 C120 1.418 . S
C138 C22 1.528 . S
C140 C98 1.434 . S
C149 C44 1.383 . S
C151 C112 1.420 . S
C160 C4 1.472 . S
C162 C123 1.511 . S
C173 C101 1.514 . S
C171 C24 1.491 . S
C184 C109 1.486 . S
C182 C42 1.604 . S
C193 C32 1.444 . S
C195 C76 1.222 . S
C204 C49 1.403 . S
C206 C87 1.210 . S
C215 C9 1.399 . S
C217 C65 1.212 . S
C228 C79 1.201 . S
C226 C29 1.182 . S
C239 C90 1.241 . S
C237 C52 1.230 . S
C248 C12 1.225 . S
C250 C68 1.228 . S
C261 C89 1.401 . S
C259 C18 1.458 . S
C270 C38 1.458 . S
C272 C67 1.403 . S
C281 C58 1.470 . S
C283 C78 1.414 . S
C294 C111 1.458 . S
C292 C39 1.526 . S
C305 C122 1.461 . S
C303 C59 1.534 . S
C314 C19 1.529 . S
C316 C100 1.467 . S
