# Generated by pormake.
# Topology zzz, (3,6)-cn, num edge types: 1
# Building blocks:
#     Node 0, Type 0, BuildingBlock: WUSLED_clean_sbu_0, # of connection points: 3
#     Node 1, Type 0, BuildingBlock: WUSLED_clean_sbu_0, # of connection points: 3
#     Node 2, Type 0, BuildingBlock: WUSLED_clean_sbu_0, # of connection points: 3
#     Node 3, Type 0, BuildingBlock: WUSLED_clean_sbu_0, # of connection points: 3
#     Node 4, Type 0, BuildingBlock: WUSLED_clean_sbu_0, # of connection points: 3
#     Node 5, Type 0, BuildingBlock: WUSLED_clean_sbu_0, # of connection points: 3
#     Node 6, Type 0, BuildingBlock: WUSLED_clean_sbu_0, # of connection points: 3
#     Node 7, Type 0, BuildingBlock: WUSLED_clean_sbu_0, # of connection points: 3
#     Node 8, Type 1, BuildingBlock: GEDQOX_clean_sbu_0, # of connection points: 6
#     Node 9, Type 1, BuildingBlock: GEDQOX_clean_sbu_0, # of connection points: 6
#     Node 10, Type 1, BuildingBlock: GEDQOX_clean_sbu_0, # of connection points: 6
#     Node 11, Type 1, BuildingBlock: GEDQOX_clean_sbu_0, # of connection points: 6
#     Edge 12, Type (0, 1), BuildingBlock: EZIPEK_clean_linker_0, # of connection points: 2
#     Edge 13, Type (0, 1), BuildingBlock: EZIPEK_clean_linker_0, # of connection points: 2
#     Edge 14, Type (0, 1), BuildingBlock: EZIPEK_clean_linker_0, # of connection points: 2
#     Edge 15, Type (0, 1), BuildingBlock: EZIPEK_clean_linker_0, # of connection points: 2
#     Edge 16, Type (0, 1), BuildingBlock: EZIPEK_clean_linker_0, # of connection points: 2
#     Edge 17, Type (0, 1), BuildingBlock: EZIPEK_clean_linker_0, # of connection points: 2
#     Edge 18, Type (0, 1), BuildingBlock: EZIPEK_clean_linker_0, # of connection points: 2
#     Edge 19, Type (0, 1), BuildingBlock: EZIPEK_clean_linker_0, # of connection points: 2
#     Edge 20, Type (0, 1), BuildingBlock: EZIPEK_clean_linker_0, # of connection points: 2
#     Edge 21, Type (0, 1), BuildingBlock: EZIPEK_clean_linker_0, # of connection points: 2
#     Edge 22, Type (0, 1), BuildingBlock: EZIPEK_clean_linker_0, # of connection points: 2
#     Edge 23, Type (0, 1), BuildingBlock: EZIPEK_clean_linker_0, # of connection points: 2
#     Edge 24, Type (0, 1), BuildingBlock: EZIPEK_clean_linker_0, # of connection points: 2
#     Edge 25, Type (0, 1), BuildingBlock: EZIPEK_clean_linker_0, # of connection points: 2
#     Edge 26, Type (0, 1), BuildingBlock: EZIPEK_clean_linker_0, # of connection points: 2
#     Edge 27, Type (0, 1), BuildingBlock: EZIPEK_clean_linker_0, # of connection points: 2
#     Edge 28, Type (0, 1), BuildingBlock: EZIPEK_clean_linker_0, # of connection points: 2
#     Edge 29, Type (0, 1), BuildingBlock: EZIPEK_clean_linker_0, # of connection points: 2
#     Edge 30, Type (0, 1), BuildingBlock: EZIPEK_clean_linker_0, # of connection points: 2
#     Edge 31, Type (0, 1), BuildingBlock: EZIPEK_clean_linker_0, # of connection points: 2
#     Edge 32, Type (0, 1), BuildingBlock: EZIPEK_clean_linker_0, # of connection points: 2
#     Edge 33, Type (0, 1), BuildingBlock: EZIPEK_clean_linker_0, # of connection points: 2
#     Edge 34, Type (0, 1), BuildingBlock: EZIPEK_clean_linker_0, # of connection points: 2
#     Edge 35, Type (0, 1), BuildingBlock: EZIPEK_clean_linker_0, # of connection points: 2
# Relax obj value: 0.297
# Max RMSD: 0.291
# Mean RMSD: 0.190
data_MOF--net-zzz--node1-WUSLED_clean_sbu_0--node2-GEDQOX_clean_sbu_0--edge1-EZIPEK_clean_linker_0
_symmetry_space_group_name_H-M    P1
_symmetry_Int_Tables_number       1
_symmetry_cell_setting            triclinic
loop_
_symmetry_equiv_pos_as_xyz
'x, y, z'
_cell_length_a     53.671696
_cell_length_b     50.101578
_cell_length_c     19.065962
_cell_angle_alpha  80.964513
_cell_angle_beta   90.85073
_cell_angle_gamma 103.08897
loop_
_atom_site_label
_atom_site_type_symbol
_atom_site_fract_x
_atom_site_fract_y
_atom_site_fract_z
_atom_type_partial_charge
C0 C 0.82922 0.51856 0.22195 0.0
C1 C 0.83138 0.49923 0.2824 0.0
C2 C 0.86521 0.53326 0.32611 0.0
C3 C 0.84928 0.50654 0.33412 0.0
C4 C 0.86346 0.55241 0.26526 0.0
C5 C 0.84562 0.54512 0.21351 0.0
U6 U 0.77403 0.50008 0.07628 0.0
O7 O 0.73421 0.48829 0.11673 0.0
O8 O 0.74978 0.53026 0.05916 0.0
C9 C 0.72959 0.51243 0.08942 0.0
C10 C 0.80919 0.51163 0.16963 0.0
C11 C 0.70585 0.51175 0.05031 0.0
C12 C 0.66525 0.5252 0.03768 0.0
C13 C 0.68777 0.5246 0.07448 0.0
C14 C 0.67857 0.5 0.95164 0.0
C15 C 0.66053 0.51298 0.97609 0.0
C16 C 0.70127 0.49947 0.98859 0.0
C17 C 0.81027 0.47227 0.94743 0.0
C18 C 0.85178 0.48842 0.88708 0.0
C19 C 0.84313 0.4457 0.97137 0.0
C20 C 0.81827 0.44876 0.98226 0.0
C21 C 0.86032 0.46623 0.92617 0.0
C22 C 0.8269 0.49131 0.89719 0.0
C23 C 0.78605 0.47874 0.96805 0.0
O24 O 0.80686 0.52929 0.11251 0.0
O25 O 0.79273 0.48748 0.17624 0.0
O26 O 0.77411 0.46349 0.02557 0.0
O27 O 0.78687 0.50533 0.96517 0.0
H28 H 0.81899 0.47863 0.29031 0.0
H29 H 0.85047 0.49153 0.38089 0.0
H30 H 0.87566 0.57311 0.2584 0.0
H31 H 0.84438 0.56045 0.16754 0.0
H32 H 0.65141 0.53511 0.05738 0.0
H33 H 0.69112 0.53426 0.12183 0.0
H34 H 0.67502 0.49029 0.90444 0.0
H35 H 0.71519 0.48959 0.96918 0.0
H36 H 0.86478 0.50426 0.85137 0.0
H37 H 0.84946 0.42832 1.00143 0.0
H38 H 0.80582 0.43345 0.02048 0.0
H39 H 0.82117 0.50932 0.86851 0.0
C40 C 0.97153 0.78659 0.38915 0.0
C41 C 0.97048 0.81064 0.34119 0.0
C42 C 0.97227 0.83656 0.43971 0.0
C43 C 0.97077 0.83553 0.36644 0.0
C44 C 0.97351 0.81253 0.48719 0.0
C45 C 0.97314 0.78776 0.46207 0.0
U46 U 0.97864 0.73967 0.25085 0.0
O47 O 0.99545 0.70317 0.27063 0.0
O48 O 0.95512 0.69824 0.2418 0.0
C49 C 0.97466 0.68644 0.25234 0.0
C50 C 0.97088 0.75991 0.3655 0.0
C51 C 0.97884 0.66974 0.1988 0.0
C52 C 0.98141 0.62514 0.16896 0.0
C53 C 0.97555 0.64098 0.21784 0.0
C54 C 0.99331 0.66662 0.08077 0.0
C55 C 0.99068 0.63793 0.10059 0.0
C56 C 0.98744 0.68248 0.12974 0.0
C57 C 0.99596 0.80325 0.10288 0.0
C58 C 0.99319 0.83936 1.00403 0.0
C59 C 0.01249 0.85171 0.11376 0.0
C60 C 0.00775 0.8236 0.14331 0.0
C61 C 1.00525 0.8597 0.0439 0.0
C62 C 0.98866 0.81133 0.03328 0.0
C63 C 0.99146 0.77349 0.13089 0.0
O64 O 0.95255 0.75149 0.32205 0.0
O65 O 0.99312 0.75569 0.34822 0.0
O66 O 0.00828 0.76573 0.17579 0.0
O67 O 0.96767 0.76102 0.14927 0.0
H68 H 0.96932 0.8101 0.28463 0.0
H69 H 0.96977 0.85393 0.32913 0.0
H70 H 0.97466 0.81297 0.5438 0.0
H71 H 0.97401 0.7694 0.49974 0.0
H72 H 0.97927 0.603 0.18492 0.0
H73 H 0.96897 0.63087 0.27093 0.0
H74 H 1.00044 0.67674 0.02816 0.0
H75 H 0.99011 0.70472 0.11435 0.0
H76 H 0.98739 0.84522 0.95019 0.0
H77 H 0.02171 0.86722 0.14528 0.0
H78 H 0.0134 0.81779 0.19733 0.0
H79 H 0.97953 0.79589 1.00141 0.0
C80 C 0.71516 1.00413 0.28769 0.0
C81 C 0.69799 0.01975 0.25683 0.0
C82 C 0.668 0.99996 0.35619 0.0
C83 C 0.67444 0.01764 0.29096 0.0
C84 C 0.68484 0.98372 0.38534 0.0
C85 C 0.70818 0.98577 0.3513 0.0
U86 U 0.77281 0.0292 0.15009 0.0
O87 O 0.81332 0.0432 0.17712 0.0
O88 O 0.8003 1.00401 0.13554 0.0
C89 C 0.81986 0.02214 0.15493 0.0
C90 C 0.74115 1.00752 0.25866 0.0
C91 C 0.8431 0.02856 0.10958 0.0
C92 C 0.88926 0.03509 0.10204 0.0
C93 C 0.86697 0.03216 0.1421 0.0
C94 C 0.86427 0.03184 0.99548 0.0
C95 C 0.88801 0.03439 0.02883 0.0
C96 C 0.84189 0.02897 0.03567 0.0
C97 C 0.73304 0.06359 1.00995 0.0
C98 C 0.70251 0.06491 0.91495 0.0
C99 C 0.69115 0.07165 0.03253 0.0
C100 C 0.71541 0.06911 0.05628 0.0
C101 C 0.68436 0.06874 0.96227 0.0
C102 C 0.72672 0.06237 0.93869 0.0
C103 C 0.75714 0.05668 0.03562 0.0
O104 O 0.74364 0.99429 0.20581 0.0
O105 O 0.75617 0.03249 0.25223 0.0
O106 O 0.75721 0.03018 0.04275 0.0
O107 O 0.76794 0.06866 0.0886 0.0
H108 H 0.70305 0.03399 0.20773 0.0
H109 H 0.66168 0.03043 0.26795 0.0
H110 H 0.68024 0.97009 0.4357 0.0
H111 H 0.72119 0.97358 0.37594 0.0
H112 H 0.90744 0.03702 0.12852 0.0
H113 H 0.86828 0.03184 0.19899 0.0
H114 H 0.86302 0.03126 0.93897 0.0
H115 H 0.82364 0.02626 1.00949 0.0
H116 H 0.69742 0.06231 0.86083 0.0
H117 H 0.67721 0.07429 0.06983 0.0
H118 H 0.71998 0.07032 0.11133 0.0
H119 H 0.74011 0.05816 0.90221 0.0
C120 C 0.56591 0.75433 0.58455 0.0
C121 C 0.55774 0.73191 0.54728 0.0
C122 C 0.56122 0.69931 0.65424 0.0
C123 C 0.55534 0.70458 0.582 0.0
C124 C 0.57059 0.72176 0.69037 0.0
C125 C 0.57288 0.74905 0.65578 0.0
U126 U 0.56404 0.81203 0.42564 0.0
O127 O 0.57985 0.85723 0.41138 0.0
O128 O 0.53828 0.84084 0.41599 0.0
C129 C 0.55712 0.86292 0.40249 0.0
C130 C 0.56478 0.78292 0.55286 0.0
C131 C 0.55377 0.88284 0.3389 0.0
C132 C 0.52983 0.91545 0.27951 0.0
C133 C 0.53438 0.89748 0.33979 0.0
C134 C 0.56434 0.90492 0.21635 0.0
C135 C 0.54469 0.91924 0.21729 0.0
C136 C 0.56875 0.8867 0.27657 0.0
C137 C 0.57029 0.75993 0.30362 0.0
C138 C 0.55726 0.72196 0.23683 0.0
C139 C 0.58772 0.71879 0.33134 0.0
C140 C 0.58622 0.74509 0.34467 0.0
C141 C 0.57296 0.70699 0.27784 0.0
C142 C 0.55599 0.74823 0.24951 0.0
C143 C 0.56777 0.78737 0.31619 0.0
O144 O 0.58552 0.79864 0.51951 0.0
O145 O 0.54367 0.78535 0.51923 0.0
O146 O 0.58759 0.80271 0.34343 0.0
O147 O 0.54574 0.78796 0.34433 0.0
H148 H 0.55227 0.73549 0.49227 0.0
H149 H 0.54797 0.68751 0.55333 0.0
H150 H 0.57505 0.71811 0.74616 0.0
H151 H 0.57912 0.76602 0.68553 0.0
H152 H 0.51473 0.92648 0.2814 0.0
H153 H 0.52257 0.89481 0.3871 0.0
H154 H 0.5761 0.90774 0.1689 0.0
H155 H 0.58371 0.87552 0.27419 0.0
H156 H 0.54585 0.71317 0.19512 0.0
H157 H 0.60002 0.70749 0.36316 0.0
H158 H 0.59733 0.75372 0.38703 0.0
H159 H 0.54365 0.75938 0.21735 0.0
C160 C 0.23388 0.57727 0.39452 0.0
C161 C 0.21138 0.57945 0.42756 0.0
C162 C 0.18621 0.55836 0.33509 0.0
C163 C 0.18755 0.56998 0.39792 0.0
C164 C 0.20881 0.55745 0.3007 0.0
C165 C 0.23245 0.56679 0.33029 0.0
U166 U 0.28067 0.58877 0.55105 0.0
O167 O 0.32135 0.61118 0.54942 0.0
O168 O 0.31068 0.5656 0.56781 0.0
C169 C 0.32914 0.58793 0.56584 0.0
C170 C 0.25875 0.58218 0.42897 0.0
C171 C 0.34771 0.58632 0.62286 0.0
C172 C 0.39193 0.58732 0.65266 0.0
C173 C 0.37383 0.59493 0.605 0.0
C174 C 0.35811 0.56408 0.73889 0.0
C175 C 0.38408 0.57092 0.7186 0.0
C176 C 0.33998 0.57186 0.69126 0.0
C177 C 0.22677 0.59125 0.67907 0.0
C178 C 0.19623 0.60047 0.75967 0.0
C179 C 0.18122 0.57527 0.66278 0.0
C180 C 0.20648 0.57769 0.64111 0.0
C181 C 0.17596 0.586 0.72332 0.0
C182 C 0.2215 0.60319 0.73738 0.0
C183 C 0.25343 0.5917 0.6616 0.0
O184 O 0.26804 0.60678 0.44688 0.0
O185 O 0.26206 0.56159 0.47716 0.0
O186 O 0.26575 0.61371 0.61864 0.0
O187 O 0.25774 0.56832 0.64699 0.0
H188 H 0.21222 0.58771 0.47684 0.0
H189 H 0.17022 0.57099 0.42474 0.0
H190 H 0.20808 0.54868 0.25205 0.0
H191 H 0.24963 0.56483 0.30432 0.0
H192 H 0.41192 0.59268 0.63632 0.0
H193 H 0.38013 0.60592 0.55243 0.0
H194 H 0.35181 0.55136 0.78957 0.0
H195 H 0.31986 0.56497 0.70598 0.0
H196 H 0.19251 0.60856 0.80695 0.0
H197 H 0.16579 0.56372 0.6347 0.0
H198 H 0.21018 0.56799 0.59671 0.0
H199 H 0.23697 0.61369 0.76732 0.0
C200 C 0.07129 0.27503 0.31124 0.0
C201 C 0.08287 0.25505 0.35041 0.0
C202 C 0.07299 0.22616 0.2578 0.0
C203 C 0.08379 0.23078 0.32363 0.0
C204 C 0.06088 0.24578 0.21976 0.0
C205 C 0.0601 0.27003 0.24622 0.0
U206 U 0.06419 0.32245 0.44843 0.0
O207 O 0.08743 0.36408 0.45587 0.0
O208 O 0.04673 0.35859 0.43026 0.0
C209 C 0.06751 0.37541 0.44829 0.0
C210 C 0.07171 0.30189 0.33419 0.0
C211 C 0.06354 0.39154 0.50358 0.0
C212 C 0.04815 0.42977 0.53706 0.0
C213 C 0.05333 0.41497 0.48492 0.0
C214 C 0.06375 0.39814 0.62742 0.0
C215 C 0.0532 0.4214 0.60863 0.0
C216 C 0.06866 0.38311 0.57524 0.0
C217 C 0.04771 0.25928 0.59717 0.0
C218 C 0.04445 0.22324 0.69969 0.0
C219 C 0.03922 0.21093 0.58132 0.0
C220 C 0.0432 0.23905 0.5523 0.0
C221 C 0.03993 0.20299 0.65516 0.0
C222 C 0.04826 0.25123 0.67082 0.0
C223 C 0.05196 0.28889 0.569 0.0
O224 O 0.04944 0.30602 0.35163 0.0
O225 O 0.09024 0.31109 0.37633 0.0
O226 O 0.07565 0.30142 0.54968 0.0
O227 O 0.03493 0.29616 0.52421 0.0
H228 H 0.09156 0.25839 0.40087 0.0
H229 H 0.09321 0.21581 0.35361 0.0
H230 H 0.05247 0.24254 0.16891 0.0
H231 H 0.05113 0.28518 0.21516 0.0
H232 H 0.04023 0.44785 0.5216 0.0
H233 H 0.04915 0.42169 0.43006 0.0
H234 H 0.06799 0.39159 0.6823 0.0
H235 H 0.07633 0.36487 0.59085 0.0
H236 H 0.04516 0.21735 0.75672 0.0
H237 H 0.03592 0.19544 0.54641 0.0
H238 H 0.04285 0.24501 0.49521 0.0
H239 H 0.05175 0.26664 0.706 0.0
C240 C 0.33774 0.06122 0.46563 0.0
C241 C 0.35788 0.085 0.4552 0.0
C242 C 0.36897 0.07392 0.342 0.0
C243 C 0.37335 0.09133 0.39383 0.0
C244 C 0.34784 0.05122 0.34977 0.0
C245 C 0.33232 0.04486 0.41123 0.0
U246 U 0.28564 0.03965 0.62105 0.0
O247 O 0.25887 0.06678 0.59436 0.0
O248 O 0.24865 0.0238 0.57342 0.0
C249 C 0.24083 0.04667 0.57629 0.0
C250 C 0.32649 0.05114 0.53792 0.0
C251 C 0.21583 0.04284 0.61171 0.0
C252 C 0.17 0.03894 0.60396 0.0
C253 C 0.19372 0.04141 0.57114 0.0
C254 C 0.1902 0.03896 0.71856 0.0
C255 C 0.16812 0.03792 0.67778 0.0
C256 C 0.21391 0.04126 0.68576 0.0
C257 C 0.31652 0.01594 0.78737 0.0
C258 C 0.34051 0.98432 0.85134 0.0
C259 C 0.3628 0.02987 0.79322 0.0
C260 C 0.33959 0.03578 0.77053 0.0
C261 C 0.36347 1.004 0.83263 0.0
C262 C 0.31711 0.99031 0.8289 0.0
C263 C 0.29262 0.0206 0.75374 0.0
O264 O 0.3107 0.02658 0.54973 0.0
O265 O 0.32024 0.06931 0.57316 0.0
O266 O 0.28381 1.00426 0.70706 0.0
O267 O 0.29211 0.04669 0.73149 0.0
H268 H 0.36273 0.09771 0.49663 0.0
H269 H 0.38968 0.10882 0.3888 0.0
H270 H 0.3443 0.03752 0.31027 0.0
H271 H 0.31711 0.02626 0.41783 0.0
H272 H 0.15314 0.03828 0.5717 0.0
H273 H 0.19485 0.04257 0.51401 0.0
H274 H 0.18911 0.03835 0.7755 0.0
H275 H 0.2308 0.04223 0.71796 0.0
H276 H 0.3408 0.96417 0.88139 0.0
H277 H 0.3804 0.04519 0.77804 0.0
H278 H 0.33987 0.05552 0.73752 0.0
H279 H 0.2996 0.97458 0.84157 0.0
C280 C 0.48437 0.29749 0.10157 0.0
C281 C 0.46479 0.31099 0.11183 0.0
C282 C 0.48408 0.35079 0.02097 0.0
C283 C 0.46497 0.33739 0.07356 0.0
C284 C 0.505 0.338 0.01785 0.0
C285 C 0.50468 0.31159 0.05513 0.0
U286 U 0.48876 0.25178 0.27819 0.0
O287 O 0.47227 0.20785 0.3203 0.0
O288 O 0.51393 0.22282 0.30662 0.0
C289 C 0.49485 0.20185 0.32965 0.0
C290 C 0.48531 0.26993 0.14251 0.0
C291 C 0.4988 0.18487 0.39763 0.0
C292 C 0.51241 0.14437 0.45861 0.0
C293 C 0.50846 0.16123 0.39574 0.0
C294 C 0.49716 0.1746 0.52693 0.0
C295 C 0.50677 0.15083 0.5247 0.0
C296 C 0.49327 0.19161 0.46366 0.0
C297 C 0.49122 0.29517 0.43373 0.0
C298 C 0.51195 0.29353 0.54796 0.0
C299 C 0.49058 0.3306 0.50565 0.0
C300 C 0.48315 0.31877 0.44535 0.0
C301 C 0.50602 0.31886 0.5557 0.0
C302 C 0.50489 0.28188 0.48629 0.0
C303 C 0.48863 0.2884 0.36181 0.0
O304 O 0.50714 0.26871 0.17343 0.0
O305 O 0.46529 0.25663 0.183 0.0
O306 O 0.46767 0.27103 0.34696 0.0
O307 O 0.50947 0.28563 0.3312 0.0
H308 H 0.44955 0.30149 0.15061 0.0
H309 H 0.45037 0.34728 0.08809 0.0
H310 H 0.52246 0.3483 0.98867 0.0
H311 H 0.52085 0.30247 0.04903 0.0
H312 H 0.5197 0.12609 0.45575 0.0
H313 H 0.51286 0.1557 0.34536 0.0
H314 H 0.49257 0.17983 0.57746 0.0
H315 H 0.48587 0.20984 0.46619 0.0
H316 H 0.52344 0.28392 0.58693 0.0
H317 H 0.48555 0.34996 0.51116 0.0
H318 H 0.47258 0.32923 0.40528 0.0
H319 H 0.51122 0.26355 0.4779 0.0
Nd320 Nd 0.01249 0.02295 0.78445 0.0
Nd321 Nd 0.03937 0.03993 0.91557 0.0
C322 C 0.98093 1.00072 0.69017 0.0
C323 C 0.97828 0.97658 0.65346 0.0
C324 C 0.96271 0.9745 0.59393 0.0
C325 C 0.96109 0.95235 0.55633 0.0
C326 C 0.97502 0.93202 0.57797 0.0
C327 C 0.99051 0.93404 0.63778 0.0
C328 C 0.99218 0.95622 0.67525 0.0
C329 C 0.06486 0.03122 0.77261 0.0
C330 C 0.02143 0.97475 0.91445 0.0
C331 C 0.07053 0.06259 1.00974 0.0
C332 C 0.07236 0.0869 0.04538 0.0
C333 C 0.09317 0.095 0.08865 0.0
C334 C 0.09439 0.11746 0.12495 0.0
C335 C 0.07474 0.13197 0.11839 0.0
C336 C 0.05401 0.12399 0.07465 0.0
C337 C 0.05284 0.10161 0.03823 0.0
C338 C 0.98705 0.03174 0.92533 0.0
C339 C 0.02977 0.08877 0.78774 0.0
O340 O 0.97601 0.99554 0.75859 0.0
O341 O 1.00139 0.0204 0.67294 0.0
O342 O 0.04999 0.03531 0.71996 0.0
O343 O 0.05166 0.01995 0.82814 0.0
O344 O 0.00759 0.98114 0.85935 0.0
O345 O 0.03854 0.99371 0.94053 0.0
O346 O 0.07571 0.06767 0.9414 0.0
O347 O 0.05031 0.04254 0.02693 0.0
O348 O 1.00138 0.02592 0.97801 0.0
O349 O 1.0005 0.0437 0.87082 0.0
O350 O 0.04184 0.08239 0.84648 0.0
O351 O 0.01442 0.06949 0.75761 0.0
H352 H 0.95204 0.99017 0.57613 0.0
H353 H 0.9491 0.9511 0.51022 0.0
H354 H 1.0014 0.91853 0.65508 0.0
H355 H 1.00448 0.95766 0.72075 0.0
H356 H 0.10834 0.08382 0.0948 0.0
H357 H 0.11052 0.12344 0.15845 0.0
H358 H 0.03874 0.13503 0.06895 0.0
H359 H 0.03661 0.09559 1.00504 0.0
Nd360 Nd 0.52762 0.01564 0.81663 0.0
Nd361 Nd 0.519 0.05072 0.92062 0.0
C362 C 0.53227 0.98099 0.72853 0.0
C363 C 0.54873 0.98329 0.66531 0.0
C364 C 0.56136 0.96211 0.65882 0.0
C365 C 0.57876 0.96512 0.60253 0.0
C366 C 0.5837 0.98932 0.55175 0.0
C367 C 0.57045 0.01012 0.55675 0.0
C368 C 0.5532 1.00722 0.61326 0.0
C369 C 0.52754 0.06965 0.7561 0.0
C370 C 0.57803 0.04997 0.88164 0.0
C371 C 0.51198 0.08861 0.99596 0.0
C372 C 0.48982 0.09111 0.03685 0.0
C373 C 0.46492 0.07747 0.02137 0.0
C374 C 0.44431 0.07657 0.06635 0.0
C375 C 0.44838 0.08913 0.12756 0.0
C376 C 0.47309 0.10351 0.14188 0.0
C377 C 0.4937 0.1045 0.09672 0.0
C378 C 0.51889 0.99716 0.98453 0.0
C379 C 0.46951 0.01029 0.87109 0.0
O380 O 0.54384 0.98135 0.78928 0.0
O381 O 0.51498 0.99581 0.72215 0.0
O382 O 0.54393 0.05609 0.74011 0.0
O383 O 0.51212 0.05467 0.80323 0.0
O384 O 0.56891 0.02854 0.84944 0.0
O385 O 0.56292 0.06468 0.90339 0.0
O386 O 0.50991 0.0914 0.92689 0.0
O387 O 0.52207 0.06785 0.02154 0.0
O388 O 0.50341 0.01169 1.00138 0.0
O389 O 0.53395 0.01122 0.93503 0.0
O390 O 0.47783 0.03475 0.89038 0.0
O391 O 0.48571 0.99598 0.85385 0.0
H392 H 0.55828 0.94356 0.69837 0.0
H393 H 0.58891 0.94892 0.59965 0.0
H394 H 0.57413 0.02899 0.51825 0.0
H395 H 0.54387 0.02399 0.61711 0.0
H396 H 0.46155 0.06667 0.97599 0.0
H397 H 0.4254 0.06514 0.05504 0.0
H398 H 0.47653 0.11309 0.18932 0.0
H399 H 0.51279 0.11481 0.10996 0.0
Nd400 Nd 0.515 0.53346 0.92759 0.0
Nd401 Nd 0.51753 0.52092 0.78233 0.0
C402 C 0.50773 0.54238 0.05787 0.0
C403 C 0.52101 0.56252 0.10249 0.0
C404 C 0.50785 0.58083 0.12569 0.0
C405 C 0.52064 0.6018 0.1621 0.0
C406 C 0.54675 0.60467 0.17628 0.0
C407 C 0.55976 0.58566 0.15615 0.0
C408 C 0.54702 0.56482 0.11897 0.0
C409 C 0.56348 0.53164 0.88584 0.0
C410 C 0.53423 0.58498 0.79936 0.0
C411 C 0.52453 0.50005 0.66802 0.0
C412 C 0.5283 0.47254 0.66038 0.0
C413 C 0.54218 0.45851 0.7109 0.0
C414 C 0.54256 0.43082 0.70929 0.0
C415 C 0.52887 0.41688 0.6576 0.0
C416 C 0.51546 0.43103 0.60634 0.0
C417 C 0.51518 0.45871 0.6077 0.0
C418 C 0.47449 0.53922 0.80892 0.0
C419 C 0.4996 0.46814 0.90918 0.0
O420 O 0.49597 0.55248 1.00289 0.0
O421 O 0.51986 0.52395 0.04358 0.0
O422 O 0.55849 0.55057 0.91885 0.0
O423 O 0.54305 0.51495 0.87476 0.0
O424 O 0.52097 0.57725 0.85998 0.0
O425 O 0.53999 0.56632 0.76464 0.0
O426 O 0.54311 0.51624 0.6972 0.0
O427 O 0.50185 0.49996 0.69225 0.0
O428 O 0.48783 0.54639 0.7502 0.0
O429 O 0.48343 0.52194 0.85146 0.0
O430 O 0.50615 0.47652 0.84177 0.0
O431 O 0.49969 0.48597 0.95332 0.0
H432 H 0.48782 0.5794 0.11389 0.0
H433 H 0.51033 0.61625 0.17773 0.0
H434 H 0.57989 0.58757 0.16714 0.0
H435 H 0.55771 0.551 0.10176 0.0
H436 H 0.55217 0.4687 0.75266 0.0
H437 H 0.5532 0.4202 0.74862 0.0
H438 H 0.50486 0.42045 0.566 0.0
H439 H 0.50408 0.46907 0.56906 0.0
Nd440 Nd 0.01022 0.54438 0.7952 0.0
Nd441 Nd 0.02846 0.50583 0.93697 0.0
C442 C 0.98967 0.58006 0.71144 0.0
C443 C 0.97047 0.57472 0.65672 0.0
C444 C 0.9636 0.5966 0.61123 0.0
C445 C 0.94614 0.59094 0.55719 0.0
C446 C 0.9356 0.56339 0.54821 0.0
C447 C 0.94232 0.54156 0.59418 0.0
C448 C 0.95961 0.54719 0.64817 0.0
C449 C 0.02006 0.49614 0.76167 0.0
C450 C 0.96862 0.49294 0.8901 0.0
C451 C 0.04844 0.47288 0.03031 0.0
C452 C 0.0649 0.48021 0.09046 0.0
C453 C 0.0892 0.47411 0.09571 0.0
C454 C 0.10685 0.48563 0.14369 0.0
C455 C 0.10039 0.50339 0.18694 0.0
C456 C 0.07572 0.50835 0.18454 0.0
C457 C 0.05811 0.49689 0.13664 0.0
C458 C 0.01922 0.55528 0.96645 0.0
C459 C 0.07127 0.55185 0.83104 0.0
O460 O 0.98152 0.57014 0.77697 0.0
O461 O 0.0119 0.57513 0.69747 0.0
O462 O 0.01244 0.51453 0.71579 0.0
O463 O 0.0206 0.50346 0.82205 0.0
O464 O 0.97279 0.51599 0.84297 0.0
O465 O 0.98682 0.48301 0.92568 0.0
O466 O 0.05887 0.48298 0.96703 0.0
O467 O 0.02456 0.47489 0.03502 0.0
O468 O 0.02605 0.53711 0.01429 0.0
O469 O 0.01816 0.54649 0.90846 0.0
O470 O 0.06612 0.53077 0.8839 0.0
O471 O 0.05353 0.56299 0.79613 0.0
H472 H 0.9719 0.61793 0.61705 0.0
H473 H 0.94107 0.60797 0.52195 0.0
H474 H 0.93429 0.52021 0.58792 0.0
H475 H 0.96474 0.53004 0.68285 0.0
H476 H 0.09496 0.46156 0.06031 0.0
H477 H 0.12588 0.48167 0.14496 0.0
H478 H 0.0705 0.52205 0.21754 0.0
H479 H 0.03962 0.50221 0.13362 0.0
C480 C 0.12951 0.01307 0.75518 0.0
C481 C 0.14313 0.03735 0.71139 0.0
C482 C 0.10675 0.05894 0.7164 0.0
C483 C 0.09309 0.03485 0.76197 0.0
N484 N 0.09556 0.99283 0.84221 0.0
N485 N 0.1478 0.08601 0.66748 0.0
C486 C 0.10575 0.01318 0.78732 0.0
C487 C 0.13269 0.06112 0.69745 0.0
N488 N 0.13865 0.98945 0.76361 0.0
N489 N 0.09488 0.07969 0.68969 0.0
H490 H 0.16699 0.08841 0.65343 0.0
H491 H 0.14213 0.10474 0.6631 0.0
H492 H 0.07664 0.08043 0.70569 0.0
H493 H 0.10269 0.09562 0.64873 0.0
H494 H 0.12804 0.97019 0.78764 0.0
H495 H 0.15597 0.98851 0.74112 0.0
H496 H 0.10527 0.97814 0.8663 0.0
H497 H 0.07896 0.99239 0.86985 0.0
C498 C 0.49311 0.10523 0.60518 0.0
C499 C 0.5101 0.1317 0.59073 0.0
C500 C 0.53515 0.1191 0.69471 0.0
C501 C 0.52036 0.09146 0.70253 0.0
N502 N 0.48728 0.05709 0.65857 0.0
N503 N 0.54867 0.16345 0.61771 0.0
C504 C 0.49972 0.08423 0.65637 0.0
C505 C 0.53141 0.13866 0.6348 0.0
N506 N 0.47048 0.10028 0.57038 0.0
N507 N 0.55244 0.12675 0.74531 0.0
H508 H 0.5464 0.1784 0.57492 0.0
H509 H 0.56609 0.16844 0.64281 0.0
H510 H 0.55532 0.11293 0.79001 0.0
H511 H 0.56215 0.14717 0.74647 0.0
H512 H 0.4561 0.08239 0.58376 0.0
H513 H 0.46501 0.11525 0.53271 0.0
H514 H 0.47406 0.05025 0.62103 0.0
H515 H 0.49175 0.04091 0.69405 0.0
C516 C 0.41788 0.57208 0.81099 0.0
C517 C 0.40285 0.55788 0.76073 0.0
C518 C 0.42982 0.52408 0.77049 0.0
C519 C 0.44744 0.54133 0.80933 0.0
N520 N 0.45699 0.57824 0.87885 0.0
N521 N 0.39247 0.51921 0.69624 0.0
C522 C 0.44081 0.56404 0.83449 0.0
C523 C 0.40789 0.53311 0.74284 0.0
N524 N 0.41034 0.59352 0.83445 0.0
N525 N 0.43433 0.4992 0.76 0.0
H526 H 0.37563 0.52457 0.67735 0.0
H527 H 0.39667 0.50303 0.67397 0.0
H528 H 0.45028 0.4922 0.78032 0.0
H529 H 0.42141 0.48442 0.73697 0.0
H530 H 0.41973 0.60453 0.8727 0.0
H531 H 0.39356 0.59954 0.81769 0.0
H532 H 0.45474 0.59623 0.89614 0.0
H533 H 0.47328 0.57182 0.89802 0.0
C534 C 0.06344 0.46548 0.65889 0.0
C535 C 0.04836 0.4382 0.66245 0.0
C536 C 0.0208 0.44687 0.75399 0.0
C537 C 0.03278 0.47545 0.73941 0.0
N538 N 0.06508 0.51263 0.67533 0.0
N539 N 0.01212 0.40247 0.71187 0.0
C540 C 0.05418 0.4849 0.69168 0.0
C541 C 0.02713 0.42851 0.71069 0.0
N542 N 0.08671 0.4727 0.62437 0.0
N543 N 1.00299 0.4375 0.80787 0.0
H544 H 0.01616 0.38846 0.68109 0.0
H545 H 0.99476 0.39532 0.73982 0.0
H546 H 0.99787 0.45069 0.83942 0.0
H547 H 0.99506 0.41657 0.82529 0.0
H548 H 0.09973 0.49149 0.62586 0.0
H549 H 0.09408 0.45872 0.60028 0.0
H550 H 0.07837 0.521 0.63394 0.0
H551 H 0.06014 0.52751 0.70149 0.0
C552 C 0.91706 1.00886 0.97886 0.0
C553 C 0.9116 0.03444 0.98897 0.0
C554 C 0.95501 0.05918 0.94829 0.0
C555 C 0.96038 0.03362 0.93741 0.0
N556 N 0.94543 0.98534 0.92744 0.0
N557 N 0.92278 0.08437 0.96859 0.0
C558 C 0.94097 1.00885 0.94776 0.0
C559 C 0.92977 0.05978 0.96859 0.0
N560 N 0.89991 0.98447 1.00223 0.0
N561 N 0.97433 0.08252 0.94345 0.0
H562 H 0.90445 0.08537 0.98377 0.0
H563 H 0.93428 0.10358 0.9477 0.0
H564 H 0.99304 0.08305 0.92831 0.0
H565 H 0.97227 0.10094 0.95892 0.0
H566 H 0.90402 0.96502 1.00458 0.0
H567 H 0.88194 0.9836 0.02374 0.0
H568 H 0.93135 0.96727 0.92694 0.0
H569 H 0.96283 0.9847 0.90499 0.0
C570 C 0.52406 0.92888 0.0991 0.0
C571 C 0.53994 0.93894 0.15398 0.0
C572 C 0.54464 0.98683 0.09258 0.0
C573 C 0.52711 0.97693 0.04062 0.0
N574 N 0.49855 0.93926 0.9961 0.0
N575 N 0.56464 0.97706 0.20604 0.0
C576 C 0.5165 0.94811 0.04412 0.0
C577 C 0.55015 0.96782 0.15129 0.0
N578 N 0.51639 0.9009 0.09943 0.0
N579 N 0.55636 0.01442 0.08512 0.0
H580 H 0.57041 0.96374 0.24754 0.0
H581 H 0.57002 0.99778 0.21272 0.0
H582 H 0.55229 0.02923 0.04455 0.0
H583 H 0.57151 0.02261 0.11578 0.0
H584 H 0.50709 0.89204 0.05757 0.0
H585 H 0.52082 0.88628 0.14003 0.0
H586 H 0.48783 0.91898 0.99981 0.0
H587 H 0.49322 0.95268 0.95405 0.0
C588 C 0.63419 0.5335 0.88115 0.0
C589 C 0.63584 0.51302 0.94042 0.0
C590 C 0.58945 0.50187 0.95796 0.0
C591 C 0.58771 0.52258 0.899 0.0
N592 N 0.60694 0.55221 0.79294 0.0
N593 N 0.61526 0.47229 0.02088 0.0
C594 C 0.60966 0.53648 0.85668 0.0
C595 C 0.61345 0.49529 0.97374 0.0
N596 N 0.65598 0.55087 0.8505 0.0
N597 N 0.56867 0.48971 1.0017 0.0
H598 H 0.63272 0.46707 0.03346 0.0
H599 H 0.59942 0.45704 0.04178 0.0
H600 H 0.55063 0.49382 0.99301 0.0
H601 H 0.56972 0.47704 0.04997 0.0
H602 H 0.65596 0.56827 0.81261 0.0
H603 H 0.67424 0.54873 0.86592 0.0
H604 H 0.622 0.5611 0.75676 0.0
H605 H 0.58906 0.55407 0.7733 0.0
C606 C 0.97983 0.60404 0.01515 0.0
C607 C 0.99871 0.62107 0.05148 0.0
C608 C 0.03181 0.601 1.00714 0.0
C609 C 0.01242 0.58079 0.9818 0.0
N610 N 0.96784 0.56221 0.96203 0.0
N611 N 0.04271 0.63596 0.08403 0.0
C612 C 0.98639 0.58237 0.98453 0.0
C613 C 0.02482 0.61996 0.04704 0.0
N614 N 0.95567 0.60863 1.01025 0.0
N615 N 0.0569 0.60197 0.99266 0.0
H616 H 0.03844 0.65051 0.11268 0.0
H617 H 0.06147 0.6337 0.08996 0.0
H618 H 0.06242 0.5883 0.96318 0.0
H619 H 0.07201 0.61772 1.00383 0.0
H620 H 0.9416 0.59868 0.97898 0.0
H621 H 0.95035 0.62426 0.03275 0.0
H622 H 0.94834 0.56009 0.97078 0.0
H623 H 0.97206 0.5465 0.93786 0.0
C624 C 0.0125 0.15726 0.71052 0.0
C625 C 0.03696 0.17348 0.68674 0.0
C626 C 0.05707 0.13599 0.73919 0.0
C627 C 0.03237 0.1185 0.75702 0.0
N628 N 0.98637 0.11245 0.76136 0.0
N629 N 0.08202 0.17756 0.66818 0.0
C630 C 0.01 0.12911 0.74281 0.0
C631 C 0.05907 0.16262 0.69816 0.0
N632 N 0.99182 0.16914 0.70417 0.0
N633 N 0.07877 0.12775 0.76269 0.0
H634 H 0.08448 0.1975 0.63932 0.0
H635 H 0.09815 0.16936 0.66652 0.0
H636 H 0.07901 0.10836 0.79108 0.0
H637 H 0.09681 0.14111 0.75912 0.0
H638 H 0.97396 0.15977 0.72757 0.0
H639 H 0.99283 0.18934 0.67837 0.0
H640 H 0.96927 0.11739 0.74395 0.0
H641 H 0.98365 0.09309 0.79325 0.0
C642 C 0.40312 0.99167 0.79413 0.0
C643 C 0.3887 0.99751 0.84913 0.0
C644 C 0.42564 1.00046 0.92583 0.0
C645 C 0.4414 0.99982 0.86705 0.0
N646 N 0.44496 0.99533 0.74314 0.0
N647 N 0.38531 1.00481 0.97039 0.0
C648 C 0.43003 0.99484 0.80097 0.0
C649 C 0.39961 1.00081 0.91594 0.0
N650 N 0.39094 0.9831 0.73536 0.0
N651 N 0.43509 1.00126 0.99227 0.0
H652 H 0.36598 1.0051 0.96581 0.0
H653 H 0.39295 1.0079 0.01995 0.0
H654 H 0.45374 0.99991 1.0054 0.0
H655 H 0.45374 0.99991 1.0054 0.0
H656 H 0.39977 0.97581 0.69641 0.0
H657 H 0.37126 0.98077 0.729 0.0
H658 H 0.43817 0.9959 0.69162 0.0
H659 H 0.46456 0.99678 0.7453 0.0
C660 C 0.50061 0.34079 0.66058 0.0
C661 C 0.51743 0.33557 0.61067 0.0
C662 C 0.54689 0.38016 0.61609 0.0
C663 C 0.52803 0.38726 0.65619 0.0
N664 N 0.49011 0.37353 0.73086 0.0
N665 N 0.56003 0.34487 0.56096 0.0
C666 C 0.50607 0.367 0.68432 0.0
C667 C 0.54195 0.35336 0.59603 0.0
N668 N 0.4788 0.3211 0.68103 0.0
N669 N 0.56854 0.39976 0.59306 0.0
H670 H 0.55676 0.32534 0.54567 0.0
H671 H 0.57891 0.35593 0.55256 0.0
H672 H 0.57299 0.41925 0.60892 0.0
H673 H 0.58172 0.39727 0.55659 0.0
H674 H 0.4645 0.32353 0.71401 0.0
H675 H 0.47532 0.30163 0.66485 0.0
H676 H 0.4739 0.35986 0.75492 0.0
H677 H 0.49381 0.39279 0.7481 0.0
C678 C 0.13477 0.5983 0.75476 0.0
C679 C 0.14965 0.57826 0.75446 0.0
C680 C 0.11287 0.54125 0.79864 0.0
C681 C 0.0984 0.56136 0.80565 0.0
N682 N 0.09804 0.60952 0.80569 0.0
N683 N 0.15496 0.53187 0.79591 0.0
C684 C 0.11002 0.5901 0.78794 0.0
C685 C 0.13936 0.55014 0.78274 0.0
N686 N 0.14399 0.62495 0.72202 0.0
N687 N 0.10133 0.51372 0.80286 0.0
H688 H 0.17469 0.5376 0.78628 0.0
H689 H 0.14873 0.5118 0.82351 0.0
H690 H 0.08175 0.50574 0.81027 0.0
H691 H 0.11086 0.49908 0.7902 0.0
H692 H 0.13291 0.63972 0.71411 0.0
H693 H 0.16209 0.63166 0.69768 0.0
H694 H 0.10672 0.63058 0.79993 0.0
H695 H 0.08053 0.60432 0.83315 0.0
C696 C 0.99524 0.90663 0.03601 0.0
C697 C 0.00995 0.88945 0.0122 0.0
C698 C 0.03028 0.92756 0.91955 0.0
C699 C 0.01749 0.94542 0.94792 0.0
N700 N 0.99014 0.95328 0.03817 0.0
N701 N 0.04461 0.88452 0.93974 0.0
C702 C 1.00071 0.93536 1.00784 0.0
C703 C 0.02838 0.90018 0.95625 0.0
N704 N 0.97528 0.89527 0.08316 0.0
N705 N 0.04372 0.93651 0.85666 0.0
H706 H 0.04396 0.86446 0.96603 0.0
H707 H 0.06015 0.89223 0.90456 0.0
H708 H 0.04546 0.95643 0.82824 0.0
H709 H 0.05125 0.92353 0.82957 0.0
H710 H 0.96206 0.9061 0.09639 0.0
H711 H 0.9705 0.87426 0.1047 0.0
H712 H 0.98018 0.94785 0.08666 0.0
H713 H 0.99286 0.97423 0.01735 0.0
C714 C 0.6477 0.08683 0.90373 0.0
C715 C 0.6572 0.06465 0.94172 0.0
C716 C 0.6149 0.03365 0.9434 0.0
C717 C 0.60532 0.05528 0.90196 0.0
N718 N 0.61357 0.10113 0.83293 0.0
N719 N 0.6503 0.01644 0.99548 0.0
C720 C 0.62196 0.08164 0.87982 0.0
C721 C 0.64097 0.03801 0.96038 0.0
N722 N 0.66315 0.11291 0.89198 0.0
N723 N 0.59967 1.0084 0.96898 0.0
H724 H 0.66944 0.01814 1.00892 0.0
H725 H 0.63889 0.99651 1.01001 0.0
H726 H 0.58 1.00272 0.9622 0.0
H727 H 0.58 1.00272 0.9622 0.0
H728 H 0.65676 0.13061 0.8714 0.0
H729 H 0.68217 0.11714 0.90767 0.0
H730 H 0.62535 0.11972 0.80909 0.0
H731 H 0.59514 0.09771 0.81293 0.0
C732 C 0.58418 0.67682 0.19724 0.0
C733 C 0.57342 0.67897 0.26288 0.0
C734 C 0.55438 0.62913 0.28161 0.0
C735 C 0.56024 0.62854 0.20977 0.0
N736 N 0.58067 0.65175 0.09759 0.0
N737 N 0.5485 0.65737 0.36947 0.0
C738 C 0.57566 0.65219 0.16745 0.0
C739 C 0.55905 0.65504 0.30654 0.0
N740 N 0.60226 0.69859 0.16331 0.0
N741 N 0.54415 0.60489 0.32539 0.0
H742 H 0.55183 0.67591 0.39009 0.0
H743 H 0.53532 0.64133 0.39945 0.0
H744 H 0.54064 0.58567 0.30796 0.0
H745 H 0.54146 0.60354 0.37992 0.0
H746 H 0.6125 0.69755 0.11824 0.0
H747 H 0.60875 0.71684 0.18461 0.0
H748 H 0.58916 0.66936 0.06206 0.0
H749 H 0.5749 0.6341 0.07362 0.0
C750 C 0.90379 0.47707 0.97912 0.0
C751 C 0.88799 0.46659 0.92462 0.0
C752 C 0.92605 0.46714 0.85417 0.0
C753 C 0.94162 0.47906 0.90716 0.0
N754 N 0.94572 0.49281 0.02375 0.0
N755 N 0.88335 0.44591 0.8182 0.0
C756 C 0.93063 0.48256 0.97124 0.0
C757 C 0.89896 0.45972 0.86456 0.0
N758 N 0.8939 0.48328 0.03837 0.0
N759 N 0.93724 0.46393 0.79301 0.0
H760 H 0.8635 0.44019 0.82517 0.0
H761 H 0.88993 0.43829 0.77606 0.0
H762 H 0.95705 0.46777 0.78587 0.0
H763 H 0.92716 0.45838 0.74851 0.0
H764 H 0.87442 0.48067 0.04906 0.0
H765 H 0.87442 0.48067 0.04906 0.0
H766 H 0.93817 0.49609 0.07101 0.0
H767 H 0.96565 0.4977 0.02083 0.0
C768 C 0.05922 0.175 0.25265 0.0
C769 C 0.07508 0.20136 0.2265 0.0
C770 C 0.09069 0.18227 0.12926 0.0
C771 C 0.07576 0.15565 0.15732 0.0
N772 N 0.04958 0.12529 0.25227 0.0
N773 N 0.10972 0.22908 0.14947 0.0
C774 C 0.06118 0.15159 0.22116 0.0
C775 C 0.09199 0.20467 0.1676 0.0
N776 N 0.04155 0.17256 0.30557 0.0
N777 N 0.10291 0.18634 0.06472 0.0
H778 H 0.11133 0.24589 0.17666 0.0
H779 H 0.12431 0.23185 0.1118 0.0
H780 H 0.10277 0.17034 0.03559 0.0
H781 H 0.11159 0.20585 0.0375 0.0
H782 H 0.02746 0.15463 0.32144 0.0
H783 H 0.0397 0.18916 0.33038 0.0
H784 H 0.04097 0.12065 0.30263 0.0
H785 H 0.05037 0.10771 0.23019 0.0
C786 C 0.40662 0.06035 0.29357 0.0
C787 C 0.38853 0.07731 0.285 0.0
C788 C 0.41029 0.103 0.17414 0.0
C789 C 0.4273 0.08484 0.18056 0.0
N790 N 0.43923 0.0434 0.23905 0.0
N791 N 0.37066 0.11221 0.21378 0.0
C792 C 0.42471 0.06265 0.23812 0.0
C793 C 0.38965 0.09794 0.22421 0.0
N794 N 0.40719 0.04281 0.35601 0.0
N795 N 0.4143 0.12544 0.12119 0.0
H796 H 0.35548 0.10914 0.24991 0.0
H797 H 0.36883 0.12553 0.16726 0.0
H798 H 0.42886 0.12932 0.08275 0.0
H799 H 0.40438 0.14118 0.11788 0.0
H800 H 0.42179 0.03242 0.36876 0.0
H801 H 0.39418 0.04026 0.39796 0.0
H802 H 0.43613 0.02498 0.27499 0.0
H803 H 0.45314 0.04465 0.20028 0.0
C804 C 0.50465 0.39311 0.92913 0.0
C805 C 0.48409 0.37917 0.97657 0.0
C806 C 0.46998 0.42318 0.96677 0.0
C807 C 0.49409 0.43769 0.93532 0.0
N808 N 0.53602 0.43558 0.89438 0.0
N809 N 0.43944 0.37893 0.98718 0.0
C810 C 0.51186 0.42239 0.91851 0.0
C811 C 0.46427 0.39352 0.98173 0.0
N812 N 0.51451 0.37888 0.88531 0.0
N813 N 0.45235 0.43747 0.98142 0.0
H814 H 0.43455 0.35792 0.98241 0.0
H815 H 0.42384 0.38817 0.98498 0.0
H816 H 0.45497 0.45888 0.96684 0.0
H817 H 0.43577 0.42816 1.01176 0.0
H818 H 0.52836 0.38855 0.84608 0.0
H819 H 0.50606 0.3582 0.88191 0.0
H820 H 0.54996 0.42473 0.8868 0.0
H821 H 0.54284 0.45702 0.88926 0.0
C822 C 0.14855 0.51828 0.3321 0.0
C823 C 0.16134 0.54599 0.30524 0.0
C824 C 0.13323 0.5463 0.20292 0.0
C825 C 0.12022 0.51869 0.23016 0.0
N826 N 0.11148 0.48048 0.32693 0.0
N827 N 0.16263 0.58851 0.22522 0.0
C828 C 0.1266 0.50535 0.29694 0.0
C829 C 0.15256 0.5607 0.24384 0.0
N830 N 0.15809 0.5039 0.38919 0.0
N831 N 0.12788 0.5583 0.1366 0.0
H832 H 0.17685 0.59956 0.25434 0.0
H833 H 0.15541 0.60111 0.18511 0.0
H834 H 0.11362 0.54863 0.10525 0.0
H835 H 0.1387 0.57705 0.11037 0.0
H836 H 0.15153 0.48269 0.40609 0.0
H837 H 0.17373 0.51285 0.41743 0.0
H838 H 0.11349 0.471 0.37869 0.0
H839 H 0.09547 0.47035 0.30197 0.0
C840 C 0.99465 0.88407 0.46345 0.0
C841 C 0.97214 0.86253 0.46807 0.0
C842 C 0.95153 0.88641 0.54515 0.0
C843 C 0.97355 0.9086 0.53776 0.0
N844 N 0.01392 0.93144 0.4788 0.0
N845 N 0.92744 0.84573 0.50019 0.0
C846 C 0.99448 0.90831 0.49343 0.0
C847 C 0.95002 0.86452 0.50489 0.0
N848 N 0.01649 0.88088 0.43309 0.0
N849 N 0.9325 0.88568 0.59283 0.0
H850 H 0.92566 0.8295 0.47089 0.0
H851 H 0.91003 0.84766 0.51975 0.0
H852 H 0.93285 0.90136 0.62317 0.0
H853 H 0.91737 0.86856 0.60654 0.0
H854 H 0.03426 0.89435 0.43551 0.0
H855 H 0.01731 0.86359 0.40981 0.0
H856 H 0.02835 0.9336 0.44103 0.0
H857 H 0.01445 0.94954 0.49997 0.0
C858 C 0.64763 0.01724 0.45172 0.0
C859 C 0.64495 0.99999 0.39853 0.0
C860 C 0.6005 0.97904 0.43838 0.0
C861 C 0.60434 0.99385 0.49684 0.0
N862 N 0.63255 0.02438 0.56487 0.0
N863 N 0.61971 0.9634 0.34218 0.0
C864 C 0.62811 0.01244 0.50473 0.0
C865 C 0.62153 0.98068 0.39178 0.0
N866 N 0.66888 0.03835 0.45131 0.0
N867 N 0.57664 0.96384 0.4269 0.0
H868 H 0.63439 0.96491 0.30548 0.0
H869 H 0.60433 0.94669 0.33962 0.0
H870 H 0.56092 0.96225 0.46008 0.0
H871 H 0.57191 0.9545 0.38198 0.0
H872 H 0.67073 0.05354 0.48377 0.0
H873 H 0.68382 0.0422 0.41405 0.0
H874 H 0.65044 0.03548 0.57761 0.0
H875 H 0.61891 0.02131 0.60545 0.0
C876 C 0.52915 0.65848 0.71755 0.0
C877 C 0.55476 0.67043 0.69411 0.0
C878 C 0.56753 0.62812 0.75094 0.0
C879 C 0.54142 0.61495 0.76672 0.0
N880 N 0.49692 0.61652 0.7535 0.0
N881 N 0.59813 0.66596 0.68155 0.0
C882 C 0.52211 0.62991 0.7474 0.0
C883 C 0.57393 0.65505 0.70891 0.0
N884 N 0.51152 0.67456 0.71237 0.0
N885 N 0.58624 0.61536 0.77867 0.0
H886 H 0.60353 0.68578 0.65184 0.0
H887 H 0.61228 0.65468 0.68375 0.0
H888 H 0.58217 0.59623 0.81193 0.0
H889 H 0.60566 0.62481 0.77471 0.0
H890 H 0.49337 0.66786 0.73619 0.0
H891 H 0.51571 0.69545 0.68964 0.0
H892 H 0.48211 0.62545 0.73266 0.0
H893 H 0.49094 0.59559 0.77339 0.0
C894 C 0.87394 0.54774 0.44584 0.0
C895 C 0.88332 0.54152 0.38252 0.0
C896 C 0.92728 0.55335 0.42427 0.0
C897 C 0.91765 0.55707 0.4901 0.0
N898 N 0.88197 0.55475 0.5679 0.0
N899 N 0.9182 0.53473 0.31426 0.0
C900 C 0.891 0.55344 0.50212 0.0
C901 C 0.90984 0.54341 0.37234 0.0
N902 N 0.84887 0.54906 0.4512 0.0
N903 N 0.9531 0.55975 0.4111 0.0
H904 H 0.90597 0.5274 0.27499 0.0
H905 H 0.93685 0.5327 0.30755 0.0
H906 H 0.96646 0.56649 0.44853 0.0
H907 H 0.96128 0.56048 0.36146 0.0
H908 H 0.84149 0.55642 0.49262 0.0
H909 H 0.83575 0.5449 0.41121 0.0
H910 H 0.86266 0.54902 0.58258 0.0
H911 H 0.89394 0.55979 0.60978 0.0
loop_
_geom_bond_atom_site_label_1
_geom_bond_atom_site_label_2
_geom_bond_distance
_geom_bond_site_symmetry_2
_ccdc_geom_bond_type
C0 C1 1.264 . S
C0 C5 1.479 . S
C0 C10 1.465 . S
C1 C0 1.264 . S
C1 C3 1.339 . S
C1 H28 0.931 . S
C2 C3 1.395 . S
C2 C4 1.320 . S
C3 C1 1.339 . S
C3 C2 1.395 . S
C3 H29 0.929 . S
C4 C2 1.320 . S
C4 C5 1.405 . S
C4 H30 0.930 . S
C5 C0 1.479 . S
C5 C4 1.405 . S
C5 H31 0.931 . S
U6 O7 2.454 . S
U6 O8 2.458 1_554 S
U6 C9 2.984 . S
U6 C10 2.847 . S
U6 C23 2.882 1_554 S
U6 O24 2.441 . S
U6 O25 2.420 . S
U6 O26 2.455 1_554 S
U6 O27 2.449 . S
O7 U6 2.454 . S
O7 C9 1.353 . S
O8 U6 2.458 1_556 S
O8 C9 1.286 1_556 S
C9 U6 2.984 . S
C9 O7 1.353 . S
C9 O8 1.286 1_554 S
C9 C11 1.363 . S
C10 C0 1.465 . S
C10 U6 2.847 . S
C10 O24 1.249 . S
C10 O25 1.202 . S
C11 C9 1.363 . S
C11 C13 1.408 . S
C11 C16 1.342 1_554 S
C12 C13 1.310 . S
C12 C15 1.461 1_554 S
C12 H32 0.932 . S
C13 C11 1.408 . S
C13 C12 1.310 . S
C13 H33 0.930 . S
C14 C15 1.474 . S
C14 C16 1.285 . S
C14 H34 0.929 . S
C15 C12 1.461 1_556 S
C15 C14 1.474 . S
C16 C11 1.342 1_556 S
C16 C14 1.285 . S
C16 H35 0.930 . S
C17 C20 1.424 . S
C17 C22 1.245 . S
C17 C23 1.428 . S
C18 C21 1.260 . S
C18 C22 1.477 . S
C18 H36 0.932 . S
C19 C20 1.384 . S
C19 C21 1.479 . S
C19 H37 0.929 . S
C20 C17 1.424 . S
C20 C19 1.384 . S
C20 H38 0.928 . S
C21 C18 1.260 . S
C21 C19 1.479 . S
C22 C17 1.245 . S
C22 C18 1.477 . S
C22 H39 0.932 . S
C23 U6 2.882 1_556 S
C23 C17 1.428 . S
C23 O26 1.301 . S
C23 O27 1.282 1_556 S
O24 U6 2.441 . S
O24 C10 1.249 . S
O25 U6 2.420 . S
O25 C10 1.202 . S
O26 U6 2.455 1_556 S
O26 C23 1.301 . S
O27 U6 2.449 . S
O27 C23 1.282 1_554 S
H28 C1 0.931 . S
H29 C3 0.929 . S
H30 C4 0.930 . S
H31 C5 0.931 . S
H32 C12 0.932 . S
H33 C13 0.930 . S
H34 C14 0.929 . S
H35 C16 0.930 . S
H36 C18 0.932 . S
H37 C19 0.929 . S
H38 C20 0.928 . S
H39 C22 0.932 . S
C40 C41 1.264 . S
C40 C45 1.479 . S
C40 C50 1.465 . S
C41 C40 1.264 . S
C41 C43 1.339 . S
C41 H68 0.931 . S
C42 C43 1.395 . S
C42 C44 1.320 . S
C43 C41 1.339 . S
C43 C42 1.395 . S
C43 H69 0.929 . S
C44 C42 1.320 . S
C44 C45 1.405 . S
C44 H70 0.930 . S
C45 C40 1.479 . S
C45 C44 1.405 . S
C45 H71 0.931 . S
U46 O47 2.454 . S
U46 O48 2.458 . S
U46 C49 2.984 . S
U46 C50 2.847 . S
U46 C63 2.882 1_554 S
U46 O64 2.441 . S
U46 O65 2.420 . S
U46 O66 2.455 1_554 S
U46 O67 2.449 . S
O47 U46 2.454 . S
O47 C49 1.353 . S
O48 U46 2.458 . S
O48 C49 1.286 . S
C49 U46 2.984 . S
C49 O47 1.353 . S
C49 O48 1.286 . S
C49 C51 1.363 . S
C50 C40 1.465 . S
C50 U46 2.847 . S
C50 O64 1.249 . S
C50 O65 1.202 . S
C51 C49 1.363 . S
C51 C53 1.408 . S
C51 C56 1.342 1_554 S
C52 C53 1.310 . S
C52 C55 1.461 . S
C52 H72 0.932 . S
C53 C51 1.408 . S
C53 C52 1.310 . S
C53 H73 0.930 . S
C54 C55 1.474 1_556 S
C54 C56 1.285 . S
C54 H74 0.929 . S
C55 C52 1.461 . S
C55 C54 1.474 1_554 S
C56 C51 1.342 1_556 S
C56 C54 1.285 . S
C56 H75 0.930 . S
C57 C60 1.424 . S
C57 C62 1.245 . S
C57 C63 1.428 . S
C58 C61 1.260 . S
C58 C62 1.477 . S
C58 H76 0.932 . S
C59 C60 1.384 . S
C59 C61 1.479 . S
C59 H77 0.929 . S
C60 C57 1.424 . S
C60 C59 1.384 . S
C60 H78 0.928 . S
C61 C58 1.260 . S
C61 C59 1.479 . S
C62 C57 1.245 . S
C62 C58 1.477 . S
C62 H79 0.932 . S
C63 U46 2.882 1_556 S
C63 C57 1.428 . S
C63 O66 1.301 . S
C63 O67 1.282 1_556 S
O64 U46 2.441 . S
O64 C50 1.249 . S
O65 U46 2.420 . S
O65 C50 1.202 . S
O66 U46 2.455 1_556 S
O66 C63 1.301 . S
O67 U46 2.449 . S
O67 C63 1.282 1_554 S
H68 C41 0.931 . S
H69 C43 0.929 . S
H70 C44 0.930 . S
H71 C45 0.931 . S
H72 C52 0.932 . S
H73 C53 0.930 . S
H74 C54 0.929 . S
H75 C56 0.930 . S
H76 C58 0.932 . S
H77 C59 0.929 . S
H78 C60 0.928 . S
H79 C62 0.932 . S
C80 C81 1.264 . S
C80 C85 1.479 . S
C80 C90 1.465 . S
C81 C80 1.264 . S
C81 C83 1.339 . S
C81 H108 0.931 . S
C82 C83 1.386 1_565 S
C82 C84 1.333 . S
C83 C81 1.339 . S
C83 C82 1.386 1_545 S
C83 H109 0.929 . S
C84 C82 1.333 . S
C84 C85 1.405 1_565 S
C84 H110 0.930 . S
C85 C80 1.479 . S
C85 C84 1.405 1_545 S
C85 H111 0.931 . S
U86 O87 2.452 1_556 S
U86 O88 2.464 . S
U86 C89 2.987 . S
U86 C90 2.838 1_556 S
U86 C103 2.889 . S
U86 O104 2.432 1_556 S
U86 O105 2.413 1_556 S
U86 O106 2.464 . S
U86 O107 2.452 . S
O87 U86 2.452 1_554 S
O87 C89 1.353 1_554 S
O88 U86 2.464 . S
O88 C89 1.286 . S
C89 U86 2.987 . S
C89 O87 1.353 1_556 S
C89 O88 1.286 . S
C89 C91 1.374 . S
C90 C80 1.465 . S
C90 U86 2.838 1_554 S
C90 O104 1.249 . S
C90 O105 1.202 . S
C91 C89 1.374 . S
C91 C93 1.398 1_556 S
C91 C96 1.333 1_545 S
C92 C93 1.307 1_566 S
C92 C95 1.461 . S
C92 H112 0.932 1_556 S
C93 C91 1.398 1_554 S
C93 C92 1.307 1_544 S
C93 H113 0.942 . S
C94 C95 1.474 . S
C94 C96 1.285 . S
C94 H114 0.929 . S
C95 C92 1.461 . S
C95 C94 1.474 . S
C96 C91 1.333 1_565 S
C96 C94 1.285 . S
C96 H115 0.930 . S
C97 C100 1.424 . S
C97 C102 1.245 . S
C97 C103 1.428 . S
C98 C101 1.263 1_545 S
C98 C102 1.477 . S
C98 H116 0.932 . S
C99 C100 1.384 . S
C99 C101 1.469 1_545 S
C99 H117 0.929 . S
C100 C97 1.424 . S
C100 C99 1.384 . S
C100 H118 0.928 . S
C101 C98 1.263 1_565 S
C101 C99 1.469 1_565 S
C102 C97 1.245 . S
C102 C98 1.477 . S
C102 H119 0.932 . S
C103 U86 2.889 . S
C103 C97 1.428 . S
C103 O106 1.301 . S
C103 O107 1.282 . S
O104 U86 2.432 1_554 S
O104 C90 1.249 . S
O105 U86 2.413 1_554 S
O105 C90 1.202 . S
O106 U86 2.464 . S
O106 C103 1.301 . S
O107 U86 2.452 . S
O107 C103 1.282 . S
H108 C81 0.931 . S
H109 C83 0.929 . S
H110 C84 0.930 . S
H111 C85 0.931 . S
H112 C92 0.932 1_554 S
H113 C93 0.942 . S
H114 C94 0.929 . S
H115 C96 0.930 . S
H116 C98 0.932 . S
H117 C99 0.929 . S
H118 C100 0.928 . S
H119 C102 0.932 . S
C120 C121 1.264 . S
C120 C125 1.479 . S
C120 C130 1.465 . S
C121 C120 1.264 . S
C121 C123 1.339 . S
C121 H148 0.931 . S
C122 C123 1.395 . S
C122 C124 1.320 . S
C123 C121 1.339 . S
C123 C122 1.395 . S
C123 H149 0.929 . S
C124 C122 1.320 . S
C124 C125 1.405 . S
C124 H150 0.930 . S
C125 C120 1.479 . S
C125 C124 1.405 . S
C125 H151 0.931 . S
U126 O127 2.454 . S
U126 O128 2.458 . S
U126 C129 2.984 . S
U126 C130 2.847 . S
U126 C143 2.882 . S
U126 O144 2.441 . S
U126 O145 2.420 . S
U126 O146 2.455 . S
U126 O147 2.449 . S
O127 U126 2.454 . S
O127 C129 1.353 . S
O128 U126 2.458 . S
O128 C129 1.286 . S
C129 U126 2.984 . S
C129 O127 1.353 . S
C129 O128 1.286 . S
C129 C131 1.363 . S
C130 C120 1.465 . S
C130 U126 2.847 . S
C130 O144 1.249 . S
C130 O145 1.202 . S
C131 C129 1.363 . S
C131 C133 1.408 . S
C131 C136 1.342 . S
C132 C133 1.310 . S
C132 C135 1.461 . S
C132 H152 0.932 . S
C133 C131 1.408 . S
C133 C132 1.310 . S
C133 H153 0.930 . S
C134 C135 1.474 . S
C134 C136 1.285 . S
C134 H154 0.929 . S
C135 C132 1.461 . S
C135 C134 1.474 . S
C136 C131 1.342 . S
C136 C134 1.285 . S
C136 H155 0.930 . S
C137 C140 1.424 . S
C137 C142 1.245 . S
C137 C143 1.428 . S
C138 C141 1.260 . S
C138 C142 1.477 . S
C138 H156 0.932 . S
C139 C140 1.384 . S
C139 C141 1.479 . S
C139 H157 0.929 . S
C140 C137 1.424 . S
C140 C139 1.384 . S
C140 H158 0.928 . S
C141 C138 1.260 . S
C141 C139 1.479 . S
C142 C137 1.245 . S
C142 C138 1.477 . S
C142 H159 0.932 . S
C143 U126 2.882 . S
C143 C137 1.428 . S
C143 O146 1.301 . S
C143 O147 1.282 . S
O144 U126 2.441 . S
O144 C130 1.249 . S
O145 U126 2.420 . S
O145 C130 1.202 . S
O146 U126 2.455 . S
O146 C143 1.301 . S
O147 U126 2.449 . S
O147 C143 1.282 . S
H148 C121 0.931 . S
H149 C123 0.929 . S
H150 C124 0.930 . S
H151 C125 0.931 . S
H152 C132 0.932 . S
H153 C133 0.930 . S
H154 C134 0.929 . S
H155 C136 0.930 . S
H156 C138 0.932 . S
H157 C139 0.929 . S
H158 C140 0.928 . S
H159 C142 0.932 . S
C160 C161 1.264 . S
C160 C165 1.479 . S
C160 C170 1.465 . S
C161 C160 1.264 . S
C161 C163 1.339 . S
C161 H188 0.931 . S
C162 C163 1.395 . S
C162 C164 1.320 . S
C163 C161 1.339 . S
C163 C162 1.395 . S
C163 H189 0.929 . S
C164 C162 1.320 . S
C164 C165 1.405 . S
C164 H190 0.930 . S
C165 C160 1.479 . S
C165 C164 1.405 . S
C165 H191 0.931 . S
U166 O167 2.454 . S
U166 O168 2.458 . S
U166 C169 2.984 . S
U166 C170 2.847 . S
U166 C183 2.882 . S
U166 O184 2.441 . S
U166 O185 2.420 . S
U166 O186 2.455 . S
U166 O187 2.449 . S
O167 U166 2.454 . S
O167 C169 1.353 . S
O168 U166 2.458 . S
O168 C169 1.286 . S
C169 U166 2.984 . S
C169 O167 1.353 . S
C169 O168 1.286 . S
C169 C171 1.363 . S
C170 C160 1.465 . S
C170 U166 2.847 . S
C170 O184 1.249 . S
C170 O185 1.202 . S
C171 C169 1.363 . S
C171 C173 1.408 . S
C171 C176 1.342 . S
C172 C173 1.310 . S
C172 C175 1.461 . S
C172 H192 0.932 . S
C173 C171 1.408 . S
C173 C172 1.310 . S
C173 H193 0.930 . S
C174 C175 1.474 . S
C174 C176 1.285 . S
C174 H194 0.929 . S
C175 C172 1.461 . S
C175 C174 1.474 . S
C176 C171 1.342 . S
C176 C174 1.285 . S
C176 H195 0.930 . S
C177 C180 1.424 . S
C177 C182 1.245 . S
C177 C183 1.428 . S
C178 C181 1.260 . S
C178 C182 1.477 . S
C178 H196 0.932 . S
C179 C180 1.384 . S
C179 C181 1.479 . S
C179 H197 0.929 . S
C180 C177 1.424 . S
C180 C179 1.384 . S
C180 H198 0.928 . S
C181 C178 1.260 . S
C181 C179 1.479 . S
C182 C177 1.245 . S
C182 C178 1.477 . S
C182 H199 0.932 . S
C183 U166 2.882 . S
C183 C177 1.428 . S
C183 O186 1.301 . S
C183 O187 1.282 . S
O184 U166 2.441 . S
O184 C170 1.249 . S
O185 U166 2.420 . S
O185 C170 1.202 . S
O186 U166 2.455 . S
O186 C183 1.301 . S
O187 U166 2.449 . S
O187 C183 1.282 . S
H188 C161 0.931 . S
H189 C163 0.929 . S
H190 C164 0.930 . S
H191 C165 0.931 . S
H192 C172 0.932 . S
H193 C173 0.930 . S
H194 C174 0.929 . S
H195 C176 0.930 . S
H196 C178 0.932 . S
H197 C179 0.929 . S
H198 C180 0.928 . S
H199 C182 0.932 . S
C200 C201 1.264 . S
C200 C205 1.479 . S
C200 C210 1.465 . S
C201 C200 1.264 . S
C201 C203 1.339 . S
C201 H228 0.931 . S
C202 C203 1.395 . S
C202 C204 1.320 . S
C203 C201 1.339 . S
C203 C202 1.395 . S
C203 H229 0.929 . S
C204 C202 1.320 . S
C204 C205 1.405 . S
C204 H230 0.930 . S
C205 C200 1.479 . S
C205 C204 1.405 . S
C205 H231 0.931 . S
U206 O207 2.454 . S
U206 O208 2.458 . S
U206 C209 2.984 . S
U206 C210 2.847 . S
U206 C223 2.882 . S
U206 O224 2.441 . S
U206 O225 2.420 . S
U206 O226 2.455 . S
U206 O227 2.449 . S
O207 U206 2.454 . S
O207 C209 1.353 . S
O208 U206 2.458 . S
O208 C209 1.286 . S
C209 U206 2.984 . S
C209 O207 1.353 . S
C209 O208 1.286 . S
C209 C211 1.363 . S
C210 C200 1.465 . S
C210 U206 2.847 . S
C210 O224 1.249 . S
C210 O225 1.202 . S
C211 C209 1.363 . S
C211 C213 1.408 . S
C211 C216 1.342 . S
C212 C213 1.310 . S
C212 C215 1.461 . S
C212 H232 0.932 . S
C213 C211 1.408 . S
C213 C212 1.310 . S
C213 H233 0.930 . S
C214 C215 1.474 . S
C214 C216 1.285 . S
C214 H234 0.929 . S
C215 C212 1.461 . S
C215 C214 1.474 . S
C216 C211 1.342 . S
C216 C214 1.285 . S
C216 H235 0.930 . S
C217 C220 1.424 . S
C217 C222 1.245 . S
C217 C223 1.428 . S
C218 C221 1.260 . S
C218 C222 1.477 . S
C218 H236 0.932 . S
C219 C220 1.384 . S
C219 C221 1.479 . S
C219 H237 0.929 . S
C220 C217 1.424 . S
C220 C219 1.384 . S
C220 H238 0.928 . S
C221 C218 1.260 . S
C221 C219 1.479 . S
C222 C217 1.245 . S
C222 C218 1.477 . S
C222 H239 0.932 . S
C223 U206 2.882 . S
C223 C217 1.428 . S
C223 O226 1.301 . S
C223 O227 1.282 . S
O224 U206 2.441 . S
O224 C210 1.249 . S
O225 U206 2.420 . S
O225 C210 1.202 . S
O226 U206 2.455 . S
O226 C223 1.301 . S
O227 U206 2.449 . S
O227 C223 1.282 . S
H228 C201 0.931 . S
H229 C203 0.929 . S
H230 C204 0.930 . S
H231 C205 0.931 . S
H232 C212 0.932 . S
H233 C213 0.930 . S
H234 C214 0.929 . S
H235 C216 0.930 . S
H236 C218 0.932 . S
H237 C219 0.929 . S
H238 C220 0.928 . S
H239 C222 0.932 . S
C240 C241 1.264 . S
C240 C245 1.479 . S
C240 C250 1.465 . S
C241 C240 1.264 . S
C241 C243 1.339 . S
C241 H268 0.931 . S
C242 C243 1.395 . S
C242 C244 1.320 . S
C243 C241 1.339 . S
C243 C242 1.395 . S
C243 H269 0.929 . S
C244 C242 1.320 . S
C244 C245 1.405 . S
C244 H270 0.930 . S
C245 C240 1.479 . S
C245 C244 1.405 . S
C245 H271 0.931 . S
U246 O247 2.454 . S
U246 O248 2.458 . S
U246 C249 2.984 . S
U246 C250 2.847 . S
U246 C263 2.882 . S
U246 O264 2.441 . S
U246 O265 2.420 . S
U246 O266 2.455 . S
U246 O267 2.449 . S
O247 U246 2.454 . S
O247 C249 1.353 . S
O248 U246 2.458 . S
O248 C249 1.286 . S
C249 U246 2.984 . S
C249 O247 1.353 . S
C249 O248 1.286 . S
C249 C251 1.363 . S
C250 C240 1.465 . S
C250 U246 2.847 . S
C250 O264 1.249 . S
C250 O265 1.202 . S
C251 C249 1.363 . S
C251 C253 1.408 . S
C251 C256 1.342 . S
C252 C253 1.310 . S
C252 C255 1.461 . S
C252 H272 0.932 . S
C253 C251 1.408 . S
C253 C252 1.310 . S
C253 H273 0.930 . S
C254 C255 1.474 . S
C254 C256 1.285 . S
C254 H274 0.929 . S
C255 C252 1.461 . S
C255 C254 1.474 . S
C256 C251 1.342 . S
C256 C254 1.285 . S
C256 H275 0.930 . S
C257 C260 1.424 . S
C257 C262 1.245 . S
C257 C263 1.428 . S
C258 C261 1.260 . S
C258 C262 1.477 . S
C258 H276 0.932 1_556 S
C259 C260 1.384 . S
C259 C261 1.479 . S
C259 H277 0.929 . S
C260 C257 1.424 . S
C260 C259 1.384 . S
C260 H278 0.928 . S
C261 C258 1.260 . S
C261 C259 1.479 . S
C262 C257 1.245 . S
C262 C258 1.477 . S
C262 H279 0.932 . S
C263 U246 2.882 . S
C263 C257 1.428 . S
C263 O266 1.301 . S
C263 O267 1.282 . S
O264 U246 2.441 . S
O264 C250 1.249 . S
O265 U246 2.420 . S
O265 C250 1.202 . S
O266 U246 2.455 . S
O266 C263 1.301 . S
O267 U246 2.449 . S
O267 C263 1.282 . S
H268 C241 0.931 . S
H269 C243 0.929 . S
H270 C244 0.930 . S
H271 C245 0.931 . S
H272 C252 0.932 . S
H273 C253 0.930 . S
H274 C254 0.929 . S
H275 C256 0.930 . S
H276 C258 0.932 1_554 S
H277 C259 0.929 . S
H278 C260 0.928 . S
H279 C262 0.932 . S
C280 C281 1.264 . S
C280 C285 1.479 . S
C280 C290 1.465 . S
C281 C280 1.264 . S
C281 C283 1.339 . S
C281 H308 0.931 . S
C282 C283 1.395 1_556 S
C282 C284 1.320 . S
C283 C281 1.339 . S
C283 C282 1.395 1_554 S
C283 H309 0.929 . S
C284 C282 1.320 . S
C284 C285 1.405 1_556 S
C284 H310 0.930 . S
C285 C280 1.479 . S
C285 C284 1.405 1_554 S
C285 H311 0.931 . S
U286 O287 2.454 . S
U286 O288 2.458 . S
U286 C289 2.984 . S
U286 C290 2.847 . S
U286 C303 2.882 . S
U286 O304 2.441 . S
U286 O305 2.420 . S
U286 O306 2.455 . S
U286 O307 2.449 . S
O287 U286 2.454 . S
O287 C289 1.353 . S
O288 U286 2.458 . S
O288 C289 1.286 . S
C289 U286 2.984 . S
C289 O287 1.353 . S
C289 O288 1.286 . S
C289 C291 1.363 . S
C290 C280 1.465 . S
C290 U286 2.847 . S
C290 O304 1.249 . S
C290 O305 1.202 . S
C291 C289 1.363 . S
C291 C293 1.408 . S
C291 C296 1.342 . S
C292 C293 1.310 . S
C292 C295 1.461 . S
C292 H312 0.932 . S
C293 C291 1.408 . S
C293 C292 1.310 . S
C293 H313 0.930 . S
C294 C295 1.474 . S
C294 C296 1.285 . S
C294 H314 0.929 . S
C295 C292 1.461 . S
C295 C294 1.474 . S
C296 C291 1.342 . S
C296 C294 1.285 . S
C296 H315 0.930 . S
C297 C300 1.424 . S
C297 C302 1.245 . S
C297 C303 1.428 . S
C298 C301 1.260 . S
C298 C302 1.477 . S
C298 H316 0.932 . S
C299 C300 1.384 . S
C299 C301 1.479 . S
C299 H317 0.929 . S
C300 C297 1.424 . S
C300 C299 1.384 . S
C300 H318 0.928 . S
C301 C298 1.260 . S
C301 C299 1.479 . S
C302 C297 1.245 . S
C302 C298 1.477 . S
C302 H319 0.932 . S
C303 U286 2.882 . S
C303 C297 1.428 . S
C303 O306 1.301 . S
C303 O307 1.282 . S
O304 U286 2.441 . S
O304 C290 1.249 . S
O305 U286 2.420 . S
O305 C290 1.202 . S
O306 U286 2.455 . S
O306 C303 1.301 . S
O307 U286 2.449 . S
O307 C303 1.282 . S
H308 C281 0.931 . S
H309 C283 0.929 . S
H310 C284 0.930 . S
H311 C285 0.931 . S
H312 C292 0.932 . S
H313 C293 0.930 . S
H314 C294 0.929 . S
H315 C296 0.930 . S
H316 C298 0.932 . S
H317 C299 0.929 . S
H318 C300 0.928 . S
H319 C302 0.932 . S
Nd320 C322 2.836 1_445 S
Nd320 O340 2.500 1_445 S
Nd320 O341 2.492 1_545 S
Nd320 O342 2.487 . S
Nd320 O343 2.682 . S
Nd320 O344 2.410 1_545 S
Nd320 O349 2.414 1_455 S
Nd320 O351 2.424 . S
Nd321 C331 2.836 1_556 S
Nd321 O343 2.414 . S
Nd321 O345 2.424 1_545 S
Nd321 O346 2.500 . S
Nd321 O347 2.492 1_556 S
Nd321 O348 2.487 1_455 S
Nd321 O349 2.682 1_455 S
Nd321 O350 2.410 . S
C322 Nd320 2.836 1_665 S
C322 C323 1.498 . S
C322 O340 1.258 . S
C322 O341 1.239 1_655 S
C323 C322 1.498 . S
C323 C324 1.366 . S
C323 C328 1.407 . S
C324 C323 1.366 . S
C324 C325 1.392 . S
C324 H352 0.930 . S
C325 C324 1.392 . S
C325 C326 1.398 . S
C325 H353 0.929 . S
C326 C325 1.398 . S
C326 C327 1.352 . S
C327 C326 1.352 . S
C327 C328 1.384 . S
C327 H354 0.930 . S
C328 C323 1.407 . S
C328 C327 1.384 . S
C328 H355 0.929 1_655 S
C329 O342 1.241 . S
C329 O343 1.273 . S
C330 O344 1.251 . S
C330 O345 1.268 . S
C331 Nd321 2.836 1_554 S
C331 C332 1.498 . S
C331 O346 1.258 1_554 S
C331 O347 1.239 . S
C332 C331 1.498 . S
C332 C333 1.366 . S
C332 C337 1.407 . S
C333 C332 1.366 . S
C333 C334 1.392 . S
C333 H356 0.930 . S
C334 C333 1.392 . S
C334 C335 1.398 . S
C334 H357 0.929 . S
C335 C334 1.398 . S
C335 C336 1.352 . S
C336 C335 1.352 . S
C336 C337 1.384 . S
C336 H358 0.930 . S
C337 C332 1.407 . S
C337 C336 1.384 . S
C337 H359 0.929 . S
C338 O348 1.241 . S
C338 O349 1.273 . S
C339 O350 1.251 . S
C339 O351 1.268 . S
O340 Nd320 2.500 1_665 S
O340 C322 1.258 . S
O341 Nd320 2.492 1_565 S
O341 C322 1.239 1_455 S
O342 Nd320 2.487 . S
O342 C329 1.241 . S
O343 Nd320 2.682 . S
O343 Nd321 2.414 . S
O343 C329 1.273 . S
O344 Nd320 2.410 1_565 S
O344 C330 1.251 . S
O345 Nd321 2.424 1_565 S
O345 C330 1.268 . S
O346 Nd321 2.500 . S
O346 C331 1.258 1_556 S
O347 Nd321 2.492 1_554 S
O347 C331 1.239 . S
O348 Nd321 2.487 1_655 S
O348 C338 1.241 . S
O349 Nd320 2.414 1_655 S
O349 Nd321 2.682 1_655 S
O349 C338 1.273 . S
O350 Nd321 2.410 . S
O350 C339 1.251 . S
O351 Nd320 2.424 . S
O351 C339 1.268 . S
H352 C324 0.930 . S
H353 C325 0.929 . S
H354 C327 0.930 . S
H355 C328 0.929 1_455 S
H356 C333 0.930 . S
H357 C334 0.929 . S
H358 C336 0.930 . S
H359 C337 0.929 . S
Nd360 C362 2.836 1_545 S
Nd360 O380 2.500 1_545 S
Nd360 O381 2.492 . S
Nd360 O382 2.487 . S
Nd360 O383 2.682 . S
Nd360 O384 2.410 . S
Nd360 O389 2.414 1_545 S
Nd360 O391 2.424 . S
Nd361 C371 2.836 1_556 S
Nd361 O383 2.414 . S
Nd361 O385 2.424 . S
Nd361 O386 2.500 . S
Nd361 O387 2.492 1_556 S
Nd361 O388 2.487 1_545 S
Nd361 O389 2.682 1_545 S
Nd361 O390 2.410 . S
C362 Nd360 2.836 1_565 S
C362 C363 1.498 . S
C362 O380 1.258 . S
C362 O381 1.239 1_565 S
C363 C362 1.498 . S
C363 C364 1.366 . S
C363 C368 1.407 1_565 S
C364 C363 1.366 . S
C364 C365 1.392 . S
C364 H392 0.930 . S
C365 C364 1.392 . S
C365 C366 1.398 . S
C365 H393 0.929 . S
C366 C365 1.398 . S
C366 C367 1.352 . S
C367 C366 1.352 . S
C367 C368 1.384 1_565 S
C367 H394 0.930 1_565 S
C368 C363 1.407 1_545 S
C368 C367 1.384 1_545 S
C368 H395 0.929 . S
C369 O382 1.241 . S
C369 O383 1.273 . S
C370 O384 1.251 . S
C370 O385 1.268 . S
C371 Nd361 2.836 1_554 S
C371 C372 1.498 . S
C371 O386 1.258 1_554 S
C371 O387 1.239 . S
C372 C371 1.498 . S
C372 C373 1.366 . S
C372 C377 1.407 . S
C373 C372 1.366 . S
C373 C374 1.392 . S
C373 H396 0.930 1_554 S
C374 C373 1.392 . S
C374 C375 1.398 . S
C374 H397 0.929 . S
C375 C374 1.398 . S
C375 C376 1.352 . S
C376 C375 1.352 . S
C376 C377 1.384 . S
C376 H398 0.930 . S
C377 C372 1.407 . S
C377 C376 1.384 . S
C377 H399 0.929 . S
C378 O388 1.241 . S
C378 O389 1.273 . S
C379 O390 1.251 . S
C379 O391 1.268 . S
O380 Nd360 2.500 1_565 S
O380 C362 1.258 . S
O381 Nd360 2.492 . S
O381 C362 1.239 1_545 S
O382 Nd360 2.487 . S
O382 C369 1.241 . S
O383 Nd360 2.682 . S
O383 Nd361 2.414 . S
O383 C369 1.273 . S
O384 Nd360 2.410 . S
O384 C370 1.251 . S
O385 Nd361 2.424 . S
O385 C370 1.268 . S
O386 Nd361 2.500 . S
O386 C371 1.258 1_556 S
O387 Nd361 2.492 1_554 S
O387 C371 1.239 . S
O388 Nd361 2.487 1_565 S
O388 C378 1.241 . S
O389 Nd360 2.414 1_565 S
O389 Nd361 2.682 1_565 S
O389 C378 1.273 . S
O390 Nd361 2.410 . S
O390 C379 1.251 . S
O391 Nd360 2.424 . S
O391 C379 1.268 . S
H392 C364 0.930 . S
H393 C365 0.929 . S
H394 C367 0.930 1_545 S
H395 C368 0.929 . S
H396 C373 0.930 1_556 S
H397 C374 0.929 . S
H398 C376 0.930 . S
H399 C377 0.929 . S
Nd400 C402 2.836 . S
Nd400 O420 2.500 . S
Nd400 O421 2.492 . S
Nd400 O422 2.487 . S
Nd400 O423 2.682 . S
Nd400 O424 2.410 . S
Nd400 O429 2.414 . S
Nd400 O431 2.424 . S
Nd401 C411 2.836 . S
Nd401 O423 2.414 . S
Nd401 O425 2.424 . S
Nd401 O426 2.500 . S
Nd401 O427 2.492 . S
Nd401 O428 2.487 . S
Nd401 O429 2.682 . S
Nd401 O430 2.410 . S
C402 Nd400 2.836 . S
C402 C403 1.498 . S
C402 O420 1.258 . S
C402 O421 1.239 . S
C403 C402 1.498 . S
C403 C404 1.366 . S
C403 C408 1.407 1_556 S
C404 C403 1.366 . S
C404 C405 1.392 . S
C404 H432 0.930 . S
C405 C404 1.392 . S
C405 C406 1.398 1_556 S
C405 H433 0.929 . S
C406 C405 1.398 1_554 S
C406 C407 1.352 . S
C407 C406 1.352 . S
C407 C408 1.384 . S
C407 H434 0.930 . S
C408 C403 1.407 1_554 S
C408 C407 1.384 . S
C408 H435 0.929 . S
C409 O422 1.241 . S
C409 O423 1.273 . S
C410 O424 1.251 . S
C410 O425 1.268 . S
C411 Nd401 2.836 . S
C411 C412 1.498 . S
C411 O426 1.258 . S
C411 O427 1.239 . S
C412 C411 1.498 . S
C412 C413 1.366 . S
C412 C417 1.407 . S
C413 C412 1.366 . S
C413 C414 1.392 . S
C413 H436 0.930 . S
C414 C413 1.392 . S
C414 C415 1.398 . S
C414 H437 0.929 . S
C415 C414 1.398 . S
C415 C416 1.352 . S
C416 C415 1.352 . S
C416 C417 1.384 . S
C416 H438 0.930 . S
C417 C412 1.407 . S
C417 C416 1.384 . S
C417 H439 0.929 . S
C418 O428 1.241 . S
C418 O429 1.273 . S
C419 O430 1.251 . S
C419 O431 1.268 . S
O420 Nd400 2.500 . S
O420 C402 1.258 . S
O421 Nd400 2.492 . S
O421 C402 1.239 . S
O422 Nd400 2.487 . S
O422 C409 1.241 . S
O423 Nd400 2.682 . S
O423 Nd401 2.414 . S
O423 C409 1.273 . S
O424 Nd400 2.410 . S
O424 C410 1.251 . S
O425 Nd401 2.424 . S
O425 C410 1.268 . S
O426 Nd401 2.500 . S
O426 C411 1.258 . S
O427 Nd401 2.492 . S
O427 C411 1.239 . S
O428 Nd401 2.487 . S
O428 C418 1.241 . S
O429 Nd400 2.414 . S
O429 Nd401 2.682 . S
O429 C418 1.273 . S
O430 Nd401 2.410 . S
O430 C419 1.251 . S
O431 Nd400 2.424 . S
O431 C419 1.268 . S
H432 C404 0.930 . S
H433 C405 0.929 . S
H434 C407 0.930 . S
H435 C408 0.929 . S
H436 C413 0.930 . S
H437 C414 0.929 . S
H438 C416 0.930 . S
H439 C417 0.929 . S
Nd440 C442 2.836 1_455 S
Nd440 O460 2.500 1_455 S
Nd440 O461 2.492 1_455 S
Nd440 O462 2.487 . S
Nd440 O463 2.682 . S
Nd440 O464 2.410 1_455 S
Nd440 O469 2.414 . S
Nd440 O471 2.424 . S
Nd441 C451 2.836 1_556 S
Nd441 O463 2.414 . S
Nd441 O465 2.424 1_455 S
Nd441 O466 2.500 . S
Nd441 O467 2.492 1_556 S
Nd441 O468 2.487 . S
Nd441 O469 2.682 . S
Nd441 O470 2.410 . S
C442 Nd440 2.836 1_655 S
C442 C443 1.498 . S
C442 O460 1.258 . S
C442 O461 1.239 . S
C443 C442 1.498 . S
C443 C444 1.366 . S
C443 C448 1.407 . S
C444 C443 1.366 . S
C444 C445 1.392 . S
C444 H472 0.930 . S
C445 C444 1.392 . S
C445 C446 1.398 . S
C445 H473 0.929 . S
C446 C445 1.398 . S
C446 C447 1.352 . S
C447 C446 1.352 . S
C447 C448 1.384 . S
C447 H474 0.930 . S
C448 C443 1.407 . S
C448 C447 1.384 . S
C448 H475 0.929 . S
C449 O462 1.241 . S
C449 O463 1.273 . S
C450 O464 1.251 . S
C450 O465 1.268 . S
C451 Nd441 2.836 1_554 S
C451 C452 1.498 . S
C451 O466 1.258 1_554 S
C451 O467 1.239 . S
C452 C451 1.498 . S
C452 C453 1.366 . S
C452 C457 1.407 . S
C453 C452 1.366 . S
C453 C454 1.392 . S
C453 H476 0.930 . S
C454 C453 1.392 . S
C454 C455 1.398 . S
C454 H477 0.929 . S
C455 C454 1.398 . S
C455 C456 1.352 . S
C456 C455 1.352 . S
C456 C457 1.384 . S
C456 H478 0.930 . S
C457 C452 1.407 . S
C457 C456 1.384 . S
C457 H479 0.929 . S
C458 O468 1.241 . S
C458 O469 1.273 . S
C459 O470 1.251 . S
C459 O471 1.268 . S
O460 Nd440 2.500 1_655 S
O460 C442 1.258 . S
O461 Nd440 2.492 1_655 S
O461 C442 1.239 . S
O462 Nd440 2.487 . S
O462 C449 1.241 . S
O463 Nd440 2.682 . S
O463 Nd441 2.414 . S
O463 C449 1.273 . S
O464 Nd440 2.410 1_655 S
O464 C450 1.251 . S
O465 Nd441 2.424 1_655 S
O465 C450 1.268 . S
O466 Nd441 2.500 . S
O466 C451 1.258 1_556 S
O467 Nd441 2.492 1_554 S
O467 C451 1.239 . S
O468 Nd441 2.487 . S
O468 C458 1.241 . S
O469 Nd440 2.414 . S
O469 Nd441 2.682 . S
O469 C458 1.273 . S
O470 Nd441 2.410 . S
O470 C459 1.251 . S
O471 Nd440 2.424 . S
O471 C459 1.268 . S
H472 C444 0.930 . S
H473 C445 0.929 . S
H474 C447 0.930 . S
H475 C448 0.929 . S
H476 C453 0.930 . S
H477 C454 0.929 . S
H478 C456 0.930 . S
H479 C457 0.929 . S
C480 C481 1.363 . S
C480 C486 1.379 . S
C480 N488 1.356 . S
C481 C480 1.363 . S
C481 C487 1.363 . S
C482 C483 1.363 . S
C482 C487 1.379 . S
C482 N489 1.356 . S
C483 C482 1.363 . S
C483 C486 1.363 . S
N484 C486 1.356 1_565 S
N484 H496 0.984 . S
N484 H497 0.985 . S
N485 C487 1.356 . S
N485 H490 0.984 . S
N485 H491 0.985 . S
C486 C480 1.379 . S
C486 C483 1.363 . S
C486 N484 1.356 1_545 S
C487 C481 1.363 . S
C487 C482 1.379 . S
C487 N485 1.356 . S
N488 C480 1.356 . S
N488 H494 0.984 1_545 S
N488 H495 0.984 . S
N489 C482 1.356 . S
N489 H492 0.984 . S
N489 H493 0.985 . S
H490 N485 0.984 . S
H491 N485 0.985 . S
H492 N489 0.984 . S
H493 N489 0.985 . S
H494 N488 0.984 1_565 S
H495 N488 0.984 . S
H496 N484 0.984 . S
H497 N484 0.985 . S
C498 C499 1.363 . S
C498 C504 1.379 . S
C498 N506 1.356 . S
C499 C498 1.363 . S
C499 C505 1.363 . S
C500 C501 1.363 . S
C500 C505 1.379 . S
C500 N507 1.356 . S
C501 C500 1.363 . S
C501 C504 1.363 . S
N502 C504 1.356 . S
N502 H514 0.984 . S
N502 H515 0.985 . S
N503 C505 1.356 . S
N503 H508 0.984 . S
N503 H509 0.985 . S
C504 C498 1.379 . S
C504 C501 1.363 . S
C504 N502 1.356 . S
C505 C499 1.363 . S
C505 C500 1.379 . S
C505 N503 1.356 . S
N506 C498 1.356 . S
N506 H512 0.984 . S
N506 H513 0.984 . S
N507 C500 1.356 . S
N507 H510 0.984 . S
N507 H511 0.985 . S
H508 N503 0.984 . S
H509 N503 0.985 . S
H510 N507 0.984 . S
H511 N507 0.985 . S
H512 N506 0.984 . S
H513 N506 0.984 . S
H514 N502 0.984 . S
H515 N502 0.985 . S
C516 C517 1.363 . S
C516 C522 1.379 . S
C516 N524 1.356 . S
C517 C516 1.363 . S
C517 C523 1.363 . S
C518 C519 1.363 . S
C518 C523 1.379 . S
C518 N525 1.356 . S
C519 C518 1.363 . S
C519 C522 1.363 . S
N520 C522 1.356 . S
N520 H532 0.984 . S
N520 H533 0.985 . S
N521 C523 1.356 . S
N521 H526 0.984 . S
N521 H527 0.985 . S
C522 C516 1.379 . S
C522 C519 1.363 . S
C522 N520 1.356 . S
C523 C517 1.363 . S
C523 C518 1.379 . S
C523 N521 1.356 . S
N524 C516 1.356 . S
N524 H530 0.984 . S
N524 H531 0.984 . S
N525 C518 1.356 . S
N525 H528 0.984 . S
N525 H529 0.985 . S
H526 N521 0.984 . S
H527 N521 0.985 . S
H528 N525 0.984 . S
H529 N525 0.985 . S
H530 N524 0.984 . S
H531 N524 0.984 . S
H532 N520 0.984 . S
H533 N520 0.985 . S
C534 C535 1.363 . S
C534 C540 1.379 . S
C534 N542 1.356 . S
C535 C534 1.363 . S
C535 C541 1.363 . S
C536 C537 1.363 . S
C536 C541 1.379 . S
C536 N543 1.356 . S
C537 C536 1.363 . S
C537 C540 1.363 . S
N538 C540 1.356 . S
N538 H550 0.984 . S
N538 H551 0.985 . S
N539 C541 1.356 . S
N539 H544 0.984 . S
N539 H545 0.985 . S
C540 C534 1.379 . S
C540 C537 1.363 . S
C540 N538 1.356 . S
C541 C535 1.363 . S
C541 C536 1.379 . S
C541 N539 1.356 . S
N542 C534 1.356 . S
N542 H548 0.984 . S
N542 H549 0.984 . S
N543 C536 1.356 . S
N543 H546 0.984 . S
N543 H547 0.985 . S
H544 N539 0.984 . S
H545 N539 0.985 . S
H546 N543 0.984 . S
H547 N543 0.985 . S
H548 N542 0.984 . S
H549 N542 0.984 . S
H550 N538 0.984 . S
H551 N538 0.985 . S
C552 C553 1.363 . S
C552 C558 1.379 . S
C552 N560 1.356 . S
C553 C552 1.363 . S
C553 C559 1.363 1_565 S
C554 C555 1.363 . S
C554 C559 1.379 . S
C554 N561 1.356 . S
C555 C554 1.363 . S
C555 C558 1.363 1_545 S
N556 C558 1.356 . S
N556 H568 0.984 . S
N556 H569 0.981 1_565 S
N557 C559 1.356 . S
N557 H562 0.984 . S
N557 H563 0.985 . S
C558 C552 1.379 . S
C558 C555 1.363 1_565 S
C558 N556 1.356 . S
C559 C553 1.363 1_545 S
C559 C554 1.379 . S
C559 N557 1.356 . S
N560 C552 1.356 . S
N560 H566 0.984 . S
N560 H567 0.984 . S
N561 C554 1.356 . S
N561 H564 0.984 . S
N561 H565 0.985 . S
H562 N557 0.984 . S
H563 N557 0.985 . S
H564 N561 0.984 . S
H565 N561 0.985 . S
H566 N560 0.984 . S
H567 N560 0.984 . S
H568 N556 0.984 . S
H569 N556 0.981 1_545 S
C570 C571 1.363 . S
C570 C576 1.379 . S
C570 N578 1.356 . S
C571 C570 1.363 . S
C571 C577 1.363 . S
C572 C573 1.363 . S
C572 C577 1.379 . S
C572 N579 1.356 . S
C573 C572 1.363 . S
C573 C576 1.363 . S
N574 C576 1.356 1_556 S
N574 H586 0.984 . S
N574 H587 0.985 . S
N575 C577 1.366 . S
N575 H580 0.988 . S
N575 H581 0.971 1_565 S
C576 C570 1.379 . S
C576 C573 1.363 . S
C576 N574 1.356 1_554 S
C577 C571 1.363 . S
C577 C572 1.379 . S
C577 N575 1.366 . S
N578 C570 1.356 . S
N578 H584 0.984 . S
N578 H585 0.984 . S
N579 C572 1.356 . S
N579 H582 0.984 . S
N579 H583 0.985 1_565 S
H580 N575 0.988 . S
H581 N575 0.971 1_545 S
H582 N579 0.984 . S
H583 N579 0.985 1_545 S
H584 N578 0.984 . S
H585 N578 0.984 . S
H586 N574 0.984 . S
H587 N574 0.985 . S
C588 C589 1.363 . S
C588 C594 1.379 . S
C588 N596 1.356 . S
C589 C588 1.363 . S
C589 C595 1.363 . S
C590 C591 1.363 . S
C590 C595 1.379 . S
C590 N597 1.356 . S
C591 C590 1.363 . S
C591 C594 1.363 . S
N592 C594 1.356 . S
N592 H604 0.984 . S
N592 H605 0.985 . S
N593 C595 1.356 1_554 S
N593 H598 0.984 . S
N593 H599 0.985 . S
C594 C588 1.379 . S
C594 C591 1.363 . S
C594 N592 1.356 . S
C595 C589 1.363 . S
C595 C590 1.379 . S
C595 N593 1.356 1_556 S
N596 C588 1.356 . S
N596 H602 0.984 . S
N596 H603 0.984 . S
N597 C590 1.356 . S
N597 H600 0.984 . S
N597 H601 0.985 1_556 S
H598 N593 0.984 . S
H599 N593 0.985 . S
H600 N597 0.984 . S
H601 N597 0.985 1_554 S
H602 N596 0.984 . S
H603 N596 0.984 . S
H604 N592 0.984 . S
H605 N592 0.985 . S
C606 C607 1.363 . S
C606 C612 1.379 . S
C606 N614 1.356 . S
C607 C606 1.363 . S
C607 C613 1.363 . S
C608 C609 1.363 . S
C608 C613 1.379 . S
C608 N615 1.365 . S
C609 C608 1.363 . S
C609 C612 1.363 . S
N610 C612 1.356 . S
N610 H622 0.984 . S
N610 H623 0.985 . S
N611 C613 1.356 1_554 S
N611 H616 0.984 . S
N611 H617 0.985 . S
C612 C606 1.379 . S
C612 C609 1.363 . S
C612 N610 1.356 . S
C613 C607 1.363 . S
C613 C608 1.379 . S
C613 N611 1.356 1_556 S
N614 C606 1.356 . S
N614 H620 0.984 . S
N614 H621 0.984 . S
N615 C608 1.365 . S
N615 H618 0.979 1_655 S
N615 H619 0.982 1_656 S
H616 N611 0.984 . S
H617 N611 0.985 . S
H618 N615 0.979 1_455 S
H619 N615 0.982 1_454 S
H620 N614 0.984 . S
H621 N614 0.984 . S
H622 N610 0.984 . S
H623 N610 0.985 . S
C624 C625 1.363 . S
C624 C630 1.379 . S
C624 N632 1.356 . S
C625 C624 1.363 . S
C625 C631 1.363 . S
C626 C627 1.363 . S
C626 C631 1.379 . S
C626 N633 1.356 . S
C627 C626 1.363 . S
C627 C630 1.363 . S
N628 C630 1.356 . S
N628 H640 0.984 . S
N628 H641 0.985 . S
N629 C631 1.356 . S
N629 H634 0.984 . S
N629 H635 0.985 1_556 S
C630 C624 1.379 . S
C630 C627 1.363 . S
C630 N628 1.356 . S
C631 C625 1.363 . S
C631 C626 1.379 . S
C631 N629 1.356 . S
N632 C624 1.356 . S
N632 H638 0.984 . S
N632 H639 0.984 . S
N633 C626 1.356 . S
N633 H636 0.984 . S
N633 H637 0.985 . S
H634 N629 0.984 . S
H635 N629 0.985 1_554 S
H636 N633 0.984 . S
H637 N633 0.985 . S
H638 N632 0.984 . S
H639 N632 0.984 . S
H640 N628 0.984 . S
H641 N628 0.985 . S
C642 C643 1.363 . S
C642 C648 1.379 . S
C642 N650 1.356 . S
C643 C642 1.363 . S
C643 C649 1.363 . S
C644 C645 1.363 . S
C644 C649 1.379 . S
C644 N651 1.356 . S
C645 C644 1.363 . S
C645 C648 1.363 . S
N646 C648 1.356 . S
N646 H658 0.984 . S
N646 H659 0.985 . S
N647 C649 1.356 1_554 S
N647 H652 0.984 . S
N647 H653 0.985 . S
C648 C642 1.379 . S
C648 C645 1.363 . S
C648 N646 1.356 . S
C649 C643 1.363 . S
C649 C644 1.379 . S
C649 N647 1.356 1_556 S
N650 C642 1.356 . S
N650 H656 0.984 . S
N650 H657 0.984 . S
N651 C644 1.356 . S
N651 H654 0.984 . S
N651 H655 0.985 . S
H652 N647 0.984 . S
H653 N647 0.985 . S
H654 N651 0.984 . S
H655 N651 0.985 . S
H656 N650 0.984 . S
H657 N650 0.984 . S
H658 N646 0.984 . S
H659 N646 0.985 . S
C660 C661 1.363 . S
C660 C666 1.379 . S
C660 N668 1.356 . S
C661 C660 1.363 . S
C661 C667 1.363 . S
C662 C663 1.363 . S
C662 C667 1.379 . S
C662 N669 1.356 . S
C663 C662 1.363 . S
C663 C666 1.363 . S
N664 C666 1.356 . S
N664 H676 0.984 . S
N664 H677 0.985 . S
N665 C667 1.356 . S
N665 H670 0.984 . S
N665 H671 0.985 . S
C666 C660 1.379 . S
C666 C663 1.363 . S
C666 N664 1.356 . S
C667 C661 1.363 . S
C667 C662 1.379 . S
C667 N665 1.356 . S
N668 C660 1.356 . S
N668 H674 0.984 . S
N668 H675 0.984 . S
N669 C662 1.356 . S
N669 H672 0.984 . S
N669 H673 0.985 . S
H670 N665 0.984 . S
H671 N665 0.985 . S
H672 N669 0.984 . S
H673 N669 0.985 . S
H674 N668 0.984 . S
H675 N668 0.984 . S
H676 N664 0.984 . S
H677 N664 0.985 . S
C678 C679 1.363 . S
C678 C684 1.379 . S
C678 N686 1.356 . S
C679 C678 1.363 . S
C679 C685 1.363 . S
C680 C681 1.363 . S
C680 C685 1.379 . S
C680 N687 1.356 . S
C681 C680 1.363 . S
C681 C684 1.363 . S
N682 C684 1.356 . S
N682 H694 0.984 . S
N682 H695 0.985 . S
N683 C685 1.356 . S
N683 H688 0.984 . S
N683 H689 0.985 . S
C684 C678 1.379 . S
C684 C681 1.363 . S
C684 N682 1.356 . S
C685 C679 1.363 . S
C685 C680 1.379 . S
C685 N683 1.356 . S
N686 C678 1.356 . S
N686 H692 0.984 . S
N686 H693 0.984 . S
N687 C680 1.356 . S
N687 H690 0.984 . S
N687 H691 0.985 . S
H688 N683 0.984 . S
H689 N683 0.985 . S
H690 N687 0.984 . S
H691 N687 0.985 . S
H692 N686 0.984 . S
H693 N686 0.984 . S
H694 N682 0.984 . S
H695 N682 0.985 . S
C696 C697 1.363 . S
C696 C702 1.379 . S
C696 N704 1.356 . S
C697 C696 1.363 . S
C697 C703 1.363 . S
C698 C699 1.363 . S
C698 C703 1.379 . S
C698 N705 1.356 . S
C699 C698 1.363 . S
C699 C702 1.363 . S
N700 C702 1.356 . S
N700 H712 0.984 1_556 S
N700 H713 0.985 . S
N701 C703 1.356 . S
N701 H706 0.984 . S
N701 H707 0.985 . S
C702 C696 1.379 . S
C702 C699 1.363 . S
C702 N700 1.356 . S
C703 C697 1.363 . S
C703 C698 1.379 . S
C703 N701 1.356 . S
N704 C696 1.356 . S
N704 H710 0.984 . S
N704 H711 0.984 . S
N705 C698 1.356 . S
N705 H708 0.984 1_655 S
N705 H709 0.981 1_655 S
H706 N701 0.984 . S
H707 N701 0.985 . S
H708 N705 0.984 1_455 S
H709 N705 0.981 1_455 S
H710 N704 0.984 . S
H711 N704 0.984 . S
H712 N700 0.984 1_554 S
H713 N700 0.985 . S
C714 C715 1.363 . S
C714 C720 1.379 . S
C714 N722 1.356 . S
C715 C714 1.363 . S
C715 C721 1.363 1_545 S
C716 C717 1.363 . S
C716 C721 1.379 1_545 S
C716 N723 1.356 . S
C717 C716 1.363 . S
C717 C720 1.363 . S
N718 C720 1.356 . S
N718 H730 0.984 . S
N718 H731 0.985 . S
N719 C721 1.356 . S
N719 H724 0.984 . S
N719 H725 0.985 . S
C720 C714 1.379 . S
C720 C717 1.363 . S
C720 N718 1.356 . S
C721 C715 1.363 1_565 S
C721 C716 1.379 1_565 S
C721 N719 1.356 . S
N722 C714 1.356 . S
N722 H728 0.984 . S
N722 H729 0.984 . S
N723 C716 1.356 . S
N723 H726 0.984 . S
N723 H727 0.985 1_545 S
H724 N719 0.984 . S
H725 N719 0.985 . S
H726 N723 0.984 . S
H727 N723 0.985 1_565 S
H728 N722 0.984 . S
H729 N722 0.984 . S
H730 N718 0.984 . S
H731 N718 0.985 . S
C732 C733 1.363 . S
C732 C738 1.379 . S
C732 N740 1.356 . S
C733 C732 1.363 . S
C733 C739 1.363 . S
C734 C735 1.363 . S
C734 C739 1.379 . S
C734 N741 1.356 . S
C735 C734 1.363 . S
C735 C738 1.363 . S
N736 C738 1.356 1_556 S
N736 H748 0.984 . S
N736 H749 0.985 . S
N737 C739 1.356 . S
N737 H742 0.984 . S
N737 H743 0.985 . S
C738 C732 1.379 . S
C738 C735 1.363 . S
C738 N736 1.356 1_554 S
C739 C733 1.363 . S
C739 C734 1.379 . S
C739 N737 1.356 . S
N740 C732 1.356 . S
N740 H746 0.984 1_554 S
N740 H747 0.984 . S
N741 C734 1.356 . S
N741 H744 0.984 . S
N741 H745 0.985 . S
H742 N737 0.984 . S
H743 N737 0.985 . S
H744 N741 0.984 . S
H745 N741 0.985 . S
H746 N740 0.984 1_556 S
H747 N740 0.984 . S
H748 N736 0.984 . S
H749 N736 0.985 . S
C750 C751 1.363 . S
C750 C756 1.379 . S
C750 N758 1.356 . S
C751 C750 1.363 . S
C751 C757 1.363 . S
C752 C753 1.363 . S
C752 C757 1.379 . S
C752 N759 1.356 . S
C753 C752 1.363 . S
C753 C756 1.363 . S
N754 C756 1.356 . S
N754 H766 0.984 1_556 S
N754 H767 0.985 . S
N755 C757 1.356 . S
N755 H760 0.984 . S
N755 H761 0.985 . S
C756 C750 1.379 . S
C756 C753 1.363 . S
C756 N754 1.356 . S
C757 C751 1.363 . S
C757 C752 1.379 . S
C757 N755 1.356 . S
N758 C750 1.356 . S
N758 H764 0.984 . S
N758 H765 0.984 . S
N759 C752 1.356 . S
N759 H762 0.984 . S
N759 H763 0.985 . S
H760 N755 0.984 . S
H761 N755 0.985 . S
H762 N759 0.984 . S
H763 N759 0.985 . S
H764 N758 0.984 . S
H765 N758 0.984 . S
H766 N754 0.984 1_554 S
H767 N754 0.985 . S
C768 C769 1.363 . S
C768 C774 1.379 . S
C768 N776 1.356 . S
C769 C768 1.363 . S
C769 C775 1.363 . S
C770 C771 1.363 . S
C770 C775 1.379 . S
C770 N777 1.356 . S
C771 C770 1.363 . S
C771 C774 1.363 . S
N772 C774 1.356 . S
N772 H784 0.984 . S
N772 H785 0.985 . S
N773 C775 1.356 . S
N773 H778 0.984 . S
N773 H779 0.985 . S
C774 C768 1.379 . S
C774 C771 1.363 . S
C774 N772 1.356 . S
C775 C769 1.363 . S
C775 C770 1.379 . S
C775 N773 1.356 . S
N776 C768 1.356 . S
N776 H782 0.984 . S
N776 H783 0.984 . S
N777 C770 1.356 . S
N777 H780 0.984 . S
N777 H781 0.985 . S
H778 N773 0.984 . S
H779 N773 0.985 . S
H780 N777 0.984 . S
H781 N777 0.985 . S
H782 N776 0.984 . S
H783 N776 0.984 . S
H784 N772 0.984 . S
H785 N772 0.985 . S
C786 C787 1.363 . S
C786 C792 1.379 . S
C786 N794 1.356 . S
C787 C786 1.363 . S
C787 C793 1.363 . S
C788 C789 1.363 . S
C788 C793 1.379 . S
C788 N795 1.356 . S
C789 C788 1.363 . S
C789 C792 1.363 . S
N790 C792 1.356 . S
N790 H802 0.984 . S
N790 H803 0.985 . S
N791 C793 1.356 . S
N791 H796 0.984 . S
N791 H797 0.985 . S
C792 C786 1.379 . S
C792 C789 1.363 . S
C792 N790 1.356 . S
C793 C787 1.363 . S
C793 C788 1.379 . S
C793 N791 1.356 . S
N794 C786 1.356 . S
N794 H800 0.984 . S
N794 H801 0.984 . S
N795 C788 1.356 . S
N795 H798 0.984 . S
N795 H799 0.985 . S
H796 N791 0.984 . S
H797 N791 0.985 . S
H798 N795 0.984 . S
H799 N795 0.985 . S
H800 N794 0.984 . S
H801 N794 0.984 . S
H802 N790 0.984 . S
H803 N790 0.985 . S
C804 C805 1.363 . S
C804 C810 1.379 . S
C804 N812 1.356 . S
C805 C804 1.363 . S
C805 C811 1.363 . S
C806 C807 1.363 . S
C806 C811 1.379 . S
C806 N813 1.356 1_556 S
C807 C806 1.363 . S
C807 C810 1.363 . S
N808 C810 1.356 . S
N808 H820 0.984 . S
N808 H821 0.985 . S
N809 C811 1.356 1_554 S
N809 H814 0.984 . S
N809 H815 0.985 . S
C810 C804 1.379 . S
C810 C807 1.363 . S
C810 N808 1.356 . S
C811 C805 1.363 . S
C811 C806 1.379 . S
C811 N809 1.356 1_556 S
N812 C804 1.356 . S
N812 H818 0.984 . S
N812 H819 0.984 . S
N813 C806 1.356 1_554 S
N813 H816 0.984 . S
N813 H817 0.985 . S
H814 N809 0.984 . S
H815 N809 0.985 . S
H816 N813 0.984 . S
H817 N813 0.985 . S
H818 N812 0.984 . S
H819 N812 0.984 . S
H820 N808 0.984 . S
H821 N808 0.985 . S
C822 C823 1.363 . S
C822 C828 1.379 . S
C822 N830 1.356 . S
C823 C822 1.363 . S
C823 C829 1.363 . S
C824 C825 1.363 . S
C824 C829 1.379 . S
C824 N831 1.356 . S
C825 C824 1.363 . S
C825 C828 1.363 . S
N826 C828 1.356 . S
N826 H838 0.984 . S
N826 H839 0.985 . S
N827 C829 1.356 . S
N827 H832 0.984 . S
N827 H833 0.985 . S
C828 C822 1.379 . S
C828 C825 1.363 . S
C828 N826 1.356 . S
C829 C823 1.363 . S
C829 C824 1.379 . S
C829 N827 1.356 . S
N830 C822 1.356 . S
N830 H836 0.984 . S
N830 H837 0.984 . S
N831 C824 1.356 . S
N831 H834 0.984 . S
N831 H835 0.985 . S
H832 N827 0.984 . S
H833 N827 0.985 . S
H834 N831 0.984 . S
H835 N831 0.985 . S
H836 N830 0.984 . S
H837 N830 0.984 . S
H838 N826 0.984 . S
H839 N826 0.985 . S
C840 C841 1.363 . S
C840 C846 1.379 . S
C840 N848 1.356 . S
C841 C840 1.363 . S
C841 C847 1.363 . S
C842 C843 1.363 . S
C842 C847 1.379 . S
C842 N849 1.356 . S
C843 C842 1.363 . S
C843 C846 1.363 . S
N844 C846 1.356 . S
N844 H856 0.984 . S
N844 H857 0.985 . S
N845 C847 1.356 . S
N845 H850 0.984 . S
N845 H851 0.985 . S
C846 C840 1.379 . S
C846 C843 1.363 . S
C846 N844 1.356 . S
C847 C841 1.363 . S
C847 C842 1.379 . S
C847 N845 1.356 . S
N848 C840 1.356 . S
N848 H854 0.984 . S
N848 H855 0.984 . S
N849 C842 1.356 . S
N849 H852 0.984 . S
N849 H853 0.985 . S
H850 N845 0.984 . S
H851 N845 0.985 . S
H852 N849 0.984 . S
H853 N849 0.985 . S
H854 N848 0.984 . S
H855 N848 0.984 . S
H856 N844 0.984 . S
H857 N844 0.985 . S
C858 C859 1.363 1_545 S
C858 C864 1.379 . S
C858 N866 1.356 . S
C859 C858 1.363 1_565 S
C859 C865 1.363 . S
C860 C861 1.363 . S
C860 C865 1.379 . S
C860 N867 1.356 . S
C861 C860 1.363 . S
C861 C864 1.363 1_565 S
N862 C864 1.356 . S
N862 H874 0.984 . S
N862 H875 0.985 . S
N863 C865 1.356 . S
N863 H868 0.984 . S
N863 H869 0.985 . S
C864 C858 1.379 . S
C864 C861 1.363 1_545 S
C864 N862 1.356 . S
C865 C859 1.363 . S
C865 C860 1.379 . S
C865 N863 1.356 . S
N866 C858 1.356 . S
N866 H872 0.984 . S
N866 H873 0.984 . S
N867 C860 1.356 . S
N867 H870 0.984 . S
N867 H871 0.985 . S
H868 N863 0.984 . S
H869 N863 0.985 . S
H870 N867 0.984 . S
H871 N867 0.985 . S
H872 N866 0.984 . S
H873 N866 0.984 . S
H874 N862 0.984 . S
H875 N862 0.985 . S
C876 C877 1.363 . S
C876 C882 1.379 . S
C876 N884 1.356 . S
C877 C876 1.363 . S
C877 C883 1.363 . S
C878 C879 1.363 . S
C878 C883 1.379 . S
C878 N885 1.356 . S
C879 C878 1.363 . S
C879 C882 1.363 . S
N880 C882 1.356 . S
N880 H892 0.984 . S
N880 H893 0.985 . S
N881 C883 1.356 . S
N881 H886 0.984 . S
N881 H887 0.985 . S
C882 C876 1.379 . S
C882 C879 1.363 . S
C882 N880 1.356 . S
C883 C877 1.363 . S
C883 C878 1.379 . S
C883 N881 1.356 . S
N884 C876 1.356 . S
N884 H890 0.984 . S
N884 H891 0.984 . S
N885 C878 1.356 . S
N885 H888 0.984 . S
N885 H889 0.985 . S
H886 N881 0.984 . S
H887 N881 0.985 . S
H888 N885 0.984 . S
H889 N885 0.985 . S
H890 N884 0.984 . S
H891 N884 0.984 . S
H892 N880 0.984 . S
H893 N880 0.985 . S
C894 C895 1.363 . S
C894 C900 1.379 . S
C894 N902 1.356 . S
C895 C894 1.363 . S
C895 C901 1.363 . S
C896 C897 1.363 . S
C896 C901 1.379 . S
C896 N903 1.356 . S
C897 C896 1.363 . S
C897 C900 1.363 . S
N898 C900 1.356 . S
N898 H910 0.984 . S
N898 H911 0.985 . S
N899 C901 1.356 . S
N899 H904 0.984 . S
N899 H905 0.985 . S
C900 C894 1.379 . S
C900 C897 1.363 . S
C900 N898 1.356 . S
C901 C895 1.363 . S
C901 C896 1.379 . S
C901 N899 1.356 . S
N902 C894 1.356 . S
N902 H908 0.984 . S
N902 H909 0.984 . S
N903 C896 1.356 . S
N903 H906 0.984 . S
N903 H907 0.985 . S
H904 N899 0.984 . S
H905 N899 0.985 . S
H906 N903 0.984 . S
H907 N903 0.985 . S
H908 N902 0.984 . S
H909 N902 0.984 . S
H910 N898 0.984 . S
H911 N898 0.985 . S
C481 C255 1.187 . S
C483 C329 1.160 . S
C501 C369 2.442 . S
C499 C295 2.507 . S
C519 C418 1.771 . S
C517 C175 1.701 . S
C537 C449 2.312 . S
C535 C215 2.300 . S
C555 C338 1.160 . S
C553 C95 1.183 . S
C571 C135 2.489 . S
C573 C378 2.440 1_554 S
C589 C15 1.715 . S
C591 C409 1.771 . S
C607 C55 2.281 1_556 S
C609 C458 2.312 1_655 S
C627 C339 2.280 . S
C625 C221 1.943 . S
C645 C379 1.885 . S
C643 C261 1.582 . S
C663 C415 0.938 . S
C661 C301 0.941 . S
C679 C181 1.747 . S
C681 C459 2.196 . S
C697 C61 1.691 . S
C699 C330 2.280 1_655 S
C717 C370 1.884 . S
C715 C101 1.453 1_545 S
C735 C406 0.938 . S
C733 C141 0.874 . S
C751 C21 1.890 . S
C753 C450 2.195 . S
C769 C202 2.262 . S
C771 C335 2.366 . S
C787 C242 1.776 . S
C789 C375 1.826 . S
C807 C419 3.473 . S
C805 C282 3.160 . S
C825 C455 1.959 . S
C823 C162 1.791 . S
C841 C42 2.157 . S
C843 C326 2.365 . S
C861 C366 1.825 . S
C859 C82 1.808 . S
C879 C410 3.472 . S
C877 C122 3.045 . S
C895 C2 1.934 . S
C897 C446 1.959 . S
