# Generated by pormake.
# Topology anh, (6,3)-cn, num edge types: 1
# Building blocks:
#     Node 0, Type 0, BuildingBlock: INOVEN_clean_sbu_0, # of connection points: 6
#     Node 1, Type 0, BuildingBlock: INOVEN_clean_sbu_0, # of connection points: 6
#     Node 2, Type 0, BuildingBlock: INOVEN_clean_sbu_0, # of connection points: 6
#     Node 3, Type 1, BuildingBlock: OLANEW_clean_sbu_2, # of connection points: 3
#     Node 4, Type 1, BuildingBlock: OLANEW_clean_sbu_2, # of connection points: 3
#     Node 5, Type 1, BuildingBlock: OLANEW_clean_sbu_2, # of connection points: 3
#     Node 6, Type 1, BuildingBlock: OLANEW_clean_sbu_2, # of connection points: 3
#     Node 7, Type 1, BuildingBlock: OLANEW_clean_sbu_2, # of connection points: 3
#     Node 8, Type 1, BuildingBlock: OLANEW_clean_sbu_2, # of connection points: 3
#     Edge 9, Type (0, 1), BuildingBlock: XIVTED_clean_linker_0, # of connection points: 2
#     Edge 10, Type (0, 1), BuildingBlock: XIVTED_clean_linker_0, # of connection points: 2
#     Edge 11, Type (0, 1), BuildingBlock: XIVTED_clean_linker_0, # of connection points: 2
#     Edge 12, Type (0, 1), BuildingBlock: XIVTED_clean_linker_0, # of connection points: 2
#     Edge 13, Type (0, 1), BuildingBlock: XIVTED_clean_linker_0, # of connection points: 2
#     Edge 14, Type (0, 1), BuildingBlock: XIVTED_clean_linker_0, # of connection points: 2
#     Edge 15, Type (0, 1), BuildingBlock: XIVTED_clean_linker_0, # of connection points: 2
#     Edge 16, Type (0, 1), BuildingBlock: XIVTED_clean_linker_0, # of connection points: 2
#     Edge 17, Type (0, 1), BuildingBlock: XIVTED_clean_linker_0, # of connection points: 2
#     Edge 18, Type (0, 1), BuildingBlock: XIVTED_clean_linker_0, # of connection points: 2
#     Edge 19, Type (0, 1), BuildingBlock: XIVTED_clean_linker_0, # of connection points: 2
#     Edge 20, Type (0, 1), BuildingBlock: XIVTED_clean_linker_0, # of connection points: 2
#     Edge 21, Type (0, 1), BuildingBlock: XIVTED_clean_linker_0, # of connection points: 2
#     Edge 22, Type (0, 1), BuildingBlock: XIVTED_clean_linker_0, # of connection points: 2
#     Edge 23, Type (0, 1), BuildingBlock: XIVTED_clean_linker_0, # of connection points: 2
#     Edge 24, Type (0, 1), BuildingBlock: XIVTED_clean_linker_0, # of connection points: 2
#     Edge 25, Type (0, 1), BuildingBlock: XIVTED_clean_linker_0, # of connection points: 2
#     Edge 26, Type (0, 1), BuildingBlock: XIVTED_clean_linker_0, # of connection points: 2
# Relax obj value: 0.139
# Max RMSD: 0.173
# Mean RMSD: 0.115
data_MOF--net-anh--node1-INOVEN_clean_sbu_0--node2-OLANEW_clean_sbu_2--edge1-XIVTED_clean_linker_0
_symmetry_space_group_name_H-M    P1
_symmetry_Int_Tables_number       1
_symmetry_cell_setting            triclinic
loop_
_symmetry_equiv_pos_as_xyz
'x, y, z'
_cell_length_a     37.48218
_cell_length_b     41.694626
_cell_length_c     50.541879
_cell_angle_alpha  92.436683
_cell_angle_beta   89.713229
_cell_angle_gamma 130.40652
loop_
_atom_site_label
_atom_site_type_symbol
_atom_site_fract_x
_atom_site_fract_y
_atom_site_fract_z
_atom_type_partial_charge
Gd0 Gd 0.035 0.49784 0.12202 0.0
Gd1 Gd 0.98837 0.53231 0.14076 0.0
C2 C 0.09656 0.60001 0.12956 0.0
C3 C 0.08313 0.48136 0.09857 0.0
C4 C 0.13002 0.49605 0.10437 0.0
C5 C 0.14116 0.47104 0.09623 0.0
C6 C 0.16183 0.53257 0.12069 0.0
C7 C 0.21472 0.5178 0.12178 0.0
C8 C 0.20403 0.54353 0.12919 0.0
C9 C 0.18324 0.48182 0.10487 0.0
C10 C 0.03456 0.50676 0.17527 0.0
C11 C 0.9263 0.43091 0.13187 0.0
C12 C 0.94169 0.54776 0.16749 0.0
C13 C 0.89265 0.52457 0.17449 0.0
C14 C 0.8559 0.49857 0.15566 0.0
C15 C 0.88247 0.5284 0.20055 0.0
C16 C 0.79947 0.48314 0.18849 0.0
C17 C 0.8363 0.50775 0.20755 0.0
C18 C 0.80977 0.47823 0.16255 0.0
C19 C 0.99232 0.5258 0.08762 0.0
O20 O 0.09251 0.56851 0.11819 0.0
O21 O 0.06202 0.5933 0.14284 0.0
O22 O 0.0525 0.45785 0.11651 0.0
O23 O 0.08111 0.50962 0.09054 0.0
O24 O 0.03205 0.47737 0.16318 0.0
O25 O 0.04116 0.53186 0.15888 0.0
O26 O 0.93154 0.46201 0.1448 0.0
O27 O 0.96001 0.43828 0.11723 0.0
O28 O 0.95208 0.55672 0.14264 0.0
O29 O 0.96207 0.53511 0.17821 0.0
O30 O 0.99576 0.55575 0.09986 0.0
O31 O 0.9835 0.49943 0.10372 0.0
H32 H 0.11672 0.44252 0.08386 0.0
H33 H 0.15333 0.5518 0.12761 0.0
H34 H 0.22738 0.57118 0.14241 0.0
H35 H 0.19089 0.46172 0.09859 0.0
H36 H 0.86288 0.49463 0.13548 0.0
H37 H 0.91037 0.54782 0.21545 0.0
H38 H 0.82959 0.5116 0.2278 0.0
H39 H 0.78249 0.46001 0.14725 0.0
Gd40 Gd 0.56347 0.01988 0.48541 0.0
Gd41 Gd 0.50346 0.04284 0.47457 0.0
C42 C 0.45068 0.9456 0.47377 0.0
C43 C 0.59956 0.98873 0.50313 0.0
C44 C 0.58515 0.94688 0.50639 0.0
C45 C 0.61822 0.94155 0.50329 0.0
C46 C 0.53893 0.91217 0.51238 0.0
C47 C 0.55921 0.86719 0.51241 0.0
C48 C 0.52603 0.87266 0.51531 0.0
C49 C 0.60545 0.90214 0.50631 0.0
C50 C 0.55843 0.03306 0.43435 0.0
C51 C 0.61722 0.11741 0.48412 0.0
C52 C 0.46895 0.07583 0.45777 0.0
C53 C 0.48049 0.11665 0.46284 0.0
C54 C 0.45472 0.12527 0.44997 0.0
C55 C 0.51669 0.14692 0.48096 0.0
C56 C 0.5008 0.19407 0.47364 0.0
C57 C 0.52683 0.1853 0.48629 0.0
C58 C 0.46474 0.16364 0.45532 0.0
C59 C 0.50977 0.03114 0.52588 0.0
O60 O 0.48901 0.95702 0.48579 0.0
O61 O 0.45001 0.97378 0.46344 0.0
O62 O 0.60371 0.99976 0.47875 0.0
O63 O 0.57966 0.99914 0.51824 0.0
O64 O 0.59615 0.04431 0.44584 0.0
O65 O 0.52468 0.01355 0.44987 0.0
O66 O 0.57738 0.10597 0.47459 0.0
O67 O 0.61968 0.08958 0.49308 0.0
O68 O 0.45265 0.05163 0.47791 0.0
O69 O 0.50002 0.07687 0.44487 0.0
O70 O 0.47224 0.02065 0.51474 0.0
O71 O 0.54287 0.04984 0.50998 0.0
H72 H 0.65409 0.96801 0.49871 0.0
H73 H 0.51289 0.91565 0.51491 0.0
H74 H 0.49001 0.84638 0.51969 0.0
H75 H 0.6321 0.8993 0.50436 0.0
H76 H 0.42668 0.10223 0.43589 0.0
H77 H 0.53675 0.14065 0.49123 0.0
H78 H 0.55437 0.20771 0.50076 0.0
H79 H 0.44441 0.16956 0.445 0.0
Gd80 Gd 0.5855 0.56487 0.84662 0.0
Gd81 Gd 0.51605 0.47304 0.86069 0.0
C82 C 0.47488 0.51955 0.85601 0.0
C83 C 0.62803 0.6357 0.82423 0.0
C84 C 0.6215 0.66645 0.82069 0.0
C85 C 0.58886 0.66525 0.83545 0.0
C86 C 0.64875 0.6978 0.80249 0.0
C87 C 0.61177 0.72742 0.81418 0.0
C88 C 0.64397 0.728 0.79925 0.0
C89 C 0.58398 0.69545 0.8322 0.0
C90 C 0.57835 0.5518 0.89879 0.0
C91 C 0.62765 0.51967 0.8543 0.0
C92 C 0.4738 0.40078 0.88098 0.0
C93 C 0.47886 0.36867 0.87864 0.0
C94 C 0.51208 0.374 0.86183 0.0
C95 C 0.44937 0.33177 0.89253 0.0
C96 C 0.48503 0.30486 0.87206 0.0
C97 C 0.45239 0.3001 0.88928 0.0
C98 C 0.51521 0.34244 0.8586 0.0
C99 C 0.52292 0.48575 0.80846 0.0
O100 O 0.51501 0.54995 0.84488 0.0
O101 O 0.46918 0.48851 0.86736 0.0
O102 O 0.63791 0.63298 0.84839 0.0
O103 O 0.59775 0.59888 0.81166 0.0
O104 O 0.61741 0.58204 0.88807 0.0
O105 O 0.54507 0.53238 0.88197 0.0
O106 O 0.58636 0.48845 0.86387 0.0
O107 O 0.63471 0.55141 0.84308 0.0
O108 O 0.45875 0.4056 0.85949 0.0
O109 O 0.50856 0.43671 0.89304 0.0
O110 O 0.48411 0.45621 0.81957 0.0
O111 O 0.55666 0.50528 0.82507 0.0
H112 H 0.56756 0.64126 0.84965 0.0
H113 H 0.67394 0.69905 0.79084 0.0
H114 H 0.66534 0.75166 0.78488 0.0
H115 H 0.55915 0.69425 0.84419 0.0
H116 H 0.53497 0.40224 0.85082 0.0
H117 H 0.42359 0.32721 0.90563 0.0
H118 H 0.42904 0.27182 0.90019 0.0
H119 H 0.54031 0.34695 0.84493 0.0
O120 O 0.55576 0.05289 0.22365 0.0
Cd121 Cd 0.55487 0.05472 0.17536 0.0
O122 O 0.48041 0.99884 0.22721 0.0
Cd123 Cd 0.45992 0.9792 0.18545 0.0
O124 O 0.40212 0.92398 0.16144 0.0
C125 C 0.40095 0.89308 0.15687 0.0
O126 O 0.43688 0.89667 0.16458 0.0
C127 C 0.52055 0.02805 0.23793 0.0
C128 C 0.63334 0.13469 0.16024 0.0
O129 O 0.595 0.12673 0.1659 0.0
O130 O 0.6344 0.10465 0.16128 0.0
O131 O 0.57823 0.53095 0.59955 0.0
Cd132 Cd 0.58006 0.53292 0.55123 0.0
O133 O 0.51575 0.5254 0.6019 0.0
Cd134 Cd 0.52027 0.54638 0.56223 0.0
O135 O 0.52372 0.59366 0.54199 0.0
C136 C 0.50145 0.60376 0.55305 0.0
O137 O 0.47727 0.58402 0.57409 0.0
C138 C 0.54584 0.52504 0.61302 0.0
C139 C 0.56235 0.46075 0.52955 0.0
O140 O 0.60427 0.49471 0.53526 0.0
O141 O 0.52883 0.46111 0.53367 0.0
O142 O 0.0927 0.52274 0.89202 0.0
Cd143 Cd 0.13268 0.52422 0.85186 0.0
O144 O 0.04256 0.52922 0.8763 0.0
Cd145 Cd 0.984 0.53113 0.87718 0.0
O146 O 0.92779 0.53551 0.87236 0.0
C147 C 0.88512 0.50505 0.87749 0.0
O148 O 0.87429 0.47047 0.88611 0.0
C149 C 0.06059 0.52504 0.89582 0.0
C150 C 0.20795 0.5239 0.85809 0.0
O151 O 0.21547 0.55852 0.85702 0.0
O152 O 0.16512 0.48958 0.85714 0.0
O153 O 0.06572 0.54643 0.38777 0.0
Cd154 Cd 0.07256 0.55981 0.43585 0.0
O155 O 0.98974 0.51115 0.382 0.0
Cd156 Cd 0.96672 0.49195 0.42253 0.0
O157 O 0.90944 0.43775 0.44448 0.0
C158 C 0.91129 0.4097 0.45101 0.0
O159 O 0.94951 0.41537 0.4463 0.0
C160 C 0.03007 0.52968 0.37258 0.0
C161 C 0.15582 0.64243 0.44817 0.0
O162 O 0.15497 0.61117 0.44742 0.0
O163 O 0.11719 0.63464 0.4436 0.0
O164 O 0.56546 0.01166 0.7311 0.0
Cd165 Cd 0.57643 0.00981 0.77858 0.0
O166 O 0.51924 0.02687 0.73599 0.0
Cd167 Cd 0.52922 0.04301 0.77856 0.0
O168 O 0.53123 0.08565 0.80675 0.0
C169 C 0.49301 0.07823 0.81076 0.0
O170 O 0.45409 0.04382 0.79968 0.0
C171 C 0.53906 0.01747 0.72112 0.0
C172 C 0.58284 0.94796 0.78829 0.0
O173 O 0.54315 0.93921 0.78801 0.0
O174 O 0.61948 0.98594 0.78415 0.0
O175 O 0.49149 0.47062 0.09958 0.0
Cd176 Cd 0.45823 0.44689 0.14374 0.0
O177 O 0.56557 0.5259 0.10913 0.0
Cd178 Cd 0.54863 0.52851 0.14973 0.0
O179 O 0.49749 0.53028 0.16802 0.0
C180 C 0.50191 0.56247 0.16375 0.0
O181 O 0.53965 0.59405 0.15205 0.0
C182 C 0.5331 0.49975 0.09214 0.0
C183 C 0.50831 0.43062 0.17186 0.0
O184 O 0.47681 0.40349 0.15446 0.0
O185 O 0.51435 0.46424 0.17677 0.0
H186 H 0.30364 0.59451 0.12641 0.0
H187 H 0.41378 0.49653 0.17962 0.0
H188 H 0.22316 0.4632 0.14194 0.0
H189 H 0.49655 0.62286 0.1524 0.0
H190 H 0.34345 0.48815 0.17425 0.0
H191 H 0.37427 0.60908 0.14324 0.0
C192 C 0.30082 0.56883 0.13353 0.0
C193 C 0.25766 0.5275 0.13247 0.0
C194 C 0.37708 0.51789 0.16977 0.0
C195 C 0.33806 0.54389 0.15177 0.0
C196 C 0.41732 0.52281 0.17298 0.0
C197 C 0.46103 0.5602 0.166 0.0
C198 C 0.38058 0.55058 0.1595 0.0
C199 C 0.46348 0.59327 0.15768 0.0
C200 C 0.34109 0.57713 0.14309 0.0
C201 C 0.25593 0.49537 0.14189 0.0
N202 N 0.42369 0.58749 0.15433 0.0
N203 N 0.29559 0.50421 0.15104 0.0
H204 H 0.62474 0.18505 0.47194 0.0
H205 H 0.90442 0.34478 0.46885 0.0
H206 H 0.70815 0.15251 0.495 0.0
H207 H 0.82194 0.3815 0.45515 0.0
H208 H 0.83332 0.27528 0.48057 0.0
H209 H 0.69652 0.25785 0.46769 0.0
C210 C 0.65811 0.1932 0.47631 0.0
C211 C 0.66031 0.16241 0.48371 0.0
C212 C 0.83078 0.29863 0.47523 0.0
C213 C 0.74291 0.24596 0.47865 0.0
C214 C 0.87143 0.3384 0.46853 0.0
C215 C 0.86921 0.36904 0.46082 0.0
C216 C 0.78736 0.28916 0.47402 0.0
C217 C 0.8254 0.35889 0.46089 0.0
C218 C 0.69915 0.23489 0.47388 0.0
C219 C 0.70466 0.17507 0.4892 0.0
N220 N 0.78621 0.31974 0.46713 0.0
N221 N 0.74415 0.21574 0.48635 0.0
H222 H 0.68247 0.81206 0.8082 0.0
H223 H 0.51167 0.86432 0.79704 0.0
H224 H 0.53207 0.71821 0.81335 0.0
H225 H 0.66185 0.95674 0.79014 0.0
H226 H 0.51829 0.81061 0.80401 0.0
H227 H 0.67541 0.86553 0.80231 0.0
C228 C 0.64788 0.80259 0.80795 0.0
C229 C 0.60778 0.7604 0.81113 0.0
C230 C 0.5498 0.84265 0.801 0.0
C231 C 0.59948 0.82185 0.8047 0.0
C232 C 0.54606 0.87336 0.79703 0.0
C233 C 0.58628 0.91515 0.79297 0.0
C234 C 0.59408 0.85373 0.80092 0.0
C235 C 0.62988 0.92497 0.79317 0.0
C236 C 0.64391 0.83326 0.80474 0.0
C237 C 0.56401 0.75034 0.8112 0.0
N238 N 0.6326 0.89452 0.79705 0.0
N239 N 0.56103 0.78079 0.80796 0.0
H240 H 0.77393 0.51978 0.22029 0.0
H241 H 0.516 0.37078 0.15904 0.0
H242 H 0.71499 0.40751 0.17099 0.0
H243 H 0.57572 0.48107 0.21057 0.0
H244 H 0.58178 0.37448 0.17086 0.0
H245 H 0.69604 0.49697 0.22479 0.0
C246 C 0.74454 0.48982 0.21085 0.0
C247 C 0.75134 0.46593 0.19482 0.0
C248 C 0.58001 0.39737 0.17998 0.0
C249 C 0.66176 0.44018 0.1993 0.0
C250 C 0.54235 0.39519 0.17331 0.0
C251 C 0.54098 0.42625 0.18338 0.0
C252 C 0.6165 0.43096 0.19671 0.0
C253 C 0.57585 0.45693 0.20194 0.0
C254 C 0.69993 0.47693 0.21329 0.0
C255 C 0.71166 0.42759 0.18291 0.0
N256 N 0.61259 0.45893 0.20765 0.0
N257 N 0.66867 0.41625 0.18501 0.0
H258 H 0.43948 0.878 0.49081 0.0
H259 H 0.24329 0.66905 0.45862 0.0
H260 H 0.36471 0.90938 0.45112 0.0
H261 H 0.17001 0.71588 0.4493 0.0
H262 H 0.31647 0.74127 0.46547 0.0
H263 H 0.36976 0.80389 0.48667 0.0
C264 C 0.40851 0.86933 0.48101 0.0
C265 C 0.40829 0.90018 0.47117 0.0
C266 C 0.28444 0.736 0.46252 0.0
C267 C 0.32789 0.81452 0.46562 0.0
C268 C 0.2425 0.69455 0.45835 0.0
C269 C 0.20028 0.68626 0.45351 0.0
C270 C 0.28431 0.76964 0.46197 0.0
C271 C 0.20162 0.7207 0.45309 0.0
C272 C 0.36858 0.82668 0.47838 0.0
C273 C 0.36675 0.88679 0.45888 0.0
N274 N 0.24292 0.7608 0.45715 0.0
N275 N 0.3283 0.84505 0.45651 0.0
H276 H 0.4107 0.21993 0.86628 0.0
H277 H 0.56843 0.1584 0.82938 0.0
H278 H 0.5619 0.31037 0.86636 0.0
H279 H 0.41723 0.07108 0.82363 0.0
H280 H 0.56704 0.21283 0.84778 0.0
H281 H 0.41285 0.16363 0.85554 0.0
C282 C 0.44442 0.22795 0.86437 0.0
C283 C 0.48619 0.27008 0.86715 0.0
C284 C 0.53417 0.18166 0.84268 0.0
C285 C 0.48887 0.20557 0.85442 0.0
C286 C 0.53492 0.15049 0.83226 0.0
C287 C 0.49288 0.11015 0.82473 0.0
C288 C 0.49107 0.17241 0.84565 0.0
C289 C 0.45053 0.10178 0.82895 0.0
C290 C 0.44561 0.19574 0.85805 0.0
C291 C 0.52879 0.27846 0.86401 0.0
N292 N 0.45074 0.13267 0.83896 0.0
N293 N 0.52903 0.24655 0.85772 0.0
H294 H 0.50128 0.81024 0.54955 0.0
H295 H 0.55276 0.65536 0.51217 0.0
H296 H 0.58747 0.82922 0.48459 0.0
H297 H 0.45991 0.63369 0.57365 0.0
H298 H 0.56338 0.71736 0.50028 0.0
H299 H 0.48297 0.74366 0.55715 0.0
C300 C 0.51599 0.80024 0.53667 0.0
C301 C 0.54613 0.82559 0.51644 0.0
C302 C 0.54046 0.69886 0.51626 0.0
C303 C 0.52584 0.74941 0.52534 0.0
C304 C 0.53434 0.66342 0.52304 0.0
C305 C 0.50563 0.6394 0.54405 0.0
C306 C 0.51782 0.71042 0.53066 0.0
C307 C 0.48258 0.65133 0.5574 0.0
C308 C 0.50573 0.76226 0.54114 0.0
C309 C 0.5647 0.81114 0.50071 0.0
N310 N 0.48939 0.68608 0.55059 0.0
N311 N 0.55443 0.77414 0.50556 0.0
H312 H 0.72017 0.57943 0.84031 0.0
H313 H 0.79182 0.44573 0.88778 0.0
H314 H 0.62425 0.4571 0.87338 0.0
H315 H 0.89229 0.57039 0.85847 0.0
H316 H 0.73025 0.44953 0.88148 0.0
H317 H 0.78334 0.57676 0.84547 0.0
C318 C 0.71224 0.55195 0.84856 0.0
C319 C 0.66655 0.51845 0.85641 0.0
C320 C 0.76571 0.47615 0.8764 0.0
C321 C 0.73902 0.51527 0.86243 0.0
C322 C 0.80109 0.47401 0.88001 0.0
C323 C 0.84762 0.5078 0.8737 0.0
C324 C 0.77647 0.51236 0.86631 0.0
C325 C 0.85705 0.54355 0.86367 0.0
C326 C 0.74843 0.55051 0.85155 0.0
C327 C 0.65871 0.48376 0.86703 0.0
N328 N 0.82187 0.54487 0.86028 0.0
N329 N 0.69438 0.48314 0.8697 0.0
H330 H 0.18264 0.62621 0.11589 0.0
H331 H 0.31514 0.87059 0.14763 0.0
H332 H 0.1135 0.67338 0.14165 0.0
H333 H 0.38651 0.82088 0.14361 0.0
H334 H 0.24111 0.79983 0.13685 0.0
H335 H 0.25762 0.69868 0.11793 0.0
C336 C 0.18312 0.65177 0.12176 0.0
C337 C 0.14176 0.64366 0.12886 0.0
C338 C 0.27304 0.80448 0.13812 0.0
C339 C 0.22729 0.72654 0.13104 0.0
C340 C 0.3154 0.84493 0.14414 0.0
C341 C 0.3571 0.85165 0.14682 0.0
C342 C 0.2723 0.77046 0.13457 0.0
C343 C 0.35518 0.81712 0.14199 0.0
C344 C 0.22594 0.6931 0.12297 0.0
C345 C 0.14453 0.67807 0.13627 0.0
N346 N 0.31343 0.77795 0.13626 0.0
N347 N 0.18653 0.71793 0.13721 0.0
H348 H 0.58634 0.27355 0.48155 0.0
H349 H 0.47732 0.38336 0.51641 0.0
H350 H 0.43782 0.20665 0.4803 0.0
H351 H 0.62567 0.44961 0.51932 0.0
H352 H 0.46232 0.31901 0.50124 0.0
H353 H 0.60156 0.33887 0.49373 0.0
C354 C 0.55689 0.27255 0.48389 0.0
C355 C 0.51069 0.23442 0.47998 0.0
C356 C 0.49817 0.34765 0.50511 0.0
C357 C 0.52793 0.30934 0.49373 0.0
C358 C 0.50678 0.38445 0.51376 0.0
C359 C 0.55284 0.42197 0.51923 0.0
C360 C 0.53587 0.34827 0.50192 0.0
C361 C 0.58959 0.42143 0.5154 0.0
C362 C 0.56563 0.30994 0.49071 0.0
C363 C 0.47401 0.23529 0.48283 0.0
N364 N 0.5803 0.38517 0.50707 0.0
N365 N 0.48341 0.27207 0.48962 0.0
H366 H 0.47679 0.58369 0.84159 0.0
H367 H 0.20391 0.45681 0.86614 0.0
H368 H 0.38441 0.45918 0.87198 0.0
H369 H 0.30221 0.58977 0.85247 0.0
H370 H 0.26872 0.45606 0.86616 0.0
H371 H 0.41273 0.58546 0.84304 0.0
C372 C 0.44312 0.55669 0.84857 0.0
C373 C 0.43625 0.52124 0.85671 0.0
C374 C 0.27619 0.48546 0.86326 0.0
C375 C 0.36231 0.523 0.85827 0.0
C376 C 0.23912 0.48592 0.86323 0.0
C377 C 0.24743 0.52343 0.85934 0.0
C378 C 0.32212 0.52269 0.85906 0.0
C379 C 0.29399 0.56012 0.85564 0.0
C380 C 0.4065 0.55778 0.84945 0.0
C381 C 0.3916 0.48726 0.86556 0.0
N382 N 0.32941 0.55877 0.85545 0.0
N383 N 0.35646 0.48893 0.86599 0.0
H384 H 0.84412 0.40516 0.1524 0.0
H385 H 0.7172 0.16019 0.14263 0.0
H386 H 0.90656 0.357 0.1159 0.0
H387 H 0.64577 0.20713 0.1628 0.0
H388 H 0.78757 0.232 0.13373 0.0
H389 H 0.77186 0.33288 0.1574 0.0
C390 C 0.84263 0.37939 0.14534 0.0
C391 C 0.88158 0.3872 0.13376 0.0
C392 C 0.75641 0.22653 0.13995 0.0
C393 C 0.79883 0.3042 0.13961 0.0
C394 C 0.71623 0.18555 0.14508 0.0
C395 C 0.67552 0.17761 0.15354 0.0
C396 C 0.75608 0.25994 0.14355 0.0
C397 C 0.67632 0.21173 0.15632 0.0
C398 C 0.80126 0.33808 0.14816 0.0
C399 C 0.87741 0.35248 0.1249 0.0
N400 N 0.71602 0.25139 0.15151 0.0
N401 N 0.8369 0.31251 0.12818 0.0
H402 H 0.99337 0.46853 0.06039 0.0
H403 H 0.03018 0.56435 0.91882 0.0
H404 H 1.00414 0.57659 0.04967 0.0
H405 H 0.05676 0.48072 0.9353 0.0
H406 H 0.00922 0.56221 0.96517 0.0
H407 H 1.00578 0.46586 0.01304 0.0
C408 C 0.99817 0.49159 0.04801 0.0
C409 C 0.99798 0.52296 0.05892 0.0
C410 C 0.01929 0.54408 0.95854 0.0
C411 C 0.01189 0.51997 0.00473 0.0
C412 C 0.0307 0.5449 0.93203 0.0
C413 C 0.04473 0.52231 0.92314 0.0
C414 C 0.02162 0.52026 0.97618 0.0
C415 C 0.04619 0.49866 0.94134 0.0
C416 C 1.00531 0.4901 0.02101 0.0
C417 C 1.00423 0.55199 0.04201 0.0
N418 N 0.03473 0.49819 0.96694 0.0
N419 N 0.01093 0.54981 0.01573 0.0
H420 H 0.62802 0.07424 0.39861 0.0
H421 H 0.45151 0.98715 0.2743 0.0
H422 H 0.47882 0.99991 0.4055 0.0
H423 H 0.60203 0.07823 0.26832 0.0
H424 H 0.46097 0.99164 0.32236 0.0
H425 H 0.61954 0.07652 0.3509 0.0
C426 C 0.5935 0.05855 0.39005 0.0
C427 C 0.554 0.0366 0.4059 0.0
C428 C 0.49195 0.01083 0.31057 0.0
C429 C 0.54396 0.03887 0.35142 0.0
C430 C 0.4866 0.00823 0.28308 0.0
C431 C 0.52607 0.0322 0.26718 0.0
C432 C 0.53712 0.03734 0.32235 0.0
C433 C 0.57062 0.05912 0.27976 0.0
C434 C 0.58868 0.05991 0.36285 0.0
C435 C 0.51012 0.01701 0.39392 0.0
N436 N 0.57494 0.06074 0.30659 0.0
N437 N 0.50623 0.01835 0.36734 0.0
H438 H 0.45202 0.45255 0.77251 0.0
H439 H 0.61352 0.53991 0.64621 0.0
H440 H 0.60265 0.53355 0.77946 0.0
H441 H 0.47289 0.49615 0.64541 0.0
H442 H 0.60908 0.53124 0.69413 0.0
H443 H 0.45793 0.46188 0.72486 0.0
C444 C 0.48638 0.47233 0.76394 0.0
C445 C 0.52692 0.4923 0.77983 0.0
C446 C 0.57928 0.5236 0.6834 0.0
C447 C 0.53396 0.50288 0.72533 0.0
C448 C 0.58166 0.5283 0.65606 0.0
C449 C 0.5435 0.51874 0.64178 0.0
C450 C 0.53824 0.5087 0.69643 0.0
C451 C 0.5032 0.50402 0.6556 0.0
C452 C 0.48974 0.47772 0.73677 0.0
C453 C 0.57058 0.51767 0.76781 0.0
N454 N 0.50158 0.4993 0.6821 0.0
N455 N 0.57298 0.52209 0.74116 0.0
H456 H 0.58721 0.05498 0.55335 0.0
H457 H 0.46972 0.00772 0.69381 0.0
H458 H 0.44249 0.99743 0.56276 0.0
H459 H 0.59362 0.02225 0.6822 0.0
H460 H 0.46184 0.00845 0.64601 0.0
H461 H 0.59324 0.04788 0.60074 0.0
C462 C 0.55667 0.0406 0.56536 0.0
C463 C 0.51425 0.02664 0.55418 0.0
C464 C 0.49058 0.01119 0.65387 0.0
C465 C 0.52106 0.01907 0.60825 0.0
C466 C 0.49519 0.01089 0.68118 0.0
C467 C 0.53245 0.01501 0.69203 0.0
C468 C 0.52387 0.01633 0.63721 0.0
C469 C 0.56428 0.01885 0.67466 0.0
C470 C 0.56012 0.03656 0.59235 0.0
C471 C 0.47586 0.00864 0.57062 0.0
N472 N 0.55954 0.01984 0.64809 0.0
N473 N 0.48026 0.00564 0.59685 0.0
H474 H 0.49796 0.49007 0.92307 0.0
H475 H 0.61652 0.55971 0.06837 0.0
H476 H 0.64593 0.59166 0.93838 0.0
H477 H 0.47136 0.45143 0.05056 0.0
H478 H 0.62921 0.57081 0.02095 0.0
H479 H 0.48848 0.47464 0.96981 0.0
C480 C 0.52851 0.50907 0.93632 0.0
C481 C 0.57277 0.54223 0.92695 0.0
C482 C 0.59469 0.54446 0.02744 0.0
C483 C 0.56223 0.52494 0.98054 0.0
C484 C 0.58741 0.53805 0.05451 0.0
C485 C 0.5427 0.50474 0.06351 0.0
C486 C 0.55696 0.51748 0.00925 0.0
C487 C 0.50636 0.47765 0.04461 0.0
C488 C 0.52311 0.50023 0.96301 0.0
C489 C 0.61117 0.56588 0.94491 0.0
N490 N 0.51423 0.4848 0.01843 0.0
N491 N 0.60499 0.5569 0.97093 0.0
H492 H 0.03801 0.56593 0.20409 0.0
H493 H 0.08753 0.52347 0.34405 0.0
H494 H 0.03933 0.46418 0.21252 0.0
H495 H 0.98356 0.53708 0.33536 0.0
H496 H 0.09138 0.52007 0.29551 0.0
H497 H 0.03844 0.57379 0.2526 0.0
C498 C 0.03812 0.54513 0.21611 0.0
C499 C 0.03741 0.51364 0.20433 0.0
C500 C 0.06806 0.52412 0.30437 0.0
C501 C 0.04032 0.52392 0.25943 0.0
C502 C 0.066 0.52627 0.33192 0.0
C503 C 0.03504 0.53039 0.34359 0.0
C504 C 0.04007 0.52746 0.28855 0.0
C505 C 1.00763 0.5336 0.32705 0.0
C506 C 0.03866 0.54982 0.24368 0.0
C507 C 0.03926 0.48849 0.22084 0.0
N508 N 0.01104 0.53242 0.30028 0.0
N509 N 0.04096 0.49435 0.24761 0.0
loop_
_geom_bond_atom_site_label_1
_geom_bond_atom_site_label_2
_geom_bond_distance
_geom_bond_site_symmetry_2
_ccdc_geom_bond_type
Gd0 C3 2.818 . S
Gd0 O20 2.377 . S
Gd0 O22 2.448 . S
Gd0 O23 2.506 . S
Gd0 O24 2.435 . S
Gd0 O25 2.717 . S
Gd0 O27 2.395 1_455 S
Gd0 O31 2.327 . S
Gd1 C12 2.819 1_455 S
Gd1 O21 2.395 . S
Gd1 O25 2.327 . S
Gd1 O26 2.377 1_455 S
Gd1 O28 2.449 1_455 S
Gd1 O29 2.507 1_455 S
Gd1 O30 2.435 . S
Gd1 O31 2.716 . S
C2 O20 1.240 . S
C2 O21 1.240 . S
C3 Gd0 2.818 . S
C3 C4 1.510 . S
C3 O22 1.249 . S
C3 O23 1.252 . S
C4 C3 1.510 . S
C4 C5 1.404 . S
C4 C6 1.352 . S
C5 C4 1.404 . S
C5 C9 1.389 . S
C5 H32 0.930 . S
C6 C4 1.352 . S
C6 C8 1.374 . S
C6 H33 0.931 . S
C7 C8 1.359 . S
C7 C9 1.364 . S
C8 C6 1.374 . S
C8 C7 1.359 . S
C8 H34 0.931 . S
C9 C5 1.389 . S
C9 C7 1.364 . S
C9 H35 0.931 . S
C10 O24 1.256 . S
C10 O25 1.257 . S
C11 O26 1.240 . S
C11 O27 1.240 . S
C12 Gd1 2.819 1_655 S
C12 C13 1.510 . S
C12 O28 1.249 . S
C12 O29 1.252 . S
C13 C12 1.510 . S
C13 C14 1.404 . S
C13 C15 1.352 . S
C14 C13 1.404 . S
C14 C18 1.389 . S
C14 H36 0.930 . S
C15 C13 1.352 . S
C15 C17 1.374 . S
C15 H37 0.931 . S
C16 C17 1.359 . S
C16 C18 1.364 . S
C17 C15 1.374 . S
C17 C16 1.359 . S
C17 H38 0.931 . S
C18 C14 1.389 . S
C18 C16 1.364 . S
C18 H39 0.931 . S
C19 O30 1.256 . S
C19 O31 1.257 . S
O20 Gd0 2.377 . S
O20 C2 1.240 . S
O21 Gd1 2.395 . S
O21 C2 1.240 . S
O22 Gd0 2.448 . S
O22 C3 1.249 . S
O23 Gd0 2.506 . S
O23 C3 1.252 . S
O24 Gd0 2.435 . S
O24 C10 1.256 . S
O25 Gd0 2.717 . S
O25 Gd1 2.327 . S
O25 C10 1.257 . S
O26 Gd1 2.377 1_655 S
O26 C11 1.240 . S
O27 Gd0 2.395 1_655 S
O27 C11 1.240 . S
O28 Gd1 2.449 1_655 S
O28 C12 1.249 . S
O29 Gd1 2.507 1_655 S
O29 C12 1.252 . S
O30 Gd1 2.435 . S
O30 C19 1.256 . S
O31 Gd0 2.327 . S
O31 Gd1 2.716 . S
O31 C19 1.257 . S
H32 C5 0.930 . S
H33 C6 0.931 . S
H34 C8 0.931 . S
H35 C9 0.931 . S
H36 C14 0.930 . S
H37 C15 0.931 . S
H38 C17 0.931 . S
H39 C18 0.931 . S
Gd40 C43 2.818 . S
Gd40 O60 2.377 . S
Gd40 O62 2.448 . S
Gd40 O63 2.506 . S
Gd40 O64 2.435 . S
Gd40 O65 2.717 1_565 S
Gd40 O67 2.395 1_565 S
Gd40 O71 2.327 1_565 S
Gd41 C52 2.818 . S
Gd41 O61 2.395 1_545 S
Gd41 O65 2.327 . S
Gd41 O66 2.377 . S
Gd41 O68 2.448 . S
Gd41 O69 2.506 . S
Gd41 O70 2.435 . S
Gd41 O71 2.717 . S
C42 O60 1.240 . S
C42 O61 1.240 . S
C43 Gd40 2.818 . S
C43 C44 1.510 . S
C43 O62 1.249 . S
C43 O63 1.252 . S
C44 C43 1.510 . S
C44 C45 1.404 . S
C44 C46 1.352 . S
C45 C44 1.404 . S
C45 C49 1.389 . S
C45 H72 0.930 . S
C46 C44 1.352 . S
C46 C48 1.374 . S
C46 H73 0.931 . S
C47 C48 1.359 . S
C47 C49 1.364 . S
C48 C46 1.374 . S
C48 C47 1.359 . S
C48 H74 0.931 . S
C49 C45 1.389 . S
C49 C47 1.364 . S
C49 H75 0.931 . S
C50 O64 1.256 1_545 S
C50 O65 1.257 . S
C51 O66 1.240 . S
C51 O67 1.240 . S
C52 Gd41 2.818 . S
C52 C53 1.510 . S
C52 O68 1.249 . S
C52 O69 1.252 . S
C53 C52 1.510 . S
C53 C54 1.404 . S
C53 C55 1.352 . S
C54 C53 1.404 . S
C54 C58 1.389 . S
C54 H76 0.930 . S
C55 C53 1.352 . S
C55 C57 1.374 . S
C55 H77 0.931 . S
C56 C57 1.359 . S
C56 C58 1.364 . S
C57 C55 1.374 . S
C57 C56 1.359 . S
C57 H78 0.931 . S
C58 C54 1.389 . S
C58 C56 1.364 . S
C58 H79 0.931 . S
C59 O70 1.256 . S
C59 O71 1.257 . S
O60 Gd40 2.377 . S
O60 C42 1.240 . S
O61 Gd41 2.395 1_565 S
O61 C42 1.240 . S
O62 Gd40 2.448 . S
O62 C43 1.249 . S
O63 Gd40 2.506 . S
O63 C43 1.252 . S
O64 Gd40 2.435 . S
O64 C50 1.256 1_565 S
O65 Gd40 2.717 1_545 S
O65 Gd41 2.327 . S
O65 C50 1.257 . S
O66 Gd41 2.377 . S
O66 C51 1.240 . S
O67 Gd40 2.395 1_545 S
O67 C51 1.240 . S
O68 Gd41 2.448 . S
O68 C52 1.249 . S
O69 Gd41 2.506 . S
O69 C52 1.252 . S
O70 Gd41 2.435 . S
O70 C59 1.256 . S
O71 Gd40 2.327 1_545 S
O71 Gd41 2.717 . S
O71 C59 1.257 . S
H72 C45 0.930 . S
H73 C46 0.931 . S
H74 C48 0.931 . S
H75 C49 0.931 . S
H76 C54 0.930 . S
H77 C55 0.931 . S
H78 C57 0.931 . S
H79 C58 0.931 . S
Gd80 C83 2.818 . S
Gd80 O100 2.377 . S
Gd80 O102 2.448 . S
Gd80 O103 2.506 . S
Gd80 O104 2.435 . S
Gd80 O105 2.717 . S
Gd80 O107 2.395 . S
Gd80 O111 2.327 . S
Gd81 C92 2.818 . S
Gd81 O101 2.395 . S
Gd81 O105 2.327 . S
Gd81 O106 2.377 . S
Gd81 O108 2.448 . S
Gd81 O109 2.506 . S
Gd81 O110 2.435 . S
Gd81 O111 2.717 . S
C82 O100 1.240 . S
C82 O101 1.240 . S
C83 Gd80 2.818 . S
C83 C84 1.510 . S
C83 O102 1.249 . S
C83 O103 1.252 . S
C84 C83 1.510 . S
C84 C85 1.404 . S
C84 C86 1.352 . S
C85 C84 1.404 . S
C85 C89 1.389 . S
C85 H112 0.930 . S
C86 C84 1.352 . S
C86 C88 1.374 . S
C86 H113 0.931 . S
C87 C88 1.359 . S
C87 C89 1.364 . S
C88 C86 1.374 . S
C88 C87 1.359 . S
C88 H114 0.931 . S
C89 C85 1.389 . S
C89 C87 1.364 . S
C89 H115 0.931 . S
C90 O104 1.256 . S
C90 O105 1.257 . S
C91 O106 1.240 . S
C91 O107 1.240 . S
C92 Gd81 2.818 . S
C92 C93 1.510 . S
C92 O108 1.249 . S
C92 O109 1.252 . S
C93 C92 1.510 . S
C93 C94 1.404 . S
C93 C95 1.352 . S
C94 C93 1.404 . S
C94 C98 1.389 . S
C94 H116 0.930 . S
C95 C93 1.352 . S
C95 C97 1.374 . S
C95 H117 0.931 . S
C96 C97 1.359 . S
C96 C98 1.364 . S
C97 C95 1.374 . S
C97 C96 1.359 . S
C97 H118 0.931 . S
C98 C94 1.389 . S
C98 C96 1.364 . S
C98 H119 0.931 . S
C99 O110 1.256 . S
C99 O111 1.257 . S
O100 Gd80 2.377 . S
O100 C82 1.240 . S
O101 Gd81 2.395 . S
O101 C82 1.240 . S
O102 Gd80 2.448 . S
O102 C83 1.249 . S
O103 Gd80 2.506 . S
O103 C83 1.252 . S
O104 Gd80 2.435 . S
O104 C90 1.256 . S
O105 Gd80 2.717 . S
O105 Gd81 2.327 . S
O105 C90 1.257 . S
O106 Gd81 2.377 . S
O106 C91 1.240 . S
O107 Gd80 2.395 . S
O107 C91 1.240 . S
O108 Gd81 2.448 . S
O108 C92 1.249 . S
O109 Gd81 2.506 . S
O109 C92 1.252 . S
O110 Gd81 2.435 . S
O110 C99 1.256 . S
O111 Gd80 2.327 . S
O111 Gd81 2.717 . S
O111 C99 1.257 . S
H112 C85 0.930 . S
H113 C86 0.931 . S
H114 C88 0.931 . S
H115 C89 0.931 . S
H116 C94 0.930 . S
H117 C95 0.931 . S
H118 C97 0.931 . S
H119 C98 0.931 . S
O120 Cd121 2.300 . S
O120 C127 1.275 . S
Cd121 O120 2.300 . S
Cd121 O129 2.381 . S
Cd121 O130 2.378 . S
O122 Cd123 2.385 . S
O122 C127 1.255 1_565 S
Cd123 O122 2.385 . S
Cd123 O124 2.317 . S
O124 Cd123 2.317 . S
O124 C125 1.232 . S
C125 O124 1.232 . S
C125 O126 1.218 . S
O126 C125 1.218 . S
C127 O120 1.275 . S
C127 O122 1.255 1_545 S
C128 O129 1.258 . S
C128 O130 1.256 . S
O129 Cd121 2.381 . S
O129 C128 1.258 . S
O130 Cd121 2.378 . S
O130 C128 1.256 . S
O131 Cd132 2.300 . S
O131 C138 1.275 . S
Cd132 O131 2.300 . S
Cd132 O140 2.381 . S
Cd132 O141 2.378 . S
O133 Cd134 2.385 . S
O133 C138 1.255 . S
Cd134 O133 2.385 . S
Cd134 O135 2.317 . S
O135 Cd134 2.317 . S
O135 C136 1.232 . S
C136 O135 1.232 . S
C136 O137 1.218 . S
O137 C136 1.218 . S
C138 O131 1.275 . S
C138 O133 1.255 . S
C139 O140 1.258 . S
C139 O141 1.256 . S
O140 Cd132 2.381 . S
O140 C139 1.258 . S
O141 Cd132 2.378 . S
O141 C139 1.256 . S
O142 Cd143 2.300 . S
O142 C149 1.275 . S
Cd143 O142 2.300 . S
Cd143 O151 2.381 . S
Cd143 O152 2.378 . S
O144 Cd145 2.385 1_455 S
O144 C149 1.255 . S
Cd145 O144 2.385 1_655 S
Cd145 O146 2.317 . S
O146 Cd145 2.317 . S
O146 C147 1.232 . S
C147 O146 1.232 . S
C147 O148 1.218 . S
O148 C147 1.218 . S
C149 O142 1.275 . S
C149 O144 1.255 . S
C150 O151 1.258 . S
C150 O152 1.256 . S
O151 Cd143 2.381 . S
O151 C150 1.258 . S
O152 Cd143 2.378 . S
O152 C150 1.256 . S
O153 Cd154 2.300 . S
O153 C160 1.275 1_455 S
Cd154 O153 2.300 . S
Cd154 O162 2.381 . S
Cd154 O163 2.378 . S
O155 Cd156 2.385 . S
O155 C160 1.255 . S
Cd156 O155 2.385 . S
Cd156 O157 2.317 . S
O157 Cd156 2.317 . S
O157 C158 1.232 . S
C158 O157 1.232 . S
C158 O159 1.218 . S
O159 C158 1.218 . S
C160 O153 1.275 1_655 S
C160 O155 1.255 . S
C161 O162 1.258 . S
C161 O163 1.256 . S
O162 Cd154 2.381 . S
O162 C161 1.258 . S
O163 Cd154 2.378 . S
O163 C161 1.256 . S
O164 Cd165 2.300 . S
O164 C171 1.275 1_565 S
Cd165 O164 2.300 . S
Cd165 O173 2.381 . S
Cd165 O174 2.378 . S
O166 Cd167 2.385 . S
O166 C171 1.255 . S
Cd167 O166 2.385 . S
Cd167 O168 2.317 . S
O168 Cd167 2.317 . S
O168 C169 1.232 . S
C169 O168 1.232 . S
C169 O170 1.218 . S
O170 C169 1.218 . S
C171 O164 1.275 1_545 S
C171 O166 1.255 . S
C172 O173 1.258 . S
C172 O174 1.256 . S
O173 Cd165 2.381 . S
O173 C172 1.258 . S
O174 Cd165 2.378 . S
O174 C172 1.256 . S
O175 Cd176 2.300 . S
O175 C182 1.275 . S
Cd176 O175 2.300 . S
Cd176 O184 2.381 . S
Cd176 O185 2.378 . S
O177 Cd178 2.385 . S
O177 C182 1.255 . S
Cd178 O177 2.385 . S
Cd178 O179 2.317 . S
O179 Cd178 2.317 . S
O179 C180 1.232 . S
C180 O179 1.232 . S
C180 O181 1.218 . S
O181 C180 1.218 . S
C182 O175 1.275 . S
C182 O177 1.255 . S
C183 O184 1.258 . S
C183 O185 1.256 . S
O184 Cd176 2.381 . S
O184 C183 1.258 . S
O185 Cd176 2.378 . S
O185 C183 1.256 . S
H186 C192 0.930 . S
H187 C196 0.930 . S
H188 C201 0.929 . S
H189 C199 0.929 . S
H190 C194 0.929 . S
H191 C200 0.929 . S
C192 H186 0.930 . S
C192 C193 1.367 . S
C192 C200 1.378 . S
C193 C192 1.367 . S
C193 C201 1.433 . S
C194 H190 0.929 . S
C194 C196 1.378 . S
C194 C198 1.350 . S
C195 C198 1.463 . S
C195 C200 1.350 . S
C195 N203 1.427 . S
C196 H187 0.930 . S
C196 C194 1.378 . S
C196 C197 1.367 . S
C197 C196 1.367 . S
C197 C199 1.433 . S
C198 C194 1.350 . S
C198 C195 1.463 . S
C198 N202 1.427 . S
C199 H189 0.929 . S
C199 C197 1.433 . S
C199 N202 1.384 . S
C200 H191 0.929 . S
C200 C192 1.378 . S
C200 C195 1.350 . S
C201 H188 0.929 . S
C201 C193 1.433 . S
C201 N203 1.384 . S
N202 C198 1.427 . S
N202 C199 1.384 . S
N203 C195 1.427 . S
N203 C201 1.384 . S
H204 C210 0.930 . S
H205 C214 0.930 . S
H206 C219 0.929 . S
H207 C217 0.929 . S
H208 C212 0.929 . S
H209 C218 0.929 . S
C210 H204 0.930 . S
C210 C211 1.367 . S
C210 C218 1.378 . S
C211 C210 1.367 . S
C211 C219 1.433 . S
C212 H208 0.929 . S
C212 C214 1.378 . S
C212 C216 1.350 . S
C213 C216 1.463 . S
C213 C218 1.350 . S
C213 N221 1.427 . S
C214 H205 0.930 . S
C214 C212 1.378 . S
C214 C215 1.367 . S
C215 C214 1.367 . S
C215 C217 1.433 . S
C216 C212 1.350 . S
C216 C213 1.463 . S
C216 N220 1.427 . S
C217 H207 0.929 . S
C217 C215 1.433 . S
C217 N220 1.384 . S
C218 H209 0.929 . S
C218 C210 1.378 . S
C218 C213 1.350 . S
C219 H206 0.929 . S
C219 C211 1.433 . S
C219 N221 1.384 . S
N220 C216 1.427 . S
N220 C217 1.384 . S
N221 C213 1.427 . S
N221 C219 1.384 . S
H222 C228 0.930 . S
H223 C232 0.930 . S
H224 C237 0.929 . S
H225 C235 0.929 . S
H226 C230 0.929 . S
H227 C236 0.929 . S
C228 H222 0.930 . S
C228 C229 1.367 . S
C228 C236 1.378 . S
C229 C228 1.367 . S
C229 C237 1.433 . S
C230 H226 0.929 . S
C230 C232 1.378 . S
C230 C234 1.350 . S
C231 C234 1.463 . S
C231 C236 1.350 . S
C231 N239 1.427 . S
C232 H223 0.930 . S
C232 C230 1.378 . S
C232 C233 1.367 . S
C233 C232 1.367 . S
C233 C235 1.433 . S
C234 C230 1.350 . S
C234 C231 1.463 . S
C234 N238 1.427 . S
C235 H225 0.929 . S
C235 C233 1.433 . S
C235 N238 1.384 . S
C236 H227 0.929 . S
C236 C228 1.378 . S
C236 C231 1.350 . S
C237 H224 0.929 . S
C237 C229 1.433 . S
C237 N239 1.384 . S
N238 C234 1.427 . S
N238 C235 1.384 . S
N239 C231 1.427 . S
N239 C237 1.384 . S
H240 C246 0.930 . S
H241 C250 0.930 . S
H242 C255 0.929 . S
H243 C253 0.929 . S
H244 C248 0.929 . S
H245 C254 0.929 . S
C246 H240 0.930 . S
C246 C247 1.367 . S
C246 C254 1.378 . S
C247 C246 1.367 . S
C247 C255 1.433 . S
C248 H244 0.929 . S
C248 C250 1.378 . S
C248 C252 1.350 . S
C249 C252 1.463 . S
C249 C254 1.350 . S
C249 N257 1.427 . S
C250 H241 0.930 . S
C250 C248 1.378 . S
C250 C251 1.367 . S
C251 C250 1.367 . S
C251 C253 1.433 . S
C252 C248 1.350 . S
C252 C249 1.463 . S
C252 N256 1.427 . S
C253 H243 0.929 . S
C253 C251 1.433 . S
C253 N256 1.384 . S
C254 H245 0.929 . S
C254 C246 1.378 . S
C254 C249 1.350 . S
C255 H242 0.929 . S
C255 C247 1.433 . S
C255 N257 1.384 . S
N256 C252 1.427 . S
N256 C253 1.384 . S
N257 C249 1.427 . S
N257 C255 1.384 . S
H258 C264 0.930 . S
H259 C268 0.930 . S
H260 C273 0.929 . S
H261 C271 0.929 . S
H262 C266 0.929 . S
H263 C272 0.929 . S
C264 H258 0.930 . S
C264 C265 1.367 . S
C264 C272 1.378 . S
C265 C264 1.367 . S
C265 C273 1.433 . S
C266 H262 0.929 . S
C266 C268 1.378 . S
C266 C270 1.350 . S
C267 C270 1.463 . S
C267 C272 1.350 . S
C267 N275 1.427 . S
C268 H259 0.930 . S
C268 C266 1.378 . S
C268 C269 1.367 . S
C269 C268 1.367 . S
C269 C271 1.433 . S
C270 C266 1.350 . S
C270 C267 1.463 . S
C270 N274 1.427 . S
C271 H261 0.929 . S
C271 C269 1.433 . S
C271 N274 1.384 . S
C272 H263 0.929 . S
C272 C264 1.378 . S
C272 C267 1.350 . S
C273 H260 0.929 . S
C273 C265 1.433 . S
C273 N275 1.384 . S
N274 C270 1.427 . S
N274 C271 1.384 . S
N275 C267 1.427 . S
N275 C273 1.384 . S
H276 C282 0.930 . S
H277 C286 0.930 . S
H278 C291 0.929 . S
H279 C289 0.929 . S
H280 C284 0.929 . S
H281 C290 0.929 . S
C282 H276 0.930 . S
C282 C283 1.367 . S
C282 C290 1.378 . S
C283 C282 1.367 . S
C283 C291 1.433 . S
C284 H280 0.929 . S
C284 C286 1.378 . S
C284 C288 1.350 . S
C285 C288 1.463 . S
C285 C290 1.350 . S
C285 N293 1.427 . S
C286 H277 0.930 . S
C286 C284 1.378 . S
C286 C287 1.367 . S
C287 C286 1.367 . S
C287 C289 1.433 . S
C288 C284 1.350 . S
C288 C285 1.463 . S
C288 N292 1.427 . S
C289 H279 0.929 . S
C289 C287 1.433 . S
C289 N292 1.384 . S
C290 H281 0.929 . S
C290 C282 1.378 . S
C290 C285 1.350 . S
C291 H278 0.929 . S
C291 C283 1.433 . S
C291 N293 1.384 . S
N292 C288 1.427 . S
N292 C289 1.384 . S
N293 C285 1.427 . S
N293 C291 1.384 . S
H294 C300 0.930 . S
H295 C304 0.930 . S
H296 C309 0.929 . S
H297 C307 0.929 . S
H298 C302 0.929 . S
H299 C308 0.929 . S
C300 H294 0.930 . S
C300 C301 1.367 . S
C300 C308 1.378 . S
C301 C300 1.367 . S
C301 C309 1.433 . S
C302 H298 0.929 . S
C302 C304 1.378 . S
C302 C306 1.350 . S
C303 C306 1.463 . S
C303 C308 1.350 . S
C303 N311 1.427 . S
C304 H295 0.930 . S
C304 C302 1.378 . S
C304 C305 1.367 . S
C305 C304 1.367 . S
C305 C307 1.433 . S
C306 C302 1.350 . S
C306 C303 1.463 . S
C306 N310 1.427 . S
C307 H297 0.929 . S
C307 C305 1.433 . S
C307 N310 1.384 . S
C308 H299 0.929 . S
C308 C300 1.378 . S
C308 C303 1.350 . S
C309 H296 0.929 . S
C309 C301 1.433 . S
C309 N311 1.384 . S
N310 C306 1.427 . S
N310 C307 1.384 . S
N311 C303 1.427 . S
N311 C309 1.384 . S
H312 C318 0.930 . S
H313 C322 0.930 . S
H314 C327 0.929 . S
H315 C325 0.929 . S
H316 C320 0.929 . S
H317 C326 0.929 . S
C318 H312 0.930 . S
C318 C319 1.367 . S
C318 C326 1.378 . S
C319 C318 1.367 . S
C319 C327 1.433 . S
C320 H316 0.929 . S
C320 C322 1.378 . S
C320 C324 1.350 . S
C321 C324 1.463 . S
C321 C326 1.350 . S
C321 N329 1.427 . S
C322 H313 0.930 . S
C322 C320 1.378 . S
C322 C323 1.367 . S
C323 C322 1.367 . S
C323 C325 1.433 . S
C324 C320 1.350 . S
C324 C321 1.463 . S
C324 N328 1.427 . S
C325 H315 0.929 . S
C325 C323 1.433 . S
C325 N328 1.384 . S
C326 H317 0.929 . S
C326 C318 1.378 . S
C326 C321 1.350 . S
C327 H314 0.929 . S
C327 C319 1.433 . S
C327 N329 1.384 . S
N328 C324 1.427 . S
N328 C325 1.384 . S
N329 C321 1.427 . S
N329 C327 1.384 . S
H330 C336 0.930 . S
H331 C340 0.930 . S
H332 C345 0.929 . S
H333 C343 0.929 . S
H334 C338 0.929 . S
H335 C344 0.929 . S
C336 H330 0.930 . S
C336 C337 1.367 . S
C336 C344 1.378 . S
C337 C336 1.367 . S
C337 C345 1.433 . S
C338 H334 0.929 . S
C338 C340 1.378 . S
C338 C342 1.350 . S
C339 C342 1.463 . S
C339 C344 1.350 . S
C339 N347 1.427 . S
C340 H331 0.930 . S
C340 C338 1.378 . S
C340 C341 1.367 . S
C341 C340 1.367 . S
C341 C343 1.433 . S
C342 C338 1.350 . S
C342 C339 1.463 . S
C342 N346 1.427 . S
C343 H333 0.929 . S
C343 C341 1.433 . S
C343 N346 1.384 . S
C344 H335 0.929 . S
C344 C336 1.378 . S
C344 C339 1.350 . S
C345 H332 0.929 . S
C345 C337 1.433 . S
C345 N347 1.384 . S
N346 C342 1.427 . S
N346 C343 1.384 . S
N347 C339 1.427 . S
N347 C345 1.384 . S
H348 C354 0.930 . S
H349 C358 0.930 . S
H350 C363 0.929 . S
H351 C361 0.929 . S
H352 C356 0.929 . S
H353 C362 0.929 . S
C354 H348 0.930 . S
C354 C355 1.367 . S
C354 C362 1.378 . S
C355 C354 1.367 . S
C355 C363 1.433 . S
C356 H352 0.929 . S
C356 C358 1.378 . S
C356 C360 1.350 . S
C357 C360 1.463 . S
C357 C362 1.350 . S
C357 N365 1.427 . S
C358 H349 0.930 . S
C358 C356 1.378 . S
C358 C359 1.367 . S
C359 C358 1.367 . S
C359 C361 1.433 . S
C360 C356 1.350 . S
C360 C357 1.463 . S
C360 N364 1.427 . S
C361 H351 0.929 . S
C361 C359 1.433 . S
C361 N364 1.384 . S
C362 H353 0.929 . S
C362 C354 1.378 . S
C362 C357 1.350 . S
C363 H350 0.929 . S
C363 C355 1.433 . S
C363 N365 1.384 . S
N364 C360 1.427 . S
N364 C361 1.384 . S
N365 C357 1.427 . S
N365 C363 1.384 . S
H366 C372 0.930 . S
H367 C376 0.930 . S
H368 C381 0.929 . S
H369 C379 0.929 . S
H370 C374 0.929 . S
H371 C380 0.929 . S
C372 H366 0.930 . S
C372 C373 1.367 . S
C372 C380 1.378 . S
C373 C372 1.367 . S
C373 C381 1.433 . S
C374 H370 0.929 . S
C374 C376 1.378 . S
C374 C378 1.350 . S
C375 C378 1.463 . S
C375 C380 1.350 . S
C375 N383 1.427 . S
C376 H367 0.930 . S
C376 C374 1.378 . S
C376 C377 1.367 . S
C377 C376 1.367 . S
C377 C379 1.433 . S
C378 C374 1.350 . S
C378 C375 1.463 . S
C378 N382 1.427 . S
C379 H369 0.929 . S
C379 C377 1.433 . S
C379 N382 1.384 . S
C380 H371 0.929 . S
C380 C372 1.378 . S
C380 C375 1.350 . S
C381 H368 0.929 . S
C381 C373 1.433 . S
C381 N383 1.384 . S
N382 C378 1.427 . S
N382 C379 1.384 . S
N383 C375 1.427 . S
N383 C381 1.384 . S
H384 C390 0.930 . S
H385 C394 0.930 . S
H386 C399 0.929 . S
H387 C397 0.929 . S
H388 C392 0.929 . S
H389 C398 0.929 . S
C390 H384 0.930 . S
C390 C391 1.367 . S
C390 C398 1.378 . S
C391 C390 1.367 . S
C391 C399 1.433 . S
C392 H388 0.929 . S
C392 C394 1.378 . S
C392 C396 1.350 . S
C393 C396 1.463 . S
C393 C398 1.350 . S
C393 N401 1.427 . S
C394 H385 0.930 . S
C394 C392 1.378 . S
C394 C395 1.367 . S
C395 C394 1.367 . S
C395 C397 1.433 . S
C396 C392 1.350 . S
C396 C393 1.463 . S
C396 N400 1.427 . S
C397 H387 0.929 . S
C397 C395 1.433 . S
C397 N400 1.384 . S
C398 H389 0.929 . S
C398 C390 1.378 . S
C398 C393 1.350 . S
C399 H386 0.929 . S
C399 C391 1.433 . S
C399 N401 1.384 . S
N400 C396 1.427 . S
N400 C397 1.384 . S
N401 C393 1.427 . S
N401 C399 1.384 . S
H402 C408 0.930 . S
H403 C412 0.930 1_655 S
H404 C417 0.931 . S
H405 C415 0.929 . S
H406 C410 0.929 1_655 S
H407 C416 0.929 . S
C408 H402 0.930 . S
C408 C409 1.367 . S
C408 C416 1.378 . S
C409 C408 1.367 . S
C409 C417 1.431 1_455 S
C410 H406 0.929 1_455 S
C410 C412 1.378 . S
C410 C414 1.350 1_556 S
C411 C414 1.463 . S
C411 C416 1.350 . S
C411 N419 1.434 . S
C412 H403 0.930 1_455 S
C412 C410 1.378 . S
C412 C413 1.367 . S
C413 C412 1.367 . S
C413 C415 1.433 . S
C414 C410 1.350 1_554 S
C414 C411 1.463 . S
C414 N418 1.427 1_554 S
C415 H405 0.929 . S
C415 C413 1.433 . S
C415 N418 1.384 . S
C416 H407 0.929 . S
C416 C408 1.378 . S
C416 C411 1.350 . S
C417 H404 0.931 . S
C417 C409 1.431 1_655 S
C417 N419 1.386 1_655 S
N418 C414 1.427 1_556 S
N418 C415 1.384 . S
N419 C411 1.434 . S
N419 C417 1.386 1_455 S
H420 C426 0.930 . S
H421 C430 0.930 . S
H422 C435 0.929 . S
H423 C433 0.929 . S
H424 C428 0.929 . S
H425 C434 0.929 . S
C426 H420 0.930 . S
C426 C427 1.367 . S
C426 C434 1.378 . S
C427 C426 1.367 . S
C427 C435 1.433 1_545 S
C428 H424 0.929 . S
C428 C430 1.378 . S
C428 C432 1.350 1_565 S
C429 C432 1.463 . S
C429 C434 1.350 . S
C429 N437 1.427 1_545 S
C430 H421 0.930 . S
C430 C428 1.378 . S
C430 C431 1.367 1_565 S
C431 C430 1.367 1_545 S
C431 C433 1.433 . S
C432 C428 1.350 1_545 S
C432 C429 1.463 . S
C432 N436 1.427 . S
C433 H423 0.929 . S
C433 C431 1.433 . S
C433 N436 1.384 . S
C434 H425 0.929 . S
C434 C426 1.378 . S
C434 C429 1.350 . S
C435 H422 0.929 . S
C435 C427 1.433 1_565 S
C435 N437 1.384 . S
N436 C432 1.427 . S
N436 C433 1.384 . S
N437 C429 1.427 1_565 S
N437 C435 1.384 . S
H438 C444 0.930 . S
H439 C448 0.930 . S
H440 C453 0.929 . S
H441 C451 0.929 . S
H442 C446 0.929 . S
H443 C452 0.929 . S
C444 H438 0.930 . S
C444 C445 1.367 . S
C444 C452 1.378 . S
C445 C444 1.367 . S
C445 C453 1.433 . S
C446 H442 0.929 . S
C446 C448 1.378 . S
C446 C450 1.350 . S
C447 C450 1.463 . S
C447 C452 1.350 . S
C447 N455 1.427 . S
C448 H439 0.930 . S
C448 C446 1.378 . S
C448 C449 1.367 . S
C449 C448 1.367 . S
C449 C451 1.433 . S
C450 C446 1.350 . S
C450 C447 1.463 . S
C450 N454 1.427 . S
C451 H441 0.929 . S
C451 C449 1.433 . S
C451 N454 1.384 . S
C452 H443 0.929 . S
C452 C444 1.378 . S
C452 C447 1.350 . S
C453 H440 0.929 . S
C453 C445 1.433 . S
C453 N455 1.384 . S
N454 C450 1.427 . S
N454 C451 1.384 . S
N455 C447 1.427 . S
N455 C453 1.384 . S
H456 C462 0.930 . S
H457 C466 0.930 . S
H458 C471 0.929 . S
H459 C469 0.929 . S
H460 C464 0.929 . S
H461 C470 0.929 . S
C462 H456 0.930 . S
C462 C463 1.367 1_565 S
C462 C470 1.378 . S
C463 C462 1.367 1_545 S
C463 C471 1.433 . S
C464 H460 0.929 . S
C464 C466 1.378 . S
C464 C468 1.350 . S
C465 C468 1.463 . S
C465 C470 1.350 1_545 S
C465 N473 1.427 . S
C466 H457 0.930 . S
C466 C464 1.378 . S
C466 C467 1.367 . S
C467 C466 1.367 . S
C467 C469 1.433 1_545 S
C468 C464 1.350 . S
C468 C465 1.463 . S
C468 N472 1.427 1_545 S
C469 H459 0.929 . S
C469 C467 1.433 1_565 S
C469 N472 1.384 . S
C470 H461 0.929 . S
C470 C462 1.378 . S
C470 C465 1.350 1_565 S
C471 H458 0.929 . S
C471 C463 1.433 . S
C471 N473 1.384 . S
N472 C468 1.427 1_565 S
N472 C469 1.384 . S
N473 C465 1.427 . S
N473 C471 1.384 . S
H474 C480 0.930 . S
H475 C484 0.930 . S
H476 C489 0.929 . S
H477 C487 0.929 . S
H478 C482 0.929 . S
H479 C488 0.929 . S
C480 H474 0.930 . S
C480 C481 1.367 . S
C480 C488 1.378 . S
C481 C480 1.367 . S
C481 C489 1.433 . S
C482 H478 0.929 . S
C482 C484 1.378 1_556 S
C482 C486 1.350 . S
C483 C486 1.463 . S
C483 C488 1.350 . S
C483 N491 1.427 . S
C484 H475 0.930 . S
C484 C482 1.378 1_554 S
C484 C485 1.367 . S
C485 C484 1.367 . S
C485 C487 1.433 . S
C486 C482 1.350 . S
C486 C483 1.463 . S
C486 N490 1.427 1_556 S
C487 H477 0.929 . S
C487 C485 1.433 . S
C487 N490 1.384 . S
C488 H479 0.929 . S
C488 C480 1.378 . S
C488 C483 1.350 . S
C489 H476 0.929 . S
C489 C481 1.433 . S
C489 N491 1.384 . S
N490 C486 1.427 1_554 S
N490 C487 1.384 . S
N491 C483 1.427 . S
N491 C489 1.384 . S
H492 C498 0.930 . S
H493 C502 0.929 1_455 S
H494 C507 0.929 . S
H495 C505 0.929 . S
H496 C500 0.929 . S
H497 C506 0.921 1_655 S
C498 H492 0.930 . S
C498 C499 1.367 . S
C498 C506 1.378 . S
C499 C498 1.367 . S
C499 C507 1.433 . S
C500 H496 0.929 . S
C500 C502 1.378 1_455 S
C500 C504 1.350 . S
C501 C504 1.463 . S
C501 C506 1.350 . S
C501 N509 1.427 . S
C502 H493 0.929 1_655 S
C502 C500 1.378 1_655 S
C502 C503 1.368 . S
C503 C502 1.368 . S
C503 C505 1.433 . S
C504 C500 1.350 . S
C504 C501 1.463 . S
C504 N508 1.427 1_455 S
C505 H495 0.929 . S
C505 C503 1.433 . S
C505 N508 1.384 . S
C506 H497 0.921 1_455 S
C506 C498 1.378 . S
C506 C501 1.350 . S
C507 H494 0.929 . S
C507 C499 1.433 . S
C507 N509 1.384 . S
N508 C504 1.427 1_655 S
N508 C505 1.384 . S
N509 C501 1.427 . S
N509 C507 1.384 . S
C193 C7 0.697 . S
C197 C180 0.745 . S
C211 C51 2.039 . S
C215 C158 1.772 . S
C229 C87 1.061 . S
C233 C172 1.055 . S
C247 C16 0.340 . S
C251 C183 0.190 . S
C269 C161 1.814 . S
C265 C42 1.880 . S
C287 C169 1.202 . S
C283 C96 1.417 . S
C301 C47 1.338 . S
C305 C136 1.147 . S
C319 C91 3.274 . S
C323 C147 2.913 . S
C337 C2 2.143 . S
C341 C125 1.816 . S
C359 C139 1.092 . S
C355 C56 1.113 . S
C377 C150 2.806 . S
C373 C82 2.877 . S
C391 C11 1.784 . S
C395 C128 1.731 . S
C413 C149 1.649 . S
C409 C19 1.658 . S
C427 C50 1.411 . S
C431 C127 1.401 . S
C445 C99 1.512 . S
C449 C138 1.486 . S
C467 C171 1.450 . S
C463 C59 1.466 . S
C485 C182 1.200 . S
C481 C90 1.242 . S
C499 C10 1.435 . S
C503 C160 1.402 . S
