# Generated by pormake.
# Topology anh, (6,3)-cn, num edge types: 1
# Building blocks:
#     Node 0, Type 0, BuildingBlock: BETDEL_clean_sbu_0, # of connection points: 6
#     Node 1, Type 0, BuildingBlock: BETDEL_clean_sbu_0, # of connection points: 6
#     Node 2, Type 0, BuildingBlock: BETDEL_clean_sbu_0, # of connection points: 6
#     Node 3, Type 1, BuildingBlock: OLANEW_clean_sbu_2, # of connection points: 3
#     Node 4, Type 1, BuildingBlock: OLANEW_clean_sbu_2, # of connection points: 3
#     Node 5, Type 1, BuildingBlock: OLANEW_clean_sbu_2, # of connection points: 3
#     Node 6, Type 1, BuildingBlock: OLANEW_clean_sbu_2, # of connection points: 3
#     Node 7, Type 1, BuildingBlock: OLANEW_clean_sbu_2, # of connection points: 3
#     Node 8, Type 1, BuildingBlock: OLANEW_clean_sbu_2, # of connection points: 3
#     Edge 9, Type (0, 1), BuildingBlock: XIVTED_clean_linker_0, # of connection points: 2
#     Edge 10, Type (0, 1), BuildingBlock: XIVTED_clean_linker_0, # of connection points: 2
#     Edge 11, Type (0, 1), BuildingBlock: XIVTED_clean_linker_0, # of connection points: 2
#     Edge 12, Type (0, 1), BuildingBlock: XIVTED_clean_linker_0, # of connection points: 2
#     Edge 13, Type (0, 1), BuildingBlock: XIVTED_clean_linker_0, # of connection points: 2
#     Edge 14, Type (0, 1), BuildingBlock: XIVTED_clean_linker_0, # of connection points: 2
#     Edge 15, Type (0, 1), BuildingBlock: XIVTED_clean_linker_0, # of connection points: 2
#     Edge 16, Type (0, 1), BuildingBlock: XIVTED_clean_linker_0, # of connection points: 2
#     Edge 17, Type (0, 1), BuildingBlock: XIVTED_clean_linker_0, # of connection points: 2
#     Edge 18, Type (0, 1), BuildingBlock: XIVTED_clean_linker_0, # of connection points: 2
#     Edge 19, Type (0, 1), BuildingBlock: XIVTED_clean_linker_0, # of connection points: 2
#     Edge 20, Type (0, 1), BuildingBlock: XIVTED_clean_linker_0, # of connection points: 2
#     Edge 21, Type (0, 1), BuildingBlock: XIVTED_clean_linker_0, # of connection points: 2
#     Edge 22, Type (0, 1), BuildingBlock: XIVTED_clean_linker_0, # of connection points: 2
#     Edge 23, Type (0, 1), BuildingBlock: XIVTED_clean_linker_0, # of connection points: 2
#     Edge 24, Type (0, 1), BuildingBlock: XIVTED_clean_linker_0, # of connection points: 2
#     Edge 25, Type (0, 1), BuildingBlock: XIVTED_clean_linker_0, # of connection points: 2
#     Edge 26, Type (0, 1), BuildingBlock: XIVTED_clean_linker_0, # of connection points: 2
# Relax obj value: 0.082
# Max RMSD: 0.105
# Mean RMSD: 0.101
data_MOF--net-anh--node1-BETDEL_clean_sbu_0--node2-OLANEW_clean_sbu_2--edge1-XIVTED_clean_linker_0
_symmetry_space_group_name_H-M    P1
_symmetry_Int_Tables_number       1
_symmetry_cell_setting            triclinic
loop_
_symmetry_equiv_pos_as_xyz
'x, y, z'
_cell_length_a     33.3277
_cell_length_b     33.294618
_cell_length_c     49.518691
_cell_angle_alpha  89.543417
_cell_angle_beta   89.782917
_cell_angle_gamma 120.02785
loop_
_atom_site_label
_atom_site_type_symbol
_atom_site_fract_x
_atom_site_fract_y
_atom_site_fract_z
_atom_type_partial_charge
Dy0 Dy 0.03832 0.50233 0.15218 0.0
C1 C 0.91912 0.56927 0.18844 0.0
C2 C 0.09698 0.47853 0.12805 0.0
Dy3 Dy 0.98244 0.55047 0.16545 0.0
O4 O 0.07261 0.45901 0.14971 0.0
O5 O 0.08895 0.51073 0.11942 0.0
O6 O 0.02898 0.47422 0.19457 0.0
O7 O 0.03107 0.53731 0.18725 0.0
C8 C 0.0231 0.5067 0.20483 0.0
C9 C 0.99953 0.54696 0.11305 0.0
O10 O 0.05317 0.61102 0.17187 0.0
O11 O 0.09233 0.57865 0.15033 0.0
O12 O 0.93985 0.58577 0.16536 0.0
O13 O 0.93455 0.54406 0.19929 0.0
O14 O 0.99514 0.58034 0.12337 0.0
O15 O 0.98989 0.51561 0.13043 0.0
O16 O 0.96695 0.44159 0.14625 0.0
O17 O 0.92875 0.47463 0.16783 0.0
C18 C 0.09137 0.61478 0.16093 0.0
C19 C 0.92907 0.43827 0.15733 0.0
Dy20 Dy 0.48966 0.01986 0.50155 0.0
C21 C 0.67989 0.14546 0.5199 0.0
C22 C 0.40048 0.94972 0.49505 0.0
Dy23 Dy 0.59303 0.07811 0.50545 0.0
O24 O 0.42512 0.95739 0.51654 0.0
O25 O 0.42431 0.98113 0.47673 0.0
O26 O 0.48292 0.04697 0.5415 0.0
O27 O 0.53905 0.03638 0.53447 0.0
C28 C 0.52105 0.05133 0.5511 0.0
C29 C 0.56354 0.04746 0.45569 0.0
O30 O 0.58489 0.00974 0.5176 0.0
O31 O 0.51522 0.96946 0.49542 0.0
O32 O 0.6705 0.11749 0.49974 0.0
O33 O 0.64187 0.13568 0.53256 0.0
O34 O 0.60243 0.0538 0.46533 0.0
O35 O 0.54427 0.06152 0.47209 0.0
O36 O 0.49253 0.08719 0.49307 0.0
O37 O 0.57064 0.13166 0.50333 0.0
C38 C 0.55162 0.97088 0.50708 0.0
C39 C 0.53015 0.12788 0.49723 0.0
Dy40 Dy 0.54866 0.54322 0.83676 0.0
C41 C 0.48813 0.35349 0.86108 0.0
C42 C 0.56662 0.6294 0.82075 0.0
Dy43 Dy 0.50558 0.43907 0.8442 0.0
O44 O 0.5872 0.62104 0.84038 0.0
O45 O 0.53704 0.59076 0.8095 0.0
O46 O 0.58099 0.55515 0.8778 0.0
O47 O 0.51743 0.49504 0.87087 0.0
C48 C 0.54963 0.51532 0.88755 0.0
C49 C 0.50277 0.46643 0.79371 0.0
O50 O 0.44383 0.44475 0.85621 0.0
O51 O 0.47217 0.51827 0.83761 0.0
O52 O 0.4676 0.36128 0.84117 0.0
O53 O 0.51754 0.39245 0.87209 0.0
O54 O 0.47118 0.42723 0.80403 0.0
O55 O 0.53609 0.48677 0.80978 0.0
O56 O 0.61014 0.53792 0.82393 0.0
O57 O 0.58212 0.46367 0.84137 0.0
C58 C 0.43763 0.4792 0.84783 0.0
C59 C 0.61637 0.50301 0.83115 0.0
O60 O 0.53579 0.05507 0.24125 0.0
Cd61 Cd 0.54352 0.0599 0.19198 0.0
O62 O 0.51275 0.98052 0.24432 0.0
Cd63 Cd 0.49186 0.96389 0.20231 0.0
O64 O 0.42989 0.91195 0.1815 0.0
C65 C 0.39183 0.90874 0.18896 0.0
O66 O 0.3929 0.93858 0.20657 0.0
C67 C 0.52587 0.01931 0.25552 0.0
C68 C 0.62638 0.14039 0.17767 0.0
O69 O 0.58834 0.14081 0.18043 0.0
O70 O 0.62524 0.10164 0.18117 0.0
O71 O 0.53721 0.51342 0.57948 0.0
Cd72 Cd 0.53321 0.50963 0.53017 0.0
O73 O 0.4865 0.53699 0.5844 0.0
Cd74 Cd 0.49298 0.56397 0.54333 0.0
O75 O 0.50572 0.62874 0.52404 0.0
C76 C 0.53781 0.66588 0.53424 0.0
O77 O 0.56252 0.66268 0.55387 0.0
C78 C 0.5116 0.52208 0.59458 0.0
C79 C 0.53026 0.42758 0.5143 0.0
O80 O 0.56878 0.46578 0.5162 0.0
O81 O 0.49284 0.42825 0.51929 0.0
O82 O 0.03554 0.47197 0.90734 0.0
Cd83 Cd 0.04067 0.45374 0.8603 0.0
O84 O 0.02091 0.52875 0.89981 0.0
Cd85 Cd 0.99925 0.513 0.85786 0.0
O86 O 0.93702 0.50398 0.83763 0.0
C87 C 0.93251 0.53947 0.83455 0.0
O88 O 0.96718 0.58034 0.84105 0.0
C89 C 0.03041 0.50496 0.91604 0.0
C90 C 0.12554 0.45686 0.85363 0.0
O91 O 0.12167 0.49273 0.84912 0.0
O92 O 0.08897 0.41906 0.86057 0.0
O93 O 0.02105 0.54318 0.41888 0.0
Cd94 Cd 0.02487 0.56332 0.46643 0.0
O95 O 0.96684 0.56106 0.41141 0.0
Cd96 Cd 0.94798 0.54962 0.45416 0.0
O97 O 0.91561 0.49212 0.4832 0.0
C98 C 0.92666 0.46089 0.48065 0.0
O99 O 0.95825 0.46709 0.46255 0.0
C100 C 0.99622 0.5506 0.40242 0.0
C101 C 0.10409 0.64908 0.47424 0.0
O102 O 0.10381 0.61115 0.4794 0.0
O103 O 0.06661 0.64655 0.46579 0.0
O104 O 0.53159 0.01605 0.76407 0.0
Cd105 Cd 0.53447 0.99536 0.81115 0.0
O106 O 0.60644 0.06506 0.76088 0.0
Cd107 Cd 0.60777 0.07194 0.80471 0.0
O108 O 0.58403 0.10463 0.83391 0.0
C109 C 0.54283 0.09664 0.83077 0.0
O110 O 0.51717 0.0673 0.81209 0.0
C111 C 0.56715 0.04204 0.74971 0.0
C112 C 0.54503 0.91753 0.812 0.0
O113 O 0.50485 0.91362 0.81054 0.0
O114 O 0.58039 0.95837 0.81367 0.0
O115 O 0.52286 0.3884 0.09126 0.0
Cd116 Cd 0.50809 0.37636 0.13992 0.0
O117 O 0.50072 0.43917 0.09797 0.0
Cd118 Cd 0.47478 0.48402 0.08387 0.0
O119 O 0.41447 0.49248 0.07988 0.0
C120 C 0.37633 0.45572 0.08506 0.0
O121 O 0.37703 0.4176 0.09121 0.0
C122 C 0.51513 0.41947 0.08193 0.0
C123 C 0.59053 0.42862 0.16758 0.0
O124 O 0.57452 0.38533 0.16329 0.0
O125 O 0.56708 0.44713 0.15924 0.0
H126 H 0.11263 0.40815 0.14151 0.0
H127 H 0.36048 0.52636 0.07068 0.0
H128 H 0.16323 0.52943 0.09017 0.0
H129 H 0.29207 0.38657 0.10292 0.0
H130 H 0.28858 0.52829 0.07701 0.0
H131 H 0.17787 0.39913 0.127 0.0
C132 C 0.13726 0.43255 0.12694 0.0
C133 C 0.13286 0.46969 0.11709 0.0
C134 C 0.28923 0.49705 0.08242 0.0
C135 C 0.2078 0.46011 0.10071 0.0
C136 C 0.33028 0.49598 0.07889 0.0
C137 C 0.33239 0.4564 0.08651 0.0
C138 C 0.25029 0.45849 0.09396 0.0
C139 C 0.29213 0.41792 0.09689 0.0
C140 C 0.17445 0.42742 0.11864 0.0
C141 C 0.16556 0.50035 0.09823 0.0
N142 N 0.2529 0.42011 0.10058 0.0
N143 N 0.20207 0.49524 0.09088 0.0
H144 H 0.69803 0.21825 0.55244 0.0
H145 H 0.93648 0.38456 0.47559 0.0
H146 H 0.76204 0.17165 0.49424 0.0
H147 H 0.85487 0.43315 0.51704 0.0
H148 H 0.88375 0.30627 0.4925 0.0
H149 H 0.7662 0.29614 0.54987 0.0
C150 C 0.72696 0.22417 0.53963 0.0
C151 C 0.72432 0.18877 0.52325 0.0
C152 C 0.87775 0.33418 0.49819 0.0
C153 C 0.80195 0.27756 0.52005 0.0
C154 C 0.90788 0.37897 0.48859 0.0
C155 C 0.89958 0.41537 0.49449 0.0
C156 C 0.83905 0.32567 0.51386 0.0
C157 C 0.86224 0.40603 0.51168 0.0
C158 C 0.76568 0.26865 0.53806 0.0
C159 C 0.76263 0.19818 0.50701 0.0
N160 N 0.83299 0.36195 0.5205 0.0
N161 N 0.7997 0.24186 0.50557 0.0
H162 H 0.62873 0.71377 0.84143 0.0
H163 H 0.4805 0.82964 0.79752 0.0
H164 H 0.51085 0.64707 0.78877 0.0
H165 H 0.62164 0.91104 0.82471 0.0
H166 H 0.48953 0.76126 0.79648 0.0
H167 H 0.62641 0.78603 0.83718 0.0
C168 C 0.6028 0.71458 0.82868 0.0
C169 C 0.56986 0.67453 0.81547 0.0
C170 C 0.51862 0.79413 0.80255 0.0
C171 C 0.56641 0.75641 0.81096 0.0
C172 C 0.51339 0.83311 0.80332 0.0
C173 C 0.55033 0.87605 0.81133 0.0
C174 C 0.56086 0.79787 0.81022 0.0
C175 C 0.59227 0.87857 0.81843 0.0
C176 C 0.60145 0.75573 0.82629 0.0
C177 C 0.53689 0.67726 0.79926 0.0
N178 N 0.5963 0.8399 0.81793 0.0
N179 N 0.53564 0.71736 0.79773 0.0
H180 H 0.87655 0.61253 0.16501 0.0
H181 H 0.6374 0.39891 0.1994 0.0
H182 H 0.85921 0.51478 0.228 0.0
H183 H 0.64826 0.52252 0.1635 0.0
H184 H 0.71794 0.44417 0.21368 0.0
H185 H 0.79372 0.58626 0.16808 0.0
C186 C 0.85555 0.58659 0.18008 0.0
C187 C 0.8744 0.56513 0.19591 0.0
C188 C 0.7025 0.46168 0.20316 0.0
C189 C 0.77976 0.53406 0.19902 0.0
C190 C 0.6566 0.43576 0.19488 0.0
C191 C 0.63643 0.45691 0.17994 0.0
C192 C 0.72878 0.50881 0.19584 0.0
C193 C 0.66267 0.50485 0.17485 0.0
C194 C 0.80825 0.57146 0.18178 0.0
C195 C 0.84583 0.53179 0.21517 0.0
N196 N 0.70789 0.52905 0.18227 0.0
N197 N 0.79963 0.51637 0.21571 0.0
H198 H 0.33902 0.92803 0.4531 0.0
H199 H 0.17992 0.66777 0.50407 0.0
H200 H 0.35798 0.87667 0.52945 0.0
H201 H 0.12532 0.73323 0.45199 0.0
H202 H 0.25077 0.74252 0.50907 0.0
H203 H 0.26462 0.85521 0.44798 0.0
C204 C 0.32739 0.90161 0.46878 0.0
C205 C 0.35452 0.9082 0.4917 0.0
C206 C 0.22322 0.74057 0.49662 0.0
C207 C 0.27071 0.82532 0.48583 0.0
C208 C 0.18286 0.6979 0.49368 0.0
C209 C 0.14668 0.69437 0.47768 0.0
C210 C 0.22784 0.7799 0.48307 0.0
C211 C 0.15235 0.73459 0.46468 0.0
C212 C 0.2851 0.86026 0.46589 0.0
C213 C 0.3381 0.873 0.51146 0.0
N214 N 0.1924 0.77576 0.46748 0.0
N215 N 0.29754 0.83296 0.50795 0.0
H216 H 0.54485 0.33697 0.89316 0.0
H217 H 0.45777 0.08949 0.82705 0.0
H218 H 0.42801 0.26929 0.83986 0.0
H219 H 0.59089 0.16982 0.86503 0.0
H220 H 0.43619 0.1456 0.84237 0.0
H221 H 0.55134 0.26684 0.89359 0.0
C222 C 0.5199 0.30693 0.88206 0.0
C223 C 0.48623 0.30895 0.86614 0.0
C224 C 0.46988 0.15062 0.84768 0.0
C225 C 0.49361 0.22906 0.8664 0.0
C226 C 0.48225 0.11855 0.83898 0.0
C227 C 0.52661 0.12548 0.84428 0.0
C228 C 0.50209 0.19 0.86176 0.0
C229 C 0.55657 0.16344 0.86016 0.0
C230 C 0.52376 0.26705 0.88221 0.0
C231 C 0.45475 0.26921 0.85216 0.0
N232 N 0.54401 0.19469 0.86801 0.0
N233 N 0.45953 0.23103 0.85236 0.0
H234 H 0.61592 0.95613 0.53314 0.0
H235 H 0.48658 0.6851 0.49856 0.0
H236 H 0.49266 0.88695 0.48461 0.0
H237 H 0.60305 0.75127 0.55239 0.0
H238 H 0.49325 0.76053 0.48955 0.0
H239 H 0.61638 0.88302 0.53702 0.0
C240 C 0.58911 0.9257 0.52318 0.0
C241 C 0.55405 0.9277 0.50867 0.0
C242 C 0.51754 0.75859 0.5032 0.0
C243 C 0.55437 0.84389 0.51302 0.0
C244 C 0.51383 0.71552 0.50829 0.0
C245 C 0.54408 0.71174 0.52642 0.0
C246 C 0.55176 0.79824 0.51631 0.0
C247 C 0.57877 0.75243 0.5384 0.0
C248 C 0.58937 0.88394 0.52542 0.0
C249 C 0.52025 0.8871 0.49616 0.0
N250 N 0.58148 0.79389 0.53326 0.0
N251 N 0.52118 0.84692 0.4987 0.0
H252 H 0.63889 0.43471 0.8358 0.0
H253 H 0.91143 0.60798 0.82507 0.0
H254 H 0.6991 0.58095 0.81806 0.0
H255 H 0.84911 0.459 0.82958 0.0
H256 H 0.83433 0.59885 0.82039 0.0
H257 H 0.71558 0.44289 0.83203 0.0
C258 C 0.6682 0.46857 0.831 0.0
C259 C 0.66249 0.50729 0.82741 0.0
C260 C 0.83755 0.56813 0.8221 0.0
C261 C 0.75074 0.5169 0.82316 0.0
C262 C 0.8816 0.57331 0.82476 0.0
C263 C 0.88678 0.5342 0.82796 0.0
C264 C 0.79828 0.52354 0.82291 0.0
C265 C 0.84683 0.49015 0.82728 0.0
C266 C 0.71205 0.47316 0.82876 0.0
C267 C 0.70183 0.55017 0.82104 0.0
N268 N 0.80428 0.48606 0.82514 0.0
N269 N 0.74433 0.5539 0.81935 0.0
H270 H 0.17669 0.63654 0.14064 0.0
H271 H 0.30491 0.89262 0.20122 0.0
H272 H 0.10614 0.69615 0.18342 0.0
H273 H 0.37601 0.83373 0.15839 0.0
H274 H 0.23114 0.8231 0.1918 0.0
H275 H 0.24914 0.71016 0.1442 0.0
C276 C 0.17631 0.66511 0.15071 0.0
C277 C 0.13516 0.65992 0.16192 0.0
C278 C 0.26282 0.82546 0.18428 0.0
C279 C 0.21828 0.74452 0.16604 0.0
C280 C 0.30503 0.86525 0.18961 0.0
C281 C 0.34682 0.86894 0.18076 0.0
C282 C 0.26225 0.78886 0.17006 0.0
C283 C 0.3447 0.83236 0.1657 0.0
C284 C 0.21778 0.70721 0.1527 0.0
C285 C 0.13695 0.69836 0.17458 0.0
N286 N 0.30315 0.79371 0.16101 0.0
N287 N 0.17782 0.7389 0.17641 0.0
H288 H 0.4529 0.13801 0.49541 0.0
H289 H 0.60378 0.4155 0.50274 0.0
H290 H 0.60247 0.21684 0.49562 0.0
H291 H 0.45475 0.33964 0.5111 0.0
H292 H 0.60256 0.34266 0.4952 0.0
H293 H 0.45153 0.21107 0.49637 0.0
C294 C 0.48539 0.17057 0.4954 0.0
C295 C 0.52784 0.17118 0.49563 0.0
C296 C 0.57003 0.34184 0.49855 0.0
C297 C 0.52652 0.25473 0.49675 0.0
C298 C 0.57071 0.38354 0.50283 0.0
C299 C 0.52934 0.38374 0.50774 0.0
C300 C 0.52767 0.29979 0.49922 0.0
C301 C 0.48752 0.34113 0.5075 0.0
C302 C 0.48459 0.21224 0.49604 0.0
C303 C 0.56886 0.21446 0.49568 0.0
N304 N 0.48776 0.30083 0.50347 0.0
N305 N 0.56714 0.2543 0.49633 0.0
H306 H 0.35521 0.40366 0.86463 0.0
H307 H 0.20879 0.53147 0.83856 0.0
H308 H 0.41385 0.54451 0.83504 0.0
H309 H 0.14655 0.3886 0.86489 0.0
H310 H 0.28432 0.53646 0.83756 0.0
H311 H 0.27866 0.39722 0.86574 0.0
C312 C 0.3521 0.43326 0.85848 0.0
C313 C 0.39113 0.47468 0.84974 0.0
C314 C 0.25418 0.50394 0.84351 0.0
C315 C 0.30365 0.46747 0.85084 0.0
C316 C 0.21095 0.50105 0.84404 0.0
C317 C 0.17121 0.45954 0.85181 0.0
C318 C 0.2579 0.46508 0.85087 0.0
C319 C 0.17624 0.42129 0.85873 0.0
C320 C 0.30835 0.42952 0.85904 0.0
C321 C 0.38489 0.51184 0.84192 0.0
N322 N 0.2188 0.425 0.85815 0.0
N323 N 0.3421 0.50732 0.84265 0.0
H324 H 0.91468 0.3507 0.14697 0.0
H325 H 0.64051 0.2284 0.17299 0.0
H326 H 0.84243 0.42347 0.16831 0.0
H327 H 0.71288 0.15137 0.1688 0.0
H328 H 0.71384 0.3001 0.16569 0.0
H329 H 0.84068 0.27717 0.14958 0.0
C330 C 0.88334 0.35129 0.15203 0.0
C331 C 0.8849 0.39336 0.15755 0.0
C332 C 0.71376 0.26753 0.16628 0.0
C333 C 0.80032 0.3096 0.16046 0.0
C334 C 0.6718 0.22649 0.17038 0.0
C335 C 0.6705 0.18375 0.17166 0.0
C336 C 0.75495 0.26605 0.16331 0.0
C337 C 0.71228 0.18356 0.16808 0.0
C338 C 0.84118 0.30933 0.1536 0.0
C339 C 0.84316 0.39199 0.16407 0.0
N340 N 0.75284 0.2241 0.16412 0.0
N341 N 0.80276 0.35093 0.16532 0.0
H342 H 0.0159 0.60968 0.07279 0.0
H343 H 0.03887 0.45473 0.95758 0.0
H344 H 0.0054 0.47706 0.08831 0.0
H345 H 0.02712 0.57607 0.94135 0.0
H346 H 0.03631 0.46729 0.00598 0.0
H347 H 0.02925 0.60253 0.0249 0.0
C348 C 0.01658 0.57914 0.06608 0.0
C349 C 0.00929 0.54378 0.08439 0.0
C350 C 0.03453 0.49127 0.9918 0.0
C351 C 0.02462 0.53535 0.02978 0.0
C352 C 0.03614 0.48422 0.96416 0.0
C353 C 0.03284 0.51419 0.94534 0.0
C354 C 0.02978 0.52864 0.0007 0.0
C355 C 0.02944 0.55187 0.95509 0.0
C356 C 0.02419 0.57505 0.03878 0.0
C357 C 0.01074 0.50503 0.07476 0.0
N358 N 0.02781 0.5579 0.98208 0.0
N359 N 0.01812 0.50177 0.04806 0.0
H360 H 0.58786 0.99964 0.42193 0.0
H361 H 0.52503 0.08541 0.2878 0.0
H362 H 0.51362 0.07479 0.4243 0.0
H363 H 0.53281 0.95988 0.29099 0.0
H364 H 0.52891 0.08879 0.33726 0.0
H365 H 0.57533 0.99032 0.37317 0.0
C366 C 0.56859 0.01384 0.41213 0.0
C367 C 0.55178 0.03803 0.42698 0.0
C368 C 0.52953 0.06045 0.32706 0.0
C369 C 0.53819 0.02841 0.37133 0.0
C370 C 0.5277 0.05868 0.29889 0.0
C371 C 0.52877 0.02239 0.28528 0.0
C372 C 0.53342 0.02624 0.34162 0.0
C373 C 0.53185 0.98844 0.30065 0.0
C374 C 0.56141 0.00848 0.38439 0.0
C375 C 0.52697 0.05576 0.41347 0.0
N376 N 0.53453 0.99144 0.32799 0.0
N377 N 0.52145 0.05118 0.38623 0.0
H378 H 0.42978 0.43825 0.76007 0.0
H379 H 0.57907 0.5214 0.62562 0.0
H380 H 0.5788 0.52187 0.76226 0.0
H381 H 0.44363 0.50817 0.63074 0.0
H382 H 0.57802 0.51163 0.67484 0.0
H383 H 0.43229 0.45416 0.71149 0.0
C384 C 0.46298 0.46014 0.75028 0.0
C385 C 0.50414 0.47877 0.76501 0.0
C386 C 0.54868 0.51105 0.66511 0.0
C387 C 0.50733 0.49626 0.70965 0.0
C388 C 0.54907 0.51625 0.63708 0.0
C389 C 0.51133 0.5155 0.62412 0.0
C390 C 0.50985 0.504 0.68013 0.0
C391 C 0.47349 0.50908 0.63995 0.0
C392 C 0.46438 0.46926 0.72266 0.0
C393 C 0.54632 0.50701 0.75152 0.0
N394 N 0.4735 0.50311 0.66712 0.0
N395 N 0.54692 0.51445 0.72443 0.0
H396 H 0.598 0.05908 0.57555 0.0
H397 H 0.48772 0.0183 0.72236 0.0
H398 H 0.46967 0.05666 0.5923 0.0
H399 H 0.63492 0.07604 0.71033 0.0
H400 H 0.47924 0.02594 0.67402 0.0
H401 H 0.61188 0.06079 0.62431 0.0
C402 C 0.57303 0.05937 0.5895 0.0
C403 C 0.5325 0.05742 0.58 0.0
C404 C 0.51344 0.03713 0.68195 0.0
C405 C 0.54772 0.05863 0.63546 0.0
C406 C 0.51829 0.03248 0.70953 0.0
C407 C 0.5621 0.04643 0.72037 0.0
C408 C 0.55254 0.05518 0.66495 0.0
C409 C 0.60052 0.06491 0.70278 0.0
C410 C 0.58096 0.06037 0.61724 0.0
C411 C 0.50127 0.05797 0.59882 0.0
N412 N 0.59481 0.06841 0.67583 0.0
N413 N 0.50926 0.05795 0.62567 0.0
H414 H 0.60474 0.56574 0.92914 0.0
H415 H 0.49495 0.36183 0.03875 0.0
H416 H 0.48878 0.43133 0.91036 0.0
H417 H 0.5511 0.50553 0.05959 0.0
H418 H 0.50496 0.38419 0.99062 0.0
H419 H 0.59807 0.54148 0.97659 0.0
C420 C 0.57813 0.53102 0.93499 0.0
C421 C 0.54722 0.50045 0.9159 0.0
C422 C 0.51498 0.41068 0.00581 0.0
C423 C 0.53986 0.47243 0.96984 0.0
C424 C 0.50947 0.39802 0.03314 0.0
C425 C 0.52161 0.43189 0.05299 0.0
C426 C 0.53395 0.45759 0.99848 0.0
C427 C 0.54047 0.47833 0.04482 0.0
C428 C 0.57428 0.5173 0.96201 0.0
C429 C 0.51334 0.45585 0.9245 0.0
N430 N 0.54631 0.4899 0.01816 0.0
N431 N 0.51065 0.44303 0.95088 0.0
H432 H 0.02222 0.45188 0.24629 0.0
H433 H 0.96628 0.58352 0.36087 0.0
H434 H 0.0125 0.57402 0.2293 0.0
H435 H 0.03504 0.50535 0.37733 0.0
H436 H 0.972 0.57255 0.31241 0.0
H437 H 0.01563 0.46281 0.29464 0.0
C438 C 0.01844 0.48083 0.25276 0.0
C439 C 0.01776 0.51205 0.23388 0.0
C440 C 0.98593 0.55797 0.32669 0.0
C441 C 0.00989 0.52449 0.2889 0.0
C442 C 0.98259 0.56409 0.35429 0.0
C443 C 0.00034 0.54542 0.37312 0.0
C444 C 0.00637 0.53229 0.31793 0.0
C445 C 0.02116 0.52058 0.3635 0.0
C446 C 0.01486 0.48713 0.28029 0.0
C447 C 0.01287 0.54902 0.24326 0.0
N448 N 0.02331 0.51445 0.33656 0.0
N449 N 0.00889 0.55414 0.27016 0.0
loop_
_geom_bond_atom_site_label_1
_geom_bond_atom_site_label_2
_geom_bond_distance
_geom_bond_site_symmetry_2
_ccdc_geom_bond_type
Dy0 O4 2.398 . S
Dy0 O5 2.491 . S
Dy0 O6 2.403 . S
Dy0 O7 2.664 . S
Dy0 O11 2.326 . S
Dy0 O15 2.310 . S
Dy0 O16 2.351 1_455 S
C1 O12 1.185 . S
C1 O13 1.355 . S
C2 O4 1.185 . S
C2 O5 1.355 . S
Dy3 O7 2.310 1_655 S
Dy3 O10 2.351 1_655 S
Dy3 O12 2.398 . S
Dy3 O13 2.491 . S
Dy3 O14 2.403 . S
Dy3 O15 2.664 1_655 S
Dy3 O17 2.326 . S
O4 Dy0 2.398 . S
O4 C2 1.185 . S
O5 Dy0 2.491 . S
O5 C2 1.355 . S
O6 Dy0 2.403 . S
O6 C8 1.254 . S
O7 Dy0 2.664 . S
O7 Dy3 2.310 1_455 S
O7 C8 1.268 . S
C8 O6 1.254 . S
C8 O7 1.268 . S
C9 O14 1.254 1_455 S
C9 O15 1.268 . S
O10 Dy3 2.351 1_455 S
O10 C18 1.249 . S
O11 Dy0 2.326 . S
O11 C18 1.267 . S
O12 C1 1.185 . S
O12 Dy3 2.398 . S
O13 C1 1.355 . S
O13 Dy3 2.491 . S
O14 Dy3 2.403 . S
O14 C9 1.254 1_655 S
O15 Dy0 2.310 . S
O15 Dy3 2.664 1_455 S
O15 C9 1.268 . S
O16 Dy0 2.351 1_655 S
O16 C19 1.249 . S
O17 Dy3 2.326 . S
O17 C19 1.267 . S
C18 O10 1.249 . S
C18 O11 1.267 . S
C19 O16 1.249 . S
C19 O17 1.267 . S
Dy20 O24 2.398 . S
Dy20 O25 2.491 . S
Dy20 O26 2.403 . S
Dy20 O27 2.664 1_565 S
Dy20 O31 2.326 . S
Dy20 O35 2.310 1_565 S
Dy20 O36 2.351 1_565 S
C21 O32 1.185 . S
C21 O33 1.355 . S
C22 O24 1.185 . S
C22 O25 1.355 . S
Dy23 O27 2.310 . S
Dy23 O30 2.351 1_545 S
Dy23 O32 2.398 . S
Dy23 O33 2.491 . S
Dy23 O34 2.403 . S
Dy23 O35 2.664 . S
Dy23 O37 2.326 . S
O24 Dy20 2.398 . S
O24 C22 1.185 . S
O25 Dy20 2.491 . S
O25 C22 1.355 . S
O26 Dy20 2.403 . S
O26 C28 1.254 1_565 S
O27 Dy20 2.664 1_545 S
O27 Dy23 2.310 . S
O27 C28 1.268 . S
C28 O26 1.254 1_545 S
C28 O27 1.268 . S
C29 O34 1.254 . S
C29 O35 1.268 . S
O30 Dy23 2.351 1_565 S
O30 C38 1.249 . S
O31 Dy20 2.326 . S
O31 C38 1.267 . S
O32 C21 1.185 . S
O32 Dy23 2.398 . S
O33 C21 1.355 . S
O33 Dy23 2.491 . S
O34 Dy23 2.403 . S
O34 C29 1.254 . S
O35 Dy20 2.310 1_545 S
O35 Dy23 2.664 . S
O35 C29 1.268 . S
O36 Dy20 2.351 1_545 S
O36 C39 1.249 . S
O37 Dy23 2.326 . S
O37 C39 1.267 . S
C38 O30 1.249 . S
C38 O31 1.267 . S
C39 O36 1.249 . S
C39 O37 1.267 . S
Dy40 O44 2.398 . S
Dy40 O45 2.491 . S
Dy40 O46 2.403 . S
Dy40 O47 2.664 . S
Dy40 O51 2.326 . S
Dy40 O55 2.310 . S
Dy40 O56 2.351 . S
C41 O52 1.185 . S
C41 O53 1.355 . S
C42 O44 1.185 . S
C42 O45 1.355 . S
Dy43 O47 2.310 . S
Dy43 O50 2.351 . S
Dy43 O52 2.398 . S
Dy43 O53 2.491 . S
Dy43 O54 2.403 . S
Dy43 O55 2.664 . S
Dy43 O57 2.326 . S
O44 Dy40 2.398 . S
O44 C42 1.185 . S
O45 Dy40 2.491 . S
O45 C42 1.355 . S
O46 Dy40 2.403 . S
O46 C48 1.254 . S
O47 Dy40 2.664 . S
O47 Dy43 2.310 . S
O47 C48 1.268 . S
C48 O46 1.254 . S
C48 O47 1.268 . S
C49 O54 1.254 . S
C49 O55 1.268 . S
O50 Dy43 2.351 . S
O50 C58 1.249 . S
O51 Dy40 2.326 . S
O51 C58 1.267 . S
O52 C41 1.185 . S
O52 Dy43 2.398 . S
O53 C41 1.355 . S
O53 Dy43 2.491 . S
O54 Dy43 2.403 . S
O54 C49 1.254 . S
O55 Dy40 2.310 . S
O55 Dy43 2.664 . S
O55 C49 1.268 . S
O56 Dy40 2.351 . S
O56 C59 1.249 . S
O57 Dy43 2.326 . S
O57 C59 1.267 . S
C58 O50 1.249 . S
C58 O51 1.267 . S
C59 O56 1.249 . S
C59 O57 1.267 . S
O60 Cd61 2.300 . S
O60 C67 1.275 1_545 S
Cd61 O60 2.300 . S
Cd61 O69 2.381 . S
Cd61 O70 2.378 . S
O62 Cd63 2.385 . S
O62 C67 1.255 . S
Cd63 O62 2.385 . S
Cd63 O64 2.317 . S
O64 Cd63 2.317 . S
O64 C65 1.232 . S
C65 O64 1.232 . S
C65 O66 1.218 . S
O66 C65 1.218 . S
C67 O60 1.275 1_565 S
C67 O62 1.255 . S
C68 O69 1.258 . S
C68 O70 1.256 . S
O69 Cd61 2.381 . S
O69 C68 1.258 . S
O70 Cd61 2.378 . S
O70 C68 1.256 . S
O71 Cd72 2.300 . S
O71 C78 1.275 . S
Cd72 O71 2.300 . S
Cd72 O80 2.381 . S
Cd72 O81 2.378 . S
O73 Cd74 2.385 . S
O73 C78 1.255 . S
Cd74 O73 2.385 . S
Cd74 O75 2.317 . S
O75 Cd74 2.317 . S
O75 C76 1.232 . S
C76 O75 1.232 . S
C76 O77 1.218 . S
O77 C76 1.218 . S
C78 O71 1.275 . S
C78 O73 1.255 . S
C79 O80 1.258 . S
C79 O81 1.256 . S
O80 Cd72 2.381 . S
O80 C79 1.258 . S
O81 Cd72 2.378 . S
O81 C79 1.256 . S
O82 Cd83 2.300 . S
O82 C89 1.275 . S
Cd83 O82 2.300 . S
Cd83 O91 2.381 . S
Cd83 O92 2.378 . S
O84 Cd85 2.385 1_455 S
O84 C89 1.255 . S
Cd85 O84 2.385 1_655 S
Cd85 O86 2.317 . S
O86 Cd85 2.317 . S
O86 C87 1.232 . S
C87 O86 1.232 . S
C87 O88 1.218 . S
O88 C87 1.218 . S
C89 O82 1.275 . S
C89 O84 1.255 . S
C90 O91 1.258 . S
C90 O92 1.256 . S
O91 Cd83 2.381 . S
O91 C90 1.258 . S
O92 Cd83 2.378 . S
O92 C90 1.256 . S
O93 Cd94 2.300 . S
O93 C100 1.289 . S
Cd94 O93 2.300 . S
Cd94 O102 2.381 . S
Cd94 O103 2.378 . S
O95 Cd96 2.385 . S
O95 C100 1.239 1_655 S
Cd96 O95 2.385 . S
Cd96 O97 2.317 . S
O97 Cd96 2.317 . S
O97 C98 1.232 . S
C98 O97 1.232 . S
C98 O99 1.218 . S
O99 C98 1.218 . S
C100 O93 1.289 . S
C100 O95 1.239 1_455 S
C101 O102 1.258 . S
C101 O103 1.256 . S
O102 Cd94 2.381 . S
O102 C101 1.258 . S
O103 Cd94 2.378 . S
O103 C101 1.256 . S
O104 Cd105 2.300 1_565 S
O104 C111 1.275 1_565 S
Cd105 O104 2.300 1_545 S
Cd105 O113 2.381 1_545 S
Cd105 O114 2.378 1_545 S
O106 Cd107 2.385 . S
O106 C111 1.255 . S
Cd107 O106 2.385 . S
Cd107 O108 2.317 . S
O108 Cd107 2.317 . S
O108 C109 1.232 . S
C109 O108 1.232 . S
C109 O110 1.218 . S
O110 C109 1.218 . S
C111 O104 1.275 1_545 S
C111 O106 1.255 . S
C112 O113 1.258 . S
C112 O114 1.256 . S
O113 Cd105 2.381 1_565 S
O113 C112 1.258 . S
O114 Cd105 2.378 1_565 S
O114 C112 1.256 . S
O115 Cd116 2.300 . S
O115 C122 1.275 . S
Cd116 O115 2.300 . S
Cd116 O124 2.381 . S
Cd116 O125 2.378 . S
O117 Cd118 2.385 . S
O117 C122 1.255 . S
Cd118 O117 2.385 . S
Cd118 O119 2.317 . S
O119 Cd118 2.317 . S
O119 C120 1.232 . S
C120 O119 1.232 . S
C120 O121 1.218 . S
O121 C120 1.218 . S
C122 O115 1.275 . S
C122 O117 1.255 . S
C123 O124 1.258 . S
C123 O125 1.256 . S
O124 Cd116 2.381 . S
O124 C123 1.258 . S
O125 Cd116 2.378 . S
O125 C123 1.256 . S
H126 C132 0.930 . S
H127 C136 0.930 . S
H128 C141 0.929 . S
H129 C139 0.929 . S
H130 C134 0.929 . S
H131 C140 0.929 . S
C132 H126 0.930 . S
C132 C133 1.367 . S
C132 C140 1.378 . S
C133 C132 1.367 . S
C133 C141 1.433 . S
C134 H130 0.929 . S
C134 C136 1.378 . S
C134 C138 1.350 . S
C135 C138 1.463 . S
C135 C140 1.350 . S
C135 N143 1.427 . S
C136 H127 0.930 . S
C136 C134 1.378 . S
C136 C137 1.367 . S
C137 C136 1.367 . S
C137 C139 1.433 . S
C138 C134 1.350 . S
C138 C135 1.463 . S
C138 N142 1.427 . S
C139 H129 0.929 . S
C139 C137 1.433 . S
C139 N142 1.384 . S
C140 H131 0.929 . S
C140 C132 1.378 . S
C140 C135 1.350 . S
C141 H128 0.929 . S
C141 C133 1.433 . S
C141 N143 1.384 . S
N142 C138 1.427 . S
N142 C139 1.384 . S
N143 C135 1.427 . S
N143 C141 1.384 . S
H144 C150 0.930 . S
H145 C154 0.930 . S
H146 C159 0.929 . S
H147 C157 0.929 . S
H148 C152 0.929 . S
H149 C158 0.929 . S
C150 H144 0.930 . S
C150 C151 1.367 . S
C150 C158 1.378 . S
C151 C150 1.367 . S
C151 C159 1.433 . S
C152 H148 0.929 . S
C152 C154 1.378 . S
C152 C156 1.350 . S
C153 C156 1.463 . S
C153 C158 1.350 . S
C153 N161 1.427 . S
C154 H145 0.930 . S
C154 C152 1.378 . S
C154 C155 1.367 . S
C155 C154 1.367 . S
C155 C157 1.433 . S
C156 C152 1.350 . S
C156 C153 1.463 . S
C156 N160 1.427 . S
C157 H147 0.929 . S
C157 C155 1.433 . S
C157 N160 1.384 . S
C158 H149 0.929 . S
C158 C150 1.378 . S
C158 C153 1.350 . S
C159 H146 0.929 . S
C159 C151 1.433 . S
C159 N161 1.384 . S
N160 C156 1.427 . S
N160 C157 1.384 . S
N161 C153 1.427 . S
N161 C159 1.384 . S
H162 C168 0.930 . S
H163 C172 0.930 . S
H164 C177 0.929 . S
H165 C175 0.929 . S
H166 C170 0.929 . S
H167 C176 0.929 . S
C168 H162 0.930 . S
C168 C169 1.367 . S
C168 C176 1.378 . S
C169 C168 1.367 . S
C169 C177 1.433 . S
C170 H166 0.929 . S
C170 C172 1.378 . S
C170 C174 1.350 . S
C171 C174 1.463 . S
C171 C176 1.350 . S
C171 N179 1.427 . S
C172 H163 0.930 . S
C172 C170 1.378 . S
C172 C173 1.367 . S
C173 C172 1.367 . S
C173 C175 1.433 . S
C174 C170 1.350 . S
C174 C171 1.463 . S
C174 N178 1.427 . S
C175 H165 0.929 . S
C175 C173 1.433 . S
C175 N178 1.384 . S
C176 H167 0.929 . S
C176 C168 1.378 . S
C176 C171 1.350 . S
C177 H164 0.929 . S
C177 C169 1.433 . S
C177 N179 1.384 . S
N178 C174 1.427 . S
N178 C175 1.384 . S
N179 C171 1.427 . S
N179 C177 1.384 . S
H180 C186 0.930 . S
H181 C190 0.930 . S
H182 C195 0.929 . S
H183 C193 0.929 . S
H184 C188 0.929 . S
H185 C194 0.929 . S
C186 H180 0.930 . S
C186 C187 1.367 . S
C186 C194 1.378 . S
C187 C186 1.367 . S
C187 C195 1.433 . S
C188 H184 0.929 . S
C188 C190 1.378 . S
C188 C192 1.350 . S
C189 C192 1.463 . S
C189 C194 1.350 . S
C189 N197 1.427 . S
C190 H181 0.930 . S
C190 C188 1.378 . S
C190 C191 1.367 . S
C191 C190 1.367 . S
C191 C193 1.433 . S
C192 C188 1.350 . S
C192 C189 1.463 . S
C192 N196 1.427 . S
C193 H183 0.929 . S
C193 C191 1.433 . S
C193 N196 1.384 . S
C194 H185 0.929 . S
C194 C186 1.378 . S
C194 C189 1.350 . S
C195 H182 0.929 . S
C195 C187 1.433 . S
C195 N197 1.384 . S
N196 C192 1.427 . S
N196 C193 1.384 . S
N197 C189 1.427 . S
N197 C195 1.384 . S
H198 C204 0.930 . S
H199 C208 0.930 . S
H200 C213 0.929 . S
H201 C211 0.929 . S
H202 C206 0.929 . S
H203 C212 0.929 . S
C204 H198 0.930 . S
C204 C205 1.367 . S
C204 C212 1.378 . S
C205 C204 1.367 . S
C205 C213 1.433 . S
C206 H202 0.929 . S
C206 C208 1.378 . S
C206 C210 1.350 . S
C207 C210 1.463 . S
C207 C212 1.350 . S
C207 N215 1.427 . S
C208 H199 0.930 . S
C208 C206 1.378 . S
C208 C209 1.367 . S
C209 C208 1.367 . S
C209 C211 1.433 . S
C210 C206 1.350 . S
C210 C207 1.463 . S
C210 N214 1.427 . S
C211 H201 0.929 . S
C211 C209 1.433 . S
C211 N214 1.384 . S
C212 H203 0.929 . S
C212 C204 1.378 . S
C212 C207 1.350 . S
C213 H200 0.929 . S
C213 C205 1.433 . S
C213 N215 1.384 . S
N214 C210 1.427 . S
N214 C211 1.384 . S
N215 C207 1.427 . S
N215 C213 1.384 . S
H216 C222 0.930 . S
H217 C226 0.930 . S
H218 C231 0.929 . S
H219 C229 0.929 . S
H220 C224 0.929 . S
H221 C230 0.929 . S
C222 H216 0.930 . S
C222 C223 1.367 . S
C222 C230 1.378 . S
C223 C222 1.367 . S
C223 C231 1.433 . S
C224 H220 0.929 . S
C224 C226 1.378 . S
C224 C228 1.350 . S
C225 C228 1.463 . S
C225 C230 1.350 . S
C225 N233 1.427 . S
C226 H217 0.930 . S
C226 C224 1.378 . S
C226 C227 1.367 . S
C227 C226 1.367 . S
C227 C229 1.433 . S
C228 C224 1.350 . S
C228 C225 1.463 . S
C228 N232 1.427 . S
C229 H219 0.929 . S
C229 C227 1.433 . S
C229 N232 1.384 . S
C230 H221 0.929 . S
C230 C222 1.378 . S
C230 C225 1.350 . S
C231 H218 0.929 . S
C231 C223 1.433 . S
C231 N233 1.384 . S
N232 C228 1.427 . S
N232 C229 1.384 . S
N233 C225 1.427 . S
N233 C231 1.384 . S
H234 C240 0.930 . S
H235 C244 0.930 . S
H236 C249 0.929 . S
H237 C247 0.929 . S
H238 C242 0.929 . S
H239 C248 0.929 . S
C240 H234 0.930 . S
C240 C241 1.367 . S
C240 C248 1.378 . S
C241 C240 1.367 . S
C241 C249 1.433 . S
C242 H238 0.929 . S
C242 C244 1.378 . S
C242 C246 1.350 . S
C243 C246 1.463 . S
C243 C248 1.350 . S
C243 N251 1.427 . S
C244 H235 0.930 . S
C244 C242 1.378 . S
C244 C245 1.367 . S
C245 C244 1.367 . S
C245 C247 1.433 . S
C246 C242 1.350 . S
C246 C243 1.463 . S
C246 N250 1.427 . S
C247 H237 0.929 . S
C247 C245 1.433 . S
C247 N250 1.384 . S
C248 H239 0.929 . S
C248 C240 1.378 . S
C248 C243 1.350 . S
C249 H236 0.929 . S
C249 C241 1.433 . S
C249 N251 1.384 . S
N250 C246 1.427 . S
N250 C247 1.384 . S
N251 C243 1.427 . S
N251 C249 1.384 . S
H252 C258 0.930 . S
H253 C262 0.930 . S
H254 C267 0.929 . S
H255 C265 0.929 . S
H256 C260 0.929 . S
H257 C266 0.929 . S
C258 H252 0.930 . S
C258 C259 1.367 . S
C258 C266 1.378 . S
C259 C258 1.367 . S
C259 C267 1.433 . S
C260 H256 0.929 . S
C260 C262 1.378 . S
C260 C264 1.350 . S
C261 C264 1.463 . S
C261 C266 1.350 . S
C261 N269 1.427 . S
C262 H253 0.930 . S
C262 C260 1.378 . S
C262 C263 1.367 . S
C263 C262 1.367 . S
C263 C265 1.433 . S
C264 C260 1.350 . S
C264 C261 1.463 . S
C264 N268 1.427 . S
C265 H255 0.929 . S
C265 C263 1.433 . S
C265 N268 1.384 . S
C266 H257 0.929 . S
C266 C258 1.378 . S
C266 C261 1.350 . S
C267 H254 0.929 . S
C267 C259 1.433 . S
C267 N269 1.384 . S
N268 C264 1.427 . S
N268 C265 1.384 . S
N269 C261 1.427 . S
N269 C267 1.384 . S
H270 C276 0.930 . S
H271 C280 0.930 . S
H272 C285 0.929 . S
H273 C283 0.929 . S
H274 C278 0.929 . S
H275 C284 0.929 . S
C276 H270 0.930 . S
C276 C277 1.367 . S
C276 C284 1.378 . S
C277 C276 1.367 . S
C277 C285 1.433 . S
C278 H274 0.929 . S
C278 C280 1.378 . S
C278 C282 1.350 . S
C279 C282 1.463 . S
C279 C284 1.350 . S
C279 N287 1.427 . S
C280 H271 0.930 . S
C280 C278 1.378 . S
C280 C281 1.367 . S
C281 C280 1.367 . S
C281 C283 1.433 . S
C282 C278 1.350 . S
C282 C279 1.463 . S
C282 N286 1.427 . S
C283 H273 0.929 . S
C283 C281 1.433 . S
C283 N286 1.384 . S
C284 H275 0.929 . S
C284 C276 1.378 . S
C284 C279 1.350 . S
C285 H272 0.929 . S
C285 C277 1.433 . S
C285 N287 1.384 . S
N286 C282 1.427 . S
N286 C283 1.384 . S
N287 C279 1.427 . S
N287 C285 1.384 . S
H288 C294 0.930 . S
H289 C298 0.930 . S
H290 C303 0.929 . S
H291 C301 0.929 . S
H292 C296 0.929 . S
H293 C302 0.929 . S
C294 H288 0.930 . S
C294 C295 1.367 . S
C294 C302 1.378 . S
C295 C294 1.367 . S
C295 C303 1.433 . S
C296 H292 0.929 . S
C296 C298 1.378 . S
C296 C300 1.350 . S
C297 C300 1.463 . S
C297 C302 1.350 . S
C297 N305 1.427 . S
C298 H289 0.930 . S
C298 C296 1.378 . S
C298 C299 1.367 . S
C299 C298 1.367 . S
C299 C301 1.433 . S
C300 C296 1.350 . S
C300 C297 1.463 . S
C300 N304 1.427 . S
C301 H291 0.929 . S
C301 C299 1.433 . S
C301 N304 1.384 . S
C302 H293 0.929 . S
C302 C294 1.378 . S
C302 C297 1.350 . S
C303 H290 0.929 . S
C303 C295 1.433 . S
C303 N305 1.384 . S
N304 C300 1.427 . S
N304 C301 1.384 . S
N305 C297 1.427 . S
N305 C303 1.384 . S
H306 C312 0.930 . S
H307 C316 0.930 . S
H308 C321 0.929 . S
H309 C319 0.929 . S
H310 C314 0.929 . S
H311 C320 0.929 . S
C312 H306 0.930 . S
C312 C313 1.367 . S
C312 C320 1.378 . S
C313 C312 1.367 . S
C313 C321 1.433 . S
C314 H310 0.929 . S
C314 C316 1.378 . S
C314 C318 1.350 . S
C315 C318 1.463 . S
C315 C320 1.350 . S
C315 N323 1.427 . S
C316 H307 0.930 . S
C316 C314 1.378 . S
C316 C317 1.367 . S
C317 C316 1.367 . S
C317 C319 1.433 . S
C318 C314 1.350 . S
C318 C315 1.463 . S
C318 N322 1.427 . S
C319 H309 0.929 . S
C319 C317 1.433 . S
C319 N322 1.384 . S
C320 H311 0.929 . S
C320 C312 1.378 . S
C320 C315 1.350 . S
C321 H308 0.929 . S
C321 C313 1.433 . S
C321 N323 1.384 . S
N322 C318 1.427 . S
N322 C319 1.384 . S
N323 C315 1.427 . S
N323 C321 1.384 . S
H324 C330 0.930 . S
H325 C334 0.930 . S
H326 C339 0.929 . S
H327 C337 0.929 . S
H328 C332 0.929 . S
H329 C338 0.929 . S
C330 H324 0.930 . S
C330 C331 1.367 . S
C330 C338 1.378 . S
C331 C330 1.367 . S
C331 C339 1.433 . S
C332 H328 0.929 . S
C332 C334 1.378 . S
C332 C336 1.350 . S
C333 C336 1.463 . S
C333 C338 1.350 . S
C333 N341 1.427 . S
C334 H325 0.930 . S
C334 C332 1.378 . S
C334 C335 1.367 . S
C335 C334 1.367 . S
C335 C337 1.433 . S
C336 C332 1.350 . S
C336 C333 1.463 . S
C336 N340 1.427 . S
C337 H327 0.929 . S
C337 C335 1.433 . S
C337 N340 1.384 . S
C338 H329 0.929 . S
C338 C330 1.378 . S
C338 C333 1.350 . S
C339 H326 0.929 . S
C339 C331 1.433 . S
C339 N341 1.384 . S
N340 C336 1.427 . S
N340 C337 1.384 . S
N341 C333 1.427 . S
N341 C339 1.384 . S
H342 C348 0.930 . S
H343 C352 0.930 . S
H344 C357 0.929 . S
H345 C355 0.929 . S
H346 C350 0.929 . S
H347 C356 0.929 . S
C348 H342 0.930 . S
C348 C349 1.367 1_655 S
C348 C356 1.378 . S
C349 C348 1.367 1_455 S
C349 C357 1.433 . S
C350 H346 0.929 . S
C350 C352 1.378 . S
C350 C354 1.350 1_556 S
C351 C354 1.463 . S
C351 C356 1.350 1_455 S
C351 N359 1.427 . S
C352 H343 0.930 . S
C352 C350 1.378 . S
C352 C353 1.367 . S
C353 C352 1.367 . S
C353 C355 1.433 1_455 S
C354 C350 1.350 1_554 S
C354 C351 1.463 . S
C354 N358 1.427 1_454 S
C355 H345 0.929 . S
C355 C353 1.433 1_655 S
C355 N358 1.384 . S
C356 H347 0.929 . S
C356 C348 1.378 . S
C356 C351 1.350 1_655 S
C357 H344 0.929 . S
C357 C349 1.433 . S
C357 N359 1.384 . S
N358 C354 1.427 1_656 S
N358 C355 1.384 . S
N359 C351 1.427 . S
N359 C357 1.384 . S
H360 C366 0.930 . S
H361 C370 0.930 . S
H362 C375 0.929 . S
H363 C373 0.929 . S
H364 C368 0.929 . S
H365 C374 0.929 . S
C366 H360 0.930 . S
C366 C367 1.367 1_565 S
C366 C374 1.378 . S
C367 C366 1.367 1_545 S
C367 C375 1.433 . S
C368 H364 0.929 . S
C368 C370 1.378 . S
C368 C372 1.350 . S
C369 C372 1.463 . S
C369 C374 1.350 1_545 S
C369 N377 1.427 . S
C370 H361 0.930 . S
C370 C368 1.378 . S
C370 C371 1.367 1_545 S
C371 C370 1.367 1_565 S
C371 C373 1.433 . S
C372 C368 1.350 . S
C372 C369 1.463 . S
C372 N376 1.427 1_545 S
C373 H363 0.929 . S
C373 C371 1.433 . S
C373 N376 1.384 . S
C374 H365 0.929 . S
C374 C366 1.378 . S
C374 C369 1.350 1_565 S
C375 H362 0.929 . S
C375 C367 1.433 . S
C375 N377 1.384 . S
N376 C372 1.427 1_565 S
N376 C373 1.384 . S
N377 C369 1.427 . S
N377 C375 1.384 . S
H378 C384 0.930 . S
H379 C388 0.930 . S
H380 C393 0.929 . S
H381 C391 0.929 . S
H382 C386 0.929 . S
H383 C392 0.929 . S
C384 H378 0.930 . S
C384 C385 1.367 . S
C384 C392 1.378 . S
C385 C384 1.367 . S
C385 C393 1.433 . S
C386 H382 0.929 . S
C386 C388 1.378 . S
C386 C390 1.350 . S
C387 C390 1.463 . S
C387 C392 1.350 . S
C387 N395 1.427 . S
C388 H379 0.930 . S
C388 C386 1.378 . S
C388 C389 1.367 . S
C389 C388 1.367 . S
C389 C391 1.433 . S
C390 C386 1.350 . S
C390 C387 1.463 . S
C390 N394 1.427 . S
C391 H381 0.929 . S
C391 C389 1.433 . S
C391 N394 1.384 . S
C392 H383 0.929 . S
C392 C384 1.378 . S
C392 C387 1.350 . S
C393 H380 0.929 . S
C393 C385 1.433 . S
C393 N395 1.384 . S
N394 C390 1.427 . S
N394 C391 1.384 . S
N395 C387 1.427 . S
N395 C393 1.384 . S
H396 C402 0.930 . S
H397 C406 0.930 . S
H398 C411 0.929 . S
H399 C409 0.929 1_565 S
H400 C404 0.929 . S
H401 C410 0.929 . S
C402 H396 0.930 . S
C402 C403 1.367 1_565 S
C402 C410 1.378 . S
C403 C402 1.367 1_545 S
C403 C411 1.433 . S
C404 H400 0.929 . S
C404 C406 1.378 . S
C404 C408 1.350 . S
C405 C408 1.463 . S
C405 C410 1.350 1_545 S
C405 N413 1.427 . S
C406 H397 0.930 . S
C406 C404 1.378 . S
C406 C407 1.367 . S
C407 C406 1.367 . S
C407 C409 1.433 . S
C408 C404 1.350 . S
C408 C405 1.463 . S
C408 N412 1.427 . S
C409 H399 0.929 1_545 S
C409 C407 1.433 . S
C409 N412 1.384 . S
C410 H401 0.929 . S
C410 C402 1.378 . S
C410 C405 1.350 1_565 S
C411 H398 0.929 . S
C411 C403 1.433 . S
C411 N413 1.384 . S
N412 C408 1.427 . S
N412 C409 1.384 . S
N413 C405 1.427 . S
N413 C411 1.384 . S
H414 C420 0.930 . S
H415 C424 0.930 . S
H416 C429 0.929 . S
H417 C427 0.929 . S
H418 C422 0.929 1_556 S
H419 C428 0.929 . S
C420 H414 0.930 . S
C420 C421 1.367 . S
C420 C428 1.378 . S
C421 C420 1.367 . S
C421 C429 1.433 . S
C422 H418 0.929 1_554 S
C422 C424 1.378 . S
C422 C426 1.350 1_554 S
C423 C426 1.463 . S
C423 C428 1.350 . S
C423 N431 1.427 . S
C424 H415 0.930 . S
C424 C422 1.378 . S
C424 C425 1.367 . S
C425 C424 1.367 . S
C425 C427 1.433 . S
C426 C422 1.350 1_556 S
C426 C423 1.463 . S
C426 N430 1.427 1_556 S
C427 H417 0.929 . S
C427 C425 1.433 . S
C427 N430 1.384 . S
C428 H419 0.929 . S
C428 C420 1.378 . S
C428 C423 1.350 . S
C429 H416 0.929 . S
C429 C421 1.433 . S
C429 N431 1.384 . S
N430 C426 1.427 1_554 S
N430 C427 1.384 . S
N431 C423 1.427 . S
N431 C429 1.384 . S
H432 C438 0.930 1_655 S
H433 C442 0.930 . S
H434 C447 0.929 . S
H435 C445 0.929 . S
H436 C440 0.929 . S
H437 C446 0.929 . S
C438 H432 0.930 1_455 S
C438 C439 1.367 . S
C438 C446 1.378 1_455 S
C439 C438 1.367 . S
C439 C447 1.433 . S
C440 H436 0.929 . S
C440 C442 1.378 . S
C440 C444 1.350 . S
C441 C444 1.463 . S
C441 C446 1.350 1_455 S
C441 N449 1.427 . S
C442 H433 0.930 . S
C442 C440 1.378 . S
C442 C443 1.367 1_455 S
C443 C442 1.367 1_655 S
C443 C445 1.433 . S
C444 C440 1.350 . S
C444 C441 1.463 . S
C444 N448 1.427 1_455 S
C445 H435 0.929 . S
C445 C443 1.433 . S
C445 N448 1.384 . S
C446 H437 0.929 . S
C446 C438 1.378 1_655 S
C446 C441 1.350 1_655 S
C447 H434 0.929 . S
C447 C439 1.433 . S
C447 N449 1.384 . S
N448 C444 1.427 1_655 S
N448 C445 1.384 . S
N449 C441 1.427 . S
N449 C447 1.384 . S
C133 C2 1.197 . S
C137 C120 1.018 . S
C151 C21 1.133 . S
C155 C98 0.987 . S
C169 C42 0.949 . S
C173 C112 0.930 . S
C187 C1 0.875 . S
C191 C123 0.883 . S
C209 C101 0.948 . S
C205 C22 0.951 . S
C227 C109 1.009 . S
C223 C41 1.134 . S
C241 C38 2.013 . S
C245 C76 1.737 . S
C259 C59 2.095 . S
C263 C87 1.804 . S
C277 C18 2.017 . S
C281 C65 1.743 . S
C299 C79 1.763 . S
C295 C39 1.818 . S
C317 C90 1.709 . S
C313 C58 1.751 . S
C331 C19 1.822 . S
C335 C68 1.773 . S
C353 C89 1.499 . S
C349 C9 1.506 . S
C367 C29 1.531 . S
C371 C67 1.507 . S
C385 C49 1.526 . S
C389 C78 1.509 . S
C407 C111 1.400 . S
C403 C28 1.423 . S
C425 C122 1.389 . S
C421 C48 1.422 . S
C439 C8 1.415 . S
C443 C100 1.384 1_655 S
