# Generated by pormake.
# Topology gar, (4,6)-cn, num edge types: 1
# Building blocks:
#     Node 0, Type 0, BuildingBlock: TATPOV_clean_sbu_0, # of connection points: 4
#     Node 1, Type 0, BuildingBlock: TATPOV_clean_sbu_0, # of connection points: 4
#     Node 2, Type 0, BuildingBlock: TATPOV_clean_sbu_0, # of connection points: 4
#     Node 3, Type 0, BuildingBlock: TATPOV_clean_sbu_0, # of connection points: 4
#     Node 4, Type 0, BuildingBlock: TATPOV_clean_sbu_0, # of connection points: 4
#     Node 5, Type 0, BuildingBlock: TATPOV_clean_sbu_0, # of connection points: 4
#     Node 6, Type 0, BuildingBlock: TATPOV_clean_sbu_0, # of connection points: 4
#     Node 7, Type 0, BuildingBlock: TATPOV_clean_sbu_0, # of connection points: 4
#     Node 8, Type 0, BuildingBlock: TATPOV_clean_sbu_0, # of connection points: 4
#     Node 9, Type 0, BuildingBlock: TATPOV_clean_sbu_0, # of connection points: 4
#     Node 10, Type 0, BuildingBlock: TATPOV_clean_sbu_0, # of connection points: 4
#     Node 11, Type 0, BuildingBlock: TATPOV_clean_sbu_0, # of connection points: 4
#     Node 12, Type 0, BuildingBlock: TATPOV_clean_sbu_0, # of connection points: 4
#     Node 13, Type 0, BuildingBlock: TATPOV_clean_sbu_0, # of connection points: 4
#     Node 14, Type 0, BuildingBlock: TATPOV_clean_sbu_0, # of connection points: 4
#     Node 15, Type 0, BuildingBlock: TATPOV_clean_sbu_0, # of connection points: 4
#     Node 16, Type 0, BuildingBlock: TATPOV_clean_sbu_0, # of connection points: 4
#     Node 17, Type 0, BuildingBlock: TATPOV_clean_sbu_0, # of connection points: 4
#     Node 18, Type 0, BuildingBlock: TATPOV_clean_sbu_0, # of connection points: 4
#     Node 19, Type 0, BuildingBlock: TATPOV_clean_sbu_0, # of connection points: 4
#     Node 20, Type 0, BuildingBlock: TATPOV_clean_sbu_0, # of connection points: 4
#     Node 21, Type 0, BuildingBlock: TATPOV_clean_sbu_0, # of connection points: 4
#     Node 22, Type 0, BuildingBlock: TATPOV_clean_sbu_0, # of connection points: 4
#     Node 23, Type 0, BuildingBlock: TATPOV_clean_sbu_0, # of connection points: 4
#     Node 24, Type 1, BuildingBlock: BETDIP_clean_sbu_0, # of connection points: 6
#     Node 25, Type 1, BuildingBlock: BETDIP_clean_sbu_0, # of connection points: 6
#     Node 26, Type 1, BuildingBlock: BETDIP_clean_sbu_0, # of connection points: 6
#     Node 27, Type 1, BuildingBlock: BETDIP_clean_sbu_0, # of connection points: 6
#     Node 28, Type 1, BuildingBlock: BETDIP_clean_sbu_0, # of connection points: 6
#     Node 29, Type 1, BuildingBlock: BETDIP_clean_sbu_0, # of connection points: 6
#     Node 30, Type 1, BuildingBlock: BETDIP_clean_sbu_0, # of connection points: 6
#     Node 31, Type 1, BuildingBlock: BETDIP_clean_sbu_0, # of connection points: 6
#     Node 32, Type 1, BuildingBlock: BETDIP_clean_sbu_0, # of connection points: 6
#     Node 33, Type 1, BuildingBlock: BETDIP_clean_sbu_0, # of connection points: 6
#     Node 34, Type 1, BuildingBlock: BETDIP_clean_sbu_0, # of connection points: 6
#     Node 35, Type 1, BuildingBlock: BETDIP_clean_sbu_0, # of connection points: 6
#     Node 36, Type 1, BuildingBlock: BETDIP_clean_sbu_0, # of connection points: 6
#     Node 37, Type 1, BuildingBlock: BETDIP_clean_sbu_0, # of connection points: 6
#     Node 38, Type 1, BuildingBlock: BETDIP_clean_sbu_0, # of connection points: 6
#     Node 39, Type 1, BuildingBlock: BETDIP_clean_sbu_0, # of connection points: 6
#     Edge 40, Type (0, 1), BuildingBlock: MIFKUJ_clean_linker_0, # of connection points: 2
#     Edge 41, Type (0, 1), BuildingBlock: MIFKUJ_clean_linker_0, # of connection points: 2
#     Edge 42, Type (0, 1), BuildingBlock: MIFKUJ_clean_linker_0, # of connection points: 2
#     Edge 43, Type (0, 1), BuildingBlock: MIFKUJ_clean_linker_0, # of connection points: 2
#     Edge 44, Type (0, 1), BuildingBlock: MIFKUJ_clean_linker_0, # of connection points: 2
#     Edge 45, Type (0, 1), BuildingBlock: MIFKUJ_clean_linker_0, # of connection points: 2
#     Edge 46, Type (0, 1), BuildingBlock: MIFKUJ_clean_linker_0, # of connection points: 2
#     Edge 47, Type (0, 1), BuildingBlock: MIFKUJ_clean_linker_0, # of connection points: 2
#     Edge 48, Type (0, 1), BuildingBlock: MIFKUJ_clean_linker_0, # of connection points: 2
#     Edge 49, Type (0, 1), BuildingBlock: MIFKUJ_clean_linker_0, # of connection points: 2
#     Edge 50, Type (0, 1), BuildingBlock: MIFKUJ_clean_linker_0, # of connection points: 2
#     Edge 51, Type (0, 1), BuildingBlock: MIFKUJ_clean_linker_0, # of connection points: 2
#     Edge 52, Type (0, 1), BuildingBlock: MIFKUJ_clean_linker_0, # of connection points: 2
#     Edge 53, Type (0, 1), BuildingBlock: MIFKUJ_clean_linker_0, # of connection points: 2
#     Edge 54, Type (0, 1), BuildingBlock: MIFKUJ_clean_linker_0, # of connection points: 2
#     Edge 55, Type (0, 1), BuildingBlock: MIFKUJ_clean_linker_0, # of connection points: 2
#     Edge 56, Type (0, 1), BuildingBlock: MIFKUJ_clean_linker_0, # of connection points: 2
#     Edge 57, Type (0, 1), BuildingBlock: MIFKUJ_clean_linker_0, # of connection points: 2
#     Edge 58, Type (0, 1), BuildingBlock: MIFKUJ_clean_linker_0, # of connection points: 2
#     Edge 59, Type (0, 1), BuildingBlock: MIFKUJ_clean_linker_0, # of connection points: 2
#     Edge 60, Type (0, 1), BuildingBlock: MIFKUJ_clean_linker_0, # of connection points: 2
#     Edge 61, Type (0, 1), BuildingBlock: MIFKUJ_clean_linker_0, # of connection points: 2
#     Edge 62, Type (0, 1), BuildingBlock: MIFKUJ_clean_linker_0, # of connection points: 2
#     Edge 63, Type (0, 1), BuildingBlock: MIFKUJ_clean_linker_0, # of connection points: 2
#     Edge 64, Type (0, 1), BuildingBlock: MIFKUJ_clean_linker_0, # of connection points: 2
#     Edge 65, Type (0, 1), BuildingBlock: MIFKUJ_clean_linker_0, # of connection points: 2
#     Edge 66, Type (0, 1), BuildingBlock: MIFKUJ_clean_linker_0, # of connection points: 2
#     Edge 67, Type (0, 1), BuildingBlock: MIFKUJ_clean_linker_0, # of connection points: 2
#     Edge 68, Type (0, 1), BuildingBlock: MIFKUJ_clean_linker_0, # of connection points: 2
#     Edge 69, Type (0, 1), BuildingBlock: MIFKUJ_clean_linker_0, # of connection points: 2
#     Edge 70, Type (0, 1), BuildingBlock: MIFKUJ_clean_linker_0, # of connection points: 2
#     Edge 71, Type (0, 1), BuildingBlock: MIFKUJ_clean_linker_0, # of connection points: 2
#     Edge 72, Type (0, 1), BuildingBlock: MIFKUJ_clean_linker_0, # of connection points: 2
#     Edge 73, Type (0, 1), BuildingBlock: MIFKUJ_clean_linker_0, # of connection points: 2
#     Edge 74, Type (0, 1), BuildingBlock: MIFKUJ_clean_linker_0, # of connection points: 2
#     Edge 75, Type (0, 1), BuildingBlock: MIFKUJ_clean_linker_0, # of connection points: 2
#     Edge 76, Type (0, 1), BuildingBlock: MIFKUJ_clean_linker_0, # of connection points: 2
#     Edge 77, Type (0, 1), BuildingBlock: MIFKUJ_clean_linker_0, # of connection points: 2
#     Edge 78, Type (0, 1), BuildingBlock: MIFKUJ_clean_linker_0, # of connection points: 2
#     Edge 79, Type (0, 1), BuildingBlock: MIFKUJ_clean_linker_0, # of connection points: 2
#     Edge 80, Type (0, 1), BuildingBlock: MIFKUJ_clean_linker_0, # of connection points: 2
#     Edge 81, Type (0, 1), BuildingBlock: MIFKUJ_clean_linker_0, # of connection points: 2
#     Edge 82, Type (0, 1), BuildingBlock: MIFKUJ_clean_linker_0, # of connection points: 2
#     Edge 83, Type (0, 1), BuildingBlock: MIFKUJ_clean_linker_0, # of connection points: 2
#     Edge 84, Type (0, 1), BuildingBlock: MIFKUJ_clean_linker_0, # of connection points: 2
#     Edge 85, Type (0, 1), BuildingBlock: MIFKUJ_clean_linker_0, # of connection points: 2
#     Edge 86, Type (0, 1), BuildingBlock: MIFKUJ_clean_linker_0, # of connection points: 2
#     Edge 87, Type (0, 1), BuildingBlock: MIFKUJ_clean_linker_0, # of connection points: 2
#     Edge 88, Type (0, 1), BuildingBlock: MIFKUJ_clean_linker_0, # of connection points: 2
#     Edge 89, Type (0, 1), BuildingBlock: MIFKUJ_clean_linker_0, # of connection points: 2
#     Edge 90, Type (0, 1), BuildingBlock: MIFKUJ_clean_linker_0, # of connection points: 2
#     Edge 91, Type (0, 1), BuildingBlock: MIFKUJ_clean_linker_0, # of connection points: 2
#     Edge 92, Type (0, 1), BuildingBlock: MIFKUJ_clean_linker_0, # of connection points: 2
#     Edge 93, Type (0, 1), BuildingBlock: MIFKUJ_clean_linker_0, # of connection points: 2
#     Edge 94, Type (0, 1), BuildingBlock: MIFKUJ_clean_linker_0, # of connection points: 2
#     Edge 95, Type (0, 1), BuildingBlock: MIFKUJ_clean_linker_0, # of connection points: 2
#     Edge 96, Type (0, 1), BuildingBlock: MIFKUJ_clean_linker_0, # of connection points: 2
#     Edge 97, Type (0, 1), BuildingBlock: MIFKUJ_clean_linker_0, # of connection points: 2
#     Edge 98, Type (0, 1), BuildingBlock: MIFKUJ_clean_linker_0, # of connection points: 2
#     Edge 99, Type (0, 1), BuildingBlock: MIFKUJ_clean_linker_0, # of connection points: 2
#     Edge 100, Type (0, 1), BuildingBlock: MIFKUJ_clean_linker_0, # of connection points: 2
#     Edge 101, Type (0, 1), BuildingBlock: MIFKUJ_clean_linker_0, # of connection points: 2
#     Edge 102, Type (0, 1), BuildingBlock: MIFKUJ_clean_linker_0, # of connection points: 2
#     Edge 103, Type (0, 1), BuildingBlock: MIFKUJ_clean_linker_0, # of connection points: 2
#     Edge 104, Type (0, 1), BuildingBlock: MIFKUJ_clean_linker_0, # of connection points: 2
#     Edge 105, Type (0, 1), BuildingBlock: MIFKUJ_clean_linker_0, # of connection points: 2
#     Edge 106, Type (0, 1), BuildingBlock: MIFKUJ_clean_linker_0, # of connection points: 2
#     Edge 107, Type (0, 1), BuildingBlock: MIFKUJ_clean_linker_0, # of connection points: 2
#     Edge 108, Type (0, 1), BuildingBlock: MIFKUJ_clean_linker_0, # of connection points: 2
#     Edge 109, Type (0, 1), BuildingBlock: MIFKUJ_clean_linker_0, # of connection points: 2
#     Edge 110, Type (0, 1), BuildingBlock: MIFKUJ_clean_linker_0, # of connection points: 2
#     Edge 111, Type (0, 1), BuildingBlock: MIFKUJ_clean_linker_0, # of connection points: 2
#     Edge 112, Type (0, 1), BuildingBlock: MIFKUJ_clean_linker_0, # of connection points: 2
#     Edge 113, Type (0, 1), BuildingBlock: MIFKUJ_clean_linker_0, # of connection points: 2
#     Edge 114, Type (0, 1), BuildingBlock: MIFKUJ_clean_linker_0, # of connection points: 2
#     Edge 115, Type (0, 1), BuildingBlock: MIFKUJ_clean_linker_0, # of connection points: 2
#     Edge 116, Type (0, 1), BuildingBlock: MIFKUJ_clean_linker_0, # of connection points: 2
#     Edge 117, Type (0, 1), BuildingBlock: MIFKUJ_clean_linker_0, # of connection points: 2
#     Edge 118, Type (0, 1), BuildingBlock: MIFKUJ_clean_linker_0, # of connection points: 2
#     Edge 119, Type (0, 1), BuildingBlock: MIFKUJ_clean_linker_0, # of connection points: 2
#     Edge 120, Type (0, 1), BuildingBlock: MIFKUJ_clean_linker_0, # of connection points: 2
#     Edge 121, Type (0, 1), BuildingBlock: MIFKUJ_clean_linker_0, # of connection points: 2
#     Edge 122, Type (0, 1), BuildingBlock: MIFKUJ_clean_linker_0, # of connection points: 2
#     Edge 123, Type (0, 1), BuildingBlock: MIFKUJ_clean_linker_0, # of connection points: 2
#     Edge 124, Type (0, 1), BuildingBlock: MIFKUJ_clean_linker_0, # of connection points: 2
#     Edge 125, Type (0, 1), BuildingBlock: MIFKUJ_clean_linker_0, # of connection points: 2
#     Edge 126, Type (0, 1), BuildingBlock: MIFKUJ_clean_linker_0, # of connection points: 2
#     Edge 127, Type (0, 1), BuildingBlock: MIFKUJ_clean_linker_0, # of connection points: 2
#     Edge 128, Type (0, 1), BuildingBlock: MIFKUJ_clean_linker_0, # of connection points: 2
#     Edge 129, Type (0, 1), BuildingBlock: MIFKUJ_clean_linker_0, # of connection points: 2
#     Edge 130, Type (0, 1), BuildingBlock: MIFKUJ_clean_linker_0, # of connection points: 2
#     Edge 131, Type (0, 1), BuildingBlock: MIFKUJ_clean_linker_0, # of connection points: 2
#     Edge 132, Type (0, 1), BuildingBlock: MIFKUJ_clean_linker_0, # of connection points: 2
#     Edge 133, Type (0, 1), BuildingBlock: MIFKUJ_clean_linker_0, # of connection points: 2
#     Edge 134, Type (0, 1), BuildingBlock: MIFKUJ_clean_linker_0, # of connection points: 2
#     Edge 135, Type (0, 1), BuildingBlock: MIFKUJ_clean_linker_0, # of connection points: 2
# Relax obj value: 0.163
# Max RMSD: 0.274
# Mean RMSD: 0.158
data_MOF--net-gar--node1-TATPOV_clean_sbu_0--node2-BETDIP_clean_sbu_0--edge1-MIFKUJ_clean_linker_0
_symmetry_space_group_name_H-M    P1
_symmetry_Int_Tables_number       1
_symmetry_cell_setting            triclinic
loop_
_symmetry_equiv_pos_as_xyz
'x, y, z'
_cell_length_a     79.446408
_cell_length_b     73.616223
_cell_length_c     71.672446
_cell_angle_alpha  96.955203
_cell_angle_beta   98.821236
_cell_angle_gamma 102.26948
loop_
_atom_site_label
_atom_site_type_symbol
_atom_site_fract_x
_atom_site_fract_y
_atom_site_fract_z
_atom_type_partial_charge
Zn0 Zn 0.99188 0.29379 0.41035 0.0
Zn1 Zn 0.02323 0.29398 0.38452 0.0
O2 O 0.03434 0.32151 0.39599 0.0
O3 O 0.01077 0.31334 0.40705 0.0
O4 O 0.03845 0.28666 0.36699 0.0
O5 O 1.00098 0.27389 0.421 0.0
O6 O 0.0209 0.27441 0.40214 0.0
C7 C 0.02307 0.32613 0.40492 0.0
C8 C 0.98374 0.28673 0.36825 0.0
O9 O 0.99995 0.29104 0.3673 0.0
O10 O 0.97819 0.28572 0.38391 0.0
C11 C 0.04459 0.29876 0.35713 0.0
O12 O 0.04076 0.3153 0.35886 0.0
C13 C 0.01306 0.26753 0.41485 0.0
Zn14 Zn 0.05117 0.72322 0.70062 0.0
Zn15 Zn 0.05287 0.75155 0.67863 0.0
O16 O 0.03105 0.75282 0.68875 0.0
O17 O 0.02795 0.72852 0.70427 0.0
O18 O 0.057 0.77213 0.66343 0.0
O19 O 0.07372 0.73802 0.71766 0.0
O20 O 0.07486 0.75853 0.69777 0.0
C21 C 0.02239 0.74204 0.69825 0.0
C22 C 0.05101 0.71176 0.66075 0.0
O23 O 0.05041 0.72866 0.65951 0.0
O24 O 0.05227 0.70607 0.67678 0.0
C25 C 0.04458 0.7765 0.65306 0.0
O26 O 0.02835 0.76725 0.65233 0.0
C27 C 0.08165 0.7528 0.71241 0.0
Zn28 Zn 0.49326 0.78514 0.89366 0.0
Zn29 Zn 0.51917 0.79091 0.87999 0.0
O30 O 0.52225 0.81631 0.89616 0.0
O31 O 0.49459 0.81221 0.89917 0.0
O32 O 0.54039 0.79171 0.86893 0.0
O33 O 0.50153 0.77255 0.91465 0.0
O34 O 0.51857 0.76839 0.89392 0.0
C35 C 0.50974 0.82275 0.90127 0.0
C36 C 0.48484 0.77583 0.85486 0.0
O37 O 0.49996 0.78662 0.85699 0.0
O38 O 0.47945 0.76981 0.86917 0.0
C39 C 0.54357 0.80026 0.8551 0.0
O40 O 0.53314 0.81059 0.84848 0.0
C41 C 0.51204 0.76385 0.90829 0.0
Zn42 Zn 0.55202 0.22593 0.20362 0.0
Zn43 Zn 0.55338 0.25351 0.17999 0.0
O44 O 0.53156 0.25483 0.18991 0.0
O45 O 0.53177 0.23539 0.21118 0.0
O46 O 0.55771 0.27387 0.16471 0.0
O47 O 0.57636 0.23925 0.21756 0.0
O48 O 0.57516 0.26081 0.19904 0.0
C49 C 0.52511 0.24715 0.20294 0.0
C50 C 0.54897 0.21329 0.16273 0.0
O51 O 0.55118 0.2306 0.16142 0.0
O52 O 0.54839 0.20769 0.17873 0.0
C53 C 0.54558 0.2768 0.1527 0.0
O54 O 0.52963 0.2662 0.15043 0.0
C55 C 0.58316 0.2547 0.21266 0.0
Zn56 Zn 0.07396 0.7835 0.10683 0.0
Zn57 Zn 0.05248 0.78273 0.13131 0.0
O58 O 0.05084 0.80661 0.11764 0.0
O59 O 0.06909 0.8067 0.09742 0.0
O60 O 0.0308 0.77911 0.14438 0.0
O61 O 0.06192 0.75836 0.09134 0.0
O62 O 0.0469 0.75618 0.11464 0.0
C63 C 0.05803 0.81397 0.10463 0.0
C64 C 0.09074 0.78454 0.14688 0.0
O65 O 0.07577 0.78538 0.15109 0.0
O66 O 0.09282 0.78388 0.12963 0.0
C67 C 0.02954 0.78005 0.16196 0.0
O68 O 0.04391 0.78463 0.17502 0.0
C69 C 0.05099 0.74869 0.09948 0.0
Zn70 Zn 0.48836 0.74913 0.43576 0.0
Zn71 Zn 0.51232 0.75298 0.41591 0.0
O72 O 0.51784 0.77859 0.43377 0.0
O73 O 0.49834 0.77373 0.45243 0.0
O74 O 0.5346 0.75576 0.4035 0.0
O75 O 0.49106 0.72587 0.44533 0.0
O76 O 0.51345 0.72943 0.43039 0.0
C77 C 0.51095 0.78453 0.44753 0.0
C78 C 0.47353 0.75112 0.39792 0.0
O79 O 0.48933 0.75205 0.39526 0.0
O80 O 0.46974 0.7491 0.41414 0.0
C81 C 0.53871 0.76598 0.39095 0.0
O82 O 0.52746 0.7751 0.38355 0.0
C83 C 0.50426 0.72051 0.44113 0.0
Zn84 Zn 0.57661 0.28714 0.60899 0.0
Zn85 Zn 0.55391 0.28297 0.63091 0.0
O86 O 0.551 0.30705 0.61782 0.0
O87 O 0.56907 0.30783 0.59734 0.0
O88 O 0.53286 0.27717 0.64483 0.0
O89 O 0.56887 0.261 0.59511 0.0
O90 O 0.54845 0.25735 0.61277 0.0
C91 C 0.55758 0.31439 0.60442 0.0
C92 C 0.59358 0.28869 0.64739 0.0
O93 O 0.57776 0.2853 0.65039 0.0
O94 O 0.59644 0.29165 0.631 0.0
C95 C 0.5279 0.2879 0.6571 0.0
O96 O 0.53734 0.30517 0.66302 0.0
C97 C 0.55594 0.25067 0.59994 0.0
Zn98 Zn 0.99002 0.25148 0.93806 0.0
Zn99 Zn 0.01209 0.25457 0.91444 0.0
O100 O 0.0187 0.2804 0.93217 0.0
O101 O 1.00213 0.27653 0.95398 0.0
O102 O 0.0317 0.25764 0.8979 0.0
O103 O 0.99459 0.22799 0.94624 0.0
O104 O 0.01494 0.23078 0.92839 0.0
C105 C 0.01391 0.28681 0.94732 0.0
C106 C 0.9723 0.25147 0.90011 0.0
O107 O 0.98772 0.25284 0.8962 0.0
O108 O 0.96992 0.25024 0.91701 0.0
C109 C 0.04731 0.26625 0.9061 0.0
O110 O 0.05019 0.27265 0.9245 0.0
C111 C 0.00686 0.22209 0.94013 0.0
Zn112 Zn 0.42506 0.01814 0.25666 0.0
Zn113 Zn 0.40379 0.03936 0.25647 0.0
O114 O 0.41981 0.04174 0.2865 0.0
O115 O 0.43865 0.02405 0.28342 0.0
O116 O 0.39075 0.06441 0.25669 0.0
O117 O 0.43672 0.02274 0.23421 0.0
O118 O 0.41646 0.0388 0.2296 0.0
C119 C 0.43237 0.03463 0.29424 0.0
C120 C 0.38889 0.9961 0.25293 0.0
O121 O 0.38479 0.01223 0.25368 0.0
O122 O 0.40475 0.99561 0.25308 0.0
C123 C 0.37459 0.06571 0.25623 0.0
O124 O 0.36285 0.04998 0.25553 0.0
C125 C 0.42885 0.03194 0.22353 0.0
Zn126 Zn 0.25045 0.18157 0.50654 0.0
Zn127 Zn 0.27143 0.1573 0.50896 0.0
O128 O 0.27527 0.17012 0.48433 0.0
O129 O 0.25898 0.19097 0.48396 0.0
O130 O 0.29076 0.14227 0.51346 0.0
O131 O 0.26147 0.19573 0.53284 0.0
O132 O 0.27757 0.17486 0.53495 0.0
C133 C 0.26976 0.18321 0.47682 0.0
C134 C 0.23121 0.14276 0.50488 0.0
O135 O 0.24646 0.1392 0.50723 0.0
O136 O 0.22963 0.15931 0.50333 0.0
C137 C 0.30391 0.14389 0.50499 0.0
O138 O 0.3047 0.15428 0.49135 0.0
C139 C 0.27296 0.18923 0.5423 0.0
Zn140 Zn 0.11644 0.05616 0.79555 0.0
Zn141 Zn 0.13367 0.02872 0.79246 0.0
O142 O 0.12241 0.02597 0.81671 0.0
O143 O 0.10563 0.04633 0.8167 0.0
O144 O 0.14521 0.00662 0.78979 0.0
O145 O 0.10388 0.04733 0.76845 0.0
O146 O 0.11679 0.0237 0.76675 0.0
C147 C 0.1112 0.03338 0.82383 0.0
C148 C 0.15326 0.07019 0.79792 0.0
O149 O 0.15302 0.05278 0.79395 0.0
O150 O 0.13955 0.07537 0.8008 0.0
C151 C 0.16071 0.00793 0.78663 0.0
O152 O 0.17039 0.02455 0.78578 0.0
C153 C 0.10624 0.03266 0.75909 0.0
Zn154 Zn 0.26904 0.80993 0.99149 0.0
Zn155 Zn 0.24342 0.84365 0.00788 0.0
O156 O 0.24009 0.8483 0.9801 0.0
O157 O 0.25751 0.83054 0.98647 0.0
O158 O 0.22664 0.85568 0.01875 0.0
O159 O 0.25534 0.79519 0.0095 0.0
O160 O 0.23858 0.81487 0.00616 0.0
C161 C 0.24915 0.83754 0.97412 0.0
C162 C 0.28253 0.85432 0.01291 0.0
O163 O 0.26888 0.85713 0.01907 0.0
O164 O 0.28251 0.83876 0.00257 0.0
C165 C 0.22889 0.87221 0.01473 0.0
O166 O 0.24238 0.87887 0.00693 0.0
C167 C 0.24559 0.80477 0.01665 0.0
Zn168 Zn 0.31573 0.35922 0.04007 0.0
Zn169 Zn 0.2956 0.38238 0.04091 0.0
O170 O 0.28806 0.36607 0.01414 0.0
O171 O 0.30386 0.34489 0.01447 0.0
O172 O 0.27653 0.39788 0.03912 0.0
O173 O 0.31034 0.34891 0.06303 0.0
O174 O 0.29218 0.36758 0.06465 0.0
C175 C 0.2921 0.35168 0.00598 0.0
C176 C 0.33568 0.39673 0.04191 0.0
O177 O 0.3207 0.40074 0.04194 0.0
O178 O 0.3369 0.37986 0.04175 0.0
C179 C 0.26067 0.38873 0.0328 0.0
O180 O 0.2574 0.37027 0.02899 0.0
C181 C 0.29912 0.35484 0.07122 0.0
Zn182 Zn 0.80756 0.20208 0.0264 0.0
Zn183 Zn 0.83031 0.18645 0.05063 0.0
O184 O 0.84106 0.19628 0.02903 0.0
O185 O 0.81649 0.17951 0.01446 0.0
O186 O 0.84575 0.1713 0.0607 0.0
O187 O 0.81184 0.21689 0.05407 0.0
O188 O 0.8333 0.20731 0.07021 0.0
C189 C 0.83122 0.18916 0.01324 0.0
C190 C 0.78969 0.1763 0.045 0.0
O191 O 0.80424 0.17126 0.04708 0.0
O192 O 0.78875 0.19193 0.03976 0.0
C193 C 0.84019 0.15383 0.06028 0.0
O194 O 0.82324 0.14647 0.05668 0.0
C195 C 0.82258 0.21773 0.06942 0.0
Zn196 Zn 0.13973 0.52055 0.28683 0.0
Zn197 Zn 0.15992 0.49843 0.28779 0.0
O198 O 0.14661 0.49911 0.31431 0.0
O199 O 0.12866 0.51786 0.30966 0.0
O200 O 0.1731 0.47331 0.28619 0.0
O201 O 0.12566 0.51457 0.26037 0.0
O202 O 0.14393 0.49611 0.25779 0.0
C203 C 0.13518 0.50769 0.32032 0.0
C204 C 0.17582 0.54205 0.29258 0.0
O205 O 0.17947 0.52568 0.29177 0.0
O206 O 0.15992 0.54284 0.29087 0.0
C207 C 0.18589 0.46923 0.29736 0.0
O208 O 0.19334 0.48143 0.31288 0.0
C209 C 0.13155 0.50335 0.24985 0.0
Zn210 Zn 0.81268 0.85759 0.5393 0.0
Zn211 Zn 0.79397 0.88228 0.54024 0.0
O212 O 0.78552 0.86512 0.51376 0.0
O213 O 0.79887 0.84192 0.51512 0.0
O214 O 0.77424 0.89709 0.5396 0.0
O215 O 0.80828 0.84841 0.56319 0.0
O216 O 0.79109 0.8682 0.5644 0.0
C217 C 0.78802 0.84957 0.50621 0.0
C218 C 0.83351 0.89497 0.53861 0.0
O219 O 0.81928 0.90016 0.54043 0.0
O220 O 0.8337 0.87775 0.53807 0.0
C221 C 0.76643 0.90069 0.52398 0.0
O222 O 0.77251 0.89705 0.50824 0.0
C223 C 0.79743 0.85524 0.57121 0.0
Zn224 Zn 0.9538 0.98201 0.25272 0.0
Zn225 Zn 0.93166 0.00537 0.25247 0.0
O226 O 0.94877 0.0117 0.27778 0.0
O227 O 0.9701 0.99718 0.27656 0.0
O228 O 0.9179 0.02571 0.25461 0.0
O229 O 0.95792 0.98701 0.22673 0.0
O230 O 0.94293 0.00902 0.2286 0.0
C231 C 0.96317 0.00865 0.28545 0.0
C232 C 0.91738 0.9645 0.25452 0.0
O233 O 0.91404 0.98019 0.25142 0.0
O234 O 0.93292 0.96237 0.25607 0.0
C235 C 0.91895 0.03586 0.27067 0.0
O236 O 0.92806 0.0324 0.28614 0.0
C237 C 0.95244 1.00022 0.22 0.0
Zn238 Zn 0.30916 0.70676 0.55038 0.0
Zn239 Zn 0.32924 0.68903 0.55767 0.0
O240 O 0.33474 0.69835 0.53328 0.0
O241 O 0.30671 0.69388 0.52359 0.0
O242 O 0.34562 0.6733 0.56288 0.0
O243 O 0.32845 0.7301 0.56176 0.0
O244 O 0.33563 0.70997 0.57944 0.0
C245 C 0.32187 0.69598 0.51974 0.0
C246 C 0.29084 0.67728 0.56033 0.0
O247 O 0.30421 0.67244 0.55544 0.0
O248 O 0.29128 0.69459 0.56456 0.0
C249 C 0.34067 0.65588 0.5565 0.0
O250 O 0.32416 0.64852 0.54876 0.0
C251 C 0.3353 0.72684 0.57774 0.0
Zn252 Zn 0.45321 0.48513 0.75353 0.0
Zn253 Zn 0.43161 0.5075 0.75237 0.0
O254 O 0.44721 0.5151 0.77859 0.0
O255 O 0.46878 0.50085 0.77744 0.0
O256 O 0.41882 0.52838 0.75326 0.0
O257 O 0.45865 0.48855 0.72781 0.0
O258 O 0.44383 0.51067 0.72885 0.0
C259 C 0.46169 0.51221 0.78628 0.0
C260 C 0.41722 0.4665 0.75456 0.0
O261 O 0.41376 0.48222 0.75171 0.0
O262 O 0.43287 0.4647 0.75614 0.0
C263 C 0.4075 0.52922 0.76387 0.0
O264 O 0.40261 0.51518 0.77306 0.0
C265 C 0.45349 0.5017 0.72067 0.0
Zn266 Zn 0.64042 0.02061 0.78683 0.0
Zn267 Zn 0.65967 0.99856 0.78786 0.0
O268 O 0.64617 0.99958 0.81458 0.0
O269 O 0.62832 0.01808 0.80861 0.0
O270 O 0.67296 0.97345 0.78627 0.0
O271 O 0.62667 0.01585 0.76067 0.0
O272 O 0.64363 0.99606 0.75765 0.0
C273 C 0.63457 0.00833 0.81994 0.0
C274 C 0.67595 0.04225 0.79259 0.0
O275 O 0.67943 0.02578 0.79148 0.0
O276 O 0.66014 0.04318 0.79136 0.0
C277 C 0.68519 0.96886 0.79784 0.0
O278 O 0.69182 0.9804 0.81401 0.0
C279 C 0.63185 0.00419 0.74991 0.0
Zn280 Zn 0.74938 0.68235 0.00745 0.0
Zn281 Zn 0.77136 0.66131 0.00921 0.0
O282 O 0.77474 0.67427 0.9845 0.0
O283 O 0.75606 0.6924 0.98479 0.0
O284 O 0.792 0.64842 0.01378 0.0
O285 O 0.75913 0.6979 0.03299 0.0
O286 O 0.77764 0.67962 0.03501 0.0
C287 C 0.76765 0.68654 0.97723 0.0
C288 C 0.73141 0.64408 0.00546 0.0
O289 O 0.74702 0.64141 0.00749 0.0
O290 O 0.72906 0.66041 0.00444 0.0
C291 C 0.79483 0.63364 0.00489 0.0
O292 O 0.78308 0.62384 0.99023 0.0
C293 C 0.77188 0.69319 0.04236 0.0
Zn294 Zn 0.92242 0.51412 0.75449 0.0
Zn295 Zn 0.90469 0.54002 0.75726 0.0
O296 O 0.9216 0.5416 0.78656 0.0
O297 O 0.93674 0.52034 0.7812 0.0
O298 O 0.89217 0.56544 0.75802 0.0
O299 O 0.9335 0.51878 0.73159 0.0
O300 O 0.91719 0.53952 0.73029 0.0
C301 C 0.93305 0.53246 0.793 0.0
C302 C 0.88586 0.49672 0.75221 0.0
O303 O 0.88455 0.51401 0.75491 0.0
O304 O 0.90054 0.49321 0.75066 0.0
C305 C 0.87582 0.56649 0.75587 0.0
O306 O 0.86396 0.5505 0.75292 0.0
C307 C 0.92778 0.53071 0.72276 0.0
Zn308 Zn 0.77538 0.3332 0.48616 0.0
Zn309 Zn 0.74297 0.34771 0.50027 0.0
O310 O 0.73509 0.34856 0.47291 0.0
O311 O 0.76284 0.35205 0.47534 0.0
O312 O 0.72647 0.35878 0.51217 0.0
O313 O 0.76693 0.31945 0.5077 0.0
O314 O 0.73925 0.32076 0.5027 0.0
C315 C 0.74779 0.34686 0.46501 0.0
C316 C 0.7825 0.36095 0.51806 0.0
O317 O 0.76741 0.36376 0.51225 0.0
O318 O 0.78547 0.34475 0.51402 0.0
C319 C 0.72791 0.3752 0.50802 0.0
O320 O 0.74049 0.38209 0.49906 0.0
C321 C 0.75155 0.31476 0.5113 0.0
Zn322 Zn 0.61392 0.55418 0.29192 0.0
Zn323 Zn 0.63341 0.52933 0.29322 0.0
O324 O 0.62088 0.52648 0.31657 0.0
O325 O 0.60687 0.54925 0.3166 0.0
O326 O 0.64478 0.50721 0.29081 0.0
O327 O 0.59823 0.54094 0.26749 0.0
O328 O 0.61797 0.5241 0.26657 0.0
C329 C 0.61103 0.53575 0.32406 0.0
C330 C 0.65093 0.56984 0.29283 0.0
O331 O 0.65287 0.55359 0.29575 0.0
O332 O 0.63582 0.57319 0.29033 0.0
C333 C 0.66103 0.50787 0.29517 0.0
O334 O 0.67195 0.524 0.30294 0.0
C335 C 0.60447 0.52885 0.25857 0.0
Tb336 Tb 0.01745 0.01243 0.01633 0.0
Tb337 Tb 0.05439 0.02861 0.03437 0.0
C338 C 0.98506 0.00754 0.00748 0.0
C339 C 0.97462 0.02167 0.00624 0.0
C340 C 0.97644 0.03596 0.02182 0.0
C341 C 0.9675 0.05013 0.02008 0.0
C342 C 0.95679 0.05045 0.00268 0.0
C343 C 0.95523 0.03636 0.98701 0.0
C344 C 0.96404 0.02202 0.98882 0.0
C345 C 0.03953 0.00896 0.99308 0.0
C346 C 0.03426 0.05674 0.01885 0.0
C347 C 0.08684 0.03452 0.04418 0.0
C348 C 0.0982 0.02129 0.04504 0.0
C349 C 0.0972 0.00774 0.02906 0.0
C350 C 0.10772 0.99495 0.03009 0.0
C351 C 0.11915 0.99537 0.04713 0.0
C352 C 0.1198 0.00838 0.06332 0.0
C353 C 0.10938 0.02139 0.06225 0.0
C354 C 0.03194 0.03199 0.05715 0.0
C355 C 0.03761 0.9843 0.03169 0.0
O356 O 0.99302 0.00668 0.02464 0.0
O357 O 0.99519 0.00703 0.99476 0.0
O358 O 0.04061 0.02296 0.00559 0.0
O359 O 0.02523 0.9965 0.99288 0.0
O360 O 0.01996 0.04312 0.01749 0.0
O361 O 0.05001 0.05381 0.02383 0.0
O362 O 0.07911 0.03578 0.02707 0.0
O363 O 0.07622 0.03357 0.05645 0.0
O364 O 0.03132 0.018 0.0449 0.0
O365 O 0.04604 0.04474 0.05738 0.0
O366 O 0.05194 0.99798 0.03353 0.0
O367 O 0.02182 0.987 0.02642 0.0
H368 H 0.98479 0.03627 0.03537 0.0
H369 H 0.96867 0.06055 0.03255 0.0
H370 H 0.94714 0.03636 0.9734 0.0
H371 H 0.96277 0.01133 0.97656 0.0
H372 H 0.08837 0.00701 0.01573 0.0
H373 H 0.10707 0.98482 0.01754 0.0
H374 H 0.12865 0.00876 0.07655 0.0
H375 H 0.11005 0.03154 0.07479 0.0
Tb376 Tb 0.28354 0.76271 0.26088 0.0
Tb377 Tb 0.27833 0.77945 0.29599 0.0
C378 C 0.28699 0.75516 0.22703 0.0
C379 C 0.29277 0.76832 0.21437 0.0
C380 C 0.28489 0.78345 0.21216 0.0
C381 C 0.29183 0.79732 0.20219 0.0
C382 C 0.30674 0.79635 0.19417 0.0
C383 C 0.31486 0.78143 0.19677 0.0
C384 C 0.30788 0.76747 0.20679 0.0
C385 C 0.30867 0.76194 0.28944 0.0
C386 C 0.29606 0.80762 0.2726 0.0
C387 C 0.27587 0.78759 0.33016 0.0
C388 C 0.26785 0.77563 0.34285 0.0
C389 C 0.27506 0.76085 0.34833 0.0
C390 C 0.26683 0.74881 0.35934 0.0
C391 C 0.25123 0.75128 0.36512 0.0
C392 C 0.24387 0.76589 0.35949 0.0
C393 C 0.25212 0.77799 0.34836 0.0
C394 C 0.25313 0.7802 0.26752 0.0
C395 C 0.2655 0.73422 0.28397 0.0
O396 O 0.2718 0.75527 0.23193 0.0
O397 O 0.29907 0.75526 0.24159 0.0
O398 O 0.30192 0.77576 0.28692 0.0
O399 O 0.30108 0.74809 0.27589 0.0
O400 O 0.28995 0.79327 0.25839 0.0
O401 O 0.29522 0.80483 0.29026 0.0
O402 O 0.28998 0.78385 0.32487 0.0
O403 O 0.26492 0.79044 0.31591 0.0
O404 O 0.25994 0.7664 0.26993 0.0
O405 O 0.2605 0.79397 0.28126 0.0
O406 O 0.26962 0.7489 0.29794 0.0
O407 O 0.26829 0.73651 0.26669 0.0
H408 H 0.27343 0.78471 0.21823 0.0
H409 H 0.28498 0.80837 0.20009 0.0
H410 H 0.32635 0.78035 0.19068 0.0
H411 H 0.31438 0.75614 0.20884 0.0
H412 H 0.28712 0.75857 0.34426 0.0
H413 H 0.2732 0.73809 0.36407 0.0
H414 H 0.23203 0.76821 0.36412 0.0
H415 H 0.24626 0.78921 0.34409 0.0
Tb416 Tb 0.54737 0.02011 0.51759 0.0
Tb417 Tb 0.51323 0.0135 0.52744 0.0
C418 C 0.57789 0.01755 0.51302 0.0
C419 C 0.58889 1.00338 0.51276 0.0
C420 C 0.59667 0.99821 0.52971 0.0
C421 C 0.60863 0.98662 0.52932 0.0
C422 C 0.61321 0.97982 0.51198 0.0
C423 C 0.60485 0.98444 0.49498 0.0
C424 C 0.59299 0.9961 0.49539 0.0
C425 C 0.5229 0.02481 0.48914 0.0
C426 C 0.52489 0.97849 0.51349 0.0
C427 C 0.48271 0.01548 0.53248 0.0
C428 C 0.4718 0.02956 0.53366 0.0
C429 C 0.4711 0.04237 0.52067 0.0
C430 C 0.45956 0.05441 0.52129 0.0
C431 C 0.44845 0.05398 0.53491 0.0
C432 C 0.4497 0.04159 0.54829 0.0
C433 C 0.46121 0.02956 0.54765 0.0
C434 C 0.53793 0.009 0.55573 0.0
C435 C 0.53589 0.05518 0.53202 0.0
O436 O 0.5741 0.02384 0.52933 0.0
O437 O 0.56457 0.01492 0.49903 0.0
O438 O 0.52114 0.012 0.49973 0.0
O439 O 0.53874 0.03511 0.49454 0.0
O440 O 0.54051 0.99001 0.51773 0.0
O441 O 0.51069 0.98482 0.51424 0.0
O442 O 0.48657 0.01028 0.51588 0.0
O443 O 0.49602 0.01767 0.54635 0.0
O444 O 0.53939 0.0218 0.54519 0.0
O445 O 0.52218 0.99847 0.55044 0.0
O446 O 0.52017 0.04378 0.52789 0.0
O447 O 0.54998 0.0487 0.53103 0.0
H448 H 0.59393 1.00356 0.54339 0.0
H449 H 0.61479 0.98364 0.54279 0.0
H450 H 0.6076 0.97925 0.48126 0.0
H451 H 0.58731 0.9998 0.48206 0.0
H452 H 0.47924 0.04286 0.50984 0.0
H453 H 0.45927 0.06397 0.51096 0.0
H454 H 0.44131 0.04062 0.55887 0.0
H455 H 0.4615 0.01986 0.55786 0.0
Tb456 Tb 0.26682 0.27081 0.77403 0.0
Tb457 Tb 0.30338 0.26402 0.77849 0.0
C458 C 0.23538 0.26971 0.77735 0.0
C459 C 0.22448 0.27506 0.79136 0.0
C460 C 0.22264 0.26614 0.80751 0.0
C461 C 0.21024 0.26947 0.81878 0.0
C462 C 0.19918 0.28151 0.814 0.0
C463 C 0.20175 0.29114 0.79848 0.0
C464 C 0.2142 0.28795 0.78734 0.0
C465 C 0.29135 0.30028 0.77152 0.0
C466 C 0.29061 0.2755 0.81554 0.0
C467 C 0.33377 0.26024 0.77526 0.0
C468 C 0.34556 0.25908 0.76112 0.0
C469 C 0.35139 0.27418 0.75159 0.0
C470 C 0.36426 0.27345 0.74028 0.0
C471 C 0.37161 0.25766 0.73822 0.0
C472 C 0.36522 0.2423 0.74716 0.0
C473 C 0.35239 0.24302 0.75847 0.0
C474 C 0.27797 0.23571 0.7815 0.0
C475 C 0.2807 0.2611 0.73738 0.0
O476 O 0.24311 0.25596 0.78007 0.0
O477 O 0.24524 0.28329 0.77095 0.0
O478 O 0.29298 0.28842 0.7826 0.0
O479 O 0.27523 0.2967 0.76269 0.0
O480 O 0.27488 0.27256 0.80481 0.0
O481 O 0.3049 0.27547 0.8082 0.0
O482 O 0.33013 0.27644 0.78039 0.0
O483 O 0.32018 0.24616 0.77345 0.0
O484 O 0.27733 0.24682 0.7696 0.0
O485 O 0.29339 0.2399 0.79213 0.0
O486 O 0.29644 0.26642 0.74833 0.0
O487 O 0.26627 0.25867 0.74477 0.0
H488 H 0.2303 0.25609 0.81106 0.0
H489 H 0.20871 0.26183 0.83065 0.0
H490 H 0.1938 0.30084 0.79459 0.0
H491 H 0.2153 0.29508 0.77506 0.0
H492 H 0.34637 0.28674 0.75325 0.0
H493 H 0.36868 0.28543 0.73338 0.0
H494 H 0.37062 0.22997 0.74605 0.0
H495 H 0.34823 0.23122 0.76571 0.0
Tb496 Tb 0.03152 0.03933 0.52601 0.0
Tb497 Tb 0.03507 0.99641 0.51719 0.0
C498 C 0.03844 0.07394 0.5271 0.0
C499 C 0.03086 0.08525 0.51416 0.0
C500 C 0.03991 0.09163 0.49996 0.0
C501 C 0.03218 0.10063 0.48627 0.0
C502 C 0.01539 0.10361 0.48672 0.0
C503 C 0.00635 0.09742 0.50096 0.0
C504 C 0.01402 0.08824 0.51458 0.0
C505 C 1.00118 0.01439 0.5246 0.0
C506 C 0.02126 0.01632 0.48361 0.0
C507 C 0.03037 0.96203 0.51701 0.0
C508 C 0.03853 0.95212 0.53108 0.0
C509 C 0.03814 0.95678 0.55061 0.0
C510 C 0.04559 0.94721 0.56393 0.0
C511 C 0.0535 0.93279 0.55797 0.0
C512 C 0.05475 0.92879 0.53863 0.0
C513 C 0.04729 0.93844 0.52524 0.0
C514 C 0.06495 0.02231 0.51891 0.0
C515 C 0.04551 0.01935 0.5596 0.0
O516 O 0.04742 0.06304 0.51931 0.0
O517 O 0.02816 0.06545 0.53775 0.0
O518 O 0.01583 0.01158 0.52192 0.0
O519 O 1.00348 0.03258 0.52823 0.0
O520 O 0.02515 0.03287 0.49493 0.0
O521 O 0.02264 1.00013 0.48929 0.0
O522 O 0.01989 0.97194 0.52328 0.0
O523 O 0.04085 0.97096 0.50683 0.0
O524 O 0.05003 0.02401 0.52112 0.0
O525 O 0.06357 0.00429 0.51555 0.0
O526 O 0.0417 1.0029 0.54817 0.0
O527 O 0.04371 0.03539 0.55388 0.0
H528 H 0.0529 0.08949 0.49931 0.0
H529 H 0.03955 0.10575 0.47567 0.0
H530 H 0.99343 0.09978 0.50158 0.0
H531 H 0.00668 0.08336 0.52529 0.0
H532 H 0.03179 0.96755 0.55567 0.0
H533 H 0.04462 0.95063 0.57881 0.0
H534 H 0.06068 0.91758 0.53371 0.0
H535 H 0.04801 0.93493 0.5103 0.0
Tb536 Tb 0.29054 0.7495 0.77094 0.0
Tb537 Tb 0.28754 0.79153 0.77859 0.0
C538 C 0.29551 0.71825 0.75862 0.0
C539 C 0.30685 0.70646 0.7663 0.0
C540 C 0.3171 0.69899 0.75458 0.0
C541 C 0.32784 0.68761 0.76143 0.0
C542 C 0.32834 0.68342 0.78004 0.0
C543 C 0.31823 0.69095 0.7919 0.0
C544 C 0.30767 0.7026 0.78515 0.0
C545 C 0.27831 0.75917 0.80096 0.0
C546 C 0.31962 0.77868 0.80054 0.0
C547 C 0.28369 0.82397 0.78918 0.0
C548 C 0.27099 0.83516 0.78297 0.0
C549 C 0.25644 0.8353 0.79189 0.0
C550 C 0.24485 0.84647 0.78671 0.0
C551 C 0.24761 0.85788 0.77257 0.0
C552 C 0.26201 0.85755 0.76343 0.0
C553 C 0.27358 0.84632 0.76858 0.0
C554 C 0.29976 0.78104 0.74824 0.0
C555 C 0.25746 0.76217 0.75081 0.0
O556 O 0.30362 0.73408 0.75403 0.0
O557 O 0.28259 0.72018 0.76751 0.0
O558 O 0.27579 0.76492 0.78528 0.0
O559 O 0.28728 0.74638 0.80009 0.0
O560 O 0.31515 0.76213 0.78935 0.0
O561 O 0.31026 0.79156 0.79986 0.0
O562 O 0.27773 0.8093 0.79696 0.0
O563 O 0.29425 0.8205 0.77754 0.0
O564 O 0.30245 0.77595 0.7642 0.0
O565 O 0.29036 0.79338 0.74908 0.0
O566 O 0.26191 0.77848 0.76241 0.0
O567 O 0.26702 0.74945 0.75067 0.0
H568 H 0.3167 0.70185 0.74005 0.0
H569 H 0.33543 0.68167 0.75203 0.0
H570 H 0.31838 0.68766 0.80625 0.0
H571 H 0.30001 0.70836 0.79458 0.0
H572 H 0.25414 0.82701 0.80315 0.0
H573 H 0.23406 0.84666 0.79426 0.0
H574 H 0.26442 0.86609 0.7524 0.0
H575 H 0.28468 0.8466 0.76143 0.0
Tb576 Tb 0.51187 0.0246 0.00428 0.0
Tb577 Tb 0.54485 0.03042 0.03417 0.0
C578 C 0.48213 0.01032 0.98461 0.0
C579 C 0.46473 0.00396 0.9895 0.0
C580 C 0.46167 0.98996 0.00109 0.0
C581 C 0.44517 0.98416 0.0057 0.0
C582 C 0.43143 0.99227 0.99887 0.0
C583 C 0.43451 0.00642 0.98748 0.0
C584 C 0.45106 0.01224 0.98285 0.0
C585 C 0.52698 0.05922 0.01944 0.0
C586 C 0.50942 0.02381 0.04998 0.0
C587 C 0.57435 0.04638 0.05316 0.0
C588 C 0.59167 0.05095 0.0478 0.0
C589 C 0.59997 0.06991 0.04875 0.0
C590 C 0.61557 0.07475 0.04204 0.0
C591 C 0.62324 0.0607 0.03445 0.0
C592 C 0.61517 0.04169 0.03381 0.0
C593 C 0.59937 0.03682 0.0403 0.0
C594 C 0.52982 0.99577 0.01955 0.0
C595 C 0.54766 0.02905 0.98837 0.0
O596 O 0.49367 1.0005 0.98931 0.0
O597 O 0.48884 0.02852 0.98839 0.0
O598 O 0.52529 0.045 0.02752 0.0
O599 O 0.51877 0.05461 0.0018 0.0
O600 O 0.50132 0.01994 0.03154 0.0
O601 O 0.52677 0.02966 0.05444 0.0
O602 O 0.56325 0.05555 0.04556 0.0
O603 O 0.5672 0.0285 0.05278 0.0
O604 O 0.53122 0.00988 0.01127 0.0
O605 O 0.53853 1.00064 0.03702 0.0
O606 O 0.55563 0.03167 0.00676 0.0
O607 O 0.53024 0.02556 0.98383 0.0
H608 H 0.47196 0.98335 0.00653 0.0
H609 H 0.44304 0.97294 0.01418 0.0
H610 H 0.42411 0.01288 0.98208 0.0
H611 H 0.45318 0.02317 0.97402 0.0
H612 H 0.59424 0.08101 0.05441 0.0
H613 H 0.62179 0.08953 0.04308 0.0
H614 H 0.62098 0.03068 0.02813 0.0
H615 H 0.59314 0.02204 0.03922 0.0
Tb616 Tb 0.26369 0.25461 0.26694 0.0
Tb617 Tb 0.29759 0.28057 0.27793 0.0
C618 C 0.23329 0.23736 0.26816 0.0
C619 C 0.21776 0.24393 0.27204 0.0
C620 C 0.21764 0.2536 0.29018 0.0
C621 C 0.20297 0.2599 0.29373 0.0
C622 C 0.18817 0.25676 0.27923 0.0
C623 C 0.18834 0.24731 0.26104 0.0
C624 C 0.20303 0.24091 0.25749 0.0
C625 C 0.27627 0.26748 0.23802 0.0
C626 C 0.26575 0.29999 0.27931 0.0
C627 C 0.32777 0.29792 0.27614 0.0
C628 C 0.34298 0.2911 0.2717 0.0
C629 C 0.34792 0.2931 0.25396 0.0
C630 C 0.36106 0.28504 0.24848 0.0
C631 C 0.36958 0.27496 0.26073 0.0
C632 C 0.36492 0.27321 0.27864 0.0
C633 C 0.35165 0.28118 0.28408 0.0
C634 C 0.28556 0.2676 0.30712 0.0
C635 C 0.29565 0.23529 0.26565 0.0
O636 O 0.2464 0.2408 0.28258 0.0
O637 O 0.23841 0.24073 0.25214 0.0
O638 O 0.2769 0.27668 0.25423 0.0
O639 O 0.26766 0.25024 0.23734 0.0
O640 O 0.25604 0.28224 0.27484 0.0
O641 O 0.28303 0.303 0.2809 0.0
O642 O 0.31452 0.29438 0.26184 0.0
O643 O 0.32287 0.29469 0.29229 0.0
O644 O 0.28438 0.25846 0.29072 0.0
O645 O 0.2945 0.28469 0.30777 0.0
O646 O 0.30519 0.25313 0.26903 0.0
O647 O 0.27847 0.23224 0.26515 0.0
H648 H 0.22881 0.25623 0.30173 0.0
H649 H 0.20308 0.26684 0.30799 0.0
H650 H 0.17712 0.24487 0.24958 0.0
H651 H 0.20288 0.2336 0.24339 0.0
H652 H 0.34138 0.30062 0.24416 0.0
H653 H 0.3647 0.28689 0.23475 0.0
H654 H 0.37136 0.26548 0.28828 0.0
H655 H 0.34802 0.27927 0.2978 0.0
Tb656 Tb 0.53166 0.53652 0.02452 0.0
Tb657 Tb 0.53638 0.49882 0.01846 0.0
C658 C 0.53263 0.57075 0.03101 0.0
C659 C 0.52656 0.58254 0.01756 0.0
C660 C 0.53568 0.58721 0.00281 0.0
C661 C 0.52895 0.59686 0.98906 0.0
C662 C 0.51299 0.60195 0.98978 0.0
C663 C 0.50376 0.59705 0.00433 0.0
C664 C 0.51055 0.58754 0.01819 0.0
C665 C 0.50216 0.5103 0.02024 0.0
C666 C 0.52393 0.51713 0.98299 0.0
C667 C 0.53523 0.46443 0.01184 0.0
C668 C 0.53895 0.45176 0.0253 0.0
C669 C 0.53295 0.45284 0.04275 0.0
C670 C 0.53772 0.44185 0.05618 0.0
C671 C 0.5487 0.42974 0.05249 0.0
C672 C 0.55482 0.42882 0.03509 0.0
C673 C 0.54998 0.43979 0.02159 0.0
C674 C 0.56574 0.52532 0.02241 0.0
C675 C 0.54407 0.51839 0.05984 0.0
O676 O 0.54622 0.56432 0.02779 0.0
O677 O 0.52027 0.55784 0.03505 0.0
O678 O 0.51683 0.5101 0.02984 0.0
O679 O 0.50369 0.52569 0.013 0.0
O680 O 0.52952 0.53364 0.99396 0.0
O681 O 0.52348 0.50133 0.98998 0.0
O682 O 0.52133 0.47106 0.01298 0.0
O683 O 0.54879 0.47744 0.01049 0.0
O684 O 0.55098 0.52517 0.01289 0.0
O685 O 0.56446 0.51002 0.02981 0.0
O686 O 0.53787 0.50186 0.04903 0.0
O687 O 0.54521 0.53411 0.05263 0.0
H688 H 0.54798 0.58339 0.00179 0.0
H689 H 0.53652 0.60082 0.97822 0.0
H690 H 0.49137 0.60077 0.00511 0.0
H691 H 0.50316 0.58386 0.02925 0.0
H692 H 0.52472 0.4623 0.04614 0.0
H693 H 0.53284 0.44291 0.06947 0.0
H694 H 0.56307 0.41937 0.03172 0.0
H695 H 0.55496 0.43906 0.00834 0.0
Tb696 Tb 0.78843 0.248 0.27474 0.0
Tb697 Tb 0.78867 0.29112 0.27898 0.0
C698 C 0.79106 0.21584 0.26222 0.0
C699 C 0.80118 0.20228 0.26769 0.0
C700 C 0.80626 0.19141 0.25317 0.0
C701 C 0.81578 0.17821 0.25758 0.0
C702 C 0.82038 0.17564 0.27664 0.0
C703 C 0.81564 0.18687 0.29131 0.0
C704 C 0.80604 0.20015 0.28685 0.0
C705 C 0.77902 0.26221 0.30495 0.0
C706 C 0.81898 0.27866 0.30209 0.0
C707 C 0.7819 0.32303 0.2816 0.0
C708 C 0.76759 0.33248 0.27622 0.0
C709 C 0.75437 0.33305 0.28714 0.0
C710 C 0.74255 0.34441 0.28333 0.0
C711 C 0.74394 0.35545 0.26873 0.0
C712 C 0.75667 0.35435 0.2574 0.0
C713 C 0.76833 0.34292 0.26106 0.0
C714 C 0.80816 0.27829 0.25653 0.0
C715 C 0.75722 0.26066 0.25197 0.0
O716 O 0.80012 0.23125 0.25766 0.0
O717 O 0.77935 0.2189 0.27259 0.0
O718 O 0.77588 0.26658 0.28864 0.0
O719 O 0.7866 0.24818 0.30459 0.0
O720 O 0.81432 0.26207 0.29072 0.0
O721 O 0.80941 0.29132 0.30221 0.0
O722 O 0.78087 0.3126 0.2952 0.0
O723 O 0.7883 0.31574 0.26747 0.0
O724 O 0.79348 0.2703 0.2593 0.0
O725 O 0.81202 0.2953 0.26582 0.0
O726 O 0.7645 0.27854 0.25903 0.0
O727 O 0.7637 0.24639 0.25656 0.0
H728 H 0.80287 0.19314 0.23837 0.0
H729 H 0.81975 0.17016 0.24605 0.0
H730 H 0.81916 0.18522 0.30612 0.0
H731 H 0.80239 0.20867 0.29828 0.0
H732 H 0.75355 0.32534 0.29904 0.0
H733 H 0.73292 0.3453 0.29237 0.0
H734 H 0.75799 0.36287 0.24616 0.0
H735 H 0.77845 0.34291 0.2525 0.0
Tb736 Tb 0.01125 0.5231 0.50371 0.0
Tb737 Tb 0.0446 0.52959 0.53292 0.0
C738 C 0.98209 0.50926 0.48259 0.0
C739 C 0.96404 0.50394 0.48548 0.0
C740 C 0.95412 0.48591 0.47725 0.0
C741 C 0.938 0.47909 0.48217 0.0
C742 C 0.93159 0.4903 0.49532 0.0
C743 C 0.94097 0.5088 0.50271 0.0
C744 C 0.95726 0.51558 0.49792 0.0
C745 C 0.02668 0.55819 0.51751 0.0
C746 C 0.00934 0.52381 0.54949 0.0
C747 C 0.07462 0.54395 0.55182 0.0
C748 C 0.09174 0.54942 0.54611 0.0
C749 C 0.10009 0.56857 0.54893 0.0
C750 C 0.11543 0.57447 0.54202 0.0
C751 C 0.12279 0.56131 0.53227 0.0
C752 C 0.1147 0.54207 0.52978 0.0
C753 C 0.09917 0.53614 0.53653 0.0
C754 C 0.0284 0.4946 0.51987 0.0
C755 C 0.04669 0.52703 0.4874 0.0
O756 O 0.9923 0.49911 0.48996 0.0
O757 O 0.98957 0.52729 0.48564 0.0
O758 O 0.0252 0.54443 0.52627 0.0
O759 O 0.01819 0.55279 0.50006 0.0
O760 O 1.00091 0.51917 0.53116 0.0
O761 O 0.02672 0.52994 0.55351 0.0
O762 O 0.06349 0.55384 0.54611 0.0
O763 O 0.06735 0.52589 0.54959 0.0
O764 O 0.03028 0.50814 0.51082 0.0
O765 O 0.0378 0.50014 0.53691 0.0
O766 O 0.05494 0.53286 0.50556 0.0
O767 O 0.02937 0.52078 0.48345 0.0
H768 H 0.95925 0.47676 0.46775 0.0
H769 H 0.93082 0.4648 0.47627 0.0
H770 H 0.93616 0.51755 0.51293 0.0
H771 H 0.96483 0.52952 0.50455 0.0
H772 H 0.09458 0.57905 0.55622 0.0
H773 H 0.12167 0.58936 0.54453 0.0
H774 H 0.12025 0.53169 0.52242 0.0
H775 H 0.0929 0.52127 0.534 0.0
Tb776 Tb 0.76621 0.77042 0.27477 0.0
Tb777 Tb 0.80352 0.76467 0.27974 0.0
C778 C 0.73496 0.77002 0.27842 0.0
C779 C 0.72414 0.77488 0.29273 0.0
C780 C 0.72143 0.76459 0.30779 0.0
C781 C 0.70911 0.76769 0.31926 0.0
C782 C 0.6991 0.78105 0.31586 0.0
C783 C 0.70253 0.79194 0.30142 0.0
C784 C 0.71482 0.78887 0.29003 0.0
C785 C 0.79056 0.79929 0.27064 0.0
C786 C 0.79075 0.77783 0.31617 0.0
C787 C 0.83479 0.76524 0.27626 0.0
C788 C 0.84551 0.76032 0.26193 0.0
C789 C 0.84768 0.77029 0.24653 0.0
C790 C 0.85991 0.76732 0.23495 0.0
C791 C 0.87036 0.7545 0.23866 0.0
C792 C 0.86771 0.74403 0.25353 0.0
C793 C 0.85537 0.74684 0.26496 0.0
C794 C 0.779 0.73611 0.28414 0.0
C795 C 0.77918 0.75667 0.23817 0.0
O796 O 0.74206 0.75561 0.27991 0.0
O797 O 0.74536 0.78398 0.27313 0.0
O798 O 0.79208 0.78825 0.28254 0.0
O799 O 0.77453 0.79518 0.26143 0.0
O800 O 0.77473 0.77313 0.30578 0.0
O801 O 0.80493 0.77852 0.30853 0.0
O802 O 0.82745 0.7794 0.27429 0.0
O803 O 0.82461 0.7514 0.28201 0.0
O804 O 0.77769 0.74693 0.272 0.0
O805 O 0.79493 0.74032 0.29368 0.0
O806 O 0.79504 0.76056 0.24881 0.0
O807 O 0.76496 0.75754 0.24545 0.0
H808 H 0.7284 0.75372 0.31033 0.0
H809 H 0.70683 0.759 0.33019 0.0
H810 H 0.69538 0.8026 0.29859 0.0
H811 H 0.71658 0.79705 0.27858 0.0
H812 H 0.84041 0.78089 0.24382 0.0
H813 H 0.8618 0.7757 0.22369 0.0
H814 H 0.87554 0.73401 0.25665 0.0
H815 H 0.85407 0.73898 0.27671 0.0
Tb816 Tb 0.78399 0.26478 0.76037 0.0
Tb817 Tb 0.77883 0.27823 0.79746 0.0
C818 C 0.78321 0.25283 0.72625 0.0
C819 C 0.78828 0.26461 0.71204 0.0
C820 C 0.78113 0.28025 0.70975 0.0
C821 C 0.78762 0.293 0.69837 0.0
C822 C 0.80152 0.29049 0.68915 0.0
C823 C 0.80896 0.27508 0.69177 0.0
C824 C 0.80233 0.26218 0.7031 0.0
C825 C 0.81248 0.27125 0.78689 0.0
C826 C 0.79543 0.3082 0.7724 0.0
C827 C 0.7813 0.29136 0.83181 0.0
C828 C 0.77382 0.28244 0.84679 0.0
C829 C 0.78481 0.28268 0.8641 0.0
C830 C 0.7787 0.27176 0.87728 0.0
C831 C 0.76151 0.26061 0.87331 0.0
C832 C 0.75031 0.26065 0.85629 0.0
C833 C 0.75647 0.27147 0.843 0.0
C834 C 0.75019 0.27245 0.77115 0.0
C835 C 0.76662 0.23456 0.78476 0.0
O836 O 0.76911 0.25486 0.73285 0.0
O837 O 0.79616 0.25271 0.73981 0.0
O838 O 0.79714 0.26333 0.7885 0.0
O839 O 0.81218 0.27558 0.76993 0.0
O840 O 0.78972 0.29462 0.75753 0.0
O841 O 0.79414 0.30433 0.78979 0.0
O842 O 0.79316 0.28371 0.8254 0.0
O843 O 0.77017 0.29485 0.81807 0.0
O844 O 0.76564 0.27978 0.76927 0.0
O845 O 0.75051 0.26883 0.7884 0.0
O846 O 0.77004 0.24832 0.79947 0.0
O847 O 0.77024 0.23802 0.76793 0.0
H848 H 0.7706 0.28284 0.71688 0.0
H849 H 0.78128 0.30444 0.69628 0.0
H850 H 0.8197 0.27285 0.68482 0.0
H851 H 0.80837 0.25052 0.70518 0.0
H852 H 0.79831 0.29071 0.86706 0.0
H853 H 0.78749 0.27164 0.8904 0.0
H854 H 0.73708 0.25193 0.85308 0.0
H855 H 0.74786 0.27073 0.82952 0.0
Tb856 Tb 0.7634 0.75425 0.76588 0.0
Tb857 Tb 0.79728 0.78027 0.77783 0.0
C858 C 0.73313 0.73656 0.76724 0.0
C859 C 0.7173 0.74227 0.77162 0.0
C860 C 0.71459 0.74437 0.7906 0.0
C861 C 0.6999 0.75007 0.79506 0.0
C862 C 0.68748 0.75355 0.78062 0.0
C863 C 0.69014 0.75153 0.76164 0.0
C864 C 0.70493 0.74587 0.75715 0.0
C865 C 0.7764 0.76726 0.73735 0.0
C866 C 0.7654 0.79967 0.77861 0.0
C867 C 0.82796 0.79738 0.77802 0.0
C868 C 0.84293 0.79021 0.77344 0.0
C869 C 0.84131 0.77772 0.75643 0.0
C870 C 0.85559 0.77093 0.75229 0.0
C871 C 0.87162 0.77655 0.76509 0.0
C872 C 0.87309 0.78848 0.78236 0.0
C873 C 0.85878 0.79523 0.78655 0.0
C874 C 0.78415 0.76668 0.80612 0.0
C875 C 0.79546 0.73512 0.76471 0.0
O876 O 0.74634 0.74017 0.78158 0.0
O877 O 0.73806 0.7404 0.75125 0.0
O878 O 0.77708 0.7764 0.75363 0.0
O879 O 0.76749 0.75007 0.73637 0.0
O880 O 0.75569 0.78192 0.77366 0.0
O881 O 0.78273 0.80271 0.78072 0.0
O882 O 0.81506 0.79572 0.76367 0.0
O883 O 0.82254 0.79262 0.79346 0.0
O884 O 0.78382 0.75788 0.78983 0.0
O885 O 0.7926 0.78403 0.80719 0.0
O886 O 0.80492 0.75298 0.76838 0.0
O887 O 0.77825 0.73195 0.76395 0.0
H888 H 0.72384 0.74168 0.80209 0.0
H889 H 0.6983 0.7518 0.80987 0.0
H890 H 0.68064 0.754 0.75025 0.0
H891 H 0.70664 0.74427 0.74238 0.0
H892 H 0.8291 0.77334 0.74619 0.0
H893 H 0.85431 0.76188 0.73879 0.0
H894 H 0.88542 0.79286 0.79239 0.0
H895 H 0.86013 0.80454 0.79989 0.0
Tb896 Tb 0.5174 0.51257 0.51662 0.0
Tb897 Tb 0.55458 0.52881 0.53396 0.0
C898 C 0.48497 0.50726 0.50739 0.0
C899 C 0.47427 0.52101 0.50536 0.0
C900 C 0.47824 0.5377 0.51859 0.0
C901 C 0.46863 0.5512 0.51614 0.0
C902 C 0.45494 0.54825 0.5004 0.0
C903 C 0.4512 0.53173 0.48695 0.0
C904 C 0.46087 0.51818 0.48941 0.0
C905 C 0.53968 0.5092 0.49353 0.0
C906 C 0.5343 0.55679 0.51897 0.0
C907 C 0.58707 0.53432 0.54205 0.0
C908 C 0.5978 0.52072 0.54454 0.0
C909 C 0.5928 0.50297 0.53291 0.0
C910 C 0.60255 0.48969 0.53579 0.0
C911 C 0.61745 0.49405 0.55023 0.0
C912 C 0.62234 0.51164 0.56206 0.0
C913 C 0.61243 0.52491 0.5593 0.0
C914 C 0.53264 0.53236 0.55731 0.0
C915 C 0.53737 0.48473 0.53265 0.0
O916 O 0.49292 0.50729 0.52482 0.0
O917 O 0.49523 0.50647 0.49485 0.0
O918 O 0.54021 0.52325 0.50562 0.0
O919 O 0.52568 0.49639 0.49348 0.0
O920 O 0.52001 0.54331 0.51815 0.0
O921 O 0.55006 0.55372 0.52317 0.0
O922 O 0.57854 0.53319 0.52463 0.0
O923 O 0.57734 0.536 0.55501 0.0
O924 O 0.53178 0.51834 0.545 0.0
O925 O 0.5468 0.54501 0.5574 0.0
O926 O 0.55178 0.49818 0.53395 0.0
O927 O 0.52163 0.48764 0.52774 0.0
H928 H 0.48872 0.54034 0.5309 0.0
H929 H 0.47154 0.56365 0.52693 0.0
H930 H 0.44067 0.52921 0.4747 0.0
H931 H 0.45789 0.50551 0.4789 0.0
H932 H 0.58147 0.49939 0.52146 0.0
H933 H 0.59884 0.47629 0.5263 0.0
H934 H 0.63392 0.51514 0.57319 0.0
H935 H 0.61622 0.53843 0.56856 0.0
Tb936 Tb 0.04886 0.51824 0.01833 0.0
Tb937 Tb 0.01284 0.51601 0.02863 0.0
C938 C 0.07972 0.51367 0.02246 0.0
C939 C 0.09041 0.50054 0.01604 0.0
C940 C 0.09046 0.48393 0.02398 0.0
C941 C 0.10266 0.47325 0.02065 0.0
C942 C 0.11524 0.47886 0.00934 0.0
C943 C 0.11467 0.49499 0.0007 0.0
C944 C 0.10246 0.50571 0.00406 0.0
C945 C 0.02609 0.51932 0.98613 0.0
C946 C 0.02061 0.47915 0.01023 0.0
C947 C 0.98366 0.52121 0.03497 0.0
C948 C 0.97236 0.53495 0.03412 0.0
C949 C 0.96332 0.53777 0.01664 0.0
C950 C 0.9509 0.54877 0.01634 0.0
C951 C 0.94722 0.55724 0.03347 0.0
C952 C 0.95676 0.55501 0.05091 0.0
C953 C 0.9691 0.54392 0.05122 0.0
C954 C 0.03718 0.50952 0.05614 0.0
C955 C 0.03877 0.55554 0.03045 0.0
O956 O 0.06825 0.50734 0.03287 0.0
O957 O 0.07392 0.52426 0.01065 0.0
O958 O 0.02309 0.51808 0.00298 0.0
O959 O 0.04273 0.52006 0.98741 0.0
O960 O 0.03719 0.48822 0.01275 0.0
O961 O 0.00799 0.48733 0.01399 0.0
O962 O 0.98577 0.51216 0.01889 0.0
O963 O 0.9981 0.52596 0.04779 0.0
O964 O 0.0393 0.52171 0.04499 0.0
O965 O 0.02084 0.50059 0.05174 0.0
O966 O 0.02234 0.54574 0.02702 0.0
O967 O 0.05212 0.54755 0.03015 0.0
H968 H 0.08157 0.47954 0.0335 0.0
H969 H 0.10277 0.4611 0.02777 0.0
H970 H 0.12397 0.49962 0.99168 0.0
H971 H 0.1029 0.51846 0.99784 0.0
H972 H 0.96546 0.53107 0.00318 0.0
H973 H 0.94395 0.5504 0.00265 0.0
H974 H 0.95415 0.56116 0.06437 0.0
H975 H 0.97568 0.54184 0.06492 0.0
H976 H 0.03912 0.21302 0.9466 0.0
H977 H 0.04625 0.18701 0.96233 0.0
H978 H 0.99172 0.16714 0.96541 0.0
H979 H 0.98484 0.19341 0.95074 0.0
H980 H 0.00918 0.16463 0.99705 0.0
H981 H 0.01536 0.14585 0.93139 0.0
H982 H 0.02792 0.1505 0.9024 0.0
H983 H 0.07962 0.15642 0.93448 0.0
H984 H 0.06736 0.15199 0.96368 0.0
H985 H 1.00429 0.06926 0.00949 0.0
H986 H 1.00176 0.09875 0.99808 0.0
H987 H 0.05797 0.11559 0.00397 0.0
H988 H 0.06061 0.08614 0.01527 0.0
H989 H 0.04273 0.12144 0.97032 0.0
H990 H 0.03652 0.13675 0.03496 0.0
H991 H 0.02448 0.13226 0.06424 0.0
H992 H 0.97344 0.13326 0.03484 0.0
H993 H 0.98508 0.13735 0.00524 0.0
C994 C 0.02868 0.20293 0.95041 0.0
C995 C 0.01141 0.20524 0.94727 0.0
C996 C 0.03273 0.18801 0.95944 0.0
C997 C 0.0195 0.17481 0.96499 0.0
C998 C 1.00225 0.17705 0.96147 0.0
C999 C 0.99829 0.19206 0.95289 0.0
C1000 C 0.0233 0.15866 0.97452 0.0
C1001 C 0.01636 0.1551 0.99101 0.0
C1002 C 0.03319 0.14643 0.96726 0.0
C1003 C 0.04048 0.14877 0.94969 0.0
C1004 C 0.02941 0.14822 0.93224 0.0
C1005 C 0.03647 0.15081 0.91579 0.0
C1006 C 0.05456 0.1538 0.91661 0.0
C1007 C 0.06562 0.15413 0.93387 0.0
C1008 C 0.05863 0.15156 0.95036 0.0
C1009 C 0.01614 0.0793 0.00855 0.0
C1010 C 0.03265 0.07527 0.01335 0.0
C1011 C 0.01468 0.09623 0.00206 0.0
C1012 C 0.02969 0.10953 0.00022 0.0
C1013 C 0.04619 0.1056 0.00522 0.0
C1014 C 0.04767 0.08875 0.01179 0.0
C1015 C 0.02815 0.12716 0.99242 0.0
C1016 C 0.03559 0.13102 0.97635 0.0
C1017 C 0.01873 0.13965 8e-05 0.0
C1018 C 0.01165 0.1372 0.01784 0.0
C1019 C 0.02269 0.13584 0.03469 0.0
C1020 C 0.01593 0.13336 0.05134 0.0
C1021 C 0.99818 0.13238 0.05137 0.0
C1022 C 0.98716 0.13392 0.03476 0.0
C1023 C 0.99384 0.13634 0.01805 0.0
H1024 H 0.99298 0.13049 0.06428 0.0
H1025 H 0.06 0.15583 0.90386 0.0
H1026 H 0.11568 0.76577 0.14061 0.0
H1027 H 0.14125 0.76328 0.16286 0.0
H1028 H 0.1259 0.79658 0.20811 0.0
H1029 H 0.09973 0.7988 0.18574 0.0
H1030 H 0.16201 0.80895 0.20341 0.0
H1031 H 0.12216 0.75227 0.21018 0.0
H1032 H 0.10072 0.72189 0.1989 0.0
H1033 H 0.13888 0.69979 0.17282 0.0
H1034 H 0.16049 0.73014 0.18368 0.0
H1035 H 0.23039 0.80183 0.2745 0.0
H1036 H 0.2017 0.80066 0.25609 0.0
H1037 H 0.20739 0.75531 0.21517 0.0
H1038 H 0.23592 0.75567 0.23453 0.0
H1039 H 0.17514 0.74879 0.21834 0.0
H1040 H 0.21402 0.80411 0.20814 0.0
H1041 H 0.23624 0.8342 0.21717 0.0
H1042 H 0.20095 0.85872 0.24609 0.0
H1043 H 0.17862 0.82867 0.23749 0.0
C1044 C 0.11762 0.77252 0.15533 0.0
C1045 C 0.10568 0.78263 0.16133 0.0
C1046 C 0.13225 0.77097 0.16808 0.0
C1047 C 0.13555 0.77969 0.1872 0.0
C1048 C 0.12361 0.78969 0.1934 0.0
C1049 C 0.10865 0.79093 0.18065 0.0
C1050 C 0.15198 0.77902 0.20022 0.0
C1051 C 0.16474 0.79584 0.20701 0.0
C1052 C 0.15591 0.76183 0.20421 0.0
C1053 C 0.14291 0.74356 0.19762 0.0
C1054 C 0.12594 0.741 0.20188 0.0
C1055 C 0.11376 0.72376 0.19559 0.0
C1056 C 0.11842 0.70893 0.18512 0.0
C1057 C 0.13528 0.71129 0.18093 0.0
C1058 C 0.14751 0.72851 0.18716 0.0
C1059 C 0.22557 0.79156 0.26159 0.0
C1060 C 0.23559 0.77899 0.25587 0.0
C1061 C 0.20911 0.79098 0.25094 0.0
C1062 C 0.20238 0.77829 0.23378 0.0
C1063 C 0.21221 0.76538 0.22823 0.0
C1064 C 0.22859 0.76563 0.23924 0.0
C1065 C 0.18528 0.7788 0.22169 0.0
C1066 C 0.17242 0.76195 0.21491 0.0
C1067 C 0.18138 0.79594 0.2173 0.0
C1068 C 0.1947 0.8141 0.2223 0.0
C1069 C 0.21104 0.81589 0.21651 0.0
C1070 C 0.22365 0.83293 0.22156 0.0
C1071 C 0.22002 0.84835 0.23223 0.0
C1072 C 0.20375 0.84676 0.23784 0.0
C1073 C 0.1911 0.82973 0.23288 0.0
H1074 H 0.2298 0.86153 0.23612 0.0
H1075 H 0.10898 0.69559 0.18028 0.0
H1076 H 0.49123 0.80292 0.46683 0.0
H1077 H 0.49607 0.83662 0.47684 0.0
H1078 H 0.54527 0.84582 0.45695 0.0
H1079 H 0.54028 0.81172 0.44615 0.0
H1080 H 0.54307 0.86528 0.49732 0.0
H1081 H 0.52042 0.85802 0.43071 0.0
H1082 H 0.50083 0.84424 0.39986 0.0
H1083 H 0.45696 0.85646 0.42293 0.0
H1084 H 0.47624 0.87001 0.45408 0.0
H1085 H 0.55174 0.96316 0.5062 0.0
H1086 H 0.55086 0.93055 0.49519 0.0
H1087 H 0.49554 0.91534 0.49648 0.0
H1088 H 0.49616 0.94854 0.50711 0.0
H1089 H 0.50306 0.89936 0.46387 0.0
H1090 H 0.52641 0.90537 0.53138 0.0
H1091 H 0.54684 0.9205 0.56141 0.0
H1092 H 0.59041 0.91183 0.53556 0.0
H1093 H 0.57024 0.89675 0.50533 0.0
C1094 C 0.50323 0.81199 0.46477 0.0
C1095 C 0.51544 0.80465 0.45576 0.0
C1096 C 0.50588 0.83125 0.47039 0.0
C1097 C 0.5209 0.84354 0.46744 0.0
C1098 C 0.53355 0.83638 0.4592 0.0
C1099 C 0.53072 0.817 0.45313 0.0
C1100 C 0.52296 0.86386 0.47301 0.0
C1101 C 0.53461 0.87291 0.48985 0.0
C1102 C 0.51155 0.87346 0.46337 0.0
C1103 C 0.49976 0.86481 0.44484 0.0
C1104 C 0.50655 0.8575 0.42932 0.0
C1105 C 0.49551 0.8498 0.41175 0.0
C1106 C 0.47765 0.84941 0.40945 0.0
C1107 C 0.47079 0.85673 0.42474 0.0
C1108 C 0.48178 0.86442 0.44237 0.0
C1109 C 0.53934 0.95295 0.50432 0.0
C1110 C 0.52398 0.95841 0.50763 0.0
C1111 C 0.53892 0.93425 0.49808 0.0
C1112 C 0.52323 0.92053 0.49535 0.0
C1113 C 0.50781 0.92582 0.49863 0.0
C1114 C 0.50817 0.9447 0.50472 0.0
C1115 C 0.52296 0.90076 0.48843 0.0
C1116 C 0.5116 0.8918 0.47133 0.0
C1117 C 0.53472 0.89129 0.49777 0.0
C1118 C 0.54682 0.9 0.51607 0.0
C1119 C 0.54035 0.90674 0.53209 0.0
C1120 C 0.55188 0.91529 0.54914 0.0
C1121 C 0.56991 0.91714 0.55038 0.0
C1122 C 0.57644 0.91037 0.53458 0.0
C1123 C 0.56496 0.90177 0.5175 0.0
H1124 H 0.57882 0.92379 0.56359 0.0
H1125 H 0.46913 0.8435 0.39582 0.0
H1126 H 0.51617 0.30516 0.68683 0.0
H1127 H 0.48893 0.29485 0.69837 0.0
H1128 H 0.47433 0.24531 0.65522 0.0
H1129 H 0.50178 0.25558 0.64351 0.0
H1130 H 0.44605 0.26007 0.6582 0.0
H1131 H 0.48622 0.23969 0.69962 0.0
H1132 H 0.5137 0.23975 0.72091 0.0
H1133 H 0.50549 0.28387 0.76097 0.0
H1134 H 0.47807 0.28431 0.73974 0.0
H1135 H 0.37755 0.22875 0.71355 0.0
H1136 H 0.40293 0.22899 0.6978 0.0
H1137 H 0.42546 0.28653 0.72446 0.0
H1138 H 0.40015 0.28652 0.74001 0.0
H1139 H 0.44864 0.26008 0.72783 0.0
H1140 H 0.40621 0.27803 0.68024 0.0
H1141 H 0.37751 0.27098 0.65868 0.0
H1142 H 0.38905 0.22195 0.62938 0.0
H1143 H 0.41768 0.22848 0.65108 0.0
C1144 C 0.50724 0.29204 0.67976 0.0
C1145 C 0.5113 0.28121 0.66426 0.0
C1146 C 0.49162 0.28611 0.68643 0.0
C1147 C 0.47954 0.2692 0.6778 0.0
C1148 C 0.4834 0.2584 0.66215 0.0
C1149 C 0.49917 0.26426 0.65555 0.0
C1150 C 0.46307 0.26308 0.68545 0.0
C1151 C 0.44664 0.25979 0.67338 0.0
C1152 C 0.46362 0.26212 0.70515 0.0
C1153 C 0.48017 0.26217 0.71799 0.0
C1154 C 0.49036 0.24955 0.71288 0.0
C1155 C 0.50591 0.24947 0.72495 0.0
C1156 C 0.51136 0.26184 0.74226 0.0
C1157 C 0.50125 0.27432 0.74754 0.0
C1158 C 0.48569 0.27448 0.7355 0.0
C1159 C 0.38785 0.2415 0.71598 0.0
C1160 C 0.38665 0.25771 0.72792 0.0
C1161 C 0.40235 0.2416 0.70695 0.0
C1162 C 0.4161 0.25779 0.70992 0.0
C1163 C 0.415 0.27388 0.72192 0.0
C1164 C 0.40042 0.2739 0.73068 0.0
C1165 C 0.43181 0.25822 0.70081 0.0
C1166 C 0.4481 0.26026 0.71264 0.0
C1167 C 0.43098 0.25716 0.6808 0.0
C1168 C 0.41401 0.25364 0.66743 0.0
C1169 C 0.40258 0.26567 0.6693 0.0
C1170 C 0.38632 0.26176 0.65705 0.0
C1171 C 0.38144 0.246 0.6427 0.0
C1172 C 0.39283 0.23414 0.64053 0.0
C1173 C 0.40907 0.23793 0.6528 0.0
H1174 H 0.36884 0.243 0.63325 0.0
H1175 H 0.5234 0.26174 0.75161 0.0
H1176 H 0.02231 0.79733 0.63999 0.0
H1177 H 0.02914 0.82482 0.62426 0.0
H1178 H 0.08235 0.81896 0.62681 0.0
H1179 H 0.07578 0.79183 0.6434 0.0
H1180 H 0.0818 0.855 0.63587 0.0
H1181 H 0.05313 0.80563 0.5838 0.0
H1182 H 0.03017 0.77779 0.56732 0.0
H1183 H 0.99109 0.80992 0.56951 0.0
H1184 H 0.0138 0.83791 0.58611 0.0
H1185 H 0.08321 0.91939 0.56376 0.0
H1186 H 0.08742 0.8937 0.58164 0.0
H1187 H 0.03765 0.89194 0.59931 0.0
H1188 H 0.03329 0.9172 0.58156 0.0
H1189 H 0.04184 0.85818 0.57656 0.0
H1190 H 0.07035 0.90611 0.63208 0.0
H1191 H 0.09326 0.93384 0.64886 0.0
H1192 H 0.13307 0.90431 0.63921 0.0
H1193 H 0.11036 0.87645 0.62217 0.0
C1194 C 0.03542 0.80182 0.63709 0.0
C1195 C 0.04847 0.79244 0.64274 0.0
C1196 C 0.03931 0.81748 0.62809 0.0
C1197 C 0.05616 0.82362 0.62406 0.0
C1198 C 0.06927 0.81434 0.62975 0.0
C1199 C 0.06547 0.79885 0.63912 0.0
C1200 C 0.05986 0.83983 0.61393 0.0
C1201 C 0.07333 0.85559 0.62267 0.0
C1202 C 0.04882 0.84049 0.59671 0.0
C1203 C 0.03517 0.82385 0.58621 0.0
C1204 C 0.03964 0.80674 0.58077 0.0
C1205 C 0.02666 0.79094 0.57141 0.0
C1206 C 0.00918 0.79208 0.56738 0.0
C1207 C 1.00464 0.80906 0.57261 0.0
C1208 C 0.01757 0.82492 0.58193 0.0
C1209 C 0.07341 0.91372 0.57183 0.0
C1210 C 0.05792 0.92013 0.57128 0.0
C1211 C 0.07586 0.89923 0.58205 0.0
C1212 C 0.06278 0.89108 0.5916 0.0
C1213 C 0.04786 0.89823 0.59201 0.0
C1214 C 0.04545 0.9127 0.58196 0.0
C1215 C 0.06319 0.87349 0.59897 0.0
C1216 C 0.05056 0.85741 0.58952 0.0
C1217 C 0.07507 0.87257 0.61538 0.0
C1218 C 0.08868 0.88928 0.62567 0.0
C1219 C 0.08399 0.90559 0.63338 0.0
C1220 C 0.09694 0.92132 0.64298 0.0
C1221 C 0.11461 0.92086 0.64505 0.0
C1222 C 0.11937 0.90465 0.63757 0.0
C1223 C 0.10647 0.88888 0.62796 0.0
H1224 H 0.12462 0.93304 0.65249 0.0
H1225 H 0.99915 0.77982 0.56019 0.0
H1226 H 0.48487 0.80109 0.83029 0.0
H1227 H 0.45844 0.80553 0.81083 0.0
H1228 H 0.42914 0.75294 0.82252 0.0
H1229 H 0.45539 0.74843 0.84181 0.0
H1230 H 0.41638 0.75935 0.78834 0.0
H1231 H 0.43348 0.79326 0.8538 0.0
H1232 H 0.44901 0.81669 0.8821 0.0
H1233 H 0.44837 0.86121 0.84864 0.0
H1234 H 0.43289 0.83799 0.82013 0.0
H1235 H 0.33861 0.75819 0.81954 0.0
H1236 H 0.36945 0.7605 0.81786 0.0
H1237 H 0.37234 0.81359 0.79722 0.0
H1238 H 0.3416 0.81147 0.79915 0.0
H1239 H 0.39976 0.81325 0.82324 0.0
H1240 H 0.36804 0.77419 0.76558 0.0
H1241 H 0.34791 0.74807 0.74263 0.0
H1242 H 0.37236 0.70827 0.76828 0.0
H1243 H 0.39218 0.73391 0.79194 0.0
C1244 C 0.47299 0.79003 0.82786 0.0
C1245 C 0.47194 0.77456 0.8377 0.0
C1246 C 0.45792 0.7927 0.81693 0.0
C1247 C 0.44194 0.77977 0.81566 0.0
C1248 C 0.44144 0.76309 0.8234 0.0
C1249 C 0.45641 0.76048 0.83438 0.0
C1250 C 0.42533 0.78457 0.80914 0.0
C1251 C 0.41263 0.77116 0.79581 0.0
C1252 C 0.42081 0.80036 0.81862 0.0
C1253 C 0.4326 0.81386 0.83471 0.0
C1254 C 0.43713 0.80798 0.85236 0.0
C1255 C 0.44574 0.82124 0.86848 0.0
C1256 C 0.4498 0.84039 0.86712 0.0
C1257 C 0.44536 0.84635 0.84962 0.0
C1258 C 0.43674 0.83315 0.83347 0.0
C1259 C 0.34613 0.77075 0.81555 0.0
C1260 C 0.33793 0.78457 0.80931 0.0
C1261 C 0.36345 0.77175 0.81397 0.0
C1262 C 0.37259 0.78665 0.80631 0.0
C1263 C 0.36511 0.80169 0.8025 0.0
C1264 C 0.34778 0.80075 0.80418 0.0
C1265 C 0.39051 0.78712 0.8038 0.0
C1266 C 0.40349 0.80178 0.81511 0.0
C1267 C 0.395 0.77183 0.7934 0.0
C1268 C 0.38173 0.75612 0.78055 0.0
C1269 C 0.36891 0.75986 0.76665 0.0
C1270 C 0.35752 0.74511 0.75351 0.0
C1271 C 0.35886 0.72657 0.75404 0.0
C1272 C 0.37128 0.72264 0.76799 0.0
C1273 C 0.38259 0.73728 0.78128 0.0
H1274 H 0.3504 0.71527 0.74349 0.0
H1275 H 0.45631 0.8506 0.87965 0.0
H1276 H 0.53371 0.1758 0.15621 0.0
H1277 H 0.5325 0.15335 0.12766 0.0
H1278 H 0.56006 0.19806 0.10206 0.0
H1279 H 0.56086 0.22071 0.13028 0.0
H1280 H 0.53223 0.1719 0.07629 0.0
H1281 H 0.5833 0.17197 0.1235 0.0
H1282 H 0.5971 0.17075 0.15646 0.0
H1283 H 0.56355 0.11611 0.154 0.0
H1284 H 0.54954 0.11705 0.1211 0.0
H1285 H 0.54132 0.09307 0.00929 0.0
H1286 H 0.54945 0.12394 0.0304 0.0
H1287 H 0.52865 0.09736 0.07525 0.0
H1288 H 0.52108 0.06714 0.05484 0.0
H1289 H 0.56065 0.11948 0.08826 0.0
H1290 H 0.50518 0.12123 0.04913 0.0
H1291 H 0.48635 0.12 0.01802 0.0
H1292 H 0.52298 0.16754 0.00675 0.0
H1293 H 0.54211 0.1689 0.03776 0.0
C1294 C 0.53941 0.18082 0.14445 0.0
C1295 C 0.54755 0.19985 0.14546 0.0
C1296 C 0.53867 0.16807 0.1282 0.0
C1297 C 0.54645 0.17416 0.11303 0.0
C1298 C 0.55403 0.19323 0.1137 0.0
C1299 C 0.55453 0.20605 0.12982 0.0
C1300 C 0.54765 0.16029 0.09711 0.0
C1301 C 0.53877 0.16065 0.07872 0.0
C1302 C 0.55611 0.14566 0.10051 0.0
C1303 C 0.56536 0.1446 0.11984 0.0
C1304 C 0.57892 0.15968 0.12998 0.0
C1305 C 0.58676 0.15905 0.14866 0.0
C1306 C 0.5812 0.14337 0.15732 0.0
C1307 C 0.56787 0.12823 0.14728 0.0
C1308 C 0.56002 0.12878 0.12859 0.0
C1309 C 0.53851 0.09407 0.02365 0.0
C1310 C 0.53082 0.07794 0.03062 0.0
C1311 C 0.54317 0.11151 0.03563 0.0
C1312 C 0.53987 0.11271 0.0544 0.0
C1313 C 0.53165 0.09661 0.06096 0.0
C1314 C 0.52728 0.07937 0.04924 0.0
C1315 C 0.5445 0.13055 0.06764 0.0
C1316 C 0.55466 0.13109 0.08559 0.0
C1317 C 0.53674 0.14561 0.06398 0.0
C1318 C 0.52511 0.14508 0.04562 0.0
C1319 C 0.50923 0.13137 0.03997 0.0
C1320 C 0.49851 0.13064 0.02237 0.0
C1321 C 0.50349 0.14365 0.01039 0.0
C1322 C 0.51916 0.15746 0.01603 0.0
C1323 C 0.52993 0.15823 0.03361 0.0
H1324 H 0.49518 0.14306 0.99676 0.0
H1325 H 0.58723 0.14295 0.17182 0.0
H1326 H 0.07487 0.32274 0.35548 0.0
H1327 H 0.09823 0.31581 0.33943 0.0
H1328 H 0.06652 0.25986 0.31658 0.0
H1329 H 0.04369 0.26637 0.33406 0.0
H1330 H 0.09738 0.25758 0.32932 0.0
H1331 H 0.07495 0.29791 0.28873 0.0
H1332 H 0.06551 0.3268 0.28263 0.0
H1333 H 0.11725 0.36012 0.30711 0.0
H1334 H 0.12692 0.33144 0.31358 0.0
H1335 H 0.15439 0.23647 0.26856 0.0
H1336 H 0.12845 0.24446 0.27845 0.0
H1337 H 0.16028 0.29732 0.3102 0.0
H1338 H 0.18624 0.28972 0.29983 0.0
H1339 H 0.1286 0.30065 0.29094 0.0
H1340 H 0.15041 0.26173 0.33348 0.0
H1341 H 0.16026 0.23368 0.34186 0.0
H1342 H 0.11 0.19842 0.31478 0.0
H1343 H 0.09993 0.22627 0.30602 0.0
C1344 C 0.07287 0.30907 0.34681 0.0
C1345 C 0.0576 0.2951 0.34578 0.0
C1346 C 0.08613 0.30515 0.33755 0.0
C1347 C 0.08395 0.28748 0.32639 0.0
C1348 C 0.06844 0.27362 0.32504 0.0
C1349 C 0.05543 0.27733 0.33491 0.0
C1350 C 0.09829 0.28309 0.31714 0.0
C1351 C 0.10391 0.26679 0.32055 0.0
C1352 C 0.10722 0.29542 0.30625 0.0
C1353 C 0.10161 0.31256 0.30171 0.0
C1354 C 0.08429 0.31141 0.29283 0.0
C1355 C 0.0789 0.32774 0.28933 0.0
C1356 C 0.09076 0.34529 0.29452 0.0
C1357 C 0.10807 0.34652 0.30311 0.0
C1358 C 0.11352 0.33023 0.30666 0.0
C1359 C 0.1558 0.24998 0.27727 0.0
C1360 C 0.17231 0.26244 0.28353 0.0
C1361 C 0.14102 0.25443 0.28303 0.0
C1362 C 0.1426 0.27132 0.29523 0.0
C1363 C 0.1589 0.28418 0.30082 0.0
C1364 C 0.17369 0.27977 0.29502 0.0
C1365 C 0.12741 0.27512 0.30298 0.0
C1366 C 0.12177 0.29132 0.2994 0.0
C1367 C 0.11846 0.26275 0.31375 0.0
C1368 C 0.1245 0.24602 0.31892 0.0
C1369 C 0.14152 0.24797 0.32917 0.0
C1370 C 0.14713 0.23212 0.33402 0.0
C1371 C 0.13578 0.21427 0.32881 0.0
C1372 C 0.11879 0.21224 0.31877 0.0
C1373 C 0.11312 0.22805 0.31387 0.0
H1374 H 0.14014 0.20201 0.33259 0.0
H1375 H 0.08654 0.35793 0.29185 0.0
H1376 H 0.97467 0.03286 0.21765 0.0
H1377 H 0.98915 0.03995 0.19069 0.0
H1378 H 0.9581 0.98755 0.15698 0.0
H1379 H 0.94463 0.97996 0.18447 0.0
H1380 H 0.98984 0.99062 0.15329 0.0
H1381 H 0.95215 0.03507 0.15109 0.0
H1382 H 0.94101 0.06162 0.16468 0.0
H1383 H 0.99297 0.09732 0.17612 0.0
H1384 H 1.00442 0.07092 0.16281 0.0
H1385 H 0.00534 1.0036 0.0613 0.0
H1386 H 0.99233 0.99968 0.0897 0.0
H1387 H 0.02669 0.05217 0.11933 0.0
H1388 H 0.03921 0.05654 0.0906 0.0
H1389 H 0.99586 0.05037 0.12684 0.0
H1390 H 0.03361 0.00815 0.12722 0.0
H1391 H 0.04634 0.98233 0.11509 0.0
H1392 H 0.99669 0.94302 0.10885 0.0
H1393 H 0.98353 0.96867 0.12054 0.0
C1394 C 0.97073 0.02314 0.20429 0.0
C1395 C 0.9584 0.00606 0.20284 0.0
C1396 C 0.97897 0.02717 0.18889 0.0
C1397 C 0.97456 0.01442 0.17163 0.0
C1398 C 0.96175 0.99761 0.17011 0.0
C1399 C 0.95391 0.99336 0.18568 0.0
C1400 C 0.98385 0.01793 0.15547 0.0
C1401 C 0.99089 1.00358 0.1473 0.0
C1402 C 0.98608 0.03518 0.14825 0.0
C1403 C 0.97913 0.05101 0.15611 0.0
C1404 C 0.96119 0.04856 0.15661 0.0
C1405 C 0.95483 0.06358 0.16425 0.0
C1406 C 0.96628 0.08113 0.1713 0.0
C1407 C 0.98412 0.08372 0.17068 0.0
C1408 C 0.99054 0.06874 0.16308 0.0
C1409 C 0.00992 0.01444 0.07377 0.0
C1410 C 0.02317 0.03044 0.07373 0.0
C1411 C 1.00266 0.01206 0.09009 0.0
C1412 C 0.00877 0.02545 0.10678 0.0
C1413 C 0.02181 0.04162 0.10663 0.0
C1414 C 0.02892 0.04413 0.09021 0.0
C1415 C 1.00126 0.02281 0.12423 0.0
C1416 C 0.99475 0.03738 0.13276 0.0
C1417 C 0.9997 0.00582 0.13191 0.0
C1418 C 0.00754 0.99039 0.1246 0.0
C1419 C 0.02535 0.99404 0.12307 0.0
C1420 C 0.03265 0.97943 0.11629 0.0
C1421 C 0.02232 0.96105 0.11117 0.0
C1422 C 0.00466 0.95727 0.11279 0.0
C1423 C 0.99727 0.97184 0.11948 0.0
H1424 H 0.028 0.94974 0.10601 0.0
H1425 H 0.96133 0.09274 0.17721 0.0
H1426 H 0.31583 0.6759 0.48445 0.0
H1427 H 0.30007 0.68705 0.45774 0.0
H1428 H 0.31315 0.74302 0.49028 0.0
H1429 H 0.32985 0.73218 0.51644 0.0
H1430 H 0.27115 0.71227 0.47364 0.0
H1431 H 0.32261 0.75695 0.46201 0.0
H1432 H 0.35435 0.76315 0.46181 0.0
H1433 H 0.34579 0.71444 0.41885 0.0
H1434 H 0.31399 0.70783 0.41908 0.0
H1435 H 0.24427 0.76607 0.39871 0.0
H1436 H 0.2519 0.75376 0.42804 0.0
H1437 H 0.25413 0.70161 0.39501 0.0
H1438 H 0.2457 0.71355 0.36553 0.0
H1439 H 0.28814 0.73315 0.41443 0.0
H1440 H 0.23425 0.69232 0.42437 0.0
H1441 H 0.20314 0.6872 0.42738 0.0
H1442 H 0.21649 0.73151 0.47575 0.0
H1443 H 0.24769 0.73697 0.47291 0.0
C1444 C 0.31649 0.69084 0.48521 0.0
C1445 C 0.32394 0.70325 0.50225 0.0
C1446 C 0.30708 0.69705 0.47031 0.0
C1447 C 0.30513 0.7156 0.47259 0.0
C1448 C 0.3145 0.7286 0.48855 0.0
C1449 C 0.3244 0.72251 0.50318 0.0
C1450 C 0.29239 0.7208 0.45866 0.0
C1451 C 0.27478 0.71712 0.46078 0.0
C1452 C 0.29735 0.72709 0.44218 0.0
C1453 C 0.31602 0.73198 0.44047 0.0
C1454 C 0.32753 0.74766 0.45243 0.0
C1455 C 0.34551 0.7512 0.45238 0.0
C1456 C 0.35208 0.7392 0.4403 0.0
C1457 C 0.34066 0.72374 0.42815 0.0
C1458 C 0.32266 0.72011 0.42821 0.0
C1459 C 0.24502 0.75147 0.39767 0.0
C1460 C 0.24517 0.74094 0.38002 0.0
C1461 C 0.24952 0.74452 0.41445 0.0
C1462 C 0.25402 0.72711 0.41342 0.0
C1463 C 0.25078 0.71518 0.39587 0.0
C1464 C 0.24596 0.72199 0.3791 0.0
C1465 C 0.26669 0.72417 0.42909 0.0
C1466 C 0.28441 0.72845 0.42732 0.0
C1467 C 0.26178 0.71891 0.44606 0.0
C1468 C 0.24324 0.71507 0.4484 0.0
C1469 C 0.23053 0.70097 0.43564 0.0
C1470 C 0.21289 0.69801 0.43731 0.0
C1471 C 0.20784 0.70904 0.45174 0.0
C1472 C 0.22043 0.72297 0.4646 0.0
C1473 C 0.2381 0.72596 0.463 0.0
H1474 H 0.19416 0.70678 0.45296 0.0
H1475 H 0.36602 0.74189 0.44035 0.0
H1476 H 0.61696 0.97282 0.7206 0.0
H1477 H 0.60203 0.97326 0.68787 0.0
H1478 H 0.61645 0.03394 0.6981 0.0
H1479 H 0.63069 0.03343 0.73057 0.0
H1480 H 0.58601 0.02644 0.68001 0.0
H1481 H 0.63451 1.00247 0.6657 0.0
H1482 H 0.65455 0.98109 0.66691 0.0
H1483 H 0.61158 0.93416 0.64159 0.0
H1484 H 0.59124 0.95528 0.64044 0.0
H1485 H 0.56279 0.03842 0.58037 0.0
H1486 H 0.57931 0.03763 0.6123 0.0
H1487 H 0.55573 0.97843 0.60659 0.0
H1488 H 0.53899 0.97931 0.57512 0.0
H1489 H 0.59073 0.98525 0.622 0.0
H1490 H 0.54275 0.01165 0.63532 0.0
H1491 H 0.52399 0.03437 0.63478 0.0
H1492 H 0.56829 0.07902 0.66217 0.0
H1493 H 0.58738 0.05661 0.66256 0.0
C1494 C 0.61734 0.98623 0.71573 0.0
C1495 C 0.62544 1.00307 0.72849 0.0
C1496 C 0.60865 0.98655 0.69682 0.0
C1497 C 0.6079 1.0037 0.68982 0.0
C1498 C 0.61641 0.0204 0.70257 0.0
C1499 C 0.62485 0.02007 0.72134 0.0
C1500 C 0.5981 0.0046 0.66973 0.0
C1501 C 0.58739 0.01755 0.6674 0.0
C1502 C 0.59923 0.99304 0.65274 0.0
C1503 C 0.61136 0.98038 0.65318 0.0
C1504 C 0.62934 0.98757 0.66049 0.0
C1505 C 0.64074 0.97551 0.66116 0.0
C1506 C 0.63433 0.95627 0.65439 0.0
C1507 C 0.61652 0.94906 0.64686 0.0
C1508 C 0.60505 0.96107 0.64618 0.0
C1509 C 0.56118 0.02519 0.58584 0.0
C1510 C 0.54943 0.00891 0.57485 0.0
C1511 C 0.57062 0.02475 0.60431 0.0
C1512 C 0.56893 0.00795 0.61238 0.0
C1513 C 0.55752 0.99165 0.60111 0.0
C1514 C 0.54785 0.99218 0.58293 0.0
C1515 C 0.57882 0.00715 0.63237 0.0
C1516 C 0.58948 0.9942 0.63465 0.0
C1517 C 0.5779 0.01897 0.64927 0.0
C1518 C 0.56653 0.03251 0.6487 0.0
C1519 C 0.54853 0.02636 0.641 0.0
C1520 C 0.53783 0.03917 0.64077 0.0
C1521 C 0.54496 0.05815 0.64836 0.0
C1522 C 0.5628 0.06434 0.65623 0.0
C1523 C 0.57356 0.05159 0.65645 0.0
H1524 H 0.53664 0.06804 0.6482 0.0
H1525 H 0.64319 0.94694 0.65493 0.0
H1526 H 0.26417 0.32377 0.98677 0.0
H1527 H 0.2594 0.31034 0.95268 0.0
H1528 H 0.30448 0.35202 0.94598 0.0
H1529 H 0.30848 0.36586 0.97945 0.0
H1530 H 0.28214 0.34529 0.91503 0.0
H1531 H 0.30537 0.30556 0.95761 0.0
H1532 H 0.30419 0.28513 0.98249 0.0
H1533 H 0.25696 0.24842 0.94923 0.0
H1534 H 0.25776 0.26878 0.92429 0.0
H1535 H 0.31602 0.30154 0.84103 0.0
H1536 H 0.3136 0.31402 0.87367 0.0
H1537 H 0.26464 0.27311 0.86834 0.0
H1538 H 0.26704 0.26064 0.836 0.0
H1539 H 0.28466 0.27816 0.90363 0.0
H1540 H 0.26403 0.31567 0.85912 0.0
H1541 H 0.26617 0.33525 0.83362 0.0
H1542 H 0.30908 0.37589 0.8701 0.0
H1543 H 0.30743 0.35635 0.89569 0.0
C1544 C 0.27258 0.33032 0.97771 0.0
C1545 C 0.2866 0.34579 0.9854 0.0
C1546 C 0.27002 0.32258 0.95838 0.0
C1547 C 0.28185 0.3299 0.94689 0.0
C1548 C 0.29518 0.3461 0.9545 0.0
C1549 C 0.29749 0.354 0.9736 0.0
C1550 C 0.28166 0.32004 0.92756 0.0
C1551 C 0.28277 0.33063 0.91259 0.0
C1552 C 0.28206 0.30079 0.92416 0.0
C1553 C 0.2815 0.28878 0.93927 0.0
C1554 C 0.29467 0.29321 0.95571 0.0
C1555 C 0.29408 0.28164 0.9698 0.0
C1556 C 0.28048 0.26552 0.96748 0.0
C1557 C 0.26745 0.26093 0.95105 0.0
C1558 C 0.26796 0.27248 0.93695 0.0
C1559 C 0.30506 0.29492 0.84712 0.0
C1560 C 0.29166 0.28027 0.83614 0.0
C1561 C 0.30358 0.30214 0.86559 0.0
C1562 C 0.28876 0.29467 0.87314 0.0
C1563 C 0.27609 0.27911 0.86267 0.0
C1564 C 0.27748 0.27203 0.84425 0.0
C1565 C 0.28582 0.30362 0.8915 0.0
C1566 C 0.28394 0.29279 0.90611 0.0
C1567 C 0.2848 0.32265 0.89457 0.0
C1568 C 0.28572 0.33446 0.87925 0.0
C1569 C 0.27402 0.3287 0.86165 0.0
C1570 C 0.27514 0.3398 0.84718 0.0
C1571 C 0.28778 0.35678 0.85022 0.0
C1572 C 0.29931 0.36272 0.86775 0.0
C1573 C 0.2983 0.35164 0.88224 0.0
H1574 H 0.28861 0.36537 0.83901 0.0
H1575 H 0.28007 0.25656 0.97838 0.0
H1576 H 0.99729 0.01964 0.30382 0.0
H1577 H 0.00769 0.02581 0.33849 0.0
H1578 H 0.95421 0.01775 0.34737 0.0
H1579 H 0.94399 0.01308 0.31295 0.0
H1580 H 0.97305 0.04047 0.3758 0.0
H1581 H 0.97575 0.98076 0.34429 0.0
H1582 H 0.9837 0.95874 0.32028 0.0
H1583 H 0.03832 0.98237 0.34299 0.0
H1584 H 0.03068 0.00473 0.36697 0.0
H1585 H 0.98879 1.00077 0.4629 0.0
H1586 H 0.97858 1.00227 0.429 0.0
H1587 H 0.0305 0.03265 0.42538 0.0
H1588 H 0.04051 0.03171 0.45934 0.0
H1589 H 0.01188 0.99869 0.39515 0.0
H1590 H 1.00454 0.05679 0.43042 0.0
H1591 H 0.99209 0.07293 0.45519 0.0
H1592 H 0.94006 0.04586 0.42521 0.0
H1593 H 0.95217 0.02878 0.40073 0.0
C1594 C 0.98788 0.01976 0.31326 0.0
C1595 C 0.9699 0.01573 0.30584 0.0
C1596 C 0.99377 0.02316 0.33301 0.0
C1597 C 0.98167 0.02159 0.3455 0.0
C1598 C 0.96379 0.01895 0.33806 0.0
C1599 C 0.95797 0.01624 0.31836 0.0
C1600 C 0.98736 0.0205 0.36591 0.0
C1601 C 0.98149 0.03129 0.37999 0.0
C1602 C 0.99802 0.00817 0.37143 0.0
C1603 C 1.00266 0.9945 0.3573 0.0
C1604 C 0.98946 0.9813 0.34411 0.0
C1605 C 0.9939 0.96877 0.3305 0.0
C1606 C 0.0115 0.96918 0.33008 0.0
C1607 C 0.02469 0.98208 0.34332 0.0
C1608 C 0.02032 0.99468 0.35693 0.0
C1609 C 0.99793 0.00765 0.45472 0.0
C1610 C 0.01534 0.01612 0.46336 0.0
C1611 C 0.99214 0.00854 0.43554 0.0
C1612 C 1.00385 0.01761 0.42492 0.0
C1613 C 0.02136 0.02563 0.43349 0.0
C1614 C 0.02703 0.02511 0.45273 0.0
C1615 C 0.9979 0.01892 0.40482 0.0
C1616 C 1.00359 0.00799 0.39085 0.0
C1617 C 0.98648 0.03047 0.39944 0.0
C1618 C 0.97928 0.04135 0.41381 0.0
C1619 C 0.99045 0.05412 0.42918 0.0
C1620 C 0.98345 0.06347 0.44317 0.0
C1621 C 0.96531 0.06052 0.44172 0.0
C1622 C 0.95412 0.04815 0.42631 0.0
C1623 C 0.96104 0.03858 0.41241 0.0
H1624 H 0.95994 0.06782 0.45255 0.0
H1625 H 0.01493 0.95948 0.31953 0.0
H1626 H 0.35612 0.73622 0.61309 0.0
H1627 H 0.34345 0.73719 0.64217 0.0
H1628 H 0.29339 0.73699 0.6083 0.0
H1629 H 0.30656 0.73917 0.58042 0.0
H1630 H 0.29541 0.75586 0.63752 0.0
H1631 H 0.30617 0.6938 0.62582 0.0
H1632 H 0.32336 0.67 0.62049 0.0
H1633 H 0.35802 0.69336 0.6741 0.0
H1634 H 0.3411 0.71729 0.6797 0.0
H1635 H 0.27144 0.76677 0.72042 0.0
H1636 H 0.26871 0.74237 0.6935 0.0
H1637 H 0.32427 0.74569 0.70797 0.0
H1638 H 0.32588 0.76676 0.73772 0.0
H1639 H 0.30922 0.71449 0.68453 0.0
H1640 H 0.3065 0.78299 0.68491 0.0
H1641 H 0.29132 0.80843 0.69148 0.0
H1642 H 0.24303 0.77308 0.65897 0.0
H1643 H 0.25801 0.74749 0.65225 0.0
C1644 C 0.34277 0.73775 0.61231 0.0
C1645 C 0.33229 0.73758 0.59466 0.0
C1646 C 0.33532 0.73737 0.62864 0.0
C1647 C 0.31723 0.73594 0.62711 0.0
C1648 C 0.30732 0.73777 0.60981 0.0
C1649 C 0.31501 0.73946 0.59392 0.0
C1650 C 0.30869 0.73394 0.64371 0.0
C1651 C 0.29797 0.74623 0.64735 0.0
C1652 C 0.31205 0.72151 0.65668 0.0
C1653 C 0.32239 0.70733 0.65313 0.0
C1654 C 0.31751 0.6939 0.6364 0.0
C1655 C 0.32719 0.68037 0.63336 0.0
C1656 C 0.34177 0.68017 0.64694 0.0
C1657 C 0.34671 0.6935 0.6636 0.0
C1658 C 0.33706 0.707 0.66674 0.0
C1659 C 0.28277 0.7614 0.71848 0.0
C1660 C 0.29884 0.76838 0.73096 0.0
C1661 C 0.28123 0.74751 0.70311 0.0
C1662 C 0.29638 0.74289 0.69839 0.0
C1663 C 0.31238 0.74918 0.71133 0.0
C1664 C 0.31349 0.76166 0.72786 0.0
C1665 C 0.29693 0.73697 0.67836 0.0
C1666 C 0.30595 0.72315 0.67393 0.0
C1667 C 0.29216 0.74802 0.66451 0.0
C1668 C 0.28327 0.76341 0.66824 0.0
C1669 C 0.29266 0.78074 0.67915 0.0
C1670 C 0.2841 0.79514 0.68291 0.0
C1671 C 0.26621 0.79236 0.67567 0.0
C1672 C 0.25687 0.77521 0.66458 0.0
C1673 C 0.26538 0.76077 0.66077 0.0
H1674 H 0.25959 0.80351 0.67863 0.0
H1675 H 0.34924 0.66969 0.64456 0.0
H1676 H 0.63229 0.98308 0.84752 0.0
H1677 H 0.61974 0.98627 0.877 0.0
H1678 H 0.61037 0.03983 0.86595 0.0
H1679 H 0.62297 0.03696 0.8374 0.0
H1680 H 0.61779 0.04455 0.90114 0.0
H1681 H 0.577 0.99589 0.85812 0.0
H1682 H 0.56589 0.96599 0.83578 0.0
H1683 H 0.57893 0.93528 0.88103 0.0
H1684 H 0.59038 0.96507 0.9036 0.0
H1685 H 0.54383 0.04238 0.95365 0.0
H1686 H 0.56031 0.03921 0.92741 0.0
H1687 H 0.59135 0.00816 0.95943 0.0
H1688 H 0.57553 0.01217 0.98609 0.0
H1689 H 0.5737 0.99187 0.91504 0.0
H1690 H 0.61152 0.04619 0.95851 0.0
H1691 H 0.61796 0.07805 0.97713 0.0
H1692 H 0.6048 0.10059 0.92579 0.0
H1693 H 0.59778 0.06876 0.90688 0.0
C1694 C 0.62776 0.99563 0.85146 0.0
C1695 C 0.62871 0.0096 0.83949 0.0
C1696 C 0.62032 0.99744 0.86841 0.0
C1697 C 0.61358 0.01329 0.87413 0.0
C1698 C 0.61522 0.0274 0.86247 0.0
C1699 C 0.62248 0.02559 0.84574 0.0
C1700 C 0.60451 0.01537 0.89168 0.0
C1701 C 0.60813 0.0329 0.90395 0.0
C1702 C 0.59154 1.00062 0.89591 0.0
C1703 C 0.58477 0.9827 0.88248 0.0
C1704 C 0.57764 0.98276 0.86327 0.0
C1705 C 0.57127 0.96584 0.85057 0.0
C1706 C 0.57177 0.94875 0.85697 0.0
C1707 C 0.5786 0.94854 0.87609 0.0
C1708 C 0.58504 0.96544 0.88885 0.0
C1709 C 0.55428 0.03503 0.95526 0.0
C1710 C 0.55829 0.02774 0.97235 0.0
C1711 C 0.56376 0.03316 0.94009 0.0
C1712 C 0.57726 0.02333 0.94103 0.0
C1713 C 0.58112 0.01582 0.958 0.0
C1714 C 0.57205 0.01825 0.97343 0.0
C1715 C 0.58721 0.02086 0.92445 0.0
C1716 C 0.58358 1.00335 0.91229 0.0
C1717 C 0.59964 0.03586 0.91986 0.0
C1718 C 0.60387 0.055 0.93129 0.0
C1719 C 0.60974 0.05787 0.9512 0.0
C1720 C 0.61355 0.07595 0.96182 0.0
C1721 C 0.61175 0.09133 0.95267 0.0
C1722 C 0.60615 0.08866 0.93287 0.0
C1723 C 0.60223 0.07059 0.9222 0.0
H1724 H 0.61474 0.10532 0.96091 0.0
H1725 H 0.56681 0.93565 0.84712 0.0
H1726 H 0.31417 0.32985 0.08843 0.0
H1727 H 0.30705 0.31489 0.11534 0.0
H1728 H 0.26612 0.34454 0.11966 0.0
H1729 H 0.27345 0.36011 0.09238 0.0
H1730 H 0.28542 0.34543 0.15427 0.0
H1731 H 0.25663 0.29619 0.10177 0.0
H1732 H 0.25388 0.27436 0.07191 0.0
H1733 H 0.29461 0.25079 0.09859 0.0
H1734 H 0.29776 0.27261 0.12854 0.0
H1735 H 0.25993 0.29439 0.22737 0.0
H1736 H 0.26042 0.30855 0.19825 0.0
H1737 H 0.2962 0.2757 0.1813 0.0
H1738 H 0.29438 0.26037 0.20972 0.0
H1739 H 0.27582 0.27631 0.15174 0.0
H1740 H 0.30756 0.3271 0.20244 0.0
H1741 H 0.31163 0.34899 0.23258 0.0
H1742 H 0.26765 0.36997 0.20965 0.0
H1743 H 0.26321 0.34806 0.17945 0.0
C1744 C 0.30357 0.33329 0.09493 0.0
C1745 C 0.29436 0.34627 0.08809 0.0
C1746 C 0.29942 0.3245 0.11034 0.0
C1747 C 0.28579 0.32819 0.11935 0.0
C1748 C 0.27661 0.34131 0.11282 0.0
C1749 C 0.28082 0.35024 0.09726 0.0
C1750 C 0.28193 0.31891 0.13612 0.0
C1751 C 0.28298 0.33028 0.15364 0.0
C1752 C 0.27927 0.29915 0.1355 0.0
C1753 C 0.27749 0.28613 0.11739 0.0
C1754 C 0.26509 0.28645 0.10123 0.0
C1755 C 0.26344 0.27405 0.08429 0.0
C1756 C 0.27408 0.26122 0.08335 0.0
C1757 C 0.28638 0.26074 0.09934 0.0
C1758 C 0.28808 0.2731 0.11631 0.0
C1759 C 0.26789 0.29025 0.21737 0.0
C1760 C 0.27723 0.27642 0.22076 0.0
C1761 C 0.26831 0.29847 0.20078 0.0
C1762 C 0.27874 0.29368 0.18762 0.0
C1763 C 0.28806 0.27977 0.19112 0.0
C1764 C 0.28713 0.27105 0.2074 0.0
C1765 C 0.27977 0.30287 0.17013 0.0
C1766 C 0.27816 0.29146 0.15243 0.0
C1767 C 0.28221 0.32262 0.17065 0.0
C1768 C 0.28496 0.33583 0.18877 0.0
C1769 C 0.29871 0.33631 0.20387 0.0
C1770 C 0.30108 0.34873 0.22096 0.0
C1771 C 0.28988 0.36083 0.22304 0.0
C1772 C 0.27631 0.36058 0.20803 0.0
C1773 C 0.27387 0.34818 0.19092 0.0
H1774 H 0.29173 0.37042 0.23628 0.0
H1775 H 0.27277 0.25162 0.07023 0.0
H1776 H 0.20102 0.86394 0.03269 0.0
H1777 H 0.18002 0.88317 0.03757 0.0
H1778 H 0.20592 0.92369 0.00616 0.0
H1779 H 0.22709 0.90482 0.00148 0.0
H1780 H 0.20381 0.93899 0.04133 0.0
H1781 H 0.16545 0.89876 0.98723 0.0
H1782 H 0.14923 0.86849 0.96751 0.0
H1783 H 0.12079 0.85521 0.01235 0.0
H1784 H 0.13695 0.88537 0.03241 0.0
H1785 H 0.14499 0.99676 0.02705 0.0
H1786 H 0.16317 0.97406 0.02373 0.0
H1787 H 0.13786 0.9431 0.06331 0.0
H1788 H 0.11977 0.96622 0.06694 0.0
H1789 H 0.13879 0.92164 0.02644 0.0
H1790 H 0.17771 0.96462 0.07951 0.0
H1791 H 0.19481 0.99545 0.09735 0.0
H1792 H 0.22271 0.00424 0.05118 0.0
H1793 H 0.20567 0.97353 0.03301 0.0
C1794 C 0.20215 0.87689 0.02674 0.0
C1795 C 0.21585 0.88316 0.01709 0.0
C1796 C 0.19006 0.88769 0.02934 0.0
C1797 C 0.19153 0.90471 0.02216 0.0
C1798 C 0.20472 0.91056 0.0118 0.0
C1799 C 0.21684 0.89986 0.0093 0.0
C1800 C 0.18079 0.91759 0.02752 0.0
C1801 C 0.18959 0.93528 0.0379 0.0
C1802 C 0.16231 0.91237 0.02342 0.0
C1803 C 0.15254 0.89423 0.01141 0.0
C1804 C 0.15584 0.88932 0.99295 0.0
C1805 C 0.14662 0.87221 0.98169 0.0
C1806 C 0.13403 0.85991 0.98869 0.0
C1807 C 0.13057 0.86474 0.00695 0.0
C1808 C 0.13973 0.88186 0.01826 0.0
C1809 C 0.1436 0.98528 0.03527 0.0
C1810 C 0.13122 0.98303 0.04725 0.0
C1811 C 0.15389 0.9724 0.03338 0.0
C1812 C 0.15177 0.95711 0.04336 0.0
C1813 C 0.1396 0.95497 0.05563 0.0
C1814 C 0.12946 0.96812 0.05779 0.0
C1815 C 0.16189 0.94305 0.04005 0.0
C1816 C 0.153 0.92517 0.03005 0.0
C1817 C 0.18036 0.94817 0.04415 0.0
C1818 C 0.19033 0.96684 0.05486 0.0
C1819 C 0.18737 0.97321 0.07309 0.0
C1820 C 0.19709 0.99063 0.08329 0.0
C1821 C 0.20982 1.00181 0.07539 0.0
C1822 C 0.21285 0.99558 0.05728 0.0
C1823 C 0.20319 0.97815 0.04705 0.0
H1824 H 0.21735 0.01528 0.08332 0.0
H1825 H 0.12692 0.84666 0.97996 0.0
H1826 H 0.72787 0.61421 0.02573 0.0
H1827 H 0.70019 0.59378 0.02963 0.0
H1828 H 0.67146 0.62001 0.98899 0.0
H1829 H 0.6988 0.64058 0.98556 0.0
H1830 H 0.65615 0.61836 0.01818 0.0
H1831 H 0.6776 0.57338 0.97919 0.0
H1832 H 0.69944 0.5557 0.9715 0.0
H1833 H 0.69781 0.53221 0.02339 0.0
H1834 H 0.67614 0.54996 0.03149 0.0
H1835 H 0.57172 0.5542 0.0014 0.0
H1836 H 0.60009 0.57412 0.99907 0.0
H1837 H 0.62632 0.54605 0.03995 0.0
H1838 H 0.5981 0.52592 0.04193 0.0
H1839 H 0.64338 0.54881 0.01217 0.0
H1840 H 0.62094 0.59253 0.05056 0.0
H1841 H 0.60004 0.61109 0.05917 0.0
H1842 H 0.60398 0.63767 0.00937 0.0
H1843 H 0.62469 0.61904 0.00029 0.0
C1844 C 0.71567 0.61523 0.0173 0.0
C1845 C 0.71557 0.62893 0.00524 0.0
C1846 C 0.69979 0.60362 0.01959 0.0
C1847 C 0.68356 0.60526 0.0096 0.0
C1848 C 0.68365 0.61847 0.99702 0.0
C1849 C 0.69937 0.63014 0.99493 0.0
C1850 C 0.66637 0.59382 0.01248 0.0
C1851 C 0.65331 0.60312 0.01662 0.0
C1852 C 0.66264 0.57397 0.01103 0.0
C1853 C 0.6754 0.56309 0.00601 0.0
C1854 C 0.68198 0.56451 0.98899 0.0
C1855 C 0.69432 0.55448 0.98456 0.0
C1856 C 0.70004 0.54288 0.99697 0.0
C1857 C 0.69339 0.54122 0.01381 0.0
C1858 C 0.68107 0.55124 0.01831 0.0
C1859 C 0.58354 0.55239 0.00997 0.0
C1860 C 0.58266 0.53841 0.02178 0.0
C1861 C 0.5998 0.56386 0.00871 0.0
C1862 C 0.61551 0.56176 0.01942 0.0
C1863 C 0.61451 0.54798 0.03145 0.0
C1864 C 0.59832 0.53649 0.03262 0.0
C1865 C 0.63305 0.57332 0.01765 0.0
C1866 C 0.64618 0.56405 0.01375 0.0
C1867 C 0.63684 0.59323 0.01933 0.0
C1868 C 0.6242 0.60423 0.02463 0.0
C1869 C 0.6172 0.60219 0.04133 0.0
C1870 C 0.60542 0.61275 0.04632 0.0
C1871 C 0.60064 0.62551 0.03479 0.0
C1872 C 0.60766 0.62775 0.01826 0.0
C1873 C 0.61942 0.61719 0.01319 0.0
H1874 H 0.59154 0.6337 0.03869 0.0
H1875 H 0.70961 0.53513 0.99353 0.0
H1876 H 0.6425 0.47335 0.27539 0.0
H1877 H 0.65387 0.44584 0.26623 0.0
H1878 H 0.70578 0.47623 0.29495 0.0
H1879 H 0.69462 0.50387 0.30382 0.0
H1880 H 0.70638 0.45855 0.26029 0.0
H1881 H 0.67846 0.44178 0.31407 0.0
H1882 H 0.65341 0.43475 0.33068 0.0
H1883 H 0.62609 0.39085 0.28419 0.0
H1884 H 0.65089 0.39781 0.2672 0.0
H1885 H 0.75629 0.393 0.27761 0.0
H1886 H 0.73968 0.41729 0.27694 0.0
H1887 H 0.69201 0.37463 0.2541 0.0
H1888 H 0.70872 0.35015 0.25601 0.0
H1889 H 0.68527 0.39646 0.2795 0.0
H1890 H 0.71292 0.40927 0.22707 0.0
H1891 H 0.73639 0.41557 0.2082 0.0
H1892 H 0.76225 0.46569 0.24811 0.0
H1893 H 0.73908 0.45957 0.26737 0.0
C1894 C 0.65633 0.47415 0.27985 0.0
C1895 C 0.66766 0.49083 0.29039 0.0
C1896 C 0.66279 0.45838 0.27463 0.0
C1897 C 0.68066 0.45891 0.28001 0.0
C1898 C 0.69195 0.4755 0.2906 0.0
C1899 C 0.68553 0.49128 0.29573 0.0
C1900 C 0.68786 0.44241 0.2745 0.0
C1901 C 0.70189 0.44499 0.26461 0.0
C1902 C 0.68135 0.42442 0.27915 0.0
C1903 C 0.66641 0.42048 0.28928 0.0
C1904 C 0.66703 0.43076 0.30732 0.0
C1905 C 0.6529 0.42676 0.31681 0.0
C1906 C 0.63814 0.41241 0.30847 0.0
C1907 C 0.6375 0.402 0.29062 0.0
C1908 C 0.65158 0.40597 0.28105 0.0
C1909 C 0.74228 0.3889 0.2723 0.0
C1910 C 0.7337 0.36985 0.26686 0.0
C1911 C 0.73279 0.40279 0.27168 0.0
C1912 C 0.71457 0.39794 0.26504 0.0
C1913 C 0.70604 0.37879 0.25921 0.0
C1914 C 0.71553 0.36483 0.26027 0.0
C1915 C 0.7044 0.41275 0.26594 0.0
C1916 C 0.68971 0.40987 0.27485 0.0
C1917 C 0.7101 0.43037 0.26003 0.0
C1918 C 0.7243 0.43388 0.24872 0.0
C1919 C 0.7237 0.42154 0.23192 0.0
C1920 C 0.73693 0.4251 0.22113 0.0
C1921 C 0.75081 0.44101 0.22697 0.0
C1922 C 0.75149 0.45338 0.24361 0.0
C1923 C 0.7383 0.44988 0.25445 0.0
H1924 H 0.76103 0.44376 0.21857 0.0
H1925 H 0.62723 0.40931 0.31586 0.0
H1926 H 0.81714 0.36089 0.52135 0.0
H1927 H 0.84073 0.38728 0.51919 0.0
H1928 H 0.80558 0.42451 0.52049 0.0
H1929 H 0.78166 0.39815 0.52247 0.0
H1930 H 0.8283 0.42569 0.48958 0.0
H1931 H 0.83114 0.42902 0.55893 0.0
H1932 H 0.8301 0.41116 0.58588 0.0
H1933 H 0.87556 0.3922 0.5744 0.0
H1934 H 0.8767 0.40977 0.54722 0.0
H1935 H 0.90128 0.50222 0.49492 0.0
H1936 H 0.87411 0.485 0.5034 0.0
H1937 H 0.90029 0.44206 0.51995 0.0
H1938 H 0.92724 0.45933 0.51197 0.0
H1939 H 0.87924 0.44749 0.54314 0.0
H1940 H 0.87746 0.43867 0.47548 0.0
H1941 H 0.8787 0.44892 0.44413 0.0
H1942 H 0.83306 0.47078 0.44733 0.0
H1943 H 0.83179 0.46105 0.47895 0.0
C1944 C 0.81443 0.37473 0.52159 0.0
C1945 C 0.79749 0.37739 0.52202 0.0
C1946 C 0.82786 0.3897 0.52007 0.0
C1947 C 0.82466 0.40762 0.51937 0.0
C1948 C 0.80807 0.41062 0.5207 0.0
C1949 C 0.79457 0.39562 0.52217 0.0
C1950 C 0.83911 0.42339 0.5184 0.0
C1951 C 0.83928 0.43092 0.50139 0.0
C1952 C 0.85353 0.42947 0.53361 0.0
C1953 C 0.85407 0.42078 0.55119 0.0
C1954 C 0.84101 0.42119 0.56231 0.0
C1955 C 0.84034 0.41104 0.57754 0.0
C1956 C 0.85277 0.40056 0.58187 0.0
C1957 C 0.86599 0.40037 0.57108 0.0
C1958 C 0.86669 0.41048 0.55581 0.0
C1959 C 0.90117 0.48931 0.50076 0.0
C1960 C 0.91603 0.48178 0.50255 0.0
C1961 C 0.88575 0.4795 0.50551 0.0
C1962 C 0.88521 0.46216 0.512 0.0
C1963 C 0.90045 0.45539 0.51493 0.0
C1964 C 0.91575 0.46514 0.51023 0.0
C1965 C 0.86862 0.45005 0.51425 0.0
C1966 C 0.86804 0.44295 0.53149 0.0
C1967 C 0.85414 0.44387 0.49891 0.0
C1968 C 0.8547 0.44943 0.47974 0.0
C1969 C 0.86778 0.44583 0.46959 0.0
C1970 C 0.86849 0.45154 0.45177 0.0
C1971 C 0.85602 0.46058 0.44378 0.0
C1972 C 0.84276 0.46385 0.45357 0.0
C1973 C 0.84205 0.45827 0.47146 0.0
H1974 H 0.85659 0.46499 0.42998 0.0
H1975 H 0.85214 0.39258 0.59357 0.0
H1976 H 0.34151 0.07065 0.25878 0.0
H1977 H 0.32966 0.09842 0.2594 0.0
H1978 H 0.37979 0.13188 0.25449 0.0
H1979 H 0.39207 0.10368 0.25455 0.0
H1980 H 0.36739 0.15431 0.27534 0.0
H1981 H 0.33814 0.11669 0.21598 0.0
H1982 H 0.32085 0.08856 0.19346 0.0
H1983 H 0.27749 0.08759 0.22275 0.0
H1984 H 0.29459 0.1156 0.2456 0.0
H1985 H 0.32999 0.23432 0.261 0.0
H1986 H 0.34357 0.20746 0.25755 0.0
H1987 H 0.29531 0.1702 0.26255 0.0
H1988 H 0.28148 0.19696 0.26496 0.0
H1989 H 0.30769 0.15024 0.23995 0.0
H1990 H 0.33935 0.18789 0.30069 0.0
H1991 H 0.35686 0.21757 0.32063 0.0
H1992 H 0.39613 0.21953 0.28539 0.0
H1993 H 0.37881 0.18989 0.26522 0.0
C1994 C 0.35027 0.08379 0.25777 0.0
C1995 C 0.36803 0.08424 0.25654 0.0
C1996 C 0.34322 0.10002 0.25791 0.0
C1997 C 0.35332 0.11794 0.25647 0.0
C1998 C 0.37123 0.11861 0.2555 0.0
C1999 C 0.3784 0.10222 0.2555 0.0
C2000 C 0.34521 0.13557 0.2564 0.0
C2001 C 0.3544 0.15323 0.26731 0.0
C2002 C 0.32805 0.13508 0.24626 0.0
C2003 C 0.31773 0.11815 0.23264 0.0
C2004 C 0.32497 0.1104 0.21772 0.0
C2005 C 0.31519 0.09449 0.20487 0.0
C2006 C 0.2981 0.08626 0.20671 0.0
C2007 C 0.29074 0.09396 0.22137 0.0
C2008 C 0.30046 0.10987 0.23426 0.0
C2009 C 0.32215 0.22045 0.26138 0.0
C2010 C 0.30439 0.21836 0.26339 0.0
C2011 C 0.33012 0.20478 0.25961 0.0
C2012 C 0.321 0.18607 0.26029 0.0
C2013 C 0.30315 0.18401 0.26201 0.0
C2014 C 0.29511 0.19963 0.26347 0.0
C2015 C 0.32974 0.16886 0.25918 0.0
C2016 C 0.32065 0.15127 0.24803 0.0
C2017 C 0.34705 0.16945 0.26887 0.0
C2018 C 0.35777 0.18676 0.28143 0.0
C2019 C 0.35174 0.19465 0.29725 0.0
C2020 C 0.36162 0.21146 0.30856 0.0
C2021 C 0.37759 0.22044 0.30426 0.0
C2022 C 0.38377 0.21255 0.28871 0.0
C2023 C 0.37396 0.19572 0.27737 0.0
H2024 H 0.38517 0.2335 0.31299 0.0
H2025 H 0.29055 0.07395 0.19675 0.0
H2026 H 0.31574 0.1352 0.54036 0.0
H2027 H 0.3413 0.12203 0.54962 0.0
H2028 H 0.35103 0.11945 0.49196 0.0
H2029 H 0.326 0.13298 0.4828 0.0
H2030 H 0.34906 0.08486 0.50835 0.0
H2031 H 0.37641 0.15207 0.52389 0.0
H2032 H 0.38109 0.18422 0.54142 0.0
H2033 H 0.39285 0.16434 0.5947 0.0
H2034 H 0.38796 0.132 0.57749 0.0
H2035 H 0.42872 0.06219 0.5035 0.0
H2036 H 0.40532 0.07889 0.50243 0.0
H2037 H 0.41307 0.088 0.564 0.0
H2038 H 0.43713 0.07183 0.56526 0.0
H2039 H 0.40527 0.11856 0.5507 0.0
H2040 H 0.37942 0.05369 0.53897 0.0
H2041 H 0.374 0.02028 0.52482 0.0
H2042 H 0.35745 0.03366 0.46927 0.0
H2043 H 0.36304 0.06723 0.48306 0.0
C2044 C 0.32331 0.13175 0.52966 0.0
C2045 C 0.31872 0.135 0.51077 0.0
C2046 C 0.33801 0.1244 0.53503 0.0
C2047 C 0.34818 0.11986 0.52151 0.0
C2048 C 0.34347 0.12293 0.50266 0.0
C2049 C 0.32909 0.13062 0.49743 0.0
C2050 C 0.3631 0.11083 0.52637 0.0
C2051 C 0.3614 0.09232 0.51749 0.0
C2052 C 0.37893 0.12017 0.53908 0.0
C2053 C 0.38152 0.13955 0.5494 0.0
C2054 C 0.37973 0.15449 0.53935 0.0
C2055 C 0.3825 0.17277 0.54923 0.0
C2056 C 0.38719 0.1763 0.56916 0.0
C2057 C 0.38916 0.16157 0.57926 0.0
C2058 C 0.38639 0.14327 0.56945 0.0
C2059 C 0.42578 0.06803 0.51689 0.0
C2060 C 0.43489 0.06547 0.53447 0.0
C2061 C 0.41218 0.07745 0.51624 0.0
C2062 C 0.40711 0.08446 0.53311 0.0
C2063 C 0.41659 0.08264 0.55075 0.0
C2064 C 0.43027 0.0732 0.55143 0.0
C2065 C 0.39141 0.09283 0.53201 0.0
C2066 C 0.3929 0.11107 0.54166 0.0
C2067 C 0.37512 0.08309 0.52047 0.0
C2068 C 0.37181 0.06298 0.51202 0.0
C2069 C 0.37477 0.04953 0.52371 0.0
C2070 C 0.37164 0.03056 0.51576 0.0
C2071 C 0.36543 0.02486 0.49615 0.0
C2072 C 0.36229 0.03811 0.48445 0.0
C2073 C 0.36542 0.0571 0.49233 0.0
H2074 H 0.363 0.01016 0.49002 0.0
H2075 H 0.38935 0.19047 0.57678 0.0
H2076 H 0.65138 0.59258 0.2661 0.0
H2077 H 0.67474 0.61935 0.26377 0.0
H2078 H 0.70717 0.60812 0.31302 0.0
H2079 H 0.68385 0.58073 0.31504 0.0
H2080 H 0.70082 0.6467 0.31405 0.0
H2081 H 0.72003 0.60028 0.27467 0.0
H2082 H 0.7165 0.57429 0.24817 0.0
H2083 H 0.70167 0.60913 0.20767 0.0
H2084 H 0.70485 0.63527 0.23396 0.0
H2085 H 0.77858 0.71436 0.31212 0.0
H2086 H 0.75694 0.68545 0.31302 0.0
H2087 H 0.72751 0.69078 0.25897 0.0
H2088 H 0.74906 0.71988 0.25812 0.0
H2089 H 0.7326 0.65465 0.26002 0.0
H2090 H 0.71046 0.69922 0.29614 0.0
H2091 H 0.71043 0.72566 0.32069 0.0
H2092 H 0.72724 0.69549 0.36492 0.0
H2093 H 0.72735 0.66878 0.34056 0.0
C2094 C 0.66359 0.59568 0.27629 0.0
C2095 C 0.66586 0.58473 0.29082 0.0
C2096 C 0.67691 0.6109 0.27489 0.0
C2097 C 0.69262 0.61566 0.28822 0.0
C2098 C 0.6951 0.60456 0.30258 0.0
C2099 C 0.68187 0.58896 0.3037 0.0
C2100 C 0.7058 0.63307 0.28784 0.0
C2101 C 0.7081 0.64833 0.30248 0.0
C2102 C 0.7145 0.6354 0.27218 0.0
C2103 C 0.71252 0.61969 0.25632 0.0
C2104 C 0.71584 0.60235 0.26013 0.0
C2105 C 0.71394 0.5876 0.24514 0.0
C2106 C 0.70882 0.59004 0.22625 0.0
C2107 C 0.70562 0.60726 0.22231 0.0
C2108 C 0.70748 0.62205 0.23726 0.0
C2109 C 0.76744 0.7094 0.3005 0.0
C2110 C 0.76548 0.71927 0.28506 0.0
C2111 C 0.75509 0.69294 0.30104 0.0
C2112 C 0.74065 0.68599 0.28605 0.0
C2113 C 0.7386 0.69589 0.27063 0.0
C2114 C 0.75085 0.71252 0.27022 0.0
C2115 C 0.72788 0.6682 0.28645 0.0
C2116 C 0.72551 0.65295 0.27173 0.0
C2117 C 0.71877 0.66596 0.3018 0.0
C2118 C 0.71916 0.68211 0.31652 0.0
C2119 C 0.71436 0.69831 0.31109 0.0
C2120 C 0.71428 0.71333 0.32497 0.0
C2121 C 0.71898 0.71235 0.34435 0.0
C2122 C 0.72367 0.69627 0.34989 0.0
C2123 C 0.72371 0.68116 0.33606 0.0
H2124 H 0.71889 0.724 0.35508 0.0
H2125 H 0.70737 0.57861 0.21466 0.0
H2126 H 0.86673 0.46942 0.72263 0.0
H2127 H 0.84963 0.43801 0.72498 0.0
H2128 H 0.85766 0.45347 0.78616 0.0
H2129 H 0.87437 0.48502 0.78371 0.0
H2130 H 0.86656 0.41943 0.77538 0.0
H2131 H 0.81748 0.4469 0.75907 0.0
H2132 H 0.79871 0.46288 0.73952 0.0
H2133 H 0.79051 0.41854 0.69189 0.0
H2134 H 0.80949 0.40245 0.71108 0.0
H2135 H 0.81198 0.33919 0.79976 0.0
H2136 H 0.82561 0.37103 0.7951 0.0
H2137 H 0.81127 0.35411 0.734 0.0
H2138 H 0.79759 0.32221 0.73857 0.0
H2139 H 0.8056 0.38837 0.74322 0.0
H2140 H 0.85343 0.36077 0.75666 0.0
H2141 H 0.87225 0.34323 0.77392 0.0
H2142 H 0.88394 0.38606 0.82345 0.0
H2143 H 0.86492 0.40372 0.80658 0.0
C2144 C 0.86417 0.46641 0.7365 0.0
C2145 C 0.87136 0.48013 0.7529 0.0
C2146 C 0.85453 0.44829 0.73787 0.0
C2147 C 0.85219 0.44311 0.75577 0.0
C2148 C 0.8591 0.45694 0.77213 0.0
C2149 C 0.86844 0.47516 0.77071 0.0
C2150 C 0.84353 0.42312 0.75759 0.0
C2151 C 0.85312 0.41282 0.76858 0.0
C2152 C 0.82625 0.41384 0.74806 0.0
C2153 C 0.8151 0.42363 0.73642 0.0
C2154 C 0.81186 0.44068 0.74436 0.0
C2155 C 0.80114 0.44973 0.73336 0.0
C2156 C 0.79347 0.44176 0.71445 0.0
C2157 C 0.79649 0.42472 0.70652 0.0
C2158 C 0.80723 0.41564 0.71745 0.0
C2159 C 0.81167 0.34218 0.7853 0.0
C2160 C 0.8036 0.32791 0.76957 0.0
C2161 C 0.81959 0.36049 0.78263 0.0
C2162 C 0.81972 0.36523 0.76416 0.0
C2163 C 0.81144 0.35106 0.74843 0.0
C2164 C 0.80363 0.33269 0.75108 0.0
C2165 C 0.8285 0.38485 0.76136 0.0
C2166 C 0.81901 0.39501 0.75008 0.0
C2167 C 0.84602 0.39387 0.77026 0.0
C2168 C 0.85758 0.38344 0.78045 0.0
C2169 C 0.85989 0.36637 0.7713 0.0
C2170 C 0.87061 0.35641 0.781 0.0
C2171 C 0.87923 0.36349 0.7998 0.0
C2172 C 0.87721 0.38058 0.8089 0.0
C2173 C 0.86647 0.39057 0.79928 0.0
H2174 H 0.88752 0.35575 0.80729 0.0
H2175 H 0.78515 0.44878 0.70597 0.0
H2176 H 0.05064 0.84513 0.12419 0.0
H2177 H 0.04629 0.87371 0.11167 0.0
H2178 H 0.04978 0.8483 0.05526 0.0
H2179 H 0.0554 0.82055 0.06805 0.0
H2180 H 0.06638 0.88073 0.05876 0.0
H2181 H 0.00953 0.85614 0.07163 0.0
H2182 H 0.98762 0.84391 0.09074 0.0
H2183 H 1.00276 0.89627 0.12954 0.0
H2184 H 0.02494 0.90872 0.11081 0.0
H2185 H 0.03261 0.94955 0.01023 0.0
H2186 H 0.03464 0.91984 0.02203 0.0
H2187 H 0.04722 0.94922 0.08007 0.0
H2188 H 0.04546 0.97884 0.06827 0.0
H2189 H 0.02185 0.91497 0.07497 0.0
H2190 H 0.07776 0.93907 0.0575 0.0
H2191 H 0.09681 0.94962 0.03495 0.0
H2192 H 0.08046 0.89479 0.00065 0.0
H2193 H 0.06048 0.88417 0.02236 0.0
C2194 C 0.05031 0.84565 0.1091 0.0
C2195 C 0.05337 0.83059 0.09713 0.0
C2196 C 0.04772 0.86199 0.10186 0.0
C2197 C 0.04746 0.86332 0.08233 0.0
C2198 C 0.05004 0.84794 0.07036 0.0
C2199 C 0.05314 0.83194 0.07768 0.0
C2200 C 0.04522 0.88083 0.07436 0.0
C2201 C 0.05638 0.88793 0.0621 0.0
C2202 C 0.0324 0.89066 0.07874 0.0
C2203 C 0.01903 0.88327 0.08996 0.0
C2204 C 0.00827 0.86499 0.08432 0.0
C2205 C 0.9958 0.85803 0.09507 0.0
C2206 C 0.99384 0.86928 0.11138 0.0
C2207 C 1.00432 0.88755 0.11693 0.0
C2208 C 0.01684 0.89457 0.10625 0.0
C2209 C 0.0359 0.94958 0.02548 0.0
C2210 C 0.03918 0.96642 0.03837 0.0
C2211 C 0.03702 0.93265 0.03221 0.0
C2212 C 0.04115 0.93229 0.05197 0.0
C2213 C 0.04402 0.94912 0.06481 0.0
C2214 C 0.04318 0.96604 0.05806 0.0
C2215 C 0.04285 0.91453 0.05936 0.0
C2216 C 0.03167 0.90752 0.07156 0.0
C2217 C 0.05528 0.90446 0.05443 0.0
C2218 C 0.06742 0.91088 0.04147 0.0
C2219 C 0.07802 0.92932 0.04502 0.0
C2220 C 0.08902 0.93531 0.0324 0.0
C2221 C 0.08995 0.92287 0.01646 0.0
C2222 C 0.07974 0.90443 0.01301 0.0
C2223 C 0.06848 0.89844 0.0254 0.0
H2224 H 0.09858 0.92753 0.00679 0.0
H2225 H 0.98418 0.86386 0.11969 0.0
H2226 H 0.93825 0.23479 0.89905 0.0
H2227 H 0.91226 0.23971 0.87935 0.0
H2228 H 0.94494 0.27638 0.84985 0.0
H2229 H 0.97132 0.27136 0.86972 0.0
H2230 H 0.91681 0.2912 0.86131 0.0
H2231 H 0.92414 0.2352 0.8261 0.0
H2232 H 0.92948 0.20332 0.82169 0.0
H2233 H 0.88279 0.18177 0.84306 0.0
H2234 H 0.87731 0.21362 0.84784 0.0
H2235 H 0.84554 0.28991 0.78551 0.0
H2236 H 0.87312 0.28803 0.80488 0.0
H2237 H 0.8444 0.25014 0.83664 0.0
H2238 H 0.81664 0.25217 0.81735 0.0
H2239 H 0.87142 0.23698 0.82311 0.0
H2240 H 0.86414 0.29365 0.85791 0.0
H2241 H 0.85897 0.32564 0.86167 0.0
H2242 H 0.90569 0.34628 0.84 0.0
H2243 H 0.91101 0.31434 0.83586 0.0
C2244 C 0.93998 0.24367 0.88817 0.0
C2245 C 0.95691 0.25248 0.88581 0.0
C2246 C 0.92506 0.24654 0.87694 0.0
C2247 C 0.92655 0.25839 0.86305 0.0
C2248 C 0.94343 0.26715 0.86047 0.0
C2249 C 0.95849 0.26408 0.87163 0.0
C2250 C 0.91032 0.26133 0.8514 0.0
C2251 C 0.90703 0.27941 0.85267 0.0
C2252 C 0.8973 0.24595 0.84047 0.0
C2253 C 0.90041 0.22678 0.83749 0.0
C2254 C 0.91509 0.22368 0.82999 0.0
C2255 C 0.91812 0.20562 0.82739 0.0
C2256 C 0.90651 0.19053 0.83213 0.0
C2257 C 0.89179 0.19347 0.83941 0.0
C2258 C 0.8887 0.21152 0.84205 0.0
C2259 C 0.84508 0.28134 0.79678 0.0
C2260 C 0.82892 0.27115 0.79989 0.0
C2261 C 0.86087 0.28033 0.80788 0.0
C2262 C 0.86089 0.269 0.8223 0.0
C2263 C 0.84473 0.259 0.82562 0.0
C2264 C 0.82887 0.26021 0.81465 0.0
C2265 C 0.8778 0.26681 0.8331 0.0
C2266 C 0.88121 0.24883 0.83167 0.0
C2267 C 0.89092 0.28233 0.84374 0.0
C2268 C 0.88786 0.30157 0.84638 0.0
C2269 C 0.87323 0.30498 0.8538 0.0
C2270 C 0.87029 0.32311 0.85603 0.0
C2271 C 0.88196 0.33797 0.85101 0.0
C2272 C 0.89665 0.33475 0.84384 0.0
C2273 C 0.89964 0.31664 0.84157 0.0
H2274 H 0.87965 0.352 0.85271 0.0
H2275 H 0.90889 0.17655 0.83013 0.0
H2276 H 0.57888 0.23003 0.59262 0.0
H2277 H 0.57317 0.19644 0.58171 0.0
H2278 H 0.51779 0.19144 0.57995 0.0
H2279 H 0.52371 0.22541 0.59223 0.0
H2280 H 0.52702 0.16199 0.59253 0.0
H2281 H 0.5354 0.19131 0.53787 0.0
H2282 H 0.54986 0.21421 0.51947 0.0
H2283 H 0.59645 0.19327 0.52891 0.0
H2284 H 0.58232 0.17037 0.54753 0.0
H2285 H 0.50899 0.07247 0.5333 0.0
H2286 H 0.51067 0.10526 0.54527 0.0
H2287 H 0.56711 0.11629 0.55748 0.0
H2288 H 0.56562 0.08327 0.54536 0.0
H2289 H 0.55424 0.14216 0.53796 0.0
H2290 H 0.54465 0.11289 0.59365 0.0
H2291 H 0.52858 0.08911 0.61005 0.0
H2292 H 0.48188 0.10899 0.59594 0.0
H2293 H 0.49766 0.13278 0.57931 0.0
C2294 C 0.56545 0.22184 0.58979 0.0
C2295 C 0.55167 0.23033 0.59281 0.0
C2296 C 0.56219 0.20262 0.58353 0.0
C2297 C 0.545 0.19152 0.57939 0.0
C2298 C 0.53115 0.19982 0.58286 0.0
C2299 C 0.5345 0.21916 0.58973 0.0
C2300 C 0.54185 0.17135 0.57124 0.0
C2301 C 0.5327 0.15766 0.58039 0.0
C2302 C 0.54936 0.16562 0.55548 0.0
C2303 C 0.55784 0.17922 0.54415 0.0
C2304 C 0.54875 0.19166 0.53608 0.0
C2305 C 0.55688 0.20462 0.52561 0.0
C2306 C 0.57407 0.20521 0.52304 0.0
C2307 C 0.58314 0.1928 0.5309 0.0
C2308 C 0.57507 0.17979 0.54138 0.0
C2309 C 0.52181 0.08182 0.53849 0.0
C2310 C 0.53722 0.07529 0.53837 0.0
C2311 C 0.5227 0.10053 0.54545 0.0
C2312 C 0.53898 0.11304 0.5525 0.0
C2313 C 0.55442 0.10671 0.55216 0.0
C2314 C 0.55356 0.08792 0.54519 0.0
C2315 C 0.53989 0.13294 0.55954 0.0
C2316 C 0.54851 0.14654 0.55005 0.0
C2317 C 0.53164 0.13846 0.57471 0.0
C2318 C 0.5223 0.12452 0.58515 0.0
C2319 C 0.53094 0.11213 0.59399 0.0
C2320 C 0.52189 0.09866 0.60334 0.0
C2321 C 0.50421 0.09752 0.604 0.0
C2322 C 0.49557 0.1099 0.59541 0.0
C2323 C 0.50457 0.1234 0.58607 0.0
H2324 H 0.49722 0.08705 0.61121 0.0
H2325 H 0.58035 0.21528 0.51495 0.0
H2326 H 0.54794 0.77674 0.35801 0.0
H2327 H 0.57666 0.78092 0.34846 0.0
H2328 H 0.59838 0.76565 0.40153 0.0
H2329 H 0.56945 0.76088 0.41099 0.0
H2330 H 0.6199 0.80018 0.3881 0.0
H2331 H 0.59327 0.73432 0.36946 0.0
H2332 H 0.56973 0.70643 0.35458 0.0
H2333 H 0.56921 0.72492 0.29997 0.0
H2334 H 0.59257 0.75311 0.31461 0.0
H2335 H 0.69758 0.78011 0.35412 0.0
H2336 H 0.67212 0.78022 0.36978 0.0
H2337 H 0.64144 0.78531 0.31645 0.0
H2338 H 0.66657 0.78511 0.30078 0.0
H2339 H 0.62558 0.75581 0.33282 0.0
H2340 H 0.65304 0.82142 0.35138 0.0
H2341 H 0.67644 0.84942 0.36629 0.0
H2342 H 0.67606 0.83174 0.42117 0.0
H2343 H 0.6528 0.80345 0.40655 0.0
C2344 C 0.55879 0.77424 0.36768 0.0
C2345 C 0.55628 0.76831 0.38521 0.0
C2346 C 0.57525 0.77672 0.36222 0.0
C2347 C 0.58975 0.77372 0.3743 0.0
C2348 C 0.58744 0.76817 0.39201 0.0
C2349 C 0.57084 0.76528 0.39731 0.0
C2350 C 0.60693 0.77531 0.36772 0.0
C2351 C 0.62129 0.79031 0.37623 0.0
C2352 C 0.60869 0.76269 0.35202 0.0
C2353 C 0.59449 0.74594 0.34318 0.0
C2354 C 0.58797 0.73256 0.35432 0.0
C2355 C 0.57471 0.71667 0.34593 0.0
C2356 C 0.56794 0.71393 0.32635 0.0
C2357 C 0.57444 0.72708 0.31513 0.0
C2358 C 0.5877 0.74302 0.32348 0.0
C2359 C 0.68544 0.78137 0.34576 0.0
C2360 C 0.68421 0.78258 0.32612 0.0
C2361 C 0.67092 0.78159 0.35478 0.0
C2362 C 0.6548 0.78281 0.34433 0.0
C2363 C 0.65369 0.7844 0.32487 0.0
C2364 C 0.66818 0.78439 0.31593 0.0
C2365 C 0.63864 0.7808 0.35298 0.0
C2366 C 0.62436 0.76566 0.3448 0.0
C2367 C 0.6371 0.79331 0.369 0.0
C2368 C 0.65133 0.81013 0.3778 0.0
C2369 C 0.65809 0.82334 0.36659 0.0
C2370 C 0.67129 0.83931 0.375 0.0
C2371 C 0.67778 0.84231 0.39465 0.0
C2372 C 0.67105 0.82936 0.40594 0.0
C2373 C 0.65785 0.81336 0.39759 0.0
H2374 H 0.68796 0.85471 0.40114 0.0
H2375 H 0.55769 0.7016 0.31987 0.0
H2376 H 0.0096 0.25436 0.44793 0.0
H2377 H 0.00702 0.22168 0.45291 0.0
H2378 H 0.01624 0.20673 0.39587 0.0
H2379 H 0.01914 0.23948 0.39084 0.0
H2380 H 0.98465 0.18225 0.41129 0.0
H2381 H 0.04725 0.20683 0.42064 0.0
H2382 H 0.07326 0.23296 0.43263 0.0
H2383 H 0.06456 0.23131 0.49013 0.0
H2384 H 0.03821 0.20542 0.4784 0.0
H2385 H 0.01385 0.10033 0.44815 0.0
H2386 H 0.00931 0.12459 0.42858 0.0
H2387 H 0.998 0.15765 0.47697 0.0
H2388 H 1.00227 0.13355 0.4965 0.0
H2389 H 0.03176 0.16995 0.45873 0.0
H2390 H 0.96815 0.14823 0.44935 0.0
H2391 H 0.94018 0.12473 0.4378 0.0
H2392 H 0.94991 0.12187 0.38034 0.0
H2393 H 0.97819 0.14507 0.39166 0.0
C2394 C 0.01142 0.24415 0.43665 0.0
C2395 C 0.01494 0.2493 0.41922 0.0
C2396 C 0.00966 0.22559 0.43935 0.0
C2397 C 0.01123 0.21211 0.42458 0.0
C2398 C 0.01485 0.21715 0.40721 0.0
C2399 C 0.01689 0.23581 0.40459 0.0
C2400 C 0.01056 0.19306 0.42825 0.0
C2401 C 0.99507 0.17921 0.42122 0.0
C2402 C 0.0242 0.18962 0.44131 0.0
C2403 C 0.04076 0.20419 0.44864 0.0
C2404 C 0.05088 0.21205 0.43584 0.0
C2405 C 0.06565 0.22684 0.44258 0.0
C2406 C 0.07056 0.2338 0.46213 0.0
C2407 C 0.06075 0.22589 0.47499 0.0
C2408 C 0.0459 0.21112 0.46831 0.0
C2409 C 0.00972 0.11246 0.45432 0.0
C2410 C 0.00842 0.11523 0.47375 0.0
C2411 C 0.00708 0.12615 0.44317 0.0
C2412 C 1.0033 0.14262 0.4515 0.0
C2413 C 1.00069 0.14476 0.47043 0.0
C2414 C 1.00309 0.13102 0.48149 0.0
C2415 C 0.00565 0.15913 0.4421 0.0
C2416 C 0.02156 0.17259 0.44819 0.0
C2417 C 0.99239 0.1621 0.42817 0.0
C2418 C 0.97546 0.14809 0.42141 0.0
C2419 C 0.96449 0.14235 0.43431 0.0
C2420 C 0.94854 0.12914 0.42779 0.0
C2421 C 0.94332 0.12173 0.40836 0.0
C2422 C 0.95402 0.12756 0.3954 0.0
C2423 C 0.97001 0.14072 0.40186 0.0
H2424 H 0.93094 0.11153 0.40332 0.0
H2425 H 0.08197 0.2453 0.46731 0.0
H2426 H 0.60489 0.24765 0.24286 0.0
H2427 H 0.63691 0.25558 0.24751 0.0
H2428 H 0.63499 0.28885 0.20202 0.0
H2429 H 0.60322 0.28179 0.1977 0.0
H2430 H 0.64855 0.24977 0.20029 0.0
H2431 H 0.65729 0.31446 0.23034 0.0
H2432 H 0.6502 0.33836 0.25311 0.0
H2433 H 0.6673 0.31109 0.29976 0.0
H2434 H 0.67439 0.28695 0.2772 0.0
H2435 H 0.74657 0.27453 0.2204 0.0
H2436 H 0.71651 0.27772 0.21032 0.0
H2437 H 0.69913 0.2436 0.25176 0.0
H2438 H 0.72894 0.23981 0.26136 0.0
H2439 H 0.69682 0.28863 0.25107 0.0
H2440 H 0.67832 0.22065 0.22144 0.0
H2441 H 0.68565 0.19495 0.20116 0.0
H2442 H 0.6874 0.22767 0.15547 0.0
H2443 H 0.68028 0.25366 0.17567 0.0
C2444 C 0.61132 0.25727 0.23442 0.0
C2445 C 0.60164 0.26373 0.21967 0.0
C2446 C 0.6295 0.26175 0.23706 0.0
C2447 C 0.63791 0.27254 0.22488 0.0
C2448 C 0.62846 0.28051 0.21145 0.0
C2449 C 0.61035 0.27642 0.20908 0.0
C2450 C 0.65604 0.27262 0.22415 0.0
C2451 C 0.65924 0.25864 0.21097 0.0
C2452 C 0.66962 0.28397 0.23836 0.0
C2453 C 0.66633 0.29893 0.25211 0.0
C2454 C 0.65953 0.31358 0.24546 0.0
C2455 C 0.65551 0.32716 0.25832 0.0
C2456 C 0.65828 0.32623 0.27787 0.0
C2457 C 0.6652 0.3118 0.28461 0.0
C2458 C 0.66928 0.29821 0.27181 0.0
C2459 C 0.73608 0.267 0.22658 0.0
C2460 C 0.73965 0.2568 0.24137 0.0
C2461 C 0.71916 0.26904 0.22108 0.0
C2462 C 0.70608 0.26112 0.23065 0.0
C2463 C 0.70935 0.24975 0.2444 0.0
C2464 C 0.72616 0.24736 0.2496 0.0
C2465 C 0.68918 0.26572 0.22732 0.0
C2466 C 0.68625 0.28038 0.23985 0.0
C2467 C 0.6758 0.25495 0.21261 0.0
C2468 C 0.67872 0.23897 0.19996 0.0
C2469 C 0.68018 0.22227 0.20702 0.0
C2470 C 0.68435 0.20771 0.19559 0.0
C2471 C 0.68697 0.20967 0.17703 0.0
C2472 C 0.68533 0.22617 0.16984 0.0
C2473 C 0.6812 0.2408 0.18126 0.0
H2474 H 0.69028 0.19841 0.16822 0.0
H2475 H 0.65507 0.3367 0.2878 0.0
H2476 H 0.4971 0.83085 0.93267 0.0
H2477 H 0.50171 0.86131 0.95219 0.0
H2478 H 0.53404 0.88699 0.91468 0.0
H2479 H 0.53006 0.85576 0.8953 0.0
H2480 H 0.54805 0.90012 0.95135 0.0
H2481 H 0.493 0.8971 0.91317 0.0
H2482 H 0.46287 0.88336 0.89558 0.0
H2483 H 0.44649 0.86983 0.94764 0.0
H2484 H 0.47648 0.8839 0.96561 0.0
H2485 H 0.532 0.98847 0.98251 0.0
H2486 H 0.5305 0.9583 0.96402 0.0
H2487 H 0.52058 0.93087 0.01248 0.0
H2488 H 0.52279 0.96173 0.03181 0.0
H2489 H 0.49606 0.91982 0.96986 0.0
H2490 H 0.55472 0.9289 0.00724 0.0
H2491 H 0.5843 0.94851 0.02094 0.0
H2492 H 0.59373 0.95577 0.9646 0.0
H2493 H 0.56408 0.93645 0.95057 0.0
C2494 C 0.50512 0.84301 0.92852 0.0
C2495 C 0.51307 0.84128 0.91249 0.0
C2496 C 0.50766 0.86036 0.93958 0.0
C2497 C 0.51774 0.87634 0.93445 0.0
C2498 C 0.52604 0.8747 0.91861 0.0
C2499 C 0.5238 0.85705 0.90765 0.0
C2500 C 0.5198 0.89447 0.94643 0.0
C2501 C 0.53672 0.90462 0.95521 0.0
C2502 C 0.50497 0.90019 0.95137 0.0
C2503 C 0.48697 0.89143 0.94068 0.0
C2504 C 0.48298 0.8911 0.92083 0.0
C2505 C 0.46592 0.88331 0.91081 0.0
C2506 C 0.45279 0.87558 0.92045 0.0
C2507 C 0.45667 0.8758 0.94018 0.0
C2508 C 0.47367 0.8838 0.95032 0.0
C2509 C 0.52946 0.9761 0.98935 0.0
C2510 C 0.52746 0.97725 0.00856 0.0
C2511 C 0.52876 0.95896 0.97878 0.0
C2512 C 0.5257 0.94274 0.98715 0.0
C2513 C 0.52319 0.94356 0.00613 0.0
C2514 C 0.52434 0.96097 0.017 0.0
C2515 C 0.5242 0.92496 0.97517 0.0
C2516 C 0.50735 0.9151 0.96614 0.0
C2517 C 0.53911 0.92011 0.96947 0.0
C2518 C 0.55713 0.93131 0.97787 0.0
C2519 C 0.56305 0.93478 0.99778 0.0
C2520 C 0.57984 0.94583 0.0056 0.0
C2521 C 0.59088 0.9534 0.99365 0.0
C2522 C 0.58517 0.94989 0.97384 0.0
C2523 C 0.56838 0.93886 0.96594 0.0
H2524 H 0.60387 0.96196 -0.00026 0.0
H2525 H 0.43961 0.86948 0.91265 0.0
H2526 H 0.99575 0.71648 0.70651 0.0
H2527 H 0.96858 0.72218 0.71521 0.0
H2528 H 0.98431 0.78032 0.70791 0.0
H2529 H 0.0115 0.7747 0.69888 0.0
H2530 H 0.97595 0.77208 0.74513 0.0
H2531 H 0.95224 0.75718 0.67742 0.0
H2532 H 0.94733 0.73731 0.64589 0.0
H2533 H 0.91929 0.69044 0.66776 0.0
H2534 H 0.92417 0.71002 0.69949 0.0
H2535 H 0.9013 0.80105 0.76303 0.0
H2536 H 0.92634 0.79419 0.75029 0.0
H2537 H 0.90216 0.73464 0.74138 0.0
H2538 H 0.8765 0.74168 0.75338 0.0
H2539 H 0.91492 0.74299 0.71158 0.0
H2540 H 0.93818 0.75564 0.77851 0.0
H2541 H 0.94556 0.7726 0.81163 0.0
H2542 H 0.97631 0.82033 0.79348 0.0
H2543 H 0.96898 0.80372 0.76021 0.0
C2544 C 0.99334 0.73043 0.7066 0.0
C2545 C 0.0057 0.74523 0.70227 0.0
C2546 C 0.97783 0.73359 0.71139 0.0
C2547 C 0.97462 0.7516 0.71205 0.0
C2548 C 0.9867 0.76632 0.70731 0.0
C2549 C 1.00214 0.7631 0.70222 0.0
C2550 C 0.95944 0.75533 0.71957 0.0
C2551 C 0.96256 0.7661 0.73773 0.0
C2552 C 0.94221 0.74663 0.71007 0.0
C2553 C 0.93862 0.73504 0.69083 0.0
C2554 C 0.94506 0.74262 0.67551 0.0
C2555 C 0.94227 0.73142 0.65761 0.0
C2556 C 0.93302 0.71262 0.65483 0.0
C2557 C 0.92644 0.70502 0.66993 0.0
C2558 C 0.92916 0.71618 0.68786 0.0
C2559 C 0.9015 0.7865 0.75863 0.0
C2560 C 0.88725 0.77184 0.75932 0.0
C2561 C 0.91578 0.78257 0.7514 0.0
C2562 C 0.91623 0.76389 0.74526 0.0
C2563 C 0.90203 0.74915 0.74613 0.0
C2564 C 0.88752 0.75312 0.75303 0.0
C2565 C 0.93133 0.76003 0.73728 0.0
C2566 C 0.92825 0.74913 0.71905 0.0
C2567 C 0.94871 0.7683 0.74691 0.0
C2568 C 0.9529 0.77849 0.76685 0.0
C2569 C 0.94639 0.76982 0.78156 0.0
C2570 C 0.9506 0.77935 0.80036 0.0
C2571 C 0.96137 0.79754 0.80465 0.0
C2572 C 0.96796 0.80624 0.79014 0.0
C2573 C 0.9638 0.79676 0.77131 0.0
H2574 H 0.96463 0.80489 0.81923 0.0
H2575 H 0.93093 0.70394 0.64098 0.0
H2576 H 0.12994 0.03627 0.85948 0.0
H2577 H 0.11814 0.03192 0.88868 0.0
H2578 H 0.06584 0.01279 0.85505 0.0
H2579 H 0.07763 0.01853 0.82613 0.0
H2580 H 0.06432 0.03537 0.88359 0.0
H2581 H 0.09093 0.98255 0.87776 0.0
H2582 H 0.11502 0.96688 0.87401 0.0
H2583 H 0.1459 1.00038 0.92615 0.0
H2584 H 0.12207 0.0164 0.93007 0.0
H2585 H 0.02637 0.9902 0.95684 0.0
H2586 H 0.03877 0.99479 0.92801 0.0
H2587 H 0.08329 0.03587 0.96184 0.0
H2588 H 0.07057 0.032 0.9906 0.0
H2589 H 0.08879 1.0027 0.93409 0.0
H2590 H 0.06104 0.05469 0.93974 0.0
H2591 H 0.03681 0.07028 0.94265 0.0
H2592 H 0.00716 0.03705 0.88982 0.0
H2593 H 0.0311 0.02096 0.8868 0.0
C2594 C 0.11599 0.03075 0.8584 0.0
C2595 C 0.10466 0.02741 0.84069 0.0
C2596 C 0.10922 0.02824 0.87504 0.0
C2597 C 0.09107 0.02172 0.87412 0.0
C2598 C 0.07986 0.01784 0.85621 0.0
C2599 C 0.08658 0.02091 0.83968 0.0
C2600 C 0.08364 0.01978 0.89182 0.0
C2601 C 0.06952 0.02793 0.89444 0.0
C2602 C 0.09063 0.01054 0.90632 0.0
C2603 C 0.1048 1.00073 0.90413 0.0
C2604 C 0.1029 0.98661 0.88837 0.0
C2605 C 0.1165 0.97768 0.88622 0.0
C2606 C 0.13199 0.98266 0.89982 0.0
C2607 C 0.1339 0.99654 0.91563 0.0
C2608 C 0.12035 0.00553 0.91784 0.0
C2609 C 0.03885 1.00013 0.95816 0.0
C2610 C 0.04766 0.01059 0.97602 0.0
C2611 C 0.04583 1.00282 0.94168 0.0
C2612 C 0.06187 0.0157 0.94289 0.0
C2613 C 0.07086 0.02589 0.96071 0.0
C2614 C 0.06366 0.02358 0.97711 0.0
C2615 C 0.0695 0.01805 0.92557 0.0
C2616 C 0.0836 0.01 0.92309 0.0
C2617 C 0.06236 0.02716 0.91112 0.0
C2618 C 0.04774 0.03639 0.91322 0.0
C2619 C 0.04923 0.05046 0.92892 0.0
C2620 C 0.03558 0.05946 0.93054 0.0
C2621 C 0.02042 0.0546 0.91647 0.0
C2622 C 0.01889 0.04075 0.90074 0.0
C2623 C 0.03249 0.03168 0.89908 0.0
H2624 H 0.00989 0.06163 0.91772 0.0
H2625 H 0.14252 0.97574 0.89811 0.0
H2626 H 0.76305 0.2884 0.5297 0.0
H2627 H 0.77182 0.29203 0.56451 0.0
H2628 H 0.7497 0.34062 0.57107 0.0
H2629 H 0.73979 0.33619 0.53678 0.0
H2630 H 0.79571 0.32896 0.57982 0.0
H2631 H 0.74 0.34281 0.60178 0.0
H2632 H 0.70767 0.33304 0.59578 0.0
H2633 H 0.71024 0.27572 0.5986 0.0
H2634 H 0.74261 0.28517 0.60415 0.0
H2635 H 0.80486 0.32855 0.69065 0.0
H2636 H 0.79977 0.3438 0.66244 0.0
H2637 H 0.80238 0.29351 0.6264 0.0
H2638 H 0.80697 0.27817 0.65399 0.0
H2639 H 0.76691 0.31892 0.63566 0.0
H2640 H 0.81977 0.30381 0.60328 0.0
H2641 H 0.85193 0.31086 0.6061 0.0
H2642 H 0.85473 0.36975 0.62205 0.0
H2643 H 0.82259 0.36286 0.61992 0.0
C2644 C 0.75911 0.29902 0.53875 0.0
C2645 C 0.75066 0.31186 0.5308 0.0
C2646 C 0.76423 0.30124 0.55848 0.0
C2647 C 0.76132 0.31657 0.57016 0.0
C2648 C 0.75157 0.32841 0.56233 0.0
C2649 C 0.74592 0.32582 0.54271 0.0
C2650 C 0.77115 0.32195 0.58969 0.0
C2651 C 0.78946 0.32719 0.59214 0.0
C2652 C 0.76288 0.32022 0.60559 0.0
C2653 C 0.7436 0.31465 0.60327 0.0
C2654 C 0.73363 0.32813 0.60109 0.0
C2655 C 0.71532 0.32265 0.59771 0.0
C2656 C 0.7069 0.30377 0.59678 0.0
C2657 C 0.71678 0.29033 0.59928 0.0
C2658 C 0.73509 0.29573 0.6025 0.0
C2659 C 0.8051 0.32109 0.67674 0.0
C2660 C 0.80588 0.30204 0.67441 0.0
C2661 C 0.80233 0.32987 0.66074 0.0
C2662 C 0.80085 0.31976 0.64251 0.0
C2663 C 0.80401 0.30169 0.64045 0.0
C2664 C 0.80659 0.29288 0.65631 0.0
C2665 C 0.79156 0.32528 0.62573 0.0
C2666 C 0.77322 0.3219 0.6236 0.0
C2667 C 0.79976 0.32877 0.61006 0.0
C2668 C 0.81896 0.33281 0.61181 0.0
C2669 C 0.82731 0.31821 0.60767 0.0
C2670 C 0.8455 0.32217 0.60914 0.0
C2671 C 0.85538 0.34074 0.61435 0.0
C2672 C 0.84708 0.35536 0.61817 0.0
C2673 C 0.8289 0.35143 0.61698 0.0
H2674 H 0.86946 0.3438 0.61536 0.0
H2675 H 0.69273 0.29954 0.59415 0.0
H2676 H 0.42678 0.0056 0.31443 0.0
H2677 H 0.44051 1.00332 0.34675 0.0
H2678 H 0.46681 0.06201 0.35523 0.0
H2679 H 0.45306 0.06418 0.32247 0.0
H2680 H 0.48971 0.04245 0.36883 0.0
H2681 H 0.43002 0.04132 0.37831 0.0
H2682 H 0.39801 0.0284 0.37064 0.0
H2683 H 0.40518 0.97413 0.38129 0.0
H2684 H 0.43723 0.98667 0.3888 0.0
H2685 H 0.52623 0.05281 0.46716 0.0
H2686 H 0.50999 0.05419 0.43585 0.0
H2687 H 0.47799 0.99872 0.4345 0.0
H2688 H 0.494 0.99771 0.4666 0.0
H2689 H 0.45747 0.0149 0.4166 0.0
H2690 H 0.51328 0.01102 0.40592 0.0
H2691 H 0.54547 0.01781 0.40965 0.0
H2692 H 0.5465 0.07355 0.39703 0.0
H2693 H 0.5143 0.06717 0.39349 0.0
C2694 C 0.43504 0.01825 0.32333 0.0
C2695 C 0.43811 0.03527 0.31572 0.0
C2696 C 0.44306 0.01691 0.34205 0.0
C2697 C 0.45474 0.03252 0.3542 0.0
C2698 C 0.45784 0.04962 0.34663 0.0
C2699 C 0.4497 0.05099 0.32781 0.0
C2700 C 0.46409 0.03078 0.37425 0.0
C2701 C 0.48251 0.03681 0.37935 0.0
C2702 C 0.45526 0.02228 0.38805 0.0
C2703 C 0.43601 0.01492 0.38402 0.0
C2704 C 0.42476 0.02662 0.37896 0.0
C2705 C 0.40662 0.01936 0.37464 0.0
C2706 C 0.39957 1.00045 0.37545 0.0
C2707 C 0.41065 0.98877 0.38066 0.0
C2708 C 0.4288 0.99596 0.38498 0.0
C2709 C 0.51571 0.04082 0.46033 0.0
C2710 C 0.5117 0.02512 0.46979 0.0
C2711 C 0.5064 0.04153 0.44202 0.0
C2712 C 0.49273 0.02638 0.43183 0.0
C2713 C 0.48839 0.01075 0.44148 0.0
C2714 C 0.49765 0.01012 0.46005 0.0
C2715 C 0.48315 0.02715 0.4115 0.0
C2716 C 0.46472 0.0208 0.40624 0.0
C2717 C 0.49203 0.0346 0.39719 0.0
C2718 C 0.5114 0.0387 0.39967 0.0
C2719 C 0.52039 0.02479 0.40413 0.0
C2720 C 0.53863 0.02855 0.40617 0.0
C2721 C 0.54803 0.04612 0.40364 0.0
C2722 C 0.5392 0.05996 0.39903 0.0
C2723 C 0.52095 0.05628 0.397 0.0
H2724 H 0.56215 0.04899 0.40519 0.0
H2725 H 0.38552 0.99485 0.37206 0.0
H2726 H 0.76638 0.72576 0.05977 0.0
H2727 H 0.7724 0.73759 0.09385 0.0
H2728 H 0.79867 0.69326 0.10468 0.0
H2729 H 0.79244 0.68108 0.07034 0.0
H2730 H 0.77405 0.69323 0.12527 0.0
H2731 H 0.8215 0.73938 0.11625 0.0
H2732 H 0.83864 0.76437 0.10211 0.0
H2733 H 0.80399 0.80001 0.11403 0.0
H2734 H 0.78651 0.77515 0.12805 0.0
H2735 H 0.79619 0.73169 0.22457 0.0
H2736 H 0.79728 0.72122 0.19127 0.0
H2737 H 0.76083 0.75425 0.17299 0.0
H2738 H 0.7595 0.76469 0.20667 0.0
H2739 H 0.79384 0.75964 0.15764 0.0
H2740 H 0.74572 0.70961 0.16546 0.0
H2741 H 0.73238 0.68467 0.18244 0.0
H2742 H 0.77341 0.65621 0.17511 0.0
H2743 H 0.78709 0.68112 0.15827 0.0
C2744 C 0.77377 0.71873 0.06933 0.0
C2745 C 0.77871 0.70232 0.0624 0.0
C2746 C 0.77734 0.72562 0.08883 0.0
C2747 C 0.786 0.71633 0.10182 0.0
C2748 C 0.79195 0.70063 0.09487 0.0
C2749 C 0.78843 0.69372 0.07526 0.0
C2750 C 0.78654 0.72158 0.12254 0.0
C2751 C 0.77871 0.70771 0.13241 0.0
C2752 C 0.79243 0.74047 0.13187 0.0
C2753 C 0.80259 0.75532 0.12302 0.0
C2754 C 0.81741 0.75246 0.11566 0.0
C2755 C 0.82722 0.76663 0.10772 0.0
C2756 C 0.82238 0.78375 0.10712 0.0
C2757 C 0.80772 0.78674 0.11448 0.0
C2758 C 0.79787 0.77262 0.12245 0.0
C2759 C 0.78823 0.73654 0.21343 0.0
C2760 C 0.77777 0.74898 0.21802 0.0
C2761 C 0.78887 0.73054 0.19447 0.0
C2762 C 0.77916 0.737 0.1798 0.0
C2763 C 0.76839 0.74916 0.18425 0.0
C2764 C 0.76753 0.75497 0.20335 0.0
C2765 C 0.78088 0.73143 0.15987 0.0
C2766 C 0.78924 0.74521 0.15033 0.0
C2767 C 0.77589 0.71241 0.151 0.0
C2768 C 0.76747 0.69726 0.16074 0.0
C2769 C 0.75193 0.69807 0.16756 0.0
C2770 C 0.74431 0.68394 0.17714 0.0
C2771 C 0.75206 0.66888 0.17988 0.0
C2772 C 0.76742 0.66789 0.17298 0.0
C2773 C 0.77509 0.68198 0.16339 0.0
H2774 H 0.74615 0.65797 0.18733 0.0
H2775 H 0.83 0.79471 0.10099 0.0
H2776 H 0.0826 0.0483 0.73911 0.0
H2777 H 0.07195 0.04246 0.7048 0.0
H2778 H 0.10048 0.99903 0.69828 0.0
H2779 H 0.1116 0.00507 0.73284 0.0
H2780 H 0.10625 0.02301 0.67312 0.0
H2781 H 0.05598 0.98692 0.69125 0.0
H2782 H 0.03228 0.97983 0.70969 0.0
H2783 H 0.01178 0.02548 0.69123 0.0
H2784 H 0.03549 0.03298 0.67285 0.0
H2785 H 0.06189 0.99433 0.57509 0.0
H2786 H 0.07247 0.99435 0.60897 0.0
H2787 H 0.05516 0.04505 0.6237 0.0
H2788 H 0.04465 0.04528 0.5898 0.0
H2789 H 0.04363 0.01368 0.64375 0.0
H2790 H 0.09572 0.05085 0.62762 0.0
H2791 H 0.11864 0.05662 0.60798 0.0
H2792 H 0.13494 0.00706 0.62173 0.0
H2793 H 0.11194 1.00088 0.64127 0.0
C2794 C 0.08645 0.0373 0.73048 0.0
C2795 C 0.09798 0.02717 0.73871 0.0
C2796 C 0.08028 0.03393 0.71084 0.0
C2797 C 0.08532 0.02021 0.69904 0.0
C2798 C 0.09644 0.00967 0.7072 0.0
C2799 C 0.10268 0.01306 0.72693 0.0
C2800 C 0.07966 0.01781 0.67811 0.0
C2801 C 0.09253 0.02058 0.66665 0.0
C2802 C 0.0618 0.01496 0.66972 0.0
C2803 C 0.04758 0.01058 0.68081 0.0
C2804 C 0.0465 0.99553 0.69125 0.0
C2805 C 0.03304 0.99142 0.70166 0.0
C2806 C 0.02055 1.00222 0.70166 0.0
C2807 C 0.02147 0.01713 0.69122 0.0
C2808 C 0.03489 0.0213 0.68078 0.0
C2809 C 0.06034 0.00549 0.58555 0.0
C2810 C 0.05235 0.01974 0.57989 0.0
C2811 C 0.06647 0.00552 0.60482 0.0
C2812 C 0.06455 0.0197 0.61865 0.0
C2813 C 0.0567 0.03402 0.61309 0.0
C2814 C 0.05078 0.03415 0.59379 0.0
C2815 C 0.0702 0.01924 0.63903 0.0
C2816 C 0.05731 0.01591 0.65029 0.0
C2817 C 0.08799 0.02142 0.64715 0.0
C2818 C 0.10203 0.02531 0.63575 0.0
C2819 C 0.10412 0.04112 0.62635 0.0
C2820 C 0.11713 0.04448 0.61526 0.0
C2821 C 0.12821 0.03219 0.61357 0.0
C2822 C 0.12634 0.01656 0.62303 0.0
C2823 C 0.11333 0.01314 0.63414 0.0
H2824 H 0.13827 0.0348 0.60495 0.0
H2825 H 0.01014 0.99901 0.70973 0.0
H2826 H 0.73203 0.34486 0.42895 0.0
H2827 H 0.73528 0.32306 0.40201 0.0
H2828 H 0.7599 0.29195 0.44099 0.0
H2829 H 0.7544 0.31218 0.46785 0.0
H2830 H 0.7818 0.31911 0.41932 0.0
H2831 H 0.73573 0.2637 0.41008 0.0
H2832 H 0.70532 0.24614 0.40863 0.0
H2833 H 0.68755 0.27342 0.36228 0.0
H2834 H 0.71788 0.29118 0.36349 0.0
H2835 H 0.8004 0.26572 0.33899 0.0
H2836 H 0.79879 0.28481 0.36864 0.0
H2837 H 0.75934 0.30801 0.33788 0.0
H2838 H 0.75989 0.28784 0.30856 0.0
H2839 H 0.74713 0.28093 0.35851 0.0
H2840 H 0.79239 0.33763 0.36813 0.0
H2841 H 0.8224 0.35624 0.36948 0.0
H2842 H 0.84178 0.32862 0.41475 0.0
H2843 H 0.81189 0.30971 0.41358 0.0
C2844 C 0.73728 0.33279 0.43165 0.0
C2845 C 0.74441 0.3309 0.45009 0.0
C2846 C 0.73904 0.32035 0.41641 0.0
C2847 C 0.74831 0.30653 0.41989 0.0
C2848 C 0.753 0.30288 0.43834 0.0
C2849 C 0.75049 0.31483 0.45355 0.0
C2850 C 0.75715 0.3004 0.40505 0.0
C2851 C 0.77455 0.3103 0.40607 0.0
C2852 C 0.74724 0.28956 0.38799 0.0
C2853 C 0.72903 0.27872 0.38688 0.0
C2854 C 0.72531 0.26596 0.3996 0.0
C2855 C 0.70811 0.25596 0.39881 0.0
C2856 C 0.69451 0.25866 0.38537 0.0
C2857 C 0.69811 0.27131 0.37264 0.0
C2858 C 0.71531 0.28129 0.37332 0.0
C2859 C 0.79157 0.2751 0.33865 0.0
C2860 C 0.7798 0.27506 0.32199 0.0
C2861 C 0.79112 0.28643 0.35534 0.0
C2862 C 0.77883 0.29752 0.35521 0.0
C2863 C 0.76891 0.29947 0.33799 0.0
C2864 C 0.76899 0.28776 0.32146 0.0
C2865 C 0.77163 0.30033 0.37237 0.0
C2866 C 0.75462 0.2896 0.37173 0.0
C2867 C 0.78193 0.31056 0.38967 0.0
C2868 C 0.7999 0.32213 0.39066 0.0
C2869 C 0.80307 0.33543 0.3783 0.0
C2870 C 0.82005 0.34607 0.37906 0.0
C2871 C 0.83399 0.34358 0.39216 0.0
C2872 C 0.83096 0.33052 0.40461 0.0
C2873 C 0.81399 0.31988 0.40394 0.0
H2874 H 0.84714 0.35179 0.3927 0.0
H2875 H 0.68119 0.25095 0.38482 0.0
H2876 H 0.40917 0.02279 0.18605 0.0
H2877 H 0.42024 0.02 0.15564 0.0
H2878 H 0.47312 0.0406 0.18678 0.0
H2879 H 0.46216 0.04303 0.21685 0.0
H2880 H 0.47065 0.05651 0.15574 0.0
H2881 H 0.4539 0.99283 0.16691 0.0
H2882 H 0.43482 0.96309 0.17112 0.0
H2883 H 0.40338 0.95961 0.11587 0.0
H2884 H 0.42209 0.98953 0.11146 0.0
H2885 H 0.52226 0.03303 0.08876 0.0
H2886 H 0.50675 0.03347 0.11553 0.0
H2887 H 0.45741 0.0135 0.07656 0.0
H2888 H 0.47307 0.01291 0.04933 0.0
H2889 H 0.45579 0.99721 0.10943 0.0
H2890 H 0.47136 0.05997 0.09778 0.0
H2891 H 0.49121 0.08824 0.09146 0.0
H2892 H 0.52413 0.09286 0.14608 0.0
H2893 H 0.5046 0.06437 0.1526 0.0
C2894 C 0.42313 0.02722 0.18641 0.0
C2895 C 0.43462 0.03375 0.20424 0.0
C2896 C 0.42956 0.02529 0.16887 0.0
C2897 C 0.44776 0.02994 0.1684 0.0
C2898 C 0.45909 0.03689 0.1862 0.0
C2899 C 0.45272 0.03846 0.20361 0.0
C2900 C 0.45524 0.02795 0.14978 0.0
C2901 C 0.46738 0.04339 0.14584 0.0
C2902 C 0.45097 0.01113 0.136 0.0
C2903 C 0.43922 0.99364 0.13902 0.0
C2904 C 0.44274 0.98591 0.1558 0.0
C2905 C 0.43204 0.96896 0.15818 0.0
C2906 C 0.41785 0.95951 0.14382 0.0
C2907 C 0.41433 0.96699 0.12703 0.0
C2908 C 0.42496 0.98396 0.12459 0.0
C2909 C 0.5081 0.02863 0.08563 0.0
C2910 C 0.49914 0.02305 0.06645 0.0
C2911 C 0.49911 0.02896 0.10121 0.0
C2912 C 0.48065 0.02383 0.09854 0.0
C2913 C 0.47159 0.01766 0.07942 0.0
C2914 C 0.48063 0.01738 0.06369 0.0
C2915 C 0.47119 0.02571 0.11567 0.0
C2916 C 0.45883 0.01033 0.11932 0.0
C2917 C 0.47506 0.04259 0.12914 0.0
C2918 C 0.48658 0.06 0.12563 0.0
C2919 C 0.48287 0.06698 0.10842 0.0
C2920 C 0.49406 0.08302 0.10479 0.0
C2921 C 0.50892 0.09233 0.11836 0.0
C2922 C 0.51261 0.08562 0.13559 0.0
C2923 C 0.50147 0.06954 0.13928 0.0
H2924 H 0.51752 0.10478 0.11551 0.0
H2925 H 0.40962 0.94635 0.14566 0.0
H2926 H 0.78957 0.67636 0.95303 0.0
H2927 H 0.79489 0.68901 0.92353 0.0
H2928 H 0.76166 0.72712 0.93349 0.0
H2929 H 0.75635 0.71488 0.96237 0.0
H2930 H 0.7523 0.7082 0.89791 0.0
H2931 H 0.80483 0.74341 0.9402 0.0
H2932 H 0.83273 0.74862 0.96282 0.0
H2933 H 0.85391 0.71861 0.92049 0.0
H2934 H 0.82601 0.71299 0.89768 0.0
H2935 H 0.77337 0.77879 0.83869 0.0
H2936 H 0.77237 0.76351 0.86735 0.0
H2937 H 0.79283 0.71914 0.84097 0.0
H2938 H 0.79311 0.73389 0.81204 0.0
H2939 H 0.80958 0.73858 0.883 0.0
H2940 H 0.75561 0.70573 0.84008 0.0
H2941 H 0.72796 0.7042 0.8183 0.0
H2942 H 0.70945 0.73307 0.8638 0.0
H2943 H 0.7372 0.73519 0.88574 0.0
C2944 C 0.78353 0.68751 0.94894 0.0
C2945 C 0.77234 0.69437 0.96 0.0
C2946 C 0.7866 0.69476 0.93214 0.0
C2947 C 0.77853 0.70893 0.92622 0.0
C2948 C 0.76787 0.71608 0.93759 0.0
C2949 C 0.76486 0.70898 0.9542 0.0
C2950 C 0.78027 0.71597 0.90783 0.0
C2951 C 0.76486 0.71486 0.89472 0.0
C2952 C 0.79663 0.72454 0.90352 0.0
C2953 C 0.81324 0.72751 0.91734 0.0
C2954 C 0.81535 0.7377 0.9358 0.0
C2955 C 0.83119 0.74079 0.94863 0.0
C2956 C 0.84506 0.73388 0.94313 0.0
C2957 C 0.84313 0.7239 0.92476 0.0
C2958 C 0.82731 0.72076 0.91187 0.0
C2959 C 0.77754 0.76573 0.83903 0.0
C2960 C 0.78313 0.7574 0.82317 0.0
C2961 C 0.77705 0.75708 0.85537 0.0
C2962 C 0.78262 0.74027 0.85626 0.0
C2963 C 0.78854 0.73213 0.84056 0.0
C2964 C 0.78854 0.74047 0.82402 0.0
C2965 C 0.78162 0.73088 0.87336 0.0
C2966 C 0.79711 0.73162 0.88616 0.0
C2967 C 0.76532 0.72223 0.87761 0.0
C2968 C 0.74858 0.72084 0.86448 0.0
C2969 C 0.74574 0.71196 0.84538 0.0
C2970 C 0.73003 0.71095 0.83301 0.0
C2971 C 0.71697 0.71859 0.83964 0.0
C2972 C 0.71959 0.72721 0.85867 0.0
C2973 C 0.73531 0.72833 0.87107 0.0
H2974 H 0.70482 0.7178 0.83004 0.0
H2975 H 0.85733 0.73632 0.95307 0.0
H2976 H 0.87564 0.16345 0.07019 0.0
H2977 H 0.89581 0.14802 0.05549 0.0
H2978 H 0.85212 0.10357 0.025 0.0
H2979 H 0.83195 0.11866 0.03983 0.0
H2980 H 0.87804 0.09065 0.04105 0.0
H2981 H 0.87179 0.13832 0.00249 0.0
H2982 H 0.87251 0.17044 0.99553 0.0
H2983 H 0.92764 0.18726 0.0187 0.0
H2984 H 0.9272 0.15532 0.02609 0.0
H2985 H 0.92273 0.04423 0.98524 0.0
H2986 H 0.90297 0.06473 0.98999 0.0
H2987 H 0.94595 0.10787 0.02375 0.0
H2988 H 0.96618 0.08785 0.01817 0.0
H2989 H 0.92008 0.12245 0.00388 0.0
H2990 H 0.92513 0.07651 0.0461 0.0
H2991 H 0.92403 0.0452 0.0555 0.0
H2992 H 0.87042 0.02611 0.02659 0.0
H2993 H 0.87131 0.05725 0.01681 0.0
C2994 C 0.87043 0.15013 0.06071 0.0
C2995 C 0.85229 0.14218 0.05612 0.0
C2996 C 0.88188 0.1416 0.05207 0.0
C2997 C 0.87528 0.12509 0.03876 0.0
C2998 C 0.85732 0.11652 0.03506 0.0
C2999 C 0.84587 0.12496 0.04379 0.0
C3000 C 0.88719 0.1159 0.02966 0.0
C3001 C 0.88696 0.09748 0.03256 0.0
C3002 C 0.89916 0.12518 0.01918 0.0
C3003 C 0.89941 0.14447 0.01504 0.0
C3004 C 0.88402 0.14892 0.0063 0.0
C3005 C 0.8844 0.16708 0.00223 0.0
C3006 C 0.9001 0.18089 0.00671 0.0
C3007 C 0.91548 0.17656 0.01526 0.0
C3008 C 0.91517 0.15843 0.01939 0.0
C3009 C 0.92818 0.05838 0.99293 0.0
C3010 C 0.94593 0.06432 0.00168 0.0
C3011 C 0.91684 0.07001 0.99572 0.0
C3012 C 0.92306 0.08751 0.00755 0.0
C3013 C 0.94102 0.09431 0.01466 0.0
C3014 C 0.95246 0.08278 0.01167 0.0
C3015 C 0.9106 0.09713 0.01506 0.0
C3016 C 0.91089 0.11562 0.01207 0.0
C3017 C 0.8986 0.08801 0.02555 0.0
C3018 C 0.89839 0.06904 0.03047 0.0
C3019 C 0.91322 0.06553 0.0415 0.0
C3020 C 0.9126 0.04785 0.04697 0.0
C3021 C 0.89718 0.03365 0.04159 0.0
C3022 C 0.88236 0.03709 0.03069 0.0
C3023 C 0.88293 0.05472 0.02516 0.0
H3024 H 0.89671 0.02 0.04592 0.0
H3025 H 0.90037 0.19494 0.00352 0.0
H3026 H 0.36913 0.39524 0.05482 0.0
H3027 H 0.39617 0.41501 0.04967 0.0
H3028 H 0.36675 0.44964 0.02077 0.0
H3029 H 0.33921 0.42954 0.02585 0.0
H3030 H 0.39391 0.43926 0.00142 0.0
H3031 H 0.38879 0.46734 0.06395 0.0
H3032 H 0.3832 0.4657 0.09668 0.0
H3033 H 0.42692 0.44064 0.10921 0.0
H3034 H 0.43264 0.44193 0.07645 0.0
H3035 H 0.46987 0.5116 0.00197 0.0
H3036 H 0.4413 0.49284 0.00474 0.0
H3037 H 0.46676 0.46185 0.04304 0.0
H3038 H 0.49549 0.48093 0.04054 0.0
H3039 H 0.44062 0.47109 0.05698 0.0
H3040 H 0.44649 0.44258 0.99589 0.0
H3041 H 0.45176 0.44105 0.96279 0.0
H3042 H 0.40708 0.46373 0.9468 0.0
H3043 H 0.4017 0.4657 0.9799 0.0
C3044 C 0.36831 0.4072 0.04756 0.0
C3045 C 0.35193 0.41089 0.04095 0.0
C3046 C 0.38386 0.41848 0.04457 0.0
C3047 C 0.38361 0.4339 0.03488 0.0
C3048 C 0.36731 0.43782 0.0283 0.0
C3049 C 0.35159 0.4265 0.03144 0.0
C3050 C 0.40055 0.44581 0.03209 0.0
C3051 C 0.404 0.44658 0.01353 0.0
C3052 C 0.41403 0.45475 0.04786 0.0
C3053 C 0.41109 0.45467 0.06776 0.0
C3054 C 0.39719 0.46146 0.07369 0.0
C3055 C 0.39399 0.46057 0.09223 0.0
C3056 C 0.40469 0.45304 0.10501 0.0
C3057 C 0.41866 0.44648 0.0993 0.0
C3058 C 0.42191 0.44732 0.08076 0.0
C3059 C 0.46941 0.5007 0.0109 0.0
C3060 C 0.48497 0.4978 0.02108 0.0
C3061 C 0.45301 0.48987 0.01238 0.0
C3062 C 0.45171 0.47571 0.02397 0.0
C3063 C 0.46731 0.47265 0.03399 0.0
C3064 C 0.48376 0.48351 0.03251 0.0
C3065 C 0.43411 0.46472 0.02623 0.0
C3066 C 0.43054 0.464 0.04476 0.0
C3067 C 0.42064 0.45566 0.01038 0.0
C3068 C 0.42382 0.45451 0.99045 0.0
C3069 C 0.43788 0.44742 0.98537 0.0
C3070 C 0.44087 0.44644 0.96659 0.0
C3071 C 0.4298 0.45235 0.95272 0.0
C3072 C 0.41567 0.4592 0.95758 0.0
C3073 C 0.41264 0.46024 0.97634 0.0
H3074 H 0.43213 0.45158 0.93819 0.0
H3075 H 0.40216 0.45232 0.11935 0.0
H3076 H 0.3761 0.53221 0.77303 0.0
H3077 H 0.36563 0.561 0.77909 0.0
H3078 H 0.41428 0.59409 0.76942 0.0
H3079 H 0.42463 0.56525 0.76264 0.0
H3080 H 0.39822 0.60654 0.80571 0.0
H3081 H 0.38961 0.59406 0.73739 0.0
H3082 H 0.38048 0.57481 0.70534 0.0
H3083 H 0.32738 0.56039 0.71435 0.0
H3084 H 0.33629 0.5793 0.74664 0.0
H3085 H 0.36365 0.68895 0.79081 0.0
H3086 H 0.38001 0.66422 0.79291 0.0
H3087 H 0.33121 0.62238 0.78439 0.0
H3088 H 0.31497 0.64706 0.78198 0.0
H3089 H 0.35069 0.6165 0.75729 0.0
H3090 H 0.36035 0.63095 0.82635 0.0
H3091 H 0.37059 0.65128 0.85779 0.0
H3092 H 0.42302 0.66423 0.84656 0.0
H3093 H 0.41306 0.64412 0.81495 0.0
C3094 C 0.38454 0.54561 0.77215 0.0
C3095 C 0.40108 0.54651 0.76719 0.0
C3096 C 0.37859 0.562 0.77569 0.0
C3097 C 0.38927 0.57957 0.7748 0.0
C3098 C 0.40594 0.58062 0.77025 0.0
C3099 C 0.41173 0.56415 0.76621 0.0
C3100 C 0.3824 0.5966 0.77764 0.0
C3101 C 0.388 0.60897 0.79507 0.0
C3102 C 0.36907 0.59957 0.76376 0.0
C3103 C 0.36368 0.58783 0.74455 0.0
C3104 C 0.37604 0.58654 0.73266 0.0
C3105 C 0.37089 0.57575 0.71442 0.0
C3106 C 0.35337 0.56631 0.70784 0.0
C3107 C 0.34096 0.56766 0.71949 0.0
C3108 C 0.34605 0.5784 0.73777 0.0
C3109 C 0.35656 0.6745 0.78983 0.0
C3110 C 0.33818 0.66971 0.78606 0.0
C3111 C 0.36585 0.66043 0.79118 0.0
C3112 C 0.35679 0.64148 0.78871 0.0
C3113 C 0.33842 0.63693 0.78633 0.0
C3114 C 0.32917 0.65097 0.78503 0.0
C3115 C 0.36601 0.62624 0.78567 0.0
C3116 C 0.36092 0.61421 0.76802 0.0
C3117 C 0.37996 0.62387 0.79929 0.0
C3118 C 0.38591 0.63617 0.81819 0.0
C3119 C 0.37403 0.63828 0.83049 0.0
C3120 C 0.37979 0.64972 0.84837 0.0
C3121 C 0.39743 0.65908 0.85415 0.0
C3122 C 0.40935 0.65699 0.84206 0.0
C3123 C 0.40366 0.64555 0.82417 0.0
H3124 H 0.40187 0.66791 0.868 0.0
H3125 H 0.3494 0.55801 0.69369 0.0
H3126 H 0.25927 0.68396 0.54805 0.0
H3127 H 0.23146 0.6611 0.53727 0.0
H3128 H 0.25597 0.61655 0.55231 0.0
H3129 H 0.28443 0.6395 0.56199 0.0
H3130 H 0.23265 0.60476 0.51941 0.0
H3131 H 0.23186 0.63636 0.58204 0.0
H3132 H 0.23582 0.66426 0.60655 0.0
H3133 H 0.19631 0.68333 0.57149 0.0
H3134 H 0.19229 0.65567 0.54667 0.0
H3135 H 0.1522 0.54776 0.53828 0.0
H3136 H 0.18175 0.56432 0.53578 0.0
H3137 H 0.16056 0.60672 0.51024 0.0
H3138 H 0.13101 0.59011 0.51242 0.0
H3139 H 0.18237 0.61847 0.54723 0.0
H3140 H 0.18152 0.58515 0.48558 0.0
H3141 H 0.17732 0.55685 0.4616 0.0
H3142 H 0.21917 0.54002 0.4953 0.0
H3143 H 0.22337 0.56803 0.51974 0.0
C3144 C 0.25874 0.66935 0.54934 0.0
C3145 C 0.27388 0.66352 0.55633 0.0
C3146 C 0.24284 0.65626 0.54305 0.0
C3147 C 0.24157 0.63718 0.54437 0.0
C3148 C 0.25669 0.63124 0.55124 0.0
C3149 C 0.27282 0.64433 0.55701 0.0
C3150 C 0.22421 0.6238 0.53932 0.0
C3151 C 0.22168 0.60758 0.52566 0.0
C3152 C 0.20986 0.62769 0.54725 0.0
C3153 C 0.21184 0.64399 0.56247 0.0
C3154 C 0.22404 0.64652 0.57955 0.0
C3155 C 0.22631 0.6623 0.59349 0.0
C3156 C 0.21634 0.67557 0.59057 0.0
C3157 C 0.20403 0.67304 0.57374 0.0
C3158 C 0.20172 0.6573 0.55975 0.0
C3159 C 0.1538 0.56016 0.53137 0.0
C3160 C 0.13948 0.56795 0.52591 0.0
C3161 C 0.17065 0.56957 0.52994 0.0
C3162 C 0.17322 0.58678 0.52301 0.0
C3163 C 0.15874 0.59347 0.51568 0.0
C3164 C 0.14194 0.58406 0.51703 0.0
C3165 C 0.19075 0.59958 0.52721 0.0
C3166 C 0.19331 0.61565 0.54091 0.0
C3167 C 0.205 0.59538 0.51943 0.0
C3168 C 0.20267 0.57864 0.50461 0.0
C3169 C 0.18973 0.57534 0.48799 0.0
C3170 C 0.18736 0.55936 0.47428 0.0
C3171 C 0.19796 0.54663 0.47692 0.0
C3172 C 0.21096 0.54989 0.49327 0.0
C3173 C 0.21335 0.56582 0.50706 0.0
H3174 H 0.19611 0.53427 0.46629 0.0
H3175 H 0.21814 0.6878 0.60135 0.0
H3176 H 0.67666 0.93802 0.76663 0.0
H3177 H 0.68957 0.9104 0.76274 0.0
H3178 H 0.72377 0.93079 0.81731 0.0
H3179 H 0.71133 0.95818 0.82099 0.0
H3180 H 0.74259 0.91644 0.7984 0.0
H3181 H 0.68397 0.88876 0.80479 0.0
H3182 H 0.65167 0.88108 0.7968 0.0
H3183 H 0.65328 0.85509 0.74033 0.0
H3184 H 0.68561 0.8628 0.74794 0.0
H3185 H 0.77602 0.83289 0.80508 0.0
H3186 H 0.76265 0.85969 0.80897 0.0
H3187 H 0.7226 0.83362 0.7597 0.0
H3188 H 0.73497 0.8058 0.75743 0.0
H3189 H 0.70679 0.85159 0.77566 0.0
H3190 H 0.76691 0.88089 0.76997 0.0
H3191 H 0.79916 0.88916 0.77949 0.0
H3192 H 0.79492 0.91261 0.83595 0.0
H3193 H 0.76267 0.90436 0.8268 0.0
C3194 C 0.68691 0.93671 0.77787 0.0
C3195 C 0.6926 0.95095 0.79423 0.0
C3196 C 0.69436 0.92055 0.77571 0.0
C3197 C 0.70788 0.9176 0.7898 0.0
C3198 C 0.71358 0.93198 0.80593 0.0
C3199 C 0.7062 0.94798 0.80808 0.0
C3200 C 0.71623 0.9001 0.78806 0.0
C3201 C 0.73456 0.9023 0.79349 0.0
C3202 C 0.7065 0.88111 0.7815 0.0
C3203 C 0.68716 0.87656 0.77685 0.0
C3204 C 0.67742 0.88153 0.79062 0.0
C3205 C 0.65912 0.87715 0.78618 0.0
C3206 C 0.65043 0.86766 0.76805 0.0
C3207 C 0.66002 0.86248 0.75435 0.0
C3208 C 0.67833 0.86684 0.75872 0.0
C3209 C 0.76429 0.83274 0.79506 0.0
C3210 C 0.7568 0.81667 0.78091 0.0
C3211 C 0.75665 0.84863 0.79702 0.0
C3212 C 0.74156 0.85008 0.78421 0.0
C3213 C 0.73409 0.83383 0.77007 0.0
C3214 C 0.74132 0.81757 0.76864 0.0
C3215 C 0.73335 0.86781 0.7856 0.0
C3216 C 0.71497 0.86569 0.78026 0.0
C3217 C 0.74308 0.88692 0.7923 0.0
C3218 C 0.76242 0.89183 0.79774 0.0
C3219 C 0.77288 0.88774 0.78442 0.0
C3220 C 0.79115 0.89244 0.78975 0.0
C3221 C 0.79908 0.90136 0.80832 0.0
C3222 C 0.78876 0.90567 0.82158 0.0
C3223 C 0.7705 0.90101 0.81633 0.0
H3224 H 0.81321 0.90496 0.81242 0.0
H3225 H 0.63626 0.86427 0.76463 0.0
H3226 H 0.74312 0.89897 0.5491 0.0
H3227 H 0.71535 0.90914 0.54571 0.0
H3228 H 0.72462 0.92797 0.49275 0.0
H3229 H 0.75201 0.91761 0.49584 0.0
H3230 H 0.71618 0.95481 0.51752 0.0
H3231 H 0.69409 0.89026 0.4908 0.0
H3232 H 0.68823 0.85577 0.48877 0.0
H3233 H 0.66141 0.85875 0.53629 0.0
H3234 H 0.66737 0.89333 0.53883 0.0
H3235 H 0.63724 0.98027 0.48789 0.0
H3236 H 0.66092 0.96406 0.48846 0.0
H3237 H 0.64597 0.93912 0.53664 0.0
H3238 H 0.62136 0.95434 0.53539 0.0
H3239 H 0.65693 0.91444 0.51427 0.0
H3240 H 0.68066 0.97998 0.5412 0.0
H3241 H 0.68591 0.01426 0.54138 0.0
H3242 H 0.70954 0.00872 0.49159 0.0
H3243 H 0.70421 0.97438 0.49098 0.0
C3244 C 0.73927 0.90535 0.53678 0.0
C3245 C 0.74996 0.90763 0.52285 0.0
C3246 C 0.72328 0.91098 0.53475 0.0
C3247 C 0.71777 0.91925 0.51889 0.0
C3248 C 0.72849 0.9216 0.50508 0.0
C3249 C 0.74424 0.91571 0.50692 0.0
C3250 C 0.70149 0.92662 0.51717 0.0
C3251 C 0.70322 0.94589 0.51663 0.0
C3252 C 0.68452 0.91514 0.51627 0.0
C3253 C 0.68146 0.89443 0.51522 0.0
C3254 C 0.6872 0.88361 0.50103 0.0
C3255 C 0.68379 0.86403 0.49972 0.0
C3256 C 0.67452 0.85508 0.51245 0.0
C3257 C 0.66864 0.86571 0.52649 0.0
C3258 C 0.67204 0.8853 0.52788 0.0
C3259 C 0.63862 0.97105 0.4984 0.0
C3260 C 0.62726 0.9689 0.51173 0.0
C3261 C 0.65245 0.96193 0.49887 0.0
C3262 C 0.65569 0.9507 0.51294 0.0
C3263 C 0.64399 0.94785 0.52576 0.0
C3264 C 0.62997 0.95681 0.52517 0.0
C3265 C 0.67168 0.94269 0.51476 0.0
C3266 C 0.66991 0.92334 0.5153 0.0
C3267 C 0.68869 0.95405 0.51556 0.0
C3268 C 0.6919 0.97465 0.51595 0.0
C3269 C 0.68688 0.98608 0.53023 0.0
C3270 C 0.68988 0.00551 0.53041 0.0
C3271 C 0.69802 0.01366 0.51648 0.0
C3272 C 0.70322 1.00239 0.50236 0.0
C3273 C 0.70022 0.98296 0.50209 0.0
H3274 H 0.70034 0.02871 0.51666 0.0
H3275 H 0.67185 0.83991 0.51138 0.0
H3276 H 0.38204 0.46428 0.7548 0.0
H3277 H 0.3602 0.43697 0.75969 0.0
H3278 H 0.39996 0.40516 0.76549 0.0
H3279 H 0.4215 0.43185 0.76031 0.0
H3280 H 0.37225 0.38477 0.74257 0.0
H3281 H 0.38445 0.42275 0.80393 0.0
H3282 H 0.3872 0.45055 0.82812 0.0
H3283 H 0.33217 0.44743 0.81237 0.0
H3284 H 0.32914 0.41979 0.78783 0.0
H3285 H 0.32693 0.30896 0.78447 0.0
H3286 H 0.34815 0.33791 0.78252 0.0
H3287 H 0.30583 0.36148 0.75914 0.0
H3288 H 0.28474 0.33215 0.75988 0.0
H3289 H 0.33428 0.38594 0.79135 0.0
H3290 H 0.32388 0.34664 0.72914 0.0
H3291 H 0.3228 0.3174 0.70772 0.0
H3292 H 0.37748 0.32232 0.72849 0.0
H3293 H 0.37878 0.35136 0.75039 0.0
C3294 C 0.38606 0.45142 0.75702 0.0
C3295 C 0.4035 0.45025 0.75698 0.0
C3296 C 0.37361 0.43588 0.75998 0.0
C3297 C 0.37846 0.41901 0.76303 0.0
C3298 C 0.39586 0.41795 0.76308 0.0
C3299 C 0.40819 0.43331 0.76009 0.0
C3300 C 0.36547 0.40207 0.76544 0.0
C3301 C 0.36409 0.38507 0.75339 0.0
C3302 C 0.35472 0.40238 0.77946 0.0
C3303 C 0.35661 0.41935 0.79382 0.0
C3304 C 0.37297 0.42814 0.80542 0.0
C3305 C 0.37458 0.44384 0.81925 0.0
C3306 C 0.35989 0.45079 0.82173 0.0
C3307 C 0.34356 0.44206 0.81039 0.0
C3308 C 0.34189 0.42639 0.79652 0.0
C3309 C 0.3222 0.32018 0.7787 0.0
C3310 C 0.30425 0.31809 0.77188 0.0
C3311 C 0.33429 0.33678 0.77777 0.0
C3312 C 0.3285 0.35176 0.77064 0.0
C3313 C 0.31052 0.35004 0.76467 0.0
C3314 C 0.29852 0.33326 0.76501 0.0
C3315 C 0.3412 0.36891 0.76851 0.0
C3316 C 0.34248 0.38583 0.78057 0.0
C3317 C 0.35216 0.3685 0.75478 0.0
C3318 C 0.35135 0.35102 0.74162 0.0
C3319 C 0.33561 0.34135 0.72934 0.0
C3320 C 0.33497 0.32484 0.71707 0.0
C3321 C 0.35004 0.31796 0.7168 0.0
C3322 C 0.3658 0.32762 0.72876 0.0
C3323 C 0.36649 0.3441 0.74111 0.0
H3324 H 0.34952 0.30518 0.70728 0.0
H3325 H 0.36114 0.46291 0.83248 0.0
H3326 H 0.17001 0.57662 0.30263 0.0
H3327 H 0.18799 0.60755 0.30263 0.0
H3328 H 0.22988 0.58292 0.28863 0.0
H3329 H 0.21143 0.55104 0.28814 0.0
H3330 H 0.2395 0.62065 0.31886 0.0
H3331 H 0.21028 0.59444 0.25428 0.0
H3332 H 0.18478 0.57772 0.22952 0.0
H3333 H 0.15746 0.62041 0.2438 0.0
H3334 H 0.18268 0.6372 0.26893 0.0
H3335 H 0.28186 0.70521 0.28578 0.0
H3336 H 0.2694 0.67252 0.28941 0.0
H3337 H 0.21967 0.68611 0.2927 0.0
H3338 H 0.23233 0.71896 0.2896 0.0
H3339 H 0.21594 0.65299 0.2675 0.0
H3340 H 0.24417 0.67946 0.33136 0.0
H3341 H 0.26867 0.69657 0.3571 0.0
H3342 H 0.29707 0.65425 0.34557 0.0
H3343 H 0.27294 0.63709 0.31939 0.0
C3344 C 0.18308 0.57745 0.29963 0.0
C3345 C 0.18898 0.56087 0.29512 0.0
C3346 C 0.19345 0.59543 0.29974 0.0
C3347 C 0.21036 0.59786 0.29554 0.0
C3348 C 0.21688 0.58156 0.29198 0.0
C3349 C 0.2063 0.56325 0.2917 0.0
C3350 C 0.22008 0.61737 0.29344 0.0
C3351 C 0.23462 0.62755 0.30735 0.0
C3352 C 0.21342 0.62688 0.27892 0.0
C3353 C 0.19833 0.617 0.26361 0.0
C3354 C 0.19878 0.60019 0.25226 0.0
C3355 C 0.18438 0.5907 0.23814 0.0
C3356 C 0.16949 0.59797 0.23512 0.0
C3357 C 0.169 0.61478 0.24617 0.0
C3358 C 0.18335 0.62429 0.26035 0.0
C3359 C 0.26833 0.70126 0.28755 0.0
C3360 C 0.25815 0.71475 0.28762 0.0
C3361 C 0.26118 0.68252 0.28961 0.0
C3362 C 0.2435 0.6766 0.29137 0.0
C3363 C 0.23331 0.69013 0.29138 0.0
C3364 C 0.24058 0.70899 0.28973 0.0
C3365 C 0.23555 0.65629 0.29274 0.0
C3366 C 0.22111 0.64604 0.27882 0.0
C3367 C 0.2423 0.64685 0.30731 0.0
C3368 C 0.2568 0.65707 0.32319 0.0
C3369 C 0.25571 0.67388 0.33413 0.0
C3370 C 0.26952 0.68359 0.34884 0.0
C3371 C 0.28443 0.67653 0.35293 0.0
C3372 C 0.28553 0.65973 0.34235 0.0
C3373 C 0.27179 0.65 0.32756 0.0
H3374 H 0.2951 0.68405 0.36434 0.0
H3375 H 0.15835 0.59061 0.22418 0.0
H3376 H 0.48375 0.69551 0.45802 0.0
H3377 H 0.49128 0.67012 0.47367 0.0
H3378 H 0.54316 0.68385 0.46024 0.0
H3379 H 0.53548 0.70929 0.44394 0.0
H3380 H 0.53023 0.64756 0.45277 0.0
H3381 H 0.53445 0.69402 0.50749 0.0
H3382 H 0.5246 0.71722 0.52842 0.0
H3383 H 0.48084 0.67424 0.53465 0.0
H3384 H 0.4903 0.65084 0.51359 0.0
H3385 H 0.55972 0.58381 0.5099 0.0
H3386 H 0.55662 0.61313 0.49861 0.0
H3387 H 0.50227 0.60097 0.50436 0.0
H3388 H 0.50527 0.57152 0.51565 0.0
H3389 H 0.51877 0.63802 0.5174 0.0
H3390 H 0.51435 0.59157 0.46344 0.0
H3391 H 0.5225 0.5683 0.44104 0.0
H3392 H 0.56429 0.61124 0.43069 0.0
H3393 H 0.55734 0.63445 0.45418 0.0
C3394 C 0.49681 0.69321 0.45834 0.0
C3395 C 0.50902 0.70447 0.44966 0.0
C3396 C 0.50115 0.67875 0.46754 0.0
C3397 C 0.51793 0.67531 0.46862 0.0
C3398 C 0.53016 0.68635 0.45976 0.0
C3399 C 0.52574 0.70081 0.45035 0.0
C3400 C 0.52218 0.65938 0.47787 0.0
C3401 C 0.52819 0.64571 0.46711 0.0
C3402 C 0.51882 0.6566 0.49632 0.0
C3403 C 0.51302 0.67072 0.50884 0.0
C3404 C 0.52265 0.68955 0.5132 0.0
C3405 C 0.51715 0.70273 0.52512 0.0
C3406 C 0.50209 0.69721 0.53283 0.0
C3407 C 0.4925 0.6785 0.52866 0.0
C3408 C 0.49794 0.66527 0.51676 0.0
C3409 C 0.54713 0.58743 0.50897 0.0
C3410 C 0.53268 0.57525 0.5136 0.0
C3411 C 0.54538 0.60418 0.50242 0.0
C3412 C 0.52918 0.60915 0.50044 0.0
C3413 C 0.51489 0.59738 0.50573 0.0
C3414 C 0.51659 0.58051 0.5121 0.0
C3415 C 0.52694 0.62628 0.49229 0.0
C3416 C 0.52119 0.64007 0.50322 0.0
C3417 C 0.53047 0.62913 0.47393 0.0
C3418 C 0.53552 0.61473 0.46095 0.0
C3419 C 0.52565 0.59596 0.4569 0.0
C3420 C 0.53008 0.58274 0.444 0.0
C3421 C 0.54405 0.58822 0.43462 0.0
C3422 C 0.55369 0.6069 0.43824 0.0
C3423 C 0.54962 0.62006 0.45148 0.0
H3424 H 0.5473 0.57802 0.42443 0.0
H3425 H 0.49786 0.70743 0.54206 0.0
H3426 H 0.62717 0.29131 0.64213 0.0
H3427 H 0.65194 0.28655 0.66362 0.0
H3428 H 0.62021 0.27743 0.70682 0.0
H3429 H 0.5948 0.28204 0.68499 0.0
H3430 H 0.65298 0.30111 0.7214 0.0
H3431 H 0.63105 0.2406 0.68334 0.0
H3432 H 0.62026 0.21722 0.65394 0.0
H3433 H 0.66945 0.23416 0.63567 0.0
H3434 H 0.68046 0.25784 0.66484 0.0
H3435 H 0.71752 0.26817 0.77976 0.0
H3436 H 0.69049 0.2703 0.75959 0.0
H3437 H 0.71841 0.28085 0.71347 0.0
H3438 H 0.74573 0.27908 0.73388 0.0
H3439 H 0.68631 0.25466 0.7012 0.0
H3440 H 0.70743 0.31632 0.73825 0.0
H3441 H 0.71795 0.34021 0.76729 0.0
H3442 H 0.66992 0.32107 0.78715 0.0
H3443 H 0.65921 0.29686 0.75835 0.0
C3444 C 0.62528 0.2884 0.65621 0.0
C3445 C 0.60882 0.28718 0.66177 0.0
C3446 C 0.63956 0.28549 0.66848 0.0
C3447 C 0.63798 0.28134 0.68679 0.0
C3448 C 0.62174 0.28051 0.69269 0.0
C3449 C 0.60724 0.28323 0.68024 0.0
C3450 C 0.65359 0.27851 0.69968 0.0
C3451 C 0.66004 0.29067 0.71715 0.0
C3452 C 0.66317 0.26524 0.69394 0.0
C3453 C 0.65653 0.25114 0.67624 0.0
C3454 C 0.63951 0.23948 0.67298 0.0
C3455 C 0.63337 0.22614 0.65636 0.0
C3456 C 0.64415 0.22423 0.64292 0.0
C3457 C 0.6611 0.23566 0.64608 0.0
C3458 C 0.66731 0.24903 0.66267 0.0
C3459 C 0.71796 0.27095 0.76532 0.0
C3460 C 0.73383 0.27345 0.75842 0.0
C3461 C 0.70245 0.27222 0.7538 0.0
C3462 C 0.70234 0.27585 0.735 0.0
C3463 C 0.71812 0.27805 0.72793 0.0
C3464 C 0.73375 0.27706 0.73959 0.0
C3465 C 0.68574 0.27737 0.72285 0.0
C3466 C 0.67914 0.26498 0.70551 0.0
C3467 C 0.67601 0.2904 0.7287 0.0
C3468 C 0.6826 0.30463 0.74625 0.0
C3469 C 0.6992 0.31705 0.74892 0.0
C3470 C 0.70518 0.33069 0.76531 0.0
C3471 C 0.69464 0.33213 0.77908 0.0
C3472 C 0.67809 0.31992 0.77649 0.0
C3473 C 0.67206 0.30624 0.76014 0.0
H3474 H 0.69927 0.34273 0.79173 0.0
H3475 H 0.63937 0.21388 0.63008 0.0
H3476 H 0.02637 0.31631 0.92955 0.0
H3477 H 0.02984 0.34971 0.94134 0.0
H3478 H 0.01888 0.33614 0.99585 0.0
H3479 H 0.01465 0.30272 0.98383 0.0
H3480 H 0.99824 0.35592 0.9832 0.0
H3481 H 0.06026 0.36208 0.98896 0.0
H3482 H 0.08805 0.35959 0.97872 0.0
H3483 H 0.07861 0.39379 0.93558 0.0
H3484 H 0.05064 0.39626 0.94537 0.0
H3485 H 0.01251 0.45042 0.02998 0.0
H3486 H 0.01314 0.41755 0.01995 0.0
H3487 H 0.02181 0.43026 0.96443 0.0
H3488 H 0.02186 0.46325 0.97482 0.0
H3489 H 0.04422 0.41131 0.978 0.0
H3490 H 0.98175 0.40369 0.97114 0.0
H3491 H 0.95463 0.40753 0.98223 0.0
H3492 H 0.96565 0.37651 0.02785 0.0
H3493 H 0.99293 0.37267 0.01713 0.0
C3494 C 0.02518 0.32051 0.94422 0.0
C3495 C 0.02009 0.30692 0.95573 0.0
C3496 C 0.02722 0.33964 0.95098 0.0
C3497 C 0.0246 0.34548 0.9695 0.0
C3498 C 0.02083 0.33197 0.98146 0.0
C3499 C 0.01848 0.31288 0.97461 0.0
C3500 C 0.0236 0.36517 0.97565 0.0
C3501 C 0.00849 0.36799 0.98236 0.0
C3502 C 0.03663 0.38101 0.97396 0.0
C3503 C 0.05326 0.37918 0.96778 0.0
C3504 C 0.06401 0.36889 0.97715 0.0
C3505 C 0.07982 0.36753 0.97145 0.0
C3506 C 0.08507 0.37649 0.95648 0.0
C3507 C 0.07452 0.38683 0.94716 0.0
C3508 C 0.05869 0.38823 0.95278 0.0
C3509 C 0.01397 0.44595 0.01547 0.0
C3510 C 0.0167 0.45903 0.00294 0.0
C3511 C 0.01445 0.42726 0.00977 0.0
C3512 C 0.0174 0.42141 0.99137 0.0
C3513 C 0.01954 0.43446 0.97868 0.0
C3514 C 0.01933 0.45318 0.98449 0.0
C3515 C 0.01896 0.40189 0.98559 0.0
C3516 C 0.03408 0.39915 0.97888 0.0
C3517 C 0.00597 0.38609 0.98723 0.0
C3518 C 0.9894 0.38801 0.99342 0.0
C3519 C 0.9784 0.39775 0.98357 0.0
C3520 C 0.96301 0.39993 0.98979 0.0
C3521 C 0.95844 0.39231 0.00576 0.0
C3522 C 0.96921 0.38242 0.01549 0.0
C3523 C 0.98462 0.38021 0.00933 0.0
H3524 H 0.94653 0.39403 0.01057 0.0
H3525 H 0.09734 0.37546 0.95213 0.0
H3526 H 0.022 0.78318 0.19809 0.0
H3527 H 0.99345 0.77514 0.20755 0.0
H3528 H 0.96851 0.75783 0.14834 0.0
H3529 H 0.99712 0.76626 0.13872 0.0
H3530 H 0.94932 0.77658 0.16599 0.0
H3531 H 0.97314 0.72492 0.17807 0.0
H3532 H 0.99532 0.7082 0.19007 0.0
H3533 H 0.99551 0.73229 0.24778 0.0
H3534 H 0.97349 0.74937 0.23609 0.0
H3535 H 0.86922 0.7459 0.19998 0.0
H3536 H 0.89401 0.74516 0.18344 0.0
H3537 H 0.92964 0.76127 0.23776 0.0
H3538 H 0.90483 0.76065 0.2542 0.0
H3539 H 0.94119 0.73797 0.21747 0.0
H3540 H 0.91867 0.79298 0.20197 0.0
H3541 H 0.89505 0.80692 0.18779 0.0
H3542 H 0.89086 0.77263 0.13357 0.0
H3543 H 0.91433 0.75837 0.14751 0.0
C3544 C 0.01048 0.77767 0.18703 0.0
C3545 C 0.01197 0.77536 0.16763 0.0
C3546 C 0.9941 0.77295 0.19248 0.0
C3547 C 0.97872 0.76555 0.17872 0.0
C3548 C 0.98011 0.76345 0.15928 0.0
C3549 C 0.99653 0.76827 0.1538 0.0
C3550 C 0.96131 0.76031 0.18477 0.0
C3551 C 0.94751 0.76793 0.17708 0.0
C3552 C 0.95863 0.74882 0.19905 0.0
C3553 C 0.97177 0.73852 0.2062 0.0
C3554 C 0.978 0.72674 0.19331 0.0
C3555 C 0.99053 0.71719 0.20006 0.0
C3556 C 0.99685 0.71921 0.21967 0.0
C3557 C 0.99061 0.73075 0.23259 0.0
C3558 C 0.97809 0.74035 0.22591 0.0
C3559 C 0.88237 0.74913 0.20831 0.0
C3560 C 0.88513 0.75339 0.22836 0.0
C3561 C 0.89659 0.74887 0.19886 0.0
C3562 C 0.91394 0.75366 0.20922 0.0
C3563 C 0.91652 0.75755 0.2293 0.0
C3564 C 0.90232 0.75726 0.23874 0.0
C3565 C 0.92955 0.75516 0.19951 0.0
C3566 C 0.94299 0.74662 0.20637 0.0
C3567 C 0.93174 0.76551 0.18423 0.0
C3568 C 0.91812 0.77457 0.17579 0.0
C3569 C 0.91269 0.78844 0.18703 0.0
C3570 C 0.89932 0.79636 0.17905 0.0
C3571 C 0.89144 0.79064 0.1598 0.0
C3572 C 0.89697 0.77704 0.14847 0.0
C3573 C 0.91031 0.76906 0.1564 0.0
H3574 H 0.88106 0.79676 0.15366 0.0
H3575 H 0.00656 0.71181 0.22487 0.0
H3576 H 0.57727 0.29433 0.14561 0.0
H3577 H 0.58349 0.32157 0.12909 0.0
H3578 H 0.52879 0.32297 0.12144 0.0
H3579 H 0.52242 0.29532 0.13696 0.0
H3580 H 0.53996 0.32572 0.09 0.0
H3581 H 0.56439 0.35314 0.15727 0.0
H3582 H 0.58529 0.35718 0.18756 0.0
H3583 H 0.62839 0.37276 0.15859 0.0
H3584 H 0.60775 0.3685 0.12807 0.0
H3585 H 0.52649 0.41034 0.07239 0.0
H3586 H 0.53195 0.38651 0.09166 0.0
H3587 H 0.58514 0.39582 0.08187 0.0
H3588 H 0.58008 0.42068 0.06333 0.0
H3589 H 0.58131 0.38676 0.11866 0.0
H3590 H 0.55635 0.36303 0.05253 0.0
H3591 H 0.53531 0.3596 0.02248 0.0
H3592 H 0.4929 0.33704 0.04996 0.0
H3593 H 0.51363 0.34066 0.08026 0.0
C3594 C 0.5666 0.30047 0.14029 0.0
C3595 C 0.54933 0.29277 0.14242 0.0
C3596 C 0.57021 0.31607 0.13103 0.0
C3597 C 0.55665 0.32439 0.12429 0.0
C3598 C 0.53944 0.3167 0.12653 0.0
C3599 C 0.53578 0.3009 0.13533 0.0
C3600 C 0.5598 0.34063 0.1141 0.0
C3601 C 0.54895 0.33908 0.09636 0.0
C3602 C 0.57222 0.35776 0.12194 0.0
C3603 C 0.58453 0.36021 0.14033 0.0
C3604 C 0.57833 0.35724 0.15732 0.0
C3605 C 0.59013 0.3596 0.17454 0.0
C3606 C 0.60816 0.36515 0.17499 0.0
C3607 C 0.61442 0.3684 0.15822 0.0
C3608 C 0.60268 0.366 0.14096 0.0
C3609 C 0.53953 0.40782 0.07483 0.0
C3610 C 0.5528 0.41717 0.06615 0.0
C3611 C 0.54259 0.39413 0.08575 0.0
C3612 C 0.5588 0.38923 0.08771 0.0
C3613 C 0.57251 0.3994 0.08029 0.0
C3614 C 0.56953 0.41336 0.06954 0.0
C3615 C 0.56047 0.37202 0.09548 0.0
C3616 C 0.57247 0.3733 0.11236 0.0
C3617 C 0.54902 0.35456 0.08698 0.0
C3618 C 0.53655 0.35222 0.06869 0.0
C3619 C 0.54253 0.35745 0.0522 0.0
C3620 C 0.53065 0.35547 0.03512 0.0
C3621 C 0.51278 0.34813 0.03432 0.0
C3622 C 0.50674 0.34273 0.05059 0.0
C3623 C 0.51855 0.34473 0.06772 0.0
H3624 H 0.50361 0.34659 0.02108 0.0
H3625 H 0.61727 0.36699 0.18833 0.0
H3626 H 0.98534 0.30503 0.33753 0.0
H3627 H 0.96008 0.30497 0.31296 0.0
H3628 H 0.92814 0.26142 0.3364 0.0
H3629 H 0.95302 0.2614 0.36046 0.0
H3630 H 0.91692 0.25847 0.29911 0.0
H3631 H 0.93679 0.3083 0.35685 0.0
H3632 H 0.95706 0.33669 0.37643 0.0
H3633 H 0.95391 0.36599 0.32816 0.0
H3634 H 0.93379 0.33764 0.30827 0.0
H3635 H 0.83817 0.26102 0.32493 0.0
H3636 H 0.86982 0.26484 0.32735 0.0
H3637 H 0.87201 0.31241 0.29714 0.0
H3638 H 0.84077 0.30961 0.29628 0.0
H3639 H 0.90016 0.31729 0.32197 0.0
H3640 H 0.86778 0.2639 0.272 0.0
H3641 H 0.8465 0.2334 0.25995 0.0
H3642 H 0.87239 0.20815 0.30337 0.0
H3643 H 0.89367 0.23839 0.3157 0.0
C3644 C 0.97305 0.29494 0.33676 0.0
C3645 C 0.97077 0.28346 0.35088 0.0
C3646 C 0.95874 0.29491 0.3228 0.0
C3647 C 0.94234 0.28335 0.32306 0.0
C3648 C 0.94074 0.27038 0.33588 0.0
C3649 C 0.95487 0.2705 0.34977 0.0
C3650 C 0.92609 0.28708 0.31353 0.0
C3651 C 0.9132 0.27146 0.30354 0.0
C3652 C 0.92145 0.30413 0.31932 0.0
C3653 C 0.93415 0.3208 0.331 0.0
C3654 C 0.94063 0.32073 0.35038 0.0
C3655 C 0.95204 0.33682 0.36153 0.0
C3656 C 0.95685 0.3531 0.35352 0.0
C3657 C 0.95026 0.35333 0.33432 0.0
C3658 C 0.93891 0.33725 0.32309 0.0
C3659 C 0.84568 0.27281 0.31973 0.0
C3660 C 0.83734 0.285 0.31042 0.0
C3661 C 0.86354 0.27469 0.3206 0.0
C3662 C 0.87286 0.28819 0.31136 0.0
C3663 C 0.86486 0.30162 0.30391 0.0
C3664 C 0.84713 0.30019 0.30369 0.0
C3665 C 0.89085 0.28809 0.30921 0.0
C3666 C 0.90383 0.30457 0.31646 0.0
C3667 C 0.8955 0.27145 0.30198 0.0
C3668 C 0.8824 0.25337 0.29464 0.0
C3669 C 0.86888 0.25184 0.27897 0.0
C3670 C 0.85682 0.2346 0.27211 0.0
C3671 C 0.85815 0.21885 0.28084 0.0
C3672 C 0.87141 0.22031 0.29656 0.0
C3673 C 0.88351 0.23747 0.30344 0.0
H3674 H 0.84896 0.20551 0.27537 0.0
H3675 H 0.96561 0.36557 0.36219 0.0
H3676 H 0.03561 0.71387 0.62488 0.0
H3677 H 0.03291 0.69154 0.59577 0.0
H3678 H 0.06169 0.65849 0.62811 0.0
H3679 H 0.06415 0.68058 0.65741 0.0
H3680 H 0.07191 0.66416 0.59244 0.0
H3681 H 0.02259 0.64322 0.62032 0.0
H3682 H 0.99681 0.64548 0.63485 0.0
H3683 H 0.9709 0.65805 0.58252 0.0
H3684 H 0.99677 0.65629 0.5678 0.0
H3685 H 0.03981 0.56898 0.55503 0.0
H3686 H 0.04572 0.60015 0.57343 0.0
H3687 H 0.02824 0.62206 0.52264 0.0
H3688 H 0.02308 0.5905 0.50352 0.0
H3689 H 0.01234 0.62637 0.56205 0.0
H3690 H 0.06506 0.6385 0.53436 0.0
H3691 H 0.0906 0.62849 0.52474 0.0
H3692 H 0.10988 0.62412 0.58296 0.0
H3693 H 0.08428 0.63377 0.59288 0.0
C3694 C 0.04146 0.7019 0.62573 0.0
C3695 C 0.04998 0.69876 0.6433 0.0
C3696 C 0.03992 0.68925 0.60916 0.0
C3697 C 0.04713 0.67354 0.60997 0.0
C3698 C 0.05614 0.67068 0.62735 0.0
C3699 C 0.0574 0.68314 0.64401 0.0
C3700 C 0.04429 0.6594 0.59287 0.0
C3701 C 0.0589 0.65605 0.58559 0.0
C3702 C 0.02729 0.64878 0.58429 0.0
C3703 C 0.01176 0.65005 0.59309 0.0
C3704 C 0.01152 0.64679 0.612 0.0
C3705 C 0.99687 0.64791 0.62026 0.0
C3706 C 0.98227 0.65202 0.60965 0.0
C3707 C 0.98227 0.65496 0.59075 0.0
C3708 C 0.99694 0.65394 0.58245 0.0
C3709 C 0.03784 0.58047 0.54752 0.0
C3710 C 0.03147 0.57748 0.52774 0.0
C3711 C 0.04101 0.59821 0.55813 0.0
C3712 C 0.03752 0.61321 0.54925 0.0
C3713 C 0.03112 0.61048 0.52953 0.0
C3714 C 0.02827 0.59261 0.5187 0.0
C3715 C 0.03992 0.63133 0.56139 0.0
C3716 C 0.02525 0.63523 0.56816 0.0
C3717 C 0.05693 0.6418 0.57011 0.0
C3718 C 0.07275 0.63687 0.56434 0.0
C3719 C 0.07473 0.63537 0.5451 0.0
C3720 C 0.08921 0.62973 0.53959 0.0
C3721 C 0.10186 0.62568 0.55323 0.0
C3722 C 0.10009 0.6273 0.57242 0.0
C3723 C 0.08561 0.6329 0.57799 0.0
H3724 H 0.11305 0.62131 0.54894 0.0
H3725 H 0.97091 0.65284 0.61605 0.0
H3726 H 0.56075 0.77247 0.85889 0.0
H3727 H 0.58475 0.76668 0.84362 0.0
H3728 H 0.58337 0.81466 0.81477 0.0
H3729 H 0.5587 0.82029 0.82968 0.0
H3730 H 0.58756 0.78371 0.79149 0.0
H3731 H 0.61375 0.81865 0.8544 0.0
H3732 H 0.6166 0.82477 0.88948 0.0
H3733 H 0.62869 0.77107 0.89346 0.0
H3734 H 0.62564 0.76449 0.85839 0.0
H3735 H 0.67254 0.7813 0.76842 0.0
H3736 H 0.64732 0.79119 0.77864 0.0
H3737 H 0.64183 0.74763 0.81406 0.0
H3738 H 0.6668 0.7377 0.80391 0.0
H3739 H 0.64239 0.78089 0.83357 0.0
H3740 H 0.61398 0.74371 0.77288 0.0
H3741 H 0.60821 0.73394 0.73793 0.0
H3742 H 0.59816 0.78775 0.72973 0.0
H3743 H 0.60421 0.79799 0.76465 0.0
C3744 C 0.56554 0.78187 0.84935 0.0
C3745 C 0.55807 0.79705 0.84569 0.0
C3746 C 0.57925 0.77851 0.84064 0.0
C3747 C 0.58602 0.79051 0.82846 0.0
C3748 C 0.57833 0.80538 0.82429 0.0
C3749 C 0.56436 0.80861 0.83285 0.0
C3750 C 0.60138 0.78755 0.8205 0.0
C3751 C 0.59973 0.78349 0.8006 0.0
C3752 C 0.61698 0.78681 0.83257 0.0
C3753 C 0.61942 0.79106 0.85375 0.0
C3754 C 0.61698 0.80813 0.86275 0.0
C3755 C 0.61861 0.81167 0.88264 0.0
C3756 C 0.62281 0.79832 0.89369 0.0
C3757 C 0.62545 0.78141 0.88489 0.0
C3758 C 0.6238 0.77778 0.86501 0.0
C3759 C 0.66575 0.77371 0.77816 0.0
C3760 C 0.67165 0.75886 0.78554 0.0
C3761 C 0.65142 0.77937 0.78398 0.0
C3762 C 0.64282 0.77013 0.79711 0.0
C3763 C 0.64843 0.75501 0.80404 0.0
C3764 C 0.6627 0.74939 0.79828 0.0
C3765 C 0.62848 0.77664 0.80451 0.0
C3766 C 0.63037 0.78145 0.82437 0.0
C3767 C 0.61302 0.77772 0.7924 0.0
C3768 C 0.60984 0.77174 0.77139 0.0
C3769 C 0.6108 0.75357 0.76363 0.0
C3770 C 0.60742 0.74792 0.74382 0.0
C3771 C 0.60289 0.76024 0.73161 0.0
C3772 C 0.60173 0.77824 0.73919 0.0
C3773 C 0.60515 0.78398 0.759 0.0
H3774 H 0.60022 0.75582 0.71628 0.0
H3775 H 0.62403 0.80107 0.90908 0.0
H3776 H 0.47034 0.53631 0.71524 0.0
H3777 H 0.485 0.5436 0.68843 0.0
H3778 H 0.46468 0.48599 0.66031 0.0
H3779 H 0.45126 0.47851 0.68777 0.0
H3780 H 0.49663 0.49544 0.658 0.0
H3781 H 0.44898 0.52742 0.64702 0.0
H3782 H 0.4319 0.55028 0.65628 0.0
H3783 H 0.47819 0.59526 0.6661 0.0
H3784 H 0.49556 0.57262 0.65712 0.0
H3785 H 0.50864 0.50243 0.56345 0.0
H3786 H 0.49604 0.499 0.59222 0.0
H3787 H 0.52471 0.5554 0.61768 0.0
H3788 H 0.53726 0.55898 0.58877 0.0
H3789 H 0.49151 0.54887 0.62325 0.0
H3790 H 0.53822 0.51809 0.63019 0.0
H3791 H 0.55623 0.496 0.62185 0.0
H3792 H 0.51336 0.44923 0.62131 0.0
H3793 H 0.49476 0.47096 0.62873 0.0
C3794 C 0.46879 0.52538 0.70311 0.0
C3795 C 0.45956 0.50694 0.70331 0.0
C3796 C 0.47714 0.52952 0.68779 0.0
C3797 C 0.47579 0.51541 0.67214 0.0
C3798 C 0.466 0.49712 0.67219 0.0
C3799 C 0.45818 0.49287 0.68775 0.0
C3800 C 0.48507 0.51927 0.65602 0.0
C3801 C 0.49524 0.50694 0.6502 0.0
C3802 C 0.48405 0.5348 0.64639 0.0
C3803 C 0.47355 0.54834 0.65156 0.0
C3804 C 0.4555 0.54218 0.65125 0.0
C3805 C 0.44578 0.55509 0.65644 0.0
C3806 C 0.45396 0.57421 0.66182 0.0
C3807 C 0.47188 0.58046 0.66196 0.0
C3808 C 0.48165 0.5676 0.6568 0.0
C3809 C 0.51211 0.51417 0.5751 0.0
C3810 C 0.52388 0.531 0.57391 0.0
C3811 C 0.50504 0.51213 0.59158 0.0
C3812 C 0.50965 0.52685 0.60717 0.0
C3813 C 0.52105 0.54385 0.60581 0.0
C3814 C 0.52816 0.5459 0.58932 0.0
C3815 C 0.50236 0.52456 0.62477 0.0
C3816 C 0.49278 0.53729 0.63098 0.0
C3817 C 0.50397 0.5094 0.63477 0.0
C3818 C 0.51499 0.49622 0.62978 0.0
C3819 C 0.53249 0.5031 0.62794 0.0
C3820 C 0.54281 0.49061 0.62334 0.0
C3821 C 0.53588 0.4712 0.62085 0.0
C3822 C 0.51862 0.46424 0.62296 0.0
C3823 C 0.50817 0.47664 0.62733 0.0
H3824 H 0.54391 0.46155 0.61741 0.0
H3825 H 0.44642 0.58418 0.66584 0.0
H3826 H 0.82504 0.17811 0.97505 0.0
H3827 H 0.80649 0.1923 0.95375 0.0
H3828 H 0.81337 0.23937 0.99882 0.0
H3829 H 0.83369 0.22655 0.01883 0.0
H3830 H 0.77641 0.19409 0.96063 0.0
H3831 H 0.79856 0.27144 0.98719 0.0
H3832 H 0.82586 0.29591 -0.00022 0.0
H3833 H 0.85262 0.26838 0.96144 0.0
H3834 H 0.82552 0.24366 0.94885 0.0
H3835 H 0.74347 0.26769 0.90133 0.0
H3836 H 0.74483 0.25345 0.93059 0.0
H3837 H 0.76968 0.21257 0.90495 0.0
H3838 H 0.76863 0.227 0.87615 0.0
H3839 H 0.78182 0.25803 0.94348 0.0
H3840 H 0.76244 0.18107 0.9178 0.0
H3841 H 0.7365 0.15518 0.90403 0.0
H3842 H 0.70546 0.1813 0.93806 0.0
H3843 H 0.73116 0.20757 0.95163 0.0
C3844 C 0.82376 0.19224 0.97969 0.0
C3845 C 0.83056 0.20116 0.99854 0.0
C3846 C 0.81271 0.20008 0.96781 0.0
C3847 C 0.80813 0.21665 0.97485 0.0
C3848 C 0.81683 0.22677 0.99282 0.0
C3849 C 0.82867 0.21946 0.00425 0.0
C3850 C 0.7931 0.22211 0.96411 0.0
C3851 C 0.77762 0.20811 0.95692 0.0
C3852 C 0.79408 0.24062 0.96027 0.0
C3853 C 0.81011 0.25581 0.96712 0.0
C3854 C 0.81025 0.27075 0.98137 0.0
C3855 C 0.8257 0.28457 0.98859 0.0
C3856 C 0.84097 0.2837 0.98141 0.0
C3857 C 0.84081 0.26902 0.96701 0.0
C3858 C 0.82544 0.25508 0.95988 0.0
C3859 C 0.74824 0.25498 0.90169 0.0
C3860 C 0.75597 0.24829 0.8868 0.0
C3861 C 0.7489 0.24681 0.91827 0.0
C3862 C 0.75723 0.23194 0.91985 0.0
C3863 C 0.76277 0.22372 0.90385 0.0
C3864 C 0.7623 0.23201 0.88744 0.0
C3865 C 0.76593 0.22959 0.93866 0.0
C3866 C 0.78029 0.24424 0.94784 0.0
C3867 C 0.76407 0.21166 0.94409 0.0
C3868 C 0.7486 0.19623 0.93561 0.0
C3869 C 0.75004 0.18129 0.92224 0.0
C3870 C 0.73539 0.1666 0.91444 0.0
C3871 C 0.71934 0.1666 0.92016 0.0
C3872 C 0.71788 0.18137 0.93357 0.0
C3873 C 0.73243 0.19622 0.94121 0.0
H3874 H 0.70804 0.15515 0.91422 0.0
H3875 H 0.85291 0.2944 0.98701 0.0
H3876 H 0.13932 0.53012 0.22732 0.0
H3877 H 0.12517 0.53145 0.19485 0.0
H3878 H 0.09335 0.47548 0.19136 0.0
H3879 H 0.10799 0.47405 0.22391 0.0
H3880 H 0.09949 0.478 0.15739 0.0
H3881 H 0.07897 0.52008 0.19982 0.0
H3882 H 0.08124 0.54669 0.22528 0.0
H3883 H 0.1078 0.58497 0.19267 0.0
H3884 H 0.10588 0.55854 0.16711 0.0
H3885 H 0.03325 0.48255 0.07935 0.0
H3886 H 0.05016 0.48167 0.11062 0.0
H3887 H 0.08448 0.53488 0.1085 0.0
H3888 H 0.06742 0.53574 0.07685 0.0
H3889 H 0.07768 0.53448 0.14492 0.0
H3890 H 0.09757 0.49234 0.10228 0.0
H3891 H 0.09476 0.4657 0.07669 0.0
H3892 H 0.06889 0.42757 0.10993 0.0
H3893 H 0.07129 0.45406 0.1356 0.0
C3894 C 0.12967 0.51781 0.21947 0.0
C3895 C 0.12538 0.50173 0.22835 0.0
C3896 C 0.1212 0.51873 0.20081 0.0
C3897 C 0.10761 0.50376 0.19016 0.0
C3898 C 0.10365 0.4874 0.19882 0.0
C3899 C 0.11223 0.48646 0.21755 0.0
C3900 C 0.09759 0.50524 0.17035 0.0
C3901 C 0.09457 0.49032 0.15493 0.0
C3902 C 0.09123 0.52138 0.16628 0.0
C3903 C 0.09243 0.53729 0.18163 0.0
C3904 C 0.0854 0.53415 0.19814 0.0
C3905 C 0.08661 0.54921 0.21258 0.0
C3906 C 0.09469 0.5675 0.21061 0.0
C3907 C 0.10156 0.57078 0.19418 0.0
C3908 C 0.1004 0.55577 0.17971 0.0
C3909 C 0.04448 0.49408 0.08536 0.0
C3910 C 0.04885 0.50914 0.07513 0.0
C3911 C 0.05429 0.49354 0.10347 0.0
C3912 C 0.06899 0.5081 0.11243 0.0
C3913 C 0.07335 0.52332 0.1023 0.0
C3914 C 0.06358 0.52376 0.08396 0.0
C3915 C 0.07957 0.50721 0.1321 0.0
C3916 C 0.08265 0.5222 0.14745 0.0
C3917 C 0.08595 0.49115 0.13616 0.0
C3918 C 0.08449 0.4752 0.12079 0.0
C3919 C 0.09116 0.47829 0.10407 0.0
C3920 C 0.08966 0.46322 0.08956 0.0
C3921 C 0.08162 0.44496 0.09167 0.0
C3922 C 0.07509 0.44173 0.10831 0.0
C3923 C 0.07653 0.45677 0.12285 0.0
H3924 H 0.08049 0.4333 0.08043 0.0
H3925 H 0.09561 0.57914 0.2218 0.0
H3926 H 0.78493 0.86902 0.47658 0.0
H3927 H 0.78227 0.85619 0.44295 0.0
H3928 H 0.77223 0.79981 0.45673 0.0
H3929 H 0.77602 0.81278 0.49054 0.0
H3930 H 0.79797 0.80413 0.43973 0.0
H3931 H 0.74131 0.8173 0.42557 0.0
H3932 H 0.71892 0.83597 0.42507 0.0
H3933 H 0.74861 0.87518 0.39566 0.0
H3934 H 0.77123 0.85683 0.39612 0.0
H3935 H 0.7755 0.75866 0.3412 0.0
H3936 H 0.77389 0.77126 0.37402 0.0
H3937 H 0.80652 0.82462 0.36881 0.0
H3938 H 0.80872 0.81177 0.33616 0.0
H3939 H 0.76932 0.82186 0.38042 0.0
H3940 H 0.8263 0.80811 0.39611 0.0
H3941 H 0.84677 0.7873 0.39453 0.0
H3942 H 0.81383 0.74704 0.42001 0.0
H3943 H 0.79303 0.76753 0.42147 0.0
C3944 C 0.7815 0.85388 0.47228 0.0
C3945 C 0.78078 0.84184 0.48604 0.0
C3946 C 0.77995 0.84652 0.45303 0.0
C3947 C 0.77713 0.827 0.44727 0.0
C3948 C 0.7746 0.81492 0.46085 0.0
C3949 C 0.77663 0.8223 0.48013 0.0
C3950 C 0.77952 0.81943 0.42798 0.0
C3951 C 0.7914 0.80781 0.4268 0.0
C3952 C 0.77146 0.82459 0.41105 0.0
C3953 C 0.75803 0.8358 0.41105 0.0
C3954 C 0.74313 0.83 0.41916 0.0
C3955 C 0.73038 0.84049 0.41884 0.0
C3956 C 0.73237 0.85678 0.4104 0.0
C3957 C 0.74709 0.86258 0.40222 0.0
C3958 C 0.75986 0.85212 0.40247 0.0
C3959 C 0.78268 0.7729 0.34733 0.0
C3960 C 0.7924 0.78427 0.33653 0.0
C3961 C 0.78167 0.78008 0.3659 0.0
C3962 C 0.79 0.79883 0.37359 0.0
C3963 C 0.80004 0.81011 0.36296 0.0
C3964 C 0.80144 0.80275 0.34453 0.0
C3965 C 0.78753 0.80672 0.39251 0.0
C3966 C 0.77572 0.8183 0.39351 0.0
C3967 C 0.79545 0.80139 0.40926 0.0
C3968 C 0.80807 0.78925 0.40874 0.0
C3969 C 0.82337 0.79475 0.40123 0.0
C3970 C 0.83504 0.78303 0.40038 0.0
C3971 C 0.83158 0.76583 0.40712 0.0
C3972 C 0.81648 0.76035 0.41478 0.0
C3973 C 0.80476 0.77202 0.41564 0.0
H3974 H 0.84063 0.75676 0.40644 0.0
H3975 H 0.72249 0.86489 0.41016 0.0
H3976 H 0.49573 0.52482 0.80438 0.0
H3977 H 0.5064 0.52966 0.83895 0.0
H3978 H 0.45297 0.51724 0.84827 0.0
H3979 H 0.44242 0.5141 0.814 0.0
H3980 H 0.47086 0.53933 0.87716 0.0
H3981 H 0.47782 0.48246 0.84289 0.0
H3982 H 0.48756 0.46263 0.81841 0.0
H3983 H 0.54128 0.48982 0.84222 0.0
H3984 H 0.53185 0.51 0.86668 0.0
H3985 H 0.4935 0.49595 0.96138 0.0
H3986 H 0.48209 0.4974 0.92778 0.0
H3987 H 0.52942 0.53808 0.92576 0.0
H3988 H 0.5405 0.53729 0.95946 0.0
H3989 H 0.51363 0.50098 0.89418 0.0
H3990 H 0.5028 0.5573 0.93034 0.0
H3991 H 0.48978 0.57188 0.9556 0.0
H3992 H 0.43858 0.53945 0.928 0.0
H3993 H 0.45137 0.52406 0.90298 0.0
C3994 C 0.48637 0.52377 0.81394 0.0
C3995 C 0.46832 0.51897 0.80669 0.0
C3996 C 0.49241 0.52632 0.83362 0.0
C3997 C 0.48046 0.52308 0.84612 0.0
C3998 C 0.46245 0.51968 0.83893 0.0
C3999 C 0.45643 0.51788 0.81934 0.0
C4000 C 0.48659 0.5214 0.86626 0.0
C4001 C 0.48014 0.53087 0.88081 0.0
C4002 C 0.49843 0.51003 0.87111 0.0
C4003 C 0.50413 0.49784 0.85649 0.0
C4004 C 0.49171 0.48427 0.84283 0.0
C4005 C 0.49717 0.47297 0.82896 0.0
C4006 C 0.51503 0.47499 0.82873 0.0
C4007 C 0.52746 0.48829 0.8424 0.0
C4008 C 0.52206 0.49965 0.85627 0.0
C4009 C 0.50145 0.50503 0.9536 0.0
C4010 C 0.51781 0.5165 0.96268 0.0
C4011 C 0.49493 0.50592 0.93461 0.0
C4012 C 0.50496 0.51793 0.92459 0.0
C4013 C 0.52157 0.52884 0.93347 0.0
C4014 C 0.52784 0.52837 0.95257 0.0
C4015 C 0.49822 0.51922 0.90475 0.0
C4016 C 0.50443 0.5095 0.89035 0.0
C4017 C 0.48572 0.52975 0.90005 0.0
C4018 C 0.47807 0.53935 0.91491 0.0
C4019 C 0.4888 0.55308 0.92978 0.0
C4020 C 0.48146 0.56154 0.94403 0.0
C4021 C 0.46338 0.55665 0.94338 0.0
C4022 C 0.45259 0.54323 0.9285 0.0
C4023 C 0.45988 0.53459 0.91431 0.0
H4024 H 0.45773 0.56326 0.9544 0.0
H4025 H 0.51923 0.46623 0.81799 0.0
H4026 H 0.84325 0.22199 0.10407 0.0
H4027 H 0.83468 0.22844 0.13479 0.0
H4028 H 0.78663 0.23956 0.10696 0.0
H4029 H 0.79474 0.2324 0.07572 0.0
H4030 H 0.80991 0.26776 0.1378 0.0
H4031 H 0.78014 0.20363 0.12372 0.0
H4032 H 0.77528 0.1695 0.11327 0.0
H4033 H 0.815 0.16647 0.15993 0.0
H4034 H 0.82045 0.20066 0.17041 0.0
H4035 H 0.78944 0.28609 0.2265 0.0
H4036 H 0.78676 0.27126 0.19375 0.0
H4037 H 0.83028 0.24649 0.21081 0.0
H4038 H 0.83164 0.25987 0.24447 0.0
H4039 H 0.80325 0.22242 0.18371 0.0
H4040 H 0.83765 0.28652 0.19269 0.0
H4041 H 0.84237 0.32028 0.20521 0.0
H4042 H 0.79503 0.32249 0.16842 0.0
H4043 H 0.7899 0.28866 0.15591 0.0
C4044 C 0.83092 0.22599 0.1044 0.0
C4045 C 0.81961 0.22664 0.08752 0.0
C4046 C 0.82594 0.22928 0.1219 0.0
C4047 C 0.8098 0.23366 0.12276 0.0
C4048 C 0.79893 0.23561 0.1062 0.0
C4049 C 0.80376 0.23196 0.08853 0.0
C4050 C 0.80574 0.23862 0.14145 0.0
C4051 C 0.80799 0.25781 0.14774 0.0
C4052 C 0.80381 0.22546 0.15425 0.0
C4053 C 0.80082 0.20485 0.14777 0.0
C4054 C 0.78803 0.19577 0.13162 0.0
C4055 C 0.78513 0.17637 0.12571 0.0
C4056 C 0.79485 0.16583 0.13591 0.0
C4057 C 0.80749 0.17466 0.15203 0.0
C4058 C 0.81049 0.19406 0.15796 0.0
C4059 C 0.79873 0.27789 0.22311 0.0
C4060 C 0.81126 0.27461 0.23747 0.0
C4061 C 0.79697 0.26916 0.2046 0.0
C4062 C 0.80853 0.25816 0.20003 0.0
C4063 C 0.82133 0.25507 0.2143 0.0
C4064 C 0.82251 0.26311 0.23321 0.0
C4065 C 0.80804 0.25154 0.17997 0.0
C4066 C 0.80494 0.2322 0.17359 0.0
C4067 C 0.80958 0.2645 0.16699 0.0
C4068 C 0.81341 0.28512 0.17336 0.0
C4069 C 0.82831 0.29425 0.18721 0.0
C4070 C 0.83101 0.31336 0.19436 0.0
C4071 C 0.819 0.32352 0.18761 0.0
C4072 C 0.80433 0.31461 0.17361 0.0
C4073 C 0.80154 0.29548 0.16645 0.0
H4074 H 0.82107 0.33831 0.19323 0.0
H4075 H 0.79255 0.15081 0.13134 0.0
H4076 H 0.13656 0.53905 0.34536 0.0
H4077 H 0.12363 0.54248 0.37397 0.0
H4078 H 0.10792 0.48215 0.36905 0.0
H4079 H 0.12095 0.47872 0.34 0.0
H4080 H 0.08106 0.49675 0.37616 0.0
H4081 H 0.14293 0.5151 0.40718 0.0
H4082 H 0.17326 0.5345 0.41378 0.0
H4083 H 0.15451 0.58438 0.42619 0.0
H4084 H 0.12409 0.56532 0.4195 0.0
H4085 H 0.04422 0.49612 0.46056 0.0
H4086 H 0.06072 0.49243 0.43488 0.0
H4087 H 0.08838 0.55082 0.4504 0.0
H4088 H 0.07302 0.55377 0.47749 0.0
H4089 H 0.10975 0.53789 0.43762 0.0
H4090 H 0.05112 0.52622 0.40563 0.0
H4091 H 0.01932 0.51215 0.39786 0.0
H4092 H 0.02912 0.45742 0.38382 0.0
H4093 H 0.061 0.47116 0.3917 0.0
C4094 C 0.13082 0.52639 0.35059 0.0
C4095 C 0.13036 0.50856 0.34026 0.0
C4096 C 0.12332 0.52841 0.3672 0.0
C4097 C 0.11476 0.51267 0.37441 0.0
C4098 C 0.11445 0.49473 0.36427 0.0
C4099 C 0.12217 0.4927 0.34761 0.0
C4100 C 0.10528 0.51497 0.39153 0.0
C4101 C 0.08755 0.5055 0.3897 0.0
C4102 C 0.11293 0.52735 0.40914 0.0
C4103 C 0.13122 0.53878 0.41263 0.0
C4104 C 0.14526 0.53021 0.41112 0.0
C4105 C 0.16248 0.54115 0.41492 0.0
C4106 C 0.1658 0.56066 0.42031 0.0
C4107 C 0.15192 0.56928 0.42196 0.0
C4108 C 0.1347 0.55841 0.41818 0.0
C4109 C 0.05384 0.50822 0.45855 0.0
C4110 C 0.05705 0.5253 0.47126 0.0
C4111 C 0.06324 0.5062 0.44342 0.0
C4112 C 0.07573 0.52146 0.43951 0.0
C4113 C 0.079 0.53857 0.45245 0.0
C4114 C 0.07005 0.54037 0.46811 0.0
C4115 C 0.08545 0.51944 0.42243 0.0
C4116 C 0.10318 0.52904 0.42418 0.0
C4117 C 0.07753 0.50802 0.40433 0.0
C4118 C 0.05842 0.49968 0.39947 0.0
C4119 C 0.04648 0.51117 0.40099 0.0
C4120 C 0.02845 0.50326 0.39655 0.0
C4121 C 0.0222 0.48389 0.39042 0.0
C4122 C 0.03398 0.47241 0.38862 0.0
C4123 C 0.05203 0.48025 0.39304 0.0
H4124 H 0.00823 0.47779 0.38703 0.0
H4125 H 0.17913 0.56908 0.42331 0.0
H4126 H 0.79239 0.81862 0.57522 0.0
H4127 H 0.78624 0.80424 0.6031 0.0
H4128 H 0.78379 0.85802 0.63253 0.0
H4129 H 0.78967 0.87257 0.6042 0.0
H4130 H 0.80736 0.8389 0.65272 0.0
H4131 H 0.74742 0.82528 0.61932 0.0
H4132 H 0.72307 0.81266 0.59198 0.0
H4133 H 0.7323 0.7573 0.59222 0.0
H4134 H 0.7569 0.76962 0.61937 0.0
H4135 H 0.78482 0.80483 0.73573 0.0
H4136 H 0.78653 0.81997 0.70739 0.0
H4137 H 0.77555 0.76549 0.67206 0.0
H4138 H 0.77311 0.75025 0.70043 0.0
H4139 H 0.7579 0.78561 0.65466 0.0
H4140 H 0.81744 0.7963 0.68391 0.0
H4141 H 0.84352 0.80609 0.70959 0.0
H4142 H 0.83808 0.86319 0.71464 0.0
H4143 H 0.81174 0.85367 0.68923 0.0
C4144 C 0.7903 0.82739 0.58752 0.0
C4145 C 0.79161 0.84677 0.58758 0.0
C4146 C 0.7867 0.8191 0.60342 0.0
C4147 C 0.78452 0.83002 0.61988 0.0
C4148 C 0.78538 0.84933 0.6199 0.0
C4149 C 0.78866 0.85762 0.60374 0.0
C4150 C 0.78271 0.82139 0.63742 0.0
C4151 C 0.79635 0.82753 0.65334 0.0
C4152 C 0.76884 0.80583 0.63777 0.0
C4153 C 0.75413 0.79843 0.6213 0.0
C4154 C 0.74439 0.81045 0.61342 0.0
C4155 C 0.73051 0.80334 0.59798 0.0
C4156 C 0.72616 0.7842 0.59034 0.0
C4157 C 0.73568 0.77212 0.59814 0.0
C4158 C 0.74959 0.77917 0.61356 0.0
C4159 C 0.78291 0.79608 0.72194 0.0
C4160 C 0.77891 0.77635 0.72031 0.0
C4161 C 0.78394 0.80476 0.70571 0.0
C4162 C 0.7814 0.79394 0.6875 0.0
C4163 C 0.77756 0.7742 0.68589 0.0
C4164 C 0.77628 0.76549 0.70213 0.0
C4165 C 0.7825 0.80324 0.67016 0.0
C4166 C 0.76883 0.79712 0.6542 0.0
C4167 C 0.79666 0.81841 0.66948 0.0
C4168 C 0.81249 0.82423 0.68481 0.0
C4169 C 0.82171 0.81092 0.69062 0.0
C4170 C 0.83655 0.81642 0.70511 0.0
C4171 C 0.84243 0.83525 0.71378 0.0
C4172 C 0.83349 0.84861 0.70794 0.0
C4173 C 0.81859 0.84317 0.69349 0.0
H4174 H 0.85394 0.83948 0.72498 0.0
H4175 H 0.71539 0.77872 0.5784 0.0
H4176 H 0.69762 0.36282 0.52078 0.0
H4177 H 0.67647 0.38119 0.52789 0.0
H4178 H 0.70766 0.4294 0.51029 0.0
H4179 H 0.72888 0.41128 0.50318 0.0
H4180 H 0.70112 0.43484 0.54762 0.0
H4181 H 0.67074 0.40972 0.48325 0.0
H4182 H 0.65666 0.38429 0.4562 0.0
H4183 H 0.619 0.36085 0.48908 0.0
H4184 H 0.63299 0.38605 0.51643 0.0
H4185 H 0.65126 0.50182 0.54682 0.0
H4186 H 0.66905 0.47926 0.54168 0.0
H4187 H 0.62729 0.43452 0.55023 0.0
H4188 H 0.60898 0.45715 0.55424 0.0
H4189 H 0.63811 0.4245 0.5196 0.0
H4190 H 0.66832 0.45175 0.58378 0.0
H4191 H 0.68372 0.47701 0.61057 0.0
H4192 H 0.72276 0.49653 0.57761 0.0
H4193 H 0.70753 0.4715 0.5506 0.0
C4194 C 0.69991 0.37732 0.51836 0.0
C4195 C 0.71497 0.38582 0.51178 0.0
C4196 C 0.68776 0.38764 0.5222 0.0
C4197 C 0.69066 0.40646 0.51949 0.0
C4198 C 0.70536 0.41479 0.51235 0.0
C4199 C 0.71745 0.40449 0.50844 0.0
C4200 C 0.67955 0.41818 0.52626 0.0
C4201 C 0.68736 0.43277 0.54146 0.0
C4202 C 0.66158 0.41476 0.51846 0.0
C4203 C 0.65304 0.39967 0.50197 0.0
C4204 C 0.65955 0.39906 0.48478 0.0
C4205 C 0.65156 0.38471 0.46937 0.0
C4206 C 0.63698 0.37093 0.47094 0.0
C4207 C 0.63031 0.37152 0.4879 0.0
C4208 C 0.63825 0.38585 0.50335 0.0
C4209 C 0.64612 0.48726 0.54815 0.0
C4210 C 0.62898 0.48109 0.55112 0.0
C4211 C 0.65627 0.47439 0.54528 0.0
C4212 C 0.6496 0.4553 0.546 0.0
C4213 C 0.63267 0.44924 0.54978 0.0
C4214 C 0.62232 0.46209 0.55217 0.0
C4215 C 0.65974 0.44158 0.54092 0.0
C4216 C 0.65178 0.42649 0.52604 0.0
C4217 C 0.67768 0.44456 0.54897 0.0
C4218 C 0.68673 0.45978 0.56515 0.0
C4219 C 0.68012 0.4615 0.58222 0.0
C4220 C 0.68884 0.47576 0.59745 0.0
C4221 C 0.7042 0.48837 0.59579 0.0
C4222 C 0.71088 0.48675 0.57889 0.0
C4223 C 0.70223 0.4725 0.56364 0.0
H4224 H 0.71093 0.49939 0.60761 0.0
H4225 H 0.63082 0.35983 0.45901 0.0
H4226 H 0.22629 0.11714 0.52957 0.0
H4227 H 0.1983 0.09796 0.53387 0.0
H4228 H 0.1715 0.11694 0.48559 0.0
H4229 H 0.19926 0.137 0.48221 0.0
H4230 H 0.15292 0.11764 0.51093 0.0
H4231 H 0.18091 0.06929 0.48669 0.0
H4232 H 0.20501 0.05289 0.48759 0.0
H4233 H 0.19909 0.04115 0.5438 0.0
H4234 H 0.1751 0.05766 0.5433 0.0
H4235 H 0.07032 0.05039 0.49701 0.0
H4236 H 0.09836 0.07129 0.49529 0.0
H4237 H 0.12411 0.04865 0.54154 0.0
H4238 H 0.09632 0.02688 0.54211 0.0
H4239 H 0.14364 0.05044 0.51847 0.0
H4240 H 0.11521 0.09725 0.54298 0.0
H4241 H 0.09214 0.11493 0.54374 0.0
H4242 H 0.09945 0.13089 0.48932 0.0
H4243 H 0.12236 0.11306 0.4881 0.0
C4244 C 0.21446 0.11685 0.51963 0.0
C4245 C 0.21504 0.12833 0.50533 0.0
C4246 C 0.19837 0.10587 0.52209 0.0
C4247 C 0.18253 0.1056 0.50989 0.0
C4248 C 0.18332 0.11677 0.49529 0.0
C4249 C 0.19928 0.12811 0.4932 0.0
C4250 C 0.16508 0.09424 0.51243 0.0
C4251 C 0.15087 0.10286 0.51233 0.0
C4252 C 0.16226 0.0751 0.51497 0.0
C4253 C 0.17633 0.06478 0.515 0.0
C4254 C 0.18479 0.06323 0.49924 0.0
C4255 C 0.19843 0.05394 0.49969 0.0
C4256 C 0.2036 0.04602 0.51576 0.0
C4257 C 0.19509 0.0473 0.53138 0.0
C4258 C 0.18146 0.0566 0.53101 0.0
C4259 C 0.08195 0.05021 0.50703 0.0
C4260 C 0.08112 0.03718 0.51986 0.0
C4261 C 0.09806 0.06224 0.50612 0.0
C4262 C 0.11366 0.06195 0.51846 0.0
C4263 C 0.11252 0.04928 0.53172 0.0
C4264 C 0.09656 0.0369 0.53219 0.0
C4265 C 0.13129 0.07377 0.51687 0.0
C4266 C 0.14559 0.06523 0.51713 0.0
C4267 C 0.13419 0.09305 0.51467 0.0
C4268 C 0.12036 0.10366 0.51537 0.0
C4269 C 0.11179 0.1044 0.53111 0.0
C4270 C 0.09876 0.11447 0.53163 0.0
C4271 C 0.09429 0.12398 0.51656 0.0
C4272 C 0.10289 0.12349 0.50096 0.0
C4273 C 0.11589 0.11341 0.50035 0.0
H4274 H 0.08419 0.13176 0.51699 0.0
H4275 H 0.21419 0.03886 0.51609 0.0
H4276 H 0.19376 0.00622 0.78171 0.0
H4277 H 0.20498 0.97822 0.77506 0.0
H4278 H 0.15452 0.94289 0.77647 0.0
H4279 H 0.14318 0.97095 0.78343 0.0
H4280 H 0.18057 0.93092 0.79602 0.0
H4281 H 0.16758 0.94648 0.73388 0.0
H4282 H 0.16753 0.96744 0.70953 0.0
H4283 H 0.22371 0.97912 0.71796 0.0
H4284 H 0.22411 0.9584 0.74255 0.0
H4285 H 0.2118 0.85084 0.76815 0.0
H4286 H 0.19353 0.87364 0.76533 0.0
H4287 H 0.23928 0.9173 0.76506 0.0
H4288 H 0.25755 0.8946 0.76765 0.0
H4289 H 0.21138 0.92211 0.74154 0.0
H4290 H 0.22391 0.9099 0.80676 0.0
H4291 H 0.22386 0.88891 0.8311 0.0
H4292 H 0.16775 0.87078 0.81635 0.0
H4293 H 0.16753 0.89151 0.79174 0.0
C4294 C 0.185 0.99252 0.7806 0.0
C4295 C 0.16755 0.99084 0.78306 0.0
C4296 C 0.19142 0.9765 0.77667 0.0
C4297 C 0.18051 0.95845 0.77493 0.0
C4298 C 0.16314 0.95669 0.77764 0.0
C4299 C 0.1567 0.97274 0.78164 0.0
C4300 C 0.18751 0.94152 0.77083 0.0
C4301 C 0.18697 0.92879 0.78387 0.0
C4302 C 0.19604 0.93881 0.75512 0.0
C4303 C 0.19588 0.951 0.74013 0.0
C4304 C 0.17993 0.9536 0.7306 0.0
C4305 C 0.17984 0.96542 0.71676 0.0
C4306 C 0.19561 0.97464 0.71223 0.0
C4307 C 0.21151 0.97198 0.72149 0.0
C4308 C 0.21167 0.96017 0.73535 0.0
C4309 C 0.21793 0.86527 0.7673 0.0
C4310 C 0.23615 0.87097 0.76838 0.0
C4311 C 0.20747 0.87826 0.76565 0.0
C4312 C 0.2151 0.89726 0.76538 0.0
C4313 C 0.23311 0.90273 0.76529 0.0
C4314 C 0.24355 0.88972 0.76677 0.0
C4315 C 0.20476 0.9118 0.76697 0.0
C4316 C 0.20469 0.92409 0.75348 0.0
C4317 C 0.19562 0.9141 0.78224 0.0
C4318 C 0.19571 0.90208 0.79735 0.0
C4319 C 0.21158 0.90138 0.80869 0.0
C4320 C 0.2116 0.88953 0.82251 0.0
C4321 C 0.19581 0.87848 0.82524 0.0
C4322 C 0.17997 0.87932 0.81421 0.0
C4323 C 0.17988 0.89112 0.80033 0.0
H4324 H 0.19585 0.86929 0.83593 0.0
H4325 H 0.19551 0.98381 0.70153 0.0
H4326 H 0.2971 0.88398 0.04201 0.0
H4327 H 0.3212 0.91096 0.04181 0.0
H4328 H 0.32088 0.89054 0.98251 0.0
H4329 H 0.29902 0.86249 0.98386 0.0
H4330 H 0.35076 0.90097 0.99592 0.0
H4331 H 0.3043 0.93254 0.00358 0.0
H4332 H 0.2811 0.94243 0.01867 0.0
H4333 H 0.31854 0.96693 0.07014 0.0
H4334 H 0.3419 0.95698 0.05542 0.0
H4335 H 0.401 0.98202 0.97286 0.0
H4336 H 0.37295 0.96329 0.97725 0.0
H4337 H 0.39382 0.96627 0.03703 0.0
H4338 H 0.42198 0.98503 0.03275 0.0
H4339 H 0.35445 0.96676 0.02472 0.0
H4340 H 0.4001 0.93267 0.01364 0.0
H4341 H 0.42204 0.92503 0.99501 0.0
H4342 H 0.38222 0.90698 0.94442 0.0
H4343 H 0.36013 0.91488 0.96272 0.0
C4344 C 0.30268 0.88512 0.02921 0.0
C4345 C 0.29689 0.87078 0.01331 0.0
C4346 C 0.31612 0.9008 0.02888 0.0
C4347 C 0.32296 0.90309 0.01207 0.0
C4348 C 0.3163 0.88911 0.99586 0.0
C4349 C 0.30377 0.87299 0.99662 0.0
C4350 C 0.3377 0.91922 0.01132 0.0
C4351 C 0.35114 0.91533 0.00194 0.0
C4352 C 0.33885 0.93812 0.01955 0.0
C4353 C 0.32477 0.94382 0.02848 0.0
C4354 C 0.30753 0.93989 0.01817 0.0
C4355 C 0.29437 0.94554 0.02665 0.0
C4356 C 0.29833 0.95525 0.04537 0.0
C4357 C 0.31547 0.95937 0.05565 0.0
C4358 C 0.32868 0.95374 0.04725 0.0
C4359 C 0.39941 0.97926 0.98707 0.0
C4360 C 0.41366 0.98473 0.00243 0.0
C4361 C 0.38341 0.96859 0.98955 0.0
C4362 C 0.38146 0.9634 0.00742 0.0
C4363 C 0.39513 0.97027 0.02317 0.0
C4364 C 0.41121 0.98079 0.02067 0.0
C4365 C 0.36656 0.9482 0.00884 0.0
C4366 C 0.3535 0.9523 0.01853 0.0
C4367 C 0.36531 0.92955 0.00033 0.0
C4368 C 0.37854 0.92454 0.98948 0.0
C4369 C 0.39608 0.92723 0.99851 0.0
C4370 C 0.40852 0.92283 0.98802 0.0
C4371 C 0.40353 0.91556 0.96854 0.0
C4372 C 0.38607 0.91264 0.95951 0.0
C4373 C 0.37359 0.91707 0.96993 0.0
H4374 H 0.41319 0.91214 0.96044 0.0
H4375 H 0.28812 0.95963 0.0519 0.0
H4376 H 0.84225 0.57073 0.75657 0.0
H4377 H 0.83011 0.59831 0.75721 0.0
H4378 H 0.88095 0.63297 0.7566 0.0
H4379 H 0.89349 0.60496 0.75673 0.0
H4380 H 0.86729 0.65445 0.77644 0.0
H4381 H 0.84067 0.61823 0.71559 0.0
H4382 H 0.82429 0.59062 0.69183 0.0
H4383 H 0.77914 0.58825 0.7184 0.0
H4384 H 0.79531 0.61572 0.74247 0.0
H4385 H 0.83026 0.73459 0.76173 0.0
H4386 H 0.84412 0.70794 0.75856 0.0
H4387 H 0.79521 0.66994 0.76025 0.0
H4388 H 0.78117 0.69655 0.76246 0.0
H4389 H 0.8088 0.65074 0.73827 0.0
H4390 H 0.83788 0.68687 0.80065 0.0
H4391 H 0.85474 0.71598 0.82207 0.0
H4392 H 0.8959 0.71963 0.78923 0.0
H4393 H 0.87926 0.69056 0.76762 0.0
C4394 C 0.85111 0.58411 0.75654 0.0
C4395 C 0.86914 0.58495 0.75653 0.0
C4396 C 0.8439 0.60024 0.75667 0.0
C4397 C 0.85411 0.61844 0.75638 0.0
C4398 C 0.87229 0.61949 0.75668 0.0
C4399 C 0.87961 0.60321 0.75674 0.0
C4400 C 0.84586 0.63597 0.75622 0.0
C4401 C 0.85458 0.65344 0.76779 0.0
C4402 C 0.82903 0.63559 0.7453 0.0
C4403 C 0.81929 0.61894 0.73097 0.0
C4404 C 0.82729 0.61173 0.71646 0.0
C4405 C 0.81804 0.59612 0.70292 0.0
C4406 C 0.8007 0.58765 0.70364 0.0
C4407 C 0.79258 0.5948 0.71788 0.0
C4408 C 0.80178 0.61041 0.73147 0.0
C4409 C 0.82233 0.72061 0.76143 0.0
C4410 C 0.80434 0.71828 0.76248 0.0
C4411 C 0.83045 0.70504 0.75983 0.0
C4412 C 0.82123 0.68618 0.75969 0.0
C4413 C 0.80315 0.68389 0.7604 0.0
C4414 C 0.79497 0.69941 0.76174 0.0
C4415 C 0.8301 0.66907 0.75875 0.0
C4416 C 0.82148 0.65167 0.74696 0.0
C4417 C 0.8471 0.66957 0.76922 0.0
C4418 C 0.85731 0.68664 0.78251 0.0
C4419 C 0.85054 0.69389 0.79805 0.0
C4420 C 0.86005 0.71037 0.8102 0.0
C4421 C 0.87637 0.71966 0.807 0.0
C4422 C 0.88327 0.71242 0.79171 0.0
C4423 C 0.87383 0.69591 0.77954 0.0
H4424 H 0.88369 0.73245 0.81639 0.0
H4425 H 0.79356 0.57558 0.69313 0.0
H4426 H 0.80324 0.60075 0.99204 0.0
H4427 H 0.83026 0.59076 0.00165 0.0
H4428 H 0.85124 0.64272 0.04093 0.0
H4429 H 0.82406 0.65283 0.03146 0.0
H4430 H 0.87563 0.63332 0.01966 0.0
H4431 H 0.84003 0.60515 0.05976 0.0
H4432 H 0.81337 0.5876 0.06901 0.0
H4433 H 0.81517 0.53791 0.03195 0.0
H4434 H 0.84173 0.55526 0.02225 0.0
H4435 H 0.94688 0.59079 0.05512 0.0
H4436 H 0.92251 0.6066 0.05465 0.0
H4437 H 0.8904 0.56203 0.01095 0.0
H4438 H 0.91454 0.54625 0.01133 0.0
H4439 H 0.8733 0.57132 0.04095 0.0
H4440 H 0.90964 0.60285 0.0003 0.0
H4441 H 0.93616 0.62243 0.99268 0.0
H4442 H 0.93343 0.6683 0.03435 0.0
H4443 H 0.90725 0.64877 0.0427 0.0
C4444 C 0.81354 0.61008 0.00276 0.0
C4445 C 0.81137 0.62759 0.01097 0.0
C4446 C 0.829 0.60432 0.0083 0.0
C4447 C 0.84279 0.61592 0.02212 0.0
C4448 C 0.84081 0.63351 0.03025 0.0
C4449 C 0.82521 0.63923 0.02485 0.0
C4450 C 0.85919 0.60948 0.02777 0.0
C4451 C 0.8752 0.61995 0.02469 0.0
C4452 C 0.85874 0.5921 0.03445 0.0
C4453 C 0.84278 0.58154 0.04016 0.0
C4454 C 0.83466 0.59052 0.05345 0.0
C4455 C 0.81958 0.5806 0.05881 0.0
C4456 C 0.81256 0.56166 0.05104 0.0
C4457 C 0.82062 0.55259 0.03794 0.0
C4458 C 0.8357 0.56245 0.03252 0.0
C4459 C 0.93461 0.58438 0.04542 0.0
C4460 C 0.93272 0.56731 0.03313 0.0
C4461 C 0.92072 0.59346 0.04513 0.0
C4462 C 0.90461 0.58553 0.03272 0.0
C4463 C 0.90269 0.56843 0.02064 0.0
C4464 C 0.91657 0.5595 0.02075 0.0
C4465 C 0.8896 0.59478 0.03208 0.0
C4466 C 0.87381 0.58484 0.0362 0.0
C4467 C 0.89042 0.61284 0.02678 0.0
C4468 C 0.90662 0.62424 0.02232 0.0
C4469 C 0.91489 0.61698 0.00811 0.0
C4470 C 0.92986 0.62808 0.00364 0.0
C4471 C 0.93653 0.64657 0.01309 0.0
C4472 C 0.92834 0.65394 0.02714 0.0
C4473 C 0.91346 0.64284 0.03178 0.0
H4474 H 0.94794 0.65523 0.00938 0.0
H4475 H 0.80088 0.554 0.05521 0.0
H4476 H 0.16912 0.07367 0.76733 0.0
H4477 H 0.19006 0.10141 0.76234 0.0
H4478 H 0.19295 0.12706 0.82063 0.0
H4479 H 0.17084 0.09995 0.82492 0.0
H4480 H 0.18911 0.15118 0.79991 0.0
H4481 H 0.2275 0.10789 0.80079 0.0
H4482 H 0.23602 0.07861 0.78991 0.0
H4483 H 0.23338 0.09227 0.73311 0.0
H4484 H 0.22462 0.1215 0.7436 0.0
H4485 H 0.27114 0.21977 0.81247 0.0
H4486 H 0.24885 0.19119 0.81316 0.0
H4487 H 0.23181 0.18547 0.7522 0.0
H4488 H 0.25359 0.21457 0.75159 0.0
H4489 H 0.24176 0.15169 0.77054 0.0
H4490 H 0.20537 0.19564 0.77021 0.0
H4491 H 0.19578 0.22436 0.78044 0.0
H4492 H 0.19434 0.20902 0.8362 0.0
H4493 H 0.20444 0.18045 0.82647 0.0
C4494 C 0.17462 0.08509 0.77917 0.0
C4495 C 0.16866 0.0847 0.79659 0.0
C4496 C 0.18661 0.10095 0.77635 0.0
C4497 C 0.19335 0.11637 0.79118 0.0
C4498 C 0.18795 0.11545 0.80891 0.0
C4499 C 0.17549 0.0999 0.81148 0.0
C4500 C 0.20497 0.13402 0.788 0.0
C4501 C 0.20078 0.1512 0.79379 0.0
C4502 C 0.21978 0.1342 0.77916 0.0
C4503 C 0.22526 0.11677 0.77294 0.0
C4504 C 0.22865 0.10458 0.78596 0.0
C4505 C 0.23353 0.08801 0.77986 0.0
C4506 C 0.2352 0.08356 0.76082 0.0
C4507 C 0.23206 0.09571 0.74785 0.0
C4508 C 0.22715 0.11229 0.75386 0.0
C4509 C 0.26251 0.21247 0.79928 0.0
C4510 C 0.26401 0.21921 0.78199 0.0
C4511 C 0.24983 0.19623 0.79968 0.0
C4512 C 0.2388 0.18629 0.78272 0.0
C4513 C 0.24025 0.19303 0.76541 0.0
C4514 C 0.25259 0.20961 0.7651 0.0
C4515 C 0.22616 0.16855 0.78317 0.0
C4516 C 0.2301 0.15147 0.77675 0.0
C4517 C 0.21118 0.16843 0.79151 0.0
C4518 C 0.2059 0.18602 0.79768 0.0
C4519 C 0.20336 0.19856 0.78477 0.0
C4520 C 0.19775 0.21478 0.79045 0.0
C4521 C 0.19443 0.21848 0.80894 0.0
C4522 C 0.19693 0.20612 0.82187 0.0
C4523 C 0.20262 0.18994 0.81629 0.0
H4524 H 0.18977 0.23084 0.81321 0.0
H4525 H 0.23896 0.07071 0.75613 0.0
H4526 H 0.39779 0.96437 0.26236 0.0
H4527 H 0.37977 0.93384 0.26324 0.0
H4528 H 0.33327 0.95328 0.24548 0.0
H4529 H 0.35169 0.98492 0.24512 0.0
H4530 H 0.32666 0.93081 0.27078 0.0
H4531 H 0.34991 0.92126 0.21415 0.0
H4532 H 0.37182 0.92211 0.19314 0.0
H4533 H 0.39893 0.88999 0.22805 0.0
H4534 H 0.37732 0.88913 0.2494 0.0
H4535 H 0.28064 0.82985 0.25045 0.0
H4536 H 0.29329 0.86228 0.24575 0.0
H4537 H 0.34194 0.86133 0.28122 0.0
H4538 H 0.32906 0.82939 0.28668 0.0
H4539 H 0.34399 0.87402 0.243 0.0
H4540 H 0.32086 0.88586 0.30057 0.0
H4541 H 0.29797 0.88452 0.32035 0.0
H4542 H 0.26909 0.91156 0.28114 0.0
H4543 H 0.29172 0.9128 0.26097 0.0
C4544 C 0.38373 0.96242 0.25845 0.0
C4545 C 0.37641 0.97747 0.25339 0.0
C4546 C 0.37332 0.9446 0.25885 0.0
C4547 C 0.35498 0.94063 0.25385 0.0
C4548 C 0.34738 0.95566 0.24921 0.0
C4549 C 0.35795 0.97385 0.24899 0.0
C4550 C 0.34423 0.92093 0.25413 0.0
C4551 C 0.33029 0.91846 0.2643 0.0
C4552 C 0.3488 0.90441 0.24599 0.0
C4553 C 0.36207 0.90527 0.23346 0.0
C4554 C 0.36064 0.91453 0.21745 0.0
C4555 C 0.37298 0.91498 0.20545 0.0
C4556 C 0.38678 0.90614 0.20928 0.0
C4557 C 0.38825 0.89684 0.22511 0.0
C4558 C 0.37595 0.89635 0.23715 0.0
C4559 C 0.29404 0.83659 0.25723 0.0
C4560 C 0.30387 0.82697 0.26887 0.0
C4561 C 0.30125 0.85519 0.25462 0.0
C4562 C 0.31864 0.86446 0.26316 0.0
C4563 C 0.32852 0.85466 0.2745 0.0
C4564 C 0.32114 0.83635 0.2776 0.0
C4565 C 0.32682 0.88407 0.25994 0.0
C4566 C 0.34027 0.88644 0.24922 0.0
C4567 C 0.32164 0.90038 0.26733 0.0
C4568 C 0.30782 0.89914 0.27912 0.0
C4569 C 0.3095 0.89125 0.29602 0.0
C4570 C 0.29661 0.89059 0.30734 0.0
C4571 C 0.28204 0.89788 0.30197 0.0
C4572 C 0.28035 0.90587 0.28526 0.0
C4573 C 0.2932 0.90655 0.27387 0.0
H4574 H 0.2721 0.8974 0.31079 0.0
H4575 H 0.3963 0.90648 0.19996 0.0
H4576 H 0.55518 0.32065 0.56779 0.0
H4577 H 0.54983 0.34839 0.55481 0.0
H4578 H 0.54367 0.3731 0.61037 0.0
H4579 H 0.54814 0.34462 0.62324 0.0
H4580 H 0.52152 0.38158 0.58459 0.0
H4581 H 0.58378 0.38408 0.58957 0.0
H4582 H 0.60975 0.37288 0.58297 0.0
H4583 H 0.59243 0.36994 0.52267 0.0
H4584 H 0.56623 0.38085 0.5289 0.0
H4585 H 0.53493 0.47633 0.5679 0.0
H4586 H 0.53645 0.4466 0.57944 0.0
H4587 H 0.54341 0.42308 0.52372 0.0
H4588 H 0.54251 0.45317 0.51248 0.0
H4589 H 0.56459 0.41352 0.54872 0.0
H4590 H 0.50402 0.41178 0.54181 0.0
H4591 H 0.47696 0.42179 0.54595 0.0
H4592 H 0.48877 0.42116 0.60631 0.0
H4593 H 0.51627 0.41182 0.60268 0.0
C4594 C 0.5525 0.33191 0.57724 0.0
C4595 C 0.5522 0.3305 0.5966 0.0
C4596 C 0.54963 0.34791 0.56982 0.0
C4597 C 0.54697 0.36326 0.5817 0.0
C4598 C 0.5459 0.36157 0.6009 0.0
C4599 C 0.54839 0.34528 0.60827 0.0
C4600 C 0.54539 0.38101 0.57409 0.0
C4601 C 0.53112 0.38874 0.57703 0.0
C4602 C 0.55742 0.39001 0.56341 0.0
C4603 C 0.57298 0.38308 0.55971 0.0
C4604 C 0.58544 0.38087 0.57491 0.0
C4605 C 0.60021 0.37461 0.57123 0.0
C4606 C 0.60272 0.37066 0.55241 0.0
C4607 C 0.59046 0.37296 0.53723 0.0
C4608 C 0.57565 0.37918 0.54083 0.0
C4609 C 0.53688 0.46478 0.55821 0.0
C4610 C 0.53876 0.46693 0.5394 0.0
C4611 C 0.53755 0.44773 0.56473 0.0
C4612 C 0.53977 0.43237 0.55241 0.0
C4613 C 0.54167 0.43464 0.53354 0.0
C4614 C 0.54118 0.45179 0.52709 0.0
C4615 C 0.54083 0.41424 0.5594 0.0
C4616 C 0.55499 0.40642 0.55632 0.0
C4617 C 0.52852 0.40502 0.56963 0.0
C4618 C 0.51234 0.41133 0.57199 0.0
C4619 C 0.50102 0.41408 0.55602 0.0
C4620 C 0.48559 0.41963 0.55828 0.0
C4621 C 0.48121 0.42223 0.5764 0.0
C4622 C 0.49225 0.41927 0.59231 0.0
C4623 C 0.50778 0.41391 0.59016 0.0
H4624 H 0.46922 0.42645 0.57812 0.0
H4625 H 0.61418 0.36586 0.5496 0.0
H4626 H 0.45909 0.7339 0.3605 0.0
H4627 H 0.43216 0.73829 0.34123 0.0
H4628 H 0.42985 0.78262 0.38538 0.0
H4629 H 0.45623 0.77797 0.40454 0.0
H4630 H 0.39933 0.76061 0.376 0.0
H4631 H 0.43977 0.79126 0.34101 0.0
H4632 H 0.46432 0.79497 0.32344 0.0
H4633 H 0.43546 0.74817 0.2807 0.0
H4634 H 0.41081 0.744 0.29819 0.0
H4635 H 0.32808 0.7889 0.31976 0.0
H4636 H 0.35747 0.78992 0.33769 0.0
H4637 H 0.35863 0.73895 0.30181 0.0
H4638 H 0.32945 0.73763 0.28433 0.0
H4639 H 0.39008 0.76661 0.30723 0.0
H4640 H 0.34939 0.73708 0.34475 0.0
H4641 H 0.32566 0.7356 0.36342 0.0
H4642 H 0.35631 0.78424 0.40274 0.0
H4643 H 0.38009 0.78623 0.38407 0.0
C4644 C 0.45305 0.74489 0.36576 0.0
C4645 C 0.45983 0.75569 0.38394 0.0
C4646 C 0.4376 0.74737 0.35482 0.0
C4647 C 0.4288 0.7608 0.36182 0.0
C4648 C 0.43613 0.77206 0.37963 0.0
C4649 C 0.45135 0.7695 0.39052 0.0
C4650 C 0.41157 0.76265 0.35123 0.0
C4651 C 0.39746 0.76221 0.36102 0.0
C4652 C 0.40887 0.76467 0.33167 0.0
C4653 C 0.42353 0.7672 0.32099 0.0
C4654 C 0.43871 0.78167 0.32793 0.0
C4655 C 0.45264 0.78387 0.31798 0.0
C4656 C 0.45147 0.77178 0.30099 0.0
C4657 C 0.43635 0.75751 0.29388 0.0
C4658 C 0.42239 0.75523 0.30379 0.0
C4659 C 0.33463 0.77792 0.31578 0.0
C4660 C 0.32637 0.76313 0.30068 0.0
C4661 C 0.35142 0.77852 0.326 0.0
C4662 C 0.36031 0.76449 0.32111 0.0
C4663 C 0.35213 0.74996 0.30585 0.0
C4664 C 0.33535 0.74918 0.29592 0.0
C4665 C 0.37793 0.76443 0.332 0.0
C4666 C 0.39207 0.76517 0.32225 0.0
C4667 C 0.38076 0.7631 0.35172 0.0
C4668 C 0.36643 0.76194 0.36287 0.0
C4669 C 0.35099 0.74758 0.35725 0.0
C4670 C 0.33754 0.74664 0.36785 0.0
C4671 C 0.33945 0.75985 0.38423 0.0
C4672 C 0.35482 0.77404 0.39003 0.0
C4673 C 0.36829 0.7751 0.37944 0.0
H4674 H 0.32905 0.75905 0.39245 0.0
H4675 H 0.46227 0.7735 0.29331 0.0
H4676 H 0.04476 0.73016 0.06294 0.0
H4677 H 0.04059 0.69622 0.05279 0.0
H4678 H 0.04181 0.68717 0.11124 0.0
H4679 H 0.04535 0.72106 0.12143 0.0
H4680 H 0.06788 0.67336 0.08808 0.0
H4681 H 0.00675 0.66869 0.08921 0.0
H4682 H 0.97886 0.67827 0.08178 0.0
H4683 H 0.97916 0.66618 0.02169 0.0
H4684 H 0.00702 0.65653 0.0288 0.0
H4685 H 0.05439 0.5739 0.0657 0.0
H4686 H 0.05476 0.60619 0.07903 0.0
H4687 H 0.0305 0.61475 0.02358 0.0
H4688 H 0.02886 0.58186 0.01076 0.0
H4689 H 0.01544 0.62881 0.04796 0.0
H4690 H 0.0769 0.63416 0.04634 0.0
H4691 H 0.1051 0.62513 0.05342 0.0
H4692 H 0.10536 0.63698 0.11365 0.0
H4693 H 0.07706 0.64587 0.1069 0.0
C4694 C 0.04366 0.72086 0.07354 0.0
C4695 C 0.04525 0.72818 0.09293 0.0
C4696 C 0.04134 0.70154 0.06775 0.0
C4697 C 0.04097 0.68931 0.0813 0.0
C4698 C 0.04203 0.69645 0.1006 0.0
C4699 C 0.0439 0.71574 0.10635 0.0
C4700 C 0.04077 0.66933 0.07532 0.0
C4701 C 0.05637 0.66346 0.07956 0.0
C4702 C 0.02589 0.65669 0.06386 0.0
C4703 C 0.00901 0.6621 0.05953 0.0
C4704 C 1.00088 0.66817 0.07442 0.0
C4705 C 0.98505 0.67353 0.07027 0.0
C4706 C 0.97723 0.67284 0.05127 0.0
C4707 C 0.98516 0.66664 0.03639 0.0
C4708 C 1.00095 0.66118 0.04047 0.0
C4709 C 0.04951 0.5829 0.05634 0.0
C4710 C 0.04196 0.57574 0.03717 0.0
C4711 C 0.04973 0.60135 0.06393 0.0
C4712 C 0.04301 0.61317 0.05226 0.0
C4713 C 0.03582 0.606 0.0329 0.0
C4714 C 0.03506 0.58734 0.0255 0.0
C4715 C 0.04275 0.63269 0.06034 0.0
C4716 C 0.02703 0.63855 0.05651 0.0
C4717 C 0.05763 0.64538 0.07206 0.0
C4718 C 0.07483 0.64053 0.07611 0.0
C4719 C 0.08296 0.63478 0.06109 0.0
C4720 C 0.09895 0.62968 0.06504 0.0
C4721 C 0.107 0.63044 0.08397 0.0
C4722 C 0.09911 0.63638 0.09899 0.0
C4723 C 0.08311 0.64148 0.09512 0.0
H4724 H 0.11936 0.62644 0.087 0.0
H4725 H 0.96507 0.67717 0.0481 0.0
H4726 H 0.04702 0.2599 0.86705 0.0
H4727 H 0.07232 0.26474 0.85084 0.0
H4728 H 0.10707 0.28276 0.90557 0.0
H4729 H 0.08202 0.27891 0.92156 0.0
H4730 H 0.11982 0.30341 0.88417 0.0
H4731 H 0.09818 0.23632 0.8753 0.0
H4732 H 0.07691 0.20571 0.86474 0.0
H4733 H 0.07192 0.21562 0.80654 0.0
H4734 H 0.09294 0.24644 0.8168 0.0
H4735 H 0.19813 0.28359 0.85266 0.0
H4736 H 0.17259 0.28375 0.86818 0.0
H4737 H 0.14053 0.28225 0.81351 0.0
H4738 H 0.16578 0.28208 0.79799 0.0
H4739 H 0.12654 0.25434 0.83396 0.0
H4740 H 0.15095 0.32109 0.84428 0.0
H4741 H 0.17278 0.35109 0.85619 0.0
H4742 H 0.17404 0.34034 0.91388 0.0
H4743 H 0.15246 0.31009 0.9023 0.0
C4744 C 0.06006 0.2649 0.87559 0.0
C4745 C 0.06239 0.26886 0.89566 0.0
C4746 C 0.07461 0.26757 0.86631 0.0
C4747 C 0.09187 0.27382 0.87689 0.0
C4748 C 0.09406 0.27795 0.8969 0.0
C4749 C 0.0796 0.27561 0.9061 0.0
C4750 C 0.10772 0.27608 0.86744 0.0
C4751 C 0.12133 0.29249 0.8734 0.0
C4752 C 0.1098 0.26215 0.85301 0.0
C4753 C 0.09694 0.24379 0.84686 0.0
C4754 C 0.0924 0.23205 0.86028 0.0
C4755 C 0.08042 0.21465 0.85434 0.0
C4756 C 0.07302 0.20875 0.83499 0.0
C4757 C 0.07761 0.22023 0.82153 0.0
C4758 C 0.08955 0.23767 0.8274 0.0
C4759 C 0.18566 0.28341 0.84396 0.0
C4760 C 0.18411 0.28286 0.82402 0.0
C4761 C 0.17109 0.28364 0.85288 0.0
C4762 C 0.15459 0.28309 0.84204 0.0
C4763 C 0.15309 0.28276 0.82222 0.0
C4764 C 0.16763 0.28278 0.81337 0.0
C4765 C 0.13858 0.28145 0.85093 0.0
C4766 C 0.12498 0.26518 0.84481 0.0
C4767 C 0.13671 0.29532 0.86547 0.0
C4768 C 0.15026 0.31315 0.87237 0.0
C4769 C 0.15609 0.32495 0.85947 0.0
C4770 C 0.16837 0.34205 0.86618 0.0
C4771 C 0.17484 0.34759 0.88577 0.0
C4772 C 0.16906 0.33602 0.8987 0.0
C4773 C 0.15681 0.31888 0.89207 0.0
H4774 H 0.18429 0.36087 0.89093 0.0
H4775 H 0.06377 0.19526 0.83042 0.0
H4776 H 0.50794 0.75439 0.94292 0.0
H4777 H 0.50579 0.72309 0.95186 0.0
H4778 H 0.5161 0.70226 0.89684 0.0
H4779 H 0.51847 0.73357 0.88782 0.0
H4780 H 0.48592 0.67938 0.91069 0.0
H4781 H 0.54738 0.70825 0.92743 0.0
H4782 H 0.572 0.73544 0.94117 0.0
H4783 H 0.55793 0.73394 0.99656 0.0
H4784 H 0.53294 0.70696 0.98303 0.0
H4785 H 0.51301 0.59958 0.95132 0.0
H4786 H 0.50945 0.62429 0.93201 0.0
H4787 H 0.497 0.65689 0.97995 0.0
H4788 H 0.50065 0.63263 0.99933 0.0
H4789 H 0.52949 0.6717 0.96492 0.0
H4790 H 0.46729 0.64314 0.94747 0.0
H4791 H 0.44109 0.61809 0.93282 0.0
H4792 H 0.45597 0.61951 0.87781 0.0
H4793 H 0.48255 0.64425 0.89222 0.0
C4794 C 0.50999 0.74319 0.93288 0.0
C4795 C 0.51358 0.74628 0.91484 0.0
C4796 C 0.50857 0.72539 0.93788 0.0
C4797 C 0.51063 0.71063 0.92482 0.0
C4798 C 0.51436 0.71365 0.90688 0.0
C4799 C 0.51602 0.73152 0.90196 0.0
C4800 C 0.50993 0.69228 0.93059 0.0
C4801 C 0.49557 0.6774 0.92226 0.0
C4802 C 0.52258 0.69018 0.9457 0.0
C4803 C 0.53825 0.70561 0.95419 0.0
C4804 C 0.54951 0.71373 0.94253 0.0
C4805 C 0.56351 0.72913 0.95027 0.0
C4806 C 0.56652 0.73643 0.96972 0.0
C4807 C 0.55558 0.72826 0.98149 0.0
C4808 C 0.5415 0.71289 0.9738 0.0
C4809 C 0.50904 0.6118 0.95753 0.0
C4810 C 0.50718 0.6143 0.97682 0.0
C4811 C 0.50691 0.62574 0.94648 0.0
C4812 C 0.50299 0.64218 0.95474 0.0
C4813 C 0.4999 0.64409 0.97347 0.0
C4814 C 0.50191 0.6302 0.98445 0.0
C4815 C 0.50518 0.65875 0.94536 0.0
C4816 C 0.51999 0.67338 0.95304 0.0
C4817 C 0.49296 0.66047 0.92958 0.0
C4818 C 0.47714 0.6453 0.92102 0.0
C4819 C 0.46519 0.63788 0.93232 0.0
C4820 C 0.45021 0.62378 0.92404 0.0
C4821 C 0.44691 0.61714 0.90442 0.0
C4822 C 0.45858 0.6246 0.89302 0.0
C4823 C 0.47362 0.63864 0.90125 0.0
H4824 H 0.43528 0.60627 0.89802 0.0
H4825 H 0.57734 0.74839 0.97568 0.0
H4826 H 0.10244 0.74122 0.7402 0.0
H4827 H 0.13432 0.74829 0.7455 0.0
H4828 H 0.13472 0.7894 0.70738 0.0
H4829 H 0.10281 0.78268 0.7021 0.0
H4830 H 0.1509 0.75918 0.69676 0.0
H4831 H 0.15395 0.80644 0.7494 0.0
H4832 H 0.14412 0.81928 0.77812 0.0
H4833 H 0.15954 0.77633 0.80764 0.0
H4834 H 0.16929 0.7631 0.77899 0.0
H4835 H 0.2461 0.78092 0.72364 0.0
H4836 H 0.2155 0.78237 0.71486 0.0
H4837 H 0.19976 0.73664 0.74568 0.0
H4838 H 0.2304 0.73485 0.7541 0.0
H4839 H 0.19307 0.77517 0.75844 0.0
H4840 H 0.18308 0.72466 0.70369 0.0
H4841 H 0.1947 0.71176 0.6763 0.0
H4842 H 0.19426 0.76222 0.65199 0.0
H4843 H 0.18269 0.77544 0.67935 0.0
C4844 C 0.1093 0.75226 0.7335 0.0
C4845 C 0.10017 0.7611 0.72044 0.0
C4846 C 0.12747 0.75622 0.73647 0.0
C4847 C 0.1366 0.76913 0.72655 0.0
C4848 C 0.12769 0.77928 0.71494 0.0
C4849 C 0.10952 0.77546 0.71208 0.0
C4850 C 0.1552 0.77032 0.7269 0.0
C4851 C 0.16027 0.76315 0.71012 0.0
C4852 C 0.16717 0.77528 0.74439 0.0
C4853 C 0.16231 0.78376 0.76204 0.0
C4854 C 0.15524 0.79974 0.76203 0.0
C4855 C 0.14967 0.80707 0.77828 0.0
C4856 C 0.15117 0.7986 0.79468 0.0
C4857 C 0.15839 0.78288 0.79492 0.0
C4858 C 0.164 0.77549 0.77869 0.0
C4859 C 0.23594 0.7705 0.72754 0.0
C4860 C 0.24022 0.75764 0.73926 0.0
C4861 C 0.21864 0.77152 0.72281 0.0
C4862 C 0.20576 0.75982 0.73002 0.0
C4863 C 0.2098 0.74577 0.74021 0.0
C4864 C 0.2271 0.74454 0.74468 0.0
C4865 C 0.18841 0.76351 0.72851 0.0
C4866 C 0.18374 0.77166 0.74504 0.0
C4867 C 0.17687 0.75957 0.71083 0.0
C4868 C 0.18189 0.75094 0.69341 0.0
C4869 C 0.18527 0.73289 0.69236 0.0
C4870 C 0.19192 0.72557 0.67691 0.0
C4871 C 0.19519 0.73616 0.66239 0.0
C4872 C 0.19164 0.75401 0.66321 0.0
C4873 C 0.18496 0.76139 0.67864 0.0
H4874 H 0.2005 0.73054 0.65052 0.0
H4875 H 0.14676 0.80424 0.80722 0.0
H4876 H 0.04899 0.35845 0.40905 0.0
H4877 H 0.04752 0.38983 0.42401 0.0
H4878 H 0.99371 0.36789 0.42879 0.0
H4879 H 0.99483 0.33722 0.41366 0.0
H4880 H 0.9993 0.40424 0.42421 0.0
H4881 H 0.02441 0.36428 0.46376 0.0
H4882 H 0.04508 0.3447 0.47264 0.0
H4883 H 0.08851 0.39196 0.47655 0.0
H4884 H 0.06805 0.41174 0.46748 0.0
H4885 H 0.99922 0.46597 0.51101 0.0
H4886 H 0.99528 0.43716 0.48766 0.0
H4887 H 0.04897 0.45525 0.48031 0.0
H4888 H 0.053 0.48321 0.50394 0.0
H4889 H 0.04113 0.41969 0.48604 0.0
H4890 H 0.01404 0.4602 0.44725 0.0
H4891 H 0.99195 0.47823 0.43848 0.0
H4892 H 0.95066 0.42884 0.43443 0.0
H4893 H 0.97252 0.41056 0.44331 0.0
C4894 C 0.03682 0.36057 0.41292 0.0
C4895 C 0.0223 0.34546 0.41096 0.0
C4896 C 0.03593 0.37837 0.42127 0.0
C4897 C 0.0206 0.38083 0.42771 0.0
C4898 C 0.00562 0.36616 0.42391 0.0
C4899 C 0.00645 0.34858 0.41558 0.0
C4900 C 0.02094 0.39721 0.44151 0.0
C4901 C 0.00847 0.40778 0.43772 0.0
C4902 C 0.03252 0.4012 0.45926 0.0
C4903 C 0.04477 0.38937 0.46477 0.0
C4904 C 0.03838 0.37042 0.4664 0.0
C4905 C 0.05004 0.35931 0.47149 0.0
C4906 C 0.0681 0.36707 0.47511 0.0
C4907 C 0.07453 0.38597 0.47371 0.0
C4908 C 0.06291 0.39713 0.46861 0.0
C4909 C 0.01021 0.46324 0.50478 0.0
C4910 C 0.02657 0.47605 0.50955 0.0
C4911 C 0.00789 0.44718 0.49127 0.0
C4912 C 0.02184 0.44432 0.48233 0.0
C4913 C 0.03814 0.45723 0.48725 0.0
C4914 C 0.04051 0.47296 0.50086 0.0
C4915 C 0.02017 0.42756 0.46841 0.0
C4916 C 0.03211 0.41646 0.47243 0.0
C4917 C 0.00794 0.42304 0.45105 0.0
C4918 C 0.99487 0.43412 0.44617 0.0
C4919 C 1.00024 0.45326 0.44467 0.0
C4920 C 0.98777 0.46349 0.43961 0.0
C4921 C 0.96992 0.45469 0.43591 0.0
C4922 C 0.96449 0.43563 0.4373 0.0
C4923 C 0.9769 0.42534 0.44233 0.0
H4924 H 0.96029 0.46263 0.43196 0.0
H4925 H 0.07712 0.35844 0.47904 0.0
H4926 H 0.51954 0.25781 0.23823 0.0
H4927 H 0.49162 0.26113 0.24689 0.0
H4928 H 0.46687 0.24688 0.18726 0.0
H4929 H 0.49516 0.24497 0.17854 0.0
H4930 H 0.45462 0.27282 0.20434 0.0
H4931 H 0.46388 0.21317 0.21788 0.0
H4932 H 0.4819 0.19292 0.23171 0.0
H4933 H 0.48462 0.22228 0.28805 0.0
H4934 H 0.46677 0.24284 0.27452 0.0
H4935 H 0.36986 0.25492 0.22635 0.0
H4936 H 0.39538 0.24685 0.21525 0.0
H4937 H 0.42691 0.26948 0.27113 0.0
H4938 H 0.40155 0.27781 0.28226 0.0
H4939 H 0.43408 0.23623 0.25375 0.0
H4940 H 0.42699 0.29724 0.23938 0.0
H4941 H 0.41183 0.31958 0.22504 0.0
H4942 H 0.40608 0.28768 0.1692 0.0
H4943 H 0.421 0.26501 0.18327 0.0
C4944 C 0.50813 0.25573 0.22706 0.0
C4945 C 0.50914 0.25106 0.20784 0.0
C4946 C 0.49226 0.25744 0.23196 0.0
C4947 C 0.47718 0.2536 0.21773 0.0
C4948 C 0.4784 0.24971 0.19841 0.0
C4949 C 0.49443 0.24864 0.19346 0.0
C4950 C 0.46006 0.25321 0.22308 0.0
C4951 C 0.44993 0.26451 0.21483 0.0
C4952 C 0.45418 0.24251 0.23693 0.0
C4953 C 0.46402 0.22951 0.2452 0.0
C4954 C 0.4683 0.21525 0.23322 0.0
C4955 C 0.47851 0.20376 0.241 0.0
C4956 C 0.48441 0.20632 0.26075 0.0
C4957 C 0.48002 0.2203 0.27277 0.0
C4958 C 0.46981 0.23184 0.26506 0.0
C4959 C 0.38221 0.25794 0.23629 0.0
C4960 C 0.38391 0.26719 0.25504 0.0
C4961 C 0.39666 0.25328 0.22997 0.0
C4962 C 0.4129 0.25785 0.24237 0.0
C4963 C 0.41437 0.26588 0.26146 0.0
C4964 C 0.39993 0.27057 0.26778 0.0
C4965 C 0.42873 0.25593 0.23505 0.0
C4966 C 0.43861 0.2442 0.24296 0.0
C4967 C 0.43433 0.2661 0.22073 0.0
C4968 C 0.42481 0.2793 0.21239 0.0
C4969 C 0.42225 0.29486 0.22408 0.0
C4970 C 0.41377 0.30761 0.216 0.0
C4971 C 0.40793 0.30501 0.19623 0.0
C4972 C 0.41056 0.28965 0.18451 0.0
C4973 C 0.419 0.27684 0.19253 0.0
H4974 H 0.40143 0.31495 0.18999 0.0
H4975 H 0.49238 0.19746 0.26674 0.0
H4976 H 0.61862 0.50971 0.34671 0.0
H4977 H 0.60721 0.50307 0.37581 0.0
H4978 H 0.57596 0.54391 0.36885 0.0
H4979 H 0.58727 0.55072 0.34023 0.0
H4980 H 0.59519 0.54928 0.4046 0.0
H4981 H 0.55742 0.49665 0.35862 0.0
H4982 H 0.5518 0.4679 0.33476 0.0
H4983 H 0.5785 0.44104 0.37605 0.0
H4984 H 0.58444 0.4697 0.40007 0.0
H4985 H 0.5389 0.5361 0.47112 0.0
H4986 H 0.55157 0.53903 0.44231 0.0
H4987 H 0.57187 0.48981 0.44958 0.0
H4988 H 0.55797 0.48616 0.47767 0.0
H4989 H 0.56107 0.48775 0.41467 0.0
H4990 H 0.59557 0.53801 0.46211 0.0
H4991 H 0.60356 0.56667 0.48628 0.0
H4992 H 0.58803 0.59893 0.44359 0.0
H4993 H 0.57862 0.57028 0.41938 0.0
C4994 C 0.60927 0.51719 0.35138 0.0
C4995 C 0.60401 0.53088 0.34126 0.0
C4996 C 0.60271 0.51333 0.36793 0.0
C4997 C 0.59075 0.52303 0.37445 0.0
C4998 C 0.58526 0.53636 0.36413 0.0
C4999 C 0.59178 0.54023 0.34774 0.0
C5000 C 0.5844 0.52019 0.3925 0.0
C5001 C 0.58753 0.53591 0.40682 0.0
C5002 C 0.57512 0.50254 0.39557 0.0
C5003 C 0.57152 0.48537 0.38107 0.0
C5004 C 0.56221 0.48467 0.36255 0.0
C5005 C 0.55894 0.46837 0.34901 0.0
C5006 C 0.56483 0.45267 0.35387 0.0
C5007 C 0.57396 0.45321 0.37229 0.0
C5008 C 0.57727 0.46946 0.38587 0.0
C5009 C 0.54608 0.52593 0.46647 0.0
C5010 C 0.54765 0.51097 0.4765 0.0
C5011 C 0.55342 0.52767 0.45011 0.0
C5012 C 0.56309 0.51491 0.44395 0.0
C5013 C 0.56453 0.49987 0.45402 0.0
C5014 C 0.55669 0.4978 0.47007 0.0
C5015 C 0.57142 0.51706 0.42686 0.0
C5016 C 0.56875 0.5012 0.41269 0.0
C5017 C 0.58137 0.53464 0.42406 0.0
C5018 C 0.58612 0.5518 0.4389 0.0
C5019 C 0.5934 0.55109 0.45792 0.0
C5020 C 0.59811 0.56736 0.47166 0.0
C5021 C 0.59604 0.58456 0.46651 0.0
C5022 C 0.58922 0.58552 0.44761 0.0
C5023 C 0.5841 0.56924 0.4339 0.0
H5024 H 0.59987 0.59718 0.47711 0.0
H5025 H 0.56228 0.44007 0.34337 0.0
H5026 H 0.24482 0.83824 0.03809 0.0
H5027 H 0.2572 0.84868 0.07195 0.0
H5028 H 0.26765 0.79397 0.07604 0.0
H5029 H 0.2558 0.78367 0.04216 0.0
H5030 H 0.25101 0.80835 0.10437 0.0
H5031 H 0.29782 0.82505 0.06937 0.0
H5032 H 0.31639 0.84191 0.04943 0.0
H5033 H 0.32097 0.89423 0.08577 0.0
H5034 H 0.30192 0.87773 0.10562 0.0
H5035 H 0.31468 0.78608 0.15959 0.0
H5036 H 0.30727 0.80075 0.132 0.0
H5037 H 0.29982 0.84828 0.16852 0.0
H5038 H 0.30817 0.8341 0.19662 0.0
H5039 H 0.31106 0.8492 0.12483 0.0
H5040 H 0.26617 0.82132 0.16295 0.0
H5041 H 0.25342 0.79605 0.17997 0.0
H5042 H 0.25166 0.75451 0.13172 0.0
H5043 H 0.26442 0.77948 0.11449 0.0
C5044 C 0.24966 0.82844 0.04614 0.0
C5045 C 0.24976 0.8103 0.03741 0.0
C5046 C 0.25675 0.83447 0.06546 0.0
C5047 C 0.2635 0.82216 0.07616 0.0
C5048 C 0.26257 0.80367 0.06777 0.0
C5049 C 0.25579 0.7978 0.04851 0.0
C5050 C 0.27168 0.82799 0.09623 0.0
C5051 C 0.26393 0.81773 0.10908 0.0
C5052 C 0.28856 0.84012 0.10203 0.0
C5053 C 0.29808 0.85022 0.08871 0.0
C5054 C 0.30231 0.84022 0.07279 0.0
C5055 C 0.31309 0.84968 0.06161 0.0
C5056 C 0.31999 0.86909 0.06645 0.0
C5057 C 0.31569 0.87918 0.08211 0.0
C5058 C 0.30481 0.8698 0.09325 0.0
C5059 C 0.31273 0.80024 0.16199 0.0
C5060 C 0.31128 0.80867 0.18014 0.0
C5061 C 0.30838 0.80855 0.14615 0.0
C5062 C 0.30251 0.82515 0.14846 0.0
C5063 C 0.30417 0.83529 0.16669 0.0
C5064 C 0.30884 0.82713 0.18263 0.0
C5065 C 0.29072 0.82875 0.13242 0.0
C5066 C 0.29769 0.84084 0.12052 0.0
C5067 C 0.27356 0.81719 0.12681 0.0
C5068 C 0.26637 0.80227 0.13754 0.0
C5069 C 0.26322 0.80679 0.15608 0.0
C5070 C 0.25594 0.79252 0.16572 0.0
C5071 C 0.25182 0.77369 0.15698 0.0
C5072 C 0.2549 0.76908 0.13853 0.0
C5073 C 0.26212 0.78328 0.12881 0.0
H5074 H 0.2462 0.76268 0.16449 0.0
H5075 H 0.32865 0.87632 0.05803 0.0
H5076 H 0.92278 0.54523 0.82765 0.0
H5077 H 0.93577 0.54294 0.86061 0.0
H5078 H 0.9762 0.52039 0.83935 0.0
H5079 H 0.96322 0.52229 0.80688 0.0
H5080 H 0.9685 0.50134 0.86475 0.0
H5081 H 0.98169 0.56854 0.86757 0.0
H5082 H 0.97422 0.59895 0.86407 0.0
H5083 H 0.94031 0.59067 0.90512 0.0
H5084 H 0.94746 0.56009 0.90869 0.0
H5085 H 0.03237 0.51342 0.9498 0.0
H5086 H 0.01511 0.5157 0.91932 0.0
H5087 H 0.97491 0.52974 0.94837 0.0
H5088 H 0.99236 0.52723 0.97934 0.0
H5089 H 0.9797 0.55212 0.92037 0.0
H5090 H 0.96919 0.48593 0.91956 0.0
H5091 H 0.97621 0.45516 0.922 0.0
H5092 H 0.00509 0.46121 0.87625 0.0
H5093 H 0.99848 0.49218 0.87375 0.0
C5094 C 0.93463 0.54014 0.82998 0.0
C5095 C 0.94183 0.53419 0.81408 0.0
C5096 C 0.94218 0.53875 0.84908 0.0
C5097 C 0.95737 0.53153 0.8532 0.0
C5098 C 0.96457 0.52591 0.83726 0.0
C5099 C 0.95706 0.52719 0.81836 0.0
C5100 C 0.96574 0.52937 0.87361 0.0
C5101 C 0.97108 0.51268 0.87673 0.0
C5102 C 0.96895 0.54356 0.89001 0.0
C5103 C 0.96496 0.56202 0.88825 0.0
C5104 C 0.97259 0.5732 0.87579 0.0
C5105 C 0.96842 0.59045 0.87379 0.0
C5106 C 0.95675 0.59671 0.88433 0.0
C5107 C 0.94932 0.58578 0.89695 0.0
C5108 C 0.95344 0.56851 0.89898 0.0
C5109 C 0.01979 0.51686 0.94989 0.0
C5110 C 0.01397 0.51999 0.96745 0.0
C5111 C 0.00976 0.51812 0.93216 0.0
C5112 C 0.99332 0.52277 0.93089 0.0
C5113 C 0.98742 0.52608 0.94846 0.0
C5114 C 0.99743 0.52452 0.96635 0.0
C5115 C 0.98276 0.52426 0.91133 0.0
C5116 C 0.97707 0.54079 0.90837 0.0
C5117 C 0.9793 0.50993 0.895 0.0
C5118 C 0.98351 0.49147 0.89663 0.0
C5119 C 0.97719 0.48079 0.91016 0.0
C5120 C 0.98107 0.46329 0.91153 0.0
C5121 C 0.99113 0.45626 0.89933 0.0
C5122 C 0.99732 0.4667 0.88572 0.0
C5123 C 0.99352 0.48422 0.88432 0.0
H5124 H 0.99409 0.4427 0.90039 0.0
H5125 H 0.95351 0.61006 0.88273 0.0
H5126 H 0.26427 0.17075 0.57078 0.0
H5127 H 0.26802 0.18414 0.60463 0.0
H5128 H 0.29744 0.23689 0.59374 0.0
H5129 H 0.29295 0.22376 0.55956 0.0
H5130 H 0.30727 0.21431 0.63271 0.0
H5131 H 0.26749 0.24602 0.59487 0.0
H5132 H 0.24207 0.24467 0.56978 0.0
H5133 H 0.20919 0.20631 0.59721 0.0
H5134 H 0.23457 0.20708 0.6222 0.0
H5135 H 0.30551 0.27336 0.71671 0.0
H5136 H 0.30589 0.2618 0.68346 0.0
H5137 H 0.25464 0.2251 0.67842 0.0
H5138 H 0.25398 0.23705 0.71164 0.0
H5139 H 0.25661 0.23942 0.64719 0.0
H5140 H 0.29169 0.20839 0.68542 0.0
H5141 H 0.3148 0.20539 0.71123 0.0
H5142 H 0.3541 0.23679 0.68491 0.0
H5143 H 0.33116 0.24022 0.65905 0.0
C5144 C 0.27191 0.18504 0.57576 0.0
C5145 C 0.27846 0.19627 0.56281 0.0
C5146 C 0.27401 0.19265 0.595 0.0
C5147 C 0.28298 0.21144 0.60153 0.0
C5148 C 0.29051 0.22234 0.58884 0.0
C5149 C 0.28798 0.21487 0.56945 0.0
C5150 C 0.28272 0.22014 0.62107 0.0
C5151 C 0.29642 0.22017 0.63592 0.0
C5152 C 0.26813 0.22688 0.62521 0.0
C5153 C 0.25296 0.22634 0.61016 0.0
C5154 C 0.2549 0.23706 0.59536 0.0
C5155 C 0.24049 0.23645 0.5812 0.0
C5156 C 0.22404 0.22534 0.58185 0.0
C5157 C 0.22196 0.21484 0.59668 0.0
C5158 C 0.23635 0.21534 0.61082 0.0
C5159 C 0.29422 0.26299 0.70843 0.0
C5160 C 0.27974 0.256 0.71672 0.0
C5161 C 0.29451 0.25632 0.68949 0.0
C5162 C 0.28047 0.24229 0.67862 0.0
C5163 C 0.26565 0.23588 0.68661 0.0
C5164 C 0.26525 0.24275 0.70554 0.0
C5165 C 0.2814 0.2341 0.65901 0.0
C5166 C 0.26768 0.2339 0.64411 0.0
C5167 C 0.29579 0.22677 0.65496 0.0
C5168 C 0.30969 0.22471 0.67039 0.0
C5169 C 0.30524 0.21479 0.68521 0.0
C5170 C 0.31831 0.21299 0.69983 0.0
C5171 C 0.33589 0.22091 0.69971 0.0
C5172 C 0.34046 0.23067 0.68498 0.0
C5173 C 0.32743 0.23253 0.67032 0.0
H5174 H 0.34594 0.21937 0.711 0.0
H5175 H 0.21288 0.22494 0.5709 0.0
H5176 H 0.62355 0.52252 0.23126 0.0
H5177 H 0.61381 0.51916 0.19662 0.0
H5178 H 0.56112 0.51868 0.20497 0.0
H5179 H 0.57088 0.52276 0.23971 0.0
H5180 H 0.56821 0.4897 0.17286 0.0
H5181 H 0.57923 0.55628 0.20086 0.0
H5182 H 0.59779 0.58588 0.21987 0.0
H5183 H 0.63593 0.58508 0.18351 0.0
H5184 H 0.61775 0.55522 0.16452 0.0
H5185 H 0.52547 0.50478 0.08561 0.0
H5186 H 0.53637 0.50555 0.1196 0.0
H5187 H 0.58824 0.53342 0.11276 0.0
H5188 H 0.57685 0.53404 0.07913 0.0
H5189 H 0.58365 0.54777 0.14427 0.0
H5190 H 0.57567 0.4836 0.11616 0.0
H5191 H 0.56031 0.45285 0.09684 0.0
H5192 H 0.52062 0.44768 0.13164 0.0
H5193 H 0.53582 0.47837 0.15126 0.0
C5194 C 0.60981 0.52121 0.22566 0.0
C5195 C 0.5979 0.52285 0.23802 0.0
C5196 C 0.60433 0.51944 0.20597 0.0
C5197 C 0.58685 0.51883 0.19849 0.0
C5198 C 0.57468 0.51917 0.21067 0.0
C5199 C 0.58024 0.52146 0.2304 0.0
C5200 C 0.58142 0.51902 0.17804 0.0
C5201 C 0.57143 0.50237 0.16654 0.0
C5202 C 0.5863 0.53546 0.16992 0.0
C5203 C 0.59726 0.55334 0.18146 0.0
C5204 C 0.5917 0.56225 0.19709 0.0
C5205 C 0.60212 0.57911 0.20783 0.0
C5206 C 0.61806 0.58731 0.20296 0.0
C5207 C 0.6236 0.57868 0.18731 0.0
C5208 C 0.61325 0.56178 0.17657 0.0
C5209 C 0.53915 0.51116 0.09155 0.0
C5210 C 0.55044 0.51928 0.0801 0.0
C5211 C 0.54542 0.51143 0.11083 0.0
C5212 C 0.56326 0.51904 0.11862 0.0
C5213 C 0.57447 0.52741 0.10708 0.0
C5214 C 0.56802 0.52774 0.08795 0.0
C5215 C 0.57015 0.51838 0.13883 0.0
C5216 C 0.58049 0.53497 0.15039 0.0
C5217 C 0.56605 0.50171 0.1469 0.0
C5218 C 0.55684 0.48329 0.13512 0.0
C5219 C 0.56363 0.47592 0.11964 0.0
C5220 C 0.55496 0.4585 0.10866 0.0
C5221 C 0.53946 0.44834 0.11297 0.0
C5222 C 0.53263 0.45556 0.12833 0.0
C5223 C 0.5413 0.47293 0.13943 0.0
H5224 H 0.53274 0.43487 0.10447 0.0
H5225 H 0.62609 0.60039 0.21126 0.0
H5226 H 0.25645 0.80554 0.95915 0.0
H5227 H 0.2608 0.79753 0.9268 0.0
H5228 H 0.24365 0.84639 0.91121 0.0
H5229 H 0.23975 0.85509 0.94427 0.0
H5230 H 0.23165 0.8019 0.8868 0.0
H5231 H 0.27924 0.85725 0.9168 0.0
H5232 H 0.30152 0.87389 0.94491 0.0
H5233 H 0.32657 0.82765 0.94252 0.0
H5234 H 0.3041 0.81043 0.91481 0.0
H5235 H 0.25564 0.78072 0.80316 0.0
H5236 H 0.25426 0.80247 0.83079 0.0
H5237 H 0.29217 0.78055 0.86578 0.0
H5238 H 0.29584 0.7609 0.83709 0.0
H5239 H 0.29413 0.81665 0.87949 0.0
H5240 H 0.25059 0.75959 0.86003 0.0
H5241 H 0.22986 0.73551 0.83541 0.0
H5242 H 0.19868 0.77521 0.82351 0.0
H5243 H 0.21946 0.79968 0.84782 0.0
C5244 C 0.25354 0.8146 0.9489 0.0
C5245 C 0.2483 0.83122 0.9541 0.0
C5246 C 0.25591 0.80992 0.9305 0.0
C5247 C 0.2529 0.82174 0.91723 0.0
C5248 C 0.24618 0.83745 0.92174 0.0
C5249 C 0.24393 0.8423 0.94038 0.0
C5250 C 0.2579 0.81776 0.89901 0.0
C5251 C 0.24514 0.80564 0.88476 0.0
C5252 C 0.27582 0.82167 0.89757 0.0
C5253 C 0.28983 0.83246 0.91376 0.0
C5254 C 0.28938 0.85052 0.92237 0.0
C5255 C 0.30206 0.86007 0.93824 0.0
C5256 C 0.31544 0.85182 0.94551 0.0
C5257 C 0.31619 0.83402 0.93688 0.0
C5258 C 0.30347 0.82436 0.92109 0.0
C5259 C 0.26406 0.78099 0.81667 0.0
C5260 C 0.27591 0.76948 0.81827 0.0
C5261 C 0.26335 0.79343 0.83229 0.0
C5262 C 0.27293 0.79277 0.85014 0.0
C5263 C 0.28482 0.7812 0.85193 0.0
C5264 C 0.28647 0.76965 0.83583 0.0
C5265 C 0.26775 0.80123 0.86701 0.0
C5266 C 0.28051 0.81364 0.88112 0.0
C5267 C 0.24999 0.7966 0.86908 0.0
C5268 C 0.23661 0.78149 0.85569 0.0
C5269 C 0.23927 0.76316 0.85222 0.0
C5270 C 0.22756 0.74948 0.83826 0.0
C5271 C 0.21298 0.75384 0.82788 0.0
C5272 C 0.20999 0.77186 0.83157 0.0
C5273 C 0.22172 0.78565 0.84545 0.0
H5274 H 0.20397 0.74326 0.81701 0.0
H5275 H 0.32523 0.85923 0.95781 0.0
H5276 H 0.96084 0.54582 0.71684 0.0
H5277 H 0.9726 0.54384 0.68717 0.0
H5278 H 0.92104 0.51662 0.65542 0.0
H5279 H 0.90922 0.5188 0.68534 0.0
H5280 H 0.94481 0.4988 0.64167 0.0
H5281 H 0.94146 0.56293 0.65171 0.0
H5282 H 0.94595 0.59499 0.66935 0.0
H5283 H 1.00171 0.60122 0.6781 0.0
H5284 H 0.99753 0.56906 0.66071 0.0
H5285 H 0.97373 0.50882 0.55005 0.0
H5286 H 0.95848 0.50908 0.57756 0.0
H5287 H 0.00696 0.53834 0.61484 0.0
H5288 H 0.02212 0.53799 0.58771 0.0
H5289 H 0.98271 0.55455 0.62442 0.0
H5290 H 0.98611 0.49026 0.61422 0.0
H5291 H 0.98166 0.45835 0.59624 0.0
H5292 H 0.92592 0.45223 0.5871 0.0
H5293 H 0.93004 0.48424 0.60483 0.0
C5294 C 0.95181 0.54002 0.70349 0.0
C5295 C 0.9338 0.53337 0.70376 0.0
C5296 C 0.95865 0.53867 0.68632 0.0
C5297 C 0.94791 0.5302 0.66844 0.0
C5298 C 0.92988 0.52336 0.66865 0.0
C5299 C 0.92298 0.52495 0.68589 0.0
C5300 C 0.95564 0.52863 0.64991 0.0
C5301 C 0.95285 0.51113 0.63783 0.0
C5302 C 0.96657 0.54434 0.64449 0.0
C5303 C 0.96918 0.56356 0.65509 0.0
C5304 C 0.95467 0.57109 0.65755 0.0
C5305 C 0.95716 0.58928 0.66747 0.0
C5306 C 0.9741 0.60012 0.67488 0.0
C5307 C 0.98859 0.59279 0.67237 0.0
C5308 C 0.98618 0.57459 0.66247 0.0
C5309 C 0.98122 0.51525 0.5641 0.0
C5310 C 0.99938 0.52338 0.56626 0.0
C5311 C 0.97241 0.51533 0.58004 0.0
C5312 C 0.98133 0.5237 0.59882 0.0
C5313 C 0.99943 0.53178 0.60084 0.0
C5314 C 0.00822 0.53151 0.58507 0.0
C5315 C 0.97209 0.52474 0.61623 0.0
C5316 C 0.97463 0.54219 0.62817 0.0
C5317 C 0.96096 0.50896 0.62141 0.0
C5318 C 0.9584 0.48975 0.61066 0.0
C5319 C 0.9729 0.48219 0.60822 0.0
C5320 C 0.97044 0.46407 0.59811 0.0
C5321 C 0.95352 0.45329 0.59048 0.0
C5322 C 0.93902 0.46061 0.59299 0.0
C5323 C 0.94141 0.47874 0.60308 0.0
H5324 H 0.95164 0.43926 0.58267 0.0
H5325 H 0.976 0.61421 0.68254 0.0
H5326 H 0.29178 0.21625 0.47494 0.0
H5327 H 0.29631 0.23014 0.44619 0.0
H5328 H 0.26288 0.17973 0.41114 0.0
H5329 H 0.25919 0.16554 0.43996 0.0
H5330 H 0.2873 0.192 0.39334 0.0
H5331 H 0.2493 0.22309 0.42558 0.0
H5332 H 0.24095 0.24183 0.45207 0.0
H5333 H 0.28477 0.28762 0.45244 0.0
H5334 H 0.2935 0.26906 0.42613 0.0
H5335 H 0.2687 0.23152 0.30907 0.0
H5336 H 0.26684 0.21661 0.33759 0.0
H5337 H 0.29859 0.26791 0.37263 0.0
H5338 H 0.29929 0.28322 0.3443 0.0
H5339 H 0.27547 0.25516 0.39051 0.0
H5340 H 0.31367 0.22492 0.35846 0.0
H5341 H 0.32218 0.20684 0.33162 0.0
H5342 H 0.27898 0.16025 0.33089 0.0
H5343 H 0.27008 0.17815 0.35755 0.0
C5344 C 0.28589 0.20796 0.46103 0.0
C5345 C 0.27545 0.1897 0.45959 0.0
C5346 C 0.2882 0.21602 0.44459 0.0
C5347 C 0.27956 0.20624 0.42637 0.0
C5348 C 0.26968 0.18765 0.42494 0.0
C5349 C 0.26766 0.17946 0.4414 0.0
C5350 C 0.28041 0.21542 0.40887 0.0
C5351 C 0.28453 0.20574 0.39269 0.0
C5352 C 0.27725 0.2336 0.40799 0.0
C5353 C 0.27214 0.2446 0.42403 0.0
C5354 C 0.25723 0.23709 0.43143 0.0
C5355 C 0.25242 0.24769 0.44639 0.0
C5356 C 0.26235 0.26588 0.45397 0.0
C5357 C 0.27711 0.27352 0.44659 0.0
C5358 C 0.28199 0.26296 0.43166 0.0
C5359 C 0.27504 0.23969 0.32289 0.0
C5360 C 0.28398 0.25861 0.32443 0.0
C5361 C 0.27423 0.23104 0.33923 0.0
C5362 C 0.28289 0.24092 0.35741 0.0
C5363 C 0.29177 0.25988 0.35888 0.0
C5364 C 0.29219 0.26865 0.34263 0.0
C5365 C 0.28246 0.23179 0.37498 0.0
C5366 C 0.27836 0.24147 0.39116 0.0
C5367 C 0.28577 0.21369 0.3759 0.0
C5368 C 0.29113 0.20293 0.35989 0.0
C5369 C 0.30592 0.21086 0.35249 0.0
C5370 C 0.31082 0.20065 0.33732 0.0
C5371 C 0.3011 0.18243 0.32952 0.0
C5372 C 0.28648 0.17437 0.33691 0.0
C5373 C 0.28152 0.18454 0.35206 0.0
H5374 H 0.30492 0.17455 0.31778 0.0
H5375 H 0.25858 0.27408 0.46552 0.0
H5376 H 0.33534 0.61845 0.54388 0.0
H5377 H 0.35687 0.60246 0.53295 0.0
H5378 H 0.39708 0.65398 0.54999 0.0
H5379 H 0.37582 0.67011 0.56118 0.0
H5380 H 0.39278 0.63418 0.51034 0.0
H5381 H 0.40219 0.62552 0.57605 0.0
H5382 H 0.39121 0.61805 0.60525 0.0
H5383 H 0.36546 0.56209 0.57665 0.0
H5384 H 0.37611 0.56934 0.54717 0.0
H5385 H 0.46432 0.5867 0.50622 0.0
H5386 H 0.44509 0.60769 0.51299 0.0
H5387 H 0.40049 0.56011 0.50009 0.0
H5388 H 0.41951 0.53909 0.49354 0.0
H5389 H 0.40901 0.58059 0.53866 0.0
H5390 H 0.39997 0.58936 0.47289 0.0
H5391 H 0.40812 0.59794 0.44275 0.0
H5392 H 0.43201 0.65453 0.4708 0.0
H5393 H 0.4243 0.64619 0.50123 0.0
C5394 C 0.34883 0.62627 0.54561 0.0
C5395 C 0.35393 0.64546 0.55328 0.0
C5396 C 0.36101 0.6172 0.53927 0.0
C5397 C 0.37832 0.62727 0.54054 0.0
C5398 C 0.38365 0.64621 0.54881 0.0
C5399 C 0.37154 0.65526 0.55535 0.0
C5400 C 0.39082 0.6178 0.53319 0.0
C5401 C 0.39671 0.62269 0.51664 0.0
C5402 C 0.39546 0.60277 0.54146 0.0
C5403 C 0.38994 0.59796 0.55944 0.0
C5404 C 0.3942 0.61161 0.57601 0.0
C5405 C 0.38801 0.60744 0.59259 0.0
C5406 C 0.37764 0.58961 0.5928 0.0
C5407 C 0.37352 0.57589 0.57646 0.0
C5408 C 0.37967 0.58 0.55983 0.0
C5409 C 0.45033 0.58085 0.50431 0.0
C5410 C 0.44334 0.56132 0.49956 0.0
C5411 C 0.43942 0.59281 0.50807 0.0
C5412 C 0.42153 0.58526 0.5071 0.0
C5413 C 0.41433 0.56603 0.50084 0.0
C5414 C 0.42518 0.5541 0.49699 0.0
C5415 C 0.41086 0.59671 0.51548 0.0
C5416 C 0.40536 0.59223 0.53239 0.0
C5417 C 0.4067 0.61218 0.50754 0.0
C5418 C 0.4118 0.61706 0.48941 0.0
C5419 C 0.40722 0.60355 0.47272 0.0
C5420 C 0.41169 0.60839 0.45556 0.0
C5421 C 0.42064 0.62675 0.45487 0.0
C5422 C 0.42513 0.6403 0.47136 0.0
C5423 C 0.42072 0.63552 0.48857 0.0
H5424 H 0.42403 0.63049 0.44155 0.0
H5425 H 0.37279 0.58642 0.60563 0.0
H5426 H 0.86042 0.88523 0.52389 0.0
H5427 H 0.88787 0.90492 0.52013 0.0
H5428 H 0.87234 0.95429 0.54336 0.0
H5429 H 0.84408 0.93434 0.54674 0.0
H5430 H 0.88931 0.96105 0.5136 0.0
H5431 H 0.90209 0.93376 0.57062 0.0
H5432 H 0.90138 0.90718 0.58862 0.0
H5433 H 0.92982 0.88204 0.55047 0.0
H5434 H 0.93049 0.90837 0.53211 0.0
H5435 H 0.97325 0.02266 0.53779 0.0
H5436 H 0.94505 1.00205 0.53839 0.0
H5437 H 0.96188 0.95459 0.51272 0.0
H5438 H 0.9902 0.97555 0.51142 0.0
H5439 H 0.9445 0.94594 0.5427 0.0
H5440 H 0.93312 0.9717 0.48629 0.0
H5441 H 0.93315 0.9962 0.46571 0.0
H5442 H 0.90172 0.02199 0.49946 0.0
H5443 H 0.90177 0.99781 0.52047 0.0
C5444 C 0.86269 0.90028 0.52832 0.0
C5445 C 0.84996 0.90807 0.53597 0.0
C5446 C 0.87859 0.91158 0.52617 0.0
C5447 C 0.8826 0.93115 0.53193 0.0
C5448 C 0.86973 0.93921 0.53897 0.0
C5449 C 0.85355 0.92779 0.54095 0.0
C5450 C 0.90031 0.94288 0.53068 0.0
C5451 C 0.90135 0.95794 0.52029 0.0
C5452 C 0.9162 0.93844 0.5386 0.0
C5453 C 0.91626 0.92295 0.54996 0.0
C5454 C 0.90815 0.92253 0.56606 0.0
C5455 C 0.90775 0.90751 0.57631 0.0
C5456 C 0.91553 0.89291 0.57068 0.0
C5457 C 0.9238 0.89335 0.55482 0.0
C5458 C 0.92422 0.90833 0.54451 0.0
C5459 C 0.97107 0.00783 0.53225 0.0
C5460 C 0.98431 1.00077 0.52495 0.0
C5461 C 0.95481 0.99602 0.53257 0.0
C5462 C 0.95114 0.97667 0.52557 0.0
C5463 C 0.96435 0.96943 0.51836 0.0
C5464 C 0.98069 0.9814 0.51783 0.0
C5465 C 0.93349 0.96434 0.52592 0.0
C5466 C 0.93247 0.94913 0.53609 0.0
C5467 C 0.91761 0.96845 0.51756 0.0
C5468 C 0.91761 0.98308 0.50507 0.0
C5469 C 0.92637 0.98271 0.48944 0.0
C5470 C 0.92635 0.99651 0.47768 0.0
C5471 C 0.91748 0.01067 0.48131 0.0
C5472 C 0.90861 0.01103 0.49669 0.0
C5473 C 0.90862 0.99728 0.50853 0.0
H5474 H 0.91746 0.02134 0.47217 0.0
H5475 H 0.91517 0.88128 0.57861 0.0
H5476 H 0.92912 0.06717 0.29758 0.0
H5477 H 0.91523 0.09358 0.30106 0.0
H5478 H 0.8759 0.06701 0.25119 0.0
H5479 H 0.8904 0.04094 0.24705 0.0
H5480 H 0.88543 0.10311 0.2509 0.0
H5481 H 0.86988 0.06548 0.30054 0.0
H5482 H 0.87756 0.05071 0.32879 0.0
H5483 H 0.9064 0.10461 0.36019 0.0
H5484 H 0.89899 0.11965 0.33206 0.0
H5485 H 0.81413 0.13984 0.25823 0.0
H5486 H 0.83348 0.11831 0.26087 0.0
H5487 H 0.86893 0.15783 0.30688 0.0
H5488 H 0.84941 0.1796 0.30434 0.0
H5489 H 0.86569 0.11988 0.31182 0.0
H5490 H 0.87907 0.15845 0.26551 0.0
H5491 H 0.87236 0.1749 0.23834 0.0
H5492 H 0.85022 0.12181 0.20169 0.0
H5493 H 0.85649 0.10503 0.22877 0.0
C5494 C 0.91752 0.06698 0.28732 0.0
C5495 C 0.91068 0.05193 0.27216 0.0
C5496 C 0.90956 0.08204 0.2894 0.0
C5497 C 0.89426 0.08203 0.27672 0.0
C5498 C 0.88765 0.06724 0.26124 0.0
C5499 C 0.89588 0.05235 0.25888 0.0
C5500 C 0.88498 0.0973 0.27959 0.0
C5501 C 0.88099 0.10662 0.26416 0.0
C5502 C 0.87996 0.10262 0.29723 0.0
C5503 C 0.88401 0.09363 0.3142 0.0
C5504 C 0.87789 0.07415 0.31347 0.0
C5505 C 0.88219 0.06574 0.32945 0.0
C5506 C 0.89249 0.0767 0.34626 0.0
C5507 C 0.89843 0.09613 0.34716 0.0
C5508 C 0.89416 0.1046 0.33122 0.0
C5509 C 0.82594 0.14386 0.26907 0.0
C5510 C 0.83052 0.16152 0.28079 0.0
C5511 C 0.83694 0.13156 0.27058 0.0
C5512 C 0.85278 0.13675 0.28374 0.0
C5513 C 0.8568 0.15373 0.29652 0.0
C5514 C 0.84568 0.1661 0.29506 0.0
C5515 C 0.8655 0.12489 0.28285 0.0
C5516 C 0.87028 0.11641 0.29864 0.0
C5517 C 0.87153 0.12055 0.26567 0.0
C5518 C 0.86815 0.1305 0.24919 0.0
C5519 C 0.87268 0.15029 0.25168 0.0
C5520 C 0.86896 0.15967 0.2363 0.0
C5521 C 0.86085 0.14941 0.2183 0.0
C5522 C 0.8565 0.12974 0.21564 0.0
C5523 C 0.86015 0.12028 0.231 0.0
H5524 H 0.85796 0.1567 0.20641 0.0
H5525 H 0.89584 0.07015 0.35859 0.0
H5526 H 0.75722 0.17881 0.0299 0.0
H5527 H 0.73 0.15586 0.02709 0.0
H5528 H 0.75687 0.12103 0.05911 0.0
H5529 H 0.78491 0.14387 0.06109 0.0
H5530 H 0.73481 0.10062 0.02808 0.0
H5531 H 0.72941 0.14652 0.07939 0.0
H5532 H 0.73087 0.1786 0.09535 0.0
H5533 H 0.69244 0.18548 0.04931 0.0
H5534 H 0.69085 0.15352 0.03301 0.0
H5535 H 0.65265 0.04858 0.04552 0.0
H5536 H 0.68249 0.06459 0.04363 0.0
H5537 H 0.66199 0.10171 0.00884 0.0
H5538 H 0.63219 0.08592 0.01096 0.0
H5539 H 0.68155 0.1198 0.04297 0.0
H5540 H 0.68667 0.07469 0.99154 0.0
H5541 H 0.68516 0.04303 0.97457 0.0
H5542 H 0.72363 0.0348 0.0198 0.0
H5543 H 0.7252 0.06633 0.03718 0.0
C5544 C 0.75745 0.16642 0.03662 0.0
C5545 C 0.77321 0.16312 0.04573 0.0
C5546 C 0.74179 0.15333 0.03506 0.0
C5547 C 0.74137 0.13694 0.04322 0.0
C5548 C 0.75699 0.13369 0.05279 0.0
C5549 C 0.77291 0.14671 0.05398 0.0
C5550 C 0.72454 0.12303 0.04075 0.0
C5551 C 0.7232 0.10464 0.03171 0.0
C5552 C 0.70936 0.12854 0.04495 0.0
C5553 C 0.71003 0.14763 0.05498 0.0
C5554 C 0.72129 0.15489 0.07266 0.0
C5555 C 0.72214 0.17305 0.08177 0.0
C5556 C 0.71175 0.18407 0.07335 0.0
C5557 C 0.70045 0.17693 0.05584 0.0
C5558 C 0.69953 0.15877 0.04669 0.0
C5559 C 0.65453 0.05963 0.03682 0.0
C5560 C 0.64028 0.06629 0.02862 0.0
C5561 C 0.67154 0.06874 0.03572 0.0
C5562 C 0.67435 0.08442 0.02628 0.0
C5563 C 0.66001 0.08968 0.01628 0.0
C5564 C 0.64305 0.08069 0.01749 0.0
C5565 C 0.69174 0.09745 0.03006 0.0
C5566 C 0.69316 0.11569 0.03946 0.0
C5567 C 0.70689 0.09176 0.02617 0.0
C5568 C 0.70594 0.0728 0.01575 0.0
C5569 C 0.69469 0.06606 0.99796 0.0
C5570 C 0.69385 0.04815 0.98824 0.0
C5571 C 0.70426 0.03689 0.99612 0.0
C5572 C 0.71556 0.04353 0.01372 0.0
C5573 C 0.71645 0.06142 0.0235 0.0
H5574 H 0.7036 0.02303 0.98857 0.0
H5575 H 0.71245 0.19814 0.0804 0.0
H5576 H 0.17501 0.43654 0.26817 0.0
H5577 H 0.18764 0.40868 0.26454 0.0
H5578 H 0.22619 0.43256 0.31546 0.0
H5579 H 0.21394 0.4601 0.3189 0.0
H5580 H 0.24295 0.41681 0.29471 0.0
H5581 H 0.18712 0.39087 0.30976 0.0
H5582 H 0.1549 0.38263 0.30618 0.0
H5583 H 0.15055 0.35212 0.24998 0.0
H5584 H 0.18276 0.36032 0.25318 0.0
H5585 H 0.27785 0.33457 0.30353 0.0
H5586 H 0.26454 0.36144 0.30721 0.0
H5587 H 0.22133 0.33248 0.26212 0.0
H5588 H 0.23387 0.30476 0.26012 0.0
H5589 H 0.2069 0.35143 0.27952 0.0
H5590 H 0.26441 0.37892 0.2652 0.0
H5591 H 0.29678 0.38728 0.2709 0.0
H5592 H 0.29818 0.4153 0.32746 0.0
H5593 H 0.26587 0.40699 0.32215 0.0
C5594 C 0.18616 0.43596 0.27865 0.0
C5595 C 0.19313 0.4512 0.29392 0.0
C5596 C 0.19346 0.41968 0.27666 0.0
C5597 C 0.20812 0.41767 0.28981 0.0
C5598 C 0.21508 0.43302 0.30484 0.0
C5599 C 0.20782 0.44911 0.30686 0.0
C5600 C 0.21643 0.40016 0.28815 0.0
C5601 C 0.23488 0.40255 0.29147 0.0
C5602 C 0.2066 0.38103 0.28374 0.0
C5603 C 0.18729 0.3764 0.28161 0.0
C5604 C 0.17927 0.38255 0.29657 0.0
C5605 C 0.16102 0.37785 0.29463 0.0
C5606 C 0.15068 0.36691 0.27784 0.0
C5607 C 0.15857 0.36063 0.26296 0.0
C5608 C 0.17682 0.36528 0.26483 0.0
C5609 C 0.26545 0.3338 0.29439 0.0
C5610 C 0.25716 0.317 0.2815 0.0
C5611 C 0.2578 0.34968 0.2962 0.0
C5612 C 0.24182 0.35029 0.28445 0.0
C5613 C 0.23354 0.33331 0.2716 0.0
C5614 C 0.24086 0.31712 0.27035 0.0
C5615 C 0.23355 0.36795 0.28567 0.0
C5616 C 0.21506 0.36562 0.28243 0.0
C5617 C 0.24339 0.38719 0.29023 0.0
C5618 C 0.26276 0.39218 0.29333 0.0
C5619 C 0.27165 0.38681 0.27886 0.0
C5620 C 0.28997 0.39154 0.28202 0.0
C5621 C 0.29952 0.40177 0.29953 0.0
C5622 C 0.29078 0.40736 0.31391 0.0
C5623 C 0.27247 0.40266 0.31083 0.0
H5624 H 0.3137 0.4054 0.30195 0.0
H5625 H 0.13656 0.36326 0.27638 0.0
H5626 H 0.26187 0.42683 0.03578 0.0
H5627 H 0.23729 0.44177 0.02896 0.0
H5628 H 0.20139 0.3871 0.01466 0.0
H5629 H 0.22582 0.37218 0.02084 0.0
H5630 H 0.19074 0.40726 0.99101 0.0
H5631 H 0.20698 0.41699 0.05875 0.0
H5632 H 0.2263 0.42694 0.09035 0.0
H5633 H 0.23741 0.48421 0.0802 0.0
H5634 H 0.21834 0.47454 0.04839 0.0
H5635 H 0.11345 0.44067 0.00575 0.0
H5636 H 0.13779 0.42496 0.00684 0.0
H5637 H 0.17408 0.47853 0.01093 0.0
H5638 H 0.14998 0.49434 0.0102 0.0
H5639 H 0.18398 0.45855 0.03883 0.0
H5640 H 0.16411 0.44644 0.97033 0.0
H5641 H 0.14242 0.43423 0.94056 0.0
H5642 H 0.13505 0.37836 0.95458 0.0
H5643 H 0.15653 0.39026 0.98458 0.0
C5644 C 0.24875 0.418 0.0312 0.0
C5645 C 0.24591 0.39828 0.02907 0.0
C5646 C 0.23463 0.42656 0.02734 0.0
C5647 C 0.21729 0.41563 0.02152 0.0
C5648 C 0.21453 0.39594 0.0191 0.0
C5649 C 0.2286 0.38741 0.0228 0.0
C5650 C 0.20199 0.4246 0.01842 0.0
C5651 C 0.18922 0.41836 0.00159 0.0
C5652 C 0.19981 0.43914 0.03208 0.0
C5653 C 0.21142 0.44501 0.0511 0.0
C5654 C 0.21368 0.43168 0.06318 0.0
C5655 C 0.22456 0.43727 0.08114 0.0
C5656 C 0.23313 0.45619 0.08726 0.0
C5657 C 0.2308 0.46956 0.07543 0.0
C5658 C 0.21996 0.46403 0.05743 0.0
C5659 C 0.1266 0.44911 0.00677 0.0
C5660 C 0.12967 0.46884 0.00792 0.0
C5661 C 0.14051 0.44007 0.00723 0.0
C5662 C 0.15782 0.45053 0.00891 0.0
C5663 C 0.16086 0.47013 0.00959 0.0
C5664 C 0.14699 0.47915 0.00902 0.0
C5665 C 0.17295 0.44142 0.01139 0.0
C5666 C 0.18561 0.44755 0.0282 0.0
C5667 C 0.17471 0.42648 0.99793 0.0
C5668 C 0.16182 0.4193 0.97984 0.0
C5669 C 0.15776 0.43158 0.96716 0.0
C5670 C 0.14552 0.4247 0.95022 0.0
C5671 C 0.13732 0.40554 0.94571 0.0
C5672 C 0.14139 0.3932 0.95811 0.0
C5673 C 0.15361 0.40001 0.97508 0.0
H5674 H 0.12784 0.40026 0.93259 0.0
H5675 H 0.24153 0.46049 0.10118 0.0
H5676 H 0.92185 0.93737 0.27574 0.0
H5677 H 0.89986 0.91082 0.28073 0.0
H5678 H 0.85968 0.92936 0.24557 0.0
H5679 H 0.88177 0.95672 0.24116 0.0
H5680 H 0.84802 0.91567 0.27606 0.0
H5681 H 0.87798 0.8941 0.22701 0.0
H5682 H 0.90454 0.89112 0.21422 0.0
H5683 H 0.92008 0.86201 0.25996 0.0
H5684 H 0.89369 0.86502 0.27313 0.0
H5685 H 0.78665 0.82666 0.24927 0.0
H5686 H 0.80806 0.85589 0.2489 0.0
H5687 H 0.84551 0.8403 0.29044 0.0
H5688 H 0.82387 0.81137 0.29148 0.0
H5689 H 0.85869 0.85244 0.25767 0.0
H5690 H 0.82905 0.87244 0.3062 0.0
H5691 H 0.80373 0.87645 0.32092 0.0
H5692 H 0.78848 0.90885 0.27809 0.0
H5693 H 0.81356 0.90475 0.2629 0.0
C5694 C 0.90834 0.93585 0.26905 0.0
C5695 C 0.90357 0.9489 0.25772 0.0
C5696 C 0.89577 0.92065 0.27193 0.0
C5697 C 0.8782 0.91781 0.26311 0.0
C5698 C 0.87321 0.93121 0.25239 0.0
C5699 C 0.88581 0.94675 0.24979 0.0
C5700 C 0.86534 0.90038 0.26446 0.0
C5701 C 0.8502 0.90184 0.27175 0.0
C5702 C 0.86846 0.88233 0.25941 0.0
C5703 C 0.88393 0.87985 0.25108 0.0
C5704 C 0.88708 0.88708 0.23433 0.0
C5705 C 0.90211 0.8854 0.22704 0.0
C5706 C 0.914 0.8764 0.23629 0.0
C5707 C 0.91085 0.86897 0.25281 0.0
C5708 C 0.89585 0.87062 0.26017 0.0
C5709 C 0.79944 0.82947 0.25834 0.0
C5710 C 0.80369 0.81665 0.27021 0.0
C5711 C 0.81162 0.84617 0.25816 0.0
C5712 C 0.82832 0.85022 0.26966 0.0
C5713 C 0.83268 0.83736 0.28142 0.0
C5714 C 0.82037 0.82082 0.2819 0.0
C5715 C 0.84129 0.86773 0.26906 0.0
C5716 C 0.85647 0.86626 0.26191 0.0
C5717 C 0.83823 0.88573 0.27433 0.0
C5718 C 0.82305 0.88809 0.28328 0.0
C5719 C 0.82018 0.88023 0.29978 0.0
C5720 C 0.8059 0.88256 0.30824 0.0
C5721 C 0.79447 0.89285 0.30041 0.0
C5722 C 0.79732 0.90085 0.28411 0.0
C5723 C 0.81157 0.89853 0.27558 0.0
H5724 H 0.78343 0.89466 0.30699 0.0
H5725 H 0.92566 0.87517 0.23065 0.0
H5726 H 0.67059 0.07691 0.80324 0.0
H5727 H 0.68837 0.10775 0.80246 0.0
H5728 H 0.7294 0.0828 0.78634 0.0
H5729 H 0.7111 0.05099 0.78654 0.0
H5730 H 0.73881 0.12088 0.81803 0.0
H5731 H 0.7095 0.09432 0.75267 0.0
H5732 H 0.68356 0.078 0.72828 0.0
H5733 H 0.65719 0.12128 0.74354 0.0
H5734 H 0.68285 0.13768 0.76828 0.0
H5735 H 0.78232 0.20488 0.78523 0.0
H5736 H 0.76936 0.17214 0.78836 0.0
H5737 H 0.71993 0.18643 0.79169 0.0
H5738 H 0.73312 0.21935 0.78928 0.0
H5739 H 0.71621 0.15292 0.76589 0.0
H5740 H 0.73958 0.17758 0.83062 0.0
H5741 H 0.76124 0.19481 0.85892 0.0
H5742 H 0.79485 0.15752 0.84866 0.0
H5743 H 0.7733 0.14001 0.82021 0.0
C5744 C 0.68343 0.07765 0.7996 0.0
C5745 C 0.68914 0.061 0.79475 0.0
C5746 C 0.69368 0.09557 0.79924 0.0
C5747 C 0.71027 0.09788 0.79424 0.0
C5748 C 0.71662 0.08152 0.79028 0.0
C5749 C 0.70615 0.06326 0.79044 0.0
C5750 C 0.71996 0.11736 0.79209 0.0
C5751 C 0.7342 0.12765 0.80629 0.0
C5752 C 0.71339 0.12686 0.7775 0.0
C5753 C 0.69806 0.11716 0.76243 0.0
C5754 C 0.69812 0.10028 0.75093 0.0
C5755 C 0.68347 0.09102 0.73703 0.0
C5756 C 0.66872 0.09858 0.73438 0.0
C5757 C 0.66861 0.11543 0.74561 0.0
C5758 C 0.68321 0.12473 0.75957 0.0
C5759 C 0.76873 0.20105 0.78679 0.0
C5760 C 0.75879 0.21475 0.7871 0.0
C5761 C 0.7613 0.18229 0.7886 0.0
C5762 C 0.74357 0.17657 0.79027 0.0
C5763 C 0.7336 0.1903 0.79041 0.0
C5764 C 0.74116 0.20917 0.78909 0.0
C5765 C 0.73543 0.15629 0.79148 0.0
C5766 C 0.72122 0.14599 0.77732 0.0
C5767 C 0.74172 0.14699 0.80637 0.0
C5768 C 0.75494 0.15763 0.82315 0.0
C5769 C 0.75168 0.17317 0.83427 0.0
C5770 C 0.7639 0.18296 0.85038 0.0
C5771 C 0.77947 0.17735 0.85554 0.0
C5772 C 0.7828 0.16188 0.84462 0.0
C5773 C 0.77056 0.15198 0.82852 0.0
H5774 H 0.78891 0.18493 0.86803 0.0
H5775 H 0.65739 0.09139 0.72361 0.0
loop_
_geom_bond_atom_site_label_1
_geom_bond_atom_site_label_2
_geom_bond_distance
_geom_bond_site_symmetry_2
_ccdc_geom_bond_type
Zn0 O3 2.031 . S
Zn0 O5 2.049 . S
Zn0 O10 2.067 . S
Zn1 O2 1.962 . S
Zn1 O4 1.986 . S
Zn1 O6 1.996 . S
Zn1 O9 1.943 1_455 S
O2 Zn1 1.962 . S
O2 C7 1.254 . S
O3 Zn0 2.031 . S
O3 C7 1.269 1_655 S
O4 Zn1 1.986 . S
O4 C11 1.262 . S
O5 Zn0 2.049 . S
O5 C13 1.260 . S
O6 Zn1 1.996 . S
O6 C13 1.257 1_455 S
C7 O2 1.254 . S
C7 O3 1.269 1_455 S
C8 O9 1.249 . S
C8 O10 1.270 . S
O9 Zn1 1.943 1_655 S
O9 C8 1.249 . S
O10 Zn0 2.067 . S
O10 C8 1.270 . S
C11 O4 1.262 . S
C11 O12 1.232 . S
O12 C11 1.232 . S
C13 O5 1.260 . S
C13 O6 1.257 1_655 S
Zn14 O17 2.031 . S
Zn14 O19 2.049 . S
Zn14 O24 2.067 . S
Zn15 O16 1.962 . S
Zn15 O18 1.986 . S
Zn15 O20 1.996 . S
Zn15 O23 1.943 . S
O16 Zn15 1.962 . S
O16 C21 1.254 . S
O17 Zn14 2.031 . S
O17 C21 1.269 . S
O18 Zn15 1.986 . S
O18 C25 1.262 . S
O19 Zn14 2.049 . S
O19 C27 1.260 . S
O20 Zn15 1.996 . S
O20 C27 1.257 . S
C21 O16 1.254 . S
C21 O17 1.269 . S
C22 O23 1.249 . S
C22 O24 1.270 . S
O23 Zn15 1.943 . S
O23 C22 1.249 . S
O24 Zn14 2.067 . S
O24 C22 1.270 . S
C25 O18 1.262 . S
C25 O26 1.232 . S
O26 C25 1.232 . S
C27 O19 1.260 . S
C27 O20 1.257 . S
Zn28 O31 2.031 . S
Zn28 O33 2.049 . S
Zn28 O38 2.067 . S
Zn29 O30 1.962 . S
Zn29 O32 1.986 . S
Zn29 O34 1.996 . S
Zn29 O37 1.943 . S
O30 Zn29 1.962 . S
O30 C35 1.254 . S
O31 Zn28 2.031 . S
O31 C35 1.269 . S
O32 Zn29 1.986 . S
O32 C39 1.262 . S
O33 Zn28 2.049 . S
O33 C41 1.260 . S
O34 Zn29 1.996 . S
O34 C41 1.257 . S
C35 O30 1.254 . S
C35 O31 1.269 . S
C36 O37 1.249 . S
C36 O38 1.270 . S
O37 Zn29 1.943 . S
O37 C36 1.249 . S
O38 Zn28 2.067 . S
O38 C36 1.270 . S
C39 O32 1.262 . S
C39 O40 1.232 . S
O40 C39 1.232 . S
C41 O33 1.260 . S
C41 O34 1.257 . S
Zn42 O45 2.031 . S
Zn42 O47 2.049 . S
Zn42 O52 2.067 . S
Zn43 O44 1.962 . S
Zn43 O46 1.986 . S
Zn43 O48 1.996 . S
Zn43 O51 1.943 . S
O44 Zn43 1.962 . S
O44 C49 1.254 . S
O45 Zn42 2.031 . S
O45 C49 1.269 . S
O46 Zn43 1.986 . S
O46 C53 1.262 . S
O47 Zn42 2.049 . S
O47 C55 1.260 . S
O48 Zn43 1.996 . S
O48 C55 1.257 . S
C49 O44 1.254 . S
C49 O45 1.269 . S
C50 O51 1.249 . S
C50 O52 1.270 . S
O51 Zn43 1.943 . S
O51 C50 1.249 . S
O52 Zn42 2.067 . S
O52 C50 1.270 . S
C53 O46 1.262 . S
C53 O54 1.232 . S
O54 C53 1.232 . S
C55 O47 1.260 . S
C55 O48 1.257 . S
Zn56 O59 2.031 . S
Zn56 O61 2.049 . S
Zn56 O66 2.067 . S
Zn57 O58 1.962 . S
Zn57 O60 1.986 . S
Zn57 O62 1.996 . S
Zn57 O65 1.943 . S
O58 Zn57 1.962 . S
O58 C63 1.254 . S
O59 Zn56 2.031 . S
O59 C63 1.269 . S
O60 Zn57 1.986 . S
O60 C67 1.262 . S
O61 Zn56 2.049 . S
O61 C69 1.260 . S
O62 Zn57 1.996 . S
O62 C69 1.257 . S
C63 O58 1.254 . S
C63 O59 1.269 . S
C64 O65 1.249 . S
C64 O66 1.270 . S
O65 Zn57 1.943 . S
O65 C64 1.249 . S
O66 Zn56 2.067 . S
O66 C64 1.270 . S
C67 O60 1.262 . S
C67 O68 1.232 . S
O68 C67 1.232 . S
C69 O61 1.260 . S
C69 O62 1.257 . S
Zn70 O73 2.031 . S
Zn70 O75 2.049 . S
Zn70 O80 2.067 . S
Zn71 O72 1.962 . S
Zn71 O74 1.986 . S
Zn71 O76 1.996 . S
Zn71 O79 1.943 . S
O72 Zn71 1.962 . S
O72 C77 1.254 . S
O73 Zn70 2.031 . S
O73 C77 1.269 . S
O74 Zn71 1.986 . S
O74 C81 1.262 . S
O75 Zn70 2.049 . S
O75 C83 1.260 . S
O76 Zn71 1.996 . S
O76 C83 1.257 . S
C77 O72 1.254 . S
C77 O73 1.269 . S
C78 O79 1.249 . S
C78 O80 1.270 . S
O79 Zn71 1.943 . S
O79 C78 1.249 . S
O80 Zn70 2.067 . S
O80 C78 1.270 . S
C81 O74 1.262 . S
C81 O82 1.232 . S
O82 C81 1.232 . S
C83 O75 1.260 . S
C83 O76 1.257 . S
Zn84 O87 2.031 . S
Zn84 O89 2.049 . S
Zn84 O94 2.067 . S
Zn85 O86 1.962 . S
Zn85 O88 1.986 . S
Zn85 O90 1.996 . S
Zn85 O93 1.943 . S
O86 Zn85 1.962 . S
O86 C91 1.254 . S
O87 Zn84 2.031 . S
O87 C91 1.269 . S
O88 Zn85 1.986 . S
O88 C95 1.262 . S
O89 Zn84 2.049 . S
O89 C97 1.260 . S
O90 Zn85 1.996 . S
O90 C97 1.257 . S
C91 O86 1.254 . S
C91 O87 1.269 . S
C92 O93 1.249 . S
C92 O94 1.270 . S
O93 Zn85 1.943 . S
O93 C92 1.249 . S
O94 Zn84 2.067 . S
O94 C92 1.270 . S
C95 O88 1.262 . S
C95 O96 1.232 . S
O96 C95 1.232 . S
C97 O89 1.260 . S
C97 O90 1.257 . S
Zn98 O101 2.031 . S
Zn98 O103 2.049 . S
Zn98 O108 2.067 . S
Zn99 O100 1.962 . S
Zn99 O102 1.986 . S
Zn99 O104 1.996 . S
Zn99 O107 1.943 1_455 S
O100 Zn99 1.962 . S
O100 C105 1.254 . S
O101 Zn98 2.031 . S
O101 C105 1.269 1_655 S
O102 Zn99 1.986 . S
O102 C109 1.262 . S
O103 Zn98 2.049 . S
O103 C111 1.260 1_655 S
O104 Zn99 1.996 . S
O104 C111 1.257 . S
C105 O100 1.254 . S
C105 O101 1.269 1_455 S
C106 O107 1.249 . S
C106 O108 1.270 . S
O107 Zn99 1.943 1_655 S
O107 C106 1.249 . S
O108 Zn98 2.067 . S
O108 C106 1.270 . S
C109 O102 1.262 . S
C109 O110 1.232 . S
O110 C109 1.232 . S
C111 O103 1.260 1_455 S
C111 O104 1.257 . S
Zn112 O115 2.031 1_565 S
Zn112 O117 2.049 . S
Zn112 O122 2.067 . S
Zn113 O114 1.962 . S
Zn113 O116 1.986 . S
Zn113 O118 1.996 . S
Zn113 O121 1.943 . S
O114 Zn113 1.962 . S
O114 C119 1.254 . S
O115 Zn112 2.031 1_545 S
O115 C119 1.269 . S
O116 Zn113 1.986 . S
O116 C123 1.262 . S
O117 Zn112 2.049 . S
O117 C125 1.260 1_565 S
O118 Zn113 1.996 . S
O118 C125 1.257 . S
C119 O114 1.254 . S
C119 O115 1.269 . S
C120 O121 1.249 1_565 S
C120 O122 1.270 . S
O121 Zn113 1.943 . S
O121 C120 1.249 1_545 S
O122 Zn112 2.067 . S
O122 C120 1.270 . S
C123 O116 1.262 . S
C123 O124 1.232 . S
O124 C123 1.232 . S
C125 O117 1.260 1_545 S
C125 O118 1.257 . S
Zn126 O129 2.031 . S
Zn126 O131 2.049 . S
Zn126 O136 2.067 . S
Zn127 O128 1.962 . S
Zn127 O130 1.986 . S
Zn127 O132 1.996 . S
Zn127 O135 1.943 . S
O128 Zn127 1.962 . S
O128 C133 1.254 . S
O129 Zn126 2.031 . S
O129 C133 1.269 . S
O130 Zn127 1.986 . S
O130 C137 1.262 . S
O131 Zn126 2.049 . S
O131 C139 1.260 . S
O132 Zn127 1.996 . S
O132 C139 1.257 . S
C133 O128 1.254 . S
C133 O129 1.269 . S
C134 O135 1.249 . S
C134 O136 1.270 . S
O135 Zn127 1.943 . S
O135 C134 1.249 . S
O136 Zn126 2.067 . S
O136 C134 1.270 . S
C137 O130 1.262 . S
C137 O138 1.232 . S
O138 C137 1.232 . S
C139 O131 1.260 . S
C139 O132 1.257 . S
Zn140 O143 2.031 . S
Zn140 O145 2.049 . S
Zn140 O150 2.067 . S
Zn141 O142 1.962 . S
Zn141 O144 1.986 1_545 S
Zn141 O146 1.996 . S
Zn141 O149 1.943 . S
O142 Zn141 1.962 . S
O142 C147 1.254 . S
O143 Zn140 2.031 . S
O143 C147 1.269 . S
O144 Zn141 1.986 1_565 S
O144 C151 1.262 . S
O145 Zn140 2.049 . S
O145 C153 1.260 . S
O146 Zn141 1.996 . S
O146 C153 1.257 . S
C147 O142 1.254 . S
C147 O143 1.269 . S
C148 O149 1.249 . S
C148 O150 1.270 . S
O149 Zn141 1.943 . S
O149 C148 1.249 . S
O150 Zn140 2.067 . S
O150 C148 1.270 . S
C151 O144 1.262 . S
C151 O152 1.209 1_565 S
O152 C151 1.209 1_545 S
C153 O145 1.260 . S
C153 O146 1.257 . S
Zn154 O157 2.031 1_554 S
Zn154 O159 2.049 . S
Zn154 O164 2.067 . S
Zn155 O156 1.962 . S
Zn155 O158 1.986 1_556 S
Zn155 O160 1.996 1_556 S
Zn155 O163 1.943 1_556 S
O156 Zn155 1.962 . S
O156 C161 1.254 . S
O157 Zn154 2.031 1_556 S
O157 C161 1.269 . S
O158 Zn155 1.986 1_554 S
O158 C165 1.262 1_554 S
O159 Zn154 2.049 . S
O159 C167 1.260 . S
O160 Zn155 1.996 1_554 S
O160 C167 1.257 . S
C161 O156 1.254 . S
C161 O157 1.269 . S
C162 O163 1.249 . S
C162 O164 1.270 . S
O163 Zn155 1.943 1_554 S
O163 C162 1.249 . S
O164 Zn154 2.067 . S
O164 C162 1.270 . S
C165 O158 1.262 1_556 S
C165 O166 1.232 . S
O166 C165 1.232 . S
C167 O159 1.260 . S
C167 O160 1.257 . S
Zn168 O171 2.031 . S
Zn168 O173 2.049 . S
Zn168 O178 2.067 . S
Zn169 O170 1.962 1_554 S
Zn169 O172 1.986 . S
Zn169 O174 1.996 . S
Zn169 O177 1.943 . S
O170 Zn169 1.962 1_556 S
O170 C175 1.254 . S
O171 Zn168 2.031 . S
O171 C175 1.269 1_554 S
O172 Zn169 1.986 . S
O172 C179 1.262 . S
O173 Zn168 2.049 . S
O173 C181 1.260 . S
O174 Zn169 1.996 . S
O174 C181 1.257 . S
C175 O170 1.254 . S
C175 O171 1.269 1_556 S
C176 O177 1.249 . S
C176 O178 1.270 . S
O177 Zn169 1.943 . S
O177 C176 1.249 . S
O178 Zn168 2.067 . S
O178 C176 1.270 . S
C179 O172 1.262 . S
C179 O180 1.232 . S
O180 C179 1.232 . S
C181 O173 1.260 . S
C181 O174 1.257 . S
Zn182 O185 2.031 . S
Zn182 O187 2.049 . S
Zn182 O192 2.067 . S
Zn183 O184 1.962 . S
Zn183 O186 1.986 . S
Zn183 O188 1.996 . S
Zn183 O191 1.943 . S
O184 Zn183 1.962 . S
O184 C189 1.254 . S
O185 Zn182 2.031 . S
O185 C189 1.269 . S
O186 Zn183 1.986 . S
O186 C193 1.262 . S
O187 Zn182 2.049 . S
O187 C195 1.260 . S
O188 Zn183 1.996 . S
O188 C195 1.257 . S
C189 O184 1.254 . S
C189 O185 1.269 . S
C190 O191 1.249 . S
C190 O192 1.270 . S
O191 Zn183 1.943 . S
O191 C190 1.249 . S
O192 Zn182 2.067 . S
O192 C190 1.270 . S
C193 O186 1.262 . S
C193 O194 1.232 . S
O194 C193 1.232 . S
C195 O187 1.260 . S
C195 O188 1.257 . S
Zn196 O199 2.031 . S
Zn196 O201 2.049 . S
Zn196 O206 2.067 . S
Zn197 O198 1.962 . S
Zn197 O200 1.986 . S
Zn197 O202 1.996 . S
Zn197 O205 1.943 . S
O198 Zn197 1.962 . S
O198 C203 1.254 . S
O199 Zn196 2.031 . S
O199 C203 1.269 . S
O200 Zn197 1.986 . S
O200 C207 1.262 . S
O201 Zn196 2.049 . S
O201 C209 1.260 . S
O202 Zn197 1.996 . S
O202 C209 1.257 . S
C203 O198 1.254 . S
C203 O199 1.269 . S
C204 O205 1.249 . S
C204 O206 1.270 . S
O205 Zn197 1.943 . S
O205 C204 1.249 . S
O206 Zn196 2.067 . S
O206 C204 1.270 . S
C207 O200 1.262 . S
C207 O208 1.232 . S
O208 C207 1.232 . S
C209 O201 1.260 . S
C209 O202 1.257 . S
Zn210 O213 2.031 . S
Zn210 O215 2.049 . S
Zn210 O220 2.067 . S
Zn211 O212 1.962 . S
Zn211 O214 1.986 . S
Zn211 O216 1.996 . S
Zn211 O219 1.943 . S
O212 Zn211 1.962 . S
O212 C217 1.254 . S
O213 Zn210 2.031 . S
O213 C217 1.269 . S
O214 Zn211 1.986 . S
O214 C221 1.262 . S
O215 Zn210 2.049 . S
O215 C223 1.260 . S
O216 Zn211 1.996 . S
O216 C223 1.257 . S
C217 O212 1.254 . S
C217 O213 1.269 . S
C218 O219 1.249 . S
C218 O220 1.270 . S
O219 Zn211 1.943 . S
O219 C218 1.249 . S
O220 Zn210 2.067 . S
O220 C218 1.270 . S
C221 O214 1.262 . S
C221 O222 1.232 . S
O222 C221 1.232 . S
C223 O215 1.260 . S
C223 O216 1.257 . S
Zn224 O227 2.031 . S
Zn224 O229 2.049 . S
Zn224 O234 2.067 . S
Zn225 O226 1.962 . S
Zn225 O228 1.986 . S
Zn225 O230 1.996 . S
Zn225 O233 1.943 1_545 S
O226 Zn225 1.962 . S
O226 C231 1.254 . S
O227 Zn224 2.031 . S
O227 C231 1.269 1_565 S
O228 Zn225 1.986 . S
O228 C235 1.262 . S
O229 Zn224 2.049 . S
O229 C237 1.260 1_565 S
O230 Zn225 1.996 . S
O230 C237 1.257 . S
C231 O226 1.254 . S
C231 O227 1.269 1_545 S
C232 O233 1.249 . S
C232 O234 1.270 . S
O233 Zn225 1.943 1_565 S
O233 C232 1.249 . S
O234 Zn224 2.067 . S
O234 C232 1.270 . S
C235 O228 1.262 . S
C235 O236 1.232 . S
O236 C235 1.232 . S
C237 O229 1.260 1_545 S
C237 O230 1.257 . S
Zn238 O241 2.031 . S
Zn238 O243 2.049 . S
Zn238 O248 2.067 . S
Zn239 O240 1.962 . S
Zn239 O242 1.986 . S
Zn239 O244 1.996 . S
Zn239 O247 1.943 . S
O240 Zn239 1.962 . S
O240 C245 1.254 . S
O241 Zn238 2.031 . S
O241 C245 1.269 . S
O242 Zn239 1.986 . S
O242 C249 1.262 . S
O243 Zn238 2.049 . S
O243 C251 1.260 . S
O244 Zn239 1.996 . S
O244 C251 1.257 . S
C245 O240 1.254 . S
C245 O241 1.269 . S
C246 O247 1.249 . S
C246 O248 1.270 . S
O247 Zn239 1.943 . S
O247 C246 1.249 . S
O248 Zn238 2.067 . S
O248 C246 1.270 . S
C249 O242 1.262 . S
C249 O250 1.232 . S
O250 C249 1.232 . S
C251 O243 1.260 . S
C251 O244 1.257 . S
Zn252 O255 2.031 . S
Zn252 O257 2.049 . S
Zn252 O262 2.067 . S
Zn253 O254 1.962 . S
Zn253 O256 1.986 . S
Zn253 O258 1.996 . S
Zn253 O261 1.943 . S
O254 Zn253 1.962 . S
O254 C259 1.254 . S
O255 Zn252 2.031 . S
O255 C259 1.269 . S
O256 Zn253 1.986 . S
O256 C263 1.262 . S
O257 Zn252 2.049 . S
O257 C265 1.260 . S
O258 Zn253 1.996 . S
O258 C265 1.257 . S
C259 O254 1.254 . S
C259 O255 1.269 . S
C260 O261 1.249 . S
C260 O262 1.270 . S
O261 Zn253 1.943 . S
O261 C260 1.249 . S
O262 Zn252 2.067 . S
O262 C260 1.270 . S
C263 O256 1.262 . S
C263 O264 1.232 . S
O264 C263 1.232 . S
C265 O257 1.260 . S
C265 O258 1.257 . S
Zn266 O269 2.031 . S
Zn266 O271 2.049 . S
Zn266 O276 2.067 . S
Zn267 O268 1.962 1_545 S
Zn267 O270 1.986 1_545 S
Zn267 O272 1.996 . S
Zn267 O275 1.943 . S
O268 Zn267 1.962 1_565 S
O268 C273 1.260 1_565 S
O269 Zn266 2.031 . S
O269 C273 1.269 . S
O270 Zn267 1.986 1_565 S
O270 C277 1.262 . S
O271 Zn266 2.049 . S
O271 C279 1.260 . S
O272 Zn267 1.996 . S
O272 C279 1.257 . S
C273 O268 1.260 1_545 S
C273 O269 1.269 . S
C274 O275 1.249 . S
C274 O276 1.270 . S
O275 Zn267 1.943 . S
O275 C274 1.249 . S
O276 Zn266 2.067 . S
O276 C274 1.270 . S
C277 O270 1.262 . S
C277 O278 1.232 . S
O278 C277 1.232 . S
C279 O271 1.260 . S
C279 O272 1.257 . S
Zn280 O283 2.015 1_554 S
Zn280 O285 2.049 . S
Zn280 O290 2.067 . S
Zn281 O282 1.962 . S
Zn281 O284 1.986 . S
Zn281 O286 1.996 . S
Zn281 O289 1.943 . S
O282 Zn281 1.962 . S
O282 C287 1.254 1_554 S
O283 Zn280 2.015 1_556 S
O283 C287 1.278 . S
O284 Zn281 1.986 . S
O284 C291 1.262 . S
O285 Zn280 2.049 . S
O285 C293 1.260 . S
O286 Zn281 1.996 . S
O286 C293 1.257 . S
C287 O282 1.254 1_556 S
C287 O283 1.278 . S
C288 O289 1.249 . S
C288 O290 1.270 . S
O289 Zn281 1.943 . S
O289 C288 1.249 . S
O290 Zn280 2.067 . S
O290 C288 1.270 . S
C291 O284 1.262 . S
C291 O292 1.232 . S
O292 C291 1.232 . S
C293 O285 1.260 . S
C293 O286 1.257 . S
Zn294 O297 2.031 . S
Zn294 O299 2.049 . S
Zn294 O304 2.067 . S
Zn295 O296 1.962 . S
Zn295 O298 1.986 . S
Zn295 O300 1.996 . S
Zn295 O303 1.943 . S
O296 Zn295 1.962 . S
O296 C301 1.254 . S
O297 Zn294 2.031 . S
O297 C301 1.269 . S
O298 Zn295 1.986 . S
O298 C305 1.262 . S
O299 Zn294 2.049 . S
O299 C307 1.260 . S
O300 Zn295 1.996 . S
O300 C307 1.257 . S
C301 O296 1.254 . S
C301 O297 1.269 . S
C302 O303 1.249 . S
C302 O304 1.270 . S
O303 Zn295 1.943 . S
O303 C302 1.249 . S
O304 Zn294 2.067 . S
O304 C302 1.270 . S
C305 O298 1.262 . S
C305 O306 1.232 . S
O306 C305 1.232 . S
C307 O299 1.260 . S
C307 O300 1.257 . S
Zn308 O311 2.031 . S
Zn308 O313 2.049 . S
Zn308 O318 2.067 . S
Zn309 O310 1.962 . S
Zn309 O312 1.986 . S
Zn309 O314 1.996 . S
Zn309 O317 1.943 . S
O310 Zn309 1.962 . S
O310 C315 1.254 . S
O311 Zn308 2.031 . S
O311 C315 1.269 . S
O312 Zn309 1.986 . S
O312 C319 1.262 . S
O313 Zn308 2.049 . S
O313 C321 1.260 . S
O314 Zn309 1.996 . S
O314 C321 1.257 . S
C315 O310 1.254 . S
C315 O311 1.269 . S
C316 O317 1.249 . S
C316 O318 1.270 . S
O317 Zn309 1.943 . S
O317 C316 1.249 . S
O318 Zn308 2.067 . S
O318 C316 1.270 . S
C319 O312 1.262 . S
C319 O320 1.232 . S
O320 C319 1.232 . S
C321 O313 1.260 . S
C321 O314 1.257 . S
Zn322 O325 2.031 . S
Zn322 O327 2.049 . S
Zn322 O332 2.067 . S
Zn323 O324 1.962 . S
Zn323 O326 1.986 . S
Zn323 O328 1.996 . S
Zn323 O331 1.943 . S
O324 Zn323 1.962 . S
O324 C329 1.254 . S
O325 Zn322 2.031 . S
O325 C329 1.269 . S
O326 Zn323 1.986 . S
O326 C333 1.262 . S
O327 Zn322 2.049 . S
O327 C335 1.260 . S
O328 Zn323 1.996 . S
O328 C335 1.257 . S
C329 O324 1.254 . S
C329 O325 1.269 . S
C330 O331 1.249 . S
C330 O332 1.270 . S
O331 Zn323 1.943 . S
O331 C330 1.249 . S
O332 Zn322 2.067 . S
O332 C330 1.270 . S
C333 O326 1.262 . S
C333 O334 1.232 . S
O334 C333 1.232 . S
C335 O327 1.260 . S
C335 O328 1.257 . S
Tb336 C338 2.809 1_455 S
Tb336 O356 2.484 1_455 S
Tb336 O357 2.440 1_454 S
Tb336 O358 2.658 . S
Tb336 O359 2.409 1_554 S
Tb336 O360 2.378 . S
Tb336 O364 2.325 . S
Tb336 O367 2.341 1_545 S
Tb337 C347 2.809 . S
Tb337 O358 2.325 . S
Tb337 O361 2.341 . S
Tb337 O362 2.484 . S
Tb337 O363 2.440 . S
Tb337 O364 2.658 . S
Tb337 O365 2.409 . S
Tb337 O366 2.378 1_545 S
C338 Tb336 2.809 1_655 S
C338 C339 1.514 . S
C338 O356 1.248 . S
C338 O357 1.266 1_554 S
C339 C338 1.514 . S
C339 C340 1.359 . S
C339 C344 1.348 1_554 S
C340 C339 1.359 . S
C340 C341 1.380 . S
C340 H368 0.929 . S
C341 C340 1.380 . S
C341 C342 1.347 . S
C341 H369 0.931 . S
C342 C341 1.347 . S
C342 C343 1.369 1_554 S
C343 C342 1.369 1_556 S
C343 C344 1.408 . S
C343 H370 0.930 . S
C344 C339 1.348 1_556 S
C344 C343 1.408 . S
C344 H371 0.930 . S
C345 O358 1.281 1_556 S
C345 O359 1.254 . S
C346 O360 1.236 . S
C346 O361 1.266 . S
C347 Tb337 2.809 . S
C347 C348 1.514 1_545 S
C347 O362 1.248 . S
C347 O363 1.266 . S
C348 C347 1.514 1_565 S
C348 C349 1.359 . S
C348 C353 1.348 . S
C349 C348 1.359 . S
C349 C350 1.380 . S
C349 H372 0.929 . S
C350 C349 1.380 . S
C350 C351 1.347 . S
C350 H373 0.931 . S
C351 C350 1.347 . S
C351 C352 1.369 . S
C352 C351 1.369 . S
C352 C353 1.408 . S
C352 H374 0.930 . S
C353 C348 1.348 . S
C353 C352 1.408 . S
C353 H375 0.930 . S
C354 O364 1.281 . S
C354 O365 1.254 . S
C355 O366 1.236 . S
C355 O367 1.266 . S
O356 Tb336 2.484 1_655 S
O356 C338 1.248 . S
O357 Tb336 2.440 1_656 S
O357 C338 1.266 1_556 S
O358 Tb336 2.658 . S
O358 Tb337 2.325 . S
O358 C345 1.281 1_554 S
O359 Tb336 2.409 1_556 S
O359 C345 1.254 . S
O360 Tb336 2.378 . S
O360 C346 1.236 . S
O361 Tb337 2.341 . S
O361 C346 1.266 . S
O362 Tb337 2.484 . S
O362 C347 1.248 . S
O363 Tb337 2.440 . S
O363 C347 1.266 . S
O364 Tb336 2.325 . S
O364 Tb337 2.658 . S
O364 C354 1.281 . S
O365 Tb337 2.409 . S
O365 C354 1.254 . S
O366 Tb337 2.378 1_565 S
O366 C355 1.236 . S
O367 Tb336 2.341 1_565 S
O367 C355 1.266 . S
H368 C340 0.929 . S
H369 C341 0.931 . S
H370 C343 0.930 . S
H371 C344 0.930 . S
H372 C349 0.929 . S
H373 C350 0.931 . S
H374 C352 0.930 . S
H375 C353 0.930 . S
Tb376 C378 2.809 . S
Tb376 O396 2.484 . S
Tb376 O397 2.440 . S
Tb376 O398 2.658 . S
Tb376 O399 2.409 . S
Tb376 O400 2.378 . S
Tb376 O404 2.325 . S
Tb376 O407 2.341 . S
Tb377 C387 2.809 . S
Tb377 O398 2.325 . S
Tb377 O401 2.341 . S
Tb377 O402 2.484 . S
Tb377 O403 2.440 . S
Tb377 O404 2.658 . S
Tb377 O405 2.409 . S
Tb377 O406 2.378 . S
C378 Tb376 2.809 . S
C378 C379 1.514 . S
C378 O396 1.248 . S
C378 O397 1.266 . S
C379 C378 1.514 . S
C379 C380 1.359 . S
C379 C384 1.348 . S
C380 C379 1.359 . S
C380 C381 1.380 . S
C380 H408 0.929 . S
C381 C380 1.380 . S
C381 C382 1.347 . S
C381 H409 0.931 . S
C382 C381 1.347 . S
C382 C383 1.369 . S
C383 C382 1.369 . S
C383 C384 1.408 . S
C383 H410 0.930 . S
C384 C379 1.348 . S
C384 C383 1.408 . S
C384 H411 0.930 . S
C385 O398 1.281 . S
C385 O399 1.254 . S
C386 O400 1.236 . S
C386 O401 1.266 . S
C387 Tb377 2.809 . S
C387 C388 1.514 . S
C387 O402 1.248 . S
C387 O403 1.266 . S
C388 C387 1.514 . S
C388 C389 1.359 . S
C388 C393 1.348 . S
C389 C388 1.359 . S
C389 C390 1.380 . S
C389 H412 0.929 . S
C390 C389 1.380 . S
C390 C391 1.347 . S
C390 H413 0.931 . S
C391 C390 1.347 . S
C391 C392 1.369 . S
C392 C391 1.369 . S
C392 C393 1.408 . S
C392 H414 0.930 . S
C393 C388 1.348 . S
C393 C392 1.408 . S
C393 H415 0.930 . S
C394 O404 1.281 . S
C394 O405 1.254 . S
C395 O406 1.236 . S
C395 O407 1.266 . S
O396 Tb376 2.484 . S
O396 C378 1.248 . S
O397 Tb376 2.440 . S
O397 C378 1.266 . S
O398 Tb376 2.658 . S
O398 Tb377 2.325 . S
O398 C385 1.281 . S
O399 Tb376 2.409 . S
O399 C385 1.254 . S
O400 Tb376 2.378 . S
O400 C386 1.236 . S
O401 Tb377 2.341 . S
O401 C386 1.266 . S
O402 Tb377 2.484 . S
O402 C387 1.248 . S
O403 Tb377 2.440 . S
O403 C387 1.266 . S
O404 Tb376 2.325 . S
O404 Tb377 2.658 . S
O404 C394 1.281 . S
O405 Tb377 2.409 . S
O405 C394 1.254 . S
O406 Tb377 2.378 . S
O406 C395 1.236 . S
O407 Tb376 2.341 . S
O407 C395 1.266 . S
H408 C380 0.929 . S
H409 C381 0.931 . S
H410 C383 0.930 . S
H411 C384 0.930 . S
H412 C389 0.929 . S
H413 C390 0.931 . S
H414 C392 0.930 . S
H415 C393 0.930 . S
Tb416 C418 2.809 1_545 S
Tb416 O436 2.484 1_545 S
Tb416 O437 2.440 . S
Tb416 O438 2.658 . S
Tb416 O439 2.409 . S
Tb416 O440 2.378 1_545 S
Tb416 O444 2.325 . S
Tb416 O447 2.341 . S
Tb417 C427 2.809 . S
Tb417 O438 2.325 . S
Tb417 O441 2.341 1_545 S
Tb417 O442 2.484 . S
Tb417 O443 2.440 . S
Tb417 O444 2.658 . S
Tb417 O445 2.409 . S
Tb417 O446 2.378 . S
C418 Tb416 2.809 1_565 S
C418 C419 1.514 . S
C418 O436 1.248 . S
C418 O437 1.266 1_565 S
C419 C418 1.514 . S
C419 C420 1.359 . S
C419 C424 1.348 . S
C420 C419 1.359 . S
C420 C421 1.380 . S
C420 H448 0.929 . S
C421 C420 1.380 . S
C421 C422 1.347 . S
C421 H449 0.931 . S
C422 C421 1.347 . S
C422 C423 1.369 . S
C423 C422 1.369 . S
C423 C424 1.408 . S
C423 H450 0.930 . S
C424 C419 1.348 . S
C424 C423 1.408 . S
C424 H451 0.930 . S
C425 O438 1.281 . S
C425 O439 1.254 . S
C426 O440 1.236 . S
C426 O441 1.266 . S
C427 Tb417 2.809 . S
C427 C428 1.514 . S
C427 O442 1.248 . S
C427 O443 1.266 . S
C428 C427 1.514 . S
C428 C429 1.359 . S
C428 C433 1.348 . S
C429 C428 1.359 . S
C429 C430 1.380 . S
C429 H452 0.929 . S
C430 C429 1.380 . S
C430 C431 1.347 . S
C430 H453 0.931 . S
C431 C430 1.347 . S
C431 C432 1.369 . S
C432 C431 1.369 . S
C432 C433 1.408 . S
C432 H454 0.930 . S
C433 C428 1.348 . S
C433 C432 1.408 . S
C433 H455 0.930 . S
C434 O444 1.281 . S
C434 O445 1.254 . S
C435 O446 1.236 . S
C435 O447 1.266 . S
O436 Tb416 2.484 1_565 S
O436 C418 1.248 . S
O437 Tb416 2.440 . S
O437 C418 1.266 1_545 S
O438 Tb416 2.658 . S
O438 Tb417 2.325 . S
O438 C425 1.281 . S
O439 Tb416 2.409 . S
O439 C425 1.254 . S
O440 Tb416 2.378 1_565 S
O440 C426 1.236 . S
O441 Tb417 2.341 1_565 S
O441 C426 1.266 . S
O442 Tb417 2.484 . S
O442 C427 1.248 . S
O443 Tb417 2.440 . S
O443 C427 1.266 . S
O444 Tb416 2.325 . S
O444 Tb417 2.658 . S
O444 C434 1.281 . S
O445 Tb417 2.409 . S
O445 C434 1.254 . S
O446 Tb417 2.378 . S
O446 C435 1.236 . S
O447 Tb416 2.341 . S
O447 C435 1.266 . S
H448 C420 0.929 . S
H449 C421 0.931 . S
H450 C423 0.930 . S
H451 C424 0.930 . S
H452 C429 0.929 . S
H453 C430 0.931 . S
H454 C432 0.930 . S
H455 C433 0.930 . S
Tb456 C458 2.809 . S
Tb456 O476 2.484 . S
Tb456 O477 2.440 . S
Tb456 O478 2.658 . S
Tb456 O479 2.409 . S
Tb456 O480 2.378 . S
Tb456 O484 2.325 . S
Tb456 O487 2.341 . S
Tb457 C467 2.809 . S
Tb457 O478 2.325 . S
Tb457 O481 2.341 . S
Tb457 O482 2.484 . S
Tb457 O483 2.440 . S
Tb457 O484 2.658 . S
Tb457 O485 2.409 . S
Tb457 O486 2.378 . S
C458 Tb456 2.809 . S
C458 C459 1.514 . S
C458 O476 1.248 . S
C458 O477 1.266 . S
C459 C458 1.514 . S
C459 C460 1.359 . S
C459 C464 1.348 . S
C460 C459 1.359 . S
C460 C461 1.380 . S
C460 H488 0.929 . S
C461 C460 1.380 . S
C461 C462 1.347 . S
C461 H489 0.931 . S
C462 C461 1.347 . S
C462 C463 1.369 . S
C463 C462 1.369 . S
C463 C464 1.408 . S
C463 H490 0.930 . S
C464 C459 1.348 . S
C464 C463 1.408 . S
C464 H491 0.930 . S
C465 O478 1.281 . S
C465 O479 1.254 . S
C466 O480 1.236 . S
C466 O481 1.266 . S
C467 Tb457 2.809 . S
C467 C468 1.514 . S
C467 O482 1.248 . S
C467 O483 1.266 . S
C468 C467 1.514 . S
C468 C469 1.359 . S
C468 C473 1.348 . S
C469 C468 1.359 . S
C469 C470 1.380 . S
C469 H492 0.929 . S
C470 C469 1.380 . S
C470 C471 1.347 . S
C470 H493 0.931 . S
C471 C470 1.347 . S
C471 C472 1.369 . S
C472 C471 1.369 . S
C472 C473 1.408 . S
C472 H494 0.930 . S
C473 C468 1.348 . S
C473 C472 1.408 . S
C473 H495 0.930 . S
C474 O484 1.281 . S
C474 O485 1.254 . S
C475 O486 1.236 . S
C475 O487 1.266 . S
O476 Tb456 2.484 . S
O476 C458 1.248 . S
O477 Tb456 2.440 . S
O477 C458 1.266 . S
O478 Tb456 2.658 . S
O478 Tb457 2.325 . S
O478 C465 1.281 . S
O479 Tb456 2.409 . S
O479 C465 1.254 . S
O480 Tb456 2.378 . S
O480 C466 1.236 . S
O481 Tb457 2.341 . S
O481 C466 1.266 . S
O482 Tb457 2.484 . S
O482 C467 1.248 . S
O483 Tb457 2.440 . S
O483 C467 1.266 . S
O484 Tb456 2.325 . S
O484 Tb457 2.658 . S
O484 C474 1.281 . S
O485 Tb457 2.409 . S
O485 C474 1.254 . S
O486 Tb457 2.378 . S
O486 C475 1.236 . S
O487 Tb456 2.341 . S
O487 C475 1.266 . S
H488 C460 0.929 . S
H489 C461 0.931 . S
H490 C463 0.930 . S
H491 C464 0.930 . S
H492 C469 0.929 . S
H493 C470 0.931 . S
H494 C472 0.930 . S
H495 C473 0.930 . S
Tb496 C498 2.809 . S
Tb496 O516 2.484 . S
Tb496 O517 2.440 . S
Tb496 O518 2.658 . S
Tb496 O519 2.409 1_455 S
Tb496 O520 2.378 . S
Tb496 O524 2.325 . S
Tb496 O527 2.341 . S
Tb497 C507 2.809 . S
Tb497 O518 2.325 1_565 S
Tb497 O521 2.341 1_565 S
Tb497 O522 2.484 . S
Tb497 O523 2.440 . S
Tb497 O524 2.658 1_565 S
Tb497 O525 2.409 1_565 S
Tb497 O526 2.378 1_565 S
C498 Tb496 2.809 . S
C498 C499 1.514 . S
C498 O516 1.248 . S
C498 O517 1.266 . S
C499 C498 1.514 . S
C499 C500 1.359 . S
C499 C504 1.348 1_455 S
C500 C499 1.359 . S
C500 C501 1.380 . S
C500 H528 0.929 . S
C501 C500 1.380 . S
C501 C502 1.347 . S
C501 H529 0.931 . S
C502 C501 1.347 . S
C502 C503 1.369 1_455 S
C503 C502 1.369 1_655 S
C503 C504 1.408 . S
C503 H530 0.930 . S
C504 C499 1.348 1_655 S
C504 C503 1.408 . S
C504 H531 0.930 . S
C505 O518 1.281 1_655 S
C505 O519 1.254 . S
C506 O520 1.236 . S
C506 O521 1.266 . S
C507 Tb497 2.809 . S
C507 C508 1.514 . S
C507 O522 1.248 . S
C507 O523 1.266 . S
C508 C507 1.514 . S
C508 C509 1.359 . S
C508 C513 1.348 . S
C509 C508 1.359 . S
C509 C510 1.380 . S
C509 H532 0.929 . S
C510 C509 1.380 . S
C510 C511 1.347 . S
C510 H533 0.931 . S
C511 C510 1.347 . S
C511 C512 1.369 . S
C512 C511 1.369 . S
C512 C513 1.408 . S
C512 H534 0.930 . S
C513 C508 1.348 . S
C513 C512 1.408 . S
C513 H535 0.930 . S
C514 O524 1.281 . S
C514 O525 1.254 . S
C515 O526 1.236 . S
C515 O527 1.266 . S
O516 Tb496 2.484 . S
O516 C498 1.248 . S
O517 Tb496 2.440 . S
O517 C498 1.266 . S
O518 Tb496 2.658 . S
O518 Tb497 2.325 1_545 S
O518 C505 1.281 1_455 S
O519 Tb496 2.409 1_655 S
O519 C505 1.254 . S
O520 Tb496 2.378 . S
O520 C506 1.236 . S
O521 Tb497 2.341 1_545 S
O521 C506 1.266 . S
O522 Tb497 2.484 . S
O522 C507 1.248 . S
O523 Tb497 2.440 . S
O523 C507 1.266 . S
O524 Tb496 2.325 . S
O524 Tb497 2.658 1_545 S
O524 C514 1.281 . S
O525 Tb497 2.409 1_545 S
O525 C514 1.254 . S
O526 Tb497 2.378 1_545 S
O526 C515 1.236 . S
O527 Tb496 2.341 . S
O527 C515 1.266 . S
H528 C500 0.929 . S
H529 C501 0.931 . S
H530 C503 0.930 . S
H531 C504 0.930 . S
H532 C509 0.929 . S
H533 C510 0.931 . S
H534 C512 0.930 . S
H535 C513 0.930 . S
Tb536 C538 2.809 . S
Tb536 O556 2.484 . S
Tb536 O557 2.440 . S
Tb536 O558 2.658 . S
Tb536 O559 2.409 . S
Tb536 O560 2.378 . S
Tb536 O564 2.325 . S
Tb536 O567 2.341 . S
Tb537 C547 2.809 . S
Tb537 O558 2.325 . S
Tb537 O561 2.341 . S
Tb537 O562 2.484 . S
Tb537 O563 2.440 . S
Tb537 O564 2.658 . S
Tb537 O565 2.409 . S
Tb537 O566 2.378 . S
C538 Tb536 2.809 . S
C538 C539 1.514 . S
C538 O556 1.248 . S
C538 O557 1.266 . S
C539 C538 1.514 . S
C539 C540 1.359 . S
C539 C544 1.348 . S
C540 C539 1.359 . S
C540 C541 1.380 . S
C540 H568 0.929 . S
C541 C540 1.380 . S
C541 C542 1.347 . S
C541 H569 0.931 . S
C542 C541 1.347 . S
C542 C543 1.369 . S
C543 C542 1.369 . S
C543 C544 1.408 . S
C543 H570 0.930 . S
C544 C539 1.348 . S
C544 C543 1.408 . S
C544 H571 0.930 . S
C545 O558 1.281 . S
C545 O559 1.254 . S
C546 O560 1.236 . S
C546 O561 1.266 . S
C547 Tb537 2.809 . S
C547 C548 1.514 . S
C547 O562 1.248 . S
C547 O563 1.266 . S
C548 C547 1.514 . S
C548 C549 1.359 . S
C548 C553 1.348 . S
C549 C548 1.359 . S
C549 C550 1.380 . S
C549 H572 0.929 . S
C550 C549 1.380 . S
C550 C551 1.347 . S
C550 H573 0.931 . S
C551 C550 1.347 . S
C551 C552 1.369 . S
C552 C551 1.369 . S
C552 C553 1.408 . S
C552 H574 0.930 . S
C553 C548 1.348 . S
C553 C552 1.408 . S
C553 H575 0.930 . S
C554 O564 1.281 . S
C554 O565 1.254 . S
C555 O566 1.236 . S
C555 O567 1.266 . S
O556 Tb536 2.484 . S
O556 C538 1.248 . S
O557 Tb536 2.440 . S
O557 C538 1.266 . S
O558 Tb536 2.658 . S
O558 Tb537 2.325 . S
O558 C545 1.281 . S
O559 Tb536 2.409 . S
O559 C545 1.254 . S
O560 Tb536 2.378 . S
O560 C546 1.236 . S
O561 Tb537 2.341 . S
O561 C546 1.266 . S
O562 Tb537 2.484 . S
O562 C547 1.248 . S
O563 Tb537 2.440 . S
O563 C547 1.266 . S
O564 Tb536 2.325 . S
O564 Tb537 2.658 . S
O564 C554 1.281 . S
O565 Tb537 2.409 . S
O565 C554 1.254 . S
O566 Tb537 2.378 . S
O566 C555 1.236 . S
O567 Tb536 2.341 . S
O567 C555 1.266 . S
H568 C540 0.929 . S
H569 C541 0.931 . S
H570 C543 0.930 . S
H571 C544 0.930 . S
H572 C549 0.929 . S
H573 C550 0.931 . S
H574 C552 0.930 . S
H575 C553 0.930 . S
Tb576 C578 2.824 . S
Tb576 O596 2.500 1_545 S
Tb576 O597 2.452 . S
Tb576 O598 2.679 . S
Tb576 O599 2.425 . S
Tb576 O600 2.429 . S
Tb576 O604 2.340 . S
Tb576 O607 2.308 1_554 S
Tb577 C587 2.809 . S
Tb577 O598 2.325 . S
Tb577 O601 2.341 . S
Tb577 O602 2.484 . S
Tb577 O603 2.440 . S
Tb577 O604 2.658 . S
Tb577 O605 2.409 1_545 S
Tb577 O606 2.381 . S
C578 Tb576 2.824 . S
C578 C579 1.514 1_545 S
C578 O596 1.248 1_545 S
C578 O597 1.266 . S
C579 C578 1.514 1_565 S
C579 C580 1.359 . S
C579 C584 1.348 1_565 S
C580 C579 1.359 . S
C580 C581 1.380 . S
C580 H608 0.929 . S
C581 C580 1.380 . S
C581 C582 1.347 . S
C581 H609 0.931 . S
C582 C581 1.347 . S
C582 C583 1.326 1_565 S
C583 C582 1.326 1_545 S
C583 C584 1.417 . S
C583 H610 0.965 . S
C584 C579 1.348 1_545 S
C584 C583 1.417 . S
C584 H611 0.930 . S
C585 O598 1.281 . S
C585 O599 1.254 . S
C586 O600 1.236 . S
C586 O601 1.266 . S
C587 Tb577 2.809 . S
C587 C588 1.514 . S
C587 O602 1.248 . S
C587 O603 1.266 . S
C588 C587 1.514 . S
C588 C589 1.359 . S
C588 C593 1.348 . S
C589 C588 1.359 . S
C589 C590 1.380 . S
C589 H612 0.929 . S
C590 C589 1.380 . S
C590 C591 1.347 . S
C590 H613 0.931 . S
C591 C590 1.347 . S
C591 C592 1.369 . S
C592 C591 1.369 . S
C592 C593 1.408 . S
C592 H614 0.930 . S
C593 C588 1.348 . S
C593 C592 1.408 . S
C593 H615 0.930 . S
C594 O604 1.281 1_565 S
C594 O605 1.254 . S
C595 O606 1.234 1_556 S
C595 O607 1.266 . S
O596 Tb576 2.500 1_565 S
O596 C578 1.248 1_565 S
O597 Tb576 2.452 . S
O597 C578 1.266 . S
O598 Tb576 2.679 . S
O598 Tb577 2.325 . S
O598 C585 1.281 . S
O599 Tb576 2.425 . S
O599 C585 1.254 . S
O600 Tb576 2.429 . S
O600 C586 1.236 . S
O601 Tb577 2.341 . S
O601 C586 1.266 . S
O602 Tb577 2.484 . S
O602 C587 1.248 . S
O603 Tb577 2.440 . S
O603 C587 1.266 . S
O604 Tb576 2.340 . S
O604 Tb577 2.658 . S
O604 C594 1.281 1_545 S
O605 Tb577 2.409 1_565 S
O605 C594 1.254 . S
O606 Tb577 2.381 . S
O606 C595 1.234 1_554 S
O607 Tb576 2.308 1_556 S
O607 C595 1.266 . S
H608 C580 0.929 . S
H609 C581 0.931 . S
H610 C583 0.965 . S
H611 C584 0.930 . S
H612 C589 0.929 . S
H613 C590 0.931 . S
H614 C592 0.930 . S
H615 C593 0.930 . S
Tb616 C618 2.809 . S
Tb616 O636 2.484 . S
Tb616 O637 2.440 . S
Tb616 O638 2.658 . S
Tb616 O639 2.409 . S
Tb616 O640 2.378 . S
Tb616 O644 2.325 . S
Tb616 O647 2.341 . S
Tb617 C627 2.809 . S
Tb617 O638 2.325 . S
Tb617 O641 2.341 . S
Tb617 O642 2.484 . S
Tb617 O643 2.440 . S
Tb617 O644 2.658 . S
Tb617 O645 2.409 . S
Tb617 O646 2.378 . S
C618 Tb616 2.809 . S
C618 C619 1.514 . S
C618 O636 1.248 . S
C618 O637 1.266 . S
C619 C618 1.514 . S
C619 C620 1.359 . S
C619 C624 1.348 . S
C620 C619 1.359 . S
C620 C621 1.380 . S
C620 H648 0.929 . S
C621 C620 1.380 . S
C621 C622 1.347 . S
C621 H649 0.931 . S
C622 C621 1.347 . S
C622 C623 1.369 . S
C623 C622 1.369 . S
C623 C624 1.408 . S
C623 H650 0.930 . S
C624 C619 1.348 . S
C624 C623 1.408 . S
C624 H651 0.930 . S
C625 O638 1.281 . S
C625 O639 1.254 . S
C626 O640 1.236 . S
C626 O641 1.266 . S
C627 Tb617 2.809 . S
C627 C628 1.514 . S
C627 O642 1.248 . S
C627 O643 1.266 . S
C628 C627 1.514 . S
C628 C629 1.359 . S
C628 C633 1.348 . S
C629 C628 1.359 . S
C629 C630 1.380 . S
C629 H652 0.929 . S
C630 C629 1.380 . S
C630 C631 1.347 . S
C630 H653 0.931 . S
C631 C630 1.347 . S
C631 C632 1.369 . S
C632 C631 1.369 . S
C632 C633 1.408 . S
C632 H654 0.930 . S
C633 C628 1.348 . S
C633 C632 1.408 . S
C633 H655 0.930 . S
C634 O644 1.281 . S
C634 O645 1.254 . S
C635 O646 1.236 . S
C635 O647 1.266 . S
O636 Tb616 2.484 . S
O636 C618 1.248 . S
O637 Tb616 2.440 . S
O637 C618 1.266 . S
O638 Tb616 2.658 . S
O638 Tb617 2.325 . S
O638 C625 1.281 . S
O639 Tb616 2.409 . S
O639 C625 1.254 . S
O640 Tb616 2.378 . S
O640 C626 1.236 . S
O641 Tb617 2.341 . S
O641 C626 1.266 . S
O642 Tb617 2.484 . S
O642 C627 1.248 . S
O643 Tb617 2.440 . S
O643 C627 1.266 . S
O644 Tb616 2.325 . S
O644 Tb617 2.658 . S
O644 C634 1.281 . S
O645 Tb617 2.409 . S
O645 C634 1.254 . S
O646 Tb617 2.378 . S
O646 C635 1.236 . S
O647 Tb616 2.341 . S
O647 C635 1.266 . S
H648 C620 0.929 . S
H649 C621 0.931 . S
H650 C623 0.930 . S
H651 C624 0.930 . S
H652 C629 0.929 . S
H653 C630 0.931 . S
H654 C632 0.930 . S
H655 C633 0.930 . S
Tb656 C658 2.809 . S
Tb656 O676 2.484 . S
Tb656 O677 2.440 . S
Tb656 O678 2.658 . S
Tb656 O679 2.409 . S
Tb656 O680 2.378 1_554 S
Tb656 O684 2.325 . S
Tb656 O687 2.341 . S
Tb657 C667 2.809 . S
Tb657 O678 2.325 . S
Tb657 O681 2.341 1_554 S
Tb657 O682 2.484 . S
Tb657 O683 2.440 . S
Tb657 O684 2.658 . S
Tb657 O685 2.409 . S
Tb657 O686 2.378 . S
C658 Tb656 2.809 . S
C658 C659 1.514 1_554 S
C658 O676 1.248 . S
C658 O677 1.266 . S
C659 C658 1.514 1_556 S
C659 C660 1.359 . S
C659 C664 1.348 . S
C660 C659 1.359 . S
C660 C661 1.380 . S
C660 H688 0.929 . S
C661 C660 1.380 . S
C661 C662 1.347 . S
C661 H689 0.931 . S
C662 C661 1.347 . S
C662 C663 1.369 . S
C663 C662 1.369 . S
C663 C664 1.408 . S
C663 H690 0.930 . S
C664 C659 1.348 . S
C664 C663 1.408 . S
C664 H691 0.930 . S
C665 O678 1.281 . S
C665 O679 1.254 . S
C666 O680 1.236 . S
C666 O681 1.266 . S
C667 Tb657 2.809 . S
C667 C668 1.514 . S
C667 O682 1.248 . S
C667 O683 1.266 . S
C668 C667 1.514 . S
C668 C669 1.359 . S
C668 C673 1.348 . S
C669 C668 1.359 . S
C669 C670 1.380 . S
C669 H692 0.929 . S
C670 C669 1.380 . S
C670 C671 1.347 . S
C670 H693 0.931 . S
C671 C670 1.347 . S
C671 C672 1.369 . S
C672 C671 1.369 . S
C672 C673 1.408 . S
C672 H694 0.930 . S
C673 C668 1.348 . S
C673 C672 1.408 . S
C673 H695 0.930 . S
C674 O684 1.281 . S
C674 O685 1.254 . S
C675 O686 1.236 . S
C675 O687 1.266 . S
O676 Tb656 2.484 . S
O676 C658 1.248 . S
O677 Tb656 2.440 . S
O677 C658 1.266 . S
O678 Tb656 2.658 . S
O678 Tb657 2.325 . S
O678 C665 1.281 . S
O679 Tb656 2.409 . S
O679 C665 1.254 . S
O680 Tb656 2.378 1_556 S
O680 C666 1.236 . S
O681 Tb657 2.341 1_556 S
O681 C666 1.266 . S
O682 Tb657 2.484 . S
O682 C667 1.248 . S
O683 Tb657 2.440 . S
O683 C667 1.266 . S
O684 Tb656 2.325 . S
O684 Tb657 2.658 . S
O684 C674 1.281 . S
O685 Tb657 2.409 . S
O685 C674 1.254 . S
O686 Tb657 2.378 . S
O686 C675 1.236 . S
O687 Tb656 2.341 . S
O687 C675 1.266 . S
H688 C660 0.929 . S
H689 C661 0.931 . S
H690 C663 0.930 . S
H691 C664 0.930 . S
H692 C669 0.929 . S
H693 C670 0.931 . S
H694 C672 0.930 . S
H695 C673 0.930 . S
Tb696 C698 2.809 . S
Tb696 O716 2.484 . S
Tb696 O717 2.440 . S
Tb696 O718 2.658 . S
Tb696 O719 2.409 . S
Tb696 O720 2.378 . S
Tb696 O724 2.325 . S
Tb696 O727 2.341 . S
Tb697 C707 2.809 . S
Tb697 O718 2.325 . S
Tb697 O721 2.341 . S
Tb697 O722 2.484 . S
Tb697 O723 2.440 . S
Tb697 O724 2.658 . S
Tb697 O725 2.409 . S
Tb697 O726 2.378 . S
C698 Tb696 2.809 . S
C698 C699 1.514 . S
C698 O716 1.248 . S
C698 O717 1.266 . S
C699 C698 1.514 . S
C699 C700 1.359 . S
C699 C704 1.348 . S
C700 C699 1.359 . S
C700 C701 1.380 . S
C700 H728 0.929 . S
C701 C700 1.380 . S
C701 C702 1.347 . S
C701 H729 0.931 . S
C702 C701 1.347 . S
C702 C703 1.369 . S
C703 C702 1.369 . S
C703 C704 1.408 . S
C703 H730 0.930 . S
C704 C699 1.348 . S
C704 C703 1.408 . S
C704 H731 0.930 . S
C705 O718 1.281 . S
C705 O719 1.254 . S
C706 O720 1.236 . S
C706 O721 1.266 . S
C707 Tb697 2.809 . S
C707 C708 1.514 . S
C707 O722 1.248 . S
C707 O723 1.266 . S
C708 C707 1.514 . S
C708 C709 1.359 . S
C708 C713 1.348 . S
C709 C708 1.359 . S
C709 C710 1.380 . S
C709 H732 0.929 . S
C710 C709 1.380 . S
C710 C711 1.347 . S
C710 H733 0.931 . S
C711 C710 1.347 . S
C711 C712 1.369 . S
C712 C711 1.369 . S
C712 C713 1.408 . S
C712 H734 0.930 . S
C713 C708 1.348 . S
C713 C712 1.408 . S
C713 H735 0.930 . S
C714 O724 1.281 . S
C714 O725 1.254 . S
C715 O726 1.236 . S
C715 O727 1.266 . S
O716 Tb696 2.484 . S
O716 C698 1.248 . S
O717 Tb696 2.440 . S
O717 C698 1.266 . S
O718 Tb696 2.658 . S
O718 Tb697 2.325 . S
O718 C705 1.281 . S
O719 Tb696 2.409 . S
O719 C705 1.254 . S
O720 Tb696 2.378 . S
O720 C706 1.236 . S
O721 Tb697 2.341 . S
O721 C706 1.266 . S
O722 Tb697 2.484 . S
O722 C707 1.248 . S
O723 Tb697 2.440 . S
O723 C707 1.266 . S
O724 Tb696 2.325 . S
O724 Tb697 2.658 . S
O724 C714 1.281 . S
O725 Tb697 2.409 . S
O725 C714 1.254 . S
O726 Tb697 2.378 . S
O726 C715 1.236 . S
O727 Tb696 2.341 . S
O727 C715 1.266 . S
H728 C700 0.929 . S
H729 C701 0.931 . S
H730 C703 0.930 . S
H731 C704 0.930 . S
H732 C709 0.929 . S
H733 C710 0.931 . S
H734 C712 0.930 . S
H735 C713 0.930 . S
Tb736 C738 2.829 . S
Tb736 O756 2.498 . S
Tb736 O757 2.462 . S
Tb736 O758 2.644 1_655 S
Tb736 O759 2.412 1_655 S
Tb736 O760 2.382 . S
Tb736 O764 2.310 1_655 S
Tb736 O767 2.324 1_655 S
Tb737 C747 2.809 . S
Tb737 O758 2.325 . S
Tb737 O761 2.341 . S
Tb737 O762 2.484 . S
Tb737 O763 2.440 . S
Tb737 O764 2.658 . S
Tb737 O765 2.409 . S
Tb737 O766 2.378 . S
C738 Tb736 2.829 . S
C738 C739 1.514 . S
C738 O756 1.248 . S
C738 O757 1.266 . S
C739 C738 1.514 . S
C739 C740 1.359 . S
C739 C744 1.348 . S
C740 C739 1.359 . S
C740 C741 1.380 . S
C740 H768 0.929 . S
C741 C740 1.380 . S
C741 C742 1.347 . S
C741 H769 0.931 . S
C742 C741 1.347 . S
C742 C743 1.369 . S
C743 C742 1.369 . S
C743 C744 1.408 . S
C743 H770 0.930 . S
C744 C739 1.348 . S
C744 C743 1.408 . S
C744 H771 0.930 . S
C745 O758 1.281 . S
C745 O759 1.254 . S
C746 O760 1.236 1_455 S
C746 O761 1.266 . S
C747 Tb737 2.809 . S
C747 C748 1.514 . S
C747 O762 1.248 . S
C747 O763 1.266 . S
C748 C747 1.514 . S
C748 C749 1.359 . S
C748 C753 1.348 . S
C749 C748 1.359 . S
C749 C750 1.380 . S
C749 H772 0.929 . S
C750 C749 1.380 . S
C750 C751 1.347 . S
C750 H773 0.931 . S
C751 C750 1.347 . S
C751 C752 1.369 . S
C752 C751 1.369 . S
C752 C753 1.408 . S
C752 H774 0.930 . S
C753 C748 1.348 . S
C753 C752 1.408 . S
C753 H775 0.930 . S
C754 O764 1.281 . S
C754 O765 1.254 . S
C755 O766 1.236 . S
C755 O767 1.266 . S
O756 Tb736 2.498 . S
O756 C738 1.248 . S
O757 Tb736 2.462 . S
O757 C738 1.266 . S
O758 Tb736 2.644 1_455 S
O758 Tb737 2.325 . S
O758 C745 1.281 . S
O759 Tb736 2.412 1_455 S
O759 C745 1.254 . S
O760 Tb736 2.382 . S
O760 C746 1.236 1_655 S
O761 Tb737 2.341 . S
O761 C746 1.266 . S
O762 Tb737 2.484 . S
O762 C747 1.248 . S
O763 Tb737 2.440 . S
O763 C747 1.266 . S
O764 Tb736 2.310 1_455 S
O764 Tb737 2.658 . S
O764 C754 1.281 . S
O765 Tb737 2.409 . S
O765 C754 1.254 . S
O766 Tb737 2.378 . S
O766 C755 1.236 . S
O767 Tb736 2.324 1_455 S
O767 C755 1.266 . S
H768 C740 0.929 . S
H769 C741 0.931 . S
H770 C743 0.930 . S
H771 C744 0.930 . S
H772 C749 0.929 . S
H773 C750 0.931 . S
H774 C752 0.930 . S
H775 C753 0.930 . S
Tb776 C778 2.809 . S
Tb776 O796 2.484 . S
Tb776 O797 2.440 . S
Tb776 O798 2.658 . S
Tb776 O799 2.409 . S
Tb776 O800 2.378 . S
Tb776 O804 2.325 . S
Tb776 O807 2.341 . S
Tb777 C787 2.809 . S
Tb777 O798 2.325 . S
Tb777 O801 2.341 . S
Tb777 O802 2.484 . S
Tb777 O803 2.440 . S
Tb777 O804 2.658 . S
Tb777 O805 2.409 . S
Tb777 O806 2.378 . S
C778 Tb776 2.809 . S
C778 C779 1.514 . S
C778 O796 1.248 . S
C778 O797 1.266 . S
C779 C778 1.514 . S
C779 C780 1.359 . S
C779 C784 1.348 . S
C780 C779 1.359 . S
C780 C781 1.380 . S
C780 H808 0.929 . S
C781 C780 1.380 . S
C781 C782 1.347 . S
C781 H809 0.931 . S
C782 C781 1.347 . S
C782 C783 1.369 . S
C783 C782 1.369 . S
C783 C784 1.408 . S
C783 H810 0.930 . S
C784 C779 1.348 . S
C784 C783 1.408 . S
C784 H811 0.930 . S
C785 O798 1.281 . S
C785 O799 1.254 . S
C786 O800 1.236 . S
C786 O801 1.266 . S
C787 Tb777 2.809 . S
C787 C788 1.514 . S
C787 O802 1.248 . S
C787 O803 1.266 . S
C788 C787 1.514 . S
C788 C789 1.359 . S
C788 C793 1.348 . S
C789 C788 1.359 . S
C789 C790 1.380 . S
C789 H812 0.929 . S
C790 C789 1.380 . S
C790 C791 1.347 . S
C790 H813 0.931 . S
C791 C790 1.347 . S
C791 C792 1.369 . S
C792 C791 1.369 . S
C792 C793 1.408 . S
C792 H814 0.930 . S
C793 C788 1.348 . S
C793 C792 1.408 . S
C793 H815 0.930 . S
C794 O804 1.281 . S
C794 O805 1.254 . S
C795 O806 1.236 . S
C795 O807 1.266 . S
O796 Tb776 2.484 . S
O796 C778 1.248 . S
O797 Tb776 2.440 . S
O797 C778 1.266 . S
O798 Tb776 2.658 . S
O798 Tb777 2.325 . S
O798 C785 1.281 . S
O799 Tb776 2.409 . S
O799 C785 1.254 . S
O800 Tb776 2.378 . S
O800 C786 1.236 . S
O801 Tb777 2.341 . S
O801 C786 1.266 . S
O802 Tb777 2.484 . S
O802 C787 1.248 . S
O803 Tb777 2.440 . S
O803 C787 1.266 . S
O804 Tb776 2.325 . S
O804 Tb777 2.658 . S
O804 C794 1.281 . S
O805 Tb777 2.409 . S
O805 C794 1.254 . S
O806 Tb777 2.378 . S
O806 C795 1.236 . S
O807 Tb776 2.341 . S
O807 C795 1.266 . S
H808 C780 0.929 . S
H809 C781 0.931 . S
H810 C783 0.930 . S
H811 C784 0.930 . S
H812 C789 0.929 . S
H813 C790 0.931 . S
H814 C792 0.930 . S
H815 C793 0.930 . S
Tb816 C818 2.809 . S
Tb816 O836 2.484 . S
Tb816 O837 2.440 . S
Tb816 O838 2.658 . S
Tb816 O839 2.409 . S
Tb816 O840 2.378 . S
Tb816 O844 2.325 . S
Tb816 O847 2.341 . S
Tb817 C827 2.809 . S
Tb817 O838 2.325 . S
Tb817 O841 2.341 . S
Tb817 O842 2.484 . S
Tb817 O843 2.440 . S
Tb817 O844 2.658 . S
Tb817 O845 2.409 . S
Tb817 O846 2.378 . S
C818 Tb816 2.809 . S
C818 C819 1.514 . S
C818 O836 1.248 . S
C818 O837 1.266 . S
C819 C818 1.514 . S
C819 C820 1.359 . S
C819 C824 1.348 . S
C820 C819 1.359 . S
C820 C821 1.380 . S
C820 H848 0.929 . S
C821 C820 1.380 . S
C821 C822 1.347 . S
C821 H849 0.931 . S
C822 C821 1.347 . S
C822 C823 1.369 . S
C823 C822 1.369 . S
C823 C824 1.408 . S
C823 H850 0.930 . S
C824 C819 1.348 . S
C824 C823 1.408 . S
C824 H851 0.930 . S
C825 O838 1.281 . S
C825 O839 1.254 . S
C826 O840 1.236 . S
C826 O841 1.266 . S
C827 Tb817 2.809 . S
C827 C828 1.514 . S
C827 O842 1.248 . S
C827 O843 1.266 . S
C828 C827 1.514 . S
C828 C829 1.359 . S
C828 C833 1.348 . S
C829 C828 1.359 . S
C829 C830 1.380 . S
C829 H852 0.929 . S
C830 C829 1.380 . S
C830 C831 1.347 . S
C830 H853 0.931 . S
C831 C830 1.347 . S
C831 C832 1.369 . S
C832 C831 1.369 . S
C832 C833 1.408 . S
C832 H854 0.930 . S
C833 C828 1.348 . S
C833 C832 1.408 . S
C833 H855 0.930 . S
C834 O844 1.281 . S
C834 O845 1.254 . S
C835 O846 1.236 . S
C835 O847 1.266 . S
O836 Tb816 2.484 . S
O836 C818 1.248 . S
O837 Tb816 2.440 . S
O837 C818 1.266 . S
O838 Tb816 2.658 . S
O838 Tb817 2.325 . S
O838 C825 1.281 . S
O839 Tb816 2.409 . S
O839 C825 1.254 . S
O840 Tb816 2.378 . S
O840 C826 1.236 . S
O841 Tb817 2.341 . S
O841 C826 1.266 . S
O842 Tb817 2.484 . S
O842 C827 1.248 . S
O843 Tb817 2.440 . S
O843 C827 1.266 . S
O844 Tb816 2.325 . S
O844 Tb817 2.658 . S
O844 C834 1.281 . S
O845 Tb817 2.409 . S
O845 C834 1.254 . S
O846 Tb817 2.378 . S
O846 C835 1.236 . S
O847 Tb816 2.341 . S
O847 C835 1.266 . S
H848 C820 0.929 . S
H849 C821 0.931 . S
H850 C823 0.930 . S
H851 C824 0.930 . S
H852 C829 0.929 . S
H853 C830 0.931 . S
H854 C832 0.930 . S
H855 C833 0.930 . S
Tb856 C858 2.809 . S
Tb856 O876 2.484 . S
Tb856 O877 2.440 . S
Tb856 O878 2.658 . S
Tb856 O879 2.409 . S
Tb856 O880 2.378 . S
Tb856 O884 2.325 . S
Tb856 O887 2.341 . S
Tb857 C867 2.809 . S
Tb857 O878 2.325 . S
Tb857 O881 2.341 . S
Tb857 O882 2.484 . S
Tb857 O883 2.440 . S
Tb857 O884 2.658 . S
Tb857 O885 2.409 . S
Tb857 O886 2.378 . S
C858 Tb856 2.809 . S
C858 C859 1.514 . S
C858 O876 1.248 . S
C858 O877 1.266 . S
C859 C858 1.514 . S
C859 C860 1.359 . S
C859 C864 1.348 . S
C860 C859 1.359 . S
C860 C861 1.380 . S
C860 H888 0.929 . S
C861 C860 1.380 . S
C861 C862 1.347 . S
C861 H889 0.931 . S
C862 C861 1.347 . S
C862 C863 1.369 . S
C863 C862 1.369 . S
C863 C864 1.408 . S
C863 H890 0.930 . S
C864 C859 1.348 . S
C864 C863 1.408 . S
C864 H891 0.930 . S
C865 O878 1.281 . S
C865 O879 1.254 . S
C866 O880 1.236 . S
C866 O881 1.266 . S
C867 Tb857 2.809 . S
C867 C868 1.514 . S
C867 O882 1.248 . S
C867 O883 1.266 . S
C868 C867 1.514 . S
C868 C869 1.359 . S
C868 C873 1.348 . S
C869 C868 1.359 . S
C869 C870 1.380 . S
C869 H892 0.929 . S
C870 C869 1.380 . S
C870 C871 1.347 . S
C870 H893 0.931 . S
C871 C870 1.347 . S
C871 C872 1.369 . S
C872 C871 1.369 . S
C872 C873 1.408 . S
C872 H894 0.930 . S
C873 C868 1.348 . S
C873 C872 1.408 . S
C873 H895 0.930 . S
C874 O884 1.281 . S
C874 O885 1.254 . S
C875 O886 1.236 . S
C875 O887 1.266 . S
O876 Tb856 2.484 . S
O876 C858 1.248 . S
O877 Tb856 2.440 . S
O877 C858 1.266 . S
O878 Tb856 2.658 . S
O878 Tb857 2.325 . S
O878 C865 1.281 . S
O879 Tb856 2.409 . S
O879 C865 1.254 . S
O880 Tb856 2.378 . S
O880 C866 1.236 . S
O881 Tb857 2.341 . S
O881 C866 1.266 . S
O882 Tb857 2.484 . S
O882 C867 1.248 . S
O883 Tb857 2.440 . S
O883 C867 1.266 . S
O884 Tb856 2.325 . S
O884 Tb857 2.658 . S
O884 C874 1.281 . S
O885 Tb857 2.409 . S
O885 C874 1.254 . S
O886 Tb857 2.378 . S
O886 C875 1.236 . S
O887 Tb856 2.341 . S
O887 C875 1.266 . S
H888 C860 0.929 . S
H889 C861 0.931 . S
H890 C863 0.930 . S
H891 C864 0.930 . S
H892 C869 0.929 . S
H893 C870 0.931 . S
H894 C872 0.930 . S
H895 C873 0.930 . S
Tb896 C898 2.809 . S
Tb896 O916 2.484 . S
Tb896 O917 2.440 . S
Tb896 O918 2.658 . S
Tb896 O919 2.409 . S
Tb896 O920 2.378 . S
Tb896 O924 2.325 . S
Tb896 O927 2.341 . S
Tb897 C907 2.809 . S
Tb897 O918 2.325 . S
Tb897 O921 2.341 . S
Tb897 O922 2.484 . S
Tb897 O923 2.440 . S
Tb897 O924 2.658 . S
Tb897 O925 2.409 . S
Tb897 O926 2.378 . S
C898 Tb896 2.809 . S
C898 C899 1.514 . S
C898 O916 1.248 . S
C898 O917 1.266 . S
C899 C898 1.514 . S
C899 C900 1.359 . S
C899 C904 1.348 . S
C900 C899 1.359 . S
C900 C901 1.380 . S
C900 H928 0.929 . S
C901 C900 1.380 . S
C901 C902 1.347 . S
C901 H929 0.931 . S
C902 C901 1.347 . S
C902 C903 1.369 . S
C903 C902 1.369 . S
C903 C904 1.408 . S
C903 H930 0.930 . S
C904 C899 1.348 . S
C904 C903 1.408 . S
C904 H931 0.930 . S
C905 O918 1.281 . S
C905 O919 1.254 . S
C906 O920 1.236 . S
C906 O921 1.266 . S
C907 Tb897 2.809 . S
C907 C908 1.514 . S
C907 O922 1.248 . S
C907 O923 1.266 . S
C908 C907 1.514 . S
C908 C909 1.359 . S
C908 C913 1.348 . S
C909 C908 1.359 . S
C909 C910 1.380 . S
C909 H932 0.929 . S
C910 C909 1.380 . S
C910 C911 1.347 . S
C910 H933 0.931 . S
C911 C910 1.347 . S
C911 C912 1.369 . S
C912 C911 1.369 . S
C912 C913 1.408 . S
C912 H934 0.930 . S
C913 C908 1.348 . S
C913 C912 1.408 . S
C913 H935 0.930 . S
C914 O924 1.281 . S
C914 O925 1.254 . S
C915 O926 1.236 . S
C915 O927 1.266 . S
O916 Tb896 2.484 . S
O916 C898 1.248 . S
O917 Tb896 2.440 . S
O917 C898 1.266 . S
O918 Tb896 2.658 . S
O918 Tb897 2.325 . S
O918 C905 1.281 . S
O919 Tb896 2.409 . S
O919 C905 1.254 . S
O920 Tb896 2.378 . S
O920 C906 1.236 . S
O921 Tb897 2.341 . S
O921 C906 1.266 . S
O922 Tb897 2.484 . S
O922 C907 1.248 . S
O923 Tb897 2.440 . S
O923 C907 1.266 . S
O924 Tb896 2.325 . S
O924 Tb897 2.658 . S
O924 C914 1.281 . S
O925 Tb897 2.409 . S
O925 C914 1.254 . S
O926 Tb897 2.378 . S
O926 C915 1.236 . S
O927 Tb896 2.341 . S
O927 C915 1.266 . S
H928 C900 0.929 . S
H929 C901 0.931 . S
H930 C903 0.930 . S
H931 C904 0.930 . S
H932 C909 0.929 . S
H933 C910 0.931 . S
H934 C912 0.930 . S
H935 C913 0.930 . S
Tb936 C938 2.809 . S
Tb936 O956 2.484 . S
Tb936 O957 2.410 1_554 S
Tb936 O958 2.658 . S
Tb936 O959 2.409 1_554 S
Tb936 O960 2.378 . S
Tb936 O964 2.325 . S
Tb936 O967 2.341 . S
Tb937 C947 2.809 1_455 S
Tb937 O958 2.325 . S
Tb937 O961 2.341 . S
Tb937 O962 2.484 1_455 S
Tb937 O963 2.440 1_455 S
Tb937 O964 2.658 . S
Tb937 O965 2.409 . S
Tb937 O966 2.378 . S
C938 Tb936 2.809 . S
C938 C939 1.514 . S
C938 O956 1.248 . S
C938 O957 1.228 1_554 S
C939 C938 1.514 . S
C939 C940 1.359 . S
C939 C944 1.348 1_554 S
C940 C939 1.359 . S
C940 C941 1.380 . S
C940 H968 0.929 . S
C941 C940 1.380 . S
C941 C942 1.347 . S
C941 H969 0.931 . S
C942 C941 1.347 . S
C942 C943 1.369 1_554 S
C943 C942 1.369 1_556 S
C943 C944 1.408 . S
C943 H970 0.930 . S
C944 C939 1.348 1_556 S
C944 C943 1.408 . S
C944 H971 0.930 . S
C945 O958 1.281 1_556 S
C945 O959 1.254 . S
C946 O960 1.236 . S
C946 O961 1.266 . S
C947 Tb937 2.809 1_655 S
C947 C948 1.514 . S
C947 O962 1.248 . S
C947 O963 1.266 . S
C948 C947 1.514 . S
C948 C949 1.359 . S
C948 C953 1.348 . S
C949 C948 1.359 . S
C949 C950 1.380 . S
C949 H972 0.929 . S
C950 C949 1.380 . S
C950 C951 1.347 . S
C950 H973 0.931 . S
C951 C950 1.347 . S
C951 C952 1.369 . S
C952 C951 1.369 . S
C952 C953 1.408 . S
C952 H974 0.930 . S
C953 C948 1.348 . S
C953 C952 1.408 . S
C953 H975 0.930 . S
C954 O964 1.281 . S
C954 O965 1.254 . S
C955 O966 1.236 . S
C955 O967 1.266 . S
O956 Tb936 2.484 . S
O956 C938 1.248 . S
O957 Tb936 2.410 1_556 S
O957 C938 1.228 1_556 S
O958 Tb936 2.658 . S
O958 Tb937 2.325 . S
O958 C945 1.281 1_554 S
O959 Tb936 2.409 1_556 S
O959 C945 1.254 . S
O960 Tb936 2.378 . S
O960 C946 1.236 . S
O961 Tb937 2.341 . S
O961 C946 1.266 . S
O962 Tb937 2.484 1_655 S
O962 C947 1.248 . S
O963 Tb937 2.440 1_655 S
O963 C947 1.266 . S
O964 Tb936 2.325 . S
O964 Tb937 2.658 . S
O964 C954 1.281 . S
O965 Tb937 2.409 . S
O965 C954 1.254 . S
O966 Tb937 2.378 . S
O966 C955 1.236 . S
O967 Tb936 2.341 . S
O967 C955 1.266 . S
H968 C940 0.929 . S
H969 C941 0.931 . S
H970 C943 0.930 . S
H971 C944 0.930 . S
H972 C949 0.929 . S
H973 C950 0.931 . S
H974 C952 0.930 . S
H975 C953 0.930 . S
H976 C994 0.951 . S
H977 C996 0.951 . S
H978 C998 0.950 . S
H979 C999 0.950 . S
H980 C1001 0.950 . S
H981 C1004 0.950 . S
H982 C1005 0.950 . S
H983 C1007 0.950 . S
H984 C1008 0.950 . S
H985 C1009 0.951 . S
H986 C1011 0.930 1_655 S
H987 C1013 0.950 . S
H988 C1014 0.950 . S
H989 C1016 0.950 . S
H990 C1019 0.950 . S
H991 C1020 0.950 . S
H992 C1022 0.950 . S
H993 C1023 0.950 . S
C994 H976 0.951 . S
C994 C995 1.366 . S
C994 C996 1.388 . S
C995 C994 1.366 . S
C995 C999 1.385 1_455 S
C996 H977 0.951 . S
C996 C994 1.388 . S
C996 C997 1.366 . S
C997 C996 1.366 . S
C997 C998 1.414 1_455 S
C997 C1000 1.499 . S
C998 H978 0.950 . S
C998 C997 1.414 1_655 S
C998 C999 1.374 . S
C999 H979 0.950 . S
C999 C995 1.385 1_655 S
C999 C998 1.374 . S
C1000 C997 1.499 . S
C1000 C1001 1.373 . S
C1000 C1002 1.389 . S
C1001 H980 0.950 . S
C1001 C1000 1.373 . S
C1001 C1017 1.377 1_556 S
C1002 C1000 1.389 . S
C1002 C1003 1.524 . S
C1002 C1016 1.377 . S
C1003 C1002 1.524 . S
C1003 C1004 1.397 . S
C1003 C1008 1.363 . S
C1004 H981 0.950 . S
C1004 C1003 1.397 . S
C1004 C1005 1.334 . S
C1005 H982 0.950 . S
C1005 C1004 1.334 . S
C1005 C1006 1.287 . S
C1006 C1005 1.287 . S
C1006 C1007 1.524 . S
C1006 H1025 0.913 . S
C1007 H983 0.950 . S
C1007 C1006 1.524 . S
C1007 C1008 1.415 . S
C1008 H984 0.950 . S
C1008 C1003 1.363 . S
C1008 C1007 1.415 . S
C1009 H985 0.951 . S
C1009 C1010 1.366 . S
C1009 C1011 1.388 . S
C1010 C1009 1.366 . S
C1010 C1014 1.385 . S
C1011 H986 0.930 1_455 S
C1011 C1009 1.388 . S
C1011 C1012 1.366 . S
C1012 C1011 1.366 . S
C1012 C1013 1.414 . S
C1012 C1015 1.499 1_554 S
C1013 H987 0.950 . S
C1013 C1012 1.414 . S
C1013 C1014 1.374 . S
C1014 H988 0.950 . S
C1014 C1010 1.385 . S
C1014 C1013 1.374 . S
C1015 C1012 1.499 1_556 S
C1015 C1016 1.373 . S
C1015 C1017 1.389 1_556 S
C1016 H989 0.950 . S
C1016 C1002 1.377 . S
C1016 C1015 1.373 . S
C1017 C1001 1.377 1_554 S
C1017 C1015 1.389 1_554 S
C1017 C1018 1.524 . S
C1018 C1017 1.524 . S
C1018 C1019 1.397 . S
C1018 C1023 1.363 1_455 S
C1019 H990 0.950 . S
C1019 C1018 1.397 . S
C1019 C1020 1.334 . S
C1020 H991 0.950 . S
C1020 C1019 1.334 . S
C1020 C1021 1.287 1_455 S
C1021 C1020 1.287 1_655 S
C1021 C1022 1.524 . S
C1021 H1024 0.999 . S
C1022 H992 0.950 . S
C1022 C1021 1.524 . S
C1022 C1023 1.415 . S
C1023 H993 0.950 . S
C1023 C1018 1.363 1_655 S
C1023 C1022 1.415 . S
H1024 C1021 0.999 . S
H1025 C1006 0.913 . S
H1026 C1044 0.951 . S
H1027 C1046 0.951 . S
H1028 C1048 0.950 . S
H1029 C1049 0.950 . S
H1030 C1051 0.950 . S
H1031 C1054 0.950 . S
H1032 C1055 0.950 . S
H1033 C1057 0.950 . S
H1034 C1058 0.950 . S
H1035 C1059 0.951 . S
H1036 C1061 0.951 . S
H1037 C1063 0.950 . S
H1038 C1064 0.950 . S
H1039 C1066 0.950 . S
H1040 C1069 0.950 . S
H1041 C1070 0.950 . S
H1042 C1072 0.950 . S
H1043 C1073 0.950 . S
C1044 H1026 0.951 . S
C1044 C1045 1.366 . S
C1044 C1046 1.388 . S
C1045 C1044 1.366 . S
C1045 C1049 1.385 . S
C1046 H1027 0.951 . S
C1046 C1044 1.388 . S
C1046 C1047 1.366 . S
C1047 C1046 1.366 . S
C1047 C1048 1.414 . S
C1047 C1050 1.499 . S
C1048 H1028 0.950 . S
C1048 C1047 1.414 . S
C1048 C1049 1.374 . S
C1049 H1029 0.950 . S
C1049 C1045 1.385 . S
C1049 C1048 1.374 . S
C1050 C1047 1.499 . S
C1050 C1051 1.373 . S
C1050 C1052 1.389 . S
C1051 H1030 0.950 . S
C1051 C1050 1.373 . S
C1051 C1067 1.377 . S
C1052 C1050 1.389 . S
C1052 C1053 1.524 . S
C1052 C1066 1.377 . S
C1053 C1052 1.524 . S
C1053 C1054 1.397 . S
C1053 C1058 1.363 . S
C1054 H1031 0.950 . S
C1054 C1053 1.397 . S
C1054 C1055 1.334 . S
C1055 H1032 0.950 . S
C1055 C1054 1.334 . S
C1055 C1056 1.287 . S
C1056 C1055 1.287 . S
C1056 C1057 1.524 . S
C1056 H1075 0.913 . S
C1057 H1033 0.950 . S
C1057 C1056 1.524 . S
C1057 C1058 1.415 . S
C1058 H1034 0.950 . S
C1058 C1053 1.363 . S
C1058 C1057 1.415 . S
C1059 H1035 0.951 . S
C1059 C1060 1.366 . S
C1059 C1061 1.388 . S
C1060 C1059 1.366 . S
C1060 C1064 1.385 . S
C1061 H1036 0.951 . S
C1061 C1059 1.388 . S
C1061 C1062 1.366 . S
C1062 C1061 1.366 . S
C1062 C1063 1.414 . S
C1062 C1065 1.499 . S
C1063 H1037 0.950 . S
C1063 C1062 1.414 . S
C1063 C1064 1.374 . S
C1064 H1038 0.950 . S
C1064 C1060 1.385 . S
C1064 C1063 1.374 . S
C1065 C1062 1.499 . S
C1065 C1066 1.373 . S
C1065 C1067 1.389 . S
C1066 H1039 0.950 . S
C1066 C1052 1.377 . S
C1066 C1065 1.373 . S
C1067 C1051 1.377 . S
C1067 C1065 1.389 . S
C1067 C1068 1.524 . S
C1068 C1067 1.524 . S
C1068 C1069 1.397 . S
C1068 C1073 1.363 . S
C1069 H1040 0.950 . S
C1069 C1068 1.397 . S
C1069 C1070 1.334 . S
C1070 H1041 0.950 . S
C1070 C1069 1.334 . S
C1070 C1071 1.287 . S
C1071 C1070 1.287 . S
C1071 C1072 1.524 . S
C1071 H1074 0.999 . S
C1072 H1042 0.950 . S
C1072 C1071 1.524 . S
C1072 C1073 1.415 . S
C1073 H1043 0.950 . S
C1073 C1068 1.363 . S
C1073 C1072 1.415 . S
H1074 C1071 0.999 . S
H1075 C1056 0.913 . S
H1076 C1094 0.951 . S
H1077 C1096 0.951 . S
H1078 C1098 0.950 . S
H1079 C1099 0.950 . S
H1080 C1101 0.950 . S
H1081 C1104 0.950 . S
H1082 C1105 0.950 . S
H1083 C1107 0.950 . S
H1084 C1108 0.950 . S
H1085 C1109 0.951 . S
H1086 C1111 0.951 . S
H1087 C1113 0.950 . S
H1088 C1114 0.950 . S
H1089 C1116 0.950 . S
H1090 C1119 0.950 . S
H1091 C1120 0.950 . S
H1092 C1122 0.950 . S
H1093 C1123 0.950 . S
C1094 H1076 0.951 . S
C1094 C1095 1.366 . S
C1094 C1096 1.388 . S
C1095 C1094 1.366 . S
C1095 C1099 1.385 . S
C1096 H1077 0.951 . S
C1096 C1094 1.388 . S
C1096 C1097 1.366 . S
C1097 C1096 1.366 . S
C1097 C1098 1.414 . S
C1097 C1100 1.499 . S
C1098 H1078 0.950 . S
C1098 C1097 1.414 . S
C1098 C1099 1.374 . S
C1099 H1079 0.950 . S
C1099 C1095 1.385 . S
C1099 C1098 1.374 . S
C1100 C1097 1.499 . S
C1100 C1101 1.373 . S
C1100 C1102 1.389 . S
C1101 H1080 0.950 . S
C1101 C1100 1.373 . S
C1101 C1117 1.377 . S
C1102 C1100 1.389 . S
C1102 C1103 1.524 . S
C1102 C1116 1.377 . S
C1103 C1102 1.524 . S
C1103 C1104 1.397 . S
C1103 C1108 1.363 . S
C1104 H1081 0.950 . S
C1104 C1103 1.397 . S
C1104 C1105 1.334 . S
C1105 H1082 0.950 . S
C1105 C1104 1.334 . S
C1105 C1106 1.287 . S
C1106 C1105 1.287 . S
C1106 C1107 1.524 . S
C1106 H1125 0.913 . S
C1107 H1083 0.950 . S
C1107 C1106 1.524 . S
C1107 C1108 1.415 . S
C1108 H1084 0.950 . S
C1108 C1103 1.363 . S
C1108 C1107 1.415 . S
C1109 H1085 0.951 . S
C1109 C1110 1.366 . S
C1109 C1111 1.388 . S
C1110 C1109 1.366 . S
C1110 C1114 1.385 . S
C1111 H1086 0.951 . S
C1111 C1109 1.388 . S
C1111 C1112 1.366 . S
C1112 C1111 1.366 . S
C1112 C1113 1.414 . S
C1112 C1115 1.499 . S
C1113 H1087 0.950 . S
C1113 C1112 1.414 . S
C1113 C1114 1.374 . S
C1114 H1088 0.950 . S
C1114 C1110 1.385 . S
C1114 C1113 1.374 . S
C1115 C1112 1.499 . S
C1115 C1116 1.373 . S
C1115 C1117 1.389 . S
C1116 H1089 0.950 . S
C1116 C1102 1.377 . S
C1116 C1115 1.373 . S
C1117 C1101 1.377 . S
C1117 C1115 1.389 . S
C1117 C1118 1.524 . S
C1118 C1117 1.524 . S
C1118 C1119 1.397 . S
C1118 C1123 1.363 . S
C1119 H1090 0.950 . S
C1119 C1118 1.397 . S
C1119 C1120 1.334 . S
C1120 H1091 0.950 . S
C1120 C1119 1.334 . S
C1120 C1121 1.287 . S
C1121 C1120 1.287 . S
C1121 C1122 1.524 . S
C1121 H1124 0.999 . S
C1122 H1092 0.950 . S
C1122 C1121 1.524 . S
C1122 C1123 1.415 . S
C1123 H1093 0.950 . S
C1123 C1118 1.363 . S
C1123 C1122 1.415 . S
H1124 C1121 0.999 . S
H1125 C1106 0.913 . S
H1126 C1144 0.951 . S
H1127 C1146 0.951 . S
H1128 C1148 0.950 . S
H1129 C1149 0.950 . S
H1130 C1151 0.950 . S
H1131 C1154 0.950 . S
H1132 C1155 0.950 . S
H1133 C1157 0.950 . S
H1134 C1158 0.950 . S
H1135 C1159 0.951 . S
H1136 C1161 0.951 . S
H1137 C1163 0.950 . S
H1138 C1164 0.950 . S
H1139 C1166 0.950 . S
H1140 C1169 0.950 . S
H1141 C1170 0.950 . S
H1142 C1172 0.950 . S
H1143 C1173 0.950 . S
C1144 H1126 0.951 . S
C1144 C1145 1.366 . S
C1144 C1146 1.388 . S
C1145 C1144 1.366 . S
C1145 C1149 1.385 . S
C1146 H1127 0.951 . S
C1146 C1144 1.388 . S
C1146 C1147 1.366 . S
C1147 C1146 1.366 . S
C1147 C1148 1.414 . S
C1147 C1150 1.499 . S
C1148 H1128 0.950 . S
C1148 C1147 1.414 . S
C1148 C1149 1.374 . S
C1149 H1129 0.950 . S
C1149 C1145 1.385 . S
C1149 C1148 1.374 . S
C1150 C1147 1.499 . S
C1150 C1151 1.373 . S
C1150 C1152 1.389 . S
C1151 H1130 0.950 . S
C1151 C1150 1.373 . S
C1151 C1167 1.377 . S
C1152 C1150 1.389 . S
C1152 C1153 1.524 . S
C1152 C1166 1.377 . S
C1153 C1152 1.524 . S
C1153 C1154 1.397 . S
C1153 C1158 1.363 . S
C1154 H1131 0.950 . S
C1154 C1153 1.397 . S
C1154 C1155 1.334 . S
C1155 H1132 0.950 . S
C1155 C1154 1.334 . S
C1155 C1156 1.287 . S
C1156 C1155 1.287 . S
C1156 C1157 1.524 . S
C1156 H1175 0.913 . S
C1157 H1133 0.950 . S
C1157 C1156 1.524 . S
C1157 C1158 1.415 . S
C1158 H1134 0.950 . S
C1158 C1153 1.363 . S
C1158 C1157 1.415 . S
C1159 H1135 0.951 . S
C1159 C1160 1.366 . S
C1159 C1161 1.388 . S
C1160 C1159 1.366 . S
C1160 C1164 1.385 . S
C1161 H1136 0.951 . S
C1161 C1159 1.388 . S
C1161 C1162 1.366 . S
C1162 C1161 1.366 . S
C1162 C1163 1.414 . S
C1162 C1165 1.499 . S
C1163 H1137 0.950 . S
C1163 C1162 1.414 . S
C1163 C1164 1.374 . S
C1164 H1138 0.950 . S
C1164 C1160 1.385 . S
C1164 C1163 1.374 . S
C1165 C1162 1.499 . S
C1165 C1166 1.373 . S
C1165 C1167 1.389 . S
C1166 H1139 0.950 . S
C1166 C1152 1.377 . S
C1166 C1165 1.373 . S
C1167 C1151 1.377 . S
C1167 C1165 1.389 . S
C1167 C1168 1.524 . S
C1168 C1167 1.524 . S
C1168 C1169 1.397 . S
C1168 C1173 1.363 . S
C1169 H1140 0.950 . S
C1169 C1168 1.397 . S
C1169 C1170 1.334 . S
C1170 H1141 0.950 . S
C1170 C1169 1.334 . S
C1170 C1171 1.287 . S
C1171 C1170 1.287 . S
C1171 C1172 1.524 . S
C1171 H1174 0.999 . S
C1172 H1142 0.950 . S
C1172 C1171 1.524 . S
C1172 C1173 1.415 . S
C1173 H1143 0.950 . S
C1173 C1168 1.363 . S
C1173 C1172 1.415 . S
H1174 C1171 0.999 . S
H1175 C1156 0.913 . S
H1176 C1194 0.951 . S
H1177 C1196 0.951 . S
H1178 C1198 0.950 . S
H1179 C1199 0.950 . S
H1180 C1201 0.950 . S
H1181 C1204 0.950 . S
H1182 C1205 0.950 . S
H1183 C1207 0.950 . S
H1184 C1208 0.950 . S
H1185 C1209 0.951 . S
H1186 C1211 0.951 . S
H1187 C1213 0.950 . S
H1188 C1214 0.950 . S
H1189 C1216 0.950 . S
H1190 C1219 0.950 . S
H1191 C1220 0.950 . S
H1192 C1222 0.950 . S
H1193 C1223 0.950 . S
C1194 H1176 0.951 . S
C1194 C1195 1.366 . S
C1194 C1196 1.388 . S
C1195 C1194 1.366 . S
C1195 C1199 1.385 . S
C1196 H1177 0.951 . S
C1196 C1194 1.388 . S
C1196 C1197 1.366 . S
C1197 C1196 1.366 . S
C1197 C1198 1.414 . S
C1197 C1200 1.499 . S
C1198 H1178 0.950 . S
C1198 C1197 1.414 . S
C1198 C1199 1.374 . S
C1199 H1179 0.950 . S
C1199 C1195 1.385 . S
C1199 C1198 1.374 . S
C1200 C1197 1.499 . S
C1200 C1201 1.373 . S
C1200 C1202 1.389 . S
C1201 H1180 0.950 . S
C1201 C1200 1.373 . S
C1201 C1217 1.377 . S
C1202 C1200 1.389 . S
C1202 C1203 1.524 . S
C1202 C1216 1.377 . S
C1203 C1202 1.524 . S
C1203 C1204 1.397 . S
C1203 C1208 1.363 . S
C1204 H1181 0.950 . S
C1204 C1203 1.397 . S
C1204 C1205 1.334 . S
C1205 H1182 0.950 . S
C1205 C1204 1.334 . S
C1205 C1206 1.287 . S
C1206 C1205 1.287 . S
C1206 C1207 1.524 1_455 S
C1206 H1225 0.913 1_455 S
C1207 H1183 0.950 . S
C1207 C1206 1.524 1_655 S
C1207 C1208 1.415 1_655 S
C1208 H1184 0.950 . S
C1208 C1203 1.363 . S
C1208 C1207 1.415 1_455 S
C1209 H1185 0.951 . S
C1209 C1210 1.366 . S
C1209 C1211 1.388 . S
C1210 C1209 1.366 . S
C1210 C1214 1.385 . S
C1211 H1186 0.951 . S
C1211 C1209 1.388 . S
C1211 C1212 1.366 . S
C1212 C1211 1.366 . S
C1212 C1213 1.414 . S
C1212 C1215 1.499 . S
C1213 H1187 0.950 . S
C1213 C1212 1.414 . S
C1213 C1214 1.374 . S
C1214 H1188 0.950 . S
C1214 C1210 1.385 . S
C1214 C1213 1.374 . S
C1215 C1212 1.499 . S
C1215 C1216 1.373 . S
C1215 C1217 1.389 . S
C1216 H1189 0.950 . S
C1216 C1202 1.377 . S
C1216 C1215 1.373 . S
C1217 C1201 1.377 . S
C1217 C1215 1.389 . S
C1217 C1218 1.524 . S
C1218 C1217 1.524 . S
C1218 C1219 1.397 . S
C1218 C1223 1.363 . S
C1219 H1190 0.950 . S
C1219 C1218 1.397 . S
C1219 C1220 1.334 . S
C1220 H1191 0.950 . S
C1220 C1219 1.334 . S
C1220 C1221 1.287 . S
C1221 C1220 1.287 . S
C1221 C1222 1.524 . S
C1221 H1224 0.999 . S
C1222 H1192 0.950 . S
C1222 C1221 1.524 . S
C1222 C1223 1.415 . S
C1223 H1193 0.950 . S
C1223 C1218 1.363 . S
C1223 C1222 1.415 . S
H1224 C1221 0.999 . S
H1225 C1206 0.913 1_655 S
H1226 C1244 0.951 . S
H1227 C1246 0.951 . S
H1228 C1248 0.950 . S
H1229 C1249 0.950 . S
H1230 C1251 0.950 . S
H1231 C1254 0.950 . S
H1232 C1255 0.950 . S
H1233 C1257 0.950 . S
H1234 C1258 0.950 . S
H1235 C1259 0.951 . S
H1236 C1261 0.951 . S
H1237 C1263 0.950 . S
H1238 C1264 0.950 . S
H1239 C1266 0.950 . S
H1240 C1269 0.950 . S
H1241 C1270 0.950 . S
H1242 C1272 0.950 . S
H1243 C1273 0.950 . S
C1244 H1226 0.951 . S
C1244 C1245 1.366 . S
C1244 C1246 1.388 . S
C1245 C1244 1.366 . S
C1245 C1249 1.385 . S
C1246 H1227 0.951 . S
C1246 C1244 1.388 . S
C1246 C1247 1.366 . S
C1247 C1246 1.366 . S
C1247 C1248 1.414 . S
C1247 C1250 1.499 . S
C1248 H1228 0.950 . S
C1248 C1247 1.414 . S
C1248 C1249 1.374 . S
C1249 H1229 0.950 . S
C1249 C1245 1.385 . S
C1249 C1248 1.374 . S
C1250 C1247 1.499 . S
C1250 C1251 1.373 . S
C1250 C1252 1.389 . S
C1251 H1230 0.950 . S
C1251 C1250 1.373 . S
C1251 C1267 1.377 . S
C1252 C1250 1.389 . S
C1252 C1253 1.524 . S
C1252 C1266 1.377 . S
C1253 C1252 1.524 . S
C1253 C1254 1.397 . S
C1253 C1258 1.363 . S
C1254 H1231 0.950 . S
C1254 C1253 1.397 . S
C1254 C1255 1.334 . S
C1255 H1232 0.950 . S
C1255 C1254 1.334 . S
C1255 C1256 1.287 . S
C1256 C1255 1.287 . S
C1256 C1257 1.524 . S
C1256 H1275 0.913 . S
C1257 H1233 0.950 . S
C1257 C1256 1.524 . S
C1257 C1258 1.415 . S
C1258 H1234 0.950 . S
C1258 C1253 1.363 . S
C1258 C1257 1.415 . S
C1259 H1235 0.951 . S
C1259 C1260 1.366 . S
C1259 C1261 1.388 . S
C1260 C1259 1.366 . S
C1260 C1264 1.385 . S
C1261 H1236 0.951 . S
C1261 C1259 1.388 . S
C1261 C1262 1.366 . S
C1262 C1261 1.366 . S
C1262 C1263 1.414 . S
C1262 C1265 1.499 . S
C1263 H1237 0.950 . S
C1263 C1262 1.414 . S
C1263 C1264 1.374 . S
C1264 H1238 0.950 . S
C1264 C1260 1.385 . S
C1264 C1263 1.374 . S
C1265 C1262 1.499 . S
C1265 C1266 1.373 . S
C1265 C1267 1.389 . S
C1266 H1239 0.950 . S
C1266 C1252 1.377 . S
C1266 C1265 1.373 . S
C1267 C1251 1.377 . S
C1267 C1265 1.389 . S
C1267 C1268 1.524 . S
C1268 C1267 1.524 . S
C1268 C1269 1.397 . S
C1268 C1273 1.363 . S
C1269 H1240 0.950 . S
C1269 C1268 1.397 . S
C1269 C1270 1.334 . S
C1270 H1241 0.950 . S
C1270 C1269 1.334 . S
C1270 C1271 1.287 . S
C1271 C1270 1.287 . S
C1271 C1272 1.524 . S
C1271 H1274 0.999 . S
C1272 H1242 0.950 . S
C1272 C1271 1.524 . S
C1272 C1273 1.415 . S
C1273 H1243 0.950 . S
C1273 C1268 1.363 . S
C1273 C1272 1.415 . S
H1274 C1271 0.999 . S
H1275 C1256 0.913 . S
H1276 C1294 0.951 . S
H1277 C1296 0.951 . S
H1278 C1298 0.950 . S
H1279 C1299 0.950 . S
H1280 C1301 0.950 . S
H1281 C1304 0.950 . S
H1282 C1305 0.950 . S
H1283 C1307 0.950 . S
H1284 C1308 0.950 . S
H1285 C1309 0.951 . S
H1286 C1311 0.951 . S
H1287 C1313 0.950 . S
H1288 C1314 0.950 . S
H1289 C1316 0.950 . S
H1290 C1319 0.950 . S
H1291 C1320 0.950 . S
H1292 C1322 0.950 . S
H1293 C1323 0.950 . S
C1294 H1276 0.951 . S
C1294 C1295 1.366 . S
C1294 C1296 1.388 . S
C1295 C1294 1.366 . S
C1295 C1299 1.385 . S
C1296 H1277 0.951 . S
C1296 C1294 1.388 . S
C1296 C1297 1.366 . S
C1297 C1296 1.366 . S
C1297 C1298 1.414 . S
C1297 C1300 1.499 . S
C1298 H1278 0.950 . S
C1298 C1297 1.414 . S
C1298 C1299 1.374 . S
C1299 H1279 0.950 . S
C1299 C1295 1.385 . S
C1299 C1298 1.374 . S
C1300 C1297 1.499 . S
C1300 C1301 1.373 . S
C1300 C1302 1.389 . S
C1301 H1280 0.950 . S
C1301 C1300 1.373 . S
C1301 C1317 1.377 . S
C1302 C1300 1.389 . S
C1302 C1303 1.524 . S
C1302 C1316 1.377 . S
C1303 C1302 1.524 . S
C1303 C1304 1.397 . S
C1303 C1308 1.363 . S
C1304 H1281 0.950 . S
C1304 C1303 1.397 . S
C1304 C1305 1.334 . S
C1305 H1282 0.950 . S
C1305 C1304 1.334 . S
C1305 C1306 1.287 . S
C1306 C1305 1.287 . S
C1306 C1307 1.524 . S
C1306 H1325 0.913 . S
C1307 H1283 0.950 . S
C1307 C1306 1.524 . S
C1307 C1308 1.415 . S
C1308 H1284 0.950 . S
C1308 C1303 1.363 . S
C1308 C1307 1.415 . S
C1309 H1285 0.951 . S
C1309 C1310 1.366 . S
C1309 C1311 1.388 . S
C1310 C1309 1.366 . S
C1310 C1314 1.385 . S
C1311 H1286 0.951 . S
C1311 C1309 1.388 . S
C1311 C1312 1.366 . S
C1312 C1311 1.366 . S
C1312 C1313 1.414 . S
C1312 C1315 1.499 . S
C1313 H1287 0.950 . S
C1313 C1312 1.414 . S
C1313 C1314 1.374 . S
C1314 H1288 0.950 . S
C1314 C1310 1.385 . S
C1314 C1313 1.374 . S
C1315 C1312 1.499 . S
C1315 C1316 1.373 . S
C1315 C1317 1.389 . S
C1316 H1289 0.950 . S
C1316 C1302 1.377 . S
C1316 C1315 1.373 . S
C1317 C1301 1.377 . S
C1317 C1315 1.389 . S
C1317 C1318 1.524 . S
C1318 C1317 1.524 . S
C1318 C1319 1.397 . S
C1318 C1323 1.363 . S
C1319 H1290 0.950 . S
C1319 C1318 1.397 . S
C1319 C1320 1.334 . S
C1320 H1291 0.950 . S
C1320 C1319 1.334 . S
C1320 C1321 1.287 . S
C1321 C1320 1.287 . S
C1321 C1322 1.524 . S
C1321 H1324 0.999 . S
C1322 H1292 0.950 . S
C1322 C1321 1.524 . S
C1322 C1323 1.415 . S
C1323 H1293 0.950 . S
C1323 C1318 1.363 . S
C1323 C1322 1.415 . S
H1324 C1321 0.999 . S
H1325 C1306 0.913 . S
H1326 C1344 0.951 . S
H1327 C1346 0.951 . S
H1328 C1348 0.950 . S
H1329 C1349 0.950 . S
H1330 C1351 0.950 . S
H1331 C1354 0.950 . S
H1332 C1355 0.950 . S
H1333 C1357 0.950 . S
H1334 C1358 0.950 . S
H1335 C1359 0.951 . S
H1336 C1361 0.951 . S
H1337 C1363 0.950 . S
H1338 C1364 0.950 . S
H1339 C1366 0.950 . S
H1340 C1369 0.950 . S
H1341 C1370 0.950 . S
H1342 C1372 0.950 . S
H1343 C1373 0.950 . S
C1344 H1326 0.951 . S
C1344 C1345 1.366 . S
C1344 C1346 1.388 . S
C1345 C1344 1.366 . S
C1345 C1349 1.385 . S
C1346 H1327 0.951 . S
C1346 C1344 1.388 . S
C1346 C1347 1.366 . S
C1347 C1346 1.366 . S
C1347 C1348 1.414 . S
C1347 C1350 1.499 . S
C1348 H1328 0.950 . S
C1348 C1347 1.414 . S
C1348 C1349 1.374 . S
C1349 H1329 0.950 . S
C1349 C1345 1.385 . S
C1349 C1348 1.374 . S
C1350 C1347 1.499 . S
C1350 C1351 1.373 . S
C1350 C1352 1.389 . S
C1351 H1330 0.950 . S
C1351 C1350 1.373 . S
C1351 C1367 1.377 . S
C1352 C1350 1.389 . S
C1352 C1353 1.524 . S
C1352 C1366 1.377 . S
C1353 C1352 1.524 . S
C1353 C1354 1.397 . S
C1353 C1358 1.363 . S
C1354 H1331 0.950 . S
C1354 C1353 1.397 . S
C1354 C1355 1.334 . S
C1355 H1332 0.950 . S
C1355 C1354 1.334 . S
C1355 C1356 1.287 . S
C1356 C1355 1.287 . S
C1356 C1357 1.524 . S
C1356 H1375 0.913 . S
C1357 H1333 0.950 . S
C1357 C1356 1.524 . S
C1357 C1358 1.415 . S
C1358 H1334 0.950 . S
C1358 C1353 1.363 . S
C1358 C1357 1.415 . S
C1359 H1335 0.951 . S
C1359 C1360 1.366 . S
C1359 C1361 1.388 . S
C1360 C1359 1.366 . S
C1360 C1364 1.385 . S
C1361 H1336 0.951 . S
C1361 C1359 1.388 . S
C1361 C1362 1.366 . S
C1362 C1361 1.366 . S
C1362 C1363 1.414 . S
C1362 C1365 1.499 . S
C1363 H1337 0.950 . S
C1363 C1362 1.414 . S
C1363 C1364 1.374 . S
C1364 H1338 0.950 . S
C1364 C1360 1.385 . S
C1364 C1363 1.374 . S
C1365 C1362 1.499 . S
C1365 C1366 1.373 . S
C1365 C1367 1.389 . S
C1366 H1339 0.950 . S
C1366 C1352 1.377 . S
C1366 C1365 1.373 . S
C1367 C1351 1.377 . S
C1367 C1365 1.389 . S
C1367 C1368 1.524 . S
C1368 C1367 1.524 . S
C1368 C1369 1.397 . S
C1368 C1373 1.363 . S
C1369 H1340 0.950 . S
C1369 C1368 1.397 . S
C1369 C1370 1.334 . S
C1370 H1341 0.950 . S
C1370 C1369 1.334 . S
C1370 C1371 1.287 . S
C1371 C1370 1.287 . S
C1371 C1372 1.524 . S
C1371 H1374 0.999 . S
C1372 H1342 0.950 . S
C1372 C1371 1.524 . S
C1372 C1373 1.415 . S
C1373 H1343 0.950 . S
C1373 C1368 1.363 . S
C1373 C1372 1.415 . S
H1374 C1371 0.999 . S
H1375 C1356 0.913 . S
H1376 C1394 0.951 . S
H1377 C1396 0.951 . S
H1378 C1398 0.950 . S
H1379 C1399 0.950 . S
H1380 C1401 0.990 . S
H1381 C1404 0.950 . S
H1382 C1405 0.950 . S
H1383 C1407 0.950 . S
H1384 C1408 0.981 . S
H1385 C1409 0.956 1_565 S
H1386 C1411 0.951 1_565 S
H1387 C1413 0.950 . S
H1388 C1414 0.950 . S
H1389 C1416 0.950 . S
H1390 C1419 0.962 . S
H1391 C1420 0.950 . S
H1392 C1422 0.950 . S
H1393 C1423 0.950 . S
C1394 H1376 0.951 . S
C1394 C1395 1.366 . S
C1394 C1396 1.388 . S
C1395 C1394 1.366 . S
C1395 C1399 1.385 1_545 S
C1396 H1377 0.951 . S
C1396 C1394 1.388 . S
C1396 C1397 1.366 . S
C1397 C1396 1.366 . S
C1397 C1398 1.414 1_545 S
C1397 C1400 1.499 . S
C1398 H1378 0.950 . S
C1398 C1397 1.414 1_565 S
C1398 C1399 1.374 . S
C1399 H1379 0.950 . S
C1399 C1395 1.385 1_565 S
C1399 C1398 1.374 . S
C1400 C1397 1.499 . S
C1400 C1401 1.338 1_545 S
C1400 C1402 1.389 . S
C1401 H1380 0.990 . S
C1401 C1400 1.338 1_565 S
C1401 C1417 1.371 1_565 S
C1402 C1400 1.389 . S
C1402 C1403 1.524 . S
C1402 C1416 1.377 . S
C1403 C1402 1.524 . S
C1403 C1404 1.397 . S
C1403 C1408 1.363 . S
C1404 H1381 0.950 . S
C1404 C1403 1.397 . S
C1404 C1405 1.334 . S
C1405 H1382 0.950 . S
C1405 C1404 1.334 . S
C1405 C1406 1.287 . S
C1406 C1405 1.287 . S
C1406 C1407 1.524 . S
C1406 H1425 0.913 . S
C1407 H1383 0.950 . S
C1407 C1406 1.524 . S
C1407 C1408 1.415 . S
C1408 H1384 0.981 . S
C1408 C1403 1.363 . S
C1408 C1407 1.415 . S
C1409 H1385 0.956 1_545 S
C1409 C1410 1.366 . S
C1409 C1411 1.388 1_455 S
C1410 C1409 1.366 . S
C1410 C1414 1.385 . S
C1411 H1386 0.951 1_545 S
C1411 C1409 1.388 1_655 S
C1411 C1412 1.366 1_655 S
C1412 C1411 1.366 1_455 S
C1412 C1413 1.414 . S
C1412 C1415 1.499 1_455 S
C1413 H1387 0.950 . S
C1413 C1412 1.414 . S
C1413 C1414 1.374 . S
C1414 H1388 0.950 . S
C1414 C1410 1.385 . S
C1414 C1413 1.374 . S
C1415 C1412 1.499 1_655 S
C1415 C1416 1.373 . S
C1415 C1417 1.446 . S
C1416 H1389 0.950 . S
C1416 C1402 1.377 . S
C1416 C1415 1.373 . S
C1417 C1401 1.371 1_545 S
C1417 C1415 1.446 . S
C1417 C1418 1.461 1_645 S
C1418 C1417 1.461 1_465 S
C1418 C1419 1.413 . S
C1418 C1423 1.356 1_455 S
C1419 H1390 0.962 . S
C1419 C1418 1.413 . S
C1419 C1420 1.334 . S
C1420 H1391 0.950 . S
C1420 C1419 1.334 . S
C1420 C1421 1.287 . S
C1421 C1420 1.287 . S
C1421 C1422 1.524 1_455 S
C1421 H1424 0.999 . S
C1422 H1392 0.950 . S
C1422 C1421 1.524 1_655 S
C1422 C1423 1.415 . S
C1423 H1393 0.950 . S
C1423 C1418 1.356 1_655 S
C1423 C1422 1.415 . S
H1424 C1421 0.999 . S
H1425 C1406 0.913 . S
H1426 C1444 0.951 . S
H1427 C1446 0.951 . S
H1428 C1448 0.950 . S
H1429 C1449 0.950 . S
H1430 C1451 0.950 . S
H1431 C1454 0.950 . S
H1432 C1455 0.950 . S
H1433 C1457 0.950 . S
H1434 C1458 0.950 . S
H1435 C1459 0.951 . S
H1436 C1461 0.951 . S
H1437 C1463 0.950 . S
H1438 C1464 0.950 . S
H1439 C1466 0.950 . S
H1440 C1469 0.950 . S
H1441 C1470 0.950 . S
H1442 C1472 0.950 . S
H1443 C1473 0.950 . S
C1444 H1426 0.951 . S
C1444 C1445 1.366 . S
C1444 C1446 1.388 . S
C1445 C1444 1.366 . S
C1445 C1449 1.385 . S
C1446 H1427 0.951 . S
C1446 C1444 1.388 . S
C1446 C1447 1.366 . S
C1447 C1446 1.366 . S
C1447 C1448 1.414 . S
C1447 C1450 1.499 . S
C1448 H1428 0.950 . S
C1448 C1447 1.414 . S
C1448 C1449 1.374 . S
C1449 H1429 0.950 . S
C1449 C1445 1.385 . S
C1449 C1448 1.374 . S
C1450 C1447 1.499 . S
C1450 C1451 1.373 . S
C1450 C1452 1.389 . S
C1451 H1430 0.950 . S
C1451 C1450 1.373 . S
C1451 C1467 1.377 . S
C1452 C1450 1.389 . S
C1452 C1453 1.524 . S
C1452 C1466 1.377 . S
C1453 C1452 1.524 . S
C1453 C1454 1.397 . S
C1453 C1458 1.363 . S
C1454 H1431 0.950 . S
C1454 C1453 1.397 . S
C1454 C1455 1.334 . S
C1455 H1432 0.950 . S
C1455 C1454 1.334 . S
C1455 C1456 1.287 . S
C1456 C1455 1.287 . S
C1456 C1457 1.524 . S
C1456 H1475 0.913 . S
C1457 H1433 0.950 . S
C1457 C1456 1.524 . S
C1457 C1458 1.415 . S
C1458 H1434 0.950 . S
C1458 C1453 1.363 . S
C1458 C1457 1.415 . S
C1459 H1435 0.951 . S
C1459 C1460 1.366 . S
C1459 C1461 1.388 . S
C1460 C1459 1.366 . S
C1460 C1464 1.385 . S
C1461 H1436 0.951 . S
C1461 C1459 1.388 . S
C1461 C1462 1.366 . S
C1462 C1461 1.366 . S
C1462 C1463 1.414 . S
C1462 C1465 1.499 . S
C1463 H1437 0.950 . S
C1463 C1462 1.414 . S
C1463 C1464 1.374 . S
C1464 H1438 0.950 . S
C1464 C1460 1.385 . S
C1464 C1463 1.374 . S
C1465 C1462 1.499 . S
C1465 C1466 1.373 . S
C1465 C1467 1.389 . S
C1466 H1439 0.950 . S
C1466 C1452 1.377 . S
C1466 C1465 1.373 . S
C1467 C1451 1.377 . S
C1467 C1465 1.389 . S
C1467 C1468 1.524 . S
C1468 C1467 1.524 . S
C1468 C1469 1.397 . S
C1468 C1473 1.363 . S
C1469 H1440 0.950 . S
C1469 C1468 1.397 . S
C1469 C1470 1.334 . S
C1470 H1441 0.950 . S
C1470 C1469 1.334 . S
C1470 C1471 1.287 . S
C1471 C1470 1.287 . S
C1471 C1472 1.524 . S
C1471 H1474 0.999 . S
C1472 H1442 0.950 . S
C1472 C1471 1.524 . S
C1472 C1473 1.415 . S
C1473 H1443 0.950 . S
C1473 C1468 1.363 . S
C1473 C1472 1.415 . S
H1474 C1471 0.999 . S
H1475 C1456 0.913 . S
H1476 C1494 0.951 . S
H1477 C1496 0.951 . S
H1478 C1498 0.950 . S
H1479 C1499 0.950 . S
H1480 C1501 0.950 . S
H1481 C1504 0.950 1_545 S
H1482 C1505 0.950 . S
H1483 C1507 0.950 . S
H1484 C1508 0.950 . S
H1485 C1509 0.951 . S
H1486 C1511 0.951 . S
H1487 C1513 0.950 . S
H1488 C1514 0.950 . S
H1489 C1516 0.950 . S
H1490 C1519 0.950 . S
H1491 C1520 0.950 . S
H1492 C1522 0.950 . S
H1493 C1523 0.950 . S
C1494 H1476 0.951 . S
C1494 C1495 1.366 1_565 S
C1494 C1496 1.388 . S
C1495 C1494 1.366 1_545 S
C1495 C1499 1.385 . S
C1496 H1477 0.951 . S
C1496 C1494 1.388 . S
C1496 C1497 1.366 1_565 S
C1497 C1496 1.366 1_545 S
C1497 C1498 1.414 . S
C1497 C1500 1.499 . S
C1498 H1478 0.950 . S
C1498 C1497 1.414 . S
C1498 C1499 1.374 . S
C1499 H1479 0.950 . S
C1499 C1495 1.385 . S
C1499 C1498 1.374 . S
C1500 C1497 1.499 . S
C1500 C1501 1.373 . S
C1500 C1502 1.389 1_545 S
C1501 H1480 0.950 . S
C1501 C1500 1.373 . S
C1501 C1517 1.377 . S
C1502 C1500 1.389 1_565 S
C1502 C1503 1.524 . S
C1502 C1516 1.377 . S
C1503 C1502 1.524 . S
C1503 C1504 1.397 . S
C1503 C1508 1.363 . S
C1504 H1481 0.950 1_565 S
C1504 C1503 1.397 . S
C1504 C1505 1.334 . S
C1505 H1482 0.950 . S
C1505 C1504 1.334 . S
C1505 C1506 1.287 . S
C1506 C1505 1.287 . S
C1506 C1507 1.524 . S
C1506 H1525 0.913 . S
C1507 H1483 0.950 . S
C1507 C1506 1.524 . S
C1507 C1508 1.415 . S
C1508 H1484 0.950 . S
C1508 C1503 1.363 . S
C1508 C1507 1.415 . S
C1509 H1485 0.951 . S
C1509 C1510 1.366 . S
C1509 C1511 1.388 . S
C1510 C1509 1.366 . S
C1510 C1514 1.385 1_545 S
C1511 H1486 0.951 . S
C1511 C1509 1.388 . S
C1511 C1512 1.366 . S
C1512 C1511 1.366 . S
C1512 C1513 1.414 1_545 S
C1512 C1515 1.499 . S
C1513 H1487 0.950 . S
C1513 C1512 1.414 1_565 S
C1513 C1514 1.374 . S
C1514 H1488 0.950 . S
C1514 C1510 1.385 1_565 S
C1514 C1513 1.374 . S
C1515 C1512 1.499 . S
C1515 C1516 1.373 1_545 S
C1515 C1517 1.389 . S
C1516 H1489 0.950 . S
C1516 C1502 1.377 . S
C1516 C1515 1.373 1_565 S
C1517 C1501 1.377 . S
C1517 C1515 1.389 . S
C1517 C1518 1.524 . S
C1518 C1517 1.524 . S
C1518 C1519 1.397 . S
C1518 C1523 1.363 . S
C1519 H1490 0.950 . S
C1519 C1518 1.397 . S
C1519 C1520 1.334 . S
C1520 H1491 0.950 . S
C1520 C1519 1.334 . S
C1520 C1521 1.287 . S
C1521 C1520 1.287 . S
C1521 C1522 1.524 . S
C1521 H1524 0.999 . S
C1522 H1492 0.950 . S
C1522 C1521 1.524 . S
C1522 C1523 1.415 . S
C1523 H1493 0.950 . S
C1523 C1518 1.363 . S
C1523 C1522 1.415 . S
H1524 C1521 0.999 . S
H1525 C1506 0.913 . S
H1526 C1544 0.951 . S
H1527 C1546 0.951 . S
H1528 C1548 0.950 . S
H1529 C1549 0.950 . S
H1530 C1551 0.950 . S
H1531 C1554 0.950 . S
H1532 C1555 0.950 . S
H1533 C1557 0.950 . S
H1534 C1558 0.950 . S
H1535 C1559 0.951 . S
H1536 C1561 0.951 . S
H1537 C1563 0.950 . S
H1538 C1564 0.950 . S
H1539 C1566 0.950 . S
H1540 C1569 0.950 . S
H1541 C1570 0.950 . S
H1542 C1572 0.950 . S
H1543 C1573 0.950 . S
C1544 H1526 0.951 . S
C1544 C1545 1.366 . S
C1544 C1546 1.388 . S
C1545 C1544 1.366 . S
C1545 C1549 1.385 . S
C1546 H1527 0.951 . S
C1546 C1544 1.388 . S
C1546 C1547 1.366 . S
C1547 C1546 1.366 . S
C1547 C1548 1.414 . S
C1547 C1550 1.499 . S
C1548 H1528 0.950 . S
C1548 C1547 1.414 . S
C1548 C1549 1.374 . S
C1549 H1529 0.950 . S
C1549 C1545 1.385 . S
C1549 C1548 1.374 . S
C1550 C1547 1.499 . S
C1550 C1551 1.373 . S
C1550 C1552 1.389 . S
C1551 H1530 0.950 . S
C1551 C1550 1.373 . S
C1551 C1567 1.377 . S
C1552 C1550 1.389 . S
C1552 C1553 1.524 . S
C1552 C1566 1.377 . S
C1553 C1552 1.524 . S
C1553 C1554 1.397 . S
C1553 C1558 1.363 . S
C1554 H1531 0.950 . S
C1554 C1553 1.397 . S
C1554 C1555 1.334 . S
C1555 H1532 0.950 . S
C1555 C1554 1.334 . S
C1555 C1556 1.287 . S
C1556 C1555 1.287 . S
C1556 C1557 1.524 . S
C1556 H1575 0.913 . S
C1557 H1533 0.950 . S
C1557 C1556 1.524 . S
C1557 C1558 1.415 . S
C1558 H1534 0.950 . S
C1558 C1553 1.363 . S
C1558 C1557 1.415 . S
C1559 H1535 0.951 . S
C1559 C1560 1.366 . S
C1559 C1561 1.388 . S
C1560 C1559 1.366 . S
C1560 C1564 1.385 . S
C1561 H1536 0.951 . S
C1561 C1559 1.388 . S
C1561 C1562 1.366 . S
C1562 C1561 1.366 . S
C1562 C1563 1.414 . S
C1562 C1565 1.499 . S
C1563 H1537 0.950 . S
C1563 C1562 1.414 . S
C1563 C1564 1.374 . S
C1564 H1538 0.950 . S
C1564 C1560 1.385 . S
C1564 C1563 1.374 . S
C1565 C1562 1.499 . S
C1565 C1566 1.373 . S
C1565 C1567 1.389 . S
C1566 H1539 0.950 . S
C1566 C1552 1.377 . S
C1566 C1565 1.373 . S
C1567 C1551 1.377 . S
C1567 C1565 1.389 . S
C1567 C1568 1.524 . S
C1568 C1567 1.524 . S
C1568 C1569 1.397 . S
C1568 C1573 1.363 . S
C1569 H1540 0.950 . S
C1569 C1568 1.397 . S
C1569 C1570 1.334 . S
C1570 H1541 0.950 . S
C1570 C1569 1.334 . S
C1570 C1571 1.287 . S
C1571 C1570 1.287 . S
C1571 C1572 1.524 . S
C1571 H1574 0.999 . S
C1572 H1542 0.950 . S
C1572 C1571 1.524 . S
C1572 C1573 1.415 . S
C1573 H1543 0.950 . S
C1573 C1568 1.363 . S
C1573 C1572 1.415 . S
H1574 C1571 0.999 . S
H1575 C1556 0.913 . S
H1576 C1594 0.951 . S
H1577 C1596 0.951 . S
H1578 C1598 0.950 . S
H1579 C1599 0.950 . S
H1580 C1601 0.950 . S
H1581 C1604 0.950 . S
H1582 C1605 0.950 . S
H1583 C1607 0.950 . S
H1584 C1608 0.950 1_545 S
H1585 C1609 0.951 . S
H1586 C1611 0.951 . S
H1587 C1613 0.950 . S
H1588 C1614 0.950 . S
H1589 C1616 0.929 1_465 S
H1590 C1619 0.950 . S
H1591 C1620 0.950 . S
H1592 C1622 0.950 . S
H1593 C1623 0.950 . S
C1594 H1576 0.951 . S
C1594 C1595 1.366 . S
C1594 C1596 1.388 . S
C1595 C1594 1.366 . S
C1595 C1599 1.385 . S
C1596 H1577 0.951 . S
C1596 C1594 1.388 . S
C1596 C1597 1.366 . S
C1597 C1596 1.366 . S
C1597 C1598 1.414 . S
C1597 C1600 1.499 . S
C1598 H1578 0.950 . S
C1598 C1597 1.414 . S
C1598 C1599 1.374 . S
C1599 H1579 0.950 . S
C1599 C1595 1.385 . S
C1599 C1598 1.374 . S
C1600 C1597 1.499 . S
C1600 C1601 1.373 . S
C1600 C1602 1.389 . S
C1601 H1580 0.950 . S
C1601 C1600 1.373 . S
C1601 C1617 1.377 . S
C1602 C1600 1.389 . S
C1602 C1603 1.567 1_545 S
C1602 C1616 1.378 . S
C1603 C1602 1.567 1_565 S
C1603 C1604 1.429 . S
C1603 C1608 1.293 1_655 S
C1604 H1581 0.950 . S
C1604 C1603 1.429 . S
C1604 C1605 1.334 . S
C1605 H1582 0.950 . S
C1605 C1604 1.334 . S
C1605 C1606 1.287 1_655 S
C1606 C1605 1.287 1_455 S
C1606 C1607 1.524 . S
C1606 H1625 0.913 . S
C1607 H1583 0.950 . S
C1607 C1606 1.524 . S
C1607 C1608 1.415 . S
C1608 H1584 0.950 1_565 S
C1608 C1603 1.293 1_455 S
C1608 C1607 1.415 . S
C1609 H1585 0.951 . S
C1609 C1610 1.366 1_655 S
C1609 C1611 1.388 . S
C1610 C1609 1.366 1_455 S
C1610 C1614 1.385 . S
C1611 H1586 0.951 . S
C1611 C1609 1.388 . S
C1611 C1612 1.327 1_655 S
C1612 C1611 1.327 1_455 S
C1612 C1613 1.470 . S
C1612 C1615 1.487 1_455 S
C1613 H1587 0.950 . S
C1613 C1612 1.470 . S
C1613 C1614 1.374 . S
C1614 H1588 0.950 . S
C1614 C1610 1.385 . S
C1614 C1613 1.374 . S
C1615 C1612 1.487 1_655 S
C1615 C1616 1.377 . S
C1615 C1617 1.389 . S
C1616 H1589 0.929 1_645 S
C1616 C1602 1.378 . S
C1616 C1615 1.377 . S
C1617 C1601 1.377 . S
C1617 C1615 1.389 . S
C1617 C1618 1.524 . S
C1618 C1617 1.524 . S
C1618 C1619 1.397 . S
C1618 C1623 1.363 . S
C1619 H1590 0.950 . S
C1619 C1618 1.397 . S
C1619 C1620 1.334 . S
C1620 H1591 0.950 . S
C1620 C1619 1.334 . S
C1620 C1621 1.287 . S
C1621 C1620 1.287 . S
C1621 C1622 1.524 . S
C1621 H1624 0.999 . S
C1622 H1592 0.950 . S
C1622 C1621 1.524 . S
C1622 C1623 1.415 . S
C1623 H1593 0.950 . S
C1623 C1618 1.363 . S
C1623 C1622 1.415 . S
H1624 C1621 0.999 . S
H1625 C1606 0.913 . S
H1626 C1644 0.951 . S
H1627 C1646 0.951 . S
H1628 C1648 0.950 . S
H1629 C1649 0.950 . S
H1630 C1651 0.950 . S
H1631 C1654 0.950 . S
H1632 C1655 0.950 . S
H1633 C1657 0.950 . S
H1634 C1658 0.950 . S
H1635 C1659 0.951 . S
H1636 C1661 0.951 . S
H1637 C1663 0.950 . S
H1638 C1664 0.950 . S
H1639 C1666 0.950 . S
H1640 C1669 0.950 . S
H1641 C1670 0.950 . S
H1642 C1672 0.950 . S
H1643 C1673 0.950 . S
C1644 H1626 0.951 . S
C1644 C1645 1.366 . S
C1644 C1646 1.388 . S
C1645 C1644 1.366 . S
C1645 C1649 1.385 . S
C1646 H1627 0.951 . S
C1646 C1644 1.388 . S
C1646 C1647 1.366 . S
C1647 C1646 1.366 . S
C1647 C1648 1.414 . S
C1647 C1650 1.499 . S
C1648 H1628 0.950 . S
C1648 C1647 1.414 . S
C1648 C1649 1.374 . S
C1649 H1629 0.950 . S
C1649 C1645 1.385 . S
C1649 C1648 1.374 . S
C1650 C1647 1.499 . S
C1650 C1651 1.373 . S
C1650 C1652 1.389 . S
C1651 H1630 0.950 . S
C1651 C1650 1.373 . S
C1651 C1667 1.377 . S
C1652 C1650 1.389 . S
C1652 C1653 1.524 . S
C1652 C1666 1.377 . S
C1653 C1652 1.524 . S
C1653 C1654 1.397 . S
C1653 C1658 1.363 . S
C1654 H1631 0.950 . S
C1654 C1653 1.397 . S
C1654 C1655 1.334 . S
C1655 H1632 0.950 . S
C1655 C1654 1.334 . S
C1655 C1656 1.287 . S
C1656 C1655 1.287 . S
C1656 C1657 1.524 . S
C1656 H1675 0.913 . S
C1657 H1633 0.950 . S
C1657 C1656 1.524 . S
C1657 C1658 1.415 . S
C1658 H1634 0.950 . S
C1658 C1653 1.363 . S
C1658 C1657 1.415 . S
C1659 H1635 0.951 . S
C1659 C1660 1.366 . S
C1659 C1661 1.388 . S
C1660 C1659 1.366 . S
C1660 C1664 1.385 . S
C1661 H1636 0.951 . S
C1661 C1659 1.388 . S
C1661 C1662 1.366 . S
C1662 C1661 1.366 . S
C1662 C1663 1.414 . S
C1662 C1665 1.499 . S
C1663 H1637 0.950 . S
C1663 C1662 1.414 . S
C1663 C1664 1.374 . S
C1664 H1638 0.950 . S
C1664 C1660 1.385 . S
C1664 C1663 1.374 . S
C1665 C1662 1.499 . S
C1665 C1666 1.373 . S
C1665 C1667 1.389 . S
C1666 H1639 0.950 . S
C1666 C1652 1.377 . S
C1666 C1665 1.373 . S
C1667 C1651 1.377 . S
C1667 C1665 1.389 . S
C1667 C1668 1.524 . S
C1668 C1667 1.524 . S
C1668 C1669 1.397 . S
C1668 C1673 1.363 . S
C1669 H1640 0.950 . S
C1669 C1668 1.397 . S
C1669 C1670 1.334 . S
C1670 H1641 0.950 . S
C1670 C1669 1.334 . S
C1670 C1671 1.287 . S
C1671 C1670 1.287 . S
C1671 C1672 1.524 . S
C1671 H1674 0.999 . S
C1672 H1642 0.950 . S
C1672 C1671 1.524 . S
C1672 C1673 1.415 . S
C1673 H1643 0.950 . S
C1673 C1668 1.363 . S
C1673 C1672 1.415 . S
H1674 C1671 0.999 . S
H1675 C1656 0.913 . S
H1676 C1694 0.951 1_565 S
H1677 C1696 0.951 1_565 S
H1678 C1698 0.950 . S
H1679 C1699 0.950 . S
H1680 C1701 0.950 . S
H1681 C1704 0.911 1_545 S
H1682 C1705 0.950 . S
H1683 C1707 0.950 . S
H1684 C1708 0.950 . S
H1685 C1709 0.951 . S
H1686 C1711 0.951 . S
H1687 C1713 0.950 . S
H1688 C1714 0.950 . S
H1689 C1716 0.939 1_565 S
H1690 C1719 0.950 . S
H1691 C1720 0.950 . S
H1692 C1722 0.950 . S
H1693 C1723 0.950 . S
C1694 H1676 0.951 1_545 S
C1694 C1695 1.366 . S
C1694 C1696 1.388 . S
C1695 C1694 1.366 . S
C1695 C1699 1.385 . S
C1696 H1677 0.951 1_545 S
C1696 C1694 1.388 . S
C1696 C1697 1.366 . S
C1697 C1696 1.366 . S
C1697 C1698 1.414 . S
C1697 C1700 1.499 . S
C1698 H1678 0.950 . S
C1698 C1697 1.414 . S
C1698 C1699 1.374 . S
C1699 H1679 0.950 . S
C1699 C1695 1.385 . S
C1699 C1698 1.374 . S
C1700 C1697 1.499 . S
C1700 C1701 1.373 . S
C1700 C1702 1.389 . S
C1701 H1680 0.950 . S
C1701 C1700 1.373 . S
C1701 C1717 1.377 . S
C1702 C1700 1.389 . S
C1702 C1703 1.524 1_545 S
C1702 C1716 1.377 . S
C1703 C1702 1.524 1_565 S
C1703 C1704 1.397 . S
C1703 C1708 1.363 . S
C1704 H1681 0.911 1_565 S
C1704 C1703 1.397 . S
C1704 C1705 1.334 . S
C1705 H1682 0.950 . S
C1705 C1704 1.334 . S
C1705 C1706 1.287 . S
C1706 C1705 1.287 . S
C1706 C1707 1.524 . S
C1706 H1725 0.913 . S
C1707 H1683 0.950 . S
C1707 C1706 1.524 . S
C1707 C1708 1.415 . S
C1708 H1684 0.950 . S
C1708 C1703 1.363 . S
C1708 C1707 1.415 . S
C1709 H1685 0.951 . S
C1709 C1710 1.366 . S
C1709 C1711 1.388 . S
C1710 C1709 1.366 . S
C1710 C1714 1.385 . S
C1711 H1686 0.951 . S
C1711 C1709 1.388 . S
C1711 C1712 1.366 . S
C1712 C1711 1.366 . S
C1712 C1713 1.414 . S
C1712 C1715 1.499 . S
C1713 H1687 0.950 . S
C1713 C1712 1.414 . S
C1713 C1714 1.374 . S
C1714 H1688 0.950 . S
C1714 C1710 1.385 . S
C1714 C1713 1.374 . S
C1715 C1712 1.499 . S
C1715 C1716 1.373 . S
C1715 C1717 1.389 . S
C1716 H1689 0.939 1_545 S
C1716 C1702 1.377 . S
C1716 C1715 1.373 . S
C1717 C1701 1.377 . S
C1717 C1715 1.389 . S
C1717 C1718 1.524 . S
C1718 C1717 1.524 . S
C1718 C1719 1.397 . S
C1718 C1723 1.363 . S
C1719 H1690 0.950 . S
C1719 C1718 1.397 . S
C1719 C1720 1.334 . S
C1720 H1691 0.950 . S
C1720 C1719 1.334 . S
C1720 C1721 1.287 . S
C1721 C1720 1.287 . S
C1721 C1722 1.524 . S
C1721 H1724 0.999 . S
C1722 H1692 0.950 . S
C1722 C1721 1.524 . S
C1722 C1723 1.415 . S
C1723 H1693 0.950 . S
C1723 C1718 1.363 . S
C1723 C1722 1.415 . S
H1724 C1721 0.999 . S
H1725 C1706 0.913 . S
H1726 C1744 0.951 . S
H1727 C1746 0.951 . S
H1728 C1748 0.950 . S
H1729 C1749 0.950 . S
H1730 C1751 0.950 . S
H1731 C1754 0.950 . S
H1732 C1755 0.950 . S
H1733 C1757 0.950 . S
H1734 C1758 0.950 . S
H1735 C1759 0.951 . S
H1736 C1761 0.951 . S
H1737 C1763 0.950 . S
H1738 C1764 0.950 . S
H1739 C1766 0.950 . S
H1740 C1769 0.950 . S
H1741 C1770 0.950 . S
H1742 C1772 0.950 . S
H1743 C1773 0.950 . S
C1744 H1726 0.951 . S
C1744 C1745 1.366 . S
C1744 C1746 1.388 . S
C1745 C1744 1.366 . S
C1745 C1749 1.385 . S
C1746 H1727 0.951 . S
C1746 C1744 1.388 . S
C1746 C1747 1.366 . S
C1747 C1746 1.366 . S
C1747 C1748 1.414 . S
C1747 C1750 1.499 . S
C1748 H1728 0.950 . S
C1748 C1747 1.414 . S
C1748 C1749 1.374 . S
C1749 H1729 0.950 . S
C1749 C1745 1.385 . S
C1749 C1748 1.374 . S
C1750 C1747 1.499 . S
C1750 C1751 1.373 . S
C1750 C1752 1.389 . S
C1751 H1730 0.950 . S
C1751 C1750 1.373 . S
C1751 C1767 1.377 . S
C1752 C1750 1.389 . S
C1752 C1753 1.524 . S
C1752 C1766 1.377 . S
C1753 C1752 1.524 . S
C1753 C1754 1.397 . S
C1753 C1758 1.363 . S
C1754 H1731 0.950 . S
C1754 C1753 1.397 . S
C1754 C1755 1.334 . S
C1755 H1732 0.950 . S
C1755 C1754 1.334 . S
C1755 C1756 1.287 . S
C1756 C1755 1.287 . S
C1756 C1757 1.524 . S
C1756 H1775 0.913 . S
C1757 H1733 0.950 . S
C1757 C1756 1.524 . S
C1757 C1758 1.415 . S
C1758 H1734 0.950 . S
C1758 C1753 1.363 . S
C1758 C1757 1.415 . S
C1759 H1735 0.951 . S
C1759 C1760 1.366 . S
C1759 C1761 1.388 . S
C1760 C1759 1.366 . S
C1760 C1764 1.385 . S
C1761 H1736 0.951 . S
C1761 C1759 1.388 . S
C1761 C1762 1.366 . S
C1762 C1761 1.366 . S
C1762 C1763 1.414 . S
C1762 C1765 1.499 . S
C1763 H1737 0.950 . S
C1763 C1762 1.414 . S
C1763 C1764 1.374 . S
C1764 H1738 0.950 . S
C1764 C1760 1.385 . S
C1764 C1763 1.374 . S
C1765 C1762 1.499 . S
C1765 C1766 1.373 . S
C1765 C1767 1.389 . S
C1766 H1739 0.950 . S
C1766 C1752 1.377 . S
C1766 C1765 1.373 . S
C1767 C1751 1.377 . S
C1767 C1765 1.389 . S
C1767 C1768 1.524 . S
C1768 C1767 1.524 . S
C1768 C1769 1.397 . S
C1768 C1773 1.363 . S
C1769 H1740 0.950 . S
C1769 C1768 1.397 . S
C1769 C1770 1.334 . S
C1770 H1741 0.950 . S
C1770 C1769 1.334 . S
C1770 C1771 1.287 . S
C1771 C1770 1.287 . S
C1771 C1772 1.524 . S
C1771 H1774 0.999 . S
C1772 H1742 0.950 . S
C1772 C1771 1.524 . S
C1772 C1773 1.415 . S
C1773 H1743 0.950 . S
C1773 C1768 1.363 . S
C1773 C1772 1.415 . S
H1774 C1771 0.999 . S
H1775 C1756 0.913 . S
H1776 C1794 0.951 . S
H1777 C1796 0.951 . S
H1778 C1798 0.950 1_556 S
H1779 C1799 0.950 . S
H1780 C1801 0.950 . S
H1781 C1804 0.950 . S
H1782 C1805 0.950 . S
H1783 C1807 0.950 . S
H1784 C1808 0.950 . S
H1785 C1809 0.951 . S
H1786 C1811 0.951 . S
H1787 C1813 0.950 . S
H1788 C1814 0.950 . S
H1789 C1816 0.950 . S
H1790 C1819 0.950 . S
H1791 C1820 0.950 . S
H1792 C1822 0.950 . S
H1793 C1823 0.950 . S
C1794 H1776 0.951 . S
C1794 C1795 1.366 . S
C1794 C1796 1.388 . S
C1795 C1794 1.366 . S
C1795 C1799 1.385 1_554 S
C1796 H1777 0.951 . S
C1796 C1794 1.388 . S
C1796 C1797 1.366 . S
C1797 C1796 1.366 . S
C1797 C1798 1.414 . S
C1797 C1800 1.499 . S
C1798 H1778 0.950 1_554 S
C1798 C1797 1.414 . S
C1798 C1799 1.374 1_554 S
C1799 H1779 0.950 . S
C1799 C1795 1.385 1_556 S
C1799 C1798 1.374 1_556 S
C1800 C1797 1.499 . S
C1800 C1801 1.373 . S
C1800 C1802 1.389 . S
C1801 H1780 0.950 . S
C1801 C1800 1.373 . S
C1801 C1817 1.377 . S
C1802 C1800 1.389 . S
C1802 C1803 1.524 . S
C1802 C1816 1.377 . S
C1803 C1802 1.524 . S
C1803 C1804 1.397 1_554 S
C1803 C1808 1.363 . S
C1804 H1781 0.950 . S
C1804 C1803 1.397 1_556 S
C1804 C1805 1.334 . S
C1805 H1782 0.950 . S
C1805 C1804 1.334 . S
C1805 C1806 1.287 . S
C1806 C1805 1.287 . S
C1806 C1807 1.524 1_556 S
C1806 H1825 0.913 . S
C1807 H1783 0.950 . S
C1807 C1806 1.524 1_554 S
C1807 C1808 1.415 . S
C1808 H1784 0.950 . S
C1808 C1803 1.363 . S
C1808 C1807 1.415 . S
C1809 H1785 0.951 . S
C1809 C1810 1.366 . S
C1809 C1811 1.388 . S
C1810 C1809 1.366 . S
C1810 C1814 1.385 . S
C1811 H1786 0.951 . S
C1811 C1809 1.388 . S
C1811 C1812 1.366 . S
C1812 C1811 1.366 . S
C1812 C1813 1.414 . S
C1812 C1815 1.499 . S
C1813 H1787 0.950 . S
C1813 C1812 1.414 . S
C1813 C1814 1.374 . S
C1814 H1788 0.950 . S
C1814 C1810 1.385 . S
C1814 C1813 1.374 . S
C1815 C1812 1.499 . S
C1815 C1816 1.373 . S
C1815 C1817 1.389 . S
C1816 H1789 0.950 . S
C1816 C1802 1.377 . S
C1816 C1815 1.373 . S
C1817 C1801 1.377 . S
C1817 C1815 1.389 . S
C1817 C1818 1.524 . S
C1818 C1817 1.524 . S
C1818 C1819 1.397 . S
C1818 C1823 1.363 . S
C1819 H1790 0.950 . S
C1819 C1818 1.397 . S
C1819 C1820 1.334 . S
C1820 H1791 0.950 . S
C1820 C1819 1.334 . S
C1820 C1821 1.287 . S
C1821 C1820 1.287 . S
C1821 C1822 1.524 . S
C1821 H1824 0.999 1_565 S
C1822 H1792 0.950 . S
C1822 C1821 1.524 . S
C1822 C1823 1.415 . S
C1823 H1793 0.950 . S
C1823 C1818 1.363 . S
C1823 C1822 1.415 . S
H1824 C1821 0.999 1_545 S
H1825 C1806 0.913 . S
H1826 C1844 0.951 . S
H1827 C1846 0.951 . S
H1828 C1848 0.950 1_556 S
H1829 C1849 0.950 1_556 S
H1830 C1851 0.950 . S
H1831 C1854 0.950 . S
H1832 C1855 0.950 . S
H1833 C1857 0.950 . S
H1834 C1858 0.950 . S
H1835 C1859 0.951 1_556 S
H1836 C1861 0.951 1_556 S
H1837 C1863 0.950 . S
H1838 C1864 0.950 . S
H1839 C1866 0.950 . S
H1840 C1869 0.950 . S
H1841 C1870 0.950 . S
H1842 C1872 0.950 . S
H1843 C1873 0.950 . S
C1844 H1826 0.951 . S
C1844 C1845 1.366 . S
C1844 C1846 1.388 . S
C1845 C1844 1.366 . S
C1845 C1849 1.385 . S
C1846 H1827 0.951 . S
C1846 C1844 1.388 . S
C1846 C1847 1.366 . S
C1847 C1846 1.366 . S
C1847 C1848 1.414 . S
C1847 C1850 1.499 . S
C1848 H1828 0.950 1_554 S
C1848 C1847 1.414 . S
C1848 C1849 1.374 . S
C1849 H1829 0.950 1_554 S
C1849 C1845 1.385 . S
C1849 C1848 1.374 . S
C1850 C1847 1.499 . S
C1850 C1851 1.373 . S
C1850 C1852 1.389 . S
C1851 H1830 0.950 . S
C1851 C1850 1.373 . S
C1851 C1867 1.377 . S
C1852 C1850 1.389 . S
C1852 C1853 1.524 . S
C1852 C1866 1.377 . S
C1853 C1852 1.524 . S
C1853 C1854 1.397 1_554 S
C1853 C1858 1.363 . S
C1854 H1831 0.950 . S
C1854 C1853 1.397 1_556 S
C1854 C1855 1.334 . S
C1855 H1832 0.950 . S
C1855 C1854 1.334 . S
C1855 C1856 1.287 . S
C1856 C1855 1.287 . S
C1856 C1857 1.524 1_556 S
C1856 H1875 0.913 . S
C1857 H1833 0.950 . S
C1857 C1856 1.524 1_554 S
C1857 C1858 1.415 . S
C1858 H1834 0.950 . S
C1858 C1853 1.363 . S
C1858 C1857 1.415 . S
C1859 H1835 0.951 1_554 S
C1859 C1860 1.366 . S
C1859 C1861 1.388 . S
C1860 C1859 1.366 . S
C1860 C1864 1.385 . S
C1861 H1836 0.951 1_554 S
C1861 C1859 1.388 . S
C1861 C1862 1.366 . S
C1862 C1861 1.366 . S
C1862 C1863 1.414 . S
C1862 C1865 1.499 . S
C1863 H1837 0.950 . S
C1863 C1862 1.414 . S
C1863 C1864 1.374 . S
C1864 H1838 0.950 . S
C1864 C1860 1.385 . S
C1864 C1863 1.374 . S
C1865 C1862 1.499 . S
C1865 C1866 1.373 . S
C1865 C1867 1.389 . S
C1866 H1839 0.950 . S
C1866 C1852 1.377 . S
C1866 C1865 1.373 . S
C1867 C1851 1.377 . S
C1867 C1865 1.389 . S
C1867 C1868 1.524 . S
C1868 C1867 1.524 . S
C1868 C1869 1.397 . S
C1868 C1873 1.363 . S
C1869 H1840 0.950 . S
C1869 C1868 1.397 . S
C1869 C1870 1.334 . S
C1870 H1841 0.950 . S
C1870 C1869 1.334 . S
C1870 C1871 1.287 . S
C1871 C1870 1.287 . S
C1871 C1872 1.524 . S
C1871 H1874 0.999 . S
C1872 H1842 0.950 . S
C1872 C1871 1.524 . S
C1872 C1873 1.415 . S
C1873 H1843 0.950 . S
C1873 C1868 1.363 . S
C1873 C1872 1.415 . S
H1874 C1871 0.999 . S
H1875 C1856 0.913 . S
H1876 C1894 0.951 . S
H1877 C1896 0.951 . S
H1878 C1898 0.950 . S
H1879 C1899 0.950 . S
H1880 C1901 0.950 . S
H1881 C1904 0.950 . S
H1882 C1905 0.950 . S
H1883 C1907 0.950 . S
H1884 C1908 0.950 . S
H1885 C1909 0.951 . S
H1886 C1911 0.951 . S
H1887 C1913 0.950 . S
H1888 C1914 0.950 . S
H1889 C1916 0.950 . S
H1890 C1919 0.950 . S
H1891 C1920 0.950 . S
H1892 C1922 0.950 . S
H1893 C1923 0.950 . S
C1894 H1876 0.951 . S
C1894 C1895 1.366 . S
C1894 C1896 1.388 . S
C1895 C1894 1.366 . S
C1895 C1899 1.385 . S
C1896 H1877 0.951 . S
C1896 C1894 1.388 . S
C1896 C1897 1.366 . S
C1897 C1896 1.366 . S
C1897 C1898 1.414 . S
C1897 C1900 1.499 . S
C1898 H1878 0.950 . S
C1898 C1897 1.414 . S
C1898 C1899 1.374 . S
C1899 H1879 0.950 . S
C1899 C1895 1.385 . S
C1899 C1898 1.374 . S
C1900 C1897 1.499 . S
C1900 C1901 1.373 . S
C1900 C1902 1.389 . S
C1901 H1880 0.950 . S
C1901 C1900 1.373 . S
C1901 C1917 1.377 . S
C1902 C1900 1.389 . S
C1902 C1903 1.524 . S
C1902 C1916 1.377 . S
C1903 C1902 1.524 . S
C1903 C1904 1.397 . S
C1903 C1908 1.363 . S
C1904 H1881 0.950 . S
C1904 C1903 1.397 . S
C1904 C1905 1.334 . S
C1905 H1882 0.950 . S
C1905 C1904 1.334 . S
C1905 C1906 1.287 . S
C1906 C1905 1.287 . S
C1906 C1907 1.524 . S
C1906 H1925 0.913 . S
C1907 H1883 0.950 . S
C1907 C1906 1.524 . S
C1907 C1908 1.415 . S
C1908 H1884 0.950 . S
C1908 C1903 1.363 . S
C1908 C1907 1.415 . S
C1909 H1885 0.951 . S
C1909 C1910 1.366 . S
C1909 C1911 1.388 . S
C1910 C1909 1.366 . S
C1910 C1914 1.385 . S
C1911 H1886 0.951 . S
C1911 C1909 1.388 . S
C1911 C1912 1.366 . S
C1912 C1911 1.366 . S
C1912 C1913 1.414 . S
C1912 C1915 1.499 . S
C1913 H1887 0.950 . S
C1913 C1912 1.414 . S
C1913 C1914 1.374 . S
C1914 H1888 0.950 . S
C1914 C1910 1.385 . S
C1914 C1913 1.374 . S
C1915 C1912 1.499 . S
C1915 C1916 1.373 . S
C1915 C1917 1.389 . S
C1916 H1889 0.950 . S
C1916 C1902 1.377 . S
C1916 C1915 1.373 . S
C1917 C1901 1.377 . S
C1917 C1915 1.389 . S
C1917 C1918 1.524 . S
C1918 C1917 1.524 . S
C1918 C1919 1.397 . S
C1918 C1923 1.363 . S
C1919 H1890 0.950 . S
C1919 C1918 1.397 . S
C1919 C1920 1.334 . S
C1920 H1891 0.950 . S
C1920 C1919 1.334 . S
C1920 C1921 1.287 . S
C1921 C1920 1.287 . S
C1921 C1922 1.524 . S
C1921 H1924 0.999 . S
C1922 H1892 0.950 . S
C1922 C1921 1.524 . S
C1922 C1923 1.415 . S
C1923 H1893 0.950 . S
C1923 C1918 1.363 . S
C1923 C1922 1.415 . S
H1924 C1921 0.999 . S
H1925 C1906 0.913 . S
H1926 C1944 0.951 . S
H1927 C1946 0.951 . S
H1928 C1948 0.950 . S
H1929 C1949 0.950 . S
H1930 C1951 0.950 . S
H1931 C1954 0.950 . S
H1932 C1955 0.950 . S
H1933 C1957 0.950 . S
H1934 C1958 0.950 . S
H1935 C1959 0.951 . S
H1936 C1961 0.951 . S
H1937 C1963 0.950 . S
H1938 C1964 0.950 . S
H1939 C1966 0.950 . S
H1940 C1969 0.950 . S
H1941 C1970 0.950 . S
H1942 C1972 0.950 . S
H1943 C1973 0.950 . S
C1944 H1926 0.951 . S
C1944 C1945 1.366 . S
C1944 C1946 1.388 . S
C1945 C1944 1.366 . S
C1945 C1949 1.385 . S
C1946 H1927 0.951 . S
C1946 C1944 1.388 . S
C1946 C1947 1.366 . S
C1947 C1946 1.366 . S
C1947 C1948 1.414 . S
C1947 C1950 1.499 . S
C1948 H1928 0.950 . S
C1948 C1947 1.414 . S
C1948 C1949 1.374 . S
C1949 H1929 0.950 . S
C1949 C1945 1.385 . S
C1949 C1948 1.374 . S
C1950 C1947 1.499 . S
C1950 C1951 1.373 . S
C1950 C1952 1.389 . S
C1951 H1930 0.950 . S
C1951 C1950 1.373 . S
C1951 C1967 1.377 . S
C1952 C1950 1.389 . S
C1952 C1953 1.524 . S
C1952 C1966 1.377 . S
C1953 C1952 1.524 . S
C1953 C1954 1.397 . S
C1953 C1958 1.363 . S
C1954 H1931 0.950 . S
C1954 C1953 1.397 . S
C1954 C1955 1.334 . S
C1955 H1932 0.950 . S
C1955 C1954 1.334 . S
C1955 C1956 1.287 . S
C1956 C1955 1.287 . S
C1956 C1957 1.524 . S
C1956 H1975 0.913 . S
C1957 H1933 0.950 . S
C1957 C1956 1.524 . S
C1957 C1958 1.415 . S
C1958 H1934 0.950 . S
C1958 C1953 1.363 . S
C1958 C1957 1.415 . S
C1959 H1935 0.951 . S
C1959 C1960 1.366 . S
C1959 C1961 1.388 . S
C1960 C1959 1.366 . S
C1960 C1964 1.385 . S
C1961 H1936 0.951 . S
C1961 C1959 1.388 . S
C1961 C1962 1.366 . S
C1962 C1961 1.366 . S
C1962 C1963 1.414 . S
C1962 C1965 1.499 . S
C1963 H1937 0.950 . S
C1963 C1962 1.414 . S
C1963 C1964 1.374 . S
C1964 H1938 0.950 . S
C1964 C1960 1.385 . S
C1964 C1963 1.374 . S
C1965 C1962 1.499 . S
C1965 C1966 1.373 . S
C1965 C1967 1.389 . S
C1966 H1939 0.950 . S
C1966 C1952 1.377 . S
C1966 C1965 1.373 . S
C1967 C1951 1.377 . S
C1967 C1965 1.389 . S
C1967 C1968 1.524 . S
C1968 C1967 1.524 . S
C1968 C1969 1.397 . S
C1968 C1973 1.363 . S
C1969 H1940 0.950 . S
C1969 C1968 1.397 . S
C1969 C1970 1.334 . S
C1970 H1941 0.950 . S
C1970 C1969 1.334 . S
C1970 C1971 1.287 . S
C1971 C1970 1.287 . S
C1971 C1972 1.524 . S
C1971 H1974 0.999 . S
C1972 H1942 0.950 . S
C1972 C1971 1.524 . S
C1972 C1973 1.415 . S
C1973 H1943 0.950 . S
C1973 C1968 1.363 . S
C1973 C1972 1.415 . S
H1974 C1971 0.999 . S
H1975 C1956 0.913 . S
H1976 C1994 0.951 . S
H1977 C1996 0.951 . S
H1978 C1998 0.950 . S
H1979 C1999 0.950 . S
H1980 C2001 0.950 . S
H1981 C2004 0.950 . S
H1982 C2005 0.950 . S
H1983 C2007 0.950 . S
H1984 C2008 0.950 . S
H1985 C2009 0.951 . S
H1986 C2011 0.951 . S
H1987 C2013 0.950 . S
H1988 C2014 0.950 . S
H1989 C2016 0.950 . S
H1990 C2019 0.950 . S
H1991 C2020 0.950 . S
H1992 C2022 0.950 . S
H1993 C2023 0.950 . S
C1994 H1976 0.951 . S
C1994 C1995 1.366 . S
C1994 C1996 1.388 . S
C1995 C1994 1.366 . S
C1995 C1999 1.385 . S
C1996 H1977 0.951 . S
C1996 C1994 1.388 . S
C1996 C1997 1.366 . S
C1997 C1996 1.366 . S
C1997 C1998 1.414 . S
C1997 C2000 1.499 . S
C1998 H1978 0.950 . S
C1998 C1997 1.414 . S
C1998 C1999 1.374 . S
C1999 H1979 0.950 . S
C1999 C1995 1.385 . S
C1999 C1998 1.374 . S
C2000 C1997 1.499 . S
C2000 C2001 1.373 . S
C2000 C2002 1.389 . S
C2001 H1980 0.950 . S
C2001 C2000 1.373 . S
C2001 C2017 1.377 . S
C2002 C2000 1.389 . S
C2002 C2003 1.524 . S
C2002 C2016 1.377 . S
C2003 C2002 1.524 . S
C2003 C2004 1.397 . S
C2003 C2008 1.363 . S
C2004 H1981 0.950 . S
C2004 C2003 1.397 . S
C2004 C2005 1.334 . S
C2005 H1982 0.950 . S
C2005 C2004 1.334 . S
C2005 C2006 1.287 . S
C2006 C2005 1.287 . S
C2006 C2007 1.524 . S
C2006 H2025 0.913 . S
C2007 H1983 0.950 . S
C2007 C2006 1.524 . S
C2007 C2008 1.415 . S
C2008 H1984 0.950 . S
C2008 C2003 1.363 . S
C2008 C2007 1.415 . S
C2009 H1985 0.951 . S
C2009 C2010 1.366 . S
C2009 C2011 1.388 . S
C2010 C2009 1.366 . S
C2010 C2014 1.385 . S
C2011 H1986 0.951 . S
C2011 C2009 1.388 . S
C2011 C2012 1.366 . S
C2012 C2011 1.366 . S
C2012 C2013 1.414 . S
C2012 C2015 1.499 . S
C2013 H1987 0.950 . S
C2013 C2012 1.414 . S
C2013 C2014 1.374 . S
C2014 H1988 0.950 . S
C2014 C2010 1.385 . S
C2014 C2013 1.374 . S
C2015 C2012 1.499 . S
C2015 C2016 1.373 . S
C2015 C2017 1.389 . S
C2016 H1989 0.950 . S
C2016 C2002 1.377 . S
C2016 C2015 1.373 . S
C2017 C2001 1.377 . S
C2017 C2015 1.389 . S
C2017 C2018 1.524 . S
C2018 C2017 1.524 . S
C2018 C2019 1.397 . S
C2018 C2023 1.363 . S
C2019 H1990 0.950 . S
C2019 C2018 1.397 . S
C2019 C2020 1.334 . S
C2020 H1991 0.950 . S
C2020 C2019 1.334 . S
C2020 C2021 1.287 . S
C2021 C2020 1.287 . S
C2021 C2022 1.524 . S
C2021 H2024 0.999 . S
C2022 H1992 0.950 . S
C2022 C2021 1.524 . S
C2022 C2023 1.415 . S
C2023 H1993 0.950 . S
C2023 C2018 1.363 . S
C2023 C2022 1.415 . S
H2024 C2021 0.999 . S
H2025 C2006 0.913 . S
H2026 C2044 0.951 . S
H2027 C2046 0.951 . S
H2028 C2048 0.950 . S
H2029 C2049 0.950 . S
H2030 C2051 0.950 . S
H2031 C2054 0.950 . S
H2032 C2055 0.950 . S
H2033 C2057 0.950 . S
H2034 C2058 0.950 . S
H2035 C2059 0.951 . S
H2036 C2061 0.951 . S
H2037 C2063 0.950 . S
H2038 C2064 0.950 . S
H2039 C2066 0.950 . S
H2040 C2069 0.950 . S
H2041 C2070 0.950 . S
H2042 C2072 0.950 . S
H2043 C2073 0.950 . S
C2044 H2026 0.951 . S
C2044 C2045 1.366 . S
C2044 C2046 1.388 . S
C2045 C2044 1.366 . S
C2045 C2049 1.385 . S
C2046 H2027 0.951 . S
C2046 C2044 1.388 . S
C2046 C2047 1.366 . S
C2047 C2046 1.366 . S
C2047 C2048 1.414 . S
C2047 C2050 1.499 . S
C2048 H2028 0.950 . S
C2048 C2047 1.414 . S
C2048 C2049 1.374 . S
C2049 H2029 0.950 . S
C2049 C2045 1.385 . S
C2049 C2048 1.374 . S
C2050 C2047 1.499 . S
C2050 C2051 1.373 . S
C2050 C2052 1.389 . S
C2051 H2030 0.950 . S
C2051 C2050 1.373 . S
C2051 C2067 1.377 . S
C2052 C2050 1.389 . S
C2052 C2053 1.524 . S
C2052 C2066 1.377 . S
C2053 C2052 1.524 . S
C2053 C2054 1.397 . S
C2053 C2058 1.363 . S
C2054 H2031 0.950 . S
C2054 C2053 1.397 . S
C2054 C2055 1.334 . S
C2055 H2032 0.950 . S
C2055 C2054 1.334 . S
C2055 C2056 1.287 . S
C2056 C2055 1.287 . S
C2056 C2057 1.524 . S
C2056 H2075 0.913 . S
C2057 H2033 0.950 . S
C2057 C2056 1.524 . S
C2057 C2058 1.415 . S
C2058 H2034 0.950 . S
C2058 C2053 1.363 . S
C2058 C2057 1.415 . S
C2059 H2035 0.951 . S
C2059 C2060 1.366 . S
C2059 C2061 1.388 . S
C2060 C2059 1.366 . S
C2060 C2064 1.385 . S
C2061 H2036 0.951 . S
C2061 C2059 1.388 . S
C2061 C2062 1.366 . S
C2062 C2061 1.366 . S
C2062 C2063 1.414 . S
C2062 C2065 1.499 . S
C2063 H2037 0.950 . S
C2063 C2062 1.414 . S
C2063 C2064 1.374 . S
C2064 H2038 0.950 . S
C2064 C2060 1.385 . S
C2064 C2063 1.374 . S
C2065 C2062 1.499 . S
C2065 C2066 1.373 . S
C2065 C2067 1.389 . S
C2066 H2039 0.950 . S
C2066 C2052 1.377 . S
C2066 C2065 1.373 . S
C2067 C2051 1.377 . S
C2067 C2065 1.389 . S
C2067 C2068 1.524 . S
C2068 C2067 1.524 . S
C2068 C2069 1.397 . S
C2068 C2073 1.363 . S
C2069 H2040 0.950 . S
C2069 C2068 1.397 . S
C2069 C2070 1.334 . S
C2070 H2041 0.950 . S
C2070 C2069 1.334 . S
C2070 C2071 1.287 . S
C2071 C2070 1.287 . S
C2071 C2072 1.524 . S
C2071 H2074 0.999 . S
C2072 H2042 0.950 . S
C2072 C2071 1.524 . S
C2072 C2073 1.415 . S
C2073 H2043 0.950 . S
C2073 C2068 1.363 . S
C2073 C2072 1.415 . S
H2074 C2071 0.999 . S
H2075 C2056 0.913 . S
H2076 C2094 0.951 . S
H2077 C2096 0.951 . S
H2078 C2098 0.950 . S
H2079 C2099 0.950 . S
H2080 C2101 0.950 . S
H2081 C2104 0.950 . S
H2082 C2105 0.950 . S
H2083 C2107 0.950 . S
H2084 C2108 0.950 . S
H2085 C2109 0.951 . S
H2086 C2111 0.951 . S
H2087 C2113 0.950 . S
H2088 C2114 0.950 . S
H2089 C2116 0.950 . S
H2090 C2119 0.950 . S
H2091 C2120 0.950 . S
H2092 C2122 0.950 . S
H2093 C2123 0.950 . S
C2094 H2076 0.951 . S
C2094 C2095 1.366 . S
C2094 C2096 1.388 . S
C2095 C2094 1.366 . S
C2095 C2099 1.385 . S
C2096 H2077 0.951 . S
C2096 C2094 1.388 . S
C2096 C2097 1.366 . S
C2097 C2096 1.366 . S
C2097 C2098 1.414 . S
C2097 C2100 1.499 . S
C2098 H2078 0.950 . S
C2098 C2097 1.414 . S
C2098 C2099 1.374 . S
C2099 H2079 0.950 . S
C2099 C2095 1.385 . S
C2099 C2098 1.374 . S
C2100 C2097 1.499 . S
C2100 C2101 1.373 . S
C2100 C2102 1.389 . S
C2101 H2080 0.950 . S
C2101 C2100 1.373 . S
C2101 C2117 1.377 . S
C2102 C2100 1.389 . S
C2102 C2103 1.524 . S
C2102 C2116 1.377 . S
C2103 C2102 1.524 . S
C2103 C2104 1.397 . S
C2103 C2108 1.363 . S
C2104 H2081 0.950 . S
C2104 C2103 1.397 . S
C2104 C2105 1.334 . S
C2105 H2082 0.950 . S
C2105 C2104 1.334 . S
C2105 C2106 1.287 . S
C2106 C2105 1.287 . S
C2106 C2107 1.524 . S
C2106 H2125 0.913 . S
C2107 H2083 0.950 . S
C2107 C2106 1.524 . S
C2107 C2108 1.415 . S
C2108 H2084 0.950 . S
C2108 C2103 1.363 . S
C2108 C2107 1.415 . S
C2109 H2085 0.951 . S
C2109 C2110 1.366 . S
C2109 C2111 1.388 . S
C2110 C2109 1.366 . S
C2110 C2114 1.385 . S
C2111 H2086 0.951 . S
C2111 C2109 1.388 . S
C2111 C2112 1.366 . S
C2112 C2111 1.366 . S
C2112 C2113 1.414 . S
C2112 C2115 1.499 . S
C2113 H2087 0.950 . S
C2113 C2112 1.414 . S
C2113 C2114 1.374 . S
C2114 H2088 0.950 . S
C2114 C2110 1.385 . S
C2114 C2113 1.374 . S
C2115 C2112 1.499 . S
C2115 C2116 1.373 . S
C2115 C2117 1.389 . S
C2116 H2089 0.950 . S
C2116 C2102 1.377 . S
C2116 C2115 1.373 . S
C2117 C2101 1.377 . S
C2117 C2115 1.389 . S
C2117 C2118 1.524 . S
C2118 C2117 1.524 . S
C2118 C2119 1.397 . S
C2118 C2123 1.363 . S
C2119 H2090 0.950 . S
C2119 C2118 1.397 . S
C2119 C2120 1.334 . S
C2120 H2091 0.950 . S
C2120 C2119 1.334 . S
C2120 C2121 1.287 . S
C2121 C2120 1.287 . S
C2121 C2122 1.524 . S
C2121 H2124 0.999 . S
C2122 H2092 0.950 . S
C2122 C2121 1.524 . S
C2122 C2123 1.415 . S
C2123 H2093 0.950 . S
C2123 C2118 1.363 . S
C2123 C2122 1.415 . S
H2124 C2121 0.999 . S
H2125 C2106 0.913 . S
H2126 C2144 0.951 . S
H2127 C2146 0.951 . S
H2128 C2148 0.950 . S
H2129 C2149 0.950 . S
H2130 C2151 0.950 . S
H2131 C2154 0.950 . S
H2132 C2155 0.950 . S
H2133 C2157 0.950 . S
H2134 C2158 0.950 . S
H2135 C2159 0.951 . S
H2136 C2161 0.951 . S
H2137 C2163 0.950 . S
H2138 C2164 0.950 . S
H2139 C2166 0.950 . S
H2140 C2169 0.950 . S
H2141 C2170 0.950 . S
H2142 C2172 0.950 . S
H2143 C2173 0.950 . S
C2144 H2126 0.951 . S
C2144 C2145 1.366 . S
C2144 C2146 1.388 . S
C2145 C2144 1.366 . S
C2145 C2149 1.385 . S
C2146 H2127 0.951 . S
C2146 C2144 1.388 . S
C2146 C2147 1.366 . S
C2147 C2146 1.366 . S
C2147 C2148 1.414 . S
C2147 C2150 1.499 . S
C2148 H2128 0.950 . S
C2148 C2147 1.414 . S
C2148 C2149 1.374 . S
C2149 H2129 0.950 . S
C2149 C2145 1.385 . S
C2149 C2148 1.374 . S
C2150 C2147 1.499 . S
C2150 C2151 1.373 . S
C2150 C2152 1.389 . S
C2151 H2130 0.950 . S
C2151 C2150 1.373 . S
C2151 C2167 1.377 . S
C2152 C2150 1.389 . S
C2152 C2153 1.524 . S
C2152 C2166 1.377 . S
C2153 C2152 1.524 . S
C2153 C2154 1.397 . S
C2153 C2158 1.363 . S
C2154 H2131 0.950 . S
C2154 C2153 1.397 . S
C2154 C2155 1.334 . S
C2155 H2132 0.950 . S
C2155 C2154 1.334 . S
C2155 C2156 1.287 . S
C2156 C2155 1.287 . S
C2156 C2157 1.524 . S
C2156 H2175 0.913 . S
C2157 H2133 0.950 . S
C2157 C2156 1.524 . S
C2157 C2158 1.415 . S
C2158 H2134 0.950 . S
C2158 C2153 1.363 . S
C2158 C2157 1.415 . S
C2159 H2135 0.951 . S
C2159 C2160 1.366 . S
C2159 C2161 1.388 . S
C2160 C2159 1.366 . S
C2160 C2164 1.385 . S
C2161 H2136 0.951 . S
C2161 C2159 1.388 . S
C2161 C2162 1.366 . S
C2162 C2161 1.366 . S
C2162 C2163 1.414 . S
C2162 C2165 1.499 . S
C2163 H2137 0.950 . S
C2163 C2162 1.414 . S
C2163 C2164 1.374 . S
C2164 H2138 0.950 . S
C2164 C2160 1.385 . S
C2164 C2163 1.374 . S
C2165 C2162 1.499 . S
C2165 C2166 1.373 . S
C2165 C2167 1.389 . S
C2166 H2139 0.950 . S
C2166 C2152 1.377 . S
C2166 C2165 1.373 . S
C2167 C2151 1.377 . S
C2167 C2165 1.389 . S
C2167 C2168 1.524 . S
C2168 C2167 1.524 . S
C2168 C2169 1.397 . S
C2168 C2173 1.363 . S
C2169 H2140 0.950 . S
C2169 C2168 1.397 . S
C2169 C2170 1.334 . S
C2170 H2141 0.950 . S
C2170 C2169 1.334 . S
C2170 C2171 1.287 . S
C2171 C2170 1.287 . S
C2171 C2172 1.524 . S
C2171 H2174 0.999 . S
C2172 H2142 0.950 . S
C2172 C2171 1.524 . S
C2172 C2173 1.415 . S
C2173 H2143 0.950 . S
C2173 C2168 1.363 . S
C2173 C2172 1.415 . S
H2174 C2171 0.999 . S
H2175 C2156 0.913 . S
H2176 C2194 0.951 . S
H2177 C2196 0.951 . S
H2178 C2198 0.950 . S
H2179 C2199 0.950 . S
H2180 C2201 0.950 . S
H2181 C2204 0.950 . S
H2182 C2205 0.950 . S
H2183 C2207 0.950 . S
H2184 C2208 0.950 . S
H2185 C2209 0.951 . S
H2186 C2211 0.951 . S
H2187 C2213 0.950 . S
H2188 C2214 0.950 . S
H2189 C2216 0.950 . S
H2190 C2219 0.950 . S
H2191 C2220 0.950 . S
H2192 C2222 0.950 . S
H2193 C2223 0.950 . S
C2194 H2176 0.951 . S
C2194 C2195 1.366 . S
C2194 C2196 1.388 . S
C2195 C2194 1.366 . S
C2195 C2199 1.385 . S
C2196 H2177 0.951 . S
C2196 C2194 1.388 . S
C2196 C2197 1.366 . S
C2197 C2196 1.366 . S
C2197 C2198 1.414 . S
C2197 C2200 1.499 . S
C2198 H2178 0.950 . S
C2198 C2197 1.414 . S
C2198 C2199 1.374 . S
C2199 H2179 0.950 . S
C2199 C2195 1.385 . S
C2199 C2198 1.374 . S
C2200 C2197 1.499 . S
C2200 C2201 1.373 . S
C2200 C2202 1.389 . S
C2201 H2180 0.950 . S
C2201 C2200 1.373 . S
C2201 C2217 1.377 . S
C2202 C2200 1.389 . S
C2202 C2203 1.524 . S
C2202 C2216 1.377 . S
C2203 C2202 1.524 . S
C2203 C2204 1.397 . S
C2203 C2208 1.363 . S
C2204 H2181 0.950 . S
C2204 C2203 1.397 . S
C2204 C2205 1.334 1_455 S
C2205 H2182 0.950 . S
C2205 C2204 1.334 1_655 S
C2205 C2206 1.287 . S
C2206 C2205 1.287 . S
C2206 C2207 1.524 1_655 S
C2206 H2225 0.913 . S
C2207 H2183 0.950 . S
C2207 C2206 1.524 1_455 S
C2207 C2208 1.415 . S
C2208 H2184 0.950 . S
C2208 C2203 1.363 . S
C2208 C2207 1.415 . S
C2209 H2185 0.951 . S
C2209 C2210 1.366 . S
C2209 C2211 1.388 . S
C2210 C2209 1.366 . S
C2210 C2214 1.385 . S
C2211 H2186 0.951 . S
C2211 C2209 1.388 . S
C2211 C2212 1.366 . S
C2212 C2211 1.366 . S
C2212 C2213 1.414 . S
C2212 C2215 1.499 . S
C2213 H2187 0.950 . S
C2213 C2212 1.414 . S
C2213 C2214 1.374 . S
C2214 H2188 0.950 . S
C2214 C2210 1.385 . S
C2214 C2213 1.374 . S
C2215 C2212 1.499 . S
C2215 C2216 1.373 . S
C2215 C2217 1.389 . S
C2216 H2189 0.950 . S
C2216 C2202 1.377 . S
C2216 C2215 1.373 . S
C2217 C2201 1.377 . S
C2217 C2215 1.389 . S
C2217 C2218 1.524 . S
C2218 C2217 1.524 . S
C2218 C2219 1.397 . S
C2218 C2223 1.363 . S
C2219 H2190 0.950 . S
C2219 C2218 1.397 . S
C2219 C2220 1.334 . S
C2220 H2191 0.950 . S
C2220 C2219 1.334 . S
C2220 C2221 1.287 . S
C2221 C2220 1.287 . S
C2221 C2222 1.524 . S
C2221 H2224 0.999 . S
C2222 H2192 0.950 . S
C2222 C2221 1.524 . S
C2222 C2223 1.415 . S
C2223 H2193 0.950 . S
C2223 C2218 1.363 . S
C2223 C2222 1.415 . S
H2224 C2221 0.999 . S
H2225 C2206 0.913 . S
H2226 C2244 0.951 . S
H2227 C2246 0.951 . S
H2228 C2248 0.950 . S
H2229 C2249 0.950 . S
H2230 C2251 0.950 . S
H2231 C2254 0.950 . S
H2232 C2255 0.950 . S
H2233 C2257 0.950 . S
H2234 C2258 0.950 . S
H2235 C2259 0.951 . S
H2236 C2261 0.951 . S
H2237 C2263 0.950 . S
H2238 C2264 0.950 . S
H2239 C2266 0.950 . S
H2240 C2269 0.950 . S
H2241 C2270 0.950 . S
H2242 C2272 0.950 . S
H2243 C2273 0.950 . S
C2244 H2226 0.951 . S
C2244 C2245 1.366 . S
C2244 C2246 1.388 . S
C2245 C2244 1.366 . S
C2245 C2249 1.385 . S
C2246 H2227 0.951 . S
C2246 C2244 1.388 . S
C2246 C2247 1.366 . S
C2247 C2246 1.366 . S
C2247 C2248 1.414 . S
C2247 C2250 1.499 . S
C2248 H2228 0.950 . S
C2248 C2247 1.414 . S
C2248 C2249 1.374 . S
C2249 H2229 0.950 . S
C2249 C2245 1.385 . S
C2249 C2248 1.374 . S
C2250 C2247 1.499 . S
C2250 C2251 1.373 . S
C2250 C2252 1.389 . S
C2251 H2230 0.950 . S
C2251 C2250 1.373 . S
C2251 C2267 1.377 . S
C2252 C2250 1.389 . S
C2252 C2253 1.524 . S
C2252 C2266 1.377 . S
C2253 C2252 1.524 . S
C2253 C2254 1.397 . S
C2253 C2258 1.363 . S
C2254 H2231 0.950 . S
C2254 C2253 1.397 . S
C2254 C2255 1.334 . S
C2255 H2232 0.950 . S
C2255 C2254 1.334 . S
C2255 C2256 1.287 . S
C2256 C2255 1.287 . S
C2256 C2257 1.524 . S
C2256 H2275 0.913 . S
C2257 H2233 0.950 . S
C2257 C2256 1.524 . S
C2257 C2258 1.415 . S
C2258 H2234 0.950 . S
C2258 C2253 1.363 . S
C2258 C2257 1.415 . S
C2259 H2235 0.951 . S
C2259 C2260 1.366 . S
C2259 C2261 1.388 . S
C2260 C2259 1.366 . S
C2260 C2264 1.385 . S
C2261 H2236 0.951 . S
C2261 C2259 1.388 . S
C2261 C2262 1.366 . S
C2262 C2261 1.366 . S
C2262 C2263 1.414 . S
C2262 C2265 1.499 . S
C2263 H2237 0.950 . S
C2263 C2262 1.414 . S
C2263 C2264 1.374 . S
C2264 H2238 0.950 . S
C2264 C2260 1.385 . S
C2264 C2263 1.374 . S
C2265 C2262 1.499 . S
C2265 C2266 1.373 . S
C2265 C2267 1.389 . S
C2266 H2239 0.950 . S
C2266 C2252 1.377 . S
C2266 C2265 1.373 . S
C2267 C2251 1.377 . S
C2267 C2265 1.389 . S
C2267 C2268 1.524 . S
C2268 C2267 1.524 . S
C2268 C2269 1.397 . S
C2268 C2273 1.363 . S
C2269 H2240 0.950 . S
C2269 C2268 1.397 . S
C2269 C2270 1.334 . S
C2270 H2241 0.950 . S
C2270 C2269 1.334 . S
C2270 C2271 1.287 . S
C2271 C2270 1.287 . S
C2271 C2272 1.524 . S
C2271 H2274 0.999 . S
C2272 H2242 0.950 . S
C2272 C2271 1.524 . S
C2272 C2273 1.415 . S
C2273 H2243 0.950 . S
C2273 C2268 1.363 . S
C2273 C2272 1.415 . S
H2274 C2271 0.999 . S
H2275 C2256 0.913 . S
H2276 C2294 0.951 . S
H2277 C2296 0.951 . S
H2278 C2298 0.950 . S
H2279 C2299 0.950 . S
H2280 C2301 0.950 . S
H2281 C2304 0.950 . S
H2282 C2305 0.950 . S
H2283 C2307 0.950 . S
H2284 C2308 0.950 . S
H2285 C2309 0.951 . S
H2286 C2311 0.951 . S
H2287 C2313 0.950 . S
H2288 C2314 0.950 . S
H2289 C2316 0.950 . S
H2290 C2319 0.950 . S
H2291 C2320 0.950 . S
H2292 C2322 0.950 . S
H2293 C2323 0.950 . S
C2294 H2276 0.951 . S
C2294 C2295 1.366 . S
C2294 C2296 1.388 . S
C2295 C2294 1.366 . S
C2295 C2299 1.385 . S
C2296 H2277 0.951 . S
C2296 C2294 1.388 . S
C2296 C2297 1.366 . S
C2297 C2296 1.366 . S
C2297 C2298 1.414 . S
C2297 C2300 1.499 . S
C2298 H2278 0.950 . S
C2298 C2297 1.414 . S
C2298 C2299 1.374 . S
C2299 H2279 0.950 . S
C2299 C2295 1.385 . S
C2299 C2298 1.374 . S
C2300 C2297 1.499 . S
C2300 C2301 1.373 . S
C2300 C2302 1.389 . S
C2301 H2280 0.950 . S
C2301 C2300 1.373 . S
C2301 C2317 1.377 . S
C2302 C2300 1.389 . S
C2302 C2303 1.524 . S
C2302 C2316 1.377 . S
C2303 C2302 1.524 . S
C2303 C2304 1.397 . S
C2303 C2308 1.363 . S
C2304 H2281 0.950 . S
C2304 C2303 1.397 . S
C2304 C2305 1.334 . S
C2305 H2282 0.950 . S
C2305 C2304 1.334 . S
C2305 C2306 1.287 . S
C2306 C2305 1.287 . S
C2306 C2307 1.524 . S
C2306 H2325 0.913 . S
C2307 H2283 0.950 . S
C2307 C2306 1.524 . S
C2307 C2308 1.415 . S
C2308 H2284 0.950 . S
C2308 C2303 1.363 . S
C2308 C2307 1.415 . S
C2309 H2285 0.951 . S
C2309 C2310 1.366 . S
C2309 C2311 1.388 . S
C2310 C2309 1.366 . S
C2310 C2314 1.385 . S
C2311 H2286 0.951 . S
C2311 C2309 1.388 . S
C2311 C2312 1.366 . S
C2312 C2311 1.366 . S
C2312 C2313 1.414 . S
C2312 C2315 1.499 . S
C2313 H2287 0.950 . S
C2313 C2312 1.414 . S
C2313 C2314 1.374 . S
C2314 H2288 0.950 . S
C2314 C2310 1.385 . S
C2314 C2313 1.374 . S
C2315 C2312 1.499 . S
C2315 C2316 1.373 . S
C2315 C2317 1.389 . S
C2316 H2289 0.950 . S
C2316 C2302 1.377 . S
C2316 C2315 1.373 . S
C2317 C2301 1.377 . S
C2317 C2315 1.389 . S
C2317 C2318 1.524 . S
C2318 C2317 1.524 . S
C2318 C2319 1.397 . S
C2318 C2323 1.363 . S
C2319 H2290 0.950 . S
C2319 C2318 1.397 . S
C2319 C2320 1.334 . S
C2320 H2291 0.950 . S
C2320 C2319 1.334 . S
C2320 C2321 1.287 . S
C2321 C2320 1.287 . S
C2321 C2322 1.524 . S
C2321 H2324 0.999 . S
C2322 H2292 0.950 . S
C2322 C2321 1.524 . S
C2322 C2323 1.415 . S
C2323 H2293 0.950 . S
C2323 C2318 1.363 . S
C2323 C2322 1.415 . S
H2324 C2321 0.999 . S
H2325 C2306 0.913 . S
H2326 C2344 0.951 . S
H2327 C2346 0.951 . S
H2328 C2348 0.950 . S
H2329 C2349 0.950 . S
H2330 C2351 0.950 . S
H2331 C2354 0.950 . S
H2332 C2355 0.950 . S
H2333 C2357 0.950 . S
H2334 C2358 0.950 . S
H2335 C2359 0.951 . S
H2336 C2361 0.951 . S
H2337 C2363 0.950 . S
H2338 C2364 0.950 . S
H2339 C2366 0.950 . S
H2340 C2369 0.950 . S
H2341 C2370 0.950 . S
H2342 C2372 0.950 . S
H2343 C2373 0.950 . S
C2344 H2326 0.951 . S
C2344 C2345 1.366 . S
C2344 C2346 1.388 . S
C2345 C2344 1.366 . S
C2345 C2349 1.385 . S
C2346 H2327 0.951 . S
C2346 C2344 1.388 . S
C2346 C2347 1.366 . S
C2347 C2346 1.366 . S
C2347 C2348 1.414 . S
C2347 C2350 1.499 . S
C2348 H2328 0.950 . S
C2348 C2347 1.414 . S
C2348 C2349 1.374 . S
C2349 H2329 0.950 . S
C2349 C2345 1.385 . S
C2349 C2348 1.374 . S
C2350 C2347 1.499 . S
C2350 C2351 1.373 . S
C2350 C2352 1.389 . S
C2351 H2330 0.950 . S
C2351 C2350 1.373 . S
C2351 C2367 1.377 . S
C2352 C2350 1.389 . S
C2352 C2353 1.524 . S
C2352 C2366 1.377 . S
C2353 C2352 1.524 . S
C2353 C2354 1.397 . S
C2353 C2358 1.363 . S
C2354 H2331 0.950 . S
C2354 C2353 1.397 . S
C2354 C2355 1.334 . S
C2355 H2332 0.950 . S
C2355 C2354 1.334 . S
C2355 C2356 1.287 . S
C2356 C2355 1.287 . S
C2356 C2357 1.524 . S
C2356 H2375 0.913 . S
C2357 H2333 0.950 . S
C2357 C2356 1.524 . S
C2357 C2358 1.415 . S
C2358 H2334 0.950 . S
C2358 C2353 1.363 . S
C2358 C2357 1.415 . S
C2359 H2335 0.951 . S
C2359 C2360 1.366 . S
C2359 C2361 1.388 . S
C2360 C2359 1.366 . S
C2360 C2364 1.385 . S
C2361 H2336 0.951 . S
C2361 C2359 1.388 . S
C2361 C2362 1.366 . S
C2362 C2361 1.366 . S
C2362 C2363 1.414 . S
C2362 C2365 1.499 . S
C2363 H2337 0.950 . S
C2363 C2362 1.414 . S
C2363 C2364 1.374 . S
C2364 H2338 0.950 . S
C2364 C2360 1.385 . S
C2364 C2363 1.374 . S
C2365 C2362 1.499 . S
C2365 C2366 1.373 . S
C2365 C2367 1.389 . S
C2366 H2339 0.950 . S
C2366 C2352 1.377 . S
C2366 C2365 1.373 . S
C2367 C2351 1.377 . S
C2367 C2365 1.389 . S
C2367 C2368 1.524 . S
C2368 C2367 1.524 . S
C2368 C2369 1.397 . S
C2368 C2373 1.363 . S
C2369 H2340 0.950 . S
C2369 C2368 1.397 . S
C2369 C2370 1.334 . S
C2370 H2341 0.950 . S
C2370 C2369 1.334 . S
C2370 C2371 1.287 . S
C2371 C2370 1.287 . S
C2371 C2372 1.524 . S
C2371 H2374 0.999 . S
C2372 H2342 0.950 . S
C2372 C2371 1.524 . S
C2372 C2373 1.415 . S
C2373 H2343 0.950 . S
C2373 C2368 1.363 . S
C2373 C2372 1.415 . S
H2374 C2371 0.999 . S
H2375 C2356 0.913 . S
H2376 C2394 0.951 . S
H2377 C2396 0.951 . S
H2378 C2398 0.950 . S
H2379 C2399 0.950 . S
H2380 C2401 0.950 . S
H2381 C2404 0.950 . S
H2382 C2405 0.950 . S
H2383 C2407 0.950 . S
H2384 C2408 0.950 . S
H2385 C2409 0.951 1_655 S
H2386 C2411 0.953 . S
H2387 C2413 0.950 . S
H2388 C2414 0.950 . S
H2389 C2416 0.950 . S
H2390 C2419 0.950 . S
H2391 C2420 0.950 . S
H2392 C2422 0.950 . S
H2393 C2423 0.950 . S
C2394 H2376 0.951 . S
C2394 C2395 1.367 . S
C2394 C2396 1.388 . S
C2395 C2394 1.367 . S
C2395 C2399 1.390 1_455 S
C2396 H2377 0.951 . S
C2396 C2394 1.388 . S
C2396 C2397 1.366 . S
C2397 C2396 1.366 . S
C2397 C2398 1.414 1_455 S
C2397 C2400 1.499 . S
C2398 H2378 0.950 . S
C2398 C2397 1.414 1_655 S
C2398 C2399 1.374 . S
C2399 H2379 0.950 . S
C2399 C2395 1.390 1_655 S
C2399 C2398 1.374 . S
C2400 C2397 1.499 . S
C2400 C2401 1.373 1_455 S
C2400 C2402 1.389 . S
C2401 H2380 0.950 . S
C2401 C2400 1.373 1_655 S
C2401 C2417 1.377 . S
C2402 C2400 1.389 . S
C2402 C2403 1.524 . S
C2402 C2416 1.377 . S
C2403 C2402 1.524 . S
C2403 C2404 1.397 . S
C2403 C2408 1.363 . S
C2404 H2381 0.950 . S
C2404 C2403 1.397 . S
C2404 C2405 1.334 . S
C2405 H2382 0.950 . S
C2405 C2404 1.334 . S
C2405 C2406 1.287 . S
C2406 C2405 1.287 . S
C2406 C2407 1.524 . S
C2406 H2425 0.913 . S
C2407 H2383 0.950 . S
C2407 C2406 1.524 . S
C2407 C2408 1.415 . S
C2408 H2384 0.950 . S
C2408 C2403 1.363 . S
C2408 C2407 1.415 . S
C2409 H2385 0.951 1_455 S
C2409 C2410 1.366 . S
C2409 C2411 1.381 1_455 S
C2410 C2409 1.366 . S
C2410 C2414 1.385 . S
C2411 H2386 0.953 . S
C2411 C2409 1.381 1_655 S
C2411 C2412 1.373 1_655 S
C2412 C2411 1.373 1_455 S
C2412 C2413 1.414 . S
C2412 C2415 1.499 . S
C2413 H2387 0.950 . S
C2413 C2412 1.414 . S
C2413 C2414 1.374 . S
C2414 H2388 0.950 . S
C2414 C2410 1.385 . S
C2414 C2413 1.374 . S
C2415 C2412 1.499 . S
C2415 C2416 1.373 . S
C2415 C2417 1.389 1_455 S
C2416 H2389 0.950 . S
C2416 C2402 1.377 . S
C2416 C2415 1.373 . S
C2417 C2401 1.377 . S
C2417 C2415 1.389 1_655 S
C2417 C2418 1.524 . S
C2418 C2417 1.524 . S
C2418 C2419 1.397 . S
C2418 C2423 1.363 . S
C2419 H2390 0.950 . S
C2419 C2418 1.397 . S
C2419 C2420 1.334 . S
C2420 H2391 0.950 . S
C2420 C2419 1.334 . S
C2420 C2421 1.287 . S
C2421 C2420 1.287 . S
C2421 C2422 1.524 . S
C2421 H2424 0.999 . S
C2422 H2392 0.950 . S
C2422 C2421 1.524 . S
C2422 C2423 1.415 . S
C2423 H2393 0.950 . S
C2423 C2418 1.363 . S
C2423 C2422 1.415 . S
H2424 C2421 0.999 . S
H2425 C2406 0.913 . S
H2426 C2444 0.951 . S
H2427 C2446 0.951 . S
H2428 C2448 0.950 . S
H2429 C2449 0.950 . S
H2430 C2451 0.950 . S
H2431 C2454 0.950 . S
H2432 C2455 0.950 . S
H2433 C2457 0.950 . S
H2434 C2458 0.950 . S
H2435 C2459 0.951 . S
H2436 C2461 0.951 . S
H2437 C2463 0.950 . S
H2438 C2464 0.950 . S
H2439 C2466 0.950 . S
H2440 C2469 0.950 . S
H2441 C2470 0.950 . S
H2442 C2472 0.950 . S
H2443 C2473 0.950 . S
C2444 H2426 0.951 . S
C2444 C2445 1.366 . S
C2444 C2446 1.388 . S
C2445 C2444 1.366 . S
C2445 C2449 1.385 . S
C2446 H2427 0.951 . S
C2446 C2444 1.388 . S
C2446 C2447 1.366 . S
C2447 C2446 1.366 . S
C2447 C2448 1.414 . S
C2447 C2450 1.499 . S
C2448 H2428 0.950 . S
C2448 C2447 1.414 . S
C2448 C2449 1.374 . S
C2449 H2429 0.950 . S
C2449 C2445 1.385 . S
C2449 C2448 1.374 . S
C2450 C2447 1.499 . S
C2450 C2451 1.373 . S
C2450 C2452 1.389 . S
C2451 H2430 0.950 . S
C2451 C2450 1.373 . S
C2451 C2467 1.377 . S
C2452 C2450 1.389 . S
C2452 C2453 1.524 . S
C2452 C2466 1.377 . S
C2453 C2452 1.524 . S
C2453 C2454 1.397 . S
C2453 C2458 1.363 . S
C2454 H2431 0.950 . S
C2454 C2453 1.397 . S
C2454 C2455 1.334 . S
C2455 H2432 0.950 . S
C2455 C2454 1.334 . S
C2455 C2456 1.287 . S
C2456 C2455 1.287 . S
C2456 C2457 1.524 . S
C2456 H2475 0.913 . S
C2457 H2433 0.950 . S
C2457 C2456 1.524 . S
C2457 C2458 1.415 . S
C2458 H2434 0.950 . S
C2458 C2453 1.363 . S
C2458 C2457 1.415 . S
C2459 H2435 0.951 . S
C2459 C2460 1.366 . S
C2459 C2461 1.388 . S
C2460 C2459 1.366 . S
C2460 C2464 1.385 . S
C2461 H2436 0.951 . S
C2461 C2459 1.388 . S
C2461 C2462 1.366 . S
C2462 C2461 1.366 . S
C2462 C2463 1.414 . S
C2462 C2465 1.499 . S
C2463 H2437 0.950 . S
C2463 C2462 1.414 . S
C2463 C2464 1.374 . S
C2464 H2438 0.950 . S
C2464 C2460 1.385 . S
C2464 C2463 1.374 . S
C2465 C2462 1.499 . S
C2465 C2466 1.373 . S
C2465 C2467 1.389 . S
C2466 H2439 0.950 . S
C2466 C2452 1.377 . S
C2466 C2465 1.373 . S
C2467 C2451 1.377 . S
C2467 C2465 1.389 . S
C2467 C2468 1.524 . S
C2468 C2467 1.524 . S
C2468 C2469 1.397 . S
C2468 C2473 1.363 . S
C2469 H2440 0.950 . S
C2469 C2468 1.397 . S
C2469 C2470 1.334 . S
C2470 H2441 0.950 . S
C2470 C2469 1.334 . S
C2470 C2471 1.287 . S
C2471 C2470 1.287 . S
C2471 C2472 1.524 . S
C2471 H2474 0.999 . S
C2472 H2442 0.950 . S
C2472 C2471 1.524 . S
C2472 C2473 1.415 . S
C2473 H2443 0.950 . S
C2473 C2468 1.363 . S
C2473 C2472 1.415 . S
H2474 C2471 0.999 . S
H2475 C2456 0.913 . S
H2476 C2494 0.951 . S
H2477 C2496 0.951 . S
H2478 C2498 0.950 . S
H2479 C2499 0.950 . S
H2480 C2501 0.950 . S
H2481 C2504 0.950 . S
H2482 C2505 0.950 . S
H2483 C2507 0.950 . S
H2484 C2508 0.950 . S
H2485 C2509 0.951 . S
H2486 C2511 0.951 . S
H2487 C2513 0.950 . S
H2488 C2514 0.950 . S
H2489 C2516 0.950 . S
H2490 C2519 0.950 . S
H2491 C2520 0.921 1_554 S
H2492 C2522 0.950 . S
H2493 C2523 0.950 . S
C2494 H2476 0.951 . S
C2494 C2495 1.366 . S
C2494 C2496 1.388 . S
C2495 C2494 1.366 . S
C2495 C2499 1.385 . S
C2496 H2477 0.951 . S
C2496 C2494 1.388 . S
C2496 C2497 1.366 . S
C2497 C2496 1.366 . S
C2497 C2498 1.414 . S
C2497 C2500 1.499 . S
C2498 H2478 0.950 . S
C2498 C2497 1.414 . S
C2498 C2499 1.374 . S
C2499 H2479 0.950 . S
C2499 C2495 1.385 . S
C2499 C2498 1.374 . S
C2500 C2497 1.499 . S
C2500 C2501 1.373 . S
C2500 C2502 1.389 . S
C2501 H2480 0.950 . S
C2501 C2500 1.373 . S
C2501 C2517 1.377 . S
C2502 C2500 1.389 . S
C2502 C2503 1.524 . S
C2502 C2516 1.377 . S
C2503 C2502 1.524 . S
C2503 C2504 1.397 . S
C2503 C2508 1.363 . S
C2504 H2481 0.950 . S
C2504 C2503 1.397 . S
C2504 C2505 1.334 . S
C2505 H2482 0.950 . S
C2505 C2504 1.334 . S
C2505 C2506 1.287 . S
C2506 C2505 1.287 . S
C2506 C2507 1.524 . S
C2506 H2525 0.913 . S
C2507 H2483 0.950 . S
C2507 C2506 1.524 . S
C2507 C2508 1.415 . S
C2508 H2484 0.950 . S
C2508 C2503 1.363 . S
C2508 C2507 1.415 . S
C2509 H2485 0.951 . S
C2509 C2510 1.366 . S
C2509 C2511 1.388 . S
C2510 C2509 1.366 . S
C2510 C2514 1.385 1_556 S
C2511 H2486 0.951 . S
C2511 C2509 1.388 . S
C2511 C2512 1.366 . S
C2512 C2511 1.366 . S
C2512 C2513 1.414 . S
C2512 C2515 1.499 . S
C2513 H2487 0.950 . S
C2513 C2512 1.414 . S
C2513 C2514 1.374 1_556 S
C2514 H2488 0.950 . S
C2514 C2510 1.385 1_554 S
C2514 C2513 1.374 1_554 S
C2515 C2512 1.499 . S
C2515 C2516 1.373 . S
C2515 C2517 1.389 . S
C2516 H2489 0.950 . S
C2516 C2502 1.377 . S
C2516 C2515 1.373 . S
C2517 C2501 1.377 . S
C2517 C2515 1.389 . S
C2517 C2518 1.524 . S
C2518 C2517 1.524 . S
C2518 C2519 1.397 . S
C2518 C2523 1.363 . S
C2519 H2490 0.950 . S
C2519 C2518 1.397 . S
C2519 C2520 1.343 . S
C2520 H2491 0.921 1_556 S
C2520 C2519 1.343 . S
C2520 C2521 1.308 . S
C2521 C2520 1.308 . S
C2521 C2522 1.524 . S
C2521 H2524 0.999 . S
C2522 H2492 0.950 . S
C2522 C2521 1.524 . S
C2522 C2523 1.415 . S
C2523 H2493 0.950 . S
C2523 C2518 1.363 . S
C2523 C2522 1.415 . S
H2524 C2521 0.999 . S
H2525 C2506 0.913 . S
H2526 C2544 0.951 . S
H2527 C2546 0.951 . S
H2528 C2548 0.950 . S
H2529 C2549 0.950 . S
H2530 C2551 0.950 . S
H2531 C2554 0.950 . S
H2532 C2555 0.950 . S
H2533 C2557 0.950 . S
H2534 C2558 0.950 . S
H2535 C2559 0.951 . S
H2536 C2561 0.951 . S
H2537 C2563 0.950 . S
H2538 C2564 0.950 . S
H2539 C2566 0.950 . S
H2540 C2569 0.950 . S
H2541 C2570 0.950 . S
H2542 C2572 0.950 . S
H2543 C2573 0.950 . S
C2544 H2526 0.951 . S
C2544 C2545 1.366 . S
C2544 C2546 1.388 1_455 S
C2545 C2544 1.366 . S
C2545 C2549 1.385 . S
C2546 H2527 0.951 . S
C2546 C2544 1.388 1_655 S
C2546 C2547 1.366 . S
C2547 C2546 1.366 . S
C2547 C2548 1.414 . S
C2547 C2550 1.499 . S
C2548 H2528 0.950 . S
C2548 C2547 1.414 . S
C2548 C2549 1.374 1_655 S
C2549 H2529 0.950 . S
C2549 C2545 1.385 . S
C2549 C2548 1.374 1_455 S
C2550 C2547 1.499 . S
C2550 C2551 1.373 . S
C2550 C2552 1.389 . S
C2551 H2530 0.950 . S
C2551 C2550 1.373 . S
C2551 C2567 1.377 . S
C2552 C2550 1.389 . S
C2552 C2553 1.524 . S
C2552 C2566 1.377 . S
C2553 C2552 1.524 . S
C2553 C2554 1.397 . S
C2553 C2558 1.363 . S
C2554 H2531 0.950 . S
C2554 C2553 1.397 . S
C2554 C2555 1.334 . S
C2555 H2532 0.950 . S
C2555 C2554 1.334 . S
C2555 C2556 1.287 . S
C2556 C2555 1.287 . S
C2556 C2557 1.524 . S
C2556 H2575 0.913 . S
C2557 H2533 0.950 . S
C2557 C2556 1.524 . S
C2557 C2558 1.415 . S
C2558 H2534 0.950 . S
C2558 C2553 1.363 . S
C2558 C2557 1.415 . S
C2559 H2535 0.951 . S
C2559 C2560 1.366 . S
C2559 C2561 1.388 . S
C2560 C2559 1.366 . S
C2560 C2564 1.385 . S
C2561 H2536 0.951 . S
C2561 C2559 1.388 . S
C2561 C2562 1.366 . S
C2562 C2561 1.366 . S
C2562 C2563 1.414 . S
C2562 C2565 1.499 . S
C2563 H2537 0.950 . S
C2563 C2562 1.414 . S
C2563 C2564 1.374 . S
C2564 H2538 0.950 . S
C2564 C2560 1.385 . S
C2564 C2563 1.374 . S
C2565 C2562 1.499 . S
C2565 C2566 1.373 . S
C2565 C2567 1.389 . S
C2566 H2539 0.950 . S
C2566 C2552 1.377 . S
C2566 C2565 1.373 . S
C2567 C2551 1.377 . S
C2567 C2565 1.389 . S
C2567 C2568 1.524 . S
C2568 C2567 1.524 . S
C2568 C2569 1.397 . S
C2568 C2573 1.363 . S
C2569 H2540 0.950 . S
C2569 C2568 1.397 . S
C2569 C2570 1.334 . S
C2570 H2541 0.950 . S
C2570 C2569 1.334 . S
C2570 C2571 1.287 . S
C2571 C2570 1.287 . S
C2571 C2572 1.524 . S
C2571 H2574 0.999 . S
C2572 H2542 0.950 . S
C2572 C2571 1.524 . S
C2572 C2573 1.415 . S
C2573 H2543 0.950 . S
C2573 C2568 1.363 . S
C2573 C2572 1.415 . S
H2574 C2571 0.999 . S
H2575 C2556 0.913 . S
H2576 C2594 0.951 . S
H2577 C2596 0.951 . S
H2578 C2598 0.950 . S
H2579 C2599 0.950 . S
H2580 C2601 0.950 . S
H2581 C2604 0.950 . S
H2582 C2605 0.950 . S
H2583 C2607 0.951 1_545 S
H2584 C2608 0.950 . S
H2585 C2609 0.966 . S
H2586 C2611 0.951 . S
H2587 C2613 0.950 . S
H2588 C2614 0.950 . S
H2589 C2616 0.950 . S
H2590 C2619 0.950 . S
H2591 C2620 0.950 . S
H2592 C2622 0.950 . S
H2593 C2623 0.950 . S
C2594 H2576 0.951 . S
C2594 C2595 1.366 . S
C2594 C2596 1.388 . S
C2595 C2594 1.366 . S
C2595 C2599 1.385 . S
C2596 H2577 0.951 . S
C2596 C2594 1.388 . S
C2596 C2597 1.366 . S
C2597 C2596 1.366 . S
C2597 C2598 1.414 . S
C2597 C2600 1.499 . S
C2598 H2578 0.950 . S
C2598 C2597 1.414 . S
C2598 C2599 1.374 . S
C2599 H2579 0.950 . S
C2599 C2595 1.385 . S
C2599 C2598 1.374 . S
C2600 C2597 1.499 . S
C2600 C2601 1.373 . S
C2600 C2602 1.389 . S
C2601 H2580 0.950 . S
C2601 C2600 1.373 . S
C2601 C2617 1.377 . S
C2602 C2600 1.389 . S
C2602 C2603 1.524 . S
C2602 C2616 1.377 . S
C2603 C2602 1.524 . S
C2603 C2604 1.397 1_545 S
C2603 C2608 1.363 . S
C2604 H2581 0.950 . S
C2604 C2603 1.397 1_565 S
C2604 C2605 1.334 . S
C2605 H2582 0.950 . S
C2605 C2604 1.334 . S
C2605 C2606 1.287 . S
C2606 C2605 1.287 . S
C2606 C2607 1.524 . S
C2606 H2625 0.913 . S
C2607 H2583 0.951 1_565 S
C2607 C2606 1.524 . S
C2607 C2608 1.415 1_565 S
C2608 H2584 0.950 . S
C2608 C2603 1.363 . S
C2608 C2607 1.415 1_545 S
C2609 H2585 0.966 . S
C2609 C2610 1.366 . S
C2609 C2611 1.388 . S
C2610 C2609 1.366 . S
C2610 C2614 1.385 . S
C2611 H2586 0.951 . S
C2611 C2609 1.388 . S
C2611 C2612 1.366 . S
C2612 C2611 1.366 . S
C2612 C2613 1.414 . S
C2612 C2615 1.499 . S
C2613 H2587 0.950 . S
C2613 C2612 1.414 . S
C2613 C2614 1.374 . S
C2614 H2588 0.950 . S
C2614 C2610 1.385 . S
C2614 C2613 1.374 . S
C2615 C2612 1.499 . S
C2615 C2616 1.373 . S
C2615 C2617 1.389 . S
C2616 H2589 0.950 . S
C2616 C2602 1.377 . S
C2616 C2615 1.373 . S
C2617 C2601 1.377 . S
C2617 C2615 1.389 . S
C2617 C2618 1.524 . S
C2618 C2617 1.524 . S
C2618 C2619 1.397 . S
C2618 C2623 1.363 . S
C2619 H2590 0.950 . S
C2619 C2618 1.397 . S
C2619 C2620 1.334 . S
C2620 H2591 0.950 . S
C2620 C2619 1.334 . S
C2620 C2621 1.287 . S
C2621 C2620 1.287 . S
C2621 C2622 1.524 . S
C2621 H2624 0.999 . S
C2622 H2592 0.950 . S
C2622 C2621 1.524 . S
C2622 C2623 1.415 . S
C2623 H2593 0.950 . S
C2623 C2618 1.363 . S
C2623 C2622 1.415 . S
H2624 C2621 0.999 . S
H2625 C2606 0.913 . S
H2626 C2644 0.951 . S
H2627 C2646 0.951 . S
H2628 C2648 0.950 . S
H2629 C2649 0.950 . S
H2630 C2651 0.950 . S
H2631 C2654 0.950 . S
H2632 C2655 0.950 . S
H2633 C2657 0.950 . S
H2634 C2658 0.950 . S
H2635 C2659 0.951 . S
H2636 C2661 0.951 . S
H2637 C2663 0.950 . S
H2638 C2664 0.950 . S
H2639 C2666 0.950 . S
H2640 C2669 0.950 . S
H2641 C2670 0.950 . S
H2642 C2672 0.950 . S
H2643 C2673 0.950 . S
C2644 H2626 0.951 . S
C2644 C2645 1.366 . S
C2644 C2646 1.388 . S
C2645 C2644 1.366 . S
C2645 C2649 1.385 . S
C2646 H2627 0.951 . S
C2646 C2644 1.388 . S
C2646 C2647 1.366 . S
C2647 C2646 1.366 . S
C2647 C2648 1.414 . S
C2647 C2650 1.499 . S
C2648 H2628 0.950 . S
C2648 C2647 1.414 . S
C2648 C2649 1.374 . S
C2649 H2629 0.950 . S
C2649 C2645 1.385 . S
C2649 C2648 1.374 . S
C2650 C2647 1.499 . S
C2650 C2651 1.373 . S
C2650 C2652 1.389 . S
C2651 H2630 0.950 . S
C2651 C2650 1.373 . S
C2651 C2667 1.377 . S
C2652 C2650 1.389 . S
C2652 C2653 1.524 . S
C2652 C2666 1.377 . S
C2653 C2652 1.524 . S
C2653 C2654 1.397 . S
C2653 C2658 1.363 . S
C2654 H2631 0.950 . S
C2654 C2653 1.397 . S
C2654 C2655 1.334 . S
C2655 H2632 0.950 . S
C2655 C2654 1.334 . S
C2655 C2656 1.287 . S
C2656 C2655 1.287 . S
C2656 C2657 1.524 . S
C2656 H2675 0.913 . S
C2657 H2633 0.950 . S
C2657 C2656 1.524 . S
C2657 C2658 1.415 . S
C2658 H2634 0.950 . S
C2658 C2653 1.363 . S
C2658 C2657 1.415 . S
C2659 H2635 0.951 . S
C2659 C2660 1.366 . S
C2659 C2661 1.388 . S
C2660 C2659 1.366 . S
C2660 C2664 1.385 . S
C2661 H2636 0.951 . S
C2661 C2659 1.388 . S
C2661 C2662 1.366 . S
C2662 C2661 1.366 . S
C2662 C2663 1.414 . S
C2662 C2665 1.499 . S
C2663 H2637 0.950 . S
C2663 C2662 1.414 . S
C2663 C2664 1.374 . S
C2664 H2638 0.950 . S
C2664 C2660 1.385 . S
C2664 C2663 1.374 . S
C2665 C2662 1.499 . S
C2665 C2666 1.373 . S
C2665 C2667 1.389 . S
C2666 H2639 0.950 . S
C2666 C2652 1.377 . S
C2666 C2665 1.373 . S
C2667 C2651 1.377 . S
C2667 C2665 1.389 . S
C2667 C2668 1.524 . S
C2668 C2667 1.524 . S
C2668 C2669 1.397 . S
C2668 C2673 1.363 . S
C2669 H2640 0.950 . S
C2669 C2668 1.397 . S
C2669 C2670 1.334 . S
C2670 H2641 0.950 . S
C2670 C2669 1.334 . S
C2670 C2671 1.287 . S
C2671 C2670 1.287 . S
C2671 C2672 1.524 . S
C2671 H2674 0.999 . S
C2672 H2642 0.950 . S
C2672 C2671 1.524 . S
C2672 C2673 1.415 . S
C2673 H2643 0.950 . S
C2673 C2668 1.363 . S
C2673 C2672 1.415 . S
H2674 C2671 0.999 . S
H2675 C2656 0.913 . S
H2676 C2694 0.951 1_565 S
H2677 C2696 0.951 1_565 S
H2678 C2698 0.950 . S
H2679 C2699 0.950 . S
H2680 C2701 0.950 . S
H2681 C2704 0.950 . S
H2682 C2705 0.950 . S
H2683 C2707 0.950 . S
H2684 C2708 0.950 . S
H2685 C2709 0.951 . S
H2686 C2711 0.951 . S
H2687 C2713 0.959 . S
H2688 C2714 0.989 . S
H2689 C2716 0.950 . S
H2690 C2719 0.950 . S
H2691 C2720 0.950 . S
H2692 C2722 0.950 . S
H2693 C2723 0.950 . S
C2694 H2676 0.951 1_545 S
C2694 C2695 1.366 . S
C2694 C2696 1.388 . S
C2695 C2694 1.366 . S
C2695 C2699 1.385 . S
C2696 H2677 0.951 1_545 S
C2696 C2694 1.388 . S
C2696 C2697 1.366 . S
C2697 C2696 1.366 . S
C2697 C2698 1.414 . S
C2697 C2700 1.499 . S
C2698 H2678 0.950 . S
C2698 C2697 1.414 . S
C2698 C2699 1.374 . S
C2699 H2679 0.950 . S
C2699 C2695 1.385 . S
C2699 C2698 1.374 . S
C2700 C2697 1.499 . S
C2700 C2701 1.373 . S
C2700 C2702 1.389 . S
C2701 H2680 0.950 . S
C2701 C2700 1.373 . S
C2701 C2717 1.377 . S
C2702 C2700 1.389 . S
C2702 C2703 1.524 . S
C2702 C2716 1.377 . S
C2703 C2702 1.524 . S
C2703 C2704 1.397 . S
C2703 C2708 1.363 1_545 S
C2704 H2681 0.950 . S
C2704 C2703 1.397 . S
C2704 C2705 1.334 . S
C2705 H2682 0.950 . S
C2705 C2704 1.334 . S
C2705 C2706 1.287 1_545 S
C2706 C2705 1.287 1_565 S
C2706 C2707 1.524 . S
C2706 H2725 0.913 . S
C2707 H2683 0.950 . S
C2707 C2706 1.524 . S
C2707 C2708 1.415 . S
C2708 H2684 0.950 . S
C2708 C2703 1.363 1_565 S
C2708 C2707 1.415 . S
C2709 H2685 0.951 . S
C2709 C2710 1.366 . S
C2709 C2711 1.388 . S
C2710 C2709 1.366 . S
C2710 C2714 1.357 1_545 S
C2711 H2686 0.951 . S
C2711 C2709 1.388 . S
C2711 C2712 1.366 . S
C2712 C2711 1.366 . S
C2712 C2713 1.402 1_545 S
C2712 C2715 1.499 . S
C2713 H2687 0.959 . S
C2713 C2712 1.402 1_565 S
C2713 C2714 1.366 . S
C2714 H2688 0.989 . S
C2714 C2710 1.357 1_565 S
C2714 C2713 1.366 . S
C2715 C2712 1.499 . S
C2715 C2716 1.373 . S
C2715 C2717 1.389 . S
C2716 H2689 0.950 . S
C2716 C2702 1.377 . S
C2716 C2715 1.373 . S
C2717 C2701 1.377 . S
C2717 C2715 1.389 . S
C2717 C2718 1.524 . S
C2718 C2717 1.524 . S
C2718 C2719 1.397 . S
C2718 C2723 1.363 . S
C2719 H2690 0.950 . S
C2719 C2718 1.397 . S
C2719 C2720 1.334 . S
C2720 H2691 0.950 . S
C2720 C2719 1.334 . S
C2720 C2721 1.287 . S
C2721 C2720 1.287 . S
C2721 C2722 1.524 . S
C2721 H2724 0.999 . S
C2722 H2692 0.950 . S
C2722 C2721 1.524 . S
C2722 C2723 1.415 . S
C2723 H2693 0.950 . S
C2723 C2718 1.363 . S
C2723 C2722 1.415 . S
H2724 C2721 0.999 . S
H2725 C2706 0.913 . S
H2726 C2744 0.951 . S
H2727 C2746 0.951 . S
H2728 C2748 0.950 . S
H2729 C2749 0.950 . S
H2730 C2751 0.950 . S
H2731 C2754 0.950 . S
H2732 C2755 0.950 . S
H2733 C2757 0.950 . S
H2734 C2758 0.950 . S
H2735 C2759 0.951 . S
H2736 C2761 0.951 . S
H2737 C2763 0.950 . S
H2738 C2764 0.950 . S
H2739 C2766 0.950 . S
H2740 C2769 0.950 . S
H2741 C2770 0.950 . S
H2742 C2772 0.950 . S
H2743 C2773 0.950 . S
C2744 H2726 0.951 . S
C2744 C2745 1.366 . S
C2744 C2746 1.388 . S
C2745 C2744 1.366 . S
C2745 C2749 1.385 . S
C2746 H2727 0.951 . S
C2746 C2744 1.388 . S
C2746 C2747 1.366 . S
C2747 C2746 1.366 . S
C2747 C2748 1.414 . S
C2747 C2750 1.499 . S
C2748 H2728 0.950 . S
C2748 C2747 1.414 . S
C2748 C2749 1.374 . S
C2749 H2729 0.950 . S
C2749 C2745 1.385 . S
C2749 C2748 1.374 . S
C2750 C2747 1.499 . S
C2750 C2751 1.373 . S
C2750 C2752 1.389 . S
C2751 H2730 0.950 . S
C2751 C2750 1.373 . S
C2751 C2767 1.377 . S
C2752 C2750 1.389 . S
C2752 C2753 1.524 . S
C2752 C2766 1.377 . S
C2753 C2752 1.524 . S
C2753 C2754 1.397 . S
C2753 C2758 1.363 . S
C2754 H2731 0.950 . S
C2754 C2753 1.397 . S
C2754 C2755 1.334 . S
C2755 H2732 0.950 . S
C2755 C2754 1.334 . S
C2755 C2756 1.287 . S
C2756 C2755 1.287 . S
C2756 C2757 1.524 . S
C2756 H2775 0.913 . S
C2757 H2733 0.950 . S
C2757 C2756 1.524 . S
C2757 C2758 1.415 . S
C2758 H2734 0.950 . S
C2758 C2753 1.363 . S
C2758 C2757 1.415 . S
C2759 H2735 0.951 . S
C2759 C2760 1.366 . S
C2759 C2761 1.388 . S
C2760 C2759 1.366 . S
C2760 C2764 1.385 . S
C2761 H2736 0.951 . S
C2761 C2759 1.388 . S
C2761 C2762 1.366 . S
C2762 C2761 1.366 . S
C2762 C2763 1.414 . S
C2762 C2765 1.499 . S
C2763 H2737 0.950 . S
C2763 C2762 1.414 . S
C2763 C2764 1.374 . S
C2764 H2738 0.950 . S
C2764 C2760 1.385 . S
C2764 C2763 1.374 . S
C2765 C2762 1.499 . S
C2765 C2766 1.373 . S
C2765 C2767 1.389 . S
C2766 H2739 0.950 . S
C2766 C2752 1.377 . S
C2766 C2765 1.373 . S
C2767 C2751 1.377 . S
C2767 C2765 1.389 . S
C2767 C2768 1.524 . S
C2768 C2767 1.524 . S
C2768 C2769 1.397 . S
C2768 C2773 1.363 . S
C2769 H2740 0.950 . S
C2769 C2768 1.397 . S
C2769 C2770 1.334 . S
C2770 H2741 0.950 . S
C2770 C2769 1.334 . S
C2770 C2771 1.287 . S
C2771 C2770 1.287 . S
C2771 C2772 1.524 . S
C2771 H2774 0.999 . S
C2772 H2742 0.950 . S
C2772 C2771 1.524 . S
C2772 C2773 1.415 . S
C2773 H2743 0.950 . S
C2773 C2768 1.363 . S
C2773 C2772 1.415 . S
H2774 C2771 0.999 . S
H2775 C2756 0.913 . S
H2776 C2794 0.951 . S
H2777 C2796 0.951 . S
H2778 C2798 0.950 1_565 S
H2779 C2799 0.950 1_565 S
H2780 C2801 0.950 . S
H2781 C2804 0.950 . S
H2782 C2805 0.950 . S
H2783 C2807 0.950 . S
H2784 C2808 0.950 . S
H2785 C2809 0.951 1_565 S
H2786 C2811 0.951 1_565 S
H2787 C2813 0.950 . S
H2788 C2814 0.950 . S
H2789 C2816 0.950 . S
H2790 C2819 0.950 . S
H2791 C2820 0.950 . S
H2792 C2822 0.950 . S
H2793 C2823 0.896 1_565 S
C2794 H2776 0.951 . S
C2794 C2795 1.366 . S
C2794 C2796 1.388 . S
C2795 C2794 1.366 . S
C2795 C2799 1.385 . S
C2796 H2777 0.951 . S
C2796 C2794 1.388 . S
C2796 C2797 1.366 . S
C2797 C2796 1.366 . S
C2797 C2798 1.414 . S
C2797 C2800 1.499 . S
C2798 H2778 0.950 1_545 S
C2798 C2797 1.414 . S
C2798 C2799 1.374 . S
C2799 H2779 0.950 1_545 S
C2799 C2795 1.385 . S
C2799 C2798 1.374 . S
C2800 C2797 1.499 . S
C2800 C2801 1.373 . S
C2800 C2802 1.389 . S
C2801 H2780 0.950 . S
C2801 C2800 1.373 . S
C2801 C2817 1.377 . S
C2802 C2800 1.389 . S
C2802 C2803 1.524 . S
C2802 C2816 1.377 . S
C2803 C2802 1.524 . S
C2803 C2804 1.397 1_545 S
C2803 C2808 1.363 . S
C2804 H2781 0.950 . S
C2804 C2803 1.397 1_565 S
C2804 C2805 1.334 . S
C2805 H2782 0.950 . S
C2805 C2804 1.334 . S
C2805 C2806 1.258 1_565 S
C2806 C2805 1.258 1_545 S
C2806 C2807 1.560 . S
C2806 H2825 0.909 1_545 S
C2807 H2783 0.950 . S
C2807 C2806 1.560 . S
C2807 C2808 1.415 . S
C2808 H2784 0.950 . S
C2808 C2803 1.363 . S
C2808 C2807 1.415 . S
C2809 H2785 0.951 1_545 S
C2809 C2810 1.366 . S
C2809 C2811 1.388 . S
C2810 C2809 1.366 . S
C2810 C2814 1.385 . S
C2811 H2786 0.951 1_545 S
C2811 C2809 1.388 . S
C2811 C2812 1.366 . S
C2812 C2811 1.366 . S
C2812 C2813 1.414 . S
C2812 C2815 1.499 . S
C2813 H2787 0.950 . S
C2813 C2812 1.414 . S
C2813 C2814 1.374 . S
C2814 H2788 0.950 . S
C2814 C2810 1.385 . S
C2814 C2813 1.374 . S
C2815 C2812 1.499 . S
C2815 C2816 1.373 . S
C2815 C2817 1.389 . S
C2816 H2789 0.950 . S
C2816 C2802 1.377 . S
C2816 C2815 1.373 . S
C2817 C2801 1.377 . S
C2817 C2815 1.389 . S
C2817 C2818 1.524 . S
C2818 C2817 1.524 . S
C2818 C2819 1.397 . S
C2818 C2823 1.363 . S
C2819 H2790 0.950 . S
C2819 C2818 1.397 . S
C2819 C2820 1.334 . S
C2820 H2791 0.950 . S
C2820 C2819 1.334 . S
C2820 C2821 1.287 . S
C2821 C2820 1.287 . S
C2821 C2822 1.524 . S
C2821 H2824 0.999 . S
C2822 H2792 0.950 . S
C2822 C2821 1.524 . S
C2822 C2823 1.415 . S
C2823 H2793 0.896 1_545 S
C2823 C2818 1.363 . S
C2823 C2822 1.415 . S
H2824 C2821 0.999 . S
H2825 C2806 0.909 1_565 S
H2826 C2844 0.951 . S
H2827 C2846 0.951 . S
H2828 C2848 0.950 . S
H2829 C2849 0.950 . S
H2830 C2851 0.950 . S
H2831 C2854 0.950 . S
H2832 C2855 0.950 . S
H2833 C2857 0.950 . S
H2834 C2858 0.950 . S
H2835 C2859 0.951 . S
H2836 C2861 0.951 . S
H2837 C2863 0.950 . S
H2838 C2864 0.950 . S
H2839 C2866 0.950 . S
H2840 C2869 0.950 . S
H2841 C2870 0.950 . S
H2842 C2872 0.950 . S
H2843 C2873 0.950 . S
C2844 H2826 0.951 . S
C2844 C2845 1.366 . S
C2844 C2846 1.388 . S
C2845 C2844 1.366 . S
C2845 C2849 1.385 . S
C2846 H2827 0.951 . S
C2846 C2844 1.388 . S
C2846 C2847 1.366 . S
C2847 C2846 1.366 . S
C2847 C2848 1.414 . S
C2847 C2850 1.499 . S
C2848 H2828 0.950 . S
C2848 C2847 1.414 . S
C2848 C2849 1.374 . S
C2849 H2829 0.950 . S
C2849 C2845 1.385 . S
C2849 C2848 1.374 . S
C2850 C2847 1.499 . S
C2850 C2851 1.373 . S
C2850 C2852 1.389 . S
C2851 H2830 0.950 . S
C2851 C2850 1.373 . S
C2851 C2867 1.377 . S
C2852 C2850 1.389 . S
C2852 C2853 1.524 . S
C2852 C2866 1.377 . S
C2853 C2852 1.524 . S
C2853 C2854 1.397 . S
C2853 C2858 1.363 . S
C2854 H2831 0.950 . S
C2854 C2853 1.397 . S
C2854 C2855 1.334 . S
C2855 H2832 0.950 . S
C2855 C2854 1.334 . S
C2855 C2856 1.287 . S
C2856 C2855 1.287 . S
C2856 C2857 1.524 . S
C2856 H2875 0.913 . S
C2857 H2833 0.950 . S
C2857 C2856 1.524 . S
C2857 C2858 1.415 . S
C2858 H2834 0.950 . S
C2858 C2853 1.363 . S
C2858 C2857 1.415 . S
C2859 H2835 0.951 . S
C2859 C2860 1.366 . S
C2859 C2861 1.388 . S
C2860 C2859 1.366 . S
C2860 C2864 1.385 . S
C2861 H2836 0.951 . S
C2861 C2859 1.388 . S
C2861 C2862 1.366 . S
C2862 C2861 1.366 . S
C2862 C2863 1.414 . S
C2862 C2865 1.499 . S
C2863 H2837 0.950 . S
C2863 C2862 1.414 . S
C2863 C2864 1.374 . S
C2864 H2838 0.950 . S
C2864 C2860 1.385 . S
C2864 C2863 1.374 . S
C2865 C2862 1.499 . S
C2865 C2866 1.373 . S
C2865 C2867 1.389 . S
C2866 H2839 0.950 . S
C2866 C2852 1.377 . S
C2866 C2865 1.373 . S
C2867 C2851 1.377 . S
C2867 C2865 1.389 . S
C2867 C2868 1.524 . S
C2868 C2867 1.524 . S
C2868 C2869 1.397 . S
C2868 C2873 1.363 . S
C2869 H2840 0.950 . S
C2869 C2868 1.397 . S
C2869 C2870 1.334 . S
C2870 H2841 0.950 . S
C2870 C2869 1.334 . S
C2870 C2871 1.287 . S
C2871 C2870 1.287 . S
C2871 C2872 1.524 . S
C2871 H2874 0.999 . S
C2872 H2842 0.950 . S
C2872 C2871 1.524 . S
C2872 C2873 1.415 . S
C2873 H2843 0.950 . S
C2873 C2868 1.363 . S
C2873 C2872 1.415 . S
H2874 C2871 0.999 . S
H2875 C2856 0.913 . S
H2876 C2894 0.951 . S
H2877 C2896 0.951 . S
H2878 C2898 0.950 . S
H2879 C2899 0.950 . S
H2880 C2901 0.950 . S
H2881 C2904 0.950 . S
H2882 C2905 0.950 . S
H2883 C2907 0.950 . S
H2884 C2908 0.950 . S
H2885 C2909 0.951 . S
H2886 C2911 0.951 . S
H2887 C2913 0.950 . S
H2888 C2914 0.953 . S
H2889 C2916 0.950 . S
H2890 C2919 0.950 . S
H2891 C2920 0.950 . S
H2892 C2922 0.950 . S
H2893 C2923 0.950 . S
C2894 H2876 0.951 . S
C2894 C2895 1.366 . S
C2894 C2896 1.388 . S
C2895 C2894 1.366 . S
C2895 C2899 1.385 . S
C2896 H2877 0.951 . S
C2896 C2894 1.388 . S
C2896 C2897 1.366 . S
C2897 C2896 1.366 . S
C2897 C2898 1.414 . S
C2897 C2900 1.499 . S
C2898 H2878 0.950 . S
C2898 C2897 1.414 . S
C2898 C2899 1.374 . S
C2899 H2879 0.950 . S
C2899 C2895 1.385 . S
C2899 C2898 1.374 . S
C2900 C2897 1.499 . S
C2900 C2901 1.373 . S
C2900 C2902 1.389 1_545 S
C2901 H2880 0.950 . S
C2901 C2900 1.373 . S
C2901 C2917 1.377 . S
C2902 C2900 1.389 1_565 S
C2902 C2903 1.524 . S
C2902 C2916 1.377 . S
C2903 C2902 1.524 . S
C2903 C2904 1.397 . S
C2903 C2908 1.363 . S
C2904 H2881 0.950 . S
C2904 C2903 1.397 . S
C2904 C2905 1.334 . S
C2905 H2882 0.950 . S
C2905 C2904 1.334 . S
C2905 C2906 1.287 . S
C2906 C2905 1.287 . S
C2906 C2907 1.524 . S
C2906 H2925 0.913 . S
C2907 H2883 0.950 . S
C2907 C2906 1.524 . S
C2907 C2908 1.415 . S
C2908 H2884 0.950 . S
C2908 C2903 1.363 . S
C2908 C2907 1.415 . S
C2909 H2885 0.951 . S
C2909 C2910 1.366 . S
C2909 C2911 1.388 . S
C2910 C2909 1.366 . S
C2910 C2914 1.385 . S
C2911 H2886 0.951 . S
C2911 C2909 1.388 . S
C2911 C2912 1.366 . S
C2912 C2911 1.366 . S
C2912 C2913 1.414 . S
C2912 C2915 1.499 . S
C2913 H2887 0.950 . S
C2913 C2912 1.414 . S
C2913 C2914 1.374 . S
C2914 H2888 0.953 . S
C2914 C2910 1.385 . S
C2914 C2913 1.374 . S
C2915 C2912 1.499 . S
C2915 C2916 1.373 1_545 S
C2915 C2917 1.389 . S
C2916 H2889 0.950 . S
C2916 C2902 1.377 . S
C2916 C2915 1.373 1_565 S
C2917 C2901 1.377 . S
C2917 C2915 1.389 . S
C2917 C2918 1.524 . S
C2918 C2917 1.524 . S
C2918 C2919 1.397 . S
C2918 C2923 1.363 . S
C2919 H2890 0.950 . S
C2919 C2918 1.397 . S
C2919 C2920 1.334 . S
C2920 H2891 0.950 . S
C2920 C2919 1.334 . S
C2920 C2921 1.287 . S
C2921 C2920 1.287 . S
C2921 C2922 1.524 . S
C2921 H2924 0.999 . S
C2922 H2892 0.950 . S
C2922 C2921 1.524 . S
C2922 C2923 1.415 . S
C2923 H2893 0.950 . S
C2923 C2918 1.363 . S
C2923 C2922 1.415 . S
H2924 C2921 0.999 . S
H2925 C2906 0.913 . S
H2926 C2944 0.951 . S
H2927 C2946 0.951 . S
H2928 C2948 0.950 . S
H2929 C2949 0.950 . S
H2930 C2951 0.950 . S
H2931 C2954 0.950 . S
H2932 C2955 0.950 . S
H2933 C2957 0.950 . S
H2934 C2958 0.950 . S
H2935 C2959 0.951 . S
H2936 C2961 0.951 . S
H2937 C2963 0.950 . S
H2938 C2964 0.950 . S
H2939 C2966 0.950 . S
H2940 C2969 0.950 . S
H2941 C2970 0.950 . S
H2942 C2972 0.950 . S
H2943 C2973 0.950 . S
C2944 H2926 0.951 . S
C2944 C2945 1.366 . S
C2944 C2946 1.388 . S
C2945 C2944 1.366 . S
C2945 C2949 1.385 . S
C2946 H2927 0.951 . S
C2946 C2944 1.388 . S
C2946 C2947 1.366 . S
C2947 C2946 1.366 . S
C2947 C2948 1.414 . S
C2947 C2950 1.499 . S
C2948 H2928 0.950 . S
C2948 C2947 1.414 . S
C2948 C2949 1.374 . S
C2949 H2929 0.950 . S
C2949 C2945 1.385 . S
C2949 C2948 1.374 . S
C2950 C2947 1.499 . S
C2950 C2951 1.373 . S
C2950 C2952 1.389 . S
C2951 H2930 0.950 . S
C2951 C2950 1.373 . S
C2951 C2967 1.377 . S
C2952 C2950 1.389 . S
C2952 C2953 1.524 . S
C2952 C2966 1.377 . S
C2953 C2952 1.524 . S
C2953 C2954 1.397 . S
C2953 C2958 1.363 . S
C2954 H2931 0.950 . S
C2954 C2953 1.397 . S
C2954 C2955 1.334 . S
C2955 H2932 0.950 . S
C2955 C2954 1.334 . S
C2955 C2956 1.287 . S
C2956 C2955 1.287 . S
C2956 C2957 1.524 . S
C2956 H2975 0.913 . S
C2957 H2933 0.950 . S
C2957 C2956 1.524 . S
C2957 C2958 1.415 . S
C2958 H2934 0.950 . S
C2958 C2953 1.363 . S
C2958 C2957 1.415 . S
C2959 H2935 0.951 . S
C2959 C2960 1.366 . S
C2959 C2961 1.388 . S
C2960 C2959 1.366 . S
C2960 C2964 1.385 . S
C2961 H2936 0.951 . S
C2961 C2959 1.388 . S
C2961 C2962 1.366 . S
C2962 C2961 1.366 . S
C2962 C2963 1.414 . S
C2962 C2965 1.499 . S
C2963 H2937 0.950 . S
C2963 C2962 1.414 . S
C2963 C2964 1.374 . S
C2964 H2938 0.950 . S
C2964 C2960 1.385 . S
C2964 C2963 1.374 . S
C2965 C2962 1.499 . S
C2965 C2966 1.373 . S
C2965 C2967 1.389 . S
C2966 H2939 0.950 . S
C2966 C2952 1.377 . S
C2966 C2965 1.373 . S
C2967 C2951 1.377 . S
C2967 C2965 1.389 . S
C2967 C2968 1.524 . S
C2968 C2967 1.524 . S
C2968 C2969 1.397 . S
C2968 C2973 1.363 . S
C2969 H2940 0.950 . S
C2969 C2968 1.397 . S
C2969 C2970 1.334 . S
C2970 H2941 0.950 . S
C2970 C2969 1.334 . S
C2970 C2971 1.287 . S
C2971 C2970 1.287 . S
C2971 C2972 1.524 . S
C2971 H2974 0.999 . S
C2972 H2942 0.950 . S
C2972 C2971 1.524 . S
C2972 C2973 1.415 . S
C2973 H2943 0.950 . S
C2973 C2968 1.363 . S
C2973 C2972 1.415 . S
H2974 C2971 0.999 . S
H2975 C2956 0.913 . S
H2976 C2994 0.951 . S
H2977 C2996 0.951 . S
H2978 C2998 0.950 . S
H2979 C2999 0.950 . S
H2980 C3001 0.950 . S
H2981 C3004 0.950 . S
H2982 C3005 0.963 . S
H2983 C3007 0.950 . S
H2984 C3008 0.950 . S
H2985 C3009 0.951 . S
H2986 C3011 0.951 1_556 S
H2987 C3013 0.950 . S
H2988 C3014 0.950 . S
H2989 C3016 0.950 . S
H2990 C3019 0.950 . S
H2991 C3020 0.950 . S
H2992 C3022 0.950 . S
H2993 C3023 0.950 . S
C2994 H2976 0.951 . S
C2994 C2995 1.366 . S
C2994 C2996 1.388 . S
C2995 C2994 1.366 . S
C2995 C2999 1.385 . S
C2996 H2977 0.951 . S
C2996 C2994 1.388 . S
C2996 C2997 1.366 . S
C2997 C2996 1.366 . S
C2997 C2998 1.414 . S
C2997 C3000 1.499 . S
C2998 H2978 0.950 . S
C2998 C2997 1.414 . S
C2998 C2999 1.374 . S
C2999 H2979 0.950 . S
C2999 C2995 1.385 . S
C2999 C2998 1.374 . S
C3000 C2997 1.499 . S
C3000 C3001 1.373 . S
C3000 C3002 1.389 . S
C3001 H2980 0.950 . S
C3001 C3000 1.373 . S
C3001 C3017 1.377 . S
C3002 C3000 1.389 . S
C3002 C3003 1.524 . S
C3002 C3016 1.377 . S
C3003 C3002 1.524 . S
C3003 C3004 1.397 . S
C3003 C3008 1.363 . S
C3004 H2981 0.950 . S
C3004 C3003 1.397 . S
C3004 C3005 1.321 1_554 S
C3005 H2982 0.963 . S
C3005 C3004 1.321 1_556 S
C3005 C3006 1.287 1_556 S
C3006 C3005 1.287 1_554 S
C3006 C3007 1.524 . S
C3006 H3025 0.907 1_554 S
C3007 H2983 0.950 . S
C3007 C3006 1.524 . S
C3007 C3008 1.415 . S
C3008 H2984 0.950 . S
C3008 C3003 1.363 . S
C3008 C3007 1.415 . S
C3009 H2985 0.951 . S
C3009 C3010 1.366 1_556 S
C3009 C3011 1.388 1_556 S
C3010 C3009 1.366 1_554 S
C3010 C3014 1.409 . S
C3011 H2986 0.951 1_554 S
C3011 C3009 1.388 1_554 S
C3011 C3012 1.366 . S
C3012 C3011 1.366 . S
C3012 C3013 1.414 . S
C3012 C3015 1.499 . S
C3013 H2987 0.950 . S
C3013 C3012 1.414 . S
C3013 C3014 1.374 . S
C3014 H2988 0.950 . S
C3014 C3010 1.409 . S
C3014 C3013 1.374 . S
C3015 C3012 1.499 . S
C3015 C3016 1.373 . S
C3015 C3017 1.389 . S
C3016 H2989 0.950 . S
C3016 C3002 1.377 . S
C3016 C3015 1.373 . S
C3017 C3001 1.377 . S
C3017 C3015 1.389 . S
C3017 C3018 1.524 . S
C3018 C3017 1.524 . S
C3018 C3019 1.397 . S
C3018 C3023 1.363 . S
C3019 H2990 0.950 . S
C3019 C3018 1.397 . S
C3019 C3020 1.334 . S
C3020 H2991 0.950 . S
C3020 C3019 1.334 . S
C3020 C3021 1.287 . S
C3021 C3020 1.287 . S
C3021 C3022 1.524 . S
C3021 H3024 0.999 . S
C3022 H2992 0.950 . S
C3022 C3021 1.524 . S
C3022 C3023 1.415 . S
C3023 H2993 0.950 . S
C3023 C3018 1.363 . S
C3023 C3022 1.415 . S
H3024 C3021 0.999 . S
H3025 C3006 0.907 1_556 S
H3026 C3044 0.951 . S
H3027 C3046 0.951 . S
H3028 C3048 0.950 . S
H3029 C3049 0.950 . S
H3030 C3051 0.950 1_556 S
H3031 C3054 0.950 . S
H3032 C3055 0.950 . S
H3033 C3057 0.950 . S
H3034 C3058 0.950 . S
H3035 C3059 0.951 . S
H3036 C3061 0.951 . S
H3037 C3063 0.950 . S
H3038 C3064 0.950 . S
H3039 C3066 0.950 . S
H3040 C3069 0.950 . S
H3041 C3070 0.950 . S
H3042 C3072 0.950 . S
H3043 C3073 0.950 . S
C3044 H3026 0.951 . S
C3044 C3045 1.366 . S
C3044 C3046 1.388 . S
C3045 C3044 1.366 . S
C3045 C3049 1.385 . S
C3046 H3027 0.951 . S
C3046 C3044 1.388 . S
C3046 C3047 1.366 . S
C3047 C3046 1.366 . S
C3047 C3048 1.414 . S
C3047 C3050 1.499 . S
C3048 H3028 0.950 . S
C3048 C3047 1.414 . S
C3048 C3049 1.374 . S
C3049 H3029 0.950 . S
C3049 C3045 1.385 . S
C3049 C3048 1.374 . S
C3050 C3047 1.499 . S
C3050 C3051 1.373 . S
C3050 C3052 1.389 . S
C3051 H3030 0.950 1_554 S
C3051 C3050 1.373 . S
C3051 C3067 1.377 . S
C3052 C3050 1.389 . S
C3052 C3053 1.524 . S
C3052 C3066 1.377 . S
C3053 C3052 1.524 . S
C3053 C3054 1.397 . S
C3053 C3058 1.363 . S
C3054 H3031 0.950 . S
C3054 C3053 1.397 . S
C3054 C3055 1.334 . S
C3055 H3032 0.950 . S
C3055 C3054 1.334 . S
C3055 C3056 1.287 . S
C3056 C3055 1.287 . S
C3056 C3057 1.524 . S
C3056 H3075 0.913 . S
C3057 H3033 0.950 . S
C3057 C3056 1.524 . S
C3057 C3058 1.415 . S
C3058 H3034 0.950 . S
C3058 C3053 1.363 . S
C3058 C3057 1.415 . S
C3059 H3035 0.951 . S
C3059 C3060 1.366 . S
C3059 C3061 1.388 . S
C3060 C3059 1.366 . S
C3060 C3064 1.385 . S
C3061 H3036 0.951 . S
C3061 C3059 1.388 . S
C3061 C3062 1.366 . S
C3062 C3061 1.366 . S
C3062 C3063 1.414 . S
C3062 C3065 1.499 . S
C3063 H3037 0.950 . S
C3063 C3062 1.414 . S
C3063 C3064 1.374 . S
C3064 H3038 0.950 . S
C3064 C3060 1.385 . S
C3064 C3063 1.374 . S
C3065 C3062 1.499 . S
C3065 C3066 1.373 . S
C3065 C3067 1.389 . S
C3066 H3039 0.950 . S
C3066 C3052 1.377 . S
C3066 C3065 1.373 . S
C3067 C3051 1.377 . S
C3067 C3065 1.389 . S
C3067 C3068 1.524 1_554 S
C3068 C3067 1.524 1_556 S
C3068 C3069 1.397 . S
C3068 C3073 1.363 . S
C3069 H3040 0.950 . S
C3069 C3068 1.397 . S
C3069 C3070 1.334 . S
C3070 H3041 0.950 . S
C3070 C3069 1.334 . S
C3070 C3071 1.287 . S
C3071 C3070 1.287 . S
C3071 C3072 1.524 . S
C3071 H3074 0.999 . S
C3072 H3042 0.950 . S
C3072 C3071 1.524 . S
C3072 C3073 1.415 . S
C3073 H3043 0.950 . S
C3073 C3068 1.363 . S
C3073 C3072 1.415 . S
H3074 C3071 0.999 . S
H3075 C3056 0.913 . S
H3076 C3094 0.951 . S
H3077 C3096 0.951 . S
H3078 C3098 0.950 . S
H3079 C3099 0.950 . S
H3080 C3101 0.950 . S
H3081 C3104 0.950 . S
H3082 C3105 0.950 . S
H3083 C3107 0.950 . S
H3084 C3108 0.950 . S
H3085 C3109 0.951 . S
H3086 C3111 0.951 . S
H3087 C3113 0.950 . S
H3088 C3114 0.950 . S
H3089 C3116 0.950 . S
H3090 C3119 0.950 . S
H3091 C3120 0.950 . S
H3092 C3122 0.950 . S
H3093 C3123 0.950 . S
C3094 H3076 0.951 . S
C3094 C3095 1.366 . S
C3094 C3096 1.388 . S
C3095 C3094 1.366 . S
C3095 C3099 1.385 . S
C3096 H3077 0.951 . S
C3096 C3094 1.388 . S
C3096 C3097 1.366 . S
C3097 C3096 1.366 . S
C3097 C3098 1.414 . S
C3097 C3100 1.499 . S
C3098 H3078 0.950 . S
C3098 C3097 1.414 . S
C3098 C3099 1.374 . S
C3099 H3079 0.950 . S
C3099 C3095 1.385 . S
C3099 C3098 1.374 . S
C3100 C3097 1.499 . S
C3100 C3101 1.373 . S
C3100 C3102 1.389 . S
C3101 H3080 0.950 . S
C3101 C3100 1.373 . S
C3101 C3117 1.377 . S
C3102 C3100 1.389 . S
C3102 C3103 1.524 . S
C3102 C3116 1.377 . S
C3103 C3102 1.524 . S
C3103 C3104 1.397 . S
C3103 C3108 1.363 . S
C3104 H3081 0.950 . S
C3104 C3103 1.397 . S
C3104 C3105 1.334 . S
C3105 H3082 0.950 . S
C3105 C3104 1.334 . S
C3105 C3106 1.287 . S
C3106 C3105 1.287 . S
C3106 C3107 1.524 . S
C3106 H3125 0.913 . S
C3107 H3083 0.950 . S
C3107 C3106 1.524 . S
C3107 C3108 1.415 . S
C3108 H3084 0.950 . S
C3108 C3103 1.363 . S
C3108 C3107 1.415 . S
C3109 H3085 0.951 . S
C3109 C3110 1.366 . S
C3109 C3111 1.388 . S
C3110 C3109 1.366 . S
C3110 C3114 1.385 . S
C3111 H3086 0.951 . S
C3111 C3109 1.388 . S
C3111 C3112 1.366 . S
C3112 C3111 1.366 . S
C3112 C3113 1.414 . S
C3112 C3115 1.499 . S
C3113 H3087 0.950 . S
C3113 C3112 1.414 . S
C3113 C3114 1.374 . S
C3114 H3088 0.950 . S
C3114 C3110 1.385 . S
C3114 C3113 1.374 . S
C3115 C3112 1.499 . S
C3115 C3116 1.373 . S
C3115 C3117 1.389 . S
C3116 H3089 0.950 . S
C3116 C3102 1.377 . S
C3116 C3115 1.373 . S
C3117 C3101 1.377 . S
C3117 C3115 1.389 . S
C3117 C3118 1.524 . S
C3118 C3117 1.524 . S
C3118 C3119 1.397 . S
C3118 C3123 1.363 . S
C3119 H3090 0.950 . S
C3119 C3118 1.397 . S
C3119 C3120 1.334 . S
C3120 H3091 0.950 . S
C3120 C3119 1.334 . S
C3120 C3121 1.287 . S
C3121 C3120 1.287 . S
C3121 C3122 1.524 . S
C3121 H3124 0.999 . S
C3122 H3092 0.950 . S
C3122 C3121 1.524 . S
C3122 C3123 1.415 . S
C3123 H3093 0.950 . S
C3123 C3118 1.363 . S
C3123 C3122 1.415 . S
H3124 C3121 0.999 . S
H3125 C3106 0.913 . S
H3126 C3144 0.951 . S
H3127 C3146 0.951 . S
H3128 C3148 0.950 . S
H3129 C3149 0.950 . S
H3130 C3151 0.950 . S
H3131 C3154 0.950 . S
H3132 C3155 0.950 . S
H3133 C3157 0.950 . S
H3134 C3158 0.950 . S
H3135 C3159 0.951 . S
H3136 C3161 0.951 . S
H3137 C3163 0.950 . S
H3138 C3164 0.950 . S
H3139 C3166 0.950 . S
H3140 C3169 0.950 . S
H3141 C3170 0.950 . S
H3142 C3172 0.950 . S
H3143 C3173 0.950 . S
C3144 H3126 0.951 . S
C3144 C3145 1.366 . S
C3144 C3146 1.388 . S
C3145 C3144 1.366 . S
C3145 C3149 1.385 . S
C3146 H3127 0.951 . S
C3146 C3144 1.388 . S
C3146 C3147 1.366 . S
C3147 C3146 1.366 . S
C3147 C3148 1.414 . S
C3147 C3150 1.499 . S
C3148 H3128 0.950 . S
C3148 C3147 1.414 . S
C3148 C3149 1.374 . S
C3149 H3129 0.950 . S
C3149 C3145 1.385 . S
C3149 C3148 1.374 . S
C3150 C3147 1.499 . S
C3150 C3151 1.373 . S
C3150 C3152 1.389 . S
C3151 H3130 0.950 . S
C3151 C3150 1.373 . S
C3151 C3167 1.377 . S
C3152 C3150 1.389 . S
C3152 C3153 1.524 . S
C3152 C3166 1.377 . S
C3153 C3152 1.524 . S
C3153 C3154 1.397 . S
C3153 C3158 1.363 . S
C3154 H3131 0.950 . S
C3154 C3153 1.397 . S
C3154 C3155 1.334 . S
C3155 H3132 0.950 . S
C3155 C3154 1.334 . S
C3155 C3156 1.287 . S
C3156 C3155 1.287 . S
C3156 C3157 1.524 . S
C3156 H3175 0.913 . S
C3157 H3133 0.950 . S
C3157 C3156 1.524 . S
C3157 C3158 1.415 . S
C3158 H3134 0.950 . S
C3158 C3153 1.363 . S
C3158 C3157 1.415 . S
C3159 H3135 0.951 . S
C3159 C3160 1.366 . S
C3159 C3161 1.388 . S
C3160 C3159 1.366 . S
C3160 C3164 1.385 . S
C3161 H3136 0.951 . S
C3161 C3159 1.388 . S
C3161 C3162 1.366 . S
C3162 C3161 1.366 . S
C3162 C3163 1.414 . S
C3162 C3165 1.499 . S
C3163 H3137 0.950 . S
C3163 C3162 1.414 . S
C3163 C3164 1.374 . S
C3164 H3138 0.950 . S
C3164 C3160 1.385 . S
C3164 C3163 1.374 . S
C3165 C3162 1.499 . S
C3165 C3166 1.373 . S
C3165 C3167 1.389 . S
C3166 H3139 0.950 . S
C3166 C3152 1.377 . S
C3166 C3165 1.373 . S
C3167 C3151 1.377 . S
C3167 C3165 1.389 . S
C3167 C3168 1.524 . S
C3168 C3167 1.524 . S
C3168 C3169 1.397 . S
C3168 C3173 1.363 . S
C3169 H3140 0.950 . S
C3169 C3168 1.397 . S
C3169 C3170 1.334 . S
C3170 H3141 0.950 . S
C3170 C3169 1.334 . S
C3170 C3171 1.287 . S
C3171 C3170 1.287 . S
C3171 C3172 1.524 . S
C3171 H3174 0.999 . S
C3172 H3142 0.950 . S
C3172 C3171 1.524 . S
C3172 C3173 1.415 . S
C3173 H3143 0.950 . S
C3173 C3168 1.363 . S
C3173 C3172 1.415 . S
H3174 C3171 0.999 . S
H3175 C3156 0.913 . S
H3176 C3194 0.951 . S
H3177 C3196 0.951 . S
H3178 C3198 0.950 . S
H3179 C3199 0.950 . S
H3180 C3201 0.950 . S
H3181 C3204 0.950 . S
H3182 C3205 0.950 . S
H3183 C3207 0.950 . S
H3184 C3208 0.950 . S
H3185 C3209 0.951 . S
H3186 C3211 0.951 . S
H3187 C3213 0.950 . S
H3188 C3214 0.950 . S
H3189 C3216 0.950 . S
H3190 C3219 0.950 . S
H3191 C3220 0.950 . S
H3192 C3222 0.950 . S
H3193 C3223 0.950 . S
C3194 H3176 0.951 . S
C3194 C3195 1.366 . S
C3194 C3196 1.388 . S
C3195 C3194 1.366 . S
C3195 C3199 1.385 . S
C3196 H3177 0.951 . S
C3196 C3194 1.388 . S
C3196 C3197 1.366 . S
C3197 C3196 1.366 . S
C3197 C3198 1.414 . S
C3197 C3200 1.499 . S
C3198 H3178 0.950 . S
C3198 C3197 1.414 . S
C3198 C3199 1.374 . S
C3199 H3179 0.950 . S
C3199 C3195 1.385 . S
C3199 C3198 1.374 . S
C3200 C3197 1.499 . S
C3200 C3201 1.373 . S
C3200 C3202 1.389 . S
C3201 H3180 0.950 . S
C3201 C3200 1.373 . S
C3201 C3217 1.377 . S
C3202 C3200 1.389 . S
C3202 C3203 1.524 . S
C3202 C3216 1.377 . S
C3203 C3202 1.524 . S
C3203 C3204 1.397 . S
C3203 C3208 1.363 . S
C3204 H3181 0.950 . S
C3204 C3203 1.397 . S
C3204 C3205 1.334 . S
C3205 H3182 0.950 . S
C3205 C3204 1.334 . S
C3205 C3206 1.287 . S
C3206 C3205 1.287 . S
C3206 C3207 1.524 . S
C3206 H3225 0.913 . S
C3207 H3183 0.950 . S
C3207 C3206 1.524 . S
C3207 C3208 1.415 . S
C3208 H3184 0.950 . S
C3208 C3203 1.363 . S
C3208 C3207 1.415 . S
C3209 H3185 0.951 . S
C3209 C3210 1.366 . S
C3209 C3211 1.388 . S
C3210 C3209 1.366 . S
C3210 C3214 1.385 . S
C3211 H3186 0.951 . S
C3211 C3209 1.388 . S
C3211 C3212 1.366 . S
C3212 C3211 1.366 . S
C3212 C3213 1.414 . S
C3212 C3215 1.499 . S
C3213 H3187 0.950 . S
C3213 C3212 1.414 . S
C3213 C3214 1.374 . S
C3214 H3188 0.950 . S
C3214 C3210 1.385 . S
C3214 C3213 1.374 . S
C3215 C3212 1.499 . S
C3215 C3216 1.373 . S
C3215 C3217 1.389 . S
C3216 H3189 0.950 . S
C3216 C3202 1.377 . S
C3216 C3215 1.373 . S
C3217 C3201 1.377 . S
C3217 C3215 1.389 . S
C3217 C3218 1.524 . S
C3218 C3217 1.524 . S
C3218 C3219 1.397 . S
C3218 C3223 1.363 . S
C3219 H3190 0.950 . S
C3219 C3218 1.397 . S
C3219 C3220 1.334 . S
C3220 H3191 0.950 . S
C3220 C3219 1.334 . S
C3220 C3221 1.287 . S
C3221 C3220 1.287 . S
C3221 C3222 1.524 . S
C3221 H3224 0.999 . S
C3222 H3192 0.950 . S
C3222 C3221 1.524 . S
C3222 C3223 1.415 . S
C3223 H3193 0.950 . S
C3223 C3218 1.363 . S
C3223 C3222 1.415 . S
H3224 C3221 0.999 . S
H3225 C3206 0.913 . S
H3226 C3244 0.951 . S
H3227 C3246 0.951 . S
H3228 C3248 0.950 . S
H3229 C3249 0.950 . S
H3230 C3251 0.950 . S
H3231 C3254 0.950 . S
H3232 C3255 0.950 . S
H3233 C3257 0.950 . S
H3234 C3258 0.950 . S
H3235 C3259 0.951 . S
H3236 C3261 0.951 . S
H3237 C3263 0.950 . S
H3238 C3264 0.950 . S
H3239 C3266 0.950 . S
H3240 C3269 0.950 . S
H3241 C3270 0.950 1_545 S
H3242 C3272 0.950 . S
H3243 C3273 0.950 . S
C3244 H3226 0.951 . S
C3244 C3245 1.366 . S
C3244 C3246 1.388 . S
C3245 C3244 1.366 . S
C3245 C3249 1.385 . S
C3246 H3227 0.951 . S
C3246 C3244 1.388 . S
C3246 C3247 1.366 . S
C3247 C3246 1.366 . S
C3247 C3248 1.414 . S
C3247 C3250 1.499 . S
C3248 H3228 0.950 . S
C3248 C3247 1.414 . S
C3248 C3249 1.374 . S
C3249 H3229 0.950 . S
C3249 C3245 1.385 . S
C3249 C3248 1.374 . S
C3250 C3247 1.499 . S
C3250 C3251 1.373 . S
C3250 C3252 1.389 . S
C3251 H3230 0.950 . S
C3251 C3250 1.373 . S
C3251 C3267 1.377 . S
C3252 C3250 1.389 . S
C3252 C3253 1.524 . S
C3252 C3266 1.377 . S
C3253 C3252 1.524 . S
C3253 C3254 1.397 . S
C3253 C3258 1.363 . S
C3254 H3231 0.950 . S
C3254 C3253 1.397 . S
C3254 C3255 1.334 . S
C3255 H3232 0.950 . S
C3255 C3254 1.334 . S
C3255 C3256 1.287 . S
C3256 C3255 1.287 . S
C3256 C3257 1.524 . S
C3256 H3275 0.913 . S
C3257 H3233 0.950 . S
C3257 C3256 1.524 . S
C3257 C3258 1.415 . S
C3258 H3234 0.950 . S
C3258 C3253 1.363 . S
C3258 C3257 1.415 . S
C3259 H3235 0.951 . S
C3259 C3260 1.366 . S
C3259 C3261 1.388 . S
C3260 C3259 1.366 . S
C3260 C3264 1.385 . S
C3261 H3236 0.951 . S
C3261 C3259 1.388 . S
C3261 C3262 1.366 . S
C3262 C3261 1.366 . S
C3262 C3263 1.414 . S
C3262 C3265 1.499 . S
C3263 H3237 0.950 . S
C3263 C3262 1.414 . S
C3263 C3264 1.374 . S
C3264 H3238 0.950 . S
C3264 C3260 1.385 . S
C3264 C3263 1.374 . S
C3265 C3262 1.499 . S
C3265 C3266 1.373 . S
C3265 C3267 1.389 . S
C3266 H3239 0.950 . S
C3266 C3252 1.377 . S
C3266 C3265 1.373 . S
C3267 C3251 1.377 . S
C3267 C3265 1.389 . S
C3267 C3268 1.524 . S
C3268 C3267 1.524 . S
C3268 C3269 1.397 . S
C3268 C3273 1.363 . S
C3269 H3240 0.950 . S
C3269 C3268 1.397 . S
C3269 C3270 1.334 . S
C3270 H3241 0.950 1_565 S
C3270 C3269 1.334 . S
C3270 C3271 1.287 1_565 S
C3271 C3270 1.287 1_545 S
C3271 C3272 1.524 1_545 S
C3271 H3274 0.999 . S
C3272 H3242 0.950 . S
C3272 C3271 1.524 1_565 S
C3272 C3273 1.415 . S
C3273 H3243 0.950 . S
C3273 C3268 1.363 . S
C3273 C3272 1.415 . S
H3274 C3271 0.999 . S
H3275 C3256 0.913 . S
H3276 C3294 0.951 . S
H3277 C3296 0.951 . S
H3278 C3298 0.950 . S
H3279 C3299 0.950 . S
H3280 C3301 0.950 . S
H3281 C3304 0.950 . S
H3282 C3305 0.950 . S
H3283 C3307 0.950 . S
H3284 C3308 0.950 . S
H3285 C3309 0.951 . S
H3286 C3311 0.951 . S
H3287 C3313 0.950 . S
H3288 C3314 0.950 . S
H3289 C3316 0.950 . S
H3290 C3319 0.950 . S
H3291 C3320 0.950 . S
H3292 C3322 0.950 . S
H3293 C3323 0.950 . S
C3294 H3276 0.951 . S
C3294 C3295 1.366 . S
C3294 C3296 1.388 . S
C3295 C3294 1.366 . S
C3295 C3299 1.385 . S
C3296 H3277 0.951 . S
C3296 C3294 1.388 . S
C3296 C3297 1.366 . S
C3297 C3296 1.366 . S
C3297 C3298 1.414 . S
C3297 C3300 1.499 . S
C3298 H3278 0.950 . S
C3298 C3297 1.414 . S
C3298 C3299 1.374 . S
C3299 H3279 0.950 . S
C3299 C3295 1.385 . S
C3299 C3298 1.374 . S
C3300 C3297 1.499 . S
C3300 C3301 1.373 . S
C3300 C3302 1.389 . S
C3301 H3280 0.950 . S
C3301 C3300 1.373 . S
C3301 C3317 1.377 . S
C3302 C3300 1.389 . S
C3302 C3303 1.524 . S
C3302 C3316 1.377 . S
C3303 C3302 1.524 . S
C3303 C3304 1.397 . S
C3303 C3308 1.363 . S
C3304 H3281 0.950 . S
C3304 C3303 1.397 . S
C3304 C3305 1.334 . S
C3305 H3282 0.950 . S
C3305 C3304 1.334 . S
C3305 C3306 1.287 . S
C3306 C3305 1.287 . S
C3306 C3307 1.524 . S
C3306 H3325 0.913 . S
C3307 H3283 0.950 . S
C3307 C3306 1.524 . S
C3307 C3308 1.415 . S
C3308 H3284 0.950 . S
C3308 C3303 1.363 . S
C3308 C3307 1.415 . S
C3309 H3285 0.951 . S
C3309 C3310 1.366 . S
C3309 C3311 1.388 . S
C3310 C3309 1.366 . S
C3310 C3314 1.385 . S
C3311 H3286 0.951 . S
C3311 C3309 1.388 . S
C3311 C3312 1.366 . S
C3312 C3311 1.366 . S
C3312 C3313 1.414 . S
C3312 C3315 1.499 . S
C3313 H3287 0.950 . S
C3313 C3312 1.414 . S
C3313 C3314 1.374 . S
C3314 H3288 0.950 . S
C3314 C3310 1.385 . S
C3314 C3313 1.374 . S
C3315 C3312 1.499 . S
C3315 C3316 1.373 . S
C3315 C3317 1.389 . S
C3316 H3289 0.950 . S
C3316 C3302 1.377 . S
C3316 C3315 1.373 . S
C3317 C3301 1.377 . S
C3317 C3315 1.389 . S
C3317 C3318 1.524 . S
C3318 C3317 1.524 . S
C3318 C3319 1.397 . S
C3318 C3323 1.363 . S
C3319 H3290 0.950 . S
C3319 C3318 1.397 . S
C3319 C3320 1.334 . S
C3320 H3291 0.950 . S
C3320 C3319 1.334 . S
C3320 C3321 1.287 . S
C3321 C3320 1.287 . S
C3321 C3322 1.524 . S
C3321 H3324 0.999 . S
C3322 H3292 0.950 . S
C3322 C3321 1.524 . S
C3322 C3323 1.415 . S
C3323 H3293 0.950 . S
C3323 C3318 1.363 . S
C3323 C3322 1.415 . S
H3324 C3321 0.999 . S
H3325 C3306 0.913 . S
H3326 C3344 0.951 . S
H3327 C3346 0.951 . S
H3328 C3348 0.950 . S
H3329 C3349 0.950 . S
H3330 C3351 0.950 . S
H3331 C3354 0.950 . S
H3332 C3355 0.950 . S
H3333 C3357 0.950 . S
H3334 C3358 0.950 . S
H3335 C3359 0.951 . S
H3336 C3361 0.951 . S
H3337 C3363 0.950 . S
H3338 C3364 0.950 . S
H3339 C3366 0.950 . S
H3340 C3369 0.950 . S
H3341 C3370 0.950 . S
H3342 C3372 0.950 . S
H3343 C3373 0.950 . S
C3344 H3326 0.951 . S
C3344 C3345 1.366 . S
C3344 C3346 1.388 . S
C3345 C3344 1.366 . S
C3345 C3349 1.385 . S
C3346 H3327 0.951 . S
C3346 C3344 1.388 . S
C3346 C3347 1.366 . S
C3347 C3346 1.366 . S
C3347 C3348 1.414 . S
C3347 C3350 1.499 . S
C3348 H3328 0.950 . S
C3348 C3347 1.414 . S
C3348 C3349 1.374 . S
C3349 H3329 0.950 . S
C3349 C3345 1.385 . S
C3349 C3348 1.374 . S
C3350 C3347 1.499 . S
C3350 C3351 1.373 . S
C3350 C3352 1.389 . S
C3351 H3330 0.950 . S
C3351 C3350 1.373 . S
C3351 C3367 1.377 . S
C3352 C3350 1.389 . S
C3352 C3353 1.524 . S
C3352 C3366 1.377 . S
C3353 C3352 1.524 . S
C3353 C3354 1.397 . S
C3353 C3358 1.363 . S
C3354 H3331 0.950 . S
C3354 C3353 1.397 . S
C3354 C3355 1.334 . S
C3355 H3332 0.950 . S
C3355 C3354 1.334 . S
C3355 C3356 1.287 . S
C3356 C3355 1.287 . S
C3356 C3357 1.524 . S
C3356 H3375 0.913 . S
C3357 H3333 0.950 . S
C3357 C3356 1.524 . S
C3357 C3358 1.415 . S
C3358 H3334 0.950 . S
C3358 C3353 1.363 . S
C3358 C3357 1.415 . S
C3359 H3335 0.951 . S
C3359 C3360 1.366 . S
C3359 C3361 1.388 . S
C3360 C3359 1.366 . S
C3360 C3364 1.385 . S
C3361 H3336 0.951 . S
C3361 C3359 1.388 . S
C3361 C3362 1.366 . S
C3362 C3361 1.366 . S
C3362 C3363 1.414 . S
C3362 C3365 1.499 . S
C3363 H3337 0.950 . S
C3363 C3362 1.414 . S
C3363 C3364 1.374 . S
C3364 H3338 0.950 . S
C3364 C3360 1.385 . S
C3364 C3363 1.374 . S
C3365 C3362 1.499 . S
C3365 C3366 1.373 . S
C3365 C3367 1.389 . S
C3366 H3339 0.950 . S
C3366 C3352 1.377 . S
C3366 C3365 1.373 . S
C3367 C3351 1.377 . S
C3367 C3365 1.389 . S
C3367 C3368 1.524 . S
C3368 C3367 1.524 . S
C3368 C3369 1.397 . S
C3368 C3373 1.363 . S
C3369 H3340 0.950 . S
C3369 C3368 1.397 . S
C3369 C3370 1.334 . S
C3370 H3341 0.950 . S
C3370 C3369 1.334 . S
C3370 C3371 1.287 . S
C3371 C3370 1.287 . S
C3371 C3372 1.524 . S
C3371 H3374 0.999 . S
C3372 H3342 0.950 . S
C3372 C3371 1.524 . S
C3372 C3373 1.415 . S
C3373 H3343 0.950 . S
C3373 C3368 1.363 . S
C3373 C3372 1.415 . S
H3374 C3371 0.999 . S
H3375 C3356 0.913 . S
H3376 C3394 0.951 . S
H3377 C3396 0.951 . S
H3378 C3398 0.950 . S
H3379 C3399 0.950 . S
H3380 C3401 0.950 . S
H3381 C3404 0.950 . S
H3382 C3405 0.950 . S
H3383 C3407 0.950 . S
H3384 C3408 0.950 . S
H3385 C3409 0.951 . S
H3386 C3411 0.951 . S
H3387 C3413 0.950 . S
H3388 C3414 0.950 . S
H3389 C3416 0.950 . S
H3390 C3419 0.950 . S
H3391 C3420 0.950 . S
H3392 C3422 0.950 . S
H3393 C3423 0.950 . S
C3394 H3376 0.951 . S
C3394 C3395 1.366 . S
C3394 C3396 1.388 . S
C3395 C3394 1.366 . S
C3395 C3399 1.385 . S
C3396 H3377 0.951 . S
C3396 C3394 1.388 . S
C3396 C3397 1.366 . S
C3397 C3396 1.366 . S
C3397 C3398 1.414 . S
C3397 C3400 1.499 . S
C3398 H3378 0.950 . S
C3398 C3397 1.414 . S
C3398 C3399 1.374 . S
C3399 H3379 0.950 . S
C3399 C3395 1.385 . S
C3399 C3398 1.374 . S
C3400 C3397 1.499 . S
C3400 C3401 1.373 . S
C3400 C3402 1.389 . S
C3401 H3380 0.950 . S
C3401 C3400 1.373 . S
C3401 C3417 1.377 . S
C3402 C3400 1.389 . S
C3402 C3403 1.524 . S
C3402 C3416 1.377 . S
C3403 C3402 1.524 . S
C3403 C3404 1.397 . S
C3403 C3408 1.363 . S
C3404 H3381 0.950 . S
C3404 C3403 1.397 . S
C3404 C3405 1.334 . S
C3405 H3382 0.950 . S
C3405 C3404 1.334 . S
C3405 C3406 1.287 . S
C3406 C3405 1.287 . S
C3406 C3407 1.524 . S
C3406 H3425 0.913 . S
C3407 H3383 0.950 . S
C3407 C3406 1.524 . S
C3407 C3408 1.415 . S
C3408 H3384 0.950 . S
C3408 C3403 1.363 . S
C3408 C3407 1.415 . S
C3409 H3385 0.951 . S
C3409 C3410 1.366 . S
C3409 C3411 1.388 . S
C3410 C3409 1.366 . S
C3410 C3414 1.385 . S
C3411 H3386 0.951 . S
C3411 C3409 1.388 . S
C3411 C3412 1.366 . S
C3412 C3411 1.366 . S
C3412 C3413 1.414 . S
C3412 C3415 1.499 . S
C3413 H3387 0.950 . S
C3413 C3412 1.414 . S
C3413 C3414 1.374 . S
C3414 H3388 0.950 . S
C3414 C3410 1.385 . S
C3414 C3413 1.374 . S
C3415 C3412 1.499 . S
C3415 C3416 1.373 . S
C3415 C3417 1.389 . S
C3416 H3389 0.950 . S
C3416 C3402 1.377 . S
C3416 C3415 1.373 . S
C3417 C3401 1.377 . S
C3417 C3415 1.389 . S
C3417 C3418 1.524 . S
C3418 C3417 1.524 . S
C3418 C3419 1.397 . S
C3418 C3423 1.363 . S
C3419 H3390 0.950 . S
C3419 C3418 1.397 . S
C3419 C3420 1.334 . S
C3420 H3391 0.950 . S
C3420 C3419 1.334 . S
C3420 C3421 1.287 . S
C3421 C3420 1.287 . S
C3421 C3422 1.524 . S
C3421 H3424 0.999 . S
C3422 H3392 0.950 . S
C3422 C3421 1.524 . S
C3422 C3423 1.415 . S
C3423 H3393 0.950 . S
C3423 C3418 1.363 . S
C3423 C3422 1.415 . S
H3424 C3421 0.999 . S
H3425 C3406 0.913 . S
H3426 C3444 0.951 . S
H3427 C3446 0.951 . S
H3428 C3448 0.950 . S
H3429 C3449 0.950 . S
H3430 C3451 0.950 . S
H3431 C3454 0.950 . S
H3432 C3455 0.950 . S
H3433 C3457 0.950 . S
H3434 C3458 0.950 . S
H3435 C3459 0.951 . S
H3436 C3461 0.951 . S
H3437 C3463 0.950 . S
H3438 C3464 0.950 . S
H3439 C3466 0.950 . S
H3440 C3469 0.950 . S
H3441 C3470 0.950 . S
H3442 C3472 0.950 . S
H3443 C3473 0.950 . S
C3444 H3426 0.951 . S
C3444 C3445 1.366 . S
C3444 C3446 1.388 . S
C3445 C3444 1.366 . S
C3445 C3449 1.385 . S
C3446 H3427 0.951 . S
C3446 C3444 1.388 . S
C3446 C3447 1.366 . S
C3447 C3446 1.366 . S
C3447 C3448 1.414 . S
C3447 C3450 1.499 . S
C3448 H3428 0.950 . S
C3448 C3447 1.414 . S
C3448 C3449 1.374 . S
C3449 H3429 0.950 . S
C3449 C3445 1.385 . S
C3449 C3448 1.374 . S
C3450 C3447 1.499 . S
C3450 C3451 1.373 . S
C3450 C3452 1.389 . S
C3451 H3430 0.950 . S
C3451 C3450 1.373 . S
C3451 C3467 1.377 . S
C3452 C3450 1.389 . S
C3452 C3453 1.524 . S
C3452 C3466 1.377 . S
C3453 C3452 1.524 . S
C3453 C3454 1.397 . S
C3453 C3458 1.363 . S
C3454 H3431 0.950 . S
C3454 C3453 1.397 . S
C3454 C3455 1.334 . S
C3455 H3432 0.950 . S
C3455 C3454 1.334 . S
C3455 C3456 1.287 . S
C3456 C3455 1.287 . S
C3456 C3457 1.524 . S
C3456 H3475 0.913 . S
C3457 H3433 0.950 . S
C3457 C3456 1.524 . S
C3457 C3458 1.415 . S
C3458 H3434 0.950 . S
C3458 C3453 1.363 . S
C3458 C3457 1.415 . S
C3459 H3435 0.951 . S
C3459 C3460 1.366 . S
C3459 C3461 1.388 . S
C3460 C3459 1.366 . S
C3460 C3464 1.385 . S
C3461 H3436 0.951 . S
C3461 C3459 1.388 . S
C3461 C3462 1.366 . S
C3462 C3461 1.366 . S
C3462 C3463 1.414 . S
C3462 C3465 1.499 . S
C3463 H3437 0.950 . S
C3463 C3462 1.414 . S
C3463 C3464 1.374 . S
C3464 H3438 0.950 . S
C3464 C3460 1.385 . S
C3464 C3463 1.374 . S
C3465 C3462 1.499 . S
C3465 C3466 1.373 . S
C3465 C3467 1.389 . S
C3466 H3439 0.950 . S
C3466 C3452 1.377 . S
C3466 C3465 1.373 . S
C3467 C3451 1.377 . S
C3467 C3465 1.389 . S
C3467 C3468 1.524 . S
C3468 C3467 1.524 . S
C3468 C3469 1.397 . S
C3468 C3473 1.363 . S
C3469 H3440 0.950 . S
C3469 C3468 1.397 . S
C3469 C3470 1.334 . S
C3470 H3441 0.950 . S
C3470 C3469 1.334 . S
C3470 C3471 1.287 . S
C3471 C3470 1.287 . S
C3471 C3472 1.524 . S
C3471 H3474 0.999 . S
C3472 H3442 0.950 . S
C3472 C3471 1.524 . S
C3472 C3473 1.415 . S
C3473 H3443 0.950 . S
C3473 C3468 1.363 . S
C3473 C3472 1.415 . S
H3474 C3471 0.999 . S
H3475 C3456 0.913 . S
H3476 C3494 0.951 . S
H3477 C3496 0.951 . S
H3478 C3498 0.950 . S
H3479 C3499 0.950 . S
H3480 C3501 0.950 1_655 S
H3481 C3504 0.950 . S
H3482 C3505 0.950 . S
H3483 C3507 0.950 . S
H3484 C3508 0.950 . S
H3485 C3509 0.951 . S
H3486 C3511 0.951 . S
H3487 C3513 0.950 . S
H3488 C3514 0.950 . S
H3489 C3516 0.950 . S
H3490 C3519 0.950 . S
H3491 C3520 0.950 . S
H3492 C3522 0.950 . S
H3493 C3523 0.950 . S
C3494 H3476 0.951 . S
C3494 C3495 1.366 . S
C3494 C3496 1.388 . S
C3495 C3494 1.366 . S
C3495 C3499 1.385 . S
C3496 H3477 0.951 . S
C3496 C3494 1.388 . S
C3496 C3497 1.366 . S
C3497 C3496 1.366 . S
C3497 C3498 1.414 . S
C3497 C3500 1.499 . S
C3498 H3478 0.950 . S
C3498 C3497 1.414 . S
C3498 C3499 1.374 . S
C3499 H3479 0.950 . S
C3499 C3495 1.385 . S
C3499 C3498 1.374 . S
C3500 C3497 1.499 . S
C3500 C3501 1.373 . S
C3500 C3502 1.389 . S
C3501 H3480 0.950 1_455 S
C3501 C3500 1.373 . S
C3501 C3517 1.377 . S
C3502 C3500 1.389 . S
C3502 C3503 1.524 . S
C3502 C3516 1.377 . S
C3503 C3502 1.524 . S
C3503 C3504 1.397 . S
C3503 C3508 1.363 . S
C3504 H3481 0.950 . S
C3504 C3503 1.397 . S
C3504 C3505 1.334 . S
C3505 H3482 0.950 . S
C3505 C3504 1.334 . S
C3505 C3506 1.287 . S
C3506 C3505 1.287 . S
C3506 C3507 1.524 . S
C3506 H3525 0.913 . S
C3507 H3483 0.950 . S
C3507 C3506 1.524 . S
C3507 C3508 1.415 . S
C3508 H3484 0.950 . S
C3508 C3503 1.363 . S
C3508 C3507 1.415 . S
C3509 H3485 0.951 . S
C3509 C3510 1.366 . S
C3509 C3511 1.388 . S
C3510 C3509 1.366 . S
C3510 C3514 1.385 1_554 S
C3511 H3486 0.951 . S
C3511 C3509 1.388 . S
C3511 C3512 1.366 1_554 S
C3512 C3511 1.366 1_556 S
C3512 C3513 1.414 . S
C3512 C3515 1.499 . S
C3513 H3487 0.950 . S
C3513 C3512 1.414 . S
C3513 C3514 1.374 . S
C3514 H3488 0.950 . S
C3514 C3510 1.385 1_556 S
C3514 C3513 1.374 . S
C3515 C3512 1.499 . S
C3515 C3516 1.373 . S
C3515 C3517 1.389 . S
C3516 H3489 0.950 . S
C3516 C3502 1.377 . S
C3516 C3515 1.373 . S
C3517 C3501 1.377 . S
C3517 C3515 1.389 . S
C3517 C3518 1.524 1_455 S
C3518 C3517 1.524 1_655 S
C3518 C3519 1.397 . S
C3518 C3523 1.363 1_556 S
C3519 H3490 0.950 . S
C3519 C3518 1.397 . S
C3519 C3520 1.334 . S
C3520 H3491 0.950 . S
C3520 C3519 1.334 . S
C3520 C3521 1.287 1_556 S
C3521 C3520 1.287 1_554 S
C3521 C3522 1.524 . S
C3521 H3524 0.999 . S
C3522 H3492 0.950 . S
C3522 C3521 1.524 . S
C3522 C3523 1.415 . S
C3523 H3493 0.950 . S
C3523 C3518 1.363 1_554 S
C3523 C3522 1.415 . S
H3524 C3521 0.999 . S
H3525 C3506 0.913 . S
H3526 C3544 0.951 . S
H3527 C3546 0.951 . S
H3528 C3548 0.950 . S
H3529 C3549 0.950 . S
H3530 C3551 0.950 . S
H3531 C3554 0.950 . S
H3532 C3555 0.950 . S
H3533 C3557 0.950 . S
H3534 C3558 0.950 . S
H3535 C3559 0.951 . S
H3536 C3561 0.951 . S
H3537 C3563 0.950 . S
H3538 C3564 0.950 . S
H3539 C3566 0.950 . S
H3540 C3569 0.950 . S
H3541 C3570 0.950 . S
H3542 C3572 0.950 . S
H3543 C3573 0.950 . S
C3544 H3526 0.951 . S
C3544 C3545 1.366 . S
C3544 C3546 1.388 1_455 S
C3545 C3544 1.366 . S
C3545 C3549 1.385 1_455 S
C3546 H3527 0.951 . S
C3546 C3544 1.388 1_655 S
C3546 C3547 1.366 . S
C3547 C3546 1.366 . S
C3547 C3548 1.414 . S
C3547 C3550 1.499 . S
C3548 H3528 0.950 . S
C3548 C3547 1.414 . S
C3548 C3549 1.374 . S
C3549 H3529 0.950 . S
C3549 C3545 1.385 1_655 S
C3549 C3548 1.374 . S
C3550 C3547 1.499 . S
C3550 C3551 1.373 . S
C3550 C3552 1.389 . S
C3551 H3530 0.950 . S
C3551 C3550 1.373 . S
C3551 C3567 1.377 . S
C3552 C3550 1.389 . S
C3552 C3553 1.524 . S
C3552 C3566 1.377 . S
C3553 C3552 1.524 . S
C3553 C3554 1.397 . S
C3553 C3558 1.363 . S
C3554 H3531 0.950 . S
C3554 C3553 1.397 . S
C3554 C3555 1.334 . S
C3555 H3532 0.950 . S
C3555 C3554 1.334 . S
C3555 C3556 1.287 . S
C3556 C3555 1.287 . S
C3556 C3557 1.524 . S
C3556 H3575 0.951 . S
C3557 H3533 0.950 . S
C3557 C3556 1.524 . S
C3557 C3558 1.415 . S
C3558 H3534 0.950 . S
C3558 C3553 1.363 . S
C3558 C3557 1.415 . S
C3559 H3535 0.951 . S
C3559 C3560 1.366 . S
C3559 C3561 1.388 . S
C3560 C3559 1.366 . S
C3560 C3564 1.385 . S
C3561 H3536 0.951 . S
C3561 C3559 1.388 . S
C3561 C3562 1.366 . S
C3562 C3561 1.366 . S
C3562 C3563 1.414 . S
C3562 C3565 1.499 . S
C3563 H3537 0.950 . S
C3563 C3562 1.414 . S
C3563 C3564 1.374 . S
C3564 H3538 0.950 . S
C3564 C3560 1.385 . S
C3564 C3563 1.374 . S
C3565 C3562 1.499 . S
C3565 C3566 1.373 . S
C3565 C3567 1.389 . S
C3566 H3539 0.950 . S
C3566 C3552 1.377 . S
C3566 C3565 1.373 . S
C3567 C3551 1.377 . S
C3567 C3565 1.389 . S
C3567 C3568 1.524 . S
C3568 C3567 1.524 . S
C3568 C3569 1.397 . S
C3568 C3573 1.363 . S
C3569 H3540 0.950 . S
C3569 C3568 1.397 . S
C3569 C3570 1.334 . S
C3570 H3541 0.950 . S
C3570 C3569 1.334 . S
C3570 C3571 1.287 . S
C3571 C3570 1.287 . S
C3571 C3572 1.524 . S
C3571 H3574 0.999 . S
C3572 H3542 0.950 . S
C3572 C3571 1.524 . S
C3572 C3573 1.415 . S
C3573 H3543 0.950 . S
C3573 C3568 1.363 . S
C3573 C3572 1.415 . S
H3574 C3571 0.999 . S
H3575 C3556 0.951 . S
H3576 C3594 0.951 . S
H3577 C3596 0.951 . S
H3578 C3598 0.950 . S
H3579 C3599 0.950 . S
H3580 C3601 0.950 . S
H3581 C3604 0.950 . S
H3582 C3605 0.950 . S
H3583 C3607 0.950 . S
H3584 C3608 0.950 . S
H3585 C3609 0.951 . S
H3586 C3611 0.951 . S
H3587 C3613 0.950 . S
H3588 C3614 0.950 . S
H3589 C3616 0.950 . S
H3590 C3619 0.950 . S
H3591 C3620 0.950 . S
H3592 C3622 0.950 . S
H3593 C3623 0.950 . S
C3594 H3576 0.951 . S
C3594 C3595 1.366 . S
C3594 C3596 1.388 . S
C3595 C3594 1.366 . S
C3595 C3599 1.385 . S
C3596 H3577 0.951 . S
C3596 C3594 1.388 . S
C3596 C3597 1.366 . S
C3597 C3596 1.366 . S
C3597 C3598 1.414 . S
C3597 C3600 1.499 . S
C3598 H3578 0.950 . S
C3598 C3597 1.414 . S
C3598 C3599 1.374 . S
C3599 H3579 0.950 . S
C3599 C3595 1.385 . S
C3599 C3598 1.374 . S
C3600 C3597 1.499 . S
C3600 C3601 1.373 . S
C3600 C3602 1.389 . S
C3601 H3580 0.950 . S
C3601 C3600 1.373 . S
C3601 C3617 1.377 . S
C3602 C3600 1.389 . S
C3602 C3603 1.524 . S
C3602 C3616 1.377 . S
C3603 C3602 1.524 . S
C3603 C3604 1.397 . S
C3603 C3608 1.363 . S
C3604 H3581 0.950 . S
C3604 C3603 1.397 . S
C3604 C3605 1.334 . S
C3605 H3582 0.950 . S
C3605 C3604 1.334 . S
C3605 C3606 1.287 . S
C3606 C3605 1.287 . S
C3606 C3607 1.524 . S
C3606 H3625 0.913 . S
C3607 H3583 0.950 . S
C3607 C3606 1.524 . S
C3607 C3608 1.415 . S
C3608 H3584 0.950 . S
C3608 C3603 1.363 . S
C3608 C3607 1.415 . S
C3609 H3585 0.951 . S
C3609 C3610 1.366 . S
C3609 C3611 1.388 . S
C3610 C3609 1.366 . S
C3610 C3614 1.385 . S
C3611 H3586 0.951 . S
C3611 C3609 1.388 . S
C3611 C3612 1.366 . S
C3612 C3611 1.366 . S
C3612 C3613 1.414 . S
C3612 C3615 1.499 . S
C3613 H3587 0.950 . S
C3613 C3612 1.414 . S
C3613 C3614 1.374 . S
C3614 H3588 0.950 . S
C3614 C3610 1.385 . S
C3614 C3613 1.374 . S
C3615 C3612 1.499 . S
C3615 C3616 1.373 . S
C3615 C3617 1.389 . S
C3616 H3589 0.950 . S
C3616 C3602 1.377 . S
C3616 C3615 1.373 . S
C3617 C3601 1.377 . S
C3617 C3615 1.389 . S
C3617 C3618 1.524 . S
C3618 C3617 1.524 . S
C3618 C3619 1.397 . S
C3618 C3623 1.363 . S
C3619 H3590 0.950 . S
C3619 C3618 1.397 . S
C3619 C3620 1.334 . S
C3620 H3591 0.950 . S
C3620 C3619 1.334 . S
C3620 C3621 1.287 . S
C3621 C3620 1.287 . S
C3621 C3622 1.524 . S
C3621 H3624 0.999 . S
C3622 H3592 0.950 . S
C3622 C3621 1.524 . S
C3622 C3623 1.415 . S
C3623 H3593 0.950 . S
C3623 C3618 1.363 . S
C3623 C3622 1.415 . S
H3624 C3621 0.999 . S
H3625 C3606 0.913 . S
H3626 C3644 0.951 . S
H3627 C3646 0.951 . S
H3628 C3648 0.950 . S
H3629 C3649 0.950 . S
H3630 C3651 0.950 . S
H3631 C3654 0.950 . S
H3632 C3655 0.950 . S
H3633 C3657 0.950 . S
H3634 C3658 0.950 . S
H3635 C3659 0.951 . S
H3636 C3661 0.951 . S
H3637 C3663 0.950 . S
H3638 C3664 0.950 . S
H3639 C3666 0.950 . S
H3640 C3669 0.950 . S
H3641 C3670 0.950 . S
H3642 C3672 0.950 . S
H3643 C3673 0.950 . S
C3644 H3626 0.951 . S
C3644 C3645 1.366 . S
C3644 C3646 1.388 . S
C3645 C3644 1.366 . S
C3645 C3649 1.385 . S
C3646 H3627 0.951 . S
C3646 C3644 1.388 . S
C3646 C3647 1.366 . S
C3647 C3646 1.366 . S
C3647 C3648 1.414 . S
C3647 C3650 1.499 . S
C3648 H3628 0.950 . S
C3648 C3647 1.414 . S
C3648 C3649 1.374 . S
C3649 H3629 0.950 . S
C3649 C3645 1.385 . S
C3649 C3648 1.374 . S
C3650 C3647 1.499 . S
C3650 C3651 1.373 . S
C3650 C3652 1.389 . S
C3651 H3630 0.950 . S
C3651 C3650 1.373 . S
C3651 C3667 1.377 . S
C3652 C3650 1.389 . S
C3652 C3653 1.524 . S
C3652 C3666 1.377 . S
C3653 C3652 1.524 . S
C3653 C3654 1.397 . S
C3653 C3658 1.363 . S
C3654 H3631 0.950 . S
C3654 C3653 1.397 . S
C3654 C3655 1.334 . S
C3655 H3632 0.950 . S
C3655 C3654 1.334 . S
C3655 C3656 1.287 . S
C3656 C3655 1.287 . S
C3656 C3657 1.524 . S
C3656 H3675 0.913 . S
C3657 H3633 0.950 . S
C3657 C3656 1.524 . S
C3657 C3658 1.415 . S
C3658 H3634 0.950 . S
C3658 C3653 1.363 . S
C3658 C3657 1.415 . S
C3659 H3635 0.951 . S
C3659 C3660 1.366 . S
C3659 C3661 1.388 . S
C3660 C3659 1.366 . S
C3660 C3664 1.385 . S
C3661 H3636 0.951 . S
C3661 C3659 1.388 . S
C3661 C3662 1.366 . S
C3662 C3661 1.366 . S
C3662 C3663 1.414 . S
C3662 C3665 1.499 . S
C3663 H3637 0.950 . S
C3663 C3662 1.414 . S
C3663 C3664 1.374 . S
C3664 H3638 0.950 . S
C3664 C3660 1.385 . S
C3664 C3663 1.374 . S
C3665 C3662 1.499 . S
C3665 C3666 1.373 . S
C3665 C3667 1.389 . S
C3666 H3639 0.950 . S
C3666 C3652 1.377 . S
C3666 C3665 1.373 . S
C3667 C3651 1.377 . S
C3667 C3665 1.389 . S
C3667 C3668 1.524 . S
C3668 C3667 1.524 . S
C3668 C3669 1.397 . S
C3668 C3673 1.363 . S
C3669 H3640 0.950 . S
C3669 C3668 1.397 . S
C3669 C3670 1.334 . S
C3670 H3641 0.950 . S
C3670 C3669 1.334 . S
C3670 C3671 1.287 . S
C3671 C3670 1.287 . S
C3671 C3672 1.524 . S
C3671 H3674 0.999 . S
C3672 H3642 0.950 . S
C3672 C3671 1.524 . S
C3672 C3673 1.415 . S
C3673 H3643 0.950 . S
C3673 C3668 1.363 . S
C3673 C3672 1.415 . S
H3674 C3671 0.999 . S
H3675 C3656 0.913 . S
H3676 C3694 0.951 . S
H3677 C3696 0.951 . S
H3678 C3698 0.950 . S
H3679 C3699 0.950 . S
H3680 C3701 0.950 . S
H3681 C3704 0.950 . S
H3682 C3705 0.950 . S
H3683 C3707 0.950 . S
H3684 C3708 0.950 . S
H3685 C3709 0.951 . S
H3686 C3711 0.951 . S
H3687 C3713 0.950 . S
H3688 C3714 0.950 . S
H3689 C3716 0.950 . S
H3690 C3719 0.950 . S
H3691 C3720 0.950 . S
H3692 C3722 0.950 . S
H3693 C3723 0.950 . S
C3694 H3676 0.951 . S
C3694 C3695 1.366 . S
C3694 C3696 1.388 . S
C3695 C3694 1.366 . S
C3695 C3699 1.385 . S
C3696 H3677 0.951 . S
C3696 C3694 1.388 . S
C3696 C3697 1.366 . S
C3697 C3696 1.366 . S
C3697 C3698 1.414 . S
C3697 C3700 1.499 . S
C3698 H3678 0.950 . S
C3698 C3697 1.414 . S
C3698 C3699 1.374 . S
C3699 H3679 0.950 . S
C3699 C3695 1.385 . S
C3699 C3698 1.374 . S
C3700 C3697 1.499 . S
C3700 C3701 1.373 . S
C3700 C3702 1.389 . S
C3701 H3680 0.950 . S
C3701 C3700 1.373 . S
C3701 C3717 1.377 . S
C3702 C3700 1.389 . S
C3702 C3703 1.524 . S
C3702 C3716 1.377 . S
C3703 C3702 1.524 . S
C3703 C3704 1.397 . S
C3703 C3708 1.363 1_455 S
C3704 H3681 0.950 . S
C3704 C3703 1.397 . S
C3704 C3705 1.334 1_455 S
C3705 H3682 0.950 . S
C3705 C3704 1.334 1_655 S
C3705 C3706 1.287 . S
C3706 C3705 1.287 . S
C3706 C3707 1.524 . S
C3706 H3725 0.913 . S
C3707 H3683 0.950 . S
C3707 C3706 1.524 . S
C3707 C3708 1.415 . S
C3708 H3684 0.950 . S
C3708 C3703 1.363 1_655 S
C3708 C3707 1.415 . S
C3709 H3685 0.951 . S
C3709 C3710 1.366 . S
C3709 C3711 1.388 . S
C3710 C3709 1.366 . S
C3710 C3714 1.385 . S
C3711 H3686 0.951 . S
C3711 C3709 1.388 . S
C3711 C3712 1.366 . S
C3712 C3711 1.366 . S
C3712 C3713 1.414 . S
C3712 C3715 1.499 . S
C3713 H3687 0.950 . S
C3713 C3712 1.414 . S
C3713 C3714 1.374 . S
C3714 H3688 0.950 . S
C3714 C3710 1.385 . S
C3714 C3713 1.374 . S
C3715 C3712 1.499 . S
C3715 C3716 1.373 . S
C3715 C3717 1.389 . S
C3716 H3689 0.950 . S
C3716 C3702 1.377 . S
C3716 C3715 1.373 . S
C3717 C3701 1.377 . S
C3717 C3715 1.389 . S
C3717 C3718 1.524 . S
C3718 C3717 1.524 . S
C3718 C3719 1.397 . S
C3718 C3723 1.363 . S
C3719 H3690 0.950 . S
C3719 C3718 1.397 . S
C3719 C3720 1.334 . S
C3720 H3691 0.950 . S
C3720 C3719 1.334 . S
C3720 C3721 1.287 . S
C3721 C3720 1.287 . S
C3721 C3722 1.524 . S
C3721 H3724 0.999 . S
C3722 H3692 0.950 . S
C3722 C3721 1.524 . S
C3722 C3723 1.415 . S
C3723 H3693 0.950 . S
C3723 C3718 1.363 . S
C3723 C3722 1.415 . S
H3724 C3721 0.999 . S
H3725 C3706 0.913 . S
H3726 C3744 0.951 . S
H3727 C3746 0.951 . S
H3728 C3748 0.950 . S
H3729 C3749 0.950 . S
H3730 C3751 0.950 . S
H3731 C3754 0.950 . S
H3732 C3755 0.950 . S
H3733 C3757 0.950 . S
H3734 C3758 0.950 . S
H3735 C3759 0.951 . S
H3736 C3761 0.951 . S
H3737 C3763 0.950 . S
H3738 C3764 0.950 . S
H3739 C3766 0.950 . S
H3740 C3769 0.950 . S
H3741 C3770 0.950 . S
H3742 C3772 0.950 . S
H3743 C3773 0.950 . S
C3744 H3726 0.951 . S
C3744 C3745 1.366 . S
C3744 C3746 1.388 . S
C3745 C3744 1.366 . S
C3745 C3749 1.385 . S
C3746 H3727 0.951 . S
C3746 C3744 1.388 . S
C3746 C3747 1.366 . S
C3747 C3746 1.366 . S
C3747 C3748 1.414 . S
C3747 C3750 1.499 . S
C3748 H3728 0.950 . S
C3748 C3747 1.414 . S
C3748 C3749 1.374 . S
C3749 H3729 0.950 . S
C3749 C3745 1.385 . S
C3749 C3748 1.374 . S
C3750 C3747 1.499 . S
C3750 C3751 1.373 . S
C3750 C3752 1.389 . S
C3751 H3730 0.950 . S
C3751 C3750 1.373 . S
C3751 C3767 1.377 . S
C3752 C3750 1.389 . S
C3752 C3753 1.524 . S
C3752 C3766 1.377 . S
C3753 C3752 1.524 . S
C3753 C3754 1.397 . S
C3753 C3758 1.363 . S
C3754 H3731 0.950 . S
C3754 C3753 1.397 . S
C3754 C3755 1.334 . S
C3755 H3732 0.950 . S
C3755 C3754 1.334 . S
C3755 C3756 1.287 . S
C3756 C3755 1.287 . S
C3756 C3757 1.524 . S
C3756 H3775 0.913 . S
C3757 H3733 0.950 . S
C3757 C3756 1.524 . S
C3757 C3758 1.415 . S
C3758 H3734 0.950 . S
C3758 C3753 1.363 . S
C3758 C3757 1.415 . S
C3759 H3735 0.951 . S
C3759 C3760 1.366 . S
C3759 C3761 1.388 . S
C3760 C3759 1.366 . S
C3760 C3764 1.385 . S
C3761 H3736 0.951 . S
C3761 C3759 1.388 . S
C3761 C3762 1.366 . S
C3762 C3761 1.366 . S
C3762 C3763 1.414 . S
C3762 C3765 1.499 . S
C3763 H3737 0.950 . S
C3763 C3762 1.414 . S
C3763 C3764 1.374 . S
C3764 H3738 0.950 . S
C3764 C3760 1.385 . S
C3764 C3763 1.374 . S
C3765 C3762 1.499 . S
C3765 C3766 1.373 . S
C3765 C3767 1.389 . S
C3766 H3739 0.950 . S
C3766 C3752 1.377 . S
C3766 C3765 1.373 . S
C3767 C3751 1.377 . S
C3767 C3765 1.389 . S
C3767 C3768 1.524 . S
C3768 C3767 1.524 . S
C3768 C3769 1.397 . S
C3768 C3773 1.363 . S
C3769 H3740 0.950 . S
C3769 C3768 1.397 . S
C3769 C3770 1.334 . S
C3770 H3741 0.950 . S
C3770 C3769 1.334 . S
C3770 C3771 1.287 . S
C3771 C3770 1.287 . S
C3771 C3772 1.524 . S
C3771 H3774 0.999 . S
C3772 H3742 0.950 . S
C3772 C3771 1.524 . S
C3772 C3773 1.415 . S
C3773 H3743 0.950 . S
C3773 C3768 1.363 . S
C3773 C3772 1.415 . S
H3774 C3771 0.999 . S
H3775 C3756 0.913 . S
H3776 C3794 0.951 . S
H3777 C3796 0.951 . S
H3778 C3798 0.950 . S
H3779 C3799 0.950 . S
H3780 C3801 0.950 . S
H3781 C3804 0.950 . S
H3782 C3805 0.950 . S
H3783 C3807 0.950 . S
H3784 C3808 0.950 . S
H3785 C3809 0.951 . S
H3786 C3811 0.951 . S
H3787 C3813 0.950 . S
H3788 C3814 0.950 . S
H3789 C3816 0.950 . S
H3790 C3819 0.950 . S
H3791 C3820 0.950 . S
H3792 C3822 0.950 . S
H3793 C3823 0.950 . S
C3794 H3776 0.951 . S
C3794 C3795 1.366 . S
C3794 C3796 1.388 . S
C3795 C3794 1.366 . S
C3795 C3799 1.385 . S
C3796 H3777 0.951 . S
C3796 C3794 1.388 . S
C3796 C3797 1.366 . S
C3797 C3796 1.366 . S
C3797 C3798 1.414 . S
C3797 C3800 1.499 . S
C3798 H3778 0.950 . S
C3798 C3797 1.414 . S
C3798 C3799 1.374 . S
C3799 H3779 0.950 . S
C3799 C3795 1.385 . S
C3799 C3798 1.374 . S
C3800 C3797 1.499 . S
C3800 C3801 1.373 . S
C3800 C3802 1.389 . S
C3801 H3780 0.950 . S
C3801 C3800 1.373 . S
C3801 C3817 1.377 . S
C3802 C3800 1.389 . S
C3802 C3803 1.524 . S
C3802 C3816 1.377 . S
C3803 C3802 1.524 . S
C3803 C3804 1.397 . S
C3803 C3808 1.363 . S
C3804 H3781 0.950 . S
C3804 C3803 1.397 . S
C3804 C3805 1.334 . S
C3805 H3782 0.950 . S
C3805 C3804 1.334 . S
C3805 C3806 1.287 . S
C3806 C3805 1.287 . S
C3806 C3807 1.524 . S
C3806 H3825 0.913 . S
C3807 H3783 0.950 . S
C3807 C3806 1.524 . S
C3807 C3808 1.415 . S
C3808 H3784 0.950 . S
C3808 C3803 1.363 . S
C3808 C3807 1.415 . S
C3809 H3785 0.951 . S
C3809 C3810 1.366 . S
C3809 C3811 1.388 . S
C3810 C3809 1.366 . S
C3810 C3814 1.385 . S
C3811 H3786 0.951 . S
C3811 C3809 1.388 . S
C3811 C3812 1.366 . S
C3812 C3811 1.366 . S
C3812 C3813 1.414 . S
C3812 C3815 1.499 . S
C3813 H3787 0.950 . S
C3813 C3812 1.414 . S
C3813 C3814 1.374 . S
C3814 H3788 0.950 . S
C3814 C3810 1.385 . S
C3814 C3813 1.374 . S
C3815 C3812 1.499 . S
C3815 C3816 1.373 . S
C3815 C3817 1.389 . S
C3816 H3789 0.950 . S
C3816 C3802 1.377 . S
C3816 C3815 1.373 . S
C3817 C3801 1.377 . S
C3817 C3815 1.389 . S
C3817 C3818 1.524 . S
C3818 C3817 1.524 . S
C3818 C3819 1.397 . S
C3818 C3823 1.363 . S
C3819 H3790 0.950 . S
C3819 C3818 1.397 . S
C3819 C3820 1.334 . S
C3820 H3791 0.950 . S
C3820 C3819 1.334 . S
C3820 C3821 1.287 . S
C3821 C3820 1.287 . S
C3821 C3822 1.524 . S
C3821 H3824 0.999 . S
C3822 H3792 0.950 . S
C3822 C3821 1.524 . S
C3822 C3823 1.415 . S
C3823 H3793 0.950 . S
C3823 C3818 1.363 . S
C3823 C3822 1.415 . S
H3824 C3821 0.999 . S
H3825 C3806 0.913 . S
H3826 C3844 0.951 . S
H3827 C3846 0.951 . S
H3828 C3848 0.950 . S
H3829 C3849 0.950 . S
H3830 C3851 0.950 . S
H3831 C3854 0.950 . S
H3832 C3855 0.950 . S
H3833 C3857 0.950 . S
H3834 C3858 0.950 . S
H3835 C3859 0.951 . S
H3836 C3861 0.951 . S
H3837 C3863 0.950 . S
H3838 C3864 0.950 . S
H3839 C3866 0.950 . S
H3840 C3869 0.950 . S
H3841 C3870 0.950 . S
H3842 C3872 0.950 . S
H3843 C3873 0.950 . S
C3844 H3826 0.951 . S
C3844 C3845 1.366 . S
C3844 C3846 1.388 1_554 S
C3845 C3844 1.366 . S
C3845 C3849 1.385 . S
C3846 H3827 0.951 . S
C3846 C3844 1.388 1_556 S
C3846 C3847 1.366 . S
C3847 C3846 1.366 . S
C3847 C3848 1.414 1_556 S
C3847 C3850 1.499 . S
C3848 H3828 0.950 . S
C3848 C3847 1.414 1_554 S
C3848 C3849 1.374 . S
C3849 H3829 0.950 . S
C3849 C3845 1.385 . S
C3849 C3848 1.374 . S
C3850 C3847 1.499 . S
C3850 C3851 1.373 . S
C3850 C3852 1.389 . S
C3851 H3830 0.950 . S
C3851 C3850 1.373 . S
C3851 C3867 1.377 . S
C3852 C3850 1.389 . S
C3852 C3853 1.524 . S
C3852 C3866 1.377 . S
C3853 C3852 1.524 . S
C3853 C3854 1.397 . S
C3853 C3858 1.363 . S
C3854 H3831 0.950 . S
C3854 C3853 1.397 . S
C3854 C3855 1.334 1_556 S
C3855 H3832 0.950 . S
C3855 C3854 1.334 1_554 S
C3855 C3856 1.287 1_554 S
C3856 C3855 1.287 1_556 S
C3856 C3857 1.524 . S
C3856 H3875 0.913 1_556 S
C3857 H3833 0.950 . S
C3857 C3856 1.524 . S
C3857 C3858 1.415 . S
C3858 H3834 0.950 . S
C3858 C3853 1.363 . S
C3858 C3857 1.415 . S
C3859 H3835 0.951 . S
C3859 C3860 1.366 . S
C3859 C3861 1.388 . S
C3860 C3859 1.366 . S
C3860 C3864 1.385 . S
C3861 H3836 0.951 . S
C3861 C3859 1.388 . S
C3861 C3862 1.366 . S
C3862 C3861 1.366 . S
C3862 C3863 1.414 . S
C3862 C3865 1.499 . S
C3863 H3837 0.950 . S
C3863 C3862 1.414 . S
C3863 C3864 1.374 . S
C3864 H3838 0.950 . S
C3864 C3860 1.385 . S
C3864 C3863 1.374 . S
C3865 C3862 1.499 . S
C3865 C3866 1.373 . S
C3865 C3867 1.389 . S
C3866 H3839 0.950 . S
C3866 C3852 1.377 . S
C3866 C3865 1.373 . S
C3867 C3851 1.377 . S
C3867 C3865 1.389 . S
C3867 C3868 1.524 . S
C3868 C3867 1.524 . S
C3868 C3869 1.397 . S
C3868 C3873 1.363 . S
C3869 H3840 0.950 . S
C3869 C3868 1.397 . S
C3869 C3870 1.334 . S
C3870 H3841 0.950 . S
C3870 C3869 1.334 . S
C3870 C3871 1.287 . S
C3871 C3870 1.287 . S
C3871 C3872 1.524 . S
C3871 H3874 0.999 . S
C3872 H3842 0.950 . S
C3872 C3871 1.524 . S
C3872 C3873 1.415 . S
C3873 H3843 0.950 . S
C3873 C3868 1.363 . S
C3873 C3872 1.415 . S
H3874 C3871 0.999 . S
H3875 C3856 0.913 1_554 S
H3876 C3894 0.951 . S
H3877 C3896 0.951 . S
H3878 C3898 0.950 . S
H3879 C3899 0.950 . S
H3880 C3901 0.950 . S
H3881 C3904 0.950 . S
H3882 C3905 0.950 . S
H3883 C3907 0.950 . S
H3884 C3908 0.950 . S
H3885 C3909 0.951 . S
H3886 C3911 0.951 . S
H3887 C3913 0.950 . S
H3888 C3914 0.950 . S
H3889 C3916 0.950 . S
H3890 C3919 0.950 . S
H3891 C3920 0.950 . S
H3892 C3922 0.950 . S
H3893 C3923 0.950 . S
C3894 H3876 0.951 . S
C3894 C3895 1.366 . S
C3894 C3896 1.388 . S
C3895 C3894 1.366 . S
C3895 C3899 1.385 . S
C3896 H3877 0.951 . S
C3896 C3894 1.388 . S
C3896 C3897 1.366 . S
C3897 C3896 1.366 . S
C3897 C3898 1.414 . S
C3897 C3900 1.499 . S
C3898 H3878 0.950 . S
C3898 C3897 1.414 . S
C3898 C3899 1.374 . S
C3899 H3879 0.950 . S
C3899 C3895 1.385 . S
C3899 C3898 1.374 . S
C3900 C3897 1.499 . S
C3900 C3901 1.373 . S
C3900 C3902 1.389 . S
C3901 H3880 0.950 . S
C3901 C3900 1.373 . S
C3901 C3917 1.377 . S
C3902 C3900 1.389 . S
C3902 C3903 1.524 . S
C3902 C3916 1.377 . S
C3903 C3902 1.524 . S
C3903 C3904 1.397 . S
C3903 C3908 1.363 . S
C3904 H3881 0.950 . S
C3904 C3903 1.397 . S
C3904 C3905 1.334 . S
C3905 H3882 0.950 . S
C3905 C3904 1.334 . S
C3905 C3906 1.287 . S
C3906 C3905 1.287 . S
C3906 C3907 1.524 . S
C3906 H3925 0.913 . S
C3907 H3883 0.950 . S
C3907 C3906 1.524 . S
C3907 C3908 1.415 . S
C3908 H3884 0.950 . S
C3908 C3903 1.363 . S
C3908 C3907 1.415 . S
C3909 H3885 0.951 . S
C3909 C3910 1.366 . S
C3909 C3911 1.388 . S
C3910 C3909 1.366 . S
C3910 C3914 1.385 . S
C3911 H3886 0.951 . S
C3911 C3909 1.388 . S
C3911 C3912 1.366 . S
C3912 C3911 1.366 . S
C3912 C3913 1.414 . S
C3912 C3915 1.499 . S
C3913 H3887 0.950 . S
C3913 C3912 1.414 . S
C3913 C3914 1.374 . S
C3914 H3888 0.950 . S
C3914 C3910 1.385 . S
C3914 C3913 1.374 . S
C3915 C3912 1.499 . S
C3915 C3916 1.373 . S
C3915 C3917 1.389 . S
C3916 H3889 0.950 . S
C3916 C3902 1.377 . S
C3916 C3915 1.373 . S
C3917 C3901 1.377 . S
C3917 C3915 1.389 . S
C3917 C3918 1.524 . S
C3918 C3917 1.524 . S
C3918 C3919 1.397 . S
C3918 C3923 1.363 . S
C3919 H3890 0.950 . S
C3919 C3918 1.397 . S
C3919 C3920 1.334 . S
C3920 H3891 0.950 . S
C3920 C3919 1.334 . S
C3920 C3921 1.287 . S
C3921 C3920 1.287 . S
C3921 C3922 1.524 . S
C3921 H3924 0.999 . S
C3922 H3892 0.950 . S
C3922 C3921 1.524 . S
C3922 C3923 1.415 . S
C3923 H3893 0.950 . S
C3923 C3918 1.363 . S
C3923 C3922 1.415 . S
H3924 C3921 0.999 . S
H3925 C3906 0.913 . S
H3926 C3944 0.951 . S
H3927 C3946 0.951 . S
H3928 C3948 0.950 . S
H3929 C3949 0.950 . S
H3930 C3951 0.950 . S
H3931 C3954 0.950 . S
H3932 C3955 0.950 . S
H3933 C3957 0.950 . S
H3934 C3958 0.950 . S
H3935 C3959 0.951 . S
H3936 C3961 0.951 . S
H3937 C3963 0.950 . S
H3938 C3964 0.950 . S
H3939 C3966 0.950 . S
H3940 C3969 0.950 . S
H3941 C3970 0.950 . S
H3942 C3972 0.950 . S
H3943 C3973 0.950 . S
C3944 H3926 0.951 . S
C3944 C3945 1.366 . S
C3944 C3946 1.388 . S
C3945 C3944 1.366 . S
C3945 C3949 1.385 . S
C3946 H3927 0.951 . S
C3946 C3944 1.388 . S
C3946 C3947 1.366 . S
C3947 C3946 1.366 . S
C3947 C3948 1.414 . S
C3947 C3950 1.499 . S
C3948 H3928 0.950 . S
C3948 C3947 1.414 . S
C3948 C3949 1.374 . S
C3949 H3929 0.950 . S
C3949 C3945 1.385 . S
C3949 C3948 1.374 . S
C3950 C3947 1.499 . S
C3950 C3951 1.373 . S
C3950 C3952 1.389 . S
C3951 H3930 0.950 . S
C3951 C3950 1.373 . S
C3951 C3967 1.377 . S
C3952 C3950 1.389 . S
C3952 C3953 1.524 . S
C3952 C3966 1.377 . S
C3953 C3952 1.524 . S
C3953 C3954 1.397 . S
C3953 C3958 1.363 . S
C3954 H3931 0.950 . S
C3954 C3953 1.397 . S
C3954 C3955 1.334 . S
C3955 H3932 0.950 . S
C3955 C3954 1.334 . S
C3955 C3956 1.287 . S
C3956 C3955 1.287 . S
C3956 C3957 1.524 . S
C3956 H3975 0.913 . S
C3957 H3933 0.950 . S
C3957 C3956 1.524 . S
C3957 C3958 1.415 . S
C3958 H3934 0.950 . S
C3958 C3953 1.363 . S
C3958 C3957 1.415 . S
C3959 H3935 0.951 . S
C3959 C3960 1.366 . S
C3959 C3961 1.388 . S
C3960 C3959 1.366 . S
C3960 C3964 1.385 . S
C3961 H3936 0.951 . S
C3961 C3959 1.388 . S
C3961 C3962 1.366 . S
C3962 C3961 1.366 . S
C3962 C3963 1.414 . S
C3962 C3965 1.499 . S
C3963 H3937 0.950 . S
C3963 C3962 1.414 . S
C3963 C3964 1.374 . S
C3964 H3938 0.950 . S
C3964 C3960 1.385 . S
C3964 C3963 1.374 . S
C3965 C3962 1.499 . S
C3965 C3966 1.373 . S
C3965 C3967 1.389 . S
C3966 H3939 0.950 . S
C3966 C3952 1.377 . S
C3966 C3965 1.373 . S
C3967 C3951 1.377 . S
C3967 C3965 1.389 . S
C3967 C3968 1.524 . S
C3968 C3967 1.524 . S
C3968 C3969 1.397 . S
C3968 C3973 1.363 . S
C3969 H3940 0.950 . S
C3969 C3968 1.397 . S
C3969 C3970 1.334 . S
C3970 H3941 0.950 . S
C3970 C3969 1.334 . S
C3970 C3971 1.287 . S
C3971 C3970 1.287 . S
C3971 C3972 1.524 . S
C3971 H3974 0.999 . S
C3972 H3942 0.950 . S
C3972 C3971 1.524 . S
C3972 C3973 1.415 . S
C3973 H3943 0.950 . S
C3973 C3968 1.363 . S
C3973 C3972 1.415 . S
H3974 C3971 0.999 . S
H3975 C3956 0.913 . S
H3976 C3994 0.951 . S
H3977 C3996 0.951 . S
H3978 C3998 0.950 . S
H3979 C3999 0.950 . S
H3980 C4001 0.950 . S
H3981 C4004 0.950 . S
H3982 C4005 0.950 . S
H3983 C4007 0.950 . S
H3984 C4008 0.950 . S
H3985 C4009 0.951 . S
H3986 C4011 0.951 . S
H3987 C4013 0.950 . S
H3988 C4014 0.950 . S
H3989 C4016 0.950 . S
H3990 C4019 0.950 . S
H3991 C4020 0.950 . S
H3992 C4022 0.950 . S
H3993 C4023 0.950 . S
C3994 H3976 0.951 . S
C3994 C3995 1.366 . S
C3994 C3996 1.388 . S
C3995 C3994 1.366 . S
C3995 C3999 1.385 . S
C3996 H3977 0.951 . S
C3996 C3994 1.388 . S
C3996 C3997 1.366 . S
C3997 C3996 1.366 . S
C3997 C3998 1.414 . S
C3997 C4000 1.499 . S
C3998 H3978 0.950 . S
C3998 C3997 1.414 . S
C3998 C3999 1.374 . S
C3999 H3979 0.950 . S
C3999 C3995 1.385 . S
C3999 C3998 1.374 . S
C4000 C3997 1.499 . S
C4000 C4001 1.373 . S
C4000 C4002 1.389 . S
C4001 H3980 0.950 . S
C4001 C4000 1.373 . S
C4001 C4017 1.377 . S
C4002 C4000 1.389 . S
C4002 C4003 1.524 . S
C4002 C4016 1.377 . S
C4003 C4002 1.524 . S
C4003 C4004 1.397 . S
C4003 C4008 1.363 . S
C4004 H3981 0.950 . S
C4004 C4003 1.397 . S
C4004 C4005 1.334 . S
C4005 H3982 0.950 . S
C4005 C4004 1.334 . S
C4005 C4006 1.287 . S
C4006 C4005 1.287 . S
C4006 C4007 1.524 . S
C4006 H4025 0.913 . S
C4007 H3983 0.950 . S
C4007 C4006 1.524 . S
C4007 C4008 1.415 . S
C4008 H3984 0.950 . S
C4008 C4003 1.363 . S
C4008 C4007 1.415 . S
C4009 H3985 0.951 . S
C4009 C4010 1.366 . S
C4009 C4011 1.388 . S
C4010 C4009 1.366 . S
C4010 C4014 1.385 . S
C4011 H3986 0.951 . S
C4011 C4009 1.388 . S
C4011 C4012 1.366 . S
C4012 C4011 1.366 . S
C4012 C4013 1.414 . S
C4012 C4015 1.499 . S
C4013 H3987 0.950 . S
C4013 C4012 1.414 . S
C4013 C4014 1.374 . S
C4014 H3988 0.950 . S
C4014 C4010 1.385 . S
C4014 C4013 1.374 . S
C4015 C4012 1.499 . S
C4015 C4016 1.373 . S
C4015 C4017 1.389 . S
C4016 H3989 0.950 . S
C4016 C4002 1.377 . S
C4016 C4015 1.373 . S
C4017 C4001 1.377 . S
C4017 C4015 1.389 . S
C4017 C4018 1.524 . S
C4018 C4017 1.524 . S
C4018 C4019 1.397 . S
C4018 C4023 1.363 . S
C4019 H3990 0.950 . S
C4019 C4018 1.397 . S
C4019 C4020 1.334 . S
C4020 H3991 0.950 . S
C4020 C4019 1.334 . S
C4020 C4021 1.287 . S
C4021 C4020 1.287 . S
C4021 C4022 1.524 . S
C4021 H4024 0.999 . S
C4022 H3992 0.950 . S
C4022 C4021 1.524 . S
C4022 C4023 1.415 . S
C4023 H3993 0.950 . S
C4023 C4018 1.363 . S
C4023 C4022 1.415 . S
H4024 C4021 0.999 . S
H4025 C4006 0.913 . S
H4026 C4044 0.951 . S
H4027 C4046 0.951 . S
H4028 C4048 0.950 . S
H4029 C4049 0.950 . S
H4030 C4051 0.950 . S
H4031 C4054 0.950 . S
H4032 C4055 0.950 . S
H4033 C4057 0.950 . S
H4034 C4058 0.950 . S
H4035 C4059 0.951 . S
H4036 C4061 0.951 . S
H4037 C4063 0.950 . S
H4038 C4064 0.950 . S
H4039 C4066 0.950 . S
H4040 C4069 0.950 . S
H4041 C4070 0.950 . S
H4042 C4072 0.950 . S
H4043 C4073 0.950 . S
C4044 H4026 0.951 . S
C4044 C4045 1.366 . S
C4044 C4046 1.388 . S
C4045 C4044 1.366 . S
C4045 C4049 1.385 . S
C4046 H4027 0.951 . S
C4046 C4044 1.388 . S
C4046 C4047 1.366 . S
C4047 C4046 1.366 . S
C4047 C4048 1.414 . S
C4047 C4050 1.499 . S
C4048 H4028 0.950 . S
C4048 C4047 1.414 . S
C4048 C4049 1.374 . S
C4049 H4029 0.950 . S
C4049 C4045 1.385 . S
C4049 C4048 1.374 . S
C4050 C4047 1.499 . S
C4050 C4051 1.373 . S
C4050 C4052 1.389 . S
C4051 H4030 0.950 . S
C4051 C4050 1.373 . S
C4051 C4067 1.377 . S
C4052 C4050 1.389 . S
C4052 C4053 1.524 . S
C4052 C4066 1.377 . S
C4053 C4052 1.524 . S
C4053 C4054 1.397 . S
C4053 C4058 1.363 . S
C4054 H4031 0.950 . S
C4054 C4053 1.397 . S
C4054 C4055 1.334 . S
C4055 H4032 0.950 . S
C4055 C4054 1.334 . S
C4055 C4056 1.287 . S
C4056 C4055 1.287 . S
C4056 C4057 1.524 . S
C4056 H4075 0.913 . S
C4057 H4033 0.950 . S
C4057 C4056 1.524 . S
C4057 C4058 1.415 . S
C4058 H4034 0.950 . S
C4058 C4053 1.363 . S
C4058 C4057 1.415 . S
C4059 H4035 0.951 . S
C4059 C4060 1.366 . S
C4059 C4061 1.388 . S
C4060 C4059 1.366 . S
C4060 C4064 1.385 . S
C4061 H4036 0.951 . S
C4061 C4059 1.388 . S
C4061 C4062 1.366 . S
C4062 C4061 1.366 . S
C4062 C4063 1.414 . S
C4062 C4065 1.499 . S
C4063 H4037 0.950 . S
C4063 C4062 1.414 . S
C4063 C4064 1.374 . S
C4064 H4038 0.950 . S
C4064 C4060 1.385 . S
C4064 C4063 1.374 . S
C4065 C4062 1.499 . S
C4065 C4066 1.373 . S
C4065 C4067 1.389 . S
C4066 H4039 0.950 . S
C4066 C4052 1.377 . S
C4066 C4065 1.373 . S
C4067 C4051 1.377 . S
C4067 C4065 1.389 . S
C4067 C4068 1.524 . S
C4068 C4067 1.524 . S
C4068 C4069 1.397 . S
C4068 C4073 1.363 . S
C4069 H4040 0.950 . S
C4069 C4068 1.397 . S
C4069 C4070 1.334 . S
C4070 H4041 0.950 . S
C4070 C4069 1.334 . S
C4070 C4071 1.287 . S
C4071 C4070 1.287 . S
C4071 C4072 1.524 . S
C4071 H4074 0.999 . S
C4072 H4042 0.950 . S
C4072 C4071 1.524 . S
C4072 C4073 1.415 . S
C4073 H4043 0.950 . S
C4073 C4068 1.363 . S
C4073 C4072 1.415 . S
H4074 C4071 0.999 . S
H4075 C4056 0.913 . S
H4076 C4094 0.951 . S
H4077 C4096 0.951 . S
H4078 C4098 0.950 . S
H4079 C4099 0.950 . S
H4080 C4101 0.950 . S
H4081 C4104 0.950 . S
H4082 C4105 0.950 . S
H4083 C4107 0.950 . S
H4084 C4108 0.950 . S
H4085 C4109 0.951 . S
H4086 C4111 0.951 . S
H4087 C4113 0.950 . S
H4088 C4114 0.950 . S
H4089 C4116 0.950 . S
H4090 C4119 0.950 . S
H4091 C4120 0.950 . S
H4092 C4122 0.950 . S
H4093 C4123 0.950 . S
C4094 H4076 0.951 . S
C4094 C4095 1.366 . S
C4094 C4096 1.388 . S
C4095 C4094 1.366 . S
C4095 C4099 1.385 . S
C4096 H4077 0.951 . S
C4096 C4094 1.388 . S
C4096 C4097 1.366 . S
C4097 C4096 1.366 . S
C4097 C4098 1.414 . S
C4097 C4100 1.499 . S
C4098 H4078 0.950 . S
C4098 C4097 1.414 . S
C4098 C4099 1.374 . S
C4099 H4079 0.950 . S
C4099 C4095 1.385 . S
C4099 C4098 1.374 . S
C4100 C4097 1.499 . S
C4100 C4101 1.373 . S
C4100 C4102 1.389 . S
C4101 H4080 0.950 . S
C4101 C4100 1.373 . S
C4101 C4117 1.377 . S
C4102 C4100 1.389 . S
C4102 C4103 1.524 . S
C4102 C4116 1.377 . S
C4103 C4102 1.524 . S
C4103 C4104 1.397 . S
C4103 C4108 1.363 . S
C4104 H4081 0.950 . S
C4104 C4103 1.397 . S
C4104 C4105 1.334 . S
C4105 H4082 0.950 . S
C4105 C4104 1.334 . S
C4105 C4106 1.287 . S
C4106 C4105 1.287 . S
C4106 C4107 1.524 . S
C4106 H4125 0.913 . S
C4107 H4083 0.950 . S
C4107 C4106 1.524 . S
C4107 C4108 1.415 . S
C4108 H4084 0.950 . S
C4108 C4103 1.363 . S
C4108 C4107 1.415 . S
C4109 H4085 0.951 . S
C4109 C4110 1.366 . S
C4109 C4111 1.388 . S
C4110 C4109 1.366 . S
C4110 C4114 1.385 . S
C4111 H4086 0.951 . S
C4111 C4109 1.388 . S
C4111 C4112 1.366 . S
C4112 C4111 1.366 . S
C4112 C4113 1.414 . S
C4112 C4115 1.499 . S
C4113 H4087 0.950 . S
C4113 C4112 1.414 . S
C4113 C4114 1.374 . S
C4114 H4088 0.950 . S
C4114 C4110 1.385 . S
C4114 C4113 1.374 . S
C4115 C4112 1.499 . S
C4115 C4116 1.373 . S
C4115 C4117 1.389 . S
C4116 H4089 0.950 . S
C4116 C4102 1.377 . S
C4116 C4115 1.373 . S
C4117 C4101 1.377 . S
C4117 C4115 1.389 . S
C4117 C4118 1.524 . S
C4118 C4117 1.524 . S
C4118 C4119 1.397 . S
C4118 C4123 1.363 . S
C4119 H4090 0.950 . S
C4119 C4118 1.397 . S
C4119 C4120 1.334 . S
C4120 H4091 0.950 . S
C4120 C4119 1.334 . S
C4120 C4121 1.287 . S
C4121 C4120 1.287 . S
C4121 C4122 1.524 . S
C4121 H4124 0.999 . S
C4122 H4092 0.950 . S
C4122 C4121 1.524 . S
C4122 C4123 1.415 . S
C4123 H4093 0.950 . S
C4123 C4118 1.363 . S
C4123 C4122 1.415 . S
H4124 C4121 0.999 . S
H4125 C4106 0.913 . S
H4126 C4144 0.951 . S
H4127 C4146 0.951 . S
H4128 C4148 0.950 . S
H4129 C4149 0.950 . S
H4130 C4151 0.950 . S
H4131 C4154 0.950 . S
H4132 C4155 0.950 . S
H4133 C4157 0.950 . S
H4134 C4158 0.950 . S
H4135 C4159 0.951 . S
H4136 C4161 0.951 . S
H4137 C4163 0.950 . S
H4138 C4164 0.950 . S
H4139 C4166 0.950 . S
H4140 C4169 0.950 . S
H4141 C4170 0.950 . S
H4142 C4172 0.950 . S
H4143 C4173 0.950 . S
C4144 H4126 0.951 . S
C4144 C4145 1.366 . S
C4144 C4146 1.388 . S
C4145 C4144 1.366 . S
C4145 C4149 1.385 . S
C4146 H4127 0.951 . S
C4146 C4144 1.388 . S
C4146 C4147 1.366 . S
C4147 C4146 1.366 . S
C4147 C4148 1.414 . S
C4147 C4150 1.499 . S
C4148 H4128 0.950 . S
C4148 C4147 1.414 . S
C4148 C4149 1.374 . S
C4149 H4129 0.950 . S
C4149 C4145 1.385 . S
C4149 C4148 1.374 . S
C4150 C4147 1.499 . S
C4150 C4151 1.373 . S
C4150 C4152 1.389 . S
C4151 H4130 0.950 . S
C4151 C4150 1.373 . S
C4151 C4167 1.377 . S
C4152 C4150 1.389 . S
C4152 C4153 1.524 . S
C4152 C4166 1.377 . S
C4153 C4152 1.524 . S
C4153 C4154 1.397 . S
C4153 C4158 1.363 . S
C4154 H4131 0.950 . S
C4154 C4153 1.397 . S
C4154 C4155 1.334 . S
C4155 H4132 0.950 . S
C4155 C4154 1.334 . S
C4155 C4156 1.287 . S
C4156 C4155 1.287 . S
C4156 C4157 1.524 . S
C4156 H4175 0.913 . S
C4157 H4133 0.950 . S
C4157 C4156 1.524 . S
C4157 C4158 1.415 . S
C4158 H4134 0.950 . S
C4158 C4153 1.363 . S
C4158 C4157 1.415 . S
C4159 H4135 0.951 . S
C4159 C4160 1.366 . S
C4159 C4161 1.388 . S
C4160 C4159 1.366 . S
C4160 C4164 1.385 . S
C4161 H4136 0.951 . S
C4161 C4159 1.388 . S
C4161 C4162 1.366 . S
C4162 C4161 1.366 . S
C4162 C4163 1.414 . S
C4162 C4165 1.499 . S
C4163 H4137 0.950 . S
C4163 C4162 1.414 . S
C4163 C4164 1.374 . S
C4164 H4138 0.950 . S
C4164 C4160 1.385 . S
C4164 C4163 1.374 . S
C4165 C4162 1.499 . S
C4165 C4166 1.373 . S
C4165 C4167 1.389 . S
C4166 H4139 0.950 . S
C4166 C4152 1.377 . S
C4166 C4165 1.373 . S
C4167 C4151 1.377 . S
C4167 C4165 1.389 . S
C4167 C4168 1.524 . S
C4168 C4167 1.524 . S
C4168 C4169 1.397 . S
C4168 C4173 1.363 . S
C4169 H4140 0.950 . S
C4169 C4168 1.397 . S
C4169 C4170 1.334 . S
C4170 H4141 0.950 . S
C4170 C4169 1.334 . S
C4170 C4171 1.287 . S
C4171 C4170 1.287 . S
C4171 C4172 1.524 . S
C4171 H4174 0.999 . S
C4172 H4142 0.950 . S
C4172 C4171 1.524 . S
C4172 C4173 1.415 . S
C4173 H4143 0.950 . S
C4173 C4168 1.363 . S
C4173 C4172 1.415 . S
H4174 C4171 0.999 . S
H4175 C4156 0.913 . S
H4176 C4194 0.951 . S
H4177 C4196 0.951 . S
H4178 C4198 0.950 . S
H4179 C4199 0.950 . S
H4180 C4201 0.950 . S
H4181 C4204 0.950 . S
H4182 C4205 0.950 . S
H4183 C4207 0.950 . S
H4184 C4208 0.950 . S
H4185 C4209 0.951 . S
H4186 C4211 0.951 . S
H4187 C4213 0.950 . S
H4188 C4214 0.950 . S
H4189 C4216 0.950 . S
H4190 C4219 0.950 . S
H4191 C4220 0.950 . S
H4192 C4222 0.950 . S
H4193 C4223 0.950 . S
C4194 H4176 0.951 . S
C4194 C4195 1.366 . S
C4194 C4196 1.388 . S
C4195 C4194 1.366 . S
C4195 C4199 1.385 . S
C4196 H4177 0.951 . S
C4196 C4194 1.388 . S
C4196 C4197 1.366 . S
C4197 C4196 1.366 . S
C4197 C4198 1.414 . S
C4197 C4200 1.499 . S
C4198 H4178 0.950 . S
C4198 C4197 1.414 . S
C4198 C4199 1.374 . S
C4199 H4179 0.950 . S
C4199 C4195 1.385 . S
C4199 C4198 1.374 . S
C4200 C4197 1.499 . S
C4200 C4201 1.373 . S
C4200 C4202 1.389 . S
C4201 H4180 0.950 . S
C4201 C4200 1.373 . S
C4201 C4217 1.377 . S
C4202 C4200 1.389 . S
C4202 C4203 1.524 . S
C4202 C4216 1.377 . S
C4203 C4202 1.524 . S
C4203 C4204 1.397 . S
C4203 C4208 1.363 . S
C4204 H4181 0.950 . S
C4204 C4203 1.397 . S
C4204 C4205 1.334 . S
C4205 H4182 0.950 . S
C4205 C4204 1.334 . S
C4205 C4206 1.287 . S
C4206 C4205 1.287 . S
C4206 C4207 1.524 . S
C4206 H4225 0.913 . S
C4207 H4183 0.950 . S
C4207 C4206 1.524 . S
C4207 C4208 1.415 . S
C4208 H4184 0.950 . S
C4208 C4203 1.363 . S
C4208 C4207 1.415 . S
C4209 H4185 0.951 . S
C4209 C4210 1.366 . S
C4209 C4211 1.388 . S
C4210 C4209 1.366 . S
C4210 C4214 1.385 . S
C4211 H4186 0.951 . S
C4211 C4209 1.388 . S
C4211 C4212 1.366 . S
C4212 C4211 1.366 . S
C4212 C4213 1.414 . S
C4212 C4215 1.499 . S
C4213 H4187 0.950 . S
C4213 C4212 1.414 . S
C4213 C4214 1.374 . S
C4214 H4188 0.950 . S
C4214 C4210 1.385 . S
C4214 C4213 1.374 . S
C4215 C4212 1.499 . S
C4215 C4216 1.373 . S
C4215 C4217 1.389 . S
C4216 H4189 0.950 . S
C4216 C4202 1.377 . S
C4216 C4215 1.373 . S
C4217 C4201 1.377 . S
C4217 C4215 1.389 . S
C4217 C4218 1.524 . S
C4218 C4217 1.524 . S
C4218 C4219 1.397 . S
C4218 C4223 1.363 . S
C4219 H4190 0.950 . S
C4219 C4218 1.397 . S
C4219 C4220 1.334 . S
C4220 H4191 0.950 . S
C4220 C4219 1.334 . S
C4220 C4221 1.287 . S
C4221 C4220 1.287 . S
C4221 C4222 1.524 . S
C4221 H4224 0.999 . S
C4222 H4192 0.950 . S
C4222 C4221 1.524 . S
C4222 C4223 1.415 . S
C4223 H4193 0.950 . S
C4223 C4218 1.363 . S
C4223 C4222 1.415 . S
H4224 C4221 0.999 . S
H4225 C4206 0.913 . S
H4226 C4244 0.951 . S
H4227 C4246 0.951 . S
H4228 C4248 0.950 . S
H4229 C4249 0.950 . S
H4230 C4251 0.950 . S
H4231 C4254 0.950 . S
H4232 C4255 0.950 . S
H4233 C4257 0.950 . S
H4234 C4258 0.950 . S
H4235 C4259 0.951 . S
H4236 C4261 0.951 . S
H4237 C4263 0.950 . S
H4238 C4264 0.950 . S
H4239 C4266 0.950 . S
H4240 C4269 0.950 . S
H4241 C4270 0.950 . S
H4242 C4272 0.950 . S
H4243 C4273 0.950 . S
C4244 H4226 0.951 . S
C4244 C4245 1.366 . S
C4244 C4246 1.388 . S
C4245 C4244 1.366 . S
C4245 C4249 1.385 . S
C4246 H4227 0.951 . S
C4246 C4244 1.388 . S
C4246 C4247 1.366 . S
C4247 C4246 1.366 . S
C4247 C4248 1.414 . S
C4247 C4250 1.499 . S
C4248 H4228 0.950 . S
C4248 C4247 1.414 . S
C4248 C4249 1.374 . S
C4249 H4229 0.950 . S
C4249 C4245 1.385 . S
C4249 C4248 1.374 . S
C4250 C4247 1.499 . S
C4250 C4251 1.373 . S
C4250 C4252 1.389 . S
C4251 H4230 0.950 . S
C4251 C4250 1.373 . S
C4251 C4267 1.377 . S
C4252 C4250 1.389 . S
C4252 C4253 1.524 . S
C4252 C4266 1.377 . S
C4253 C4252 1.524 . S
C4253 C4254 1.397 . S
C4253 C4258 1.363 . S
C4254 H4231 0.950 . S
C4254 C4253 1.397 . S
C4254 C4255 1.334 . S
C4255 H4232 0.950 . S
C4255 C4254 1.334 . S
C4255 C4256 1.287 . S
C4256 C4255 1.287 . S
C4256 C4257 1.524 . S
C4256 H4275 0.913 . S
C4257 H4233 0.950 . S
C4257 C4256 1.524 . S
C4257 C4258 1.415 . S
C4258 H4234 0.950 . S
C4258 C4253 1.363 . S
C4258 C4257 1.415 . S
C4259 H4235 0.951 . S
C4259 C4260 1.366 . S
C4259 C4261 1.388 . S
C4260 C4259 1.366 . S
C4260 C4264 1.385 . S
C4261 H4236 0.951 . S
C4261 C4259 1.388 . S
C4261 C4262 1.366 . S
C4262 C4261 1.366 . S
C4262 C4263 1.414 . S
C4262 C4265 1.499 . S
C4263 H4237 0.950 . S
C4263 C4262 1.414 . S
C4263 C4264 1.374 . S
C4264 H4238 0.950 . S
C4264 C4260 1.385 . S
C4264 C4263 1.374 . S
C4265 C4262 1.499 . S
C4265 C4266 1.373 . S
C4265 C4267 1.389 . S
C4266 H4239 0.950 . S
C4266 C4252 1.377 . S
C4266 C4265 1.373 . S
C4267 C4251 1.377 . S
C4267 C4265 1.389 . S
C4267 C4268 1.524 . S
C4268 C4267 1.524 . S
C4268 C4269 1.397 . S
C4268 C4273 1.363 . S
C4269 H4240 0.950 . S
C4269 C4268 1.397 . S
C4269 C4270 1.334 . S
C4270 H4241 0.950 . S
C4270 C4269 1.334 . S
C4270 C4271 1.287 . S
C4271 C4270 1.287 . S
C4271 C4272 1.524 . S
C4271 H4274 0.999 . S
C4272 H4242 0.950 . S
C4272 C4271 1.524 . S
C4272 C4273 1.415 . S
C4273 H4243 0.950 . S
C4273 C4268 1.363 . S
C4273 C4272 1.415 . S
H4274 C4271 0.999 . S
H4275 C4256 0.913 . S
H4276 C4294 0.951 . S
H4277 C4296 0.951 . S
H4278 C4298 0.950 . S
H4279 C4299 0.950 . S
H4280 C4301 0.950 . S
H4281 C4304 0.950 . S
H4282 C4305 0.950 . S
H4283 C4307 0.950 . S
H4284 C4308 0.950 . S
H4285 C4309 0.951 . S
H4286 C4311 0.951 . S
H4287 C4313 0.950 . S
H4288 C4314 0.950 . S
H4289 C4316 0.950 . S
H4290 C4319 0.950 . S
H4291 C4320 0.950 . S
H4292 C4322 0.950 . S
H4293 C4323 0.950 . S
C4294 H4276 0.951 . S
C4294 C4295 1.366 . S
C4294 C4296 1.388 . S
C4295 C4294 1.366 . S
C4295 C4299 1.385 . S
C4296 H4277 0.951 . S
C4296 C4294 1.388 . S
C4296 C4297 1.366 . S
C4297 C4296 1.366 . S
C4297 C4298 1.414 . S
C4297 C4300 1.499 . S
C4298 H4278 0.950 . S
C4298 C4297 1.414 . S
C4298 C4299 1.374 . S
C4299 H4279 0.950 . S
C4299 C4295 1.385 . S
C4299 C4298 1.374 . S
C4300 C4297 1.499 . S
C4300 C4301 1.373 . S
C4300 C4302 1.389 . S
C4301 H4280 0.950 . S
C4301 C4300 1.373 . S
C4301 C4317 1.377 . S
C4302 C4300 1.389 . S
C4302 C4303 1.524 . S
C4302 C4316 1.377 . S
C4303 C4302 1.524 . S
C4303 C4304 1.397 . S
C4303 C4308 1.363 . S
C4304 H4281 0.950 . S
C4304 C4303 1.397 . S
C4304 C4305 1.334 . S
C4305 H4282 0.950 . S
C4305 C4304 1.334 . S
C4305 C4306 1.287 . S
C4306 C4305 1.287 . S
C4306 C4307 1.524 . S
C4306 H4325 0.913 . S
C4307 H4283 0.950 . S
C4307 C4306 1.524 . S
C4307 C4308 1.415 . S
C4308 H4284 0.950 . S
C4308 C4303 1.363 . S
C4308 C4307 1.415 . S
C4309 H4285 0.951 . S
C4309 C4310 1.366 . S
C4309 C4311 1.388 . S
C4310 C4309 1.366 . S
C4310 C4314 1.385 . S
C4311 H4286 0.951 . S
C4311 C4309 1.388 . S
C4311 C4312 1.366 . S
C4312 C4311 1.366 . S
C4312 C4313 1.414 . S
C4312 C4315 1.499 . S
C4313 H4287 0.950 . S
C4313 C4312 1.414 . S
C4313 C4314 1.374 . S
C4314 H4288 0.950 . S
C4314 C4310 1.385 . S
C4314 C4313 1.374 . S
C4315 C4312 1.499 . S
C4315 C4316 1.373 . S
C4315 C4317 1.389 . S
C4316 H4289 0.950 . S
C4316 C4302 1.377 . S
C4316 C4315 1.373 . S
C4317 C4301 1.377 . S
C4317 C4315 1.389 . S
C4317 C4318 1.524 . S
C4318 C4317 1.524 . S
C4318 C4319 1.397 . S
C4318 C4323 1.363 . S
C4319 H4290 0.950 . S
C4319 C4318 1.397 . S
C4319 C4320 1.334 . S
C4320 H4291 0.950 . S
C4320 C4319 1.334 . S
C4320 C4321 1.287 . S
C4321 C4320 1.287 . S
C4321 C4322 1.524 . S
C4321 H4324 0.999 . S
C4322 H4292 0.950 . S
C4322 C4321 1.524 . S
C4322 C4323 1.415 . S
C4323 H4293 0.950 . S
C4323 C4318 1.363 . S
C4323 C4322 1.415 . S
H4324 C4321 0.999 . S
H4325 C4306 0.913 . S
H4326 C4344 0.951 . S
H4327 C4346 0.951 . S
H4328 C4348 0.950 . S
H4329 C4349 0.950 . S
H4330 C4351 0.950 . S
H4331 C4354 0.950 . S
H4332 C4355 0.950 . S
H4333 C4357 0.950 . S
H4334 C4358 0.950 . S
H4335 C4359 0.951 . S
H4336 C4361 0.951 . S
H4337 C4363 0.950 . S
H4338 C4364 0.950 . S
H4339 C4366 0.950 . S
H4340 C4369 0.950 1_554 S
H4341 C4370 0.950 . S
H4342 C4372 0.950 . S
H4343 C4373 0.950 . S
C4344 H4326 0.951 . S
C4344 C4345 1.366 . S
C4344 C4346 1.388 . S
C4345 C4344 1.366 . S
C4345 C4349 1.385 1_554 S
C4346 H4327 0.951 . S
C4346 C4344 1.388 . S
C4346 C4347 1.366 . S
C4347 C4346 1.366 . S
C4347 C4348 1.414 1_554 S
C4347 C4350 1.499 . S
C4348 H4328 0.950 . S
C4348 C4347 1.414 1_556 S
C4348 C4349 1.374 . S
C4349 H4329 0.950 . S
C4349 C4345 1.385 1_556 S
C4349 C4348 1.374 . S
C4350 C4347 1.499 . S
C4350 C4351 1.373 1_554 S
C4350 C4352 1.389 . S
C4351 H4330 0.950 . S
C4351 C4350 1.373 1_556 S
C4351 C4367 1.377 . S
C4352 C4350 1.389 . S
C4352 C4353 1.524 . S
C4352 C4366 1.377 . S
C4353 C4352 1.524 . S
C4353 C4354 1.397 . S
C4353 C4358 1.363 . S
C4354 H4331 0.950 . S
C4354 C4353 1.397 . S
C4354 C4355 1.334 . S
C4355 H4332 0.950 . S
C4355 C4354 1.334 . S
C4355 C4356 1.287 . S
C4356 C4355 1.287 . S
C4356 C4357 1.524 . S
C4356 H4375 0.913 . S
C4357 H4333 0.950 . S
C4357 C4356 1.524 . S
C4357 C4358 1.415 . S
C4358 H4334 0.950 . S
C4358 C4353 1.363 . S
C4358 C4357 1.415 . S
C4359 H4335 0.951 . S
C4359 C4360 1.366 1_556 S
C4359 C4361 1.388 . S
C4360 C4359 1.366 1_554 S
C4360 C4364 1.385 . S
C4361 H4336 0.951 . S
C4361 C4359 1.388 . S
C4361 C4362 1.366 1_556 S
C4362 C4361 1.366 1_554 S
C4362 C4363 1.414 . S
C4362 C4365 1.499 . S
C4363 H4337 0.950 . S
C4363 C4362 1.414 . S
C4363 C4364 1.374 . S
C4364 H4338 0.950 . S
C4364 C4360 1.385 . S
C4364 C4363 1.374 . S
C4365 C4362 1.499 . S
C4365 C4366 1.373 . S
C4365 C4367 1.389 1_554 S
C4366 H4339 0.950 . S
C4366 C4352 1.377 . S
C4366 C4365 1.373 . S
C4367 C4351 1.377 . S
C4367 C4365 1.389 1_556 S
C4367 C4368 1.524 . S
C4368 C4367 1.524 . S
C4368 C4369 1.397 . S
C4368 C4373 1.363 . S
C4369 H4340 0.950 1_556 S
C4369 C4368 1.397 . S
C4369 C4370 1.334 . S
C4370 H4341 0.950 . S
C4370 C4369 1.334 . S
C4370 C4371 1.287 . S
C4371 C4370 1.287 . S
C4371 C4372 1.524 . S
C4371 H4374 0.999 . S
C4372 H4342 0.950 . S
C4372 C4371 1.524 . S
C4372 C4373 1.415 . S
C4373 H4343 0.950 . S
C4373 C4368 1.363 . S
C4373 C4372 1.415 . S
H4374 C4371 0.999 . S
H4375 C4356 0.913 . S
H4376 C4394 0.951 . S
H4377 C4396 0.951 . S
H4378 C4398 0.950 . S
H4379 C4399 0.950 . S
H4380 C4401 0.950 . S
H4381 C4404 0.950 . S
H4382 C4405 0.950 . S
H4383 C4407 0.950 . S
H4384 C4408 0.950 . S
H4385 C4409 0.951 . S
H4386 C4411 0.951 . S
H4387 C4413 0.950 . S
H4388 C4414 0.950 . S
H4389 C4416 0.950 . S
H4390 C4419 0.950 . S
H4391 C4420 0.950 . S
H4392 C4422 0.950 . S
H4393 C4423 0.950 . S
C4394 H4376 0.951 . S
C4394 C4395 1.366 . S
C4394 C4396 1.388 . S
C4395 C4394 1.366 . S
C4395 C4399 1.385 . S
C4396 H4377 0.951 . S
C4396 C4394 1.388 . S
C4396 C4397 1.366 . S
C4397 C4396 1.366 . S
C4397 C4398 1.414 . S
C4397 C4400 1.499 . S
C4398 H4378 0.950 . S
C4398 C4397 1.414 . S
C4398 C4399 1.374 . S
C4399 H4379 0.950 . S
C4399 C4395 1.385 . S
C4399 C4398 1.374 . S
C4400 C4397 1.499 . S
C4400 C4401 1.373 . S
C4400 C4402 1.389 . S
C4401 H4380 0.950 . S
C4401 C4400 1.373 . S
C4401 C4417 1.377 . S
C4402 C4400 1.389 . S
C4402 C4403 1.524 . S
C4402 C4416 1.377 . S
C4403 C4402 1.524 . S
C4403 C4404 1.397 . S
C4403 C4408 1.363 . S
C4404 H4381 0.950 . S
C4404 C4403 1.397 . S
C4404 C4405 1.334 . S
C4405 H4382 0.950 . S
C4405 C4404 1.334 . S
C4405 C4406 1.287 . S
C4406 C4405 1.287 . S
C4406 C4407 1.524 . S
C4406 H4425 0.913 . S
C4407 H4383 0.950 . S
C4407 C4406 1.524 . S
C4407 C4408 1.415 . S
C4408 H4384 0.950 . S
C4408 C4403 1.363 . S
C4408 C4407 1.415 . S
C4409 H4385 0.951 . S
C4409 C4410 1.366 . S
C4409 C4411 1.388 . S
C4410 C4409 1.366 . S
C4410 C4414 1.385 . S
C4411 H4386 0.951 . S
C4411 C4409 1.388 . S
C4411 C4412 1.366 . S
C4412 C4411 1.366 . S
C4412 C4413 1.414 . S
C4412 C4415 1.499 . S
C4413 H4387 0.950 . S
C4413 C4412 1.414 . S
C4413 C4414 1.374 . S
C4414 H4388 0.950 . S
C4414 C4410 1.385 . S
C4414 C4413 1.374 . S
C4415 C4412 1.499 . S
C4415 C4416 1.373 . S
C4415 C4417 1.389 . S
C4416 H4389 0.950 . S
C4416 C4402 1.377 . S
C4416 C4415 1.373 . S
C4417 C4401 1.377 . S
C4417 C4415 1.389 . S
C4417 C4418 1.524 . S
C4418 C4417 1.524 . S
C4418 C4419 1.397 . S
C4418 C4423 1.363 . S
C4419 H4390 0.950 . S
C4419 C4418 1.397 . S
C4419 C4420 1.334 . S
C4420 H4391 0.950 . S
C4420 C4419 1.334 . S
C4420 C4421 1.287 . S
C4421 C4420 1.287 . S
C4421 C4422 1.524 . S
C4421 H4424 0.999 . S
C4422 H4392 0.950 . S
C4422 C4421 1.524 . S
C4422 C4423 1.415 . S
C4423 H4393 0.950 . S
C4423 C4418 1.363 . S
C4423 C4422 1.415 . S
H4424 C4421 0.999 . S
H4425 C4406 0.913 . S
H4426 C4444 0.951 . S
H4427 C4446 0.951 . S
H4428 C4448 0.950 . S
H4429 C4449 0.950 . S
H4430 C4451 0.950 . S
H4431 C4454 0.950 . S
H4432 C4455 0.950 . S
H4433 C4457 0.950 . S
H4434 C4458 0.950 . S
H4435 C4459 0.951 . S
H4436 C4461 0.951 . S
H4437 C4463 0.950 . S
H4438 C4464 0.950 . S
H4439 C4466 0.950 . S
H4440 C4469 0.950 . S
H4441 C4470 0.982 . S
H4442 C4472 0.950 . S
H4443 C4473 0.950 . S
C4444 H4426 0.951 . S
C4444 C4445 1.366 . S
C4444 C4446 1.388 . S
C4445 C4444 1.366 . S
C4445 C4449 1.385 . S
C4446 H4427 0.951 . S
C4446 C4444 1.388 . S
C4446 C4447 1.366 . S
C4447 C4446 1.366 . S
C4447 C4448 1.414 . S
C4447 C4450 1.499 . S
C4448 H4428 0.950 . S
C4448 C4447 1.414 . S
C4448 C4449 1.374 . S
C4449 H4429 0.950 . S
C4449 C4445 1.385 . S
C4449 C4448 1.374 . S
C4450 C4447 1.499 . S
C4450 C4451 1.373 . S
C4450 C4452 1.389 . S
C4451 H4430 0.950 . S
C4451 C4450 1.373 . S
C4451 C4467 1.377 . S
C4452 C4450 1.389 . S
C4452 C4453 1.524 . S
C4452 C4466 1.377 . S
C4453 C4452 1.524 . S
C4453 C4454 1.397 . S
C4453 C4458 1.363 . S
C4454 H4431 0.950 . S
C4454 C4453 1.397 . S
C4454 C4455 1.334 . S
C4455 H4432 0.950 . S
C4455 C4454 1.334 . S
C4455 C4456 1.287 . S
C4456 C4455 1.287 . S
C4456 C4457 1.524 . S
C4456 H4475 0.913 . S
C4457 H4433 0.950 . S
C4457 C4456 1.524 . S
C4457 C4458 1.415 . S
C4458 H4434 0.950 . S
C4458 C4453 1.363 . S
C4458 C4457 1.415 . S
C4459 H4435 0.951 . S
C4459 C4460 1.366 . S
C4459 C4461 1.388 . S
C4460 C4459 1.366 . S
C4460 C4464 1.385 . S
C4461 H4436 0.951 . S
C4461 C4459 1.388 . S
C4461 C4462 1.366 . S
C4462 C4461 1.366 . S
C4462 C4463 1.414 . S
C4462 C4465 1.499 . S
C4463 H4437 0.950 . S
C4463 C4462 1.414 . S
C4463 C4464 1.374 . S
C4464 H4438 0.950 . S
C4464 C4460 1.385 . S
C4464 C4463 1.374 . S
C4465 C4462 1.499 . S
C4465 C4466 1.373 . S
C4465 C4467 1.389 . S
C4466 H4439 0.950 . S
C4466 C4452 1.377 . S
C4466 C4465 1.373 . S
C4467 C4451 1.377 . S
C4467 C4465 1.389 . S
C4467 C4468 1.524 . S
C4468 C4467 1.524 . S
C4468 C4469 1.397 . S
C4468 C4473 1.363 . S
C4469 H4440 0.950 . S
C4469 C4468 1.397 . S
C4469 C4470 1.334 . S
C4470 H4441 0.982 . S
C4470 C4469 1.334 . S
C4470 C4471 1.287 . S
C4471 C4470 1.287 . S
C4471 C4472 1.524 . S
C4471 H4474 0.999 . S
C4472 H4442 0.950 . S
C4472 C4471 1.524 . S
C4472 C4473 1.415 . S
C4473 H4443 0.950 . S
C4473 C4468 1.363 . S
C4473 C4472 1.415 . S
H4474 C4471 0.999 . S
H4475 C4456 0.913 . S
H4476 C4494 0.951 . S
H4477 C4496 0.951 . S
H4478 C4498 0.950 . S
H4479 C4499 0.950 . S
H4480 C4501 0.950 . S
H4481 C4504 0.950 . S
H4482 C4505 0.950 . S
H4483 C4507 0.950 . S
H4484 C4508 0.950 . S
H4485 C4509 0.951 . S
H4486 C4511 0.951 . S
H4487 C4513 0.950 . S
H4488 C4514 0.950 . S
H4489 C4516 0.950 . S
H4490 C4519 0.950 . S
H4491 C4520 0.950 . S
H4492 C4522 0.950 . S
H4493 C4523 0.950 . S
C4494 H4476 0.951 . S
C4494 C4495 1.366 . S
C4494 C4496 1.388 . S
C4495 C4494 1.366 . S
C4495 C4499 1.385 . S
C4496 H4477 0.951 . S
C4496 C4494 1.388 . S
C4496 C4497 1.366 . S
C4497 C4496 1.366 . S
C4497 C4498 1.414 . S
C4497 C4500 1.499 . S
C4498 H4478 0.950 . S
C4498 C4497 1.414 . S
C4498 C4499 1.374 . S
C4499 H4479 0.950 . S
C4499 C4495 1.385 . S
C4499 C4498 1.374 . S
C4500 C4497 1.499 . S
C4500 C4501 1.373 . S
C4500 C4502 1.389 . S
C4501 H4480 0.950 . S
C4501 C4500 1.373 . S
C4501 C4517 1.377 . S
C4502 C4500 1.389 . S
C4502 C4503 1.524 . S
C4502 C4516 1.377 . S
C4503 C4502 1.524 . S
C4503 C4504 1.397 . S
C4503 C4508 1.363 . S
C4504 H4481 0.950 . S
C4504 C4503 1.397 . S
C4504 C4505 1.334 . S
C4505 H4482 0.950 . S
C4505 C4504 1.334 . S
C4505 C4506 1.287 . S
C4506 C4505 1.287 . S
C4506 C4507 1.524 . S
C4506 H4525 0.913 . S
C4507 H4483 0.950 . S
C4507 C4506 1.524 . S
C4507 C4508 1.415 . S
C4508 H4484 0.950 . S
C4508 C4503 1.363 . S
C4508 C4507 1.415 . S
C4509 H4485 0.951 . S
C4509 C4510 1.366 . S
C4509 C4511 1.388 . S
C4510 C4509 1.366 . S
C4510 C4514 1.385 . S
C4511 H4486 0.951 . S
C4511 C4509 1.388 . S
C4511 C4512 1.366 . S
C4512 C4511 1.366 . S
C4512 C4513 1.414 . S
C4512 C4515 1.499 . S
C4513 H4487 0.950 . S
C4513 C4512 1.414 . S
C4513 C4514 1.374 . S
C4514 H4488 0.950 . S
C4514 C4510 1.385 . S
C4514 C4513 1.374 . S
C4515 C4512 1.499 . S
C4515 C4516 1.373 . S
C4515 C4517 1.389 . S
C4516 H4489 0.950 . S
C4516 C4502 1.377 . S
C4516 C4515 1.373 . S
C4517 C4501 1.377 . S
C4517 C4515 1.389 . S
C4517 C4518 1.524 . S
C4518 C4517 1.524 . S
C4518 C4519 1.397 . S
C4518 C4523 1.363 . S
C4519 H4490 0.950 . S
C4519 C4518 1.397 . S
C4519 C4520 1.334 . S
C4520 H4491 0.950 . S
C4520 C4519 1.334 . S
C4520 C4521 1.287 . S
C4521 C4520 1.287 . S
C4521 C4522 1.524 . S
C4521 H4524 0.999 . S
C4522 H4492 0.950 . S
C4522 C4521 1.524 . S
C4522 C4523 1.415 . S
C4523 H4493 0.950 . S
C4523 C4518 1.363 . S
C4523 C4522 1.415 . S
H4524 C4521 0.999 . S
H4525 C4506 0.913 . S
H4526 C4544 0.951 . S
H4527 C4546 0.951 . S
H4528 C4548 0.950 . S
H4529 C4549 0.950 . S
H4530 C4551 0.950 . S
H4531 C4554 0.950 . S
H4532 C4555 0.950 . S
H4533 C4557 0.950 . S
H4534 C4558 0.950 . S
H4535 C4559 0.951 . S
H4536 C4561 0.951 . S
H4537 C4563 0.950 . S
H4538 C4564 0.950 . S
H4539 C4566 0.950 . S
H4540 C4569 0.950 . S
H4541 C4570 0.950 . S
H4542 C4572 0.950 . S
H4543 C4573 0.950 . S
C4544 H4526 0.951 . S
C4544 C4545 1.366 . S
C4544 C4546 1.388 . S
C4545 C4544 1.366 . S
C4545 C4549 1.385 . S
C4546 H4527 0.951 . S
C4546 C4544 1.388 . S
C4546 C4547 1.366 . S
C4547 C4546 1.366 . S
C4547 C4548 1.414 . S
C4547 C4550 1.499 . S
C4548 H4528 0.950 . S
C4548 C4547 1.414 . S
C4548 C4549 1.374 . S
C4549 H4529 0.950 . S
C4549 C4545 1.385 . S
C4549 C4548 1.374 . S
C4550 C4547 1.499 . S
C4550 C4551 1.373 . S
C4550 C4552 1.389 . S
C4551 H4530 0.950 . S
C4551 C4550 1.373 . S
C4551 C4567 1.377 . S
C4552 C4550 1.389 . S
C4552 C4553 1.524 . S
C4552 C4566 1.377 . S
C4553 C4552 1.524 . S
C4553 C4554 1.397 . S
C4553 C4558 1.363 . S
C4554 H4531 0.950 . S
C4554 C4553 1.397 . S
C4554 C4555 1.334 . S
C4555 H4532 0.950 . S
C4555 C4554 1.334 . S
C4555 C4556 1.287 . S
C4556 C4555 1.287 . S
C4556 C4557 1.524 . S
C4556 H4575 0.913 . S
C4557 H4533 0.950 . S
C4557 C4556 1.524 . S
C4557 C4558 1.415 . S
C4558 H4534 0.950 . S
C4558 C4553 1.363 . S
C4558 C4557 1.415 . S
C4559 H4535 0.951 . S
C4559 C4560 1.366 . S
C4559 C4561 1.388 . S
C4560 C4559 1.366 . S
C4560 C4564 1.385 . S
C4561 H4536 0.951 . S
C4561 C4559 1.388 . S
C4561 C4562 1.366 . S
C4562 C4561 1.366 . S
C4562 C4563 1.414 . S
C4562 C4565 1.499 . S
C4563 H4537 0.950 . S
C4563 C4562 1.414 . S
C4563 C4564 1.374 . S
C4564 H4538 0.950 . S
C4564 C4560 1.385 . S
C4564 C4563 1.374 . S
C4565 C4562 1.499 . S
C4565 C4566 1.373 . S
C4565 C4567 1.389 . S
C4566 H4539 0.950 . S
C4566 C4552 1.377 . S
C4566 C4565 1.373 . S
C4567 C4551 1.377 . S
C4567 C4565 1.389 . S
C4567 C4568 1.524 . S
C4568 C4567 1.524 . S
C4568 C4569 1.397 . S
C4568 C4573 1.363 . S
C4569 H4540 0.950 . S
C4569 C4568 1.397 . S
C4569 C4570 1.334 . S
C4570 H4541 0.950 . S
C4570 C4569 1.334 . S
C4570 C4571 1.287 . S
C4571 C4570 1.287 . S
C4571 C4572 1.524 . S
C4571 H4574 0.999 . S
C4572 H4542 0.950 . S
C4572 C4571 1.524 . S
C4572 C4573 1.415 . S
C4573 H4543 0.950 . S
C4573 C4568 1.363 . S
C4573 C4572 1.415 . S
H4574 C4571 0.999 . S
H4575 C4556 0.913 . S
H4576 C4594 0.951 . S
H4577 C4596 0.951 . S
H4578 C4598 0.950 . S
H4579 C4599 0.950 . S
H4580 C4601 0.950 . S
H4581 C4604 0.950 . S
H4582 C4605 0.950 . S
H4583 C4607 0.950 . S
H4584 C4608 0.950 . S
H4585 C4609 0.951 . S
H4586 C4611 0.951 . S
H4587 C4613 0.950 . S
H4588 C4614 0.950 . S
H4589 C4616 0.950 . S
H4590 C4619 0.950 . S
H4591 C4620 0.950 . S
H4592 C4622 0.950 . S
H4593 C4623 0.950 . S
C4594 H4576 0.951 . S
C4594 C4595 1.366 . S
C4594 C4596 1.388 . S
C4595 C4594 1.366 . S
C4595 C4599 1.385 . S
C4596 H4577 0.951 . S
C4596 C4594 1.388 . S
C4596 C4597 1.366 . S
C4597 C4596 1.366 . S
C4597 C4598 1.414 . S
C4597 C4600 1.499 . S
C4598 H4578 0.950 . S
C4598 C4597 1.414 . S
C4598 C4599 1.374 . S
C4599 H4579 0.950 . S
C4599 C4595 1.385 . S
C4599 C4598 1.374 . S
C4600 C4597 1.499 . S
C4600 C4601 1.373 . S
C4600 C4602 1.389 . S
C4601 H4580 0.950 . S
C4601 C4600 1.373 . S
C4601 C4617 1.377 . S
C4602 C4600 1.389 . S
C4602 C4603 1.524 . S
C4602 C4616 1.377 . S
C4603 C4602 1.524 . S
C4603 C4604 1.397 . S
C4603 C4608 1.363 . S
C4604 H4581 0.950 . S
C4604 C4603 1.397 . S
C4604 C4605 1.334 . S
C4605 H4582 0.950 . S
C4605 C4604 1.334 . S
C4605 C4606 1.287 . S
C4606 C4605 1.287 . S
C4606 C4607 1.524 . S
C4606 H4625 0.913 . S
C4607 H4583 0.950 . S
C4607 C4606 1.524 . S
C4607 C4608 1.415 . S
C4608 H4584 0.950 . S
C4608 C4603 1.363 . S
C4608 C4607 1.415 . S
C4609 H4585 0.951 . S
C4609 C4610 1.366 . S
C4609 C4611 1.388 . S
C4610 C4609 1.366 . S
C4610 C4614 1.385 . S
C4611 H4586 0.951 . S
C4611 C4609 1.388 . S
C4611 C4612 1.366 . S
C4612 C4611 1.366 . S
C4612 C4613 1.414 . S
C4612 C4615 1.499 . S
C4613 H4587 0.950 . S
C4613 C4612 1.414 . S
C4613 C4614 1.374 . S
C4614 H4588 0.950 . S
C4614 C4610 1.385 . S
C4614 C4613 1.374 . S
C4615 C4612 1.499 . S
C4615 C4616 1.373 . S
C4615 C4617 1.389 . S
C4616 H4589 0.950 . S
C4616 C4602 1.377 . S
C4616 C4615 1.373 . S
C4617 C4601 1.377 . S
C4617 C4615 1.389 . S
C4617 C4618 1.524 . S
C4618 C4617 1.524 . S
C4618 C4619 1.397 . S
C4618 C4623 1.363 . S
C4619 H4590 0.950 . S
C4619 C4618 1.397 . S
C4619 C4620 1.334 . S
C4620 H4591 0.950 . S
C4620 C4619 1.334 . S
C4620 C4621 1.287 . S
C4621 C4620 1.287 . S
C4621 C4622 1.524 . S
C4621 H4624 0.999 . S
C4622 H4592 0.950 . S
C4622 C4621 1.524 . S
C4622 C4623 1.415 . S
C4623 H4593 0.950 . S
C4623 C4618 1.363 . S
C4623 C4622 1.415 . S
H4624 C4621 0.999 . S
H4625 C4606 0.913 . S
H4626 C4644 0.951 . S
H4627 C4646 0.951 . S
H4628 C4648 0.950 . S
H4629 C4649 0.950 . S
H4630 C4651 0.950 . S
H4631 C4654 0.950 . S
H4632 C4655 0.950 . S
H4633 C4657 0.950 . S
H4634 C4658 0.950 . S
H4635 C4659 0.951 . S
H4636 C4661 0.951 . S
H4637 C4663 0.950 . S
H4638 C4664 0.950 . S
H4639 C4666 0.950 . S
H4640 C4669 0.950 . S
H4641 C4670 0.950 . S
H4642 C4672 0.950 . S
H4643 C4673 0.950 . S
C4644 H4626 0.951 . S
C4644 C4645 1.366 . S
C4644 C4646 1.388 . S
C4645 C4644 1.366 . S
C4645 C4649 1.385 . S
C4646 H4627 0.951 . S
C4646 C4644 1.388 . S
C4646 C4647 1.366 . S
C4647 C4646 1.366 . S
C4647 C4648 1.414 . S
C4647 C4650 1.499 . S
C4648 H4628 0.950 . S
C4648 C4647 1.414 . S
C4648 C4649 1.374 . S
C4649 H4629 0.950 . S
C4649 C4645 1.385 . S
C4649 C4648 1.374 . S
C4650 C4647 1.499 . S
C4650 C4651 1.373 . S
C4650 C4652 1.389 . S
C4651 H4630 0.950 . S
C4651 C4650 1.373 . S
C4651 C4667 1.377 . S
C4652 C4650 1.389 . S
C4652 C4653 1.524 . S
C4652 C4666 1.377 . S
C4653 C4652 1.524 . S
C4653 C4654 1.397 . S
C4653 C4658 1.363 . S
C4654 H4631 0.950 . S
C4654 C4653 1.397 . S
C4654 C4655 1.334 . S
C4655 H4632 0.950 . S
C4655 C4654 1.334 . S
C4655 C4656 1.287 . S
C4656 C4655 1.287 . S
C4656 C4657 1.524 . S
C4656 H4675 0.913 . S
C4657 H4633 0.950 . S
C4657 C4656 1.524 . S
C4657 C4658 1.415 . S
C4658 H4634 0.950 . S
C4658 C4653 1.363 . S
C4658 C4657 1.415 . S
C4659 H4635 0.951 . S
C4659 C4660 1.366 . S
C4659 C4661 1.388 . S
C4660 C4659 1.366 . S
C4660 C4664 1.385 . S
C4661 H4636 0.951 . S
C4661 C4659 1.388 . S
C4661 C4662 1.366 . S
C4662 C4661 1.366 . S
C4662 C4663 1.414 . S
C4662 C4665 1.499 . S
C4663 H4637 0.950 . S
C4663 C4662 1.414 . S
C4663 C4664 1.374 . S
C4664 H4638 0.950 . S
C4664 C4660 1.385 . S
C4664 C4663 1.374 . S
C4665 C4662 1.499 . S
C4665 C4666 1.373 . S
C4665 C4667 1.389 . S
C4666 H4639 0.950 . S
C4666 C4652 1.377 . S
C4666 C4665 1.373 . S
C4667 C4651 1.377 . S
C4667 C4665 1.389 . S
C4667 C4668 1.524 . S
C4668 C4667 1.524 . S
C4668 C4669 1.397 . S
C4668 C4673 1.363 . S
C4669 H4640 0.950 . S
C4669 C4668 1.397 . S
C4669 C4670 1.334 . S
C4670 H4641 0.950 . S
C4670 C4669 1.334 . S
C4670 C4671 1.287 . S
C4671 C4670 1.287 . S
C4671 C4672 1.524 . S
C4671 H4674 0.999 . S
C4672 H4642 0.950 . S
C4672 C4671 1.524 . S
C4672 C4673 1.415 . S
C4673 H4643 0.950 . S
C4673 C4668 1.363 . S
C4673 C4672 1.415 . S
H4674 C4671 0.999 . S
H4675 C4656 0.913 . S
H4676 C4694 0.951 . S
H4677 C4696 0.951 . S
H4678 C4698 0.950 . S
H4679 C4699 0.950 . S
H4680 C4701 0.950 . S
H4681 C4704 0.950 1_455 S
H4682 C4705 0.950 . S
H4683 C4707 0.950 . S
H4684 C4708 0.950 . S
H4685 C4709 0.951 . S
H4686 C4711 0.951 . S
H4687 C4713 0.950 . S
H4688 C4714 0.950 . S
H4689 C4716 0.950 . S
H4690 C4719 0.950 . S
H4691 C4720 0.950 . S
H4692 C4722 0.950 . S
H4693 C4723 0.950 . S
C4694 H4676 0.951 . S
C4694 C4695 1.366 . S
C4694 C4696 1.388 . S
C4695 C4694 1.366 . S
C4695 C4699 1.385 . S
C4696 H4677 0.951 . S
C4696 C4694 1.388 . S
C4696 C4697 1.366 . S
C4697 C4696 1.366 . S
C4697 C4698 1.414 . S
C4697 C4700 1.499 . S
C4698 H4678 0.950 . S
C4698 C4697 1.414 . S
C4698 C4699 1.374 . S
C4699 H4679 0.950 . S
C4699 C4695 1.385 . S
C4699 C4698 1.374 . S
C4700 C4697 1.499 . S
C4700 C4701 1.373 . S
C4700 C4702 1.389 . S
C4701 H4680 0.950 . S
C4701 C4700 1.373 . S
C4701 C4717 1.377 . S
C4702 C4700 1.389 . S
C4702 C4703 1.524 . S
C4702 C4716 1.377 . S
C4703 C4702 1.524 . S
C4703 C4704 1.397 1_455 S
C4703 C4708 1.363 1_455 S
C4704 H4681 0.950 1_655 S
C4704 C4703 1.397 1_655 S
C4704 C4705 1.334 . S
C4705 H4682 0.950 . S
C4705 C4704 1.334 . S
C4705 C4706 1.287 . S
C4706 C4705 1.287 . S
C4706 C4707 1.524 . S
C4706 H4725 0.913 . S
C4707 H4683 0.950 . S
C4707 C4706 1.524 . S
C4707 C4708 1.415 . S
C4708 H4684 0.950 . S
C4708 C4703 1.363 1_655 S
C4708 C4707 1.415 . S
C4709 H4685 0.951 . S
C4709 C4710 1.366 . S
C4709 C4711 1.388 . S
C4710 C4709 1.366 . S
C4710 C4714 1.385 . S
C4711 H4686 0.951 . S
C4711 C4709 1.388 . S
C4711 C4712 1.366 . S
C4712 C4711 1.366 . S
C4712 C4713 1.414 . S
C4712 C4715 1.499 . S
C4713 H4687 0.950 . S
C4713 C4712 1.414 . S
C4713 C4714 1.374 . S
C4714 H4688 0.950 . S
C4714 C4710 1.385 . S
C4714 C4713 1.374 . S
C4715 C4712 1.499 . S
C4715 C4716 1.373 . S
C4715 C4717 1.389 . S
C4716 H4689 0.950 . S
C4716 C4702 1.377 . S
C4716 C4715 1.373 . S
C4717 C4701 1.377 . S
C4717 C4715 1.389 . S
C4717 C4718 1.524 . S
C4718 C4717 1.524 . S
C4718 C4719 1.397 . S
C4718 C4723 1.363 . S
C4719 H4690 0.950 . S
C4719 C4718 1.397 . S
C4719 C4720 1.334 . S
C4720 H4691 0.950 . S
C4720 C4719 1.334 . S
C4720 C4721 1.287 . S
C4721 C4720 1.287 . S
C4721 C4722 1.524 . S
C4721 H4724 0.999 . S
C4722 H4692 0.950 . S
C4722 C4721 1.524 . S
C4722 C4723 1.415 . S
C4723 H4693 0.950 . S
C4723 C4718 1.363 . S
C4723 C4722 1.415 . S
H4724 C4721 0.999 . S
H4725 C4706 0.913 . S
H4726 C4744 0.951 . S
H4727 C4746 0.951 . S
H4728 C4748 0.950 . S
H4729 C4749 0.950 . S
H4730 C4751 0.950 . S
H4731 C4754 0.950 . S
H4732 C4755 0.950 . S
H4733 C4757 0.950 . S
H4734 C4758 0.950 . S
H4735 C4759 0.951 . S
H4736 C4761 0.951 . S
H4737 C4763 0.950 . S
H4738 C4764 0.950 . S
H4739 C4766 0.950 . S
H4740 C4769 0.950 . S
H4741 C4770 0.950 . S
H4742 C4772 0.950 . S
H4743 C4773 0.950 . S
C4744 H4726 0.951 . S
C4744 C4745 1.366 . S
C4744 C4746 1.388 . S
C4745 C4744 1.366 . S
C4745 C4749 1.385 . S
C4746 H4727 0.951 . S
C4746 C4744 1.388 . S
C4746 C4747 1.366 . S
C4747 C4746 1.366 . S
C4747 C4748 1.414 . S
C4747 C4750 1.499 . S
C4748 H4728 0.950 . S
C4748 C4747 1.414 . S
C4748 C4749 1.374 . S
C4749 H4729 0.950 . S
C4749 C4745 1.385 . S
C4749 C4748 1.374 . S
C4750 C4747 1.499 . S
C4750 C4751 1.373 . S
C4750 C4752 1.389 . S
C4751 H4730 0.950 . S
C4751 C4750 1.373 . S
C4751 C4767 1.377 . S
C4752 C4750 1.389 . S
C4752 C4753 1.524 . S
C4752 C4766 1.377 . S
C4753 C4752 1.524 . S
C4753 C4754 1.397 . S
C4753 C4758 1.363 . S
C4754 H4731 0.950 . S
C4754 C4753 1.397 . S
C4754 C4755 1.334 . S
C4755 H4732 0.950 . S
C4755 C4754 1.334 . S
C4755 C4756 1.287 . S
C4756 C4755 1.287 . S
C4756 C4757 1.524 . S
C4756 H4775 0.913 . S
C4757 H4733 0.950 . S
C4757 C4756 1.524 . S
C4757 C4758 1.415 . S
C4758 H4734 0.950 . S
C4758 C4753 1.363 . S
C4758 C4757 1.415 . S
C4759 H4735 0.951 . S
C4759 C4760 1.366 . S
C4759 C4761 1.388 . S
C4760 C4759 1.366 . S
C4760 C4764 1.385 . S
C4761 H4736 0.951 . S
C4761 C4759 1.388 . S
C4761 C4762 1.366 . S
C4762 C4761 1.366 . S
C4762 C4763 1.414 . S
C4762 C4765 1.499 . S
C4763 H4737 0.950 . S
C4763 C4762 1.414 . S
C4763 C4764 1.374 . S
C4764 H4738 0.950 . S
C4764 C4760 1.385 . S
C4764 C4763 1.374 . S
C4765 C4762 1.499 . S
C4765 C4766 1.373 . S
C4765 C4767 1.389 . S
C4766 H4739 0.950 . S
C4766 C4752 1.377 . S
C4766 C4765 1.373 . S
C4767 C4751 1.377 . S
C4767 C4765 1.389 . S
C4767 C4768 1.524 . S
C4768 C4767 1.524 . S
C4768 C4769 1.397 . S
C4768 C4773 1.363 . S
C4769 H4740 0.950 . S
C4769 C4768 1.397 . S
C4769 C4770 1.334 . S
C4770 H4741 0.950 . S
C4770 C4769 1.334 . S
C4770 C4771 1.287 . S
C4771 C4770 1.287 . S
C4771 C4772 1.524 . S
C4771 H4774 0.999 . S
C4772 H4742 0.950 . S
C4772 C4771 1.524 . S
C4772 C4773 1.415 . S
C4773 H4743 0.950 . S
C4773 C4768 1.363 . S
C4773 C4772 1.415 . S
H4774 C4771 0.999 . S
H4775 C4756 0.913 . S
H4776 C4794 0.951 . S
H4777 C4796 0.951 . S
H4778 C4798 0.950 . S
H4779 C4799 0.950 . S
H4780 C4801 0.950 . S
H4781 C4804 0.950 . S
H4782 C4805 0.950 . S
H4783 C4807 0.950 . S
H4784 C4808 0.950 . S
H4785 C4809 0.951 . S
H4786 C4811 0.951 . S
H4787 C4813 0.950 . S
H4788 C4814 0.950 . S
H4789 C4816 0.950 . S
H4790 C4819 0.950 . S
H4791 C4820 0.950 . S
H4792 C4822 0.950 . S
H4793 C4823 0.950 . S
C4794 H4776 0.951 . S
C4794 C4795 1.366 . S
C4794 C4796 1.388 . S
C4795 C4794 1.366 . S
C4795 C4799 1.385 . S
C4796 H4777 0.951 . S
C4796 C4794 1.388 . S
C4796 C4797 1.366 . S
C4797 C4796 1.366 . S
C4797 C4798 1.414 . S
C4797 C4800 1.499 . S
C4798 H4778 0.950 . S
C4798 C4797 1.414 . S
C4798 C4799 1.374 . S
C4799 H4779 0.950 . S
C4799 C4795 1.385 . S
C4799 C4798 1.374 . S
C4800 C4797 1.499 . S
C4800 C4801 1.373 . S
C4800 C4802 1.389 . S
C4801 H4780 0.950 . S
C4801 C4800 1.373 . S
C4801 C4817 1.377 . S
C4802 C4800 1.389 . S
C4802 C4803 1.524 . S
C4802 C4816 1.377 . S
C4803 C4802 1.524 . S
C4803 C4804 1.397 . S
C4803 C4808 1.363 . S
C4804 H4781 0.950 . S
C4804 C4803 1.397 . S
C4804 C4805 1.334 . S
C4805 H4782 0.950 . S
C4805 C4804 1.334 . S
C4805 C4806 1.287 . S
C4806 C4805 1.287 . S
C4806 C4807 1.524 . S
C4806 H4825 0.913 . S
C4807 H4783 0.950 . S
C4807 C4806 1.524 . S
C4807 C4808 1.415 . S
C4808 H4784 0.950 . S
C4808 C4803 1.363 . S
C4808 C4807 1.415 . S
C4809 H4785 0.951 . S
C4809 C4810 1.366 . S
C4809 C4811 1.388 . S
C4810 C4809 1.366 . S
C4810 C4814 1.385 . S
C4811 H4786 0.951 . S
C4811 C4809 1.388 . S
C4811 C4812 1.366 . S
C4812 C4811 1.366 . S
C4812 C4813 1.414 . S
C4812 C4815 1.499 . S
C4813 H4787 0.950 . S
C4813 C4812 1.414 . S
C4813 C4814 1.374 . S
C4814 H4788 0.950 . S
C4814 C4810 1.385 . S
C4814 C4813 1.374 . S
C4815 C4812 1.499 . S
C4815 C4816 1.373 . S
C4815 C4817 1.389 . S
C4816 H4789 0.950 . S
C4816 C4802 1.377 . S
C4816 C4815 1.373 . S
C4817 C4801 1.377 . S
C4817 C4815 1.389 . S
C4817 C4818 1.524 . S
C4818 C4817 1.524 . S
C4818 C4819 1.397 . S
C4818 C4823 1.363 . S
C4819 H4790 0.950 . S
C4819 C4818 1.397 . S
C4819 C4820 1.334 . S
C4820 H4791 0.950 . S
C4820 C4819 1.334 . S
C4820 C4821 1.287 . S
C4821 C4820 1.287 . S
C4821 C4822 1.524 . S
C4821 H4824 0.999 . S
C4822 H4792 0.950 . S
C4822 C4821 1.524 . S
C4822 C4823 1.415 . S
C4823 H4793 0.950 . S
C4823 C4818 1.363 . S
C4823 C4822 1.415 . S
H4824 C4821 0.999 . S
H4825 C4806 0.913 . S
H4826 C4844 0.951 . S
H4827 C4846 0.951 . S
H4828 C4848 0.950 . S
H4829 C4849 0.950 . S
H4830 C4851 0.950 . S
H4831 C4854 0.950 . S
H4832 C4855 0.950 . S
H4833 C4857 0.950 . S
H4834 C4858 0.950 . S
H4835 C4859 0.951 . S
H4836 C4861 0.951 . S
H4837 C4863 0.950 . S
H4838 C4864 0.950 . S
H4839 C4866 0.950 . S
H4840 C4869 0.950 . S
H4841 C4870 0.950 . S
H4842 C4872 0.950 . S
H4843 C4873 0.950 . S
C4844 H4826 0.951 . S
C4844 C4845 1.366 . S
C4844 C4846 1.388 . S
C4845 C4844 1.366 . S
C4845 C4849 1.385 . S
C4846 H4827 0.951 . S
C4846 C4844 1.388 . S
C4846 C4847 1.366 . S
C4847 C4846 1.366 . S
C4847 C4848 1.414 . S
C4847 C4850 1.499 . S
C4848 H4828 0.950 . S
C4848 C4847 1.414 . S
C4848 C4849 1.374 . S
C4849 H4829 0.950 . S
C4849 C4845 1.385 . S
C4849 C4848 1.374 . S
C4850 C4847 1.499 . S
C4850 C4851 1.373 . S
C4850 C4852 1.389 . S
C4851 H4830 0.950 . S
C4851 C4850 1.373 . S
C4851 C4867 1.377 . S
C4852 C4850 1.389 . S
C4852 C4853 1.524 . S
C4852 C4866 1.377 . S
C4853 C4852 1.524 . S
C4853 C4854 1.397 . S
C4853 C4858 1.363 . S
C4854 H4831 0.950 . S
C4854 C4853 1.397 . S
C4854 C4855 1.334 . S
C4855 H4832 0.950 . S
C4855 C4854 1.334 . S
C4855 C4856 1.287 . S
C4856 C4855 1.287 . S
C4856 C4857 1.524 . S
C4856 H4875 0.913 . S
C4857 H4833 0.950 . S
C4857 C4856 1.524 . S
C4857 C4858 1.415 . S
C4858 H4834 0.950 . S
C4858 C4853 1.363 . S
C4858 C4857 1.415 . S
C4859 H4835 0.951 . S
C4859 C4860 1.366 . S
C4859 C4861 1.388 . S
C4860 C4859 1.366 . S
C4860 C4864 1.385 . S
C4861 H4836 0.951 . S
C4861 C4859 1.388 . S
C4861 C4862 1.366 . S
C4862 C4861 1.366 . S
C4862 C4863 1.414 . S
C4862 C4865 1.499 . S
C4863 H4837 0.950 . S
C4863 C4862 1.414 . S
C4863 C4864 1.374 . S
C4864 H4838 0.950 . S
C4864 C4860 1.385 . S
C4864 C4863 1.374 . S
C4865 C4862 1.499 . S
C4865 C4866 1.373 . S
C4865 C4867 1.389 . S
C4866 H4839 0.950 . S
C4866 C4852 1.377 . S
C4866 C4865 1.373 . S
C4867 C4851 1.377 . S
C4867 C4865 1.389 . S
C4867 C4868 1.524 . S
C4868 C4867 1.524 . S
C4868 C4869 1.397 . S
C4868 C4873 1.363 . S
C4869 H4840 0.950 . S
C4869 C4868 1.397 . S
C4869 C4870 1.334 . S
C4870 H4841 0.950 . S
C4870 C4869 1.334 . S
C4870 C4871 1.287 . S
C4871 C4870 1.287 . S
C4871 C4872 1.524 . S
C4871 H4874 0.999 . S
C4872 H4842 0.950 . S
C4872 C4871 1.524 . S
C4872 C4873 1.415 . S
C4873 H4843 0.950 . S
C4873 C4868 1.363 . S
C4873 C4872 1.415 . S
H4874 C4871 0.999 . S
H4875 C4856 0.913 . S
H4876 C4894 0.951 . S
H4877 C4896 0.951 . S
H4878 C4898 0.950 . S
H4879 C4899 0.950 . S
H4880 C4901 0.984 . S
H4881 C4904 0.950 . S
H4882 C4905 0.950 . S
H4883 C4907 0.950 . S
H4884 C4908 0.950 . S
H4885 C4909 0.951 1_655 S
H4886 C4911 0.951 1_655 S
H4887 C4913 0.950 . S
H4888 C4914 0.950 . S
H4889 C4916 0.950 . S
H4890 C4919 0.950 1_455 S
H4891 C4920 0.950 . S
H4892 C4922 0.950 . S
H4893 C4923 0.950 . S
C4894 H4876 0.951 . S
C4894 C4895 1.366 . S
C4894 C4896 1.388 . S
C4895 C4894 1.366 . S
C4895 C4899 1.385 1_455 S
C4896 H4877 0.951 . S
C4896 C4894 1.388 . S
C4896 C4897 1.366 . S
C4897 C4896 1.366 . S
C4897 C4898 1.414 1_455 S
C4897 C4900 1.499 . S
C4898 H4878 0.950 . S
C4898 C4897 1.414 1_655 S
C4898 C4899 1.374 . S
C4899 H4879 0.950 . S
C4899 C4895 1.385 1_655 S
C4899 C4898 1.374 . S
C4900 C4897 1.499 . S
C4900 C4901 1.332 1_455 S
C4900 C4902 1.389 . S
C4901 H4880 0.984 . S
C4901 C4900 1.332 1_655 S
C4901 C4917 1.387 1_655 S
C4902 C4900 1.389 . S
C4902 C4903 1.524 . S
C4902 C4916 1.377 . S
C4903 C4902 1.524 . S
C4903 C4904 1.397 . S
C4903 C4908 1.363 . S
C4904 H4881 0.950 . S
C4904 C4903 1.397 . S
C4904 C4905 1.334 . S
C4905 H4882 0.950 . S
C4905 C4904 1.334 . S
C4905 C4906 1.287 . S
C4906 C4905 1.287 . S
C4906 C4907 1.524 . S
C4906 H4925 0.913 . S
C4907 H4883 0.950 . S
C4907 C4906 1.524 . S
C4907 C4908 1.415 . S
C4908 H4884 0.950 . S
C4908 C4903 1.363 . S
C4908 C4907 1.415 . S
C4909 H4885 0.951 1_455 S
C4909 C4910 1.366 . S
C4909 C4911 1.388 . S
C4910 C4909 1.366 . S
C4910 C4914 1.385 . S
C4911 H4886 0.951 1_455 S
C4911 C4909 1.388 . S
C4911 C4912 1.366 . S
C4912 C4911 1.366 . S
C4912 C4913 1.414 . S
C4912 C4915 1.499 . S
C4913 H4887 0.950 . S
C4913 C4912 1.414 . S
C4913 C4914 1.374 . S
C4914 H4888 0.950 . S
C4914 C4910 1.385 . S
C4914 C4913 1.374 . S
C4915 C4912 1.499 . S
C4915 C4916 1.373 . S
C4915 C4917 1.389 . S
C4916 H4889 0.950 . S
C4916 C4902 1.377 . S
C4916 C4915 1.373 . S
C4917 C4901 1.387 1_455 S
C4917 C4915 1.389 . S
C4917 C4918 1.524 1_455 S
C4918 C4917 1.524 1_655 S
C4918 C4919 1.397 . S
C4918 C4923 1.363 . S
C4919 H4890 0.950 1_655 S
C4919 C4918 1.397 . S
C4919 C4920 1.334 . S
C4920 H4891 0.950 . S
C4920 C4919 1.334 . S
C4920 C4921 1.287 . S
C4921 C4920 1.287 . S
C4921 C4922 1.524 . S
C4921 H4924 0.999 . S
C4922 H4892 0.950 . S
C4922 C4921 1.524 . S
C4922 C4923 1.415 . S
C4923 H4893 0.950 . S
C4923 C4918 1.363 . S
C4923 C4922 1.415 . S
H4924 C4921 0.999 . S
H4925 C4906 0.913 . S
H4926 C4944 0.951 . S
H4927 C4946 0.951 . S
H4928 C4948 0.950 . S
H4929 C4949 0.950 . S
H4930 C4951 0.950 . S
H4931 C4954 0.950 . S
H4932 C4955 0.950 . S
H4933 C4957 0.950 . S
H4934 C4958 0.950 . S
H4935 C4959 0.951 . S
H4936 C4961 0.951 . S
H4937 C4963 0.950 . S
H4938 C4964 0.950 . S
H4939 C4966 0.950 . S
H4940 C4969 0.950 . S
H4941 C4970 0.950 . S
H4942 C4972 0.950 . S
H4943 C4973 0.950 . S
C4944 H4926 0.951 . S
C4944 C4945 1.366 . S
C4944 C4946 1.388 . S
C4945 C4944 1.366 . S
C4945 C4949 1.385 . S
C4946 H4927 0.951 . S
C4946 C4944 1.388 . S
C4946 C4947 1.366 . S
C4947 C4946 1.366 . S
C4947 C4948 1.414 . S
C4947 C4950 1.499 . S
C4948 H4928 0.950 . S
C4948 C4947 1.414 . S
C4948 C4949 1.374 . S
C4949 H4929 0.950 . S
C4949 C4945 1.385 . S
C4949 C4948 1.374 . S
C4950 C4947 1.499 . S
C4950 C4951 1.373 . S
C4950 C4952 1.389 . S
C4951 H4930 0.950 . S
C4951 C4950 1.373 . S
C4951 C4967 1.377 . S
C4952 C4950 1.389 . S
C4952 C4953 1.524 . S
C4952 C4966 1.377 . S
C4953 C4952 1.524 . S
C4953 C4954 1.397 . S
C4953 C4958 1.363 . S
C4954 H4931 0.950 . S
C4954 C4953 1.397 . S
C4954 C4955 1.334 . S
C4955 H4932 0.950 . S
C4955 C4954 1.334 . S
C4955 C4956 1.287 . S
C4956 C4955 1.287 . S
C4956 C4957 1.524 . S
C4956 H4975 0.913 . S
C4957 H4933 0.950 . S
C4957 C4956 1.524 . S
C4957 C4958 1.415 . S
C4958 H4934 0.950 . S
C4958 C4953 1.363 . S
C4958 C4957 1.415 . S
C4959 H4935 0.951 . S
C4959 C4960 1.366 . S
C4959 C4961 1.388 . S
C4960 C4959 1.366 . S
C4960 C4964 1.385 . S
C4961 H4936 0.951 . S
C4961 C4959 1.388 . S
C4961 C4962 1.366 . S
C4962 C4961 1.366 . S
C4962 C4963 1.414 . S
C4962 C4965 1.499 . S
C4963 H4937 0.950 . S
C4963 C4962 1.414 . S
C4963 C4964 1.374 . S
C4964 H4938 0.950 . S
C4964 C4960 1.385 . S
C4964 C4963 1.374 . S
C4965 C4962 1.499 . S
C4965 C4966 1.373 . S
C4965 C4967 1.389 . S
C4966 H4939 0.950 . S
C4966 C4952 1.377 . S
C4966 C4965 1.373 . S
C4967 C4951 1.377 . S
C4967 C4965 1.389 . S
C4967 C4968 1.524 . S
C4968 C4967 1.524 . S
C4968 C4969 1.397 . S
C4968 C4973 1.363 . S
C4969 H4940 0.950 . S
C4969 C4968 1.397 . S
C4969 C4970 1.334 . S
C4970 H4941 0.950 . S
C4970 C4969 1.334 . S
C4970 C4971 1.287 . S
C4971 C4970 1.287 . S
C4971 C4972 1.524 . S
C4971 H4974 0.999 . S
C4972 H4942 0.950 . S
C4972 C4971 1.524 . S
C4972 C4973 1.415 . S
C4973 H4943 0.950 . S
C4973 C4968 1.363 . S
C4973 C4972 1.415 . S
H4974 C4971 0.999 . S
H4975 C4956 0.913 . S
H4976 C4994 0.951 . S
H4977 C4996 0.951 . S
H4978 C4998 0.950 . S
H4979 C4999 0.950 . S
H4980 C5001 0.950 . S
H4981 C5004 0.950 . S
H4982 C5005 0.950 . S
H4983 C5007 0.950 . S
H4984 C5008 0.950 . S
H4985 C5009 0.951 . S
H4986 C5011 0.951 . S
H4987 C5013 0.950 . S
H4988 C5014 0.950 . S
H4989 C5016 0.950 . S
H4990 C5019 0.950 . S
H4991 C5020 0.950 . S
H4992 C5022 0.950 . S
H4993 C5023 0.950 . S
C4994 H4976 0.951 . S
C4994 C4995 1.366 . S
C4994 C4996 1.388 . S
C4995 C4994 1.366 . S
C4995 C4999 1.385 . S
C4996 H4977 0.951 . S
C4996 C4994 1.388 . S
C4996 C4997 1.366 . S
C4997 C4996 1.366 . S
C4997 C4998 1.414 . S
C4997 C5000 1.499 . S
C4998 H4978 0.950 . S
C4998 C4997 1.414 . S
C4998 C4999 1.374 . S
C4999 H4979 0.950 . S
C4999 C4995 1.385 . S
C4999 C4998 1.374 . S
C5000 C4997 1.499 . S
C5000 C5001 1.373 . S
C5000 C5002 1.389 . S
C5001 H4980 0.950 . S
C5001 C5000 1.373 . S
C5001 C5017 1.377 . S
C5002 C5000 1.389 . S
C5002 C5003 1.524 . S
C5002 C5016 1.377 . S
C5003 C5002 1.524 . S
C5003 C5004 1.397 . S
C5003 C5008 1.363 . S
C5004 H4981 0.950 . S
C5004 C5003 1.397 . S
C5004 C5005 1.334 . S
C5005 H4982 0.950 . S
C5005 C5004 1.334 . S
C5005 C5006 1.287 . S
C5006 C5005 1.287 . S
C5006 C5007 1.524 . S
C5006 H5025 0.913 . S
C5007 H4983 0.950 . S
C5007 C5006 1.524 . S
C5007 C5008 1.415 . S
C5008 H4984 0.950 . S
C5008 C5003 1.363 . S
C5008 C5007 1.415 . S
C5009 H4985 0.951 . S
C5009 C5010 1.366 . S
C5009 C5011 1.388 . S
C5010 C5009 1.366 . S
C5010 C5014 1.385 . S
C5011 H4986 0.951 . S
C5011 C5009 1.388 . S
C5011 C5012 1.366 . S
C5012 C5011 1.366 . S
C5012 C5013 1.414 . S
C5012 C5015 1.499 . S
C5013 H4987 0.950 . S
C5013 C5012 1.414 . S
C5013 C5014 1.374 . S
C5014 H4988 0.950 . S
C5014 C5010 1.385 . S
C5014 C5013 1.374 . S
C5015 C5012 1.499 . S
C5015 C5016 1.373 . S
C5015 C5017 1.389 . S
C5016 H4989 0.950 . S
C5016 C5002 1.377 . S
C5016 C5015 1.373 . S
C5017 C5001 1.377 . S
C5017 C5015 1.389 . S
C5017 C5018 1.524 . S
C5018 C5017 1.524 . S
C5018 C5019 1.397 . S
C5018 C5023 1.363 . S
C5019 H4990 0.950 . S
C5019 C5018 1.397 . S
C5019 C5020 1.334 . S
C5020 H4991 0.950 . S
C5020 C5019 1.334 . S
C5020 C5021 1.287 . S
C5021 C5020 1.287 . S
C5021 C5022 1.524 . S
C5021 H5024 0.999 . S
C5022 H4992 0.950 . S
C5022 C5021 1.524 . S
C5022 C5023 1.415 . S
C5023 H4993 0.950 . S
C5023 C5018 1.363 . S
C5023 C5022 1.415 . S
H5024 C5021 0.999 . S
H5025 C5006 0.913 . S
H5026 C5044 0.951 . S
H5027 C5046 0.951 . S
H5028 C5048 0.950 . S
H5029 C5049 0.950 . S
H5030 C5051 0.950 . S
H5031 C5054 0.950 . S
H5032 C5055 0.950 . S
H5033 C5057 0.950 . S
H5034 C5058 0.950 . S
H5035 C5059 0.951 . S
H5036 C5061 0.951 . S
H5037 C5063 0.950 . S
H5038 C5064 0.950 . S
H5039 C5066 0.950 . S
H5040 C5069 0.950 . S
H5041 C5070 0.950 . S
H5042 C5072 0.950 . S
H5043 C5073 0.950 . S
C5044 H5026 0.951 . S
C5044 C5045 1.366 . S
C5044 C5046 1.388 . S
C5045 C5044 1.366 . S
C5045 C5049 1.385 . S
C5046 H5027 0.951 . S
C5046 C5044 1.388 . S
C5046 C5047 1.366 . S
C5047 C5046 1.366 . S
C5047 C5048 1.414 . S
C5047 C5050 1.499 . S
C5048 H5028 0.950 . S
C5048 C5047 1.414 . S
C5048 C5049 1.374 . S
C5049 H5029 0.950 . S
C5049 C5045 1.385 . S
C5049 C5048 1.374 . S
C5050 C5047 1.499 . S
C5050 C5051 1.373 . S
C5050 C5052 1.389 . S
C5051 H5030 0.950 . S
C5051 C5050 1.373 . S
C5051 C5067 1.377 . S
C5052 C5050 1.389 . S
C5052 C5053 1.524 . S
C5052 C5066 1.377 . S
C5053 C5052 1.524 . S
C5053 C5054 1.397 . S
C5053 C5058 1.363 . S
C5054 H5031 0.950 . S
C5054 C5053 1.397 . S
C5054 C5055 1.334 . S
C5055 H5032 0.950 . S
C5055 C5054 1.334 . S
C5055 C5056 1.287 . S
C5056 C5055 1.287 . S
C5056 C5057 1.524 . S
C5056 H5075 0.913 . S
C5057 H5033 0.950 . S
C5057 C5056 1.524 . S
C5057 C5058 1.415 . S
C5058 H5034 0.950 . S
C5058 C5053 1.363 . S
C5058 C5057 1.415 . S
C5059 H5035 0.951 . S
C5059 C5060 1.366 . S
C5059 C5061 1.388 . S
C5060 C5059 1.366 . S
C5060 C5064 1.385 . S
C5061 H5036 0.951 . S
C5061 C5059 1.388 . S
C5061 C5062 1.366 . S
C5062 C5061 1.366 . S
C5062 C5063 1.414 . S
C5062 C5065 1.499 . S
C5063 H5037 0.950 . S
C5063 C5062 1.414 . S
C5063 C5064 1.374 . S
C5064 H5038 0.950 . S
C5064 C5060 1.385 . S
C5064 C5063 1.374 . S
C5065 C5062 1.499 . S
C5065 C5066 1.373 . S
C5065 C5067 1.389 . S
C5066 H5039 0.950 . S
C5066 C5052 1.377 . S
C5066 C5065 1.373 . S
C5067 C5051 1.377 . S
C5067 C5065 1.389 . S
C5067 C5068 1.524 . S
C5068 C5067 1.524 . S
C5068 C5069 1.397 . S
C5068 C5073 1.363 . S
C5069 H5040 0.950 . S
C5069 C5068 1.397 . S
C5069 C5070 1.334 . S
C5070 H5041 0.950 . S
C5070 C5069 1.334 . S
C5070 C5071 1.287 . S
C5071 C5070 1.287 . S
C5071 C5072 1.524 . S
C5071 H5074 0.999 . S
C5072 H5042 0.950 . S
C5072 C5071 1.524 . S
C5072 C5073 1.415 . S
C5073 H5043 0.950 . S
C5073 C5068 1.363 . S
C5073 C5072 1.415 . S
H5074 C5071 0.999 . S
H5075 C5056 0.913 . S
H5076 C5094 0.951 . S
H5077 C5096 0.951 . S
H5078 C5098 0.950 . S
H5079 C5099 0.950 . S
H5080 C5101 0.950 . S
H5081 C5104 0.950 . S
H5082 C5105 0.950 . S
H5083 C5107 0.950 . S
H5084 C5108 0.950 . S
H5085 C5109 0.951 . S
H5086 C5111 0.947 1_455 S
H5087 C5113 0.950 . S
H5088 C5114 0.950 . S
H5089 C5116 0.950 . S
H5090 C5119 0.950 . S
H5091 C5120 0.950 . S
H5092 C5122 0.950 . S
H5093 C5123 0.950 . S
C5094 H5076 0.951 . S
C5094 C5095 1.366 . S
C5094 C5096 1.388 . S
C5095 C5094 1.366 . S
C5095 C5099 1.385 . S
C5096 H5077 0.951 . S
C5096 C5094 1.388 . S
C5096 C5097 1.366 . S
C5097 C5096 1.366 . S
C5097 C5098 1.414 . S
C5097 C5100 1.499 . S
C5098 H5078 0.950 . S
C5098 C5097 1.414 . S
C5098 C5099 1.374 . S
C5099 H5079 0.950 . S
C5099 C5095 1.385 . S
C5099 C5098 1.374 . S
C5100 C5097 1.499 . S
C5100 C5101 1.373 . S
C5100 C5102 1.389 . S
C5101 H5080 0.950 . S
C5101 C5100 1.373 . S
C5101 C5117 1.377 . S
C5102 C5100 1.389 . S
C5102 C5103 1.524 . S
C5102 C5116 1.377 . S
C5103 C5102 1.524 . S
C5103 C5104 1.397 . S
C5103 C5108 1.363 . S
C5104 H5081 0.950 . S
C5104 C5103 1.397 . S
C5104 C5105 1.334 . S
C5105 H5082 0.950 . S
C5105 C5104 1.334 . S
C5105 C5106 1.287 . S
C5106 C5105 1.287 . S
C5106 C5107 1.524 . S
C5106 H5125 0.913 . S
C5107 H5083 0.950 . S
C5107 C5106 1.524 . S
C5107 C5108 1.415 . S
C5108 H5084 0.950 . S
C5108 C5103 1.363 . S
C5108 C5107 1.415 . S
C5109 H5085 0.951 . S
C5109 C5110 1.366 . S
C5109 C5111 1.386 1_455 S
C5110 C5109 1.366 . S
C5110 C5114 1.385 1_455 S
C5111 H5086 0.947 1_655 S
C5111 C5109 1.386 1_655 S
C5111 C5112 1.371 . S
C5112 C5111 1.371 . S
C5112 C5113 1.414 . S
C5112 C5115 1.499 . S
C5113 H5087 0.950 . S
C5113 C5112 1.414 . S
C5113 C5114 1.374 . S
C5114 H5088 0.950 . S
C5114 C5110 1.385 1_655 S
C5114 C5113 1.374 . S
C5115 C5112 1.499 . S
C5115 C5116 1.373 . S
C5115 C5117 1.389 . S
C5116 H5089 0.950 . S
C5116 C5102 1.377 . S
C5116 C5115 1.373 . S
C5117 C5101 1.377 . S
C5117 C5115 1.389 . S
C5117 C5118 1.524 . S
C5118 C5117 1.524 . S
C5118 C5119 1.397 . S
C5118 C5123 1.363 . S
C5119 H5090 0.950 . S
C5119 C5118 1.397 . S
C5119 C5120 1.334 . S
C5120 H5091 0.950 . S
C5120 C5119 1.334 . S
C5120 C5121 1.287 . S
C5121 C5120 1.287 . S
C5121 C5122 1.524 . S
C5121 H5124 0.999 . S
C5122 H5092 0.950 . S
C5122 C5121 1.524 . S
C5122 C5123 1.415 . S
C5123 H5093 0.950 . S
C5123 C5118 1.363 . S
C5123 C5122 1.415 . S
H5124 C5121 0.999 . S
H5125 C5106 0.913 . S
H5126 C5144 0.951 . S
H5127 C5146 0.951 . S
H5128 C5148 0.950 . S
H5129 C5149 0.950 . S
H5130 C5151 0.950 . S
H5131 C5154 0.950 . S
H5132 C5155 0.950 . S
H5133 C5157 0.950 . S
H5134 C5158 0.950 . S
H5135 C5159 0.951 . S
H5136 C5161 0.951 . S
H5137 C5163 0.950 . S
H5138 C5164 0.950 . S
H5139 C5166 0.950 . S
H5140 C5169 0.950 . S
H5141 C5170 0.950 . S
H5142 C5172 0.950 . S
H5143 C5173 0.950 . S
C5144 H5126 0.951 . S
C5144 C5145 1.366 . S
C5144 C5146 1.388 . S
C5145 C5144 1.366 . S
C5145 C5149 1.385 . S
C5146 H5127 0.951 . S
C5146 C5144 1.388 . S
C5146 C5147 1.366 . S
C5147 C5146 1.366 . S
C5147 C5148 1.414 . S
C5147 C5150 1.499 . S
C5148 H5128 0.950 . S
C5148 C5147 1.414 . S
C5148 C5149 1.374 . S
C5149 H5129 0.950 . S
C5149 C5145 1.385 . S
C5149 C5148 1.374 . S
C5150 C5147 1.499 . S
C5150 C5151 1.373 . S
C5150 C5152 1.389 . S
C5151 H5130 0.950 . S
C5151 C5150 1.373 . S
C5151 C5167 1.377 . S
C5152 C5150 1.389 . S
C5152 C5153 1.524 . S
C5152 C5166 1.377 . S
C5153 C5152 1.524 . S
C5153 C5154 1.397 . S
C5153 C5158 1.363 . S
C5154 H5131 0.950 . S
C5154 C5153 1.397 . S
C5154 C5155 1.334 . S
C5155 H5132 0.950 . S
C5155 C5154 1.334 . S
C5155 C5156 1.287 . S
C5156 C5155 1.287 . S
C5156 C5157 1.524 . S
C5156 H5175 0.913 . S
C5157 H5133 0.950 . S
C5157 C5156 1.524 . S
C5157 C5158 1.415 . S
C5158 H5134 0.950 . S
C5158 C5153 1.363 . S
C5158 C5157 1.415 . S
C5159 H5135 0.951 . S
C5159 C5160 1.366 . S
C5159 C5161 1.388 . S
C5160 C5159 1.366 . S
C5160 C5164 1.385 . S
C5161 H5136 0.951 . S
C5161 C5159 1.388 . S
C5161 C5162 1.366 . S
C5162 C5161 1.366 . S
C5162 C5163 1.414 . S
C5162 C5165 1.499 . S
C5163 H5137 0.950 . S
C5163 C5162 1.414 . S
C5163 C5164 1.374 . S
C5164 H5138 0.950 . S
C5164 C5160 1.385 . S
C5164 C5163 1.374 . S
C5165 C5162 1.499 . S
C5165 C5166 1.373 . S
C5165 C5167 1.389 . S
C5166 H5139 0.950 . S
C5166 C5152 1.377 . S
C5166 C5165 1.373 . S
C5167 C5151 1.377 . S
C5167 C5165 1.389 . S
C5167 C5168 1.524 . S
C5168 C5167 1.524 . S
C5168 C5169 1.397 . S
C5168 C5173 1.363 . S
C5169 H5140 0.950 . S
C5169 C5168 1.397 . S
C5169 C5170 1.334 . S
C5170 H5141 0.950 . S
C5170 C5169 1.334 . S
C5170 C5171 1.287 . S
C5171 C5170 1.287 . S
C5171 C5172 1.524 . S
C5171 H5174 0.999 . S
C5172 H5142 0.950 . S
C5172 C5171 1.524 . S
C5172 C5173 1.415 . S
C5173 H5143 0.950 . S
C5173 C5168 1.363 . S
C5173 C5172 1.415 . S
H5174 C5171 0.999 . S
H5175 C5156 0.913 . S
H5176 C5194 0.951 . S
H5177 C5196 0.951 . S
H5178 C5198 0.950 . S
H5179 C5199 0.950 . S
H5180 C5201 0.950 . S
H5181 C5204 0.950 . S
H5182 C5205 0.950 . S
H5183 C5207 0.950 . S
H5184 C5208 0.950 . S
H5185 C5209 0.951 . S
H5186 C5211 0.951 . S
H5187 C5213 0.950 . S
H5188 C5214 0.950 . S
H5189 C5216 0.950 . S
H5190 C5219 0.950 . S
H5191 C5220 0.950 . S
H5192 C5222 0.950 . S
H5193 C5223 0.950 . S
C5194 H5176 0.951 . S
C5194 C5195 1.366 . S
C5194 C5196 1.388 . S
C5195 C5194 1.366 . S
C5195 C5199 1.385 . S
C5196 H5177 0.951 . S
C5196 C5194 1.388 . S
C5196 C5197 1.366 . S
C5197 C5196 1.366 . S
C5197 C5198 1.414 . S
C5197 C5200 1.499 . S
C5198 H5178 0.950 . S
C5198 C5197 1.414 . S
C5198 C5199 1.374 . S
C5199 H5179 0.950 . S
C5199 C5195 1.385 . S
C5199 C5198 1.374 . S
C5200 C5197 1.499 . S
C5200 C5201 1.373 . S
C5200 C5202 1.389 . S
C5201 H5180 0.950 . S
C5201 C5200 1.373 . S
C5201 C5217 1.377 . S
C5202 C5200 1.389 . S
C5202 C5203 1.524 . S
C5202 C5216 1.377 . S
C5203 C5202 1.524 . S
C5203 C5204 1.397 . S
C5203 C5208 1.363 . S
C5204 H5181 0.950 . S
C5204 C5203 1.397 . S
C5204 C5205 1.334 . S
C5205 H5182 0.950 . S
C5205 C5204 1.334 . S
C5205 C5206 1.287 . S
C5206 C5205 1.287 . S
C5206 C5207 1.524 . S
C5206 H5225 0.913 . S
C5207 H5183 0.950 . S
C5207 C5206 1.524 . S
C5207 C5208 1.415 . S
C5208 H5184 0.950 . S
C5208 C5203 1.363 . S
C5208 C5207 1.415 . S
C5209 H5185 0.951 . S
C5209 C5210 1.366 . S
C5209 C5211 1.388 . S
C5210 C5209 1.366 . S
C5210 C5214 1.385 . S
C5211 H5186 0.951 . S
C5211 C5209 1.388 . S
C5211 C5212 1.366 . S
C5212 C5211 1.366 . S
C5212 C5213 1.414 . S
C5212 C5215 1.499 . S
C5213 H5187 0.950 . S
C5213 C5212 1.414 . S
C5213 C5214 1.374 . S
C5214 H5188 0.950 . S
C5214 C5210 1.385 . S
C5214 C5213 1.374 . S
C5215 C5212 1.499 . S
C5215 C5216 1.373 . S
C5215 C5217 1.389 . S
C5216 H5189 0.950 . S
C5216 C5202 1.377 . S
C5216 C5215 1.373 . S
C5217 C5201 1.377 . S
C5217 C5215 1.389 . S
C5217 C5218 1.524 . S
C5218 C5217 1.524 . S
C5218 C5219 1.397 . S
C5218 C5223 1.363 . S
C5219 H5190 0.950 . S
C5219 C5218 1.397 . S
C5219 C5220 1.334 . S
C5220 H5191 0.950 . S
C5220 C5219 1.334 . S
C5220 C5221 1.287 . S
C5221 C5220 1.287 . S
C5221 C5222 1.524 . S
C5221 H5224 0.999 . S
C5222 H5192 0.950 . S
C5222 C5221 1.524 . S
C5222 C5223 1.415 . S
C5223 H5193 0.950 . S
C5223 C5218 1.363 . S
C5223 C5222 1.415 . S
H5224 C5221 0.999 . S
H5225 C5206 0.913 . S
H5226 C5244 0.951 . S
H5227 C5246 0.951 . S
H5228 C5248 0.950 . S
H5229 C5249 0.950 . S
H5230 C5251 0.950 . S
H5231 C5254 0.950 . S
H5232 C5255 0.950 . S
H5233 C5257 0.950 . S
H5234 C5258 0.950 . S
H5235 C5259 0.951 . S
H5236 C5261 0.951 . S
H5237 C5263 0.950 . S
H5238 C5264 0.950 . S
H5239 C5266 0.950 . S
H5240 C5269 0.950 . S
H5241 C5270 0.950 . S
H5242 C5272 0.950 . S
H5243 C5273 0.950 . S
C5244 H5226 0.951 . S
C5244 C5245 1.366 . S
C5244 C5246 1.388 . S
C5245 C5244 1.366 . S
C5245 C5249 1.385 . S
C5246 H5227 0.951 . S
C5246 C5244 1.388 . S
C5246 C5247 1.366 . S
C5247 C5246 1.366 . S
C5247 C5248 1.414 . S
C5247 C5250 1.499 . S
C5248 H5228 0.950 . S
C5248 C5247 1.414 . S
C5248 C5249 1.374 . S
C5249 H5229 0.950 . S
C5249 C5245 1.385 . S
C5249 C5248 1.374 . S
C5250 C5247 1.499 . S
C5250 C5251 1.373 . S
C5250 C5252 1.389 . S
C5251 H5230 0.950 . S
C5251 C5250 1.373 . S
C5251 C5267 1.377 . S
C5252 C5250 1.389 . S
C5252 C5253 1.524 . S
C5252 C5266 1.377 . S
C5253 C5252 1.524 . S
C5253 C5254 1.397 . S
C5253 C5258 1.363 . S
C5254 H5231 0.950 . S
C5254 C5253 1.397 . S
C5254 C5255 1.334 . S
C5255 H5232 0.950 . S
C5255 C5254 1.334 . S
C5255 C5256 1.287 . S
C5256 C5255 1.287 . S
C5256 C5257 1.524 . S
C5256 H5275 0.913 . S
C5257 H5233 0.950 . S
C5257 C5256 1.524 . S
C5257 C5258 1.415 . S
C5258 H5234 0.950 . S
C5258 C5253 1.363 . S
C5258 C5257 1.415 . S
C5259 H5235 0.951 . S
C5259 C5260 1.366 . S
C5259 C5261 1.388 . S
C5260 C5259 1.366 . S
C5260 C5264 1.385 . S
C5261 H5236 0.951 . S
C5261 C5259 1.388 . S
C5261 C5262 1.366 . S
C5262 C5261 1.366 . S
C5262 C5263 1.414 . S
C5262 C5265 1.499 . S
C5263 H5237 0.950 . S
C5263 C5262 1.414 . S
C5263 C5264 1.374 . S
C5264 H5238 0.950 . S
C5264 C5260 1.385 . S
C5264 C5263 1.374 . S
C5265 C5262 1.499 . S
C5265 C5266 1.373 . S
C5265 C5267 1.389 . S
C5266 H5239 0.950 . S
C5266 C5252 1.377 . S
C5266 C5265 1.373 . S
C5267 C5251 1.377 . S
C5267 C5265 1.389 . S
C5267 C5268 1.524 . S
C5268 C5267 1.524 . S
C5268 C5269 1.397 . S
C5268 C5273 1.363 . S
C5269 H5240 0.950 . S
C5269 C5268 1.397 . S
C5269 C5270 1.334 . S
C5270 H5241 0.950 . S
C5270 C5269 1.334 . S
C5270 C5271 1.287 . S
C5271 C5270 1.287 . S
C5271 C5272 1.524 . S
C5271 H5274 0.999 . S
C5272 H5242 0.950 . S
C5272 C5271 1.524 . S
C5272 C5273 1.415 . S
C5273 H5243 0.950 . S
C5273 C5268 1.363 . S
C5273 C5272 1.415 . S
H5274 C5271 0.999 . S
H5275 C5256 0.913 . S
H5276 C5294 0.951 . S
H5277 C5296 0.951 . S
H5278 C5298 0.950 . S
H5279 C5299 0.950 . S
H5280 C5301 0.950 . S
H5281 C5304 0.950 . S
H5282 C5305 0.950 . S
H5283 C5307 0.950 . S
H5284 C5308 0.950 . S
H5285 C5309 0.951 . S
H5286 C5311 0.951 . S
H5287 C5313 0.950 1_455 S
H5288 C5314 0.950 . S
H5289 C5316 0.950 . S
H5290 C5319 0.950 . S
H5291 C5320 0.950 . S
H5292 C5322 0.950 . S
H5293 C5323 0.950 . S
C5294 H5276 0.951 . S
C5294 C5295 1.366 . S
C5294 C5296 1.388 . S
C5295 C5294 1.366 . S
C5295 C5299 1.385 . S
C5296 H5277 0.951 . S
C5296 C5294 1.388 . S
C5296 C5297 1.366 . S
C5297 C5296 1.366 . S
C5297 C5298 1.414 . S
C5297 C5300 1.499 . S
C5298 H5278 0.950 . S
C5298 C5297 1.414 . S
C5298 C5299 1.374 . S
C5299 H5279 0.950 . S
C5299 C5295 1.385 . S
C5299 C5298 1.374 . S
C5300 C5297 1.499 . S
C5300 C5301 1.373 . S
C5300 C5302 1.389 . S
C5301 H5280 0.950 . S
C5301 C5300 1.373 . S
C5301 C5317 1.377 . S
C5302 C5300 1.389 . S
C5302 C5303 1.524 . S
C5302 C5316 1.377 . S
C5303 C5302 1.524 . S
C5303 C5304 1.397 . S
C5303 C5308 1.363 . S
C5304 H5281 0.950 . S
C5304 C5303 1.397 . S
C5304 C5305 1.334 . S
C5305 H5282 0.950 . S
C5305 C5304 1.334 . S
C5305 C5306 1.287 . S
C5306 C5305 1.287 . S
C5306 C5307 1.524 . S
C5306 H5325 0.913 . S
C5307 H5283 0.950 . S
C5307 C5306 1.524 . S
C5307 C5308 1.415 . S
C5308 H5284 0.950 . S
C5308 C5303 1.363 . S
C5308 C5307 1.415 . S
C5309 H5285 0.951 . S
C5309 C5310 1.366 . S
C5309 C5311 1.388 . S
C5310 C5309 1.366 . S
C5310 C5314 1.385 1_655 S
C5311 H5286 0.951 . S
C5311 C5309 1.388 . S
C5311 C5312 1.366 . S
C5312 C5311 1.366 . S
C5312 C5313 1.414 . S
C5312 C5315 1.499 . S
C5313 H5287 0.950 1_655 S
C5313 C5312 1.414 . S
C5313 C5314 1.374 1_655 S
C5314 H5288 0.950 . S
C5314 C5310 1.385 1_455 S
C5314 C5313 1.374 1_455 S
C5315 C5312 1.499 . S
C5315 C5316 1.373 . S
C5315 C5317 1.389 . S
C5316 H5289 0.950 . S
C5316 C5302 1.377 . S
C5316 C5315 1.373 . S
C5317 C5301 1.377 . S
C5317 C5315 1.389 . S
C5317 C5318 1.524 . S
C5318 C5317 1.524 . S
C5318 C5319 1.397 . S
C5318 C5323 1.363 . S
C5319 H5290 0.950 . S
C5319 C5318 1.397 . S
C5319 C5320 1.334 . S
C5320 H5291 0.950 . S
C5320 C5319 1.334 . S
C5320 C5321 1.287 . S
C5321 C5320 1.287 . S
C5321 C5322 1.524 . S
C5321 H5324 0.999 . S
C5322 H5292 0.950 . S
C5322 C5321 1.524 . S
C5322 C5323 1.415 . S
C5323 H5293 0.950 . S
C5323 C5318 1.363 . S
C5323 C5322 1.415 . S
H5324 C5321 0.999 . S
H5325 C5306 0.913 . S
H5326 C5344 0.951 . S
H5327 C5346 0.951 . S
H5328 C5348 0.950 . S
H5329 C5349 0.950 . S
H5330 C5351 0.950 . S
H5331 C5354 0.950 . S
H5332 C5355 0.950 . S
H5333 C5357 0.950 . S
H5334 C5358 0.950 . S
H5335 C5359 0.951 . S
H5336 C5361 0.951 . S
H5337 C5363 0.950 . S
H5338 C5364 0.950 . S
H5339 C5366 0.950 . S
H5340 C5369 0.950 . S
H5341 C5370 0.950 . S
H5342 C5372 0.950 . S
H5343 C5373 0.950 . S
C5344 H5326 0.951 . S
C5344 C5345 1.366 . S
C5344 C5346 1.388 . S
C5345 C5344 1.366 . S
C5345 C5349 1.385 . S
C5346 H5327 0.951 . S
C5346 C5344 1.388 . S
C5346 C5347 1.366 . S
C5347 C5346 1.366 . S
C5347 C5348 1.414 . S
C5347 C5350 1.499 . S
C5348 H5328 0.950 . S
C5348 C5347 1.414 . S
C5348 C5349 1.374 . S
C5349 H5329 0.950 . S
C5349 C5345 1.385 . S
C5349 C5348 1.374 . S
C5350 C5347 1.499 . S
C5350 C5351 1.373 . S
C5350 C5352 1.389 . S
C5351 H5330 0.950 . S
C5351 C5350 1.373 . S
C5351 C5367 1.377 . S
C5352 C5350 1.389 . S
C5352 C5353 1.524 . S
C5352 C5366 1.377 . S
C5353 C5352 1.524 . S
C5353 C5354 1.397 . S
C5353 C5358 1.363 . S
C5354 H5331 0.950 . S
C5354 C5353 1.397 . S
C5354 C5355 1.334 . S
C5355 H5332 0.950 . S
C5355 C5354 1.334 . S
C5355 C5356 1.287 . S
C5356 C5355 1.287 . S
C5356 C5357 1.524 . S
C5356 H5375 0.913 . S
C5357 H5333 0.950 . S
C5357 C5356 1.524 . S
C5357 C5358 1.415 . S
C5358 H5334 0.950 . S
C5358 C5353 1.363 . S
C5358 C5357 1.415 . S
C5359 H5335 0.951 . S
C5359 C5360 1.366 . S
C5359 C5361 1.388 . S
C5360 C5359 1.366 . S
C5360 C5364 1.385 . S
C5361 H5336 0.951 . S
C5361 C5359 1.388 . S
C5361 C5362 1.366 . S
C5362 C5361 1.366 . S
C5362 C5363 1.414 . S
C5362 C5365 1.499 . S
C5363 H5337 0.950 . S
C5363 C5362 1.414 . S
C5363 C5364 1.374 . S
C5364 H5338 0.950 . S
C5364 C5360 1.385 . S
C5364 C5363 1.374 . S
C5365 C5362 1.499 . S
C5365 C5366 1.373 . S
C5365 C5367 1.389 . S
C5366 H5339 0.950 . S
C5366 C5352 1.377 . S
C5366 C5365 1.373 . S
C5367 C5351 1.377 . S
C5367 C5365 1.389 . S
C5367 C5368 1.524 . S
C5368 C5367 1.524 . S
C5368 C5369 1.397 . S
C5368 C5373 1.363 . S
C5369 H5340 0.950 . S
C5369 C5368 1.397 . S
C5369 C5370 1.334 . S
C5370 H5341 0.950 . S
C5370 C5369 1.334 . S
C5370 C5371 1.287 . S
C5371 C5370 1.287 . S
C5371 C5372 1.524 . S
C5371 H5374 0.999 . S
C5372 H5342 0.950 . S
C5372 C5371 1.524 . S
C5372 C5373 1.415 . S
C5373 H5343 0.950 . S
C5373 C5368 1.363 . S
C5373 C5372 1.415 . S
H5374 C5371 0.999 . S
H5375 C5356 0.913 . S
H5376 C5394 0.951 . S
H5377 C5396 0.951 . S
H5378 C5398 0.950 . S
H5379 C5399 0.950 . S
H5380 C5401 0.950 . S
H5381 C5404 0.950 . S
H5382 C5405 0.950 . S
H5383 C5407 0.950 . S
H5384 C5408 0.950 . S
H5385 C5409 0.951 . S
H5386 C5411 0.951 . S
H5387 C5413 0.950 . S
H5388 C5414 0.950 . S
H5389 C5416 0.950 . S
H5390 C5419 0.950 . S
H5391 C5420 0.950 . S
H5392 C5422 0.950 . S
H5393 C5423 0.950 . S
C5394 H5376 0.951 . S
C5394 C5395 1.366 . S
C5394 C5396 1.388 . S
C5395 C5394 1.366 . S
C5395 C5399 1.385 . S
C5396 H5377 0.951 . S
C5396 C5394 1.388 . S
C5396 C5397 1.366 . S
C5397 C5396 1.366 . S
C5397 C5398 1.414 . S
C5397 C5400 1.499 . S
C5398 H5378 0.950 . S
C5398 C5397 1.414 . S
C5398 C5399 1.374 . S
C5399 H5379 0.950 . S
C5399 C5395 1.385 . S
C5399 C5398 1.374 . S
C5400 C5397 1.499 . S
C5400 C5401 1.373 . S
C5400 C5402 1.389 . S
C5401 H5380 0.950 . S
C5401 C5400 1.373 . S
C5401 C5417 1.377 . S
C5402 C5400 1.389 . S
C5402 C5403 1.524 . S
C5402 C5416 1.377 . S
C5403 C5402 1.524 . S
C5403 C5404 1.397 . S
C5403 C5408 1.363 . S
C5404 H5381 0.950 . S
C5404 C5403 1.397 . S
C5404 C5405 1.334 . S
C5405 H5382 0.950 . S
C5405 C5404 1.334 . S
C5405 C5406 1.287 . S
C5406 C5405 1.287 . S
C5406 C5407 1.524 . S
C5406 H5425 0.913 . S
C5407 H5383 0.950 . S
C5407 C5406 1.524 . S
C5407 C5408 1.415 . S
C5408 H5384 0.950 . S
C5408 C5403 1.363 . S
C5408 C5407 1.415 . S
C5409 H5385 0.951 . S
C5409 C5410 1.366 . S
C5409 C5411 1.388 . S
C5410 C5409 1.366 . S
C5410 C5414 1.385 . S
C5411 H5386 0.951 . S
C5411 C5409 1.388 . S
C5411 C5412 1.366 . S
C5412 C5411 1.366 . S
C5412 C5413 1.414 . S
C5412 C5415 1.499 . S
C5413 H5387 0.950 . S
C5413 C5412 1.414 . S
C5413 C5414 1.374 . S
C5414 H5388 0.950 . S
C5414 C5410 1.385 . S
C5414 C5413 1.374 . S
C5415 C5412 1.499 . S
C5415 C5416 1.373 . S
C5415 C5417 1.389 . S
C5416 H5389 0.950 . S
C5416 C5402 1.377 . S
C5416 C5415 1.373 . S
C5417 C5401 1.377 . S
C5417 C5415 1.389 . S
C5417 C5418 1.524 . S
C5418 C5417 1.524 . S
C5418 C5419 1.397 . S
C5418 C5423 1.363 . S
C5419 H5390 0.950 . S
C5419 C5418 1.397 . S
C5419 C5420 1.334 . S
C5420 H5391 0.950 . S
C5420 C5419 1.334 . S
C5420 C5421 1.287 . S
C5421 C5420 1.287 . S
C5421 C5422 1.524 . S
C5421 H5424 0.999 . S
C5422 H5392 0.950 . S
C5422 C5421 1.524 . S
C5422 C5423 1.415 . S
C5423 H5393 0.950 . S
C5423 C5418 1.363 . S
C5423 C5422 1.415 . S
H5424 C5421 0.999 . S
H5425 C5406 0.913 . S
H5426 C5444 0.951 . S
H5427 C5446 0.951 . S
H5428 C5448 0.950 . S
H5429 C5449 0.950 . S
H5430 C5451 0.950 . S
H5431 C5454 0.950 . S
H5432 C5455 0.950 . S
H5433 C5457 0.950 . S
H5434 C5458 0.950 . S
H5435 C5459 0.951 1_545 S
H5436 C5461 0.951 . S
H5437 C5463 0.950 . S
H5438 C5464 0.950 . S
H5439 C5466 0.950 . S
H5440 C5469 0.950 . S
H5441 C5470 0.950 . S
H5442 C5472 0.950 . S
H5443 C5473 0.950 . S
C5444 H5426 0.951 . S
C5444 C5445 1.366 . S
C5444 C5446 1.388 . S
C5445 C5444 1.366 . S
C5445 C5449 1.385 . S
C5446 H5427 0.951 . S
C5446 C5444 1.388 . S
C5446 C5447 1.366 . S
C5447 C5446 1.366 . S
C5447 C5448 1.414 . S
C5447 C5450 1.499 . S
C5448 H5428 0.950 . S
C5448 C5447 1.414 . S
C5448 C5449 1.374 . S
C5449 H5429 0.950 . S
C5449 C5445 1.385 . S
C5449 C5448 1.374 . S
C5450 C5447 1.499 . S
C5450 C5451 1.373 . S
C5450 C5452 1.389 . S
C5451 H5430 0.950 . S
C5451 C5450 1.373 . S
C5451 C5467 1.377 . S
C5452 C5450 1.389 . S
C5452 C5453 1.524 . S
C5452 C5466 1.377 . S
C5453 C5452 1.524 . S
C5453 C5454 1.397 . S
C5453 C5458 1.363 . S
C5454 H5431 0.950 . S
C5454 C5453 1.397 . S
C5454 C5455 1.334 . S
C5455 H5432 0.950 . S
C5455 C5454 1.334 . S
C5455 C5456 1.287 . S
C5456 C5455 1.287 . S
C5456 C5457 1.524 . S
C5456 H5475 0.913 . S
C5457 H5433 0.950 . S
C5457 C5456 1.524 . S
C5457 C5458 1.415 . S
C5458 H5434 0.950 . S
C5458 C5453 1.363 . S
C5458 C5457 1.415 . S
C5459 H5435 0.951 1_565 S
C5459 C5460 1.366 . S
C5459 C5461 1.388 . S
C5460 C5459 1.366 . S
C5460 C5464 1.385 . S
C5461 H5436 0.951 . S
C5461 C5459 1.388 . S
C5461 C5462 1.366 . S
C5462 C5461 1.366 . S
C5462 C5463 1.414 . S
C5462 C5465 1.499 . S
C5463 H5437 0.950 . S
C5463 C5462 1.414 . S
C5463 C5464 1.374 . S
C5464 H5438 0.950 . S
C5464 C5460 1.385 . S
C5464 C5463 1.374 . S
C5465 C5462 1.499 . S
C5465 C5466 1.373 . S
C5465 C5467 1.389 . S
C5466 H5439 0.950 . S
C5466 C5452 1.377 . S
C5466 C5465 1.373 . S
C5467 C5451 1.377 . S
C5467 C5465 1.389 . S
C5467 C5468 1.524 . S
C5468 C5467 1.524 . S
C5468 C5469 1.397 . S
C5468 C5473 1.363 . S
C5469 H5440 0.950 . S
C5469 C5468 1.397 . S
C5469 C5470 1.334 . S
C5470 H5441 0.950 . S
C5470 C5469 1.334 . S
C5470 C5471 1.287 . S
C5471 C5470 1.287 . S
C5471 C5472 1.524 1_565 S
C5471 H5474 0.999 1_565 S
C5472 H5442 0.950 . S
C5472 C5471 1.524 1_545 S
C5472 C5473 1.415 1_545 S
C5473 H5443 0.950 . S
C5473 C5468 1.363 . S
C5473 C5472 1.415 1_565 S
H5474 C5471 0.999 1_545 S
H5475 C5456 0.913 . S
H5476 C5494 0.951 . S
H5477 C5496 0.951 . S
H5478 C5498 0.950 . S
H5479 C5499 0.950 . S
H5480 C5501 0.950 . S
H5481 C5504 0.950 . S
H5482 C5505 0.950 . S
H5483 C5507 0.950 . S
H5484 C5508 0.950 . S
H5485 C5509 0.951 . S
H5486 C5511 0.951 . S
H5487 C5513 0.950 . S
H5488 C5514 0.950 . S
H5489 C5516 0.950 . S
H5490 C5519 0.950 . S
H5491 C5520 0.950 . S
H5492 C5522 0.950 . S
H5493 C5523 0.950 . S
C5494 H5476 0.951 . S
C5494 C5495 1.366 . S
C5494 C5496 1.388 . S
C5495 C5494 1.366 . S
C5495 C5499 1.385 . S
C5496 H5477 0.951 . S
C5496 C5494 1.388 . S
C5496 C5497 1.366 . S
C5497 C5496 1.366 . S
C5497 C5498 1.414 . S
C5497 C5500 1.499 . S
C5498 H5478 0.950 . S
C5498 C5497 1.414 . S
C5498 C5499 1.374 . S
C5499 H5479 0.950 . S
C5499 C5495 1.385 . S
C5499 C5498 1.374 . S
C5500 C5497 1.499 . S
C5500 C5501 1.373 . S
C5500 C5502 1.389 . S
C5501 H5480 0.950 . S
C5501 C5500 1.373 . S
C5501 C5517 1.377 . S
C5502 C5500 1.389 . S
C5502 C5503 1.524 . S
C5502 C5516 1.377 . S
C5503 C5502 1.524 . S
C5503 C5504 1.397 . S
C5503 C5508 1.363 . S
C5504 H5481 0.950 . S
C5504 C5503 1.397 . S
C5504 C5505 1.334 . S
C5505 H5482 0.950 . S
C5505 C5504 1.334 . S
C5505 C5506 1.287 . S
C5506 C5505 1.287 . S
C5506 C5507 1.524 . S
C5506 H5525 0.913 . S
C5507 H5483 0.950 . S
C5507 C5506 1.524 . S
C5507 C5508 1.415 . S
C5508 H5484 0.950 . S
C5508 C5503 1.363 . S
C5508 C5507 1.415 . S
C5509 H5485 0.951 . S
C5509 C5510 1.366 . S
C5509 C5511 1.388 . S
C5510 C5509 1.366 . S
C5510 C5514 1.385 . S
C5511 H5486 0.951 . S
C5511 C5509 1.388 . S
C5511 C5512 1.366 . S
C5512 C5511 1.366 . S
C5512 C5513 1.414 . S
C5512 C5515 1.499 . S
C5513 H5487 0.950 . S
C5513 C5512 1.414 . S
C5513 C5514 1.374 . S
C5514 H5488 0.950 . S
C5514 C5510 1.385 . S
C5514 C5513 1.374 . S
C5515 C5512 1.499 . S
C5515 C5516 1.373 . S
C5515 C5517 1.389 . S
C5516 H5489 0.950 . S
C5516 C5502 1.377 . S
C5516 C5515 1.373 . S
C5517 C5501 1.377 . S
C5517 C5515 1.389 . S
C5517 C5518 1.524 . S
C5518 C5517 1.524 . S
C5518 C5519 1.397 . S
C5518 C5523 1.363 . S
C5519 H5490 0.950 . S
C5519 C5518 1.397 . S
C5519 C5520 1.334 . S
C5520 H5491 0.950 . S
C5520 C5519 1.334 . S
C5520 C5521 1.287 . S
C5521 C5520 1.287 . S
C5521 C5522 1.524 . S
C5521 H5524 0.999 . S
C5522 H5492 0.950 . S
C5522 C5521 1.524 . S
C5522 C5523 1.415 . S
C5523 H5493 0.950 . S
C5523 C5518 1.363 . S
C5523 C5522 1.415 . S
H5524 C5521 0.999 . S
H5525 C5506 0.913 . S
H5526 C5544 0.951 . S
H5527 C5546 0.951 . S
H5528 C5548 0.950 . S
H5529 C5549 0.950 . S
H5530 C5551 0.950 . S
H5531 C5554 0.950 . S
H5532 C5555 0.950 . S
H5533 C5557 0.950 . S
H5534 C5558 0.950 . S
H5535 C5559 0.951 . S
H5536 C5561 0.951 . S
H5537 C5563 0.950 . S
H5538 C5564 0.950 . S
H5539 C5566 0.950 . S
H5540 C5569 0.950 1_556 S
H5541 C5570 0.950 . S
H5542 C5572 0.950 . S
H5543 C5573 0.950 . S
C5544 H5526 0.951 . S
C5544 C5545 1.366 . S
C5544 C5546 1.388 . S
C5545 C5544 1.366 . S
C5545 C5549 1.385 . S
C5546 H5527 0.951 . S
C5546 C5544 1.388 . S
C5546 C5547 1.366 . S
C5547 C5546 1.366 . S
C5547 C5548 1.414 . S
C5547 C5550 1.499 . S
C5548 H5528 0.950 . S
C5548 C5547 1.414 . S
C5548 C5549 1.374 . S
C5549 H5529 0.950 . S
C5549 C5545 1.385 . S
C5549 C5548 1.374 . S
C5550 C5547 1.499 . S
C5550 C5551 1.373 . S
C5550 C5552 1.389 . S
C5551 H5530 0.950 . S
C5551 C5550 1.373 . S
C5551 C5567 1.377 . S
C5552 C5550 1.389 . S
C5552 C5553 1.524 . S
C5552 C5566 1.377 . S
C5553 C5552 1.524 . S
C5553 C5554 1.397 . S
C5553 C5558 1.363 . S
C5554 H5531 0.950 . S
C5554 C5553 1.397 . S
C5554 C5555 1.334 . S
C5555 H5532 0.950 . S
C5555 C5554 1.334 . S
C5555 C5556 1.287 . S
C5556 C5555 1.287 . S
C5556 C5557 1.524 . S
C5556 H5575 0.913 . S
C5557 H5533 0.950 . S
C5557 C5556 1.524 . S
C5557 C5558 1.415 . S
C5558 H5534 0.950 . S
C5558 C5553 1.363 . S
C5558 C5557 1.415 . S
C5559 H5535 0.951 . S
C5559 C5560 1.366 . S
C5559 C5561 1.388 . S
C5560 C5559 1.366 . S
C5560 C5564 1.385 . S
C5561 H5536 0.951 . S
C5561 C5559 1.388 . S
C5561 C5562 1.366 . S
C5562 C5561 1.366 . S
C5562 C5563 1.414 . S
C5562 C5565 1.499 . S
C5563 H5537 0.950 . S
C5563 C5562 1.414 . S
C5563 C5564 1.374 . S
C5564 H5538 0.950 . S
C5564 C5560 1.385 . S
C5564 C5563 1.374 . S
C5565 C5562 1.499 . S
C5565 C5566 1.373 . S
C5565 C5567 1.389 . S
C5566 H5539 0.950 . S
C5566 C5552 1.377 . S
C5566 C5565 1.373 . S
C5567 C5551 1.377 . S
C5567 C5565 1.389 . S
C5567 C5568 1.524 . S
C5568 C5567 1.524 . S
C5568 C5569 1.397 . S
C5568 C5573 1.363 . S
C5569 H5540 0.950 1_554 S
C5569 C5568 1.397 . S
C5569 C5570 1.334 1_554 S
C5570 H5541 0.950 . S
C5570 C5569 1.334 1_556 S
C5570 C5571 1.287 . S
C5571 C5570 1.287 . S
C5571 C5572 1.524 1_556 S
C5571 H5574 0.999 . S
C5572 H5542 0.950 . S
C5572 C5571 1.524 1_554 S
C5572 C5573 1.415 . S
C5573 H5543 0.950 . S
C5573 C5568 1.363 . S
C5573 C5572 1.415 . S
H5574 C5571 0.999 . S
H5575 C5556 0.913 . S
H5576 C5594 0.951 . S
H5577 C5596 0.951 . S
H5578 C5598 0.950 . S
H5579 C5599 0.950 . S
H5580 C5601 0.950 . S
H5581 C5604 0.950 . S
H5582 C5605 0.950 . S
H5583 C5607 0.950 . S
H5584 C5608 0.950 . S
H5585 C5609 0.951 . S
H5586 C5611 0.951 . S
H5587 C5613 0.950 . S
H5588 C5614 0.950 . S
H5589 C5616 0.950 . S
H5590 C5619 0.950 . S
H5591 C5620 0.950 . S
H5592 C5622 0.950 . S
H5593 C5623 0.950 . S
C5594 H5576 0.951 . S
C5594 C5595 1.366 . S
C5594 C5596 1.388 . S
C5595 C5594 1.366 . S
C5595 C5599 1.385 . S
C5596 H5577 0.951 . S
C5596 C5594 1.388 . S
C5596 C5597 1.366 . S
C5597 C5596 1.366 . S
C5597 C5598 1.414 . S
C5597 C5600 1.499 . S
C5598 H5578 0.950 . S
C5598 C5597 1.414 . S
C5598 C5599 1.374 . S
C5599 H5579 0.950 . S
C5599 C5595 1.385 . S
C5599 C5598 1.374 . S
C5600 C5597 1.499 . S
C5600 C5601 1.373 . S
C5600 C5602 1.389 . S
C5601 H5580 0.950 . S
C5601 C5600 1.373 . S
C5601 C5617 1.377 . S
C5602 C5600 1.389 . S
C5602 C5603 1.524 . S
C5602 C5616 1.377 . S
C5603 C5602 1.524 . S
C5603 C5604 1.397 . S
C5603 C5608 1.363 . S
C5604 H5581 0.950 . S
C5604 C5603 1.397 . S
C5604 C5605 1.334 . S
C5605 H5582 0.950 . S
C5605 C5604 1.334 . S
C5605 C5606 1.287 . S
C5606 C5605 1.287 . S
C5606 C5607 1.524 . S
C5606 H5625 0.913 . S
C5607 H5583 0.950 . S
C5607 C5606 1.524 . S
C5607 C5608 1.415 . S
C5608 H5584 0.950 . S
C5608 C5603 1.363 . S
C5608 C5607 1.415 . S
C5609 H5585 0.951 . S
C5609 C5610 1.366 . S
C5609 C5611 1.388 . S
C5610 C5609 1.366 . S
C5610 C5614 1.385 . S
C5611 H5586 0.951 . S
C5611 C5609 1.388 . S
C5611 C5612 1.366 . S
C5612 C5611 1.366 . S
C5612 C5613 1.414 . S
C5612 C5615 1.499 . S
C5613 H5587 0.950 . S
C5613 C5612 1.414 . S
C5613 C5614 1.374 . S
C5614 H5588 0.950 . S
C5614 C5610 1.385 . S
C5614 C5613 1.374 . S
C5615 C5612 1.499 . S
C5615 C5616 1.373 . S
C5615 C5617 1.389 . S
C5616 H5589 0.950 . S
C5616 C5602 1.377 . S
C5616 C5615 1.373 . S
C5617 C5601 1.377 . S
C5617 C5615 1.389 . S
C5617 C5618 1.524 . S
C5618 C5617 1.524 . S
C5618 C5619 1.397 . S
C5618 C5623 1.363 . S
C5619 H5590 0.950 . S
C5619 C5618 1.397 . S
C5619 C5620 1.334 . S
C5620 H5591 0.950 . S
C5620 C5619 1.334 . S
C5620 C5621 1.287 . S
C5621 C5620 1.287 . S
C5621 C5622 1.524 . S
C5621 H5624 0.999 . S
C5622 H5592 0.950 . S
C5622 C5621 1.524 . S
C5622 C5623 1.415 . S
C5623 H5593 0.950 . S
C5623 C5618 1.363 . S
C5623 C5622 1.415 . S
H5624 C5621 0.999 . S
H5625 C5606 0.913 . S
H5626 C5644 0.951 . S
H5627 C5646 0.951 . S
H5628 C5648 0.950 . S
H5629 C5649 0.950 . S
H5630 C5651 0.959 . S
H5631 C5654 0.950 . S
H5632 C5655 0.950 . S
H5633 C5657 0.950 . S
H5634 C5658 0.950 . S
H5635 C5659 0.951 . S
H5636 C5661 0.950 . S
H5637 C5663 0.950 . S
H5638 C5664 0.950 . S
H5639 C5666 0.950 . S
H5640 C5669 0.950 . S
H5641 C5670 0.950 . S
H5642 C5672 0.950 . S
H5643 C5673 0.950 . S
C5644 H5626 0.951 . S
C5644 C5645 1.366 . S
C5644 C5646 1.388 . S
C5645 C5644 1.366 . S
C5645 C5649 1.385 . S
C5646 H5627 0.951 . S
C5646 C5644 1.388 . S
C5646 C5647 1.366 . S
C5647 C5646 1.366 . S
C5647 C5648 1.414 . S
C5647 C5650 1.499 . S
C5648 H5628 0.950 . S
C5648 C5647 1.414 . S
C5648 C5649 1.374 . S
C5649 H5629 0.950 . S
C5649 C5645 1.385 . S
C5649 C5648 1.374 . S
C5650 C5647 1.499 . S
C5650 C5651 1.363 1_554 S
C5650 C5652 1.389 . S
C5651 H5630 0.959 . S
C5651 C5650 1.363 1_556 S
C5651 C5667 1.378 . S
C5652 C5650 1.389 . S
C5652 C5653 1.524 . S
C5652 C5666 1.377 . S
C5653 C5652 1.524 . S
C5653 C5654 1.397 . S
C5653 C5658 1.363 . S
C5654 H5631 0.950 . S
C5654 C5653 1.397 . S
C5654 C5655 1.334 . S
C5655 H5632 0.950 . S
C5655 C5654 1.334 . S
C5655 C5656 1.287 . S
C5656 C5655 1.287 . S
C5656 C5657 1.524 . S
C5656 H5675 0.913 . S
C5657 H5633 0.950 . S
C5657 C5656 1.524 . S
C5657 C5658 1.415 . S
C5658 H5634 0.950 . S
C5658 C5653 1.363 . S
C5658 C5657 1.415 . S
C5659 H5635 0.951 . S
C5659 C5660 1.368 1_556 S
C5659 C5661 1.387 1_556 S
C5660 C5659 1.368 1_554 S
C5660 C5664 1.385 . S
C5661 H5636 0.950 . S
C5661 C5659 1.387 1_554 S
C5661 C5662 1.366 . S
C5662 C5661 1.366 . S
C5662 C5663 1.414 . S
C5662 C5665 1.499 . S
C5663 H5637 0.950 . S
C5663 C5662 1.414 . S
C5663 C5664 1.374 . S
C5664 H5638 0.950 . S
C5664 C5660 1.385 . S
C5664 C5663 1.374 . S
C5665 C5662 1.499 . S
C5665 C5666 1.373 . S
C5665 C5667 1.389 1_554 S
C5666 H5639 0.950 . S
C5666 C5652 1.377 . S
C5666 C5665 1.373 . S
C5667 C5651 1.378 . S
C5667 C5665 1.389 1_556 S
C5667 C5668 1.524 . S
C5668 C5667 1.524 . S
C5668 C5669 1.397 . S
C5668 C5673 1.363 . S
C5669 H5640 0.950 . S
C5669 C5668 1.397 . S
C5669 C5670 1.334 . S
C5670 H5641 0.950 . S
C5670 C5669 1.334 . S
C5670 C5671 1.287 . S
C5671 C5670 1.287 . S
C5671 C5672 1.524 . S
C5671 H5674 0.999 . S
C5672 H5642 0.950 . S
C5672 C5671 1.524 . S
C5672 C5673 1.415 . S
C5673 H5643 0.950 . S
C5673 C5668 1.363 . S
C5673 C5672 1.415 . S
H5674 C5671 0.999 . S
H5675 C5656 0.913 . S
H5676 C5694 0.951 . S
H5677 C5696 0.951 . S
H5678 C5698 0.950 . S
H5679 C5699 0.950 . S
H5680 C5701 0.950 . S
H5681 C5704 0.950 . S
H5682 C5705 0.950 . S
H5683 C5707 0.950 . S
H5684 C5708 0.950 . S
H5685 C5709 0.951 . S
H5686 C5711 0.951 . S
H5687 C5713 0.950 . S
H5688 C5714 0.950 . S
H5689 C5716 0.950 . S
H5690 C5719 0.950 . S
H5691 C5720 0.950 . S
H5692 C5722 0.950 . S
H5693 C5723 0.950 . S
C5694 H5676 0.951 . S
C5694 C5695 1.366 . S
C5694 C5696 1.388 . S
C5695 C5694 1.366 . S
C5695 C5699 1.385 . S
C5696 H5677 0.951 . S
C5696 C5694 1.388 . S
C5696 C5697 1.366 . S
C5697 C5696 1.366 . S
C5697 C5698 1.414 . S
C5697 C5700 1.499 . S
C5698 H5678 0.950 . S
C5698 C5697 1.414 . S
C5698 C5699 1.374 . S
C5699 H5679 0.950 . S
C5699 C5695 1.385 . S
C5699 C5698 1.374 . S
C5700 C5697 1.499 . S
C5700 C5701 1.373 . S
C5700 C5702 1.389 . S
C5701 H5680 0.950 . S
C5701 C5700 1.373 . S
C5701 C5717 1.377 . S
C5702 C5700 1.389 . S
C5702 C5703 1.524 . S
C5702 C5716 1.377 . S
C5703 C5702 1.524 . S
C5703 C5704 1.397 . S
C5703 C5708 1.363 . S
C5704 H5681 0.950 . S
C5704 C5703 1.397 . S
C5704 C5705 1.334 . S
C5705 H5682 0.950 . S
C5705 C5704 1.334 . S
C5705 C5706 1.287 . S
C5706 C5705 1.287 . S
C5706 C5707 1.524 . S
C5706 H5725 0.913 . S
C5707 H5683 0.950 . S
C5707 C5706 1.524 . S
C5707 C5708 1.415 . S
C5708 H5684 0.950 . S
C5708 C5703 1.363 . S
C5708 C5707 1.415 . S
C5709 H5685 0.951 . S
C5709 C5710 1.366 . S
C5709 C5711 1.388 . S
C5710 C5709 1.366 . S
C5710 C5714 1.385 . S
C5711 H5686 0.951 . S
C5711 C5709 1.388 . S
C5711 C5712 1.366 . S
C5712 C5711 1.366 . S
C5712 C5713 1.414 . S
C5712 C5715 1.499 . S
C5713 H5687 0.950 . S
C5713 C5712 1.414 . S
C5713 C5714 1.374 . S
C5714 H5688 0.950 . S
C5714 C5710 1.385 . S
C5714 C5713 1.374 . S
C5715 C5712 1.499 . S
C5715 C5716 1.373 . S
C5715 C5717 1.389 . S
C5716 H5689 0.950 . S
C5716 C5702 1.377 . S
C5716 C5715 1.373 . S
C5717 C5701 1.377 . S
C5717 C5715 1.389 . S
C5717 C5718 1.524 . S
C5718 C5717 1.524 . S
C5718 C5719 1.397 . S
C5718 C5723 1.363 . S
C5719 H5690 0.950 . S
C5719 C5718 1.397 . S
C5719 C5720 1.334 . S
C5720 H5691 0.950 . S
C5720 C5719 1.334 . S
C5720 C5721 1.287 . S
C5721 C5720 1.287 . S
C5721 C5722 1.524 . S
C5721 H5724 0.999 . S
C5722 H5692 0.950 . S
C5722 C5721 1.524 . S
C5722 C5723 1.415 . S
C5723 H5693 0.950 . S
C5723 C5718 1.363 . S
C5723 C5722 1.415 . S
H5724 C5721 0.999 . S
H5725 C5706 0.913 . S
H5726 C5744 0.951 . S
H5727 C5746 0.951 . S
H5728 C5748 0.950 . S
H5729 C5749 0.950 . S
H5730 C5751 0.950 . S
H5731 C5754 0.950 . S
H5732 C5755 0.950 . S
H5733 C5757 0.950 . S
H5734 C5758 0.950 . S
H5735 C5759 0.951 . S
H5736 C5761 0.951 . S
H5737 C5763 0.950 . S
H5738 C5764 0.950 . S
H5739 C5766 0.950 . S
H5740 C5769 0.950 . S
H5741 C5770 0.950 . S
H5742 C5772 0.950 . S
H5743 C5773 0.950 . S
C5744 H5726 0.951 . S
C5744 C5745 1.366 . S
C5744 C5746 1.388 . S
C5745 C5744 1.366 . S
C5745 C5749 1.385 . S
C5746 H5727 0.951 . S
C5746 C5744 1.388 . S
C5746 C5747 1.366 . S
C5747 C5746 1.366 . S
C5747 C5748 1.414 . S
C5747 C5750 1.499 . S
C5748 H5728 0.950 . S
C5748 C5747 1.414 . S
C5748 C5749 1.374 . S
C5749 H5729 0.950 . S
C5749 C5745 1.385 . S
C5749 C5748 1.374 . S
C5750 C5747 1.499 . S
C5750 C5751 1.373 . S
C5750 C5752 1.389 . S
C5751 H5730 0.950 . S
C5751 C5750 1.373 . S
C5751 C5767 1.377 . S
C5752 C5750 1.389 . S
C5752 C5753 1.524 . S
C5752 C5766 1.377 . S
C5753 C5752 1.524 . S
C5753 C5754 1.397 . S
C5753 C5758 1.363 . S
C5754 H5731 0.950 . S
C5754 C5753 1.397 . S
C5754 C5755 1.334 . S
C5755 H5732 0.950 . S
C5755 C5754 1.334 . S
C5755 C5756 1.287 . S
C5756 C5755 1.287 . S
C5756 C5757 1.524 . S
C5756 H5775 0.913 . S
C5757 H5733 0.950 . S
C5757 C5756 1.524 . S
C5757 C5758 1.415 . S
C5758 H5734 0.950 . S
C5758 C5753 1.363 . S
C5758 C5757 1.415 . S
C5759 H5735 0.951 . S
C5759 C5760 1.366 . S
C5759 C5761 1.388 . S
C5760 C5759 1.366 . S
C5760 C5764 1.385 . S
C5761 H5736 0.951 . S
C5761 C5759 1.388 . S
C5761 C5762 1.366 . S
C5762 C5761 1.366 . S
C5762 C5763 1.414 . S
C5762 C5765 1.499 . S
C5763 H5737 0.950 . S
C5763 C5762 1.414 . S
C5763 C5764 1.374 . S
C5764 H5738 0.950 . S
C5764 C5760 1.385 . S
C5764 C5763 1.374 . S
C5765 C5762 1.499 . S
C5765 C5766 1.373 . S
C5765 C5767 1.389 . S
C5766 H5739 0.950 . S
C5766 C5752 1.377 . S
C5766 C5765 1.373 . S
C5767 C5751 1.377 . S
C5767 C5765 1.389 . S
C5767 C5768 1.524 . S
C5768 C5767 1.524 . S
C5768 C5769 1.397 . S
C5768 C5773 1.363 . S
C5769 H5740 0.950 . S
C5769 C5768 1.397 . S
C5769 C5770 1.334 . S
C5770 H5741 0.950 . S
C5770 C5769 1.334 . S
C5770 C5771 1.287 . S
C5771 C5770 1.287 . S
C5771 C5772 1.524 . S
C5771 H5774 0.999 . S
C5772 H5742 0.950 . S
C5772 C5771 1.524 . S
C5772 C5773 1.415 . S
C5773 H5743 0.950 . S
C5773 C5768 1.363 . S
C5773 C5772 1.415 . S
H5774 C5771 0.999 . S
H5775 C5756 0.913 . S
C995 C111 2.150 . S
C1010 C346 2.141 . S
C1045 C64 1.956 . S
C1060 C394 2.017 . S
C1095 C77 1.011 . S
C1110 C426 1.003 . S
C1160 C471 1.334 . S
C1145 C95 1.351 . S
C1195 C25 0.668 . S
C1210 C511 0.665 . S
C1260 C546 0.711 . S
C1245 C36 0.717 . S
C1310 C585 1.166 . S
C1295 C50 1.155 . S
C1345 C11 1.047 . S
C1360 C622 1.044 . S
C1410 C354 1.878 . S
C1395 C237 1.817 . S
C1445 C245 0.398 . S
C1460 C391 0.504 . S
C1510 C434 2.338 . S
C1495 C279 2.216 . S
C1560 C466 0.847 . S
C1545 C175 0.849 . S
C1595 C231 0.953 . S
C1610 C506 0.946 . S
C1660 C554 0.392 . S
C1645 C251 0.559 . S
C1710 C595 1.793 . S
C1695 C273 1.856 . S
C1760 C625 1.868 . S
C1745 C181 1.818 . S
C1810 C351 0.988 . S
C1795 C165 1.010 1_554 S
C1845 C288 2.097 . S
C1860 C674 2.146 . S
C1910 C711 1.065 . S
C1895 C333 1.075 . S
C1960 C742 0.389 . S
C1945 C316 0.334 . S
C1995 C123 2.656 . S
C2010 C635 2.619 . S
C2045 C137 1.264 . S
C2060 C431 1.252 . S
C2095 C330 1.700 . S
C2110 C794 1.745 . S
C2160 C826 1.684 . S
C2145 C302 1.675 . S
C2210 C355 2.253 . S
C2195 C63 2.311 . S
C2260 C825 2.091 . S
C2245 C106 2.082 . S
C2295 C97 1.082 . S
C2310 C435 1.119 . S
C2345 C81 1.416 . S
C2360 C782 1.413 . S
C2410 C502 0.819 . S
C2395 C13 0.791 1_455 S
C2445 C55 0.808 . S
C2460 C715 0.819 . S
C2510 C594 1.083 1_556 S
C2495 C35 1.094 . S
C2560 C871 1.244 . S
C2545 C21 1.249 . S
C2610 C345 2.026 . S
C2595 C147 2.044 . S
C2660 C822 0.476 . S
C2645 C321 0.699 . S
C2695 C119 2.443 . S
C2710 C425 2.419 . S
C2745 C293 0.983 . S
C2760 C795 1.021 . S
C2795 C153 1.111 . S
C2810 C515 1.157 . S
C2860 C705 0.491 . S
C2845 C315 0.477 . S
C2895 C125 1.773 . S
C2910 C586 1.835 . S
C2945 C287 1.996 . S
C2960 C874 1.969 . S
C2995 C193 1.022 . S
C3010 C342 1.023 . S
C3045 C176 2.203 . S
C3060 C665 2.207 . S
C3095 C263 1.062 . S
C3110 C542 1.064 . S
C3145 C246 0.416 . S
C3160 C751 0.378 . S
C3210 C866 2.778 . S
C3195 C277 2.822 . S
C3245 C221 1.310 . S
C3260 C422 1.311 . S
C3310 C465 1.806 . S
C3295 C260 1.808 . S
C3360 C395 1.809 . S
C3345 C204 1.718 . S
C3395 C83 2.150 . S
C3410 C906 2.141 . S
C3460 C834 2.017 . S
C3445 C92 1.956 . S
C3495 C105 1.010 . S
C3510 C946 1.004 . S
C3545 C67 1.351 . S
C3560 C791 1.334 . S
C3595 C53 0.668 . S
C3610 C671 0.666 . S
C3660 C706 0.711 . S
C3645 C8 0.716 . S
C3710 C745 1.164 . S
C3695 C22 1.154 . S
C3760 C862 1.043 . S
C3745 C39 1.047 . S
C3810 C914 1.878 . S
C3795 C265 1.817 . S
C3845 C189 0.398 . S
C3860 C831 0.505 . S
C3910 C954 2.338 . S
C3895 C209 2.217 . S
C3960 C786 0.846 . S
C3945 C217 0.849 . S
C4010 C666 0.946 . S
C3995 C259 0.953 . S
C4045 C195 0.561 . S
C4060 C714 0.392 . S
C4110 C755 1.793 . S
C4095 C203 1.856 . S
C4145 C223 1.818 . S
C4160 C865 1.868 . S
C4210 C911 0.988 . S
C4195 C319 1.012 . S
C4245 C134 2.098 . S
C4260 C514 2.146 . S
C4310 C551 1.066 . S
C4295 C151 1.075 . S
C4360 C582 0.391 . S
C4345 C162 0.336 . S
C4410 C875 2.619 . S
C4395 C305 2.656 . S
C4445 C291 1.264 . S
C4460 C951 1.253 . S
C4510 C474 1.745 . S
C4495 C148 1.700 . S
C4560 C386 1.683 . S
C4545 C120 1.676 . S
C4595 C91 2.311 . S
C4610 C915 2.253 . S
C4660 C385 2.092 . S
C4645 C78 2.082 . S
C4695 C69 1.080 . S
C4710 C955 1.119 . S
C4745 C109 1.416 . S
C4760 C462 1.413 . S
C4795 C41 0.810 . S
C4810 C662 0.819 . S
C4860 C555 0.819 . S
C4845 C27 0.808 . S
C4895 C7 1.094 . S
C4910 C754 1.082 . S
C4945 C49 1.249 . S
C4960 C631 1.244 . S
C5010 C905 2.026 . S
C4995 C329 2.044 . S
C5045 C167 0.702 . S
C5060 C382 0.481 . S
C5110 C945 2.419 . S
C5095 C301 2.443 . S
C5145 C139 0.984 . S
C5160 C475 1.020 . S
C5195 C335 1.112 . S
C5210 C675 1.157 . S
C5260 C545 0.493 . S
C5245 C161 0.484 . S
C5295 C307 1.772 . S
C5310 C746 1.834 1_655 S
C5360 C634 1.970 . S
C5345 C133 1.996 . S
C5410 C902 1.020 . S
C5395 C249 1.021 . S
C5460 C505 2.207 1_565 S
C5445 C218 2.203 . S
C5495 C235 1.063 . S
C5510 C702 1.065 . S
C5560 C591 0.378 . S
C5545 C190 0.416 . S
C5595 C207 2.822 . S
C5610 C626 2.778 . S
C5645 C179 1.310 . S
C5660 C942 1.311 . S
C5710 C785 1.806 . S
C5695 C232 1.809 . S
C5760 C835 1.809 . S
C5745 C274 1.718 . S
