# Generated by pormake.
# Topology zzz, (3,6)-cn, num edge types: 1
# Building blocks:
#     Node 0, Type 0, BuildingBlock: WUSLED_clean_sbu_0, # of connection points: 3
#     Node 1, Type 0, BuildingBlock: WUSLED_clean_sbu_0, # of connection points: 3
#     Node 2, Type 0, BuildingBlock: WUSLED_clean_sbu_0, # of connection points: 3
#     Node 3, Type 0, BuildingBlock: WUSLED_clean_sbu_0, # of connection points: 3
#     Node 4, Type 0, BuildingBlock: WUSLED_clean_sbu_0, # of connection points: 3
#     Node 5, Type 0, BuildingBlock: WUSLED_clean_sbu_0, # of connection points: 3
#     Node 6, Type 0, BuildingBlock: WUSLED_clean_sbu_0, # of connection points: 3
#     Node 7, Type 0, BuildingBlock: WUSLED_clean_sbu_0, # of connection points: 3
#     Node 8, Type 1, BuildingBlock: FUNLAD_clean_sbu_0, # of connection points: 6
#     Node 9, Type 1, BuildingBlock: FUNLAD_clean_sbu_0, # of connection points: 6
#     Node 10, Type 1, BuildingBlock: FUNLAD_clean_sbu_0, # of connection points: 6
#     Node 11, Type 1, BuildingBlock: FUNLAD_clean_sbu_0, # of connection points: 6
#     Edge 12, Type (0, 1), BuildingBlock: OJICUG_clean_linker_0, # of connection points: 2
#     Edge 13, Type (0, 1), BuildingBlock: OJICUG_clean_linker_0, # of connection points: 2
#     Edge 14, Type (0, 1), BuildingBlock: OJICUG_clean_linker_0, # of connection points: 2
#     Edge 15, Type (0, 1), BuildingBlock: OJICUG_clean_linker_0, # of connection points: 2
#     Edge 16, Type (0, 1), BuildingBlock: OJICUG_clean_linker_0, # of connection points: 2
#     Edge 17, Type (0, 1), BuildingBlock: OJICUG_clean_linker_0, # of connection points: 2
#     Edge 18, Type (0, 1), BuildingBlock: OJICUG_clean_linker_0, # of connection points: 2
#     Edge 19, Type (0, 1), BuildingBlock: OJICUG_clean_linker_0, # of connection points: 2
#     Edge 20, Type (0, 1), BuildingBlock: OJICUG_clean_linker_0, # of connection points: 2
#     Edge 21, Type (0, 1), BuildingBlock: OJICUG_clean_linker_0, # of connection points: 2
#     Edge 22, Type (0, 1), BuildingBlock: OJICUG_clean_linker_0, # of connection points: 2
#     Edge 23, Type (0, 1), BuildingBlock: OJICUG_clean_linker_0, # of connection points: 2
#     Edge 24, Type (0, 1), BuildingBlock: OJICUG_clean_linker_0, # of connection points: 2
#     Edge 25, Type (0, 1), BuildingBlock: OJICUG_clean_linker_0, # of connection points: 2
#     Edge 26, Type (0, 1), BuildingBlock: OJICUG_clean_linker_0, # of connection points: 2
#     Edge 27, Type (0, 1), BuildingBlock: OJICUG_clean_linker_0, # of connection points: 2
#     Edge 28, Type (0, 1), BuildingBlock: OJICUG_clean_linker_0, # of connection points: 2
#     Edge 29, Type (0, 1), BuildingBlock: OJICUG_clean_linker_0, # of connection points: 2
#     Edge 30, Type (0, 1), BuildingBlock: OJICUG_clean_linker_0, # of connection points: 2
#     Edge 31, Type (0, 1), BuildingBlock: OJICUG_clean_linker_0, # of connection points: 2
#     Edge 32, Type (0, 1), BuildingBlock: OJICUG_clean_linker_0, # of connection points: 2
#     Edge 33, Type (0, 1), BuildingBlock: OJICUG_clean_linker_0, # of connection points: 2
#     Edge 34, Type (0, 1), BuildingBlock: OJICUG_clean_linker_0, # of connection points: 2
#     Edge 35, Type (0, 1), BuildingBlock: OJICUG_clean_linker_0, # of connection points: 2
# Relax obj value: 0.254
# Max RMSD: 0.224
# Mean RMSD: 0.186
data_MOF--net-zzz--node1-WUSLED_clean_sbu_0--node2-FUNLAD_clean_sbu_0--edge1-OJICUG_clean_linker_0
_symmetry_space_group_name_H-M    P1
_symmetry_Int_Tables_number       1
_symmetry_cell_setting            triclinic
loop_
_symmetry_equiv_pos_as_xyz
'x, y, z'
_cell_length_a     49.778137
_cell_length_b     54.284643
_cell_length_c     19.147821
_cell_angle_alpha  86.747757
_cell_angle_beta   85.648489
_cell_angle_gamma 91.544458
loop_
_atom_site_label
_atom_site_type_symbol
_atom_site_fract_x
_atom_site_fract_y
_atom_site_fract_z
_atom_type_partial_charge
C0 C 0.84672 0.46024 0.39196 0.0
C1 C 0.8693 0.47286 0.35675 0.0
C2 C 0.89305 0.47013 0.46369 0.0
C3 C 0.89224 0.47788 0.39252 0.0
C4 C 0.87086 0.45665 0.49771 0.0
C5 C 0.84791 0.45188 0.46229 0.0
U6 U 0.79747 0.44995 0.2449 0.0
O7 O 0.7621 0.47243 0.23168 0.0
O8 O 0.75669 0.43247 0.25406 0.0
C9 C 0.74557 0.4531 0.23371 0.0
C10 C 0.82057 0.45825 0.36063 0.0
C11 C 0.7297 0.452 0.17211 0.0
C12 C 0.68631 0.45223 0.12231 0.0
C13 C 0.70151 0.45016 0.1808 0.0
C14 C 0.72737 0.45725 0.04564 0.0
C15 C 0.69916 0.4563 0.05462 0.0
C16 C 0.74258 0.45491 0.10402 0.0
C17 C 0.85294 0.43777 0.0975 0.0
C18 C 0.88136 0.43459 0.99047 0.0
C19 C 0.9013 0.44352 0.09841 0.0
C20 C 0.87571 0.44218 0.13426 0.0
C21 C 0.90419 0.44049 0.02573 0.0
C22 C 0.85593 0.43329 0.02617 0.0
C23 C 0.82569 0.44033 0.12916 0.0
O24 O 0.81548 0.47573 0.31351 0.0
O25 O 0.8119 0.43616 0.3459 0.0
O26 O 0.81938 0.46276 0.14538 0.0
O27 O 0.81642 0.42305 0.17638 0.0
H28 H 0.8689 0.47951 0.30243 0.0
H29 H 0.90922 0.48807 0.36489 0.0
H30 H 0.87082 0.45063 0.55264 0.0
H31 H 0.83063 0.4424 0.49074 0.0
H32 H 0.66451 0.45172 0.13008 0.0
H33 H 0.69127 0.44799 0.23285 0.0
H34 H 0.73757 0.46059 0.9938 0.0
H35 H 0.76436 0.45637 0.09628 0.0
H36 H 0.88289 0.43266 0.93431 0.0
H37 H 0.91866 0.44802 0.12663 0.0
H38 H 0.87357 0.44567 0.18953 0.0
H39 H 0.83842 0.43005 0.99716 0.0
C40 C 0.94537 0.82624 0.28199 0.0
C41 C 0.9427 0.84915 0.24556 0.0
C42 C 0.95162 0.8707 0.3498 0.0
C43 C 0.94593 0.87116 0.27898 0.0
C44 C 0.95359 0.84769 0.38666 0.0
C45 C 0.95065 0.82564 0.35286 0.0
U46 U 0.93588 0.79805 0.11277 0.0
O47 O 0.96286 0.7752 0.04826 0.0
O48 O 0.92076 0.76195 0.08191 0.0
C49 C 0.94389 0.75793 0.04701 0.0
C50 C 0.94485 0.80339 0.24399 0.0
C51 C 0.9484 0.73526 0.01001 0.0
C52 C 0.95036 0.69064 0.01275 0.0
C53 C 0.94615 0.71232 0.04742 0.0
C54 C 0.9584 0.7146 0.90213 0.0
C55 C 0.95632 0.6914 0.93947 0.0
C56 C 0.95469 0.73635 0.93725 0.0
C57 C 0.92267 0.84821 0.97022 0.0
C58 C 0.95471 0.85476 0.86882 0.0
C59 C 0.92922 0.88883 0.91271 0.0
C60 C 0.91492 0.87273 0.96217 0.0
C61 C 0.9508 0.88018 0.87055 0.0
C62 C 0.94029 0.83862 0.91831 0.0
C63 C 0.92289 0.83812 0.04247 0.0
O64 O 0.92117 0.7962 0.2247 0.0
O65 O 0.96422 0.8027 0.19369 0.0
O66 O 0.94725 0.8337 0.06062 0.0
O67 O 0.90473 0.82112 0.06673 0.0
H68 H 0.9387 0.85004 0.19071 0.0
H69 H 0.94412 0.88856 0.24932 0.0
H70 H 0.95829 0.84677 0.44104 0.0
H71 H 0.95308 0.80818 0.38159 0.0
H72 H 0.94927 0.67331 0.04381 0.0
H73 H 0.94148 0.71119 0.10374 0.0
H74 H 0.96255 0.71602 0.84571 0.0
H75 H 0.95632 0.75398 0.90748 0.0
H76 H 0.97113 0.84784 0.8358 0.0
H77 H 0.92572 0.90843 0.91357 0.0
H78 H 0.90115 0.88036 1.00128 0.0
H79 H 0.94629 0.8196 0.92351 0.0
C80 C 0.70548 1.00232 0.32764 0.0
C81 C 0.68351 0.01571 0.30596 0.0
C82 C 0.65652 1.00185 0.41436 0.0
C83 C 0.65924 0.01549 0.349 0.0
C84 C 0.67869 0.98845 0.43507 0.0
C85 C 0.70274 0.98867 0.39227 0.0
U86 U 0.75866 0.01028 0.16308 0.0
O87 O 0.79981 0.02645 0.16313 0.0
O88 O 0.7939 0.98713 0.14621 0.0
C89 C 0.81123 0.0058 0.14652 0.0
C90 C 0.73211 1.00296 0.28729 0.0
C91 C 0.83275 0.0079 0.08861 0.0
C92 C 0.88003 0.01612 0.0509 0.0
C93 C 0.85897 0.01448 0.10373 0.0
C94 C 0.84899 1.00467 0.96605 0.0
C95 C 0.87541 0.01139 0.98108 0.0
C96 C 0.82785 1.00298 0.01929 0.0
C97 C 0.7056 0.02531 0.03008 0.0
C98 C 0.67699 0.04414 0.94604 0.0
C99 C 0.659 0.01124 0.02868 0.0
C100 C 0.6838 0.01001 0.05807 0.0
C101 C 0.65559 0.02784 0.97107 0.0
C102 C 0.70184 0.04281 0.97524 0.0
C103 C 0.73299 0.02168 0.05162 0.0
O104 O 0.73695 0.98521 0.24454 0.0
O105 O 0.74225 0.0246 0.26244 0.0
O106 O 0.74281 0.03839 0.0906 0.0
O107 O 0.73874 0.99895 0.07139 0.0
H108 H 0.68517 0.02645 0.25629 0.0
H109 H 0.64259 0.0259 0.33094 0.0
H110 H 0.67777 0.97817 0.48538 0.0
H111 H 0.71952 0.97843 0.41046 0.0
H112 H 0.90008 0.02075 0.06531 0.0
H113 H 0.86325 0.01819 0.15686 0.0
H114 H 0.84455 1.00102 0.91306 0.0
H115 H 0.80773 0.99784 1.00633 0.0
H116 H 0.67503 0.05697 0.90142 0.0
H117 H 0.64272 0.99865 0.04956 0.0
H118 H 0.68621 0.99646 0.10073 0.0
H119 H 0.71849 0.05473 0.95289 0.0
C120 C 0.58021 0.66855 0.36026 0.0
C121 C 0.57311 0.64733 0.32622 0.0
C122 C 0.5753 0.62194 0.43483 0.0
C123 C 0.57052 0.62426 0.36328 0.0
C124 C 0.58338 0.64308 0.46797 0.0
C125 C 0.58566 0.6662 0.43108 0.0
U126 U 0.57598 0.70912 0.19294 0.0
O127 O 0.55031 0.74107 0.17822 0.0
O128 O 0.59422 0.74544 0.15494 0.0
C129 C 0.57075 0.75609 0.15637 0.0
C130 C 0.57987 0.69331 0.32407 0.0
C131 C 0.56599 0.7751 0.10066 0.0
C132 C 0.54827 0.81545 0.0728 0.0
C133 C 0.55311 0.79637 0.12161 0.0
C134 C 0.56926 0.7925 0.97976 0.0
C135 C 0.55601 0.81381 1.00106 0.0
C136 C 0.57417 0.7732 0.02926 0.0
C137 C 0.57091 0.66531 0.03411 0.0
C138 C 0.53932 0.6528 0.9512 0.0
C139 C 0.58031 0.63044 0.96378 0.0
C140 C 0.58821 0.64683 0.01223 0.0
C141 C 0.55494 0.63228 0.93672 0.0
C142 C 0.54724 0.66925 0.99999 0.0
C143 C 0.57429 0.67467 0.10341 0.0
O144 O 0.60096 0.69994 0.2809 0.0
O145 O 0.55695 0.69863 0.29798 0.0
O146 O 0.55281 0.68234 0.13906 0.0
O147 O 0.59695 0.68616 0.11529 0.0
H148 H 0.56879 0.64873 0.27154 0.0
H149 H 0.56431 0.60829 0.33638 0.0
H150 H 0.58679 0.64192 0.52325 0.0
H151 H 0.59092 0.68236 0.45844 0.0
H152 H 0.5387 0.83173 0.09174 0.0
H153 H 0.54689 0.79836 0.17644 0.0
H154 H 0.5755 0.79061 0.92495 0.0
H155 H 0.58424 0.75694 0.0119 0.0
H156 H 0.51981 0.65474 0.93036 0.0
H157 H 0.593 0.61505 0.95214 0.0
H158 H 0.60655 0.64344 0.03792 0.0
H159 H 0.53364 0.68351 0.0158 0.0
C160 C 0.19389 0.54015 0.05821 0.0
C161 C 0.17021 0.52956 0.09362 0.0
C162 C 0.14738 0.53271 0.98529 0.0
C163 C 0.14715 0.52577 0.05729 0.0
C164 C 0.17079 0.54413 0.95094 0.0
C165 C 0.19381 0.54771 0.98699 0.0
U166 U 0.24293 0.55056 0.20536 0.0
O167 O 0.28486 0.56532 0.194 0.0
O168 O 0.27627 0.5262 0.22508 0.0
C169 C 0.29439 0.54436 0.21778 0.0
C170 C 0.21983 0.54091 0.09073 0.0
C171 C 0.31141 0.54569 0.2769 0.0
C172 C 0.35394 0.53697 0.32505 0.0
C173 C 0.33842 0.53937 0.26752 0.0
C174 C 0.31594 0.54837 0.40201 0.0
C175 C 0.34269 0.54083 0.39304 0.0
C176 C 0.30031 0.55064 0.34423 0.0
C177 C 0.18758 0.56916 0.3454 0.0
C178 C 0.16023 0.58065 0.44754 0.0
C179 C 0.14018 0.55706 0.35981 0.0
C180 C 0.16493 0.55784 0.31985 0.0
C181 C 0.13813 0.56739 0.42555 0.0
C182 C 0.18481 0.58155 0.40755 0.0
C183 C 0.21488 0.5647 0.31636 0.0
O184 O 0.23037 0.56277 0.10112 0.0
O185 O 0.22303 0.52424 0.14173 0.0
O186 O 0.22556 0.58037 0.26641 0.0
O187 O 0.22012 0.54153 0.30605 0.0
H188 H 0.16977 0.52356 0.14863 0.0
H189 H 0.12927 0.51716 0.08516 0.0
H190 H 0.17167 0.54942 0.89539 0.0
H191 H 0.21193 0.55561 0.95845 0.0
H192 H 0.37465 0.53148 0.31666 0.0
H193 H 0.34726 0.53545 0.21603 0.0
H194 H 0.30682 0.5514 0.45388 0.0
H195 H 0.27934 0.55537 0.35237 0.0
H196 H 0.15902 0.58867 0.49821 0.0
H197 H 0.1234 0.54652 0.3424 0.0
H198 H 0.16685 0.54812 0.27193 0.0
H199 H 0.20217 0.5903 0.42795 0.0
C200 C 0.10691 0.18756 0.18693 0.0
C201 C 0.11928 0.16525 0.20404 0.0
C202 C 0.09854 0.14537 0.10926 0.0
C203 C 0.11522 0.14441 0.16551 0.0
C204 C 0.08627 0.16787 0.0925 0.0
C205 C 0.09043 0.18867 0.13086 0.0
U206 U 0.12138 0.20839 0.3625 0.0
O207 O 0.13546 0.24227 0.40813 0.0
O208 O 0.09509 0.22601 0.44183 0.0
C209 C 0.11341 0.24326 0.4503 0.0
C210 C 0.10815 0.20844 0.23303 0.0
C211 C 0.10437 0.26753 0.47088 0.0
C212 C 0.09543 0.31083 0.44656 0.0
C213 C 0.10227 0.28767 0.4226 0.0
C214 C 0.09277 0.29372 0.56666 0.0
C215 C 0.09092 0.31412 0.51901 0.0
C216 C 0.09938 0.27071 0.54276 0.0
C217 C 0.13871 0.1573 0.49018 0.0
C218 C 0.10521 0.1542 0.58896 0.0
C219 C 0.1265 0.11758 0.54768 0.0
C220 C 0.14334 0.13209 0.49952 0.0
C221 C 0.10527 0.12847 0.58619 0.0
C222 C 0.1225 0.16875 0.54162 0.0
C223 C 0.1382 0.16701 0.41758 0.0
O224 O 0.09034 0.20633 0.2874 0.0
O225 O 0.13231 0.2157 0.24918 0.0
O226 O 0.15493 0.18537 0.39496 0.0
O227 O 0.11349 0.17019 0.40041 0.0
H228 H 0.13163 0.16379 0.24822 0.0
H229 H 0.12512 0.12756 0.17995 0.0
H230 H 0.07274 0.16929 0.05088 0.0
H231 H 0.0801 0.20545 0.11797 0.0
H232 H 0.09427 0.32626 0.40863 0.0
H233 H 0.10625 0.28557 0.36689 0.0
H234 H 0.08901 0.2955 0.62259 0.0
H235 H 0.10101 0.25536 0.58081 0.0
H236 H 0.0894 0.16299 0.61968 0.0
H237 H 0.1275 0.09767 0.54712 0.0
H238 H 0.15629 0.12303 0.4615 0.0
H239 H 0.11918 0.18839 0.53606 0.0
C240 C 0.34094 0.01189 0.12754 0.0
C241 C 0.36322 0.02729 0.13884 0.0
C242 C 0.38945 0.01111 0.03897 0.0
C243 C 0.38719 0.0269 0.09497 0.0
C244 C 0.36725 0.99544 0.02893 0.0
C245 C 0.34339 0.99588 0.07245 0.0
U246 U 0.28676 0.01114 0.28989 0.0
O247 O 0.25169 0.03491 0.30202 0.0
O248 O 0.24552 0.99525 0.2912 0.0
C249 C 0.23421 0.01624 0.3043 0.0
C250 C 0.31403 0.01389 0.16595 0.0
C251 C 0.21272 0.01505 0.36233 0.0
C252 C 0.16496 0.01059 0.39974 0.0
C253 C 0.18582 0.01255 0.34634 0.0
C254 C 0.19746 0.01408 0.48677 0.0
C255 C 0.17045 0.01113 0.47071 0.0
C256 C 0.21846 0.01585 0.43301 0.0
C257 C 0.33708 0.9973 0.43309 0.0
C258 C 0.36097 0.98489 0.53426 0.0
C259 C 0.38601 1.00015 0.42618 0.0
C260 C 0.36173 1.0032 0.39442 0.0
C261 C 0.38573 0.99139 0.49687 0.0
C262 C 0.3369 0.9878 0.50259 0.0
C263 C 0.31102 1.00196 0.40496 0.0
O264 O 0.30237 0.99338 0.19485 0.0
O265 O 0.30973 0.03311 0.20375 0.0
O266 O 0.3075 0.0244 0.37841 0.0
O267 O 0.30084 0.98452 0.36905 0.0
H268 H 0.36197 0.03996 0.18055 0.0
H269 H 0.40393 0.03905 0.10476 0.0
H270 H 0.36796 0.98333 0.98584 0.0
H271 H 0.32643 0.98414 0.06161 0.0
H272 H 0.1444 0.00873 0.38537 0.0
H273 H 0.18092 0.01194 0.29227 0.0
H274 H 0.20237 0.01444 0.54085 0.0
H275 H 0.23913 0.01765 0.44658 0.0
H276 H 0.3602 0.97795 0.58859 0.0
H277 H 0.40485 1.00552 0.39653 0.0
H278 H 0.36215 0.01065 0.34062 0.0
H279 H 0.31802 0.98318 0.53309 0.0
C280 C 0.45892 0.34343 0.09847 0.0
C281 C 0.46466 0.3649 0.13295 0.0
C282 C 0.46533 0.38969 0.02244 0.0
C283 C 0.46793 0.38781 0.09523 0.0
C284 C 0.45878 0.36821 0.98865 0.0
C285 C 0.45571 0.34529 0.02632 0.0
U286 U 0.45939 0.30437 0.26919 0.0
O287 O 0.4833 0.27185 0.29156 0.0
O288 O 0.43901 0.26879 0.30627 0.0
C289 C 0.46196 0.2575 0.31008 0.0
C290 C 0.45804 0.31894 0.13631 0.0
C291 C 0.46425 0.2386 0.36766 0.0
C292 C 0.46363 0.19474 0.40123 0.0
C293 C 0.45769 0.21412 0.35449 0.0
C294 C 0.48123 0.22402 0.47838 0.0
C295 C 0.47604 0.19939 0.46277 0.0
C296 C 0.47558 0.24357 0.4307 0.0
C297 C 0.46369 0.35004 0.4239 0.0
C298 C 0.49382 0.35927 0.51358 0.0
C299 C 0.45879 0.38753 0.48559 0.0
C300 C 0.44969 0.37147 0.43774 0.0
C301 C 0.48198 0.38227 0.52041 0.0
C302 C 0.48478 0.3432 0.46509 0.0
C303 C 0.46077 0.33982 0.35557 0.0
O304 O 0.48029 0.31328 0.16534 0.0
O305 O 0.4362 0.31326 0.17769 0.0
O306 O 0.43803 0.32866 0.34278 0.0
O307 O 0.48242 0.33118 0.32307 0.0
H308 H 0.46723 0.36385 0.18872 0.0
H309 H 0.47279 0.40402 0.12286 0.0
H310 H 0.45702 0.36895 0.93254 0.0
H311 H 0.45147 0.32891 0.99874 0.0
H312 H 0.45931 0.17595 0.38813 0.0
H313 H 0.44907 0.20986 0.30611 0.0
H314 H 0.49089 0.22804 0.52545 0.0
H315 H 0.48093 0.26236 0.44169 0.0
H316 H 0.51157 0.35477 0.54053 0.0
H317 H 0.44904 0.40501 0.49108 0.0
H318 H 0.43343 0.37711 0.40637 0.0
H319 H 0.4958 0.32665 0.45526 0.0
C320 C 0.01999 0.96167 0.77628 0.0
N321 N 0.99915 0.99008 0.58674 0.0
C322 C 0.01629 0.97484 0.55208 0.0
C323 C 0.007 0.95868 0.50471 0.0
C324 C 0.97958 0.95732 0.49391 0.0
C325 C 0.96224 0.97359 0.52797 0.0
C326 C 0.97256 0.99015 0.57378 0.0
Zn327 Zn 0.0132 0.00585 0.67497 0.0
C328 C 0.97083 0.01339 0.78759 0.0
N329 N 0.04615 0.0291 0.86327 0.0
C330 C 0.07009 0.02443 0.891 0.0
C331 C 0.03168 0.04891 0.88282 0.0
C332 C 0.04155 0.0655 0.9281 0.0
C333 C 0.06664 0.06194 0.95457 0.0
C334 C 0.08069 0.04067 0.93767 0.0
Zn335 Zn 0.03227 0.01309 0.77553 0.0
O336 O 0.01352 0.97054 0.71763 0.0
C337 C 0.07502 0.00605 0.66406 0.0
O338 O 0.0305 0.97585 0.81856 0.0
H339 H 0.01321 0.05315 0.85926 0.0
H340 H 0.03695 0.97354 0.56427 0.0
H341 H 0.08171 0.00901 0.87394 0.0
O342 O 0.05376 1.00374 0.63202 0.0
O343 O 0.07296 0.00985 0.72927 0.0
H344 H 0.95892 1.00191 0.60195 0.0
O345 O 0.03269 0.04866 0.72974 0.0
O346 O 0.01357 0.04236 0.63223 0.0
O347 O 0.99217 0.01638 0.8188 0.0
O348 O 0.97269 0.00846 0.7232 0.0
C349 C 0.02481 0.05695 0.67182 0.0
H350 H 0.0209 0.94607 0.48053 0.0
H351 H 0.94085 0.97293 0.52098 0.0
H352 H 0.03018 0.08171 0.93973 0.0
H353 H 0.10028 0.03746 0.95688 0.0
C354 C 0.48266 0.99433 0.64177 0.0
N355 N 0.5162 0.06353 0.67692 0.0
C356 C 0.51347 0.06619 0.60674 0.0
C357 C 0.50816 0.08906 0.57489 0.0
C358 C 0.50601 0.10996 0.61477 0.0
C359 C 0.50903 0.10683 0.68733 0.0
C360 C 0.51409 0.08332 0.71752 0.0
Zn361 Zn 0.52137 0.0275 0.71463 0.0
C362 C 0.48238 0.01101 0.83381 0.0
N363 N 0.52892 0.95026 0.77357 0.0
C364 C 0.5354 0.93149 0.73151 0.0
C365 C 0.5269 0.94636 0.8447 0.0
C366 C 0.53076 0.92303 0.87605 0.0
C367 C 0.5373 0.90332 0.83433 0.0
C368 C 0.53991 0.90777 0.76104 0.0
Zn369 Zn 0.52396 0.98645 0.73598 0.0
O370 O 0.49019 0.01612 0.65367 0.0
C371 C 0.56279 1.00296 0.61654 0.0
O372 O 0.49431 0.97594 0.66867 0.0
H373 H 0.52259 0.96147 0.87773 0.0
H374 H 0.51497 0.05036 0.57503 0.0
H375 H 0.53728 0.93493 0.67513 0.0
O376 O 0.55166 0.02325 0.62939 0.0
O377 O 0.55509 0.98354 0.65398 0.0
H378 H 0.51612 0.08087 0.77331 0.0
O379 O 0.55342 0.99772 0.80173 0.0
O380 O 0.55244 0.03778 0.77823 0.0
O381 O 0.49229 0.99056 0.81721 0.0
O382 O 0.49144 0.03086 0.80038 0.0
C383 C 0.56246 0.01939 0.81012 0.0
H384 H 0.50526 0.09011 0.51935 0.0
H385 H 0.50769 0.12235 0.72038 0.0
H386 H 0.529 0.92052 0.93277 0.0
H387 H 0.54498 0.89301 0.72708 0.0
C388 C 0.52311 0.4647 0.65355 0.0
N389 N 0.4646 0.51747 0.67255 0.0
C390 C 0.46609 0.51486 0.60211 0.0
C391 C 0.44365 0.51808 0.56435 0.0
C392 C 0.41912 0.52418 0.5987 0.0
C393 C 0.41797 0.5275 0.67115 0.0
C394 C 0.44118 0.52384 0.70758 0.0
Zn395 Zn 0.50024 0.51068 0.7167 0.0
C396 C 0.4964 0.47559 0.83916 0.0
N397 N 0.57772 0.49352 0.78568 0.0
C398 C 0.59869 0.48272 0.75049 0.0
C399 C 0.57877 0.49861 0.85428 0.0
C400 C 0.60146 0.49333 0.88972 0.0
C401 C 0.62315 0.48197 0.85528 0.0
C402 C 0.62171 0.47647 0.78489 0.0
Zn403 Zn 0.54185 0.50082 0.74291 0.0
O404 O 0.50376 0.47934 0.65804 0.0
C405 C 0.54552 0.53614 0.62027 0.0
O406 O 0.54421 0.46881 0.68485 0.0
H407 H 0.56169 0.5063 0.88261 0.0
H408 H 0.4848 0.51009 0.57455 0.0
H409 H 0.59738 0.47852 0.69629 0.0
O410 O 0.52028 0.53328 0.63449 0.0
O411 O 0.56143 0.52385 0.65703 0.0
H412 H 0.44044 0.52593 0.76353 0.0
O413 O 0.53842 0.53239 0.80016 0.0
O414 O 0.49743 0.54235 0.77614 0.0
O415 O 0.52177 0.47872 0.82718 0.0
O416 O 0.48078 0.48741 0.80051 0.0
C417 C 0.5188 0.54672 0.80622 0.0
H418 H 0.44554 0.51586 0.50832 0.0
H419 H 0.39934 0.53233 0.69927 0.0
H420 H 0.60174 0.49741 0.94442 0.0
H421 H 0.63812 0.46751 0.75703 0.0
C422 C 0.05264 0.52792 0.61913 0.0
N423 N 0.04519 0.45267 0.68028 0.0
C424 C 0.04848 0.45047 0.60972 0.0
C425 C 0.05719 0.42853 0.58256 0.0
C426 C 0.06236 0.40836 0.62821 0.0
C427 C 0.05938 0.41127 0.70097 0.0
C428 C 0.05075 0.43372 0.72601 0.0
Zn429 Zn 0.02908 0.48479 0.71335 0.0
C430 C 0.06039 0.51008 0.81308 0.0
N431 N 0.99575 0.55394 0.76474 0.0
C432 C 0.9903 0.57262 0.71788 0.0
C433 C 0.9928 0.5568 0.83505 0.0
C434 C 0.98424 0.57903 0.86071 0.0
C435 C 0.97903 0.59878 0.81371 0.0
C436 C 0.98206 0.5954 0.74138 0.0
Zn437 Zn 0.01144 0.52143 0.73263 0.0
O438 O 0.05446 0.50514 0.63643 0.0
C439 C 0.98003 0.49597 0.63302 0.0
O440 O 0.03474 0.5405 0.64982 0.0
H441 H 0.99775 0.542 0.87159 0.0
H442 H 0.0438 0.46565 0.5741 0.0
H443 H 0.99284 0.57004 0.6622 0.0
O444 O 0.99845 0.48066 0.64277 0.0
O445 O 0.97982 0.51589 0.66506 0.0
H446 H 0.04786 0.43579 0.7819 0.0
O447 O 0.98843 0.50144 0.81622 0.0
O448 O 1.00415 0.46528 0.7909 0.0
O449 O 0.04361 0.52648 0.79837 0.0
O450 O 0.05897 0.48925 0.78596 0.0
C451 C 0.98886 0.47821 0.82898 0.0
H452 H 0.05967 0.42738 0.52618 0.0
H453 H 0.06288 0.39617 0.73826 0.0
H454 H 0.98255 0.58101 0.91684 0.0
H455 H 0.97815 0.61021 0.70354 0.0
C456 C 0.12735 0.99009 0.522 0.0
C457 C 0.14781 0.00814 0.52676 0.0
H458 H 0.08869 0.97513 0.56236 0.0
C459 C 0.14545 0.02395 0.58269 0.0
H460 H 0.12875 0.9773 0.48054 0.0
C461 C 0.12246 0.02244 0.63057 0.0
C462 C 0.10146 1.00516 0.62309 0.0
H463 H 0.16075 0.03819 0.58751 0.0
H464 H 0.12046 0.03562 0.67092 0.0
C465 C 0.10446 0.98873 0.56917 0.0
C466 C 0.47638 0.17329 0.57635 0.0
C467 C 0.48569 0.17824 0.50568 0.0
H468 H 0.47502 0.14763 0.66629 0.0
C469 C 0.50331 0.1618 0.47354 0.0
H470 H 0.46272 0.1857 0.60222 0.0
C471 C 0.51079 0.14042 0.51013 0.0
C472 C 0.50039 0.13449 0.57971 0.0
H473 H 0.51106 0.16536 0.41937 0.0
H474 H 0.52448 0.12833 0.48313 0.0
C475 C 0.48354 0.15152 0.61297 0.0
C476 C 0.37194 0.51295 0.45884 0.0
C477 C 0.35867 0.53538 0.45393 0.0
H478 H 0.40082 0.49159 0.51035 0.0
C479 C 0.36228 0.55274 0.5045 0.0
H480 H 0.36902 0.49902 0.42154 0.0
C481 C 0.38064 0.54848 0.5557 0.0
C482 C 0.39541 0.52677 0.55687 0.0
H483 H 0.35209 0.57012 0.50197 0.0
H484 H 0.38452 0.56274 0.59132 0.0
C485 C 0.39001 0.50866 0.50984 0.0
C486 C 0.06542 0.35338 0.51355 0.0
C487 C 0.08427 0.33861 0.54553 0.0
H488 H 0.04319 0.38649 0.51552 0.0
C489 C 0.09613 0.34705 0.60456 0.0
H490 H 0.05564 0.34722 0.46872 0.0
C491 C 0.08915 0.36966 0.63129 0.0
C492 C 0.07009 0.38436 0.59971 0.0
H493 H 0.111 0.33623 0.62989 0.0
H494 H 0.09892 0.37572 0.67623 0.0
C495 C 0.05833 0.37591 0.54047 0.0
C496 C 0.90043 0.99696 0.87073 0.0
C497 C 0.89828 0.01345 0.92517 0.0
H498 H 0.925 0.98422 0.7833 0.0
C499 C 0.91901 0.03144 0.92794 0.0
H500 H 0.88504 0.98271 0.86703 0.0
C501 C 0.94191 0.03195 0.88098 0.0
C502 C 0.94455 0.01492 0.82862 0.0
H503 H 0.91785 0.04496 0.96743 0.0
H504 H 0.95793 0.04545 0.88658 0.0
C505 C 0.9233 0.9978 0.82261 0.0
C506 C 0.56924 0.84367 0.89633 0.0
C507 C 0.5501 0.83463 0.95038 0.0
H508 H 0.58017 0.87257 0.81661 0.0
C509 C 0.5257 0.84698 0.95974 0.0
H510 H 0.58827 0.8347 0.88769 0.0
C511 C 0.52128 0.86863 0.91994 0.0
C512 C 0.54092 0.87845 0.86871 0.0
H513 H 0.51016 0.84025 0.99942 0.0
H514 H 0.50264 0.87809 0.93042 0.0
C515 C 0.56464 0.86537 0.85569 0.0
C516 C 0.66989 0.44401 0.96086 0.0
C517 C 0.68301 0.46251 0.99507 0.0
H518 H 0.64085 0.43588 0.88713 0.0
C519 C 0.67875 0.48738 0.97668 0.0
H520 H 0.67291 0.42472 0.9748 0.0
C521 C 0.66043 0.49373 0.9275 0.0
C522 C 0.64638 0.47528 0.89528 0.0
H523 H 0.68865 0.50187 1.00287 0.0
H524 H 0.65636 0.51302 0.91674 0.0
C525 C 0.6518 0.45038 0.91069 0.0
C526 C 0.94628 0.64618 0.92733 0.0
C527 C 0.96065 0.66807 0.90292 0.0
H528 H 0.94078 0.60726 0.91821 0.0
C529 C 0.97978 0.66718 0.84502 0.0
H530 H 0.93084 0.64615 0.97031 0.0
C531 C 0.98498 0.64485 0.81408 0.0
C532 C 0.97144 0.6229 0.84088 0.0
H533 H 0.99148 0.6835 0.825 0.0
H534 H 1.0004 0.64459 0.77108 0.0
C535 C 0.95179 0.62387 0.89713 0.0
C536 C 0.06732 0.11389 0.67357 0.0
C537 C 0.08036 0.11372 0.60626 0.0
H538 H 0.03745 0.09609 0.74701 0.0
C539 C 0.06935 0.09932 0.556 0.0
H540 H 0.07502 0.1254 0.71241 0.0
C541 C 0.04757 0.08312 0.57491 0.0
C542 C 0.03674 0.08088 0.64466 0.0
H543 H 0.07848 0.09971 0.50272 0.0
H544 H 0.04132 0.0705 0.53692 0.0
C545 C 0.04556 0.09751 0.69273 0.0
C546 C 0.43414 0.97992 0.50584 0.0
C547 C 0.41073 0.99088 0.53401 0.0
H548 H 0.47561 0.97172 0.51948 0.0
C549 C 0.41115 1.00174 0.59875 0.0
H550 H 0.43425 0.97141 0.45601 0.0
C551 C 0.43454 1.00207 0.6341 0.0
C552 C 0.45788 0.99121 0.60613 0.0
H553 H 0.39352 0.01054 0.62132 0.0
H554 H 0.43451 0.0111 0.68319 0.0
C555 C 0.45759 0.97986 0.5422 0.0
C556 C 0.50103 0.42507 0.5154 0.0
C557 C 0.49599 0.40232 0.5535 0.0
H558 H 0.51447 0.46276 0.51768 0.0
C559 C 0.50414 0.3993 0.622 0.0
H560 H 0.49548 0.42768 0.4619 0.0
C561 C 0.51562 0.41934 0.65333 0.0
C562 C 0.51916 0.44239 0.61608 0.0
H563 H 0.50045 0.38189 0.65218 0.0
H564 H 0.52 0.41731 0.70791 0.0
C565 C 0.51231 0.44497 0.54663 0.0
C566 C 0.08865 0.56337 0.46279 0.0
C567 C 0.11559 0.55979 0.477 0.0
H568 H 0.04698 0.55639 0.49888 0.0
C569 C 0.12135 0.54676 0.53919 0.0
H570 H 0.08391 0.57324 0.41474 0.0
C571 C 0.1006 0.53672 0.58546 0.0
C572 C 0.07374 0.53998 0.57109 0.0
H573 H 0.14199 0.54351 0.55071 0.0
H574 H 0.10552 0.5262 0.63237 0.0
C575 C 0.06771 0.55381 0.51047 0.0
C576 C 0.97658 0.90439 0.77231 0.0
C577 C 0.97255 0.89768 0.84372 0.0
H578 H 0.99619 0.92947 0.69423 0.0
C579 C 0.98833 0.90897 0.89154 0.0
H580 H 0.96465 0.89574 0.7349 0.0
C581 C 0.00638 0.92842 0.86892 0.0
C582 C 0.00879 0.93674 0.79809 0.0
H583 H 0.98562 0.90353 0.94702 0.0
H584 H 0.01682 0.93804 0.90741 0.0
C585 C 0.99478 0.92363 0.7495 0.0
C586 C 0.62071 1.00306 0.91715 0.0
C587 C 0.63086 0.02628 0.93282 0.0
H588 H 0.59143 0.98278 0.86656 0.0
C589 C 0.61807 0.04759 0.90866 0.0
H590 H 0.63051 0.98633 0.93339 0.0
C591 C 0.5955 0.04561 0.86949 0.0
C592 C 0.58548 0.02227 0.8538 0.0
H593 H 0.62553 0.06574 0.92005 0.0
H594 H 0.58605 0.06226 0.85122 0.0
C595 C 0.59832 1.00107 0.87836 0.0
C596 C 0.54489 0.58724 0.93789 0.0
C597 C 0.54313 0.61081 0.90456 0.0
H598 H 0.5377 0.54843 0.93304 0.0
C599 C 0.52967 0.61339 0.84275 0.0
H600 H 0.55441 0.58477 0.98674 0.0
C601 C 0.51947 0.59245 0.8128 0.0
C602 C 0.52264 0.56889 0.84469 0.0
H603 H 0.52796 0.63141 0.8164 0.0
H604 H 0.51066 0.59453 0.76286 0.0
C605 C 0.53491 0.5665 0.908 0.0
C606 C 0.94261 0.47012 0.99338 0.0
C607 C 0.92974 0.44733 0.98416 0.0
H608 H 0.97148 0.49788 0.95047 0.0
C609 C 0.93886 0.43338 0.92791 0.0
H610 H 0.9358 0.48136 0.03584 0.0
C611 C 0.95939 0.44281 0.87925 0.0
C612 C 0.97067 0.46646 0.88569 0.0
H613 H 0.92924 0.41574 0.91979 0.0
H614 H 0.96523 0.4323 0.83442 0.0
C615 C 0.96277 0.4797 0.94417 0.0
C616 C 0.09033 0.09918 0.10204 0.0
C617 C 0.09334 0.1231 0.06879 0.0
H618 H 0.07982 0.06083 0.09168 0.0
C619 C 0.0901 0.12582 0.99642 0.0
H620 H 0.09244 0.0963 0.15774 0.0
C621 C 0.08264 0.10563 0.95928 0.0
C622 C 0.07858 0.08203 0.99301 0.0
H623 H 0.0929 0.1437 0.96837 0.0
H624 H 0.07936 0.10857 0.90415 0.0
C625 C 0.0831 0.07882 0.06438 0.0
C626 C 0.42796 0.03347 0.9648 0.0
C627 C 0.41439 0.01121 0.9898 0.0
H628 H 0.45983 0.05099 0.8959 0.0
C629 C 0.42417 0.98899 0.96492 0.0
H630 H 0.4209 0.05096 0.98222 0.0
C631 C 0.44649 0.98901 0.9157 0.0
C632 C 0.45964 0.01126 0.8893 0.0
H633 H 0.41452 0.97146 0.98343 0.0
H634 H 0.45311 0.97149 0.89737 0.0
C635 C 0.4502 0.03351 0.91491 0.0
C636 C 0.49431 0.4279 0.99154 0.0
C637 C 0.4712 0.41355 0.98093 0.0
H638 H 0.52026 0.45884 0.9552 0.0
C639 C 0.4549 0.42137 0.92746 0.0
H640 H 0.50743 0.42231 0.03179 0.0
C641 C 0.46207 0.44258 0.88407 0.0
C642 C 0.48593 0.45615 0.89254 0.0
H643 H 0.43689 0.41079 0.91827 0.0
H644 H 0.44969 0.4476 0.84165 0.0
C645 C 0.5017 0.44882 0.94753 0.0
C646 C 0.11174 0.50339 0.94905 0.0
C647 C 0.12387 0.52719 0.94472 0.0
H648 H 0.08239 0.47911 0.90951 0.0
C649 C 0.11447 0.54532 0.89804 0.0
H650 H 0.11871 0.48901 0.98421 0.0
C651 C 0.09351 0.53977 0.85635 0.0
C652 C 0.08192 0.51581 0.8592 0.0
H653 H 0.12343 0.56381 0.89363 0.0
H654 H 0.08682 0.55408 0.8205 0.0
C655 C 0.09116 0.49766 0.90598 0.0
C656 C 0.97387 0.91278 0.35034 0.0
C657 C 0.95662 0.89411 0.38424 0.0
H658 H 0.99462 0.94755 0.35873 0.0
C659 C 0.94512 0.89758 0.4522 0.0
H660 H 0.98323 0.91057 0.29821 0.0
C661 C 0.95127 0.91896 0.4862 0.0
C662 C 0.96935 0.9371 0.45329 0.0
H663 H 0.93165 0.88359 0.47944 0.0
H664 H 0.94289 0.92079 0.53949 0.0
C665 C 0.98038 0.93394 0.38481 0.0
C666 C 0.61653 0.02344 0.47035 0.0
C667 C 0.63115 1.00181 0.46204 0.0
H668 H 0.58366 0.04083 0.52517 0.0
C669 C 0.62203 0.98028 0.50251 0.0
H670 H 0.62297 0.04044 0.44077 0.0
C671 C 0.59957 0.98053 0.55121 0.0
C672 C 0.58545 1.00231 0.56099 0.0
H673 H 0.63239 0.96313 0.49692 0.0
H674 H 0.59357 0.96368 0.58213 0.0
C675 C 0.59402 0.02369 0.51922 0.0
C676 C 0.58787 0.58832 0.52213 0.0
C677 C 0.56949 0.5981 0.47635 0.0
H678 H 0.59513 0.56047 0.60239 0.0
C679 C 0.54443 0.58583 0.47379 0.0
H680 H 0.60739 0.59738 0.5249 0.0
C681 C 0.53739 0.56497 0.51816 0.0
C682 C 0.55532 0.55559 0.56582 0.0
H683 H 0.52974 0.59304 0.43968 0.0
H684 H 0.51742 0.55664 0.51669 0.0
C685 C 0.58095 0.56711 0.56603 0.0
C686 C 0.92594 0.50139 0.50371 0.0
C687 C 0.91639 0.47674 0.50372 0.0
H688 H 0.95327 0.52697 0.54601 0.0
C689 C 0.92829 0.45861 0.54547 0.0
H690 H 0.91697 0.51576 0.47241 0.0
C691 C 0.94927 0.46494 0.5863 0.0
C692 C 0.95836 0.48963 0.58773 0.0
H693 H 0.92133 0.4395 0.54657 0.0
H694 H 0.95797 0.45055 0.61816 0.0
C695 C 0.9465 0.50783 0.54612 0.0
loop_
_geom_bond_atom_site_label_1
_geom_bond_atom_site_label_2
_geom_bond_distance
_geom_bond_site_symmetry_2
_ccdc_geom_bond_type
C0 C1 1.264 . S
C0 C5 1.479 . S
C0 C10 1.465 . S
C1 C0 1.264 . S
C1 C3 1.339 . S
C1 H28 0.931 . S
C2 C3 1.395 . S
C2 C4 1.320 . S
C3 C1 1.339 . S
C3 C2 1.395 . S
C3 H29 0.929 . S
C4 C2 1.320 . S
C4 C5 1.405 . S
C4 H30 0.930 . S
C5 C0 1.479 . S
C5 C4 1.405 . S
C5 H31 0.931 . S
U6 O7 2.454 . S
U6 O8 2.458 . S
U6 C9 2.984 . S
U6 C10 2.847 . S
U6 C23 2.882 . S
U6 O24 2.441 . S
U6 O25 2.420 . S
U6 O26 2.455 . S
U6 O27 2.449 . S
O7 U6 2.454 . S
O7 C9 1.353 . S
O8 U6 2.458 . S
O8 C9 1.286 . S
C9 U6 2.984 . S
C9 O7 1.353 . S
C9 O8 1.286 . S
C9 C11 1.363 . S
C10 C0 1.465 . S
C10 U6 2.847 . S
C10 O24 1.249 . S
C10 O25 1.202 . S
C11 C9 1.363 . S
C11 C13 1.408 . S
C11 C16 1.342 . S
C12 C13 1.310 . S
C12 C15 1.461 . S
C12 H32 0.932 . S
C13 C11 1.408 . S
C13 C12 1.310 . S
C13 H33 0.930 . S
C14 C15 1.474 . S
C14 C16 1.285 . S
C14 H34 0.929 1_554 S
C15 C12 1.461 . S
C15 C14 1.474 . S
C16 C11 1.342 . S
C16 C14 1.285 . S
C16 H35 0.930 . S
C17 C20 1.424 . S
C17 C22 1.245 1_554 S
C17 C23 1.428 . S
C18 C21 1.260 . S
C18 C22 1.477 . S
C18 H36 0.932 . S
C19 C20 1.384 1_556 S
C19 C21 1.479 . S
C19 H37 0.929 . S
C20 C17 1.424 . S
C20 C19 1.384 1_554 S
C20 H38 0.928 . S
C21 C18 1.260 . S
C21 C19 1.479 . S
C22 C17 1.245 1_556 S
C22 C18 1.477 . S
C22 H39 0.932 . S
C23 U6 2.882 . S
C23 C17 1.428 . S
C23 O26 1.301 . S
C23 O27 1.282 . S
O24 U6 2.441 . S
O24 C10 1.249 . S
O25 U6 2.420 . S
O25 C10 1.202 . S
O26 U6 2.455 . S
O26 C23 1.301 . S
O27 U6 2.449 . S
O27 C23 1.282 . S
H28 C1 0.931 . S
H29 C3 0.929 . S
H30 C4 0.930 . S
H31 C5 0.931 . S
H32 C12 0.932 . S
H33 C13 0.930 . S
H34 C14 0.929 1_556 S
H35 C16 0.930 . S
H36 C18 0.932 . S
H37 C19 0.929 . S
H38 C20 0.928 . S
H39 C22 0.932 . S
C40 C41 1.264 . S
C40 C45 1.479 . S
C40 C50 1.465 . S
C41 C40 1.264 . S
C41 C43 1.339 . S
C41 H68 0.931 . S
C42 C43 1.395 . S
C42 C44 1.320 . S
C43 C41 1.339 . S
C43 C42 1.395 . S
C43 H69 0.929 . S
C44 C42 1.320 . S
C44 C45 1.405 . S
C44 H70 0.930 . S
C45 C40 1.479 . S
C45 C44 1.405 . S
C45 H71 0.931 . S
U46 O47 2.454 . S
U46 O48 2.458 1_554 S
U46 C49 2.984 1_554 S
U46 C50 2.847 . S
U46 C63 2.882 1_554 S
U46 O64 2.441 . S
U46 O65 2.420 . S
U46 O66 2.455 1_554 S
U46 O67 2.449 1_554 S
O47 U46 2.454 . S
O47 C49 1.353 1_554 S
O48 U46 2.458 1_556 S
O48 C49 1.286 . S
C49 U46 2.984 1_556 S
C49 O47 1.353 1_556 S
C49 O48 1.286 . S
C49 C51 1.363 . S
C50 C40 1.465 . S
C50 U46 2.847 . S
C50 O64 1.249 . S
C50 O65 1.202 . S
C51 C49 1.363 . S
C51 C53 1.408 1_556 S
C51 C56 1.342 . S
C52 C53 1.310 1_556 S
C52 C55 1.461 . S
C52 H72 0.932 1_556 S
C53 C51 1.408 1_554 S
C53 C52 1.310 1_554 S
C53 H73 0.930 . S
C54 C55 1.474 . S
C54 C56 1.285 . S
C54 H74 0.929 . S
C55 C52 1.461 . S
C55 C54 1.474 . S
C56 C51 1.342 . S
C56 C54 1.285 . S
C56 H75 0.930 . S
C57 C60 1.424 . S
C57 C62 1.245 . S
C57 C63 1.428 . S
C58 C61 1.260 . S
C58 C62 1.477 . S
C58 H76 0.932 . S
C59 C60 1.384 . S
C59 C61 1.479 . S
C59 H77 0.929 . S
C60 C57 1.424 . S
C60 C59 1.384 . S
C60 H78 0.928 . S
C61 C58 1.260 . S
C61 C59 1.479 . S
C62 C57 1.245 . S
C62 C58 1.477 . S
C62 H79 0.932 . S
C63 U46 2.882 1_556 S
C63 C57 1.428 . S
C63 O66 1.301 . S
C63 O67 1.282 . S
O64 U46 2.441 . S
O64 C50 1.249 . S
O65 U46 2.420 . S
O65 C50 1.202 . S
O66 U46 2.455 1_556 S
O66 C63 1.301 . S
O67 U46 2.449 1_556 S
O67 C63 1.282 . S
H68 C41 0.931 . S
H69 C43 0.929 . S
H70 C44 0.930 . S
H71 C45 0.931 . S
H72 C52 0.932 1_554 S
H73 C53 0.930 . S
H74 C54 0.929 . S
H75 C56 0.930 . S
H76 C58 0.932 . S
H77 C59 0.929 . S
H78 C60 0.928 . S
H79 C62 0.932 . S
C80 C81 1.264 . S
C80 C85 1.479 . S
C80 C90 1.465 . S
C81 C80 1.264 . S
C81 C83 1.339 . S
C81 H108 0.931 . S
C82 C83 1.395 . S
C82 C84 1.320 . S
C83 C81 1.339 . S
C83 C82 1.395 . S
C83 H109 0.929 . S
C84 C82 1.320 . S
C84 C85 1.405 . S
C84 H110 0.922 1_545 S
C85 C80 1.479 . S
C85 C84 1.405 . S
C85 H111 0.931 . S
U86 O87 2.454 . S
U86 O88 2.458 . S
U86 C89 2.984 . S
U86 C90 2.847 . S
U86 C103 2.882 1_554 S
U86 O104 2.441 . S
U86 O105 2.420 . S
U86 O106 2.455 1_554 S
U86 O107 2.449 . S
O87 U86 2.454 . S
O87 C89 1.353 . S
O88 U86 2.458 . S
O88 C89 1.286 . S
C89 U86 2.984 . S
C89 O87 1.353 . S
C89 O88 1.286 . S
C89 C91 1.363 . S
C90 C80 1.465 . S
C90 U86 2.847 . S
C90 O104 1.249 . S
C90 O105 1.202 . S
C91 C89 1.363 . S
C91 C93 1.408 . S
C91 C96 1.342 1_554 S
C92 C93 1.310 . S
C92 C95 1.461 1_554 S
C92 H112 0.932 . S
C93 C91 1.408 . S
C93 C92 1.310 . S
C93 H113 0.930 . S
C94 C95 1.474 1_565 S
C94 C96 1.284 1_565 S
C94 H114 0.931 . S
C95 C92 1.461 1_556 S
C95 C94 1.474 1_545 S
C96 C91 1.342 1_556 S
C96 C94 1.284 1_545 S
C96 H115 0.933 . S
C97 C100 1.424 . S
C97 C102 1.245 . S
C97 C103 1.428 . S
C98 C101 1.260 . S
C98 C102 1.477 . S
C98 H116 0.932 . S
C99 C100 1.384 . S
C99 C101 1.479 . S
C99 H117 0.929 . S
C100 C97 1.424 . S
C100 C99 1.384 . S
C100 H118 0.928 1_556 S
C101 C98 1.260 . S
C101 C99 1.479 . S
C102 C97 1.245 . S
C102 C98 1.477 . S
C102 H119 0.932 . S
C103 U86 2.882 1_556 S
C103 C97 1.428 . S
C103 O106 1.301 . S
C103 O107 1.282 1_556 S
O104 U86 2.441 . S
O104 C90 1.249 . S
O105 U86 2.420 . S
O105 C90 1.202 . S
O106 U86 2.455 1_556 S
O106 C103 1.301 . S
O107 U86 2.449 . S
O107 C103 1.282 1_554 S
H108 C81 0.931 . S
H109 C83 0.929 . S
H110 C84 0.922 1_565 S
H111 C85 0.931 . S
H112 C92 0.932 . S
H113 C93 0.930 . S
H114 C94 0.931 . S
H115 C96 0.933 . S
H116 C98 0.932 . S
H117 C99 0.929 . S
H118 C100 0.928 1_554 S
H119 C102 0.932 . S
C120 C121 1.264 . S
C120 C125 1.479 . S
C120 C130 1.465 . S
C121 C120 1.264 . S
C121 C123 1.339 . S
C121 H148 0.931 . S
C122 C123 1.395 . S
C122 C124 1.320 . S
C123 C121 1.339 . S
C123 C122 1.395 . S
C123 H149 0.929 . S
C124 C122 1.320 . S
C124 C125 1.405 . S
C124 H150 0.930 . S
C125 C120 1.479 . S
C125 C124 1.405 . S
C125 H151 0.931 . S
U126 O127 2.454 . S
U126 O128 2.458 . S
U126 C129 2.984 . S
U126 C130 2.847 . S
U126 C143 2.882 . S
U126 O144 2.441 . S
U126 O145 2.420 . S
U126 O146 2.455 1_554 S
U126 O147 2.449 . S
O127 U126 2.454 . S
O127 C129 1.353 . S
O128 U126 2.458 . S
O128 C129 1.286 . S
C129 U126 2.984 . S
C129 O127 1.353 . S
C129 O128 1.286 . S
C129 C131 1.363 . S
C130 C120 1.465 . S
C130 U126 2.847 . S
C130 O144 1.249 . S
C130 O145 1.202 . S
C131 C129 1.363 . S
C131 C133 1.408 . S
C131 C136 1.342 1_554 S
C132 C133 1.310 . S
C132 C135 1.461 . S
C132 H152 0.932 . S
C133 C131 1.408 . S
C133 C132 1.310 . S
C133 H153 0.930 . S
C134 C135 1.474 1_556 S
C134 C136 1.285 . S
C134 H154 0.929 . S
C135 C132 1.461 . S
C135 C134 1.474 1_554 S
C136 C131 1.342 1_556 S
C136 C134 1.285 . S
C136 H155 0.930 . S
C137 C140 1.424 . S
C137 C142 1.245 . S
C137 C143 1.428 1_556 S
C138 C141 1.260 . S
C138 C142 1.477 . S
C138 H156 0.932 . S
C139 C140 1.384 . S
C139 C141 1.479 . S
C139 H157 0.929 . S
C140 C137 1.424 . S
C140 C139 1.384 . S
C140 H158 0.928 1_556 S
C141 C138 1.260 . S
C141 C139 1.479 . S
C142 C137 1.245 . S
C142 C138 1.477 . S
C142 H159 0.932 . S
C143 U126 2.882 . S
C143 C137 1.428 1_554 S
C143 O146 1.301 1_554 S
C143 O147 1.282 . S
O144 U126 2.441 . S
O144 C130 1.249 . S
O145 U126 2.420 . S
O145 C130 1.202 . S
O146 U126 2.455 1_556 S
O146 C143 1.301 1_556 S
O147 U126 2.449 . S
O147 C143 1.282 . S
H148 C121 0.931 . S
H149 C123 0.929 . S
H150 C124 0.930 . S
H151 C125 0.931 . S
H152 C132 0.932 . S
H153 C133 0.930 . S
H154 C134 0.929 . S
H155 C136 0.930 . S
H156 C138 0.932 . S
H157 C139 0.929 . S
H158 C140 0.928 1_554 S
H159 C142 0.932 . S
C160 C161 1.264 . S
C160 C165 1.479 . S
C160 C170 1.465 . S
C161 C160 1.264 . S
C161 C163 1.339 1_554 S
C161 H188 0.931 . S
C162 C163 1.395 . S
C162 C164 1.320 . S
C163 C161 1.339 1_556 S
C163 C162 1.395 . S
C163 H189 0.929 . S
C164 C162 1.320 . S
C164 C165 1.405 1_556 S
C164 H190 0.930 . S
C165 C160 1.479 . S
C165 C164 1.405 1_554 S
C165 H191 0.931 . S
U166 O167 2.454 . S
U166 O168 2.458 . S
U166 C169 2.984 . S
U166 C170 2.847 . S
U166 C183 2.882 . S
U166 O184 2.441 . S
U166 O185 2.420 . S
U166 O186 2.455 . S
U166 O187 2.449 . S
O167 U166 2.454 . S
O167 C169 1.353 . S
O168 U166 2.458 . S
O168 C169 1.286 . S
C169 U166 2.984 . S
C169 O167 1.353 . S
C169 O168 1.286 . S
C169 C171 1.363 . S
C170 C160 1.465 . S
C170 U166 2.847 . S
C170 O184 1.249 . S
C170 O185 1.202 . S
C171 C169 1.363 . S
C171 C173 1.408 . S
C171 C176 1.342 . S
C172 C173 1.310 . S
C172 C175 1.461 . S
C172 H192 0.932 . S
C173 C171 1.408 . S
C173 C172 1.310 . S
C173 H193 0.930 . S
C174 C175 1.474 . S
C174 C176 1.285 . S
C174 H194 0.929 . S
C175 C172 1.461 . S
C175 C174 1.474 . S
C176 C171 1.342 . S
C176 C174 1.285 . S
C176 H195 0.930 . S
C177 C180 1.424 . S
C177 C182 1.245 . S
C177 C183 1.428 . S
C178 C181 1.260 . S
C178 C182 1.477 . S
C178 H196 0.932 . S
C179 C180 1.384 . S
C179 C181 1.479 . S
C179 H197 0.929 . S
C180 C177 1.424 . S
C180 C179 1.384 . S
C180 H198 0.928 . S
C181 C178 1.260 . S
C181 C179 1.479 . S
C182 C177 1.245 . S
C182 C178 1.477 . S
C182 H199 0.932 . S
C183 U166 2.882 . S
C183 C177 1.428 . S
C183 O186 1.301 . S
C183 O187 1.282 . S
O184 U166 2.441 . S
O184 C170 1.249 . S
O185 U166 2.420 . S
O185 C170 1.202 . S
O186 U166 2.455 . S
O186 C183 1.301 . S
O187 U166 2.449 . S
O187 C183 1.282 . S
H188 C161 0.931 . S
H189 C163 0.929 . S
H190 C164 0.930 . S
H191 C165 0.931 . S
H192 C172 0.932 . S
H193 C173 0.930 . S
H194 C174 0.929 . S
H195 C176 0.930 . S
H196 C178 0.932 . S
H197 C179 0.929 . S
H198 C180 0.928 . S
H199 C182 0.932 . S
C200 C201 1.264 . S
C200 C205 1.479 . S
C200 C210 1.465 . S
C201 C200 1.264 . S
C201 C203 1.339 . S
C201 H228 0.931 . S
C202 C203 1.395 . S
C202 C204 1.320 . S
C203 C201 1.339 . S
C203 C202 1.395 . S
C203 H229 0.929 . S
C204 C202 1.320 . S
C204 C205 1.405 . S
C204 H230 0.930 . S
C205 C200 1.479 . S
C205 C204 1.405 . S
C205 H231 0.931 . S
U206 O207 2.454 . S
U206 O208 2.458 . S
U206 C209 2.984 . S
U206 C210 2.847 . S
U206 C223 2.882 . S
U206 O224 2.441 . S
U206 O225 2.420 . S
U206 O226 2.455 . S
U206 O227 2.449 . S
O207 U206 2.454 . S
O207 C209 1.353 . S
O208 U206 2.458 . S
O208 C209 1.286 . S
C209 U206 2.984 . S
C209 O207 1.353 . S
C209 O208 1.286 . S
C209 C211 1.363 . S
C210 C200 1.465 . S
C210 U206 2.847 . S
C210 O224 1.249 . S
C210 O225 1.202 . S
C211 C209 1.363 . S
C211 C213 1.408 . S
C211 C216 1.342 . S
C212 C213 1.310 . S
C212 C215 1.461 . S
C212 H232 0.932 . S
C213 C211 1.408 . S
C213 C212 1.310 . S
C213 H233 0.930 . S
C214 C215 1.474 . S
C214 C216 1.285 . S
C214 H234 0.929 . S
C215 C212 1.461 . S
C215 C214 1.474 . S
C216 C211 1.342 . S
C216 C214 1.285 . S
C216 H235 0.930 . S
C217 C220 1.424 . S
C217 C222 1.245 . S
C217 C223 1.428 . S
C218 C221 1.260 . S
C218 C222 1.477 . S
C218 H236 0.932 . S
C219 C220 1.384 . S
C219 C221 1.479 . S
C219 H237 0.929 . S
C220 C217 1.424 . S
C220 C219 1.384 . S
C220 H238 0.928 . S
C221 C218 1.260 . S
C221 C219 1.479 . S
C222 C217 1.245 . S
C222 C218 1.477 . S
C222 H239 0.932 . S
C223 U206 2.882 . S
C223 C217 1.428 . S
C223 O226 1.301 . S
C223 O227 1.282 . S
O224 U206 2.441 . S
O224 C210 1.249 . S
O225 U206 2.420 . S
O225 C210 1.202 . S
O226 U206 2.455 . S
O226 C223 1.301 . S
O227 U206 2.449 . S
O227 C223 1.282 . S
H228 C201 0.931 . S
H229 C203 0.929 . S
H230 C204 0.930 . S
H231 C205 0.931 . S
H232 C212 0.932 . S
H233 C213 0.930 . S
H234 C214 0.929 . S
H235 C216 0.930 . S
H236 C218 0.932 . S
H237 C219 0.929 . S
H238 C220 0.928 . S
H239 C222 0.932 . S
C240 C241 1.264 . S
C240 C245 1.479 . S
C240 C250 1.465 . S
C241 C240 1.264 . S
C241 C243 1.339 . S
C241 H268 0.931 . S
C242 C243 1.395 1_556 S
C242 C244 1.320 1_556 S
C243 C241 1.339 . S
C243 C242 1.395 1_554 S
C243 H269 0.929 . S
C244 C242 1.320 1_554 S
C244 C245 1.405 . S
C244 H270 0.922 1_544 S
C245 C240 1.479 . S
C245 C244 1.405 . S
C245 H271 0.931 . S
U246 O247 2.454 . S
U246 O248 2.458 . S
U246 C249 2.984 . S
U246 C250 2.847 . S
U246 C263 2.882 . S
U246 O264 2.441 . S
U246 O265 2.420 . S
U246 O266 2.455 . S
U246 O267 2.449 . S
O247 U246 2.454 . S
O247 C249 1.353 . S
O248 U246 2.458 . S
O248 C249 1.286 . S
C249 U246 2.984 . S
C249 O247 1.353 . S
C249 O248 1.286 . S
C249 C251 1.363 . S
C250 C240 1.465 . S
C250 U246 2.847 . S
C250 O264 1.249 . S
C250 O265 1.202 . S
C251 C249 1.363 . S
C251 C253 1.408 . S
C251 C256 1.342 . S
C252 C253 1.310 . S
C252 C255 1.461 . S
C252 H272 0.932 . S
C253 C251 1.408 . S
C253 C252 1.310 . S
C253 H273 0.930 . S
C254 C255 1.474 1_565 S
C254 C256 1.285 1_565 S
C254 H274 0.929 . S
C255 C252 1.461 . S
C255 C254 1.474 1_545 S
C256 C251 1.342 . S
C256 C254 1.285 1_545 S
C256 H275 0.930 . S
C257 C260 1.424 . S
C257 C262 1.245 . S
C257 C263 1.428 . S
C258 C261 1.260 . S
C258 C262 1.477 . S
C258 H276 0.932 . S
C259 C260 1.384 . S
C259 C261 1.479 . S
C259 H277 0.929 . S
C260 C257 1.424 . S
C260 C259 1.384 . S
C260 H278 0.928 . S
C261 C258 1.260 . S
C261 C259 1.479 . S
C262 C257 1.245 . S
C262 C258 1.477 . S
C262 H279 0.932 . S
C263 U246 2.882 . S
C263 C257 1.428 . S
C263 O266 1.301 . S
C263 O267 1.282 . S
O264 U246 2.441 . S
O264 C250 1.249 . S
O265 U246 2.420 . S
O265 C250 1.202 . S
O266 U246 2.455 . S
O266 C263 1.301 . S
O267 U246 2.449 . S
O267 C263 1.282 . S
H268 C241 0.931 . S
H269 C243 0.929 . S
H270 C244 0.922 1_566 S
H271 C245 0.931 . S
H272 C252 0.932 . S
H273 C253 0.930 . S
H274 C254 0.929 . S
H275 C256 0.930 . S
H276 C258 0.932 . S
H277 C259 0.929 . S
H278 C260 0.928 . S
H279 C262 0.932 . S
C280 C281 1.264 . S
C280 C285 1.479 . S
C280 C290 1.465 . S
C281 C280 1.264 . S
C281 C283 1.339 . S
C281 H308 0.931 . S
C282 C283 1.395 1_556 S
C282 C284 1.320 . S
C283 C281 1.339 . S
C283 C282 1.395 1_554 S
C283 H309 0.929 . S
C284 C282 1.320 . S
C284 C285 1.405 1_556 S
C284 H310 0.930 . S
C285 C280 1.479 . S
C285 C284 1.405 1_554 S
C285 H311 0.931 . S
U286 O287 2.454 . S
U286 O288 2.458 . S
U286 C289 2.984 . S
U286 C290 2.847 . S
U286 C303 2.882 . S
U286 O304 2.441 . S
U286 O305 2.420 . S
U286 O306 2.455 . S
U286 O307 2.449 . S
O287 U286 2.454 . S
O287 C289 1.353 . S
O288 U286 2.458 . S
O288 C289 1.286 . S
C289 U286 2.984 . S
C289 O287 1.353 . S
C289 O288 1.286 . S
C289 C291 1.363 . S
C290 C280 1.465 . S
C290 U286 2.847 . S
C290 O304 1.249 . S
C290 O305 1.202 . S
C291 C289 1.363 . S
C291 C293 1.408 . S
C291 C296 1.342 . S
C292 C293 1.310 . S
C292 C295 1.461 . S
C292 H312 0.932 . S
C293 C291 1.408 . S
C293 C292 1.310 . S
C293 H313 0.930 . S
C294 C295 1.474 . S
C294 C296 1.285 . S
C294 H314 0.929 . S
C295 C292 1.461 . S
C295 C294 1.474 . S
C296 C291 1.342 . S
C296 C294 1.285 . S
C296 H315 0.930 . S
C297 C300 1.424 . S
C297 C302 1.245 . S
C297 C303 1.428 . S
C298 C301 1.260 . S
C298 C302 1.477 . S
C298 H316 0.932 . S
C299 C300 1.384 . S
C299 C301 1.479 . S
C299 H317 0.929 . S
C300 C297 1.424 . S
C300 C299 1.384 . S
C300 H318 0.928 . S
C301 C298 1.260 . S
C301 C299 1.479 . S
C302 C297 1.245 . S
C302 C298 1.477 . S
C302 H319 0.932 . S
C303 U286 2.882 . S
C303 C297 1.428 . S
C303 O306 1.301 . S
C303 O307 1.282 . S
O304 U286 2.441 . S
O304 C290 1.249 . S
O305 U286 2.420 . S
O305 C290 1.202 . S
O306 U286 2.455 . S
O306 C303 1.301 . S
O307 U286 2.449 . S
O307 C303 1.282 . S
H308 C281 0.931 . S
H309 C283 0.929 . S
H310 C284 0.930 . S
H311 C285 0.931 . S
H312 C292 0.932 . S
H313 C293 0.930 . S
H314 C294 0.929 . S
H315 C296 0.930 . S
H316 C298 0.932 . S
H317 C299 0.929 . S
H318 C300 0.928 . S
H319 C302 0.932 . S
C320 O336 1.251 . S
C320 O338 1.254 . S
N321 C322 1.333 . S
N321 C326 1.307 . S
N321 Zn327 2.020 1_655 S
C322 N321 1.333 . S
C322 C323 1.379 . S
C322 H340 0.952 1_655 S
C323 C322 1.379 . S
C323 C324 1.390 . S
C323 H350 0.949 . S
C324 C323 1.390 . S
C324 C325 1.357 . S
C325 C324 1.357 . S
C325 C326 1.370 . S
C325 H351 0.950 . S
C326 N321 1.307 . S
C326 C325 1.370 . S
C326 H344 0.948 1_565 S
Zn327 N321 2.020 1_455 S
Zn327 O336 2.039 . S
Zn327 O342 2.034 . S
Zn327 O346 2.025 1_565 S
Zn327 O348 2.031 1_455 S
C328 O347 1.246 . S
C328 O348 1.240 1_545 S
N329 C330 1.307 . S
N329 C331 1.333 . S
N329 Zn335 2.020 . S
C330 N329 1.307 . S
C330 C334 1.370 . S
C330 H341 0.948 1_545 S
C331 N329 1.333 . S
C331 C332 1.379 . S
C331 H339 0.952 . S
C332 C331 1.379 . S
C332 C333 1.390 . S
C332 H352 0.949 . S
C333 C332 1.390 . S
C333 C334 1.357 . S
C334 C330 1.370 . S
C334 C333 1.357 . S
C334 H353 0.950 1_556 S
Zn335 N329 2.020 . S
Zn335 O338 2.025 1_545 S
Zn335 O343 2.034 . S
Zn335 O345 2.039 . S
Zn335 O347 2.034 1_455 S
O336 C320 1.251 . S
O336 Zn327 2.039 . S
C337 O342 1.246 . S
C337 O343 1.235 1_565 S
O338 C320 1.254 . S
O338 Zn335 2.025 1_565 S
H339 C331 0.952 . S
H340 C322 0.952 1_455 S
H341 C330 0.948 1_565 S
O342 Zn327 2.034 . S
O342 C337 1.246 . S
O343 Zn335 2.034 . S
O343 C337 1.235 1_545 S
H344 C326 0.948 1_545 S
O345 Zn335 2.039 . S
O345 C349 1.251 . S
O346 Zn327 2.025 1_545 S
O346 C349 1.254 . S
O347 C328 1.246 . S
O347 Zn335 2.034 1_655 S
O348 Zn327 2.031 1_655 S
O348 C328 1.240 1_565 S
C349 O345 1.251 . S
C349 O346 1.254 . S
H350 C323 0.949 . S
H351 C325 0.950 . S
H352 C332 0.949 . S
H353 C334 0.950 1_554 S
C354 O370 1.251 1_565 S
C354 O372 1.254 . S
N355 C356 1.333 . S
N355 C360 1.307 . S
N355 Zn361 2.020 . S
C356 N355 1.333 . S
C356 C357 1.379 . S
C356 H374 0.952 . S
C357 C356 1.379 . S
C357 C358 1.390 . S
C357 H384 0.949 . S
C358 C357 1.390 . S
C358 C359 1.357 . S
C359 C358 1.357 . S
C359 C360 1.370 . S
C359 H385 0.950 . S
C360 N355 1.307 . S
C360 C359 1.370 . S
C360 H378 0.948 . S
Zn361 N355 2.020 . S
Zn361 O370 2.039 . S
Zn361 O376 2.034 . S
Zn361 O380 2.025 . S
Zn361 O382 2.024 . S
C362 O381 1.246 1_545 S
C362 O382 1.249 . S
N363 C364 1.307 . S
N363 C365 1.333 . S
N363 Zn369 2.020 . S
C364 N363 1.307 . S
C364 C368 1.370 . S
C364 H375 0.948 . S
C365 N363 1.333 . S
C365 C366 1.379 . S
C365 H373 0.952 . S
C366 C365 1.379 . S
C366 C367 1.390 . S
C366 H386 0.949 . S
C367 C366 1.390 . S
C367 C368 1.357 . S
C368 C364 1.370 . S
C368 C367 1.357 . S
C368 H387 0.950 . S
Zn369 N363 2.020 . S
Zn369 O372 2.025 . S
Zn369 O377 2.024 . S
Zn369 O379 2.039 . S
Zn369 O381 2.034 . S
O370 C354 1.251 1_545 S
O370 Zn361 2.039 . S
C371 O376 1.246 1_565 S
C371 O377 1.249 . S
O372 C354 1.254 . S
O372 Zn369 2.025 . S
H373 C365 0.952 . S
H374 C356 0.952 . S
H375 C364 0.948 . S
O376 Zn361 2.034 . S
O376 C371 1.246 1_545 S
O377 Zn369 2.024 . S
O377 C371 1.249 . S
H378 C360 0.948 . S
O379 Zn369 2.039 . S
O379 C383 1.251 1_565 S
O380 Zn361 2.025 . S
O380 C383 1.254 . S
O381 C362 1.246 1_565 S
O381 Zn369 2.034 . S
O382 Zn361 2.024 . S
O382 C362 1.249 . S
C383 O379 1.251 1_545 S
C383 O380 1.254 . S
H384 C357 0.949 . S
H385 C359 0.950 . S
H386 C366 0.949 . S
H387 C368 0.950 . S
C388 O404 1.251 . S
C388 O406 1.254 . S
N389 C390 1.333 . S
N389 C394 1.307 . S
N389 Zn395 2.020 . S
C390 N389 1.333 . S
C390 C391 1.379 . S
C390 H408 0.952 . S
C391 C390 1.379 . S
C391 C392 1.390 . S
C391 H418 0.949 . S
C392 C391 1.390 . S
C392 C393 1.357 . S
C393 C392 1.357 . S
C393 C394 1.370 . S
C393 H419 0.950 . S
C394 N389 1.307 . S
C394 C393 1.370 . S
C394 H412 0.948 . S
Zn395 N389 2.020 . S
Zn395 O404 2.039 . S
Zn395 O410 2.034 . S
Zn395 O414 2.025 . S
Zn395 O416 2.024 . S
C396 O415 1.246 . S
C396 O416 1.249 . S
N397 C398 1.307 . S
N397 C399 1.333 . S
N397 Zn403 2.020 . S
C398 N397 1.307 . S
C398 C402 1.370 . S
C398 H409 0.948 . S
C399 N397 1.333 . S
C399 C400 1.379 . S
C399 H407 0.952 . S
C400 C399 1.379 . S
C400 C401 1.390 . S
C400 H420 0.949 . S
C401 C400 1.390 . S
C401 C402 1.357 . S
C402 C398 1.370 . S
C402 C401 1.357 . S
C402 H421 0.950 . S
Zn403 N397 2.020 . S
Zn403 O406 2.025 . S
Zn403 O411 2.024 . S
Zn403 O413 2.039 . S
Zn403 O415 2.034 . S
O404 C388 1.251 . S
O404 Zn395 2.039 . S
C405 O410 1.246 . S
C405 O411 1.249 . S
O406 C388 1.254 . S
O406 Zn403 2.025 . S
H407 C399 0.952 . S
H408 C390 0.952 . S
H409 C398 0.948 . S
O410 Zn395 2.034 . S
O410 C405 1.246 . S
O411 Zn403 2.024 . S
O411 C405 1.249 . S
H412 C394 0.948 . S
O413 Zn403 2.039 . S
O413 C417 1.251 . S
O414 Zn395 2.025 . S
O414 C417 1.254 . S
O415 C396 1.246 . S
O415 Zn403 2.034 . S
O416 Zn395 2.024 . S
O416 C396 1.249 . S
C417 O413 1.251 . S
C417 O414 1.254 . S
H418 C391 0.949 . S
H419 C393 0.950 . S
H420 C400 0.949 . S
H421 C402 0.950 . S
C422 O438 1.251 . S
C422 O440 1.254 . S
N423 C424 1.333 . S
N423 C428 1.307 . S
N423 Zn429 2.020 . S
C424 N423 1.333 . S
C424 C425 1.379 . S
C424 H442 0.952 . S
C425 C424 1.379 . S
C425 C426 1.390 . S
C425 H452 0.949 . S
C426 C425 1.390 . S
C426 C427 1.357 . S
C427 C426 1.357 . S
C427 C428 1.370 . S
C427 H453 0.950 . S
C428 N423 1.307 . S
C428 C427 1.370 . S
C428 H446 0.948 . S
Zn429 N423 2.020 . S
Zn429 O438 2.039 . S
Zn429 O444 2.034 1_455 S
Zn429 O448 2.025 1_455 S
Zn429 O450 2.024 . S
C430 O449 1.246 . S
C430 O450 1.249 . S
N431 C432 1.307 . S
N431 C433 1.326 1_455 S
N431 Zn437 2.023 . S
C432 N431 1.307 . S
C432 C436 1.370 1_455 S
C432 H443 0.948 . S
C433 N431 1.326 1_655 S
C433 C434 1.379 . S
C433 H441 0.952 . S
C434 C433 1.379 . S
C434 C435 1.390 . S
C434 H454 0.949 . S
C435 C434 1.390 . S
C435 C436 1.357 . S
C436 C432 1.370 1_655 S
C436 C435 1.357 . S
C436 H455 0.950 . S
Zn437 N431 2.023 . S
Zn437 O440 2.025 . S
Zn437 O445 2.024 1_455 S
Zn437 O447 2.039 1_455 S
Zn437 O449 2.034 . S
O438 C422 1.251 . S
O438 Zn429 2.039 . S
C439 O444 1.246 . S
C439 O445 1.249 . S
O440 C422 1.254 . S
O440 Zn437 2.025 . S
H441 C433 0.952 . S
H442 C424 0.952 . S
H443 C432 0.948 . S
O444 Zn429 2.034 1_655 S
O444 C439 1.246 . S
O445 Zn437 2.024 1_655 S
O445 C439 1.249 . S
H446 C428 0.948 . S
O447 Zn437 2.039 1_655 S
O447 C451 1.251 . S
O448 Zn429 2.025 1_655 S
O448 C451 1.254 . S
O449 C430 1.246 . S
O449 Zn437 2.034 . S
O450 Zn429 2.024 . S
O450 C430 1.249 . S
C451 O447 1.251 . S
C451 O448 1.254 . S
H452 C425 0.949 . S
H453 C427 0.950 . S
H454 C434 0.949 . S
H455 C436 0.950 . S
C456 C457 1.387 . S
C456 H460 0.950 . S
C456 C465 1.390 . S
C457 C456 1.387 . S
C457 C459 1.387 1_565 S
H458 C465 0.950 . S
C459 C457 1.387 1_545 S
C459 C461 1.390 . S
C459 H463 0.950 . S
H460 C456 0.950 . S
C461 C459 1.390 . S
C461 C462 1.387 1_545 S
C461 H464 0.950 . S
C462 C461 1.387 1_565 S
C462 C465 1.387 . S
H463 C459 0.950 . S
H464 C461 0.950 . S
C465 C456 1.390 . S
C465 H458 0.950 . S
C465 C462 1.387 . S
C466 C467 1.387 . S
C466 H470 0.950 . S
C466 C475 1.390 . S
C467 C466 1.387 . S
C467 C469 1.387 . S
H468 C475 0.950 . S
C469 C467 1.387 . S
C469 C471 1.390 . S
C469 H473 0.950 . S
H470 C466 0.950 . S
C471 C469 1.390 . S
C471 C472 1.387 . S
C471 H474 0.950 . S
C472 C471 1.387 . S
C472 C475 1.387 . S
H473 C469 0.950 . S
H474 C471 0.950 . S
C475 C466 1.390 . S
C475 H468 0.950 . S
C475 C472 1.387 . S
C476 C477 1.387 . S
C476 H480 0.950 . S
C476 C485 1.390 . S
C477 C476 1.387 . S
C477 C479 1.387 . S
H478 C485 0.950 . S
C479 C477 1.387 . S
C479 C481 1.390 . S
C479 H483 0.950 . S
H480 C476 0.950 . S
C481 C479 1.390 . S
C481 C482 1.387 . S
C481 H484 0.950 . S
C482 C481 1.387 . S
C482 C485 1.387 . S
H483 C479 0.950 . S
H484 C481 0.950 . S
C485 C476 1.390 . S
C485 H478 0.950 . S
C485 C482 1.387 . S
C486 C487 1.387 . S
C486 H490 0.950 . S
C486 C495 1.390 . S
C487 C486 1.387 . S
C487 C489 1.387 . S
H488 C495 0.950 . S
C489 C487 1.387 . S
C489 C491 1.390 . S
C489 H493 0.950 . S
H490 C486 0.950 . S
C491 C489 1.390 . S
C491 C492 1.387 . S
C491 H494 0.950 . S
C492 C491 1.387 . S
C492 C495 1.387 . S
H493 C489 0.950 . S
H494 C491 0.950 . S
C495 C486 1.390 . S
C495 H488 0.950 . S
C495 C492 1.387 . S
C496 C497 1.387 1_565 S
C496 H500 0.950 . S
C496 C505 1.390 . S
C497 C496 1.387 1_545 S
C497 C499 1.387 . S
H498 C505 0.950 . S
C499 C497 1.387 . S
C499 C501 1.390 . S
C499 H503 0.950 . S
H500 C496 0.950 . S
C501 C499 1.390 . S
C501 C502 1.387 . S
C501 H504 0.950 . S
C502 C501 1.387 . S
C502 C505 1.387 1_545 S
H503 C499 0.950 . S
H504 C501 0.950 . S
C505 C496 1.390 . S
C505 H498 0.950 . S
C505 C502 1.387 1_565 S
C506 C507 1.387 . S
C506 H510 0.950 . S
C506 C515 1.390 . S
C507 C506 1.387 . S
C507 C509 1.387 . S
H508 C515 0.950 . S
C509 C507 1.387 . S
C509 C511 1.390 . S
C509 H513 0.950 . S
H510 C506 0.950 . S
C511 C509 1.390 . S
C511 C512 1.387 . S
C511 H514 0.950 . S
C512 C511 1.387 . S
C512 C515 1.387 . S
H513 C509 0.950 . S
H514 C511 0.950 . S
C515 C506 1.390 . S
C515 H508 0.950 . S
C515 C512 1.387 . S
C516 C517 1.387 1_556 S
C516 H520 0.950 . S
C516 C525 1.390 . S
C517 C516 1.387 1_554 S
C517 C519 1.387 1_554 S
H518 C525 0.950 . S
C519 C517 1.387 1_556 S
C519 C521 1.390 . S
C519 H523 0.950 1_556 S
H520 C516 0.950 . S
C521 C519 1.390 . S
C521 C522 1.387 . S
C521 H524 0.950 . S
C522 C521 1.387 . S
C522 C525 1.387 . S
H523 C519 0.950 1_554 S
H524 C521 0.950 . S
C525 C516 1.390 . S
C525 H518 0.950 . S
C525 C522 1.387 . S
C526 C527 1.387 . S
C526 H530 0.950 . S
C526 C535 1.390 . S
C527 C526 1.387 . S
C527 C529 1.387 . S
H528 C535 0.950 . S
C529 C527 1.387 . S
C529 C531 1.390 . S
C529 H533 0.950 . S
H530 C526 0.950 . S
C531 C529 1.390 . S
C531 C532 1.387 . S
C531 H534 0.950 . S
C532 C531 1.387 . S
C532 C535 1.387 . S
H533 C529 0.950 . S
H534 C531 0.950 . S
C535 C526 1.390 . S
C535 H528 0.950 . S
C535 C532 1.387 . S
C536 C537 1.387 . S
C536 H540 0.950 . S
C536 C545 1.390 . S
C537 C536 1.387 . S
C537 C539 1.387 . S
H538 C545 0.950 . S
C539 C537 1.387 . S
C539 C541 1.390 . S
C539 H543 0.950 . S
H540 C536 0.950 . S
C541 C539 1.390 . S
C541 C542 1.387 . S
C541 H544 0.950 . S
C542 C541 1.387 . S
C542 C545 1.387 . S
H543 C539 0.950 . S
H544 C541 0.950 . S
C545 C536 1.390 . S
C545 H538 0.950 . S
C545 C542 1.387 . S
C546 C547 1.392 . S
C546 H550 0.950 . S
C546 C555 1.390 . S
C547 C546 1.392 . S
C547 C549 1.386 1_565 S
H548 C555 0.950 . S
C549 C547 1.386 1_545 S
C549 C551 1.390 1_545 S
C549 H553 0.950 . S
H550 C546 0.950 . S
C551 C549 1.390 1_565 S
C551 C552 1.387 . S
C551 H554 0.953 . S
C552 C551 1.387 . S
C552 C555 1.387 . S
H553 C549 0.950 . S
H554 C551 0.953 . S
C555 C546 1.390 . S
C555 H548 0.950 . S
C555 C552 1.387 . S
C556 C557 1.387 . S
C556 H560 0.950 . S
C556 C565 1.390 . S
C557 C556 1.387 . S
C557 C559 1.387 . S
H558 C565 0.950 . S
C559 C557 1.387 . S
C559 C561 1.390 . S
C559 H563 0.950 . S
H560 C556 0.950 . S
C561 C559 1.390 . S
C561 C562 1.387 . S
C561 H564 0.950 . S
C562 C561 1.387 . S
C562 C565 1.387 . S
H563 C559 0.950 . S
H564 C561 0.950 . S
C565 C556 1.390 . S
C565 H558 0.950 . S
C565 C562 1.387 . S
C566 C567 1.387 . S
C566 H570 0.950 . S
C566 C575 1.390 . S
C567 C566 1.387 . S
C567 C569 1.387 . S
H568 C575 0.950 . S
C569 C567 1.387 . S
C569 C571 1.390 . S
C569 H573 0.950 . S
H570 C566 0.950 . S
C571 C569 1.390 . S
C571 C572 1.387 . S
C571 H574 0.950 . S
C572 C571 1.387 . S
C572 C575 1.387 . S
H573 C569 0.950 . S
H574 C571 0.950 . S
C575 C566 1.390 . S
C575 H568 0.950 . S
C575 C572 1.387 . S
C576 C577 1.387 . S
C576 H580 0.950 . S
C576 C585 1.390 . S
C577 C576 1.387 . S
C577 C579 1.387 . S
H578 C585 0.950 . S
C579 C577 1.387 . S
C579 C581 1.390 . S
C579 H583 0.950 . S
H580 C576 0.950 . S
C581 C579 1.390 . S
C581 C582 1.387 . S
C581 H584 0.950 . S
C582 C581 1.387 . S
C582 C585 1.387 . S
H583 C579 0.950 . S
H584 C581 0.950 . S
C585 C576 1.390 . S
C585 H578 0.950 . S
C585 C582 1.387 . S
C586 C587 1.380 1_565 S
C586 H590 0.950 . S
C586 C595 1.390 . S
C587 C586 1.380 1_545 S
C587 C589 1.401 . S
H588 C595 0.950 . S
C589 C587 1.401 . S
C589 C591 1.390 . S
C589 H593 0.950 . S
H590 C586 0.950 . S
C591 C589 1.390 . S
C591 C592 1.387 . S
C591 H594 0.950 . S
C592 C591 1.387 . S
C592 C595 1.387 1_545 S
H593 C589 0.950 . S
H594 C591 0.950 . S
C595 C586 1.390 . S
C595 H588 0.950 . S
C595 C592 1.387 1_565 S
C596 C597 1.387 . S
C596 H600 0.950 . S
C596 C605 1.390 . S
C597 C596 1.387 . S
C597 C599 1.387 . S
H598 C605 0.950 . S
C599 C597 1.387 . S
C599 C601 1.390 . S
C599 H603 0.950 . S
H600 C596 0.950 . S
C601 C599 1.390 . S
C601 C602 1.387 . S
C601 H604 0.950 . S
C602 C601 1.387 . S
C602 C605 1.387 . S
H603 C599 0.950 . S
H604 C601 0.950 . S
C605 C596 1.390 . S
C605 H598 0.950 . S
C605 C602 1.387 . S
C606 C607 1.387 . S
C606 H610 0.950 . S
C606 C615 1.390 . S
C607 C606 1.387 . S
C607 C609 1.387 . S
H608 C615 0.950 . S
C609 C607 1.387 . S
C609 C611 1.390 . S
C609 H613 0.950 . S
H610 C606 0.950 . S
C611 C609 1.390 . S
C611 C612 1.387 . S
C611 H614 0.950 . S
C612 C611 1.387 . S
C612 C615 1.387 . S
H613 C609 0.950 . S
H614 C611 0.950 . S
C615 C606 1.390 . S
C615 H608 0.950 . S
C615 C612 1.387 . S
C616 C617 1.387 . S
C616 H620 0.950 . S
C616 C625 1.390 . S
C617 C616 1.387 . S
C617 C619 1.387 1_554 S
H618 C625 0.950 . S
C619 C617 1.387 1_556 S
C619 C621 1.390 . S
C619 H623 0.950 . S
H620 C616 0.950 . S
C621 C619 1.390 . S
C621 C622 1.387 1_556 S
C621 H624 0.950 . S
C622 C621 1.387 1_554 S
C622 C625 1.387 . S
H623 C619 0.950 . S
H624 C621 0.950 . S
C625 C616 1.390 . S
C625 H618 0.950 . S
C625 C622 1.387 . S
C626 C627 1.387 . S
C626 H630 0.950 . S
C626 C635 1.390 . S
C627 C626 1.387 . S
C627 C629 1.387 1_545 S
H628 C635 0.950 . S
C629 C627 1.387 1_565 S
C629 C631 1.390 . S
C629 H633 0.950 . S
H630 C626 0.950 . S
C631 C629 1.390 . S
C631 C632 1.387 1_565 S
C631 H634 0.950 . S
C632 C631 1.387 1_545 S
C632 C635 1.387 . S
H633 C629 0.950 . S
H634 C631 0.950 . S
C635 C626 1.390 . S
C635 H628 0.950 . S
C635 C632 1.387 . S
C636 C637 1.387 . S
C636 H640 0.950 1_556 S
C636 C645 1.390 . S
C637 C636 1.387 . S
C637 C639 1.387 . S
H638 C645 0.950 . S
C639 C637 1.387 . S
C639 C641 1.390 . S
C639 H643 0.950 . S
H640 C636 0.950 1_554 S
C641 C639 1.390 . S
C641 C642 1.387 . S
C641 H644 0.950 . S
C642 C641 1.387 . S
C642 C645 1.387 . S
H643 C639 0.950 . S
H644 C641 0.950 . S
C645 C636 1.390 . S
C645 H638 0.950 . S
C645 C642 1.387 . S
C646 C647 1.387 . S
C646 H650 0.950 . S
C646 C655 1.390 . S
C647 C646 1.387 . S
C647 C649 1.387 . S
H648 C655 0.950 . S
C649 C647 1.387 . S
C649 C651 1.390 . S
C649 H653 0.950 . S
H650 C646 0.950 . S
C651 C649 1.390 . S
C651 C652 1.387 . S
C651 H654 0.950 . S
C652 C651 1.387 . S
C652 C655 1.387 . S
H653 C649 0.950 . S
H654 C651 0.950 . S
C655 C646 1.390 . S
C655 H648 0.950 . S
C655 C652 1.387 . S
C656 C657 1.387 . S
C656 H660 0.950 . S
C656 C665 1.390 . S
C657 C656 1.387 . S
C657 C659 1.387 . S
H658 C665 0.950 . S
C659 C657 1.387 . S
C659 C661 1.390 . S
C659 H663 0.950 . S
H660 C656 0.950 . S
C661 C659 1.390 . S
C661 C662 1.387 . S
C661 H664 0.950 . S
C662 C661 1.387 . S
C662 C665 1.387 . S
H663 C659 0.950 . S
H664 C661 0.950 . S
C665 C656 1.390 . S
C665 H658 0.950 . S
C665 C662 1.387 . S
C666 C667 1.351 1_545 S
C666 H670 0.950 . S
C666 C675 1.390 . S
C667 C666 1.351 1_565 S
C667 C669 1.423 . S
H668 C675 0.950 . S
C669 C667 1.423 . S
C669 C671 1.390 . S
C669 H673 0.950 . S
H670 C666 0.950 . S
C671 C669 1.390 . S
C671 C672 1.387 . S
C671 H674 0.950 . S
C672 C671 1.387 . S
C672 C675 1.387 1_565 S
H673 C669 0.950 . S
H674 C671 0.950 . S
C675 C666 1.390 . S
C675 H668 0.950 . S
C675 C672 1.387 1_545 S
C676 C677 1.387 . S
C676 H680 0.950 . S
C676 C685 1.390 . S
C677 C676 1.387 . S
C677 C679 1.387 . S
H678 C685 0.950 . S
C679 C677 1.387 . S
C679 C681 1.390 . S
C679 H683 0.950 . S
H680 C676 0.950 . S
C681 C679 1.390 . S
C681 C682 1.387 . S
C681 H684 0.950 . S
C682 C681 1.387 . S
C682 C685 1.387 . S
H683 C679 0.950 . S
H684 C681 0.950 . S
C685 C676 1.390 . S
C685 H678 0.950 . S
C685 C682 1.387 . S
C686 C687 1.387 . S
C686 H690 0.950 . S
C686 C695 1.390 . S
C687 C686 1.387 . S
C687 C689 1.387 . S
H688 C695 0.950 . S
C689 C687 1.387 . S
C689 C691 1.390 . S
C689 H693 0.950 . S
H690 C686 0.950 . S
C691 C689 1.390 . S
C691 C692 1.387 . S
C691 H694 0.950 . S
C692 C691 1.387 . S
C692 C695 1.387 . S
H693 C689 0.950 . S
H694 C691 0.950 . S
C695 C686 1.390 . S
C695 H688 0.950 . S
C695 C692 1.387 . S
C457 C255 1.979 1_565 S
C462 C337 2.009 . S
C472 C358 1.890 . S
C467 C295 1.840 . S
C482 C392 1.840 . S
C477 C175 1.794 . S
C492 C426 1.843 . S
C487 C215 1.784 . S
C502 C328 2.009 . S
C497 C95 1.977 . S
C507 C135 1.837 1_556 S
C512 C367 1.897 . S
C517 C15 1.800 . S
C522 C401 1.839 . S
C527 C55 1.770 . S
C532 C435 1.842 . S
C542 C349 1.431 . S
C537 C221 1.349 . S
C552 C354 0.836 . S
C547 C261 0.827 1_565 S
C562 C388 1.061 . S
C557 C301 1.070 . S
C567 C181 0.685 . S
C572 C422 0.570 . S
C577 C61 1.090 . S
C582 C320 1.431 1_655 S
C592 C383 0.837 . S
C587 C101 0.823 . S
C602 C417 1.065 . S
C597 C141 0.959 . S
C607 C21 0.582 . S
C612 C451 0.564 . S
C617 C202 1.974 . S
C622 C333 2.039 1_554 S
C627 C242 2.243 . S
C632 C362 2.371 . S
C642 C396 2.127 . S
C637 C282 2.030 . S
C652 C430 2.229 . S
C647 C162 2.018 . S
C657 C42 1.867 . S
C662 C324 2.046 . S
C672 C371 2.371 . S
C667 C82 2.250 1_565 S
C682 C405 2.126 . S
C677 C122 1.948 . S
C687 C2 2.120 . S
C692 C439 2.229 . S
