# Generated by pormake.
# Topology nia, (6,6)-cn, num edge types: 1
# Building blocks:
#     Node 0, Type 0, BuildingBlock: HISSIN_clean_sbu_0, # of connection points: 6
#     Node 1, Type 0, BuildingBlock: HISSIN_clean_sbu_0, # of connection points: 6
#     Node 2, Type 1, BuildingBlock: MIDCAF_clean_sbu_0, # of connection points: 6
#     Node 3, Type 1, BuildingBlock: MIDCAF_clean_sbu_0, # of connection points: 6
#     Edge 4, Type (0, 1), BuildingBlock: ZUJKAS_clean_linker_0, # of connection points: 2
#     Edge 5, Type (0, 1), BuildingBlock: ZUJKAS_clean_linker_0, # of connection points: 2
#     Edge 6, Type (0, 1), BuildingBlock: ZUJKAS_clean_linker_0, # of connection points: 2
#     Edge 7, Type (0, 1), BuildingBlock: ZUJKAS_clean_linker_0, # of connection points: 2
#     Edge 8, Type (0, 1), BuildingBlock: ZUJKAS_clean_linker_0, # of connection points: 2
#     Edge 9, Type (0, 1), BuildingBlock: ZUJKAS_clean_linker_0, # of connection points: 2
#     Edge 10, Type (0, 1), BuildingBlock: ZUJKAS_clean_linker_0, # of connection points: 2
#     Edge 11, Type (0, 1), BuildingBlock: ZUJKAS_clean_linker_0, # of connection points: 2
#     Edge 12, Type (0, 1), BuildingBlock: ZUJKAS_clean_linker_0, # of connection points: 2
#     Edge 13, Type (0, 1), BuildingBlock: ZUJKAS_clean_linker_0, # of connection points: 2
#     Edge 14, Type (0, 1), BuildingBlock: ZUJKAS_clean_linker_0, # of connection points: 2
#     Edge 15, Type (0, 1), BuildingBlock: ZUJKAS_clean_linker_0, # of connection points: 2
# Relax obj value: 0.314
# Max RMSD: 0.258
# Mean RMSD: 0.242
data_MOF--net-nia--node1-HISSIN_clean_sbu_0--node2-MIDCAF_clean_sbu_0--edge1-ZUJKAS_clean_linker_0
_symmetry_space_group_name_H-M    P1
_symmetry_Int_Tables_number       1
_symmetry_cell_setting            triclinic
loop_
_symmetry_equiv_pos_as_xyz
'x, y, z'
_cell_length_a     32.699523
_cell_length_b     32.686595
_cell_length_c     41.645687
_cell_angle_alpha  81.927843
_cell_angle_beta   81.549913
_cell_angle_gamma 118.43692
loop_
_atom_site_label
_atom_site_type_symbol
_atom_site_fract_x
_atom_site_fract_y
_atom_site_fract_z
_atom_type_partial_charge
Eu0 Eu 0.01212 0.05381 0.0604 0.0
Eu1 Eu 0.9803 0.97948 1.01311 0.0
C2 C 0.08933 0.06502 0.99729 0.0
C3 C 0.0439 0.16217 0.09801 0.0
C4 C 0.07211 0.19946 0.06916 0.0
C5 C 0.03818 0.21855 0.12748 0.0
C6 C 0.08445 0.2465 0.06985 0.0
C7 C 0.0261 0.17181 0.1268 0.0
C8 C 0.06844 0.25658 0.09931 0.0
C9 C 0.03331 0.11311 0.09923 0.0
O10 O -0.00468 0.94183 0.05591 0.0
O11 O 0.04135 0.0067 0.07572 0.0
C12 C 0.02581 0.9622 0.07398 0.0
O13 O 0.94215 0.9871 0.08895 0.0
O14 O 0.98919 0.95524 0.96758 0.0
O15 O 0.92333 0.9131 1.00687 0.0
O16 O 0.91477 0.97669 0.04244 0.0
C17 C 0.90602 0.97135 0.07487 0.0
O18 O 0.975 0.07758 0.02706 0.0
O19 O 0.98613 0.04588 0.98312 0.0
O20 O 0.06106 0.01964 0.99818 0.0
O21 O 0.98951 0.08237 0.0991 0.0
O22 O 0.06513 0.10774 0.08043 0.0
O23 O 0.07393 0.08826 1.01417 0.0
C24 C 0.94904 0.8708 0.97592 0.0
C25 C 0.93256 0.8327 1.00404 0.0
C26 C 0.95885 0.82218 0.94016 0.0
C27 C 0.92795 0.7891 1.00008 0.0
C28 C 0.96324 0.86558 0.94413 0.0
C29 C 0.94001 0.78308 0.96799 0.0
C30 C 0.94853 0.91483 0.97883 0.0
C31 C 0.97467 0.07452 0.996 0.0
H32 H 0.08563 0.19246 0.04648 0.0
H33 H 0.02602 0.22511 0.1508 0.0
H34 H 0.10767 0.27511 0.04777 0.0
H35 H 0.00406 0.14332 0.14918 0.0
H36 H 0.92178 0.83599 0.02897 0.0
H37 H 0.96769 0.81855 0.91502 0.0
H38 H 0.91368 0.75974 1.02198 0.0
H39 H 0.97601 0.89453 0.92216 0.0
Eu40 Eu 0.9558 -0.00121 0.51333 0.0
Eu41 Eu 0.03583 0.03531 0.55607 0.0
C42 C 0.95055 0.9278 0.57424 0.0
C43 C 0.84425 0.95962 0.47853 0.0
C44 C 0.80414 0.93169 0.50582 0.0
C45 C 0.79412 0.97152 0.44563 0.0
C46 C 0.75894 0.92259 0.50259 0.0
C47 C 0.83912 0.98045 0.44882 0.0
C48 C 0.75349 0.94136 0.47213 0.0
C49 C 0.89111 0.96512 0.47945 0.0
O50 O 0.07353 0.02832 0.50919 0.0
O51 O 0.00551 0.97183 0.49782 0.0
C52 C 0.05201 -0.00628 0.49444 0.0
O53 O 0.01267 0.07283 0.48296 0.0
O54 O 0.0614 0.01912 0.5991 0.0
O55 O 0.09974 0.09061 0.5664 0.0
O56 O 0.04517 0.1029 0.5253 0.0
C57 C 0.03826 0.10913 0.49523 0.0
O58 O 0.9351 0.04044 0.54395 0.0
O59 O 0.97152 0.034 0.58598 0.0
O60 O -0.00259 0.95437 0.56694 0.0
O61 O 0.92749 0.00877 0.47057 0.0
O62 O 0.8933 0.93885 0.50495 0.0
O63 O 0.9255 0.94575 0.5634 0.0
C64 C 0.14584 0.06327 0.59082 0.0
C65 C 0.18523 0.08925 0.5628 0.0
C66 C 0.19621 0.04843 0.62212 0.0
C67 C 0.23024 0.09622 0.56492 0.0
C68 C 0.15138 0.04174 0.62007 0.0
C69 C 0.23644 0.07706 0.59495 0.0
C70 C 0.09999 0.06141 0.591 0.0
C71 C 0.94189 0.04469 0.57388 0.0
H72 H 0.8073 0.91547 0.52916 0.0
H73 H 0.79085 0.98563 0.42161 0.0
H74 H 0.72802 0.89921 0.52332 0.0
H75 H 0.86967 0.00201 0.42752 0.0
H76 H 0.18181 0.10581 0.53971 0.0
H77 H 0.19987 0.03377 0.6458 0.0
H78 H 0.26055 0.11816 0.54354 0.0
H79 H 0.12146 0.02152 0.64191 0.0
Zn80 Zn 0.32751 0.73368 0.22882 0.0
Zn81 Zn 0.27045 0.68224 0.3546 0.0
Zn82 Zn 0.30109 0.70988 0.28786 0.0
C83 C 0.37121 0.72602 0.33254 0.0
C84 C 0.22955 0.59942 0.33538 0.0
O85 O 0.26404 0.74751 0.27055 0.0
O86 O 0.2742 0.74124 0.21836 0.0
C87 C 0.41131 0.784 0.24063 0.0
O88 O 0.36435 0.73637 0.30379 0.0
O89 O 0.33678 0.70057 0.35805 0.0
O90 O 0.22377 0.61423 0.36107 0.0
O91 O 0.25782 0.62937 0.30745 0.0
O92 O 0.39217 0.79087 0.21787 0.0
O93 O 0.38376 0.75283 0.2684 0.0
O94 O 0.27416 0.64357 0.27202 0.0
O95 O 0.32533 0.67366 0.22263 0.0
C96 C 0.293 0.63766 0.24504 0.0
O97 O 0.26425 0.74849 0.30404 0.0
O98 O 0.24722 0.727 0.35947 0.0
C99 C 0.2541 0.75093 0.24187 0.0
C100 C 0.24783 0.75177 0.3331 0.0
Zn101 Zn 0.6667 0.29339 0.86931 0.0
Zn102 Zn 0.71035 0.3366 0.72519 0.0
Zn103 Zn 0.69458 0.32548 0.78431 0.0
C104 C 0.73681 0.42584 0.72639 0.0
C105 C 0.61396 0.27085 0.75037 0.0
O106 O 0.72588 0.28268 0.80638 0.0
O107 O 0.69327 0.25234 0.86166 0.0
C108 C 0.73365 0.39566 0.82 0.0
O109 O 0.73228 0.40509 0.75666 0.0
O110 O 0.72404 0.40104 0.70533 0.0
O111 O 0.64748 0.28212 0.72545 0.0
O112 O 0.62315 0.28834 0.77589 0.0
O113 O 0.70721 0.35528 0.83942 0.0
O114 O 0.73574 0.39847 0.78897 0.0
O115 O 0.61523 0.29116 0.81064 0.0
O116 O 0.60109 0.27204 0.86668 0.0
C117 C 0.58657 0.27477 0.84035 0.0
O118 O 0.73466 0.28876 0.76969 0.0
O119 O 0.76522 0.32723 0.71658 0.0
C120 C 0.72012 0.25604 0.83484 0.0
C121 C 0.763 0.29835 0.74115 0.0
H122 H 0.00209 0.8678 0.07997 0.0
H123 H 0.03321 0.82486 0.1123 0.0
H124 H 0.12346 0.95345 0.14175 0.0
H125 H 0.0927 -0.0038 0.11022 0.0
H126 H 0.13063 0.84713 0.10707 0.0
H127 H 0.0488 0.8532 0.23138 0.0
H128 H 0.02957 0.8641 0.19422 0.0
H129 H 0.08284 0.91063 0.20203 0.0
C130 C 0.02835 0.88681 0.0935 0.0
C131 C 0.04423 0.93527 0.09289 0.0
C132 C 0.04615 0.86227 0.11188 0.0
C133 C 0.07981 0.88574 0.13005 0.0
C134 C 0.09658 0.93431 0.12867 0.0
H135 H 0.25422 0.83328 0.24804 0.0
H136 H 0.20743 0.86353 0.22251 0.0
C137 C 0.07893 0.95873 0.11045 0.0
C138 C 0.09832 0.86026 0.15026 0.0
H139 H 0.10997 0.83272 0.22942 0.0
C140 C 0.12563 0.84336 0.13388 0.0
C141 C 0.09196 0.85569 0.18521 0.0
C142 C 0.06133 0.87145 0.20435 0.0
C143 C 0.14826 0.82358 0.15132 0.0
C144 C 0.14251 0.81972 0.18625 0.0
C145 C 0.11448 0.83586 0.20269 0.0
C146 C 0.16575 0.79935 0.20593 0.0
C147 C 0.17954 0.80864 0.13193 0.0
C148 C 0.15593 0.7525 0.20668 0.0
C149 C 0.18273 0.73562 0.22085 0.0
C150 C 0.21892 0.76476 0.23533 0.0
C151 C 0.22609 0.8101 0.23728 0.0
C152 C 0.19965 0.8274 0.22252 0.0
H153 H 0.19023 0.82539 0.1047 0.0
H154 H 0.21251 0.81841 0.14101 0.0
H155 H 0.15934 0.76916 0.13529 0.0
H156 H 0.12897 0.72972 0.19496 0.0
H157 H 0.17668 0.70047 0.21915 0.0
H158 H 0.26769 0.02243 0.62714 0.0
H159 H 0.3377 0.05279 0.65096 0.0
H160 H 0.38473 0.19712 0.59869 0.0
H161 H 0.31437 0.16741 0.57556 0.0
H162 H 0.44486 0.12233 0.62729 0.0
H163 H 0.33885 0.18425 0.70174 0.0
H164 H 0.31334 0.14197 0.67668 0.0
H165 H 0.35293 0.20453 0.65703 0.0
C166 C 0.29368 0.06049 0.62 0.0
C167 C 0.28498 0.09264 0.60019 0.0
C168 C 0.33373 0.0777 0.63344 0.0
C169 C 0.36549 0.12715 0.62708 0.0
C170 C 0.36012 0.15881 0.60406 0.0
H171 H 0.56326 0.308 0.72814 0.0
H172 H 0.49975 0.26907 0.69978 0.0
C173 C 0.32002 0.14169 0.59072 0.0
C174 C 0.39833 0.14582 0.64888 0.0
H175 H 0.41247 0.20084 0.71346 0.0
C176 C 0.43809 0.13961 0.64614 0.0
C177 C 0.38883 0.16799 0.67346 0.0
C178 C 0.34601 0.17489 0.67772 0.0
C179 C 0.46975 0.15646 0.66685 0.0
C180 C 0.45998 0.17832 0.69177 0.0
C181 C 0.41972 0.18381 0.6946 0.0
C182 C 0.49283 0.19916 0.71346 0.0
C183 C 0.51407 0.15215 0.6609 0.0
C184 C 0.50784 0.17216 0.73242 0.0
C185 C 0.54466 0.1947 0.74826 0.0
C186 C 0.5653 0.24392 0.74639 0.0
C187 C 0.54685 0.2697 0.73049 0.0
C188 C 0.51102 0.24756 0.71397 0.0
H189 H 0.5228 0.14721 0.63544 0.0
H190 H 0.54562 0.1844 0.66396 0.0
H191 H 0.50774 0.12036 0.67921 0.0
H192 H 0.49303 0.13437 0.73344 0.0
H193 H 0.55918 0.17453 0.75998 0.0
H194 H 0.02144 0.29576 0.1309 0.0
H195 H 0.05924 0.36652 0.15342 0.0
H196 H 0.19857 0.40034 0.099 0.0
H197 H 0.16148 0.32908 0.07727 0.0
H198 H 0.13147 0.36212 0.191 0.0
H199 H 0.20007 0.53309 0.0965 0.0
H200 H 0.14768 0.47782 0.09602 0.0
H201 H 0.20636 0.48613 0.08259 0.0
C202 C 0.06002 0.31911 0.12293 0.0
C203 C 0.08861 0.30635 0.10298 0.0
C204 C 0.08144 0.3595 0.13567 0.0
C205 C 0.13148 0.38801 0.12796 0.0
C206 C 0.15978 0.37867 0.10493 0.0
H207 H 0.33793 0.60867 0.2017 0.0
H208 H 0.29863 0.54069 0.17697 0.0
C209 C 0.13846 0.33802 0.09244 0.0
C210 C 0.15436 0.42092 0.14872 0.0
H211 H 0.22587 0.53859 0.14669 0.0
C212 C 0.15181 0.40078 0.18155 0.0
C213 C 0.18116 0.47094 0.13585 0.0
C214 C 0.18401 0.49361 0.10086 0.0
C215 C 0.17629 0.42972 0.20189 0.0
C216 C 0.20319 0.47981 0.18902 0.0
C217 C 0.20539 0.49994 0.15624 0.0
C218 C 0.22826 0.51264 0.20927 0.0
C219 C 0.17428 0.40666 0.23658 0.0
C220 C 0.20186 0.51752 0.23666 0.0
C221 C 0.2242 0.55621 0.25087 0.0
C222 C 0.27297 0.59042 0.23755 0.0
C223 C 0.30014 0.58287 0.2122 0.0
C224 C 0.27784 0.5442 0.19807 0.0
H225 H 0.16129 0.36778 0.2398 0.0
H226 H 0.21019 0.42442 0.24203 0.0
H227 H 0.14933 0.41066 0.25525 0.0
H228 H 0.16339 0.49373 0.24528 0.0
H229 H 0.20236 0.56161 0.27007 0.0
H230 H 0.91915 0.02994 0.64172 0.0
H231 H 0.88497 0.06774 0.6745 0.0
H232 H 0.87964 0.14491 0.5837 0.0
H233 H 0.91175 0.10548 0.55097 0.0
H234 H 0.92345 0.15949 0.67322 0.0
H235 H 0.74928 0.09944 0.6393 0.0
H236 H 0.78587 0.07349 0.6289 0.0
H237 H 0.79969 0.13005 0.60371 0.0
C238 C 0.9099 0.05435 0.62883 0.0
C239 C 0.91775 0.0645 0.59386 0.0
C240 C 0.89045 0.07599 0.64756 0.0
C241 C 0.87902 0.10869 0.63169 0.0
C242 C 0.8867 0.11874 0.59669 0.0
H243 H 0.84395 0.33015 0.69337 0.0
H244 H 0.8727 0.2813 0.6704 0.0
C245 C 0.9053 0.09636 0.57797 0.0
C246 C 0.86224 0.13447 0.65171 0.0
H247 H 0.77394 0.16194 0.66852 0.0
C248 C 0.89042 0.15945 0.67246 0.0
C249 C 0.81923 0.13471 0.65063 0.0
C250 C 0.78656 0.10762 0.62967 0.0
C251 C 0.87719 0.18516 0.6917 0.0
C252 C 0.83477 0.18587 0.69022 0.0
C253 C 0.80624 0.1607 0.66981 0.0
C254 C 0.8215 0.21587 0.70752 0.0
C255 C 0.90876 0.21198 0.71327 0.0
C256 C 0.78426 0.19539 0.73677 0.0
C257 C 0.7678 0.22341 0.75023 0.0
C258 C 0.78817 0.27199 0.73426 0.0
C259 C 0.8276 0.29281 0.70629 0.0
C260 C 0.84398 0.26498 0.693 0.0
H261 H 0.93797 0.2039 0.71439 0.0
H262 H 0.92512 0.25112 0.70308 0.0
H263 H 0.88691 0.20276 0.73907 0.0
H264 H 0.76665 0.15742 0.74828 0.0
H265 H 0.737 0.20632 0.77148 0.0
H266 H 0.86582 0.92229 0.14085 0.0
H267 H 0.78251 0.8883 0.17232 0.0
H268 H 0.7518 0.94606 0.08544 0.0
H269 H 0.83377 0.97719 0.05357 0.0
H270 H 0.73082 0.92394 0.19163 0.0
H271 H 0.64198 0.81512 0.10605 0.0
H272 H 0.7059 0.84386 0.10135 0.0
H273 H 0.67953 0.87705 0.08473 0.0
C274 C 0.84104 0.92725 0.12846 0.0
C275 C 0.85613 0.95169 0.0946 0.0
C276 C 0.79338 0.90787 0.14646 0.0
C277 C 0.75994 0.91319 0.13117 0.0
C278 C 0.7758 0.93937 0.09763 0.0
H279 H 0.47445 0.86384 0.19187 0.0
H280 H 0.55902 0.89349 0.16854 0.0
C281 C 0.82298 0.95761 0.07944 0.0
C282 C 0.70909 0.89269 0.15047 0.0
H283 H 0.59188 0.82757 0.14674 0.0
C284 C 0.70054 0.90236 0.18189 0.0
C285 C 0.66903 0.86418 0.13812 0.0
C286 C 0.67455 0.84904 0.10589 0.0
C287 C 0.65366 0.8857 0.20061 0.0
C288 C 0.61399 0.85864 0.18777 0.0
C289 C 0.62231 0.84839 0.15663 0.0
C290 C 0.56373 0.84308 0.20509 0.0
C291 C 0.64665 0.89771 0.23382 0.0
C292 C 0.53814 0.80544 0.2342 0.0
C293 C 0.48898 0.78777 0.24761 0.0
C294 C 0.4648 0.80783 0.23229 0.0
C295 C 0.49161 0.84732 0.20439 0.0
C296 C 0.54013 0.86437 0.19085 0.0
H297 H 0.68104 0.92402 0.23855 0.0
H298 H 0.62208 0.91227 0.23523 0.0
H299 H 0.62973 0.86431 0.25387 0.0
H300 H 0.55557 0.78832 0.24561 0.0
H301 H 0.46947 0.75679 0.26865 0.0
H302 H 0.85906 0.87082 0.61349 0.0
H303 H 0.82019 0.78607 0.64288 0.0
H304 H 0.94762 0.78363 0.60113 0.0
H305 H 0.98729 0.86867 0.57343 0.0
H306 H 0.79575 0.70664 0.62325 0.0
H307 H 0.93022 0.72871 0.69626 0.0
H308 H 0.93033 0.77938 0.6726 0.0
H309 H 0.95711 0.74967 0.65223 0.0
C310 C 0.87885 0.85221 0.61096 0.0
C311 C 0.92653 0.87656 0.5918 0.0
C312 C 0.8566 0.80375 0.62766 0.0
C313 C 0.88136 0.77856 0.62512 0.0
C314 C 0.92833 0.80254 0.60475 0.0
H315 H 0.79837 0.4822 0.66701 0.0
H316 H 0.82982 0.5677 0.64465 0.0
C317 C 0.95094 0.85117 0.58875 0.0
C318 C 0.85802 0.72719 0.64331 0.0
H319 H 0.8753 0.64833 0.69456 0.0
C320 C 0.81296 0.6941 0.63916 0.0
C321 C 0.8801 0.71053 0.66439 0.0
C322 C 0.92685 0.74406 0.67191 0.0
C323 C 0.79041 0.64491 0.65451 0.0
C324 C 0.81345 0.62839 0.67444 0.0
C325 C 0.85779 0.6613 0.67924 0.0
C326 C 0.79375 0.57662 0.68859 0.0
C327 C 0.74245 0.61053 0.64903 0.0
C328 C 0.76379 0.55362 0.72105 0.0
C329 C 0.74642 0.50473 0.73424 0.0
C330 C 0.7584 0.47832 0.71489 0.0
C331 C 0.78858 0.50172 0.68248 0.0
C332 C 0.80639 0.55044 0.66959 0.0
H333 H 0.72875 0.62908 0.63322 0.0
H334 H 0.74555 0.58369 0.63683 0.0
H335 H 0.7159 0.59073 0.67354 0.0
H336 H 0.75371 0.57341 0.73604 0.0
H337 H 0.72259 0.4873 0.75903 0.0
H338 H 0.14479 0.04408 0.4564 0.0
H339 H 0.1864 0.01253 0.42269 0.0
H340 H 0.06281 0.87017 0.46005 0.0
H341 H 0.02071 0.90161 0.49232 0.0
H342 H 0.2104 0.94176 0.43724 0.0
H343 H 0.07714 0.88906 0.36037 0.0
H344 H 0.08011 0.92687 0.38869 0.0
H345 H 0.05019 0.86277 0.40418 0.0
C346 C 0.12675 0.00609 0.45732 0.0
C347 C 0.07924 0.97541 0.47618 0.0
C348 C 0.15047 0.98813 0.4382 0.0
C349 C 0.12708 0.93927 0.43813 0.0
C350 C 0.08086 0.90825 0.45881 0.0
H351 H 0.15957 0.72778 0.3658 0.0
H352 H 0.13568 0.78138 0.38655 0.0
C353 C 0.05689 0.92624 0.47725 0.0
C354 C 0.14966 0.92051 0.41556 0.0
H355 H 0.12878 0.85656 0.35579 0.0
C356 C 0.19309 0.92375 0.41903 0.0
C357 C 0.12704 0.89733 0.39169 0.0
C358 C 0.08129 0.89418 0.38576 0.0
C359 C 0.21296 0.90174 0.40065 0.0
C360 C 0.1891 0.87685 0.3778 0.0
C361 C 0.14701 0.87574 0.37326 0.0
C362 C 0.2031 0.84627 0.36171 0.0
C363 C 0.25776 0.90312 0.40713 0.0
C364 C 0.24811 0.86521 0.3395 0.0
C365 C 0.26146 0.83443 0.32713 0.0
C366 C 0.22992 0.78463 0.337 0.0
C367 C 0.18409 0.76616 0.35758 0.0
C368 C 0.17067 0.79671 0.36964 0.0
H369 H 0.26663 0.91622 0.42981 0.0
H370 H 0.2537 0.86697 0.41022 0.0
H371 H 0.28846 0.92761 0.3854 0.0
H372 H 0.27333 0.90345 0.33263 0.0
H373 H 0.29737 0.84918 0.31178 0.0
H374 H 0.16836 0.1398 1.00836 0.0
H375 H 0.25241 0.17715 0.97707 0.0
H376 H 0.20849 0.08346 0.91024 0.0
H377 H 0.12471 0.04528 0.94174 0.0
H378 H 0.30396 0.12 0.96197 0.0
H379 H 0.29556 0.23077 0.85148 0.0
H380 H 0.25465 0.21107 0.89203 0.0
H381 H 0.24747 0.16931 0.86658 0.0
C382 C 0.1766 0.12748 0.98682 0.0
C383 C 0.13987 0.08973 0.97743 0.0
C384 C 0.2246 0.14868 0.96908 0.0
C385 C 0.23658 0.13324 0.94122 0.0
C386 C 0.19997 0.09603 0.93155 0.0
H387 H 0.51584 0.21035 0.81503 0.0
H388 H 0.42872 0.17548 0.8366 0.0
C389 C 0.15214 0.07424 0.94962 0.0
C390 C 0.28742 0.15523 0.9226 0.0
H391 H 0.36822 0.23088 0.84926 0.0
C392 C 0.31798 0.14413 0.93732 0.0
C393 C 0.30559 0.18666 0.89043 0.0
C394 C 0.2744 0.2006 0.87408 0.0
C395 C 0.36627 0.16363 0.92061 0.0
C396 C 0.38448 0.19527 0.88851 0.0
C397 C 0.35391 0.20615 0.87368 0.0
C398 C 0.4362 0.22031 0.87153 0.0
C399 C 0.39784 0.15074 0.93743 0.0
C400 C 0.46881 0.25816 0.88303 0.0
C401 C 0.51799 0.27843 0.87037 0.0
C402 C 0.5357 0.26132 0.84592 0.0
C403 C 0.50314 0.22516 0.83301 0.0
C404 C 0.4535 0.20484 0.84569 0.0
H405 H 0.37665 0.11968 0.95946 0.0
H406 H 0.41959 0.14218 0.9195 0.0
H407 H 0.42302 0.18192 0.94598 0.0
H408 H 0.45619 0.27066 0.90287 0.0
H409 H 0.54237 0.30596 0.88104 0.0
H410 H 0.99068 0.14733 0.46649 0.0
H411 H 0.02385 0.23074 0.43543 0.0
H412 H 0.16411 0.26483 0.44828 0.0
H413 H 0.13079 0.18185 0.48018 0.0
H414 H 0.10305 0.32613 0.46527 0.0
H415 H 0.15007 0.29936 0.33877 0.0
H416 H 0.09904 0.25184 0.37073 0.0
H417 H 0.15853 0.2692 0.37478 0.0
C418 C 0.02864 0.17264 0.46238 0.0
C419 C 0.05844 0.15841 0.47532 0.0
C420 C 0.04743 0.22012 0.44483 0.0
C421 C 0.0964 0.25362 0.43946 0.0
C422 C 0.12623 0.23936 0.45223 0.0
H423 H 0.27418 0.54956 0.32147 0.0
H424 H 0.24191 0.4638 0.34532 0.0
C425 C 0.10727 0.19215 0.47033 0.0
C426 C 0.11639 0.3037 0.4207 0.0
H427 H 0.16714 0.3771 0.34194 0.0
C428 C 0.11699 0.33738 0.43832 0.0
C429 C 0.13516 0.31815 0.38569 0.0
C430 C 0.13587 0.28298 0.3661 0.0
C431 C 0.13568 0.38539 0.42168 0.0
C432 C 0.15303 0.39966 0.38636 0.0
C433 C 0.15331 0.36602 0.36889 0.0
C434 C 0.17067 0.4493 0.36734 0.0
C435 C 0.13754 0.42055 0.44223 0.0
C436 C 0.14063 0.46882 0.37006 0.0
C437 C 0.15907 0.51755 0.35679 0.0
C438 C 0.20749 0.54731 0.33971 0.0
C439 C 0.23651 0.52703 0.33415 0.0
C440 C 0.21822 0.47824 0.34801 0.0
H441 H 0.1362 0.40752 0.46871 0.0
H442 H 0.17064 0.45612 0.43181 0.0
H443 H 0.10611 0.42522 0.44207 0.0
H444 H 0.10346 0.44685 0.38395 0.0
H445 H 0.13616 0.53257 0.36146 0.0
H446 H 0.89582 0.07983 1.01878 0.0
H447 H 0.85547 0.11019 0.98602 0.0
H448 H 0.96822 0.15527 0.89756 0.0
H449 H 0.00662 0.12151 0.92997 0.0
H450 H 0.87431 0.19133 0.95336 0.0
H451 H 0.85787 0.08097 0.8614 0.0
H452 H 0.87876 0.07285 0.89814 0.0
H453 H 0.91936 0.11926 0.86122 0.0
C454 C 0.91202 0.09645 0.99234 0.0
C455 C 0.9541 0.09818 0.97676 0.0
C456 C 0.88891 0.11372 0.97359 0.0
C457 C 0.90797 0.13394 0.93899 0.0
C458 C 0.95163 0.1381 0.92385 0.0
H459 H 0.81513 0.28935 0.80702 0.0
H460 H 0.86363 0.25867 0.82945 0.0
C461 C 0.97392 0.1194 0.94242 0.0
C462 C 0.88202 0.15046 0.91897 0.0
H463 H 0.83839 0.14194 0.84877 0.0
C464 C 0.86661 0.18047 0.9305 0.0
C465 C 0.87093 0.1357 0.88935 0.0
C466 C 0.88211 0.1 0.87702 0.0
C467 C 0.84117 0.19643 0.91313 0.0
C468 C 0.8318 0.18301 0.88303 0.0
C469 C 0.84685 0.15304 0.87143 0.0
C470 C 0.80294 0.19692 0.86493 0.0
C471 C 0.82348 0.22676 0.92732 0.0
C472 C 0.75294 0.17085 0.87627 0.0
C473 C 0.72546 0.1878 0.8633 0.0
C474 C 0.74745 0.2313 0.83884 0.0
C475 C 0.79727 0.2554 0.82545 0.0
C476 C 0.82494 0.23823 0.83852 0.0
H477 H 0.83784 0.23817 0.94909 0.0
H478 H 0.83373 0.25912 0.9078 0.0
H479 H 0.7837 0.20588 0.93555 0.0
H480 H 0.73539 0.13884 0.89655 0.0
H481 H 0.68713 0.16868 0.87422 0.0
H482 H 0.71956 -0.00748 0.43936 0.0
H483 H 0.65137 0.95899 0.41386 0.0
H484 H 0.61348 0.81608 0.46317 0.0
H485 H 0.6813 0.84893 0.48828 0.0
H486 H 0.65306 0.90038 0.37094 0.0
H487 H 0.48371 0.80813 0.47013 0.0
H488 H 0.53965 0.85353 0.47612 0.0
H489 H 0.5268 0.79271 0.48048 0.0
C490 C 0.6956 0.95403 0.44562 0.0
C491 C 0.70571 0.92325 0.46555 0.0
C492 C 0.65687 0.93507 0.43112 0.0
C493 C 0.62781 0.88532 0.43685 0.0
C494 C 0.63522 0.85466 0.45909 0.0
H495 H 0.41146 0.68149 0.36324 0.0
H496 H 0.48774 0.72161 0.3793 0.0
C497 C 0.6739 0.87351 0.4735 0.0
C498 C 0.59514 0.86496 0.41565 0.0
H499 H 0.48032 0.78203 0.41921 0.0
C500 C 0.6151 0.87496 0.38127 0.0
C501 C 0.54606 0.83168 0.42955 0.0
C502 C 0.52272 0.82122 0.46606 0.0
C503 C 0.58702 0.85106 0.36042 0.0
C504 C 0.53838 0.81673 0.37463 0.0
C505 C 0.51827 0.80761 0.4088 0.0
C506 C 0.50557 0.79291 0.35449 0.0
C507 C 0.60935 0.86161 0.32372 0.0
C508 C 0.49259 0.82004 0.33384 0.0
C509 C 0.44966 0.79732 0.3246 0.0
C510 C 0.41964 0.74766 0.33635 0.0
C511 C 0.43451 0.72003 0.35441 0.0
C512 C 0.47797 0.74271 0.36311 0.0
H513 H 0.64917 0.88231 0.3179 0.0
H514 H 0.5976 0.8277 0.31548 0.0
H515 H 0.59729 0.88297 0.30901 0.0
H516 H 0.51298 0.85887 0.32777 0.0
H517 H 0.43811 0.81882 0.31069 0.0
H518 H -0.00726 0.76034 0.92453 0.0
H519 H 0.9618 0.68743 0.90406 0.0
H520 H 0.82909 0.62358 0.9796 0.0
H521 H 0.85854 0.69735 0.99893 0.0
H522 H 0.92138 0.58982 0.92584 0.0
H523 H 0.78748 0.63732 0.8937 0.0
H524 H 0.8369 0.67637 0.90938 0.0
H525 H 0.78466 0.62499 0.93757 0.0
C526 C 0.95723 0.73049 0.9371 0.0
C527 C 0.92753 0.73512 0.9626 0.0
C528 C 0.93978 0.68875 0.92557 0.0
C529 C 0.89264 0.65098 0.93962 0.0
C530 C 0.86516 0.65305 0.96788 0.0
H531 H 0.71677 0.39499 0.88513 0.0
H532 H 0.76096 0.45754 0.91214 0.0
C533 C 0.8823 0.69507 0.97914 0.0
C534 C 0.87045 0.61319 0.92172 0.0
H535 H 0.78275 0.5682 0.87963 0.0
C536 C 0.89113 0.58507 0.9157 0.0
C537 C 0.83137 0.60772 0.90813 0.0
C538 C 0.80902 0.63845 0.91222 0.0
C539 C 0.87315 0.55104 0.89674 0.0
C540 C 0.83413 0.54569 0.88349 0.0
C541 C 0.81335 0.57347 0.88952 0.0
C542 C 0.81073 0.50789 0.86623 0.0
C543 C 0.89533 0.52061 0.89113 0.0
C544 C 0.82404 0.51628 0.83126 0.0
C545 C 0.79853 0.48034 0.81534 0.0
C546 C 0.7597 0.43617 0.83454 0.0
C547 C 0.74666 0.42861 0.86954 0.0
C548 C 0.77194 0.4641 0.88519 0.0
H549 H 0.92625 0.52985 0.90262 0.0
H550 H 0.86796 0.48218 0.9019 0.0
H551 H 0.90761 0.52525 0.86386 0.0
H552 H 0.85383 0.55051 0.81645 0.0
H553 H 0.80937 0.48677 0.78842 0.0
loop_
_geom_bond_atom_site_label_1
_geom_bond_atom_site_label_2
_geom_bond_distance
_geom_bond_site_symmetry_2
_ccdc_geom_bond_type
Eu0 C9 2.828 . S
Eu0 O11 2.392 1_545 S
Eu0 O13 2.418 1_455 S
Eu0 O18 2.373 1_455 S
Eu0 O21 2.488 . S
Eu0 O22 2.471 . S
Eu0 O23 2.349 1_554 S
Eu1 O10 2.373 1_656 S
Eu1 O14 2.488 1_655 S
Eu1 O15 2.471 . S
Eu1 O16 2.349 1_556 S
Eu1 O19 2.392 1_565 S
Eu1 O20 2.418 1_665 S
Eu1 C30 2.828 . S
C2 O20 1.244 . S
C2 O23 1.265 . S
C3 C4 1.379 . S
C3 C7 1.373 . S
C3 C9 1.505 . S
C4 C3 1.379 . S
C4 C6 1.369 . S
C4 H32 0.930 . S
C5 C7 1.383 . S
C5 C8 1.382 . S
C5 H33 0.930 . S
C6 C4 1.369 . S
C6 C8 1.392 . S
C6 H34 0.930 . S
C7 C3 1.373 . S
C7 C5 1.383 . S
C7 H35 0.931 . S
C8 C5 1.382 . S
C8 C6 1.392 . S
C9 Eu0 2.828 . S
C9 C3 1.505 . S
C9 O21 1.249 . S
C9 O22 1.244 . S
O10 Eu1 2.373 1_454 S
O10 C12 1.258 . S
O11 Eu0 2.392 1_565 S
O11 C12 1.242 . S
C12 O10 1.258 . S
C12 O11 1.242 . S
O13 Eu0 2.418 1_655 S
O13 C17 1.244 1_545 S
O14 Eu1 2.488 1_455 S
O14 C30 1.249 1_455 S
O15 Eu1 2.471 . S
O15 C30 1.244 . S
O16 Eu1 2.349 1_554 S
O16 C17 1.265 . S
C17 O13 1.244 1_565 S
C17 O16 1.265 . S
O18 Eu0 2.373 1_655 S
O18 C31 1.258 1_554 S
O19 Eu1 2.392 1_545 S
O19 C31 1.242 . S
O20 Eu1 2.418 1_445 S
O20 C2 1.244 . S
O21 Eu0 2.488 . S
O21 C9 1.249 . S
O22 Eu0 2.471 . S
O22 C9 1.244 . S
O23 Eu0 2.349 1_556 S
O23 C2 1.265 . S
C24 C25 1.379 . S
C24 C28 1.373 . S
C24 C30 1.505 . S
C25 C24 1.379 . S
C25 C27 1.369 . S
C25 H36 0.930 1_556 S
C26 C28 1.383 . S
C26 C29 1.382 . S
C26 H37 0.930 . S
C27 C25 1.369 . S
C27 C29 1.392 . S
C27 H38 0.946 . S
C28 C24 1.373 . S
C28 C26 1.383 . S
C28 H39 0.931 . S
C29 C26 1.382 . S
C29 C27 1.392 . S
C30 Eu1 2.828 . S
C30 O14 1.249 1_655 S
C30 O15 1.244 . S
C30 C24 1.505 . S
C31 O18 1.258 1_556 S
C31 O19 1.242 . S
H32 C4 0.930 . S
H33 C5 0.930 . S
H34 C6 0.930 . S
H35 C7 0.931 . S
H36 C25 0.930 1_554 S
H37 C26 0.930 . S
H38 C27 0.946 . S
H39 C28 0.931 . S
Eu40 C49 2.833 1_545 S
Eu40 O51 2.378 1_645 S
Eu40 O53 2.440 1_655 S
Eu40 O58 2.392 . S
Eu40 O61 2.501 . S
Eu40 O62 2.468 1_545 S
Eu40 O63 2.338 1_545 S
Eu41 O50 2.373 . S
Eu41 O54 2.488 . S
Eu41 O55 2.471 . S
Eu41 O56 2.349 . S
Eu41 O59 2.392 1_455 S
Eu41 O60 2.418 1_445 S
Eu41 C70 2.828 . S
C42 O60 1.244 . S
C42 O63 1.265 . S
C43 C44 1.379 . S
C43 C47 1.373 . S
C43 C49 1.505 . S
C44 C43 1.379 . S
C44 C46 1.369 . S
C44 H72 0.930 . S
C45 C47 1.383 . S
C45 C48 1.382 . S
C45 H73 0.930 . S
C46 C44 1.369 . S
C46 C48 1.392 . S
C46 H74 0.930 . S
C47 C43 1.373 . S
C47 C45 1.383 . S
C47 H75 0.931 1_565 S
C48 C45 1.382 . S
C48 C46 1.392 . S
C49 Eu40 2.833 1_565 S
C49 C43 1.505 . S
C49 O61 1.249 1_565 S
C49 O62 1.244 . S
O50 Eu41 2.373 . S
O50 C52 1.258 1_545 S
O51 Eu40 2.378 1_465 S
O51 C52 1.242 . S
C52 O50 1.258 1_565 S
C52 O51 1.242 . S
O53 Eu40 2.440 1_455 S
O53 C57 1.244 . S
O54 Eu41 2.488 . S
O54 C70 1.249 . S
O55 Eu41 2.471 . S
O55 C70 1.244 . S
O56 Eu41 2.349 . S
O56 C57 1.265 . S
C57 O53 1.244 . S
C57 O56 1.265 . S
O58 Eu40 2.392 . S
O58 C71 1.258 . S
O59 Eu41 2.392 1_655 S
O59 C71 1.242 . S
O60 Eu41 2.418 1_665 S
O60 C42 1.244 . S
O61 Eu40 2.501 . S
O61 C49 1.249 1_545 S
O62 Eu40 2.468 1_565 S
O62 C49 1.244 . S
O63 Eu40 2.338 1_565 S
O63 C42 1.265 . S
C64 C65 1.379 . S
C64 C68 1.373 . S
C64 C70 1.505 . S
C65 C64 1.379 . S
C65 C67 1.369 . S
C65 H76 0.930 . S
C66 C68 1.383 . S
C66 C69 1.382 . S
C66 H77 0.930 . S
C67 C65 1.369 . S
C67 C69 1.392 . S
C67 H78 0.930 . S
C68 C64 1.373 . S
C68 C66 1.383 . S
C68 H79 0.931 . S
C69 C66 1.382 . S
C69 C67 1.392 . S
C70 Eu41 2.828 . S
C70 O54 1.249 . S
C70 O55 1.244 . S
C70 C64 1.505 . S
C71 O58 1.258 . S
C71 O59 1.242 . S
H72 C44 0.930 . S
H73 C45 0.930 . S
H74 C46 0.930 . S
H75 C47 0.931 1_545 S
H76 C65 0.930 . S
H77 C66 0.930 . S
H78 C67 0.930 . S
H79 C68 0.931 . S
Zn80 O86 1.920 . S
Zn80 O92 1.898 . S
Zn80 O95 1.905 . S
Zn81 O89 1.905 . S
Zn81 O90 1.898 . S
Zn81 O98 1.920 . S
Zn82 O85 2.080 . S
Zn82 O88 2.114 . S
Zn82 O91 2.120 . S
Zn82 O93 2.120 . S
Zn82 O94 2.114 . S
Zn82 O97 2.080 . S
C83 O88 1.166 . S
C83 O89 1.182 . S
C84 O90 1.167 . S
C84 O91 1.299 . S
O85 Zn82 2.080 . S
O85 C99 1.305 . S
O86 Zn80 1.920 . S
O86 C99 1.234 . S
C87 O92 1.167 . S
C87 O93 1.299 . S
O88 Zn82 2.114 . S
O88 C83 1.166 . S
O89 Zn81 1.905 . S
O89 C83 1.182 . S
O90 Zn81 1.898 . S
O90 C84 1.167 . S
O91 Zn82 2.120 . S
O91 C84 1.299 . S
O92 Zn80 1.898 . S
O92 C87 1.167 . S
O93 Zn82 2.120 . S
O93 C87 1.299 . S
O94 Zn82 2.114 . S
O94 C96 1.166 . S
O95 Zn80 1.905 . S
O95 C96 1.182 . S
C96 O94 1.166 . S
C96 O95 1.182 . S
O97 Zn82 2.080 . S
O97 C100 1.305 . S
O98 Zn81 1.920 . S
O98 C100 1.234 . S
C99 O85 1.305 . S
C99 O86 1.234 . S
C100 O97 1.305 . S
C100 O98 1.234 . S
Zn101 O107 1.920 . S
Zn101 O113 1.898 . S
Zn101 O116 1.905 . S
Zn102 O110 1.905 . S
Zn102 O111 1.898 . S
Zn102 O119 1.920 . S
Zn103 O106 2.080 . S
Zn103 O109 2.114 . S
Zn103 O112 2.120 . S
Zn103 O114 2.120 . S
Zn103 O115 2.114 . S
Zn103 O118 2.080 . S
C104 O109 1.166 . S
C104 O110 1.182 . S
C105 O111 1.167 . S
C105 O112 1.299 . S
O106 Zn103 2.080 . S
O106 C120 1.305 . S
O107 Zn101 1.920 . S
O107 C120 1.234 . S
C108 O113 1.167 . S
C108 O114 1.299 . S
O109 Zn103 2.114 . S
O109 C104 1.166 . S
O110 Zn102 1.905 . S
O110 C104 1.182 . S
O111 Zn102 1.898 . S
O111 C105 1.167 . S
O112 Zn103 2.120 . S
O112 C105 1.299 . S
O113 Zn101 1.898 . S
O113 C108 1.167 . S
O114 Zn103 2.120 . S
O114 C108 1.299 . S
O115 Zn103 2.114 . S
O115 C117 1.166 . S
O116 Zn101 1.905 . S
O116 C117 1.182 . S
C117 O115 1.166 . S
C117 O116 1.182 . S
O118 Zn103 2.080 . S
O118 C121 1.305 . S
O119 Zn102 1.920 . S
O119 C121 1.234 . S
C120 O106 1.305 . S
C120 O107 1.234 . S
C121 O118 1.305 . S
C121 O119 1.234 . S
H122 C130 0.929 . S
H123 C132 0.930 . S
H124 C134 0.930 . S
H125 C137 0.929 . S
H126 C140 0.930 . S
H127 C142 0.960 . S
H128 C142 0.960 . S
H129 C142 0.960 . S
C130 H122 0.929 . S
C130 C131 1.377 . S
C130 C132 1.384 . S
C131 C130 1.377 . S
C131 C137 1.390 . S
C132 H123 0.930 . S
C132 C130 1.384 . S
C132 C133 1.372 . S
C133 C132 1.372 . S
C133 C134 1.400 . S
C133 C138 1.490 . S
C134 H124 0.930 . S
C134 C133 1.400 . S
C134 C137 1.386 . S
H135 C151 0.930 . S
H136 C152 0.931 . S
C137 H125 0.929 . S
C137 C131 1.390 . S
C137 C134 1.386 . S
C138 C133 1.490 . S
C138 C140 1.395 . S
C138 C141 1.403 . S
H139 C145 0.930 . S
C140 H126 0.930 . S
C140 C138 1.395 . S
C140 C143 1.403 . S
C141 C138 1.403 . S
C141 C142 1.524 . S
C141 C145 1.400 . S
C142 H127 0.960 . S
C142 H128 0.960 . S
C142 H129 0.960 . S
C142 C141 1.524 . S
C143 C140 1.403 . S
C143 C144 1.392 . S
C143 C147 1.495 . S
C144 C143 1.392 . S
C144 C145 1.385 . S
C144 C146 1.478 . S
C145 H139 0.930 . S
C145 C141 1.400 . S
C145 C144 1.385 . S
C146 C144 1.478 . S
C146 C148 1.381 . S
C146 C152 1.383 . S
C147 C143 1.495 . S
C147 H153 0.959 . S
C147 H154 0.961 . S
C147 H155 0.960 . S
C148 C146 1.381 . S
C148 C149 1.394 . S
C148 H156 0.930 . S
C149 C148 1.394 . S
C149 C150 1.383 . S
C149 H157 0.929 . S
C150 C149 1.383 . S
C150 C151 1.377 . S
C151 H135 0.930 . S
C151 C150 1.377 . S
C151 C152 1.379 . S
C152 H136 0.931 . S
C152 C146 1.383 . S
C152 C151 1.379 . S
H153 C147 0.959 . S
H154 C147 0.961 . S
H155 C147 0.960 . S
H156 C148 0.930 . S
H157 C149 0.929 . S
H158 C166 0.929 . S
H159 C168 0.930 . S
H160 C170 0.930 . S
H161 C173 0.929 . S
H162 C176 0.930 . S
H163 C178 0.960 . S
H164 C178 0.960 . S
H165 C178 0.960 . S
C166 H158 0.929 . S
C166 C167 1.377 . S
C166 C168 1.384 . S
C167 C166 1.377 . S
C167 C173 1.390 . S
C168 H159 0.930 . S
C168 C166 1.384 . S
C168 C169 1.372 . S
C169 C168 1.372 . S
C169 C170 1.400 . S
C169 C174 1.490 . S
C170 H160 0.930 . S
C170 C169 1.400 . S
C170 C173 1.386 . S
H171 C187 0.930 . S
H172 C188 0.931 . S
C173 H161 0.929 . S
C173 C167 1.390 . S
C173 C170 1.386 . S
C174 C169 1.490 . S
C174 C176 1.395 . S
C174 C177 1.403 . S
H175 C181 0.930 . S
C176 H162 0.930 . S
C176 C174 1.395 . S
C176 C179 1.403 . S
C177 C174 1.403 . S
C177 C178 1.524 . S
C177 C181 1.400 . S
C178 H163 0.960 . S
C178 H164 0.960 . S
C178 H165 0.960 . S
C178 C177 1.524 . S
C179 C176 1.403 . S
C179 C180 1.392 . S
C179 C183 1.495 . S
C180 C179 1.392 . S
C180 C181 1.385 . S
C180 C182 1.478 . S
C181 H175 0.930 . S
C181 C177 1.400 . S
C181 C180 1.385 . S
C182 C180 1.478 . S
C182 C184 1.381 . S
C182 C188 1.383 . S
C183 C179 1.495 . S
C183 H189 0.959 . S
C183 H190 0.961 . S
C183 H191 0.960 . S
C184 C182 1.381 . S
C184 C185 1.394 . S
C184 H192 0.930 . S
C185 C184 1.394 . S
C185 C186 1.383 . S
C185 H193 0.929 . S
C186 C185 1.383 . S
C186 C187 1.377 . S
C187 H171 0.930 . S
C187 C186 1.377 . S
C187 C188 1.379 . S
C188 H172 0.931 . S
C188 C182 1.383 . S
C188 C187 1.379 . S
H189 C183 0.959 . S
H190 C183 0.961 . S
H191 C183 0.960 . S
H192 C184 0.930 . S
H193 C185 0.929 . S
H194 C202 0.929 . S
H195 C204 0.930 . S
H196 C206 0.930 . S
H197 C209 0.929 . S
H198 C212 0.930 . S
H199 C214 0.960 . S
H200 C214 0.960 . S
H201 C214 0.960 . S
C202 H194 0.929 . S
C202 C203 1.377 . S
C202 C204 1.384 . S
C203 C202 1.377 . S
C203 C209 1.390 . S
C204 H195 0.930 . S
C204 C202 1.384 . S
C204 C205 1.372 . S
C205 C204 1.372 . S
C205 C206 1.400 . S
C205 C210 1.490 . S
C206 H196 0.930 . S
C206 C205 1.400 . S
C206 C209 1.386 . S
H207 C223 0.930 . S
H208 C224 0.931 . S
C209 H197 0.929 . S
C209 C203 1.390 . S
C209 C206 1.386 . S
C210 C205 1.490 . S
C210 C212 1.395 . S
C210 C213 1.403 . S
H211 C217 0.930 . S
C212 H198 0.930 . S
C212 C210 1.395 . S
C212 C215 1.403 . S
C213 C210 1.403 . S
C213 C214 1.524 . S
C213 C217 1.400 . S
C214 H199 0.960 . S
C214 H200 0.960 . S
C214 H201 0.960 . S
C214 C213 1.524 . S
C215 C212 1.403 . S
C215 C216 1.392 . S
C215 C219 1.495 . S
C216 C215 1.392 . S
C216 C217 1.385 . S
C216 C218 1.478 . S
C217 H211 0.930 . S
C217 C213 1.400 . S
C217 C216 1.385 . S
C218 C216 1.478 . S
C218 C220 1.381 . S
C218 C224 1.383 . S
C219 C215 1.495 . S
C219 H225 0.959 . S
C219 H226 0.961 . S
C219 H227 0.960 . S
C220 C218 1.381 . S
C220 C221 1.394 . S
C220 H228 0.930 . S
C221 C220 1.394 . S
C221 C222 1.383 . S
C221 H229 0.929 . S
C222 C221 1.383 . S
C222 C223 1.377 . S
C223 H207 0.930 . S
C223 C222 1.377 . S
C223 C224 1.379 . S
C224 H208 0.931 . S
C224 C218 1.383 . S
C224 C223 1.379 . S
H225 C219 0.959 . S
H226 C219 0.961 . S
H227 C219 0.960 . S
H228 C220 0.930 . S
H229 C221 0.929 . S
H230 C238 0.929 . S
H231 C240 0.930 . S
H232 C242 0.930 . S
H233 C245 0.929 . S
H234 C248 0.930 . S
H235 C250 0.960 . S
H236 C250 0.960 . S
H237 C250 0.960 . S
C238 H230 0.929 . S
C238 C239 1.377 . S
C238 C240 1.384 . S
C239 C238 1.377 . S
C239 C245 1.390 . S
C240 H231 0.930 . S
C240 C238 1.384 . S
C240 C241 1.372 . S
C241 C240 1.372 . S
C241 C242 1.400 . S
C241 C246 1.490 . S
C242 H232 0.930 . S
C242 C241 1.400 . S
C242 C245 1.386 . S
H243 C259 0.930 . S
H244 C260 0.931 . S
C245 H233 0.929 . S
C245 C239 1.390 . S
C245 C242 1.386 . S
C246 C241 1.490 . S
C246 C248 1.395 . S
C246 C249 1.403 . S
H247 C253 0.930 . S
C248 H234 0.930 . S
C248 C246 1.395 . S
C248 C251 1.403 . S
C249 C246 1.403 . S
C249 C250 1.524 . S
C249 C253 1.400 . S
C250 H235 0.960 . S
C250 H236 0.960 . S
C250 H237 0.960 . S
C250 C249 1.524 . S
C251 C248 1.403 . S
C251 C252 1.392 . S
C251 C255 1.495 . S
C252 C251 1.392 . S
C252 C253 1.385 . S
C252 C254 1.478 . S
C253 H247 0.930 . S
C253 C249 1.400 . S
C253 C252 1.385 . S
C254 C252 1.478 . S
C254 C256 1.381 . S
C254 C260 1.383 . S
C255 C251 1.495 . S
C255 H261 0.959 . S
C255 H262 0.961 . S
C255 H263 0.960 . S
C256 C254 1.381 . S
C256 C257 1.394 . S
C256 H264 0.930 . S
C257 C256 1.394 . S
C257 C258 1.383 . S
C257 H265 0.929 . S
C258 C257 1.383 . S
C258 C259 1.377 . S
C259 H243 0.930 . S
C259 C258 1.377 . S
C259 C260 1.379 . S
C260 H244 0.931 . S
C260 C254 1.383 . S
C260 C259 1.379 . S
H261 C255 0.959 . S
H262 C255 0.961 . S
H263 C255 0.960 . S
H264 C256 0.930 . S
H265 C257 0.929 . S
H266 C274 0.929 . S
H267 C276 0.930 . S
H268 C278 0.930 . S
H269 C281 0.929 . S
H270 C284 0.930 . S
H271 C286 0.960 . S
H272 C286 0.960 . S
H273 C286 0.960 . S
C274 H266 0.929 . S
C274 C275 1.377 . S
C274 C276 1.384 . S
C275 C274 1.377 . S
C275 C281 1.390 . S
C276 H267 0.930 . S
C276 C274 1.384 . S
C276 C277 1.372 . S
C277 C276 1.372 . S
C277 C278 1.400 . S
C277 C282 1.490 . S
C278 H268 0.930 . S
C278 C277 1.400 . S
C278 C281 1.386 . S
H279 C295 0.930 . S
H280 C296 0.931 . S
C281 H269 0.929 . S
C281 C275 1.390 . S
C281 C278 1.386 . S
C282 C277 1.490 . S
C282 C284 1.395 . S
C282 C285 1.403 . S
H283 C289 0.930 . S
C284 H270 0.930 . S
C284 C282 1.395 . S
C284 C287 1.403 . S
C285 C282 1.403 . S
C285 C286 1.524 . S
C285 C289 1.400 . S
C286 H271 0.960 . S
C286 H272 0.960 . S
C286 H273 0.960 . S
C286 C285 1.524 . S
C287 C284 1.403 . S
C287 C288 1.392 . S
C287 C291 1.495 . S
C288 C287 1.392 . S
C288 C289 1.385 . S
C288 C290 1.478 . S
C289 H283 0.930 . S
C289 C285 1.400 . S
C289 C288 1.385 . S
C290 C288 1.478 . S
C290 C292 1.381 . S
C290 C296 1.383 . S
C291 C287 1.495 . S
C291 H297 0.959 . S
C291 H298 0.961 . S
C291 H299 0.960 . S
C292 C290 1.381 . S
C292 C293 1.394 . S
C292 H300 0.930 . S
C293 C292 1.394 . S
C293 C294 1.383 . S
C293 H301 0.929 . S
C294 C293 1.383 . S
C294 C295 1.377 . S
C295 H279 0.930 . S
C295 C294 1.377 . S
C295 C296 1.379 . S
C296 H280 0.931 . S
C296 C290 1.383 . S
C296 C295 1.379 . S
H297 C291 0.959 . S
H298 C291 0.961 . S
H299 C291 0.960 . S
H300 C292 0.930 . S
H301 C293 0.929 . S
H302 C310 0.929 . S
H303 C312 0.930 . S
H304 C314 0.930 . S
H305 C317 0.929 . S
H306 C320 0.930 . S
H307 C322 0.960 . S
H308 C322 0.960 . S
H309 C322 0.960 . S
C310 H302 0.929 . S
C310 C311 1.377 . S
C310 C312 1.384 . S
C311 C310 1.377 . S
C311 C317 1.390 . S
C312 H303 0.930 . S
C312 C310 1.384 . S
C312 C313 1.372 . S
C313 C312 1.372 . S
C313 C314 1.400 . S
C313 C318 1.490 . S
C314 H304 0.930 . S
C314 C313 1.400 . S
C314 C317 1.386 . S
H315 C331 0.930 . S
H316 C332 0.931 . S
C317 H305 0.929 . S
C317 C311 1.390 . S
C317 C314 1.386 . S
C318 C313 1.490 . S
C318 C320 1.395 . S
C318 C321 1.403 . S
H319 C325 0.930 . S
C320 H306 0.930 . S
C320 C318 1.395 . S
C320 C323 1.403 . S
C321 C318 1.403 . S
C321 C322 1.524 . S
C321 C325 1.400 . S
C322 H307 0.960 . S
C322 H308 0.960 . S
C322 H309 0.960 . S
C322 C321 1.524 . S
C323 C320 1.403 . S
C323 C324 1.392 . S
C323 C327 1.495 . S
C324 C323 1.392 . S
C324 C325 1.385 . S
C324 C326 1.478 . S
C325 H319 0.930 . S
C325 C321 1.400 . S
C325 C324 1.385 . S
C326 C324 1.478 . S
C326 C328 1.381 . S
C326 C332 1.383 . S
C327 C323 1.495 . S
C327 H333 0.959 . S
C327 H334 0.961 . S
C327 H335 0.960 . S
C328 C326 1.381 . S
C328 C329 1.394 . S
C328 H336 0.930 . S
C329 C328 1.394 . S
C329 C330 1.383 . S
C329 H337 0.929 . S
C330 C329 1.383 . S
C330 C331 1.377 . S
C331 H315 0.930 . S
C331 C330 1.377 . S
C331 C332 1.379 . S
C332 H316 0.931 . S
C332 C326 1.383 . S
C332 C331 1.379 . S
H333 C327 0.959 . S
H334 C327 0.961 . S
H335 C327 0.960 . S
H336 C328 0.930 . S
H337 C329 0.929 . S
H338 C346 0.929 . S
H339 C348 0.930 1_545 S
H340 C350 0.930 . S
H341 C353 0.929 . S
H342 C356 0.930 . S
H343 C358 0.960 . S
H344 C358 0.960 . S
H345 C358 0.960 . S
C346 H338 0.929 . S
C346 C347 1.377 1_545 S
C346 C348 1.384 1_545 S
C347 C346 1.377 1_565 S
C347 C353 1.390 . S
C348 H339 0.930 1_565 S
C348 C346 1.384 1_565 S
C348 C349 1.372 . S
C349 C348 1.372 . S
C349 C350 1.400 . S
C349 C354 1.490 . S
C350 H340 0.930 . S
C350 C349 1.400 . S
C350 C353 1.386 . S
H351 C367 0.930 . S
H352 C368 0.931 . S
C353 H341 0.929 . S
C353 C347 1.390 . S
C353 C350 1.386 . S
C354 C349 1.490 . S
C354 C356 1.395 . S
C354 C357 1.403 . S
H355 C361 0.930 . S
C356 H342 0.930 . S
C356 C354 1.395 . S
C356 C359 1.403 . S
C357 C354 1.403 . S
C357 C358 1.524 . S
C357 C361 1.400 . S
C358 H343 0.960 . S
C358 H344 0.960 . S
C358 H345 0.960 . S
C358 C357 1.524 . S
C359 C356 1.403 . S
C359 C360 1.392 . S
C359 C363 1.495 . S
C360 C359 1.392 . S
C360 C361 1.385 . S
C360 C362 1.478 . S
C361 H355 0.930 . S
C361 C357 1.400 . S
C361 C360 1.385 . S
C362 C360 1.478 . S
C362 C364 1.381 . S
C362 C368 1.383 . S
C363 C359 1.495 . S
C363 H369 0.959 . S
C363 H370 0.961 . S
C363 H371 0.960 . S
C364 C362 1.381 . S
C364 C365 1.394 . S
C364 H372 0.930 . S
C365 C364 1.394 . S
C365 C366 1.383 . S
C365 H373 0.929 . S
C366 C365 1.383 . S
C366 C367 1.377 . S
C367 H351 0.930 . S
C367 C366 1.377 . S
C367 C368 1.379 . S
C368 H352 0.931 . S
C368 C362 1.383 . S
C368 C367 1.379 . S
H369 C363 0.959 . S
H370 C363 0.961 . S
H371 C363 0.960 . S
H372 C364 0.930 . S
H373 C365 0.929 . S
H374 C382 0.929 . S
H375 C384 0.930 . S
H376 C386 0.930 . S
H377 C389 0.929 . S
H378 C392 0.930 . S
H379 C394 0.960 . S
H380 C394 0.960 . S
H381 C394 0.960 . S
C382 H374 0.929 . S
C382 C383 1.377 . S
C382 C384 1.384 . S
C383 C382 1.377 . S
C383 C389 1.390 . S
C384 H375 0.930 . S
C384 C382 1.384 . S
C384 C385 1.372 . S
C385 C384 1.372 . S
C385 C386 1.400 . S
C385 C390 1.490 . S
C386 H376 0.930 . S
C386 C385 1.400 . S
C386 C389 1.386 . S
H387 C403 0.930 . S
H388 C404 0.931 . S
C389 H377 0.929 . S
C389 C383 1.390 . S
C389 C386 1.386 . S
C390 C385 1.490 . S
C390 C392 1.395 . S
C390 C393 1.403 . S
H391 C397 0.930 . S
C392 H378 0.930 . S
C392 C390 1.395 . S
C392 C395 1.403 . S
C393 C390 1.403 . S
C393 C394 1.524 . S
C393 C397 1.400 . S
C394 H379 0.960 . S
C394 H380 0.960 . S
C394 H381 0.960 . S
C394 C393 1.524 . S
C395 C392 1.403 . S
C395 C396 1.392 . S
C395 C399 1.495 . S
C396 C395 1.392 . S
C396 C397 1.385 . S
C396 C398 1.478 . S
C397 H391 0.930 . S
C397 C393 1.400 . S
C397 C396 1.385 . S
C398 C396 1.478 . S
C398 C400 1.381 . S
C398 C404 1.383 . S
C399 C395 1.495 . S
C399 H405 0.959 . S
C399 H406 0.961 . S
C399 H407 0.960 . S
C400 C398 1.381 . S
C400 C401 1.394 . S
C400 H408 0.930 . S
C401 C400 1.394 . S
C401 C402 1.383 . S
C401 H409 0.929 . S
C402 C401 1.383 . S
C402 C403 1.377 . S
C403 H387 0.930 . S
C403 C402 1.377 . S
C403 C404 1.379 . S
C404 H388 0.931 . S
C404 C398 1.383 . S
C404 C403 1.379 . S
H405 C399 0.959 . S
H406 C399 0.961 . S
H407 C399 0.960 . S
H408 C400 0.930 . S
H409 C401 0.929 . S
H410 C418 0.929 . S
H411 C420 0.930 . S
H412 C422 0.930 . S
H413 C425 0.929 . S
H414 C428 0.930 . S
H415 C430 0.960 . S
H416 C430 0.960 . S
H417 C430 0.960 . S
C418 H410 0.929 . S
C418 C419 1.377 . S
C418 C420 1.384 . S
C419 C418 1.377 . S
C419 C425 1.390 . S
C420 H411 0.930 . S
C420 C418 1.384 . S
C420 C421 1.372 . S
C421 C420 1.372 . S
C421 C422 1.400 . S
C421 C426 1.490 . S
C422 H412 0.930 . S
C422 C421 1.400 . S
C422 C425 1.386 . S
H423 C439 0.930 . S
H424 C440 0.931 . S
C425 H413 0.929 . S
C425 C419 1.390 . S
C425 C422 1.386 . S
C426 C421 1.490 . S
C426 C428 1.395 . S
C426 C429 1.403 . S
H427 C433 0.930 . S
C428 H414 0.930 . S
C428 C426 1.395 . S
C428 C431 1.403 . S
C429 C426 1.403 . S
C429 C430 1.524 . S
C429 C433 1.400 . S
C430 H415 0.960 . S
C430 H416 0.960 . S
C430 H417 0.960 . S
C430 C429 1.524 . S
C431 C428 1.403 . S
C431 C432 1.392 . S
C431 C435 1.495 . S
C432 C431 1.392 . S
C432 C433 1.385 . S
C432 C434 1.478 . S
C433 H427 0.930 . S
C433 C429 1.400 . S
C433 C432 1.385 . S
C434 C432 1.478 . S
C434 C436 1.381 . S
C434 C440 1.383 . S
C435 C431 1.495 . S
C435 H441 0.959 . S
C435 H442 0.961 . S
C435 H443 0.960 . S
C436 C434 1.381 . S
C436 C437 1.394 . S
C436 H444 0.930 . S
C437 C436 1.394 . S
C437 C438 1.383 . S
C437 H445 0.929 . S
C438 C437 1.383 . S
C438 C439 1.377 . S
C439 H423 0.930 . S
C439 C438 1.377 . S
C439 C440 1.379 . S
C440 H424 0.931 . S
C440 C434 1.383 . S
C440 C439 1.379 . S
H441 C435 0.959 . S
H442 C435 0.961 . S
H443 C435 0.960 . S
H444 C436 0.930 . S
H445 C437 0.929 . S
H446 C454 0.929 . S
H447 C456 0.930 . S
H448 C458 0.930 . S
H449 C461 0.929 1_455 S
H450 C464 0.930 . S
H451 C466 0.960 . S
H452 C466 0.960 . S
H453 C466 0.960 . S
C454 H446 0.929 . S
C454 C455 1.377 . S
C454 C456 1.384 . S
C455 C454 1.377 . S
C455 C461 1.390 . S
C456 H447 0.930 . S
C456 C454 1.384 . S
C456 C457 1.372 . S
C457 C456 1.372 . S
C457 C458 1.400 . S
C457 C462 1.490 . S
C458 H448 0.930 . S
C458 C457 1.400 . S
C458 C461 1.386 . S
H459 C475 0.930 . S
H460 C476 0.931 . S
C461 H449 0.929 1_655 S
C461 C455 1.390 . S
C461 C458 1.386 . S
C462 C457 1.490 . S
C462 C464 1.395 . S
C462 C465 1.403 . S
H463 C469 0.930 . S
C464 H450 0.930 . S
C464 C462 1.395 . S
C464 C467 1.403 . S
C465 C462 1.403 . S
C465 C466 1.524 . S
C465 C469 1.400 . S
C466 H451 0.960 . S
C466 H452 0.960 . S
C466 H453 0.960 . S
C466 C465 1.524 . S
C467 C464 1.403 . S
C467 C468 1.392 . S
C467 C471 1.495 . S
C468 C467 1.392 . S
C468 C469 1.385 . S
C468 C470 1.478 . S
C469 H463 0.930 . S
C469 C465 1.400 . S
C469 C468 1.385 . S
C470 C468 1.478 . S
C470 C472 1.381 . S
C470 C476 1.383 . S
C471 C467 1.495 . S
C471 H477 0.959 . S
C471 H478 0.961 . S
C471 H479 0.960 . S
C472 C470 1.381 . S
C472 C473 1.394 . S
C472 H480 0.930 . S
C473 C472 1.394 . S
C473 C474 1.383 . S
C473 H481 0.929 . S
C474 C473 1.383 . S
C474 C475 1.377 . S
C475 H459 0.930 . S
C475 C474 1.377 . S
C475 C476 1.379 . S
C476 H460 0.931 . S
C476 C470 1.383 . S
C476 C475 1.379 . S
H477 C471 0.959 . S
H478 C471 0.961 . S
H479 C471 0.960 . S
H480 C472 0.930 . S
H481 C473 0.929 . S
H482 C490 0.929 . S
H483 C492 0.930 . S
H484 C494 0.930 . S
H485 C497 0.929 . S
H486 C500 0.930 . S
H487 C502 0.960 . S
H488 C502 0.960 . S
H489 C502 0.960 . S
C490 H482 0.929 . S
C490 C491 1.377 . S
C490 C492 1.384 . S
C491 C490 1.377 . S
C491 C497 1.390 . S
C492 H483 0.930 . S
C492 C490 1.384 . S
C492 C493 1.372 . S
C493 C492 1.372 . S
C493 C494 1.400 . S
C493 C498 1.490 . S
C494 H484 0.930 . S
C494 C493 1.400 . S
C494 C497 1.386 . S
H495 C511 0.930 . S
H496 C512 0.931 . S
C497 H485 0.929 . S
C497 C491 1.390 . S
C497 C494 1.386 . S
C498 C493 1.490 . S
C498 C500 1.395 . S
C498 C501 1.403 . S
H499 C505 0.930 . S
C500 H486 0.930 . S
C500 C498 1.395 . S
C500 C503 1.403 . S
C501 C498 1.403 . S
C501 C502 1.524 . S
C501 C505 1.400 . S
C502 H487 0.960 . S
C502 H488 0.960 . S
C502 H489 0.960 . S
C502 C501 1.524 . S
C503 C500 1.403 . S
C503 C504 1.392 . S
C503 C507 1.495 . S
C504 C503 1.392 . S
C504 C505 1.385 . S
C504 C506 1.478 . S
C505 H499 0.930 . S
C505 C501 1.400 . S
C505 C504 1.385 . S
C506 C504 1.478 . S
C506 C508 1.381 . S
C506 C512 1.383 . S
C507 C503 1.495 . S
C507 H513 0.959 . S
C507 H514 0.961 . S
C507 H515 0.960 . S
C508 C506 1.381 . S
C508 C509 1.394 . S
C508 H516 0.930 . S
C509 C508 1.394 . S
C509 C510 1.383 . S
C509 H517 0.929 . S
C510 C509 1.383 . S
C510 C511 1.377 . S
C511 H495 0.930 . S
C511 C510 1.377 . S
C511 C512 1.379 . S
C512 H496 0.931 . S
C512 C506 1.383 . S
C512 C511 1.379 . S
H513 C507 0.959 . S
H514 C507 0.961 . S
H515 C507 0.960 . S
H516 C508 0.930 . S
H517 C509 0.929 . S
H518 C526 0.929 . S
H519 C528 0.930 . S
H520 C530 0.930 . S
H521 C533 0.929 . S
H522 C536 0.930 . S
H523 C538 0.960 . S
H524 C538 0.960 . S
H525 C538 0.960 . S
C526 H518 0.929 . S
C526 C527 1.377 . S
C526 C528 1.384 . S
C527 C526 1.377 . S
C527 C533 1.390 . S
C528 H519 0.930 . S
C528 C526 1.384 . S
C528 C529 1.372 . S
C529 C528 1.372 . S
C529 C530 1.400 . S
C529 C534 1.490 . S
C530 H520 0.930 . S
C530 C529 1.400 . S
C530 C533 1.386 . S
H531 C547 0.930 . S
H532 C548 0.931 . S
C533 H521 0.929 . S
C533 C527 1.390 . S
C533 C530 1.386 . S
C534 C529 1.490 . S
C534 C536 1.395 . S
C534 C537 1.403 . S
H535 C541 0.930 . S
C536 H522 0.930 . S
C536 C534 1.395 . S
C536 C539 1.403 . S
C537 C534 1.403 . S
C537 C538 1.524 . S
C537 C541 1.400 . S
C538 H523 0.960 . S
C538 H524 0.960 . S
C538 H525 0.960 . S
C538 C537 1.524 . S
C539 C536 1.403 . S
C539 C540 1.392 . S
C539 C543 1.495 . S
C540 C539 1.392 . S
C540 C541 1.385 . S
C540 C542 1.478 . S
C541 H535 0.930 . S
C541 C537 1.400 . S
C541 C540 1.385 . S
C542 C540 1.478 . S
C542 C544 1.381 . S
C542 C548 1.383 . S
C543 C539 1.495 . S
C543 H549 0.959 . S
C543 H550 0.961 . S
C543 H551 0.960 . S
C544 C542 1.381 . S
C544 C545 1.394 . S
C544 H552 0.930 . S
C545 C544 1.394 . S
C545 C546 1.383 . S
C545 H553 0.929 . S
C546 C545 1.383 . S
C546 C547 1.377 . S
C547 H531 0.930 . S
C547 C546 1.377 . S
C547 C548 1.379 . S
C548 H532 0.931 . S
C548 C542 1.383 . S
C548 C547 1.379 . S
H549 C543 0.959 . S
H550 C543 0.961 . S
H551 C543 0.960 . S
H552 C544 0.930 . S
H553 C545 0.929 . S
C131 C12 1.596 . S
C150 C99 1.438 . S
C167 C69 0.841 . S
C186 C105 0.796 . S
C203 C8 0.917 . S
C222 C96 0.943 . S
C239 C71 1.833 . S
C258 C121 1.719 . S
C275 C17 2.350 . S
C294 C87 2.276 . S
C330 C104 2.079 . S
C311 C42 2.154 . S
C347 C52 1.593 . S
C366 C100 1.460 . S
C402 C117 2.067 . S
C383 C2 2.158 . S
C438 C84 2.234 . S
C419 C57 2.344 . S
C474 C120 1.649 . S
C455 C31 1.825 . S
C510 C83 0.940 . S
C491 C48 0.918 . S
C546 C108 0.829 . S
C527 C29 0.839 . S
