# Generated by pormake.
# Topology anh, (6,3)-cn, num edge types: 1
# Building blocks:
#     Node 0, Type 0, BuildingBlock: VOLQOD_clean_sbu_1, # of connection points: 6
#     Node 1, Type 0, BuildingBlock: VOLQOD_clean_sbu_1, # of connection points: 6
#     Node 2, Type 0, BuildingBlock: VOLQOD_clean_sbu_1, # of connection points: 6
#     Node 3, Type 1, BuildingBlock: OLANEW_clean_sbu_2, # of connection points: 3
#     Node 4, Type 1, BuildingBlock: OLANEW_clean_sbu_2, # of connection points: 3
#     Node 5, Type 1, BuildingBlock: OLANEW_clean_sbu_2, # of connection points: 3
#     Node 6, Type 1, BuildingBlock: OLANEW_clean_sbu_2, # of connection points: 3
#     Node 7, Type 1, BuildingBlock: OLANEW_clean_sbu_2, # of connection points: 3
#     Node 8, Type 1, BuildingBlock: OLANEW_clean_sbu_2, # of connection points: 3
#     Edge 9, Type (0, 1), BuildingBlock: KIFKEQ_clean_linker_1, # of connection points: 2
#     Edge 10, Type (0, 1), BuildingBlock: KIFKEQ_clean_linker_1, # of connection points: 2
#     Edge 11, Type (0, 1), BuildingBlock: KIFKEQ_clean_linker_1, # of connection points: 2
#     Edge 12, Type (0, 1), BuildingBlock: KIFKEQ_clean_linker_1, # of connection points: 2
#     Edge 13, Type (0, 1), BuildingBlock: KIFKEQ_clean_linker_1, # of connection points: 2
#     Edge 14, Type (0, 1), BuildingBlock: KIFKEQ_clean_linker_1, # of connection points: 2
#     Edge 15, Type (0, 1), BuildingBlock: KIFKEQ_clean_linker_1, # of connection points: 2
#     Edge 16, Type (0, 1), BuildingBlock: KIFKEQ_clean_linker_1, # of connection points: 2
#     Edge 17, Type (0, 1), BuildingBlock: KIFKEQ_clean_linker_1, # of connection points: 2
#     Edge 18, Type (0, 1), BuildingBlock: KIFKEQ_clean_linker_1, # of connection points: 2
#     Edge 19, Type (0, 1), BuildingBlock: KIFKEQ_clean_linker_1, # of connection points: 2
#     Edge 20, Type (0, 1), BuildingBlock: KIFKEQ_clean_linker_1, # of connection points: 2
#     Edge 21, Type (0, 1), BuildingBlock: KIFKEQ_clean_linker_1, # of connection points: 2
#     Edge 22, Type (0, 1), BuildingBlock: KIFKEQ_clean_linker_1, # of connection points: 2
#     Edge 23, Type (0, 1), BuildingBlock: KIFKEQ_clean_linker_1, # of connection points: 2
#     Edge 24, Type (0, 1), BuildingBlock: KIFKEQ_clean_linker_1, # of connection points: 2
#     Edge 25, Type (0, 1), BuildingBlock: KIFKEQ_clean_linker_1, # of connection points: 2
#     Edge 26, Type (0, 1), BuildingBlock: KIFKEQ_clean_linker_1, # of connection points: 2
# Relax obj value: 0.157
# Max RMSD: 0.206
# Mean RMSD: 0.141
data_MOF--net-anh--node1-VOLQOD_clean_sbu_1--node2-OLANEW_clean_sbu_2--edge1-KIFKEQ_clean_linker_1
_symmetry_space_group_name_H-M    P1
_symmetry_Int_Tables_number       1
_symmetry_cell_setting            triclinic
loop_
_symmetry_equiv_pos_as_xyz
'x, y, z'
_cell_length_a     32.152742
_cell_length_b     32.036496
_cell_length_c     59.882801
_cell_angle_alpha  90.038335
_cell_angle_beta   89.839592
_cell_angle_gamma 120.3416
loop_
_atom_site_label
_atom_site_type_symbol
_atom_site_fract_x
_atom_site_fract_y
_atom_site_fract_z
_atom_type_partial_charge
O0 O 0.00038 0.55434 0.20839 0.0
Zn1 Zn 0.00202 0.56767 0.17551 0.0
O2 O 0.00298 0.51613 0.15817 0.0
Zn3 Zn 0.94904 0.48828 0.13757 0.0
Zn4 Zn -0.00125 0.46533 0.17822 0.0
Zn5 Zn 0.06195 0.54335 0.14065 0.0
O6 O 0.9698 0.48987 0.10577 0.0
O7 O 0.04958 0.53174 0.10752 0.0
O8 O 0.94304 0.57241 0.16846 0.0
O9 O 0.91205 0.52311 0.13935 0.0
O10 O 0.90184 0.41959 0.14596 0.0
O11 O 0.9357 0.40238 0.174 0.0
O12 O 0.05584 0.45517 0.17428 0.0
O13 O 0.06264 0.6323 0.17025 0.0
O14 O 0.10056 0.5137 0.15016 0.0
O15 O 0.10399 0.61433 0.14627 0.0
C16 C 0.00019 0.5207 0.21978 0.0
C17 C 0.01086 0.50902 0.09627 0.0
C18 C 0.90064 0.39022 0.16061 0.0
C19 C 0.91191 0.55357 0.15295 0.0
C20 C 0.09452 0.47947 0.16302 0.0
C21 C 0.10019 0.64482 0.15844 0.0
O22 O -6e-05 0.48492 0.21034 0.0
O23 O 0.47294 0.02048 0.44882 0.0
Zn24 Zn 0.45387 0.0131 0.48149 0.0
O25 O 0.49957 0.00288 0.49931 0.0
Zn26 Zn 0.53298 0.05526 0.52023 0.0
Zn27 Zn 0.54741 -0.00066 0.48012 0.0
Zn28 Zn 0.46486 0.94412 0.5167 0.0
O29 O 0.52991 0.03279 0.55168 0.0
O30 O 0.47605 0.95461 0.54988 0.0
O31 O 0.45303 0.0737 0.49162 0.0
O32 O 0.50444 0.09746 0.51994 0.0
O33 O 0.60179 0.09755 0.51151 0.0
O34 O 0.61428 0.05782 0.48446 0.0
O35 O 0.54802 0.9367 0.48463 0.0
O36 O 0.38597 0.95429 0.48391 0.0
O37 O 0.48573 0.8977 0.50768 0.0
O38 O 0.39457 0.91097 0.5105 0.0
C39 C 0.50266 0.01272 0.43804 0.0
C40 C 0.50448 0.99198 0.56113 0.0
C41 C 0.62951 0.09444 0.49728 0.0
C42 C 0.47483 0.10242 0.50782 0.0
C43 C 0.51886 0.89889 0.49557 0.0
C44 C 0.36828 0.91736 0.49672 0.0
O45 O 0.53098 0.00194 0.44797 0.0
O46 O 0.46744 0.47151 0.7868 0.0
Zn47 Zn 0.4541 0.45663 0.81969 0.0
O48 O 0.50861 0.50516 0.83749 0.0
Zn49 Zn 0.4879 0.53763 0.85814 0.0
Zn50 Zn 0.55887 0.55351 0.81773 0.0
Zn51 Zn 0.53399 0.47332 0.85577 0.0
O52 O 0.5 0.53027 0.89046 0.0
O53 O 0.5226 0.47554 0.88864 0.0
O54 O 0.39197 0.45592 0.82756 0.0
O55 O 0.41757 0.51075 0.85464 0.0
O56 O 0.51799 0.6077 0.85097 0.0
O57 O 0.56447 0.61933 0.82146 0.0
O58 O 0.62368 0.55949 0.82405 0.0
O59 O 0.44617 0.38994 0.82366 0.0
O60 O 0.60504 0.50579 0.85141 0.0
O61 O 0.50501 0.40398 0.84728 0.0
C62 C 0.5041 0.50226 0.77571 0.0
C63 C 0.51143 0.50201 0.89997 0.0
C64 C 0.5463 0.6351 0.83577 0.0
C65 C 0.38401 0.48003 0.84221 0.0
C66 C 0.63575 0.53826 0.83844 0.0
C67 C 0.47017 0.37537 0.83482 0.0
O68 O 0.54195 0.53455 0.78547 0.0
O69 O 0.48692 0.03761 0.25837 0.0
Cd70 Cd 0.48608 0.03846 0.21746 0.0
O71 O 0.52988 0.0017 0.25959 0.0
Cd72 Cd 0.50991 0.97811 0.22517 0.0
O73 O 0.44765 0.93614 0.20368 0.0
C74 C 0.40762 0.9222 0.2135 0.0
O75 O 0.40806 0.93484 0.23442 0.0
C76 C 0.51057 0.02279 0.26955 0.0
C77 C 0.57583 0.10903 0.20096 0.0
O78 O 0.542 0.11838 0.2044 0.0
O79 O 0.5671 0.06611 0.20508 0.0
O80 O 0.53732 0.51425 0.59604 0.0
Cd81 Cd 0.54261 0.51931 0.55521 0.0
O82 O 0.46065 0.49251 0.59673 0.0
Cd83 Cd 0.46279 0.51025 0.56146 0.0
O84 O 0.47935 0.56292 0.53488 0.0
C85 C 0.51898 0.60277 0.53619 0.0
O86 O 0.54881 0.60875 0.55247 0.0
C87 C 0.49859 0.50066 0.607 0.0
C88 C 0.5217 0.43031 0.53768 0.0
O89 O 0.56481 0.46257 0.54294 0.0
O90 O 0.48823 0.44048 0.54027 0.0
O91 O 0.03011 0.53242 0.91727 0.0
Cd92 Cd 0.02756 0.53719 0.87649 0.0
O93 O 0.98138 0.45362 0.91819 0.0
Cd94 Cd 0.96066 0.45471 0.88369 0.0
O95 O 0.92387 0.48142 0.86264 0.0
C96 C 0.9236 0.51815 0.8705 0.0
O97 O 0.94619 0.53683 0.88937 0.0
C98 C 0.00921 0.49302 0.92826 0.0
C99 C 0.09672 0.51941 0.85841 0.0
O100 O 0.10634 0.56247 0.86301 0.0
O101 O 0.05364 0.48456 0.86176 0.0
O102 O 0.01373 0.51308 0.39959 0.0
Cd103 Cd 0.01164 0.51123 0.44037 0.0
O104 O 0.95892 0.53471 0.39768 0.0
Cd105 Cd 0.93882 0.51331 0.43233 0.0
O106 O 0.90443 0.44843 0.45304 0.0
C107 C 0.89384 0.41001 0.44236 0.0
O108 O 0.90538 0.41348 0.42109 0.0
C109 C 0.9895 0.52666 0.38806 0.0
C110 C 0.08021 0.6016 0.45678 0.0
O111 O 0.08956 0.56735 0.45463 0.0
O112 O 0.03801 0.59296 0.45146 0.0
O113 O 0.47787 0.97262 0.7401 0.0
Cd114 Cd 0.47795 0.9786 0.78077 0.0
O115 O 0.55576 0.02434 0.73834 0.0
Cd116 Cd 0.55553 0.05011 0.77194 0.0
O117 O 0.53649 0.09333 0.7931 0.0
C118 C 0.49645 0.09094 0.78929 0.0
O119 O 0.46797 0.061 0.77387 0.0
C120 C 0.5167 0.99408 0.72879 0.0
C121 C 0.50314 0.91426 0.79865 0.0
O122 O 0.45889 0.90253 0.79647 0.0
O123 O 0.53569 0.95698 0.79281 0.0
O124 O 0.4908 0.44283 0.07837 0.0
Cd125 Cd 0.48572 0.43767 0.11912 0.0
O126 O 0.48651 0.50922 0.07915 0.0
Cd127 Cd 0.46984 0.50378 0.11466 0.0
O128 O 0.4182 0.48979 0.14122 0.0
C129 C 0.37986 0.44866 0.14178 0.0
O130 O 0.3755 0.41496 0.12787 0.0
C131 C 0.49151 0.47803 0.0682 0.0
C132 C 0.57882 0.48044 0.13593 0.0
O133 O 0.55253 0.43435 0.13431 0.0
O134 O 0.56068 0.50635 0.13014 0.0
H135 H 0.09196 0.39649 0.17749 0.0
H136 H 0.18861 0.54211 0.15434 0.0
H137 H 0.16026 0.3823 0.17959 0.0
H138 H 0.25573 0.52814 0.1565 0.0
H139 H 0.37643 0.51054 0.17213 0.0
H140 H 0.3048 0.51253 0.1838 0.0
H141 H 0.21489 0.37732 0.14978 0.0
H142 H 0.28641 0.37475 0.13838 0.0
C143 C 0.1277 0.42548 0.17309 0.0
C144 C 0.13487 0.4702 0.16551 0.0
C145 C 0.16665 0.41739 0.1743 0.0
C146 C 0.21334 0.45429 0.16844 0.0
C147 C 0.2204 0.49928 0.16155 0.0
C148 C 0.18171 0.50706 0.16001 0.0
C149 C 0.34136 0.48051 0.16767 0.0
C150 C 0.33713 0.44318 0.1538 0.0
C151 C 0.30036 0.48169 0.17434 0.0
C152 C 0.25443 0.44567 0.16723 0.0
C153 C 0.24984 0.40561 0.15548 0.0
C154 C 0.29091 0.40432 0.14885 0.0
H155 H 0.70198 0.10296 0.46972 0.0
H156 H 0.66677 0.18331 0.51654 0.0
H157 H 0.77545 0.17737 0.45938 0.0
H158 H 0.73816 0.25739 0.50548 0.0
H159 H 0.87498 0.38836 0.48685 0.0
H160 H 0.82118 0.30934 0.50342 0.0
H161 H 0.79191 0.24465 0.43768 0.0
H162 H 0.8473 0.32275 0.42148 0.0
C163 C 0.71016 0.13632 0.47801 0.0
C164 C 0.67808 0.13719 0.49372 0.0
C165 C 0.7521 0.17912 0.47195 0.0
C166 C 0.76251 0.22378 0.48126 0.0
C167 C 0.73192 0.22391 0.49804 0.0
C168 C 0.6905 0.18118 0.5043 0.0
C169 C 0.85752 0.35703 0.47604 0.0
C170 C 0.86494 0.36187 0.45284 0.0
C171 C 0.82649 0.31172 0.4855 0.0
C172 C 0.80159 0.27041 0.47192 0.0
C173 C 0.81081 0.27521 0.4488 0.0
C174 C 0.84234 0.32028 0.43943 0.0
H175 H 0.58855 0.69947 0.80113 0.0
H176 H 0.51814 0.68155 0.86495 0.0
H177 H 0.58461 0.77268 0.79441 0.0
H178 H 0.51444 0.75441 0.85818 0.0
H179 H 0.44432 0.82822 0.81917 0.0
H180 H 0.46357 0.76693 0.83043 0.0
H181 H 0.61015 0.85805 0.80774 0.0
H182 H 0.59091 0.91985 0.79645 0.0
C183 C 0.5733 0.71168 0.81394 0.0
C184 C 0.55295 0.68417 0.8334 0.0
C185 C 0.57112 0.75365 0.8101 0.0
C186 C 0.54848 0.7687 0.82563 0.0
C187 C 0.53128 0.74311 0.84574 0.0
C188 C 0.53358 0.70143 0.84962 0.0
C189 C 0.48078 0.83545 0.81676 0.0
C190 C 0.51605 0.8788 0.80689 0.0
C191 C 0.4919 0.80047 0.82334 0.0
C192 C 0.53843 0.80781 0.82002 0.0
C193 C 0.57398 0.85143 0.81042 0.0
C194 C 0.56298 0.88679 0.80407 0.0
H195 H 0.86532 0.55865 0.11621 0.0
H196 H 0.86429 0.56379 0.18826 0.0
H197 H 0.78669 0.55324 0.11531 0.0
H198 H 0.78468 0.55666 0.18731 0.0
H199 H 0.61932 0.44184 0.16255 0.0
H200 H 0.70522 0.47433 0.16947 0.0
H201 H 0.73925 0.60086 0.13043 0.0
H202 H 0.65308 0.5692 0.12407 0.0
C203 C 0.84881 0.55994 0.1318 0.0
C204 C 0.87068 0.56157 0.15229 0.0
C205 C 0.804 0.55699 0.13128 0.0
C206 C 0.77989 0.55443 0.15125 0.0
C207 C 0.80286 0.55878 0.17173 0.0
C208 C 0.84835 0.56306 0.17224 0.0
C209 C 0.64507 0.4771 0.1559 0.0
C210 C 0.6297 0.50294 0.14271 0.0
C211 C 0.69407 0.49577 0.15998 0.0
C212 C 0.7285 0.54005 0.1505 0.0
C213 C 0.71316 0.56678 0.13799 0.0
C214 C 0.66401 0.54867 0.13439 0.0
H215 H 0.31618 0.84238 0.52518 0.0
H216 H 0.30664 0.90127 0.46173 0.0
H217 H 0.24134 0.76796 0.51728 0.0
H218 H 0.23127 0.82616 0.45386 0.0
H219 H 0.07973 0.68684 0.45454 0.0
H220 H 0.14377 0.76723 0.46627 0.0
H221 H 0.22867 0.70535 0.48849 0.0
H222 H 0.16529 0.62557 0.47678 0.0
C223 C 0.29767 0.83985 0.5097 0.0
C224 C 0.31788 0.8775 0.4939 0.0
C225 C 0.25485 0.79709 0.50518 0.0
C226 C 0.23107 0.79095 0.48478 0.0
C227 C 0.24894 0.82996 0.46972 0.0
C228 C 0.29208 0.87295 0.47424 0.0
C229 C 0.11196 0.69046 0.46209 0.0
C230 C 0.11752 0.6499 0.46474 0.0
C231 C 0.14859 0.73644 0.4687 0.0
C232 C 0.191 0.74245 0.47841 0.0
C233 C 0.19608 0.70172 0.48135 0.0
C234 C 0.15989 0.65605 0.47451 0.0
H235 H 0.42578 0.314 0.79975 0.0
H236 H 0.49491 0.32477 0.86297 0.0
H237 H 0.42519 0.23912 0.79172 0.0
H238 H 0.49279 0.2491 0.85536 0.0
H239 H 0.553 0.16591 0.81716 0.0
H240 H 0.53782 0.22835 0.83085 0.0
H241 H 0.39734 0.15582 0.79983 0.0
H242 H 0.41325 0.09394 0.7855 0.0
C243 C 0.4396 0.29965 0.81221 0.0
C244 C 0.46105 0.32563 0.83182 0.0
C245 C 0.43915 0.25659 0.80765 0.0
C246 C 0.45969 0.23844 0.82275 0.0
C247 C 0.47782 0.26268 0.84311 0.0
C248 C 0.47876 0.30592 0.84753 0.0
C249 C 0.51861 0.16288 0.81349 0.0
C250 C 0.48457 0.12523 0.80005 0.0
C251 C 0.5097 0.19858 0.82148 0.0
C252 C 0.46636 0.1973 0.81637 0.0
C253 C 0.43139 0.15835 0.80377 0.0
C254 C 0.44043 0.12274 0.79567 0.0
H255 H 0.59854 0.89106 0.48621 0.0
H256 H 0.44705 0.80699 0.50261 0.0
H257 H 0.60443 0.81771 0.48907 0.0
H258 H 0.45286 0.73474 0.5055 0.0
H259 H 0.46237 0.60467 0.50262 0.0
H260 H 0.46738 0.67628 0.4857 0.0
H261 H 0.59878 0.7671 0.52195 0.0
H262 H 0.59442 0.69565 0.53853 0.0
C263 C 0.56645 0.85688 0.49003 0.0
C264 C 0.52251 0.8548 0.49449 0.0
C265 C 0.56982 0.81503 0.49171 0.0
C266 C 0.52909 0.77045 0.49747 0.0
C267 C 0.48477 0.76825 0.50071 0.0
C268 C 0.48156 0.80987 0.49932 0.0
C269 C 0.49297 0.63982 0.50656 0.0
C270 C 0.52735 0.64456 0.52234 0.0
C271 C 0.49579 0.68083 0.49689 0.0
C272 C 0.53296 0.72734 0.50284 0.0
C273 C 0.56977 0.7318 0.51698 0.0
C274 C 0.56701 0.69077 0.52663 0.0
H275 H 0.68296 0.54434 0.87649 0.0
H276 H 0.70147 0.55834 0.80493 0.0
H277 H 0.76204 0.5526 0.88034 0.0
H278 H 0.78115 0.56573 0.80876 0.0
H279 H 0.86389 0.48185 0.83419 0.0
H280 H 0.80201 0.50055 0.82303 0.0
H281 H 0.85186 0.61183 0.87343 0.0
H282 H 0.91359 0.59342 0.88463 0.0
C283 C 0.70446 0.55002 0.86161 0.0
C284 C 0.68626 0.55053 0.84042 0.0
C285 C 0.74983 0.55507 0.86381 0.0
C286 C 0.77767 0.5599 0.84484 0.0
C287 C 0.76029 0.56212 0.82362 0.0
C288 C 0.71501 0.55812 0.82144 0.0
C289 C 0.86243 0.51111 0.84251 0.0
C290 C 0.89287 0.53538 0.86064 0.0
C291 C 0.82724 0.52204 0.836 0.0
C292 C 0.82194 0.55723 0.84757 0.0
C293 C 0.85498 0.5842 0.86441 0.0
C294 C 0.89021 0.5735 0.87083 0.0
H295 H 0.19119 0.67793 0.14244 0.0
H296 H 0.1063 0.72239 0.18095 0.0
H297 H 0.26411 0.75132 0.15303 0.0
H298 H 0.17949 0.79727 0.1908 0.0
H299 H 0.31846 0.87547 0.23247 0.0
H300 H 0.24322 0.8157 0.21563 0.0
H301 H 0.31568 0.83599 0.15221 0.0
H302 H 0.39186 0.89475 0.16947 0.0
C303 C 0.18789 0.70401 0.15268 0.0
C304 C 0.14287 0.69381 0.16116 0.0
C305 C 0.22991 0.74644 0.15867 0.0
C306 C 0.22795 0.78007 0.17308 0.0
C307 C 0.1825 0.7716 0.18014 0.0
C308 C 0.14045 0.72882 0.17435 0.0
C309 C 0.31837 0.86759 0.21487 0.0
C310 C 0.36128 0.88947 0.20238 0.0
C311 C 0.27495 0.83353 0.20511 0.0
C312 C 0.27315 0.82078 0.18251 0.0
C313 C 0.31581 0.84429 0.16974 0.0
C314 C 0.35946 0.87812 0.1796 0.0
H315 H 0.49995 0.15689 0.54539 0.0
H316 H 0.43905 0.14527 0.47981 0.0
H317 H 0.50677 0.23523 0.55046 0.0
H318 H 0.44565 0.22458 0.48521 0.0
H319 H 0.43528 0.35489 0.52301 0.0
H320 H 0.41655 0.27218 0.51444 0.0
H321 H 0.56459 0.31387 0.52715 0.0
H322 H 0.58354 0.39595 0.53548 0.0
C323 C 0.48735 0.17071 0.53214 0.0
C324 C 0.46975 0.14519 0.512 0.0
C325 C 0.49137 0.21566 0.53508 0.0
C326 C 0.47763 0.23616 0.51805 0.0
C327 C 0.45667 0.20941 0.49852 0.0
C328 C 0.45283 0.16413 0.49548 0.0
C329 C 0.4639 0.34647 0.52368 0.0
C330 C 0.5108 0.38182 0.53015 0.0
C331 C 0.45316 0.29928 0.51871 0.0
C332 C 0.48903 0.28679 0.52042 0.0
C333 C 0.53619 0.32259 0.52598 0.0
C334 C 0.54702 0.3696 0.53069 0.0
H335 H 0.30606 0.43414 0.8138 0.0
H336 H 0.35417 0.51826 0.87461 0.0
H337 H 0.23263 0.43995 0.81465 0.0
H338 H 0.28204 0.52424 0.87512 0.0
H339 H 0.19154 0.58569 0.85215 0.0
H340 H 0.25739 0.5701 0.8463 0.0
H341 H 0.15605 0.4168 0.84277 0.0
H342 H 0.08943 0.43216 0.84875 0.0
C343 C 0.30073 0.45314 0.82746 0.0
C344 C 0.33632 0.47632 0.84394 0.0
C345 C 0.25888 0.45652 0.82789 0.0
C346 C 0.25248 0.48342 0.84468 0.0
C347 C 0.28673 0.50419 0.86173 0.0
C348 C 0.32799 0.50055 0.86143 0.0
C349 C 0.18303 0.54867 0.84978 0.0
C350 C 0.13533 0.51011 0.85126 0.0
C351 C 0.22076 0.5398 0.84647 0.0
C352 C 0.21163 0.49225 0.84441 0.0
C353 C 0.16384 0.45376 0.84433 0.0
C354 C 0.12588 0.46261 0.84782 0.0
H355 H 0.88023 0.31982 0.19198 0.0
H356 H 0.81811 0.35423 0.13601 0.0
H357 H 0.80192 0.24854 0.19991 0.0
H358 H 0.74031 0.28301 0.14391 0.0
H359 H 0.60211 0.19986 0.18653 0.0
H360 H 0.68173 0.26357 0.17472 0.0
H361 H 0.73803 0.16806 0.18539 0.0
H362 H 0.65817 0.1041 0.19736 0.0
C363 C 0.8502 0.3118 0.18113 0.0
C364 C 0.85545 0.34313 0.16351 0.0
C365 C 0.80535 0.27086 0.18565 0.0
C366 C 0.76485 0.26057 0.1727 0.0
C367 C 0.77068 0.2905 0.15442 0.0
C368 C 0.81542 0.3312 0.14984 0.0
C369 C 0.63135 0.19229 0.18625 0.0
C370 C 0.62381 0.14695 0.19292 0.0
C371 C 0.67693 0.22871 0.17934 0.0
C372 C 0.71612 0.22076 0.17906 0.0
C373 C 0.70857 0.17531 0.18557 0.0
C374 C 0.6628 0.13867 0.19232 0.0
H375 H 0.93628 0.45718 0.06753 0.0
H376 H 0.09099 0.55135 0.06932 0.0
H377 H 0.93964 0.45182 0.02712 0.0
H378 H 0.09425 0.54541 0.02876 0.0
H379 H 0.06562 0.5706 0.95501 0.0
H380 H 0.0686 0.57275 0.99569 0.0
H381 H 0.96864 0.4188 0.99786 0.0
H382 H 0.96508 0.41662 0.95719 0.0
C383 C 0.97108 0.47657 0.05934 0.0
C384 C 0.01335 0.50486 0.07171 0.0
C385 C 0.97301 0.47316 0.03616 0.0
C386 C 0.01722 0.49808 0.02474 0.0
C387 C 0.05959 0.5261 0.03708 0.0
C388 C 0.05771 0.52933 0.06032 0.0
C389 C 0.04462 0.5371 0.96414 0.0
C390 C 0.0148 0.4935 0.95283 0.0
C391 C 0.04654 0.53832 0.98746 0.0
C392 C 0.01858 0.49601 -1e-05 0.0
C393 C 0.99004 0.45214 0.98867 0.0
C394 C 0.98823 0.45087 0.96535 0.0
H395 H 0.47522 0.06398 0.41147 0.0
H396 H 0.53498 0.96991 0.40901 0.0
H397 H 0.48093 0.07163 0.37093 0.0
H398 H 0.53815 0.97506 0.36854 0.0
H399 H 0.57712 0.02187 0.29744 0.0
H400 H 0.57773 0.02369 0.33809 0.0
H401 H 0.44716 0.03136 0.33775 0.0
H402 H 0.44852 0.03251 0.29717 0.0
C403 C 0.48907 0.0445 0.40221 0.0
C404 C 0.50472 0.01642 0.41341 0.0
C405 C 0.49217 0.04866 0.37893 0.0
C406 C 0.51012 0.02406 0.36628 0.0
C407 C 0.52525 0.99556 0.3776 0.0
C408 C 0.52303 0.9922 0.40086 0.0
C409 C 0.5489 0.02447 0.30612 0.0
C410 C 0.51277 0.027 0.29415 0.0
C411 C 0.54892 0.02507 0.32945 0.0
C412 C 0.51216 0.02711 0.34139 0.0
C413 C 0.47652 0.03052 0.32929 0.0
C414 C 0.4771 0.03093 0.30595 0.0
H415 H 0.43176 0.43618 0.74887 0.0
H416 H 0.57365 0.56372 0.74639 0.0
H417 H 0.43015 0.43269 0.70821 0.0
H418 H 0.5715 0.56074 0.70578 0.0
H419 H 0.57302 0.51522 0.63418 0.0
H420 H 0.57381 0.51318 0.67485 0.0
H421 H 0.42473 0.47643 0.67637 0.0
H422 H 0.42357 0.47742 0.63571 0.0
C423 C 0.46255 0.46359 0.73968 0.0
C424 C 0.50284 0.50024 0.75095 0.0
C425 C 0.46151 0.46169 0.71635 0.0
C426 C 0.50071 0.49639 0.70372 0.0
C427 C 0.541 0.53299 0.71498 0.0
C428 C 0.54207 0.53488 0.7383 0.0
C429 C 0.54029 0.50636 0.64317 0.0
C430 C 0.49827 0.49663 0.63166 0.0
C431 C 0.54085 0.50552 0.6665 0.0
C432 C 0.49943 0.49498 0.67889 0.0
C433 C 0.45712 0.48422 0.66736 0.0
C434 C 0.45654 0.48501 0.64403 0.0
H435 H 0.56201 0.06402 0.59004 0.0
H436 H 0.45439 0.91192 0.58777 0.0
H437 H 0.56577 0.05946 0.63038 0.0
H438 H 0.45893 0.90728 0.62833 0.0
H439 H 0.59354 0.03063 0.70021 0.0
H440 H 0.59189 0.02549 0.65963 0.0
H441 H 0.43665 0.93681 0.66142 0.0
H442 H 0.43829 0.94103 0.70208 0.0
C443 C 0.5394 0.02946 0.59811 0.0
C444 C 0.50776 0.98837 0.58564 0.0
C445 C 0.54186 0.02679 0.62127 0.0
C446 C 0.5128 0.98295 0.63256 0.0
C447 C 0.48148 0.94166 0.62012 0.0
C448 C 0.47904 0.94431 0.59688 0.0
C449 C 0.55907 0.00956 0.69199 0.0
C450 C 0.516 0.98664 0.70438 0.0
C451 C 0.55813 0.00683 0.66872 0.0
C452 C 0.51411 0.98124 0.6573 0.0
C453 C 0.47118 0.95654 0.66972 0.0
C454 C 0.47212 0.95917 0.69303 0.0
H455 H 0.52282 0.57159 0.92962 0.0
H456 H 0.49962 0.42676 0.92587 0.0
H457 H 0.52194 0.56741 0.97018 0.0
H458 H 0.49571 0.42114 0.96642 0.0
H459 H 0.52954 0.43792 0.04038 0.0
H460 H 0.53799 0.44569 -0.00013 0.0
H461 H 0.47038 0.53314 0.00021 0.0
H462 H 0.46475 0.52761 0.04061 0.0
C463 C 0.51706 0.53865 0.93751 0.0
C464 C 0.51119 0.49948 0.9246 0.0
C465 C 0.51621 0.53605 0.9608 0.0
C466 C 0.50835 0.49375 0.97176 0.0
C467 C 0.50269 0.45463 0.95872 0.0
C468 C 0.50457 0.45767 0.93542 0.0
C469 C 0.51676 0.45896 0.03172 0.0
C470 C 0.49667 0.48229 0.04365 0.0
C471 C 0.52127 0.4632 0.00847 0.0
C472 C 0.50492 0.49011 0.9966 0.0
C473 C 0.48449 0.51308 0.00867 0.0
C474 C 0.48088 0.50962 0.03189 0.0
H475 H 0.00084 0.45659 0.2498 0.0
H476 H 0.00039 0.59114 0.24577 0.0
H477 H 0.00065 0.46089 0.2904 0.0
H478 H 0.00102 0.5957 0.28638 0.0
H479 H 0.94277 0.55357 0.35839 0.0
H480 H 0.94702 0.55361 0.31777 0.0
H481 H 0.05271 0.50844 0.32137 0.0
H482 H 0.04795 0.5076 0.36201 0.0
C483 C 0.0009 0.48719 0.25754 0.0
C484 C 0.0005 0.52345 0.24448 0.0
C485 C 0.00113 0.48981 0.28083 0.0
C486 C 0.00091 0.52869 0.2916 0.0
C487 C 0.00067 0.56502 0.27857 0.0
C488 C 0.00051 0.56246 0.25528 0.0
C489 C 0.96718 0.54397 0.35054 0.0
C490 C 0.99487 0.53039 0.36346 0.0
C491 C 0.96976 0.54421 0.32725 0.0
C492 C 2e-05 0.53079 0.31635 0.0
C493 C 0.02851 0.51825 0.32928 0.0
C494 C 0.02601 0.51811 0.35257 0.0
loop_
_geom_bond_atom_site_label_1
_geom_bond_atom_site_label_2
_geom_bond_distance
_geom_bond_site_symmetry_2
_ccdc_geom_bond_type
O0 Zn1 1.953 . S
O0 C16 1.225 1_655 S
Zn1 O0 1.953 . S
Zn1 O2 1.949 1_655 S
Zn1 O8 1.919 . S
Zn1 O13 1.924 1_655 S
O2 Zn1 1.949 1_455 S
O2 Zn3 1.923 1_455 S
O2 Zn4 1.950 . S
O2 Zn5 1.945 . S
Zn3 O2 1.923 1_655 S
Zn3 O6 1.933 . S
Zn3 O9 1.941 . S
Zn3 O10 1.965 . S
Zn4 O2 1.950 . S
Zn4 O11 1.938 1_455 S
Zn4 O12 1.906 . S
Zn4 O22 1.953 . S
Zn5 O2 1.945 . S
Zn5 O7 1.932 . S
Zn5 O14 1.977 . S
Zn5 O15 1.910 . S
O6 Zn3 1.933 . S
O6 C17 1.226 1_655 S
O7 Zn5 1.932 . S
O7 C17 1.307 . S
O8 Zn1 1.919 . S
O8 C19 1.253 . S
O9 Zn3 1.941 . S
O9 C19 1.283 . S
O10 Zn3 1.965 . S
O10 C18 1.303 . S
O11 Zn4 1.938 1_655 S
O11 C18 1.247 . S
O12 Zn4 1.906 . S
O12 C20 1.304 . S
O13 Zn1 1.924 1_455 S
O13 C21 1.311 . S
O14 Zn5 1.977 . S
O14 C20 1.272 . S
O15 Zn5 1.910 . S
O15 C21 1.231 . S
C16 O0 1.225 1_455 S
C16 O22 1.298 . S
C17 O6 1.226 1_455 S
C17 O7 1.307 . S
C18 O10 1.303 . S
C18 O11 1.247 . S
C19 O8 1.253 . S
C19 O9 1.283 . S
C20 O12 1.304 . S
C20 O14 1.272 . S
C21 O13 1.311 . S
C21 O15 1.231 . S
O22 Zn4 1.953 . S
O22 C16 1.298 . S
O23 Zn24 1.953 . S
O23 C39 1.225 . S
Zn24 O23 1.953 . S
Zn24 O25 1.949 . S
Zn24 O31 1.919 . S
Zn24 O36 1.924 1_545 S
O25 Zn24 1.949 . S
O25 Zn26 1.923 . S
O25 Zn27 1.950 1_545 S
O25 Zn28 1.945 1_545 S
Zn26 O25 1.923 . S
Zn26 O29 1.933 . S
Zn26 O32 1.941 . S
Zn26 O33 1.965 . S
Zn27 O25 1.950 1_565 S
Zn27 O34 1.938 1_565 S
Zn27 O35 1.906 . S
Zn27 O45 1.953 . S
Zn28 O25 1.945 1_565 S
Zn28 O30 1.932 . S
Zn28 O37 1.977 . S
Zn28 O38 1.910 . S
O29 Zn26 1.933 . S
O29 C40 1.226 . S
O30 Zn28 1.932 . S
O30 C40 1.307 1_565 S
O31 Zn24 1.919 . S
O31 C42 1.253 . S
O32 Zn26 1.941 . S
O32 C42 1.283 . S
O33 Zn26 1.965 . S
O33 C41 1.303 . S
O34 Zn27 1.938 1_545 S
O34 C41 1.247 . S
O35 Zn27 1.906 . S
O35 C43 1.304 . S
O36 Zn24 1.924 1_565 S
O36 C44 1.311 . S
O37 Zn28 1.977 . S
O37 C43 1.272 . S
O38 Zn28 1.910 . S
O38 C44 1.231 . S
C39 O23 1.225 . S
C39 O45 1.298 1_545 S
C40 O29 1.226 . S
C40 O30 1.307 1_545 S
C41 O33 1.303 . S
C41 O34 1.247 . S
C42 O31 1.253 . S
C42 O32 1.283 . S
C43 O35 1.304 . S
C43 O37 1.272 . S
C44 O36 1.311 . S
C44 O38 1.231 . S
O45 Zn27 1.953 . S
O45 C39 1.298 1_565 S
O46 Zn47 1.953 . S
O46 C62 1.225 . S
Zn47 O46 1.953 . S
Zn47 O48 1.949 . S
Zn47 O54 1.919 . S
Zn47 O59 1.924 . S
O48 Zn47 1.949 . S
O48 Zn49 1.923 . S
O48 Zn50 1.950 . S
O48 Zn51 1.945 . S
Zn49 O48 1.923 . S
Zn49 O52 1.933 . S
Zn49 O55 1.941 . S
Zn49 O56 1.965 . S
Zn50 O48 1.950 . S
Zn50 O57 1.938 . S
Zn50 O58 1.906 . S
Zn50 O68 1.953 . S
Zn51 O48 1.945 . S
Zn51 O53 1.932 . S
Zn51 O60 1.977 . S
Zn51 O61 1.910 . S
O52 Zn49 1.933 . S
O52 C63 1.226 . S
O53 Zn51 1.932 . S
O53 C63 1.307 . S
O54 Zn47 1.919 . S
O54 C65 1.253 . S
O55 Zn49 1.941 . S
O55 C65 1.283 . S
O56 Zn49 1.965 . S
O56 C64 1.303 . S
O57 Zn50 1.938 . S
O57 C64 1.247 . S
O58 Zn50 1.906 . S
O58 C66 1.304 . S
O59 Zn47 1.924 . S
O59 C67 1.311 . S
O60 Zn51 1.977 . S
O60 C66 1.272 . S
O61 Zn51 1.910 . S
O61 C67 1.231 . S
C62 O46 1.225 . S
C62 O68 1.298 . S
C63 O52 1.226 . S
C63 O53 1.307 . S
C64 O56 1.303 . S
C64 O57 1.247 . S
C65 O54 1.253 . S
C65 O55 1.283 . S
C66 O58 1.304 . S
C66 O60 1.272 . S
C67 O59 1.311 . S
C67 O61 1.231 . S
O68 Zn50 1.953 . S
O68 C62 1.298 . S
O69 Cd70 2.300 . S
O69 C76 1.275 . S
Cd70 O69 2.300 . S
Cd70 O78 2.381 . S
Cd70 O79 2.378 . S
O71 Cd72 2.385 . S
O71 C76 1.255 1_565 S
Cd72 O71 2.385 . S
Cd72 O73 2.317 . S
O73 Cd72 2.317 . S
O73 C74 1.232 . S
C74 O73 1.232 . S
C74 O75 1.218 . S
O75 C74 1.218 . S
C76 O69 1.275 . S
C76 O71 1.255 1_545 S
C77 O78 1.258 . S
C77 O79 1.256 . S
O78 Cd70 2.381 . S
O78 C77 1.258 . S
O79 Cd70 2.378 . S
O79 C77 1.256 . S
O80 Cd81 2.300 . S
O80 C87 1.275 . S
Cd81 O80 2.300 . S
Cd81 O89 2.381 . S
Cd81 O90 2.378 . S
O82 Cd83 2.385 . S
O82 C87 1.255 . S
Cd83 O82 2.385 . S
Cd83 O84 2.317 . S
O84 Cd83 2.317 . S
O84 C85 1.232 . S
C85 O84 1.232 . S
C85 O86 1.218 . S
O86 C85 1.218 . S
C87 O80 1.275 . S
C87 O82 1.255 . S
C88 O89 1.258 . S
C88 O90 1.256 . S
O89 Cd81 2.381 . S
O89 C88 1.258 . S
O90 Cd81 2.378 . S
O90 C88 1.256 . S
O91 Cd92 2.300 . S
O91 C98 1.275 . S
Cd92 O91 2.300 . S
Cd92 O100 2.381 . S
Cd92 O101 2.378 . S
O93 Cd94 2.385 . S
O93 C98 1.255 1_655 S
Cd94 O93 2.385 . S
Cd94 O95 2.317 . S
O95 Cd94 2.317 . S
O95 C96 1.232 . S
C96 O95 1.232 . S
C96 O97 1.218 . S
O97 C96 1.218 . S
C98 O91 1.275 . S
C98 O93 1.255 1_455 S
C99 O100 1.258 . S
C99 O101 1.256 . S
O100 Cd92 2.381 . S
O100 C99 1.258 . S
O101 Cd92 2.378 . S
O101 C99 1.256 . S
O102 Cd103 2.300 . S
O102 C109 1.275 1_455 S
Cd103 O102 2.300 . S
Cd103 O111 2.381 . S
Cd103 O112 2.378 . S
O104 Cd105 2.385 . S
O104 C109 1.255 . S
Cd105 O104 2.385 . S
Cd105 O106 2.317 . S
O106 Cd105 2.317 . S
O106 C107 1.232 . S
C107 O106 1.232 . S
C107 O108 1.218 . S
O108 C107 1.218 . S
C109 O102 1.275 1_655 S
C109 O104 1.255 . S
C110 O111 1.258 . S
C110 O112 1.256 . S
O111 Cd103 2.381 . S
O111 C110 1.258 . S
O112 Cd103 2.378 . S
O112 C110 1.256 . S
O113 Cd114 2.300 . S
O113 C120 1.275 1_565 S
Cd114 O113 2.300 . S
Cd114 O122 2.381 . S
Cd114 O123 2.378 . S
O115 Cd116 2.385 . S
O115 C120 1.255 . S
Cd116 O115 2.385 . S
Cd116 O117 2.317 . S
O117 Cd116 2.317 . S
O117 C118 1.232 . S
C118 O117 1.232 . S
C118 O119 1.218 . S
O119 C118 1.218 . S
C120 O113 1.275 1_545 S
C120 O115 1.255 . S
C121 O122 1.258 . S
C121 O123 1.256 . S
O122 Cd114 2.381 . S
O122 C121 1.258 . S
O123 Cd114 2.378 . S
O123 C121 1.256 . S
O124 Cd125 2.300 . S
O124 C131 1.275 . S
Cd125 O124 2.300 . S
Cd125 O133 2.381 . S
Cd125 O134 2.378 . S
O126 Cd127 2.385 . S
O126 C131 1.255 . S
Cd127 O126 2.385 . S
Cd127 O128 2.317 . S
O128 Cd127 2.317 . S
O128 C129 1.232 . S
C129 O128 1.232 . S
C129 O130 1.218 . S
O130 C129 1.218 . S
C131 O124 1.275 . S
C131 O126 1.255 . S
C132 O133 1.258 . S
C132 O134 1.256 . S
O133 Cd125 2.381 . S
O133 C132 1.258 . S
O134 Cd125 2.378 . S
O134 C132 1.256 . S
H135 C143 0.950 . S
H136 C148 0.950 . S
H137 C145 0.950 . S
H138 C147 0.950 . S
H139 C149 0.950 . S
H140 C151 0.950 . S
H141 C153 0.950 . S
H142 C154 0.950 . S
C143 H135 0.950 . S
C143 C144 1.386 . S
C143 C145 1.391 . S
C144 C143 1.386 . S
C144 C148 1.393 . S
C145 H137 0.950 . S
C145 C143 1.391 . S
C145 C146 1.400 . S
C146 C145 1.400 . S
C146 C147 1.398 . S
C146 C152 1.491 . S
C147 H138 0.950 . S
C147 C146 1.398 . S
C147 C148 1.391 . S
C148 H136 0.950 . S
C148 C144 1.393 . S
C148 C147 1.391 . S
C149 H139 0.950 . S
C149 C150 1.386 . S
C149 C151 1.391 . S
C150 C149 1.386 . S
C150 C154 1.393 . S
C151 H140 0.950 . S
C151 C149 1.391 . S
C151 C152 1.400 . S
C152 C146 1.491 . S
C152 C151 1.400 . S
C152 C153 1.398 . S
C153 H141 0.950 . S
C153 C152 1.398 . S
C153 C154 1.391 . S
C154 H142 0.950 . S
C154 C150 1.393 . S
C154 C153 1.391 . S
H155 C163 0.950 . S
H156 C168 0.950 . S
H157 C165 0.950 . S
H158 C167 0.950 . S
H159 C169 0.950 . S
H160 C171 0.950 . S
H161 C173 0.950 . S
H162 C174 0.950 . S
C163 H155 0.950 . S
C163 C164 1.386 . S
C163 C165 1.391 . S
C164 C163 1.386 . S
C164 C168 1.393 . S
C165 H157 0.950 . S
C165 C163 1.391 . S
C165 C166 1.400 . S
C166 C165 1.400 . S
C166 C167 1.398 . S
C166 C172 1.491 . S
C167 H158 0.950 . S
C167 C166 1.398 . S
C167 C168 1.391 . S
C168 H156 0.950 . S
C168 C164 1.393 . S
C168 C167 1.391 . S
C169 H159 0.950 . S
C169 C170 1.386 . S
C169 C171 1.391 . S
C170 C169 1.386 . S
C170 C174 1.393 . S
C171 H160 0.950 . S
C171 C169 1.391 . S
C171 C172 1.400 . S
C172 C166 1.491 . S
C172 C171 1.400 . S
C172 C173 1.398 . S
C173 H161 0.950 . S
C173 C172 1.398 . S
C173 C174 1.391 . S
C174 H162 0.950 . S
C174 C170 1.393 . S
C174 C173 1.391 . S
H175 C183 0.950 . S
H176 C188 0.950 . S
H177 C185 0.950 . S
H178 C187 0.950 . S
H179 C189 0.950 . S
H180 C191 0.950 . S
H181 C193 0.950 . S
H182 C194 0.950 . S
C183 H175 0.950 . S
C183 C184 1.386 . S
C183 C185 1.391 . S
C184 C183 1.386 . S
C184 C188 1.393 . S
C185 H177 0.950 . S
C185 C183 1.391 . S
C185 C186 1.400 . S
C186 C185 1.400 . S
C186 C187 1.398 . S
C186 C192 1.491 . S
C187 H178 0.950 . S
C187 C186 1.398 . S
C187 C188 1.391 . S
C188 H176 0.950 . S
C188 C184 1.393 . S
C188 C187 1.391 . S
C189 H179 0.950 . S
C189 C190 1.386 . S
C189 C191 1.391 . S
C190 C189 1.386 . S
C190 C194 1.393 . S
C191 H180 0.950 . S
C191 C189 1.391 . S
C191 C192 1.400 . S
C192 C186 1.491 . S
C192 C191 1.400 . S
C192 C193 1.398 . S
C193 H181 0.950 . S
C193 C192 1.398 . S
C193 C194 1.391 . S
C194 H182 0.950 . S
C194 C190 1.393 . S
C194 C193 1.391 . S
H195 C203 0.950 . S
H196 C208 0.950 . S
H197 C205 0.950 . S
H198 C207 0.950 . S
H199 C209 0.950 . S
H200 C211 0.950 . S
H201 C213 0.950 . S
H202 C214 0.950 . S
C203 H195 0.950 . S
C203 C204 1.386 . S
C203 C205 1.391 . S
C204 C203 1.386 . S
C204 C208 1.393 . S
C205 H197 0.950 . S
C205 C203 1.391 . S
C205 C206 1.400 . S
C206 C205 1.400 . S
C206 C207 1.398 . S
C206 C212 1.491 . S
C207 H198 0.950 . S
C207 C206 1.398 . S
C207 C208 1.391 . S
C208 H196 0.950 . S
C208 C204 1.393 . S
C208 C207 1.391 . S
C209 H199 0.950 . S
C209 C210 1.386 . S
C209 C211 1.391 . S
C210 C209 1.386 . S
C210 C214 1.393 . S
C211 H200 0.950 . S
C211 C209 1.391 . S
C211 C212 1.400 . S
C212 C206 1.491 . S
C212 C211 1.400 . S
C212 C213 1.398 . S
C213 H201 0.950 . S
C213 C212 1.398 . S
C213 C214 1.391 . S
C214 H202 0.950 . S
C214 C210 1.393 . S
C214 C213 1.391 . S
H215 C223 0.950 . S
H216 C228 0.950 . S
H217 C225 0.950 . S
H218 C227 0.950 . S
H219 C229 0.950 . S
H220 C231 0.950 . S
H221 C233 0.950 . S
H222 C234 0.950 . S
C223 H215 0.950 . S
C223 C224 1.386 . S
C223 C225 1.391 . S
C224 C223 1.386 . S
C224 C228 1.393 . S
C225 H217 0.950 . S
C225 C223 1.391 . S
C225 C226 1.400 . S
C226 C225 1.400 . S
C226 C227 1.398 . S
C226 C232 1.491 . S
C227 H218 0.950 . S
C227 C226 1.398 . S
C227 C228 1.391 . S
C228 H216 0.950 . S
C228 C224 1.393 . S
C228 C227 1.391 . S
C229 H219 0.950 . S
C229 C230 1.386 . S
C229 C231 1.391 . S
C230 C229 1.386 . S
C230 C234 1.393 . S
C231 H220 0.950 . S
C231 C229 1.391 . S
C231 C232 1.400 . S
C232 C226 1.491 . S
C232 C231 1.400 . S
C232 C233 1.398 . S
C233 H221 0.950 . S
C233 C232 1.398 . S
C233 C234 1.391 . S
C234 H222 0.950 . S
C234 C230 1.393 . S
C234 C233 1.391 . S
H235 C243 0.950 . S
H236 C248 0.950 . S
H237 C245 0.950 . S
H238 C247 0.950 . S
H239 C249 0.950 . S
H240 C251 0.950 . S
H241 C253 0.950 . S
H242 C254 0.950 . S
C243 H235 0.950 . S
C243 C244 1.386 . S
C243 C245 1.391 . S
C244 C243 1.386 . S
C244 C248 1.393 . S
C245 H237 0.950 . S
C245 C243 1.391 . S
C245 C246 1.400 . S
C246 C245 1.400 . S
C246 C247 1.398 . S
C246 C252 1.491 . S
C247 H238 0.950 . S
C247 C246 1.398 . S
C247 C248 1.391 . S
C248 H236 0.950 . S
C248 C244 1.393 . S
C248 C247 1.391 . S
C249 H239 0.950 . S
C249 C250 1.386 . S
C249 C251 1.391 . S
C250 C249 1.386 . S
C250 C254 1.393 . S
C251 H240 0.950 . S
C251 C249 1.391 . S
C251 C252 1.400 . S
C252 C246 1.491 . S
C252 C251 1.400 . S
C252 C253 1.398 . S
C253 H241 0.950 . S
C253 C252 1.398 . S
C253 C254 1.391 . S
C254 H242 0.950 . S
C254 C250 1.393 . S
C254 C253 1.391 . S
H255 C263 0.950 . S
H256 C268 0.950 . S
H257 C265 0.950 . S
H258 C267 0.950 . S
H259 C269 0.950 . S
H260 C271 0.950 . S
H261 C273 0.950 . S
H262 C274 0.950 . S
C263 H255 0.950 . S
C263 C264 1.386 . S
C263 C265 1.391 . S
C264 C263 1.386 . S
C264 C268 1.393 . S
C265 H257 0.950 . S
C265 C263 1.391 . S
C265 C266 1.400 . S
C266 C265 1.400 . S
C266 C267 1.398 . S
C266 C272 1.491 . S
C267 H258 0.950 . S
C267 C266 1.398 . S
C267 C268 1.391 . S
C268 H256 0.950 . S
C268 C264 1.393 . S
C268 C267 1.391 . S
C269 H259 0.950 . S
C269 C270 1.386 . S
C269 C271 1.391 . S
C270 C269 1.386 . S
C270 C274 1.393 . S
C271 H260 0.950 . S
C271 C269 1.391 . S
C271 C272 1.400 . S
C272 C266 1.491 . S
C272 C271 1.400 . S
C272 C273 1.398 . S
C273 H261 0.950 . S
C273 C272 1.398 . S
C273 C274 1.391 . S
C274 H262 0.950 . S
C274 C270 1.393 . S
C274 C273 1.391 . S
H275 C283 0.950 . S
H276 C288 0.950 . S
H277 C285 0.950 . S
H278 C287 0.950 . S
H279 C289 0.950 . S
H280 C291 0.950 . S
H281 C293 0.950 . S
H282 C294 0.950 . S
C283 H275 0.950 . S
C283 C284 1.386 . S
C283 C285 1.391 . S
C284 C283 1.386 . S
C284 C288 1.393 . S
C285 H277 0.950 . S
C285 C283 1.391 . S
C285 C286 1.400 . S
C286 C285 1.400 . S
C286 C287 1.398 . S
C286 C292 1.491 . S
C287 H278 0.950 . S
C287 C286 1.398 . S
C287 C288 1.391 . S
C288 H276 0.950 . S
C288 C284 1.393 . S
C288 C287 1.391 . S
C289 H279 0.950 . S
C289 C290 1.386 . S
C289 C291 1.391 . S
C290 C289 1.386 . S
C290 C294 1.393 . S
C291 H280 0.950 . S
C291 C289 1.391 . S
C291 C292 1.400 . S
C292 C286 1.491 . S
C292 C291 1.400 . S
C292 C293 1.398 . S
C293 H281 0.950 . S
C293 C292 1.398 . S
C293 C294 1.391 . S
C294 H282 0.950 . S
C294 C290 1.393 . S
C294 C293 1.391 . S
H295 C303 0.950 . S
H296 C308 0.950 . S
H297 C305 0.950 . S
H298 C307 0.950 . S
H299 C309 0.950 . S
H300 C311 0.950 . S
H301 C313 0.950 . S
H302 C314 0.950 . S
C303 H295 0.950 . S
C303 C304 1.386 . S
C303 C305 1.391 . S
C304 C303 1.386 . S
C304 C308 1.393 . S
C305 H297 0.950 . S
C305 C303 1.391 . S
C305 C306 1.400 . S
C306 C305 1.400 . S
C306 C307 1.398 . S
C306 C312 1.491 . S
C307 H298 0.950 . S
C307 C306 1.398 . S
C307 C308 1.391 . S
C308 H296 0.950 . S
C308 C304 1.393 . S
C308 C307 1.391 . S
C309 H299 0.950 . S
C309 C310 1.386 . S
C309 C311 1.391 . S
C310 C309 1.386 . S
C310 C314 1.393 . S
C311 H300 0.950 . S
C311 C309 1.391 . S
C311 C312 1.400 . S
C312 C306 1.491 . S
C312 C311 1.400 . S
C312 C313 1.398 . S
C313 H301 0.950 . S
C313 C312 1.398 . S
C313 C314 1.391 . S
C314 H302 0.950 . S
C314 C310 1.393 . S
C314 C313 1.391 . S
H315 C323 0.950 . S
H316 C328 0.950 . S
H317 C325 0.950 . S
H318 C327 0.950 . S
H319 C329 0.950 . S
H320 C331 0.950 . S
H321 C333 0.950 . S
H322 C334 0.950 . S
C323 H315 0.950 . S
C323 C324 1.386 . S
C323 C325 1.391 . S
C324 C323 1.386 . S
C324 C328 1.393 . S
C325 H317 0.950 . S
C325 C323 1.391 . S
C325 C326 1.400 . S
C326 C325 1.400 . S
C326 C327 1.398 . S
C326 C332 1.491 . S
C327 H318 0.950 . S
C327 C326 1.398 . S
C327 C328 1.391 . S
C328 H316 0.950 . S
C328 C324 1.393 . S
C328 C327 1.391 . S
C329 H319 0.950 . S
C329 C330 1.386 . S
C329 C331 1.391 . S
C330 C329 1.386 . S
C330 C334 1.393 . S
C331 H320 0.950 . S
C331 C329 1.391 . S
C331 C332 1.400 . S
C332 C326 1.491 . S
C332 C331 1.400 . S
C332 C333 1.398 . S
C333 H321 0.950 . S
C333 C332 1.398 . S
C333 C334 1.391 . S
C334 H322 0.950 . S
C334 C330 1.393 . S
C334 C333 1.391 . S
H335 C343 0.950 . S
H336 C348 0.950 . S
H337 C345 0.950 . S
H338 C347 0.950 . S
H339 C349 0.950 . S
H340 C351 0.950 . S
H341 C353 0.950 . S
H342 C354 0.950 . S
C343 H335 0.950 . S
C343 C344 1.386 . S
C343 C345 1.391 . S
C344 C343 1.386 . S
C344 C348 1.393 . S
C345 H337 0.950 . S
C345 C343 1.391 . S
C345 C346 1.400 . S
C346 C345 1.400 . S
C346 C347 1.398 . S
C346 C352 1.491 . S
C347 H338 0.950 . S
C347 C346 1.398 . S
C347 C348 1.391 . S
C348 H336 0.950 . S
C348 C344 1.393 . S
C348 C347 1.391 . S
C349 H339 0.950 . S
C349 C350 1.386 . S
C349 C351 1.391 . S
C350 C349 1.386 . S
C350 C354 1.393 . S
C351 H340 0.950 . S
C351 C349 1.391 . S
C351 C352 1.400 . S
C352 C346 1.491 . S
C352 C351 1.400 . S
C352 C353 1.398 . S
C353 H341 0.950 . S
C353 C352 1.398 . S
C353 C354 1.391 . S
C354 H342 0.950 . S
C354 C350 1.393 . S
C354 C353 1.391 . S
H355 C363 0.950 . S
H356 C368 0.950 . S
H357 C365 0.950 . S
H358 C367 0.950 . S
H359 C369 0.950 . S
H360 C371 0.950 . S
H361 C373 0.950 . S
H362 C374 0.950 . S
C363 H355 0.950 . S
C363 C364 1.386 . S
C363 C365 1.391 . S
C364 C363 1.386 . S
C364 C368 1.393 . S
C365 H357 0.950 . S
C365 C363 1.391 . S
C365 C366 1.400 . S
C366 C365 1.400 . S
C366 C367 1.398 . S
C366 C372 1.491 . S
C367 H358 0.950 . S
C367 C366 1.398 . S
C367 C368 1.391 . S
C368 H356 0.950 . S
C368 C364 1.393 . S
C368 C367 1.391 . S
C369 H359 0.950 . S
C369 C370 1.386 . S
C369 C371 1.391 . S
C370 C369 1.386 . S
C370 C374 1.393 . S
C371 H360 0.950 . S
C371 C369 1.391 . S
C371 C372 1.400 . S
C372 C366 1.491 . S
C372 C371 1.400 . S
C372 C373 1.398 . S
C373 H361 0.950 . S
C373 C372 1.398 . S
C373 C374 1.391 . S
C374 H362 0.950 . S
C374 C370 1.393 . S
C374 C373 1.391 . S
H375 C383 0.950 . S
H376 C388 0.950 . S
H377 C385 0.950 . S
H378 C387 0.950 . S
H379 C389 0.950 . S
H380 C391 0.950 1_554 S
H381 C393 0.950 1_554 S
H382 C394 0.950 . S
C383 H375 0.950 . S
C383 C384 1.386 1_655 S
C383 C385 1.391 . S
C384 C383 1.386 1_455 S
C384 C388 1.393 . S
C385 H377 0.950 . S
C385 C383 1.391 . S
C385 C386 1.400 1_655 S
C386 C385 1.400 1_455 S
C386 C387 1.398 . S
C386 C392 1.491 . S
C387 H378 0.950 . S
C387 C386 1.398 . S
C387 C388 1.391 . S
C388 H376 0.950 . S
C388 C384 1.393 . S
C388 C387 1.391 . S
C389 H379 0.950 . S
C389 C390 1.386 . S
C389 C391 1.391 . S
C390 C389 1.386 . S
C390 C394 1.393 1_455 S
C391 H380 0.950 1_556 S
C391 C389 1.391 . S
C391 C392 1.400 1_556 S
C392 C386 1.491 . S
C392 C391 1.400 1_554 S
C392 C393 1.398 1_454 S
C393 H381 0.950 1_556 S
C393 C392 1.398 1_656 S
C393 C394 1.391 . S
C394 H382 0.950 . S
C394 C390 1.393 1_655 S
C394 C393 1.391 . S
H395 C403 0.950 . S
H396 C408 0.950 . S
H397 C405 0.950 . S
H398 C407 0.950 . S
H399 C409 0.950 . S
H400 C411 0.950 . S
H401 C413 0.950 . S
H402 C414 0.950 . S
C403 H395 0.950 . S
C403 C404 1.386 1_565 S
C403 C405 1.391 . S
C404 C403 1.386 1_545 S
C404 C408 1.393 . S
C405 H397 0.950 . S
C405 C403 1.391 . S
C405 C406 1.400 1_565 S
C406 C405 1.400 1_545 S
C406 C407 1.398 . S
C406 C412 1.491 . S
C407 H398 0.950 . S
C407 C406 1.398 . S
C407 C408 1.391 . S
C408 H396 0.950 . S
C408 C404 1.393 . S
C408 C407 1.391 . S
C409 H399 0.950 . S
C409 C410 1.386 1_545 S
C409 C411 1.391 . S
C410 C409 1.386 1_565 S
C410 C414 1.393 . S
C411 H400 0.950 . S
C411 C409 1.391 . S
C411 C412 1.400 . S
C412 C406 1.491 . S
C412 C411 1.400 . S
C412 C413 1.398 1_545 S
C413 H401 0.950 . S
C413 C412 1.398 1_565 S
C413 C414 1.391 . S
C414 H402 0.950 . S
C414 C410 1.393 . S
C414 C413 1.391 . S
H415 C423 0.950 . S
H416 C428 0.950 . S
H417 C425 0.950 . S
H418 C427 0.950 . S
H419 C429 0.950 . S
H420 C431 0.950 . S
H421 C433 0.950 . S
H422 C434 0.950 . S
C423 H415 0.950 . S
C423 C424 1.386 . S
C423 C425 1.391 . S
C424 C423 1.386 . S
C424 C428 1.393 . S
C425 H417 0.950 . S
C425 C423 1.391 . S
C425 C426 1.400 . S
C426 C425 1.400 . S
C426 C427 1.398 . S
C426 C432 1.491 . S
C427 H418 0.950 . S
C427 C426 1.398 . S
C427 C428 1.391 . S
C428 H416 0.950 . S
C428 C424 1.393 . S
C428 C427 1.391 . S
C429 H419 0.950 . S
C429 C430 1.386 . S
C429 C431 1.391 . S
C430 C429 1.386 . S
C430 C434 1.393 . S
C431 H420 0.950 . S
C431 C429 1.391 . S
C431 C432 1.400 . S
C432 C426 1.491 . S
C432 C431 1.400 . S
C432 C433 1.398 . S
C433 H421 0.950 . S
C433 C432 1.398 . S
C433 C434 1.391 . S
C434 H422 0.950 . S
C434 C430 1.393 . S
C434 C433 1.391 . S
H435 C443 0.950 . S
H436 C448 0.950 . S
H437 C445 0.950 . S
H438 C447 0.950 . S
H439 C449 0.950 . S
H440 C451 0.950 . S
H441 C453 0.950 . S
H442 C454 0.950 . S
C443 H435 0.950 . S
C443 C444 1.386 . S
C443 C445 1.391 . S
C444 C443 1.386 . S
C444 C448 1.393 1_545 S
C445 H437 0.950 . S
C445 C443 1.391 . S
C445 C446 1.400 . S
C446 C445 1.400 . S
C446 C447 1.398 1_545 S
C446 C452 1.491 . S
C447 H438 0.950 . S
C447 C446 1.398 1_565 S
C447 C448 1.391 . S
C448 H436 0.950 . S
C448 C444 1.393 1_565 S
C448 C447 1.391 . S
C449 H439 0.950 . S
C449 C450 1.386 1_565 S
C449 C451 1.391 . S
C450 C449 1.386 1_545 S
C450 C454 1.393 . S
C451 H440 0.950 . S
C451 C449 1.391 . S
C451 C452 1.400 1_565 S
C452 C446 1.491 . S
C452 C451 1.400 1_545 S
C452 C453 1.398 . S
C453 H441 0.950 . S
C453 C452 1.398 . S
C453 C454 1.391 . S
C454 H442 0.950 . S
C454 C450 1.393 . S
C454 C453 1.391 . S
H455 C463 0.950 . S
H456 C468 0.950 . S
H457 C465 0.950 . S
H458 C467 0.950 . S
H459 C469 0.950 . S
H460 C471 0.950 1_556 S
H461 C473 0.950 1_556 S
H462 C474 0.950 . S
C463 H455 0.950 . S
C463 C464 1.386 . S
C463 C465 1.391 . S
C464 C463 1.386 . S
C464 C468 1.393 . S
C465 H457 0.950 . S
C465 C463 1.391 . S
C465 C466 1.400 . S
C466 C465 1.400 . S
C466 C467 1.398 . S
C466 C472 1.491 . S
C467 H458 0.950 . S
C467 C466 1.398 . S
C467 C468 1.391 . S
C468 H456 0.950 . S
C468 C464 1.393 . S
C468 C467 1.391 . S
C469 H459 0.950 . S
C469 C470 1.386 . S
C469 C471 1.391 . S
C470 C469 1.386 . S
C470 C474 1.393 . S
C471 H460 0.950 1_554 S
C471 C469 1.391 . S
C471 C472 1.400 1_554 S
C472 C466 1.491 . S
C472 C471 1.400 1_556 S
C472 C473 1.398 1_556 S
C473 H461 0.950 1_554 S
C473 C472 1.398 1_554 S
C473 C474 1.391 . S
C474 H462 0.950 . S
C474 C470 1.393 . S
C474 C473 1.391 . S
H475 C483 0.950 . S
H476 C488 0.950 . S
H477 C485 0.950 . S
H478 C487 0.950 . S
H479 C489 0.950 . S
H480 C491 0.950 . S
H481 C493 0.950 . S
H482 C494 0.950 . S
C483 H475 0.950 . S
C483 C484 1.386 . S
C483 C485 1.391 . S
C484 C483 1.386 . S
C484 C488 1.393 1_455 S
C485 H477 0.950 . S
C485 C483 1.391 . S
C485 C486 1.391 1_455 S
C486 C485 1.391 1_655 S
C486 C487 1.407 . S
C486 C492 1.491 . S
C487 H478 0.950 . S
C487 C486 1.407 . S
C487 C488 1.391 . S
C488 H476 0.950 . S
C488 C484 1.393 1_655 S
C488 C487 1.391 . S
C489 H479 0.950 . S
C489 C490 1.386 . S
C489 C491 1.391 . S
C490 C489 1.386 . S
C490 C494 1.393 1_655 S
C491 H480 0.950 . S
C491 C489 1.391 . S
C491 C492 1.400 . S
C492 C486 1.491 . S
C492 C491 1.400 . S
C492 C493 1.398 1_655 S
C493 H481 0.950 . S
C493 C492 1.398 1_455 S
C493 C494 1.391 . S
C494 H482 0.950 . S
C494 C490 1.393 1_455 S
C494 C493 1.391 . S
C144 C20 1.383 . S
C150 C129 1.285 . S
C164 C41 1.458 . S
C170 C107 1.309 . S
C184 C64 1.135 . S
C190 C121 1.108 . S
C204 C19 1.077 . S
C210 C132 1.100 . S
C230 C110 1.087 . S
C224 C44 1.100 . S
C250 C118 1.306 . S
C244 C67 1.434 . S
C264 C43 1.379 . S
C270 C85 1.293 . S
C284 C66 1.375 . S
C290 C96 1.277 . S
C304 C21 1.448 . S
C310 C74 1.276 . S
C330 C88 1.087 . S
C324 C42 1.065 . S
C350 C99 1.126 . S
C344 C65 1.111 . S
C364 C18 1.119 . S
C370 C77 1.098 . S
C390 C98 1.414 . S
C384 C17 1.500 . S
C404 C39 1.496 . S
C410 C76 1.430 1_565 S
C424 C62 1.513 . S
C430 C87 1.426 . S
C450 C120 1.409 . S
C444 C40 1.483 . S
C470 C131 1.412 . S
C464 C63 1.500 . S
C484 C16 1.497 . S
C490 C109 1.444 . S
