# Generated by pormake.
# Topology gar, (4,6)-cn, num edge types: 1
# Building blocks:
#     Node 0, Type 0, BuildingBlock: QUQFOY_clean_sbu_1, # of connection points: 4
#     Node 1, Type 0, BuildingBlock: QUQFOY_clean_sbu_1, # of connection points: 4
#     Node 2, Type 0, BuildingBlock: QUQFOY_clean_sbu_1, # of connection points: 4
#     Node 3, Type 0, BuildingBlock: QUQFOY_clean_sbu_1, # of connection points: 4
#     Node 4, Type 0, BuildingBlock: QUQFOY_clean_sbu_1, # of connection points: 4
#     Node 5, Type 0, BuildingBlock: QUQFOY_clean_sbu_1, # of connection points: 4
#     Node 6, Type 0, BuildingBlock: QUQFOY_clean_sbu_1, # of connection points: 4
#     Node 7, Type 0, BuildingBlock: QUQFOY_clean_sbu_1, # of connection points: 4
#     Node 8, Type 0, BuildingBlock: QUQFOY_clean_sbu_1, # of connection points: 4
#     Node 9, Type 0, BuildingBlock: QUQFOY_clean_sbu_1, # of connection points: 4
#     Node 10, Type 0, BuildingBlock: QUQFOY_clean_sbu_1, # of connection points: 4
#     Node 11, Type 0, BuildingBlock: QUQFOY_clean_sbu_1, # of connection points: 4
#     Node 12, Type 0, BuildingBlock: QUQFOY_clean_sbu_1, # of connection points: 4
#     Node 13, Type 0, BuildingBlock: QUQFOY_clean_sbu_1, # of connection points: 4
#     Node 14, Type 0, BuildingBlock: QUQFOY_clean_sbu_1, # of connection points: 4
#     Node 15, Type 0, BuildingBlock: QUQFOY_clean_sbu_1, # of connection points: 4
#     Node 16, Type 0, BuildingBlock: QUQFOY_clean_sbu_1, # of connection points: 4
#     Node 17, Type 0, BuildingBlock: QUQFOY_clean_sbu_1, # of connection points: 4
#     Node 18, Type 0, BuildingBlock: QUQFOY_clean_sbu_1, # of connection points: 4
#     Node 19, Type 0, BuildingBlock: QUQFOY_clean_sbu_1, # of connection points: 4
#     Node 20, Type 0, BuildingBlock: QUQFOY_clean_sbu_1, # of connection points: 4
#     Node 21, Type 0, BuildingBlock: QUQFOY_clean_sbu_1, # of connection points: 4
#     Node 22, Type 0, BuildingBlock: QUQFOY_clean_sbu_1, # of connection points: 4
#     Node 23, Type 0, BuildingBlock: QUQFOY_clean_sbu_1, # of connection points: 4
#     Node 24, Type 1, BuildingBlock: HISSIN_clean_sbu_0, # of connection points: 6
#     Node 25, Type 1, BuildingBlock: HISSIN_clean_sbu_0, # of connection points: 6
#     Node 26, Type 1, BuildingBlock: HISSIN_clean_sbu_0, # of connection points: 6
#     Node 27, Type 1, BuildingBlock: HISSIN_clean_sbu_0, # of connection points: 6
#     Node 28, Type 1, BuildingBlock: HISSIN_clean_sbu_0, # of connection points: 6
#     Node 29, Type 1, BuildingBlock: HISSIN_clean_sbu_0, # of connection points: 6
#     Node 30, Type 1, BuildingBlock: HISSIN_clean_sbu_0, # of connection points: 6
#     Node 31, Type 1, BuildingBlock: HISSIN_clean_sbu_0, # of connection points: 6
#     Node 32, Type 1, BuildingBlock: HISSIN_clean_sbu_0, # of connection points: 6
#     Node 33, Type 1, BuildingBlock: HISSIN_clean_sbu_0, # of connection points: 6
#     Node 34, Type 1, BuildingBlock: HISSIN_clean_sbu_0, # of connection points: 6
#     Node 35, Type 1, BuildingBlock: HISSIN_clean_sbu_0, # of connection points: 6
#     Node 36, Type 1, BuildingBlock: HISSIN_clean_sbu_0, # of connection points: 6
#     Node 37, Type 1, BuildingBlock: HISSIN_clean_sbu_0, # of connection points: 6
#     Node 38, Type 1, BuildingBlock: HISSIN_clean_sbu_0, # of connection points: 6
#     Node 39, Type 1, BuildingBlock: HISSIN_clean_sbu_0, # of connection points: 6
#     Edge 40, Type (0, 1), None
#     Edge 41, Type (0, 1), None
#     Edge 42, Type (0, 1), None
#     Edge 43, Type (0, 1), None
#     Edge 44, Type (0, 1), None
#     Edge 45, Type (0, 1), None
#     Edge 46, Type (0, 1), None
#     Edge 47, Type (0, 1), None
#     Edge 48, Type (0, 1), None
#     Edge 49, Type (0, 1), None
#     Edge 50, Type (0, 1), None
#     Edge 51, Type (0, 1), None
#     Edge 52, Type (0, 1), None
#     Edge 53, Type (0, 1), None
#     Edge 54, Type (0, 1), None
#     Edge 55, Type (0, 1), None
#     Edge 56, Type (0, 1), None
#     Edge 57, Type (0, 1), None
#     Edge 58, Type (0, 1), None
#     Edge 59, Type (0, 1), None
#     Edge 60, Type (0, 1), None
#     Edge 61, Type (0, 1), None
#     Edge 62, Type (0, 1), None
#     Edge 63, Type (0, 1), None
#     Edge 64, Type (0, 1), None
#     Edge 65, Type (0, 1), None
#     Edge 66, Type (0, 1), None
#     Edge 67, Type (0, 1), None
#     Edge 68, Type (0, 1), None
#     Edge 69, Type (0, 1), None
#     Edge 70, Type (0, 1), None
#     Edge 71, Type (0, 1), None
#     Edge 72, Type (0, 1), None
#     Edge 73, Type (0, 1), None
#     Edge 74, Type (0, 1), None
#     Edge 75, Type (0, 1), None
#     Edge 76, Type (0, 1), None
#     Edge 77, Type (0, 1), None
#     Edge 78, Type (0, 1), None
#     Edge 79, Type (0, 1), None
#     Edge 80, Type (0, 1), None
#     Edge 81, Type (0, 1), None
#     Edge 82, Type (0, 1), None
#     Edge 83, Type (0, 1), None
#     Edge 84, Type (0, 1), None
#     Edge 85, Type (0, 1), None
#     Edge 86, Type (0, 1), None
#     Edge 87, Type (0, 1), None
#     Edge 88, Type (0, 1), None
#     Edge 89, Type (0, 1), None
#     Edge 90, Type (0, 1), None
#     Edge 91, Type (0, 1), None
#     Edge 92, Type (0, 1), None
#     Edge 93, Type (0, 1), None
#     Edge 94, Type (0, 1), None
#     Edge 95, Type (0, 1), None
#     Edge 96, Type (0, 1), None
#     Edge 97, Type (0, 1), None
#     Edge 98, Type (0, 1), None
#     Edge 99, Type (0, 1), None
#     Edge 100, Type (0, 1), None
#     Edge 101, Type (0, 1), None
#     Edge 102, Type (0, 1), None
#     Edge 103, Type (0, 1), None
#     Edge 104, Type (0, 1), None
#     Edge 105, Type (0, 1), None
#     Edge 106, Type (0, 1), None
#     Edge 107, Type (0, 1), None
#     Edge 108, Type (0, 1), None
#     Edge 109, Type (0, 1), None
#     Edge 110, Type (0, 1), None
#     Edge 111, Type (0, 1), None
#     Edge 112, Type (0, 1), None
#     Edge 113, Type (0, 1), None
#     Edge 114, Type (0, 1), None
#     Edge 115, Type (0, 1), None
#     Edge 116, Type (0, 1), None
#     Edge 117, Type (0, 1), None
#     Edge 118, Type (0, 1), None
#     Edge 119, Type (0, 1), None
#     Edge 120, Type (0, 1), None
#     Edge 121, Type (0, 1), None
#     Edge 122, Type (0, 1), None
#     Edge 123, Type (0, 1), None
#     Edge 124, Type (0, 1), None
#     Edge 125, Type (0, 1), None
#     Edge 126, Type (0, 1), None
#     Edge 127, Type (0, 1), None
#     Edge 128, Type (0, 1), None
#     Edge 129, Type (0, 1), None
#     Edge 130, Type (0, 1), None
#     Edge 131, Type (0, 1), None
#     Edge 132, Type (0, 1), None
#     Edge 133, Type (0, 1), None
#     Edge 134, Type (0, 1), None
#     Edge 135, Type (0, 1), None
# Relax obj value: 0.420
# Max RMSD: 0.421
# Mean RMSD: 0.214
data_MOF--net-gar--node1-QUQFOY_clean_sbu_1--node2-HISSIN_clean_sbu_0--edge1-none
_symmetry_space_group_name_H-M    P1
_symmetry_Int_Tables_number       1
_symmetry_cell_setting            triclinic
loop_
_symmetry_equiv_pos_as_xyz
'x, y, z'
_cell_length_a     29.50594
_cell_length_b     28.522517
_cell_length_c     26.971234
_cell_angle_alpha  102.67868
_cell_angle_beta   92.006914
_cell_angle_gamma 103.59419
loop_
_atom_site_label
_atom_site_type_symbol
_atom_site_fract_x
_atom_site_fract_y
_atom_site_fract_z
_atom_type_partial_charge
O0 O 0.22123 0.35838 0.47798 0.0
Cd1 Cd 0.23667 0.38552 0.41593 0.0
Cd2 Cd 0.17631 0.43745 0.44885 0.0
O3 O 0.15347 0.37814 0.4822 0.0
O4 O 0.29433 0.37036 0.39263 0.0
O5 O 0.28591 0.44754 0.41728 0.0
C6 C 0.31027 0.41733 0.39702 0.0
C7 C 0.17077 0.51143 0.49919 0.0
C8 C 0.18174 0.35501 0.49585 0.0
C9 C 0.18702 0.39725 0.33817 0.0
O10 O 0.18582 0.43517 0.37263 0.0
O11 O 0.19323 0.35914 0.35094 0.0
O12 O 0.13543 0.48361 0.46859 0.0
O13 O 0.20952 0.49781 0.50004 0.0
O14 O 0.12017 0.78006 0.70419 0.0
Cd15 Cd 0.09935 0.80445 0.77604 0.0
Cd16 Cd 0.18177 0.85495 0.7809 0.0
O17 O 0.18835 0.78684 0.74354 0.0
O18 O 1.03118 0.7884 0.77914 0.0
O19 O 1.07796 0.86532 0.79633 0.0
C20 C 1.03715 0.83575 0.79551 0.0
C21 C 0.20107 0.9043 0.72568 0.0
C22 C 0.15989 0.77001 0.70385 0.0
C23 C 0.15789 0.82608 0.87001 0.0
O24 O 0.17116 0.86711 0.85708 0.0
O25 O 0.1307 0.79033 0.83789 0.0
O26 O 0.23308 0.90118 0.75804 0.0
O27 O 0.15747 0.88683 0.73176 0.0
O28 O 0.79256 0.9327 0.92858 0.0
Cd29 Cd 0.74326 0.94598 0.98097 0.0
Cd30 Cd 0.78178 1.03151 0.93284 0.0
O31 O 0.83997 1.00699 0.93483 0.0
O32 O 0.75558 0.92955 1.04754 0.0
O33 O 0.70297 0.8812 0.9853 0.0
C34 C 0.72218 0.88991 1.03122 0.0
C35 C 0.73617 0.99975 0.85777 0.0
C36 C 0.83022 0.96023 0.91867 0.0
C37 C 0.71033 1.03998 1.00172 0.0
O38 O 0.74973 1.06335 0.99131 0.0
O39 O 0.69847 0.99302 0.99107 0.0
O40 O 0.76428 1.04342 0.86538 0.0
O41 O 0.73457 0.97567 0.893 0.0
O42 O 0.61444 0.26394 0.22782 0.0
Cd43 Cd 0.59963 0.30311 0.29625 0.0
Cd44 Cd 0.67399 0.36435 0.27674 0.0
O45 O 0.68958 0.29902 0.24585 0.0
O46 O 0.5334 0.2871 0.31117 0.0
O47 O 0.57273 0.3599 0.29806 0.0
C48 C 0.53517 0.33263 0.31031 0.0
C49 C 0.69246 0.40754 0.21599 0.0
C50 C 0.65663 0.26634 0.21802 0.0
C51 C 0.66999 0.35587 0.37964 0.0
O52 O 0.67463 0.38925 0.35446 0.0
O53 O 0.64379 0.31317 0.35949 0.0
O54 O 0.72419 0.40827 0.25056 0.0
O55 O 0.6489 0.38987 0.22197 0.0
O56 O 0.27006 0.82766 0.0829 0.0
Cd57 Cd 0.27688 0.8659 0.15739 0.0
Cd58 Cd 0.35505 0.90371 0.08974 0.0
O59 O 0.34302 0.82698 0.07445 0.0
O60 O 0.23875 0.82593 0.19809 0.0
O61 O 0.22461 0.89459 0.18144 0.0
C62 C 0.21452 0.85869 0.20451 0.0
C63 C 0.29298 0.93011 0.05843 0.0
C64 C 0.30036 0.80362 0.07088 0.0
C65 C 0.37874 0.92679 0.20017 0.0
O66 O 0.39293 0.9375 0.1591 0.0
O67 O 0.3386 0.8989 0.20132 0.0
O68 O 0.32877 0.92963 1.03238 0.0
O69 O 0.29573 0.92215 0.10304 0.0
O70 O 0.692 0.85769 0.50531 0.0
Cd71 Cd 0.69255 0.92502 0.54895 0.0
Cd72 Cd 0.62185 0.93587 0.49704 0.0
O73 O 0.64854 0.88134 0.45359 0.0
O74 O 0.72582 0.93295 0.61465 0.0
O75 O 0.65016 0.93059 0.60474 0.0
C76 C 0.68644 0.93256 0.63425 0.0
C77 C 0.56504 0.94372 0.44118 0.0
C78 C 0.67356 0.85251 0.46086 0.0
C79 C 0.70501 1.01713 0.52897 0.0
O80 O 0.66133 1.00614 0.53313 0.0
O81 O 0.72678 0.98367 0.52318 0.0
O82 O 0.60853 0.95622 0.43471 0.0
O83 O 0.55277 0.92829 0.48138 0.0
O84 O 0.81527 0.32298 0.64196 0.0
Cd85 Cd 0.78982 0.38073 0.68082 0.0
Cd86 Cd 0.84623 0.40541 0.593 0.0
O87 O 0.85124 0.33505 0.57301 0.0
O88 O 0.76703 0.36432 0.74407 0.0
O89 O 0.72089 0.36735 0.67835 0.0
C90 C 0.72562 0.36079 0.72401 0.0
C91 C 0.77868 0.4187 0.55924 0.0
C92 C 0.8358 0.30778 0.6031 0.0
C93 C 0.86655 0.46407 0.69969 0.0
O94 O 0.88449 0.44426 0.66119 0.0
O95 O 0.82262 0.45428 0.69878 0.0
O96 O 0.81817 0.43476 0.54179 0.0
O97 O 0.77862 0.39752 0.59659 0.0
O98 O 1.04005 0.37933 1.04639 0.0
Cd99 Cd 0.08135 0.38333 0.9877 0.0
Cd100 Cd 0.08216 0.48287 0.05297 0.0
O101 O 1.07127 0.44255 0.10757 0.0
O102 O 0.10804 0.32826 0.95251 0.0
O103 O 0.14935 0.39884 1.00355 0.0
C104 C 0.14833 0.35811 0.97077 0.0
C105 C 0.15684 0.53358 0.05972 0.0
C106 C 1.0616 0.39612 0.09043 0.0
C107 C 1.03597 0.44902 0.94559 0.0
O108 O 1.0343 0.47333 0.99099 0.0
O109 O 1.05997 0.4172 0.93584 0.0
O110 O 0.12408 0.5499 0.08296 0.0
O111 O 0.14654 0.48969 1.03058 0.0
O112 O 0.51468 0.19759 0.35181 0.0
Cd113 Cd 0.46418 0.15678 0.38765 0.0
Cd114 Cd 0.59328 0.15159 0.44624 0.0
O115 O 0.56018 0.1969 0.41604 0.0
O116 O 0.40699 0.11896 0.34242 0.0
O117 O 0.41089 0.18489 0.40628 0.0
C118 C 0.38725 0.15186 0.36736 0.0
C119 C 0.67099 0.16885 0.47362 0.0
C120 C 0.55576 0.20027 0.37003 0.0
C121 C 0.50738 0.08682 0.42791 0.0
O122 O 0.54595 0.08774 0.45098 0.0
O123 O 0.49242 0.12576 0.43884 0.0
O124 O 0.6557 0.13968 0.42945 0.0
O125 O 0.64175 0.18666 0.50218 0.0
O126 O 0.43176 0.2878 0.66548 0.0
Cd127 Cd 0.4349 0.2415 0.59728 0.0
Cd128 Cd 0.39271 0.3126 0.56643 0.0
O129 O 0.41061 0.35144 0.64609 0.0
O130 O 0.46963 0.20004 0.62585 0.0
O131 O 0.49985 0.24663 0.57405 0.0
C132 C 0.50542 0.21877 0.60442 0.0
C133 C 0.41181 0.34617 0.4904 0.0
C134 C 0.42338 0.32999 0.67951 0.0
C135 C 0.33521 0.20354 0.5622 0.0
O136 O 0.33625 0.24861 0.56152 0.0
O137 O 0.37299 0.19049 0.56782 0.0
O138 O 0.37692 0.35362 0.51603 0.0
O139 O 0.43692 0.32071 0.50777 0.0
O140 O 0.29508 0.08191 0.74899 0.0
Cd141 Cd 0.34854 0.08297 0.80756 0.0
Cd142 Cd 0.26881 0.14657 0.86838 0.0
O143 O 0.24424 0.12314 0.78769 0.0
O144 O 0.39305 1.03091 0.78205 0.0
O145 O 0.34273 1.01347 0.83448 0.0
C146 C 0.37425 0.99852 0.8073 0.0
C147 C 0.22184 0.14236 0.94518 0.0
C148 C 0.25975 0.10144 0.74675 0.0
C149 C 0.36973 0.20874 0.85216 0.0
O150 O 0.32971 0.2049 0.87061 0.0
O151 O 0.38344 0.16831 0.83212 0.0
O152 O 0.22222 0.17524 0.91884 0.0
O153 O 0.24657 0.11134 0.92818 0.0
O154 O 0.3937 1.0721 0.15655 0.0
Cd155 Cd 0.3988 0.12085 0.11057 0.0
Cd156 Cd 0.44275 1.01657 1.03229 0.0
O157 O 0.39492 1.02398 0.08318 0.0
O158 O 0.35079 0.16569 0.13579 0.0
O159 O 0.33013 0.10086 0.07237 0.0
C160 C 0.31683 0.13526 0.10419 0.0
C161 C 0.43851 0.95357 0.96169 0.0
C162 C 0.4084 1.0371 0.13052 0.0
C163 C 0.51352 0.1143 0.08155 0.0
O164 O 0.50233 1.07003 0.05478 0.0
O165 O 0.48117 0.13729 0.10011 0.0
O166 O 0.4575 0.95151 1.00455 0.0
O167 O 0.42119 0.99079 0.95915 0.0
O168 O 0.45827 0.49343 0.21361 0.0
Cd169 Cd 0.48908 0.53461 0.16387 0.0
Cd170 Cd 0.48952 0.43835 0.09849 0.0
O171 O 0.46241 0.41935 0.16865 0.0
O172 O 0.46381 0.58922 0.14546 0.0
O173 O 0.46268 0.51756 0.09312 0.0
C174 C 0.45518 0.56088 0.09986 0.0
C175 C 0.45823 0.39931 1.01029 0.0
C176 C 0.45237 0.44695 0.20954 0.0
C177 C 0.57957 0.52925 0.13047 0.0
O178 O 0.55772 0.48769 0.10103 0.0
O179 O 0.55931 0.55169 0.16534 0.0
O180 O 0.48732 0.38234 1.03392 0.0
O181 O 0.4427 0.43395 1.03745 0.0
O182 O 0.93726 0.23926 0.16122 0.0
Cd183 Cd 0.93089 0.1699 0.10975 0.0
Cd184 Cd 0.85239 0.23348 0.07305 0.0
O185 O 0.86799 0.25738 0.14967 0.0
O186 O 0.98633 0.1359 0.12822 0.0
O187 O 0.99129 0.17173 0.06533 0.0
C188 C 1.01186 0.14971 0.0932 0.0
C189 C 0.84347 0.29004 1.02869 0.0
C190 C 0.90629 0.26324 0.17583 0.0
C191 C 0.81899 0.14327 0.08018 0.0
O192 O 0.83308 0.16096 1.04301 0.0
O193 O 0.85145 0.13716 0.11027 0.0
O194 O 0.80853 0.26896 1.05032 0.0
O195 O 0.88268 0.27734 1.03161 0.0
O196 O 0.41086 0.66758 0.17267 0.0
Cd197 Cd 0.46223 0.70278 0.23308 0.0
Cd198 Cd 0.38893 0.71313 0.30039 0.0
O199 O 0.36152 0.68804 0.22743 0.0
O200 O 0.51496 0.67138 0.24663 0.0
O201 O 0.45573 0.67496 0.29442 0.0
C202 C 0.4946 0.66266 0.28653 0.0
C203 C 0.32578 0.70926 0.34866 0.0
C204 C 0.36977 0.67055 0.18248 0.0
C205 C 0.46182 0.80251 0.29594 0.0
O206 O 0.43726 0.77896 0.32441 0.0
O207 O 0.47361 0.77974 0.25419 0.0
O208 O 0.33515 0.74016 0.32023 0.0
O209 O 0.35358 0.68089 0.35125 0.0
O210 O 0.95574 0.99504 0.70796 0.0
Cd211 Cd 0.99271 1.03425 0.6605 0.0
Cd212 Cd 0.98419 0.93987 0.59176 0.0
O213 O 0.95634 0.92047 0.66154 0.0
O214 O 0.97795 0.09513 0.64448 0.0
O215 O 0.97042 1.02337 0.58909 0.0
C216 C 0.96982 1.06927 0.59773 0.0
C217 C 0.95228 0.90368 0.50344 0.0
C218 C 0.94707 0.94824 0.70275 0.0
C219 C 1.08002 1.02165 0.62722 0.0
O220 O 1.05485 0.98444 0.59413 0.0
O221 O 1.06223 1.04242 0.66544 0.0
O222 O 0.97897 0.88408 0.52714 0.0
O223 O 0.93888 0.94004 0.53066 0.0
O224 O 1.07567 0.14727 0.2533 0.0
Cd225 Cd 1.02122 0.14978 0.30659 0.0
Cd226 Cd 0.11018 0.09958 0.35451 0.0
O227 O 0.134 0.1197 0.28359 0.0
O228 O 0.974 0.19169 0.28291 0.0
O229 O 1.0254 0.2278 0.34614 0.0
C230 C 0.99309 0.23308 0.31557 0.0
C231 C 0.15324 0.10696 0.43764 0.0
C232 C 0.11556 0.13597 0.24849 0.0
C233 C 1.00602 1.03288 0.33165 0.0
O234 O 1.05014 1.04079 0.34193 0.0
O235 O 0.98879 1.06915 0.32157 0.0
O236 O 0.15874 1.07669 0.39634 0.0
O237 O 0.12692 0.1361 0.43167 0.0
O238 O 0.43173 0.72354 0.67291 0.0
Cd239 Cd 0.43106 0.66851 0.60769 0.0
Cd240 Cd 0.39875 0.74675 0.57331 0.0
O241 O 0.44345 0.78556 0.63443 0.0
O242 O 0.48368 0.62874 0.61616 0.0
O243 O 0.49641 0.68568 0.5733 0.0
C244 C 0.51349 0.65462 0.59203 0.0
C245 C 0.37805 0.79569 0.52323 0.0
C246 C 0.43841 0.76959 0.67446 0.0
C247 C 0.32115 0.66348 0.59027 0.0
O248 O 0.33646 0.70756 0.58687 0.0
O249 O 0.35105 0.6362 0.5914 0.0
O250 O 0.37119 0.80265 0.5705 0.0
O251 O 0.40017 0.76278 0.50458 0.0
O252 O 0.56946 0.64043 0.75425 0.0
Cd253 Cd 0.51699 0.64299 0.81007 0.0
Cd254 Cd 0.60634 0.59815 0.85722 0.0
O255 O 0.62936 0.6156 0.78484 0.0
O256 O 0.46817 0.68447 0.78916 0.0
O257 O 0.52196 0.72097 0.85 0.0
C258 C 0.4881 0.72593 0.82129 0.0
C259 C 0.65036 0.61154 0.94131 0.0
C260 C 0.60956 0.62969 0.74894 0.0
C261 C 0.50464 0.52725 0.83651 0.0
O262 O 0.54893 0.53639 0.8464 0.0
O263 O 0.48636 0.5627 0.82616 0.0
O264 O 0.65686 0.58051 0.9011 0.0
O265 O 0.62216 0.63831 0.93373 0.0
O266 O 0.91111 0.17558 0.67843 0.0
Cd267 Cd 0.95159 0.21444 0.74545 0.0
Cd268 Cd 0.86437 0.21225 0.7873 0.0
O269 O 0.84573 0.16618 0.71667 0.0
O270 O 1.00446 0.18743 0.76621 0.0
O271 O 0.93983 0.18565 0.8061 0.0
C272 C 0.98017 0.17546 0.80261 0.0
C273 C 0.80479 0.20883 0.84035 0.0
C274 C 0.86719 0.15804 0.67702 0.0
C275 C 0.9333 0.3109 0.78534 0.0
O276 O 0.89677 0.28537 0.79858 0.0
O277 O 0.96236 0.29051 0.76094 0.0
O278 O 0.80264 0.22587 0.80038 0.0
O279 O 0.83969 0.19062 0.84866 0.0
O280 O 0.92798 0.786 0.16118 0.0
Cd281 Cd 0.93307 0.74037 0.09398 0.0
Cd282 Cd 0.89593 0.81223 0.06028 0.0
O283 O 0.91921 0.85325 0.13851 0.0
O284 O 0.96151 0.69726 0.12709 0.0
O285 O 0.99988 0.74354 0.0789 0.0
C286 C 1.00049 0.71607 0.111 0.0
C287 C 0.91382 0.84215 0.98241 0.0
C288 C 0.92659 0.83089 0.17337 0.0
C289 C 0.83467 0.706 0.05781 0.0
O290 O 0.83687 0.75162 0.05851 0.0
O291 O 0.87183 0.69133 0.06102 0.0
O292 O 0.8842 0.85698 1.01242 0.0
O293 O 0.93442 0.81121 0.99636 0.0
O294 O 0.99425 0.67904 0.83453 0.0
Cd295 Cd 0.94368 0.65589 0.88138 0.0
Cd296 Cd 1.07243 0.65926 0.94767 0.0
O297 O 1.03907 0.6948 0.90502 0.0
O298 O 0.88059 0.62026 0.84695 0.0
O299 O 0.89823 0.69569 0.89922 0.0
C300 C 0.86785 0.65984 0.86846 0.0
C301 C 0.14621 0.67327 0.98422 0.0
C302 C 1.0348 0.68561 0.85655 0.0
C303 C 0.98698 0.59365 0.92934 0.0
O304 O 1.02586 0.59512 0.95208 0.0
O305 O 0.9717 0.63241 0.93897 0.0
O306 O 0.13711 0.65119 0.93658 0.0
O307 O 0.11474 0.69141 1.00869 0.0
O308 O 0.89035 0.55939 0.64314 0.0
Cd309 Cd 0.89636 0.61514 0.6062 0.0
Cd310 Cd 0.95176 0.5164 0.52592 0.0
O311 O 0.89704 0.51881 0.56719 0.0
O312 O 0.84781 0.6566 0.63736 0.0
O313 O 0.8288 0.5995 0.56664 0.0
C314 C 0.81474 0.62988 0.60247 0.0
C315 C 0.96191 0.46241 0.45382 0.0
C316 C 0.90794 0.52811 0.61493 0.0
C317 C 1.0136 0.61648 0.58498 0.0
O318 O 1.0063 0.57224 0.55873 0.0
O319 O 0.97889 0.63747 0.59959 0.0
O320 O 0.96725 0.45214 0.49766 0.0
O321 O 0.94812 0.50179 0.45115 0.0
O322 O 0.79775 0.58611 0.25033 0.0
Cd323 Cd 0.8538 0.58891 0.3071 0.0
Cd324 Cd 0.77268 0.65261 0.37119 0.0
O325 O 0.74743 0.62785 0.28977 0.0
O326 O 0.89687 0.53651 0.27749 0.0
O327 O 0.85445 0.52295 0.33798 0.0
C328 C 0.88293 0.50662 0.30702 0.0
C329 C 0.72672 0.64904 0.45041 0.0
C330 C 0.76222 0.60545 0.24847 0.0
C331 C 0.8737 0.71425 0.35039 0.0
O332 O 0.83412 0.71046 0.37013 0.0
O333 O 0.88759 0.67399 0.33031 0.0
O334 O 0.72764 0.6824 0.42452 0.0
O335 O 0.75033 0.61732 0.4319 0.0
Eu336 Eu 0.17937 0.19784 0.10879 0.0
Eu337 Eu 0.14953 0.08347 0.08182 0.0
C338 C 0.19672 0.1415 0.99441 0.0
C339 C 0.16708 0.32267 0.11781 0.0
C340 C 0.12615 0.29746 0.08592 0.0
C341 C 0.14018 0.39772 0.13122 0.0
C342 C 0.09092 0.32076 0.0799 0.0
C343 C 0.17443 0.37319 0.1401 0.0
C344 C 0.09731 0.37112 0.10265 0.0
C345 C 0.2002 0.29427 0.12756 0.0
O346 O 0.23073 0.09651 0.08798 0.0
O347 O 0.25189 0.17977 0.12245 0.0
C348 C 0.26434 0.13766 0.10502 0.0
O349 O 0.14489 0.17948 0.18094 0.0
O350 O 0.117 1.01683 1.02259 0.0
O351 O 0.14087 1.01073 0.09764 0.0
O352 O 0.1477 0.09881 0.16941 0.0
C353 C 0.13881 0.13878 0.19851 0.0
O354 O 0.09844 0.1853 0.09126 0.0
O355 O 1.07574 0.10244 0.08562 0.0
O356 O 0.18786 0.10111 1.01206 0.0
O357 O 0.19015 0.26991 0.16296 0.0
O358 O 0.21016 0.26651 0.0865 0.0
O359 O 0.18662 0.18145 1.02178 0.0
C360 C 0.16256 0.95989 1.02867 0.0
C361 C 0.16429 0.91808 1.04681 0.0
C362 C 0.24485 0.9717 1.01277 0.0
C363 C 0.20678 0.90569 0.05176 0.0
C364 C 0.20201 0.98396 1.00758 0.0
C365 C 0.24791 0.93471 1.03822 0.0
C366 C 0.12925 0.98815 1.04963 0.0
C367 C 1.06405 0.14524 0.08886 0.0
H368 H 0.1216 0.25974 0.06477 0.0
H369 H 0.14734 0.43736 0.14648 0.0
H370 H 1.05933 0.2997 0.05581 0.0
H371 H 0.20646 0.39354 0.16371 0.0
H372 H 0.13447 0.89905 0.06331 0.0
H373 H 0.27599 0.99396 1.00135 0.0
H374 H 0.20812 0.87609 0.07048 0.0
H375 H 0.20132 1.01588 0.99251 0.0
Eu376 Eu 0.51228 0.96521 0.2912 0.0
Eu377 Eu 0.42716 0.94906 0.36303 0.0
C378 C 0.40932 0.94198 0.24744 0.0
C379 C 0.53552 1.0125 0.19065 0.0
C380 C 0.51584 1.05045 0.21653 0.0
C381 C 0.47298 0.99262 0.12307 0.0
C382 C 0.47709 1.06093 0.19516 0.0
C383 C 0.51461 0.98504 0.14227 0.0
C384 C 0.45387 1.03071 0.14902 0.0
C385 C 0.56147 0.98938 0.22201 0.0
O386 O 0.4472 0.8759 0.34681 0.0
O387 O 0.48985 0.88215 0.27732 0.0
C388 C 0.46828 0.85637 0.30813 0.0
O389 O 0.54643 0.94668 0.35674 0.0
O390 O 0.35144 0.92479 0.36499 0.0
O391 O 0.3956 0.96318 0.43477 0.0
O392 O 0.48936 0.94961 0.41406 0.0
C393 C 0.53156 0.9463 0.40219 0.0
O394 O 0.52591 1.03039 0.35831 0.0
O395 O 0.44995 1.02998 0.3641 0.0
O396 O 0.39876 0.91729 0.28223 0.0
O397 O 0.57374 1.01416 0.26937 0.0
O398 O 0.54163 0.94263 0.21888 0.0
O399 O 0.44753 0.9773 0.25484 0.0
C400 C 0.34208 0.89057 0.43611 0.0
C401 C 0.3558 0.8479 0.41181 0.0
C402 C 0.34127 0.86399 0.51503 0.0
C403 C 0.36649 0.81613 0.44002 0.0
C404 C 0.33229 0.89703 0.48713 0.0
C405 C 0.36116 0.82514 0.49219 0.0
C406 C 0.35518 0.93388 0.4147 0.0
C407 C 0.49401 1.05174 0.3781 0.0
H408 H 0.52675 1.06865 0.25609 0.0
H409 H 0.453 0.9654 0.09114 0.0
H410 H 0.46303 0.0899 0.21733 0.0
H411 H 0.52646 0.95319 0.12286 0.0
H412 H 0.36339 0.84202 0.37226 0.0
H413 H 0.336 0.87119 0.55527 0.0
H414 H 0.38157 0.7864 0.42168 0.0
H415 H 0.32243 0.9301 0.5066 0.0
Eu416 Eu 0.81517 0.15035 0.51326 0.0
Eu417 Eu 0.74699 0.17448 0.60509 0.0
C418 C 0.83793 0.14123 0.62855 0.0
C419 C 0.92142 0.12529 0.47743 0.0
C420 C 0.9426 0.15846 0.5237 0.0
C421 C 0.94655 1.05966 0.50535 0.0
C422 C 0.96084 0.14095 0.56242 0.0
C423 C 0.9278 1.07704 0.46681 0.0
C424 C 0.95953 0.0905 0.55472 0.0
C425 C 0.87876 0.1332 0.45409 0.0
O426 O 0.81594 0.23017 0.62245 0.0
O427 O 0.82539 0.23276 0.54001 0.0
C428 C 0.83134 0.25498 0.58857 0.0
O429 O 0.74546 0.14823 0.47402 0.0
O430 O 0.72393 0.23115 0.6591 0.0
O431 O 0.69066 0.15342 0.65249 0.0
O432 O 0.73085 0.20599 0.53985 0.0
C433 C 0.71941 0.17781 0.49398 0.0
O434 O 0.77555 1.07857 0.52945 0.0
O435 O 0.70927 0.10317 0.55205 0.0
O436 O 0.79264 0.13099 0.63245 0.0
O437 O 0.84099 0.09891 0.45544 0.0
O438 O 0.87205 0.17764 0.46874 0.0
O439 O 0.85528 0.15583 0.58859 0.0
C440 C 0.64137 0.20749 0.65472 0.0
C441 C 0.63673 0.23678 0.61996 0.0
C442 C 0.55682 0.18404 0.65446 0.0
C443 C 0.59251 0.23946 0.60246 0.0
C444 C 0.60107 0.18138 0.67197 0.0
C445 C 0.55207 0.21287 0.61927 0.0
C446 C 0.6873 0.19911 0.66774 0.0
C447 C 0.73065 1.06832 0.53571 0.0
H448 H 0.93944 0.19642 0.53288 0.0
H449 H 0.94728 1.02102 0.49738 0.0
H450 H 0.97276 0.16613 0.59932 0.0
H451 H 0.91247 1.05085 0.43133 0.0
H452 H 0.6672 0.25692 0.6054 0.0
H453 H 0.52634 0.16357 0.66869 0.0
H454 H 0.59009 0.26255 0.57598 0.0
H455 H 0.60377 0.15813 0.69822 0.0
Eu456 Eu 0.38921 0.38072 0.84685 0.0
Eu457 Eu 0.48643 0.35444 0.84414 0.0
C458 C 0.39644 0.26293 0.85006 0.0
C459 C 0.26684 0.37383 0.88705 0.0
C460 C 0.22498 0.33934 0.86487 0.0
C461 C 0.23443 0.38419 0.96908 0.0
C462 C 0.18745 0.32879 0.89418 0.0
C463 C 0.27203 0.39439 0.93991 0.0
C464 C 0.19111 0.35331 0.94591 0.0
C465 C 0.30382 0.38936 0.85443 0.0
O466 O 0.46582 0.34244 0.76006 0.0
O467 O 0.3972 0.36682 0.76087 0.0
C468 C 0.43043 0.35127 0.73588 0.0
O469 O 0.43138 0.4576 0.83602 0.0
O470 O 0.53191 0.30529 0.8221 0.0
O471 O 0.56106 0.37875 0.87018 0.0
O472 O 0.50266 0.43996 0.84316 0.0
C473 C 0.47756 0.47265 0.83806 0.0
O474 O 0.41953 0.40452 0.93059 0.0
O475 O 0.47179 0.35694 0.92635 0.0
O476 O 0.44024 0.27464 0.83879 0.0
O477 O 0.34049 0.42426 0.87644 0.0
O478 O 0.31474 0.35388 0.8214 0.0
O479 O 0.37364 0.29883 0.85824 0.0
C480 C 0.60913 0.34346 0.81331 0.0
C481 C 0.60269 0.34702 0.76265 0.0
C482 C 0.69115 0.34811 0.80444 0.0
C483 C 0.64045 0.35125 0.73296 0.0
C484 C 0.6533 0.34368 0.834 0.0
C485 C 0.68508 0.35233 0.7538 0.0
C486 C 0.56972 0.33794 0.84438 0.0
C487 C 0.44786 0.38472 0.95343 0.0
H488 H 0.22044 0.32247 0.82432 0.0
H489 H 0.23822 0.40346 1.00895 0.0
H490 H 0.1544 0.30506 0.8752 0.0
H491 H 0.30425 0.42032 0.95841 0.0
H492 H 0.56854 0.3466 0.74614 0.0
H493 H 0.7252 0.34891 0.82152 0.0
H494 H 0.63478 0.35437 0.69403 0.0
H495 H 0.65853 0.34065 0.87304 0.0
Eu496 Eu 0.18881 0.15438 0.61669 0.0
Eu497 Eu 0.22555 1.05907 0.56723 0.0
C498 C 0.29041 0.16899 0.5679 0.0
C499 C 0.15805 0.26388 0.60274 0.0
C500 C 0.18236 0.25224 0.5599 0.0
C501 C 0.14311 0.33353 0.57267 0.0
C502 C 0.18808 0.28106 0.5246 0.0
C503 C 0.13759 0.30424 0.60884 0.0
C504 C 0.16939 0.32242 0.53097 0.0
C505 C 0.15539 0.23184 0.63871 0.0
O506 O 0.24379 1.07018 0.65367 0.0
O507 O 0.22121 0.14077 0.68972 0.0
C508 C 0.23954 0.10363 0.69451 0.0
O509 O 0.14387 0.09301 0.64544 0.0
O510 O 0.27932 1.01758 0.56439 0.0
O511 O 0.21134 0.98211 0.52332 0.0
O512 O 0.14795 1.03164 0.57757 0.0
C513 C 0.12708 1.04818 0.61749 0.0
O514 O 0.1589 0.12991 0.53168 0.0
O515 O 0.20446 1.07987 0.49408 0.0
O516 O 0.28636 0.1208 0.55683 0.0
O517 O 0.12878 0.18718 0.62082 0.0
O518 O 0.19625 0.23103 0.65843 0.0
O519 O 0.25849 0.18854 0.59088 0.0
C520 C 0.23776 0.94472 0.58506 0.0
C521 C 0.19084 0.92456 0.59247 0.0
C522 C 0.26114 0.93598 0.66946 0.0
C523 C 0.1791 0.91264 0.63857 0.0
C524 C 0.27293 0.94818 0.62327 0.0
C525 C 0.21394 0.91972 0.67819 0.0
C526 C 0.24783 0.97577 0.54746 0.0
C527 C 0.17399 0.10637 0.49006 0.0
H528 H 0.19786 0.22106 0.55393 0.0
H529 H 0.12852 0.36558 0.57821 0.0
H530 H 0.20799 0.27129 0.49256 0.0
H531 H 0.11827 0.31341 0.64148 0.0
H532 H 0.16263 0.92116 0.56408 0.0
H533 H 0.28895 0.94031 0.69867 0.0
H534 H 0.14248 0.89848 0.64327 0.0
H535 H 0.30938 0.96371 0.61892 0.0
Eu536 Eu 0.48175 0.89358 0.81573 0.0
Eu537 Eu 0.38154 0.83204 0.8206 0.0
C538 C 0.43677 0.91474 0.9164 0.0
C539 C 0.60452 0.95776 0.78874 0.0
C540 C 0.62525 0.92026 0.79599 0.0
C541 C 0.6801 1.0154 0.79789 0.0
C542 C 0.67297 0.93197 0.80943 0.0
C543 C 0.63213 1.00363 0.78451 0.0
C544 C 0.69927 0.98124 0.81613 0.0
C545 C 0.55713 0.95529 0.80166 0.0
O546 O 0.36127 0.90584 0.81059 0.0
O547 O 0.43579 0.94946 0.80678 0.0
C548 C 0.3906 0.94878 0.8077 0.0
O549 O 0.47349 0.83303 0.74595 0.0
O550 O 0.35097 0.78857 0.87306 0.0
O551 O 0.308 0.79215 0.80677 0.0
O552 O 0.39351 0.80483 0.73823 0.0
C553 C 0.4348 0.80406 0.72153 0.0
O554 O 0.50161 0.81982 0.82586 0.0
O555 O 0.42645 0.77407 0.8221 0.0
O556 O 0.39779 0.89751 0.88742 0.0
O557 O 0.52378 0.93257 0.76545 0.0
O558 O 0.54826 0.94457 0.84567 0.0
O559 O 0.47537 0.90576 0.89964 0.0
C560 C 0.27274 0.78719 0.88267 0.0
C561 C 0.27461 0.83618 0.908 0.0
C562 C 0.19104 0.76307 0.89567 0.0
C563 C 0.23322 0.84911 0.92104 0.0
C564 C 0.23216 0.74979 0.88161 0.0
C565 C 0.19056 0.81351 0.90468 0.0
C566 C 0.30896 0.77727 0.8496 0.0
C567 C 0.4719 0.77591 0.8246 0.0
H568 H 0.60403 0.88429 0.79818 0.0
H569 H 0.70005 1.05337 0.80204 0.0
H570 H 0.68775 0.90455 0.8217 0.0
H571 H 0.61605 1.03256 0.77818 0.0
H572 H 0.3064 0.86528 0.91119 0.0
H573 H 0.1586 0.73435 0.88724 0.0
H574 H 0.23408 0.88817 0.93139 0.0
H575 H 0.23081 0.71135 0.86432 0.0
Eu576 Eu 0.66736 0.11795 0.14368 0.0
Eu577 Eu 0.67306 0.18494 0.06609 0.0
C578 C 0.66668 0.22848 0.17758 0.0
C579 C 0.6413 0.13072 0.27042 0.0
C580 C 0.60014 0.13935 0.25094 0.0
C581 C 0.63413 0.18452 0.35136 0.0
C582 C 0.57378 0.16554 0.28239 0.0
C583 C 0.65987 0.15625 0.32018 0.0
C584 C 0.58898 0.1851 0.33408 0.0
C585 C 0.66886 0.10537 0.23433 0.0
O586 O 0.74797 0.17246 0.06825 0.0
O587 O 0.74622 0.12658 0.12786 0.0
C588 C 0.76937 0.14817 0.09437 0.0
O589 O 0.67227 1.05855 0.07695 0.0
O590 O 0.70218 0.25197 1.03998 0.0
O591 O 0.64527 0.19461 0.99415 0.0
O592 O 0.68161 0.11098 1.02193 0.0
C593 C 0.68211 1.06836 1.03272 0.0
O594 O 0.58899 0.10239 0.11297 0.0
O595 O 0.59294 0.16923 0.0781 0.0
O596 O 0.69399 0.2388 0.14276 0.0
O597 O 0.64487 1.0702 0.19587 0.0
O598 O 0.70277 0.1368 0.22001 0.0
O599 O 0.6398 0.18456 0.1691 0.0
C600 C 0.70892 0.22667 0.95304 0.0
C601 C 0.73486 0.19097 0.95051 0.0
C602 C 0.74283 0.24808 0.87833 0.0
C603 C 0.76536 0.1845 0.91324 0.0
C604 C 0.71249 0.25496 0.91646 0.0
C605 C 0.76989 0.2132 0.87711 0.0
C606 C 0.67929 0.23348 0.99489 0.0
C607 C 0.56715 0.1323 0.09512 0.0
H608 H 0.58737 0.12459 0.21126 0.0
H609 H 0.64868 0.20495 0.38933 0.0
H610 H 0.54039 0.16801 0.26656 0.0
H611 H 0.69414 0.15483 0.33457 0.0
H612 H 0.73206 0.16826 0.97773 0.0
H613 H 0.74614 0.271 0.85086 0.0
H614 H 0.78557 0.15727 0.91299 0.0
H615 H 0.69265 0.28264 0.91791 0.0
Eu616 Eu 0.46175 0.44921 0.38021 0.0
Eu617 Eu 0.38799 0.34712 0.31708 0.0
C618 C 0.43834 0.42746 0.25604 0.0
C619 C 0.52657 0.57742 0.38822 0.0
C620 C 0.53688 0.56585 0.33697 0.0
C621 C 0.50751 0.65209 0.37444 0.0
C622 C 0.53086 0.59638 0.30432 0.0
C623 C 0.51459 0.62233 0.40728 0.0
C624 C 0.51347 0.63811 0.32227 0.0
C625 C 0.51446 0.53803 0.41649 0.0
O626 O 0.45528 0.32556 0.32882 0.0
O627 O 0.50404 0.40255 0.33465 0.0
C628 C 0.49623 0.35419 0.325 0.0
O629 O 0.45596 0.4004 0.43881 0.0
O630 O 0.36439 0.2766 0.26073 0.0
O631 O 0.31392 0.30757 0.30418 0.0
O632 O 0.38832 0.34182 0.40134 0.0
C633 C 0.41995 0.36298 0.44098 0.0
O634 O 0.39152 0.44615 0.40962 0.0
O635 O 0.35911 0.41421 0.33027 0.0
O636 O 0.42278 0.37962 0.25323 0.0
O637 O 0.46993 0.52542 0.42228 0.0
O638 O 0.53169 0.49931 0.40299 0.0
O639 O 0.44283 0.45977 0.30058 0.0
C640 C 0.30966 0.22244 0.2957 0.0
C641 C 0.30709 0.22762 0.34856 0.0
C642 C 0.33564 0.14735 0.29126 0.0
C643 C 0.32462 0.19651 0.37308 0.0
C644 C 0.3181 0.1786 0.26672 0.0
C645 C 0.34463 0.16038 0.3447 0.0
C646 C 0.32235 0.26767 0.27602 0.0
C647 C 0.35469 0.43455 0.3775 0.0
H648 H 0.54551 0.53108 0.32092 0.0
H649 H 0.49448 0.68445 0.38921 0.0
H650 H 0.53557 0.58487 0.26423 0.0
H651 H 0.50603 0.63184 0.44638 0.0
H652 H 0.29893 0.26009 0.37201 0.0
H653 H 0.34934 0.11852 0.26827 0.0
H654 H 0.32947 0.20608 0.41442 0.0
H655 H 0.31872 0.17297 0.2258 0.0
Eu656 Eu 0.69259 0.66259 0.11947 0.0
Eu657 Eu 0.72535 0.56433 0.06948 0.0
C658 C 0.78995 0.67237 0.06487 0.0
C659 C 0.67678 0.78712 0.12483 0.0
C660 C 0.65639 0.77791 0.07462 0.0
C661 C 0.72415 0.86625 0.11532 0.0
C662 C 0.67055 0.81189 1.04474 0.0
C663 C 0.70976 0.83226 0.14541 0.0
C664 C 0.70555 0.85568 0.06426 0.0
C665 C 0.67117 0.74645 0.15147 0.0
O666 O 0.74188 0.5715 0.15561 0.0
O667 O 0.72759 0.64686 0.19029 0.0
C668 C 0.74154 0.60728 0.19598 0.0
O669 O 0.64067 0.60323 0.14437 0.0
O670 O 0.77732 0.52053 0.06346 0.0
O671 O 0.71014 0.48983 1.01948 0.0
O672 O 0.64916 0.53661 0.08401 0.0
C673 C 0.62613 0.55658 0.1202 0.0
O674 O 0.65906 0.63962 1.03578 0.0
O675 O 0.70236 0.58677 0.99808 0.0
O676 O 0.78829 0.62573 0.06401 0.0
O677 O 0.63986 0.70536 0.13033 0.0
O678 O 0.71056 0.73815 0.16631 0.0
O679 O 0.75554 0.69211 0.07989 0.0
C680 C 0.73302 0.4451 0.07568 0.0
C681 C 0.68545 0.42673 0.08213 0.0
C682 C 0.75388 0.43279 0.15894 0.0
C683 C 0.67224 0.41479 0.12783 0.0
C684 C 0.7671 0.44465 0.11316 0.0
C685 C 0.70629 0.42006 0.1676 0.0
C686 C 0.74539 0.48008 1.04237 0.0
C687 C 0.67225 0.61371 0.99412 0.0
H688 H 0.63117 0.74332 0.05731 0.0
H689 H 0.75071 0.9001 0.13163 0.0
H690 H 0.65508 0.80296 1.00575 0.0
H691 H 0.72627 0.84002 0.18386 0.0
H692 H 0.65807 0.42582 0.05385 0.0
H693 H 0.78105 0.43518 0.18812 0.0
H694 H 0.63529 0.40302 0.13251 0.0
H695 H 0.80401 0.45821 0.10921 0.0
Eu696 Eu 0.98557 0.39738 0.29306 0.0
Eu697 Eu 0.89552 0.34628 0.3371 0.0
C698 C 0.96948 0.42932 0.40723 0.0
C699 C 0.10018 0.42127 0.23939 0.0
C700 C 0.09735 0.37094 0.23721 0.0
C701 C 0.18069 0.4426 0.27275 0.0
C702 C 0.13397 0.35833 0.26091 0.0
C703 C 0.14377 0.45555 0.25033 0.0
C704 C 0.1723 0.39646 0.28574 0.0
C705 C 1.0604 0.43973 0.25696 0.0
O706 O 0.88144 0.42494 0.33424 0.0
O707 O 0.93468 0.44678 0.27902 0.0
C708 C 0.89998 0.45715 0.30644 0.0
O709 O 0.95948 0.32844 0.23295 0.0
O710 O 0.86982 0.32575 0.40619 0.0
O711 O 0.82242 0.30894 0.33797 0.0
O712 O 0.88346 0.31072 0.25216 0.0
C713 C 0.91655 0.30235 0.22243 0.0
O714 O 1.00472 0.3269 0.31701 0.0
O715 O 0.93098 0.28046 0.32078 0.0
O716 O 0.95283 0.38182 0.40017 0.0
O717 O 1.02054 0.42 0.22901 0.0
O718 O 1.0567 0.4422 0.3057 0.0
O719 O 0.97901 0.44708 0.36755 0.0
C720 C 0.79293 0.33177 0.4158 0.0
C721 C 0.79311 0.38103 0.41646 0.0
C722 C 0.71152 0.31504 0.43147 0.0
C723 C 0.75091 0.39467 0.41691 0.0
C724 C 0.75349 0.30051 0.42899 0.0
C725 C 0.70905 0.35874 0.41659 0.0
C726 C 0.82654 0.31006 0.38665 0.0
C727 C 0.97618 0.28268 0.31886 0.0
H728 H 1.06404 0.34363 0.22728 0.0
H729 H 0.2114 0.47183 0.28981 0.0
H730 H 0.12776 0.32182 0.26883 0.0
H731 H 0.14685 0.49426 0.25071 0.0
H732 H 0.82405 0.40623 0.40831 0.0
H733 H 0.67987 0.28805 0.43481 0.0
H734 H 0.75049 0.42992 0.40823 0.0
H735 H 0.75337 0.26278 0.43031 0.0
Eu736 Eu 0.172 0.62562 0.64388 0.0
Eu737 Eu 0.1646 0.67193 0.55036 0.0
C738 C 0.17046 0.73509 0.6605 0.0
C739 C 0.13505 0.62819 0.76771 0.0
C740 C 0.1152 0.6643 0.75406 0.0
C741 C 0.08805 0.62855 0.8389 0.0
C742 C 0.0829 0.68327 0.7833 0.0
C743 C 0.12212 0.61108 0.81095 0.0
C744 C 1.06971 0.66621 0.82661 0.0
C745 C 0.16446 0.60562 0.73232 0.0
O746 O 0.24361 0.67531 0.56926 0.0
O747 O 0.24568 0.62155 0.62017 0.0
C748 C 0.26741 0.6492 0.59071 0.0
O749 O 0.18113 0.5639 0.58179 0.0
O750 O 0.19269 0.73684 0.52085 0.0
O751 O 0.14416 0.67207 0.47223 0.0
O752 O 0.15108 0.58965 0.51562 0.0
C753 C 0.16691 0.55683 0.53374 0.0
O754 O 0.09148 0.61976 0.62453 0.0
O755 O 0.08747 0.66261 0.56326 0.0
O756 O 0.14518 0.72318 0.61724 0.0
O757 O 0.14142 0.57519 0.69088 0.0
O758 O 0.20055 0.63746 0.7225 0.0
O759 O 0.1987 0.70817 0.66782 0.0
C760 C 0.21024 0.70995 0.43832 0.0
C761 C 0.2372 0.67562 0.4395 0.0
C762 C 0.25717 0.74164 0.37611 0.0
C763 C 0.27453 0.67477 0.4097 0.0
C764 C 0.21996 0.7427 0.40633 0.0
C765 C 0.28514 0.70816 0.37827 0.0
C766 C 0.17519 0.7137 0.47432 0.0
C767 C 1.06626 0.63961 0.59635 0.0
H768 H 0.12323 0.67623 0.71946 0.0
H769 H 1.0747 0.61093 0.86858 0.0
H770 H 1.06756 0.71043 0.77147 0.0
H771 H 0.13595 0.5821 0.82111 0.0
H772 H 0.23001 0.65023 0.46445 0.0
H773 H 0.26461 0.76779 0.35199 0.0
H774 H 0.29542 0.64861 0.41193 0.0
H775 H 0.19957 0.76961 0.40558 0.0
Eu776 Eu 0.8909 0.8842 0.33594 0.0
Eu777 Eu 0.98762 0.86021 0.33958 0.0
C778 C 0.89977 0.76796 0.34623 0.0
C779 C 0.7645 0.85484 0.35198 0.0
C780 C 0.77503 0.83599 0.39366 0.0
C781 C 0.68335 0.83868 0.36874 0.0
C782 C 0.74053 0.82307 0.42558 0.0
C783 C 0.718 0.8521 0.33702 0.0
C784 C 0.69597 0.83077 0.41661 0.0
C785 C 0.80246 0.88127 0.3277 0.0
O786 O 0.96471 0.83798 0.2552 0.0
O787 O 0.90766 0.87906 0.25302 0.0
C788 C 0.93555 0.85397 0.22922 0.0
O789 O 0.93206 0.964 0.33238 0.0
O790 O 1.03565 0.81323 0.32119 0.0
O791 O 1.06169 0.88825 0.36688 0.0
O792 O 1.00288 0.94471 0.33488 0.0
C793 C 0.97814 0.9783 0.33228 0.0
O794 O 0.91495 0.90816 0.42186 0.0
O795 O 0.97003 0.86391 0.42095 0.0
O796 O 0.94465 0.78065 0.33965 0.0
O797 O 0.83328 0.91733 0.3587 0.0
O798 O 0.82172 0.85273 0.29516 0.0
O799 O 0.87573 0.80251 0.34841 0.0
C800 C 0.11054 0.85421 0.31004 0.0
C801 C 0.11241 0.88501 0.27577 0.0
C802 C 0.17584 0.82577 0.27434 0.0
C803 C 0.14625 0.88642 0.24101 0.0
C804 C 0.14229 0.82469 0.30926 0.0
C805 C 0.17798 0.85654 0.23987 0.0
C806 C 1.07235 0.84802 0.34246 0.0
C807 C 0.94372 0.88995 0.44634 0.0
H808 H 0.81077 0.83616 0.40452 0.0
H809 H 0.64858 0.84271 0.35972 0.0
H810 H 0.75093 0.81508 0.46114 0.0
H811 H 0.70917 0.86458 0.30361 0.0
H812 H 0.08726 0.90719 0.27535 0.0
H813 H 0.2002 0.80271 0.27459 0.0
H814 H 0.14722 0.91039 0.21478 0.0
H815 H 0.14056 0.80013 0.33502 0.0
Eu816 Eu 0.99377 0.47211 0.79186 0.0
Eu817 Eu 0.9033 0.45664 0.86098 0.0
C818 C 0.89279 0.4735 0.74898 0.0
C819 C 1.03278 0.50755 0.68314 0.0
C820 C 1.02162 0.5538 0.69579 0.0
C821 C 0.96897 0.47987 0.61552 0.0
C822 C 0.98187 0.56093 0.67251 0.0
C823 C 1.00865 0.47242 0.63951 0.0
C824 C 0.95376 0.52302 0.63388 0.0
C825 C 1.05125 0.48958 0.72525 0.0
O826 O 0.92331 0.3838 0.84097 0.0
O827 O 0.95947 0.39106 0.76819 0.0
C828 C 0.94025 0.36451 0.79914 0.0
O829 O 1.0213 0.44705 0.85757 0.0
O830 O 0.83241 0.41541 0.86801 0.0
O831 O 0.868 0.4773 0.92929 0.0
O832 O 0.96729 0.46604 0.91404 0.0
C833 C 1.00714 0.45472 0.90377 0.0
O834 O 1.00492 0.53599 0.86034 0.0
O835 O 0.92868 0.53794 0.86639 0.0
O836 O 0.87399 0.44854 0.78145 0.0
O837 O 1.05579 0.51919 0.77048 0.0
O838 O 1.03005 0.44423 0.7264 0.0
O839 O 0.93704 0.49666 0.75474 0.0
C840 C 0.83521 0.40204 0.94928 0.0
C841 C 0.87657 0.38679 0.95421 0.0
C842 C 0.79796 0.34434 0.9981 0.0
C843 C 0.87881 0.35055 0.97997 0.0
C844 C 0.79559 0.3807 0.9712 0.0
C845 C 0.83958 0.32861 1.00188 0.0
C846 C 0.83476 0.43635 0.91645 0.0
C847 C 0.97317 0.55794 0.88022 0.0
H848 H 1.03919 0.58199 0.72872 0.0
H849 H 0.94754 0.44985 0.58626 0.0
H850 H 0.97193 0.59534 0.68667 0.0
H851 H 1.01627 0.4364 0.62848 0.0
H852 H 0.90721 0.40203 0.9369 0.0
H853 H 0.7673 0.32827 1.01527 0.0
H854 H 0.91144 0.33959 0.98222 0.0
H855 H 0.76309 0.39144 0.9669 0.0
Eu856 Eu 0.96491 0.94939 0.87477 0.0
Eu857 Eu 0.88714 0.84657 0.81226 0.0
C858 C 0.93679 0.92957 0.75028 0.0
C859 C 1.01676 0.08261 0.89516 0.0
C860 C 1.04433 0.09412 0.85579 0.0
C861 C 0.9718 0.14045 0.8801 0.0
C862 C 1.03423 0.1266 0.82733 0.0
C863 C 0.98202 0.10826 0.90867 0.0
C864 C 0.99643 0.14826 0.83775 0.0
C865 C 1.0175 1.03765 0.91424 0.0
O866 O 0.95656 0.83386 0.79095 0.0
O867 O 1.0075 0.89427 0.85285 0.0
C868 C 0.99847 0.85568 0.81391 0.0
O869 O 0.9434 0.9072 0.93726 0.0
O870 O 0.86492 0.77014 0.76911 0.0
O871 O 0.8132 0.81289 0.78478 0.0
O872 O 0.90562 0.82895 0.889 0.0
C873 C 0.92278 0.85981 0.93373 0.0
O874 O 0.89494 0.96491 0.86733 0.0
O875 O 0.85367 0.88951 0.87385 0.0
O876 O 0.90135 0.89156 0.75089 0.0
O877 O 0.97983 1.01837 0.93402 0.0
O878 O 1.0326 1.0035 0.88372 0.0
O879 O 0.96424 0.95444 0.79188 0.0
C880 C 0.79523 0.72979 0.79359 0.0
C881 C 0.79634 0.74227 0.84708 0.0
C882 C 0.80928 0.65047 0.79703 0.0
C883 C 0.81163 0.71228 0.87503 0.0
C884 C 0.79421 0.68074 0.76908 0.0
C885 C 0.82466 0.66982 0.84905 0.0
C886 C 0.82038 0.76864 0.76977 0.0
C887 C 0.86045 0.93754 0.88486 0.0
H888 H 1.07167 1.07546 0.84462 0.0
H889 H 0.94305 0.15739 0.88979 0.0
H890 H 1.05428 0.13237 0.79535 0.0
H891 H 0.96045 0.10091 0.93914 0.0
H892 H 0.79534 0.77932 0.8671 0.0
H893 H 0.81721 0.61672 0.77622 0.0
H894 H 0.82129 0.72695 0.91561 0.0
H895 H 0.7917 0.66967 0.72779 0.0
Eu896 Eu 0.68016 0.69683 0.61746 0.0
Eu897 Eu 0.64765 0.58451 0.58239 0.0
C898 C 0.70141 0.64762 0.50008 0.0
C899 C 0.69857 0.83059 0.69401 0.0
C900 C 0.65191 0.83248 0.68542 0.0
C901 C 0.72332 0.91946 0.70975 0.0
C902 C 0.6428 0.87744 0.68155 0.0
C903 C 0.73289 0.8747 0.71338 0.0
C904 C 0.68106 0.91789 0.68291 0.0
C905 C 0.71412 0.78884 0.66477 0.0
O906 O 0.72816 0.5926 0.58499 0.0
O907 O 0.75109 0.67431 0.62422 0.0
C908 C 0.76252 0.63251 0.60389 0.0
O909 O 0.63503 0.6734 0.68074 0.0
O910 O 0.61254 0.51909 0.52285 0.0
O911 O 0.63426 0.51124 0.59773 0.0
O912 O 0.64716 0.59709 0.67069 0.0
C913 C 0.63298 0.63398 0.69916 0.0
O914 O 0.60108 0.69095 0.59525 0.0
O915 O 0.57602 0.60721 0.58498 0.0
O916 O 0.68372 0.6045 0.5115 0.0
O917 O 0.7143 0.75206 0.68612 0.0
O918 O 0.69851 0.77451 0.61638 0.0
O919 O 0.69951 0.68888 0.53329 0.0
C920 C 0.65283 0.45804 0.52912 0.0
C921 C 0.651 0.41475 0.54612 0.0
C922 C 0.7351 0.46609 0.5169 0.0
C923 C 0.69184 0.39912 0.55162 0.0
C924 C 0.69405 0.48096 0.51034 0.0
C925 C 0.73469 0.42686 0.54034 0.0
C926 C 0.62178 0.489 0.54985 0.0
C927 C 0.56568 0.65075 0.5892 0.0
H928 H 0.62445 0.79863 0.67259 0.0
H929 H 0.75245 0.95194 0.71539 0.0
H930 H 0.60849 0.87668 0.66517 0.0
H931 H 0.76878 0.87401 0.72242 0.0
H932 H 0.61966 0.39674 0.56103 0.0
H933 H 0.7676 0.48764 0.50732 0.0
H934 H 0.69055 0.36788 0.56874 0.0
H935 H 0.6962 0.51432 0.49674 0.0
Eu936 Eu 0.28519 0.63947 1.02755 0.0
Eu937 Eu 0.22748 0.67212 0.12725 0.0
C938 C 0.3315 0.66411 0.14363 0.0
C939 C 0.38446 0.60154 0.98137 0.0
C940 C 0.41133 0.63871 1.02202 0.0
C941 C 0.41571 0.54056 1.01153 0.0
C942 C 0.43697 0.62606 0.05931 0.0
C943 C 0.39029 0.5532 0.97409 0.0
C944 C 0.43627 0.57627 0.05631 0.0
C945 C 0.3393 0.60773 0.96259 0.0
O946 O 0.24788 0.73713 0.09233 0.0
O947 O 0.31347 0.72185 0.05523 0.0
C948 C 0.28702 0.75172 0.0722 0.0
O949 O 0.22508 0.66245 0.99229 0.0
O950 O 0.2113 0.72317 0.19332 0.0
O951 O 0.17104 0.64652 0.17238 0.0
O952 O 0.17909 0.66601 0.06038 0.0
C953 C 0.18639 0.66845 1.01339 0.0
O954 O 0.21865 0.58054 1.02382 0.0
O955 O 0.22306 0.59117 0.10903 0.0
O956 O 0.30084 0.68935 0.15872 0.0
O957 O 0.30357 0.57794 0.97604 0.0
O958 O 0.33458 0.6532 0.97044 0.0
O959 O 0.32641 0.6336 0.09835 0.0
C960 C 0.12886 0.70642 0.18295 0.0
C961 C 0.12946 0.7357 0.14709 0.0
C962 C 1.04406 0.68377 0.17166 0.0
C963 C 0.08781 0.73839 0.12319 0.0
C964 C 0.08581 0.68123 0.19573 0.0
C965 C 1.04472 0.7115 0.1343 0.0
C966 C 0.1716 0.69191 0.19558 0.0
C967 C 0.20396 0.56545 0.06402 0.0
H968 H 0.40824 0.67664 1.02852 0.0
H969 H 0.41585 0.50204 1.00708 0.0
H970 H 0.45496 0.6548 0.09184 0.0
H971 H 0.37011 0.52388 0.94315 0.0
H972 H 0.16218 0.75453 0.13537 0.0
H973 H 1.01128 0.66336 0.18182 0.0
H974 H 0.08947 0.76094 0.09548 0.0
H975 H 0.08454 0.65749 0.22225 0.0
loop_
_geom_bond_atom_site_label_1
_geom_bond_atom_site_label_2
_geom_bond_distance
_geom_bond_site_symmetry_2
_ccdc_geom_bond_type
O0 Cd1 2.223 . S
O0 C8 1.315 . S
Cd1 O0 2.223 . S
Cd1 O4 2.297 . S
Cd1 O5 2.439 . S
Cd1 O11 2.240 . S
Cd2 O3 2.240 . S
Cd2 O10 2.223 . S
Cd2 O12 2.297 . S
Cd2 O13 2.439 . S
O3 Cd2 2.240 . S
O3 C8 1.279 . S
O4 Cd1 2.297 . S
O4 C6 1.247 . S
O5 Cd1 2.439 . S
O5 C6 1.208 . S
C6 O4 1.247 . S
C6 O5 1.208 . S
C7 O12 1.247 . S
C7 O13 1.208 . S
C8 O0 1.315 . S
C8 O3 1.279 . S
C9 O10 1.315 . S
C9 O11 1.279 . S
O10 Cd2 2.223 . S
O10 C9 1.315 . S
O11 Cd1 2.240 . S
O11 C9 1.279 . S
O12 Cd2 2.297 . S
O12 C7 1.247 . S
O13 Cd2 2.439 . S
O13 C7 1.208 . S
O14 Cd15 2.219 1_455 S
O14 C22 1.314 1_455 S
Cd15 O14 2.219 1_655 S
Cd15 O18 2.297 . S
Cd15 O19 2.439 . S
Cd15 O25 2.240 1_655 S
Cd16 O17 2.240 1_455 S
Cd16 O24 2.223 . S
Cd16 O26 2.297 . S
Cd16 O27 2.439 . S
O17 Cd16 2.240 1_655 S
O17 C22 1.279 . S
O18 Cd15 2.297 . S
O18 C20 1.247 . S
O19 Cd15 2.439 . S
O19 C20 1.208 . S
C20 O18 1.247 . S
C20 O19 1.208 . S
C21 O26 1.247 . S
C21 O27 1.208 . S
C22 O14 1.314 1_655 S
C22 O17 1.279 . S
C23 O24 1.315 . S
C23 O25 1.279 . S
O24 Cd16 2.223 . S
O24 C23 1.315 . S
O25 Cd15 2.240 1_455 S
O25 C23 1.279 . S
O26 Cd16 2.297 . S
O26 C21 1.247 . S
O27 Cd16 2.439 . S
O27 C21 1.208 . S
O28 Cd29 2.223 1_556 S
O28 C36 1.315 . S
Cd29 O28 2.223 1_554 S
Cd29 O32 2.297 . S
Cd29 O33 2.439 1_554 S
Cd29 O39 2.240 1_554 S
Cd30 O31 2.240 . S
Cd30 O38 2.223 1_565 S
Cd30 O40 2.297 . S
Cd30 O41 2.439 . S
O31 Cd30 2.240 . S
O31 C36 1.279 . S
O32 Cd29 2.297 . S
O32 C34 1.247 1_554 S
O33 Cd29 2.439 1_556 S
O33 C34 1.208 . S
C34 O32 1.247 1_556 S
C34 O33 1.208 . S
C35 O40 1.247 . S
C35 O41 1.208 . S
C36 O28 1.315 . S
C36 O31 1.279 . S
C37 O38 1.315 . S
C37 O39 1.279 1_545 S
O38 Cd30 2.223 1_545 S
O38 C37 1.315 . S
O39 Cd29 2.240 1_556 S
O39 C37 1.279 1_565 S
O40 Cd30 2.297 . S
O40 C35 1.247 . S
O41 Cd30 2.439 . S
O41 C35 1.208 . S
O42 Cd43 2.223 . S
O42 C50 1.315 . S
Cd43 O42 2.223 . S
Cd43 O46 2.297 . S
Cd43 O47 2.439 . S
Cd43 O53 2.240 . S
Cd44 O45 2.240 . S
Cd44 O52 2.223 . S
Cd44 O54 2.297 . S
Cd44 O55 2.439 . S
O45 Cd44 2.240 . S
O45 C50 1.279 . S
O46 Cd43 2.297 . S
O46 C48 1.247 . S
O47 Cd43 2.439 . S
O47 C48 1.208 . S
C48 O46 1.247 . S
C48 O47 1.208 . S
C49 O54 1.247 . S
C49 O55 1.208 . S
C50 O42 1.315 . S
C50 O45 1.279 . S
C51 O52 1.315 . S
C51 O53 1.279 . S
O52 Cd44 2.223 . S
O52 C51 1.315 . S
O53 Cd43 2.240 . S
O53 C51 1.279 . S
O54 Cd44 2.297 . S
O54 C49 1.247 . S
O55 Cd44 2.439 . S
O55 C49 1.208 . S
O56 Cd57 2.223 . S
O56 C64 1.315 . S
Cd57 O56 2.223 . S
Cd57 O60 2.297 . S
Cd57 O61 2.439 . S
Cd57 O67 2.240 . S
Cd58 O59 2.240 . S
Cd58 O66 2.223 . S
Cd58 O68 2.297 . S
Cd58 O69 2.439 . S
O59 Cd58 2.240 . S
O59 C64 1.279 . S
O60 Cd57 2.297 . S
O60 C62 1.247 . S
O61 Cd57 2.439 . S
O61 C62 1.208 . S
C62 O60 1.247 . S
C62 O61 1.208 . S
C63 O68 1.247 . S
C63 O69 1.208 . S
C64 O56 1.315 . S
C64 O59 1.279 . S
C65 O66 1.315 . S
C65 O67 1.279 . S
O66 Cd58 2.223 . S
O66 C65 1.315 . S
O67 Cd57 2.240 . S
O67 C65 1.279 . S
O68 Cd58 2.297 . S
O68 C63 1.247 . S
O69 Cd58 2.439 . S
O69 C63 1.208 . S
O70 Cd71 2.223 . S
O70 C78 1.315 . S
Cd71 O70 2.223 . S
Cd71 O74 2.297 . S
Cd71 O75 2.439 . S
Cd71 O81 2.240 . S
Cd72 O73 2.240 . S
Cd72 O80 2.223 . S
Cd72 O82 2.297 . S
Cd72 O83 2.439 . S
O73 Cd72 2.240 . S
O73 C78 1.279 . S
O74 Cd71 2.297 . S
O74 C76 1.247 . S
O75 Cd71 2.439 . S
O75 C76 1.208 . S
C76 O74 1.247 . S
C76 O75 1.208 . S
C77 O82 1.247 . S
C77 O83 1.208 . S
C78 O70 1.315 . S
C78 O73 1.279 . S
C79 O80 1.315 . S
C79 O81 1.279 . S
O80 Cd72 2.223 . S
O80 C79 1.315 . S
O81 Cd71 2.240 . S
O81 C79 1.279 . S
O82 Cd72 2.297 . S
O82 C77 1.247 . S
O83 Cd72 2.439 . S
O83 C77 1.208 . S
O84 Cd85 2.223 . S
O84 C92 1.315 . S
Cd85 O84 2.223 . S
Cd85 O88 2.297 . S
Cd85 O89 2.439 . S
Cd85 O95 2.240 . S
Cd86 O87 2.240 . S
Cd86 O94 2.223 . S
Cd86 O96 2.297 . S
Cd86 O97 2.439 . S
O87 Cd86 2.240 . S
O87 C92 1.279 . S
O88 Cd85 2.297 . S
O88 C90 1.247 . S
O89 Cd85 2.439 . S
O89 C90 1.208 . S
C90 O88 1.247 . S
C90 O89 1.208 . S
C91 O96 1.247 . S
C91 O97 1.208 . S
C92 O84 1.315 . S
C92 O87 1.279 . S
C93 O94 1.315 . S
C93 O95 1.279 . S
O94 Cd86 2.223 . S
O94 C93 1.315 . S
O95 Cd85 2.240 . S
O95 C93 1.279 . S
O96 Cd86 2.297 . S
O96 C91 1.247 . S
O97 Cd86 2.439 . S
O97 C91 1.208 . S
O98 Cd99 2.223 . S
O98 C106 1.315 . S
Cd99 O98 2.223 . S
Cd99 O102 2.297 . S
Cd99 O103 2.439 . S
Cd99 O109 2.240 . S
Cd100 O101 2.240 1_554 S
Cd100 O108 2.223 1_454 S
Cd100 O110 2.297 . S
Cd100 O111 2.439 1_554 S
O101 Cd100 2.240 1_556 S
O101 C106 1.279 . S
O102 Cd99 2.297 . S
O102 C104 1.247 . S
O103 Cd99 2.439 . S
O103 C104 1.208 . S
C104 O102 1.247 . S
C104 O103 1.208 . S
C105 O110 1.247 . S
C105 O111 1.208 1_554 S
C106 O98 1.315 . S
C106 O101 1.279 . S
C107 O108 1.315 . S
C107 O109 1.279 1_655 S
O108 Cd100 2.223 1_656 S
O108 C107 1.315 . S
O109 Cd99 2.240 . S
O109 C107 1.279 1_455 S
O110 Cd100 2.297 . S
O110 C105 1.247 . S
O111 Cd100 2.439 1_556 S
O111 C105 1.208 1_556 S
O112 Cd113 2.223 . S
O112 C120 1.315 . S
Cd113 O112 2.223 . S
Cd113 O116 2.297 1_565 S
Cd113 O117 2.439 1_565 S
Cd113 O123 2.240 . S
Cd114 O115 2.240 1_565 S
Cd114 O122 2.223 . S
Cd114 O124 2.297 . S
Cd114 O125 2.439 1_565 S
O115 Cd114 2.240 1_545 S
O115 C120 1.279 1_545 S
O116 Cd113 2.297 1_545 S
O116 C118 1.247 . S
O117 Cd113 2.439 1_545 S
O117 C118 1.208 . S
C118 O116 1.247 . S
C118 O117 1.208 . S
C119 O124 1.247 1_545 S
C119 O125 1.208 . S
C120 O112 1.315 . S
C120 O115 1.279 1_565 S
C121 O122 1.315 . S
C121 O123 1.279 . S
O122 Cd114 2.223 . S
O122 C121 1.315 . S
O123 Cd113 2.240 . S
O123 C121 1.279 . S
O124 Cd114 2.297 . S
O124 C119 1.247 1_565 S
O125 Cd114 2.439 1_545 S
O125 C119 1.208 . S
O126 Cd127 2.223 . S
O126 C134 1.315 . S
Cd127 O126 2.223 . S
Cd127 O130 2.297 . S
Cd127 O131 2.439 . S
Cd127 O137 2.240 . S
Cd128 O129 2.240 . S
Cd128 O136 2.223 . S
Cd128 O138 2.297 . S
Cd128 O139 2.439 . S
O129 Cd128 2.240 . S
O129 C134 1.279 . S
O130 Cd127 2.297 . S
O130 C132 1.247 . S
O131 Cd127 2.439 . S
O131 C132 1.208 . S
C132 O130 1.247 . S
C132 O131 1.208 . S
C133 O138 1.247 . S
C133 O139 1.208 . S
C134 O126 1.315 . S
C134 O129 1.279 . S
C135 O136 1.315 . S
C135 O137 1.279 . S
O136 Cd128 2.223 . S
O136 C135 1.315 . S
O137 Cd127 2.240 . S
O137 C135 1.279 . S
O138 Cd128 2.297 . S
O138 C133 1.247 . S
O139 Cd128 2.439 . S
O139 C133 1.208 . S
O140 Cd141 2.223 . S
O140 C148 1.315 . S
Cd141 O140 2.223 . S
Cd141 O144 2.297 1_545 S
Cd141 O145 2.439 1_545 S
Cd141 O151 2.240 . S
Cd142 O143 2.240 . S
Cd142 O150 2.223 . S
Cd142 O152 2.297 . S
Cd142 O153 2.439 . S
O143 Cd142 2.240 . S
O143 C148 1.279 . S
O144 Cd141 2.297 1_565 S
O144 C146 1.247 . S
O145 Cd141 2.439 1_565 S
O145 C146 1.208 . S
C146 O144 1.247 . S
C146 O145 1.208 . S
C147 O152 1.247 . S
C147 O153 1.208 . S
C148 O140 1.315 . S
C148 O143 1.279 . S
C149 O150 1.315 . S
C149 O151 1.279 . S
O150 Cd142 2.223 . S
O150 C149 1.315 . S
O151 Cd141 2.240 . S
O151 C149 1.279 . S
O152 Cd142 2.297 . S
O152 C147 1.247 . S
O153 Cd142 2.439 . S
O153 C147 1.208 . S
O154 Cd155 2.223 . S
O154 C162 1.315 1_545 S
Cd155 O154 2.223 . S
Cd155 O158 2.297 . S
Cd155 O159 2.439 1_554 S
Cd155 O165 2.240 . S
Cd156 O157 2.240 1_556 S
Cd156 O164 2.223 1_556 S
Cd156 O166 2.297 . S
Cd156 O167 2.439 . S
O157 Cd156 2.240 1_554 S
O157 C162 1.279 . S
O158 Cd155 2.297 . S
O158 C160 1.247 . S
O159 Cd155 2.439 1_556 S
O159 C160 1.208 1_556 S
C160 O158 1.247 . S
C160 O159 1.208 1_554 S
C161 O166 1.247 . S
C161 O167 1.208 . S
C162 O154 1.315 1_565 S
C162 O157 1.279 . S
C163 O164 1.315 1_545 S
C163 O165 1.279 . S
O164 Cd156 2.223 1_554 S
O164 C163 1.315 1_565 S
O165 Cd155 2.240 . S
O165 C163 1.279 . S
O166 Cd156 2.297 . S
O166 C161 1.247 . S
O167 Cd156 2.439 . S
O167 C161 1.208 . S
O168 Cd169 2.223 . S
O168 C176 1.315 . S
Cd169 O168 2.223 . S
Cd169 O172 2.297 . S
Cd169 O173 2.439 . S
Cd169 O179 2.240 . S
Cd170 O171 2.240 . S
Cd170 O178 2.223 . S
Cd170 O180 2.297 1_554 S
Cd170 O181 2.439 1_554 S
O171 Cd170 2.240 . S
O171 C176 1.279 . S
O172 Cd169 2.297 . S
O172 C174 1.247 . S
O173 Cd169 2.439 . S
O173 C174 1.208 . S
C174 O172 1.247 . S
C174 O173 1.208 . S
C175 O180 1.247 . S
C175 O181 1.208 . S
C176 O168 1.315 . S
C176 O171 1.279 . S
C177 O178 1.315 . S
C177 O179 1.279 . S
O178 Cd170 2.223 . S
O178 C177 1.315 . S
O179 Cd169 2.240 . S
O179 C177 1.279 . S
O180 Cd170 2.297 1_556 S
O180 C175 1.247 . S
O181 Cd170 2.439 1_556 S
O181 C175 1.208 . S
O182 Cd183 2.223 . S
O182 C190 1.315 . S
Cd183 O182 2.223 . S
Cd183 O186 2.297 . S
Cd183 O187 2.439 . S
Cd183 O193 2.240 . S
Cd184 O185 2.240 . S
Cd184 O192 2.223 . S
Cd184 O194 2.301 . S
Cd184 O195 2.439 1_554 S
O185 Cd184 2.240 . S
O185 C190 1.279 . S
O186 Cd183 2.297 . S
O186 C188 1.247 . S
O187 Cd183 2.439 . S
O187 C188 1.208 . S
C188 O186 1.247 . S
C188 O187 1.208 . S
C189 O194 1.246 1_556 S
C189 O195 1.208 . S
C190 O182 1.315 . S
C190 O185 1.279 . S
C191 O192 1.315 . S
C191 O193 1.279 . S
O192 Cd184 2.223 . S
O192 C191 1.315 . S
O193 Cd183 2.240 . S
O193 C191 1.279 . S
O194 Cd184 2.301 . S
O194 C189 1.246 1_554 S
O195 Cd184 2.439 1_556 S
O195 C189 1.208 . S
O196 Cd197 2.223 . S
O196 C204 1.315 . S
Cd197 O196 2.223 . S
Cd197 O200 2.297 . S
Cd197 O201 2.439 . S
Cd197 O207 2.240 . S
Cd198 O199 2.240 . S
Cd198 O206 2.223 . S
Cd198 O208 2.297 . S
Cd198 O209 2.439 . S
O199 Cd198 2.240 . S
O199 C204 1.279 . S
O200 Cd197 2.297 . S
O200 C202 1.247 . S
O201 Cd197 2.439 . S
O201 C202 1.208 . S
C202 O200 1.247 . S
C202 O201 1.208 . S
C203 O208 1.247 . S
C203 O209 1.208 . S
C204 O196 1.315 . S
C204 O199 1.279 . S
C205 O206 1.315 . S
C205 O207 1.279 . S
O206 Cd198 2.223 . S
O206 C205 1.315 . S
O207 Cd197 2.240 . S
O207 C205 1.279 . S
O208 Cd198 2.297 . S
O208 C203 1.247 . S
O209 Cd198 2.439 . S
O209 C203 1.208 . S
O210 Cd211 2.223 . S
O210 C218 1.315 . S
Cd211 O210 2.223 . S
Cd211 O214 2.297 . S
Cd211 O215 2.439 . S
Cd211 O221 2.240 . S
Cd212 O213 2.240 . S
Cd212 O220 2.223 . S
Cd212 O222 2.297 . S
Cd212 O223 2.439 . S
O213 Cd212 2.240 . S
O213 C218 1.279 . S
O214 Cd211 2.297 . S
O214 C216 1.247 . S
O215 Cd211 2.439 . S
O215 C216 1.208 . S
C216 O214 1.247 . S
C216 O215 1.208 . S
C217 O222 1.247 . S
C217 O223 1.208 . S
C218 O210 1.315 . S
C218 O213 1.279 . S
C219 O220 1.315 1_455 S
C219 O221 1.279 1_455 S
O220 Cd212 2.223 . S
O220 C219 1.315 1_655 S
O221 Cd211 2.240 . S
O221 C219 1.279 1_655 S
O222 Cd212 2.297 . S
O222 C217 1.247 . S
O223 Cd212 2.439 . S
O223 C217 1.208 . S
O224 Cd225 2.223 . S
O224 C232 1.315 1_655 S
Cd225 O224 2.223 . S
Cd225 O228 2.297 . S
Cd225 O229 2.439 . S
Cd225 O235 2.240 . S
Cd226 O227 2.240 . S
Cd226 O234 2.223 1_545 S
Cd226 O236 2.297 . S
Cd226 O237 2.439 . S
O227 Cd226 2.240 . S
O227 C232 1.279 . S
O228 Cd225 2.297 . S
O228 C230 1.247 . S
O229 Cd225 2.439 . S
O229 C230 1.208 . S
C230 O228 1.247 . S
C230 O229 1.208 . S
C231 O236 1.247 . S
C231 O237 1.208 . S
C232 O224 1.315 1_455 S
C232 O227 1.279 . S
C233 O234 1.315 1_655 S
C233 O235 1.279 1_565 S
O234 Cd226 2.223 1_565 S
O234 C233 1.315 1_455 S
O235 Cd225 2.240 . S
O235 C233 1.279 1_545 S
O236 Cd226 2.297 . S
O236 C231 1.247 . S
O237 Cd226 2.439 . S
O237 C231 1.208 . S
O238 Cd239 2.223 . S
O238 C246 1.315 . S
Cd239 O238 2.223 . S
Cd239 O242 2.297 . S
Cd239 O243 2.439 . S
Cd239 O249 2.240 . S
Cd240 O241 2.240 . S
Cd240 O248 2.223 . S
Cd240 O250 2.297 . S
Cd240 O251 2.439 . S
O241 Cd240 2.240 . S
O241 C246 1.279 . S
O242 Cd239 2.297 . S
O242 C244 1.247 . S
O243 Cd239 2.439 . S
O243 C244 1.208 . S
C244 O242 1.247 . S
C244 O243 1.208 . S
C245 O250 1.247 . S
C245 O251 1.208 . S
C246 O238 1.315 . S
C246 O241 1.279 . S
C247 O248 1.315 . S
C247 O249 1.279 . S
O248 Cd240 2.223 . S
O248 C247 1.315 . S
O249 Cd239 2.240 . S
O249 C247 1.279 . S
O250 Cd240 2.297 . S
O250 C245 1.247 . S
O251 Cd240 2.439 . S
O251 C245 1.208 . S
O252 Cd253 2.223 . S
O252 C260 1.315 . S
Cd253 O252 2.223 . S
Cd253 O256 2.297 . S
Cd253 O257 2.439 . S
Cd253 O263 2.240 . S
Cd254 O255 2.240 . S
Cd254 O262 2.223 . S
Cd254 O264 2.297 . S
Cd254 O265 2.439 . S
O255 Cd254 2.240 . S
O255 C260 1.279 . S
O256 Cd253 2.297 . S
O256 C258 1.247 . S
O257 Cd253 2.439 . S
O257 C258 1.208 . S
C258 O256 1.247 . S
C258 O257 1.208 . S
C259 O264 1.247 . S
C259 O265 1.208 . S
C260 O252 1.315 . S
C260 O255 1.279 . S
C261 O262 1.315 . S
C261 O263 1.279 . S
O262 Cd254 2.223 . S
O262 C261 1.315 . S
O263 Cd253 2.240 . S
O263 C261 1.279 . S
O264 Cd254 2.297 . S
O264 C259 1.247 . S
O265 Cd254 2.439 . S
O265 C259 1.208 . S
O266 Cd267 2.223 . S
O266 C274 1.315 . S
Cd267 O266 2.223 . S
Cd267 O270 2.297 . S
Cd267 O271 2.439 . S
Cd267 O277 2.240 . S
Cd268 O269 2.240 . S
Cd268 O276 2.223 . S
Cd268 O278 2.297 . S
Cd268 O279 2.439 . S
O269 Cd268 2.240 . S
O269 C274 1.279 . S
O270 Cd267 2.297 . S
O270 C272 1.247 . S
O271 Cd267 2.439 . S
O271 C272 1.208 . S
C272 O270 1.247 . S
C272 O271 1.208 . S
C273 O278 1.247 . S
C273 O279 1.208 . S
C274 O266 1.315 . S
C274 O269 1.279 . S
C275 O276 1.315 . S
C275 O277 1.279 . S
O276 Cd268 2.223 . S
O276 C275 1.315 . S
O277 Cd267 2.240 . S
O277 C275 1.279 . S
O278 Cd268 2.297 . S
O278 C273 1.247 . S
O279 Cd268 2.439 . S
O279 C273 1.208 . S
O280 Cd281 2.223 . S
O280 C288 1.315 . S
Cd281 O280 2.223 . S
Cd281 O284 2.297 . S
Cd281 O285 2.439 . S
Cd281 O291 2.240 . S
Cd282 O283 2.240 . S
Cd282 O290 2.223 . S
Cd282 O292 2.297 1_554 S
Cd282 O293 2.439 1_554 S
O283 Cd282 2.240 . S
O283 C288 1.279 . S
O284 Cd281 2.297 . S
O284 C286 1.247 . S
O285 Cd281 2.439 . S
O285 C286 1.208 . S
C286 O284 1.247 . S
C286 O285 1.208 . S
C287 O292 1.247 . S
C287 O293 1.208 . S
C288 O280 1.315 . S
C288 O283 1.279 . S
C289 O290 1.315 . S
C289 O291 1.279 . S
O290 Cd282 2.223 . S
O290 C289 1.315 . S
O291 Cd281 2.240 . S
O291 C289 1.279 . S
O292 Cd282 2.297 1_556 S
O292 C287 1.247 . S
O293 Cd282 2.439 1_556 S
O293 C287 1.208 . S
O294 Cd295 2.223 . S
O294 C302 1.315 1_655 S
Cd295 O294 2.223 . S
Cd295 O298 2.297 . S
Cd295 O299 2.439 . S
Cd295 O305 2.240 . S
Cd296 O297 2.240 . S
Cd296 O304 2.223 . S
Cd296 O306 2.297 . S
Cd296 O307 2.439 . S
O297 Cd296 2.240 . S
O297 C302 1.279 . S
O298 Cd295 2.297 . S
O298 C300 1.247 . S
O299 Cd295 2.439 . S
O299 C300 1.208 . S
C300 O298 1.247 . S
C300 O299 1.208 . S
C301 O306 1.247 . S
C301 O307 1.208 . S
C302 O294 1.315 1_455 S
C302 O297 1.279 . S
C303 O304 1.315 1_655 S
C303 O305 1.279 . S
O304 Cd296 2.223 . S
O304 C303 1.315 1_455 S
O305 Cd295 2.240 . S
O305 C303 1.279 . S
O306 Cd296 2.297 . S
O306 C301 1.247 . S
O307 Cd296 2.439 . S
O307 C301 1.208 . S
O308 Cd309 2.223 . S
O308 C316 1.315 . S
Cd309 O308 2.223 . S
Cd309 O312 2.297 . S
Cd309 O313 2.439 . S
Cd309 O319 2.240 . S
Cd310 O311 2.240 . S
Cd310 O318 2.223 . S
Cd310 O320 2.297 . S
Cd310 O321 2.439 . S
O311 Cd310 2.240 . S
O311 C316 1.279 . S
O312 Cd309 2.297 . S
O312 C314 1.247 . S
O313 Cd309 2.439 . S
O313 C314 1.208 . S
C314 O312 1.247 . S
C314 O313 1.208 . S
C315 O320 1.247 . S
C315 O321 1.208 . S
C316 O308 1.315 . S
C316 O311 1.279 . S
C317 O318 1.315 . S
C317 O319 1.279 . S
O318 Cd310 2.223 . S
O318 C317 1.315 . S
O319 Cd309 2.240 . S
O319 C317 1.279 . S
O320 Cd310 2.297 . S
O320 C315 1.247 . S
O321 Cd310 2.439 . S
O321 C315 1.208 . S
O322 Cd323 2.223 . S
O322 C330 1.315 . S
Cd323 O322 2.223 . S
Cd323 O326 2.297 . S
Cd323 O327 2.439 . S
Cd323 O333 2.240 . S
Cd324 O325 2.240 . S
Cd324 O332 2.223 . S
Cd324 O334 2.297 . S
Cd324 O335 2.439 . S
O325 Cd324 2.240 . S
O325 C330 1.279 . S
O326 Cd323 2.297 . S
O326 C328 1.247 . S
O327 Cd323 2.439 . S
O327 C328 1.208 . S
C328 O326 1.247 . S
C328 O327 1.208 . S
C329 O334 1.247 . S
C329 O335 1.208 . S
C330 O322 1.315 . S
C330 O325 1.279 . S
C331 O332 1.315 . S
C331 O333 1.279 . S
O332 Cd324 2.223 . S
O332 C331 1.315 . S
O333 Cd323 2.240 . S
O333 C331 1.279 . S
O334 Cd324 2.297 . S
O334 C329 1.247 . S
O335 Cd324 2.439 . S
O335 C329 1.208 . S
Eu336 C345 2.828 . S
Eu336 O347 2.392 . S
Eu336 O349 2.418 . S
Eu336 O354 2.373 . S
Eu336 O357 2.488 . S
Eu336 O358 2.471 . S
Eu336 O359 2.349 1_554 S
Eu337 O346 2.373 . S
Eu337 O350 2.488 1_544 S
Eu337 O351 2.471 1_545 S
Eu337 O352 2.349 . S
Eu337 O355 2.392 1_554 S
Eu337 O356 2.418 1_554 S
Eu337 C366 2.828 1_545 S
C338 O356 1.244 . S
C338 O359 1.265 . S
C339 C340 1.379 1_554 S
C339 C343 1.373 . S
C339 C345 1.505 . S
C340 C339 1.379 1_556 S
C340 C342 1.369 . S
C340 H368 0.930 . S
C341 C343 1.383 . S
C341 C344 1.382 . S
C341 H369 0.930 . S
C342 C340 1.369 . S
C342 C344 1.392 1_556 S
C342 H370 0.930 . S
C343 C339 1.373 . S
C343 C341 1.383 . S
C343 H371 0.931 . S
C344 C341 1.382 . S
C344 C342 1.392 1_554 S
C345 Eu336 2.828 . S
C345 C339 1.505 . S
C345 O357 1.249 . S
C345 O358 1.244 . S
O346 Eu337 2.373 . S
O346 C348 1.258 . S
O347 Eu336 2.392 . S
O347 C348 1.242 . S
C348 O346 1.258 . S
C348 O347 1.242 . S
O349 Eu336 2.418 . S
O349 C353 1.244 . S
O350 Eu337 2.488 1_566 S
O350 C366 1.249 1_556 S
O351 Eu337 2.471 1_565 S
O351 C366 1.244 . S
O352 Eu337 2.349 . S
O352 C353 1.265 . S
C353 O349 1.244 . S
C353 O352 1.265 . S
O354 Eu336 2.373 . S
O354 C367 1.258 . S
O355 Eu337 2.392 1_556 S
O355 C367 1.242 1_556 S
O356 Eu337 2.418 1_556 S
O356 C338 1.244 . S
O357 Eu336 2.488 . S
O357 C345 1.249 . S
O358 Eu336 2.471 . S
O358 C345 1.244 . S
O359 Eu336 2.349 1_556 S
O359 C338 1.265 . S
C360 C361 1.379 . S
C360 C364 1.381 . S
C360 C366 1.505 . S
C361 C360 1.379 . S
C361 C363 1.369 . S
C361 H372 0.930 . S
C362 C364 1.390 . S
C362 C365 1.382 . S
C362 H373 0.930 1_554 S
C363 C361 1.369 . S
C363 C365 1.392 . S
C363 H374 0.930 . S
C364 C360 1.381 . S
C364 C362 1.390 . S
C364 H375 0.916 1_554 S
C365 C362 1.382 . S
C365 C363 1.392 . S
C366 Eu337 2.828 1_565 S
C366 O350 1.249 1_554 S
C366 O351 1.244 . S
C366 C360 1.505 . S
C367 O354 1.258 . S
C367 O355 1.242 1_554 S
H368 C340 0.930 . S
H369 C341 0.930 . S
H370 C342 0.930 . S
H371 C343 0.931 . S
H372 C361 0.930 . S
H373 C362 0.930 1_556 S
H374 C363 0.930 . S
H375 C364 0.916 1_556 S
Eu376 C385 2.828 . S
Eu376 O387 2.392 . S
Eu376 O389 2.418 . S
Eu376 O394 2.373 . S
Eu376 O397 2.488 . S
Eu376 O398 2.471 . S
Eu376 O399 2.349 . S
Eu377 O386 2.373 . S
Eu377 O390 2.488 . S
Eu377 O391 2.471 . S
Eu377 O392 2.349 . S
Eu377 O395 2.392 . S
Eu377 O396 2.418 . S
Eu377 C406 2.828 . S
C378 O396 1.244 . S
C378 O399 1.265 . S
C379 C380 1.379 . S
C379 C383 1.373 . S
C379 C385 1.505 . S
C380 C379 1.379 . S
C380 C382 1.369 . S
C380 H408 0.930 . S
C381 C383 1.383 . S
C381 C384 1.382 . S
C381 H409 0.930 . S
C382 C380 1.369 . S
C382 C384 1.392 . S
C382 H410 0.930 . S
C383 C379 1.373 . S
C383 C381 1.383 . S
C383 H411 0.931 . S
C384 C381 1.382 . S
C384 C382 1.392 . S
C385 Eu376 2.828 . S
C385 C379 1.505 . S
C385 O397 1.249 . S
C385 O398 1.244 . S
O386 Eu377 2.373 . S
O386 C388 1.258 . S
O387 Eu376 2.392 . S
O387 C388 1.242 . S
C388 O386 1.258 . S
C388 O387 1.242 . S
O389 Eu376 2.418 . S
O389 C393 1.244 . S
O390 Eu377 2.488 . S
O390 C406 1.249 . S
O391 Eu377 2.471 . S
O391 C406 1.244 . S
O392 Eu377 2.349 . S
O392 C393 1.265 . S
C393 O389 1.244 . S
C393 O392 1.265 . S
O394 Eu376 2.373 . S
O394 C407 1.258 . S
O395 Eu377 2.392 . S
O395 C407 1.242 . S
O396 Eu377 2.418 . S
O396 C378 1.244 . S
O397 Eu376 2.488 . S
O397 C385 1.249 . S
O398 Eu376 2.471 . S
O398 C385 1.244 . S
O399 Eu376 2.349 . S
O399 C378 1.265 . S
C400 C401 1.379 . S
C400 C404 1.373 . S
C400 C406 1.505 . S
C401 C400 1.379 . S
C401 C403 1.369 . S
C401 H412 0.930 . S
C402 C404 1.383 . S
C402 C405 1.382 . S
C402 H413 0.930 . S
C403 C401 1.369 . S
C403 C405 1.392 . S
C403 H414 0.930 . S
C404 C400 1.373 . S
C404 C402 1.383 . S
C404 H415 0.931 . S
C405 C402 1.382 . S
C405 C403 1.392 . S
C406 Eu377 2.828 . S
C406 O390 1.249 . S
C406 O391 1.244 . S
C406 C400 1.505 . S
C407 O394 1.258 . S
C407 O395 1.242 . S
H408 C380 0.930 . S
H409 C381 0.930 . S
H410 C382 0.930 . S
H411 C383 0.931 . S
H412 C401 0.930 . S
H413 C402 0.930 . S
H414 C403 0.930 . S
H415 C404 0.931 . S
Eu416 C425 2.828 . S
Eu416 O427 2.392 . S
Eu416 O429 2.418 . S
Eu416 O434 2.373 1_545 S
Eu416 O437 2.488 . S
Eu416 O438 2.471 . S
Eu416 O439 2.349 . S
Eu417 O426 2.373 . S
Eu417 O430 2.488 . S
Eu417 O431 2.471 . S
Eu417 O432 2.349 . S
Eu417 O435 2.392 1_545 S
Eu417 O436 2.418 . S
Eu417 C446 2.828 . S
C418 O436 1.244 . S
C418 O439 1.265 . S
C419 C420 1.379 . S
C419 C423 1.373 . S
C419 C425 1.505 1_565 S
C420 C419 1.379 . S
C420 C422 1.369 . S
C420 H448 0.930 . S
C421 C423 1.383 . S
C421 C424 1.382 . S
C421 H449 0.930 . S
C422 C420 1.369 . S
C422 C424 1.392 . S
C422 H450 0.930 . S
C423 C419 1.373 . S
C423 C421 1.383 . S
C423 H451 0.931 . S
C424 C421 1.382 . S
C424 C422 1.392 . S
C425 Eu416 2.828 . S
C425 C419 1.505 1_545 S
C425 O437 1.249 . S
C425 O438 1.244 . S
O426 Eu417 2.373 . S
O426 C428 1.258 . S
O427 Eu416 2.392 . S
O427 C428 1.242 . S
C428 O426 1.258 . S
C428 O427 1.242 . S
O429 Eu416 2.418 . S
O429 C433 1.244 . S
O430 Eu417 2.488 . S
O430 C446 1.249 . S
O431 Eu417 2.471 . S
O431 C446 1.244 . S
O432 Eu417 2.349 . S
O432 C433 1.265 . S
C433 O429 1.244 . S
C433 O432 1.265 . S
O434 Eu416 2.373 1_565 S
O434 C447 1.258 . S
O435 Eu417 2.392 1_565 S
O435 C447 1.242 . S
O436 Eu417 2.418 . S
O436 C418 1.244 . S
O437 Eu416 2.488 . S
O437 C425 1.249 . S
O438 Eu416 2.471 . S
O438 C425 1.244 . S
O439 Eu416 2.349 . S
O439 C418 1.265 . S
C440 C441 1.379 . S
C440 C444 1.373 . S
C440 C446 1.505 . S
C441 C440 1.379 . S
C441 C443 1.369 . S
C441 H452 0.930 . S
C442 C444 1.383 . S
C442 C445 1.382 . S
C442 H453 0.930 . S
C443 C441 1.369 . S
C443 C445 1.392 . S
C443 H454 0.930 . S
C444 C440 1.373 . S
C444 C442 1.383 . S
C444 H455 0.931 . S
C445 C442 1.382 . S
C445 C443 1.392 . S
C446 Eu417 2.828 . S
C446 O430 1.249 . S
C446 O431 1.244 . S
C446 C440 1.505 . S
C447 O434 1.258 . S
C447 O435 1.242 . S
H448 C420 0.930 . S
H449 C421 0.930 . S
H450 C422 0.930 . S
H451 C423 0.931 . S
H452 C441 0.930 . S
H453 C442 0.930 . S
H454 C443 0.930 . S
H455 C444 0.931 . S
Eu456 C465 2.828 . S
Eu456 O467 2.392 . S
Eu456 O469 2.418 . S
Eu456 O474 2.373 . S
Eu456 O477 2.488 . S
Eu456 O478 2.471 . S
Eu456 O479 2.349 . S
Eu457 O466 2.373 . S
Eu457 O470 2.488 . S
Eu457 O471 2.471 . S
Eu457 O472 2.349 . S
Eu457 O475 2.392 . S
Eu457 O476 2.418 . S
Eu457 C486 2.828 . S
C458 O476 1.244 . S
C458 O479 1.265 . S
C459 C460 1.379 . S
C459 C463 1.373 . S
C459 C465 1.505 . S
C460 C459 1.379 . S
C460 C462 1.369 . S
C460 H488 0.930 . S
C461 C463 1.383 . S
C461 C464 1.382 . S
C461 H489 0.930 . S
C462 C460 1.369 . S
C462 C464 1.392 . S
C462 H490 0.930 . S
C463 C459 1.373 . S
C463 C461 1.383 . S
C463 H491 0.931 . S
C464 C461 1.382 . S
C464 C462 1.392 . S
C465 Eu456 2.828 . S
C465 C459 1.505 . S
C465 O477 1.249 . S
C465 O478 1.244 . S
O466 Eu457 2.373 . S
O466 C468 1.258 . S
O467 Eu456 2.392 . S
O467 C468 1.242 . S
C468 O466 1.258 . S
C468 O467 1.242 . S
O469 Eu456 2.418 . S
O469 C473 1.244 . S
O470 Eu457 2.488 . S
O470 C486 1.249 . S
O471 Eu457 2.471 . S
O471 C486 1.244 . S
O472 Eu457 2.349 . S
O472 C473 1.265 . S
C473 O469 1.244 . S
C473 O472 1.265 . S
O474 Eu456 2.373 . S
O474 C487 1.258 . S
O475 Eu457 2.392 . S
O475 C487 1.242 . S
O476 Eu457 2.418 . S
O476 C458 1.244 . S
O477 Eu456 2.488 . S
O477 C465 1.249 . S
O478 Eu456 2.471 . S
O478 C465 1.244 . S
O479 Eu456 2.349 . S
O479 C458 1.265 . S
C480 C481 1.379 . S
C480 C484 1.373 . S
C480 C486 1.505 . S
C481 C480 1.379 . S
C481 C483 1.369 . S
C481 H492 0.930 . S
C482 C484 1.383 . S
C482 C485 1.382 . S
C482 H493 0.930 . S
C483 C481 1.369 . S
C483 C485 1.392 . S
C483 H494 0.930 . S
C484 C480 1.373 . S
C484 C482 1.383 . S
C484 H495 0.931 . S
C485 C482 1.382 . S
C485 C483 1.392 . S
C486 Eu457 2.828 . S
C486 O470 1.249 . S
C486 O471 1.244 . S
C486 C480 1.505 . S
C487 O474 1.258 . S
C487 O475 1.242 . S
H488 C460 0.930 . S
H489 C461 0.930 . S
H490 C462 0.930 . S
H491 C463 0.931 . S
H492 C481 0.930 . S
H493 C482 0.930 . S
H494 C483 0.930 . S
H495 C484 0.931 . S
Eu496 C505 2.828 . S
Eu496 O507 2.392 . S
Eu496 O509 2.418 . S
Eu496 O514 2.373 . S
Eu496 O517 2.488 . S
Eu496 O518 2.471 . S
Eu496 O519 2.349 . S
Eu497 O506 2.373 . S
Eu497 O510 2.488 1_545 S
Eu497 O511 2.471 1_545 S
Eu497 O512 2.349 . S
Eu497 O515 2.392 . S
Eu497 O516 2.418 . S
Eu497 C526 2.828 1_545 S
C498 O516 1.244 . S
C498 O519 1.265 . S
C499 C500 1.379 . S
C499 C503 1.373 . S
C499 C505 1.505 . S
C500 C499 1.379 . S
C500 C502 1.369 . S
C500 H528 0.930 . S
C501 C503 1.383 . S
C501 C504 1.382 . S
C501 H529 0.930 . S
C502 C500 1.369 . S
C502 C504 1.392 . S
C502 H530 0.930 . S
C503 C499 1.373 . S
C503 C501 1.383 . S
C503 H531 0.931 . S
C504 C501 1.382 . S
C504 C502 1.392 . S
C505 Eu496 2.828 . S
C505 C499 1.505 . S
C505 O517 1.249 . S
C505 O518 1.244 . S
O506 Eu497 2.373 . S
O506 C508 1.258 . S
O507 Eu496 2.392 . S
O507 C508 1.242 . S
C508 O506 1.258 . S
C508 O507 1.242 . S
O509 Eu496 2.418 . S
O509 C513 1.244 . S
O510 Eu497 2.488 1_565 S
O510 C526 1.249 . S
O511 Eu497 2.471 1_565 S
O511 C526 1.244 . S
O512 Eu497 2.349 . S
O512 C513 1.265 . S
C513 O509 1.244 . S
C513 O512 1.265 . S
O514 Eu496 2.373 . S
O514 C527 1.258 . S
O515 Eu497 2.392 . S
O515 C527 1.242 . S
O516 Eu497 2.418 . S
O516 C498 1.244 . S
O517 Eu496 2.488 . S
O517 C505 1.249 . S
O518 Eu496 2.471 . S
O518 C505 1.244 . S
O519 Eu496 2.349 . S
O519 C498 1.265 . S
C520 C521 1.379 . S
C520 C524 1.373 . S
C520 C526 1.505 . S
C521 C520 1.379 . S
C521 C523 1.369 . S
C521 H532 0.930 . S
C522 C524 1.383 . S
C522 C525 1.382 . S
C522 H533 0.930 . S
C523 C521 1.369 . S
C523 C525 1.392 . S
C523 H534 0.930 . S
C524 C520 1.373 . S
C524 C522 1.383 . S
C524 H535 0.931 . S
C525 C522 1.382 . S
C525 C523 1.392 . S
C526 Eu497 2.828 1_565 S
C526 O510 1.249 . S
C526 O511 1.244 . S
C526 C520 1.505 . S
C527 O514 1.258 . S
C527 O515 1.242 . S
H528 C500 0.930 . S
H529 C501 0.930 . S
H530 C502 0.930 . S
H531 C503 0.931 . S
H532 C521 0.930 . S
H533 C522 0.930 . S
H534 C523 0.930 . S
H535 C524 0.931 . S
Eu536 C545 2.828 . S
Eu536 O547 2.392 . S
Eu536 O549 2.418 . S
Eu536 O554 2.373 . S
Eu536 O557 2.488 . S
Eu536 O558 2.471 . S
Eu536 O559 2.349 . S
Eu537 O546 2.373 . S
Eu537 O550 2.488 . S
Eu537 O551 2.471 . S
Eu537 O552 2.349 . S
Eu537 O555 2.392 . S
Eu537 O556 2.418 . S
Eu537 C566 2.828 . S
C538 O556 1.244 . S
C538 O559 1.265 . S
C539 C540 1.379 . S
C539 C543 1.373 . S
C539 C545 1.505 . S
C540 C539 1.379 . S
C540 C542 1.369 . S
C540 H568 0.930 . S
C541 C543 1.383 . S
C541 C544 1.382 . S
C541 H569 0.930 . S
C542 C540 1.369 . S
C542 C544 1.392 . S
C542 H570 0.930 . S
C543 C539 1.373 . S
C543 C541 1.383 . S
C543 H571 0.931 . S
C544 C541 1.382 . S
C544 C542 1.392 . S
C545 Eu536 2.828 . S
C545 C539 1.505 . S
C545 O557 1.249 . S
C545 O558 1.244 . S
O546 Eu537 2.373 . S
O546 C548 1.258 . S
O547 Eu536 2.392 . S
O547 C548 1.242 . S
C548 O546 1.258 . S
C548 O547 1.242 . S
O549 Eu536 2.418 . S
O549 C553 1.244 . S
O550 Eu537 2.488 . S
O550 C566 1.249 . S
O551 Eu537 2.471 . S
O551 C566 1.244 . S
O552 Eu537 2.349 . S
O552 C553 1.265 . S
C553 O549 1.244 . S
C553 O552 1.265 . S
O554 Eu536 2.373 . S
O554 C567 1.258 . S
O555 Eu537 2.392 . S
O555 C567 1.242 . S
O556 Eu537 2.418 . S
O556 C538 1.244 . S
O557 Eu536 2.488 . S
O557 C545 1.249 . S
O558 Eu536 2.471 . S
O558 C545 1.244 . S
O559 Eu536 2.349 . S
O559 C538 1.265 . S
C560 C561 1.379 . S
C560 C564 1.373 . S
C560 C566 1.505 . S
C561 C560 1.379 . S
C561 C563 1.369 . S
C561 H572 0.930 . S
C562 C564 1.383 . S
C562 C565 1.382 . S
C562 H573 0.930 . S
C563 C561 1.369 . S
C563 C565 1.392 . S
C563 H574 0.930 . S
C564 C560 1.373 . S
C564 C562 1.383 . S
C564 H575 0.931 . S
C565 C562 1.382 . S
C565 C563 1.392 . S
C566 Eu537 2.828 . S
C566 O550 1.249 . S
C566 O551 1.244 . S
C566 C560 1.505 . S
C567 O554 1.258 . S
C567 O555 1.242 . S
H568 C540 0.930 . S
H569 C541 0.930 . S
H570 C542 0.930 . S
H571 C543 0.931 . S
H572 C561 0.930 . S
H573 C562 0.930 . S
H574 C563 0.930 . S
H575 C564 0.931 . S
Eu576 C585 2.828 . S
Eu576 O587 2.392 . S
Eu576 O589 2.418 1_545 S
Eu576 O594 2.373 . S
Eu576 O597 2.488 . S
Eu576 O598 2.471 . S
Eu576 O599 2.349 . S
Eu577 O586 2.373 1_556 S
Eu577 O590 2.488 . S
Eu577 O591 2.471 . S
Eu577 O592 2.349 1_556 S
Eu577 O595 2.392 1_556 S
Eu577 O596 2.418 1_556 S
Eu577 C606 2.828 . S
C578 O596 1.244 . S
C578 O599 1.265 . S
C579 C580 1.379 . S
C579 C583 1.373 1_545 S
C579 C585 1.505 . S
C580 C579 1.379 . S
C580 C582 1.369 . S
C580 H608 0.930 . S
C581 C583 1.383 . S
C581 C584 1.382 . S
C581 H609 0.930 . S
C582 C580 1.369 . S
C582 C584 1.392 1_545 S
C582 H610 0.930 . S
C583 C579 1.373 1_565 S
C583 C581 1.383 . S
C583 H611 0.931 . S
C584 C581 1.382 . S
C584 C582 1.392 1_565 S
C585 Eu576 2.828 . S
C585 C579 1.505 . S
C585 O597 1.249 . S
C585 O598 1.244 . S
O586 Eu577 2.373 1_554 S
O586 C588 1.258 . S
O587 Eu576 2.392 . S
O587 C588 1.242 . S
C588 O586 1.258 . S
C588 O587 1.242 . S
O589 Eu576 2.418 1_565 S
O589 C593 1.248 . S
O590 Eu577 2.488 . S
O590 C606 1.249 . S
O591 Eu577 2.471 . S
O591 C606 1.244 . S
O592 Eu577 2.349 1_554 S
O592 C593 1.255 1_545 S
C593 O589 1.248 . S
C593 O592 1.255 1_565 S
O594 Eu576 2.373 . S
O594 C607 1.258 . S
O595 Eu577 2.392 1_554 S
O595 C607 1.242 . S
O596 Eu577 2.418 1_554 S
O596 C578 1.244 . S
O597 Eu576 2.488 . S
O597 C585 1.249 . S
O598 Eu576 2.471 . S
O598 C585 1.244 . S
O599 Eu576 2.349 . S
O599 C578 1.265 . S
C600 C601 1.379 . S
C600 C604 1.373 . S
C600 C606 1.505 . S
C601 C600 1.379 . S
C601 C603 1.369 . S
C601 H612 0.930 . S
C602 C604 1.383 . S
C602 C605 1.382 . S
C602 H613 0.930 . S
C603 C601 1.369 . S
C603 C605 1.392 . S
C603 H614 0.930 . S
C604 C600 1.373 . S
C604 C602 1.383 . S
C604 H615 0.931 . S
C605 C602 1.382 . S
C605 C603 1.392 . S
C606 Eu577 2.828 . S
C606 O590 1.249 . S
C606 O591 1.244 . S
C606 C600 1.505 . S
C607 O594 1.258 . S
C607 O595 1.242 . S
H608 C580 0.930 . S
H609 C581 0.930 . S
H610 C582 0.930 . S
H611 C583 0.931 . S
H612 C601 0.930 . S
H613 C602 0.930 . S
H614 C603 0.930 . S
H615 C604 0.931 . S
Eu616 C625 2.828 . S
Eu616 O627 2.392 . S
Eu616 O629 2.418 . S
Eu616 O634 2.373 . S
Eu616 O637 2.488 . S
Eu616 O638 2.471 . S
Eu616 O639 2.349 . S
Eu617 O626 2.373 . S
Eu617 O630 2.488 . S
Eu617 O631 2.471 . S
Eu617 O632 2.349 . S
Eu617 O635 2.392 . S
Eu617 O636 2.418 . S
Eu617 C646 2.828 . S
C618 O636 1.244 . S
C618 O639 1.265 . S
C619 C620 1.379 . S
C619 C623 1.373 . S
C619 C625 1.505 . S
C620 C619 1.379 . S
C620 C622 1.369 . S
C620 H648 0.930 . S
C621 C623 1.383 . S
C621 C624 1.382 . S
C621 H649 0.930 . S
C622 C620 1.369 . S
C622 C624 1.392 . S
C622 H650 0.930 . S
C623 C619 1.373 . S
C623 C621 1.383 . S
C623 H651 0.931 . S
C624 C621 1.382 . S
C624 C622 1.392 . S
C625 Eu616 2.828 . S
C625 C619 1.505 . S
C625 O637 1.249 . S
C625 O638 1.244 . S
O626 Eu617 2.373 . S
O626 C628 1.258 . S
O627 Eu616 2.392 . S
O627 C628 1.242 . S
C628 O626 1.258 . S
C628 O627 1.242 . S
O629 Eu616 2.418 . S
O629 C633 1.244 . S
O630 Eu617 2.488 . S
O630 C646 1.249 . S
O631 Eu617 2.471 . S
O631 C646 1.244 . S
O632 Eu617 2.349 . S
O632 C633 1.265 . S
C633 O629 1.244 . S
C633 O632 1.265 . S
O634 Eu616 2.373 . S
O634 C647 1.258 . S
O635 Eu617 2.392 . S
O635 C647 1.242 . S
O636 Eu617 2.418 . S
O636 C618 1.244 . S
O637 Eu616 2.488 . S
O637 C625 1.249 . S
O638 Eu616 2.471 . S
O638 C625 1.244 . S
O639 Eu616 2.349 . S
O639 C618 1.265 . S
C640 C641 1.379 . S
C640 C644 1.373 . S
C640 C646 1.505 . S
C641 C640 1.379 . S
C641 C643 1.369 . S
C641 H652 0.930 . S
C642 C644 1.383 . S
C642 C645 1.382 . S
C642 H653 0.930 . S
C643 C641 1.369 . S
C643 C645 1.392 . S
C643 H654 0.930 . S
C644 C640 1.373 . S
C644 C642 1.383 . S
C644 H655 0.931 . S
C645 C642 1.382 . S
C645 C643 1.392 . S
C646 Eu617 2.828 . S
C646 O630 1.249 . S
C646 O631 1.244 . S
C646 C640 1.505 . S
C647 O634 1.258 . S
C647 O635 1.242 . S
H648 C620 0.930 . S
H649 C621 0.930 . S
H650 C622 0.930 . S
H651 C623 0.931 . S
H652 C641 0.930 . S
H653 C642 0.930 . S
H654 C643 0.930 . S
H655 C644 0.931 . S
Eu656 C665 2.828 . S
Eu656 O667 2.392 . S
Eu656 O669 2.418 . S
Eu656 O674 2.373 1_554 S
Eu656 O677 2.488 . S
Eu656 O678 2.471 . S
Eu656 O679 2.349 . S
Eu657 O666 2.373 . S
Eu657 O670 2.488 . S
Eu657 O671 2.471 . S
Eu657 O672 2.349 . S
Eu657 O675 2.392 1_554 S
Eu657 O676 2.418 . S
Eu657 C686 2.828 . S
C658 O676 1.244 . S
C658 O679 1.265 . S
C659 C660 1.379 . S
C659 C663 1.373 . S
C659 C665 1.505 . S
C660 C659 1.379 . S
C660 C662 1.369 1_554 S
C660 H688 0.930 1_554 S
C661 C663 1.383 . S
C661 C664 1.382 . S
C661 H689 0.930 . S
C662 C660 1.369 1_556 S
C662 C664 1.392 1_556 S
C662 H690 0.930 . S
C663 C659 1.373 . S
C663 C661 1.383 . S
C663 H691 0.931 . S
C664 C661 1.382 . S
C664 C662 1.392 1_554 S
C665 Eu656 2.828 . S
C665 C659 1.505 . S
C665 O677 1.249 . S
C665 O678 1.244 . S
O666 Eu657 2.373 . S
O666 C668 1.258 . S
O667 Eu656 2.392 . S
O667 C668 1.242 . S
C668 O666 1.258 . S
C668 O667 1.242 . S
O669 Eu656 2.418 . S
O669 C673 1.244 . S
O670 Eu657 2.488 . S
O670 C686 1.249 . S
O671 Eu657 2.471 . S
O671 C686 1.244 . S
O672 Eu657 2.349 . S
O672 C673 1.265 . S
C673 O669 1.244 . S
C673 O672 1.265 . S
O674 Eu656 2.373 1_556 S
O674 C687 1.258 . S
O675 Eu657 2.392 1_556 S
O675 C687 1.242 . S
O676 Eu657 2.418 . S
O676 C658 1.244 . S
O677 Eu656 2.488 . S
O677 C665 1.249 . S
O678 Eu656 2.471 . S
O678 C665 1.244 . S
O679 Eu656 2.349 . S
O679 C658 1.265 . S
C680 C681 1.379 . S
C680 C684 1.373 . S
C680 C686 1.505 . S
C681 C680 1.379 . S
C681 C683 1.369 . S
C681 H692 0.930 . S
C682 C684 1.383 . S
C682 C685 1.382 . S
C682 H693 0.930 . S
C683 C681 1.369 . S
C683 C685 1.392 . S
C683 H694 0.930 . S
C684 C680 1.373 . S
C684 C682 1.383 . S
C684 H695 0.931 . S
C685 C682 1.382 . S
C685 C683 1.392 . S
C686 Eu657 2.828 . S
C686 O670 1.249 . S
C686 O671 1.244 . S
C686 C680 1.505 . S
C687 O674 1.258 . S
C687 O675 1.242 . S
H688 C660 0.930 1_556 S
H689 C661 0.930 . S
H690 C662 0.930 . S
H691 C663 0.931 . S
H692 C681 0.930 . S
H693 C682 0.930 . S
H694 C683 0.930 . S
H695 C684 0.931 . S
Eu696 C705 2.828 1_655 S
Eu696 O707 2.392 . S
Eu696 O709 2.418 . S
Eu696 O714 2.373 . S
Eu696 O717 2.488 . S
Eu696 O718 2.471 . S
Eu696 O719 2.349 . S
Eu697 O706 2.373 . S
Eu697 O710 2.488 . S
Eu697 O711 2.471 . S
Eu697 O712 2.349 . S
Eu697 O715 2.392 . S
Eu697 O716 2.418 . S
Eu697 C726 2.828 . S
C698 O716 1.244 . S
C698 O719 1.265 . S
C699 C700 1.379 . S
C699 C703 1.373 . S
C699 C705 1.505 . S
C700 C699 1.379 . S
C700 C702 1.369 . S
C700 H728 0.930 . S
C701 C703 1.383 . S
C701 C704 1.382 . S
C701 H729 0.930 . S
C702 C700 1.369 . S
C702 C704 1.392 . S
C702 H730 0.930 . S
C703 C699 1.373 . S
C703 C701 1.383 . S
C703 H731 0.931 . S
C704 C701 1.382 . S
C704 C702 1.392 . S
C705 Eu696 2.828 1_455 S
C705 C699 1.505 . S
C705 O717 1.249 1_455 S
C705 O718 1.244 1_455 S
O706 Eu697 2.373 . S
O706 C708 1.258 . S
O707 Eu696 2.392 . S
O707 C708 1.242 . S
C708 O706 1.258 . S
C708 O707 1.242 . S
O709 Eu696 2.418 . S
O709 C713 1.244 . S
O710 Eu697 2.488 . S
O710 C726 1.249 . S
O711 Eu697 2.471 . S
O711 C726 1.244 . S
O712 Eu697 2.349 . S
O712 C713 1.265 . S
C713 O709 1.244 . S
C713 O712 1.265 . S
O714 Eu696 2.373 . S
O714 C727 1.258 . S
O715 Eu697 2.392 . S
O715 C727 1.242 . S
O716 Eu697 2.418 . S
O716 C698 1.244 . S
O717 Eu696 2.488 . S
O717 C705 1.249 1_655 S
O718 Eu696 2.471 . S
O718 C705 1.244 1_655 S
O719 Eu696 2.349 . S
O719 C698 1.265 . S
C720 C721 1.379 . S
C720 C724 1.373 . S
C720 C726 1.505 . S
C721 C720 1.379 . S
C721 C723 1.369 . S
C721 H732 0.930 . S
C722 C724 1.383 . S
C722 C725 1.382 . S
C722 H733 0.930 . S
C723 C721 1.369 . S
C723 C725 1.392 . S
C723 H734 0.930 . S
C724 C720 1.373 . S
C724 C722 1.383 . S
C724 H735 0.931 . S
C725 C722 1.382 . S
C725 C723 1.392 . S
C726 Eu697 2.828 . S
C726 O710 1.249 . S
C726 O711 1.244 . S
C726 C720 1.505 . S
C727 O714 1.258 . S
C727 O715 1.242 . S
H728 C700 0.930 . S
H729 C701 0.930 . S
H730 C702 0.930 . S
H731 C703 0.931 . S
H732 C721 0.930 . S
H733 C722 0.930 . S
H734 C723 0.930 . S
H735 C724 0.931 . S
Eu736 C745 2.828 . S
Eu736 O747 2.392 . S
Eu736 O749 2.418 . S
Eu736 O754 2.373 . S
Eu736 O757 2.488 . S
Eu736 O758 2.471 . S
Eu736 O759 2.349 . S
Eu737 O746 2.373 . S
Eu737 O750 2.488 . S
Eu737 O751 2.471 . S
Eu737 O752 2.349 . S
Eu737 O755 2.392 . S
Eu737 O756 2.418 . S
Eu737 C766 2.828 . S
C738 O756 1.244 . S
C738 O759 1.265 . S
C739 C740 1.379 . S
C739 C743 1.373 . S
C739 C745 1.505 . S
C740 C739 1.379 . S
C740 C742 1.369 1_455 S
C740 H768 0.930 . S
C741 C743 1.383 . S
C741 C744 1.382 . S
C741 H769 0.930 . S
C742 C740 1.369 1_655 S
C742 C744 1.392 1_655 S
C742 H770 0.930 . S
C743 C739 1.373 . S
C743 C741 1.383 . S
C743 H771 0.931 . S
C744 C741 1.382 . S
C744 C742 1.392 1_455 S
C745 Eu736 2.828 . S
C745 C739 1.505 . S
C745 O757 1.249 . S
C745 O758 1.244 . S
O746 Eu737 2.373 . S
O746 C748 1.258 . S
O747 Eu736 2.392 . S
O747 C748 1.242 . S
C748 O746 1.258 . S
C748 O747 1.242 . S
O749 Eu736 2.418 . S
O749 C753 1.244 . S
O750 Eu737 2.488 . S
O750 C766 1.249 . S
O751 Eu737 2.471 . S
O751 C766 1.244 . S
O752 Eu737 2.349 . S
O752 C753 1.265 . S
C753 O749 1.244 . S
C753 O752 1.265 . S
O754 Eu736 2.373 . S
O754 C767 1.258 . S
O755 Eu737 2.392 . S
O755 C767 1.242 . S
O756 Eu737 2.418 . S
O756 C738 1.244 . S
O757 Eu736 2.488 . S
O757 C745 1.249 . S
O758 Eu736 2.471 . S
O758 C745 1.244 . S
O759 Eu736 2.349 . S
O759 C738 1.265 . S
C760 C761 1.379 . S
C760 C764 1.373 . S
C760 C766 1.505 . S
C761 C760 1.379 . S
C761 C763 1.369 . S
C761 H772 0.930 . S
C762 C764 1.383 . S
C762 C765 1.382 . S
C762 H773 0.930 . S
C763 C761 1.369 . S
C763 C765 1.392 . S
C763 H774 0.930 . S
C764 C760 1.373 . S
C764 C762 1.383 . S
C764 H775 0.931 . S
C765 C762 1.382 . S
C765 C763 1.392 . S
C766 Eu737 2.828 . S
C766 O750 1.249 . S
C766 O751 1.244 . S
C766 C760 1.505 . S
C767 O754 1.258 . S
C767 O755 1.242 . S
H768 C740 0.930 . S
H769 C741 0.930 . S
H770 C742 0.930 . S
H771 C743 0.931 . S
H772 C761 0.930 . S
H773 C762 0.930 . S
H774 C763 0.930 . S
H775 C764 0.931 . S
Eu776 C785 2.828 . S
Eu776 O787 2.392 . S
Eu776 O789 2.418 . S
Eu776 O794 2.373 . S
Eu776 O797 2.488 . S
Eu776 O798 2.471 . S
Eu776 O799 2.349 . S
Eu777 O786 2.373 . S
Eu777 O790 2.488 . S
Eu777 O791 2.471 . S
Eu777 O792 2.349 . S
Eu777 O795 2.392 . S
Eu777 O796 2.418 . S
Eu777 C806 2.828 . S
C778 O796 1.244 . S
C778 O799 1.265 . S
C779 C780 1.379 . S
C779 C783 1.373 . S
C779 C785 1.505 . S
C780 C779 1.379 . S
C780 C782 1.369 . S
C780 H808 0.930 . S
C781 C783 1.383 . S
C781 C784 1.382 . S
C781 H809 0.930 . S
C782 C780 1.369 . S
C782 C784 1.392 . S
C782 H810 0.930 . S
C783 C779 1.373 . S
C783 C781 1.383 . S
C783 H811 0.931 . S
C784 C781 1.382 . S
C784 C782 1.392 . S
C785 Eu776 2.828 . S
C785 C779 1.505 . S
C785 O797 1.249 . S
C785 O798 1.244 . S
O786 Eu777 2.373 . S
O786 C788 1.258 . S
O787 Eu776 2.392 . S
O787 C788 1.242 . S
C788 O786 1.258 . S
C788 O787 1.242 . S
O789 Eu776 2.418 . S
O789 C793 1.244 . S
O790 Eu777 2.488 . S
O790 C806 1.249 . S
O791 Eu777 2.471 . S
O791 C806 1.244 . S
O792 Eu777 2.349 . S
O792 C793 1.265 . S
C793 O789 1.244 . S
C793 O792 1.265 . S
O794 Eu776 2.373 . S
O794 C807 1.258 . S
O795 Eu777 2.392 . S
O795 C807 1.242 . S
O796 Eu777 2.418 . S
O796 C778 1.244 . S
O797 Eu776 2.488 . S
O797 C785 1.249 . S
O798 Eu776 2.471 . S
O798 C785 1.244 . S
O799 Eu776 2.349 . S
O799 C778 1.265 . S
C800 C801 1.379 . S
C800 C804 1.373 . S
C800 C806 1.505 1_455 S
C801 C800 1.379 . S
C801 C803 1.369 . S
C801 H812 0.930 . S
C802 C804 1.383 . S
C802 C805 1.382 . S
C802 H813 0.930 . S
C803 C801 1.369 . S
C803 C805 1.392 . S
C803 H814 0.930 . S
C804 C800 1.373 . S
C804 C802 1.383 . S
C804 H815 0.931 . S
C805 C802 1.382 . S
C805 C803 1.392 . S
C806 Eu777 2.828 . S
C806 O790 1.249 . S
C806 O791 1.244 . S
C806 C800 1.505 1_655 S
C807 O794 1.258 . S
C807 O795 1.242 . S
H808 C780 0.930 . S
H809 C781 0.930 . S
H810 C782 0.930 . S
H811 C783 0.931 . S
H812 C801 0.930 . S
H813 C802 0.930 . S
H814 C803 0.930 . S
H815 C804 0.931 . S
Eu816 C825 2.828 . S
Eu816 O827 2.392 . S
Eu816 O829 2.418 . S
Eu816 O834 2.373 . S
Eu816 O837 2.488 . S
Eu816 O838 2.471 . S
Eu816 O839 2.349 . S
Eu817 O826 2.373 . S
Eu817 O830 2.488 . S
Eu817 O831 2.471 . S
Eu817 O832 2.349 . S
Eu817 O835 2.392 . S
Eu817 O836 2.418 . S
Eu817 C846 2.828 . S
C818 O836 1.244 . S
C818 O839 1.265 . S
C819 C820 1.379 . S
C819 C823 1.373 . S
C819 C825 1.505 . S
C820 C819 1.379 . S
C820 C822 1.369 . S
C820 H848 0.930 . S
C821 C823 1.383 . S
C821 C824 1.382 . S
C821 H849 0.912 1_655 S
C822 C820 1.369 . S
C822 C824 1.392 . S
C822 H850 0.930 . S
C823 C819 1.373 . S
C823 C821 1.383 . S
C823 H851 0.931 . S
C824 C821 1.382 . S
C824 C822 1.392 . S
C825 Eu816 2.828 . S
C825 C819 1.505 . S
C825 O837 1.249 . S
C825 O838 1.244 . S
O826 Eu817 2.373 . S
O826 C828 1.258 . S
O827 Eu816 2.392 . S
O827 C828 1.242 . S
C828 O826 1.258 . S
C828 O827 1.242 . S
O829 Eu816 2.418 . S
O829 C833 1.244 . S
O830 Eu817 2.488 . S
O830 C846 1.249 . S
O831 Eu817 2.471 . S
O831 C846 1.244 . S
O832 Eu817 2.349 . S
O832 C833 1.265 . S
C833 O829 1.244 . S
C833 O832 1.265 . S
O834 Eu816 2.373 . S
O834 C847 1.258 . S
O835 Eu817 2.392 . S
O835 C847 1.242 . S
O836 Eu817 2.418 . S
O836 C818 1.244 . S
O837 Eu816 2.488 . S
O837 C825 1.249 . S
O838 Eu816 2.471 . S
O838 C825 1.244 . S
O839 Eu816 2.349 . S
O839 C818 1.265 . S
C840 C841 1.379 . S
C840 C844 1.373 . S
C840 C846 1.505 . S
C841 C840 1.379 . S
C841 C843 1.369 . S
C841 H852 0.930 . S
C842 C844 1.383 . S
C842 C845 1.382 . S
C842 H853 0.930 . S
C843 C841 1.369 . S
C843 C845 1.392 . S
C843 H854 0.930 . S
C844 C840 1.373 . S
C844 C842 1.383 . S
C844 H855 0.931 . S
C845 C842 1.382 . S
C845 C843 1.392 . S
C846 Eu817 2.828 . S
C846 O830 1.249 . S
C846 O831 1.244 . S
C846 C840 1.505 . S
C847 O834 1.258 . S
C847 O835 1.242 . S
H848 C820 0.930 . S
H849 C821 0.912 1_455 S
H850 C822 0.930 . S
H851 C823 0.931 . S
H852 C841 0.930 . S
H853 C842 0.930 . S
H854 C843 0.930 . S
H855 C844 0.931 . S
Eu856 C865 2.828 . S
Eu856 O867 2.392 . S
Eu856 O869 2.418 . S
Eu856 O874 2.373 . S
Eu856 O877 2.488 . S
Eu856 O878 2.471 . S
Eu856 O879 2.349 . S
Eu857 O866 2.373 . S
Eu857 O870 2.488 . S
Eu857 O871 2.471 . S
Eu857 O872 2.349 . S
Eu857 O875 2.392 . S
Eu857 O876 2.418 . S
Eu857 C886 2.828 . S
C858 O876 1.244 . S
C858 O879 1.265 . S
C859 C860 1.379 . S
C859 C863 1.373 . S
C859 C865 1.505 1_545 S
C860 C859 1.379 . S
C860 C862 1.369 . S
C860 H888 0.930 1_545 S
C861 C863 1.383 . S
C861 C864 1.382 . S
C861 H889 0.930 . S
C862 C860 1.369 . S
C862 C864 1.392 . S
C862 H890 0.930 . S
C863 C859 1.373 . S
C863 C861 1.383 . S
C863 H891 0.931 . S
C864 C861 1.382 . S
C864 C862 1.392 . S
C865 Eu856 2.828 . S
C865 C859 1.505 1_565 S
C865 O877 1.249 . S
C865 O878 1.244 . S
O866 Eu857 2.373 . S
O866 C868 1.258 . S
O867 Eu856 2.392 . S
O867 C868 1.242 . S
C868 O866 1.258 . S
C868 O867 1.242 . S
O869 Eu856 2.418 . S
O869 C873 1.244 . S
O870 Eu857 2.488 . S
O870 C886 1.249 . S
O871 Eu857 2.471 . S
O871 C886 1.244 . S
O872 Eu857 2.349 . S
O872 C873 1.265 . S
C873 O869 1.244 . S
C873 O872 1.265 . S
O874 Eu856 2.373 . S
O874 C887 1.258 . S
O875 Eu857 2.392 . S
O875 C887 1.242 . S
O876 Eu857 2.418 . S
O876 C858 1.244 . S
O877 Eu856 2.488 . S
O877 C865 1.249 . S
O878 Eu856 2.471 . S
O878 C865 1.244 . S
O879 Eu856 2.349 . S
O879 C858 1.265 . S
C880 C881 1.379 . S
C880 C884 1.373 . S
C880 C886 1.505 . S
C881 C880 1.379 . S
C881 C883 1.369 . S
C881 H892 0.930 . S
C882 C884 1.383 . S
C882 C885 1.382 . S
C882 H893 0.930 . S
C883 C881 1.369 . S
C883 C885 1.392 . S
C883 H894 0.930 . S
C884 C880 1.373 . S
C884 C882 1.383 . S
C884 H895 0.931 . S
C885 C882 1.382 . S
C885 C883 1.392 . S
C886 Eu857 2.828 . S
C886 O870 1.249 . S
C886 O871 1.244 . S
C886 C880 1.505 . S
C887 O874 1.258 . S
C887 O875 1.242 . S
H888 C860 0.930 1_565 S
H889 C861 0.930 . S
H890 C862 0.930 . S
H891 C863 0.931 . S
H892 C881 0.930 . S
H893 C882 0.930 . S
H894 C883 0.930 . S
H895 C884 0.931 . S
Eu896 C905 2.828 . S
Eu896 O907 2.392 . S
Eu896 O909 2.418 . S
Eu896 O914 2.373 . S
Eu896 O917 2.488 . S
Eu896 O918 2.471 . S
Eu896 O919 2.349 . S
Eu897 O906 2.373 . S
Eu897 O910 2.488 . S
Eu897 O911 2.471 . S
Eu897 O912 2.349 . S
Eu897 O915 2.392 . S
Eu897 O916 2.418 . S
Eu897 C926 2.828 . S
C898 O916 1.244 . S
C898 O919 1.265 . S
C899 C900 1.379 . S
C899 C903 1.373 . S
C899 C905 1.505 . S
C900 C899 1.379 . S
C900 C902 1.369 . S
C900 H928 0.930 . S
C901 C903 1.383 . S
C901 C904 1.382 . S
C901 H929 0.930 . S
C902 C900 1.369 . S
C902 C904 1.392 . S
C902 H930 0.930 . S
C903 C899 1.373 . S
C903 C901 1.383 . S
C903 H931 0.931 . S
C904 C901 1.382 . S
C904 C902 1.392 . S
C905 Eu896 2.828 . S
C905 C899 1.505 . S
C905 O917 1.249 . S
C905 O918 1.244 . S
O906 Eu897 2.373 . S
O906 C908 1.258 . S
O907 Eu896 2.392 . S
O907 C908 1.242 . S
C908 O906 1.258 . S
C908 O907 1.242 . S
O909 Eu896 2.418 . S
O909 C913 1.244 . S
O910 Eu897 2.488 . S
O910 C926 1.249 . S
O911 Eu897 2.471 . S
O911 C926 1.244 . S
O912 Eu897 2.349 . S
O912 C913 1.265 . S
C913 O909 1.244 . S
C913 O912 1.265 . S
O914 Eu896 2.373 . S
O914 C927 1.258 . S
O915 Eu897 2.392 . S
O915 C927 1.242 . S
O916 Eu897 2.418 . S
O916 C898 1.244 . S
O917 Eu896 2.488 . S
O917 C905 1.249 . S
O918 Eu896 2.471 . S
O918 C905 1.244 . S
O919 Eu896 2.349 . S
O919 C898 1.265 . S
C920 C921 1.379 . S
C920 C924 1.373 . S
C920 C926 1.505 . S
C921 C920 1.379 . S
C921 C923 1.369 . S
C921 H932 0.930 . S
C922 C924 1.383 . S
C922 C925 1.382 . S
C922 H933 0.930 . S
C923 C921 1.369 . S
C923 C925 1.392 . S
C923 H934 0.930 . S
C924 C920 1.373 . S
C924 C922 1.383 . S
C924 H935 0.931 . S
C925 C922 1.382 . S
C925 C923 1.392 . S
C926 Eu897 2.828 . S
C926 O910 1.249 . S
C926 O911 1.244 . S
C926 C920 1.505 . S
C927 O914 1.258 . S
C927 O915 1.242 . S
H928 C900 0.930 . S
H929 C901 0.930 . S
H930 C902 0.930 . S
H931 C903 0.931 . S
H932 C921 0.930 . S
H933 C922 0.930 . S
H934 C923 0.930 . S
H935 C924 0.931 . S
Eu936 C945 2.828 . S
Eu936 O947 2.392 . S
Eu936 O949 2.418 1_554 S
Eu936 O954 2.373 . S
Eu936 O957 2.488 . S
Eu936 O958 2.471 . S
Eu936 O959 2.349 . S
Eu937 O946 2.373 . S
Eu937 O950 2.488 . S
Eu937 O951 2.471 . S
Eu937 O952 2.349 . S
Eu937 O955 2.392 . S
Eu937 O956 2.418 . S
Eu937 C966 2.828 . S
C938 O956 1.244 . S
C938 O959 1.265 . S
C939 C940 1.379 . S
C939 C943 1.373 1_554 S
C939 C945 1.505 . S
C940 C939 1.379 . S
C940 C942 1.369 . S
C940 H968 0.930 . S
C941 C943 1.383 . S
C941 C944 1.382 1_556 S
C941 H969 0.930 . S
C942 C940 1.369 . S
C942 C944 1.392 . S
C942 H970 0.930 . S
C943 C939 1.373 1_556 S
C943 C941 1.383 . S
C943 H971 0.931 . S
C944 C941 1.382 1_554 S
C944 C942 1.392 . S
C945 Eu936 2.828 . S
C945 C939 1.505 . S
C945 O957 1.249 . S
C945 O958 1.244 . S
O946 Eu937 2.373 . S
O946 C948 1.258 . S
O947 Eu936 2.392 . S
O947 C948 1.242 . S
C948 O946 1.258 . S
C948 O947 1.242 . S
O949 Eu936 2.418 1_556 S
O949 C953 1.244 . S
O950 Eu937 2.488 . S
O950 C966 1.249 . S
O951 Eu937 2.471 . S
O951 C966 1.244 . S
O952 Eu937 2.349 . S
O952 C953 1.265 1_554 S
C953 O949 1.244 . S
C953 O952 1.265 1_556 S
O954 Eu936 2.373 . S
O954 C967 1.258 . S
O955 Eu937 2.392 . S
O955 C967 1.242 . S
O956 Eu937 2.418 . S
O956 C938 1.244 . S
O957 Eu936 2.488 . S
O957 C945 1.249 . S
O958 Eu936 2.471 . S
O958 C945 1.244 . S
O959 Eu936 2.349 . S
O959 C938 1.265 . S
C960 C961 1.379 . S
C960 C964 1.373 . S
C960 C966 1.505 1_655 S
C961 C960 1.379 . S
C961 C963 1.369 . S
C961 H972 0.930 . S
C962 C964 1.383 . S
C962 C965 1.382 . S
C962 H973 0.930 . S
C963 C961 1.369 . S
C963 C965 1.392 . S
C963 H974 0.930 . S
C964 C960 1.373 . S
C964 C962 1.383 . S
C964 H975 0.931 . S
C965 C962 1.382 . S
C965 C963 1.392 . S
C966 Eu937 2.828 . S
C966 O950 1.249 . S
C966 O951 1.244 . S
C966 C960 1.505 1_455 S
C967 O954 1.258 . S
C967 O955 1.242 . S
H968 C940 0.930 . S
H969 C941 0.930 . S
H970 C942 0.930 . S
H971 C943 0.931 . S
H972 C961 0.930 . S
H973 C962 0.930 . S
H974 C963 0.930 . S
H975 C964 0.931 . S
C106 C344 2.342 1_556 S
C65 C378 2.930 . S
C79 C447 2.226 . S
C485 C90 1.701 . S
C21 C525 3.404 . S
C544 C35 1.357 . S
C578 C50 3.416 . S
C6 C647 3.567 . S
C353 C232 4.335 . S
C245 C405 2.681 . S
C418 C274 2.575 . S
C487 C175 2.333 . S
C231 C527 2.387 . S
C553 C246 3.381 . S
C605 C273 1.191 . S
C618 C176 4.280 . S
C348 C160 3.407 . S
C289 C658 3.705 . S
C708 C328 4.028 . S
C767 C317 2.549 1_455 S
C118 C645 4.532 . S
C132 C445 2.884 . S
C331 C778 3.511 . S
C847 C303 2.188 . S
C365 C63 1.854 . S
C833 C107 2.883 . S
C92 C428 1.090 . S
C78 C784 1.538 . S
C504 C8 3.691 . S
C51 C725 0.901 . S
C593 C37 3.941 1_564 S
C868 C20 3.504 . S
C338 C147 3.461 . S
C824 C316 2.916 . S
C119 C433 1.730 . S
C288 C788 2.293 . S
C148 C508 3.317 . S
C698 C315 2.670 . S
C120 C584 0.506 . S
C287 C873 3.826 . S
C188 C367 3.916 1_655 S
C177 C673 3.647 . S
C258 C567 4.185 . S
C247 C748 2.941 . S
C864 C272 4.575 . S
C216 C424 2.770 . S
C473 C261 4.034 . S
C388 C205 1.578 . S
C76 C904 1.618 . S
C818 C93 3.026 . S
C105 C967 1.673 . S
C62 C805 1.465 . S
C49 C685 3.566 . S
C704 C9 1.658 . S
C738 C22 3.615 1_455 S
C887 C36 4.493 . S
C913 C260 4.275 . S
C189 C845 2.340 . S
C938 C204 2.539 . S
C807 C217 2.355 . S
C687 C259 2.943 . S
C190 C713 3.308 . S
C765 C203 0.938 . S
C218 C858 4.476 . S
C908 C314 3.300 . S
C135 C498 3.473 . S
C548 C146 3.877 . S
C607 C163 2.713 . S
C885 C300 4.553 . S
C286 C965 3.052 . S
C458 C149 3.408 . S
C407 C121 2.505 . S
C91 C925 1.913 . S
C393 C77 2.085 . S
C64 C948 0.869 . S
C104 C464 0.926 . S
C34 C664 3.933 1_556 S
C565 C23 0.435 . S
C7 C753 2.980 . S
C48 C628 3.443 . S
C898 C329 3.343 . S
C162 C384 2.644 . S
C953 C301 1.573 . S
C134 C468 2.295 . S
C330 C668 3.156 . S
C538 C161 2.514 . S
C302 C744 0.743 . S
C633 C133 3.678 . S
C927 C244 4.059 . S
C513 C219 3.831 1_545 S
C230 C727 3.814 . S
C588 C191 2.758 . S
C202 C624 4.457 . S
C174 C944 2.427 . S
C793 C233 4.078 . S
C828 C275 1.922 . S
