# Generated by pormake.
# Topology nia, (6,6)-cn, num edge types: 1
# Building blocks:
#     Node 0, Type 0, BuildingBlock: CUWYAW_clean_sbu_0, # of connection points: 6
#     Node 1, Type 0, BuildingBlock: CUWYAW_clean_sbu_0, # of connection points: 6
#     Node 2, Type 1, BuildingBlock: MIDCAF_clean_sbu_0, # of connection points: 6
#     Node 3, Type 1, BuildingBlock: MIDCAF_clean_sbu_0, # of connection points: 6
#     Edge 4, Type (0, 1), BuildingBlock: UVAHIK_clean_linker_0, # of connection points: 2
#     Edge 5, Type (0, 1), BuildingBlock: UVAHIK_clean_linker_0, # of connection points: 2
#     Edge 6, Type (0, 1), BuildingBlock: UVAHIK_clean_linker_0, # of connection points: 2
#     Edge 7, Type (0, 1), BuildingBlock: UVAHIK_clean_linker_0, # of connection points: 2
#     Edge 8, Type (0, 1), BuildingBlock: UVAHIK_clean_linker_0, # of connection points: 2
#     Edge 9, Type (0, 1), BuildingBlock: UVAHIK_clean_linker_0, # of connection points: 2
#     Edge 10, Type (0, 1), BuildingBlock: UVAHIK_clean_linker_0, # of connection points: 2
#     Edge 11, Type (0, 1), BuildingBlock: UVAHIK_clean_linker_0, # of connection points: 2
#     Edge 12, Type (0, 1), BuildingBlock: UVAHIK_clean_linker_0, # of connection points: 2
#     Edge 13, Type (0, 1), BuildingBlock: UVAHIK_clean_linker_0, # of connection points: 2
#     Edge 14, Type (0, 1), BuildingBlock: UVAHIK_clean_linker_0, # of connection points: 2
#     Edge 15, Type (0, 1), BuildingBlock: UVAHIK_clean_linker_0, # of connection points: 2
# Relax obj value: 0.258
# Max RMSD: 0.262
# Mean RMSD: 0.227
data_MOF--net-nia--node1-CUWYAW_clean_sbu_0--node2-MIDCAF_clean_sbu_0--edge1-UVAHIK_clean_linker_0
_symmetry_space_group_name_H-M    P1
_symmetry_Int_Tables_number       1
_symmetry_cell_setting            triclinic
loop_
_symmetry_equiv_pos_as_xyz
'x, y, z'
_cell_length_a     35.759012
_cell_length_b     32.395997
_cell_length_c     40.738405
_cell_angle_alpha  100.12582
_cell_angle_beta   72.632786
_cell_angle_gamma 128.18788
loop_
_atom_site_label
_atom_site_type_symbol
_atom_site_fract_x
_atom_site_fract_y
_atom_site_fract_z
_atom_type_partial_charge
C0 C 0.06323 0.95663 0.07283 0.0
Eu1 Eu 0.00688 0.97905 0.06787 0.0
C2 C 0.06935 0.93484 0.098 0.0
C3 C 0.07461 0.9563 0.13092 0.0
C4 C 0.08157 0.93531 0.15379 0.0
C5 C 0.0829 0.89228 0.14424 0.0
C6 C 0.07727 0.8708 0.11138 0.0
C7 C 0.07072 0.89197 0.08851 0.0
C8 C 0.91315 0.9393 0.10524 0.0
C9 C 0.95827 0.93746 1.00175 0.0
C10 C 0.90337 0.05305 1.04234 0.0
Eu11 Eu 0.9612 0.03207 1.04652 0.0
C12 C 0.89219 0.06841 1.01689 0.0
C13 C 0.91576 0.07374 0.98181 0.0
C14 C 0.90367 0.08765 0.95809 0.0
C15 C 0.86769 0.09618 0.96914 0.0
C16 C 0.8447 0.09121 1.00444 0.0
C17 C 0.85682 0.07742 1.02802 0.0
C18 C 0.05476 0.07051 1.00916 0.0
C19 C 0.0123 0.0756 0.11167 0.0
O20 O 0.02397 0.92375 0.06078 0.0
O21 O 0.074 0.00366 0.07865 0.0
O22 O 0.93729 0.92363 0.10943 0.0
O23 O 0.94011 0.97314 0.08165 0.0
O24 O -0.00937 0.94455 1.01615 0.0
O25 O 0.93729 0.96147 1.01209 0.0
O26 O 0.94613 0.08844 1.04964 0.0
O27 O 0.89134 0.00545 1.03966 0.0
O28 O 0.0309 0.08592 1.0039 0.0
O29 O 0.02749 0.0378 1.0333 0.0
O30 O -0.01923 0.07015 0.0971 0.0
O31 O 0.03151 0.04979 0.10181 0.0
H32 H 0.07352 0.9893 0.13898 0.0
H33 H 0.08553 0.95246 0.17901 0.0
H34 H 0.07893 0.8382 0.10304 0.0
H35 H 0.06705 0.87501 0.0632 0.0
H36 H 0.94319 0.06685 0.97281 0.0
H37 H 0.92183 0.09083 0.93109 0.0
H38 H 0.81755 0.09845 1.01395 0.0
H39 H 0.83845 0.0737 0.05503 0.0
C40 C 0.90945 0.96107 0.46926 0.0
Eu41 Eu 0.94326 0.9707 0.52054 0.0
C42 C 0.89043 0.98089 0.45418 0.0
C43 C 0.84422 0.96956 0.46963 0.0
C44 C 0.82219 0.97871 0.45172 0.0
C45 C 0.84593 -0.00047 0.41802 0.0
C46 C 0.89384 0.01475 0.40375 0.0
C47 C 0.91575 0.00525 0.4216 0.0
C48 C 0.90891 0.89462 0.56493 0.0
C49 C 0.91382 0.02487 0.5879 0.0
C50 C 0.00891 0.00043 0.64105 0.0
Eu51 Eu -0.00694 0.00501 0.58407 0.0
C52 C 0.04836 0.02002 0.65768 0.0
C53 C 0.08782 0.07364 0.65707 0.0
C54 C 0.12272 0.09167 0.67533 0.0
C55 C 0.11895 0.0564 0.69428 0.0
C56 C 0.07995 0.00265 0.69424 0.0
C57 C 0.04487 0.98469 0.6762 0.0
C58 C 0.04533 0.08528 0.5374 0.0
C59 C 0.0284 0.95941 0.51334 0.0
O60 O 0.95647 0.99204 0.4682 0.0
O61 O 0.88179 0.93275 0.49763 0.0
O62 O 0.91124 0.88698 0.53224 0.0
O63 O 0.92201 0.94033 0.57257 0.0
O64 O 0.9168 0.01556 0.55454 0.0
O65 O 0.93411 0.01604 0.60535 0.0
O66 O 0.00251 0.96638 0.61626 0.0
O67 O 0.00332 0.0346 0.63509 0.0
O68 O 0.05873 0.08927 0.5649 0.0
O69 O 0.00717 0.03957 0.5367 0.0
O70 O 0.02506 0.96709 0.54691 0.0
O71 O 0.00559 0.9658 0.49675 0.0
H72 H 0.82374 0.95084 0.49475 0.0
H73 H 0.78508 0.96591 0.46349 0.0
H74 H 0.9135 0.03169 0.37811 0.0
H75 H 0.95149 0.01446 0.40915 0.0
H76 H 0.09145 0.1017 0.64285 0.0
H77 H 0.15285 0.1332 0.67446 0.0
H78 H 0.076 0.97464 0.70877 0.0
H79 H 0.0145 0.94322 0.67714 0.0
Zn80 Zn 0.3154 0.65052 0.25172 0.0
Zn81 Zn 0.30213 0.66777 0.38685 0.0
Zn82 Zn 0.30406 0.65596 0.31979 0.0
C83 C 0.39955 0.72449 0.35243 0.0
C84 C 0.2471 0.55985 0.37389 0.0
O85 O 0.268 0.68545 0.3074 0.0
O86 O 0.27416 0.67178 0.25138 0.0
C87 C 0.40867 0.71419 0.2601 0.0
O88 O 0.37931 0.70891 0.32704 0.0
O89 O 0.37366 0.70872 0.38268 0.0
O90 O 0.25778 0.59191 0.39841 0.0
O91 O 0.26213 0.57648 0.34274 0.0
O92 O 0.38787 0.70107 0.23605 0.0
O93 O 0.38296 0.69992 0.2914 0.0
O94 O 0.26505 0.57185 0.30714 0.0
O95 O 0.28501 0.57434 0.25017 0.0
C96 C 0.26353 0.54843 0.27798 0.0
O97 O 0.26739 0.69362 0.34265 0.0
O98 O 0.27437 0.70717 0.39642 0.0
C99 C 0.25915 0.68694 0.27936 0.0
C100 C 0.26087 0.71188 0.37288 0.0
Zn101 Zn 0.66099 0.36102 0.86614 0.0
Zn102 Zn 0.66002 0.33623 0.73281 0.0
Zn103 Zn 0.66186 0.34904 0.79857 0.0
C104 C 0.70765 0.44309 0.74674 0.0
C105 C 0.56365 0.28115 0.77019 0.0
O106 O 0.69272 0.31183 0.80843 0.0
O107 O 0.68195 0.31622 0.86507 0.0
C108 C 0.72456 0.46105 0.83526 0.0
O109 O 0.7041 0.42799 0.77547 0.0
O110 O 0.68872 0.41 0.724 0.0
O111 O 0.58777 0.28369 0.73982 0.0
O112 O 0.58553 0.30452 0.79482 0.0
O113 O 0.71061 0.43888 0.86351 0.0
O114 O 0.70907 0.43391 0.80887 0.0
O115 O 0.58504 0.30893 0.83019 0.0
O116 O 0.59021 0.3297 0.88426 0.0
C117 C 0.56451 0.30665 0.86248 0.0
O118 O 0.69426 0.30776 0.77324 0.0
O119 O 0.70214 0.31272 0.71776 0.0
C120 C 0.69576 0.30151 0.83626 0.0
C121 C 0.70901 0.29964 0.74153 0.0
C122 C 0.12856 0.90346 0.18556 0.0
C123 C 0.09136 0.87027 0.16785 0.0
C124 C 0.14002 0.8824 0.20466 0.0
C125 C 0.13311 0.76501 0.20604 0.0
H126 H 0.17278 0.81983 0.29184 0.0
C127 C 0.18705 0.67083 0.26801 0.0
C128 C 0.23066 0.70522 0.27888 0.0
C129 C 0.1638 0.68942 0.26126 0.0
C130 C 0.16198 0.8043 0.26781 0.0
H131 H 0.03465 0.78906 0.15835 0.0
H132 H 0.05435 0.75237 0.19174 0.0
H133 H 0.14339 0.85574 0.26721 0.0
H134 H 0.2837 0.78532 0.29251 0.0
H135 H 0.24361 0.8186 0.27992 0.0
H136 H 0.1527 0.71478 0.20578 0.0
C137 C 0.07549 0.79466 0.19024 0.0
C138 C 0.14516 0.82482 0.25373 0.0
C139 C 0.06419 0.81565 0.17112 0.0
C140 C 0.24975 0.75816 0.2844 0.0
C141 C 0.2267 0.77702 0.27729 0.0
C142 C 0.14992 0.74472 0.21997 0.0
C143 C 0.11441 0.82777 0.20645 0.0
C144 C 0.13055 0.80533 0.22264 0.0
C145 C 0.18438 0.74311 0.26446 0.0
C146 C 0.16456 0.76398 0.25102 0.0
H147 H 0.1503 0.94573 0.18337 0.0
H148 H 0.17042 0.90898 0.21664 0.0
H149 H 0.12337 0.74999 0.18163 0.0
H150 H 0.17186 0.62982 0.26358 0.0
H151 H 0.13066 0.662 0.25222 0.0
C152 C 0.17622 0.04943 0.71192 0.0
C153 C 0.15583 0.07568 0.7138 0.0
C154 C 0.21298 0.06921 0.72872 0.0
C155 C 0.30992 0.19408 0.75989 0.0
H156 H 0.32822 0.10434 0.79351 0.0
C157 C 0.48944 0.27841 0.79449 0.0
C158 C 0.51066 0.25366 0.77651 0.0
C159 C 0.4401 0.25464 0.79708 0.0
C160 C 0.32334 0.12986 0.78445 0.0
H161 H 0.15598 0.14161 0.7362 0.0
H162 H 0.21992 0.17599 0.76589 0.0
H163 H 0.25099 0.06591 0.77917 0.0
H164 H 0.49763 0.18483 0.74783 0.0
H165 H 0.41136 0.14303 0.75238 0.0
H166 H 0.38277 0.25773 0.76418 0.0
C167 C 0.20826 0.14072 0.75084 0.0
C168 C 0.27931 0.1079 0.77609 0.0
C169 C 0.17172 0.12111 0.73381 0.0
C170 C 0.48174 0.20431 0.76201 0.0
C171 C 0.43238 0.1803 0.76491 0.0
C172 C 0.35376 0.21603 0.76848 0.0
C173 C 0.22994 0.11552 0.748 0.0
C174 C 0.2728 0.13952 0.76251 0.0
C175 C 0.41135 0.20574 0.78179 0.0
C176 C 0.36156 0.18388 0.77964 0.0
H177 H 0.16498 0.01459 0.69643 0.0
H178 H 0.22943 0.04929 0.72542 0.0
H179 H 0.30647 0.21959 0.74921 0.0
H180 H 0.51138 0.31676 0.80563 0.0
H181 H 0.4247 0.27496 0.81032 0.0
C182 C 0.04991 0.11041 0.16217 0.0
C183 C 0.02758 0.11306 0.14027 0.0
C184 C 0.06756 0.14792 0.18765 0.0
C185 C 0.06873 0.25996 0.23237 0.0
H186 H 0.19836 0.31345 0.23723 0.0
C187 C 0.25388 0.46973 0.24875 0.0
C188 C 0.2358 0.49096 0.27583 0.0
C189 C 0.22485 0.41615 0.24216 0.0
C190 C 0.16201 0.29879 0.2364 0.0
H191 H 0.00476 0.15614 0.12876 0.0
H192 H 0.03707 0.2226 0.17226 0.0
H193 H 0.15184 0.23352 0.20583 0.0
H194 H 0.17405 0.47285 0.31828 0.0
H195 H 0.12279 0.3782 0.30691 0.0
H196 H 0.0808 0.32776 0.26074 0.0
C197 C 0.03995 0.19087 0.17044 0.0
C198 C 0.135 0.25252 0.21865 0.0
C199 C 0.02173 0.15295 0.14522 0.0
C200 C 0.18891 0.45721 0.29742 0.0
C201 C 0.15953 0.40326 0.29071 0.0
C202 C 0.09599 0.30657 0.24991 0.0
C203 C 0.06391 0.18941 0.19159 0.0
C204 C 0.08871 0.23348 0.21534 0.0
C205 C 0.17677 0.38241 0.26237 0.0
C206 C 0.14374 0.32757 0.25095 0.0
H207 H 0.05428 0.07965 0.15941 0.0
H208 H 0.08484 0.14485 0.20389 0.0
H209 H 0.03274 0.24581 0.23105 0.0
H210 H 0.28991 0.49501 0.23169 0.0
H211 H 0.23918 0.40181 0.21984 0.0
C212 C 0.89547 0.07075 0.6388 0.0
C213 C 0.88802 0.04751 0.60655 0.0
C214 C 0.87371 0.09507 0.65574 0.0
C215 C 0.81998 0.15404 0.63822 0.0
H216 H 0.78115 0.15676 0.73777 0.0
C217 C 0.77373 0.2932 0.70361 0.0
C218 C 0.73327 0.2741 0.73206 0.0
C219 C 0.79315 0.26556 0.6911 0.0
C220 C 0.79139 0.15602 0.70995 0.0
H221 H 0.85029 0.02978 0.5674 0.0
H222 H 0.81095 0.0707 0.59744 0.0
H223 H 0.80925 0.1041 0.71034 0.0
H224 H 0.68173 0.21196 0.77033 0.0
H225 H 0.71498 0.16254 0.74803 0.0
H226 H 0.80047 0.20412 0.63762 0.0
C227 C 0.83482 0.07154 0.60924 0.0
C228 C 0.80808 0.1263 0.69418 0.0
C229 C 0.85714 0.04778 0.59206 0.0
C230 C 0.71341 0.2277 0.74858 0.0
C231 C 0.73248 0.1995 0.73576 0.0
C232 C 0.80287 0.18319 0.65392 0.0
C233 C 0.84345 0.09625 0.64106 0.0
C234 C 0.82302 0.12532 0.65808 0.0
C235 C 0.7718 0.21746 0.70625 0.0
C236 C 0.78896 0.18518 0.68998 0.0
H237 H 0.91932 0.07157 0.65063 0.0
H238 H 0.88194 0.11436 0.67986 0.0
H239 H 0.83175 0.15497 0.61042 0.0
H240 H 0.78976 0.32912 0.69059 0.0
H241 H 0.82434 0.28145 0.669 0.0
C242 C 0.84174 0.94263 0.12061 0.0
C243 C 0.86366 0.92114 0.12573 0.0
C244 C 0.79432 0.92412 0.13974 0.0
C245 C 0.6814 0.80816 0.19114 0.0
H246 H 0.64234 0.89983 0.21746 0.0
C247 C 0.4842 0.73016 0.26612 0.0
C248 C 0.46246 0.74429 0.25164 0.0
C249 C 0.53488 0.7558 0.25571 0.0
C250 C 0.65278 0.8738 0.21027 0.0
H251 H 0.85428 0.86507 0.15576 0.0
H252 H 0.77226 0.83364 0.18972 0.0
H253 H 0.72805 0.93702 0.18961 0.0
H254 H 0.47617 0.79627 0.21535 0.0
H255 H 0.56473 0.84117 0.1971 0.0
H256 H 0.60611 0.74497 0.2116 0.0
C257 C 0.79082 0.86369 0.1703 0.0
C258 C 0.70181 0.89502 0.19415 0.0
C259 C 0.83798 0.88191 0.15098 0.0
C260 C 0.49222 0.78498 0.22704 0.0
C261 C 0.54288 0.81088 0.21682 0.0
C262 C 0.63255 0.78707 0.20747 0.0
C263 C 0.76806 0.88407 0.16467 0.0
C264 C 0.71662 0.86233 0.18387 0.0
C265 C 0.56467 0.79598 0.23059 0.0
C266 C 0.61752 0.8195 0.2167 0.0
H267 H 0.86111 0.97356 0.10179 0.0
H268 H 0.77792 0.94048 0.13442 0.0
H269 H 0.69111 0.78157 0.18316 0.0
H270 H 0.46184 0.69839 0.28483 0.0
H271 H 0.5507 0.74374 0.26695 0.0
C272 C 0.89242 0.8112 0.57734 0.0
C273 C 0.89603 0.85659 0.58935 0.0
C274 C 0.87922 0.77464 0.60055 0.0
C275 C 0.87337 0.71693 0.65611 0.0
H276 H 0.75214 0.66463 0.7262 0.0
C277 C 0.77875 0.53878 0.74493 0.0
C278 C 0.73158 0.49858 0.74013 0.0
C279 C 0.8035 0.59007 0.73349 0.0
C280 C 0.78647 0.67946 0.70713 0.0
H281 H 0.88956 0.90003 0.63484 0.0
H282 H 0.86541 0.83542 0.6755 0.0
H283 H 0.78919 0.74091 0.69101 0.0
H284 H 0.67211 0.48033 0.72162 0.0
H285 H 0.71447 0.5697 0.70264 0.0
H286 H 0.86956 0.65415 0.67148 0.0
C287 C 0.87302 0.82829 0.64817 0.0
C288 C 0.80772 0.72312 0.68706 0.0
C289 C 0.88684 0.86519 0.62494 0.0
C290 C 0.70851 0.51078 0.72556 0.0
C291 C 0.73263 0.56192 0.71489 0.0
C292 C 0.85248 0.6737 0.67655 0.0
C293 C 0.86881 0.7825 0.6362 0.0
C294 C 0.85054 0.74127 0.66063 0.0
C295 C 0.78079 0.6018 0.7179 0.0
C296 C 0.80802 0.65359 0.70151 0.0
H297 H 0.89952 0.80378 0.55002 0.0
H298 H 0.87571 0.7394 0.5906 0.0
H299 H 0.90662 0.73042 0.6361 0.0
H300 H 0.79737 0.53001 0.75577 0.0
H301 H 0.84067 0.62023 0.73604 0.0
C302 C 0.04746 0.91432 0.46215 0.0
C303 C 0.05655 0.93982 0.49367 0.0
C304 C 0.07155 0.89268 0.44446 0.0
C305 C 0.18097 0.90069 0.43351 0.0
H306 H 0.10129 0.75342 0.40956 0.0
C307 C 0.25598 0.78191 0.40437 0.0
C308 C 0.23982 0.74089 0.38061 0.0
C309 C 0.23548 0.8087 0.41344 0.0
C310 C 0.1243 0.79484 0.41533 0.0
H311 H 0.09895 0.96373 0.53087 0.0
H312 H 0.14189 0.92682 0.49946 0.0
H313 H 0.06252 0.79655 0.43427 0.0
H314 H 0.1882 0.6943 0.34871 0.0
H315 H 0.15381 0.74309 0.36301 0.0
H316 H 0.24282 0.89957 0.4144 0.0
C317 C 0.11585 0.92342 0.48866 0.0
C318 C 0.10198 0.81942 0.42966 0.0
C319 C 0.09113 0.94431 0.50669 0.0
C320 C 0.20255 0.72706 0.36608 0.0
C321 C 0.18226 0.75437 0.37485 0.0
C322 C 0.20339 0.87641 0.41871 0.0
C323 C 0.10583 0.89689 0.4576 0.0
C324 C 0.13 0.87222 0.4396 0.0
C325 C 0.19835 0.79541 0.39884 0.0
C326 C 0.1752 0.82277 0.41029 0.0
H327 H 0.02081 0.90988 0.45149 0.0
H328 H 0.06338 0.87262 0.42049 0.0
H329 H 0.20346 0.9417 0.44043 0.0
H330 H 0.2844 0.79315 0.41626 0.0
H331 H 0.24801 0.83899 0.43265 0.0
C332 C 0.13219 0.12655 0.964 0.0
C333 C 0.10444 0.08778 0.98987 0.0
C334 C 0.18031 0.14485 0.94708 0.0
C335 C 0.28473 0.16332 0.96245 0.0
H336 H 0.33935 0.18655 0.86389 0.0
C337 C 0.49207 0.29868 0.90194 0.0
C338 C 0.51091 0.27832 0.87465 0.0
C339 C 0.44151 0.27208 0.91422 0.0
C340 C 0.3244 0.17994 0.89142 0.0
H341 H 0.10398 0.03566 1.01689 0.0
H342 H 0.18841 0.06858 0.98823 0.0
H343 H 0.25143 0.14479 0.88792 0.0
H344 H 0.49185 0.21286 0.84005 0.0
H345 H 0.40283 0.16698 0.8607 0.0
H346 H 0.35758 0.19951 0.96618 0.0
C347 C 0.17317 0.08508 0.98117 0.0
C348 C 0.27432 0.15642 0.90515 0.0
C349 C 0.12497 0.06641 0.9977 0.0
C350 C 0.47819 0.23026 0.86028 0.0
C351 C 0.42742 0.20391 0.87223 0.0
C352 C 0.33472 0.1875 0.94884 0.0
C353 C 0.20157 0.125 0.95601 0.0
C354 C 0.25408 0.14804 0.94084 0.0
C355 C 0.40869 0.22455 0.89945 0.0
C356 C 0.35512 0.19636 0.91326 0.0
H357 H 0.11705 0.14344 0.95731 0.0
H358 H 0.20147 0.17583 0.92791 0.0
H359 H 0.27023 0.15775 0.99006 0.0
H360 H 0.51651 0.33548 0.91368 0.0
H361 H 0.42801 0.2889 0.93517 0.0
C362 C 0.04446 0.12417 0.48979 0.0
C363 C 0.06826 0.12893 0.51366 0.0
C364 C 0.0643 0.16746 0.46975 0.0
C365 C 0.14243 0.31104 0.47368 0.0
H366 H 0.14363 0.30673 0.3776 0.0
C367 C 0.23183 0.47236 0.36263 0.0
C368 C 0.21858 0.50369 0.38216 0.0
C369 C 0.21042 0.42241 0.37476 0.0
C370 C 0.14361 0.30844 0.40439 0.0
H371 H 0.13214 0.18195 0.53456 0.0
H372 H 0.16689 0.2574 0.49963 0.0
H373 H 0.1151 0.22758 0.40586 0.0
H374 H 0.17086 0.50657 0.42844 0.0
H375 H 0.13338 0.4198 0.44936 0.0
H376 H 0.17081 0.3914 0.47254 0.0
C377 C 0.1327 0.22045 0.49652 0.0
C378 C 0.12705 0.26316 0.42061 0.0
C379 C 0.11293 0.17722 0.51643 0.0
C380 C 0.18186 0.48327 0.41294 0.0
C381 C 0.16061 0.43371 0.425 0.0
C382 C 0.15848 0.35587 0.45766 0.0
C383 C 0.10814 0.21641 0.47345 0.0
C384 C 0.12639 0.26409 0.45546 0.0
C385 C 0.17588 0.40349 0.40674 0.0
C386 C 0.15902 0.35512 0.42293 0.0
H387 H 0.00959 0.08766 0.48758 0.0
H388 H 0.04421 0.1632 0.4525 0.0
H389 H 0.14182 0.313 0.50064 0.0
H390 H 0.26069 0.48763 0.33911 0.0
H391 H 0.223 0.40003 0.36017 0.0
C392 C 0.88951 0.14677 0.91752 0.0
C393 C 0.85375 0.11011 0.94428 0.0
C394 C 0.87621 0.16236 0.89584 0.0
C395 C 0.76766 0.12678 0.87005 0.0
H396 H 0.84529 0.27663 0.85465 0.0
C397 C 0.68778 0.22978 0.85912 0.0
C398 C 0.71427 0.27142 0.83563 0.0
C399 C 0.70738 0.20503 0.86248 0.0
C400 C 0.82378 0.23457 0.85801 0.0
H401 H 0.77571 0.05916 0.96804 0.0
H402 H 0.75275 0.08711 0.93113 0.0
H403 H 0.87567 0.24277 0.87969 0.0
H404 H 0.78149 0.31952 0.79671 0.0
H405 H 0.81669 0.27665 0.8031 0.0
H406 H 0.71447 0.11913 0.85024 0.0
C407 C 0.79105 0.10361 0.92648 0.0
C408 C 0.84115 0.21509 0.87239 0.0
C409 C 0.8043 0.0881 0.94806 0.0
C410 C 0.76028 0.2871 0.81477 0.0
C411 C 0.78041 0.26282 0.81855 0.0
C412 C 0.75016 0.14631 0.85594 0.0
C413 C 0.82683 0.14144 0.90035 0.0
C414 C 0.81249 0.16111 0.87972 0.0
C415 C 0.75439 0.22208 0.8429 0.0
C416 C 0.77729 0.20056 0.85085 0.0
H417 H 0.92796 0.16465 0.91398 0.0
H418 H 0.90468 0.19123 0.8758 0.0
H419 H 0.74518 0.08487 0.8745 0.0
H420 H 0.65234 0.21728 0.8756 0.0
H421 H 0.68672 0.1743 0.88177 0.0
C422 C 0.78187 0.00566 0.41118 0.0
C423 C 0.81781 -0.00235 0.39649 0.0
C424 C 0.74702 0.99061 0.39372 0.0
C425 C 0.68512 0.88766 0.33385 0.0
H426 H 0.60637 0.93736 0.3514 0.0
C427 C 0.48047 0.80706 0.32672 0.0
C428 C 0.45318 0.76108 0.34647 0.0
C429 C 0.53136 0.84286 0.32243 0.0
C430 C 0.62847 0.92348 0.34562 0.0
H431 H 0.84856 0.97303 0.35018 0.0
H432 H 0.789 0.94868 0.31943 0.0
H433 H 0.689 -0.00425 0.3611 0.0
H434 H 0.45677 0.71587 0.37701 0.0
H435 H 0.54565 0.77786 0.36922 0.0
H436 H 0.62378 0.81469 0.31993 0.0
C437 C 0.78687 0.96518 0.34486 0.0
C438 C 0.67557 0.9567 0.35144 0.0
C439 C 0.82144 0.97978 0.36242 0.0
C440 C 0.47725 0.75102 0.36156 0.0
C441 C 0.52802 0.78621 0.35683 0.0
C442 C 0.63815 0.85456 0.32816 0.0
C443 C 0.74766 0.96763 0.36106 0.0
C444 C 0.70356 0.93833 0.34705 0.0
C445 C 0.5555 0.83264 0.33749 0.0
C446 C 0.60862 0.87137 0.33548 0.0
H447 H 0.77873 0.02049 0.43707 0.0
H448 H 0.7174 0.99314 0.40706 0.0
H449 H 0.70532 0.8719 0.33039 0.0
H450 H 0.46233 0.8156 0.31508 0.0
H451 H 0.5518 0.87843 0.30747 0.0
C452 C 0.90125 0.87865 0.96323 0.0
C453 C 0.94441 0.89987 0.97308 0.0
C454 C 0.88582 0.83917 0.93853 0.0
C455 C 0.89851 0.73463 0.90398 0.0
H456 H 0.82464 0.71291 0.84149 0.0
C457 C 0.80839 0.54401 0.83023 0.0
C458 C 0.7585 0.51848 0.83342 0.0
C459 C 0.83899 0.59761 0.83696 0.0
C460 C 0.84531 0.71854 0.85876 0.0
H461 H 0.00709 0.89906 0.96287 0.0
H462 H -0.01923 0.83122 0.91947 0.0
H463 H 0.86389 0.79485 0.87358 0.0
H464 H 0.70146 0.52821 0.84391 0.0
H465 H 0.75453 0.62186 0.85648 0.0
H466 H 0.87881 0.65811 0.89039 0.0
C467 C 0.95803 0.84387 0.93149 0.0
C468 C 0.86767 0.76538 0.8772 0.0
C469 C -0.02683 0.88288 0.95636 0.0
C470 C 0.74011 0.54761 0.84106 0.0
C471 C 0.77059 0.60119 0.84812 0.0
C472 C 0.87632 0.68809 0.88561 0.0
C473 C 0.91346 0.82042 0.92298 0.0
C474 C 0.89384 0.77355 0.90048 0.0
C475 C 0.81986 0.62623 0.8477 0.0
C476 C 0.84873 0.67898 0.86321 0.0
H477 H 0.87829 0.89094 0.97558 0.0
H478 H 0.8511 0.82171 0.93285 0.0
H479 H 0.91743 0.73894 0.92217 0.0
H480 H 0.82307 0.52193 0.82442 0.0
H481 H 0.877 0.61596 0.83567 0.0
loop_
_geom_bond_atom_site_label_1
_geom_bond_atom_site_label_2
_geom_bond_distance
_geom_bond_site_symmetry_2
_ccdc_geom_bond_type
C0 Eu1 2.835 . S
C0 C2 1.500 . S
C0 O20 1.257 . S
C0 O21 1.260 . S
Eu1 C0 2.835 . S
Eu1 O20 2.473 . S
Eu1 O21 2.480 . S
Eu1 O22 2.430 1_455 S
Eu1 O23 2.670 1_455 S
Eu1 O24 2.394 1_455 S
Eu1 O29 2.355 1_564 S
Eu1 O31 2.374 1_565 S
C2 C0 1.500 . S
C2 C3 1.377 . S
C2 C7 1.377 . S
C3 C2 1.377 . S
C3 C4 1.395 . S
C3 H32 0.931 1_455 S
C4 C3 1.395 . S
C4 C5 1.383 . S
C4 H33 0.931 . S
C5 C4 1.383 . S
C5 C6 1.394 . S
C6 C5 1.394 . S
C6 C7 1.378 . S
C6 H34 0.931 . S
C7 C2 1.377 . S
C7 C6 1.378 . S
C7 H35 0.931 . S
C8 O22 1.259 . S
C8 O23 1.270 . S
C9 O24 1.251 1_556 S
C9 O25 1.251 . S
C10 Eu11 2.835 . S
C10 C12 1.500 . S
C10 O26 1.257 . S
C10 O27 1.260 1_655 S
Eu11 C10 2.835 . S
Eu11 O23 2.355 1_546 S
Eu11 O25 2.374 1_545 S
Eu11 O26 2.473 . S
Eu11 O27 2.480 1_655 S
Eu11 O28 2.430 1_655 S
Eu11 O29 2.670 1_655 S
Eu11 O30 2.394 1_656 S
C12 C10 1.500 . S
C12 C13 1.377 . S
C12 C17 1.377 . S
C13 C12 1.377 . S
C13 C14 1.395 . S
C13 H36 0.931 1_655 S
C14 C13 1.395 . S
C14 C15 1.383 . S
C14 H37 0.931 1_655 S
C15 C14 1.383 . S
C15 C16 1.394 . S
C16 C15 1.394 . S
C16 C17 1.378 . S
C16 H38 0.931 . S
C17 C12 1.377 . S
C17 C16 1.378 . S
C17 H39 0.931 . S
C18 O28 1.259 . S
C18 O29 1.270 . S
C19 O30 1.251 . S
C19 O31 1.251 . S
O20 C0 1.257 . S
O20 Eu1 2.473 . S
O21 C0 1.260 . S
O21 Eu1 2.480 . S
O22 Eu1 2.430 1_655 S
O22 C8 1.259 . S
O23 Eu1 2.670 1_655 S
O23 C8 1.270 . S
O23 Eu11 2.355 1_564 S
O24 Eu1 2.394 1_655 S
O24 C9 1.251 1_554 S
O25 C9 1.251 . S
O25 Eu11 2.374 1_565 S
O26 C10 1.257 . S
O26 Eu11 2.473 . S
O27 C10 1.260 1_455 S
O27 Eu11 2.480 1_455 S
O28 Eu11 2.430 1_455 S
O28 C18 1.259 . S
O29 Eu1 2.355 1_546 S
O29 Eu11 2.670 1_455 S
O29 C18 1.270 . S
O30 Eu11 2.394 1_454 S
O30 C19 1.251 . S
O31 Eu1 2.374 1_545 S
O31 C19 1.251 . S
H32 C3 0.931 1_655 S
H33 C4 0.931 . S
H34 C6 0.931 . S
H35 C7 0.931 . S
H36 C13 0.931 1_455 S
H37 C14 0.931 1_455 S
H38 C16 0.931 . S
H39 C17 0.931 . S
C40 Eu41 2.835 . S
C40 C42 1.500 . S
C40 O60 1.257 . S
C40 O61 1.260 . S
Eu41 C40 2.835 . S
Eu41 O60 2.473 . S
Eu41 O61 2.480 . S
Eu41 O62 2.430 . S
Eu41 O63 2.670 1_655 S
Eu41 O64 2.394 . S
Eu41 O69 2.355 1_665 S
Eu41 O71 2.374 1_655 S
C42 C40 1.500 . S
C42 C43 1.377 . S
C42 C47 1.377 . S
C43 C42 1.377 . S
C43 C44 1.395 . S
C43 H72 0.931 . S
C44 C43 1.395 . S
C44 C45 1.383 . S
C44 H73 0.931 . S
C45 C44 1.383 . S
C45 C46 1.394 . S
C46 C45 1.394 . S
C46 C47 1.378 . S
C46 H74 0.931 . S
C47 C42 1.377 . S
C47 C46 1.378 . S
C47 H75 0.931 1_565 S
C48 O62 1.259 . S
C48 O63 1.270 1_655 S
C49 O64 1.251 1_545 S
C49 O65 1.251 . S
C50 Eu51 2.835 . S
C50 C52 1.500 . S
C50 O66 1.257 . S
C50 O67 1.260 . S
Eu51 C50 2.835 . S
Eu51 O63 2.355 1_545 S
Eu51 O65 2.374 1_455 S
Eu51 O66 2.473 . S
Eu51 O67 2.480 . S
Eu51 O68 2.430 . S
Eu51 O69 2.670 . S
Eu51 O70 2.394 . S
C52 C50 1.500 . S
C52 C53 1.377 . S
C52 C57 1.377 . S
C53 C52 1.377 . S
C53 C54 1.395 . S
C53 H76 0.931 . S
C54 C53 1.395 . S
C54 C55 1.383 . S
C54 H77 0.931 . S
C55 C54 1.383 . S
C55 C56 1.394 . S
C56 C55 1.394 . S
C56 C57 1.378 . S
C56 H78 0.931 . S
C57 C52 1.377 . S
C57 C56 1.378 . S
C57 H79 0.931 . S
C58 O68 1.259 . S
C58 O69 1.270 . S
C59 O70 1.251 1_565 S
C59 O71 1.251 . S
O60 C40 1.257 . S
O60 Eu41 2.473 . S
O61 C40 1.260 . S
O61 Eu41 2.480 . S
O62 Eu41 2.430 . S
O62 C48 1.259 . S
O63 Eu41 2.670 1_455 S
O63 C48 1.270 1_455 S
O63 Eu51 2.355 1_565 S
O64 Eu41 2.394 . S
O64 C49 1.251 1_565 S
O65 C49 1.251 . S
O65 Eu51 2.374 1_655 S
O66 C50 1.257 . S
O66 Eu51 2.473 . S
O67 C50 1.260 . S
O67 Eu51 2.480 . S
O68 Eu51 2.430 . S
O68 C58 1.259 . S
O69 Eu41 2.355 1_445 S
O69 Eu51 2.670 . S
O69 C58 1.270 . S
O70 Eu51 2.394 . S
O70 C59 1.251 1_545 S
O71 Eu41 2.374 1_455 S
O71 C59 1.251 . S
H72 C43 0.931 . S
H73 C44 0.931 . S
H74 C46 0.931 . S
H75 C47 0.931 1_545 S
H76 C53 0.931 . S
H77 C54 0.931 . S
H78 C56 0.931 . S
H79 C57 0.931 . S
Zn80 O86 1.920 . S
Zn80 O92 1.898 . S
Zn80 O95 1.905 . S
Zn81 O89 1.905 . S
Zn81 O90 1.898 . S
Zn81 O98 1.920 . S
Zn82 O85 2.080 . S
Zn82 O88 2.114 . S
Zn82 O91 2.120 . S
Zn82 O93 2.120 . S
Zn82 O94 2.114 . S
Zn82 O97 2.080 . S
C83 O88 1.166 . S
C83 O89 1.182 . S
C84 O90 1.167 . S
C84 O91 1.299 . S
O85 Zn82 2.080 . S
O85 C99 1.305 . S
O86 Zn80 1.920 . S
O86 C99 1.234 . S
C87 O92 1.167 . S
C87 O93 1.299 . S
O88 Zn82 2.114 . S
O88 C83 1.166 . S
O89 Zn81 1.905 . S
O89 C83 1.182 . S
O90 Zn81 1.898 . S
O90 C84 1.167 . S
O91 Zn82 2.120 . S
O91 C84 1.299 . S
O92 Zn80 1.898 . S
O92 C87 1.167 . S
O93 Zn82 2.120 . S
O93 C87 1.299 . S
O94 Zn82 2.114 . S
O94 C96 1.166 . S
O95 Zn80 1.905 . S
O95 C96 1.182 . S
C96 O94 1.166 . S
C96 O95 1.182 . S
O97 Zn82 2.080 . S
O97 C100 1.305 . S
O98 Zn81 1.920 . S
O98 C100 1.234 . S
C99 O85 1.305 . S
C99 O86 1.234 . S
C100 O97 1.305 . S
C100 O98 1.234 . S
Zn101 O107 1.920 . S
Zn101 O113 1.898 . S
Zn101 O116 1.905 . S
Zn102 O110 1.905 . S
Zn102 O111 1.898 . S
Zn102 O119 1.920 . S
Zn103 O106 2.080 . S
Zn103 O109 2.114 . S
Zn103 O112 2.120 . S
Zn103 O114 2.120 . S
Zn103 O115 2.114 . S
Zn103 O118 2.080 . S
C104 O109 1.166 . S
C104 O110 1.182 . S
C105 O111 1.167 . S
C105 O112 1.299 . S
O106 Zn103 2.080 . S
O106 C120 1.305 . S
O107 Zn101 1.920 . S
O107 C120 1.234 . S
C108 O113 1.167 . S
C108 O114 1.299 . S
O109 Zn103 2.114 . S
O109 C104 1.166 . S
O110 Zn102 1.905 . S
O110 C104 1.182 . S
O111 Zn102 1.898 . S
O111 C105 1.167 . S
O112 Zn103 2.120 . S
O112 C105 1.299 . S
O113 Zn101 1.898 . S
O113 C108 1.167 . S
O114 Zn103 2.120 . S
O114 C108 1.299 . S
O115 Zn103 2.114 . S
O115 C117 1.166 . S
O116 Zn101 1.905 . S
O116 C117 1.182 . S
C117 O115 1.166 . S
C117 O116 1.182 . S
O118 Zn103 2.080 . S
O118 C121 1.305 . S
O119 Zn102 1.920 . S
O119 C121 1.234 . S
C120 O106 1.305 . S
C120 O107 1.234 . S
C121 O118 1.305 . S
C121 O119 1.234 . S
C122 C123 1.349 . S
C122 C124 1.327 . S
C122 H147 0.950 . S
C123 C122 1.349 . S
C123 C139 1.349 . S
C124 C122 1.327 . S
C124 C143 1.429 . S
C124 H148 0.950 . S
C125 C142 1.574 . S
C125 C144 1.368 . S
C125 H149 0.949 . S
H126 C130 0.949 . S
C127 C128 1.349 . S
C127 C129 1.327 . S
C127 H150 0.950 . S
C128 C127 1.349 . S
C128 C140 1.349 . S
C129 C127 1.327 . S
C129 C145 1.429 . S
C129 H151 0.950 . S
C130 H126 0.949 . S
C130 C138 1.574 . S
C130 C146 1.368 . S
H131 C139 0.950 . S
H132 C137 0.950 . S
H133 C138 0.949 . S
H134 C140 0.950 . S
H135 C141 0.950 . S
H136 C142 0.949 . S
C137 H132 0.950 . S
C137 C139 1.327 . S
C137 C143 1.429 . S
C138 C130 1.574 . S
C138 H133 0.949 . S
C138 C144 1.368 . S
C139 C123 1.349 . S
C139 H131 0.950 . S
C139 C137 1.327 . S
C140 C128 1.349 . S
C140 H134 0.950 . S
C140 C141 1.327 . S
C141 H135 0.950 . S
C141 C140 1.327 . S
C141 C145 1.429 . S
C142 C125 1.574 . S
C142 H136 0.949 . S
C142 C146 1.368 . S
C143 C124 1.429 . S
C143 C137 1.429 . S
C143 C144 1.523 . S
C144 C125 1.368 . S
C144 C138 1.368 . S
C144 C143 1.523 . S
C145 C129 1.429 . S
C145 C141 1.429 . S
C145 C146 1.523 . S
C146 C130 1.368 . S
C146 C142 1.368 . S
C146 C145 1.523 . S
H147 C122 0.950 . S
H148 C124 0.950 . S
H149 C125 0.949 . S
H150 C127 0.950 . S
H151 C129 0.950 . S
C152 C153 1.349 . S
C152 C154 1.327 . S
C152 H177 0.950 . S
C153 C152 1.349 . S
C153 C169 1.349 . S
C154 C152 1.327 . S
C154 C173 1.429 . S
C154 H178 0.950 . S
C155 C172 1.574 . S
C155 C174 1.368 . S
C155 H179 0.949 . S
H156 C160 0.949 . S
C157 C158 1.349 . S
C157 C159 1.327 . S
C157 H180 0.950 . S
C158 C157 1.349 . S
C158 C170 1.349 . S
C159 C157 1.327 . S
C159 C175 1.429 . S
C159 H181 0.950 . S
C160 H156 0.949 . S
C160 C168 1.574 . S
C160 C176 1.368 . S
H161 C169 0.950 . S
H162 C167 0.950 . S
H163 C168 0.949 . S
H164 C170 0.950 . S
H165 C171 0.950 . S
H166 C172 0.949 . S
C167 H162 0.950 . S
C167 C169 1.327 . S
C167 C173 1.429 . S
C168 C160 1.574 . S
C168 H163 0.949 . S
C168 C174 1.368 . S
C169 C153 1.349 . S
C169 H161 0.950 . S
C169 C167 1.327 . S
C170 C158 1.349 . S
C170 H164 0.950 . S
C170 C171 1.327 . S
C171 H165 0.950 . S
C171 C170 1.327 . S
C171 C175 1.429 . S
C172 C155 1.574 . S
C172 H166 0.949 . S
C172 C176 1.368 . S
C173 C154 1.429 . S
C173 C167 1.429 . S
C173 C174 1.523 . S
C174 C155 1.368 . S
C174 C168 1.368 . S
C174 C173 1.523 . S
C175 C159 1.429 . S
C175 C171 1.429 . S
C175 C176 1.523 . S
C176 C160 1.368 . S
C176 C172 1.368 . S
C176 C175 1.523 . S
H177 C152 0.950 . S
H178 C154 0.950 . S
H179 C155 0.949 . S
H180 C157 0.950 . S
H181 C159 0.950 . S
C182 C183 1.349 . S
C182 C184 1.327 . S
C182 H207 0.950 . S
C183 C182 1.349 . S
C183 C199 1.349 . S
C184 C182 1.327 . S
C184 C203 1.429 . S
C184 H208 0.950 . S
C185 C202 1.574 . S
C185 C204 1.368 . S
C185 H209 0.949 . S
H186 C190 0.949 . S
C187 C188 1.349 . S
C187 C189 1.327 . S
C187 H210 0.950 . S
C188 C187 1.349 . S
C188 C200 1.349 . S
C189 C187 1.327 . S
C189 C205 1.429 . S
C189 H211 0.950 . S
C190 H186 0.949 . S
C190 C198 1.574 . S
C190 C206 1.368 . S
H191 C199 0.950 . S
H192 C197 0.950 . S
H193 C198 0.949 . S
H194 C200 0.950 . S
H195 C201 0.950 . S
H196 C202 0.949 . S
C197 H192 0.950 . S
C197 C199 1.327 . S
C197 C203 1.429 . S
C198 C190 1.574 . S
C198 H193 0.949 . S
C198 C204 1.368 . S
C199 C183 1.349 . S
C199 H191 0.950 . S
C199 C197 1.327 . S
C200 C188 1.349 . S
C200 H194 0.950 . S
C200 C201 1.327 . S
C201 H195 0.950 . S
C201 C200 1.327 . S
C201 C205 1.429 . S
C202 C185 1.574 . S
C202 H196 0.949 . S
C202 C206 1.368 . S
C203 C184 1.429 . S
C203 C197 1.429 . S
C203 C204 1.523 . S
C204 C185 1.368 . S
C204 C198 1.368 . S
C204 C203 1.523 . S
C205 C189 1.429 . S
C205 C201 1.429 . S
C205 C206 1.523 . S
C206 C190 1.368 . S
C206 C202 1.368 . S
C206 C205 1.523 . S
H207 C182 0.950 . S
H208 C184 0.950 . S
H209 C185 0.949 . S
H210 C187 0.950 . S
H211 C189 0.950 . S
C212 C213 1.349 . S
C212 C214 1.327 . S
C212 H237 0.950 . S
C213 C212 1.349 . S
C213 C229 1.349 . S
C214 C212 1.327 . S
C214 C233 1.429 . S
C214 H238 0.950 . S
C215 C232 1.574 . S
C215 C234 1.368 . S
C215 H239 0.949 . S
H216 C220 0.949 . S
C217 C218 1.349 . S
C217 C219 1.327 . S
C217 H240 0.950 . S
C218 C217 1.349 . S
C218 C230 1.349 . S
C219 C217 1.327 . S
C219 C235 1.429 . S
C219 H241 0.950 . S
C220 H216 0.949 . S
C220 C228 1.574 . S
C220 C236 1.368 . S
H221 C229 0.950 . S
H222 C227 0.950 . S
H223 C228 0.949 . S
H224 C230 0.950 . S
H225 C231 0.950 . S
H226 C232 0.949 . S
C227 H222 0.950 . S
C227 C229 1.327 . S
C227 C233 1.429 . S
C228 C220 1.574 . S
C228 H223 0.949 . S
C228 C234 1.368 . S
C229 C213 1.349 . S
C229 H221 0.950 . S
C229 C227 1.327 . S
C230 C218 1.349 . S
C230 H224 0.950 . S
C230 C231 1.327 . S
C231 H225 0.950 . S
C231 C230 1.327 . S
C231 C235 1.429 . S
C232 C215 1.574 . S
C232 H226 0.949 . S
C232 C236 1.368 . S
C233 C214 1.429 . S
C233 C227 1.429 . S
C233 C234 1.523 . S
C234 C215 1.368 . S
C234 C228 1.368 . S
C234 C233 1.523 . S
C235 C219 1.429 . S
C235 C231 1.429 . S
C235 C236 1.523 . S
C236 C220 1.368 . S
C236 C232 1.368 . S
C236 C235 1.523 . S
H237 C212 0.950 . S
H238 C214 0.950 . S
H239 C215 0.949 . S
H240 C217 0.950 . S
H241 C219 0.950 . S
C242 C243 1.349 . S
C242 C244 1.327 . S
C242 H267 0.949 . S
C243 C242 1.349 . S
C243 C259 1.349 . S
C244 C242 1.327 . S
C244 C263 1.429 . S
C244 H268 0.950 . S
C245 C262 1.574 . S
C245 C264 1.368 . S
C245 H269 0.949 . S
H246 C250 0.949 . S
C247 C248 1.349 . S
C247 C249 1.327 . S
C247 H270 0.950 . S
C248 C247 1.349 . S
C248 C260 1.349 . S
C249 C247 1.327 . S
C249 C265 1.429 . S
C249 H271 0.950 . S
C250 H246 0.949 . S
C250 C258 1.574 . S
C250 C266 1.368 . S
H251 C259 0.950 . S
H252 C257 0.950 . S
H253 C258 0.949 . S
H254 C260 0.950 . S
H255 C261 0.950 . S
H256 C262 0.949 . S
C257 H252 0.950 . S
C257 C259 1.327 . S
C257 C263 1.429 . S
C258 C250 1.574 . S
C258 H253 0.949 . S
C258 C264 1.368 . S
C259 C243 1.349 . S
C259 H251 0.950 . S
C259 C257 1.327 . S
C260 C248 1.349 . S
C260 H254 0.950 . S
C260 C261 1.327 . S
C261 H255 0.950 . S
C261 C260 1.327 . S
C261 C265 1.429 . S
C262 C245 1.574 . S
C262 H256 0.949 . S
C262 C266 1.368 . S
C263 C244 1.429 . S
C263 C257 1.429 . S
C263 C264 1.523 . S
C264 C245 1.368 . S
C264 C258 1.368 . S
C264 C263 1.523 . S
C265 C249 1.429 . S
C265 C261 1.429 . S
C265 C266 1.523 . S
C266 C250 1.368 . S
C266 C262 1.368 . S
C266 C265 1.523 . S
H267 C242 0.949 . S
H268 C244 0.950 . S
H269 C245 0.949 . S
H270 C247 0.950 . S
H271 C249 0.950 . S
C272 C273 1.349 . S
C272 C274 1.327 . S
C272 H297 0.950 . S
C273 C272 1.349 . S
C273 C289 1.349 . S
C274 C272 1.327 . S
C274 C293 1.429 . S
C274 H298 0.950 . S
C275 C292 1.574 . S
C275 C294 1.368 . S
C275 H299 0.949 . S
H276 C280 0.949 . S
C277 C278 1.349 . S
C277 C279 1.327 . S
C277 H300 0.950 . S
C278 C277 1.349 . S
C278 C290 1.349 . S
C279 C277 1.327 . S
C279 C295 1.429 . S
C279 H301 0.950 . S
C280 H276 0.949 . S
C280 C288 1.574 . S
C280 C296 1.368 . S
H281 C289 0.950 . S
H282 C287 0.950 . S
H283 C288 0.949 . S
H284 C290 0.950 . S
H285 C291 0.950 . S
H286 C292 0.949 . S
C287 H282 0.950 . S
C287 C289 1.327 . S
C287 C293 1.429 . S
C288 C280 1.574 . S
C288 H283 0.949 . S
C288 C294 1.368 . S
C289 C273 1.349 . S
C289 H281 0.950 . S
C289 C287 1.327 . S
C290 C278 1.349 . S
C290 H284 0.950 . S
C290 C291 1.327 . S
C291 H285 0.950 . S
C291 C290 1.327 . S
C291 C295 1.429 . S
C292 C275 1.574 . S
C292 H286 0.949 . S
C292 C296 1.368 . S
C293 C274 1.429 . S
C293 C287 1.429 . S
C293 C294 1.523 . S
C294 C275 1.368 . S
C294 C288 1.368 . S
C294 C293 1.523 . S
C295 C279 1.429 . S
C295 C291 1.429 . S
C295 C296 1.523 . S
C296 C280 1.368 . S
C296 C292 1.368 . S
C296 C295 1.523 . S
H297 C272 0.950 . S
H298 C274 0.950 . S
H299 C275 0.949 . S
H300 C277 0.950 . S
H301 C279 0.950 . S
C302 C303 1.349 . S
C302 C304 1.327 . S
C302 H327 0.950 . S
C303 C302 1.349 . S
C303 C319 1.349 . S
C304 C302 1.327 . S
C304 C323 1.429 . S
C304 H328 0.950 . S
C305 C322 1.574 . S
C305 C324 1.368 . S
C305 H329 0.949 . S
H306 C310 0.949 . S
C307 C308 1.349 . S
C307 C309 1.327 . S
C307 H330 0.950 . S
C308 C307 1.349 . S
C308 C320 1.349 . S
C309 C307 1.327 . S
C309 C325 1.429 . S
C309 H331 0.950 . S
C310 H306 0.949 . S
C310 C318 1.574 . S
C310 C326 1.368 . S
H311 C319 0.950 1_545 S
H312 C317 0.950 . S
H313 C318 0.949 . S
H314 C320 0.950 . S
H315 C321 0.950 . S
H316 C322 0.949 . S
C317 H312 0.950 . S
C317 C319 1.327 . S
C317 C323 1.429 . S
C318 C310 1.574 . S
C318 H313 0.949 . S
C318 C324 1.368 . S
C319 C303 1.349 . S
C319 H311 0.950 1_565 S
C319 C317 1.327 . S
C320 C308 1.349 . S
C320 H314 0.950 . S
C320 C321 1.327 . S
C321 H315 0.950 . S
C321 C320 1.327 . S
C321 C325 1.429 . S
C322 C305 1.574 . S
C322 H316 0.949 . S
C322 C326 1.368 . S
C323 C304 1.429 . S
C323 C317 1.429 . S
C323 C324 1.523 . S
C324 C305 1.368 . S
C324 C318 1.368 . S
C324 C323 1.523 . S
C325 C309 1.429 . S
C325 C321 1.429 . S
C325 C326 1.523 . S
C326 C310 1.368 . S
C326 C322 1.368 . S
C326 C325 1.523 . S
H327 C302 0.950 . S
H328 C304 0.950 . S
H329 C305 0.949 . S
H330 C307 0.950 . S
H331 C309 0.950 . S
C332 C333 1.349 . S
C332 C334 1.327 . S
C332 H357 0.950 . S
C333 C332 1.349 . S
C333 C349 1.349 . S
C334 C332 1.327 . S
C334 C353 1.429 . S
C334 H358 0.950 . S
C335 C352 1.574 . S
C335 C354 1.368 . S
C335 H359 0.949 . S
H336 C340 0.949 . S
C337 C338 1.349 . S
C337 C339 1.327 . S
C337 H360 0.950 . S
C338 C337 1.349 . S
C338 C350 1.349 . S
C339 C337 1.327 . S
C339 C355 1.429 . S
C339 H361 0.950 . S
C340 H336 0.949 . S
C340 C348 1.574 . S
C340 C356 1.368 . S
H341 C349 0.950 . S
H342 C347 0.950 . S
H343 C348 0.949 . S
H344 C350 0.950 . S
H345 C351 0.950 . S
H346 C352 0.949 . S
C347 H342 0.950 . S
C347 C349 1.327 . S
C347 C353 1.429 . S
C348 C340 1.574 . S
C348 H343 0.949 . S
C348 C354 1.368 . S
C349 C333 1.349 . S
C349 H341 0.950 . S
C349 C347 1.327 . S
C350 C338 1.349 . S
C350 H344 0.950 . S
C350 C351 1.327 . S
C351 H345 0.950 . S
C351 C350 1.327 . S
C351 C355 1.429 . S
C352 C335 1.574 . S
C352 H346 0.949 . S
C352 C356 1.368 . S
C353 C334 1.429 . S
C353 C347 1.429 . S
C353 C354 1.523 . S
C354 C335 1.368 . S
C354 C348 1.368 . S
C354 C353 1.523 . S
C355 C339 1.429 . S
C355 C351 1.429 . S
C355 C356 1.523 . S
C356 C340 1.368 . S
C356 C352 1.368 . S
C356 C355 1.523 . S
H357 C332 0.950 . S
H358 C334 0.950 . S
H359 C335 0.949 . S
H360 C337 0.950 . S
H361 C339 0.950 . S
C362 C363 1.349 . S
C362 C364 1.327 . S
C362 H387 0.950 . S
C363 C362 1.349 . S
C363 C379 1.349 . S
C364 C362 1.327 . S
C364 C383 1.429 . S
C364 H388 0.950 . S
C365 C382 1.574 . S
C365 C384 1.368 . S
C365 H389 0.949 . S
H366 C370 0.949 . S
C367 C368 1.349 . S
C367 C369 1.327 . S
C367 H390 0.950 . S
C368 C367 1.349 . S
C368 C380 1.349 . S
C369 C367 1.327 . S
C369 C385 1.429 . S
C369 H391 0.950 . S
C370 H366 0.949 . S
C370 C378 1.574 . S
C370 C386 1.368 . S
H371 C379 0.950 . S
H372 C377 0.950 . S
H373 C378 0.949 . S
H374 C380 0.950 . S
H375 C381 0.950 . S
H376 C382 0.949 . S
C377 H372 0.950 . S
C377 C379 1.327 . S
C377 C383 1.429 . S
C378 C370 1.574 . S
C378 H373 0.949 . S
C378 C384 1.368 . S
C379 C363 1.349 . S
C379 H371 0.950 . S
C379 C377 1.327 . S
C380 C368 1.349 . S
C380 H374 0.950 . S
C380 C381 1.327 . S
C381 H375 0.950 . S
C381 C380 1.327 . S
C381 C385 1.429 . S
C382 C365 1.574 . S
C382 H376 0.949 . S
C382 C386 1.368 . S
C383 C364 1.429 . S
C383 C377 1.429 . S
C383 C384 1.523 . S
C384 C365 1.368 . S
C384 C378 1.368 . S
C384 C383 1.523 . S
C385 C369 1.429 . S
C385 C381 1.429 . S
C385 C386 1.523 . S
C386 C370 1.368 . S
C386 C382 1.368 . S
C386 C385 1.523 . S
H387 C362 0.950 . S
H388 C364 0.950 . S
H389 C365 0.949 . S
H390 C367 0.950 . S
H391 C369 0.950 . S
C392 C393 1.349 . S
C392 C394 1.327 . S
C392 H417 0.950 . S
C393 C392 1.349 . S
C393 C409 1.349 . S
C394 C392 1.327 . S
C394 C413 1.429 . S
C394 H418 0.950 . S
C395 C412 1.574 . S
C395 C414 1.368 . S
C395 H419 0.949 . S
H396 C400 0.949 . S
C397 C398 1.349 . S
C397 C399 1.327 . S
C397 H420 0.950 . S
C398 C397 1.349 . S
C398 C410 1.349 . S
C399 C397 1.327 . S
C399 C415 1.429 . S
C399 H421 0.950 . S
C400 H396 0.949 . S
C400 C408 1.574 . S
C400 C416 1.368 . S
H401 C409 0.950 . S
H402 C407 0.950 . S
H403 C408 0.949 . S
H404 C410 0.950 . S
H405 C411 0.950 . S
H406 C412 0.949 . S
C407 H402 0.950 . S
C407 C409 1.327 . S
C407 C413 1.429 . S
C408 C400 1.574 . S
C408 H403 0.949 . S
C408 C414 1.368 . S
C409 C393 1.349 . S
C409 H401 0.950 . S
C409 C407 1.327 . S
C410 C398 1.349 . S
C410 H404 0.950 . S
C410 C411 1.327 . S
C411 H405 0.950 . S
C411 C410 1.327 . S
C411 C415 1.429 . S
C412 C395 1.574 . S
C412 H406 0.949 . S
C412 C416 1.368 . S
C413 C394 1.429 . S
C413 C407 1.429 . S
C413 C414 1.523 . S
C414 C395 1.368 . S
C414 C408 1.368 . S
C414 C413 1.523 . S
C415 C399 1.429 . S
C415 C411 1.429 . S
C415 C416 1.523 . S
C416 C400 1.368 . S
C416 C412 1.368 . S
C416 C415 1.523 . S
H417 C392 0.950 . S
H418 C394 0.950 . S
H419 C395 0.949 . S
H420 C397 0.950 . S
H421 C399 0.950 . S
C422 C423 1.349 . S
C422 C424 1.327 . S
C422 H447 0.950 . S
C423 C422 1.349 . S
C423 C439 1.349 . S
C424 C422 1.327 . S
C424 C443 1.429 . S
C424 H448 0.950 . S
C425 C442 1.574 . S
C425 C444 1.368 . S
C425 H449 0.949 . S
H426 C430 0.949 . S
C427 C428 1.349 . S
C427 C429 1.327 . S
C427 H450 0.950 . S
C428 C427 1.349 . S
C428 C440 1.349 . S
C429 C427 1.327 . S
C429 C445 1.429 . S
C429 H451 0.950 . S
C430 H426 0.949 . S
C430 C438 1.574 . S
C430 C446 1.368 . S
H431 C439 0.950 . S
H432 C437 0.950 . S
H433 C438 0.949 . S
H434 C440 0.950 . S
H435 C441 0.950 . S
H436 C442 0.949 . S
C437 H432 0.950 . S
C437 C439 1.327 . S
C437 C443 1.429 . S
C438 C430 1.574 . S
C438 H433 0.949 . S
C438 C444 1.368 . S
C439 C423 1.349 . S
C439 H431 0.950 . S
C439 C437 1.327 . S
C440 C428 1.349 . S
C440 H434 0.950 . S
C440 C441 1.327 . S
C441 H435 0.950 . S
C441 C440 1.327 . S
C441 C445 1.429 . S
C442 C425 1.574 . S
C442 H436 0.949 . S
C442 C446 1.368 . S
C443 C424 1.429 . S
C443 C437 1.429 . S
C443 C444 1.523 . S
C444 C425 1.368 . S
C444 C438 1.368 . S
C444 C443 1.523 . S
C445 C429 1.429 . S
C445 C441 1.429 . S
C445 C446 1.523 . S
C446 C430 1.368 . S
C446 C442 1.368 . S
C446 C445 1.523 . S
H447 C422 0.950 . S
H448 C424 0.950 . S
H449 C425 0.949 . S
H450 C427 0.950 . S
H451 C429 0.950 . S
C452 C453 1.349 . S
C452 C454 1.327 . S
C452 H477 0.950 1_655 S
C453 C452 1.349 . S
C453 C469 1.349 . S
C454 C452 1.327 . S
C454 C473 1.429 . S
C454 H478 0.950 . S
C455 C472 1.574 . S
C455 C474 1.368 . S
C455 H479 0.949 . S
H456 C460 0.949 . S
C457 C458 1.349 . S
C457 C459 1.327 . S
C457 H480 0.950 . S
C458 C457 1.349 . S
C458 C470 1.349 . S
C459 C457 1.327 . S
C459 C475 1.429 . S
C459 H481 0.950 . S
C460 H456 0.949 . S
C460 C468 1.574 . S
C460 C476 1.368 . S
H461 C469 0.950 1_554 S
H462 C467 0.950 . S
H463 C468 0.949 . S
H464 C470 0.950 . S
H465 C471 0.950 . S
H466 C472 0.949 . S
C467 H462 0.950 . S
C467 C469 1.327 . S
C467 C473 1.429 . S
C468 C460 1.574 . S
C468 H463 0.949 . S
C468 C474 1.368 . S
C469 C453 1.349 . S
C469 H461 0.950 1_556 S
C469 C467 1.327 . S
C470 C458 1.349 . S
C470 H464 0.950 . S
C470 C471 1.327 . S
C471 H465 0.950 . S
C471 C470 1.327 . S
C471 C475 1.429 . S
C472 C455 1.574 . S
C472 H466 0.949 . S
C472 C476 1.368 . S
C473 C454 1.429 . S
C473 C467 1.429 . S
C473 C474 1.523 . S
C474 C455 1.368 . S
C474 C468 1.368 . S
C474 C473 1.523 . S
C475 C459 1.429 . S
C475 C471 1.429 . S
C475 C476 1.523 . S
C476 C460 1.368 . S
C476 C472 1.368 . S
C476 C475 1.523 . S
H477 C452 0.950 1_455 S
H478 C454 0.950 . S
H479 C455 0.949 . S
H480 C457 0.950 . S
H481 C459 0.950 . S
C123 C5 1.175 . S
C128 C99 1.087 . S
C153 C55 0.936 . S
C158 C105 0.878 . S
C183 C19 1.174 . S
C188 C96 1.107 . S
C213 C49 2.057 . S
C218 C121 1.932 . S
C243 C8 2.002 . S
C248 C87 1.912 . S
C278 C104 1.890 . S
C273 C48 1.976 . S
C303 C59 1.862 . S
C308 C100 1.756 . S
C338 C117 2.061 . S
C333 C18 2.132 . S
C368 C84 2.095 . S
C363 C58 2.246 . S
C398 C120 1.147 . S
C393 C15 1.263 . S
C428 C83 0.889 . S
C423 C45 0.942 . S
C458 C108 0.924 . S
C453 C9 0.979 . S
