# Generated by pormake.
# Topology pth, (4,4)-cn, num edge types: 1
# Building blocks:
#     Node 0, Type 0, BuildingBlock: KUFVIS_clean_sbu_0, # of connection points: 4
#     Node 1, Type 0, BuildingBlock: KUFVIS_clean_sbu_0, # of connection points: 4
#     Node 2, Type 0, BuildingBlock: KUFVIS_clean_sbu_0, # of connection points: 4
#     Node 3, Type 1, BuildingBlock: KOZSID_clean_sbu_0, # of connection points: 4
#     Node 4, Type 1, BuildingBlock: KOZSID_clean_sbu_0, # of connection points: 4
#     Node 5, Type 1, BuildingBlock: KOZSID_clean_sbu_0, # of connection points: 4
#     Edge 6, Type (0, 1), BuildingBlock: UVAHIK_clean_linker_0, # of connection points: 2
#     Edge 7, Type (0, 1), BuildingBlock: UVAHIK_clean_linker_0, # of connection points: 2
#     Edge 8, Type (0, 1), BuildingBlock: UVAHIK_clean_linker_0, # of connection points: 2
#     Edge 9, Type (0, 1), BuildingBlock: UVAHIK_clean_linker_0, # of connection points: 2
#     Edge 10, Type (0, 1), BuildingBlock: UVAHIK_clean_linker_0, # of connection points: 2
#     Edge 11, Type (0, 1), BuildingBlock: UVAHIK_clean_linker_0, # of connection points: 2
#     Edge 12, Type (0, 1), BuildingBlock: UVAHIK_clean_linker_0, # of connection points: 2
#     Edge 13, Type (0, 1), BuildingBlock: UVAHIK_clean_linker_0, # of connection points: 2
#     Edge 14, Type (0, 1), BuildingBlock: UVAHIK_clean_linker_0, # of connection points: 2
#     Edge 15, Type (0, 1), BuildingBlock: UVAHIK_clean_linker_0, # of connection points: 2
#     Edge 16, Type (0, 1), BuildingBlock: UVAHIK_clean_linker_0, # of connection points: 2
#     Edge 17, Type (0, 1), BuildingBlock: UVAHIK_clean_linker_0, # of connection points: 2
# Relax obj value: 0.010
# Max RMSD: 0.082
# Mean RMSD: 0.051
data_MOF--net-pth--node1-KUFVIS_clean_sbu_0--node2-KOZSID_clean_sbu_0--edge1-UVAHIK_clean_linker_0
_symmetry_space_group_name_H-M    P1
_symmetry_Int_Tables_number       1
_symmetry_cell_setting            triclinic
loop_
_symmetry_equiv_pos_as_xyz
'x, y, z'
_cell_length_a     33.260366
_cell_length_b     33.370188
_cell_length_c     77.173661
_cell_angle_alpha  88.207279
_cell_angle_beta   89.696084
_cell_angle_gamma 120.26397
loop_
_atom_site_label
_atom_site_type_symbol
_atom_site_fract_x
_atom_site_fract_y
_atom_site_fract_z
_atom_type_partial_charge
Mn0 Mn 0.08299 0.05247 0.04619 0.0
Mn1 Mn 0.01766 0.08622 0.02369 0.0
C2 C 0.03512 0.00651 0.02473 0.0
C3 C 0.09209 0.0136 0.07014 0.0
C4 C 0.12215 0.12897 0.01774 0.0
O5 O 0.08451 0.10313 0.06085 0.0
O6 O 0.03305 0.11629 0.04647 0.0
C7 C 0.93247 0.04168 0.04607 0.0
N8 N 0.95338 0.04794 0.03021 0.0
C9 C 0.88014 0.99608 0.01738 0.0
C10 C 0.85774 0.98957 0.03353 0.0
C11 C 0.88405 0.01235 0.04795 0.0
C12 C 0.92844 0.02595 0.01628 0.0
H13 H 0.95263 0.05877 0.05721 0.0
C14 C 0.05995 0.12256 0.05922 0.0
O15 O 0.12785 0.04592 0.06138 0.0
O16 O 0.0513 0.00517 0.06539 0.0
N17 N 0.99988 0.05931 0.00148 0.0
C18 C 0.02716 0.06689 0.9871 0.0
C19 C 0.00641 0.04521 0.9717 0.0
C20 C 0.95786 0.01626 0.97119 0.0
C21 C 0.93047 0.00936 0.98608 0.0
C22 C 0.95305 0.03218 0.00103 0.0
H23 H 0.06449 0.08911 0.9874 0.0
O24 O 0.06966 0.00192 0.02991 0.0
O25 O 0.02929 0.03736 0.03242 0.0
O26 O 0.12742 0.10181 0.02828 0.0
O27 O 0.08312 0.12707 0.01565 0.0
C28 C 0.88174 0.97993 0.98679 0.0
C29 C 0.85661 0.97325 0.00244 0.0
H30 H 0.82044 0.96672 0.03506 0.0
H31 H 0.86707 0.00716 0.06049 0.0
H32 H 0.0278 0.05066 0.96026 0.0
H33 H 0.94204 0.99921 0.95933 0.0
H34 H 0.86336 0.96165 0.97546 0.0
H35 H 0.81926 0.94992 0.0029 0.0
Mn36 Mn 0.03593 0.05731 0.37802 0.0
Mn37 Mn 0.09984 0.15696 0.3988 0.0
C38 C 0.08417 0.06047 0.40014 0.0
C39 C 0.02754 0.00913 0.35534 0.0
C40 C 0.99581 0.09328 0.40521 0.0
O41 O 0.03396 0.10577 0.36179 0.0
O42 O 0.08173 0.17066 0.37583 0.0
C43 C 0.18335 0.20103 0.37556 0.0
N44 N 0.16379 0.1852 0.39168 0.0
C45 C 0.23862 0.20986 0.40403 0.0
C46 C 0.25962 0.22669 0.38757 0.0
C47 C 0.23183 0.22212 0.37327 0.0
C48 C 0.19016 0.18922 0.40551 0.0
H49 H 0.16209 0.19757 0.36454 0.0
C50 C 0.05603 0.14988 0.36301 0.0
O51 O 0.99155 0.00526 0.3636 0.0
O52 O 0.06812 0.0419 0.35987 0.0
N53 N 0.12 0.14889 0.42115 0.0
C54 C 0.09407 0.12847 0.43592 0.0
C55 C 0.11646 0.12865 0.45132 0.0
C56 C 0.16523 0.15022 0.45141 0.0
C57 C 0.19119 0.17146 0.43609 0.0
C58 C 0.16698 0.17024 0.42115 0.0
H59 H 0.05658 0.11197 0.43593 0.0
O60 O 0.04969 0.02094 0.39568 0.0
O61 O 0.08958 0.09693 0.39145 0.0
O62 O 0.99076 0.06173 0.39502 0.0
O63 O 0.03484 0.13025 0.4073 0.0
C64 C 0.24009 0.19317 0.435 0.0
C65 C 0.26378 0.21215 0.41896 0.0
H66 H 0.29699 0.24286 0.38574 0.0
H67 H 0.24776 0.23484 0.36052 0.0
H68 H 0.09617 0.11217 0.46309 0.0
H69 H 0.18236 0.15003 0.46329 0.0
H70 H 0.25978 0.19486 0.44636 0.0
H71 H 0.30132 0.22803 0.41823 0.0
Mn72 Mn 0.08049 0.04965 0.70957 0.0
Mn73 Mn 0.04946 0.11287 0.73374 0.0
C74 C 0.12775 0.09357 0.73154 0.0
C75 C 0.11873 0.04362 0.68514 0.0
C76 C 0.00598 0.00838 0.73871 0.0
O77 O 0.03045 0.05185 0.69515 0.0
O78 O 0.0153 0.09755 0.7116 0.0
C79 C 0.08999 0.19799 0.71103 0.0
N80 N 0.08676 0.17701 0.72681 0.0
C81 C 0.14125 0.24994 0.7389 0.0
C82 C 0.14495 0.27238 0.7228 0.0
C83 C 0.11929 0.24626 0.7088 0.0
C84 C 0.11142 0.20178 0.74035 0.0
H85 H 0.07043 0.17802 0.70022 0.0
C86 C 0.0091 0.07391 0.69807 0.0
O87 O 0.08576 0.00692 0.6933 0.0
O88 O 0.12815 0.08349 0.69083 0.0
N89 N 0.0799 0.13055 0.75548 0.0
C90 C 0.07397 0.10337 0.76992 0.0
C91 C 0.09776 0.12406 0.78503 0.0
C92 C 0.12714 0.17244 0.78518 0.0
C93 C 0.1324 0.19973 0.77021 0.0
C94 C 0.10743 0.17722 0.75559 0.0
H95 H 0.05153 0.06617 0.76988 0.0
O96 O 0.13098 0.05914 0.72582 0.0
O97 O 0.09721 0.10142 0.72417 0.0
O98 O 0.03017 0.00332 0.72698 0.0
O99 O 0.01026 0.04761 0.74207 0.0
C100 C 0.16203 0.24829 0.76913 0.0
C101 C 0.16656 0.27336 0.75347 0.0
H102 H 0.16764 0.30958 0.72101 0.0
H103 H 0.12213 0.2633 0.69631 0.0
H104 H 0.09359 0.10275 0.79652 0.0
H105 H 0.1457 0.18823 0.79682 0.0
H106 H 0.18201 0.26661 0.7802 0.0
H107 H 0.18992 0.3106 0.75274 0.0
C108 C 0.11334 0.65059 0.18915 0.0
C109 C 0.15934 0.68544 0.18622 0.0
C110 C 0.18575 0.67526 0.1969 0.0
C111 C 0.15464 0.63518 0.20582 0.0
N112 N 0.10986 0.61877 0.20138 0.0
Co113 Co 0.05335 0.56285 0.21194 0.0
N114 N 0.09188 0.55179 0.22926 0.0
C115 C 0.13836 0.57823 0.23134 0.0
C116 C 0.15507 0.56203 0.2443 0.0
C117 C 0.11709 0.52248 0.25077 0.0
C118 C 0.07935 0.51666 0.24123 0.0
N119 N 0.99695 0.5063 0.22224 0.0
C120 C 0.99363 0.47467 0.23453 0.0
C121 C 0.948 0.43873 0.23706 0.0
C122 C 0.92158 0.44774 0.22593 0.0
C123 C 0.95243 0.48835 0.21719 0.0
N124 N 0.01467 0.57467 0.19491 0.0
C125 C 0.96796 0.54908 0.19321 0.0
C126 C 0.95108 0.56616 0.18063 0.0
C127 C 0.98912 0.60562 0.17414 0.0
C128 C 0.02713 0.61049 0.18326 0.0
N129 N 0.06136 0.52272 0.19534 0.0
C130 C 0.071 0.46265 0.17303 0.0
C131 C 0.02992 0.46415 0.17371 0.0
C132 C 0.02567 0.49379 0.185 0.0
C133 C 0.10748 0.49197 0.18347 0.0
C134 C 0.10223 0.52205 0.19426 0.0
N135 N 0.04536 0.60301 0.22847 0.0
C136 C 0.99687 0.62898 0.24184 0.0
C137 C 0.03551 0.66575 0.24937 0.0
C138 C 0.07885 0.66931 0.24675 0.0
C139 C 0.08296 0.63801 0.23633 0.0
C140 C 0.00249 0.59812 0.23165 0.0
H141 H 0.11709 0.64332 0.23464 0.0
H142 H 0.97175 0.57111 0.2262 0.0
H143 H 0.99294 0.49217 0.18522 0.0
H144 H 0.13166 0.54417 0.20165 0.0
C145 C 0.16585 0.61566 0.2199 0.0
C146 C 0.07397 0.65059 0.18079 0.0
C147 C 0.03285 0.47607 0.24347 0.0
C148 C 0.94089 0.50944 0.20376 0.0
H149 H 0.17259 0.71604 0.17772 0.0
H150 H 0.22298 0.69589 0.19857 0.0
H151 H 0.19081 0.57643 0.2482 0.0
H152 H 0.11736 0.49982 0.26106 0.0
H153 H 0.93521 0.40852 0.24576 0.0
H154 H 0.88447 0.42658 0.22409 0.0
H155 H 0.91529 0.55198 0.17682 0.0
H156 H 0.98878 0.62862 0.16401 0.0
H157 H 1.00071 0.4417 0.16585 0.0
H158 H 0.1401 0.49207 0.18318 0.0
H159 H 0.96248 0.62458 0.24336 0.0
H160 H 0.10977 0.69629 0.25264 0.0
C161 C 0.46253 0.00213 0.56821 0.0
C162 C 0.43113 0.95938 0.57601 0.0
C163 C 0.44382 0.92847 0.57059 0.0
C164 C 0.48206 0.95399 0.55982 0.0
N165 N 0.49417 0.99896 0.55814 0.0
Co166 Co 0.54664 0.04789 0.54373 0.0
N167 N 0.55086 0.00099 0.52979 0.0
C168 C 0.53128 0.95537 0.53408 0.0
C169 C 0.54016 0.93127 0.52204 0.0
C170 C 0.56777 0.96383 0.50954 0.0
C171 C 0.57454 0.00625 0.51475 0.0
N172 N 0.5995 0.09716 0.52949 0.0
C173 C 0.6196 0.09439 0.51458 0.0
C174 C 0.65714 0.13751 0.50946 0.0
C175 C 0.66112 0.16792 0.52175 0.0
C176 C 0.62598 0.14194 0.53366 0.0
N177 N 0.54203 0.0944 0.55772 0.0
C178 C 0.57505 0.1392 0.55908 0.0
C179 C 0.56139 0.16286 0.5696 0.0
C180 C 0.517 0.13085 0.57521 0.0
C181 C 0.50614 0.0894 0.56774 0.0
N182 N 0.59092 0.04677 0.56011 0.0
C183 C 0.65531 0.04643 0.58334 0.0
C184 C 0.61533 0.04613 0.5894 0.0
C185 C 0.58356 0.04616 0.5776 0.0
C186 C 0.66219 0.04681 0.56541 0.0
C187 C 0.62979 0.04701 0.55409 0.0
N188 N 0.50242 0.04912 0.52744 0.0
C189 C 0.4753 0.09237 0.51061 0.0
C190 C 0.43585 0.05115 0.50581 0.0
C191 C 0.43117 0.00886 0.51184 0.0
C192 C 0.46487 0.00861 0.5225 0.0
C193 C 0.50789 0.09059 0.52145 0.0
H194 H 0.46003 0.97557 0.52702 0.0
H195 H 0.53727 0.1229 0.52517 0.0
H196 H 0.55305 0.04577 0.58263 0.0
H197 H 0.63657 0.04768 0.54043 0.0
C198 C 0.5011 0.93572 0.54851 0.0
C199 C 0.46274 0.04538 0.57114 0.0
C200 C 0.60906 0.05098 0.50645 0.0
C201 C 0.61397 0.15926 0.54785 0.0
H202 H 0.40196 0.95132 0.58459 0.0
H203 H 0.42579 0.89141 0.57344 0.0
H204 H 0.52774 0.8944 0.52223 0.0
H205 H 0.58265 0.95739 0.4982 0.0
H206 H 0.68032 0.14585 0.49834 0.0
H207 H 0.68645 0.20463 0.52192 0.0
H208 H 0.58049 0.19946 0.57224 0.0
H209 H 0.49511 0.13726 0.58376 0.0
H210 H 0.60835 0.04539 0.60317 0.0
H211 H 0.69289 0.04778 0.56009 0.0
H212 H 0.48116 0.12594 0.50604 0.0
H213 H 0.40116 0.97602 0.50871 0.0
C214 C 0.66212 0.58673 0.85143 0.0
C215 C 0.69755 0.57927 0.84589 0.0
C216 C 0.69304 0.54218 0.8555 0.0
C217 C 0.65549 0.52924 0.86638 0.0
N218 N 0.63534 0.55556 0.86423 0.0
Co219 Co 0.58135 0.55022 0.87807 0.0
N220 N 0.57729 0.49805 0.89311 0.0
C221 C 0.60541 0.47973 0.89236 0.0
C222 C 0.59362 0.44376 0.90416 0.0
C223 C 0.55531 0.43836 0.91288 0.0
C224 C 0.54584 0.47138 0.90579 0.0
N225 N 0.52713 0.54464 0.8918 0.0
C226 C 0.50037 0.51343 0.90458 0.0
C227 C 0.46479 0.52066 0.9101 0.0
C228 C 0.46902 0.55754 0.90043 0.0
C229 C 0.50661 0.57057 0.88955 0.0
N230 N 0.58561 0.60258 0.86312 0.0
C231 C 0.55784 0.6213 0.86404 0.0
C232 C 0.56929 0.65695 0.85213 0.0
C233 C 0.6071 0.66185 0.84321 0.0
C234 C 0.61675 0.62895 0.85031 0.0
N235 N 0.5373 0.5044 0.86176 0.0
C236 C 0.47241 0.43692 0.83985 0.0
C237 C 0.46808 0.47468 0.84457 0.0
C238 C 0.50066 0.50775 0.85539 0.0
C239 C 0.51018 0.43392 0.8461 0.0
C240 C 0.5419 0.46771 0.85692 0.0
N241 N 0.62544 0.59606 0.89439 0.0
C242 C 0.65097 0.66487 0.91097 0.0
C243 C 0.69051 0.66367 0.91616 0.0
C244 C 0.69651 0.62765 0.91054 0.0
C245 C 0.66369 0.59433 0.89987 0.0
C246 C 0.61927 0.63114 0.9001 0.0
H247 H 0.67028 0.56774 0.89614 0.0
H248 H 0.59037 0.63453 0.89635 0.0
H249 H 0.49526 0.53552 0.85849 0.0
H250 H 0.56955 0.46306 0.86135 0.0
C251 C 0.64067 0.495 0.87966 0.0
C252 C 0.65681 0.62526 0.8448 0.0
C253 C 0.50579 0.47503 0.91122 0.0
C254 C 0.52204 0.60546 0.87653 0.0
H255 H 0.72473 0.59924 0.83626 0.0
H256 H 0.71547 0.52742 0.85501 0.0
H257 H 0.61019 0.42316 0.90592 0.0
H258 H 0.53598 0.41251 0.92309 0.0
H259 H 0.43784 0.50072 0.91983 0.0
H260 H 0.44659 0.5723 0.90095 0.0
H261 H 0.55257 0.6774 0.85033 0.0
H262 H 0.62588 0.68726 0.83281 0.0
H263 H 0.43983 0.47899 0.83984 0.0
H264 H 0.51486 0.40509 0.84295 0.0
H265 H 0.64501 0.69234 0.91495 0.0
H266 H 0.7263 0.62491 0.91446 0.0
C267 C 0.10406 0.18296 0.08106 0.0
C268 C 0.06242 0.15457 0.07256 0.0
C269 C 0.10696 0.21623 0.09244 0.0
C270 C 0.04451 0.27935 0.10366 0.0
H271 H 0.12724 0.31859 0.14255 0.0
C272 C 0.06852 0.43189 0.14373 0.0
C273 C 0.07527 0.43019 0.16159 0.0
C274 C 0.07031 0.39988 0.13298 0.0
C275 C 0.10345 0.30773 0.13189 0.0
H276 H 0.99051 0.13684 0.07004 0.0
H277 H 0.99452 0.19226 0.09051 0.0
H278 H 0.12159 0.25733 0.12469 0.0
H279 H 0.08926 0.39413 0.18232 0.0
H280 H 0.09005 0.33655 0.16379 0.0
H281 H 0.02408 0.32737 0.11137 0.0
C282 C 0.0258 0.19093 0.08787 0.0
C283 C 0.10078 0.27294 0.12142 0.0
C284 C 0.02328 0.15864 0.07622 0.0
C285 C 0.08429 0.39623 0.16853 0.0
C286 C 0.08502 0.36345 0.15784 0.0
C287 C 0.04646 0.31332 0.11429 0.0
C288 C 0.06797 0.22111 0.09583 0.0
C289 C 0.0712 0.25818 0.10714 0.0
C290 C 0.07765 0.36454 0.1399 0.0
C291 C 0.07608 0.32827 0.12854 0.0
H292 H 0.13487 0.18074 0.0784 0.0
H293 H 0.14021 0.23899 0.09812 0.0
H294 H 0.02207 0.26999 0.0926 0.0
H295 H 0.06195 0.45813 0.13809 0.0
H296 H 0.0658 0.40294 0.11922 0.0
C297 C 0.91026 0.04784 0.41341 0.0
C298 C 0.95453 0.0874 0.41509 0.0
C299 C 0.87162 0.04295 0.4227 0.0
C300 C 0.84099 0.08575 0.46142 0.0
H301 H 0.72013 0.0353 0.44041 0.0
C302 C 0.6504 0.06628 0.47744 0.0
C303 C 0.64564 0.0519 0.49497 0.0
C304 C 0.68677 0.06931 0.46714 0.0
C305 C 0.75373 0.04976 0.44642 0.0
H306 H 0.99246 0.15301 0.42787 0.0
H307 H 0.92539 0.14466 0.44379 0.0
H308 H 0.78639 0.0437 0.4234 0.0
H309 H 0.67438 0.02924 0.51557 0.0
H310 H 0.73714 0.03357 0.49765 0.0
H311 H 0.80891 0.09281 0.48427 0.0
C312 C 0.92055 0.11704 0.4355 0.0
C313 C 0.79158 0.05406 0.43674 0.0
C314 C 0.95907 0.12192 0.42626 0.0
C315 C 0.67735 0.04023 0.50203 0.0
C316 C 0.71348 0.04313 0.4918 0.0
C317 C 0.80328 0.08146 0.47106 0.0
C318 C 0.87635 0.07745 0.43391 0.0
C319 C 0.83571 0.07219 0.44413 0.0
C320 C 0.71904 0.05819 0.47427 0.0
C321 C 0.75912 0.06328 0.46373 0.0
H322 H 0.90538 0.02053 0.40494 0.0
H323 H 0.83818 0.01177 0.42131 0.0
H324 H 0.87428 0.09935 0.46761 0.0
H325 H 0.62644 0.07579 0.47183 0.0
H326 H 0.69032 0.08146 0.45374 0.0
C327 C 0.95469 0.92177 0.74357 0.0
C328 C 0.97097 0.96705 0.74912 0.0
C329 C 0.92034 0.88325 0.75325 0.0
C330 C 0.82966 0.8523 0.78798 0.0
H331 H 0.83115 0.73694 0.79189 0.0
C332 C 0.71964 0.70788 0.83932 0.0
C333 C 0.69359 0.66268 0.83336 0.0
C334 C 0.753 0.74373 0.82848 0.0
C335 C 0.83018 0.76888 0.79079 0.0
H336 H 0.96475 0.00707 0.76953 0.0
H337 H 0.90675 0.9405 0.78658 0.0
H338 H 0.89083 0.80199 0.7741 0.0
H339 H 0.68155 0.61915 0.81154 0.0
H340 H 0.7411 0.68186 0.79259 0.0
H341 H 0.76986 0.81953 0.8051 0.0
C342 C 0.91907 0.93445 0.77448 0.0
C343 C 0.86423 0.80613 0.78054 0.0
C344 C 0.9528 0.9728 0.76473 0.0
C345 C 0.70169 0.65373 0.81643 0.0
C346 C 0.73564 0.68949 0.80564 0.0
C347 C 0.79614 0.81537 0.79838 0.0
C348 C 0.90186 0.88912 0.76881 0.0
C349 C 0.86468 0.84854 0.77912 0.0
C350 C 0.76132 0.73493 0.81152 0.0
C351 C 0.79621 0.7734 0.79999 0.0
H352 H 0.96777 0.91609 0.73157 0.0
H353 H 0.90767 0.84897 0.74835 0.0
H354 H 0.82795 0.88383 0.78687 0.0
H355 H 0.71385 0.71547 0.85234 0.0
H356 H 0.77254 0.77835 0.83338 0.0
C357 C 0.06085 0.95912 0.09614 0.0
C358 C 0.09697 0.98446 0.08382 0.0
C359 C 0.06299 0.92744 0.10785 0.0
C360 C 0.10281 0.84619 0.11063 0.0
H361 H 0.0914 0.84738 0.16059 0.0
C362 C 0.10738 0.70585 0.15485 0.0
C363 C 0.08082 0.69195 0.17033 0.0
C364 C 0.11293 0.74421 0.14494 0.0
C365 C 0.09382 0.84591 0.14666 0.0
H366 H 0.16396 0.99716 0.07428 0.0
H367 H 0.16688 0.94048 0.09443 0.0
H368 H 0.09412 0.91001 0.14246 0.0
H369 H 0.03818 0.70606 0.18747 0.0
H370 H 0.04525 0.77118 0.16977 0.0
H371 H 0.09978 0.78113 0.11444 0.0
C372 C 0.13738 0.94582 0.09515 0.0
C373 C 0.09582 0.88213 0.13632 0.0
C374 C 0.13579 0.97835 0.08371 0.0
C375 C 0.05922 0.71652 0.17562 0.0
C376 C 0.06378 0.75418 0.16553 0.0
C377 C 0.0997 0.80942 0.12089 0.0
C378 C 0.10075 0.91976 0.10717 0.0
C379 C 0.1004 0.88256 0.11824 0.0
C380 C 0.09084 0.76877 0.15003 0.0
C381 C 0.09514 0.80864 0.13909 0.0
H382 H 0.0305 0.96313 0.0965 0.0
H383 H 0.03425 0.90754 0.11697 0.0
H384 H 0.10572 0.84552 0.09666 0.0
H385 H 0.12394 0.68703 0.15043 0.0
H386 H 0.13475 0.75459 0.13332 0.0
C387 C 0.10758 0.03647 0.42745 0.0
C388 C 0.12006 0.0614 0.41148 0.0
C389 C 0.14158 0.03553 0.43778 0.0
C390 C 0.26831 0.09801 0.44487 0.0
H391 H 0.24299 0.9825 0.46803 0.0
C392 C 0.38832 0.08744 0.49662 0.0
C393 C 0.39958 0.05233 0.49485 0.0
C394 C 0.35429 0.08856 0.4864 0.0
C395 C 0.25055 0.01498 0.46161 0.0
H396 H 0.17668 0.10158 0.39302 0.0
H397 H 0.23634 0.10045 0.41107 0.0
H398 H 0.1833 0.98438 0.45024 0.0
H399 H 0.3837 0.99107 0.48064 0.0
H400 H 0.32346 0.99246 0.46319 0.0
H401 H 0.33558 0.12858 0.45625 0.0
C402 C 0.20066 0.0829 0.41594 0.0
C403 C 0.21626 0.01617 0.45156 0.0
C404 C 0.16664 0.08373 0.40564 0.0
C405 C 0.37554 0.01819 0.48263 0.0
C406 C 0.34109 0.01902 0.47256 0.0
C407 C 0.30235 0.09697 0.45511 0.0
C408 C 0.18856 0.05887 0.43216 0.0
C409 C 0.22477 0.0577 0.44304 0.0
C410 C 0.33021 0.05429 0.47431 0.0
C411 C 0.29389 0.05541 0.46354 0.0
H412 H 0.07161 0.01816 0.432 0.0
H413 H 0.13114 0.01688 0.45023 0.0
H414 H 0.27605 0.13052 0.43848 0.0
H415 H 0.40525 0.11378 0.50611 0.0
H416 H 0.34621 0.11584 0.48818 0.0
C417 C 0.19036 0.17396 0.73695 0.0
C418 C 0.16414 0.12724 0.7426 0.0
C419 C 0.22517 0.20638 0.74729 0.0
C420 C 0.31247 0.2637 0.76768 0.0
H421 H 0.28665 0.25675 0.81708 0.0
C422 C 0.45188 0.38196 0.81554 0.0
C423 C 0.43763 0.40079 0.82864 0.0
C424 C 0.41915 0.34785 0.80505 0.0
C425 C 0.29428 0.25933 0.8033 0.0
H426 H 0.15579 0.07655 0.76257 0.0
H427 H 0.21666 0.13336 0.78088 0.0
H428 H 0.229 0.19848 0.79853 0.0
H429 H 0.37764 0.39803 0.84111 0.0
H430 H 0.3206 0.33911 0.82262 0.0
H431 H 0.37734 0.32503 0.77237 0.0
C432 C 0.20953 0.14525 0.76869 0.0
C433 C 0.26147 0.22563 0.7927 0.0
C434 C 0.17491 0.11276 0.75824 0.0
C435 C 0.38984 0.38463 0.83102 0.0
C436 C 0.3571 0.35045 0.82055 0.0
C437 C 0.34533 0.2973 0.77828 0.0
C438 C 0.23469 0.19254 0.76341 0.0
C439 C 0.27013 0.22753 0.77476 0.0
C440 C 0.37137 0.33169 0.80743 0.0
C441 C 0.33658 0.2956 0.79621 0.0
H442 H 0.1835 0.1855 0.72462 0.0
H443 H 0.24371 0.2425 0.74285 0.0
H444 H 0.32038 0.26593 0.75393 0.0
H445 H 0.48844 0.39392 0.81326 0.0
H446 H 0.43127 0.33381 0.79517 0.0
C447 C 0.9614 0.04214 0.67138 0.0
C448 C 0.97443 0.07162 0.68547 0.0
C449 C 0.92705 0.03874 0.6601 0.0
C450 C 0.82748 0.05884 0.65811 0.0
H451 H 0.84028 0.05351 0.60841 0.0
C452 C 0.70363 0.07517 0.60994 0.0
C453 C 0.6901 0.04695 0.5955 0.0
C454 C 0.73783 0.0771 0.62093 0.0
C455 C 0.83588 0.05439 0.62228 0.0
H456 H 0.96229 0.1217 0.69835 0.0
H457 H 0.9031 0.11601 0.67867 0.0
H458 H 0.90144 0.05914 0.62727 0.0
H459 H 0.7009 0.99751 0.58161 0.0
H460 H 0.7603 1.00067 0.60081 0.0
H461 H 0.76201 0.0541 0.65316 0.0
C462 C 0.91871 0.09483 0.67653 0.0
C463 C 0.87098 0.05763 0.63309 0.0
C464 C 0.95294 0.09824 0.68777 0.0
C465 C 0.71107 0.02019 0.59246 0.0
C466 C 0.74518 0.02206 0.60345 0.0
C467 C 0.79241 0.05555 0.64732 0.0
C468 C 0.90496 0.0647 0.66267 0.0
C469 C 0.8673 0.06017 0.65112 0.0
C470 C 0.75921 0.05075 0.61776 0.0
C471 C 0.79624 0.05348 0.62926 0.0
H472 H 0.97715 0.02109 0.66921 0.0
H473 H 0.91704 0.01497 0.64961 0.0
H474 H 0.82314 0.05987 0.67197 0.0
H475 H 0.68865 0.09671 0.61251 0.0
H476 H 0.74825 0.10007 0.63169 0.0
C477 C 0.01311 0.96157 0.99778 0.0
C478 C 0.99998 0.97178 0.01357 0.0
C479 C 0.97948 0.92812 0.98732 0.0
C480 C 0.85829 0.82791 0.98848 0.0
H481 H 0.86859 0.85144 0.93866 0.0
C482 C 0.71154 0.71397 0.94194 0.0
C483 C 0.72552 0.69989 0.92722 0.0
C484 C 0.74471 0.74751 0.95251 0.0
C485 C 0.86544 0.84431 0.95255 0.0
H486 H 0.94286 0.95248 0.03176 0.0
H487 H 0.88374 0.8949 0.0134 0.0
H488 H 0.92716 0.90875 0.95725 0.0
H489 H 0.78504 0.71061 0.9118 0.0
H490 H 0.84298 0.76942 0.93021 0.0
H491 H 0.79605 0.7638 0.98372 0.0
C492 C 0.9197 0.91277 0.00888 0.0
C493 C 0.89909 0.87701 0.9632 0.0
C494 C 0.95336 0.94621 0.01929 0.0
C495 C 0.77329 0.72049 0.92315 0.0
C496 C 0.8064 0.75441 0.93359 0.0
C497 C 0.8244 0.79546 0.97783 0.0
C498 C 0.93222 0.90369 0.99265 0.0
C499 C 0.89613 0.86909 0.9813 0.0
C500 C 0.79248 0.76807 0.94843 0.0
C501 C 0.82778 0.80319 0.95975 0.0
H502 H 0.04923 0.98007 0.99341 0.0
H503 H 0.99059 0.92123 0.97512 0.0
H504 H 0.85519 0.82025 0.00232 0.0
H505 H 0.67498 0.6985 0.94544 0.0
H506 H 0.73299 0.75761 0.96381 0.0
C507 C 0.06185 0.98439 0.33196 0.0
C508 C 0.02309 0.97569 0.34225 0.0
C509 C 0.05916 0.95109 0.32073 0.0
C510 C 0.99749 0.82575 0.31545 0.0
H511 H 0.05164 0.85843 0.26893 0.0
C512 C 0.99145 0.68771 0.27013 0.0
C513 C 0.031 0.70072 0.25951 0.0
C514 C 0.98737 0.72081 0.27949 0.0
C515 C 0.03684 0.84873 0.28196 0.0
H516 H 0.95078 0.92559 0.34858 0.0
H517 H 0.94625 0.86711 0.32905 0.0
H518 H 0.04999 0.9174 0.28629 0.0
H519 H 0.09692 0.75936 0.25029 0.0
H520 H 0.09079 0.81631 0.26712 0.0
H521 H 0.9857 0.75755 0.31144 0.0
C522 C 0.97869 0.89977 0.3297 0.0
C523 C 0.03571 0.88255 0.29187 0.0
C524 C 0.98121 0.93337 0.34078 0.0
C525 C 0.06628 0.74774 0.25852 0.0
C526 C 0.06238 0.7807 0.26798 0.0
C527 C 0.99905 0.792 0.30562 0.0
C528 C 0.0178 0.90811 0.31969 0.0
C529 C 0.01635 0.87153 0.30876 0.0
C530 C 0.02284 0.76777 0.27858 0.0
C531 C 0.01915 0.80312 0.28879 0.0
H532 H 0.09462 0.01664 0.3328 0.0
H533 H 0.08998 0.95838 0.31329 0.0
H534 H 0.98287 0.81636 0.32852 0.0
H535 H 0.96375 0.65182 0.27138 0.0
H536 H 0.95616 0.70954 0.28735 0.0
C537 C 0.14148 0.99772 0.66633 0.0
C538 C 0.14702 0.04065 0.67087 0.0
C539 C 0.17166 0.9958 0.65408 0.0
C540 C 0.25955 0.06502 0.61917 0.0
H541 H 0.30823 0.98391 0.63076 0.0
C542 C 0.38805 0.04604 0.57366 0.0
C543 C 0.42479 0.04422 0.5817 0.0
C544 C 0.35171 0.04388 0.58368 0.0
C545 C 0.29514 0.00691 0.62736 0.0
H546 H 0.18762 0.1151 0.66567 0.0
H547 H 0.24013 0.11177 0.64447 0.0
H548 H 0.24837 0.98303 0.64938 0.0
H549 H 0.45337 0.03924 0.60621 0.0
H550 H 0.39025 0.03589 0.62383 0.0
H551 H 0.3074 0.08991 0.59743 0.0
C552 C 0.21234 0.07951 0.65021 0.0
C553 C 0.26033 0.00596 0.63792 0.0
C554 C 0.18232 0.08142 0.66246 0.0
C555 C 0.42509 0.04052 0.59983 0.0
C556 C 0.38882 0.03827 0.60985 0.0
C557 C 0.29431 0.0659 0.60858 0.0
C558 C 0.20791 0.03676 0.64606 0.0
C559 C 0.24245 0.03538 0.63408 0.0
C560 C 0.35154 0.03974 0.60191 0.0
C561 C 0.31294 0.03725 0.61266 0.0
H562 H 0.11461 0.96568 0.67255 0.0
H563 H 0.16688 0.96224 0.65101 0.0
H564 H 0.24625 0.08782 0.61573 0.0
H565 H 0.38733 0.04879 0.55966 0.0
H566 H 0.32339 0.04471 0.57714 0.0
C567 C 0.15817 0.19346 0.99493 0.0
C568 C 0.16302 0.16412 0.00717 0.0
C569 C 0.19628 0.22615 0.98477 0.0
C570 C 0.27494 0.27235 0.95794 0.0
H571 H 0.39633 0.34426 0.97818 0.0
C572 C 0.43845 0.39441 0.91603 0.0
C573 C 0.46888 0.43793 0.92264 0.0
C574 C 0.40249 0.35987 0.92651 0.0
C575 C 0.36261 0.32464 0.97235 0.0
H576 H 0.21225 0.14653 0.01829 0.0
H577 H 0.27863 0.20337 1.00046 0.0
H578 H 0.3306 0.28695 0.99621 0.0
H579 H 0.4869 0.4797 0.94526 0.0
H580 H 0.42362 0.41956 0.96366 0.0
H581 H 0.30654 0.3107 0.93421 0.0
C582 C 0.24532 0.20133 0.99887 0.0
C583 C 0.32503 0.29141 0.98264 0.0
C584 C 0.20714 0.16854 0.00903 0.0
C585 C 0.46359 0.44626 0.93996 0.0
C586 C 0.4276 0.41175 0.95047 0.0
C587 C 0.31247 0.30548 0.94766 0.0
C588 C 0.24031 0.23042 0.98657 0.0
C589 C 0.28067 0.26504 0.97558 0.0
C590 C 0.39633 0.36824 0.94382 0.0
C591 C 0.35675 0.33219 0.95474 0.0
H592 H 0.12484 0.19123 0.99311 0.0
H593 H 0.1913 0.24845 0.97562 0.0
H594 H 0.24141 0.25227 0.95202 0.0
H595 H 0.44225 0.38737 0.9027 0.0
H596 H 0.37953 0.32657 0.92106 0.0
C597 C 0.08021 0.22779 0.34911 0.0
C598 C 0.05123 0.17924 0.34925 0.0
C599 C 0.0743 0.25622 0.33702 0.0
C600 C 0.0227 0.25778 0.29491 0.0
H601 H 0.03551 0.37192 0.31168 0.0
C602 C 0.04599 0.40943 0.24929 0.0
C603 C 0.02628 0.4358 0.2545 0.0
C604 C 0.04376 0.37425 0.26031 0.0
C605 C 0.03116 0.33995 0.30678 0.0
H606 H 0.99398 0.12254 0.33631 0.0
H607 H 0.98343 0.17251 0.31518 0.0
H608 H 0.04166 0.31792 0.33179 0.0
H609 H 0.98799 0.44598 0.27493 0.0
H610 H 0.98298 0.38374 0.29415 0.0
H611 H 0.01171 0.27982 0.26988 0.0
C612 C 0.01094 0.1884 0.32446 0.0
C613 C 0.03537 0.30923 0.31829 0.0
C614 C 0.01693 0.15978 0.3366 0.0
C615 C 0.00324 0.42581 0.27068 0.0
C616 C 1.00079 0.39051 0.28168 0.0
C617 C 0.01844 0.28859 0.28336 0.0
C618 C 0.03915 0.23703 0.32471 0.0
C619 C 0.03188 0.26809 0.31248 0.0
C620 C 0.02173 0.3648 0.27677 0.0
C621 C 0.0231 0.33031 0.28913 0.0
H622 H 0.10744 0.24412 0.35848 0.0
H623 H 0.09741 0.29343 0.33733 0.0
H624 H 0.01998 0.22649 0.28999 0.0
H625 H 0.0642 0.41693 0.23687 0.0
H626 H 0.0608 0.35567 0.25617 0.0
loop_
_geom_bond_atom_site_label_1
_geom_bond_atom_site_label_2
_geom_bond_distance
_geom_bond_site_symmetry_2
_ccdc_geom_bond_type
Mn0 O5 2.095 . S
Mn0 O15 2.162 . S
Mn0 O16 2.297 1_545 S
Mn0 O24 2.385 1_545 S
Mn0 O25 2.209 . S
Mn0 O26 2.094 . S
Mn1 O6 2.121 . S
Mn1 N8 2.257 1_455 S
Mn1 N17 2.282 1_554 S
Mn1 O25 2.215 . S
Mn1 O27 2.117 . S
C2 O24 1.234 . S
C2 O25 1.283 1_565 S
C3 O15 1.281 1_565 S
C3 O16 1.236 . S
C4 O26 1.240 . S
C4 O27 1.264 . S
O5 Mn0 2.095 . S
O5 C14 1.250 . S
O6 Mn1 2.121 . S
O6 C14 1.258 . S
C7 N8 1.326 . S
C7 C11 1.460 . S
C7 H13 0.929 . S
N8 Mn1 2.257 1_655 S
N8 C7 1.326 . S
N8 C12 1.362 . S
C9 C10 1.295 . S
C9 C12 1.444 . S
C9 C29 1.398 1_554 S
C10 C9 1.295 . S
C10 C11 1.477 . S
C10 H30 0.931 . S
C11 C7 1.460 . S
C11 C10 1.477 . S
C11 H31 0.930 . S
C12 N8 1.362 . S
C12 C9 1.444 . S
C12 C22 1.476 1_554 S
H13 C7 0.929 . S
C14 O5 1.250 . S
C14 O6 1.258 . S
O15 Mn0 2.162 . S
O15 C3 1.281 1_545 S
O16 Mn0 2.297 1_565 S
O16 C3 1.236 . S
N17 Mn1 2.282 1_556 S
N17 C18 1.328 . S
N17 C22 1.318 1_455 S
C18 N17 1.328 . S
C18 C19 1.457 . S
C18 H23 0.929 . S
C19 C18 1.457 . S
C19 C20 1.291 1_455 S
C19 H32 0.931 . S
C20 C19 1.291 1_655 S
C20 C21 1.373 . S
C20 H33 0.929 . S
C21 C20 1.373 . S
C21 C22 1.396 . S
C21 C28 1.403 . S
C22 C12 1.476 1_556 S
C22 N17 1.318 1_655 S
C22 C21 1.396 . S
H23 C18 0.929 . S
O24 Mn0 2.385 1_565 S
O24 C2 1.234 . S
O25 Mn0 2.209 . S
O25 Mn1 2.215 . S
O25 C2 1.283 1_545 S
O26 Mn0 2.094 . S
O26 C4 1.240 . S
O27 Mn1 2.117 . S
O27 C4 1.264 . S
C28 C21 1.403 . S
C28 C29 1.399 . S
C28 H34 0.929 . S
C29 C9 1.398 1_556 S
C29 C28 1.399 . S
C29 H35 0.930 . S
H30 C10 0.931 . S
H31 C11 0.930 . S
H32 C19 0.931 . S
H33 C20 0.929 . S
H34 C28 0.929 . S
H35 C29 0.930 . S
Mn36 O41 2.095 . S
Mn36 O51 2.162 1_445 S
Mn36 O52 2.297 . S
Mn36 O60 2.385 . S
Mn36 O61 2.209 . S
Mn36 O62 2.094 1_455 S
Mn37 O42 2.121 . S
Mn37 N44 2.257 . S
Mn37 N53 2.282 . S
Mn37 O61 2.215 . S
Mn37 O63 2.117 . S
C38 O60 1.234 . S
C38 O61 1.283 . S
C39 O51 1.281 1_455 S
C39 O52 1.236 1_565 S
C40 O62 1.240 . S
C40 O63 1.264 1_655 S
O41 Mn36 2.095 . S
O41 C50 1.250 . S
O42 Mn37 2.121 . S
O42 C50 1.258 . S
C43 N44 1.326 . S
C43 C47 1.460 . S
C43 H49 0.929 . S
N44 Mn37 2.257 . S
N44 C43 1.326 . S
N44 C48 1.362 . S
C45 C46 1.258 . S
C45 C48 1.431 . S
C45 C65 1.449 . S
C46 C45 1.258 . S
C46 C47 1.477 . S
C46 H66 0.931 . S
C47 C43 1.460 . S
C47 C46 1.477 . S
C47 H67 0.930 . S
C48 N44 1.362 . S
C48 C45 1.431 . S
C48 C58 1.476 . S
H49 C43 0.929 . S
C50 O41 1.250 . S
C50 O42 1.258 . S
O51 Mn36 2.162 1_665 S
O51 C39 1.281 1_655 S
O52 Mn36 2.297 . S
O52 C39 1.236 1_545 S
N53 Mn37 2.282 . S
N53 C54 1.328 . S
N53 C58 1.318 . S
C54 N53 1.328 . S
C54 C55 1.457 . S
C54 H59 0.929 . S
C55 C54 1.457 . S
C55 C56 1.291 . S
C55 H68 0.931 . S
C56 C55 1.291 . S
C56 C57 1.373 . S
C56 H69 0.929 . S
C57 C56 1.373 . S
C57 C58 1.396 . S
C57 C64 1.403 . S
C58 C48 1.476 . S
C58 N53 1.318 . S
C58 C57 1.396 . S
H59 C54 0.929 . S
O60 Mn36 2.385 . S
O60 C38 1.234 . S
O61 Mn36 2.209 . S
O61 Mn37 2.215 . S
O61 C38 1.283 . S
O62 Mn36 2.094 1_655 S
O62 C40 1.240 . S
O63 Mn37 2.117 . S
O63 C40 1.264 1_455 S
C64 C57 1.403 . S
C64 C65 1.399 . S
C64 H70 0.929 . S
C65 C45 1.449 . S
C65 C64 1.399 . S
C65 H71 0.930 . S
H66 C46 0.931 . S
H67 C47 0.930 . S
H68 C55 0.931 . S
H69 C56 0.929 . S
H70 C64 0.929 . S
H71 C65 0.930 . S
Mn72 O77 2.095 . S
Mn72 O87 2.145 1_545 S
Mn72 O88 2.297 . S
Mn72 O96 2.385 . S
Mn72 O97 2.209 . S
Mn72 O98 2.094 1_545 S
Mn73 O78 2.121 1_455 S
Mn73 N80 2.257 . S
Mn73 N89 2.282 . S
Mn73 O97 2.215 . S
Mn73 O99 2.117 1_455 S
C74 O96 1.234 . S
C74 O97 1.283 . S
C75 O87 1.266 1_545 S
C75 O88 1.236 . S
C76 O98 1.240 1_655 S
C76 O99 1.264 1_565 S
O77 Mn72 2.095 . S
O77 C86 1.248 . S
O78 Mn73 2.121 1_655 S
O78 C86 1.259 1_655 S
C79 N80 1.326 . S
C79 C83 1.460 . S
C79 H85 0.929 . S
N80 Mn73 2.257 . S
N80 C79 1.326 . S
N80 C84 1.362 . S
C81 C82 1.258 . S
C81 C84 1.431 . S
C81 C101 1.449 . S
C82 C81 1.258 . S
C82 C83 1.477 . S
C82 H102 0.931 . S
C83 C79 1.460 . S
C83 C82 1.477 . S
C83 H103 0.930 . S
C84 N80 1.362 . S
C84 C81 1.431 . S
C84 C94 1.476 . S
H85 C79 0.929 . S
C86 O77 1.248 . S
C86 O78 1.259 1_455 S
O87 Mn72 2.145 1_565 S
O87 C75 1.266 1_565 S
O88 Mn72 2.297 . S
O88 C75 1.236 . S
N89 Mn73 2.282 . S
N89 C90 1.328 . S
N89 C94 1.318 . S
C90 N89 1.328 . S
C90 C91 1.457 . S
C90 H95 0.929 . S
C91 C90 1.457 . S
C91 C92 1.291 . S
C91 H104 0.931 . S
C92 C91 1.291 . S
C92 C93 1.373 . S
C92 H105 0.929 . S
C93 C92 1.373 . S
C93 C94 1.396 . S
C93 C100 1.403 . S
C94 C84 1.476 . S
C94 N89 1.318 . S
C94 C93 1.396 . S
H95 C90 0.929 . S
O96 Mn72 2.385 . S
O96 C74 1.234 . S
O97 Mn72 2.209 . S
O97 Mn73 2.215 . S
O97 C74 1.283 . S
O98 Mn72 2.094 1_565 S
O98 C76 1.240 1_455 S
O99 Mn73 2.117 1_655 S
O99 C76 1.264 1_545 S
C100 C93 1.403 . S
C100 C101 1.399 . S
C100 H106 0.929 . S
C101 C81 1.449 . S
C101 C100 1.399 . S
C101 H107 0.930 . S
H102 C82 0.931 . S
H103 C83 0.930 . S
H104 C91 0.931 . S
H105 C92 0.929 . S
H106 C100 0.929 . S
H107 C101 0.930 . S
C108 C109 1.443 . S
C108 N112 1.376 . S
C108 C146 1.389 . S
C109 C108 1.443 . S
C109 C110 1.340 . S
C109 H149 0.951 . S
C110 C109 1.340 . S
C110 C111 1.439 . S
C110 H150 0.950 . S
C111 C110 1.439 . S
C111 N112 1.374 . S
C111 C145 1.395 . S
N112 C108 1.376 . S
N112 C111 1.374 . S
N112 Co113 2.008 . S
Co113 N112 2.008 . S
Co113 N114 1.995 . S
Co113 N119 2.008 1_455 S
Co113 N124 1.995 1_455 S
Co113 N129 2.282 . S
Co113 N135 2.282 . S
N114 Co113 1.995 . S
N114 C115 1.376 . S
N114 C118 1.383 . S
C115 N114 1.376 . S
C115 C116 1.446 . S
C115 C145 1.391 . S
C116 C115 1.446 . S
C116 C117 1.339 . S
C116 H151 0.949 . S
C117 C116 1.339 . S
C117 C118 1.439 . S
C117 H152 0.950 . S
C118 N114 1.383 . S
C118 C117 1.439 . S
C118 C147 1.392 . S
N119 Co113 2.008 1_655 S
N119 C120 1.376 . S
N119 C123 1.374 . S
C120 N119 1.376 . S
C120 C121 1.443 . S
C120 C147 1.389 1_655 S
C121 C120 1.443 . S
C121 C122 1.340 . S
C121 H153 0.951 . S
C122 C121 1.340 . S
C122 C123 1.439 . S
C122 H154 0.950 . S
C123 N119 1.374 . S
C123 C122 1.439 . S
C123 C148 1.395 . S
N124 Co113 1.995 1_655 S
N124 C125 1.376 . S
N124 C128 1.383 1_655 S
C125 N124 1.376 . S
C125 C126 1.446 . S
C125 C148 1.391 . S
C126 C125 1.446 . S
C126 C127 1.339 . S
C126 H155 0.949 . S
C127 C126 1.339 . S
C127 C128 1.439 1_655 S
C127 H156 0.950 . S
C128 N124 1.383 1_455 S
C128 C127 1.439 1_455 S
C128 C146 1.392 . S
N129 Co113 2.282 . S
N129 C132 1.332 . S
N129 C134 1.332 . S
C130 C131 1.386 . S
C130 C133 1.388 . S
C131 C130 1.386 . S
C131 C132 1.382 . S
C131 H157 0.950 1_455 S
C132 N129 1.332 . S
C132 C131 1.382 . S
C132 H143 0.952 1_455 S
C133 C130 1.388 . S
C133 C134 1.382 . S
C133 H158 0.950 . S
C134 N129 1.332 . S
C134 C133 1.382 . S
C134 H144 0.948 . S
N135 Co113 2.282 . S
N135 C139 1.332 . S
N135 C140 1.359 . S
C136 C137 1.374 1_655 S
C136 C140 1.359 1_655 S
C136 H159 0.976 . S
C137 C136 1.374 1_455 S
C137 C138 1.386 . S
C138 C137 1.386 . S
C138 C139 1.382 . S
C138 H160 0.950 . S
C139 N135 1.332 . S
C139 C138 1.382 . S
C139 H141 0.952 . S
C140 N135 1.359 . S
C140 C136 1.359 1_455 S
C140 H142 0.933 1_455 S
H141 C139 0.952 . S
H142 C140 0.933 1_655 S
H143 C132 0.952 1_655 S
H144 C134 0.948 . S
C145 C111 1.395 . S
C145 C115 1.391 . S
C146 C108 1.389 . S
C146 C128 1.392 . S
C147 C118 1.392 . S
C147 C120 1.389 1_455 S
C148 C123 1.395 . S
C148 C125 1.391 . S
H149 C109 0.951 . S
H150 C110 0.950 . S
H151 C116 0.949 . S
H152 C117 0.950 . S
H153 C121 0.951 . S
H154 C122 0.950 . S
H155 C126 0.949 . S
H156 C127 0.950 . S
H157 C131 0.950 1_655 S
H158 C133 0.950 . S
H159 C136 0.976 . S
H160 C138 0.950 . S
C161 C162 1.443 . S
C161 N165 1.376 . S
C161 C199 1.389 . S
C162 C161 1.443 . S
C162 C163 1.340 1_545 S
C162 H202 0.951 1_545 S
C163 C162 1.340 1_565 S
C163 C164 1.439 . S
C163 H203 0.950 . S
C164 C163 1.439 . S
C164 N165 1.374 1_565 S
C164 C198 1.395 . S
N165 C161 1.376 . S
N165 C164 1.374 1_545 S
N165 Co166 2.008 . S
Co166 N165 2.008 . S
Co166 N167 1.995 . S
Co166 N172 2.008 . S
Co166 N177 1.995 . S
Co166 N182 2.282 . S
Co166 N188 2.282 . S
N167 Co166 1.995 . S
N167 C168 1.376 1_545 S
N167 C171 1.383 . S
C168 N167 1.376 1_565 S
C168 C169 1.446 . S
C168 C198 1.391 . S
C169 C168 1.446 . S
C169 C170 1.339 1_565 S
C169 H204 0.949 . S
C170 C169 1.339 1_545 S
C170 C171 1.439 . S
C170 H205 0.950 . S
C171 N167 1.383 . S
C171 C170 1.439 . S
C171 C200 1.392 . S
N172 Co166 2.008 . S
N172 C173 1.376 . S
N172 C176 1.374 . S
C173 N172 1.376 . S
C173 C174 1.443 . S
C173 C200 1.389 . S
C174 C173 1.443 . S
C174 C175 1.340 . S
C174 H206 0.951 . S
C175 C174 1.340 . S
C175 C176 1.439 . S
C175 H207 0.950 . S
C176 N172 1.374 . S
C176 C175 1.439 . S
C176 C201 1.395 . S
N177 Co166 1.995 . S
N177 C178 1.376 . S
N177 C181 1.383 . S
C178 N177 1.376 . S
C178 C179 1.446 . S
C178 C201 1.391 . S
C179 C178 1.446 . S
C179 C180 1.339 . S
C179 H208 0.949 . S
C180 C179 1.339 . S
C180 C181 1.439 . S
C180 H209 0.950 . S
C181 N177 1.383 . S
C181 C180 1.439 . S
C181 C199 1.392 . S
N182 Co166 2.282 . S
N182 C185 1.332 . S
N182 C187 1.332 . S
C183 C184 1.386 . S
C183 C186 1.388 . S
C184 C183 1.386 . S
C184 C185 1.382 . S
C184 H210 0.950 . S
C185 N182 1.332 . S
C185 C184 1.382 . S
C185 H196 0.952 . S
C186 C183 1.388 . S
C186 C187 1.382 . S
C186 H211 0.950 . S
C187 N182 1.332 . S
C187 C186 1.382 . S
C187 H197 0.948 . S
N188 Co166 2.282 . S
N188 C192 1.332 . S
N188 C193 1.332 . S
C189 C190 1.388 . S
C189 C193 1.382 . S
C189 H212 0.950 . S
C190 C189 1.388 . S
C190 C191 1.386 . S
C191 C190 1.386 . S
C191 C192 1.382 . S
C191 H213 0.950 . S
C192 N188 1.332 . S
C192 C191 1.382 . S
C192 H194 0.952 . S
C193 N188 1.332 . S
C193 C189 1.382 . S
C193 H195 0.948 . S
H194 C192 0.952 . S
H195 C193 0.948 . S
H196 C185 0.952 . S
H197 C187 0.948 . S
C198 C164 1.395 . S
C198 C168 1.391 . S
C199 C161 1.389 . S
C199 C181 1.392 . S
C200 C171 1.392 . S
C200 C173 1.389 . S
C201 C176 1.395 . S
C201 C178 1.391 . S
H202 C162 0.951 1_565 S
H203 C163 0.950 . S
H204 C169 0.949 . S
H205 C170 0.950 . S
H206 C174 0.951 . S
H207 C175 0.950 . S
H208 C179 0.949 . S
H209 C180 0.950 . S
H210 C184 0.950 . S
H211 C186 0.950 . S
H212 C189 0.950 . S
H213 C191 0.950 . S
C214 C215 1.443 . S
C214 N218 1.376 . S
C214 C252 1.389 . S
C215 C214 1.443 . S
C215 C216 1.340 . S
C215 H255 0.951 . S
C216 C215 1.340 . S
C216 C217 1.439 . S
C216 H256 0.950 . S
C217 C216 1.439 . S
C217 N218 1.374 . S
C217 C251 1.395 . S
N218 C214 1.376 . S
N218 C217 1.374 . S
N218 Co219 2.008 . S
Co219 N218 2.008 . S
Co219 N220 1.995 . S
Co219 N225 2.008 . S
Co219 N230 1.995 . S
Co219 N235 2.282 . S
Co219 N241 2.282 . S
N220 Co219 1.995 . S
N220 C221 1.376 . S
N220 C224 1.383 . S
C221 N220 1.376 . S
C221 C222 1.446 . S
C221 C251 1.391 . S
C222 C221 1.446 . S
C222 C223 1.339 . S
C222 H257 0.949 . S
C223 C222 1.339 . S
C223 C224 1.439 . S
C223 H258 0.950 . S
C224 N220 1.383 . S
C224 C223 1.439 . S
C224 C253 1.392 . S
N225 Co219 2.008 . S
N225 C226 1.376 . S
N225 C229 1.374 . S
C226 N225 1.376 . S
C226 C227 1.443 . S
C226 C253 1.389 . S
C227 C226 1.443 . S
C227 C228 1.340 . S
C227 H259 0.951 . S
C228 C227 1.340 . S
C228 C229 1.439 . S
C228 H260 0.950 . S
C229 N225 1.374 . S
C229 C228 1.439 . S
C229 C254 1.395 . S
N230 Co219 1.995 . S
N230 C231 1.376 . S
N230 C234 1.383 . S
C231 N230 1.376 . S
C231 C232 1.446 . S
C231 C254 1.391 . S
C232 C231 1.446 . S
C232 C233 1.339 . S
C232 H261 0.949 . S
C233 C232 1.339 . S
C233 C234 1.439 . S
C233 H262 0.950 . S
C234 N230 1.383 . S
C234 C233 1.439 . S
C234 C252 1.392 . S
N235 Co219 2.282 . S
N235 C238 1.332 . S
N235 C240 1.332 . S
C236 C237 1.386 . S
C236 C239 1.388 . S
C237 C236 1.386 . S
C237 C238 1.382 . S
C237 H263 0.950 . S
C238 N235 1.332 . S
C238 C237 1.382 . S
C238 H249 0.952 . S
C239 C236 1.388 . S
C239 C240 1.382 . S
C239 H264 0.950 . S
C240 N235 1.332 . S
C240 C239 1.382 . S
C240 H250 0.948 . S
N241 Co219 2.282 . S
N241 C245 1.332 . S
N241 C246 1.332 . S
C242 C243 1.388 . S
C242 C246 1.382 . S
C242 H265 0.950 . S
C243 C242 1.388 . S
C243 C244 1.386 . S
C244 C243 1.386 . S
C244 C245 1.382 . S
C244 H266 0.950 . S
C245 N241 1.332 . S
C245 C244 1.382 . S
C245 H247 0.952 . S
C246 N241 1.332 . S
C246 C242 1.382 . S
C246 H248 0.948 . S
H247 C245 0.952 . S
H248 C246 0.948 . S
H249 C238 0.952 . S
H250 C240 0.948 . S
C251 C217 1.395 . S
C251 C221 1.391 . S
C252 C214 1.389 . S
C252 C234 1.392 . S
C253 C224 1.392 . S
C253 C226 1.389 . S
C254 C229 1.395 . S
C254 C231 1.391 . S
H255 C215 0.951 . S
H256 C216 0.950 . S
H257 C222 0.949 . S
H258 C223 0.950 . S
H259 C227 0.951 . S
H260 C228 0.950 . S
H261 C232 0.949 . S
H262 C233 0.950 . S
H263 C237 0.950 . S
H264 C239 0.950 . S
H265 C242 0.950 . S
H266 C244 0.950 . S
C267 C268 1.349 . S
C267 C269 1.327 . S
C267 H292 0.950 . S
C268 C267 1.349 . S
C268 C284 1.349 . S
C269 C267 1.327 . S
C269 C288 1.429 . S
C269 H293 0.950 . S
C270 C287 1.574 . S
C270 C289 1.368 . S
C270 H294 0.947 1_455 S
H271 C275 0.949 . S
C272 C273 1.349 . S
C272 C274 1.327 . S
C272 H295 0.950 1_455 S
C273 C272 1.349 . S
C273 C285 1.349 . S
C274 C272 1.327 . S
C274 C290 1.429 . S
C274 H296 0.950 1_455 S
C275 H271 0.949 . S
C275 C283 1.574 . S
C275 C291 1.368 . S
H276 C284 0.950 . S
H277 C282 0.950 . S
H278 C283 0.949 . S
H279 C285 0.950 . S
H280 C286 0.950 . S
H281 C287 0.949 1_655 S
C282 H277 0.950 . S
C282 C284 1.327 . S
C282 C288 1.429 . S
C283 C275 1.574 . S
C283 H278 0.949 . S
C283 C289 1.368 . S
C284 C268 1.349 . S
C284 H276 0.950 . S
C284 C282 1.327 . S
C285 C273 1.349 . S
C285 H279 0.950 . S
C285 C286 1.327 . S
C286 H280 0.950 . S
C286 C285 1.327 . S
C286 C290 1.429 . S
C287 C270 1.574 . S
C287 H281 0.949 1_455 S
C287 C291 1.368 . S
C288 C269 1.429 . S
C288 C282 1.429 . S
C288 C289 1.523 . S
C289 C270 1.368 . S
C289 C283 1.368 . S
C289 C288 1.523 . S
C290 C274 1.429 . S
C290 C286 1.429 . S
C290 C291 1.523 . S
C291 C275 1.368 . S
C291 C287 1.368 . S
C291 C290 1.523 . S
H292 C267 0.950 . S
H293 C269 0.950 . S
H294 C270 0.947 1_655 S
H295 C272 0.950 1_655 S
H296 C274 0.950 1_655 S
C297 C298 1.349 . S
C297 C299 1.327 . S
C297 H322 0.950 1_545 S
C298 C297 1.349 . S
C298 C314 1.349 . S
C299 C297 1.327 . S
C299 C318 1.429 . S
C299 H323 0.950 1_545 S
C300 C317 1.574 . S
C300 C319 1.368 . S
C300 H324 0.949 . S
H301 C305 0.949 . S
C302 C303 1.349 . S
C302 C304 1.327 . S
C302 H325 0.950 . S
C303 C302 1.349 . S
C303 C315 1.349 . S
C304 C302 1.327 . S
C304 C320 1.429 . S
C304 H326 0.950 . S
C305 H301 0.949 . S
C305 C313 1.574 . S
C305 C321 1.368 . S
H306 C314 0.950 . S
H307 C312 0.950 . S
H308 C313 0.949 1_565 S
H309 C315 0.950 . S
H310 C316 0.950 . S
H311 C317 0.949 . S
C312 H307 0.950 . S
C312 C314 1.327 . S
C312 C318 1.429 . S
C313 C305 1.574 . S
C313 H308 0.949 1_545 S
C313 C319 1.368 . S
C314 C298 1.349 . S
C314 H306 0.950 . S
C314 C312 1.327 . S
C315 C303 1.349 . S
C315 H309 0.950 . S
C315 C316 1.327 . S
C316 H310 0.950 . S
C316 C315 1.327 . S
C316 C320 1.429 . S
C317 C300 1.574 . S
C317 H311 0.949 . S
C317 C321 1.368 . S
C318 C299 1.429 . S
C318 C312 1.429 . S
C318 C319 1.523 . S
C319 C300 1.368 . S
C319 C313 1.368 . S
C319 C318 1.523 . S
C320 C304 1.429 . S
C320 C316 1.429 . S
C320 C321 1.523 . S
C321 C305 1.368 . S
C321 C317 1.368 . S
C321 C320 1.523 . S
H322 C297 0.950 1_565 S
H323 C299 0.950 1_565 S
H324 C300 0.949 . S
H325 C302 0.950 . S
H326 C304 0.950 . S
C327 C328 1.349 . S
C327 C329 1.327 . S
C327 H352 0.950 . S
C328 C327 1.349 . S
C328 C344 1.349 . S
C329 C327 1.327 . S
C329 C348 1.429 . S
C329 H353 0.950 . S
C330 C347 1.574 . S
C330 C349 1.368 . S
C330 H354 0.949 . S
H331 C335 0.949 . S
C332 C333 1.349 . S
C332 C334 1.327 . S
C332 H355 0.950 . S
C333 C332 1.349 . S
C333 C345 1.349 . S
C334 C332 1.327 . S
C334 C350 1.429 . S
C334 H356 0.950 . S
C335 H331 0.949 . S
C335 C343 1.574 . S
C335 C351 1.368 . S
H336 C344 0.950 . S
H337 C342 0.950 . S
H338 C343 0.949 . S
H339 C345 0.950 . S
H340 C346 0.950 . S
H341 C347 0.949 . S
C342 H337 0.950 . S
C342 C344 1.327 . S
C342 C348 1.429 . S
C343 C335 1.574 . S
C343 H338 0.949 . S
C343 C349 1.368 . S
C344 C328 1.349 . S
C344 H336 0.950 . S
C344 C342 1.327 . S
C345 C333 1.349 . S
C345 H339 0.950 . S
C345 C346 1.327 . S
C346 H340 0.950 . S
C346 C345 1.327 . S
C346 C350 1.429 . S
C347 C330 1.574 . S
C347 H341 0.949 . S
C347 C351 1.368 . S
C348 C329 1.429 . S
C348 C342 1.429 . S
C348 C349 1.523 . S
C349 C330 1.368 . S
C349 C343 1.368 . S
C349 C348 1.523 . S
C350 C334 1.429 . S
C350 C346 1.429 . S
C350 C351 1.523 . S
C351 C335 1.368 . S
C351 C347 1.368 . S
C351 C350 1.523 . S
H352 C327 0.950 . S
H353 C329 0.950 . S
H354 C330 0.949 . S
H355 C332 0.950 . S
H356 C334 0.950 . S
C357 C358 1.349 . S
C357 C359 1.327 . S
C357 H382 0.950 . S
C358 C357 1.349 . S
C358 C374 1.349 . S
C359 C357 1.327 . S
C359 C378 1.429 . S
C359 H383 0.950 . S
C360 C377 1.574 . S
C360 C379 1.368 . S
C360 H384 0.949 . S
H361 C365 0.949 . S
C362 C363 1.349 . S
C362 C364 1.327 . S
C362 H385 0.950 . S
C363 C362 1.349 . S
C363 C375 1.349 . S
C364 C362 1.327 . S
C364 C380 1.429 . S
C364 H386 0.950 . S
C365 H361 0.949 . S
C365 C373 1.574 . S
C365 C381 1.368 . S
H366 C374 0.950 . S
H367 C372 0.950 . S
H368 C373 0.949 . S
H369 C375 0.950 . S
H370 C376 0.950 . S
H371 C377 0.949 . S
C372 H367 0.950 . S
C372 C374 1.327 . S
C372 C378 1.429 . S
C373 C365 1.574 . S
C373 H368 0.949 . S
C373 C379 1.368 . S
C374 C358 1.349 . S
C374 H366 0.950 . S
C374 C372 1.327 . S
C375 C363 1.349 . S
C375 H369 0.950 . S
C375 C376 1.327 . S
C376 H370 0.950 . S
C376 C375 1.327 . S
C376 C380 1.429 . S
C377 C360 1.574 . S
C377 H371 0.949 . S
C377 C381 1.368 . S
C378 C359 1.429 . S
C378 C372 1.429 . S
C378 C379 1.523 . S
C379 C360 1.368 . S
C379 C373 1.368 . S
C379 C378 1.523 . S
C380 C364 1.429 . S
C380 C376 1.429 . S
C380 C381 1.523 . S
C381 C365 1.368 . S
C381 C377 1.368 . S
C381 C380 1.523 . S
H382 C357 0.950 . S
H383 C359 0.950 . S
H384 C360 0.949 . S
H385 C362 0.950 . S
H386 C364 0.950 . S
C387 C388 1.349 . S
C387 C389 1.327 . S
C387 H412 0.950 . S
C388 C387 1.349 . S
C388 C404 1.349 . S
C389 C387 1.327 . S
C389 C408 1.429 . S
C389 H413 0.950 . S
C390 C407 1.574 . S
C390 C409 1.368 . S
C390 H414 0.949 . S
H391 C395 0.949 . S
C392 C393 1.349 . S
C392 C394 1.327 . S
C392 H415 0.950 . S
C393 C392 1.349 . S
C393 C405 1.349 . S
C394 C392 1.327 . S
C394 C410 1.429 . S
C394 H416 0.950 . S
C395 H391 0.949 . S
C395 C403 1.574 . S
C395 C411 1.368 . S
H396 C404 0.950 . S
H397 C402 0.950 . S
H398 C403 0.949 . S
H399 C405 0.950 . S
H400 C406 0.950 . S
H401 C407 0.949 . S
C402 H397 0.950 . S
C402 C404 1.327 . S
C402 C408 1.429 . S
C403 C395 1.574 . S
C403 H398 0.949 . S
C403 C409 1.368 . S
C404 C388 1.349 . S
C404 H396 0.950 . S
C404 C402 1.327 . S
C405 C393 1.349 . S
C405 H399 0.950 . S
C405 C406 1.327 . S
C406 H400 0.950 . S
C406 C405 1.327 . S
C406 C410 1.429 . S
C407 C390 1.574 . S
C407 H401 0.949 . S
C407 C411 1.368 . S
C408 C389 1.429 . S
C408 C402 1.429 . S
C408 C409 1.523 . S
C409 C390 1.368 . S
C409 C403 1.368 . S
C409 C408 1.523 . S
C410 C394 1.429 . S
C410 C406 1.429 . S
C410 C411 1.523 . S
C411 C395 1.368 . S
C411 C407 1.368 . S
C411 C410 1.523 . S
H412 C387 0.950 . S
H413 C389 0.950 . S
H414 C390 0.949 . S
H415 C392 0.950 . S
H416 C394 0.950 . S
C417 C418 1.349 . S
C417 C419 1.327 . S
C417 H442 0.950 . S
C418 C417 1.349 . S
C418 C434 1.349 . S
C419 C417 1.327 . S
C419 C438 1.429 . S
C419 H443 0.950 . S
C420 C437 1.574 . S
C420 C439 1.368 . S
C420 H444 0.949 . S
H421 C425 0.949 . S
C422 C423 1.349 . S
C422 C424 1.327 . S
C422 H445 0.950 . S
C423 C422 1.349 . S
C423 C435 1.349 . S
C424 C422 1.327 . S
C424 C440 1.429 . S
C424 H446 0.950 . S
C425 H421 0.949 . S
C425 C433 1.574 . S
C425 C441 1.368 . S
H426 C434 0.950 . S
H427 C432 0.950 . S
H428 C433 0.949 . S
H429 C435 0.950 . S
H430 C436 0.950 . S
H431 C437 0.949 . S
C432 H427 0.950 . S
C432 C434 1.327 . S
C432 C438 1.429 . S
C433 C425 1.574 . S
C433 H428 0.949 . S
C433 C439 1.368 . S
C434 C418 1.349 . S
C434 H426 0.950 . S
C434 C432 1.327 . S
C435 C423 1.349 . S
C435 H429 0.950 . S
C435 C436 1.327 . S
C436 H430 0.950 . S
C436 C435 1.327 . S
C436 C440 1.429 . S
C437 C420 1.574 . S
C437 H431 0.949 . S
C437 C441 1.368 . S
C438 C419 1.429 . S
C438 C432 1.429 . S
C438 C439 1.523 . S
C439 C420 1.368 . S
C439 C433 1.368 . S
C439 C438 1.523 . S
C440 C424 1.429 . S
C440 C436 1.429 . S
C440 C441 1.523 . S
C441 C425 1.368 . S
C441 C437 1.368 . S
C441 C440 1.523 . S
H442 C417 0.950 . S
H443 C419 0.950 . S
H444 C420 0.949 . S
H445 C422 0.950 . S
H446 C424 0.950 . S
C447 C448 1.349 . S
C447 C449 1.327 . S
C447 H472 0.950 1_545 S
C448 C447 1.349 . S
C448 C464 1.349 . S
C449 C447 1.327 . S
C449 C468 1.429 . S
C449 H473 0.950 1_545 S
C450 C467 1.574 . S
C450 C469 1.368 . S
C450 H474 0.949 . S
H451 C455 0.949 . S
C452 C453 1.349 . S
C452 C454 1.327 . S
C452 H475 0.950 . S
C453 C452 1.349 . S
C453 C465 1.349 . S
C454 C452 1.327 . S
C454 C470 1.429 . S
C454 H476 0.950 . S
C455 H451 0.949 . S
C455 C463 1.574 . S
C455 C471 1.368 . S
H456 C464 0.950 1_455 S
H457 C462 0.950 . S
H458 C463 0.949 1_565 S
H459 C465 0.950 . S
H460 C466 0.950 . S
H461 C467 0.949 . S
C462 H457 0.950 . S
C462 C464 1.327 . S
C462 C468 1.429 . S
C463 C455 1.574 . S
C463 H458 0.949 1_545 S
C463 C469 1.368 . S
C464 C448 1.349 . S
C464 H456 0.950 1_655 S
C464 C462 1.327 . S
C465 C453 1.349 . S
C465 H459 0.950 . S
C465 C466 1.327 . S
C466 H460 0.950 . S
C466 C465 1.327 . S
C466 C470 1.429 . S
C467 C450 1.574 . S
C467 H461 0.949 . S
C467 C471 1.368 . S
C468 C449 1.429 . S
C468 C462 1.429 . S
C468 C469 1.523 . S
C469 C450 1.368 . S
C469 C463 1.368 . S
C469 C468 1.523 . S
C470 C454 1.429 . S
C470 C466 1.429 . S
C470 C471 1.523 . S
C471 C455 1.368 . S
C471 C467 1.368 . S
C471 C470 1.523 . S
H472 C447 0.950 1_565 S
H473 C449 0.950 1_565 S
H474 C450 0.949 . S
H475 C452 0.950 . S
H476 C454 0.950 . S
C477 C478 1.349 1_456 S
C477 C479 1.327 1_455 S
C477 H502 0.950 . S
C478 C477 1.349 1_654 S
C478 C494 1.349 . S
C479 C477 1.327 1_655 S
C479 C498 1.429 . S
C479 H503 0.950 . S
C480 C497 1.574 . S
C480 C499 1.368 . S
C480 H504 0.928 1_556 S
H481 C485 0.949 . S
C482 C483 1.349 . S
C482 C484 1.327 . S
C482 H505 0.950 . S
C483 C482 1.349 . S
C483 C495 1.349 . S
C484 C482 1.327 . S
C484 C500 1.429 . S
C484 H506 0.950 . S
C485 H481 0.949 . S
C485 C493 1.574 . S
C485 C501 1.368 . S
H486 C494 0.950 . S
H487 C492 0.950 . S
H488 C493 0.949 . S
H489 C495 0.950 . S
H490 C496 0.950 . S
H491 C497 0.949 . S
C492 H487 0.950 . S
C492 C494 1.327 . S
C492 C498 1.429 1_554 S
C493 C485 1.574 . S
C493 H488 0.949 . S
C493 C499 1.368 . S
C494 C478 1.349 . S
C494 H486 0.950 . S
C494 C492 1.327 . S
C495 C483 1.349 . S
C495 H489 0.950 . S
C495 C496 1.327 . S
C496 H490 0.950 . S
C496 C495 1.327 . S
C496 C500 1.429 . S
C497 C480 1.574 . S
C497 H491 0.949 . S
C497 C501 1.368 . S
C498 C479 1.429 . S
C498 C492 1.429 1_556 S
C498 C499 1.523 . S
C499 C480 1.368 . S
C499 C493 1.368 . S
C499 C498 1.523 . S
C500 C484 1.429 . S
C500 C496 1.429 . S
C500 C501 1.523 . S
C501 C485 1.368 . S
C501 C497 1.368 . S
C501 C500 1.523 . S
H502 C477 0.950 . S
H503 C479 0.950 . S
H504 C480 0.928 1_554 S
H505 C482 0.950 . S
H506 C484 0.950 . S
C507 C508 1.349 . S
C507 C509 1.327 . S
C507 H532 0.950 1_565 S
C508 C507 1.349 . S
C508 C524 1.349 1_455 S
C509 C507 1.327 . S
C509 C528 1.429 . S
C509 H533 0.950 . S
C510 C527 1.574 . S
C510 C529 1.368 1_655 S
C510 H534 0.949 . S
H511 C515 0.949 . S
C512 C513 1.349 . S
C512 C514 1.327 . S
C512 H535 0.950 1_455 S
C513 C512 1.349 . S
C513 C525 1.349 . S
C514 C512 1.327 . S
C514 C530 1.429 . S
C514 H536 0.950 1_455 S
C515 H511 0.949 . S
C515 C523 1.574 . S
C515 C531 1.368 . S
H516 C524 0.950 . S
H517 C522 0.950 . S
H518 C523 0.949 . S
H519 C525 0.950 . S
H520 C526 0.950 . S
H521 C527 0.949 . S
C522 H517 0.950 . S
C522 C524 1.327 . S
C522 C528 1.429 1_655 S
C523 C515 1.574 . S
C523 H518 0.949 . S
C523 C529 1.368 . S
C524 C508 1.349 1_655 S
C524 H516 0.950 . S
C524 C522 1.327 . S
C525 C513 1.349 . S
C525 H519 0.950 . S
C525 C526 1.327 . S
C526 H520 0.950 . S
C526 C525 1.327 . S
C526 C530 1.429 . S
C527 C510 1.574 . S
C527 H521 0.949 . S
C527 C531 1.368 1_655 S
C528 C509 1.429 . S
C528 C522 1.429 1_455 S
C528 C529 1.523 . S
C529 C510 1.368 1_455 S
C529 C523 1.368 . S
C529 C528 1.523 . S
C530 C514 1.429 . S
C530 C526 1.429 . S
C530 C531 1.523 . S
C531 C515 1.368 . S
C531 C527 1.368 1_455 S
C531 C530 1.523 . S
H532 C507 0.950 1_545 S
H533 C509 0.950 . S
H534 C510 0.949 . S
H535 C512 0.950 1_655 S
H536 C514 0.950 1_655 S
C537 C538 1.349 . S
C537 C539 1.327 . S
C537 H562 0.950 . S
C538 C537 1.349 . S
C538 C554 1.349 . S
C539 C537 1.327 . S
C539 C558 1.429 . S
C539 H563 0.950 . S
C540 C557 1.574 . S
C540 C559 1.368 . S
C540 H564 0.949 . S
H541 C545 0.949 . S
C542 C543 1.349 . S
C542 C544 1.327 . S
C542 H565 0.950 . S
C543 C542 1.349 . S
C543 C555 1.349 . S
C544 C542 1.327 . S
C544 C560 1.429 . S
C544 H566 0.950 . S
C545 H541 0.949 . S
C545 C553 1.574 . S
C545 C561 1.368 . S
H546 C554 0.950 . S
H547 C552 0.950 . S
H548 C553 0.949 . S
H549 C555 0.950 . S
H550 C556 0.950 . S
H551 C557 0.949 . S
C552 H547 0.950 . S
C552 C554 1.327 . S
C552 C558 1.429 . S
C553 C545 1.574 . S
C553 H548 0.949 . S
C553 C559 1.368 . S
C554 C538 1.349 . S
C554 H546 0.950 . S
C554 C552 1.327 . S
C555 C543 1.349 . S
C555 H549 0.950 . S
C555 C556 1.327 . S
C556 H550 0.950 . S
C556 C555 1.327 . S
C556 C560 1.429 . S
C557 C540 1.574 . S
C557 H551 0.949 . S
C557 C561 1.368 . S
C558 C539 1.429 . S
C558 C552 1.429 . S
C558 C559 1.523 . S
C559 C540 1.368 . S
C559 C553 1.368 . S
C559 C558 1.523 . S
C560 C544 1.429 . S
C560 C556 1.429 . S
C560 C561 1.523 . S
C561 C545 1.368 . S
C561 C557 1.368 . S
C561 C560 1.523 . S
H562 C537 0.950 . S
H563 C539 0.950 . S
H564 C540 0.949 . S
H565 C542 0.950 . S
H566 C544 0.950 . S
C567 C568 1.349 . S
C567 C569 1.327 . S
C567 H592 0.950 . S
C568 C567 1.349 . S
C568 C584 1.349 1_554 S
C569 C567 1.327 . S
C569 C588 1.429 1_554 S
C569 H593 0.950 . S
C570 C587 1.574 . S
C570 C589 1.368 . S
C570 H594 0.949 . S
H571 C575 0.949 . S
C572 C573 1.349 . S
C572 C574 1.327 . S
C572 H595 0.950 . S
C573 C572 1.349 . S
C573 C585 1.349 . S
C574 C572 1.327 . S
C574 C590 1.429 . S
C574 H596 0.950 . S
C575 H571 0.949 . S
C575 C583 1.574 . S
C575 C591 1.368 . S
H576 C584 0.950 . S
H577 C582 0.950 . S
H578 C583 0.949 . S
H579 C585 0.950 . S
H580 C586 0.950 . S
H581 C587 0.949 . S
C582 H577 0.950 . S
C582 C584 1.327 . S
C582 C588 1.429 . S
C583 C575 1.574 . S
C583 H578 0.949 . S
C583 C589 1.368 . S
C584 C568 1.349 1_556 S
C584 H576 0.950 . S
C584 C582 1.327 . S
C585 C573 1.349 . S
C585 H579 0.950 . S
C585 C586 1.327 . S
C586 H580 0.950 . S
C586 C585 1.327 . S
C586 C590 1.429 . S
C587 C570 1.574 . S
C587 H581 0.949 . S
C587 C591 1.368 . S
C588 C569 1.429 1_556 S
C588 C582 1.429 . S
C588 C589 1.523 . S
C589 C570 1.368 . S
C589 C583 1.368 . S
C589 C588 1.523 . S
C590 C574 1.429 . S
C590 C586 1.429 . S
C590 C591 1.523 . S
C591 C575 1.368 . S
C591 C587 1.368 . S
C591 C590 1.523 . S
H592 C567 0.950 . S
H593 C569 0.950 . S
H594 C570 0.949 . S
H595 C572 0.950 . S
H596 C574 0.950 . S
C597 C598 1.349 . S
C597 C599 1.327 . S
C597 H622 0.950 . S
C598 C597 1.349 . S
C598 C614 1.349 . S
C599 C597 1.327 . S
C599 C618 1.429 . S
C599 H623 0.950 . S
C600 C617 1.574 . S
C600 C619 1.368 1_655 S
C600 H624 0.949 . S
H601 C605 0.949 . S
C602 C603 1.349 . S
C602 C604 1.322 . S
C602 H625 0.950 1_455 S
C603 C602 1.349 . S
C603 C615 1.349 . S
C604 C602 1.322 . S
C604 C620 1.440 . S
C604 H626 0.944 1_455 S
C605 H601 0.949 . S
C605 C613 1.574 . S
C605 C621 1.368 . S
H606 C614 0.950 1_655 S
H607 C612 0.950 1_655 S
H608 C613 0.949 . S
H609 C615 0.950 . S
H610 C616 0.950 . S
H611 C617 0.949 . S
C612 H607 0.950 1_455 S
C612 C614 1.327 . S
C612 C618 1.429 . S
C613 C605 1.574 . S
C613 H608 0.949 . S
C613 C619 1.368 . S
C614 C598 1.349 . S
C614 H606 0.950 1_455 S
C614 C612 1.327 . S
C615 C603 1.349 . S
C615 H609 0.950 . S
C615 C616 1.327 . S
C616 H610 0.950 . S
C616 C615 1.327 . S
C616 C620 1.429 . S
C617 C600 1.574 . S
C617 H611 0.949 . S
C617 C621 1.368 1_655 S
C618 C599 1.429 . S
C618 C612 1.429 . S
C618 C619 1.523 . S
C619 C600 1.368 1_455 S
C619 C613 1.368 . S
C619 C618 1.523 . S
C620 C604 1.440 . S
C620 C616 1.429 . S
C620 C621 1.523 . S
C621 C605 1.368 . S
C621 C617 1.368 1_455 S
C621 C620 1.523 . S
H622 C597 0.950 . S
H623 C599 0.950 . S
H624 C600 0.949 . S
H625 C602 0.950 1_655 S
H626 C604 0.944 1_655 S
C273 C130 1.474 . S
C268 C14 1.427 . S
C298 C40 1.487 . S
C303 C200 1.501 . S
C328 C76 1.462 . S
C333 C252 1.474 . S
C358 C3 1.459 . S
C363 C146 1.458 . S
C393 C190 1.499 . S
C388 C38 1.486 . S
C418 C74 1.453 . S
C423 C236 1.467 . S
C453 C183 1.452 . S
C448 C86 1.409 1_655 S
C478 C2 1.454 1_655 S
C483 C243 1.468 . S
C513 C137 1.456 . S
C508 C39 1.456 . S
C543 C199 1.460 . S
C538 C75 1.463 . S
C573 C253 1.476 . S
C568 C4 1.463 . S
C598 C50 1.423 . S
C603 C147 1.471 . S
