# Generated by pormake.
# Topology pyr, (3,6)-cn, num edge types: 1
# Building blocks:
#     Node 0, Type 0, BuildingBlock: OLANEW_clean_sbu_2, # of connection points: 3
#     Node 1, Type 0, BuildingBlock: OLANEW_clean_sbu_2, # of connection points: 3
#     Node 2, Type 0, BuildingBlock: OLANEW_clean_sbu_2, # of connection points: 3
#     Node 3, Type 0, BuildingBlock: OLANEW_clean_sbu_2, # of connection points: 3
#     Node 4, Type 0, BuildingBlock: OLANEW_clean_sbu_2, # of connection points: 3
#     Node 5, Type 0, BuildingBlock: OLANEW_clean_sbu_2, # of connection points: 3
#     Node 6, Type 0, BuildingBlock: OLANEW_clean_sbu_2, # of connection points: 3
#     Node 7, Type 0, BuildingBlock: OLANEW_clean_sbu_2, # of connection points: 3
#     Node 8, Type 1, BuildingBlock: MIDCAF_clean_sbu_0, # of connection points: 6
#     Node 9, Type 1, BuildingBlock: MIDCAF_clean_sbu_0, # of connection points: 6
#     Node 10, Type 1, BuildingBlock: MIDCAF_clean_sbu_0, # of connection points: 6
#     Node 11, Type 1, BuildingBlock: MIDCAF_clean_sbu_0, # of connection points: 6
#     Edge 12, Type (0, 1), BuildingBlock: CIFDUS_clean_linker_0, # of connection points: 2
#     Edge 13, Type (0, 1), BuildingBlock: CIFDUS_clean_linker_0, # of connection points: 2
#     Edge 14, Type (0, 1), BuildingBlock: CIFDUS_clean_linker_0, # of connection points: 2
#     Edge 15, Type (0, 1), BuildingBlock: CIFDUS_clean_linker_0, # of connection points: 2
#     Edge 16, Type (0, 1), BuildingBlock: CIFDUS_clean_linker_0, # of connection points: 2
#     Edge 17, Type (0, 1), BuildingBlock: CIFDUS_clean_linker_0, # of connection points: 2
#     Edge 18, Type (0, 1), BuildingBlock: CIFDUS_clean_linker_0, # of connection points: 2
#     Edge 19, Type (0, 1), BuildingBlock: CIFDUS_clean_linker_0, # of connection points: 2
#     Edge 20, Type (0, 1), BuildingBlock: CIFDUS_clean_linker_0, # of connection points: 2
#     Edge 21, Type (0, 1), BuildingBlock: CIFDUS_clean_linker_0, # of connection points: 2
#     Edge 22, Type (0, 1), BuildingBlock: CIFDUS_clean_linker_0, # of connection points: 2
#     Edge 23, Type (0, 1), BuildingBlock: CIFDUS_clean_linker_0, # of connection points: 2
#     Edge 24, Type (0, 1), BuildingBlock: CIFDUS_clean_linker_0, # of connection points: 2
#     Edge 25, Type (0, 1), BuildingBlock: CIFDUS_clean_linker_0, # of connection points: 2
#     Edge 26, Type (0, 1), BuildingBlock: CIFDUS_clean_linker_0, # of connection points: 2
#     Edge 27, Type (0, 1), BuildingBlock: CIFDUS_clean_linker_0, # of connection points: 2
#     Edge 28, Type (0, 1), BuildingBlock: CIFDUS_clean_linker_0, # of connection points: 2
#     Edge 29, Type (0, 1), BuildingBlock: CIFDUS_clean_linker_0, # of connection points: 2
#     Edge 30, Type (0, 1), BuildingBlock: CIFDUS_clean_linker_0, # of connection points: 2
#     Edge 31, Type (0, 1), BuildingBlock: CIFDUS_clean_linker_0, # of connection points: 2
#     Edge 32, Type (0, 1), BuildingBlock: CIFDUS_clean_linker_0, # of connection points: 2
#     Edge 33, Type (0, 1), BuildingBlock: CIFDUS_clean_linker_0, # of connection points: 2
#     Edge 34, Type (0, 1), BuildingBlock: CIFDUS_clean_linker_0, # of connection points: 2
#     Edge 35, Type (0, 1), BuildingBlock: CIFDUS_clean_linker_0, # of connection points: 2
# Relax obj value: 0.076
# Max RMSD: 0.156
# Mean RMSD: 0.118
data_MOF--net-pyr--node1-OLANEW_clean_sbu_2--node2-MIDCAF_clean_sbu_0--edge1-CIFDUS_clean_linker_0
_symmetry_space_group_name_H-M    P1
_symmetry_Int_Tables_number       1
_symmetry_cell_setting            triclinic
loop_
_symmetry_equiv_pos_as_xyz
'x, y, z'
_cell_length_a     33.315339
_cell_length_b     33.33019
_cell_length_c     32.656705
_cell_angle_alpha  94.796681
_cell_angle_beta   89.707177
_cell_angle_gamma 95.752022
loop_
_atom_site_label
_atom_site_type_symbol
_atom_site_fract_x
_atom_site_fract_y
_atom_site_fract_z
_atom_type_partial_charge
O0 O 0.29684 0.24509 0.23077 0.0
Cd1 Cd 0.23356 0.26974 0.25629 0.0
O2 O 0.30173 0.20467 0.28021 0.0
Cd3 Cd 0.24971 0.22086 0.31677 0.0
O4 O 0.2115 0.20037 0.36713 0.0
C5 C 0.22888 0.17802 0.3897 0.0
O6 O 0.26657 0.17183 0.38169 0.0
C7 C 0.31499 0.21852 0.24709 0.0
C8 C 0.20604 0.33302 0.21597 0.0
O9 O 0.22343 0.33984 0.25114 0.0
O10 O 0.20251 0.29664 0.19932 0.0
O11 O 0.38116 0.81059 0.84261 0.0
Cd12 Cd 0.36219 0.79002 0.77051 0.0
O13 O 0.32506 0.83805 0.83882 0.0
Cd14 Cd 0.2718 0.87189 0.84531 0.0
O15 O 0.21812 0.8802 0.80955 0.0
C16 C 0.19972 0.91188 0.80994 0.0
O17 O 0.21187 0.94345 0.83524 0.0
C18 C 0.35657 0.83374 0.8593 0.0
C19 C 0.39166 0.72178 0.73089 0.0
O20 O 0.4148 0.75438 0.7398 0.0
O21 O 0.35459 0.72065 0.74173 0.0
O22 O 0.84327 0.32156 0.78482 0.0
Cd23 Cd 0.80122 0.28018 0.7319 0.0
O24 O 0.82057 0.27512 0.82446 0.0
Cd25 Cd 0.80599 0.23635 0.87476 0.0
O26 O 0.76998 0.18896 0.9053 0.0
C27 C 0.75917 0.19337 0.94266 0.0
O28 O 0.77146 0.22707 0.96479 0.0
C29 C 0.84267 0.30799 0.82012 0.0
C30 C 0.73956 0.31896 0.69896 0.0
O31 O 0.73542 0.30362 0.73362 0.0
O32 O 0.77304 0.31638 0.67986 0.0
O33 O 0.88298 0.86384 0.27255 0.0
Cd34 Cd 0.85453 0.81941 0.21354 0.0
O35 O 0.84823 0.82019 0.30829 0.0
Cd36 Cd 0.82101 0.79234 0.36117 0.0
O37 O 0.7904 0.74758 0.39856 0.0
C38 C 0.75321 0.73591 0.3927 0.0
O39 O 0.7332 0.75234 0.36498 0.0
C40 C 0.87152 0.85275 0.30741 0.0
C41 C 0.89552 0.75242 0.18746 0.0
O42 O 0.89939 0.78453 0.16818 0.0
O43 O 0.87326 0.75229 0.21959 0.0
O44 O 0.95998 0.93301 0.91416 0.0
Cd45 Cd 0.93263 0.89946 0.97373 0.0
O46 O 0.96236 0.99457 0.94463 0.0
Cd47 Cd 0.93031 0.97388 0.99834 0.0
O48 O 0.87286 0.96326 0.02968 0.0
C49 C 0.85083 0.99236 0.03334 0.0
O50 O 0.86469 0.02736 0.02034 0.0
C51 C 0.9688 0.97095 0.9132 0.0
C52 C 0.95495 0.82098 0.97275 0.0
O53 O 0.97449 0.85014 0.99469 0.0
O54 O 0.92479 0.8289 0.95171 0.0
O55 O 0.55683 0.97053 0.44189 0.0
Cd56 Cd 0.59147 0.94829 0.5006 0.0
O57 O 0.5729 0.03436 0.46247 0.0
Cd58 Cd 0.57543 0.1003 0.46299 0.0
O59 O 0.57937 0.16633 0.47303 0.0
C60 C 0.58414 0.18448 0.5088 0.0
O61 O 0.587 0.16305 0.54045 0.0
C62 C 0.55551 0.00774 0.43645 0.0
C63 C 0.67352 0.9756 0.50478 0.0
O64 O 0.66198 0.94005 0.48841 0.0
O65 O 0.64641 0.99786 0.51856 0.0
O66 O 0.57853 0.68396 0.12362 0.0
Cd67 Cd 0.59691 0.61932 0.14457 0.0
O68 O 0.51485 0.66337 0.13237 0.0
Cd69 Cd 0.44922 0.66336 0.13061 0.0
O70 O 0.38367 0.65218 0.12415 0.0
C71 C 0.36516 0.61688 0.1245 0.0
O72 O 0.3859 0.58615 0.12962 0.0
C73 C 0.54165 0.69057 0.12197 0.0
C74 C 0.59158 0.61056 0.22887 0.0
O75 O 0.62561 0.62135 0.21256 0.0
O76 O 0.56035 0.60475 0.20556 0.0
O77 O 0.12031 0.55354 0.69198 0.0
Cd78 Cd 0.16236 0.58943 0.64285 0.0
O79 O 0.13137 0.49216 0.66773 0.0
Cd80 Cd 0.12374 0.42592 0.66262 0.0
O81 O 0.10826 0.36275 0.63914 0.0
C82 C 0.07933 0.35621 0.61346 0.0
O83 O 0.06118 0.38707 0.60296 0.0
C84 C 0.11443 0.51546 0.69381 0.0
C85 C 0.23103 0.55253 0.61883 0.0
O86 O 0.23164 0.57715 0.6512 0.0
O87 O 0.19785 0.54495 0.59864 0.0
Zn88 Zn 0.95141 0.07226 0.62464 0.0
Zn89 Zn 0.05002 0.97323 0.55099 0.0
Zn90 Zn 0.99924 0.02467 0.58437 0.0
C91 C 0.07446 0.05382 0.52969 0.0
C92 C 0.97389 0.95066 0.51521 0.0
O93 O 0.99821 0.0132 0.65015 0.0
O94 O 0.95841 0.05566 0.68096 0.0
C95 C 0.00889 0.12335 0.58865 0.0
O96 O 0.04399 0.0627 0.55183 0.0
O97 O 0.08328 0.01768 0.52474 0.0
O98 O 0.0084 0.93838 0.51745 0.0
O99 O 0.9652 0.98266 0.53713 0.0
O100 O 0.97781 0.12461 0.61073 0.0
O101 O 0.02127 0.08904 0.57588 0.0
O102 O 0.93759 0.00664 0.55863 0.0
O103 O 0.90245 0.05093 0.59341 0.0
C104 C 0.90397 0.02185 0.56626 0.0
O105 O 0.03128 0.99519 0.63205 0.0
O106 O 0.07168 0.95345 0.60108 0.0
C107 C 0.98085 0.02751 0.6828 0.0
C108 C 0.05816 0.96999 0.63375 0.0
Zn109 Zn 0.49828 0.05046 0.0609 0.0
Zn110 Zn 0.56313 0.97269 0.16097 0.0
Zn111 Zn 0.53051 0.00983 0.11468 0.0
C112 C 0.62382 0.99404 0.11191 0.0
C113 C 0.50744 0.91663 0.12854 0.0
O114 O 0.49248 0.05164 0.15035 0.0
O115 O 0.47091 0.08599 0.10123 0.0
C116 C 0.57984 0.06877 0.05231 0.0
O117 O 0.59709 0.01822 0.10519 0.0
O118 O 0.61436 0.96403 0.1323 0.0
O119 O 0.52316 0.92489 0.16361 0.0
O120 O 0.51018 0.94376 0.1024 0.0
O121 O 0.5477 0.07454 0.03445 0.0
O122 O 0.57895 0.04597 0.08243 0.0
O123 O 0.49307 0.96522 0.0719 0.0
O124 O 0.46511 0.00465 0.03145 0.0
C125 C 0.46925 0.96968 0.04193 0.0
O126 O 0.51492 0.03249 0.17878 0.0
O127 O 0.56733 0.01221 0.20918 0.0
C128 C 0.47217 0.07974 0.13879 0.0
C129 C 0.53746 0.03261 0.21079 0.0
Zn130 Zn 0.59946 0.54086 0.58514 0.0
Zn131 Zn 0.49428 0.47088 0.48708 0.0
Zn132 Zn 0.54482 0.50724 0.53591 0.0
C133 C 0.54529 0.41427 0.49902 0.0
C134 C 0.52715 0.53234 0.44449 0.0
O135 O 0.51257 0.54018 0.5865 0.0
O136 O 0.5647 0.57177 0.62154 0.0
C137 C 0.60854 0.46164 0.58772 0.0
O138 O 0.55689 0.4422 0.52749 0.0
O139 O 0.51916 0.42048 0.47315 0.0
O140 O 0.49524 0.50855 0.44393 0.0
O141 O 0.55161 0.53456 0.47532 0.0
O142 O 0.6206 0.49459 0.60762 0.0
O143 O 0.58222 0.46076 0.55864 0.0
O144 O 0.58147 0.55384 0.50315 0.0
O145 O 0.63273 0.57158 0.54581 0.0
C146 C 0.61554 0.57463 0.51203 0.0
O147 O 0.4838 0.5133 0.56352 0.0
O148 O 0.44657 0.46849 0.52254 0.0
C149 C 0.52707 0.56537 0.61624 0.0
C150 C 0.44942 0.49333 0.55395 0.0
Zn151 Zn 0.10117 0.5599 0.96912 0.0
Zn152 Zn 0.00473 0.48205 0.06191 0.0
Zn153 Zn 0.05613 0.52196 0.01073 0.0
C154 C 0.08379 0.46636 0.08107 0.0
C155 C 0.98774 0.45259 0.97726 0.0
O156 O 0.04273 0.58615 0.01422 0.0
O157 O 0.06814 0.60321 0.95482 0.0
C158 C 0.14632 0.55066 0.03536 0.0
O159 O 0.09244 0.49042 0.0526 0.0
O160 O 0.0476 0.45785 0.09162 0.0
O161 O 0.97564 0.44946 0.0138 0.0
O162 O 0.01874 0.47737 0.97 0.0
O163 O 0.1436 0.57709 0.01037 0.0
O164 O 0.11792 0.52155 0.03673 0.0
O165 O 0.05101 0.49475 0.9458 0.0
O166 O 0.11201 0.51689 0.92628 0.0
C167 C 0.07985 0.49412 0.91933 0.0
O168 O 0.01686 0.56502 0.04201 0.0
O169 O 0.98162 0.53132 0.08811 0.0
C170 C 0.04795 0.61165 0.98659 0.0
C171 C 0.99099 0.56388 0.07152 0.0
H172 H 0.15228 0.1862 0.4181 0.0
H173 H 0.25527 0.11953 0.4328 0.0
H174 H 0.21729 0.07739 0.47974 0.0
H175 H 0.15361 0.05573 0.51235 0.0
H176 H 0.05016 0.1216 0.49912 0.0
H177 H 0.08968 0.16824 0.45662 0.0
C178 C 0.16648 0.1627 0.43189 0.0
C179 C 0.20643 0.15576 0.42145 0.0
C180 C 0.14441 0.1384 0.45913 0.0
C181 C 0.22453 0.12546 0.43998 0.0
C182 C 0.20282 0.10121 0.46685 0.0
C183 C 0.13983 0.08054 0.50045 0.0
C184 C 0.09907 0.08516 0.50861 0.0
C185 C 0.16256 0.10685 0.47593 0.0
C186 C 0.08164 0.11766 0.49348 0.0
C187 C 0.10413 0.1441 0.4689 0.0
H188 H 0.41636 0.82335 0.91316 0.0
H189 H 0.32108 0.89877 0.89456 0.0
H190 H 0.34473 0.94432 0.95336 0.0
H191 H 0.39721 0.9675 0.00442 0.0
H192 H 0.49415 0.89439 0.02263 0.0
H193 H 0.4648 0.8428 0.97034 0.0
C194 C 0.40034 0.8494 0.92236 0.0
C195 C 0.36696 0.85758 0.89905 0.0
C196 C 0.41461 0.87603 0.95611 0.0
C197 C 0.34654 0.89136 0.91172 0.0
C198 C 0.36029 0.91771 0.94533 0.0
C199 C 0.41154 0.9399 0.99746 0.0
C200 C 0.44791 0.93478 0.01721 0.0
C201 C 0.39495 0.91101 0.96689 0.0
C202 C 0.46594 0.89879 0.00821 0.0
C203 C 0.44937 0.86956 0.97794 0.0
H204 H 0.72607 0.33238 0.61908 0.0
H205 H 0.68041 0.35379 0.74205 0.0
H206 H 0.63148 0.3958 0.71698 0.0
H207 H 0.60719 0.43272 0.66169 0.0
H208 H 0.65087 0.41096 0.53836 0.0
H209 H 0.69434 0.36189 0.56155 0.0
C210 C 0.70511 0.34596 0.64024 0.0
C211 C 0.70734 0.34063 0.68249 0.0
C212 C 0.67664 0.36978 0.62549 0.0
C213 C 0.67951 0.35769 0.70948 0.0
C214 C 0.65153 0.38175 0.69518 0.0
C215 C 0.62548 0.41633 0.6398 0.0
C216 C 0.62603 0.42513 0.59852 0.0
C217 C 0.65055 0.38881 0.65349 0.0
C218 C 0.64984 0.40416 0.57024 0.0
C219 C 0.67495 0.37653 0.58362 0.0
H220 H 0.91362 0.72855 0.10856 0.0
H221 H 0.92003 0.69415 0.23258 0.0
H222 H 0.95059 0.63293 0.20776 0.0
H223 H 0.97526 0.58891 0.15058 0.0
H224 H 0.96196 0.6195 0.02625 0.0
H225 H 0.93437 0.68242 0.0511 0.0
C226 C 0.92199 0.70776 0.13013 0.0
C227 C 0.915 0.71602 0.17237 0.0
C228 C 0.93839 0.67201 0.1155 0.0
C229 C 0.92523 0.68846 0.19993 0.0
C230 C 0.94266 0.65345 0.18575 0.0
C231 C 0.96631 0.60945 0.12902 0.0
C232 C 0.97233 0.6007 0.0867 0.0
C233 C 0.94927 0.64484 0.1436 0.0
C234 C 0.95968 0.62688 0.05901 0.0
C235 C 0.94337 0.66251 0.07322 0.0
H236 H 0.35516 0.15603 0.26924 0.0
H237 H 0.35255 0.24137 0.17693 0.0
H238 H 0.40389 0.20782 0.13766 0.0
H239 H 0.4449 0.15132 0.12648 0.0
H240 H 0.44638 0.06399 0.2167 0.0
H241 H 0.40059 0.10181 0.2603 0.0
C242 C 0.36613 0.16764 0.24078 0.0
C243 C 0.3496 0.20105 0.22591 0.0
C244 C 0.39534 0.14779 0.21795 0.0
C245 C 0.36441 0.21565 0.18903 0.0
C246 C 0.39376 0.19642 0.16649 0.0
C247 C 0.4355 0.1406 0.15584 0.0
C248 C 0.44884 0.10463 0.16815 0.0
C249 C 0.40868 0.16197 0.18018 0.0
C250 C 0.43678 0.09162 0.20655 0.0
C251 C 0.41033 0.1131 0.23132 0.0
H252 H 0.15606 0.97549 0.79888 0.0
H253 H 0.17201 0.85353 0.75043 0.0
H254 H 0.12633 0.85956 0.69385 0.0
H255 H 0.08701 0.9014 0.65436 0.0
H256 H 0.07213 0.0238 0.70108 0.0
H257 H 0.11127 0.01537 0.7624 0.0
C258 C 0.14918 0.95006 0.77623 0.0
C259 C 0.16801 0.91433 0.77871 0.0
C260 C 0.12296 0.95378 0.74338 0.0
C261 C 0.15836 0.88157 0.74921 0.0
C262 C 0.13222 0.88495 0.71672 0.0
C263 C 0.09189 0.926 0.67828 0.0
C264 C 0.07646 0.96302 0.67338 0.0
C265 C 0.11517 0.92122 0.71293 0.0
C266 C 0.08306 0.99473 0.70451 0.0
C267 C 0.10582 0.99006 0.73937 0.0
H268 H 0.89921 0.37218 0.8154 0.0
H269 H 0.84134 0.2949 0.90252 0.0
H270 H 0.88219 0.33129 0.95776 0.0
H271 H 0.93378 0.386 0.982 0.0
H272 H 0.98819 0.4661 0.89599 0.0
H273 H 0.94989 0.42757 0.83977 0.0
C274 C 0.89547 0.36316 0.84643 0.0
C275 C 0.86735 0.3302 0.85435 0.0
C276 C 0.91881 0.3847 0.87838 0.0
C277 C 0.86304 0.31933 0.89495 0.0
C278 C 0.88634 0.34043 0.92683 0.0
C279 C 0.93742 0.39495 0.95094 0.0
C280 C 0.96489 0.4284 0.94305 0.0
C281 C 0.9143 0.3732 0.91892 0.0
C282 C 0.96871 0.43966 0.90265 0.0
C283 C 0.94625 0.41793 0.87056 0.0
H284 H 0.67287 0.71064 0.39526 0.0
H285 H 0.78862 0.68798 0.44248 0.0
H286 H 0.75615 0.63441 0.48123 0.0
H287 H 0.6951 0.59516 0.50317 0.0
H288 H 0.57878 0.62061 0.46078 0.0
H289 H 0.61124 0.67123 0.41778 0.0
C290 C 0.69099 0.69392 0.41395 0.0
C291 C 0.73312 0.70343 0.41604 0.0
C292 C 0.67206 0.66336 0.43662 0.0
C293 C 0.75614 0.6815 0.44049 0.0
C294 C 0.73763 0.65076 0.4626 0.0
C295 C 0.67689 0.61165 0.4843 0.0
C296 C 0.63471 0.6034 0.4841 0.0
C297 C 0.69566 0.64163 0.46107 0.0
C298 C 0.61139 0.62539 0.46014 0.0
C299 C 0.62992 0.65471 0.43605 0.0
H300 H 0.19964 0.34254 0.13435 0.0
H301 H 0.1712 0.39601 0.25445 0.0
H302 H 0.13291 0.44454 0.22326 0.0
H303 H 0.10215 0.46744 0.16176 0.0
H304 H 0.13438 0.41756 0.0416 0.0
H305 H 0.17705 0.37236 0.0726 0.0
C306 C 0.18546 0.3652 0.15358 0.0
C307 C 0.18775 0.36544 0.1966 0.0
C308 C 0.1642 0.39357 0.13538 0.0
C309 C 0.1698 0.39525 0.22125 0.0
C310 C 0.14777 0.42289 0.20344 0.0
C311 C 0.1193 0.44724 0.14251 0.0
C312 C 0.11532 0.44562 0.09961 0.0
C313 C 0.14404 0.42176 0.16058 0.0
C314 C 0.13741 0.4194 0.07474 0.0
C315 C 0.16151 0.39341 0.09246 0.0
H316 H 0.72657 0.19527 0.01942 0.0
H317 H 0.72523 0.12237 0.90364 0.0
H318 H 0.67153 0.07542 0.92859 0.0
H319 H 0.62092 0.05797 0.98135 0.0
H320 H 0.62124 0.13149 0.09621 0.0
H321 H 0.67936 0.17522 0.07378 0.0
C322 C 0.71486 0.1689 0.99976 0.0
C323 C 0.7297 0.16268 0.95955 0.0
C324 C 0.68363 0.14218 0.01414 0.0
C325 C 0.71424 0.12815 0.93464 0.0
C326 C 0.68344 0.10125 0.94883 0.0
C327 C 0.6343 0.08323 1.00153 0.0
C328 C 0.61757 0.09143 0.04045 0.0
C329 C 0.66733 0.1084 0.9882 0.0
C330 C 0.63429 0.12453 0.06631 0.0
C331 C 0.66733 0.14952 0.05344 0.0
H332 H 0.88632 0.82666 0.38224 0.0
H333 H 0.88794 0.93454 0.31784 0.0
H334 H 0.91368 0.97576 0.37941 0.0
H335 H 0.94147 0.98037 0.44981 0.0
H336 H 0.94535 0.87162 0.51152 0.0
H337 H 0.91028 0.83165 0.45369 0.0
C338 C 0.89131 0.85926 0.382 0.0
C339 C 0.88486 0.87753 0.34564 0.0
C340 C 0.90694 0.88265 0.41727 0.0
C341 C 0.89283 0.91974 0.34543 0.0
C342 C 0.9074 0.94335 0.38067 0.0
C343 C 0.93354 0.9481 0.45086 0.0
C344 C 0.9453 0.92887 0.48486 0.0
C345 C 0.91525 0.92508 0.41657 0.0
C346 C 0.93604 0.88694 0.4857 0.0
C347 C 0.91635 0.8641 0.45253 0.0
H348 H 0.45648 0.68521 0.74978 0.0
H349 H 0.36209 0.68164 0.65966 0.0
H350 H 0.39441 0.63067 0.6158 0.0
H351 H 0.454 0.59264 0.60054 0.0
H352 H 0.54391 0.59189 0.69508 0.0
H353 H 0.50923 0.63929 0.73959 0.0
C354 C 0.4428 0.67274 0.72079 0.0
C355 C 0.40745 0.68716 0.70754 0.0
C356 C 0.46099 0.64306 0.6964 0.0
C357 C 0.38946 0.67073 0.67026 0.0
C358 C 0.40803 0.64186 0.64515 0.0
C359 C 0.46515 0.60182 0.63138 0.0
C360 C 0.50136 0.58856 0.64449 0.0
C361 C 0.44437 0.62844 0.65752 0.0
C362 C 0.51611 0.60168 0.68416 0.0
C363 C 0.49634 0.62881 0.70972 0.0
H364 H 0.98213 0.9299 0.83928 0.0
H365 H 0.98253 0.05065 0.89888 0.0
H366 H 0.98943 0.07894 0.83253 0.0
H367 H 0.98724 0.06904 0.75729 0.0
H368 H 0.9864 0.94884 0.69714 0.0
H369 H 0.98817 0.92066 0.76396 0.0
C370 C 0.98443 0.96246 0.83786 0.0
C371 C 0.98109 0.98802 0.87404 0.0
C372 C 0.98786 0.97859 0.79945 0.0
C373 C 0.98461 0.03017 0.87158 0.0
C374 C 0.98836 0.04642 0.83359 0.0
C375 C 0.98778 0.0367 0.75893 0.0
C376 C 0.98631 0.01093 0.72261 0.0
C377 C 0.9886 0.02085 0.79731 0.0
C378 C 0.98754 0.96919 0.72485 0.0
C379 C 0.98842 0.95312 0.763 0.0
H380 H 0.5768 0.0716 0.39087 0.0
H381 H 0.4904 0.967 0.39733 0.0
H382 H 0.46692 0.97432 0.32799 0.0
H383 H 0.48214 1.00054 0.26119 0.0
H384 H 0.57343 0.10018 0.25248 0.0
H385 H 0.58229 0.10647 0.32713 0.0
C386 C 0.55175 0.05146 0.37775 0.0
C387 C 0.5356 0.01861 0.39906 0.0
C388 C 0.53927 0.05508 0.33718 0.0
C389 C 0.50366 0.99223 0.38128 0.0
C390 C 0.49018 0.99641 0.34162 0.0
C391 C 0.50222 0.02508 0.27603 0.0
C392 C 0.52687 0.05007 0.25167 0.0
C393 C 0.50921 0.02641 0.31854 0.0
C394 C 0.55368 0.08107 0.27085 0.0
C395 C 0.55935 0.08405 0.31346 0.0
H396 H 0.52452 0.60865 0.27584 0.0
H397 H 0.65167 0.59477 0.2804 0.0
H398 H 0.64412 0.5727 0.34999 0.0
H399 H 0.59932 0.54968 0.40624 0.0
H400 H 0.47271 0.56595 0.40115 0.0
H401 H 0.48202 0.59448 0.33506 0.0
C402 C 0.55067 0.60118 0.2922 0.0
C403 C 0.58841 0.60267 0.27277 0.0
C404 C 0.54611 0.58857 0.33201 0.0
C405 C 0.62218 0.59362 0.29463 0.0
C406 C 0.61786 0.58081 0.33434 0.0
C407 C 0.57413 0.56059 0.39112 0.0
C408 C 0.53544 0.55592 0.40855 0.0
C409 C 0.57971 0.57711 0.35292 0.0
C410 C 0.50279 0.56929 0.38828 0.0
C411 C 0.50804 0.58554 0.35047 0.0
H412 H 0.13045 0.45576 0.74139 0.0
H413 H 0.04573 0.54258 0.72438 0.0
H414 H 0.01843 0.53412 0.7929 0.0
H415 H 0.03115 0.51591 0.86227 0.0
H416 H 0.12019 0.43452 0.882 0.0
H417 H 0.13287 0.42608 0.80802 0.0
C418 C 0.10488 0.47142 0.75212 0.0
C419 C 0.09034 0.50004 0.72822 0.0
C420 C 0.09058 0.46778 0.79244 0.0
C421 C 0.05757 0.52065 0.74254 0.0
C422 C 0.04211 0.51598 0.78179 0.0
C423 C 0.05147 0.49441 0.85003 0.0
C424 C 0.07414 0.47522 0.87723 0.0
C425 C 0.06004 0.49155 0.80783 0.0
C426 C 0.10184 0.4489 0.86137 0.0
C427 C 0.1095 0.4446 0.81914 0.0
H428 H 0.7993 0.0496 0.05158 0.0
H429 H 0.80871 0.92122 0.0505 0.0
H430 H 0.73897 0.91052 0.07354 0.0
H431 H 0.67512 0.93737 0.09321 0.0
H432 H 0.6671 0.06572 0.09991 0.0
H433 H 0.73607 0.07684 0.07411 0.0
C434 C 0.78614 0.01928 0.05644 0.0
C435 C 0.8092 0.98626 0.04923 0.0
C436 C 0.74605 0.01334 0.0699 0.0
C437 C 0.79171 0.9472 0.05592 0.0
C438 C 0.75177 0.94101 0.06896 0.0
C439 C 0.68849 0.96777 0.08892 0.0
C440 C 0.66552 1.00074 0.09656 0.0
C441 C 0.72865 0.97381 0.07589 0.0
C442 C 0.6834 0.03991 0.09164 0.0
C443 C 0.72312 0.04621 0.07784 0.0
H444 H 0.7387 0.93129 0.50031 0.0
H445 H 0.70545 0.05339 0.51967 0.0
H446 H 0.77533 0.0785 0.53487 0.0
H447 H 0.84395 0.06549 0.54943 0.0
H448 H 0.87829 0.94386 0.53554 0.0
H449 H 0.81032 0.91887 0.51015 0.0
C450 C 0.74693 0.96343 0.5073 0.0
C451 C 0.7168 0.9904 0.50931 0.0
C452 C 0.78733 0.9777 0.51692 0.0
C453 C 0.72789 0.03195 0.51841 0.0
C454 C 0.76788 0.04637 0.52705 0.0
C455 C 0.83674 0.0335 0.54041 0.0
C456 C 0.86604 0.00652 0.54436 0.0
C457 C 0.79753 0.01944 0.52747 0.0
C458 C 0.85645 0.9653 0.53213 0.0
C459 C 0.81741 0.951 0.51818 0.0
H460 H 0.31756 0.54484 0.11321 0.0
H461 H 0.31393 0.67429 0.11613 0.0
H462 H 0.24376 0.66442 0.0941 0.0
H463 H 0.18613 0.61969 0.06704 0.0
H464 H 0.18874 0.49039 0.06075 0.0
H465 H 0.25622 0.49938 0.09221 0.0
C466 C 0.30126 0.57088 0.10951 0.0
C467 C 0.32128 0.61028 0.11572 0.0
C468 C 0.26076 0.56499 0.09631 0.0
C469 C 0.29956 0.64366 0.11109 0.0
C470 C 0.25936 0.63807 0.09852 0.0
C471 C 0.20124 0.59342 0.07314 0.0
C472 C 0.18274 0.55442 0.06149 0.0
C473 C 0.2401 0.59897 0.08999 0.0
C474 C 0.20227 0.52064 0.06993 0.0
C475 C 0.24103 0.52588 0.08741 0.0
H476 H 0.30369 0.55446 0.65831 0.0
H477 H 0.24138 0.51148 0.5449 0.0
H478 H 0.3031 0.48778 0.51628 0.0
H479 H 0.37507 0.48345 0.52124 0.0
H480 H 0.43829 0.521 0.63492 0.0
H481 H 0.37586 0.5432 0.66572 0.0
C482 C 0.30361 0.53963 0.62747 0.0
C483 C 0.268 0.53513 0.60363 0.0
C484 C 0.33935 0.52568 0.61112 0.0
C485 C 0.26828 0.51547 0.56389 0.0
C486 C 0.30361 0.50196 0.5474 0.0
C487 C 0.37528 0.49603 0.55298 0.0
C488 C 0.41165 0.50227 0.57533 0.0
C489 C 0.33935 0.50751 0.57047 0.0
C490 C 0.41106 0.51786 0.61655 0.0
C491 C 0.37529 0.53003 0.63422 0.0
H492 H 0.99854 0.7879 0.0292 0.0
H493 H 0.93936 0.76126 0.91143 0.0
H494 H 0.96286 0.69396 0.90545 0.0
H495 H 0.00208 0.64337 0.93261 0.0
H496 H 0.05777 0.66767 0.05199 0.0
H497 H 0.03393 0.73527 0.05862 0.0
C498 C 0.99078 0.76728 0.0023 0.0
C499 C 0.96758 0.77961 0.97063 0.0
C500 C 0.00386 0.72834 0.99936 0.0
C501 C 0.95719 0.75245 0.93622 0.0
C502 C 0.9707 0.71402 0.9327 0.0
C503 C 0.00874 0.66355 0.96008 0.0
C504 C 0.03154 0.65103 0.99175 0.0
C505 C 0.9943 0.70178 0.9639 0.0
C506 C 0.04008 0.67698 0.02736 0.0
C507 C 0.02657 0.71552 0.03105 0.0
H508 H 0.47968 0.73379 0.1487 0.0
H509 H 0.58136 0.73568 0.06641 0.0
H510 H 0.5724 0.80504 0.05252 0.0
H511 H 0.54367 0.86847 0.07346 0.0
H512 H 0.44693 0.86886 0.1612 0.0
H513 H 0.44456 0.79525 0.16205 0.0
C514 C 0.49898 0.74894 0.12671 0.0
C515 C 0.53121 0.72967 0.10872 0.0
C516 C 0.49442 0.78941 0.11984 0.0
C517 C 0.55657 0.75004 0.08097 0.0
C518 C 0.55143 0.7897 0.07294 0.0
C519 C 0.52078 0.85205 0.09112 0.0
C520 C 0.49497 0.8737 0.11659 0.0
C521 C 0.52148 0.81021 0.09343 0.0
C522 C 0.46647 0.85252 0.1407 0.0
C523 C 0.46561 0.81055 0.14168 0.0
H524 H 0.11784 0.28728 0.61186 0.0
H525 H 0.00513 0.33148 0.5815 0.0
H526 H 0.97518 0.26247 0.56457 0.0
H527 H 0.97822 0.18974 0.56701 0.0
H528 H 0.09019 0.14405 0.59594 0.0
H529 H 0.12371 0.21334 0.60358 0.0
C530 C 0.08688 0.28173 0.6011 0.0
C531 C 0.0635 0.31444 0.59874 0.0
C532 C 0.06982 0.24176 0.59101 0.0
C533 C 0.02369 0.3069 0.58396 0.0
C534 C 0.00649 0.26741 0.57427 0.0
C535 C 0.01025 0.19499 0.57388 0.0
C536 C 0.03175 0.16219 0.58125 0.0
C537 C 0.02889 0.23466 0.57882 0.0
C538 C 0.07319 0.16901 0.58994 0.0
C539 C 0.09216 0.20861 0.5948 0.0
H540 H 0.58512 0.23719 0.4499 0.0
H541 H 0.5824 0.23198 0.58147 0.0
H542 H 0.57487 0.30445 0.59078 0.0
H543 H 0.56134 0.36771 0.56079 0.0
H544 H 0.56335 0.37129 0.42912 0.0
H545 H 0.5788 0.30114 0.4206 0.0
C546 C 0.58316 0.25188 0.48066 0.0
C547 C 0.58365 0.22901 0.51485 0.0
C548 C 0.57845 0.29332 0.48577 0.0
C549 C 0.58171 0.24876 0.55453 0.0
C550 C 0.57732 0.29022 0.5599 0.0
C551 C 0.56635 0.35337 0.53041 0.0
C552 C 0.56139 0.37453 0.49564 0.0
C553 C 0.57464 0.31263 0.52568 0.0
C554 C 0.56696 0.35544 0.45631 0.0
C555 C 0.57569 0.31534 0.4514 0.0
loop_
_geom_bond_atom_site_label_1
_geom_bond_atom_site_label_2
_geom_bond_distance
_geom_bond_site_symmetry_2
_ccdc_geom_bond_type
O0 Cd1 2.300 . S
O0 C7 1.275 . S
Cd1 O0 2.300 . S
Cd1 O9 2.381 . S
Cd1 O10 2.378 . S
O2 Cd3 2.385 . S
O2 C7 1.255 . S
Cd3 O2 2.385 . S
Cd3 O4 2.317 . S
O4 Cd3 2.317 . S
O4 C5 1.232 . S
C5 O4 1.232 . S
C5 O6 1.218 . S
O6 C5 1.218 . S
C7 O0 1.275 . S
C7 O2 1.255 . S
C8 O9 1.258 . S
C8 O10 1.256 . S
O9 Cd1 2.381 . S
O9 C8 1.258 . S
O10 Cd1 2.378 . S
O10 C8 1.256 . S
O11 Cd12 2.300 . S
O11 C18 1.275 . S
Cd12 O11 2.300 . S
Cd12 O20 2.381 . S
Cd12 O21 2.378 . S
O13 Cd14 2.385 . S
O13 C18 1.255 . S
Cd14 O13 2.385 . S
Cd14 O15 2.317 . S
O15 Cd14 2.317 . S
O15 C16 1.232 . S
C16 O15 1.232 . S
C16 O17 1.218 . S
O17 C16 1.218 . S
C18 O11 1.275 . S
C18 O13 1.255 . S
C19 O20 1.258 . S
C19 O21 1.256 . S
O20 Cd12 2.381 . S
O20 C19 1.258 . S
O21 Cd12 2.378 . S
O21 C19 1.256 . S
O22 Cd23 2.300 . S
O22 C29 1.275 . S
Cd23 O22 2.300 . S
Cd23 O31 2.381 . S
Cd23 O32 2.378 . S
O24 Cd25 2.385 . S
O24 C29 1.255 . S
Cd25 O24 2.385 . S
Cd25 O26 2.317 . S
O26 Cd25 2.317 . S
O26 C27 1.232 . S
C27 O26 1.232 . S
C27 O28 1.218 . S
O28 C27 1.218 . S
C29 O22 1.275 . S
C29 O24 1.255 . S
C30 O31 1.258 . S
C30 O32 1.256 . S
O31 Cd23 2.381 . S
O31 C30 1.258 . S
O32 Cd23 2.378 . S
O32 C30 1.256 . S
O33 Cd34 2.300 . S
O33 C40 1.275 . S
Cd34 O33 2.300 . S
Cd34 O42 2.381 . S
Cd34 O43 2.378 . S
O35 Cd36 2.385 . S
O35 C40 1.255 . S
Cd36 O35 2.385 . S
Cd36 O37 2.317 . S
O37 Cd36 2.317 . S
O37 C38 1.232 . S
C38 O37 1.232 . S
C38 O39 1.218 . S
O39 C38 1.218 . S
C40 O33 1.275 . S
C40 O35 1.255 . S
C41 O42 1.258 . S
C41 O43 1.256 . S
O42 Cd34 2.381 . S
O42 C41 1.258 . S
O43 Cd34 2.378 . S
O43 C41 1.256 . S
O44 Cd45 2.300 . S
O44 C51 1.275 . S
Cd45 O44 2.300 . S
Cd45 O53 2.381 . S
Cd45 O54 2.378 1_556 S
O46 Cd47 2.385 1_566 S
O46 C51 1.255 . S
Cd47 O46 2.385 1_544 S
Cd47 O48 2.317 1_545 S
O48 Cd47 2.317 1_565 S
O48 C49 1.232 1_565 S
C49 O48 1.232 1_545 S
C49 O50 1.218 . S
O50 C49 1.218 . S
C51 O44 1.275 . S
C51 O46 1.255 . S
C52 O53 1.258 1_554 S
C52 O54 1.256 . S
O53 Cd45 2.381 . S
O53 C52 1.258 1_556 S
O54 Cd45 2.378 1_554 S
O54 C52 1.256 . S
O55 Cd56 2.300 . S
O55 C62 1.275 . S
Cd56 O55 2.300 . S
Cd56 O64 2.381 . S
Cd56 O65 2.378 . S
O57 Cd58 2.385 . S
O57 C62 1.255 . S
Cd58 O57 2.385 . S
Cd58 O59 2.317 . S
O59 Cd58 2.317 . S
O59 C60 1.232 . S
C60 O59 1.232 . S
C60 O61 1.218 . S
O61 C60 1.218 . S
C62 O55 1.275 . S
C62 O57 1.255 . S
C63 O64 1.258 . S
C63 O65 1.256 . S
O64 Cd56 2.381 . S
O64 C63 1.258 . S
O65 Cd56 2.378 . S
O65 C63 1.256 . S
O66 Cd67 2.300 . S
O66 C73 1.275 . S
Cd67 O66 2.300 . S
Cd67 O75 2.381 . S
Cd67 O76 2.378 . S
O68 Cd69 2.385 . S
O68 C73 1.255 . S
Cd69 O68 2.385 . S
Cd69 O70 2.317 . S
O70 Cd69 2.317 . S
O70 C71 1.232 . S
C71 O70 1.232 . S
C71 O72 1.218 . S
O72 C71 1.218 . S
C73 O66 1.275 . S
C73 O68 1.255 . S
C74 O75 1.258 . S
C74 O76 1.256 . S
O75 Cd67 2.381 . S
O75 C74 1.258 . S
O76 Cd67 2.378 . S
O76 C74 1.256 . S
O77 Cd78 2.300 . S
O77 C84 1.275 . S
Cd78 O77 2.300 . S
Cd78 O86 2.381 . S
Cd78 O87 2.378 . S
O79 Cd80 2.385 . S
O79 C84 1.255 . S
Cd80 O79 2.385 . S
Cd80 O81 2.317 . S
O81 Cd80 2.317 . S
O81 C82 1.232 . S
C82 O81 1.232 . S
C82 O83 1.218 . S
O83 C82 1.218 . S
C84 O77 1.275 . S
C84 O79 1.255 . S
C85 O86 1.258 . S
C85 O87 1.256 . S
O86 Cd78 2.381 . S
O86 C85 1.258 . S
O87 Cd78 2.378 . S
O87 C85 1.256 . S
Zn88 O94 1.920 . S
Zn88 O100 1.898 . S
Zn88 O103 1.905 . S
Zn89 O97 1.905 1_565 S
Zn89 O98 1.898 . S
Zn89 O106 1.920 . S
Zn90 O93 2.088 1_455 S
Zn90 O96 2.114 . S
Zn90 O99 2.120 1_445 S
Zn90 O101 2.120 . S
Zn90 O102 2.114 1_455 S
Zn90 O105 2.080 . S
C91 O96 1.166 . S
C91 O97 1.182 . S
C92 O98 1.167 1_655 S
C92 O99 1.299 . S
O93 Zn90 2.088 1_655 S
O93 C107 1.312 . S
O94 Zn88 1.920 . S
O94 C107 1.234 . S
C95 O100 1.167 1_455 S
C95 O101 1.299 . S
O96 Zn90 2.114 . S
O96 C91 1.166 . S
O97 Zn89 1.905 1_545 S
O97 C91 1.182 . S
O98 Zn89 1.898 . S
O98 C92 1.167 1_455 S
O99 Zn90 2.120 1_665 S
O99 C92 1.299 . S
O100 Zn88 1.898 . S
O100 C95 1.167 1_655 S
O101 Zn90 2.120 . S
O101 C95 1.299 . S
O102 Zn90 2.114 1_655 S
O102 C104 1.166 . S
O103 Zn88 1.905 . S
O103 C104 1.182 . S
C104 O102 1.166 . S
C104 O103 1.182 . S
O105 Zn90 2.080 . S
O105 C108 1.305 1_545 S
O106 Zn89 1.920 . S
O106 C108 1.234 . S
C107 O93 1.312 . S
C107 O94 1.234 . S
C108 O105 1.305 1_565 S
C108 O106 1.234 . S
Zn109 O115 1.920 . S
Zn109 O121 1.898 . S
Zn109 O124 1.905 1_554 S
Zn110 O118 1.905 . S
Zn110 O119 1.898 . S
Zn110 O127 1.920 . S
Zn111 O114 2.080 . S
Zn111 O117 2.114 1_545 S
Zn111 O120 2.120 1_545 S
Zn111 O122 2.120 . S
Zn111 O123 2.114 1_545 S
Zn111 O126 2.080 . S
C112 O117 1.166 . S
C112 O118 1.182 . S
C113 O119 1.167 . S
C113 O120 1.299 . S
O114 Zn111 2.080 . S
O114 C128 1.305 . S
O115 Zn109 1.920 . S
O115 C128 1.234 . S
C116 O121 1.167 . S
C116 O122 1.299 . S
O117 Zn111 2.114 1_565 S
O117 C112 1.166 . S
O118 Zn110 1.905 . S
O118 C112 1.182 . S
O119 Zn110 1.898 . S
O119 C113 1.167 . S
O120 Zn111 2.120 1_565 S
O120 C113 1.299 . S
O121 Zn109 1.898 . S
O121 C116 1.167 . S
O122 Zn111 2.120 . S
O122 C116 1.299 . S
O123 Zn111 2.114 1_565 S
O123 C125 1.166 . S
O124 Zn109 1.905 1_556 S
O124 C125 1.182 1_546 S
C125 O123 1.166 . S
C125 O124 1.182 1_564 S
O126 Zn111 2.080 . S
O126 C129 1.305 . S
O127 Zn110 1.920 . S
O127 C129 1.234 1_565 S
C128 O114 1.305 . S
C128 O115 1.234 . S
C129 O126 1.305 . S
C129 O127 1.234 1_545 S
Zn130 O136 1.920 . S
Zn130 O142 1.898 . S
Zn130 O145 1.905 . S
Zn131 O139 1.905 . S
Zn131 O140 1.898 . S
Zn131 O148 1.920 . S
Zn132 O135 2.080 . S
Zn132 O138 2.114 . S
Zn132 O141 2.120 . S
Zn132 O143 2.120 . S
Zn132 O144 2.114 . S
Zn132 O147 2.080 . S
C133 O138 1.166 . S
C133 O139 1.182 . S
C134 O140 1.167 . S
C134 O141 1.299 . S
O135 Zn132 2.080 . S
O135 C149 1.305 . S
O136 Zn130 1.920 . S
O136 C149 1.234 . S
C137 O142 1.167 . S
C137 O143 1.299 . S
O138 Zn132 2.114 . S
O138 C133 1.166 . S
O139 Zn131 1.905 . S
O139 C133 1.182 . S
O140 Zn131 1.898 . S
O140 C134 1.167 . S
O141 Zn132 2.120 . S
O141 C134 1.299 . S
O142 Zn130 1.898 . S
O142 C137 1.167 . S
O143 Zn132 2.120 . S
O143 C137 1.299 . S
O144 Zn132 2.114 . S
O144 C146 1.166 . S
O145 Zn130 1.905 . S
O145 C146 1.182 . S
C146 O144 1.166 . S
C146 O145 1.182 . S
O147 Zn132 2.080 . S
O147 C150 1.305 . S
O148 Zn131 1.920 . S
O148 C150 1.234 . S
C149 O135 1.305 . S
C149 O136 1.234 . S
C150 O147 1.305 . S
C150 O148 1.234 . S
Zn151 O157 1.920 . S
Zn151 O163 1.898 . S
Zn151 O166 1.905 . S
Zn152 O160 1.905 1_655 S
Zn152 O161 1.898 . S
Zn152 O169 1.920 . S
Zn153 O156 2.080 1_554 S
Zn153 O159 2.114 . S
Zn153 O162 2.120 1_454 S
Zn153 O164 2.120 . S
Zn153 O165 2.114 1_554 S
Zn153 O168 2.080 . S
C154 O159 1.166 . S
C154 O160 1.182 . S
C155 O161 1.167 1_556 S
C155 O162 1.299 . S
O156 Zn153 2.080 1_556 S
O156 C170 1.305 . S
O157 Zn151 1.920 . S
O157 C170 1.234 . S
C158 O163 1.167 1_554 S
C158 O164 1.299 . S
O159 Zn153 2.114 . S
O159 C154 1.166 . S
O160 Zn152 1.905 1_455 S
O160 C154 1.182 . S
O161 Zn152 1.898 . S
O161 C155 1.167 1_554 S
O162 Zn153 2.120 1_656 S
O162 C155 1.299 . S
O163 Zn151 1.898 . S
O163 C158 1.167 1_556 S
O164 Zn153 2.120 . S
O164 C158 1.299 . S
O165 Zn153 2.114 1_556 S
O165 C167 1.166 . S
O166 Zn151 1.905 . S
O166 C167 1.182 . S
C167 O165 1.166 . S
C167 O166 1.182 . S
O168 Zn153 2.080 . S
O168 C171 1.305 . S
O169 Zn152 1.920 . S
O169 C171 1.234 1_655 S
C170 O156 1.305 . S
C170 O157 1.234 . S
C171 O168 1.305 . S
C171 O169 1.234 1_455 S
H172 C178 0.930 . S
H173 C181 0.930 . S
H174 C182 0.930 . S
H175 C183 0.930 . S
H176 C186 0.930 . S
H177 C187 0.930 . S
C178 H172 0.930 . S
C178 C179 1.355 . S
C178 C180 1.415 . S
C179 C178 1.355 . S
C179 C181 1.419 . S
C180 C178 1.415 . S
C180 C185 1.425 . S
C180 C187 1.409 . S
C181 H173 0.930 . S
C181 C179 1.419 . S
C181 C182 1.362 . S
C182 H174 0.930 . S
C182 C181 1.362 . S
C182 C185 1.409 . S
C183 H175 0.930 . S
C183 C184 1.355 . S
C183 C185 1.415 . S
C184 C183 1.355 . S
C184 C186 1.419 . S
C185 C180 1.425 . S
C185 C182 1.409 . S
C185 C183 1.415 . S
C186 H176 0.930 . S
C186 C184 1.419 . S
C186 C187 1.362 . S
C187 H177 0.930 . S
C187 C180 1.409 . S
C187 C186 1.362 . S
H188 C194 0.930 . S
H189 C197 0.930 . S
H190 C198 0.958 . S
H191 C199 0.930 1_545 S
H192 C202 0.930 1_554 S
H193 C203 0.930 . S
C194 H188 0.930 . S
C194 C195 1.355 . S
C194 C196 1.415 . S
C195 C194 1.355 . S
C195 C197 1.419 . S
C196 C194 1.415 . S
C196 C201 1.425 . S
C196 C203 1.409 . S
C197 H189 0.930 . S
C197 C195 1.419 . S
C197 C198 1.362 . S
C198 H190 0.958 . S
C198 C197 1.362 . S
C198 C201 1.409 . S
C199 H191 0.930 1_565 S
C199 C200 1.355 . S
C199 C201 1.415 . S
C200 C199 1.355 . S
C200 C202 1.419 . S
C201 C196 1.425 . S
C201 C198 1.409 . S
C201 C199 1.415 . S
C202 H192 0.930 1_556 S
C202 C200 1.419 . S
C202 C203 1.362 . S
C203 H193 0.930 . S
C203 C196 1.409 . S
C203 C202 1.362 . S
H204 C210 0.930 . S
H205 C213 0.930 . S
H206 C214 0.930 . S
H207 C215 0.930 . S
H208 C218 0.930 . S
H209 C219 0.930 . S
C210 H204 0.930 . S
C210 C211 1.355 . S
C210 C212 1.415 . S
C211 C210 1.355 . S
C211 C213 1.419 . S
C212 C210 1.415 . S
C212 C217 1.425 . S
C212 C219 1.409 . S
C213 H205 0.930 . S
C213 C211 1.419 . S
C213 C214 1.362 . S
C214 H206 0.930 . S
C214 C213 1.362 . S
C214 C217 1.409 . S
C215 H207 0.930 . S
C215 C216 1.355 . S
C215 C217 1.415 . S
C216 C215 1.355 . S
C216 C218 1.419 . S
C217 C212 1.425 . S
C217 C214 1.409 . S
C217 C215 1.415 . S
C218 H208 0.930 . S
C218 C216 1.419 . S
C218 C219 1.362 . S
C219 H209 0.930 . S
C219 C212 1.409 . S
C219 C218 1.362 . S
H220 C226 0.930 . S
H221 C229 0.930 1_455 S
H222 C230 0.930 . S
H223 C231 0.930 . S
H224 C234 0.930 . S
H225 C235 0.930 . S
C226 H220 0.930 . S
C226 C227 1.355 . S
C226 C228 1.415 . S
C227 C226 1.355 . S
C227 C229 1.419 . S
C228 C226 1.415 . S
C228 C233 1.425 . S
C228 C235 1.409 . S
C229 H221 0.930 1_655 S
C229 C227 1.419 . S
C229 C230 1.362 1_655 S
C230 H222 0.930 . S
C230 C229 1.362 1_455 S
C230 C233 1.409 1_455 S
C231 H223 0.930 . S
C231 C232 1.355 1_455 S
C231 C233 1.415 1_455 S
C232 C231 1.355 1_655 S
C232 C234 1.419 . S
C233 C228 1.425 . S
C233 C230 1.409 1_655 S
C233 C231 1.415 1_655 S
C234 H224 0.930 . S
C234 C232 1.419 . S
C234 C235 1.362 . S
C235 H225 0.930 . S
C235 C228 1.409 . S
C235 C234 1.362 . S
H236 C242 0.930 . S
H237 C245 0.930 . S
H238 C246 0.930 . S
H239 C247 0.930 . S
H240 C250 0.930 . S
H241 C251 0.930 . S
C242 H236 0.930 . S
C242 C243 1.355 . S
C242 C244 1.415 . S
C243 C242 1.355 . S
C243 C245 1.419 . S
C244 C242 1.415 . S
C244 C249 1.425 . S
C244 C251 1.409 . S
C245 H237 0.930 . S
C245 C243 1.419 . S
C245 C246 1.362 . S
C246 H238 0.930 . S
C246 C245 1.362 . S
C246 C249 1.409 . S
C247 H239 0.930 . S
C247 C248 1.355 . S
C247 C249 1.415 . S
C248 C247 1.355 . S
C248 C250 1.419 . S
C249 C244 1.425 . S
C249 C246 1.409 . S
C249 C247 1.415 . S
C250 H240 0.930 . S
C250 C248 1.419 . S
C250 C251 1.362 . S
C251 H241 0.930 . S
C251 C244 1.409 . S
C251 C250 1.362 . S
H252 C258 0.930 . S
H253 C261 0.930 . S
H254 C262 0.930 . S
H255 C263 0.930 . S
H256 C266 0.930 1_545 S
H257 C267 0.930 1_545 S
C258 H252 0.930 . S
C258 C259 1.355 . S
C258 C260 1.415 . S
C259 C258 1.355 . S
C259 C261 1.419 . S
C260 C258 1.415 . S
C260 C265 1.425 . S
C260 C267 1.409 . S
C261 H253 0.930 . S
C261 C259 1.419 . S
C261 C262 1.362 . S
C262 H254 0.930 . S
C262 C261 1.362 . S
C262 C265 1.409 . S
C263 H255 0.930 . S
C263 C264 1.355 . S
C263 C265 1.415 . S
C264 C263 1.355 . S
C264 C266 1.419 . S
C265 C260 1.425 . S
C265 C262 1.409 . S
C265 C263 1.415 . S
C266 H256 0.930 1_565 S
C266 C264 1.419 . S
C266 C267 1.362 . S
C267 H257 0.930 1_565 S
C267 C260 1.409 . S
C267 C266 1.362 . S
H268 C274 0.930 . S
H269 C277 0.930 . S
H270 C278 0.930 1_554 S
H271 C279 0.930 1_554 S
H272 C282 0.930 . S
H273 C283 0.930 . S
C274 H268 0.930 . S
C274 C275 1.355 . S
C274 C276 1.415 . S
C275 C274 1.355 . S
C275 C277 1.419 . S
C276 C274 1.415 . S
C276 C281 1.425 . S
C276 C283 1.409 . S
C277 H269 0.930 . S
C277 C275 1.419 . S
C277 C278 1.362 . S
C278 H270 0.930 1_556 S
C278 C277 1.362 . S
C278 C281 1.409 . S
C279 H271 0.930 1_556 S
C279 C280 1.355 . S
C279 C281 1.415 . S
C280 C279 1.355 . S
C280 C282 1.419 . S
C281 C276 1.425 . S
C281 C278 1.409 . S
C281 C279 1.415 . S
C282 H272 0.930 . S
C282 C280 1.419 . S
C282 C283 1.362 . S
C283 H273 0.930 . S
C283 C276 1.409 . S
C283 C282 1.362 . S
H284 C290 0.930 . S
H285 C293 0.930 . S
H286 C294 0.930 . S
H287 C295 0.930 . S
H288 C298 0.930 . S
H289 C299 0.930 . S
C290 H284 0.930 . S
C290 C291 1.355 . S
C290 C292 1.415 . S
C291 C290 1.355 . S
C291 C293 1.419 . S
C292 C290 1.415 . S
C292 C297 1.425 . S
C292 C299 1.409 . S
C293 H285 0.930 . S
C293 C291 1.419 . S
C293 C294 1.362 . S
C294 H286 0.930 . S
C294 C293 1.362 . S
C294 C297 1.409 . S
C295 H287 0.930 . S
C295 C296 1.355 . S
C295 C297 1.415 . S
C296 C295 1.355 . S
C296 C298 1.419 . S
C297 C292 1.425 . S
C297 C294 1.409 . S
C297 C295 1.415 . S
C298 H288 0.930 . S
C298 C296 1.419 . S
C298 C299 1.362 . S
C299 H289 0.930 . S
C299 C292 1.409 . S
C299 C298 1.362 . S
H300 C306 0.930 . S
H301 C309 0.930 . S
H302 C310 0.930 . S
H303 C311 0.930 . S
H304 C314 0.930 . S
H305 C315 0.930 . S
C306 H300 0.930 . S
C306 C307 1.355 . S
C306 C308 1.415 . S
C307 C306 1.355 . S
C307 C309 1.419 . S
C308 C306 1.415 . S
C308 C313 1.425 . S
C308 C315 1.409 . S
C309 H301 0.930 . S
C309 C307 1.419 . S
C309 C310 1.362 . S
C310 H302 0.930 . S
C310 C309 1.362 . S
C310 C313 1.409 . S
C311 H303 0.930 . S
C311 C312 1.355 . S
C311 C313 1.415 . S
C312 C311 1.355 . S
C312 C314 1.419 . S
C313 C308 1.425 . S
C313 C310 1.409 . S
C313 C311 1.415 . S
C314 H304 0.930 . S
C314 C312 1.419 . S
C314 C315 1.362 . S
C315 H305 0.930 . S
C315 C308 1.409 . S
C315 C314 1.362 . S
H316 C322 0.930 . S
H317 C325 0.930 . S
H318 C326 0.930 . S
H319 C327 0.930 . S
H320 C330 0.930 . S
H321 C331 0.930 . S
C322 H316 0.930 . S
C322 C323 1.355 . S
C322 C324 1.415 . S
C323 C322 1.355 . S
C323 C325 1.419 . S
C324 C322 1.415 . S
C324 C329 1.425 . S
C324 C331 1.409 1_556 S
C325 H317 0.930 . S
C325 C323 1.419 . S
C325 C326 1.362 . S
C326 H318 0.930 . S
C326 C325 1.362 . S
C326 C329 1.409 . S
C327 H319 0.930 . S
C327 C328 1.355 1_556 S
C327 C329 1.415 . S
C328 C327 1.355 1_554 S
C328 C330 1.419 . S
C329 C324 1.425 . S
C329 C326 1.409 . S
C329 C327 1.415 . S
C330 H320 0.930 . S
C330 C328 1.419 . S
C330 C331 1.362 . S
C331 H321 0.930 . S
C331 C324 1.409 1_554 S
C331 C330 1.362 . S
H332 C338 0.930 . S
H333 C341 0.930 . S
H334 C342 0.930 . S
H335 C343 0.930 . S
H336 C346 0.930 . S
H337 C347 0.930 . S
C338 H332 0.930 . S
C338 C339 1.355 . S
C338 C340 1.415 . S
C339 C338 1.355 . S
C339 C341 1.419 . S
C340 C338 1.415 . S
C340 C345 1.425 . S
C340 C347 1.409 . S
C341 H333 0.930 . S
C341 C339 1.419 . S
C341 C342 1.362 . S
C342 H334 0.930 . S
C342 C341 1.362 . S
C342 C345 1.409 . S
C343 H335 0.930 . S
C343 C344 1.355 . S
C343 C345 1.415 . S
C344 C343 1.355 . S
C344 C346 1.419 . S
C345 C340 1.425 . S
C345 C342 1.409 . S
C345 C343 1.415 . S
C346 H336 0.930 . S
C346 C344 1.419 . S
C346 C347 1.362 . S
C347 H337 0.930 . S
C347 C340 1.409 . S
C347 C346 1.362 . S
H348 C354 0.930 . S
H349 C357 0.930 . S
H350 C358 0.930 . S
H351 C359 0.930 . S
H352 C362 0.930 . S
H353 C363 0.930 . S
C354 H348 0.930 . S
C354 C355 1.355 . S
C354 C356 1.415 . S
C355 C354 1.355 . S
C355 C357 1.419 . S
C356 C354 1.415 . S
C356 C361 1.425 . S
C356 C363 1.409 . S
C357 H349 0.930 . S
C357 C355 1.419 . S
C357 C358 1.362 . S
C358 H350 0.930 . S
C358 C357 1.362 . S
C358 C361 1.409 . S
C359 H351 0.930 . S
C359 C360 1.355 . S
C359 C361 1.415 . S
C360 C359 1.355 . S
C360 C362 1.419 . S
C361 C356 1.425 . S
C361 C358 1.409 . S
C361 C359 1.415 . S
C362 H352 0.930 . S
C362 C360 1.419 . S
C362 C363 1.362 . S
C363 H353 0.930 . S
C363 C356 1.409 . S
C363 C362 1.362 . S
H364 C370 0.908 1_455 S
H365 C373 0.930 . S
H366 C374 0.930 . S
H367 C375 0.930 . S
H368 C378 0.930 . S
H369 C379 0.930 . S
C370 H364 0.908 1_655 S
C370 C371 1.374 . S
C370 C372 1.416 . S
C371 C370 1.374 . S
C371 C373 1.419 . S
C372 C370 1.416 . S
C372 C377 1.425 . S
C372 C379 1.409 1_655 S
C373 H365 0.930 . S
C373 C371 1.419 . S
C373 C374 1.362 . S
C374 H366 0.930 . S
C374 C373 1.362 . S
C374 C377 1.409 . S
C375 H367 0.930 . S
C375 C376 1.355 . S
C375 C377 1.415 . S
C376 C375 1.355 . S
C376 C378 1.419 1_655 S
C377 C372 1.425 . S
C377 C374 1.409 . S
C377 C375 1.415 . S
C378 H368 0.930 . S
C378 C376 1.419 1_455 S
C378 C379 1.362 . S
C379 H369 0.930 . S
C379 C372 1.409 1_455 S
C379 C378 1.362 . S
H380 C386 0.930 . S
H381 C389 0.930 . S
H382 C390 0.930 . S
H383 C391 0.930 . S
H384 C394 0.930 . S
H385 C395 0.930 . S
C386 H380 0.930 . S
C386 C387 1.355 . S
C386 C388 1.415 . S
C387 C386 1.355 . S
C387 C389 1.419 . S
C388 C386 1.415 . S
C388 C393 1.425 . S
C388 C395 1.409 . S
C389 H381 0.930 . S
C389 C387 1.419 . S
C389 C390 1.362 . S
C390 H382 0.930 . S
C390 C389 1.362 . S
C390 C393 1.409 . S
C391 H383 0.930 . S
C391 C392 1.355 . S
C391 C393 1.415 . S
C392 C391 1.355 . S
C392 C394 1.419 . S
C393 C388 1.425 . S
C393 C390 1.409 . S
C393 C391 1.415 . S
C394 H384 0.930 . S
C394 C392 1.419 . S
C394 C395 1.362 . S
C395 H385 0.930 . S
C395 C388 1.409 . S
C395 C394 1.362 . S
H396 C402 0.930 . S
H397 C405 0.930 . S
H398 C406 0.930 . S
H399 C407 0.930 . S
H400 C410 0.930 . S
H401 C411 0.930 . S
C402 H396 0.930 . S
C402 C403 1.355 . S
C402 C404 1.415 . S
C403 C402 1.355 . S
C403 C405 1.419 . S
C404 C402 1.415 . S
C404 C409 1.425 . S
C404 C411 1.409 . S
C405 H397 0.930 . S
C405 C403 1.419 . S
C405 C406 1.362 . S
C406 H398 0.930 . S
C406 C405 1.362 . S
C406 C409 1.409 . S
C407 H399 0.930 . S
C407 C408 1.355 . S
C407 C409 1.415 . S
C408 C407 1.355 . S
C408 C410 1.419 . S
C409 C404 1.425 . S
C409 C406 1.409 . S
C409 C407 1.415 . S
C410 H400 0.930 . S
C410 C408 1.419 . S
C410 C411 1.362 . S
C411 H401 0.930 . S
C411 C404 1.409 . S
C411 C410 1.362 . S
H412 C418 0.930 . S
H413 C421 0.930 . S
H414 C422 0.930 . S
H415 C423 0.930 . S
H416 C426 0.930 . S
H417 C427 0.930 . S
C418 H412 0.930 . S
C418 C419 1.355 . S
C418 C420 1.415 . S
C419 C418 1.355 . S
C419 C421 1.419 . S
C420 C418 1.415 . S
C420 C425 1.425 . S
C420 C427 1.409 . S
C421 H413 0.930 . S
C421 C419 1.419 . S
C421 C422 1.362 . S
C422 H414 0.930 . S
C422 C421 1.362 . S
C422 C425 1.409 . S
C423 H415 0.930 . S
C423 C424 1.355 . S
C423 C425 1.415 . S
C424 C423 1.355 . S
C424 C426 1.419 . S
C425 C420 1.425 . S
C425 C422 1.409 . S
C425 C423 1.415 . S
C426 H416 0.930 . S
C426 C424 1.419 . S
C426 C427 1.362 . S
C427 H417 0.930 . S
C427 C420 1.409 . S
C427 C426 1.362 . S
H428 C434 0.930 . S
H429 C437 0.930 . S
H430 C438 0.930 . S
H431 C439 0.930 . S
H432 C442 0.930 . S
H433 C443 0.930 . S
C434 H428 0.930 . S
C434 C435 1.355 1_545 S
C434 C436 1.415 . S
C435 C434 1.355 1_565 S
C435 C437 1.419 . S
C436 C434 1.415 . S
C436 C441 1.425 1_545 S
C436 C443 1.409 . S
C437 H429 0.930 . S
C437 C435 1.419 . S
C437 C438 1.362 . S
C438 H430 0.930 . S
C438 C437 1.362 . S
C438 C441 1.409 . S
C439 H431 0.930 . S
C439 C440 1.355 1_565 S
C439 C441 1.415 . S
C440 C439 1.355 1_545 S
C440 C442 1.419 . S
C441 C436 1.425 1_565 S
C441 C438 1.409 . S
C441 C439 1.415 . S
C442 H432 0.930 . S
C442 C440 1.419 . S
C442 C443 1.362 . S
C443 H433 0.930 . S
C443 C436 1.409 . S
C443 C442 1.362 . S
H444 C450 0.930 1_565 S
H445 C453 0.930 . S
H446 C454 0.930 . S
H447 C455 0.930 . S
H448 C458 0.930 . S
H449 C459 0.930 . S
C450 H444 0.930 1_545 S
C450 C451 1.355 . S
C450 C452 1.415 . S
C451 C450 1.355 . S
C451 C453 1.419 . S
C452 C450 1.415 . S
C452 C457 1.425 . S
C452 C459 1.409 1_545 S
C453 H445 0.930 . S
C453 C451 1.419 . S
C453 C454 1.362 . S
C454 H446 0.930 . S
C454 C453 1.362 . S
C454 C457 1.409 . S
C455 H447 0.930 . S
C455 C456 1.355 . S
C455 C457 1.415 . S
C456 C455 1.355 . S
C456 C458 1.419 1_545 S
C457 C452 1.425 . S
C457 C454 1.409 . S
C457 C455 1.415 . S
C458 H448 0.930 . S
C458 C456 1.419 1_565 S
C458 C459 1.362 . S
C459 H449 0.930 . S
C459 C452 1.409 1_565 S
C459 C458 1.362 . S
H460 C466 0.930 . S
H461 C469 0.930 . S
H462 C470 0.930 . S
H463 C471 0.930 . S
H464 C474 0.930 . S
H465 C475 0.930 . S
C466 H460 0.930 . S
C466 C467 1.355 . S
C466 C468 1.415 . S
C467 C466 1.355 . S
C467 C469 1.419 . S
C468 C466 1.415 . S
C468 C473 1.425 . S
C468 C475 1.409 . S
C469 H461 0.930 . S
C469 C467 1.419 . S
C469 C470 1.362 . S
C470 H462 0.930 . S
C470 C469 1.362 . S
C470 C473 1.409 . S
C471 H463 0.930 . S
C471 C472 1.355 . S
C471 C473 1.415 . S
C472 C471 1.355 . S
C472 C474 1.419 . S
C473 C468 1.425 . S
C473 C470 1.409 . S
C473 C471 1.415 . S
C474 H464 0.930 . S
C474 C472 1.419 . S
C474 C475 1.362 . S
C475 H465 0.930 . S
C475 C468 1.409 . S
C475 C474 1.362 . S
H476 C482 0.930 . S
H477 C485 0.930 . S
H478 C486 0.930 . S
H479 C487 0.930 . S
H480 C490 0.930 . S
H481 C491 0.930 . S
C482 H476 0.930 . S
C482 C483 1.355 . S
C482 C484 1.415 . S
C483 C482 1.355 . S
C483 C485 1.419 . S
C484 C482 1.415 . S
C484 C489 1.425 . S
C484 C491 1.409 . S
C485 H477 0.930 . S
C485 C483 1.419 . S
C485 C486 1.362 . S
C486 H478 0.930 . S
C486 C485 1.362 . S
C486 C489 1.409 . S
C487 H479 0.930 . S
C487 C488 1.355 . S
C487 C489 1.415 . S
C488 C487 1.355 . S
C488 C490 1.419 . S
C489 C484 1.425 . S
C489 C486 1.409 . S
C489 C487 1.415 . S
C490 H480 0.930 . S
C490 C488 1.419 . S
C490 C491 1.362 . S
C491 H481 0.930 . S
C491 C484 1.409 . S
C491 C490 1.362 . S
H492 C498 0.930 . S
H493 C501 0.930 . S
H494 C502 0.930 . S
H495 C503 0.930 1_655 S
H496 C506 0.930 . S
H497 C507 0.930 . S
C498 H492 0.930 . S
C498 C499 1.355 1_556 S
C498 C500 1.415 . S
C499 C498 1.355 1_554 S
C499 C501 1.419 1_455 S
C500 C498 1.415 . S
C500 C505 1.425 1_556 S
C500 C507 1.409 . S
C501 H493 0.930 . S
C501 C499 1.419 1_655 S
C501 C502 1.362 . S
C502 H494 0.930 . S
C502 C501 1.362 . S
C502 C505 1.409 1_655 S
C503 H495 0.930 1_455 S
C503 C504 1.355 . S
C503 C505 1.415 . S
C504 C503 1.355 . S
C504 C506 1.419 1_554 S
C505 C500 1.425 1_554 S
C505 C502 1.409 1_455 S
C505 C503 1.415 . S
C506 H496 0.930 . S
C506 C504 1.419 1_556 S
C506 C507 1.362 . S
C507 H497 0.930 . S
C507 C500 1.409 . S
C507 C506 1.362 . S
H508 C514 0.930 . S
H509 C517 0.930 . S
H510 C518 0.930 . S
H511 C519 0.930 . S
H512 C522 0.930 . S
H513 C523 0.930 . S
C514 H508 0.930 . S
C514 C515 1.355 . S
C514 C516 1.415 . S
C515 C514 1.355 . S
C515 C517 1.419 . S
C516 C514 1.415 . S
C516 C521 1.425 . S
C516 C523 1.409 . S
C517 H509 0.930 . S
C517 C515 1.419 . S
C517 C518 1.362 . S
C518 H510 0.930 . S
C518 C517 1.362 . S
C518 C521 1.409 . S
C519 H511 0.930 . S
C519 C520 1.355 . S
C519 C521 1.415 . S
C520 C519 1.355 . S
C520 C522 1.419 . S
C521 C516 1.425 . S
C521 C518 1.409 . S
C521 C519 1.415 . S
C522 H512 0.930 . S
C522 C520 1.419 . S
C522 C523 1.362 . S
C523 H513 0.930 . S
C523 C516 1.409 . S
C523 C522 1.362 . S
H524 C530 0.930 . S
H525 C533 0.930 1_655 S
H526 C534 0.951 . S
H527 C535 0.930 1_655 S
H528 C538 0.930 . S
H529 C539 0.930 . S
C530 H524 0.930 . S
C530 C531 1.355 . S
C530 C532 1.415 . S
C531 C530 1.355 . S
C531 C533 1.419 . S
C532 C530 1.415 . S
C532 C537 1.425 . S
C532 C539 1.409 . S
C533 H525 0.930 1_455 S
C533 C531 1.419 . S
C533 C534 1.358 1_455 S
C534 H526 0.951 . S
C534 C533 1.358 1_655 S
C534 C537 1.393 1_655 S
C535 H527 0.930 1_455 S
C535 C536 1.355 . S
C535 C537 1.415 . S
C536 C535 1.355 . S
C536 C538 1.419 . S
C537 C532 1.425 . S
C537 C534 1.393 1_455 S
C537 C535 1.415 . S
C538 H528 0.930 . S
C538 C536 1.419 . S
C538 C539 1.362 . S
C539 H529 0.930 . S
C539 C532 1.409 . S
C539 C538 1.362 . S
H540 C546 0.930 . S
H541 C549 0.930 . S
H542 C550 0.930 . S
H543 C551 0.930 . S
H544 C554 0.930 . S
H545 C555 0.930 . S
C546 H540 0.930 . S
C546 C547 1.355 . S
C546 C548 1.415 . S
C547 C546 1.355 . S
C547 C549 1.419 . S
C548 C546 1.415 . S
C548 C553 1.425 . S
C548 C555 1.409 . S
C549 H541 0.930 . S
C549 C547 1.419 . S
C549 C550 1.362 . S
C550 H542 0.930 . S
C550 C549 1.362 . S
C550 C553 1.409 . S
C551 H543 0.930 . S
C551 C552 1.355 . S
C551 C553 1.415 . S
C552 C551 1.355 . S
C552 C554 1.419 . S
C553 C548 1.425 . S
C553 C550 1.409 . S
C553 C551 1.415 . S
C554 H544 0.930 . S
C554 C552 1.419 . S
C554 C555 1.362 . S
C555 H545 0.930 . S
C555 C548 1.409 . S
C555 C554 1.362 . S
C179 C5 1.682 . S
C184 C91 1.677 . S
C195 C18 1.571 . S
C200 C125 1.525 1_556 S
C216 C137 1.251 . S
C211 C30 1.333 . S
C227 C41 1.271 . S
C232 C171 1.257 1_655 S
C248 C128 1.627 . S
C243 C7 1.720 . S
C264 C108 1.670 . S
C259 C16 1.537 . S
C280 C155 1.448 . S
C275 C29 1.510 . S
C296 C146 1.107 . S
C291 C38 0.973 . S
C307 C8 1.663 . S
C312 C154 1.588 . S
C328 C116 1.553 . S
C323 C27 1.447 . S
C339 C40 1.480 . S
C344 C92 1.372 . S
C355 C19 1.278 . S
C360 C149 1.169 . S
C376 C107 1.613 1_565 S
C371 C51 1.691 . S
C387 C62 1.657 . S
C392 C129 1.612 . S
C403 C74 1.499 . S
C408 C134 1.428 . S
C419 C84 1.362 . S
C424 C167 1.471 . S
C435 C49 1.899 1_565 S
C440 C112 1.856 1_545 S
C456 C104 1.554 . S
C451 C63 1.526 . S
C472 C158 1.458 . S
C467 C71 1.125 . S
C488 C150 1.342 . S
C483 C85 1.331 . S
C499 C52 1.683 1_455 S
C504 C170 1.564 1_554 S
C520 C113 1.732 . S
C515 C73 1.786 . S
C536 C95 1.449 . S
C531 C82 1.207 . S
C547 C60 1.360 . S
C552 C133 1.587 . S
