# Generated by pormake.
# Topology anh, (6,3)-cn, num edge types: 1
# Building blocks:
#     Node 0, Type 0, BuildingBlock: GEDQOX_clean_sbu_0, # of connection points: 6
#     Node 1, Type 0, BuildingBlock: GEDQOX_clean_sbu_0, # of connection points: 6
#     Node 2, Type 0, BuildingBlock: GEDQOX_clean_sbu_0, # of connection points: 6
#     Node 3, Type 1, BuildingBlock: OLANEW_clean_sbu_2, # of connection points: 3
#     Node 4, Type 1, BuildingBlock: OLANEW_clean_sbu_2, # of connection points: 3
#     Node 5, Type 1, BuildingBlock: OLANEW_clean_sbu_2, # of connection points: 3
#     Node 6, Type 1, BuildingBlock: OLANEW_clean_sbu_2, # of connection points: 3
#     Node 7, Type 1, BuildingBlock: OLANEW_clean_sbu_2, # of connection points: 3
#     Node 8, Type 1, BuildingBlock: OLANEW_clean_sbu_2, # of connection points: 3
#     Edge 9, Type (0, 1), BuildingBlock: XUDNAN_clean_linker_2, # of connection points: 2
#     Edge 10, Type (0, 1), BuildingBlock: XUDNAN_clean_linker_2, # of connection points: 2
#     Edge 11, Type (0, 1), BuildingBlock: XUDNAN_clean_linker_2, # of connection points: 2
#     Edge 12, Type (0, 1), BuildingBlock: XUDNAN_clean_linker_2, # of connection points: 2
#     Edge 13, Type (0, 1), BuildingBlock: XUDNAN_clean_linker_2, # of connection points: 2
#     Edge 14, Type (0, 1), BuildingBlock: XUDNAN_clean_linker_2, # of connection points: 2
#     Edge 15, Type (0, 1), BuildingBlock: XUDNAN_clean_linker_2, # of connection points: 2
#     Edge 16, Type (0, 1), BuildingBlock: XUDNAN_clean_linker_2, # of connection points: 2
#     Edge 17, Type (0, 1), BuildingBlock: XUDNAN_clean_linker_2, # of connection points: 2
#     Edge 18, Type (0, 1), BuildingBlock: XUDNAN_clean_linker_2, # of connection points: 2
#     Edge 19, Type (0, 1), BuildingBlock: XUDNAN_clean_linker_2, # of connection points: 2
#     Edge 20, Type (0, 1), BuildingBlock: XUDNAN_clean_linker_2, # of connection points: 2
#     Edge 21, Type (0, 1), BuildingBlock: XUDNAN_clean_linker_2, # of connection points: 2
#     Edge 22, Type (0, 1), BuildingBlock: XUDNAN_clean_linker_2, # of connection points: 2
#     Edge 23, Type (0, 1), BuildingBlock: XUDNAN_clean_linker_2, # of connection points: 2
#     Edge 24, Type (0, 1), BuildingBlock: XUDNAN_clean_linker_2, # of connection points: 2
#     Edge 25, Type (0, 1), BuildingBlock: XUDNAN_clean_linker_2, # of connection points: 2
#     Edge 26, Type (0, 1), BuildingBlock: XUDNAN_clean_linker_2, # of connection points: 2
# Relax obj value: 0.138
# Max RMSD: 0.171
# Mean RMSD: 0.115
data_MOF--net-anh--node1-GEDQOX_clean_sbu_0--node2-OLANEW_clean_sbu_2--edge1-XUDNAN_clean_linker_2
_symmetry_space_group_name_H-M    P1
_symmetry_Int_Tables_number       1
_symmetry_cell_setting            triclinic
loop_
_symmetry_equiv_pos_as_xyz
'x, y, z'
_cell_length_a     37.293306
_cell_length_b     33.525174
_cell_length_c     50.578026
_cell_angle_alpha  92.870144
_cell_angle_beta   90.177007
_cell_angle_gamma 108.32297
loop_
_atom_site_label
_atom_site_type_symbol
_atom_site_fract_x
_atom_site_fract_y
_atom_site_fract_z
_atom_type_partial_charge
Nd0 Nd 0.04748 0.55166 0.16184 0.0
Nd1 Nd 0.01595 0.45696 0.16368 0.0
C2 C 0.08634 0.62986 0.15174 0.0
C3 C 0.12314 0.65996 0.1601 0.0
C4 C 0.14316 0.69014 0.14278 0.0
C5 C 0.17737 0.72017 0.15097 0.0
C6 C 0.19181 0.72058 0.17672 0.0
C7 C 0.17233 0.6893 0.19367 0.0
C8 C 0.13841 0.65909 0.18538 0.0
C9 C 0.03446 0.52292 0.21189 0.0
C10 C 0.10744 0.49581 0.1608 0.0
C11 C 0.97694 0.38072 0.17752 0.0
C12 C 0.9371 0.35361 0.1764 0.0
C13 C 0.9075 0.36915 0.18395 0.0
C14 C 0.86994 0.34281 0.18226 0.0
C15 C 0.8613 0.3006 0.17279 0.0
C16 C 0.89106 0.28529 0.1653 0.0
C17 C 0.92852 0.31151 0.16713 0.0
C18 C 0.02936 0.48501 0.11387 0.0
C19 C 0.95661 0.51303 0.15563 0.0
O20 O 0.08738 0.59726 0.13681 0.0
O21 O 0.06053 0.62022 0.16992 0.0
O22 O 0.02763 0.55628 0.20442 0.0
O23 O 0.04929 0.50703 0.19357 0.0
O24 O 0.10128 0.53195 0.15732 0.0
O25 O 0.07941 0.46153 0.16603 0.0
O26 O 0.98567 0.41398 0.19395 0.0
O27 O 0.99381 0.38798 0.1548 0.0
O28 O 0.0335 0.44969 0.12041 0.0
O29 O 0.01559 0.50143 0.13241 0.0
O30 O 0.96079 0.47775 0.16408 0.0
O31 O 0.98656 0.54465 0.14984 0.0
H32 H 0.13196 0.69099 0.12309 0.0
H33 H 0.19175 0.74402 0.13757 0.0
H34 H 0.18312 0.6886 0.2135 0.0
H35 H 0.12375 0.63554 0.1989 0.0
H36 H 0.91331 0.40165 0.19099 0.0
H37 H 0.84765 0.35564 0.18796 0.0
H38 H 0.88543 0.25281 0.15829 0.0
H39 H 0.95087 0.29888 0.16122 0.0
Nd40 Nd 0.47193 0.00397 0.51246 0.0
Nd41 Nd 0.55499 0.04061 0.51529 0.0
C42 C 0.4003 0.96184 0.52058 0.0
C43 C 0.37474 0.91805 0.51926 0.0
C44 C 0.35744 0.90054 0.54243 0.0
C45 C 0.33165 0.85995 0.54154 0.0
C46 C 0.32238 0.83621 0.51738 0.0
C47 C 0.34023 0.8534 0.49425 0.0
C48 C 0.36627 0.89391 0.49517 0.0
C49 C 0.50463 0.01564 0.46373 0.0
C50 C 0.52437 0.9406 0.51606 0.0
C51 C 0.62768 0.08205 0.51138 0.0
C52 C 0.65386 0.12419 0.50673 0.0
C53 C 0.65469 0.14213 0.48214 0.0
C54 C 0.68357 0.17878 0.47675 0.0
C55 C 0.71177 0.19824 0.49592 0.0
C56 C 0.70947 0.18208 0.52111 0.0
C57 C 0.68081 0.14512 0.52642 0.0
C58 C 0.52168 0.02503 0.56346 0.0
C59 C 0.50387 0.10343 0.5096 0.0
O60 O 0.42624 0.97204 0.53938 0.0
O61 O 0.41248 0.97883 0.49824 0.0
O62 O 0.47374 0.02387 0.46949 0.0
O63 O 0.51668 1.00091 0.48306 0.0
O64 O 0.49054 0.94497 0.51913 0.0
O65 O 0.55397 0.97277 0.51097 0.0
O66 O 0.60655 0.06084 0.49144 0.0
O67 O 0.61013 0.07743 0.53387 0.0
O68 O 0.55159 0.01558 0.5567 0.0
O69 O 0.51027 0.04247 0.54511 0.0
O70 O 0.53644 0.09737 0.50436 0.0
O71 O 0.4746 0.07283 0.5172 0.0
H72 H 0.36339 0.9186 0.56121 0.0
H73 H 0.318 0.84769 0.55962 0.0
H74 H 0.33382 0.83561 0.4754 0.0
H75 H 0.3793 0.90643 0.47697 0.0
H76 H 0.63413 0.12694 0.46664 0.0
H77 H 0.68491 0.1909 0.45719 0.0
H78 H 0.7312 0.19643 0.53606 0.0
H79 H 0.68076 0.13182 0.54552 0.0
Nd80 Nd 0.48514 0.49494 0.83945 0.0
Nd81 Nd 0.56842 0.53725 0.85116 0.0
C82 C 0.4221 0.47497 0.81125 0.0
C83 C 0.38969 0.49109 0.81035 0.0
C84 C 0.3838 0.5111 0.78779 0.0
C85 C 0.3548 0.52899 0.78691 0.0
C86 C 0.33075 0.5268 0.80849 0.0
C87 C 0.3367 0.5068 0.83114 0.0
C88 C 0.36599 0.48921 0.83211 0.0
C89 C 0.49105 0.50474 0.8938 0.0
C90 C 0.51799 0.59631 0.85354 0.0
C91 C 0.64156 0.56242 0.86227 0.0
C92 C 0.67212 0.54447 0.85688 0.0
C93 C 0.66523 0.50086 0.85696 0.0
C94 C 0.69498 0.48429 0.8544 0.0
C95 C 0.73201 0.51105 0.85151 0.0
C96 C 0.73846 0.55432 0.84922 0.0
C97 C 0.7086 0.57097 0.85198 0.0
C98 C 0.54535 0.52648 0.79869 0.0
C99 C 0.53566 0.43338 0.84531 0.0
O100 O 0.45402 0.50113 0.80364 0.0
O101 O 0.42598 0.45442 0.83194 0.0
O102 O 0.4598 0.48808 0.88036 0.0
O103 O 0.51897 0.51647 0.87849 0.0
O104 O 0.49424 0.56615 0.83858 0.0
O105 O 0.54725 0.59078 0.86538 0.0
O106 O 0.61596 0.54283 0.87886 0.0
O107 O 0.62715 0.57406 0.84163 0.0
O108 O 0.56646 0.56231 0.80906 0.0
O109 O 0.5364 0.49993 0.816 0.0
O110 O 0.56391 0.4672 0.85307 0.0
O111 O 0.50278 0.43574 0.83715 0.0
H112 H 0.40201 0.51337 0.77089 0.0
H113 H 0.35132 0.54471 0.76935 0.0
H114 H 0.31832 0.50407 0.84795 0.0
H115 H 0.37007 0.47431 0.84989 0.0
H116 H 0.63715 0.47973 0.86006 0.0
H117 H 0.68936 0.45076 0.85595 0.0
H118 H 0.76685 0.57552 0.84703 0.0
H119 H 0.71422 0.60463 0.8513 0.0
O120 O 0.5357 0.05162 0.26344 0.0
Cd121 Cd 0.53186 0.06855 0.21724 0.0
O122 O 0.53697 0.98666 0.25652 0.0
Cd123 Cd 0.51546 0.97969 0.2157 0.0
O124 O 0.45932 0.94126 0.20086 0.0
C125 C 0.43431 0.94049 0.21802 0.0
O126 O 0.44472 0.96364 0.24016 0.0
C127 C 0.53923 0.01817 0.27228 0.0
C128 C 0.60239 0.1164 0.19914 0.0
O129 O 0.58256 0.13347 0.21366 0.0
O130 O 0.589 0.07685 0.19312 0.0
O131 O 0.49542 0.47932 0.59021 0.0
Cd132 Cd 0.49985 0.47551 0.54187 0.0
O133 O 0.49116 0.54299 0.59918 0.0
Cd134 Cd 0.48702 0.56514 0.55962 0.0
O135 O 0.49289 0.62493 0.54147 0.0
C136 C 0.52286 0.65363 0.54928 0.0
O137 O 0.54633 0.64368 0.56515 0.0
C138 C 0.49363 0.50837 0.60686 0.0
C139 C 0.49778 0.39398 0.52453 0.0
O140 O 0.52775 0.42011 0.53516 0.0
O141 O 0.46885 0.40631 0.52162 0.0
O142 O 0.03955 0.56842 0.91477 0.0
Cd143 Cd 0.03532 0.5903 0.86968 0.0
O144 O 0.06865 0.52007 0.9127 0.0
Cd145 Cd 0.05958 0.51161 0.87022 0.0
O146 O 1.00204 0.49647 0.85534 0.0
C147 C 0.97928 0.47464 0.87166 0.0
O148 O 0.99325 0.46171 0.89225 0.0
C149 C 0.05428 0.54411 0.92615 0.0
C150 C 0.10068 0.59426 0.84248 0.0
O151 O 0.10118 0.62049 0.86186 0.0
O152 O 0.06907 0.5672 0.83526 0.0
O153 O 0.03581 0.52123 0.42226 0.0
Cd154 Cd 0.02631 0.53609 0.46894 0.0
O155 O 0.98376 0.53294 0.40937 0.0
Cd156 Cd 0.96156 0.53019 0.4494 0.0
O157 O 0.92378 0.47715 0.46909 0.0
C158 C 0.92901 0.44326 0.46039 0.0
O159 O 0.95672 0.44583 0.44389 0.0
C160 C 0.01422 0.52519 0.40377 0.0
C161 C 0.0929 0.59493 0.48843 0.0
O162 O 0.06803 0.60626 0.476 0.0
O163 O 0.08583 0.55578 0.49244 0.0
O164 O 0.48602 0.95586 0.75911 0.0
Cd165 Cd 0.4968 0.95083 0.80636 0.0
O166 O 0.52841 0.01469 0.77174 0.0
Cd167 Cd 0.56844 0.07805 0.77369 0.0
O168 O 0.58152 0.14187 0.79068 0.0
C169 C 0.55499 0.15776 0.7885 0.0
O170 O 0.5239 0.13584 0.77552 0.0
C171 C 0.50727 0.99193 0.7533 0.0
C172 C 0.49607 0.87275 0.82226 0.0
O173 O 0.46773 0.8859 0.82649 0.0
O174 O 0.52436 0.89604 0.81001 0.0
O175 O 0.57137 0.5071 0.09053 0.0
Cd176 Cd 0.61386 0.51156 0.13092 0.0
O177 O 0.51429 0.50173 0.1062 0.0
Cd178 Cd 0.45191 0.49773 0.108 0.0
O179 O 0.39461 0.50329 0.12034 0.0
C180 C 0.36144 0.47708 0.11592 0.0
O181 O 0.35801 0.44172 0.1022 0.0
C182 C 0.53649 0.50404 0.08656 0.0
C183 C 0.69169 0.51348 0.12902 0.0
O184 O 0.66563 0.48002 0.13495 0.0
O185 O 0.68117 0.54487 0.12295 0.0
H186 H 0.13746 0.43623 0.13728 0.0
H187 H 0.16882 0.55747 0.18062 0.0
H188 H 0.23622 0.56463 0.17526 0.0
H189 H 0.21631 0.40211 0.16126 0.0
H190 H 0.22257 0.37831 0.12958 0.0
H191 H 0.17659 0.38076 0.13869 0.0
H192 H 0.17303 0.4189 0.09603 0.0
H193 H 0.21908 0.41687 0.08685 0.0
H194 H 0.2101 0.46668 0.0895 0.0
H195 H 0.3008 0.56085 0.16349 0.0
H196 H 0.35751 0.54602 0.14632 0.0
H197 H 0.28606 0.42816 0.1092 0.0
C198 C 0.15858 0.46374 0.14616 0.0
C199 C 0.14766 0.49605 0.15975 0.0
C200 C 0.17631 0.53217 0.17032 0.0
C201 C 0.2148 0.53657 0.16735 0.0
C202 C 0.22473 0.50478 0.15344 0.0
C203 C 0.19752 0.469 0.143 0.0
C204 C 0.21619 0.44081 0.12762 0.0
C205 C 0.20739 0.39795 0.14004 0.0
C206 C 0.20386 0.43551 0.09826 0.0
C207 C 0.25793 0.46628 0.13112 0.0
C208 C 0.26213 0.50303 0.14616 0.0
C209 C 0.2978 0.53204 0.15177 0.0
C210 C 0.33 0.52336 0.14185 0.0
C211 C 0.32673 0.48592 0.12634 0.0
C212 C 0.2899 0.45708 0.12101 0.0
H213 H 0.7433 0.27901 0.51771 0.0
H214 H 0.75825 0.18983 0.45701 0.0
H215 H 0.81786 0.24156 0.44409 0.0
H216 H 0.77649 0.36967 0.47894 0.0
H217 H 0.80003 0.40501 0.5062 0.0
H218 H 0.75975 0.36009 0.51216 0.0
H219 H 0.79943 0.3353 0.54594 0.0
H220 H 0.83997 0.38003 0.53995 0.0
H221 H 0.84318 0.32755 0.53583 0.0
H222 H 0.87483 0.30092 0.43773 0.0
H223 H 0.9239 0.36908 0.43415 0.0
H224 H 0.87166 0.42355 0.49688 0.0
C225 C 0.75935 0.27063 0.50178 0.0
C226 C 0.74646 0.23068 0.48822 0.0
C227 C 0.76774 0.22051 0.46737 0.0
C228 C 0.80168 0.24948 0.46008 0.0
C229 C 0.81376 0.2886 0.47371 0.0
C230 C 0.79318 0.29963 0.49387 0.0
C231 C 0.8118 0.34491 0.50399 0.0
C232 C 0.78544 0.37149 0.50007 0.0
C233 C 0.82434 0.34706 0.53316 0.0
C234 C 0.8456 0.35758 0.486 0.0
C235 C 0.84641 0.32413 0.46917 0.0
C236 C 0.87459 0.32747 0.45072 0.0
C237 C 0.90242 0.36638 0.44892 0.0
C238 C 0.90157 0.40173 0.46515 0.0
C239 C 0.873 0.39709 0.48419 0.0
H240 H 0.53361 0.65143 0.81476 0.0
H241 H 0.49326 0.63463 0.89493 0.0
H242 H 0.48342 0.70462 0.89591 0.0
H243 H 0.58503 0.76345 0.82472 0.0
H244 H 0.5738 0.77519 0.79191 0.0
H245 H 0.57761 0.72414 0.79784 0.0
H246 H 0.51013 0.68893 0.7782 0.0
H247 H 0.50595 0.73985 0.77239 0.0
H248 H 0.47128 0.70378 0.79187 0.0
H249 H 0.47317 0.77331 0.88641 0.0
H250 H 0.47029 0.8402 0.86929 0.0
H251 H 0.52297 0.81472 0.79687 0.0
C252 C 0.52287 0.66281 0.8325 0.0
C253 C 0.51378 0.63818 0.85473 0.0
C254 C 0.50013 0.65352 0.87777 0.0
C255 C 0.49447 0.69299 0.87845 0.0
C256 C 0.50331 0.71659 0.85604 0.0
C257 C 0.51785 0.70241 0.83367 0.0
C258 C 0.52567 0.73412 0.81244 0.0
C259 C 0.56805 0.75018 0.80639 0.0
C260 C 0.50183 0.71555 0.78724 0.0
C261 C 0.51275 0.76815 0.82621 0.0
C262 C 0.4995 0.75721 0.8512 0.0
C263 C 0.48396 0.78251 0.86704 0.0
C264 C 0.48222 0.8202 0.85714 0.0
C265 C 0.49667 0.83241 0.83195 0.0
C266 C 0.51223 0.80617 0.81637 0.0
H267 H 0.88444 0.46811 0.17397 0.0
H268 H 0.94197 0.56602 0.12156 0.0
H269 H 0.88148 0.57474 0.10915 0.0
H270 H 0.79971 0.42154 0.13354 0.0
H271 H 0.76763 0.41314 0.16081 0.0
H272 H 0.81558 0.41355 0.16598 0.0
H273 H 0.82509 0.47193 0.20313 0.0
H274 H 0.77717 0.47176 0.19812 0.0
H275 H 0.81575 0.52 0.19622 0.0
H276 H 0.81593 0.57509 0.10235 0.0
H277 H 0.74786 0.56652 0.1016 0.0
H278 H 0.72893 0.46821 0.15752 0.0
C279 C 0.88419 0.49122 0.15983 0.0
C280 C 0.91845 0.51642 0.14886 0.0
C281 C 0.91661 0.5465 0.13055 0.0
C282 C 0.88217 0.55169 0.12322 0.0
C283 C 0.84916 0.52686 0.13438 0.0
C284 C 0.84962 0.49731 0.15238 0.0
C285 C 0.80956 0.47585 0.16174 0.0
C286 C 0.79741 0.42818 0.15511 0.0
C287 C 0.80673 0.48545 0.19157 0.0
C288 C 0.78674 0.49717 0.14555 0.0
C289 C 0.81052 0.52682 0.13019 0.0
C290 C 0.79695 0.55183 0.1142 0.0
C291 C 0.75811 0.54674 0.11392 0.0
C292 C 0.7327 0.5165 0.12924 0.0
C293 C 0.7474 0.49118 0.14521 0.0
H294 H 0.26349 0.80799 0.48186 0.0
H295 H 0.31328 0.7716 0.55054 0.0
H296 H 0.26061 0.70454 0.55009 0.0
H297 H 0.16918 0.76917 0.50113 0.0
H298 H 0.1502 0.75111 0.46829 0.0
H299 H 0.1933 0.79441 0.47265 0.0
H300 H 0.22809 0.75506 0.44196 0.0
H301 H 0.18495 0.71177 0.43723 0.0
H302 H 0.22713 0.70261 0.44914 0.0
H303 H 0.20165 0.64188 0.54233 0.0
H304 H 0.14009 0.5898 0.52879 0.0
H305 H 0.12813 0.66961 0.46666 0.0
C306 C 0.2637 0.78554 0.49649 0.0
C307 C 0.29252 0.79475 0.51614 0.0
C308 C 0.29136 0.76508 0.53536 0.0
C309 C 0.26169 0.72692 0.53519 0.0
C310 C 0.23341 0.71908 0.51573 0.0
C311 C 0.23421 0.74759 0.49673 0.0
C312 C 0.19959 0.73264 0.47873 0.0
C313 C 0.17672 0.76368 0.48032 0.0
C314 C 0.21061 0.72507 0.45007 0.0
C315 C 0.17873 0.69168 0.4909 0.0
C316 C 0.19893 0.684 0.51193 0.0
C317 C 0.18556 0.64761 0.52592 0.0
C318 C 0.15063 0.61827 0.51813 0.0
C319 C 0.12931 0.62599 0.4969 0.0
C320 C 0.1436 0.66322 0.48323 0.0
H321 H 0.49677 0.36469 0.81404 0.0
H322 H 0.59065 0.40999 0.87035 0.0
H323 H 0.60512 0.34322 0.86295 0.0
H324 H 0.46695 0.25482 0.83001 0.0
H325 H 0.45622 0.23616 0.79595 0.0
H326 H 0.45198 0.2863 0.80714 0.0
H327 H 0.4973 0.32236 0.77046 0.0
H328 H 0.5019 0.27242 0.75926 0.0
H329 H 0.54343 0.31591 0.76843 0.0
H330 H 0.61115 0.27279 0.84743 0.0
H331 H 0.60732 0.20367 0.8258 0.0
H332 H 0.50959 0.20575 0.77972 0.0
C333 C 0.51992 0.36031 0.82524 0.0
C334 C 0.54248 0.39237 0.8429 0.0
C335 C 0.57307 0.38579 0.85669 0.0
C336 C 0.58143 0.34798 0.85266 0.0
C337 C 0.55901 0.3173 0.83471 0.0
C338 C 0.52883 0.32306 0.82128 0.0
C339 C 0.51028 0.28625 0.80206 0.0
C340 C 0.46891 0.2646 0.80924 0.0
C341 C 0.51343 0.30007 0.77336 0.0
C342 C 0.53456 0.25867 0.80689 0.0
C343 C 0.5626 0.27709 0.82571 0.0
C344 C 0.58918 0.25796 0.83277 0.0
C345 C 0.5869 0.21885 0.8203 0.0
C346 C 0.55814 0.19939 0.80113 0.0
C347 C 0.53173 0.21969 0.79444 0.0
H348 H 0.47454 0.8596 0.50744 0.0
H349 H 0.58852 0.93011 0.53458 0.0
H350 H 0.6008 0.86417 0.54338 0.0
H351 H 0.45545 0.77965 0.55336 0.0
H352 H 0.43121 0.73695 0.5302 0.0
H353 H 0.43122 0.78961 0.52474 0.0
H354 H 0.45893 0.78504 0.47826 0.0
H355 H 0.45905 0.7323 0.48356 0.0
H356 H 0.50206 0.77191 0.47499 0.0
H357 H 0.60045 0.79283 0.55187 0.0
H358 H 0.58789 0.71782 0.55902 0.0
H359 H 0.47497 0.69027 0.52508 0.0
C360 C 0.50206 0.86094 0.51511 0.0
C361 C 0.53063 0.89998 0.52028 0.0
C362 C 0.56636 0.90059 0.5302 0.0
C363 C 0.57364 0.8633 0.53531 0.0
C364 C 0.54513 0.82541 0.52999 0.0
C365 C 0.51016 0.82364 0.51986 0.0
C366 C 0.48481 0.77824 0.51601 0.0
C367 C 0.44854 0.77069 0.53205 0.0
C368 C 0.47567 0.76616 0.48645 0.0
C369 C 0.51046 0.75523 0.52688 0.0
C370 C 0.54524 0.78328 0.53444 0.0
C371 C 0.57349 0.77039 0.54579 0.0
C372 C 0.56601 0.72762 0.5498 0.0
C373 C 0.53051 0.69804 0.54256 0.0
C374 C 0.50251 0.71206 0.5306 0.0
H375 H 0.79439 0.52035 0.82028 0.0
H376 H 0.74224 0.46752 0.89261 0.0
H377 H 0.79791 0.44639 0.90311 0.0
H378 H 0.84232 0.43793 0.80657 0.0
H379 H 0.88346 0.47535 0.79347 0.0
H380 H 0.8377 0.48225 0.78974 0.0
H381 H 0.86375 0.55707 0.8122 0.0
H382 H 0.90944 0.55042 0.81612 0.0
H383 H 0.88583 0.56395 0.84461 0.0
H384 H 0.86007 0.43746 0.90838 0.0
H385 H 0.92663 0.44015 0.90805 0.0
H386 H 0.94004 0.49777 0.83209 0.0
C387 C 0.79459 0.50355 0.838 0.0
C388 C 0.76399 0.49495 0.85551 0.0
C389 C 0.76514 0.47346 0.8787 0.0
C390 C 0.79662 0.46145 0.88486 0.0
C391 C 0.82646 0.47057 0.8674 0.0
C392 C 0.82573 0.49066 0.84428 0.0
C393 C 0.86256 0.49816 0.8297 0.0
C394 C 0.85612 0.47186 0.8033 0.0
C395 C 0.88151 0.5452 0.82544 0.0
C396 C 0.8848 0.48175 0.84921 0.0
C397 C 0.86299 0.46514 0.87046 0.0
C398 C 0.87735 0.44963 0.89164 0.0
C399 C 0.91524 0.45134 0.89125 0.0
C400 C 0.93848 0.46891 0.86996 0.0
C401 C 0.92285 0.4838 0.8485 0.0
H402 H 0.26095 0.75209 0.15308 0.0
H403 H 0.19799 0.76766 0.22273 0.0
H404 H 0.25248 0.82681 0.23962 0.0
H405 H 0.3509 0.77413 0.18738 0.0
H406 H 0.37819 0.80175 0.16075 0.0
H407 H 0.33394 0.76108 0.15363 0.0
H408 H 0.30986 0.81356 0.12868 0.0
H409 H 0.35398 0.85446 0.13582 0.0
H410 H 0.31011 0.86243 0.14539 0.0
H411 H 0.31226 0.884 0.24887 0.0
H412 H 0.37653 0.93412 0.25185 0.0
H413 H 0.40308 0.88177 0.17687 0.0
C414 C 0.25874 0.76814 0.17183 0.0
C415 C 0.22532 0.75534 0.18668 0.0
C416 C 0.22347 0.77672 0.21123 0.0
C417 C 0.25415 0.81049 0.22088 0.0
C418 C 0.28662 0.82239 0.20583 0.0
C419 C 0.2894 0.80177 0.18196 0.0
C420 C 0.32823 0.82034 0.17031 0.0
C421 C 0.34904 0.78736 0.16789 0.0
C422 C 0.32535 0.8388 0.14346 0.0
C423 C 0.34663 0.85473 0.19134 0.0
C424 C 0.32188 0.85533 0.21151 0.0
C425 C 0.332 0.88386 0.23326 0.0
C426 C 0.36865 0.91228 0.23472 0.0
C427 C 0.39497 0.91195 0.21463 0.0
C428 C 0.3836 0.88294 0.1925 0.0
H429 H 0.53011 0.17257 0.5433 0.0
H430 H 0.46892 0.1277 0.46918 0.0
H431 H 0.46203 0.1982 0.46395 0.0
H432 H 0.47261 0.23681 0.56496 0.0
H433 H 0.51153 0.27732 0.58093 0.0
H434 H 0.51211 0.22374 0.57834 0.0
H435 H 0.57658 0.2479 0.55502 0.0
H436 H 0.57616 0.30152 0.55746 0.0
H437 H 0.58111 0.27729 0.52563 0.0
H438 H 0.45957 0.2729 0.46809 0.0
H439 H 0.46328 0.3466 0.48059 0.0
H440 H 0.52793 0.34312 0.55131 0.0
C441 C 0.51547 0.17789 0.52596 0.0
C442 C 0.50006 0.14524 0.50655 0.0
C443 C 0.48073 0.15267 0.4842 0.0
C444 C 0.47677 0.19249 0.4811 0.0
C445 C 0.49209 0.22422 0.50067 0.0
C446 C 0.51098 0.21732 0.5227 0.0
C447 C 0.5238 0.25626 0.54124 0.0
C448 C 0.50383 0.24803 0.56794 0.0
C449 C 0.56699 0.27165 0.54504 0.0
C450 C 0.5102 0.28656 0.52587 0.0
C451 C 0.49143 0.26731 0.50273 0.0
C452 C 0.47448 0.28837 0.48605 0.0
C453 C 0.47663 0.33009 0.49329 0.0
C454 C 0.49624 0.35046 0.51669 0.0
C455 C 0.51342 0.32845 0.53303 0.0
H456 H 0.3042 0.56973 0.84753 0.0
H457 H 0.28362 0.52026 0.76595 0.0
H458 H 0.22667 0.54222 0.76401 0.0
H459 H 0.21113 0.53278 0.86655 0.0
H460 H 0.2125 0.57733 0.88847 0.0
H461 H 0.25502 0.56422 0.88234 0.0
H462 H 0.28797 0.6394 0.86712 0.0
H463 H 0.24547 0.65283 0.87327 0.0
H464 H 0.26657 0.65962 0.84111 0.0
H465 H 0.16738 0.55822 0.77277 0.0
H466 H 0.1103 0.57032 0.79148 0.0
H467 H 0.16934 0.61145 0.86686 0.0
C468 C 0.288 0.56408 0.82915 0.0
C469 C 0.29849 0.54349 0.80684 0.0
C470 C 0.27656 0.53667 0.78314 0.0
C471 C 0.24409 0.54895 0.78185 0.0
C472 C 0.23407 0.5683 0.80434 0.0
C473 C 0.25549 0.57621 0.8275 0.0
C474 C 0.23664 0.59405 0.8495 0.0
C475 C 0.22832 0.56538 0.87309 0.0
C476 C 0.2606 0.63917 0.85825 0.0
C477 C 0.20064 0.59343 0.8353 0.0
C478 C 0.19989 0.57873 0.80921 0.0
C479 C 0.16795 0.57087 0.79293 0.0
C480 C 0.13569 0.57767 0.80369 0.0
C481 C 0.13591 0.59259 0.83034 0.0
C482 C 0.169 0.60137 0.84615 0.0
H483 H 0.80469 0.29298 0.2089 0.0
H484 H 0.82807 0.24406 0.13205 0.0
H485 H 0.76359 0.1934 0.12976 0.0
H486 H 0.75084 0.19501 0.23272 0.0
H487 H 0.7175 0.21514 0.25008 0.0
H488 H 0.76482 0.24914 0.24518 0.0
H489 H 0.73833 0.30183 0.22245 0.0
H490 H 0.69088 0.26809 0.22739 0.0
H491 H 0.706 0.28371 0.1946 0.0
H492 H 0.6987 0.14424 0.1374 0.0
H493 H 0.63596 0.10293 0.15323 0.0
H494 H 0.6531 0.18601 0.2239 0.0
C495 C 0.79601 0.27213 0.19138 0.0
C496 C 0.82153 0.27234 0.17071 0.0
C497 C 0.80923 0.24405 0.1483 0.0
C498 C 0.77259 0.21532 0.14675 0.0
C499 C 0.74843 0.21536 0.16768 0.0
C500 C 0.75946 0.24325 0.18947 0.0
C501 C 0.72833 0.2358 0.20962 0.0
C502 C 0.74115 0.22301 0.23595 0.0
C503 C 0.7151 0.27467 0.21374 0.0
C504 C 0.69812 0.19934 0.19575 0.0
C505 C 0.71044 0.18783 0.17168 0.0
C506 C 0.68852 0.1533 0.15603 0.0
C507 C 0.65305 0.12993 0.16522 0.0
C508 C 0.63965 0.14157 0.18961 0.0
C509 C 0.66242 0.17691 0.20494 0.0
H510 H 0.04192 0.44521 0.06774 0.0
H511 H 0.02817 0.56165 0.10036 0.0
H512 H 0.03602 0.59013 0.05606 0.0
H513 H 0.1113 0.48994 0.0188 0.0
H514 H 0.09106 0.44859 0.9938 0.0
H515 H 0.08585 0.43762 0.02833 0.0
H516 H 0.01314 0.40925 0.02175 0.0
H517 H 0.01808 0.42004 0.98719 0.0
H518 H 0.98883 0.44213 0.00765 0.0
H519 H 0.04332 0.60542 0.00894 0.0
H520 H 0.04868 0.60668 0.96047 0.0
H521 H 0.05723 0.48027 0.95739 0.0
C522 C 0.04096 0.47681 0.06549 0.0
C523 C 0.03489 0.50151 0.08737 0.0
C524 C 0.0331 0.54243 0.08379 0.0
C525 C 0.03751 0.55886 0.05875 0.0
C526 C 0.04335 0.53379 0.03752 0.0
C527 C 0.04487 0.49359 0.04048 0.0
C528 C 0.04976 0.47276 0.01405 0.0
C529 C 0.0867 0.46159 0.01373 0.0
C530 C 0.01541 0.43374 0.00726 0.0
C531 C 0.05141 0.50791 0.9959 0.0
C532 C 0.04745 0.54266 0.00994 0.0
C533 C 0.04666 0.57856 0.99766 0.0
C534 C 0.04967 0.57893 0.97015 0.0
C535 C 0.05365 0.54373 0.95525 0.0
C536 C 0.05486 0.50789 0.96835 0.0
H537 H 0.50189 0.06609 0.42365 0.0
H538 H 0.53566 0.95813 0.44243 0.0
H539 H 0.55214 0.94926 0.3956 0.0
H540 H 0.46046 0.02972 0.36142 0.0
H541 H 0.47835 0.07937 0.3461 0.0
H542 H 0.47119 0.0784 0.38125 0.0
H543 H 0.5411 0.12356 0.38966 0.0
H544 H 0.54848 0.12471 0.35446 0.0
H545 H 0.57814 0.10593 0.37548 0.0
H546 H 0.55848 0.94802 0.34598 0.0
H547 H 0.55881 0.95753 0.29784 0.0
H548 H 0.52559 0.06965 0.31209 0.0
C549 C 0.51317 0.04093 0.41786 0.0
C550 C 0.51744 0.01266 0.43642 0.0
C551 C 0.53243 0.9802 0.42839 0.0
C552 C 0.54179 0.97491 0.40188 0.0
C553 C 0.53692 0.00307 0.38391 0.0
C554 C 0.52364 0.03593 0.39164 0.0
C555 C 0.52103 0.06178 0.36843 0.0
C556 C 0.48033 0.06231 0.36405 0.0
C557 C 0.54884 0.10666 0.37224 0.0
C558 C 0.53313 0.03714 0.34622 0.0
C559 C 0.54237 0.00351 0.35555 0.0
C560 C 0.55205 0.97472 0.3385 0.0
C561 C 0.5521 0.98035 0.31118 0.0
C562 C 0.54269 0.01461 0.30119 0.0
C563 C 0.53362 0.0436 0.31909 0.0
H564 H 0.54785 0.58117 0.75905 0.0
H565 H 0.51685 0.44868 0.7748 0.0
H566 H 0.49858 0.42968 0.72786 0.0
H567 H 0.47027 0.56915 0.71163 0.0
H568 H 0.49822 0.60878 0.69071 0.0
H569 H 0.50876 0.61237 0.72572 0.0
H570 H 0.57771 0.61547 0.71582 0.0
H571 H 0.56735 0.61192 0.68083 0.0
H572 H 0.58631 0.57432 0.69498 0.0
H573 H 0.48723 0.42469 0.67895 0.0
H574 H 0.47995 0.43424 0.63135 0.0
H575 H 0.5145 0.56961 0.64718 0.0
C576 C 0.53719 0.54824 0.75254 0.0
C577 C 0.53403 0.51638 0.77048 0.0
C578 C 0.51958 0.47359 0.76136 0.0
C579 C 0.50911 0.46245 0.73473 0.0
C580 C 0.51269 0.49445 0.71747 0.0
C581 C 0.52596 0.53647 0.72597 0.0
C582 C 0.52652 0.56449 0.70322 0.0
C583 C 0.49932 0.59021 0.70812 0.0
C584 C 0.56688 0.59324 0.69844 0.0
C585 C 0.51235 0.53164 0.68062 0.0
C586 C 0.50461 0.49146 0.68929 0.0
C587 C 0.49276 0.45598 0.67193 0.0
C588 C 0.48878 0.46171 0.64493 0.0
C589 C 0.49629 0.50259 0.63557 0.0
C590 C 0.50795 0.53791 0.65378 0.0
H591 H 0.48972 0.96244 0.59613 0.0
H592 H 0.53675 0.09778 0.59349 0.0
H593 H 0.53393 0.10493 0.6424 0.0
H594 H 0.42562 0.96563 0.6537 0.0
H595 H 0.43192 0.91906 0.66657 0.0
H596 H 0.43316 0.92555 0.63137 0.0
H597 H 0.49899 0.9149 0.63001 0.0
H598 H 0.49833 0.9091 0.66516 0.0
H599 H 0.53688 0.94863 0.65085 0.0
H600 H 0.533 0.09624 0.69148 0.0
H601 H 0.53013 0.07322 0.73707 0.0
H602 H 0.48296 0.94317 0.70776 0.0
C603 C 0.49818 0.99356 0.60593 0.0
C604 C 0.51286 0.02967 0.59139 0.0
C605 C 0.52463 0.06997 0.60453 0.0
C606 C 0.52326 0.07423 0.63222 0.0
C607 C 0.50935 0.03788 0.64621 0.0
C608 C 0.49621 0.99836 0.63348 0.0
C609 C 0.48406 0.96427 0.65317 0.0
C610 C 0.44114 0.94233 0.65108 0.0
C611 C 0.5059 0.93238 0.64958 0.0
C612 C 0.49487 0.9905 0.67893 0.0
C613 C 0.5088 0.03291 0.6745 0.0
C614 C 0.52191 0.06313 0.69519 0.0
C615 C 0.52078 0.04965 0.72107 0.0
C616 C 0.50718 0.00632 0.72607 0.0
C617 C 0.49354 0.97655 0.70464 0.0
H618 H 0.54993 0.54443 0.93035 0.0
H619 H 0.43505 0.45886 0.92364 0.0
H620 H 0.43402 0.4514 0.97158 0.0
H621 H 0.58279 0.49328 0.98156 0.0
H622 H 0.61004 0.54111 0.99949 0.0
H623 H 0.60221 0.54093 0.96432 0.0
H624 H 0.57389 0.6018 0.97163 0.0
H625 H 0.58146 0.602 0.00687 0.0
H626 H 0.53494 0.59576 0.99373 0.0
H627 H 0.44399 0.45231 0.02001 0.0
H628 H 0.46644 0.45959 0.06653 0.0
H629 H 0.57497 0.54368 0.04383 0.0
C630 C 0.52464 0.52427 0.93907 0.0
C631 C 0.4925 0.50238 0.92309 0.0
C632 C 0.45994 0.47631 0.93531 0.0
C633 C 0.45899 0.47175 0.96264 0.0
C634 C 0.49073 0.49377 0.97789 0.0
C635 C 0.523 0.5196 0.96672 0.0
C636 C 0.55294 0.53965 0.98813 0.0
C637 C 0.58913 0.52801 0.98307 0.0
C638 C 0.56131 0.58765 0.99021 0.0
C639 C 0.53284 0.51959 0.01265 0.0
C640 C 0.49669 0.49392 0.00624 0.0
C641 C 0.47223 0.47245 0.02536 0.0
C642 C 0.48511 0.47698 0.05179 0.0
C643 C 0.5223 0.50229 0.05888 0.0
C644 C 0.54639 0.52395 0.03897 0.0
H645 H 0.97853 0.50241 0.24777 0.0
H646 H 0.09915 0.52938 0.23897 0.0
H647 H 0.10699 0.52781 0.28757 0.0
H648 H 0.97826 0.56253 0.30403 0.0
H649 H 0.93908 0.52577 0.31966 0.0
H650 H 0.94239 0.52372 0.28421 0.0
H651 H 0.93926 0.44538 0.2841 0.0
H652 H 0.93546 0.44704 0.31964 0.0
H653 H 0.97233 0.43045 0.3043 0.0
H654 H 0.10208 0.53096 0.33726 0.0
H655 H 0.08468 0.53556 0.38419 0.0
H656 H 0.96686 0.50495 0.36031 0.0
C657 C 1.00638 0.50695 0.25617 0.0
C658 C 0.03827 0.51576 0.23997 0.0
C659 C 0.07444 0.52198 0.25128 0.0
C660 C 0.0791 0.5212 0.27878 0.0
C661 C 0.04712 0.51314 0.29442 0.0
C662 C 0.01135 0.50521 0.28348 0.0
C663 C 0.9818 0.49851 0.30469 0.0
C664 C 0.95908 0.52951 0.30304 0.0
C665 C 0.95567 0.45263 0.30308 0.0
C666 C 1.00683 0.5075 0.3293 0.0
C667 C 0.0443 0.51473 0.323 0.0
C668 C 0.07277 0.52474 0.34245 0.0
C669 C 0.06264 0.52738 0.36902 0.0
C670 C 0.02448 0.52078 0.37583 0.0
C671 C 0.9963 0.51043 0.35566 0.0
loop_
_geom_bond_atom_site_label_1
_geom_bond_atom_site_label_2
_geom_bond_distance
_geom_bond_site_symmetry_2
_ccdc_geom_bond_type
Nd0 C2 2.836 . S
Nd0 O20 2.500 . S
Nd0 O21 2.492 . S
Nd0 O22 2.487 . S
Nd0 O23 2.682 . S
Nd0 O24 2.410 . S
Nd0 O29 2.414 . S
Nd0 O31 2.424 1_455 S
Nd1 C11 2.836 . S
Nd1 O23 2.414 1_655 S
Nd1 O25 2.424 1_655 S
Nd1 O26 2.500 . S
Nd1 O27 2.492 . S
Nd1 O28 2.487 . S
Nd1 O29 2.682 1_655 S
Nd1 O30 2.410 . S
C2 Nd0 2.836 . S
C2 C3 1.498 . S
C2 O20 1.258 . S
C2 O21 1.239 . S
C3 C2 1.498 . S
C3 C4 1.366 . S
C3 C8 1.407 . S
C4 C3 1.366 . S
C4 C5 1.392 . S
C4 H32 0.930 . S
C5 C4 1.392 . S
C5 C6 1.398 . S
C5 H33 0.929 . S
C6 C5 1.398 . S
C6 C7 1.352 . S
C7 C6 1.352 . S
C7 C8 1.384 . S
C7 H34 0.930 . S
C8 C3 1.407 . S
C8 C7 1.384 . S
C8 H35 0.929 . S
C9 O22 1.241 . S
C9 O23 1.273 . S
C10 O24 1.251 . S
C10 O25 1.268 . S
C11 Nd1 2.836 . S
C11 C12 1.498 . S
C11 O26 1.258 . S
C11 O27 1.239 . S
C12 C11 1.498 . S
C12 C13 1.366 . S
C12 C17 1.407 . S
C13 C12 1.366 . S
C13 C14 1.392 . S
C13 H36 0.930 . S
C14 C13 1.392 . S
C14 C15 1.398 . S
C14 H37 0.929 . S
C15 C14 1.398 . S
C15 C16 1.352 . S
C16 C15 1.352 . S
C16 C17 1.384 . S
C16 H38 0.930 . S
C17 C12 1.407 . S
C17 C16 1.384 . S
C17 H39 0.929 . S
C18 O28 1.241 1_455 S
C18 O29 1.273 . S
C19 O30 1.251 . S
C19 O31 1.268 . S
O20 Nd0 2.500 . S
O20 C2 1.258 . S
O21 Nd0 2.492 . S
O21 C2 1.239 . S
O22 Nd0 2.487 . S
O22 C9 1.241 . S
O23 Nd0 2.682 . S
O23 Nd1 2.414 1_455 S
O23 C9 1.273 . S
O24 Nd0 2.410 . S
O24 C10 1.251 . S
O25 Nd1 2.424 1_455 S
O25 C10 1.268 . S
O26 Nd1 2.500 . S
O26 C11 1.258 . S
O27 Nd1 2.492 . S
O27 C11 1.239 . S
O28 Nd1 2.487 . S
O28 C18 1.241 1_655 S
O29 Nd0 2.414 . S
O29 Nd1 2.682 1_455 S
O29 C18 1.273 . S
O30 Nd1 2.410 . S
O30 C19 1.251 . S
O31 Nd0 2.424 1_655 S
O31 C19 1.268 . S
H32 C4 0.930 . S
H33 C5 0.929 . S
H34 C7 0.930 . S
H35 C8 0.929 . S
H36 C13 0.930 . S
H37 C14 0.929 . S
H38 C16 0.930 . S
H39 C17 0.929 . S
Nd40 C42 2.818 1_545 S
Nd40 O60 2.483 1_545 S
Nd40 O61 2.478 1_545 S
Nd40 O62 2.487 . S
Nd40 O63 2.684 . S
Nd40 O64 2.386 1_545 S
Nd40 O69 2.411 . S
Nd40 O71 2.449 . S
Nd41 C51 2.836 . S
Nd41 O63 2.414 . S
Nd41 O65 2.424 1_545 S
Nd41 O66 2.500 . S
Nd41 O67 2.492 . S
Nd41 O68 2.487 . S
Nd41 O69 2.682 . S
Nd41 O70 2.410 . S
C42 Nd40 2.818 1_565 S
C42 C43 1.498 . S
C42 O60 1.258 . S
C42 O61 1.239 . S
C43 C42 1.498 . S
C43 C44 1.366 . S
C43 C48 1.407 . S
C44 C43 1.366 . S
C44 C45 1.392 . S
C44 H72 0.930 . S
C45 C44 1.392 . S
C45 C46 1.398 . S
C45 H73 0.929 . S
C46 C45 1.398 . S
C46 C47 1.352 . S
C47 C46 1.352 . S
C47 C48 1.384 . S
C47 H74 0.930 . S
C48 C43 1.407 . S
C48 C47 1.384 . S
C48 H75 0.929 . S
C49 O62 1.243 . S
C49 O63 1.273 . S
C50 O64 1.251 . S
C50 O65 1.268 . S
C51 Nd41 2.836 . S
C51 C52 1.498 . S
C51 O66 1.258 . S
C51 O67 1.239 . S
C52 C51 1.498 . S
C52 C53 1.366 . S
C52 C57 1.407 . S
C53 C52 1.366 . S
C53 C54 1.392 . S
C53 H76 0.930 . S
C54 C53 1.392 . S
C54 C55 1.398 . S
C54 H77 0.929 . S
C55 C54 1.398 . S
C55 C56 1.352 . S
C56 C55 1.352 . S
C56 C57 1.384 . S
C56 H78 0.930 . S
C57 C52 1.407 . S
C57 C56 1.384 . S
C57 H79 0.929 . S
C58 O68 1.241 . S
C58 O69 1.273 . S
C59 O70 1.251 . S
C59 O71 1.268 . S
O60 Nd40 2.483 1_565 S
O60 C42 1.258 . S
O61 Nd40 2.478 1_565 S
O61 C42 1.239 . S
O62 Nd40 2.487 . S
O62 C49 1.243 . S
O63 Nd40 2.684 . S
O63 Nd41 2.414 . S
O63 C49 1.273 . S
O64 Nd40 2.386 1_565 S
O64 C50 1.251 . S
O65 Nd41 2.424 1_565 S
O65 C50 1.268 . S
O66 Nd41 2.500 . S
O66 C51 1.258 . S
O67 Nd41 2.492 . S
O67 C51 1.239 . S
O68 Nd41 2.487 . S
O68 C58 1.241 . S
O69 Nd40 2.411 . S
O69 Nd41 2.682 . S
O69 C58 1.273 . S
O70 Nd41 2.410 . S
O70 C59 1.251 . S
O71 Nd40 2.449 . S
O71 C59 1.268 . S
H72 C44 0.930 . S
H73 C45 0.929 . S
H74 C47 0.930 . S
H75 C48 0.929 . S
H76 C53 0.930 . S
H77 C54 0.929 . S
H78 C56 0.930 . S
H79 C57 0.929 . S
Nd80 C82 2.836 . S
Nd80 O100 2.500 . S
Nd80 O101 2.492 . S
Nd80 O102 2.487 . S
Nd80 O103 2.682 . S
Nd80 O104 2.410 . S
Nd80 O109 2.414 . S
Nd80 O111 2.424 . S
Nd81 C91 2.836 . S
Nd81 O103 2.414 . S
Nd81 O105 2.424 . S
Nd81 O106 2.500 . S
Nd81 O107 2.492 . S
Nd81 O108 2.487 . S
Nd81 O109 2.682 . S
Nd81 O110 2.410 . S
C82 Nd80 2.836 . S
C82 C83 1.498 . S
C82 O100 1.258 . S
C82 O101 1.239 . S
C83 C82 1.498 . S
C83 C84 1.366 . S
C83 C88 1.407 . S
C84 C83 1.366 . S
C84 C85 1.392 . S
C84 H112 0.930 . S
C85 C84 1.392 . S
C85 C86 1.398 . S
C85 H113 0.929 . S
C86 C85 1.398 . S
C86 C87 1.352 . S
C87 C86 1.352 . S
C87 C88 1.384 . S
C87 H114 0.930 . S
C88 C83 1.407 . S
C88 C87 1.384 . S
C88 H115 0.929 . S
C89 O102 1.241 . S
C89 O103 1.273 . S
C90 O104 1.251 . S
C90 O105 1.268 . S
C91 Nd81 2.836 . S
C91 C92 1.498 . S
C91 O106 1.258 . S
C91 O107 1.239 . S
C92 C91 1.498 . S
C92 C93 1.366 . S
C92 C97 1.407 . S
C93 C92 1.366 . S
C93 C94 1.392 . S
C93 H116 0.930 . S
C94 C93 1.392 . S
C94 C95 1.398 . S
C94 H117 0.929 . S
C95 C94 1.398 . S
C95 C96 1.352 . S
C96 C95 1.352 . S
C96 C97 1.384 . S
C96 H118 0.930 . S
C97 C92 1.407 . S
C97 C96 1.384 . S
C97 H119 0.929 . S
C98 O108 1.241 . S
C98 O109 1.273 . S
C99 O110 1.251 . S
C99 O111 1.268 . S
O100 Nd80 2.500 . S
O100 C82 1.258 . S
O101 Nd80 2.492 . S
O101 C82 1.239 . S
O102 Nd80 2.487 . S
O102 C89 1.241 . S
O103 Nd80 2.682 . S
O103 Nd81 2.414 . S
O103 C89 1.273 . S
O104 Nd80 2.410 . S
O104 C90 1.251 . S
O105 Nd81 2.424 . S
O105 C90 1.268 . S
O106 Nd81 2.500 . S
O106 C91 1.258 . S
O107 Nd81 2.492 . S
O107 C91 1.239 . S
O108 Nd81 2.487 . S
O108 C98 1.241 . S
O109 Nd80 2.414 . S
O109 Nd81 2.682 . S
O109 C98 1.273 . S
O110 Nd81 2.410 . S
O110 C99 1.251 . S
O111 Nd80 2.424 . S
O111 C99 1.268 . S
H112 C84 0.930 . S
H113 C85 0.929 . S
H114 C87 0.930 . S
H115 C88 0.929 . S
H116 C93 0.930 . S
H117 C94 0.929 . S
H118 C96 0.930 . S
H119 C97 0.929 . S
O120 Cd121 2.300 . S
O120 C127 1.275 . S
Cd121 O120 2.300 . S
Cd121 O129 2.381 . S
Cd121 O130 2.378 . S
O122 Cd123 2.385 . S
O122 C127 1.255 1_565 S
Cd123 O122 2.385 . S
Cd123 O124 2.317 . S
O124 Cd123 2.317 . S
O124 C125 1.232 . S
C125 O124 1.232 . S
C125 O126 1.218 . S
O126 C125 1.218 . S
C127 O120 1.275 . S
C127 O122 1.255 1_545 S
C128 O129 1.258 . S
C128 O130 1.256 . S
O129 Cd121 2.381 . S
O129 C128 1.258 . S
O130 Cd121 2.378 . S
O130 C128 1.256 . S
O131 Cd132 2.300 . S
O131 C138 1.275 . S
Cd132 O131 2.300 . S
Cd132 O140 2.381 . S
Cd132 O141 2.378 . S
O133 Cd134 2.385 . S
O133 C138 1.255 . S
Cd134 O133 2.385 . S
Cd134 O135 2.317 . S
O135 Cd134 2.317 . S
O135 C136 1.232 . S
C136 O135 1.232 . S
C136 O137 1.218 . S
O137 C136 1.218 . S
C138 O131 1.275 . S
C138 O133 1.255 . S
C139 O140 1.258 . S
C139 O141 1.256 . S
O140 Cd132 2.381 . S
O140 C139 1.258 . S
O141 Cd132 2.378 . S
O141 C139 1.256 . S
O142 Cd143 2.300 . S
O142 C149 1.275 . S
Cd143 O142 2.300 . S
Cd143 O151 2.381 . S
Cd143 O152 2.378 . S
O144 Cd145 2.385 1_455 S
O144 C149 1.255 . S
Cd145 O144 2.385 1_655 S
Cd145 O146 2.317 . S
O146 Cd145 2.317 . S
O146 C147 1.232 . S
C147 O146 1.232 . S
C147 O148 1.218 . S
O148 C147 1.218 . S
C149 O142 1.275 . S
C149 O144 1.255 . S
C150 O151 1.258 . S
C150 O152 1.256 . S
O151 Cd143 2.381 . S
O151 C150 1.258 . S
O152 Cd143 2.378 . S
O152 C150 1.256 . S
O153 Cd154 2.300 . S
O153 C160 1.275 1_455 S
Cd154 O153 2.300 . S
Cd154 O162 2.381 . S
Cd154 O163 2.378 . S
O155 Cd156 2.385 . S
O155 C160 1.255 . S
Cd156 O155 2.385 . S
Cd156 O157 2.317 . S
O157 Cd156 2.317 . S
O157 C158 1.232 . S
C158 O157 1.232 . S
C158 O159 1.218 . S
O159 C158 1.218 . S
C160 O153 1.275 1_655 S
C160 O155 1.255 . S
C161 O162 1.258 . S
C161 O163 1.256 . S
O162 Cd154 2.381 . S
O162 C161 1.258 . S
O163 Cd154 2.378 . S
O163 C161 1.256 . S
O164 Cd165 2.300 . S
O164 C171 1.275 1_565 S
Cd165 O164 2.300 . S
Cd165 O173 2.381 . S
Cd165 O174 2.378 . S
O166 Cd167 2.385 . S
O166 C171 1.255 . S
Cd167 O166 2.385 . S
Cd167 O168 2.317 . S
O168 Cd167 2.317 . S
O168 C169 1.232 . S
C169 O168 1.232 . S
C169 O170 1.218 . S
O170 C169 1.218 . S
C171 O164 1.275 1_545 S
C171 O166 1.255 . S
C172 O173 1.258 . S
C172 O174 1.256 . S
O173 Cd165 2.381 . S
O173 C172 1.258 . S
O174 Cd165 2.378 . S
O174 C172 1.256 . S
O175 Cd176 2.300 . S
O175 C182 1.275 . S
Cd176 O175 2.300 . S
Cd176 O184 2.381 . S
Cd176 O185 2.378 . S
O177 Cd178 2.385 . S
O177 C182 1.255 . S
Cd178 O177 2.385 . S
Cd178 O179 2.317 . S
O179 Cd178 2.317 . S
O179 C180 1.232 . S
C180 O179 1.232 . S
C180 O181 1.218 . S
O181 C180 1.218 . S
C182 O175 1.275 . S
C182 O177 1.255 . S
C183 O184 1.258 . S
C183 O185 1.256 . S
O184 Cd176 2.381 . S
O184 C183 1.258 . S
O185 Cd176 2.378 . S
O185 C183 1.256 . S
H186 C198 0.930 . S
H187 C200 0.930 . S
H188 C201 0.930 . S
H189 C205 0.959 . S
H190 C205 0.959 . S
H191 C205 0.961 . S
H192 C206 0.960 . S
H193 C206 0.961 . S
H194 C206 0.959 . S
H195 C209 0.929 . S
H196 C210 0.931 . S
H197 C212 0.930 . S
C198 H186 0.930 . S
C198 C199 1.399 . S
C198 C203 1.399 . S
C199 C198 1.399 . S
C199 C200 1.376 . S
C200 H187 0.930 . S
C200 C199 1.376 . S
C200 C201 1.388 . S
C201 H188 0.930 . S
C201 C200 1.388 . S
C201 C202 1.390 . S
C202 C201 1.390 . S
C202 C203 1.394 . S
C202 C208 1.465 . S
C203 C198 1.399 . S
C203 C202 1.394 . S
C203 C204 1.516 . S
C204 C203 1.516 . S
C204 C205 1.502 . S
C204 C206 1.561 . S
C204 C207 1.526 . S
C205 H189 0.959 . S
C205 H190 0.959 . S
C205 H191 0.961 . S
C205 C204 1.502 . S
C206 H192 0.960 . S
C206 H193 0.961 . S
C206 H194 0.959 . S
C206 C204 1.561 . S
C207 C204 1.526 . S
C207 C208 1.396 . S
C207 C212 1.390 . S
C208 C202 1.465 . S
C208 C207 1.396 . S
C208 C209 1.399 . S
C209 H195 0.929 . S
C209 C208 1.399 . S
C209 C210 1.385 . S
C210 H196 0.931 . S
C210 C209 1.385 . S
C210 C211 1.389 . S
C211 C210 1.389 . S
C211 C212 1.387 . S
C212 H197 0.930 . S
C212 C207 1.390 . S
C212 C211 1.387 . S
H213 C225 0.930 . S
H214 C227 0.930 . S
H215 C228 0.930 . S
H216 C232 0.959 . S
H217 C232 0.959 . S
H218 C232 0.961 . S
H219 C233 0.960 . S
H220 C233 0.961 . S
H221 C233 0.959 . S
H222 C236 0.929 . S
H223 C237 0.931 . S
H224 C239 0.930 . S
C225 H213 0.930 . S
C225 C226 1.399 . S
C225 C230 1.399 . S
C226 C225 1.399 . S
C226 C227 1.376 . S
C227 H214 0.930 . S
C227 C226 1.376 . S
C227 C228 1.388 . S
C228 H215 0.930 . S
C228 C227 1.388 . S
C228 C229 1.390 . S
C229 C228 1.390 . S
C229 C230 1.394 . S
C229 C235 1.465 . S
C230 C225 1.399 . S
C230 C229 1.394 . S
C230 C231 1.516 . S
C231 C230 1.516 . S
C231 C232 1.502 . S
C231 C233 1.561 . S
C231 C234 1.526 . S
C232 H216 0.959 . S
C232 H217 0.959 . S
C232 H218 0.961 . S
C232 C231 1.502 . S
C233 H219 0.960 . S
C233 H220 0.961 . S
C233 H221 0.959 . S
C233 C231 1.561 . S
C234 C231 1.526 . S
C234 C235 1.396 . S
C234 C239 1.390 . S
C235 C229 1.465 . S
C235 C234 1.396 . S
C235 C236 1.399 . S
C236 H222 0.929 . S
C236 C235 1.399 . S
C236 C237 1.385 . S
C237 H223 0.931 . S
C237 C236 1.385 . S
C237 C238 1.389 . S
C238 C237 1.389 . S
C238 C239 1.387 . S
C239 H224 0.930 . S
C239 C234 1.390 . S
C239 C238 1.387 . S
H240 C252 0.930 . S
H241 C254 0.930 . S
H242 C255 0.930 . S
H243 C259 0.959 . S
H244 C259 0.959 . S
H245 C259 0.961 . S
H246 C260 0.960 . S
H247 C260 0.961 . S
H248 C260 0.959 . S
H249 C263 0.929 . S
H250 C264 0.931 . S
H251 C266 0.930 . S
C252 H240 0.930 . S
C252 C253 1.399 . S
C252 C257 1.399 . S
C253 C252 1.399 . S
C253 C254 1.376 . S
C254 H241 0.930 . S
C254 C253 1.376 . S
C254 C255 1.388 . S
C255 H242 0.930 . S
C255 C254 1.388 . S
C255 C256 1.390 . S
C256 C255 1.390 . S
C256 C257 1.394 . S
C256 C262 1.465 . S
C257 C252 1.399 . S
C257 C256 1.394 . S
C257 C258 1.516 . S
C258 C257 1.516 . S
C258 C259 1.502 . S
C258 C260 1.561 . S
C258 C261 1.526 . S
C259 H243 0.959 . S
C259 H244 0.959 . S
C259 H245 0.961 . S
C259 C258 1.502 . S
C260 H246 0.960 . S
C260 H247 0.961 . S
C260 H248 0.959 . S
C260 C258 1.561 . S
C261 C258 1.526 . S
C261 C262 1.396 . S
C261 C266 1.390 . S
C262 C256 1.465 . S
C262 C261 1.396 . S
C262 C263 1.399 . S
C263 H249 0.929 . S
C263 C262 1.399 . S
C263 C264 1.385 . S
C264 H250 0.931 . S
C264 C263 1.385 . S
C264 C265 1.389 . S
C265 C264 1.389 . S
C265 C266 1.387 . S
C266 H251 0.930 . S
C266 C261 1.390 . S
C266 C265 1.387 . S
H267 C279 0.930 . S
H268 C281 0.930 . S
H269 C282 0.930 . S
H270 C286 0.959 . S
H271 C286 0.959 . S
H272 C286 0.961 . S
H273 C287 0.960 . S
H274 C287 0.961 . S
H275 C287 0.959 . S
H276 C290 0.929 . S
H277 C291 0.931 . S
H278 C293 0.930 . S
C279 H267 0.930 . S
C279 C280 1.399 . S
C279 C284 1.399 . S
C280 C279 1.399 . S
C280 C281 1.376 . S
C281 H268 0.930 . S
C281 C280 1.376 . S
C281 C282 1.388 . S
C282 H269 0.930 . S
C282 C281 1.388 . S
C282 C283 1.390 . S
C283 C282 1.390 . S
C283 C284 1.394 . S
C283 C289 1.465 . S
C284 C279 1.399 . S
C284 C283 1.394 . S
C284 C285 1.516 . S
C285 C284 1.516 . S
C285 C286 1.502 . S
C285 C287 1.561 . S
C285 C288 1.526 . S
C286 H270 0.959 . S
C286 H271 0.959 . S
C286 H272 0.961 . S
C286 C285 1.502 . S
C287 H273 0.960 . S
C287 H274 0.961 . S
C287 H275 0.959 . S
C287 C285 1.561 . S
C288 C285 1.526 . S
C288 C289 1.396 . S
C288 C293 1.390 . S
C289 C283 1.465 . S
C289 C288 1.396 . S
C289 C290 1.399 . S
C290 H276 0.929 . S
C290 C289 1.399 . S
C290 C291 1.385 . S
C291 H277 0.931 . S
C291 C290 1.385 . S
C291 C292 1.389 . S
C292 C291 1.389 . S
C292 C293 1.387 . S
C293 H278 0.930 . S
C293 C288 1.390 . S
C293 C292 1.387 . S
H294 C306 0.930 . S
H295 C308 0.930 . S
H296 C309 0.930 . S
H297 C313 0.959 . S
H298 C313 0.959 . S
H299 C313 0.961 . S
H300 C314 0.960 . S
H301 C314 0.961 . S
H302 C314 0.959 . S
H303 C317 0.929 . S
H304 C318 0.931 . S
H305 C320 0.930 . S
C306 H294 0.930 . S
C306 C307 1.399 . S
C306 C311 1.399 . S
C307 C306 1.399 . S
C307 C308 1.376 . S
C308 H295 0.930 . S
C308 C307 1.376 . S
C308 C309 1.388 . S
C309 H296 0.930 . S
C309 C308 1.388 . S
C309 C310 1.390 . S
C310 C309 1.390 . S
C310 C311 1.394 . S
C310 C316 1.465 . S
C311 C306 1.399 . S
C311 C310 1.394 . S
C311 C312 1.516 . S
C312 C311 1.516 . S
C312 C313 1.502 . S
C312 C314 1.561 . S
C312 C315 1.526 . S
C313 H297 0.959 . S
C313 H298 0.959 . S
C313 H299 0.961 . S
C313 C312 1.502 . S
C314 H300 0.960 . S
C314 H301 0.961 . S
C314 H302 0.959 . S
C314 C312 1.561 . S
C315 C312 1.526 . S
C315 C316 1.396 . S
C315 C320 1.390 . S
C316 C310 1.465 . S
C316 C315 1.396 . S
C316 C317 1.399 . S
C317 H303 0.929 . S
C317 C316 1.399 . S
C317 C318 1.385 . S
C318 H304 0.931 . S
C318 C317 1.385 . S
C318 C319 1.389 . S
C319 C318 1.389 . S
C319 C320 1.387 . S
C320 H305 0.930 . S
C320 C315 1.390 . S
C320 C319 1.387 . S
H321 C333 0.930 . S
H322 C335 0.930 . S
H323 C336 0.930 . S
H324 C340 0.959 . S
H325 C340 0.959 . S
H326 C340 0.961 . S
H327 C341 0.960 . S
H328 C341 0.961 . S
H329 C341 0.959 . S
H330 C344 0.929 . S
H331 C345 0.931 . S
H332 C347 0.930 . S
C333 H321 0.930 . S
C333 C334 1.399 . S
C333 C338 1.399 . S
C334 C333 1.399 . S
C334 C335 1.376 . S
C335 H322 0.930 . S
C335 C334 1.376 . S
C335 C336 1.388 . S
C336 H323 0.930 . S
C336 C335 1.388 . S
C336 C337 1.390 . S
C337 C336 1.390 . S
C337 C338 1.394 . S
C337 C343 1.465 . S
C338 C333 1.399 . S
C338 C337 1.394 . S
C338 C339 1.516 . S
C339 C338 1.516 . S
C339 C340 1.502 . S
C339 C341 1.561 . S
C339 C342 1.526 . S
C340 H324 0.959 . S
C340 H325 0.959 . S
C340 H326 0.961 . S
C340 C339 1.502 . S
C341 H327 0.960 . S
C341 H328 0.961 . S
C341 H329 0.959 . S
C341 C339 1.561 . S
C342 C339 1.526 . S
C342 C343 1.396 . S
C342 C347 1.390 . S
C343 C337 1.465 . S
C343 C342 1.396 . S
C343 C344 1.399 . S
C344 H330 0.929 . S
C344 C343 1.399 . S
C344 C345 1.385 . S
C345 H331 0.931 . S
C345 C344 1.385 . S
C345 C346 1.389 . S
C346 C345 1.389 . S
C346 C347 1.387 . S
C347 H332 0.930 . S
C347 C342 1.390 . S
C347 C346 1.387 . S
H348 C360 0.930 . S
H349 C362 0.930 . S
H350 C363 0.930 . S
H351 C367 0.959 . S
H352 C367 0.959 . S
H353 C367 0.961 . S
H354 C368 0.960 . S
H355 C368 0.961 . S
H356 C368 0.959 . S
H357 C371 0.929 . S
H358 C372 0.931 . S
H359 C374 0.930 . S
C360 H348 0.930 . S
C360 C361 1.399 . S
C360 C365 1.399 . S
C361 C360 1.399 . S
C361 C362 1.376 . S
C362 H349 0.930 . S
C362 C361 1.376 . S
C362 C363 1.388 . S
C363 H350 0.930 . S
C363 C362 1.388 . S
C363 C364 1.390 . S
C364 C363 1.390 . S
C364 C365 1.394 . S
C364 C370 1.465 . S
C365 C360 1.399 . S
C365 C364 1.394 . S
C365 C366 1.516 . S
C366 C365 1.516 . S
C366 C367 1.502 . S
C366 C368 1.561 . S
C366 C369 1.526 . S
C367 H351 0.959 . S
C367 H352 0.959 . S
C367 H353 0.961 . S
C367 C366 1.502 . S
C368 H354 0.960 . S
C368 H355 0.961 . S
C368 H356 0.959 . S
C368 C366 1.561 . S
C369 C366 1.526 . S
C369 C370 1.396 . S
C369 C374 1.390 . S
C370 C364 1.465 . S
C370 C369 1.396 . S
C370 C371 1.399 . S
C371 H357 0.929 . S
C371 C370 1.399 . S
C371 C372 1.385 . S
C372 H358 0.931 . S
C372 C371 1.385 . S
C372 C373 1.389 . S
C373 C372 1.389 . S
C373 C374 1.387 . S
C374 H359 0.930 . S
C374 C369 1.390 . S
C374 C373 1.387 . S
H375 C387 0.930 . S
H376 C389 0.930 . S
H377 C390 0.930 . S
H378 C394 0.959 . S
H379 C394 0.959 . S
H380 C394 0.961 . S
H381 C395 0.960 . S
H382 C395 0.961 . S
H383 C395 0.959 . S
H384 C398 0.929 . S
H385 C399 0.931 . S
H386 C401 0.930 . S
C387 H375 0.930 . S
C387 C388 1.399 . S
C387 C392 1.399 . S
C388 C387 1.399 . S
C388 C389 1.376 . S
C389 H376 0.930 . S
C389 C388 1.376 . S
C389 C390 1.388 . S
C390 H377 0.930 . S
C390 C389 1.388 . S
C390 C391 1.390 . S
C391 C390 1.390 . S
C391 C392 1.394 . S
C391 C397 1.465 . S
C392 C387 1.399 . S
C392 C391 1.394 . S
C392 C393 1.516 . S
C393 C392 1.516 . S
C393 C394 1.502 . S
C393 C395 1.561 . S
C393 C396 1.526 . S
C394 H378 0.959 . S
C394 H379 0.959 . S
C394 H380 0.961 . S
C394 C393 1.502 . S
C395 H381 0.960 . S
C395 H382 0.961 . S
C395 H383 0.959 . S
C395 C393 1.561 . S
C396 C393 1.526 . S
C396 C397 1.396 . S
C396 C401 1.390 . S
C397 C391 1.465 . S
C397 C396 1.396 . S
C397 C398 1.399 . S
C398 H384 0.929 . S
C398 C397 1.399 . S
C398 C399 1.385 . S
C399 H385 0.931 . S
C399 C398 1.385 . S
C399 C400 1.389 . S
C400 C399 1.389 . S
C400 C401 1.387 . S
C401 H386 0.930 . S
C401 C396 1.390 . S
C401 C400 1.387 . S
H402 C414 0.930 . S
H403 C416 0.930 . S
H404 C417 0.930 . S
H405 C421 0.959 . S
H406 C421 0.959 . S
H407 C421 0.961 . S
H408 C422 0.960 . S
H409 C422 0.961 . S
H410 C422 0.959 . S
H411 C425 0.929 . S
H412 C426 0.931 . S
H413 C428 0.930 . S
C414 H402 0.930 . S
C414 C415 1.399 . S
C414 C419 1.399 . S
C415 C414 1.399 . S
C415 C416 1.376 . S
C416 H403 0.930 . S
C416 C415 1.376 . S
C416 C417 1.388 . S
C417 H404 0.930 . S
C417 C416 1.388 . S
C417 C418 1.390 . S
C418 C417 1.390 . S
C418 C419 1.394 . S
C418 C424 1.465 . S
C419 C414 1.399 . S
C419 C418 1.394 . S
C419 C420 1.516 . S
C420 C419 1.516 . S
C420 C421 1.502 . S
C420 C422 1.561 . S
C420 C423 1.526 . S
C421 H405 0.959 . S
C421 H406 0.959 . S
C421 H407 0.961 . S
C421 C420 1.502 . S
C422 H408 0.960 . S
C422 H409 0.961 . S
C422 H410 0.959 . S
C422 C420 1.561 . S
C423 C420 1.526 . S
C423 C424 1.396 . S
C423 C428 1.390 . S
C424 C418 1.465 . S
C424 C423 1.396 . S
C424 C425 1.399 . S
C425 H411 0.929 . S
C425 C424 1.399 . S
C425 C426 1.385 . S
C426 H412 0.931 . S
C426 C425 1.385 . S
C426 C427 1.389 . S
C427 C426 1.389 . S
C427 C428 1.387 . S
C428 H413 0.930 . S
C428 C423 1.390 . S
C428 C427 1.387 . S
H429 C441 0.930 . S
H430 C443 0.930 . S
H431 C444 0.930 . S
H432 C448 0.959 . S
H433 C448 0.959 . S
H434 C448 0.961 . S
H435 C449 0.960 . S
H436 C449 0.961 . S
H437 C449 0.959 . S
H438 C452 0.929 . S
H439 C453 0.931 . S
H440 C455 0.930 . S
C441 H429 0.930 . S
C441 C442 1.399 . S
C441 C446 1.399 . S
C442 C441 1.399 . S
C442 C443 1.376 . S
C443 H430 0.930 . S
C443 C442 1.376 . S
C443 C444 1.388 . S
C444 H431 0.930 . S
C444 C443 1.388 . S
C444 C445 1.390 . S
C445 C444 1.390 . S
C445 C446 1.394 . S
C445 C451 1.465 . S
C446 C441 1.399 . S
C446 C445 1.394 . S
C446 C447 1.516 . S
C447 C446 1.516 . S
C447 C448 1.502 . S
C447 C449 1.561 . S
C447 C450 1.526 . S
C448 H432 0.959 . S
C448 H433 0.959 . S
C448 H434 0.961 . S
C448 C447 1.502 . S
C449 H435 0.960 . S
C449 H436 0.961 . S
C449 H437 0.959 . S
C449 C447 1.561 . S
C450 C447 1.526 . S
C450 C451 1.396 . S
C450 C455 1.390 . S
C451 C445 1.465 . S
C451 C450 1.396 . S
C451 C452 1.399 . S
C452 H438 0.929 . S
C452 C451 1.399 . S
C452 C453 1.385 . S
C453 H439 0.931 . S
C453 C452 1.385 . S
C453 C454 1.389 . S
C454 C453 1.389 . S
C454 C455 1.387 . S
C455 H440 0.930 . S
C455 C450 1.390 . S
C455 C454 1.387 . S
H456 C468 0.930 . S
H457 C470 0.930 . S
H458 C471 0.930 . S
H459 C475 0.959 . S
H460 C475 0.959 . S
H461 C475 0.961 . S
H462 C476 0.960 . S
H463 C476 0.961 . S
H464 C476 0.959 . S
H465 C479 0.929 . S
H466 C480 0.931 . S
H467 C482 0.930 . S
C468 H456 0.930 . S
C468 C469 1.399 . S
C468 C473 1.399 . S
C469 C468 1.399 . S
C469 C470 1.376 . S
C470 H457 0.930 . S
C470 C469 1.376 . S
C470 C471 1.388 . S
C471 H458 0.930 . S
C471 C470 1.388 . S
C471 C472 1.390 . S
C472 C471 1.390 . S
C472 C473 1.394 . S
C472 C478 1.465 . S
C473 C468 1.399 . S
C473 C472 1.394 . S
C473 C474 1.516 . S
C474 C473 1.516 . S
C474 C475 1.502 . S
C474 C476 1.561 . S
C474 C477 1.526 . S
C475 H459 0.959 . S
C475 H460 0.959 . S
C475 H461 0.961 . S
C475 C474 1.502 . S
C476 H462 0.960 . S
C476 H463 0.961 . S
C476 H464 0.959 . S
C476 C474 1.561 . S
C477 C474 1.526 . S
C477 C478 1.396 . S
C477 C482 1.390 . S
C478 C472 1.465 . S
C478 C477 1.396 . S
C478 C479 1.399 . S
C479 H465 0.929 . S
C479 C478 1.399 . S
C479 C480 1.385 . S
C480 H466 0.931 . S
C480 C479 1.385 . S
C480 C481 1.389 . S
C481 C480 1.389 . S
C481 C482 1.387 . S
C482 H467 0.930 . S
C482 C477 1.390 . S
C482 C481 1.387 . S
H483 C495 0.930 . S
H484 C497 0.930 . S
H485 C498 0.930 . S
H486 C502 0.959 . S
H487 C502 0.959 . S
H488 C502 0.961 . S
H489 C503 0.960 . S
H490 C503 0.961 . S
H491 C503 0.959 . S
H492 C506 0.929 . S
H493 C507 0.931 . S
H494 C509 0.930 . S
C495 H483 0.930 . S
C495 C496 1.399 . S
C495 C500 1.399 . S
C496 C495 1.399 . S
C496 C497 1.376 . S
C497 H484 0.930 . S
C497 C496 1.376 . S
C497 C498 1.388 . S
C498 H485 0.930 . S
C498 C497 1.388 . S
C498 C499 1.390 . S
C499 C498 1.390 . S
C499 C500 1.394 . S
C499 C505 1.465 . S
C500 C495 1.399 . S
C500 C499 1.394 . S
C500 C501 1.516 . S
C501 C500 1.516 . S
C501 C502 1.502 . S
C501 C503 1.561 . S
C501 C504 1.526 . S
C502 H486 0.959 . S
C502 H487 0.959 . S
C502 H488 0.961 . S
C502 C501 1.502 . S
C503 H489 0.960 . S
C503 H490 0.961 . S
C503 H491 0.959 . S
C503 C501 1.561 . S
C504 C501 1.526 . S
C504 C505 1.396 . S
C504 C509 1.390 . S
C505 C499 1.465 . S
C505 C504 1.396 . S
C505 C506 1.399 . S
C506 H492 0.929 . S
C506 C505 1.399 . S
C506 C507 1.385 . S
C507 H493 0.931 . S
C507 C506 1.385 . S
C507 C508 1.389 . S
C508 C507 1.389 . S
C508 C509 1.387 . S
C509 H494 0.930 . S
C509 C504 1.390 . S
C509 C508 1.387 . S
H510 C522 0.930 . S
H511 C524 0.930 . S
H512 C525 0.930 . S
H513 C529 0.959 . S
H514 C529 0.959 1_556 S
H515 C529 0.961 . S
H516 C530 0.960 . S
H517 C530 0.961 1_556 S
H518 C530 0.959 . S
H519 C533 0.929 1_554 S
H520 C534 0.931 . S
H521 C536 0.930 . S
C522 H510 0.930 . S
C522 C523 1.399 . S
C522 C527 1.399 . S
C523 C522 1.399 . S
C523 C524 1.376 . S
C524 H511 0.930 . S
C524 C523 1.376 . S
C524 C525 1.388 . S
C525 H512 0.930 . S
C525 C524 1.388 . S
C525 C526 1.390 . S
C526 C525 1.390 . S
C526 C527 1.394 . S
C526 C532 1.465 . S
C527 C522 1.399 . S
C527 C526 1.394 . S
C527 C528 1.516 . S
C528 C527 1.516 . S
C528 C529 1.502 . S
C528 C530 1.561 1_455 S
C528 C531 1.526 1_554 S
C529 H513 0.959 . S
C529 H514 0.959 1_554 S
C529 H515 0.961 . S
C529 C528 1.502 . S
C530 H516 0.960 . S
C530 H517 0.961 1_554 S
C530 H518 0.959 . S
C530 C528 1.561 1_655 S
C531 C528 1.526 1_556 S
C531 C532 1.396 1_556 S
C531 C536 1.390 . S
C532 C526 1.465 . S
C532 C531 1.396 1_554 S
C532 C533 1.399 1_554 S
C533 H519 0.929 1_556 S
C533 C532 1.399 1_556 S
C533 C534 1.385 . S
C534 H520 0.931 . S
C534 C533 1.385 . S
C534 C535 1.389 . S
C535 C534 1.389 . S
C535 C536 1.387 . S
C536 H521 0.930 . S
C536 C531 1.390 . S
C536 C535 1.387 . S
H537 C549 0.930 . S
H538 C551 0.930 . S
H539 C552 0.930 . S
H540 C556 0.959 . S
H541 C556 0.959 . S
H542 C556 0.961 . S
H543 C557 0.960 . S
H544 C557 0.961 . S
H545 C557 0.959 . S
H546 C560 0.929 . S
H547 C561 0.931 . S
H548 C563 0.930 . S
C549 H537 0.930 . S
C549 C550 1.399 . S
C549 C554 1.399 . S
C550 C549 1.399 . S
C550 C551 1.376 1_545 S
C551 H538 0.930 . S
C551 C550 1.376 1_565 S
C551 C552 1.388 . S
C552 H539 0.930 . S
C552 C551 1.388 . S
C552 C553 1.390 1_565 S
C553 C552 1.390 1_545 S
C553 C554 1.394 . S
C553 C559 1.465 . S
C554 C549 1.399 . S
C554 C553 1.394 . S
C554 C555 1.516 . S
C555 C554 1.516 . S
C555 C556 1.502 . S
C555 C557 1.561 . S
C555 C558 1.526 . S
C556 H540 0.959 . S
C556 H541 0.959 . S
C556 H542 0.961 . S
C556 C555 1.502 . S
C557 H543 0.960 . S
C557 H544 0.961 . S
C557 H545 0.959 . S
C557 C555 1.561 . S
C558 C555 1.526 . S
C558 C559 1.396 . S
C558 C563 1.390 . S
C559 C553 1.465 . S
C559 C558 1.396 . S
C559 C560 1.399 1_545 S
C560 H546 0.929 . S
C560 C559 1.399 1_565 S
C560 C561 1.385 . S
C561 H547 0.931 . S
C561 C560 1.385 . S
C561 C562 1.389 1_565 S
C562 C561 1.389 1_545 S
C562 C563 1.387 . S
C563 H548 0.930 . S
C563 C558 1.390 . S
C563 C562 1.387 . S
H564 C576 0.930 . S
H565 C578 0.930 . S
H566 C579 0.930 . S
H567 C583 0.959 . S
H568 C583 0.959 . S
H569 C583 0.961 . S
H570 C584 0.960 . S
H571 C584 0.961 . S
H572 C584 0.959 . S
H573 C587 0.929 . S
H574 C588 0.931 . S
H575 C590 0.930 . S
C576 H564 0.930 . S
C576 C577 1.399 . S
C576 C581 1.399 . S
C577 C576 1.399 . S
C577 C578 1.376 . S
C578 H565 0.930 . S
C578 C577 1.376 . S
C578 C579 1.388 . S
C579 H566 0.930 . S
C579 C578 1.388 . S
C579 C580 1.390 . S
C580 C579 1.390 . S
C580 C581 1.394 . S
C580 C586 1.465 . S
C581 C576 1.399 . S
C581 C580 1.394 . S
C581 C582 1.516 . S
C582 C581 1.516 . S
C582 C583 1.502 . S
C582 C584 1.561 . S
C582 C585 1.526 . S
C583 H567 0.959 . S
C583 H568 0.959 . S
C583 H569 0.961 . S
C583 C582 1.502 . S
C584 H570 0.960 . S
C584 H571 0.961 . S
C584 H572 0.959 . S
C584 C582 1.561 . S
C585 C582 1.526 . S
C585 C586 1.396 . S
C585 C590 1.390 . S
C586 C580 1.465 . S
C586 C585 1.396 . S
C586 C587 1.399 . S
C587 H573 0.929 . S
C587 C586 1.399 . S
C587 C588 1.385 . S
C588 H574 0.931 . S
C588 C587 1.385 . S
C588 C589 1.389 . S
C589 C588 1.389 . S
C589 C590 1.387 . S
C590 H575 0.930 . S
C590 C585 1.390 . S
C590 C589 1.387 . S
H591 C603 0.930 . S
H592 C605 0.930 . S
H593 C606 0.930 . S
H594 C610 0.959 . S
H595 C610 0.959 . S
H596 C610 0.961 . S
H597 C611 0.960 . S
H598 C611 0.961 . S
H599 C611 0.959 . S
H600 C614 0.929 . S
H601 C615 0.931 . S
H602 C617 0.930 . S
C603 H591 0.930 . S
C603 C604 1.399 1_565 S
C603 C608 1.399 . S
C604 C603 1.399 1_545 S
C604 C605 1.376 . S
C605 H592 0.930 . S
C605 C604 1.376 . S
C605 C606 1.388 . S
C606 H593 0.930 . S
C606 C605 1.388 . S
C606 C607 1.390 . S
C607 C606 1.390 . S
C607 C608 1.394 1_545 S
C607 C613 1.465 . S
C608 C603 1.399 . S
C608 C607 1.394 1_565 S
C608 C609 1.516 . S
C609 C608 1.516 . S
C609 C610 1.502 . S
C609 C611 1.561 . S
C609 C612 1.526 . S
C610 H594 0.959 . S
C610 H595 0.959 . S
C610 H596 0.961 . S
C610 C609 1.502 . S
C611 H597 0.960 . S
C611 H598 0.961 . S
C611 H599 0.959 . S
C611 C609 1.561 . S
C612 C609 1.526 . S
C612 C613 1.396 1_565 S
C612 C617 1.390 . S
C613 C607 1.465 . S
C613 C612 1.396 1_545 S
C613 C614 1.399 . S
C614 H600 0.929 . S
C614 C613 1.399 . S
C614 C615 1.385 . S
C615 H601 0.931 . S
C615 C614 1.385 . S
C615 C616 1.389 . S
C616 C615 1.389 . S
C616 C617 1.387 1_545 S
C617 H602 0.930 . S
C617 C612 1.390 . S
C617 C616 1.387 1_565 S
H618 C630 0.930 . S
H619 C632 0.930 . S
H620 C633 0.930 . S
H621 C637 0.959 . S
H622 C637 0.959 1_554 S
H623 C637 0.961 . S
H624 C638 0.960 . S
H625 C638 0.961 1_554 S
H626 C638 0.959 . S
H627 C641 0.940 . S
H628 C642 0.931 . S
H629 C644 0.930 . S
C630 H618 0.930 . S
C630 C631 1.399 . S
C630 C635 1.399 . S
C631 C630 1.399 . S
C631 C632 1.376 . S
C632 H619 0.930 . S
C632 C631 1.376 . S
C632 C633 1.388 . S
C633 H620 0.930 . S
C633 C632 1.388 . S
C633 C634 1.390 . S
C634 C633 1.390 . S
C634 C635 1.394 . S
C634 C640 1.465 . S
C635 C630 1.399 . S
C635 C634 1.394 . S
C635 C636 1.516 . S
C636 C635 1.516 . S
C636 C637 1.502 . S
C636 C638 1.561 . S
C636 C639 1.526 1_556 S
C637 H621 0.959 . S
C637 H622 0.959 1_556 S
C637 H623 0.961 . S
C637 C636 1.502 . S
C638 H624 0.960 . S
C638 H625 0.961 1_556 S
C638 H626 0.959 . S
C638 C636 1.561 . S
C639 C636 1.526 1_554 S
C639 C640 1.396 1_554 S
C639 C644 1.390 . S
C640 C634 1.465 . S
C640 C639 1.396 1_556 S
C640 C641 1.399 1_556 S
C641 H627 0.940 . S
C641 C640 1.399 1_554 S
C641 C642 1.385 . S
C642 H628 0.931 . S
C642 C641 1.385 . S
C642 C643 1.389 . S
C643 C642 1.389 . S
C643 C644 1.387 . S
C644 H629 0.930 . S
C644 C639 1.390 . S
C644 C643 1.387 . S
H645 C657 0.930 . S
H646 C659 0.930 . S
H647 C660 0.930 . S
H648 C664 0.959 . S
H649 C664 0.959 . S
H650 C664 0.961 . S
H651 C665 0.960 . S
H652 C665 0.961 . S
H653 C665 0.959 . S
H654 C668 0.929 . S
H655 C669 0.931 . S
H656 C671 0.930 . S
C657 H645 0.930 . S
C657 C658 1.399 1_655 S
C657 C662 1.399 . S
C658 C657 1.399 1_455 S
C658 C659 1.376 . S
C659 H646 0.930 . S
C659 C658 1.376 . S
C659 C660 1.388 . S
C660 H647 0.930 . S
C660 C659 1.388 . S
C660 C661 1.390 . S
C661 C660 1.390 . S
C661 C662 1.394 1_455 S
C661 C667 1.465 . S
C662 C657 1.399 . S
C662 C661 1.394 1_655 S
C662 C663 1.516 . S
C663 C662 1.516 . S
C663 C664 1.502 . S
C663 C665 1.561 . S
C663 C666 1.526 . S
C664 H648 0.959 . S
C664 H649 0.959 . S
C664 H650 0.961 . S
C664 C663 1.502 . S
C665 H651 0.960 . S
C665 H652 0.961 . S
C665 H653 0.959 . S
C665 C663 1.561 . S
C666 C663 1.526 . S
C666 C667 1.396 1_655 S
C666 C671 1.390 . S
C667 C661 1.465 . S
C667 C666 1.396 1_455 S
C667 C668 1.399 . S
C668 H654 0.929 . S
C668 C667 1.399 . S
C668 C669 1.385 . S
C669 H655 0.931 . S
C669 C668 1.385 . S
C669 C670 1.389 1_455 S
C670 C669 1.389 1_655 S
C670 C671 1.387 . S
C671 H656 0.930 . S
C671 C666 1.390 . S
C671 C670 1.387 . S
C199 C10 3.270 . S
C211 C180 2.892 . S
C226 C55 1.321 . S
C238 C158 1.186 . S
C253 C90 1.782 . S
C265 C172 1.775 . S
C280 C19 2.864 . S
C292 C183 2.790 . S
C319 C161 1.127 . S
C307 C46 1.126 . S
C346 C169 1.796 . S
C334 C99 2.139 . S
C361 C50 2.032 . S
C373 C136 1.778 . S
C388 C95 0.631 . S
C400 C147 0.698 . S
C415 C6 1.378 . S
C427 C125 1.209 . S
C454 C139 1.838 . S
C442 C59 1.876 . S
C481 C150 0.315 . S
C469 C86 0.479 . S
C496 C15 1.096 . S
C508 C128 1.091 . S
C535 C149 1.242 . S
C523 C18 1.251 . S
C550 C49 1.459 . S
C562 C127 1.436 . S
C577 C98 1.416 . S
C589 C138 1.350 . S
C616 C171 1.381 . S
C604 C58 1.358 . S
C643 C182 1.683 . S
C631 C89 1.614 . S
C658 C9 1.479 . S
C670 C160 1.440 . S
