# Generated by pormake.
# Topology anh, (6,3)-cn, num edge types: 1
# Building blocks:
#     Node 0, Type 0, BuildingBlock: PAMTOO_clean_sbu_0, # of connection points: 6
#     Node 1, Type 0, BuildingBlock: PAMTOO_clean_sbu_0, # of connection points: 6
#     Node 2, Type 0, BuildingBlock: PAMTOO_clean_sbu_0, # of connection points: 6
#     Node 3, Type 1, BuildingBlock: WUSLED_clean_sbu_0, # of connection points: 3
#     Node 4, Type 1, BuildingBlock: WUSLED_clean_sbu_0, # of connection points: 3
#     Node 5, Type 1, BuildingBlock: WUSLED_clean_sbu_0, # of connection points: 3
#     Node 6, Type 1, BuildingBlock: WUSLED_clean_sbu_0, # of connection points: 3
#     Node 7, Type 1, BuildingBlock: WUSLED_clean_sbu_0, # of connection points: 3
#     Node 8, Type 1, BuildingBlock: WUSLED_clean_sbu_0, # of connection points: 3
#     Edge 9, Type (0, 1), BuildingBlock: AJUNOK_clean_linker_0, # of connection points: 2
#     Edge 10, Type (0, 1), BuildingBlock: AJUNOK_clean_linker_0, # of connection points: 2
#     Edge 11, Type (0, 1), BuildingBlock: AJUNOK_clean_linker_0, # of connection points: 2
#     Edge 12, Type (0, 1), BuildingBlock: AJUNOK_clean_linker_0, # of connection points: 2
#     Edge 13, Type (0, 1), BuildingBlock: AJUNOK_clean_linker_0, # of connection points: 2
#     Edge 14, Type (0, 1), BuildingBlock: AJUNOK_clean_linker_0, # of connection points: 2
#     Edge 15, Type (0, 1), BuildingBlock: AJUNOK_clean_linker_0, # of connection points: 2
#     Edge 16, Type (0, 1), BuildingBlock: AJUNOK_clean_linker_0, # of connection points: 2
#     Edge 17, Type (0, 1), BuildingBlock: AJUNOK_clean_linker_0, # of connection points: 2
#     Edge 18, Type (0, 1), BuildingBlock: AJUNOK_clean_linker_0, # of connection points: 2
#     Edge 19, Type (0, 1), BuildingBlock: AJUNOK_clean_linker_0, # of connection points: 2
#     Edge 20, Type (0, 1), BuildingBlock: AJUNOK_clean_linker_0, # of connection points: 2
#     Edge 21, Type (0, 1), BuildingBlock: AJUNOK_clean_linker_0, # of connection points: 2
#     Edge 22, Type (0, 1), BuildingBlock: AJUNOK_clean_linker_0, # of connection points: 2
#     Edge 23, Type (0, 1), BuildingBlock: AJUNOK_clean_linker_0, # of connection points: 2
#     Edge 24, Type (0, 1), BuildingBlock: AJUNOK_clean_linker_0, # of connection points: 2
#     Edge 25, Type (0, 1), BuildingBlock: AJUNOK_clean_linker_0, # of connection points: 2
#     Edge 26, Type (0, 1), BuildingBlock: AJUNOK_clean_linker_0, # of connection points: 2
# Relax obj value: 0.192
# Max RMSD: 0.198
# Mean RMSD: 0.156
data_MOF--net-anh--node1-PAMTOO_clean_sbu_0--node2-WUSLED_clean_sbu_0--edge1-AJUNOK_clean_linker_0
_symmetry_space_group_name_H-M    P1
_symmetry_Int_Tables_number       1
_symmetry_cell_setting            triclinic
loop_
_symmetry_equiv_pos_as_xyz
'x, y, z'
_cell_length_a     30.551121
_cell_length_b     30.040925
_cell_length_c     55.702881
_cell_angle_alpha  90.871317
_cell_angle_beta   93.807348
_cell_angle_gamma 103.58447
loop_
_atom_site_label
_atom_site_type_symbol
_atom_site_fract_x
_atom_site_fract_y
_atom_site_fract_z
_atom_type_partial_charge
Dy0 Dy 0.09687 0.60591 0.16704 0.0
Dy1 Dy 1.06429 0.49377 0.15721 0.0
C2 C 1.088 0.56221 0.11469 0.0
O3 O 1.02073 0.59059 0.1673 0.0
O4 O 1.00203 0.51948 0.14812 0.0
O5 O 0.12566 0.67302 0.1542 0.0
O6 O 0.10592 0.66581 0.19082 0.0
O7 O 1.04961 0.51133 0.19442 0.0
O8 O 0.10956 0.57174 0.20122 0.0
O9 O 0.1405 0.50713 0.16263 0.0
O10 O 0.16054 0.58548 0.15906 0.0
O11 O 1.06438 0.42631 0.16993 0.0
O12 O 1.02514 0.43376 0.13696 0.0
C13 C 0.99061 0.55632 0.15619 0.0
O14 O 1.07511 0.59216 0.12821 0.0
O15 O 1.09277 0.52306 0.12336 0.0
C16 C 0.17174 0.72372 0.184 0.0
C17 C 0.25525 0.78272 0.20084 0.0
C18 C 0.25076 0.7591 0.1785 0.0
C19 C 0.20959 0.72987 0.1702 0.0
C20 C 0.17605 0.74782 0.20617 0.0
C21 C 0.21732 0.77696 0.21451 0.0
C22 C 0.12769 0.69316 0.17529 0.0
C23 C 1.07901 0.53851 0.20945 0.0
C24 C 0.17135 0.54561 0.16027 0.0
C25 C 0.99352 0.37372 0.16222 0.0
C26 C 0.91642 0.31257 0.17821 0.0
C27 C 0.93925 0.35101 0.19255 0.0
C28 C 0.97723 0.38143 0.18457 0.0
C29 C 0.97098 0.33523 0.14796 0.0
C30 C 0.93279 0.30494 0.15586 0.0
C31 C 1.03336 0.40586 0.1535 0.0
H32 H 0.27898 0.76364 0.16726 0.0
H33 H 0.20751 0.71225 0.1529 0.0
H34 H 0.14744 0.74407 0.2171 0.0
H35 H 0.21971 0.79469 0.2318 0.0
H36 H 0.92733 0.35788 0.20979 0.0
H37 H 0.9938 0.41106 0.19584 0.0
H38 H 0.98291 0.3286 0.13068 0.0
H39 H 0.9163 0.27526 0.14459 0.0
Dy40 Dy 0.5711 0.04524 0.54477 0.0
Dy41 Dy 0.6834 0.0808 0.54822 0.0
C42 C 0.62945 0.0583 0.59519 0.0
O43 O 0.58369 0.12149 0.54485 0.0
O44 O 0.6591 0.14272 0.55807 0.0
O45 O 0.50976 1.00687 0.55896 0.0
O46 O 0.50667 0.04213 0.52546 0.0
O47 O 0.65658 0.09811 0.51227 0.0
O48 O 0.59562 0.03758 0.50829 0.0
O49 O 0.66968 1.005 0.54051 0.0
O50 O 0.59563 0.98205 0.55001 0.0
O51 O 0.74628 0.08313 0.53223 0.0
O52 O 0.7464 0.11804 0.5666 0.0
C53 C 0.61966 0.15236 0.55334 0.0
O54 O 0.59299 0.06516 0.58337 0.0
O55 O 0.66437 0.05277 0.58393 0.0
C56 C 0.4539 0.9712 0.52906 0.0
C57 C 0.39527 0.89005 0.50921 0.0
C58 C 0.38379 0.91273 0.52927 0.0
C59 C 0.41286 0.95291 0.5391 0.0
C60 C 0.46563 0.94859 0.50906 0.0
C61 C 0.4364 0.90853 0.49912 0.0
C62 C 0.4845 1.01297 0.54009 0.0
C63 C 0.62589 0.06922 0.49858 0.0
C64 C 0.6337 0.97284 0.54457 0.0
C65 C 0.80232 0.15217 0.54062 0.0
C66 C 0.86621 0.22875 0.52527 0.0
C67 C 0.8279 0.20783 0.51017 0.0
C68 C 0.79623 0.16995 0.51776 0.0
C69 C 0.84008 0.17344 0.55586 0.0
C70 C 0.87158 0.21146 0.54834 0.0
C71 C 0.77015 0.11141 0.54884 0.0
H72 H 0.35197 0.89974 0.53716 0.0
H73 H 0.40328 0.96977 0.55456 0.0
H74 H 0.49742 0.9618 0.50118 0.0
H75 H 0.44613 0.89169 0.4837 0.0
H76 H 0.82276 0.22035 0.49232 0.0
H77 H 0.76719 0.15444 0.50569 0.0
H78 H 0.84525 0.16057 0.57364 0.0
H79 H 0.9 0.22752 0.56067 0.0
Dy80 Dy 0.64083 0.50063 0.84547 0.0
Dy81 Dy 0.53243 0.47988 0.83714 0.0
C82 C 0.59337 0.49346 0.7925 0.0
O83 O 0.62402 0.56715 0.85456 0.0
O84 O 0.55923 0.55355 0.83008 0.0
O85 O 0.70791 0.53875 0.83883 0.0
O86 O 0.69843 0.48183 0.86301 0.0
O87 O 0.54873 0.50484 0.87578 0.0
O88 O 0.61495 0.48299 0.88144 0.0
O89 O 0.54736 0.41219 0.84502 0.0
O90 O 0.61687 0.42931 0.83001 0.0
O91 O 0.46577 0.46868 0.85034 0.0
O92 O 0.47382 0.4712 0.81211 0.0
C93 C 0.59251 0.58215 0.84227 0.0
O94 O 0.62714 0.51569 0.80706 0.0
O95 O 0.55696 0.46822 0.80103 0.0
C96 C 0.76054 0.49161 0.83918 0.0
C97 C 0.832 0.4617 0.81999 0.0
C98 C 0.80873 0.48901 0.80638 0.0
C99 C 0.77315 0.50385 0.81589 0.0
C100 C 0.78186 0.46197 0.85203 0.0
C101 C 0.81705 0.44705 0.84254 0.0
C102 C 0.72692 0.51065 0.85096 0.0
C103 C 0.58101 0.4957 0.89028 0.0
C104 C 0.5815 0.39909 0.83646 0.0
C105 C 0.42475 0.51263 0.82677 0.0
C106 C 0.39113 0.59176 0.82001 0.0
C107 C 0.41115 0.58375 0.84248 0.0
C108 C 0.42809 0.54484 0.84579 0.0
C109 C 0.40434 0.52032 0.80438 0.0
C110 C 0.38781 0.55955 0.801 0.0
C111 C 0.44746 0.47446 0.82912 0.0
H112 H 0.81986 0.50116 0.78908 0.0
H113 H 0.75693 0.52636 0.80544 0.0
H114 H 0.77276 0.45203 0.87 0.0
H115 H 0.83498 0.42721 0.85389 0.0
H116 H 0.41285 0.60702 0.85774 0.0
H117 H 0.44413 0.54031 0.86322 0.0
H118 H 0.40197 0.49638 0.78933 0.0
H119 H 0.37232 0.56466 0.78352 0.0
C120 C 0.68452 0.12015 0.22868 0.0
C121 C 0.70841 0.1571 0.24369 0.0
C122 C 0.75947 0.1838 0.21221 0.0
C123 C 0.74556 0.18863 0.23552 0.0
C124 C 0.73587 0.14618 0.19748 0.0
C125 C 0.69872 0.11483 0.20561 0.0
U126 U 0.61143 0.0602 0.27777 0.0
O127 O 0.53762 0.04029 0.27892 0.0
O128 O 0.57659 0.98743 0.28043 0.0
C129 C 0.53634 0.99623 0.2793 0.0
C130 C 0.64481 0.08688 0.23662 0.0
C131 C 0.50032 0.965 0.26386 0.0
C132 C 0.43664 0.95143 0.23371 0.0
C133 C 0.47424 0.98123 0.24576 0.0
C134 C 0.45135 0.88861 0.2571 0.0
C135 C 0.42451 0.90487 0.23942 0.0
C136 C 0.48878 0.91834 0.26915 0.0
C137 C 0.64577 0.09177 0.34443 0.0
C138 C 0.62433 0.04413 0.37872 0.0
C139 C 0.65049 0.12637 0.38456 0.0
C140 C 0.65595 0.13063 0.3599 0.0
C141 C 0.63479 0.08306 0.39431 0.0
C142 C 0.6295 0.04845 0.35399 0.0
C143 C 0.6531 0.09724 0.31858 0.0
O144 O 0.65336 0.05164 0.24811 0.0
O145 O 0.61431 0.10429 0.24644 0.0
O146 O 0.62389 0.11498 0.30595 0.0
O147 O 0.66339 0.06266 0.30734 0.0
H148 H 0.69818 0.16168 0.26164 0.0
H149 H 0.76305 0.21716 0.24732 0.0
H150 H 0.74637 0.14071 0.1797 0.0
H151 H 0.68102 0.08632 0.19384 0.0
H152 H 0.41661 0.96493 0.22015 0.0
H153 H 0.48211 0.01709 0.24134 0.0
H154 H 0.44239 0.85322 0.26232 0.0
H155 H 0.5079 0.90511 0.28326 0.0
H156 H 0.61309 1.0102 0.38567 0.0
H157 H 0.6586 0.15704 0.39605 0.0
H158 H 0.66842 0.16436 0.35291 0.0
H159 H 0.62131 0.01789 0.34243 0.0
C160 C 0.63802 0.68642 0.54458 0.0
C161 C 0.65407 0.71477 0.56513 0.0
C162 C 0.63999 0.78064 0.54367 0.0
C163 C 0.65531 0.76168 0.56461 0.0
C164 C 0.62462 0.75224 0.5231 0.0
C165 C 0.62368 0.70557 0.52357 0.0
U166 U 0.62265 0.56963 0.57487 0.0
O167 O 0.58335 0.50328 0.55933 0.0
O168 O 0.6567 0.5145 0.56755 0.0
C169 C 0.61895 0.48577 0.5594 0.0
C170 C 0.63515 0.63683 0.54451 0.0
C171 C 0.61259 0.43689 0.56503 0.0
C172 C 0.57787 0.35811 0.55208 0.0
C173 C 0.57955 0.40485 0.55105 0.0
C174 C 0.64103 0.37414 0.5821 0.0
C175 C 0.60913 0.34223 0.56725 0.0
C176 C 0.6428 0.42112 0.581 0.0
C177 C 0.60569 0.56822 0.64385 0.0
C178 C 0.60288 0.50615 0.67172 0.0
C179 C 0.59665 0.58077 0.68617 0.0
C180 C 0.60007 0.59689 0.66287 0.0
C181 C 0.59855 0.53548 0.69091 0.0
C182 C 0.60662 0.52252 0.64826 0.0
C183 C 0.61267 0.58833 0.62012 0.0
O184 O 0.66845 0.62353 0.55619 0.0
O185 O 0.59524 0.61082 0.54803 0.0
O186 O 0.57869 0.57741 0.60368 0.0
O187 O 0.65212 0.59007 0.61159 0.0
H188 H 0.66517 0.70059 0.58157 0.0
H189 H 0.66714 0.78292 0.58071 0.0
H190 H 0.61313 0.76615 0.50666 0.0
H191 H 0.61133 0.68426 0.50753 0.0
H192 H 0.55363 0.33468 0.53997 0.0
H193 H 0.55644 0.41618 0.53826 0.0
H194 H 0.66548 0.36286 0.59401 0.0
H195 H 0.66891 0.44505 0.59187 0.0
H196 H 0.60478 0.47118 0.67499 0.0
H197 H 0.59307 0.60395 0.70061 0.0
H198 H 0.59927 0.63224 0.65979 0.0
H199 H 0.61108 0.49996 0.63373 0.0
C200 C 1.06342 0.52154 0.88884 0.0
C201 C 1.02576 0.48645 0.89265 0.0
C202 C 1.00665 0.47811 0.84941 0.0
C203 C 0.99754 0.46482 0.87308 0.0
C204 C 1.04649 0.51085 0.84564 0.0
C205 C 1.07465 0.53254 0.86525 0.0
U206 U 0.14913 0.62706 0.91034 0.0
O207 O 0.14022 0.67751 0.88289 0.0
O208 O 0.18342 0.62982 0.8772 0.0
C209 C 0.16875 0.66491 0.86911 0.0
C210 C 1.08886 0.54918 0.90926 0.0
C211 C 0.20423 0.70042 0.85958 0.0
C212 C 0.24059 0.71603 0.82234 0.0
C213 C 0.20134 0.707 0.83474 0.0
C214 C 0.28558 0.72095 0.8601 0.0
C215 C 0.28239 0.71677 0.83478 0.0
C216 C 0.24644 0.71305 0.8725 0.0
C217 C 0.18219 0.64397 0.97581 0.0
C218 C 0.18442 0.65856 0.01884 0.0
C219 C 0.14129 0.58587 1.00122 0.0
C220 C 0.15456 0.60013 0.97854 0.0
C221 C 0.15513 0.61541 0.02147 0.0
C222 C 0.19771 0.67283 0.9961 0.0
C223 C 0.18995 0.66108 0.95158 0.0
O224 O 1.07876 0.58892 0.91278 0.0
O225 O 0.13246 0.55194 0.91032 0.0
O226 O 0.15565 0.67483 0.9413 0.0
O227 O 0.20678 0.63513 0.93726 0.0
H228 H 1.01676 0.47763 0.91076 0.0
H229 H 0.96651 0.44062 0.87668 0.0
H230 H 1.05409 0.52198 0.82766 0.0
H231 H 0.10385 0.55961 0.86205 0.0
H232 H 0.2373 0.71435 0.80284 0.0
H233 H 0.16891 0.69818 0.82449 0.0
H234 H 0.31713 0.72221 0.87046 0.0
H235 H 0.24922 0.70882 0.89179 0.0
H236 H 0.19616 0.68163 0.03428 0.0
H237 H 0.11864 0.55254 1.00277 0.0
H238 H 0.14184 0.57759 0.96298 0.0
H239 H 0.21882 0.70686 0.99425 0.0
C240 C 1.05842 0.46637 0.47848 0.0
C241 C 1.02289 0.44235 0.46253 0.0
C242 C 0.9969 0.38788 0.49349 0.0
C243 C 0.99224 0.40359 0.47002 0.0
C244 C 1.03261 0.41201 0.50938 0.0
C245 C 1.06308 0.45091 0.50192 0.0
U246 U 0.11331 0.54106 0.42901 0.0
O247 O 0.13021 0.61606 0.42564 0.0
O248 O 0.18365 0.57829 0.4256 0.0
C249 C 0.17378 0.61863 0.42569 0.0
C250 C 1.09071 0.50744 0.47089 0.0
C251 C 0.20393 0.65589 0.44083 0.0
C252 C 0.23028 0.73771 0.45002 0.0
C253 C 0.19961 0.70104 0.43792 0.0
C254 C 0.2701 0.68486 0.46854 0.0
C255 C 0.26612 0.73013 0.4653 0.0
C256 C 0.23931 0.64806 0.45645 0.0
C257 C 1.07635 0.50298 0.36341 0.0
C258 C 1.08955 0.55249 0.32919 0.0
C259 C 1.06581 0.47015 0.32271 0.0
C260 C 1.06512 0.46468 0.34758 0.0
C261 C 1.07737 0.51416 0.31322 0.0
C262 C 1.08909 0.54696 0.35409 0.0
C263 C 1.07416 0.49632 0.38947 0.0
O264 O 0.12521 0.49966 0.46003 0.0
O265 O 1.07261 0.53832 0.46029 0.0
O266 O 1.05677 0.52539 0.40132 0.0
O267 O 0.11047 0.48812 0.40075 0.0
H268 H 1.01884 0.45362 0.4443 0.0
H269 H 0.96515 0.38557 0.45739 0.0
H270 H 1.03661 0.40111 0.52767 0.0
H271 H 1.09023 0.46904 0.51449 0.0
H272 H 0.22619 0.77216 0.44724 0.0
H273 H 0.17298 0.7081 0.42581 0.0
H274 H 0.29782 0.67796 0.47986 0.0
H275 H 0.24389 0.61372 0.45891 0.0
H276 H 0.09868 0.5868 0.32241 0.0
H277 H 1.05747 0.43991 0.31092 0.0
H278 H 1.05565 0.43045 0.35445 0.0
H279 H 0.09826 0.57699 0.36604 0.0
C280 C 0.60096 0.87144 0.8421 0.0
C281 C 0.56332 0.83897 0.84908 0.0
C282 C 0.60039 0.77752 0.84144 0.0
C283 C 0.56302 0.79247 0.84871 0.0
C284 C 0.63838 0.80985 0.83473 0.0
C285 C 0.63864 0.85653 0.83495 0.0
U286 U 0.60704 0.99077 0.81554 0.0
O287 O 0.56616 0.03889 0.82474 0.0
O288 O 0.63988 0.0578 0.83295 0.0
C289 C 0.60132 0.06969 0.83417 0.0
C290 C 0.60063 0.92047 0.84364 0.0
C291 C 0.6012 0.11811 0.83127 0.0
C292 C 0.60667 0.19172 0.85121 0.0
C293 C 0.61138 0.14677 0.85195 0.0
C294 C 0.58329 0.1809 0.80865 0.0
C295 C 0.59181 0.20894 0.82972 0.0
C296 C 0.58761 0.13542 0.80945 0.0
C297 C 0.62481 1.00085 0.74633 0.0
C298 C 0.60119 0.04523 0.71382 0.0
C299 C 0.65762 1.00226 0.70771 0.0
C300 C 0.65484 0.98757 0.73132 0.0
C301 C 0.63062 0.03096 0.69857 0.0
C302 C 0.59832 0.03033 0.73756 0.0
C303 C 0.61887 0.97902 0.76981 0.0
O304 O 0.63885 0.95027 0.84081 0.0
O305 O 0.56541 0.93173 0.83282 0.0
O306 O 0.57884 0.97251 0.7784 0.0
O307 O 0.65252 0.99083 0.78641 0.0
H308 H 0.53417 0.84964 0.85501 0.0
H309 H 0.53381 0.76808 0.85439 0.0
H310 H 0.66757 0.79894 0.82908 0.0
H311 H 0.66831 0.88078 0.82962 0.0
H312 H 0.61416 0.21297 0.86755 0.0
H313 H 0.62181 0.13392 0.86894 0.0
H314 H 0.57206 0.19374 0.79185 0.0
H315 H 0.57946 0.11363 0.79332 0.0
H316 H 0.57994 0.06731 0.70726 0.0
H317 H 0.67969 0.98958 0.69631 0.0
H318 H 0.67506 0.96429 0.7376 0.0
H319 H 0.57468 0.04085 0.74878 0.0
C320 C 0.70303 0.55569 0.13536 0.0
C321 C 0.7217 0.5274 0.12072 0.0
C322 C 0.79784 0.55967 0.13994 0.0
C323 C 0.7685 0.52951 0.12293 0.0
C324 C 0.77872 0.58792 0.15441 0.0
C325 C 0.73229 0.58612 0.15202 0.0
U326 U 0.57029 0.54183 0.11641 0.0
O327 O 0.5159 0.50375 0.13794 0.0
O328 O 0.52865 0.57835 0.13636 0.0
C329 C 0.50264 0.54071 0.14397 0.0
C330 C 0.65332 0.55117 0.13619 0.0
C331 C 0.4529 0.53762 0.14313 0.0
C332 C 0.38037 0.5075 0.16032 0.0
C333 C 0.42602 0.50738 0.15833 0.0
C334 C 0.38677 0.56741 0.13143 0.0
C335 C 0.36024 0.53822 0.14731 0.0
C336 C 0.43245 0.56724 0.12942 0.0
C337 C 0.56652 0.53239 0.0447 0.0
C338 C 0.56639 0.56149 1.004 0.0
C339 C 0.5832 0.4878 0.01093 0.0
C340 C 0.57812 0.49306 0.0356 0.0
C341 C 0.57667 0.52164 0.99476 0.0
C342 C 0.56138 0.56676 0.02863 0.0
C343 C 0.55146 0.53465 0.06945 0.0
O344 O 0.63626 0.58607 0.13012 0.0
O345 O 0.62526 0.51122 0.13103 0.0
O346 O 0.5503 0.49924 0.08321 0.0
O347 O 0.56265 0.57417 0.08149 0.0
H348 H 0.7001 0.50312 0.1079 0.0
H349 H 0.78168 0.50717 0.11141 0.0
H350 H 0.79932 0.61044 0.16829 0.0
H351 H 0.71888 0.60764 0.16395 0.0
H352 H 0.36123 0.48457 0.17272 0.0
H353 H 0.44076 0.48442 0.1693 0.0
H354 H 0.3723 0.5908 0.12067 0.0
H355 H 0.45195 0.591 0.1175 0.0
H356 H 0.56135 0.58827 0.99208 0.0
H357 H 0.59037 0.45632 1.00438 0.0
H358 H 0.58145 0.46543 0.04732 0.0
H359 H 0.55154 0.59703 0.03496 0.0
C360 C 0.23229 0.50225 0.15442 0.0
C361 C 0.21995 0.54424 0.15781 0.0
C362 C 0.27735 0.5005 0.15111 0.0
C363 C 0.31231 0.54066 0.15088 0.0
H364 H 0.20683 0.47027 0.15402 0.0
H365 H 0.28472 0.46735 0.14833 0.0
S366 S 0.29958 0.6593 0.16103 0.0
N367 N 0.24795 0.62711 0.16205 0.0
N368 N 0.33174 0.62354 0.15596 0.0
C369 C 0.30069 0.58277 0.15472 0.0
C370 C 0.25494 0.58462 0.15816 0.0
C371 C 0.88612 0.30516 0.50577 0.0
C372 C 0.90022 0.26872 0.51703 0.0
C373 C 0.91752 0.34336 0.49808 0.0
C374 C 0.96427 0.34672 0.50144 0.0
H375 H 0.85052 0.3045 0.50318 0.0
H376 H 0.90512 0.37083 0.48978 0.0
S377 S 1.01878 0.25894 0.52791 0.0
N378 N 0.96421 0.23723 0.52966 0.0
N379 N 1.02306 0.30921 0.51549 0.0
C380 C 0.97883 0.31027 0.51231 0.0
C381 C 0.9469 0.27128 0.52003 0.0
C382 C 0.62903 0.66376 0.85501 0.0
C383 C 0.59465 0.63204 0.84143 0.0
C384 C 0.63132 0.71097 0.85459 0.0
C385 C 0.59915 0.72803 0.84071 0.0
H386 H 0.65425 0.65213 0.8662 0.0
H387 H 0.65791 0.7342 0.86553 0.0
S388 S 0.50453 0.66069 0.80049 0.0
N389 N 0.52894 0.6221 0.81265 0.0
N390 N 0.53358 0.71059 0.81212 0.0
C391 C 0.56517 0.69708 0.82675 0.0
C392 C 0.56283 0.64915 0.82704 0.0
C393 C 0.90778 0.51806 0.14759 0.0
C394 C 0.9419 0.55861 0.15224 0.0
C395 C 0.86188 0.5188 0.14341 0.0
C396 C 0.84755 0.56016 0.14349 0.0
H397 H 0.91645 0.48511 0.14743 0.0
H398 H 0.8373 0.48641 0.14052 0.0
S399 S 0.92357 0.67652 0.15258 0.0
N400 N 0.95796 0.64167 0.15553 0.0
N401 N 0.87242 0.64327 0.14711 0.0
C402 C 0.88147 0.6011 0.14764 0.0
C403 C 0.92823 0.60029 0.15214 0.0
C404 C 0.35071 0.84555 0.47361 0.0
C405 C 0.36373 0.84805 0.49838 0.0
C406 C 0.31933 0.80728 0.46313 0.0
C407 C 0.30005 0.76976 0.47695 0.0
H408 H 0.36422 0.87381 0.46231 0.0
H409 H 0.31018 0.80702 0.44399 0.0
S410 S 0.32428 0.75866 0.54245 0.0
N411 N 0.35615 0.80912 0.53635 0.0
N412 N 0.29688 0.73736 0.5167 0.0
C413 C 0.31341 0.77149 0.50167 0.0
C414 C 0.3452 0.8106 0.51237 0.0
C415 C 0.60837 0.33529 0.81745 0.0
C416 C 0.5805 0.34972 0.83363 0.0
C417 C 0.61035 0.28921 0.81542 0.0
C418 C 0.58505 0.25611 0.82976 0.0
H419 H 0.62926 0.35984 0.80642 0.0
H420 H 0.63303 0.27971 0.80321 0.0
S421 S 0.50537 0.27516 0.87403 0.0
N422 N 0.5256 0.32642 0.86349 0.0
N423 N 0.52986 0.24001 0.85982 0.0
C424 C 0.5562 0.2697 0.84551 0.0
C425 C 0.55374 0.31646 0.8474 0.0
C426 C 0.67606 0.91084 0.54927 0.0
C427 C 0.63549 0.92398 0.54331 0.0
C428 C 0.67733 0.86436 0.54957 0.0
C429 C 0.63829 0.82957 0.54345 0.0
H430 H 0.70679 0.93654 0.55426 0.0
H431 H 0.7091 0.85556 0.55445 0.0
S432 S 0.52395 0.84572 0.52583 0.0
N433 N 0.55549 0.89818 0.53068 0.0
N434 N 0.55815 0.81129 0.53115 0.0
C435 C 0.59775 0.84228 0.53712 0.0
C436 C 0.59628 0.88935 0.53708 0.0
C437 C 0.91002 0.49962 0.81163 0.0
C438 C 0.87784 0.4584 0.81439 0.0
C439 C 0.95522 0.50395 0.81954 0.0
C440 C 0.9693 0.46712 0.83034 0.0
H441 H 0.89947 0.53054 0.80686 0.0
H442 H 0.97735 0.53797 0.82038 0.0
S443 S 0.90188 0.34759 0.83175 0.0
N444 N 0.8657 0.37677 0.82102 0.0
N445 N 0.95106 0.38502 0.83614 0.0
C446 C 0.93949 0.42365 0.8284 0.0
C447 C 0.89347 0.41921 0.82024 0.0
C448 C 0.30051 0.85806 0.21887 0.0
C449 C 0.29917 0.8137 0.20982 0.0
C450 C 0.34129 0.88765 0.22778 0.0
C451 C 0.38236 0.87396 0.2282 0.0
H452 H 0.26976 0.87008 0.21904 0.0
H453 H 0.34046 0.92115 0.23493 0.0
S454 S 0.39748 0.76166 0.20622 0.0
N455 N 0.34271 0.75768 0.20173 0.0
N456 N 0.41931 0.81348 0.21809 0.0
C457 C 0.3816 0.82992 0.21893 0.0
C458 C 0.3401 0.79982 0.20981 0.0
C459 C 0.65502 0.23627 0.55911 0.0
C460 C 0.61596 0.20017 0.55782 0.0
C461 C 0.65261 0.28185 0.5629 0.0
C462 C 0.61109 0.29324 0.56571 0.0
H463 H 0.68776 0.22947 0.55665 0.0
H464 H 0.68343 0.30851 0.5629 0.0
S465 S 0.49947 0.21131 0.56654 0.0
N466 N 0.53475 0.1788 0.56136 0.0
N467 N 0.53046 0.26442 0.56884 0.0
C468 C 0.57195 0.25742 0.56528 0.0
C469 C 0.57432 0.21097 0.56125 0.0
C470 C 0.32418 0.62175 0.80732 0.0
C471 C 0.3688 0.63048 0.81745 0.0
C472 C 0.29785 0.65343 0.81012 0.0
C473 C 0.31508 0.69511 0.82324 0.0
H474 H 0.30798 0.58853 0.79912 0.0
H475 H 0.26238 0.64262 0.8042 0.0
S476 S 0.43365 0.73968 0.84712 0.0
N477 N 0.43198 0.68754 0.83664 0.0
N478 N 0.38225 0.74752 0.84165 0.0
C479 C 0.36134 0.70678 0.83055 0.0
C480 C 0.38821 0.67428 0.82784 0.0
C481 C 0.87704 0.26234 0.20979 0.0
C482 C 0.87577 0.28044 0.18665 0.0
C483 C 0.83932 0.23146 0.21797 0.0
C484 C 0.79875 0.21754 0.20337 0.0
H485 H 0.90771 0.27155 0.22153 0.0
H486 H 0.84223 0.21777 0.23573 0.0
S487 S 0.77647 0.25882 0.1423 0.0
N488 N 0.82967 0.28457 0.14989 0.0
N489 N 0.75876 0.22705 0.16527 0.0
C490 C 0.79675 0.2363 0.18041 0.0
C491 C 0.8352 0.26757 0.17206 0.0
C492 C 0.12158 0.54605 0.07659 0.0
C493 C 0.10167 0.57498 0.09016 0.0
C494 C 0.13873 0.55927 0.05438 0.0
C495 C 0.13694 0.60202 0.04499 0.0
H496 H 0.1248 0.51326 0.08333 0.0
H497 H 0.15425 0.5362 0.04468 0.0
S498 S 1.08526 0.68901 0.07214 0.0
N499 N 1.07907 0.64759 0.09165 0.0
N500 N 0.11128 0.67199 0.04996 0.0
C501 C 0.11621 0.6308 0.05797 0.0
C502 C 0.09853 0.61736 0.08051 0.0
C503 C 0.66444 0.09951 0.46183 0.0
C504 C 0.62669 0.07193 0.47194 0.0
C505 C 0.66663 0.10277 0.43684 0.0
C506 C 0.63113 0.07873 0.42079 0.0
H507 H 0.69293 0.11857 0.47329 0.0
H508 H 0.69674 0.12395 0.43004 0.0
S509 S 0.52356 1.00361 0.4378 0.0
N510 N 0.55228 0.02095 0.46376 0.0
N511 N 0.55619 0.02773 0.41681 0.0
C512 C 0.59296 0.0513 0.43058 0.0
C513 C 0.59077 0.04779 0.4561 0.0
C514 C 0.62869 0.53665 0.758 0.0
C515 C 0.59567 0.50012 0.76617 0.0
C516 C 0.62991 0.54682 0.73359 0.0
C517 C 0.59855 0.52064 0.71621 0.0
H518 H 0.65319 0.55863 0.77061 0.0
H519 H 0.65531 0.57595 0.7283 0.0
S520 S 0.50697 0.41968 0.72756 0.0
N521 N 0.53188 0.43632 0.75451 0.0
N522 N 0.53464 0.45553 0.70848 0.0
C523 C 0.56636 0.48302 0.72384 0.0
C524 C 0.56474 0.47281 0.74884 0.0
C525 C 0.59009 0.04299 0.63341 0.0
C526 C 0.6306 0.05516 0.62181 0.0
C527 C 0.59036 0.03687 0.65836 0.0
C528 C 0.63115 0.04298 0.67272 0.0
H529 H 0.55783 0.03667 0.62305 0.0
H530 H 0.55835 0.02564 0.66631 0.0
S531 S 0.74642 0.08127 0.65175 0.0
N532 N 0.71263 0.07721 0.62702 0.0
N533 N 0.71303 0.06651 0.67386 0.0
C534 C 0.67185 0.05733 0.66153 0.0
C535 C 0.6716 0.06321 0.63612 0.0
C536 C 0.54462 0.51588 0.92703 0.0
C537 C 0.58027 0.50127 0.91702 0.0
C538 C 0.54386 0.52254 0.95206 0.0
C539 C 0.57857 0.51471 0.96822 0.0
H540 H 0.51704 0.52242 0.91549 0.0
H541 H 0.51551 0.53349 0.95883 0.0
S542 S 0.68051 0.4778 0.95163 0.0
N543 N 0.65186 0.48001 0.92566 0.0
N544 N 0.65022 0.49288 0.97239 0.0
C545 C 0.61443 0.50025 0.95854 0.0
C546 C 0.61534 0.4935 0.93308 0.0
C547 C 0.1138 0.55514 0.25168 0.0
C548 C 1.07748 0.53201 0.23582 0.0
C549 C 0.11347 0.54931 0.27662 0.0
C550 C 1.07678 0.5201 0.28673 0.0
H551 H 0.1431 0.57773 0.24479 0.0
H552 H 0.14244 0.56734 0.28804 0.0
S553 S 0.97174 0.4541 0.25343 0.0
N554 N 1.00278 0.48018 0.23232 0.0
N555 N 1.0021 0.46967 0.27911 0.0
C556 C 1.03993 0.49729 0.27116 0.0
C557 C 1.04026 0.50314 0.24576 0.0
loop_
_geom_bond_atom_site_label_1
_geom_bond_atom_site_label_2
_geom_bond_distance
_geom_bond_site_symmetry_2
_ccdc_geom_bond_type
Dy0 O3 2.307 1_455 S
Dy0 O5 2.395 . S
Dy0 O6 2.379 . S
Dy0 O8 2.339 . S
Dy0 O10 2.298 . S
Dy0 O14 2.275 . S
Dy0 C22 2.738 . S
Dy1 O4 2.298 . S
Dy1 O7 2.275 1_655 S
Dy1 O9 2.307 1_655 S
Dy1 O11 2.395 . S
Dy1 O12 2.379 . S
Dy1 O15 2.339 . S
Dy1 C31 2.738 . S
C2 O14 1.254 . S
C2 O15 1.257 1_455 S
O3 Dy0 2.307 1_655 S
O3 C13 1.266 . S
O4 Dy1 2.298 . S
O4 C13 1.236 . S
O5 Dy0 2.395 . S
O5 C22 1.255 . S
O6 Dy0 2.379 . S
O6 C22 1.249 . S
O7 Dy1 2.275 1_455 S
O7 C23 1.254 . S
O8 Dy0 2.339 . S
O8 C23 1.257 . S
O9 Dy1 2.307 1_455 S
O9 C24 1.266 . S
O10 Dy0 2.298 . S
O10 C24 1.236 . S
O11 Dy1 2.395 . S
O11 C31 1.255 . S
O12 Dy1 2.379 . S
O12 C31 1.249 . S
C13 O3 1.266 . S
C13 O4 1.236 . S
O14 Dy0 2.275 . S
O14 C2 1.254 . S
O15 Dy1 2.339 . S
O15 C2 1.257 1_655 S
C16 C19 1.344 . S
C16 C20 1.328 . S
C16 C22 1.516 . S
C17 C18 1.304 . S
C17 C21 1.323 . S
C18 C17 1.304 . S
C18 C19 1.371 . S
C18 H32 0.930 . S
C19 C16 1.344 . S
C19 C18 1.371 . S
C19 H33 0.931 . S
C20 C16 1.328 . S
C20 C21 1.433 . S
C20 H34 0.931 . S
C21 C17 1.323 . S
C21 C20 1.433 . S
C21 H35 0.933 . S
C22 Dy0 2.738 . S
C22 O5 1.255 . S
C22 O6 1.249 . S
C22 C16 1.516 . S
C23 O7 1.254 . S
C23 O8 1.257 . S
C24 O9 1.266 . S
C24 O10 1.236 . S
C25 C28 1.344 . S
C25 C29 1.328 . S
C25 C31 1.516 . S
C26 C27 1.304 . S
C26 C30 1.323 . S
C27 C26 1.304 . S
C27 C28 1.371 . S
C27 H36 0.930 . S
C28 C25 1.344 . S
C28 C27 1.371 . S
C28 H37 0.931 . S
C29 C25 1.328 . S
C29 C30 1.433 . S
C29 H38 0.931 . S
C30 C26 1.323 . S
C30 C29 1.433 . S
C30 H39 0.933 . S
C31 Dy1 2.738 . S
C31 O11 1.255 . S
C31 O12 1.249 . S
C31 C25 1.516 . S
H32 C18 0.930 . S
H33 C19 0.931 . S
H34 C20 0.931 . S
H35 C21 0.933 . S
H36 C27 0.930 . S
H37 C28 0.931 . S
H38 C29 0.931 . S
H39 C30 0.933 . S
Dy40 O43 2.307 1_565 S
Dy40 O45 2.395 . S
Dy40 O46 2.379 . S
Dy40 O48 2.339 1_565 S
Dy40 O50 2.298 . S
Dy40 O54 2.275 1_565 S
Dy40 C62 2.738 . S
Dy41 O44 2.298 . S
Dy41 O47 2.275 . S
Dy41 O49 2.307 1_545 S
Dy41 O51 2.395 . S
Dy41 O52 2.379 . S
Dy41 O55 2.339 . S
Dy41 C71 2.738 . S
C42 O54 1.254 . S
C42 O55 1.257 . S
O43 Dy40 2.307 1_545 S
O43 C53 1.266 . S
O44 Dy41 2.298 . S
O44 C53 1.236 . S
O45 Dy40 2.395 . S
O45 C62 1.255 . S
O46 Dy40 2.379 . S
O46 C62 1.249 . S
O47 Dy41 2.275 . S
O47 C63 1.254 . S
O48 Dy40 2.339 1_545 S
O48 C63 1.257 . S
O49 Dy41 2.307 1_565 S
O49 C64 1.266 . S
O50 Dy40 2.298 . S
O50 C64 1.236 . S
O51 Dy41 2.395 . S
O51 C71 1.255 . S
O52 Dy41 2.379 . S
O52 C71 1.249 . S
C53 O43 1.266 . S
C53 O44 1.236 . S
O54 Dy40 2.275 1_545 S
O54 C42 1.254 . S
O55 Dy41 2.339 . S
O55 C42 1.257 . S
C56 C59 1.344 . S
C56 C60 1.328 . S
C56 C62 1.516 . S
C57 C58 1.304 . S
C57 C61 1.323 . S
C58 C57 1.304 . S
C58 C59 1.371 . S
C58 H72 0.930 . S
C59 C56 1.344 . S
C59 C58 1.371 . S
C59 H73 0.931 . S
C60 C56 1.328 . S
C60 C61 1.433 . S
C60 H74 0.931 . S
C61 C57 1.323 . S
C61 C60 1.433 . S
C61 H75 0.933 . S
C62 Dy40 2.738 . S
C62 O45 1.255 . S
C62 O46 1.249 . S
C62 C56 1.516 . S
C63 O47 1.254 . S
C63 O48 1.257 . S
C64 O49 1.266 . S
C64 O50 1.236 . S
C65 C68 1.344 . S
C65 C69 1.328 . S
C65 C71 1.516 . S
C66 C67 1.304 . S
C66 C70 1.323 . S
C67 C66 1.304 . S
C67 C68 1.371 . S
C67 H76 0.930 . S
C68 C65 1.344 . S
C68 C67 1.371 . S
C68 H77 0.931 . S
C69 C65 1.328 . S
C69 C70 1.433 . S
C69 H78 0.931 . S
C70 C66 1.323 . S
C70 C69 1.433 . S
C70 H79 0.933 . S
C71 Dy41 2.738 . S
C71 O51 1.255 . S
C71 O52 1.249 . S
C71 C65 1.516 . S
H72 C58 0.930 . S
H73 C59 0.931 . S
H74 C60 0.931 . S
H75 C61 0.933 . S
H76 C67 0.930 . S
H77 C68 0.931 . S
H78 C69 0.931 . S
H79 C70 0.933 . S
Dy80 O83 2.307 . S
Dy80 O85 2.395 . S
Dy80 O86 2.379 . S
Dy80 O88 2.339 . S
Dy80 O90 2.298 . S
Dy80 O94 2.275 . S
Dy80 C102 2.738 . S
Dy81 O84 2.298 . S
Dy81 O87 2.275 . S
Dy81 O89 2.307 . S
Dy81 O91 2.395 . S
Dy81 O92 2.379 . S
Dy81 O95 2.339 . S
Dy81 C111 2.738 . S
C82 O94 1.254 . S
C82 O95 1.257 . S
O83 Dy80 2.307 . S
O83 C93 1.266 . S
O84 Dy81 2.298 . S
O84 C93 1.236 . S
O85 Dy80 2.395 . S
O85 C102 1.255 . S
O86 Dy80 2.379 . S
O86 C102 1.249 . S
O87 Dy81 2.275 . S
O87 C103 1.254 . S
O88 Dy80 2.339 . S
O88 C103 1.257 . S
O89 Dy81 2.307 . S
O89 C104 1.266 . S
O90 Dy80 2.298 . S
O90 C104 1.236 . S
O91 Dy81 2.395 . S
O91 C111 1.255 . S
O92 Dy81 2.379 . S
O92 C111 1.249 . S
C93 O83 1.266 . S
C93 O84 1.236 . S
O94 Dy80 2.275 . S
O94 C82 1.254 . S
O95 Dy81 2.339 . S
O95 C82 1.257 . S
C96 C99 1.344 . S
C96 C100 1.328 . S
C96 C102 1.516 . S
C97 C98 1.304 . S
C97 C101 1.323 . S
C98 C97 1.304 . S
C98 C99 1.371 . S
C98 H112 0.930 . S
C99 C96 1.344 . S
C99 C98 1.371 . S
C99 H113 0.931 . S
C100 C96 1.328 . S
C100 C101 1.433 . S
C100 H114 0.931 . S
C101 C97 1.323 . S
C101 C100 1.433 . S
C101 H115 0.933 . S
C102 Dy80 2.738 . S
C102 O85 1.255 . S
C102 O86 1.249 . S
C102 C96 1.516 . S
C103 O87 1.254 . S
C103 O88 1.257 . S
C104 O89 1.266 . S
C104 O90 1.236 . S
C105 C108 1.344 . S
C105 C109 1.328 . S
C105 C111 1.516 . S
C106 C107 1.304 . S
C106 C110 1.323 . S
C107 C106 1.304 . S
C107 C108 1.371 . S
C107 H116 0.930 . S
C108 C105 1.344 . S
C108 C107 1.371 . S
C108 H117 0.931 . S
C109 C105 1.328 . S
C109 C110 1.433 . S
C109 H118 0.931 . S
C110 C106 1.323 . S
C110 C109 1.433 . S
C110 H119 0.933 . S
C111 Dy81 2.738 . S
C111 O91 1.255 . S
C111 O92 1.249 . S
C111 C105 1.516 . S
H112 C98 0.930 . S
H113 C99 0.931 . S
H114 C100 0.931 . S
H115 C101 0.933 . S
H116 C107 0.930 . S
H117 C108 0.931 . S
H118 C109 0.931 . S
H119 C110 0.933 . S
C120 C121 1.264 . S
C120 C125 1.479 . S
C120 C130 1.465 . S
C121 C120 1.264 . S
C121 C123 1.339 . S
C121 H148 0.931 . S
C122 C123 1.395 . S
C122 C124 1.320 . S
C123 C121 1.339 . S
C123 C122 1.395 . S
C123 H149 0.929 . S
C124 C122 1.320 . S
C124 C125 1.405 . S
C124 H150 0.930 . S
C125 C120 1.479 . S
C125 C124 1.405 . S
C125 H151 0.931 . S
U126 O127 2.454 . S
U126 O128 2.458 1_545 S
U126 C129 2.984 1_545 S
U126 C130 2.847 . S
U126 C143 2.882 . S
U126 O144 2.441 . S
U126 O145 2.420 . S
U126 O146 2.455 . S
U126 O147 2.449 . S
O127 U126 2.454 . S
O127 C129 1.353 1_545 S
O128 U126 2.458 1_565 S
O128 C129 1.286 . S
C129 U126 2.984 1_565 S
C129 O127 1.353 1_565 S
C129 O128 1.286 . S
C129 C131 1.363 . S
C130 C120 1.465 . S
C130 U126 2.847 . S
C130 O144 1.249 . S
C130 O145 1.202 . S
C131 C129 1.363 . S
C131 C133 1.408 . S
C131 C136 1.342 . S
C132 C133 1.310 . S
C132 C135 1.461 . S
C132 H152 0.932 . S
C133 C131 1.408 . S
C133 C132 1.310 . S
C133 H153 0.930 . S
C134 C135 1.474 . S
C134 C136 1.285 . S
C134 H154 0.929 . S
C135 C132 1.461 . S
C135 C134 1.474 . S
C136 C131 1.342 . S
C136 C134 1.285 . S
C136 H155 0.930 . S
C137 C140 1.424 . S
C137 C142 1.245 . S
C137 C143 1.428 . S
C138 C141 1.260 . S
C138 C142 1.477 . S
C138 H156 0.932 . S
C139 C140 1.384 . S
C139 C141 1.479 . S
C139 H157 0.929 . S
C140 C137 1.424 . S
C140 C139 1.384 . S
C140 H158 0.928 . S
C141 C138 1.260 . S
C141 C139 1.479 . S
C142 C137 1.245 . S
C142 C138 1.477 . S
C142 H159 0.932 . S
C143 U126 2.882 . S
C143 C137 1.428 . S
C143 O146 1.301 . S
C143 O147 1.282 . S
O144 U126 2.441 . S
O144 C130 1.249 . S
O145 U126 2.420 . S
O145 C130 1.202 . S
O146 U126 2.455 . S
O146 C143 1.301 . S
O147 U126 2.449 . S
O147 C143 1.282 . S
H148 C121 0.931 . S
H149 C123 0.929 . S
H150 C124 0.930 . S
H151 C125 0.931 . S
H152 C132 0.932 . S
H153 C133 0.930 . S
H154 C134 0.929 . S
H155 C136 0.930 . S
H156 C138 0.932 . S
H157 C139 0.929 . S
H158 C140 0.928 . S
H159 C142 0.932 . S
C160 C161 1.264 . S
C160 C165 1.479 . S
C160 C170 1.465 . S
C161 C160 1.264 . S
C161 C163 1.339 . S
C161 H188 0.931 . S
C162 C163 1.395 . S
C162 C164 1.320 . S
C163 C161 1.339 . S
C163 C162 1.395 . S
C163 H189 0.929 . S
C164 C162 1.320 . S
C164 C165 1.405 . S
C164 H190 0.930 . S
C165 C160 1.479 . S
C165 C164 1.405 . S
C165 H191 0.931 . S
U166 O167 2.454 . S
U166 O168 2.458 . S
U166 C169 2.984 . S
U166 C170 2.847 . S
U166 C183 2.882 . S
U166 O184 2.441 . S
U166 O185 2.420 . S
U166 O186 2.455 . S
U166 O187 2.449 . S
O167 U166 2.454 . S
O167 C169 1.353 . S
O168 U166 2.458 . S
O168 C169 1.286 . S
C169 U166 2.984 . S
C169 O167 1.353 . S
C169 O168 1.286 . S
C169 C171 1.363 . S
C170 C160 1.465 . S
C170 U166 2.847 . S
C170 O184 1.249 . S
C170 O185 1.202 . S
C171 C169 1.363 . S
C171 C173 1.408 . S
C171 C176 1.342 . S
C172 C173 1.310 . S
C172 C175 1.461 . S
C172 H192 0.932 . S
C173 C171 1.408 . S
C173 C172 1.310 . S
C173 H193 0.930 . S
C174 C175 1.474 . S
C174 C176 1.285 . S
C174 H194 0.929 . S
C175 C172 1.461 . S
C175 C174 1.474 . S
C176 C171 1.342 . S
C176 C174 1.285 . S
C176 H195 0.930 . S
C177 C180 1.424 . S
C177 C182 1.245 . S
C177 C183 1.428 . S
C178 C181 1.260 . S
C178 C182 1.477 . S
C178 H196 0.932 . S
C179 C180 1.384 . S
C179 C181 1.479 . S
C179 H197 0.929 . S
C180 C177 1.424 . S
C180 C179 1.384 . S
C180 H198 0.928 . S
C181 C178 1.260 . S
C181 C179 1.479 . S
C182 C177 1.245 . S
C182 C178 1.477 . S
C182 H199 0.932 . S
C183 U166 2.882 . S
C183 C177 1.428 . S
C183 O186 1.301 . S
C183 O187 1.282 . S
O184 U166 2.441 . S
O184 C170 1.249 . S
O185 U166 2.420 . S
O185 C170 1.202 . S
O186 U166 2.455 . S
O186 C183 1.301 . S
O187 U166 2.449 . S
O187 C183 1.282 . S
H188 C161 0.931 . S
H189 C163 0.929 . S
H190 C164 0.930 . S
H191 C165 0.931 . S
H192 C172 0.932 . S
H193 C173 0.930 . S
H194 C174 0.929 . S
H195 C176 0.930 . S
H196 C178 0.932 . S
H197 C179 0.929 . S
H198 C180 0.928 . S
H199 C182 0.932 . S
C200 C201 1.264 . S
C200 C205 1.479 . S
C200 C210 1.465 . S
C201 C200 1.264 . S
C201 C203 1.339 . S
C201 H228 0.931 . S
C202 C203 1.395 . S
C202 C204 1.320 . S
C203 C201 1.339 . S
C203 C202 1.395 . S
C203 H229 0.929 . S
C204 C202 1.320 . S
C204 C205 1.405 . S
C204 H230 0.930 . S
C205 C200 1.479 . S
C205 C204 1.405 . S
C205 H231 0.931 . S
U206 O207 2.454 . S
U206 O208 2.458 . S
U206 C209 2.984 . S
U206 C210 2.847 1_455 S
U206 C223 2.882 . S
U206 O224 2.441 1_455 S
U206 O225 2.420 1_455 S
U206 O226 2.455 . S
U206 O227 2.449 1_455 S
O207 U206 2.454 . S
O207 C209 1.353 . S
O208 U206 2.458 . S
O208 C209 1.286 . S
C209 U206 2.984 . S
C209 O207 1.353 . S
C209 O208 1.286 . S
C209 C211 1.363 . S
C210 C200 1.465 . S
C210 U206 2.847 1_655 S
C210 O224 1.249 . S
C210 O225 1.202 . S
C211 C209 1.363 . S
C211 C213 1.408 . S
C211 C216 1.342 . S
C212 C213 1.310 . S
C212 C215 1.461 . S
C212 H232 0.932 . S
C213 C211 1.408 . S
C213 C212 1.310 . S
C213 H233 0.930 . S
C214 C215 1.474 . S
C214 C216 1.285 . S
C214 H234 0.929 . S
C215 C212 1.461 . S
C215 C214 1.474 . S
C216 C211 1.342 . S
C216 C214 1.285 . S
C216 H235 0.930 . S
C217 C220 1.424 1_455 S
C217 C222 1.245 . S
C217 C223 1.428 . S
C218 C221 1.260 . S
C218 C222 1.477 1_554 S
C218 H236 0.932 . S
C219 C220 1.384 1_554 S
C219 C221 1.479 1_655 S
C219 H237 0.929 . S
C220 C217 1.424 1_655 S
C220 C219 1.384 1_556 S
C220 H238 0.928 . S
C221 C218 1.260 . S
C221 C219 1.479 1_455 S
C222 C217 1.245 . S
C222 C218 1.477 1_556 S
C222 H239 0.932 . S
C223 U206 2.882 . S
C223 C217 1.428 . S
C223 O226 1.301 . S
C223 O227 1.282 1_455 S
O224 U206 2.441 1_655 S
O224 C210 1.249 . S
O225 U206 2.420 1_655 S
O225 C210 1.202 . S
O226 U206 2.455 . S
O226 C223 1.301 . S
O227 U206 2.449 1_655 S
O227 C223 1.282 1_655 S
H228 C201 0.931 . S
H229 C203 0.929 . S
H230 C204 0.930 . S
H231 C205 0.931 . S
H232 C212 0.932 . S
H233 C213 0.930 . S
H234 C214 0.929 . S
H235 C216 0.930 . S
H236 C218 0.932 . S
H237 C219 0.929 . S
H238 C220 0.928 . S
H239 C222 0.932 . S
C240 C241 1.264 . S
C240 C245 1.479 . S
C240 C250 1.465 . S
C241 C240 1.264 . S
C241 C243 1.339 . S
C241 H268 0.931 . S
C242 C243 1.395 . S
C242 C244 1.320 . S
C243 C241 1.339 . S
C243 C242 1.395 . S
C243 H269 0.929 . S
C244 C242 1.320 . S
C244 C245 1.405 . S
C244 H270 0.930 . S
C245 C240 1.479 . S
C245 C244 1.405 . S
C245 H271 0.931 . S
U246 O247 2.454 . S
U246 O248 2.458 . S
U246 C249 2.984 . S
U246 C250 2.847 1_455 S
U246 C263 2.882 1_455 S
U246 O264 2.441 1_455 S
U246 O265 2.420 1_455 S
U246 O266 2.455 . S
U246 O267 2.449 1_455 S
O247 U246 2.454 . S
O247 C249 1.353 . S
O248 U246 2.458 . S
O248 C249 1.286 . S
C249 U246 2.984 . S
C249 O247 1.353 . S
C249 O248 1.286 . S
C249 C251 1.363 . S
C250 C240 1.465 . S
C250 U246 2.847 1_655 S
C250 O264 1.249 . S
C250 O265 1.202 . S
C251 C249 1.363 . S
C251 C253 1.408 . S
C251 C256 1.342 . S
C252 C253 1.310 . S
C252 C255 1.461 . S
C252 H272 0.932 . S
C253 C251 1.408 . S
C253 C252 1.310 . S
C253 H273 0.930 . S
C254 C255 1.474 . S
C254 C256 1.285 . S
C254 H274 0.929 . S
C255 C252 1.461 . S
C255 C254 1.474 . S
C256 C251 1.342 . S
C256 C254 1.285 . S
C256 H275 0.930 . S
C257 C260 1.424 . S
C257 C262 1.245 1_655 S
C257 C263 1.428 . S
C258 C261 1.260 1_455 S
C258 C262 1.477 . S
C258 H276 0.932 . S
C259 C260 1.384 . S
C259 C261 1.479 . S
C259 H277 0.929 . S
C260 C257 1.424 . S
C260 C259 1.384 . S
C260 H278 0.928 . S
C261 C258 1.260 1_655 S
C261 C259 1.479 . S
C262 C257 1.245 1_455 S
C262 C258 1.477 . S
C262 H279 0.932 . S
C263 U246 2.882 1_655 S
C263 C257 1.428 . S
C263 O266 1.301 1_655 S
C263 O267 1.282 . S
O264 U246 2.441 1_655 S
O264 C250 1.249 . S
O265 U246 2.420 1_655 S
O265 C250 1.202 . S
O266 U246 2.455 . S
O266 C263 1.301 1_455 S
O267 U246 2.449 1_655 S
O267 C263 1.282 . S
H268 C241 0.931 . S
H269 C243 0.929 . S
H270 C244 0.930 . S
H271 C245 0.931 . S
H272 C252 0.932 . S
H273 C253 0.930 . S
H274 C254 0.929 . S
H275 C256 0.930 . S
H276 C258 0.932 . S
H277 C259 0.929 . S
H278 C260 0.928 . S
H279 C262 0.932 . S
C280 C281 1.264 . S
C280 C285 1.479 . S
C280 C290 1.465 . S
C281 C280 1.264 . S
C281 C283 1.339 . S
C281 H308 0.931 . S
C282 C283 1.395 . S
C282 C284 1.320 . S
C283 C281 1.339 . S
C283 C282 1.395 . S
C283 H309 0.929 . S
C284 C282 1.320 . S
C284 C285 1.405 . S
C284 H310 0.930 . S
C285 C280 1.479 . S
C285 C284 1.405 . S
C285 H311 0.931 . S
U286 O287 2.454 1_565 S
U286 O288 2.458 1_565 S
U286 C289 2.984 1_565 S
U286 C290 2.847 . S
U286 C303 2.882 . S
U286 O304 2.441 . S
U286 O305 2.420 . S
U286 O306 2.455 1_565 S
U286 O307 2.449 . S
O287 U286 2.454 1_545 S
O287 C289 1.353 . S
O288 U286 2.458 1_545 S
O288 C289 1.286 . S
C289 U286 2.984 1_545 S
C289 O287 1.353 . S
C289 O288 1.286 . S
C289 C291 1.363 . S
C290 C280 1.465 . S
C290 U286 2.847 . S
C290 O304 1.249 . S
C290 O305 1.202 . S
C291 C289 1.363 . S
C291 C293 1.408 . S
C291 C296 1.342 . S
C292 C293 1.310 . S
C292 C295 1.461 . S
C292 H312 0.932 . S
C293 C291 1.408 . S
C293 C292 1.310 . S
C293 H313 0.930 . S
C294 C295 1.474 . S
C294 C296 1.285 . S
C294 H314 0.929 . S
C295 C292 1.461 . S
C295 C294 1.474 . S
C296 C291 1.342 . S
C296 C294 1.285 . S
C296 H315 0.930 . S
C297 C300 1.424 1_545 S
C297 C302 1.245 . S
C297 C303 1.428 1_545 S
C298 C301 1.260 . S
C298 C302 1.477 . S
C298 H316 0.932 . S
C299 C300 1.384 . S
C299 C301 1.479 1_565 S
C299 H317 0.929 . S
C300 C297 1.424 1_565 S
C300 C299 1.384 . S
C300 H318 0.928 . S
C301 C298 1.260 . S
C301 C299 1.479 1_545 S
C302 C297 1.245 . S
C302 C298 1.477 . S
C302 H319 0.932 . S
C303 U286 2.882 . S
C303 C297 1.428 1_565 S
C303 O306 1.301 1_565 S
C303 O307 1.282 . S
O304 U286 2.441 . S
O304 C290 1.249 . S
O305 U286 2.420 . S
O305 C290 1.202 . S
O306 U286 2.455 1_545 S
O306 C303 1.301 1_545 S
O307 U286 2.449 . S
O307 C303 1.282 . S
H308 C281 0.931 . S
H309 C283 0.929 . S
H310 C284 0.930 . S
H311 C285 0.931 . S
H312 C292 0.932 . S
H313 C293 0.930 . S
H314 C294 0.929 . S
H315 C296 0.930 . S
H316 C298 0.932 . S
H317 C299 0.929 . S
H318 C300 0.928 . S
H319 C302 0.932 . S
C320 C321 1.264 . S
C320 C325 1.479 . S
C320 C330 1.465 . S
C321 C320 1.264 . S
C321 C323 1.339 . S
C321 H348 0.931 . S
C322 C323 1.395 . S
C322 C324 1.320 . S
C323 C321 1.339 . S
C323 C322 1.395 . S
C323 H349 0.929 . S
C324 C322 1.320 . S
C324 C325 1.405 . S
C324 H350 0.930 . S
C325 C320 1.479 . S
C325 C324 1.405 . S
C325 H351 0.931 . S
U326 O327 2.454 . S
U326 O328 2.458 . S
U326 C329 2.984 . S
U326 C330 2.847 . S
U326 C343 2.882 . S
U326 O344 2.441 . S
U326 O345 2.420 . S
U326 O346 2.455 . S
U326 O347 2.449 . S
O327 U326 2.454 . S
O327 C329 1.353 . S
O328 U326 2.458 . S
O328 C329 1.286 . S
C329 U326 2.984 . S
C329 O327 1.353 . S
C329 O328 1.286 . S
C329 C331 1.363 . S
C330 C320 1.465 . S
C330 U326 2.847 . S
C330 O344 1.249 . S
C330 O345 1.202 . S
C331 C329 1.363 . S
C331 C333 1.408 . S
C331 C336 1.342 . S
C332 C333 1.310 . S
C332 C335 1.461 . S
C332 H352 0.932 . S
C333 C331 1.408 . S
C333 C332 1.310 . S
C333 H353 0.930 . S
C334 C335 1.474 . S
C334 C336 1.285 . S
C334 H354 0.929 . S
C335 C332 1.461 . S
C335 C334 1.474 . S
C336 C331 1.342 . S
C336 C334 1.285 . S
C336 H355 0.930 . S
C337 C340 1.424 . S
C337 C342 1.245 . S
C337 C343 1.428 . S
C338 C341 1.260 . S
C338 C342 1.477 1_556 S
C338 H356 0.932 . S
C339 C340 1.398 . S
C339 C341 1.472 1_554 S
C339 H357 0.922 1_554 S
C340 C337 1.424 . S
C340 C339 1.398 . S
C340 H358 0.928 . S
C341 C338 1.260 . S
C341 C339 1.472 1_556 S
C342 C337 1.245 . S
C342 C338 1.477 1_554 S
C342 H359 0.932 . S
C343 U326 2.882 . S
C343 C337 1.428 . S
C343 O346 1.301 . S
C343 O347 1.282 . S
O344 U326 2.441 . S
O344 C330 1.249 . S
O345 U326 2.420 . S
O345 C330 1.202 . S
O346 U326 2.455 . S
O346 C343 1.301 . S
O347 U326 2.449 . S
O347 C343 1.282 . S
H348 C321 0.931 . S
H349 C323 0.929 . S
H350 C324 0.930 . S
H351 C325 0.931 . S
H352 C332 0.932 . S
H353 C333 0.930 . S
H354 C334 0.929 . S
H355 C336 0.930 . S
H356 C338 0.932 . S
H357 C339 0.922 1_556 S
H358 C340 0.928 . S
H359 C342 0.932 . S
C360 C361 1.369 . S
C360 C362 1.419 . S
C360 H364 0.930 . S
C361 C360 1.369 . S
C361 C370 1.429 . S
C362 C360 1.419 . S
C362 C363 1.363 . S
C362 H365 0.929 . S
C363 C362 1.363 . S
C363 C369 1.428 . S
H364 C360 0.930 . S
H365 C362 0.929 . S
S366 N367 1.613 . S
S366 N368 1.610 . S
N367 S366 1.613 . S
N367 C370 1.350 . S
N368 S366 1.610 . S
N368 C369 1.351 . S
C369 C363 1.428 . S
C369 N368 1.351 . S
C369 C370 1.434 . S
C370 C361 1.429 . S
C370 N367 1.350 . S
C370 C369 1.434 . S
C371 C372 1.369 . S
C371 C373 1.419 . S
C371 H375 0.930 . S
C372 C371 1.369 . S
C372 C381 1.429 . S
C373 C371 1.419 . S
C373 C374 1.363 . S
C373 H376 0.929 . S
C374 C373 1.363 . S
C374 C380 1.428 . S
H375 C371 0.930 . S
H376 C373 0.929 . S
S377 N378 1.613 . S
S377 N379 1.610 . S
N378 S377 1.613 . S
N378 C381 1.350 . S
N379 S377 1.610 . S
N379 C380 1.351 . S
C380 C374 1.428 . S
C380 N379 1.351 . S
C380 C381 1.434 . S
C381 C372 1.429 . S
C381 N378 1.350 . S
C381 C380 1.434 . S
C382 C383 1.369 . S
C382 C384 1.419 . S
C382 H386 0.930 . S
C383 C382 1.369 . S
C383 C392 1.429 . S
C384 C382 1.419 . S
C384 C385 1.363 . S
C384 H387 0.929 . S
C385 C384 1.363 . S
C385 C391 1.428 . S
H386 C382 0.930 . S
H387 C384 0.929 . S
S388 N389 1.613 . S
S388 N390 1.610 . S
N389 S388 1.613 . S
N389 C392 1.350 . S
N390 S388 1.610 . S
N390 C391 1.351 . S
C391 C385 1.428 . S
C391 N390 1.351 . S
C391 C392 1.434 . S
C392 C383 1.429 . S
C392 N389 1.350 . S
C392 C391 1.434 . S
C393 C394 1.369 . S
C393 C395 1.419 . S
C393 H397 0.930 . S
C394 C393 1.369 . S
C394 C403 1.429 . S
C395 C393 1.419 . S
C395 C396 1.363 . S
C395 H398 0.929 . S
C396 C395 1.363 . S
C396 C402 1.428 . S
H397 C393 0.930 . S
H398 C395 0.929 . S
S399 N400 1.613 . S
S399 N401 1.610 . S
N400 S399 1.613 . S
N400 C403 1.350 . S
N401 S399 1.610 . S
N401 C402 1.351 . S
C402 C396 1.428 . S
C402 N401 1.351 . S
C402 C403 1.434 . S
C403 C394 1.429 . S
C403 N400 1.350 . S
C403 C402 1.434 . S
C404 C405 1.369 . S
C404 C406 1.419 . S
C404 H408 0.930 . S
C405 C404 1.369 . S
C405 C414 1.429 . S
C406 C404 1.419 . S
C406 C407 1.363 . S
C406 H409 0.929 . S
C407 C406 1.363 . S
C407 C413 1.428 . S
H408 C404 0.930 . S
H409 C406 0.929 . S
S410 N411 1.613 . S
S410 N412 1.610 . S
N411 S410 1.613 . S
N411 C414 1.350 . S
N412 S410 1.610 . S
N412 C413 1.351 . S
C413 C407 1.428 . S
C413 N412 1.351 . S
C413 C414 1.434 . S
C414 C405 1.429 . S
C414 N411 1.350 . S
C414 C413 1.434 . S
C415 C416 1.369 . S
C415 C417 1.419 . S
C415 H419 0.930 . S
C416 C415 1.369 . S
C416 C425 1.429 . S
C417 C415 1.419 . S
C417 C418 1.363 . S
C417 H420 0.929 . S
C418 C417 1.363 . S
C418 C424 1.428 . S
H419 C415 0.930 . S
H420 C417 0.929 . S
S421 N422 1.613 . S
S421 N423 1.610 . S
N422 S421 1.613 . S
N422 C425 1.350 . S
N423 S421 1.610 . S
N423 C424 1.351 . S
C424 C418 1.428 . S
C424 N423 1.351 . S
C424 C425 1.434 . S
C425 C416 1.429 . S
C425 N422 1.350 . S
C425 C424 1.434 . S
C426 C427 1.369 . S
C426 C428 1.419 . S
C426 H430 0.930 . S
C427 C426 1.369 . S
C427 C436 1.429 . S
C428 C426 1.419 . S
C428 C429 1.363 . S
C428 H431 0.929 . S
C429 C428 1.363 . S
C429 C435 1.428 . S
H430 C426 0.930 . S
H431 C428 0.929 . S
S432 N433 1.613 . S
S432 N434 1.610 . S
N433 S432 1.613 . S
N433 C436 1.350 . S
N434 S432 1.610 . S
N434 C435 1.351 . S
C435 C429 1.428 . S
C435 N434 1.351 . S
C435 C436 1.434 . S
C436 C427 1.429 . S
C436 N433 1.350 . S
C436 C435 1.434 . S
C437 C438 1.369 . S
C437 C439 1.419 . S
C437 H441 0.930 . S
C438 C437 1.369 . S
C438 C447 1.429 . S
C439 C437 1.419 . S
C439 C440 1.363 . S
C439 H442 0.929 . S
C440 C439 1.363 . S
C440 C446 1.428 . S
H441 C437 0.930 . S
H442 C439 0.929 . S
S443 N444 1.613 . S
S443 N445 1.610 . S
N444 S443 1.613 . S
N444 C447 1.350 . S
N445 S443 1.610 . S
N445 C446 1.351 . S
C446 C440 1.428 . S
C446 N445 1.351 . S
C446 C447 1.434 . S
C447 C438 1.429 . S
C447 N444 1.350 . S
C447 C446 1.434 . S
C448 C449 1.369 . S
C448 C450 1.419 . S
C448 H452 0.930 . S
C449 C448 1.369 . S
C449 C458 1.429 . S
C450 C448 1.419 . S
C450 C451 1.363 . S
C450 H453 0.929 . S
C451 C450 1.363 . S
C451 C457 1.428 . S
H452 C448 0.930 . S
H453 C450 0.929 . S
S454 N455 1.613 . S
S454 N456 1.610 . S
N455 S454 1.613 . S
N455 C458 1.350 . S
N456 S454 1.610 . S
N456 C457 1.351 . S
C457 C451 1.428 . S
C457 N456 1.351 . S
C457 C458 1.434 . S
C458 C449 1.429 . S
C458 N455 1.350 . S
C458 C457 1.434 . S
C459 C460 1.369 . S
C459 C461 1.419 . S
C459 H463 0.930 . S
C460 C459 1.369 . S
C460 C469 1.429 . S
C461 C459 1.419 . S
C461 C462 1.363 . S
C461 H464 0.929 . S
C462 C461 1.363 . S
C462 C468 1.428 . S
H463 C459 0.930 . S
H464 C461 0.929 . S
S465 N466 1.613 . S
S465 N467 1.610 . S
N466 S465 1.613 . S
N466 C469 1.350 . S
N467 S465 1.610 . S
N467 C468 1.351 . S
C468 C462 1.428 . S
C468 N467 1.351 . S
C468 C469 1.434 . S
C469 C460 1.429 . S
C469 N466 1.350 . S
C469 C468 1.434 . S
C470 C471 1.369 . S
C470 C472 1.419 . S
C470 H474 0.930 . S
C471 C470 1.369 . S
C471 C480 1.429 . S
C472 C470 1.419 . S
C472 C473 1.363 . S
C472 H475 0.929 . S
C473 C472 1.363 . S
C473 C479 1.428 . S
H474 C470 0.930 . S
H475 C472 0.929 . S
S476 N477 1.613 . S
S476 N478 1.610 . S
N477 S476 1.613 . S
N477 C480 1.350 . S
N478 S476 1.610 . S
N478 C479 1.351 . S
C479 C473 1.428 . S
C479 N478 1.351 . S
C479 C480 1.434 . S
C480 C471 1.429 . S
C480 N477 1.350 . S
C480 C479 1.434 . S
C481 C482 1.369 . S
C481 C483 1.419 . S
C481 H485 0.930 . S
C482 C481 1.369 . S
C482 C491 1.429 . S
C483 C481 1.419 . S
C483 C484 1.363 . S
C483 H486 0.929 . S
C484 C483 1.363 . S
C484 C490 1.428 . S
H485 C481 0.930 . S
H486 C483 0.929 . S
S487 N488 1.613 . S
S487 N489 1.610 . S
N488 S487 1.613 . S
N488 C491 1.350 . S
N489 S487 1.610 . S
N489 C490 1.351 . S
C490 C484 1.428 . S
C490 N489 1.351 . S
C490 C491 1.434 . S
C491 C482 1.429 . S
C491 N488 1.350 . S
C491 C490 1.434 . S
C492 C493 1.369 1_655 S
C492 C494 1.419 . S
C492 H496 0.930 . S
C493 C492 1.369 1_455 S
C493 C502 1.429 . S
C494 C492 1.419 . S
C494 C495 1.363 1_655 S
C494 H497 0.929 . S
C495 C494 1.363 1_455 S
C495 C501 1.428 . S
H496 C492 0.930 . S
H497 C494 0.929 . S
S498 N499 1.613 . S
S498 N500 1.610 . S
N499 S498 1.613 . S
N499 C502 1.350 . S
N500 S498 1.610 . S
N500 C501 1.351 . S
C501 C495 1.428 . S
C501 N500 1.351 . S
C501 C502 1.434 . S
C502 C493 1.429 . S
C502 N499 1.350 . S
C502 C501 1.434 . S
C503 C504 1.369 . S
C503 C505 1.419 . S
C503 H507 0.930 . S
C504 C503 1.369 . S
C504 C513 1.429 . S
C505 C503 1.419 . S
C505 C506 1.363 . S
C505 H508 0.929 . S
C506 C505 1.363 . S
C506 C512 1.428 . S
H507 C503 0.930 . S
H508 C505 0.929 . S
S509 N510 1.613 . S
S509 N511 1.610 . S
N510 S509 1.613 . S
N510 C513 1.350 . S
N511 S509 1.610 . S
N511 C512 1.351 . S
C512 C506 1.428 . S
C512 N511 1.351 . S
C512 C513 1.434 . S
C513 C504 1.429 . S
C513 N510 1.350 . S
C513 C512 1.434 . S
C514 C515 1.369 . S
C514 C516 1.419 . S
C514 H518 0.930 . S
C515 C514 1.369 . S
C515 C524 1.429 . S
C516 C514 1.419 . S
C516 C517 1.363 . S
C516 H519 0.929 . S
C517 C516 1.363 . S
C517 C523 1.428 . S
H518 C514 0.930 . S
H519 C516 0.929 . S
S520 N521 1.613 . S
S520 N522 1.610 . S
N521 S520 1.613 . S
N521 C524 1.350 . S
N522 S520 1.610 . S
N522 C523 1.351 . S
C523 C517 1.428 . S
C523 N522 1.351 . S
C523 C524 1.434 . S
C524 C515 1.429 . S
C524 N521 1.350 . S
C524 C523 1.434 . S
C525 C526 1.369 . S
C525 C527 1.419 . S
C525 H529 0.930 . S
C526 C525 1.369 . S
C526 C535 1.429 1_545 S
C527 C525 1.419 . S
C527 C528 1.363 . S
C527 H530 0.929 . S
C528 C527 1.363 . S
C528 C534 1.428 1_545 S
H529 C525 0.930 . S
H530 C527 0.929 . S
S531 N532 1.613 . S
S531 N533 1.610 . S
N532 S531 1.613 . S
N532 C535 1.350 . S
N533 S531 1.610 . S
N533 C534 1.351 . S
C534 C528 1.428 1_565 S
C534 N533 1.351 . S
C534 C535 1.434 . S
C535 C526 1.429 1_565 S
C535 N532 1.350 . S
C535 C534 1.434 . S
C536 C537 1.369 . S
C536 C538 1.419 . S
C536 H540 0.930 . S
C537 C536 1.369 . S
C537 C546 1.429 . S
C538 C536 1.419 . S
C538 C539 1.363 . S
C538 H541 0.929 . S
C539 C538 1.363 . S
C539 C545 1.428 . S
H540 C536 0.930 . S
H541 C538 0.929 . S
S542 N543 1.613 . S
S542 N544 1.610 . S
N543 S542 1.613 . S
N543 C546 1.350 . S
N544 S542 1.610 . S
N544 C545 1.351 . S
C545 C539 1.428 . S
C545 N544 1.351 . S
C545 C546 1.434 . S
C546 C537 1.429 . S
C546 N543 1.350 . S
C546 C545 1.434 . S
C547 C548 1.384 . S
C547 C549 1.419 . S
C547 H551 0.930 . S
C548 C547 1.384 . S
C548 C557 1.410 1_455 S
C549 C547 1.419 . S
C549 C550 1.363 1_455 S
C549 H552 0.929 . S
C550 C549 1.363 1_655 S
C550 C556 1.428 . S
H551 C547 0.930 . S
H552 C549 0.929 . S
S553 N554 1.613 . S
S553 N555 1.610 . S
N554 S553 1.613 . S
N554 C557 1.350 . S
N555 S553 1.610 . S
N555 C556 1.351 . S
C556 C550 1.428 . S
C556 N555 1.351 . S
C556 C557 1.434 . S
C557 C548 1.410 1_655 S
C557 N554 1.350 . S
C557 C556 1.434 . S
C361 C24 3.095 . S
C363 C335 3.028 . S
C372 C66 1.208 . S
C374 C242 1.254 . S
C383 C93 2.049 . S
C385 C282 1.966 . S
C394 C13 3.267 . S
C396 C322 3.193 . S
C407 C255 1.355 . S
C405 C57 1.366 . S
C418 C295 2.111 . S
C416 C104 2.190 . S
C427 C64 2.137 . S
C429 C162 2.071 . S
C438 C97 0.797 . S
C440 C202 0.777 . S
C449 C17 1.371 . S
C451 C135 1.392 . S
C462 C175 1.970 . S
C460 C53 2.086 . S
C473 C215 0.344 . S
C471 C106 0.527 . S
C482 C26 1.229 . S
C484 C122 1.286 . S
C495 C221 1.068 . S
C493 C2 1.100 . S
C504 C63 1.470 . S
C506 C141 1.502 . S
C515 C82 1.375 . S
C517 C181 1.364 . S
C528 C301 1.414 . S
C526 C42 1.400 . S
C539 C341 1.784 . S
C537 C103 1.754 . S
C548 C23 1.503 . S
C550 C261 1.523 . S
