# Generated by pormake.
# Topology ssa, (4,4)-cn, num edge types: 1
# Building blocks:
#     Node 0, Type 0, BuildingBlock: KOZSID_clean_sbu_0, # of connection points: 4
#     Node 1, Type 0, BuildingBlock: KOZSID_clean_sbu_0, # of connection points: 4
#     Node 2, Type 0, BuildingBlock: KOZSID_clean_sbu_0, # of connection points: 4
#     Node 3, Type 0, BuildingBlock: KOZSID_clean_sbu_0, # of connection points: 4
#     Node 4, Type 0, BuildingBlock: KOZSID_clean_sbu_0, # of connection points: 4
#     Node 5, Type 0, BuildingBlock: KOZSID_clean_sbu_0, # of connection points: 4
#     Node 6, Type 1, BuildingBlock: ESEHIV_clean_sbu_0, # of connection points: 4
#     Node 7, Type 1, BuildingBlock: ESEHIV_clean_sbu_0, # of connection points: 4
#     Node 8, Type 1, BuildingBlock: ESEHIV_clean_sbu_0, # of connection points: 4
#     Node 9, Type 1, BuildingBlock: ESEHIV_clean_sbu_0, # of connection points: 4
#     Node 10, Type 1, BuildingBlock: ESEHIV_clean_sbu_0, # of connection points: 4
#     Node 11, Type 1, BuildingBlock: ESEHIV_clean_sbu_0, # of connection points: 4
#     Edge 12, Type (0, 1), BuildingBlock: CIFDUS_clean_linker_0, # of connection points: 2
#     Edge 13, Type (0, 1), BuildingBlock: CIFDUS_clean_linker_0, # of connection points: 2
#     Edge 14, Type (0, 1), BuildingBlock: CIFDUS_clean_linker_0, # of connection points: 2
#     Edge 15, Type (0, 1), BuildingBlock: CIFDUS_clean_linker_0, # of connection points: 2
#     Edge 16, Type (0, 1), BuildingBlock: CIFDUS_clean_linker_0, # of connection points: 2
#     Edge 17, Type (0, 1), BuildingBlock: CIFDUS_clean_linker_0, # of connection points: 2
#     Edge 18, Type (0, 1), BuildingBlock: CIFDUS_clean_linker_0, # of connection points: 2
#     Edge 19, Type (0, 1), BuildingBlock: CIFDUS_clean_linker_0, # of connection points: 2
#     Edge 20, Type (0, 1), BuildingBlock: CIFDUS_clean_linker_0, # of connection points: 2
#     Edge 21, Type (0, 1), BuildingBlock: CIFDUS_clean_linker_0, # of connection points: 2
#     Edge 22, Type (0, 1), BuildingBlock: CIFDUS_clean_linker_0, # of connection points: 2
#     Edge 23, Type (0, 1), BuildingBlock: CIFDUS_clean_linker_0, # of connection points: 2
#     Edge 24, Type (0, 1), BuildingBlock: CIFDUS_clean_linker_0, # of connection points: 2
#     Edge 25, Type (0, 1), BuildingBlock: CIFDUS_clean_linker_0, # of connection points: 2
#     Edge 26, Type (0, 1), BuildingBlock: CIFDUS_clean_linker_0, # of connection points: 2
#     Edge 27, Type (0, 1), BuildingBlock: CIFDUS_clean_linker_0, # of connection points: 2
#     Edge 28, Type (0, 1), BuildingBlock: CIFDUS_clean_linker_0, # of connection points: 2
#     Edge 29, Type (0, 1), BuildingBlock: CIFDUS_clean_linker_0, # of connection points: 2
#     Edge 30, Type (0, 1), BuildingBlock: CIFDUS_clean_linker_0, # of connection points: 2
#     Edge 31, Type (0, 1), BuildingBlock: CIFDUS_clean_linker_0, # of connection points: 2
#     Edge 32, Type (0, 1), BuildingBlock: CIFDUS_clean_linker_0, # of connection points: 2
#     Edge 33, Type (0, 1), BuildingBlock: CIFDUS_clean_linker_0, # of connection points: 2
#     Edge 34, Type (0, 1), BuildingBlock: CIFDUS_clean_linker_0, # of connection points: 2
#     Edge 35, Type (0, 1), BuildingBlock: CIFDUS_clean_linker_0, # of connection points: 2
# Relax obj value: 0.023
# Max RMSD: 0.097
# Mean RMSD: 0.055
data_MOF--net-ssa--node1-KOZSID_clean_sbu_0--node2-ESEHIV_clean_sbu_0--edge1-CIFDUS_clean_linker_0
_symmetry_space_group_name_H-M    P1
_symmetry_Int_Tables_number       1
_symmetry_cell_setting            triclinic
loop_
_symmetry_equiv_pos_as_xyz
'x, y, z'
_cell_length_a     48.12475
_cell_length_b     49.397175
_cell_length_c     36.168988
_cell_angle_alpha  87.120303
_cell_angle_beta   89.934936
_cell_angle_gamma 122.69692
loop_
_atom_site_label
_atom_site_type_symbol
_atom_site_fract_x
_atom_site_fract_y
_atom_site_fract_z
_atom_type_partial_charge
C0 C 0.94663 0.50297 0.99939 0.0
C1 C 0.91573 0.49077 0.0159 0.0
C2 C 0.91656 0.47992 0.05109 0.0
C3 C 0.94771 0.4858 0.0542 0.0
N4 N 0.96715 0.50025 0.02331 0.0
Co5 Co 0.0132 0.50971 0.01554 0.0
N6 N 0.0135 0.49141 0.06653 0.0
C7 C 0.98844 0.47831 0.09221 0.0
C8 C 0.99541 0.46826 0.12488 0.0
C9 C 0.02708 0.47596 0.12019 0.0
C10 C 0.03795 0.49067 0.08487 0.0
N11 N 0.05901 0.51866 1.0075 0.0
C12 C 0.07956 0.51577 0.0312 0.0
C13 C 0.11013 0.52725 0.01412 0.0
C14 C 0.10891 0.53748 0.97878 0.0
C15 C 0.07793 0.53205 0.97608 0.0
N16 N 0.01321 0.52859 0.96487 0.0
C17 C 0.0386 0.54257 0.93961 0.0
C18 C 0.03192 0.5533 0.90724 0.0
C19 C 1.00012 0.54525 0.91175 0.0
C20 C 0.98895 0.52967 0.94664 0.0
N21 N 0.03259 0.55264 0.03623 0.0
C22 C 0.06581 0.61087 0.07223 0.0
C23 C 0.07749 0.60845 0.03799 0.0
C24 C 0.06056 0.57935 0.02054 0.0
C25 C 0.03604 0.58438 0.08686 0.0
C26 C 0.01981 0.55586 0.06837 0.0
N27 N 0.99355 0.4667 0.99487 0.0
C28 C 0.98407 0.43519 0.94173 0.0
C29 C 0.95573 0.40867 0.9591 0.0
C30 C 0.94856 0.4108 0.99585 0.0
C31 C 0.96779 0.43967 0.01314 0.0
C32 C 1.00268 0.46368 0.96015 0.0
H33 H 0.96051 0.43977 0.04085 0.0
H34 H 0.02356 0.48333 0.94522 0.0
H35 H 0.07119 0.57881 0.99501 0.0
H36 H 0.99745 0.53648 0.0812 0.0
C37 C 0.95885 0.47635 0.08493 0.0
C38 C 0.9547 0.51538 0.96039 0.0
C39 C 0.07191 0.50391 0.07048 0.0
C40 C 0.0674 0.54288 0.94608 0.0
H41 H 0.8944 0.48903 1.00358 0.0
H42 H 0.89645 0.46815 0.0716 0.0
H43 H 0.97948 0.45703 0.1494 0.0
H44 H 0.04071 0.4715 0.14071 0.0
H45 H 0.13165 0.52923 0.02615 0.0
H46 H 0.12884 0.54898 0.95805 0.0
H47 H 0.04794 0.56476 0.88282 0.0
H48 H 0.98644 0.54972 0.8913 0.0
H49 H 0.1004 0.62841 0.02543 0.0
H50 H 0.02556 0.58542 0.11288 0.0
H51 H 0.99099 0.43462 0.91342 0.0
H52 H 0.92759 0.3905 0.01098 0.0
C53 C 0.56572 0.0185 0.57423 0.0
C54 C 0.56763 1.00522 0.6081 0.0
C55 C 0.53674 0.97893 0.61661 0.0
C56 C 0.5179 0.97775 0.58756 0.0
N57 N 0.53508 1.00113 0.5605 0.0
Co58 Co 0.51705 0.01044 0.51503 0.0
N59 N 0.47072 0.9751 0.53017 0.0
C60 C 0.46072 0.95563 0.56147 0.0
C61 C 0.4277 0.93202 0.56281 0.0
C62 C 0.41607 0.93612 0.52998 0.0
C63 C 0.44278 0.96217 0.51052 0.0
N64 N 0.49906 0.01993 0.46978 0.0
C65 C 0.4683 1.00294 0.45631 0.0
C66 C 0.46628 0.01673 0.4229 0.0
C67 C 0.49724 0.04289 0.41432 0.0
C68 C 0.51622 0.04356 0.44296 0.0
N69 N 0.56336 0.04563 0.49981 0.0
C70 C 0.5735 0.06468 0.4682 0.0
C71 C 0.60663 0.0881 0.46677 0.0
C72 C 0.61812 0.08425 0.49985 0.0
C73 C 0.59122 0.05863 0.51952 0.0
N74 N 0.52174 0.97853 0.48699 0.0
C75 C 0.52675 0.93236 0.44736 0.0
C76 C 0.53376 0.96148 0.42996 0.0
C77 C 0.53151 0.98411 0.45011 0.0
C78 C 0.51683 0.92681 0.4849 0.0
C79 C 0.5141 0.94961 0.50374 0.0
N80 N 0.51248 0.04238 0.54306 0.0
C81 C 0.52157 0.09578 0.54731 0.0
C82 C 0.51097 0.08979 0.58482 0.0
C83 C 0.50063 0.05893 0.60043 0.0
C84 C 0.50118 0.03591 0.57934 0.0
C85 C 0.52238 0.07231 0.52743 0.0
H86 H 0.49275 0.01308 0.59326 0.0
H87 H 0.53144 0.0791 0.49938 0.0
H88 H 0.53803 0.00609 0.43525 0.0
H89 H 0.50576 0.94323 0.53201 0.0
C90 C 0.48352 0.95759 0.58683 0.0
C91 C 0.59262 0.04926 0.55793 0.0
C92 C 0.44133 0.97199 0.47224 0.0
C93 C 0.55068 0.06313 0.44315 0.0
H94 H 0.58879 0.01449 0.62554 0.0
H95 H 0.52858 0.96364 0.64191 0.0
H96 H 0.41409 0.91297 0.58418 0.0
H97 H 0.39111 0.9208 0.52081 0.0
H98 H 0.44497 0.00781 0.40574 0.0
H99 H 0.50533 0.05839 0.38918 0.0
H100 H 0.62035 0.10697 0.44525 0.0
H101 H 0.64307 0.0994 0.5092 0.0
H102 H 0.54206 0.96734 0.40115 0.0
H103 H 0.51113 0.90474 0.49986 0.0
H104 H 0.52917 0.11853 0.53277 0.0
H105 H 0.49254 0.05233 0.62921 0.0
C106 C 0.56988 0.56415 0.95765 0.0
C107 C 0.57529 0.58272 0.92508 0.0
C108 C 0.5449 0.57316 0.91185 0.0
C109 C 0.5227 0.54967 0.93719 0.0
N110 N 0.53713 0.54439 0.9662 0.0
Co111 Co 0.5137 0.51269 0.00903 0.0
N112 N 0.4705 0.50551 0.9947 0.0
C113 C 0.46308 0.51326 0.96164 0.0
C114 C 0.43126 0.50615 0.96085 0.0
C115 C 0.41799 0.4934 0.99574 0.0
C116 C 0.44262 0.4936 0.01577 0.0
N117 N 0.48985 0.48086 0.05149 0.0
C118 C 0.46025 0.47116 0.06769 0.0
C119 C 0.45331 0.45014 0.09828 0.0
C120 C 0.47964 0.44662 0.10117 0.0
C121 C 0.50113 0.46576 0.07241 0.0
N122 N 0.55708 0.5199 0.0236 0.0
C123 C 0.56125 0.50143 0.04883 0.0
C124 C 0.59356 0.51077 0.05211 0.0
C125 C 0.61092 0.5362 0.0267 0.0
C126 C 0.58812 0.54104 0.00917 0.0
N127 N 0.52066 0.54787 0.04041 0.0
C128 C 0.52374 0.5942 0.08761 0.0
C129 C 0.53036 0.57087 0.10054 0.0
C130 C 0.529 0.54842 0.07671 0.0
C131 C 0.5163 0.59384 0.04985 0.0
C132 C 0.51472 0.57069 0.0271 0.0
N133 N 0.50611 0.47708 0.97788 0.0
C134 C 0.52594 0.45559 0.93304 0.0
C135 C 0.49459 0.42718 0.93124 0.0
C136 C 0.46942 0.42418 0.95461 0.0
C137 C 0.47559 0.44913 0.97738 0.0
C138 C 0.53108 0.47982 0.95639 0.0
H139 H 0.45546 0.44576 0.99454 0.0
H140 H 0.5554 0.50083 0.95674 0.0
H141 H 0.53396 0.53093 0.08814 0.0
H142 H 0.50808 0.57103 0.99873 0.0
C143 C 0.48832 0.53358 0.93573 0.0
C144 C 0.59598 0.56134 0.97465 0.0
C145 C 0.43877 0.48186 0.05447 0.0
C146 C 0.53441 0.47606 0.06958 0.0
H147 H 0.59881 0.59991 0.91119 0.0
H148 H 0.53965 0.58201 0.88656 0.0
H149 H 0.41978 0.51154 0.93844 0.0
H150 H 0.39332 0.48546 1.00558 0.0
H151 H 0.43203 0.43918 0.11712 0.0
H152 H 0.48364 0.43354 0.12318 0.0
H153 H 0.6033 0.49995 0.07025 0.0
H154 H 0.63714 0.54857 0.02063 0.0
H155 H 0.53585 0.56921 0.12924 0.0
H156 H 0.51173 0.61142 0.03748 0.0
H157 H 0.54644 0.45966 0.91586 0.0
H158 H 0.44484 0.4026 0.95554 0.0
C159 C 0.94663 0.45207 0.54384 0.0
C160 C 0.91467 0.43559 0.5311 0.0
C161 C 0.91592 0.44952 0.49706 0.0
C162 C 0.94835 0.47389 0.49094 0.0
N163 N 0.96815 0.47614 0.51865 0.0
Co164 Co 0.01591 0.51188 0.52233 0.0
N165 N 0.01776 0.53203 0.47181 0.0
C166 C 0.99256 0.52078 0.4483 0.0
C167 C 1.00094 0.53793 0.41476 0.0
C168 C 0.03363 0.56149 0.41677 0.0
C169 C 0.04336 0.55761 0.45172 0.0
N170 N 0.06307 0.54858 0.52691 0.0
C171 C 0.08421 0.57369 0.50262 0.0
C172 C 0.11438 0.59399 0.51834 0.0
C173 C 0.11242 0.58126 0.55341 0.0
C174 C 0.0812 0.55406 0.55733 0.0
N175 N 0.01492 0.49039 0.57152 0.0
C176 C 0.0407 0.50076 0.5941 0.0
C177 C 0.03363 0.48109 0.62546 0.0
C178 C 1.00121 0.45689 0.62307 0.0
C179 C 0.99003 0.46345 0.59056 0.0
N180 N 0.03088 0.48649 0.49847 0.0
C181 C 0.05698 0.457 0.45903 0.0
C182 C 0.07209 0.47339 0.49063 0.0
C183 C 0.05878 0.48789 0.50974 0.0
C184 C 0.0276 0.45418 0.44861 0.0
C185 C 0.01484 0.46869 0.46887 0.0
N186 N 1.00062 0.53736 0.54638 0.0
C187 C 0.98536 0.5519 0.60237 0.0
C188 C 0.96839 0.56318 0.58232 0.0
C189 C 0.97027 0.56368 0.54363 0.0
C190 C 0.98613 0.55063 0.52642 0.0
C191 C 1.00176 0.53997 0.58404 0.0
H192 H 0.98564 0.55116 0.49693 0.0
H193 H 0.01441 0.53227 0.60139 0.0
H194 H 0.07205 0.50096 0.53291 0.0
H195 H 0.99244 0.46595 0.4596 0.0
C196 C 0.96107 0.49484 0.45933 0.0
C197 C 0.955 0.44479 0.58065 0.0
C198 C 0.07701 0.57943 0.46456 0.0
C199 C 0.06981 0.53095 0.58699 0.0
H200 H 0.89249 0.41597 0.54512 0.0
H201 H 0.89548 0.44298 0.47914 0.0
H202 H 0.98514 0.53386 0.39163 0.0
H203 H 0.0486 0.57964 0.39503 0.0
H204 H 0.13578 0.61551 0.50555 0.0
H205 H 0.13187 0.59017 0.57322 0.0
H206 H 0.04974 0.48458 0.64809 0.0
H207 H 0.98708 0.43727 0.64366 0.0
H208 H 0.09498 0.47632 0.49965 0.0
H209 H 0.01479 0.44124 0.4246 0.0
H210 H 0.98517 0.55098 0.63233 0.0
H211 H 0.95902 0.57351 0.52641 0.0
C212 C 0.47893 0.98759 0.09224 0.0
C213 C 0.48053 0.99764 0.12777 0.0
C214 C 0.50769 0.02826 0.12802 0.0
C215 C 0.52127 0.03527 0.09281 0.0
N216 N 0.50445 0.01101 0.06994 0.0
Co217 Co 0.51687 0.01159 0.01655 0.0
N218 N 0.5578 0.05629 0.01744 0.0
C219 C 0.56907 0.0742 0.04739 0.0
C220 C 0.59777 0.10362 0.04045 0.0
C221 C 0.60527 0.10482 1.00377 0.0
C222 C 0.58044 0.07607 0.99011 0.0
N223 N 0.5289 0.01255 0.96284 0.0
C224 C 0.55356 0.03661 0.94009 0.0
C225 C 0.55076 0.02723 0.90403 0.0
C226 C 0.52384 0.99643 0.90392 0.0
C227 C 0.51141 0.98869 0.93966 0.0
N228 N 0.47633 0.96654 0.01596 0.0
C229 C 0.46624 0.94776 0.98671 0.0
C230 C 0.43844 0.91772 0.99426 0.0
C231 C 0.43034 0.91705 0.03064 0.0
C232 C 0.45374 0.94683 0.04339 0.0
N233 N 0.49076 0.03019 1.00104 0.0
C234 C 0.46022 0.06131 0.97169 0.0
C235 C 0.45279 0.03199 0.95887 0.0
C236 C 0.46807 0.0169 0.97394 0.0
C237 C 0.4815 0.07366 1.00122 0.0
C238 C 0.49622 0.05772 0.01552 0.0
N239 N 0.54273 0.99269 0.03213 0.0
C240 C 0.55115 0.94887 0.02912 0.0
C241 C 0.56576 0.95546 0.06356 0.0
C242 C 0.57188 0.98305 0.08006 0.0
C243 C 0.56045 1.00137 0.0638 0.0
C244 C 0.54028 0.96791 0.0138 0.0
H245 H 0.56496 0.02155 0.07823 0.0
H246 H 0.52875 0.96123 0.98788 0.0
H247 H 0.46186 0.99502 0.96236 0.0
H248 H 0.5126 0.06855 0.03762 0.0
C249 C 0.55098 0.06351 0.08105 0.0
C250 C 0.453 0.95523 0.08166 0.0
C251 C 0.57957 0.06896 0.95091 0.0
C252 C 0.48311 0.95937 0.95229 0.0
H253 H 0.46405 0.98401 0.15132 0.0
H254 H 0.5169 0.04335 0.15135 0.0
H255 H 0.61134 0.12224 0.05966 0.0
H256 H 0.62654 0.12481 0.98876 0.0
H257 H 0.56621 0.04131 0.88003 0.0
H258 H 0.51414 0.98163 0.88039 0.0
H259 H 0.42555 0.89857 0.9755 0.0
H260 H 0.40952 0.89691 0.04606 0.0
H261 H 0.43649 0.0214 0.93603 0.0
H262 H 0.48739 0.09593 0.01272 0.0
H263 H 0.54696 0.92834 0.01468 0.0
H264 H 0.58361 0.98943 0.10653 0.0
C265 C 0.53686 0.58183 0.51155 0.0
C266 C 0.53239 0.60456 0.52665 0.0
C267 C 0.5108 0.58928 0.55622 0.0
C268 C 0.5032 0.55822 0.55729 0.0
N269 N 0.51942 0.55294 0.53095 0.0
Co270 Co 0.51259 0.51048 0.51938 0.0
N271 N 0.47711 0.48696 0.55898 0.0
C272 C 0.46621 0.49987 0.58255 0.0
C273 C 0.44348 0.47797 0.60875 0.0
C274 C 0.44039 0.44951 0.60216 0.0
C275 C 0.4615 0.45583 0.57224 0.0
N276 N 0.50475 0.46791 0.50654 0.0
C277 C 0.48543 0.43835 0.52403 0.0
C278 C 0.48813 0.41529 0.50692 0.0
C279 C 0.51058 0.43104 0.47815 0.0
C280 C 0.52025 0.46266 0.4793 0.0
N281 N 0.54882 0.5341 0.4807 0.0
C282 C 0.56226 0.52175 0.45999 0.0
C283 C 0.58615 0.54394 0.43488 0.0
C284 C 0.58749 0.57192 0.43938 0.0
C285 C 0.56418 0.56504 0.46697 0.0
N286 N 0.5461 0.51533 0.55701 0.0
C287 C 0.59003 0.51878 0.61357 0.0
C288 C 0.58503 0.50193 0.58149 0.0
C289 C 0.56365 0.50084 0.55385 0.0
C290 C 0.57309 0.5347 0.61555 0.0
C291 C 0.55138 0.53232 0.58792 0.0
N292 N 0.47923 0.50563 0.48197 0.0
C293 C 0.45905 0.49587 0.41921 0.0
C294 C 0.43324 0.50019 0.42775 0.0
C295 C 0.43144 0.50786 0.46414 0.0
C296 C 0.45423 0.5102 0.49056 0.0
C297 C 0.48145 0.49876 0.44619 0.0
H298 H 0.45107 0.51562 0.51789 0.0
H299 H 0.50052 0.49535 0.43745 0.0
H300 H 0.56154 0.4877 0.53031 0.0
H301 H 0.53898 0.54441 0.59254 0.0
C302 C 0.47917 0.5329 0.58069 0.0
C303 C 0.5554 0.58771 0.47699 0.0
C304 C 0.46793 0.43217 0.55943 0.0
C305 C 0.54756 0.48848 0.45972 0.0
H306 H 0.54258 0.62924 0.51658 0.0
H307 H 0.50062 0.59923 0.57371 0.0
H308 H 0.43155 0.48243 0.63088 0.0
H309 H 0.4253 0.42691 0.61829 0.0
H310 H 0.47658 0.39009 0.5155 0.0
H311 H 0.52037 0.42103 0.4602 0.0
H312 H 0.59933 0.53973 0.41402 0.0
H313 H 0.60267 0.59441 0.42309 0.0
H314 H 0.59704 0.48899 0.57766 0.0
H315 H 0.57638 0.54935 0.6384 0.0
H316 H 0.46208 0.49023 0.39153 0.0
H317 H 0.4119 0.51114 0.47261 0.0
Cu318 Cu 0.24203 0.47531 0.24144 0.0
N319 N 0.25042 0.45116 0.21034 0.0
N320 N 0.27869 0.4388 0.17303 0.0
C321 C 0.27966 0.46164 0.19314 0.0
C322 C 0.24738 0.41296 0.17785 0.0
C323 C 0.23007 0.42063 0.20088 0.0
O324 O 0.28212 0.49817 0.27316 0.0
C325 C 0.19786 0.47847 0.19278 0.0
O326 O 0.18364 0.44733 0.19993 0.0
H327 H 0.30137 0.48539 0.19621 0.0
H328 H 0.20451 0.40501 0.2102 0.0
N329 N 0.20662 0.44852 0.27449 0.0
N330 N 0.16366 0.43379 0.31272 0.0
C331 C 0.1859 0.45635 0.28768 0.0
C332 C 0.1972 0.41989 0.29174 0.0
C333 C 0.17072 0.4108 0.31561 0.0
C334 C 0.29171 0.48033 0.28796 0.0
O335 O 0.27498 0.44975 0.28079 0.0
H336 H 0.18781 0.47877 0.27988 0.0
H337 H 0.20901 0.40679 0.28772 0.0
O338 O 0.22547 0.49752 0.20822 0.0
H339 H 0.23744 0.39012 0.16549 0.0
H340 H 0.15778 0.38912 0.33372 0.0
Cu341 Cu 0.77874 0.23344 0.75407 0.0
N342 N 0.77169 0.20318 0.71996 0.0
N343 N 0.74578 0.16516 0.67915 0.0
C344 C 0.74227 0.17989 0.70765 0.0
C345 C 0.77868 0.17988 0.67326 0.0
C346 C 0.79454 0.20352 0.69812 0.0
O347 O 0.73768 0.21053 0.78772 0.0
C348 C 0.81845 0.30192 0.72394 0.0
O349 O 0.83048 0.31002 0.75693 0.0
H350 H 0.71881 0.17461 0.71864 0.0
H351 H 0.82085 0.2209 0.69883 0.0
N352 N 0.81445 0.2421 0.78365 0.0
N353 N 0.85493 0.26666 0.82391 0.0
C354 C 0.82693 0.26305 0.81064 0.0
C355 C 0.83453 0.2311 0.78079 0.0
C356 C 0.85958 0.24632 0.80536 0.0
C357 C 0.73322 0.18469 0.80429 0.0
O358 O 0.75587 0.17818 0.79811 0.0
H359 H 0.81659 0.27665 0.81897 0.0
H360 H 0.83169 0.21371 0.7617 0.0
O361 O 0.79399 0.27293 0.71988 0.0
H362 H 0.79045 0.17517 0.65121 0.0
H363 H 0.87997 0.24308 0.80874 0.0
Cu364 Cu 0.56318 0.77766 0.27415 0.0
N365 N 0.59204 0.81202 0.24113 0.0
N366 N 0.60865 0.8526 0.19864 0.0
C367 C 0.58308 0.82886 0.21965 0.0
C368 C 0.63485 0.85074 0.20717 0.0
C369 C 0.62445 0.82543 0.23324 0.0
O370 O 0.53793 0.79339 0.30061 0.0
C371 C 0.56134 0.73096 0.23121 0.0
O372 O 0.59281 0.74998 0.23807 0.0
H373 H 0.55828 0.824 0.21983 0.0
H374 H 0.63944 0.81727 0.2452 0.0
N375 N 0.58692 0.77031 0.30996 0.0
N376 N 0.59848 0.74418 0.3533 0.0
C377 C 0.57573 0.74234 0.32987 0.0
C378 C 0.61785 0.79059 0.32114 0.0
C379 C 0.62501 0.77458 0.34785 0.0
C380 C 0.5545 0.81655 0.32229 0.0
O381 O 0.58588 0.82739 0.32614 0.0
H382 H 0.55118 0.7212 0.32742 0.0
H383 H 0.63403 0.81539 0.31092 0.0
O384 O 0.54133 0.7381 0.24433 0.0
H385 H 0.65951 0.86615 0.19497 0.0
H386 H 0.64813 0.78453 0.36186 0.0
Cu387 Cu 0.78818 0.55465 0.79502 0.0
N388 N 0.82142 0.58146 0.75944 0.0
N389 N 0.86293 0.59825 0.7181 0.0
C390 C 0.84858 0.58138 0.75046 0.0
C391 C 0.84444 0.60974 0.70641 0.0
C392 C 0.81902 0.59955 0.73209 0.0
O393 O 0.80628 0.53575 0.83089 0.0
C394 C 0.73085 0.54182 0.75493 0.0
O395 O 0.74026 0.57025 0.76638 0.0
H396 H 0.85629 0.56728 0.76562 0.0
H397 H 0.79887 0.6032 0.72963 0.0
N398 N 0.78113 0.58033 0.82506 0.0
N399 N 0.75653 0.59474 0.865 0.0
C400 C 0.75368 0.57065 0.84576 0.0
C401 C 0.80231 0.6115 0.8318 0.0
C402 C 0.78719 0.62047 0.85648 0.0
C403 C 0.82146 0.52116 0.82691 0.0
O404 O 0.82179 0.51046 0.79449 0.0
H405 H 0.73204 0.54635 0.84666 0.0
H406 H 0.82698 0.62661 0.81959 0.0
O407 O 0.74703 0.52888 0.76537 0.0
H408 H 0.84799 0.62297 0.68019 0.0
H409 H 0.79768 0.64419 0.86676 0.0
Cu410 Cu 0.25529 0.78396 0.27967 0.0
N411 N 0.22117 0.77448 0.24753 0.0
N412 N 0.17946 0.74492 0.21051 0.0
C413 C 0.20034 0.74499 0.23537 0.0
C414 C 0.18747 0.77566 0.20672 0.0
C415 C 0.21317 0.79387 0.22977 0.0
O416 O 0.23693 0.74326 0.31256 0.0
C417 C 0.30619 0.83076 0.23024 0.0
O418 O 0.28927 0.84382 0.23716 0.0
H419 H 0.20126 0.72415 0.24375 0.0
H420 H 0.22541 0.81947 0.23283 0.0
N421 N 0.26279 0.81626 0.3108 0.0
N422 N 0.28818 0.85459 0.35137 0.0
C423 C 0.28919 0.83234 0.33213 0.0
C424 C 0.2443 0.82862 0.31667 0.0
C425 C 0.25987 0.85224 0.34167 0.0
C426 C 0.21005 0.73446 0.33094 0.0
O427 O 0.19832 0.75301 0.32702 0.0
H428 H 0.30856 0.82748 0.33364 0.0
H429 H 0.22118 0.82105 0.30367 0.0
O430 O 0.29649 0.80322 0.24693 0.0
H431 H 0.17568 0.78434 0.18858 0.0
H432 H 0.25118 0.86684 0.35141 0.0
Cu433 Cu 0.47175 0.24452 0.75255 0.0
N434 N 0.44529 0.24993 0.71902 0.0
N435 N 0.4309 0.27527 0.6779 0.0
C436 C 0.45493 0.27773 0.69955 0.0
C437 C 0.40513 0.24451 0.68392 0.0
C438 C 0.41406 0.22896 0.70929 0.0
O439 O 0.4956 0.2853 0.77981 0.0
C440 C 0.47376 0.19796 0.71359 0.0
O441 O 0.44211 0.18515 0.72047 0.0
H442 H 0.47934 0.29925 0.70115 0.0
H443 H 0.39878 0.20414 0.71986 0.0
N444 N 0.44674 0.213 0.7901 0.0
N445 N 0.43806 0.18035 0.83973 0.0
C446 C 0.46041 0.2026 0.81456 0.0
C447 C 0.41444 0.19687 0.8001 0.0
C448 C 0.40894 0.17641 0.83069 0.0
C449 C 0.47628 0.29243 0.79503 0.0
O450 O 0.44443 0.27323 0.7902 0.0
H451 H 0.48637 0.21103 0.81351 0.0
H452 H 0.39626 0.19998 0.78657 0.0
O453 O 0.49401 0.22636 0.72474 0.0
H454 H 0.38132 0.23403 0.67138 0.0
H455 H 0.38556 0.16033 0.84542 0.0
H456 H 0.10906 0.47684 0.06296 0.0
H457 H 0.09385 0.53446 0.13556 0.0
H458 H 0.13361 0.53504 0.17849 0.0
H459 H 0.17091 0.51616 0.19764 0.0
H460 H 0.18697 0.46038 0.12283 0.0
H461 H 0.15014 0.46306 0.07863 0.0
C462 C 0.11484 0.49004 0.08783 0.0
C463 C 0.09813 0.50554 0.09575 0.0
C464 C 0.13847 0.4909 0.11215 0.0
C465 C 0.10594 0.52209 0.12861 0.0
C466 C 0.1289 0.52255 0.15322 0.0
C467 C 0.16727 0.50561 0.17111 0.0
C468 C 0.18258 0.48867 0.16344 0.0
C469 C 0.14526 0.50681 0.14556 0.0
C470 C 0.17628 0.47414 0.12933 0.0
C471 C 0.1548 0.47533 0.10408 0.0
H472 H 0.65133 0.05663 0.57393 0.0
H473 H 0.59084 0.09427 0.59547 0.0
H474 H 0.63258 0.13323 0.63619 0.0
H475 H 0.68667 0.15693 0.66484 0.0
H476 H 0.74741 0.11942 0.64307 0.0
H477 H 0.70544 0.08016 0.60322 0.0
C478 C 0.64754 0.07348 0.58761 0.0
C479 C 0.61841 0.07293 0.58193 0.0
C480 C 0.67163 0.09573 0.61087 0.0
C481 C 0.61332 0.09459 0.59961 0.0
C482 C 0.63709 0.11673 0.62285 0.0
C483 C 0.69055 0.13992 0.65177 0.0
C484 C 0.72018 0.14112 0.65701 0.0
C485 C 0.66636 0.11753 0.6287 0.0
C486 C 0.725 0.11922 0.63925 0.0
C487 C 0.70097 0.0967 0.61653 0.0
H488 H 0.5595 0.61901 0.15109 0.0
H489 H 0.48924 0.62483 0.08263 0.0
H490 H 0.49225 0.66533 0.1212 0.0
H491 H 0.51683 0.7018 0.17393 0.0
H492 H 0.58513 0.69317 0.24266 0.0
H493 H 0.57973 0.65089 0.20567 0.0
C494 C 0.54423 0.62845 0.14461 0.0
C495 C 0.5245 0.61846 0.11296 0.0
C496 C 0.54546 0.65156 0.16758 0.0
C497 C 0.50554 0.63212 0.10572 0.0
C498 C 0.50692 0.65531 0.12824 0.0
C499 C 0.52987 0.69012 0.18132 0.0
C500 C 0.55134 0.70091 0.21149 0.0
C501 C 0.52704 0.66558 0.15921 0.0
C502 C 0.56844 0.68562 0.21984 0.0
C503 C 0.56551 0.66139 0.19847 0.0
H504 H 0.97732 0.58948 0.65013 0.0
H505 H 0.91126 0.55734 0.55846 0.0
H506 H 0.87511 0.56902 0.59086 0.0
H507 H 0.85941 0.58406 0.64719 0.0
H508 H 0.92093 0.60916 0.74186 0.0
H509 H 0.96119 0.60365 0.70682 0.0
C510 C 0.95491 0.58463 0.63718 0.0
C511 C 0.94745 0.57252 0.60155 0.0
C512 C 0.93313 0.5899 0.65676 0.0
C513 C 0.91846 0.56733 0.58531 0.0
C514 C 0.89736 0.57363 0.60405 0.0
C515 C 0.88194 0.5888 0.65981 0.0
C516 C 0.88759 0.59736 0.69676 0.0
C517 C 0.90418 0.58444 0.63996 0.0
C518 C 0.91634 0.60268 0.71333 0.0
C519 C 0.93922 0.59949 0.69333 0.0
H520 H 0.43413 0.89674 0.1195 0.0
H521 H 0.40544 0.96525 0.10285 0.0
H522 H 0.35849 0.93315 0.14642 0.0
H523 H 0.32587 0.88654 0.18977 0.0
H524 H 0.35254 0.81658 0.20816 0.0
H525 H 0.39964 0.84804 0.16368 0.0
C526 C 0.41743 0.90445 0.12534 0.0
C527 C 0.42345 0.93359 0.10773 0.0
C528 C 0.39012 0.88562 0.1509 0.0
C529 C 0.40155 0.94316 0.11583 0.0
C530 C 0.37465 0.92475 0.14085 0.0
C531 C 0.34182 0.87787 0.1843 0.0
C532 C 0.33528 0.8489 0.20284 0.0
C533 C 0.36875 0.89607 0.15869 0.0
C534 C 0.35662 0.83857 0.19468 0.0
C535 C 0.38367 0.85668 0.16911 0.0
H536 H 0.42392 0.36753 0.55692 0.0
H537 H 0.50247 0.43909 0.62092 0.0
H538 H 0.49736 0.39679 0.66429 0.0
H539 H 0.47126 0.33961 0.6831 0.0
H540 H 0.39422 0.26756 0.61763 0.0
H541 H 0.39774 0.30979 0.57595 0.0
C542 C 0.43984 0.37364 0.58041 0.0
C543 C 0.46363 0.40611 0.58585 0.0
C544 C 0.43701 0.34918 0.60488 0.0
C545 C 0.48402 0.4141 0.6164 0.0
C546 C 0.48115 0.38998 0.64105 0.0
C547 C 0.45544 0.33301 0.65955 0.0
C548 C 0.43261 0.30029 0.65357 0.0
C549 C 0.45791 0.35742 0.63539 0.0
C550 C 0.41181 0.29244 0.62325 0.0
C551 C 0.41393 0.31661 0.59921 0.0
H552 H 0.50181 0.90178 0.38136 0.0
H553 H 0.56535 0.91075 0.47031 0.0
H554 H 0.57757 0.87478 0.44092 0.0
H555 H 0.57233 0.84224 0.38916 0.0
H556 H 0.50713 0.82966 0.30088 0.0
H557 H 0.49305 0.8647 0.33078 0.0
C558 C 0.51829 0.89579 0.39427 0.0
C559 C 0.5328 0.90937 0.42818 0.0
C560 C 0.52476 0.87412 0.37738 0.0
C561 C 0.55376 0.90084 0.44451 0.0
C562 C 0.56081 0.88019 0.42762 0.0
C563 C 0.55464 0.84674 0.37656 0.0
C564 C 0.54082 0.83306 0.34263 0.0
C565 C 0.54666 0.86681 0.39402 0.0
C566 C 0.51791 0.83933 0.32706 0.0
C567 C 0.51013 0.85973 0.34408 0.0
H568 H 0.66317 0.60095 0.98209 0.0
H569 H 0.58998 0.53332 0.90967 0.0
H570 H 0.63292 0.53744 0.87001 0.0
H571 H 0.69113 0.55925 0.85592 0.0
H572 H 0.76557 0.6277 0.92634 0.0
H573 H 0.72263 0.62453 0.96641 0.0
C574 C 0.65678 0.58713 0.95767 0.0
C575 C 0.62332 0.56622 0.94954 0.0
C576 C 0.68186 0.58976 0.93451 0.0
C577 C 0.61538 0.54895 0.9173 0.0
C578 C 0.63998 0.5514 0.89436 0.0
C579 C 0.69795 0.57326 0.88021 0.0
C580 C 0.73144 0.59339 0.88835 0.0
C581 C 0.67324 0.57141 0.90289 0.0
C582 C 0.73993 0.61207 0.91942 0.0
C583 C 0.71538 0.61017 0.94239 0.0
H584 H 0.13539 0.59803 0.4255 0.0
H585 H 0.07182 0.63108 0.45298 0.0
H586 H 0.10729 0.68117 0.41542 0.0
H587 H 0.15524 0.71528 0.37385 0.0
H588 H 0.22 0.68403 0.34435 0.0
H589 H 0.18557 0.63397 0.38342 0.0
C590 C 0.1295 0.61634 0.42334 0.0
C591 C 0.10074 0.61064 0.44219 0.0
C592 C 0.15025 0.64546 0.40119 0.0
C593 C 0.09356 0.63468 0.43892 0.0
C594 C 0.1139 0.66338 0.41734 0.0
C595 C 0.16216 0.69771 0.37579 0.0
C596 C 0.19055 0.70387 0.35572 0.0
C597 C 0.14216 0.669 0.39818 0.0
C598 C 0.19858 0.68036 0.35922 0.0
C599 C 0.17873 0.65158 0.38163 0.0
H600 H 0.49527 0.12553 0.95397 0.0
H601 H 0.39879 0.03927 0.94429 0.0
H602 H 0.38229 0.06934 0.90438 0.0
H603 H 0.39718 0.11928 0.86785 0.0
H604 H 0.49394 0.20494 0.87789 0.0
H605 H 0.50827 0.17608 0.92245 0.0
C606 C 0.47034 0.11342 0.94393 0.0
C607 C 0.44837 0.08017 0.952 0.0
C608 C 0.46117 0.13072 0.92074 0.0
C609 C 0.41635 0.06478 0.93811 0.0
C610 C 0.40687 0.08197 0.91534 0.0
C611 C 0.42113 0.1317 0.88035 0.0
C612 C 0.44462 0.16405 0.8692 0.0
C613 C 0.42935 0.11481 0.90577 0.0
C614 C 0.47569 0.17985 0.88543 0.0
C615 C 0.48386 0.16341 0.91103 0.0
H616 H 0.40372 0.53496 0.41024 0.0
H617 H 0.4037 0.45121 0.38128 0.0
H618 H 0.36226 0.43941 0.33551 0.0
H619 H 0.32488 0.45127 0.30414 0.0
H620 H 0.32343 0.53469 0.33012 0.0
H621 H 0.36645 0.54826 0.37581 0.0
C622 C 0.39462 0.51411 0.39394 0.0
C623 C 0.40738 0.49413 0.39955 0.0
C624 C 0.37044 0.50739 0.36682 0.0
C625 C 0.39511 0.46739 0.37766 0.0
C626 C 0.37112 0.46047 0.35139 0.0
C627 C 0.33391 0.47261 0.31958 0.0
C628 C 0.32046 0.49179 0.31343 0.0
C629 C 0.35854 0.48015 0.34573 0.0
C630 C 0.33314 0.51945 0.3338 0.0
C631 C 0.3577 0.52708 0.36022 0.0
H632 H 0.97059 0.37725 0.91041 0.0
H633 H 0.88851 0.3758 0.96103 0.0
H634 H 0.84991 0.3305 0.92525 0.0
H635 H 0.83941 0.29267 0.87766 0.0
H636 H 0.92136 0.29487 0.82562 0.0
H637 H 0.95984 0.33809 0.86401 0.0
C638 C 0.94426 0.36701 0.91358 0.0
C639 C 0.93254 0.37993 0.93846 0.0
C640 C 0.92209 0.34101 0.89266 0.0
C641 C 0.89826 0.36609 0.94252 0.0
C642 C 0.87612 0.34029 0.92186 0.0
C643 C 0.86568 0.30262 0.87467 0.0
C644 C 0.87735 0.29051 0.84863 0.0
C645 C 0.88776 0.32776 0.89658 0.0
C646 C 0.91151 0.30337 0.84566 0.0
C647 C 0.93363 0.32833 0.86743 0.0
H648 H 0.91554 0.54104 0.96214 0.0
H649 H 0.93477 0.48124 0.89829 0.0
H650 H 0.89523 0.47676 0.85252 0.0
H651 H 0.85619 0.49118 0.82905 0.0
H652 H 0.83551 0.54973 0.89368 0.0
H653 H 0.8737 0.55281 0.94037 0.0
C654 C 0.91075 0.52669 0.93845 0.0
C655 C 0.92835 0.51147 0.93389 0.0
C656 C 0.8875 0.52394 0.91212 0.0
C657 C 0.92184 0.49327 0.90264 0.0
C658 C 0.89912 0.49069 0.87638 0.0
C659 C 0.85969 0.50439 0.85348 0.0
C660 C 0.84258 0.52019 0.85737 0.0
C661 C 0.88192 0.5061 0.88056 0.0
C662 C 0.8479 0.53715 0.88955 0.0
C663 C 0.87 0.53907 0.91639 0.0
H664 H 0.37622 0.9514 0.47091 0.0
H665 H 0.45009 0.94126 0.4181 0.0
H666 H 0.40923 0.90391 0.37561 0.0
H667 H 0.3528 0.87487 0.35313 0.0
H668 H 0.27825 0.8838 0.40692 0.0
H669 H 0.319 0.92103 0.44909 0.0
C670 C 0.3831 0.94071 0.45022 0.0
C671 C 0.41583 0.94866 0.4476 0.0
C672 C 0.35945 0.91925 0.42598 0.0
C673 C 0.42487 0.9352 0.42052 0.0
C674 C 0.40157 0.91393 0.3963 0.0
C675 C 0.34525 0.88457 0.3743 0.0
C676 C 0.31232 0.87638 0.37663 0.0
C677 C 0.36878 0.90579 0.39875 0.0
C678 C 0.3034 0.88987 0.40398 0.0
C679 C 0.32668 0.91108 0.42835 0.0
H680 H 0.53602 0.40792 0.90514 0.0
H681 H 0.43746 0.38861 0.89488 0.0
H682 H 0.42436 0.34695 0.8527 0.0
H683 H 0.43958 0.31522 0.81876 0.0
H684 H 0.53766 0.33347 0.82579 0.0
H685 H 0.55222 0.37652 0.86812 0.0
C686 C 0.51171 0.39484 0.89357 0.0
C687 C 0.48767 0.4016 0.90438 0.0
C688 C 0.50418 0.37064 0.86832 0.0
C689 C 0.45637 0.38385 0.88861 0.0
C690 C 0.44884 0.36001 0.86392 0.0
C691 C 0.46431 0.32852 0.82932 0.0
C692 C 0.48739 0.32066 0.81884 0.0
C693 C 0.47238 0.35305 0.85372 0.0
C694 C 0.51929 0.33874 0.833 0.0
C695 C 0.52756 0.36336 0.85744 0.0
H696 H 0.06717 0.46577 0.3846 0.0
H697 H 0.08426 0.42286 0.48147 0.0
H698 H 0.11687 0.40928 0.4438 0.0
H699 H 0.14416 0.41358 0.38404 0.0
H700 H 0.12876 0.45865 0.28807 0.0
H701 H 0.09162 0.46719 0.32447 0.0
C702 C 0.07747 0.45285 0.39731 0.0
C703 C 0.07332 0.4453 0.43572 0.0
C704 C 0.09672 0.44577 0.37565 0.0
C705 C 0.08732 0.4291 0.45196 0.0
C706 C 0.10594 0.42133 0.43045 0.0
C707 C 0.13217 0.42472 0.37106 0.0
C708 C 0.13927 0.43562 0.33352 0.0
C709 C 0.11135 0.43012 0.39238 0.0
C710 C 0.12394 0.45044 0.31705 0.0
C711 C 0.10268 0.45525 0.33781 0.0
H712 H 0.6255 0.06578 0.90952 0.0
H713 H 0.59222 0.12911 0.92913 0.0
H714 H 0.63518 0.17052 0.88546 0.0
H715 H 0.6842 0.18962 0.84172 0.0
H716 H 0.71467 0.1235 0.82289 0.0
H717 H 0.67139 0.0832 0.86495 0.0
C718 C 0.62742 0.08853 0.90401 0.0
C719 C 0.60543 0.09408 0.9228 0.0
C720 C 0.6521 0.11219 0.87857 0.0
C721 C 0.60872 0.12401 0.91528 0.0
C722 C 0.63338 0.14778 0.89016 0.0
C723 C 0.6812 0.16634 0.84655 0.0
C724 C 0.70352 0.16033 0.82879 0.0
C725 C 0.65553 0.14234 0.87154 0.0
C726 C 0.69869 0.12964 0.83597 0.0
C727 C 0.67365 0.10617 0.86026 0.0
H728 H 0.59846 0.65226 0.48023 0.0
H729 H 0.52436 0.58038 0.41252 0.0
H730 H 0.53149 0.62256 0.36734 0.0
H731 H 0.55825 0.67988 0.3479 0.0
H732 H 0.63114 0.75195 0.41688 0.0
H733 H 0.62528 0.70985 0.46063 0.0
C734 C 0.58394 0.64605 0.45555 0.0
C735 C 0.56077 0.61357 0.44957 0.0
C736 C 0.58797 0.67041 0.43002 0.0
C737 C 0.54224 0.60542 0.41747 0.0
C738 C 0.54628 0.62946 0.39179 0.0
C739 C 0.57264 0.68643 0.37264 0.0
C740 C 0.59506 0.71914 0.37899 0.0
C741 C 0.5689 0.66206 0.39793 0.0
C742 C 0.61398 0.72705 0.41095 0.0
C743 C 0.61051 0.70296 0.43616 0.0
H744 H 0.47243 0.08132 0.64718 0.0
H745 H 0.54905 0.1569 0.57397 0.0
H746 H 0.54657 0.19712 0.60749 0.0
H747 H 0.5208 0.21158 0.65707 0.0
H748 H 0.44658 0.13504 0.73113 0.0
H749 H 0.4512 0.09555 0.699 0.0
C750 C 0.48925 0.10649 0.63859 0.0
C751 C 0.51059 0.11517 0.60709 0.0
C752 C 0.4884 0.13 0.65873 0.0
C753 C 0.53147 0.14852 0.59704 0.0
C754 C 0.53041 0.17195 0.61666 0.0
C755 C 0.50628 0.1864 0.66671 0.0
C756 C 0.48336 0.17662 0.69688 0.0
C757 C 0.50875 0.1631 0.64751 0.0
C758 C 0.46441 0.14357 0.7082 0.0
C759 C 0.46688 0.12073 0.68962 0.0
H760 H 0.3823 0.42685 0.08051 0.0
H761 H 0.43496 0.53032 0.07983 0.0
H762 H 0.38984 0.52642 0.11635 0.0
H763 H 0.33522 0.49353 0.14743 0.0
H764 H 0.28329 0.38971 0.14997 0.0
H765 H 0.32815 0.39379 0.11364 0.0
C766 C 0.38398 0.44843 0.08897 0.0
C767 C 0.41197 0.47881 0.07828 0.0
C768 C 0.35799 0.44595 0.10997 0.0
C769 C 0.41367 0.50672 0.08828 0.0
C770 C 0.3879 0.50447 0.10903 0.0
C771 C 0.33371 0.47171 0.14055 0.0
C772 C 0.30556 0.44133 0.15163 0.0
C773 C 0.3599 0.47419 0.11999 0.0
C774 C 0.30419 0.41346 0.14158 0.0
C775 C 0.33003 0.41573 0.12092 0.0
H776 H 0.90658 0.37929 0.57796 0.0
H777 H 0.9434 0.45855 0.64888 0.0
H778 H 0.90405 0.42238 0.69823 0.0
H779 H 0.86071 0.36766 0.7228 0.0
H780 H 0.8208 0.28856 0.65123 0.0
H781 H 0.85876 0.32504 0.60079 0.0
C782 C 0.90564 0.38875 0.60401 0.0
C783 C 0.92842 0.42186 0.60953 0.0
C784 C 0.88212 0.36771 0.63232 0.0
C785 C 0.92667 0.43334 0.64376 0.0
C786 C 0.904 0.41259 0.67206 0.0
C787 C 0.85987 0.35837 0.69601 0.0
C788 C 0.83758 0.32509 0.69118 0.0
C789 C 0.88181 0.37965 0.6669 0.0
C790 C 0.83718 0.31389 0.656 0.0
C791 C 0.85923 0.33481 0.6271 0.0
H792 H 0.61979 0.96742 0.10207 0.0
H793 H 0.52321 0.89063 0.07118 0.0
H794 H 0.52866 0.8517 0.10914 0.0
H795 H 0.55932 0.83981 0.1539 0.0
H796 H 0.65591 0.91567 0.18507 0.0
H797 H 0.65222 0.95467 0.14415 0.0
C798 C 0.60009 0.94213 0.10355 0.0
C799 C 0.57117 0.93194 0.08383 0.0
C800 C 0.60332 0.91978 0.1256 0.0
C801 C 0.54591 0.89904 0.08568 0.0
C802 C 0.54887 0.87678 0.10762 0.0
C803 C 0.57952 0.8649 0.15166 0.0
C804 C 0.60765 0.87503 0.17267 0.0
C805 C 0.57721 0.88695 0.1281 0.0
C806 C 0.63405 0.90741 0.16903 0.0
C807 C 0.63185 0.92967 0.14581 0.0
H808 H 0.64347 0.51012 0.61233 0.0
H809 H 0.58602 0.52804 0.68771 0.0
H810 H 0.62263 0.53465 0.73697 0.0
H811 H 0.67301 0.5388 0.75919 0.0
H812 H 0.72851 0.51643 0.68763 0.0
H813 H 0.6902 0.50701 0.63753 0.0
C814 C 0.63841 0.51503 0.6395 0.0
C815 C 0.61198 0.51976 0.64483 0.0
C816 C 0.65927 0.5177 0.66907 0.0
C817 C 0.60659 0.52583 0.68109 0.0
C818 C 0.62744 0.52916 0.70996 0.0
C819 C 0.6763 0.53104 0.73292 0.0
C820 C 0.7036 0.52801 0.72758 0.0
C821 C 0.65415 0.5257 0.70424 0.0
C822 C 0.70748 0.51829 0.69305 0.0
C823 C 0.68572 0.51335 0.66414 0.0
H824 H 0.0787 0.61249 0.14519 0.0
H825 H 0.09807 0.67438 0.04721 0.0
H826 H 0.13377 0.72188 0.0821 0.0
H827 H 0.16157 0.74554 0.13999 0.0
H828 H 0.14291 0.68305 0.23711 0.0
H829 H 0.10459 0.63604 0.20318 0.0
C830 C 0.09028 0.6364 0.13161 0.0
C831 C 0.08565 0.63991 0.09371 0.0
C832 C 0.11103 0.66346 0.15168 0.0
C833 C 0.10141 0.67104 0.07632 0.0
C834 C 0.12175 0.69818 0.09627 0.0
C835 C 0.14871 0.72166 0.15378 0.0
C836 C 0.15512 0.71773 0.19095 0.0
C837 C 0.12704 0.69467 0.13389 0.0
C838 C 0.13866 0.68661 0.20839 0.0
C839 C 0.1167 0.65976 0.18905 0.0
loop_
_geom_bond_atom_site_label_1
_geom_bond_atom_site_label_2
_geom_bond_distance
_geom_bond_site_symmetry_2
_ccdc_geom_bond_type
C0 C1 1.443 1_556 S
C0 N4 1.376 1_556 S
C0 C38 1.389 . S
C1 C0 1.443 1_554 S
C1 C2 1.340 . S
C1 H41 0.951 1_554 S
C2 C1 1.340 . S
C2 C3 1.439 . S
C2 H42 0.950 . S
C3 C2 1.439 . S
C3 N4 1.374 . S
C3 C37 1.395 . S
N4 C0 1.376 1_554 S
N4 C3 1.374 . S
N4 Co5 2.008 1_655 S
Co5 N4 2.008 1_455 S
Co5 N6 1.994 1_455 S
Co5 N11 2.010 . S
Co5 N16 1.995 1_554 S
Co5 N21 2.282 . S
Co5 N27 2.282 1_454 S
N6 Co5 1.994 1_655 S
N6 C7 1.374 . S
N6 C10 1.386 1_655 S
C7 N6 1.374 . S
C7 C8 1.446 . S
C7 C37 1.391 . S
C8 C7 1.446 . S
C8 C9 1.339 1_655 S
C8 H43 0.949 . S
C9 C8 1.339 1_455 S
C9 C10 1.439 . S
C9 H44 0.950 . S
C10 N6 1.386 1_455 S
C10 C9 1.439 . S
C10 C39 1.392 . S
N11 Co5 2.010 . S
N11 C12 1.387 . S
N11 C15 1.362 1_554 S
C12 N11 1.387 . S
C12 C13 1.443 . S
C12 C39 1.389 . S
C13 C12 1.443 . S
C13 C14 1.340 1_554 S
C13 H45 0.951 . S
C14 C13 1.340 1_556 S
C14 C15 1.439 . S
C14 H46 0.950 . S
C15 N11 1.362 1_556 S
C15 C14 1.439 . S
C15 C40 1.395 . S
N16 Co5 1.995 1_556 S
N16 C17 1.376 . S
N16 C20 1.383 1_455 S
C17 N16 1.376 . S
C17 C18 1.446 . S
C17 C40 1.391 . S
C18 C17 1.446 . S
C18 C19 1.339 . S
C18 H47 0.949 . S
C19 C18 1.339 . S
C19 C20 1.439 1_455 S
C19 H48 0.950 1_455 S
C20 N16 1.383 1_655 S
C20 C19 1.439 1_655 S
C20 C38 1.392 . S
N21 Co5 2.282 . S
N21 C24 1.332 . S
N21 C26 1.332 . S
C22 C23 1.386 . S
C22 C25 1.388 . S
C23 C22 1.386 . S
C23 C24 1.382 . S
C23 H49 0.950 . S
C24 N21 1.332 . S
C24 C23 1.382 . S
C24 H35 0.952 . S
C25 C22 1.388 . S
C25 C26 1.382 . S
C25 H50 0.950 . S
C26 N21 1.332 . S
C26 C25 1.382 . S
C26 H36 0.948 . S
N27 Co5 2.282 1_656 S
N27 C31 1.332 . S
N27 C32 1.332 . S
C28 C29 1.388 . S
C28 C32 1.382 . S
C28 H51 0.950 . S
C29 C28 1.388 . S
C29 C30 1.386 . S
C30 C29 1.386 . S
C30 C31 1.382 . S
C30 H52 0.950 . S
C31 N27 1.332 . S
C31 C30 1.382 . S
C31 H33 0.952 1_556 S
C32 N27 1.332 . S
C32 C28 1.382 . S
C32 H34 0.948 1_655 S
H33 C31 0.952 1_554 S
H34 C32 0.948 1_455 S
H35 C24 0.952 . S
H36 C26 0.948 . S
C37 C3 1.395 . S
C37 C7 1.391 . S
C38 C0 1.389 . S
C38 C20 1.392 . S
C39 C10 1.392 . S
C39 C12 1.389 . S
C40 C15 1.395 . S
C40 C17 1.391 . S
H41 C1 0.951 1_556 S
H42 C2 0.950 . S
H43 C8 0.949 . S
H44 C9 0.950 . S
H45 C13 0.951 . S
H46 C14 0.950 . S
H47 C18 0.949 . S
H48 C19 0.950 1_655 S
H49 C23 0.950 . S
H50 C25 0.950 . S
H51 C28 0.950 . S
H52 C30 0.950 . S
C53 C54 1.443 . S
C53 N57 1.376 . S
C53 C91 1.389 . S
C54 C53 1.443 . S
C54 C55 1.340 1_545 S
C54 H94 0.951 . S
C55 C54 1.340 1_565 S
C55 C56 1.439 . S
C55 H95 0.950 . S
C56 C55 1.439 . S
C56 N57 1.374 1_565 S
C56 C90 1.395 . S
N57 C53 1.376 . S
N57 C56 1.374 1_545 S
N57 Co58 2.008 . S
Co58 N57 2.008 . S
Co58 N59 1.995 1_545 S
Co58 N64 2.008 . S
Co58 N69 1.995 . S
Co58 N74 2.282 1_545 S
Co58 N80 2.282 . S
N59 Co58 1.995 1_565 S
N59 C60 1.376 . S
N59 C63 1.383 . S
C60 N59 1.376 . S
C60 C61 1.446 . S
C60 C90 1.391 . S
C61 C60 1.446 . S
C61 C62 1.339 . S
C61 H96 0.949 . S
C62 C61 1.339 . S
C62 C63 1.439 . S
C62 H97 0.950 . S
C63 N59 1.383 . S
C63 C62 1.439 . S
C63 C92 1.392 . S
N64 Co58 2.008 . S
N64 C65 1.376 1_545 S
N64 C68 1.374 . S
C65 N64 1.376 1_565 S
C65 C66 1.443 1_565 S
C65 C92 1.389 . S
C66 C65 1.443 1_545 S
C66 C67 1.340 . S
C66 H98 0.951 1_545 S
C67 C66 1.340 . S
C67 C68 1.439 . S
C67 H99 0.950 . S
C68 N64 1.374 . S
C68 C67 1.439 . S
C68 C93 1.395 . S
N69 Co58 1.995 . S
N69 C70 1.376 . S
N69 C73 1.383 . S
C70 N69 1.376 . S
C70 C71 1.446 . S
C70 C93 1.391 . S
C71 C70 1.446 . S
C71 C72 1.339 . S
C71 H100 0.949 . S
C72 C71 1.339 . S
C72 C73 1.439 . S
C72 H101 0.950 . S
C73 N69 1.383 . S
C73 C72 1.439 . S
C73 C91 1.392 . S
N74 Co58 2.282 1_565 S
N74 C77 1.332 . S
N74 C79 1.332 . S
C75 C76 1.386 . S
C75 C78 1.388 . S
C76 C75 1.386 . S
C76 C77 1.382 . S
C76 H102 0.950 . S
C77 N74 1.332 . S
C77 C76 1.382 . S
C77 H88 0.952 1_565 S
C78 C75 1.388 . S
C78 C79 1.382 . S
C78 H103 0.950 . S
C79 N74 1.332 . S
C79 C78 1.382 . S
C79 H89 0.948 . S
N80 Co58 2.282 . S
N80 C84 1.332 . S
N80 C85 1.332 . S
C81 C82 1.388 . S
C81 C85 1.382 . S
C81 H104 0.950 . S
C82 C81 1.388 . S
C82 C83 1.386 . S
C83 C82 1.386 . S
C83 C84 1.382 . S
C83 H105 0.950 . S
C84 N80 1.332 . S
C84 C83 1.382 . S
C84 H86 0.976 . S
C85 N80 1.332 . S
C85 C81 1.382 . S
C85 H87 0.948 . S
H86 C84 0.976 . S
H87 C85 0.948 . S
H88 C77 0.952 1_545 S
H89 C79 0.948 . S
C90 C56 1.395 . S
C90 C60 1.391 . S
C91 C53 1.389 . S
C91 C73 1.392 . S
C92 C63 1.392 . S
C92 C65 1.389 . S
C93 C68 1.395 . S
C93 C70 1.391 . S
H94 C54 0.951 . S
H95 C55 0.950 . S
H96 C61 0.949 . S
H97 C62 0.950 . S
H98 C66 0.951 1_565 S
H99 C67 0.950 . S
H100 C71 0.949 . S
H101 C72 0.950 . S
H102 C76 0.950 . S
H103 C78 0.950 . S
H104 C81 0.950 . S
H105 C83 0.950 . S
C106 C107 1.443 . S
C106 N110 1.376 . S
C106 C144 1.389 . S
C107 C106 1.443 . S
C107 C108 1.340 . S
C107 H147 0.951 . S
C108 C107 1.340 . S
C108 C109 1.439 . S
C108 H148 0.950 . S
C109 C108 1.439 . S
C109 N110 1.374 . S
C109 C143 1.395 . S
N110 C106 1.376 . S
N110 C109 1.374 . S
N110 Co111 2.008 1_556 S
Co111 N110 2.008 1_554 S
Co111 N112 1.995 1_554 S
Co111 N117 2.008 . S
Co111 N122 1.995 . S
Co111 N127 2.282 . S
Co111 N133 2.282 1_554 S
N112 Co111 1.995 1_556 S
N112 C113 1.376 . S
N112 C116 1.383 1_556 S
C113 N112 1.376 . S
C113 C114 1.446 . S
C113 C143 1.391 . S
C114 C113 1.446 . S
C114 C115 1.339 1_556 S
C114 H149 0.949 . S
C115 C114 1.339 1_554 S
C115 C116 1.439 . S
C115 H150 0.950 . S
C116 N112 1.383 1_554 S
C116 C115 1.439 . S
C116 C145 1.392 . S
N117 Co111 2.008 . S
N117 C118 1.376 . S
N117 C121 1.374 . S
C118 N117 1.376 . S
C118 C119 1.443 . S
C118 C145 1.389 . S
C119 C118 1.443 . S
C119 C120 1.340 . S
C119 H151 0.951 . S
C120 C119 1.340 . S
C120 C121 1.439 . S
C120 H152 0.950 . S
C121 N117 1.374 . S
C121 C120 1.439 . S
C121 C146 1.395 . S
N122 Co111 1.995 . S
N122 C123 1.376 . S
N122 C126 1.383 1_554 S
C123 N122 1.376 . S
C123 C124 1.446 . S
C123 C146 1.391 . S
C124 C123 1.446 . S
C124 C125 1.339 . S
C124 H153 0.949 . S
C125 C124 1.339 . S
C125 C126 1.439 1_554 S
C125 H154 0.950 1_554 S
C126 N122 1.383 1_556 S
C126 C125 1.439 1_556 S
C126 C144 1.392 . S
N127 Co111 2.282 . S
N127 C130 1.332 . S
N127 C132 1.332 . S
C128 C129 1.386 . S
C128 C131 1.388 . S
C129 C128 1.386 . S
C129 C130 1.382 . S
C129 H155 0.950 . S
C130 N127 1.332 . S
C130 C129 1.382 . S
C130 H141 0.952 . S
C131 C128 1.388 . S
C131 C132 1.382 . S
C131 H156 0.950 . S
C132 N127 1.332 . S
C132 C131 1.382 . S
C132 H142 0.948 . S
N133 Co111 2.282 1_556 S
N133 C137 1.332 . S
N133 C138 1.332 . S
C134 C135 1.388 . S
C134 C138 1.382 . S
C134 H157 0.950 . S
C135 C134 1.388 . S
C135 C136 1.386 . S
C136 C135 1.386 . S
C136 C137 1.382 . S
C136 H158 0.950 . S
C137 N133 1.332 . S
C137 C136 1.382 . S
C137 H139 0.952 . S
C138 N133 1.332 . S
C138 C134 1.382 . S
C138 H140 0.948 1_556 S
H139 C137 0.952 . S
H140 C138 0.948 1_554 S
H141 C130 0.952 . S
H142 C132 0.948 . S
C143 C109 1.395 . S
C143 C113 1.391 . S
C144 C106 1.389 . S
C144 C126 1.392 . S
C145 C116 1.392 . S
C145 C118 1.389 . S
C146 C121 1.395 . S
C146 C123 1.391 . S
H147 C107 0.951 . S
H148 C108 0.950 . S
H149 C114 0.949 . S
H150 C115 0.950 . S
H151 C119 0.951 . S
H152 C120 0.950 . S
H153 C124 0.949 . S
H154 C125 0.950 1_556 S
H155 C129 0.950 . S
H156 C131 0.950 . S
H157 C134 0.950 . S
H158 C136 0.950 . S
C159 C160 1.443 . S
C159 N163 1.376 . S
C159 C197 1.389 . S
C160 C159 1.443 . S
C160 C161 1.340 . S
C160 H200 0.951 . S
C161 C160 1.340 . S
C161 C162 1.439 . S
C161 H201 0.950 . S
C162 C161 1.439 . S
C162 N163 1.374 . S
C162 C196 1.395 . S
N163 C159 1.376 . S
N163 C162 1.374 . S
N163 Co164 2.008 1_655 S
Co164 N163 2.008 1_455 S
Co164 N165 1.995 1_455 S
Co164 N170 2.008 . S
Co164 N175 1.995 . S
Co164 N180 2.282 . S
Co164 N186 2.282 1_455 S
N165 Co164 1.995 1_655 S
N165 C166 1.376 . S
N165 C169 1.383 1_655 S
C166 N165 1.376 . S
C166 C167 1.446 . S
C166 C196 1.391 . S
C167 C166 1.446 . S
C167 C168 1.339 1_655 S
C167 H202 0.949 . S
C168 C167 1.339 1_455 S
C168 C169 1.439 . S
C168 H203 0.950 . S
C169 N165 1.383 1_455 S
C169 C168 1.439 . S
C169 C198 1.392 . S
N170 Co164 2.008 . S
N170 C171 1.376 . S
N170 C174 1.374 . S
C171 N170 1.376 . S
C171 C172 1.443 . S
C171 C198 1.389 . S
C172 C171 1.443 . S
C172 C173 1.340 . S
C172 H204 0.951 . S
C173 C172 1.340 . S
C173 C174 1.439 . S
C173 H205 0.950 . S
C174 N170 1.374 . S
C174 C173 1.439 . S
C174 C199 1.395 . S
N175 Co164 1.995 . S
N175 C176 1.376 . S
N175 C179 1.383 1_455 S
C176 N175 1.376 . S
C176 C177 1.446 . S
C176 C199 1.391 . S
C177 C176 1.446 . S
C177 C178 1.339 1_455 S
C177 H206 0.949 . S
C178 C177 1.339 1_655 S
C178 C179 1.439 . S
C178 H207 0.950 . S
C179 N175 1.383 1_655 S
C179 C178 1.439 . S
C179 C197 1.392 . S
N180 Co164 2.282 . S
N180 C183 1.332 . S
N180 C185 1.332 . S
C181 C182 1.386 . S
C181 C184 1.388 . S
C182 C181 1.386 . S
C182 C183 1.382 . S
C182 H208 0.950 . S
C183 N180 1.332 . S
C183 C182 1.382 . S
C183 H194 0.952 . S
C184 C181 1.388 . S
C184 C185 1.382 . S
C184 H209 0.950 . S
C185 N180 1.332 . S
C185 C184 1.382 . S
C185 H195 0.948 . S
N186 Co164 2.282 1_655 S
N186 C190 1.332 . S
N186 C191 1.332 . S
C187 C188 1.388 . S
C187 C191 1.382 . S
C187 H210 0.950 . S
C188 C187 1.388 . S
C188 C189 1.386 . S
C189 C188 1.386 . S
C189 C190 1.382 . S
C189 H211 0.950 . S
C190 N186 1.332 . S
C190 C189 1.382 . S
C190 H192 0.952 . S
C191 N186 1.332 . S
C191 C187 1.382 . S
C191 H193 0.948 1_655 S
H192 C190 0.952 . S
H193 C191 0.948 1_455 S
H194 C183 0.952 . S
H195 C185 0.948 . S
C196 C162 1.395 . S
C196 C166 1.391 . S
C197 C159 1.389 . S
C197 C179 1.392 . S
C198 C169 1.392 . S
C198 C171 1.389 . S
C199 C174 1.395 . S
C199 C176 1.391 . S
H200 C160 0.951 . S
H201 C161 0.950 . S
H202 C167 0.949 . S
H203 C168 0.950 . S
H204 C172 0.951 . S
H205 C173 0.950 . S
H206 C177 0.949 . S
H207 C178 0.950 . S
H208 C182 0.950 . S
H209 C184 0.950 . S
H210 C187 0.950 . S
H211 C189 0.950 . S
C212 C213 1.443 . S
C212 N216 1.376 1_565 S
C212 C250 1.389 . S
C213 C212 1.443 . S
C213 C214 1.340 1_565 S
C213 H253 0.951 . S
C214 C213 1.340 1_545 S
C214 C215 1.439 . S
C214 H254 0.950 . S
C215 C214 1.439 . S
C215 N216 1.374 . S
C215 C249 1.395 . S
N216 C212 1.376 1_545 S
N216 C215 1.374 . S
N216 Co217 2.008 . S
Co217 N216 2.008 . S
Co217 N218 1.995 . S
Co217 N223 2.008 1_544 S
Co217 N228 1.995 1_545 S
Co217 N233 2.282 1_554 S
Co217 N239 2.282 1_545 S
N218 Co217 1.995 . S
N218 C219 1.376 . S
N218 C222 1.383 1_554 S
C219 N218 1.376 . S
C219 C220 1.446 . S
C219 C249 1.391 . S
C220 C219 1.446 . S
C220 C221 1.339 1_554 S
C220 H255 0.949 . S
C221 C220 1.339 1_556 S
C221 C222 1.439 . S
C221 H256 0.950 . S
C222 N218 1.383 1_556 S
C222 C221 1.439 . S
C222 C251 1.392 . S
N223 Co217 2.008 1_566 S
N223 C224 1.376 1_565 S
N223 C227 1.374 . S
C224 N223 1.376 1_545 S
C224 C225 1.443 . S
C224 C251 1.389 . S
C225 C224 1.443 . S
C225 C226 1.340 1_545 S
C225 H257 0.951 . S
C226 C225 1.340 1_565 S
C226 C227 1.439 . S
C226 H258 0.950 . S
C227 N223 1.374 . S
C227 C226 1.439 . S
C227 C252 1.395 . S
N228 Co217 1.995 1_565 S
N228 C229 1.376 1_554 S
N228 C232 1.383 . S
C229 N228 1.376 1_556 S
C229 C230 1.446 . S
C229 C252 1.391 . S
C230 C229 1.446 . S
C230 C231 1.339 1_556 S
C230 H259 0.949 . S
C231 C230 1.339 1_554 S
C231 C232 1.439 . S
C231 H260 0.950 . S
C232 N228 1.383 . S
C232 C231 1.439 . S
C232 C250 1.392 . S
N233 Co217 2.282 1_556 S
N233 C236 1.332 . S
N233 C238 1.332 . S
C234 C235 1.386 . S
C234 C237 1.388 . S
C235 C234 1.386 . S
C235 C236 1.382 . S
C235 H261 0.950 . S
C236 N233 1.332 . S
C236 C235 1.382 . S
C236 H247 0.952 1_545 S
C237 C234 1.388 . S
C237 C238 1.382 . S
C237 H262 0.950 . S
C238 N233 1.332 . S
C238 C237 1.382 . S
C238 H248 0.948 . S
N239 Co217 2.282 1_565 S
N239 C243 1.332 . S
N239 C244 1.332 . S
C240 C241 1.388 . S
C240 C244 1.382 . S
C240 H263 0.950 . S
C241 C240 1.388 . S
C241 C242 1.386 . S
C242 C241 1.386 . S
C242 C243 1.382 . S
C242 H264 0.950 . S
C243 N239 1.332 . S
C243 C242 1.382 . S
C243 H245 0.952 1_565 S
C244 N239 1.332 . S
C244 C240 1.382 . S
C244 H246 0.948 . S
H245 C243 0.952 1_545 S
H246 C244 0.948 . S
H247 C236 0.952 1_565 S
H248 C238 0.948 . S
C249 C215 1.395 . S
C249 C219 1.391 . S
C250 C212 1.389 . S
C250 C232 1.392 . S
C251 C222 1.392 . S
C251 C224 1.389 . S
C252 C227 1.395 . S
C252 C229 1.391 . S
H253 C213 0.951 . S
H254 C214 0.950 . S
H255 C220 0.949 . S
H256 C221 0.950 . S
H257 C225 0.951 . S
H258 C226 0.950 . S
H259 C230 0.949 . S
H260 C231 0.950 . S
H261 C235 0.950 . S
H262 C237 0.950 . S
H263 C240 0.950 . S
H264 C242 0.950 . S
C265 C266 1.443 . S
C265 N269 1.376 . S
C265 C303 1.389 . S
C266 C265 1.443 . S
C266 C267 1.340 . S
C266 H306 0.951 . S
C267 C266 1.340 . S
C267 C268 1.439 . S
C267 H307 0.950 . S
C268 C267 1.439 . S
C268 N269 1.374 . S
C268 C302 1.395 . S
N269 C265 1.376 . S
N269 C268 1.374 . S
N269 Co270 2.008 . S
Co270 N269 2.008 . S
Co270 N271 1.995 . S
Co270 N276 2.008 . S
Co270 N281 1.995 . S
Co270 N286 2.282 . S
Co270 N292 2.282 . S
N271 Co270 1.995 . S
N271 C272 1.376 . S
N271 C275 1.383 . S
C272 N271 1.376 . S
C272 C273 1.446 . S
C272 C302 1.391 . S
C273 C272 1.446 . S
C273 C274 1.339 . S
C273 H308 0.949 . S
C274 C273 1.339 . S
C274 C275 1.439 . S
C274 H309 0.950 . S
C275 N271 1.383 . S
C275 C274 1.439 . S
C275 C304 1.392 . S
N276 Co270 2.008 . S
N276 C277 1.376 . S
N276 C280 1.374 . S
C277 N276 1.376 . S
C277 C278 1.443 . S
C277 C304 1.389 . S
C278 C277 1.443 . S
C278 C279 1.340 . S
C278 H310 0.951 . S
C279 C278 1.340 . S
C279 C280 1.439 . S
C279 H311 0.950 . S
C280 N276 1.374 . S
C280 C279 1.439 . S
C280 C305 1.395 . S
N281 Co270 1.995 . S
N281 C282 1.376 . S
N281 C285 1.383 . S
C282 N281 1.376 . S
C282 C283 1.446 . S
C282 C305 1.391 . S
C283 C282 1.446 . S
C283 C284 1.339 . S
C283 H312 0.949 . S
C284 C283 1.339 . S
C284 C285 1.439 . S
C284 H313 0.950 . S
C285 N281 1.383 . S
C285 C284 1.439 . S
C285 C303 1.392 . S
N286 Co270 2.282 . S
N286 C289 1.332 . S
N286 C291 1.332 . S
C287 C288 1.386 . S
C287 C290 1.388 . S
C288 C287 1.386 . S
C288 C289 1.382 . S
C288 H314 0.950 . S
C289 N286 1.332 . S
C289 C288 1.382 . S
C289 H300 0.952 . S
C290 C287 1.388 . S
C290 C291 1.382 . S
C290 H315 0.950 . S
C291 N286 1.332 . S
C291 C290 1.382 . S
C291 H301 0.948 . S
N292 Co270 2.282 . S
N292 C296 1.332 . S
N292 C297 1.332 . S
C293 C294 1.388 . S
C293 C297 1.382 . S
C293 H316 0.950 . S
C294 C293 1.388 . S
C294 C295 1.386 . S
C295 C294 1.386 . S
C295 C296 1.382 . S
C295 H317 0.950 . S
C296 N292 1.332 . S
C296 C295 1.382 . S
C296 H298 0.952 . S
C297 N292 1.332 . S
C297 C293 1.382 . S
C297 H299 0.948 . S
H298 C296 0.952 . S
H299 C297 0.948 . S
H300 C289 0.952 . S
H301 C291 0.948 . S
C302 C268 1.395 . S
C302 C272 1.391 . S
C303 C265 1.389 . S
C303 C285 1.392 . S
C304 C275 1.392 . S
C304 C277 1.389 . S
C305 C280 1.395 . S
C305 C282 1.391 . S
H306 C266 0.951 . S
H307 C267 0.950 . S
H308 C273 0.949 . S
H309 C274 0.950 . S
H310 C278 0.951 . S
H311 C279 0.950 . S
H312 C283 0.949 . S
H313 C284 0.950 . S
H314 C288 0.950 . S
H315 C290 0.950 . S
H316 C293 0.950 . S
H317 C295 0.950 . S
Cu318 N319 1.999 . S
Cu318 O324 1.974 . S
Cu318 N329 1.985 . S
Cu318 O338 1.959 . S
N319 Cu318 1.999 . S
N319 C321 1.263 . S
N319 C323 1.389 . S
N320 C321 1.358 . S
N320 C322 1.400 . S
C321 N319 1.263 . S
C321 N320 1.358 . S
C321 H327 0.930 . S
C322 N320 1.400 . S
C322 C323 1.351 . S
C322 H339 0.930 . S
C323 N319 1.389 . S
C323 C322 1.351 . S
C323 H328 0.930 . S
O324 Cu318 1.974 . S
O324 C334 1.282 . S
C325 O326 1.261 . S
C325 O338 1.251 . S
O326 C325 1.261 . S
H327 C321 0.930 . S
H328 C323 0.930 . S
N329 Cu318 1.985 . S
N329 C331 1.335 . S
N329 C332 1.390 . S
N330 C331 1.345 . S
N330 C333 1.336 . S
C331 N329 1.335 . S
C331 N330 1.345 . S
C331 H336 0.930 . S
C332 N329 1.390 . S
C332 C333 1.346 . S
C332 H337 0.930 . S
C333 N330 1.336 . S
C333 C332 1.346 . S
C333 H340 0.929 . S
C334 O324 1.282 . S
C334 O335 1.216 . S
O335 C334 1.216 . S
H336 C331 0.930 . S
H337 C332 0.930 . S
O338 Cu318 1.959 . S
O338 C325 1.251 . S
H339 C322 0.930 . S
H340 C333 0.929 . S
Cu341 N342 1.999 . S
Cu341 O347 1.974 . S
Cu341 N352 1.985 . S
Cu341 O361 1.959 . S
N342 Cu341 1.999 . S
N342 C344 1.263 . S
N342 C346 1.389 . S
N343 C344 1.358 . S
N343 C345 1.400 . S
C344 N342 1.263 . S
C344 N343 1.358 . S
C344 H350 0.930 . S
C345 N343 1.400 . S
C345 C346 1.351 . S
C345 H362 0.930 . S
C346 N342 1.389 . S
C346 C345 1.351 . S
C346 H351 0.930 . S
O347 Cu341 1.974 . S
O347 C357 1.282 . S
C348 O349 1.261 . S
C348 O361 1.251 . S
O349 C348 1.261 . S
H350 C344 0.930 . S
H351 C346 0.930 . S
N352 Cu341 1.985 . S
N352 C354 1.335 . S
N352 C355 1.390 . S
N353 C354 1.345 . S
N353 C356 1.336 . S
C354 N352 1.335 . S
C354 N353 1.345 . S
C354 H359 0.930 . S
C355 N352 1.390 . S
C355 C356 1.346 . S
C355 H360 0.930 . S
C356 N353 1.336 . S
C356 C355 1.346 . S
C356 H363 0.929 . S
C357 O347 1.282 . S
C357 O358 1.216 . S
O358 C357 1.216 . S
H359 C354 0.930 . S
H360 C355 0.930 . S
O361 Cu341 1.959 . S
O361 C348 1.251 . S
H362 C345 0.930 . S
H363 C356 0.929 . S
Cu364 N365 1.999 . S
Cu364 O370 1.974 . S
Cu364 N375 1.985 . S
Cu364 O384 1.959 . S
N365 Cu364 1.999 . S
N365 C367 1.263 . S
N365 C369 1.389 . S
N366 C367 1.358 . S
N366 C368 1.400 . S
C367 N365 1.263 . S
C367 N366 1.358 . S
C367 H373 0.930 . S
C368 N366 1.400 . S
C368 C369 1.351 . S
C368 H385 0.930 . S
C369 N365 1.389 . S
C369 C368 1.351 . S
C369 H374 0.930 . S
O370 Cu364 1.974 . S
O370 C380 1.282 . S
C371 O372 1.261 . S
C371 O384 1.251 . S
O372 C371 1.261 . S
H373 C367 0.930 . S
H374 C369 0.930 . S
N375 Cu364 1.985 . S
N375 C377 1.335 . S
N375 C378 1.390 . S
N376 C377 1.345 . S
N376 C379 1.336 . S
C377 N375 1.335 . S
C377 N376 1.345 . S
C377 H382 0.930 . S
C378 N375 1.390 . S
C378 C379 1.346 . S
C378 H383 0.930 . S
C379 N376 1.336 . S
C379 C378 1.346 . S
C379 H386 0.929 . S
C380 O370 1.282 . S
C380 O381 1.216 . S
O381 C380 1.216 . S
H382 C377 0.930 . S
H383 C378 0.930 . S
O384 Cu364 1.959 . S
O384 C371 1.251 . S
H385 C368 0.930 . S
H386 C379 0.929 . S
Cu387 N388 1.999 . S
Cu387 O393 1.974 . S
Cu387 N398 1.985 . S
Cu387 O407 1.959 . S
N388 Cu387 1.999 . S
N388 C390 1.263 . S
N388 C392 1.389 . S
N389 C390 1.358 . S
N389 C391 1.400 . S
C390 N388 1.263 . S
C390 N389 1.358 . S
C390 H396 0.930 . S
C391 N389 1.400 . S
C391 C392 1.351 . S
C391 H408 0.930 . S
C392 N388 1.389 . S
C392 C391 1.351 . S
C392 H397 0.930 . S
O393 Cu387 1.974 . S
O393 C403 1.282 . S
C394 O395 1.261 . S
C394 O407 1.251 . S
O395 C394 1.261 . S
H396 C390 0.930 . S
H397 C392 0.930 . S
N398 Cu387 1.985 . S
N398 C400 1.335 . S
N398 C401 1.390 . S
N399 C400 1.345 . S
N399 C402 1.336 . S
C400 N398 1.335 . S
C400 N399 1.345 . S
C400 H405 0.930 . S
C401 N398 1.390 . S
C401 C402 1.346 . S
C401 H406 0.930 . S
C402 N399 1.336 . S
C402 C401 1.346 . S
C402 H409 0.929 . S
C403 O393 1.282 . S
C403 O404 1.216 . S
O404 C403 1.216 . S
H405 C400 0.930 . S
H406 C401 0.930 . S
O407 Cu387 1.959 . S
O407 C394 1.251 . S
H408 C391 0.930 . S
H409 C402 0.929 . S
Cu410 N411 1.999 . S
Cu410 O416 1.974 . S
Cu410 N421 1.985 . S
Cu410 O430 1.959 . S
N411 Cu410 1.999 . S
N411 C413 1.263 . S
N411 C415 1.389 . S
N412 C413 1.358 . S
N412 C414 1.400 . S
C413 N411 1.263 . S
C413 N412 1.358 . S
C413 H419 0.930 . S
C414 N412 1.400 . S
C414 C415 1.351 . S
C414 H431 0.930 . S
C415 N411 1.389 . S
C415 C414 1.351 . S
C415 H420 0.930 . S
O416 Cu410 1.974 . S
O416 C426 1.282 . S
C417 O418 1.261 . S
C417 O430 1.251 . S
O418 C417 1.261 . S
H419 C413 0.930 . S
H420 C415 0.930 . S
N421 Cu410 1.985 . S
N421 C423 1.335 . S
N421 C424 1.390 . S
N422 C423 1.345 . S
N422 C425 1.336 . S
C423 N421 1.335 . S
C423 N422 1.345 . S
C423 H428 0.930 . S
C424 N421 1.390 . S
C424 C425 1.346 . S
C424 H429 0.930 . S
C425 N422 1.336 . S
C425 C424 1.346 . S
C425 H432 0.929 . S
C426 O416 1.282 . S
C426 O427 1.216 . S
O427 C426 1.216 . S
H428 C423 0.930 . S
H429 C424 0.930 . S
O430 Cu410 1.959 . S
O430 C417 1.251 . S
H431 C414 0.930 . S
H432 C425 0.929 . S
Cu433 N434 1.999 . S
Cu433 O439 1.974 . S
Cu433 N444 1.985 . S
Cu433 O453 1.959 . S
N434 Cu433 1.999 . S
N434 C436 1.263 . S
N434 C438 1.389 . S
N435 C436 1.358 . S
N435 C437 1.400 . S
C436 N434 1.263 . S
C436 N435 1.358 . S
C436 H442 0.930 . S
C437 N435 1.400 . S
C437 C438 1.351 . S
C437 H454 0.930 . S
C438 N434 1.389 . S
C438 C437 1.351 . S
C438 H443 0.930 . S
O439 Cu433 1.974 . S
O439 C449 1.282 . S
C440 O441 1.261 . S
C440 O453 1.251 . S
O441 C440 1.261 . S
H442 C436 0.930 . S
H443 C438 0.930 . S
N444 Cu433 1.985 . S
N444 C446 1.335 . S
N444 C447 1.390 . S
N445 C446 1.345 . S
N445 C448 1.336 . S
C446 N444 1.335 . S
C446 N445 1.345 . S
C446 H451 0.930 . S
C447 N444 1.390 . S
C447 C448 1.346 . S
C447 H452 0.930 . S
C448 N445 1.336 . S
C448 C447 1.346 . S
C448 H455 0.929 . S
C449 O439 1.282 . S
C449 O450 1.216 . S
O450 C449 1.216 . S
H451 C446 0.930 . S
H452 C447 0.930 . S
O453 Cu433 1.959 . S
O453 C440 1.251 . S
H454 C437 0.930 . S
H455 C448 0.929 . S
H456 C462 0.930 . S
H457 C465 0.930 . S
H458 C466 0.930 . S
H459 C467 0.930 . S
H460 C470 0.930 . S
H461 C471 0.930 . S
C462 H456 0.930 . S
C462 C463 1.355 . S
C462 C464 1.415 . S
C463 C462 1.355 . S
C463 C465 1.419 . S
C464 C462 1.415 . S
C464 C469 1.425 . S
C464 C471 1.409 . S
C465 H457 0.930 . S
C465 C463 1.419 . S
C465 C466 1.362 . S
C466 H458 0.930 . S
C466 C465 1.362 . S
C466 C469 1.409 . S
C467 H459 0.930 . S
C467 C468 1.355 . S
C467 C469 1.415 . S
C468 C467 1.355 . S
C468 C470 1.419 . S
C469 C464 1.425 . S
C469 C466 1.409 . S
C469 C467 1.415 . S
C470 H460 0.930 . S
C470 C468 1.419 . S
C470 C471 1.362 . S
C471 H461 0.930 . S
C471 C464 1.409 . S
C471 C470 1.362 . S
H472 C478 0.930 . S
H473 C481 0.930 . S
H474 C482 0.930 . S
H475 C483 0.930 . S
H476 C486 0.930 . S
H477 C487 0.930 . S
C478 H472 0.930 . S
C478 C479 1.355 . S
C478 C480 1.415 . S
C479 C478 1.355 . S
C479 C481 1.419 . S
C480 C478 1.415 . S
C480 C485 1.425 . S
C480 C487 1.409 . S
C481 H473 0.930 . S
C481 C479 1.419 . S
C481 C482 1.362 . S
C482 H474 0.930 . S
C482 C481 1.362 . S
C482 C485 1.409 . S
C483 H475 0.930 . S
C483 C484 1.355 . S
C483 C485 1.415 . S
C484 C483 1.355 . S
C484 C486 1.419 . S
C485 C480 1.425 . S
C485 C482 1.409 . S
C485 C483 1.415 . S
C486 H476 0.930 . S
C486 C484 1.419 . S
C486 C487 1.362 . S
C487 H477 0.930 . S
C487 C480 1.409 . S
C487 C486 1.362 . S
H488 C494 0.930 . S
H489 C497 0.930 . S
H490 C498 0.930 . S
H491 C499 0.930 . S
H492 C502 0.930 . S
H493 C503 0.930 . S
C494 H488 0.930 . S
C494 C495 1.355 . S
C494 C496 1.415 . S
C495 C494 1.355 . S
C495 C497 1.419 . S
C496 C494 1.415 . S
C496 C501 1.425 . S
C496 C503 1.409 . S
C497 H489 0.930 . S
C497 C495 1.419 . S
C497 C498 1.362 . S
C498 H490 0.930 . S
C498 C497 1.362 . S
C498 C501 1.409 . S
C499 H491 0.930 . S
C499 C500 1.355 . S
C499 C501 1.415 . S
C500 C499 1.355 . S
C500 C502 1.419 . S
C501 C496 1.425 . S
C501 C498 1.409 . S
C501 C499 1.415 . S
C502 H492 0.930 . S
C502 C500 1.419 . S
C502 C503 1.362 . S
C503 H493 0.930 . S
C503 C496 1.409 . S
C503 C502 1.362 . S
H504 C510 0.930 . S
H505 C513 0.930 . S
H506 C514 0.930 . S
H507 C515 0.930 . S
H508 C518 0.930 . S
H509 C519 0.930 . S
C510 H504 0.930 . S
C510 C511 1.355 . S
C510 C512 1.415 . S
C511 C510 1.355 . S
C511 C513 1.419 . S
C512 C510 1.415 . S
C512 C517 1.425 . S
C512 C519 1.409 . S
C513 H505 0.930 . S
C513 C511 1.419 . S
C513 C514 1.362 . S
C514 H506 0.930 . S
C514 C513 1.362 . S
C514 C517 1.409 . S
C515 H507 0.930 . S
C515 C516 1.355 . S
C515 C517 1.415 . S
C516 C515 1.355 . S
C516 C518 1.419 . S
C517 C512 1.425 . S
C517 C514 1.409 . S
C517 C515 1.415 . S
C518 H508 0.930 . S
C518 C516 1.419 . S
C518 C519 1.362 . S
C519 H509 0.930 . S
C519 C512 1.409 . S
C519 C518 1.362 . S
H520 C526 0.930 . S
H521 C529 0.930 . S
H522 C530 0.930 . S
H523 C531 0.930 . S
H524 C534 0.930 . S
H525 C535 0.930 . S
C526 H520 0.930 . S
C526 C527 1.355 . S
C526 C528 1.415 . S
C527 C526 1.355 . S
C527 C529 1.419 . S
C528 C526 1.415 . S
C528 C533 1.425 . S
C528 C535 1.409 . S
C529 H521 0.930 . S
C529 C527 1.419 . S
C529 C530 1.362 . S
C530 H522 0.930 . S
C530 C529 1.362 . S
C530 C533 1.409 . S
C531 H523 0.930 . S
C531 C532 1.355 . S
C531 C533 1.415 . S
C532 C531 1.355 . S
C532 C534 1.419 . S
C533 C528 1.425 . S
C533 C530 1.409 . S
C533 C531 1.415 . S
C534 H524 0.930 . S
C534 C532 1.419 . S
C534 C535 1.362 . S
C535 H525 0.930 . S
C535 C528 1.409 . S
C535 C534 1.362 . S
H536 C542 0.930 . S
H537 C545 0.930 . S
H538 C546 0.930 . S
H539 C547 0.930 . S
H540 C550 0.930 . S
H541 C551 0.930 . S
C542 H536 0.930 . S
C542 C543 1.355 . S
C542 C544 1.415 . S
C543 C542 1.355 . S
C543 C545 1.419 . S
C544 C542 1.415 . S
C544 C549 1.425 . S
C544 C551 1.409 . S
C545 H537 0.930 . S
C545 C543 1.419 . S
C545 C546 1.362 . S
C546 H538 0.930 . S
C546 C545 1.362 . S
C546 C549 1.409 . S
C547 H539 0.930 . S
C547 C548 1.355 . S
C547 C549 1.415 . S
C548 C547 1.355 . S
C548 C550 1.419 . S
C549 C544 1.425 . S
C549 C546 1.409 . S
C549 C547 1.415 . S
C550 H540 0.930 . S
C550 C548 1.419 . S
C550 C551 1.362 . S
C551 H541 0.930 . S
C551 C544 1.409 . S
C551 C550 1.362 . S
H552 C558 0.930 . S
H553 C561 0.930 . S
H554 C562 0.930 . S
H555 C563 0.930 . S
H556 C566 0.930 . S
H557 C567 0.930 . S
C558 H552 0.930 . S
C558 C559 1.355 . S
C558 C560 1.415 . S
C559 C558 1.355 . S
C559 C561 1.419 . S
C560 C558 1.415 . S
C560 C565 1.425 . S
C560 C567 1.409 . S
C561 H553 0.930 . S
C561 C559 1.419 . S
C561 C562 1.362 . S
C562 H554 0.930 . S
C562 C561 1.362 . S
C562 C565 1.409 . S
C563 H555 0.930 . S
C563 C564 1.355 . S
C563 C565 1.415 . S
C564 C563 1.355 . S
C564 C566 1.419 . S
C565 C560 1.425 . S
C565 C562 1.409 . S
C565 C563 1.415 . S
C566 H556 0.930 . S
C566 C564 1.419 . S
C566 C567 1.362 . S
C567 H557 0.930 . S
C567 C560 1.409 . S
C567 C566 1.362 . S
H568 C574 0.930 . S
H569 C577 0.930 . S
H570 C578 0.930 . S
H571 C579 0.930 . S
H572 C582 0.930 . S
H573 C583 0.930 . S
C574 H568 0.930 . S
C574 C575 1.355 . S
C574 C576 1.415 . S
C575 C574 1.355 . S
C575 C577 1.419 . S
C576 C574 1.415 . S
C576 C581 1.425 . S
C576 C583 1.409 . S
C577 H569 0.930 . S
C577 C575 1.419 . S
C577 C578 1.362 . S
C578 H570 0.930 . S
C578 C577 1.362 . S
C578 C581 1.409 . S
C579 H571 0.930 . S
C579 C580 1.355 . S
C579 C581 1.415 . S
C580 C579 1.355 . S
C580 C582 1.419 . S
C581 C576 1.425 . S
C581 C578 1.409 . S
C581 C579 1.415 . S
C582 H572 0.930 . S
C582 C580 1.419 . S
C582 C583 1.362 . S
C583 H573 0.930 . S
C583 C576 1.409 . S
C583 C582 1.362 . S
H584 C590 0.930 . S
H585 C593 0.930 . S
H586 C594 0.930 . S
H587 C595 0.930 . S
H588 C598 0.930 . S
H589 C599 0.930 . S
C590 H584 0.930 . S
C590 C591 1.355 . S
C590 C592 1.415 . S
C591 C590 1.355 . S
C591 C593 1.419 . S
C592 C590 1.415 . S
C592 C597 1.425 . S
C592 C599 1.409 . S
C593 H585 0.930 . S
C593 C591 1.419 . S
C593 C594 1.362 . S
C594 H586 0.930 . S
C594 C593 1.362 . S
C594 C597 1.409 . S
C595 H587 0.930 . S
C595 C596 1.355 . S
C595 C597 1.415 . S
C596 C595 1.355 . S
C596 C598 1.419 . S
C597 C592 1.425 . S
C597 C594 1.409 . S
C597 C595 1.415 . S
C598 H588 0.930 . S
C598 C596 1.419 . S
C598 C599 1.362 . S
C599 H589 0.930 . S
C599 C592 1.409 . S
C599 C598 1.362 . S
H600 C606 0.930 . S
H601 C609 0.930 . S
H602 C610 0.930 . S
H603 C611 0.930 . S
H604 C614 0.930 . S
H605 C615 0.930 . S
C606 H600 0.930 . S
C606 C607 1.355 . S
C606 C608 1.415 . S
C607 C606 1.355 . S
C607 C609 1.419 . S
C608 C606 1.415 . S
C608 C613 1.425 . S
C608 C615 1.409 . S
C609 H601 0.930 . S
C609 C607 1.419 . S
C609 C610 1.362 . S
C610 H602 0.930 . S
C610 C609 1.362 . S
C610 C613 1.409 . S
C611 H603 0.930 . S
C611 C612 1.355 . S
C611 C613 1.415 . S
C612 C611 1.355 . S
C612 C614 1.419 . S
C613 C608 1.425 . S
C613 C610 1.409 . S
C613 C611 1.415 . S
C614 H604 0.930 . S
C614 C612 1.419 . S
C614 C615 1.362 . S
C615 H605 0.930 . S
C615 C608 1.409 . S
C615 C614 1.362 . S
H616 C622 0.930 . S
H617 C625 0.930 . S
H618 C626 0.930 . S
H619 C627 0.930 . S
H620 C630 0.930 . S
H621 C631 0.930 . S
C622 H616 0.930 . S
C622 C623 1.355 . S
C622 C624 1.415 . S
C623 C622 1.355 . S
C623 C625 1.419 . S
C624 C622 1.415 . S
C624 C629 1.425 . S
C624 C631 1.409 . S
C625 H617 0.930 . S
C625 C623 1.419 . S
C625 C626 1.362 . S
C626 H618 0.930 . S
C626 C625 1.362 . S
C626 C629 1.409 . S
C627 H619 0.930 . S
C627 C628 1.355 . S
C627 C629 1.415 . S
C628 C627 1.355 . S
C628 C630 1.419 . S
C629 C624 1.425 . S
C629 C626 1.409 . S
C629 C627 1.415 . S
C630 H620 0.930 . S
C630 C628 1.419 . S
C630 C631 1.362 . S
C631 H621 0.930 . S
C631 C624 1.409 . S
C631 C630 1.362 . S
H632 C638 0.930 . S
H633 C641 0.930 . S
H634 C642 0.930 . S
H635 C643 0.930 . S
H636 C646 0.930 . S
H637 C647 0.930 . S
C638 H632 0.930 . S
C638 C639 1.355 . S
C638 C640 1.415 . S
C639 C638 1.355 . S
C639 C641 1.419 . S
C640 C638 1.415 . S
C640 C645 1.425 . S
C640 C647 1.409 . S
C641 H633 0.930 . S
C641 C639 1.419 . S
C641 C642 1.362 . S
C642 H634 0.930 . S
C642 C641 1.362 . S
C642 C645 1.409 . S
C643 H635 0.930 . S
C643 C644 1.355 . S
C643 C645 1.415 . S
C644 C643 1.355 . S
C644 C646 1.419 . S
C645 C640 1.425 . S
C645 C642 1.409 . S
C645 C643 1.415 . S
C646 H636 0.930 . S
C646 C644 1.419 . S
C646 C647 1.362 . S
C647 H637 0.930 . S
C647 C640 1.409 . S
C647 C646 1.362 . S
H648 C654 0.930 . S
H649 C657 0.930 . S
H650 C658 0.930 . S
H651 C659 0.930 . S
H652 C662 0.930 . S
H653 C663 0.930 . S
C654 H648 0.930 . S
C654 C655 1.355 . S
C654 C656 1.415 . S
C655 C654 1.355 . S
C655 C657 1.419 . S
C656 C654 1.415 . S
C656 C661 1.425 . S
C656 C663 1.409 . S
C657 H649 0.930 . S
C657 C655 1.419 . S
C657 C658 1.362 . S
C658 H650 0.930 . S
C658 C657 1.362 . S
C658 C661 1.409 . S
C659 H651 0.930 . S
C659 C660 1.355 . S
C659 C661 1.415 . S
C660 C659 1.355 . S
C660 C662 1.419 . S
C661 C656 1.425 . S
C661 C658 1.409 . S
C661 C659 1.415 . S
C662 H652 0.930 . S
C662 C660 1.419 . S
C662 C663 1.362 . S
C663 H653 0.930 . S
C663 C656 1.409 . S
C663 C662 1.362 . S
H664 C670 0.930 . S
H665 C673 0.930 . S
H666 C674 0.930 . S
H667 C675 0.930 . S
H668 C678 0.930 . S
H669 C679 0.930 . S
C670 H664 0.930 . S
C670 C671 1.355 . S
C670 C672 1.415 . S
C671 C670 1.355 . S
C671 C673 1.419 . S
C672 C670 1.415 . S
C672 C677 1.425 . S
C672 C679 1.409 . S
C673 H665 0.930 . S
C673 C671 1.419 . S
C673 C674 1.362 . S
C674 H666 0.930 . S
C674 C673 1.362 . S
C674 C677 1.409 . S
C675 H667 0.930 . S
C675 C676 1.355 . S
C675 C677 1.415 . S
C676 C675 1.355 . S
C676 C678 1.419 . S
C677 C672 1.425 . S
C677 C674 1.409 . S
C677 C675 1.415 . S
C678 H668 0.930 . S
C678 C676 1.419 . S
C678 C679 1.362 . S
C679 H669 0.930 . S
C679 C672 1.409 . S
C679 C678 1.362 . S
H680 C686 0.930 . S
H681 C689 0.930 . S
H682 C690 0.930 . S
H683 C691 0.930 . S
H684 C694 0.930 . S
H685 C695 0.930 . S
C686 H680 0.930 . S
C686 C687 1.355 . S
C686 C688 1.415 . S
C687 C686 1.355 . S
C687 C689 1.419 . S
C688 C686 1.415 . S
C688 C693 1.425 . S
C688 C695 1.409 . S
C689 H681 0.930 . S
C689 C687 1.419 . S
C689 C690 1.362 . S
C690 H682 0.930 . S
C690 C689 1.362 . S
C690 C693 1.409 . S
C691 H683 0.930 . S
C691 C692 1.355 . S
C691 C693 1.415 . S
C692 C691 1.355 . S
C692 C694 1.419 . S
C693 C688 1.425 . S
C693 C690 1.409 . S
C693 C691 1.415 . S
C694 H684 0.930 . S
C694 C692 1.419 . S
C694 C695 1.362 . S
C695 H685 0.930 . S
C695 C688 1.409 . S
C695 C694 1.362 . S
H696 C702 0.930 . S
H697 C705 0.930 . S
H698 C706 0.930 . S
H699 C707 0.930 . S
H700 C710 0.930 . S
H701 C711 0.930 . S
C702 H696 0.930 . S
C702 C703 1.355 . S
C702 C704 1.415 . S
C703 C702 1.355 . S
C703 C705 1.419 . S
C704 C702 1.415 . S
C704 C709 1.425 . S
C704 C711 1.409 . S
C705 H697 0.930 . S
C705 C703 1.419 . S
C705 C706 1.362 . S
C706 H698 0.930 . S
C706 C705 1.362 . S
C706 C709 1.409 . S
C707 H699 0.930 . S
C707 C708 1.355 . S
C707 C709 1.415 . S
C708 C707 1.355 . S
C708 C710 1.419 . S
C709 C704 1.425 . S
C709 C706 1.409 . S
C709 C707 1.415 . S
C710 H700 0.930 . S
C710 C708 1.419 . S
C710 C711 1.362 . S
C711 H701 0.930 . S
C711 C704 1.409 . S
C711 C710 1.362 . S
H712 C718 0.930 . S
H713 C721 0.930 . S
H714 C722 0.930 . S
H715 C723 0.930 . S
H716 C726 0.930 . S
H717 C727 0.930 . S
C718 H712 0.930 . S
C718 C719 1.355 . S
C718 C720 1.415 . S
C719 C718 1.355 . S
C719 C721 1.419 . S
C720 C718 1.415 . S
C720 C725 1.425 . S
C720 C727 1.409 . S
C721 H713 0.930 . S
C721 C719 1.419 . S
C721 C722 1.362 . S
C722 H714 0.930 . S
C722 C721 1.362 . S
C722 C725 1.409 . S
C723 H715 0.930 . S
C723 C724 1.355 . S
C723 C725 1.415 . S
C724 C723 1.355 . S
C724 C726 1.419 . S
C725 C720 1.425 . S
C725 C722 1.409 . S
C725 C723 1.415 . S
C726 H716 0.930 . S
C726 C724 1.419 . S
C726 C727 1.362 . S
C727 H717 0.930 . S
C727 C720 1.409 . S
C727 C726 1.362 . S
H728 C734 0.930 . S
H729 C737 0.930 . S
H730 C738 0.930 . S
H731 C739 0.930 . S
H732 C742 0.930 . S
H733 C743 0.930 . S
C734 H728 0.930 . S
C734 C735 1.355 . S
C734 C736 1.415 . S
C735 C734 1.355 . S
C735 C737 1.419 . S
C736 C734 1.415 . S
C736 C741 1.425 . S
C736 C743 1.409 . S
C737 H729 0.930 . S
C737 C735 1.419 . S
C737 C738 1.362 . S
C738 H730 0.930 . S
C738 C737 1.362 . S
C738 C741 1.409 . S
C739 H731 0.930 . S
C739 C740 1.355 . S
C739 C741 1.415 . S
C740 C739 1.355 . S
C740 C742 1.419 . S
C741 C736 1.425 . S
C741 C738 1.409 . S
C741 C739 1.415 . S
C742 H732 0.930 . S
C742 C740 1.419 . S
C742 C743 1.362 . S
C743 H733 0.930 . S
C743 C736 1.409 . S
C743 C742 1.362 . S
H744 C750 0.930 . S
H745 C753 0.930 . S
H746 C754 0.930 . S
H747 C755 0.930 . S
H748 C758 0.930 . S
H749 C759 0.930 . S
C750 H744 0.930 . S
C750 C751 1.355 . S
C750 C752 1.415 . S
C751 C750 1.355 . S
C751 C753 1.419 . S
C752 C750 1.415 . S
C752 C757 1.425 . S
C752 C759 1.409 . S
C753 H745 0.930 . S
C753 C751 1.419 . S
C753 C754 1.362 . S
C754 H746 0.930 . S
C754 C753 1.362 . S
C754 C757 1.409 . S
C755 H747 0.930 . S
C755 C756 1.355 . S
C755 C757 1.415 . S
C756 C755 1.355 . S
C756 C758 1.419 . S
C757 C752 1.425 . S
C757 C754 1.409 . S
C757 C755 1.415 . S
C758 H748 0.930 . S
C758 C756 1.419 . S
C758 C759 1.362 . S
C759 H749 0.930 . S
C759 C752 1.409 . S
C759 C758 1.362 . S
H760 C766 0.930 . S
H761 C769 0.930 . S
H762 C770 0.930 . S
H763 C771 0.930 . S
H764 C774 0.930 . S
H765 C775 0.930 . S
C766 H760 0.930 . S
C766 C767 1.355 . S
C766 C768 1.415 . S
C767 C766 1.355 . S
C767 C769 1.419 . S
C768 C766 1.415 . S
C768 C773 1.425 . S
C768 C775 1.409 . S
C769 H761 0.930 . S
C769 C767 1.419 . S
C769 C770 1.362 . S
C770 H762 0.930 . S
C770 C769 1.362 . S
C770 C773 1.409 . S
C771 H763 0.930 . S
C771 C772 1.355 . S
C771 C773 1.415 . S
C772 C771 1.355 . S
C772 C774 1.419 . S
C773 C768 1.425 . S
C773 C770 1.409 . S
C773 C771 1.415 . S
C774 H764 0.930 . S
C774 C772 1.419 . S
C774 C775 1.362 . S
C775 H765 0.930 . S
C775 C768 1.409 . S
C775 C774 1.362 . S
H776 C782 0.930 . S
H777 C785 0.930 . S
H778 C786 0.930 . S
H779 C787 0.930 . S
H780 C790 0.930 . S
H781 C791 0.930 . S
C782 H776 0.930 . S
C782 C783 1.355 . S
C782 C784 1.415 . S
C783 C782 1.355 . S
C783 C785 1.419 . S
C784 C782 1.415 . S
C784 C789 1.425 . S
C784 C791 1.409 . S
C785 H777 0.930 . S
C785 C783 1.419 . S
C785 C786 1.362 . S
C786 H778 0.930 . S
C786 C785 1.362 . S
C786 C789 1.409 . S
C787 H779 0.930 . S
C787 C788 1.355 . S
C787 C789 1.415 . S
C788 C787 1.355 . S
C788 C790 1.419 . S
C789 C784 1.425 . S
C789 C786 1.409 . S
C789 C787 1.415 . S
C790 H780 0.930 . S
C790 C788 1.419 . S
C790 C791 1.362 . S
C791 H781 0.930 . S
C791 C784 1.409 . S
C791 C790 1.362 . S
H792 C798 0.930 . S
H793 C801 0.930 . S
H794 C802 0.930 . S
H795 C803 0.930 . S
H796 C806 0.930 . S
H797 C807 0.930 . S
C798 H792 0.930 . S
C798 C799 1.355 . S
C798 C800 1.415 . S
C799 C798 1.355 . S
C799 C801 1.419 . S
C800 C798 1.415 . S
C800 C805 1.425 . S
C800 C807 1.409 . S
C801 H793 0.930 . S
C801 C799 1.419 . S
C801 C802 1.362 . S
C802 H794 0.930 . S
C802 C801 1.362 . S
C802 C805 1.409 . S
C803 H795 0.930 . S
C803 C804 1.355 . S
C803 C805 1.415 . S
C804 C803 1.355 . S
C804 C806 1.419 . S
C805 C800 1.425 . S
C805 C802 1.409 . S
C805 C803 1.415 . S
C806 H796 0.930 . S
C806 C804 1.419 . S
C806 C807 1.362 . S
C807 H797 0.930 . S
C807 C800 1.409 . S
C807 C806 1.362 . S
H808 C814 0.930 . S
H809 C817 0.930 . S
H810 C818 0.930 . S
H811 C819 0.930 . S
H812 C822 0.930 . S
H813 C823 0.930 . S
C814 H808 0.930 . S
C814 C815 1.355 . S
C814 C816 1.415 . S
C815 C814 1.355 . S
C815 C817 1.419 . S
C816 C814 1.415 . S
C816 C821 1.425 . S
C816 C823 1.409 . S
C817 H809 0.930 . S
C817 C815 1.419 . S
C817 C818 1.362 . S
C818 H810 0.930 . S
C818 C817 1.362 . S
C818 C821 1.409 . S
C819 H811 0.930 . S
C819 C820 1.355 . S
C819 C821 1.415 . S
C820 C819 1.355 . S
C820 C822 1.419 . S
C821 C816 1.425 . S
C821 C818 1.409 . S
C821 C819 1.415 . S
C822 H812 0.930 . S
C822 C820 1.419 . S
C822 C823 1.362 . S
C823 H813 0.930 . S
C823 C816 1.409 . S
C823 C822 1.362 . S
H824 C830 0.930 . S
H825 C833 0.930 . S
H826 C834 0.930 . S
H827 C835 0.930 . S
H828 C838 0.930 . S
H829 C839 0.930 . S
C830 H824 0.930 . S
C830 C831 1.355 . S
C830 C832 1.415 . S
C831 C830 1.355 . S
C831 C833 1.419 . S
C832 C830 1.415 . S
C832 C837 1.425 . S
C832 C839 1.409 . S
C833 H825 0.930 . S
C833 C831 1.419 . S
C833 C834 1.362 . S
C834 H826 0.930 . S
C834 C833 1.362 . S
C834 C837 1.409 . S
C835 H827 0.930 . S
C835 C836 1.355 . S
C835 C837 1.415 . S
C836 C835 1.355 . S
C836 C838 1.419 . S
C837 C832 1.425 . S
C837 C834 1.409 . S
C837 C835 1.415 . S
C838 H828 0.930 . S
C838 C836 1.419 . S
C838 C839 1.362 . S
C839 H829 0.930 . S
C839 C832 1.409 . S
C839 C838 1.362 . S
C463 C39 2.143 . S
C468 C325 2.123 . S
C479 C91 1.434 . S
C484 N343 1.403 . S
C500 C371 1.932 . S
C495 C128 1.951 . S
C516 N389 1.284 . S
C511 C188 1.286 . S
C532 C417 2.000 . S
C527 C250 2.032 . S
C548 N435 1.427 . S
C543 C304 1.448 . S
C559 C75 1.978 . S
C564 C380 1.979 . S
C575 C144 1.439 . S
C580 N399 1.353 . S
C596 C426 2.079 . S
C591 C198 2.075 . S
C612 N445 1.187 . S
C607 C234 1.258 . S
C623 C294 1.880 . S
C628 C334 1.867 . S
C644 N353 1.269 . S
C639 C29 1.295 . S
C660 C403 1.965 . S
C655 C38 2.017 . S
C671 C92 1.314 . S
C676 N422 1.289 . S
C692 C449 1.769 . S
C687 C135 1.824 . S
C703 C181 1.136 . S
C708 N330 1.125 . S
C719 C251 1.930 . S
C724 C357 1.896 . S
C735 C303 1.292 . S
C740 N376 1.264 . S
C751 C82 1.875 . S
C756 C440 1.868 . S
C772 N320 1.287 . S
C767 C145 1.321 . S
C783 C197 1.981 . S
C788 C348 1.978 . S
C799 C241 1.148 . S
C804 N366 1.131 . S
C815 C287 1.788 . S
C820 C394 1.766 . S
C831 C22 1.153 . S
C836 N412 1.052 . S
