# Generated by pormake.
# Topology anh, (6,3)-cn, num edge types: 1
# Building blocks:
#     Node 0, Type 0, BuildingBlock: PAMTUU_clean_sbu_0, # of connection points: 6
#     Node 1, Type 0, BuildingBlock: PAMTUU_clean_sbu_0, # of connection points: 6
#     Node 2, Type 0, BuildingBlock: PAMTUU_clean_sbu_0, # of connection points: 6
#     Node 3, Type 1, BuildingBlock: OLANEW_clean_sbu_2, # of connection points: 3
#     Node 4, Type 1, BuildingBlock: OLANEW_clean_sbu_2, # of connection points: 3
#     Node 5, Type 1, BuildingBlock: OLANEW_clean_sbu_2, # of connection points: 3
#     Node 6, Type 1, BuildingBlock: OLANEW_clean_sbu_2, # of connection points: 3
#     Node 7, Type 1, BuildingBlock: OLANEW_clean_sbu_2, # of connection points: 3
#     Node 8, Type 1, BuildingBlock: OLANEW_clean_sbu_2, # of connection points: 3
#     Edge 9, Type (0, 1), BuildingBlock: UVAHIK_clean_linker_0, # of connection points: 2
#     Edge 10, Type (0, 1), BuildingBlock: UVAHIK_clean_linker_0, # of connection points: 2
#     Edge 11, Type (0, 1), BuildingBlock: UVAHIK_clean_linker_0, # of connection points: 2
#     Edge 12, Type (0, 1), BuildingBlock: UVAHIK_clean_linker_0, # of connection points: 2
#     Edge 13, Type (0, 1), BuildingBlock: UVAHIK_clean_linker_0, # of connection points: 2
#     Edge 14, Type (0, 1), BuildingBlock: UVAHIK_clean_linker_0, # of connection points: 2
#     Edge 15, Type (0, 1), BuildingBlock: UVAHIK_clean_linker_0, # of connection points: 2
#     Edge 16, Type (0, 1), BuildingBlock: UVAHIK_clean_linker_0, # of connection points: 2
#     Edge 17, Type (0, 1), BuildingBlock: UVAHIK_clean_linker_0, # of connection points: 2
#     Edge 18, Type (0, 1), BuildingBlock: UVAHIK_clean_linker_0, # of connection points: 2
#     Edge 19, Type (0, 1), BuildingBlock: UVAHIK_clean_linker_0, # of connection points: 2
#     Edge 20, Type (0, 1), BuildingBlock: UVAHIK_clean_linker_0, # of connection points: 2
#     Edge 21, Type (0, 1), BuildingBlock: UVAHIK_clean_linker_0, # of connection points: 2
#     Edge 22, Type (0, 1), BuildingBlock: UVAHIK_clean_linker_0, # of connection points: 2
#     Edge 23, Type (0, 1), BuildingBlock: UVAHIK_clean_linker_0, # of connection points: 2
#     Edge 24, Type (0, 1), BuildingBlock: UVAHIK_clean_linker_0, # of connection points: 2
#     Edge 25, Type (0, 1), BuildingBlock: UVAHIK_clean_linker_0, # of connection points: 2
#     Edge 26, Type (0, 1), BuildingBlock: UVAHIK_clean_linker_0, # of connection points: 2
# Relax obj value: 0.169
# Max RMSD: 0.137
# Mean RMSD: 0.107
data_MOF--net-anh--node1-PAMTUU_clean_sbu_0--node2-OLANEW_clean_sbu_2--edge1-UVAHIK_clean_linker_0
_symmetry_space_group_name_H-M    P1
_symmetry_Int_Tables_number       1
_symmetry_cell_setting            triclinic
loop_
_symmetry_equiv_pos_as_xyz
'x, y, z'
_cell_length_a     45.317886
_cell_length_b     45.340773
_cell_length_c     64.863324
_cell_angle_alpha  93.043992
_cell_angle_beta   91.337315
_cell_angle_gamma 119.94805
loop_
_atom_site_label
_atom_site_type_symbol
_atom_site_fract_x
_atom_site_fract_y
_atom_site_fract_z
_atom_type_partial_charge
Tb0 Tb 0.02902 0.58869 0.16358 0.0
Tb1 Tb 0.06731 0.54386 0.16601 0.0
C2 C 0.05201 0.56487 0.12407 0.0
C3 C 0.96323 0.61289 0.16954 0.0
C4 C 0.89528 0.5874 0.18053 0.0
C5 C 0.90582 0.60151 0.1614 0.0
C6 C 0.93947 0.61425 0.15603 0.0
C7 C 0.95338 0.60037 0.18906 0.0
C8 C 0.91979 0.58803 0.19457 0.0
C9 C 0.99641 0.62031 0.16193 0.0
O10 O 0.98964 0.53865 0.17205 0.0
O11 O 1.01303 0.50672 0.16005 0.0
O12 O 0.04679 0.54172 0.19612 0.0
O13 O 0.04404 0.59084 0.19591 0.0
O14 O 0.07536 0.5057 0.15229 0.0
O15 O 0.10102 0.53231 0.18154 0.0
O16 O 0.10623 0.5968 0.17456 0.0
O17 O 0.08248 0.62496 0.15893 0.0
O18 O 0.02714 0.5671 0.1325 0.0
O19 O 0.07543 0.56361 0.13559 0.0
C20 C 0.9869 0.50893 0.16671 0.0
O21 O 0.02096 0.6279 0.17574 0.0
O22 O 0.99475 0.59866 0.14732 0.0
C23 C 0.04456 0.5666 0.20584 0.0
C24 C 0.13169 0.51794 0.15856 0.0
C25 C 0.19522 0.53152 0.14446 0.0
C26 C 0.17768 0.50529 0.1577 0.0
C27 C 0.14613 0.49855 0.16468 0.0
C28 C 0.14905 0.54419 0.14539 0.0
C29 C 0.18052 0.55084 0.13832 0.0
C30 C 0.09899 0.51129 0.16634 0.0
C31 C 0.10884 0.62486 0.16785 0.0
H32 H 0.88773 0.60097 0.14998 0.0
H33 H 0.94648 0.62349 0.14083 0.0
H34 H 0.97122 0.59882 0.19974 0.0
H35 H 0.91281 0.57794 0.20957 0.0
H36 H 0.18818 0.48971 0.16248 0.0
H37 H 0.13303 0.47826 0.17488 0.0
H38 H 0.13832 0.55961 0.14067 0.0
H39 H 0.19359 0.57142 0.12831 0.0
Tb40 Tb 0.48562 0.98688 0.49194 0.0
Tb41 Tb 0.56863 0.02702 0.49966 0.0
C42 C 0.53356 0.01464 0.4553 0.0
C43 C 0.3943 0.9242 0.49709 0.0
C44 C 0.34151 0.86819 0.51546 0.0
C45 C 0.36427 0.86382 0.50303 0.0
C46 C 0.3904 0.89149 0.494 0.0
C47 C 0.37185 0.92873 0.50966 0.0
C48 C 0.34582 0.90105 0.51883 0.0
C49 C 0.42143 0.9536 0.48729 0.0
O50 O 0.49803 0.9485 0.50119 0.0
O51 O 0.55381 0.9736 0.49234 0.0
O52 O 0.54891 1.00408 0.52842 0.0
O53 O 0.49627 0.99942 0.52503 0.0
O54 O 0.61694 0.04303 0.48815 0.0
O55 O 0.61181 0.05637 0.51972 0.0
O56 O 0.55277 0.06433 0.50729 0.0
O57 O 0.50229 0.04038 0.48777 0.0
O58 O 0.50581 0.98907 0.46169 0.0
O59 O 0.55825 0.03652 0.46846 0.0
C60 C 0.52558 0.94673 0.49745 0.0
O61 O 0.43834 0.98196 0.49895 0.0
O62 O 0.44154 0.94773 0.47591 0.0
C63 C 0.52094 1.0001 0.53642 0.0
C64 C 0.65518 0.09861 0.50226 0.0
C65 C 0.6959 0.16985 0.50113 0.0
C66 C 0.71001 0.15047 0.50828 0.0
C67 C 0.68969 0.11506 0.50891 0.0
C68 C 0.64124 0.11765 0.49462 0.0
C69 C 0.66133 0.15292 0.49414 0.0
C70 C 0.63263 0.0623 0.50497 0.0
C71 C 0.52784 0.06677 0.49832 0.0
H72 H 0.36136 0.83881 0.49975 0.0
H73 H 0.40725 0.88705 0.48441 0.0
H74 H 0.37435 0.95369 0.51232 0.0
H75 H 0.32899 0.90541 0.52848 0.0
H76 H 0.73664 0.16267 0.51352 0.0
H77 H 0.70073 0.10067 0.51496 0.0
H78 H 0.6145 0.10533 0.48959 0.0
H79 H 0.64941 0.16699 0.4889 0.0
Tb80 Tb 0.54312 0.50291 0.82574 0.0
Tb81 Tb 0.58404 0.58635 0.83349 0.0
C82 C 0.56325 0.54904 0.78931 0.0
C83 C 0.52176 0.41324 0.82843 0.0
C84 C 0.53851 0.36524 0.84232 0.0
C85 C 0.53687 0.3695 0.8211 0.0
C86 C 0.52843 0.39317 0.81422 0.0
C87 C 0.52335 0.40895 0.84968 0.0
C88 C 0.53153 0.3851 0.85654 0.0
C89 C 0.51388 0.43884 0.82089 0.0
O90 O 0.59703 0.51799 0.82394 0.0
O91 O 0.62329 0.57296 0.83897 0.0
O92 O 0.5618 0.56535 0.8625 0.0
O93 O 0.56315 0.51586 0.85741 0.0
O94 O 0.59881 0.63361 0.82173 0.0
O95 O 0.61545 0.63081 0.85263 0.0
O96 O 0.53082 0.57268 0.8285 0.0
O97 O 0.50365 0.51524 0.83348 0.0
O98 O 0.53798 0.52316 0.79733 0.0
O99 O 0.58866 0.57303 0.80125 0.0
C100 C 0.62426 0.54557 0.83233 0.0
O101 O 0.50597 0.4553 0.83472 0.0
O102 O 0.53452 0.45907 0.80776 0.0
C103 C 0.56064 0.53825 0.86967 0.0
C104 C 0.60409 0.67502 0.84694 0.0
C105 C 0.58369 0.72277 0.85793 0.0
C106 C 0.61793 0.73367 0.85403 0.0
C107 C 0.628 0.70994 0.84851 0.0
C108 C 0.57023 0.66385 0.85166 0.0
C109 C 0.56008 0.68755 0.85709 0.0
C110 C 0.61415 0.65057 0.83921 0.0
C111 C 0.50313 0.54379 0.83167 0.0
H112 H 0.54162 0.35415 0.80977 0.0
H113 H 0.52723 0.3959 0.79777 0.0
H114 H 0.51842 0.42408 0.86107 0.0
H115 H 0.53279 0.38246 0.87299 0.0
H116 H 0.63683 0.76058 0.85487 0.0
H117 H 0.65427 0.7189 0.845 0.0
H118 H 0.55149 0.63688 0.85056 0.0
H119 H 0.53347 0.6783 0.85978 0.0
O120 O 0.59175 0.10488 0.23445 0.0
Cd121 Cd 0.61055 0.13276 0.20133 0.0
O122 O 0.5436 0.05853 0.22339 0.0
Cd123 Cd 0.49513 1.00782 0.22166 0.0
O124 O 0.44693 0.9588 0.21235 0.0
C125 C 0.42449 0.94174 0.22501 0.0
O126 O 0.42986 0.95324 0.24455 0.0
C127 C 0.56523 0.07688 0.23826 0.0
C128 C 0.67378 0.19489 0.20049 0.0
O129 O 0.64621 0.19483 0.20461 0.0
O130 O 0.67192 0.1658 0.19756 0.0
O131 O 0.54015 0.48482 0.56161 0.0
Cd132 Cd 0.54119 0.45675 0.52773 0.0
O133 O 0.54429 0.53338 0.55315 0.0
Cd134 Cd 0.54592 0.58371 0.55565 0.0
O135 O 0.54849 0.63319 0.54953 0.0
C136 C 0.5218 0.63585 0.54785 0.0
O137 O 0.49204 0.60882 0.55028 0.0
C138 C 0.5419 0.51328 0.56695 0.0
C139 C 0.53735 0.39205 0.52699 0.0
O140 O 0.56593 0.41996 0.53016 0.0
O141 O 0.51045 0.39445 0.52485 0.0
O142 O 0.10019 0.54403 0.89674 0.0
Cd143 Cd 0.12273 0.54238 0.86238 0.0
O144 O 0.05189 0.54236 0.8882 0.0
Cd145 Cd 1.00109 0.53951 0.88903 0.0
O146 O 0.94993 0.53417 0.88201 0.0
C147 C 0.94551 0.55987 0.88279 0.0
O148 O 0.97175 0.59017 0.88833 0.0
C149 C 0.07304 0.54365 0.90215 0.0
C150 C 0.18583 0.54327 0.8614 0.0
O151 O 0.18468 0.571 0.8622 0.0
O152 O 0.15744 0.5152 0.86167 0.0
O153 O 0.99149 0.53814 0.43367 0.0
Cd154 Cd 0.97694 0.52674 0.46968 0.0
O155 O 0.98697 0.58426 0.43256 0.0
Cd156 Cd 0.96406 0.57601 0.4623 0.0
O157 O 0.92695 0.54032 0.48219 0.0
C158 C 0.89699 0.52237 0.4739 0.0
O159 O 0.89047 0.52918 0.45546 0.0
C160 C 0.99433 0.56305 0.42395 0.0
C161 C 0.03198 0.57284 0.49625 0.0
O162 O 1.00833 0.57892 0.49078 0.0
O163 O 0.02922 0.54439 0.48959 0.0
O164 O 0.46147 0.98131 0.76372 0.0
Cd165 Cd 0.44698 0.98574 0.79974 0.0
O166 O 0.5149 0.99299 0.76733 0.0
Cd167 Cd 0.52106 0.01041 0.79972 0.0
O168 O 0.53215 0.04855 0.82502 0.0
C169 C 0.56098 0.07574 0.82563 0.0
O170 O 0.58312 0.07806 0.81216 0.0
C171 C 0.48821 0.98413 0.75589 0.0
C172 C 0.45732 0.94306 0.82471 0.0
O173 O 0.47806 0.97526 0.82589 0.0
O174 O 0.43103 0.931 0.81213 0.0
O175 O 0.5026 0.37173 0.06329 0.0
Cd176 Cd 0.49477 0.33939 0.09362 0.0
O177 O 0.50903 0.41447 0.08398 0.0
Cd178 Cd 0.5099 0.46241 0.09133 0.0
O179 O 0.48956 0.49599 0.09837 0.0
C180 C 0.47797 0.50569 0.0838 0.0
O181 O 0.48068 0.49707 0.06457 0.0
C182 C 0.50783 0.40199 0.06575 0.0
C183 C 0.55294 0.37279 0.12016 0.0
O184 O 0.54992 0.35109 0.10557 0.0
O185 O 0.52806 0.37833 0.12246 0.0
C186 C 0.23576 0.54404 0.11616 0.0
C187 C 0.22864 0.53851 0.13703 0.0
C188 C 0.26662 0.54892 0.10898 0.0
C189 C 0.35395 0.57005 0.12617 0.0
H190 H 0.34689 0.51371 0.07711 0.0
C191 C 0.45134 0.52754 0.10915 0.0
C192 C 0.45718 0.52176 0.08853 0.0
C193 C 0.42771 0.5378 0.11365 0.0
C194 C 0.34958 0.53025 0.09056 0.0
H195 H 0.24876 0.53512 0.16691 0.0
H196 H 0.30239 0.54317 0.15436 0.0
H197 H 0.29697 0.51614 0.08765 0.0
H198 H 0.44461 0.52466 0.0565 0.0
H199 H 0.40359 0.54301 0.0644 0.0
H200 H 0.40639 0.58341 0.12938 0.0
C201 C 0.28426 0.54395 0.14355 0.0
C202 C 0.32089 0.53157 0.09663 0.0
C203 C 0.25337 0.5389 0.15069 0.0
C204 C 0.44046 0.52857 0.07254 0.0
C205 C 0.41682 0.5389 0.07706 0.0
C206 C 0.38271 0.56883 0.12006 0.0
C207 C 0.29105 0.54858 0.12258 0.0
C208 C 0.32255 0.55079 0.11478 0.0
C209 C 0.40944 0.54265 0.09765 0.0
C210 C 0.38062 0.54821 0.10247 0.0
H211 H 0.21711 0.54369 0.10524 0.0
H212 H 0.27124 0.55263 0.09276 0.0
H213 H 0.35611 0.58554 0.14005 0.0
H214 H 0.4639 0.52268 0.12184 0.0
H215 H 0.42246 0.54012 0.12968 0.0
C216 C 0.712 0.22501 0.48553 0.0
C217 C 0.7166 0.20764 0.50151 0.0
C218 C 0.72982 0.26057 0.48643 0.0
C219 C 0.80736 0.33567 0.50801 0.0
H220 H 0.75939 0.38327 0.4937 0.0
C221 C 0.88051 0.48049 0.50112 0.0
C222 C 0.87197 0.49069 0.4829 0.0
C223 C 0.85916 0.4479 0.5076 0.0
C224 C 0.77318 0.37037 0.49768 0.0
H225 H 0.74386 0.21425 0.53091 0.0
H226 H 0.77579 0.27656 0.53212 0.0
H227 H 0.72744 0.32163 0.49623 0.0
H228 H 0.83326 0.47561 0.45799 0.0
H229 H 0.79653 0.41885 0.469 0.0
H230 H 0.85326 0.38396 0.50853 0.0
C231 C 0.75818 0.26242 0.51898 0.0
C232 C 0.75488 0.33512 0.49914 0.0
C233 C 0.74006 0.22676 0.5182 0.0
C234 C 0.84067 0.46852 0.47206 0.0
C235 C 0.81944 0.43596 0.47847 0.0
C236 C 0.82573 0.3709 0.50637 0.0
C237 C 0.75292 0.27963 0.50321 0.0
C238 C 0.77189 0.31735 0.50386 0.0
C239 C 0.82891 0.42488 0.49597 0.0
C240 C 0.80893 0.38854 0.50071 0.0
H241 H 0.69468 0.21111 0.47225 0.0
H242 H 0.72584 0.2732 0.47384 0.0
H243 H 0.82111 0.32253 0.51154 0.0
H244 H 0.90435 0.49711 0.50991 0.0
H245 H 0.86687 0.44037 0.52137 0.0
C246 C 0.54761 0.74327 0.87559 0.0
C247 C 0.57215 0.74798 0.86126 0.0
C248 C 0.53504 0.76584 0.87741 0.0
C249 C 0.5526 0.85131 0.8635 0.0
H250 H 0.45437 0.81132 0.86301 0.0
C251 C 0.49237 0.9342 0.85132 0.0
C252 C 0.46518 0.92037 0.83625 0.0
C253 C 0.50318 0.91345 0.86004 0.0
C254 C 0.48185 0.8229 0.8632 0.0
H255 H 0.6027 0.78011 0.83765 0.0
H256 H 0.58095 0.81925 0.84081 0.0
H257 H 0.47959 0.77529 0.86727 0.0
H258 H 0.42669 0.87365 0.81941 0.0
H259 H 0.44609 0.83761 0.83412 0.0
H260 H 0.55493 0.89839 0.8581 0.0
C261 C 0.57186 0.79861 0.85097 0.0
C262 C 0.49633 0.80232 0.86588 0.0
C263 C 0.58436 0.77612 0.84914 0.0
C264 C 0.44773 0.88505 0.83098 0.0
C265 C 0.45876 0.86434 0.83954 0.0
C266 C 0.53815 0.87181 0.86072 0.0
C267 C 0.54681 0.79357 0.86496 0.0
C268 C 0.53181 0.81614 0.86543 0.0
C269 C 0.48729 0.87848 0.8537 0.0
C270 C 0.50254 0.85768 0.85995 0.0
H271 H 0.53796 0.72202 0.88531 0.0
H272 H 0.51597 0.76148 0.88847 0.0
H273 H 0.58006 0.86283 0.86343 0.0
H274 H 0.50607 0.96129 0.85589 0.0
H275 H 0.52476 0.92503 0.87124 0.0
C276 C 0.8363 0.57944 0.17666 0.0
C277 C 0.85834 0.56885 0.18465 0.0
C278 C 0.80098 0.55842 0.17679 0.0
C279 C 0.73864 0.46652 0.17714 0.0
H280 H 0.67444 0.49879 0.17111 0.0
C281 C 0.61356 0.38937 0.12846 0.0
C282 C 0.58485 0.39189 0.13334 0.0
C283 C 0.64453 0.40919 0.13984 0.0
C284 C 0.69179 0.48913 0.17314 0.0
H285 H 0.86016 0.52899 0.20084 0.0
H286 H 0.7989 0.49355 0.20223 0.0
H287 H 0.73272 0.53844 0.18411 0.0
H288 H 0.56572 0.41623 0.15451 0.0
H289 H 0.61976 0.45037 0.17475 0.0
H290 H 0.69768 0.41718 0.16649 0.0
C291 C 0.80884 0.51746 0.19502 0.0
C292 C 0.72544 0.51204 0.18033 0.0
C293 C 0.84417 0.53818 0.19453 0.0
C294 C 0.58748 0.41388 0.15029 0.0
C295 C 0.61849 0.43356 0.16183 0.0
C296 C 0.70495 0.44358 0.17028 0.0
C297 C 0.78675 0.52651 0.18528 0.0
C298 C 0.74965 0.50132 0.18164 0.0
C299 C 0.64754 0.4318 0.15655 0.0
C300 C 0.68145 0.45485 0.16737 0.0
H301 H 0.84627 0.60332 0.16942 0.0
H302 H 0.78499 0.56641 0.16907 0.0
H303 H 0.75638 0.45713 0.17775 0.0
H304 H 0.61245 0.3728 0.11544 0.0
H305 H 0.66643 0.4076 0.13499 0.0
C306 C 0.27982 0.83524 0.52342 0.0
C307 C 0.31219 0.83811 0.52367 0.0
C308 C 0.25132 0.8052 0.52858 0.0
C309 C 0.22008 0.71458 0.52461 0.0
H310 H 0.14289 0.70996 0.55199 0.0
C311 C 0.08936 0.59306 0.51395 0.0
C312 C 0.06279 0.59914 0.50846 0.0
C313 C 0.12039 0.61961 0.52283 0.0
C314 C 0.16423 0.71078 0.54432 0.0
H315 H 0.34031 0.81251 0.53111 0.0
H316 H 0.29024 0.75965 0.53961 0.0
H317 H 0.19768 0.76316 0.55495 0.0
H318 H 0.0471 0.63721 0.50921 0.0
H319 H 0.10115 0.68346 0.52406 0.0
H320 H 0.18645 0.6632 0.51279 0.0
C321 C 0.28705 0.78068 0.53528 0.0
C322 C 0.19559 0.74119 0.54608 0.0
C323 C 0.31563 0.81086 0.53029 0.0
C324 C 0.06711 0.63169 0.51318 0.0
C325 C 0.09812 0.65823 0.5219 0.0
C326 C 0.1887 0.6843 0.52269 0.0
C327 C 0.2545 0.77727 0.53398 0.0
C328 C 0.22348 0.7437 0.53567 0.0
C329 C 0.1255 0.65279 0.52626 0.0
C330 C 0.16007 0.68241 0.53189 0.0
H331 H 0.27608 0.85548 0.51816 0.0
H332 H 0.22649 0.80316 0.52715 0.0
H333 H 0.24104 0.71583 0.51623 0.0
H334 H 0.08668 0.56812 0.5107 0.0
H335 H 0.14075 0.61439 0.52634 0.0
C336 C 0.57338 0.33645 0.84103 0.0
C337 C 0.54674 0.33957 0.84949 0.0
C338 C 0.57932 0.3104 0.84644 0.0
C339 C 0.53211 0.22375 0.8615 0.0
H340 H 0.62146 0.23207 0.8662 0.0
C341 C 0.54308 0.10412 0.85272 0.0
C342 C 0.5667 0.10637 0.83834 0.0
C343 C 0.54475 0.13368 0.86165 0.0
C344 C 0.59632 0.2293 0.86495 0.0
H345 H 0.50624 0.31876 0.87082 0.0
H346 H 0.51653 0.27301 0.88021 0.0
H347 H 0.61664 0.28346 0.86748 0.0
H348 H 0.61237 0.14132 0.82346 0.0
H349 H 0.61466 0.19261 0.83842 0.0
H350 H 0.51169 0.16996 0.85758 0.0
C351 C 0.53279 0.29076 0.8694 0.0
C352 C 0.59359 0.25871 0.86574 0.0
C353 C 0.52702 0.317 0.86411 0.0
C354 C 0.59363 0.1387 0.83439 0.0
C355 C 0.59509 0.16822 0.84313 0.0
C356 C 0.53483 0.19441 0.86054 0.0
C357 C 0.55857 0.28681 0.86031 0.0
C358 C 0.5615 0.2562 0.86335 0.0
C359 C 0.56983 0.16605 0.85619 0.0
C360 C 0.56702 0.19682 0.86154 0.0
H361 H 0.58924 0.35379 0.82993 0.0
H362 H 0.59913 0.30778 0.83901 0.0
H363 H 0.50704 0.22098 0.85939 0.0
H364 H 0.52233 0.07953 0.85633 0.0
H365 H 0.52539 0.1311 0.87206 0.0
C366 C 0.55574 0.91269 0.50011 0.0
C367 C 0.52556 0.91435 0.50088 0.0
C368 C 0.55609 0.88295 0.5048 0.0
C369 C 0.50684 0.80319 0.53202 0.0
H370 H 0.56273 0.77386 0.50308 0.0
C371 C 0.49401 0.67114 0.54206 0.0
C372 C 0.52372 0.66858 0.54281 0.0
C373 C 0.49517 0.70139 0.53706 0.0
C374 C 0.54726 0.78186 0.51151 0.0
H375 H 0.4718 0.88523 0.50671 0.0
H376 H 0.47227 0.83351 0.51446 0.0
H377 H 0.56255 0.82521 0.49367 0.0
H378 H 0.57813 0.69634 0.5388 0.0
H379 H 0.58021 0.74924 0.53013 0.0
H380 H 0.4914 0.7598 0.54977 0.0
C381 C 0.49595 0.85541 0.51067 0.0
C382 C 0.54714 0.81142 0.50609 0.0
C383 C 0.49561 0.88513 0.50604 0.0
C384 C 0.55472 0.69729 0.53839 0.0
C385 C 0.55586 0.72762 0.53328 0.0
C386 C 0.50689 0.77364 0.53738 0.0
C387 C 0.52627 0.85392 0.51038 0.0
C388 C 0.52678 0.82249 0.5162 0.0
C389 C 0.52607 0.73014 0.53257 0.0
C390 C 0.52695 0.76237 0.52715 0.0
H391 H 0.57938 0.93465 0.49631 0.0
H392 H 0.58005 0.8831 0.50458 0.0
H393 H 0.4914 0.81112 0.54054 0.0
H394 H 0.4696 0.64964 0.54528 0.0
H395 H 0.47159 0.70202 0.5364 0.0
C396 C 0.65873 0.5155 0.83186 0.0
C397 C 0.65708 0.54556 0.83536 0.0
C398 C 0.68937 0.5155 0.83588 0.0
C399 C 0.7835 0.57382 0.84354 0.0
H400 H 0.78233 0.49925 0.87082 0.0
C401 C 0.90742 0.58501 0.87854 0.0
C402 C 0.91164 0.55627 0.87707 0.0
C403 C 0.87613 0.58233 0.87279 0.0
C404 C 0.78318 0.52011 0.86295 0.0
H405 H 0.68692 0.59931 0.84569 0.0
H406 H 0.73982 0.59926 0.85264 0.0
H407 H 0.72864 0.49703 0.86156 0.0
H408 H 0.8857 0.50192 0.86844 0.0
H409 H 0.83111 0.49726 0.8582 0.0
H410 H 0.83788 0.59699 0.84491 0.0
C411 C 0.7176 0.57567 0.84661 0.0
C412 C 0.75229 0.51882 0.85763 0.0
C413 C 0.68704 0.57564 0.84272 0.0
C414 C 0.88344 0.52461 0.86983 0.0
C415 C 0.85203 0.52192 0.86403 0.0
C416 C 0.81431 0.57508 0.84882 0.0
C417 C 0.71927 0.54561 0.84336 0.0
C418 C 0.75201 0.54587 0.84806 0.0
C419 C 0.84795 0.55082 0.8653 0.0
C420 C 0.81472 0.54847 0.85884 0.0
H421 H 0.63624 0.4918 0.82628 0.0
H422 H 0.68967 0.49191 0.83299 0.0
H423 H 0.78441 0.59483 0.83581 0.0
H424 H 0.92838 0.60981 0.88415 0.0
H425 H 0.87399 0.60507 0.87442 0.0
C426 C 0.14569 0.68894 0.16675 0.0
C427 C 0.14222 0.6574 0.17139 0.0
C428 C 0.17664 0.71958 0.17137 0.0
C429 C 0.25622 0.7563 0.20539 0.0
H430 H 0.28951 0.8312 0.16978 0.0
C431 C 0.36844 0.89061 0.23232 0.0
C432 C 0.39253 0.90932 0.21799 0.0
C433 C 0.33839 0.86015 0.226 0.0
C434 C 0.28077 0.81047 0.17985 0.0
H435 H 0.16937 0.63367 0.18402 0.0
H436 H 0.22299 0.68665 0.19179 0.0
H437 H 0.23698 0.77778 0.15951 0.0
H438 H 0.40346 0.91032 0.18559 0.0
H439 H 0.35111 0.85705 0.17457 0.0
H440 H 0.3001 0.78864 0.22559 0.0
C441 C 0.20166 0.68791 0.18494 0.0
C442 C 0.25035 0.77989 0.17406 0.0
C443 C 0.17082 0.65736 0.18034 0.0
C444 C 0.38555 0.89668 0.19708 0.0
C445 C 0.35537 0.86617 0.19074 0.0
C446 C 0.28651 0.78684 0.2112 0.0
C447 C 0.20499 0.71957 0.18078 0.0
C448 C 0.23759 0.7523 0.18675 0.0
C449 C 0.33137 0.84735 0.20513 0.0
C450 C 0.29925 0.81449 0.19858 0.0
H451 H 0.12429 0.69008 0.15991 0.0
H452 H 0.17801 0.74338 0.16807 0.0
H453 H 0.24716 0.73594 0.21575 0.0
H454 H 0.37272 0.89948 0.24853 0.0
H455 H 0.32042 0.84683 0.23753 0.0
C456 C 0.49982 0.10269 0.49488 0.0
C457 C 0.52857 0.10013 0.50057 0.0
C458 C 0.50037 0.1339 0.49777 0.0
C459 C 0.54885 0.21993 0.52694 0.0
H460 H 0.49945 0.24396 0.48807 0.0
C461 C 0.56502 0.35571 0.52874 0.0
C462 C 0.53564 0.35822 0.52508 0.0
C463 C 0.56371 0.32412 0.52611 0.0
C464 C 0.51312 0.23754 0.49921 0.0
H465 H 0.58083 0.12903 0.51336 0.0
H466 H 0.5821 0.18324 0.51786 0.0
H467 H 0.49833 0.18981 0.48239 0.0
H468 H 0.48171 0.32906 0.51584 0.0
H469 H 0.47945 0.27411 0.51125 0.0
H470 H 0.564 0.26795 0.54358 0.0
C471 C 0.55869 0.16102 0.51167 0.0
C472 C 0.51244 0.20633 0.49597 0.0
C473 C 0.55805 0.12981 0.50893 0.0
C474 C 0.50486 0.32818 0.51883 0.0
C475 C 0.50361 0.29664 0.51604 0.0
C476 C 0.54971 0.25123 0.53009 0.0
C477 C 0.52978 0.1636 0.50632 0.0
C478 C 0.53033 0.19697 0.50977 0.0
C479 C 0.53304 0.29414 0.51957 0.0
C480 C 0.53187 0.26053 0.51628 0.0
H481 H 0.47661 0.08041 0.48849 0.0
H482 H 0.4774 0.13451 0.49368 0.0
H483 H 0.5624 0.21359 0.5382 0.0
H484 H 0.5892 0.37824 0.5335 0.0
H485 H 0.58698 0.32335 0.52879 0.0
C486 C 0.43998 0.51323 0.83715 0.0
C487 C 0.47034 0.54366 0.83408 0.0
C488 C 0.40942 0.51327 0.8401 0.0
C489 C 0.37569 0.57044 0.85586 0.0
H490 H 0.29033 0.4966 0.83077 0.0
C491 C 0.2494 0.5743 0.85751 0.0
C492 C 0.21876 0.54358 0.85947 0.0
C493 C 0.28008 0.5744 0.85474 0.0
C494 C 0.31381 0.51723 0.83816 0.0
H495 H 0.49189 0.59807 0.83161 0.0
H496 H 0.43875 0.59808 0.83665 0.0
H497 H 0.34327 0.49658 0.82509 0.0
H498 H 0.19672 0.48886 0.86037 0.0
H499 H 0.25011 0.48907 0.85593 0.0
H500 H 0.34626 0.59103 0.86903 0.0
C501 C 0.43862 0.57416 0.83699 0.0
C502 C 0.3443 0.51723 0.83485 0.0
C503 C 0.46916 0.57411 0.83394 0.0
C504 C 0.21975 0.51302 0.85886 0.0
C505 C 0.25043 0.51312 0.85613 0.0
C506 C 0.34518 0.57039 0.85923 0.0
C507 C 0.4083 0.54376 0.84017 0.0
C508 C 0.37572 0.54384 0.84364 0.0
C509 C 0.28107 0.54379 0.85388 0.0
C510 C 0.31373 0.54378 0.85042 0.0
H511 H 0.43978 0.48927 0.83744 0.0
H512 H 0.38677 0.48941 0.84273 0.0
H513 H 0.39924 0.59111 0.86317 0.0
H514 H 0.24965 0.59833 0.85781 0.0
H515 H 0.30291 0.59851 0.85281 0.0
C516 C 0.92536 0.47802 0.1763 0.0
C517 C 0.95399 0.47686 0.16932 0.0
C518 C 0.89496 0.4479 0.17958 0.0
C519 C 0.8488 0.35324 0.1671 0.0
H520 H 0.79622 0.35202 0.21366 0.0
C521 C 0.73576 0.22703 0.19215 0.0
C522 C 0.70635 0.22744 0.19825 0.0
C523 C 0.76581 0.25747 0.1889 0.0
C524 C 0.81035 0.35192 0.20045 0.0
H525 H 0.97264 0.44261 0.16032 0.0
H526 H 0.92014 0.39045 0.16626 0.0
H527 H 0.84812 0.40458 0.20715 0.0
H528 H 0.68594 0.26063 0.20593 0.0
H529 H 0.73818 0.31357 0.20026 0.0
H530 H 0.81113 0.30052 0.16048 0.0
C531 C 0.92085 0.41458 0.1689 0.0
C532 C 0.84021 0.38221 0.19667 0.0
C533 C 0.95119 0.44466 0.16557 0.0
C534 C 0.70805 0.25924 0.20132 0.0
C535 C 0.73815 0.2897 0.19814 0.0
C536 C 0.81901 0.32295 0.17092 0.0
C537 C 0.89225 0.41566 0.17604 0.0
C538 C 0.85999 0.38338 0.17994 0.0
C539 C 0.76744 0.28929 0.1917 0.0
C540 C 0.79932 0.32176 0.18767 0.0
H541 H 0.9264 0.50226 0.17933 0.0
H542 H 0.87347 0.44994 0.18477 0.0
H543 H 0.86281 0.35307 0.15384 0.0
H544 H 0.73551 0.2031 0.18964 0.0
H545 H 0.78789 0.25603 0.18427 0.0
C546 C 0.07752 0.5574 0.09157 0.0
C547 C 0.0533 0.56336 0.10118 0.0
C548 C 0.07844 0.55564 0.07 0.0
C549 C 0.02638 0.54281 0.02151 0.0
H550 H 0.11405 0.58044 0.99706 0.0
C551 C 0.04401 0.55354 0.9326 0.0
C552 C 0.06722 0.54445 0.92463 0.0
C553 C 0.0408 0.55593 0.95404 0.0
C554 C 0.08932 0.56958 0.00364 0.0
H555 H 1.01115 0.57234 0.09552 0.0
H556 H 1.01319 0.5699 0.058 0.0
H557 H 0.11178 0.58482 0.03448 0.0
H558 H 0.10471 0.53005 0.93314 0.0
H559 H 0.09915 0.53425 0.97011 0.0
H560 H 1.00408 0.52782 0.99047 0.0
C561 C 0.03111 0.56597 0.06709 0.0
C562 C 0.088 0.57199 0.02513 0.0
C563 C 0.03009 0.56759 0.08866 0.0
C564 C 0.08673 0.53739 0.93862 0.0
C565 C 0.08367 0.53993 0.9599 0.0
C566 C 0.02773 0.54057 0.99994 0.0
C567 C 0.0553 0.55997 0.05744 0.0
C568 C 0.05653 0.55831 0.03442 0.0
C569 C 0.061 0.5496 0.96794 0.0
C570 C 0.05922 0.55355 0.99076 0.0
H571 H 0.09565 0.55381 0.10069 0.0
H572 H 0.09707 0.5504 0.06316 0.0
H573 H 1.00165 0.53165 0.02807 0.0
H574 H 0.02909 0.55985 0.92244 0.0
H575 H 0.02326 0.56369 0.95976 0.0
C576 C 0.56706 0.04414 0.42502 0.0
C577 C 0.53646 0.01925 0.43276 0.0
C578 C 0.56956 0.04845 0.40377 0.0
C579 C 0.51743 0.0329 0.35544 0.0
H580 H 0.59845 0.04622 0.32881 0.0
C581 C 0.52886 0.04257 0.2667 0.0
C582 C 0.56073 0.06669 0.25994 0.0
C583 C 0.5252 0.03466 0.28745 0.0
C584 C 0.57577 0.04293 0.336 0.0
H585 H 0.48445 0.97944 0.42408 0.0
H586 H 0.48885 0.98708 0.38714 0.0
H587 H 0.59378 0.03749 0.36561 0.0
H588 H 0.61372 0.10147 0.26994 0.0
H589 H 0.60722 0.08837 0.30588 0.0
H590 H 0.49965 0.03898 0.32597 0.0
C591 C 0.51087 1.00336 0.39751 0.0
C592 C 0.57311 0.03788 0.35714 0.0
C593 C 0.50844 0.99886 0.41871 0.0
C594 C 0.58877 0.08262 0.27448 0.0
C595 C 0.58511 0.07486 0.29516 0.0
C596 C 0.52018 0.03819 0.33431 0.0
C597 C 0.54146 0.02818 0.38975 0.0
C598 C 0.544 0.03298 0.36716 0.0
C599 C 0.55328 0.05082 0.302 0.0
C600 C 0.54951 0.04351 0.32431 0.0
H601 H 0.58914 0.06033 0.43536 0.0
H602 H 0.59339 0.06805 0.39834 0.0
H603 H 0.4948 0.02957 0.36271 0.0
H604 H 0.50651 0.0304 0.25619 0.0
H605 H 0.5003 0.01586 0.29208 0.0
C606 C 0.5856 0.57942 0.75671 0.0
C607 C 0.56306 0.54995 0.76642 0.0
C608 C 0.58485 0.57938 0.73502 0.0
C609 C 0.5609 0.52041 0.68869 0.0
H610 H 0.55437 0.58887 0.65869 0.0
C611 C 0.52435 0.49546 0.60231 0.0
C612 C 0.54156 0.52198 0.58928 0.0
C613 C 0.5275 0.50205 0.62373 0.0
C614 C 0.55664 0.56978 0.66682 0.0
H615 H 0.52201 0.49742 0.76084 0.0
H616 H 0.52115 0.49732 0.72341 0.0
H617 H 0.56069 0.59516 0.69664 0.0
H618 H 0.57474 0.57658 0.58853 0.0
H619 H 0.58076 0.58822 0.62626 0.0
H620 H 0.55726 0.49508 0.65928 0.0
C621 C 0.53936 0.52045 0.73246 0.0
C622 C 0.56025 0.57341 0.68855 0.0
C623 C 0.53979 0.52061 0.75398 0.0
C624 C 0.56089 0.55565 0.59817 0.0
C625 C 0.56439 0.56227 0.61979 0.0
C626 C 0.55761 0.51694 0.66713 0.0
C627 C 0.56195 0.5497 0.72269 0.0
C628 C 0.56165 0.5483 0.69969 0.0
C629 C 0.54847 0.53534 0.63286 0.0
C630 C 0.55455 0.54107 0.65586 0.0
H631 H 0.60373 0.60248 0.76585 0.0
H632 H 0.60262 0.60227 0.7279 0.0
H633 H 0.56262 0.501 0.69681 0.0
H634 H 0.50892 0.46928 0.59593 0.0
H635 H 0.51391 0.48078 0.63319 0.0
C636 C 0.54308 0.99819 0.57187 0.0
C637 C 0.51658 0.9956 0.55879 0.0
C638 C 0.53884 0.99418 0.59302 0.0
C639 C 0.48703 0.99879 0.63479 0.0
H640 H 0.52235 0.9498 0.6644 0.0
C641 C 0.46077 0.97243 0.72012 0.0
C642 C 0.48904 0.97938 0.73317 0.0
C643 C 0.46271 0.97126 0.69865 0.0
C644 C 0.51254 0.96372 0.65635 0.0
H645 H 0.46461 0.98613 0.55766 0.0
H646 H 0.45717 0.9788 0.59438 0.0
H647 H 0.52886 0.9544 0.62723 0.0
H648 H 0.54112 0.98919 0.73384 0.0
H649 H 0.5445 0.98731 0.69641 0.0
H650 H 0.4709 1.00832 0.66386 0.0
C651 C 0.48143 0.98451 0.58839 0.0
C652 C 0.51633 0.96643 0.63508 0.0
C653 C 0.48568 0.98858 0.56729 0.0
C654 C 0.51886 0.98383 0.72425 0.0
C655 C 0.52077 0.98258 0.70278 0.0
C656 C 0.48319 0.99603 0.65601 0.0
C657 C 0.50801 0.98744 0.60153 0.0
C658 C 0.50369 0.98408 0.62408 0.0
C659 C 0.49293 0.97691 0.68975 0.0
C660 C 0.49597 0.97856 0.66705 0.0
H661 H 0.56723 1.00362 0.56584 0.0
H662 H 0.55995 0.99698 0.60276 0.0
H663 H 0.47753 0.01308 0.62686 0.0
H664 H 0.43734 0.9687 0.72645 0.0
H665 H 0.44064 0.96628 0.68901 0.0
C666 C 0.56174 0.55639 0.90726 0.0
C667 C 0.55359 0.53061 0.89146 0.0
C668 C 0.55514 0.54806 0.92783 0.0
C669 C 0.50017 0.47793 0.95875 0.0
H670 H 0.57554 0.51276 0.9999 0.0
C671 C 0.49467 0.4037 0.02843 0.0
C672 C 0.51073 0.42131 0.0475 0.0
C673 C 0.49794 0.42145 0.01091 0.0
C674 C 0.55401 0.50329 0.98878 0.0
H675 H 0.53128 0.47598 0.88469 0.0
H676 H 0.51924 0.46163 0.9202 0.0
H677 H 0.58456 0.53735 0.96636 0.0
H678 H 0.54424 0.47138 0.06286 0.0
H679 H 0.54886 0.50255 0.03245 0.0
H680 H 0.46963 0.44354 0.98078 0.0
C681 C 0.53098 0.48819 0.91683 0.0
C682 C 0.55924 0.51741 0.9696 0.0
C683 C 0.53816 0.49649 0.89651 0.0
C684 C 0.53042 0.45712 0.04862 0.0
C685 C 0.5336 0.47496 0.03107 0.0
C686 C 0.49483 0.4641 0.97793 0.0
C687 C 0.53947 0.5138 0.93269 0.0
C688 C 0.53262 0.50401 0.9542 0.0
C689 C 0.51743 0.45732 0.01198 0.0
C690 C 0.52197 0.47572 0.99292 0.0
H691 H 0.57367 0.58289 0.90376 0.0
H692 H 0.56198 0.56823 0.93988 0.0
H693 H 0.47916 0.46743 0.94716 0.0
H694 H 0.47959 0.37608 0.02702 0.0
H695 H 0.4858 0.4069 0.99639 0.0
C696 C 0.04232 0.5419 0.2399 0.0
C697 C 0.04204 0.56734 0.22855 0.0
C698 C 0.03935 0.54252 0.26132 0.0
C699 C 1.00813 0.57689 0.30274 0.0
H700 H 0.06305 0.55578 0.33917 0.0
C701 C 1.0067 0.59298 0.39116 0.0
C702 C 1.00446 0.56623 0.40228 0.0
C703 C 1.01372 0.5945 0.37026 0.0
C704 C 0.04735 0.56147 0.32918 0.0
H705 H 0.03881 0.6136 0.23087 0.0
H706 H 0.03396 0.61477 0.2681 0.0
H707 H 0.07014 0.55518 0.30196 0.0
H708 H 1.0089 0.52066 0.4003 0.0
H709 H 0.02082 0.52319 0.36381 0.0
H710 H 0.98515 0.58294 0.32983 0.0
C711 C 0.03602 0.5941 0.26045 0.0
C712 C 0.05138 0.56108 0.30787 0.0
C713 C 0.039 0.59351 0.23909 0.0
C714 C 1.01042 0.54162 0.39219 0.0
C715 C 0.01743 0.54314 0.37129 0.0
C716 C 1.00411 0.57727 0.324 0.0
C717 C 0.03597 0.56854 0.2718 0.0
C718 C 0.03182 0.56882 0.29443 0.0
C719 C 0.01865 0.56931 0.36001 0.0
C720 C 0.02367 0.56959 0.33747 0.0
H721 H 0.04458 0.52135 0.23226 0.0
H722 H 0.03904 0.52226 0.2696 0.0
H723 H 0.99223 0.58237 0.29277 0.0
H724 H 1.00246 0.61247 0.39847 0.0
H725 H 1.01506 0.61531 0.36209 0.0
loop_
_geom_bond_atom_site_label_1
_geom_bond_atom_site_label_2
_geom_bond_distance
_geom_bond_site_symmetry_2
_ccdc_geom_bond_type
Tb0 C9 2.736 1_455 S
Tb0 O10 2.323 1_455 S
Tb0 O13 2.318 . S
Tb0 O17 2.345 . S
Tb0 O18 2.357 . S
Tb0 O21 2.392 1_455 S
Tb0 O22 2.373 1_455 S
Tb1 O11 2.322 1_455 S
Tb1 O12 2.349 . S
Tb1 O14 2.415 . S
Tb1 O15 2.399 . S
Tb1 O16 2.325 . S
Tb1 O19 2.303 . S
Tb1 C30 2.764 . S
C2 O18 1.261 . S
C2 O19 1.257 . S
C3 C6 1.358 . S
C3 C7 1.332 . S
C3 C9 1.504 . S
C4 C5 1.373 . S
C4 C8 1.308 . S
C5 C4 1.373 . S
C5 C6 1.429 . S
C5 H32 0.932 . S
C6 C3 1.358 . S
C6 C5 1.429 . S
C6 H33 0.930 . S
C7 C3 1.332 . S
C7 C8 1.394 . S
C7 H34 0.932 . S
C8 C4 1.308 . S
C8 C7 1.394 . S
C8 H35 0.929 . S
C9 Tb0 2.736 1_655 S
C9 C3 1.504 . S
C9 O21 1.239 . S
C9 O22 1.263 . S
O10 Tb0 2.323 1_655 S
O10 C20 1.236 . S
O11 Tb1 2.322 1_655 S
O11 C20 1.257 . S
O12 Tb1 2.349 . S
O12 C23 1.261 . S
O13 Tb0 2.318 . S
O13 C23 1.257 . S
O14 Tb1 2.415 . S
O14 C30 1.239 . S
O15 Tb1 2.399 . S
O15 C30 1.263 . S
O16 Tb1 2.325 . S
O16 C31 1.236 . S
O17 Tb0 2.345 . S
O17 C31 1.257 . S
O18 Tb0 2.357 . S
O18 C2 1.261 . S
O19 Tb1 2.303 . S
O19 C2 1.257 . S
C20 O10 1.236 . S
C20 O11 1.257 . S
O21 Tb0 2.392 1_655 S
O21 C9 1.239 . S
O22 Tb0 2.373 1_655 S
O22 C9 1.263 . S
C23 O12 1.261 . S
C23 O13 1.257 . S
C24 C27 1.358 . S
C24 C28 1.332 . S
C24 C30 1.504 . S
C25 C26 1.373 . S
C25 C29 1.308 . S
C26 C25 1.373 . S
C26 C27 1.429 . S
C26 H36 0.932 . S
C27 C24 1.358 . S
C27 C26 1.429 . S
C27 H37 0.930 . S
C28 C24 1.332 . S
C28 C29 1.394 . S
C28 H38 0.932 . S
C29 C25 1.308 . S
C29 C28 1.394 . S
C29 H39 0.929 . S
C30 Tb1 2.764 . S
C30 O14 1.239 . S
C30 O15 1.263 . S
C30 C24 1.504 . S
C31 O16 1.236 . S
C31 O17 1.257 . S
H32 C5 0.932 . S
H33 C6 0.930 . S
H34 C7 0.932 . S
H35 C8 0.929 . S
H36 C26 0.932 . S
H37 C27 0.930 . S
H38 C28 0.932 . S
H39 C29 0.929 . S
Tb40 C49 2.764 1_545 S
Tb40 O50 2.325 1_545 S
Tb40 O53 2.303 . S
Tb40 O57 2.322 . S
Tb40 O58 2.349 . S
Tb40 O61 2.415 1_545 S
Tb40 O62 2.399 1_545 S
Tb41 O51 2.332 . S
Tb41 O52 2.349 . S
Tb41 O54 2.415 . S
Tb41 O55 2.399 . S
Tb41 O56 2.325 . S
Tb41 O59 2.303 . S
Tb41 C70 2.764 . S
C42 O58 1.261 . S
C42 O59 1.257 . S
C43 C46 1.358 . S
C43 C47 1.332 . S
C43 C49 1.504 . S
C44 C45 1.373 . S
C44 C48 1.308 . S
C45 C44 1.373 . S
C45 C46 1.429 . S
C45 H72 0.932 . S
C46 C43 1.358 . S
C46 C45 1.429 . S
C46 H73 0.930 . S
C47 C43 1.332 . S
C47 C48 1.394 . S
C47 H74 0.932 . S
C48 C44 1.308 . S
C48 C47 1.394 . S
C48 H75 0.929 . S
C49 Tb40 2.764 1_565 S
C49 C43 1.504 . S
C49 O61 1.239 . S
C49 O62 1.263 . S
O50 Tb40 2.325 1_565 S
O50 C60 1.236 . S
O51 Tb41 2.332 . S
O51 C60 1.252 1_545 S
O52 Tb41 2.349 . S
O52 C63 1.261 . S
O53 Tb40 2.303 . S
O53 C63 1.257 . S
O54 Tb41 2.415 . S
O54 C70 1.239 . S
O55 Tb41 2.399 . S
O55 C70 1.263 . S
O56 Tb41 2.325 . S
O56 C71 1.236 . S
O57 Tb40 2.322 . S
O57 C71 1.257 . S
O58 Tb40 2.349 . S
O58 C42 1.261 . S
O59 Tb41 2.303 . S
O59 C42 1.257 . S
C60 O50 1.236 . S
C60 O51 1.252 1_565 S
O61 Tb40 2.415 1_565 S
O61 C49 1.239 . S
O62 Tb40 2.399 1_565 S
O62 C49 1.263 . S
C63 O52 1.261 . S
C63 O53 1.257 . S
C64 C67 1.358 . S
C64 C68 1.332 . S
C64 C70 1.504 . S
C65 C66 1.373 . S
C65 C69 1.308 . S
C66 C65 1.373 . S
C66 C67 1.429 . S
C66 H76 0.932 . S
C67 C64 1.358 . S
C67 C66 1.429 . S
C67 H77 0.930 . S
C68 C64 1.332 . S
C68 C69 1.394 . S
C68 H78 0.932 . S
C69 C65 1.308 . S
C69 C68 1.394 . S
C69 H79 0.929 . S
C70 Tb41 2.764 . S
C70 O54 1.239 . S
C70 O55 1.263 . S
C70 C64 1.504 . S
C71 O56 1.236 . S
C71 O57 1.257 . S
H72 C45 0.932 . S
H73 C46 0.930 . S
H74 C47 0.932 . S
H75 C48 0.929 . S
H76 C66 0.932 . S
H77 C67 0.930 . S
H78 C68 0.932 . S
H79 C69 0.929 . S
Tb80 C89 2.764 . S
Tb80 O90 2.325 . S
Tb80 O93 2.303 . S
Tb80 O97 2.322 . S
Tb80 O98 2.349 . S
Tb80 O101 2.415 . S
Tb80 O102 2.399 . S
Tb81 O91 2.322 . S
Tb81 O92 2.349 . S
Tb81 O94 2.415 . S
Tb81 O95 2.399 . S
Tb81 O96 2.325 . S
Tb81 O99 2.303 . S
Tb81 C110 2.764 . S
C82 O98 1.261 . S
C82 O99 1.257 . S
C83 C86 1.358 . S
C83 C87 1.332 . S
C83 C89 1.504 . S
C84 C85 1.373 . S
C84 C88 1.308 . S
C85 C84 1.373 . S
C85 C86 1.429 . S
C85 H112 0.932 . S
C86 C83 1.358 . S
C86 C85 1.429 . S
C86 H113 0.930 . S
C87 C83 1.332 . S
C87 C88 1.394 . S
C87 H114 0.932 . S
C88 C84 1.308 . S
C88 C87 1.394 . S
C88 H115 0.929 . S
C89 Tb80 2.764 . S
C89 C83 1.504 . S
C89 O101 1.239 . S
C89 O102 1.263 . S
O90 Tb80 2.325 . S
O90 C100 1.236 . S
O91 Tb81 2.322 . S
O91 C100 1.257 . S
O92 Tb81 2.349 . S
O92 C103 1.261 . S
O93 Tb80 2.303 . S
O93 C103 1.257 . S
O94 Tb81 2.415 . S
O94 C110 1.239 . S
O95 Tb81 2.399 . S
O95 C110 1.263 . S
O96 Tb81 2.325 . S
O96 C111 1.236 . S
O97 Tb80 2.322 . S
O97 C111 1.257 . S
O98 Tb80 2.349 . S
O98 C82 1.261 . S
O99 Tb81 2.303 . S
O99 C82 1.257 . S
C100 O90 1.236 . S
C100 O91 1.257 . S
O101 Tb80 2.415 . S
O101 C89 1.239 . S
O102 Tb80 2.399 . S
O102 C89 1.263 . S
C103 O92 1.261 . S
C103 O93 1.257 . S
C104 C107 1.358 . S
C104 C108 1.332 . S
C104 C110 1.504 . S
C105 C106 1.373 . S
C105 C109 1.308 . S
C106 C105 1.373 . S
C106 C107 1.429 . S
C106 H116 0.932 . S
C107 C104 1.358 . S
C107 C106 1.429 . S
C107 H117 0.930 . S
C108 C104 1.332 . S
C108 C109 1.394 . S
C108 H118 0.932 . S
C109 C105 1.308 . S
C109 C108 1.394 . S
C109 H119 0.929 . S
C110 Tb81 2.764 . S
C110 O94 1.239 . S
C110 O95 1.263 . S
C110 C104 1.504 . S
C111 O96 1.236 . S
C111 O97 1.257 . S
H112 C85 0.932 . S
H113 C86 0.930 . S
H114 C87 0.932 . S
H115 C88 0.929 . S
H116 C106 0.932 . S
H117 C107 0.930 . S
H118 C108 0.932 . S
H119 C109 0.929 . S
O120 Cd121 2.300 . S
O120 C127 1.275 . S
Cd121 O120 2.300 . S
Cd121 O129 2.381 . S
Cd121 O130 2.378 . S
O122 Cd123 2.385 1_545 S
O122 C127 1.255 . S
Cd123 O122 2.385 1_565 S
Cd123 O124 2.317 . S
O124 Cd123 2.317 . S
O124 C125 1.232 . S
C125 O124 1.232 . S
C125 O126 1.218 . S
O126 C125 1.218 . S
C127 O120 1.275 . S
C127 O122 1.255 . S
C128 O129 1.258 . S
C128 O130 1.256 . S
O129 Cd121 2.381 . S
O129 C128 1.258 . S
O130 Cd121 2.378 . S
O130 C128 1.256 . S
O131 Cd132 2.300 . S
O131 C138 1.275 . S
Cd132 O131 2.300 . S
Cd132 O140 2.381 . S
Cd132 O141 2.378 . S
O133 Cd134 2.385 . S
O133 C138 1.255 . S
Cd134 O133 2.385 . S
Cd134 O135 2.317 . S
O135 Cd134 2.317 . S
O135 C136 1.232 . S
C136 O135 1.232 . S
C136 O137 1.218 . S
O137 C136 1.218 . S
C138 O131 1.275 . S
C138 O133 1.255 . S
C139 O140 1.258 . S
C139 O141 1.256 . S
O140 Cd132 2.381 . S
O140 C139 1.258 . S
O141 Cd132 2.378 . S
O141 C139 1.256 . S
O142 Cd143 2.300 . S
O142 C149 1.275 . S
Cd143 O142 2.300 . S
Cd143 O151 2.381 . S
Cd143 O152 2.378 . S
O144 Cd145 2.385 1_455 S
O144 C149 1.255 . S
Cd145 O144 2.385 1_655 S
Cd145 O146 2.317 . S
O146 Cd145 2.317 . S
O146 C147 1.232 . S
C147 O146 1.232 . S
C147 O148 1.218 . S
O148 C147 1.218 . S
C149 O142 1.275 . S
C149 O144 1.255 . S
C150 O151 1.258 . S
C150 O152 1.256 . S
O151 Cd143 2.381 . S
O151 C150 1.258 . S
O152 Cd143 2.378 . S
O152 C150 1.256 . S
O153 Cd154 2.300 . S
O153 C160 1.275 1_455 S
Cd154 O153 2.300 . S
Cd154 O162 2.381 . S
Cd154 O163 2.378 . S
O155 Cd156 2.385 . S
O155 C160 1.255 . S
Cd156 O155 2.385 . S
Cd156 O157 2.317 . S
O157 Cd156 2.317 . S
O157 C158 1.232 . S
C158 O157 1.232 . S
C158 O159 1.218 . S
O159 C158 1.218 . S
C160 O153 1.275 1_655 S
C160 O155 1.255 . S
C161 O162 1.258 . S
C161 O163 1.256 . S
O162 Cd154 2.381 . S
O162 C161 1.258 . S
O163 Cd154 2.378 . S
O163 C161 1.256 . S
O164 Cd165 2.300 . S
O164 C171 1.275 1_565 S
Cd165 O164 2.300 . S
Cd165 O173 2.381 . S
Cd165 O174 2.378 . S
O166 Cd167 2.385 . S
O166 C171 1.255 . S
Cd167 O166 2.385 . S
Cd167 O168 2.317 . S
O168 Cd167 2.317 . S
O168 C169 1.232 . S
C169 O168 1.232 . S
C169 O170 1.218 . S
O170 C169 1.218 . S
C171 O164 1.275 1_545 S
C171 O166 1.255 . S
C172 O173 1.258 . S
C172 O174 1.256 . S
O173 Cd165 2.381 . S
O173 C172 1.258 . S
O174 Cd165 2.378 . S
O174 C172 1.256 . S
O175 Cd176 2.300 . S
O175 C182 1.275 . S
Cd176 O175 2.300 . S
Cd176 O184 2.381 . S
Cd176 O185 2.378 . S
O177 Cd178 2.385 . S
O177 C182 1.255 . S
Cd178 O177 2.385 . S
Cd178 O179 2.317 . S
O179 Cd178 2.317 . S
O179 C180 1.232 . S
C180 O179 1.232 . S
C180 O181 1.218 . S
O181 C180 1.218 . S
C182 O175 1.275 . S
C182 O177 1.255 . S
C183 O184 1.258 . S
C183 O185 1.256 . S
O184 Cd176 2.381 . S
O184 C183 1.258 . S
O185 Cd176 2.378 . S
O185 C183 1.256 . S
C186 C187 1.349 . S
C186 C188 1.327 . S
C186 H211 0.950 . S
C187 C186 1.349 . S
C187 C203 1.349 . S
C188 C186 1.327 . S
C188 C207 1.429 . S
C188 H212 0.950 . S
C189 C206 1.574 . S
C189 C208 1.368 . S
C189 H213 0.949 . S
H190 C194 0.949 . S
C191 C192 1.349 . S
C191 C193 1.327 . S
C191 H214 0.950 . S
C192 C191 1.349 . S
C192 C204 1.349 . S
C193 C191 1.327 . S
C193 C209 1.429 . S
C193 H215 0.950 . S
C194 H190 0.949 . S
C194 C202 1.574 . S
C194 C210 1.368 . S
H195 C203 0.950 . S
H196 C201 0.950 . S
H197 C202 0.949 . S
H198 C204 0.950 . S
H199 C205 0.950 . S
H200 C206 0.949 . S
C201 H196 0.950 . S
C201 C203 1.327 . S
C201 C207 1.429 . S
C202 C194 1.574 . S
C202 H197 0.949 . S
C202 C208 1.368 . S
C203 C187 1.349 . S
C203 H195 0.950 . S
C203 C201 1.327 . S
C204 C192 1.349 . S
C204 H198 0.950 . S
C204 C205 1.327 . S
C205 H199 0.950 . S
C205 C204 1.327 . S
C205 C209 1.429 . S
C206 C189 1.574 . S
C206 H200 0.949 . S
C206 C210 1.368 . S
C207 C188 1.429 . S
C207 C201 1.429 . S
C207 C208 1.523 . S
C208 C189 1.368 . S
C208 C202 1.368 . S
C208 C207 1.523 . S
C209 C193 1.429 . S
C209 C205 1.429 . S
C209 C210 1.523 . S
C210 C194 1.368 . S
C210 C206 1.368 . S
C210 C209 1.523 . S
H211 C186 0.950 . S
H212 C188 0.950 . S
H213 C189 0.949 . S
H214 C191 0.950 . S
H215 C193 0.950 . S
C216 C217 1.349 . S
C216 C218 1.327 . S
C216 H241 0.950 . S
C217 C216 1.349 . S
C217 C233 1.349 . S
C218 C216 1.327 . S
C218 C237 1.429 . S
C218 H242 0.950 . S
C219 C236 1.574 . S
C219 C238 1.368 . S
C219 H243 0.949 . S
H220 C224 0.949 . S
C221 C222 1.349 . S
C221 C223 1.327 . S
C221 H244 0.950 . S
C222 C221 1.349 . S
C222 C234 1.349 . S
C223 C221 1.327 . S
C223 C239 1.429 . S
C223 H245 0.950 . S
C224 H220 0.949 . S
C224 C232 1.574 . S
C224 C240 1.368 . S
H225 C233 0.950 . S
H226 C231 0.950 . S
H227 C232 0.949 . S
H228 C234 0.950 . S
H229 C235 0.950 . S
H230 C236 0.949 . S
C231 H226 0.950 . S
C231 C233 1.327 . S
C231 C237 1.429 . S
C232 C224 1.574 . S
C232 H227 0.949 . S
C232 C238 1.368 . S
C233 C217 1.349 . S
C233 H225 0.950 . S
C233 C231 1.327 . S
C234 C222 1.349 . S
C234 H228 0.950 . S
C234 C235 1.327 . S
C235 H229 0.950 . S
C235 C234 1.327 . S
C235 C239 1.429 . S
C236 C219 1.574 . S
C236 H230 0.949 . S
C236 C240 1.368 . S
C237 C218 1.429 . S
C237 C231 1.429 . S
C237 C238 1.523 . S
C238 C219 1.368 . S
C238 C232 1.368 . S
C238 C237 1.523 . S
C239 C223 1.429 . S
C239 C235 1.429 . S
C239 C240 1.523 . S
C240 C224 1.368 . S
C240 C236 1.368 . S
C240 C239 1.523 . S
H241 C216 0.950 . S
H242 C218 0.950 . S
H243 C219 0.949 . S
H244 C221 0.950 . S
H245 C223 0.950 . S
C246 C247 1.349 . S
C246 C248 1.327 . S
C246 H271 0.950 . S
C247 C246 1.349 . S
C247 C263 1.349 . S
C248 C246 1.327 . S
C248 C267 1.429 . S
C248 H272 0.950 . S
C249 C266 1.574 . S
C249 C268 1.368 . S
C249 H273 0.949 . S
H250 C254 0.949 . S
C251 C252 1.349 . S
C251 C253 1.327 . S
C251 H274 0.950 . S
C252 C251 1.349 . S
C252 C264 1.349 . S
C253 C251 1.327 . S
C253 C269 1.429 . S
C253 H275 0.950 . S
C254 H250 0.949 . S
C254 C262 1.574 . S
C254 C270 1.368 . S
H255 C263 0.950 . S
H256 C261 0.950 . S
H257 C262 0.949 . S
H258 C264 0.950 . S
H259 C265 0.950 . S
H260 C266 0.949 . S
C261 H256 0.950 . S
C261 C263 1.327 . S
C261 C267 1.429 . S
C262 C254 1.574 . S
C262 H257 0.949 . S
C262 C268 1.368 . S
C263 C247 1.349 . S
C263 H255 0.950 . S
C263 C261 1.327 . S
C264 C252 1.349 . S
C264 H258 0.950 . S
C264 C265 1.327 . S
C265 H259 0.950 . S
C265 C264 1.327 . S
C265 C269 1.429 . S
C266 C249 1.574 . S
C266 H260 0.949 . S
C266 C270 1.368 . S
C267 C248 1.429 . S
C267 C261 1.429 . S
C267 C268 1.523 . S
C268 C249 1.368 . S
C268 C262 1.368 . S
C268 C267 1.523 . S
C269 C253 1.429 . S
C269 C265 1.429 . S
C269 C270 1.523 . S
C270 C254 1.368 . S
C270 C266 1.368 . S
C270 C269 1.523 . S
H271 C246 0.950 . S
H272 C248 0.950 . S
H273 C249 0.949 . S
H274 C251 0.950 . S
H275 C253 0.950 . S
C276 C277 1.349 . S
C276 C278 1.327 . S
C276 H301 0.950 . S
C277 C276 1.349 . S
C277 C293 1.349 . S
C278 C276 1.327 . S
C278 C297 1.429 . S
C278 H302 0.950 . S
C279 C296 1.574 . S
C279 C298 1.368 . S
C279 H303 0.949 . S
H280 C284 0.949 . S
C281 C282 1.349 . S
C281 C283 1.327 . S
C281 H304 0.950 . S
C282 C281 1.349 . S
C282 C294 1.349 . S
C283 C281 1.327 . S
C283 C299 1.429 . S
C283 H305 0.950 . S
C284 H280 0.949 . S
C284 C292 1.574 . S
C284 C300 1.368 . S
H285 C293 0.950 . S
H286 C291 0.950 . S
H287 C292 0.949 . S
H288 C294 0.950 . S
H289 C295 0.950 . S
H290 C296 0.949 . S
C291 H286 0.950 . S
C291 C293 1.327 . S
C291 C297 1.429 . S
C292 C284 1.574 . S
C292 H287 0.949 . S
C292 C298 1.368 . S
C293 C277 1.349 . S
C293 H285 0.950 . S
C293 C291 1.327 . S
C294 C282 1.349 . S
C294 H288 0.950 . S
C294 C295 1.327 . S
C295 H289 0.950 . S
C295 C294 1.327 . S
C295 C299 1.429 . S
C296 C279 1.574 . S
C296 H290 0.949 . S
C296 C300 1.368 . S
C297 C278 1.429 . S
C297 C291 1.429 . S
C297 C298 1.523 . S
C298 C279 1.368 . S
C298 C292 1.368 . S
C298 C297 1.523 . S
C299 C283 1.429 . S
C299 C295 1.429 . S
C299 C300 1.523 . S
C300 C284 1.368 . S
C300 C296 1.368 . S
C300 C299 1.523 . S
H301 C276 0.950 . S
H302 C278 0.950 . S
H303 C279 0.949 . S
H304 C281 0.950 . S
H305 C283 0.950 . S
C306 C307 1.349 . S
C306 C308 1.327 . S
C306 H331 0.950 . S
C307 C306 1.349 . S
C307 C323 1.349 . S
C308 C306 1.327 . S
C308 C327 1.429 . S
C308 H332 0.950 . S
C309 C326 1.574 . S
C309 C328 1.368 . S
C309 H333 0.949 . S
H310 C314 0.949 . S
C311 C312 1.349 . S
C311 C313 1.327 . S
C311 H334 0.950 . S
C312 C311 1.349 . S
C312 C324 1.349 . S
C313 C311 1.327 . S
C313 C329 1.429 . S
C313 H335 0.950 . S
C314 H310 0.949 . S
C314 C322 1.574 . S
C314 C330 1.368 . S
H315 C323 0.950 . S
H316 C321 0.950 . S
H317 C322 0.949 . S
H318 C324 0.950 . S
H319 C325 0.950 . S
H320 C326 0.949 . S
C321 H316 0.950 . S
C321 C323 1.327 . S
C321 C327 1.429 . S
C322 C314 1.574 . S
C322 H317 0.949 . S
C322 C328 1.368 . S
C323 C307 1.349 . S
C323 H315 0.950 . S
C323 C321 1.327 . S
C324 C312 1.349 . S
C324 H318 0.950 . S
C324 C325 1.327 . S
C325 H319 0.950 . S
C325 C324 1.327 . S
C325 C329 1.429 . S
C326 C309 1.574 . S
C326 H320 0.949 . S
C326 C330 1.368 . S
C327 C308 1.429 . S
C327 C321 1.429 . S
C327 C328 1.523 . S
C328 C309 1.368 . S
C328 C322 1.368 . S
C328 C327 1.523 . S
C329 C313 1.429 . S
C329 C325 1.429 . S
C329 C330 1.523 . S
C330 C314 1.368 . S
C330 C326 1.368 . S
C330 C329 1.523 . S
H331 C306 0.950 . S
H332 C308 0.950 . S
H333 C309 0.949 . S
H334 C311 0.950 . S
H335 C313 0.950 . S
C336 C337 1.349 . S
C336 C338 1.327 . S
C336 H361 0.950 . S
C337 C336 1.349 . S
C337 C353 1.349 . S
C338 C336 1.327 . S
C338 C357 1.429 . S
C338 H362 0.950 . S
C339 C356 1.574 . S
C339 C358 1.368 . S
C339 H363 0.949 . S
H340 C344 0.949 . S
C341 C342 1.349 . S
C341 C343 1.327 . S
C341 H364 0.950 . S
C342 C341 1.349 . S
C342 C354 1.349 . S
C343 C341 1.327 . S
C343 C359 1.429 . S
C343 H365 0.950 . S
C344 H340 0.949 . S
C344 C352 1.574 . S
C344 C360 1.368 . S
H345 C353 0.950 . S
H346 C351 0.950 . S
H347 C352 0.949 . S
H348 C354 0.950 . S
H349 C355 0.950 . S
H350 C356 0.949 . S
C351 H346 0.950 . S
C351 C353 1.327 . S
C351 C357 1.429 . S
C352 C344 1.574 . S
C352 H347 0.949 . S
C352 C358 1.368 . S
C353 C337 1.349 . S
C353 H345 0.950 . S
C353 C351 1.327 . S
C354 C342 1.349 . S
C354 H348 0.950 . S
C354 C355 1.327 . S
C355 H349 0.950 . S
C355 C354 1.327 . S
C355 C359 1.429 . S
C356 C339 1.574 . S
C356 H350 0.949 . S
C356 C360 1.368 . S
C357 C338 1.429 . S
C357 C351 1.429 . S
C357 C358 1.523 . S
C358 C339 1.368 . S
C358 C352 1.368 . S
C358 C357 1.523 . S
C359 C343 1.429 . S
C359 C355 1.429 . S
C359 C360 1.523 . S
C360 C344 1.368 . S
C360 C356 1.368 . S
C360 C359 1.523 . S
H361 C336 0.950 . S
H362 C338 0.950 . S
H363 C339 0.949 . S
H364 C341 0.950 . S
H365 C343 0.950 . S
C366 C367 1.349 . S
C366 C368 1.327 . S
C366 H391 0.950 . S
C367 C366 1.349 . S
C367 C383 1.349 . S
C368 C366 1.327 . S
C368 C387 1.429 . S
C368 H392 0.950 . S
C369 C386 1.574 . S
C369 C388 1.368 . S
C369 H393 0.949 . S
H370 C374 0.949 . S
C371 C372 1.349 . S
C371 C373 1.327 . S
C371 H394 0.950 . S
C372 C371 1.349 . S
C372 C384 1.349 . S
C373 C371 1.327 . S
C373 C389 1.429 . S
C373 H395 0.950 . S
C374 H370 0.949 . S
C374 C382 1.574 . S
C374 C390 1.368 . S
H375 C383 0.950 . S
H376 C381 0.950 . S
H377 C382 0.949 . S
H378 C384 0.950 . S
H379 C385 0.950 . S
H380 C386 0.949 . S
C381 H376 0.950 . S
C381 C383 1.327 . S
C381 C387 1.429 . S
C382 C374 1.574 . S
C382 H377 0.949 . S
C382 C388 1.368 . S
C383 C367 1.349 . S
C383 H375 0.950 . S
C383 C381 1.327 . S
C384 C372 1.349 . S
C384 H378 0.950 . S
C384 C385 1.327 . S
C385 H379 0.950 . S
C385 C384 1.327 . S
C385 C389 1.429 . S
C386 C369 1.574 . S
C386 H380 0.949 . S
C386 C390 1.368 . S
C387 C368 1.429 . S
C387 C381 1.429 . S
C387 C388 1.523 . S
C388 C369 1.368 . S
C388 C382 1.368 . S
C388 C387 1.523 . S
C389 C373 1.429 . S
C389 C385 1.429 . S
C389 C390 1.523 . S
C390 C374 1.368 . S
C390 C386 1.368 . S
C390 C389 1.523 . S
H391 C366 0.950 . S
H392 C368 0.950 . S
H393 C369 0.949 . S
H394 C371 0.950 . S
H395 C373 0.950 . S
C396 C397 1.349 . S
C396 C398 1.327 . S
C396 H421 0.950 . S
C397 C396 1.349 . S
C397 C413 1.349 . S
C398 C396 1.327 . S
C398 C417 1.429 . S
C398 H422 0.950 . S
C399 C416 1.574 . S
C399 C418 1.368 . S
C399 H423 0.949 . S
H400 C404 0.949 . S
C401 C402 1.349 . S
C401 C403 1.327 . S
C401 H424 0.950 . S
C402 C401 1.349 . S
C402 C414 1.349 . S
C403 C401 1.327 . S
C403 C419 1.429 . S
C403 H425 0.950 . S
C404 H400 0.949 . S
C404 C412 1.574 . S
C404 C420 1.368 . S
H405 C413 0.950 . S
H406 C411 0.950 . S
H407 C412 0.949 . S
H408 C414 0.950 . S
H409 C415 0.950 . S
H410 C416 0.949 . S
C411 H406 0.950 . S
C411 C413 1.327 . S
C411 C417 1.429 . S
C412 C404 1.574 . S
C412 H407 0.949 . S
C412 C418 1.368 . S
C413 C397 1.349 . S
C413 H405 0.950 . S
C413 C411 1.327 . S
C414 C402 1.349 . S
C414 H408 0.950 . S
C414 C415 1.327 . S
C415 H409 0.950 . S
C415 C414 1.327 . S
C415 C419 1.429 . S
C416 C399 1.574 . S
C416 H410 0.949 . S
C416 C420 1.368 . S
C417 C398 1.429 . S
C417 C411 1.429 . S
C417 C418 1.523 . S
C418 C399 1.368 . S
C418 C412 1.368 . S
C418 C417 1.523 . S
C419 C403 1.429 . S
C419 C415 1.429 . S
C419 C420 1.523 . S
C420 C404 1.368 . S
C420 C416 1.368 . S
C420 C419 1.523 . S
H421 C396 0.950 . S
H422 C398 0.950 . S
H423 C399 0.949 . S
H424 C401 0.950 . S
H425 C403 0.950 . S
C426 C427 1.349 . S
C426 C428 1.327 . S
C426 H451 0.950 . S
C427 C426 1.349 . S
C427 C443 1.349 . S
C428 C426 1.327 . S
C428 C447 1.429 . S
C428 H452 0.950 . S
C429 C446 1.574 . S
C429 C448 1.368 . S
C429 H453 0.949 . S
H430 C434 0.949 . S
C431 C432 1.349 . S
C431 C433 1.327 . S
C431 H454 0.950 . S
C432 C431 1.349 . S
C432 C444 1.349 . S
C433 C431 1.327 . S
C433 C449 1.429 . S
C433 H455 0.950 . S
C434 H430 0.949 . S
C434 C442 1.574 . S
C434 C450 1.368 . S
H435 C443 0.950 . S
H436 C441 0.950 . S
H437 C442 0.949 . S
H438 C444 0.950 . S
H439 C445 0.950 . S
H440 C446 0.949 . S
C441 H436 0.950 . S
C441 C443 1.327 . S
C441 C447 1.429 . S
C442 C434 1.574 . S
C442 H437 0.949 . S
C442 C448 1.368 . S
C443 C427 1.349 . S
C443 H435 0.950 . S
C443 C441 1.327 . S
C444 C432 1.349 . S
C444 H438 0.950 . S
C444 C445 1.327 . S
C445 H439 0.950 . S
C445 C444 1.327 . S
C445 C449 1.429 . S
C446 C429 1.574 . S
C446 H440 0.949 . S
C446 C450 1.368 . S
C447 C428 1.429 . S
C447 C441 1.429 . S
C447 C448 1.523 . S
C448 C429 1.368 . S
C448 C442 1.368 . S
C448 C447 1.523 . S
C449 C433 1.429 . S
C449 C445 1.429 . S
C449 C450 1.523 . S
C450 C434 1.368 . S
C450 C446 1.368 . S
C450 C449 1.523 . S
H451 C426 0.950 . S
H452 C428 0.950 . S
H453 C429 0.949 . S
H454 C431 0.950 . S
H455 C433 0.950 . S
C456 C457 1.349 . S
C456 C458 1.327 . S
C456 H481 0.950 . S
C457 C456 1.349 . S
C457 C473 1.349 . S
C458 C456 1.327 . S
C458 C477 1.429 . S
C458 H482 0.950 . S
C459 C476 1.574 . S
C459 C478 1.368 . S
C459 H483 0.949 . S
H460 C464 0.949 . S
C461 C462 1.349 . S
C461 C463 1.327 . S
C461 H484 0.950 . S
C462 C461 1.349 . S
C462 C474 1.349 . S
C463 C461 1.327 . S
C463 C479 1.429 . S
C463 H485 0.950 . S
C464 H460 0.949 . S
C464 C472 1.574 . S
C464 C480 1.368 . S
H465 C473 0.950 . S
H466 C471 0.950 . S
H467 C472 0.949 . S
H468 C474 0.950 . S
H469 C475 0.950 . S
H470 C476 0.949 . S
C471 H466 0.950 . S
C471 C473 1.327 . S
C471 C477 1.429 . S
C472 C464 1.574 . S
C472 H467 0.949 . S
C472 C478 1.368 . S
C473 C457 1.349 . S
C473 H465 0.950 . S
C473 C471 1.327 . S
C474 C462 1.349 . S
C474 H468 0.950 . S
C474 C475 1.327 . S
C475 H469 0.950 . S
C475 C474 1.327 . S
C475 C479 1.429 . S
C476 C459 1.574 . S
C476 H470 0.949 . S
C476 C480 1.368 . S
C477 C458 1.429 . S
C477 C471 1.429 . S
C477 C478 1.523 . S
C478 C459 1.368 . S
C478 C472 1.368 . S
C478 C477 1.523 . S
C479 C463 1.429 . S
C479 C475 1.429 . S
C479 C480 1.523 . S
C480 C464 1.368 . S
C480 C476 1.368 . S
C480 C479 1.523 . S
H481 C456 0.950 . S
H482 C458 0.950 . S
H483 C459 0.949 . S
H484 C461 0.950 . S
H485 C463 0.950 . S
C486 C487 1.349 . S
C486 C488 1.327 . S
C486 H511 0.950 . S
C487 C486 1.349 . S
C487 C503 1.349 . S
C488 C486 1.327 . S
C488 C507 1.429 . S
C488 H512 0.950 . S
C489 C506 1.574 . S
C489 C508 1.368 . S
C489 H513 0.949 . S
H490 C494 0.949 . S
C491 C492 1.349 . S
C491 C493 1.327 . S
C491 H514 0.950 . S
C492 C491 1.349 . S
C492 C504 1.349 . S
C493 C491 1.327 . S
C493 C509 1.429 . S
C493 H515 0.950 . S
C494 H490 0.949 . S
C494 C502 1.574 . S
C494 C510 1.368 . S
H495 C503 0.950 . S
H496 C501 0.950 . S
H497 C502 0.949 . S
H498 C504 0.950 . S
H499 C505 0.950 . S
H500 C506 0.949 . S
C501 H496 0.950 . S
C501 C503 1.327 . S
C501 C507 1.429 . S
C502 C494 1.574 . S
C502 H497 0.949 . S
C502 C508 1.368 . S
C503 C487 1.349 . S
C503 H495 0.950 . S
C503 C501 1.327 . S
C504 C492 1.349 . S
C504 H498 0.950 . S
C504 C505 1.327 . S
C505 H499 0.950 . S
C505 C504 1.327 . S
C505 C509 1.429 . S
C506 C489 1.574 . S
C506 H500 0.949 . S
C506 C510 1.368 . S
C507 C488 1.429 . S
C507 C501 1.429 . S
C507 C508 1.523 . S
C508 C489 1.368 . S
C508 C502 1.368 . S
C508 C507 1.523 . S
C509 C493 1.429 . S
C509 C505 1.429 . S
C509 C510 1.523 . S
C510 C494 1.368 . S
C510 C506 1.368 . S
C510 C509 1.523 . S
H511 C486 0.950 . S
H512 C488 0.950 . S
H513 C489 0.949 . S
H514 C491 0.950 . S
H515 C493 0.950 . S
C516 C517 1.349 . S
C516 C518 1.327 . S
C516 H541 0.950 . S
C517 C516 1.349 . S
C517 C533 1.349 . S
C518 C516 1.327 . S
C518 C537 1.429 . S
C518 H542 0.950 . S
C519 C536 1.574 . S
C519 C538 1.368 . S
C519 H543 0.949 . S
H520 C524 0.949 . S
C521 C522 1.349 . S
C521 C523 1.327 . S
C521 H544 0.950 . S
C522 C521 1.349 . S
C522 C534 1.349 . S
C523 C521 1.327 . S
C523 C539 1.429 . S
C523 H545 0.950 . S
C524 H520 0.949 . S
C524 C532 1.574 . S
C524 C540 1.368 . S
H525 C533 0.950 . S
H526 C531 0.950 . S
H527 C532 0.949 . S
H528 C534 0.950 . S
H529 C535 0.950 . S
H530 C536 0.949 . S
C531 H526 0.950 . S
C531 C533 1.327 . S
C531 C537 1.429 . S
C532 C524 1.574 . S
C532 H527 0.949 . S
C532 C538 1.368 . S
C533 C517 1.349 . S
C533 H525 0.950 . S
C533 C531 1.327 . S
C534 C522 1.349 . S
C534 H528 0.950 . S
C534 C535 1.327 . S
C535 H529 0.950 . S
C535 C534 1.327 . S
C535 C539 1.429 . S
C536 C519 1.574 . S
C536 H530 0.949 . S
C536 C540 1.368 . S
C537 C518 1.429 . S
C537 C531 1.429 . S
C537 C538 1.523 . S
C538 C519 1.368 . S
C538 C532 1.368 . S
C538 C537 1.523 . S
C539 C523 1.429 . S
C539 C535 1.429 . S
C539 C540 1.523 . S
C540 C524 1.368 . S
C540 C536 1.368 . S
C540 C539 1.523 . S
H541 C516 0.950 . S
H542 C518 0.950 . S
H543 C519 0.949 . S
H544 C521 0.950 . S
H545 C523 0.950 . S
C546 C547 1.349 . S
C546 C548 1.327 . S
C546 H571 0.950 . S
C547 C546 1.349 . S
C547 C563 1.349 . S
C548 C546 1.327 . S
C548 C567 1.429 . S
C548 H572 0.950 . S
C549 C566 1.574 . S
C549 C568 1.368 . S
C549 H573 0.949 1_455 S
H550 C554 0.949 . S
C551 C552 1.349 . S
C551 C553 1.327 . S
C551 H574 0.950 1_455 S
C552 C551 1.349 . S
C552 C564 1.349 . S
C553 C551 1.327 . S
C553 C569 1.429 . S
C553 H575 0.950 1_455 S
C554 H550 0.949 . S
C554 C562 1.574 . S
C554 C570 1.368 . S
H555 C563 0.950 1_655 S
H556 C561 0.950 1_655 S
H557 C562 0.949 . S
H558 C564 0.950 . S
H559 C565 0.950 . S
H560 C566 0.949 1_656 S
C561 H556 0.950 1_455 S
C561 C563 1.327 . S
C561 C567 1.429 . S
C562 C554 1.574 . S
C562 H557 0.949 . S
C562 C568 1.368 . S
C563 C547 1.349 . S
C563 H555 0.950 1_455 S
C563 C561 1.327 . S
C564 C552 1.349 . S
C564 H558 0.950 . S
C564 C565 1.327 . S
C565 H559 0.950 . S
C565 C564 1.327 . S
C565 C569 1.429 . S
C566 C549 1.574 . S
C566 H560 0.949 1_454 S
C566 C570 1.368 . S
C567 C548 1.429 . S
C567 C561 1.429 . S
C567 C568 1.523 . S
C568 C549 1.368 . S
C568 C562 1.368 . S
C568 C567 1.523 . S
C569 C553 1.429 . S
C569 C565 1.429 . S
C569 C570 1.523 1_556 S
C570 C554 1.368 . S
C570 C566 1.368 . S
C570 C569 1.523 1_554 S
H571 C546 0.950 . S
H572 C548 0.950 . S
H573 C549 0.949 1_655 S
H574 C551 0.950 1_655 S
H575 C553 0.950 1_655 S
C576 C577 1.349 . S
C576 C578 1.327 . S
C576 H601 0.950 . S
C577 C576 1.349 . S
C577 C593 1.349 . S
C578 C576 1.327 . S
C578 C597 1.429 . S
C578 H602 0.950 . S
C579 C596 1.574 . S
C579 C598 1.368 . S
C579 H603 0.949 1_545 S
H580 C584 0.949 . S
C581 C582 1.349 . S
C581 C583 1.327 . S
C581 H604 0.950 1_545 S
C582 C581 1.349 . S
C582 C594 1.349 . S
C583 C581 1.327 . S
C583 C599 1.429 . S
C583 H605 0.950 1_545 S
C584 H580 0.949 . S
C584 C592 1.574 . S
C584 C600 1.368 . S
H585 C593 0.950 1_565 S
H586 C591 0.950 1_565 S
H587 C592 0.949 . S
H588 C594 0.950 . S
H589 C595 0.950 . S
H590 C596 0.949 1_565 S
C591 H586 0.950 1_545 S
C591 C593 1.327 . S
C591 C597 1.429 . S
C592 C584 1.574 . S
C592 H587 0.949 . S
C592 C598 1.368 . S
C593 C577 1.349 . S
C593 H585 0.950 1_545 S
C593 C591 1.327 . S
C594 C582 1.349 . S
C594 H588 0.950 . S
C594 C595 1.327 . S
C595 H589 0.950 . S
C595 C594 1.327 . S
C595 C599 1.429 . S
C596 C579 1.574 . S
C596 H590 0.949 1_545 S
C596 C600 1.368 . S
C597 C578 1.429 . S
C597 C591 1.429 . S
C597 C598 1.523 . S
C598 C579 1.368 . S
C598 C592 1.368 . S
C598 C597 1.523 . S
C599 C583 1.429 . S
C599 C595 1.429 . S
C599 C600 1.523 . S
C600 C584 1.368 . S
C600 C596 1.368 . S
C600 C599 1.523 . S
H601 C576 0.950 . S
H602 C578 0.950 . S
H603 C579 0.949 1_565 S
H604 C581 0.950 1_565 S
H605 C583 0.950 1_565 S
C606 C607 1.349 . S
C606 C608 1.327 . S
C606 H631 0.950 . S
C607 C606 1.349 . S
C607 C623 1.349 . S
C608 C606 1.327 . S
C608 C627 1.429 . S
C608 H632 0.950 . S
C609 C626 1.574 . S
C609 C628 1.368 . S
C609 H633 0.949 . S
H610 C614 0.949 . S
C611 C612 1.349 . S
C611 C613 1.327 . S
C611 H634 0.950 . S
C612 C611 1.349 . S
C612 C624 1.349 . S
C613 C611 1.327 . S
C613 C629 1.429 . S
C613 H635 0.950 . S
C614 H610 0.949 . S
C614 C622 1.574 . S
C614 C630 1.368 . S
H615 C623 0.950 . S
H616 C621 0.950 . S
H617 C622 0.949 . S
H618 C624 0.950 . S
H619 C625 0.950 . S
H620 C626 0.949 . S
C621 H616 0.950 . S
C621 C623 1.327 . S
C621 C627 1.429 . S
C622 C614 1.574 . S
C622 H617 0.949 . S
C622 C628 1.368 . S
C623 C607 1.349 . S
C623 H615 0.950 . S
C623 C621 1.327 . S
C624 C612 1.349 . S
C624 H618 0.950 . S
C624 C625 1.327 . S
C625 H619 0.950 . S
C625 C624 1.327 . S
C625 C629 1.429 . S
C626 C609 1.574 . S
C626 H620 0.949 . S
C626 C630 1.368 . S
C627 C608 1.429 . S
C627 C621 1.429 . S
C627 C628 1.523 . S
C628 C609 1.368 . S
C628 C622 1.368 . S
C628 C627 1.523 . S
C629 C613 1.429 . S
C629 C625 1.429 . S
C629 C630 1.523 . S
C630 C614 1.368 . S
C630 C626 1.368 . S
C630 C629 1.523 . S
H631 C606 0.950 . S
H632 C608 0.950 . S
H633 C609 0.949 . S
H634 C611 0.950 . S
H635 C613 0.950 . S
C636 C637 1.353 . S
C636 C638 1.327 1_545 S
C636 H661 0.946 1_545 S
C637 C636 1.353 . S
C637 C653 1.349 . S
C638 C636 1.327 1_565 S
C638 C657 1.429 1_565 S
C638 H662 0.950 . S
C639 C656 1.574 . S
C639 C658 1.368 . S
C639 H663 0.949 . S
H640 C644 0.949 . S
C641 C642 1.349 . S
C641 C643 1.327 . S
C641 H664 0.950 . S
C642 C641 1.349 . S
C642 C654 1.349 1_545 S
C643 C641 1.327 . S
C643 C659 1.429 . S
C643 H665 0.950 . S
C644 H640 0.949 . S
C644 C652 1.574 . S
C644 C660 1.368 1_565 S
H645 C653 0.950 . S
H646 C651 0.950 . S
H647 C652 0.949 . S
H648 C654 0.950 . S
H649 C655 0.950 . S
H650 C656 0.949 . S
C651 H646 0.950 . S
C651 C653 1.327 . S
C651 C657 1.429 . S
C652 C644 1.574 . S
C652 H647 0.949 . S
C652 C658 1.368 1_565 S
C653 C637 1.349 . S
C653 H645 0.950 . S
C653 C651 1.327 . S
C654 C642 1.349 1_565 S
C654 H648 0.950 . S
C654 C655 1.327 . S
C655 H649 0.950 . S
C655 C654 1.327 . S
C655 C659 1.429 1_565 S
C656 C639 1.574 . S
C656 H650 0.949 . S
C656 C660 1.368 . S
C657 C638 1.429 1_545 S
C657 C651 1.429 . S
C657 C658 1.523 . S
C658 C639 1.368 . S
C658 C652 1.368 1_545 S
C658 C657 1.523 . S
C659 C643 1.429 . S
C659 C655 1.429 1_545 S
C659 C660 1.523 . S
C660 C644 1.368 1_545 S
C660 C656 1.368 . S
C660 C659 1.523 . S
H661 C636 0.946 1_565 S
H662 C638 0.950 . S
H663 C639 0.949 . S
H664 C641 0.950 . S
H665 C643 0.950 . S
C666 C667 1.349 . S
C666 C668 1.327 . S
C666 H691 0.950 . S
C667 C666 1.349 . S
C667 C683 1.349 . S
C668 C666 1.327 . S
C668 C687 1.429 . S
C668 H692 0.950 . S
C669 C686 1.574 . S
C669 C688 1.368 . S
C669 H693 0.949 . S
H670 C674 0.949 1_554 S
C671 C672 1.349 . S
C671 C673 1.327 . S
C671 H694 0.950 . S
C672 C671 1.349 . S
C672 C684 1.349 . S
C673 C671 1.327 . S
C673 C689 1.429 . S
C673 H695 0.950 . S
C674 H670 0.949 1_556 S
C674 C682 1.574 . S
C674 C690 1.363 1_556 S
H675 C683 0.950 . S
H676 C681 0.950 . S
H677 C682 0.949 . S
H678 C684 0.950 . S
H679 C685 0.950 . S
H680 C686 0.949 . S
C681 H676 0.950 . S
C681 C683 1.327 . S
C681 C687 1.429 . S
C682 C674 1.574 . S
C682 H677 0.949 . S
C682 C688 1.368 . S
C683 C667 1.349 . S
C683 H675 0.950 . S
C683 C681 1.327 . S
C684 C672 1.349 . S
C684 H678 0.950 . S
C684 C685 1.327 . S
C685 H679 0.950 . S
C685 C684 1.327 . S
C685 C689 1.429 . S
C686 C669 1.574 . S
C686 H680 0.949 . S
C686 C690 1.361 1_556 S
C687 C668 1.429 . S
C687 C681 1.429 . S
C687 C688 1.523 . S
C688 C669 1.368 . S
C688 C682 1.368 . S
C688 C687 1.523 . S
C689 C673 1.429 . S
C689 C685 1.429 . S
C689 C690 1.539 . S
C690 C674 1.363 1_554 S
C690 C686 1.361 1_554 S
C690 C689 1.539 . S
H691 C666 0.950 . S
H692 C668 0.950 . S
H693 C669 0.949 . S
H694 C671 0.950 . S
H695 C673 0.950 . S
C696 C697 1.349 . S
C696 C698 1.327 . S
C696 H721 0.950 . S
C697 C696 1.349 . S
C697 C713 1.349 . S
C698 C696 1.327 . S
C698 C717 1.429 . S
C698 H722 0.950 . S
C699 C716 1.574 . S
C699 C718 1.368 . S
C699 H723 0.949 . S
H700 C704 0.949 . S
C701 C702 1.349 . S
C701 C703 1.327 . S
C701 H724 0.950 . S
C702 C701 1.349 . S
C702 C714 1.349 . S
C703 C701 1.327 . S
C703 C719 1.429 . S
C703 H725 0.950 . S
C704 H700 0.949 . S
C704 C712 1.574 . S
C704 C720 1.368 . S
H705 C713 0.950 . S
H706 C711 0.950 . S
H707 C712 0.949 . S
H708 C714 0.950 . S
H709 C715 0.950 1_455 S
H710 C716 0.931 1_655 S
C711 H706 0.950 . S
C711 C713 1.327 . S
C711 C717 1.429 . S
C712 C704 1.574 . S
C712 H707 0.949 . S
C712 C718 1.368 . S
C713 C697 1.349 . S
C713 H705 0.950 . S
C713 C711 1.327 . S
C714 C702 1.349 . S
C714 H708 0.950 . S
C714 C715 1.327 . S
C715 H709 0.950 1_655 S
C715 C714 1.327 . S
C715 C719 1.429 . S
C716 C699 1.574 . S
C716 H710 0.931 1_455 S
C716 C720 1.368 . S
C717 C698 1.429 . S
C717 C711 1.429 . S
C717 C718 1.523 . S
C718 C699 1.368 . S
C718 C712 1.368 . S
C718 C717 1.523 . S
C719 C703 1.429 . S
C719 C715 1.429 . S
C719 C720 1.523 1_655 S
C720 C704 1.368 . S
C720 C716 1.368 . S
C720 C719 1.523 1_455 S
H721 C696 0.950 . S
H722 C698 0.950 . S
H723 C699 0.949 . S
H724 C701 0.950 . S
H725 C703 0.950 . S
C187 C25 0.400 . S
C192 C180 0.701 . S
C217 C65 0.271 . S
C222 C158 0.635 . S
C247 C105 0.270 . S
C252 C172 0.372 . S
C277 C4 0.294 . S
C282 C183 0.403 . S
C312 C161 0.282 . S
C307 C44 0.137 . S
C342 C169 0.709 . S
C337 C84 0.374 . S
C367 C60 3.122 . S
C372 C136 2.795 . S
C397 C100 3.280 . S
C402 C147 2.921 . S
C427 C31 3.251 . S
C432 C125 2.888 . S
C462 C139 2.812 . S
C457 C71 2.879 . S
C492 C150 2.649 . S
C487 C111 2.704 . S
C517 C20 2.740 . S
C522 C128 2.677 . S
C552 C149 1.666 . S
C547 C2 1.675 . S
C577 C42 1.669 . S
C582 C127 1.653 . S
C607 C82 1.712 . S
C612 C138 1.670 . S
C642 C171 1.186 . S
C637 C63 1.209 . S
C672 C182 1.212 . S
C667 C103 1.255 . S
C697 C23 1.256 . S
C702 C160 1.222 . S
