# Generated by pormake.
# Topology gar, (4,6)-cn, num edge types: 1
# Building blocks:
#     Node 0, Type 0, BuildingBlock: QUQFOY_clean_sbu_3, # of connection points: 4
#     Node 1, Type 0, BuildingBlock: QUQFOY_clean_sbu_3, # of connection points: 4
#     Node 2, Type 0, BuildingBlock: QUQFOY_clean_sbu_3, # of connection points: 4
#     Node 3, Type 0, BuildingBlock: QUQFOY_clean_sbu_3, # of connection points: 4
#     Node 4, Type 0, BuildingBlock: QUQFOY_clean_sbu_3, # of connection points: 4
#     Node 5, Type 0, BuildingBlock: QUQFOY_clean_sbu_3, # of connection points: 4
#     Node 6, Type 0, BuildingBlock: QUQFOY_clean_sbu_3, # of connection points: 4
#     Node 7, Type 0, BuildingBlock: QUQFOY_clean_sbu_3, # of connection points: 4
#     Node 8, Type 0, BuildingBlock: QUQFOY_clean_sbu_3, # of connection points: 4
#     Node 9, Type 0, BuildingBlock: QUQFOY_clean_sbu_3, # of connection points: 4
#     Node 10, Type 0, BuildingBlock: QUQFOY_clean_sbu_3, # of connection points: 4
#     Node 11, Type 0, BuildingBlock: QUQFOY_clean_sbu_3, # of connection points: 4
#     Node 12, Type 0, BuildingBlock: QUQFOY_clean_sbu_3, # of connection points: 4
#     Node 13, Type 0, BuildingBlock: QUQFOY_clean_sbu_3, # of connection points: 4
#     Node 14, Type 0, BuildingBlock: QUQFOY_clean_sbu_3, # of connection points: 4
#     Node 15, Type 0, BuildingBlock: QUQFOY_clean_sbu_3, # of connection points: 4
#     Node 16, Type 0, BuildingBlock: QUQFOY_clean_sbu_3, # of connection points: 4
#     Node 17, Type 0, BuildingBlock: QUQFOY_clean_sbu_3, # of connection points: 4
#     Node 18, Type 0, BuildingBlock: QUQFOY_clean_sbu_3, # of connection points: 4
#     Node 19, Type 0, BuildingBlock: QUQFOY_clean_sbu_3, # of connection points: 4
#     Node 20, Type 0, BuildingBlock: QUQFOY_clean_sbu_3, # of connection points: 4
#     Node 21, Type 0, BuildingBlock: QUQFOY_clean_sbu_3, # of connection points: 4
#     Node 22, Type 0, BuildingBlock: QUQFOY_clean_sbu_3, # of connection points: 4
#     Node 23, Type 0, BuildingBlock: QUQFOY_clean_sbu_3, # of connection points: 4
#     Node 24, Type 1, BuildingBlock: BETFEN_clean_sbu_0, # of connection points: 6
#     Node 25, Type 1, BuildingBlock: BETFEN_clean_sbu_0, # of connection points: 6
#     Node 26, Type 1, BuildingBlock: BETFEN_clean_sbu_0, # of connection points: 6
#     Node 27, Type 1, BuildingBlock: BETFEN_clean_sbu_0, # of connection points: 6
#     Node 28, Type 1, BuildingBlock: BETFEN_clean_sbu_0, # of connection points: 6
#     Node 29, Type 1, BuildingBlock: BETFEN_clean_sbu_0, # of connection points: 6
#     Node 30, Type 1, BuildingBlock: BETFEN_clean_sbu_0, # of connection points: 6
#     Node 31, Type 1, BuildingBlock: BETFEN_clean_sbu_0, # of connection points: 6
#     Node 32, Type 1, BuildingBlock: BETFEN_clean_sbu_0, # of connection points: 6
#     Node 33, Type 1, BuildingBlock: BETFEN_clean_sbu_0, # of connection points: 6
#     Node 34, Type 1, BuildingBlock: BETFEN_clean_sbu_0, # of connection points: 6
#     Node 35, Type 1, BuildingBlock: BETFEN_clean_sbu_0, # of connection points: 6
#     Node 36, Type 1, BuildingBlock: BETFEN_clean_sbu_0, # of connection points: 6
#     Node 37, Type 1, BuildingBlock: BETFEN_clean_sbu_0, # of connection points: 6
#     Node 38, Type 1, BuildingBlock: BETFEN_clean_sbu_0, # of connection points: 6
#     Node 39, Type 1, BuildingBlock: BETFEN_clean_sbu_0, # of connection points: 6
#     Edge 40, Type (0, 1), BuildingBlock: EZIPEK_clean_linker_0, # of connection points: 2
#     Edge 41, Type (0, 1), BuildingBlock: EZIPEK_clean_linker_0, # of connection points: 2
#     Edge 42, Type (0, 1), BuildingBlock: EZIPEK_clean_linker_0, # of connection points: 2
#     Edge 43, Type (0, 1), BuildingBlock: EZIPEK_clean_linker_0, # of connection points: 2
#     Edge 44, Type (0, 1), BuildingBlock: EZIPEK_clean_linker_0, # of connection points: 2
#     Edge 45, Type (0, 1), BuildingBlock: EZIPEK_clean_linker_0, # of connection points: 2
#     Edge 46, Type (0, 1), BuildingBlock: EZIPEK_clean_linker_0, # of connection points: 2
#     Edge 47, Type (0, 1), BuildingBlock: EZIPEK_clean_linker_0, # of connection points: 2
#     Edge 48, Type (0, 1), BuildingBlock: EZIPEK_clean_linker_0, # of connection points: 2
#     Edge 49, Type (0, 1), BuildingBlock: EZIPEK_clean_linker_0, # of connection points: 2
#     Edge 50, Type (0, 1), BuildingBlock: EZIPEK_clean_linker_0, # of connection points: 2
#     Edge 51, Type (0, 1), BuildingBlock: EZIPEK_clean_linker_0, # of connection points: 2
#     Edge 52, Type (0, 1), BuildingBlock: EZIPEK_clean_linker_0, # of connection points: 2
#     Edge 53, Type (0, 1), BuildingBlock: EZIPEK_clean_linker_0, # of connection points: 2
#     Edge 54, Type (0, 1), BuildingBlock: EZIPEK_clean_linker_0, # of connection points: 2
#     Edge 55, Type (0, 1), BuildingBlock: EZIPEK_clean_linker_0, # of connection points: 2
#     Edge 56, Type (0, 1), BuildingBlock: EZIPEK_clean_linker_0, # of connection points: 2
#     Edge 57, Type (0, 1), BuildingBlock: EZIPEK_clean_linker_0, # of connection points: 2
#     Edge 58, Type (0, 1), BuildingBlock: EZIPEK_clean_linker_0, # of connection points: 2
#     Edge 59, Type (0, 1), BuildingBlock: EZIPEK_clean_linker_0, # of connection points: 2
#     Edge 60, Type (0, 1), BuildingBlock: EZIPEK_clean_linker_0, # of connection points: 2
#     Edge 61, Type (0, 1), BuildingBlock: EZIPEK_clean_linker_0, # of connection points: 2
#     Edge 62, Type (0, 1), BuildingBlock: EZIPEK_clean_linker_0, # of connection points: 2
#     Edge 63, Type (0, 1), BuildingBlock: EZIPEK_clean_linker_0, # of connection points: 2
#     Edge 64, Type (0, 1), BuildingBlock: EZIPEK_clean_linker_0, # of connection points: 2
#     Edge 65, Type (0, 1), BuildingBlock: EZIPEK_clean_linker_0, # of connection points: 2
#     Edge 66, Type (0, 1), BuildingBlock: EZIPEK_clean_linker_0, # of connection points: 2
#     Edge 67, Type (0, 1), BuildingBlock: EZIPEK_clean_linker_0, # of connection points: 2
#     Edge 68, Type (0, 1), BuildingBlock: EZIPEK_clean_linker_0, # of connection points: 2
#     Edge 69, Type (0, 1), BuildingBlock: EZIPEK_clean_linker_0, # of connection points: 2
#     Edge 70, Type (0, 1), BuildingBlock: EZIPEK_clean_linker_0, # of connection points: 2
#     Edge 71, Type (0, 1), BuildingBlock: EZIPEK_clean_linker_0, # of connection points: 2
#     Edge 72, Type (0, 1), BuildingBlock: EZIPEK_clean_linker_0, # of connection points: 2
#     Edge 73, Type (0, 1), BuildingBlock: EZIPEK_clean_linker_0, # of connection points: 2
#     Edge 74, Type (0, 1), BuildingBlock: EZIPEK_clean_linker_0, # of connection points: 2
#     Edge 75, Type (0, 1), BuildingBlock: EZIPEK_clean_linker_0, # of connection points: 2
#     Edge 76, Type (0, 1), BuildingBlock: EZIPEK_clean_linker_0, # of connection points: 2
#     Edge 77, Type (0, 1), BuildingBlock: EZIPEK_clean_linker_0, # of connection points: 2
#     Edge 78, Type (0, 1), BuildingBlock: EZIPEK_clean_linker_0, # of connection points: 2
#     Edge 79, Type (0, 1), BuildingBlock: EZIPEK_clean_linker_0, # of connection points: 2
#     Edge 80, Type (0, 1), BuildingBlock: EZIPEK_clean_linker_0, # of connection points: 2
#     Edge 81, Type (0, 1), BuildingBlock: EZIPEK_clean_linker_0, # of connection points: 2
#     Edge 82, Type (0, 1), BuildingBlock: EZIPEK_clean_linker_0, # of connection points: 2
#     Edge 83, Type (0, 1), BuildingBlock: EZIPEK_clean_linker_0, # of connection points: 2
#     Edge 84, Type (0, 1), BuildingBlock: EZIPEK_clean_linker_0, # of connection points: 2
#     Edge 85, Type (0, 1), BuildingBlock: EZIPEK_clean_linker_0, # of connection points: 2
#     Edge 86, Type (0, 1), BuildingBlock: EZIPEK_clean_linker_0, # of connection points: 2
#     Edge 87, Type (0, 1), BuildingBlock: EZIPEK_clean_linker_0, # of connection points: 2
#     Edge 88, Type (0, 1), BuildingBlock: EZIPEK_clean_linker_0, # of connection points: 2
#     Edge 89, Type (0, 1), BuildingBlock: EZIPEK_clean_linker_0, # of connection points: 2
#     Edge 90, Type (0, 1), BuildingBlock: EZIPEK_clean_linker_0, # of connection points: 2
#     Edge 91, Type (0, 1), BuildingBlock: EZIPEK_clean_linker_0, # of connection points: 2
#     Edge 92, Type (0, 1), BuildingBlock: EZIPEK_clean_linker_0, # of connection points: 2
#     Edge 93, Type (0, 1), BuildingBlock: EZIPEK_clean_linker_0, # of connection points: 2
#     Edge 94, Type (0, 1), BuildingBlock: EZIPEK_clean_linker_0, # of connection points: 2
#     Edge 95, Type (0, 1), BuildingBlock: EZIPEK_clean_linker_0, # of connection points: 2
#     Edge 96, Type (0, 1), BuildingBlock: EZIPEK_clean_linker_0, # of connection points: 2
#     Edge 97, Type (0, 1), BuildingBlock: EZIPEK_clean_linker_0, # of connection points: 2
#     Edge 98, Type (0, 1), BuildingBlock: EZIPEK_clean_linker_0, # of connection points: 2
#     Edge 99, Type (0, 1), BuildingBlock: EZIPEK_clean_linker_0, # of connection points: 2
#     Edge 100, Type (0, 1), BuildingBlock: EZIPEK_clean_linker_0, # of connection points: 2
#     Edge 101, Type (0, 1), BuildingBlock: EZIPEK_clean_linker_0, # of connection points: 2
#     Edge 102, Type (0, 1), BuildingBlock: EZIPEK_clean_linker_0, # of connection points: 2
#     Edge 103, Type (0, 1), BuildingBlock: EZIPEK_clean_linker_0, # of connection points: 2
#     Edge 104, Type (0, 1), BuildingBlock: EZIPEK_clean_linker_0, # of connection points: 2
#     Edge 105, Type (0, 1), BuildingBlock: EZIPEK_clean_linker_0, # of connection points: 2
#     Edge 106, Type (0, 1), BuildingBlock: EZIPEK_clean_linker_0, # of connection points: 2
#     Edge 107, Type (0, 1), BuildingBlock: EZIPEK_clean_linker_0, # of connection points: 2
#     Edge 108, Type (0, 1), BuildingBlock: EZIPEK_clean_linker_0, # of connection points: 2
#     Edge 109, Type (0, 1), BuildingBlock: EZIPEK_clean_linker_0, # of connection points: 2
#     Edge 110, Type (0, 1), BuildingBlock: EZIPEK_clean_linker_0, # of connection points: 2
#     Edge 111, Type (0, 1), BuildingBlock: EZIPEK_clean_linker_0, # of connection points: 2
#     Edge 112, Type (0, 1), BuildingBlock: EZIPEK_clean_linker_0, # of connection points: 2
#     Edge 113, Type (0, 1), BuildingBlock: EZIPEK_clean_linker_0, # of connection points: 2
#     Edge 114, Type (0, 1), BuildingBlock: EZIPEK_clean_linker_0, # of connection points: 2
#     Edge 115, Type (0, 1), BuildingBlock: EZIPEK_clean_linker_0, # of connection points: 2
#     Edge 116, Type (0, 1), BuildingBlock: EZIPEK_clean_linker_0, # of connection points: 2
#     Edge 117, Type (0, 1), BuildingBlock: EZIPEK_clean_linker_0, # of connection points: 2
#     Edge 118, Type (0, 1), BuildingBlock: EZIPEK_clean_linker_0, # of connection points: 2
#     Edge 119, Type (0, 1), BuildingBlock: EZIPEK_clean_linker_0, # of connection points: 2
#     Edge 120, Type (0, 1), BuildingBlock: EZIPEK_clean_linker_0, # of connection points: 2
#     Edge 121, Type (0, 1), BuildingBlock: EZIPEK_clean_linker_0, # of connection points: 2
#     Edge 122, Type (0, 1), BuildingBlock: EZIPEK_clean_linker_0, # of connection points: 2
#     Edge 123, Type (0, 1), BuildingBlock: EZIPEK_clean_linker_0, # of connection points: 2
#     Edge 124, Type (0, 1), BuildingBlock: EZIPEK_clean_linker_0, # of connection points: 2
#     Edge 125, Type (0, 1), BuildingBlock: EZIPEK_clean_linker_0, # of connection points: 2
#     Edge 126, Type (0, 1), BuildingBlock: EZIPEK_clean_linker_0, # of connection points: 2
#     Edge 127, Type (0, 1), BuildingBlock: EZIPEK_clean_linker_0, # of connection points: 2
#     Edge 128, Type (0, 1), BuildingBlock: EZIPEK_clean_linker_0, # of connection points: 2
#     Edge 129, Type (0, 1), BuildingBlock: EZIPEK_clean_linker_0, # of connection points: 2
#     Edge 130, Type (0, 1), BuildingBlock: EZIPEK_clean_linker_0, # of connection points: 2
#     Edge 131, Type (0, 1), BuildingBlock: EZIPEK_clean_linker_0, # of connection points: 2
#     Edge 132, Type (0, 1), BuildingBlock: EZIPEK_clean_linker_0, # of connection points: 2
#     Edge 133, Type (0, 1), BuildingBlock: EZIPEK_clean_linker_0, # of connection points: 2
#     Edge 134, Type (0, 1), BuildingBlock: EZIPEK_clean_linker_0, # of connection points: 2
#     Edge 135, Type (0, 1), BuildingBlock: EZIPEK_clean_linker_0, # of connection points: 2
# Relax obj value: 0.239
# Max RMSD: 0.355
# Mean RMSD: 0.176
data_MOF--net-gar--node1-QUQFOY_clean_sbu_3--node2-BETFEN_clean_sbu_0--edge1-EZIPEK_clean_linker_0
_symmetry_space_group_name_H-M    P1
_symmetry_Int_Tables_number       1
_symmetry_cell_setting            triclinic
loop_
_symmetry_equiv_pos_as_xyz
'x, y, z'
_cell_length_a     50.013566
_cell_length_b     43.900958
_cell_length_c     43.51729
_cell_angle_alpha  95.723774
_cell_angle_beta   100.064
_cell_angle_gamma 103.64802
loop_
_atom_site_label
_atom_site_type_symbol
_atom_site_fract_x
_atom_site_fract_y
_atom_site_fract_z
_atom_type_partial_charge
C0 C 0.98102 0.34772 0.37172 0.0
O1 O 0.99642 0.36695 0.35812 0.0
Cd2 Cd 0.0464 0.384 0.37204 0.0
O3 O 0.992 0.3352 0.39455 0.0
Cd4 Cd 0.04282 0.33719 0.42309 0.0
C5 C 0.05681 0.42062 0.44827 0.0
O6 O 0.0623 0.33637 0.37424 0.0
O7 O 0.09281 0.34529 0.4178 0.0
O8 O 0.02976 0.27772 0.42228 0.0
C9 C 0.08746 0.33908 0.38794 0.0
O10 O 0.05734 0.42339 0.41953 0.0
C11 C 0.04042 0.27744 0.45092 0.0
O12 O 0.0515 0.39284 0.45663 0.0
O13 O 0.05047 0.30464 0.46765 0.0
C14 C 0.05189 0.86182 0.69828 0.0
O15 O 0.06521 0.84427 0.71265 0.0
Cd16 Cd 0.10476 0.82665 0.70019 0.0
O17 O 0.05914 0.87271 0.67382 0.0
Cd18 Cd 0.09779 0.87494 0.64144 0.0
C19 C 0.08378 0.78958 0.62178 0.0
O20 O 0.13117 0.87502 0.68944 0.0
O21 O 0.15093 0.88267 0.65028 0.0
O22 O 0.0965 0.93222 0.64074 0.0
C23 C 0.15353 0.87829 0.67895 0.0
O24 O 0.09064 0.78838 0.6512 0.0
C25 C 0.09328 0.93257 0.61117 0.0
O26 O 0.08353 0.81631 0.61184 0.0
O27 O 0.09228 0.90634 0.59489 0.0
C28 C 0.4817 0.84614 0.86965 0.0
O29 O 0.49769 0.86518 0.85645 0.0
Cd30 Cd 0.54767 0.88204 0.87201 0.0
O31 O 0.49208 0.83347 0.89277 0.0
Cd32 Cd 0.54265 0.83469 0.92278 0.0
C33 C 0.55666 0.91824 0.94827 0.0
O34 O 0.56366 0.83452 0.87484 0.0
O35 O 0.59313 0.84303 0.91915 0.0
O36 O 0.5302 0.77497 0.92214 0.0
C37 C 0.58862 0.83733 0.8893 0.0
O38 O 0.55771 0.92114 0.91966 0.0
C39 C 0.53992 0.77485 0.95111 0.0
O40 O 0.55109 0.89037 0.95646 0.0
O41 O 0.54909 0.80215 0.96779 0.0
C42 C 0.5461 0.35811 0.19169 0.0
O43 O 0.55821 0.34027 0.20702 0.0
Cd44 Cd 0.59876 0.32497 0.19569 0.0
O45 O 0.5555 0.36938 0.16849 0.0
Cd46 Cd 0.59669 0.37121 0.14038 0.0
C47 C 0.58086 0.2867 0.11889 0.0
O48 O 0.63087 0.3732 0.18993 0.0
O49 O 0.64846 0.37319 0.14834 0.0
O50 O 0.59725 0.42911 0.14083 0.0
C51 C 0.65227 0.37332 0.17798 0.0
O52 O 0.58707 0.28527 0.14827 0.0
C53 C 0.59435 0.42986 0.11137 0.0
O54 O 0.58113 0.31355 0.10915 0.0
O55 O 0.59303 0.40376 0.09467 0.0
C56 C 0.06219 0.85657 0.1897 0.0
O57 O 0.07646 0.84314 0.20843 0.0
Cd58 Cd 0.12073 0.83349 0.20344 0.0
O59 O 0.07114 0.86747 0.1662 0.0
Cd60 Cd 0.11252 0.87426 0.1396 0.0
C61 C 0.10204 0.79128 0.12721 0.0
O62 O 0.1446 0.8822 0.19037 0.0
O63 O 0.16575 0.8825 0.15162 0.0
O64 O 0.10721 0.92865 0.13394 0.0
C65 C 0.1675 0.88399 0.18128 0.0
O66 O 0.10916 0.79285 0.15703 0.0
C67 C 0.10026 0.9252 0.10404 0.0
O68 O 0.10071 0.81623 0.11452 0.0
O69 O 0.10054 0.89852 0.08975 0.0
C70 C 0.47141 0.82996 0.36551 0.0
O71 O 0.48969 0.84497 0.35183 0.0
Cd72 Cd 0.53879 0.86143 0.37027 0.0
O73 O 0.47901 0.81956 0.39142 0.0
Cd74 Cd 0.52723 0.82174 0.42782 0.0
C75 C 0.53657 0.90245 0.44187 0.0
O76 O 0.5547 0.81748 0.38621 0.0
O77 O 0.57838 0.8388 0.43268 0.0
O78 O 0.51256 0.76474 0.43593 0.0
C79 C 0.57845 0.82768 0.40474 0.0
O80 O 0.54172 0.90165 0.4142 0.0
C81 C 0.52728 0.76789 0.46359 0.0
O82 O 0.52956 0.87681 0.45366 0.0
O83 O 0.53939 0.79633 0.47614 0.0
C84 C 0.56695 0.36108 0.68756 0.0
O85 O 0.58216 0.35013 0.70786 0.0
Cd86 Cd 0.62597 0.3399 0.7034 0.0
O87 O 0.57521 0.36972 0.66286 0.0
Cd88 Cd 0.61654 0.37653 0.63596 0.0
C89 C 0.60587 0.29356 0.62876 0.0
O90 O 0.6499 0.38547 0.68543 0.0
O91 O 0.669 0.38209 0.64509 0.0
O92 O 0.61744 0.43268 0.62942 0.0
C93 C 0.67181 0.38456 0.67495 0.0
O94 O 0.6116 0.29713 0.65883 0.0
C95 C 0.60497 0.42815 0.60065 0.0
O96 O 0.6062 0.31769 0.61415 0.0
O97 O 0.59934 0.39968 0.58691 0.0
C98 C 0.97208 0.32616 0.86795 0.0
O99 O 0.98854 0.3399 0.85157 0.0
Cd100 Cd 0.0381 0.35698 0.86622 0.0
O101 O 0.98173 0.31732 0.89408 0.0
Cd102 Cd 0.03155 0.31927 0.92671 0.0
C103 C 0.04156 0.40107 0.93817 0.0
O104 O 0.05478 0.31357 0.88234 0.0
O105 O 0.08265 0.33528 0.92659 0.0
O106 O 0.02503 0.26212 0.93434 0.0
C107 C 0.07974 0.32361 0.89798 0.0
O108 O 0.04405 0.39936 0.90946 0.0
C109 C 0.03377 0.2667 0.96407 0.0
O110 O 0.03645 0.37593 0.95123 0.0
O111 O 0.03938 0.29529 0.97735 0.0
C112 C 0.52401 0.19196 0.37799 0.0
O113 O 0.54312 0.19529 0.36191 0.0
Cd114 Cd 0.53182 0.1921 0.30619 0.0
O115 O 0.50044 0.19786 0.36735 0.0
Cd116 Cd 0.47873 0.21758 0.31749 0.0
C117 C 0.4673 0.13958 0.2967 0.0
O118 O 0.51881 0.23913 0.29453 0.0
O119 O 0.48057 0.21793 0.26156 0.0
O120 O 0.45675 0.26132 0.32916 0.0
C121 C 0.506 0.23361 0.26598 0.0
O122 O 0.49291 0.14312 0.29462 0.0
C123 C 0.43218 0.24475 0.3155 0.0
O124 O 0.45789 0.16311 0.30383 0.0
O125 O 0.42948 0.21592 0.30535 0.0
C126 C 0.32152 0.1985 0.51705 0.0
O127 O 0.30424 0.1806 0.52991 0.0
Cd128 Cd 0.26058 0.18754 0.53975 0.0
O129 O 0.31616 0.22296 0.50616 0.0
Cd130 Cd 0.2772 0.25172 0.49996 0.0
C131 C 0.28628 0.26327 0.58314 0.0
O132 O 0.24086 0.20197 0.49183 0.0
O133 O 0.22425 0.2425 0.49555 0.0
O134 O 0.28677 0.25898 0.44567 0.0
C135 C 0.2195 0.21251 0.49217 0.0
O136 O 0.27542 0.2336 0.58097 0.0
C137 C 0.28981 0.28875 0.44809 0.0
O138 O 0.29051 0.2761 0.55849 0.0
O139 O 0.28654 0.30181 0.4742 0.0
C140 C 0.17286 0.14927 0.9402 0.0
O141 O 0.17312 0.17795 0.93781 0.0
Cd142 Cd 0.17601 0.19315 0.88702 0.0
O143 O 0.18563 0.13446 0.92349 0.0
Cd144 Cd 0.21487 0.1464 0.88369 0.0
C145 C 0.24044 0.22508 0.87588 0.0
O146 O 0.16815 0.14266 0.85544 0.0
O147 O 0.19951 0.14105 0.827 0.0
O148 O 0.22292 0.09624 0.86463 0.0
C149 C 0.17425 0.14009 0.82851 0.0
O150 O 0.21664 0.23013 0.87694 0.0
C151 C 0.24776 0.10187 0.88059 0.0
O152 O 0.24512 0.19843 0.8802 0.0
O153 O 0.25692 0.12742 0.89993 0.0
C154 C 0.39193 0.01917 0.03803 0.0
O155 O 0.37732 0.03432 0.02195 0.0
Cd156 Cd 0.32752 0.01821 0.00603 0.0
O157 O 0.38025 0.99426 0.04865 0.0
Cd158 Cd 0.33016 0.96285 0.04955 0.0
C159 C 0.31823 0.94301 0.96612 0.0
O160 O 0.31146 0.00997 0.05415 0.0
O161 O 0.28035 0.9651 0.04598 0.0
O162 O 0.34557 0.96289 0.10777 0.0
C163 C 0.28613 0.99504 0.05231 0.0
O164 O 0.31887 0.9721 0.96544 0.0
C165 C 0.33525 0.93362 0.1081 0.0
O166 O 0.3218 0.93269 0.99282 0.0
O167 O 0.32391 0.91708 0.08119 0.0
C168 C 0.40438 0.51439 0.04895 0.0
O169 O 0.38832 0.53002 0.03609 0.0
Cd170 Cd 0.33867 0.51394 0.02008 0.0
O171 O 0.3941 0.48773 0.05777 0.0
Cd172 Cd 0.3433 0.45373 0.05702 0.0
C173 C 0.33571 0.44331 0.97497 0.0
O174 O 0.31839 0.49579 0.0623 0.0
O175 O 0.29284 0.44961 0.03995 0.0
O176 O 0.34858 0.44663 0.11448 0.0
C177 C 0.29403 0.4777 0.05147 0.0
O178 O 0.33259 0.47136 0.97699 0.0
C179 C 0.33866 0.41671 0.11032 0.0
O180 O 0.34098 0.43049 0.99988 0.0
O181 O 0.33325 0.40321 0.08182 0.0
C182 C 0.83422 0.18912 0.03107 0.0
O183 O 0.81918 0.17453 0.04846 0.0
Cd184 Cd 0.77801 0.18565 0.06279 0.0
O185 O 0.82807 0.21281 0.01915 0.0
Cd186 Cd 0.78904 0.24242 0.0164 0.0
C187 C 0.80072 0.26366 0.10031 0.0
O188 O 0.75334 0.19335 0.01367 0.0
O189 O 0.73731 0.23452 0.01714 0.0
O190 O 0.78547 0.24117 0.9578 0.0
C191 C 0.73239 0.20455 0.01451 0.0
O192 O 0.79161 0.23419 0.1014 0.0
C193 C 0.79196 0.2708 0.95708 0.0
O194 O 0.80332 0.27342 0.07371 0.0
O195 O 0.79726 0.2881 0.98386 0.0
C196 C 0.09708 0.48633 0.2688 0.0
O197 O 0.08371 0.5011 0.25063 0.0
Cd198 Cd 0.08679 0.51293 0.19881 0.0
O199 O 0.11626 0.47455 0.26077 0.0
Cd200 Cd 0.14068 0.47603 0.21581 0.0
C201 C 0.15432 0.5563 0.22341 0.0
O202 O 0.09991 0.47008 0.17453 0.0
O203 O 0.13817 0.48094 0.15861 0.0
O204 O 0.16302 0.43204 0.22559 0.0
C205 C 0.1118 0.47735 0.15195 0.0
O206 O 0.12961 0.55584 0.20933 0.0
C207 C 0.18777 0.45062 0.23319 0.0
O208 O 0.1611 0.53141 0.23042 0.0
O209 O 0.19021 0.4796 0.23046 0.0
C210 C 0.90639 0.01515 0.55119 0.0
O211 O 0.89103 0.0305 0.53667 0.0
Cd212 Cd 0.84212 0.01601 0.52247 0.0
O213 O 0.89527 0.98958 0.56146 0.0
Cd214 Cd 0.84279 0.95816 0.55928 0.0
C215 C 0.83375 0.94469 0.47758 0.0
O216 O 0.82472 1.00489 0.56899 0.0
O217 O 0.7936 0.96378 0.54408 0.0
O218 O 0.84967 0.94808 0.61594 0.0
C219 C 0.79898 0.9919 0.55822 0.0
O220 O 0.83272 0.97344 0.47933 0.0
C221 C 0.83563 0.91924 0.61098 0.0
O222 O 0.83811 0.93211 0.50276 0.0
O223 O 0.8266 0.90732 0.58206 0.0
C224 C 0.97183 0.05463 0.21573 0.0
O225 O 0.9733 0.03761 0.1909 0.0
Cd226 Cd 0.93934 0.0166 0.14248 0.0
O227 O 0.95164 0.06758 0.21719 0.0
Cd228 Cd 0.91045 0.0721 0.18001 0.0
C229 C 0.88691 0.98979 0.18142 0.0
O230 O 0.92439 0.06233 0.13229 0.0
O231 O 0.93247 0.11175 0.14905 0.0
O232 O 0.90106 0.11262 0.21459 0.0
C233 C 0.93836 0.09042 0.13172 0.0
O234 O 0.90362 0.98179 0.16502 0.0
C235 C 0.87575 0.10812 0.19993 0.0
O236 O 0.88649 0.01862 0.18742 0.0
O237 O 0.86661 0.08667 0.1759 0.0
C238 C 0.33944 0.68872 0.52831 0.0
O239 O 0.32742 0.67528 0.54862 0.0
Cd240 Cd 0.28664 0.68607 0.56497 0.0
O241 O 0.3309 0.71089 0.51579 0.0
Cd242 Cd 0.2919 0.74014 0.51743 0.0
C243 C 0.30631 0.76383 0.60141 0.0
O244 O 0.25691 0.69025 0.51693 0.0
O245 O 0.24063 0.73139 0.51986 0.0
O246 O 0.28521 0.73861 0.45852 0.0
C247 C 0.23598 0.70151 0.51814 0.0
O248 O 0.29906 0.73439 0.60337 0.0
C249 C 0.29202 0.7682 0.45768 0.0
O250 O 0.30701 0.77311 0.57428 0.0
O251 O 0.29867 0.78562 0.4845 0.0
C252 C 0.45875 0.55497 0.72225 0.0
O253 O 0.46337 0.5321 0.70539 0.0
Cd254 Cd 0.43995 0.511 0.65259 0.0
O255 O 0.44006 0.56905 0.71229 0.0
Cd256 Cd 0.40376 0.56452 0.66497 0.0
C257 C 0.37953 0.48701 0.67886 0.0
O258 O 0.44231 0.56386 0.64232 0.0
O259 O 0.40944 0.57397 0.60932 0.0
O260 O 0.4017 0.61421 0.69293 0.0
C261 C 0.43445 0.57128 0.61575 0.0
O262 O 0.39848 0.47795 0.6672 0.0
C263 C 0.37584 0.6105 0.68091 0.0
O264 O 0.37775 0.51541 0.67933 0.0
O265 O 0.3638 0.58668 0.65983 0.0
C266 C 0.60109 0.98626 0.76799 0.0
O267 O 0.5864 0.99979 0.74984 0.0
Cd268 Cd 0.58964 0.01267 0.69862 0.0
O269 O 0.62098 0.97596 0.75974 0.0
Cd270 Cd 0.64434 0.97571 0.71372 0.0
C271 C 0.65776 0.05605 0.7228 0.0
O272 O 0.60274 0.96995 0.67398 0.0
O273 O 0.63999 0.97938 0.65597 0.0
O274 O 0.66439 0.93089 0.72668 0.0
C275 C 0.61375 0.97682 0.6507 0.0
O276 O 0.63254 0.05571 0.71075 0.0
C277 C 0.68974 0.94744 0.73043 0.0
O278 O 0.66531 0.03099 0.72749 0.0
O279 O 0.69348 0.97552 0.72403 0.0
C280 C 0.82664 0.70206 0.02118 0.0
O281 O 0.81081 0.68339 0.0349 0.0
Cd282 Cd 0.76601 0.68666 0.04457 0.0
O283 O 0.81906 0.72529 0.00985 0.0
Cd284 Cd 0.77672 0.7494 0.00309 0.0
C285 C 0.78452 0.76335 0.08558 0.0
O286 O 0.74221 0.69794 0.99661 0.0
O287 O 0.72387 0.73734 0.99877 0.0
O288 O 0.78226 0.75607 0.94789 0.0
C289 C 0.72023 0.70752 0.99658 0.0
O290 O 0.77716 0.73339 0.08458 0.0
C291 C 0.78643 0.78601 0.95044 0.0
O292 O 0.78705 0.77588 0.06044 0.0
O293 O 0.78546 0.79965 0.97732 0.0
C294 C 0.02507 0.68914 0.87574 0.0
O295 O 0.04002 0.68372 0.85613 0.0
Cd296 Cd 0.02886 0.68538 0.80127 0.0
O297 O 1.00424 0.70123 0.86793 0.0
Cd298 Cd 0.98236 0.71968 0.81682 0.0
C299 C 0.96127 0.64183 0.79233 0.0
O300 O 0.02399 0.73758 0.79528 0.0
O301 O 0.98599 0.72121 0.76113 0.0
O302 O 0.96165 0.76514 0.82577 0.0
C303 C 0.01192 0.73512 0.76679 0.0
O304 O 0.98553 0.64163 0.78722 0.0
C305 C 0.93711 0.74907 0.81121 0.0
O306 O 0.95607 0.66694 0.80345 0.0
O307 O 0.93385 0.7198 0.80263 0.0
C308 C 0.89183 0.52202 0.53724 0.0
O309 O 0.87772 0.53697 0.52023 0.0
Cd310 Cd 0.82774 0.52172 0.50425 0.0
O311 O 0.87952 0.4977 0.54827 0.0
Cd312 Cd 0.82871 0.46729 0.54815 0.0
C313 C 0.81649 0.44628 0.46457 0.0
O314 O 0.81092 0.51538 0.55244 0.0
O315 O 0.77889 0.47134 0.54354 0.0
O316 O 0.84256 0.46612 0.60664 0.0
C317 C 0.78527 0.50132 0.55006 0.0
O318 O 0.8173 0.47533 0.46332 0.0
C319 C 0.83319 0.43652 0.60615 0.0
O320 O 0.82029 0.43654 0.49155 0.0
O321 O 0.82282 0.42055 0.57879 0.0
C322 C 0.68691 0.64525 0.4522 0.0
O323 O 0.68592 0.67253 0.44555 0.0
Cd324 Cd 0.68235 0.67853 0.39127 0.0
O325 O 0.69645 0.62794 0.43404 0.0
Cd326 Cd 0.71775 0.6405 0.3879 0.0
C327 C 0.74065 0.71619 0.37477 0.0
O328 O 0.66884 0.62843 0.35829 0.0
O329 O 0.70167 0.63882 0.33161 0.0
O330 O 0.72504 0.58847 0.37408 0.0
C331 C 0.67573 0.6296 0.33176 0.0
O332 O 0.71494 0.71611 0.37077 0.0
C333 C 0.75164 0.59771 0.38105 0.0
O334 O 0.74891 0.69426 0.38758 0.0
O335 O 0.76253 0.62638 0.39321 0.0
Pr336 Pr 0.03196 0.07749 0.01417 0.0
Pr337 Pr 0.09207 0.11298 0.06121 0.0
C338 C 0.9763 0.06674 0.99087 0.0
C339 C 0.95657 0.08641 0.99567 0.0
C340 C 0.92828 0.07666 0.97995 0.0
C341 C 0.90963 0.09509 0.98538 0.0
C342 C 0.91901 0.12382 0.00635 0.0
C343 C 0.94744 0.13366 0.02175 0.0
C344 C 0.96586 0.11493 0.01682 0.0
C345 C 0.0795 0.0836 0.98835 0.0
C346 C 0.0573 0.15869 0.02421 0.0
C347 C 0.14768 0.12462 0.08528 0.0
C348 C 0.16834 0.10518 0.08499 0.0
C349 C 0.19647 0.11962 0.08452 0.0
C350 C 0.21541 0.10118 0.08047 0.0
C351 C 0.20646 0.06788 0.07638 0.0
C352 C 0.17851 0.05347 0.07769 0.0
C353 C 0.15978 0.07193 0.08236 0.0
C354 C 0.04394 0.10767 0.08701 0.0
C355 C 0.06855 0.03194 0.04876 0.0
O356 O 0.98653 0.05559 0.01577 0.0
O357 O 0.99544 0.0776 0.97482 0.0
O358 O 0.07502 0.10336 0.0084 0.0
O359 O 0.05692 0.06033 0.9773 0.0
O360 O 0.08222 0.15788 0.04045 0.0
O361 O 0.03586 0.13296 0.01613 0.0
O362 O 0.12842 0.11687 0.10209 0.0
O363 O 0.13763 0.1319 0.05792 0.0
O364 O 0.04855 0.08815 0.06679 0.0
O365 O 0.06706 0.13015 0.09818 0.0
O366 O 0.04329 0.03221 0.03301 0.0
O367 O 0.08929 0.05805 0.05779 0.0
H368 H 0.92056 0.05465 0.96374 0.0
H369 H 0.8878 0.08689 0.97331 0.0
H370 H 0.95521 0.15555 0.03814 0.0
H371 H 0.98733 0.12255 0.02987 0.0
H372 H 0.20362 0.14515 0.08639 0.0
H373 H 0.23686 0.11283 0.07961 0.0
H374 H 0.17113 0.02788 0.07476 0.0
H375 H 0.13842 0.06005 0.08305 0.0
Pr376 Pr 0.31963 0.88074 0.30192 0.0
Pr377 Pr 0.30577 0.82048 0.26308 0.0
C378 C 0.34765 0.9376 0.33452 0.0
C379 C 0.36242 0.96738 0.32619 0.0
C380 C 0.35189 0.9787 0.29871 0.0
C381 C 0.3679 0.00565 0.28973 0.0
C382 C 0.39468 0.02082 0.30781 0.0
C383 C 0.40527 0.0091 0.3349 0.0
C384 C 0.38915 0.98266 0.34414 0.0
C385 C 0.26381 0.86606 0.2686 0.0
C386 C 0.32705 0.88057 0.22643 0.0
C387 C 0.28213 0.76436 0.22654 0.0
C388 C 0.27076 0.73123 0.22845 0.0
C389 C 0.27493 0.71947 0.25724 0.0
C390 C 0.25944 0.68924 0.25973 0.0
C391 C 0.23948 0.67125 0.23359 0.0
C392 C 0.23654 0.68248 0.2045 0.0
C393 C 0.25219 0.71239 0.20194 0.0
C394 C 0.36228 0.83761 0.29628 0.0
C395 C 0.29688 0.8207 0.33827 0.0
O396 O 0.35943 0.91448 0.32982 0.0
O397 O 0.32023 0.92911 0.32593 0.0
O398 O 0.28452 0.86145 0.25753 0.0
O399 O 0.27162 0.87809 0.29832 0.0
O400 O 0.31259 0.8508 0.22229 0.0
O401 O 0.33533 0.89671 0.25534 0.0
O402 O 0.26775 0.78323 0.23634 0.0
O403 O 0.30934 0.77583 0.23516 0.0
O404 O 0.34103 0.84005 0.30731 0.0
O405 O 0.35405 0.82574 0.26658 0.0
O406 O 0.30872 0.85135 0.34231 0.0
O407 O 0.29102 0.80379 0.30973 0.0
H408 H 0.33149 0.96666 0.28416 0.0
H409 H 0.35941 0.01481 0.26902 0.0
H410 H 0.42583 0.02092 0.34924 0.0
H411 H 0.39771 0.9738 0.36504 0.0
H412 H 0.28911 0.73414 0.27794 0.0
H413 H 0.26195 0.68053 0.28221 0.0
H414 H 0.22132 0.66858 0.18413 0.0
H415 H 0.24874 0.72144 0.1797 0.0
Pr416 Pr 0.59066 0.10336 0.52668 0.0
Pr417 Pr 0.53247 0.0915 0.53569 0.0
C418 C 0.64349 0.10288 0.52053 0.0
C419 C 0.66461 0.08462 0.52839 0.0
C420 C 0.67113 0.06564 0.50426 0.0
C421 C 0.69188 0.04939 0.51115 0.0
C422 C 0.70634 0.05169 0.54231 0.0
C423 C 0.69952 0.07002 0.5666 0.0
C424 C 0.67906 0.08663 0.55969 0.0
C425 C 0.55673 0.1311 0.48479 0.0
C426 C 0.54753 0.03219 0.49868 0.0
C427 C 0.4794 0.09345 0.53889 0.0
C428 C 0.45993 0.11414 0.53441 0.0
C429 C 0.44611 0.12095 0.55868 0.0
C430 C 0.42572 0.138 0.55402 0.0
C431 C 0.41878 0.14854 0.52499 0.0
C432 C 0.43321 0.14273 0.50101 0.0
C433 C 0.4535 0.12551 0.5056 0.0
C434 C 0.56357 0.05972 0.57551 0.0
C435 C 0.57765 0.16187 0.56623 0.0
O436 O 0.63784 0.11971 0.54389 0.0
O437 O 0.62123 0.08928 0.49856 0.0
O438 O 0.54949 0.10353 0.49163 0.0
O439 O 0.58276 0.14415 0.49789 0.0
O440 O 0.52668 0.04569 0.4995 0.0
O441 O 0.57349 0.04816 0.51175 0.0
O442 O 0.48633 0.08124 0.51373 0.0
O443 O 0.50018 0.10168 0.56346 0.0
O444 O 0.57312 0.0878 0.57015 0.0
O445 O 0.53716 0.04911 0.56258 0.0
O446 O 0.59786 0.14785 0.56394 0.0
O447 O 0.55124 0.14679 0.5536 0.0
H448 H 0.66052 0.06381 0.47995 0.0
H449 H 0.69709 0.03556 0.49211 0.0
H450 H 0.71066 0.07224 0.59075 0.0
H451 H 0.67464 0.10106 0.57888 0.0
H452 H 0.45055 0.11233 0.58101 0.0
H453 H 0.41475 0.1422 0.57276 0.0
H454 H 0.42809 0.15062 0.47843 0.0
H455 H 0.46362 0.12048 0.48633 0.0
Pr456 Pr 0.28591 0.35587 0.77521 0.0
Pr457 Pr 0.34801 0.35492 0.78594 0.0
C458 C 0.22952 0.34339 0.76825 0.0
C459 C 0.20883 0.33977 0.78882 0.0
C460 C 0.1835 0.348 0.77945 0.0
C461 C 0.1637 0.34506 0.79874 0.0
C462 C 0.16893 0.33379 0.82768 0.0
C463 C 0.19431 0.32563 0.8372 0.0
C464 C 0.2142 0.32867 0.81792 0.0
C465 C 0.32155 0.40878 0.75876 0.0
C466 C 0.32606 0.38928 0.84359 0.0
C467 C 0.40282 0.36074 0.78658 0.0
C468 C 0.42369 0.36394 0.76635 0.0
C469 C 0.4165 0.35003 0.73451 0.0
C470 C 0.43744 0.35085 0.71679 0.0
C471 C 0.46569 0.36548 0.73082 0.0
C472 C 0.47259 0.38054 0.76217 0.0
C473 C 0.45172 0.37978 0.7798 0.0
C474 C 0.31568 0.31188 0.81727 0.0
C475 C 0.30746 0.32346 0.71432 0.0
O476 O 0.24298 0.32133 0.76625 0.0
O477 O 0.24563 0.3719 0.76995 0.0
O478 O 0.32264 0.38052 0.75354 0.0
O479 O 0.30085 0.41076 0.77257 0.0
O480 O 0.34679 0.39316 0.82793 0.0
O481 O 0.30101 0.37083 0.82996 0.0
O482 O 0.39264 0.38514 0.79232 0.0
O483 O 0.38422 0.33331 0.78264 0.0
O484 O 0.30805 0.31797 0.78987 0.0
O485 O 0.34199 0.3259 0.82814 0.0
O486 O 0.28592 0.3305 0.72468 0.0
O487 O 0.33283 0.33018 0.73272 0.0
H488 H 0.17907 0.35675 0.75719 0.0
H489 H 0.14425 0.35153 0.79111 0.0
H490 H 0.19869 0.31699 0.85952 0.0
H491 H 0.23373 0.32241 0.82572 0.0
H492 H 0.39491 0.33784 0.72366 0.0
H493 H 0.4318 0.33914 0.69258 0.0
H494 H 0.49428 0.39196 0.77331 0.0
H495 H 0.4576 0.39073 0.80429 0.0
Pr496 Pr 0.06277 0.08597 0.49761 0.0
Pr497 Pr 0.07457 0.12226 0.55655 0.0
C498 C 0.04219 0.05394 0.43922 0.0
C499 C 0.04022 0.0597 0.40637 0.0
C500 C 0.05334 0.04364 0.38649 0.0
C501 C 0.04878 0.04563 0.35431 0.0
C502 C 0.03068 0.06331 0.34177 0.0
C503 C 0.01917 0.08115 0.36185 0.0
C504 C 0.02397 0.07947 0.39404 0.0
C505 C 0.11892 0.12343 0.5114 0.0
C506 C 0.05463 0.15981 0.4994 0.0
C507 C 0.09657 0.15605 0.61382 0.0
C508 C 0.10083 0.151 0.64666 0.0
C509 C 0.07899 0.13364 0.65932 0.0
C510 C 0.08432 0.12824 0.69059 0.0
C511 C 0.11153 0.1398 0.70889 0.0
C512 C 0.1332 0.15706 0.69619 0.0
C513 C 0.12785 0.16274 0.66526 0.0
C514 C 0.0175 0.08687 0.54146 0.0
C515 C 0.08155 0.0481 0.55556 0.0
O516 O 0.02698 0.0664 0.45588 0.0
O517 O 0.0672 0.05509 0.45506 0.0
O518 O 0.09776 0.13262 0.51609 0.0
O519 O 0.11149 0.0936 0.49983 0.0
O520 O 0.06991 0.16408 0.52804 0.0
O521 O 0.04591 0.13078 0.48329 0.0
O522 O 0.11138 0.14351 0.59672 0.0
O523 O 0.07079 0.15331 0.59918 0.0
O524 O 0.03835 0.07641 0.53757 0.0
O525 O 0.02652 0.11649 0.55377 0.0
O526 O 0.06761 0.04397 0.52624 0.0
O527 O 0.08989 0.07705 0.57177 0.0
H528 H 0.06608 0.02842 0.3956 0.0
H529 H 0.05767 0.03166 0.3389 0.0
H530 H 1.00513 0.09487 0.35234 0.0
H531 H 0.01392 0.09248 0.4089 0.0
H532 H 0.05801 0.12412 0.6451 0.0
H533 H 0.06748 0.11501 0.7004 0.0
H534 H 0.15429 0.16614 0.71032 0.0
H535 H 0.14489 0.17599 0.65571 0.0
Pr536 Pr 0.29732 0.81955 0.78949 0.0
Pr537 Pr 0.3279 0.89013 0.77738 0.0
C538 C 0.27899 0.75623 0.78211 0.0
C539 C 0.28806 0.73089 0.76524 0.0
C540 C 0.30187 0.71175 0.78262 0.0
C541 C 0.31478 0.69133 0.7677 0.0
C542 C 0.3139 0.68967 0.73519 0.0
C543 C 0.29899 0.70751 0.71746 0.0
C544 C 0.28612 0.72797 0.73237 0.0
C545 C 0.30064 0.86386 0.84287 0.0
C546 C 0.36821 0.84691 0.81057 0.0
C547 C 0.34639 0.95348 0.78819 0.0
C548 C 0.33444 0.97704 0.80339 0.0
C549 C 0.35169 0.00643 0.81901 0.0
C550 C 0.34009 0.02809 0.83447 0.0
C551 C 0.3112 0.02033 0.83452 0.0
C552 C 0.29408 0.99086 0.81918 0.0
C553 C 0.30561 0.96936 0.80377 0.0
C554 C 0.32506 0.84494 0.72412 0.0
C555 C 0.2577 0.8634 0.75473 0.0
O556 O 0.26634 0.77362 0.76493 0.0
O557 O 0.29731 0.77282 0.80685 0.0
O558 O 0.30881 0.8694 0.81751 0.0
O559 O 0.28842 0.83385 0.84014 0.0
O560 O 0.36671 0.8753 0.80392 0.0
O561 O 0.34594 0.82207 0.80417 0.0
O562 O 0.35621 0.93533 0.80691 0.0
O563 O 0.33149 0.93786 0.76095 0.0
O564 O 0.31663 0.84 0.7495 0.0
O565 O 0.33705 0.87513 0.72672 0.0
O566 O 0.25894 0.83481 0.76114 0.0
O567 O 0.27982 0.8882 0.762 0.0
H568 H 0.30361 0.71351 0.80794 0.0
H569 H 0.32608 0.67742 0.78159 0.0
H570 H 0.29795 0.70618 0.69226 0.0
H571 H 0.27546 0.74214 0.71828 0.0
H572 H 0.37402 0.01259 0.81922 0.0
H573 H 0.35349 0.05094 0.84606 0.0
H574 H 0.27172 0.9847 0.81881 0.0
H575 H 0.29196 0.94671 0.79212 0.0
Pr576 Pr 0.57806 0.09664 0.07068 0.0
Pr577 Pr 0.5569 0.10667 0.99903 0.0
C578 C 0.59138 0.11118 0.13364 0.0
C579 C 0.58547 0.13688 0.15349 0.0
C580 C 0.57847 0.13209 0.18276 0.0
C581 C 0.56814 0.1544 0.19903 0.0
C582 C 0.56467 0.18163 0.18612 0.0
C583 C 0.57277 0.1871 0.15751 0.0
C584 C 0.58293 0.16474 0.14122 0.0
C585 C 0.57417 0.04017 0.03024 0.0
C586 C 0.50921 0.07578 0.03944 0.0
C587 C 0.54232 0.09422 0.93599 0.0
C588 C 0.54773 0.07016 0.91382 0.0
C589 C 0.54807 0.07509 0.88263 0.0
C590 C 0.55681 0.05426 0.86265 0.0
C591 C 0.56536 0.02839 0.87375 0.0
C592 C 0.56418 0.02283 0.90467 0.0
C593 C 0.55538 0.04367 0.92464 0.0
C594 C 0.56068 0.16296 0.03995 0.0
C595 C 0.62616 0.12408 0.02876 0.0
O596 O 0.56906 0.08909 0.1189 0.0
O597 O 0.60946 0.11991 0.11569 0.0
O598 O 0.56896 0.06559 0.02236 0.0
O599 O 0.58291 0.04407 0.0607 0.0
O600 O 0.51465 0.08036 0.0114 0.0
O601 O 0.52893 0.08357 0.06551 0.0
O602 O 0.5252 0.08353 0.95433 0.0
O603 O 0.56471 0.11615 0.95088 0.0
O604 O 0.5659 0.13746 0.04741 0.0
O605 O 0.55193 0.15924 0.00955 0.0
O606 O 0.62032 0.12169 0.05703 0.0
O607 O 0.60581 0.11703 0.00327 0.0
H608 H 0.5799 0.11055 0.19235 0.0
H609 H 0.5619 0.14991 0.22112 0.0
H610 H 0.5701 0.20795 0.14723 0.0
H611 H 0.58773 0.16854 0.11841 0.0
H612 H 0.54249 0.09558 0.87407 0.0
H613 H 0.55783 0.05887 0.83882 0.0
H614 H 0.57089 1.00306 0.91351 0.0
H615 H 0.55538 0.03974 0.94881 0.0
Pr616 Pr 0.28572 0.32812 0.26745 0.0
Pr617 Pr 0.33935 0.38011 0.2913 0.0
C618 C 0.23277 0.2937 0.26599 0.0
C619 C 0.21084 0.30057 0.28258 0.0
C620 C 0.18337 0.28078 0.27551 0.0
C621 C 0.1631 0.28716 0.29214 0.0
C622 C 0.17 0.31348 0.31602 0.0
C623 C 0.19738 0.33336 0.32285 0.0
C624 C 0.21756 0.3269 0.30635 0.0
C625 C 0.31037 0.35133 0.21754 0.0
C626 C 0.28242 0.40361 0.28085 0.0
C627 C 0.39243 0.41387 0.29327 0.0
C628 C 0.41438 0.40632 0.27707 0.0
C629 C 0.44301 0.4181 0.29107 0.0
C630 C 0.46368 0.41037 0.27596 0.0
C631 C 0.4561 0.39075 0.24654 0.0
C632 C 0.42743 0.37899 0.23253 0.0
C633 C 0.4068 0.38656 0.2477 0.0
C634 C 0.31467 0.35565 0.34074 0.0
C635 C 0.34326 0.30522 0.27757 0.0
O636 O 0.25503 0.28958 0.28402 0.0
O637 O 0.2392 0.31126 0.24446 0.0
O638 O 0.30888 0.36756 0.24272 0.0
O639 O 0.29709 0.3217 0.21682 0.0
O640 O 0.30982 0.41387 0.28376 0.0
O641 O 0.2706 0.37351 0.28125 0.0
O642 O 0.37043 0.41845 0.27512 0.0
O643 O 0.38572 0.39685 0.3151 0.0
O644 O 0.31662 0.34002 0.31554 0.0
O645 O 0.32724 0.38557 0.3418 0.0
O646 O 0.31578 0.29468 0.27423 0.0
O647 O 0.35514 0.33542 0.27791 0.0
H648 H 0.17766 0.26029 0.25735 0.0
H649 H 0.14209 0.27149 0.28652 0.0
H650 H 0.20321 0.35372 0.34118 0.0
H651 H 0.23856 0.34231 0.31238 0.0
H652 H 0.44938 0.43317 0.31375 0.0
H653 H 0.48563 0.41962 0.28727 0.0
H654 H 0.42103 0.36377 0.20994 0.0
H655 H 0.38487 0.37685 0.23648 0.0
Pr656 Pr 0.56225 0.58391 1.00023 0.0
Pr657 Pr 0.57351 0.6204 0.06012 0.0
C658 C 0.54255 0.55139 0.94192 0.0
C659 C 0.53764 0.55863 0.90986 0.0
C660 C 0.5362 0.53536 0.88478 0.0
C661 C 0.52748 0.54021 0.85391 0.0
C662 C 0.52003 0.56827 0.84816 0.0
C663 C 0.5234 0.59249 0.8731 0.0
C664 C 0.53238 0.58776 0.90395 0.0
C665 C 0.61831 0.6207 0.01569 0.0
C666 C 0.55389 0.65799 1.00237 0.0
C667 C 0.59662 0.65298 0.11783 0.0
C668 C 0.60173 0.64584 0.14991 0.0
C669 C 0.58529 0.61851 0.15826 0.0
C670 C 0.59201 0.61072 0.18845 0.0
C671 C 0.61541 0.63001 0.21007 0.0
C672 C 0.63154 0.65747 0.20176 0.0
C673 C 0.62472 0.66536 0.17178 0.0
C674 C 0.51721 0.58461 0.0447 0.0
C675 C 0.58058 0.5458 0.05819 0.0
O676 O 0.5264 0.55998 0.95984 0.0
O677 O 0.56878 0.55701 0.95625 0.0
O678 O 0.59711 0.63023 0.01975 0.0
O679 O 0.61092 0.59084 0.00424 0.0
O680 O 0.56797 0.66215 0.03165 0.0
O681 O 0.54604 0.62912 0.98586 0.0
O682 O 0.61118 0.6419 0.09934 0.0
O683 O 0.5704 0.64967 0.10435 0.0
O684 O 0.53805 0.57441 0.04025 0.0
O685 O 0.52516 0.61408 0.05764 0.0
O686 O 0.5674 0.54198 0.02857 0.0
O687 O 0.58814 0.57452 0.07493 0.0
H688 H 0.54045 0.51291 0.88913 0.0
H689 H 0.52471 0.5213 0.83469 0.0
H690 H 0.51748 0.61414 0.86879 0.0
H691 H 0.53375 0.60608 0.92319 0.0
H692 H 0.56766 0.60303 0.14133 0.0
H693 H 0.5794 0.58954 0.19478 0.0
H694 H 0.64962 0.67256 0.21844 0.0
H695 H 0.63769 0.68631 0.16544 0.0
Pr696 Pr 0.79692 0.32101 0.28927 0.0
Pr697 Pr 0.82867 0.39028 0.2774 0.0
C698 C 0.77507 0.25814 0.28272 0.0
C699 C 0.78225 0.23072 0.26723 0.0
C700 C 0.78984 0.20835 0.28554 0.0
C701 C 0.80232 0.18594 0.27328 0.0
C702 C 0.80701 0.18543 0.24244 0.0
C703 C 0.7977 0.20632 0.22335 0.0
C704 C 0.78552 0.22899 0.23571 0.0
C705 C 0.79918 0.36546 0.34225 0.0
C706 C 0.86739 0.34595 0.31193 0.0
C707 C 0.85085 0.45306 0.28752 0.0
C708 C 0.84379 0.47727 0.30788 0.0
C709 C 0.84859 0.50854 0.30158 0.0
C710 C 0.83695 0.52992 0.31725 0.0
C711 C 0.8202 0.51994 0.339 0.0
C712 C 0.81688 0.48923 0.34664 0.0
C713 C 0.82862 0.468 0.33115 0.0
C714 C 0.82369 0.34575 0.22306 0.0
C715 C 0.75926 0.36595 0.25418 0.0
O716 O 0.76443 0.27622 0.26453 0.0
O717 O 0.79394 0.27418 0.30724 0.0
O718 O 0.8085 0.37117 0.31757 0.0
O719 O 0.78626 0.33566 0.33885 0.0
O720 O 0.86625 0.37436 0.30519 0.0
O721 O 0.84492 0.32138 0.30496 0.0
O722 O 0.86277 0.43353 0.30222 0.0
O723 O 0.83078 0.43878 0.26326 0.0
O724 O 0.81572 0.3404 0.24855 0.0
O725 O 0.83609 0.37575 0.2259 0.0
O726 O 0.76112 0.33671 0.25698 0.0
O727 O 0.78078 0.39071 0.26636 0.0
H728 H 0.7876 0.2094 0.30992 0.0
H729 H 0.80948 0.16996 0.28827 0.0
H730 H 0.8013 0.2062 0.19949 0.0
H731 H 0.78006 0.24611 0.22113 0.0
H732 H 0.86005 0.51591 0.28349 0.0
H733 H 0.83951 0.55358 0.31105 0.0
H734 H 0.80398 0.48126 0.36332 0.0
H735 H 0.82461 0.44382 0.33609 0.0
Pr736 Pr 0.07908 0.59861 0.57124 0.0
Pr737 Pr 0.05711 0.60957 0.50046 0.0
C738 C 0.09408 0.61229 0.63415 0.0
C739 C 0.09019 0.63865 0.65498 0.0
C740 C 0.08032 0.63287 0.68261 0.0
C741 C 0.071 0.65595 0.69905 0.0
C742 C 0.07146 0.68498 0.68799 0.0
C743 C 0.08267 0.69148 0.66132 0.0
C744 C 0.09188 0.66837 0.64482 0.0
C745 C 0.07468 0.54246 0.53024 0.0
C746 C 0.00991 0.57765 0.54108 0.0
C747 C 0.04136 0.59793 0.43748 0.0
C748 C 0.04577 0.57337 0.41506 0.0
C749 C 0.04394 0.577 0.38326 0.0
C750 C 0.05183 0.55566 0.36291 0.0
C751 C 0.06172 0.53066 0.37426 0.0
C752 C 0.06259 0.52634 0.40583 0.0
C753 C 0.05458 0.5476 0.42613 0.0
C754 C 0.06178 0.66569 0.54216 0.0
C755 C 0.12653 0.62522 0.52851 0.0
O756 O 0.11192 0.61985 0.61567 0.0
O757 O 0.07072 0.59159 0.61976 0.0
O758 O 0.0693 0.56789 0.5226 0.0
O759 O 0.08374 0.54615 0.56062 0.0
O760 O 0.01514 0.58273 0.51307 0.0
O761 O 0.02989 0.58507 0.56696 0.0
O762 O 0.0244 0.58777 0.45618 0.0
O763 O 0.06432 0.61917 0.45214 0.0
O764 O 0.06698 0.64007 0.54921 0.0
O765 O 0.05261 0.66226 0.51186 0.0
O766 O 0.12105 0.62394 0.55706 0.0
O767 O 0.10581 0.61836 0.50342 0.0
H768 H 0.07849 0.60998 0.69053 0.0
H769 H 0.06233 0.6507 0.71964 0.0
H770 H 0.08304 0.71377 0.65252 0.0
H771 H 0.09904 0.67315 0.6233 0.0
H772 H 0.0374 0.5969 0.37448 0.0
H773 H 0.05134 0.55938 0.33859 0.0
H774 H 0.07041 0.50731 0.41487 0.0
H775 H 0.05619 0.54468 0.45074 0.0
Pr776 Pr 0.7819 0.86018 0.2749 0.0
Pr777 Pr 0.84245 0.85435 0.28749 0.0
C778 C 0.72777 0.85754 0.27685 0.0
C779 C 0.70855 0.8528 0.29938 0.0
C780 C 0.70211 0.87883 0.31484 0.0
C781 C 0.68442 0.87474 0.33651 0.0
C782 C 0.67355 0.84455 0.34492 0.0
C783 C 0.67772 0.81831 0.32633 0.0
C784 C 0.69532 0.82237 0.30452 0.0
C785 C 0.81654 0.90279 0.24594 0.0
C786 C 0.82441 0.89046 0.34642 0.0
C787 C 0.89654 0.8553 0.28756 0.0
C788 C 0.91716 0.8556 0.26703 0.0
C789 C 0.9341 0.8343 0.27 0.0
C790 C 0.95567 0.83588 0.25325 0.0
C791 C 0.96072 0.85887 0.23332 0.0
C792 C 0.94328 0.87961 0.22943 0.0
C793 C 0.92156 0.87796 0.24615 0.0
C794 C 0.80586 0.81153 0.31483 0.0
C795 C 0.80211 0.82481 0.21565 0.0
O796 O 0.73611 0.83306 0.26635 0.0
O797 O 0.74764 0.88408 0.28246 0.0
O798 O 0.82394 0.89517 0.27294 0.0
O799 O 0.78958 0.89225 0.23604 0.0
O800 O 0.8463 0.88839 0.33408 0.0
O801 O 0.79863 0.87952 0.32943 0.0
O802 O 0.88783 0.88091 0.29234 0.0
O803 O 0.8769 0.82904 0.28529 0.0
O804 O 0.79987 0.81843 0.28735 0.0
O805 O 0.83201 0.82456 0.32772 0.0
O806 O 0.78029 0.83051 0.22634 0.0
O807 O 0.82742 0.8324 0.2339 0.0
H808 H 0.71047 0.90252 0.30988 0.0
H809 H 0.67894 0.89566 0.34566 0.0
H810 H 0.66696 0.79422 0.32745 0.0
H811 H 0.69841 0.80152 0.29157 0.0
H812 H 0.93113 0.81696 0.28599 0.0
H813 H 0.96899 0.81977 0.25654 0.0
H814 H 0.94697 0.89752 0.21415 0.0
H815 H 0.90873 0.89462 0.24334 0.0
Pr816 Pr 0.82052 0.38137 0.7992 0.0
Pr817 Pr 0.81118 0.32161 0.76362 0.0
C818 C 0.84298 0.44159 0.82624 0.0
C819 C 0.85182 0.47072 0.81282 0.0
C820 C 0.8467 0.49893 0.82535 0.0
C821 C 0.85939 0.52752 0.8162 0.0
C822 C 0.87765 0.52789 0.79498 0.0
C823 C 0.88041 0.49941 0.78014 0.0
C824 C 0.86743 0.47095 0.78886 0.0
C825 C 0.76558 0.3634 0.76364 0.0
C826 C 0.83003 0.3795 0.72371 0.0
C827 C 0.78931 0.26404 0.72906 0.0
C828 C 0.77469 0.23163 0.73076 0.0
C829 C 0.78254 0.21585 0.75602 0.0
C830 C 0.76612 0.18584 0.75791 0.0
C831 C 0.7417 0.17202 0.73484 0.0
C832 C 0.73427 0.18767 0.70948 0.0
C833 C 0.75074 0.21725 0.70739 0.0
C834 C 0.866 0.33919 0.80062 0.0
C835 C 0.79943 0.32306 0.83776 0.0
O836 O 0.85781 0.42119 0.82263 0.0
O837 O 0.81599 0.42855 0.82143 0.0
O838 O 0.78725 0.35983 0.75405 0.0
O839 O 0.77182 0.37499 0.79346 0.0
O840 O 0.82052 0.34865 0.72125 0.0
O841 O 0.83435 0.39703 0.75159 0.0
O842 O 0.77494 0.2848 0.73299 0.0
O843 O 0.81592 0.27434 0.74237 0.0
O844 O 0.84407 0.34254 0.8098 0.0
O845 O 0.86017 0.3295 0.77036 0.0
O846 O 0.81142 0.35367 0.84132 0.0
O847 O 0.79395 0.30583 0.80941 0.0
H848 H 0.83438 0.49908 0.84349 0.0
H849 H 0.85715 0.54952 0.82781 0.0
H850 H 0.89441 0.49937 0.76374 0.0
H851 H 0.87136 0.44944 0.77841 0.0
H852 H 0.80089 0.22688 0.77442 0.0
H853 H 0.77205 0.1737 0.77746 0.0
H854 H 0.71551 0.17705 0.69147 0.0
H855 H 0.7444 0.22932 0.6879 0.0
Pr856 Pr 0.7873 0.82745 0.76859 0.0
Pr857 Pr 0.8418 0.87927 0.79518 0.0
C858 C 0.73395 0.79394 0.76604 0.0
C859 C 0.71294 0.80022 0.78445 0.0
C860 C 0.68422 0.78512 0.77392 0.0
C861 C 0.66442 0.79157 0.79121 0.0
C862 C 0.67298 0.81338 0.81924 0.0
C863 C 0.7017 0.82855 0.82974 0.0
C864 C 0.72147 0.82199 0.81256 0.0
C865 C 0.81172 0.85392 0.71992 0.0
C866 C 0.7845 0.90172 0.78393 0.0
C867 C 0.89698 0.91146 0.80393 0.0
C868 C 0.92032 0.90601 0.78852 0.0
C869 C 0.94757 0.92643 0.79734 0.0
C870 C 0.96949 0.92044 0.78312 0.0
C871 C 0.9644 0.89433 0.7592 0.0
C872 C 0.93713 0.8743 0.75035 0.0
C873 C 0.9158 0.87956 0.76538 0.0
C874 C 0.81533 0.85071 0.84238 0.0
C875 C 0.84504 0.8066 0.77566 0.0
O876 O 0.75592 0.78706 0.78187 0.0
O877 O 0.74062 0.81362 0.74631 0.0
O878 O 0.81104 0.86897 0.74619 0.0
O879 O 0.79862 0.82399 0.71789 0.0
O880 O 0.81174 0.91241 0.78525 0.0
O881 O 0.7739 0.87224 0.78772 0.0
O882 O 0.88745 0.89031 0.82102 0.0
O883 O 0.87659 0.92011 0.78688 0.0
O884 O 0.81772 0.83736 0.81634 0.0
O885 O 0.82822 0.88078 0.84541 0.0
O886 O 0.81855 0.79529 0.77731 0.0
O887 O 0.85391 0.83595 0.77104 0.0
H888 H 0.67711 0.76835 0.75232 0.0
H889 H 0.64239 0.77959 0.7827 0.0
H890 H 0.70881 0.84539 0.8513 0.0
H891 H 0.74348 0.83395 0.82126 0.0
H892 H 0.95199 0.94676 0.81545 0.0
H893 H 0.9904 0.93619 0.79072 0.0
H894 H 0.93245 0.85394 0.73219 0.0
H895 H 0.89579 0.86264 0.7585 0.0
Pr896 Pr 0.53391 0.57694 0.5088 0.0
Pr897 Pr 0.59091 0.61767 0.55928 0.0
C898 C 0.47847 0.56349 0.48495 0.0
C899 C 0.45778 0.5828 0.48781 0.0
C900 C 0.45848 0.61014 0.47313 0.0
C901 C 0.44021 0.62926 0.478 0.0
C902 C 0.42095 0.62163 0.49779 0.0
C903 C 0.42014 0.59438 0.51238 0.0
C904 C 0.43821 0.57514 0.50733 0.0
C905 C 0.58383 0.59292 0.48694 0.0
C906 C 0.55163 0.65832 0.52122 0.0
C907 C 0.64644 0.63203 0.58298 0.0
C908 C 0.66753 0.61325 0.58029 0.0
C909 C 0.66661 0.58541 0.59414 0.0
C910 C 0.68537 0.56688 0.58949 0.0
C911 C 0.70532 0.57558 0.57073 0.0
C912 C 0.70631 0.60329 0.55689 0.0
C913 C 0.68773 0.62196 0.56172 0.0
C914 C 0.54086 0.60415 0.58082 0.0
C915 C 0.57343 0.53595 0.54581 0.0
O916 O 0.48883 0.55391 0.51094 0.0
O917 O 0.49736 0.57245 0.46789 0.0
O918 O 0.57538 0.6088 0.50685 0.0
O919 O 0.56409 0.56716 0.47381 0.0
O920 O 0.5774 0.66025 0.53715 0.0
O921 O 0.53186 0.63103 0.51429 0.0
O922 O 0.63581 0.64113 0.55685 0.0
O923 O 0.62768 0.62286 0.60014 0.0
O924 O 0.54886 0.58681 0.56158 0.0
O925 O 0.5612 0.62954 0.59349 0.0
O926 O 0.54783 0.53387 0.52933 0.0
O927 O 0.59276 0.5635 0.55444 0.0
H928 H 0.47339 0.61708 0.45821 0.0
H929 H 0.44127 0.65021 0.46657 0.0
H930 H 0.40555 0.58806 0.52781 0.0
H931 H 0.43715 0.55443 0.51913 0.0
H932 H 0.65117 0.57764 0.60825 0.0
H933 H 0.68416 0.54556 0.60033 0.0
H934 H 0.72146 0.61045 0.54227 0.0
H935 H 0.68891 0.64306 0.55052 0.0
Pr936 Pr 0.09468 0.60276 0.02567 0.0
Pr937 Pr 0.0332 0.58933 0.03078 0.0
C938 C 0.1486 0.60246 0.02459 0.0
C939 C 0.16783 0.5813 0.0289 0.0
C940 C 0.17337 0.5646 0.00263 0.0
C941 C 0.19093 0.54409 0.00635 0.0
C942 C 0.20241 0.53789 0.03656 0.0
C943 C 0.19936 0.55796 0.06266 0.0
C944 C 0.18201 0.57875 0.05896 0.0
C945 C 0.06271 0.63251 0.98417 0.0
C946 C 0.05087 0.53123 0.99387 0.0
C947 C 0.97914 0.59046 0.02955 0.0
C948 C 0.96045 0.61208 0.02856 0.0
C949 C 0.93561 0.60362 0.04005 0.0
C950 C 0.91666 0.62261 0.0379 0.0
C951 C 0.92217 0.65044 0.02416 0.0
C952 C 0.9473 0.65935 0.01314 0.0
C953 C 0.96632 0.64028 0.0153 0.0
C954 C 0.06364 0.55758 0.07112 0.0
C955 C 0.07649 0.66065 0.06354 0.0
O956 O 0.1408 0.61388 0.04958 0.0
O957 O 0.12834 0.5948 0.99944 0.0
O958 O 0.0548 0.60467 0.99039 0.0
O959 O 0.08914 0.64402 0.99675 0.0
O960 O 0.02937 0.54357 0.99539 0.0
O961 O 0.07682 0.54802 0.00622 0.0
O962 O 0.98902 0.58492 0.00424 0.0
O963 O 0.99745 0.59294 0.05573 0.0
O964 O 0.07326 0.58591 0.06633 0.0
O965 O 0.03738 0.54678 0.05746 0.0
O966 O 0.09798 0.64975 0.05821 0.0
O967 O 0.05048 0.64275 0.05456 0.0
H968 H 0.16441 0.56768 0.97897 0.0
H969 H 0.19575 0.53407 0.98503 0.0
H970 H 0.21072 0.55861 0.08628 0.0
H971 H 0.17973 0.59282 0.07978 0.0
H972 H 0.93066 0.58201 0.05033 0.0
H973 H 0.89747 0.61538 0.04662 0.0
H974 H 0.95199 0.68081 0.0026 0.0
H975 H 0.98539 0.64729 0.0063 0.0
C976 C 0.06454 0.22939 0.97708 0.0
C977 C 0.04075 0.24052 0.98152 0.0
C978 C 0.03105 0.20183 0.01848 0.0
C979 C 0.05317 0.1886 0.01159 0.0
N980 N 0.08802 0.18694 0.97985 0.0
N981 N 0.99961 0.23523 0.00409 0.0
C982 C 0.06926 0.2018 0.98987 0.0
C983 C 0.02362 0.22624 1.00174 0.0
N984 N 0.08316 0.24569 0.96115 0.0
N985 N 0.01762 0.19162 0.04177 0.0
H986 H 0.99392 0.2533 0.99275 0.0
H987 H 0.98435 0.22341 0.01531 0.0
H988 H 0.02253 0.17403 0.05439 0.0
H989 H 1.00337 0.20225 0.05041 0.0
H990 H 0.10253 0.24113 0.96015 0.0
H991 H 0.08045 0.26571 0.95124 0.0
H992 H 0.0977 0.19288 0.96116 0.0
H993 H 0.0922 0.1668 0.98827 0.0
C994 C 0.19638 0.84898 0.20551 0.0
C995 C 0.19275 0.87987 0.20312 0.0
C996 C 0.23619 0.90218 0.24343 0.0
C997 C 0.23845 0.87104 0.24765 0.0
N998 N 0.21763 0.81486 0.23702 0.0
N999 N 0.20667 0.93556 0.22343 0.0
C1000 C 0.21769 0.84446 0.22979 0.0
C1001 C 0.21188 0.90637 0.22326 0.0
N1002 N 0.17955 0.82387 0.18434 0.0
N1003 N 0.2579 0.9278 0.25735 0.0
H1004 H 0.18976 0.93971 0.2082 0.0
H1005 H 0.21788 0.9551 0.24013 0.0
H1006 H 0.27624 0.92591 0.27172 0.0
H1007 H 0.25888 0.95072 0.25241 0.0
H1008 H 0.18306 0.80137 0.18253 0.0
H1009 H 0.16337 0.82623 0.16685 0.0
H1010 H 0.20164 0.79463 0.227 0.0
H1011 H 0.23218 0.81103 0.25555 0.0
C1012 C 0.56336 0.95925 0.45905 0.0
C1013 C 0.53953 0.93446 0.45978 0.0
C1014 C 0.52098 0.97329 0.48867 0.0
C1015 C 0.54281 0.99856 0.4835 0.0
N1016 N 0.58003 0.01464 0.4551 0.0
N1017 N 0.49262 0.91948 0.47018 0.0
C1018 C 0.56264 0.99124 0.46619 0.0
C1019 C 0.51746 0.94184 0.47324 0.0
N1020 N 0.58711 0.95231 0.45224 0.0
N1021 N 0.5043 0.97867 0.50923 0.0
H1022 H 0.48886 0.89644 0.45866 0.0
H1023 H 0.47488 0.92471 0.47653 0.0
H1024 H 0.50633 1.00083 0.5217 0.0
H1025 H 0.49022 0.96044 0.5162 0.0
H1026 H 0.60585 0.9696 0.45403 0.0
H1027 H 0.58904 0.92914 0.44861 0.0
H1028 H 0.59328 0.01 0.44022 0.0
H1029 H 0.57862 0.03805 0.45736 0.0
C1030 C 0.5304 0.39056 0.69571 0.0
C1031 C 0.5384 0.36163 0.69229 0.0
C1032 C 0.49689 0.33435 0.71081 0.0
C1033 C 0.48865 0.36311 0.71391 0.0
N1034 N 0.4933 0.4163 0.70212 0.0
N1035 N 0.52506 0.3046 0.68712 0.0
C1036 C 0.50403 0.39049 0.70388 0.0
C1037 C 0.52023 0.33306 0.69679 0.0
N1038 N 0.5486 0.41832 0.69304 0.0
N1039 N 0.48345 0.30874 0.72277 0.0
H1040 H 0.54161 0.30279 0.67599 0.0
H1041 H 0.51106 0.28285 0.68704 0.0
H1042 H 0.46618 0.30851 0.73323 0.0
H1043 H 0.49077 0.28853 0.72456 0.0
H1044 H 0.54523 0.44053 0.6987 0.0
H1045 H 0.56815 0.41943 0.68732 0.0
H1046 H 0.50211 0.43589 0.69214 0.0
H1047 H 0.47405 0.41683 0.70803 0.0
C1048 C 0.07079 0.97899 0.60481 0.0
C1049 C 0.0904 0.96222 0.59668 0.0
C1050 C 0.10348 1.00117 0.56057 0.0
C1051 C 0.08569 0.01937 0.57083 0.0
N1052 N 0.05471 0.02722 0.60581 0.0
N1053 N 0.12908 0.96125 0.57072 0.0
C1054 C 0.07025 0.00883 0.59406 0.0
C1055 C 0.1076 0.9743 0.57544 0.0
N1056 N 0.0513 0.96544 0.62125 0.0
N1057 N 0.11653 0.00952 0.53643 0.0
H1058 H 0.13336 0.94236 0.58163 0.0
H1059 H 0.14431 0.97094 0.55841 0.0
H1060 H 0.11558 0.02994 0.52638 0.0
H1061 H 0.1268 0.99521 0.52503 0.0
H1062 H 0.03451 0.97451 0.62505 0.0
H1063 H 0.05006 0.94328 0.62842 0.0
H1064 H 0.0459 0.02315 0.62547 0.0
H1065 H 0.05221 0.04798 0.59733 0.0
C1066 C 0.43596 0.81907 0.8317 0.0
C1067 C 0.45064 0.84137 0.85881 0.0
C1068 C 0.40929 0.86308 0.85724 0.0
C1069 C 0.39599 0.84355 0.82779 0.0
N1070 N 0.39777 0.80464 0.78551 0.0
N1071 N 0.45217 0.88588 0.89672 0.0
C1072 C 0.40945 0.82163 0.81483 0.0
C1073 C 0.43739 0.86351 0.87155 0.0
N1074 N 0.4475 0.79541 0.82214 0.0
N1075 N 0.39476 0.88068 0.87205 0.0
H1076 H 0.47211 0.88588 0.90885 0.0
H1077 H 0.44541 0.9054 0.90458 0.0
H1078 H 0.3744 0.88147 0.86237 0.0
H1079 H 0.40185 0.89244 0.89509 0.0
H1080 H 0.43701 0.77651 0.80443 0.0
H1081 H 0.46684 0.79321 0.83399 0.0
H1082 H 0.40778 0.79075 0.77318 0.0
H1083 H 0.37882 0.80629 0.77221 0.0
C1084 C 0.54749 0.23735 0.08423 0.0
C1085 C 0.57538 0.25627 0.09639 0.0
C1086 C 0.59363 0.21255 0.07487 0.0
C1087 C 0.56572 0.19415 0.06135 0.0
N1088 N 0.51605 0.19035 0.05057 0.0
N1089 N 0.62512 0.26339 0.10076 0.0
C1090 C 0.54268 0.20706 0.06526 0.0
C1091 C 0.59845 0.24413 0.09106 0.0
N1092 N 0.52552 0.2479 0.09188 0.0
N1093 N 0.61565 0.19972 0.0723 0.0
H1094 H 0.62939 0.28643 0.11256 0.0
H1095 H 0.64296 0.25775 0.09525 0.0
H1096 H 0.61316 0.17788 0.05893 0.0
H1097 H 0.63617 0.20965 0.08466 0.0
H1098 H 0.50488 0.23406 0.0873 0.0
H1099 H 0.52821 0.27021 0.10464 0.0
H1100 H 0.49863 0.19964 0.04896 0.0
H1101 H 0.51145 0.16738 0.03849 0.0
C1102 C 0.12131 0.30739 0.37533 0.0
C1103 C 0.10903 0.33299 0.36994 0.0
C1104 C 0.13487 0.34398 0.32726 0.0
C1105 C 0.14878 0.32005 0.33441 0.0
N1106 N 0.15893 0.28264 0.36876 0.0
N1107 N 0.10763 0.37904 0.34443 0.0
C1108 C 0.14306 0.30282 0.35949 0.0
C1109 C 0.11673 0.35218 0.34681 0.0
N1110 N 0.11126 0.28644 0.39444 0.0
N1111 N 0.13855 0.35841 0.30132 0.0
H1112 H 0.09478 0.38607 0.35868 0.0
H1113 H 0.11477 0.39584 0.33044 0.0
H1114 H 0.15194 0.35336 0.28677 0.0
H1115 H 0.12679 0.37356 0.29277 0.0
H1116 H 0.11718 0.26542 0.39663 0.0
H1117 H 0.09502 0.28847 0.40597 0.0
H1118 H 0.15804 0.27219 0.38915 0.0
H1119 H 0.17474 0.27832 0.35752 0.0
C1120 C 0.98808 0.12334 0.13184 0.0
C1121 C 0.96446 0.09714 0.11846 0.0
C1122 C 0.99436 0.07554 0.08873 0.0
C1123 C 0.01627 0.10435 0.09733 0.0
N1124 N 0.02713 0.16015 0.11935 0.0
N1125 N 0.94407 0.05469 0.07477 0.0
C1126 C 0.01102 0.1298 0.11625 0.0
C1127 C 0.96715 0.07546 0.09367 0.0
N1128 N 0.9903 0.14077 0.16042 0.0
N1129 N 0.99927 0.04745 0.07837 0.0
H1130 H 0.9236 0.05539 0.07611 0.0
H1131 H 0.94558 0.03972 0.05531 0.0
H1132 H 0.01908 0.04451 0.07781 0.0
H1133 H 0.98373 0.02609 0.07426 0.0
H1134 H 0.00832 0.1586 0.17108 0.0
H1135 H 0.97681 0.13465 0.17575 0.0
H1136 H 0.02229 0.17913 0.13162 0.0
H1137 H 0.0425 0.16715 0.10636 0.0
C1138 C 0.27575 0.80194 0.41697 0.0
C1139 C 0.2928 0.78134 0.4267 0.0
C1140 C 0.31157 0.78544 0.3776 0.0
C1141 C 0.29365 0.80488 0.36729 0.0
N1142 N 0.25608 0.8283 0.37506 0.0
N1143 N 0.32514 0.75109 0.41456 0.0
C1144 C 0.27513 0.8123 0.38655 0.0
C1145 C 0.30997 0.77225 0.40634 0.0
N1146 N 0.26001 0.8116 0.43682 0.0
N1147 N 0.33147 0.78108 0.36088 0.0
H1148 H 0.32733 0.74355 0.43661 0.0
H1149 H 0.33462 0.73979 0.39904 0.0
H1150 H 0.33308 0.78952 0.33957 0.0
H1151 H 0.34777 0.77108 0.36906 0.0
H1152 H 0.24988 0.8295 0.43334 0.0
H1153 H 0.25805 0.80275 0.45789 0.0
H1154 H 0.23996 0.83199 0.38596 0.0
H1155 H 0.25496 0.83586 0.35299 0.0
C1156 C 0.61503 0.01096 0.60588 0.0
C1157 C 0.59981 0.99348 0.62607 0.0
C1158 C 0.56397 0.0232 0.61629 0.0
C1159 C 0.57875 0.04079 0.59606 0.0
N1160 N 0.61662 0.04771 0.56795 0.0
N1161 N 0.55346 0.9733 0.63623 0.0
C1162 C 0.60397 0.03386 0.59012 0.0
C1163 C 0.57234 0.99666 0.62696 0.0
N1164 N 0.6398 0.00535 0.60103 0.0
N1165 N 0.54223 0.03234 0.62621 0.0
H1166 H 0.5577 0.95176 0.64047 0.0
H1167 H 0.5325 0.97343 0.63511 0.0
H1168 H 0.53642 0.05269 0.62035 0.0
H1169 H 0.53233 0.0219 0.64316 0.0
H1170 H 0.65448 0.02097 0.59191 0.0
H1171 H 0.64519 0.98438 0.60512 0.0
H1172 H 0.63082 0.03876 0.55735 0.0
H1173 H 0.61174 0.06723 0.55912 0.0
C1174 C 0.35674 0.4185 0.93276 0.0
C1175 C 0.33321 0.42642 0.94244 0.0
C1176 C 0.30855 0.41667 0.88685 0.0
C1177 C 0.33037 0.40466 0.87737 0.0
N1178 N 0.37383 0.38955 0.89348 0.0
N1179 N 0.28444 0.42652 0.92899 0.0
C1180 C 0.3542 0.40445 0.90088 0.0
C1181 C 0.30844 0.42344 0.91952 0.0
N1182 N 0.38192 0.42547 0.95362 0.0
N1183 N 0.28862 0.42334 0.86468 0.0
H1184 H 0.28335 0.43055 0.95272 0.0
H1185 H 0.26502 0.42163 0.91354 0.0
H1186 H 0.2891 0.42111 0.84071 0.0
H1187 H 0.27372 0.43478 0.87042 0.0
H1188 H 0.40064 0.42398 0.94693 0.0
H1189 H 0.38461 0.43524 0.97714 0.0
H1190 H 0.38964 0.38561 0.91042 0.0
H1191 H 0.37291 0.37822 0.87103 0.0
C1192 C 0.9867 0.02789 0.26071 0.0
C1193 C 0.99134 0.05499 0.2452 0.0
C1194 C 0.02776 0.08434 0.29034 0.0
C1195 C 0.01976 0.05909 0.30751 0.0
N1196 N 0.98923 0.00824 0.31067 0.0
N1197 N 0.01589 0.10895 0.24401 0.0
C1198 C 0.99892 0.03099 0.29304 0.0
C1199 C 0.01196 0.0832 0.25956 0.0
N1200 N 0.97026 0.99929 0.24479 0.0
N1201 N 0.05048 0.10912 0.3035 0.0
H1202 H 1.00561 0.10815 0.22079 0.0
H1203 H 0.02833 0.13135 0.25441 0.0
H1204 H 0.06236 0.11035 0.32605 0.0
H1205 H 0.05892 0.12707 0.29135 0.0
H1206 H 0.96895 0.97809 0.254 0.0
H1207 H 0.95962 0.99603 0.22141 0.0
H1208 H 0.97153 0.98937 0.30219 0.0
H1209 H 0.99722 0.00941 0.33465 0.0
C1210 C 0.33868 0.80533 0.64653 0.0
C1211 C 0.31128 0.78669 0.6316 0.0
C1212 C 0.29371 0.80157 0.67931 0.0
C1213 C 0.32074 0.82169 0.69397 0.0
N1214 N 0.37013 0.83816 0.69371 0.0
N1215 N 0.26177 0.77231 0.63119 0.0
C1216 C 0.3435 0.82251 0.67791 0.0
C1217 C 0.28864 0.78622 0.64742 0.0
N1218 N 0.36005 0.80658 0.63053 0.0
N1219 N 0.27284 0.79615 0.69602 0.0
H1220 H 0.25713 0.7615 0.60774 0.0
H1221 H 0.2439 0.7743 0.63957 0.0
H1222 H 0.27543 0.80639 0.71916 0.0
H1223 H 0.25373 0.77923 0.68811 0.0
H1224 H 0.3803 0.82109 0.63832 0.0
H1225 H 0.35719 0.7938 0.60816 0.0
H1226 H 0.38822 0.83911 0.6848 0.0
H1227 H 0.37463 0.8486 0.71726 0.0
C1228 C 0.57051 0.97066 0.80595 0.0
C1229 C 0.59692 0.98707 0.80072 0.0
C1230 C 0.60617 0.02136 0.8512 0.0
C1231 C 0.57784 0.00918 0.85332 0.0
N1232 N 0.53367 0.96992 0.83604 0.0
N1233 N 0.64215 0.02509 0.82149 0.0
C1234 C 0.56034 0.98252 0.83206 0.0
C1235 C 0.61562 0.01074 0.82448 0.0
N1236 N 0.55528 0.94415 0.78549 0.0
N1237 N 0.62384 0.04455 0.87397 0.0
H1238 H 0.65108 0.01914 0.80258 0.0
H1239 H 0.65108 0.01914 0.80258 0.0
H1240 H 0.61783 0.05291 0.89432 0.0
H1241 H 0.64467 0.05461 0.8728 0.0
H1242 H 0.5364 0.92977 0.7883 0.0
H1243 H 0.56293 0.93526 0.76658 0.0
H1244 H 0.5187 0.9523 0.82002 0.0
H1245 H 0.52627 0.97772 0.8556 0.0
C1246 C 0.30946 0.40548 0.15249 0.0
C1247 C 0.33084 0.39891 0.13703 0.0
C1248 C 0.33561 0.3575 0.17096 0.0
C1249 C 0.31597 0.36588 0.18814 0.0
N1250 N 0.2774 0.38984 0.18759 0.0
N1251 N 0.3665 0.37098 0.13406 0.0
C1252 C 0.30122 0.38796 0.17698 0.0
C1253 C 0.34434 0.37533 0.14682 0.0
N1254 N 0.29701 0.4288 0.14392 0.0
N1255 N 0.34472 0.33123 0.17643 0.0
H1256 H 0.3733 0.38333 0.11639 0.0
H1257 H 0.37961 0.35717 0.14262 0.0
H1258 H 0.3369 0.31642 0.19179 0.0
H1259 H 0.3572 0.32193 0.16326 0.0
H1260 H 0.28445 0.4381 0.15695 0.0
H1261 H 0.30031 0.44018 0.12449 0.0
H1262 H 0.26339 0.40208 0.17772 0.0
H1263 H 0.2698 0.37632 0.2041 0.0
C1264 C 0.25804 0.01558 0.0884 0.0
C1265 C 0.26452 0.01202 0.05794 0.0
C1266 C 0.23307 0.04489 0.03954 0.0
C1267 C 0.22615 0.04809 0.06989 0.0
N1268 N 0.22947 0.03399 0.12231 0.0
N1269 N 0.2561 0.01944 0.00342 0.0
C1270 C 0.23784 0.03257 0.09402 0.0
C1271 C 0.25147 0.0257 0.03322 0.0
N1272 N 0.27205 1.00359 0.11226 0.0
N1273 N 0.2221 0.06043 0.01678 0.0
H1274 H 0.26959 0.00574 0.99811 0.0
H1275 H 0.24536 0.02588 0.98344 0.0
H1276 H 0.20682 0.07236 0.01957 0.0
H1277 H 0.22874 0.06268 0.99557 0.0
H1278 H 0.27092 0.00814 0.13585 0.0
H1279 H 0.28628 0.99026 0.1088 0.0
H1280 H 0.23433 0.0203 0.1396 0.0
H1281 H 0.21626 0.04784 0.1281 0.0
C1282 C 0.69106 0.67885 0.03203 0.0
C1283 C 0.69356 0.68604 1.00134 0.0
C1284 C 0.64574 0.65187 0.98021 0.0
C1285 C 0.64442 0.6426 0.01048 0.0
N1286 N 0.66735 0.64348 0.06408 0.0
N1287 N 0.67456 0.67708 0.9455 0.0
C1288 C 0.66755 0.65503 0.03606 0.0
C1289 C 0.6712 0.6719 0.97521 0.0
N1290 N 0.71074 0.6957 0.05754 0.0
N1291 N 0.62238 0.64219 0.95644 0.0
H1292 H 0.6925 0.69231 0.94116 0.0
H1293 H 0.66052 0.66482 0.92504 0.0
H1294 H 0.60364 0.62705 0.95893 0.0
H1295 H 0.62079 0.65092 0.93501 0.0
H1296 H 0.70891 0.69406 0.08082 0.0
H1297 H 0.72768 0.7137 0.05527 0.0
H1298 H 0.68473 0.64902 0.08266 0.0
H1299 H 0.65047 0.62613 0.06783 0.0
C1300 C 0.76523 0.56631 0.33831 0.0
C1301 C 0.76907 0.57741 0.37093 0.0
C1302 C 0.80853 0.55342 0.38253 0.0
C1303 C 0.80285 0.53992 0.35032 0.0
N1304 N 0.77156 0.52717 0.29911 0.0
N1305 N 0.79121 0.57779 0.42487 0.0
C1306 C 0.77995 0.54449 0.32864 0.0
C1307 C 0.78989 0.56998 0.39334 0.0
N1308 N 0.74858 0.57773 0.31634 0.0
N1309 N 0.83206 0.55109 0.40252 0.0
H1310 H 0.77773 0.58975 0.43351 0.0
H1311 H 0.80398 0.57012 0.44238 0.0
H1312 H 0.84611 0.53908 0.39531 0.0
H1313 H 0.83884 0.56308 0.42549 0.0
H1314 H 0.74758 0.57293 0.29217 0.0
H1315 H 0.73798 0.59458 0.32214 0.0
H1316 H 0.75311 0.52717 0.28369 0.0
H1317 H 0.78139 0.51036 0.29109 0.0
C1318 C 0.9378 0.56001 0.56449 0.0
C1319 C 0.92308 0.53265 0.5424 0.0
C1320 C 0.96657 0.53188 0.52367 0.0
C1321 C 0.98042 0.56154 0.54294 0.0
N1322 N 0.97815 0.60576 0.5792 0.0
N1323 N 0.92249 0.49353 0.49921 0.0
C1324 C 0.96587 0.57596 0.56303 0.0
C1325 C 0.93729 0.51869 0.5217 0.0
N1326 N 0.92487 0.5706 0.58701 0.0
N1327 N 0.98159 0.51582 0.50784 0.0
H1328 H 0.90136 0.48239 0.49789 0.0
H1329 H 0.9306 0.48485 0.48071 0.0
H1330 H 1.00292 0.52462 0.50828 0.0
H1331 H 0.9736 0.49258 0.49643 0.0
H1332 H 0.93517 0.58847 0.60581 0.0
H1333 H 0.90435 0.55945 0.5885 0.0
H1334 H 0.96759 0.61898 0.59149 0.0
H1335 H 0.99831 0.61857 0.57823 0.0
C1336 C 0.38853 0.26029 0.32451 0.0
C1337 C 0.40873 0.25925 0.30563 0.0
C1338 C 0.38358 0.2841 0.266 0.0
C1339 C 0.36263 0.28438 0.28426 0.0
N1340 N 0.34244 0.267 0.32829 0.0
N1341 N 0.42239 0.26347 0.25541 0.0
C1342 C 0.36414 0.27048 0.3126 0.0
C1343 C 0.40527 0.2691 0.27545 0.0
N1344 N 0.39315 0.25248 0.35427 0.0
N1345 N 0.3832 0.29896 0.23989 0.0
H1346 H 0.43944 0.25396 0.26179 0.0
H1347 H 0.41855 0.26614 0.23165 0.0
H1348 H 0.36677 0.30838 0.23102 0.0
H1349 H 0.3998 0.3035 0.22807 0.0
H1350 H 0.3811 0.25621 0.37081 0.0
H1351 H 0.41056 0.24449 0.36336 0.0
H1352 H 0.34096 0.25393 0.34688 0.0
H1353 H 0.32472 0.27517 0.3216 0.0
C1354 C 0.37403 0.20711 0.53317 0.0
C1355 C 0.34786 0.18941 0.51415 0.0
C1356 C 0.3686 0.14577 0.50065 0.0
C1357 C 0.39497 0.16365 0.51915 0.0
N1358 N 0.42447 0.21362 0.54736 0.0
N1359 N 0.32191 0.14594 0.47367 0.0
C1360 C 0.39821 0.19513 0.53358 0.0
C1361 C 0.34576 0.16002 0.49589 0.0
N1362 N 0.37546 0.23447 0.55211 0.0
N1363 N 0.36492 0.11463 0.48901 0.0
H1364 H 0.30494 0.15603 0.46944 0.0
H1365 H 0.32004 0.12608 0.45742 0.0
H1366 H 0.38102 0.10315 0.49194 0.0
H1367 H 0.34538 0.09939 0.47858 0.0
H1368 H 0.39305 0.24646 0.56932 0.0
H1369 H 0.35836 0.24424 0.55201 0.0
H1370 H 0.42867 0.23771 0.55559 0.0
H1371 H 0.44252 0.20545 0.54811 0.0
C1372 C 0.77642 0.73154 0.34035 0.0
C1373 C 0.75995 0.74049 0.36163 0.0
C1374 C 0.76874 0.79332 0.3459 0.0
C1375 C 0.78807 0.78591 0.32804 0.0
N1376 N 0.8134 0.74889 0.31167 0.0
N1377 N 0.74653 0.78257 0.39014 0.0
C1378 C 0.79304 0.75535 0.32654 0.0
C1379 C 0.75813 0.77229 0.36619 0.0
N1380 N 0.7748 0.70029 0.33142 0.0
N1381 N 0.75931 0.81966 0.34231 0.0
H1382 H 0.7395 0.76807 0.40624 0.0
H1383 H 0.74685 0.80626 0.39612 0.0
H1384 H 0.76347 0.83254 0.32419 0.0
H1385 H 0.74415 0.82557 0.35367 0.0
H1386 H 0.78402 0.69255 0.31347 0.0
H1387 H 0.76207 0.68173 0.33949 0.0
H1388 H 0.82018 0.72828 0.31306 0.0
H1389 H 0.82475 0.76503 0.2996 0.0
C1390 C 0.92177 0.59607 0.76355 0.0
C1391 C 0.94035 0.61209 0.79199 0.0
C1392 C 0.91924 0.57161 0.82112 0.0
C1393 C 0.89851 0.5574 0.79365 0.0
N1394 N 0.87735 0.55806 0.73959 0.0
N1395 N 0.95123 0.61996 0.84922 0.0
C1396 C 0.899 0.57013 0.76497 0.0
C1397 C 0.93741 0.6014 0.82121 0.0
N1398 N 0.92583 0.60575 0.73546 0.0
N1399 N 0.92261 0.55608 0.84671 0.0
H1400 H 0.96483 0.64229 0.85085 0.0
H1401 H 0.94716 0.61431 0.87095 0.0
H1402 H 0.91069 0.53331 0.84741 0.0
H1403 H 0.93943 0.5644 0.86591 0.0
H1404 H 0.91457 0.59325 0.71363 0.0
H1405 H 0.94194 0.62524 0.73395 0.0
H1406 H 0.87516 0.56817 0.71895 0.0
H1407 H 0.86027 0.53929 0.74017 0.0
C1408 C 0.07214 0.96637 0.1005 0.0
C1409 C 0.09022 0.9505 0.08739 0.0
C1410 C 0.08843 0.98358 0.04442 0.0
C1411 C 0.07396 1.00225 0.06042 0.0
N1412 N 0.05978 0.01603 0.10907 0.0
N1413 N 0.11927 0.94822 0.04873 0.0
C1414 C 0.06795 0.99491 0.08994 0.0
C1415 C 0.09922 0.96006 0.05963 0.0
N1416 N 0.05802 0.95375 0.12236 0.0
N1417 N 0.09189 0.98831 0.01468 0.0
H1418 H 0.12844 0.93204 0.05965 0.0
H1419 H 0.12878 0.95674 0.03072 0.0
H1420 H 0.08414 0.00511 0.0031 0.0
H1421 H 0.1 0.97369 1.00056 0.0
H1422 H 0.04281 0.96313 0.13053 0.0
H1423 H 0.05883 0.93188 0.12931 0.0
H1424 H 0.05744 0.01291 0.13199 0.0
H1425 H 0.05895 0.0384 0.10366 0.0
C1426 C 0.92575 0.30157 0.83037 0.0
C1427 C 0.94154 0.32391 0.85688 0.0
C1428 C 0.90553 0.354 0.85011 0.0
C1429 C 0.8904 0.33244 0.82243 0.0
N1430 N 0.8803 0.27883 0.79584 0.0
N1431 N 0.94356 0.36697 0.89659 0.0
C1432 C 0.89881 0.30416 0.81533 0.0
C1433 C 0.93032 0.34861 0.8683 0.0
N1434 N 0.93676 0.27812 0.8191 0.0
N1435 N 0.89678 0.3802 0.85854 0.0
H1436 H 0.96173 0.36363 0.9101 0.0
H1437 H 0.93548 0.38362 0.90803 0.0
H1438 H 0.87755 0.38326 0.84796 0.0
H1439 H 0.90871 0.39922 0.87542 0.0
H1440 H 0.92797 0.26354 0.79755 0.0
H1441 H 0.95559 0.2744 0.83067 0.0
H1442 H 0.88435 0.25673 0.7918 0.0
H1443 H 0.85945 0.27859 0.78723 0.0
C1444 C 0.57812 0.24956 0.58344 0.0
C1445 C 0.59938 0.26031 0.61132 0.0
C1446 C 0.60338 0.20532 0.61171 0.0
C1447 C 0.585 0.19572 0.58182 0.0
N1448 N 0.56267 0.21249 0.53513 0.0
N1449 N 0.638 0.24842 0.64602 0.0
C1450 C 0.57451 0.2189 0.56648 0.0
C1451 C 0.61368 0.23818 0.62377 0.0
N1452 N 0.56042 0.26765 0.5736 0.0
N1453 N 0.61051 0.1832 0.62922 0.0
H1454 H 0.64769 0.27226 0.65386 0.0
H1455 H 0.65037 0.23346 0.6536 0.0
H1456 H 0.60265 0.15887 0.62186 0.0
H1457 H 0.62174 0.18906 0.65248 0.0
H1458 H 0.54322 0.25931 0.55483 0.0
H1459 H 0.56076 0.28922 0.58623 0.0
H1460 H 0.55661 0.22942 0.52226 0.0
H1461 H 0.56272 0.19173 0.5214 0.0
C1462 C 0.62231 0.86292 0.39413 0.0
C1463 C 0.6051 0.83194 0.39316 0.0
C1464 C 0.64173 0.81002 0.37596 0.0
C1465 C 0.6551 0.84035 0.36957 0.0
N1466 N 0.67006 0.89319 0.39847 0.0
N1467 N 0.59922 0.7753 0.38474 0.0
C1468 C 0.64903 0.86657 0.38608 0.0
C1469 C 0.61504 0.80522 0.38458 0.0
N1470 N 0.61294 0.88896 0.40161 0.0
N1471 N 0.65657 0.78776 0.37934 0.0
H1472 H 0.58011 0.77081 0.39217 0.0
H1473 H 0.60437 0.75507 0.3756 0.0
H1474 H 0.67802 0.79313 0.37911 0.0
H1475 H 0.64892 0.76616 0.38684 0.0
H1476 H 0.62396 0.91182 0.39977 0.0
H1477 H 0.59314 0.88746 0.40683 0.0
H1478 H 0.66732 0.91197 0.41318 0.0
H1479 H 0.69098 0.89414 0.39757 0.0
C1480 C 0.07089 0.24219 0.47255 0.0
C1481 C 0.04358 0.24696 0.46315 0.0
C1482 C 0.02298 0.19381 0.47653 0.0
C1483 C 0.05023 0.18864 0.48464 0.0
N1484 N 0.09952 0.2054 0.48396 0.0
N1485 N 0.99334 0.22542 0.45239 0.0
C1486 C 0.07399 0.21225 0.48099 0.0
C1487 C 0.01956 0.22206 0.46384 0.0
N1488 N 0.09413 0.26629 0.47334 0.0
N1489 N 1.00044 0.17237 0.48236 0.0
H1490 H 0.98988 0.24629 0.44498 0.0
H1491 H 0.9751 0.20704 0.44855 0.0
H1492 H 1.0021 0.15149 0.49114 0.0
H1493 H 0.98048 0.17612 0.48058 0.0
H1494 H 0.1144 0.2661 0.484 0.0
H1495 H 0.09321 0.28752 0.46498 0.0
H1496 H 0.11712 0.21974 0.47815 0.0
H1497 H 0.10251 0.1837 0.48929 0.0
C1498 C 0.6812 0.34798 0.21652 0.0
C1499 C 0.67994 0.37228 0.19754 0.0
C1500 C 0.73142 0.39262 0.21438 0.0
C1501 C 0.73199 0.37053 0.23641 0.0
N1502 N 0.70472 0.334 0.26435 0.0
N1503 N 0.70366 0.42188 0.18365 0.0
C1504 C 0.70604 0.35031 0.23929 0.0
C1505 C 0.705 0.39586 0.19806 0.0
N1506 N 0.65936 0.32149 0.2115 0.0
N1507 N 0.75576 0.40941 0.20745 0.0
H1508 H 0.68485 0.42524 0.17167 0.0
H1509 H 0.7208 0.44147 0.1862 0.0
H1510 H 0.77563 0.40769 0.21768 0.0
H1511 H 0.75608 0.42285 0.18902 0.0
H1512 H 0.66011 0.30198 0.22315 0.0
H1513 H 0.64241 0.31732 0.19256 0.0
H1514 H 0.68579 0.3209 0.26863 0.0
H1515 H 0.72186 0.33685 0.28287 0.0
C1516 C 0.58574 0.97422 0.97218 0.0
C1517 C 0.56198 0.94842 0.97147 0.0
C1518 C 0.54757 0.98216 0.0113 0.0
C1519 C 0.56928 0.00897 0.00895 0.0
N1520 N 0.60765 0.0309 0.98456 0.0
N1521 N 0.51729 0.93065 0.98649 0.0
C1522 C 0.58784 0.00507 0.98846 0.0
C1523 C 0.54218 0.95309 0.99017 0.0
N1524 N 0.60716 0.96887 0.95852 0.0
N1525 N 0.53208 0.98419 0.034 0.0
H1526 H 0.5121 0.90949 0.97098 0.0
H1527 H 0.50068 0.9343 0.99659 0.0
H1528 H 0.53427 0.00513 0.04892 0.0
H1529 H 0.51833 0.96457 0.03937 0.0
H1530 H 0.62621 0.98567 0.96064 0.0
H1531 H 0.60716 0.94652 0.94784 0.0
H1532 H 0.61954 0.03065 0.96718 0.0
H1533 H 0.61066 0.05332 0.99717 0.0
C1534 C 0.02564 0.90214 0.71512 0.0
C1535 C 0.02833 0.8704 0.7116 0.0
C1536 C 0.99266 0.85645 0.74386 0.0
C1537 C 0.9873 0.88685 0.74376 0.0
N1538 N 0.99462 0.93601 0.72207 0.0
N1539 N 0.00792 0.8156 0.71567 0.0
C1540 C 1.00258 0.90895 0.72724 0.0
C1541 C 0.0099 0.84703 0.72391 0.0
N1542 N 0.04576 0.92629 0.70874 0.0
N1543 N 0.98215 0.83681 0.7638 0.0
H1544 H 0.01865 0.80743 0.69944 0.0
H1545 H 0.99306 0.79766 0.72195 0.0
H1546 H 0.97067 0.84335 0.78001 0.0
H1547 H 0.98754 0.81558 0.76671 0.0
H1548 H 0.04595 0.95005 0.71388 0.0
H1549 H 0.06392 0.92316 0.70174 0.0
H1550 H 1.00334 0.95129 0.70749 0.0
H1551 H 0.97739 0.94146 0.72957 0.0
C1552 C 0.1212 0.12593 0.9336 0.0
C1553 C 0.14893 0.12995 0.95124 0.0
C1554 C 0.13007 0.09342 0.98571 0.0
C1555 C 0.10244 0.09374 0.97145 0.0
N1556 N 0.07147 0.11297 0.93363 0.0
N1557 N 0.17981 0.11972 0.9956 0.0
C1558 C 0.09789 0.11047 0.94567 0.0
C1559 C 0.15344 0.11404 0.97756 0.0
N1560 N 0.11707 0.13602 0.90482 0.0
N1561 N 0.13392 0.07286 0.00655 0.0
H1562 H 0.19745 0.13431 0.98997 0.0
H1563 H 0.18361 0.11224 0.01751 0.0
H1564 H 0.11707 0.05726 0.01251 0.0
H1565 H 0.15346 0.06901 0.015 0.0
H1566 H 0.09751 0.13054 0.88956 0.0
H1567 H 0.13341 0.14724 0.8947 0.0
H1568 H 0.06755 0.12855 0.91789 0.0
H1569 H 0.05357 0.10112 0.94096 0.0
C1570 C 0.80672 0.40396 0.64205 0.0
C1571 C 0.83263 0.42189 0.63635 0.0
C1572 C 0.85686 0.41355 0.68867 0.0
C1573 C 0.83118 0.39458 0.69381 0.0
N1574 N 0.78073 0.37563 0.67733 0.0
N1575 N 0.88303 0.44003 0.6523 0.0
C1576 C 0.80594 0.39053 0.67076 0.0
C1577 C 0.85782 0.42599 0.65936 0.0
N1578 N 0.78259 0.39978 0.61987 0.0
N1579 N 0.8804 0.42002 0.71206 0.0
H1580 H 0.88473 0.44863 0.63105 0.0
H1581 H 0.90247 0.44096 0.66614 0.0
H1582 H 0.88094 0.40987 0.73275 0.0
H1583 H 0.89894 0.43682 0.712 0.0
H1584 H 0.76382 0.38319 0.61946 0.0
H1585 H 0.78126 0.4124 0.60087 0.0
H1586 H 0.76116 0.37512 0.66412 0.0
H1587 H 0.77895 0.36512 0.69745 0.0
C1588 C 0.53702 0.14546 0.39993 0.0
C1589 C 0.52719 0.17318 0.40473 0.0
C1590 C 0.52632 0.1638 0.45924 0.0
C1591 C 0.54276 0.14178 0.45624 0.0
N1592 N 0.56432 0.11169 0.42316 0.0
N1593 N 0.5128 0.20917 0.44011 0.0
C1594 C 0.54816 0.13248 0.42636 0.0
C1595 C 0.52151 0.18229 0.43463 0.0
N1596 N 0.53442 0.13053 0.37005 0.0
N1597 N 0.51461 0.16632 0.48511 0.0
H1598 H 0.50937 0.22342 0.42283 0.0
H1599 H 0.51113 0.21852 0.46246 0.0
H1600 H 0.51697 0.15206 0.50267 0.0
H1601 H 0.50051 0.18006 0.48748 0.0
H1602 H 0.53898 0.10877 0.36537 0.0
H1603 H 0.52435 0.13777 0.35009 0.0
H1604 H 0.5716 0.10707 0.4026 0.0
H1605 H 0.57192 0.10059 0.44164 0.0
C1606 C 0.7668 0.77721 0.13416 0.0
C1607 C 0.78869 0.78307 0.11701 0.0
C1608 C 0.81877 0.81987 0.16315 0.0
C1609 C 0.79815 0.81007 0.18177 0.0
N1610 N 0.75565 0.77164 0.18534 0.0
N1611 N 0.83746 0.80625 0.11726 0.0
C1612 C 0.77297 0.78664 0.16735 0.0
C1613 C 0.81523 0.80343 0.13204 0.0
N1614 N 0.73986 0.76303 0.11861 0.0
N1615 N 0.84116 0.8456 0.17422 0.0
H1616 H 0.8357 0.79495 0.09448 0.0
H1617 H 0.85807 0.81768 0.1286 0.0
H1618 H 0.84448 0.85958 0.19596 0.0
H1619 H 0.85485 0.85542 0.16021 0.0
H1620 H 0.72272 0.76047 0.12965 0.0
H1621 H 0.73441 0.75755 0.0941 0.0
H1622 H 0.7383 0.75256 0.17591 0.0
H1623 H 0.76058 0.77524 0.20993 0.0
C1624 C 0.14271 0.10829 0.77964 0.0
C1625 C 0.15295 0.13752 0.80011 0.0
C1626 C 0.1236 0.16195 0.76501 0.0
C1627 C 0.11825 0.13512 0.74194 0.0
N1628 N 0.12116 0.08198 0.72636 0.0
N1629 N 0.15496 0.19309 0.81198 0.0
C1630 C 0.12682 0.1077 0.74917 0.0
C1631 C 0.14346 0.16452 0.79311 0.0
N1632 N 0.14819 0.08134 0.78941 0.0
N1633 N 0.11031 0.18528 0.75934 0.0
H1634 H 0.17051 0.19621 0.83217 0.0
H1635 H 0.15099 0.21427 0.80617 0.0
H1636 H 0.0957 0.18367 0.73852 0.0
H1637 H 0.11161 0.2044 0.77626 0.0
H1638 H 0.13919 0.0588 0.77661 0.0
H1639 H 0.16001 0.08121 0.81166 0.0
H1640 H 0.12977 0.06276 0.72893 0.0
H1641 H 0.10861 0.08051 0.70415 0.0
C1642 C 0.78968 0.42512 0.40794 0.0
C1643 C 0.81154 0.42435 0.43365 0.0
C1644 C 0.82427 0.38378 0.39953 0.0
C1645 C 0.80482 0.3875 0.37295 0.0
N1646 N 0.77082 0.41434 0.35126 0.0
N1647 N 0.85363 0.40746 0.45073 0.0
C1648 C 0.78823 0.40916 0.377 0.0
C1649 C 0.82985 0.4048 0.42861 0.0
N1650 N 0.76927 0.43965 0.41344 0.0
N1651 N 0.83717 0.3597 0.39738 0.0
H1652 H 0.85924 0.42318 0.47176 0.0
H1653 H 0.86928 0.39643 0.44676 0.0
H1654 H 0.83467 0.34452 0.37647 0.0
H1655 H 0.8489 0.35351 0.41689 0.0
H1656 H 0.7514 0.43861 0.39659 0.0
H1657 H 0.76855 0.44989 0.43585 0.0
H1658 H 0.7603 0.43215 0.35186 0.0
H1659 H 0.76876 0.40252 0.32862 0.0
C1660 C 0.50743 0.21677 0.20951 0.0
C1661 C 0.52177 0.23286 0.23984 0.0
C1662 C 0.56624 0.22582 0.22824 0.0
C1663 C 0.55072 0.20322 0.20171 0.0
N1664 N 0.50671 0.17814 0.16542 0.0
N1665 N 0.56534 0.26684 0.26975 0.0
C1666 C 0.52143 0.19953 0.19135 0.0
C1667 C 0.55152 0.24195 0.24667 0.0
N1668 N 0.48092 0.21906 0.19788 0.0
N1669 N 0.59474 0.23071 0.23642 0.0
H1670 H 0.55452 0.28052 0.28121 0.0
H1671 H 0.58704 0.27617 0.27498 0.0
H1672 H 0.6061 0.22024 0.2225 0.0
H1673 H 0.60703 0.24417 0.25736 0.0
H1674 H 0.46999 0.20979 0.17494 0.0
H1675 H 0.47144 0.23383 0.21005 0.0
H1676 H 0.48485 0.17169 0.15909 0.0
H1677 H 0.51623 0.16534 0.15116 0.0
C1678 C 0.81413 0.79588 0.90727 0.0
C1679 C 0.79406 0.80386 0.92372 0.0
C1680 C 0.78955 0.84447 0.8887 0.0
C1681 C 0.80688 0.83342 0.86959 0.0
N1682 N 0.82796 0.79007 0.85745 0.0
N1683 N 0.75861 0.83244 0.92574 0.0
C1684 C 0.81681 0.8066 0.87779 0.0
C1685 C 0.78074 0.82741 0.91335 0.0
N1686 N 0.83173 0.77893 0.9203 0.0
N1687 N 0.78099 0.87106 0.88314 0.0
H1688 H 0.75113 0.82008 0.94306 0.0
H1689 H 0.74596 0.84655 0.91673 0.0
H1690 H 0.78522 0.88294 0.86433 0.0
H1691 H 0.77119 0.88237 0.89831 0.0
H1692 H 0.8487 0.77533 0.91084 0.0
H1693 H 0.83166 0.77194 0.94251 0.0
H1694 H 0.83295 0.76889 0.86162 0.0
H1695 H 0.82876 0.79454 0.83479 0.0
C1696 C 0.87645 0.169 0.05001 0.0
C1697 C 0.85873 0.17711 0.02455 0.0
C1698 C 0.88487 0.15612 0.9881 0.0
C1699 C 0.89894 0.14317 0.01282 0.0
N1700 N 0.90409 0.13298 0.06683 0.0
N1701 N 0.8436 0.17355 0.96802 0.0
C1702 C 0.89373 0.14855 0.04372 0.0
C1703 C 0.8624 0.16965 0.99319 0.0
N1704 N 0.8773 0.18147 0.08032 0.0
N1705 N 0.89332 0.15615 0.9599 0.0
H1706 H 0.82634 0.18237 0.97023 0.0
H1707 H 0.84364 0.16521 0.94476 0.0
H1708 H 0.90998 0.14705 0.9555 0.0
H1709 H 0.88574 0.16808 0.94217 0.0
H1710 H 0.89165 0.17864 0.09959 0.0
H1711 H 0.8659 0.19763 0.08579 0.0
H1712 H 0.89852 0.13363 0.08883 0.0
H1713 H 0.91591 0.11684 0.06308 0.0
C1714 C 0.44253 0.53078 0.01904 0.0
C1715 C 0.43501 0.52617 0.0486 0.0
C1716 C 0.48355 0.55429 0.07518 0.0
C1717 C 0.48938 0.56325 0.04598 0.0
N1718 N 0.47304 0.56317 0.99055 0.0
N1719 N 0.44801 0.5348 0.10528 0.0
C1720 C 0.46857 0.55211 0.01797 0.0
C1721 C 0.45555 0.53794 0.07685 0.0
N1722 N 0.42478 0.51432 0.99186 0.0
N1723 N 0.50486 0.56104 0.10117 0.0
H1724 H 0.428 0.52235 0.10721 0.0
H1725 H 0.46098 0.54601 0.12679 0.0
H1726 H 0.52543 0.57296 0.10071 0.0
H1727 H 0.50271 0.55255 0.12235 0.0
H1728 H 0.43014 0.5143 0.96979 0.0
H1729 H 0.40584 0.49801 0.99187 0.0
H1730 H 0.45753 0.55849 0.97007 0.0
H1731 H 0.49149 0.57952 0.98912 0.0
C1732 C 0.36836 0.66431 0.69477 0.0
C1733 C 0.35954 0.63098 0.69355 0.0
C1734 C 0.31871 0.63624 0.71545 0.0
C1735 C 0.32919 0.66959 0.71988 0.0
N1736 N 0.3663 0.71574 0.71869 0.0
N1737 N 0.32993 0.58573 0.70948 0.0
C1738 C 0.35468 0.68381 0.71088 0.0
C1739 C 0.33561 0.61699 0.70559 0.0
N1740 N 0.38914 0.67725 0.67968 0.0
N1741 N 0.29241 0.62294 0.72019 0.0
H1742 H 0.34245 0.57087 0.70404 0.0
H1743 H 0.3145 0.57531 0.72124 0.0
H1744 H 0.27938 0.63635 0.7275 0.0
H1745 H 0.28255 0.59884 0.71404 0.0
H1746 H 0.39448 0.70112 0.67706 0.0
H1747 H 0.39931 0.66362 0.66717 0.0
H1748 H 0.38635 0.72687 0.71582 0.0
H1749 H 0.35692 0.73085 0.73052 0.0
C1750 C 0.18774 0.6668 0.49277 0.0
C1751 C 0.2083 0.68079 0.52051 0.0
C1752 C 0.17893 0.64925 0.55187 0.0
C1753 C 0.1566 0.63867 0.52487 0.0
N1754 N 0.14708 0.62381 0.46831 0.0
N1755 N 0.22269 0.68766 0.57707 0.0
C1756 C 0.16291 0.64366 0.49476 0.0
C1757 C 0.20369 0.67258 0.55021 0.0
N1758 N 0.19166 0.6761 0.46448 0.0
N1759 N 0.17801 0.63438 0.57793 0.0
H1760 H 0.2412 0.70451 0.57678 0.0
H1761 H 0.21892 0.68554 0.59966 0.0
H1762 H 0.16296 0.61341 0.57787 0.0
H1763 H 0.19448 0.63944 0.5975 0.0
H1764 H 0.17604 0.66974 0.44403 0.0
H1765 H 0.20981 0.69237 0.46201 0.0
H1766 H 0.15172 0.62474 0.44596 0.0
H1767 H 0.13217 0.6031 0.46935 0.0
C1768 C 0.71884 0.93246 0.77691 0.0
C1769 C 0.71427 0.93608 0.74448 0.0
C1770 C 0.76052 0.92707 0.74133 0.0
C1771 C 0.7638 0.91998 0.77285 0.0
N1772 N 0.74599 0.9153 0.82054 0.0
N1773 N 0.72866 0.93301 0.69461 0.0
C1774 C 0.74288 0.92259 0.79056 0.0
C1775 C 0.73466 0.93258 0.72644 0.0
N1776 N 0.7008 0.93972 0.79504 0.0
N1777 N 0.78197 0.92857 0.72543 0.0
H1778 H 0.7099 0.93678 0.68295 0.0
H1779 H 0.74091 0.92678 0.67923 0.0
H1780 H 0.8012 0.92464 0.73485 0.0
H1781 H 0.78189 0.93673 0.70377 0.0
H1782 H 0.70449 0.94097 0.81948 0.0
H1783 H 0.68284 0.94673 0.786 0.0
H1784 H 0.72993 0.91175 0.83317 0.0
H1785 H 0.76478 0.91193 0.83244 0.0
C1786 C 0.74973 0.99291 0.563 0.0
C1787 C 0.77652 0.0094 0.55828 0.0
C1788 C 0.75786 0.05574 0.54917 0.0
C1789 C 0.73048 0.03734 0.54905 0.0
N1790 N 0.69944 0.98775 0.55367 0.0
N1791 N 0.80551 0.05741 0.54525 0.0
C1792 C 0.72615 0.00572 0.55537 0.0
C1793 C 0.78058 0.04119 0.55135 0.0
N1794 N 0.74712 0.96577 0.57644 0.0
N1795 N 0.76236 0.08752 0.54775 0.0
H1796 H 0.82414 0.05079 0.55 0.0
H1797 H 0.8076 0.07761 0.53425 0.0
H1798 H 0.74623 0.09895 0.54462 0.0
H1799 H 0.78229 0.10314 0.55223 0.0
H1800 H 0.72882 0.95426 0.58318 0.0
H1801 H 0.76419 0.95672 0.58427 0.0
H1802 H 0.69458 0.96345 0.55437 0.0
H1803 H 0.68182 0.99673 0.54932 0.0
C1804 C 0.3341 0.4571 0.69175 0.0
C1805 C 0.36394 0.46711 0.6991 0.0
C1806 C 0.36417 0.44653 0.7497 0.0
C1807 C 0.33488 0.4329 0.74053 0.0
N1808 N 0.29132 0.42465 0.70296 0.0
N1809 N 0.40787 0.47067 0.73498 0.0
C1810 C 0.31957 0.43834 0.71173 0.0
C1811 C 0.37911 0.46153 0.72801 0.0
N1812 N 0.31971 0.46556 0.66567 0.0
N1813 N 0.37746 0.44655 0.77995 0.0
H1814 H 0.41995 0.48443 0.72171 0.0
H1815 H 0.42002 0.46328 0.75327 0.0
H1816 H 0.36672 0.43692 0.79666 0.0
H1817 H 0.39822 0.45889 0.78951 0.0
H1818 H 0.29803 0.4624 0.66077 0.0
H1819 H 0.32968 0.47744 0.64951 0.0
H1820 H 0.27938 0.42447 0.68079 0.0
H1821 H 0.27984 0.41161 0.71726 0.0
C1822 C 0.20002 0.58574 0.21316 0.0
C1823 C 0.17697 0.58546 0.22827 0.0
C1824 C 0.1969 0.64115 0.25045 0.0
C1825 C 0.22028 0.64108 0.23617 0.0
N1826 N 0.24785 0.61212 0.21103 0.0
N1827 N 0.15528 0.61242 0.26463 0.0
C1828 C 0.22307 0.61288 0.21986 0.0
C1829 C 0.176 0.61271 0.24798 0.0
N1830 N 0.19909 0.56103 0.19083 0.0
N1831 N 0.19419 0.66847 0.26612 0.0
H1832 H 0.13927 0.5924 0.26489 0.0
H1833 H 0.13927 0.5924 0.26489 0.0
H1834 H 0.20867 0.69035 0.26826 0.0
H1835 H 0.17702 0.66917 0.27655 0.0
H1836 H 0.21396 0.56156 0.17677 0.0
H1837 H 0.18198 0.54114 0.18394 0.0
H1838 H 0.25212 0.59138 0.2018 0.0
H1839 H 0.26522 0.63182 0.21589 0.0
C1840 C 0.53538 0.73943 0.51203 0.0
C1841 C 0.53272 0.73966 0.47887 0.0
C1842 C 0.5384 0.68512 0.47363 0.0
C1843 C 0.545 0.68652 0.50707 0.0
N1844 N 0.55398 0.71807 0.55822 0.0
N1845 N 0.54136 0.71528 0.4304 0.0
C1846 C 0.54495 0.71471 0.5263 0.0
C1847 C 0.53674 0.71315 0.46026 0.0
N1848 N 0.52747 0.76184 0.52984 0.0
N1849 N 0.53393 0.65723 0.45411 0.0
H1850 H 0.54335 0.73608 0.4204 0.0
H1851 H 0.54712 0.69766 0.41717 0.0
H1852 H 0.53616 0.63615 0.46191 0.0
H1853 H 0.52582 0.65457 0.42995 0.0
H1854 H 0.52638 0.76112 0.55345 0.0
H1855 H 0.51895 0.77912 0.5202 0.0
H1856 H 0.5571 0.73928 0.57308 0.0
H1857 H 0.56065 0.70054 0.56953 0.0
C1858 C 0.71501 0.40538 0.71867 0.0
C1859 C 0.69716 0.3799 0.69609 0.0
C1860 C 0.72213 0.34341 0.72044 0.0
C1861 C 0.74137 0.36915 0.74136 0.0
N1862 N 0.7602 0.4259 0.75446 0.0
N1863 N 0.68817 0.32585 0.6712 0.0
C1864 C 0.73894 0.40055 0.73891 0.0
C1865 C 0.70218 0.34933 0.69557 0.0
N1866 N 0.7092 0.43431 0.72079 0.0
N1867 N 0.72191 0.3131 0.72526 0.0
H1868 H 0.67255 0.32853 0.65321 0.0
H1869 H 0.69403 0.30474 0.66743 0.0
H1870 H 0.73513 0.30806 0.74431 0.0
H1871 H 0.70669 0.29328 0.71258 0.0
H1872 H 0.71944 0.45271 0.73914 0.0
H1873 H 0.69286 0.43926 0.70532 0.0
H1874 H 0.76092 0.44919 0.751 0.0
H1875 H 0.77859 0.42355 0.76832 0.0
C1876 C 0.06725 0.45873 0.95305 0.0
C1877 C 0.04446 0.43339 0.95554 0.0
C1878 C 0.02595 0.47176 0.98527 0.0
C1879 C 0.04672 0.4975 0.97889 0.0
N1880 N 0.0824 0.51432 0.94873 0.0
N1881 N 0.99882 0.41719 0.96894 0.0
C1882 C 0.06604 0.49061 0.96052 0.0
C1883 C 0.0229 0.44025 0.97031 0.0
N1884 N 0.09054 0.45242 0.94427 0.0
N1885 N 0.00984 0.47676 0.00659 0.0
H1886 H 0.99549 0.39394 0.95827 0.0
H1887 H 0.98112 0.42189 0.97593 0.0
H1888 H 0.0111 0.49893 0.01843 0.0
H1889 H 0.99693 0.45833 0.01472 0.0
H1890 H 0.10881 0.47002 0.9449 0.0
H1891 H 0.09276 0.42943 0.93995 0.0
H1892 H 0.09507 0.5101 0.93298 0.0
H1893 H 0.08071 0.53762 0.95144 0.0
C1894 C 0.0095 0.83939 0.18087 0.0
C1895 C 0.03528 0.86093 0.19662 0.0
C1896 C 0.0114 0.88407 0.23386 0.0
C1897 C 0.98563 0.86224 0.21843 0.0
N1898 N 0.95855 0.82402 0.17372 0.0
N1899 N 0.06005 0.90843 0.23265 0.0
C1900 C 0.98419 0.84149 0.19068 0.0
C1901 C 0.03595 0.88482 0.22138 0.0
N1902 N 0.00948 0.81615 0.15746 0.0
N1903 N 0.01264 0.90305 0.26127 0.0
H1904 H 0.07838 0.90955 0.22396 0.0
H1905 H 0.06126 0.92834 0.2485 0.0
H1906 H 0.99499 0.90387 0.2707 0.0
H1907 H 0.03135 0.91663 0.27575 0.0
H1908 H 0.99206 0.79743 0.14742 0.0
H1909 H 0.02751 0.81463 0.14908 0.0
H1910 H 0.95565 0.81056 0.15175 0.0
H1911 H 0.93974 0.82502 0.18053 0.0
C1912 C 0.56477 0.46095 0.08009 0.0
C1913 C 0.59129 0.45956 0.09736 0.0
C1914 C 0.61142 0.51469 0.08852 0.0
C1915 C 0.58444 0.51676 0.07313 0.0
N1916 N 0.53432 0.49377 0.06125 0.0
N1917 N 0.63915 0.487 0.12176 0.0
C1918 C 0.56085 0.49031 0.07071 0.0
C1919 C 0.61433 0.48711 0.10281 0.0
N1920 N 0.54304 0.43415 0.07265 0.0
N1921 N 0.63459 0.5384 0.08814 0.0
H1922 H 0.64267 0.46694 0.13102 0.0
H1923 H 0.65562 0.50724 0.12994 0.0
H1924 H 0.63343 0.55858 0.07775 0.0
H1925 H 0.65512 0.53699 0.09574 0.0
H1926 H 0.52436 0.43247 0.05683 0.0
H1927 H 0.54436 0.41276 0.08046 0.0
H1928 H 0.51616 0.47676 0.06221 0.0
H1929 H 0.53035 0.51504 0.05567 0.0
C1930 C 0.93696 0.36565 0.37249 0.0
C1931 C 0.9499 0.34236 0.36162 0.0
C1932 C 0.90799 0.31931 0.31932 0.0
C1933 C 0.89488 0.34266 0.33019 0.0
N1934 N 0.89441 0.38311 0.37195 0.0
N1935 N 0.94585 0.29312 0.32951 0.0
C1936 C 0.90865 0.36432 0.35826 0.0
C1937 C 0.93465 0.3178 0.33668 0.0
N1938 N 0.95216 0.38984 0.39582 0.0
N1939 N 0.89598 0.29992 0.29133 0.0
H1940 H 0.96537 0.29174 0.34166 0.0
H1941 H 0.93491 0.2728 0.31371 0.0
H1942 H 0.87694 0.30063 0.27769 0.0
H1943 H 0.90581 0.28485 0.28029 0.0
H1944 H 0.94555 0.41 0.40192 0.0
H1945 H 0.97224 0.39055 0.40811 0.0
H1946 H 0.90201 0.39662 0.3942 0.0
H1947 H 0.87381 0.38313 0.36247 0.0
C1948 C 0.1007 0.7447 0.59654 0.0
C1949 C 0.07821 0.75895 0.59938 0.0
C1950 C 0.04478 0.71003 0.56851 0.0
C1951 C 0.06744 0.69678 0.56387 0.0
N1952 N 0.11737 0.70417 0.56911 0.0
N1953 N 0.02896 0.75633 0.58532 0.0
C1954 C 0.09549 0.71483 0.57684 0.0
C1955 C 0.05029 0.74192 0.58442 0.0
N1956 N 0.12723 0.75961 0.61307 0.0
N1957 N 0.01785 0.69156 0.55871 0.0
H1958 H 0.03214 0.77904 0.59741 0.0
H1959 H 0.00858 0.7469 0.57233 0.0
H1960 H 0.01313 0.66829 0.54731 0.0
H1961 H 1.00032 0.69812 0.56405 0.0
H1962 H 0.14373 0.74877 0.61571 0.0
H1963 H 0.13246 0.78235 0.62578 0.0
H1964 H 0.13817 0.71763 0.57462 0.0
H1965 H 0.11451 0.68268 0.55486 0.0
C1966 C 0.62112 0.85336 0.85186 0.0
C1967 C 0.61093 0.83189 0.87212 0.0
C1968 C 0.64348 0.8002 0.86009 0.0
C1969 C 0.65187 0.8201 0.83779 0.0
N1970 N 0.64706 0.86394 0.81003 0.0
N1971 N 0.60944 0.78244 0.89232 0.0
C1972 C 0.64022 0.84625 0.83303 0.0
C1973 C 0.62143 0.80472 0.8755 0.0
N1974 N 0.6133 0.88117 0.85154 0.0
N1975 N 0.65704 0.77733 0.86703 0.0
H1976 H 0.5933 0.78477 0.90391 0.0
H1977 H 0.61383 0.76044 0.89278 0.0
H1978 H 0.67278 0.77283 0.85575 0.0
H1979 H 0.65431 0.76444 0.88558 0.0
H1980 H 0.62207 0.89944 0.83992 0.0
H1981 H 0.59956 0.88719 0.86511 0.0
H1982 H 0.63711 0.88111 0.80283 0.0
H1983 H 0.66155 0.86004 0.79651 0.0
C1984 C 0.46849 0.55574 0.58748 0.0
C1985 C 0.45561 0.57961 0.59608 0.0
C1986 C 0.4962 0.61982 0.5882 0.0
C1987 C 0.51142 0.59627 0.58626 0.0
N1988 N 0.51224 0.54157 0.58928 0.0
N1989 N 0.4569 0.63494 0.6054 0.0
C1990 C 0.49749 0.56404 0.58682 0.0
C1991 C 0.46919 0.61185 0.59619 0.0
N1992 N 0.453 0.52491 0.58099 0.0
N1993 N 0.50697 0.64939 0.58148 0.0
H1994 H 0.43656 0.62984 0.60968 0.0
H1995 H 0.46735 0.65894 0.61012 0.0
H1996 H 0.52612 0.65586 0.57456 0.0
H1997 H 0.49576 0.66657 0.57986 0.0
H1998 H 0.46049 0.50647 0.57182 0.0
H1999 H 0.43162 0.51859 0.58159 0.0
H2000 H 0.50347 0.51847 0.59265 0.0
H2001 H 0.53393 0.54678 0.5919 0.0
C2002 C 0.81138 0.27512 0.90661 0.0
C2003 C 0.79362 0.28412 0.92627 0.0
C2004 C 0.77687 0.31512 0.88558 0.0
C2005 C 0.79581 0.30762 0.86696 0.0
N2006 N 0.83374 0.28363 0.8617 0.0
N2007 N 0.7604 0.31426 0.93507 0.0
C2008 C 0.81353 0.28817 0.87788 0.0
C2009 C 0.77675 0.30471 0.91592 0.0
N2010 N 0.82655 0.25416 0.91552 0.0
N2011 N 0.75808 0.33119 0.87352 0.0
H2012 H 0.75773 0.30524 0.95589 0.0
H2013 H 0.75039 0.3322 0.93123 0.0
H2014 H 0.75751 0.33883 0.85152 0.0
H2015 H 0.74167 0.33492 0.88387 0.0
H2016 H 0.83642 0.24282 0.90049 0.0
H2017 H 0.82844 0.24688 0.93768 0.0
H2018 H 0.8499 0.27358 0.87026 0.0
H2019 H 0.83568 0.29186 0.84036 0.0
C2020 C 0.11391 0.50931 0.10563 0.0
C2021 C 0.09826 0.49321 0.12627 0.0
C2022 C 0.06286 0.52305 0.11377 0.0
C2023 C 0.07812 0.53921 0.09304 0.0
N2024 N 0.11613 0.54347 0.06537 0.0
N2025 N 0.05148 0.47451 0.13591 0.0
C2026 C 0.10324 0.53136 0.08816 0.0
C2027 C 0.0708 0.49698 0.12615 0.0
N2028 N 0.13875 0.50318 0.10196 0.0
N2029 N 0.04101 0.53306 0.1224 0.0
H2030 H 0.05527 0.45303 0.14108 0.0
H2031 H 0.03055 0.47508 0.13417 0.0
H2032 H 0.03542 0.55305 0.11512 0.0
H2033 H 0.03076 0.52376 0.13962 0.0
H2034 H 0.15361 0.51824 0.0926 0.0
H2035 H 0.14407 0.48251 0.10744 0.0
H2036 H 0.13061 0.53397 0.05584 0.0
H2037 H 0.11107 0.56206 0.0549 0.0
C2038 C 0.80829 0.92981 0.42097 0.0
C2039 C 0.83023 0.92695 0.44519 0.0
C2040 C 0.84729 0.89703 0.4052 0.0
C2041 C 0.82796 0.90432 0.3805 0.0
N2042 N 0.79515 0.93565 0.36622 0.0
N2043 N 0.87436 0.91308 0.45872 0.0
C2044 C 0.80984 0.92292 0.38879 0.0
C2045 C 0.85077 0.91194 0.43691 0.0
N2046 N 0.78558 0.93864 0.42864 0.0
N2047 N 0.86152 0.87489 0.39907 0.0
H2048 H 0.87815 0.92409 0.48196 0.0
H2049 H 0.89139 0.90567 0.45286 0.0
H2050 H 0.85925 0.8624 0.37682 0.0
H2051 H 0.87342 0.86651 0.41684 0.0
H2052 H 0.76785 0.93832 0.41184 0.0
H2053 H 0.78315 0.94268 0.45191 0.0
H2054 H 0.78349 0.95153 0.37158 0.0
H2055 H 0.79746 0.93368 0.34281 0.0
C2056 C 0.50316 0.57761 0.76212 0.0
C2057 C 0.4738 0.56333 0.75517 0.0
C2058 C 0.4745 0.55569 0.81003 0.0
C2059 C 0.50393 0.56955 0.81691 0.0
N2060 N 0.54579 0.59875 0.80233 0.0
N2061 N 0.43031 0.5438 0.77243 0.0
C2062 C 0.51814 0.58223 0.7938 0.0
C2063 C 0.45905 0.55418 0.77918 0.0
N2064 N 0.51663 0.58606 0.73827 0.0
N2065 N 0.46162 0.54264 0.83269 0.0
H2066 H 0.41811 0.54044 0.74977 0.0
H2067 H 0.41815 0.54033 0.78951 0.0
H2068 H 0.47185 0.54464 0.85612 0.0
H2069 H 0.44118 0.52826 0.82814 0.0
H2070 H 0.53837 0.59327 0.74095 0.0
H2071 H 0.50595 0.58472 0.71512 0.0
H2072 H 0.55691 0.61107 0.78735 0.0
H2073 H 0.55731 0.60202 0.82538 0.0
C2074 C 0.82491 0.27975 0.15821 0.0
C2075 C 0.80768 0.28617 0.13111 0.0
C2076 C 0.80042 0.33136 0.16455 0.0
C2077 C 0.81598 0.32345 0.19202 0.0
N2078 N 0.83799 0.28585 0.21542 0.0
N2079 N 0.77428 0.31445 0.1105 0.0
C2080 C 0.82654 0.29623 0.18894 0.0
C2081 C 0.7943 0.31116 0.13479 0.0
N2082 N 0.84081 0.25876 0.15443 0.0
N2083 N 0.79099 0.3581 0.16685 0.0
H2084 H 0.76869 0.30001 0.08868 0.0
H2085 H 0.76132 0.32959 0.11278 0.0
H2086 H 0.79216 0.37157 0.18835 0.0
H2087 H 0.78313 0.36771 0.14737 0.0
H2088 H 0.8558 0.25516 0.17257 0.0
H2089 H 0.84121 0.24734 0.13238 0.0
H2090 H 0.84372 0.26455 0.2151 0.0
H2091 H 0.8391 0.29702 0.23803 0.0
C2092 C 0.06561 0.47261 0.30652 0.0
C2093 C 0.09252 0.48749 0.30143 0.0
C2094 C 0.1023 0.52405 0.35058 0.0
C2095 C 0.07418 0.51163 0.35362 0.0
N2096 N 0.03196 0.46909 0.34106 0.0
N2097 N 0.13954 0.52003 0.32257 0.0
C2098 C 0.05684 0.48394 0.33384 0.0
C2099 C 0.11203 0.51053 0.32508 0.0
N2100 N 0.04819 0.44873 0.28429 0.0
N2101 N 0.11901 0.54995 0.37103 0.0
H2102 H 0.14723 0.51074 0.304 0.0
H2103 H 0.15534 0.53497 0.34011 0.0
H2104 H 0.11292 0.55945 0.39083 0.0
H2105 H 0.13842 0.56285 0.36796 0.0
H2106 H 0.02717 0.4388 0.28447 0.0
H2107 H 0.05497 0.43919 0.26502 0.0
H2108 H 0.01904 0.44756 0.32895 0.0
H2109 H 0.02522 0.47731 0.36094 0.0
C2110 C 0.85139 0.90016 0.66288 0.0
C2111 C 0.82926 0.90102 0.63789 0.0
C2112 C 0.79537 0.869 0.66534 0.0
C2113 C 0.81747 0.87018 0.69144 0.0
N2114 N 0.86566 0.89307 0.71712 0.0
N2115 N 0.77931 0.89116 0.61856 0.0
C2116 C 0.84515 0.88767 0.69072 0.0
C2117 C 0.801 0.88647 0.63985 0.0
N2118 N 0.87865 0.91002 0.65955 0.0
N2119 N 0.76872 0.85178 0.66509 0.0
H2120 H 0.7823 0.90432 0.60023 0.0
H2121 H 0.75838 0.88458 0.62064 0.0
H2122 H 0.76293 0.84167 0.68439 0.0
H2123 H 0.75254 0.84625 0.64518 0.0
H2124 H 0.89563 0.90683 0.67536 0.0
H2125 H 0.88414 0.91845 0.63934 0.0
H2126 H 0.88523 0.9091 0.71982 0.0
H2127 H 0.86191 0.8835 0.73728 0.0
C2128 C 0.76803 0.53879 0.585 0.0
C2129 C 0.76406 0.51931 0.55557 0.0
C2130 C 0.71983 0.53394 0.53753 0.0
C2131 C 0.72535 0.55579 0.56568 0.0
N2132 N 0.75664 0.58228 0.61451 0.0
N2133 N 0.73828 0.50191 0.50196 0.0
C2134 C 0.75001 0.55911 0.58894 0.0
C2135 C 0.74042 0.51771 0.53136 0.0
N2136 N 0.78828 0.53686 0.60975 0.0
N2137 N 0.69459 0.5282 0.51696 0.0
H2138 H 0.75299 0.49006 0.4964 0.0
H2139 H 0.72332 0.50278 0.4824 0.0
H2140 H 0.67925 0.53987 0.52057 0.0
H2141 H 0.68792 0.51015 0.49774 0.0
H2142 H 0.79028 0.5478 0.63269 0.0
H2143 H 0.80148 0.52185 0.60811 0.0
H2144 H 0.77588 0.58843 0.63039 0.0
H2145 H 0.74376 0.59717 0.61855 0.0
C2146 C 0.17234 0.17324 0.47041 0.0
C2147 C 0.19264 0.19146 0.49682 0.0
C2148 C 0.1661 0.16251 0.53236 0.0
C2149 C 0.14477 0.14594 0.50613 0.0
N2150 N 0.12509 0.13953 0.45043 0.0
N2151 N 0.2063 0.20752 0.55311 0.0
C2152 C 0.14722 0.15238 0.47517 0.0
C2153 C 0.18868 0.18735 0.52786 0.0
N2154 N 0.17727 0.17551 0.4407 0.0
N2155 N 0.16537 0.15363 0.56148 0.0
H2156 H 0.22293 0.22592 0.55069 0.0
H2157 H 0.20297 0.2079 0.57608 0.0
H2158 H 0.1496 0.135 0.56532 0.0
H2159 H 0.18163 0.16252 0.5811 0.0
H2160 H 0.16507 0.16026 0.42069 0.0
H2161 H 0.19474 0.19148 0.43627 0.0
H2162 H 0.12425 0.14605 0.428 0.0
H2163 H 0.10643 0.1242 0.45284 0.0
C2164 C 0.27428 0.06038 0.88956 0.0
C2165 C 0.26693 0.08335 0.87143 0.0
C2166 C 0.29018 0.06636 0.83023 0.0
C2167 C 0.29808 0.04374 0.84853 0.0
N2168 N 0.30178 0.02179 0.89721 0.0
N2169 N 0.27295 0.1134 0.82846 0.0
C2170 C 0.29146 0.04161 0.87882 0.0
C2171 C 0.27649 0.08794 0.84297 0.0
N2172 N 0.26406 0.05589 0.91638 0.0
N2173 N 0.29464 0.06629 0.80008 0.0
H2174 H 0.26293 0.12979 0.837 0.0
H2175 H 0.28212 0.12 0.80961 0.0
H2176 H 0.30525 0.0514 0.79002 0.0
H2177 H 0.28611 0.07937 0.78415 0.0
H2178 H 0.26612 0.03744 0.92911 0.0
H2179 H 0.25208 0.0699 0.92513 0.0
H2180 H 0.29987 0.02093 0.92056 0.0
H2181 H 0.3141 0.00752 0.88974 0.0
C2182 C 0.43701 0.01621 0.0215 0.0
C2183 C 0.42303 0.03025 0.04241 0.0
C2184 C 0.46537 0.07437 0.06145 0.0
C2185 C 0.47979 0.05977 0.04135 0.0
N2186 N 0.48109 0.01358 0.00697 0.0
N2187 N 0.42506 0.06886 0.08658 0.0
C2188 C 0.4661 0.02972 0.02276 0.0
C2189 C 0.43768 0.05811 0.06382 0.0
N2190 N 0.42216 0.99069 0.99945 0.0
N2191 N 0.4774 0.10456 0.07678 0.0
H2192 H 0.40481 0.05742 0.08876 0.0
H2193 H 0.43545 0.08717 0.10494 0.0
H2194 H 0.49721 0.11767 0.07494 0.0
H2195 H 0.46685 0.11777 0.0891 0.0
H2196 H 0.43008 0.98192 0.98082 0.0
H2197 H 0.40115 0.97936 0.99857 0.0
H2198 H 0.47322 0.99015 0.99609 0.0
H2199 H 0.50232 0.02255 0.00695 0.0
C2200 C 0.90542 0.7826 0.8256 0.0
C2201 C 0.91333 0.7636 0.80245 0.0
C2202 C 0.87282 0.76774 0.76317 0.0
C2203 C 0.86689 0.78958 0.78546 0.0
N2204 N 0.88221 0.82344 0.83616 0.0
N2205 N 0.90822 0.74398 0.7472 0.0
C2206 C 0.88455 0.79868 0.81615 0.0
C2207 C 0.89793 0.75757 0.77065 0.0
N2208 N 0.91692 0.7844 0.85683 0.0
N2209 N 0.85469 0.75701 0.73473 0.0
H2210 H 0.92738 0.73799 0.7512 0.0
H2211 H 0.89938 0.74185 0.72332 0.0
H2212 H 0.83652 0.76466 0.72837 0.0
H2213 H 0.85643 0.73867 0.71869 0.0
H2214 H 0.90953 0.79513 0.87489 0.0
H2215 H 0.93185 0.77242 0.86489 0.0
H2216 H 0.89679 0.83343 0.85702 0.0
H2217 H 0.86694 0.83557 0.83088 0.0
C2218 C 0.8752 0.70154 0.04799 0.0
C2219 C 0.85467 0.69648 0.01966 0.0
C2220 C 0.88114 0.66567 0.99257 0.0
C2221 C 0.9011 0.6697 0.02124 0.0
N2222 N 0.92114 0.69729 0.07385 0.0
N2223 N 0.84122 0.68062 0.96344 0.0
C2224 C 0.89941 0.68962 0.0482 0.0
C2225 C 0.85883 0.68097 0.99136 0.0
N2226 N 0.87101 0.71695 0.07492 0.0
N2227 N 0.88268 0.64583 0.96701 0.0
H2228 H 0.82447 0.69111 0.96199 0.0
H2229 H 0.84449 0.67239 0.9415 0.0
H2230 H 0.89901 0.63483 0.9668 0.0
H2231 H 0.86708 0.63878 0.9466 0.0
H2232 H 0.88308 0.7181 0.09726 0.0
H2233 H 0.85454 0.72777 0.07506 0.0
H2234 H 0.92263 0.7139 0.09329 0.0
H2235 H 0.93905 0.68886 0.0746 0.0
C2236 C 0.2814 0.27239 0.8809 0.0
C2237 C 0.2603 0.24719 0.86173 0.0
C2238 C 0.27908 0.26084 0.81505 0.0
C2239 C 0.29787 0.28876 0.8333 0.0
N2240 N 0.31478 0.3227 0.88395 0.0
N2241 N 0.23597 0.21991 0.8098 0.0
C2242 C 0.29864 0.29488 0.8664 0.0
C2243 C 0.25818 0.24223 0.82857 0.0
N2244 N 0.28527 0.27458 0.91301 0.0
N2245 N 0.28231 0.25077 0.78548 0.0
H2246 H 0.22052 0.2051 0.81869 0.0
H2247 H 0.23161 0.21793 0.78527 0.0
H2248 H 0.29885 0.262 0.7756 0.0
H2249 H 0.27081 0.22903 0.77234 0.0
H2250 H 0.30244 0.29017 0.92841 0.0
H2251 H 0.27243 0.259 0.92426 0.0
H2252 H 0.31317 0.33028 0.90685 0.0
H2253 H 0.32845 0.33944 0.87508 0.0
C2254 C 0.43682 0.10469 0.32493 0.0
C2255 C 0.44941 0.10813 0.29822 0.0
C2256 C 0.42543 0.053 0.27623 0.0
C2257 C 0.4107 0.05133 0.30136 0.0
N2258 N 0.39645 0.07842 0.34419 0.0
N2259 N 0.45266 0.08722 0.24599 0.0
C2260 C 0.41437 0.07822 0.32382 0.0
C2261 C 0.4429 0.08274 0.27304 0.0
N2262 N 0.44739 0.12571 0.35217 0.0
N2263 N 0.42342 0.0262 0.25618 0.0
H2264 H 0.46548 0.10875 0.24303 0.0
H2265 H 0.4463 0.07042 0.22572 0.0
H2266 H 0.41049 1.00419 0.25764 0.0
H2267 H 0.43597 0.02541 0.23951 0.0
H2268 H 0.44028 0.12248 0.37305 0.0
H2269 H 0.46558 0.14399 0.35509 0.0
H2270 H 0.39697 0.09871 0.35919 0.0
H2271 H 0.37926 0.05936 0.34366 0.0
C2272 C 0.58631 0.47736 0.60338 0.0
C2273 C 0.59565 0.45464 0.5852 0.0
C2274 C 0.58517 0.48211 0.53908 0.0
C2275 C 0.58037 0.50733 0.55876 0.0
N2276 N 0.58333 0.53151 0.61216 0.0
N2277 N 0.60868 0.43971 0.53599 0.0
C2278 C 0.58324 0.5058 0.59165 0.0
C2279 C 0.59621 0.45806 0.55298 0.0
N2280 N 0.57846 0.47109 0.63112 0.0
N2281 N 0.57933 0.48106 0.50711 0.0
H2282 H 0.61834 0.42321 0.54549 0.0
H2283 H 0.61213 0.4433 0.51354 0.0
H2284 H 0.57137 0.49815 0.49633 0.0
H2285 H 0.5799 0.46181 0.49141 0.0
H2286 H 0.56919 0.48571 0.64373 0.0
H2287 H 0.57746 0.4494 0.63925 0.0
H2288 H 0.58821 0.53238 0.63659 0.0
H2289 H 0.58126 0.55297 0.60516 0.0
C2290 C 0.43321 0.81838 0.31741 0.0
C2291 C 0.44122 0.82683 0.35061 0.0
C2292 C 0.39707 0.84323 0.34982 0.0
C2293 C 0.3907 0.8377 0.31591 0.0
N2294 N 0.41118 0.83339 0.26967 0.0
N2295 N 0.43253 0.85264 0.39808 0.0
C2296 C 0.41112 0.82897 0.30029 0.0
C2297 C 0.42343 0.84027 0.36684 0.0
N2298 N 0.44712 0.80054 0.30197 0.0
N2299 N 0.37876 0.85244 0.36626 0.0
H2300 H 0.45133 0.851 0.4116 0.0
H2301 H 0.4224 0.86659 0.41019 0.0
H2302 H 0.36334 0.86295 0.35672 0.0
H2303 H 0.37952 0.85031 0.39002 0.0
H2304 H 0.44064 0.79167 0.27798 0.0
H2305 H 0.46304 0.79181 0.31391 0.0
H2306 H 0.42684 0.8292 0.2581 0.0
H2307 H 0.39866 0.84611 0.25768 0.0
C2308 C 0.06918 0.7453 0.08751 0.0
C2309 C 0.09574 0.75924 0.10774 0.0
C2310 C 0.10645 0.70737 0.10342 0.0
C2311 C 0.08189 0.69427 0.07958 0.0
N2312 N 0.04217 0.70432 0.04468 0.0
N2313 N 0.1426 0.7548 0.12721 0.0
C2314 C 0.06379 0.71416 0.0704 0.0
C2315 C 0.11525 0.74062 0.11327 0.0
N2316 N 0.04857 0.76107 0.08544 0.0
N2317 N 0.12068 0.68811 0.11818 0.0
H2318 H 0.15017 0.77934 0.13234 0.0
H2319 H 0.15819 0.74257 0.12965 0.0
H2320 H 0.11353 0.66346 0.11411 0.0
H2321 H 0.1374 0.69665 0.13744 0.0
H2322 H 0.02783 0.7505 0.07399 0.0
H2323 H 0.05152 0.78371 0.09756 0.0
H2324 H 0.03053 0.7193 0.03541 0.0
H2325 H 0.03768 0.68267 0.03025 0.0
C2326 C 0.12134 0.35639 0.88041 0.0
C2327 C 0.10398 0.32615 0.8821 0.0
C2328 C 0.12927 0.30071 0.84805 0.0
C2329 C 0.14763 0.33076 0.84794 0.0
N2330 N 0.16497 0.38625 0.86901 0.0
N2331 N 0.09468 0.26921 0.87282 0.0
C2332 C 0.14486 0.35831 0.86574 0.0
C2333 C 0.1089 0.29819 0.86743 0.0
N2334 N 0.1145 0.38331 0.89119 0.0
N2335 N 0.13065 0.27477 0.8288 0.0
H2336 H 0.07975 0.26645 0.88703 0.0
H2337 H 0.09941 0.24811 0.86558 0.0
H2338 H 0.14556 0.27556 0.81467 0.0
H2339 H 0.1158 0.25299 0.82507 0.0
H2340 H 0.12455 0.40585 0.88747 0.0
H2341 H 0.09708 0.38302 0.90137 0.0
H2342 H 0.16576 0.40632 0.88443 0.0
H2343 H 0.18238 0.38856 0.85841 0.0
C2344 C 0.57038 0.74079 0.97578 0.0
C2345 C 0.54306 0.74453 0.96394 0.0
C2346 C 0.52244 0.69095 0.97656 0.0
C2347 C 0.54978 0.68689 0.98736 0.0
N2348 N 0.59972 0.70568 0.9913 0.0
N2349 N 0.49308 0.72127 0.94943 0.0
C2350 C 0.57369 0.71132 0.98548 0.0
C2351 C 0.51913 0.7189 0.9631 0.0
N2352 N 0.59346 0.76542 0.97759 0.0
N2353 N 0.49956 0.66872 0.98055 0.0
H2354 H 0.48954 0.74187 0.94145 0.0
H2355 H 0.47517 0.70238 0.94438 0.0
H2356 H 0.50114 0.64811 0.98994 0.0
H2357 H 0.47921 0.67154 0.97668 0.0
H2358 H 0.61343 0.7662 0.99006 0.0
H2359 H 0.59262 0.78606 0.96799 0.0
H2360 H 0.6177 0.72049 0.98676 0.0
H2361 H 0.60306 0.68455 0.99798 0.0
C2362 C 0.18909 0.8882 0.73102 0.0
C2363 C 0.18044 0.8748 0.69847 0.0
C2364 C 0.22455 0.85834 0.70248 0.0
C2365 C 0.23101 0.8674 0.73569 0.0
N2366 N 0.21679 0.88661 0.78234 0.0
N2367 N 0.18761 0.83951 0.65598 0.0
C2368 C 0.21244 0.88098 0.75021 0.0
C2369 C 0.19752 0.85774 0.68492 0.0
N2370 N 0.17613 0.90922 0.74339 0.0
N2371 N 0.24458 0.85147 0.68735 0.0
H2372 H 0.16732 0.83638 0.64307 0.0
H2373 H 0.1984 0.82444 0.64658 0.0
H2374 H 0.26512 0.85376 0.69919 0.0
H2375 H 0.24172 0.84725 0.66285 0.0
H2376 H 0.1833 0.92186 0.76609 0.0
H2377 H 0.16027 0.91685 0.72995 0.0
H2378 H 0.20247 0.89366 0.79436 0.0
H2379 H 0.23342 0.88123 0.79688 0.0
C2380 C 0.04267 0.45542 0.49041 0.0
C2381 C 0.06225 0.45084 0.47139 0.0
C2382 C 0.08792 0.50757 0.48798 0.0
C2383 C 0.06963 0.51136 0.50881 0.0
N2384 N 0.03299 0.48643 0.53457 0.0
N2385 N 0.10705 0.47146 0.45765 0.0
C2386 C 0.04815 0.48448 0.51153 0.0
C2387 C 0.08582 0.47671 0.4717 0.0
N2388 N 0.01787 0.43288 0.48707 0.0
N2389 N 0.10748 0.53348 0.48371 0.0
H2390 H 0.10702 0.44912 0.44692 0.0
H2391 H 0.126 0.48834 0.45947 0.0
H2392 H 0.11041 0.55598 0.49613 0.0
H2393 H 0.11917 0.53323 0.46614 0.0
H2394 H 1.00139 0.43649 0.49745 0.0
H2395 H 0.01259 0.41172 0.47156 0.0
H2396 H 0.01949 0.46675 0.54017 0.0
H2397 H 0.03522 0.50736 0.54952 0.0
C2398 C 0.5001 0.34233 0.20963 0.0
C2399 C 0.52144 0.36657 0.2023 0.0
C2400 C 0.4969 0.40591 0.21897 0.0
C2401 C 0.47817 0.38228 0.23055 0.0
N2402 N 0.46559 0.32872 0.24203 0.0
N2403 N 0.54271 0.42277 0.20597 0.0
C2404 C 0.48072 0.35065 0.22721 0.0
C2405 C 0.52046 0.39876 0.20834 0.0
N2406 N 0.4977 0.31126 0.19893 0.0
N2407 N 0.49196 0.4351 0.21761 0.0
H2408 H 0.56098 0.41904 0.19972 0.0
H2409 H 0.54426 0.44654 0.21338 0.0
H2410 H 0.47489 0.44116 0.22498 0.0
H2411 H 0.50318 0.45216 0.20636 0.0
H2412 H 0.48095 0.29287 0.20108 0.0
H2413 H 0.51064 0.3042 0.1848 0.0
H2414 H 0.46923 0.30645 0.24348 0.0
H2415 H 0.4515 0.33385 0.25557 0.0
C2416 C 0.65291 0.65009 0.48602 0.0
C2417 C 0.66824 0.6308 0.47334 0.0
C2418 C 0.63076 0.58419 0.47716 0.0
C2419 C 0.61258 0.60442 0.48028 0.0
N2420 N 0.60669 0.65775 0.48063 0.0
N2421 N 0.6754 0.57849 0.46536 0.0
C2422 C 0.62383 0.63776 0.48309 0.0
C2423 C 0.65833 0.59736 0.47162 0.0
N2424 N 0.66594 0.68053 0.49962 0.0
N2425 N 0.6223 0.5531 0.48083 0.0
H2426 H 0.69685 0.58779 0.46667 0.0
H2427 H 0.66848 0.55396 0.45942 0.0
H2428 H 0.60278 0.54316 0.48577 0.0
H2429 H 0.63524 0.53769 0.48129 0.0
H2430 H 0.65563 0.69506 0.51076 0.0
H2431 H 0.6877 0.68944 0.50277 0.0
H2432 H 0.61421 0.68205 0.48071 0.0
H2433 H 0.58496 0.64947 0.4741 0.0
C2434 C 0.35862 0.92032 0.16053 0.0
C2435 C 0.33372 0.92038 0.13876 0.0
C2436 C 0.30558 0.8998 0.1772 0.0
C2437 C 0.33009 0.89669 0.19756 0.0
N2438 N 0.37987 0.90186 0.20761 0.0
N2439 N 0.28306 0.90842 0.12586 0.0
C2440 C 0.35664 0.90666 0.18905 0.0
C2441 C 0.30711 0.90944 0.14695 0.0
N2442 N 0.38424 0.93337 0.15393 0.0
N2443 N 0.28088 0.8952 0.1876 0.0
H2444 H 0.28296 0.91791 0.10484 0.0
H2445 H 0.26307 0.89659 0.12829 0.0
H2446 H 0.27914 0.88912 0.20977 0.0
H2447 H 0.2629 0.90046 0.17589 0.0
H2448 H 0.40316 0.93761 0.17009 0.0
H2449 H 0.38655 0.94165 0.13266 0.0
H2450 H 0.39938 0.90512 0.20133 0.0
H2451 H 0.37922 0.89264 0.22874 0.0
C2452 C 0.02267 0.64204 0.90467 0.0
C2453 C 0.02952 0.67552 0.90573 0.0
C2454 C 0.05445 0.68146 0.96075 0.0
C2455 C 0.04705 0.64771 0.95972 0.0
N2456 N 0.01298 0.59866 0.93431 0.0
N2457 N 0.04627 0.72717 0.93674 0.0
C2458 C 0.02756 0.62884 0.93298 0.0
C2459 C 0.0434 0.69525 0.93453 0.0
N2460 N 0.01244 0.62246 0.87648 0.0
N2461 N 0.0724 0.70052 0.98646 0.0
H2462 H 0.03902 0.73783 0.91771 0.0
H2463 H 0.05357 0.74266 0.9579 0.0
H2464 H 0.07861 0.69245 0.00753 0.0
H2465 H 0.08176 0.72442 0.98671 0.0
H2466 H 0.01024 0.59808 0.87427 0.0
H2467 H 0.00837 0.63064 0.85492 0.0
H2468 H 0.99705 0.58524 0.91585 0.0
H2469 H 0.01338 0.58874 0.95499 0.0
C2470 C 0.28419 0.30834 0.62378 0.0
C2471 C 0.29487 0.28202 0.61575 0.0
C2472 C 0.31248 0.2818 0.67236 0.0
C2473 C 0.30354 0.30943 0.68031 0.0
N2474 N 0.28779 0.35371 0.6623 0.0
N2475 N 0.32595 0.24957 0.63222 0.0
C2476 C 0.29139 0.32408 0.65562 0.0
C2477 C 0.31112 0.2706 0.64004 0.0
N2478 N 0.26609 0.31753 0.60151 0.0
N2479 N 0.32097 0.26517 0.69546 0.0
H2480 H 0.32635 0.24176 0.60889 0.0
H2481 H 0.34024 0.24269 0.64876 0.0
H2482 H 0.32132 0.27178 0.71925 0.0
H2483 H 0.32488 0.24308 0.69069 0.0
H2484 H 0.25521 0.33421 0.60692 0.0
H2485 H 0.26006 0.30664 0.57808 0.0
H2486 H 0.28171 0.36689 0.64498 0.0
H2487 H 0.29389 0.36646 0.68497 0.0
C2488 C 0.65486 0.60041 0.2778 0.0
C2489 C 0.65458 0.624 0.30236 0.0
C2490 C 0.61885 0.64103 0.26753 0.0
C2491 C 0.62366 0.62224 0.24184 0.0
N2492 N 0.64552 0.5834 0.22139 0.0
N2493 N 0.63751 0.66841 0.32056 0.0
C2494 C 0.64103 0.6012 0.24666 0.0
C2495 C 0.63642 0.64433 0.29752 0.0
N2496 N 0.6683 0.57737 0.28441 0.0
N2497 N 0.59785 0.65617 0.2629 0.0
H2498 H 0.65025 0.67214 0.34287 0.0
H2499 H 0.62735 0.68628 0.31681 0.0
H2500 H 0.5848 0.65413 0.24087 0.0
H2501 H 0.59161 0.66801 0.28123 0.0
H2502 H 0.66722 0.5579 0.26805 0.0
H2503 H 0.67843 0.57619 0.30719 0.0
H2504 H 0.66061 0.57053 0.22305 0.0
H2505 H 0.63504 0.58274 0.19831 0.0
C2506 C 0.29321 0.92458 0.90854 0.0
C2507 C 0.3136 0.92177 0.93484 0.0
C2508 C 0.32545 0.88063 0.9005 0.0
C2509 C 0.30732 0.88607 0.87364 0.0
N2510 N 0.27799 0.91789 0.85152 0.0
N2511 N 0.35404 0.90213 0.9526 0.0
C2512 C 0.29266 0.90971 0.87751 0.0
C2513 C 0.33102 0.90106 0.92997 0.0
N2514 N 0.27317 0.93995 0.91338 0.0
N2515 N 0.33746 0.85581 0.89808 0.0
H2516 H 0.35985 0.91762 0.97379 0.0
H2517 H 0.36912 0.89011 0.94891 0.0
H2518 H 0.3356 0.84153 0.87679 0.0
H2519 H 0.34797 0.84836 0.91761 0.0
H2520 H 0.25633 0.94038 0.89572 0.0
H2521 H 0.27138 0.9491 0.93576 0.0
H2522 H 0.26889 0.9369 0.85245 0.0
H2523 H 0.27736 0.90756 0.82869 0.0
C2524 C 0.0581 0.74399 0.74927 0.0
C2525 C 0.02838 0.73566 0.74124 0.0
C2526 C 0.02911 0.70511 0.69154 0.0
C2527 C 0.05798 0.70731 0.70311 0.0
N2528 N 0.10128 0.73172 0.7404 0.0
N2529 N 0.98861 0.72469 0.69811 0.0
C2530 C 0.07307 0.72827 0.7309 0.0
C2531 C 0.01474 0.72146 0.71008 0.0
N2532 N 0.07169 0.76763 0.77368 0.0
N2533 N 0.01512 0.68589 0.66395 0.0
H2534 H 0.97894 0.73888 0.71069 0.0
H2535 H 0.97821 0.71681 0.67475 0.0
H2536 H 0.02515 0.67423 0.64928 0.0
H2537 H 0.99339 0.68024 0.65631 0.0
H2538 H 0.09344 0.77643 0.7798 0.0
H2539 H 0.06076 0.7809 0.78548 0.0
H2540 H 0.11298 0.74374 0.76223 0.0
H2541 H 0.11287 0.72144 0.72666 0.0
C2542 C 0.27845 0.32439 0.40733 0.0
C2543 C 0.29701 0.30731 0.42163 0.0
C2544 C 0.32839 0.32401 0.38448 0.0
C2545 C 0.30943 0.34043 0.3698 0.0
N2546 N 0.27009 0.36238 0.37221 0.0
N2547 N 0.33925 0.28962 0.42292 0.0
C2548 C 0.28557 0.34237 0.38277 0.0
C2549 C 0.32188 0.30684 0.40989 0.0
N2550 N 0.25298 0.32171 0.41572 0.0
N2551 N 0.35364 0.32673 0.37549 0.0
H2552 H 0.33684 0.27933 0.44317 0.0
H2553 H 0.3555 0.28436 0.4132 0.0
H2554 H 0.35934 0.33956 0.35769 0.0
H2555 H 0.3699 0.31829 0.38682 0.0
H2556 H 0.23695 0.33008 0.40366 0.0
H2557 H 0.24674 0.30863 0.43313 0.0
H2558 H 0.25443 0.36811 0.38276 0.0
H2559 H 0.27464 0.37534 0.35421 0.0
C2560 C 0.38856 0.68095 0.53905 0.0
C2561 C 0.36237 0.67627 0.51786 0.0
C2562 C 0.3753 0.63718 0.48237 0.0
C2563 C 0.40156 0.64209 0.50346 0.0
N2564 N 0.4357 0.67308 0.54831 0.0
N2565 N 0.33272 0.65434 0.46679 0.0
C2566 C 0.40894 0.6654 0.53072 0.0
C2567 C 0.35647 0.65592 0.4886 0.0
N2568 N 0.39368 0.69977 0.56752 0.0
N2569 N 0.36785 0.61361 0.45706 0.0
H2570 H 0.31799 0.66674 0.47087 0.0
H2571 H 0.32856 0.64272 0.44377 0.0
H2572 H 0.38131 0.60006 0.45131 0.0
H2573 H 0.34782 0.60602 0.44284 0.0
H2574 H 0.41063 0.70114 0.58576 0.0
H2575 H 0.38007 0.71302 0.57354 0.0
H2576 H 0.44352 0.69198 0.56662 0.0
H2577 H 0.45096 0.66201 0.54293 0.0
C2578 C 0.94767 0.06138 0.56787 0.0
C2579 C 0.93746 0.02891 0.55529 0.0
C2580 C 0.98008 0.03288 0.53276 0.0
C2581 C 0.98857 0.06652 0.5427 0.0
N2582 N 0.97132 0.11213 0.55688 0.0
N2583 N 0.94269 0.98384 0.52305 0.0
C2584 C 0.96994 0.08068 0.55685 0.0
C2585 C 0.9536 0.01449 0.53745 0.0
N2586 N 0.93513 0.07418 0.58952 0.0
N2587 N 0.99635 0.01847 0.51734 0.0
H2588 H 0.92405 0.96959 0.52684 0.0
H2589 H 0.9513 0.97292 0.5063 0.0
H2590 H 0.01146 0.03067 0.50624 0.0
H2591 H 0.99421 0.99412 0.5148 0.0
H2592 H 0.9431 0.09734 0.60128 0.0
H2593 H 0.9187 0.06044 0.59799 0.0
H2594 H 0.95701 0.12285 0.56538 0.0
H2595 H 0.98313 0.12606 0.54347 0.0
C2596 C 0.86707 0.16109 0.2133 0.0
C2597 C 0.85775 0.12763 0.21024 0.0
C2598 C 0.81361 0.13193 0.22503 0.0
C2599 C 0.82431 0.16532 0.2313 0.0
N2600 N 0.86379 0.21125 0.23854 0.0
N2601 N 0.82462 0.08113 0.21902 0.0
C2602 C 0.8518 0.17983 0.22748 0.0
C2603 C 0.83164 0.11293 0.21762 0.0
N2604 N 0.88985 0.17501 0.20155 0.0
N2605 N 0.78613 0.11845 0.22546 0.0
H2606 H 0.83756 0.06647 0.21454 0.0
H2607 H 0.80723 0.06982 0.22751 0.0
H2608 H 0.77231 0.1317 0.2308 0.0
H2609 H 0.77643 0.09448 0.2179 0.0
H2610 H 0.89568 0.19919 0.20029 0.0
H2611 H 0.9012 0.16209 0.19006 0.0
H2612 H 0.8848 0.22221 0.23911 0.0
H2613 H 0.85368 0.22566 0.25014 0.0
C2614 C 0.7 0.18022 0.04873 0.0
C2615 C 0.7052 0.1838 0.01812 0.0
C2616 C 0.66287 0.1406 0.99524 0.0
C2617 C 0.656 0.1393 0.02562 0.0
N2618 N 0.67689 0.14536 0.08111 0.0
N2619 N 0.69081 0.16938 0.96181 0.0
C2620 C 0.67696 0.15566 0.05251 0.0
C2621 C 0.68647 0.16439 0.99127 0.0
N2622 N 0.71697 0.20048 0.07433 0.0
N2623 N 0.64868 0.11705 0.9709 0.0
H2624 H 0.70799 0.18634 0.95809 0.0
H2625 H 0.67627 0.15874 0.94113 0.0
H2626 H 0.63433 0.0968 0.97412 0.0
H2627 H 0.65392 0.11505 0.9488 0.0
H2628 H 0.71229 0.2015 0.09675 0.0
H2629 H 0.73441 0.21825 0.07265 0.0
H2630 H 0.6926 0.1551 0.10108 0.0
H2631 H 0.6642 0.12363 0.08364 0.0
C2632 C 0.23636 0.44502 0.2313 0.0
C2633 C 0.21306 0.44011 0.2465 0.0
C2634 C 0.24068 0.42221 0.29025 0.0
C2635 C 0.26289 0.42428 0.27372 0.0
N2636 N 0.28588 0.44824 0.23443 0.0
N2637 N 0.19265 0.42422 0.29067 0.0
C2638 C 0.26204 0.43902 0.24608 0.0
C2639 C 0.21512 0.42879 0.27611 0.0
N2640 N 0.23333 0.45351 0.20172 0.0
N2641 N 0.24524 0.4161 0.3206 0.0
H2642 H 0.1743 0.43079 0.28238 0.0
H2643 H 0.19149 0.41258 0.31026 0.0
H2644 H 0.26512 0.41526 0.33203 0.0
H2645 H 0.23101 0.41567 0.33545 0.0
H2646 H 0.24828 0.45418 0.18775 0.0
H2647 H 0.21466 0.45722 0.18975 0.0
H2648 H 0.2874 0.46212 0.21646 0.0
H2649 H 0.30519 0.44498 0.24467 0.0
C2650 C 0.25208 0.48841 0.01738 0.0
C2651 C 0.26848 0.48987 0.04789 0.0
C2652 C 0.23281 0.50868 0.07096 0.0
C2653 C 0.22023 0.51394 0.04069 0.0
N2654 N 0.20498 0.48279 0.98901 0.0
N2655 N 0.27376 0.50052 0.1045 0.0
C2656 C 0.22599 0.49648 0.01452 0.0
C2657 C 0.25866 0.49977 0.07494 0.0
N2658 N 0.26161 0.48037 0.99099 0.0
N2659 N 0.21771 0.5065 0.09422 0.0
H2660 H 0.29212 0.4928 0.10855 0.0
H2661 H 0.26895 0.51068 0.12476 0.0
H2662 H 0.19656 0.5067 0.08973 0.0
H2663 H 0.22453 0.49976 0.11595 0.0
H2664 H 0.25123 0.48172 0.96836 0.0
H2665 H 0.2811 0.47533 0.99187 0.0
H2666 H 0.20747 0.46756 0.97049 0.0
H2667 H 0.18408 0.48298 0.98911 0.0
C2668 C 0.84754 0.94109 0.17936 0.0
C2669 C 0.86983 0.96609 0.19727 0.0
C2670 C 0.85668 0.95078 0.24654 0.0
C2671 C 0.83506 0.92451 0.22907 0.0
N2672 N 0.8083 0.89606 0.17798 0.0
N2673 N 0.89994 0.99013 0.2476 0.0
C2674 C 0.83011 0.92 0.1952 0.0
C2675 C 0.87565 0.9695 0.23074 0.0
N2676 N 0.84364 0.93703 0.14713 0.0
N2677 N 0.85764 0.95995 0.27779 0.0
H2678 H 0.91437 1.00455 0.23711 0.0
H2679 H 0.90715 0.9907 0.27166 0.0
H2680 H 0.84269 0.9493 0.28998 0.0
H2681 H 0.87112 0.98083 0.29074 0.0
H2682 H 0.83022 0.91743 0.13214 0.0
H2683 H 0.85496 0.95295 0.13487 0.0
H2684 H 0.80061 0.89419 0.15391 0.0
H2685 H 0.79738 0.87737 0.18742 0.0
C2686 C 0.68316 0.10909 0.75345 0.0
C2687 C 0.67996 0.08546 0.7275 0.0
C2688 C 0.72256 0.11527 0.71329 0.0
C2689 C 0.72342 0.14086 0.73623 0.0
N2690 N 0.70382 0.16387 0.77692 0.0
N2691 N 0.69408 0.06709 0.68011 0.0
C2692 C 0.7037 0.13821 0.75628 0.0
C2693 C 0.69907 0.08868 0.70677 0.0
N2694 N 0.66698 0.10341 0.77558 0.0
N2695 N 0.74433 0.11649 0.69792 0.0
H2696 H 0.67677 0.04736 0.67417 0.0
H2697 H 0.70564 0.07015 0.66243 0.0
H2698 H 0.76202 0.13576 0.70252 0.0
H2699 H 0.74615 0.09733 0.68302 0.0
H2700 H 0.67042 0.1184 0.79679 0.0
H2701 H 0.65142 0.0824 0.77386 0.0
H2702 H 0.68797 0.16441 0.78947 0.0
H2703 H 0.71891 0.18546 0.78012 0.0
loop_
_geom_bond_atom_site_label_1
_geom_bond_atom_site_label_2
_geom_bond_distance
_geom_bond_site_symmetry_2
_ccdc_geom_bond_type
C0 O1 1.306 . S
C0 O3 1.160 . S
O1 C0 1.306 . S
O1 Cd2 2.228 1_655 S
Cd2 O1 2.228 1_455 S
Cd2 O6 2.273 . S
Cd2 O10 2.277 . S
O3 C0 1.160 . S
O3 Cd4 2.203 1_655 S
Cd4 O3 2.203 1_455 S
Cd4 O6 2.411 . S
Cd4 O7 2.333 . S
Cd4 O8 2.352 . S
Cd4 O12 2.277 . S
Cd4 O13 2.356 . S
C5 O10 1.209 . S
C5 O12 1.226 . S
O6 Cd2 2.273 . S
O6 Cd4 2.411 . S
O6 C9 1.320 . S
O7 Cd4 2.333 . S
O7 C9 1.214 . S
O8 Cd4 2.352 . S
O8 C11 1.258 . S
C9 O6 1.320 . S
C9 O7 1.214 . S
O10 Cd2 2.277 . S
O10 C5 1.209 . S
C11 O8 1.258 . S
C11 O13 1.282 . S
O12 Cd4 2.277 . S
O12 C5 1.226 . S
O13 Cd4 2.356 . S
O13 C11 1.282 . S
C14 O15 1.306 . S
C14 O17 1.160 . S
O15 C14 1.306 . S
O15 Cd16 2.228 . S
Cd16 O15 2.228 . S
Cd16 O20 2.273 . S
Cd16 O24 2.277 . S
O17 C14 1.160 . S
O17 Cd18 2.203 . S
Cd18 O17 2.203 . S
Cd18 O20 2.411 . S
Cd18 O21 2.333 . S
Cd18 O22 2.352 . S
Cd18 O26 2.277 . S
Cd18 O27 2.356 . S
C19 O24 1.209 . S
C19 O26 1.226 . S
O20 Cd16 2.273 . S
O20 Cd18 2.411 . S
O20 C23 1.320 . S
O21 Cd18 2.333 . S
O21 C23 1.214 . S
O22 Cd18 2.352 . S
O22 C25 1.258 . S
C23 O20 1.320 . S
C23 O21 1.214 . S
O24 Cd16 2.277 . S
O24 C19 1.209 . S
C25 O22 1.258 . S
C25 O27 1.282 . S
O26 Cd18 2.277 . S
O26 C19 1.226 . S
O27 Cd18 2.356 . S
O27 C25 1.282 . S
C28 O29 1.306 . S
C28 O31 1.160 . S
O29 C28 1.306 . S
O29 Cd30 2.228 . S
Cd30 O29 2.228 . S
Cd30 O34 2.273 . S
Cd30 O38 2.277 . S
O31 C28 1.160 . S
O31 Cd32 2.203 . S
Cd32 O31 2.203 . S
Cd32 O34 2.411 . S
Cd32 O35 2.333 . S
Cd32 O36 2.352 . S
Cd32 O40 2.277 . S
Cd32 O41 2.356 . S
C33 O38 1.209 . S
C33 O40 1.226 . S
O34 Cd30 2.273 . S
O34 Cd32 2.411 . S
O34 C37 1.320 . S
O35 Cd32 2.333 . S
O35 C37 1.214 . S
O36 Cd32 2.352 . S
O36 C39 1.258 . S
C37 O34 1.320 . S
C37 O35 1.214 . S
O38 Cd30 2.277 . S
O38 C33 1.209 . S
C39 O36 1.258 . S
C39 O41 1.282 . S
O40 Cd32 2.277 . S
O40 C33 1.226 . S
O41 Cd32 2.356 . S
O41 C39 1.282 . S
C42 O43 1.306 . S
C42 O45 1.160 . S
O43 C42 1.306 . S
O43 Cd44 2.228 . S
Cd44 O43 2.228 . S
Cd44 O48 2.273 . S
Cd44 O52 2.277 . S
O45 C42 1.160 . S
O45 Cd46 2.203 . S
Cd46 O45 2.203 . S
Cd46 O48 2.411 . S
Cd46 O49 2.333 . S
Cd46 O50 2.352 . S
Cd46 O54 2.277 . S
Cd46 O55 2.356 . S
C47 O52 1.209 . S
C47 O54 1.226 . S
O48 Cd44 2.273 . S
O48 Cd46 2.411 . S
O48 C51 1.320 . S
O49 Cd46 2.333 . S
O49 C51 1.214 . S
O50 Cd46 2.352 . S
O50 C53 1.258 . S
C51 O48 1.320 . S
C51 O49 1.214 . S
O52 Cd44 2.277 . S
O52 C47 1.209 . S
C53 O50 1.258 . S
C53 O55 1.282 . S
O54 Cd46 2.277 . S
O54 C47 1.226 . S
O55 Cd46 2.356 . S
O55 C53 1.282 . S
C56 O57 1.306 . S
C56 O59 1.160 . S
O57 C56 1.306 . S
O57 Cd58 2.228 . S
Cd58 O57 2.228 . S
Cd58 O62 2.273 . S
Cd58 O66 2.277 . S
O59 C56 1.160 . S
O59 Cd60 2.203 . S
Cd60 O59 2.203 . S
Cd60 O62 2.411 . S
Cd60 O63 2.333 . S
Cd60 O64 2.352 . S
Cd60 O68 2.277 . S
Cd60 O69 2.356 . S
C61 O66 1.209 . S
C61 O68 1.226 . S
O62 Cd58 2.273 . S
O62 Cd60 2.411 . S
O62 C65 1.320 . S
O63 Cd60 2.333 . S
O63 C65 1.214 . S
O64 Cd60 2.352 . S
O64 C67 1.258 . S
C65 O62 1.320 . S
C65 O63 1.214 . S
O66 Cd58 2.277 . S
O66 C61 1.209 . S
C67 O64 1.258 . S
C67 O69 1.282 . S
O68 Cd60 2.277 . S
O68 C61 1.226 . S
O69 Cd60 2.356 . S
O69 C67 1.282 . S
C70 O71 1.306 . S
C70 O73 1.160 . S
O71 C70 1.306 . S
O71 Cd72 2.228 . S
Cd72 O71 2.228 . S
Cd72 O76 2.273 . S
Cd72 O80 2.277 . S
O73 C70 1.160 . S
O73 Cd74 2.203 . S
Cd74 O73 2.203 . S
Cd74 O76 2.411 . S
Cd74 O77 2.333 . S
Cd74 O78 2.352 . S
Cd74 O82 2.277 . S
Cd74 O83 2.356 . S
C75 O80 1.209 . S
C75 O82 1.226 . S
O76 Cd72 2.273 . S
O76 Cd74 2.411 . S
O76 C79 1.320 . S
O77 Cd74 2.333 . S
O77 C79 1.214 . S
O78 Cd74 2.352 . S
O78 C81 1.258 . S
C79 O76 1.320 . S
C79 O77 1.214 . S
O80 Cd72 2.277 . S
O80 C75 1.209 . S
C81 O78 1.258 . S
C81 O83 1.282 . S
O82 Cd74 2.277 . S
O82 C75 1.226 . S
O83 Cd74 2.356 . S
O83 C81 1.282 . S
C84 O85 1.306 . S
C84 O87 1.160 . S
O85 C84 1.306 . S
O85 Cd86 2.228 . S
Cd86 O85 2.228 . S
Cd86 O90 2.273 . S
Cd86 O94 2.277 . S
O87 C84 1.160 . S
O87 Cd88 2.203 . S
Cd88 O87 2.203 . S
Cd88 O90 2.411 . S
Cd88 O91 2.333 . S
Cd88 O92 2.352 . S
Cd88 O96 2.277 . S
Cd88 O97 2.356 . S
C89 O94 1.209 . S
C89 O96 1.226 . S
O90 Cd86 2.273 . S
O90 Cd88 2.411 . S
O90 C93 1.320 . S
O91 Cd88 2.333 . S
O91 C93 1.214 . S
O92 Cd88 2.352 . S
O92 C95 1.258 . S
C93 O90 1.320 . S
C93 O91 1.214 . S
O94 Cd86 2.277 . S
O94 C89 1.209 . S
C95 O92 1.258 . S
C95 O97 1.282 . S
O96 Cd88 2.277 . S
O96 C89 1.226 . S
O97 Cd88 2.356 . S
O97 C95 1.282 . S
C98 O99 1.306 . S
C98 O101 1.160 . S
O99 C98 1.306 . S
O99 Cd100 2.228 1_655 S
Cd100 O99 2.228 1_455 S
Cd100 O104 2.273 . S
Cd100 O108 2.277 . S
O101 C98 1.160 . S
O101 Cd102 2.203 1_655 S
Cd102 O101 2.203 1_455 S
Cd102 O104 2.411 . S
Cd102 O105 2.333 . S
Cd102 O106 2.352 . S
Cd102 O110 2.277 . S
Cd102 O111 2.356 . S
C103 O108 1.209 . S
C103 O110 1.226 . S
O104 Cd100 2.273 . S
O104 Cd102 2.411 . S
O104 C107 1.320 . S
O105 Cd102 2.333 . S
O105 C107 1.214 . S
O106 Cd102 2.352 . S
O106 C109 1.258 . S
C107 O104 1.320 . S
C107 O105 1.214 . S
O108 Cd100 2.277 . S
O108 C103 1.209 . S
C109 O106 1.258 . S
C109 O111 1.282 . S
O110 Cd102 2.277 . S
O110 C103 1.226 . S
O111 Cd102 2.356 . S
O111 C109 1.282 . S
C112 O113 1.306 . S
C112 O115 1.160 . S
O113 C112 1.306 . S
O113 Cd114 2.228 . S
Cd114 O113 2.228 . S
Cd114 O118 2.273 . S
Cd114 O122 2.277 . S
O115 C112 1.160 . S
O115 Cd116 2.203 . S
Cd116 O115 2.203 . S
Cd116 O118 2.411 . S
Cd116 O119 2.333 . S
Cd116 O120 2.352 . S
Cd116 O124 2.277 . S
Cd116 O125 2.356 . S
C117 O122 1.209 . S
C117 O124 1.226 . S
O118 Cd114 2.273 . S
O118 Cd116 2.411 . S
O118 C121 1.320 . S
O119 Cd116 2.333 . S
O119 C121 1.214 . S
O120 Cd116 2.352 . S
O120 C123 1.258 . S
C121 O118 1.320 . S
C121 O119 1.214 . S
O122 Cd114 2.277 . S
O122 C117 1.209 . S
C123 O120 1.258 . S
C123 O125 1.282 . S
O124 Cd116 2.277 . S
O124 C117 1.226 . S
O125 Cd116 2.356 . S
O125 C123 1.282 . S
C126 O127 1.306 . S
C126 O129 1.160 . S
O127 C126 1.306 . S
O127 Cd128 2.228 . S
Cd128 O127 2.228 . S
Cd128 O132 2.273 . S
Cd128 O136 2.277 . S
O129 C126 1.160 . S
O129 Cd130 2.203 . S
Cd130 O129 2.203 . S
Cd130 O132 2.411 . S
Cd130 O133 2.333 . S
Cd130 O134 2.352 . S
Cd130 O138 2.277 . S
Cd130 O139 2.356 . S
C131 O136 1.209 . S
C131 O138 1.226 . S
O132 Cd128 2.273 . S
O132 Cd130 2.411 . S
O132 C135 1.320 . S
O133 Cd130 2.333 . S
O133 C135 1.214 . S
O134 Cd130 2.352 . S
O134 C137 1.258 . S
C135 O132 1.320 . S
C135 O133 1.214 . S
O136 Cd128 2.277 . S
O136 C131 1.209 . S
C137 O134 1.258 . S
C137 O139 1.282 . S
O138 Cd130 2.277 . S
O138 C131 1.226 . S
O139 Cd130 2.356 . S
O139 C137 1.282 . S
C140 O141 1.306 . S
C140 O143 1.160 . S
O141 C140 1.306 . S
O141 Cd142 2.228 . S
Cd142 O141 2.228 . S
Cd142 O146 2.273 . S
Cd142 O150 2.277 . S
O143 C140 1.160 . S
O143 Cd144 2.203 . S
Cd144 O143 2.203 . S
Cd144 O146 2.411 . S
Cd144 O147 2.333 . S
Cd144 O148 2.352 . S
Cd144 O152 2.277 . S
Cd144 O153 2.356 . S
C145 O150 1.209 . S
C145 O152 1.226 . S
O146 Cd142 2.273 . S
O146 Cd144 2.411 . S
O146 C149 1.320 . S
O147 Cd144 2.333 . S
O147 C149 1.214 . S
O148 Cd144 2.352 . S
O148 C151 1.258 . S
C149 O146 1.320 . S
C149 O147 1.214 . S
O150 Cd142 2.277 . S
O150 C145 1.209 . S
C151 O148 1.258 . S
C151 O153 1.282 . S
O152 Cd144 2.277 . S
O152 C145 1.226 . S
O153 Cd144 2.356 . S
O153 C151 1.282 . S
C154 O155 1.306 1_565 S
C154 O157 1.160 . S
O155 C154 1.306 1_545 S
O155 Cd156 2.228 . S
Cd156 O155 2.228 . S
Cd156 O160 2.273 1_545 S
Cd156 O164 2.277 1_544 S
O157 C154 1.160 . S
O157 Cd158 2.203 . S
Cd158 O157 2.203 . S
Cd158 O160 2.411 . S
Cd158 O161 2.333 . S
Cd158 O162 2.352 . S
Cd158 O166 2.277 . S
Cd158 O167 2.356 . S
C159 O164 1.209 . S
C159 O166 1.226 1_556 S
O160 Cd156 2.273 1_565 S
O160 Cd158 2.411 . S
O160 C163 1.320 . S
O161 Cd158 2.333 . S
O161 C163 1.214 . S
O162 Cd158 2.352 . S
O162 C165 1.258 . S
C163 O160 1.320 . S
C163 O161 1.214 . S
O164 Cd156 2.277 1_566 S
O164 C159 1.209 . S
C165 O162 1.258 . S
C165 O167 1.282 . S
O166 Cd158 2.277 . S
O166 C159 1.226 1_554 S
O167 Cd158 2.356 . S
O167 C165 1.282 . S
C168 O169 1.306 . S
C168 O171 1.160 . S
O169 C168 1.306 . S
O169 Cd170 2.228 1_554 S
Cd170 O169 2.228 1_556 S
Cd170 O174 2.273 1_556 S
Cd170 O178 2.277 . S
O171 C168 1.160 . S
O171 Cd172 2.203 . S
Cd172 O171 2.203 . S
Cd172 O174 2.411 . S
Cd172 O175 2.333 . S
Cd172 O176 2.352 . S
Cd172 O180 2.277 1_554 S
Cd172 O181 2.356 . S
C173 O178 1.209 . S
C173 O180 1.226 . S
O174 Cd170 2.273 1_554 S
O174 Cd172 2.411 . S
O174 C177 1.320 . S
O175 Cd172 2.333 . S
O175 C177 1.214 . S
O176 Cd172 2.352 . S
O176 C179 1.258 . S
C177 O174 1.320 . S
C177 O175 1.214 . S
O178 Cd170 2.277 . S
O178 C173 1.209 . S
C179 O176 1.258 . S
C179 O181 1.282 . S
O180 Cd172 2.277 1_556 S
O180 C173 1.226 . S
O181 Cd172 2.356 . S
O181 C179 1.282 . S
C182 O183 1.306 . S
C182 O185 1.160 . S
O183 C182 1.306 . S
O183 Cd184 2.228 . S
Cd184 O183 2.228 . S
Cd184 O188 2.273 1_554 S
Cd184 O192 2.277 . S
O185 C182 1.160 . S
O185 Cd186 2.203 1_554 S
Cd186 O185 2.203 1_556 S
Cd186 O188 2.411 . S
Cd186 O189 2.333 . S
Cd186 O190 2.352 . S
Cd186 O194 2.277 1_556 S
Cd186 O195 2.356 . S
C187 O192 1.209 . S
C187 O194 1.226 . S
O188 Cd184 2.273 1_556 S
O188 Cd186 2.411 . S
O188 C191 1.320 . S
O189 Cd186 2.333 . S
O189 C191 1.214 . S
O190 Cd186 2.352 . S
O190 C193 1.258 . S
C191 O188 1.320 . S
C191 O189 1.214 . S
O192 Cd184 2.277 . S
O192 C187 1.209 . S
C193 O190 1.258 . S
C193 O195 1.282 . S
O194 Cd186 2.277 1_554 S
O194 C187 1.226 . S
O195 Cd186 2.356 . S
O195 C193 1.282 . S
C196 O197 1.306 . S
C196 O199 1.160 . S
O197 C196 1.306 . S
O197 Cd198 2.228 . S
Cd198 O197 2.228 . S
Cd198 O202 2.273 . S
Cd198 O206 2.277 . S
O199 C196 1.160 . S
O199 Cd200 2.203 . S
Cd200 O199 2.203 . S
Cd200 O202 2.411 . S
Cd200 O203 2.333 . S
Cd200 O204 2.352 . S
Cd200 O208 2.277 . S
Cd200 O209 2.356 . S
C201 O206 1.209 . S
C201 O208 1.226 . S
O202 Cd198 2.273 . S
O202 Cd200 2.411 . S
O202 C205 1.320 . S
O203 Cd200 2.333 . S
O203 C205 1.214 . S
O204 Cd200 2.352 . S
O204 C207 1.258 . S
C205 O202 1.320 . S
C205 O203 1.214 . S
O206 Cd198 2.277 . S
O206 C201 1.209 . S
C207 O204 1.258 . S
C207 O209 1.282 . S
O208 Cd200 2.277 . S
O208 C201 1.226 . S
O209 Cd200 2.356 . S
O209 C207 1.282 . S
C210 O211 1.306 1_565 S
C210 O213 1.160 . S
O211 C210 1.306 1_545 S
O211 Cd212 2.228 . S
Cd212 O211 2.228 . S
Cd212 O216 2.273 1_545 S
Cd212 O220 2.277 1_545 S
O213 C210 1.160 . S
O213 Cd214 2.203 . S
Cd214 O213 2.203 . S
Cd214 O216 2.411 . S
Cd214 O217 2.333 . S
Cd214 O218 2.352 . S
Cd214 O222 2.277 . S
Cd214 O223 2.356 . S
C215 O220 1.209 . S
C215 O222 1.226 . S
O216 Cd212 2.273 1_565 S
O216 Cd214 2.411 . S
O216 C219 1.320 . S
O217 Cd214 2.333 . S
O217 C219 1.214 . S
O218 Cd214 2.352 . S
O218 C221 1.258 . S
C219 O216 1.320 . S
C219 O217 1.214 . S
O220 Cd212 2.277 1_565 S
O220 C215 1.209 . S
C221 O218 1.258 . S
C221 O223 1.282 . S
O222 Cd214 2.277 . S
O222 C215 1.226 . S
O223 Cd214 2.356 . S
O223 C221 1.282 . S
C224 O225 1.306 . S
C224 O227 1.160 . S
O225 C224 1.306 . S
O225 Cd226 2.228 . S
Cd226 O225 2.228 . S
Cd226 O230 2.273 . S
Cd226 O234 2.277 1_545 S
O227 C224 1.160 . S
O227 Cd228 2.203 . S
Cd228 O227 2.203 . S
Cd228 O230 2.411 . S
Cd228 O231 2.333 . S
Cd228 O232 2.352 . S
Cd228 O236 2.277 1_545 S
Cd228 O237 2.356 . S
C229 O234 1.209 . S
C229 O236 1.226 . S
O230 Cd226 2.273 . S
O230 Cd228 2.411 . S
O230 C233 1.320 . S
O231 Cd228 2.333 . S
O231 C233 1.214 . S
O232 Cd228 2.352 . S
O232 C235 1.258 . S
C233 O230 1.320 . S
C233 O231 1.214 . S
O234 Cd226 2.277 1_565 S
O234 C229 1.209 . S
C235 O232 1.258 . S
C235 O237 1.282 . S
O236 Cd228 2.277 1_565 S
O236 C229 1.226 . S
O237 Cd228 2.356 . S
O237 C235 1.282 . S
C238 O239 1.306 . S
C238 O241 1.160 . S
O239 C238 1.306 . S
O239 Cd240 2.228 . S
Cd240 O239 2.228 . S
Cd240 O244 2.273 . S
Cd240 O248 2.277 . S
O241 C238 1.160 . S
O241 Cd242 2.203 . S
Cd242 O241 2.203 . S
Cd242 O244 2.411 . S
Cd242 O245 2.333 . S
Cd242 O246 2.352 . S
Cd242 O250 2.277 . S
Cd242 O251 2.356 . S
C243 O248 1.209 . S
C243 O250 1.226 . S
O244 Cd240 2.273 . S
O244 Cd242 2.411 . S
O244 C247 1.320 . S
O245 Cd242 2.333 . S
O245 C247 1.214 . S
O246 Cd242 2.352 . S
O246 C249 1.258 . S
C247 O244 1.320 . S
C247 O245 1.214 . S
O248 Cd240 2.277 . S
O248 C243 1.209 . S
C249 O246 1.258 . S
C249 O251 1.282 . S
O250 Cd242 2.277 . S
O250 C243 1.226 . S
O251 Cd242 2.356 . S
O251 C249 1.282 . S
C252 O253 1.306 . S
C252 O255 1.160 . S
O253 C252 1.306 . S
O253 Cd254 2.228 . S
Cd254 O253 2.228 . S
Cd254 O258 2.273 . S
Cd254 O262 2.277 . S
O255 C252 1.160 . S
O255 Cd256 2.203 . S
Cd256 O255 2.203 . S
Cd256 O258 2.411 . S
Cd256 O259 2.333 . S
Cd256 O260 2.352 . S
Cd256 O264 2.277 . S
Cd256 O265 2.356 . S
C257 O262 1.209 . S
C257 O264 1.226 . S
O258 Cd254 2.273 . S
O258 Cd256 2.411 . S
O258 C261 1.320 . S
O259 Cd256 2.333 . S
O259 C261 1.214 . S
O260 Cd256 2.352 . S
O260 C263 1.258 . S
C261 O258 1.320 . S
C261 O259 1.214 . S
O262 Cd254 2.277 . S
O262 C257 1.209 . S
C263 O260 1.258 . S
C263 O265 1.282 . S
O264 Cd256 2.277 . S
O264 C257 1.226 . S
O265 Cd256 2.356 . S
O265 C263 1.282 . S
C266 O267 1.306 . S
C266 O269 1.166 . S
O267 C266 1.306 . S
O267 Cd268 2.228 . S
Cd268 O267 2.228 . S
Cd268 O272 2.273 1_545 S
Cd268 O276 2.277 . S
O269 C266 1.166 . S
O269 Cd270 2.203 1_545 S
Cd270 O269 2.203 1_565 S
Cd270 O272 2.411 . S
Cd270 O273 2.333 . S
Cd270 O274 2.352 . S
Cd270 O278 2.277 1_565 S
Cd270 O279 2.356 . S
C271 O276 1.209 . S
C271 O278 1.226 . S
O272 Cd268 2.273 1_565 S
O272 Cd270 2.411 . S
O272 C275 1.320 . S
O273 Cd270 2.333 . S
O273 C275 1.214 . S
O274 Cd270 2.352 . S
O274 C277 1.258 . S
C275 O272 1.320 . S
C275 O273 1.214 . S
O276 Cd268 2.277 . S
O276 C271 1.209 . S
C277 O274 1.258 . S
C277 O279 1.282 . S
O278 Cd270 2.277 1_545 S
O278 C271 1.226 . S
O279 Cd270 2.356 . S
O279 C277 1.282 . S
C280 O281 1.306 . S
C280 O283 1.160 . S
O281 C280 1.306 . S
O281 Cd282 2.228 . S
Cd282 O281 2.228 . S
Cd282 O286 2.273 . S
Cd282 O290 2.277 . S
O283 C280 1.160 . S
O283 Cd284 2.203 . S
Cd284 O283 2.203 . S
Cd284 O286 2.411 . S
Cd284 O287 2.333 . S
Cd284 O288 2.352 1_554 S
Cd284 O292 2.277 . S
Cd284 O293 2.356 1_554 S
C285 O290 1.209 . S
C285 O292 1.226 . S
O286 Cd282 2.273 . S
O286 Cd284 2.411 . S
O286 C289 1.320 . S
O287 Cd284 2.333 . S
O287 C289 1.214 . S
O288 Cd284 2.352 1_556 S
O288 C291 1.258 . S
C289 O286 1.320 . S
C289 O287 1.214 . S
O290 Cd282 2.277 . S
O290 C285 1.209 . S
C291 O288 1.258 . S
C291 O293 1.282 . S
O292 Cd284 2.277 . S
O292 C285 1.226 . S
O293 Cd284 2.356 1_556 S
O293 C291 1.282 . S
C294 O295 1.306 . S
C294 O297 1.160 1_455 S
O295 C294 1.306 . S
O295 Cd296 2.228 . S
Cd296 O295 2.228 . S
Cd296 O300 2.273 . S
Cd296 O304 2.277 1_455 S
O297 C294 1.160 1_655 S
O297 Cd298 2.203 . S
Cd298 O297 2.203 . S
Cd298 O300 2.411 1_655 S
Cd298 O301 2.333 . S
Cd298 O302 2.352 . S
Cd298 O306 2.277 . S
Cd298 O307 2.356 . S
C299 O304 1.209 . S
C299 O306 1.226 . S
O300 Cd296 2.273 . S
O300 Cd298 2.411 1_455 S
O300 C303 1.320 1_455 S
O301 Cd298 2.333 . S
O301 C303 1.214 . S
O302 Cd298 2.352 . S
O302 C305 1.258 . S
C303 O300 1.320 1_655 S
C303 O301 1.214 . S
O304 Cd296 2.277 1_655 S
O304 C299 1.209 . S
C305 O302 1.258 . S
C305 O307 1.282 . S
O306 Cd298 2.277 . S
O306 C299 1.226 . S
O307 Cd298 2.356 . S
O307 C305 1.282 . S
C308 O309 1.306 . S
C308 O311 1.160 . S
O309 C308 1.306 . S
O309 Cd310 2.228 . S
Cd310 O309 2.228 . S
Cd310 O314 2.273 . S
Cd310 O318 2.277 . S
O311 C308 1.160 . S
O311 Cd312 2.203 . S
Cd312 O311 2.203 . S
Cd312 O314 2.411 . S
Cd312 O315 2.333 . S
Cd312 O316 2.352 . S
Cd312 O320 2.277 . S
Cd312 O321 2.356 . S
C313 O318 1.209 . S
C313 O320 1.226 . S
O314 Cd310 2.273 . S
O314 Cd312 2.411 . S
O314 C317 1.320 . S
O315 Cd312 2.333 . S
O315 C317 1.214 . S
O316 Cd312 2.352 . S
O316 C319 1.258 . S
C317 O314 1.320 . S
C317 O315 1.214 . S
O318 Cd310 2.277 . S
O318 C313 1.209 . S
C319 O316 1.258 . S
C319 O321 1.282 . S
O320 Cd312 2.277 . S
O320 C313 1.226 . S
O321 Cd312 2.356 . S
O321 C319 1.282 . S
C322 O323 1.306 . S
C322 O325 1.160 . S
O323 C322 1.306 . S
O323 Cd324 2.228 . S
Cd324 O323 2.228 . S
Cd324 O328 2.273 . S
Cd324 O332 2.277 . S
O325 C322 1.160 . S
O325 Cd326 2.203 . S
Cd326 O325 2.203 . S
Cd326 O328 2.411 . S
Cd326 O329 2.333 . S
Cd326 O330 2.352 . S
Cd326 O334 2.277 . S
Cd326 O335 2.356 . S
C327 O332 1.209 . S
C327 O334 1.226 . S
O328 Cd324 2.273 . S
O328 Cd326 2.411 . S
O328 C331 1.320 . S
O329 Cd326 2.333 . S
O329 C331 1.214 . S
O330 Cd326 2.352 . S
O330 C333 1.258 . S
C331 O328 1.320 . S
C331 O329 1.214 . S
O332 Cd324 2.277 . S
O332 C327 1.209 . S
C333 O330 1.258 . S
C333 O335 1.282 . S
O334 Cd326 2.277 . S
O334 C327 1.226 . S
O335 Cd326 2.356 . S
O335 C333 1.282 . S
Pr336 C338 2.879 1_454 S
Pr336 O356 2.563 1_455 S
Pr336 O357 2.487 1_454 S
Pr336 O358 2.694 . S
Pr336 O359 2.508 1_554 S
Pr336 O361 2.436 . S
Pr336 O364 2.440 . S
Pr336 O366 2.440 . S
Pr337 C347 2.880 . S
Pr337 O358 2.436 . S
Pr337 O360 2.438 . S
Pr337 O362 2.562 . S
Pr337 O363 2.490 . S
Pr337 O364 2.695 . S
Pr337 O365 2.512 . S
Pr337 O367 2.437 . S
C338 Pr336 2.879 1_656 S
C338 C339 1.491 . S
C338 O356 1.254 1_556 S
C338 O357 1.225 . S
C339 C338 1.491 . S
C339 C340 1.392 . S
C339 C344 1.356 . S
C340 C339 1.392 . S
C340 C341 1.368 . S
C340 H368 0.929 . S
C341 C340 1.368 . S
C341 C342 1.386 . S
C341 H369 0.929 . S
C342 C341 1.386 . S
C342 C343 1.373 . S
C343 C342 1.373 . S
C343 C344 1.409 . S
C343 H370 0.931 . S
C344 C339 1.356 . S
C344 C343 1.409 . S
C344 H371 0.930 1_556 S
C345 O358 1.270 1_556 S
C345 O359 1.248 . S
C346 O360 1.267 . S
C346 O361 1.278 . S
C347 Pr337 2.880 . S
C347 C348 1.491 . S
C347 O362 1.254 . S
C347 O363 1.225 . S
C348 C347 1.491 . S
C348 C349 1.392 . S
C348 C353 1.356 . S
C349 C348 1.392 . S
C349 C350 1.368 . S
C349 H372 0.929 . S
C350 C349 1.368 . S
C350 C351 1.386 . S
C350 H373 0.929 . S
C351 C350 1.386 . S
C351 C352 1.373 . S
C352 C351 1.373 . S
C352 C353 1.409 . S
C352 H374 0.931 . S
C353 C348 1.356 . S
C353 C352 1.409 . S
C353 H375 0.930 . S
C354 O364 1.270 . S
C354 O365 1.248 . S
C355 O366 1.267 . S
C355 O367 1.278 . S
O356 Pr336 2.563 1_655 S
O356 C338 1.254 1_554 S
O357 Pr336 2.487 1_656 S
O357 C338 1.225 . S
O358 Pr336 2.694 . S
O358 Pr337 2.436 . S
O358 C345 1.270 1_554 S
O359 Pr336 2.508 1_556 S
O359 C345 1.248 . S
O360 Pr337 2.438 . S
O360 C346 1.267 . S
O361 Pr336 2.436 . S
O361 C346 1.278 . S
O362 Pr337 2.562 . S
O362 C347 1.254 . S
O363 Pr337 2.490 . S
O363 C347 1.225 . S
O364 Pr336 2.440 . S
O364 Pr337 2.695 . S
O364 C354 1.270 . S
O365 Pr337 2.512 . S
O365 C354 1.248 . S
O366 Pr336 2.440 . S
O366 C355 1.267 . S
O367 Pr337 2.437 . S
O367 C355 1.278 . S
H368 C340 0.929 . S
H369 C341 0.929 . S
H370 C343 0.931 . S
H371 C344 0.930 1_554 S
H372 C349 0.929 . S
H373 C350 0.929 . S
H374 C352 0.931 . S
H375 C353 0.930 . S
Pr376 C378 2.880 . S
Pr376 O396 2.562 . S
Pr376 O397 2.490 . S
Pr376 O398 2.695 . S
Pr376 O399 2.512 . S
Pr376 O401 2.437 . S
Pr376 O404 2.436 . S
Pr376 O406 2.438 . S
Pr377 C387 2.880 . S
Pr377 O398 2.436 . S
Pr377 O400 2.438 . S
Pr377 O402 2.562 . S
Pr377 O403 2.490 . S
Pr377 O404 2.695 . S
Pr377 O405 2.512 . S
Pr377 O407 2.437 . S
C378 Pr376 2.880 . S
C378 C379 1.491 . S
C378 O396 1.254 . S
C378 O397 1.225 . S
C379 C378 1.491 . S
C379 C380 1.392 1_565 S
C379 C384 1.356 . S
C380 C379 1.392 1_545 S
C380 C381 1.368 . S
C380 H408 0.929 . S
C381 C380 1.368 . S
C381 C382 1.386 . S
C381 H409 0.929 . S
C382 C381 1.386 . S
C382 C383 1.373 . S
C383 C382 1.373 . S
C383 C384 1.409 1_545 S
C383 H410 0.931 . S
C384 C379 1.356 . S
C384 C383 1.409 1_565 S
C384 H411 0.930 . S
C385 O398 1.270 . S
C385 O399 1.248 . S
C386 O400 1.267 . S
C386 O401 1.278 . S
C387 Pr377 2.880 . S
C387 C388 1.491 . S
C387 O402 1.254 . S
C387 O403 1.225 . S
C388 C387 1.491 . S
C388 C389 1.392 . S
C388 C393 1.356 . S
C389 C388 1.392 . S
C389 C390 1.368 . S
C389 H412 0.929 . S
C390 C389 1.368 . S
C390 C391 1.386 . S
C390 H413 0.929 . S
C391 C390 1.386 . S
C391 C392 1.373 . S
C392 C391 1.373 . S
C392 C393 1.409 . S
C392 H414 0.931 . S
C393 C388 1.356 . S
C393 C392 1.409 . S
C393 H415 0.930 . S
C394 O404 1.270 . S
C394 O405 1.248 . S
C395 O406 1.267 . S
C395 O407 1.278 . S
O396 Pr376 2.562 . S
O396 C378 1.254 . S
O397 Pr376 2.490 . S
O397 C378 1.225 . S
O398 Pr376 2.695 . S
O398 Pr377 2.436 . S
O398 C385 1.270 . S
O399 Pr376 2.512 . S
O399 C385 1.248 . S
O400 Pr377 2.438 . S
O400 C386 1.267 . S
O401 Pr376 2.437 . S
O401 C386 1.278 . S
O402 Pr377 2.562 . S
O402 C387 1.254 . S
O403 Pr377 2.490 . S
O403 C387 1.225 . S
O404 Pr376 2.436 . S
O404 Pr377 2.695 . S
O404 C394 1.270 . S
O405 Pr377 2.512 . S
O405 C394 1.248 . S
O406 Pr376 2.438 . S
O406 C395 1.267 . S
O407 Pr377 2.437 . S
O407 C395 1.278 . S
H408 C380 0.929 . S
H409 C381 0.929 . S
H410 C383 0.931 . S
H411 C384 0.930 . S
H412 C389 0.929 . S
H413 C390 0.929 . S
H414 C392 0.931 . S
H415 C393 0.930 . S
Pr416 C418 2.880 . S
Pr416 O436 2.562 . S
Pr416 O437 2.490 . S
Pr416 O438 2.695 . S
Pr416 O439 2.512 . S
Pr416 O441 2.437 . S
Pr416 O444 2.436 . S
Pr416 O446 2.438 . S
Pr417 C427 2.880 . S
Pr417 O438 2.436 . S
Pr417 O440 2.438 . S
Pr417 O442 2.562 . S
Pr417 O443 2.490 . S
Pr417 O444 2.695 . S
Pr417 O445 2.512 . S
Pr417 O447 2.437 . S
C418 Pr416 2.880 . S
C418 C419 1.491 . S
C418 O436 1.254 . S
C418 O437 1.225 . S
C419 C418 1.491 . S
C419 C420 1.392 . S
C419 C424 1.356 . S
C420 C419 1.392 . S
C420 C421 1.368 . S
C420 H448 0.929 . S
C421 C420 1.368 . S
C421 C422 1.386 . S
C421 H449 0.929 . S
C422 C421 1.386 . S
C422 C423 1.373 . S
C423 C422 1.373 . S
C423 C424 1.409 . S
C423 H450 0.931 1_545 S
C424 C419 1.356 . S
C424 C423 1.409 . S
C424 H451 0.930 . S
C425 O438 1.270 . S
C425 O439 1.248 . S
C426 O440 1.267 . S
C426 O441 1.278 . S
C427 Pr417 2.880 . S
C427 C428 1.491 . S
C427 O442 1.254 . S
C427 O443 1.225 . S
C428 C427 1.491 . S
C428 C429 1.392 . S
C428 C433 1.356 . S
C429 C428 1.392 . S
C429 C430 1.368 . S
C429 H452 0.929 . S
C430 C429 1.368 . S
C430 C431 1.386 . S
C430 H453 0.929 . S
C431 C430 1.386 . S
C431 C432 1.373 . S
C432 C431 1.373 . S
C432 C433 1.409 . S
C432 H454 0.931 . S
C433 C428 1.356 . S
C433 C432 1.409 . S
C433 H455 0.930 . S
C434 O444 1.270 . S
C434 O445 1.248 . S
C435 O446 1.267 . S
C435 O447 1.278 . S
O436 Pr416 2.562 . S
O436 C418 1.254 . S
O437 Pr416 2.490 . S
O437 C418 1.225 . S
O438 Pr416 2.695 . S
O438 Pr417 2.436 . S
O438 C425 1.270 . S
O439 Pr416 2.512 . S
O439 C425 1.248 . S
O440 Pr417 2.438 . S
O440 C426 1.267 . S
O441 Pr416 2.437 . S
O441 C426 1.278 . S
O442 Pr417 2.562 . S
O442 C427 1.254 . S
O443 Pr417 2.490 . S
O443 C427 1.225 . S
O444 Pr416 2.436 . S
O444 Pr417 2.695 . S
O444 C434 1.270 . S
O445 Pr417 2.512 . S
O445 C434 1.248 . S
O446 Pr416 2.438 . S
O446 C435 1.267 . S
O447 Pr417 2.437 . S
O447 C435 1.278 . S
H448 C420 0.929 . S
H449 C421 0.929 . S
H450 C423 0.931 1_565 S
H451 C424 0.930 . S
H452 C429 0.929 . S
H453 C430 0.929 . S
H454 C432 0.931 . S
H455 C433 0.930 . S
Pr456 C458 2.880 . S
Pr456 O476 2.562 . S
Pr456 O477 2.490 . S
Pr456 O478 2.695 . S
Pr456 O479 2.512 . S
Pr456 O481 2.437 . S
Pr456 O484 2.436 . S
Pr456 O486 2.438 . S
Pr457 C467 2.880 . S
Pr457 O478 2.436 . S
Pr457 O480 2.438 . S
Pr457 O482 2.562 . S
Pr457 O483 2.490 . S
Pr457 O484 2.695 . S
Pr457 O485 2.512 . S
Pr457 O487 2.437 . S
C458 Pr456 2.880 . S
C458 C459 1.491 . S
C458 O476 1.254 . S
C458 O477 1.225 . S
C459 C458 1.491 . S
C459 C460 1.392 . S
C459 C464 1.356 . S
C460 C459 1.392 . S
C460 C461 1.368 . S
C460 H488 0.929 . S
C461 C460 1.368 . S
C461 C462 1.386 . S
C461 H489 0.929 . S
C462 C461 1.386 . S
C462 C463 1.373 . S
C463 C462 1.373 . S
C463 C464 1.409 . S
C463 H490 0.931 . S
C464 C459 1.356 . S
C464 C463 1.409 . S
C464 H491 0.930 . S
C465 O478 1.270 . S
C465 O479 1.248 . S
C466 O480 1.267 . S
C466 O481 1.278 . S
C467 Pr457 2.880 . S
C467 C468 1.491 . S
C467 O482 1.254 . S
C467 O483 1.225 . S
C468 C467 1.491 . S
C468 C469 1.392 . S
C468 C473 1.356 . S
C469 C468 1.392 . S
C469 C470 1.368 . S
C469 H492 0.929 . S
C470 C469 1.368 . S
C470 C471 1.386 . S
C470 H493 0.929 . S
C471 C470 1.386 . S
C471 C472 1.373 . S
C472 C471 1.373 . S
C472 C473 1.409 . S
C472 H494 0.931 . S
C473 C468 1.356 . S
C473 C472 1.409 . S
C473 H495 0.930 . S
C474 O484 1.270 . S
C474 O485 1.248 . S
C475 O486 1.267 . S
C475 O487 1.278 . S
O476 Pr456 2.562 . S
O476 C458 1.254 . S
O477 Pr456 2.490 . S
O477 C458 1.225 . S
O478 Pr456 2.695 . S
O478 Pr457 2.436 . S
O478 C465 1.270 . S
O479 Pr456 2.512 . S
O479 C465 1.248 . S
O480 Pr457 2.438 . S
O480 C466 1.267 . S
O481 Pr456 2.437 . S
O481 C466 1.278 . S
O482 Pr457 2.562 . S
O482 C467 1.254 . S
O483 Pr457 2.490 . S
O483 C467 1.225 . S
O484 Pr456 2.436 . S
O484 Pr457 2.695 . S
O484 C474 1.270 . S
O485 Pr457 2.512 . S
O485 C474 1.248 . S
O486 Pr456 2.438 . S
O486 C475 1.267 . S
O487 Pr457 2.437 . S
O487 C475 1.278 . S
H488 C460 0.929 . S
H489 C461 0.929 . S
H490 C463 0.931 . S
H491 C464 0.930 . S
H492 C469 0.929 . S
H493 C470 0.929 . S
H494 C472 0.931 . S
H495 C473 0.930 . S
Pr496 C498 2.880 . S
Pr496 O516 2.562 . S
Pr496 O517 2.490 . S
Pr496 O518 2.695 . S
Pr496 O519 2.512 . S
Pr496 O521 2.437 . S
Pr496 O524 2.436 . S
Pr496 O526 2.438 . S
Pr497 C507 2.880 . S
Pr497 O518 2.436 . S
Pr497 O520 2.438 . S
Pr497 O522 2.562 . S
Pr497 O523 2.490 . S
Pr497 O524 2.695 . S
Pr497 O525 2.512 . S
Pr497 O527 2.437 . S
C498 Pr496 2.880 . S
C498 C499 1.491 . S
C498 O516 1.254 . S
C498 O517 1.225 . S
C499 C498 1.491 . S
C499 C500 1.392 . S
C499 C504 1.356 1_455 S
C500 C499 1.392 . S
C500 C501 1.368 . S
C500 H528 0.929 . S
C501 C500 1.368 . S
C501 C502 1.386 1_455 S
C501 H529 0.929 . S
C502 C501 1.386 1_655 S
C502 C503 1.373 . S
C503 C502 1.373 . S
C503 C504 1.409 . S
C503 H530 0.931 . S
C504 C499 1.356 1_655 S
C504 C503 1.409 . S
C504 H531 0.930 . S
C505 O518 1.270 . S
C505 O519 1.248 . S
C506 O520 1.267 . S
C506 O521 1.278 . S
C507 Pr497 2.880 . S
C507 C508 1.491 . S
C507 O522 1.254 . S
C507 O523 1.225 . S
C508 C507 1.491 . S
C508 C509 1.392 . S
C508 C513 1.356 . S
C509 C508 1.392 . S
C509 C510 1.368 . S
C509 H532 0.929 . S
C510 C509 1.368 . S
C510 C511 1.386 . S
C510 H533 0.929 . S
C511 C510 1.386 . S
C511 C512 1.373 . S
C512 C511 1.373 . S
C512 C513 1.409 . S
C512 H534 0.931 . S
C513 C508 1.356 . S
C513 C512 1.409 . S
C513 H535 0.930 . S
C514 O524 1.270 . S
C514 O525 1.248 . S
C515 O526 1.267 . S
C515 O527 1.278 . S
O516 Pr496 2.562 . S
O516 C498 1.254 . S
O517 Pr496 2.490 . S
O517 C498 1.225 . S
O518 Pr496 2.695 . S
O518 Pr497 2.436 . S
O518 C505 1.270 . S
O519 Pr496 2.512 . S
O519 C505 1.248 . S
O520 Pr497 2.438 . S
O520 C506 1.267 . S
O521 Pr496 2.437 . S
O521 C506 1.278 . S
O522 Pr497 2.562 . S
O522 C507 1.254 . S
O523 Pr497 2.490 . S
O523 C507 1.225 . S
O524 Pr496 2.436 . S
O524 Pr497 2.695 . S
O524 C514 1.270 . S
O525 Pr497 2.512 . S
O525 C514 1.248 . S
O526 Pr496 2.438 . S
O526 C515 1.267 . S
O527 Pr497 2.437 . S
O527 C515 1.278 . S
H528 C500 0.929 . S
H529 C501 0.929 . S
H530 C503 0.931 . S
H531 C504 0.930 . S
H532 C509 0.929 . S
H533 C510 0.929 . S
H534 C512 0.931 . S
H535 C513 0.930 . S
Pr536 C538 2.880 . S
Pr536 O556 2.562 . S
Pr536 O557 2.490 . S
Pr536 O558 2.695 . S
Pr536 O559 2.512 . S
Pr536 O561 2.437 . S
Pr536 O564 2.436 . S
Pr536 O566 2.438 . S
Pr537 C547 2.880 . S
Pr537 O558 2.436 . S
Pr537 O560 2.438 . S
Pr537 O562 2.562 . S
Pr537 O563 2.490 . S
Pr537 O564 2.695 . S
Pr537 O565 2.512 . S
Pr537 O567 2.437 . S
C538 Pr536 2.880 . S
C538 C539 1.491 . S
C538 O556 1.254 . S
C538 O557 1.225 . S
C539 C538 1.491 . S
C539 C540 1.392 . S
C539 C544 1.356 . S
C540 C539 1.392 . S
C540 C541 1.368 . S
C540 H568 0.929 . S
C541 C540 1.368 . S
C541 C542 1.386 . S
C541 H569 0.929 . S
C542 C541 1.386 . S
C542 C543 1.373 . S
C543 C542 1.373 . S
C543 C544 1.409 . S
C543 H570 0.931 . S
C544 C539 1.356 . S
C544 C543 1.409 . S
C544 H571 0.930 . S
C545 O558 1.270 . S
C545 O559 1.248 . S
C546 O560 1.267 . S
C546 O561 1.278 . S
C547 Pr537 2.880 . S
C547 C548 1.491 . S
C547 O562 1.254 . S
C547 O563 1.225 . S
C548 C547 1.491 . S
C548 C549 1.392 . S
C548 C553 1.356 . S
C549 C548 1.392 . S
C549 C550 1.368 1_565 S
C549 H572 0.929 . S
C550 C549 1.368 1_545 S
C550 C551 1.386 . S
C550 H573 0.929 . S
C551 C550 1.386 . S
C551 C552 1.373 . S
C552 C551 1.373 . S
C552 C553 1.409 1_545 S
C552 H574 0.931 . S
C553 C548 1.356 . S
C553 C552 1.409 1_565 S
C553 H575 0.930 . S
C554 O564 1.270 . S
C554 O565 1.248 . S
C555 O566 1.267 . S
C555 O567 1.278 . S
O556 Pr536 2.562 . S
O556 C538 1.254 . S
O557 Pr536 2.490 . S
O557 C538 1.225 . S
O558 Pr536 2.695 . S
O558 Pr537 2.436 . S
O558 C545 1.270 . S
O559 Pr536 2.512 . S
O559 C545 1.248 . S
O560 Pr537 2.438 . S
O560 C546 1.267 . S
O561 Pr536 2.437 . S
O561 C546 1.278 . S
O562 Pr537 2.562 . S
O562 C547 1.254 . S
O563 Pr537 2.490 . S
O563 C547 1.225 . S
O564 Pr536 2.436 . S
O564 Pr537 2.695 . S
O564 C554 1.270 . S
O565 Pr537 2.512 . S
O565 C554 1.248 . S
O566 Pr536 2.438 . S
O566 C555 1.267 . S
O567 Pr537 2.437 . S
O567 C555 1.278 . S
H568 C540 0.929 . S
H569 C541 0.929 . S
H570 C543 0.931 . S
H571 C544 0.930 . S
H572 C549 0.929 . S
H573 C550 0.929 . S
H574 C552 0.931 . S
H575 C553 0.930 . S
Pr576 C578 2.880 . S
Pr576 O596 2.562 . S
Pr576 O597 2.490 . S
Pr576 O598 2.695 . S
Pr576 O599 2.512 . S
Pr576 O601 2.437 . S
Pr576 O604 2.436 . S
Pr576 O606 2.438 . S
Pr577 C587 2.880 . S
Pr577 O598 2.436 1_556 S
Pr577 O600 2.438 1_556 S
Pr577 O602 2.562 . S
Pr577 O603 2.490 . S
Pr577 O604 2.695 1_556 S
Pr577 O605 2.512 1_556 S
Pr577 O607 2.435 1_556 S
C578 Pr576 2.880 . S
C578 C579 1.491 . S
C578 O596 1.254 . S
C578 O597 1.225 . S
C579 C578 1.491 . S
C579 C580 1.392 . S
C579 C584 1.356 . S
C580 C579 1.392 . S
C580 C581 1.368 . S
C580 H608 0.929 . S
C581 C580 1.368 . S
C581 C582 1.386 . S
C581 H609 0.929 . S
C582 C581 1.386 . S
C582 C583 1.373 . S
C583 C582 1.373 . S
C583 C584 1.409 . S
C583 H610 0.931 . S
C584 C579 1.356 . S
C584 C583 1.409 . S
C584 H611 0.930 . S
C585 O598 1.270 . S
C585 O599 1.248 . S
C586 O600 1.267 . S
C586 O601 1.278 . S
C587 Pr577 2.880 . S
C587 C588 1.491 . S
C587 O602 1.254 . S
C587 O603 1.225 . S
C588 C587 1.491 . S
C588 C589 1.392 . S
C588 C593 1.356 . S
C589 C588 1.392 . S
C589 C590 1.368 . S
C589 H612 0.929 . S
C590 C589 1.368 . S
C590 C591 1.386 . S
C590 H613 0.929 . S
C591 C590 1.386 . S
C591 C592 1.373 . S
C592 C591 1.373 . S
C592 C593 1.409 . S
C592 H614 0.931 . S
C593 C588 1.356 . S
C593 C592 1.409 . S
C593 H615 0.930 . S
C594 O604 1.270 . S
C594 O605 1.248 . S
C595 O606 1.267 . S
C595 O607 1.290 . S
O596 Pr576 2.562 . S
O596 C578 1.254 . S
O597 Pr576 2.490 . S
O597 C578 1.225 . S
O598 Pr576 2.695 . S
O598 Pr577 2.436 1_554 S
O598 C585 1.270 . S
O599 Pr576 2.512 . S
O599 C585 1.248 . S
O600 Pr577 2.438 1_554 S
O600 C586 1.267 . S
O601 Pr576 2.437 . S
O601 C586 1.278 . S
O602 Pr577 2.562 . S
O602 C587 1.254 . S
O603 Pr577 2.490 . S
O603 C587 1.225 . S
O604 Pr576 2.436 . S
O604 Pr577 2.695 1_554 S
O604 C594 1.270 . S
O605 Pr577 2.512 1_554 S
O605 C594 1.248 . S
O606 Pr576 2.438 . S
O606 C595 1.267 . S
O607 Pr577 2.435 1_554 S
O607 C595 1.290 . S
H608 C580 0.929 . S
H609 C581 0.929 . S
H610 C583 0.931 . S
H611 C584 0.930 . S
H612 C589 0.929 . S
H613 C590 0.929 . S
H614 C592 0.931 . S
H615 C593 0.930 . S
Pr616 C618 2.880 . S
Pr616 O636 2.562 . S
Pr616 O637 2.490 . S
Pr616 O638 2.695 . S
Pr616 O639 2.512 . S
Pr616 O641 2.437 . S
Pr616 O644 2.436 . S
Pr616 O646 2.438 . S
Pr617 C627 2.880 . S
Pr617 O638 2.436 . S
Pr617 O640 2.438 . S
Pr617 O642 2.562 . S
Pr617 O643 2.490 . S
Pr617 O644 2.695 . S
Pr617 O645 2.512 . S
Pr617 O647 2.437 . S
C618 Pr616 2.880 . S
C618 C619 1.491 . S
C618 O636 1.254 . S
C618 O637 1.225 . S
C619 C618 1.491 . S
C619 C620 1.392 . S
C619 C624 1.356 . S
C620 C619 1.392 . S
C620 C621 1.368 . S
C620 H648 0.929 . S
C621 C620 1.368 . S
C621 C622 1.386 . S
C621 H649 0.929 . S
C622 C621 1.386 . S
C622 C623 1.373 . S
C623 C622 1.373 . S
C623 C624 1.409 . S
C623 H650 0.931 . S
C624 C619 1.356 . S
C624 C623 1.409 . S
C624 H651 0.930 . S
C625 O638 1.270 . S
C625 O639 1.248 . S
C626 O640 1.267 . S
C626 O641 1.278 . S
C627 Pr617 2.880 . S
C627 C628 1.491 . S
C627 O642 1.254 . S
C627 O643 1.225 . S
C628 C627 1.491 . S
C628 C629 1.392 . S
C628 C633 1.356 . S
C629 C628 1.392 . S
C629 C630 1.368 . S
C629 H652 0.929 . S
C630 C629 1.368 . S
C630 C631 1.386 . S
C630 H653 0.929 . S
C631 C630 1.386 . S
C631 C632 1.373 . S
C632 C631 1.373 . S
C632 C633 1.409 . S
C632 H654 0.931 . S
C633 C628 1.356 . S
C633 C632 1.409 . S
C633 H655 0.930 . S
C634 O644 1.270 . S
C634 O645 1.248 . S
C635 O646 1.267 . S
C635 O647 1.278 . S
O636 Pr616 2.562 . S
O636 C618 1.254 . S
O637 Pr616 2.490 . S
O637 C618 1.225 . S
O638 Pr616 2.695 . S
O638 Pr617 2.436 . S
O638 C625 1.270 . S
O639 Pr616 2.512 . S
O639 C625 1.248 . S
O640 Pr617 2.438 . S
O640 C626 1.267 . S
O641 Pr616 2.437 . S
O641 C626 1.278 . S
O642 Pr617 2.562 . S
O642 C627 1.254 . S
O643 Pr617 2.490 . S
O643 C627 1.225 . S
O644 Pr616 2.436 . S
O644 Pr617 2.695 . S
O644 C634 1.270 . S
O645 Pr617 2.512 . S
O645 C634 1.248 . S
O646 Pr616 2.438 . S
O646 C635 1.267 . S
O647 Pr617 2.437 . S
O647 C635 1.278 . S
H648 C620 0.929 . S
H649 C621 0.929 . S
H650 C623 0.931 . S
H651 C624 0.930 . S
H652 C629 0.929 . S
H653 C630 0.929 . S
H654 C632 0.931 . S
H655 C633 0.930 . S
Pr656 C658 2.880 . S
Pr656 O676 2.562 . S
Pr656 O677 2.490 . S
Pr656 O678 2.695 1_556 S
Pr656 O679 2.512 . S
Pr656 O681 2.437 . S
Pr656 O684 2.436 1_556 S
Pr656 O686 2.438 1_556 S
Pr657 C667 2.880 . S
Pr657 O678 2.436 . S
Pr657 O680 2.438 . S
Pr657 O682 2.562 . S
Pr657 O683 2.490 . S
Pr657 O684 2.695 . S
Pr657 O685 2.512 . S
Pr657 O687 2.437 . S
C658 Pr656 2.880 . S
C658 C659 1.491 . S
C658 O676 1.254 . S
C658 O677 1.225 . S
C659 C658 1.491 . S
C659 C660 1.392 . S
C659 C664 1.356 . S
C660 C659 1.392 . S
C660 C661 1.368 . S
C660 H688 0.929 . S
C661 C660 1.368 . S
C661 C662 1.386 . S
C661 H689 0.929 . S
C662 C661 1.386 . S
C662 C663 1.373 . S
C663 C662 1.373 . S
C663 C664 1.409 . S
C663 H690 0.931 . S
C664 C659 1.356 . S
C664 C663 1.409 . S
C664 H691 0.930 . S
C665 O678 1.270 . S
C665 O679 1.248 1_554 S
C666 O680 1.271 1_556 S
C666 O681 1.275 . S
C667 Pr657 2.880 . S
C667 C668 1.491 . S
C667 O682 1.254 . S
C667 O683 1.225 . S
C668 C667 1.491 . S
C668 C669 1.392 . S
C668 C673 1.356 . S
C669 C668 1.392 . S
C669 C670 1.368 . S
C669 H692 0.929 . S
C670 C669 1.368 . S
C670 C671 1.386 . S
C670 H693 0.929 . S
C671 C670 1.386 . S
C671 C672 1.373 . S
C672 C671 1.373 . S
C672 C673 1.409 . S
C672 H694 0.931 . S
C673 C668 1.356 . S
C673 C672 1.409 . S
C673 H695 0.930 . S
C674 O684 1.270 . S
C674 O685 1.248 . S
C675 O686 1.267 . S
C675 O687 1.278 . S
O676 Pr656 2.562 . S
O676 C658 1.254 . S
O677 Pr656 2.490 . S
O677 C658 1.225 . S
O678 Pr656 2.695 1_554 S
O678 Pr657 2.436 . S
O678 C665 1.270 . S
O679 Pr656 2.512 . S
O679 C665 1.248 1_556 S
O680 Pr657 2.438 . S
O680 C666 1.271 1_554 S
O681 Pr656 2.437 . S
O681 C666 1.275 . S
O682 Pr657 2.562 . S
O682 C667 1.254 . S
O683 Pr657 2.490 . S
O683 C667 1.225 . S
O684 Pr656 2.436 1_554 S
O684 Pr657 2.695 . S
O684 C674 1.270 . S
O685 Pr657 2.512 . S
O685 C674 1.248 . S
O686 Pr656 2.438 1_554 S
O686 C675 1.267 . S
O687 Pr657 2.437 . S
O687 C675 1.278 . S
H688 C660 0.929 . S
H689 C661 0.929 . S
H690 C663 0.931 . S
H691 C664 0.930 . S
H692 C669 0.929 . S
H693 C670 0.929 . S
H694 C672 0.931 . S
H695 C673 0.930 . S
Pr696 C698 2.880 . S
Pr696 O716 2.562 . S
Pr696 O717 2.490 . S
Pr696 O718 2.695 . S
Pr696 O719 2.512 . S
Pr696 O721 2.437 . S
Pr696 O724 2.436 . S
Pr696 O726 2.438 . S
Pr697 C707 2.880 . S
Pr697 O718 2.436 . S
Pr697 O720 2.438 . S
Pr697 O722 2.562 . S
Pr697 O723 2.490 . S
Pr697 O724 2.695 . S
Pr697 O725 2.512 . S
Pr697 O727 2.437 . S
C698 Pr696 2.880 . S
C698 C699 1.491 . S
C698 O716 1.254 . S
C698 O717 1.225 . S
C699 C698 1.491 . S
C699 C700 1.392 . S
C699 C704 1.356 . S
C700 C699 1.392 . S
C700 C701 1.368 . S
C700 H728 0.929 . S
C701 C700 1.368 . S
C701 C702 1.386 . S
C701 H729 0.929 . S
C702 C701 1.386 . S
C702 C703 1.373 . S
C703 C702 1.373 . S
C703 C704 1.409 . S
C703 H730 0.931 . S
C704 C699 1.356 . S
C704 C703 1.409 . S
C704 H731 0.930 . S
C705 O718 1.270 . S
C705 O719 1.248 . S
C706 O720 1.267 . S
C706 O721 1.278 . S
C707 Pr697 2.880 . S
C707 C708 1.491 . S
C707 O722 1.254 . S
C707 O723 1.225 . S
C708 C707 1.491 . S
C708 C709 1.392 . S
C708 C713 1.356 . S
C709 C708 1.392 . S
C709 C710 1.368 . S
C709 H732 0.929 . S
C710 C709 1.368 . S
C710 C711 1.386 . S
C710 H733 0.929 . S
C711 C710 1.386 . S
C711 C712 1.373 . S
C712 C711 1.373 . S
C712 C713 1.409 . S
C712 H734 0.931 . S
C713 C708 1.356 . S
C713 C712 1.409 . S
C713 H735 0.930 . S
C714 O724 1.270 . S
C714 O725 1.248 . S
C715 O726 1.267 . S
C715 O727 1.278 . S
O716 Pr696 2.562 . S
O716 C698 1.254 . S
O717 Pr696 2.490 . S
O717 C698 1.225 . S
O718 Pr696 2.695 . S
O718 Pr697 2.436 . S
O718 C705 1.270 . S
O719 Pr696 2.512 . S
O719 C705 1.248 . S
O720 Pr697 2.438 . S
O720 C706 1.267 . S
O721 Pr696 2.437 . S
O721 C706 1.278 . S
O722 Pr697 2.562 . S
O722 C707 1.254 . S
O723 Pr697 2.490 . S
O723 C707 1.225 . S
O724 Pr696 2.436 . S
O724 Pr697 2.695 . S
O724 C714 1.270 . S
O725 Pr697 2.512 . S
O725 C714 1.248 . S
O726 Pr696 2.438 . S
O726 C715 1.267 . S
O727 Pr697 2.437 . S
O727 C715 1.278 . S
H728 C700 0.929 . S
H729 C701 0.929 . S
H730 C703 0.931 . S
H731 C704 0.930 . S
H732 C709 0.929 . S
H733 C710 0.929 . S
H734 C712 0.931 . S
H735 C713 0.930 . S
Pr736 C738 2.880 . S
Pr736 O756 2.562 . S
Pr736 O757 2.490 . S
Pr736 O758 2.695 . S
Pr736 O759 2.512 . S
Pr736 O761 2.437 . S
Pr736 O764 2.436 . S
Pr736 O766 2.438 . S
Pr737 C747 2.880 . S
Pr737 O758 2.436 . S
Pr737 O760 2.438 . S
Pr737 O762 2.562 . S
Pr737 O763 2.490 . S
Pr737 O764 2.695 . S
Pr737 O765 2.512 . S
Pr737 O767 2.437 . S
C738 Pr736 2.880 . S
C738 C739 1.491 . S
C738 O756 1.254 . S
C738 O757 1.225 . S
C739 C738 1.491 . S
C739 C740 1.392 . S
C739 C744 1.356 . S
C740 C739 1.392 . S
C740 C741 1.368 . S
C740 H768 0.929 . S
C741 C740 1.368 . S
C741 C742 1.386 . S
C741 H769 0.929 . S
C742 C741 1.386 . S
C742 C743 1.373 . S
C743 C742 1.373 . S
C743 C744 1.409 . S
C743 H770 0.914 1_455 S
C744 C739 1.356 . S
C744 C743 1.409 . S
C744 H771 0.930 . S
C745 O758 1.270 . S
C745 O759 1.248 . S
C746 O760 1.267 . S
C746 O761 1.278 . S
C747 Pr737 2.880 . S
C747 C748 1.491 . S
C747 O762 1.254 . S
C747 O763 1.225 . S
C748 C747 1.491 . S
C748 C749 1.392 . S
C748 C753 1.356 . S
C749 C748 1.392 . S
C749 C750 1.368 . S
C749 H772 0.929 . S
C750 C749 1.368 . S
C750 C751 1.386 . S
C750 H773 0.929 . S
C751 C750 1.386 . S
C751 C752 1.373 . S
C752 C751 1.373 . S
C752 C753 1.409 . S
C752 H774 0.931 . S
C753 C748 1.356 . S
C753 C752 1.409 . S
C753 H775 0.930 . S
C754 O764 1.270 . S
C754 O765 1.248 . S
C755 O766 1.267 . S
C755 O767 1.278 . S
O756 Pr736 2.562 . S
O756 C738 1.254 . S
O757 Pr736 2.490 . S
O757 C738 1.225 . S
O758 Pr736 2.695 . S
O758 Pr737 2.436 . S
O758 C745 1.270 . S
O759 Pr736 2.512 . S
O759 C745 1.248 . S
O760 Pr737 2.438 . S
O760 C746 1.267 . S
O761 Pr736 2.437 . S
O761 C746 1.278 . S
O762 Pr737 2.562 . S
O762 C747 1.254 . S
O763 Pr737 2.490 . S
O763 C747 1.225 . S
O764 Pr736 2.436 . S
O764 Pr737 2.695 . S
O764 C754 1.270 . S
O765 Pr737 2.512 . S
O765 C754 1.248 . S
O766 Pr736 2.438 . S
O766 C755 1.267 . S
O767 Pr737 2.437 . S
O767 C755 1.278 . S
H768 C740 0.929 . S
H769 C741 0.929 . S
H770 C743 0.914 1_655 S
H771 C744 0.930 . S
H772 C749 0.929 . S
H773 C750 0.929 . S
H774 C752 0.931 . S
H775 C753 0.930 . S
Pr776 C778 2.880 . S
Pr776 O796 2.562 . S
Pr776 O797 2.490 . S
Pr776 O798 2.695 . S
Pr776 O799 2.512 . S
Pr776 O801 2.437 . S
Pr776 O804 2.436 . S
Pr776 O806 2.438 . S
Pr777 C787 2.880 . S
Pr777 O798 2.436 . S
Pr777 O800 2.438 . S
Pr777 O802 2.562 . S
Pr777 O803 2.490 . S
Pr777 O804 2.695 . S
Pr777 O805 2.512 . S
Pr777 O807 2.437 . S
C778 Pr776 2.880 . S
C778 C779 1.491 . S
C778 O796 1.254 . S
C778 O797 1.225 . S
C779 C778 1.491 . S
C779 C780 1.392 . S
C779 C784 1.356 . S
C780 C779 1.392 . S
C780 C781 1.368 . S
C780 H808 0.929 . S
C781 C780 1.368 . S
C781 C782 1.386 . S
C781 H809 0.929 . S
C782 C781 1.386 . S
C782 C783 1.373 . S
C783 C782 1.373 . S
C783 C784 1.409 . S
C783 H810 0.931 . S
C784 C779 1.356 . S
C784 C783 1.409 . S
C784 H811 0.930 . S
C785 O798 1.270 . S
C785 O799 1.248 . S
C786 O800 1.267 . S
C786 O801 1.278 . S
C787 Pr777 2.880 . S
C787 C788 1.491 . S
C787 O802 1.254 . S
C787 O803 1.225 . S
C788 C787 1.491 . S
C788 C789 1.392 . S
C788 C793 1.356 . S
C789 C788 1.392 . S
C789 C790 1.368 . S
C789 H812 0.929 . S
C790 C789 1.368 . S
C790 C791 1.386 . S
C790 H813 0.929 . S
C791 C790 1.386 . S
C791 C792 1.373 . S
C792 C791 1.373 . S
C792 C793 1.409 . S
C792 H814 0.931 . S
C793 C788 1.356 . S
C793 C792 1.409 . S
C793 H815 0.930 . S
C794 O804 1.270 . S
C794 O805 1.248 . S
C795 O806 1.267 . S
C795 O807 1.278 . S
O796 Pr776 2.562 . S
O796 C778 1.254 . S
O797 Pr776 2.490 . S
O797 C778 1.225 . S
O798 Pr776 2.695 . S
O798 Pr777 2.436 . S
O798 C785 1.270 . S
O799 Pr776 2.512 . S
O799 C785 1.248 . S
O800 Pr777 2.438 . S
O800 C786 1.267 . S
O801 Pr776 2.437 . S
O801 C786 1.278 . S
O802 Pr777 2.562 . S
O802 C787 1.254 . S
O803 Pr777 2.490 . S
O803 C787 1.225 . S
O804 Pr776 2.436 . S
O804 Pr777 2.695 . S
O804 C794 1.270 . S
O805 Pr777 2.512 . S
O805 C794 1.248 . S
O806 Pr776 2.438 . S
O806 C795 1.267 . S
O807 Pr777 2.437 . S
O807 C795 1.278 . S
H808 C780 0.929 . S
H809 C781 0.929 . S
H810 C783 0.931 . S
H811 C784 0.930 . S
H812 C789 0.929 . S
H813 C790 0.929 . S
H814 C792 0.931 . S
H815 C793 0.930 . S
Pr816 C818 2.880 . S
Pr816 O836 2.562 . S
Pr816 O837 2.490 . S
Pr816 O838 2.695 . S
Pr816 O839 2.512 . S
Pr816 O841 2.437 . S
Pr816 O844 2.436 . S
Pr816 O846 2.438 . S
Pr817 C827 2.880 . S
Pr817 O838 2.436 . S
Pr817 O840 2.438 . S
Pr817 O842 2.562 . S
Pr817 O843 2.490 . S
Pr817 O844 2.695 . S
Pr817 O845 2.512 . S
Pr817 O847 2.437 . S
C818 Pr816 2.880 . S
C818 C819 1.491 . S
C818 O836 1.254 . S
C818 O837 1.225 . S
C819 C818 1.491 . S
C819 C820 1.392 . S
C819 C824 1.356 . S
C820 C819 1.392 . S
C820 C821 1.368 . S
C820 H848 0.929 . S
C821 C820 1.368 . S
C821 C822 1.386 . S
C821 H849 0.929 . S
C822 C821 1.386 . S
C822 C823 1.373 . S
C823 C822 1.373 . S
C823 C824 1.409 . S
C823 H850 0.931 . S
C824 C819 1.356 . S
C824 C823 1.409 . S
C824 H851 0.930 . S
C825 O838 1.270 . S
C825 O839 1.248 . S
C826 O840 1.267 . S
C826 O841 1.278 . S
C827 Pr817 2.880 . S
C827 C828 1.491 . S
C827 O842 1.254 . S
C827 O843 1.225 . S
C828 C827 1.491 . S
C828 C829 1.392 . S
C828 C833 1.356 . S
C829 C828 1.392 . S
C829 C830 1.368 . S
C829 H852 0.929 . S
C830 C829 1.368 . S
C830 C831 1.386 . S
C830 H853 0.929 . S
C831 C830 1.386 . S
C831 C832 1.373 . S
C832 C831 1.373 . S
C832 C833 1.409 . S
C832 H854 0.931 . S
C833 C828 1.356 . S
C833 C832 1.409 . S
C833 H855 0.930 . S
C834 O844 1.270 . S
C834 O845 1.248 . S
C835 O846 1.267 . S
C835 O847 1.278 . S
O836 Pr816 2.562 . S
O836 C818 1.254 . S
O837 Pr816 2.490 . S
O837 C818 1.225 . S
O838 Pr816 2.695 . S
O838 Pr817 2.436 . S
O838 C825 1.270 . S
O839 Pr816 2.512 . S
O839 C825 1.248 . S
O840 Pr817 2.438 . S
O840 C826 1.267 . S
O841 Pr816 2.437 . S
O841 C826 1.278 . S
O842 Pr817 2.562 . S
O842 C827 1.254 . S
O843 Pr817 2.490 . S
O843 C827 1.225 . S
O844 Pr816 2.436 . S
O844 Pr817 2.695 . S
O844 C834 1.270 . S
O845 Pr817 2.512 . S
O845 C834 1.248 . S
O846 Pr816 2.438 . S
O846 C835 1.267 . S
O847 Pr817 2.437 . S
O847 C835 1.278 . S
H848 C820 0.929 . S
H849 C821 0.929 . S
H850 C823 0.931 . S
H851 C824 0.930 . S
H852 C829 0.929 . S
H853 C830 0.929 . S
H854 C832 0.931 . S
H855 C833 0.930 . S
Pr856 C858 2.880 . S
Pr856 O876 2.562 . S
Pr856 O877 2.490 . S
Pr856 O878 2.695 . S
Pr856 O879 2.512 . S
Pr856 O881 2.437 . S
Pr856 O884 2.436 . S
Pr856 O886 2.438 . S
Pr857 C867 2.880 . S
Pr857 O878 2.436 . S
Pr857 O880 2.438 . S
Pr857 O882 2.562 . S
Pr857 O883 2.490 . S
Pr857 O884 2.695 . S
Pr857 O885 2.512 . S
Pr857 O887 2.437 . S
C858 Pr856 2.880 . S
C858 C859 1.491 . S
C858 O876 1.254 . S
C858 O877 1.225 . S
C859 C858 1.491 . S
C859 C860 1.392 . S
C859 C864 1.356 . S
C860 C859 1.392 . S
C860 C861 1.368 . S
C860 H888 0.929 . S
C861 C860 1.368 . S
C861 C862 1.386 . S
C861 H889 0.929 . S
C862 C861 1.386 . S
C862 C863 1.373 . S
C863 C862 1.373 . S
C863 C864 1.409 . S
C863 H890 0.931 . S
C864 C859 1.356 . S
C864 C863 1.409 . S
C864 H891 0.930 . S
C865 O878 1.270 . S
C865 O879 1.248 . S
C866 O880 1.267 . S
C866 O881 1.278 . S
C867 Pr857 2.880 . S
C867 C868 1.491 . S
C867 O882 1.254 . S
C867 O883 1.225 . S
C868 C867 1.491 . S
C868 C869 1.392 . S
C868 C873 1.356 . S
C869 C868 1.392 . S
C869 C870 1.368 . S
C869 H892 0.929 . S
C870 C869 1.368 . S
C870 C871 1.386 . S
C870 H893 0.929 . S
C871 C870 1.386 . S
C871 C872 1.373 . S
C872 C871 1.373 . S
C872 C873 1.409 . S
C872 H894 0.931 . S
C873 C868 1.356 . S
C873 C872 1.409 . S
C873 H895 0.930 . S
C874 O884 1.270 . S
C874 O885 1.248 . S
C875 O886 1.267 . S
C875 O887 1.278 . S
O876 Pr856 2.562 . S
O876 C858 1.254 . S
O877 Pr856 2.490 . S
O877 C858 1.225 . S
O878 Pr856 2.695 . S
O878 Pr857 2.436 . S
O878 C865 1.270 . S
O879 Pr856 2.512 . S
O879 C865 1.248 . S
O880 Pr857 2.438 . S
O880 C866 1.267 . S
O881 Pr856 2.437 . S
O881 C866 1.278 . S
O882 Pr857 2.562 . S
O882 C867 1.254 . S
O883 Pr857 2.490 . S
O883 C867 1.225 . S
O884 Pr856 2.436 . S
O884 Pr857 2.695 . S
O884 C874 1.270 . S
O885 Pr857 2.512 . S
O885 C874 1.248 . S
O886 Pr856 2.438 . S
O886 C875 1.267 . S
O887 Pr857 2.437 . S
O887 C875 1.278 . S
H888 C860 0.929 . S
H889 C861 0.929 . S
H890 C863 0.931 . S
H891 C864 0.930 . S
H892 C869 0.929 . S
H893 C870 0.929 . S
H894 C872 0.931 . S
H895 C873 0.930 . S
Pr896 C898 2.880 . S
Pr896 O916 2.562 . S
Pr896 O917 2.490 . S
Pr896 O918 2.695 . S
Pr896 O919 2.512 . S
Pr896 O921 2.437 . S
Pr896 O924 2.436 . S
Pr896 O926 2.438 . S
Pr897 C907 2.880 . S
Pr897 O918 2.436 . S
Pr897 O920 2.438 . S
Pr897 O922 2.562 . S
Pr897 O923 2.490 . S
Pr897 O924 2.695 . S
Pr897 O925 2.512 . S
Pr897 O927 2.437 . S
C898 Pr896 2.880 . S
C898 C899 1.491 . S
C898 O916 1.254 . S
C898 O917 1.225 . S
C899 C898 1.491 . S
C899 C900 1.392 . S
C899 C904 1.356 . S
C900 C899 1.392 . S
C900 C901 1.368 . S
C900 H928 0.929 . S
C901 C900 1.368 . S
C901 C902 1.386 . S
C901 H929 0.929 . S
C902 C901 1.386 . S
C902 C903 1.373 . S
C903 C902 1.373 . S
C903 C904 1.409 . S
C903 H930 0.931 . S
C904 C899 1.356 . S
C904 C903 1.409 . S
C904 H931 0.930 . S
C905 O918 1.270 . S
C905 O919 1.248 . S
C906 O920 1.267 . S
C906 O921 1.278 . S
C907 Pr897 2.880 . S
C907 C908 1.491 . S
C907 O922 1.254 . S
C907 O923 1.225 . S
C908 C907 1.491 . S
C908 C909 1.392 . S
C908 C913 1.356 . S
C909 C908 1.392 . S
C909 C910 1.368 . S
C909 H932 0.929 . S
C910 C909 1.368 . S
C910 C911 1.386 . S
C910 H933 0.929 . S
C911 C910 1.386 . S
C911 C912 1.373 . S
C912 C911 1.373 . S
C912 C913 1.409 . S
C912 H934 0.931 . S
C913 C908 1.356 . S
C913 C912 1.409 . S
C913 H935 0.930 . S
C914 O924 1.270 . S
C914 O925 1.248 . S
C915 O926 1.267 . S
C915 O927 1.278 . S
O916 Pr896 2.562 . S
O916 C898 1.254 . S
O917 Pr896 2.490 . S
O917 C898 1.225 . S
O918 Pr896 2.695 . S
O918 Pr897 2.436 . S
O918 C905 1.270 . S
O919 Pr896 2.512 . S
O919 C905 1.248 . S
O920 Pr897 2.438 . S
O920 C906 1.267 . S
O921 Pr896 2.437 . S
O921 C906 1.278 . S
O922 Pr897 2.562 . S
O922 C907 1.254 . S
O923 Pr897 2.490 . S
O923 C907 1.225 . S
O924 Pr896 2.436 . S
O924 Pr897 2.695 . S
O924 C914 1.270 . S
O925 Pr897 2.512 . S
O925 C914 1.248 . S
O926 Pr896 2.438 . S
O926 C915 1.267 . S
O927 Pr897 2.437 . S
O927 C915 1.278 . S
H928 C900 0.929 . S
H929 C901 0.929 . S
H930 C903 0.931 . S
H931 C904 0.930 . S
H932 C909 0.929 . S
H933 C910 0.929 . S
H934 C912 0.931 . S
H935 C913 0.930 . S
Pr936 C938 2.880 . S
Pr936 O956 2.562 . S
Pr936 O957 2.490 1_554 S
Pr936 O958 2.700 . S
Pr936 O959 2.512 1_554 S
Pr936 O961 2.437 1_554 S
Pr936 O964 2.436 . S
Pr936 O966 2.438 . S
Pr937 C947 2.880 1_455 S
Pr937 O958 2.453 . S
Pr937 O960 2.438 . S
Pr937 O962 2.562 1_455 S
Pr937 O963 2.490 1_455 S
Pr937 O964 2.695 . S
Pr937 O965 2.512 . S
Pr937 O967 2.437 . S
C938 Pr936 2.880 . S
C938 C939 1.491 . S
C938 O956 1.254 . S
C938 O957 1.225 1_554 S
C939 C938 1.491 . S
C939 C940 1.392 1_554 S
C939 C944 1.356 . S
C940 C939 1.392 1_556 S
C940 C941 1.368 . S
C940 H968 0.929 . S
C941 C940 1.368 . S
C941 C942 1.386 . S
C941 H969 0.929 . S
C942 C941 1.386 . S
C942 C943 1.373 1_556 S
C943 C942 1.373 1_554 S
C943 C944 1.409 . S
C943 H970 0.931 . S
C944 C939 1.356 . S
C944 C943 1.409 . S
C944 H971 0.930 . S
C945 O958 1.249 1_556 S
C945 O959 1.248 . S
C946 O960 1.255 1_556 S
C946 O961 1.288 . S
C947 Pr937 2.880 1_655 S
C947 C948 1.491 . S
C947 O962 1.254 . S
C947 O963 1.225 . S
C948 C947 1.491 . S
C948 C949 1.392 . S
C948 C953 1.356 . S
C949 C948 1.392 . S
C949 C950 1.368 . S
C949 H972 0.929 . S
C950 C949 1.368 . S
C950 C951 1.386 . S
C950 H973 0.929 . S
C951 C950 1.386 . S
C951 C952 1.373 . S
C952 C951 1.373 . S
C952 C953 1.409 . S
C952 H974 0.931 . S
C953 C948 1.356 . S
C953 C952 1.409 . S
C953 H975 0.930 . S
C954 O964 1.270 . S
C954 O965 1.248 . S
C955 O966 1.267 . S
C955 O967 1.278 . S
O956 Pr936 2.562 . S
O956 C938 1.254 . S
O957 Pr936 2.490 1_556 S
O957 C938 1.225 1_556 S
O958 Pr936 2.700 . S
O958 Pr937 2.453 . S
O958 C945 1.249 1_554 S
O959 Pr936 2.512 1_556 S
O959 C945 1.248 . S
O960 Pr937 2.438 . S
O960 C946 1.255 1_554 S
O961 Pr936 2.437 1_556 S
O961 C946 1.288 . S
O962 Pr937 2.562 1_655 S
O962 C947 1.254 . S
O963 Pr937 2.490 1_655 S
O963 C947 1.225 . S
O964 Pr936 2.436 . S
O964 Pr937 2.695 . S
O964 C954 1.270 . S
O965 Pr937 2.512 . S
O965 C954 1.248 . S
O966 Pr936 2.438 . S
O966 C955 1.267 . S
O967 Pr937 2.437 . S
O967 C955 1.278 . S
H968 C940 0.929 . S
H969 C941 0.929 . S
H970 C943 0.931 . S
H971 C944 0.930 . S
H972 C949 0.929 . S
H973 C950 0.929 . S
H974 C952 0.931 . S
H975 C953 0.930 . S
C976 C977 1.363 . S
C976 C982 1.379 . S
C976 N984 1.356 . S
C977 C976 1.363 . S
C977 C983 1.363 . S
C978 C979 1.363 . S
C978 C983 1.379 1_554 S
C978 N985 1.356 . S
C979 C978 1.363 . S
C979 C982 1.363 1_554 S
N980 C982 1.356 1_554 S
N980 H992 0.984 1_554 S
N980 H993 0.985 . S
N981 C983 1.356 1_655 S
N981 H986 0.984 . S
N981 H987 0.985 . S
C982 C976 1.379 . S
C982 C979 1.363 1_556 S
C982 N980 1.356 1_556 S
C983 C977 1.363 . S
C983 C978 1.379 1_556 S
C983 N981 1.356 1_455 S
N984 C976 1.356 . S
N984 H990 0.984 . S
N984 H991 0.984 . S
N985 C978 1.356 . S
N985 H988 0.984 . S
N985 H989 0.985 1_455 S
H986 N981 0.984 . S
H987 N981 0.985 . S
H988 N985 0.984 . S
H989 N985 0.985 1_655 S
H990 N984 0.984 . S
H991 N984 0.984 . S
H992 N980 0.984 1_556 S
H993 N980 0.985 . S
C994 C995 1.363 . S
C994 C1000 1.379 . S
C994 N1002 1.356 . S
C995 C994 1.363 . S
C995 C1001 1.363 . S
C996 C997 1.363 . S
C996 C1001 1.379 . S
C996 N1003 1.356 . S
C997 C996 1.363 . S
C997 C1000 1.363 . S
N998 C1000 1.356 . S
N998 H1010 0.984 . S
N998 H1011 0.985 . S
N999 C1001 1.356 . S
N999 H1004 0.984 . S
N999 H1005 0.985 . S
C1000 C994 1.379 . S
C1000 C997 1.363 . S
C1000 N998 1.356 . S
C1001 C995 1.363 . S
C1001 C996 1.379 . S
C1001 N999 1.356 . S
N1002 C994 1.356 . S
N1002 H1008 0.984 . S
N1002 H1009 0.984 . S
N1003 C996 1.356 . S
N1003 H1006 0.984 . S
N1003 H1007 0.985 . S
H1004 N999 0.984 . S
H1005 N999 0.985 . S
H1006 N1003 0.984 . S
H1007 N1003 0.985 . S
H1008 N1002 0.984 . S
H1009 N1002 0.984 . S
H1010 N998 0.984 . S
H1011 N998 0.985 . S
C1012 C1013 1.363 . S
C1012 C1018 1.379 . S
C1012 N1020 1.356 . S
C1013 C1012 1.363 . S
C1013 C1019 1.363 . S
C1014 C1015 1.363 . S
C1014 C1019 1.379 . S
C1014 N1021 1.356 . S
C1015 C1014 1.363 . S
C1015 C1018 1.363 . S
N1016 C1018 1.356 1_545 S
N1016 H1028 0.984 . S
N1016 H1029 0.985 . S
N1017 C1019 1.356 . S
N1017 H1022 0.984 . S
N1017 H1023 0.985 . S
C1018 C1012 1.379 . S
C1018 C1015 1.363 . S
C1018 N1016 1.356 1_565 S
C1019 C1013 1.363 . S
C1019 C1014 1.379 . S
C1019 N1017 1.356 . S
N1020 C1012 1.356 . S
N1020 H1026 0.984 . S
N1020 H1027 0.984 . S
N1021 C1014 1.356 . S
N1021 H1024 0.984 1_565 S
N1021 H1025 0.985 . S
H1022 N1017 0.984 . S
H1023 N1017 0.985 . S
H1024 N1021 0.984 1_545 S
H1025 N1021 0.985 . S
H1026 N1020 0.984 . S
H1027 N1020 0.984 . S
H1028 N1016 0.984 . S
H1029 N1016 0.985 . S
C1030 C1031 1.363 . S
C1030 C1036 1.379 . S
C1030 N1038 1.356 . S
C1031 C1030 1.363 . S
C1031 C1037 1.363 . S
C1032 C1033 1.363 . S
C1032 C1037 1.379 . S
C1032 N1039 1.356 . S
C1033 C1032 1.363 . S
C1033 C1036 1.363 . S
N1034 C1036 1.356 . S
N1034 H1046 0.984 . S
N1034 H1047 0.985 . S
N1035 C1037 1.356 . S
N1035 H1040 0.984 . S
N1035 H1041 0.985 . S
C1036 C1030 1.379 . S
C1036 C1033 1.363 . S
C1036 N1034 1.356 . S
C1037 C1031 1.363 . S
C1037 C1032 1.379 . S
C1037 N1035 1.356 . S
N1038 C1030 1.356 . S
N1038 H1044 0.984 . S
N1038 H1045 0.984 . S
N1039 C1032 1.356 . S
N1039 H1042 0.984 . S
N1039 H1043 0.985 . S
H1040 N1035 0.984 . S
H1041 N1035 0.985 . S
H1042 N1039 0.984 . S
H1043 N1039 0.985 . S
H1044 N1038 0.984 . S
H1045 N1038 0.984 . S
H1046 N1034 0.984 . S
H1047 N1034 0.985 . S
C1048 C1049 1.363 . S
C1048 C1054 1.379 1_565 S
C1048 N1056 1.356 . S
C1049 C1048 1.363 . S
C1049 C1055 1.363 . S
C1050 C1051 1.363 1_565 S
C1050 C1055 1.379 . S
C1050 N1057 1.356 1_565 S
C1051 C1050 1.363 1_545 S
C1051 C1054 1.363 . S
N1052 C1054 1.356 . S
N1052 H1064 0.984 . S
N1052 H1065 0.985 . S
N1053 C1055 1.356 . S
N1053 H1058 0.984 . S
N1053 H1059 0.985 . S
C1054 C1048 1.379 1_545 S
C1054 C1051 1.363 . S
C1054 N1052 1.356 . S
C1055 C1049 1.363 . S
C1055 C1050 1.379 . S
C1055 N1053 1.356 . S
N1056 C1048 1.356 . S
N1056 H1062 0.984 . S
N1056 H1063 0.984 . S
N1057 C1050 1.356 1_545 S
N1057 H1060 0.984 . S
N1057 H1061 0.985 1_545 S
H1058 N1053 0.984 . S
H1059 N1053 0.985 . S
H1060 N1057 0.984 . S
H1061 N1057 0.985 1_565 S
H1062 N1056 0.984 . S
H1063 N1056 0.984 . S
H1064 N1052 0.984 . S
H1065 N1052 0.985 . S
C1066 C1067 1.363 . S
C1066 C1072 1.379 . S
C1066 N1074 1.356 . S
C1067 C1066 1.363 . S
C1067 C1073 1.363 . S
C1068 C1069 1.363 . S
C1068 C1073 1.379 . S
C1068 N1075 1.356 . S
C1069 C1068 1.363 . S
C1069 C1072 1.363 . S
N1070 C1072 1.356 . S
N1070 H1082 0.984 . S
N1070 H1083 0.985 . S
N1071 C1073 1.356 . S
N1071 H1076 0.984 . S
N1071 H1077 0.985 . S
C1072 C1066 1.379 . S
C1072 C1069 1.363 . S
C1072 N1070 1.356 . S
C1073 C1067 1.363 . S
C1073 C1068 1.379 . S
C1073 N1071 1.356 . S
N1074 C1066 1.356 . S
N1074 H1080 0.984 . S
N1074 H1081 0.984 . S
N1075 C1068 1.356 . S
N1075 H1078 0.984 . S
N1075 H1079 0.985 . S
H1076 N1071 0.984 . S
H1077 N1071 0.985 . S
H1078 N1075 0.984 . S
H1079 N1075 0.985 . S
H1080 N1074 0.984 . S
H1081 N1074 0.984 . S
H1082 N1070 0.984 . S
H1083 N1070 0.985 . S
C1084 C1085 1.363 . S
C1084 C1090 1.379 . S
C1084 N1092 1.356 . S
C1085 C1084 1.363 . S
C1085 C1091 1.363 . S
C1086 C1087 1.363 . S
C1086 C1091 1.379 . S
C1086 N1093 1.356 . S
C1087 C1086 1.363 . S
C1087 C1090 1.363 . S
N1088 C1090 1.356 . S
N1088 H1100 0.967 1_554 S
N1088 H1101 0.985 . S
N1089 C1091 1.356 . S
N1089 H1094 0.984 . S
N1089 H1095 0.985 . S
C1090 C1084 1.379 . S
C1090 C1087 1.363 . S
C1090 N1088 1.356 . S
C1091 C1085 1.363 . S
C1091 C1086 1.379 . S
C1091 N1089 1.356 . S
N1092 C1084 1.356 . S
N1092 H1098 0.984 . S
N1092 H1099 0.984 . S
N1093 C1086 1.356 . S
N1093 H1096 0.984 . S
N1093 H1097 0.985 . S
H1094 N1089 0.984 . S
H1095 N1089 0.985 . S
H1096 N1093 0.984 . S
H1097 N1093 0.985 . S
H1098 N1092 0.984 . S
H1099 N1092 0.984 . S
H1100 N1088 0.967 1_556 S
H1101 N1088 0.985 . S
C1102 C1103 1.363 . S
C1102 C1108 1.379 . S
C1102 N1110 1.356 . S
C1103 C1102 1.363 . S
C1103 C1109 1.363 . S
C1104 C1105 1.363 . S
C1104 C1109 1.379 . S
C1104 N1111 1.356 . S
C1105 C1104 1.363 . S
C1105 C1108 1.363 . S
N1106 C1108 1.356 . S
N1106 H1118 0.984 . S
N1106 H1119 0.985 . S
N1107 C1109 1.356 . S
N1107 H1112 0.984 . S
N1107 H1113 0.985 . S
C1108 C1102 1.379 . S
C1108 C1105 1.363 . S
C1108 N1106 1.356 . S
C1109 C1103 1.363 . S
C1109 C1104 1.379 . S
C1109 N1107 1.356 . S
N1110 C1102 1.356 . S
N1110 H1116 0.984 . S
N1110 H1117 0.984 . S
N1111 C1104 1.356 . S
N1111 H1114 0.984 . S
N1111 H1115 0.985 . S
H1112 N1107 0.984 . S
H1113 N1107 0.985 . S
H1114 N1111 0.984 . S
H1115 N1111 0.985 . S
H1116 N1110 0.984 . S
H1117 N1110 0.984 . S
H1118 N1106 0.984 . S
H1119 N1106 0.985 . S
C1120 C1121 1.363 . S
C1120 C1126 1.379 1_655 S
C1120 N1128 1.356 . S
C1121 C1120 1.363 . S
C1121 C1127 1.363 . S
C1122 C1123 1.363 1_655 S
C1122 C1127 1.379 . S
C1122 N1129 1.377 . S
C1123 C1122 1.363 1_455 S
C1123 C1126 1.363 . S
N1124 C1126 1.356 . S
N1124 H1136 0.984 . S
N1124 H1137 0.985 . S
N1125 C1127 1.356 . S
N1125 H1130 0.984 . S
N1125 H1131 0.985 . S
C1126 C1120 1.379 1_455 S
C1126 C1123 1.363 . S
C1126 N1124 1.356 . S
C1127 C1121 1.363 . S
C1127 C1122 1.379 . S
C1127 N1125 1.356 . S
N1128 C1120 1.356 . S
N1128 H1134 0.984 . S
N1128 H1135 0.984 . S
N1129 C1122 1.377 . S
N1129 H1132 0.953 1_655 S
N1129 H1133 0.997 . S
H1130 N1125 0.984 . S
H1131 N1125 0.985 . S
H1132 N1129 0.953 1_455 S
H1133 N1129 0.997 . S
H1134 N1128 0.984 . S
H1135 N1128 0.984 . S
H1136 N1124 0.984 . S
H1137 N1124 0.985 . S
C1138 C1139 1.363 . S
C1138 C1144 1.379 . S
C1138 N1146 1.356 . S
C1139 C1138 1.363 . S
C1139 C1145 1.363 . S
C1140 C1141 1.363 . S
C1140 C1145 1.379 . S
C1140 N1147 1.356 . S
C1141 C1140 1.363 . S
C1141 C1144 1.363 . S
N1142 C1144 1.356 . S
N1142 H1154 0.984 . S
N1142 H1155 0.985 . S
N1143 C1145 1.356 . S
N1143 H1148 0.984 . S
N1143 H1149 0.985 . S
C1144 C1138 1.379 . S
C1144 C1141 1.363 . S
C1144 N1142 1.356 . S
C1145 C1139 1.363 . S
C1145 C1140 1.379 . S
C1145 N1143 1.356 . S
N1146 C1138 1.356 . S
N1146 H1152 0.984 . S
N1146 H1153 0.984 . S
N1147 C1140 1.356 . S
N1147 H1150 0.984 . S
N1147 H1151 0.985 . S
H1148 N1143 0.984 . S
H1149 N1143 0.985 . S
H1150 N1147 0.984 . S
H1151 N1147 0.985 . S
H1152 N1146 0.984 . S
H1153 N1146 0.984 . S
H1154 N1142 0.984 . S
H1155 N1142 0.985 . S
C1156 C1157 1.363 . S
C1156 C1162 1.379 . S
C1156 N1164 1.356 1_545 S
C1157 C1156 1.363 . S
C1157 C1163 1.363 . S
C1158 C1159 1.363 . S
C1158 C1163 1.379 . S
C1158 N1165 1.356 . S
C1159 C1158 1.363 . S
C1159 C1162 1.363 . S
N1160 C1162 1.356 . S
N1160 H1172 0.984 . S
N1160 H1173 0.985 . S
N1161 C1163 1.356 . S
N1161 H1166 0.984 1_545 S
N1161 H1167 0.985 . S
C1162 C1156 1.379 . S
C1162 C1159 1.363 . S
C1162 N1160 1.356 . S
C1163 C1157 1.363 . S
C1163 C1158 1.379 . S
C1163 N1161 1.356 . S
N1164 C1156 1.356 1_565 S
N1164 H1170 0.984 . S
N1164 H1171 0.984 . S
N1165 C1158 1.356 . S
N1165 H1168 0.984 . S
N1165 H1169 0.985 . S
H1166 N1161 0.984 1_565 S
H1167 N1161 0.985 . S
H1168 N1165 0.984 . S
H1169 N1165 0.985 . S
H1170 N1164 0.984 . S
H1171 N1164 0.984 . S
H1172 N1160 0.984 . S
H1173 N1160 0.985 . S
C1174 C1175 1.363 . S
C1174 C1180 1.379 . S
C1174 N1182 1.356 . S
C1175 C1174 1.363 . S
C1175 C1181 1.363 . S
C1176 C1177 1.363 . S
C1176 C1181 1.379 . S
C1176 N1183 1.356 . S
C1177 C1176 1.363 . S
C1177 C1180 1.363 . S
N1178 C1180 1.356 . S
N1178 H1190 0.984 . S
N1178 H1191 0.985 . S
N1179 C1181 1.356 . S
N1179 H1184 0.984 . S
N1179 H1185 0.985 . S
C1180 C1174 1.379 . S
C1180 C1177 1.363 . S
C1180 N1178 1.356 . S
C1181 C1175 1.363 . S
C1181 C1176 1.379 . S
C1181 N1179 1.356 . S
N1182 C1174 1.356 . S
N1182 H1188 0.984 . S
N1182 H1189 0.984 . S
N1183 C1176 1.356 . S
N1183 H1186 0.984 . S
N1183 H1187 0.985 . S
H1184 N1179 0.984 . S
H1185 N1179 0.985 . S
H1186 N1183 0.984 . S
H1187 N1183 0.985 . S
H1188 N1182 0.984 . S
H1189 N1182 0.984 . S
H1190 N1178 0.984 . S
H1191 N1178 0.985 . S
C1192 C1193 1.363 . S
C1192 C1198 1.379 . S
C1192 N1200 1.356 . S
C1193 C1192 1.363 . S
C1193 C1199 1.363 . S
C1194 C1195 1.363 . S
C1194 C1199 1.379 . S
C1194 N1201 1.356 1_655 S
C1195 C1194 1.363 . S
C1195 C1198 1.363 . S
N1196 C1198 1.356 . S
N1196 H1208 0.984 . S
N1196 H1209 0.985 . S
N1197 C1199 1.356 . S
N1197 H1202 0.984 . S
N1197 H1203 0.985 . S
C1198 C1192 1.379 . S
C1198 C1195 1.363 . S
C1198 N1196 1.356 . S
C1199 C1193 1.363 . S
C1199 C1194 1.379 . S
C1199 N1197 1.356 . S
N1200 C1192 1.356 . S
N1200 H1206 0.984 . S
N1200 H1207 0.984 . S
N1201 C1194 1.356 1_455 S
N1201 H1204 0.984 . S
N1201 H1205 0.985 . S
H1202 N1197 0.984 . S
H1203 N1197 0.985 . S
H1204 N1201 0.984 . S
H1205 N1201 0.985 . S
H1206 N1200 0.984 . S
H1207 N1200 0.984 . S
H1208 N1196 0.984 . S
H1209 N1196 0.985 . S
C1210 C1211 1.363 . S
C1210 C1216 1.379 . S
C1210 N1218 1.356 . S
C1211 C1210 1.363 . S
C1211 C1217 1.363 . S
C1212 C1213 1.363 . S
C1212 C1217 1.379 . S
C1212 N1219 1.356 . S
C1213 C1212 1.363 . S
C1213 C1216 1.363 . S
N1214 C1216 1.356 . S
N1214 H1226 0.984 . S
N1214 H1227 0.985 . S
N1215 C1217 1.356 . S
N1215 H1220 0.984 . S
N1215 H1221 0.985 . S
C1216 C1210 1.379 . S
C1216 C1213 1.363 . S
C1216 N1214 1.356 . S
C1217 C1211 1.363 . S
C1217 C1212 1.379 . S
C1217 N1215 1.356 . S
N1218 C1210 1.356 . S
N1218 H1224 0.984 . S
N1218 H1225 0.984 . S
N1219 C1212 1.356 . S
N1219 H1222 0.984 . S
N1219 H1223 0.985 . S
H1220 N1215 0.984 . S
H1221 N1215 0.985 . S
H1222 N1219 0.984 . S
H1223 N1219 0.985 . S
H1224 N1218 0.984 . S
H1225 N1218 0.984 . S
H1226 N1214 0.984 . S
H1227 N1214 0.985 . S
C1228 C1229 1.363 . S
C1228 C1234 1.379 . S
C1228 N1236 1.356 . S
C1229 C1228 1.363 . S
C1229 C1235 1.363 . S
C1230 C1231 1.363 . S
C1230 C1235 1.379 . S
C1230 N1237 1.356 . S
C1231 C1230 1.363 . S
C1231 C1234 1.363 . S
N1232 C1234 1.356 . S
N1232 H1244 0.984 . S
N1232 H1245 0.985 . S
N1233 C1235 1.356 . S
N1233 H1238 0.984 . S
N1233 H1239 0.985 . S
C1234 C1228 1.379 . S
C1234 C1231 1.363 . S
C1234 N1232 1.356 . S
C1235 C1229 1.363 . S
C1235 C1230 1.379 . S
C1235 N1233 1.356 . S
N1236 C1228 1.356 . S
N1236 H1242 0.984 1_545 S
N1236 H1243 0.984 1_545 S
N1237 C1230 1.356 . S
N1237 H1240 0.984 . S
N1237 H1241 0.985 . S
H1238 N1233 0.984 . S
H1239 N1233 0.985 . S
H1240 N1237 0.984 . S
H1241 N1237 0.985 . S
H1242 N1236 0.984 1_565 S
H1243 N1236 0.984 1_565 S
H1244 N1232 0.984 . S
H1245 N1232 0.985 . S
C1246 C1247 1.363 . S
C1246 C1252 1.379 . S
C1246 N1254 1.356 . S
C1247 C1246 1.363 . S
C1247 C1253 1.363 . S
C1248 C1249 1.363 . S
C1248 C1253 1.379 . S
C1248 N1255 1.356 . S
C1249 C1248 1.363 . S
C1249 C1252 1.363 . S
N1250 C1252 1.356 . S
N1250 H1262 0.984 . S
N1250 H1263 0.985 . S
N1251 C1253 1.356 . S
N1251 H1256 0.984 . S
N1251 H1257 0.985 . S
C1252 C1246 1.379 . S
C1252 C1249 1.363 . S
C1252 N1250 1.356 . S
C1253 C1247 1.363 . S
C1253 C1248 1.379 . S
C1253 N1251 1.356 . S
N1254 C1246 1.356 . S
N1254 H1260 0.984 . S
N1254 H1261 0.984 . S
N1255 C1248 1.356 . S
N1255 H1258 0.984 . S
N1255 H1259 0.985 . S
H1256 N1251 0.984 . S
H1257 N1251 0.985 . S
H1258 N1255 0.984 . S
H1259 N1255 0.985 . S
H1260 N1254 0.984 . S
H1261 N1254 0.984 . S
H1262 N1250 0.984 . S
H1263 N1250 0.985 . S
C1264 C1265 1.363 1_565 S
C1264 C1270 1.379 1_565 S
C1264 N1272 1.356 . S
C1265 C1264 1.363 1_545 S
C1265 C1271 1.363 . S
C1266 C1267 1.363 . S
C1266 C1271 1.379 . S
C1266 N1273 1.356 . S
C1267 C1266 1.363 . S
C1267 C1270 1.363 . S
N1268 C1270 1.356 1_565 S
N1268 H1280 0.984 . S
N1268 H1281 0.985 1_565 S
N1269 C1271 1.356 . S
N1269 H1274 0.984 . S
N1269 H1275 0.985 . S
C1270 C1264 1.379 1_545 S
C1270 C1267 1.363 . S
C1270 N1268 1.356 1_545 S
C1271 C1265 1.363 . S
C1271 C1266 1.379 . S
C1271 N1269 1.356 . S
N1272 C1264 1.356 . S
N1272 H1278 0.984 . S
N1272 H1279 0.984 . S
N1273 C1266 1.356 . S
N1273 H1276 0.984 . S
N1273 H1277 0.985 . S
H1274 N1269 0.984 . S
H1275 N1269 0.985 . S
H1276 N1273 0.984 . S
H1277 N1273 0.985 . S
H1278 N1272 0.984 . S
H1279 N1272 0.984 . S
H1280 N1268 0.984 . S
H1281 N1268 0.985 1_545 S
C1282 C1283 1.363 . S
C1282 C1288 1.379 . S
C1282 N1290 1.356 . S
C1283 C1282 1.363 . S
C1283 C1289 1.363 1_554 S
C1284 C1285 1.363 1_556 S
C1284 C1289 1.379 . S
C1284 N1291 1.356 . S
C1285 C1284 1.363 1_554 S
C1285 C1288 1.363 . S
N1286 C1288 1.356 . S
N1286 H1298 0.984 . S
N1286 H1299 0.985 . S
N1287 C1289 1.356 . S
N1287 H1292 0.984 . S
N1287 H1293 0.985 . S
C1288 C1282 1.379 . S
C1288 C1285 1.363 . S
C1288 N1286 1.356 . S
C1289 C1283 1.363 1_556 S
C1289 C1284 1.379 . S
C1289 N1287 1.356 . S
N1290 C1282 1.356 . S
N1290 H1296 0.984 . S
N1290 H1297 0.984 . S
N1291 C1284 1.356 . S
N1291 H1294 0.984 . S
N1291 H1295 0.985 . S
H1292 N1287 0.984 . S
H1293 N1287 0.985 . S
H1294 N1291 0.984 . S
H1295 N1291 0.985 . S
H1296 N1290 0.984 . S
H1297 N1290 0.984 . S
H1298 N1286 0.984 . S
H1299 N1286 0.985 . S
C1300 C1301 1.363 . S
C1300 C1306 1.379 . S
C1300 N1308 1.356 . S
C1301 C1300 1.363 . S
C1301 C1307 1.363 . S
C1302 C1303 1.363 . S
C1302 C1307 1.379 . S
C1302 N1309 1.356 . S
C1303 C1302 1.363 . S
C1303 C1306 1.363 . S
N1304 C1306 1.356 . S
N1304 H1316 0.984 . S
N1304 H1317 0.985 . S
N1305 C1307 1.356 . S
N1305 H1310 0.984 . S
N1305 H1311 0.985 . S
C1306 C1300 1.379 . S
C1306 C1303 1.363 . S
C1306 N1304 1.356 . S
C1307 C1301 1.363 . S
C1307 C1302 1.379 . S
C1307 N1305 1.356 . S
N1308 C1300 1.356 . S
N1308 H1314 0.984 . S
N1308 H1315 0.984 . S
N1309 C1302 1.356 . S
N1309 H1312 0.984 . S
N1309 H1313 0.985 . S
H1310 N1305 0.984 . S
H1311 N1305 0.985 . S
H1312 N1309 0.984 . S
H1313 N1309 0.985 . S
H1314 N1308 0.984 . S
H1315 N1308 0.984 . S
H1316 N1304 0.984 . S
H1317 N1304 0.985 . S
C1318 C1319 1.363 . S
C1318 C1324 1.379 . S
C1318 N1326 1.356 . S
C1319 C1318 1.363 . S
C1319 C1325 1.363 . S
C1320 C1321 1.363 . S
C1320 C1325 1.379 . S
C1320 N1327 1.356 . S
C1321 C1320 1.363 . S
C1321 C1324 1.363 . S
N1322 C1324 1.356 . S
N1322 H1334 0.984 . S
N1322 H1335 0.985 . S
N1323 C1325 1.356 . S
N1323 H1328 0.984 . S
N1323 H1329 0.985 . S
C1324 C1318 1.379 . S
C1324 C1321 1.363 . S
C1324 N1322 1.356 . S
C1325 C1319 1.363 . S
C1325 C1320 1.379 . S
C1325 N1323 1.356 . S
N1326 C1318 1.356 . S
N1326 H1332 0.984 . S
N1326 H1333 0.984 . S
N1327 C1320 1.356 . S
N1327 H1330 0.984 1_655 S
N1327 H1331 0.985 1_655 S
H1328 N1323 0.984 . S
H1329 N1323 0.985 . S
H1330 N1327 0.984 1_455 S
H1331 N1327 0.985 1_455 S
H1332 N1326 0.984 . S
H1333 N1326 0.984 . S
H1334 N1322 0.984 . S
H1335 N1322 0.985 . S
C1336 C1337 1.363 . S
C1336 C1342 1.379 . S
C1336 N1344 1.356 . S
C1337 C1336 1.363 . S
C1337 C1343 1.363 . S
C1338 C1339 1.363 . S
C1338 C1343 1.379 . S
C1338 N1345 1.356 . S
C1339 C1338 1.363 . S
C1339 C1342 1.363 . S
N1340 C1342 1.356 . S
N1340 H1352 0.984 . S
N1340 H1353 0.985 . S
N1341 C1343 1.356 . S
N1341 H1346 0.984 . S
N1341 H1347 0.985 . S
C1342 C1336 1.379 . S
C1342 C1339 1.363 . S
C1342 N1340 1.356 . S
C1343 C1337 1.363 . S
C1343 C1338 1.379 . S
C1343 N1341 1.356 . S
N1344 C1336 1.356 . S
N1344 H1350 0.984 . S
N1344 H1351 0.984 . S
N1345 C1338 1.356 . S
N1345 H1348 0.984 . S
N1345 H1349 0.985 . S
H1346 N1341 0.984 . S
H1347 N1341 0.985 . S
H1348 N1345 0.984 . S
H1349 N1345 0.985 . S
H1350 N1344 0.984 . S
H1351 N1344 0.984 . S
H1352 N1340 0.984 . S
H1353 N1340 0.985 . S
C1354 C1355 1.363 . S
C1354 C1360 1.379 . S
C1354 N1362 1.356 . S
C1355 C1354 1.363 . S
C1355 C1361 1.363 . S
C1356 C1357 1.363 . S
C1356 C1361 1.379 . S
C1356 N1363 1.356 . S
C1357 C1356 1.363 . S
C1357 C1360 1.363 . S
N1358 C1360 1.356 . S
N1358 H1370 0.984 . S
N1358 H1371 0.985 . S
N1359 C1361 1.356 . S
N1359 H1364 0.984 . S
N1359 H1365 0.985 . S
C1360 C1354 1.379 . S
C1360 C1357 1.363 . S
C1360 N1358 1.356 . S
C1361 C1355 1.363 . S
C1361 C1356 1.379 . S
C1361 N1359 1.356 . S
N1362 C1354 1.356 . S
N1362 H1368 0.984 . S
N1362 H1369 0.984 . S
N1363 C1356 1.356 . S
N1363 H1366 0.984 . S
N1363 H1367 0.985 . S
H1364 N1359 0.984 . S
H1365 N1359 0.985 . S
H1366 N1363 0.984 . S
H1367 N1363 0.985 . S
H1368 N1362 0.984 . S
H1369 N1362 0.984 . S
H1370 N1358 0.984 . S
H1371 N1358 0.985 . S
C1372 C1373 1.363 . S
C1372 C1378 1.379 . S
C1372 N1380 1.356 . S
C1373 C1372 1.363 . S
C1373 C1379 1.363 . S
C1374 C1375 1.363 . S
C1374 C1379 1.379 . S
C1374 N1381 1.356 . S
C1375 C1374 1.363 . S
C1375 C1378 1.363 . S
N1376 C1378 1.356 . S
N1376 H1388 0.984 . S
N1376 H1389 0.985 . S
N1377 C1379 1.356 . S
N1377 H1382 0.984 . S
N1377 H1383 0.985 . S
C1378 C1372 1.379 . S
C1378 C1375 1.363 . S
C1378 N1376 1.356 . S
C1379 C1373 1.363 . S
C1379 C1374 1.379 . S
C1379 N1377 1.356 . S
N1380 C1372 1.356 . S
N1380 H1386 0.984 . S
N1380 H1387 0.984 . S
N1381 C1374 1.356 . S
N1381 H1384 0.984 . S
N1381 H1385 0.985 . S
H1382 N1377 0.984 . S
H1383 N1377 0.985 . S
H1384 N1381 0.984 . S
H1385 N1381 0.985 . S
H1386 N1380 0.984 . S
H1387 N1380 0.984 . S
H1388 N1376 0.984 . S
H1389 N1376 0.985 . S
C1390 C1391 1.363 . S
C1390 C1396 1.379 . S
C1390 N1398 1.356 . S
C1391 C1390 1.363 . S
C1391 C1397 1.363 . S
C1392 C1393 1.363 . S
C1392 C1397 1.379 . S
C1392 N1399 1.356 . S
C1393 C1392 1.363 . S
C1393 C1396 1.363 . S
N1394 C1396 1.356 . S
N1394 H1406 0.984 . S
N1394 H1407 0.985 . S
N1395 C1397 1.356 . S
N1395 H1400 0.984 . S
N1395 H1401 0.985 . S
C1396 C1390 1.379 . S
C1396 C1393 1.363 . S
C1396 N1394 1.356 . S
C1397 C1391 1.363 . S
C1397 C1392 1.379 . S
C1397 N1395 1.356 . S
N1398 C1390 1.356 . S
N1398 H1404 0.984 . S
N1398 H1405 0.984 . S
N1399 C1392 1.356 . S
N1399 H1402 0.984 . S
N1399 H1403 0.985 . S
H1400 N1395 0.984 . S
H1401 N1395 0.985 . S
H1402 N1399 0.984 . S
H1403 N1399 0.985 . S
H1404 N1398 0.984 . S
H1405 N1398 0.984 . S
H1406 N1394 0.984 . S
H1407 N1394 0.985 . S
C1408 C1409 1.363 . S
C1408 C1414 1.379 . S
C1408 N1416 1.356 . S
C1409 C1408 1.363 . S
C1409 C1415 1.363 . S
C1410 C1411 1.363 . S
C1410 C1415 1.379 . S
C1410 N1417 1.356 1_565 S
C1411 C1410 1.363 . S
C1411 C1414 1.363 . S
N1412 C1414 1.356 . S
N1412 H1424 0.984 . S
N1412 H1425 0.985 1_565 S
N1413 C1415 1.356 . S
N1413 H1418 0.984 . S
N1413 H1419 0.985 . S
C1414 C1408 1.379 . S
C1414 C1411 1.363 . S
C1414 N1412 1.356 . S
C1415 C1409 1.363 . S
C1415 C1410 1.379 . S
C1415 N1413 1.356 . S
N1416 C1408 1.356 . S
N1416 H1422 0.984 . S
N1416 H1423 0.984 . S
N1417 C1410 1.356 1_545 S
N1417 H1420 0.984 . S
N1417 H1421 0.985 . S
H1418 N1413 0.984 . S
H1419 N1413 0.985 . S
H1420 N1417 0.984 . S
H1421 N1417 0.985 . S
H1422 N1416 0.984 . S
H1423 N1416 0.984 . S
H1424 N1412 0.984 . S
H1425 N1412 0.985 1_545 S
C1426 C1427 1.363 . S
C1426 C1432 1.379 . S
C1426 N1434 1.356 . S
C1427 C1426 1.363 . S
C1427 C1433 1.363 . S
C1428 C1429 1.363 . S
C1428 C1433 1.379 . S
C1428 N1435 1.356 . S
C1429 C1428 1.363 . S
C1429 C1432 1.363 . S
N1430 C1432 1.356 . S
N1430 H1442 0.984 . S
N1430 H1443 0.985 . S
N1431 C1433 1.356 . S
N1431 H1436 0.984 . S
N1431 H1437 0.985 . S
C1432 C1426 1.379 . S
C1432 C1429 1.363 . S
C1432 N1430 1.356 . S
C1433 C1427 1.363 . S
C1433 C1428 1.379 . S
C1433 N1431 1.356 . S
N1434 C1426 1.356 . S
N1434 H1440 0.984 . S
N1434 H1441 0.984 . S
N1435 C1428 1.356 . S
N1435 H1438 0.984 . S
N1435 H1439 0.985 . S
H1436 N1431 0.984 . S
H1437 N1431 0.985 . S
H1438 N1435 0.984 . S
H1439 N1435 0.985 . S
H1440 N1434 0.984 . S
H1441 N1434 0.984 . S
H1442 N1430 0.984 . S
H1443 N1430 0.985 . S
C1444 C1445 1.363 . S
C1444 C1450 1.379 . S
C1444 N1452 1.356 . S
C1445 C1444 1.363 . S
C1445 C1451 1.363 . S
C1446 C1447 1.363 . S
C1446 C1451 1.379 . S
C1446 N1453 1.356 . S
C1447 C1446 1.363 . S
C1447 C1450 1.363 . S
N1448 C1450 1.356 . S
N1448 H1460 0.984 . S
N1448 H1461 0.985 . S
N1449 C1451 1.356 . S
N1449 H1454 0.984 . S
N1449 H1455 0.985 . S
C1450 C1444 1.379 . S
C1450 C1447 1.363 . S
C1450 N1448 1.356 . S
C1451 C1445 1.363 . S
C1451 C1446 1.379 . S
C1451 N1449 1.356 . S
N1452 C1444 1.356 . S
N1452 H1458 0.984 . S
N1452 H1459 0.984 . S
N1453 C1446 1.356 . S
N1453 H1456 0.984 . S
N1453 H1457 0.985 . S
H1454 N1449 0.984 . S
H1455 N1449 0.985 . S
H1456 N1453 0.984 . S
H1457 N1453 0.985 . S
H1458 N1452 0.984 . S
H1459 N1452 0.984 . S
H1460 N1448 0.984 . S
H1461 N1448 0.985 . S
C1462 C1463 1.363 . S
C1462 C1468 1.379 . S
C1462 N1470 1.356 . S
C1463 C1462 1.363 . S
C1463 C1469 1.363 . S
C1464 C1465 1.363 . S
C1464 C1469 1.379 . S
C1464 N1471 1.356 . S
C1465 C1464 1.363 . S
C1465 C1468 1.363 . S
N1466 C1468 1.356 . S
N1466 H1478 0.984 . S
N1466 H1479 0.985 . S
N1467 C1469 1.356 . S
N1467 H1472 0.984 . S
N1467 H1473 0.985 . S
C1468 C1462 1.379 . S
C1468 C1465 1.363 . S
C1468 N1466 1.356 . S
C1469 C1463 1.363 . S
C1469 C1464 1.379 . S
C1469 N1467 1.356 . S
N1470 C1462 1.356 . S
N1470 H1476 0.984 . S
N1470 H1477 0.984 . S
N1471 C1464 1.356 . S
N1471 H1474 0.984 . S
N1471 H1475 0.985 . S
H1472 N1467 0.984 . S
H1473 N1467 0.985 . S
H1474 N1471 0.984 . S
H1475 N1471 0.985 . S
H1476 N1470 0.984 . S
H1477 N1470 0.984 . S
H1478 N1466 0.984 . S
H1479 N1466 0.985 . S
C1480 C1481 1.363 . S
C1480 C1486 1.379 . S
C1480 N1488 1.356 . S
C1481 C1480 1.363 . S
C1481 C1487 1.363 1_455 S
C1482 C1483 1.363 . S
C1482 C1487 1.379 1_455 S
C1482 N1489 1.356 1_455 S
C1483 C1482 1.363 . S
C1483 C1486 1.363 . S
N1484 C1486 1.356 . S
N1484 H1496 0.984 . S
N1484 H1497 0.985 . S
N1485 C1487 1.356 . S
N1485 H1490 0.984 . S
N1485 H1491 0.985 . S
C1486 C1480 1.379 . S
C1486 C1483 1.363 . S
C1486 N1484 1.356 . S
C1487 C1481 1.363 1_655 S
C1487 C1482 1.379 1_655 S
C1487 N1485 1.356 . S
N1488 C1480 1.356 . S
N1488 H1494 0.984 . S
N1488 H1495 0.984 . S
N1489 C1482 1.356 1_655 S
N1489 H1492 0.984 1_655 S
N1489 H1493 0.985 . S
H1490 N1485 0.984 . S
H1491 N1485 0.985 . S
H1492 N1489 0.984 1_455 S
H1493 N1489 0.985 . S
H1494 N1488 0.984 . S
H1495 N1488 0.984 . S
H1496 N1484 0.984 . S
H1497 N1484 0.985 . S
C1498 C1499 1.363 . S
C1498 C1504 1.379 . S
C1498 N1506 1.356 . S
C1499 C1498 1.363 . S
C1499 C1505 1.363 . S
C1500 C1501 1.363 . S
C1500 C1505 1.379 . S
C1500 N1507 1.356 . S
C1501 C1500 1.363 . S
C1501 C1504 1.363 . S
N1502 C1504 1.356 . S
N1502 H1514 0.984 . S
N1502 H1515 0.985 . S
N1503 C1505 1.356 . S
N1503 H1508 0.984 . S
N1503 H1509 0.985 . S
C1504 C1498 1.379 . S
C1504 C1501 1.363 . S
C1504 N1502 1.356 . S
C1505 C1499 1.363 . S
C1505 C1500 1.379 . S
C1505 N1503 1.356 . S
N1506 C1498 1.356 . S
N1506 H1512 0.984 . S
N1506 H1513 0.984 . S
N1507 C1500 1.356 . S
N1507 H1510 0.984 . S
N1507 H1511 0.985 . S
H1508 N1503 0.984 . S
H1509 N1503 0.985 . S
H1510 N1507 0.984 . S
H1511 N1507 0.985 . S
H1512 N1506 0.984 . S
H1513 N1506 0.984 . S
H1514 N1502 0.984 . S
H1515 N1502 0.985 . S
C1516 C1517 1.363 . S
C1516 C1522 1.379 . S
C1516 N1524 1.356 . S
C1517 C1516 1.363 . S
C1517 C1523 1.363 . S
C1518 C1519 1.360 1_554 S
C1518 C1523 1.375 1_554 S
C1518 N1525 1.363 . S
C1519 C1518 1.360 1_556 S
C1519 C1522 1.363 . S
N1520 C1522 1.356 1_545 S
N1520 H1532 0.984 . S
N1520 H1533 0.985 . S
N1521 C1523 1.356 . S
N1521 H1526 0.984 . S
N1521 H1527 0.985 . S
C1522 C1516 1.379 . S
C1522 C1519 1.363 . S
C1522 N1520 1.356 1_565 S
C1523 C1517 1.363 . S
C1523 C1518 1.375 1_556 S
C1523 N1521 1.356 . S
N1524 C1516 1.356 . S
N1524 H1530 0.984 . S
N1524 H1531 0.984 . S
N1525 C1518 1.363 . S
N1525 H1528 0.984 1_565 S
N1525 H1529 0.985 . S
H1526 N1521 0.984 . S
H1527 N1521 0.985 . S
H1528 N1525 0.984 1_545 S
H1529 N1525 0.985 . S
H1530 N1524 0.984 . S
H1531 N1524 0.984 . S
H1532 N1520 0.984 . S
H1533 N1520 0.985 . S
C1534 C1535 1.363 . S
C1534 C1540 1.379 . S
C1534 N1542 1.356 . S
C1535 C1534 1.363 . S
C1535 C1541 1.363 . S
C1536 C1537 1.363 . S
C1536 C1541 1.379 . S
C1536 N1543 1.356 . S
C1537 C1536 1.363 . S
C1537 C1540 1.363 . S
N1538 C1540 1.356 . S
N1538 H1550 0.984 . S
N1538 H1551 0.985 . S
N1539 C1541 1.356 . S
N1539 H1544 0.984 . S
N1539 H1545 0.985 . S
C1540 C1534 1.379 . S
C1540 C1537 1.363 . S
C1540 N1538 1.356 . S
C1541 C1535 1.363 . S
C1541 C1536 1.379 . S
C1541 N1539 1.356 . S
N1542 C1534 1.356 . S
N1542 H1548 0.984 . S
N1542 H1549 0.984 . S
N1543 C1536 1.356 . S
N1543 H1546 0.984 1_455 S
N1543 H1547 0.985 . S
H1544 N1539 0.984 . S
H1545 N1539 0.985 . S
H1546 N1543 0.984 1_655 S
H1547 N1543 0.985 . S
H1548 N1542 0.984 . S
H1549 N1542 0.984 . S
H1550 N1538 0.984 . S
H1551 N1538 0.985 . S
C1552 C1553 1.363 . S
C1552 C1558 1.379 . S
C1552 N1560 1.356 . S
C1553 C1552 1.363 . S
C1553 C1559 1.363 . S
C1554 C1555 1.363 . S
C1554 C1559 1.379 . S
C1554 N1561 1.356 1_556 S
C1555 C1554 1.363 . S
C1555 C1558 1.363 . S
N1556 C1558 1.356 . S
N1556 H1568 0.984 . S
N1556 H1569 0.985 . S
N1557 C1559 1.356 . S
N1557 H1562 0.984 . S
N1557 H1563 0.985 1_556 S
C1558 C1552 1.379 . S
C1558 C1555 1.363 . S
C1558 N1556 1.356 . S
C1559 C1553 1.363 . S
C1559 C1554 1.379 . S
C1559 N1557 1.356 . S
N1560 C1552 1.356 . S
N1560 H1566 0.984 . S
N1560 H1567 0.984 . S
N1561 C1554 1.356 1_554 S
N1561 H1564 0.984 . S
N1561 H1565 0.985 . S
H1562 N1557 0.984 . S
H1563 N1557 0.985 1_554 S
H1564 N1561 0.984 . S
H1565 N1561 0.985 . S
H1566 N1560 0.984 . S
H1567 N1560 0.984 . S
H1568 N1556 0.984 . S
H1569 N1556 0.985 . S
C1570 C1571 1.363 . S
C1570 C1576 1.379 . S
C1570 N1578 1.356 . S
C1571 C1570 1.363 . S
C1571 C1577 1.363 . S
C1572 C1573 1.363 . S
C1572 C1577 1.379 . S
C1572 N1579 1.356 . S
C1573 C1572 1.363 . S
C1573 C1576 1.363 . S
N1574 C1576 1.356 . S
N1574 H1586 0.984 . S
N1574 H1587 0.985 . S
N1575 C1577 1.356 . S
N1575 H1580 0.984 . S
N1575 H1581 0.985 . S
C1576 C1570 1.379 . S
C1576 C1573 1.363 . S
C1576 N1574 1.356 . S
C1577 C1571 1.363 . S
C1577 C1572 1.379 . S
C1577 N1575 1.356 . S
N1578 C1570 1.356 . S
N1578 H1584 0.984 . S
N1578 H1585 0.984 . S
N1579 C1572 1.356 . S
N1579 H1582 0.984 . S
N1579 H1583 0.985 . S
H1580 N1575 0.984 . S
H1581 N1575 0.985 . S
H1582 N1579 0.984 . S
H1583 N1579 0.985 . S
H1584 N1578 0.984 . S
H1585 N1578 0.984 . S
H1586 N1574 0.984 . S
H1587 N1574 0.985 . S
C1588 C1589 1.363 . S
C1588 C1594 1.379 . S
C1588 N1596 1.356 . S
C1589 C1588 1.363 . S
C1589 C1595 1.363 . S
C1590 C1591 1.363 . S
C1590 C1595 1.379 . S
C1590 N1597 1.356 . S
C1591 C1590 1.363 . S
C1591 C1594 1.363 . S
N1592 C1594 1.356 . S
N1592 H1604 0.984 . S
N1592 H1605 0.985 . S
N1593 C1595 1.356 . S
N1593 H1598 0.984 . S
N1593 H1599 0.985 . S
C1594 C1588 1.379 . S
C1594 C1591 1.363 . S
C1594 N1592 1.356 . S
C1595 C1589 1.363 . S
C1595 C1590 1.379 . S
C1595 N1593 1.356 . S
N1596 C1588 1.356 . S
N1596 H1602 0.984 . S
N1596 H1603 0.984 . S
N1597 C1590 1.356 . S
N1597 H1600 0.984 . S
N1597 H1601 0.985 . S
H1598 N1593 0.984 . S
H1599 N1593 0.985 . S
H1600 N1597 0.984 . S
H1601 N1597 0.985 . S
H1602 N1596 0.984 . S
H1603 N1596 0.984 . S
H1604 N1592 0.984 . S
H1605 N1592 0.985 . S
C1606 C1607 1.363 . S
C1606 C1612 1.379 . S
C1606 N1614 1.356 . S
C1607 C1606 1.363 . S
C1607 C1613 1.363 . S
C1608 C1609 1.363 . S
C1608 C1613 1.379 . S
C1608 N1615 1.356 . S
C1609 C1608 1.363 . S
C1609 C1612 1.363 . S
N1610 C1612 1.356 . S
N1610 H1622 0.984 . S
N1610 H1623 0.985 . S
N1611 C1613 1.356 . S
N1611 H1616 0.984 . S
N1611 H1617 0.985 . S
C1612 C1606 1.379 . S
C1612 C1609 1.363 . S
C1612 N1610 1.356 . S
C1613 C1607 1.363 . S
C1613 C1608 1.379 . S
C1613 N1611 1.356 . S
N1614 C1606 1.356 . S
N1614 H1620 0.984 . S
N1614 H1621 0.984 . S
N1615 C1608 1.356 . S
N1615 H1618 0.984 . S
N1615 H1619 0.985 . S
H1616 N1611 0.984 . S
H1617 N1611 0.985 . S
H1618 N1615 0.984 . S
H1619 N1615 0.985 . S
H1620 N1614 0.984 . S
H1621 N1614 0.984 . S
H1622 N1610 0.984 . S
H1623 N1610 0.985 . S
C1624 C1625 1.363 . S
C1624 C1630 1.379 . S
C1624 N1632 1.356 . S
C1625 C1624 1.363 . S
C1625 C1631 1.363 . S
C1626 C1627 1.363 . S
C1626 C1631 1.379 . S
C1626 N1633 1.356 . S
C1627 C1626 1.363 . S
C1627 C1630 1.363 . S
N1628 C1630 1.356 . S
N1628 H1640 0.984 . S
N1628 H1641 0.985 . S
N1629 C1631 1.356 . S
N1629 H1634 0.984 . S
N1629 H1635 0.985 . S
C1630 C1624 1.379 . S
C1630 C1627 1.363 . S
C1630 N1628 1.356 . S
C1631 C1625 1.363 . S
C1631 C1626 1.379 . S
C1631 N1629 1.356 . S
N1632 C1624 1.356 . S
N1632 H1638 0.984 . S
N1632 H1639 0.984 . S
N1633 C1626 1.356 . S
N1633 H1636 0.984 . S
N1633 H1637 0.985 . S
H1634 N1629 0.984 . S
H1635 N1629 0.985 . S
H1636 N1633 0.984 . S
H1637 N1633 0.985 . S
H1638 N1632 0.984 . S
H1639 N1632 0.984 . S
H1640 N1628 0.984 . S
H1641 N1628 0.985 . S
C1642 C1643 1.363 . S
C1642 C1648 1.379 . S
C1642 N1650 1.356 . S
C1643 C1642 1.363 . S
C1643 C1649 1.363 . S
C1644 C1645 1.363 . S
C1644 C1649 1.379 . S
C1644 N1651 1.356 . S
C1645 C1644 1.363 . S
C1645 C1648 1.363 . S
N1646 C1648 1.356 . S
N1646 H1658 0.984 . S
N1646 H1659 0.985 . S
N1647 C1649 1.356 . S
N1647 H1652 0.984 . S
N1647 H1653 0.985 . S
C1648 C1642 1.379 . S
C1648 C1645 1.363 . S
C1648 N1646 1.356 . S
C1649 C1643 1.363 . S
C1649 C1644 1.379 . S
C1649 N1647 1.356 . S
N1650 C1642 1.356 . S
N1650 H1656 0.984 . S
N1650 H1657 0.984 . S
N1651 C1644 1.356 . S
N1651 H1654 0.984 . S
N1651 H1655 0.985 . S
H1652 N1647 0.984 . S
H1653 N1647 0.985 . S
H1654 N1651 0.984 . S
H1655 N1651 0.985 . S
H1656 N1650 0.984 . S
H1657 N1650 0.984 . S
H1658 N1646 0.984 . S
H1659 N1646 0.985 . S
C1660 C1661 1.363 . S
C1660 C1666 1.379 . S
C1660 N1668 1.356 . S
C1661 C1660 1.363 . S
C1661 C1667 1.363 . S
C1662 C1663 1.363 . S
C1662 C1667 1.379 . S
C1662 N1669 1.356 . S
C1663 C1662 1.363 . S
C1663 C1666 1.363 . S
N1664 C1666 1.356 . S
N1664 H1676 0.984 . S
N1664 H1677 0.985 . S
N1665 C1667 1.356 . S
N1665 H1670 0.984 . S
N1665 H1671 0.985 . S
C1666 C1660 1.379 . S
C1666 C1663 1.363 . S
C1666 N1664 1.356 . S
C1667 C1661 1.363 . S
C1667 C1662 1.379 . S
C1667 N1665 1.356 . S
N1668 C1660 1.356 . S
N1668 H1674 0.984 . S
N1668 H1675 0.984 . S
N1669 C1662 1.356 . S
N1669 H1672 0.984 . S
N1669 H1673 0.985 . S
H1670 N1665 0.984 . S
H1671 N1665 0.985 . S
H1672 N1669 0.984 . S
H1673 N1669 0.985 . S
H1674 N1668 0.984 . S
H1675 N1668 0.984 . S
H1676 N1664 0.984 . S
H1677 N1664 0.985 . S
C1678 C1679 1.363 . S
C1678 C1684 1.379 . S
C1678 N1686 1.356 . S
C1679 C1678 1.363 . S
C1679 C1685 1.363 . S
C1680 C1681 1.363 . S
C1680 C1685 1.379 . S
C1680 N1687 1.356 . S
C1681 C1680 1.363 . S
C1681 C1684 1.363 . S
N1682 C1684 1.356 . S
N1682 H1694 0.984 . S
N1682 H1695 0.985 . S
N1683 C1685 1.356 . S
N1683 H1688 0.984 . S
N1683 H1689 0.985 . S
C1684 C1678 1.379 . S
C1684 C1681 1.363 . S
C1684 N1682 1.356 . S
C1685 C1679 1.363 . S
C1685 C1680 1.379 . S
C1685 N1683 1.356 . S
N1686 C1678 1.356 . S
N1686 H1692 0.984 . S
N1686 H1693 0.984 . S
N1687 C1680 1.356 . S
N1687 H1690 0.984 . S
N1687 H1691 0.985 . S
H1688 N1683 0.984 . S
H1689 N1683 0.985 . S
H1690 N1687 0.984 . S
H1691 N1687 0.985 . S
H1692 N1686 0.984 . S
H1693 N1686 0.984 . S
H1694 N1682 0.984 . S
H1695 N1682 0.985 . S
C1696 C1697 1.357 1_554 S
C1696 C1702 1.369 1_554 S
C1696 N1704 1.373 . S
C1697 C1696 1.357 1_556 S
C1697 C1703 1.363 . S
C1698 C1699 1.363 . S
C1698 C1703 1.379 . S
C1698 N1705 1.356 . S
C1699 C1698 1.363 . S
C1699 C1702 1.363 . S
N1700 C1702 1.356 . S
N1700 H1712 0.984 1_556 S
N1700 H1713 0.985 . S
N1701 C1703 1.356 . S
N1701 H1706 0.984 . S
N1701 H1707 0.985 . S
C1702 C1696 1.369 1_556 S
C1702 C1699 1.363 . S
C1702 N1700 1.356 . S
C1703 C1697 1.363 . S
C1703 C1698 1.379 . S
C1703 N1701 1.356 . S
N1704 C1696 1.373 . S
N1704 H1710 0.984 . S
N1704 H1711 0.984 . S
N1705 C1698 1.356 . S
N1705 H1708 0.984 . S
N1705 H1709 0.985 . S
H1706 N1701 0.984 . S
H1707 N1701 0.985 . S
H1708 N1705 0.984 . S
H1709 N1705 0.985 . S
H1710 N1704 0.984 . S
H1711 N1704 0.984 . S
H1712 N1700 0.984 1_554 S
H1713 N1700 0.985 . S
C1714 C1715 1.363 . S
C1714 C1720 1.379 . S
C1714 N1722 1.356 1_554 S
C1715 C1714 1.363 . S
C1715 C1721 1.363 . S
C1716 C1717 1.363 . S
C1716 C1721 1.379 . S
C1716 N1723 1.356 . S
C1717 C1716 1.363 . S
C1717 C1720 1.363 . S
N1718 C1720 1.356 1_556 S
N1718 H1730 0.984 . S
N1718 H1731 0.985 . S
N1719 C1721 1.356 . S
N1719 H1724 0.984 . S
N1719 H1725 0.985 . S
C1720 C1714 1.379 . S
C1720 C1717 1.363 . S
C1720 N1718 1.356 1_554 S
C1721 C1715 1.363 . S
C1721 C1716 1.379 . S
C1721 N1719 1.356 . S
N1722 C1714 1.356 1_556 S
N1722 H1728 0.984 . S
N1722 H1729 0.984 1_556 S
N1723 C1716 1.356 . S
N1723 H1726 0.984 . S
N1723 H1727 0.985 . S
H1724 N1719 0.984 . S
H1725 N1719 0.985 . S
H1726 N1723 0.984 . S
H1727 N1723 0.985 . S
H1728 N1722 0.984 . S
H1729 N1722 0.984 1_554 S
H1730 N1718 0.984 . S
H1731 N1718 0.985 . S
C1732 C1733 1.363 . S
C1732 C1738 1.379 . S
C1732 N1740 1.356 . S
C1733 C1732 1.363 . S
C1733 C1739 1.363 . S
C1734 C1735 1.363 . S
C1734 C1739 1.379 . S
C1734 N1741 1.356 . S
C1735 C1734 1.363 . S
C1735 C1738 1.363 . S
N1736 C1738 1.356 . S
N1736 H1748 0.984 . S
N1736 H1749 0.985 . S
N1737 C1739 1.356 . S
N1737 H1742 0.984 . S
N1737 H1743 0.985 . S
C1738 C1732 1.379 . S
C1738 C1735 1.363 . S
C1738 N1736 1.356 . S
C1739 C1733 1.363 . S
C1739 C1734 1.379 . S
C1739 N1737 1.356 . S
N1740 C1732 1.356 . S
N1740 H1746 0.984 . S
N1740 H1747 0.984 . S
N1741 C1734 1.356 . S
N1741 H1744 0.984 . S
N1741 H1745 0.985 . S
H1742 N1737 0.984 . S
H1743 N1737 0.985 . S
H1744 N1741 0.984 . S
H1745 N1741 0.985 . S
H1746 N1740 0.984 . S
H1747 N1740 0.984 . S
H1748 N1736 0.984 . S
H1749 N1736 0.985 . S
C1750 C1751 1.363 . S
C1750 C1756 1.379 . S
C1750 N1758 1.356 . S
C1751 C1750 1.363 . S
C1751 C1757 1.363 . S
C1752 C1753 1.363 . S
C1752 C1757 1.379 . S
C1752 N1759 1.356 . S
C1753 C1752 1.363 . S
C1753 C1756 1.363 . S
N1754 C1756 1.356 . S
N1754 H1766 0.984 . S
N1754 H1767 0.985 . S
N1755 C1757 1.356 . S
N1755 H1760 0.984 . S
N1755 H1761 0.985 . S
C1756 C1750 1.379 . S
C1756 C1753 1.363 . S
C1756 N1754 1.356 . S
C1757 C1751 1.363 . S
C1757 C1752 1.379 . S
C1757 N1755 1.356 . S
N1758 C1750 1.356 . S
N1758 H1764 0.984 . S
N1758 H1765 0.984 . S
N1759 C1752 1.356 . S
N1759 H1762 0.984 . S
N1759 H1763 0.985 . S
H1760 N1755 0.984 . S
H1761 N1755 0.985 . S
H1762 N1759 0.984 . S
H1763 N1759 0.985 . S
H1764 N1758 0.984 . S
H1765 N1758 0.984 . S
H1766 N1754 0.984 . S
H1767 N1754 0.985 . S
C1768 C1769 1.363 . S
C1768 C1774 1.379 . S
C1768 N1776 1.356 . S
C1769 C1768 1.363 . S
C1769 C1775 1.363 . S
C1770 C1771 1.363 . S
C1770 C1775 1.379 . S
C1770 N1777 1.356 . S
C1771 C1770 1.363 . S
C1771 C1774 1.363 . S
N1772 C1774 1.356 . S
N1772 H1784 0.984 . S
N1772 H1785 0.985 . S
N1773 C1775 1.356 . S
N1773 H1778 0.984 . S
N1773 H1779 0.985 . S
C1774 C1768 1.379 . S
C1774 C1771 1.363 . S
C1774 N1772 1.356 . S
C1775 C1769 1.363 . S
C1775 C1770 1.379 . S
C1775 N1773 1.356 . S
N1776 C1768 1.356 . S
N1776 H1782 0.984 . S
N1776 H1783 0.984 . S
N1777 C1770 1.356 . S
N1777 H1780 0.984 . S
N1777 H1781 0.985 . S
H1778 N1773 0.984 . S
H1779 N1773 0.985 . S
H1780 N1777 0.984 . S
H1781 N1777 0.985 . S
H1782 N1776 0.984 . S
H1783 N1776 0.984 . S
H1784 N1772 0.984 . S
H1785 N1772 0.985 . S
C1786 C1787 1.363 . S
C1786 C1792 1.379 . S
C1786 N1794 1.356 . S
C1787 C1786 1.363 . S
C1787 C1793 1.363 1_565 S
C1788 C1789 1.363 . S
C1788 C1793 1.379 . S
C1788 N1795 1.356 . S
C1789 C1788 1.363 . S
C1789 C1792 1.363 1_545 S
N1790 C1792 1.356 . S
N1790 H1802 0.984 . S
N1790 H1803 0.985 . S
N1791 C1793 1.356 . S
N1791 H1796 0.984 . S
N1791 H1797 0.985 . S
C1792 C1786 1.379 . S
C1792 C1789 1.363 1_565 S
C1792 N1790 1.356 . S
C1793 C1787 1.363 1_545 S
C1793 C1788 1.379 . S
C1793 N1791 1.356 . S
N1794 C1786 1.356 . S
N1794 H1800 0.984 . S
N1794 H1801 0.984 . S
N1795 C1788 1.356 . S
N1795 H1798 0.984 . S
N1795 H1799 0.985 . S
H1796 N1791 0.984 . S
H1797 N1791 0.985 . S
H1798 N1795 0.984 . S
H1799 N1795 0.985 . S
H1800 N1794 0.984 . S
H1801 N1794 0.984 . S
H1802 N1790 0.984 . S
H1803 N1790 0.985 . S
C1804 C1805 1.363 . S
C1804 C1810 1.379 . S
C1804 N1812 1.356 . S
C1805 C1804 1.363 . S
C1805 C1811 1.363 . S
C1806 C1807 1.363 . S
C1806 C1811 1.379 . S
C1806 N1813 1.356 . S
C1807 C1806 1.363 . S
C1807 C1810 1.363 . S
N1808 C1810 1.356 . S
N1808 H1820 0.984 . S
N1808 H1821 0.985 . S
N1809 C1811 1.356 . S
N1809 H1814 0.984 . S
N1809 H1815 0.985 . S
C1810 C1804 1.379 . S
C1810 C1807 1.363 . S
C1810 N1808 1.356 . S
C1811 C1805 1.363 . S
C1811 C1806 1.379 . S
C1811 N1809 1.356 . S
N1812 C1804 1.356 . S
N1812 H1818 0.984 . S
N1812 H1819 0.984 . S
N1813 C1806 1.356 . S
N1813 H1816 0.984 . S
N1813 H1817 0.985 . S
H1814 N1809 0.984 . S
H1815 N1809 0.985 . S
H1816 N1813 0.984 . S
H1817 N1813 0.985 . S
H1818 N1812 0.984 . S
H1819 N1812 0.984 . S
H1820 N1808 0.984 . S
H1821 N1808 0.985 . S
C1822 C1823 1.363 . S
C1822 C1828 1.379 . S
C1822 N1830 1.356 . S
C1823 C1822 1.363 . S
C1823 C1829 1.363 . S
C1824 C1825 1.363 . S
C1824 C1829 1.379 . S
C1824 N1831 1.356 . S
C1825 C1824 1.363 . S
C1825 C1828 1.363 . S
N1826 C1828 1.356 . S
N1826 H1838 0.984 . S
N1826 H1839 0.985 . S
N1827 C1829 1.356 . S
N1827 H1832 0.984 . S
N1827 H1833 0.985 . S
C1828 C1822 1.379 . S
C1828 C1825 1.363 . S
C1828 N1826 1.356 . S
C1829 C1823 1.363 . S
C1829 C1824 1.379 . S
C1829 N1827 1.356 . S
N1830 C1822 1.356 . S
N1830 H1836 0.984 . S
N1830 H1837 0.984 . S
N1831 C1824 1.356 . S
N1831 H1834 0.984 . S
N1831 H1835 0.985 . S
H1832 N1827 0.984 . S
H1833 N1827 0.985 . S
H1834 N1831 0.984 . S
H1835 N1831 0.985 . S
H1836 N1830 0.984 . S
H1837 N1830 0.984 . S
H1838 N1826 0.984 . S
H1839 N1826 0.985 . S
C1840 C1841 1.363 . S
C1840 C1846 1.379 . S
C1840 N1848 1.356 . S
C1841 C1840 1.363 . S
C1841 C1847 1.363 . S
C1842 C1843 1.363 . S
C1842 C1847 1.379 . S
C1842 N1849 1.356 . S
C1843 C1842 1.363 . S
C1843 C1846 1.363 . S
N1844 C1846 1.356 . S
N1844 H1856 0.984 . S
N1844 H1857 0.985 . S
N1845 C1847 1.356 . S
N1845 H1850 0.984 . S
N1845 H1851 0.985 . S
C1846 C1840 1.379 . S
C1846 C1843 1.363 . S
C1846 N1844 1.356 . S
C1847 C1841 1.363 . S
C1847 C1842 1.379 . S
C1847 N1845 1.356 . S
N1848 C1840 1.356 . S
N1848 H1854 0.984 . S
N1848 H1855 0.984 . S
N1849 C1842 1.356 . S
N1849 H1852 0.984 . S
N1849 H1853 0.985 . S
H1850 N1845 0.984 . S
H1851 N1845 0.985 . S
H1852 N1849 0.984 . S
H1853 N1849 0.985 . S
H1854 N1848 0.984 . S
H1855 N1848 0.984 . S
H1856 N1844 0.984 . S
H1857 N1844 0.985 . S
C1858 C1859 1.363 . S
C1858 C1864 1.379 . S
C1858 N1866 1.356 . S
C1859 C1858 1.363 . S
C1859 C1865 1.363 . S
C1860 C1861 1.363 . S
C1860 C1865 1.379 . S
C1860 N1867 1.356 . S
C1861 C1860 1.363 . S
C1861 C1864 1.363 . S
N1862 C1864 1.356 . S
N1862 H1874 0.984 . S
N1862 H1875 0.985 . S
N1863 C1865 1.356 . S
N1863 H1868 0.984 . S
N1863 H1869 0.985 . S
C1864 C1858 1.379 . S
C1864 C1861 1.363 . S
C1864 N1862 1.356 . S
C1865 C1859 1.363 . S
C1865 C1860 1.379 . S
C1865 N1863 1.356 . S
N1866 C1858 1.356 . S
N1866 H1872 0.984 . S
N1866 H1873 0.984 . S
N1867 C1860 1.356 . S
N1867 H1870 0.984 . S
N1867 H1871 0.985 . S
H1868 N1863 0.984 . S
H1869 N1863 0.985 . S
H1870 N1867 0.984 . S
H1871 N1867 0.985 . S
H1872 N1866 0.984 . S
H1873 N1866 0.984 . S
H1874 N1862 0.984 . S
H1875 N1862 0.985 . S
C1876 C1877 1.363 . S
C1876 C1882 1.379 . S
C1876 N1884 1.356 . S
C1877 C1876 1.363 . S
C1877 C1883 1.363 . S
C1878 C1879 1.363 . S
C1878 C1883 1.379 . S
C1878 N1885 1.356 1_556 S
C1879 C1878 1.363 . S
C1879 C1882 1.363 . S
N1880 C1882 1.356 . S
N1880 H1892 0.984 . S
N1880 H1893 0.985 . S
N1881 C1883 1.356 . S
N1881 H1886 0.984 . S
N1881 H1887 0.985 1_456 S
C1882 C1876 1.379 . S
C1882 C1879 1.363 . S
C1882 N1880 1.356 . S
C1883 C1877 1.363 . S
C1883 C1878 1.379 . S
C1883 N1881 1.356 . S
N1884 C1876 1.356 . S
N1884 H1890 0.984 . S
N1884 H1891 0.984 . S
N1885 C1878 1.356 1_554 S
N1885 H1888 0.984 . S
N1885 H1889 0.985 . S
H1886 N1881 0.984 . S
H1887 N1881 0.985 1_654 S
H1888 N1885 0.984 . S
H1889 N1885 0.985 . S
H1890 N1884 0.984 . S
H1891 N1884 0.984 . S
H1892 N1880 0.984 . S
H1893 N1880 0.985 . S
C1894 C1895 1.352 1_655 S
C1894 C1900 1.395 . S
C1894 N1902 1.346 1_655 S
C1895 C1894 1.352 1_455 S
C1895 C1901 1.363 . S
C1896 C1897 1.363 . S
C1896 C1901 1.379 1_655 S
C1896 N1903 1.356 . S
C1897 C1896 1.363 . S
C1897 C1900 1.363 . S
N1898 C1900 1.356 . S
N1898 H1910 0.984 . S
N1898 H1911 0.985 . S
N1899 C1901 1.356 . S
N1899 H1904 0.984 . S
N1899 H1905 0.985 . S
C1900 C1894 1.395 . S
C1900 C1897 1.363 . S
C1900 N1898 1.356 . S
C1901 C1895 1.363 . S
C1901 C1896 1.379 1_455 S
C1901 N1899 1.356 . S
N1902 C1894 1.346 1_455 S
N1902 H1908 0.984 1_455 S
N1902 H1909 0.984 . S
N1903 C1896 1.356 . S
N1903 H1906 0.984 . S
N1903 H1907 0.985 . S
H1904 N1899 0.984 . S
H1905 N1899 0.985 . S
H1906 N1903 0.984 . S
H1907 N1903 0.985 . S
H1908 N1902 0.984 1_655 S
H1909 N1902 0.984 . S
H1910 N1898 0.984 . S
H1911 N1898 0.985 . S
C1912 C1913 1.363 . S
C1912 C1918 1.379 . S
C1912 N1920 1.356 . S
C1913 C1912 1.363 . S
C1913 C1919 1.363 . S
C1914 C1915 1.363 . S
C1914 C1919 1.379 . S
C1914 N1921 1.356 . S
C1915 C1914 1.363 . S
C1915 C1918 1.363 . S
N1916 C1918 1.356 . S
N1916 H1928 0.984 . S
N1916 H1929 0.985 . S
N1917 C1919 1.356 . S
N1917 H1922 0.984 . S
N1917 H1923 0.985 . S
C1918 C1912 1.379 . S
C1918 C1915 1.363 . S
C1918 N1916 1.356 . S
C1919 C1913 1.363 . S
C1919 C1914 1.379 . S
C1919 N1917 1.356 . S
N1920 C1912 1.356 . S
N1920 H1926 0.984 . S
N1920 H1927 0.984 . S
N1921 C1914 1.356 . S
N1921 H1924 0.984 . S
N1921 H1925 0.985 . S
H1922 N1917 0.984 . S
H1923 N1917 0.985 . S
H1924 N1921 0.984 . S
H1925 N1921 0.985 . S
H1926 N1920 0.984 . S
H1927 N1920 0.984 . S
H1928 N1916 0.984 . S
H1929 N1916 0.985 . S
C1930 C1931 1.363 . S
C1930 C1936 1.379 . S
C1930 N1938 1.356 . S
C1931 C1930 1.363 . S
C1931 C1937 1.363 . S
C1932 C1933 1.363 . S
C1932 C1937 1.379 . S
C1932 N1939 1.356 . S
C1933 C1932 1.363 . S
C1933 C1936 1.363 . S
N1934 C1936 1.356 . S
N1934 H1946 0.984 . S
N1934 H1947 0.985 . S
N1935 C1937 1.356 . S
N1935 H1940 0.984 . S
N1935 H1941 0.985 . S
C1936 C1930 1.379 . S
C1936 C1933 1.363 . S
C1936 N1934 1.356 . S
C1937 C1931 1.363 . S
C1937 C1932 1.379 . S
C1937 N1935 1.356 . S
N1938 C1930 1.356 . S
N1938 H1944 0.984 . S
N1938 H1945 0.984 . S
N1939 C1932 1.356 . S
N1939 H1942 0.984 . S
N1939 H1943 0.985 . S
H1940 N1935 0.984 . S
H1941 N1935 0.985 . S
H1942 N1939 0.984 . S
H1943 N1939 0.985 . S
H1944 N1938 0.984 . S
H1945 N1938 0.984 . S
H1946 N1934 0.984 . S
H1947 N1934 0.985 . S
C1948 C1949 1.363 . S
C1948 C1954 1.379 . S
C1948 N1956 1.356 . S
C1949 C1948 1.363 . S
C1949 C1955 1.363 . S
C1950 C1951 1.363 . S
C1950 C1955 1.379 . S
C1950 N1957 1.356 . S
C1951 C1950 1.363 . S
C1951 C1954 1.363 . S
N1952 C1954 1.356 . S
N1952 H1964 0.984 . S
N1952 H1965 0.985 . S
N1953 C1955 1.356 . S
N1953 H1958 0.984 . S
N1953 H1959 0.985 . S
C1954 C1948 1.379 . S
C1954 C1951 1.363 . S
C1954 N1952 1.356 . S
C1955 C1949 1.363 . S
C1955 C1950 1.379 . S
C1955 N1953 1.356 . S
N1956 C1948 1.356 . S
N1956 H1962 0.984 . S
N1956 H1963 0.984 . S
N1957 C1950 1.356 . S
N1957 H1960 0.984 . S
N1957 H1961 0.985 . S
H1958 N1953 0.984 . S
H1959 N1953 0.985 . S
H1960 N1957 0.984 . S
H1961 N1957 0.985 . S
H1962 N1956 0.984 . S
H1963 N1956 0.984 . S
H1964 N1952 0.984 . S
H1965 N1952 0.985 . S
C1966 C1967 1.363 . S
C1966 C1972 1.379 . S
C1966 N1974 1.356 . S
C1967 C1966 1.363 . S
C1967 C1973 1.363 . S
C1968 C1969 1.363 . S
C1968 C1973 1.379 . S
C1968 N1975 1.356 . S
C1969 C1968 1.363 . S
C1969 C1972 1.363 . S
N1970 C1972 1.356 . S
N1970 H1982 0.984 . S
N1970 H1983 0.985 . S
N1971 C1973 1.356 . S
N1971 H1976 0.984 . S
N1971 H1977 0.985 . S
C1972 C1966 1.379 . S
C1972 C1969 1.363 . S
C1972 N1970 1.356 . S
C1973 C1967 1.363 . S
C1973 C1968 1.379 . S
C1973 N1971 1.356 . S
N1974 C1966 1.356 . S
N1974 H1980 0.984 . S
N1974 H1981 0.984 . S
N1975 C1968 1.356 . S
N1975 H1978 0.984 . S
N1975 H1979 0.985 . S
H1976 N1971 0.984 . S
H1977 N1971 0.985 . S
H1978 N1975 0.984 . S
H1979 N1975 0.985 . S
H1980 N1974 0.984 . S
H1981 N1974 0.984 . S
H1982 N1970 0.984 . S
H1983 N1970 0.985 . S
C1984 C1985 1.363 . S
C1984 C1990 1.379 . S
C1984 N1992 1.356 . S
C1985 C1984 1.363 . S
C1985 C1991 1.363 . S
C1986 C1987 1.363 . S
C1986 C1991 1.379 . S
C1986 N1993 1.356 . S
C1987 C1986 1.363 . S
C1987 C1990 1.363 . S
N1988 C1990 1.356 . S
N1988 H2000 0.984 . S
N1988 H2001 0.985 . S
N1989 C1991 1.356 . S
N1989 H1994 0.984 . S
N1989 H1995 0.985 . S
C1990 C1984 1.379 . S
C1990 C1987 1.363 . S
C1990 N1988 1.356 . S
C1991 C1985 1.363 . S
C1991 C1986 1.379 . S
C1991 N1989 1.356 . S
N1992 C1984 1.356 . S
N1992 H1998 0.984 . S
N1992 H1999 0.984 . S
N1993 C1986 1.356 . S
N1993 H1996 0.984 . S
N1993 H1997 0.985 . S
H1994 N1989 0.984 . S
H1995 N1989 0.985 . S
H1996 N1993 0.984 . S
H1997 N1993 0.985 . S
H1998 N1992 0.984 . S
H1999 N1992 0.984 . S
H2000 N1988 0.984 . S
H2001 N1988 0.985 . S
C2002 C2003 1.363 . S
C2002 C2008 1.379 . S
C2002 N2010 1.356 . S
C2003 C2002 1.363 . S
C2003 C2009 1.363 . S
C2004 C2005 1.363 . S
C2004 C2009 1.379 . S
C2004 N2011 1.356 . S
C2005 C2004 1.363 . S
C2005 C2008 1.363 . S
N2006 C2008 1.356 . S
N2006 H2018 0.984 . S
N2006 H2019 0.985 . S
N2007 C2009 1.356 . S
N2007 H2012 0.984 . S
N2007 H2013 0.985 . S
C2008 C2002 1.379 . S
C2008 C2005 1.363 . S
C2008 N2006 1.356 . S
C2009 C2003 1.363 . S
C2009 C2004 1.379 . S
C2009 N2007 1.356 . S
N2010 C2002 1.356 . S
N2010 H2016 0.984 . S
N2010 H2017 0.984 . S
N2011 C2004 1.356 . S
N2011 H2014 0.984 . S
N2011 H2015 0.985 . S
H2012 N2007 0.984 . S
H2013 N2007 0.985 . S
H2014 N2011 0.984 . S
H2015 N2011 0.985 . S
H2016 N2010 0.984 . S
H2017 N2010 0.984 . S
H2018 N2006 0.984 . S
H2019 N2006 0.985 . S
C2020 C2021 1.363 . S
C2020 C2026 1.379 . S
C2020 N2028 1.356 . S
C2021 C2020 1.363 . S
C2021 C2027 1.363 . S
C2022 C2023 1.363 . S
C2022 C2027 1.379 . S
C2022 N2029 1.356 . S
C2023 C2022 1.363 . S
C2023 C2026 1.363 . S
N2024 C2026 1.356 . S
N2024 H2036 0.984 . S
N2024 H2037 0.985 . S
N2025 C2027 1.356 . S
N2025 H2030 0.984 . S
N2025 H2031 0.985 . S
C2026 C2020 1.379 . S
C2026 C2023 1.363 . S
C2026 N2024 1.356 . S
C2027 C2021 1.363 . S
C2027 C2022 1.379 . S
C2027 N2025 1.356 . S
N2028 C2020 1.356 . S
N2028 H2034 0.984 . S
N2028 H2035 0.984 . S
N2029 C2022 1.356 . S
N2029 H2032 0.984 . S
N2029 H2033 0.985 . S
H2030 N2025 0.984 . S
H2031 N2025 0.985 . S
H2032 N2029 0.984 . S
H2033 N2029 0.985 . S
H2034 N2028 0.984 . S
H2035 N2028 0.984 . S
H2036 N2024 0.984 . S
H2037 N2024 0.985 . S
C2038 C2039 1.363 . S
C2038 C2044 1.379 . S
C2038 N2046 1.356 . S
C2039 C2038 1.363 . S
C2039 C2045 1.363 . S
C2040 C2041 1.363 . S
C2040 C2045 1.379 . S
C2040 N2047 1.356 . S
C2041 C2040 1.363 . S
C2041 C2044 1.363 . S
N2042 C2044 1.356 . S
N2042 H2054 0.984 . S
N2042 H2055 0.985 . S
N2043 C2045 1.356 . S
N2043 H2048 0.984 . S
N2043 H2049 0.985 . S
C2044 C2038 1.379 . S
C2044 C2041 1.363 . S
C2044 N2042 1.356 . S
C2045 C2039 1.363 . S
C2045 C2040 1.379 . S
C2045 N2043 1.356 . S
N2046 C2038 1.356 . S
N2046 H2052 0.984 . S
N2046 H2053 0.984 . S
N2047 C2040 1.356 . S
N2047 H2050 0.984 . S
N2047 H2051 0.985 . S
H2048 N2043 0.984 . S
H2049 N2043 0.985 . S
H2050 N2047 0.984 . S
H2051 N2047 0.985 . S
H2052 N2046 0.984 . S
H2053 N2046 0.984 . S
H2054 N2042 0.984 . S
H2055 N2042 0.985 . S
C2056 C2057 1.363 . S
C2056 C2062 1.379 . S
C2056 N2064 1.356 . S
C2057 C2056 1.363 . S
C2057 C2063 1.363 . S
C2058 C2059 1.363 . S
C2058 C2063 1.379 . S
C2058 N2065 1.356 . S
C2059 C2058 1.363 . S
C2059 C2062 1.363 . S
N2060 C2062 1.356 . S
N2060 H2072 0.984 . S
N2060 H2073 0.985 . S
N2061 C2063 1.356 . S
N2061 H2066 0.984 . S
N2061 H2067 0.985 . S
C2062 C2056 1.379 . S
C2062 C2059 1.363 . S
C2062 N2060 1.356 . S
C2063 C2057 1.363 . S
C2063 C2058 1.379 . S
C2063 N2061 1.356 . S
N2064 C2056 1.356 . S
N2064 H2070 0.984 . S
N2064 H2071 0.984 . S
N2065 C2058 1.356 . S
N2065 H2068 0.984 . S
N2065 H2069 0.985 . S
H2066 N2061 0.984 . S
H2067 N2061 0.985 . S
H2068 N2065 0.984 . S
H2069 N2065 0.985 . S
H2070 N2064 0.984 . S
H2071 N2064 0.984 . S
H2072 N2060 0.984 . S
H2073 N2060 0.985 . S
C2074 C2075 1.363 . S
C2074 C2080 1.379 . S
C2074 N2082 1.356 . S
C2075 C2074 1.363 . S
C2075 C2081 1.363 . S
C2076 C2077 1.363 . S
C2076 C2081 1.379 . S
C2076 N2083 1.356 . S
C2077 C2076 1.363 . S
C2077 C2080 1.363 . S
N2078 C2080 1.356 . S
N2078 H2090 0.984 . S
N2078 H2091 0.985 . S
N2079 C2081 1.356 . S
N2079 H2084 0.984 . S
N2079 H2085 0.985 . S
C2080 C2074 1.379 . S
C2080 C2077 1.363 . S
C2080 N2078 1.356 . S
C2081 C2075 1.363 . S
C2081 C2076 1.379 . S
C2081 N2079 1.356 . S
N2082 C2074 1.356 . S
N2082 H2088 0.984 . S
N2082 H2089 0.984 . S
N2083 C2076 1.356 . S
N2083 H2086 0.984 . S
N2083 H2087 0.985 . S
H2084 N2079 0.984 . S
H2085 N2079 0.985 . S
H2086 N2083 0.984 . S
H2087 N2083 0.985 . S
H2088 N2082 0.984 . S
H2089 N2082 0.984 . S
H2090 N2078 0.984 . S
H2091 N2078 0.985 . S
C2092 C2093 1.363 . S
C2092 C2098 1.379 . S
C2092 N2100 1.356 . S
C2093 C2092 1.363 . S
C2093 C2099 1.363 . S
C2094 C2095 1.363 . S
C2094 C2099 1.379 . S
C2094 N2101 1.356 . S
C2095 C2094 1.363 . S
C2095 C2098 1.363 . S
N2096 C2098 1.356 . S
N2096 H2108 0.984 . S
N2096 H2109 0.985 . S
N2097 C2099 1.356 . S
N2097 H2102 0.984 . S
N2097 H2103 0.985 . S
C2098 C2092 1.379 . S
C2098 C2095 1.363 . S
C2098 N2096 1.356 . S
C2099 C2093 1.363 . S
C2099 C2094 1.379 . S
C2099 N2097 1.356 . S
N2100 C2092 1.356 . S
N2100 H2106 0.984 . S
N2100 H2107 0.984 . S
N2101 C2094 1.356 . S
N2101 H2104 0.984 . S
N2101 H2105 0.985 . S
H2102 N2097 0.984 . S
H2103 N2097 0.985 . S
H2104 N2101 0.984 . S
H2105 N2101 0.985 . S
H2106 N2100 0.984 . S
H2107 N2100 0.984 . S
H2108 N2096 0.984 . S
H2109 N2096 0.985 . S
C2110 C2111 1.363 . S
C2110 C2116 1.379 . S
C2110 N2118 1.356 . S
C2111 C2110 1.363 . S
C2111 C2117 1.363 . S
C2112 C2113 1.363 . S
C2112 C2117 1.379 . S
C2112 N2119 1.356 . S
C2113 C2112 1.363 . S
C2113 C2116 1.363 . S
N2114 C2116 1.356 . S
N2114 H2126 0.984 . S
N2114 H2127 0.985 . S
N2115 C2117 1.356 . S
N2115 H2120 0.984 . S
N2115 H2121 0.985 . S
C2116 C2110 1.379 . S
C2116 C2113 1.363 . S
C2116 N2114 1.356 . S
C2117 C2111 1.363 . S
C2117 C2112 1.379 . S
C2117 N2115 1.356 . S
N2118 C2110 1.356 . S
N2118 H2124 0.984 . S
N2118 H2125 0.984 . S
N2119 C2112 1.356 . S
N2119 H2122 0.984 . S
N2119 H2123 0.985 . S
H2120 N2115 0.984 . S
H2121 N2115 0.985 . S
H2122 N2119 0.984 . S
H2123 N2119 0.985 . S
H2124 N2118 0.984 . S
H2125 N2118 0.984 . S
H2126 N2114 0.984 . S
H2127 N2114 0.985 . S
C2128 C2129 1.363 . S
C2128 C2134 1.379 . S
C2128 N2136 1.356 . S
C2129 C2128 1.363 . S
C2129 C2135 1.363 . S
C2130 C2131 1.363 . S
C2130 C2135 1.379 . S
C2130 N2137 1.356 . S
C2131 C2130 1.363 . S
C2131 C2134 1.363 . S
N2132 C2134 1.356 . S
N2132 H2144 0.984 . S
N2132 H2145 0.985 . S
N2133 C2135 1.356 . S
N2133 H2138 0.984 . S
N2133 H2139 0.985 . S
C2134 C2128 1.379 . S
C2134 C2131 1.363 . S
C2134 N2132 1.356 . S
C2135 C2129 1.363 . S
C2135 C2130 1.379 . S
C2135 N2133 1.356 . S
N2136 C2128 1.356 . S
N2136 H2142 0.984 . S
N2136 H2143 0.984 . S
N2137 C2130 1.356 . S
N2137 H2140 0.984 . S
N2137 H2141 0.985 . S
H2138 N2133 0.984 . S
H2139 N2133 0.985 . S
H2140 N2137 0.984 . S
H2141 N2137 0.985 . S
H2142 N2136 0.984 . S
H2143 N2136 0.984 . S
H2144 N2132 0.984 . S
H2145 N2132 0.985 . S
C2146 C2147 1.363 . S
C2146 C2152 1.379 . S
C2146 N2154 1.356 . S
C2147 C2146 1.363 . S
C2147 C2153 1.363 . S
C2148 C2149 1.363 . S
C2148 C2153 1.379 . S
C2148 N2155 1.356 . S
C2149 C2148 1.363 . S
C2149 C2152 1.363 . S
N2150 C2152 1.356 . S
N2150 H2162 0.984 . S
N2150 H2163 0.985 . S
N2151 C2153 1.356 . S
N2151 H2156 0.984 . S
N2151 H2157 0.985 . S
C2152 C2146 1.379 . S
C2152 C2149 1.363 . S
C2152 N2150 1.356 . S
C2153 C2147 1.363 . S
C2153 C2148 1.379 . S
C2153 N2151 1.356 . S
N2154 C2146 1.356 . S
N2154 H2160 0.984 . S
N2154 H2161 0.984 . S
N2155 C2148 1.356 . S
N2155 H2158 0.984 . S
N2155 H2159 0.985 . S
H2156 N2151 0.984 . S
H2157 N2151 0.985 . S
H2158 N2155 0.984 . S
H2159 N2155 0.985 . S
H2160 N2154 0.984 . S
H2161 N2154 0.984 . S
H2162 N2150 0.984 . S
H2163 N2150 0.985 . S
C2164 C2165 1.363 . S
C2164 C2170 1.379 . S
C2164 N2172 1.356 . S
C2165 C2164 1.363 . S
C2165 C2171 1.363 . S
C2166 C2167 1.363 . S
C2166 C2171 1.379 . S
C2166 N2173 1.356 . S
C2167 C2166 1.363 . S
C2167 C2170 1.363 . S
N2168 C2170 1.356 . S
N2168 H2180 0.984 1_545 S
N2168 H2181 0.985 . S
N2169 C2171 1.356 . S
N2169 H2174 0.984 . S
N2169 H2175 0.985 . S
C2170 C2164 1.379 . S
C2170 C2167 1.363 . S
C2170 N2168 1.356 . S
C2171 C2165 1.363 . S
C2171 C2166 1.379 . S
C2171 N2169 1.356 . S
N2172 C2164 1.356 . S
N2172 H2178 0.984 . S
N2172 H2179 0.984 . S
N2173 C2166 1.356 . S
N2173 H2176 0.984 . S
N2173 H2177 0.985 . S
H2174 N2169 0.984 . S
H2175 N2169 0.985 . S
H2176 N2173 0.984 . S
H2177 N2173 0.985 . S
H2178 N2172 0.984 . S
H2179 N2172 0.984 . S
H2180 N2168 0.984 1_565 S
H2181 N2168 0.985 . S
C2182 C2183 1.363 . S
C2182 C2188 1.379 . S
C2182 N2190 1.356 1_545 S
C2183 C2182 1.363 . S
C2183 C2189 1.363 . S
C2184 C2185 1.363 . S
C2184 C2189 1.379 . S
C2184 N2191 1.356 . S
C2185 C2184 1.363 . S
C2185 C2188 1.363 . S
N2186 C2188 1.356 . S
N2186 H2198 0.984 . S
N2186 H2199 0.985 . S
N2187 C2189 1.356 . S
N2187 H2192 0.984 . S
N2187 H2193 0.985 . S
C2188 C2182 1.379 . S
C2188 C2185 1.363 . S
C2188 N2186 1.356 . S
C2189 C2183 1.363 . S
C2189 C2184 1.379 . S
C2189 N2187 1.356 . S
N2190 C2182 1.356 1_565 S
N2190 H2196 0.984 . S
N2190 H2197 0.984 . S
N2191 C2184 1.356 . S
N2191 H2194 0.984 . S
N2191 H2195 0.985 . S
H2192 N2187 0.984 . S
H2193 N2187 0.985 . S
H2194 N2191 0.984 . S
H2195 N2191 0.985 . S
H2196 N2190 0.984 . S
H2197 N2190 0.984 . S
H2198 N2186 0.984 . S
H2199 N2186 0.985 . S
C2200 C2201 1.363 . S
C2200 C2206 1.379 . S
C2200 N2208 1.356 . S
C2201 C2200 1.363 . S
C2201 C2207 1.363 . S
C2202 C2203 1.363 . S
C2202 C2207 1.379 . S
C2202 N2209 1.356 . S
C2203 C2202 1.363 . S
C2203 C2206 1.363 . S
N2204 C2206 1.356 . S
N2204 H2216 0.984 . S
N2204 H2217 0.985 . S
N2205 C2207 1.356 . S
N2205 H2210 0.984 . S
N2205 H2211 0.985 . S
C2206 C2200 1.379 . S
C2206 C2203 1.363 . S
C2206 N2204 1.356 . S
C2207 C2201 1.363 . S
C2207 C2202 1.379 . S
C2207 N2205 1.356 . S
N2208 C2200 1.356 . S
N2208 H2214 0.984 . S
N2208 H2215 0.984 . S
N2209 C2202 1.356 . S
N2209 H2212 0.984 . S
N2209 H2213 0.985 . S
H2210 N2205 0.984 . S
H2211 N2205 0.985 . S
H2212 N2209 0.984 . S
H2213 N2209 0.985 . S
H2214 N2208 0.984 . S
H2215 N2208 0.984 . S
H2216 N2204 0.984 . S
H2217 N2204 0.985 . S
C2218 C2219 1.363 . S
C2218 C2224 1.379 . S
C2218 N2226 1.356 . S
C2219 C2218 1.363 . S
C2219 C2225 1.363 . S
C2220 C2221 1.363 . S
C2220 C2225 1.379 . S
C2220 N2227 1.356 . S
C2221 C2220 1.363 . S
C2221 C2224 1.363 . S
N2222 C2224 1.356 . S
N2222 H2234 0.984 . S
N2222 H2235 0.985 . S
N2223 C2225 1.356 1_556 S
N2223 H2228 0.984 . S
N2223 H2229 0.985 . S
C2224 C2218 1.379 . S
C2224 C2221 1.363 . S
C2224 N2222 1.356 . S
C2225 C2219 1.363 . S
C2225 C2220 1.379 . S
C2225 N2223 1.356 1_554 S
N2226 C2218 1.356 . S
N2226 H2232 0.984 . S
N2226 H2233 0.984 . S
N2227 C2220 1.356 . S
N2227 H2230 0.984 . S
N2227 H2231 0.985 . S
H2228 N2223 0.984 . S
H2229 N2223 0.985 . S
H2230 N2227 0.984 . S
H2231 N2227 0.985 . S
H2232 N2226 0.984 . S
H2233 N2226 0.984 . S
H2234 N2222 0.984 . S
H2235 N2222 0.985 . S
C2236 C2237 1.363 . S
C2236 C2242 1.379 . S
C2236 N2244 1.356 . S
C2237 C2236 1.363 . S
C2237 C2243 1.363 . S
C2238 C2239 1.363 . S
C2238 C2243 1.379 . S
C2238 N2245 1.356 . S
C2239 C2238 1.363 . S
C2239 C2242 1.363 . S
N2240 C2242 1.356 . S
N2240 H2252 0.984 . S
N2240 H2253 0.985 . S
N2241 C2243 1.356 . S
N2241 H2246 0.984 . S
N2241 H2247 0.985 . S
C2242 C2236 1.379 . S
C2242 C2239 1.363 . S
C2242 N2240 1.356 . S
C2243 C2237 1.363 . S
C2243 C2238 1.379 . S
C2243 N2241 1.356 . S
N2244 C2236 1.356 . S
N2244 H2250 0.984 . S
N2244 H2251 0.984 . S
N2245 C2238 1.356 . S
N2245 H2248 0.984 . S
N2245 H2249 0.985 . S
H2246 N2241 0.984 . S
H2247 N2241 0.985 . S
H2248 N2245 0.984 . S
H2249 N2245 0.985 . S
H2250 N2244 0.984 . S
H2251 N2244 0.984 . S
H2252 N2240 0.984 . S
H2253 N2240 0.985 . S
C2254 C2255 1.363 . S
C2254 C2260 1.379 . S
C2254 N2262 1.356 . S
C2255 C2254 1.363 . S
C2255 C2261 1.363 . S
C2256 C2257 1.363 . S
C2256 C2261 1.379 . S
C2256 N2263 1.356 . S
C2257 C2256 1.363 . S
C2257 C2260 1.363 . S
N2258 C2260 1.356 . S
N2258 H2270 0.984 . S
N2258 H2271 0.985 . S
N2259 C2261 1.356 . S
N2259 H2264 0.984 . S
N2259 H2265 0.985 . S
C2260 C2254 1.379 . S
C2260 C2257 1.363 . S
C2260 N2258 1.356 . S
C2261 C2255 1.363 . S
C2261 C2256 1.379 . S
C2261 N2259 1.356 . S
N2262 C2254 1.356 . S
N2262 H2268 0.984 . S
N2262 H2269 0.984 . S
N2263 C2256 1.356 . S
N2263 H2266 0.984 . S
N2263 H2267 0.985 . S
H2264 N2259 0.984 . S
H2265 N2259 0.985 . S
H2266 N2263 0.984 . S
H2267 N2263 0.985 . S
H2268 N2262 0.984 . S
H2269 N2262 0.984 . S
H2270 N2258 0.984 . S
H2271 N2258 0.985 . S
C2272 C2273 1.363 . S
C2272 C2278 1.379 . S
C2272 N2280 1.356 . S
C2273 C2272 1.363 . S
C2273 C2279 1.363 . S
C2274 C2275 1.363 . S
C2274 C2279 1.379 . S
C2274 N2281 1.356 . S
C2275 C2274 1.363 . S
C2275 C2278 1.363 . S
N2276 C2278 1.356 . S
N2276 H2288 0.984 . S
N2276 H2289 0.985 . S
N2277 C2279 1.356 . S
N2277 H2282 0.984 . S
N2277 H2283 0.985 . S
C2278 C2272 1.379 . S
C2278 C2275 1.363 . S
C2278 N2276 1.356 . S
C2279 C2273 1.363 . S
C2279 C2274 1.379 . S
C2279 N2277 1.356 . S
N2280 C2272 1.356 . S
N2280 H2286 0.984 . S
N2280 H2287 0.984 . S
N2281 C2274 1.356 . S
N2281 H2284 0.984 . S
N2281 H2285 0.985 . S
H2282 N2277 0.984 . S
H2283 N2277 0.985 . S
H2284 N2281 0.984 . S
H2285 N2281 0.985 . S
H2286 N2280 0.984 . S
H2287 N2280 0.984 . S
H2288 N2276 0.984 . S
H2289 N2276 0.985 . S
C2290 C2291 1.363 . S
C2290 C2296 1.379 . S
C2290 N2298 1.356 . S
C2291 C2290 1.363 . S
C2291 C2297 1.363 . S
C2292 C2293 1.363 . S
C2292 C2297 1.379 . S
C2292 N2299 1.356 . S
C2293 C2292 1.363 . S
C2293 C2296 1.363 . S
N2294 C2296 1.356 . S
N2294 H2306 0.984 . S
N2294 H2307 0.985 . S
N2295 C2297 1.356 . S
N2295 H2300 0.984 . S
N2295 H2301 0.985 . S
C2296 C2290 1.379 . S
C2296 C2293 1.363 . S
C2296 N2294 1.356 . S
C2297 C2291 1.363 . S
C2297 C2292 1.379 . S
C2297 N2295 1.356 . S
N2298 C2290 1.356 . S
N2298 H2304 0.984 . S
N2298 H2305 0.984 . S
N2299 C2292 1.356 . S
N2299 H2302 0.984 . S
N2299 H2303 0.985 . S
H2300 N2295 0.984 . S
H2301 N2295 0.985 . S
H2302 N2299 0.984 . S
H2303 N2299 0.985 . S
H2304 N2298 0.984 . S
H2305 N2298 0.984 . S
H2306 N2294 0.984 . S
H2307 N2294 0.985 . S
C2308 C2309 1.363 . S
C2308 C2314 1.379 . S
C2308 N2316 1.356 . S
C2309 C2308 1.363 . S
C2309 C2315 1.363 . S
C2310 C2311 1.363 . S
C2310 C2315 1.379 . S
C2310 N2317 1.356 . S
C2311 C2310 1.363 . S
C2311 C2314 1.363 . S
N2312 C2314 1.356 . S
N2312 H2324 0.984 . S
N2312 H2325 0.985 . S
N2313 C2315 1.356 . S
N2313 H2318 0.984 . S
N2313 H2319 0.985 . S
C2314 C2308 1.379 . S
C2314 C2311 1.363 . S
C2314 N2312 1.356 . S
C2315 C2309 1.363 . S
C2315 C2310 1.379 . S
C2315 N2313 1.356 . S
N2316 C2308 1.356 . S
N2316 H2322 0.984 . S
N2316 H2323 0.984 . S
N2317 C2310 1.356 . S
N2317 H2320 0.984 . S
N2317 H2321 0.985 . S
H2318 N2313 0.984 . S
H2319 N2313 0.985 . S
H2320 N2317 0.984 . S
H2321 N2317 0.985 . S
H2322 N2316 0.984 . S
H2323 N2316 0.984 . S
H2324 N2312 0.984 . S
H2325 N2312 0.985 . S
C2326 C2327 1.363 . S
C2326 C2332 1.379 . S
C2326 N2334 1.356 . S
C2327 C2326 1.363 . S
C2327 C2333 1.363 . S
C2328 C2329 1.363 . S
C2328 C2333 1.379 . S
C2328 N2335 1.356 . S
C2329 C2328 1.363 . S
C2329 C2332 1.363 . S
N2330 C2332 1.356 . S
N2330 H2342 0.984 . S
N2330 H2343 0.985 . S
N2331 C2333 1.356 . S
N2331 H2336 0.984 . S
N2331 H2337 0.985 . S
C2332 C2326 1.379 . S
C2332 C2329 1.363 . S
C2332 N2330 1.356 . S
C2333 C2327 1.363 . S
C2333 C2328 1.379 . S
C2333 N2331 1.356 . S
N2334 C2326 1.356 . S
N2334 H2340 0.984 . S
N2334 H2341 0.984 . S
N2335 C2328 1.356 . S
N2335 H2338 0.984 . S
N2335 H2339 0.985 . S
H2336 N2331 0.984 . S
H2337 N2331 0.985 . S
H2338 N2335 0.984 . S
H2339 N2335 0.985 . S
H2340 N2334 0.984 . S
H2341 N2334 0.984 . S
H2342 N2330 0.984 . S
H2343 N2330 0.985 . S
C2344 C2345 1.363 . S
C2344 C2350 1.379 . S
C2344 N2352 1.356 . S
C2345 C2344 1.363 . S
C2345 C2351 1.363 . S
C2346 C2347 1.363 . S
C2346 C2351 1.379 . S
C2346 N2353 1.356 . S
C2347 C2346 1.363 . S
C2347 C2350 1.363 . S
N2348 C2350 1.356 1_554 S
N2348 H2360 0.984 . S
N2348 H2361 0.985 . S
N2349 C2351 1.356 . S
N2349 H2354 0.984 . S
N2349 H2355 0.985 . S
C2350 C2344 1.379 . S
C2350 C2347 1.363 . S
C2350 N2348 1.356 1_556 S
C2351 C2345 1.363 . S
C2351 C2346 1.379 . S
C2351 N2349 1.356 . S
N2352 C2344 1.356 . S
N2352 H2358 0.984 . S
N2352 H2359 0.984 . S
N2353 C2346 1.356 . S
N2353 H2356 0.984 . S
N2353 H2357 0.985 . S
H2354 N2349 0.984 . S
H2355 N2349 0.985 . S
H2356 N2353 0.984 . S
H2357 N2353 0.985 . S
H2358 N2352 0.984 . S
H2359 N2352 0.984 . S
H2360 N2348 0.984 . S
H2361 N2348 0.985 . S
C2362 C2363 1.363 . S
C2362 C2368 1.379 . S
C2362 N2370 1.356 . S
C2363 C2362 1.363 . S
C2363 C2369 1.363 . S
C2364 C2365 1.363 . S
C2364 C2369 1.379 . S
C2364 N2371 1.356 . S
C2365 C2364 1.363 . S
C2365 C2368 1.363 . S
N2366 C2368 1.356 . S
N2366 H2378 0.984 . S
N2366 H2379 0.985 . S
N2367 C2369 1.356 . S
N2367 H2372 0.984 . S
N2367 H2373 0.985 . S
C2368 C2362 1.379 . S
C2368 C2365 1.363 . S
C2368 N2366 1.356 . S
C2369 C2363 1.363 . S
C2369 C2364 1.379 . S
C2369 N2367 1.356 . S
N2370 C2362 1.356 . S
N2370 H2376 0.984 . S
N2370 H2377 0.984 . S
N2371 C2364 1.356 . S
N2371 H2374 0.984 . S
N2371 H2375 0.985 . S
H2372 N2367 0.984 . S
H2373 N2367 0.985 . S
H2374 N2371 0.984 . S
H2375 N2371 0.985 . S
H2376 N2370 0.984 . S
H2377 N2370 0.984 . S
H2378 N2366 0.984 . S
H2379 N2366 0.985 . S
C2380 C2381 1.363 . S
C2380 C2386 1.379 . S
C2380 N2388 1.356 . S
C2381 C2380 1.363 . S
C2381 C2387 1.363 . S
C2382 C2383 1.363 . S
C2382 C2387 1.379 . S
C2382 N2389 1.356 . S
C2383 C2382 1.363 . S
C2383 C2386 1.363 . S
N2384 C2386 1.356 . S
N2384 H2396 0.984 . S
N2384 H2397 0.985 . S
N2385 C2387 1.356 . S
N2385 H2390 0.984 . S
N2385 H2391 0.985 . S
C2386 C2380 1.379 . S
C2386 C2383 1.363 . S
C2386 N2384 1.356 . S
C2387 C2381 1.363 . S
C2387 C2382 1.379 . S
C2387 N2385 1.356 . S
N2388 C2380 1.356 . S
N2388 H2394 0.984 1_455 S
N2388 H2395 0.984 . S
N2389 C2382 1.356 . S
N2389 H2392 0.984 . S
N2389 H2393 0.985 . S
H2390 N2385 0.984 . S
H2391 N2385 0.985 . S
H2392 N2389 0.984 . S
H2393 N2389 0.985 . S
H2394 N2388 0.984 1_655 S
H2395 N2388 0.984 . S
H2396 N2384 0.984 . S
H2397 N2384 0.985 . S
C2398 C2399 1.363 . S
C2398 C2404 1.379 . S
C2398 N2406 1.356 . S
C2399 C2398 1.363 . S
C2399 C2405 1.363 . S
C2400 C2401 1.363 . S
C2400 C2405 1.379 . S
C2400 N2407 1.356 . S
C2401 C2400 1.363 . S
C2401 C2404 1.363 . S
N2402 C2404 1.356 . S
N2402 H2414 0.984 . S
N2402 H2415 0.985 . S
N2403 C2405 1.356 . S
N2403 H2408 0.984 . S
N2403 H2409 0.985 . S
C2404 C2398 1.379 . S
C2404 C2401 1.363 . S
C2404 N2402 1.356 . S
C2405 C2399 1.363 . S
C2405 C2400 1.379 . S
C2405 N2403 1.356 . S
N2406 C2398 1.356 . S
N2406 H2412 0.984 . S
N2406 H2413 0.984 . S
N2407 C2400 1.356 . S
N2407 H2410 0.984 . S
N2407 H2411 0.985 . S
H2408 N2403 0.984 . S
H2409 N2403 0.985 . S
H2410 N2407 0.984 . S
H2411 N2407 0.985 . S
H2412 N2406 0.984 . S
H2413 N2406 0.984 . S
H2414 N2402 0.984 . S
H2415 N2402 0.985 . S
C2416 C2417 1.363 . S
C2416 C2422 1.379 . S
C2416 N2424 1.356 . S
C2417 C2416 1.363 . S
C2417 C2423 1.363 . S
C2418 C2419 1.363 . S
C2418 C2423 1.379 . S
C2418 N2425 1.356 . S
C2419 C2418 1.363 . S
C2419 C2422 1.363 . S
N2420 C2422 1.356 . S
N2420 H2432 0.984 . S
N2420 H2433 0.985 . S
N2421 C2423 1.356 . S
N2421 H2426 0.984 . S
N2421 H2427 0.985 . S
C2422 C2416 1.379 . S
C2422 C2419 1.363 . S
C2422 N2420 1.356 . S
C2423 C2417 1.363 . S
C2423 C2418 1.379 . S
C2423 N2421 1.356 . S
N2424 C2416 1.356 . S
N2424 H2430 0.984 . S
N2424 H2431 0.984 . S
N2425 C2418 1.356 . S
N2425 H2428 0.984 . S
N2425 H2429 0.985 . S
H2426 N2421 0.984 . S
H2427 N2421 0.985 . S
H2428 N2425 0.984 . S
H2429 N2425 0.985 . S
H2430 N2424 0.984 . S
H2431 N2424 0.984 . S
H2432 N2420 0.984 . S
H2433 N2420 0.985 . S
C2434 C2435 1.363 . S
C2434 C2440 1.379 . S
C2434 N2442 1.356 . S
C2435 C2434 1.363 . S
C2435 C2441 1.363 . S
C2436 C2437 1.363 . S
C2436 C2441 1.379 . S
C2436 N2443 1.356 . S
C2437 C2436 1.363 . S
C2437 C2440 1.363 . S
N2438 C2440 1.356 . S
N2438 H2450 0.984 . S
N2438 H2451 0.985 . S
N2439 C2441 1.356 . S
N2439 H2444 0.984 . S
N2439 H2445 0.985 . S
C2440 C2434 1.379 . S
C2440 C2437 1.363 . S
C2440 N2438 1.356 . S
C2441 C2435 1.363 . S
C2441 C2436 1.379 . S
C2441 N2439 1.356 . S
N2442 C2434 1.356 . S
N2442 H2448 0.984 . S
N2442 H2449 0.984 . S
N2443 C2436 1.356 . S
N2443 H2446 0.984 . S
N2443 H2447 0.985 . S
H2444 N2439 0.984 . S
H2445 N2439 0.985 . S
H2446 N2443 0.984 . S
H2447 N2443 0.985 . S
H2448 N2442 0.984 . S
H2449 N2442 0.984 . S
H2450 N2438 0.984 . S
H2451 N2438 0.985 . S
C2452 C2453 1.363 . S
C2452 C2458 1.379 . S
C2452 N2460 1.343 1_455 S
C2453 C2452 1.363 . S
C2453 C2459 1.363 . S
C2454 C2455 1.363 . S
C2454 C2459 1.379 . S
C2454 N2461 1.356 . S
C2455 C2454 1.363 . S
C2455 C2458 1.363 . S
N2456 C2458 1.356 . S
N2456 H2468 0.984 . S
N2456 H2469 0.985 . S
N2457 C2459 1.356 . S
N2457 H2462 0.984 . S
N2457 H2463 0.985 . S
C2458 C2452 1.379 . S
C2458 C2455 1.363 . S
C2458 N2456 1.356 . S
C2459 C2453 1.363 . S
C2459 C2454 1.379 . S
C2459 N2457 1.356 . S
N2460 C2452 1.343 1_655 S
N2460 H2466 0.985 . S
N2460 H2467 0.999 . S
N2461 C2454 1.356 . S
N2461 H2464 0.984 . S
N2461 H2465 0.985 1_556 S
H2462 N2457 0.984 . S
H2463 N2457 0.985 . S
H2464 N2461 0.984 . S
H2465 N2461 0.985 1_554 S
H2466 N2460 0.985 . S
H2467 N2460 0.999 . S
H2468 N2456 0.984 . S
H2469 N2456 0.985 . S
C2470 C2471 1.363 . S
C2470 C2476 1.379 . S
C2470 N2478 1.356 . S
C2471 C2470 1.363 . S
C2471 C2477 1.363 . S
C2472 C2473 1.363 . S
C2472 C2477 1.379 . S
C2472 N2479 1.356 . S
C2473 C2472 1.363 . S
C2473 C2476 1.363 . S
N2474 C2476 1.356 . S
N2474 H2486 0.984 . S
N2474 H2487 0.985 . S
N2475 C2477 1.356 . S
N2475 H2480 0.984 . S
N2475 H2481 0.985 . S
C2476 C2470 1.379 . S
C2476 C2473 1.363 . S
C2476 N2474 1.356 . S
C2477 C2471 1.363 . S
C2477 C2472 1.379 . S
C2477 N2475 1.356 . S
N2478 C2470 1.356 . S
N2478 H2484 0.984 . S
N2478 H2485 0.984 . S
N2479 C2472 1.356 . S
N2479 H2482 0.984 . S
N2479 H2483 0.985 . S
H2480 N2475 0.984 . S
H2481 N2475 0.985 . S
H2482 N2479 0.984 . S
H2483 N2479 0.985 . S
H2484 N2478 0.984 . S
H2485 N2478 0.984 . S
H2486 N2474 0.984 . S
H2487 N2474 0.985 . S
C2488 C2489 1.363 . S
C2488 C2494 1.379 . S
C2488 N2496 1.356 . S
C2489 C2488 1.363 . S
C2489 C2495 1.363 . S
C2490 C2491 1.363 . S
C2490 C2495 1.379 . S
C2490 N2497 1.356 . S
C2491 C2490 1.363 . S
C2491 C2494 1.363 . S
N2492 C2494 1.356 . S
N2492 H2504 0.984 . S
N2492 H2505 0.985 . S
N2493 C2495 1.356 . S
N2493 H2498 0.984 . S
N2493 H2499 0.985 . S
C2494 C2488 1.379 . S
C2494 C2491 1.363 . S
C2494 N2492 1.356 . S
C2495 C2489 1.363 . S
C2495 C2490 1.379 . S
C2495 N2493 1.356 . S
N2496 C2488 1.356 . S
N2496 H2502 0.984 . S
N2496 H2503 0.984 . S
N2497 C2490 1.356 . S
N2497 H2500 0.984 . S
N2497 H2501 0.985 . S
H2498 N2493 0.984 . S
H2499 N2493 0.985 . S
H2500 N2497 0.984 . S
H2501 N2497 0.985 . S
H2502 N2496 0.984 . S
H2503 N2496 0.984 . S
H2504 N2492 0.984 . S
H2505 N2492 0.985 . S
C2506 C2507 1.363 . S
C2506 C2512 1.379 . S
C2506 N2514 1.356 . S
C2507 C2506 1.363 . S
C2507 C2513 1.363 . S
C2508 C2509 1.363 . S
C2508 C2513 1.379 . S
C2508 N2515 1.356 . S
C2509 C2508 1.363 . S
C2509 C2512 1.363 . S
N2510 C2512 1.356 . S
N2510 H2522 0.984 . S
N2510 H2523 0.985 . S
N2511 C2513 1.356 . S
N2511 H2516 0.984 . S
N2511 H2517 0.985 . S
C2512 C2506 1.379 . S
C2512 C2509 1.363 . S
C2512 N2510 1.356 . S
C2513 C2507 1.363 . S
C2513 C2508 1.379 . S
C2513 N2511 1.356 . S
N2514 C2506 1.356 . S
N2514 H2520 0.984 . S
N2514 H2521 0.984 . S
N2515 C2508 1.356 . S
N2515 H2518 0.984 . S
N2515 H2519 0.985 . S
H2516 N2511 0.984 . S
H2517 N2511 0.985 . S
H2518 N2515 0.984 . S
H2519 N2515 0.985 . S
H2520 N2514 0.984 . S
H2521 N2514 0.984 . S
H2522 N2510 0.984 . S
H2523 N2510 0.985 . S
C2524 C2525 1.363 . S
C2524 C2530 1.379 . S
C2524 N2532 1.356 . S
C2525 C2524 1.363 . S
C2525 C2531 1.363 1_455 S
C2526 C2527 1.363 1_655 S
C2526 C2531 1.379 . S
C2526 N2533 1.356 . S
C2527 C2526 1.363 1_455 S
C2527 C2530 1.363 . S
N2528 C2530 1.356 . S
N2528 H2540 0.984 . S
N2528 H2541 0.985 . S
N2529 C2531 1.356 . S
N2529 H2534 0.984 . S
N2529 H2535 0.985 . S
C2530 C2524 1.379 . S
C2530 C2527 1.363 . S
C2530 N2528 1.356 . S
C2531 C2525 1.363 1_655 S
C2531 C2526 1.379 . S
C2531 N2529 1.356 . S
N2532 C2524 1.356 . S
N2532 H2538 0.984 . S
N2532 H2539 0.984 . S
N2533 C2526 1.356 . S
N2533 H2536 0.984 . S
N2533 H2537 0.985 . S
H2534 N2529 0.984 . S
H2535 N2529 0.985 . S
H2536 N2533 0.984 . S
H2537 N2533 0.985 . S
H2538 N2532 0.984 . S
H2539 N2532 0.984 . S
H2540 N2528 0.984 . S
H2541 N2528 0.985 . S
C2542 C2543 1.363 . S
C2542 C2548 1.379 . S
C2542 N2550 1.356 . S
C2543 C2542 1.363 . S
C2543 C2549 1.363 . S
C2544 C2545 1.363 . S
C2544 C2549 1.379 . S
C2544 N2551 1.356 . S
C2545 C2544 1.363 . S
C2545 C2548 1.363 . S
N2546 C2548 1.356 . S
N2546 H2558 0.984 . S
N2546 H2559 0.985 . S
N2547 C2549 1.356 . S
N2547 H2552 0.984 . S
N2547 H2553 0.985 . S
C2548 C2542 1.379 . S
C2548 C2545 1.363 . S
C2548 N2546 1.356 . S
C2549 C2543 1.363 . S
C2549 C2544 1.379 . S
C2549 N2547 1.356 . S
N2550 C2542 1.356 . S
N2550 H2556 0.984 . S
N2550 H2557 0.984 . S
N2551 C2544 1.356 . S
N2551 H2554 0.984 . S
N2551 H2555 0.985 . S
H2552 N2547 0.984 . S
H2553 N2547 0.985 . S
H2554 N2551 0.984 . S
H2555 N2551 0.985 . S
H2556 N2550 0.984 . S
H2557 N2550 0.984 . S
H2558 N2546 0.984 . S
H2559 N2546 0.985 . S
C2560 C2561 1.363 . S
C2560 C2566 1.379 . S
C2560 N2568 1.356 . S
C2561 C2560 1.363 . S
C2561 C2567 1.363 . S
C2562 C2563 1.363 . S
C2562 C2567 1.379 . S
C2562 N2569 1.356 . S
C2563 C2562 1.363 . S
C2563 C2566 1.363 . S
N2564 C2566 1.356 . S
N2564 H2576 0.984 . S
N2564 H2577 0.985 . S
N2565 C2567 1.356 . S
N2565 H2570 0.984 . S
N2565 H2571 0.985 . S
C2566 C2560 1.379 . S
C2566 C2563 1.363 . S
C2566 N2564 1.356 . S
C2567 C2561 1.363 . S
C2567 C2562 1.379 . S
C2567 N2565 1.356 . S
N2568 C2560 1.356 . S
N2568 H2574 0.984 . S
N2568 H2575 0.984 . S
N2569 C2562 1.356 . S
N2569 H2572 0.984 . S
N2569 H2573 0.985 . S
H2570 N2565 0.984 . S
H2571 N2565 0.985 . S
H2572 N2569 0.984 . S
H2573 N2569 0.985 . S
H2574 N2568 0.984 . S
H2575 N2568 0.984 . S
H2576 N2564 0.984 . S
H2577 N2564 0.985 . S
C2578 C2579 1.363 . S
C2578 C2584 1.379 . S
C2578 N2586 1.356 . S
C2579 C2578 1.363 . S
C2579 C2585 1.363 1_545 S
C2580 C2581 1.363 . S
C2580 C2585 1.379 1_545 S
C2580 N2587 1.356 . S
C2581 C2580 1.363 . S
C2581 C2584 1.363 . S
N2582 C2584 1.356 . S
N2582 H2594 0.984 . S
N2582 H2595 0.985 . S
N2583 C2585 1.356 . S
N2583 H2588 0.984 . S
N2583 H2589 0.985 . S
C2584 C2578 1.379 . S
C2584 C2581 1.363 . S
C2584 N2582 1.356 . S
C2585 C2579 1.363 1_565 S
C2585 C2580 1.379 1_565 S
C2585 N2583 1.356 . S
N2586 C2578 1.356 . S
N2586 H2592 0.984 . S
N2586 H2593 0.984 . S
N2587 C2580 1.356 . S
N2587 H2590 0.977 1_655 S
N2587 H2591 0.985 1_545 S
H2588 N2583 0.984 . S
H2589 N2583 0.985 . S
H2590 N2587 0.977 1_455 S
H2591 N2587 0.985 1_565 S
H2592 N2586 0.984 . S
H2593 N2586 0.984 . S
H2594 N2582 0.984 . S
H2595 N2582 0.985 . S
C2596 C2597 1.363 . S
C2596 C2602 1.379 . S
C2596 N2604 1.356 . S
C2597 C2596 1.363 . S
C2597 C2603 1.363 . S
C2598 C2599 1.363 . S
C2598 C2603 1.379 . S
C2598 N2605 1.356 . S
C2599 C2598 1.363 . S
C2599 C2602 1.363 . S
N2600 C2602 1.356 . S
N2600 H2612 0.984 . S
N2600 H2613 0.985 . S
N2601 C2603 1.356 . S
N2601 H2606 0.984 . S
N2601 H2607 0.985 . S
C2602 C2596 1.379 . S
C2602 C2599 1.363 . S
C2602 N2600 1.356 . S
C2603 C2597 1.363 . S
C2603 C2598 1.379 . S
C2603 N2601 1.356 . S
N2604 C2596 1.356 . S
N2604 H2610 0.984 . S
N2604 H2611 0.984 . S
N2605 C2598 1.356 . S
N2605 H2608 0.984 . S
N2605 H2609 0.985 . S
H2606 N2601 0.984 . S
H2607 N2601 0.985 . S
H2608 N2605 0.984 . S
H2609 N2605 0.985 . S
H2610 N2604 0.984 . S
H2611 N2604 0.984 . S
H2612 N2600 0.984 . S
H2613 N2600 0.985 . S
C2614 C2615 1.363 1_554 S
C2614 C2620 1.379 . S
C2614 N2622 1.356 . S
C2615 C2614 1.363 1_556 S
C2615 C2621 1.363 . S
C2616 C2617 1.363 1_556 S
C2616 C2621 1.379 . S
C2616 N2623 1.356 . S
C2617 C2616 1.363 1_554 S
C2617 C2620 1.363 . S
N2618 C2620 1.356 . S
N2618 H2630 0.984 . S
N2618 H2631 0.985 . S
N2619 C2621 1.356 . S
N2619 H2624 0.984 . S
N2619 H2625 0.985 . S
C2620 C2614 1.379 . S
C2620 C2617 1.363 . S
C2620 N2618 1.356 . S
C2621 C2615 1.363 . S
C2621 C2616 1.379 . S
C2621 N2619 1.356 . S
N2622 C2614 1.356 . S
N2622 H2628 0.984 . S
N2622 H2629 0.984 . S
N2623 C2616 1.356 . S
N2623 H2626 0.984 . S
N2623 H2627 0.985 . S
H2624 N2619 0.984 . S
H2625 N2619 0.985 . S
H2626 N2623 0.984 . S
H2627 N2623 0.985 . S
H2628 N2622 0.984 . S
H2629 N2622 0.984 . S
H2630 N2618 0.984 . S
H2631 N2618 0.985 . S
C2632 C2633 1.363 . S
C2632 C2638 1.379 . S
C2632 N2640 1.356 . S
C2633 C2632 1.363 . S
C2633 C2639 1.363 . S
C2634 C2635 1.363 . S
C2634 C2639 1.379 . S
C2634 N2641 1.356 . S
C2635 C2634 1.363 . S
C2635 C2638 1.363 . S
N2636 C2638 1.356 . S
N2636 H2648 0.984 . S
N2636 H2649 0.985 . S
N2637 C2639 1.356 . S
N2637 H2642 0.984 . S
N2637 H2643 0.985 . S
C2638 C2632 1.379 . S
C2638 C2635 1.363 . S
C2638 N2636 1.356 . S
C2639 C2633 1.363 . S
C2639 C2634 1.379 . S
C2639 N2637 1.356 . S
N2640 C2632 1.356 . S
N2640 H2646 0.984 . S
N2640 H2647 0.984 . S
N2641 C2634 1.356 . S
N2641 H2644 0.984 . S
N2641 H2645 0.985 . S
H2642 N2637 0.984 . S
H2643 N2637 0.985 . S
H2644 N2641 0.984 . S
H2645 N2641 0.985 . S
H2646 N2640 0.984 . S
H2647 N2640 0.984 . S
H2648 N2636 0.984 . S
H2649 N2636 0.985 . S
C2650 C2651 1.363 1_556 S
C2650 C2656 1.379 . S
C2650 N2658 1.356 . S
C2651 C2650 1.363 1_554 S
C2651 C2657 1.363 . S
C2652 C2653 1.363 1_554 S
C2652 C2657 1.379 . S
C2652 N2659 1.356 . S
C2653 C2652 1.363 1_556 S
C2653 C2656 1.363 . S
N2654 C2656 1.356 . S
N2654 H2666 0.984 . S
N2654 H2667 0.985 . S
N2655 C2657 1.356 . S
N2655 H2660 0.984 . S
N2655 H2661 0.985 . S
C2656 C2650 1.379 . S
C2656 C2653 1.363 . S
C2656 N2654 1.356 . S
C2657 C2651 1.363 . S
C2657 C2652 1.379 . S
C2657 N2655 1.356 . S
N2658 C2650 1.356 . S
N2658 H2664 0.984 . S
N2658 H2665 0.984 1_556 S
N2659 C2652 1.356 . S
N2659 H2662 0.984 . S
N2659 H2663 0.985 . S
H2660 N2655 0.984 . S
H2661 N2655 0.985 . S
H2662 N2659 0.984 . S
H2663 N2659 0.985 . S
H2664 N2658 0.984 . S
H2665 N2658 0.984 1_554 S
H2666 N2654 0.984 . S
H2667 N2654 0.985 . S
C2668 C2669 1.363 . S
C2668 C2674 1.379 . S
C2668 N2676 1.356 . S
C2669 C2668 1.363 . S
C2669 C2675 1.363 . S
C2670 C2671 1.363 . S
C2670 C2675 1.379 . S
C2670 N2677 1.356 . S
C2671 C2670 1.363 . S
C2671 C2674 1.363 . S
N2672 C2674 1.356 . S
N2672 H2684 0.984 . S
N2672 H2685 0.985 . S
N2673 C2675 1.356 . S
N2673 H2678 0.984 . S
N2673 H2679 0.985 1_565 S
C2674 C2668 1.379 . S
C2674 C2671 1.363 . S
C2674 N2672 1.356 . S
C2675 C2669 1.363 . S
C2675 C2670 1.379 . S
C2675 N2673 1.356 . S
N2676 C2668 1.356 . S
N2676 H2682 0.984 . S
N2676 H2683 0.984 . S
N2677 C2670 1.356 . S
N2677 H2680 0.984 . S
N2677 H2681 0.985 . S
H2678 N2673 0.984 . S
H2679 N2673 0.985 1_545 S
H2680 N2677 0.984 . S
H2681 N2677 0.985 . S
H2682 N2676 0.984 . S
H2683 N2676 0.984 . S
H2684 N2672 0.984 . S
H2685 N2672 0.985 . S
C2686 C2687 1.363 . S
C2686 C2692 1.379 . S
C2686 N2694 1.356 . S
C2687 C2686 1.363 . S
C2687 C2693 1.363 . S
C2688 C2689 1.363 . S
C2688 C2693 1.379 . S
C2688 N2695 1.356 . S
C2689 C2688 1.363 . S
C2689 C2692 1.363 . S
N2690 C2692 1.356 . S
N2690 H2702 0.984 . S
N2690 H2703 0.985 . S
N2691 C2693 1.356 . S
N2691 H2696 0.984 . S
N2691 H2697 0.985 . S
C2692 C2686 1.379 . S
C2692 C2689 1.363 . S
C2692 N2690 1.356 . S
C2693 C2687 1.363 . S
C2693 C2688 1.379 . S
C2693 N2691 1.356 . S
N2694 C2686 1.356 . S
N2694 H2700 0.984 . S
N2694 H2701 0.984 . S
N2695 C2688 1.356 . S
N2695 H2698 0.984 . S
N2695 H2699 0.985 . S
H2696 N2691 0.984 . S
H2697 N2691 0.985 . S
H2698 N2695 0.984 . S
H2699 N2695 0.985 . S
H2700 N2694 0.984 . S
H2701 N2694 0.984 . S
H2702 N2690 0.984 . S
H2703 N2690 0.985 . S
C977 C109 2.184 . S
C979 C346 2.119 . S
C995 C65 1.884 . S
C997 C385 1.826 . S
C1013 C75 1.614 . S
C1015 C426 1.604 1_565 S
C1033 C471 1.504 . S
C1031 C84 1.546 . S
C1049 C25 2.090 . S
C1051 C515 2.076 . S
C1069 C546 1.564 . S
C1067 C28 1.594 . S
C1087 C594 2.036 . S
C1085 C47 2.039 . S
C1103 C9 2.129 . S
C1105 C622 1.975 . S
C1123 C354 1.971 . S
C1121 C233 1.875 . S
C1139 C249 1.592 . S
C1141 C395 1.546 . S
C1159 C434 1.732 . S
C1157 C275 1.663 1_545 S
C1177 C466 1.642 . S
C1175 C173 1.645 . S
C1193 C224 0.539 . S
C1195 C502 0.565 . S
C1213 C554 2.154 . S
C1211 C243 2.167 . S
C1231 C591 1.535 . S
C1229 C266 1.499 . S
C1249 C625 2.000 . S
C1247 C179 1.974 . S
C1267 C351 2.115 . S
C1265 C163 2.232 1_545 S
C1283 C289 1.984 . S
C1285 C665 1.929 . S
C1303 C711 1.616 . S
C1301 C333 1.611 . S
C1321 C746 1.644 1_655 S
C1319 C308 1.679 . S
C1337 C123 2.168 . S
C1339 C635 2.186 . S
C1355 C126 1.522 . S
C1357 C431 1.490 . S
C1373 C327 1.513 . S
C1375 C794 1.630 . S
C1393 C822 0.732 . S
C1391 C299 0.730 . S
C1411 C355 2.132 1_565 S
C1409 C67 2.203 . S
C1429 C834 1.844 . S
C1427 C98 1.852 . S
C1445 C89 1.639 . S
C1447 C435 1.632 . S
C1463 C79 1.603 . S
C1465 C782 1.529 . S
C1483 C506 2.119 . S
C1481 C11 2.121 . S
C1499 C51 1.644 . S
C1501 C715 1.558 . S
C1519 C585 2.061 1_566 S
C1517 C33 2.065 . S
C1537 C871 1.929 1_455 S
C1535 C14 2.052 . S
C1555 C345 1.922 . S
C1553 C140 1.818 . S
C1573 C826 1.569 . S
C1571 C319 1.615 . S
C1589 C112 1.575 . S
C1591 C425 1.747 . S
C1607 C285 1.669 . S
C1609 C795 1.669 . S
C1625 C149 0.564 . S
C1627 C511 0.572 . S
C1645 C705 2.186 . S
C1643 C313 2.201 . S
C1661 C121 1.620 . S
C1663 C582 1.542 . S
C1679 C291 1.997 . S
C1681 C874 2.012 . S
C1697 C182 2.239 1_556 S
C1699 C342 2.077 . S
C1715 C168 1.960 . S
C1717 C674 1.943 . S
C1733 C263 1.651 . S
C1735 C542 1.618 . S
C1751 C247 1.776 . S
C1753 C755 1.682 . S
C1771 C866 2.169 . S
C1769 C277 2.180 . S
C1787 C219 1.582 . S
C1789 C422 1.505 . S
C1807 C465 1.668 . S
C1805 C257 1.558 . S
C1825 C391 0.720 . S
C1823 C201 0.718 . S
C1841 C81 2.183 . S
C1843 C906 2.119 . S
C1861 C825 1.827 . S
C1859 C93 1.885 . S
C1877 C103 1.614 . S
C1879 C946 1.609 . S
C1895 C56 1.546 . S
C1897 C791 1.504 . S
C1913 C53 2.091 . S
C1915 C675 2.077 . S
C1933 C706 1.563 . S
C1931 C0 1.594 . S
C1951 C754 2.036 . S
C1949 C19 2.039 . S
C1969 C862 1.974 . S
C1967 C37 2.129 . S
C1987 C914 1.971 . S
C1985 C261 1.875 . S
C2003 C193 1.592 . S
C2005 C835 1.551 . S
C2023 C954 1.732 . S
C2021 C205 1.663 . S
C2041 C786 1.642 . S
C2039 C215 1.645 . S
C2059 C662 0.565 . S
C2057 C252 0.539 . S
C2075 C187 2.167 . S
C2077 C714 2.149 . S
C2095 C751 1.535 . S
C2093 C196 1.499 . S
C2111 C221 1.974 . S
C2113 C865 2.000 . S
C2131 C911 2.115 . S
C2129 C317 2.232 . S
C2147 C135 1.984 . S
C2149 C505 1.929 . S
C2167 C551 1.616 . S
C2165 C151 1.611 . S
C2185 C586 1.644 . S
C2183 C154 1.679 1_545 S
C2203 C875 2.186 . S
C2201 C305 2.168 . S
C2219 C280 1.522 . S
C2221 C951 1.490 . S
C2239 C474 1.630 . S
C2237 C145 1.513 . S
C2257 C382 0.732 . S
C2255 C117 0.730 . S
C2273 C95 2.203 . S
C2275 C915 2.132 . S
C2293 C394 1.844 . S
C2291 C70 1.852 . S
C2309 C61 1.639 . S
C2311 C955 1.632 . S
C2327 C107 1.603 . S
C2329 C462 1.529 . S
C2345 C39 2.121 . S
C2347 C666 2.117 . S
C2365 C555 1.558 . S
C2363 C23 1.644 . S
C2381 C5 2.065 . S
C2383 C745 2.061 . S
C2399 C42 2.052 . S
C2401 C631 1.929 . S
C2419 C905 1.921 . S
C2417 C322 1.818 . S
C2435 C165 1.615 . S
C2437 C386 1.569 . S
C2455 C945 1.747 . S
C2453 C294 1.575 . S
C2471 C131 1.669 . S
C2473 C475 1.669 . S
C2489 C331 0.564 . S
C2491 C671 0.572 . S
C2509 C545 2.186 . S
C2507 C159 2.201 . S
C2525 C303 1.620 1_455 S
C2527 C742 1.542 . S
C2545 C634 2.012 . S
C2543 C137 1.997 . S
C2563 C902 2.075 . S
C2561 C238 2.238 . S
C2581 C514 1.943 1_655 S
C2579 C210 1.960 1_545 S
C2597 C235 1.652 . S
C2599 C702 1.618 . S
C2617 C595 1.682 . S
C2615 C191 1.775 . S
C2633 C207 2.180 . S
C2635 C626 2.169 . S
C2651 C177 1.582 . S
C2653 C942 1.505 . S
C2671 C785 1.668 . S
C2669 C229 1.558 . S
C2689 C831 0.720 . S
C2687 C271 0.718 . S
