# Generated by pormake.
# Topology zzz, (3,6)-cn, num edge types: 1
# Building blocks:
#     Node 0, Type 0, BuildingBlock: OLANEW_clean_sbu_2, # of connection points: 3
#     Node 1, Type 0, BuildingBlock: OLANEW_clean_sbu_2, # of connection points: 3
#     Node 2, Type 0, BuildingBlock: OLANEW_clean_sbu_2, # of connection points: 3
#     Node 3, Type 0, BuildingBlock: OLANEW_clean_sbu_2, # of connection points: 3
#     Node 4, Type 0, BuildingBlock: OLANEW_clean_sbu_2, # of connection points: 3
#     Node 5, Type 0, BuildingBlock: OLANEW_clean_sbu_2, # of connection points: 3
#     Node 6, Type 0, BuildingBlock: OLANEW_clean_sbu_2, # of connection points: 3
#     Node 7, Type 0, BuildingBlock: OLANEW_clean_sbu_2, # of connection points: 3
#     Node 8, Type 1, BuildingBlock: GEDQOX_clean_sbu_0, # of connection points: 6
#     Node 9, Type 1, BuildingBlock: GEDQOX_clean_sbu_0, # of connection points: 6
#     Node 10, Type 1, BuildingBlock: GEDQOX_clean_sbu_0, # of connection points: 6
#     Node 11, Type 1, BuildingBlock: GEDQOX_clean_sbu_0, # of connection points: 6
#     Edge 12, Type (0, 1), BuildingBlock: MIFKUJ_clean_linker_0, # of connection points: 2
#     Edge 13, Type (0, 1), BuildingBlock: MIFKUJ_clean_linker_0, # of connection points: 2
#     Edge 14, Type (0, 1), BuildingBlock: MIFKUJ_clean_linker_0, # of connection points: 2
#     Edge 15, Type (0, 1), BuildingBlock: MIFKUJ_clean_linker_0, # of connection points: 2
#     Edge 16, Type (0, 1), BuildingBlock: MIFKUJ_clean_linker_0, # of connection points: 2
#     Edge 17, Type (0, 1), BuildingBlock: MIFKUJ_clean_linker_0, # of connection points: 2
#     Edge 18, Type (0, 1), BuildingBlock: MIFKUJ_clean_linker_0, # of connection points: 2
#     Edge 19, Type (0, 1), BuildingBlock: MIFKUJ_clean_linker_0, # of connection points: 2
#     Edge 20, Type (0, 1), BuildingBlock: MIFKUJ_clean_linker_0, # of connection points: 2
#     Edge 21, Type (0, 1), BuildingBlock: MIFKUJ_clean_linker_0, # of connection points: 2
#     Edge 22, Type (0, 1), BuildingBlock: MIFKUJ_clean_linker_0, # of connection points: 2
#     Edge 23, Type (0, 1), BuildingBlock: MIFKUJ_clean_linker_0, # of connection points: 2
#     Edge 24, Type (0, 1), BuildingBlock: MIFKUJ_clean_linker_0, # of connection points: 2
#     Edge 25, Type (0, 1), BuildingBlock: MIFKUJ_clean_linker_0, # of connection points: 2
#     Edge 26, Type (0, 1), BuildingBlock: MIFKUJ_clean_linker_0, # of connection points: 2
#     Edge 27, Type (0, 1), BuildingBlock: MIFKUJ_clean_linker_0, # of connection points: 2
#     Edge 28, Type (0, 1), BuildingBlock: MIFKUJ_clean_linker_0, # of connection points: 2
#     Edge 29, Type (0, 1), BuildingBlock: MIFKUJ_clean_linker_0, # of connection points: 2
#     Edge 30, Type (0, 1), BuildingBlock: MIFKUJ_clean_linker_0, # of connection points: 2
#     Edge 31, Type (0, 1), BuildingBlock: MIFKUJ_clean_linker_0, # of connection points: 2
#     Edge 32, Type (0, 1), BuildingBlock: MIFKUJ_clean_linker_0, # of connection points: 2
#     Edge 33, Type (0, 1), BuildingBlock: MIFKUJ_clean_linker_0, # of connection points: 2
#     Edge 34, Type (0, 1), BuildingBlock: MIFKUJ_clean_linker_0, # of connection points: 2
#     Edge 35, Type (0, 1), BuildingBlock: MIFKUJ_clean_linker_0, # of connection points: 2
# Relax obj value: 0.142
# Max RMSD: 0.213
# Mean RMSD: 0.108
data_MOF--net-zzz--node1-OLANEW_clean_sbu_2--node2-GEDQOX_clean_sbu_0--edge1-MIFKUJ_clean_linker_0
_symmetry_space_group_name_H-M    P1
_symmetry_Int_Tables_number       1
_symmetry_cell_setting            triclinic
loop_
_symmetry_equiv_pos_as_xyz
'x, y, z'
_cell_length_a     73.967024
_cell_length_b     71.338224
_cell_length_c     23.256606
_cell_angle_alpha  83.077254
_cell_angle_beta   90.213262
_cell_angle_gamma 100.37186
loop_
_atom_site_label
_atom_site_type_symbol
_atom_site_fract_x
_atom_site_fract_y
_atom_site_fract_z
_atom_type_partial_charge
O0 O 0.76905 0.43882 0.92189 0.0
Cd1 Cd 0.73937 0.43186 0.97402 0.0
O2 O 0.77696 0.43505 0.01239 0.0
Cd3 Cd 0.79575 0.43684 0.085 0.0
O4 O 0.81325 0.44339 0.15809 0.0
C5 C 0.81228 0.45871 0.17973 0.0
O6 O 0.80089 0.46965 0.15731 0.0
C7 C 0.78167 0.4386 0.95907 0.0
C8 C 0.70888 0.44457 0.92322 0.0
O9 O 0.7216 0.45623 0.94473 0.0
O10 O 0.71094 0.4271 0.92337 0.0
O11 O 0.92263 0.75919 0.97849 0.0
Cd12 Cd 0.90996 0.72639 0.02016 0.0
O13 O 0.91972 0.76725 0.0655 0.0
Cd14 Cd 0.92367 0.78695 0.13193 0.0
O15 O 0.92834 0.8078 0.19461 0.0
C16 C 0.92519 0.82468 0.18066 0.0
O17 O 0.91893 0.82918 0.12888 0.0
C18 C 0.9244 0.77207 0.01238 0.0
C19 C 0.9297 0.69938 0.98808 0.0
O20 O 0.91558 0.70301 0.95977 0.0
O21 O 0.93457 0.70866 0.03116 0.0
O22 O 0.73759 0.94366 0.89867 0.0
Cd23 Cd 0.76077 0.92498 0.93448 0.0
O24 O 0.72577 0.93521 0.98613 0.0
Cd25 Cd 0.70443 0.93374 0.05209 0.0
O26 O 0.6827 0.93618 0.11225 0.0
C27 C 0.67227 0.92139 0.13748 0.0
O28 O 0.67469 0.9043 0.12701 0.0
C29 C 0.72537 0.94449 0.93601 0.0
C30 C 0.7966 0.94451 0.91167 0.0
O31 O 0.78694 0.9484 0.95275 0.0
O32 O 0.78932 0.9315 0.88086 0.0
O33 O 0.61619 0.7901 0.15399 0.0
Cd34 Cd 0.62878 0.81703 0.20697 0.0
O35 O 0.60254 0.77995 0.23776 0.0
Cd36 Cd 0.5849 0.76069 0.30288 0.0
O37 O 0.57505 0.73677 0.36883 0.0
C38 C 0.58598 0.72515 0.38184 0.0
O39 O 0.60218 0.7284 0.3558 0.0
C40 C 0.60553 0.77708 0.18595 0.0
C41 C 0.60913 0.84688 0.18684 0.0
O42 O 0.62445 0.84757 0.16033 0.0
O43 O 0.60312 0.83212 0.22317 0.0
O44 O 0.25471 0.60239 0.71903 0.0
Cd45 Cd 0.28519 0.61583 0.67671 0.0
O46 O 0.24906 0.592 0.63499 0.0
Cd47 Cd 0.23326 0.57738 0.56832 0.0
O48 O 0.21786 0.56582 0.49625 0.0
C49 C 0.20643 0.55012 0.5042 0.0
O50 O 0.20401 0.54077 0.55664 0.0
C51 C 0.24339 0.59388 0.68525 0.0
C52 C 0.31275 0.59473 0.7074 0.0
O53 O 0.3107 0.60893 0.73416 0.0
O54 O 0.30151 0.59024 0.66712 0.0
O55 O 0.10389 0.26403 0.67788 0.0
Cd56 Cd 0.11419 0.29672 0.63095 0.0
O57 O 0.11039 0.2554 0.59424 0.0
Cd58 Cd 0.10949 0.23414 0.53345 0.0
O59 O 0.10647 0.21107 0.47861 0.0
C60 C 0.09379 0.19647 0.48944 0.0
O61 O 0.08264 0.19551 0.53399 0.0
C62 C 0.10444 0.25083 0.6462 0.0
C63 C 0.09757 0.32405 0.67566 0.0
O64 O 0.08919 0.31329 0.63993 0.0
O65 O 0.11377 0.32176 0.69096 0.0
O66 O 0.28656 0.98706 0.66547 0.0
Cd67 Cd 0.25834 0.98145 0.61038 0.0
O68 O 0.29724 0.00999 0.59643 0.0
Cd69 Cd 0.31884 0.0301 0.54552 0.0
O70 O 0.34045 0.04585 0.48542 0.0
C71 C 0.33722 0.04658 0.43158 0.0
O72 O 0.32102 0.03837 0.415 0.0
C73 C 0.29976 0.99984 0.64363 0.0
C74 C 0.22711 0.99002 0.66011 0.0
O75 O 0.23191 0.97367 0.67338 0.0
O76 O 0.2374 0.00254 0.6245 0.0
O77 O 0.42107 0.2327 0.45731 0.0
Cd78 Cd 0.40658 0.20175 0.42875 0.0
O79 O 0.40827 0.24709 0.38365 0.0
Cd80 Cd 0.40578 0.27259 0.32455 0.0
O81 O 0.41187 0.2986 0.26353 0.0
C82 C 0.42512 0.2998 0.22788 0.0
O83 O 0.434 0.28537 0.2292 0.0
C84 C 0.41851 0.2481 0.42761 0.0
C85 C 0.42799 0.17431 0.46441 0.0
O86 O 0.43018 0.18371 0.4136 0.0
O87 O 0.41548 0.17768 0.49765 0.0
Nd88 Nd 0.00535 0.01253 0.7757 0.0
Nd89 Nd 0.02651 0.00992 0.88885 0.0
C90 C 0.98129 0.00901 0.69147 0.0
C91 C 0.97574 0.99446 0.65228 0.0
C92 C 0.96221 0.99675 0.61111 0.0
C93 C 0.95705 0.98291 0.57348 0.0
C94 C 0.96542 0.96658 0.57636 0.0
C95 C 0.97904 0.96445 0.61789 0.0
C96 C 0.9841 0.97823 0.65558 0.0
C97 C 0.04146 0.00908 0.76369 0.0
C98 C 0.00503 0.97028 0.85175 0.0
C99 C 0.05071 0.01307 0.97273 0.0
C100 C 0.05681 0.02699 0.01399 0.0
C101 C 0.06164 0.04676 0.99549 0.0
C102 C 0.06604 0.0598 0.03593 0.0
C103 C 0.06553 0.05334 0.09558 0.0
C104 C 0.061 0.03353 0.11383 0.0
C105 C 0.05674 0.02049 0.07338 0.0
C106 C 0.99029 0.01269 0.90229 0.0
C107 C 0.02674 0.05208 0.81196 0.0
O108 O 0.9769 0.0036 0.74614 0.0
O109 O 0.99808 0.01859 0.68376 0.0
O110 O 0.03318 0.01951 0.72663 0.0
O111 O 0.03052 1.00004 0.80291 0.0
O112 O 0.99634 0.98091 0.81469 0.0
O113 O 0.01962 0.97792 0.87944 0.0
O114 O 0.0551 0.01842 0.91793 0.0
O115 O 0.03389 0.0036 0.98064 0.0
O116 O -0.00084 0.00302 0.93967 0.0
O117 O 0.00095 0.02185 0.86231 0.0
O118 O 0.03562 0.0414 0.84836 0.0
O119 O 0.01186 0.04445 0.7856 0.0
H120 H 0.95557 0.00918 0.60831 0.0
H121 H 0.94632 0.98487 0.54272 0.0
H122 H 0.986 0.95226 0.6208 0.0
H123 H 0.99464 0.9763 0.68712 0.0
H124 H 0.06166 0.05219 0.94997 0.0
H125 H 0.0693 0.07499 0.0206 0.0
H126 H 0.0607 0.02811 0.15945 0.0
H127 H 0.05305 0.00531 0.08858 0.0
Nd128 Nd 0.52442 0.99617 0.77827 0.0
Nd129 Nd 0.52566 0.02929 0.86417 0.0
C130 C 0.52481 0.96364 0.73523 0.0
C131 C 0.53236 0.95834 0.68225 0.0
C132 C 0.54003 0.94168 0.68499 0.0
C133 C 0.54869 0.93733 0.63617 0.0
C134 C 0.54982 0.94961 0.58367 0.0
C135 C 0.54163 0.96604 0.58081 0.0
C136 C 0.53308 0.97042 0.62968 0.0
C137 C 0.52492 0.03188 0.7167 0.0
C138 C 0.56442 0.01992 0.81307 0.0
C139 C 0.52702 0.05964 0.91963 0.0
C140 C 0.51292 0.06484 0.95589 0.0
C141 C 0.51701 0.08031 0.98852 0.0
C142 C 0.50344 0.08459 0.02424 0.0
C143 C 0.48561 0.07346 0.02749 0.0
C144 C 0.48169 0.05801 0.99443 0.0
C145 C 0.49519 0.05375 0.95908 0.0
C146 C 0.51881 0.99166 0.91488 0.0
C147 C 0.48663 0.00856 0.81907 0.0
O148 O 0.53699 0.97053 0.77184 0.0
O149 O 0.51105 0.97297 0.72882 0.0
O150 O 0.52466 0.01654 0.6915 0.0
O151 O 0.5257 0.02741 0.7702 0.0
O152 O 0.55527 0.00608 0.78554 0.0
O153 O 0.5564 0.03091 0.8433 0.0
O154 O 0.52314 0.05974 0.86459 0.0
O155 O 0.53356 0.04441 0.94084 0.0
O156 O 0.51213 0.00531 0.93481 0.0
O157 O 0.52945 0.99858 0.87262 0.0
O158 O 0.4962 0.02487 0.83264 0.0
O159 O 0.49443 0.99382 0.80968 0.0
H160 H 0.53974 0.93228 0.72534 0.0
H161 H 0.55505 0.92471 0.64019 0.0
H162 H 0.542 0.97566 0.54091 0.0
H163 H 0.52734 0.98344 0.62661 0.0
H164 H 0.53067 0.08897 0.98666 0.0
H165 H 0.50686 0.0966 0.04908 0.0
H166 H 0.46825 0.04887 0.99686 0.0
H167 H 0.49184 0.04162 0.93465 0.0
Nd168 Nd 0.50404 0.52192 0.86285 0.0
Nd169 Nd 0.51158 0.50428 0.75656 0.0
C170 C 0.49566 0.54398 0.93886 0.0
C171 C 0.50342 0.56311 0.95445 0.0
C172 C 0.49642 0.56962 0.00271 0.0
C173 C 0.50411 0.58756 0.01895 0.0
C174 C 0.51897 0.5993 0.9871 0.0
C175 C 0.5258 0.59275 0.93826 0.0
C176 C 0.51812 0.57479 0.92216 0.0
C177 C 0.53646 0.50817 0.86421 0.0
C178 C 0.52535 0.54913 0.75035 0.0
C179 C 0.52042 0.48283 0.67952 0.0
C180 C 0.51309 0.46426 0.65805 0.0
C181 C 0.51567 0.44675 0.68882 0.0
C182 C 0.50887 0.42936 0.66758 0.0
C183 C 0.49933 0.4291 0.61519 0.0
C184 C 0.49685 0.44661 0.58432 0.0
C185 C 0.50373 0.46399 0.60537 0.0
C186 C 0.47916 0.51802 0.75487 0.0
C187 C 0.48986 0.47702 0.86911 0.0
O188 O 0.48835 0.54351 0.88763 0.0
O189 O 0.50572 0.53078 0.95113 0.0
O190 O 0.52562 0.50613 0.90905 0.0
O191 O 0.53045 0.51768 0.82164 0.0
O192 O 0.51379 0.548 0.79426 0.0
O193 O 0.52976 0.53355 0.7334 0.0
O194 O 0.52688 0.48232 0.73208 0.0
O195 O 0.51115 0.49671 0.66688 0.0
O196 O 0.48999 0.51991 0.71005 0.0
O197 O 0.48513 0.50853 0.79755 0.0
O198 O 0.50105 0.47802 0.82417 0.0
O199 O 0.48601 0.49268 0.88734 0.0
H200 H 0.48506 0.56078 0.02804 0.0
H201 H 0.49838 0.59227 0.05633 0.0
H202 H 0.53736 0.60131 0.91322 0.0
H203 H 0.52378 0.56993 0.88492 0.0
H204 H 0.52293 0.44642 0.72936 0.0
H205 H 0.51088 0.4161 0.69259 0.0
H206 H 0.48979 0.4469 0.54341 0.0
H207 H 0.50175 0.47725 0.58023 0.0
Nd208 Nd 0.0103 0.52289 0.7728 0.0
Nd209 Nd 0.01712 0.50019 0.88679 0.0
C210 C 0.99528 0.54142 0.68533 0.0
C211 C 0.97821 0.53557 0.65446 0.0
C212 C 0.9724 0.548 0.60984 0.0
C213 C 0.95649 0.5419 0.57925 0.0
C214 C 0.94613 0.52328 0.59308 0.0
C215 C 0.95186 0.51108 0.63888 0.0
C216 C 0.9678 0.51711 0.66886 0.0
C217 C 0.02168 0.48893 0.76362 0.0
C218 C 0.97585 0.49357 0.84554 0.0
C219 C 0.03109 0.47865 0.96951 0.0
C220 C 0.04806 0.48058 0.00336 0.0
C221 C 0.0654 0.48755 0.9768 0.0
C222 C 0.08113 0.49064 0.01046 0.0
C223 C 0.0798 0.48693 0.07129 0.0
C224 C 0.06242 0.47958 0.09739 0.0
C225 C 0.04675 0.47638 0.06374 0.0
C226 C 0.0054 0.53389 0.89756 0.0
C227 C 0.0512 0.53156 0.8174 0.0
O228 O 0.9932 0.54425 0.73927 0.0
O229 O 0.00816 0.53146 0.67862 0.0
O230 O 0.02756 0.50457 0.72955 0.0
O231 O 0.00987 0.49134 0.79946 0.0
O232 O 0.9814 0.50933 0.80959 0.0
O233 O 0.9877 0.48485 0.87577 0.0
O234 O 0.03273 0.47701 0.91436 0.0
O235 O 0.01968 0.48994 0.97979 0.0
O236 O 0.00031 0.51825 0.9327 0.0
O237 O 0.0171 0.53179 0.86073 0.0
O238 O 0.04615 0.51608 0.85524 0.0
O239 O 0.0392 0.53916 0.78433 0.0
H240 H 0.98031 0.56227 0.598 0.0
H241 H 0.95262 0.55158 0.54376 0.0
H242 H 0.9441 0.49678 0.65138 0.0
H243 H 0.97215 0.50722 0.70281 0.0
H244 H 0.06681 0.49093 0.93018 0.0
H245 H 0.09428 0.49609 0.98883 0.0
H246 H 0.06074 0.4769 0.14405 0.0
H247 H 0.0335 0.4711 0.08506 0.0
H248 H 0.20444 0.96832 0.74511 0.0
H249 H 0.17389 0.97274 0.77382 0.0
H250 H 0.17924 0.02429 0.65255 0.0
H251 H 0.21003 0.02027 0.62485 0.0
H252 H 0.16167 0.02877 0.74797 0.0
H253 H 0.15652 0.98086 0.61715 0.0
H254 H 0.16196 0.95104 0.58207 0.0
H255 H 0.13598 0.91803 0.73598 0.0
H256 H 0.1306 0.94771 0.77233 0.0
H257 H 0.06744 0.03072 0.68918 0.0
H258 H 0.09997 0.02832 0.68234 0.0
H259 H 0.09205 0.98195 0.82238 0.0
H260 H 0.0595 0.98438 0.82974 0.0
H261 H 0.11088 0.97449 0.72496 0.0
H262 H 0.11349 0.02356 0.85006 0.0
H263 H 0.10665 0.05381 0.87822 0.0
H264 H 0.1364 0.08527 0.72823 0.0
H265 H 0.14315 0.05515 0.69858 0.0
C266 C 0.19922 0.98074 0.7251 0.0
C267 C 0.20956 0.99383 0.68224 0.0
C268 C 0.18173 0.98321 0.74142 0.0
C269 C 0.17412 0.99863 0.71446 0.0
C270 C 0.1848 0.01225 0.6738 0.0
C271 C 0.20238 0.0099 0.65789 0.0
C272 C 0.15467 0.99989 0.72581 0.0
C273 C 0.15056 0.01695 0.74257 0.0
C274 C 0.14016 0.98438 0.71952 0.0
C275 C 0.14335 0.96652 0.69774 0.0
C276 C 0.1521 0.96726 0.64371 0.0
C277 C 0.15515 0.95038 0.62356 0.0
C278 C 0.14937 0.93266 0.65685 0.0
C279 C 0.14048 0.93177 0.71029 0.0
C280 C 0.13742 0.94861 0.73068 0.0
C281 C 0.07266 0.02004 0.71854 0.0
C282 C 0.06102 0.00769 0.75985 0.0
C283 C 0.09122 0.01875 0.71478 0.0
C284 C 0.09838 0.00504 0.75212 0.0
C285 C 0.08675 0.99264 0.79329 0.0
C286 C 0.06822 0.99405 0.79745 0.0
C287 C 0.11793 0.00333 0.74692 0.0
C288 C 0.12202 0.98621 0.73106 0.0
C289 C 0.13235 0.01885 0.75338 0.0
C290 C 0.12871 0.03706 0.77185 0.0
C291 C 0.11849 0.03691 0.82287 0.0
C292 C 0.11463 0.05404 0.83912 0.0
C293 C 0.12106 0.07145 0.80498 0.0
C294 C 0.13142 0.07177 0.75462 0.0
C295 C 0.13528 0.05467 0.7381 0.0
H296 H 0.11804 0.08469 0.81758 0.0
H297 H 0.15173 0.91961 0.64118 0.0
H298 H 0.45428 0.16223 0.40263 0.0
H299 H 0.47444 0.13976 0.43812 0.0
H300 H 0.44932 0.13315 0.6081 0.0
H301 H 0.42886 0.15517 0.5729 0.0
H302 H 0.48855 0.14126 0.60633 0.0
H303 H 0.43798 0.09829 0.53092 0.0
H304 H 0.41674 0.08496 0.45823 0.0
H305 H 0.46248 0.07963 0.35196 0.0
H306 H 0.48403 0.09311 0.42408 0.0
H307 H 0.50905 0.05791 0.76461 0.0
H308 H 0.4975 0.08512 0.71426 0.0
H309 H 0.51942 0.07391 0.55253 0.0
H310 H 0.53042 0.04605 0.60319 0.0
H311 H 0.48601 0.07753 0.53876 0.0
H312 H 0.53667 0.11577 0.61923 0.0
H313 H 0.55816 0.12662 0.69481 0.0
H314 H 0.51389 0.14097 0.78959 0.0
H315 H 0.49207 0.12996 0.71499 0.0
C316 C 0.45293 0.15585 0.44743 0.0
C317 C 0.4399 0.16039 0.48489 0.0
C318 C 0.46446 0.14304 0.46757 0.0
C319 C 0.46333 0.13485 0.52565 0.0
C320 C 0.4504 0.13939 0.56313 0.0
C321 C 0.43869 0.15193 0.54286 0.0
C322 C 0.47579 0.12176 0.5481 0.0
C323 C 0.48801 0.12727 0.59184 0.0
C324 C 0.47552 0.10389 0.52742 0.0
C325 C 0.4626 0.09693 0.48252 0.0
C326 C 0.44351 0.09455 0.49166 0.0
C327 C 0.43142 0.08684 0.45069 0.0
C328 C 0.43826 0.08136 0.40055 0.0
C329 C 0.45721 0.08381 0.39093 0.0
C330 C 0.46937 0.09149 0.43181 0.0
C331 C 0.51193 0.06161 0.71875 0.0
C332 C 0.52079 0.05007 0.68788 0.0
C333 C 0.50532 0.07722 0.68983 0.0
C334 C 0.50782 0.08181 0.62958 0.0
C335 C 0.51738 0.0707 0.59902 0.0
C336 C 0.52371 0.05486 0.62793 0.0
C337 C 0.49865 0.09678 0.59814 0.0
C338 C 0.48699 0.09167 0.55258 0.0
C339 C 0.49961 0.11511 0.61676 0.0
C340 C 0.51271 0.12194 0.66156 0.0
C341 C 0.53149 0.12113 0.65634 0.0
C342 C 0.54373 0.12733 0.699 0.0
C343 C 0.53738 0.13445 0.747 0.0
C344 C 0.51878 0.13545 0.75237 0.0
C345 C 0.50648 0.12927 0.70984 0.0
H346 H 0.54688 0.13922 0.78001 0.0
H347 H 0.42893 0.07524 0.36901 0.0
H348 H 0.31611 0.55925 0.68076 0.0
H349 H 0.3425 0.54313 0.69739 0.0
H350 H 0.37113 0.59149 0.77651 0.0
H351 H 0.34444 0.60716 0.76265 0.0
H352 H 0.37451 0.5511 0.65565 0.0
H353 H 0.4028 0.57975 0.86935 0.0
H354 H 0.39079 0.58771 0.96043 0.0
H355 H 0.3397 0.54986 0.93956 0.0
H356 H 0.35148 0.54147 0.84879 0.0
H357 H 0.46765 0.54435 0.67573 0.0
H358 H 0.43811 0.55518 0.67399 0.0
H359 H 0.42083 0.51676 0.82978 0.0
H360 H 0.4508 0.50666 0.83315 0.0
H361 H 0.40949 0.54777 0.83782 0.0
H362 H 0.4054 0.50681 0.69017 0.0
H363 H 0.41492 0.49403 0.60343 0.0
H364 H 0.41281 0.54772 0.50043 0.0
H365 H 0.40351 0.56092 0.58673 0.0
C366 C 0.32795 0.5663 0.70247 0.0
C367 C 0.3282 0.58443 0.7206 0.0
C368 C 0.34306 0.5571 0.71179 0.0
C369 C 0.35882 0.56596 0.73873 0.0
C370 C 0.35902 0.58408 0.75702 0.0
C371 C 0.34377 0.59309 0.74877 0.0
C372 C 0.37541 0.55682 0.74466 0.0
C373 C 0.38207 0.55029 0.69565 0.0
C374 C 0.38514 0.55526 0.79713 0.0
C375 C 0.37798 0.56012 0.85196 0.0
C376 C 0.38903 0.57306 0.88431 0.0
C377 C 0.38226 0.57766 0.93587 0.0
C378 C 0.36447 0.56934 0.95568 0.0
C379 C 0.35344 0.55635 0.92406 0.0
C380 C 0.36016 0.55169 0.87251 0.0
C381 C 0.45752 0.53825 0.70958 0.0
C382 C 0.46139 0.52458 0.75429 0.0
C383 C 0.4406 0.54434 0.7084 0.0
C384 C 0.42702 0.53648 0.75103 0.0
C385 C 0.43102 0.523 0.79628 0.0
C386 C 0.44811 0.51719 0.7981 0.0
C387 C 0.40873 0.54245 0.7485 0.0
C388 C 0.40181 0.54842 0.79803 0.0
C389 C 0.39836 0.54278 0.69717 0.0
C390 C 0.40389 0.5349 0.64504 0.0
C391 C 0.40708 0.51593 0.64909 0.0
C392 C 0.41242 0.50861 0.6 0.0
C393 C 0.4145 0.52007 0.54648 0.0
C394 C 0.4112 0.53887 0.54192 0.0
C395 C 0.40587 0.54627 0.5909 0.0
H396 H 0.41864 0.51437 0.50852 0.0
H397 H 0.35925 0.57293 0.99558 0.0
H398 H 0.06106 0.32434 0.68891 0.0
H399 H 0.04691 0.35045 0.71657 0.0
H400 H 0.10076 0.38455 0.73307 0.0
H401 H 0.11489 0.35793 0.70915 0.0
H402 H 0.08035 0.39224 0.81046 0.0
H403 H 0.07304 0.38915 0.60718 0.0
H404 H 0.06388 0.37433 0.51854 0.0
H405 H 0.00747 0.36244 0.57658 0.0
H406 H 0.01634 0.37699 0.66594 0.0
H407 H 0.05413 0.48473 0.71749 0.0
H408 H 0.0659 0.45482 0.71497 0.0
H409 H 0.01668 0.4228 0.80286 0.0
H410 H 0.00508 0.45281 0.80751 0.0
H411 H 0.03296 0.41345 0.67908 0.0
H412 H 0.04351 0.42147 0.88273 0.0
H413 H 0.05576 0.44073 0.96008 0.0
H414 H 0.11026 0.44765 0.88797 0.0
H415 H 0.09824 0.429 0.80912 0.0
C416 C 0.06984 0.33735 0.6991 0.0
C417 C 0.08905 0.33922 0.69642 0.0
C418 C 0.06176 0.35231 0.71458 0.0
C419 C 0.07273 0.36973 0.72541 0.0
C420 C 0.09195 0.37132 0.72478 0.0
C421 C 0.10003 0.35613 0.71092 0.0
C422 C 0.06426 0.38656 0.73478 0.0
C423 C 0.07003 0.39685 0.78153 0.0
C424 C 0.05076 0.39272 0.69717 0.0
C425 C 0.04538 0.38395 0.64352 0.0
C426 C 0.0587 0.38325 0.60121 0.0
C427 C 0.05356 0.37492 0.55083 0.0
C428 C 0.03511 0.36739 0.54202 0.0
C429 C 0.02176 0.36824 0.58352 0.0
C430 C 0.02683 0.37653 0.63403 0.0
C431 C 0.04587 0.47131 0.73647 0.0
C432 C 0.0287 0.47097 0.76249 0.0
C433 C 0.05262 0.45431 0.73518 0.0
C434 C 0.04215 0.43675 0.75896 0.0
C435 C 0.02494 0.43632 0.78463 0.0
C436 C 0.01836 0.45339 0.78722 0.0
C437 C 0.049 0.41879 0.75458 0.0
C438 C 0.04303 0.40849 0.70841 0.0
C439 C 0.06269 0.41303 0.79155 0.0
C440 C 0.06993 0.42403 0.83954 0.0
C441 C 0.05806 0.42733 0.88286 0.0
C442 C 0.06497 0.43814 0.92705 0.0
C443 C 0.08376 0.4455 0.92882 0.0
C444 C 0.09569 0.44204 0.88647 0.0
C445 C 0.08883 0.43136 0.84197 0.0
H446 H 0.08909 0.4538 0.96316 0.0
H447 H 0.03116 0.36095 0.50298 0.0
H448 H 0.82521 0.9293 0.87641 0.0
H449 H 0.85769 0.94423 0.87021 0.0
H450 H 0.84361 0.99702 0.91434 0.0
H451 H 0.81129 0.98152 0.92506 0.0
H452 H 0.87863 0.97042 0.81205 0.0
H453 H 0.87672 0.02177 0.98662 0.0
H454 H 0.859 0.02355 0.07493 0.0
H455 H 0.84428 0.96206 0.10127 0.0
H456 H 0.86207 0.95991 0.01353 0.0
H457 H 0.96835 0.02752 0.81989 0.0
H458 H 0.93467 0.01934 0.81545 0.0
H459 H 0.93328 0.984 0.98016 0.0
H460 H 0.96668 0.9918 0.98426 0.0
H461 H 0.90614 0.0042 0.97454 0.0
H462 H 0.93233 0.96506 0.86304 0.0
H463 H 0.94962 0.95373 0.78834 0.0
H464 H 0.91805 0.97925 0.65563 0.0
H465 H 0.90048 0.99082 0.72984 0.0
C466 C 0.8291 0.94411 0.8846 0.0
C467 C 0.81586 0.95422 0.90189 0.0
C468 C 0.84766 0.95269 0.88083 0.0
C469 C 0.85326 0.9717 0.89292 0.0
C470 C 0.8398 0.98216 0.90666 0.0
C471 C 0.82132 0.97336 0.91239 0.0
C472 C 0.87319 0.98017 0.89339 0.0
C473 C 0.88459 0.97799 0.84731 0.0
C474 C 0.88117 0.98959 0.94016 0.0
C475 C 0.87052 0.99071 0.99315 0.0
C476 C 0.86972 0.00864 0.01136 0.0
C477 C 0.85967 0.00971 0.06128 0.0
C478 C 0.85046 0.99293 0.09355 0.0
C479 C 0.85135 0.97504 0.0761 0.0
C480 C 0.8614 0.97389 0.02626 0.0
C481 C 0.96079 0.01812 0.8552 0.0
C482 C 0.97008 0.01007 0.90199 0.0
C483 C 0.94161 0.01348 0.85266 0.0
C484 C 0.93153 0.00097 0.89732 0.0
C485 C 0.94078 0.99373 0.94535 0.0
C486 C 0.95988 0.99816 0.94754 0.0
C487 C 0.91144 0.99444 0.89326 0.0
C488 C 0.90006 0.99703 0.93864 0.0
C489 C 0.90368 0.98449 0.8474 0.0
C490 C 0.91517 0.97899 0.80216 0.0
C491 C 0.92925 0.96858 0.81795 0.0
C492 C 0.93905 0.96201 0.77569 0.0
C493 C 0.93492 0.96573 0.71732 0.0
C494 C 0.92118 0.97632 0.70097 0.0
C495 C 0.91128 0.98288 0.74315 0.0
H496 H 0.94228 0.96029 0.68484 0.0
H497 H 0.84268 0.99379 0.13216 0.0
H498 H 0.57196 0.84404 0.19515 0.0
H499 H 0.55395 0.86846 0.15937 0.0
H500 H 0.60412 0.90941 0.11875 0.0
H501 H 0.622 0.8844 0.1483 0.0
H502 H 0.54717 0.90097 0.17475 0.0
H503 H 0.60173 0.93852 0.00409 0.0
H504 H 0.6277 0.93186 0.94857 0.0
H505 H 0.60247 0.87236 0.95976 0.0
H506 H 0.57619 0.8788 0.01457 0.0
H507 H 0.52252 0.9865 0.03177 0.0
H508 H 0.53473 0.96044 0.08737 0.0
H509 H 0.53325 0.93108 0.935 0.0
H510 H 0.52201 0.95775 0.87877 0.0
H511 H 0.56456 0.93258 0.97599 0.0
H512 H 0.50503 0.91162 0.06333 0.0
H513 H 0.47638 0.9156 0.11056 0.0
H514 H 0.50711 0.93696 0.25319 0.0
H515 H 0.53601 0.93303 0.20684 0.0
C516 C 0.5791 0.8583 0.17879 0.0
C517 C 0.59836 0.86231 0.17369 0.0
C518 C 0.56881 0.8723 0.15869 0.0
C519 C 0.57764 0.89066 0.13455 0.0
C520 C 0.59693 0.89516 0.13494 0.0
C521 C 0.60719 0.88094 0.15252 0.0
C522 C 0.56677 0.90435 0.10408 0.0
C523 C 0.55102 0.90795 0.13137 0.0
C524 C 0.57144 0.91318 0.04686 0.0
C525 C 0.58704 0.90916 0.01344 0.0
C526 C 0.60165 0.92408 0.99418 0.0
C527 C 0.61645 0.92033 0.963 0.0
C528 C 0.61675 0.90169 0.95069 0.0
C529 C 0.60222 0.88678 0.96939 0.0
C530 C 0.58737 0.89048 0.00049 0.0
C531 C 0.52426 0.97418 0.01072 0.0
C532 C 0.52135 0.97403 0.95111 0.0
C533 C 0.53122 0.95924 0.04256 0.0
C534 C 0.53489 0.94368 0.01559 0.0
C535 C 0.53069 0.94297 0.95679 0.0
C536 C 0.52416 0.95811 0.92472 0.0
C537 C 0.54499 0.92937 0.04654 0.0
C538 C 0.56068 0.9257 0.01941 0.0
C539 C 0.53991 0.92008 0.1029 0.0
C540 C 0.52264 0.92206 0.13166 0.0
C541 C 0.50567 0.91715 0.10482 0.0
C542 C 0.4894 0.91936 0.13145 0.0
C543 C 0.48994 0.92647 0.18495 0.0
C544 C 0.50675 0.93133 0.21198 0.0
C545 C 0.52306 0.92904 0.18569 0.0
H546 H 0.47735 0.92825 0.20543 0.0
H547 H 0.62823 0.89879 0.92664 0.0
H548 H 0.67469 0.42277 0.92725 0.0
H549 H 0.64563 0.43364 0.90771 0.0
H550 H 0.67505 0.49102 0.85316 0.0
H551 H 0.70413 0.48036 0.87706 0.0
H552 H 0.64934 0.49465 0.91522 0.0
H553 H 0.65023 0.45848 0.75685 0.0
H554 H 0.65316 0.43078 0.70586 0.0
H555 H 0.60687 0.39674 0.80269 0.0
H556 H 0.60381 0.42416 0.85484 0.0
H557 H 0.56478 0.51962 0.786 0.0
H558 H 0.59441 0.50862 0.78733 0.0
H559 H 0.57697 0.46948 0.9411 0.0
H560 H 0.54754 0.48083 0.94118 0.0
H561 H 0.59647 0.45822 0.81996 0.0
H562 H 0.60094 0.4966 0.98693 0.0
H563 H 0.59824 0.52655 0.02664 0.0
H564 H 0.63553 0.55904 0.89468 0.0
H565 H 0.6382 0.52926 0.85375 0.0
C566 C 0.67495 0.43764 0.91023 0.0
C567 C 0.69163 0.45072 0.90349 0.0
C568 C 0.6583 0.44385 0.89864 0.0
C569 C 0.658 0.46315 0.87791 0.0
C570 C 0.6748 0.47608 0.86923 0.0
C571 C 0.69144 0.46998 0.88257 0.0
C572 C 0.6402 0.47008 0.86952 0.0
C573 C 0.63796 0.48673 0.89351 0.0
C574 C 0.62512 0.45989 0.84141 0.0
C575 C 0.62689 0.44335 0.81009 0.0
C576 C 0.64075 0.44505 0.76756 0.0
C577 C 0.64242 0.4294 0.7384 0.0
C578 C 0.63023 0.412 0.75111 0.0
C579 C 0.61631 0.41022 0.79292 0.0
C580 C 0.61459 0.42582 0.82223 0.0
C581 C 0.56728 0.50866 0.82003 0.0
C582 C 0.554 0.50115 0.86378 0.0
C583 C 0.58415 0.50239 0.82063 0.0
C584 C 0.58778 0.4883 0.86433 0.0
C585 C 0.57435 0.4804 0.90713 0.0
C586 C 0.55763 0.48694 0.90725 0.0
C587 C 0.60587 0.48229 0.8665 0.0
C588 C 0.60806 0.46598 0.84118 0.0
C589 C 0.62104 0.49298 0.89194 0.0
C590 C 0.61958 0.51078 0.91694 0.0
C591 C 0.6084 0.51016 0.96609 0.0
C592 C 0.60692 0.52709 0.98888 0.0
C593 C 0.61666 0.5447 0.96308 0.0
C594 C 0.62796 0.5454 0.91455 0.0
C595 C 0.62947 0.5285 0.89156 0.0
H596 H 0.6155 0.55779 0.98078 0.0
H597 H 0.63155 0.3999 0.7285 0.0
H598 H 0.96322 0.69278 0.02627 0.0
H599 H 0.97919 0.66727 0.00419 0.0
H600 H 0.93451 0.64632 0.89538 0.0
H601 H 0.91883 0.67221 0.91559 0.0
H602 H 0.97068 0.63103 0.02919 0.0
H603 H 0.94855 0.62326 0.79111 0.0
H604 H 0.94238 0.6439 0.703 0.0
H605 H 0.97676 0.6924 0.76398 0.0
H606 H 0.98335 0.672 0.85206 0.0
H607 H 0.97744 0.53922 0.96532 0.0
H608 H 0.96704 0.56928 0.97544 0.0
H609 H 0.00895 0.59973 0.85257 0.0
H610 H 0.01898 0.56944 0.8408 0.0
H611 H 0.97868 0.61299 0.83265 0.0
H612 H 0.01381 0.6015 0.00052 0.0
H613 H 0.02368 0.583 0.08778 0.0
H614 H 0.97012 0.57744 0.16558 0.0
H615 H 0.95985 0.59568 0.07844 0.0
C616 C 0.9569 0.68286 0.99713 0.0
C617 C 0.93977 0.68451 0.97263 0.0
C618 C 0.96603 0.66826 0.98462 0.0
C619 C 0.95816 0.65493 0.94769 0.0
C620 C 0.94109 0.65664 0.92295 0.0
C621 C 0.93207 0.6714 0.93483 0.0
C622 C 0.96728 0.63862 0.93775 0.0
C623 C 0.9725 0.62718 0.98614 0.0
C624 C 0.97007 0.63376 0.88156 0.0
C625 C 0.96631 0.64612 0.82845 0.0
C626 C 0.95486 0.63831 0.78561 0.0
C627 C 0.95127 0.64997 0.73569 0.0
C628 C 0.95913 0.66946 0.72798 0.0
C629 C 0.97063 0.67732 0.77011 0.0
C630 C 0.97427 0.66572 0.82008 0.0
C631 C 0.98443 0.55233 0.94049 0.0
C632 C -0.00088 0.55209 0.90275 0.0
C633 C 0.97854 0.56952 0.94647 0.0
C634 C 0.98745 0.58686 0.91568 0.0
C635 C 0.00192 0.58656 0.87698 0.0
C636 C 0.00768 0.56929 0.87044 0.0
C637 C 0.98162 0.60521 0.92416 0.0
C638 C 0.97699 0.61699 0.87558 0.0
C639 C 0.97989 0.61074 0.98007 0.0
C640 C 0.98603 0.59984 0.03275 0.0
C641 C 0.0041 0.59623 0.03609 0.0
C642 C 0.00977 0.5858 0.08555 0.0
C643 C 0.99753 0.57902 0.13215 0.0
C644 C 0.97959 0.58269 0.12943 0.0
C645 C 0.97385 0.5931 0.08005 0.0
H646 H 0.00194 0.57095 0.17039 0.0
H647 H 0.95633 0.67847 0.68932 0.0
H648 H 0.07476 0.23665 0.71743 0.0
H649 H 0.06186 0.20285 0.74875 0.0
H650 H 0.10568 0.18571 0.65723 0.0
H651 H 0.11853 0.21943 0.62597 0.0
H652 H 0.07407 0.16484 0.63435 0.0
H653 H 0.10477 0.18331 0.80557 0.0
H654 H 0.11268 0.20281 0.88577 0.0
H655 H 0.05656 0.1893 0.94658 0.0
H656 H 0.04826 0.16992 0.86624 0.0
H657 H 0.05766 0.07233 0.85506 0.0
H658 H 0.07119 0.10602 0.82863 0.0
H659 H 0.02653 0.11273 0.71263 0.0
H660 H 0.01294 0.07887 0.73837 0.0
H661 H 0.05962 0.13847 0.83957 0.0
H662 H 0.04342 0.14474 0.59456 0.0
H663 H 0.0394 0.12459 0.51476 0.0
H664 H 0.07282 0.0872 0.6028 0.0
H665 H 0.07711 0.10718 0.68299 0.0
C666 C 0.08167 0.22564 0.70445 0.0
C667 C 0.0974 0.23058 0.66833 0.0
C668 C 0.07433 0.20635 0.72236 0.0
C669 C 0.0828 0.19173 0.7053 0.0
C670 C 0.09879 0.19673 0.6704 0.0
C671 C 0.10606 0.21598 0.65227 0.0
C672 C 0.07483 0.17121 0.72268 0.0
C673 C 0.07088 0.15909 0.67923 0.0
C674 C 0.07094 0.16362 0.7813 0.0
C675 C 0.07586 0.17532 0.82954 0.0
C676 C 0.09409 0.18463 0.83575 0.0
C677 C 0.09865 0.19564 0.88129 0.0
C678 C 0.08512 0.19734 0.92115 0.0
C679 C 0.06701 0.188 0.91562 0.0
C680 C 0.06238 0.17699 0.87011 0.0
C681 C 0.0506 0.08095 0.82423 0.0
C682 C 0.03419 0.07286 0.79883 0.0
C683 C 0.05838 0.10025 0.80918 0.0
C684 C 0.04998 0.11185 0.76823 0.0
C685 C 0.03339 0.10396 0.7437 0.0
C686 C 0.02558 0.08463 0.75874 0.0
C687 C 0.05869 0.13217 0.7512 0.0
C688 C 0.06273 0.14426 0.79468 0.0
C689 C 0.06309 0.13962 0.69273 0.0
C690 C 0.0604 0.12735 0.64509 0.0
C691 C 0.0499 0.13221 0.5969 0.0
C692 C 0.04758 0.12082 0.55159 0.0
C693 C 0.05583 0.10462 0.5537 0.0
C694 C 0.06638 0.09973 0.60127 0.0
C695 C 0.06871 0.11105 0.64678 0.0
H696 H 0.05409 0.09587 0.51844 0.0
H697 H 0.08868 0.20585 0.95641 0.0
H698 H 0.32634 0.032 0.6445 0.0
H699 H 0.35774 0.03356 0.67962 0.0
H700 H 0.34571 0.97296 0.73995 0.0
H701 H 0.3144 0.97127 0.70394 0.0
H702 H 0.36573 0.99247 0.81742 0.0
H703 H 0.36862 0.98878 0.61441 0.0
H704 H 0.3644 0.99756 0.5101 0.0
H705 H 0.3981 0.05283 0.51818 0.0
H706 H 0.40223 0.04453 0.62295 0.0
H707 H 0.45986 0.97639 0.82037 0.0
H708 H 0.42719 0.97526 0.7984 0.0
H709 H 0.4361 0.03712 0.77253 0.0
H710 H 0.4685 0.03843 0.79557 0.0
H711 H 0.41787 0.01689 0.67878 0.0
H712 H 0.41488 0.01945 0.8841 0.0
H713 H 0.42012 0.00889 0.98658 0.0
H714 H 0.38721 0.95367 0.97152 0.0
H715 H 0.38207 0.9638 0.86842 0.0
C716 C 0.33048 0.01897 0.66437 0.0
C717 C 0.31813 0.0014 0.66976 0.0
C718 C 0.34836 0.0199 0.68493 0.0
C719 C 0.35416 0.00329 0.71136 0.0
C720 C 0.34155 0.98593 0.71941 0.0
C721 C 0.32368 0.98499 0.69882 0.0
C722 C 0.37351 0.00389 0.72913 0.0
C723 C 0.37711 0.99762 0.78694 0.0
C724 C 0.38839 0.01082 0.68948 0.0
C725 C 0.38555 0.0161 0.62676 0.0
C726 C 0.37493 0.0029 0.59417 0.0
C727 C 0.37259 0.00778 0.53492 0.0
C728 C 0.38097 0.02574 0.50757 0.0
C729 C 0.39161 0.03892 0.53947 0.0
C730 C 0.39394 0.03415 0.59881 0.0
C731 C 0.45479 0.98973 0.8106 0.0
C732 C 0.46672 0.00748 0.80985 0.0
C733 C 0.43617 0.98906 0.79818 0.0
C734 C 0.42933 0.00613 0.7839 0.0
C735 C 0.44117 0.02383 0.78353 0.0
C736 C 0.45964 0.02451 0.79701 0.0
C737 C 0.41 0.00559 0.76688 0.0
C738 C 0.40644 0.01182 0.70916 0.0
C739 C 0.3952 0.99846 0.80639 0.0
C740 C 0.39828 0.99231 0.86833 0.0
C741 C 0.40893 0.00498 0.90242 0.0
C742 C 0.41185 0.99909 0.9607 0.0
C743 C 0.40403 0.9806 0.98556 0.0
C744 C 0.39327 0.96798 0.95218 0.0
C745 C 0.39036 0.97379 0.89381 0.0
H746 H 0.40627 0.97606 0.03072 0.0
H747 H 0.37928 0.02937 0.46159 0.0
H748 H 0.4531 0.25716 0.46846 0.0
H749 H 0.46836 0.28813 0.49594 0.0
H750 H 0.41967 0.31191 0.45238 0.0
H751 H 0.40458 0.2811 0.42375 0.0
H752 H 0.44886 0.33695 0.41505 0.0
H753 H 0.4311 0.29703 0.59591 0.0
H754 H 0.43003 0.26833 0.66742 0.0
H755 H 0.48887 0.28004 0.67821 0.0
H756 H 0.49031 0.30869 0.60622 0.0
H757 H 0.46563 0.41825 0.56856 0.0
H758 H 0.45338 0.38778 0.53252 0.0
H759 H 0.50403 0.36774 0.57501 0.0
H760 H 0.51632 0.39818 0.61152 0.0
H761 H 0.4755 0.34083 0.61024 0.0
H762 H 0.49311 0.38189 0.43355 0.0
H763 H 0.49418 0.41053 0.36191 0.0
H764 H 0.43569 0.3968 0.34295 0.0
H765 H 0.43423 0.36821 0.41512 0.0
C766 C 0.44572 0.26905 0.46463 0.0
C767 C 0.42777 0.26685 0.44332 0.0
C768 C 0.4544 0.28671 0.48052 0.0
C769 C 0.44509 0.30232 0.47692 0.0
C770 C 0.42717 0.30012 0.45529 0.0
C771 C 0.41859 0.28255 0.43866 0.0
C772 C 0.45387 0.3209 0.49625 0.0
C773 C 0.45449 0.33782 0.45799 0.0
C774 C 0.46169 0.32203 0.55171 0.0
C775 C 0.46082 0.30489 0.5953 0.0
C776 C 0.44382 0.29341 0.61328 0.0
C777 C 0.44314 0.27717 0.65393 0.0
C778 C 0.45937 0.27234 0.67723 0.0
C779 C 0.47631 0.28378 0.66007 0.0
C780 C 0.47706 0.30003 0.6194 0.0
C781 C 0.47423 0.40743 0.56967 0.0
C782 C 0.49196 0.41064 0.59278 0.0
C783 C 0.46722 0.39002 0.54899 0.0
C784 C 0.47787 0.37555 0.55032 0.0
C785 C 0.49556 0.3787 0.57351 0.0
C786 C 0.50254 0.39607 0.59453 0.0
C787 C 0.47032 0.3569 0.52927 0.0
C788 C 0.46994 0.33997 0.56721 0.0
C789 C 0.4627 0.35578 0.47356 0.0
C790 C 0.46355 0.373 0.43018 0.0
C791 C 0.48046 0.38506 0.41448 0.0
C792 C 0.48114 0.40127 0.3737 0.0
C793 C 0.46501 0.40551 0.348 0.0
C794 C 0.44817 0.39351 0.36294 0.0
C795 C 0.44741 0.3773 0.40375 0.0
H796 H 0.46557 0.41806 0.31643 0.0
H797 H 0.45882 0.25975 0.70867 0.0
H798 H 0.21287 0.59132 0.61786 0.0
H799 H 0.18088 0.58086 0.64885 0.0
H800 H 0.19757 0.57258 0.82668 0.0
H801 H 0.22989 0.58202 0.79524 0.0
H802 H 0.17033 0.54411 0.80564 0.0
H803 H 0.18062 0.61249 0.77476 0.0
H804 H 0.19096 0.64471 0.72171 0.0
H805 H 0.15264 0.6312 0.58712 0.0
H806 H 0.14224 0.5988 0.63899 0.0
H807 H 0.07725 0.53243 0.90084 0.0
H808 H 0.11021 0.54498 0.8885 0.0
H809 H 0.10253 0.56086 0.70606 0.0
H810 H 0.06946 0.54965 0.71936 0.0
H811 H 0.12629 0.58696 0.7417 0.0
H812 H 0.11852 0.51653 0.77208 0.0
H813 H 0.10775 0.48523 0.83042 0.0
H814 H 0.14118 0.50371 0.97158 0.0
H815 H 0.15204 0.53515 0.91423 0.0
C816 C 0.20985 0.58659 0.66326 0.0
C817 C 0.22398 0.58696 0.70386 0.0
C818 C 0.19148 0.58102 0.68115 0.0
C819 C 0.18679 0.57614 0.7402 0.0
C820 C 0.20086 0.57628 0.7809 0.0
C821 C 0.2193 0.58174 0.76291 0.0
C822 C 0.16716 0.57129 0.75912 0.0
C823 C 0.16072 0.55357 0.79225 0.0
C824 C 0.15462 0.58363 0.74177 0.0
C825 C 0.16075 0.60316 0.71059 0.0
C826 C 0.17448 0.61635 0.73367 0.0
C827 C 0.18034 0.63465 0.70384 0.0
C828 C 0.17249 0.63999 0.65103 0.0
C829 C 0.15872 0.62704 0.62802 0.0
C830 C 0.15282 0.60871 0.65766 0.0
C831 C 0.08264 0.53881 0.85829 0.0
C832 C 0.07087 0.54006 0.81097 0.0
C833 C 0.1015 0.54582 0.85112 0.0
C834 C 0.10903 0.55342 0.79597 0.0
C835 C 0.09714 0.55504 0.74904 0.0
C836 C 0.07823 0.54861 0.7566 0.0
C837 C 0.12924 0.55941 0.78621 0.0
C838 C 0.13586 0.57746 0.75513 0.0
C839 C 0.14193 0.54741 0.80577 0.0
C840 C 0.13601 0.5282 0.83901 0.0
C841 C 0.12359 0.51389 0.81551 0.0
C842 C 0.11746 0.49614 0.84842 0.0
C843 C 0.1238 0.4925 0.90464 0.0
C844 C 0.13633 0.50655 0.92798 0.0
C845 C 0.1425 0.52431 0.89528 0.0
H846 H 0.11898 0.47883 0.93026 0.0
H847 H 0.17705 0.65416 0.62799 0.0
H848 H 0.95037 0.78502 0.92692 0.0
H849 H 0.96402 0.81843 0.89306 0.0
H850 H 0.92954 0.83776 0.01432 0.0
H851 H 0.91516 0.8045 0.04559 0.0
H852 H 0.93123 0.86018 0.92001 0.0
H853 H 0.976 0.83503 0.04095 0.0
H854 H 0.9967 0.81251 0.07358 0.0
H855 H 0.02593 0.82623 0.91039 0.0
H856 H 0.00524 0.84866 0.87651 0.0
H857 H 0.0122 0.94533 0.94392 0.0
H858 H 0.99832 0.91147 0.96659 0.0
H859 H 0.96813 0.91419 0.80752 0.0
H860 H 0.98174 0.94814 0.78515 0.0
H861 H -0.00103 0.88065 0.91958 0.0
H862 H 0.92686 0.88472 0.82495 0.0
H863 H 0.90479 0.90698 0.81181 0.0
H864 H 0.92942 0.93658 0.95073 0.0
H865 H 0.95158 0.91446 0.96485 0.0
C866 C 0.94569 0.79644 0.94612 0.0
C867 C 0.93221 0.79219 0.99052 0.0
C868 C 0.95357 0.8155 0.92706 0.0
C869 C 0.94817 0.83061 0.95229 0.0
C870 C 0.93416 0.82635 0.9949 0.0
C871 C 0.92619 0.80733 0.01358 0.0
C872 C 0.95716 0.85088 0.93509 0.0
C873 C 0.94605 0.86463 0.9196 0.0
C874 C 0.97649 0.8568 0.93575 0.0
C875 C 0.98895 0.84335 0.95598 0.0
C876 C 0.98675 0.83313 0.01187 0.0
C877 C -0.0015 0.82041 0.03062 0.0
C878 C 0.01258 0.8179 0.99402 0.0
C879 C 0.01499 0.82816 0.93865 0.0
C880 C 0.00327 0.84089 0.91967 0.0
C881 C 0.00271 0.93868 0.91357 0.0
C882 C 0.99791 0.94944 0.86307 0.0
C883 C 0.99478 0.91932 0.92658 0.0
C884 C 0.98195 0.91033 0.88924 0.0
C885 C 0.97765 0.9209 0.83769 0.0
C886 C 0.98548 0.9403 0.82489 0.0
C887 C 0.97302 0.88997 0.9046 0.0
C888 C 0.98416 0.87618 0.91946 0.0
C889 C 0.95368 0.88412 0.90546 0.0
C890 C 0.94097 0.89803 0.89558 0.0
C891 C 0.92759 0.89601 0.85257 0.0
C892 C 0.91505 0.90858 0.84501 0.0
C893 C 0.91566 0.92312 0.88057 0.0
C894 C 0.92896 0.92529 0.92327 0.0
C895 C 0.94156 0.9128 0.93089 0.0
H896 H 0.90582 0.93272 0.87499 0.0
H897 H 0.02166 0.80804 0.00861 0.0
H898 H 0.70823 0.94927 0.83277 0.0
H899 H 0.68337 0.96734 0.80955 0.0
H900 H 0.6854 0.98389 0.98225 0.0
H901 H 0.71033 0.96607 0.00524 0.0
H902 H 0.65064 0.97147 0.95255 0.0
H903 H 0.70257 0.01598 0.86688 0.0
H904 H 0.73045 0.02663 0.80525 0.0
H905 H 0.6991 0.01392 0.65452 0.0
H906 H 0.67106 0.00293 0.71537 0.0
H907 H 0.58733 0.0332 0.89759 0.0
H908 H 0.61835 0.02662 0.91549 0.0
H909 H 0.6177 0.0022 0.75449 0.0
H910 H 0.58679 0.00872 0.73624 0.0
H911 H 0.65285 0.02111 0.78235 0.0
H912 H 0.60125 0.97522 0.86986 0.0
H913 H 0.57308 0.96665 0.93061 0.0
H914 H 0.60416 0.98169 0.07985 0.0
H915 H 0.63241 0.99129 0.01932 0.0
C916 C 0.70339 0.95684 0.86559 0.0
C917 C 0.71083 0.95586 0.92126 0.0
C918 C 0.68924 0.96718 0.85231 0.0
C919 C 0.68254 0.97698 0.8942 0.0
C920 C 0.69022 0.97628 0.94948 0.0
C921 C 0.70433 0.96593 0.96276 0.0
C922 C 0.66723 0.98758 0.88087 0.0
C923 C 0.65127 0.98257 0.91596 0.0
C924 C 0.66792 0.00182 0.83254 0.0
C925 C 0.68475 0.00847 0.79578 0.0
C926 C 0.70165 0.01531 0.82065 0.0
C927 C 0.71747 0.02144 0.78584 0.0
C928 C 0.71655 0.02091 0.72602 0.0
C929 C 0.69979 0.0143 0.70087 0.0
C930 C 0.68392 0.00814 0.73549 0.0
C931 C 0.59405 0.02709 0.86499 0.0
C932 C 0.58453 0.02117 0.81599 0.0
C933 C 0.61174 0.02327 0.8754 0.0
C934 C 0.62011 0.01359 0.83682 0.0
C935 C 0.61142 0.00959 0.78491 0.0
C936 C 0.59372 0.01325 0.7747 0.0
C937 C 0.6364 0.00502 0.85404 0.0
C938 C 0.65241 0.01023 0.81946 0.0
C939 C 0.63576 0.99095 0.90287 0.0
C940 C 0.61892 0.98431 0.93979 0.0
C941 C 0.60207 0.97692 0.91549 0.0
C942 C 0.58606 0.97193 0.94986 0.0
C943 C 0.58681 0.9737 0.00903 0.0
C944 C 0.60358 0.98043 0.03394 0.0
C945 C 0.61959 0.98574 0.99954 0.0
H946 H 0.57442 0.96974 0.03565 0.0
H947 H 0.72882 0.02566 0.69915 0.0
H948 H 0.59624 0.77215 0.07428 0.0
H949 H 0.58189 0.74243 0.03689 0.0
H950 H 0.58115 0.71181 0.20888 0.0
H951 H 0.59657 0.74108 0.24516 0.0
H952 H 0.59121 0.69111 0.13581 0.0
H953 H 0.54169 0.72612 0.14349 0.0
H954 H 0.52592 0.75377 0.12246 0.0
H955 H 0.52963 0.74997 0.94014 0.0
H956 H 0.54564 0.72243 0.96007 0.0
H957 H 0.52678 0.6077 0.09725 0.0
H958 H 0.54145 0.63837 0.12747 0.0
H959 H 0.54581 0.66399 0.94922 0.0
H960 H 0.53066 0.63343 0.91869 0.0
H961 H 0.5343 0.68748 0.02093 0.0
H962 H 0.58294 0.6511 0.01617 0.0
H963 H 0.59771 0.62286 0.04011 0.0
H964 H 0.59455 0.6288 0.22117 0.0
H965 H 0.57952 0.65693 0.19836 0.0
C966 C 0.593 0.75906 0.10403 0.0
C967 C 0.59691 0.75912 0.16322 0.0
C968 C 0.58466 0.74211 0.08272 0.0
C969 C 0.57998 0.72492 0.12028 0.0
C970 C 0.58435 0.72491 0.17909 0.0
C971 C 0.59283 0.74178 0.20017 0.0
C972 C 0.57085 0.70685 0.09852 0.0
C973 C 0.57864 0.6903 0.11128 0.0
C974 C 0.55466 0.70581 0.06533 0.0
C975 C 0.54504 0.72235 0.05325 0.0
C976 C 0.53927 0.73128 0.0989 0.0
C977 C 0.53027 0.74691 0.08718 0.0
C978 C 0.52682 0.75366 0.02999 0.0
C979 C 0.53233 0.74475 0.98441 0.0
C980 C 0.54136 0.72912 0.99589 0.0
C981 C 0.53066 0.6199 0.06448 0.0
C982 C 0.52758 0.61809 0.00551 0.0
C983 C 0.5392 0.63738 0.08179 0.0
C984 C 0.54494 0.65341 0.04054 0.0
C985 C 0.54157 0.65178 0.98175 0.0
C986 C 0.53305 0.63427 0.96435 0.0
C987 C 0.55457 0.6718 0.05886 0.0
C988 C 0.54689 0.68837 0.04533 0.0
C989 C 0.57077 0.67284 0.09181 0.0
C990 C 0.57997 0.65603 0.10557 0.0
C991 C 0.58528 0.64631 0.06112 0.0
C992 C 0.59372 0.63033 0.07448 0.0
C993 C 0.59703 0.62401 0.13213 0.0
C994 C 0.59196 0.6337 0.17654 0.0
C995 C 0.5835 0.64967 0.16341 0.0
H996 H 0.60356 0.61164 0.14239 0.0
H997 H 0.51985 0.76576 0.02101 0.0
H998 H 0.80991 0.4237 0.01075 0.0
H999 H 0.84265 0.43292 0.98704 0.0
H1000 H 0.83067 0.47203 0.84151 0.0
H1001 H 0.7977 0.46297 0.86587 0.0
H1002 H 0.85723 0.45391 0.81229 0.0
H1003 H 0.84705 0.48956 0.96234 0.0
H1004 H 0.83765 0.49858 0.05524 0.0
H1005 H 0.87157 0.46251 0.1468 0.0
H1006 H 0.88103 0.45302 0.0544 0.0
H1007 H 0.94824 0.50863 0.79016 0.0
H1008 H 0.91531 0.49827 0.80554 0.0
H1009 H 0.92479 0.45187 0.93215 0.0
H1010 H 0.9581 0.46239 0.91784 0.0
H1011 H 0.89968 0.47488 0.96754 0.0
H1012 H 0.90319 0.43568 0.80233 0.0
H1013 H 0.91699 0.43492 0.7062 0.0
H1014 H 0.89887 0.48736 0.64246 0.0
H1015 H 0.88436 0.48795 0.73753 0.0
C1016 C 0.81425 0.43452 0.97435 0.0
C1017 C 0.80131 0.4431 0.94136 0.0
C1018 C 0.83297 0.43966 0.96051 0.0
C1019 C 0.83917 0.45349 0.91325 0.0
C1020 C 0.82621 0.46143 0.87843 0.0
C1021 C 0.80741 0.45626 0.89236 0.0
C1022 C 0.85921 0.45975 0.90137 0.0
C1023 C 0.86642 0.45861 0.84627 0.0
C1024 C 0.87135 0.46606 0.94531 0.0
C1025 C 0.86461 0.47043 0.00139 0.0
C1026 C 0.85226 0.48326 0.00231 0.0
C1027 C 0.84699 0.48853 0.05484 0.0
C1028 C 0.85406 0.48116 0.10673 0.0
C1029 C 0.86614 0.4682 0.10644 0.0
C1030 C 0.87146 0.46288 0.05401 0.0
C1031 C 0.94342 0.49608 0.82093 0.0
C1032 C 0.95586 0.48629 0.85272 0.0
C1033 C 0.92453 0.49012 0.82935 0.0
C1034 C 0.91761 0.47412 0.86923 0.0
C1035 C 0.92991 0.46419 0.90086 0.0
C1036 C 0.94891 0.47019 0.89255 0.0
C1037 C 0.89753 0.46842 0.87964 0.0
C1038 C 0.89037 0.46985 0.93422 0.0
C1039 C 0.88544 0.46302 0.83496 0.0
C1040 C 0.89258 0.46174 0.77657 0.0
C1041 C 0.90192 0.44685 0.76741 0.0
C1042 C 0.90984 0.44645 0.71318 0.0
C1043 C 0.90874 0.46104 0.66816 0.0
C1044 C 0.89962 0.476 0.67722 0.0
C1045 C 0.89132 0.47623 0.73098 0.0
H1046 H 0.91495 0.46074 0.62632 0.0
H1047 H 0.85038 0.48569 0.14708 0.0
H1048 H 0.11497 0.19368 0.39585 0.0
H1049 H 0.11037 0.16869 0.33145 0.0
H1050 H 0.06234 0.13949 0.43142 0.0
H1051 H 0.06704 0.16425 0.497 0.0
H1052 H 0.08279 0.11449 0.40405 0.0
H1053 H 0.05842 0.16656 0.30189 0.0
H1054 H 0.05869 0.19992 0.25868 0.0
H1055 H 0.10363 0.19692 0.14586 0.0
H1056 H 0.10381 0.16362 0.18901 0.0
H1057 H 0.04595 0.05356 0.19476 0.0
H1058 H 0.05119 0.07706 0.26408 0.0
H1059 H 0.09844 0.10802 0.16325 0.0
H1060 H 0.09307 0.08467 0.09328 0.0
H1061 H 0.07801 0.13198 0.19224 0.0
H1062 H 0.10188 0.07928 0.29446 0.0
H1063 H 0.10114 0.0459 0.33828 0.0
H1064 H 0.05668 0.04997 0.45158 0.0
H1065 H 0.05694 0.08328 0.4078 0.0
C1066 C 0.10344 0.18193 0.40431 0.0
C1067 C 0.09129 0.18103 0.45135 0.0
C1068 C 0.10079 0.16769 0.36727 0.0
C1069 C 0.08585 0.15238 0.37614 0.0
C1070 C 0.07393 0.15121 0.42377 0.0
C1071 C 0.07661 0.16541 0.46106 0.0
C1072 C 0.08263 0.13763 0.33555 0.0
C1073 C 0.08151 0.11827 0.35779 0.0
C1074 C 0.08131 0.14261 0.27509 0.0
C1075 C 0.08125 0.16265 0.24911 0.0
C1076 C 0.06846 0.17306 0.26822 0.0
C1077 C 0.06852 0.19195 0.24367 0.0
C1078 C 0.0812 0.20055 0.19966 0.0
C1079 C 0.09384 0.19025 0.18002 0.0
C1080 C 0.09386 0.17137 0.20448 0.0
C1081 C 0.05758 0.06525 0.18777 0.0
C1082 C 0.06914 0.06725 0.13869 0.0
C1083 C 0.06059 0.07867 0.22746 0.0
C1084 C 0.07536 0.09419 0.21935 0.0
C1085 C 0.08696 0.09617 0.17045 0.0
C1086 C 0.08386 0.08284 0.13046 0.0
C1087 C 0.07835 0.10879 0.26056 0.0
C1088 C 0.07935 0.12816 0.23845 0.0
C1089 C 0.07951 0.10378 0.32114 0.0
C1090 C 0.07929 0.08371 0.34735 0.0
C1091 C 0.09182 0.073 0.32833 0.0
C1092 C 0.09151 0.0541 0.35324 0.0
C1093 C 0.07883 0.0458 0.39756 0.0
C1094 C 0.06646 0.0564 0.41716 0.0
C1095 C 0.06669 0.07529 0.39232 0.0
H1096 H 0.07862 0.03117 0.41681 0.0
H1097 H 0.08122 0.21517 0.18069 0.0
H1098 H 0.37164 0.06646 0.45007 0.0
H1099 H 0.39694 0.07658 0.3796 0.0
H1100 H 0.36148 0.05591 0.24456 0.0
H1101 H 0.33618 0.04548 0.31474 0.0
H1102 H 0.39153 0.04157 0.2453 0.0
H1103 H 0.37766 0.10399 0.25634 0.0
H1104 H 0.3726 0.13166 0.30412 0.0
H1105 H 0.42837 0.13996 0.36135 0.0
H1106 H 0.43378 0.11231 0.31438 0.0
H1107 H 0.44932 0.07292 0.00435 0.0
H1108 H 0.42466 0.07378 0.07294 0.0
H1109 H 0.46431 0.08363 0.20736 0.0
H1110 H 0.48916 0.08242 0.13906 0.0
H1111 H 0.43342 0.1046 0.20869 0.0
H1112 H 0.44604 0.04083 0.20609 0.0
H1113 H 0.45136 0.01304 0.15922 0.0
H1114 H 0.39758 0.00798 0.08593 0.0
H1115 H 0.39207 0.036 0.13153 0.0
C1116 C 0.36918 0.06423 0.40525 0.0
C1117 C 0.35197 0.05488 0.38818 0.0
C1118 C 0.38367 0.07012 0.36495 0.0
C1119 C 0.3812 0.06693 0.30681 0.0
C1120 C 0.36377 0.05842 0.28926 0.0
C1121 C 0.34929 0.0525 0.32946 0.0
C1122 C 0.39704 0.07078 0.26531 0.0
C1123 C 0.40045 0.05549 0.23675 0.0
C1124 C 0.40914 0.08875 0.25554 0.0
C1125 C 0.406 0.10571 0.28293 0.0
C1126 C 0.3888 0.11155 0.27971 0.0
C1127 C 0.38589 0.12731 0.30649 0.0
C1128 C 0.40012 0.13749 0.33617 0.0
C1129 C 0.41733 0.13201 0.33871 0.0
C1130 C 0.42033 0.11629 0.31197 0.0
C1131 C 0.45284 0.07545 0.04835 0.0
C1132 C 0.47117 0.07726 0.06653 0.0
C1133 C 0.43875 0.07608 0.08733 0.0
C1134 C 0.44268 0.07856 0.14525 0.0
C1135 C 0.46104 0.08175 0.16272 0.0
C1136 C 0.4752 0.08106 0.12365 0.0
C1137 C 0.42745 0.07552 0.18842 0.0
C1138 C 0.42431 0.09082 0.21741 0.0
C1139 C 0.41552 0.05758 0.19886 0.0
C1140 C 0.41872 0.04063 0.17174 0.0
C1141 C 0.43541 0.0339 0.17955 0.0
C1142 C 0.43845 0.0181 0.15328 0.0
C1143 C 0.42484 0.00878 0.11953 0.0
C1144 C 0.40813 0.01523 0.11204 0.0
C1145 C 0.40504 0.03107 0.13809 0.0
H1146 H 0.42722 0.99653 0.0993 0.0
H1147 H 0.39785 0.14968 0.35693 0.0
H1148 H 0.41125 0.33308 0.21869 0.0
H1149 H 0.4214 0.3623 0.15217 0.0
H1150 H 0.46184 0.33537 0.07696 0.0
H1151 H 0.452 0.30621 0.14399 0.0
H1152 H 0.47657 0.37061 0.09786 0.0
H1153 H 0.42272 0.34186 0.00489 0.0
H1154 H 0.39016 0.32699 0.99726 0.0
H1155 H 0.37352 0.37828 0.04053 0.0
H1156 H 0.40599 0.39338 0.04923 0.0
H1157 H 0.49904 0.44226 0.85693 0.0
H1158 H 0.48691 0.41126 0.91276 0.0
H1159 H 0.45024 0.43786 0.00648 0.0
H1160 H 0.46229 0.46893 0.95104 0.0
H1161 H 0.43363 0.40221 0.97215 0.0
H1162 H 0.48802 0.43014 0.0684 0.0
H1163 H 0.52073 0.4449 0.07277 0.0
H1164 H 0.53645 0.39439 0.01984 0.0
H1165 H 0.50379 0.37944 0.01426 0.0
C1166 C 0.42224 0.33333 0.18782 0.0
C1167 C 0.4308 0.31731 0.18655 0.0
C1168 C 0.42797 0.35002 0.14966 0.0
C1169 C 0.44224 0.35093 0.10918 0.0
C1170 C 0.45079 0.33495 0.10781 0.0
C1171 C 0.44511 0.31829 0.14607 0.0
C1172 C 0.4486 0.36874 0.06941 0.0
C1173 C 0.46722 0.37734 0.06971 0.0
C1174 C 0.43634 0.37771 0.03344 0.0
C1175 C 0.41679 0.36868 0.02826 0.0
C1176 C 0.41211 0.34992 0.01326 0.0
C1177 C 0.39367 0.34146 0.00865 0.0
C1178 C 0.37978 0.35167 0.01856 0.0
C1179 C 0.3843 0.37038 0.03295 0.0
C1180 C 0.40272 0.37891 0.03767 0.0
C1181 C 0.48828 0.4415 0.88906 0.0
C1182 C 0.48171 0.45807 0.8999 0.0
C1183 C 0.48141 0.42379 0.92096 0.0
C1184 C 0.46781 0.42236 0.96397 0.0
C1185 C 0.46075 0.43872 0.97345 0.0
C1186 C 0.46772 0.45646 0.94193 0.0
C1187 C 0.46152 0.40398 0.0009 0.0
C1188 C 0.44294 0.39535 1.00012 0.0
C1189 C 0.47382 0.39491 0.03618 0.0
C1190 C 0.49346 0.40376 0.04031 0.0
C1191 C 0.49845 0.42224 0.05726 0.0
C1192 C 0.51698 0.43063 0.06001 0.0
C1193 C 0.53066 0.42061 0.04642 0.0
C1194 C 0.52583 0.40215 0.03025 0.0
C1195 C 0.50732 0.3937 0.02732 0.0
H1196 H 0.545 0.42714 0.04854 0.0
H1197 H 0.36551 0.34509 0.01495 0.0
H1198 H 0.20801 0.56613 0.39092 0.0
H1199 H 0.18946 0.5545 0.31097 0.0
H1200 H 0.16192 0.50596 0.42634 0.0
H1201 H 0.18056 0.51735 0.50652 0.0
H1202 H 0.17052 0.49564 0.32142 0.0
H1203 H 0.14167 0.54441 0.39122 0.0
H1204 H 0.14083 0.57673 0.41752 0.0
H1205 H 0.15672 0.60147 0.24352 0.0
H1206 H 0.15789 0.5693 0.21639 0.0
H1207 H 0.08841 0.46713 0.17331 0.0
H1208 H 0.11282 0.47729 0.23945 0.0
H1209 H 0.13334 0.52711 0.1177 0.0
H1210 H 0.10825 0.51768 0.05272 0.0
H1211 H 0.13061 0.53749 0.22001 0.0
H1212 H 0.15691 0.48857 0.14711 0.0
H1213 H 0.15777 0.45635 0.12021 0.0
H1214 H 0.14718 0.43193 0.29743 0.0
H1215 H 0.14598 0.46397 0.3253 0.0
C1216 C 0.19806 0.55293 0.39931 0.0
C1217 C 0.19567 0.54273 0.45524 0.0
C1218 C 0.18745 0.54633 0.35355 0.0
C1219 C 0.17417 0.52948 0.36286 0.0
C1220 C 0.17209 0.519 0.41824 0.0
C1221 C 0.1827 0.52558 0.46406 0.0
C1222 C 0.16201 0.52311 0.31541 0.0
C1223 C 0.16167 0.5047 0.29947 0.0
C1224 C 0.15086 0.53516 0.28575 0.0
C1225 C 0.15006 0.55448 0.30195 0.0
C1226 C 0.14512 0.55676 0.35869 0.0
C1227 C 0.14456 0.57504 0.37373 0.0
C1228 C 0.14877 0.59114 0.33226 0.0
C1229 C 0.15349 0.58899 0.27562 0.0
C1230 C 0.15409 0.57073 0.26038 0.0
C1231 C 0.09808 0.48027 0.16048 0.0
C1232 C 0.09617 0.49168 0.10786 0.0
C1233 C 0.11224 0.48592 0.19808 0.0
C1234 C 0.12505 0.50291 0.18346 0.0
C1235 C 0.12363 0.51394 0.12994 0.0
C1236 C 0.10935 0.50841 0.09253 0.0
C1237 C 0.13895 0.50988 0.22596 0.0
C1238 C 0.1396 0.52844 0.24122 0.0
C1239 C 0.15041 0.49797 0.25476 0.0
C1240 C 0.15123 0.47867 0.23822 0.0
C1241 C 0.15464 0.47631 0.1803 0.0
C1242 C 0.1552 0.45808 0.16488 0.0
C1243 C 0.1525 0.4421 0.20707 0.0
C1244 C 0.14926 0.44432 0.26479 0.0
C1245 C 0.14866 0.46252 0.28044 0.0
H1246 H 0.15294 0.42799 0.19504 0.0
H1247 H 0.14833 0.60529 0.34398 0.0
H1248 H 0.93485 0.81936 0.29447 0.0
H1249 H 0.9408 0.84351 0.36181 0.0
H1250 H 0.92948 0.88685 0.22747 0.0
H1251 H 0.92357 0.86284 0.15979 0.0
H1252 H 0.96093 0.89877 0.28636 0.0
H1253 H 0.89812 0.86913 0.33212 0.0
H1254 H 0.87268 0.84203 0.35922 0.0
H1255 H 0.89946 0.82722 0.51804 0.0
H1256 H 0.92519 0.85409 0.4915 0.0
H1257 H 0.95712 0.97236 0.46123 0.0
H1258 H 0.94915 0.94824 0.39491 0.0
H1259 H 0.95468 0.90354 0.53281 0.0
H1260 H 0.96162 0.92747 0.60024 0.0
H1261 H 0.92594 0.89224 0.4715 0.0
H1262 H 0.98884 0.92087 0.42707 0.0
H1263 H 0.01496 0.94732 0.40095 0.0
H1264 H 0.98917 0.96318 0.24116 0.0
H1265 H 0.96276 0.93698 0.26671 0.0
C1266 C 0.9336 0.83402 0.27925 0.0
C1267 C 0.92869 0.83917 0.2218 0.0
C1268 C 0.93694 0.84778 0.31786 0.0
C1269 C 0.93543 0.86693 0.29973 0.0
C1270 C 0.93069 0.87214 0.24232 0.0
C1271 C 0.92726 0.85838 0.20378 0.0
C1272 C 0.93903 0.8816 0.34041 0.0
C1273 C 0.95313 0.8975 0.32649 0.0
C1274 C 0.92916 0.87963 0.39342 0.0
C1275 C 0.91367 0.86351 0.40955 0.0
C1276 C 0.89866 0.86 0.3726 0.0
C1277 C 0.88417 0.8447 0.38791 0.0
C1278 C 0.88448 0.83288 0.44025 0.0
C1279 C 0.89925 0.83637 0.47747 0.0
C1280 C 0.91378 0.85165 0.46235 0.0
C1281 C 0.95637 0.95738 0.47776 0.0
C1282 C 0.96015 0.95189 0.53608 0.0
C1283 C 0.95204 0.94361 0.43954 0.0
C1284 C 0.95167 0.9241 0.45856 0.0
C1285 C 0.95501 0.91852 0.51701 0.0
C1286 C 0.95918 0.93226 0.55538 0.0
C1287 C 0.94788 0.90948 0.41755 0.0
C1288 C 0.93376 0.89356 0.43138 0.0
C1289 C 0.95785 0.91134 0.36464 0.0
C1290 C 0.97374 0.92708 0.34909 0.0
C1291 C 0.98867 0.93009 0.38657 0.0
C1292 C 0.00354 0.94502 0.37183 0.0
C1293 C 0.0037 0.95695 0.3195 0.0
C1294 C 0.98901 0.95394 0.28172 0.0
C1295 C 0.9741 0.93905 0.29629 0.0
H1296 H 0.01523 0.9685 0.30816 0.0
H1297 H 0.87325 0.82104 0.45202 0.0
H1298 H 0.66216 0.95454 0.16247 0.0
H1299 H 0.63946 0.95804 0.23459 0.0
H1300 H 0.62705 0.89658 0.27866 0.0
H1301 H 0.65002 0.89292 0.20729 0.0
H1302 H 0.59539 0.91497 0.269 0.0
H1303 H 0.65379 0.91995 0.36364 0.0
H1304 H 0.68675 0.9327 0.37407 0.0
H1305 H 0.67497 0.98943 0.37546 0.0
H1306 H 0.64194 0.97704 0.36417 0.0
H1307 H 0.55115 0.91504 0.54413 0.0
H1308 H 0.57017 0.90917 0.46456 0.0
H1309 H 0.59103 0.96996 0.42878 0.0
H1310 H 0.57273 0.97585 0.50934 0.0
H1311 H 0.61812 0.95061 0.43319 0.0
H1312 H 0.55898 0.94505 0.3482 0.0
H1313 H 0.52611 0.93229 0.33834 0.0
H1314 H 0.53855 0.87733 0.31295 0.0
H1315 H 0.57147 0.8894 0.3262 0.0
C1316 C 0.65459 0.94175 0.18735 0.0
C1317 C 0.65794 0.92344 0.17927 0.0
C1318 C 0.64159 0.94378 0.22841 0.0
C1319 C 0.63169 0.92758 0.26206 0.0
C1320 C 0.63456 0.90925 0.253 0.0
C1321 C 0.64771 0.90721 0.21229 0.0
C1322 C 0.61909 0.92991 0.30885 0.0
C1323 C 0.60028 0.9225 0.3055 0.0
C1324 C 0.62558 0.94013 0.35545 0.0
C1325 C 0.64542 0.9476 0.36247 0.0
C1326 C 0.65825 0.93517 0.36566 0.0
C1327 C 0.67694 0.94233 0.37182 0.0
C1328 C 0.68296 0.96187 0.37527 0.0
C1329 C 0.67029 0.9743 0.3727 0.0
C1330 C 0.65158 0.96721 0.36646 0.0
C1331 C 0.55982 0.92714 0.51938 0.0
C1332 C 0.56037 0.94593 0.53314 0.0
C1333 C 0.57055 0.92378 0.47355 0.0
C1334 C 0.58193 0.93914 0.4404 0.0
C1335 C 0.58232 0.95788 0.45365 0.0
C1336 C 0.57169 0.96125 0.49944 0.0
C1337 C 0.59417 0.93578 0.3937 0.0
C1338 C 0.61305 0.943 0.39701 0.0
C1339 C 0.58763 0.92541 0.34711 0.0
C1340 C 0.56775 0.91807 0.33941 0.0
C1341 C 0.55473 0.93013 0.3417 0.0
C1342 C 0.53605 0.923 0.33549 0.0
C1343 C 0.53022 0.904 0.32509 0.0
C1344 C 0.54306 0.89203 0.32127 0.0
C1345 C 0.56174 0.89898 0.32856 0.0
H1346 H 0.51575 0.89857 0.31972 0.0
H1347 H 0.69743 0.96739 0.38006 0.0
H1348 H 0.55575 0.71643 0.45421 0.0
H1349 H 0.54639 0.6873 0.5223 0.0
H1350 H 0.59423 0.66583 0.47281 0.0
H1351 H 0.60374 0.69485 0.40499 0.0
H1352 H 0.56125 0.63953 0.47094 0.0
H1353 H 0.59371 0.68218 0.59861 0.0
H1354 H 0.60022 0.7119 0.64516 0.0
H1355 H 0.54539 0.7003 0.71706 0.0
H1356 H 0.53847 0.67064 0.67021 0.0
H1357 H 0.55516 0.55829 0.67694 0.0
H1358 H 0.56648 0.58916 0.61966 0.0
H1359 H 0.52373 0.61335 0.69343 0.0
H1360 H 0.51282 0.58272 0.7526 0.0
H1361 H 0.55379 0.63878 0.68321 0.0
H1362 H 0.52016 0.5976 0.55684 0.0
H1363 H 0.51174 0.56829 0.50909 0.0
H1364 H 0.56582 0.57761 0.43231 0.0
H1365 H 0.57465 0.60685 0.48029 0.0
C1366 C 0.56431 0.70554 0.45804 0.0
C1367 C 0.58047 0.70792 0.42423 0.0
C1368 C 0.55899 0.68897 0.49708 0.0
C1369 C 0.5697 0.67452 0.50265 0.0
C1370 C 0.58583 0.67687 0.46909 0.0
C1371 C 0.59124 0.69347 0.43049 0.0
C1372 C 0.56376 0.65658 0.54186 0.0
C1373 C 0.55985 0.6393 0.51748 0.0
C1374 C 0.56135 0.65647 0.60218 0.0
C1375 C 0.56551 0.67429 0.63038 0.0
C1376 C 0.58299 0.68606 0.62389 0.0
C1377 C 0.58676 0.70287 0.65043 0.0
C1378 C 0.57321 0.70801 0.68391 0.0
C1379 C 0.55587 0.69632 0.69104 0.0
C1380 C 0.55201 0.6795 0.66454 0.0
C1381 C 0.54826 0.57023 0.68123 0.0
C1382 C 0.533 0.56805 0.71875 0.0
C1383 C 0.55468 0.58784 0.64831 0.0
C1384 C 0.54568 0.60345 0.65123 0.0
C1385 C 0.53084 0.60149 0.69026 0.0
C1386 C 0.5246 0.58396 0.72394 0.0
C1387 C 0.55141 0.62162 0.61241 0.0
C1388 C 0.5552 0.63896 0.63672 0.0
C1389 C 0.5534 0.62185 0.55176 0.0
C1390 C 0.54812 0.60432 0.52262 0.0
C1391 C 0.5303 0.59333 0.5301 0.0
C1392 C 0.52545 0.57673 0.50296 0.0
C1393 C 0.53825 0.57106 0.46781 0.0
C1394 C 0.55592 0.582 0.45961 0.0
C1395 C 0.56085 0.5986 0.48674 0.0
H1396 H 0.53447 0.55821 0.44682 0.0
H1397 H 0.57616 0.72103 0.70444 0.0
H1398 H 0.81589 0.49222 0.22787 0.0
H1399 H 0.83724 0.50291 0.3027 0.0
H1400 H 0.8576 0.44964 0.31418 0.0
H1401 H 0.83635 0.43883 0.23893 0.0
H1402 H 0.85056 0.46107 0.42293 0.0
H1403 H 0.88363 0.48736 0.24463 0.0
H1404 H 0.88828 0.50558 0.14711 0.0
H1405 H 0.87876 0.55633 0.21534 0.0
H1406 H 0.87417 0.53843 0.3134 0.0
H1407 H 0.93624 0.48765 0.55805 0.0
H1408 H 0.9106 0.47639 0.49734 0.0
H1409 H 0.8942 0.53173 0.48565 0.0
H1410 H 0.91953 0.54297 0.54836 0.0
H1411 H 0.8981 0.51976 0.37925 0.0
H1412 H 0.86246 0.49376 0.55406 0.0
H1413 H 0.85548 0.47568 0.65116 0.0
H1414 H 0.86925 0.4254 0.59052 0.0
H1415 H 0.87584 0.44309 0.49265 0.0
C1416 C 0.82481 0.4827 0.24652 0.0
C1417 C 0.82443 0.46467 0.22745 0.0
C1418 C 0.83706 0.48889 0.28906 0.0
C1419 C 0.84906 0.47712 0.31354 0.0
C1420 C 0.84843 0.45892 0.29571 0.0
C1421 C 0.83629 0.45278 0.25274 0.0
C1422 C 0.86238 0.48392 0.35745 0.0
C1423 C 0.86111 0.47377 0.41323 0.0
C1424 C 0.87578 0.50077 0.34515 0.0
C1425 C 0.87838 0.51152 0.28621 0.0
C1426 C 0.8824 0.50237 0.23876 0.0
C1427 C 0.88508 0.51265 0.18344 0.0
C1428 C 0.88369 0.53206 0.17497 0.0
C1429 C 0.87978 0.54128 0.22193 0.0
C1430 C 0.87721 0.5311 0.27742 0.0
C1431 C 0.92693 0.49732 0.54389 0.0
C1432 C 0.92995 0.51623 0.55828 0.0
C1433 C 0.91227 0.49084 0.50909 0.0
C1434 C 0.9004 0.50317 0.48741 0.0
C1435 C 0.90318 0.52197 0.50215 0.0
C1436 C 0.91775 0.52841 0.53756 0.0
C1437 C 0.88629 0.49693 0.44491 0.0
C1438 C 0.88748 0.50714 0.38915 0.0
C1439 C 0.87278 0.48018 0.45726 0.0
C1440 C 0.86978 0.46976 0.51638 0.0
C1441 C 0.86407 0.47888 0.5616 0.0
C1442 C 0.85999 0.46865 0.61654 0.0
C1443 C 0.8619 0.4494 0.62699 0.0
C1444 C 0.86775 0.4403 0.58236 0.0
C1445 C 0.87154 0.45037 0.52706 0.0
H1446 H 0.85893 0.44158 0.66973 0.0
H1447 H 0.88572 0.53997 0.13207 0.0
loop_
_geom_bond_atom_site_label_1
_geom_bond_atom_site_label_2
_geom_bond_distance
_geom_bond_site_symmetry_2
_ccdc_geom_bond_type
O0 Cd1 2.300 . S
O0 C7 1.275 . S
Cd1 O0 2.300 . S
Cd1 O9 2.381 . S
Cd1 O10 2.378 1_556 S
O2 Cd3 2.385 . S
O2 C7 1.255 1_554 S
Cd3 O2 2.385 . S
Cd3 O4 2.317 . S
O4 Cd3 2.317 . S
O4 C5 1.232 . S
C5 O4 1.232 . S
C5 O6 1.218 . S
O6 C5 1.218 . S
C7 O0 1.275 . S
C7 O2 1.255 1_556 S
C8 O9 1.258 . S
C8 O10 1.256 1_556 S
O9 Cd1 2.381 . S
O9 C8 1.258 . S
O10 Cd1 2.378 1_554 S
O10 C8 1.256 1_554 S
O11 Cd12 2.300 1_556 S
O11 C18 1.275 . S
Cd12 O11 2.300 1_554 S
Cd12 O20 2.381 1_554 S
Cd12 O21 2.378 . S
O13 Cd14 2.385 . S
O13 C18 1.255 1_554 S
Cd14 O13 2.385 . S
Cd14 O15 2.317 . S
O15 Cd14 2.317 . S
O15 C16 1.232 . S
C16 O15 1.232 . S
C16 O17 1.218 . S
O17 C16 1.218 . S
C18 O11 1.275 . S
C18 O13 1.255 1_556 S
C19 O20 1.258 1_554 S
C19 O21 1.256 . S
O20 Cd12 2.381 1_556 S
O20 C19 1.258 1_556 S
O21 Cd12 2.378 . S
O21 C19 1.256 . S
O22 Cd23 2.300 . S
O22 C29 1.275 . S
Cd23 O22 2.300 . S
Cd23 O31 2.381 . S
Cd23 O32 2.378 . S
O24 Cd25 2.385 1_566 S
O24 C29 1.255 . S
Cd25 O24 2.385 1_544 S
Cd25 O26 2.317 1_545 S
O26 Cd25 2.317 1_565 S
O26 C27 1.232 . S
C27 O26 1.232 . S
C27 O28 1.218 . S
O28 C27 1.218 . S
C29 O22 1.275 . S
C29 O24 1.255 . S
C30 O31 1.258 . S
C30 O32 1.256 . S
O31 Cd23 2.381 . S
O31 C30 1.258 . S
O32 Cd23 2.378 . S
O32 C30 1.256 . S
O33 Cd34 2.300 . S
O33 C40 1.275 . S
Cd34 O33 2.300 . S
Cd34 O42 2.381 . S
Cd34 O43 2.378 . S
O35 Cd36 2.385 . S
O35 C40 1.255 . S
Cd36 O35 2.385 . S
Cd36 O37 2.317 . S
O37 Cd36 2.317 . S
O37 C38 1.232 . S
C38 O37 1.232 . S
C38 O39 1.218 . S
O39 C38 1.218 . S
C40 O33 1.275 . S
C40 O35 1.255 . S
C41 O42 1.258 . S
C41 O43 1.256 . S
O42 Cd34 2.381 . S
O42 C41 1.258 . S
O43 Cd34 2.378 . S
O43 C41 1.256 . S
O44 Cd45 2.300 . S
O44 C51 1.275 . S
Cd45 O44 2.300 . S
Cd45 O53 2.381 . S
Cd45 O54 2.378 . S
O46 Cd47 2.385 . S
O46 C51 1.255 . S
Cd47 O46 2.385 . S
Cd47 O48 2.317 . S
O48 Cd47 2.317 . S
O48 C49 1.232 . S
C49 O48 1.232 . S
C49 O50 1.218 . S
O50 C49 1.218 . S
C51 O44 1.275 . S
C51 O46 1.255 . S
C52 O53 1.258 . S
C52 O54 1.256 . S
O53 Cd45 2.381 . S
O53 C52 1.258 . S
O54 Cd45 2.378 . S
O54 C52 1.256 . S
O55 Cd56 2.300 . S
O55 C62 1.275 . S
Cd56 O55 2.300 . S
Cd56 O64 2.381 . S
Cd56 O65 2.378 . S
O57 Cd58 2.385 . S
O57 C62 1.255 . S
Cd58 O57 2.385 . S
Cd58 O59 2.317 . S
O59 Cd58 2.317 . S
O59 C60 1.232 . S
C60 O59 1.232 . S
C60 O61 1.218 . S
O61 C60 1.218 . S
C62 O55 1.275 . S
C62 O57 1.255 . S
C63 O64 1.258 . S
C63 O65 1.256 . S
O64 Cd56 2.381 . S
O64 C63 1.258 . S
O65 Cd56 2.378 . S
O65 C63 1.256 . S
O66 Cd67 2.300 . S
O66 C73 1.275 . S
Cd67 O66 2.300 . S
Cd67 O75 2.381 . S
Cd67 O76 2.378 . S
O68 Cd69 2.385 . S
O68 C73 1.255 . S
Cd69 O68 2.385 . S
Cd69 O70 2.317 . S
O70 Cd69 2.317 . S
O70 C71 1.232 . S
C71 O70 1.232 . S
C71 O72 1.218 . S
O72 C71 1.218 . S
C73 O66 1.275 . S
C73 O68 1.255 . S
C74 O75 1.258 . S
C74 O76 1.256 . S
O75 Cd67 2.381 . S
O75 C74 1.258 . S
O76 Cd67 2.378 . S
O76 C74 1.256 . S
O77 Cd78 2.300 . S
O77 C84 1.275 . S
Cd78 O77 2.300 . S
Cd78 O86 2.381 . S
Cd78 O87 2.378 . S
O79 Cd80 2.385 . S
O79 C84 1.255 . S
Cd80 O79 2.385 . S
Cd80 O81 2.317 . S
O81 Cd80 2.317 . S
O81 C82 1.232 . S
C82 O81 1.232 . S
C82 O83 1.218 . S
O83 C82 1.218 . S
C84 O77 1.275 . S
C84 O79 1.255 . S
C85 O86 1.258 . S
C85 O87 1.256 . S
O86 Cd78 2.381 . S
O86 C85 1.258 . S
O87 Cd78 2.378 . S
O87 C85 1.256 . S
Nd88 C90 2.833 1_445 S
Nd88 O108 2.500 1_445 S
Nd88 O109 2.492 1_545 S
Nd88 O110 2.487 . S
Nd88 O111 2.682 . S
Nd88 O112 2.410 1_545 S
Nd88 O117 2.414 1_455 S
Nd88 O119 2.424 . S
Nd89 C99 2.836 . S
Nd89 O111 2.414 . S
Nd89 O113 2.424 1_545 S
Nd89 O114 2.500 . S
Nd89 O115 2.492 . S
Nd89 O116 2.487 1_455 S
Nd89 O117 2.682 1_455 S
Nd89 O118 2.410 . S
C90 Nd88 2.833 1_665 S
C90 C91 1.501 . S
C90 O108 1.271 . S
C90 O109 1.223 1_655 S
C91 C90 1.501 . S
C91 C92 1.366 . S
C91 C96 1.407 1_655 S
C92 C91 1.366 . S
C92 C93 1.392 . S
C92 H120 0.930 . S
C93 C92 1.392 . S
C93 C94 1.398 . S
C93 H121 0.929 . S
C94 C93 1.398 . S
C94 C95 1.352 . S
C95 C94 1.352 . S
C95 C96 1.384 1_655 S
C95 H122 0.930 1_655 S
C96 C91 1.407 1_455 S
C96 C95 1.384 1_455 S
C96 H123 0.929 . S
C97 O110 1.241 . S
C97 O111 1.273 . S
C98 O112 1.251 . S
C98 O113 1.268 . S
C99 Nd89 2.836 . S
C99 C100 1.498 . S
C99 O114 1.258 . S
C99 O115 1.239 . S
C100 C99 1.498 . S
C100 C101 1.366 . S
C100 C105 1.407 1_556 S
C101 C100 1.366 . S
C101 C102 1.392 1_556 S
C101 H124 0.930 . S
C102 C101 1.392 1_554 S
C102 C103 1.398 . S
C102 H125 0.929 . S
C103 C102 1.398 . S
C103 C104 1.352 . S
C104 C103 1.352 . S
C104 C105 1.384 . S
C104 H126 0.930 . S
C105 C100 1.407 1_554 S
C105 C104 1.384 . S
C105 H127 0.929 . S
C106 O116 1.241 . S
C106 O117 1.273 . S
C107 O118 1.251 . S
C107 O119 1.268 . S
O108 Nd88 2.500 1_665 S
O108 C90 1.271 . S
O109 Nd88 2.492 1_565 S
O109 C90 1.223 1_455 S
O110 Nd88 2.487 . S
O110 C97 1.241 . S
O111 Nd88 2.682 . S
O111 Nd89 2.414 . S
O111 C97 1.273 . S
O112 Nd88 2.410 1_565 S
O112 C98 1.251 . S
O113 Nd89 2.424 1_565 S
O113 C98 1.268 . S
O114 Nd89 2.500 . S
O114 C99 1.258 . S
O115 Nd89 2.492 . S
O115 C99 1.239 . S
O116 Nd89 2.487 1_655 S
O116 C106 1.241 . S
O117 Nd88 2.414 1_655 S
O117 Nd89 2.682 1_655 S
O117 C106 1.273 . S
O118 Nd89 2.410 . S
O118 C107 1.251 . S
O119 Nd88 2.424 . S
O119 C107 1.268 . S
H120 C92 0.930 . S
H121 C93 0.929 . S
H122 C95 0.930 1_455 S
H123 C96 0.929 . S
H124 C101 0.930 . S
H125 C102 0.929 . S
H126 C104 0.930 . S
H127 C105 0.929 . S
Nd128 C130 2.818 1_545 S
Nd128 O148 2.468 1_545 S
Nd128 O149 2.490 . S
Nd128 O150 2.530 . S
Nd128 O151 2.721 . S
Nd128 O152 2.425 . S
Nd128 O157 2.401 1_545 S
Nd128 O159 2.443 1_545 S
Nd129 C139 2.836 . S
Nd129 O151 2.414 . S
Nd129 O153 2.424 . S
Nd129 O154 2.500 . S
Nd129 O155 2.492 . S
Nd129 O156 2.487 1_545 S
Nd129 O157 2.682 1_545 S
Nd129 O158 2.410 . S
C130 Nd128 2.818 1_565 S
C130 C131 1.498 . S
C130 O148 1.258 . S
C130 O149 1.239 1_565 S
C131 C130 1.498 . S
C131 C132 1.366 . S
C131 C136 1.431 . S
C132 C131 1.366 . S
C132 C133 1.392 . S
C132 H160 0.930 . S
C133 C132 1.392 . S
C133 C134 1.398 . S
C133 H161 0.929 . S
C134 C133 1.398 . S
C134 C135 1.352 . S
C135 C134 1.352 . S
C135 C136 1.412 . S
C135 H162 0.930 1_565 S
C136 C131 1.431 . S
C136 C135 1.412 . S
C136 H163 0.880 1_565 S
C137 O150 1.241 . S
C137 O151 1.273 . S
C138 O152 1.251 . S
C138 O153 1.268 . S
C139 Nd129 2.836 . S
C139 C140 1.498 . S
C139 O154 1.258 . S
C139 O155 1.239 . S
C140 C139 1.498 . S
C140 C141 1.366 . S
C140 C145 1.407 1_556 S
C141 C140 1.366 . S
C141 C142 1.392 1_556 S
C141 H164 0.930 . S
C142 C141 1.392 1_554 S
C142 C143 1.398 . S
C142 H165 0.929 1_554 S
C143 C142 1.398 . S
C143 C144 1.352 . S
C144 C143 1.352 . S
C144 C145 1.384 . S
C144 H166 0.930 . S
C145 C140 1.407 1_554 S
C145 C144 1.384 . S
C145 H167 0.929 . S
C146 O156 1.241 . S
C146 O157 1.273 . S
C147 O158 1.255 . S
C147 O159 1.237 1_545 S
O148 Nd128 2.468 1_565 S
O148 C130 1.258 . S
O149 Nd128 2.490 . S
O149 C130 1.239 1_545 S
O150 Nd128 2.530 . S
O150 C137 1.241 . S
O151 Nd128 2.721 . S
O151 Nd129 2.414 . S
O151 C137 1.273 . S
O152 Nd128 2.425 . S
O152 C138 1.251 . S
O153 Nd129 2.424 . S
O153 C138 1.268 . S
O154 Nd129 2.500 . S
O154 C139 1.258 . S
O155 Nd129 2.492 . S
O155 C139 1.239 . S
O156 Nd129 2.487 1_565 S
O156 C146 1.241 . S
O157 Nd128 2.401 1_565 S
O157 Nd129 2.682 1_565 S
O157 C146 1.273 . S
O158 Nd129 2.410 . S
O158 C147 1.255 . S
O159 Nd128 2.443 1_565 S
O159 C147 1.237 1_565 S
H160 C132 0.930 . S
H161 C133 0.929 . S
H162 C135 0.930 1_545 S
H163 C136 0.880 1_545 S
H164 C141 0.930 . S
H165 C142 0.929 1_556 S
H166 C144 0.930 . S
H167 C145 0.929 . S
Nd168 C170 2.836 . S
Nd168 O188 2.500 . S
Nd168 O189 2.492 . S
Nd168 O190 2.487 . S
Nd168 O191 2.682 . S
Nd168 O192 2.410 . S
Nd168 O197 2.414 . S
Nd168 O199 2.424 . S
Nd169 C179 2.836 . S
Nd169 O191 2.414 . S
Nd169 O193 2.424 . S
Nd169 O194 2.500 . S
Nd169 O195 2.492 . S
Nd169 O196 2.487 . S
Nd169 O197 2.682 . S
Nd169 O198 2.410 . S
C170 Nd168 2.836 . S
C170 C171 1.498 . S
C170 O188 1.258 . S
C170 O189 1.239 . S
C171 C170 1.498 . S
C171 C172 1.366 . S
C171 C176 1.407 . S
C172 C171 1.366 . S
C172 C173 1.392 . S
C172 H200 0.930 . S
C173 C172 1.392 . S
C173 C174 1.398 . S
C173 H201 0.929 . S
C174 C173 1.398 . S
C174 C175 1.352 . S
C175 C174 1.352 . S
C175 C176 1.384 . S
C175 H202 0.930 1_556 S
C176 C171 1.407 . S
C176 C175 1.384 . S
C176 H203 0.929 . S
C177 O190 1.241 . S
C177 O191 1.273 . S
C178 O192 1.251 . S
C178 O193 1.268 . S
C179 Nd169 2.836 . S
C179 C180 1.498 . S
C179 O194 1.258 . S
C179 O195 1.239 . S
C180 C179 1.498 . S
C180 C181 1.366 . S
C180 C185 1.407 . S
C181 C180 1.366 . S
C181 C182 1.392 . S
C181 H204 0.930 . S
C182 C181 1.392 . S
C182 C183 1.398 . S
C182 H205 0.929 . S
C183 C182 1.398 . S
C183 C184 1.352 . S
C184 C183 1.352 . S
C184 C185 1.384 . S
C184 H206 0.930 . S
C185 C180 1.407 . S
C185 C184 1.384 . S
C185 H207 0.929 . S
C186 O196 1.241 . S
C186 O197 1.273 . S
C187 O198 1.251 . S
C187 O199 1.268 . S
O188 Nd168 2.500 . S
O188 C170 1.258 . S
O189 Nd168 2.492 . S
O189 C170 1.239 . S
O190 Nd168 2.487 . S
O190 C177 1.241 . S
O191 Nd168 2.682 . S
O191 Nd169 2.414 . S
O191 C177 1.273 . S
O192 Nd168 2.410 . S
O192 C178 1.251 . S
O193 Nd169 2.424 . S
O193 C178 1.268 . S
O194 Nd169 2.500 . S
O194 C179 1.258 . S
O195 Nd169 2.492 . S
O195 C179 1.239 . S
O196 Nd169 2.487 . S
O196 C186 1.241 . S
O197 Nd168 2.414 . S
O197 Nd169 2.682 . S
O197 C186 1.273 . S
O198 Nd169 2.410 . S
O198 C187 1.251 . S
O199 Nd168 2.424 . S
O199 C187 1.268 . S
H200 C172 0.930 . S
H201 C173 0.929 . S
H202 C175 0.930 1_554 S
H203 C176 0.929 . S
H204 C181 0.930 . S
H205 C182 0.929 . S
H206 C184 0.930 . S
H207 C185 0.929 . S
Nd208 C210 2.836 1_455 S
Nd208 O228 2.500 1_455 S
Nd208 O229 2.492 1_455 S
Nd208 O230 2.487 . S
Nd208 O231 2.682 . S
Nd208 O232 2.410 1_455 S
Nd208 O237 2.414 . S
Nd208 O239 2.424 . S
Nd209 C219 2.836 . S
Nd209 O231 2.414 . S
Nd209 O233 2.424 1_455 S
Nd209 O234 2.500 . S
Nd209 O235 2.492 . S
Nd209 O236 2.487 . S
Nd209 O237 2.682 . S
Nd209 O238 2.410 . S
C210 Nd208 2.836 1_655 S
C210 C211 1.498 . S
C210 O228 1.258 . S
C210 O229 1.239 . S
C211 C210 1.498 . S
C211 C212 1.366 . S
C211 C216 1.407 . S
C212 C211 1.366 . S
C212 C213 1.392 . S
C212 H240 0.930 . S
C213 C212 1.392 . S
C213 C214 1.398 . S
C213 H241 0.929 . S
C214 C213 1.398 . S
C214 C215 1.352 . S
C215 C214 1.352 . S
C215 C216 1.384 . S
C215 H242 0.930 . S
C216 C211 1.407 . S
C216 C215 1.384 . S
C216 H243 0.929 . S
C217 O230 1.241 . S
C217 O231 1.273 . S
C218 O232 1.251 . S
C218 O233 1.268 . S
C219 Nd209 2.836 . S
C219 C220 1.497 . S
C219 O234 1.258 . S
C219 O235 1.239 . S
C220 C219 1.497 . S
C220 C221 1.366 . S
C220 C225 1.408 1_556 S
C221 C220 1.366 . S
C221 C222 1.392 1_556 S
C221 H244 0.930 . S
C222 C221 1.392 1_554 S
C222 C223 1.398 . S
C222 H245 0.929 . S
C223 C222 1.398 . S
C223 C224 1.352 . S
C224 C223 1.352 . S
C224 C225 1.384 . S
C224 H246 0.930 . S
C225 C220 1.408 1_554 S
C225 C224 1.384 . S
C225 H247 0.929 . S
C226 O236 1.241 . S
C226 O237 1.273 . S
C227 O238 1.251 . S
C227 O239 1.268 . S
O228 Nd208 2.500 1_655 S
O228 C210 1.258 . S
O229 Nd208 2.492 1_655 S
O229 C210 1.239 . S
O230 Nd208 2.487 . S
O230 C217 1.241 . S
O231 Nd208 2.682 . S
O231 Nd209 2.414 . S
O231 C217 1.273 . S
O232 Nd208 2.410 1_655 S
O232 C218 1.251 . S
O233 Nd209 2.424 1_655 S
O233 C218 1.268 . S
O234 Nd209 2.500 . S
O234 C219 1.258 . S
O235 Nd209 2.492 . S
O235 C219 1.239 . S
O236 Nd209 2.487 . S
O236 C226 1.241 . S
O237 Nd208 2.414 . S
O237 Nd209 2.682 . S
O237 C226 1.273 . S
O238 Nd209 2.410 . S
O238 C227 1.251 . S
O239 Nd208 2.424 . S
O239 C227 1.268 . S
H240 C212 0.930 . S
H241 C213 0.929 . S
H242 C215 0.930 . S
H243 C216 0.929 . S
H244 C221 0.930 . S
H245 C222 0.929 . S
H246 C224 0.930 . S
H247 C225 0.929 . S
H248 C266 0.951 . S
H249 C268 0.964 . S
H250 C270 0.950 . S
H251 C271 0.950 . S
H252 C273 0.950 . S
H253 C276 0.950 . S
H254 C277 0.950 1_545 S
H255 C279 0.950 . S
H256 C280 0.950 . S
H257 C281 0.951 . S
H258 C283 0.951 . S
H259 C285 0.950 . S
H260 C286 0.950 . S
H261 C288 0.950 1_565 S
H262 C291 0.950 . S
H263 C292 0.950 . S
H264 C294 0.950 . S
H265 C295 0.950 . S
C266 H248 0.951 . S
C266 C267 1.366 . S
C266 C268 1.388 . S
C267 C266 1.366 . S
C267 C271 1.385 . S
C268 H249 0.964 . S
C268 C266 1.388 . S
C268 C269 1.366 . S
C269 C268 1.366 . S
C269 C270 1.414 . S
C269 C272 1.499 . S
C270 H250 0.950 . S
C270 C269 1.414 . S
C270 C271 1.374 . S
C271 H251 0.950 . S
C271 C267 1.385 . S
C271 C270 1.374 . S
C272 C269 1.499 . S
C272 C273 1.373 . S
C272 C274 1.389 . S
C273 H252 0.950 . S
C273 C272 1.373 . S
C273 C289 1.377 . S
C274 C272 1.389 . S
C274 C275 1.524 1_545 S
C274 C288 1.377 . S
C275 C274 1.524 1_565 S
C275 C276 1.397 1_565 S
C275 C280 1.363 . S
C276 H253 0.950 . S
C276 C275 1.397 1_545 S
C276 C277 1.334 1_545 S
C277 H254 0.950 1_565 S
C277 C276 1.334 1_565 S
C277 C278 1.287 . S
C278 C277 1.287 . S
C278 C279 1.524 . S
C278 H297 0.913 . S
C279 H255 0.950 . S
C279 C278 1.524 . S
C279 C280 1.415 . S
C280 H256 0.950 . S
C280 C275 1.363 . S
C280 C279 1.415 . S
C281 H257 0.951 . S
C281 C282 1.366 . S
C281 C283 1.388 . S
C282 C281 1.366 . S
C282 C286 1.385 1_545 S
C283 H258 0.951 . S
C283 C281 1.388 . S
C283 C284 1.366 . S
C284 C283 1.366 . S
C284 C285 1.414 1_545 S
C284 C287 1.499 . S
C285 H259 0.950 . S
C285 C284 1.414 1_565 S
C285 C286 1.374 . S
C286 H260 0.950 . S
C286 C282 1.385 1_565 S
C286 C285 1.374 . S
C287 C284 1.499 . S
C287 C288 1.373 . S
C287 C289 1.389 . S
C288 H261 0.950 1_545 S
C288 C274 1.377 . S
C288 C287 1.373 . S
C289 C273 1.377 . S
C289 C287 1.389 . S
C289 C290 1.524 . S
C290 C289 1.524 . S
C290 C291 1.397 . S
C290 C295 1.363 . S
C291 H262 0.950 . S
C291 C290 1.397 . S
C291 C292 1.334 . S
C292 H263 0.950 . S
C292 C291 1.334 . S
C292 C293 1.287 . S
C293 C292 1.287 . S
C293 C294 1.524 . S
C293 H296 0.999 . S
C294 H264 0.950 . S
C294 C293 1.524 . S
C294 C295 1.415 . S
C295 H265 0.950 . S
C295 C290 1.363 . S
C295 C294 1.415 . S
H296 C293 0.999 . S
H297 C278 0.913 . S
H298 C316 0.951 . S
H299 C318 0.951 . S
H300 C320 0.950 . S
H301 C321 0.950 . S
H302 C323 0.950 . S
H303 C326 0.950 . S
H304 C327 0.950 . S
H305 C329 0.950 . S
H306 C330 0.950 . S
H307 C331 0.951 . S
H308 C333 0.951 . S
H309 C335 0.950 . S
H310 C336 0.950 . S
H311 C338 0.950 . S
H312 C341 0.950 . S
H313 C342 0.950 . S
H314 C344 0.950 . S
H315 C345 0.950 . S
C316 H298 0.951 . S
C316 C317 1.366 . S
C316 C318 1.388 . S
C317 C316 1.366 . S
C317 C321 1.385 . S
C318 H299 0.951 . S
C318 C316 1.388 . S
C318 C319 1.366 . S
C319 C318 1.366 . S
C319 C320 1.414 . S
C319 C322 1.499 . S
C320 H300 0.950 . S
C320 C319 1.414 . S
C320 C321 1.374 . S
C321 H301 0.950 . S
C321 C317 1.385 . S
C321 C320 1.374 . S
C322 C319 1.499 . S
C322 C323 1.373 . S
C322 C324 1.389 . S
C323 H302 0.950 . S
C323 C322 1.373 . S
C323 C339 1.377 . S
C324 C322 1.389 . S
C324 C325 1.524 . S
C324 C338 1.377 . S
C325 C324 1.524 . S
C325 C326 1.397 . S
C325 C330 1.363 . S
C326 H303 0.950 . S
C326 C325 1.397 . S
C326 C327 1.334 . S
C327 H304 0.950 . S
C327 C326 1.334 . S
C327 C328 1.287 . S
C328 C327 1.287 . S
C328 C329 1.524 . S
C328 H347 0.913 . S
C329 H305 0.950 . S
C329 C328 1.524 . S
C329 C330 1.415 . S
C330 H306 0.950 . S
C330 C325 1.363 . S
C330 C329 1.415 . S
C331 H307 0.951 . S
C331 C332 1.366 . S
C331 C333 1.388 . S
C332 C331 1.366 . S
C332 C336 1.385 . S
C333 H308 0.951 . S
C333 C331 1.388 . S
C333 C334 1.366 . S
C334 C333 1.366 . S
C334 C335 1.414 . S
C334 C337 1.499 . S
C335 H309 0.950 . S
C335 C334 1.414 . S
C335 C336 1.374 . S
C336 H310 0.950 . S
C336 C332 1.385 . S
C336 C335 1.374 . S
C337 C334 1.499 . S
C337 C338 1.373 . S
C337 C339 1.389 . S
C338 H311 0.950 . S
C338 C324 1.377 . S
C338 C337 1.373 . S
C339 C323 1.377 . S
C339 C337 1.389 . S
C339 C340 1.524 . S
C340 C339 1.524 . S
C340 C341 1.397 . S
C340 C345 1.363 . S
C341 H312 0.950 . S
C341 C340 1.397 . S
C341 C342 1.334 . S
C342 H313 0.950 . S
C342 C341 1.334 . S
C342 C343 1.287 . S
C343 C342 1.287 . S
C343 C344 1.524 . S
C343 H346 0.999 . S
C344 H314 0.950 . S
C344 C343 1.524 . S
C344 C345 1.415 . S
C345 H315 0.950 . S
C345 C340 1.363 . S
C345 C344 1.415 . S
H346 C343 0.999 . S
H347 C328 0.913 . S
H348 C366 0.951 . S
H349 C368 0.951 . S
H350 C370 0.950 . S
H351 C371 0.950 . S
H352 C373 0.950 . S
H353 C376 0.950 . S
H354 C377 0.950 . S
H355 C379 0.950 . S
H356 C380 0.950 . S
H357 C381 0.951 . S
H358 C383 0.951 . S
H359 C385 0.950 . S
H360 C386 0.950 . S
H361 C388 0.950 . S
H362 C391 0.950 . S
H363 C392 0.950 . S
H364 C394 0.950 . S
H365 C395 0.950 . S
C366 H348 0.951 . S
C366 C367 1.366 . S
C366 C368 1.388 . S
C367 C366 1.366 . S
C367 C371 1.385 . S
C368 H349 0.951 . S
C368 C366 1.388 . S
C368 C369 1.366 . S
C369 C368 1.366 . S
C369 C370 1.414 . S
C369 C372 1.499 . S
C370 H350 0.950 . S
C370 C369 1.414 . S
C370 C371 1.374 . S
C371 H351 0.950 . S
C371 C367 1.385 . S
C371 C370 1.374 . S
C372 C369 1.499 . S
C372 C373 1.373 . S
C372 C374 1.389 . S
C373 H352 0.950 . S
C373 C372 1.373 . S
C373 C389 1.377 . S
C374 C372 1.389 . S
C374 C375 1.524 . S
C374 C388 1.377 . S
C375 C374 1.524 . S
C375 C376 1.397 . S
C375 C380 1.363 . S
C376 H353 0.950 . S
C376 C375 1.397 . S
C376 C377 1.334 . S
C377 H354 0.950 . S
C377 C376 1.334 . S
C377 C378 1.287 . S
C378 C377 1.287 . S
C378 C379 1.524 . S
C378 H397 0.913 . S
C379 H355 0.950 . S
C379 C378 1.524 . S
C379 C380 1.415 . S
C380 H356 0.950 . S
C380 C375 1.363 . S
C380 C379 1.415 . S
C381 H357 0.951 . S
C381 C382 1.366 . S
C381 C383 1.388 . S
C382 C381 1.366 . S
C382 C386 1.385 . S
C383 H358 0.951 . S
C383 C381 1.388 . S
C383 C384 1.366 . S
C384 C383 1.366 . S
C384 C385 1.414 . S
C384 C387 1.499 . S
C385 H359 0.950 . S
C385 C384 1.414 . S
C385 C386 1.374 . S
C386 H360 0.950 . S
C386 C382 1.385 . S
C386 C385 1.374 . S
C387 C384 1.499 . S
C387 C388 1.373 . S
C387 C389 1.389 . S
C388 H361 0.950 . S
C388 C374 1.377 . S
C388 C387 1.373 . S
C389 C373 1.377 . S
C389 C387 1.389 . S
C389 C390 1.524 . S
C390 C389 1.524 . S
C390 C391 1.397 . S
C390 C395 1.363 . S
C391 H362 0.950 . S
C391 C390 1.397 . S
C391 C392 1.334 . S
C392 H363 0.950 . S
C392 C391 1.334 . S
C392 C393 1.287 . S
C393 C392 1.287 . S
C393 C394 1.524 . S
C393 H396 0.999 . S
C394 H364 0.950 . S
C394 C393 1.524 . S
C394 C395 1.415 . S
C395 H365 0.950 . S
C395 C390 1.363 . S
C395 C394 1.415 . S
H396 C393 0.999 . S
H397 C378 0.913 . S
H398 C416 0.951 . S
H399 C418 0.951 . S
H400 C420 0.950 . S
H401 C421 0.950 . S
H402 C423 0.950 . S
H403 C426 0.950 . S
H404 C427 0.950 . S
H405 C429 0.950 1_655 S
H406 C430 0.950 . S
H407 C431 0.951 . S
H408 C433 0.951 . S
H409 C435 0.950 . S
H410 C436 0.950 . S
H411 C438 0.950 . S
H412 C441 0.950 . S
H413 C442 0.950 . S
H414 C444 0.950 . S
H415 C445 0.950 . S
C416 H398 0.951 . S
C416 C417 1.366 . S
C416 C418 1.388 . S
C417 C416 1.366 . S
C417 C421 1.385 . S
C418 H399 0.951 . S
C418 C416 1.388 . S
C418 C419 1.366 . S
C419 C418 1.366 . S
C419 C420 1.414 . S
C419 C422 1.499 . S
C420 H400 0.950 . S
C420 C419 1.414 . S
C420 C421 1.374 . S
C421 H401 0.950 . S
C421 C417 1.385 . S
C421 C420 1.374 . S
C422 C419 1.499 . S
C422 C423 1.373 . S
C422 C424 1.389 . S
C423 H402 0.950 . S
C423 C422 1.373 . S
C423 C439 1.377 . S
C424 C422 1.389 . S
C424 C425 1.524 . S
C424 C438 1.377 . S
C425 C424 1.524 . S
C425 C426 1.397 . S
C425 C430 1.363 . S
C426 H403 0.950 . S
C426 C425 1.397 . S
C426 C427 1.334 . S
C427 H404 0.950 . S
C427 C426 1.334 . S
C427 C428 1.287 . S
C428 C427 1.287 . S
C428 C429 1.524 . S
C428 H447 0.913 . S
C429 H405 0.950 1_455 S
C429 C428 1.524 . S
C429 C430 1.415 . S
C430 H406 0.950 . S
C430 C425 1.363 . S
C430 C429 1.415 . S
C431 H407 0.951 . S
C431 C432 1.366 . S
C431 C433 1.388 . S
C432 C431 1.366 . S
C432 C436 1.385 . S
C433 H408 0.951 . S
C433 C431 1.388 . S
C433 C434 1.366 . S
C434 C433 1.366 . S
C434 C435 1.414 . S
C434 C437 1.499 . S
C435 H409 0.950 . S
C435 C434 1.414 . S
C435 C436 1.374 . S
C436 H410 0.950 . S
C436 C432 1.385 . S
C436 C435 1.374 . S
C437 C434 1.499 . S
C437 C438 1.373 . S
C437 C439 1.389 . S
C438 H411 0.950 . S
C438 C424 1.377 . S
C438 C437 1.373 . S
C439 C423 1.377 . S
C439 C437 1.389 . S
C439 C440 1.524 . S
C440 C439 1.524 . S
C440 C441 1.397 . S
C440 C445 1.363 . S
C441 H412 0.950 . S
C441 C440 1.397 . S
C441 C442 1.334 . S
C442 H413 0.950 . S
C442 C441 1.334 . S
C442 C443 1.287 . S
C443 C442 1.287 . S
C443 C444 1.524 . S
C443 H446 0.999 . S
C444 H414 0.950 . S
C444 C443 1.524 . S
C444 C445 1.415 . S
C445 H415 0.950 . S
C445 C440 1.363 . S
C445 C444 1.415 . S
H446 C443 0.999 . S
H447 C428 0.913 . S
H448 C466 0.951 1_554 S
H449 C468 0.951 . S
H450 C470 0.950 1_545 S
H451 C471 0.950 . S
H452 C473 0.950 . S
H453 C476 0.950 . S
H454 C477 0.950 . S
H455 C479 0.950 . S
H456 C480 0.950 1_565 S
H457 C481 0.951 . S
H458 C483 0.951 . S
H459 C485 0.950 . S
H460 C486 0.950 . S
H461 C488 0.961 . S
H462 C491 0.950 . S
H463 C492 0.950 . S
H464 C494 0.950 . S
H465 C495 0.950 . S
C466 H448 0.951 1_556 S
C466 C467 1.366 . S
C466 C468 1.388 . S
C467 C466 1.366 . S
C467 C471 1.385 . S
C468 H449 0.951 . S
C468 C466 1.388 . S
C468 C469 1.366 . S
C469 C468 1.366 . S
C469 C470 1.414 . S
C469 C472 1.499 . S
C470 H450 0.950 1_565 S
C470 C469 1.414 . S
C470 C471 1.374 . S
C471 H451 0.950 . S
C471 C467 1.385 . S
C471 C470 1.374 . S
C472 C469 1.499 . S
C472 C473 1.373 . S
C472 C474 1.404 . S
C473 H452 0.950 . S
C473 C472 1.373 . S
C473 C489 1.377 . S
C474 C472 1.404 . S
C474 C475 1.502 1_565 S
C474 C488 1.389 1_565 S
C475 C474 1.502 1_545 S
C475 C476 1.397 . S
C475 C480 1.363 1_556 S
C476 H453 0.950 . S
C476 C475 1.397 . S
C476 C477 1.334 1_556 S
C477 H454 0.950 . S
C477 C476 1.334 1_554 S
C477 C478 1.287 . S
C478 C477 1.287 . S
C478 C479 1.524 . S
C478 H497 0.913 . S
C479 H455 0.950 . S
C479 C478 1.524 . S
C479 C480 1.415 . S
C480 H456 0.950 1_545 S
C480 C475 1.363 1_554 S
C480 C479 1.415 . S
C481 H457 0.951 . S
C481 C482 1.366 . S
C481 C483 1.388 . S
C482 C481 1.366 . S
C482 C486 1.385 1_545 S
C483 H458 0.951 . S
C483 C481 1.388 . S
C483 C484 1.366 1_545 S
C484 C483 1.366 1_565 S
C484 C485 1.414 . S
C484 C487 1.499 . S
C485 H459 0.950 . S
C485 C484 1.414 . S
C485 C486 1.374 . S
C486 H460 0.950 . S
C486 C482 1.385 1_565 S
C486 C485 1.374 . S
C487 C484 1.499 . S
C487 C488 1.359 1_565 S
C487 C489 1.389 . S
C488 H461 0.961 . S
C488 C474 1.389 1_545 S
C488 C487 1.359 1_545 S
C489 C473 1.377 . S
C489 C487 1.389 . S
C489 C490 1.524 . S
C490 C489 1.524 . S
C490 C491 1.397 . S
C490 C495 1.363 . S
C491 H462 0.950 . S
C491 C490 1.397 . S
C491 C492 1.334 . S
C492 H463 0.950 . S
C492 C491 1.334 . S
C492 C493 1.287 . S
C493 C492 1.287 . S
C493 C494 1.524 . S
C493 H496 0.999 . S
C494 H464 0.950 . S
C494 C493 1.524 . S
C494 C495 1.415 . S
C495 H465 0.950 . S
C495 C490 1.363 . S
C495 C494 1.415 . S
H496 C493 0.999 . S
H497 C478 0.913 . S
H498 C516 0.951 . S
H499 C518 0.951 . S
H500 C520 0.950 . S
H501 C521 0.950 . S
H502 C523 0.950 . S
H503 C526 0.950 . S
H504 C527 0.950 . S
H505 C529 0.950 . S
H506 C530 0.950 . S
H507 C531 0.951 . S
H508 C533 0.951 1_554 S
H509 C535 0.950 . S
H510 C536 0.950 . S
H511 C538 0.950 1_556 S
H512 C541 0.950 . S
H513 C542 0.950 . S
H514 C544 0.950 . S
H515 C545 0.950 . S
C516 H498 0.951 . S
C516 C517 1.366 . S
C516 C518 1.388 . S
C517 C516 1.366 . S
C517 C521 1.385 . S
C518 H499 0.951 . S
C518 C516 1.388 . S
C518 C519 1.366 . S
C519 C518 1.366 . S
C519 C520 1.414 . S
C519 C522 1.499 . S
C520 H500 0.950 . S
C520 C519 1.414 . S
C520 C521 1.374 . S
C521 H501 0.950 . S
C521 C517 1.385 . S
C521 C520 1.374 . S
C522 C519 1.499 . S
C522 C523 1.373 . S
C522 C524 1.389 . S
C523 H502 0.950 . S
C523 C522 1.373 . S
C523 C539 1.377 . S
C524 C522 1.389 . S
C524 C525 1.524 . S
C524 C538 1.377 . S
C525 C524 1.524 . S
C525 C526 1.397 . S
C525 C530 1.363 1_554 S
C526 H503 0.950 . S
C526 C525 1.397 . S
C526 C527 1.334 . S
C527 H504 0.950 . S
C527 C526 1.334 . S
C527 C528 1.287 1_554 S
C528 C527 1.287 1_556 S
C528 C529 1.524 . S
C528 H547 0.913 . S
C529 H505 0.950 . S
C529 C528 1.524 . S
C529 C530 1.415 . S
C530 H506 0.950 . S
C530 C525 1.363 1_556 S
C530 C529 1.415 . S
C531 H507 0.951 . S
C531 C532 1.366 . S
C531 C533 1.388 . S
C532 C531 1.366 . S
C532 C536 1.385 . S
C533 H508 0.951 1_556 S
C533 C531 1.388 . S
C533 C534 1.366 . S
C534 C533 1.366 . S
C534 C535 1.414 . S
C534 C537 1.499 1_556 S
C535 H509 0.950 . S
C535 C534 1.414 . S
C535 C536 1.374 . S
C536 H510 0.950 . S
C536 C532 1.385 . S
C536 C535 1.374 . S
C537 C534 1.499 1_554 S
C537 C538 1.373 . S
C537 C539 1.389 . S
C538 H511 0.950 1_554 S
C538 C524 1.377 . S
C538 C537 1.373 . S
C539 C523 1.377 . S
C539 C537 1.389 . S
C539 C540 1.524 . S
C540 C539 1.524 . S
C540 C541 1.397 . S
C540 C545 1.363 . S
C541 H512 0.950 . S
C541 C540 1.397 . S
C541 C542 1.334 . S
C542 H513 0.950 . S
C542 C541 1.334 . S
C542 C543 1.287 . S
C543 C542 1.287 . S
C543 C544 1.524 . S
C543 H546 0.999 . S
C544 H514 0.950 . S
C544 C543 1.524 . S
C544 C545 1.415 . S
C545 H515 0.950 . S
C545 C540 1.363 . S
C545 C544 1.415 . S
H546 C543 0.999 . S
H547 C528 0.913 . S
H548 C566 0.951 1_554 S
H549 C568 0.951 1_554 S
H550 C570 0.950 . S
H551 C571 0.950 . S
H552 C573 0.950 . S
H553 C576 0.950 . S
H554 C577 0.950 . S
H555 C579 0.950 1_554 S
H556 C580 0.950 . S
H557 C581 0.951 . S
H558 C583 0.951 . S
H559 C585 0.950 . S
H560 C586 0.950 . S
H561 C588 0.950 . S
H562 C591 0.950 . S
H563 C592 0.950 . S
H564 C594 0.950 . S
H565 C595 0.950 . S
C566 H548 0.951 1_556 S
C566 C567 1.366 . S
C566 C568 1.388 . S
C567 C566 1.366 . S
C567 C571 1.385 . S
C568 H549 0.951 1_556 S
C568 C566 1.388 . S
C568 C569 1.366 . S
C569 C568 1.366 . S
C569 C570 1.414 . S
C569 C572 1.499 . S
C570 H550 0.950 . S
C570 C569 1.414 . S
C570 C571 1.374 . S
C571 H551 0.950 . S
C571 C567 1.385 . S
C571 C570 1.374 . S
C572 C569 1.499 . S
C572 C573 1.373 . S
C572 C574 1.389 . S
C573 H552 0.950 . S
C573 C572 1.373 . S
C573 C589 1.377 . S
C574 C572 1.389 . S
C574 C575 1.524 . S
C574 C588 1.377 . S
C575 C574 1.524 . S
C575 C576 1.397 . S
C575 C580 1.363 . S
C576 H553 0.950 . S
C576 C575 1.397 . S
C576 C577 1.334 . S
C577 H554 0.950 . S
C577 C576 1.334 . S
C577 C578 1.287 . S
C578 C577 1.287 . S
C578 C579 1.524 . S
C578 H597 0.913 . S
C579 H555 0.950 1_556 S
C579 C578 1.524 . S
C579 C580 1.415 . S
C580 H556 0.950 . S
C580 C575 1.363 . S
C580 C579 1.415 . S
C581 H557 0.951 . S
C581 C582 1.366 . S
C581 C583 1.388 . S
C582 C581 1.366 . S
C582 C586 1.385 . S
C583 H558 0.951 . S
C583 C581 1.388 . S
C583 C584 1.366 . S
C584 C583 1.366 . S
C584 C585 1.414 . S
C584 C587 1.499 . S
C585 H559 0.950 . S
C585 C584 1.414 . S
C585 C586 1.374 . S
C586 H560 0.950 . S
C586 C582 1.385 . S
C586 C585 1.374 . S
C587 C584 1.499 . S
C587 C588 1.373 . S
C587 C589 1.389 . S
C588 H561 0.950 . S
C588 C574 1.377 . S
C588 C587 1.373 . S
C589 C573 1.377 . S
C589 C587 1.389 . S
C589 C590 1.524 . S
C590 C589 1.524 . S
C590 C591 1.397 . S
C590 C595 1.363 . S
C591 H562 0.950 . S
C591 C590 1.397 . S
C591 C592 1.334 . S
C592 H563 0.950 . S
C592 C591 1.334 . S
C592 C593 1.287 . S
C593 C592 1.287 . S
C593 C594 1.524 . S
C593 H596 0.999 . S
C594 H564 0.950 . S
C594 C593 1.524 . S
C594 C595 1.415 . S
C595 H565 0.950 . S
C595 C590 1.363 . S
C595 C594 1.415 . S
H596 C593 0.999 . S
H597 C578 0.913 . S
H598 C616 0.951 . S
H599 C618 0.951 . S
H600 C620 0.950 . S
H601 C621 0.944 1_554 S
H602 C623 0.950 1_554 S
H603 C626 0.950 . S
H604 C627 0.950 . S
H605 C629 0.950 1_455 S
H606 C630 0.950 1_455 S
H607 C631 0.951 . S
H608 C633 0.951 . S
H609 C635 0.950 . S
H610 C636 0.950 . S
H611 C638 0.950 . S
H612 C641 0.950 . S
H613 C642 0.950 . S
H614 C644 0.950 . S
H615 C645 0.950 . S
C616 H598 0.951 . S
C616 C617 1.366 . S
C616 C618 1.388 . S
C617 C616 1.366 . S
C617 C621 1.385 . S
C618 H599 0.951 . S
C618 C616 1.388 . S
C618 C619 1.366 . S
C619 C618 1.366 . S
C619 C620 1.414 . S
C619 C622 1.499 . S
C620 H600 0.950 . S
C620 C619 1.414 . S
C620 C621 1.374 . S
C621 H601 0.944 1_556 S
C621 C617 1.385 . S
C621 C620 1.374 . S
C622 C619 1.499 . S
C622 C623 1.373 . S
C622 C624 1.389 . S
C623 H602 0.950 1_556 S
C623 C622 1.373 . S
C623 C639 1.377 . S
C624 C622 1.389 . S
C624 C625 1.524 . S
C624 C638 1.377 . S
C625 C624 1.524 . S
C625 C626 1.397 . S
C625 C630 1.363 . S
C626 H603 0.950 . S
C626 C625 1.397 . S
C626 C627 1.334 . S
C627 H604 0.950 . S
C627 C626 1.334 . S
C627 C628 1.287 . S
C628 C627 1.287 . S
C628 C629 1.524 . S
C628 H647 0.913 . S
C629 H605 0.950 1_655 S
C629 C628 1.524 . S
C629 C630 1.415 . S
C630 H606 0.950 1_655 S
C630 C625 1.363 . S
C630 C629 1.415 . S
C631 H607 0.951 . S
C631 C632 1.366 . S
C631 C633 1.388 . S
C632 C631 1.366 . S
C632 C636 1.385 1_655 S
C633 H608 0.951 . S
C633 C631 1.388 . S
C633 C634 1.366 . S
C634 C633 1.366 . S
C634 C635 1.414 1_655 S
C634 C637 1.499 . S
C635 H609 0.950 . S
C635 C634 1.414 1_455 S
C635 C636 1.374 . S
C636 H610 0.950 . S
C636 C632 1.385 1_455 S
C636 C635 1.374 . S
C637 C634 1.499 . S
C637 C638 1.373 . S
C637 C639 1.389 . S
C638 H611 0.950 . S
C638 C624 1.377 . S
C638 C637 1.373 . S
C639 C623 1.377 . S
C639 C637 1.389 . S
C639 C640 1.524 1_556 S
C640 C639 1.524 1_554 S
C640 C641 1.397 . S
C640 C645 1.363 . S
C641 H612 0.950 . S
C641 C640 1.397 . S
C641 C642 1.334 . S
C642 H613 0.950 . S
C642 C641 1.334 . S
C642 C643 1.287 . S
C643 C642 1.287 . S
C643 C644 1.524 . S
C643 H646 0.999 . S
C644 H614 0.950 . S
C644 C643 1.524 . S
C644 C645 1.415 . S
C645 H615 0.950 . S
C645 C640 1.363 . S
C645 C644 1.415 . S
H646 C643 0.999 . S
H647 C628 0.913 . S
H648 C666 0.951 . S
H649 C668 0.951 . S
H650 C670 0.950 . S
H651 C671 0.950 . S
H652 C673 0.950 . S
H653 C676 0.950 . S
H654 C677 0.950 . S
H655 C679 0.950 . S
H656 C680 0.950 . S
H657 C681 0.951 . S
H658 C683 0.951 . S
H659 C685 0.950 . S
H660 C686 0.950 . S
H661 C688 0.950 . S
H662 C691 0.950 . S
H663 C692 0.950 . S
H664 C694 0.950 . S
H665 C695 0.950 . S
C666 H648 0.951 . S
C666 C667 1.366 . S
C666 C668 1.388 . S
C667 C666 1.366 . S
C667 C671 1.385 . S
C668 H649 0.951 . S
C668 C666 1.388 . S
C668 C669 1.366 . S
C669 C668 1.366 . S
C669 C670 1.414 . S
C669 C672 1.499 . S
C670 H650 0.950 . S
C670 C669 1.414 . S
C670 C671 1.374 . S
C671 H651 0.950 . S
C671 C667 1.385 . S
C671 C670 1.374 . S
C672 C669 1.499 . S
C672 C673 1.373 . S
C672 C674 1.389 . S
C673 H652 0.950 . S
C673 C672 1.373 . S
C673 C689 1.377 . S
C674 C672 1.389 . S
C674 C675 1.524 . S
C674 C688 1.377 . S
C675 C674 1.524 . S
C675 C676 1.397 . S
C675 C680 1.363 . S
C676 H653 0.950 . S
C676 C675 1.397 . S
C676 C677 1.334 . S
C677 H654 0.950 . S
C677 C676 1.334 . S
C677 C678 1.287 . S
C678 C677 1.287 . S
C678 C679 1.524 . S
C678 H697 0.913 . S
C679 H655 0.950 . S
C679 C678 1.524 . S
C679 C680 1.415 . S
C680 H656 0.950 . S
C680 C675 1.363 . S
C680 C679 1.415 . S
C681 H657 0.951 . S
C681 C682 1.366 . S
C681 C683 1.388 . S
C682 C681 1.366 . S
C682 C686 1.385 . S
C683 H658 0.951 . S
C683 C681 1.388 . S
C683 C684 1.366 . S
C684 C683 1.366 . S
C684 C685 1.414 . S
C684 C687 1.499 . S
C685 H659 0.950 . S
C685 C684 1.414 . S
C685 C686 1.374 . S
C686 H660 0.950 . S
C686 C682 1.385 . S
C686 C685 1.374 . S
C687 C684 1.499 . S
C687 C688 1.373 . S
C687 C689 1.389 . S
C688 H661 0.950 . S
C688 C674 1.377 . S
C688 C687 1.373 . S
C689 C673 1.377 . S
C689 C687 1.389 . S
C689 C690 1.524 . S
C690 C689 1.524 . S
C690 C691 1.397 . S
C690 C695 1.363 . S
C691 H662 0.950 . S
C691 C690 1.397 . S
C691 C692 1.334 . S
C692 H663 0.950 . S
C692 C691 1.334 . S
C692 C693 1.287 . S
C693 C692 1.287 . S
C693 C694 1.524 . S
C693 H696 0.999 . S
C694 H664 0.950 . S
C694 C693 1.524 . S
C694 C695 1.415 . S
C695 H665 0.950 . S
C695 C690 1.363 . S
C695 C694 1.415 . S
H696 C693 0.999 . S
H697 C678 0.913 . S
H698 C716 0.951 . S
H699 C718 0.951 . S
H700 C720 0.950 1_565 S
H701 C721 0.950 . S
H702 C723 0.945 1_565 S
H703 C726 0.950 . S
H704 C727 0.950 . S
H705 C729 0.950 . S
H706 C730 0.950 . S
H707 C731 0.951 . S
H708 C733 0.951 . S
H709 C735 0.950 . S
H710 C736 0.950 . S
H711 C738 0.950 . S
H712 C741 0.950 1_545 S
H713 C742 0.950 . S
H714 C744 0.950 . S
H715 C745 0.950 . S
C716 H698 0.951 . S
C716 C717 1.366 . S
C716 C718 1.388 . S
C717 C716 1.366 . S
C717 C721 1.385 . S
C718 H699 0.951 . S
C718 C716 1.388 . S
C718 C719 1.366 . S
C719 C718 1.366 . S
C719 C720 1.414 . S
C719 C722 1.499 . S
C720 H700 0.950 1_545 S
C720 C719 1.414 . S
C720 C721 1.374 . S
C721 H701 0.950 . S
C721 C717 1.385 . S
C721 C720 1.374 . S
C722 C719 1.499 . S
C722 C723 1.373 . S
C722 C724 1.389 . S
C723 H702 0.945 1_545 S
C723 C722 1.373 . S
C723 C739 1.377 . S
C724 C722 1.389 . S
C724 C725 1.524 . S
C724 C738 1.377 . S
C725 C724 1.524 . S
C725 C726 1.397 . S
C725 C730 1.363 . S
C726 H703 0.950 . S
C726 C725 1.397 . S
C726 C727 1.334 . S
C727 H704 0.950 . S
C727 C726 1.334 . S
C727 C728 1.287 . S
C728 C727 1.287 . S
C728 C729 1.524 . S
C728 H747 0.913 . S
C729 H705 0.950 . S
C729 C728 1.524 . S
C729 C730 1.415 . S
C730 H706 0.950 . S
C730 C725 1.363 . S
C730 C729 1.415 . S
C731 H707 0.951 . S
C731 C732 1.366 1_565 S
C731 C733 1.388 . S
C732 C731 1.366 1_545 S
C732 C736 1.385 . S
C733 H708 0.951 . S
C733 C731 1.388 . S
C733 C734 1.366 1_565 S
C734 C733 1.366 1_545 S
C734 C735 1.414 . S
C734 C737 1.499 . S
C735 H709 0.950 . S
C735 C734 1.414 . S
C735 C736 1.374 . S
C736 H710 0.950 . S
C736 C732 1.385 . S
C736 C735 1.374 . S
C737 C734 1.499 . S
C737 C738 1.373 . S
C737 C739 1.389 . S
C738 H711 0.950 . S
C738 C724 1.377 . S
C738 C737 1.373 . S
C739 C723 1.377 . S
C739 C737 1.389 . S
C739 C740 1.524 1_545 S
C740 C739 1.524 1_565 S
C740 C741 1.397 . S
C740 C745 1.363 . S
C741 H712 0.950 1_565 S
C741 C740 1.397 . S
C741 C742 1.334 . S
C742 H713 0.950 . S
C742 C741 1.334 . S
C742 C743 1.287 . S
C743 C742 1.287 . S
C743 C744 1.524 . S
C743 H746 0.999 . S
C744 H714 0.950 . S
C744 C743 1.524 . S
C744 C745 1.415 . S
C745 H715 0.950 . S
C745 C740 1.363 . S
C745 C744 1.415 . S
H746 C743 0.999 . S
H747 C728 0.913 . S
H748 C766 0.951 . S
H749 C768 0.951 . S
H750 C770 0.950 . S
H751 C771 0.950 . S
H752 C773 0.950 . S
H753 C776 0.950 . S
H754 C777 0.950 . S
H755 C779 0.950 . S
H756 C780 0.950 . S
H757 C781 0.951 . S
H758 C783 0.951 . S
H759 C785 0.950 . S
H760 C786 0.950 . S
H761 C788 0.950 . S
H762 C791 0.950 . S
H763 C792 0.950 . S
H764 C794 0.950 . S
H765 C795 0.950 . S
C766 H748 0.951 . S
C766 C767 1.366 . S
C766 C768 1.388 . S
C767 C766 1.366 . S
C767 C771 1.385 . S
C768 H749 0.951 . S
C768 C766 1.388 . S
C768 C769 1.366 . S
C769 C768 1.366 . S
C769 C770 1.414 . S
C769 C772 1.499 . S
C770 H750 0.950 . S
C770 C769 1.414 . S
C770 C771 1.374 . S
C771 H751 0.950 . S
C771 C767 1.385 . S
C771 C770 1.374 . S
C772 C769 1.499 . S
C772 C773 1.373 . S
C772 C774 1.389 . S
C773 H752 0.950 . S
C773 C772 1.373 . S
C773 C789 1.377 . S
C774 C772 1.389 . S
C774 C775 1.524 . S
C774 C788 1.377 . S
C775 C774 1.524 . S
C775 C776 1.397 . S
C775 C780 1.363 . S
C776 H753 0.950 . S
C776 C775 1.397 . S
C776 C777 1.334 . S
C777 H754 0.950 . S
C777 C776 1.334 . S
C777 C778 1.287 . S
C778 C777 1.287 . S
C778 C779 1.524 . S
C778 H797 0.913 . S
C779 H755 0.950 . S
C779 C778 1.524 . S
C779 C780 1.415 . S
C780 H756 0.950 . S
C780 C775 1.363 . S
C780 C779 1.415 . S
C781 H757 0.951 . S
C781 C782 1.366 . S
C781 C783 1.388 . S
C782 C781 1.366 . S
C782 C786 1.385 . S
C783 H758 0.951 . S
C783 C781 1.388 . S
C783 C784 1.366 . S
C784 C783 1.366 . S
C784 C785 1.414 . S
C784 C787 1.499 . S
C785 H759 0.950 . S
C785 C784 1.414 . S
C785 C786 1.374 . S
C786 H760 0.950 . S
C786 C782 1.385 . S
C786 C785 1.374 . S
C787 C784 1.499 . S
C787 C788 1.373 . S
C787 C789 1.389 . S
C788 H761 0.950 . S
C788 C774 1.377 . S
C788 C787 1.373 . S
C789 C773 1.377 . S
C789 C787 1.389 . S
C789 C790 1.524 . S
C790 C789 1.524 . S
C790 C791 1.397 . S
C790 C795 1.363 . S
C791 H762 0.950 . S
C791 C790 1.397 . S
C791 C792 1.334 . S
C792 H763 0.950 . S
C792 C791 1.334 . S
C792 C793 1.287 . S
C793 C792 1.287 . S
C793 C794 1.524 . S
C793 H796 0.999 . S
C794 H764 0.950 . S
C794 C793 1.524 . S
C794 C795 1.415 . S
C795 H765 0.950 . S
C795 C790 1.363 . S
C795 C794 1.415 . S
H796 C793 0.999 . S
H797 C778 0.913 . S
H798 C816 0.951 . S
H799 C818 0.951 . S
H800 C820 0.950 . S
H801 C821 0.950 . S
H802 C823 0.950 . S
H803 C826 0.950 . S
H804 C827 0.950 . S
H805 C829 0.950 . S
H806 C830 0.950 . S
H807 C831 0.951 . S
H808 C833 0.951 . S
H809 C835 0.950 . S
H810 C836 0.950 . S
H811 C838 0.950 . S
H812 C841 0.950 . S
H813 C842 0.950 . S
H814 C844 0.950 . S
H815 C845 0.950 . S
C816 H798 0.951 . S
C816 C817 1.366 . S
C816 C818 1.388 . S
C817 C816 1.366 . S
C817 C821 1.385 . S
C818 H799 0.951 . S
C818 C816 1.388 . S
C818 C819 1.366 . S
C819 C818 1.366 . S
C819 C820 1.414 . S
C819 C822 1.499 . S
C820 H800 0.950 . S
C820 C819 1.414 . S
C820 C821 1.374 . S
C821 H801 0.950 . S
C821 C817 1.385 . S
C821 C820 1.374 . S
C822 C819 1.499 . S
C822 C823 1.373 . S
C822 C824 1.389 . S
C823 H802 0.950 . S
C823 C822 1.373 . S
C823 C839 1.377 . S
C824 C822 1.389 . S
C824 C825 1.524 . S
C824 C838 1.377 . S
C825 C824 1.524 . S
C825 C826 1.397 . S
C825 C830 1.363 . S
C826 H803 0.950 . S
C826 C825 1.397 . S
C826 C827 1.334 . S
C827 H804 0.950 . S
C827 C826 1.334 . S
C827 C828 1.287 . S
C828 C827 1.287 . S
C828 C829 1.524 . S
C828 H847 0.913 . S
C829 H805 0.950 . S
C829 C828 1.524 . S
C829 C830 1.415 . S
C830 H806 0.950 . S
C830 C825 1.363 . S
C830 C829 1.415 . S
C831 H807 0.951 . S
C831 C832 1.366 . S
C831 C833 1.388 . S
C832 C831 1.366 . S
C832 C836 1.385 . S
C833 H808 0.951 . S
C833 C831 1.388 . S
C833 C834 1.366 . S
C834 C833 1.366 . S
C834 C835 1.414 . S
C834 C837 1.499 . S
C835 H809 0.950 . S
C835 C834 1.414 . S
C835 C836 1.374 . S
C836 H810 0.950 . S
C836 C832 1.385 . S
C836 C835 1.374 . S
C837 C834 1.499 . S
C837 C838 1.373 . S
C837 C839 1.389 . S
C838 H811 0.950 . S
C838 C824 1.377 . S
C838 C837 1.373 . S
C839 C823 1.377 . S
C839 C837 1.389 . S
C839 C840 1.524 . S
C840 C839 1.524 . S
C840 C841 1.397 . S
C840 C845 1.363 . S
C841 H812 0.950 . S
C841 C840 1.397 . S
C841 C842 1.334 . S
C842 H813 0.950 . S
C842 C841 1.334 . S
C842 C843 1.287 . S
C843 C842 1.287 . S
C843 C844 1.524 . S
C843 H846 0.999 . S
C844 H814 0.950 . S
C844 C843 1.524 . S
C844 C845 1.415 . S
C845 H815 0.950 . S
C845 C840 1.363 . S
C845 C844 1.415 . S
H846 C843 0.999 . S
H847 C828 0.913 . S
H848 C866 0.951 . S
H849 C868 0.951 . S
H850 C870 0.950 1_554 S
H851 C871 0.950 . S
H852 C873 0.950 . S
H853 C876 0.950 . S
H854 C877 0.950 . S
H855 C879 0.950 . S
H856 C880 0.950 . S
H857 C881 0.951 . S
H858 C883 0.951 . S
H859 C885 0.950 . S
H860 C886 0.950 . S
H861 C888 0.975 . S
H862 C891 0.950 . S
H863 C892 0.950 . S
H864 C894 0.950 1_554 S
H865 C895 0.950 1_554 S
C866 H848 0.951 . S
C866 C867 1.366 . S
C866 C868 1.388 . S
C867 C866 1.366 . S
C867 C871 1.385 1_556 S
C868 H849 0.951 . S
C868 C866 1.388 . S
C868 C869 1.366 . S
C869 C868 1.366 . S
C869 C870 1.414 . S
C869 C872 1.499 . S
C870 H850 0.950 1_556 S
C870 C869 1.414 . S
C870 C871 1.374 1_556 S
C871 H851 0.950 . S
C871 C867 1.385 1_554 S
C871 C870 1.374 1_554 S
C872 C869 1.499 . S
C872 C873 1.373 . S
C872 C874 1.389 . S
C873 H852 0.950 . S
C873 C872 1.373 . S
C873 C889 1.377 . S
C874 C872 1.389 . S
C874 C875 1.524 . S
C874 C888 1.377 . S
C875 C874 1.524 . S
C875 C876 1.397 . S
C875 C880 1.363 1_655 S
C876 H853 0.950 . S
C876 C875 1.397 . S
C876 C877 1.334 1_655 S
C877 H854 0.950 . S
C877 C876 1.334 1_455 S
C877 C878 1.287 . S
C878 C877 1.287 . S
C878 C879 1.524 . S
C878 H897 0.913 . S
C879 H855 0.950 . S
C879 C878 1.524 . S
C879 C880 1.415 . S
C880 H856 0.950 . S
C880 C875 1.363 1_455 S
C880 C879 1.415 . S
C881 H857 0.951 . S
C881 C882 1.366 1_655 S
C881 C883 1.388 . S
C882 C881 1.366 1_455 S
C882 C886 1.385 . S
C883 H858 0.951 . S
C883 C881 1.388 . S
C883 C884 1.366 . S
C884 C883 1.366 . S
C884 C885 1.414 . S
C884 C887 1.499 . S
C885 H859 0.950 . S
C885 C884 1.414 . S
C885 C886 1.374 1_655 S
C886 H860 0.950 . S
C886 C882 1.385 . S
C886 C885 1.374 1_455 S
C887 C884 1.499 . S
C887 C888 1.373 . S
C887 C889 1.389 . S
C888 H861 0.975 . S
C888 C874 1.377 . S
C888 C887 1.373 . S
C889 C873 1.377 . S
C889 C887 1.389 . S
C889 C890 1.524 . S
C890 C889 1.524 . S
C890 C891 1.397 . S
C890 C895 1.363 . S
C891 H862 0.950 . S
C891 C890 1.397 . S
C891 C892 1.334 . S
C892 H863 0.950 . S
C892 C891 1.334 . S
C892 C893 1.287 . S
C893 C892 1.287 . S
C893 C894 1.524 . S
C893 H896 0.999 . S
C894 H864 0.950 1_556 S
C894 C893 1.524 . S
C894 C895 1.415 . S
C895 H865 0.950 1_556 S
C895 C890 1.363 . S
C895 C894 1.415 . S
H896 C893 0.999 . S
H897 C878 0.913 . S
H898 C916 0.951 . S
H899 C918 0.951 . S
H900 C920 0.950 . S
H901 C921 0.984 . S
H902 C923 0.950 . S
H903 C926 0.950 1_545 S
H904 C927 0.950 . S
H905 C929 0.950 . S
H906 C930 0.950 . S
H907 C931 0.951 . S
H908 C933 0.951 . S
H909 C935 0.950 . S
H910 C936 0.950 . S
H911 C938 0.950 . S
H912 C941 0.950 1_565 S
H913 C942 0.950 . S
H914 C944 0.950 . S
H915 C945 0.950 . S
C916 H898 0.951 . S
C916 C917 1.366 . S
C916 C918 1.388 . S
C917 C916 1.366 . S
C917 C921 1.333 1_565 S
C918 H899 0.951 . S
C918 C916 1.388 . S
C918 C919 1.366 . S
C919 C918 1.366 . S
C919 C920 1.414 1_565 S
C919 C922 1.499 . S
C920 H900 0.950 . S
C920 C919 1.414 1_545 S
C920 C921 1.393 . S
C921 H901 0.984 . S
C921 C917 1.333 1_545 S
C921 C920 1.393 . S
C922 C919 1.499 . S
C922 C923 1.373 1_565 S
C922 C924 1.389 . S
C923 H902 0.950 . S
C923 C922 1.373 1_545 S
C923 C939 1.377 . S
C924 C922 1.389 . S
C924 C925 1.524 . S
C924 C938 1.377 . S
C925 C924 1.524 . S
C925 C926 1.397 . S
C925 C930 1.363 . S
C926 H903 0.950 1_565 S
C926 C925 1.397 . S
C926 C927 1.334 . S
C927 H904 0.950 . S
C927 C926 1.334 . S
C927 C928 1.287 . S
C928 C927 1.287 . S
C928 C929 1.524 . S
C928 H947 0.913 . S
C929 H905 0.950 . S
C929 C928 1.524 . S
C929 C930 1.415 . S
C930 H906 0.950 . S
C930 C925 1.363 . S
C930 C929 1.415 . S
C931 H907 0.951 . S
C931 C932 1.366 . S
C931 C933 1.388 . S
C932 C931 1.366 . S
C932 C936 1.385 1_545 S
C933 H908 0.951 . S
C933 C931 1.388 . S
C933 C934 1.366 . S
C934 C933 1.366 . S
C934 C935 1.414 1_545 S
C934 C937 1.499 . S
C935 H909 0.950 . S
C935 C934 1.414 1_565 S
C935 C936 1.374 . S
C936 H910 0.950 . S
C936 C932 1.385 1_565 S
C936 C935 1.374 . S
C937 C934 1.499 . S
C937 C938 1.373 1_545 S
C937 C939 1.389 . S
C938 H911 0.950 . S
C938 C924 1.377 . S
C938 C937 1.373 1_565 S
C939 C923 1.377 . S
C939 C937 1.389 . S
C939 C940 1.524 . S
C940 C939 1.524 . S
C940 C941 1.397 . S
C940 C945 1.363 . S
C941 H912 0.950 1_545 S
C941 C940 1.397 . S
C941 C942 1.334 1_556 S
C942 H913 0.950 . S
C942 C941 1.334 1_554 S
C942 C943 1.287 . S
C943 C942 1.287 . S
C943 C944 1.524 . S
C943 H946 0.999 . S
C944 H914 0.950 . S
C944 C943 1.524 . S
C944 C945 1.415 1_554 S
C945 H915 0.950 . S
C945 C940 1.363 . S
C945 C944 1.415 1_556 S
H946 C943 0.999 . S
H947 C928 0.913 . S
H948 C966 0.951 . S
H949 C968 0.951 . S
H950 C970 0.950 . S
H951 C971 0.950 . S
H952 C973 0.950 . S
H953 C976 0.950 . S
H954 C977 0.950 . S
H955 C979 0.950 . S
H956 C980 0.950 1_556 S
H957 C981 0.951 . S
H958 C983 0.951 . S
H959 C985 0.950 . S
H960 C986 0.950 . S
H961 C988 0.950 . S
H962 C991 0.950 . S
H963 C992 0.950 . S
H964 C994 0.950 . S
H965 C995 0.950 . S
C966 H948 0.951 . S
C966 C967 1.366 . S
C966 C968 1.388 . S
C967 C966 1.366 . S
C967 C971 1.385 . S
C968 H949 0.951 . S
C968 C966 1.388 . S
C968 C969 1.366 . S
C969 C968 1.366 . S
C969 C970 1.414 . S
C969 C972 1.499 . S
C970 H950 0.950 . S
C970 C969 1.414 . S
C970 C971 1.374 . S
C971 H951 0.950 . S
C971 C967 1.385 . S
C971 C970 1.374 . S
C972 C969 1.499 . S
C972 C973 1.373 . S
C972 C974 1.389 . S
C973 H952 0.950 . S
C973 C972 1.373 . S
C973 C989 1.377 . S
C974 C972 1.389 . S
C974 C975 1.524 . S
C974 C988 1.377 . S
C975 C974 1.524 . S
C975 C976 1.397 . S
C975 C980 1.363 . S
C976 H953 0.950 . S
C976 C975 1.397 . S
C976 C977 1.334 . S
C977 H954 0.950 . S
C977 C976 1.334 . S
C977 C978 1.287 . S
C978 C977 1.287 . S
C978 C979 1.524 1_554 S
C978 H997 0.908 1_554 S
C979 H955 0.950 . S
C979 C978 1.524 1_556 S
C979 C980 1.415 1_556 S
C980 H956 0.950 1_554 S
C980 C975 1.363 . S
C980 C979 1.415 1_554 S
C981 H957 0.951 . S
C981 C982 1.366 1_554 S
C981 C983 1.388 . S
C982 C981 1.366 1_556 S
C982 C986 1.385 . S
C983 H958 0.951 . S
C983 C981 1.388 . S
C983 C984 1.366 . S
C984 C983 1.366 . S
C984 C985 1.414 1_554 S
C984 C987 1.499 . S
C985 H959 0.950 . S
C985 C984 1.414 1_556 S
C985 C986 1.374 . S
C986 H960 0.950 . S
C986 C982 1.385 . S
C986 C985 1.374 . S
C987 C984 1.499 . S
C987 C988 1.373 . S
C987 C989 1.389 . S
C988 H961 0.950 . S
C988 C974 1.377 . S
C988 C987 1.373 . S
C989 C973 1.377 . S
C989 C987 1.389 . S
C989 C990 1.524 . S
C990 C989 1.524 . S
C990 C991 1.397 . S
C990 C995 1.363 . S
C991 H962 0.950 . S
C991 C990 1.397 . S
C991 C992 1.334 . S
C992 H963 0.950 . S
C992 C991 1.334 . S
C992 C993 1.287 . S
C993 C992 1.287 . S
C993 C994 1.524 . S
C993 H996 0.999 . S
C994 H964 0.950 . S
C994 C993 1.524 . S
C994 C995 1.415 . S
C995 H965 0.950 . S
C995 C990 1.363 . S
C995 C994 1.415 . S
H996 C993 0.999 . S
H997 C978 0.908 1_556 S
H998 C1016 0.951 . S
H999 C1018 0.951 . S
H1000 C1020 0.950 . S
H1001 C1021 0.950 . S
H1002 C1023 0.950 . S
H1003 C1026 0.950 . S
H1004 C1027 0.950 . S
H1005 C1029 0.950 . S
H1006 C1030 0.950 . S
H1007 C1031 0.951 . S
H1008 C1033 0.951 . S
H1009 C1035 0.950 . S
H1010 C1036 0.950 . S
H1011 C1038 0.950 . S
H1012 C1041 0.950 . S
H1013 C1042 0.950 . S
H1014 C1044 0.950 . S
H1015 C1045 0.950 . S
C1016 H998 0.951 . S
C1016 C1017 1.366 . S
C1016 C1018 1.388 . S
C1017 C1016 1.366 . S
C1017 C1021 1.385 . S
C1018 H999 0.951 . S
C1018 C1016 1.388 . S
C1018 C1019 1.366 . S
C1019 C1018 1.366 . S
C1019 C1020 1.414 . S
C1019 C1022 1.499 . S
C1020 H1000 0.950 . S
C1020 C1019 1.414 . S
C1020 C1021 1.374 . S
C1021 H1001 0.950 . S
C1021 C1017 1.385 . S
C1021 C1020 1.374 . S
C1022 C1019 1.499 . S
C1022 C1023 1.373 . S
C1022 C1024 1.389 . S
C1023 H1002 0.950 . S
C1023 C1022 1.373 . S
C1023 C1039 1.377 . S
C1024 C1022 1.389 . S
C1024 C1025 1.524 1_556 S
C1024 C1038 1.377 . S
C1025 C1024 1.524 1_554 S
C1025 C1026 1.397 . S
C1025 C1030 1.363 . S
C1026 H1003 0.950 . S
C1026 C1025 1.397 . S
C1026 C1027 1.334 . S
C1027 H1004 0.950 . S
C1027 C1026 1.334 . S
C1027 C1028 1.287 . S
C1028 C1027 1.287 . S
C1028 C1029 1.524 . S
C1028 H1047 0.913 . S
C1029 H1005 0.950 . S
C1029 C1028 1.524 . S
C1029 C1030 1.415 . S
C1030 H1006 0.950 . S
C1030 C1025 1.363 . S
C1030 C1029 1.415 . S
C1031 H1007 0.951 . S
C1031 C1032 1.366 . S
C1031 C1033 1.388 . S
C1032 C1031 1.366 . S
C1032 C1036 1.385 . S
C1033 H1008 0.951 . S
C1033 C1031 1.388 . S
C1033 C1034 1.366 . S
C1034 C1033 1.366 . S
C1034 C1035 1.414 . S
C1034 C1037 1.499 . S
C1035 H1009 0.950 . S
C1035 C1034 1.414 . S
C1035 C1036 1.374 . S
C1036 H1010 0.950 . S
C1036 C1032 1.385 . S
C1036 C1035 1.374 . S
C1037 C1034 1.499 . S
C1037 C1038 1.373 . S
C1037 C1039 1.389 . S
C1038 H1011 0.950 . S
C1038 C1024 1.377 . S
C1038 C1037 1.373 . S
C1039 C1023 1.377 . S
C1039 C1037 1.389 . S
C1039 C1040 1.524 . S
C1040 C1039 1.524 . S
C1040 C1041 1.397 . S
C1040 C1045 1.363 . S
C1041 H1012 0.950 . S
C1041 C1040 1.397 . S
C1041 C1042 1.334 . S
C1042 H1013 0.950 . S
C1042 C1041 1.334 . S
C1042 C1043 1.287 . S
C1043 C1042 1.287 . S
C1043 C1044 1.524 . S
C1043 H1046 0.999 . S
C1044 H1014 0.950 . S
C1044 C1043 1.524 . S
C1044 C1045 1.415 . S
C1045 H1015 0.950 . S
C1045 C1040 1.363 . S
C1045 C1044 1.415 . S
H1046 C1043 0.999 . S
H1047 C1028 0.913 . S
H1048 C1066 0.951 . S
H1049 C1068 0.951 . S
H1050 C1070 0.950 . S
H1051 C1071 0.950 . S
H1052 C1073 0.950 . S
H1053 C1076 0.950 . S
H1054 C1077 0.950 . S
H1055 C1079 0.950 . S
H1056 C1080 0.950 . S
H1057 C1081 0.951 . S
H1058 C1083 0.951 . S
H1059 C1085 0.950 . S
H1060 C1086 0.950 . S
H1061 C1088 0.950 . S
H1062 C1091 0.950 . S
H1063 C1092 0.950 . S
H1064 C1094 0.971 . S
H1065 C1095 0.950 . S
C1066 H1048 0.951 . S
C1066 C1067 1.366 . S
C1066 C1068 1.388 . S
C1067 C1066 1.366 . S
C1067 C1071 1.385 . S
C1068 H1049 0.951 . S
C1068 C1066 1.388 . S
C1068 C1069 1.366 . S
C1069 C1068 1.366 . S
C1069 C1070 1.414 . S
C1069 C1072 1.499 . S
C1070 H1050 0.950 . S
C1070 C1069 1.414 . S
C1070 C1071 1.374 . S
C1071 H1051 0.950 . S
C1071 C1067 1.385 . S
C1071 C1070 1.374 . S
C1072 C1069 1.499 . S
C1072 C1073 1.373 . S
C1072 C1074 1.389 . S
C1073 H1052 0.950 . S
C1073 C1072 1.373 . S
C1073 C1089 1.377 . S
C1074 C1072 1.389 . S
C1074 C1075 1.524 . S
C1074 C1088 1.377 . S
C1075 C1074 1.524 . S
C1075 C1076 1.397 . S
C1075 C1080 1.363 . S
C1076 H1053 0.950 . S
C1076 C1075 1.397 . S
C1076 C1077 1.334 . S
C1077 H1054 0.950 . S
C1077 C1076 1.334 . S
C1077 C1078 1.287 . S
C1078 C1077 1.287 . S
C1078 C1079 1.524 . S
C1078 H1097 0.913 . S
C1079 H1055 0.950 . S
C1079 C1078 1.524 . S
C1079 C1080 1.415 . S
C1080 H1056 0.950 . S
C1080 C1075 1.363 . S
C1080 C1079 1.415 . S
C1081 H1057 0.951 . S
C1081 C1082 1.366 . S
C1081 C1083 1.388 . S
C1082 C1081 1.366 . S
C1082 C1086 1.385 . S
C1083 H1058 0.951 . S
C1083 C1081 1.388 . S
C1083 C1084 1.366 . S
C1084 C1083 1.366 . S
C1084 C1085 1.414 . S
C1084 C1087 1.499 . S
C1085 H1059 0.950 . S
C1085 C1084 1.414 . S
C1085 C1086 1.374 . S
C1086 H1060 0.950 . S
C1086 C1082 1.385 . S
C1086 C1085 1.374 . S
C1087 C1084 1.499 . S
C1087 C1088 1.373 . S
C1087 C1089 1.389 . S
C1088 H1061 0.950 . S
C1088 C1074 1.377 . S
C1088 C1087 1.373 . S
C1089 C1073 1.377 . S
C1089 C1087 1.389 . S
C1089 C1090 1.524 . S
C1090 C1089 1.524 . S
C1090 C1091 1.397 . S
C1090 C1095 1.363 . S
C1091 H1062 0.950 . S
C1091 C1090 1.397 . S
C1091 C1092 1.334 . S
C1092 H1063 0.950 . S
C1092 C1091 1.334 . S
C1092 C1093 1.287 . S
C1093 C1092 1.287 . S
C1093 C1094 1.524 . S
C1093 H1096 0.999 . S
C1094 H1064 0.971 . S
C1094 C1093 1.524 . S
C1094 C1095 1.415 . S
C1095 H1065 0.950 . S
C1095 C1090 1.363 . S
C1095 C1094 1.415 . S
H1096 C1093 0.999 . S
H1097 C1078 0.913 . S
H1098 C1116 0.951 . S
H1099 C1118 0.951 . S
H1100 C1120 0.950 . S
H1101 C1121 0.950 . S
H1102 C1123 0.950 . S
H1103 C1126 0.950 . S
H1104 C1127 0.950 . S
H1105 C1129 0.950 . S
H1106 C1130 0.950 . S
H1107 C1131 0.951 . S
H1108 C1133 0.951 . S
H1109 C1135 0.950 . S
H1110 C1136 0.950 . S
H1111 C1138 0.950 . S
H1112 C1141 0.950 1_545 S
H1113 C1142 0.950 . S
H1114 C1144 0.950 . S
H1115 C1145 0.950 . S
C1116 H1098 0.951 . S
C1116 C1117 1.366 . S
C1116 C1118 1.388 . S
C1117 C1116 1.366 . S
C1117 C1121 1.385 . S
C1118 H1099 0.951 . S
C1118 C1116 1.388 . S
C1118 C1119 1.366 . S
C1119 C1118 1.366 . S
C1119 C1120 1.414 . S
C1119 C1122 1.499 . S
C1120 H1100 0.950 . S
C1120 C1119 1.414 . S
C1120 C1121 1.374 . S
C1121 H1101 0.950 . S
C1121 C1117 1.385 . S
C1121 C1120 1.374 . S
C1122 C1119 1.499 . S
C1122 C1123 1.373 . S
C1122 C1124 1.389 . S
C1123 H1102 0.950 . S
C1123 C1122 1.373 . S
C1123 C1139 1.377 . S
C1124 C1122 1.389 . S
C1124 C1125 1.524 . S
C1124 C1138 1.377 . S
C1125 C1124 1.524 . S
C1125 C1126 1.397 . S
C1125 C1130 1.363 . S
C1126 H1103 0.950 . S
C1126 C1125 1.397 . S
C1126 C1127 1.334 . S
C1127 H1104 0.950 . S
C1127 C1126 1.334 . S
C1127 C1128 1.287 . S
C1128 C1127 1.287 . S
C1128 C1129 1.524 . S
C1128 H1147 0.913 . S
C1129 H1105 0.950 . S
C1129 C1128 1.524 . S
C1129 C1130 1.415 . S
C1130 H1106 0.950 . S
C1130 C1125 1.363 . S
C1130 C1129 1.415 . S
C1131 H1107 0.951 . S
C1131 C1132 1.366 . S
C1131 C1133 1.388 . S
C1132 C1131 1.366 . S
C1132 C1136 1.385 . S
C1133 H1108 0.951 . S
C1133 C1131 1.388 . S
C1133 C1134 1.366 . S
C1134 C1133 1.366 . S
C1134 C1135 1.414 . S
C1134 C1137 1.499 . S
C1135 H1109 0.950 . S
C1135 C1134 1.414 . S
C1135 C1136 1.374 . S
C1136 H1110 0.950 . S
C1136 C1132 1.385 . S
C1136 C1135 1.374 . S
C1137 C1134 1.499 . S
C1137 C1138 1.373 . S
C1137 C1139 1.389 . S
C1138 H1111 0.950 . S
C1138 C1124 1.377 . S
C1138 C1137 1.373 . S
C1139 C1123 1.377 . S
C1139 C1137 1.389 . S
C1139 C1140 1.478 1_545 S
C1140 C1139 1.478 1_565 S
C1140 C1141 1.410 . S
C1140 C1145 1.396 . S
C1141 H1112 0.950 1_565 S
C1141 C1140 1.410 . S
C1141 C1142 1.334 . S
C1142 H1113 0.950 . S
C1142 C1141 1.334 . S
C1142 C1143 1.287 . S
C1143 C1142 1.287 . S
C1143 C1144 1.524 . S
C1143 H1146 0.999 . S
C1144 H1114 0.950 . S
C1144 C1143 1.524 . S
C1144 C1145 1.415 . S
C1145 H1115 0.950 . S
C1145 C1140 1.396 . S
C1145 C1144 1.415 . S
H1146 C1143 0.999 . S
H1147 C1128 0.913 . S
H1148 C1166 0.951 . S
H1149 C1168 0.951 . S
H1150 C1170 0.950 . S
H1151 C1171 0.950 . S
H1152 C1173 0.950 . S
H1153 C1176 0.950 . S
H1154 C1177 0.950 . S
H1155 C1179 0.950 . S
H1156 C1180 0.950 . S
H1157 C1181 0.951 . S
H1158 C1183 0.951 . S
H1159 C1185 0.950 . S
H1160 C1186 0.950 . S
H1161 C1188 0.950 . S
H1162 C1191 0.950 . S
H1163 C1192 0.950 . S
H1164 C1194 0.950 . S
H1165 C1195 0.950 . S
C1166 H1148 0.951 . S
C1166 C1167 1.366 . S
C1166 C1168 1.388 . S
C1167 C1166 1.366 . S
C1167 C1171 1.385 . S
C1168 H1149 0.951 . S
C1168 C1166 1.388 . S
C1168 C1169 1.366 . S
C1169 C1168 1.366 . S
C1169 C1170 1.414 . S
C1169 C1172 1.499 . S
C1170 H1150 0.950 . S
C1170 C1169 1.414 . S
C1170 C1171 1.374 . S
C1171 H1151 0.950 . S
C1171 C1167 1.385 . S
C1171 C1170 1.374 . S
C1172 C1169 1.499 . S
C1172 C1173 1.373 . S
C1172 C1174 1.389 1_554 S
C1173 H1152 0.950 . S
C1173 C1172 1.373 . S
C1173 C1189 1.377 . S
C1174 C1172 1.389 1_556 S
C1174 C1175 1.524 . S
C1174 C1188 1.377 . S
C1175 C1174 1.524 . S
C1175 C1176 1.397 . S
C1175 C1180 1.363 . S
C1176 H1153 0.950 . S
C1176 C1175 1.397 . S
C1176 C1177 1.334 . S
C1177 H1154 0.950 . S
C1177 C1176 1.334 . S
C1177 C1178 1.287 . S
C1178 C1177 1.287 . S
C1178 C1179 1.524 . S
C1178 H1197 0.913 . S
C1179 H1155 0.950 . S
C1179 C1178 1.524 . S
C1179 C1180 1.415 . S
C1180 H1156 0.950 . S
C1180 C1175 1.363 . S
C1180 C1179 1.415 . S
C1181 H1157 0.951 . S
C1181 C1182 1.366 . S
C1181 C1183 1.388 . S
C1182 C1181 1.366 . S
C1182 C1186 1.385 . S
C1183 H1158 0.951 . S
C1183 C1181 1.388 . S
C1183 C1184 1.366 . S
C1184 C1183 1.366 . S
C1184 C1185 1.414 . S
C1184 C1187 1.502 . S
C1185 H1159 0.950 . S
C1185 C1184 1.414 . S
C1185 C1186 1.374 . S
C1186 H1160 0.950 . S
C1186 C1182 1.385 . S
C1186 C1185 1.374 . S
C1187 C1184 1.502 . S
C1187 C1188 1.378 . S
C1187 C1189 1.382 1_556 S
C1188 H1161 0.950 . S
C1188 C1174 1.377 . S
C1188 C1187 1.378 . S
C1189 C1173 1.377 . S
C1189 C1187 1.382 1_554 S
C1189 C1190 1.524 . S
C1190 C1189 1.524 . S
C1190 C1191 1.397 . S
C1190 C1195 1.363 . S
C1191 H1162 0.950 . S
C1191 C1190 1.397 . S
C1191 C1192 1.334 . S
C1192 H1163 0.950 . S
C1192 C1191 1.334 . S
C1192 C1193 1.287 . S
C1193 C1192 1.287 . S
C1193 C1194 1.524 . S
C1193 H1196 0.999 . S
C1194 H1164 0.950 . S
C1194 C1193 1.524 . S
C1194 C1195 1.415 . S
C1195 H1165 0.950 . S
C1195 C1190 1.363 . S
C1195 C1194 1.415 . S
H1196 C1193 0.999 . S
H1197 C1178 0.913 . S
H1198 C1216 0.951 . S
H1199 C1218 0.951 . S
H1200 C1220 0.950 . S
H1201 C1221 0.950 . S
H1202 C1223 0.950 . S
H1203 C1226 0.950 . S
H1204 C1227 0.950 . S
H1205 C1229 0.950 . S
H1206 C1230 0.950 . S
H1207 C1231 0.951 . S
H1208 C1233 0.951 . S
H1209 C1235 0.950 . S
H1210 C1236 0.950 . S
H1211 C1238 0.950 . S
H1212 C1241 0.950 . S
H1213 C1242 0.950 . S
H1214 C1244 0.950 . S
H1215 C1245 0.950 . S
C1216 H1198 0.951 . S
C1216 C1217 1.366 . S
C1216 C1218 1.388 . S
C1217 C1216 1.366 . S
C1217 C1221 1.385 . S
C1218 H1199 0.951 . S
C1218 C1216 1.388 . S
C1218 C1219 1.366 . S
C1219 C1218 1.366 . S
C1219 C1220 1.414 . S
C1219 C1222 1.499 . S
C1220 H1200 0.950 . S
C1220 C1219 1.414 . S
C1220 C1221 1.374 . S
C1221 H1201 0.950 . S
C1221 C1217 1.385 . S
C1221 C1220 1.374 . S
C1222 C1219 1.499 . S
C1222 C1223 1.373 . S
C1222 C1224 1.389 . S
C1223 H1202 0.950 . S
C1223 C1222 1.373 . S
C1223 C1239 1.377 . S
C1224 C1222 1.389 . S
C1224 C1225 1.524 . S
C1224 C1238 1.377 . S
C1225 C1224 1.524 . S
C1225 C1226 1.397 . S
C1225 C1230 1.363 . S
C1226 H1203 0.950 . S
C1226 C1225 1.397 . S
C1226 C1227 1.334 . S
C1227 H1204 0.950 . S
C1227 C1226 1.334 . S
C1227 C1228 1.287 . S
C1228 C1227 1.287 . S
C1228 C1229 1.524 . S
C1228 H1247 0.913 . S
C1229 H1205 0.950 . S
C1229 C1228 1.524 . S
C1229 C1230 1.415 . S
C1230 H1206 0.950 . S
C1230 C1225 1.363 . S
C1230 C1229 1.415 . S
C1231 H1207 0.951 . S
C1231 C1232 1.366 . S
C1231 C1233 1.388 . S
C1232 C1231 1.366 . S
C1232 C1236 1.385 . S
C1233 H1208 0.951 . S
C1233 C1231 1.388 . S
C1233 C1234 1.366 . S
C1234 C1233 1.366 . S
C1234 C1235 1.414 . S
C1234 C1237 1.499 . S
C1235 H1209 0.950 . S
C1235 C1234 1.414 . S
C1235 C1236 1.374 . S
C1236 H1210 0.950 . S
C1236 C1232 1.385 . S
C1236 C1235 1.374 . S
C1237 C1234 1.499 . S
C1237 C1238 1.373 . S
C1237 C1239 1.389 . S
C1238 H1211 0.950 . S
C1238 C1224 1.377 . S
C1238 C1237 1.373 . S
C1239 C1223 1.377 . S
C1239 C1237 1.389 . S
C1239 C1240 1.524 . S
C1240 C1239 1.524 . S
C1240 C1241 1.397 . S
C1240 C1245 1.363 . S
C1241 H1212 0.950 . S
C1241 C1240 1.397 . S
C1241 C1242 1.334 . S
C1242 H1213 0.950 . S
C1242 C1241 1.334 . S
C1242 C1243 1.287 . S
C1243 C1242 1.287 . S
C1243 C1244 1.524 . S
C1243 H1246 0.999 . S
C1244 H1214 0.950 . S
C1244 C1243 1.524 . S
C1244 C1245 1.415 . S
C1245 H1215 0.950 . S
C1245 C1240 1.363 . S
C1245 C1244 1.415 . S
H1246 C1243 0.999 . S
H1247 C1228 0.913 . S
H1248 C1266 0.951 . S
H1249 C1268 0.951 . S
H1250 C1270 0.950 . S
H1251 C1271 0.950 . S
H1252 C1273 0.950 . S
H1253 C1276 0.950 . S
H1254 C1277 0.950 . S
H1255 C1279 0.950 . S
H1256 C1280 0.950 . S
H1257 C1281 0.951 . S
H1258 C1283 0.951 . S
H1259 C1285 0.950 . S
H1260 C1286 0.950 . S
H1261 C1288 0.950 . S
H1262 C1291 0.963 . S
H1263 C1292 0.950 . S
H1264 C1294 0.950 . S
H1265 C1295 0.950 . S
C1266 H1248 0.951 . S
C1266 C1267 1.366 . S
C1266 C1268 1.388 . S
C1267 C1266 1.366 . S
C1267 C1271 1.385 . S
C1268 H1249 0.951 . S
C1268 C1266 1.388 . S
C1268 C1269 1.366 . S
C1269 C1268 1.366 . S
C1269 C1270 1.414 . S
C1269 C1272 1.499 . S
C1270 H1250 0.950 . S
C1270 C1269 1.414 . S
C1270 C1271 1.374 . S
C1271 H1251 0.950 . S
C1271 C1267 1.385 . S
C1271 C1270 1.374 . S
C1272 C1269 1.499 . S
C1272 C1273 1.373 . S
C1272 C1274 1.389 . S
C1273 H1252 0.950 . S
C1273 C1272 1.373 . S
C1273 C1289 1.377 . S
C1274 C1272 1.389 . S
C1274 C1275 1.524 . S
C1274 C1288 1.377 . S
C1275 C1274 1.524 . S
C1275 C1276 1.397 . S
C1275 C1280 1.363 . S
C1276 H1253 0.950 . S
C1276 C1275 1.397 . S
C1276 C1277 1.334 . S
C1277 H1254 0.950 . S
C1277 C1276 1.334 . S
C1277 C1278 1.287 . S
C1278 C1277 1.287 . S
C1278 C1279 1.524 . S
C1278 H1297 0.913 . S
C1279 H1255 0.950 . S
C1279 C1278 1.524 . S
C1279 C1280 1.415 . S
C1280 H1256 0.950 . S
C1280 C1275 1.363 . S
C1280 C1279 1.415 . S
C1281 H1257 0.951 . S
C1281 C1282 1.366 . S
C1281 C1283 1.388 . S
C1282 C1281 1.366 . S
C1282 C1286 1.385 . S
C1283 H1258 0.951 . S
C1283 C1281 1.388 . S
C1283 C1284 1.366 . S
C1284 C1283 1.366 . S
C1284 C1285 1.414 . S
C1284 C1287 1.499 . S
C1285 H1259 0.950 . S
C1285 C1284 1.414 . S
C1285 C1286 1.374 . S
C1286 H1260 0.950 . S
C1286 C1282 1.385 . S
C1286 C1285 1.374 . S
C1287 C1284 1.499 . S
C1287 C1288 1.373 . S
C1287 C1289 1.389 . S
C1288 H1261 0.950 . S
C1288 C1274 1.377 . S
C1288 C1287 1.373 . S
C1289 C1273 1.377 . S
C1289 C1287 1.389 . S
C1289 C1290 1.524 . S
C1290 C1289 1.524 . S
C1290 C1291 1.397 . S
C1290 C1295 1.363 . S
C1291 H1262 0.963 . S
C1291 C1290 1.397 . S
C1291 C1292 1.334 1_655 S
C1292 H1263 0.950 . S
C1292 C1291 1.334 1_455 S
C1292 C1293 1.287 . S
C1293 C1292 1.287 . S
C1293 C1294 1.524 1_455 S
C1293 H1296 0.999 . S
C1294 H1264 0.950 . S
C1294 C1293 1.524 1_655 S
C1294 C1295 1.415 . S
C1295 H1265 0.950 . S
C1295 C1290 1.363 . S
C1295 C1294 1.415 . S
H1296 C1293 0.999 . S
H1297 C1278 0.913 . S
H1298 C1316 0.951 1_545 S
H1299 C1318 0.951 1_545 S
H1300 C1320 0.950 . S
H1301 C1321 0.950 . S
H1302 C1323 0.950 . S
H1303 C1326 0.950 . S
H1304 C1327 0.950 1_565 S
H1305 C1329 0.950 . S
H1306 C1330 0.950 . S
H1307 C1331 0.951 . S
H1308 C1333 0.951 . S
H1309 C1335 0.950 1_545 S
H1310 C1336 0.950 1_545 S
H1311 C1338 0.945 1_545 S
H1312 C1341 0.950 . S
H1313 C1342 0.950 . S
H1314 C1344 0.950 . S
H1315 C1345 0.950 . S
C1316 H1298 0.951 1_565 S
C1316 C1317 1.366 . S
C1316 C1318 1.388 . S
C1317 C1316 1.366 . S
C1317 C1321 1.385 . S
C1318 H1299 0.951 1_565 S
C1318 C1316 1.388 . S
C1318 C1319 1.366 . S
C1319 C1318 1.366 . S
C1319 C1320 1.414 . S
C1319 C1322 1.499 . S
C1320 H1300 0.950 . S
C1320 C1319 1.414 . S
C1320 C1321 1.374 . S
C1321 H1301 0.950 . S
C1321 C1317 1.385 . S
C1321 C1320 1.374 . S
C1322 C1319 1.499 . S
C1322 C1323 1.373 . S
C1322 C1324 1.389 . S
C1323 H1302 0.950 . S
C1323 C1322 1.373 . S
C1323 C1339 1.377 . S
C1324 C1322 1.389 . S
C1324 C1325 1.524 1_565 S
C1324 C1338 1.377 . S
C1325 C1324 1.524 1_545 S
C1325 C1326 1.397 1_545 S
C1325 C1330 1.363 . S
C1326 H1303 0.950 . S
C1326 C1325 1.397 1_565 S
C1326 C1327 1.334 1_565 S
C1327 H1304 0.950 1_545 S
C1327 C1326 1.334 1_545 S
C1327 C1328 1.287 . S
C1328 C1327 1.287 . S
C1328 C1329 1.524 . S
C1328 H1347 0.913 . S
C1329 H1305 0.950 . S
C1329 C1328 1.524 . S
C1329 C1330 1.415 . S
C1330 H1306 0.950 . S
C1330 C1325 1.363 . S
C1330 C1329 1.415 . S
C1331 H1307 0.951 . S
C1331 C1332 1.366 . S
C1331 C1333 1.388 . S
C1332 C1331 1.366 . S
C1332 C1336 1.385 . S
C1333 H1308 0.951 . S
C1333 C1331 1.388 . S
C1333 C1334 1.366 . S
C1334 C1333 1.366 . S
C1334 C1335 1.414 . S
C1334 C1337 1.499 . S
C1335 H1309 0.950 1_565 S
C1335 C1334 1.414 . S
C1335 C1336 1.374 . S
C1336 H1310 0.950 1_565 S
C1336 C1332 1.385 . S
C1336 C1335 1.374 . S
C1337 C1334 1.499 . S
C1337 C1338 1.373 . S
C1337 C1339 1.389 . S
C1338 H1311 0.945 1_565 S
C1338 C1324 1.377 . S
C1338 C1337 1.373 . S
C1339 C1323 1.377 . S
C1339 C1337 1.389 . S
C1339 C1340 1.524 . S
C1340 C1339 1.524 . S
C1340 C1341 1.397 . S
C1340 C1345 1.363 . S
C1341 H1312 0.950 . S
C1341 C1340 1.397 . S
C1341 C1342 1.334 . S
C1342 H1313 0.950 . S
C1342 C1341 1.334 . S
C1342 C1343 1.287 . S
C1343 C1342 1.287 . S
C1343 C1344 1.524 . S
C1343 H1346 0.999 . S
C1344 H1314 0.950 . S
C1344 C1343 1.524 . S
C1344 C1345 1.415 . S
C1345 H1315 0.950 . S
C1345 C1340 1.363 . S
C1345 C1344 1.415 . S
H1346 C1343 0.999 . S
H1347 C1328 0.913 . S
H1348 C1366 0.951 . S
H1349 C1368 0.951 . S
H1350 C1370 0.950 . S
H1351 C1371 0.950 . S
H1352 C1373 0.950 . S
H1353 C1376 0.950 . S
H1354 C1377 0.950 . S
H1355 C1379 0.950 . S
H1356 C1380 0.950 . S
H1357 C1381 0.951 . S
H1358 C1383 0.951 . S
H1359 C1385 0.950 . S
H1360 C1386 0.950 . S
H1361 C1388 0.950 . S
H1362 C1391 0.950 . S
H1363 C1392 0.950 . S
H1364 C1394 0.950 . S
H1365 C1395 0.950 . S
C1366 H1348 0.951 . S
C1366 C1367 1.366 . S
C1366 C1368 1.388 . S
C1367 C1366 1.366 . S
C1367 C1371 1.385 . S
C1368 H1349 0.951 . S
C1368 C1366 1.388 . S
C1368 C1369 1.366 . S
C1369 C1368 1.366 . S
C1369 C1370 1.414 . S
C1369 C1372 1.499 . S
C1370 H1350 0.950 . S
C1370 C1369 1.414 . S
C1370 C1371 1.374 . S
C1371 H1351 0.950 . S
C1371 C1367 1.385 . S
C1371 C1370 1.374 . S
C1372 C1369 1.499 . S
C1372 C1373 1.373 . S
C1372 C1374 1.389 . S
C1373 H1352 0.950 . S
C1373 C1372 1.373 . S
C1373 C1389 1.377 . S
C1374 C1372 1.389 . S
C1374 C1375 1.524 . S
C1374 C1388 1.377 . S
C1375 C1374 1.524 . S
C1375 C1376 1.397 . S
C1375 C1380 1.363 . S
C1376 H1353 0.950 . S
C1376 C1375 1.397 . S
C1376 C1377 1.334 . S
C1377 H1354 0.950 . S
C1377 C1376 1.334 . S
C1377 C1378 1.287 . S
C1378 C1377 1.287 . S
C1378 C1379 1.524 . S
C1378 H1397 0.913 . S
C1379 H1355 0.950 . S
C1379 C1378 1.524 . S
C1379 C1380 1.415 . S
C1380 H1356 0.950 . S
C1380 C1375 1.363 . S
C1380 C1379 1.415 . S
C1381 H1357 0.951 . S
C1381 C1382 1.366 . S
C1381 C1383 1.388 . S
C1382 C1381 1.366 . S
C1382 C1386 1.385 . S
C1383 H1358 0.951 . S
C1383 C1381 1.388 . S
C1383 C1384 1.366 . S
C1384 C1383 1.366 . S
C1384 C1385 1.414 . S
C1384 C1387 1.499 . S
C1385 H1359 0.950 . S
C1385 C1384 1.414 . S
C1385 C1386 1.374 . S
C1386 H1360 0.950 . S
C1386 C1382 1.385 . S
C1386 C1385 1.374 . S
C1387 C1384 1.499 . S
C1387 C1388 1.373 . S
C1387 C1389 1.389 . S
C1388 H1361 0.950 . S
C1388 C1374 1.377 . S
C1388 C1387 1.373 . S
C1389 C1373 1.377 . S
C1389 C1387 1.389 . S
C1389 C1390 1.524 . S
C1390 C1389 1.524 . S
C1390 C1391 1.397 . S
C1390 C1395 1.363 . S
C1391 H1362 0.950 . S
C1391 C1390 1.397 . S
C1391 C1392 1.334 . S
C1392 H1363 0.950 . S
C1392 C1391 1.334 . S
C1392 C1393 1.287 . S
C1393 C1392 1.287 . S
C1393 C1394 1.524 . S
C1393 H1396 0.999 . S
C1394 H1364 0.950 . S
C1394 C1393 1.524 . S
C1394 C1395 1.415 . S
C1395 H1365 0.950 . S
C1395 C1390 1.363 . S
C1395 C1394 1.415 . S
H1396 C1393 0.999 . S
H1397 C1378 0.913 . S
H1398 C1416 0.951 . S
H1399 C1418 0.951 . S
H1400 C1420 0.950 . S
H1401 C1421 0.950 . S
H1402 C1423 0.950 . S
H1403 C1426 0.950 . S
H1404 C1427 0.950 . S
H1405 C1429 0.950 . S
H1406 C1430 0.950 . S
H1407 C1431 0.951 . S
H1408 C1433 0.951 . S
H1409 C1435 0.950 . S
H1410 C1436 0.950 . S
H1411 C1438 0.950 . S
H1412 C1441 0.950 . S
H1413 C1442 0.950 . S
H1414 C1444 0.950 . S
H1415 C1445 0.950 . S
C1416 H1398 0.951 . S
C1416 C1417 1.366 . S
C1416 C1418 1.388 . S
C1417 C1416 1.366 . S
C1417 C1421 1.385 . S
C1418 H1399 0.951 . S
C1418 C1416 1.388 . S
C1418 C1419 1.366 . S
C1419 C1418 1.366 . S
C1419 C1420 1.414 . S
C1419 C1422 1.499 . S
C1420 H1400 0.950 . S
C1420 C1419 1.414 . S
C1420 C1421 1.374 . S
C1421 H1401 0.950 . S
C1421 C1417 1.385 . S
C1421 C1420 1.374 . S
C1422 C1419 1.499 . S
C1422 C1423 1.373 . S
C1422 C1424 1.389 . S
C1423 H1402 0.950 . S
C1423 C1422 1.373 . S
C1423 C1439 1.377 . S
C1424 C1422 1.389 . S
C1424 C1425 1.524 . S
C1424 C1438 1.377 . S
C1425 C1424 1.524 . S
C1425 C1426 1.397 . S
C1425 C1430 1.363 . S
C1426 H1403 0.950 . S
C1426 C1425 1.397 . S
C1426 C1427 1.334 . S
C1427 H1404 0.950 . S
C1427 C1426 1.334 . S
C1427 C1428 1.287 . S
C1428 C1427 1.287 . S
C1428 C1429 1.524 . S
C1428 H1447 0.913 . S
C1429 H1405 0.950 . S
C1429 C1428 1.524 . S
C1429 C1430 1.415 . S
C1430 H1406 0.950 . S
C1430 C1425 1.363 . S
C1430 C1429 1.415 . S
C1431 H1407 0.951 . S
C1431 C1432 1.366 . S
C1431 C1433 1.388 . S
C1432 C1431 1.366 . S
C1432 C1436 1.385 . S
C1433 H1408 0.951 . S
C1433 C1431 1.388 . S
C1433 C1434 1.366 . S
C1434 C1433 1.366 . S
C1434 C1435 1.414 . S
C1434 C1437 1.499 . S
C1435 H1409 0.950 . S
C1435 C1434 1.414 . S
C1435 C1436 1.374 . S
C1436 H1410 0.950 . S
C1436 C1432 1.385 . S
C1436 C1435 1.374 . S
C1437 C1434 1.499 . S
C1437 C1438 1.373 . S
C1437 C1439 1.389 . S
C1438 H1411 0.950 . S
C1438 C1424 1.377 . S
C1438 C1437 1.373 . S
C1439 C1423 1.377 . S
C1439 C1437 1.389 . S
C1439 C1440 1.524 . S
C1440 C1439 1.524 . S
C1440 C1441 1.397 . S
C1440 C1445 1.363 . S
C1441 H1412 0.950 . S
C1441 C1440 1.397 . S
C1441 C1442 1.334 . S
C1442 H1413 0.950 . S
C1442 C1441 1.334 . S
C1442 C1443 1.287 . S
C1443 C1442 1.287 . S
C1443 C1444 1.524 . S
C1443 H1446 0.999 . S
C1444 H1414 0.950 . S
C1444 C1443 1.524 . S
C1444 C1445 1.415 . S
C1445 H1415 0.950 . S
C1445 C1440 1.363 . S
C1445 C1444 1.415 . S
H1446 C1443 0.999 . S
H1447 C1428 0.913 . S
C267 C74 1.312 . S
C282 C97 1.269 . S
C332 C137 1.259 . S
C317 C85 1.323 . S
C382 C186 1.367 . S
C367 C52 1.375 . S
C432 C217 1.838 . S
C417 C63 1.917 . S
C482 C106 1.270 . S
C467 C30 1.294 . S
C517 C41 1.284 . S
C532 C146 1.259 . S
C567 C8 1.412 . S
C582 C177 1.368 . S
C617 C19 1.845 1_556 S
C632 C226 1.840 1_655 S
C682 C107 0.982 . S
C667 C62 0.980 . S
C732 C147 0.969 . S
C717 C73 0.949 . S
C782 C183 0.713 . S
C767 C84 0.713 . S
C817 C51 1.108 . S
C832 C227 1.148 . S
C867 C18 0.932 . S
C882 C98 0.983 . S
C932 C138 0.951 . S
C917 C29 0.928 . S
C982 C174 0.713 . S
C967 C40 0.719 . S
C1017 C7 1.142 . S
C1032 C218 1.148 . S
C1067 C60 1.559 . S
C1082 C103 1.742 . S
C1117 C71 1.238 . S
C1132 C143 1.444 . S
C1182 C187 1.962 . S
C1167 C82 1.661 . S
C1232 C223 1.389 . S
C1217 C49 1.102 . S
C1267 C16 1.369 . S
C1282 C94 1.742 . S
C1332 C134 1.442 . S
C1317 C27 1.246 . S
C1382 C178 1.962 . S
C1367 C38 1.490 . S
C1417 C5 1.273 . S
C1432 C214 1.390 . S
