# Generated by pormake.
# Topology anh, (6,3)-cn, num edge types: 1
# Building blocks:
#     Node 0, Type 0, BuildingBlock: CUKXOW_clean_sbu_0, # of connection points: 6
#     Node 1, Type 0, BuildingBlock: CUKXOW_clean_sbu_0, # of connection points: 6
#     Node 2, Type 0, BuildingBlock: CUKXOW_clean_sbu_0, # of connection points: 6
#     Node 3, Type 1, BuildingBlock: OLANEW_clean_sbu_2, # of connection points: 3
#     Node 4, Type 1, BuildingBlock: OLANEW_clean_sbu_2, # of connection points: 3
#     Node 5, Type 1, BuildingBlock: OLANEW_clean_sbu_2, # of connection points: 3
#     Node 6, Type 1, BuildingBlock: OLANEW_clean_sbu_2, # of connection points: 3
#     Node 7, Type 1, BuildingBlock: OLANEW_clean_sbu_2, # of connection points: 3
#     Node 8, Type 1, BuildingBlock: OLANEW_clean_sbu_2, # of connection points: 3
#     Edge 9, Type (0, 1), BuildingBlock: FUNLAD_clean_linker_0, # of connection points: 2
#     Edge 10, Type (0, 1), BuildingBlock: FUNLAD_clean_linker_0, # of connection points: 2
#     Edge 11, Type (0, 1), BuildingBlock: FUNLAD_clean_linker_0, # of connection points: 2
#     Edge 12, Type (0, 1), BuildingBlock: FUNLAD_clean_linker_0, # of connection points: 2
#     Edge 13, Type (0, 1), BuildingBlock: FUNLAD_clean_linker_0, # of connection points: 2
#     Edge 14, Type (0, 1), BuildingBlock: FUNLAD_clean_linker_0, # of connection points: 2
#     Edge 15, Type (0, 1), BuildingBlock: FUNLAD_clean_linker_0, # of connection points: 2
#     Edge 16, Type (0, 1), BuildingBlock: FUNLAD_clean_linker_0, # of connection points: 2
#     Edge 17, Type (0, 1), BuildingBlock: FUNLAD_clean_linker_0, # of connection points: 2
#     Edge 18, Type (0, 1), BuildingBlock: FUNLAD_clean_linker_0, # of connection points: 2
#     Edge 19, Type (0, 1), BuildingBlock: FUNLAD_clean_linker_0, # of connection points: 2
#     Edge 20, Type (0, 1), BuildingBlock: FUNLAD_clean_linker_0, # of connection points: 2
#     Edge 21, Type (0, 1), BuildingBlock: FUNLAD_clean_linker_0, # of connection points: 2
#     Edge 22, Type (0, 1), BuildingBlock: FUNLAD_clean_linker_0, # of connection points: 2
#     Edge 23, Type (0, 1), BuildingBlock: FUNLAD_clean_linker_0, # of connection points: 2
#     Edge 24, Type (0, 1), BuildingBlock: FUNLAD_clean_linker_0, # of connection points: 2
#     Edge 25, Type (0, 1), BuildingBlock: FUNLAD_clean_linker_0, # of connection points: 2
#     Edge 26, Type (0, 1), BuildingBlock: FUNLAD_clean_linker_0, # of connection points: 2
# Relax obj value: 0.078
# Max RMSD: 0.150
# Mean RMSD: 0.109
data_MOF--net-anh--node1-CUKXOW_clean_sbu_0--node2-OLANEW_clean_sbu_2--edge1-FUNLAD_clean_linker_0
_symmetry_space_group_name_H-M    P1
_symmetry_Int_Tables_number       1
_symmetry_cell_setting            triclinic
loop_
_symmetry_equiv_pos_as_xyz
'x, y, z'
_cell_length_a     37.864943
_cell_length_b     36.438026
_cell_length_c     57.970563
_cell_angle_alpha  95.238105
_cell_angle_beta   90.044157
_cell_angle_gamma 116.8342
loop_
_atom_site_label
_atom_site_type_symbol
_atom_site_fract_x
_atom_site_fract_y
_atom_site_fract_z
_atom_type_partial_charge
Tb0 Tb 0.0616 0.51348 0.16297 0.0
C1 C 0.02547 0.48056 0.20956 0.0
Tb2 Tb 0.98926 0.42777 0.16036 0.0
O3 O 0.02387 0.54196 0.17476 0.0
O4 O 0.00098 0.48738 0.15237 0.0
O5 O 0.05743 0.50697 0.19975 0.0
C6 C 0.916 0.36679 0.16232 0.0
O7 O 0.99475 0.44996 0.1974 0.0
C8 C 0.05795 0.42742 0.1586 0.0
C9 C 0.02908 0.459 0.11434 0.0
O10 O 0.92482 0.40431 0.15827 0.0
O11 O 0.94845 0.36357 0.16526 0.0
O12 O 0.02549 0.39741 0.14896 0.0
O13 O 0.04997 0.45344 0.17023 0.0
O14 O 0.99535 0.43473 0.12353 0.0
O15 O 0.05986 0.48828 0.127 0.0
C16 C 0.1311 0.57937 0.15913 0.0
O17 O 0.09681 0.57548 0.15243 0.0
O18 O 0.12632 0.54623 0.16816 0.0
C19 C 0.99216 0.51243 0.16424 0.0
Tb20 Tb 0.47221 0.01812 0.50394 0.0
C21 C 0.50578 0.05783 0.45787 0.0
Tb22 Tb 0.5558 0.09162 0.50641 0.0
O23 O 0.44563 0.05902 0.49822 0.0
O24 O 0.49915 0.08112 0.51745 0.0
O25 O 0.47853 0.02525 0.46708 0.0
C26 C 0.61459 0.16807 0.50575 0.0
O27 O 0.53671 0.08773 0.47017 0.0
C28 C 0.5532 0.0182 0.50075 0.0
C29 C 0.52472 0.04851 0.55093 0.0
O30 O 0.57724 0.15717 0.5023 0.0
O31 O 0.61907 0.13577 0.50946 0.0
O32 O 0.58358 0.05081 0.51037 0.0
O33 O 0.52878 0.02893 0.49284 0.0
O34 O 0.54641 0.08476 0.54299 0.0
O35 O 0.49823 0.01626 0.5374 0.0
C36 C 0.4085 0.94544 0.50598 0.0
O37 O 0.41791 0.97821 0.52037 0.0
O38 O 0.43483 0.9536 0.49039 0.0
C39 C 0.47521 0.09156 0.50847 0.0
Tb40 Tb 0.50929 0.52675 0.83914 0.0
C41 C 0.55228 0.53028 0.88602 0.0
Tb42 Tb 0.59401 0.53774 0.83745 0.0
O43 O 0.48851 0.46359 0.84854 0.0
O44 O 0.537 0.48983 0.82779 0.0
O45 O 0.52243 0.53397 0.87625 0.0
C46 C 0.65926 0.52738 0.83848 0.0
O47 O 0.58149 0.52852 0.87396 0.0
C48 C 0.58647 0.60557 0.83728 0.0
C49 C 0.55095 0.53337 0.79083 0.0
O50 O 0.65854 0.56275 0.83991 0.0
O51 O 0.62329 0.49788 0.8368 0.0
O52 O 0.61472 0.60021 0.8273 0.0
O53 O 0.56641 0.57515 0.84834 0.0
O54 O 0.57847 0.52606 0.80062 0.0
O55 O 0.5239 0.53929 0.80306 0.0
C56 C 0.44389 0.53646 0.83549 0.0
O57 O 0.44633 0.50258 0.82935 0.0
O58 O 0.4781 0.56468 0.84392 0.0
C59 C 0.51701 0.45886 0.83842 0.0
O60 O 0.49382 0.04459 0.23247 0.0
Cd61 Cd 0.4955 0.04277 0.19027 0.0
O62 O 0.5094 0.99335 0.23294 0.0
Cd63 Cd 0.49664 0.97355 0.19596 0.0
O64 O 0.45415 0.91905 0.17435 0.0
C65 C 0.4544 0.88505 0.17739 0.0
O66 O 0.48202 0.88565 0.19138 0.0
C67 C 0.50299 0.02155 0.24377 0.0
C68 C 0.56874 0.10328 0.17839 0.0
O69 O 0.53922 0.11121 0.18122 0.0
O70 O 0.56339 0.06652 0.18078 0.0
O71 O 0.56651 0.55237 0.56815 0.0
Cd72 Cd 0.56929 0.54389 0.52609 0.0
O73 O 0.53232 0.58793 0.57062 0.0
Cd74 Cd 0.53898 0.60451 0.53511 0.0
O75 O 0.54834 0.65807 0.51709 0.0
C76 C 0.5212 0.66949 0.51838 0.0
O77 O 0.48849 0.64668 0.52846 0.0
C78 C 0.54831 0.56876 0.58019 0.0
C79 C 0.55778 0.46284 0.51525 0.0
O80 O 0.59272 0.49287 0.51886 0.0
O81 O 0.52844 0.47139 0.5158 0.0
O82 O 0.06154 0.51757 0.89838 0.0
Cd83 Cd 0.05507 0.52968 0.85814 0.0
O84 O 0.0394 0.45025 0.89135 0.0
Cd85 Cd 0.01623 0.45187 0.85734 0.0
O86 O 0.9722 0.46837 0.84396 0.0
C87 C 0.96362 0.49055 0.85887 0.0
O88 O 0.9818 0.50098 0.87948 0.0
C89 C 0.05468 0.48297 0.90539 0.0
C90 C 0.12232 0.53489 0.83654 0.0
O91 O 0.12132 0.56724 0.84653 0.0
O92 O 0.0909 0.50032 0.83603 0.0
O93 O 0.03062 0.52524 0.43491 0.0
Cd94 Cd 0.03496 0.53974 0.47709 0.0
O95 O 0.00564 0.5686 0.43149 0.0
Cd96 Cd 0.98384 0.56035 0.46639 0.0
O97 O 0.93703 0.51506 0.48534 0.0
C98 C 0.90357 0.497 0.47433 0.0
O99 O 0.89999 0.50868 0.45403 0.0
C100 C 0.02062 0.54611 0.42227 0.0
C101 C 0.10033 0.61677 0.48744 0.0
O102 O 0.10332 0.58336 0.48879 0.0
O103 O 0.06622 0.61372 0.48207 0.0
O104 O 0.50502 0.96961 0.76844 0.0
Cd105 Cd 0.50002 0.96658 0.81034 0.0
O106 O 0.5486 0.03538 0.77134 0.0
Cd107 Cd 0.54089 0.05086 0.80765 0.0
O108 O 0.53304 0.10259 0.82479 0.0
C109 C 0.52373 0.12153 0.81043 0.0
O110 O 0.51899 0.10759 0.78835 0.0
C111 C 0.52877 0.00124 0.75899 0.0
C112 C 0.51009 0.89919 0.82241 0.0
O113 O 0.47552 0.8955 0.81759 0.0
O114 O 0.53977 0.93488 0.8219 0.0
O115 O 0.5984 0.54202 0.1068 0.0
Cd116 Cd 0.61655 0.55618 0.14825 0.0
O117 O 0.54757 0.5531 0.11513 0.0
Cd118 Cd 0.49138 0.55469 0.10925 0.0
O119 O 0.43148 0.54718 0.11383 0.0
C120 C 0.40562 0.51216 0.11888 0.0
O121 O 0.41597 0.48248 0.12026 0.0
C122 C 0.5678 0.54462 0.1 0.0
C123 C 0.68299 0.54524 0.15767 0.0
O124 O 0.64815 0.51659 0.16043 0.0
O125 O 0.68628 0.57896 0.15068 0.0
C126 C 0.13094 0.4625 0.16758 0.0
C127 C 0.09808 0.43262 0.15407 0.0
C128 C 0.16919 0.46875 0.16246 0.0
C129 C 0.17511 0.44486 0.1438 0.0
C130 C 0.14202 0.41403 0.13085 0.0
C131 C 0.10385 0.40808 0.13585 0.0
C132 C 0.21516 0.45037 0.13782 0.0
C133 C 0.24798 0.48681 0.1417 0.0
C134 C 0.28793 0.49232 0.13535 0.0
C135 C 0.31669 0.53155 0.13066 0.0
C136 C 0.35476 0.53795 0.12495 0.0
C137 C 0.36499 0.50528 0.12412 0.0
H138 H 0.27729 0.42928 0.13884 0.0
C139 C 0.3363 0.46608 0.12901 0.0
C140 C 0.29822 0.45965 0.13461 0.0
H141 H 0.34332 0.44033 0.12873 0.0
H142 H 0.12704 0.48082 0.1822 0.0
H143 H 0.19388 0.49175 0.17336 0.0
H144 H 0.14575 0.39489 0.11657 0.0
H145 H 0.07892 0.38465 0.12524 0.0
H146 H 0.21714 0.42403 0.12868 0.0
H147 H 0.24539 0.51415 0.14868 0.0
H148 H 0.30963 0.55732 0.13131 0.0
H149 H 0.37626 0.56861 0.12141 0.0
C150 C 0.68644 0.21862 0.50716 0.0
C151 C 0.64657 0.2103 0.5049 0.0
C152 C 0.71665 0.25844 0.50522 0.0
C153 C 0.70742 0.29077 0.50116 0.0
C154 C 0.66742 0.2823 0.49924 0.0
C155 C 0.6373 0.24254 0.50115 0.0
C156 C 0.73824 0.3327 0.49698 0.0
C157 C 0.77689 0.34802 0.50346 0.0
C158 C 0.80783 0.38816 0.49684 0.0
C159 C 0.84401 0.40835 0.50985 0.0
C160 C 0.87482 0.44452 0.50306 0.0
C161 C 0.87015 0.46099 0.48293 0.0
H162 H 0.77624 0.38998 0.46591 0.0
C163 C 0.83376 0.44115 0.47012 0.0
C164 C 0.80304 0.40512 0.4769 0.0
H165 H 0.82923 0.45282 0.45444 0.0
H166 H 0.69429 0.19417 0.50994 0.0
H167 H 0.74696 0.26321 0.50617 0.0
H168 H 0.65938 0.30644 0.49596 0.0
H169 H 0.60674 0.23694 0.49938 0.0
H170 H 0.72829 0.35174 0.48825 0.0
H171 H 0.7865 0.3309 0.51411 0.0
H172 H 0.84866 0.3958 0.52516 0.0
H173 H 0.90256 0.45895 0.51326 0.0
C174 C 0.55452 0.6501 0.85125 0.0
C175 C 0.57999 0.64239 0.83621 0.0
C176 C 0.54853 0.6851 0.84995 0.0
C177 C 0.56815 0.71312 0.8336 0.0
C178 C 0.59415 0.70559 0.81892 0.0
C179 C 0.5999 0.67055 0.82013 0.0
C180 C 0.56351 0.75119 0.83175 0.0
C181 C 0.53144 0.75559 0.83847 0.0
C182 C 0.52672 0.79324 0.83528 0.0
C183 C 0.48844 0.78971 0.83248 0.0
C184 C 0.48295 0.82416 0.82858 0.0
C185 C 0.5157 0.86308 0.82769 0.0
H186 H 0.58939 0.83677 0.83799 0.0
C187 C 0.55399 0.86692 0.83128 0.0
C188 C 0.55947 0.83245 0.83508 0.0
H189 H 0.57985 0.89653 0.83094 0.0
H190 H 0.53971 0.62946 0.86426 0.0
H191 H 0.52927 0.69045 0.8621 0.0
H192 H 0.60992 0.72677 0.80631 0.0
H193 H 0.61989 0.66546 0.80841 0.0
H194 H 0.58656 0.77556 0.82317 0.0
H195 H 0.50655 0.72985 0.84501 0.0
H196 H 0.46268 0.76 0.83282 0.0
H197 H 0.45304 0.82017 0.82603 0.0
C198 C 0.94322 0.53496 0.18031 0.0
C199 C 0.95325 0.51211 0.16309 0.0
C200 C 0.90698 0.53626 0.17857 0.0
C201 C 0.8806 0.51528 0.15934 0.0
C202 C 0.89065 0.49233 0.14222 0.0
C203 C 0.92644 0.49027 0.14423 0.0
C204 C 0.84399 0.51955 0.15585 0.0
C205 C 0.82144 0.52145 0.17336 0.0
C206 C 0.78604 0.52769 0.16935 0.0
C207 C 0.75124 0.50518 0.18071 0.0
C208 C 0.71745 0.5105 0.17676 0.0
C209 C 0.71844 0.5394 0.16197 0.0
H210 H 0.81381 0.57503 0.146 0.0
C211 C 0.75365 0.56269 0.15111 0.0
C212 C 0.78704 0.55665 0.15461 0.0
H213 H 0.75526 0.58521 0.13964 0.0
H214 H 0.96353 0.55208 0.19499 0.0
H215 H 0.90031 0.55488 0.19181 0.0
H216 H 0.87088 0.4762 0.12718 0.0
H217 H 0.93367 0.47261 0.13066 0.0
H218 H 0.83472 0.51997 0.13816 0.0
H219 H 0.82811 0.51674 0.19076 0.0
H220 H 0.75 0.48296 0.19229 0.0
H221 H 0.69073 0.49234 0.18547 0.0
C222 C 0.35997 0.87614 0.48749 0.0
C223 C 0.37326 0.90546 0.50701 0.0
C224 C 0.32588 0.83863 0.48823 0.0
C225 C 0.30495 0.82956 0.50867 0.0
C226 C 0.31896 0.85839 0.52838 0.0
C227 C 0.35253 0.89634 0.52747 0.0
C228 C 0.26882 0.78993 0.50981 0.0
C229 C 0.24125 0.77336 0.49224 0.0
C230 C 0.20472 0.73393 0.4929 0.0
C231 C 0.16977 0.72902 0.48173 0.0
C232 C 0.13541 0.6914 0.48081 0.0
C233 C 0.13564 0.65754 0.49051 0.0
H234 H 0.23151 0.70307 0.51154 0.0
C235 C 0.17058 0.66247 0.50182 0.0
C236 C 0.20476 0.70044 0.50318 0.0
H237 H 0.17165 0.63685 0.50937 0.0
H238 H 0.37561 0.88242 0.47155 0.0
H239 H 0.31619 0.81655 0.47291 0.0
H240 H 0.30347 0.85188 0.54436 0.0
H241 H 0.36243 0.9184 0.5428 0.0
H242 H 0.26372 0.77551 0.5259 0.0
H243 H 0.24463 0.79027 0.47721 0.0
H244 H 0.16912 0.75431 0.47356 0.0
H245 H 0.10904 0.68844 0.4718 0.0
C246 C 0.49866 0.38766 0.84916 0.0
C247 C 0.5208 0.42015 0.83586 0.0
C248 C 0.50107 0.35029 0.84585 0.0
C249 C 0.52573 0.34487 0.82911 0.0
C250 C 0.54802 0.37765 0.81602 0.0
C251 C 0.54567 0.41489 0.81937 0.0
C252 C 0.52708 0.30488 0.82351 0.0
C253 C 0.51637 0.27484 0.83785 0.0
C254 C 0.51705 0.23486 0.83084 0.0
C255 C 0.52464 0.21354 0.84763 0.0
C256 C 0.52645 0.1764 0.8412 0.0
C257 C 0.52016 0.15968 0.81785 0.0
H258 H 0.5021 0.23203 0.7943 0.0
C259 C 0.51123 0.18038 0.80122 0.0
C260 C 0.50957 0.21739 0.80762 0.0
H261 H 0.50572 0.16817 0.78312 0.0
H262 H 0.47908 0.39092 0.8619 0.0
H263 H 0.48267 0.3255 0.8559 0.0
H264 H 0.56699 0.37429 0.80288 0.0
H265 H 0.56269 0.43921 0.80865 0.0
H266 H 0.53852 0.30056 0.80684 0.0
H267 H 0.50856 0.2801 0.85542 0.0
H268 H 0.52996 0.22604 0.86569 0.0
H269 H 0.53315 0.16107 0.85446 0.0
C270 C 0.57342 0.96549 0.51188 0.0
C271 C 0.54812 0.97548 0.49904 0.0
C272 C 0.56739 0.92454 0.51096 0.0
C273 C 0.53598 0.89288 0.49705 0.0
C274 C 0.51104 0.90318 0.48405 0.0
C275 C 0.51726 0.9441 0.48487 0.0
C276 C 0.52667 0.84861 0.49687 0.0
C277 C 0.55374 0.83572 0.5019 0.0
C278 C 0.54355 0.79162 0.50375 0.0
C279 C 0.5734 0.77891 0.50139 0.0
C280 C 0.56578 0.73864 0.5051 0.0
C281 C 0.52818 0.71035 0.51156 0.0
H282 H 0.48199 0.7716 0.5122 0.0
C283 C 0.49802 0.72273 0.51336 0.0
C284 C 0.50559 0.76288 0.50957 0.0
H285 H 0.46877 0.70178 0.51842 0.0
H286 H 0.59734 0.98916 0.52302 0.0
H287 H 0.5866 0.91776 0.52174 0.0
H288 H 0.48657 0.87946 0.47326 0.0
H289 H 0.49786 0.95115 0.47442 0.0
H290 H 0.4964 0.82593 0.49196 0.0
H291 H 0.58473 0.85813 0.50458 0.0
H292 H 0.60296 0.80044 0.49707 0.0
H293 H 0.58973 0.73017 0.50366 0.0
C294 C 0.73265 0.55592 0.83827 0.0
C295 C 0.69522 0.52159 0.8376 0.0
C296 C 0.76684 0.55049 0.83708 0.0
C297 C 0.76414 0.5105 0.83543 0.0
C298 C 0.72654 0.4762 0.83431 0.0
C299 C 0.69236 0.48167 0.83547 0.0
C300 C 0.79974 0.50335 0.83494 0.0
C301 C 0.83512 0.53116 0.84472 0.0
C302 C 0.8693 0.52208 0.84684 0.0
C303 C 0.89631 0.5415 0.86585 0.0
C304 C 0.92738 0.53177 0.86945 0.0
C305 C 0.93245 0.50283 0.85387 0.0
H306 H 0.85563 0.47973 0.81544 0.0
C307 C 0.90656 0.48478 0.8342 0.0
C308 C 0.87518 0.49427 0.83071 0.0
H309 H 0.90998 0.46265 0.82178 0.0
H310 H 0.73553 0.58701 0.83956 0.0
H311 H 0.79514 0.57767 0.83719 0.0
H312 H 0.72361 0.44508 0.83285 0.0
H313 H 0.66373 0.45467 0.83471 0.0
H314 H 0.79567 0.47285 0.82812 0.0
H315 H 0.83823 0.5601 0.85359 0.0
H316 H 0.89269 0.56338 0.87838 0.0
H317 H 0.94711 0.54657 0.88464 0.0
C318 C 0.20494 0.61655 0.16415 0.0
C319 C 0.16924 0.61601 0.1571 0.0
C320 C 0.24097 0.65192 0.16287 0.0
C321 C 0.24187 0.6874 0.15442 0.0
C322 C 0.20603 0.6865 0.14727 0.0
C323 C 0.17011 0.65112 0.14847 0.0
C324 C 0.27893 0.7268 0.15443 0.0
C325 C 0.31555 0.72928 0.15439 0.0
C326 C 0.3523 0.76926 0.15742 0.0
C327 C 0.38638 0.77018 0.16757 0.0
C328 C 0.42023 0.80768 0.17311 0.0
C329 C 0.42087 0.84513 0.16839 0.0
H330 H 0.32877 0.80693 0.14259 0.0
C331 C 0.38773 0.84401 0.1568 0.0
C332 C 0.3538 0.80647 0.15131 0.0
H333 H 0.38745 0.87225 0.15263 0.0
H334 H 0.20499 0.58985 0.17096 0.0
H335 H 0.26768 0.65161 0.16922 0.0
H336 H 0.20577 0.71343 0.14089 0.0
H337 H 0.14294 0.6515 0.14294 0.0
H338 H 0.27552 0.75489 0.15516 0.0
H339 H 0.31902 0.70123 0.15371 0.0
H340 H 0.38628 0.74196 0.17215 0.0
H341 H 0.4454 0.80737 0.18182 0.0
C342 C 0.5097 0.16667 0.52298 0.0
C343 C 0.48119 0.13436 0.50802 0.0
C344 C 0.51632 0.20745 0.52183 0.0
C345 C 0.49432 0.2166 0.5057 0.0
C346 C 0.46504 0.18396 0.49124 0.0
C347 C 0.4586 0.14327 0.49233 0.0
C348 C 0.49976 0.25935 0.50412 0.0
C349 C 0.53369 0.29357 0.51076 0.0
C350 C 0.53881 0.33646 0.51005 0.0
C351 C 0.57737 0.36923 0.5111 0.0
C352 C 0.58359 0.41022 0.51203 0.0
C353 C 0.55131 0.4194 0.51204 0.0
H354 H 0.47627 0.3217 0.50957 0.0
C355 C 0.51271 0.38665 0.51056 0.0
C356 C 0.50647 0.34569 0.5097 0.0
H357 H 0.48718 0.39266 0.51075 0.0
H358 H 0.52691 0.16042 0.53559 0.0
H359 H 0.53816 0.23145 0.53387 0.0
H360 H 0.4473 0.18999 0.47888 0.0
H361 H 0.43625 0.11884 0.48068 0.0
H362 H 0.47523 0.26233 0.49635 0.0
H363 H 0.55934 0.2903 0.51649 0.0
H364 H 0.60285 0.36316 0.51153 0.0
H365 H 0.61373 0.43472 0.51324 0.0
C366 C 0.37269 0.50938 0.82343 0.0
C367 C 0.40815 0.54222 0.83291 0.0
C368 C 0.33853 0.51458 0.82129 0.0
C369 C 0.33933 0.55295 0.8285 0.0
C370 C 0.37499 0.58576 0.83791 0.0
C371 C 0.40915 0.58054 0.84001 0.0
C372 C 0.3031 0.55899 0.82822 0.0
C373 C 0.27049 0.53509 0.81451 0.0
C374 C 0.23258 0.53739 0.81728 0.0
C375 C 0.19693 0.50113 0.81244 0.0
C376 C 0.16077 0.50069 0.81771 0.0
C377 C 0.15959 0.53672 0.82768 0.0
H378 H 0.25796 0.60306 0.82882 0.0
C379 C 0.19502 0.57375 0.83094 0.0
C380 C 0.23119 0.57413 0.82575 0.0
H381 H 0.19504 0.60218 0.83828 0.0
H382 H 0.37118 0.47946 0.81794 0.0
H383 H 0.31147 0.48804 0.81469 0.0
H384 H 0.37636 0.61549 0.84382 0.0
H385 H 0.43623 0.60638 0.84737 0.0
H386 H 0.30306 0.58323 0.84058 0.0
H387 H 0.27025 0.5107 0.80219 0.0
H388 H 0.19716 0.47255 0.80561 0.0
H389 H 0.13394 0.47174 0.81477 0.0
C390 C 0.84259 0.34069 0.16094 0.0
C391 C 0.87556 0.33328 0.1637 0.0
C392 C 0.80422 0.30906 0.1626 0.0
C393 C 0.79811 0.2692 0.16692 0.0
C394 C 0.83132 0.2621 0.16974 0.0
C395 C 0.86962 0.29374 0.16809 0.0
C396 C 0.75807 0.2346 0.1695 0.0
C397 C 0.72383 0.23367 0.16215 0.0
C398 C 0.68419 0.19923 0.16562 0.0
C399 C 0.65131 0.20735 0.16674 0.0
C400 C 0.61373 0.17614 0.17062 0.0
C401 C 0.60814 0.13591 0.17321 0.0
H402 H 0.7026 0.15069 0.16595 0.0
C403 C 0.64079 0.12743 0.17138 0.0
C404 C 0.67838 0.15867 0.16757 0.0
H405 H 0.63742 0.09666 0.17305 0.0
H406 H 0.84645 0.37108 0.15772 0.0
H407 H 0.77981 0.31649 0.16097 0.0
H408 H 0.82764 0.2319 0.17324 0.0
H409 H 0.89458 0.28726 0.17036 0.0
H410 H 0.75708 0.20882 0.17798 0.0
H411 H 0.7243 0.25941 0.15391 0.0
H412 H 0.65481 0.23818 0.16503 0.0
H413 H 0.58916 0.18367 0.1718 0.0
C414 C 0.06977 0.47502 0.07931 0.0
C415 C 0.03281 0.45384 0.08901 0.0
C416 C 0.07331 0.47167 0.05534 0.0
C417 C 0.0398 0.44737 0.0405 0.0
C418 C 0.00318 0.42498 0.05025 0.0
C419 C -0.00035 0.42821 0.07426 0.0
C420 C 0.04177 0.4452 0.01485 0.0
C421 C 0.06905 0.47594 0.00383 0.0
C422 C 0.06794 0.47651 0.97829 0.0
C423 C 0.0837 0.51486 0.96921 0.0
C424 C 0.08047 0.51694 0.94543 0.0
C425 C 0.06181 0.48061 0.93018 0.0
H426 H 0.03974 0.40996 0.96924 0.0
C427 C 0.04792 0.44215 0.93911 0.0
C428 C 0.05095 0.44008 0.96294 0.0
H429 H 0.03374 0.41358 0.92779 0.0
H430 H 0.09611 0.49438 0.0902 0.0
H431 H 0.10236 0.48812 0.04861 0.0
H432 H 0.97698 0.40567 0.03922 0.0
H433 H 0.97081 0.41123 0.08118 0.0
H434 H 0.01781 0.41925 0.00483 0.0
H435 H 0.09071 0.50374 0.01386 0.0
H436 H 0.09739 0.54339 0.98062 0.0
H437 H 0.09184 0.54709 0.93911 0.0
C438 C 0.47716 0.0248 0.41799 0.0
C439 C 0.50335 0.05964 0.43256 0.0
C440 C 0.47683 0.02569 0.39395 0.0
C441 C 0.50267 0.06151 0.38398 0.0
C442 C 0.52757 0.09684 0.39857 0.0
C443 C 0.52817 0.09587 0.4226 0.0
C444 C 0.50438 0.06284 0.35847 0.0
C445 C 0.49808 0.02941 0.34379 0.0
C446 C 0.50126 0.0299 0.31829 0.0
C447 C 0.50875 0.99949 0.30583 0.0
C448 C 0.51038 0.99755 0.28173 0.0
C449 C 0.50406 0.02575 0.26944 0.0
H450 H 0.48858 0.0818 0.31498 0.0
C451 C 0.49683 0.05647 0.28189 0.0
C452 C 0.4954 0.05853 0.30607 0.0
H453 H 0.49157 0.07849 0.27294 0.0
H454 H 0.4574 0.99651 0.42508 0.0
H455 H 0.45628 0.9983 0.38324 0.0
H456 H 0.54739 0.12497 0.39133 0.0
H457 H 0.54839 0.12343 0.43334 0.0
H458 H 0.51398 0.09269 0.35192 0.0
H459 H 0.49239 1.0007 0.35082 0.0
H460 H 0.5132 0.97695 0.31478 0.0
H461 H 0.51587 0.97338 0.27272 0.0
C462 C 0.52476 0.54644 0.75431 0.0
C463 C 0.5498 0.5337 0.76535 0.0
C464 C 0.52402 0.5468 0.73021 0.0
C465 C 0.54838 0.53438 0.71669 0.0
C466 C 0.57283 0.52101 0.72772 0.0
C467 C 0.57378 0.52093 0.75177 0.0
C468 C 0.54864 0.53399 0.69107 0.0
C469 C 0.54012 0.55961 0.67947 0.0
C470 C 0.54218 0.56067 0.65389 0.0
C471 C 0.52212 0.57896 0.64278 0.0
C472 C 0.52389 0.58142 0.61886 0.0
C473 C 0.54597 0.56576 0.60549 0.0
H474 H 0.58178 0.53235 0.64833 0.0
C475 C 0.56628 0.54768 0.6166 0.0
C476 C 0.56464 0.54536 0.64051 0.0
H477 H 0.58393 0.53572 0.60687 0.0
H478 H 0.50572 0.55621 0.76426 0.0
H479 H 0.50389 0.55612 0.72228 0.0
H480 H 0.59163 0.51096 0.71771 0.0
H481 H 0.59321 0.51062 0.75966 0.0
H482 H 0.55748 0.51253 0.68173 0.0
H483 H 0.53135 0.58103 0.68898 0.0
H484 H 0.50491 0.59135 0.65264 0.0
H485 H 0.50796 0.59567 0.61088 0.0
C486 C 0.50739 0.0062 0.58479 0.0
C487 C 0.52965 0.04411 0.57572 0.0
C488 C 0.51131 0.00244 0.60834 0.0
C489 C 0.53779 0.03658 0.62334 0.0
C490 C 0.5601 0.07432 0.61419 0.0
C491 C 0.55623 0.07805 0.59067 0.0
C492 C 0.54165 0.03511 0.64874 0.0
C493 C 0.53026 1.00005 0.6591 0.0
C494 C 0.53255 0.99984 0.68471 0.0
C495 C 0.50604 0.96466 0.69485 0.0
C496 C 0.5055 0.96446 0.71897 0.0
C497 C 0.53171 0.99946 0.73346 0.0
H498 H 0.58229 0.06104 0.69212 0.0
C499 C 0.55956 0.03387 0.72327 0.0
C500 C 0.56016 0.03401 0.6992 0.0
H501 H 0.58064 0.0611 0.7339 0.0
H502 H 0.48649 0.97944 0.57378 0.0
H503 H 0.49272 0.97306 0.61468 0.0
H504 H 0.58054 0.10121 0.62532 0.0
H505 H 0.57385 0.10775 0.58432 0.0
H506 H 0.55411 0.06465 0.65932 0.0
H507 H 0.51726 0.97029 0.64877 0.0
H508 H 0.48484 0.93769 0.6841 0.0
H509 H 0.48383 0.93733 0.72625 0.0
C510 C 0.52196 0.5269 0.92481 0.0
C511 C 0.55347 0.52841 0.91143 0.0
C512 C 0.52311 0.52481 0.94877 0.0
C513 C 0.55607 0.52458 0.95994 0.0
C514 C 0.58728 0.52567 0.94647 0.0
C515 C 0.58607 0.52762 0.92256 0.0
C516 C 0.5592 0.52263 0.98538 0.0
C517 C 0.53696 0.53127 0.00103 0.0
C518 C 0.5428 0.5319 0.0265 0.0
C519 C 0.53119 0.55643 0.04163 0.0
C520 C 0.5383 0.5598 0.0656 0.0
C521 C 0.5568 0.5383 0.07496 0.0
H522 H 0.5681 0.4887 0.02509 0.0
C523 C 0.56729 0.51272 0.05994 0.0
C524 C 0.56006 0.5092 0.036 0.0
H525 H 0.58133 0.49553 0.06671 0.0
H526 H 0.49617 0.52698 0.91678 0.0
H527 H 0.49785 0.52281 0.95825 0.0
H528 H 0.61294 0.52526 0.95449 0.0
H529 H 0.61084 0.52858 0.91284 0.0
H530 H 0.58267 0.51608 0.99147 0.0
H531 H 0.51567 0.54124 0.99536 0.0
H532 H 0.51771 0.57412 0.03484 0.0
H533 H 0.53087 0.58065 0.07662 0.0
C534 C 0.05264 0.52063 0.24828 0.0
C535 C 0.02436 0.48498 0.23514 0.0
C536 C 0.05175 0.52491 0.27243 0.0
C537 C 0.02256 0.49353 0.28398 0.0
C538 C 0.99468 0.45767 0.2709 0.0
C539 C 0.99531 0.45355 0.24672 0.0
C540 C 0.02117 0.49677 0.30962 0.0
C541 C 0.03319 0.53313 0.32275 0.0
C542 C 0.03074 0.53619 0.34833 0.0
C543 C 0.02427 0.56827 0.35951 0.0
C544 C 0.02113 0.57162 0.38354 0.0
C545 C 0.0252 0.54336 0.39693 0.0
H546 H 0.04167 0.48391 0.35373 0.0
C547 C 0.03287 0.51195 0.38581 0.0
C548 C 0.0355 0.5083 0.36174 0.0
H549 H 0.03635 0.48981 0.39565 0.0
H550 H 0.07554 0.54538 0.23993 0.0
H551 H 0.07441 0.55248 0.28198 0.0
H552 H 0.9721 0.4329 0.27941 0.0
H553 H 0.97323 0.42556 0.23714 0.0
H554 H 0.00772 0.46813 0.31775 0.0
H555 H 0.04278 0.56145 0.31446 0.0
H556 H 0.02094 0.59041 0.34958 0.0
H557 H 0.0155 0.59636 0.3916 0.0
loop_
_geom_bond_atom_site_label_1
_geom_bond_atom_site_label_2
_geom_bond_distance
_geom_bond_site_symmetry_2
_ccdc_geom_bond_type
Tb0 O3 2.453 1_455 S
Tb0 O4 2.596 1_455 S
Tb0 O5 2.374 . S
Tb0 O13 2.343 . S
Tb0 O15 2.353 . S
Tb0 O17 2.427 . S
Tb0 O18 2.513 . S
C1 O5 1.251 . S
C1 O7 1.263 . S
Tb2 O4 2.343 1_455 S
Tb2 O7 2.353 . S
Tb2 O10 2.427 1_455 S
Tb2 O11 2.513 1_455 S
Tb2 O12 2.453 . S
Tb2 O13 2.596 . S
Tb2 O14 2.374 . S
O3 Tb0 2.453 1_655 S
O3 C19 1.245 . S
O4 Tb0 2.596 1_655 S
O4 Tb2 2.343 1_655 S
O4 C19 1.259 . S
O5 Tb0 2.374 . S
O5 C1 1.251 . S
C6 O10 1.275 . S
C6 O11 1.246 . S
O7 C1 1.263 . S
O7 Tb2 2.353 . S
C8 O12 1.245 . S
C8 O13 1.259 . S
C9 O14 1.250 . S
C9 O15 1.263 . S
O10 Tb2 2.427 1_655 S
O10 C6 1.275 . S
O11 Tb2 2.513 1_655 S
O11 C6 1.246 . S
O12 Tb2 2.453 . S
O12 C8 1.245 . S
O13 Tb0 2.343 . S
O13 Tb2 2.596 . S
O13 C8 1.259 . S
O14 Tb2 2.374 . S
O14 C9 1.250 . S
O15 Tb0 2.353 . S
O15 C9 1.263 . S
C16 O17 1.275 . S
C16 O18 1.246 . S
O17 Tb0 2.427 . S
O17 C16 1.275 . S
O18 Tb0 2.513 . S
O18 C16 1.246 . S
C19 O3 1.245 . S
C19 O4 1.259 . S
Tb20 O23 2.453 . S
Tb20 O24 2.596 . S
Tb20 O25 2.374 . S
Tb20 O33 2.343 1_545 S
Tb20 O35 2.353 . S
Tb20 O37 2.427 1_545 S
Tb20 O38 2.513 1_545 S
C21 O25 1.251 . S
C21 O27 1.263 . S
Tb22 O24 2.343 . S
Tb22 O27 2.353 . S
Tb22 O30 2.427 . S
Tb22 O31 2.513 . S
Tb22 O32 2.453 1_545 S
Tb22 O33 2.596 1_545 S
Tb22 O34 2.374 . S
O23 Tb20 2.453 . S
O23 C39 1.245 . S
O24 Tb20 2.596 . S
O24 Tb22 2.343 . S
O24 C39 1.259 . S
O25 Tb20 2.374 . S
O25 C21 1.251 . S
C26 O30 1.275 . S
C26 O31 1.246 . S
O27 C21 1.263 . S
O27 Tb22 2.353 . S
C28 O32 1.245 . S
C28 O33 1.259 . S
C29 O34 1.250 . S
C29 O35 1.263 . S
O30 Tb22 2.427 . S
O30 C26 1.275 . S
O31 Tb22 2.513 . S
O31 C26 1.246 . S
O32 Tb22 2.453 1_565 S
O32 C28 1.245 . S
O33 Tb20 2.343 1_565 S
O33 Tb22 2.596 1_565 S
O33 C28 1.259 . S
O34 Tb22 2.374 . S
O34 C29 1.250 . S
O35 Tb20 2.353 . S
O35 C29 1.263 . S
C36 O37 1.275 . S
C36 O38 1.246 . S
O37 Tb20 2.427 1_565 S
O37 C36 1.275 . S
O38 Tb20 2.513 1_565 S
O38 C36 1.246 . S
C39 O23 1.245 . S
C39 O24 1.259 . S
Tb40 O43 2.453 . S
Tb40 O44 2.596 . S
Tb40 O45 2.374 . S
Tb40 O53 2.343 . S
Tb40 O55 2.353 . S
Tb40 O57 2.427 . S
Tb40 O58 2.513 . S
C41 O45 1.251 . S
C41 O47 1.263 . S
Tb42 O44 2.343 . S
Tb42 O47 2.353 . S
Tb42 O50 2.427 . S
Tb42 O51 2.513 . S
Tb42 O52 2.453 . S
Tb42 O53 2.596 . S
Tb42 O54 2.374 . S
O43 Tb40 2.453 . S
O43 C59 1.245 . S
O44 Tb40 2.596 . S
O44 Tb42 2.343 . S
O44 C59 1.259 . S
O45 Tb40 2.374 . S
O45 C41 1.251 . S
C46 O50 1.275 . S
C46 O51 1.246 . S
O47 C41 1.263 . S
O47 Tb42 2.353 . S
C48 O52 1.245 . S
C48 O53 1.259 . S
C49 O54 1.250 . S
C49 O55 1.263 . S
O50 Tb42 2.427 . S
O50 C46 1.275 . S
O51 Tb42 2.513 . S
O51 C46 1.246 . S
O52 Tb42 2.453 . S
O52 C48 1.245 . S
O53 Tb40 2.343 . S
O53 Tb42 2.596 . S
O53 C48 1.259 . S
O54 Tb42 2.374 . S
O54 C49 1.250 . S
O55 Tb40 2.353 . S
O55 C49 1.263 . S
C56 O57 1.275 . S
C56 O58 1.246 . S
O57 Tb40 2.427 . S
O57 C56 1.275 . S
O58 Tb40 2.513 . S
O58 C56 1.246 . S
C59 O43 1.245 . S
C59 O44 1.259 . S
O60 Cd61 2.300 . S
O60 C67 1.275 . S
Cd61 O60 2.300 . S
Cd61 O69 2.381 . S
Cd61 O70 2.378 . S
O62 Cd63 2.385 1_545 S
O62 C67 1.255 . S
Cd63 O62 2.385 1_565 S
Cd63 O64 2.317 . S
O64 Cd63 2.317 . S
O64 C65 1.232 . S
C65 O64 1.232 . S
C65 O66 1.218 . S
O66 C65 1.218 . S
C67 O60 1.275 . S
C67 O62 1.255 . S
C68 O69 1.258 . S
C68 O70 1.256 . S
O69 Cd61 2.381 . S
O69 C68 1.258 . S
O70 Cd61 2.378 . S
O70 C68 1.256 . S
O71 Cd72 2.300 . S
O71 C78 1.275 . S
Cd72 O71 2.300 . S
Cd72 O80 2.381 . S
Cd72 O81 2.378 . S
O73 Cd74 2.385 . S
O73 C78 1.255 . S
Cd74 O73 2.385 . S
Cd74 O75 2.317 . S
O75 Cd74 2.317 . S
O75 C76 1.232 . S
C76 O75 1.232 . S
C76 O77 1.218 . S
O77 C76 1.218 . S
C78 O71 1.275 . S
C78 O73 1.255 . S
C79 O80 1.258 . S
C79 O81 1.256 . S
O80 Cd72 2.381 . S
O80 C79 1.258 . S
O81 Cd72 2.378 . S
O81 C79 1.256 . S
O82 Cd83 2.300 . S
O82 C89 1.275 . S
Cd83 O82 2.300 . S
Cd83 O91 2.381 . S
Cd83 O92 2.378 . S
O84 Cd85 2.385 1_455 S
O84 C89 1.255 . S
Cd85 O84 2.385 1_655 S
Cd85 O86 2.317 . S
O86 Cd85 2.317 . S
O86 C87 1.232 . S
C87 O86 1.232 . S
C87 O88 1.218 . S
O88 C87 1.218 . S
C89 O82 1.275 . S
C89 O84 1.255 . S
C90 O91 1.258 . S
C90 O92 1.256 . S
O91 Cd83 2.381 . S
O91 C90 1.258 . S
O92 Cd83 2.378 . S
O92 C90 1.256 . S
O93 Cd94 2.300 . S
O93 C100 1.275 1_455 S
Cd94 O93 2.300 . S
Cd94 O102 2.381 . S
Cd94 O103 2.378 . S
O95 Cd96 2.385 . S
O95 C100 1.255 . S
Cd96 O95 2.385 . S
Cd96 O97 2.317 . S
O97 Cd96 2.317 . S
O97 C98 1.232 . S
C98 O97 1.232 . S
C98 O99 1.218 . S
O99 C98 1.218 . S
C100 O93 1.275 1_655 S
C100 O95 1.255 . S
C101 O102 1.258 . S
C101 O103 1.256 . S
O102 Cd94 2.381 . S
O102 C101 1.258 . S
O103 Cd94 2.378 . S
O103 C101 1.256 . S
O104 Cd105 2.300 . S
O104 C111 1.275 1_565 S
Cd105 O104 2.300 . S
Cd105 O113 2.381 . S
Cd105 O114 2.378 . S
O106 Cd107 2.385 . S
O106 C111 1.255 . S
Cd107 O106 2.385 . S
Cd107 O108 2.317 . S
O108 Cd107 2.317 . S
O108 C109 1.232 . S
C109 O108 1.232 . S
C109 O110 1.218 . S
O110 C109 1.218 . S
C111 O104 1.275 1_545 S
C111 O106 1.255 . S
C112 O113 1.258 . S
C112 O114 1.256 . S
O113 Cd105 2.381 . S
O113 C112 1.258 . S
O114 Cd105 2.378 . S
O114 C112 1.256 . S
O115 Cd116 2.300 . S
O115 C122 1.275 . S
Cd116 O115 2.300 . S
Cd116 O124 2.381 . S
Cd116 O125 2.378 . S
O117 Cd118 2.385 . S
O117 C122 1.255 . S
Cd118 O117 2.385 . S
Cd118 O119 2.317 . S
O119 Cd118 2.317 . S
O119 C120 1.232 . S
C120 O119 1.232 . S
C120 O121 1.218 . S
O121 C120 1.218 . S
C122 O115 1.275 . S
C122 O117 1.255 . S
C123 O124 1.258 . S
C123 O125 1.256 . S
O124 Cd116 2.381 . S
O124 C123 1.258 . S
O125 Cd116 2.378 . S
O125 C123 1.256 . S
C126 C127 1.386 . S
C126 C128 1.383 . S
C126 H142 0.951 . S
C127 C126 1.386 . S
C127 C131 1.383 . S
C128 C126 1.383 . S
C128 C129 1.402 . S
C128 H143 0.951 . S
C129 C128 1.402 . S
C129 C130 1.375 . S
C129 C132 1.481 . S
C130 C129 1.375 . S
C130 C131 1.367 . S
C130 H144 0.951 . S
C131 C127 1.383 . S
C131 C130 1.367 . S
C131 H145 0.950 . S
C132 C129 1.481 . S
C132 C133 1.297 . S
C132 H146 0.950 . S
C133 C132 1.297 . S
C133 C134 1.479 . S
C133 H147 0.950 . S
C134 C133 1.479 . S
C134 C135 1.375 . S
C134 C140 1.404 . S
C135 C134 1.375 . S
C135 C136 1.369 . S
C135 H148 0.950 . S
C136 C135 1.369 . S
C136 C137 1.392 . S
C136 H149 0.951 . S
C137 C136 1.392 . S
C137 C139 1.384 . S
H138 C140 0.949 . S
C139 C137 1.384 . S
C139 C140 1.385 . S
C139 H141 0.950 . S
C140 C134 1.404 . S
C140 H138 0.949 . S
C140 C139 1.385 . S
H141 C139 0.950 . S
H142 C126 0.951 . S
H143 C128 0.951 . S
H144 C130 0.951 . S
H145 C131 0.950 . S
H146 C132 0.950 . S
H147 C133 0.950 . S
H148 C135 0.950 . S
H149 C136 0.951 . S
C150 C151 1.386 . S
C150 C152 1.383 . S
C150 H166 0.951 . S
C151 C150 1.386 . S
C151 C155 1.383 . S
C152 C150 1.383 . S
C152 C153 1.402 . S
C152 H167 0.951 . S
C153 C152 1.402 . S
C153 C154 1.375 . S
C153 C156 1.481 . S
C154 C153 1.375 . S
C154 C155 1.367 . S
C154 H168 0.951 . S
C155 C151 1.383 . S
C155 C154 1.367 . S
C155 H169 0.950 . S
C156 C153 1.481 . S
C156 C157 1.297 . S
C156 H170 0.950 . S
C157 C156 1.297 . S
C157 C158 1.479 . S
C157 H171 0.950 . S
C158 C157 1.479 . S
C158 C159 1.375 . S
C158 C164 1.404 . S
C159 C158 1.375 . S
C159 C160 1.369 . S
C159 H172 0.950 . S
C160 C159 1.369 . S
C160 C161 1.392 . S
C160 H173 0.951 . S
C161 C160 1.392 . S
C161 C163 1.384 . S
H162 C164 0.949 . S
C163 C161 1.384 . S
C163 C164 1.385 . S
C163 H165 0.950 . S
C164 C158 1.404 . S
C164 H162 0.949 . S
C164 C163 1.385 . S
H165 C163 0.950 . S
H166 C150 0.951 . S
H167 C152 0.951 . S
H168 C154 0.951 . S
H169 C155 0.950 . S
H170 C156 0.950 . S
H171 C157 0.950 . S
H172 C159 0.950 . S
H173 C160 0.951 . S
C174 C175 1.386 . S
C174 C176 1.383 . S
C174 H190 0.951 . S
C175 C174 1.386 . S
C175 C179 1.383 . S
C176 C174 1.383 . S
C176 C177 1.402 . S
C176 H191 0.951 . S
C177 C176 1.402 . S
C177 C178 1.375 . S
C177 C180 1.481 . S
C178 C177 1.375 . S
C178 C179 1.367 . S
C178 H192 0.951 . S
C179 C175 1.383 . S
C179 C178 1.367 . S
C179 H193 0.950 . S
C180 C177 1.481 . S
C180 C181 1.297 . S
C180 H194 0.950 . S
C181 C180 1.297 . S
C181 C182 1.479 . S
C181 H195 0.950 . S
C182 C181 1.479 . S
C182 C183 1.375 . S
C182 C188 1.404 . S
C183 C182 1.375 . S
C183 C184 1.369 . S
C183 H196 0.950 . S
C184 C183 1.369 . S
C184 C185 1.392 . S
C184 H197 0.951 . S
C185 C184 1.392 . S
C185 C187 1.384 . S
H186 C188 0.949 . S
C187 C185 1.384 . S
C187 C188 1.385 . S
C187 H189 0.950 . S
C188 C182 1.404 . S
C188 H186 0.949 . S
C188 C187 1.385 . S
H189 C187 0.950 . S
H190 C174 0.951 . S
H191 C176 0.951 . S
H192 C178 0.951 . S
H193 C179 0.950 . S
H194 C180 0.950 . S
H195 C181 0.950 . S
H196 C183 0.950 . S
H197 C184 0.951 . S
C198 C199 1.386 . S
C198 C200 1.383 . S
C198 H214 0.951 . S
C199 C198 1.386 . S
C199 C203 1.383 . S
C200 C198 1.383 . S
C200 C201 1.402 . S
C200 H215 0.951 . S
C201 C200 1.402 . S
C201 C202 1.375 . S
C201 C204 1.481 . S
C202 C201 1.375 . S
C202 C203 1.367 . S
C202 H216 0.951 . S
C203 C199 1.383 . S
C203 C202 1.367 . S
C203 H217 0.950 . S
C204 C201 1.481 . S
C204 C205 1.297 . S
C204 H218 0.950 . S
C205 C204 1.297 . S
C205 C206 1.479 . S
C205 H219 0.950 . S
C206 C205 1.479 . S
C206 C207 1.375 . S
C206 C212 1.404 . S
C207 C206 1.375 . S
C207 C208 1.369 . S
C207 H220 0.950 . S
C208 C207 1.369 . S
C208 C209 1.392 . S
C208 H221 0.951 . S
C209 C208 1.392 . S
C209 C211 1.384 . S
H210 C212 0.949 . S
C211 C209 1.384 . S
C211 C212 1.385 . S
C211 H213 0.950 . S
C212 C206 1.404 . S
C212 H210 0.949 . S
C212 C211 1.385 . S
H213 C211 0.950 . S
H214 C198 0.951 . S
H215 C200 0.951 . S
H216 C202 0.951 . S
H217 C203 0.950 . S
H218 C204 0.950 . S
H219 C205 0.950 . S
H220 C207 0.950 . S
H221 C208 0.951 . S
C222 C223 1.386 . S
C222 C224 1.383 . S
C222 H238 0.951 . S
C223 C222 1.386 . S
C223 C227 1.383 . S
C224 C222 1.383 . S
C224 C225 1.402 . S
C224 H239 0.951 . S
C225 C224 1.402 . S
C225 C226 1.375 . S
C225 C228 1.481 . S
C226 C225 1.375 . S
C226 C227 1.367 . S
C226 H240 0.951 . S
C227 C223 1.383 . S
C227 C226 1.367 . S
C227 H241 0.950 . S
C228 C225 1.481 . S
C228 C229 1.297 . S
C228 H242 0.950 . S
C229 C228 1.297 . S
C229 C230 1.479 . S
C229 H243 0.950 . S
C230 C229 1.479 . S
C230 C231 1.375 . S
C230 C236 1.404 . S
C231 C230 1.375 . S
C231 C232 1.369 . S
C231 H244 0.950 . S
C232 C231 1.369 . S
C232 C233 1.392 . S
C232 H245 0.951 . S
C233 C232 1.392 . S
C233 C235 1.384 . S
H234 C236 0.949 . S
C235 C233 1.384 . S
C235 C236 1.385 . S
C235 H237 0.950 . S
C236 C230 1.404 . S
C236 H234 0.949 . S
C236 C235 1.385 . S
H237 C235 0.950 . S
H238 C222 0.951 . S
H239 C224 0.951 . S
H240 C226 0.951 . S
H241 C227 0.950 . S
H242 C228 0.950 . S
H243 C229 0.950 . S
H244 C231 0.950 . S
H245 C232 0.951 . S
C246 C247 1.386 . S
C246 C248 1.383 . S
C246 H262 0.951 . S
C247 C246 1.386 . S
C247 C251 1.383 . S
C248 C246 1.383 . S
C248 C249 1.402 . S
C248 H263 0.951 . S
C249 C248 1.402 . S
C249 C250 1.375 . S
C249 C252 1.481 . S
C250 C249 1.375 . S
C250 C251 1.367 . S
C250 H264 0.951 . S
C251 C247 1.383 . S
C251 C250 1.367 . S
C251 H265 0.950 . S
C252 C249 1.481 . S
C252 C253 1.297 . S
C252 H266 0.950 . S
C253 C252 1.297 . S
C253 C254 1.479 . S
C253 H267 0.950 . S
C254 C253 1.479 . S
C254 C255 1.375 . S
C254 C260 1.404 . S
C255 C254 1.375 . S
C255 C256 1.369 . S
C255 H268 0.950 . S
C256 C255 1.369 . S
C256 C257 1.392 . S
C256 H269 0.951 . S
C257 C256 1.392 . S
C257 C259 1.384 . S
H258 C260 0.949 . S
C259 C257 1.384 . S
C259 C260 1.385 . S
C259 H261 0.950 . S
C260 C254 1.404 . S
C260 H258 0.949 . S
C260 C259 1.385 . S
H261 C259 0.950 . S
H262 C246 0.951 . S
H263 C248 0.951 . S
H264 C250 0.951 . S
H265 C251 0.950 . S
H266 C252 0.950 . S
H267 C253 0.950 . S
H268 C255 0.950 . S
H269 C256 0.951 . S
C270 C271 1.386 . S
C270 C272 1.383 . S
C270 H286 0.951 . S
C271 C270 1.386 . S
C271 C275 1.383 . S
C272 C270 1.383 . S
C272 C273 1.402 . S
C272 H287 0.951 . S
C273 C272 1.402 . S
C273 C274 1.375 . S
C273 C276 1.481 . S
C274 C273 1.375 . S
C274 C275 1.367 . S
C274 H288 0.951 . S
C275 C271 1.383 . S
C275 C274 1.367 . S
C275 H289 0.950 . S
C276 C273 1.481 . S
C276 C277 1.297 . S
C276 H290 0.950 . S
C277 C276 1.297 . S
C277 C278 1.479 . S
C277 H291 0.950 . S
C278 C277 1.479 . S
C278 C279 1.375 . S
C278 C284 1.404 . S
C279 C278 1.375 . S
C279 C280 1.369 . S
C279 H292 0.950 . S
C280 C279 1.369 . S
C280 C281 1.392 . S
C280 H293 0.951 . S
C281 C280 1.392 . S
C281 C283 1.384 . S
H282 C284 0.949 . S
C283 C281 1.384 . S
C283 C284 1.385 . S
C283 H285 0.950 . S
C284 C278 1.404 . S
C284 H282 0.949 . S
C284 C283 1.385 . S
H285 C283 0.950 . S
H286 C270 0.951 . S
H287 C272 0.951 . S
H288 C274 0.951 . S
H289 C275 0.950 . S
H290 C276 0.950 . S
H291 C277 0.950 . S
H292 C279 0.950 . S
H293 C280 0.951 . S
C294 C295 1.386 . S
C294 C296 1.383 . S
C294 H310 0.951 . S
C295 C294 1.386 . S
C295 C299 1.383 . S
C296 C294 1.383 . S
C296 C297 1.402 . S
C296 H311 0.951 . S
C297 C296 1.402 . S
C297 C298 1.375 . S
C297 C300 1.481 . S
C298 C297 1.375 . S
C298 C299 1.367 . S
C298 H312 0.951 . S
C299 C295 1.383 . S
C299 C298 1.367 . S
C299 H313 0.950 . S
C300 C297 1.481 . S
C300 C301 1.297 . S
C300 H314 0.950 . S
C301 C300 1.297 . S
C301 C302 1.479 . S
C301 H315 0.950 . S
C302 C301 1.479 . S
C302 C303 1.375 . S
C302 C308 1.404 . S
C303 C302 1.375 . S
C303 C304 1.369 . S
C303 H316 0.950 . S
C304 C303 1.369 . S
C304 C305 1.392 . S
C304 H317 0.951 . S
C305 C304 1.392 . S
C305 C307 1.384 . S
H306 C308 0.949 . S
C307 C305 1.384 . S
C307 C308 1.385 . S
C307 H309 0.950 . S
C308 C302 1.404 . S
C308 H306 0.949 . S
C308 C307 1.385 . S
H309 C307 0.950 . S
H310 C294 0.951 . S
H311 C296 0.951 . S
H312 C298 0.951 . S
H313 C299 0.950 . S
H314 C300 0.950 . S
H315 C301 0.950 . S
H316 C303 0.950 . S
H317 C304 0.951 . S
C318 C319 1.386 . S
C318 C320 1.383 . S
C318 H334 0.951 . S
C319 C318 1.386 . S
C319 C323 1.383 . S
C320 C318 1.383 . S
C320 C321 1.402 . S
C320 H335 0.951 . S
C321 C320 1.402 . S
C321 C322 1.375 . S
C321 C324 1.481 . S
C322 C321 1.375 . S
C322 C323 1.367 . S
C322 H336 0.951 . S
C323 C319 1.383 . S
C323 C322 1.367 . S
C323 H337 0.950 . S
C324 C321 1.481 . S
C324 C325 1.297 . S
C324 H338 0.950 . S
C325 C324 1.297 . S
C325 C326 1.479 . S
C325 H339 0.950 . S
C326 C325 1.479 . S
C326 C327 1.375 . S
C326 C332 1.404 . S
C327 C326 1.375 . S
C327 C328 1.369 . S
C327 H340 0.950 . S
C328 C327 1.369 . S
C328 C329 1.392 . S
C328 H341 0.951 . S
C329 C328 1.392 . S
C329 C331 1.384 . S
H330 C332 0.949 . S
C331 C329 1.384 . S
C331 C332 1.385 . S
C331 H333 0.950 . S
C332 C326 1.404 . S
C332 H330 0.949 . S
C332 C331 1.385 . S
H333 C331 0.950 . S
H334 C318 0.951 . S
H335 C320 0.951 . S
H336 C322 0.951 . S
H337 C323 0.950 . S
H338 C324 0.950 . S
H339 C325 0.950 . S
H340 C327 0.950 . S
H341 C328 0.951 . S
C342 C343 1.386 . S
C342 C344 1.383 . S
C342 H358 0.951 . S
C343 C342 1.386 . S
C343 C347 1.383 . S
C344 C342 1.383 . S
C344 C345 1.402 . S
C344 H359 0.951 . S
C345 C344 1.402 . S
C345 C346 1.375 . S
C345 C348 1.481 . S
C346 C345 1.375 . S
C346 C347 1.367 . S
C346 H360 0.951 . S
C347 C343 1.383 . S
C347 C346 1.367 . S
C347 H361 0.950 . S
C348 C345 1.481 . S
C348 C349 1.297 . S
C348 H362 0.950 . S
C349 C348 1.297 . S
C349 C350 1.479 . S
C349 H363 0.950 . S
C350 C349 1.479 . S
C350 C351 1.375 . S
C350 C356 1.404 . S
C351 C350 1.375 . S
C351 C352 1.369 . S
C351 H364 0.950 . S
C352 C351 1.369 . S
C352 C353 1.392 . S
C352 H365 0.951 . S
C353 C352 1.392 . S
C353 C355 1.384 . S
H354 C356 0.949 . S
C355 C353 1.384 . S
C355 C356 1.385 . S
C355 H357 0.950 . S
C356 C350 1.404 . S
C356 H354 0.949 . S
C356 C355 1.385 . S
H357 C355 0.950 . S
H358 C342 0.951 . S
H359 C344 0.951 . S
H360 C346 0.951 . S
H361 C347 0.950 . S
H362 C348 0.950 . S
H363 C349 0.950 . S
H364 C351 0.950 . S
H365 C352 0.951 . S
C366 C367 1.386 . S
C366 C368 1.383 . S
C366 H382 0.951 . S
C367 C366 1.386 . S
C367 C371 1.383 . S
C368 C366 1.383 . S
C368 C369 1.402 . S
C368 H383 0.951 . S
C369 C368 1.402 . S
C369 C370 1.375 . S
C369 C372 1.481 . S
C370 C369 1.375 . S
C370 C371 1.367 . S
C370 H384 0.951 . S
C371 C367 1.383 . S
C371 C370 1.367 . S
C371 H385 0.950 . S
C372 C369 1.481 . S
C372 C373 1.297 . S
C372 H386 0.950 . S
C373 C372 1.297 . S
C373 C374 1.479 . S
C373 H387 0.950 . S
C374 C373 1.479 . S
C374 C375 1.375 . S
C374 C380 1.404 . S
C375 C374 1.375 . S
C375 C376 1.369 . S
C375 H388 0.950 . S
C376 C375 1.369 . S
C376 C377 1.392 . S
C376 H389 0.951 . S
C377 C376 1.392 . S
C377 C379 1.384 . S
H378 C380 0.949 . S
C379 C377 1.384 . S
C379 C380 1.385 . S
C379 H381 0.950 . S
C380 C374 1.404 . S
C380 H378 0.949 . S
C380 C379 1.385 . S
H381 C379 0.950 . S
H382 C366 0.951 . S
H383 C368 0.951 . S
H384 C370 0.951 . S
H385 C371 0.950 . S
H386 C372 0.950 . S
H387 C373 0.950 . S
H388 C375 0.950 . S
H389 C376 0.951 . S
C390 C391 1.386 . S
C390 C392 1.383 . S
C390 H406 0.951 . S
C391 C390 1.386 . S
C391 C395 1.383 . S
C392 C390 1.383 . S
C392 C393 1.402 . S
C392 H407 0.951 . S
C393 C392 1.402 . S
C393 C394 1.375 . S
C393 C396 1.481 . S
C394 C393 1.375 . S
C394 C395 1.367 . S
C394 H408 0.951 . S
C395 C391 1.383 . S
C395 C394 1.367 . S
C395 H409 0.950 . S
C396 C393 1.481 . S
C396 C397 1.297 . S
C396 H410 0.950 . S
C397 C396 1.297 . S
C397 C398 1.479 . S
C397 H411 0.950 . S
C398 C397 1.479 . S
C398 C399 1.375 . S
C398 C404 1.404 . S
C399 C398 1.375 . S
C399 C400 1.369 . S
C399 H412 0.950 . S
C400 C399 1.369 . S
C400 C401 1.392 . S
C400 H413 0.951 . S
C401 C400 1.392 . S
C401 C403 1.384 . S
H402 C404 0.949 . S
C403 C401 1.384 . S
C403 C404 1.385 . S
C403 H405 0.950 . S
C404 C398 1.404 . S
C404 H402 0.949 . S
C404 C403 1.385 . S
H405 C403 0.950 . S
H406 C390 0.951 . S
H407 C392 0.951 . S
H408 C394 0.951 . S
H409 C395 0.950 . S
H410 C396 0.950 . S
H411 C397 0.950 . S
H412 C399 0.950 . S
H413 C400 0.951 . S
C414 C415 1.386 . S
C414 C416 1.383 . S
C414 H430 0.951 . S
C415 C414 1.386 . S
C415 C419 1.383 . S
C416 C414 1.383 . S
C416 C417 1.402 . S
C416 H431 0.951 . S
C417 C416 1.402 . S
C417 C418 1.375 . S
C417 C420 1.481 . S
C418 C417 1.375 . S
C418 C419 1.367 . S
C418 H432 0.951 1_455 S
C419 C415 1.383 . S
C419 C418 1.367 . S
C419 H433 0.950 1_455 S
C420 C417 1.481 . S
C420 C421 1.297 . S
C420 H434 0.950 . S
C421 C420 1.297 . S
C421 C422 1.479 1_554 S
C421 H435 0.950 . S
C422 C421 1.479 1_556 S
C422 C423 1.375 . S
C422 C428 1.404 . S
C423 C422 1.375 . S
C423 C424 1.369 . S
C423 H436 0.950 . S
C424 C423 1.369 . S
C424 C425 1.392 . S
C424 H437 0.951 . S
C425 C424 1.392 . S
C425 C427 1.384 . S
H426 C428 0.949 . S
C427 C425 1.384 . S
C427 C428 1.385 . S
C427 H429 0.939 1_455 S
C428 C422 1.404 . S
C428 H426 0.949 . S
C428 C427 1.385 . S
H429 C427 0.939 1_655 S
H430 C414 0.951 . S
H431 C416 0.951 . S
H432 C418 0.951 1_655 S
H433 C419 0.950 1_655 S
H434 C420 0.950 . S
H435 C421 0.950 . S
H436 C423 0.950 . S
H437 C424 0.951 . S
C438 C439 1.386 . S
C438 C440 1.383 . S
C438 H454 0.951 1_545 S
C439 C438 1.386 . S
C439 C443 1.383 . S
C440 C438 1.383 . S
C440 C441 1.402 . S
C440 H455 0.951 1_545 S
C441 C440 1.402 . S
C441 C442 1.375 . S
C441 C444 1.481 . S
C442 C441 1.375 . S
C442 C443 1.367 . S
C442 H456 0.951 . S
C443 C439 1.383 . S
C443 C442 1.367 . S
C443 H457 0.950 . S
C444 C441 1.481 . S
C444 C445 1.297 . S
C444 H458 0.950 . S
C445 C444 1.297 . S
C445 C446 1.479 . S
C445 H459 0.950 . S
C446 C445 1.479 . S
C446 C447 1.375 . S
C446 C452 1.404 . S
C447 C446 1.375 . S
C447 C448 1.369 . S
C447 H460 0.950 1_545 S
C448 C447 1.369 . S
C448 C449 1.392 . S
C448 H461 0.951 1_545 S
C449 C448 1.392 . S
C449 C451 1.384 . S
H450 C452 0.949 . S
C451 C449 1.384 . S
C451 C452 1.385 . S
C451 H453 0.950 . S
C452 C446 1.404 . S
C452 H450 0.949 . S
C452 C451 1.385 . S
H453 C451 0.950 . S
H454 C438 0.951 1_565 S
H455 C440 0.951 1_565 S
H456 C442 0.951 . S
H457 C443 0.950 . S
H458 C444 0.950 . S
H459 C445 0.950 . S
H460 C447 0.950 1_565 S
H461 C448 0.951 1_565 S
C462 C463 1.386 . S
C462 C464 1.383 . S
C462 H478 0.951 . S
C463 C462 1.386 . S
C463 C467 1.383 . S
C464 C462 1.383 . S
C464 C465 1.402 . S
C464 H479 0.951 . S
C465 C464 1.402 . S
C465 C466 1.375 . S
C465 C468 1.481 . S
C466 C465 1.375 . S
C466 C467 1.367 . S
C466 H480 0.951 . S
C467 C463 1.383 . S
C467 C466 1.367 . S
C467 H481 0.950 . S
C468 C465 1.481 . S
C468 C469 1.297 . S
C468 H482 0.950 . S
C469 C468 1.297 . S
C469 C470 1.479 . S
C469 H483 0.950 . S
C470 C469 1.479 . S
C470 C471 1.375 . S
C470 C476 1.404 . S
C471 C470 1.375 . S
C471 C472 1.369 . S
C471 H484 0.950 . S
C472 C471 1.369 . S
C472 C473 1.392 . S
C472 H485 0.951 . S
C473 C472 1.392 . S
C473 C475 1.384 . S
H474 C476 0.949 . S
C475 C473 1.384 . S
C475 C476 1.385 . S
C475 H477 0.950 . S
C476 C470 1.404 . S
C476 H474 0.949 . S
C476 C475 1.385 . S
H477 C475 0.950 . S
H478 C462 0.951 . S
H479 C464 0.951 . S
H480 C466 0.951 . S
H481 C467 0.950 . S
H482 C468 0.950 . S
H483 C469 0.950 . S
H484 C471 0.950 . S
H485 C472 0.951 . S
C486 C487 1.386 1_565 S
C486 C488 1.383 1_565 S
C486 H502 0.951 . S
C487 C486 1.386 1_545 S
C487 C491 1.383 . S
C488 C486 1.383 1_545 S
C488 C489 1.402 . S
C488 H503 0.951 1_545 S
C489 C488 1.402 . S
C489 C490 1.375 . S
C489 C492 1.481 . S
C490 C489 1.375 . S
C490 C491 1.367 . S
C490 H504 0.951 . S
C491 C487 1.383 . S
C491 C490 1.367 . S
C491 H505 0.950 . S
C492 C489 1.481 . S
C492 C493 1.297 . S
C492 H506 0.950 . S
C493 C492 1.297 . S
C493 C494 1.479 . S
C493 H507 0.950 . S
C494 C493 1.479 . S
C494 C495 1.375 1_545 S
C494 C500 1.404 . S
C495 C494 1.375 1_565 S
C495 C496 1.369 . S
C495 H508 0.950 . S
C496 C495 1.369 . S
C496 C497 1.392 1_565 S
C496 H509 0.951 . S
C497 C496 1.392 1_545 S
C497 C499 1.384 . S
H498 C500 0.949 . S
C499 C497 1.384 . S
C499 C500 1.385 . S
C499 H501 0.950 . S
C500 C494 1.404 . S
C500 H498 0.949 . S
C500 C499 1.385 . S
H501 C499 0.950 . S
H502 C486 0.951 . S
H503 C488 0.951 1_565 S
H504 C490 0.951 . S
H505 C491 0.950 . S
H506 C492 0.950 . S
H507 C493 0.950 . S
H508 C495 0.950 . S
H509 C496 0.951 . S
C510 C511 1.386 . S
C510 C512 1.383 . S
C510 H526 0.951 . S
C511 C510 1.386 . S
C511 C515 1.383 . S
C512 C510 1.383 . S
C512 C513 1.402 . S
C512 H527 0.951 . S
C513 C512 1.402 . S
C513 C514 1.375 . S
C513 C516 1.481 . S
C514 C513 1.375 . S
C514 C515 1.367 . S
C514 H528 0.951 . S
C515 C511 1.383 . S
C515 C514 1.367 . S
C515 H529 0.950 . S
C516 C513 1.481 . S
C516 C517 1.297 . S
C516 H530 0.950 . S
C517 C516 1.297 . S
C517 C518 1.479 1_556 S
C517 H531 0.950 . S
C518 C517 1.479 1_554 S
C518 C519 1.375 . S
C518 C524 1.404 . S
C519 C518 1.375 . S
C519 C520 1.369 . S
C519 H532 0.950 . S
C520 C519 1.369 . S
C520 C521 1.392 . S
C520 H533 0.951 . S
C521 C520 1.392 . S
C521 C523 1.384 . S
H522 C524 0.949 . S
C523 C521 1.384 . S
C523 C524 1.385 . S
C523 H525 0.950 . S
C524 C518 1.404 . S
C524 H522 0.949 . S
C524 C523 1.385 . S
H525 C523 0.950 . S
H526 C510 0.951 . S
H527 C512 0.951 . S
H528 C514 0.951 . S
H529 C515 0.950 . S
H530 C516 0.950 . S
H531 C517 0.950 . S
H532 C519 0.950 . S
H533 C520 0.951 . S
C534 C535 1.386 . S
C534 C536 1.383 . S
C534 H550 0.951 . S
C535 C534 1.386 . S
C535 C539 1.383 1_455 S
C536 C534 1.383 . S
C536 C537 1.402 1_455 S
C536 H551 0.951 . S
C537 C536 1.402 1_655 S
C537 C538 1.375 . S
C537 C540 1.481 . S
C538 C537 1.375 . S
C538 C539 1.367 . S
C538 H552 0.951 . S
C539 C535 1.383 1_655 S
C539 C538 1.367 . S
C539 H553 0.949 . S
C540 C537 1.481 . S
C540 C541 1.297 . S
C540 H554 0.950 . S
C541 C540 1.297 . S
C541 C542 1.479 . S
C541 H555 0.950 . S
C542 C541 1.479 . S
C542 C543 1.375 . S
C542 C548 1.404 . S
C543 C542 1.375 . S
C543 C544 1.369 . S
C543 H556 0.945 . S
C544 C543 1.369 . S
C544 C545 1.392 . S
C544 H557 0.951 1_655 S
C545 C544 1.392 . S
C545 C547 1.384 . S
H546 C548 0.949 . S
C547 C545 1.384 . S
C547 C548 1.385 . S
C547 H549 0.950 . S
C548 C542 1.404 . S
C548 H546 0.949 . S
C548 C547 1.385 . S
H549 C547 0.950 . S
H550 C534 0.951 . S
H551 C536 0.951 . S
H552 C538 0.951 . S
H553 C539 0.949 . S
H554 C540 0.950 . S
H555 C541 0.950 . S
H556 C543 0.945 . S
H557 C544 0.951 1_455 S
C127 C8 2.131 . S
C137 C120 1.906 . S
C151 C26 1.489 . S
C161 C98 1.342 . S
C175 C48 1.333 . S
C185 C112 1.381 . S
C199 C19 1.586 . S
C209 C123 1.597 . S
C233 C101 1.292 . S
C223 C36 1.334 . S
C257 C109 1.620 . S
C247 C59 1.707 . S
C271 C28 1.689 . S
C281 C76 1.522 . S
C295 C46 1.365 . S
C305 C87 1.098 . S
C319 C16 1.657 . S
C329 C65 1.310 . S
C353 C79 1.511 . S
C343 C39 1.478 . S
C377 C90 0.768 . S
C367 C56 0.827 . S
C391 C6 1.214 . S
C401 C68 1.236 . S
C425 C89 1.346 . S
C415 C9 1.449 . S
C439 C21 1.509 . S
C449 C67 1.486 . S
C463 C49 1.518 . S
C473 C78 1.496 . S
C497 C111 1.378 . S
C487 C29 1.441 . S
C521 C122 1.557 . S
C511 C41 1.579 . S
C535 C1 1.541 . S
C545 C100 1.478 . S
