# Generated by pormake.
# Topology ocu, (6,8)-cn, num edge types: 1
# Building blocks:
#     Node 0, Type 0, BuildingBlock: KUMJIN_clean_sbu_0, # of connection points: 6
#     Node 1, Type 0, BuildingBlock: KUMJIN_clean_sbu_0, # of connection points: 6
#     Node 2, Type 0, BuildingBlock: KUMJIN_clean_sbu_0, # of connection points: 6
#     Node 3, Type 0, BuildingBlock: KUMJIN_clean_sbu_0, # of connection points: 6
#     Node 4, Type 0, BuildingBlock: KUMJIN_clean_sbu_0, # of connection points: 6
#     Node 5, Type 0, BuildingBlock: KUMJIN_clean_sbu_0, # of connection points: 6
#     Node 6, Type 0, BuildingBlock: KUMJIN_clean_sbu_0, # of connection points: 6
#     Node 7, Type 0, BuildingBlock: KUMJIN_clean_sbu_0, # of connection points: 6
#     Node 8, Type 1, BuildingBlock: GIZVER_clean_sbu_0, # of connection points: 8
#     Node 9, Type 1, BuildingBlock: GIZVER_clean_sbu_0, # of connection points: 8
#     Node 10, Type 1, BuildingBlock: GIZVER_clean_sbu_0, # of connection points: 8
#     Node 11, Type 1, BuildingBlock: GIZVER_clean_sbu_0, # of connection points: 8
#     Node 12, Type 1, BuildingBlock: GIZVER_clean_sbu_0, # of connection points: 8
#     Node 13, Type 1, BuildingBlock: GIZVER_clean_sbu_0, # of connection points: 8
#     Edge 14, Type (0, 1), BuildingBlock: MIFKUJ_clean_linker_0, # of connection points: 2
#     Edge 15, Type (0, 1), BuildingBlock: MIFKUJ_clean_linker_0, # of connection points: 2
#     Edge 16, Type (0, 1), BuildingBlock: MIFKUJ_clean_linker_0, # of connection points: 2
#     Edge 17, Type (0, 1), BuildingBlock: MIFKUJ_clean_linker_0, # of connection points: 2
#     Edge 18, Type (0, 1), BuildingBlock: MIFKUJ_clean_linker_0, # of connection points: 2
#     Edge 19, Type (0, 1), BuildingBlock: MIFKUJ_clean_linker_0, # of connection points: 2
#     Edge 20, Type (0, 1), BuildingBlock: MIFKUJ_clean_linker_0, # of connection points: 2
#     Edge 21, Type (0, 1), BuildingBlock: MIFKUJ_clean_linker_0, # of connection points: 2
#     Edge 22, Type (0, 1), BuildingBlock: MIFKUJ_clean_linker_0, # of connection points: 2
#     Edge 23, Type (0, 1), BuildingBlock: MIFKUJ_clean_linker_0, # of connection points: 2
#     Edge 24, Type (0, 1), BuildingBlock: MIFKUJ_clean_linker_0, # of connection points: 2
#     Edge 25, Type (0, 1), BuildingBlock: MIFKUJ_clean_linker_0, # of connection points: 2
#     Edge 26, Type (0, 1), BuildingBlock: MIFKUJ_clean_linker_0, # of connection points: 2
#     Edge 27, Type (0, 1), BuildingBlock: MIFKUJ_clean_linker_0, # of connection points: 2
#     Edge 28, Type (0, 1), BuildingBlock: MIFKUJ_clean_linker_0, # of connection points: 2
#     Edge 29, Type (0, 1), BuildingBlock: MIFKUJ_clean_linker_0, # of connection points: 2
#     Edge 30, Type (0, 1), BuildingBlock: MIFKUJ_clean_linker_0, # of connection points: 2
#     Edge 31, Type (0, 1), BuildingBlock: MIFKUJ_clean_linker_0, # of connection points: 2
#     Edge 32, Type (0, 1), BuildingBlock: MIFKUJ_clean_linker_0, # of connection points: 2
#     Edge 33, Type (0, 1), BuildingBlock: MIFKUJ_clean_linker_0, # of connection points: 2
#     Edge 34, Type (0, 1), BuildingBlock: MIFKUJ_clean_linker_0, # of connection points: 2
#     Edge 35, Type (0, 1), BuildingBlock: MIFKUJ_clean_linker_0, # of connection points: 2
#     Edge 36, Type (0, 1), BuildingBlock: MIFKUJ_clean_linker_0, # of connection points: 2
#     Edge 37, Type (0, 1), BuildingBlock: MIFKUJ_clean_linker_0, # of connection points: 2
#     Edge 38, Type (0, 1), BuildingBlock: MIFKUJ_clean_linker_0, # of connection points: 2
#     Edge 39, Type (0, 1), BuildingBlock: MIFKUJ_clean_linker_0, # of connection points: 2
#     Edge 40, Type (0, 1), BuildingBlock: MIFKUJ_clean_linker_0, # of connection points: 2
#     Edge 41, Type (0, 1), BuildingBlock: MIFKUJ_clean_linker_0, # of connection points: 2
#     Edge 42, Type (0, 1), BuildingBlock: MIFKUJ_clean_linker_0, # of connection points: 2
#     Edge 43, Type (0, 1), BuildingBlock: MIFKUJ_clean_linker_0, # of connection points: 2
#     Edge 44, Type (0, 1), BuildingBlock: MIFKUJ_clean_linker_0, # of connection points: 2
#     Edge 45, Type (0, 1), BuildingBlock: MIFKUJ_clean_linker_0, # of connection points: 2
#     Edge 46, Type (0, 1), BuildingBlock: MIFKUJ_clean_linker_0, # of connection points: 2
#     Edge 47, Type (0, 1), BuildingBlock: MIFKUJ_clean_linker_0, # of connection points: 2
#     Edge 48, Type (0, 1), BuildingBlock: MIFKUJ_clean_linker_0, # of connection points: 2
#     Edge 49, Type (0, 1), BuildingBlock: MIFKUJ_clean_linker_0, # of connection points: 2
#     Edge 50, Type (0, 1), BuildingBlock: MIFKUJ_clean_linker_0, # of connection points: 2
#     Edge 51, Type (0, 1), BuildingBlock: MIFKUJ_clean_linker_0, # of connection points: 2
#     Edge 52, Type (0, 1), BuildingBlock: MIFKUJ_clean_linker_0, # of connection points: 2
#     Edge 53, Type (0, 1), BuildingBlock: MIFKUJ_clean_linker_0, # of connection points: 2
#     Edge 54, Type (0, 1), BuildingBlock: MIFKUJ_clean_linker_0, # of connection points: 2
#     Edge 55, Type (0, 1), BuildingBlock: MIFKUJ_clean_linker_0, # of connection points: 2
#     Edge 56, Type (0, 1), BuildingBlock: MIFKUJ_clean_linker_0, # of connection points: 2
#     Edge 57, Type (0, 1), BuildingBlock: MIFKUJ_clean_linker_0, # of connection points: 2
#     Edge 58, Type (0, 1), BuildingBlock: MIFKUJ_clean_linker_0, # of connection points: 2
#     Edge 59, Type (0, 1), BuildingBlock: MIFKUJ_clean_linker_0, # of connection points: 2
#     Edge 60, Type (0, 1), BuildingBlock: MIFKUJ_clean_linker_0, # of connection points: 2
#     Edge 61, Type (0, 1), BuildingBlock: MIFKUJ_clean_linker_0, # of connection points: 2
# Relax obj value: 0.163
# Max RMSD: 0.304
# Mean RMSD: 0.215
data_MOF--net-ocu--node1-KUMJIN_clean_sbu_0--node2-GIZVER_clean_sbu_0--edge1-MIFKUJ_clean_linker_0
_symmetry_space_group_name_H-M    P1
_symmetry_Int_Tables_number       1
_symmetry_cell_setting            triclinic
loop_
_symmetry_equiv_pos_as_xyz
'x, y, z'
_cell_length_a     53.741403
_cell_length_b     55.881188
_cell_length_c     43.493418
_cell_angle_alpha  79.686404
_cell_angle_beta   99.947194
_cell_angle_gamma 108.78686
loop_
_atom_site_label
_atom_site_type_symbol
_atom_site_fract_x
_atom_site_fract_y
_atom_site_fract_z
_atom_type_partial_charge
Eu0 Eu 0.27256 0.24764 0.21975 0.0
C1 C 0.34361 0.30726 0.32661 0.0
C2 C 0.35353 0.27437 0.36658 0.0
C3 C 0.38519 0.31676 0.36135 0.0
C4 C 0.33672 0.28235 0.34093 0.0
C5 C 0.36752 0.325 0.33731 0.0
C6 C 0.37819 0.29145 0.37599 0.0
C7 C 0.35296 0.35826 0.30301 0.0
N8 N 0.32571 0.31467 0.30412 0.0
C9 C 0.32939 0.33999 0.29349 0.0
C10 C 0.37234 0.35068 0.3246 0.0
Eu11 Eu 0.28683 0.2824 0.28756 0.0
N12 N 0.31251 0.26658 0.3317 0.0
C13 C 0.30293 0.24341 0.34896 0.0
C14 C 0.34447 0.2499 0.38296 0.0
C15 C 0.31882 0.23459 0.37447 0.0
H16 H 0.31445 0.34605 0.27696 0.0
H17 H 0.31117 0.21597 0.38744 0.0
H18 H 0.39151 0.28557 0.39536 0.0
H19 H 0.35611 0.37819 0.2938 0.0
H20 H 0.28324 0.23135 0.34273 0.0
H21 H 0.26606 0.324 0.12312 0.0
H22 H 0.3567 0.24303 0.40283 0.0
H23 H 0.23338 0.18721 0.22798 0.0
H24 H 0.28768 0.3025 0.16903 0.0
H25 H 0.18919 0.16152 0.20596 0.0
H26 H 0.40381 0.33002 0.36964 0.0
H27 H 0.21991 0.30313 0.10158 0.0
H28 H 0.17985 0.26454 0.10303 0.0
H29 H 0.39047 0.36491 0.33219 0.0
H30 H 0.15886 0.22035 0.12562 0.0
N31 N 0.254 0.26967 0.17441 0.0
C32 C 0.26761 0.29294 0.16004 0.0
C33 C 0.22933 0.29349 0.12184 0.0
C34 C 0.21599 0.26907 0.13553 0.0
C35 C 0.25539 0.3053 0.13388 0.0
C36 C 0.22909 0.25742 0.16202 0.0
H37 H 0.16234 0.18167 0.16364 0.0
N38 N 0.23097 0.22156 0.1991 0.0
C39 C 0.19675 0.18153 0.1971 0.0
C40 C 0.21717 0.23264 0.17484 0.0
C41 C 0.22174 0.19606 0.20942 0.0
C42 C 0.18163 0.193 0.17329 0.0
C43 C 0.19198 0.21872 0.16143 0.0
O44 O 0.28264 0.21511 0.20958 0.0
O45 O 0.29786 0.25311 0.26693 0.0
O46 O 0.32305 0.29939 0.26265 0.0
O47 O 0.30856 0.28277 0.21473 0.0
O48 O 0.28016 0.21604 0.25715 0.0
O49 O 0.29663 0.25188 0.18212 0.0
O50 O 0.2658 0.30821 0.29512 0.0
O51 O 0.26141 0.27647 0.24048 0.0
O52 O 0.23622 0.23381 0.24533 0.0
O53 O 0.25634 0.24341 0.29515 0.0
O54 O 0.27872 0.31352 0.24965 0.0
O55 O 0.26684 0.27583 0.32963 0.0
C56 C 0.29628 0.22978 0.27736 0.0
C57 C 0.28939 0.21521 0.15727 0.0
C58 C 0.30086 0.19049 0.12336 0.0
C59 C 0.30664 0.2028 0.15066 0.0
C60 C 0.27729 0.19057 0.10329 0.0
C61 C 0.26633 0.21519 0.13654 0.0
C62 C 0.26031 0.20286 0.10983 0.0
C63 C 0.32578 0.29837 0.23342 0.0
C64 C 0.29534 0.22782 0.18595 0.0
C65 C 0.17836 0.23064 0.13601 0.0
C66 C 0.19033 0.25578 0.12312 0.0
C67 C 0.2629 0.29962 0.22946 0.0
C68 C 0.26637 0.31327 0.34782 0.0
C69 C 0.24708 0.32265 0.3556 0.0
C70 C 0.25385 0.33978 0.37831 0.0
C71 C 0.28046 0.34769 0.3921 0.0
C72 C 0.29226 0.3207 0.36319 0.0
C73 C 0.29929 0.33798 0.38489 0.0
C74 C 0.23667 0.23034 0.2762 0.0
C75 C 0.25998 0.29667 0.32279 0.0
H76 H 0.32464 0.20309 0.16649 0.0
H77 H 0.27175 0.18089 0.08257 0.0
H78 H 0.25295 0.22467 0.14102 0.0
H79 H 0.24232 0.20278 0.09411 0.0
H80 H 0.22693 0.31638 0.3442 0.0
H81 H 0.28701 0.3616 0.40847 0.0
H82 H 0.30716 0.31333 0.35826 0.0
H83 H 0.31952 0.344 0.39607 0.0
Eu84 Eu 0.79639 0.24465 0.2599 0.0
C85 C 0.70027 0.25194 0.29585 0.0
C86 C 0.66066 0.2264 0.26738 0.0
C87 C 0.66178 0.22798 0.32294 0.0
C88 C 0.68704 0.24267 0.26829 0.0
C89 C 0.68732 0.24541 0.32323 0.0
C90 C 0.64852 0.21837 0.29508 0.0
C91 C 0.72501 0.27497 0.34877 0.0
N92 N 0.72522 0.26836 0.29553 0.0
C93 C 0.73706 0.28076 0.32122 0.0
C94 C 0.70023 0.2569 0.34999 0.0
Eu95 Eu 0.7446 0.27657 0.24737 0.0
N96 N 0.69905 0.25128 0.24177 0.0
C97 C 0.68436 0.24715 0.21309 0.0
C98 C 0.64676 0.21975 0.23838 0.0
C99 C 0.65847 0.23067 0.21099 0.0
H100 H 0.75552 0.29573 0.32099 0.0
H101 H 0.64741 0.22682 0.1882 0.0
H102 H 0.62849 0.20554 0.29491 0.0
H103 H 0.73482 0.28467 0.369 0.0
H104 H 0.69253 0.25667 0.19157 0.0
H105 H 0.89552 0.30008 0.30824 0.0
H106 H 0.6265 0.20741 0.23673 0.0
H107 H 0.78028 0.22377 0.18714 0.0
H108 H 0.85148 0.26887 0.31027 0.0
H109 H 0.79629 0.23492 0.136 0.0
H110 H 0.65187 0.22231 0.34394 0.0
H111 H 0.9123 0.31819 0.25697 0.0
H112 H 0.90627 0.31737 0.19886 0.0
H113 H 0.69096 0.25241 0.37141 0.0
H114 H 0.87962 0.29901 0.15214 0.0
N115 N 0.84119 0.27183 0.26037 0.0
C116 C 0.85766 0.2777 0.28755 0.0
C117 C 0.89247 0.30505 0.25768 0.0
C118 C 0.87684 0.29674 0.23019 0.0
C119 C 0.88305 0.29496 0.2866 0.0
C120 C 0.85104 0.27969 0.23235 0.0
H121 H 0.83893 0.2681 0.12864 0.0
N122 N 0.81172 0.2523 0.20927 0.0
C123 C 0.80752 0.24509 0.15537 0.0
C124 C 0.83607 0.2693 0.20614 0.0
C125 C 0.7981 0.23928 0.18465 0.0
C126 C 0.83164 0.26368 0.15135 0.0
C127 C 0.84652 0.27568 0.17701 0.0
O128 O 0.79297 0.20594 0.25284 0.0
O129 O 0.756 0.24196 0.26954 0.0
O130 O 0.77907 0.29566 0.28214 0.0
O131 O 0.80753 0.27057 0.29746 0.0
O132 O 0.78078 0.23096 0.30743 0.0
O133 O 0.8214 0.22366 0.28994 0.0
O134 O 0.75349 0.31671 0.25268 0.0
O135 O 0.78536 0.27988 0.2381 0.0
O136 O 0.75961 0.22241 0.23033 0.0
O137 O 0.73458 0.25012 0.2103 0.0
O138 O 0.75985 0.28912 0.19973 0.0
O139 O 0.72036 0.29939 0.21986 0.0
C140 C 0.75729 0.23301 0.29831 0.0
C141 C 0.7997 0.17923 0.30049 0.0
C142 C 0.80243 0.15595 0.35382 0.0
C143 C 0.80963 0.17859 0.33265 0.0
C144 C 0.78393 0.13417 0.34231 0.0
C145 C 0.78132 0.15722 0.28973 0.0
C146 C 0.77329 0.13497 0.31064 0.0
C147 C 0.79952 0.29 0.30005 0.0
C148 C 0.80912 0.20252 0.27807 0.0
C149 C 0.87155 0.29359 0.17443 0.0
C150 C 0.88667 0.30414 0.20097 0.0
C151 C 0.78392 0.28885 0.20921 0.0
C152 C 0.7478 0.34019 0.20246 0.0
C153 C 0.73401 0.33953 0.17197 0.0
C154 C 0.74522 0.35602 0.14629 0.0
C155 C 0.77066 0.37339 0.1515 0.0
C156 C 0.77316 0.35777 0.20717 0.0
C157 C 0.78451 0.37418 0.18174 0.0
C158 C 0.74035 0.22885 0.21069 0.0
C159 C 0.73677 0.32067 0.2283 0.0
H160 H 0.82326 0.19575 0.34106 0.0
H161 H 0.77821 0.11617 0.35737 0.0
H162 H 0.77331 0.15712 0.26511 0.0
H163 H 0.75925 0.11804 0.3021 0.0
H164 H 0.71466 0.32573 0.16809 0.0
H165 H 0.77959 0.38688 0.1324 0.0
H166 H 0.78446 0.35853 0.23035 0.0
H167 H 0.80409 0.38759 0.18547 0.0
Eu168 Eu 0.75395 0.75629 0.28379 0.0
C169 C 0.82074 0.82511 0.17951 0.0
C170 C 0.78797 0.83267 0.13631 0.0
C171 C 0.83122 0.86426 0.14285 0.0
C172 C 0.79557 0.81739 0.16348 0.0
C173 C 0.83908 0.84838 0.169 0.0
C174 C 0.8057 0.85642 0.12653 0.0
C175 C 0.87218 0.83749 0.20925 0.0
N176 N 0.82775 0.80915 0.20439 0.0
C177 C 0.85331 0.81458 0.2187 0.0
C178 C 0.86496 0.85463 0.18453 0.0
Eu179 Eu 0.79437 0.7712 0.21987 0.0
N180 N 0.77912 0.79419 0.17327 0.0
C181 C 0.7556 0.78425 0.15558 0.0
C182 C 0.76316 0.82322 0.11917 0.0
C183 C 0.74709 0.79871 0.1286 0.0
H184 H 0.8591 0.80153 0.2379 0.0
H185 H 0.72815 0.79085 0.11519 0.0
H186 H 0.80013 0.86853 0.10588 0.0
H187 H 0.89225 0.84195 0.22109 0.0
H188 H 0.74297 0.76534 0.16254 0.0
H189 H 0.82105 0.74053 0.38964 0.0
H190 H 0.75662 0.83435 0.09814 0.0
H191 H 0.69049 0.72303 0.26446 0.0
H192 H 0.80632 0.7639 0.3402 0.0
H193 H 0.65828 0.68221 0.28213 0.0
H194 H 0.84494 0.88232 0.13457 0.0
H195 H 0.79238 0.69836 0.40978 0.0
H196 H 0.74895 0.66363 0.4038 0.0
H197 H 0.87963 0.87233 0.17719 0.0
H198 H 0.70512 0.64736 0.37411 0.0
N199 N 0.77012 0.7346 0.33103 0.0
C200 C 0.79369 0.74529 0.34822 0.0
C201 C 0.78598 0.70819 0.38757 0.0
C202 C 0.76137 0.69774 0.37054 0.0
C203 C 0.80216 0.7321 0.3764 0.0
C204 C 0.75387 0.71163 0.342 0.0
H205 H 0.6711 0.65414 0.32874 0.0
N206 N 0.7217 0.71764 0.29974 0.0
C207 C 0.6781 0.68772 0.29458 0.0
C208 C 0.72891 0.70282 0.32578 0.0
C209 C 0.69641 0.71085 0.28463 0.0
C210 C 0.68543 0.67191 0.32084 0.0
C211 C 0.71093 0.67959 0.33716 0.0
O212 O 0.72194 0.76946 0.29281 0.0
O213 O 0.76154 0.7807 0.23683 0.0
O214 O 0.80614 0.80688 0.24337 0.0
O215 O 0.79263 0.78765 0.29212 0.0
O216 O 0.72259 0.76323 0.24396 0.0
O217 O 0.7604 0.78119 0.31979 0.0
O218 O 0.82456 0.75455 0.21352 0.0
O219 O 0.78644 0.74672 0.26663 0.0
O220 O 0.74352 0.72075 0.26072 0.0
O221 O 0.75529 0.74016 0.21124 0.0
O222 O 0.82544 0.76417 0.26015 0.0
O223 O 0.78857 0.74873 0.18129 0.0
C224 C 0.73771 0.77871 0.22439 0.0
C225 C 0.72347 0.77907 0.34415 0.0
C226 C 0.70482 0.79689 0.37925 0.0
C227 C 0.71662 0.79953 0.35165 0.0
C228 C 0.69987 0.7733 0.39884 0.0
C229 C 0.71838 0.75592 0.36423 0.0
C230 C 0.70662 0.75308 0.39137 0.0
C231 C 0.80608 0.80729 0.27363 0.0
C232 C 0.7361 0.78209 0.31554 0.0
C233 C 0.71866 0.66522 0.36493 0.0
C234 C 0.74372 0.6744 0.38175 0.0
C235 C 0.8101 0.74857 0.27943 0.0
C236 C 0.82704 0.74802 0.16211 0.0
C237 C 0.83279 0.72702 0.15437 0.0
C238 C 0.84829 0.73019 0.12985 0.0
C239 C 0.85797 0.75489 0.11362 0.0
C240 C 0.83666 0.7722 0.14518 0.0
C241 C 0.85206 0.77557 0.12114 0.0
C242 C 0.74268 0.72052 0.23032 0.0
C243 C 0.81158 0.7447 0.18835 0.0
H244 H 0.72081 0.81751 0.33626 0.0
H245 H 0.69036 0.77027 0.41982 0.0
H246 H 0.72348 0.74004 0.35894 0.0
H247 H 0.70264 0.73507 0.40667 0.0
H248 H 0.82503 0.7083 0.1673 0.0
H249 H 0.87054 0.75845 0.09533 0.0
H250 H 0.83245 0.78849 0.15071 0.0
H251 H 0.85966 0.79438 0.10839 0.0
Eu252 Eu 0.29612 0.73751 0.26018 0.0
C253 C 0.25074 0.81479 0.17294 0.0
C254 C 0.29002 0.85079 0.16677 0.0
C255 C 0.25425 0.84354 0.12368 0.0
C256 C 0.27562 0.82862 0.1848 0.0
C257 C 0.23933 0.82255 0.14262 0.0
C258 C 0.27958 0.85768 0.13578 0.0
C259 C 0.19802 0.79105 0.15407 0.0
N260 N 0.23668 0.79527 0.19232 0.0
C261 C 0.21017 0.78448 0.18411 0.0
C262 C 0.21282 0.80985 0.13296 0.0
Eu263 Eu 0.25835 0.78371 0.2426 0.0
N264 N 0.28486 0.82151 0.21493 0.0
C265 C 0.30771 0.83677 0.22909 0.0
C266 C 0.31405 0.86579 0.18077 0.0
C267 C 0.3227 0.85893 0.21225 0.0
H268 H 0.19856 0.77033 0.2007 0.0
H269 H 0.34103 0.87059 0.22351 0.0
H270 H 0.29053 0.87439 0.12139 0.0
H271 H 0.17722 0.7818 0.14737 0.0
H272 H 0.31483 0.83185 0.25324 0.0
H273 H 0.27306 0.64767 0.21338 0.0
H274 H 0.32575 0.88292 0.16775 0.0
H275 H 0.29588 0.74795 0.33426 0.0
H276 H 0.28851 0.69451 0.2126 0.0
H277 H 0.28676 0.72319 0.38578 0.0
H278 H 0.24597 0.8496 0.10017 0.0
H279 H 0.2578 0.61974 0.2617 0.0
H280 H 0.25219 0.61566 0.31867 0.0
H281 H 0.20331 0.81521 0.10985 0.0
H282 H 0.25747 0.63616 0.36584 0.0
N283 N 0.27907 0.69305 0.25847 0.0
C284 C 0.28065 0.68241 0.2332 0.0
C285 C 0.26386 0.64027 0.26111 0.0
C286 C 0.26456 0.65126 0.28786 0.0
C287 C 0.27237 0.65594 0.23377 0.0
C288 C 0.27271 0.6781 0.28589 0.0
H289 H 0.27102 0.67627 0.39115 0.0
N290 N 0.28474 0.71549 0.31003 0.0
C291 C 0.28354 0.71352 0.36533 0.0
C292 C 0.27581 0.68965 0.3125 0.0
C293 C 0.28875 0.72754 0.33595 0.0
C294 C 0.27442 0.68699 0.36824 0.0
C295 C 0.27033 0.67467 0.34169 0.0
O296 O 0.33268 0.73373 0.28882 0.0
O297 O 0.29559 0.77641 0.23646 0.0
O298 O 0.24357 0.7563 0.20551 0.0
O299 O 0.26041 0.7218 0.22529 0.0
O300 O 0.30357 0.75316 0.20985 0.0
O301 O 0.32737 0.73158 0.23901 0.0
O302 O 0.22266 0.78998 0.25327 0.0
O303 O 0.26366 0.74864 0.27386 0.0
O304 O 0.3191 0.77075 0.28751 0.0
O305 O 0.28931 0.79383 0.28423 0.0
O306 O 0.22496 0.74886 0.25713 0.0
O307 O 0.26095 0.81171 0.27305 0.0
C308 C 0.30186 0.77563 0.21 0.0
C309 C 0.34688 0.70243 0.27196 0.0
C310 C 0.3576 0.66901 0.252 0.0
C311 C 0.35471 0.69364 0.2478 0.0
C312 C 0.35305 0.65349 0.28097 0.0
C313 C 0.34258 0.68647 0.3007 0.0
C314 C 0.3457 0.66222 0.30508 0.0
C315 C 0.24472 0.73295 0.20507 0.0
C316 C 0.34093 0.72712 0.26603 0.0
C317 C 0.2615 0.64797 0.34359 0.0
C318 C 0.25852 0.63629 0.31671 0.0
C319 C 0.23943 0.73564 0.27372 0.0
C320 C 0.22785 0.83198 0.26168 0.0
C321 C 0.21566 0.83902 0.28322 0.0
C322 C 0.20955 0.86224 0.27681 0.0
C323 C 0.21557 0.87814 0.24842 0.0
C324 C 0.23359 0.84805 0.23346 0.0
C325 C 0.22742 0.87099 0.22687 0.0
C326 C 0.31195 0.78915 0.2955 0.0
C327 C 0.23567 0.80852 0.26951 0.0
H328 H 0.35769 0.70564 0.2254 0.0
H329 H 0.35545 0.63461 0.28514 0.0
H330 H 0.33632 0.69246 0.31966 0.0
H331 H 0.3422 0.65004 0.32723 0.0
H332 H 0.21149 0.82672 0.3052 0.0
H333 H 0.21082 0.89597 0.24272 0.0
H334 H 0.24306 0.84302 0.2167 0.0
H335 H 0.23194 0.88332 0.20505 0.0
Eu336 Eu 0.29114 0.73815 0.74504 0.0
C337 C 0.1897 0.74157 0.78393 0.0
C338 C 0.15298 0.73488 0.74189 0.0
C339 C 0.14482 0.71879 0.79606 0.0
C340 C 0.1803 0.74438 0.75214 0.0
C341 C 0.17187 0.72919 0.80627 0.0
C342 C 0.13541 0.72157 0.76395 0.0
C343 C 0.2084 0.73978 0.84737 0.0
N344 N 0.21603 0.75175 0.79313 0.0
C345 C 0.22533 0.7519 0.82444 0.0
C346 C 0.18164 0.72804 0.83827 0.0
Eu347 Eu 0.24293 0.7705 0.7519 0.0
N348 N 0.19764 0.7575 0.73134 0.0
C349 C 0.18883 0.76361 0.70038 0.0
C350 C 0.14403 0.73965 0.70985 0.0
C351 C 0.162 0.75439 0.68909 0.0
H352 H 0.24583 0.76087 0.83226 0.0
H353 H 0.15521 0.75869 0.66442 0.0
H354 H 0.11441 0.71392 0.75649 0.0
H355 H 0.21605 0.73944 0.8721 0.0
H356 H 0.2028 0.77491 0.68428 0.0
H357 H 0.3727 0.73658 0.83993 0.0
H358 H 0.12322 0.73264 0.70108 0.0
H359 H 0.29405 0.75609 0.66569 0.0
H360 H 0.32621 0.72676 0.81639 0.0
H361 H 0.32766 0.77791 0.63055 0.0
H362 H 0.13091 0.70904 0.81288 0.0
H363 H 0.40844 0.76056 0.80735 0.0
H364 H 0.42199 0.78192 0.7547 0.0
H365 H 0.16862 0.7186 0.85612 0.0
H366 H 0.40979 0.7933 0.6982 0.0
N367 N 0.33515 0.74511 0.77046 0.0
C368 C 0.34147 0.73687 0.80157 0.0
C369 C 0.38798 0.7562 0.7967 0.0
C370 C 0.38152 0.76383 0.76469 0.0
C371 C 0.36788 0.74256 0.81515 0.0
C372 C 0.35455 0.75783 0.7519 0.0
H373 H 0.37493 0.79179 0.6519 0.0
N374 N 0.32152 0.7581 0.70777 0.0
C375 C 0.33353 0.77432 0.65561 0.0
C376 C 0.3476 0.76438 0.71984 0.0
C377 C 0.3144 0.76194 0.67593 0.0
C378 C 0.36018 0.7821 0.66775 0.0
C379 C 0.36757 0.77686 0.70008 0.0
O380 O 0.26579 0.69934 0.73919 0.0
O381 O 0.25461 0.73501 0.76473 0.0
O382 O 0.27491 0.77506 0.79436 0.0
O383 O 0.31087 0.76775 0.77828 0.0
O384 O 0.28039 0.71787 0.79372 0.0
O385 O 0.30659 0.71037 0.73147 0.0
O386 O 0.2615 0.80645 0.77172 0.0
O387 O 0.28009 0.77406 0.73346 0.0
O388 O 0.2626 0.73941 0.7002 0.0
O389 O 0.22536 0.73937 0.72016 0.0
O390 O 0.25555 0.79212 0.70426 0.0
O391 O 0.22458 0.80102 0.74094 0.0
C392 C 0.25776 0.72205 0.79119 0.0
C393 C 0.28764 0.66839 0.75399 0.0
C394 C 0.30476 0.64869 0.80419 0.0
C395 C 0.30091 0.67021 0.78439 0.0
C396 C 0.29402 0.62473 0.79337 0.0
C397 C 0.27703 0.64453 0.74332 0.0
C398 C 0.28011 0.62272 0.7631 0.0
C399 C 0.3006 0.77764 0.79668 0.0
C400 C 0.28482 0.69162 0.73403 0.0
C401 C 0.39429 0.78348 0.71301 0.0
C402 C 0.40124 0.77699 0.74519 0.0
C403 C 0.27856 0.78869 0.70816 0.0
C404 C 0.25679 0.8414 0.73406 0.0
C405 C 0.24765 0.84462 0.70176 0.0
C406 C 0.25874 0.86711 0.68218 0.0
C407 C 0.27988 0.88635 0.6952 0.0
C408 C 0.27776 0.86089 0.74668 0.0
C409 C 0.28924 0.8832 0.72727 0.0
C410 C 0.23668 0.73373 0.69892 0.0
C411 C 0.245 0.81743 0.75414 0.0
H412 H 0.30837 0.68862 0.79256 0.0
H413 H 0.29678 0.60769 0.80791 0.0
H414 H 0.26644 0.6428 0.71986 0.0
H415 H 0.27198 0.60426 0.75485 0.0
H416 H 0.23176 0.82952 0.69167 0.0
H417 H 0.28858 0.90414 0.68092 0.0
H418 H 0.28526 0.85883 0.77148 0.0
H419 H 0.30515 0.89832 0.73723 0.0
Eu420 Eu 0.257 0.25083 0.78413 0.0
C421 C 0.31888 0.31834 0.67663 0.0
C422 C 0.28439 0.3239 0.63462 0.0
C423 C 0.32687 0.35689 0.63878 0.0
C424 C 0.2934 0.30949 0.66177 0.0
C425 C 0.33615 0.34185 0.66486 0.0
C426 C 0.30103 0.34793 0.62369 0.0
C427 C 0.37113 0.33272 0.70356 0.0
N428 N 0.32732 0.30315 0.70142 0.0
C429 C 0.35328 0.30951 0.71427 0.0
C430 C 0.36244 0.34913 0.67901 0.0
Eu431 Eu 0.29574 0.26456 0.7188 0.0
N432 N 0.278 0.28605 0.67265 0.0
C433 C 0.25423 0.27504 0.65614 0.0
C434 C 0.25931 0.31332 0.61866 0.0
C435 C 0.24438 0.2886 0.62922 0.0
H436 H 0.36006 0.29693 0.73334 0.0
H437 H 0.2253 0.2799 0.61672 0.0
H438 H 0.29437 0.35939 0.60307 0.0
H439 H 0.39154 0.33795 0.71425 0.0
H440 H 0.24247 0.25596 0.66404 0.0
H441 H 0.32436 0.23195 0.88839 0.0
H442 H 0.25164 0.32374 0.59771 0.0
H443 H 0.19167 0.22187 0.76856 0.0
H444 H 0.31001 0.25612 0.83938 0.0
H445 H 0.1576 0.18362 0.78855 0.0
H446 H 0.33976 0.37513 0.62957 0.0
H447 H 0.29411 0.19096 0.90949 0.0
H448 H 0.24878 0.1588 0.90551 0.0
H449 H 0.37633 0.36705 0.67066 0.0
H450 H 0.20378 0.14524 0.87785 0.0
N451 N 0.27253 0.22831 0.83118 0.0
C452 C 0.2967 0.238 0.84778 0.0
C453 C 0.28786 0.20116 0.88747 0.0
C454 C 0.26254 0.19198 0.87134 0.0
C455 C 0.30493 0.22438 0.87574 0.0
C456 C 0.25536 0.20619 0.84288 0.0
H457 H 0.1695 0.15449 0.83446 0.0
N458 N 0.2231 0.21421 0.80196 0.0
C459 C 0.17786 0.18761 0.79974 0.0
C460 C 0.22981 0.19889 0.82777 0.0
C461 C 0.19734 0.20932 0.78843 0.0
C462 C 0.18467 0.17117 0.82556 0.0
C463 C 0.21078 0.17695 0.8403 0.0
O464 O 0.2273 0.26738 0.79255 0.0
O465 O 0.26359 0.27467 0.73642 0.0
O466 O 0.30827 0.30026 0.74236 0.0
O467 O 0.29669 0.28099 0.79179 0.0
O468 O 0.22507 0.25665 0.7447 0.0
O469 O 0.26572 0.27618 0.82007 0.0
O470 O 0.32676 0.24996 0.70995 0.0
O471 O 0.28874 0.24073 0.76595 0.0
O472 O 0.24508 0.21429 0.76262 0.0
O473 O 0.25769 0.23176 0.71279 0.0
O474 O 0.32758 0.25702 0.75791 0.0
O475 O 0.28939 0.24202 0.68021 0.0
C476 C 0.23953 0.2722 0.72461 0.0
C477 C 0.22976 0.27702 0.84401 0.0
C478 C 0.21044 0.29578 0.87722 0.0
C479 C 0.22199 0.2975 0.84975 0.0
C480 C 0.20666 0.27312 0.89854 0.0
C481 C 0.22582 0.25477 0.86575 0.0
C482 C 0.2143 0.25286 0.8928 0.0
C483 C 0.30954 0.30063 0.77286 0.0
C484 C 0.24222 0.27913 0.81557 0.0
C485 C 0.21812 0.16213 0.86784 0.0
C486 C 0.24386 0.16976 0.88348 0.0
C487 C 0.31249 0.24202 0.77791 0.0
C488 C 0.32716 0.24359 0.6577 0.0
C489 C 0.33394 0.22344 0.64913 0.0
C490 C 0.34865 0.22782 0.62361 0.0
C491 C 0.356 0.2524 0.60662 0.0
C492 C 0.33454 0.26782 0.6401 0.0
C493 C 0.34883 0.27215 0.6147 0.0
C494 C 0.24534 0.21257 0.73277 0.0
C495 C 0.31307 0.23946 0.68544 0.0
H496 H 0.22528 0.3148 0.83309 0.0
H497 H 0.19739 0.27084 0.91954 0.0
H498 H 0.23171 0.23892 0.86185 0.0
H499 H 0.21123 0.23555 0.9094 0.0
H500 H 0.32839 0.20466 0.66268 0.0
H501 H 0.36721 0.25629 0.58689 0.0
H502 H 0.32941 0.28343 0.64609 0.0
H503 H 0.35452 0.29095 0.60132 0.0
Eu504 Eu 0.79352 0.23627 0.76404 0.0
C505 C 0.75347 0.30943 0.67412 0.0
C506 C 0.78819 0.3498 0.67224 0.0
C507 C 0.76091 0.33677 0.62405 0.0
C508 C 0.77452 0.32664 0.68933 0.0
C509 C 0.74589 0.31483 0.64142 0.0
C510 C 0.78192 0.35433 0.63949 0.0
C511 C 0.70599 0.27978 0.64639 0.0
N512 N 0.73855 0.28905 0.69176 0.0
C513 C 0.71388 0.27577 0.67871 0.0
C514 C 0.72243 0.29899 0.62746 0.0
Eu515 Eu 0.75525 0.28209 0.74648 0.0
N516 N 0.78053 0.32167 0.72104 0.0
C517 C 0.79836 0.34017 0.73726 0.0
C518 C 0.80736 0.36809 0.68863 0.0
C519 C 0.81222 0.36338 0.72126 0.0
H520 H 0.70005 0.26182 0.69311 0.0
H521 H 0.82655 0.37775 0.73402 0.0
H522 H 0.79265 0.37176 0.62603 0.0
H523 H 0.68695 0.26839 0.63624 0.0
H524 H 0.80213 0.3374 0.76257 0.0
H525 H 0.71845 0.14574 0.74313 0.0
H526 H 0.81793 0.38616 0.67634 0.0
H527 H 0.84185 0.24134 0.82588 0.0
H528 H 0.75035 0.18743 0.72916 0.0
H529 H 0.84757 0.2239 0.88213 0.0
H530 H 0.75558 0.34098 0.59893 0.0
H531 H 0.71546 0.12789 0.79918 0.0
H532 H 0.73331 0.13187 0.85601 0.0
H533 H 0.71603 0.30245 0.60248 0.0
H534 H 0.76843 0.15403 0.89459 0.0
N535 N 0.76326 0.19503 0.7764 0.0
C536 C 0.74829 0.18075 0.75356 0.0
C537 C 0.72908 0.14659 0.79307 0.0
C538 C 0.7461 0.16031 0.81634 0.0
C539 C 0.73062 0.15665 0.76146 0.0
C540 C 0.76359 0.18453 0.80704 0.0
H541 H 0.8117 0.18814 0.90447 0.0
N542 N 0.80198 0.21802 0.81751 0.0
C543 C 0.82915 0.21636 0.86751 0.0
C544 C 0.78334 0.19683 0.82853 0.0
C545 C 0.82573 0.22638 0.83577 0.0
C546 C 0.80885 0.19624 0.88004 0.0
C547 C 0.78605 0.18547 0.86016 0.0
O548 O 0.82974 0.2254 0.76781 0.0
O549 O 0.79154 0.274 0.73579 0.0
O550 O 0.73374 0.24608 0.7238 0.0
O551 O 0.76887 0.23381 0.71581 0.0
O552 O 0.82828 0.27156 0.75919 0.0
O553 O 0.80105 0.21851 0.72699 0.0
O554 O 0.71462 0.28334 0.74395 0.0
O555 O 0.75511 0.24218 0.76778 0.0
O556 O 0.80551 0.26153 0.80358 0.0
O557 O 0.78733 0.29512 0.78615 0.0
O558 O 0.7428 0.26218 0.79422 0.0
O559 O 0.74669 0.31001 0.76907 0.0
C560 C 0.8161 0.2862 0.74081 0.0
C561 C 0.82255 0.18737 0.74629 0.0
C562 C 0.82725 0.15194 0.72437 0.0
C563 C 0.82933 0.178 0.72194 0.0
C564 C 0.81839 0.13547 0.75134 0.0
C565 C 0.81435 0.1706 0.77332 0.0
C566 C 0.81216 0.14482 0.77572 0.0
C567 C 0.7441 0.2341 0.70829 0.0
C568 C 0.82229 0.21407 0.74268 0.0
C569 C 0.76699 0.16275 0.87026 0.0
C570 C 0.74706 0.15009 0.8483 0.0
C571 C 0.74606 0.24054 0.79322 0.0
C572 C 0.70973 0.32377 0.74607 0.0
C573 C 0.69886 0.33406 0.76592 0.0
C574 C 0.6885 0.3546 0.75407 0.0
C575 C 0.68899 0.36442 0.72197 0.0
C576 C 0.71005 0.33401 0.71422 0.0
C577 C 0.69966 0.35416 0.70227 0.0
C578 C 0.80232 0.28352 0.80665 0.0
C579 C 0.72144 0.30302 0.75918 0.0
H580 H 0.83573 0.19079 0.701 0.0
H581 H 0.81682 0.11541 0.75384 0.0
H582 H 0.80947 0.17737 0.79255 0.0
H583 H 0.80563 0.13205 0.79656 0.0
H584 H 0.69897 0.32641 0.79066 0.0
H585 H 0.68087 0.37993 0.71197 0.0
H586 H 0.71837 0.32654 0.69858 0.0
H587 H 0.69992 0.3619 0.67762 0.0
Eu588 Eu 0.76918 0.73839 0.71683 0.0
C589 C 0.83207 0.78148 0.83801 0.0
C590 C 0.82957 0.74352 0.87588 0.0
C591 C 0.86734 0.7814 0.88139 0.0
C592 C 0.81893 0.75637 0.8484 0.0
C593 C 0.85612 0.79445 0.85482 0.0
C594 C 0.85409 0.75598 0.8919 0.0
C595 C 0.8549 0.83297 0.81975 0.0
N596 N 0.82057 0.79369 0.81258 0.0
C597 C 0.83094 0.81935 0.80406 0.0
C598 C 0.86773 0.82039 0.84501 0.0
Eu599 Eu 0.78028 0.76939 0.78694 0.0
N600 N 0.79516 0.74491 0.83255 0.0
C601 C 0.78035 0.72109 0.844 0.0
C602 C 0.81493 0.71876 0.88693 0.0
C603 C 0.79011 0.7076 0.87106 0.0
H604 H 0.821 0.82908 0.78449 0.0
H605 H 0.7784 0.68863 0.87964 0.0
H606 H 0.86266 0.74632 0.91287 0.0
H607 H 0.86341 0.85314 0.81241 0.0
H608 H 0.76116 0.71202 0.83215 0.0
H609 H 0.75178 0.81216 0.62194 0.0
H610 H 0.82235 0.70835 0.90806 0.0
H611 H 0.73839 0.67533 0.72269 0.0
H612 H 0.77689 0.7933 0.66706 0.0
H613 H 0.69727 0.64544 0.7002 0.0
H614 H 0.88591 0.79098 0.89445 0.0
H615 H 0.70734 0.78667 0.6005 0.0
H616 H 0.67193 0.74435 0.60109 0.0
H617 H 0.8862 0.83102 0.85729 0.0
H618 H 0.65715 0.69884 0.62225 0.0
N619 N 0.74682 0.75766 0.6722 0.0
C620 C 0.75763 0.78187 0.65806 0.0
C621 C 0.7183 0.77828 0.62044 0.0
C622 C 0.70808 0.75291 0.63362 0.0
C623 C 0.7434 0.79268 0.63239 0.0
C624 C 0.72311 0.74297 0.65967 0.0
H625 H 0.66669 0.66171 0.65882 0.0
N626 N 0.73072 0.70832 0.69515 0.0
C627 C 0.70189 0.66567 0.69202 0.0
C628 C 0.71483 0.71743 0.67145 0.0
C629 C 0.72518 0.68266 0.70468 0.0
C630 C 0.68465 0.67493 0.66873 0.0
C631 C 0.69124 0.70104 0.65774 0.0
O632 O 0.78715 0.71116 0.70625 0.0
O633 O 0.79238 0.74146 0.76565 0.0
O634 O 0.81862 0.7836 0.7652 0.0
O635 O 0.80132 0.77666 0.71375 0.0
O636 O 0.77507 0.70543 0.75316 0.0
O637 O 0.79407 0.74822 0.67877 0.0
O638 O 0.76952 0.80172 0.79644 0.0
O639 O 0.75709 0.76627 0.73852 0.0
O640 O 0.73081 0.72173 0.73763 0.0
O641 O 0.74331 0.73499 0.78757 0.0
O642 O 0.7756 0.80256 0.7503 0.0
O643 O 0.75407 0.76449 0.82244 0.0
C644 C 0.79008 0.71792 0.77508 0.0
C645 C 0.79272 0.71375 0.65302 0.0
C646 C 0.80516 0.68887 0.62044 0.0
C647 C 0.81033 0.70137 0.64742 0.0
C648 C 0.78235 0.68926 0.59913 0.0
C649 C 0.77024 0.71391 0.63123 0.0
C650 C 0.76513 0.70175 0.60448 0.0
C651 C 0.82029 0.78817 0.73468 0.0
C652 C 0.79741 0.72578 0.68196 0.0
C653 C 0.67548 0.71108 0.6329 0.0
C654 C 0.68388 0.73699 0.62087 0.0
C655 C 0.75954 0.78983 0.72911 0.0
C656 C 0.75953 0.80068 0.84746 0.0
C657 C 0.74381 0.81599 0.85013 0.0
C658 C 0.74821 0.82846 0.87698 0.0
C659 C 0.76844 0.82514 0.9011 0.0
C660 C 0.77947 0.79768 0.8719 0.0
C661 C 0.78385 0.80985 0.89854 0.0
C662 C 0.72655 0.72118 0.76671 0.0
C663 C 0.75545 0.78858 0.81876 0.0
H664 H 0.82767 0.70108 0.66426 0.0
H665 H 0.77798 0.68016 0.578 0.0
H666 H 0.7566 0.72342 0.63486 0.0
H667 H 0.74772 0.702 0.58781 0.0
H668 H 0.72851 0.81849 0.83114 0.0
H669 H 0.77211 0.83409 0.92224 0.0
H670 H 0.79165 0.78596 0.8704 0.0
H671 H 0.79925 0.80739 0.91734 0.0
Co672 Co 0.04674 0.96943 0.47806 0.0
Co673 Co 0.06527 0.97834 0.5355 0.0
Co674 Co 0.02632 0.01106 0.50817 0.0
O675 O 0.05419 0.99772 0.50027 0.0
H676 H 0.06937 0.01136 0.49356 0.0
O677 O 0.99886 0.02584 0.51493 0.0
Co678 Co 0.99409 0.03497 0.55432 0.0
Co679 Co 1.01421 0.06012 0.50833 0.0
H680 H 0.98258 0.02063 0.50099 0.0
O681 O 0.0993 0.97715 0.54041 0.0
O682 O 0.06266 0.9509 0.51591 0.0
O683 O 0.04416 0.96794 0.5698 0.0
O684 O 1.01197 0.98298 0.5426 0.0
O685 O 0.05349 0.02973 0.53957 0.0
O686 O 0.98682 0.04213 0.58901 0.0
O687 O 0.95867 0.031 0.54562 0.0
O688 O 0.03002 0.04031 0.56933 0.0
O689 O 0.03959 0.03906 0.47329 0.0
O690 O 0.0498 0.07347 0.4969 0.0
O691 O 1.0023 0.07248 0.53682 0.0
O692 O 0.99279 0.07595 0.48345 0.0
C693 C 0.06635 0.95787 0.45007 0.0
C694 C 0.99593 0.96748 0.4763 0.0
C695 C 1.02083 0.96963 0.56639 0.0
C696 C 0.0881 0.95757 0.52527 0.0
C697 C 0.96314 0.03791 0.57378 0.0
C698 C 0.05174 0.03872 0.56362 0.0
C699 C 0.05328 0.06216 0.4759 0.0
C700 C 0.99121 0.08215 0.51031 0.0
O701 O 0.04266 0.94416 0.4562 0.0
O702 O 0.07753 0.97936 0.46162 0.0
O703 O 1.00016 0.99123 0.47676 0.0
O704 O 1.01265 0.95642 0.49128 0.0
Co705 Co 0.55502 0.96295 0.99189 0.0
Co706 Co 0.55963 0.97436 0.0464 0.0
Co707 Co 0.5225 1.00725 0.99798 0.0
O708 O 0.55465 0.99352 0.00719 0.0
H709 H 0.57074 1.00723 0.00373 0.0
O710 O 0.4903 0.02104 0.98959 0.0
Co711 Co 0.49109 0.0522 0.00489 0.0
Co712 Co 0.48429 0.0397 0.95077 0.0
H713 H 0.47429 1.00747 0.99384 0.0
O714 O 0.59325 0.97356 0.06657 0.0
O715 O 0.56531 0.94536 0.03591 0.0
O716 O 0.52936 0.9643 0.0692 0.0
O717 O 0.50427 0.98458 0.03467 0.0
O718 O 0.5429 0.03453 0.02491 0.0
O719 O 0.48964 0.07867 0.02099 0.0
O720 O 0.45673 0.04254 0.01325 0.0
O721 O 0.52763 0.06632 0.99967 0.0
O722 O 0.5406 0.03 0.96077 0.0
O723 O 0.51364 0.04922 0.92767 0.0
O724 O 0.48009 0.06938 0.96124 0.0
O725 O 0.45073 0.04123 0.93158 0.0
C726 C 0.58193 0.95145 0.97393 0.0
C727 C 0.50028 0.95603 0.97781 0.0
C728 C 0.50767 0.96949 0.05991 0.0
C729 C 0.58705 0.95188 0.05579 0.0
C730 C 0.46524 0.06488 0.02327 0.0
C731 C 0.54552 0.05836 0.0177 0.0
C732 C 0.5358 0.0448 0.9357 0.0
C733 C 0.4579 0.06313 0.94206 0.0
O734 O 0.55767 0.93699 0.97562 0.0
O735 O 0.5896 0.97348 0.98463 0.0
O736 O 0.50216 0.97978 0.97113 0.0
O737 O 0.51836 0.94828 0.99579 0.0
Co738 Co 0.05426 0.46037 1.00009 0.0
Co739 Co 0.06045 0.47278 0.05391 0.0
Co740 Co 1.02322 0.50588 0.0053 0.0
O741 O 0.05522 0.49173 0.01489 0.0
H742 H 0.07141 0.50514 0.01092 0.0
O743 O 0.99134 0.52037 0.99512 0.0
Co744 Co 0.99339 0.55277 0.00834 0.0
Co745 Co 0.98681 0.53874 0.95494 0.0
H746 H 0.97504 0.50731 0.99959 0.0
O747 O 0.094 0.47163 0.07414 0.0
O748 O 0.06574 0.44343 0.04384 0.0
O749 O 0.03005 0.4627 0.07564 0.0
O750 O 1.00458 0.48367 0.04265 0.0
O751 O 0.04346 0.53363 0.03142 0.0
O752 O 0.99346 0.58057 0.0226 0.0
O753 O 0.95932 0.54492 0.01751 0.0
O754 O 0.02955 0.56498 0.00226 0.0
O755 O 0.0421 0.52805 0.96845 0.0
O756 O 1.01723 0.54764 0.93248 0.0
O757 O 0.98243 0.56896 0.96392 0.0
O758 O 0.95345 0.54051 0.93451 0.0
C759 C 0.07986 0.44725 0.98217 0.0
C760 C 0.99964 0.4543 0.98841 0.0
C761 C 1.00835 0.46799 0.06736 0.0
C762 C 0.08772 0.44995 0.06333 0.0
C763 C 0.96897 0.56782 0.026 0.0
C764 C 0.04662 0.55737 0.02229 0.0
C765 C 0.03895 0.54271 0.94264 0.0
C766 C 0.96037 0.56255 0.94456 0.0
O767 O 0.05548 0.43356 0.98472 0.0
O768 O 0.08841 0.46999 0.99107 0.0
O769 O 1.00286 0.47806 0.97923 0.0
O770 O 1.01787 0.44645 0.00589 0.0
Co771 Co 0.54391 0.4763 0.9658 0.0
Co772 Co 0.56536 0.48806 0.02211 0.0
Co773 Co 0.52185 0.51625 0.99797 0.0
O774 O 0.55092 0.50568 0.98699 0.0
H775 H 0.56479 0.52002 0.97865 0.0
O776 O 0.49264 0.52678 0.00883 0.0
Co777 Co 0.49949 0.55494 0.03205 0.0
Co778 Co 0.47873 0.54587 0.97495 0.0
H779 H 0.4785 0.51228 0.01627 0.0
O780 O 0.59947 0.48692 0.02364 0.0
O781 O 0.56139 0.45986 0.00351 0.0
O782 O 0.54646 0.47668 0.05837 0.0
O783 O 0.5111 0.48729 0.03267 0.0
O784 O 0.54815 0.53673 0.0288 0.0
O785 O 0.50283 0.57966 0.05466 0.0
O786 O 0.46874 0.54389 0.04946 0.0
O787 O 0.53285 0.56982 0.01746 0.0
O788 O 0.53256 0.54522 0.9632 0.0
O789 O 0.49805 0.55816 0.93917 0.0
O790 O 0.48312 0.57327 0.99541 0.0
O791 O 0.44488 0.5481 0.97333 0.0
C792 C 0.56348 0.46435 0.93742 0.0
C793 C 0.49284 0.47205 0.96702 0.0
C794 C 0.52239 0.47589 0.05632 0.0
C795 C 0.587 0.46653 0.01043 0.0
C796 C 0.47934 0.56549 0.06099 0.0
C797 C 0.55107 0.56004 0.03017 0.0
C798 C 0.52168 0.55782 0.94045 0.0
C799 C 0.45764 0.56781 0.98773 0.0
O800 O 0.5404 0.45021 0.9452 0.0
O801 O 0.57414 0.48662 0.94728 0.0
O802 O 0.4958 0.49557 0.96725 0.0
O803 O 0.51077 0.46231 0.98124 0.0
Co804 Co 0.0753 0.47832 0.52829 0.0
Co805 Co 0.0529 0.47744 0.4707 0.0
Co806 Co 0.02466 0.51004 0.49877 0.0
O807 O 0.03969 0.47964 0.50649 0.0
H808 H 0.02622 0.46384 0.51199 0.0
O809 O 1.01001 0.54073 0.49072 0.0
Co810 Co 0.97503 0.54237 0.46786 0.0
Co811 Co 0.99651 0.5439 0.52554 0.0
H812 H 1.02363 0.5564 0.48515 0.0
O813 O 0.05262 0.44692 0.46134 0.0
O814 O 0.08632 0.47501 0.48758 0.0
O815 O 0.05719 0.5055 0.43741 0.0
O816 O 0.04741 0.53064 0.46461 0.0
O817 O 0.99559 0.49256 0.46781 0.0
O818 O 0.94433 0.54646 0.44596 0.0
O819 O 0.98205 0.57761 0.45529 0.0
O820 O 0.96218 0.50584 0.47581 0.0
O821 O 1.00182 0.48958 0.53311 0.0
O822 O 0.99062 0.51551 0.55784 0.0
O823 O 0.9634 0.54661 0.50755 0.0
O824 O 0.99659 0.57505 0.53361 0.0
C825 C 0.094 0.44995 0.55207 0.0
C826 C 0.07827 0.5317 0.52864 0.0
C827 C 0.05715 0.52737 0.44139 0.0
C828 C 0.07749 0.45492 0.47252 0.0
C829 C 0.95715 0.5707 0.44269 0.0
C830 C 0.97092 0.48906 0.46851 0.0
C831 C 0.99099 0.49345 0.55504 0.0
C832 C 0.972 0.56732 0.52132 0.0
O833 O 0.10653 0.47428 0.54908 0.0
O834 O 0.06895 0.44296 0.54005 0.0
O835 O 0.05354 0.52733 0.52981 0.0
O836 O 0.08772 0.5153 0.52149 0.0
Co837 Co 0.5748 0.9761 0.53735 0.0
Co838 Co 0.5557 0.97872 0.47846 0.0
Co839 Co 0.52502 1.00797 0.50779 0.0
O840 O 0.54024 0.97796 0.51355 0.0
H841 H 0.52666 0.96181 0.51693 0.0
O842 O 0.5099 0.03833 0.50165 0.0
Co843 Co 0.47745 0.04245 0.47343 0.0
Co844 Co 0.48972 0.03613 0.53302 0.0
H845 H 0.52397 0.05432 0.5011 0.0
O846 O 0.55634 0.94899 0.46732 0.0
O847 O 0.58859 0.97566 0.49705 0.0
O848 O 0.56078 1.00885 0.44776 0.0
O849 O 0.55087 0.03161 0.47831 0.0
O850 O 0.49944 0.99396 0.472 0.0
O851 O 0.44921 0.04847 0.4476 0.0
O852 O 0.48551 0.07823 0.46499 0.0
O853 O 0.46393 1.00567 0.4761 0.0
O854 O 0.49885 0.98378 0.53711 0.0
O855 O 0.47682 1.00398 0.55687 0.0
O856 O 0.4603 0.04385 0.51052 0.0
O857 O 0.49064 0.06502 0.54722 0.0
C858 C 0.59286 0.94723 0.56079 0.0
C859 C 0.57615 0.0271 0.54449 0.0
C860 C 0.56103 0.03011 0.45442 0.0
C861 C 0.58056 0.95619 0.48096 0.0
C862 C 0.46183 0.0725 0.44868 0.0
C863 C 0.47441 0.9899 0.46935 0.0
C864 C 0.48173 0.98385 0.55428 0.0
C865 C 0.46832 0.06191 0.52886 0.0
O866 O 0.6052 0.97152 0.5601 0.0
O867 O 0.56857 0.94061 0.54624 0.0
O868 O 0.55102 0.02197 0.54358 0.0
O869 O 0.58652 0.01298 0.53384 0.0
H870 H 0.18523 0.20909 0.25114 0.0
H871 H 0.15061 0.17536 0.27779 0.0
H872 H 0.20715 0.17017 0.36025 0.0
H873 H 0.24136 0.20344 0.33413 0.0
H874 H 0.17392 0.12258 0.34681 0.0
H875 H 0.16973 0.20668 0.35752 0.0
H876 H 0.16471 0.24906 0.33607 0.0
H877 H 0.08831 0.21386 0.28773 0.0
H878 H 0.09308 0.17124 0.30861 0.0
H879 H 0.08659 0.11086 0.47523 0.0
H880 H 0.11479 0.13539 0.43502 0.0
H881 H 0.08812 0.07136 0.38229 0.0
H882 H 0.06017 0.04645 0.42272 0.0
H883 H 0.10213 0.15021 0.37345 0.0
H884 H 0.13955 0.07274 0.34414 0.0
H885 H 0.14645 0.0316 0.36876 0.0
H886 H 0.15979 0.05556 0.46023 0.0
H887 H 0.15324 0.0969 0.43614 0.0
C888 C 0.19022 0.20053 0.27484 0.0
C889 C 0.21585 0.20923 0.29081 0.0
C890 C 0.17051 0.18128 0.28995 0.0
C891 C 0.17639 0.17037 0.321 0.0
C892 C 0.20224 0.17828 0.33628 0.0
C893 C 0.22171 0.19759 0.32143 0.0
C894 C 0.15546 0.1525 0.33913 0.0
C895 C 0.15792 0.12839 0.35224 0.0
C896 C 0.13489 0.16028 0.34652 0.0
C897 C 0.13189 0.18584 0.33429 0.0
C898 C 0.15195 0.208 0.34214 0.0
C899 C 0.14914 0.23205 0.33012 0.0
C900 C 0.12624 0.23415 0.31047 0.0
C901 C 0.10606 0.2122 0.3029 0.0
C902 C 0.1088 0.1881 0.31482 0.0
C903 C 0.08675 0.10194 0.45514 0.0
C904 C 0.07108 0.07672 0.45215 0.0
C905 C 0.10278 0.11603 0.4321 0.0
C906 C 0.1035 0.1052 0.40567 0.0
C907 C 0.08798 0.08001 0.40262 0.0
C908 C 0.07202 0.06582 0.42576 0.0
C909 C 0.1208 0.1204 0.3816 0.0
C910 C 0.11764 0.14402 0.36738 0.0
C911 C 0.14096 0.11229 0.3736 0.0
C912 C 0.14563 0.08778 0.38834 0.0
C913 C 0.14407 0.06925 0.36949 0.0
C914 C 0.14789 0.04589 0.38336 0.0
C915 C 0.15348 0.04094 0.41604 0.0
C916 C 0.15537 0.05938 0.43493 0.0
C917 C 0.15158 0.08276 0.42118 0.0
H918 H 0.15641 0.02285 0.42673 0.0
H919 H 0.1241 0.25279 0.30117 0.0
H920 H 0.78282 0.1252 0.40709 0.0
H921 H 0.80759 0.11805 0.4585 0.0
H922 H 0.87691 0.17607 0.42769 0.0
H923 H 0.85303 0.1829 0.37635 0.0
H924 H 0.84721 0.10002 0.45681 0.0
H925 H 0.921 0.19851 0.48909 0.0
H926 H 0.91808 0.24088 0.49293 0.0
H927 H 0.83582 0.20837 0.50518 0.0
H928 H 0.83832 0.1656 0.50237 0.0
H929 H 0.97298 0.1105 0.45943 0.0
H930 H 0.93682 0.12829 0.45592 0.0
H931 H 0.93587 0.10995 0.55636 0.0
H932 H 0.97379 0.09349 0.56028 0.0
H933 H 0.91949 0.15796 0.52038 0.0
H934 H 0.8999 0.06638 0.52201 0.0
H935 H 0.9065 0.02884 0.5056 0.0
H936 H 0.88358 0.05447 0.40919 0.0
H937 H 0.87771 0.09238 0.42472 0.0
C938 C 0.80322 0.1368 0.41122 0.0
C939 C 0.81577 0.15452 0.38697 0.0
C940 C 0.81718 0.133 0.44098 0.0
C941 C 0.844 0.14672 0.44711 0.0
C942 C 0.85601 0.16573 0.42389 0.0
C943 C 0.84217 0.1695 0.39417 0.0
C944 C 0.86128 0.1368 0.47304 0.0
C945 C 0.86257 0.11243 0.47149 0.0
C946 C 0.88117 0.15301 0.49236 0.0
C947 C 0.87986 0.17867 0.49546 0.0
C948 C 0.90234 0.20023 0.49305 0.0
C949 C 0.90074 0.22439 0.49493 0.0
C950 C 0.87676 0.22734 0.49915 0.0
C951 C 0.85435 0.20609 0.50171 0.0
C952 C 0.85586 0.18186 0.5 0.0
C953 C 0.96567 0.11081 0.481 0.0
C954 C 0.97499 0.09907 0.51005 0.0
C955 C 0.94506 0.12115 0.47893 0.0
C956 C 0.93309 0.11948 0.50571 0.0
C957 C 0.94451 0.11085 0.53536 0.0
C958 C 0.96578 0.10105 0.53752 0.0
C959 C 0.90641 0.12256 0.50093 0.0
C960 C 0.90341 0.14528 0.50683 0.0
C961 C 0.88535 0.10547 0.48396 0.0
C962 C 0.88821 0.08215 0.47473 0.0
C963 C 0.89633 0.06397 0.49738 0.0
C964 C 0.89999 0.04269 0.48822 0.0
C965 C 0.89532 0.03923 0.4565 0.0
C966 C 0.88709 0.0571 0.4338 0.0
C967 C 0.8836 0.07849 0.44278 0.0
H968 H 0.89813 0.02273 0.44951 0.0
H969 H 0.87557 0.24607 0.50055 0.0
H970 H 0.84007 0.85161 0.24679 0.0
H971 H 0.87154 0.88599 0.27443 0.0
H972 H 0.84133 0.8481 0.36184 0.0
H973 H 0.81062 0.81384 0.33503 0.0
H974 H 0.85078 0.89982 0.35574 0.0
H975 H 0.89338 0.83804 0.34172 0.0
H976 H 0.90848 0.81482 0.30916 0.0
H977 H 0.95688 0.8857 0.26548 0.0
H978 H 0.94157 0.90938 0.29733 0.0
H979 H 0.98168 0.91741 0.46739 0.0
H980 H 0.94865 0.89638 0.42683 0.0
H981 H 0.92984 0.96659 0.39183 0.0
H982 H 0.96238 0.98766 0.43273 0.0
H983 H 0.9457 0.90548 0.36389 0.0
H984 H 0.86429 0.95172 0.36187 0.0
H985 H 0.84809 0.97229 0.39668 0.0
H986 H 0.87665 0.92772 0.47774 0.0
H987 H 0.89275 0.90671 0.44339 0.0
C988 C 0.84019 0.85062 0.27187 0.0
C989 C 0.82331 0.8296 0.28877 0.0
C990 C 0.85799 0.87037 0.28754 0.0
C991 C 0.85879 0.86943 0.32018 0.0
C992 C 0.84095 0.84921 0.33663 0.0
C993 C 0.82349 0.82949 0.32118 0.0
C994 C 0.87951 0.88795 0.33832 0.0
C995 C 0.87162 0.90146 0.35714 0.0
C996 C 0.90659 0.88976 0.34034 0.0
C997 C 0.91604 0.87549 0.32155 0.0
C998 C 0.90706 0.84868 0.32497 0.0
C999 C 0.91566 0.83544 0.30665 0.0
C1000 C 0.93355 0.84878 0.28518 0.0
C1001 C 0.94294 0.8754 0.28204 0.0
C1002 C 0.93428 0.88874 0.30018 0.0
C1003 C 0.97036 0.92834 0.45126 0.0
C1004 C 0.97461 0.95418 0.45336 0.0
C1005 C 0.95165 0.91634 0.42794 0.0
C1006 C 0.93683 0.92993 0.40633 0.0
C1007 C 0.9409 0.9557 0.40845 0.0
C1008 C 0.95949 0.96768 0.43189 0.0
C1009 C 0.91689 0.91686 0.38193 0.0
C1010 C 0.92499 0.90445 0.36189 0.0
C1011 C 0.88992 0.91571 0.37916 0.0
C1012 C 0.87999 0.9279 0.40008 0.0
C1013 C 0.86703 0.94628 0.38712 0.0
C1014 C 0.85788 0.95802 0.40676 0.0
C1015 C 0.86143 0.95139 0.43941 0.0
C1016 C 0.87402 0.93292 0.45246 0.0
C1017 C 0.88319 0.92111 0.43292 0.0
H1018 H 0.85436 0.96052 0.45457 0.0
H1019 H 0.9402 0.8385 0.27102 0.0
H1020 H 0.22332 0.90863 0.29746 0.0
H1021 H 0.20003 0.92257 0.33108 0.0
H1022 H 0.14368 0.84739 0.3408 0.0
H1023 H 0.16688 0.83337 0.30692 0.0
H1024 H 0.11941 0.88402 0.32351 0.0
H1025 H 0.18548 0.86729 0.40346 0.0
H1026 H 0.22985 0.86799 0.43071 0.0
H1027 H 0.25165 0.94935 0.42683 0.0
H1028 H 0.20752 0.94921 0.39909 0.0
H1029 H 0.05349 0.90971 0.4352 0.0
H1030 H 0.07872 0.89243 0.40836 0.0
H1031 H 0.13809 0.9659 0.39837 0.0
H1032 H 0.11307 0.98326 0.42596 0.0
H1033 H 0.16055 0.92891 0.41676 0.0
H1034 H 0.09179 0.94313 0.33559 0.0
H1035 H 0.04567 0.93948 0.31248 0.0
H1036 H 0.02701 0.85794 0.32369 0.0
H1037 H 0.07296 0.86108 0.34726 0.0
C1038 C 0.20607 0.89503 0.30695 0.0
C1039 C 0.19679 0.86996 0.29943 0.0
C1040 C 0.19292 0.90295 0.32637 0.0
C1041 C 0.17018 0.88599 0.33855 0.0
C1042 C 0.16122 0.86076 0.33169 0.0
C1043 C 0.17454 0.85275 0.31248 0.0
C1044 C 0.1547 0.89528 0.35628 0.0
C1045 C 0.12823 0.89333 0.34434 0.0
C1046 C 0.16638 0.90791 0.38303 0.0
C1047 C 0.19328 0.90827 0.39876 0.0
C1048 C 0.19985 0.88539 0.40799 0.0
C1049 C 0.22493 0.88567 0.42365 0.0
C1050 C 0.2436 0.90871 0.43039 0.0
C1051 C 0.2372 0.93152 0.42151 0.0
C1052 C 0.21215 0.93135 0.40582 0.0
C1053 C 0.07178 0.9223 0.42703 0.0
C1054 C 0.08115 0.94795 0.43237 0.0
C1055 C 0.0862 0.91237 0.41167 0.0
C1056 C 0.11008 0.92796 0.40086 0.0
C1057 C 0.11962 0.95356 0.40636 0.0
C1058 C 0.10527 0.96348 0.42198 0.0
C1059 C 0.12522 0.91738 0.38424 0.0
C1060 C 0.15166 0.9193 0.39619 0.0
C1061 C 0.11334 0.90423 0.35792 0.0
C1062 C 0.08577 0.90234 0.34341 0.0
C1063 C 0.07782 0.92441 0.3333 0.0
C1064 C 0.05171 0.92243 0.32009 0.0
C1065 C 0.0334 0.89849 0.31668 0.0
C1066 C 0.0412 0.87647 0.32637 0.0
C1067 C 0.06728 0.87834 0.33962 0.0
H1068 H 1.01319 0.897 0.30648 0.0
H1069 H 0.26298 0.90888 0.44259 0.0
H1070 H 0.28333 0.8906 0.6292 0.0
H1071 H 0.26174 0.90163 0.57634 0.0
H1072 H 0.18523 0.86323 0.60791 0.0
H1073 H 0.20621 0.85296 0.6602 0.0
H1074 H 0.18558 0.85849 0.5446 0.0
H1075 H 0.2169 0.9266 0.61743 0.0
H1076 H 0.25393 0.95648 0.64658 0.0
H1077 H 0.2909 0.98632 0.56201 0.0
H1078 H 0.25414 0.9564 0.5325 0.0
H1079 H 0.08425 0.90726 0.53986 0.0
H1080 H 0.119 0.88828 0.53861 0.0
H1081 H 0.16409 0.95885 0.48895 0.0
H1082 H 0.13028 0.97834 0.49296 0.0
H1083 H 0.19294 0.95009 0.53572 0.0
H1084 H 0.1485 0.89689 0.46096 0.0
H1085 H 0.11283 0.86775 0.42945 0.0
H1086 H 0.10193 0.81032 0.51014 0.0
H1087 H 0.13752 0.83908 0.54206 0.0
C1088 C 0.26191 0.8843 0.62467 0.0
C1089 C 0.24652 0.8711 0.64906 0.0
C1090 C 0.24965 0.8903 0.5944 0.0
C1091 C 0.22189 0.8832 0.58823 0.0
C1092 C 0.20667 0.86857 0.61197 0.0
C1093 C 0.21879 0.86276 0.64204 0.0
C1094 C 0.20805 0.89468 0.55993 0.0
C1095 C 0.18722 0.87858 0.54199 0.0
C1096 C 0.21121 0.9211 0.55527 0.0
C1097 C 0.23301 0.9392 0.57291 0.0
C1098 C 0.23298 0.93952 0.60514 0.0
C1099 C 0.25391 0.95642 0.6217 0.0
C1100 C 0.27479 0.97325 0.60617 0.0
C1101 C 0.27474 0.97325 0.57402 0.0
C1102 C 0.25389 0.95632 0.55738 0.0
C1103 C 0.10127 0.91837 0.52794 0.0
C1104 C 0.10502 0.94425 0.51709 0.0
C1105 C 0.12107 0.90746 0.52676 0.0
C1106 C 0.14449 0.92211 0.51378 0.0
C1107 C 0.14652 0.94719 0.49951 0.0
C1108 C 0.12724 0.95834 0.50184 0.0
C1109 C 0.16862 0.91351 0.52203 0.0
C1110 C 0.19157 0.93023 0.5363 0.0
C1111 C 0.16754 0.88777 0.52261 0.0
C1112 C 0.1458 0.87023 0.50385 0.0
C1113 C 0.13843 0.8781 0.47197 0.0
C1114 C 0.11823 0.86164 0.45404 0.0
C1115 C 0.10508 0.83724 0.46781 0.0
C1116 C 0.11218 0.82923 0.49949 0.0
C1117 C 0.13248 0.84557 0.51747 0.0
H1118 H 0.08941 0.82453 0.45391 0.0
H1119 H 0.29097 0.98633 0.61902 0.0
H1120 H 0.19998 0.17694 0.75032 0.0
H1121 H 0.17421 0.13942 0.72532 0.0
H1122 H 0.23415 0.15492 0.6637 0.0
H1123 H 0.25908 0.19334 0.68752 0.0
H1124 H 0.19007 0.14723 0.63042 0.0
H1125 H 0.22069 0.10105 0.72326 0.0
H1126 H 0.23124 0.08945 0.78033 0.0
H1127 H 0.14878 0.06758 0.79172 0.0
H1128 H 0.13774 0.07943 0.7348 0.0
H1129 H 0.10293 0.04362 0.55665 0.0
H1130 H 0.14306 0.06373 0.59023 0.0
H1131 H 0.09535 0.07577 0.6528 0.0
H1132 H 0.05524 0.05558 0.61976 0.0
H1133 H 0.14105 0.06353 0.68452 0.0
H1134 H 0.11475 0.12046 0.59337 0.0
H1135 H 0.10452 0.13165 0.53608 0.0
H1136 H 0.18184 0.13198 0.52225 0.0
H1137 H 0.19234 0.12038 0.57945 0.0
C1138 C 0.20772 0.17223 0.7317 0.0
C1139 C 0.23118 0.18831 0.72046 0.0
C1140 C 0.19316 0.15056 0.7176 0.0
C1141 C 0.20236 0.14413 0.69277 0.0
C1142 C 0.22657 0.15953 0.68269 0.0
C1143 C 0.24074 0.18153 0.69623 0.0
C1144 C 0.18531 0.12313 0.67511 0.0
C1145 C 0.18001 0.12867 0.64228 0.0
C1146 C 0.17196 0.09893 0.69046 0.0
C1147 C 0.1784 0.09123 0.72469 0.0
C1148 C 0.2048 0.09387 0.73793 0.0
C1149 C 0.21088 0.08725 0.77027 0.0
C1150 C 0.1907 0.07781 0.78964 0.0
C1151 C 0.16439 0.07488 0.77668 0.0
C1152 C 0.1582 0.0815 0.74436 0.0
C1153 C 0.10096 0.0502 0.57782 0.0
C1154 C 0.07593 0.04851 0.5852 0.0
C1155 C 0.12389 0.06152 0.59703 0.0
C1156 C 0.12205 0.07134 0.62377 0.0
C1157 C 0.0971 0.0682 0.63228 0.0
C1158 C 0.07422 0.05694 0.61313 0.0
C1159 C 0.14565 0.08811 0.64041 0.0
C1160 C 0.15199 0.08181 0.67287 0.0
C1161 C 0.16026 0.11153 0.62479 0.0
C1162 C 0.15422 0.11931 0.59058 0.0
C1163 C 0.12951 0.12283 0.57807 0.0
C1164 C 0.12367 0.12923 0.54564 0.0
C1165 C 0.1425 0.13246 0.52553 0.0
C1166 C 0.16726 0.12942 0.53784 0.0
C1167 C 0.17317 0.12294 0.57026 0.0
H1168 H 0.13792 0.13737 0.50042 0.0
H1169 H 0.19545 0.07273 0.81468 0.0
H1170 H 0.87441 0.1685 0.70047 0.0
H1171 H 0.88975 0.14732 0.66627 0.0
H1172 H 0.81279 0.09098 0.65806 0.0
H1173 H 0.79791 0.11158 0.69354 0.0
H1174 H 0.84671 0.06737 0.67003 0.0
H1175 H 0.83924 0.13815 0.59526 0.0
H1176 H 0.84483 0.18326 0.574 0.0
H1177 H 0.92908 0.19806 0.58324 0.0
H1178 H 0.92415 0.15327 0.60549 0.0
H1179 H 0.90854 0.02201 0.55988 0.0
H1180 H 0.87701 0.03908 0.57724 0.0
H1181 H 0.94111 0.08563 0.6352 0.0
H1182 H 0.97221 0.06858 0.6187 0.0
H1183 H 0.90401 0.11098 0.58628 0.0
H1184 H 0.90864 0.04154 0.67342 0.0
H1185 H 0.90205 0.99593 0.69279 0.0
H1186 H 0.82016 0.97853 0.65377 0.0
H1187 H 0.82644 0.02404 0.63367 0.0
C1188 C 0.86065 0.15192 0.69078 0.0
C1189 C 0.83502 0.14165 0.69959 0.0
C1190 C 0.86936 0.13983 0.67109 0.0
C1191 C 0.85237 0.11759 0.65915 0.0
C1192 C 0.82634 0.10802 0.66693 0.0
C1193 C 0.8178 0.11983 0.68709 0.0
C1194 C 0.86258 0.10314 0.64113 0.0
C1195 C 0.85874 0.07694 0.65123 0.0
C1196 C 0.87824 0.11532 0.61635 0.0
C1197 C 0.8813 0.1423 0.60247 0.0
C1198 C 0.85899 0.15105 0.59309 0.0
C1199 C 0.86206 0.1766 0.58092 0.0
C1200 C 0.88731 0.19354 0.57755 0.0
C1201 C 0.90954 0.18493 0.58606 0.0
C1202 C 0.90662 0.15946 0.5985 0.0
C1203 C 0.91579 0.03586 0.57629 0.0
C1204 C 0.94295 0.04449 0.58712 0.0
C1205 C 0.89781 0.04549 0.58628 0.0
C1206 C 0.90694 0.06402 0.60692 0.0
C1207 C 0.93378 0.07164 0.61887 0.0
C1208 C 0.95148 0.06165 0.60957 0.0
C1209 C 0.88907 0.07599 0.61637 0.0
C1210 C 0.89144 0.10157 0.60456 0.0
C1211 C 0.87186 0.06329 0.63918 0.0
C1212 C 0.86808 0.03609 0.65171 0.0
C1213 C 0.8893 0.02794 0.66871 0.0
C1214 C 0.88561 1.00213 0.67987 0.0
C1215 C 0.86072 0.98433 0.67443 0.0
C1216 C 0.83945 0.99233 0.65791 0.0
C1217 C 0.84306 0.01812 0.64663 0.0
H1218 H 0.8579 0.96435 0.68309 0.0
H1219 H 0.88966 0.21333 0.56822 0.0
H1220 H 0.82239 0.81437 0.67587 0.0
H1221 H 0.85983 0.84654 0.65446 0.0
H1222 H 0.90799 0.84035 0.74405 0.0
H1223 H 0.8698 0.80818 0.76626 0.0
H1224 H 0.91767 0.8905 0.71489 0.0
H1225 H 0.91406 0.81049 0.68695 0.0
H1226 H 0.89192 0.76911 0.66725 0.0
H1227 H 0.87058 0.80759 0.57674 0.0
H1228 H 0.89222 0.8492 0.59603 0.0
H1229 H 0.03298 0.9476 0.62641 0.0
H1230 H 1.00185 0.91853 0.66168 0.0
H1231 H 0.93623 0.92626 0.59226 0.0
H1232 H 0.96691 0.95565 0.55725 0.0
H1233 H 0.94098 0.87333 0.6171 0.0
H1234 H 0.9391 0.95216 0.64728 0.0
H1235 H 0.95942 0.99373 0.66701 0.0
H1236 H 0.99143 0.95711 0.75303 0.0
H1237 H 0.9715 0.91532 0.73361 0.0
C1238 C 0.84083 0.81975 0.69119 0.0
C1239 C 0.84321 0.8084 0.72266 0.0
C1240 C 0.86228 0.83822 0.67886 0.0
C1241 C 0.88686 0.8454 0.69743 0.0
C1242 C 0.8892 0.8349 0.72927 0.0
C1243 C 0.86745 0.81651 0.74186 0.0
C1244 C 0.90999 0.8631 0.68261 0.0
C1245 C 0.92319 0.88653 0.69392 0.0
C1246 C 0.91699 0.85799 0.65505 0.0
C1247 C 0.90471 0.83299 0.643 0.0
C1248 C 0.90459 0.81014 0.66287 0.0
C1249 C 0.89211 0.78663 0.65178 0.0
C1250 C 0.87983 0.78572 0.62078 0.0
C1251 C 0.88011 0.80832 0.60075 0.0
C1252 C 0.89253 0.83188 0.61174 0.0
C1253 C 1.0119 0.94334 0.61884 0.0
C1254 C 1.00241 0.95382 0.58899 0.0
C1255 C 0.99421 0.92683 0.63903 0.0
C1256 C 0.96686 0.92033 0.62943 0.0
C1257 C 0.95732 0.93115 0.6 0.0
C1258 C 0.9749 0.94797 0.58009 0.0
C1259 C 0.94809 0.90086 0.64893 0.0
C1260 C 0.9358 0.87705 0.63844 0.0
C1261 C 0.94207 0.90561 0.67719 0.0
C1262 C 0.95415 0.93069 0.68882 0.0
C1263 C 0.95073 0.95301 0.67025 0.0
C1264 C 0.9621 0.9766 0.68141 0.0
C1265 C 0.97681 0.97808 0.7112 0.0
C1266 C 0.98009 0.95595 0.72993 0.0
C1267 C 0.96874 0.9323 0.71887 0.0
H1268 H 0.98559 0.99635 0.71982 0.0
H1269 H 0.87012 0.7675 0.61227 0.0
H1270 H 0.32944 0.16153 0.16311 0.0
H1271 H 0.35773 0.13947 0.14882 0.0
H1272 H 0.34056 0.16718 0.05089 0.0
H1273 H 0.31345 0.19005 0.065 0.0
H1274 H 0.34891 0.10204 0.11446 0.0
H1275 H 0.39208 0.1776 0.01147 0.0
H1276 H 0.40458 0.22426 0.99653 0.0
H1277 H 0.41587 0.23492 0.09389 0.0
H1278 H 0.4038 0.18837 0.10944 0.0
H1279 H 0.41061 0.04814 0.02111 0.0
H1280 H 0.38271 0.06812 0.04044 0.0
H1281 H 0.45268 0.12538 0.0746 0.0
H1282 H 0.4803 0.10605 0.05492 0.0
H1283 H 0.4191 0.14789 0.04596 0.0
H1284 H 0.41502 0.07557 0.12454 0.0
H1285 H 0.40695 0.02995 0.1449 0.0
H1286 H 0.3251 0.0146 0.10632 0.0
H1287 H 0.33276 0.0601 0.08533 0.0
C1288 C 0.33201 0.16325 0.13858 0.0
C1289 C 0.31902 0.17764 0.11528 0.0
C1290 C 0.34797 0.15036 0.13039 0.0
C1291 C 0.35151 0.15169 0.09874 0.0
C1292 C 0.33853 0.166 0.07551 0.0
C1293 C 0.32273 0.17893 0.08365 0.0
C1294 C 0.36884 0.13839 0.08976 0.0
C1295 C 0.36426 0.11209 0.09949 0.0
C1296 C 0.38929 0.15142 0.07068 0.0
C1297 C 0.39676 0.17948 0.06156 0.0
C1298 C 0.39731 0.18991 0.02969 0.0
C1299 C 0.40431 0.21634 0.02111 0.0
C1300 C 0.41093 0.23254 0.04424 0.0
C1301 C 0.41064 0.22235 0.07599 0.0
C1302 C 0.40369 0.19594 0.08469 0.0
C1303 C 0.41999 0.06487 0.03296 0.0
C1304 C 0.44772 0.07547 0.03635 0.0
C1305 C 0.40403 0.07627 0.0441 0.0
C1306 C 0.4155 0.09832 0.05917 0.0
C1307 C 0.4432 0.10856 0.06292 0.0
C1308 C 0.45903 0.09736 0.05166 0.0
C1309 C 0.399 0.11143 0.07026 0.0
C1310 C 0.40371 0.13776 0.06086 0.0
C1311 C 0.37926 0.09853 0.09035 0.0
C1312 C 0.37453 0.0712 0.10309 0.0
C1313 C 0.39534 0.06244 0.12019 0.0
C1314 C 0.39084 0.03661 0.13188 0.0
C1315 C 0.36555 0.01938 0.12683 0.0
C1316 C 0.34469 0.02796 0.11017 0.0
C1317 C 0.34909 0.05377 0.09839 0.0
H1318 H 0.36211 0.99939 0.13588 0.0
H1319 H 0.41633 0.25299 0.03755 0.0
H1320 H 0.8233 0.32581 0.23721 0.0
H1321 H 0.85833 0.35979 0.21288 0.0
H1322 H 0.83007 0.32956 0.12418 0.0
H1323 H 0.79307 0.29778 0.1479 0.0
H1324 H 0.89745 0.36255 0.19527 0.0
H1325 H 0.85319 0.35531 0.07003 0.0
H1326 H 0.81633 0.35909 0.02873 0.0
H1327 H 0.79754 0.40841 0.08033 0.0
H1328 H 0.83346 0.4038 0.12267 0.0
H1329 H 1.00396 0.42325 0.10638 0.0
H1330 H 0.96583 0.3955 0.13111 0.0
H1331 H 0.923 0.44997 0.0942 0.0
H1332 H 0.96099 0.47744 0.06766 0.0
H1333 H 0.89203 0.40685 0.08618 0.0
H1334 H 0.9484 0.43711 0.17709 0.0
H1335 H 0.98918 0.44705 0.21462 0.0
H1336 H 0.98478 0.36779 0.23321 0.0
H1337 H 0.94421 0.35743 0.19542 0.0
C1338 C 0.82451 0.32669 0.2124 0.0
C1339 C 0.80591 0.30877 0.19458 0.0
C1340 C 0.84466 0.34617 0.19833 0.0
C1341 C 0.84737 0.34787 0.16621 0.0
C1342 C 0.82836 0.32993 0.14843 0.0
C1343 C 0.80742 0.31118 0.16223 0.0
C1344 C 0.87109 0.36705 0.15253 0.0
C1345 C 0.89587 0.37233 0.17148 0.0
C1346 C 0.87005 0.38024 0.12141 0.0
C1347 C 0.84536 0.37857 0.09984 0.0
C1348 C 0.84058 0.36626 0.07298 0.0
C1349 C 0.81995 0.36861 0.04938 0.0
C1350 C 0.80453 0.38388 0.05199 0.0
C1351 C 0.80937 0.3964 0.07851 0.0
C1352 C 0.8295 0.39351 0.1026 0.0
C1353 C 0.98662 0.42965 0.10381 0.0
C1354 C 0.98572 0.45281 0.08513 0.0
C1355 C 0.96474 0.41368 0.11824 0.0
C1356 C 0.94149 0.42066 0.11523 0.0
C1357 C 0.94066 0.44404 0.09705 0.0
C1358 C 0.96245 0.45985 0.08197 0.0
C1359 C 0.91761 0.40284 0.12932 0.0
C1360 C 0.89318 0.39741 0.11024 0.0
C1361 C 0.9188 0.39036 0.16067 0.0
C1362 C 0.94335 0.39652 0.18323 0.0
C1363 C 0.95624 0.42182 0.18899 0.0
C1364 C 0.97931 0.42753 0.21034 0.0
C1365 C 0.9896 0.40807 0.22624 0.0
C1366 C 0.97681 0.38285 0.22086 0.0
C1367 C 0.95376 0.37704 0.1995 0.0
H1368 H 1.00745 0.41253 0.24278 0.0
H1369 H 0.7889 0.3861 0.03342 0.0
H1370 H 0.68997 0.76859 0.1887 0.0
H1371 H 0.66704 0.79785 0.15762 0.0
H1372 H 0.73611 0.86141 0.17641 0.0
H1373 H 0.75927 0.8317 0.20802 0.0
H1374 H 0.69343 0.87291 0.18474 0.0
H1375 H 0.71199 0.84478 0.09478 0.0
H1376 H 0.7138 0.81446 0.06088 0.0
H1377 H 0.63053 0.77691 0.06224 0.0
H1378 H 0.62816 0.80734 0.09557 0.0
H1379 H 0.63826 0.96384 0.08515 0.0
H1380 H 0.66471 0.93586 0.11026 0.0
H1381 H 0.6001 0.87052 0.08479 0.0
H1382 H 0.57392 0.89891 0.05801 0.0
H1383 H 0.64104 0.85982 0.08027 0.0
H1384 H 0.62185 0.89066 0.16578 0.0
H1385 H 0.61925 0.92224 0.19714 0.0
H1386 H 0.70378 0.95501 0.205 0.0
H1387 H 0.70686 0.92381 0.17334 0.0
C1388 C 0.70063 0.78877 0.18569 0.0
C1389 C 0.72676 0.7975 0.20075 0.0
C1390 C 0.68738 0.80568 0.16763 0.0
C1391 C 0.69952 0.83228 0.1639 0.0
C1392 C 0.72594 0.84114 0.17849 0.0
C1393 C 0.73941 0.82404 0.19646 0.0
C1394 C 0.6839 0.85042 0.14667 0.0
C1395 C 0.68255 0.87036 0.16152 0.0
C1396 C 0.66848 0.84702 0.11678 0.0
C1397 C 0.66999 0.82807 0.09795 0.0
C1398 C 0.69415 0.8299 0.08804 0.0
C1399 C 0.69522 0.81283 0.06876 0.0
C1400 C 0.67235 0.79366 0.05963 0.0
C1401 C 0.64827 0.79169 0.06945 0.0
C1402 C 0.647 0.80894 0.08836 0.0
C1403 C 0.62953 0.94351 0.08472 0.0
C1404 C 0.60359 0.93393 0.06944 0.0
C1405 C 0.64474 0.92727 0.09968 0.0
C1406 C 0.63455 0.9005 0.10095 0.0
C1407 C 0.60881 0.89088 0.08492 0.0
C1408 C 0.59369 0.90726 0.06937 0.0
C1409 C 0.651 0.88292 0.11788 0.0
C1410 C 0.65225 0.86283 0.10321 0.0
C1411 C 0.66632 0.88624 0.14794 0.0
C1412 C 0.66455 0.90506 0.16692 0.0
C1413 C 0.63987 0.90472 0.174 0.0
C1414 C 0.63831 0.92253 0.19186 0.0
C1415 C 0.66133 0.94066 0.20298 0.0
C1416 C 0.68596 0.94098 0.19633 0.0
C1417 C 0.68763 0.92322 0.17845 0.0
H1418 H 0.66008 0.95444 0.21681 0.0
H1419 H 0.67327 0.78039 0.04483 0.0
H1420 H 0.25339 0.69789 0.17521 0.0
H1421 H 0.22143 0.66931 0.1408 0.0
H1422 H 0.16286 0.70582 0.14564 0.0
H1423 H 0.19416 0.73284 0.18212 0.0
H1424 H 0.14171 0.65751 0.1544 0.0
H1425 H 0.1944 0.71412 0.07821 0.0
H1426 H 0.23514 0.73841 0.05437 0.0
H1427 H 0.25014 0.6686 0.04801 0.0
H1428 H 0.20968 0.64386 0.07229 0.0
H1429 H 0.05055 0.60663 0.02584 0.0
H1430 H 0.08656 0.63747 0.05368 0.0
H1431 H 0.13023 0.58278 0.07922 0.0
H1432 H 0.09388 0.55139 0.05198 0.0
H1433 H 0.15901 0.63979 0.05358 0.0
H1434 H 0.1055 0.58431 0.13318 0.0
H1435 H 0.06331 0.56203 0.15487 0.0
H1436 H 0.04855 0.63364 0.15125 0.0
H1437 H 0.0905 0.6563 0.12907 0.0
C1438 C 0.23368 0.69969 0.16915 0.0
C1439 C 0.22635 0.71768 0.18144 0.0
C1440 C 0.21551 0.68362 0.149 0.0
C1441 C 0.18977 0.68558 0.14026 0.0
C1442 C 0.18263 0.704 0.1519 0.0
C1443 C 0.20071 0.71979 0.1724 0.0
C1444 C 0.16976 0.66737 0.12074 0.0
C1445 C 0.14547 0.65398 0.13216 0.0
C1446 C 0.17474 0.66232 0.09195 0.0
C1447 C 0.19913 0.67714 0.07739 0.0
C1448 C 0.2065 0.70394 0.072 0.0
C1449 C 0.22953 0.71779 0.05836 0.0
C1450 C 0.24526 0.70506 0.04977 0.0
C1451 C 0.23796 0.67843 0.05474 0.0
C1452 C 0.21497 0.66449 0.06842 0.0
C1453 C 0.0679 0.60119 0.03711 0.0
C1454 C 0.06934 0.57653 0.03696 0.0
C1455 C 0.08842 0.61883 0.05297 0.0
C1456 C 0.11088 0.61227 0.06844 0.0
C1457 C 0.11296 0.58808 0.0673 0.0
C1458 C 0.09218 0.5702 0.05192 0.0
C1459 C 0.13135 0.63027 0.08742 0.0
C1460 C 0.15554 0.64351 0.07587 0.0
C1461 C 0.1262 0.63555 0.11583 0.0
C1462 C 0.10097 0.62195 0.12911 0.0
C1463 C 0.09311 0.59527 0.13668 0.0
C1464 C 0.06928 0.58258 0.14914 0.0
C1465 C 0.05322 0.5964 0.15435 0.0
C1466 C 0.06099 0.62295 0.14715 0.0
C1467 C 0.0848 0.63572 0.13465 0.0
H1468 H 0.03478 0.58655 0.16403 0.0
H1469 H 0.26307 0.71582 0.0392 0.0
H1470 H 0.35474 0.78973 0.80716 0.0
H1471 H 0.38527 0.81823 0.84266 0.0
H1472 H 0.31967 0.83332 0.8716 0.0
H1473 H 0.28862 0.80372 0.83721 0.0
H1474 H 0.36777 0.87832 0.84723 0.0
H1475 H 0.34251 0.8025 0.92353 0.0
H1476 H 0.33546 0.75664 0.94162 0.0
H1477 H 0.41731 0.76624 0.93688 0.0
H1478 H 0.42475 0.8121 0.91831 0.0
H1479 H 0.44974 0.95845 0.95819 0.0
H1480 H 0.41283 0.92707 0.93198 0.0
H1481 H 0.4634 0.88003 0.93523 0.0
H1482 H 0.49961 0.91049 0.96306 0.0
H1483 H 0.41909 0.8502 0.94534 0.0
H1484 H 0.44589 0.92175 0.86606 0.0
H1485 H 0.45589 0.96665 0.84168 0.0
H1486 H 0.37588 0.96481 0.84497 0.0
H1487 H 0.3655 0.91997 0.86973 0.0
C1488 C 0.34659 0.7984 0.82168 0.0
C1489 C 0.31906 0.79385 0.81971 0.0
C1490 C 0.36417 0.81494 0.84175 0.0
C1491 C 0.35468 0.82775 0.85979 0.0
C1492 C 0.32731 0.82349 0.85789 0.0
C1493 C 0.30962 0.80649 0.83828 0.0
C1494 C 0.3736 0.84621 0.87976 0.0
C1495 C 0.37867 0.87231 0.86907 0.0
C1496 C 0.38844 0.83816 0.90744 0.0
C1497 C 0.38413 0.8107 0.91929 0.0
C1498 C 0.35896 0.7948 0.92613 0.0
C1499 C 0.3549 0.76881 0.93651 0.0
C1500 C 0.37591 0.75852 0.94032 0.0
C1501 C 0.40105 0.77423 0.93389 0.0
C1502 C 0.4052 0.80023 0.92349 0.0
C1503 C 0.45286 0.94133 0.95339 0.0
C1504 C 0.47759 0.93699 0.96257 0.0
C1505 C 0.4318 0.92344 0.93821 0.0
C1506 C 0.43531 0.90126 0.9309 0.0
C1507 C 0.45998 0.89685 0.94054 0.0
C1508 C 0.48077 0.91436 0.95641 0.0
C1509 C 0.41361 0.88275 0.91294 0.0
C1510 C 0.40806 0.8565 0.92383 0.0
C1511 C 0.39881 0.89066 0.88487 0.0
C1512 C 0.40502 0.91763 0.87011 0.0
C1513 C 0.43049 0.931 0.86181 0.0
C1514 C 0.43622 0.95642 0.84788 0.0
C1515 C 0.41656 0.96861 0.84188 0.0
C1516 C 0.39111 0.95537 0.8497 0.0
C1517 C 0.38529 0.92995 0.86367 0.0
H1518 H 0.42103 0.98829 0.8311 0.0
H1519 H 0.37272 0.73839 0.94832 0.0
H1520 H 0.18521 0.32655 0.83584 0.0
H1521 H 0.16776 0.35878 0.84808 0.0
H1522 H 0.19774 0.34467 0.94601 0.0
H1523 H 0.21598 0.31327 0.93379 0.0
H1524 H 0.13065 0.35296 0.88277 0.0
H1525 H 0.21113 0.39617 0.98263 0.0
H1526 H 0.25966 0.40715 0.9959 0.0
H1527 H 0.26864 0.41444 0.89815 0.0
H1528 H 0.22023 0.40382 0.88423 0.0
H1529 H 0.07367 0.39708 0.9833 0.0
H1530 H 0.0994 0.37754 0.96077 0.0
H1531 H 0.15128 0.45193 0.93066 0.0
H1532 H 0.12564 0.47179 0.95431 0.0
H1533 H 0.17965 0.42079 0.94959 0.0
H1534 H 0.10152 0.41595 0.87758 0.0
H1535 H 0.05357 0.40707 0.86058 0.0
H1536 H 0.04119 0.32765 0.89492 0.0
H1537 H 0.08902 0.3361 0.91252 0.0
C1538 C 0.18859 0.33071 0.85986 0.0
C1539 C 0.20188 0.31713 0.88383 0.0
C1540 C 0.17841 0.34903 0.86689 0.0
C1541 C 0.18149 0.35436 0.89798 0.0
C1542 C 0.19537 0.34129 0.92176 0.0
C1543 C 0.20554 0.32305 0.91477 0.0
C1544 C 0.16875 0.37221 0.90609 0.0
C1545 C 0.14144 0.36787 0.89724 0.0
C1546 C 0.18282 0.39218 0.92432 0.0
C1547 C 0.21201 0.39903 0.93244 0.0
C1548 C 0.22347 0.40026 0.96395 0.0
C1549 C 0.25095 0.40637 0.97159 0.0
C1550 C 0.26721 0.4114 0.94789 0.0
C1551 C 0.25602 0.41042 0.91649 0.0
C1552 C 0.22856 0.40433 0.90872 0.0
C1553 C 0.09054 0.40939 0.97189 0.0
C1554 C 0.09733 0.43605 0.97016 0.0
C1555 C 0.10524 0.39814 0.95881 0.0
C1556 C 0.1269 0.41318 0.94302 0.0
C1557 C 0.13448 0.43985 0.94235 0.0
C1558 C 0.11985 0.45121 0.95588 0.0
C1559 C 0.14133 0.40069 0.9275 0.0
C1560 C 0.16892 0.40606 0.93486 0.0
C1561 C 0.12762 0.38194 0.90738 0.0
C1562 C 0.09886 0.37669 0.89646 0.0
C1563 C 0.08856 0.39661 0.88162 0.0
C1564 C 0.0614 0.39165 0.87188 0.0
C1565 C 0.04435 0.36682 0.87669 0.0
C1566 C 0.05443 0.34688 0.89119 0.0
C1567 C 0.08157 0.35173 0.901 0.0
H1568 H 1.02332 0.36303 0.86916 0.0
H1569 H 0.28848 0.41609 0.95386 0.0
H1570 H 0.71019 0.20281 0.76314 0.0
H1571 H 0.67808 0.16504 0.78589 0.0
H1572 H 0.70403 0.19026 0.87761 0.0
H1573 H 0.73846 0.22674 0.855 0.0
H1574 H 0.69068 0.14323 0.88796 0.0
H1575 H 0.64462 0.19879 0.82263 0.0
H1576 H 0.63316 0.22497 0.7735 0.0
H1577 H 0.60531 0.15878 0.7253 0.0
H1578 H 0.6168 0.13226 0.77409 0.0
H1579 H 0.54046 0.09171 0.90331 0.0
H1580 H 0.57767 0.12057 0.87813 0.0
H1581 H 0.61814 0.06307 0.90022 0.0
H1582 H 0.58108 0.03432 0.92781 0.0
H1583 H 0.59945 0.12326 0.83168 0.0
H1584 H 0.68833 0.09543 0.90851 0.0
H1585 H 0.69811 0.07272 0.96103 0.0
H1586 H 0.63641 0.09047 0.99465 0.0
H1587 H 0.62699 0.11417 0.94281 0.0
C1588 C 0.7096 0.19985 0.78831 0.0
C1589 C 0.72744 0.21714 0.80752 0.0
C1590 C 0.69071 0.17852 0.8013 0.0
C1591 C 0.68789 0.17485 0.83352 0.0
C1592 C 0.70571 0.19235 0.85275 0.0
C1593 C 0.72529 0.21329 0.83985 0.0
C1594 C 0.66569 0.15357 0.84671 0.0
C1595 C 0.67072 0.13893 0.87568 0.0
C1596 C 0.63942 0.14786 0.83103 0.0
C1597 C 0.63175 0.16361 0.80192 0.0
C1598 C 0.63606 0.18985 0.80153 0.0
C1599 C 0.62959 0.20474 0.77375 0.0
C1600 C 0.61856 0.19355 0.74629 0.0
C1601 C 0.61385 0.16742 0.74659 0.0
C1602 C 0.62029 0.15244 0.77431 0.0
C1603 C 0.55712 0.08497 0.90265 0.0
C1604 C 0.55778 0.06065 0.91759 0.0
C1605 C 0.57848 0.10158 0.88807 0.0
C1606 C 0.601 0.09427 0.88734 0.0
C1607 C 0.60127 0.06945 0.90094 0.0
C1608 C 0.58005 0.05296 0.91654 0.0
C1609 C 0.62418 0.11338 0.87338 0.0
C1610 C 0.61939 0.1275 0.84405 0.0
C1611 C 0.65027 0.11934 0.88958 0.0
C1612 C 0.65662 0.1062 0.92146 0.0
C1613 C 0.67697 0.09466 0.92715 0.0
C1614 C 0.68249 0.08165 0.95686 0.0
C1615 C 0.66776 0.07998 0.98109 0.0
C1616 C 0.64764 0.09154 0.97578 0.0
C1617 C 0.64231 0.1049 0.94626 0.0
H1618 H 0.67202 0.06985 0.00404 0.0
H1619 H 0.61364 0.20512 0.72478 0.0
H1620 H 0.78135 0.66773 0.79597 0.0
H1621 H 0.81105 0.645 0.82599 0.0
H1622 H 0.87175 0.71642 0.83764 0.0
H1623 H 0.8422 0.73934 0.80443 0.0
H1624 H 0.89726 0.68773 0.83411 0.0
H1625 H 0.8333 0.66931 0.90357 0.0
H1626 H 0.79005 0.65635 0.92378 0.0
H1627 H 0.7712 0.58253 0.89435 0.0
H1628 H 0.81437 0.59506 0.87406 0.0
H1629 H 0.97187 0.61477 0.94841 0.0
H1630 H 0.94577 0.64373 0.9231 0.0
H1631 H 0.88594 0.58109 0.8836 0.0
H1632 H 0.91168 0.55239 0.90855 0.0
H1633 H 0.86214 0.60793 0.90448 0.0
H1634 H 0.93286 0.63079 0.83979 0.0
H1635 H 0.97936 0.6464 0.82886 0.0
H1636 H 0.98923 0.71703 0.86243 0.0
H1637 H 0.94292 0.70169 0.87401 0.0
C1638 C 0.80092 0.67884 0.80514 0.0
C1639 C 0.80878 0.70567 0.79806 0.0
C1640 C 0.81809 0.66561 0.82299 0.0
C1641 C 0.84399 0.67846 0.83573 0.0
C1642 C 0.85203 0.70548 0.82877 0.0
C1643 C 0.83486 0.71882 0.81002 0.0
C1644 C 0.86247 0.66339 0.85465 0.0
C1645 C 0.8895 0.67068 0.85015 0.0
C1646 C 0.85326 0.6407 0.87586 0.0
C1647 C 0.82687 0.63329 0.88688 0.0
C1648 C 0.81976 0.65044 0.90107 0.0
C1649 C 0.79533 0.64313 0.91266 0.0
C1650 C 0.77781 0.61871 0.91012 0.0
C1651 C 0.78475 0.60148 0.89618 0.0
C1652 C 0.80923 0.60865 0.88472 0.0
C1653 C 0.95315 0.60711 0.93437 0.0
C1654 C 0.94426 0.58093 0.9307 0.0
C1655 C 0.93819 0.62386 0.91954 0.0
C1656 C 0.91367 0.61508 0.9006 0.0
C1657 C 0.90463 0.58885 0.89766 0.0
C1658 C 0.91959 0.57226 0.91213 0.0
C1659 C 0.89687 0.63252 0.88458 0.0
C1660 C 0.87001 0.62539 0.8892 0.0
C1661 C 0.90666 0.65589 0.86488 0.0
C1662 C 0.93451 0.66499 0.85807 0.0
C1663 C 0.94502 0.64956 0.84511 0.0
C1664 C 0.97133 0.65837 0.83875 0.0
C1665 C 0.98724 0.68267 0.845 0.0
C1666 C 0.97689 0.6982 0.85764 0.0
C1667 C 0.95062 0.68946 0.86409 0.0
H1668 H 1.00756 0.68953 0.83994 0.0
H1669 H 0.75889 0.61309 0.9191 0.0
H1670 H 0.27067 0.34834 0.20157 0.0
H1671 H 0.23879 0.36942 0.172 0.0
H1672 H 0.177 0.29765 0.17722 0.0
H1673 H 0.209 0.27642 0.2084 0.0
H1674 H 0.18069 0.33557 0.1117 0.0
H1675 H 0.17284 0.33027 0.2223 0.0
H1676 H 0.19132 0.33572 0.2775 0.0
H1677 H 0.22601 0.4159 0.2503 0.0
H1678 H 0.20816 0.41084 0.19485 0.0
H1679 H 0.07896 0.39892 0.05528 0.0
H1680 H 0.10544 0.37032 0.08015 0.0
H1681 H 0.16171 0.43183 0.12581 0.0
H1682 H 0.13511 0.45987 0.10201 0.0
H1683 H 0.15802 0.39477 0.1666 0.0
H1684 H 0.17183 0.40324 0.05958 0.0
H1685 H 0.1626 0.40133 0.00251 0.0
H1686 H 0.12448 0.32067 0.01931 0.0
H1687 H 0.13326 0.32215 0.07664 0.0
C1688 C 0.25036 0.3368 0.19622 0.0
C1689 C 0.2428 0.31041 0.20719 0.0
C1690 C 0.23202 0.34902 0.17916 0.0
C1691 C 0.20519 0.33542 0.172 0.0
C1692 C 0.19751 0.30882 0.18205 0.0
C1693 C 0.21594 0.29655 0.19979 0.0
C1694 C 0.18548 0.34963 0.15583 0.0
C1695 C 0.17521 0.34807 0.12392 0.0
C1696 C 0.17904 0.36701 0.17093 0.0
C1697 C 0.18934 0.37013 0.20436 0.0
C1698 C 0.18458 0.34902 0.22805 0.0
C1699 C 0.19492 0.35205 0.25939 0.0
C1700 C 0.20987 0.37613 0.26738 0.0
C1701 C 0.21444 0.39725 0.24407 0.0
C1702 C 0.20421 0.39432 0.21268 0.0
C1703 C 0.09702 0.40642 0.07051 0.0
C1704 C 0.10448 0.43202 0.07646 0.0
C1705 C 0.11246 0.38994 0.08476 0.0
C1706 C 0.13616 0.39844 0.10528 0.0
C1707 C 0.14366 0.42413 0.11064 0.0
C1708 C 0.12827 0.44044 0.09666 0.0
C1709 C 0.15285 0.38095 0.12197 0.0
C1710 C 0.1629 0.38204 0.15415 0.0
C1711 C 0.15958 0.36363 0.10679 0.0
C1712 C 0.15288 0.36288 0.0724 0.0
C1713 C 0.16113 0.38515 0.05111 0.0
C1714 C 0.15609 0.38412 0.01869 0.0
C1715 C 0.14296 0.36087 0.00724 0.0
C1716 C 0.13465 0.33865 0.02821 0.0
C1717 C 0.13964 0.33958 0.06068 0.0
H1718 H 0.13931 0.36002 0.98215 0.0
H1719 H 0.2179 0.37846 0.29163 0.0
H1720 H 0.25911 0.70412 0.85388 0.0
H1721 H 0.22315 0.67333 0.88129 0.0
H1722 H 0.17196 0.66738 0.79302 0.0
H1723 H 0.20751 0.69871 0.76607 0.0
H1724 H 0.14551 0.66987 0.83646 0.0
H1725 H 0.20584 0.62135 0.83272 0.0
H1726 H 0.2486 0.61201 0.84469 0.0
H1727 H 0.24589 0.60785 0.94367 0.0
H1728 H 0.20343 0.61766 0.93227 0.0
H1729 H 0.04053 0.56195 0.88015 0.0
H1730 H 0.07853 0.59102 0.85522 0.0
H1731 H 0.12825 0.58815 0.94423 0.0
H1732 H 0.09066 0.55793 0.96869 0.0
H1733 H 0.15649 0.5912 0.90286 0.0
H1734 H 0.09929 0.63881 0.91108 0.0
H1735 H 0.05762 0.64989 0.90409 0.0
H1736 H 0.05613 0.65979 0.80365 0.0
H1737 H 0.09756 0.64835 0.81001 0.0
C1738 C 0.24007 0.6963 0.8405 0.0
C1739 C 0.23587 0.70422 0.80802 0.0
C1740 C 0.21958 0.67853 0.85609 0.0
C1741 C 0.19476 0.66763 0.83926 0.0
C1742 C 0.19079 0.67542 0.80667 0.0
C1743 C 0.21111 0.69342 0.79124 0.0
C1744 C 0.17273 0.64835 0.85527 0.0
C1745 C 0.14785 0.65252 0.85065 0.0
C1746 C 0.17589 0.62613 0.87499 0.0
C1747 C 0.20155 0.62042 0.88162 0.0
C1748 C 0.21449 0.61866 0.85702 0.0
C1749 C 0.2387 0.61329 0.86372 0.0
C1750 C 0.25 0.60942 0.89495 0.0
C1751 C 0.23718 0.61096 0.91951 0.0
C1752 C 0.21305 0.61641 0.91294 0.0
C1753 C 0.05969 0.56718 0.89425 0.0
C1754 C 0.06253 0.55754 0.92639 0.0
C1755 C 0.08141 0.5841 0.88006 0.0
C1756 C 0.10633 0.59256 0.89791 0.0
C1757 C 0.10937 0.58215 0.92978 0.0
C1758 C 0.0878 0.56473 0.94379 0.0
C1759 C 0.12903 0.61251 0.88362 0.0
C1760 C 0.15405 0.60853 0.88866 0.0
C1761 C 0.1262 0.6353 0.86495 0.0
C1762 C 0.10135 0.64235 0.86103 0.0
C1763 C 0.08997 0.64314 0.88749 0.0
C1764 C 0.0664 0.64951 0.88364 0.0
C1765 C 0.05418 0.65541 0.85345 0.0
C1766 C 0.06557 0.65511 0.82703 0.0
C1767 C 0.0891 0.64868 0.83074 0.0
H1768 H 0.0359 0.66025 0.85053 0.0
H1769 H 0.26861 0.60506 0.90024 0.0
H1770 H 0.29157 0.18891 0.78816 0.0
H1771 H 0.31414 0.15838 0.81734 0.0
H1772 H 0.37963 0.22063 0.84963 0.0
H1773 H 0.35797 0.25085 0.81839 0.0
H1774 H 0.40183 0.19305 0.83865 0.0
H1775 H 0.33148 0.16133 0.91011 0.0
H1776 H 0.28582 0.14419 0.92377 0.0
H1777 H 0.26655 0.09062 0.85735 0.0
H1778 H 0.31274 0.10634 0.84497 0.0
H1779 H 0.46831 0.11412 0.95057 0.0
H1780 H 0.44278 0.1437 0.92627 0.0
H1781 H 0.38558 0.08388 0.87876 0.0
H1782 H 0.41067 0.05446 0.90301 0.0
H1783 H 0.35938 0.10942 0.89775 0.0
H1784 H 0.43528 0.13528 0.84107 0.0
H1785 H 0.48296 0.15001 0.83554 0.0
H1786 H 0.49244 0.21711 0.87696 0.0
H1787 H 0.44486 0.20262 0.88311 0.0
C1788 C 0.31049 0.19602 0.8021 0.0
C1789 C 0.32265 0.22254 0.80109 0.0
C1790 C 0.32357 0.17837 0.81923 0.0
C1791 C 0.34901 0.18652 0.83672 0.0
C1792 C 0.36041 0.21313 0.83651 0.0
C1793 C 0.34774 0.23065 0.81877 0.0
C1794 C 0.3647 0.16811 0.85333 0.0
C1795 C 0.39231 0.17503 0.85202 0.0
C1796 C 0.35316 0.14383 0.87034 0.0
C1797 C 0.32523 0.13534 0.87617 0.0
C1798 C 0.3174 0.14605 0.89825 0.0
C1799 C 0.2915 0.13646 0.90593 0.0
C1800 C 0.27309 0.11671 0.89094 0.0
C1801 C 0.28075 0.10606 0.86877 0.0
C1802 C 0.30686 0.11506 0.86173 0.0
C1803 C 0.45026 0.10719 0.93504 0.0
C1804 C 0.44193 0.08163 0.92888 0.0
C1805 C 0.43561 0.12429 0.92084 0.0
C1806 C 0.41207 0.11651 0.89992 0.0
C1807 C 0.40349 0.09082 0.89451 0.0
C1808 C 0.41809 0.07384 0.90852 0.0
C1809 C 0.39634 0.13473 0.88355 0.0
C1810 C 0.36879 0.12762 0.88463 0.0
C1811 C 0.40804 0.15895 0.86667 0.0
C1812 C 0.43658 0.16774 0.86283 0.0
C1813 C 0.44758 0.15309 0.84919 0.0
C1814 C 0.47457 0.16141 0.84592 0.0
C1815 C 0.49073 0.18445 0.85597 0.0
C1816 C 0.47991 0.19925 0.86923 0.0
C1817 C 0.45293 0.19101 0.87259 0.0
H1818 H 0.51163 0.19085 0.85342 0.0
H1819 H 0.25298 0.1095 0.89673 0.0
H1820 H 0.78882 0.31678 0.83453 0.0
H1821 H 0.81555 0.3424 0.87547 0.0
H1822 H 0.87647 0.30655 0.88079 0.0
H1823 H 0.84996 0.28103 0.8398 0.0
H1824 H 0.86842 0.31802 0.94169 0.0
H1825 H 0.87812 0.35833 0.83142 0.0
H1826 H 0.8557 0.37103 0.77983 0.0
H1827 H 0.82705 0.41979 0.82135 0.0
H1828 H 0.84863 0.40655 0.87355 0.0
H1829 H 0.99134 0.40361 0.9873 0.0
H1830 H 0.95177 0.37294 0.96512 0.0
H1831 H 0.91176 0.43077 0.94277 0.0
H1832 H 0.95188 0.46192 0.96382 0.0
H1833 H 0.90245 0.40853 0.89548 0.0
H1834 H 0.89298 0.37725 1.00091 0.0
H1835 H 0.90476 0.36314 0.057 0.0
H1836 H 0.92298 0.30017 0.03221 0.0
H1837 H 0.91163 0.3141 0.97588 0.0
C1838 C 0.80773 0.31404 0.84477 0.0
C1839 C 0.81727 0.29682 0.83385 0.0
C1840 C 0.82287 0.32855 0.86835 0.0
C1841 C 0.84803 0.32643 0.88113 0.0
C1842 C 0.85698 0.30829 0.87151 0.0
C1843 C 0.84177 0.29366 0.84803 0.0
C1844 C 0.86662 0.3456 0.90063 0.0
C1845 C 0.87608 0.33779 0.93169 0.0
C1846 C 0.87548 0.37164 0.8881 0.0
C1847 C 0.86474 0.38129 0.85635 0.0
C1848 C 0.86701 0.37173 0.82953 0.0
C1849 C 0.85423 0.37887 0.80022 0.0
C1850 C 0.83974 0.39611 0.79732 0.0
C1851 C 0.83819 0.40637 0.82367 0.0
C1852 C 0.85062 0.39899 0.85314 0.0
C1853 C 0.97404 0.40977 0.97797 0.0
C1854 C 0.97483 0.43527 0.97715 0.0
C1855 C 0.95126 0.3921 0.9655 0.0
C1856 C 0.9285 0.39933 0.95255 0.0
C1857 C 0.92902 0.42466 0.95253 0.0
C1858 C 0.95198 0.44247 0.96457 0.0
C1859 C 0.90517 0.38101 0.93665 0.0
C1860 C 0.89479 0.38891 0.90603 0.0
C1861 C 0.89463 0.35537 0.95025 0.0
C1862 C 0.90166 0.34686 0.98409 0.0
C1863 C 0.89971 0.36051 0.00737 0.0
C1864 C 0.90626 0.35252 0.03923 0.0
C1865 C 0.91466 0.3308 0.04816 0.0
C1866 C 0.91648 0.317 0.02525 0.0
C1867 C 0.90995 0.32492 0.99334 0.0
H1868 H 0.91972 0.32463 0.07283 0.0
H1869 H 0.82981 0.40171 0.77467 0.0
H1870 H 0.69415 0.81833 0.86477 0.0
H1871 H 0.66726 0.84279 0.87648 0.0
H1872 H 0.73828 0.89987 0.90873 0.0
H1873 H 0.76512 0.87521 0.89766 0.0
H1874 H 0.70587 0.88897 0.9497 0.0
H1875 H 0.69588 0.91335 0.83747 0.0
H1876 H 0.68616 0.9067 0.78161 0.0
H1877 H 0.60827 0.85749 0.7971 0.0
H1878 H 0.61732 0.86442 0.85298 0.0
H1879 H 0.63577 0.973 0.97161 0.0
H1880 H 0.66536 0.95618 0.95039 0.0
H1881 H 0.5991 0.89214 0.92463 0.0
H1882 H 0.56962 0.90877 0.94535 0.0
H1883 H 0.63078 0.90957 0.87854 0.0
H1884 H 0.64099 0.88844 0.99075 0.0
H1885 H 0.65048 0.8985 0.04488 0.0
H1886 H 0.73043 0.94154 0.02999 0.0
H1887 H 0.72095 0.93291 0.97476 0.0
C1888 C 0.70403 0.83631 0.87384 0.0
C1889 C 0.7318 0.84469 0.8805 0.0
C1890 C 0.68862 0.85039 0.88047 0.0
C1891 C 0.70063 0.87339 0.89341 0.0
C1892 C 0.72841 0.88216 0.89899 0.0
C1893 C 0.74378 0.86801 0.89266 0.0
C1894 C 0.68435 0.88744 0.90306 0.0
C1895 C 0.68981 0.89392 0.93384 0.0
C1896 C 0.66294 0.89351 0.88285 0.0
C1897 C 0.65736 0.88921 0.8494 0.0
C1898 C 0.67672 0.90102 0.82897 0.0
C1899 C 0.67132 0.89724 0.7973 0.0
C1900 C 0.64674 0.88143 0.78586 0.0
C1901 C 0.62735 0.86966 0.80601 0.0
C1902 C 0.63253 0.87365 0.83763 0.0
C1903 C 0.62751 0.95542 0.96126 0.0
C1904 C 0.6003 0.94221 0.96041 0.0
C1905 C 0.64445 0.94579 0.94916 0.0
C1906 C 0.63453 0.92275 0.93601 0.0
C1907 C 0.60729 0.90995 0.9345 0.0
C1908 C 0.59045 0.91947 0.94662 0.0
C1909 C 0.65241 0.91115 0.92508 0.0
C1910 C 0.64711 0.90496 0.89418 0.0
C1911 C 0.67413 0.90552 0.94513 0.0
C1912 C 0.68013 0.91032 0.97846 0.0
C1913 C 0.66053 0.90029 0.99885 0.0
C1914 C 0.66593 0.90572 0.02981 0.0
C1915 C 0.69109 0.92052 0.04111 0.0
C1916 C 0.71092 0.93008 0.02125 0.0
C1917 C 0.7055 0.92505 0.99001 0.0
H1918 H 0.69519 0.92458 0.06521 0.0
H1919 H 0.64268 0.8784 0.76136 0.0
H1920 H 0.85834 0.68842 0.16872 0.0
H1921 H 0.87262 0.65492 0.15448 0.0
H1922 H 0.86933 0.68955 0.05751 0.0
H1923 H 0.85322 0.72179 0.07107 0.0
H1924 H 0.85476 0.64184 0.05692 0.0
H1925 H 0.92916 0.69903 0.11343 0.0
H1926 H 0.95311 0.72144 0.1588 0.0
H1927 H 0.94575 0.64965 0.21756 0.0
H1928 H 0.9215 0.62682 0.17258 0.0
H1929 H 0.98489 0.61541 0.04325 0.0
H1930 H 0.95979 0.63681 0.06368 0.0
H1931 H 0.89128 0.5703 0.05932 0.0
H1932 H 0.91652 0.54859 0.038 0.0
H1933 H 0.93832 0.62886 0.11486 0.0
H1934 H 0.83419 0.59298 0.04532 0.0
H1935 H 0.81372 0.57549 0.99555 0.0
H1936 H 0.88668 0.61214 0.95587 0.0
H1937 H 0.90708 0.63067 0.0046 0.0
C1938 C 0.86009 0.68865 0.14424 0.0
C1939 C 0.855 0.7083 0.12122 0.0
C1940 C 0.86864 0.66958 0.13615 0.0
C1941 C 0.8728 0.66989 0.10495 0.0
C1942 C 0.86656 0.68879 0.08179 0.0
C1943 C 0.85766 0.70757 0.08974 0.0
C1944 C 0.88475 0.65149 0.09634 0.0
C1945 C 0.87291 0.63885 0.06982 0.0
C1946 C 0.90861 0.64756 0.11278 0.0
C1947 C 0.92327 0.66125 0.13977 0.0
C1948 C 0.93252 0.68804 0.13608 0.0
C1949 C 0.94616 0.70081 0.16171 0.0
C1950 C 0.95087 0.68698 0.19107 0.0
C1951 C 0.94203 0.66034 0.19483 0.0
C1952 C 0.92836 0.64747 0.16928 0.0
C1953 C 0.96448 0.60513 0.04656 0.0
C1954 C 0.9528 0.58016 0.03883 0.0
C1955 C 0.95013 0.61746 0.05851 0.0
C1956 C 0.92354 0.60533 0.06317 0.0
C1957 C 0.9117 0.58025 0.05577 0.0
C1958 C 0.92616 0.5678 0.04361 0.0
C1959 C 0.90862 0.61961 0.07509 0.0
C1960 C 0.91988 0.63143 0.1023 0.0
C1961 C 0.88467 0.62336 0.05873 0.0
C1962 C 0.87231 0.6128 0.02888 0.0
C1963 C 0.84578 0.59741 0.02585 0.0
C1964 C 0.83412 0.58741 0.99773 0.0
C1965 C 0.84884 0.59265 0.97249 0.0
C1966 C 0.87517 0.6081 0.97524 0.0
C1967 C 0.88679 0.61841 0.00312 0.0
H1968 H 0.83981 0.58473 0.95084 0.0
H1969 H 0.96143 0.6969 0.21088 0.0
H1970 H 0.29687 0.79534 0.1479 0.0
H1971 H 0.32901 0.83143 0.12085 0.0
H1972 H 0.38228 0.8387 0.20762 0.0
H1973 H 0.34959 0.80371 0.23471 0.0
H1974 H 0.38315 0.88324 0.18195 0.0
H1975 H 0.38938 0.81033 0.14267 0.0
H1976 H 0.37298 0.77137 0.11676 0.0
H1977 H 0.34696 0.8138 0.03182 0.0
H1978 H 0.36291 0.85296 0.05737 0.0
H1979 H 0.50733 0.94536 0.12065 0.0
H1980 H 0.46908 0.91624 0.14525 0.0
H1981 H 0.41728 0.93033 0.06127 0.0
H1982 H 0.45529 0.9598 0.03666 0.0
H1983 H 0.4128 0.8777 0.08232 0.0
H1984 H 0.41069 0.95154 0.12286 0.0
H1985 H 0.42888 0.9897 0.15023 0.0
H1986 H 0.45045 0.9439 0.23462 0.0
H1987 H 0.43271 0.90553 0.2076 0.0
C1988 C 0.31542 0.80487 0.16103 0.0
C1989 C 0.3206 0.7974 0.1934 0.0
C1990 C 0.3339 0.8253 0.14559 0.0
C1991 C 0.3583 0.8378 0.16207 0.0
C1992 C 0.36361 0.82965 0.19435 0.0
C1993 C 0.34496 0.80966 0.20983 0.0
C1994 C 0.37839 0.85942 0.14609 0.0
C1995 C 0.38978 0.88184 0.16033 0.0
C1996 C 0.38672 0.85804 0.11742 0.0
C1997 C 0.37706 0.83451 0.10205 0.0
C1998 C 0.37997 0.81131 0.11855 0.0
C1999 C 0.37079 0.7892 0.10392 0.0
C2000 C 0.35886 0.7901 0.0727 0.0
C2001 C 0.35615 0.81312 0.05602 0.0
C2002 C 0.36527 0.83528 0.07056 0.0
C2003 C 0.48774 0.94268 0.10764 0.0
C2004 C 0.4844 0.95496 0.0767 0.0
C2005 C 0.4659 0.92605 0.12175 0.0
C2006 C 0.44035 0.92112 0.10507 0.0
C2007 C 0.43682 0.93391 0.07456 0.0
C2008 C 0.45858 0.95088 0.06062 0.0
C2009 C 0.41776 0.90109 0.11856 0.0
C2010 C 0.40595 0.87904 0.10382 0.0
C2011 C 0.4094 0.90259 0.14702 0.0
C2012 C 0.42055 0.92571 0.16313 0.0
C2013 C 0.41956 0.94966 0.14715 0.0
C2014 C 0.42974 0.97132 0.16262 0.0
C2015 C 0.44088 0.96924 0.19412 0.0
C2016 C 0.44189 0.9455 0.2102 0.0
C2017 C 0.43177 0.9238 0.19482 0.0
H2018 H 0.44869 0.98602 0.20608 0.0
H2019 H 0.35178 0.77296 0.06141 0.0
H2020 H 0.70829 0.23891 0.15713 0.0
H2021 H 0.67776 0.20846 0.1237 0.0
H2022 H 0.70535 0.1479 0.1793 0.0
H2023 H 0.73511 0.17803 0.21406 0.0
H2024 H 0.69528 0.16662 0.09364 0.0
H2025 H 0.66069 0.1253 0.19744 0.0
H2026 H 0.64887 0.13098 0.24751 0.0
H2027 H 0.59816 0.17428 0.1965 0.0
H2028 H 0.61013 0.16924 0.14619 0.0
H2029 H 0.59472 0.05348 0.0406 0.0
H2030 H 0.63137 0.08325 0.06977 0.0
H2031 H 0.58459 0.13465 0.05956 0.0
H2032 H 0.54827 0.10548 0.02969 0.0
H2033 H 0.60561 0.11955 0.12363 0.0
H2034 H 0.63192 0.15615 0.02238 0.0
H2035 H 0.64667 0.16218 0.97016 0.0
H2036 H 0.71313 0.13578 0.01191 0.0
H2037 H 0.69865 0.12937 0.06441 0.0
C2038 C 0.7076 0.21906 0.16266 0.0
C2039 C 0.72361 0.21079 0.18882 0.0
C2040 C 0.69035 0.20176 0.14329 0.0
C2041 C 0.6891 0.17596 0.14938 0.0
C2042 C 0.70585 0.16773 0.17455 0.0
C2043 C 0.72291 0.185 0.19425 0.0
C2044 C 0.66969 0.15771 0.12965 0.0
C2045 C 0.67588 0.15571 0.10041 0.0
C2046 C 0.64413 0.14457 0.13809 0.0
C2047 C 0.63645 0.14707 0.16818 0.0
C2048 C 0.64717 0.13618 0.19697 0.0
C2049 C 0.64044 0.13926 0.22536 0.0
C2050 C 0.62281 0.15301 0.22519 0.0
C2051 C 0.61182 0.16364 0.1966 0.0
C2052 C 0.61859 0.16069 0.16816 0.0
C2053 C 0.5924 0.07128 0.04425 0.0
C2054 C 0.56855 0.07707 0.033 0.0
C2055 C 0.61337 0.0883 0.06077 0.0
C2056 C 0.61063 0.1111 0.06685 0.0
C2057 C 0.58709 0.11716 0.05507 0.0
C2058 C 0.56638 0.10048 0.03796 0.0
C2059 C 0.63135 0.12763 0.08765 0.0
C2060 C 0.62525 0.12967 0.11705 0.0
C2061 C 0.65696 0.14098 0.07911 0.0
C2062 C 0.66399 0.14196 0.04731 0.0
C2063 C 0.64937 0.15113 0.02038 0.0
C2064 C 0.65786 0.15491 0.99077 0.0
C2065 C 0.68098 0.14964 0.98779 0.0
C2066 C 0.69536 0.14007 0.01431 0.0
C2067 C 0.68699 0.13632 0.04398 0.0
H2068 H 0.68759 0.15269 0.96486 0.0
H2069 H 0.61765 0.15542 0.24718 0.0
H2070 H 0.68985 0.73559 0.78752 0.0
H2071 H 0.64966 0.70784 0.80931 0.0
H2072 H 0.66781 0.64174 0.79247 0.0
H2073 H 0.70711 0.66976 0.76874 0.0
H2074 H 0.61723 0.63185 0.78471 0.0
H2075 H 0.68537 0.66511 0.86525 0.0
H2076 H 0.71989 0.69868 0.89173 0.0
H2077 H 0.661 0.7317 0.90434 0.0
H2078 H 0.62617 0.69856 0.8774 0.0
H2079 H 0.56246 0.54865 0.92035 0.0
H2080 H 0.5924 0.57662 0.88338 0.0
H2081 H 0.54868 0.63105 0.86944 0.0
H2082 H 0.51807 0.60278 0.90584 0.0
H2083 H 0.60964 0.64708 0.89123 0.0
H2084 H 0.54092 0.60701 0.81173 0.0
H2085 H 0.5101 0.5696 0.7885 0.0
H2086 H 0.57552 0.54395 0.78001 0.0
H2087 H 0.60671 0.58103 0.80362 0.0
C2088 C 0.68487 0.71513 0.78804 0.0
C2089 C 0.70135 0.7046 0.77677 0.0
C2090 C 0.66206 0.69929 0.80059 0.0
C2091 C 0.65608 0.67265 0.80336 0.0
C2092 C 0.67202 0.66221 0.7907 0.0
C2093 C 0.69445 0.67814 0.77725 0.0
C2094 C 0.63443 0.65579 0.82143 0.0
C2095 C 0.61568 0.63515 0.80804 0.0
C2096 C 0.63242 0.65994 0.85202 0.0
C2097 C 0.65319 0.6795 0.86903 0.0
C2098 C 0.67979 0.6796 0.87355 0.0
C2099 C 0.69942 0.69855 0.88862 0.0
C2100 C 0.69265 0.71735 0.89964 0.0
C2101 C 0.66622 0.71715 0.89574 0.0
C2102 C 0.64652 0.69827 0.88058 0.0
C2103 C 0.55901 0.56643 0.90909 0.0
C2104 C 0.53804 0.57364 0.91599 0.0
C2105 C 0.57605 0.58229 0.88796 0.0
C2106 C 0.57262 0.60577 0.8738 0.0
C2107 C 0.55145 0.61289 0.88014 0.0
C2108 C 0.53401 0.59674 0.9008 0.0
C2109 C 0.59243 0.62357 0.85426 0.0
C2110 C 0.61103 0.64416 0.86765 0.0
C2111 C 0.59484 0.6188 0.82427 0.0
C2112 C 0.57612 0.59669 0.80969 0.0
C2113 C 0.54872 0.59328 0.80516 0.0
C2114 C 0.53118 0.57216 0.79186 0.0
C2115 C 0.54084 0.55438 0.78285 0.0
C2116 C 0.56807 0.55773 0.78702 0.0
C2117 C 0.58568 0.57881 0.80031 0.0
H2118 H 0.52724 0.53803 0.77258 0.0
H2119 H 0.70787 0.73204 0.91125 0.0
H2120 H 0.29757 0.61658 0.85974 0.0
H2121 H 0.32523 0.62156 0.91027 0.0
H2122 H 0.37524 0.6936 0.86998 0.0
H2123 H 0.34902 0.68759 0.81903 0.0
H2124 H 0.40349 0.66664 0.89425 0.0
H2125 H 0.34246 0.6901 0.93551 0.0
H2126 H 0.2993 0.69125 0.946 0.0
H2127 H 0.28473 0.61585 0.99709 0.0
H2128 H 0.32756 0.61396 0.98642 0.0
H2129 H 0.47873 0.61503 0.0072 0.0
H2130 H 0.45532 0.64659 0.00325 0.0
H2131 H 0.38129 0.58983 0.97927 0.0
H2132 H 0.40432 0.55821 0.98373 0.0
H2133 H 0.37485 0.63367 1.00024 0.0
H2134 H 0.42063 0.61186 0.9184 0.0
H2135 H 0.46213 0.60809 0.90552 0.0
H2136 H 0.50433 0.68253 0.93153 0.0
H2137 H 0.46304 0.68655 0.94481 0.0
C2138 C 0.31423 0.6336 0.86177 0.0
C2139 C 0.32069 0.65192 0.83546 0.0
C2140 C 0.32977 0.63674 0.89086 0.0
C2141 C 0.35196 0.65838 0.89423 0.0
C2142 C 0.35793 0.67705 0.86818 0.0
C2143 C 0.34275 0.67364 0.83906 0.0
C2144 C 0.37173 0.65859 0.92256 0.0
C2145 C 0.39751 0.66071 0.91771 0.0
C2146 C 0.36423 0.65107 0.95331 0.0
C2147 C 0.33839 0.65193 0.96019 0.0
C2148 C 0.33003 0.67368 0.94886 0.0
C2149 C 0.30559 0.67447 0.95484 0.0
C2150 C 0.2893 0.65364 0.97224 0.0
C2151 C 0.29743 0.632 0.98371 0.0
C2152 C 0.32184 0.63108 0.97775 0.0
C2153 C 0.45733 0.60904 0.00229 0.0
C2154 C 0.4434 0.58458 0.99411 0.0
C2155 C 0.44396 0.62702 1.00057 0.0
C2156 C 0.41675 0.62071 0.98997 0.0
C2157 C 0.40237 0.59517 0.98716 0.0
C2158 C 0.41565 0.57721 0.98901 0.0
C2159 C 0.40537 0.64016 0.97088 0.0
C2160 C 0.38121 0.64163 0.97725 0.0
C2161 C 0.41433 0.65143 0.94139 0.0
C2162 C 0.43894 0.64946 0.93262 0.0
C2163 C 0.43879 0.62742 0.92122 0.0
C2164 C 0.46224 0.62521 0.91396 0.0
C2165 C 0.48585 0.64506 0.91771 0.0
C2166 C 0.48603 0.66717 0.92867 0.0
C2167 C 0.46263 0.66943 0.93608 0.0
H2168 H 0.504 0.64333 0.91211 0.0
H2169 H 0.27035 0.65426 0.97679 0.0
H2170 H 0.31929 0.30594 0.83515 0.0
H2171 H 0.34871 0.34197 0.86007 0.0
H2172 H 0.36989 0.38237 0.76957 0.0
H2173 H 0.33969 0.34622 0.74388 0.0
H2174 H 0.41367 0.38198 0.81697 0.0
H2175 H 0.33296 0.40286 0.80249 0.0
H2176 H 0.28521 0.39469 0.80363 0.0
H2177 H 0.29556 0.37644 0.90425 0.0
H2178 H 0.3433 0.38403 0.90371 0.0
H2179 H 0.45585 0.48911 0.92545 0.0
H2180 H 0.42371 0.4662 0.88545 0.0
H2181 H 0.4492 0.3994 0.91938 0.0
H2182 H 0.48159 0.42215 0.95905 0.0
H2183 H 0.38222 0.42283 0.8887 0.0
H2184 H 0.45115 0.37135 0.85835 0.0
H2185 H 0.4991 0.37877 0.8596 0.0
H2186 H 0.51231 0.45967 0.84758 0.0
H2187 H 0.46441 0.45278 0.84567 0.0
C2188 C 0.32998 0.32244 0.82028 0.0
C2189 C 0.32728 0.32303 0.78742 0.0
C2190 C 0.34676 0.34309 0.83467 0.0
C2191 C 0.36124 0.36484 0.81662 0.0
C2192 C 0.35877 0.36568 0.78382 0.0
C2193 C 0.34165 0.34499 0.76925 0.0
C2194 C 0.37959 0.38604 0.83281 0.0
C2195 C 0.40685 0.39126 0.83229 0.0
C2196 C 0.3705 0.39823 0.85249 0.0
C2197 C 0.34178 0.39393 0.85302 0.0
C2198 C 0.32505 0.39694 0.82486 0.0
C2199 C 0.29797 0.39242 0.8254 0.0
C2200 C 0.28735 0.385 0.85399 0.0
C2201 C 0.30381 0.38217 0.88212 0.0
C2202 C 0.3309 0.38662 0.88171 0.0
C2203 C 0.45448 0.46947 0.92456 0.0
C2204 C 0.47146 0.45751 0.94521 0.0
C2205 C 0.43613 0.45646 0.90168 0.0
C2206 C 0.43453 0.43135 0.89908 0.0
C2207 C 0.45059 0.419 0.92058 0.0
C2208 C 0.46897 0.43198 0.94335 0.0
C2209 C 0.41625 0.41791 0.87383 0.0
C2210 C 0.38905 0.41412 0.87276 0.0
C2211 C 0.4254 0.40713 0.85259 0.0
C2212 C 0.45413 0.41151 0.85202 0.0
C2213 C 0.46423 0.39073 0.85562 0.0
C2214 C 0.49143 0.39485 0.85654 0.0
C2215 C 0.50875 0.41967 0.85376 0.0
C2216 C 0.49888 0.44044 0.8498 0.0
C2217 C 0.4717 0.43644 0.84879 0.0
H2218 H 0.52981 0.4228 0.85465 0.0
H2219 H 0.26637 0.38149 0.85436 0.0
H2220 H 0.65556 0.32992 0.79925 0.0
H2221 H 0.63578 0.34898 0.83153 0.0
H2222 H 0.67598 0.42402 0.78779 0.0
H2223 H 0.69616 0.40516 0.75599 0.0
H2224 H 0.67902 0.42248 0.85101 0.0
H2225 H 0.61061 0.39574 0.76564 0.0
H2226 H 0.58027 0.36484 0.73175 0.0
H2227 H 0.5445 0.31919 0.81228 0.0
H2228 H 0.57489 0.34966 0.84673 0.0
H2229 H 0.60295 0.49074 0.90068 0.0
H2230 H 0.62592 0.47306 0.87077 0.0
H2231 H 0.58177 0.39689 0.90692 0.0
H2232 H 0.55759 0.41447 0.93505 0.0
H2233 H 0.58149 0.39957 0.84701 0.0
H2234 H 0.66674 0.41435 0.92798 0.0
H2235 H 0.70235 0.441 0.96229 0.0
H2236 H 0.70512 0.50677 0.89314 0.0
H2237 H 0.67089 0.48001 0.85742 0.0
C2238 C 0.66039 0.35048 0.79675 0.0
C2239 C 0.67731 0.366 0.77486 0.0
C2240 C 0.64888 0.36135 0.81501 0.0
C2241 C 0.65409 0.38795 0.81179 0.0
C2242 C 0.67152 0.40347 0.79058 0.0
C2243 C 0.68291 0.39263 0.77225 0.0
C2244 C 0.64141 0.39971 0.8304 0.0
C2245 C 0.65766 0.41768 0.84981 0.0
C2246 C 0.61358 0.39309 0.82951 0.0
C2247 C 0.5952 0.37485 0.80879 0.0
C2248 C 0.59641 0.37901 0.77615 0.0
C2249 C 0.57918 0.36159 0.75684 0.0
C2250 C 0.56051 0.34003 0.76986 0.0
C2251 C 0.55899 0.33588 0.80223 0.0
C2252 C 0.5762 0.35323 0.82165 0.0
C2253 C 0.59826 0.47023 0.90229 0.0
C2254 C 0.57826 0.45402 0.91993 0.0
C2255 C 0.61178 0.46009 0.88562 0.0
C2256 C 0.60623 0.43354 0.88711 0.0
C2257 C 0.58657 0.41741 0.90532 0.0
C2258 C 0.57264 0.42751 0.92132 0.0
C2259 C 0.6191 0.42238 0.86783 0.0
C2260 C 0.60284 0.40445 0.8482 0.0
C2261 C 0.64692 0.42887 0.86863 0.0
C2262 C 0.66563 0.44547 0.89066 0.0
C2263 C 0.6747 0.43458 0.92036 0.0
C2264 C 0.69485 0.44962 0.93988 0.0
C2265 C 0.70553 0.4757 0.9303 0.0
C2266 C 0.69657 0.48665 0.90075 0.0
C2267 C 0.67701 0.47151 0.88071 0.0
H2268 H 0.72098 0.48734 0.9456 0.0
H2269 H 0.54719 0.32657 0.75487 0.0
H2270 H 0.69206 0.34973 0.1319 0.0
H2271 H 0.66864 0.35919 0.08064 0.0
H2272 H 0.73962 0.37471 0.03758 0.0
H2273 H 0.76256 0.36212 0.08899 0.0
H2274 H 0.71657 0.41747 0.04752 0.0
H2275 H 0.69857 0.34554 0.99639 0.0
H2276 H 0.68512 0.29986 0.99078 0.0
H2277 H 0.60633 0.29157 0.00812 0.0
H2278 H 0.61934 0.33708 0.01437 0.0
H2279 H 0.63056 0.48475 0.97997 0.0
H2280 H 0.65967 0.46098 0.97273 0.0
H2281 H 0.60685 0.39173 0.01557 0.0
H2282 H 0.57676 0.41525 0.02032 0.0
H2283 H 0.63333 0.37887 0.98098 0.0
H2284 H 0.65586 0.43766 0.05912 0.0
H2285 H 0.66652 0.4799 0.07649 0.0
H2286 H 0.73311 0.5082 0.02382 0.0
H2287 H 0.72274 0.46614 0.00608 0.0
C2288 C 0.70247 0.35378 0.11147 0.0
C2289 C 0.72964 0.35631 0.11461 0.0
C2290 C 0.68895 0.35909 0.08205 0.0
C2291 C 0.7025 0.36775 0.05547 0.0
C2292 C 0.72889 0.368 0.0579 0.0
C2293 C 0.74215 0.36162 0.08728 0.0
C2294 C 0.69133 0.38329 0.02926 0.0
C2295 C 0.69893 0.40933 0.03184 0.0
C2296 C 0.66812 0.3723 0.00963 0.0
C2297 C 0.65999 0.34484 0.00582 0.0
C2298 C 0.67841 0.33397 0.9992 0.0
C2299 C 0.67085 0.30809 0.99588 0.0
C2300 C 0.64488 0.29283 0.99907 0.0
C2301 C 0.62642 0.30343 0.00558 0.0
C2302 C 0.63387 0.3293 0.00893 0.0
C2303 C 0.62498 0.46431 0.98703 0.0
C2304 C 0.60214 0.45177 0.00176 0.0
C2305 C 0.64143 0.4507 0.98262 0.0
C2306 C 0.63599 0.42474 0.99469 0.0
C2307 C 0.61166 0.4118 0.00633 0.0
C2308 C 0.59465 0.42524 0.00951 0.0
C2309 C 0.65732 0.41242 0.0018 0.0
C2310 C 0.65165 0.38731 0.99535 0.0
C2311 C 0.68167 0.42373 0.01979 0.0
C2312 C 0.6881 0.44899 0.03058 0.0
C2313 C 0.67264 0.45297 0.05106 0.0
C2314 C 0.67866 0.47685 0.06102 0.0
C2315 C 0.70036 0.49678 0.05107 0.0
C2316 C 0.71619 0.4928 0.03131 0.0
C2317 C 0.71021 0.46896 0.02124 0.0
H2318 H 0.705 0.51526 0.0588 0.0
H2319 H 0.63908 0.27279 0.9965 0.0
H2320 H 0.69207 0.71629 0.20725 0.0
H2321 H 0.66126 0.68274 0.17812 0.0
H2322 H 0.7207 0.64386 0.19096 0.0
H2323 H 0.75169 0.67781 0.22005 0.0
H2324 H 0.69851 0.64855 0.13042 0.0
H2325 H 0.66771 0.61856 0.22983 0.0
H2326 H 0.65374 0.62176 0.27963 0.0
H2327 H 0.58685 0.64352 0.2285 0.0
H2328 H 0.6007 0.64098 0.17831 0.0
H2329 H 0.59558 0.5472 0.05796 0.0
H2330 H 0.63054 0.56956 0.09624 0.0
H2331 H 0.59142 0.62708 0.08865 0.0
H2332 H 0.55679 0.60531 0.05013 0.0
H2333 H 0.60577 0.60526 0.15219 0.0
H2334 H 0.64229 0.64228 0.05349 0.0
H2335 H 0.65733 0.64021 0.00385 0.0
H2336 H 0.71406 0.60391 0.0555 0.0
H2337 H 0.69907 0.60547 0.10547 0.0
C2338 C 0.69823 0.70026 0.20432 0.0
C2339 C 0.7238 0.6991 0.21603 0.0
C2340 C 0.68073 0.68116 0.18777 0.0
C2341 C 0.68861 0.66065 0.18279 0.0
C2342 C 0.71424 0.65945 0.19478 0.0
C2343 C 0.73178 0.67863 0.21142 0.0
C2344 C 0.6704 0.64149 0.16336 0.0
C2345 C 0.67842 0.63856 0.13557 0.0
C2346 C 0.64417 0.62868 0.17003 0.0
C2347 C 0.63534 0.62968 0.20023 0.0
C2348 C 0.65009 0.62416 0.22916 0.0
C2349 C 0.64219 0.62585 0.25748 0.0
C2350 C 0.61943 0.63284 0.25723 0.0
C2351 C 0.60448 0.63809 0.22865 0.0
C2352 C 0.61233 0.6365 0.20025 0.0
C2353 C 0.59456 0.56473 0.06426 0.0
C2354 C 0.57337 0.57443 0.05112 0.0
C2355 C 0.61448 0.5774 0.08612 0.0
C2356 C 0.61331 0.59977 0.09532 0.0
C2357 C 0.59245 0.60969 0.08194 0.0
C2358 C 0.57278 0.59728 0.05981 0.0
C2359 C 0.63373 0.61306 0.11898 0.0
C2360 C 0.62606 0.6148 0.14753 0.0
C2361 C 0.66031 0.6246 0.11315 0.0
C2362 C 0.66932 0.62367 0.08315 0.0
C2363 C 0.65778 0.63362 0.05423 0.0
C2364 C 0.66634 0.6326 0.02605 0.0
C2365 C 0.68657 0.62184 0.02651 0.0
C2366 C 0.69835 0.61217 0.05518 0.0
C2367 C 0.68984 0.61313 0.08343 0.0
H2368 H 0.69318 0.62108 0.00467 0.0
H2369 H 0.61338 0.63418 0.27918 0.0
H2370 H 0.39627 0.69395 0.21368 0.0
H2371 H 0.41186 0.6761 0.17591 0.0
H2372 H 0.35198 0.60412 0.19495 0.0
H2373 H 0.33645 0.62183 0.23276 0.0
H2374 H 0.39765 0.59632 0.1991 0.0
H2375 H 0.34967 0.6427 0.12326 0.0
H2376 H 0.33521 0.67954 0.09615 0.0
H2377 H 0.41422 0.71934 0.0743 0.0
H2378 H 0.42927 0.68287 0.10169 0.0
H2379 H 0.43075 0.54078 0.08151 0.0
H2380 H 0.40546 0.558 0.10903 0.0
H2381 H 0.46758 0.62977 0.10627 0.0
H2382 H 0.49296 0.61279 0.07909 0.0
H2383 H 0.4168 0.63568 0.09077 0.0
H2384 H 0.46437 0.58955 0.172 0.0
H2385 H 0.47732 0.55149 0.19759 0.0
H2386 H 0.39593 0.50997 0.20729 0.0
H2387 H 0.38248 0.54773 0.18137 0.0
C2388 C 0.38612 0.67448 0.20937 0.0
C2389 C 0.36531 0.65923 0.2265 0.0
C2390 C 0.39502 0.66427 0.1877 0.0
C2391 C 0.3831 0.63871 0.18246 0.0
C2392 C 0.36165 0.62381 0.19868 0.0
C2393 C 0.35284 0.63394 0.22039 0.0
C2394 C 0.3943 0.62691 0.16215 0.0
C2395 C 0.40133 0.60473 0.1752 0.0
C2396 C 0.39955 0.63799 0.13107 0.0
C2397 C 0.39067 0.66012 0.11487 0.0
C2398 C 0.36404 0.65941 0.11298 0.0
C2399 C 0.35572 0.6802 0.09748 0.0
C2400 C 0.37381 0.7018 0.0836 0.0
C2401 C 0.40024 0.70261 0.08512 0.0
C2402 C 0.40868 0.68187 0.1006 0.0
C2403 C 0.43908 0.56018 0.08692 0.0
C2404 C 0.46407 0.57525 0.07852 0.0
C2405 C 0.42456 0.57002 0.10253 0.0
C2406 C 0.43469 0.59516 0.10981 0.0
C2407 C 0.45936 0.61036 0.10086 0.0
C2408 C 0.47396 0.60049 0.08559 0.0
C2409 C 0.42027 0.60541 0.12797 0.0
C2410 C 0.41276 0.62725 0.11456 0.0
C2411 C 0.41431 0.59395 0.15862 0.0
C2412 C 0.4224 0.57135 0.17446 0.0
C2413 C 0.44923 0.57224 0.17939 0.0
C2414 C 0.45666 0.55074 0.19398 0.0
C2415 C 0.43745 0.5283 0.20398 0.0
C2416 C 0.41078 0.52735 0.19949 0.0
C2417 C 0.40324 0.54879 0.18487 0.0
H2418 H 0.44324 0.51167 0.21526 0.0
H2419 H 0.36732 0.71788 0.07161 0.0
H2420 H 0.34274 0.34957 0.23287 0.0
H2421 H 0.37996 0.38025 0.20785 0.0
H2422 H 0.39798 0.31861 0.17845 0.0
H2423 H 0.36034 0.28777 0.20316 0.0
H2424 H 0.44364 0.36785 0.21044 0.0
H2425 H 0.37196 0.33766 0.12481 0.0
H2426 H 0.32477 0.3281 0.10308 0.0
H2427 H 0.32752 0.40509 0.10748 0.0
H2428 H 0.3746 0.4149 0.12992 0.0
H2429 H 0.52796 0.43228 0.0928 0.0
H2430 H 0.49713 0.4029 0.12781 0.0
H2431 H 0.44934 0.45416 0.10994 0.0
H2432 H 0.47941 0.48288 0.07384 0.0
H2433 H 0.41865 0.41001 0.1044 0.0
H2434 H 0.4881 0.44386 0.18293 0.0
H2435 H 0.53354 0.4568 0.21039 0.0
H2436 H 0.53463 0.37905 0.2255 0.0
H2437 H 0.48929 0.36568 0.19773 0.0
C2438 C 0.35507 0.34257 0.2218 0.0
C2439 C 0.34909 0.31644 0.22023 0.0
C2440 C 0.37617 0.36005 0.20743 0.0
C2441 C 0.39169 0.35154 0.19166 0.0
C2442 C 0.38626 0.32537 0.19085 0.0
C2443 C 0.36479 0.30789 0.20471 0.0
C2444 C 0.41194 0.37023 0.17354 0.0
C2445 C 0.43845 0.37688 0.18704 0.0
C2446 C 0.40468 0.38262 0.14375 0.0
C2447 C 0.37668 0.37693 0.12932 0.0
C2448 C 0.36243 0.35247 0.12139 0.0
C2449 C 0.33572 0.34702 0.10892 0.0
C2450 C 0.32314 0.36596 0.10396 0.0
C2451 C 0.33728 0.39042 0.11137 0.0
C2452 C 0.36397 0.39594 0.12396 0.0
C2453 C 0.51108 0.4374 0.09677 0.0
C2454 C 0.50597 0.45975 0.08055 0.0
C2455 C 0.4935 0.42066 0.11686 0.0
C2456 C 0.47093 0.42634 0.12171 0.0
C2457 C 0.46648 0.44923 0.10644 0.0
C2458 C 0.48371 0.46567 0.08589 0.0
C2459 C 0.45099 0.40772 0.14089 0.0
C2460 C 0.42427 0.40107 0.12768 0.0
C2461 C 0.45808 0.39586 0.17133 0.0
C2462 C 0.48539 0.40381 0.18794 0.0
C2463 C 0.49811 0.42955 0.19185 0.0
C2464 C 0.52383 0.43695 0.20753 0.0
C2465 C 0.53699 0.41877 0.2196 0.0
C2466 C 0.52442 0.39312 0.21609 0.0
C2467 C 0.4987 0.38561 0.20041 0.0
H2468 H 0.5569 0.42454 0.23174 0.0
H2469 H 0.30248 0.36172 0.0943 0.0
H2470 H 0.79163 0.64154 0.60223 0.0
H2471 H 0.82033 0.62114 0.58602 0.0
H2472 H 0.88825 0.68523 0.60722 0.0
H2473 H 0.85942 0.70593 0.62325 0.0
H2474 H 0.88724 0.67258 0.54947 0.0
H2475 H 0.87986 0.62837 0.65331 0.0
H2476 H 0.85739 0.60337 0.69881 0.0
H2477 H 0.81705 0.54184 0.64451 0.0
H2478 H 0.83899 0.56664 0.59849 0.0
H2479 H 0.98508 0.61511 0.53766 0.0
H2480 H 0.95622 0.63582 0.55255 0.0
H2481 H 0.88841 0.57166 0.53138 0.0
H2482 H 0.91743 0.55063 0.51638 0.0
H2483 H 0.88962 0.58436 0.58954 0.0
H2484 H 0.89103 0.63173 0.48405 0.0
H2485 H 0.91088 0.65827 0.4376 0.0
H2486 H 0.96295 0.71293 0.49586 0.0
H2487 H 0.94261 0.6872 0.54262 0.0
C2488 C 0.81272 0.65124 0.60367 0.0
C2489 C 0.82322 0.67542 0.61393 0.0
C2490 C 0.82914 0.63945 0.59457 0.0
C2491 C 0.85652 0.65154 0.59549 0.0
C2492 C 0.8672 0.67549 0.60633 0.0
C2493 C 0.85074 0.68722 0.61571 0.0
C2494 C 0.87361 0.63971 0.58351 0.0
C2495 C 0.88807 0.65344 0.55865 0.0
C2496 C 0.87422 0.61445 0.59476 0.0
C2497 C 0.86087 0.59949 0.62233 0.0
C2498 C 0.866 0.60961 0.65096 0.0
C2499 C 0.8534 0.59545 0.67687 0.0
C2500 C 0.83575 0.57106 0.67453 0.0
C2501 C 0.8307 0.56076 0.64627 0.0
C2502 C 0.84323 0.57485 0.62027 0.0
C2503 C 0.96398 0.60548 0.53569 0.0
C2504 C 0.95363 0.58107 0.526 0.0
C2505 C 0.94743 0.61748 0.54407 0.0
C2506 C 0.92005 0.60543 0.54304 0.0
C2507 C 0.90947 0.58138 0.5324 0.0
C2508 C 0.92606 0.56942 0.52368 0.0
C2509 C 0.90304 0.61719 0.55535 0.0
C2510 C 0.88871 0.60348 0.58038 0.0
C2511 C 0.90255 0.64247 0.54438 0.0
C2512 C 0.91559 0.65743 0.51677 0.0
C2513 C 0.90688 0.6493 0.48696 0.0
C2514 C 0.91813 0.66423 0.46057 0.0
C2515 C 0.93844 0.68705 0.46377 0.0
C2516 C 0.94731 0.69518 0.4934 0.0
C2517 C 0.93578 0.68056 0.51983 0.0
H2518 H 0.94716 0.69849 0.44325 0.0
H2519 H 0.82603 0.56012 0.69463 0.0
H2520 H 0.33024 0.80446 0.73477 0.0
H2521 H 0.36817 0.83354 0.71009 0.0
H2522 H 0.31575 0.84766 0.62641 0.0
H2523 H 0.2782 0.81659 0.65022 0.0
H2524 H 0.35546 0.84144 0.6097 0.0
H2525 H 0.34942 0.891 0.68913 0.0
H2526 H 0.35009 0.89717 0.74414 0.0
H2527 H 0.42721 0.88696 0.76791 0.0
H2528 H 0.42701 0.88058 0.71315 0.0
H2529 H 0.42879 0.96724 0.54 0.0
H2530 H 0.39716 0.92989 0.5654 0.0
H2531 H 0.46188 0.90903 0.62506 0.0
H2532 H 0.49375 0.94629 0.59894 0.0
H2533 H 0.42262 0.91288 0.6576 0.0
H2534 H 0.43273 0.88365 0.56381 0.0
H2535 H 0.43142 0.87341 0.50455 0.0
H2536 H 0.32088 0.84245 0.50721 0.0
H2537 H 0.33737 0.85858 0.56351 0.0
C2538 C 0.32693 0.81337 0.71086 0.0
C2539 C 0.30146 0.80731 0.69383 0.0
C2540 C 0.34863 0.83053 0.69695 0.0
C2541 C 0.3451 0.8431 0.66624 0.0
C2542 C 0.31928 0.83801 0.64992 0.0
C2543 C 0.29774 0.82029 0.66352 0.0
C2544 C 0.36801 0.86087 0.65027 0.0
C2545 C 0.3694 0.85796 0.61933 0.0
C2546 C 0.38787 0.88075 0.66442 0.0
C2547 C 0.38812 0.88514 0.69711 0.0
C2548 C 0.36649 0.89001 0.70611 0.0
C2549 C 0.36678 0.89353 0.73723 0.0
C2550 C 0.3886 0.89237 0.7595 0.0
C2551 C 0.4103 0.88783 0.75065 0.0
C2552 C 0.41014 0.88431 0.71958 0.0
C2553 C 0.43625 0.95437 0.55817 0.0
C2554 C 0.46365 0.95954 0.56757 0.0
C2555 C 0.41817 0.93302 0.57257 0.0
C2556 C 0.42709 0.91655 0.59702 0.0
C2557 C 0.45456 0.92143 0.6061 0.0
C2558 C 0.47275 0.94259 0.59116 0.0
C2559 C 0.4077 0.89571 0.61485 0.0
C2560 C 0.40776 0.89741 0.64679 0.0
C2561 C 0.38792 0.87567 0.60065 0.0
C2562 C 0.38521 0.87209 0.56686 0.0
C2563 C 0.41354 0.87707 0.55037 0.0
C2564 C 0.4125 0.86976 0.51341 0.0
C2565 C 0.36339 0.85085 0.48893 0.0
C2566 C 0.34196 0.8497 0.51421 0.0
C2567 C 0.35297 0.85989 0.54999 0.0
H2568 H 0.35469 0.84389 0.46632 0.0
H2569 H 0.38873 0.89504 0.78358 0.0
H2570 H 0.18881 0.26329 0.69741 0.0
H2571 H 0.16573 0.29265 0.66774 0.0
H2572 H 0.23914 0.3539 0.67017 0.0
H2573 H 0.26221 0.32431 0.70217 0.0
H2574 H 0.20367 0.37283 0.67815 0.0
H2575 H 0.20037 0.32017 0.60015 0.0
H2576 H 0.19019 0.28065 0.57634 0.0
H2577 H 0.10794 0.26328 0.58602 0.0
H2578 H 0.11752 0.3026 0.60991 0.0
H2579 H 0.1475 0.45972 0.57082 0.0
H2580 H 0.17258 0.43075 0.59669 0.0
H2581 H 0.10052 0.36795 0.59684 0.0
H2582 H 0.07525 0.39708 0.56971 0.0
H2583 H 0.13623 0.35038 0.58621 0.0
H2584 H 0.13775 0.39925 0.66632 0.0
H2585 H 0.14529 0.43802 0.69061 0.0
H2586 H 0.22789 0.46076 0.67954 0.0
H2587 H 0.22078 0.42226 0.65481 0.0
C2588 C 0.20032 0.28294 0.69134 0.0
C2589 C 0.22771 0.291 0.70196 0.0
C2590 C 0.18693 0.29993 0.67388 0.0
C2591 C 0.20031 0.3259 0.66539 0.0
C2592 C 0.2279 0.33411 0.6758 0.0
C2593 C 0.24134 0.31702 0.6939 0.0
C2594 C 0.1852 0.3443 0.6472 0.0
C2595 C 0.18934 0.36793 0.65768 0.0
C2596 C 0.16538 0.33816 0.62093 0.0
C2597 C 0.15973 0.31428 0.60704 0.0
C2598 C 0.18016 0.30781 0.59748 0.0
C2599 C 0.17449 0.28544 0.58399 0.0
C2600 C 0.14851 0.26941 0.57987 0.0
C2601 C 0.12808 0.2757 0.58923 0.0
C2602 C 0.1336 0.29805 0.60269 0.0
C2603 C 0.13675 0.43977 0.57637 0.0
C2604 C 0.10898 0.43113 0.56816 0.0
C2605 C 0.15131 0.42302 0.59159 0.0
C2606 C 0.13883 0.39678 0.59994 0.0
C2607 C 0.11109 0.38794 0.5912 0.0
C2608 C 0.09646 0.40476 0.57561 0.0
C2609 C 0.1547 0.37879 0.61722 0.0
C2610 C 0.15068 0.35527 0.6066 0.0
C2611 C 0.17433 0.38483 0.64361 0.0
C2612 C 0.17868 0.40801 0.65841 0.0
C2613 C 0.15749 0.41262 0.66885 0.0
C2614 C 0.16169 0.43453 0.68273 0.0
C2615 C 0.18704 0.45188 0.68653 0.0
C2616 C 0.20826 0.44732 0.67653 0.0
C2617 C 0.20416 0.42545 0.6626 0.0
H2618 H 0.19025 0.46883 0.69729 0.0
H2619 H 0.1442 0.25216 0.56932 0.0
H2620 H 0.75842 0.21232 0.66532 0.0
H2621 H 0.72976 0.17954 0.63373 0.0
H2622 H 0.66136 0.18432 0.66882 0.0
H2623 H 0.68998 0.21608 0.70158 0.0
H2624 H 0.65943 0.13716 0.67361 0.0
H2625 H 0.67556 0.20713 0.59078 0.0
H2626 H 0.70252 0.24381 0.5581 0.0
H2627 H 0.73924 0.19504 0.52926 0.0
H2628 H 0.71271 0.15808 0.56208 0.0
H2629 H 0.56161 0.05994 0.57232 0.0
H2630 H 0.59029 0.0972 0.59624 0.0
H2631 H 0.65884 0.08448 0.57134 0.0
H2632 H 0.63026 0.04705 0.54716 0.0
H2633 H 0.66075 0.13583 0.56016 0.0
H2634 H 0.64422 0.0661 0.64434 0.0
H2635 H 0.61662 0.02995 0.67708 0.0
H2636 H 0.57961 0.07972 0.70311 0.0
H2637 H 0.6067 0.11612 0.6701 0.0
C2638 C 0.73723 0.20665 0.66594 0.0
C2639 C 0.7265 0.217 0.68579 0.0
C2640 C 0.72082 0.18798 0.64772 0.0
C2641 C 0.69331 0.17958 0.64858 0.0
C2642 C 0.6825 0.19051 0.66765 0.0
C2643 C 0.69891 0.20894 0.68612 0.0
C2644 C 0.67597 0.15816 0.63148 0.0
C2645 C 0.65942 0.13714 0.64866 0.0
C2646 C 0.67645 0.15771 0.59911 0.0
C2647 C 0.69231 0.17987 0.57915 0.0
C2648 C 0.68951 0.20424 0.57765 0.0
C2649 C 0.70468 0.22508 0.55904 0.0
C2650 C 0.7226 0.22176 0.54163 0.0
C2651 C 0.72533 0.19757 0.54273 0.0
C2652 C 0.71021 0.17667 0.56132 0.0
C2653 C 0.58277 0.06502 0.5718 0.0
C2654 C 0.59362 0.05027 0.55806 0.0
C2655 C 0.59914 0.08635 0.58554 0.0
C2656 C 0.62671 0.09344 0.58589 0.0
C2657 C 0.6376 0.07929 0.57139 0.0
C2658 C 0.62124 0.05783 0.55772 0.0
C2659 C 0.64413 0.11514 0.6023 0.0
C2660 C 0.66074 0.13606 0.58505 0.0
C2661 C 0.64359 0.11566 0.63458 0.0
C2662 C 0.62728 0.09378 0.65445 0.0
C2663 C 0.63002 0.0693 0.6568 0.0
C2664 C 0.6145 0.04877 0.67545 0.0
C2665 C 0.59631 0.05252 0.69208 0.0
C2666 C 0.59366 0.07683 0.69016 0.0
C2667 C 0.6091 0.09742 0.67149 0.0
H2668 H 0.58433 0.0366 0.70653 0.0
H2669 H 0.73434 0.23791 0.52725 0.0
H2670 H 0.83548 0.28067 0.35002 0.0
H2671 H 0.86355 0.3103 0.38602 0.0
H2672 H 0.82594 0.36714 0.34059 0.0
H2673 H 0.79841 0.33801 0.30374 0.0
H2674 H 0.89931 0.3587 0.36914 0.0
H2675 H 0.82162 0.39987 0.39898 0.0
H2676 H 0.77398 0.38567 0.40466 0.0
H2677 H 0.77553 0.30818 0.42893 0.0
H2678 H 0.82325 0.32196 0.42399 0.0
H2679 H 0.92076 0.48258 0.43873 0.0
H2680 H 0.89053 0.4443 0.4181 0.0
H2681 H 0.94653 0.403 0.45824 0.0
H2682 H 0.9775 0.44179 0.47727 0.0
H2683 H 0.86442 0.39856 0.43849 0.0
H2684 H 0.9445 0.35984 0.41287 0.0
H2685 H 0.99155 0.37517 0.40406 0.0
H2686 H 0.98407 0.44935 0.36641 0.0
H2687 H 0.93693 0.43436 0.37468 0.0
C2688 C 0.83335 0.29956 0.34738 0.0
C2689 C 0.81503 0.30712 0.32354 0.0
C2690 C 0.84928 0.31638 0.36817 0.0
C2691 C 0.84678 0.34085 0.36598 0.0
C2692 C 0.82801 0.34823 0.34283 0.0
C2693 C 0.81229 0.33154 0.32178 0.0
C2694 C 0.86453 0.35916 0.38695 0.0
C2695 C 0.89178 0.3671 0.38476 0.0
C2696 C 0.85456 0.37037 0.40685 0.0
C2697 C 0.826 0.36196 0.41084 0.0
C2698 C 0.81184 0.37983 0.40574 0.0
C2699 C 0.78481 0.37184 0.40881 0.0
C2700 C 0.77172 0.34603 0.41706 0.0
C2701 C 0.78567 0.32816 0.42244 0.0
C2702 C 0.81271 0.33605 0.41949 0.0
C2703 C 0.92655 0.46529 0.44325 0.0
C2704 C 0.95165 0.46524 0.459 0.0
C2705 C 0.90921 0.44336 0.43159 0.0
C2706 C 0.91646 0.42086 0.43592 0.0
C2707 C 0.94081 0.42032 0.45367 0.0
C2708 C 0.95846 0.44245 0.46461 0.0
C2709 C 0.89922 0.39871 0.42004 0.0
C2710 C 0.87205 0.38997 0.42319 0.0
C2711 C 0.90919 0.38698 0.4006 0.0
C2712 C 0.93731 0.39604 0.39472 0.0
C2713 C 0.95289 0.37938 0.40258 0.0
C2714 C 0.97957 0.38802 0.39772 0.0
C2715 C 0.99082 0.41324 0.3848 0.0
C2716 C 0.97536 0.42984 0.37652 0.0
C2717 C 0.94867 0.42129 0.38129 0.0
H2718 H 1.0115 0.41991 0.38115 0.0
H2719 H 0.75078 0.33988 0.41934 0.0
H2720 H 0.68246 0.83111 0.34013 0.0
H2721 H 0.66685 0.86356 0.35507 0.0
H2722 H 0.69308 0.84258 0.45268 0.0
H2723 H 0.70961 0.81097 0.43785 0.0
H2724 H 0.62927 0.85822 0.38839 0.0
H2725 H 0.70742 0.89151 0.49467 0.0
H2726 H 0.75533 0.89918 0.51103 0.0
H2727 H 0.7689 0.9111 0.41425 0.0
H2728 H 0.72112 0.90383 0.39728 0.0
H2729 H 0.57107 0.90526 0.48454 0.0
H2730 H 0.5968 0.88301 0.46605 0.0
H2731 H 0.65623 0.95474 0.44395 0.0
H2732 H 0.63087 0.97694 0.46413 0.0
H2733 H 0.68009 0.92066 0.46156 0.0
H2734 H 0.60639 0.92436 0.38577 0.0
H2735 H 0.55961 0.91997 0.36533 0.0
H2736 H 0.53914 0.83912 0.3941 0.0
H2737 H 0.58576 0.84307 0.41512 0.0
C2738 C 0.68543 0.83377 0.3647 0.0
C2739 C 0.69721 0.81822 0.38774 0.0
C2740 C 0.67628 0.85223 0.37327 0.0
C2741 C 0.67885 0.85576 0.40505 0.0
C2742 C 0.69114 0.84064 0.42797 0.0
C2743 C 0.70032 0.82227 0.41944 0.0
C2744 C 0.66725 0.87398 0.41453 0.0
C2745 C 0.64044 0.87183 0.40442 0.0
C2746 C 0.68185 0.89237 0.43478 0.0
C2747 C 0.71065 0.89694 0.44473 0.0
C2748 C 0.72064 0.89588 0.47687 0.0
C2749 C 0.74777 0.90013 0.48625 0.0
C2750 C 0.76514 0.90557 0.4637 0.0
C2751 C 0.75541 0.90681 0.4317 0.0
C2752 C 0.7283 0.90258 0.42219 0.0
C2753 C 0.5899 0.91622 0.47634 0.0
C2754 C 0.59892 0.94283 0.47566 0.0
C2755 C 0.60448 0.90353 0.46534 0.0
C2756 C 0.62805 0.9172 0.4523 0.0
C2757 C 0.63796 0.94369 0.45343 0.0
C2758 C 0.62356 0.95639 0.46515 0.0
C2759 C 0.6417 0.90372 0.43699 0.0
C2760 C 0.66892 0.907 0.44561 0.0
C2761 C 0.6276 0.88657 0.41502 0.0
C2762 C 0.59956 0.88404 0.40217 0.0
C2763 C 0.59189 0.90566 0.38787 0.0
C2764 C 0.5654 0.90325 0.37618 0.0
C2765 C 0.54641 0.87928 0.37845 0.0
C2766 C 0.55387 0.85767 0.39236 0.0
C2767 C 0.58034 0.85997 0.40413 0.0
H2768 H 0.5259 0.87746 0.3694 0.0
H2769 H 0.78614 0.90886 0.47101 0.0
H2770 H 0.23058 0.73285 0.33369 0.0
H2771 H 0.20083 0.69734 0.36372 0.0
H2772 H 0.19052 0.65058 0.29077 0.0
H2773 H 0.21864 0.68703 0.25961 0.0
H2774 H 0.14557 0.64715 0.3023 0.0
H2775 H 0.21392 0.62032 0.38906 0.0
H2776 H 0.25236 0.62824 0.43039 0.0
H2777 H 0.22743 0.68577 0.45887 0.0
H2778 H 0.18836 0.6774 0.41846 0.0
H2779 H 0.07557 0.52856 0.38595 0.0
H2780 H 0.10618 0.56458 0.35748 0.0
H2781 H 0.10464 0.61336 0.42309 0.0
H2782 H 0.07403 0.57741 0.4518 0.0
H2783 H 0.15469 0.61623 0.41655 0.0
H2784 H 0.07642 0.62077 0.34729 0.0
H2785 H 0.03519 0.60496 0.31218 0.0
H2786 H 0.07862 0.58634 0.25055 0.0
H2787 H 0.12008 0.60164 0.28559 0.0
C2788 C 0.22267 0.71466 0.32468 0.0
C2789 C 0.22764 0.71237 0.29487 0.0
C2790 C 0.20579 0.69415 0.34206 0.0
C2791 C 0.19367 0.67073 0.3302 0.0
C2792 C 0.19959 0.66825 0.30078 0.0
C2793 C 0.21589 0.68901 0.28303 0.0
C2794 C 0.17202 0.65036 0.3458 0.0
C2795 C 0.14789 0.64014 0.32722 0.0
C2796 C 0.17414 0.6416 0.37856 0.0
C2797 C 0.19902 0.64908 0.39991 0.0
C2798 C 0.21703 0.63503 0.40374 0.0
C2799 C 0.23862 0.63925 0.42735 0.0
C2800 C 0.24254 0.65776 0.44696 0.0
C2801 C 0.22461 0.67174 0.44335 0.0
C2802 C 0.20267 0.66715 0.42024 0.0
C2803 C 0.08131 0.54704 0.39403 0.0
C2804 C 0.07229 0.55001 0.42124 0.0
C2805 C 0.09879 0.56768 0.37762 0.0
C2806 C 0.1077 0.59175 0.38804 0.0
C2807 C 0.09803 0.59499 0.41455 0.0
C2808 C 0.08038 0.57441 0.43085 0.0
C2809 C 0.12872 0.61288 0.37292 0.0
C2810 C 0.15254 0.62327 0.3916 0.0
C2811 C 0.12632 0.62156 0.34024 0.0
C2812 C 0.10135 0.61213 0.31927 0.0
C2813 C 0.07716 0.61306 0.32644 0.0
C2814 C 0.05374 0.60423 0.30651 0.0
C2815 C 0.05427 0.59458 0.2792 0.0
C2816 C 0.07823 0.59377 0.27175 0.0
C2817 C 0.1017 0.60253 0.29163 0.0
H2818 H 0.03612 0.58779 0.26378 0.0
H2819 H 0.25933 0.66108 0.46513 0.0
H2820 H 0.2863 0.18137 0.30643 0.0
H2821 H 0.31635 0.15916 0.33717 0.0
H2822 H 0.38077 0.22921 0.3318 0.0
H2823 H 0.35041 0.25137 0.29878 0.0
H2824 H 0.40087 0.19509 0.32717 0.0
H2825 H 0.35093 0.19313 0.41039 0.0
H2826 H 0.31178 0.18614 0.43729 0.0
H2827 H 0.28174 0.10897 0.41646 0.0
H2828 H 0.32098 0.11536 0.39009 0.0
H2829 H 0.4809 0.12613 0.44013 0.0
H2830 H 0.45657 0.15657 0.41438 0.0
H2831 H 0.38662 0.09386 0.39574 0.0
H2832 H 0.41051 0.06379 0.42095 0.0
H2833 H 0.37298 0.12869 0.41709 0.0
H2834 H 0.42666 0.1314 0.33733 0.0
H2835 H 0.46878 0.13873 0.31654 0.0
H2836 H 0.4941 0.21655 0.33477 0.0
H2837 H 0.45226 0.20956 0.35608 0.0
C2838 C 0.30679 0.19231 0.31212 0.0
C2839 C 0.3155 0.21848 0.30044 0.0
C2840 C 0.32417 0.17948 0.33027 0.0
C2841 C 0.35124 0.19219 0.33826 0.0
C2842 C 0.36013 0.21854 0.32663 0.0
C2843 C 0.34262 0.23144 0.30791 0.0
C2844 C 0.36994 0.17746 0.35699 0.0
C2845 C 0.39479 0.18097 0.34721 0.0
C2846 C 0.36269 0.15847 0.38322 0.0
C2847 C 0.33864 0.15485 0.39792 0.0
C2848 C 0.33584 0.17476 0.41134 0.0
C2849 C 0.31373 0.17085 0.42665 0.0
C2850 C 0.29418 0.14721 0.42832 0.0
C2851 C 0.29683 0.12731 0.41503 0.0
C2852 C 0.31907 0.13101 0.40009 0.0
C2853 C 0.46038 0.11881 0.43041 0.0
C2854 C 0.44799 0.09219 0.43271 0.0
C2855 C 0.44638 0.13633 0.41548 0.0
C2856 C 0.41945 0.12786 0.40257 0.0
C2857 C 0.4072 0.10132 0.40522 0.0
C2858 C 0.42112 0.08395 0.41974 0.0
C2859 C 0.4035 0.14601 0.38692 0.0
C2860 C 0.37913 0.14303 0.39724 0.0
C2861 C 0.41144 0.16564 0.36161 0.0
C2862 C 0.43647 0.16988 0.34863 0.0
C2863 C 0.4413 0.15002 0.33713 0.0
C2864 C 0.4651 0.15412 0.32522 0.0
C2865 C 0.48413 0.17807 0.32443 0.0
C2866 C 0.47936 0.19799 0.33546 0.0
C2867 C 0.4556 0.19398 0.34744 0.0
H2868 H 0.50255 0.18121 0.3152 0.0
H2869 H 0.27703 0.14427 0.44005 0.0
H2870 H 0.76766 0.83969 0.70612 0.0
H2871 H 0.73622 0.8617 0.67779 0.0
H2872 H 0.67467 0.78989 0.67562 0.0
H2873 H 0.70626 0.76758 0.70531 0.0
H2874 H 0.67728 0.82817 0.61453 0.0
H2875 H 0.66849 0.82247 0.72457 0.0
H2876 H 0.6872 0.82578 0.78017 0.0
H2877 H 0.7285 0.90493 0.75567 0.0
H2878 H 0.70996 0.9021 0.69993 0.0
H2879 H 0.5782 0.89428 0.56116 0.0
H2880 H 0.60251 0.86435 0.58841 0.0
H2881 H 0.66453 0.9266 0.6259 0.0
H2882 H 0.64041 0.95626 0.59911 0.0
H2883 H 0.65819 0.88887 0.67072 0.0
H2884 H 0.66994 0.8966 0.56368 0.0
H2885 H 0.65759 0.89576 0.50695 0.0
H2886 H 0.61709 0.81552 0.52276 0.0
H2887 H 0.62873 0.81604 0.58018 0.0
C2888 C 0.7475 0.82838 0.69946 0.0
C2889 C 0.73983 0.80167 0.70794 0.0
C2890 C 0.7294 0.84112 0.68315 0.0
C2891 C 0.70277 0.82775 0.67436 0.0
C2892 C 0.69503 0.80088 0.68188 0.0
C2893 C 0.7132 0.78804 0.69879 0.0
C2894 C 0.68335 0.84237 0.65883 0.0
C2895 C 0.67253 0.84093 0.62709 0.0
C2896 C 0.67771 0.85993 0.67446 0.0
C2897 C 0.68791 0.86205 0.7081 0.0
C2898 C 0.68155 0.84058 0.73107 0.0
C2899 C 0.69211 0.84237 0.7626 0.0
C2900 C 0.70909 0.86553 0.77143 0.0
C2901 C 0.71538 0.88699 0.74878 0.0
C2902 C 0.70471 0.88535 0.71725 0.0
C2903 C 0.59696 0.90163 0.57529 0.0
C2904 C 0.60705 0.928 0.57767 0.0
C2905 C 0.61108 0.88439 0.59088 0.0
C2906 C 0.63583 0.89282 0.60951 0.0
C2907 C 0.64564 0.91911 0.61208 0.0
C2908 C 0.63169 0.93627 0.59642 0.0
C2909 C 0.65172 0.87473 0.6261 0.0
C2910 C 0.66223 0.87572 0.65812 0.0
C2911 C 0.65733 0.85698 0.61055 0.0
C2912 C 0.64984 0.85646 0.57623 0.0
C2913 C 0.65812 0.87881 0.55513 0.0
C2914 C 0.65129 0.87837 0.52277 0.0
C2915 C 0.63653 0.85559 0.51105 0.0
C2916 C 0.62849 0.83318 0.53183 0.0
C2917 C 0.63515 0.83354 0.56433 0.0
H2918 H 0.63138 0.85528 0.48591 0.0
H2919 H 0.71729 0.86687 0.79584 0.0
H2920 H 0.74764 0.23022 0.35829 0.0
H2921 H 0.71013 0.20095 0.38393 0.0
H2922 H 0.68102 0.16424 0.29977 0.0
H2923 H 0.71636 0.19598 0.27298 0.0
H2924 H 0.64172 0.1611 0.32171 0.0
H2925 H 0.72388 0.14758 0.37464 0.0
H2926 H 0.7683 0.1632 0.40327 0.0
H2927 H 0.73467 0.17257 0.48119 0.0
H2928 H 0.69006 0.15975 0.4516 0.0
H2929 H 0.57597 0.03595 0.39571 0.0
H2930 H 0.60544 0.07387 0.36843 0.0
H2931 H 0.61125 0.11573 0.44489 0.0
H2932 H 0.58154 0.07797 0.47221 0.0
H2933 H 0.6602 0.11806 0.42929 0.0
H2934 H 0.57831 0.13011 0.37634 0.0
H2935 H 0.53425 0.11878 0.34516 0.0
H2936 H 0.56851 0.10816 0.26835 0.0
H2937 H 0.6127 0.11896 0.29927 0.0
C2938 C 0.73288 0.21611 0.34527 0.0
C2939 C 0.73452 0.21557 0.31363 0.0
C2940 C 0.71162 0.19904 0.36006 0.0
C2941 C 0.69296 0.17946 0.34444 0.0
C2942 C 0.69491 0.17895 0.31267 0.0
C2943 C 0.71524 0.19701 0.29733 0.0
C2944 C 0.67187 0.15913 0.36106 0.0
C2945 C 0.64604 0.15152 0.34506 0.0
C2946 C 0.6769 0.14684 0.3921 0.0
C2947 C 0.70357 0.15295 0.41068 0.0
C2948 C 0.7259 0.15304 0.39783 0.0
C2949 C 0.75118 0.1615 0.41421 0.0
C2950 C 0.75437 0.16837 0.44431 0.0
C2951 C 0.73221 0.16721 0.45789 0.0
C2952 C 0.70692 0.15971 0.44112 0.0
C2953 C 0.58317 0.05333 0.40653 0.0
C2954 C 0.57636 0.05387 0.43618 0.0
C2955 C 0.59996 0.07504 0.39083 0.0
C2956 C 0.61052 0.09769 0.40455 0.0
C2957 C 0.60329 0.09849 0.4338 0.0
C2958 C 0.58619 0.0769 0.44933 0.0
C2959 C 0.63063 0.11985 0.38952 0.0
C2960 C 0.65615 0.12773 0.40589 0.0
C2961 C 0.62548 0.13201 0.35871 0.0
C2962 C 0.5988 0.12506 0.34031 0.0
C2963 C 0.57642 0.12505 0.35296 0.0
C2964 C 0.55141 0.11878 0.33529 0.0
C2965 C 0.54857 0.11266 0.30484 0.0
C2966 C 0.57072 0.11283 0.29197 0.0
C2967 C 0.59575 0.11902 0.30956 0.0
H2968 H 0.5292 0.10786 0.29118 0.0
H2969 H 0.774 0.17475 0.45699 0.0
H2970 H 0.78852 0.69538 0.29146 0.0
H2971 H 0.81163 0.66477 0.31954 0.0
H2972 H 0.87941 0.72716 0.34641 0.0
H2973 H 0.85684 0.75737 0.31725 0.0
H2974 H 0.89876 0.69801 0.32968 0.0
H2975 H 0.83598 0.67186 0.41148 0.0
H2976 H 0.79217 0.65551 0.43082 0.0
H2977 H 0.76743 0.5976 0.36957 0.0
H2978 H 0.81158 0.61279 0.35117 0.0
H2979 H 0.97342 0.62405 0.43657 0.0
H2980 H 0.94816 0.6533 0.41047 0.0
H2981 H 0.88226 0.58931 0.38378 0.0
H2982 H 0.90707 0.56029 0.41029 0.0
H2983 H 0.86155 0.61839 0.39928 0.0
H2984 H 0.92747 0.63726 0.32961 0.0
H2985 H 0.9726 0.64972 0.31465 0.0
H2986 H 0.99131 0.7211 0.35041 0.0
H2987 H 0.94635 0.70894 0.36587 0.0
C2988 C 0.80806 0.70252 0.30408 0.0
C2989 C 0.82057 0.72905 0.30218 0.0
C2990 C 0.82147 0.68487 0.32041 0.0
C2991 C 0.84773 0.69311 0.3358 0.0
C2992 C 0.85951 0.7197 0.33486 0.0
C2993 C 0.84635 0.73717 0.31829 0.0
C2994 C 0.86386 0.6748 0.35084 0.0
C2995 C 0.89051 0.68082 0.34527 0.0
C2996 C 0.85369 0.65155 0.37049 0.0
C2997 C 0.82674 0.64372 0.37958 0.0
C2998 C 0.82106 0.65582 0.40194 0.0
C2999 C 0.79629 0.64663 0.41292 0.0
C3000 C 0.77691 0.62579 0.40108 0.0
C3001 C 0.78239 0.61384 0.37858 0.0
C3002 C 0.80734 0.62255 0.36811 0.0
C3003 C 0.95363 0.61619 0.42494 0.0
C3004 C 0.94262 0.58954 0.42568 0.0
C3005 C 0.93905 0.63307 0.40967 0.0
C3006 C 0.91293 0.62399 0.39434 0.0
C3007 C 0.9021 0.59734 0.39518 0.0
C3008 C 0.91655 0.58056 0.41045 0.0
C3009 C 0.89647 0.64174 0.37835 0.0
C3010 C 0.86982 0.6356 0.38371 0.0
C3011 C 0.90663 0.66477 0.35831 0.0
C3012 C 0.93364 0.6721 0.34912 0.0
C3013 C 0.94127 0.65554 0.33445 0.0
C3014 C 0.9668 0.66256 0.32585 0.0
C3015 C 0.98483 0.68616 0.33164 0.0
C3016 C 0.97733 0.70282 0.34597 0.0
C3017 C 0.95182 0.69589 0.35462 0.0
H3018 H 1.00458 0.69156 0.32497 0.0
H3019 H 0.75771 0.6188 0.40952 0.0
H3020 H 0.30621 0.83228 0.31042 0.0
H3021 H 0.33759 0.86345 0.34149 0.0
H3022 H 0.39127 0.81809 0.36075 0.0
H3023 H 0.35994 0.78651 0.32857 0.0
H3024 H 0.37644 0.83958 0.41482 0.0
H3025 H 0.40995 0.86347 0.3137 0.0
H3026 H 0.40366 0.87285 0.25575 0.0
H3027 H 0.37488 0.9348 0.26241 0.0
H3028 H 0.3804 0.92546 0.32034 0.0
H3029 H 0.48236 0.94338 0.4786 0.0
H3030 H 0.45649 0.90603 0.45246 0.0
H3031 H 0.4031 0.94746 0.40268 0.0
H3032 H 0.42845 0.98457 0.42948 0.0
H3033 H 0.42153 0.92571 0.3635 0.0
H3034 H 0.38822 0.91047 0.46032 0.0
H3035 H 0.37453 0.89991 0.51951 0.0
H3036 H 0.39365 0.80679 0.51687 0.0
H3037 H 0.40605 0.8309 0.45984 0.0
C3038 C 0.32458 0.82864 0.3212 0.0
C3039 C 0.33056 0.80682 0.31674 0.0
C3040 C 0.34254 0.84664 0.33892 0.0
C3041 C 0.36676 0.84316 0.35301 0.0
C3042 C 0.37264 0.82108 0.34975 0.0
C3043 C 0.35474 0.8031 0.33143 0.0
C3044 C 0.38554 0.86289 0.37121 0.0
C3045 C 0.38748 0.85818 0.4041 0.0
C3046 C 0.39793 0.88748 0.35632 0.0
C3047 C 0.39545 0.89364 0.32144 0.0
C3048 C 0.40212 0.87899 0.30283 0.0
C3049 C 0.39871 0.88431 0.26997 0.0
C3050 C 0.38885 0.90438 0.25545 0.0
C3051 C 0.38252 0.91926 0.27372 0.0
C3052 C 0.3858 0.91397 0.30656 0.0
C3053 C 0.46488 0.94434 0.46237 0.0
C3054 C 0.45732 0.96679 0.45597 0.0
C3055 C 0.45016 0.92303 0.44753 0.0
C3056 C 0.42799 0.92404 0.4256 0.0
C3057 C 0.42024 0.94637 0.41949 0.0
C3058 C 0.43455 0.96744 0.43494 0.0
C3059 C 0.41342 0.90233 0.40794 0.0
C3060 C 0.41189 0.90682 0.37491 0.0
C3061 C 0.40106 0.8776 0.42293 0.0
C3062 C 0.39882 0.87165 0.4573 0.0
C3063 C 0.38983 0.89276 0.47387 0.0
C3064 C 0.38019 0.88546 0.51076 0.0
C3065 C 0.38154 0.83955 0.53535 0.0
C3066 C 0.39206 0.82587 0.50996 0.0
C3067 C 0.39998 0.84157 0.47404 0.0
H3068 H 0.37671 0.8282 0.55799 0.0
H3069 H 0.38603 0.90838 0.23003 0.0
H3070 H 0.2527 0.35238 0.43628 0.0
H3071 H 0.2235 0.37214 0.45116 0.0
H3072 H 0.17788 0.36714 0.35937 0.0
H3073 H 0.20899 0.34955 0.34296 0.0
H3074 H 0.18105 0.40996 0.3752 0.0
H3075 H 0.15414 0.32563 0.43051 0.0
H3076 H 0.16224 0.28733 0.46322 0.0
H3077 H 0.20096 0.33122 0.53899 0.0
H3078 H 0.19256 0.36958 0.50701 0.0
H3079 H 0.06815 0.42441 0.42693 0.0
H3080 H 0.09804 0.40492 0.41191 0.0
H3081 H 0.1583 0.43685 0.48515 0.0
H3082 H 0.12855 0.45727 0.49996 0.0
H3083 H 0.14657 0.38025 0.47863 0.0
H3084 H 0.16874 0.46488 0.4194 0.0
H3085 H 0.15785 0.50068 0.38373 0.0
H3086 H 0.12359 0.4524 0.31128 0.0
H3087 H 0.1339 0.41618 0.34672 0.0
C3088 C 0.23686 0.35583 0.41878 0.0
C3089 C 0.23379 0.34962 0.38803 0.0
C3090 C 0.21963 0.36672 0.42771 0.0
C3091 C 0.19792 0.37076 0.40677 0.0
C3092 C 0.19437 0.3642 0.37616 0.0
C3093 C 0.21209 0.35382 0.36688 0.0
C3094 C 0.17951 0.3823 0.41688 0.0
C3095 C 0.17326 0.40314 0.39762 0.0
C3096 C 0.16931 0.37379 0.44628 0.0
C3097 C 0.17284 0.35045 0.46635 0.0
C3098 C 0.1642 0.32702 0.45426 0.0
C3099 C 0.16877 0.30529 0.4727 0.0
C3100 C 0.18202 0.3068 0.50322 0.0
C3101 C 0.19043 0.32997 0.51551 0.0
C3102 C 0.18563 0.35169 0.49731 0.0
C3103 C 0.08771 0.4273 0.44006 0.0
C3104 C 0.09589 0.44245 0.46477 0.0
C3105 C 0.1048 0.41615 0.43131 0.0
C3106 C 0.13041 0.41948 0.44729 0.0
C3107 C 0.13859 0.43406 0.47248 0.0
C3108 C 0.12159 0.44574 0.48089 0.0
C3109 C 0.1485 0.4079 0.43708 0.0
C3110 C 0.15448 0.38699 0.45626 0.0
C3111 C 0.15781 0.41593 0.40726 0.0
C3112 C 0.15186 0.43776 0.38583 0.0
C3113 C 0.15867 0.46184 0.39596 0.0
C3114 C 0.15264 0.48222 0.37577 0.0
C3115 C 0.13997 0.4788 0.34529 0.0
C3116 C 0.13338 0.45501 0.33491 0.0
C3117 C 0.13933 0.43456 0.35503 0.0
H3118 H 0.13532 0.49461 0.32969 0.0
H3119 H 0.18586 0.29002 0.51724 0.0
H3120 H 0.39889 0.22855 0.62038 0.0
H3121 H 0.41334 0.19791 0.59996 0.0
H3122 H 0.33217 0.15102 0.58401 0.0
H3123 H 0.31778 0.1814 0.60593 0.0
H3124 H 0.36179 0.12095 0.60161 0.0
H3125 H 0.36571 0.19133 0.52182 0.0
H3126 H 0.37654 0.23643 0.49818 0.0
H3127 H 0.45955 0.24465 0.5219 0.0
H3128 H 0.44923 0.19967 0.546 0.0
H3129 H 0.41424 0.05343 0.5122 0.0
H3130 H 0.38753 0.07904 0.52255 0.0
H3131 H 0.45857 0.13266 0.56118 0.0
H3132 H 0.48498 0.10753 0.55104 0.0
H3133 H 0.42559 0.1568 0.52307 0.0
H3134 H 0.41773 0.0848 0.60821 0.0
H3135 H 0.40398 0.03889 0.62827 0.0
H3136 H 0.32375 0.03288 0.58797 0.0
H3137 H 0.33712 0.07872 0.56736 0.0
C3138 C 0.38416 0.21154 0.61286 0.0
C3139 C 0.35721 0.20743 0.6146 0.0
C3140 C 0.39239 0.19411 0.60087 0.0
C3141 C 0.37384 0.1724 0.58938 0.0
C3142 C 0.34692 0.16766 0.59238 0.0
C3143 C 0.33869 0.18499 0.60497 0.0
C3144 C 0.38283 0.15521 0.57388 0.0
C3145 C 0.37536 0.1288 0.58402 0.0
C3146 C 0.40031 0.1651 0.55052 0.0
C3147 C 0.40668 0.19215 0.53589 0.0
C3148 C 0.38627 0.20279 0.52215 0.0
C3149 C 0.39232 0.22833 0.50864 0.0
C3150 C 0.41871 0.2434 0.50859 0.0
C3151 C 0.43912 0.23295 0.52196 0.0
C3152 C 0.43318 0.20742 0.53549 0.0
C3153 C 0.4241 0.07084 0.52254 0.0
C3154 C 0.45174 0.07825 0.53109 0.0
C3155 C 0.40882 0.08539 0.52864 0.0
C3156 C 0.42098 0.10768 0.54307 0.0
C3157 C 0.44863 0.11556 0.55018 0.0
C3158 C 0.46375 0.10104 0.54442 0.0
C3159 C 0.40551 0.12287 0.55186 0.0
C3160 C 0.41169 0.14896 0.5403 0.0
C3161 C 0.38644 0.11254 0.57331 0.0
C3162 C 0.37848 0.08509 0.58596 0.0
C3163 C 0.3972 0.07364 0.60345 0.0
C3164 C 0.38947 0.04765 0.61495 0.0
C3165 C 0.36302 0.03296 0.60932 0.0
C3166 C 0.34424 0.04426 0.59227 0.0
C3167 C 0.35188 0.07024 0.58069 0.0
H3168 H 0.35707 0.01284 0.61823 0.0
H3169 H 0.42336 0.26318 0.49815 0.0
H3170 H 0.86146 0.32013 0.76111 0.0
H3171 H 0.89236 0.35299 0.73022 0.0
H3172 H 0.83742 0.33726 0.64592 0.0
H3173 H 0.80844 0.30133 0.67677 0.0
H3174 H 0.87778 0.34885 0.6266 0.0
H3175 H 0.86226 0.41001 0.68666 0.0
H3176 H 0.85933 0.42886 0.73258 0.0
H3177 H 0.93196 0.41543 0.77848 0.0
H3178 H 0.93534 0.39684 0.73248 0.0
H3179 H 0.95494 0.49388 0.59167 0.0
H3180 H 0.92562 0.45813 0.62099 0.0
H3181 H 0.96123 0.40685 0.59473 0.0
H3182 H 0.99008 0.4429 0.56354 0.0
H3183 H 0.93229 0.42874 0.66872 0.0
H3184 H 0.91602 0.34615 0.59627 0.0
H3185 H 0.91579 0.34025 0.5413 0.0
H3186 H 0.89615 0.40986 0.50815 0.0
H3187 H 0.89579 0.41594 0.56286 0.0
C3188 C 0.85581 0.32399 0.736 0.0
C3189 C 0.8318 0.309 0.72161 0.0
C3190 C 0.87341 0.34332 0.71821 0.0
C3191 C 0.86717 0.34913 0.68549 0.0
C3192 C 0.8431 0.33379 0.67104 0.0
C3193 C 0.82603 0.31354 0.68877 0.0
C3194 C 0.88631 0.36993 0.66631 0.0
C3195 C 0.88934 0.36638 0.63593 0.0
C3196 C 0.90199 0.3932 0.67764 0.0
C3197 C 0.89841 0.40113 0.70679 0.0
C3198 C 0.8771 0.41039 0.70697 0.0
C3199 C 0.87563 0.42144 0.73275 0.0
C3200 C 0.8954 0.42324 0.75851 0.0
C3201 C 0.91662 0.41395 0.75857 0.0
C3202 C 0.91836 0.40324 0.73262 0.0
C3203 C 0.95681 0.47508 0.59215 0.0
C3204 C 0.97511 0.47139 0.5753 0.0
C3205 C 0.93988 0.45451 0.60904 0.0
C3206 C 0.94093 0.42958 0.61013 0.0
C3207 C 0.95959 0.42577 0.5939 0.0
C3208 C 0.97631 0.44645 0.57634 0.0
C3209 C 0.92264 0.40808 0.62889 0.0
C3210 C 0.9203 0.41128 0.65937 0.0
C3211 C 0.90657 0.3854 0.61678 0.0
C3212 C 0.90622 0.38164 0.58374 0.0
C3213 C 0.91155 0.36014 0.57725 0.0
C3214 C 0.91151 0.35677 0.54613 0.0
C3215 C 0.90605 0.37472 0.52126 0.0
C3216 C 0.90046 0.39602 0.52744 0.0
C3217 C 0.90039 0.39943 0.55851 0.0
H3218 H 0.90607 0.37209 0.4972 0.0
H3219 H 0.89427 0.43186 0.77842 0.0
H3220 H 0.24379 0.73626 0.63759 0.0
H3221 H 0.21654 0.70788 0.59944 0.0
H3222 H 0.16672 0.66469 0.67089 0.0
H3223 H 0.1923 0.69437 0.70764 0.0
H3224 H 0.20737 0.66349 0.59242 0.0
H3225 H 0.10691 0.63403 0.64592 0.0
H3226 H 0.08231 0.65445 0.67045 0.0
H3227 H 0.12381 0.72782 0.62495 0.0
H3228 H 0.14844 0.70785 0.59984 0.0
H3229 H 0.12891 0.54166 0.5587 0.0
H3230 H 0.15641 0.5814 0.57843 0.0
H3231 H 0.0964 0.61747 0.53607 0.0
H3232 H 0.06837 0.57737 0.51799 0.0
H3233 H 0.10974 0.62949 0.58916 0.0
H3234 H 0.15972 0.63444 0.50952 0.0
H3235 H 0.1836 0.62124 0.47529 0.0
H3236 H 0.24058 0.60949 0.55414 0.0
H3237 H 0.21679 0.62219 0.58903 0.0
C3238 C 0.22663 0.72097 0.64474 0.0
C3239 C 0.21983 0.71767 0.67529 0.0
C3240 C 0.21117 0.70463 0.62305 0.0
C3241 C 0.18908 0.68427 0.63186 0.0
C3242 C 0.18285 0.68075 0.66282 0.0
C3243 C 0.19763 0.69763 0.684 0.0
C3244 C 0.17301 0.66609 0.60936 0.0
C3245 C 0.18601 0.65623 0.59154 0.0
C3246 C 0.14496 0.65735 0.60674 0.0
C3247 C 0.12964 0.66942 0.62112 0.0
C3248 C 0.11065 0.6545 0.64094 0.0
C3249 C 0.09675 0.66601 0.65503 0.0
C3250 C 0.10156 0.69242 0.64934 0.0
C3251 C 0.12018 0.70738 0.62944 0.0
C3252 C 0.13413 0.69597 0.61528 0.0
C3253 C 0.12181 0.55821 0.55328 0.0
C3254 C 0.09645 0.5564 0.53709 0.0
C3255 C 0.1376 0.58102 0.56438 0.0
C3256 C 0.12865 0.60268 0.55867 0.0
C3257 C 0.10376 0.60109 0.54114 0.0
C3258 C 0.08775 0.57816 0.53073 0.0
C3259 C 0.14419 0.62615 0.57323 0.0
C3260 C 0.13107 0.63703 0.58956 0.0
C3261 C 0.17188 0.63694 0.57275 0.0
C3262 C 0.1863 0.62909 0.55199 0.0
C3263 C 0.17721 0.62883 0.51966 0.0
C3264 C 0.19075 0.62146 0.50011 0.0
C3265 C 0.21356 0.61448 0.51254 0.0
C3266 C 0.22289 0.61489 0.54455 0.0
C3267 C 0.20939 0.62219 0.56423 0.0
H3268 H 0.22403 0.6088 0.49737 0.0
H3269 H 0.09081 0.70129 0.66031 0.0
loop_
_geom_bond_atom_site_label_1
_geom_bond_atom_site_label_2
_geom_bond_distance
_geom_bond_site_symmetry_2
_ccdc_geom_bond_type
Eu0 N31 2.657 . S
Eu0 N38 2.609 . S
Eu0 O44 2.558 . S
Eu0 O45 2.612 . S
Eu0 O47 2.339 . S
Eu0 O48 2.563 . S
Eu0 O49 2.419 . S
Eu0 O51 2.380 . S
Eu0 O52 2.432 . S
Eu0 C64 2.848 . S
C1 C4 1.429 . S
C1 C5 1.411 . S
C1 N8 1.377 . S
C2 C4 1.420 . S
C2 C6 1.423 . S
C2 C14 1.392 . S
C3 C5 1.420 . S
C3 C6 1.351 . S
C3 H26 0.931 . S
C4 C1 1.429 . S
C4 C2 1.420 . S
C4 N12 1.362 . S
C5 C1 1.411 . S
C5 C3 1.420 . S
C5 C10 1.395 . S
C6 C2 1.423 . S
C6 C3 1.351 . S
C6 H18 0.930 . S
C7 C9 1.400 . S
C7 C10 1.386 . S
C7 H19 0.930 . S
N8 C1 1.377 . S
N8 C9 1.321 . S
N8 Eu11 2.609 . S
C9 C7 1.400 . S
C9 N8 1.321 . S
C9 H16 0.930 . S
C10 C5 1.395 . S
C10 C7 1.386 . S
C10 H29 0.930 . S
Eu11 N8 2.609 . S
Eu11 N12 2.657 . S
Eu11 O45 2.380 . S
Eu11 O46 2.432 . S
Eu11 O50 2.558 . S
Eu11 O51 2.612 . S
Eu11 O53 2.339 . S
Eu11 O54 2.563 . S
Eu11 O55 2.419 . S
Eu11 C75 2.848 . S
N12 C4 1.362 . S
N12 Eu11 2.657 . S
N12 C13 1.334 . S
C13 N12 1.334 . S
C13 C15 1.413 . S
C13 H20 0.929 . S
C14 C2 1.392 . S
C14 C15 1.367 . S
C14 H22 0.930 . S
C15 C13 1.413 . S
C15 C14 1.367 . S
C15 H17 0.930 . S
H16 C9 0.930 . S
H17 C15 0.930 . S
H18 C6 0.930 . S
H19 C7 0.930 . S
H20 C13 0.929 . S
H21 C35 0.930 . S
H22 C14 0.930 . S
H23 C41 0.930 . S
H24 C32 0.929 . S
H25 C39 0.930 . S
H26 C3 0.931 . S
H27 C33 0.930 . S
H28 C66 0.930 . S
H29 C10 0.930 . S
H30 C65 0.931 . S
N31 Eu0 2.657 . S
N31 C32 1.334 . S
N31 C36 1.362 . S
C32 H24 0.929 . S
C32 N31 1.334 . S
C32 C35 1.413 . S
C33 H27 0.930 . S
C33 C34 1.392 . S
C33 C35 1.367 . S
C34 C33 1.392 . S
C34 C36 1.420 . S
C34 C66 1.423 . S
C35 H21 0.930 . S
C35 C32 1.413 . S
C35 C33 1.367 . S
C36 N31 1.362 . S
C36 C34 1.420 . S
C36 C40 1.429 . S
H37 C42 0.930 . S
N38 Eu0 2.609 . S
N38 C40 1.377 . S
N38 C41 1.321 . S
C39 H25 0.930 . S
C39 C41 1.400 . S
C39 C42 1.386 . S
C40 C36 1.429 . S
C40 N38 1.377 . S
C40 C43 1.411 . S
C41 H23 0.930 . S
C41 N38 1.321 . S
C41 C39 1.400 . S
C42 H37 0.930 . S
C42 C39 1.386 . S
C42 C43 1.395 . S
C43 C40 1.411 . S
C43 C42 1.395 . S
C43 C65 1.420 . S
O44 Eu0 2.558 . S
O44 C64 1.257 . S
O45 Eu0 2.612 . S
O45 Eu11 2.380 . S
O45 C56 1.276 . S
O46 Eu11 2.432 . S
O46 C63 1.264 . S
O47 Eu0 2.339 . S
O47 C63 1.254 . S
O48 Eu0 2.563 . S
O48 C56 1.235 . S
O49 Eu0 2.419 . S
O49 C64 1.249 . S
O50 Eu11 2.558 . S
O50 C75 1.257 . S
O51 Eu0 2.380 . S
O51 Eu11 2.612 . S
O51 C67 1.276 . S
O52 Eu0 2.432 . S
O52 C74 1.264 . S
O53 Eu11 2.339 . S
O53 C74 1.254 . S
O54 Eu11 2.563 . S
O54 C67 1.235 . S
O55 Eu11 2.419 . S
O55 C75 1.249 . S
C56 O45 1.276 . S
C56 O48 1.235 . S
C57 C59 1.393 . S
C57 C61 1.395 . S
C57 C64 1.492 . S
C58 C59 1.392 . S
C58 C60 1.386 . S
C59 C57 1.393 . S
C59 C58 1.392 . S
C59 H76 0.930 . S
C60 C58 1.386 . S
C60 C62 1.395 . S
C60 H77 0.930 . S
C61 C57 1.395 . S
C61 C62 1.379 . S
C61 H78 0.930 . S
C62 C60 1.395 . S
C62 C61 1.379 . S
C62 H79 0.930 . S
C63 O46 1.264 . S
C63 O47 1.254 . S
C64 Eu0 2.848 . S
C64 O44 1.257 . S
C64 O49 1.249 . S
C64 C57 1.492 . S
C65 H30 0.931 . S
C65 C43 1.420 . S
C65 C66 1.351 . S
C66 H28 0.930 . S
C66 C34 1.423 . S
C66 C65 1.351 . S
C67 O51 1.276 . S
C67 O54 1.235 . S
C68 C69 1.393 . S
C68 C72 1.395 . S
C68 C75 1.492 . S
C69 C68 1.393 . S
C69 C70 1.392 . S
C69 H80 0.930 . S
C70 C69 1.392 . S
C70 C71 1.386 . S
C71 C70 1.386 . S
C71 C73 1.395 . S
C71 H81 0.930 . S
C72 C68 1.395 . S
C72 C73 1.379 . S
C72 H82 0.930 . S
C73 C71 1.395 . S
C73 C72 1.379 . S
C73 H83 0.930 . S
C74 O52 1.264 . S
C74 O53 1.254 . S
C75 Eu11 2.848 . S
C75 O50 1.257 . S
C75 O55 1.249 . S
C75 C68 1.492 . S
H76 C59 0.930 . S
H77 C60 0.930 . S
H78 C61 0.930 . S
H79 C62 0.930 . S
H80 C69 0.930 . S
H81 C71 0.930 . S
H82 C72 0.930 . S
H83 C73 0.930 . S
Eu84 N115 2.657 . S
Eu84 N122 2.609 . S
Eu84 O128 2.558 . S
Eu84 O129 2.612 . S
Eu84 O131 2.339 . S
Eu84 O132 2.563 . S
Eu84 O133 2.419 . S
Eu84 O135 2.380 . S
Eu84 O136 2.432 . S
Eu84 C148 2.848 . S
C85 C88 1.429 . S
C85 C89 1.411 . S
C85 N92 1.377 . S
C86 C88 1.420 . S
C86 C90 1.423 . S
C86 C98 1.392 . S
C87 C89 1.420 . S
C87 C90 1.351 . S
C87 H110 0.931 . S
C88 C85 1.429 . S
C88 C86 1.420 . S
C88 N96 1.362 . S
C89 C85 1.411 . S
C89 C87 1.420 . S
C89 C94 1.395 . S
C90 C86 1.423 . S
C90 C87 1.351 . S
C90 H102 0.930 . S
C91 C93 1.400 . S
C91 C94 1.386 . S
C91 H103 0.930 . S
N92 C85 1.377 . S
N92 C93 1.321 . S
N92 Eu95 2.609 . S
C93 C91 1.400 . S
C93 N92 1.321 . S
C93 H100 0.930 . S
C94 C89 1.395 . S
C94 C91 1.386 . S
C94 H113 0.930 . S
Eu95 N92 2.609 . S
Eu95 N96 2.657 . S
Eu95 O129 2.380 . S
Eu95 O130 2.432 . S
Eu95 O134 2.558 . S
Eu95 O135 2.612 . S
Eu95 O137 2.339 . S
Eu95 O138 2.563 . S
Eu95 O139 2.419 . S
Eu95 C159 2.848 . S
N96 C88 1.362 . S
N96 Eu95 2.657 . S
N96 C97 1.334 . S
C97 N96 1.334 . S
C97 C99 1.413 . S
C97 H104 0.929 . S
C98 C86 1.392 . S
C98 C99 1.367 . S
C98 H106 0.930 . S
C99 C97 1.413 . S
C99 C98 1.367 . S
C99 H101 0.930 . S
H100 C93 0.930 . S
H101 C99 0.930 . S
H102 C90 0.930 . S
H103 C91 0.930 . S
H104 C97 0.929 . S
H105 C119 0.930 . S
H106 C98 0.930 . S
H107 C125 0.930 . S
H108 C116 0.929 . S
H109 C123 0.930 . S
H110 C87 0.931 . S
H111 C117 0.930 . S
H112 C150 0.930 . S
H113 C94 0.930 . S
H114 C149 0.931 . S
N115 Eu84 2.657 . S
N115 C116 1.334 . S
N115 C120 1.362 . S
C116 H108 0.929 . S
C116 N115 1.334 . S
C116 C119 1.413 . S
C117 H111 0.930 . S
C117 C118 1.392 . S
C117 C119 1.367 . S
C118 C117 1.392 . S
C118 C120 1.420 . S
C118 C150 1.423 . S
C119 H105 0.930 . S
C119 C116 1.413 . S
C119 C117 1.367 . S
C120 N115 1.362 . S
C120 C118 1.420 . S
C120 C124 1.429 . S
H121 C126 0.930 . S
N122 Eu84 2.609 . S
N122 C124 1.377 . S
N122 C125 1.321 . S
C123 H109 0.930 . S
C123 C125 1.400 . S
C123 C126 1.386 . S
C124 C120 1.429 . S
C124 N122 1.377 . S
C124 C127 1.411 . S
C125 H107 0.930 . S
C125 N122 1.321 . S
C125 C123 1.400 . S
C126 H121 0.930 . S
C126 C123 1.386 . S
C126 C127 1.395 . S
C127 C124 1.411 . S
C127 C126 1.395 . S
C127 C149 1.420 . S
O128 Eu84 2.558 . S
O128 C148 1.257 . S
O129 Eu84 2.612 . S
O129 Eu95 2.380 . S
O129 C140 1.276 . S
O130 Eu95 2.432 . S
O130 C147 1.264 . S
O131 Eu84 2.339 . S
O131 C147 1.254 . S
O132 Eu84 2.563 . S
O132 C140 1.235 . S
O133 Eu84 2.419 . S
O133 C148 1.249 . S
O134 Eu95 2.558 . S
O134 C159 1.257 . S
O135 Eu84 2.380 . S
O135 Eu95 2.612 . S
O135 C151 1.276 . S
O136 Eu84 2.432 . S
O136 C158 1.264 . S
O137 Eu95 2.339 . S
O137 C158 1.254 . S
O138 Eu95 2.563 . S
O138 C151 1.235 . S
O139 Eu95 2.419 . S
O139 C159 1.249 . S
C140 O129 1.276 . S
C140 O132 1.235 . S
C141 C143 1.393 . S
C141 C145 1.395 . S
C141 C148 1.492 . S
C142 C143 1.392 . S
C142 C144 1.386 . S
C143 C141 1.393 . S
C143 C142 1.392 . S
C143 H160 0.930 . S
C144 C142 1.386 . S
C144 C146 1.395 . S
C144 H161 0.930 . S
C145 C141 1.395 . S
C145 C146 1.379 . S
C145 H162 0.930 . S
C146 C144 1.395 . S
C146 C145 1.379 . S
C146 H163 0.930 . S
C147 O130 1.264 . S
C147 O131 1.254 . S
C148 Eu84 2.848 . S
C148 O128 1.257 . S
C148 O133 1.249 . S
C148 C141 1.492 . S
C149 H114 0.931 . S
C149 C127 1.420 . S
C149 C150 1.351 . S
C150 H112 0.930 . S
C150 C118 1.423 . S
C150 C149 1.351 . S
C151 O135 1.276 . S
C151 O138 1.235 . S
C152 C153 1.393 . S
C152 C156 1.395 . S
C152 C159 1.492 . S
C153 C152 1.393 . S
C153 C154 1.392 . S
C153 H164 0.930 . S
C154 C153 1.392 . S
C154 C155 1.386 . S
C155 C154 1.386 . S
C155 C157 1.395 . S
C155 H165 0.930 . S
C156 C152 1.395 . S
C156 C157 1.379 . S
C156 H166 0.930 . S
C157 C155 1.395 . S
C157 C156 1.379 . S
C157 H167 0.930 . S
C158 O136 1.264 . S
C158 O137 1.254 . S
C159 Eu95 2.848 . S
C159 O134 1.257 . S
C159 O139 1.249 . S
C159 C152 1.492 . S
H160 C143 0.930 . S
H161 C144 0.930 . S
H162 C145 0.930 . S
H163 C146 0.930 . S
H164 C153 0.930 . S
H165 C155 0.930 . S
H166 C156 0.930 . S
H167 C157 0.930 . S
Eu168 N199 2.657 . S
Eu168 N206 2.609 . S
Eu168 O212 2.558 . S
Eu168 O213 2.612 . S
Eu168 O215 2.339 . S
Eu168 O216 2.563 . S
Eu168 O217 2.419 . S
Eu168 O219 2.380 . S
Eu168 O220 2.432 . S
Eu168 C232 2.848 . S
C169 C172 1.429 . S
C169 C173 1.411 . S
C169 N176 1.377 . S
C170 C172 1.420 . S
C170 C174 1.423 . S
C170 C182 1.392 . S
C171 C173 1.420 . S
C171 C174 1.351 . S
C171 H194 0.931 . S
C172 C169 1.429 . S
C172 C170 1.420 . S
C172 N180 1.362 . S
C173 C169 1.411 . S
C173 C171 1.420 . S
C173 C178 1.395 . S
C174 C170 1.423 . S
C174 C171 1.351 . S
C174 H186 0.930 . S
C175 C177 1.400 . S
C175 C178 1.386 . S
C175 H187 0.930 . S
N176 C169 1.377 . S
N176 C177 1.321 . S
N176 Eu179 2.609 . S
C177 C175 1.400 . S
C177 N176 1.321 . S
C177 H184 0.930 . S
C178 C173 1.395 . S
C178 C175 1.386 . S
C178 H197 0.930 . S
Eu179 N176 2.609 . S
Eu179 N180 2.657 . S
Eu179 O213 2.380 . S
Eu179 O214 2.432 . S
Eu179 O218 2.558 . S
Eu179 O219 2.612 . S
Eu179 O221 2.339 . S
Eu179 O222 2.563 . S
Eu179 O223 2.419 . S
Eu179 C243 2.848 . S
N180 C172 1.362 . S
N180 Eu179 2.657 . S
N180 C181 1.334 . S
C181 N180 1.334 . S
C181 C183 1.413 . S
C181 H188 0.929 . S
C182 C170 1.392 . S
C182 C183 1.367 . S
C182 H190 0.930 . S
C183 C181 1.413 . S
C183 C182 1.367 . S
C183 H185 0.930 . S
H184 C177 0.930 . S
H185 C183 0.930 . S
H186 C174 0.930 . S
H187 C175 0.930 . S
H188 C181 0.929 . S
H189 C203 0.930 . S
H190 C182 0.930 . S
H191 C209 0.930 . S
H192 C200 0.929 . S
H193 C207 0.930 . S
H194 C171 0.931 . S
H195 C201 0.930 . S
H196 C234 0.930 . S
H197 C178 0.930 . S
H198 C233 0.931 . S
N199 Eu168 2.657 . S
N199 C200 1.334 . S
N199 C204 1.362 . S
C200 H192 0.929 . S
C200 N199 1.334 . S
C200 C203 1.413 . S
C201 H195 0.930 . S
C201 C202 1.392 . S
C201 C203 1.367 . S
C202 C201 1.392 . S
C202 C204 1.420 . S
C202 C234 1.423 . S
C203 H189 0.930 . S
C203 C200 1.413 . S
C203 C201 1.367 . S
C204 N199 1.362 . S
C204 C202 1.420 . S
C204 C208 1.429 . S
H205 C210 0.930 . S
N206 Eu168 2.609 . S
N206 C208 1.377 . S
N206 C209 1.321 . S
C207 H193 0.930 . S
C207 C209 1.400 . S
C207 C210 1.386 . S
C208 C204 1.429 . S
C208 N206 1.377 . S
C208 C211 1.411 . S
C209 H191 0.930 . S
C209 N206 1.321 . S
C209 C207 1.400 . S
C210 H205 0.930 . S
C210 C207 1.386 . S
C210 C211 1.395 . S
C211 C208 1.411 . S
C211 C210 1.395 . S
C211 C233 1.420 . S
O212 Eu168 2.558 . S
O212 C232 1.257 . S
O213 Eu168 2.612 . S
O213 Eu179 2.380 . S
O213 C224 1.276 . S
O214 Eu179 2.432 . S
O214 C231 1.264 . S
O215 Eu168 2.339 . S
O215 C231 1.254 . S
O216 Eu168 2.563 . S
O216 C224 1.235 . S
O217 Eu168 2.419 . S
O217 C232 1.249 . S
O218 Eu179 2.558 . S
O218 C243 1.257 . S
O219 Eu168 2.380 . S
O219 Eu179 2.612 . S
O219 C235 1.276 . S
O220 Eu168 2.432 . S
O220 C242 1.264 . S
O221 Eu179 2.339 . S
O221 C242 1.254 . S
O222 Eu179 2.563 . S
O222 C235 1.235 . S
O223 Eu179 2.419 . S
O223 C243 1.249 . S
C224 O213 1.276 . S
C224 O216 1.235 . S
C225 C227 1.393 . S
C225 C229 1.395 . S
C225 C232 1.492 . S
C226 C227 1.392 . S
C226 C228 1.386 . S
C227 C225 1.393 . S
C227 C226 1.392 . S
C227 H244 0.930 . S
C228 C226 1.386 . S
C228 C230 1.395 . S
C228 H245 0.930 . S
C229 C225 1.395 . S
C229 C230 1.379 . S
C229 H246 0.930 . S
C230 C228 1.395 . S
C230 C229 1.379 . S
C230 H247 0.930 . S
C231 O214 1.264 . S
C231 O215 1.254 . S
C232 Eu168 2.848 . S
C232 O212 1.257 . S
C232 O217 1.249 . S
C232 C225 1.492 . S
C233 H198 0.931 . S
C233 C211 1.420 . S
C233 C234 1.351 . S
C234 H196 0.930 . S
C234 C202 1.423 . S
C234 C233 1.351 . S
C235 O219 1.276 . S
C235 O222 1.235 . S
C236 C237 1.393 . S
C236 C240 1.395 . S
C236 C243 1.492 . S
C237 C236 1.393 . S
C237 C238 1.392 . S
C237 H248 0.930 . S
C238 C237 1.392 . S
C238 C239 1.386 . S
C239 C238 1.386 . S
C239 C241 1.395 . S
C239 H249 0.930 . S
C240 C236 1.395 . S
C240 C241 1.379 . S
C240 H250 0.930 . S
C241 C239 1.395 . S
C241 C240 1.379 . S
C241 H251 0.930 . S
C242 O220 1.264 . S
C242 O221 1.254 . S
C243 Eu179 2.848 . S
C243 O218 1.257 . S
C243 O223 1.249 . S
C243 C236 1.492 . S
H244 C227 0.930 . S
H245 C228 0.930 . S
H246 C229 0.930 . S
H247 C230 0.930 . S
H248 C237 0.930 . S
H249 C239 0.930 . S
H250 C240 0.930 . S
H251 C241 0.930 . S
Eu252 N283 2.657 . S
Eu252 N290 2.609 . S
Eu252 O296 2.558 . S
Eu252 O297 2.612 . S
Eu252 O299 2.339 . S
Eu252 O300 2.563 . S
Eu252 O301 2.419 . S
Eu252 O303 2.380 . S
Eu252 O304 2.432 . S
Eu252 C316 2.848 . S
C253 C256 1.429 . S
C253 C257 1.411 . S
C253 N260 1.377 . S
C254 C256 1.420 . S
C254 C258 1.423 . S
C254 C266 1.392 . S
C255 C257 1.420 . S
C255 C258 1.351 . S
C255 H278 0.931 . S
C256 C253 1.429 . S
C256 C254 1.420 . S
C256 N264 1.362 . S
C257 C253 1.411 . S
C257 C255 1.420 . S
C257 C262 1.395 . S
C258 C254 1.423 . S
C258 C255 1.351 . S
C258 H270 0.930 . S
C259 C261 1.400 . S
C259 C262 1.386 . S
C259 H271 0.930 . S
N260 C253 1.377 . S
N260 C261 1.321 . S
N260 Eu263 2.609 . S
C261 C259 1.400 . S
C261 N260 1.321 . S
C261 H268 0.930 . S
C262 C257 1.395 . S
C262 C259 1.386 . S
C262 H281 0.930 . S
Eu263 N260 2.609 . S
Eu263 N264 2.657 . S
Eu263 O297 2.380 . S
Eu263 O298 2.432 . S
Eu263 O302 2.558 . S
Eu263 O303 2.612 . S
Eu263 O305 2.339 . S
Eu263 O306 2.563 . S
Eu263 O307 2.419 . S
Eu263 C327 2.848 . S
N264 C256 1.362 . S
N264 Eu263 2.657 . S
N264 C265 1.334 . S
C265 N264 1.334 . S
C265 C267 1.413 . S
C265 H272 0.929 . S
C266 C254 1.392 . S
C266 C267 1.367 . S
C266 H274 0.930 . S
C267 C265 1.413 . S
C267 C266 1.367 . S
C267 H269 0.930 . S
H268 C261 0.930 . S
H269 C267 0.930 . S
H270 C258 0.930 . S
H271 C259 0.930 . S
H272 C265 0.929 . S
H273 C287 0.930 . S
H274 C266 0.930 . S
H275 C293 0.930 . S
H276 C284 0.929 . S
H277 C291 0.930 . S
H278 C255 0.931 . S
H279 C285 0.930 . S
H280 C318 0.930 . S
H281 C262 0.930 . S
H282 C317 0.931 . S
N283 Eu252 2.657 . S
N283 C284 1.334 . S
N283 C288 1.362 . S
C284 H276 0.929 . S
C284 N283 1.334 . S
C284 C287 1.413 . S
C285 H279 0.930 . S
C285 C286 1.392 . S
C285 C287 1.367 . S
C286 C285 1.392 . S
C286 C288 1.420 . S
C286 C318 1.423 . S
C287 H273 0.930 . S
C287 C284 1.413 . S
C287 C285 1.367 . S
C288 N283 1.362 . S
C288 C286 1.420 . S
C288 C292 1.429 . S
H289 C294 0.930 . S
N290 Eu252 2.609 . S
N290 C292 1.377 . S
N290 C293 1.321 . S
C291 H277 0.930 . S
C291 C293 1.400 . S
C291 C294 1.386 . S
C292 C288 1.429 . S
C292 N290 1.377 . S
C292 C295 1.411 . S
C293 H275 0.930 . S
C293 N290 1.321 . S
C293 C291 1.400 . S
C294 H289 0.930 . S
C294 C291 1.386 . S
C294 C295 1.395 . S
C295 C292 1.411 . S
C295 C294 1.395 . S
C295 C317 1.420 . S
O296 Eu252 2.558 . S
O296 C316 1.257 . S
O297 Eu252 2.612 . S
O297 Eu263 2.380 . S
O297 C308 1.276 . S
O298 Eu263 2.432 . S
O298 C315 1.264 . S
O299 Eu252 2.339 . S
O299 C315 1.254 . S
O300 Eu252 2.563 . S
O300 C308 1.235 . S
O301 Eu252 2.419 . S
O301 C316 1.249 . S
O302 Eu263 2.558 . S
O302 C327 1.257 . S
O303 Eu252 2.380 . S
O303 Eu263 2.612 . S
O303 C319 1.276 . S
O304 Eu252 2.432 . S
O304 C326 1.264 . S
O305 Eu263 2.339 . S
O305 C326 1.254 . S
O306 Eu263 2.563 . S
O306 C319 1.235 . S
O307 Eu263 2.419 . S
O307 C327 1.249 . S
C308 O297 1.276 . S
C308 O300 1.235 . S
C309 C311 1.393 . S
C309 C313 1.395 . S
C309 C316 1.492 . S
C310 C311 1.392 . S
C310 C312 1.386 . S
C311 C309 1.393 . S
C311 C310 1.392 . S
C311 H328 0.930 . S
C312 C310 1.386 . S
C312 C314 1.395 . S
C312 H329 0.930 . S
C313 C309 1.395 . S
C313 C314 1.379 . S
C313 H330 0.930 . S
C314 C312 1.395 . S
C314 C313 1.379 . S
C314 H331 0.930 . S
C315 O298 1.264 . S
C315 O299 1.254 . S
C316 Eu252 2.848 . S
C316 O296 1.257 . S
C316 O301 1.249 . S
C316 C309 1.492 . S
C317 H282 0.931 . S
C317 C295 1.420 . S
C317 C318 1.351 . S
C318 H280 0.930 . S
C318 C286 1.423 . S
C318 C317 1.351 . S
C319 O303 1.276 . S
C319 O306 1.235 . S
C320 C321 1.393 . S
C320 C324 1.395 . S
C320 C327 1.492 . S
C321 C320 1.393 . S
C321 C322 1.392 . S
C321 H332 0.930 . S
C322 C321 1.392 . S
C322 C323 1.386 . S
C323 C322 1.386 . S
C323 C325 1.395 . S
C323 H333 0.930 . S
C324 C320 1.395 . S
C324 C325 1.379 . S
C324 H334 0.930 . S
C325 C323 1.395 . S
C325 C324 1.379 . S
C325 H335 0.930 . S
C326 O304 1.264 . S
C326 O305 1.254 . S
C327 Eu263 2.848 . S
C327 O302 1.257 . S
C327 O307 1.249 . S
C327 C320 1.492 . S
H328 C311 0.930 . S
H329 C312 0.930 . S
H330 C313 0.930 . S
H331 C314 0.930 . S
H332 C321 0.930 . S
H333 C323 0.930 . S
H334 C324 0.930 . S
H335 C325 0.930 . S
Eu336 N367 2.657 . S
Eu336 N374 2.609 . S
Eu336 O380 2.558 . S
Eu336 O381 2.612 . S
Eu336 O383 2.339 . S
Eu336 O384 2.563 . S
Eu336 O385 2.419 . S
Eu336 O387 2.380 . S
Eu336 O388 2.432 . S
Eu336 C400 2.848 . S
C337 C340 1.429 . S
C337 C341 1.411 . S
C337 N344 1.377 . S
C338 C340 1.420 . S
C338 C342 1.423 . S
C338 C350 1.392 . S
C339 C341 1.420 . S
C339 C342 1.351 . S
C339 H362 0.931 . S
C340 C337 1.429 . S
C340 C338 1.420 . S
C340 N348 1.362 . S
C341 C337 1.411 . S
C341 C339 1.420 . S
C341 C346 1.395 . S
C342 C338 1.423 . S
C342 C339 1.351 . S
C342 H354 0.930 . S
C343 C345 1.400 . S
C343 C346 1.386 . S
C343 H355 0.930 . S
N344 C337 1.377 . S
N344 C345 1.321 . S
N344 Eu347 2.609 . S
C345 C343 1.400 . S
C345 N344 1.321 . S
C345 H352 0.930 . S
C346 C341 1.395 . S
C346 C343 1.386 . S
C346 H365 0.930 . S
Eu347 N344 2.609 . S
Eu347 N348 2.657 . S
Eu347 O381 2.380 . S
Eu347 O382 2.432 . S
Eu347 O386 2.558 . S
Eu347 O387 2.612 . S
Eu347 O389 2.339 . S
Eu347 O390 2.563 . S
Eu347 O391 2.419 . S
Eu347 C411 2.848 . S
N348 C340 1.362 . S
N348 Eu347 2.657 . S
N348 C349 1.334 . S
C349 N348 1.334 . S
C349 C351 1.413 . S
C349 H356 0.929 . S
C350 C338 1.392 . S
C350 C351 1.367 . S
C350 H358 0.930 . S
C351 C349 1.413 . S
C351 C350 1.367 . S
C351 H353 0.930 . S
H352 C345 0.930 . S
H353 C351 0.930 . S
H354 C342 0.930 . S
H355 C343 0.930 . S
H356 C349 0.929 . S
H357 C371 0.930 . S
H358 C350 0.930 . S
H359 C377 0.930 . S
H360 C368 0.929 . S
H361 C375 0.930 . S
H362 C339 0.931 . S
H363 C369 0.930 . S
H364 C402 0.930 . S
H365 C346 0.930 . S
H366 C401 0.931 . S
N367 Eu336 2.657 . S
N367 C368 1.334 . S
N367 C372 1.362 . S
C368 H360 0.929 . S
C368 N367 1.334 . S
C368 C371 1.413 . S
C369 H363 0.930 . S
C369 C370 1.392 . S
C369 C371 1.367 . S
C370 C369 1.392 . S
C370 C372 1.420 . S
C370 C402 1.423 . S
C371 H357 0.930 . S
C371 C368 1.413 . S
C371 C369 1.367 . S
C372 N367 1.362 . S
C372 C370 1.420 . S
C372 C376 1.429 . S
H373 C378 0.930 . S
N374 Eu336 2.609 . S
N374 C376 1.377 . S
N374 C377 1.321 . S
C375 H361 0.930 . S
C375 C377 1.400 . S
C375 C378 1.386 . S
C376 C372 1.429 . S
C376 N374 1.377 . S
C376 C379 1.411 . S
C377 H359 0.930 . S
C377 N374 1.321 . S
C377 C375 1.400 . S
C378 H373 0.930 . S
C378 C375 1.386 . S
C378 C379 1.395 . S
C379 C376 1.411 . S
C379 C378 1.395 . S
C379 C401 1.420 . S
O380 Eu336 2.558 . S
O380 C400 1.257 . S
O381 Eu336 2.612 . S
O381 Eu347 2.380 . S
O381 C392 1.276 . S
O382 Eu347 2.432 . S
O382 C399 1.264 . S
O383 Eu336 2.339 . S
O383 C399 1.254 . S
O384 Eu336 2.563 . S
O384 C392 1.235 . S
O385 Eu336 2.419 . S
O385 C400 1.249 . S
O386 Eu347 2.558 . S
O386 C411 1.257 . S
O387 Eu336 2.380 . S
O387 Eu347 2.612 . S
O387 C403 1.276 . S
O388 Eu336 2.432 . S
O388 C410 1.264 . S
O389 Eu347 2.339 . S
O389 C410 1.254 . S
O390 Eu347 2.563 . S
O390 C403 1.235 . S
O391 Eu347 2.419 . S
O391 C411 1.249 . S
C392 O381 1.276 . S
C392 O384 1.235 . S
C393 C395 1.393 . S
C393 C397 1.395 . S
C393 C400 1.492 . S
C394 C395 1.392 . S
C394 C396 1.386 . S
C395 C393 1.393 . S
C395 C394 1.392 . S
C395 H412 0.930 . S
C396 C394 1.386 . S
C396 C398 1.395 . S
C396 H413 0.930 . S
C397 C393 1.395 . S
C397 C398 1.379 . S
C397 H414 0.930 . S
C398 C396 1.395 . S
C398 C397 1.379 . S
C398 H415 0.930 . S
C399 O382 1.264 . S
C399 O383 1.254 . S
C400 Eu336 2.848 . S
C400 O380 1.257 . S
C400 O385 1.249 . S
C400 C393 1.492 . S
C401 H366 0.931 . S
C401 C379 1.420 . S
C401 C402 1.351 . S
C402 H364 0.930 . S
C402 C370 1.423 . S
C402 C401 1.351 . S
C403 O387 1.276 . S
C403 O390 1.235 . S
C404 C405 1.393 . S
C404 C408 1.395 . S
C404 C411 1.492 . S
C405 C404 1.393 . S
C405 C406 1.392 . S
C405 H416 0.930 . S
C406 C405 1.392 . S
C406 C407 1.386 . S
C407 C406 1.386 . S
C407 C409 1.395 . S
C407 H417 0.930 . S
C408 C404 1.395 . S
C408 C409 1.379 . S
C408 H418 0.930 . S
C409 C407 1.395 . S
C409 C408 1.379 . S
C409 H419 0.930 . S
C410 O388 1.264 . S
C410 O389 1.254 . S
C411 Eu347 2.848 . S
C411 O386 1.257 . S
C411 O391 1.249 . S
C411 C404 1.492 . S
H412 C395 0.930 . S
H413 C396 0.930 . S
H414 C397 0.930 . S
H415 C398 0.930 . S
H416 C405 0.930 . S
H417 C407 0.930 . S
H418 C408 0.930 . S
H419 C409 0.930 . S
Eu420 N451 2.657 . S
Eu420 N458 2.609 . S
Eu420 O464 2.558 . S
Eu420 O465 2.612 . S
Eu420 O467 2.339 . S
Eu420 O468 2.563 . S
Eu420 O469 2.419 . S
Eu420 O471 2.380 . S
Eu420 O472 2.432 . S
Eu420 C484 2.848 . S
C421 C424 1.429 . S
C421 C425 1.411 . S
C421 N428 1.377 . S
C422 C424 1.420 . S
C422 C426 1.423 . S
C422 C434 1.392 . S
C423 C425 1.420 . S
C423 C426 1.351 . S
C423 H446 0.931 . S
C424 C421 1.429 . S
C424 C422 1.420 . S
C424 N432 1.362 . S
C425 C421 1.411 . S
C425 C423 1.420 . S
C425 C430 1.395 . S
C426 C422 1.423 . S
C426 C423 1.351 . S
C426 H438 0.930 . S
C427 C429 1.400 . S
C427 C430 1.386 . S
C427 H439 0.930 . S
N428 C421 1.377 . S
N428 C429 1.321 . S
N428 Eu431 2.609 . S
C429 C427 1.400 . S
C429 N428 1.321 . S
C429 H436 0.930 . S
C430 C425 1.395 . S
C430 C427 1.386 . S
C430 H449 0.930 . S
Eu431 N428 2.609 . S
Eu431 N432 2.657 . S
Eu431 O465 2.380 . S
Eu431 O466 2.432 . S
Eu431 O470 2.558 . S
Eu431 O471 2.612 . S
Eu431 O473 2.339 . S
Eu431 O474 2.563 . S
Eu431 O475 2.419 . S
Eu431 C495 2.848 . S
N432 C424 1.362 . S
N432 Eu431 2.657 . S
N432 C433 1.334 . S
C433 N432 1.334 . S
C433 C435 1.413 . S
C433 H440 0.929 . S
C434 C422 1.392 . S
C434 C435 1.367 . S
C434 H442 0.930 . S
C435 C433 1.413 . S
C435 C434 1.367 . S
C435 H437 0.930 . S
H436 C429 0.930 . S
H437 C435 0.930 . S
H438 C426 0.930 . S
H439 C427 0.930 . S
H440 C433 0.929 . S
H441 C455 0.930 . S
H442 C434 0.930 . S
H443 C461 0.930 . S
H444 C452 0.929 . S
H445 C459 0.930 . S
H446 C423 0.931 . S
H447 C453 0.930 . S
H448 C486 0.930 . S
H449 C430 0.930 . S
H450 C485 0.931 . S
N451 Eu420 2.657 . S
N451 C452 1.334 . S
N451 C456 1.362 . S
C452 H444 0.929 . S
C452 N451 1.334 . S
C452 C455 1.413 . S
C453 H447 0.930 . S
C453 C454 1.392 . S
C453 C455 1.367 . S
C454 C453 1.392 . S
C454 C456 1.420 . S
C454 C486 1.423 . S
C455 H441 0.930 . S
C455 C452 1.413 . S
C455 C453 1.367 . S
C456 N451 1.362 . S
C456 C454 1.420 . S
C456 C460 1.429 . S
H457 C462 0.930 . S
N458 Eu420 2.609 . S
N458 C460 1.377 . S
N458 C461 1.321 . S
C459 H445 0.930 . S
C459 C461 1.400 . S
C459 C462 1.386 . S
C460 C456 1.429 . S
C460 N458 1.377 . S
C460 C463 1.411 . S
C461 H443 0.930 . S
C461 N458 1.321 . S
C461 C459 1.400 . S
C462 H457 0.930 . S
C462 C459 1.386 . S
C462 C463 1.395 . S
C463 C460 1.411 . S
C463 C462 1.395 . S
C463 C485 1.420 . S
O464 Eu420 2.558 . S
O464 C484 1.257 . S
O465 Eu420 2.612 . S
O465 Eu431 2.380 . S
O465 C476 1.276 . S
O466 Eu431 2.432 . S
O466 C483 1.264 . S
O467 Eu420 2.339 . S
O467 C483 1.254 . S
O468 Eu420 2.563 . S
O468 C476 1.235 . S
O469 Eu420 2.419 . S
O469 C484 1.249 . S
O470 Eu431 2.558 . S
O470 C495 1.257 . S
O471 Eu420 2.380 . S
O471 Eu431 2.612 . S
O471 C487 1.276 . S
O472 Eu420 2.432 . S
O472 C494 1.264 . S
O473 Eu431 2.339 . S
O473 C494 1.254 . S
O474 Eu431 2.563 . S
O474 C487 1.235 . S
O475 Eu431 2.419 . S
O475 C495 1.249 . S
C476 O465 1.276 . S
C476 O468 1.235 . S
C477 C479 1.393 . S
C477 C481 1.395 . S
C477 C484 1.492 . S
C478 C479 1.392 . S
C478 C480 1.386 . S
C479 C477 1.393 . S
C479 C478 1.392 . S
C479 H496 0.930 . S
C480 C478 1.386 . S
C480 C482 1.395 . S
C480 H497 0.930 . S
C481 C477 1.395 . S
C481 C482 1.379 . S
C481 H498 0.930 . S
C482 C480 1.395 . S
C482 C481 1.379 . S
C482 H499 0.930 . S
C483 O466 1.264 . S
C483 O467 1.254 . S
C484 Eu420 2.848 . S
C484 O464 1.257 . S
C484 O469 1.249 . S
C484 C477 1.492 . S
C485 H450 0.931 . S
C485 C463 1.420 . S
C485 C486 1.351 . S
C486 H448 0.930 . S
C486 C454 1.423 . S
C486 C485 1.351 . S
C487 O471 1.276 . S
C487 O474 1.235 . S
C488 C489 1.393 . S
C488 C492 1.395 . S
C488 C495 1.492 . S
C489 C488 1.393 . S
C489 C490 1.392 . S
C489 H500 0.930 . S
C490 C489 1.392 . S
C490 C491 1.386 . S
C491 C490 1.386 . S
C491 C493 1.395 . S
C491 H501 0.930 . S
C492 C488 1.395 . S
C492 C493 1.379 . S
C492 H502 0.930 . S
C493 C491 1.395 . S
C493 C492 1.379 . S
C493 H503 0.930 . S
C494 O472 1.264 . S
C494 O473 1.254 . S
C495 Eu431 2.848 . S
C495 O470 1.257 . S
C495 O475 1.249 . S
C495 C488 1.492 . S
H496 C479 0.930 . S
H497 C480 0.930 . S
H498 C481 0.930 . S
H499 C482 0.930 . S
H500 C489 0.930 . S
H501 C491 0.930 . S
H502 C492 0.930 . S
H503 C493 0.930 . S
Eu504 N535 2.657 . S
Eu504 N542 2.609 . S
Eu504 O548 2.558 . S
Eu504 O549 2.612 . S
Eu504 O551 2.339 . S
Eu504 O552 2.563 . S
Eu504 O553 2.419 . S
Eu504 O555 2.380 . S
Eu504 O556 2.432 . S
Eu504 C568 2.848 . S
C505 C508 1.429 . S
C505 C509 1.411 . S
C505 N512 1.377 . S
C506 C508 1.420 . S
C506 C510 1.423 . S
C506 C518 1.392 . S
C507 C509 1.420 . S
C507 C510 1.351 . S
C507 H530 0.931 . S
C508 C505 1.429 . S
C508 C506 1.420 . S
C508 N516 1.362 . S
C509 C505 1.411 . S
C509 C507 1.420 . S
C509 C514 1.395 . S
C510 C506 1.423 . S
C510 C507 1.351 . S
C510 H522 0.930 . S
C511 C513 1.400 . S
C511 C514 1.386 . S
C511 H523 0.930 . S
N512 C505 1.377 . S
N512 C513 1.321 . S
N512 Eu515 2.609 . S
C513 C511 1.400 . S
C513 N512 1.321 . S
C513 H520 0.930 . S
C514 C509 1.395 . S
C514 C511 1.386 . S
C514 H533 0.930 . S
Eu515 N512 2.609 . S
Eu515 N516 2.657 . S
Eu515 O549 2.380 . S
Eu515 O550 2.432 . S
Eu515 O554 2.558 . S
Eu515 O555 2.612 . S
Eu515 O557 2.339 . S
Eu515 O558 2.563 . S
Eu515 O559 2.419 . S
Eu515 C579 2.848 . S
N516 C508 1.362 . S
N516 Eu515 2.657 . S
N516 C517 1.334 . S
C517 N516 1.334 . S
C517 C519 1.413 . S
C517 H524 0.929 . S
C518 C506 1.392 . S
C518 C519 1.367 . S
C518 H526 0.930 . S
C519 C517 1.413 . S
C519 C518 1.367 . S
C519 H521 0.930 . S
H520 C513 0.930 . S
H521 C519 0.930 . S
H522 C510 0.930 . S
H523 C511 0.930 . S
H524 C517 0.929 . S
H525 C539 0.930 . S
H526 C518 0.930 . S
H527 C545 0.930 . S
H528 C536 0.929 . S
H529 C543 0.930 . S
H530 C507 0.931 . S
H531 C537 0.930 . S
H532 C570 0.930 . S
H533 C514 0.930 . S
H534 C569 0.931 . S
N535 Eu504 2.657 . S
N535 C536 1.334 . S
N535 C540 1.362 . S
C536 H528 0.929 . S
C536 N535 1.334 . S
C536 C539 1.413 . S
C537 H531 0.930 . S
C537 C538 1.392 . S
C537 C539 1.367 . S
C538 C537 1.392 . S
C538 C540 1.420 . S
C538 C570 1.423 . S
C539 H525 0.930 . S
C539 C536 1.413 . S
C539 C537 1.367 . S
C540 N535 1.362 . S
C540 C538 1.420 . S
C540 C544 1.429 . S
H541 C546 0.930 . S
N542 Eu504 2.609 . S
N542 C544 1.377 . S
N542 C545 1.321 . S
C543 H529 0.930 . S
C543 C545 1.400 . S
C543 C546 1.386 . S
C544 C540 1.429 . S
C544 N542 1.377 . S
C544 C547 1.411 . S
C545 H527 0.930 . S
C545 N542 1.321 . S
C545 C543 1.400 . S
C546 H541 0.930 . S
C546 C543 1.386 . S
C546 C547 1.395 . S
C547 C544 1.411 . S
C547 C546 1.395 . S
C547 C569 1.420 . S
O548 Eu504 2.558 . S
O548 C568 1.257 . S
O549 Eu504 2.612 . S
O549 Eu515 2.380 . S
O549 C560 1.276 . S
O550 Eu515 2.432 . S
O550 C567 1.264 . S
O551 Eu504 2.339 . S
O551 C567 1.254 . S
O552 Eu504 2.563 . S
O552 C560 1.235 . S
O553 Eu504 2.419 . S
O553 C568 1.249 . S
O554 Eu515 2.558 . S
O554 C579 1.257 . S
O555 Eu504 2.380 . S
O555 Eu515 2.612 . S
O555 C571 1.276 . S
O556 Eu504 2.432 . S
O556 C578 1.264 . S
O557 Eu515 2.339 . S
O557 C578 1.254 . S
O558 Eu515 2.563 . S
O558 C571 1.235 . S
O559 Eu515 2.419 . S
O559 C579 1.249 . S
C560 O549 1.276 . S
C560 O552 1.235 . S
C561 C563 1.393 . S
C561 C565 1.395 . S
C561 C568 1.492 . S
C562 C563 1.392 . S
C562 C564 1.386 . S
C563 C561 1.393 . S
C563 C562 1.392 . S
C563 H580 0.930 . S
C564 C562 1.386 . S
C564 C566 1.395 . S
C564 H581 0.930 . S
C565 C561 1.395 . S
C565 C566 1.379 . S
C565 H582 0.930 . S
C566 C564 1.395 . S
C566 C565 1.379 . S
C566 H583 0.930 . S
C567 O550 1.264 . S
C567 O551 1.254 . S
C568 Eu504 2.848 . S
C568 O548 1.257 . S
C568 O553 1.249 . S
C568 C561 1.492 . S
C569 H534 0.931 . S
C569 C547 1.420 . S
C569 C570 1.351 . S
C570 H532 0.930 . S
C570 C538 1.423 . S
C570 C569 1.351 . S
C571 O555 1.276 . S
C571 O558 1.235 . S
C572 C573 1.393 . S
C572 C576 1.395 . S
C572 C579 1.492 . S
C573 C572 1.393 . S
C573 C574 1.392 . S
C573 H584 0.930 . S
C574 C573 1.392 . S
C574 C575 1.386 . S
C575 C574 1.386 . S
C575 C577 1.395 . S
C575 H585 0.930 . S
C576 C572 1.395 . S
C576 C577 1.379 . S
C576 H586 0.930 . S
C577 C575 1.395 . S
C577 C576 1.379 . S
C577 H587 0.930 . S
C578 O556 1.264 . S
C578 O557 1.254 . S
C579 Eu515 2.848 . S
C579 O554 1.257 . S
C579 O559 1.249 . S
C579 C572 1.492 . S
H580 C563 0.930 . S
H581 C564 0.930 . S
H582 C565 0.930 . S
H583 C566 0.930 . S
H584 C573 0.930 . S
H585 C575 0.930 . S
H586 C576 0.930 . S
H587 C577 0.930 . S
Eu588 N619 2.657 . S
Eu588 N626 2.609 . S
Eu588 O632 2.558 . S
Eu588 O633 2.612 . S
Eu588 O635 2.339 . S
Eu588 O636 2.563 . S
Eu588 O637 2.419 . S
Eu588 O639 2.380 . S
Eu588 O640 2.432 . S
Eu588 C652 2.848 . S
C589 C592 1.429 . S
C589 C593 1.411 . S
C589 N596 1.377 . S
C590 C592 1.420 . S
C590 C594 1.423 . S
C590 C602 1.392 . S
C591 C593 1.420 . S
C591 C594 1.351 . S
C591 H614 0.931 . S
C592 C589 1.429 . S
C592 C590 1.420 . S
C592 N600 1.362 . S
C593 C589 1.411 . S
C593 C591 1.420 . S
C593 C598 1.395 . S
C594 C590 1.423 . S
C594 C591 1.351 . S
C594 H606 0.930 . S
C595 C597 1.400 . S
C595 C598 1.386 . S
C595 H607 0.930 . S
N596 C589 1.377 . S
N596 C597 1.321 . S
N596 Eu599 2.609 . S
C597 C595 1.400 . S
C597 N596 1.321 . S
C597 H604 0.930 . S
C598 C593 1.395 . S
C598 C595 1.386 . S
C598 H617 0.930 . S
Eu599 N596 2.609 . S
Eu599 N600 2.657 . S
Eu599 O633 2.380 . S
Eu599 O634 2.432 . S
Eu599 O638 2.558 . S
Eu599 O639 2.612 . S
Eu599 O641 2.339 . S
Eu599 O642 2.563 . S
Eu599 O643 2.419 . S
Eu599 C663 2.848 . S
N600 C592 1.362 . S
N600 Eu599 2.657 . S
N600 C601 1.334 . S
C601 N600 1.334 . S
C601 C603 1.413 . S
C601 H608 0.929 . S
C602 C590 1.392 . S
C602 C603 1.367 . S
C602 H610 0.930 . S
C603 C601 1.413 . S
C603 C602 1.367 . S
C603 H605 0.930 . S
H604 C597 0.930 . S
H605 C603 0.930 . S
H606 C594 0.930 . S
H607 C595 0.930 . S
H608 C601 0.929 . S
H609 C623 0.930 . S
H610 C602 0.930 . S
H611 C629 0.930 . S
H612 C620 0.929 . S
H613 C627 0.930 . S
H614 C591 0.931 . S
H615 C621 0.930 . S
H616 C654 0.930 . S
H617 C598 0.930 . S
H618 C653 0.931 . S
N619 Eu588 2.657 . S
N619 C620 1.334 . S
N619 C624 1.362 . S
C620 H612 0.929 . S
C620 N619 1.334 . S
C620 C623 1.413 . S
C621 H615 0.930 . S
C621 C622 1.392 . S
C621 C623 1.367 . S
C622 C621 1.392 . S
C622 C624 1.420 . S
C622 C654 1.423 . S
C623 H609 0.930 . S
C623 C620 1.413 . S
C623 C621 1.367 . S
C624 N619 1.362 . S
C624 C622 1.420 . S
C624 C628 1.429 . S
H625 C630 0.930 . S
N626 Eu588 2.609 . S
N626 C628 1.377 . S
N626 C629 1.321 . S
C627 H613 0.930 . S
C627 C629 1.400 . S
C627 C630 1.386 . S
C628 C624 1.429 . S
C628 N626 1.377 . S
C628 C631 1.411 . S
C629 H611 0.930 . S
C629 N626 1.321 . S
C629 C627 1.400 . S
C630 H625 0.930 . S
C630 C627 1.386 . S
C630 C631 1.395 . S
C631 C628 1.411 . S
C631 C630 1.395 . S
C631 C653 1.420 . S
O632 Eu588 2.558 . S
O632 C652 1.257 . S
O633 Eu588 2.612 . S
O633 Eu599 2.380 . S
O633 C644 1.276 . S
O634 Eu599 2.432 . S
O634 C651 1.264 . S
O635 Eu588 2.339 . S
O635 C651 1.254 . S
O636 Eu588 2.563 . S
O636 C644 1.235 . S
O637 Eu588 2.419 . S
O637 C652 1.249 . S
O638 Eu599 2.558 . S
O638 C663 1.257 . S
O639 Eu588 2.380 . S
O639 Eu599 2.612 . S
O639 C655 1.276 . S
O640 Eu588 2.432 . S
O640 C662 1.264 . S
O641 Eu599 2.339 . S
O641 C662 1.254 . S
O642 Eu599 2.563 . S
O642 C655 1.235 . S
O643 Eu599 2.419 . S
O643 C663 1.249 . S
C644 O633 1.276 . S
C644 O636 1.235 . S
C645 C647 1.393 . S
C645 C649 1.395 . S
C645 C652 1.492 . S
C646 C647 1.392 . S
C646 C648 1.386 . S
C647 C645 1.393 . S
C647 C646 1.392 . S
C647 H664 0.930 . S
C648 C646 1.386 . S
C648 C650 1.395 . S
C648 H665 0.930 . S
C649 C645 1.395 . S
C649 C650 1.379 . S
C649 H666 0.930 . S
C650 C648 1.395 . S
C650 C649 1.379 . S
C650 H667 0.930 . S
C651 O634 1.264 . S
C651 O635 1.254 . S
C652 Eu588 2.848 . S
C652 O632 1.257 . S
C652 O637 1.249 . S
C652 C645 1.492 . S
C653 H618 0.931 . S
C653 C631 1.420 . S
C653 C654 1.351 . S
C654 H616 0.930 . S
C654 C622 1.423 . S
C654 C653 1.351 . S
C655 O639 1.276 . S
C655 O642 1.235 . S
C656 C657 1.393 . S
C656 C660 1.395 . S
C656 C663 1.492 . S
C657 C656 1.393 . S
C657 C658 1.392 . S
C657 H668 0.930 . S
C658 C657 1.392 . S
C658 C659 1.386 . S
C659 C658 1.386 . S
C659 C661 1.395 . S
C659 H669 0.930 . S
C660 C656 1.395 . S
C660 C661 1.379 . S
C660 H670 0.930 . S
C661 C659 1.395 . S
C661 C660 1.379 . S
C661 H671 0.930 . S
C662 O640 1.264 . S
C662 O641 1.254 . S
C663 Eu599 2.848 . S
C663 O638 1.257 . S
C663 O643 1.249 . S
C663 C656 1.492 . S
H664 C647 0.930 . S
H665 C648 0.930 . S
H666 C649 0.930 . S
H667 C650 0.930 . S
H668 C657 0.930 . S
H669 C659 0.930 . S
H670 C660 0.930 . S
H671 C661 0.930 . S
Co672 O675 2.042 . S
Co672 O682 2.264 . S
Co672 O701 2.286 . S
Co672 O702 2.069 . S
Co672 O704 2.015 1_455 S
Co673 O675 2.122 . S
Co673 O681 2.073 . S
Co673 O682 2.327 . S
Co673 O683 1.976 1_455 S
Co674 O675 2.082 1_545 S
Co674 O677 2.092 1_455 S
Co674 O684 2.109 1_445 S
Co674 O685 2.148 . S
Co674 O689 2.114 . S
Co674 O703 2.139 1_445 S
O675 Co672 2.042 . S
O675 Co673 2.122 . S
O675 Co674 2.082 1_565 S
O675 H676 0.980 . S
H676 O675 0.980 . S
O677 Co674 2.092 1_655 S
O677 Co678 2.042 . S
O677 Co679 2.122 . S
O677 H680 0.980 . S
Co678 O677 2.042 . S
Co678 O686 2.286 . S
Co678 O687 2.069 . S
Co678 O688 2.015 1_655 S
Co678 O691 2.264 . S
Co679 O677 2.122 . S
Co679 O690 1.976 1_655 S
Co679 O691 2.327 . S
Co679 O692 2.073 . S
H680 O677 0.980 . S
O681 Co673 2.073 . S
O681 C696 1.245 . S
O682 Co672 2.264 . S
O682 Co673 2.327 . S
O682 C696 1.257 . S
O683 Co673 1.976 1_655 S
O683 C695 1.251 . S
O684 Co674 2.109 1_665 S
O684 C695 1.274 . S
O685 Co674 2.148 . S
O685 C698 1.246 . S
O686 Co678 2.286 . S
O686 C697 1.259 . S
O687 Co678 2.069 . S
O687 C697 1.289 . S
O688 Co678 2.015 1_455 S
O688 C698 1.257 . S
O689 Co674 2.114 . S
O689 C699 1.274 . S
O690 Co679 1.976 1_455 S
O690 C699 1.251 . S
O691 Co678 2.264 . S
O691 Co679 2.327 . S
O691 C700 1.257 . S
O692 Co679 2.073 . S
O692 C700 1.245 . S
C693 O701 1.259 . S
C693 O702 1.289 . S
C694 O703 1.246 . S
C694 O704 1.257 . S
C695 O683 1.251 . S
C695 O684 1.274 . S
C696 O681 1.245 . S
C696 O682 1.257 . S
C697 O686 1.259 . S
C697 O687 1.289 . S
C698 O685 1.246 . S
C698 O688 1.257 . S
C699 O689 1.274 . S
C699 O690 1.251 . S
C700 O691 1.257 . S
C700 O692 1.245 . S
O701 Co672 2.286 . S
O701 C693 1.259 . S
O702 Co672 2.069 . S
O702 C693 1.289 . S
O703 Co674 2.139 1_665 S
O703 C694 1.246 . S
O704 Co672 2.015 1_655 S
O704 C694 1.257 . S
Co705 O708 2.042 1_556 S
Co705 O715 2.264 1_556 S
Co705 O734 2.286 . S
Co705 O735 2.069 . S
Co705 O737 2.015 . S
Co706 O708 2.122 . S
Co706 O714 2.073 . S
Co706 O715 2.327 . S
Co706 O716 1.976 . S
Co707 O708 2.081 1_545 S
Co707 O710 2.093 1_554 S
Co707 O717 2.110 1_545 S
Co707 O718 2.148 . S
Co707 O722 2.113 1_554 S
Co707 O736 2.139 1_544 S
O708 Co705 2.042 1_554 S
O708 Co706 2.122 . S
O708 Co707 2.081 1_565 S
O708 H709 0.980 . S
H709 O708 0.980 . S
O710 Co707 2.093 1_556 S
O710 Co711 2.042 1_556 S
O710 Co712 2.122 . S
O710 H713 0.980 . S
Co711 O710 2.042 1_554 S
Co711 O719 2.286 . S
Co711 O720 2.069 . S
Co711 O721 2.015 . S
Co711 O724 2.264 1_554 S
Co712 O710 2.122 . S
Co712 O723 1.976 . S
Co712 O724 2.327 . S
Co712 O725 2.073 . S
H713 O710 0.980 . S
O714 Co706 2.073 . S
O714 C729 1.245 . S
O715 Co705 2.264 1_554 S
O715 Co706 2.327 . S
O715 C729 1.257 . S
O716 Co706 1.976 . S
O716 C728 1.251 . S
O717 Co707 2.110 1_565 S
O717 C728 1.274 . S
O718 Co707 2.148 . S
O718 C731 1.246 . S
O719 Co711 2.286 . S
O719 C730 1.259 . S
O720 Co711 2.069 . S
O720 C730 1.289 . S
O721 Co711 2.015 . S
O721 C731 1.257 . S
O722 Co707 2.113 1_556 S
O722 C732 1.274 . S
O723 Co712 1.976 . S
O723 C732 1.251 . S
O724 Co711 2.264 1_556 S
O724 Co712 2.327 . S
O724 C733 1.257 . S
O725 Co712 2.073 . S
O725 C733 1.245 . S
C726 O734 1.259 . S
C726 O735 1.289 . S
C727 O736 1.246 . S
C727 O737 1.257 . S
C728 O716 1.251 . S
C728 O717 1.274 . S
C729 O714 1.245 . S
C729 O715 1.257 . S
C730 O719 1.259 . S
C730 O720 1.289 . S
C731 O718 1.246 . S
C731 O721 1.257 . S
C732 O722 1.274 . S
C732 O723 1.251 . S
C733 O724 1.257 . S
C733 O725 1.245 . S
O734 Co705 2.286 . S
O734 C726 1.259 . S
O735 Co705 2.069 . S
O735 C726 1.289 . S
O736 Co707 2.139 1_566 S
O736 C727 1.246 . S
O737 Co705 2.015 . S
O737 C727 1.257 . S
Co738 O741 2.042 1_556 S
Co738 O748 2.264 1_556 S
Co738 O767 2.286 . S
Co738 O768 2.069 . S
Co738 O770 2.015 1_455 S
Co739 O741 2.122 . S
Co739 O747 2.073 . S
Co739 O748 2.327 . S
Co739 O749 1.976 1_455 S
Co740 O741 2.088 . S
Co740 O743 2.086 1_454 S
Co740 O750 2.111 1_455 S
Co740 O751 2.144 . S
Co740 O755 2.112 1_554 S
Co740 O769 2.143 1_454 S
O741 Co738 2.042 1_554 S
O741 Co739 2.122 . S
O741 Co740 2.088 . S
O741 H742 0.980 . S
H742 O741 0.980 . S
O743 Co740 2.086 1_656 S
O743 Co744 2.042 1_556 S
O743 Co745 2.122 . S
O743 H746 0.980 . S
Co744 O743 2.042 1_554 S
Co744 O752 2.286 . S
Co744 O753 2.069 . S
Co744 O754 2.015 1_655 S
Co744 O757 2.264 1_554 S
Co745 O743 2.122 . S
Co745 O756 1.976 1_655 S
Co745 O757 2.327 . S
Co745 O758 2.073 . S
H746 O743 0.980 . S
O747 Co739 2.073 . S
O747 C762 1.245 . S
O748 Co738 2.264 1_554 S
O748 Co739 2.327 . S
O748 C762 1.257 . S
O749 Co739 1.976 1_655 S
O749 C761 1.251 . S
O750 Co740 2.111 1_655 S
O750 C761 1.274 . S
O751 Co740 2.144 . S
O751 C764 1.246 . S
O752 Co744 2.286 . S
O752 C763 1.259 . S
O753 Co744 2.069 . S
O753 C763 1.289 . S
O754 Co744 2.015 1_455 S
O754 C764 1.257 . S
O755 Co740 2.112 1_556 S
O755 C765 1.274 . S
O756 Co745 1.976 1_455 S
O756 C765 1.251 . S
O757 Co744 2.264 1_556 S
O757 Co745 2.327 . S
O757 C766 1.257 . S
O758 Co745 2.073 . S
O758 C766 1.245 . S
C759 O767 1.259 . S
C759 O768 1.289 . S
C760 O769 1.246 . S
C760 O770 1.257 . S
C761 O749 1.251 . S
C761 O750 1.274 . S
C762 O747 1.245 . S
C762 O748 1.257 . S
C763 O752 1.259 . S
C763 O753 1.289 . S
C764 O751 1.246 . S
C764 O754 1.257 . S
C765 O755 1.274 . S
C765 O756 1.251 . S
C766 O757 1.257 . S
C766 O758 1.245 . S
O767 Co738 2.286 . S
O767 C759 1.259 . S
O768 Co738 2.069 . S
O768 C759 1.289 . S
O769 Co740 2.143 1_656 S
O769 C760 1.246 . S
O770 Co738 2.015 1_655 S
O770 C760 1.257 . S
Co771 O774 2.042 1_556 S
Co771 O781 2.264 1_556 S
Co771 O800 2.286 . S
Co771 O801 2.069 . S
Co771 O803 2.015 . S
Co772 O774 2.122 . S
Co772 O780 2.073 . S
Co772 O781 2.327 . S
Co772 O782 1.976 . S
Co773 O774 2.087 . S
Co773 O776 2.087 1_554 S
Co773 O783 2.111 . S
Co773 O784 2.143 . S
Co773 O788 2.111 1_554 S
Co773 O802 2.143 1_554 S
O774 Co771 2.042 1_554 S
O774 Co772 2.122 . S
O774 Co773 2.087 . S
O774 H775 0.980 . S
H775 O774 0.980 . S
O776 Co773 2.087 1_556 S
O776 Co777 2.042 1_556 S
O776 Co778 2.122 . S
O776 H779 0.980 . S
Co777 O776 2.042 1_554 S
Co777 O785 2.286 . S
Co777 O786 2.069 . S
Co777 O787 2.015 . S
Co777 O790 2.264 1_554 S
Co778 O776 2.122 . S
Co778 O789 1.976 . S
Co778 O790 2.327 . S
Co778 O791 2.073 . S
H779 O776 0.980 . S
O780 Co772 2.073 . S
O780 C795 1.245 . S
O781 Co771 2.264 1_554 S
O781 Co772 2.327 . S
O781 C795 1.257 . S
O782 Co772 1.976 . S
O782 C794 1.251 . S
O783 Co773 2.111 . S
O783 C794 1.274 . S
O784 Co773 2.143 . S
O784 C797 1.246 . S
O785 Co777 2.286 . S
O785 C796 1.259 . S
O786 Co777 2.069 . S
O786 C796 1.289 . S
O787 Co777 2.015 . S
O787 C797 1.257 . S
O788 Co773 2.111 1_556 S
O788 C798 1.274 . S
O789 Co778 1.976 . S
O789 C798 1.251 . S
O790 Co777 2.264 1_556 S
O790 Co778 2.327 . S
O790 C799 1.257 . S
O791 Co778 2.073 . S
O791 C799 1.245 . S
C792 O800 1.259 . S
C792 O801 1.289 . S
C793 O802 1.246 . S
C793 O803 1.257 . S
C794 O782 1.251 . S
C794 O783 1.274 . S
C795 O780 1.245 . S
C795 O781 1.257 . S
C796 O785 1.259 . S
C796 O786 1.289 . S
C797 O784 1.246 . S
C797 O787 1.257 . S
C798 O788 1.274 . S
C798 O789 1.251 . S
C799 O790 1.257 . S
C799 O791 1.245 . S
O800 Co771 2.286 . S
O800 C792 1.259 . S
O801 Co771 2.069 . S
O801 C792 1.289 . S
O802 Co773 2.143 1_556 S
O802 C793 1.246 . S
O803 Co771 2.015 . S
O803 C793 1.257 . S
Co804 O807 2.042 . S
Co804 O814 2.264 . S
Co804 O833 2.286 . S
Co804 O834 2.069 . S
Co804 O836 2.015 . S
Co805 O807 2.122 . S
Co805 O813 2.073 . S
Co805 O814 2.327 . S
Co805 O815 1.976 . S
Co806 O807 2.088 . S
Co806 O809 2.086 1_455 S
Co806 O816 2.112 . S
Co806 O817 2.143 1_455 S
Co806 O821 2.111 1_455 S
Co806 O835 2.144 . S
O807 Co804 2.042 . S
O807 Co805 2.122 . S
O807 Co806 2.088 . S
O807 H808 0.980 . S
H808 O807 0.980 . S
O809 Co806 2.086 1_655 S
O809 Co810 2.042 . S
O809 Co811 2.122 . S
O809 H812 0.980 . S
Co810 O809 2.042 . S
Co810 O818 2.286 . S
Co810 O819 2.069 . S
Co810 O820 2.015 . S
Co810 O823 2.264 . S
Co811 O809 2.122 . S
Co811 O822 1.976 . S
Co811 O823 2.327 . S
Co811 O824 2.073 . S
H812 O809 0.980 . S
O813 Co805 2.073 . S
O813 C828 1.245 . S
O814 Co804 2.264 . S
O814 Co805 2.327 . S
O814 C828 1.257 . S
O815 Co805 1.976 . S
O815 C827 1.251 . S
O816 Co806 2.112 . S
O816 C827 1.274 . S
O817 Co806 2.143 1_655 S
O817 C830 1.246 . S
O818 Co810 2.286 . S
O818 C829 1.259 . S
O819 Co810 2.069 . S
O819 C829 1.289 . S
O820 Co810 2.015 . S
O820 C830 1.257 . S
O821 Co806 2.111 1_655 S
O821 C831 1.274 . S
O822 Co811 1.976 . S
O822 C831 1.251 . S
O823 Co810 2.264 . S
O823 Co811 2.327 . S
O823 C832 1.257 . S
O824 Co811 2.073 . S
O824 C832 1.245 . S
C825 O833 1.259 . S
C825 O834 1.289 . S
C826 O835 1.246 . S
C826 O836 1.257 . S
C827 O815 1.251 . S
C827 O816 1.274 . S
C828 O813 1.245 . S
C828 O814 1.257 . S
C829 O818 1.259 . S
C829 O819 1.289 . S
C830 O817 1.246 . S
C830 O820 1.257 . S
C831 O821 1.274 . S
C831 O822 1.251 . S
C832 O823 1.257 . S
C832 O824 1.245 . S
O833 Co804 2.286 . S
O833 C825 1.259 . S
O834 Co804 2.069 . S
O834 C825 1.289 . S
O835 Co806 2.144 . S
O835 C826 1.246 . S
O836 Co804 2.015 . S
O836 C826 1.257 . S
Co837 O840 2.042 . S
Co837 O847 2.264 . S
Co837 O866 2.286 . S
Co837 O867 2.069 . S
Co837 O869 2.015 1_565 S
Co838 O840 2.122 . S
Co838 O846 2.073 . S
Co838 O847 2.327 . S
Co838 O848 1.976 1_565 S
Co839 O840 2.081 1_545 S
Co839 O842 2.093 . S
Co839 O849 2.115 . S
Co839 O850 2.141 1_545 S
Co839 O854 2.107 1_545 S
Co839 O868 2.146 . S
O840 Co837 2.042 . S
O840 Co838 2.122 . S
O840 Co839 2.081 1_565 S
O840 H841 0.980 . S
H841 O840 0.980 . S
O842 Co839 2.093 . S
O842 Co843 2.042 . S
O842 Co844 2.122 . S
O842 H845 0.980 . S
Co843 O842 2.042 . S
Co843 O851 2.286 . S
Co843 O852 2.069 . S
Co843 O853 2.015 1_545 S
Co843 O856 2.264 . S
Co844 O842 2.122 . S
Co844 O855 1.976 1_545 S
Co844 O856 2.327 . S
Co844 O857 2.073 . S
H845 O842 0.980 . S
O846 Co838 2.073 . S
O846 C861 1.245 . S
O847 Co837 2.264 . S
O847 Co838 2.327 . S
O847 C861 1.257 . S
O848 Co838 1.976 1_545 S
O848 C860 1.251 . S
O849 Co839 2.115 . S
O849 C860 1.274 . S
O850 Co839 2.141 1_565 S
O850 C863 1.246 . S
O851 Co843 2.286 . S
O851 C862 1.259 . S
O852 Co843 2.069 . S
O852 C862 1.289 . S
O853 Co843 2.015 1_565 S
O853 C863 1.257 . S
O854 Co839 2.107 1_565 S
O854 C864 1.274 . S
O855 Co844 1.976 1_565 S
O855 C864 1.251 . S
O856 Co843 2.264 . S
O856 Co844 2.327 . S
O856 C865 1.257 . S
O857 Co844 2.073 . S
O857 C865 1.245 . S
C858 O866 1.259 . S
C858 O867 1.289 . S
C859 O868 1.246 . S
C859 O869 1.257 . S
C860 O848 1.251 . S
C860 O849 1.274 . S
C861 O846 1.245 . S
C861 O847 1.257 . S
C862 O851 1.259 . S
C862 O852 1.289 . S
C863 O850 1.246 . S
C863 O853 1.257 . S
C864 O854 1.274 . S
C864 O855 1.251 . S
C865 O856 1.257 . S
C865 O857 1.245 . S
O866 Co837 2.286 . S
O866 C858 1.259 . S
O867 Co837 2.069 . S
O867 C858 1.289 . S
O868 Co839 2.146 . S
O868 C859 1.246 . S
O869 Co837 2.015 1_545 S
O869 C859 1.257 . S
H870 C888 0.951 . S
H871 C890 0.951 . S
H872 C892 0.950 . S
H873 C893 0.950 . S
H874 C895 0.950 . S
H875 C898 0.950 . S
H876 C899 0.950 . S
H877 C901 0.950 . S
H878 C902 0.950 . S
H879 C903 0.951 . S
H880 C905 0.951 . S
H881 C907 0.950 . S
H882 C908 0.950 . S
H883 C910 0.950 . S
H884 C913 0.950 . S
H885 C914 0.950 . S
H886 C916 0.950 . S
H887 C917 0.950 . S
C888 H870 0.951 . S
C888 C889 1.366 . S
C888 C890 1.388 . S
C889 C888 1.366 . S
C889 C893 1.385 . S
C890 H871 0.951 . S
C890 C888 1.388 . S
C890 C891 1.366 . S
C891 C890 1.366 . S
C891 C892 1.414 . S
C891 C894 1.499 . S
C892 H872 0.950 . S
C892 C891 1.414 . S
C892 C893 1.374 . S
C893 H873 0.950 . S
C893 C889 1.385 . S
C893 C892 1.374 . S
C894 C891 1.499 . S
C894 C895 1.373 . S
C894 C896 1.389 . S
C895 H874 0.950 . S
C895 C894 1.373 . S
C895 C911 1.377 . S
C896 C894 1.389 . S
C896 C897 1.524 . S
C896 C910 1.377 . S
C897 C896 1.524 . S
C897 C898 1.397 . S
C897 C902 1.363 . S
C898 H875 0.950 . S
C898 C897 1.397 . S
C898 C899 1.334 . S
C899 H876 0.950 . S
C899 C898 1.334 . S
C899 C900 1.287 . S
C900 C899 1.287 . S
C900 C901 1.524 . S
C900 H919 0.913 . S
C901 H877 0.950 . S
C901 C900 1.524 . S
C901 C902 1.415 . S
C902 H878 0.950 . S
C902 C897 1.363 . S
C902 C901 1.415 . S
C903 H879 0.951 . S
C903 C904 1.366 . S
C903 C905 1.388 . S
C904 C903 1.366 . S
C904 C908 1.385 . S
C905 H880 0.951 . S
C905 C903 1.388 . S
C905 C906 1.366 . S
C906 C905 1.366 . S
C906 C907 1.414 . S
C906 C909 1.499 . S
C907 H881 0.950 . S
C907 C906 1.414 . S
C907 C908 1.374 . S
C908 H882 0.950 . S
C908 C904 1.385 . S
C908 C907 1.374 . S
C909 C906 1.499 . S
C909 C910 1.373 . S
C909 C911 1.389 . S
C910 H883 0.950 . S
C910 C896 1.377 . S
C910 C909 1.373 . S
C911 C895 1.377 . S
C911 C909 1.389 . S
C911 C912 1.524 . S
C912 C911 1.524 . S
C912 C913 1.397 . S
C912 C917 1.363 . S
C913 H884 0.950 . S
C913 C912 1.397 . S
C913 C914 1.334 . S
C914 H885 0.950 . S
C914 C913 1.334 . S
C914 C915 1.287 . S
C915 C914 1.287 . S
C915 C916 1.524 . S
C915 H918 0.999 . S
C916 H886 0.950 . S
C916 C915 1.524 . S
C916 C917 1.415 . S
C917 H887 0.950 . S
C917 C912 1.363 . S
C917 C916 1.415 . S
H918 C915 0.999 . S
H919 C900 0.913 . S
H920 C938 0.951 . S
H921 C940 0.951 . S
H922 C942 0.950 . S
H923 C943 0.950 . S
H924 C945 0.950 . S
H925 C948 0.950 . S
H926 C949 0.950 . S
H927 C951 0.950 . S
H928 C952 0.950 . S
H929 C953 0.951 . S
H930 C955 0.951 . S
H931 C957 0.950 . S
H932 C958 0.950 . S
H933 C960 0.950 . S
H934 C963 0.950 . S
H935 C964 0.950 . S
H936 C966 0.950 . S
H937 C967 0.950 . S
C938 H920 0.951 . S
C938 C939 1.366 . S
C938 C940 1.388 . S
C939 C938 1.366 . S
C939 C943 1.385 . S
C940 H921 0.951 . S
C940 C938 1.388 . S
C940 C941 1.366 . S
C941 C940 1.366 . S
C941 C942 1.414 . S
C941 C944 1.499 . S
C942 H922 0.950 . S
C942 C941 1.414 . S
C942 C943 1.374 . S
C943 H923 0.950 . S
C943 C939 1.385 . S
C943 C942 1.374 . S
C944 C941 1.499 . S
C944 C945 1.373 . S
C944 C946 1.389 . S
C945 H924 0.950 . S
C945 C944 1.373 . S
C945 C961 1.377 . S
C946 C944 1.389 . S
C946 C947 1.524 . S
C946 C960 1.377 . S
C947 C946 1.524 . S
C947 C948 1.397 . S
C947 C952 1.363 . S
C948 H925 0.950 . S
C948 C947 1.397 . S
C948 C949 1.334 . S
C949 H926 0.950 . S
C949 C948 1.334 . S
C949 C950 1.287 . S
C950 C949 1.287 . S
C950 C951 1.524 . S
C950 H969 0.913 . S
C951 H927 0.950 . S
C951 C950 1.524 . S
C951 C952 1.415 . S
C952 H928 0.950 . S
C952 C947 1.363 . S
C952 C951 1.415 . S
C953 H929 0.951 . S
C953 C954 1.366 . S
C953 C955 1.388 . S
C954 C953 1.366 . S
C954 C958 1.385 . S
C955 H930 0.951 . S
C955 C953 1.388 . S
C955 C956 1.366 . S
C956 C955 1.366 . S
C956 C957 1.414 . S
C956 C959 1.499 . S
C957 H931 0.950 . S
C957 C956 1.414 . S
C957 C958 1.374 . S
C958 H932 0.950 . S
C958 C954 1.385 . S
C958 C957 1.374 . S
C959 C956 1.499 . S
C959 C960 1.373 . S
C959 C961 1.389 . S
C960 H933 0.950 . S
C960 C946 1.377 . S
C960 C959 1.373 . S
C961 C945 1.377 . S
C961 C959 1.389 . S
C961 C962 1.524 . S
C962 C961 1.524 . S
C962 C963 1.397 . S
C962 C967 1.363 . S
C963 H934 0.950 . S
C963 C962 1.397 . S
C963 C964 1.334 . S
C964 H935 0.950 . S
C964 C963 1.334 . S
C964 C965 1.287 . S
C965 C964 1.287 . S
C965 C966 1.524 . S
C965 H968 0.999 . S
C966 H936 0.950 . S
C966 C965 1.524 . S
C966 C967 1.415 . S
C967 H937 0.950 . S
C967 C962 1.363 . S
C967 C966 1.415 . S
H968 C965 0.999 . S
H969 C950 0.913 . S
H970 C988 0.951 . S
H971 C990 0.951 . S
H972 C992 0.950 . S
H973 C993 0.950 . S
H974 C995 0.950 . S
H975 C998 0.950 . S
H976 C999 0.950 . S
H977 C1001 0.950 . S
H978 C1002 0.950 . S
H979 C1003 0.951 . S
H980 C1005 0.951 . S
H981 C1007 0.950 . S
H982 C1008 0.950 . S
H983 C1010 0.950 . S
H984 C1013 0.950 . S
H985 C1014 0.950 . S
H986 C1016 0.950 . S
H987 C1017 0.950 . S
C988 H970 0.951 . S
C988 C989 1.366 . S
C988 C990 1.388 . S
C989 C988 1.366 . S
C989 C993 1.385 . S
C990 H971 0.951 . S
C990 C988 1.388 . S
C990 C991 1.366 . S
C991 C990 1.366 . S
C991 C992 1.414 . S
C991 C994 1.499 . S
C992 H972 0.950 . S
C992 C991 1.414 . S
C992 C993 1.374 . S
C993 H973 0.950 . S
C993 C989 1.385 . S
C993 C992 1.374 . S
C994 C991 1.499 . S
C994 C995 1.373 . S
C994 C996 1.389 . S
C995 H974 0.950 . S
C995 C994 1.373 . S
C995 C1011 1.377 . S
C996 C994 1.389 . S
C996 C997 1.524 . S
C996 C1010 1.377 . S
C997 C996 1.524 . S
C997 C998 1.397 . S
C997 C1002 1.363 . S
C998 H975 0.950 . S
C998 C997 1.397 . S
C998 C999 1.334 . S
C999 H976 0.950 . S
C999 C998 1.334 . S
C999 C1000 1.287 . S
C1000 C999 1.287 . S
C1000 C1001 1.524 . S
C1000 H1019 0.913 . S
C1001 H977 0.950 . S
C1001 C1000 1.524 . S
C1001 C1002 1.415 . S
C1002 H978 0.950 . S
C1002 C997 1.363 . S
C1002 C1001 1.415 . S
C1003 H979 0.951 . S
C1003 C1004 1.366 . S
C1003 C1005 1.388 . S
C1004 C1003 1.366 . S
C1004 C1008 1.385 . S
C1005 H980 0.951 . S
C1005 C1003 1.388 . S
C1005 C1006 1.366 . S
C1006 C1005 1.366 . S
C1006 C1007 1.414 . S
C1006 C1009 1.499 . S
C1007 H981 0.950 . S
C1007 C1006 1.414 . S
C1007 C1008 1.374 . S
C1008 H982 0.950 . S
C1008 C1004 1.385 . S
C1008 C1007 1.374 . S
C1009 C1006 1.499 . S
C1009 C1010 1.373 . S
C1009 C1011 1.389 . S
C1010 H983 0.950 . S
C1010 C996 1.377 . S
C1010 C1009 1.373 . S
C1011 C995 1.377 . S
C1011 C1009 1.389 . S
C1011 C1012 1.524 . S
C1012 C1011 1.524 . S
C1012 C1013 1.397 . S
C1012 C1017 1.363 . S
C1013 H984 0.950 . S
C1013 C1012 1.397 . S
C1013 C1014 1.334 . S
C1014 H985 0.950 . S
C1014 C1013 1.334 . S
C1014 C1015 1.287 . S
C1015 C1014 1.287 . S
C1015 C1016 1.524 . S
C1015 H1018 0.999 . S
C1016 H986 0.950 . S
C1016 C1015 1.524 . S
C1016 C1017 1.415 . S
C1017 H987 0.950 . S
C1017 C1012 1.363 . S
C1017 C1016 1.415 . S
H1018 C1015 0.999 . S
H1019 C1000 0.913 . S
H1020 C1038 0.951 . S
H1021 C1040 0.951 . S
H1022 C1042 0.950 . S
H1023 C1043 0.950 . S
H1024 C1045 0.950 . S
H1025 C1048 0.950 . S
H1026 C1049 0.950 . S
H1027 C1051 0.950 . S
H1028 C1052 0.950 . S
H1029 C1053 0.951 . S
H1030 C1055 0.951 . S
H1031 C1057 0.950 . S
H1032 C1058 0.950 . S
H1033 C1060 0.950 . S
H1034 C1063 0.950 . S
H1035 C1064 0.950 . S
H1036 C1066 0.955 . S
H1037 C1067 0.950 . S
C1038 H1020 0.951 . S
C1038 C1039 1.366 . S
C1038 C1040 1.388 . S
C1039 C1038 1.366 . S
C1039 C1043 1.385 . S
C1040 H1021 0.951 . S
C1040 C1038 1.388 . S
C1040 C1041 1.366 . S
C1041 C1040 1.366 . S
C1041 C1042 1.414 . S
C1041 C1044 1.499 . S
C1042 H1022 0.950 . S
C1042 C1041 1.414 . S
C1042 C1043 1.374 . S
C1043 H1023 0.950 . S
C1043 C1039 1.385 . S
C1043 C1042 1.374 . S
C1044 C1041 1.499 . S
C1044 C1045 1.373 . S
C1044 C1046 1.389 . S
C1045 H1024 0.950 . S
C1045 C1044 1.373 . S
C1045 C1061 1.377 . S
C1046 C1044 1.389 . S
C1046 C1047 1.524 . S
C1046 C1060 1.377 . S
C1047 C1046 1.524 . S
C1047 C1048 1.397 . S
C1047 C1052 1.363 . S
C1048 H1025 0.950 . S
C1048 C1047 1.397 . S
C1048 C1049 1.334 . S
C1049 H1026 0.950 . S
C1049 C1048 1.334 . S
C1049 C1050 1.287 . S
C1050 C1049 1.287 . S
C1050 C1051 1.524 . S
C1050 H1069 0.913 . S
C1051 H1027 0.950 . S
C1051 C1050 1.524 . S
C1051 C1052 1.415 . S
C1052 H1028 0.950 . S
C1052 C1047 1.363 . S
C1052 C1051 1.415 . S
C1053 H1029 0.951 . S
C1053 C1054 1.366 . S
C1053 C1055 1.388 . S
C1054 C1053 1.366 . S
C1054 C1058 1.385 . S
C1055 H1030 0.951 . S
C1055 C1053 1.388 . S
C1055 C1056 1.366 . S
C1056 C1055 1.366 . S
C1056 C1057 1.414 . S
C1056 C1059 1.499 . S
C1057 H1031 0.950 . S
C1057 C1056 1.414 . S
C1057 C1058 1.374 . S
C1058 H1032 0.950 . S
C1058 C1054 1.385 . S
C1058 C1057 1.374 . S
C1059 C1056 1.499 . S
C1059 C1060 1.373 . S
C1059 C1061 1.389 . S
C1060 H1033 0.950 . S
C1060 C1046 1.377 . S
C1060 C1059 1.373 . S
C1061 C1045 1.377 . S
C1061 C1059 1.389 . S
C1061 C1062 1.524 . S
C1062 C1061 1.524 . S
C1062 C1063 1.397 . S
C1062 C1067 1.363 . S
C1063 H1034 0.950 . S
C1063 C1062 1.397 . S
C1063 C1064 1.334 . S
C1064 H1035 0.950 . S
C1064 C1063 1.334 . S
C1064 C1065 1.287 . S
C1065 C1064 1.287 . S
C1065 C1066 1.524 . S
C1065 H1068 0.999 . S
C1066 H1036 0.955 . S
C1066 C1065 1.524 . S
C1066 C1067 1.415 . S
C1067 H1037 0.950 . S
C1067 C1062 1.363 . S
C1067 C1066 1.415 . S
H1068 C1065 0.999 . S
H1069 C1050 0.913 . S
H1070 C1088 0.951 . S
H1071 C1090 0.951 . S
H1072 C1092 0.950 . S
H1073 C1093 0.950 . S
H1074 C1095 0.950 . S
H1075 C1098 0.950 . S
H1076 C1099 0.950 . S
H1077 C1101 0.950 . S
H1078 C1102 0.950 . S
H1079 C1103 0.951 . S
H1080 C1105 0.951 . S
H1081 C1107 0.950 . S
H1082 C1108 0.950 . S
H1083 C1110 0.950 . S
H1084 C1113 0.950 . S
H1085 C1114 0.950 . S
H1086 C1116 0.950 . S
H1087 C1117 0.950 . S
C1088 H1070 0.951 . S
C1088 C1089 1.366 . S
C1088 C1090 1.388 . S
C1089 C1088 1.366 . S
C1089 C1093 1.385 . S
C1090 H1071 0.951 . S
C1090 C1088 1.388 . S
C1090 C1091 1.366 . S
C1091 C1090 1.366 . S
C1091 C1092 1.414 . S
C1091 C1094 1.499 . S
C1092 H1072 0.950 . S
C1092 C1091 1.414 . S
C1092 C1093 1.374 . S
C1093 H1073 0.950 . S
C1093 C1089 1.385 . S
C1093 C1092 1.374 . S
C1094 C1091 1.499 . S
C1094 C1095 1.373 . S
C1094 C1096 1.389 . S
C1095 H1074 0.950 . S
C1095 C1094 1.373 . S
C1095 C1111 1.377 . S
C1096 C1094 1.389 . S
C1096 C1097 1.524 . S
C1096 C1110 1.377 . S
C1097 C1096 1.524 . S
C1097 C1098 1.397 . S
C1097 C1102 1.363 . S
C1098 H1075 0.950 . S
C1098 C1097 1.397 . S
C1098 C1099 1.334 . S
C1099 H1076 0.950 . S
C1099 C1098 1.334 . S
C1099 C1100 1.287 . S
C1100 C1099 1.287 . S
C1100 C1101 1.524 . S
C1100 H1119 0.913 . S
C1101 H1077 0.950 . S
C1101 C1100 1.524 . S
C1101 C1102 1.415 . S
C1102 H1078 0.950 . S
C1102 C1097 1.363 . S
C1102 C1101 1.415 . S
C1103 H1079 0.951 . S
C1103 C1104 1.366 . S
C1103 C1105 1.388 . S
C1104 C1103 1.366 . S
C1104 C1108 1.385 . S
C1105 H1080 0.951 . S
C1105 C1103 1.388 . S
C1105 C1106 1.366 . S
C1106 C1105 1.366 . S
C1106 C1107 1.414 . S
C1106 C1109 1.499 . S
C1107 H1081 0.950 . S
C1107 C1106 1.414 . S
C1107 C1108 1.374 . S
C1108 H1082 0.950 . S
C1108 C1104 1.385 . S
C1108 C1107 1.374 . S
C1109 C1106 1.499 . S
C1109 C1110 1.373 . S
C1109 C1111 1.389 . S
C1110 H1083 0.950 . S
C1110 C1096 1.377 . S
C1110 C1109 1.373 . S
C1111 C1095 1.377 . S
C1111 C1109 1.389 . S
C1111 C1112 1.524 . S
C1112 C1111 1.524 . S
C1112 C1113 1.397 . S
C1112 C1117 1.363 . S
C1113 H1084 0.950 . S
C1113 C1112 1.397 . S
C1113 C1114 1.334 . S
C1114 H1085 0.950 . S
C1114 C1113 1.334 . S
C1114 C1115 1.287 . S
C1115 C1114 1.287 . S
C1115 C1116 1.524 . S
C1115 H1118 0.999 1_455 S
C1116 H1086 0.950 . S
C1116 C1115 1.524 . S
C1116 C1117 1.415 . S
C1117 H1087 0.950 . S
C1117 C1112 1.363 . S
C1117 C1116 1.415 . S
H1118 C1115 0.999 1_655 S
H1119 C1100 0.913 . S
H1120 C1138 0.951 . S
H1121 C1140 0.951 . S
H1122 C1142 0.950 . S
H1123 C1143 0.950 . S
H1124 C1145 0.950 . S
H1125 C1148 0.950 . S
H1126 C1149 0.950 . S
H1127 C1151 0.950 . S
H1128 C1152 0.950 . S
H1129 C1153 0.951 . S
H1130 C1155 0.951 . S
H1131 C1157 0.950 . S
H1132 C1158 0.950 . S
H1133 C1160 0.950 . S
H1134 C1163 0.950 . S
H1135 C1164 0.950 . S
H1136 C1166 0.950 . S
H1137 C1167 0.950 . S
C1138 H1120 0.951 . S
C1138 C1139 1.366 . S
C1138 C1140 1.388 . S
C1139 C1138 1.366 . S
C1139 C1143 1.385 . S
C1140 H1121 0.951 . S
C1140 C1138 1.388 . S
C1140 C1141 1.366 . S
C1141 C1140 1.366 . S
C1141 C1142 1.414 . S
C1141 C1144 1.499 . S
C1142 H1122 0.950 . S
C1142 C1141 1.414 . S
C1142 C1143 1.374 . S
C1143 H1123 0.950 . S
C1143 C1139 1.385 . S
C1143 C1142 1.374 . S
C1144 C1141 1.499 . S
C1144 C1145 1.373 . S
C1144 C1146 1.389 . S
C1145 H1124 0.950 . S
C1145 C1144 1.373 . S
C1145 C1161 1.377 . S
C1146 C1144 1.389 . S
C1146 C1147 1.524 . S
C1146 C1160 1.377 . S
C1147 C1146 1.524 . S
C1147 C1148 1.397 . S
C1147 C1152 1.363 . S
C1148 H1125 0.950 . S
C1148 C1147 1.397 . S
C1148 C1149 1.334 . S
C1149 H1126 0.950 . S
C1149 C1148 1.334 . S
C1149 C1150 1.287 . S
C1150 C1149 1.287 . S
C1150 C1151 1.524 . S
C1150 H1169 0.913 . S
C1151 H1127 0.950 . S
C1151 C1150 1.524 . S
C1151 C1152 1.415 . S
C1152 H1128 0.950 . S
C1152 C1147 1.363 . S
C1152 C1151 1.415 . S
C1153 H1129 0.951 . S
C1153 C1154 1.366 . S
C1153 C1155 1.388 . S
C1154 C1153 1.366 . S
C1154 C1158 1.385 . S
C1155 H1130 0.951 . S
C1155 C1153 1.388 . S
C1155 C1156 1.366 . S
C1156 C1155 1.366 . S
C1156 C1157 1.414 . S
C1156 C1159 1.499 . S
C1157 H1131 0.950 . S
C1157 C1156 1.414 . S
C1157 C1158 1.374 . S
C1158 H1132 0.950 . S
C1158 C1154 1.385 . S
C1158 C1157 1.374 . S
C1159 C1156 1.499 . S
C1159 C1160 1.373 . S
C1159 C1161 1.389 . S
C1160 H1133 0.950 . S
C1160 C1146 1.377 . S
C1160 C1159 1.373 . S
C1161 C1145 1.377 . S
C1161 C1159 1.389 . S
C1161 C1162 1.524 . S
C1162 C1161 1.524 . S
C1162 C1163 1.397 . S
C1162 C1167 1.363 . S
C1163 H1134 0.950 . S
C1163 C1162 1.397 . S
C1163 C1164 1.334 . S
C1164 H1135 0.950 . S
C1164 C1163 1.334 . S
C1164 C1165 1.287 . S
C1165 C1164 1.287 . S
C1165 C1166 1.524 . S
C1165 H1168 0.999 . S
C1166 H1136 0.950 . S
C1166 C1165 1.524 . S
C1166 C1167 1.415 . S
C1167 H1137 0.950 . S
C1167 C1162 1.363 . S
C1167 C1166 1.415 . S
H1168 C1165 0.999 . S
H1169 C1150 0.913 . S
H1170 C1188 0.951 . S
H1171 C1190 0.951 . S
H1172 C1192 0.950 . S
H1173 C1193 0.950 . S
H1174 C1195 0.950 . S
H1175 C1198 0.950 . S
H1176 C1199 0.950 . S
H1177 C1201 0.950 . S
H1178 C1202 0.950 . S
H1179 C1203 0.951 . S
H1180 C1205 0.951 . S
H1181 C1207 0.950 . S
H1182 C1208 0.950 . S
H1183 C1210 0.950 . S
H1184 C1213 0.950 . S
H1185 C1214 0.950 . S
H1186 C1216 0.950 . S
H1187 C1217 0.950 . S
C1188 H1170 0.951 . S
C1188 C1189 1.366 . S
C1188 C1190 1.388 . S
C1189 C1188 1.366 . S
C1189 C1193 1.385 . S
C1190 H1171 0.951 . S
C1190 C1188 1.388 . S
C1190 C1191 1.366 . S
C1191 C1190 1.366 . S
C1191 C1192 1.414 . S
C1191 C1194 1.499 . S
C1192 H1172 0.950 . S
C1192 C1191 1.414 . S
C1192 C1193 1.374 . S
C1193 H1173 0.950 . S
C1193 C1189 1.385 . S
C1193 C1192 1.374 . S
C1194 C1191 1.499 . S
C1194 C1195 1.373 . S
C1194 C1196 1.389 . S
C1195 H1174 0.950 . S
C1195 C1194 1.373 . S
C1195 C1211 1.377 . S
C1196 C1194 1.389 . S
C1196 C1197 1.524 . S
C1196 C1210 1.377 . S
C1197 C1196 1.524 . S
C1197 C1198 1.397 . S
C1197 C1202 1.363 . S
C1198 H1175 0.950 . S
C1198 C1197 1.397 . S
C1198 C1199 1.334 . S
C1199 H1176 0.950 . S
C1199 C1198 1.334 . S
C1199 C1200 1.287 . S
C1200 C1199 1.287 . S
C1200 C1201 1.524 . S
C1200 H1219 0.913 . S
C1201 H1177 0.950 . S
C1201 C1200 1.524 . S
C1201 C1202 1.415 . S
C1202 H1178 0.950 . S
C1202 C1197 1.363 . S
C1202 C1201 1.415 . S
C1203 H1179 0.951 . S
C1203 C1204 1.366 . S
C1203 C1205 1.388 . S
C1204 C1203 1.366 . S
C1204 C1208 1.385 . S
C1205 H1180 0.951 . S
C1205 C1203 1.388 . S
C1205 C1206 1.366 . S
C1206 C1205 1.366 . S
C1206 C1207 1.414 . S
C1206 C1209 1.499 . S
C1207 H1181 0.950 . S
C1207 C1206 1.414 . S
C1207 C1208 1.374 . S
C1208 H1182 0.950 . S
C1208 C1204 1.385 . S
C1208 C1207 1.374 . S
C1209 C1206 1.499 . S
C1209 C1210 1.373 . S
C1209 C1211 1.389 . S
C1210 H1183 0.950 . S
C1210 C1196 1.377 . S
C1210 C1209 1.373 . S
C1211 C1195 1.377 . S
C1211 C1209 1.389 . S
C1211 C1212 1.524 . S
C1212 C1211 1.524 . S
C1212 C1213 1.397 . S
C1212 C1217 1.363 . S
C1213 H1184 0.950 . S
C1213 C1212 1.397 . S
C1213 C1214 1.334 . S
C1214 H1185 0.950 . S
C1214 C1213 1.334 . S
C1214 C1215 1.287 . S
C1215 C1214 1.287 . S
C1215 C1216 1.524 . S
C1215 H1218 1.022 . S
C1216 H1186 0.950 . S
C1216 C1215 1.524 . S
C1216 C1217 1.415 . S
C1217 H1187 0.950 . S
C1217 C1212 1.363 . S
C1217 C1216 1.415 . S
H1218 C1215 1.022 . S
H1219 C1200 0.913 . S
H1220 C1238 0.951 . S
H1221 C1240 0.951 . S
H1222 C1242 0.950 . S
H1223 C1243 0.950 . S
H1224 C1245 0.950 . S
H1225 C1248 0.950 . S
H1226 C1249 0.950 . S
H1227 C1251 0.950 . S
H1228 C1252 0.950 . S
H1229 C1253 0.951 . S
H1230 C1255 0.951 . S
H1231 C1257 0.950 . S
H1232 C1258 0.950 . S
H1233 C1260 0.950 . S
H1234 C1263 0.950 . S
H1235 C1264 0.950 . S
H1236 C1266 0.950 . S
H1237 C1267 0.950 . S
C1238 H1220 0.951 . S
C1238 C1239 1.366 . S
C1238 C1240 1.388 . S
C1239 C1238 1.366 . S
C1239 C1243 1.385 . S
C1240 H1221 0.951 . S
C1240 C1238 1.388 . S
C1240 C1241 1.366 . S
C1241 C1240 1.366 . S
C1241 C1242 1.414 . S
C1241 C1244 1.499 . S
C1242 H1222 0.950 . S
C1242 C1241 1.414 . S
C1242 C1243 1.374 . S
C1243 H1223 0.950 . S
C1243 C1239 1.385 . S
C1243 C1242 1.374 . S
C1244 C1241 1.499 . S
C1244 C1245 1.373 . S
C1244 C1246 1.389 . S
C1245 H1224 0.950 . S
C1245 C1244 1.373 . S
C1245 C1261 1.377 . S
C1246 C1244 1.389 . S
C1246 C1247 1.524 . S
C1246 C1260 1.377 . S
C1247 C1246 1.524 . S
C1247 C1248 1.397 . S
C1247 C1252 1.363 . S
C1248 H1225 0.950 . S
C1248 C1247 1.397 . S
C1248 C1249 1.334 . S
C1249 H1226 0.950 . S
C1249 C1248 1.334 . S
C1249 C1250 1.287 . S
C1250 C1249 1.287 . S
C1250 C1251 1.524 . S
C1250 H1269 0.913 . S
C1251 H1227 0.950 . S
C1251 C1250 1.524 . S
C1251 C1252 1.415 . S
C1252 H1228 0.950 . S
C1252 C1247 1.363 . S
C1252 C1251 1.415 . S
C1253 H1229 0.951 . S
C1253 C1254 1.366 . S
C1253 C1255 1.388 . S
C1254 C1253 1.366 . S
C1254 C1258 1.385 . S
C1255 H1230 0.951 . S
C1255 C1253 1.388 . S
C1255 C1256 1.366 . S
C1256 C1255 1.366 . S
C1256 C1257 1.414 . S
C1256 C1259 1.499 . S
C1257 H1231 0.950 . S
C1257 C1256 1.414 . S
C1257 C1258 1.374 . S
C1258 H1232 0.950 . S
C1258 C1254 1.385 . S
C1258 C1257 1.374 . S
C1259 C1256 1.499 . S
C1259 C1260 1.373 . S
C1259 C1261 1.389 . S
C1260 H1233 0.950 . S
C1260 C1246 1.377 . S
C1260 C1259 1.373 . S
C1261 C1245 1.377 . S
C1261 C1259 1.389 . S
C1261 C1262 1.524 . S
C1262 C1261 1.524 . S
C1262 C1263 1.397 . S
C1262 C1267 1.363 . S
C1263 H1234 0.950 . S
C1263 C1262 1.397 . S
C1263 C1264 1.334 . S
C1264 H1235 0.950 . S
C1264 C1263 1.334 . S
C1264 C1265 1.287 . S
C1265 C1264 1.287 . S
C1265 C1266 1.524 . S
C1265 H1268 0.999 . S
C1266 H1236 0.950 . S
C1266 C1265 1.524 . S
C1266 C1267 1.415 . S
C1267 H1237 0.950 . S
C1267 C1262 1.363 . S
C1267 C1266 1.415 . S
H1268 C1265 0.999 . S
H1269 C1250 0.913 . S
H1270 C1288 0.951 . S
H1271 C1290 0.951 . S
H1272 C1292 0.950 . S
H1273 C1293 0.950 . S
H1274 C1295 0.950 . S
H1275 C1298 0.950 . S
H1276 C1299 0.950 . S
H1277 C1301 0.950 . S
H1278 C1302 0.950 . S
H1279 C1303 0.951 . S
H1280 C1305 0.951 . S
H1281 C1307 0.950 . S
H1282 C1308 0.950 . S
H1283 C1310 0.950 . S
H1284 C1313 0.950 . S
H1285 C1314 0.950 . S
H1286 C1316 0.950 . S
H1287 C1317 0.950 . S
C1288 H1270 0.951 . S
C1288 C1289 1.366 . S
C1288 C1290 1.388 . S
C1289 C1288 1.366 . S
C1289 C1293 1.385 . S
C1290 H1271 0.951 . S
C1290 C1288 1.388 . S
C1290 C1291 1.366 . S
C1291 C1290 1.366 . S
C1291 C1292 1.414 . S
C1291 C1294 1.499 . S
C1292 H1272 0.950 . S
C1292 C1291 1.414 . S
C1292 C1293 1.374 . S
C1293 H1273 0.950 . S
C1293 C1289 1.385 . S
C1293 C1292 1.374 . S
C1294 C1291 1.499 . S
C1294 C1295 1.373 . S
C1294 C1296 1.389 . S
C1295 H1274 0.950 . S
C1295 C1294 1.373 . S
C1295 C1311 1.377 . S
C1296 C1294 1.389 . S
C1296 C1297 1.524 . S
C1296 C1310 1.377 . S
C1297 C1296 1.524 . S
C1297 C1298 1.397 . S
C1297 C1302 1.363 . S
C1298 H1275 0.950 . S
C1298 C1297 1.397 . S
C1298 C1299 1.334 . S
C1299 H1276 0.950 . S
C1299 C1298 1.334 . S
C1299 C1300 1.287 . S
C1300 C1299 1.287 . S
C1300 C1301 1.524 . S
C1300 H1319 0.913 . S
C1301 H1277 0.950 . S
C1301 C1300 1.524 . S
C1301 C1302 1.415 . S
C1302 H1278 0.950 . S
C1302 C1297 1.363 . S
C1302 C1301 1.415 . S
C1303 H1279 0.951 . S
C1303 C1304 1.366 . S
C1303 C1305 1.388 . S
C1304 C1303 1.366 . S
C1304 C1308 1.385 . S
C1305 H1280 0.951 . S
C1305 C1303 1.388 . S
C1305 C1306 1.366 . S
C1306 C1305 1.366 . S
C1306 C1307 1.414 . S
C1306 C1309 1.499 . S
C1307 H1281 0.950 . S
C1307 C1306 1.414 . S
C1307 C1308 1.374 . S
C1308 H1282 0.950 . S
C1308 C1304 1.385 . S
C1308 C1307 1.374 . S
C1309 C1306 1.499 . S
C1309 C1310 1.373 . S
C1309 C1311 1.389 . S
C1310 H1283 0.950 . S
C1310 C1296 1.377 . S
C1310 C1309 1.373 . S
C1311 C1295 1.377 . S
C1311 C1309 1.389 . S
C1311 C1312 1.524 . S
C1312 C1311 1.524 . S
C1312 C1313 1.397 . S
C1312 C1317 1.363 . S
C1313 H1284 0.950 . S
C1313 C1312 1.397 . S
C1313 C1314 1.334 . S
C1314 H1285 0.950 . S
C1314 C1313 1.334 . S
C1314 C1315 1.287 . S
C1315 C1314 1.287 . S
C1315 C1316 1.524 . S
C1315 H1318 0.999 . S
C1316 H1286 0.950 . S
C1316 C1315 1.524 . S
C1316 C1317 1.415 . S
C1317 H1287 0.950 . S
C1317 C1312 1.363 . S
C1317 C1316 1.415 . S
H1318 C1315 0.999 . S
H1319 C1300 0.913 . S
H1320 C1338 0.951 . S
H1321 C1340 0.951 . S
H1322 C1342 0.950 . S
H1323 C1343 0.950 . S
H1324 C1345 0.950 . S
H1325 C1348 0.950 . S
H1326 C1349 0.950 . S
H1327 C1351 0.950 . S
H1328 C1352 0.950 . S
H1329 C1353 0.951 . S
H1330 C1355 0.951 . S
H1331 C1357 0.950 . S
H1332 C1358 0.950 . S
H1333 C1360 0.950 . S
H1334 C1363 0.950 . S
H1335 C1364 0.950 . S
H1336 C1366 0.950 . S
H1337 C1367 0.950 . S
C1338 H1320 0.951 . S
C1338 C1339 1.366 . S
C1338 C1340 1.388 . S
C1339 C1338 1.366 . S
C1339 C1343 1.385 . S
C1340 H1321 0.951 . S
C1340 C1338 1.388 . S
C1340 C1341 1.366 . S
C1341 C1340 1.366 . S
C1341 C1342 1.414 . S
C1341 C1344 1.499 . S
C1342 H1322 0.950 . S
C1342 C1341 1.414 . S
C1342 C1343 1.374 . S
C1343 H1323 0.950 . S
C1343 C1339 1.385 . S
C1343 C1342 1.374 . S
C1344 C1341 1.499 . S
C1344 C1345 1.373 . S
C1344 C1346 1.389 . S
C1345 H1324 0.950 . S
C1345 C1344 1.373 . S
C1345 C1361 1.377 . S
C1346 C1344 1.389 . S
C1346 C1347 1.524 . S
C1346 C1360 1.377 . S
C1347 C1346 1.524 . S
C1347 C1348 1.397 . S
C1347 C1352 1.363 . S
C1348 H1325 0.950 . S
C1348 C1347 1.397 . S
C1348 C1349 1.334 . S
C1349 H1326 0.950 . S
C1349 C1348 1.334 . S
C1349 C1350 1.287 . S
C1350 C1349 1.287 . S
C1350 C1351 1.524 . S
C1350 H1369 0.913 . S
C1351 H1327 0.950 . S
C1351 C1350 1.524 . S
C1351 C1352 1.415 . S
C1352 H1328 0.950 . S
C1352 C1347 1.363 . S
C1352 C1351 1.415 . S
C1353 H1329 0.951 . S
C1353 C1354 1.366 . S
C1353 C1355 1.388 . S
C1354 C1353 1.366 . S
C1354 C1358 1.385 . S
C1355 H1330 0.951 . S
C1355 C1353 1.388 . S
C1355 C1356 1.366 . S
C1356 C1355 1.366 . S
C1356 C1357 1.414 . S
C1356 C1359 1.499 . S
C1357 H1331 0.950 . S
C1357 C1356 1.414 . S
C1357 C1358 1.374 . S
C1358 H1332 0.950 . S
C1358 C1354 1.385 . S
C1358 C1357 1.374 . S
C1359 C1356 1.499 . S
C1359 C1360 1.373 . S
C1359 C1361 1.389 . S
C1360 H1333 0.950 . S
C1360 C1346 1.377 . S
C1360 C1359 1.373 . S
C1361 C1345 1.377 . S
C1361 C1359 1.389 . S
C1361 C1362 1.524 . S
C1362 C1361 1.524 . S
C1362 C1363 1.397 . S
C1362 C1367 1.363 . S
C1363 H1334 0.950 . S
C1363 C1362 1.397 . S
C1363 C1364 1.334 . S
C1364 H1335 0.950 . S
C1364 C1363 1.334 . S
C1364 C1365 1.287 . S
C1365 C1364 1.287 . S
C1365 C1366 1.524 . S
C1365 H1368 0.999 . S
C1366 H1336 0.950 . S
C1366 C1365 1.524 . S
C1366 C1367 1.415 . S
C1367 H1337 0.950 . S
C1367 C1362 1.363 . S
C1367 C1366 1.415 . S
H1368 C1365 0.999 . S
H1369 C1350 0.913 . S
H1370 C1388 0.951 . S
H1371 C1390 0.951 . S
H1372 C1392 0.950 . S
H1373 C1393 0.950 . S
H1374 C1395 0.950 . S
H1375 C1398 0.950 . S
H1376 C1399 0.950 . S
H1377 C1401 0.950 . S
H1378 C1402 0.950 . S
H1379 C1403 0.951 . S
H1380 C1405 0.951 . S
H1381 C1407 0.950 . S
H1382 C1408 0.950 . S
H1383 C1410 0.950 . S
H1384 C1413 0.950 . S
H1385 C1414 0.950 . S
H1386 C1416 0.950 . S
H1387 C1417 0.950 . S
C1388 H1370 0.951 . S
C1388 C1389 1.366 . S
C1388 C1390 1.388 . S
C1389 C1388 1.366 . S
C1389 C1393 1.385 . S
C1390 H1371 0.951 . S
C1390 C1388 1.388 . S
C1390 C1391 1.366 . S
C1391 C1390 1.366 . S
C1391 C1392 1.414 . S
C1391 C1394 1.499 . S
C1392 H1372 0.950 . S
C1392 C1391 1.414 . S
C1392 C1393 1.374 . S
C1393 H1373 0.950 . S
C1393 C1389 1.385 . S
C1393 C1392 1.374 . S
C1394 C1391 1.499 . S
C1394 C1395 1.373 . S
C1394 C1396 1.389 . S
C1395 H1374 0.950 . S
C1395 C1394 1.373 . S
C1395 C1411 1.377 . S
C1396 C1394 1.389 . S
C1396 C1397 1.524 . S
C1396 C1410 1.377 . S
C1397 C1396 1.524 . S
C1397 C1398 1.397 . S
C1397 C1402 1.363 . S
C1398 H1375 0.950 . S
C1398 C1397 1.397 . S
C1398 C1399 1.334 . S
C1399 H1376 0.950 . S
C1399 C1398 1.334 . S
C1399 C1400 1.287 . S
C1400 C1399 1.287 . S
C1400 C1401 1.524 . S
C1400 H1419 0.913 . S
C1401 H1377 0.950 . S
C1401 C1400 1.524 . S
C1401 C1402 1.415 . S
C1402 H1378 0.950 . S
C1402 C1397 1.363 . S
C1402 C1401 1.415 . S
C1403 H1379 0.951 . S
C1403 C1404 1.366 . S
C1403 C1405 1.388 . S
C1404 C1403 1.366 . S
C1404 C1408 1.385 . S
C1405 H1380 0.951 . S
C1405 C1403 1.388 . S
C1405 C1406 1.366 . S
C1406 C1405 1.366 . S
C1406 C1407 1.414 . S
C1406 C1409 1.499 . S
C1407 H1381 0.950 . S
C1407 C1406 1.414 . S
C1407 C1408 1.374 . S
C1408 H1382 0.950 . S
C1408 C1404 1.385 . S
C1408 C1407 1.374 . S
C1409 C1406 1.499 . S
C1409 C1410 1.373 . S
C1409 C1411 1.389 . S
C1410 H1383 0.950 . S
C1410 C1396 1.377 . S
C1410 C1409 1.373 . S
C1411 C1395 1.377 . S
C1411 C1409 1.389 . S
C1411 C1412 1.524 . S
C1412 C1411 1.524 . S
C1412 C1413 1.397 . S
C1412 C1417 1.363 . S
C1413 H1384 0.950 . S
C1413 C1412 1.397 . S
C1413 C1414 1.334 . S
C1414 H1385 0.950 . S
C1414 C1413 1.334 . S
C1414 C1415 1.287 . S
C1415 C1414 1.287 . S
C1415 C1416 1.524 . S
C1415 H1418 0.999 . S
C1416 H1386 0.950 . S
C1416 C1415 1.524 . S
C1416 C1417 1.415 . S
C1417 H1387 0.950 . S
C1417 C1412 1.363 . S
C1417 C1416 1.415 . S
H1418 C1415 0.999 . S
H1419 C1400 0.913 . S
H1420 C1438 0.951 . S
H1421 C1440 0.951 . S
H1422 C1442 0.950 . S
H1423 C1443 0.950 . S
H1424 C1445 0.950 . S
H1425 C1448 0.950 . S
H1426 C1449 0.950 . S
H1427 C1451 0.950 . S
H1428 C1452 0.950 . S
H1429 C1453 0.951 . S
H1430 C1455 0.951 . S
H1431 C1457 0.950 . S
H1432 C1458 0.950 . S
H1433 C1460 0.950 . S
H1434 C1463 0.950 . S
H1435 C1464 0.950 . S
H1436 C1466 0.950 . S
H1437 C1467 0.950 . S
C1438 H1420 0.951 . S
C1438 C1439 1.366 . S
C1438 C1440 1.388 . S
C1439 C1438 1.366 . S
C1439 C1443 1.385 . S
C1440 H1421 0.951 . S
C1440 C1438 1.388 . S
C1440 C1441 1.366 . S
C1441 C1440 1.366 . S
C1441 C1442 1.414 . S
C1441 C1444 1.499 . S
C1442 H1422 0.950 . S
C1442 C1441 1.414 . S
C1442 C1443 1.374 . S
C1443 H1423 0.950 . S
C1443 C1439 1.385 . S
C1443 C1442 1.374 . S
C1444 C1441 1.499 . S
C1444 C1445 1.373 . S
C1444 C1446 1.389 . S
C1445 H1424 0.950 . S
C1445 C1444 1.373 . S
C1445 C1461 1.377 . S
C1446 C1444 1.389 . S
C1446 C1447 1.524 . S
C1446 C1460 1.377 . S
C1447 C1446 1.524 . S
C1447 C1448 1.397 . S
C1447 C1452 1.363 . S
C1448 H1425 0.950 . S
C1448 C1447 1.397 . S
C1448 C1449 1.334 . S
C1449 H1426 0.950 . S
C1449 C1448 1.334 . S
C1449 C1450 1.287 . S
C1450 C1449 1.287 . S
C1450 C1451 1.524 . S
C1450 H1469 0.913 . S
C1451 H1427 0.950 . S
C1451 C1450 1.524 . S
C1451 C1452 1.415 . S
C1452 H1428 0.950 . S
C1452 C1447 1.363 . S
C1452 C1451 1.415 . S
C1453 H1429 0.951 . S
C1453 C1454 1.366 . S
C1453 C1455 1.388 . S
C1454 C1453 1.366 . S
C1454 C1458 1.385 . S
C1455 H1430 0.951 . S
C1455 C1453 1.388 . S
C1455 C1456 1.366 . S
C1456 C1455 1.366 . S
C1456 C1457 1.414 . S
C1456 C1459 1.499 . S
C1457 H1431 0.950 . S
C1457 C1456 1.414 . S
C1457 C1458 1.374 . S
C1458 H1432 0.950 . S
C1458 C1454 1.385 . S
C1458 C1457 1.374 . S
C1459 C1456 1.499 . S
C1459 C1460 1.373 . S
C1459 C1461 1.389 . S
C1460 H1433 0.950 . S
C1460 C1446 1.377 . S
C1460 C1459 1.373 . S
C1461 C1445 1.377 . S
C1461 C1459 1.389 . S
C1461 C1462 1.524 . S
C1462 C1461 1.524 . S
C1462 C1463 1.397 . S
C1462 C1467 1.363 . S
C1463 H1434 0.950 . S
C1463 C1462 1.397 . S
C1463 C1464 1.334 . S
C1464 H1435 0.950 . S
C1464 C1463 1.334 . S
C1464 C1465 1.287 . S
C1465 C1464 1.287 . S
C1465 C1466 1.524 . S
C1465 H1468 0.999 . S
C1466 H1436 0.950 . S
C1466 C1465 1.524 . S
C1466 C1467 1.415 . S
C1467 H1437 0.950 . S
C1467 C1462 1.363 . S
C1467 C1466 1.415 . S
H1468 C1465 0.999 . S
H1469 C1450 0.913 . S
H1470 C1488 0.951 . S
H1471 C1490 0.951 . S
H1472 C1492 0.950 . S
H1473 C1493 0.950 . S
H1474 C1495 0.950 . S
H1475 C1498 0.950 . S
H1476 C1499 0.950 . S
H1477 C1501 0.950 . S
H1478 C1502 0.950 . S
H1479 C1503 0.951 . S
H1480 C1505 0.951 . S
H1481 C1507 0.950 . S
H1482 C1508 0.950 . S
H1483 C1510 0.950 . S
H1484 C1513 0.950 . S
H1485 C1514 0.950 . S
H1486 C1516 0.950 . S
H1487 C1517 0.950 . S
C1488 H1470 0.951 . S
C1488 C1489 1.366 . S
C1488 C1490 1.388 . S
C1489 C1488 1.366 . S
C1489 C1493 1.385 . S
C1490 H1471 0.951 . S
C1490 C1488 1.388 . S
C1490 C1491 1.366 . S
C1491 C1490 1.366 . S
C1491 C1492 1.414 . S
C1491 C1494 1.499 . S
C1492 H1472 0.950 . S
C1492 C1491 1.414 . S
C1492 C1493 1.374 . S
C1493 H1473 0.950 . S
C1493 C1489 1.385 . S
C1493 C1492 1.374 . S
C1494 C1491 1.499 . S
C1494 C1495 1.373 . S
C1494 C1496 1.389 . S
C1495 H1474 0.950 . S
C1495 C1494 1.373 . S
C1495 C1511 1.377 . S
C1496 C1494 1.389 . S
C1496 C1497 1.524 . S
C1496 C1510 1.377 . S
C1497 C1496 1.524 . S
C1497 C1498 1.397 . S
C1497 C1502 1.363 . S
C1498 H1475 0.950 . S
C1498 C1497 1.397 . S
C1498 C1499 1.334 . S
C1499 H1476 0.950 . S
C1499 C1498 1.334 . S
C1499 C1500 1.287 . S
C1500 C1499 1.287 . S
C1500 C1501 1.524 . S
C1500 H1519 0.913 . S
C1501 H1477 0.950 . S
C1501 C1500 1.524 . S
C1501 C1502 1.415 . S
C1502 H1478 0.950 . S
C1502 C1497 1.363 . S
C1502 C1501 1.415 . S
C1503 H1479 0.951 . S
C1503 C1504 1.366 . S
C1503 C1505 1.388 . S
C1504 C1503 1.366 . S
C1504 C1508 1.385 . S
C1505 H1480 0.951 . S
C1505 C1503 1.388 . S
C1505 C1506 1.366 . S
C1506 C1505 1.366 . S
C1506 C1507 1.414 . S
C1506 C1509 1.499 . S
C1507 H1481 0.950 . S
C1507 C1506 1.414 . S
C1507 C1508 1.374 . S
C1508 H1482 0.950 . S
C1508 C1504 1.385 . S
C1508 C1507 1.374 . S
C1509 C1506 1.499 . S
C1509 C1510 1.373 . S
C1509 C1511 1.389 . S
C1510 H1483 0.950 . S
C1510 C1496 1.377 . S
C1510 C1509 1.373 . S
C1511 C1495 1.377 . S
C1511 C1509 1.389 . S
C1511 C1512 1.524 . S
C1512 C1511 1.524 . S
C1512 C1513 1.397 . S
C1512 C1517 1.363 . S
C1513 H1484 0.950 . S
C1513 C1512 1.397 . S
C1513 C1514 1.334 . S
C1514 H1485 0.950 . S
C1514 C1513 1.334 . S
C1514 C1515 1.287 . S
C1515 C1514 1.287 . S
C1515 C1516 1.524 . S
C1515 H1518 0.999 . S
C1516 H1486 0.950 . S
C1516 C1515 1.524 . S
C1516 C1517 1.415 . S
C1517 H1487 0.950 . S
C1517 C1512 1.363 . S
C1517 C1516 1.415 . S
H1518 C1515 0.999 . S
H1519 C1500 0.913 . S
H1520 C1538 0.951 . S
H1521 C1540 0.951 . S
H1522 C1542 0.950 . S
H1523 C1543 0.950 . S
H1524 C1545 0.950 . S
H1525 C1548 0.950 . S
H1526 C1549 0.950 . S
H1527 C1551 0.950 . S
H1528 C1552 0.950 . S
H1529 C1553 0.951 . S
H1530 C1555 0.951 . S
H1531 C1557 0.950 . S
H1532 C1558 0.950 . S
H1533 C1560 0.950 . S
H1534 C1563 0.950 . S
H1535 C1564 0.950 . S
H1536 C1566 0.950 1_554 S
H1537 C1567 0.950 . S
C1538 H1520 0.951 . S
C1538 C1539 1.366 . S
C1538 C1540 1.388 . S
C1539 C1538 1.366 . S
C1539 C1543 1.385 . S
C1540 H1521 0.951 . S
C1540 C1538 1.388 . S
C1540 C1541 1.366 . S
C1541 C1540 1.366 . S
C1541 C1542 1.414 . S
C1541 C1544 1.499 . S
C1542 H1522 0.950 . S
C1542 C1541 1.414 . S
C1542 C1543 1.374 . S
C1543 H1523 0.950 . S
C1543 C1539 1.385 . S
C1543 C1542 1.374 . S
C1544 C1541 1.499 . S
C1544 C1545 1.373 . S
C1544 C1546 1.389 . S
C1545 H1524 0.950 . S
C1545 C1544 1.373 . S
C1545 C1561 1.377 . S
C1546 C1544 1.389 . S
C1546 C1547 1.524 . S
C1546 C1560 1.377 . S
C1547 C1546 1.524 . S
C1547 C1548 1.397 . S
C1547 C1552 1.363 . S
C1548 H1525 0.950 . S
C1548 C1547 1.397 . S
C1548 C1549 1.334 . S
C1549 H1526 0.950 . S
C1549 C1548 1.334 . S
C1549 C1550 1.287 . S
C1550 C1549 1.287 . S
C1550 C1551 1.524 . S
C1550 H1569 0.913 . S
C1551 H1527 0.950 . S
C1551 C1550 1.524 . S
C1551 C1552 1.415 . S
C1552 H1528 0.950 . S
C1552 C1547 1.363 . S
C1552 C1551 1.415 . S
C1553 H1529 0.951 . S
C1553 C1554 1.366 . S
C1553 C1555 1.388 . S
C1554 C1553 1.366 . S
C1554 C1558 1.385 . S
C1555 H1530 0.951 . S
C1555 C1553 1.388 . S
C1555 C1556 1.366 . S
C1556 C1555 1.366 . S
C1556 C1557 1.414 . S
C1556 C1559 1.499 . S
C1557 H1531 0.950 . S
C1557 C1556 1.414 . S
C1557 C1558 1.374 . S
C1558 H1532 0.950 . S
C1558 C1554 1.385 . S
C1558 C1557 1.374 . S
C1559 C1556 1.499 . S
C1559 C1560 1.373 . S
C1559 C1561 1.389 . S
C1560 H1533 0.950 . S
C1560 C1546 1.377 . S
C1560 C1559 1.373 . S
C1561 C1545 1.377 . S
C1561 C1559 1.389 . S
C1561 C1562 1.524 . S
C1562 C1561 1.524 . S
C1562 C1563 1.397 . S
C1562 C1567 1.363 . S
C1563 H1534 0.950 . S
C1563 C1562 1.397 . S
C1563 C1564 1.334 . S
C1564 H1535 0.950 . S
C1564 C1563 1.334 . S
C1564 C1565 1.287 . S
C1565 C1564 1.287 . S
C1565 C1566 1.524 . S
C1565 H1568 0.999 . S
C1566 H1536 0.950 1_556 S
C1566 C1565 1.524 . S
C1566 C1567 1.415 . S
C1567 H1537 0.950 . S
C1567 C1562 1.363 . S
C1567 C1566 1.415 . S
H1568 C1565 0.999 . S
H1569 C1550 0.913 . S
H1570 C1588 0.951 . S
H1571 C1590 0.951 . S
H1572 C1592 0.950 . S
H1573 C1593 0.950 . S
H1574 C1595 0.950 . S
H1575 C1598 0.950 . S
H1576 C1599 0.950 . S
H1577 C1601 0.950 . S
H1578 C1602 0.950 . S
H1579 C1603 0.951 . S
H1580 C1605 0.951 . S
H1581 C1607 0.950 . S
H1582 C1608 0.950 . S
H1583 C1610 0.950 . S
H1584 C1613 0.950 . S
H1585 C1614 0.950 1_554 S
H1586 C1616 0.950 . S
H1587 C1617 0.950 . S
C1588 H1570 0.951 . S
C1588 C1589 1.366 . S
C1588 C1590 1.388 . S
C1589 C1588 1.366 . S
C1589 C1593 1.385 . S
C1590 H1571 0.951 . S
C1590 C1588 1.388 . S
C1590 C1591 1.366 . S
C1591 C1590 1.366 . S
C1591 C1592 1.414 . S
C1591 C1594 1.499 . S
C1592 H1572 0.950 . S
C1592 C1591 1.414 . S
C1592 C1593 1.374 . S
C1593 H1573 0.950 . S
C1593 C1589 1.385 . S
C1593 C1592 1.374 . S
C1594 C1591 1.499 . S
C1594 C1595 1.373 . S
C1594 C1596 1.389 . S
C1595 H1574 0.950 . S
C1595 C1594 1.373 . S
C1595 C1611 1.377 . S
C1596 C1594 1.389 . S
C1596 C1597 1.524 . S
C1596 C1610 1.377 . S
C1597 C1596 1.524 . S
C1597 C1598 1.397 . S
C1597 C1602 1.363 . S
C1598 H1575 0.950 . S
C1598 C1597 1.397 . S
C1598 C1599 1.334 . S
C1599 H1576 0.950 . S
C1599 C1598 1.334 . S
C1599 C1600 1.287 . S
C1600 C1599 1.287 . S
C1600 C1601 1.524 . S
C1600 H1619 0.913 . S
C1601 H1577 0.950 . S
C1601 C1600 1.524 . S
C1601 C1602 1.415 . S
C1602 H1578 0.950 . S
C1602 C1597 1.363 . S
C1602 C1601 1.415 . S
C1603 H1579 0.951 . S
C1603 C1604 1.366 . S
C1603 C1605 1.388 . S
C1604 C1603 1.366 . S
C1604 C1608 1.385 . S
C1605 H1580 0.951 . S
C1605 C1603 1.388 . S
C1605 C1606 1.366 . S
C1606 C1605 1.366 . S
C1606 C1607 1.414 . S
C1606 C1609 1.499 . S
C1607 H1581 0.950 . S
C1607 C1606 1.414 . S
C1607 C1608 1.374 . S
C1608 H1582 0.950 . S
C1608 C1604 1.385 . S
C1608 C1607 1.374 . S
C1609 C1606 1.499 . S
C1609 C1610 1.373 . S
C1609 C1611 1.389 . S
C1610 H1583 0.950 . S
C1610 C1596 1.377 . S
C1610 C1609 1.373 . S
C1611 C1595 1.377 . S
C1611 C1609 1.389 . S
C1611 C1612 1.524 . S
C1612 C1611 1.524 . S
C1612 C1613 1.397 . S
C1612 C1617 1.363 . S
C1613 H1584 0.950 . S
C1613 C1612 1.397 . S
C1613 C1614 1.334 . S
C1614 H1585 0.950 1_556 S
C1614 C1613 1.334 . S
C1614 C1615 1.287 1_556 S
C1615 C1614 1.287 1_554 S
C1615 C1616 1.524 . S
C1615 H1618 0.999 . S
C1616 H1586 0.950 . S
C1616 C1615 1.524 . S
C1616 C1617 1.415 1_554 S
C1617 H1587 0.950 . S
C1617 C1612 1.363 . S
C1617 C1616 1.415 1_556 S
H1618 C1615 0.999 . S
H1619 C1600 0.913 . S
H1620 C1638 0.951 . S
H1621 C1640 0.951 . S
H1622 C1642 0.950 . S
H1623 C1643 0.950 . S
H1624 C1645 0.950 . S
H1625 C1648 0.950 . S
H1626 C1649 0.950 . S
H1627 C1651 0.950 . S
H1628 C1652 0.950 . S
H1629 C1653 0.951 . S
H1630 C1655 0.951 . S
H1631 C1657 0.950 . S
H1632 C1658 0.950 . S
H1633 C1660 0.950 . S
H1634 C1663 0.950 . S
H1635 C1664 0.950 . S
H1636 C1666 0.950 . S
H1637 C1667 0.950 . S
C1638 H1620 0.951 . S
C1638 C1639 1.366 . S
C1638 C1640 1.388 . S
C1639 C1638 1.366 . S
C1639 C1643 1.385 . S
C1640 H1621 0.951 . S
C1640 C1638 1.388 . S
C1640 C1641 1.366 . S
C1641 C1640 1.366 . S
C1641 C1642 1.414 . S
C1641 C1644 1.499 . S
C1642 H1622 0.950 . S
C1642 C1641 1.414 . S
C1642 C1643 1.374 . S
C1643 H1623 0.950 . S
C1643 C1639 1.385 . S
C1643 C1642 1.374 . S
C1644 C1641 1.499 . S
C1644 C1645 1.373 . S
C1644 C1646 1.389 . S
C1645 H1624 0.950 . S
C1645 C1644 1.373 . S
C1645 C1661 1.377 . S
C1646 C1644 1.389 . S
C1646 C1647 1.524 . S
C1646 C1660 1.377 . S
C1647 C1646 1.524 . S
C1647 C1648 1.397 . S
C1647 C1652 1.363 . S
C1648 H1625 0.950 . S
C1648 C1647 1.397 . S
C1648 C1649 1.334 . S
C1649 H1626 0.950 . S
C1649 C1648 1.334 . S
C1649 C1650 1.287 . S
C1650 C1649 1.287 . S
C1650 C1651 1.524 . S
C1650 H1669 0.913 . S
C1651 H1627 0.950 . S
C1651 C1650 1.524 . S
C1651 C1652 1.415 . S
C1652 H1628 0.950 . S
C1652 C1647 1.363 . S
C1652 C1651 1.415 . S
C1653 H1629 0.951 . S
C1653 C1654 1.366 . S
C1653 C1655 1.388 . S
C1654 C1653 1.366 . S
C1654 C1658 1.385 . S
C1655 H1630 0.951 . S
C1655 C1653 1.388 . S
C1655 C1656 1.366 . S
C1656 C1655 1.366 . S
C1656 C1657 1.414 . S
C1656 C1659 1.499 . S
C1657 H1631 0.950 . S
C1657 C1656 1.414 . S
C1657 C1658 1.374 . S
C1658 H1632 0.950 . S
C1658 C1654 1.385 . S
C1658 C1657 1.374 . S
C1659 C1656 1.499 . S
C1659 C1660 1.373 . S
C1659 C1661 1.389 . S
C1660 H1633 0.950 . S
C1660 C1646 1.377 . S
C1660 C1659 1.373 . S
C1661 C1645 1.377 . S
C1661 C1659 1.389 . S
C1661 C1662 1.524 . S
C1662 C1661 1.524 . S
C1662 C1663 1.397 . S
C1662 C1667 1.363 . S
C1663 H1634 0.950 . S
C1663 C1662 1.397 . S
C1663 C1664 1.334 . S
C1664 H1635 0.950 . S
C1664 C1663 1.334 . S
C1664 C1665 1.287 . S
C1665 C1664 1.287 . S
C1665 C1666 1.524 . S
C1665 H1668 0.999 . S
C1666 H1636 0.950 . S
C1666 C1665 1.524 . S
C1666 C1667 1.415 . S
C1667 H1637 0.950 . S
C1667 C1662 1.363 . S
C1667 C1666 1.415 . S
H1668 C1665 0.999 . S
H1669 C1650 0.913 . S
H1670 C1688 0.951 . S
H1671 C1690 0.951 . S
H1672 C1692 0.950 . S
H1673 C1693 0.950 . S
H1674 C1695 0.950 . S
H1675 C1698 0.950 . S
H1676 C1699 0.950 . S
H1677 C1701 0.950 . S
H1678 C1702 0.950 . S
H1679 C1703 0.951 . S
H1680 C1705 0.951 . S
H1681 C1707 0.950 . S
H1682 C1708 0.950 . S
H1683 C1710 0.950 . S
H1684 C1713 0.950 . S
H1685 C1714 0.950 . S
H1686 C1716 0.950 . S
H1687 C1717 0.950 . S
C1688 H1670 0.951 . S
C1688 C1689 1.366 . S
C1688 C1690 1.388 . S
C1689 C1688 1.366 . S
C1689 C1693 1.385 . S
C1690 H1671 0.951 . S
C1690 C1688 1.388 . S
C1690 C1691 1.366 . S
C1691 C1690 1.366 . S
C1691 C1692 1.414 . S
C1691 C1694 1.499 . S
C1692 H1672 0.950 . S
C1692 C1691 1.414 . S
C1692 C1693 1.374 . S
C1693 H1673 0.950 . S
C1693 C1689 1.385 . S
C1693 C1692 1.374 . S
C1694 C1691 1.499 . S
C1694 C1695 1.373 . S
C1694 C1696 1.389 . S
C1695 H1674 0.950 . S
C1695 C1694 1.373 . S
C1695 C1711 1.377 . S
C1696 C1694 1.389 . S
C1696 C1697 1.524 . S
C1696 C1710 1.377 . S
C1697 C1696 1.524 . S
C1697 C1698 1.397 . S
C1697 C1702 1.363 . S
C1698 H1675 0.950 . S
C1698 C1697 1.397 . S
C1698 C1699 1.334 . S
C1699 H1676 0.950 . S
C1699 C1698 1.334 . S
C1699 C1700 1.287 . S
C1700 C1699 1.287 . S
C1700 C1701 1.524 . S
C1700 H1719 0.913 . S
C1701 H1677 0.950 . S
C1701 C1700 1.524 . S
C1701 C1702 1.415 . S
C1702 H1678 0.950 . S
C1702 C1697 1.363 . S
C1702 C1701 1.415 . S
C1703 H1679 0.951 . S
C1703 C1704 1.366 . S
C1703 C1705 1.388 . S
C1704 C1703 1.366 . S
C1704 C1708 1.385 . S
C1705 H1680 0.951 . S
C1705 C1703 1.388 . S
C1705 C1706 1.366 . S
C1706 C1705 1.366 . S
C1706 C1707 1.414 . S
C1706 C1709 1.499 . S
C1707 H1681 0.950 . S
C1707 C1706 1.414 . S
C1707 C1708 1.374 . S
C1708 H1682 0.950 . S
C1708 C1704 1.385 . S
C1708 C1707 1.374 . S
C1709 C1706 1.499 . S
C1709 C1710 1.373 . S
C1709 C1711 1.389 . S
C1710 H1683 0.950 . S
C1710 C1696 1.377 . S
C1710 C1709 1.373 . S
C1711 C1695 1.377 . S
C1711 C1709 1.389 . S
C1711 C1712 1.524 . S
C1712 C1711 1.524 . S
C1712 C1713 1.397 . S
C1712 C1717 1.363 . S
C1713 H1684 0.950 . S
C1713 C1712 1.397 . S
C1713 C1714 1.334 . S
C1714 H1685 0.950 . S
C1714 C1713 1.334 . S
C1714 C1715 1.287 . S
C1715 C1714 1.287 . S
C1715 C1716 1.524 . S
C1715 H1718 0.999 . S
C1716 H1686 0.950 . S
C1716 C1715 1.524 . S
C1716 C1717 1.415 . S
C1717 H1687 0.950 . S
C1717 C1712 1.363 . S
C1717 C1716 1.415 . S
H1718 C1715 0.999 . S
H1719 C1700 0.913 . S
H1720 C1738 0.951 . S
H1721 C1740 0.951 . S
H1722 C1742 0.950 . S
H1723 C1743 0.950 . S
H1724 C1745 0.950 . S
H1725 C1748 0.950 . S
H1726 C1749 0.950 . S
H1727 C1751 0.950 . S
H1728 C1752 0.950 . S
H1729 C1753 0.951 . S
H1730 C1755 0.951 . S
H1731 C1757 0.950 . S
H1732 C1758 0.950 . S
H1733 C1760 0.950 . S
H1734 C1763 0.950 . S
H1735 C1764 0.950 . S
H1736 C1766 0.950 . S
H1737 C1767 0.950 . S
C1738 H1720 0.951 . S
C1738 C1739 1.366 . S
C1738 C1740 1.388 . S
C1739 C1738 1.366 . S
C1739 C1743 1.385 . S
C1740 H1721 0.951 . S
C1740 C1738 1.388 . S
C1740 C1741 1.366 . S
C1741 C1740 1.366 . S
C1741 C1742 1.414 . S
C1741 C1744 1.499 . S
C1742 H1722 0.950 . S
C1742 C1741 1.414 . S
C1742 C1743 1.374 . S
C1743 H1723 0.950 . S
C1743 C1739 1.385 . S
C1743 C1742 1.374 . S
C1744 C1741 1.499 . S
C1744 C1745 1.373 . S
C1744 C1746 1.389 . S
C1745 H1724 0.950 . S
C1745 C1744 1.373 . S
C1745 C1761 1.377 . S
C1746 C1744 1.389 . S
C1746 C1747 1.524 . S
C1746 C1760 1.377 . S
C1747 C1746 1.524 . S
C1747 C1748 1.397 . S
C1747 C1752 1.363 . S
C1748 H1725 0.950 . S
C1748 C1747 1.397 . S
C1748 C1749 1.334 . S
C1749 H1726 0.950 . S
C1749 C1748 1.334 . S
C1749 C1750 1.287 . S
C1750 C1749 1.287 . S
C1750 C1751 1.524 . S
C1750 H1769 0.913 . S
C1751 H1727 0.950 . S
C1751 C1750 1.524 . S
C1751 C1752 1.415 . S
C1752 H1728 0.950 . S
C1752 C1747 1.363 . S
C1752 C1751 1.415 . S
C1753 H1729 0.951 . S
C1753 C1754 1.366 . S
C1753 C1755 1.388 . S
C1754 C1753 1.366 . S
C1754 C1758 1.385 . S
C1755 H1730 0.951 . S
C1755 C1753 1.388 . S
C1755 C1756 1.366 . S
C1756 C1755 1.366 . S
C1756 C1757 1.414 . S
C1756 C1759 1.499 . S
C1757 H1731 0.950 . S
C1757 C1756 1.414 . S
C1757 C1758 1.374 . S
C1758 H1732 0.950 . S
C1758 C1754 1.385 . S
C1758 C1757 1.374 . S
C1759 C1756 1.499 . S
C1759 C1760 1.373 . S
C1759 C1761 1.389 . S
C1760 H1733 0.950 . S
C1760 C1746 1.377 . S
C1760 C1759 1.373 . S
C1761 C1745 1.377 . S
C1761 C1759 1.389 . S
C1761 C1762 1.524 . S
C1762 C1761 1.524 . S
C1762 C1763 1.397 . S
C1762 C1767 1.363 . S
C1763 H1734 0.950 . S
C1763 C1762 1.397 . S
C1763 C1764 1.334 . S
C1764 H1735 0.950 . S
C1764 C1763 1.334 . S
C1764 C1765 1.287 . S
C1765 C1764 1.287 . S
C1765 C1766 1.524 . S
C1765 H1768 0.999 . S
C1766 H1736 0.950 . S
C1766 C1765 1.524 . S
C1766 C1767 1.415 . S
C1767 H1737 0.950 . S
C1767 C1762 1.363 . S
C1767 C1766 1.415 . S
H1768 C1765 0.999 . S
H1769 C1750 0.913 . S
H1770 C1788 0.951 . S
H1771 C1790 0.951 . S
H1772 C1792 0.950 . S
H1773 C1793 0.950 . S
H1774 C1795 0.950 . S
H1775 C1798 0.950 . S
H1776 C1799 0.950 . S
H1777 C1801 0.950 . S
H1778 C1802 0.950 . S
H1779 C1803 0.951 . S
H1780 C1805 0.951 . S
H1781 C1807 0.950 . S
H1782 C1808 0.950 . S
H1783 C1810 0.950 . S
H1784 C1813 0.950 . S
H1785 C1814 0.950 . S
H1786 C1816 0.950 . S
H1787 C1817 0.950 . S
C1788 H1770 0.951 . S
C1788 C1789 1.366 . S
C1788 C1790 1.388 . S
C1789 C1788 1.366 . S
C1789 C1793 1.385 . S
C1790 H1771 0.951 . S
C1790 C1788 1.388 . S
C1790 C1791 1.366 . S
C1791 C1790 1.366 . S
C1791 C1792 1.414 . S
C1791 C1794 1.499 . S
C1792 H1772 0.950 . S
C1792 C1791 1.414 . S
C1792 C1793 1.374 . S
C1793 H1773 0.950 . S
C1793 C1789 1.385 . S
C1793 C1792 1.374 . S
C1794 C1791 1.499 . S
C1794 C1795 1.373 . S
C1794 C1796 1.389 . S
C1795 H1774 0.950 . S
C1795 C1794 1.373 . S
C1795 C1811 1.377 . S
C1796 C1794 1.389 . S
C1796 C1797 1.524 . S
C1796 C1810 1.377 . S
C1797 C1796 1.524 . S
C1797 C1798 1.397 . S
C1797 C1802 1.363 . S
C1798 H1775 0.950 . S
C1798 C1797 1.397 . S
C1798 C1799 1.334 . S
C1799 H1776 0.950 . S
C1799 C1798 1.334 . S
C1799 C1800 1.287 . S
C1800 C1799 1.287 . S
C1800 C1801 1.524 . S
C1800 H1819 0.913 . S
C1801 H1777 0.950 . S
C1801 C1800 1.524 . S
C1801 C1802 1.415 . S
C1802 H1778 0.950 . S
C1802 C1797 1.363 . S
C1802 C1801 1.415 . S
C1803 H1779 0.951 . S
C1803 C1804 1.366 . S
C1803 C1805 1.388 . S
C1804 C1803 1.366 . S
C1804 C1808 1.385 . S
C1805 H1780 0.951 . S
C1805 C1803 1.388 . S
C1805 C1806 1.366 . S
C1806 C1805 1.366 . S
C1806 C1807 1.414 . S
C1806 C1809 1.499 . S
C1807 H1781 0.950 . S
C1807 C1806 1.414 . S
C1807 C1808 1.374 . S
C1808 H1782 0.950 . S
C1808 C1804 1.385 . S
C1808 C1807 1.374 . S
C1809 C1806 1.499 . S
C1809 C1810 1.373 . S
C1809 C1811 1.389 . S
C1810 H1783 0.950 . S
C1810 C1796 1.377 . S
C1810 C1809 1.373 . S
C1811 C1795 1.377 . S
C1811 C1809 1.389 . S
C1811 C1812 1.524 . S
C1812 C1811 1.524 . S
C1812 C1813 1.397 . S
C1812 C1817 1.363 . S
C1813 H1784 0.950 . S
C1813 C1812 1.397 . S
C1813 C1814 1.334 . S
C1814 H1785 0.950 . S
C1814 C1813 1.334 . S
C1814 C1815 1.287 . S
C1815 C1814 1.287 . S
C1815 C1816 1.524 . S
C1815 H1818 0.999 . S
C1816 H1786 0.950 . S
C1816 C1815 1.524 . S
C1816 C1817 1.415 . S
C1817 H1787 0.950 . S
C1817 C1812 1.363 . S
C1817 C1816 1.415 . S
H1818 C1815 0.999 . S
H1819 C1800 0.913 . S
H1820 C1838 0.951 . S
H1821 C1840 0.951 . S
H1822 C1842 0.950 . S
H1823 C1843 0.950 . S
H1824 C1845 0.950 . S
H1825 C1848 0.950 . S
H1826 C1849 0.950 . S
H1827 C1851 0.950 . S
H1828 C1852 0.950 . S
H1829 C1853 0.951 . S
H1830 C1855 0.951 . S
H1831 C1857 0.950 . S
H1832 C1858 0.950 . S
H1833 C1860 0.950 . S
H1834 C1863 0.950 . S
H1835 C1864 0.950 . S
H1836 C1866 0.950 . S
H1837 C1867 0.950 . S
C1838 H1820 0.951 . S
C1838 C1839 1.366 . S
C1838 C1840 1.388 . S
C1839 C1838 1.366 . S
C1839 C1843 1.385 . S
C1840 H1821 0.951 . S
C1840 C1838 1.388 . S
C1840 C1841 1.366 . S
C1841 C1840 1.366 . S
C1841 C1842 1.414 . S
C1841 C1844 1.499 . S
C1842 H1822 0.950 . S
C1842 C1841 1.414 . S
C1842 C1843 1.374 . S
C1843 H1823 0.950 . S
C1843 C1839 1.385 . S
C1843 C1842 1.374 . S
C1844 C1841 1.499 . S
C1844 C1845 1.373 . S
C1844 C1846 1.389 . S
C1845 H1824 0.950 . S
C1845 C1844 1.373 . S
C1845 C1861 1.377 . S
C1846 C1844 1.389 . S
C1846 C1847 1.524 . S
C1846 C1860 1.377 . S
C1847 C1846 1.524 . S
C1847 C1848 1.397 . S
C1847 C1852 1.363 . S
C1848 H1825 0.950 . S
C1848 C1847 1.397 . S
C1848 C1849 1.334 . S
C1849 H1826 0.950 . S
C1849 C1848 1.334 . S
C1849 C1850 1.287 . S
C1850 C1849 1.287 . S
C1850 C1851 1.524 . S
C1850 H1869 0.913 . S
C1851 H1827 0.950 . S
C1851 C1850 1.524 . S
C1851 C1852 1.415 . S
C1852 H1828 0.950 . S
C1852 C1847 1.363 . S
C1852 C1851 1.415 . S
C1853 H1829 0.951 . S
C1853 C1854 1.366 . S
C1853 C1855 1.388 . S
C1854 C1853 1.366 . S
C1854 C1858 1.385 . S
C1855 H1830 0.951 . S
C1855 C1853 1.388 . S
C1855 C1856 1.366 . S
C1856 C1855 1.366 . S
C1856 C1857 1.414 . S
C1856 C1859 1.499 . S
C1857 H1831 0.950 . S
C1857 C1856 1.414 . S
C1857 C1858 1.374 . S
C1858 H1832 0.950 . S
C1858 C1854 1.385 . S
C1858 C1857 1.374 . S
C1859 C1856 1.499 . S
C1859 C1860 1.373 . S
C1859 C1861 1.389 . S
C1860 H1833 0.950 . S
C1860 C1846 1.377 . S
C1860 C1859 1.373 . S
C1861 C1845 1.377 . S
C1861 C1859 1.389 . S
C1861 C1862 1.524 . S
C1862 C1861 1.524 . S
C1862 C1863 1.397 . S
C1862 C1867 1.363 . S
C1863 H1834 0.950 . S
C1863 C1862 1.397 . S
C1863 C1864 1.334 1_556 S
C1864 H1835 0.950 . S
C1864 C1863 1.334 1_554 S
C1864 C1865 1.287 1_554 S
C1865 C1864 1.287 1_556 S
C1865 C1866 1.524 . S
C1865 H1868 0.999 1_556 S
C1866 H1836 0.950 . S
C1866 C1865 1.524 . S
C1866 C1867 1.415 . S
C1867 H1837 0.950 . S
C1867 C1862 1.363 . S
C1867 C1866 1.415 . S
H1868 C1865 0.999 1_554 S
H1869 C1850 0.913 . S
H1870 C1888 0.951 . S
H1871 C1890 0.951 . S
H1872 C1892 0.950 . S
H1873 C1893 0.950 . S
H1874 C1895 0.950 . S
H1875 C1898 0.950 . S
H1876 C1899 0.950 . S
H1877 C1901 0.950 . S
H1878 C1902 0.950 . S
H1879 C1903 0.951 . S
H1880 C1905 0.951 . S
H1881 C1907 0.950 . S
H1882 C1908 0.950 . S
H1883 C1910 0.950 . S
H1884 C1913 0.950 . S
H1885 C1914 0.950 . S
H1886 C1916 0.950 1_554 S
H1887 C1917 0.950 . S
C1888 H1870 0.951 . S
C1888 C1889 1.366 . S
C1888 C1890 1.388 . S
C1889 C1888 1.366 . S
C1889 C1893 1.385 . S
C1890 H1871 0.951 . S
C1890 C1888 1.388 . S
C1890 C1891 1.366 . S
C1891 C1890 1.366 . S
C1891 C1892 1.414 . S
C1891 C1894 1.499 . S
C1892 H1872 0.950 . S
C1892 C1891 1.414 . S
C1892 C1893 1.374 . S
C1893 H1873 0.950 . S
C1893 C1889 1.385 . S
C1893 C1892 1.374 . S
C1894 C1891 1.499 . S
C1894 C1895 1.373 . S
C1894 C1896 1.389 . S
C1895 H1874 0.950 . S
C1895 C1894 1.373 . S
C1895 C1911 1.377 . S
C1896 C1894 1.389 . S
C1896 C1897 1.524 . S
C1896 C1910 1.377 . S
C1897 C1896 1.524 . S
C1897 C1898 1.397 . S
C1897 C1902 1.363 . S
C1898 H1875 0.950 . S
C1898 C1897 1.397 . S
C1898 C1899 1.334 . S
C1899 H1876 0.950 . S
C1899 C1898 1.334 . S
C1899 C1900 1.287 . S
C1900 C1899 1.287 . S
C1900 C1901 1.524 . S
C1900 H1919 0.913 . S
C1901 H1877 0.950 . S
C1901 C1900 1.524 . S
C1901 C1902 1.415 . S
C1902 H1878 0.950 . S
C1902 C1897 1.363 . S
C1902 C1901 1.415 . S
C1903 H1879 0.951 . S
C1903 C1904 1.366 . S
C1903 C1905 1.388 . S
C1904 C1903 1.366 . S
C1904 C1908 1.385 . S
C1905 H1880 0.951 . S
C1905 C1903 1.388 . S
C1905 C1906 1.366 . S
C1906 C1905 1.366 . S
C1906 C1907 1.414 . S
C1906 C1909 1.499 . S
C1907 H1881 0.950 . S
C1907 C1906 1.414 . S
C1907 C1908 1.374 . S
C1908 H1882 0.950 . S
C1908 C1904 1.385 . S
C1908 C1907 1.374 . S
C1909 C1906 1.499 . S
C1909 C1910 1.373 . S
C1909 C1911 1.389 . S
C1910 H1883 0.950 . S
C1910 C1896 1.377 . S
C1910 C1909 1.373 . S
C1911 C1895 1.377 . S
C1911 C1909 1.389 . S
C1911 C1912 1.524 . S
C1912 C1911 1.524 . S
C1912 C1913 1.397 . S
C1912 C1917 1.363 . S
C1913 H1884 0.950 . S
C1913 C1912 1.397 . S
C1913 C1914 1.334 1_556 S
C1914 H1885 0.950 . S
C1914 C1913 1.334 1_554 S
C1914 C1915 1.287 . S
C1915 C1914 1.287 . S
C1915 C1916 1.524 1_554 S
C1915 H1918 0.999 . S
C1916 H1886 0.950 1_556 S
C1916 C1915 1.524 1_556 S
C1916 C1917 1.415 . S
C1917 H1887 0.950 . S
C1917 C1912 1.363 . S
C1917 C1916 1.415 . S
H1918 C1915 0.999 . S
H1919 C1900 0.913 . S
H1920 C1938 0.951 . S
H1921 C1940 0.951 . S
H1922 C1942 0.950 . S
H1923 C1943 0.950 . S
H1924 C1945 0.950 . S
H1925 C1948 0.950 . S
H1926 C1949 0.950 . S
H1927 C1951 0.950 . S
H1928 C1952 0.950 . S
H1929 C1953 0.951 . S
H1930 C1955 0.951 . S
H1931 C1957 0.950 . S
H1932 C1958 0.950 . S
H1933 C1960 0.950 . S
H1934 C1963 0.950 . S
H1935 C1964 0.950 . S
H1936 C1966 0.950 . S
H1937 C1967 0.950 . S
C1938 H1920 0.951 . S
C1938 C1939 1.366 . S
C1938 C1940 1.388 . S
C1939 C1938 1.366 . S
C1939 C1943 1.385 . S
C1940 H1921 0.951 . S
C1940 C1938 1.388 . S
C1940 C1941 1.366 . S
C1941 C1940 1.366 . S
C1941 C1942 1.414 . S
C1941 C1944 1.499 . S
C1942 H1922 0.950 . S
C1942 C1941 1.414 . S
C1942 C1943 1.374 . S
C1943 H1923 0.950 . S
C1943 C1939 1.385 . S
C1943 C1942 1.374 . S
C1944 C1941 1.499 . S
C1944 C1945 1.373 . S
C1944 C1946 1.389 . S
C1945 H1924 0.950 . S
C1945 C1944 1.373 . S
C1945 C1961 1.377 . S
C1946 C1944 1.389 . S
C1946 C1947 1.524 . S
C1946 C1960 1.377 . S
C1947 C1946 1.524 . S
C1947 C1948 1.397 . S
C1947 C1952 1.363 . S
C1948 H1925 0.950 . S
C1948 C1947 1.397 . S
C1948 C1949 1.334 . S
C1949 H1926 0.950 . S
C1949 C1948 1.334 . S
C1949 C1950 1.287 . S
C1950 C1949 1.287 . S
C1950 C1951 1.524 . S
C1950 H1969 0.913 . S
C1951 H1927 0.950 . S
C1951 C1950 1.524 . S
C1951 C1952 1.415 . S
C1952 H1928 0.950 . S
C1952 C1947 1.363 . S
C1952 C1951 1.415 . S
C1953 H1929 0.951 . S
C1953 C1954 1.366 . S
C1953 C1955 1.388 . S
C1954 C1953 1.366 . S
C1954 C1958 1.385 . S
C1955 H1930 0.951 . S
C1955 C1953 1.388 . S
C1955 C1956 1.366 . S
C1956 C1955 1.366 . S
C1956 C1957 1.414 . S
C1956 C1959 1.499 . S
C1957 H1931 0.950 . S
C1957 C1956 1.414 . S
C1957 C1958 1.374 . S
C1958 H1932 0.950 . S
C1958 C1954 1.385 . S
C1958 C1957 1.374 . S
C1959 C1956 1.499 . S
C1959 C1960 1.373 . S
C1959 C1961 1.389 . S
C1960 H1933 0.950 . S
C1960 C1946 1.377 . S
C1960 C1959 1.373 . S
C1961 C1945 1.377 . S
C1961 C1959 1.389 . S
C1961 C1962 1.524 . S
C1962 C1961 1.524 . S
C1962 C1963 1.397 . S
C1962 C1967 1.363 . S
C1963 H1934 0.950 . S
C1963 C1962 1.397 . S
C1963 C1964 1.334 1_554 S
C1964 H1935 0.950 . S
C1964 C1963 1.334 1_556 S
C1964 C1965 1.287 . S
C1965 C1964 1.287 . S
C1965 C1966 1.524 . S
C1965 H1968 0.999 . S
C1966 H1936 0.950 . S
C1966 C1965 1.524 . S
C1966 C1967 1.415 1_556 S
C1967 H1937 0.950 . S
C1967 C1962 1.363 . S
C1967 C1966 1.415 1_554 S
H1968 C1965 0.999 . S
H1969 C1950 0.913 . S
H1970 C1988 0.951 . S
H1971 C1990 0.951 . S
H1972 C1992 0.950 . S
H1973 C1993 0.950 . S
H1974 C1995 0.950 . S
H1975 C1998 0.950 . S
H1976 C1999 0.950 . S
H1977 C2001 0.950 . S
H1978 C2002 0.950 . S
H1979 C2003 0.951 . S
H1980 C2005 0.951 . S
H1981 C2007 0.950 . S
H1982 C2008 0.950 . S
H1983 C2010 0.950 . S
H1984 C2013 0.950 . S
H1985 C2014 0.950 . S
H1986 C2016 0.950 . S
H1987 C2017 0.950 . S
C1988 H1970 0.951 . S
C1988 C1989 1.366 . S
C1988 C1990 1.388 . S
C1989 C1988 1.366 . S
C1989 C1993 1.385 . S
C1990 H1971 0.951 . S
C1990 C1988 1.388 . S
C1990 C1991 1.366 . S
C1991 C1990 1.366 . S
C1991 C1992 1.414 . S
C1991 C1994 1.499 . S
C1992 H1972 0.950 . S
C1992 C1991 1.414 . S
C1992 C1993 1.374 . S
C1993 H1973 0.950 . S
C1993 C1989 1.385 . S
C1993 C1992 1.374 . S
C1994 C1991 1.499 . S
C1994 C1995 1.373 . S
C1994 C1996 1.389 . S
C1995 H1974 0.950 . S
C1995 C1994 1.373 . S
C1995 C2011 1.377 . S
C1996 C1994 1.389 . S
C1996 C1997 1.524 . S
C1996 C2010 1.377 . S
C1997 C1996 1.524 . S
C1997 C1998 1.397 . S
C1997 C2002 1.363 . S
C1998 H1975 0.950 . S
C1998 C1997 1.397 . S
C1998 C1999 1.334 . S
C1999 H1976 0.950 . S
C1999 C1998 1.334 . S
C1999 C2000 1.287 . S
C2000 C1999 1.287 . S
C2000 C2001 1.524 . S
C2000 H2019 0.913 . S
C2001 H1977 0.950 . S
C2001 C2000 1.524 . S
C2001 C2002 1.415 . S
C2002 H1978 0.950 . S
C2002 C1997 1.363 . S
C2002 C2001 1.415 . S
C2003 H1979 0.951 . S
C2003 C2004 1.366 . S
C2003 C2005 1.388 . S
C2004 C2003 1.366 . S
C2004 C2008 1.385 . S
C2005 H1980 0.951 . S
C2005 C2003 1.388 . S
C2005 C2006 1.366 . S
C2006 C2005 1.366 . S
C2006 C2007 1.414 . S
C2006 C2009 1.499 . S
C2007 H1981 0.950 . S
C2007 C2006 1.414 . S
C2007 C2008 1.374 . S
C2008 H1982 0.950 . S
C2008 C2004 1.385 . S
C2008 C2007 1.374 . S
C2009 C2006 1.499 . S
C2009 C2010 1.373 . S
C2009 C2011 1.389 . S
C2010 H1983 0.950 . S
C2010 C1996 1.377 . S
C2010 C2009 1.373 . S
C2011 C1995 1.377 . S
C2011 C2009 1.389 . S
C2011 C2012 1.524 . S
C2012 C2011 1.524 . S
C2012 C2013 1.397 . S
C2012 C2017 1.363 . S
C2013 H1984 0.950 . S
C2013 C2012 1.397 . S
C2013 C2014 1.334 . S
C2014 H1985 0.950 . S
C2014 C2013 1.334 . S
C2014 C2015 1.287 . S
C2015 C2014 1.287 . S
C2015 C2016 1.524 . S
C2015 H2018 0.999 . S
C2016 H1986 0.950 . S
C2016 C2015 1.524 . S
C2016 C2017 1.415 . S
C2017 H1987 0.950 . S
C2017 C2012 1.363 . S
C2017 C2016 1.415 . S
H2018 C2015 0.999 . S
H2019 C2000 0.913 . S
H2020 C2038 0.951 . S
H2021 C2040 0.951 . S
H2022 C2042 0.950 . S
H2023 C2043 0.950 . S
H2024 C2045 0.950 . S
H2025 C2048 0.950 . S
H2026 C2049 0.950 . S
H2027 C2051 0.950 . S
H2028 C2052 0.950 . S
H2029 C2053 0.951 . S
H2030 C2055 0.951 . S
H2031 C2057 0.950 . S
H2032 C2058 0.950 . S
H2033 C2060 0.950 . S
H2034 C2063 0.950 . S
H2035 C2064 0.950 1_556 S
H2036 C2066 0.950 1_556 S
H2037 C2067 0.950 . S
C2038 H2020 0.951 . S
C2038 C2039 1.366 . S
C2038 C2040 1.388 . S
C2039 C2038 1.366 . S
C2039 C2043 1.385 . S
C2040 H2021 0.951 . S
C2040 C2038 1.388 . S
C2040 C2041 1.366 . S
C2041 C2040 1.366 . S
C2041 C2042 1.414 . S
C2041 C2044 1.499 . S
C2042 H2022 0.950 . S
C2042 C2041 1.414 . S
C2042 C2043 1.374 . S
C2043 H2023 0.950 . S
C2043 C2039 1.385 . S
C2043 C2042 1.374 . S
C2044 C2041 1.499 . S
C2044 C2045 1.373 . S
C2044 C2046 1.389 . S
C2045 H2024 0.950 . S
C2045 C2044 1.373 . S
C2045 C2061 1.377 . S
C2046 C2044 1.389 . S
C2046 C2047 1.524 . S
C2046 C2060 1.377 . S
C2047 C2046 1.524 . S
C2047 C2048 1.397 . S
C2047 C2052 1.363 . S
C2048 H2025 0.950 . S
C2048 C2047 1.397 . S
C2048 C2049 1.334 . S
C2049 H2026 0.950 . S
C2049 C2048 1.334 . S
C2049 C2050 1.287 . S
C2050 C2049 1.287 . S
C2050 C2051 1.524 . S
C2050 H2069 0.913 . S
C2051 H2027 0.950 . S
C2051 C2050 1.524 . S
C2051 C2052 1.415 . S
C2052 H2028 0.950 . S
C2052 C2047 1.363 . S
C2052 C2051 1.415 . S
C2053 H2029 0.951 . S
C2053 C2054 1.366 . S
C2053 C2055 1.388 . S
C2054 C2053 1.366 . S
C2054 C2058 1.385 . S
C2055 H2030 0.951 . S
C2055 C2053 1.388 . S
C2055 C2056 1.366 . S
C2056 C2055 1.366 . S
C2056 C2057 1.414 . S
C2056 C2059 1.499 . S
C2057 H2031 0.950 . S
C2057 C2056 1.414 . S
C2057 C2058 1.374 . S
C2058 H2032 0.950 . S
C2058 C2054 1.385 . S
C2058 C2057 1.374 . S
C2059 C2056 1.499 . S
C2059 C2060 1.373 . S
C2059 C2061 1.389 . S
C2060 H2033 0.950 . S
C2060 C2046 1.377 . S
C2060 C2059 1.373 . S
C2061 C2045 1.377 . S
C2061 C2059 1.389 . S
C2061 C2062 1.524 . S
C2062 C2061 1.524 . S
C2062 C2063 1.397 . S
C2062 C2067 1.363 . S
C2063 H2034 0.950 . S
C2063 C2062 1.397 . S
C2063 C2064 1.334 . S
C2064 H2035 0.950 1_554 S
C2064 C2063 1.334 . S
C2064 C2065 1.287 1_554 S
C2065 C2064 1.287 1_556 S
C2065 C2066 1.524 1_556 S
C2065 H2068 0.999 . S
C2066 H2036 0.950 1_554 S
C2066 C2065 1.524 1_554 S
C2066 C2067 1.415 . S
C2067 H2037 0.950 . S
C2067 C2062 1.363 . S
C2067 C2066 1.415 . S
H2068 C2065 0.999 . S
H2069 C2050 0.913 . S
H2070 C2088 0.951 . S
H2071 C2090 0.951 . S
H2072 C2092 0.950 . S
H2073 C2093 0.950 . S
H2074 C2095 0.950 . S
H2075 C2098 0.950 . S
H2076 C2099 0.950 . S
H2077 C2101 0.950 . S
H2078 C2102 0.950 . S
H2079 C2103 0.951 . S
H2080 C2105 0.951 . S
H2081 C2107 0.950 . S
H2082 C2108 0.950 . S
H2083 C2110 0.950 . S
H2084 C2113 0.950 . S
H2085 C2114 0.950 . S
H2086 C2116 0.950 . S
H2087 C2117 0.950 . S
C2088 H2070 0.951 . S
C2088 C2089 1.366 . S
C2088 C2090 1.388 . S
C2089 C2088 1.366 . S
C2089 C2093 1.385 . S
C2090 H2071 0.951 . S
C2090 C2088 1.388 . S
C2090 C2091 1.366 . S
C2091 C2090 1.366 . S
C2091 C2092 1.414 . S
C2091 C2094 1.499 . S
C2092 H2072 0.950 . S
C2092 C2091 1.414 . S
C2092 C2093 1.374 . S
C2093 H2073 0.950 . S
C2093 C2089 1.385 . S
C2093 C2092 1.374 . S
C2094 C2091 1.499 . S
C2094 C2095 1.373 . S
C2094 C2096 1.389 . S
C2095 H2074 0.950 . S
C2095 C2094 1.373 . S
C2095 C2111 1.377 . S
C2096 C2094 1.389 . S
C2096 C2097 1.524 . S
C2096 C2110 1.377 . S
C2097 C2096 1.524 . S
C2097 C2098 1.397 . S
C2097 C2102 1.363 . S
C2098 H2075 0.950 . S
C2098 C2097 1.397 . S
C2098 C2099 1.334 . S
C2099 H2076 0.950 . S
C2099 C2098 1.334 . S
C2099 C2100 1.287 . S
C2100 C2099 1.287 . S
C2100 C2101 1.524 . S
C2100 H2119 0.913 . S
C2101 H2077 0.950 . S
C2101 C2100 1.524 . S
C2101 C2102 1.415 . S
C2102 H2078 0.950 . S
C2102 C2097 1.363 . S
C2102 C2101 1.415 . S
C2103 H2079 0.951 . S
C2103 C2104 1.366 . S
C2103 C2105 1.388 . S
C2104 C2103 1.366 . S
C2104 C2108 1.385 . S
C2105 H2080 0.951 . S
C2105 C2103 1.388 . S
C2105 C2106 1.366 . S
C2106 C2105 1.366 . S
C2106 C2107 1.414 . S
C2106 C2109 1.499 . S
C2107 H2081 0.950 . S
C2107 C2106 1.414 . S
C2107 C2108 1.374 . S
C2108 H2082 0.950 . S
C2108 C2104 1.385 . S
C2108 C2107 1.374 . S
C2109 C2106 1.499 . S
C2109 C2110 1.373 . S
C2109 C2111 1.389 . S
C2110 H2083 0.950 . S
C2110 C2096 1.377 . S
C2110 C2109 1.373 . S
C2111 C2095 1.377 . S
C2111 C2109 1.389 . S
C2111 C2112 1.524 . S
C2112 C2111 1.524 . S
C2112 C2113 1.397 . S
C2112 C2117 1.363 . S
C2113 H2084 0.950 . S
C2113 C2112 1.397 . S
C2113 C2114 1.334 . S
C2114 H2085 0.950 . S
C2114 C2113 1.334 . S
C2114 C2115 1.287 . S
C2115 C2114 1.287 . S
C2115 C2116 1.524 . S
C2115 H2118 0.999 . S
C2116 H2086 0.950 . S
C2116 C2115 1.524 . S
C2116 C2117 1.415 . S
C2117 H2087 0.950 . S
C2117 C2112 1.363 . S
C2117 C2116 1.415 . S
H2118 C2115 0.999 . S
H2119 C2100 0.913 . S
H2120 C2138 0.951 . S
H2121 C2140 0.951 . S
H2122 C2142 0.950 . S
H2123 C2143 0.950 . S
H2124 C2145 0.950 . S
H2125 C2148 0.950 . S
H2126 C2149 0.950 . S
H2127 C2151 0.950 1_554 S
H2128 C2152 0.950 . S
H2129 C2153 0.951 . S
H2130 C2155 0.951 . S
H2131 C2157 0.950 . S
H2132 C2158 0.945 1_554 S
H2133 C2160 0.950 . S
H2134 C2163 0.950 . S
H2135 C2164 0.950 . S
H2136 C2166 0.950 . S
H2137 C2167 0.950 . S
C2138 H2120 0.951 . S
C2138 C2139 1.366 . S
C2138 C2140 1.388 . S
C2139 C2138 1.366 . S
C2139 C2143 1.385 . S
C2140 H2121 0.951 . S
C2140 C2138 1.388 . S
C2140 C2141 1.366 . S
C2141 C2140 1.366 . S
C2141 C2142 1.414 . S
C2141 C2144 1.499 . S
C2142 H2122 0.950 . S
C2142 C2141 1.414 . S
C2142 C2143 1.374 . S
C2143 H2123 0.950 . S
C2143 C2139 1.385 . S
C2143 C2142 1.374 . S
C2144 C2141 1.499 . S
C2144 C2145 1.373 . S
C2144 C2146 1.389 . S
C2145 H2124 0.950 . S
C2145 C2144 1.373 . S
C2145 C2161 1.377 . S
C2146 C2144 1.389 . S
C2146 C2147 1.524 . S
C2146 C2160 1.377 . S
C2147 C2146 1.524 . S
C2147 C2148 1.397 . S
C2147 C2152 1.363 . S
C2148 H2125 0.950 . S
C2148 C2147 1.397 . S
C2148 C2149 1.334 . S
C2149 H2126 0.950 . S
C2149 C2148 1.334 . S
C2149 C2150 1.287 . S
C2150 C2149 1.287 . S
C2150 C2151 1.524 . S
C2150 H2169 0.913 . S
C2151 H2127 0.950 1_556 S
C2151 C2150 1.524 . S
C2151 C2152 1.415 . S
C2152 H2128 0.950 . S
C2152 C2147 1.363 . S
C2152 C2151 1.415 . S
C2153 H2129 0.951 . S
C2153 C2154 1.366 . S
C2153 C2155 1.388 . S
C2154 C2153 1.366 . S
C2154 C2158 1.385 . S
C2155 H2130 0.951 . S
C2155 C2153 1.388 . S
C2155 C2156 1.366 . S
C2156 C2155 1.366 . S
C2156 C2157 1.414 . S
C2156 C2159 1.499 . S
C2157 H2131 0.950 . S
C2157 C2156 1.414 . S
C2157 C2158 1.374 . S
C2158 H2132 0.945 1_556 S
C2158 C2154 1.385 . S
C2158 C2157 1.374 . S
C2159 C2156 1.499 . S
C2159 C2160 1.373 . S
C2159 C2161 1.389 . S
C2160 H2133 0.950 . S
C2160 C2146 1.377 . S
C2160 C2159 1.373 . S
C2161 C2145 1.377 . S
C2161 C2159 1.389 . S
C2161 C2162 1.524 . S
C2162 C2161 1.524 . S
C2162 C2163 1.397 . S
C2162 C2167 1.363 . S
C2163 H2134 0.950 . S
C2163 C2162 1.397 . S
C2163 C2164 1.334 . S
C2164 H2135 0.950 . S
C2164 C2163 1.334 . S
C2164 C2165 1.287 . S
C2165 C2164 1.287 . S
C2165 C2166 1.524 . S
C2165 H2168 0.999 . S
C2166 H2136 0.950 . S
C2166 C2165 1.524 . S
C2166 C2167 1.415 . S
C2167 H2137 0.950 . S
C2167 C2162 1.363 . S
C2167 C2166 1.415 . S
H2168 C2165 0.999 . S
H2169 C2150 0.913 . S
H2170 C2188 0.951 . S
H2171 C2190 0.951 . S
H2172 C2192 0.950 . S
H2173 C2193 0.950 . S
H2174 C2195 0.950 . S
H2175 C2198 0.950 . S
H2176 C2199 0.950 . S
H2177 C2201 0.950 . S
H2178 C2202 0.950 . S
H2179 C2203 0.951 . S
H2180 C2205 0.951 . S
H2181 C2207 0.950 . S
H2182 C2208 0.950 . S
H2183 C2210 0.950 . S
H2184 C2213 0.950 . S
H2185 C2214 0.950 . S
H2186 C2216 0.950 . S
H2187 C2217 0.950 . S
C2188 H2170 0.951 . S
C2188 C2189 1.366 . S
C2188 C2190 1.388 . S
C2189 C2188 1.366 . S
C2189 C2193 1.385 . S
C2190 H2171 0.951 . S
C2190 C2188 1.388 . S
C2190 C2191 1.366 . S
C2191 C2190 1.366 . S
C2191 C2192 1.414 . S
C2191 C2194 1.499 . S
C2192 H2172 0.950 . S
C2192 C2191 1.414 . S
C2192 C2193 1.374 . S
C2193 H2173 0.950 . S
C2193 C2189 1.385 . S
C2193 C2192 1.374 . S
C2194 C2191 1.499 . S
C2194 C2195 1.373 . S
C2194 C2196 1.389 . S
C2195 H2174 0.950 . S
C2195 C2194 1.373 . S
C2195 C2211 1.377 . S
C2196 C2194 1.389 . S
C2196 C2197 1.524 . S
C2196 C2210 1.377 . S
C2197 C2196 1.524 . S
C2197 C2198 1.397 . S
C2197 C2202 1.363 . S
C2198 H2175 0.950 . S
C2198 C2197 1.397 . S
C2198 C2199 1.334 . S
C2199 H2176 0.950 . S
C2199 C2198 1.334 . S
C2199 C2200 1.287 . S
C2200 C2199 1.287 . S
C2200 C2201 1.524 . S
C2200 H2219 0.913 . S
C2201 H2177 0.950 . S
C2201 C2200 1.524 . S
C2201 C2202 1.415 . S
C2202 H2178 0.950 . S
C2202 C2197 1.363 . S
C2202 C2201 1.415 . S
C2203 H2179 0.951 . S
C2203 C2204 1.366 . S
C2203 C2205 1.388 . S
C2204 C2203 1.366 . S
C2204 C2208 1.385 . S
C2205 H2180 0.951 . S
C2205 C2203 1.388 . S
C2205 C2206 1.366 . S
C2206 C2205 1.366 . S
C2206 C2207 1.414 . S
C2206 C2209 1.499 . S
C2207 H2181 0.950 . S
C2207 C2206 1.414 . S
C2207 C2208 1.374 . S
C2208 H2182 0.950 . S
C2208 C2204 1.385 . S
C2208 C2207 1.374 . S
C2209 C2206 1.499 . S
C2209 C2210 1.373 . S
C2209 C2211 1.389 . S
C2210 H2183 0.950 . S
C2210 C2196 1.377 . S
C2210 C2209 1.373 . S
C2211 C2195 1.377 . S
C2211 C2209 1.389 . S
C2211 C2212 1.524 . S
C2212 C2211 1.524 . S
C2212 C2213 1.397 . S
C2212 C2217 1.363 . S
C2213 H2184 0.950 . S
C2213 C2212 1.397 . S
C2213 C2214 1.334 . S
C2214 H2185 0.950 . S
C2214 C2213 1.334 . S
C2214 C2215 1.287 . S
C2215 C2214 1.287 . S
C2215 C2216 1.524 . S
C2215 H2218 0.999 . S
C2216 H2186 0.950 . S
C2216 C2215 1.524 . S
C2216 C2217 1.415 . S
C2217 H2187 0.950 . S
C2217 C2212 1.363 . S
C2217 C2216 1.415 . S
H2218 C2215 0.999 . S
H2219 C2200 0.913 . S
H2220 C2238 0.951 . S
H2221 C2240 0.951 . S
H2222 C2242 0.950 . S
H2223 C2243 0.950 . S
H2224 C2245 0.950 . S
H2225 C2248 0.950 . S
H2226 C2249 0.950 . S
H2227 C2251 0.950 . S
H2228 C2252 0.950 . S
H2229 C2253 0.951 . S
H2230 C2255 0.951 . S
H2231 C2257 0.950 . S
H2232 C2258 0.950 . S
H2233 C2260 0.950 . S
H2234 C2263 0.950 . S
H2235 C2264 0.950 . S
H2236 C2266 0.950 . S
H2237 C2267 0.950 . S
C2238 H2220 0.951 . S
C2238 C2239 1.366 . S
C2238 C2240 1.388 . S
C2239 C2238 1.366 . S
C2239 C2243 1.385 . S
C2240 H2221 0.951 . S
C2240 C2238 1.388 . S
C2240 C2241 1.366 . S
C2241 C2240 1.366 . S
C2241 C2242 1.414 . S
C2241 C2244 1.499 . S
C2242 H2222 0.950 . S
C2242 C2241 1.414 . S
C2242 C2243 1.374 . S
C2243 H2223 0.950 . S
C2243 C2239 1.385 . S
C2243 C2242 1.374 . S
C2244 C2241 1.499 . S
C2244 C2245 1.373 . S
C2244 C2246 1.389 . S
C2245 H2224 0.950 . S
C2245 C2244 1.373 . S
C2245 C2261 1.377 . S
C2246 C2244 1.389 . S
C2246 C2247 1.524 . S
C2246 C2260 1.377 . S
C2247 C2246 1.524 . S
C2247 C2248 1.397 . S
C2247 C2252 1.363 . S
C2248 H2225 0.950 . S
C2248 C2247 1.397 . S
C2248 C2249 1.334 . S
C2249 H2226 0.950 . S
C2249 C2248 1.334 . S
C2249 C2250 1.287 . S
C2250 C2249 1.287 . S
C2250 C2251 1.524 . S
C2250 H2269 0.913 . S
C2251 H2227 0.950 . S
C2251 C2250 1.524 . S
C2251 C2252 1.415 . S
C2252 H2228 0.950 . S
C2252 C2247 1.363 . S
C2252 C2251 1.415 . S
C2253 H2229 0.951 . S
C2253 C2254 1.366 . S
C2253 C2255 1.388 . S
C2254 C2253 1.366 . S
C2254 C2258 1.385 . S
C2255 H2230 0.951 . S
C2255 C2253 1.388 . S
C2255 C2256 1.366 . S
C2256 C2255 1.366 . S
C2256 C2257 1.414 . S
C2256 C2259 1.499 . S
C2257 H2231 0.950 . S
C2257 C2256 1.414 . S
C2257 C2258 1.374 . S
C2258 H2232 0.950 . S
C2258 C2254 1.385 . S
C2258 C2257 1.374 . S
C2259 C2256 1.499 . S
C2259 C2260 1.373 . S
C2259 C2261 1.389 . S
C2260 H2233 0.950 . S
C2260 C2246 1.377 . S
C2260 C2259 1.373 . S
C2261 C2245 1.377 . S
C2261 C2259 1.389 . S
C2261 C2262 1.524 . S
C2262 C2261 1.524 . S
C2262 C2263 1.397 . S
C2262 C2267 1.363 . S
C2263 H2234 0.950 . S
C2263 C2262 1.397 . S
C2263 C2264 1.334 1_556 S
C2264 H2235 0.950 . S
C2264 C2263 1.334 1_554 S
C2264 C2265 1.287 . S
C2265 C2264 1.287 . S
C2265 C2266 1.524 1_554 S
C2265 H2268 0.999 . S
C2266 H2236 0.950 . S
C2266 C2265 1.524 1_556 S
C2266 C2267 1.415 . S
C2267 H2237 0.950 . S
C2267 C2262 1.363 . S
C2267 C2266 1.415 . S
H2268 C2265 0.999 . S
H2269 C2250 0.913 . S
H2270 C2288 0.951 . S
H2271 C2290 0.951 . S
H2272 C2292 0.950 . S
H2273 C2293 0.950 . S
H2274 C2295 0.950 . S
H2275 C2298 0.950 . S
H2276 C2299 0.950 . S
H2277 C2301 0.950 . S
H2278 C2302 0.950 . S
H2279 C2303 0.936 1_556 S
H2280 C2305 0.951 . S
H2281 C2307 0.950 . S
H2282 C2308 0.950 . S
H2283 C2310 0.950 . S
H2284 C2313 0.950 . S
H2285 C2314 0.950 . S
H2286 C2316 0.950 . S
H2287 C2317 0.950 . S
C2288 H2270 0.951 . S
C2288 C2289 1.366 . S
C2288 C2290 1.388 . S
C2289 C2288 1.366 . S
C2289 C2293 1.385 . S
C2290 H2271 0.951 . S
C2290 C2288 1.388 . S
C2290 C2291 1.366 . S
C2291 C2290 1.366 . S
C2291 C2292 1.414 . S
C2291 C2294 1.499 . S
C2292 H2272 0.950 . S
C2292 C2291 1.414 . S
C2292 C2293 1.374 . S
C2293 H2273 0.950 . S
C2293 C2289 1.385 . S
C2293 C2292 1.374 . S
C2294 C2291 1.499 . S
C2294 C2295 1.373 . S
C2294 C2296 1.389 . S
C2295 H2274 0.950 . S
C2295 C2294 1.373 . S
C2295 C2311 1.377 . S
C2296 C2294 1.389 . S
C2296 C2297 1.524 . S
C2296 C2310 1.377 . S
C2297 C2296 1.524 . S
C2297 C2298 1.397 . S
C2297 C2302 1.363 . S
C2298 H2275 0.950 . S
C2298 C2297 1.397 . S
C2298 C2299 1.334 . S
C2299 H2276 0.950 . S
C2299 C2298 1.334 . S
C2299 C2300 1.287 . S
C2300 C2299 1.287 . S
C2300 C2301 1.524 . S
C2300 H2319 0.913 . S
C2301 H2277 0.950 . S
C2301 C2300 1.524 . S
C2301 C2302 1.415 . S
C2302 H2278 0.950 . S
C2302 C2297 1.363 . S
C2302 C2301 1.415 . S
C2303 H2279 0.936 1_554 S
C2303 C2304 1.366 . S
C2303 C2305 1.388 . S
C2304 C2303 1.366 . S
C2304 C2308 1.385 . S
C2305 H2280 0.951 . S
C2305 C2303 1.388 . S
C2305 C2306 1.366 . S
C2306 C2305 1.366 . S
C2306 C2307 1.414 . S
C2306 C2309 1.499 . S
C2307 H2281 0.950 . S
C2307 C2306 1.414 . S
C2307 C2308 1.374 . S
C2308 H2282 0.950 . S
C2308 C2304 1.385 . S
C2308 C2307 1.374 . S
C2309 C2306 1.499 . S
C2309 C2310 1.373 . S
C2309 C2311 1.389 . S
C2310 H2283 0.950 . S
C2310 C2296 1.377 . S
C2310 C2309 1.373 . S
C2311 C2295 1.377 . S
C2311 C2309 1.389 . S
C2311 C2312 1.524 . S
C2312 C2311 1.524 . S
C2312 C2313 1.397 . S
C2312 C2317 1.363 . S
C2313 H2284 0.950 . S
C2313 C2312 1.397 . S
C2313 C2314 1.334 . S
C2314 H2285 0.950 . S
C2314 C2313 1.334 . S
C2314 C2315 1.287 . S
C2315 C2314 1.287 . S
C2315 C2316 1.524 . S
C2315 H2318 0.999 . S
C2316 H2286 0.950 . S
C2316 C2315 1.524 . S
C2316 C2317 1.415 . S
C2317 H2287 0.950 . S
C2317 C2312 1.363 . S
C2317 C2316 1.415 . S
H2318 C2315 0.999 . S
H2319 C2300 0.913 . S
H2320 C2338 0.951 . S
H2321 C2340 0.951 . S
H2322 C2342 0.950 . S
H2323 C2343 0.950 . S
H2324 C2345 0.950 . S
H2325 C2348 0.950 . S
H2326 C2349 0.950 . S
H2327 C2351 0.950 . S
H2328 C2352 0.950 . S
H2329 C2353 0.951 . S
H2330 C2355 0.951 . S
H2331 C2357 0.950 . S
H2332 C2358 0.950 . S
H2333 C2360 0.950 . S
H2334 C2363 0.950 . S
H2335 C2364 0.950 1_556 S
H2336 C2366 0.950 . S
H2337 C2367 0.950 . S
C2338 H2320 0.951 . S
C2338 C2339 1.366 . S
C2338 C2340 1.388 . S
C2339 C2338 1.366 . S
C2339 C2343 1.385 . S
C2340 H2321 0.951 . S
C2340 C2338 1.388 . S
C2340 C2341 1.366 . S
C2341 C2340 1.366 . S
C2341 C2342 1.414 . S
C2341 C2344 1.499 . S
C2342 H2322 0.950 . S
C2342 C2341 1.414 . S
C2342 C2343 1.374 . S
C2343 H2323 0.950 . S
C2343 C2339 1.385 . S
C2343 C2342 1.374 . S
C2344 C2341 1.499 . S
C2344 C2345 1.373 . S
C2344 C2346 1.389 . S
C2345 H2324 0.950 . S
C2345 C2344 1.373 . S
C2345 C2361 1.377 . S
C2346 C2344 1.389 . S
C2346 C2347 1.524 . S
C2346 C2360 1.377 . S
C2347 C2346 1.524 . S
C2347 C2348 1.397 . S
C2347 C2352 1.363 . S
C2348 H2325 0.950 . S
C2348 C2347 1.397 . S
C2348 C2349 1.334 . S
C2349 H2326 0.950 . S
C2349 C2348 1.334 . S
C2349 C2350 1.287 . S
C2350 C2349 1.287 . S
C2350 C2351 1.524 . S
C2350 H2369 0.913 . S
C2351 H2327 0.950 . S
C2351 C2350 1.524 . S
C2351 C2352 1.415 . S
C2352 H2328 0.950 . S
C2352 C2347 1.363 . S
C2352 C2351 1.415 . S
C2353 H2329 0.951 . S
C2353 C2354 1.366 . S
C2353 C2355 1.388 . S
C2354 C2353 1.366 . S
C2354 C2358 1.385 . S
C2355 H2330 0.951 . S
C2355 C2353 1.388 . S
C2355 C2356 1.366 . S
C2356 C2355 1.366 . S
C2356 C2357 1.414 . S
C2356 C2359 1.499 . S
C2357 H2331 0.950 . S
C2357 C2356 1.414 . S
C2357 C2358 1.374 . S
C2358 H2332 0.950 . S
C2358 C2354 1.385 . S
C2358 C2357 1.374 . S
C2359 C2356 1.499 . S
C2359 C2360 1.373 . S
C2359 C2361 1.389 . S
C2360 H2333 0.950 . S
C2360 C2346 1.377 . S
C2360 C2359 1.373 . S
C2361 C2345 1.377 . S
C2361 C2359 1.389 . S
C2361 C2362 1.524 . S
C2362 C2361 1.524 . S
C2362 C2363 1.397 . S
C2362 C2367 1.363 . S
C2363 H2334 0.950 . S
C2363 C2362 1.397 . S
C2363 C2364 1.334 . S
C2364 H2335 0.950 1_554 S
C2364 C2363 1.334 . S
C2364 C2365 1.287 . S
C2365 C2364 1.287 . S
C2365 C2366 1.524 . S
C2365 H2368 0.999 1_554 S
C2366 H2336 0.950 . S
C2366 C2365 1.524 . S
C2366 C2367 1.415 . S
C2367 H2337 0.950 . S
C2367 C2362 1.363 . S
C2367 C2366 1.415 . S
H2368 C2365 0.999 1_556 S
H2369 C2350 0.913 . S
H2370 C2388 0.951 . S
H2371 C2390 0.951 . S
H2372 C2392 0.950 . S
H2373 C2393 0.950 . S
H2374 C2395 0.950 . S
H2375 C2398 0.950 . S
H2376 C2399 0.950 . S
H2377 C2401 0.950 . S
H2378 C2402 0.950 . S
H2379 C2403 0.951 . S
H2380 C2405 0.951 . S
H2381 C2407 0.950 . S
H2382 C2408 0.950 . S
H2383 C2410 0.950 . S
H2384 C2413 0.950 . S
H2385 C2414 0.950 . S
H2386 C2416 0.950 . S
H2387 C2417 0.950 . S
C2388 H2370 0.951 . S
C2388 C2389 1.366 . S
C2388 C2390 1.388 . S
C2389 C2388 1.366 . S
C2389 C2393 1.385 . S
C2390 H2371 0.951 . S
C2390 C2388 1.388 . S
C2390 C2391 1.366 . S
C2391 C2390 1.366 . S
C2391 C2392 1.414 . S
C2391 C2394 1.499 . S
C2392 H2372 0.950 . S
C2392 C2391 1.414 . S
C2392 C2393 1.374 . S
C2393 H2373 0.950 . S
C2393 C2389 1.385 . S
C2393 C2392 1.374 . S
C2394 C2391 1.499 . S
C2394 C2395 1.373 . S
C2394 C2396 1.389 . S
C2395 H2374 0.950 . S
C2395 C2394 1.373 . S
C2395 C2411 1.377 . S
C2396 C2394 1.389 . S
C2396 C2397 1.524 . S
C2396 C2410 1.377 . S
C2397 C2396 1.524 . S
C2397 C2398 1.397 . S
C2397 C2402 1.363 . S
C2398 H2375 0.950 . S
C2398 C2397 1.397 . S
C2398 C2399 1.334 . S
C2399 H2376 0.950 . S
C2399 C2398 1.334 . S
C2399 C2400 1.287 . S
C2400 C2399 1.287 . S
C2400 C2401 1.524 . S
C2400 H2419 0.913 . S
C2401 H2377 0.950 . S
C2401 C2400 1.524 . S
C2401 C2402 1.415 . S
C2402 H2378 0.950 . S
C2402 C2397 1.363 . S
C2402 C2401 1.415 . S
C2403 H2379 0.951 . S
C2403 C2404 1.366 . S
C2403 C2405 1.388 . S
C2404 C2403 1.366 . S
C2404 C2408 1.385 . S
C2405 H2380 0.951 . S
C2405 C2403 1.388 . S
C2405 C2406 1.366 . S
C2406 C2405 1.366 . S
C2406 C2407 1.414 . S
C2406 C2409 1.499 . S
C2407 H2381 0.950 . S
C2407 C2406 1.414 . S
C2407 C2408 1.374 . S
C2408 H2382 0.950 . S
C2408 C2404 1.385 . S
C2408 C2407 1.374 . S
C2409 C2406 1.499 . S
C2409 C2410 1.373 . S
C2409 C2411 1.389 . S
C2410 H2383 0.950 . S
C2410 C2396 1.377 . S
C2410 C2409 1.373 . S
C2411 C2395 1.377 . S
C2411 C2409 1.389 . S
C2411 C2412 1.524 . S
C2412 C2411 1.524 . S
C2412 C2413 1.397 . S
C2412 C2417 1.363 . S
C2413 H2384 0.950 . S
C2413 C2412 1.397 . S
C2413 C2414 1.334 . S
C2414 H2385 0.950 . S
C2414 C2413 1.334 . S
C2414 C2415 1.287 . S
C2415 C2414 1.287 . S
C2415 C2416 1.524 . S
C2415 H2418 0.999 . S
C2416 H2386 0.950 . S
C2416 C2415 1.524 . S
C2416 C2417 1.415 . S
C2417 H2387 0.950 . S
C2417 C2412 1.363 . S
C2417 C2416 1.415 . S
H2418 C2415 0.999 . S
H2419 C2400 0.913 . S
H2420 C2438 0.951 . S
H2421 C2440 0.951 . S
H2422 C2442 0.950 . S
H2423 C2443 0.950 . S
H2424 C2445 0.950 . S
H2425 C2448 0.950 . S
H2426 C2449 0.950 . S
H2427 C2451 0.950 . S
H2428 C2452 0.950 . S
H2429 C2453 0.951 . S
H2430 C2455 0.951 . S
H2431 C2457 0.950 . S
H2432 C2458 0.950 . S
H2433 C2460 0.950 . S
H2434 C2463 0.950 . S
H2435 C2464 0.950 . S
H2436 C2466 0.950 . S
H2437 C2467 0.950 . S
C2438 H2420 0.951 . S
C2438 C2439 1.366 . S
C2438 C2440 1.388 . S
C2439 C2438 1.366 . S
C2439 C2443 1.385 . S
C2440 H2421 0.951 . S
C2440 C2438 1.388 . S
C2440 C2441 1.366 . S
C2441 C2440 1.366 . S
C2441 C2442 1.414 . S
C2441 C2444 1.499 . S
C2442 H2422 0.950 . S
C2442 C2441 1.414 . S
C2442 C2443 1.374 . S
C2443 H2423 0.950 . S
C2443 C2439 1.385 . S
C2443 C2442 1.374 . S
C2444 C2441 1.499 . S
C2444 C2445 1.373 . S
C2444 C2446 1.389 . S
C2445 H2424 0.950 . S
C2445 C2444 1.373 . S
C2445 C2461 1.377 . S
C2446 C2444 1.389 . S
C2446 C2447 1.524 . S
C2446 C2460 1.377 . S
C2447 C2446 1.524 . S
C2447 C2448 1.397 . S
C2447 C2452 1.363 . S
C2448 H2425 0.950 . S
C2448 C2447 1.397 . S
C2448 C2449 1.334 . S
C2449 H2426 0.950 . S
C2449 C2448 1.334 . S
C2449 C2450 1.287 . S
C2450 C2449 1.287 . S
C2450 C2451 1.524 . S
C2450 H2469 0.913 . S
C2451 H2427 0.950 . S
C2451 C2450 1.524 . S
C2451 C2452 1.415 . S
C2452 H2428 0.950 . S
C2452 C2447 1.363 . S
C2452 C2451 1.415 . S
C2453 H2429 0.951 . S
C2453 C2454 1.366 . S
C2453 C2455 1.388 . S
C2454 C2453 1.366 . S
C2454 C2458 1.385 . S
C2455 H2430 0.951 . S
C2455 C2453 1.388 . S
C2455 C2456 1.366 . S
C2456 C2455 1.366 . S
C2456 C2457 1.414 . S
C2456 C2459 1.499 . S
C2457 H2431 0.950 . S
C2457 C2456 1.414 . S
C2457 C2458 1.374 . S
C2458 H2432 0.950 . S
C2458 C2454 1.385 . S
C2458 C2457 1.374 . S
C2459 C2456 1.499 . S
C2459 C2460 1.373 . S
C2459 C2461 1.389 . S
C2460 H2433 0.950 . S
C2460 C2446 1.377 . S
C2460 C2459 1.373 . S
C2461 C2445 1.377 . S
C2461 C2459 1.389 . S
C2461 C2462 1.524 . S
C2462 C2461 1.524 . S
C2462 C2463 1.397 . S
C2462 C2467 1.363 . S
C2463 H2434 0.950 . S
C2463 C2462 1.397 . S
C2463 C2464 1.334 . S
C2464 H2435 0.950 . S
C2464 C2463 1.334 . S
C2464 C2465 1.287 . S
C2465 C2464 1.287 . S
C2465 C2466 1.524 . S
C2465 H2468 0.999 . S
C2466 H2436 0.950 . S
C2466 C2465 1.524 . S
C2466 C2467 1.415 . S
C2467 H2437 0.950 . S
C2467 C2462 1.363 . S
C2467 C2466 1.415 . S
H2468 C2465 0.999 . S
H2469 C2450 0.913 . S
H2470 C2488 0.951 . S
H2471 C2490 0.951 . S
H2472 C2492 0.950 . S
H2473 C2493 0.950 . S
H2474 C2495 0.950 . S
H2475 C2498 0.950 . S
H2476 C2499 0.950 . S
H2477 C2501 0.950 . S
H2478 C2502 0.950 . S
H2479 C2503 0.951 . S
H2480 C2505 0.951 . S
H2481 C2507 0.950 . S
H2482 C2508 0.950 . S
H2483 C2510 0.950 . S
H2484 C2513 0.950 . S
H2485 C2514 0.950 . S
H2486 C2516 0.950 . S
H2487 C2517 0.950 . S
C2488 H2470 0.951 . S
C2488 C2489 1.366 . S
C2488 C2490 1.388 . S
C2489 C2488 1.366 . S
C2489 C2493 1.385 . S
C2490 H2471 0.951 . S
C2490 C2488 1.388 . S
C2490 C2491 1.366 . S
C2491 C2490 1.366 . S
C2491 C2492 1.414 . S
C2491 C2494 1.499 . S
C2492 H2472 0.950 . S
C2492 C2491 1.414 . S
C2492 C2493 1.374 . S
C2493 H2473 0.950 . S
C2493 C2489 1.385 . S
C2493 C2492 1.374 . S
C2494 C2491 1.499 . S
C2494 C2495 1.373 . S
C2494 C2496 1.389 . S
C2495 H2474 0.950 . S
C2495 C2494 1.373 . S
C2495 C2511 1.377 . S
C2496 C2494 1.389 . S
C2496 C2497 1.524 . S
C2496 C2510 1.377 . S
C2497 C2496 1.524 . S
C2497 C2498 1.397 . S
C2497 C2502 1.363 . S
C2498 H2475 0.950 . S
C2498 C2497 1.397 . S
C2498 C2499 1.334 . S
C2499 H2476 0.950 . S
C2499 C2498 1.334 . S
C2499 C2500 1.287 . S
C2500 C2499 1.287 . S
C2500 C2501 1.524 . S
C2500 H2519 0.913 . S
C2501 H2477 0.950 . S
C2501 C2500 1.524 . S
C2501 C2502 1.415 . S
C2502 H2478 0.950 . S
C2502 C2497 1.363 . S
C2502 C2501 1.415 . S
C2503 H2479 0.951 . S
C2503 C2504 1.366 . S
C2503 C2505 1.388 . S
C2504 C2503 1.366 . S
C2504 C2508 1.385 . S
C2505 H2480 0.951 . S
C2505 C2503 1.388 . S
C2505 C2506 1.366 . S
C2506 C2505 1.366 . S
C2506 C2507 1.414 . S
C2506 C2509 1.499 . S
C2507 H2481 0.950 . S
C2507 C2506 1.414 . S
C2507 C2508 1.374 . S
C2508 H2482 0.950 . S
C2508 C2504 1.385 . S
C2508 C2507 1.374 . S
C2509 C2506 1.499 . S
C2509 C2510 1.373 . S
C2509 C2511 1.389 . S
C2510 H2483 0.950 . S
C2510 C2496 1.377 . S
C2510 C2509 1.373 . S
C2511 C2495 1.377 . S
C2511 C2509 1.389 . S
C2511 C2512 1.524 . S
C2512 C2511 1.524 . S
C2512 C2513 1.397 . S
C2512 C2517 1.363 . S
C2513 H2484 0.950 . S
C2513 C2512 1.397 . S
C2513 C2514 1.334 . S
C2514 H2485 0.950 . S
C2514 C2513 1.334 . S
C2514 C2515 1.287 . S
C2515 C2514 1.287 . S
C2515 C2516 1.524 . S
C2515 H2518 0.999 . S
C2516 H2486 0.950 . S
C2516 C2515 1.524 . S
C2516 C2517 1.415 . S
C2517 H2487 0.950 . S
C2517 C2512 1.363 . S
C2517 C2516 1.415 . S
H2518 C2515 0.999 . S
H2519 C2500 0.913 . S
H2520 C2538 0.951 . S
H2521 C2540 0.951 . S
H2522 C2542 0.950 . S
H2523 C2543 0.950 . S
H2524 C2545 0.950 . S
H2525 C2548 0.950 . S
H2526 C2549 0.950 . S
H2527 C2551 0.950 . S
H2528 C2552 0.950 . S
H2529 C2553 0.951 . S
H2530 C2555 0.951 . S
H2531 C2557 0.950 . S
H2532 C2558 0.950 . S
H2533 C2560 0.950 . S
H2534 C2563 0.950 . S
H2535 C2564 0.950 . S
H2536 C2566 0.950 . S
H2537 C2567 0.950 . S
C2538 H2520 0.951 . S
C2538 C2539 1.366 . S
C2538 C2540 1.388 . S
C2539 C2538 1.366 . S
C2539 C2543 1.385 . S
C2540 H2521 0.951 . S
C2540 C2538 1.388 . S
C2540 C2541 1.366 . S
C2541 C2540 1.366 . S
C2541 C2542 1.414 . S
C2541 C2544 1.499 . S
C2542 H2522 0.950 . S
C2542 C2541 1.414 . S
C2542 C2543 1.374 . S
C2543 H2523 0.950 . S
C2543 C2539 1.385 . S
C2543 C2542 1.374 . S
C2544 C2541 1.499 . S
C2544 C2545 1.373 . S
C2544 C2546 1.389 . S
C2545 H2524 0.950 . S
C2545 C2544 1.373 . S
C2545 C2561 1.377 . S
C2546 C2544 1.389 . S
C2546 C2547 1.524 . S
C2546 C2560 1.377 . S
C2547 C2546 1.524 . S
C2547 C2548 1.397 . S
C2547 C2552 1.363 . S
C2548 H2525 0.950 . S
C2548 C2547 1.397 . S
C2548 C2549 1.334 . S
C2549 H2526 0.950 . S
C2549 C2548 1.334 . S
C2549 C2550 1.287 . S
C2550 C2549 1.287 . S
C2550 C2551 1.524 . S
C2550 H2569 0.913 . S
C2551 H2527 0.950 . S
C2551 C2550 1.524 . S
C2551 C2552 1.415 . S
C2552 H2528 0.950 . S
C2552 C2547 1.363 . S
C2552 C2551 1.415 . S
C2553 H2529 0.951 . S
C2553 C2554 1.366 . S
C2553 C2555 1.388 . S
C2554 C2553 1.366 . S
C2554 C2558 1.385 . S
C2555 H2530 0.951 . S
C2555 C2553 1.388 . S
C2555 C2556 1.366 . S
C2556 C2555 1.366 . S
C2556 C2557 1.414 . S
C2556 C2559 1.499 . S
C2557 H2531 0.950 . S
C2557 C2556 1.414 . S
C2557 C2558 1.374 . S
C2558 H2532 0.950 . S
C2558 C2554 1.385 . S
C2558 C2557 1.374 . S
C2559 C2556 1.499 . S
C2559 C2560 1.373 . S
C2559 C2561 1.389 . S
C2560 H2533 0.950 . S
C2560 C2546 1.377 . S
C2560 C2559 1.373 . S
C2561 C2545 1.377 . S
C2561 C2559 1.389 . S
C2561 C2562 1.524 . S
C2562 C2561 1.524 . S
C2562 C2563 1.397 . S
C2562 C2567 1.363 . S
C2563 H2534 0.950 . S
C2563 C2562 1.397 . S
C2563 C2564 1.334 . S
C2564 H2535 0.950 . S
C2564 C2563 1.334 . S
C2564 C2565 1.287 . S
C2565 C2564 1.287 . S
C2565 C2566 1.524 . S
C2565 H2568 0.999 . S
C2566 H2536 0.950 . S
C2566 C2565 1.524 . S
C2566 C2567 1.415 . S
C2567 H2537 0.950 . S
C2567 C2562 1.363 . S
C2567 C2566 1.415 . S
H2568 C2565 0.999 . S
H2569 C2550 0.913 . S
H2570 C2588 0.951 . S
H2571 C2590 0.951 . S
H2572 C2592 0.950 . S
H2573 C2593 0.950 . S
H2574 C2595 0.950 . S
H2575 C2598 0.950 . S
H2576 C2599 0.950 . S
H2577 C2601 0.950 . S
H2578 C2602 0.950 . S
H2579 C2603 0.951 . S
H2580 C2605 0.951 . S
H2581 C2607 0.950 . S
H2582 C2608 0.950 . S
H2583 C2610 0.950 . S
H2584 C2613 0.950 . S
H2585 C2614 0.950 . S
H2586 C2616 0.950 . S
H2587 C2617 0.950 . S
C2588 H2570 0.951 . S
C2588 C2589 1.366 . S
C2588 C2590 1.388 . S
C2589 C2588 1.366 . S
C2589 C2593 1.385 . S
C2590 H2571 0.951 . S
C2590 C2588 1.388 . S
C2590 C2591 1.366 . S
C2591 C2590 1.366 . S
C2591 C2592 1.414 . S
C2591 C2594 1.499 . S
C2592 H2572 0.950 . S
C2592 C2591 1.414 . S
C2592 C2593 1.374 . S
C2593 H2573 0.950 . S
C2593 C2589 1.385 . S
C2593 C2592 1.374 . S
C2594 C2591 1.499 . S
C2594 C2595 1.373 . S
C2594 C2596 1.389 . S
C2595 H2574 0.950 . S
C2595 C2594 1.373 . S
C2595 C2611 1.377 . S
C2596 C2594 1.389 . S
C2596 C2597 1.524 . S
C2596 C2610 1.377 . S
C2597 C2596 1.524 . S
C2597 C2598 1.397 . S
C2597 C2602 1.363 . S
C2598 H2575 0.950 . S
C2598 C2597 1.397 . S
C2598 C2599 1.334 . S
C2599 H2576 0.950 . S
C2599 C2598 1.334 . S
C2599 C2600 1.287 . S
C2600 C2599 1.287 . S
C2600 C2601 1.524 . S
C2600 H2619 0.913 . S
C2601 H2577 0.950 . S
C2601 C2600 1.524 . S
C2601 C2602 1.415 . S
C2602 H2578 0.950 . S
C2602 C2597 1.363 . S
C2602 C2601 1.415 . S
C2603 H2579 0.951 . S
C2603 C2604 1.366 . S
C2603 C2605 1.388 . S
C2604 C2603 1.366 . S
C2604 C2608 1.385 . S
C2605 H2580 0.951 . S
C2605 C2603 1.388 . S
C2605 C2606 1.366 . S
C2606 C2605 1.366 . S
C2606 C2607 1.414 . S
C2606 C2609 1.499 . S
C2607 H2581 0.950 . S
C2607 C2606 1.414 . S
C2607 C2608 1.374 . S
C2608 H2582 0.950 . S
C2608 C2604 1.385 . S
C2608 C2607 1.374 . S
C2609 C2606 1.499 . S
C2609 C2610 1.373 . S
C2609 C2611 1.389 . S
C2610 H2583 0.950 . S
C2610 C2596 1.377 . S
C2610 C2609 1.373 . S
C2611 C2595 1.377 . S
C2611 C2609 1.389 . S
C2611 C2612 1.524 . S
C2612 C2611 1.524 . S
C2612 C2613 1.397 . S
C2612 C2617 1.363 . S
C2613 H2584 0.950 . S
C2613 C2612 1.397 . S
C2613 C2614 1.334 . S
C2614 H2585 0.950 . S
C2614 C2613 1.334 . S
C2614 C2615 1.287 . S
C2615 C2614 1.287 . S
C2615 C2616 1.524 . S
C2615 H2618 0.999 . S
C2616 H2586 0.950 . S
C2616 C2615 1.524 . S
C2616 C2617 1.415 . S
C2617 H2587 0.950 . S
C2617 C2612 1.363 . S
C2617 C2616 1.415 . S
H2618 C2615 0.999 . S
H2619 C2600 0.913 . S
H2620 C2638 0.951 . S
H2621 C2640 0.951 . S
H2622 C2642 0.950 . S
H2623 C2643 0.950 . S
H2624 C2645 0.950 . S
H2625 C2648 0.950 . S
H2626 C2649 0.950 . S
H2627 C2651 0.950 . S
H2628 C2652 0.950 . S
H2629 C2653 0.951 . S
H2630 C2655 0.951 . S
H2631 C2657 0.950 . S
H2632 C2658 0.950 . S
H2633 C2660 0.950 . S
H2634 C2663 0.950 . S
H2635 C2664 0.950 . S
H2636 C2666 0.950 . S
H2637 C2667 0.950 . S
C2638 H2620 0.951 . S
C2638 C2639 1.366 . S
C2638 C2640 1.388 . S
C2639 C2638 1.366 . S
C2639 C2643 1.385 . S
C2640 H2621 0.951 . S
C2640 C2638 1.388 . S
C2640 C2641 1.366 . S
C2641 C2640 1.366 . S
C2641 C2642 1.414 . S
C2641 C2644 1.499 . S
C2642 H2622 0.950 . S
C2642 C2641 1.414 . S
C2642 C2643 1.374 . S
C2643 H2623 0.950 . S
C2643 C2639 1.385 . S
C2643 C2642 1.374 . S
C2644 C2641 1.499 . S
C2644 C2645 1.373 . S
C2644 C2646 1.389 . S
C2645 H2624 0.950 . S
C2645 C2644 1.373 . S
C2645 C2661 1.377 . S
C2646 C2644 1.389 . S
C2646 C2647 1.524 . S
C2646 C2660 1.377 . S
C2647 C2646 1.524 . S
C2647 C2648 1.397 . S
C2647 C2652 1.363 . S
C2648 H2625 0.950 . S
C2648 C2647 1.397 . S
C2648 C2649 1.334 . S
C2649 H2626 0.950 . S
C2649 C2648 1.334 . S
C2649 C2650 1.287 . S
C2650 C2649 1.287 . S
C2650 C2651 1.524 . S
C2650 H2669 0.913 . S
C2651 H2627 0.950 . S
C2651 C2650 1.524 . S
C2651 C2652 1.415 . S
C2652 H2628 0.950 . S
C2652 C2647 1.363 . S
C2652 C2651 1.415 . S
C2653 H2629 0.951 . S
C2653 C2654 1.366 . S
C2653 C2655 1.388 . S
C2654 C2653 1.366 . S
C2654 C2658 1.385 . S
C2655 H2630 0.951 . S
C2655 C2653 1.388 . S
C2655 C2656 1.366 . S
C2656 C2655 1.366 . S
C2656 C2657 1.414 . S
C2656 C2659 1.499 . S
C2657 H2631 0.950 . S
C2657 C2656 1.414 . S
C2657 C2658 1.374 . S
C2658 H2632 0.950 . S
C2658 C2654 1.385 . S
C2658 C2657 1.374 . S
C2659 C2656 1.499 . S
C2659 C2660 1.373 . S
C2659 C2661 1.389 . S
C2660 H2633 0.950 . S
C2660 C2646 1.377 . S
C2660 C2659 1.373 . S
C2661 C2645 1.377 . S
C2661 C2659 1.389 . S
C2661 C2662 1.524 . S
C2662 C2661 1.524 . S
C2662 C2663 1.397 . S
C2662 C2667 1.363 . S
C2663 H2634 0.950 . S
C2663 C2662 1.397 . S
C2663 C2664 1.334 . S
C2664 H2635 0.950 . S
C2664 C2663 1.334 . S
C2664 C2665 1.287 . S
C2665 C2664 1.287 . S
C2665 C2666 1.524 . S
C2665 H2668 0.999 . S
C2666 H2636 0.950 . S
C2666 C2665 1.524 . S
C2666 C2667 1.415 . S
C2667 H2637 0.950 . S
C2667 C2662 1.363 . S
C2667 C2666 1.415 . S
H2668 C2665 0.999 . S
H2669 C2650 0.913 . S
H2670 C2688 0.951 . S
H2671 C2690 0.951 . S
H2672 C2692 0.950 . S
H2673 C2693 0.950 . S
H2674 C2695 0.950 . S
H2675 C2698 0.950 . S
H2676 C2699 0.950 . S
H2677 C2701 0.950 . S
H2678 C2702 0.950 . S
H2679 C2703 0.951 . S
H2680 C2705 0.951 . S
H2681 C2707 0.950 . S
H2682 C2708 0.950 . S
H2683 C2710 0.950 . S
H2684 C2713 0.950 . S
H2685 C2714 0.950 . S
H2686 C2716 0.950 . S
H2687 C2717 0.950 . S
C2688 H2670 0.951 . S
C2688 C2689 1.366 . S
C2688 C2690 1.388 . S
C2689 C2688 1.366 . S
C2689 C2693 1.385 . S
C2690 H2671 0.951 . S
C2690 C2688 1.388 . S
C2690 C2691 1.366 . S
C2691 C2690 1.366 . S
C2691 C2692 1.414 . S
C2691 C2694 1.499 . S
C2692 H2672 0.950 . S
C2692 C2691 1.414 . S
C2692 C2693 1.374 . S
C2693 H2673 0.950 . S
C2693 C2689 1.385 . S
C2693 C2692 1.374 . S
C2694 C2691 1.499 . S
C2694 C2695 1.373 . S
C2694 C2696 1.389 . S
C2695 H2674 0.950 . S
C2695 C2694 1.373 . S
C2695 C2711 1.377 . S
C2696 C2694 1.389 . S
C2696 C2697 1.524 . S
C2696 C2710 1.377 . S
C2697 C2696 1.524 . S
C2697 C2698 1.397 . S
C2697 C2702 1.363 . S
C2698 H2675 0.950 . S
C2698 C2697 1.397 . S
C2698 C2699 1.334 . S
C2699 H2676 0.950 . S
C2699 C2698 1.334 . S
C2699 C2700 1.287 . S
C2700 C2699 1.287 . S
C2700 C2701 1.524 . S
C2700 H2719 0.913 . S
C2701 H2677 0.950 . S
C2701 C2700 1.524 . S
C2701 C2702 1.415 . S
C2702 H2678 0.950 . S
C2702 C2697 1.363 . S
C2702 C2701 1.415 . S
C2703 H2679 0.951 . S
C2703 C2704 1.366 . S
C2703 C2705 1.388 . S
C2704 C2703 1.366 . S
C2704 C2708 1.385 . S
C2705 H2680 0.951 . S
C2705 C2703 1.388 . S
C2705 C2706 1.366 . S
C2706 C2705 1.366 . S
C2706 C2707 1.414 . S
C2706 C2709 1.499 . S
C2707 H2681 0.950 . S
C2707 C2706 1.414 . S
C2707 C2708 1.374 . S
C2708 H2682 0.950 . S
C2708 C2704 1.385 . S
C2708 C2707 1.374 . S
C2709 C2706 1.499 . S
C2709 C2710 1.373 . S
C2709 C2711 1.389 . S
C2710 H2683 0.950 . S
C2710 C2696 1.377 . S
C2710 C2709 1.373 . S
C2711 C2695 1.377 . S
C2711 C2709 1.389 . S
C2711 C2712 1.524 . S
C2712 C2711 1.524 . S
C2712 C2713 1.397 . S
C2712 C2717 1.363 . S
C2713 H2684 0.950 . S
C2713 C2712 1.397 . S
C2713 C2714 1.334 . S
C2714 H2685 0.950 . S
C2714 C2713 1.334 . S
C2714 C2715 1.287 . S
C2715 C2714 1.287 . S
C2715 C2716 1.524 . S
C2715 H2718 0.999 . S
C2716 H2686 0.950 . S
C2716 C2715 1.524 . S
C2716 C2717 1.415 . S
C2717 H2687 0.950 . S
C2717 C2712 1.363 . S
C2717 C2716 1.415 . S
H2718 C2715 0.999 . S
H2719 C2700 0.913 . S
H2720 C2738 0.951 . S
H2721 C2740 0.951 . S
H2722 C2742 0.950 . S
H2723 C2743 0.950 . S
H2724 C2745 0.950 . S
H2725 C2748 0.950 . S
H2726 C2749 0.950 . S
H2727 C2751 0.950 . S
H2728 C2752 0.950 . S
H2729 C2753 0.951 . S
H2730 C2755 0.951 . S
H2731 C2757 0.950 . S
H2732 C2758 0.950 . S
H2733 C2760 0.950 . S
H2734 C2763 0.950 . S
H2735 C2764 0.950 . S
H2736 C2766 0.950 . S
H2737 C2767 0.950 . S
C2738 H2720 0.951 . S
C2738 C2739 1.366 . S
C2738 C2740 1.388 . S
C2739 C2738 1.366 . S
C2739 C2743 1.385 . S
C2740 H2721 0.951 . S
C2740 C2738 1.388 . S
C2740 C2741 1.366 . S
C2741 C2740 1.366 . S
C2741 C2742 1.414 . S
C2741 C2744 1.499 . S
C2742 H2722 0.950 . S
C2742 C2741 1.414 . S
C2742 C2743 1.374 . S
C2743 H2723 0.950 . S
C2743 C2739 1.385 . S
C2743 C2742 1.374 . S
C2744 C2741 1.499 . S
C2744 C2745 1.373 . S
C2744 C2746 1.389 . S
C2745 H2724 0.950 . S
C2745 C2744 1.373 . S
C2745 C2761 1.377 . S
C2746 C2744 1.389 . S
C2746 C2747 1.524 . S
C2746 C2760 1.377 . S
C2747 C2746 1.524 . S
C2747 C2748 1.397 . S
C2747 C2752 1.363 . S
C2748 H2725 0.950 . S
C2748 C2747 1.397 . S
C2748 C2749 1.334 . S
C2749 H2726 0.950 . S
C2749 C2748 1.334 . S
C2749 C2750 1.287 . S
C2750 C2749 1.287 . S
C2750 C2751 1.524 . S
C2750 H2769 0.913 . S
C2751 H2727 0.950 . S
C2751 C2750 1.524 . S
C2751 C2752 1.415 . S
C2752 H2728 0.950 . S
C2752 C2747 1.363 . S
C2752 C2751 1.415 . S
C2753 H2729 0.951 . S
C2753 C2754 1.366 . S
C2753 C2755 1.388 . S
C2754 C2753 1.366 . S
C2754 C2758 1.385 . S
C2755 H2730 0.951 . S
C2755 C2753 1.388 . S
C2755 C2756 1.366 . S
C2756 C2755 1.366 . S
C2756 C2757 1.414 . S
C2756 C2759 1.499 . S
C2757 H2731 0.950 . S
C2757 C2756 1.414 . S
C2757 C2758 1.374 . S
C2758 H2732 0.950 . S
C2758 C2754 1.385 . S
C2758 C2757 1.374 . S
C2759 C2756 1.499 . S
C2759 C2760 1.373 . S
C2759 C2761 1.389 . S
C2760 H2733 0.950 . S
C2760 C2746 1.377 . S
C2760 C2759 1.373 . S
C2761 C2745 1.377 . S
C2761 C2759 1.389 . S
C2761 C2762 1.524 . S
C2762 C2761 1.524 . S
C2762 C2763 1.397 . S
C2762 C2767 1.363 . S
C2763 H2734 0.950 . S
C2763 C2762 1.397 . S
C2763 C2764 1.334 . S
C2764 H2735 0.950 . S
C2764 C2763 1.334 . S
C2764 C2765 1.287 . S
C2765 C2764 1.287 . S
C2765 C2766 1.524 . S
C2765 H2768 0.999 . S
C2766 H2736 0.950 . S
C2766 C2765 1.524 . S
C2766 C2767 1.415 . S
C2767 H2737 0.950 . S
C2767 C2762 1.363 . S
C2767 C2766 1.415 . S
H2768 C2765 0.999 . S
H2769 C2750 0.913 . S
H2770 C2788 0.951 . S
H2771 C2790 0.951 . S
H2772 C2792 0.950 . S
H2773 C2793 0.950 . S
H2774 C2795 0.950 . S
H2775 C2798 0.950 . S
H2776 C2799 0.950 . S
H2777 C2801 0.950 . S
H2778 C2802 0.950 . S
H2779 C2803 0.951 . S
H2780 C2805 0.951 . S
H2781 C2807 0.950 . S
H2782 C2808 0.950 . S
H2783 C2810 0.950 . S
H2784 C2813 0.950 . S
H2785 C2814 0.950 . S
H2786 C2816 0.950 . S
H2787 C2817 0.950 . S
C2788 H2770 0.951 . S
C2788 C2789 1.366 . S
C2788 C2790 1.388 . S
C2789 C2788 1.366 . S
C2789 C2793 1.385 . S
C2790 H2771 0.951 . S
C2790 C2788 1.388 . S
C2790 C2791 1.366 . S
C2791 C2790 1.366 . S
C2791 C2792 1.414 . S
C2791 C2794 1.499 . S
C2792 H2772 0.950 . S
C2792 C2791 1.414 . S
C2792 C2793 1.374 . S
C2793 H2773 0.950 . S
C2793 C2789 1.385 . S
C2793 C2792 1.374 . S
C2794 C2791 1.499 . S
C2794 C2795 1.373 . S
C2794 C2796 1.389 . S
C2795 H2774 0.950 . S
C2795 C2794 1.373 . S
C2795 C2811 1.377 . S
C2796 C2794 1.389 . S
C2796 C2797 1.524 . S
C2796 C2810 1.377 . S
C2797 C2796 1.524 . S
C2797 C2798 1.397 . S
C2797 C2802 1.363 . S
C2798 H2775 0.950 . S
C2798 C2797 1.397 . S
C2798 C2799 1.334 . S
C2799 H2776 0.950 . S
C2799 C2798 1.334 . S
C2799 C2800 1.287 . S
C2800 C2799 1.287 . S
C2800 C2801 1.524 . S
C2800 H2819 0.913 . S
C2801 H2777 0.950 . S
C2801 C2800 1.524 . S
C2801 C2802 1.415 . S
C2802 H2778 0.950 . S
C2802 C2797 1.363 . S
C2802 C2801 1.415 . S
C2803 H2779 0.951 . S
C2803 C2804 1.366 . S
C2803 C2805 1.388 . S
C2804 C2803 1.366 . S
C2804 C2808 1.385 . S
C2805 H2780 0.951 . S
C2805 C2803 1.388 . S
C2805 C2806 1.366 . S
C2806 C2805 1.366 . S
C2806 C2807 1.414 . S
C2806 C2809 1.499 . S
C2807 H2781 0.950 . S
C2807 C2806 1.414 . S
C2807 C2808 1.374 . S
C2808 H2782 0.950 . S
C2808 C2804 1.385 . S
C2808 C2807 1.374 . S
C2809 C2806 1.499 . S
C2809 C2810 1.373 . S
C2809 C2811 1.389 . S
C2810 H2783 0.950 . S
C2810 C2796 1.377 . S
C2810 C2809 1.373 . S
C2811 C2795 1.377 . S
C2811 C2809 1.389 . S
C2811 C2812 1.524 . S
C2812 C2811 1.524 . S
C2812 C2813 1.397 . S
C2812 C2817 1.363 . S
C2813 H2784 0.950 . S
C2813 C2812 1.397 . S
C2813 C2814 1.334 . S
C2814 H2785 0.950 . S
C2814 C2813 1.334 . S
C2814 C2815 1.287 . S
C2815 C2814 1.287 . S
C2815 C2816 1.524 . S
C2815 H2818 0.999 . S
C2816 H2786 0.950 . S
C2816 C2815 1.524 . S
C2816 C2817 1.415 . S
C2817 H2787 0.950 . S
C2817 C2812 1.363 . S
C2817 C2816 1.415 . S
H2818 C2815 0.999 . S
H2819 C2800 0.913 . S
H2820 C2838 0.951 . S
H2821 C2840 0.951 . S
H2822 C2842 0.950 . S
H2823 C2843 0.950 . S
H2824 C2845 0.950 . S
H2825 C2848 0.950 . S
H2826 C2849 0.950 . S
H2827 C2851 0.950 . S
H2828 C2852 0.950 . S
H2829 C2853 0.951 . S
H2830 C2855 0.951 . S
H2831 C2857 0.950 . S
H2832 C2858 0.950 . S
H2833 C2860 0.950 . S
H2834 C2863 0.950 . S
H2835 C2864 0.950 . S
H2836 C2866 0.950 . S
H2837 C2867 0.950 . S
C2838 H2820 0.951 . S
C2838 C2839 1.366 . S
C2838 C2840 1.388 . S
C2839 C2838 1.366 . S
C2839 C2843 1.385 . S
C2840 H2821 0.951 . S
C2840 C2838 1.388 . S
C2840 C2841 1.366 . S
C2841 C2840 1.366 . S
C2841 C2842 1.414 . S
C2841 C2844 1.499 . S
C2842 H2822 0.950 . S
C2842 C2841 1.414 . S
C2842 C2843 1.374 . S
C2843 H2823 0.950 . S
C2843 C2839 1.385 . S
C2843 C2842 1.374 . S
C2844 C2841 1.499 . S
C2844 C2845 1.373 . S
C2844 C2846 1.389 . S
C2845 H2824 0.950 . S
C2845 C2844 1.373 . S
C2845 C2861 1.377 . S
C2846 C2844 1.389 . S
C2846 C2847 1.524 . S
C2846 C2860 1.377 . S
C2847 C2846 1.524 . S
C2847 C2848 1.397 . S
C2847 C2852 1.363 . S
C2848 H2825 0.950 . S
C2848 C2847 1.397 . S
C2848 C2849 1.334 . S
C2849 H2826 0.950 . S
C2849 C2848 1.334 . S
C2849 C2850 1.287 . S
C2850 C2849 1.287 . S
C2850 C2851 1.524 . S
C2850 H2869 0.913 . S
C2851 H2827 0.950 . S
C2851 C2850 1.524 . S
C2851 C2852 1.415 . S
C2852 H2828 0.950 . S
C2852 C2847 1.363 . S
C2852 C2851 1.415 . S
C2853 H2829 0.951 . S
C2853 C2854 1.366 . S
C2853 C2855 1.388 . S
C2854 C2853 1.366 . S
C2854 C2858 1.385 . S
C2855 H2830 0.951 . S
C2855 C2853 1.388 . S
C2855 C2856 1.366 . S
C2856 C2855 1.366 . S
C2856 C2857 1.414 . S
C2856 C2859 1.499 . S
C2857 H2831 0.950 . S
C2857 C2856 1.414 . S
C2857 C2858 1.374 . S
C2858 H2832 0.950 . S
C2858 C2854 1.385 . S
C2858 C2857 1.374 . S
C2859 C2856 1.499 . S
C2859 C2860 1.373 . S
C2859 C2861 1.389 . S
C2860 H2833 0.950 . S
C2860 C2846 1.377 . S
C2860 C2859 1.373 . S
C2861 C2845 1.377 . S
C2861 C2859 1.389 . S
C2861 C2862 1.524 . S
C2862 C2861 1.524 . S
C2862 C2863 1.397 . S
C2862 C2867 1.363 . S
C2863 H2834 0.950 . S
C2863 C2862 1.397 . S
C2863 C2864 1.334 . S
C2864 H2835 0.950 . S
C2864 C2863 1.334 . S
C2864 C2865 1.287 . S
C2865 C2864 1.287 . S
C2865 C2866 1.524 . S
C2865 H2868 0.999 . S
C2866 H2836 0.950 . S
C2866 C2865 1.524 . S
C2866 C2867 1.415 . S
C2867 H2837 0.950 . S
C2867 C2862 1.363 . S
C2867 C2866 1.415 . S
H2868 C2865 0.999 . S
H2869 C2850 0.913 . S
H2870 C2888 0.951 . S
H2871 C2890 0.951 . S
H2872 C2892 0.950 . S
H2873 C2893 0.950 . S
H2874 C2895 0.950 . S
H2875 C2898 0.950 . S
H2876 C2899 0.950 . S
H2877 C2901 0.950 . S
H2878 C2902 0.950 . S
H2879 C2903 0.951 . S
H2880 C2905 0.951 . S
H2881 C2907 0.950 . S
H2882 C2908 0.950 . S
H2883 C2910 0.950 . S
H2884 C2913 0.950 . S
H2885 C2914 0.950 . S
H2886 C2916 0.950 . S
H2887 C2917 0.950 . S
C2888 H2870 0.951 . S
C2888 C2889 1.366 . S
C2888 C2890 1.388 . S
C2889 C2888 1.366 . S
C2889 C2893 1.385 . S
C2890 H2871 0.951 . S
C2890 C2888 1.388 . S
C2890 C2891 1.366 . S
C2891 C2890 1.366 . S
C2891 C2892 1.414 . S
C2891 C2894 1.499 . S
C2892 H2872 0.950 . S
C2892 C2891 1.414 . S
C2892 C2893 1.374 . S
C2893 H2873 0.950 . S
C2893 C2889 1.385 . S
C2893 C2892 1.374 . S
C2894 C2891 1.499 . S
C2894 C2895 1.373 . S
C2894 C2896 1.389 . S
C2895 H2874 0.950 . S
C2895 C2894 1.373 . S
C2895 C2911 1.377 . S
C2896 C2894 1.389 . S
C2896 C2897 1.524 . S
C2896 C2910 1.377 . S
C2897 C2896 1.524 . S
C2897 C2898 1.397 . S
C2897 C2902 1.363 . S
C2898 H2875 0.950 . S
C2898 C2897 1.397 . S
C2898 C2899 1.334 . S
C2899 H2876 0.950 . S
C2899 C2898 1.334 . S
C2899 C2900 1.287 . S
C2900 C2899 1.287 . S
C2900 C2901 1.524 . S
C2900 H2919 0.913 . S
C2901 H2877 0.950 . S
C2901 C2900 1.524 . S
C2901 C2902 1.415 . S
C2902 H2878 0.950 . S
C2902 C2897 1.363 . S
C2902 C2901 1.415 . S
C2903 H2879 0.951 . S
C2903 C2904 1.366 . S
C2903 C2905 1.388 . S
C2904 C2903 1.366 . S
C2904 C2908 1.385 . S
C2905 H2880 0.951 . S
C2905 C2903 1.388 . S
C2905 C2906 1.366 . S
C2906 C2905 1.366 . S
C2906 C2907 1.414 . S
C2906 C2909 1.499 . S
C2907 H2881 0.950 . S
C2907 C2906 1.414 . S
C2907 C2908 1.374 . S
C2908 H2882 0.950 . S
C2908 C2904 1.385 . S
C2908 C2907 1.374 . S
C2909 C2906 1.499 . S
C2909 C2910 1.373 . S
C2909 C2911 1.389 . S
C2910 H2883 0.950 . S
C2910 C2896 1.377 . S
C2910 C2909 1.373 . S
C2911 C2895 1.377 . S
C2911 C2909 1.389 . S
C2911 C2912 1.524 . S
C2912 C2911 1.524 . S
C2912 C2913 1.397 . S
C2912 C2917 1.363 . S
C2913 H2884 0.950 . S
C2913 C2912 1.397 . S
C2913 C2914 1.334 . S
C2914 H2885 0.950 . S
C2914 C2913 1.334 . S
C2914 C2915 1.287 . S
C2915 C2914 1.287 . S
C2915 C2916 1.524 . S
C2915 H2918 0.999 . S
C2916 H2886 0.950 . S
C2916 C2915 1.524 . S
C2916 C2917 1.415 . S
C2917 H2887 0.950 . S
C2917 C2912 1.363 . S
C2917 C2916 1.415 . S
H2918 C2915 0.999 . S
H2919 C2900 0.913 . S
H2920 C2938 0.951 . S
H2921 C2940 0.951 . S
H2922 C2942 0.950 . S
H2923 C2943 0.950 . S
H2924 C2945 0.950 . S
H2925 C2948 0.950 . S
H2926 C2949 0.950 . S
H2927 C2951 0.950 . S
H2928 C2952 0.950 . S
H2929 C2953 0.951 . S
H2930 C2955 0.951 . S
H2931 C2957 0.950 . S
H2932 C2958 0.950 . S
H2933 C2960 0.950 . S
H2934 C2963 0.950 . S
H2935 C2964 0.950 . S
H2936 C2966 0.950 . S
H2937 C2967 0.950 . S
C2938 H2920 0.951 . S
C2938 C2939 1.366 . S
C2938 C2940 1.388 . S
C2939 C2938 1.366 . S
C2939 C2943 1.385 . S
C2940 H2921 0.951 . S
C2940 C2938 1.388 . S
C2940 C2941 1.366 . S
C2941 C2940 1.366 . S
C2941 C2942 1.414 . S
C2941 C2944 1.499 . S
C2942 H2922 0.950 . S
C2942 C2941 1.414 . S
C2942 C2943 1.374 . S
C2943 H2923 0.950 . S
C2943 C2939 1.385 . S
C2943 C2942 1.374 . S
C2944 C2941 1.499 . S
C2944 C2945 1.373 . S
C2944 C2946 1.389 . S
C2945 H2924 0.950 . S
C2945 C2944 1.373 . S
C2945 C2961 1.377 . S
C2946 C2944 1.389 . S
C2946 C2947 1.524 . S
C2946 C2960 1.377 . S
C2947 C2946 1.524 . S
C2947 C2948 1.397 . S
C2947 C2952 1.363 . S
C2948 H2925 0.950 . S
C2948 C2947 1.397 . S
C2948 C2949 1.334 . S
C2949 H2926 0.950 . S
C2949 C2948 1.334 . S
C2949 C2950 1.287 . S
C2950 C2949 1.287 . S
C2950 C2951 1.524 . S
C2950 H2969 0.913 . S
C2951 H2927 0.950 . S
C2951 C2950 1.524 . S
C2951 C2952 1.415 . S
C2952 H2928 0.950 . S
C2952 C2947 1.363 . S
C2952 C2951 1.415 . S
C2953 H2929 0.951 . S
C2953 C2954 1.366 . S
C2953 C2955 1.388 . S
C2954 C2953 1.366 . S
C2954 C2958 1.385 . S
C2955 H2930 0.951 . S
C2955 C2953 1.388 . S
C2955 C2956 1.366 . S
C2956 C2955 1.366 . S
C2956 C2957 1.414 . S
C2956 C2959 1.499 . S
C2957 H2931 0.950 . S
C2957 C2956 1.414 . S
C2957 C2958 1.374 . S
C2958 H2932 0.950 . S
C2958 C2954 1.385 . S
C2958 C2957 1.374 . S
C2959 C2956 1.499 . S
C2959 C2960 1.373 . S
C2959 C2961 1.389 . S
C2960 H2933 0.950 . S
C2960 C2946 1.377 . S
C2960 C2959 1.373 . S
C2961 C2945 1.377 . S
C2961 C2959 1.389 . S
C2961 C2962 1.524 . S
C2962 C2961 1.524 . S
C2962 C2963 1.397 . S
C2962 C2967 1.363 . S
C2963 H2934 0.950 . S
C2963 C2962 1.397 . S
C2963 C2964 1.334 . S
C2964 H2935 0.950 . S
C2964 C2963 1.334 . S
C2964 C2965 1.287 . S
C2965 C2964 1.287 . S
C2965 C2966 1.524 . S
C2965 H2968 0.999 . S
C2966 H2936 0.950 . S
C2966 C2965 1.524 . S
C2966 C2967 1.415 . S
C2967 H2937 0.950 . S
C2967 C2962 1.363 . S
C2967 C2966 1.415 . S
H2968 C2965 0.999 . S
H2969 C2950 0.913 . S
H2970 C2988 0.951 . S
H2971 C2990 0.951 . S
H2972 C2992 0.950 . S
H2973 C2993 0.950 . S
H2974 C2995 0.950 . S
H2975 C2998 0.950 . S
H2976 C2999 0.950 . S
H2977 C3001 0.950 . S
H2978 C3002 0.950 . S
H2979 C3003 0.951 . S
H2980 C3005 0.951 . S
H2981 C3007 0.950 . S
H2982 C3008 0.950 . S
H2983 C3010 0.950 . S
H2984 C3013 0.950 . S
H2985 C3014 0.950 . S
H2986 C3016 0.950 . S
H2987 C3017 0.950 . S
C2988 H2970 0.951 . S
C2988 C2989 1.366 . S
C2988 C2990 1.388 . S
C2989 C2988 1.366 . S
C2989 C2993 1.385 . S
C2990 H2971 0.951 . S
C2990 C2988 1.388 . S
C2990 C2991 1.366 . S
C2991 C2990 1.366 . S
C2991 C2992 1.414 . S
C2991 C2994 1.499 . S
C2992 H2972 0.950 . S
C2992 C2991 1.414 . S
C2992 C2993 1.374 . S
C2993 H2973 0.950 . S
C2993 C2989 1.385 . S
C2993 C2992 1.374 . S
C2994 C2991 1.499 . S
C2994 C2995 1.373 . S
C2994 C2996 1.389 . S
C2995 H2974 0.950 . S
C2995 C2994 1.373 . S
C2995 C3011 1.377 . S
C2996 C2994 1.389 . S
C2996 C2997 1.524 . S
C2996 C3010 1.377 . S
C2997 C2996 1.524 . S
C2997 C2998 1.397 . S
C2997 C3002 1.363 . S
C2998 H2975 0.950 . S
C2998 C2997 1.397 . S
C2998 C2999 1.334 . S
C2999 H2976 0.950 . S
C2999 C2998 1.334 . S
C2999 C3000 1.287 . S
C3000 C2999 1.287 . S
C3000 C3001 1.524 . S
C3000 H3019 0.913 . S
C3001 H2977 0.950 . S
C3001 C3000 1.524 . S
C3001 C3002 1.415 . S
C3002 H2978 0.950 . S
C3002 C2997 1.363 . S
C3002 C3001 1.415 . S
C3003 H2979 0.951 . S
C3003 C3004 1.366 . S
C3003 C3005 1.388 . S
C3004 C3003 1.366 . S
C3004 C3008 1.385 . S
C3005 H2980 0.951 . S
C3005 C3003 1.388 . S
C3005 C3006 1.366 . S
C3006 C3005 1.366 . S
C3006 C3007 1.414 . S
C3006 C3009 1.499 . S
C3007 H2981 0.950 . S
C3007 C3006 1.414 . S
C3007 C3008 1.374 . S
C3008 H2982 0.950 . S
C3008 C3004 1.385 . S
C3008 C3007 1.374 . S
C3009 C3006 1.499 . S
C3009 C3010 1.373 . S
C3009 C3011 1.389 . S
C3010 H2983 0.950 . S
C3010 C2996 1.377 . S
C3010 C3009 1.373 . S
C3011 C2995 1.377 . S
C3011 C3009 1.389 . S
C3011 C3012 1.524 . S
C3012 C3011 1.524 . S
C3012 C3013 1.397 . S
C3012 C3017 1.363 . S
C3013 H2984 0.950 . S
C3013 C3012 1.397 . S
C3013 C3014 1.334 . S
C3014 H2985 0.950 . S
C3014 C3013 1.334 . S
C3014 C3015 1.287 . S
C3015 C3014 1.287 . S
C3015 C3016 1.524 . S
C3015 H3018 0.999 . S
C3016 H2986 0.950 . S
C3016 C3015 1.524 . S
C3016 C3017 1.415 . S
C3017 H2987 0.950 . S
C3017 C3012 1.363 . S
C3017 C3016 1.415 . S
H3018 C3015 0.999 . S
H3019 C3000 0.913 . S
H3020 C3038 0.951 . S
H3021 C3040 0.951 . S
H3022 C3042 0.950 . S
H3023 C3043 0.950 . S
H3024 C3045 0.950 . S
H3025 C3048 0.950 . S
H3026 C3049 0.950 . S
H3027 C3051 0.950 . S
H3028 C3052 0.950 . S
H3029 C3053 0.951 . S
H3030 C3055 0.951 . S
H3031 C3057 0.950 . S
H3032 C3058 0.950 . S
H3033 C3060 0.950 . S
H3034 C3063 0.950 . S
H3035 C3064 0.950 . S
H3036 C3066 0.950 . S
H3037 C3067 0.950 . S
C3038 H3020 0.951 . S
C3038 C3039 1.366 . S
C3038 C3040 1.388 . S
C3039 C3038 1.366 . S
C3039 C3043 1.385 . S
C3040 H3021 0.951 . S
C3040 C3038 1.388 . S
C3040 C3041 1.366 . S
C3041 C3040 1.366 . S
C3041 C3042 1.414 . S
C3041 C3044 1.499 . S
C3042 H3022 0.950 . S
C3042 C3041 1.414 . S
C3042 C3043 1.374 . S
C3043 H3023 0.950 . S
C3043 C3039 1.385 . S
C3043 C3042 1.374 . S
C3044 C3041 1.499 . S
C3044 C3045 1.373 . S
C3044 C3046 1.389 . S
C3045 H3024 0.950 . S
C3045 C3044 1.373 . S
C3045 C3061 1.377 . S
C3046 C3044 1.389 . S
C3046 C3047 1.524 . S
C3046 C3060 1.377 . S
C3047 C3046 1.524 . S
C3047 C3048 1.397 . S
C3047 C3052 1.363 . S
C3048 H3025 0.950 . S
C3048 C3047 1.397 . S
C3048 C3049 1.334 . S
C3049 H3026 0.950 . S
C3049 C3048 1.334 . S
C3049 C3050 1.287 . S
C3050 C3049 1.287 . S
C3050 C3051 1.524 . S
C3050 H3069 0.913 . S
C3051 H3027 0.950 . S
C3051 C3050 1.524 . S
C3051 C3052 1.415 . S
C3052 H3028 0.950 . S
C3052 C3047 1.363 . S
C3052 C3051 1.415 . S
C3053 H3029 0.951 . S
C3053 C3054 1.366 . S
C3053 C3055 1.388 . S
C3054 C3053 1.366 . S
C3054 C3058 1.385 . S
C3055 H3030 0.951 . S
C3055 C3053 1.388 . S
C3055 C3056 1.366 . S
C3056 C3055 1.366 . S
C3056 C3057 1.414 . S
C3056 C3059 1.499 . S
C3057 H3031 0.950 . S
C3057 C3056 1.414 . S
C3057 C3058 1.374 . S
C3058 H3032 0.950 . S
C3058 C3054 1.385 . S
C3058 C3057 1.374 . S
C3059 C3056 1.499 . S
C3059 C3060 1.373 . S
C3059 C3061 1.389 . S
C3060 H3033 0.950 . S
C3060 C3046 1.377 . S
C3060 C3059 1.373 . S
C3061 C3045 1.377 . S
C3061 C3059 1.389 . S
C3061 C3062 1.524 . S
C3062 C3061 1.524 . S
C3062 C3063 1.397 . S
C3062 C3067 1.363 . S
C3063 H3034 0.950 . S
C3063 C3062 1.397 . S
C3063 C3064 1.334 . S
C3064 H3035 0.950 . S
C3064 C3063 1.334 . S
C3064 C3065 1.287 . S
C3065 C3064 1.287 . S
C3065 C3066 1.524 . S
C3065 H3068 0.999 . S
C3066 H3036 0.950 . S
C3066 C3065 1.524 . S
C3066 C3067 1.415 . S
C3067 H3037 0.950 . S
C3067 C3062 1.363 . S
C3067 C3066 1.415 . S
H3068 C3065 0.999 . S
H3069 C3050 0.913 . S
H3070 C3088 0.951 . S
H3071 C3090 0.951 . S
H3072 C3092 0.950 . S
H3073 C3093 0.950 . S
H3074 C3095 0.950 . S
H3075 C3098 0.950 . S
H3076 C3099 0.950 . S
H3077 C3101 0.950 . S
H3078 C3102 0.950 . S
H3079 C3103 0.951 . S
H3080 C3105 0.951 . S
H3081 C3107 0.950 . S
H3082 C3108 0.950 . S
H3083 C3110 0.950 . S
H3084 C3113 0.950 . S
H3085 C3114 0.950 . S
H3086 C3116 0.950 . S
H3087 C3117 0.950 . S
C3088 H3070 0.951 . S
C3088 C3089 1.366 . S
C3088 C3090 1.388 . S
C3089 C3088 1.366 . S
C3089 C3093 1.385 . S
C3090 H3071 0.951 . S
C3090 C3088 1.388 . S
C3090 C3091 1.366 . S
C3091 C3090 1.366 . S
C3091 C3092 1.414 . S
C3091 C3094 1.499 . S
C3092 H3072 0.950 . S
C3092 C3091 1.414 . S
C3092 C3093 1.374 . S
C3093 H3073 0.950 . S
C3093 C3089 1.385 . S
C3093 C3092 1.374 . S
C3094 C3091 1.499 . S
C3094 C3095 1.373 . S
C3094 C3096 1.389 . S
C3095 H3074 0.950 . S
C3095 C3094 1.373 . S
C3095 C3111 1.377 . S
C3096 C3094 1.389 . S
C3096 C3097 1.524 . S
C3096 C3110 1.377 . S
C3097 C3096 1.524 . S
C3097 C3098 1.397 . S
C3097 C3102 1.363 . S
C3098 H3075 0.950 . S
C3098 C3097 1.397 . S
C3098 C3099 1.334 . S
C3099 H3076 0.950 . S
C3099 C3098 1.334 . S
C3099 C3100 1.287 . S
C3100 C3099 1.287 . S
C3100 C3101 1.524 . S
C3100 H3119 0.913 . S
C3101 H3077 0.950 . S
C3101 C3100 1.524 . S
C3101 C3102 1.415 . S
C3102 H3078 0.950 . S
C3102 C3097 1.363 . S
C3102 C3101 1.415 . S
C3103 H3079 0.951 . S
C3103 C3104 1.366 . S
C3103 C3105 1.388 . S
C3104 C3103 1.366 . S
C3104 C3108 1.385 . S
C3105 H3080 0.951 . S
C3105 C3103 1.388 . S
C3105 C3106 1.366 . S
C3106 C3105 1.366 . S
C3106 C3107 1.414 . S
C3106 C3109 1.499 . S
C3107 H3081 0.950 . S
C3107 C3106 1.414 . S
C3107 C3108 1.374 . S
C3108 H3082 0.950 . S
C3108 C3104 1.385 . S
C3108 C3107 1.374 . S
C3109 C3106 1.499 . S
C3109 C3110 1.373 . S
C3109 C3111 1.389 . S
C3110 H3083 0.950 . S
C3110 C3096 1.377 . S
C3110 C3109 1.373 . S
C3111 C3095 1.377 . S
C3111 C3109 1.389 . S
C3111 C3112 1.524 . S
C3112 C3111 1.524 . S
C3112 C3113 1.397 . S
C3112 C3117 1.363 . S
C3113 H3084 0.950 . S
C3113 C3112 1.397 . S
C3113 C3114 1.334 . S
C3114 H3085 0.950 . S
C3114 C3113 1.334 . S
C3114 C3115 1.287 . S
C3115 C3114 1.287 . S
C3115 C3116 1.524 . S
C3115 H3118 0.999 . S
C3116 H3086 0.950 . S
C3116 C3115 1.524 . S
C3116 C3117 1.415 . S
C3117 H3087 0.950 . S
C3117 C3112 1.363 . S
C3117 C3116 1.415 . S
H3118 C3115 0.999 . S
H3119 C3100 0.913 . S
H3120 C3138 0.951 . S
H3121 C3140 0.951 . S
H3122 C3142 0.950 . S
H3123 C3143 0.950 . S
H3124 C3145 0.950 . S
H3125 C3148 0.950 . S
H3126 C3149 0.950 . S
H3127 C3151 0.950 . S
H3128 C3152 0.950 . S
H3129 C3153 0.951 . S
H3130 C3155 0.951 . S
H3131 C3157 0.950 . S
H3132 C3158 0.950 . S
H3133 C3160 0.950 . S
H3134 C3163 0.950 . S
H3135 C3164 0.950 . S
H3136 C3166 0.950 . S
H3137 C3167 0.950 . S
C3138 H3120 0.951 . S
C3138 C3139 1.366 . S
C3138 C3140 1.388 . S
C3139 C3138 1.366 . S
C3139 C3143 1.385 . S
C3140 H3121 0.951 . S
C3140 C3138 1.388 . S
C3140 C3141 1.366 . S
C3141 C3140 1.366 . S
C3141 C3142 1.414 . S
C3141 C3144 1.499 . S
C3142 H3122 0.950 . S
C3142 C3141 1.414 . S
C3142 C3143 1.374 . S
C3143 H3123 0.950 . S
C3143 C3139 1.385 . S
C3143 C3142 1.374 . S
C3144 C3141 1.499 . S
C3144 C3145 1.373 . S
C3144 C3146 1.389 . S
C3145 H3124 0.950 . S
C3145 C3144 1.373 . S
C3145 C3161 1.377 . S
C3146 C3144 1.389 . S
C3146 C3147 1.524 . S
C3146 C3160 1.377 . S
C3147 C3146 1.524 . S
C3147 C3148 1.397 . S
C3147 C3152 1.363 . S
C3148 H3125 0.950 . S
C3148 C3147 1.397 . S
C3148 C3149 1.334 . S
C3149 H3126 0.950 . S
C3149 C3148 1.334 . S
C3149 C3150 1.287 . S
C3150 C3149 1.287 . S
C3150 C3151 1.524 . S
C3150 H3169 0.913 . S
C3151 H3127 0.950 . S
C3151 C3150 1.524 . S
C3151 C3152 1.415 . S
C3152 H3128 0.950 . S
C3152 C3147 1.363 . S
C3152 C3151 1.415 . S
C3153 H3129 0.951 . S
C3153 C3154 1.366 . S
C3153 C3155 1.388 . S
C3154 C3153 1.366 . S
C3154 C3158 1.385 . S
C3155 H3130 0.951 . S
C3155 C3153 1.388 . S
C3155 C3156 1.366 . S
C3156 C3155 1.366 . S
C3156 C3157 1.414 . S
C3156 C3159 1.499 . S
C3157 H3131 0.950 . S
C3157 C3156 1.414 . S
C3157 C3158 1.374 . S
C3158 H3132 0.950 . S
C3158 C3154 1.385 . S
C3158 C3157 1.374 . S
C3159 C3156 1.499 . S
C3159 C3160 1.373 . S
C3159 C3161 1.389 . S
C3160 H3133 0.950 . S
C3160 C3146 1.377 . S
C3160 C3159 1.373 . S
C3161 C3145 1.377 . S
C3161 C3159 1.389 . S
C3161 C3162 1.524 . S
C3162 C3161 1.524 . S
C3162 C3163 1.397 . S
C3162 C3167 1.363 . S
C3163 H3134 0.950 . S
C3163 C3162 1.397 . S
C3163 C3164 1.334 . S
C3164 H3135 0.950 . S
C3164 C3163 1.334 . S
C3164 C3165 1.287 . S
C3165 C3164 1.287 . S
C3165 C3166 1.524 . S
C3165 H3168 0.965 1_545 S
C3166 H3136 0.950 . S
C3166 C3165 1.524 . S
C3166 C3167 1.415 . S
C3167 H3137 0.950 . S
C3167 C3162 1.363 . S
C3167 C3166 1.415 . S
H3168 C3165 0.965 1_565 S
H3169 C3150 0.913 . S
H3170 C3188 0.951 . S
H3171 C3190 0.951 . S
H3172 C3192 0.950 . S
H3173 C3193 0.950 . S
H3174 C3195 0.950 . S
H3175 C3198 0.950 . S
H3176 C3199 0.950 . S
H3177 C3201 0.950 . S
H3178 C3202 0.950 . S
H3179 C3203 0.951 . S
H3180 C3205 0.951 . S
H3181 C3207 0.950 . S
H3182 C3208 0.950 . S
H3183 C3210 0.950 . S
H3184 C3213 0.950 . S
H3185 C3214 0.950 . S
H3186 C3216 0.950 . S
H3187 C3217 0.950 . S
C3188 H3170 0.951 . S
C3188 C3189 1.366 . S
C3188 C3190 1.388 . S
C3189 C3188 1.366 . S
C3189 C3193 1.385 . S
C3190 H3171 0.951 . S
C3190 C3188 1.388 . S
C3190 C3191 1.366 . S
C3191 C3190 1.366 . S
C3191 C3192 1.414 . S
C3191 C3194 1.499 . S
C3192 H3172 0.950 . S
C3192 C3191 1.414 . S
C3192 C3193 1.374 . S
C3193 H3173 0.950 . S
C3193 C3189 1.385 . S
C3193 C3192 1.374 . S
C3194 C3191 1.499 . S
C3194 C3195 1.373 . S
C3194 C3196 1.389 . S
C3195 H3174 0.950 . S
C3195 C3194 1.373 . S
C3195 C3211 1.377 . S
C3196 C3194 1.389 . S
C3196 C3197 1.524 . S
C3196 C3210 1.377 . S
C3197 C3196 1.524 . S
C3197 C3198 1.397 . S
C3197 C3202 1.363 . S
C3198 H3175 0.950 . S
C3198 C3197 1.397 . S
C3198 C3199 1.334 . S
C3199 H3176 0.950 . S
C3199 C3198 1.334 . S
C3199 C3200 1.287 . S
C3200 C3199 1.287 . S
C3200 C3201 1.524 . S
C3200 H3219 0.913 . S
C3201 H3177 0.950 . S
C3201 C3200 1.524 . S
C3201 C3202 1.415 . S
C3202 H3178 0.950 . S
C3202 C3197 1.363 . S
C3202 C3201 1.415 . S
C3203 H3179 0.951 . S
C3203 C3204 1.366 . S
C3203 C3205 1.388 . S
C3204 C3203 1.366 . S
C3204 C3208 1.385 . S
C3205 H3180 0.951 . S
C3205 C3203 1.388 . S
C3205 C3206 1.366 . S
C3206 C3205 1.366 . S
C3206 C3207 1.414 . S
C3206 C3209 1.499 . S
C3207 H3181 0.950 . S
C3207 C3206 1.414 . S
C3207 C3208 1.374 . S
C3208 H3182 0.950 . S
C3208 C3204 1.385 . S
C3208 C3207 1.374 . S
C3209 C3206 1.499 . S
C3209 C3210 1.373 . S
C3209 C3211 1.389 . S
C3210 H3183 0.950 . S
C3210 C3196 1.377 . S
C3210 C3209 1.373 . S
C3211 C3195 1.377 . S
C3211 C3209 1.389 . S
C3211 C3212 1.524 . S
C3212 C3211 1.524 . S
C3212 C3213 1.397 . S
C3212 C3217 1.363 . S
C3213 H3184 0.950 . S
C3213 C3212 1.397 . S
C3213 C3214 1.334 . S
C3214 H3185 0.950 . S
C3214 C3213 1.334 . S
C3214 C3215 1.287 . S
C3215 C3214 1.287 . S
C3215 C3216 1.524 . S
C3215 H3218 0.999 . S
C3216 H3186 0.950 . S
C3216 C3215 1.524 . S
C3216 C3217 1.415 . S
C3217 H3187 0.950 . S
C3217 C3212 1.363 . S
C3217 C3216 1.415 . S
H3218 C3215 0.999 . S
H3219 C3200 0.913 . S
H3220 C3238 0.951 . S
H3221 C3240 0.951 . S
H3222 C3242 0.950 . S
H3223 C3243 0.950 . S
H3224 C3245 0.950 . S
H3225 C3248 0.950 . S
H3226 C3249 0.950 . S
H3227 C3251 0.950 . S
H3228 C3252 0.950 . S
H3229 C3253 0.951 . S
H3230 C3255 0.951 . S
H3231 C3257 0.950 . S
H3232 C3258 0.950 . S
H3233 C3260 0.950 . S
H3234 C3263 0.950 . S
H3235 C3264 0.950 . S
H3236 C3266 0.950 . S
H3237 C3267 0.950 . S
C3238 H3220 0.951 . S
C3238 C3239 1.366 . S
C3238 C3240 1.388 . S
C3239 C3238 1.366 . S
C3239 C3243 1.385 . S
C3240 H3221 0.951 . S
C3240 C3238 1.388 . S
C3240 C3241 1.366 . S
C3241 C3240 1.366 . S
C3241 C3242 1.414 . S
C3241 C3244 1.499 . S
C3242 H3222 0.950 . S
C3242 C3241 1.414 . S
C3242 C3243 1.374 . S
C3243 H3223 0.950 . S
C3243 C3239 1.385 . S
C3243 C3242 1.374 . S
C3244 C3241 1.499 . S
C3244 C3245 1.373 . S
C3244 C3246 1.389 . S
C3245 H3224 0.950 . S
C3245 C3244 1.373 . S
C3245 C3261 1.377 . S
C3246 C3244 1.389 . S
C3246 C3247 1.524 . S
C3246 C3260 1.377 . S
C3247 C3246 1.524 . S
C3247 C3248 1.397 . S
C3247 C3252 1.363 . S
C3248 H3225 0.950 . S
C3248 C3247 1.397 . S
C3248 C3249 1.334 . S
C3249 H3226 0.950 . S
C3249 C3248 1.334 . S
C3249 C3250 1.287 . S
C3250 C3249 1.287 . S
C3250 C3251 1.524 . S
C3250 H3269 0.913 . S
C3251 H3227 0.950 . S
C3251 C3250 1.524 . S
C3251 C3252 1.415 . S
C3252 H3228 0.950 . S
C3252 C3247 1.363 . S
C3252 C3251 1.415 . S
C3253 H3229 0.951 . S
C3253 C3254 1.366 . S
C3253 C3255 1.388 . S
C3254 C3253 1.366 . S
C3254 C3258 1.385 . S
C3255 H3230 0.951 . S
C3255 C3253 1.388 . S
C3255 C3256 1.366 . S
C3256 C3255 1.366 . S
C3256 C3257 1.414 . S
C3256 C3259 1.499 . S
C3257 H3231 0.950 . S
C3257 C3256 1.414 . S
C3257 C3258 1.374 . S
C3258 H3232 0.950 . S
C3258 C3254 1.385 . S
C3258 C3257 1.374 . S
C3259 C3256 1.499 . S
C3259 C3260 1.373 . S
C3259 C3261 1.389 . S
C3260 H3233 0.950 . S
C3260 C3246 1.377 . S
C3260 C3259 1.373 . S
C3261 C3245 1.377 . S
C3261 C3259 1.389 . S
C3261 C3262 1.524 . S
C3262 C3261 1.524 . S
C3262 C3263 1.397 . S
C3262 C3267 1.363 . S
C3263 H3234 0.950 . S
C3263 C3262 1.397 . S
C3263 C3264 1.334 . S
C3264 H3235 0.950 . S
C3264 C3263 1.334 . S
C3264 C3265 1.287 . S
C3265 C3264 1.287 . S
C3265 C3266 1.524 . S
C3265 H3268 0.999 . S
C3266 H3236 0.950 . S
C3266 C3265 1.524 . S
C3266 C3267 1.415 . S
C3267 H3237 0.950 . S
C3267 C3262 1.363 . S
C3267 C3266 1.415 . S
H3268 C3265 0.999 . S
H3269 C3250 0.913 . S
C904 C699 1.172 . S
C889 C74 1.194 . S
C954 C700 0.454 . S
C939 C142 0.718 . S
C1004 C694 1.105 . S
C989 C231 1.080 . S
C1039 C322 1.168 . S
C1054 C693 1.266 . S
C1089 C406 0.720 . S
C1104 C696 0.455 . S
C1154 C698 1.106 . S
C1139 C494 1.078 . S
C1189 C562 1.169 . S
C1204 C697 1.265 . S
C1239 C651 1.194 . S
C1254 C695 1.173 . S
C1304 C730 1.693 . S
C1289 C58 1.549 . S
C1339 C151 1.536 . S
C1354 C761 1.512 . S
C1404 C729 2.521 . S
C1389 C224 2.433 . S
C1454 C764 1.072 . S
C1439 C315 1.038 . S
C1489 C399 1.369 . S
C1504 C727 1.408 . S
C1554 C759 1.653 . S
C1539 C478 1.518 . S
C1589 C571 1.143 . S
C1604 C732 1.169 . S
C1639 C644 2.479 . S
C1654 C766 2.535 . S
C1689 C67 2.479 . S
C1704 C762 2.534 . S
C1739 C392 1.536 . S
C1754 C765 1.513 . S
C1804 C733 2.521 . S
C1789 C487 2.435 . S
C1854 C760 1.072 . S
C1839 C578 1.043 . S
C1889 C658 1.550 . S
C1904 C726 1.694 . S
C1939 C238 1.518 . S
C1954 C763 1.652 . S
C2004 C728 1.170 . S
C1989 C308 1.140 . S
C2039 C158 1.370 . S
C2054 C731 1.407 . S
C2089 C662 1.140 . S
C2104 C798 1.113 . S
C2139 C394 0.924 . S
C2154 C799 0.506 . S
C2204 C793 1.274 . S
C2189 C483 1.247 . S
C2254 C792 1.728 . S
C2239 C574 1.545 . S
C2289 C154 0.925 . S
C2304 C795 0.509 . S
C2354 C797 1.273 . S
C2339 C242 1.246 . S
C2389 C310 1.542 . S
C2404 C796 1.728 . S
C2439 C63 1.140 . S
C2454 C794 1.112 . S
C2489 C646 1.619 . S
C2504 C832 1.720 . S
C2554 C864 1.096 . S
C2539 C403 1.106 . S
C2589 C476 2.326 . S
C2604 C825 2.456 . S
C2639 C567 1.379 . S
C2654 C859 1.442 . S
C2704 C830 1.147 . S
C2689 C147 1.070 . S
C2739 C226 1.709 . S
C2754 C861 1.779 . S
C2804 C827 1.430 . S
C2789 C319 1.455 . S
C2854 C862 2.463 . S
C2839 C56 2.275 . S
C2904 C858 2.463 . S
C2889 C655 2.275 . S
C2939 C140 1.104 . S
C2954 C860 1.097 . S
C2989 C235 2.326 . S
C3004 C829 2.456 . S
C3054 C863 1.442 . S
C3039 C326 1.380 . S
C3089 C70 1.618 . S
C3104 C828 1.721 . S
C3139 C490 1.710 . S
C3154 C865 1.779 . S
C3204 C831 1.429 . S
C3189 C560 1.455 . S
C3254 C826 1.148 . S
C3239 C410 1.071 . S
