# Generated by pormake.
# Topology pyr, (3,6)-cn, num edge types: 1
# Building blocks:
#     Node 0, Type 0, BuildingBlock: OLANEW_clean_sbu_2, # of connection points: 3
#     Node 1, Type 0, BuildingBlock: OLANEW_clean_sbu_2, # of connection points: 3
#     Node 2, Type 0, BuildingBlock: OLANEW_clean_sbu_2, # of connection points: 3
#     Node 3, Type 0, BuildingBlock: OLANEW_clean_sbu_2, # of connection points: 3
#     Node 4, Type 0, BuildingBlock: OLANEW_clean_sbu_2, # of connection points: 3
#     Node 5, Type 0, BuildingBlock: OLANEW_clean_sbu_2, # of connection points: 3
#     Node 6, Type 0, BuildingBlock: OLANEW_clean_sbu_2, # of connection points: 3
#     Node 7, Type 0, BuildingBlock: OLANEW_clean_sbu_2, # of connection points: 3
#     Node 8, Type 1, BuildingBlock: MIFKUJ_clean_sbu_0, # of connection points: 6
#     Node 9, Type 1, BuildingBlock: MIFKUJ_clean_sbu_0, # of connection points: 6
#     Node 10, Type 1, BuildingBlock: MIFKUJ_clean_sbu_0, # of connection points: 6
#     Node 11, Type 1, BuildingBlock: MIFKUJ_clean_sbu_0, # of connection points: 6
#     Edge 12, Type (0, 1), BuildingBlock: MIFKUJ_clean_linker_0, # of connection points: 2
#     Edge 13, Type (0, 1), BuildingBlock: MIFKUJ_clean_linker_0, # of connection points: 2
#     Edge 14, Type (0, 1), BuildingBlock: MIFKUJ_clean_linker_0, # of connection points: 2
#     Edge 15, Type (0, 1), BuildingBlock: MIFKUJ_clean_linker_0, # of connection points: 2
#     Edge 16, Type (0, 1), BuildingBlock: MIFKUJ_clean_linker_0, # of connection points: 2
#     Edge 17, Type (0, 1), BuildingBlock: MIFKUJ_clean_linker_0, # of connection points: 2
#     Edge 18, Type (0, 1), BuildingBlock: MIFKUJ_clean_linker_0, # of connection points: 2
#     Edge 19, Type (0, 1), BuildingBlock: MIFKUJ_clean_linker_0, # of connection points: 2
#     Edge 20, Type (0, 1), BuildingBlock: MIFKUJ_clean_linker_0, # of connection points: 2
#     Edge 21, Type (0, 1), BuildingBlock: MIFKUJ_clean_linker_0, # of connection points: 2
#     Edge 22, Type (0, 1), BuildingBlock: MIFKUJ_clean_linker_0, # of connection points: 2
#     Edge 23, Type (0, 1), BuildingBlock: MIFKUJ_clean_linker_0, # of connection points: 2
#     Edge 24, Type (0, 1), BuildingBlock: MIFKUJ_clean_linker_0, # of connection points: 2
#     Edge 25, Type (0, 1), BuildingBlock: MIFKUJ_clean_linker_0, # of connection points: 2
#     Edge 26, Type (0, 1), BuildingBlock: MIFKUJ_clean_linker_0, # of connection points: 2
#     Edge 27, Type (0, 1), BuildingBlock: MIFKUJ_clean_linker_0, # of connection points: 2
#     Edge 28, Type (0, 1), BuildingBlock: MIFKUJ_clean_linker_0, # of connection points: 2
#     Edge 29, Type (0, 1), BuildingBlock: MIFKUJ_clean_linker_0, # of connection points: 2
#     Edge 30, Type (0, 1), BuildingBlock: MIFKUJ_clean_linker_0, # of connection points: 2
#     Edge 31, Type (0, 1), BuildingBlock: MIFKUJ_clean_linker_0, # of connection points: 2
#     Edge 32, Type (0, 1), BuildingBlock: MIFKUJ_clean_linker_0, # of connection points: 2
#     Edge 33, Type (0, 1), BuildingBlock: MIFKUJ_clean_linker_0, # of connection points: 2
#     Edge 34, Type (0, 1), BuildingBlock: MIFKUJ_clean_linker_0, # of connection points: 2
#     Edge 35, Type (0, 1), BuildingBlock: MIFKUJ_clean_linker_0, # of connection points: 2
# Relax obj value: 0.068
# Max RMSD: 0.170
# Mean RMSD: 0.123
data_MOF--net-pyr--node1-OLANEW_clean_sbu_2--node2-MIFKUJ_clean_sbu_0--edge1-MIFKUJ_clean_linker_0
_symmetry_space_group_name_H-M    P1
_symmetry_Int_Tables_number       1
_symmetry_cell_setting            triclinic
loop_
_symmetry_equiv_pos_as_xyz
'x, y, z'
_cell_length_a     53.111683
_cell_length_b     47.98786
_cell_length_c     50.885759
_cell_angle_alpha  90.495672
_cell_angle_beta   87.424574
_cell_angle_gamma 100.85264
loop_
_atom_site_label
_atom_site_type_symbol
_atom_site_fract_x
_atom_site_fract_y
_atom_site_fract_z
_atom_type_partial_charge
O0 O 0.24662 0.20521 0.20497 0.0
Cd1 Cd 0.211 0.21749 0.23225 0.0
O2 O 0.22423 0.16494 0.19106 0.0
Cd3 Cd 0.19188 0.1678 0.21828 0.0
O4 O 0.16878 0.15927 0.25494 0.0
C5 C 0.17959 0.14889 0.2733 0.0
O6 O 0.20326 0.14493 0.26905 0.0
C7 C 0.24508 0.18305 0.19076 0.0
C8 C 0.18056 0.2481 0.20505 0.0
O9 O 0.20046 0.26074 0.21668 0.0
O10 O 0.17512 0.22094 0.20614 0.0
O11 O 0.37019 0.89747 0.78384 0.0
Cd12 Cd 0.3509 0.88546 0.7415 0.0
O13 O 0.35335 0.93577 0.7894 0.0
Cd14 Cd 0.32786 0.92723 0.75652 0.0
O15 O 0.29331 0.92566 0.73428 0.0
C16 C 0.29265 0.9223 0.7095 0.0
O17 O 0.31362 0.91906 0.69608 0.0
C18 C 0.36797 0.91958 0.79703 0.0
C19 C 0.37555 0.84671 0.71425 0.0
O20 O 0.38447 0.87342 0.71295 0.0
O21 O 0.35488 0.83832 0.72826 0.0
O22 O 0.74624 0.43738 0.83265 0.0
Cd23 Cd 0.71102 0.4208 0.80371 0.0
O24 O 0.73633 0.39276 0.84406 0.0
Cd25 Cd 0.73757 0.35621 0.86884 0.0
O26 O 0.72115 0.32007 0.89378 0.0
C27 C 0.6975 0.31821 0.90025 0.0
O28 O 0.68548 0.33782 0.89199 0.0
C29 C 0.75048 0.41704 0.84655 0.0
C30 C 0.69426 0.46061 0.77274 0.0
O31 O 0.684 0.45421 0.79572 0.0
O32 O 0.71313 0.44899 0.7649 0.0
O33 O 0.89617 0.7821 0.27317 0.0
Cd34 Cd 0.87934 0.7598 0.23265 0.0
O35 O 0.86799 0.75105 0.29546 0.0
Cd36 Cd 0.84448 0.73319 0.32979 0.0
O37 O 0.81034 0.7112 0.35173 0.0
C38 C 0.80171 0.72082 0.37294 0.0
O39 O 0.81423 0.74452 0.38287 0.0
C40 C 0.88606 0.77258 0.29518 0.0
C41 C 0.90455 0.71737 0.21346 0.0
O42 O 0.91278 0.7435 0.20751 0.0
O43 O 0.88454 0.7113 0.2289 0.0
O44 O 0.85882 0.82525 0.81913 0.0
Cd45 Cd 0.83469 0.7988 0.85576 0.0
O46 O 0.8439 0.86486 0.8247 0.0
Cd47 Cd 0.81757 0.85224 0.85865 0.0
O48 O 0.78717 0.86228 0.88561 0.0
C49 C 0.77664 0.88228 0.87785 0.0
O50 O 0.78435 0.89419 0.855 0.0
C51 C 0.8583 0.85048 0.81212 0.0
C52 C 0.86267 0.7597 0.87399 0.0
O53 O 0.84843 0.75396 0.85425 0.0
O54 O 0.8634 0.78374 0.88539 0.0
O55 O 0.66559 0.13106 0.37984 0.0
Cd56 Cd 0.6757 0.13869 0.42602 0.0
O57 O 0.65841 0.1744 0.38033 0.0
Cd58 Cd 0.64481 0.21213 0.3674 0.0
O59 O 0.6342 0.25357 0.3736 0.0
C60 C 0.61121 0.25736 0.37267 0.0
O61 O 0.59323 0.23601 0.36613 0.0
C62 C 0.65884 0.1514 0.36787 0.0
C63 C 0.72316 0.12659 0.43805 0.0
O64 O 0.70285 0.1073 0.43916 0.0
O65 O 0.72107 0.15158 0.43092 0.0
O66 O 0.41245 0.70963 0.19922 0.0
Cd67 Cd 0.39824 0.65851 0.20522 0.0
O68 O 0.37413 0.71894 0.193 0.0
Cd69 Cd 0.35338 0.67524 0.19473 0.0
O70 O 0.32055 0.64407 0.18263 0.0
C71 C 0.31744 0.64131 0.15806 0.0
O72 O 0.33479 0.65577 0.14166 0.0
C73 C 0.39813 0.7274 0.19489 0.0
C74 C 0.41361 0.64125 0.25318 0.0
O75 O 0.42914 0.64492 0.23297 0.0
O76 O 0.39072 0.64549 0.25071 0.0
O77 O 0.23848 0.35376 0.81071 0.0
Cd78 Cd 0.26862 0.33099 0.78448 0.0
O79 O 0.2076 0.32661 0.79061 0.0
Cd80 Cd 0.1695 0.30437 0.78016 0.0
O81 O 0.14316 0.27217 0.75924 0.0
C82 C 0.12936 0.27844 0.74123 0.0
O83 O 0.12976 0.30528 0.73595 0.0
C84 C 0.2146 0.34572 0.80766 0.0
C85 C 0.30195 0.36887 0.75189 0.0
O86 O 0.28067 0.35528 0.74355 0.0
O87 O 0.30733 0.36463 0.77566 0.0
Zn88 Zn 0.03601 0.99142 0.54998 0.0
Zn89 Zn 0.98789 0.00847 0.53025 0.0
C90 C 0.05761 0.04648 0.56862 0.0
O91 O 0.07755 0.04063 0.55493 0.0
C92 C 0.95992 0.95709 0.5096 0.0
O93 O 0.9413 0.96604 0.52308 0.0
O94 O 0.06602 0.97611 0.56282 0.0
O95 O 0.00448 0.96384 0.5623 0.0
O96 O 0.98478 0.99964 0.56904 0.0
C97 C 0.06681 0.97249 0.58747 0.0
O98 O 0.04794 0.97815 0.60296 0.0
O99 O 0.03674 0.02846 0.56923 0.0
C100 C 0.95837 0.05217 0.51726 0.0
O101 O 0.98038 0.07004 0.51758 0.0
O102 O 0.95759 0.02614 0.52232 0.0
O103 O 0.01935 0.03383 0.51428 0.0
O104 O 0.04244 0.00024 0.51148 0.0
O105 O 0.98258 0.9715 0.51015 0.0
C106 C 0.98846 0.97532 0.57571 0.0
C107 C 0.03737 0.02338 0.50314 0.0
Zn108 Zn 0.55084 0.0225 0.05853 0.0
Zn109 Zn 0.51202 0.05962 0.0833 0.0
C110 C 0.51318 0.98787 0.02799 0.0
O111 O 0.52251 0.96796 0.03968 0.0
C112 C 0.55041 0.09539 0.11559 0.0
O113 O 0.55289 0.11378 0.09624 0.0
O114 O 0.57804 0.00147 0.0443 0.0
O115 O 0.56675 0.06344 0.05653 0.0
O116 O 0.53031 0.0771 0.04969 0.0
C117 C 0.58748 0.00846 0.02135 0.0
O118 O 0.57922 0.0286 0.00883 0.0
O119 O 0.52194 0.01372 0.03341 0.0
C120 C 0.47892 0.10005 0.09886 0.0
O121 O 0.50048 0.11624 0.10541 0.0
O122 O 0.47942 0.07571 0.08895 0.0
O123 O 0.50044 0.017 0.08717 0.0
O124 O 0.53844 0.00727 0.09407 0.0
O125 O 0.5347 0.07195 0.11391 0.0
C126 C 0.55458 0.08061 0.04628 0.0
C127 C 0.51427 0.00185 0.09808 0.0
Zn128 Zn 0.52745 0.54502 0.52785 0.0
Zn129 Zn 0.51714 0.5963 0.5573 0.0
C130 C 0.56206 0.57159 0.48678 0.0
O131 O 0.54692 0.55332 0.4724 0.0
C132 C 0.48747 0.56435 0.59749 0.0
O133 O 0.50402 0.5822 0.61083 0.0
O134 O 0.53006 0.50726 0.51154 0.0
O135 O 0.53394 0.54222 0.56631 0.0
O136 O 0.55034 0.58767 0.56999 0.0
C137 C 0.5516 0.49943 0.51214 0.0
O138 O 0.57029 0.51542 0.52444 0.0
O139 O 0.55726 0.57254 0.51143 0.0
C140 C 0.48675 0.63552 0.57368 0.0
O141 O 0.47028 0.61628 0.56165 0.0
O142 O 0.51003 0.63253 0.57407 0.0
O143 O 0.51388 0.60034 0.51834 0.0
O144 O 0.49491 0.55578 0.51582 0.0
O145 O 0.48884 0.56569 0.5725 0.0
C146 C 0.54931 0.56211 0.57713 0.0
C147 C 0.49876 0.58088 0.5068 0.0
Zn148 Zn 0.02226 0.51685 0.00037 0.0
Zn149 Zn 0.03419 0.47252 0.03821 0.0
C150 C 0.98349 0.47613 0.97685 0.0
O151 O 0.00037 0.48037 0.95694 0.0
C152 C 0.0722 0.50406 0.06867 0.0
O153 O 0.05474 0.49317 0.08673 0.0
O154 O 0.01447 0.54958 0.97923 0.0
O155 O 0.0269 0.53151 0.03707 0.0
O156 O 0.00579 0.49154 0.05405 0.0
C157 C 0.99322 0.55639 0.98665 0.0
O158 O 0.98026 0.54318 0.00696 0.0
O159 O 0.98925 0.48803 0.99875 0.0
C160 C 0.05703 0.42817 0.05368 0.0
O161 O 0.07194 0.43947 0.03372 0.0
O162 O 0.03705 0.43824 0.05989 0.0
O163 O 0.0349 0.45935 0.00024 0.0
O164 O 0.05148 0.50113 0.98333 0.0
O165 O 0.06763 0.49909 0.04459 0.0
C166 C 0.01215 0.51844 0.05511 0.0
C167 C 0.04937 0.47431 0.98299 0.0
H168 H 0.19595 0.12076 0.3136 0.0
H169 H 0.1718 0.10241 0.35369 0.0
H170 H 0.10722 0.13749 0.33029 0.0
H171 H 0.13129 0.15597 0.28988 0.0
H172 H 0.11809 0.14505 0.385 0.0
H173 H 0.10481 0.07078 0.31979 0.0
H174 H 0.11875 0.03899 0.28608 0.0
H175 H 0.16091 0.00382 0.34331 0.0
H176 H 0.14751 0.0357 0.37728 0.0
H177 H 0.02442 0.06418 0.47215 0.0
H178 H 0.04879 0.0879 0.43418 0.0
H179 H 0.10907 0.04075 0.44575 0.0
H180 H 0.08428 0.01613 0.48312 0.0
H181 H 0.10004 0.0405 0.39656 0.0
H182 H 0.11375 0.11343 0.4622 0.0
H183 H 0.101 0.1453 0.49651 0.0
H184 H 0.06012 0.18348 0.44017 0.0
H185 H 0.0723 0.15153 0.40561 0.0
C186 C 0.17669 0.12481 0.317 0.0
C187 C 0.16546 0.13963 0.29842 0.0
C188 C 0.16292 0.11428 0.33994 0.0
C189 C 0.13767 0.11838 0.3448 0.0
C190 C 0.12669 0.1341 0.32684 0.0
C191 C 0.14043 0.14452 0.30374 0.0
C192 C 0.12242 0.10493 0.36796 0.0
C193 C 0.11382 0.12219 0.38747 0.0
C194 C 0.11745 0.07516 0.37136 0.0
C195 C 0.12535 0.05581 0.35101 0.0
C196 C 0.11721 0.05642 0.32513 0.0
C197 C 0.12499 0.03836 0.30599 0.0
C198 C 0.14076 0.01945 0.31254 0.0
C199 C 0.14873 0.0185 0.33826 0.0
C200 C 0.14102 0.03654 0.35747 0.0
C201 C 0.04292 0.05895 0.46666 0.0
C202 C 0.05244 0.03828 0.4806 0.0
C203 C 0.05692 0.07266 0.44503 0.0
C204 C 0.08098 0.06646 0.43729 0.0
C205 C 0.09056 0.04591 0.45132 0.0
C206 C 0.07638 0.03186 0.47268 0.0
C207 C 0.09578 0.08055 0.414 0.0
C208 C 0.10428 0.06339 0.39431 0.0
C209 C 0.10085 0.11043 0.41065 0.0
C210 C 0.09375 0.12989 0.43136 0.0
C211 C 0.1019 0.12849 0.45716 0.0
C212 C 0.09479 0.14658 0.47666 0.0
C213 C 0.07971 0.16635 0.47053 0.0
C214 C 0.07178 0.16813 0.44489 0.0
C215 C 0.0788 0.15005 0.42533 0.0
H216 H 0.07419 0.18033 0.48563 0.0
H217 H 0.14676 0.00549 0.29769 0.0
H218 H 0.3742 0.96909 0.82505 0.0
H219 H 0.39748 0.98038 0.86531 0.0
H220 H 0.41714 0.89719 0.86449 0.0
H221 H 0.39399 0.88569 0.82407 0.0
H222 H 0.39836 0.91314 0.91379 0.0
H223 H 0.46166 0.95115 0.84651 0.0
H224 H 0.47834 0.98012 0.80752 0.0
H225 H 0.46718 0.05553 0.84886 0.0
H226 H 0.45008 0.02695 0.888 0.0
H227 H 0.49558 0.93536 0.00748 0.0
H228 H 0.46814 0.92359 0.97029 0.0
H229 H 0.46054 0.01126 0.96435 0.0
H230 H 0.48856 0.02332 0.00122 0.0
H231 H 0.47218 0.99325 0.91838 0.0
H232 H 0.40895 0.95659 0.98555 0.0
H233 H 0.38811 0.92817 0.02342 0.0
H234 H 0.3968 0.8515 0.98286 0.0
H235 H 0.41785 0.87944 0.94482 0.0
C236 C 0.38349 0.95317 0.83338 0.0
C237 C 0.38227 0.92649 0.82131 0.0
C238 C 0.39685 0.95971 0.85635 0.0
C239 C 0.40913 0.93967 0.86776 0.0
C240 C 0.40779 0.91294 0.85594 0.0
C241 C 0.39464 0.90646 0.83281 0.0
C242 C 0.42319 0.94656 0.8922 0.0
C243 C 0.41475 0.93039 0.9148 0.0
C244 C 0.44399 0.96964 0.89358 0.0
C245 C 0.45434 0.98687 0.87009 0.0
C246 C 0.46255 0.97388 0.84721 0.0
C247 C 0.47213 0.99024 0.8251 0.0
C248 C 0.47376 0.01964 0.82568 0.0
C249 C 0.46587 0.03275 0.84842 0.0
C250 C 0.45626 0.01649 0.87058 0.0
C251 C 0.48781 0.9521 0.99851 0.0
C252 C 0.4944 0.98033 0.00723 0.0
C253 C 0.47195 0.94529 0.97729 0.0
C254 C 0.46207 0.96648 0.96454 0.0
C255 C 0.46796 0.99453 0.9738 0.0
C256 C 0.48396 0.0014 0.99491 0.0
C257 C 0.44738 0.95984 0.94032 0.0
C258 C 0.45576 0.97602 0.9176 0.0
C259 C 0.42637 0.93687 0.93893 0.0
C260 C 0.41514 0.92014 0.96241 0.0
C261 C 0.4067 0.93369 0.98483 0.0
C262 C 0.3947 0.91765 0.00627 0.0
C263 C 0.39103 0.88805 0.00548 0.0
C264 C 0.39958 0.87442 0.9834 0.0
C265 C 0.41151 0.89035 0.96189 0.0
H266 H 0.38155 0.87563 0.02198 0.0
H267 H 0.48118 0.03226 0.80855 0.0
H268 H 0.65005 0.48147 0.78063 0.0
H269 H 0.62822 0.50445 0.74821 0.0
H270 H 0.69154 0.50415 0.69212 0.0
H271 H 0.71323 0.48053 0.72423 0.0
H272 H 0.63613 0.55163 0.71899 0.0
H273 H 0.66794 0.48548 0.63257 0.0
H274 H 0.6823 0.43993 0.62496 0.0
H275 H 0.64118 0.40607 0.69575 0.0
H276 H 0.62633 0.45126 0.70356 0.0
H277 H 0.59003 0.59676 0.59914 0.0
H278 H 0.61705 0.58434 0.63333 0.0
H279 H 0.57112 0.5 0.63764 0.0
H280 H 0.54462 0.51196 0.60317 0.0
H281 H 0.61917 0.49658 0.63658 0.0
H282 H 0.5661 0.55151 0.68503 0.0
H283 H 0.54685 0.59357 0.69486 0.0
H284 H 0.62179 0.64401 0.7041 0.0
H285 H 0.64151 0.60231 0.69396 0.0
C286 C 0.65954 0.48671 0.76155 0.0
C287 C 0.68319 0.47878 0.75486 0.0
C288 C 0.64707 0.49995 0.74306 0.0
C289 C 0.65804 0.50554 0.7176 0.0
C290 C 0.68252 0.49955 0.71152 0.0
C291 C 0.69491 0.4861 0.72991 0.0
C292 C 0.64285 0.51508 0.69683 0.0
C293 C 0.63255 0.53974 0.70088 0.0
C294 C 0.6377 0.49922 0.67345 0.0
C295 C 0.64631 0.47185 0.66879 0.0
C296 C 0.66193 0.46828 0.64645 0.0
C297 C 0.67015 0.44253 0.64211 0.0
C298 C 0.66274 0.42016 0.65991 0.0
C299 C 0.647 0.42345 0.68203 0.0
C300 C 0.6387 0.44913 0.68644 0.0
C301 C 0.58567 0.57561 0.60747 0.0
C302 C 0.56524 0.55532 0.5984 0.0
C303 C 0.60106 0.56858 0.62706 0.0
C304 C 0.59603 0.54127 0.63817 0.0
C305 C 0.57548 0.52115 0.62928 0.0
C306 C 0.5603 0.52805 0.60958 0.0
C307 C 0.61238 0.5332 0.65864 0.0
C308 C 0.62296 0.50875 0.65452 0.0
C309 C 0.61711 0.54882 0.68223 0.0
C310 C 0.60529 0.57387 0.68846 0.0
C311 C 0.57848 0.57162 0.68896 0.0
C312 C 0.56749 0.59539 0.69462 0.0
C313 C 0.58309 0.62146 0.70003 0.0
C314 C 0.60973 0.6238 0.69987 0.0
C315 C 0.62082 0.60011 0.69418 0.0
H316 H 0.57454 0.63983 0.70441 0.0
H317 H 0.66914 0.40026 0.65653 0.0
H318 H 0.88791 0.65983 0.21628 0.0
H319 H 0.90692 0.62307 0.1937 0.0
H320 H 0.96875 0.68714 0.16218 0.0
H321 H 0.94956 0.72399 0.18414 0.0
H322 H 0.94947 0.65337 0.1246 0.0
H323 H 0.97725 0.64004 0.21128 0.0
H324 H 0.97223 0.63148 0.2591 0.0
H325 H 0.92311 0.55115 0.24594 0.0
H326 H 0.92757 0.5594 0.19802 0.0
H327 H 0.0329 0.57166 0.07051 0.0
H328 H 0.01493 0.60164 0.10223 0.0
H329 H 0.95101 0.5335 0.11965 0.0
H330 H 0.96936 0.50283 0.08805 0.0
H331 H 0.96928 0.56656 0.16485 0.0
H332 H 0.93698 0.58396 0.07904 0.0
H333 H 0.94313 0.59176 0.03122 0.0
H334 H 0.00358 0.66309 0.04394 0.0
H335 H 0.99694 0.65636 0.09192 0.0
C336 C 0.90571 0.66606 0.20478 0.0
C337 C 0.91716 0.69484 0.20188 0.0
C338 C 0.91663 0.64499 0.19198 0.0
C339 C 0.93935 0.65231 0.17634 0.0
C340 C 0.95117 0.68098 0.17407 0.0
C341 C 0.94019 0.70203 0.18668 0.0
C342 C 0.94994 0.63046 0.16082 0.0
C343 C 0.95404 0.63462 0.13359 0.0
C344 C 0.95526 0.60548 0.17228 0.0
C345 C 0.95253 0.60048 0.20107 0.0
C346 C 0.9652 0.62066 0.21859 0.0
C347 C 0.96249 0.61584 0.24571 0.0
C348 C 0.9473 0.59082 0.25556 0.0
C349 C 0.93484 0.57054 0.23829 0.0
C350 C 0.93747 0.57527 0.21114 0.0
C351 C 0.01514 0.56288 0.08124 0.0
C352 C 0.00232 0.53502 0.07651 0.0
C353 C 0.0049 0.58005 0.09938 0.0
C354 C 0.9814 0.56996 0.11288 0.0
C355 C 0.96915 0.54168 0.10932 0.0
C356 C 0.97959 0.52424 0.09126 0.0
C357 C 0.96902 0.58991 0.12899 0.0
C358 C 0.96452 0.58534 0.15611 0.0
C359 C 0.96332 0.61462 0.11762 0.0
C360 C 0.96647 0.61968 0.08892 0.0
C361 C 0.95142 0.60145 0.07157 0.0
C362 C 0.95495 0.60573 0.04443 0.0
C363 C 0.97374 0.62794 0.03443 0.0
C364 C 0.98882 0.64611 0.05163 0.0
C365 C 0.98503 0.64223 0.07881 0.0
H366 H 0.97666 0.63103 0.01339 0.0
H367 H 0.94523 0.58712 0.27656 0.0
H368 H 0.24765 0.14046 0.15513 0.0
H369 H 0.28618 0.12766 0.13414 0.0
H370 H 0.33302 0.19865 0.1719 0.0
H371 H 0.29456 0.21204 0.19241 0.0
H372 H 0.35142 0.19242 0.1232 0.0
H373 H 0.3236 0.13056 0.19746 0.0
H374 H 0.29272 0.09594 0.22398 0.0
H375 H 0.28613 0.03715 0.15944 0.0
H376 H 0.31674 0.07159 0.13242 0.0
H377 H 0.47099 0.14804 0.12458 0.0
H378 H 0.43024 0.16288 0.13502 0.0
H379 H 0.39011 0.08902 0.09529 0.0
H380 H 0.43088 0.07362 0.08526 0.0
H381 H 0.36684 0.09571 0.14119 0.0
H382 H 0.39813 0.15663 0.06821 0.0
H383 H 0.42962 0.19138 0.0425 0.0
H384 H 0.43037 0.25213 0.10505 0.0
H385 H 0.39914 0.2176 0.1313 0.0
C386 C 0.26612 0.15357 0.15872 0.0
C387 C 0.26803 0.17713 0.17567 0.0
C388 C 0.28815 0.14614 0.14679 0.0
C389 C 0.31255 0.16184 0.15187 0.0
C390 C 0.31441 0.18614 0.16776 0.0
C391 C 0.29238 0.19374 0.17952 0.0
C392 C 0.3362 0.15225 0.14174 0.0
C393 C 0.35489 0.17135 0.12729 0.0
C394 C 0.34051 0.12453 0.14656 0.0
C395 C 0.32223 0.10375 0.16284 0.0
C396 C 0.31542 0.11032 0.18888 0.0
C397 C 0.29799 0.09072 0.204 0.0
C398 C 0.28741 0.06439 0.19338 0.0
C399 C 0.29431 0.05757 0.16763 0.0
C400 C 0.3117 0.07711 0.1524 0.0
C401 C 0.45354 0.13501 0.11787 0.0
C402 C 0.45421 0.10963 0.10406 0.0
C403 C 0.43023 0.14364 0.12375 0.0
C404 C 0.40709 0.1273 0.11563 0.0
C405 C 0.40771 0.10202 0.10169 0.0
C406 C 0.43104 0.09327 0.09593 0.0
C407 C 0.38223 0.13596 0.1228 0.0
C408 C 0.3633 0.11668 0.13679 0.0
C409 C 0.37778 0.16354 0.11762 0.0
C410 C 0.39643 0.18443 0.1018 0.0
C411 C 0.40514 0.17733 0.07656 0.0
C412 C 0.42293 0.197 0.06187 0.0
C413 C 0.43203 0.22392 0.07215 0.0
C414 C 0.42332 0.23126 0.09711 0.0
C415 C 0.40555 0.21166 0.11189 0.0
H416 H 0.44581 0.23912 0.06076 0.0
H417 H 0.27392 0.04925 0.20512 0.0
H418 H 0.28486 0.91841 0.6566 0.0
H419 H 0.2459 0.92275 0.63431 0.0
H420 H 0.20756 0.93339 0.70925 0.0
H421 H 0.24623 0.92871 0.73169 0.0
H422 H 0.1761 0.89916 0.67738 0.0
H423 H 0.23239 0.99034 0.67099 0.0
H424 H 0.2728 0.02341 0.65959 0.0
H425 H 0.26634 0.99928 0.57836 0.0
H426 H 0.22604 0.96577 0.58935 0.0
H427 H 0.07507 0.96535 0.63936 0.0
H428 H 0.11286 0.95289 0.65826 0.0
H429 H 0.14689 0.94634 0.58038 0.0
H430 H 0.10929 0.95946 0.56128 0.0
H431 H 0.18074 0.97586 0.61157 0.0
H432 H 0.12254 0.88665 0.61784 0.0
H433 H 0.0816 0.85469 0.62959 0.0
H434 H 0.091 0.87581 0.71117 0.0
H435 H 0.13189 0.90817 0.69988 0.0
C436 C 0.26809 0.9215 0.66836 0.0
C437 C 0.26874 0.92342 0.69592 0.0
C438 C 0.24586 0.92405 0.65558 0.0
C439 C 0.22391 0.92874 0.67011 0.0
C440 C 0.22427 0.92981 0.69765 0.0
C441 C 0.24646 0.92724 0.71043 0.0
C442 C 0.20084 0.93349 0.65667 0.0
C443 C 0.17706 0.91606 0.66313 0.0
C444 C 0.20217 0.95516 0.63768 0.0
C445 C 0.22637 0.97532 0.63103 0.0
C446 C 0.2397 0.99192 0.65073 0.0
C447 C 0.26256 0.01077 0.64434 0.0
C448 C 0.27217 0.01338 0.61828 0.0
C449 C 0.2589 0.99719 0.59855 0.0
C450 C 0.23604 0.97828 0.60484 0.0
C451 C 0.0905 0.9611 0.6262 0.0
C452 C 0.08917 0.96342 0.59879 0.0
C453 C 0.11207 0.95382 0.63706 0.0
C454 C 0.13262 0.94835 0.62073 0.0
C455 C 0.13125 0.95042 0.59335 0.0
C456 C 0.10971 0.95784 0.58246 0.0
C457 C 0.15594 0.9416 0.63232 0.0
C458 C 0.17977 0.95873 0.62558 0.0
C459 C 0.15462 0.91969 0.65107 0.0
C460 C 0.13021 0.89996 0.65799 0.0
C461 C 0.11582 0.88459 0.63828 0.0
C462 C 0.09263 0.86639 0.64485 0.0
C463 C 0.08371 0.86323 0.6711 0.0
C464 C 0.09796 0.87826 0.69084 0.0
C465 C 0.12117 0.8965 0.68437 0.0
H466 H 0.06579 0.84907 0.67615 0.0
H467 H 0.28987 0.02799 0.61337 0.0
H468 H 0.78293 0.38129 0.85583 0.0
H469 H 0.81895 0.38884 0.88477 0.0
H470 H 0.80107 0.46986 0.9083 0.0
H471 H 0.76573 0.46286 0.87806 0.0
H472 H 0.84861 0.47672 0.90102 0.0
H473 H 0.78984 0.40786 0.94984 0.0
H474 H 0.75848 0.36355 0.95779 0.0
H475 H 0.81662 0.31472 0.93814 0.0
H476 H 0.84825 0.35872 0.92963 0.0
H477 H 0.94003 0.48852 0.00087 0.0
H478 H 0.89622 0.47463 0.98588 0.0
H479 H 0.92267 0.42062 0.92683 0.0
H480 H 0.96669 0.43513 0.94111 0.0
H481 H 0.86812 0.4013 0.95868 0.0
H482 H 0.92297 0.47449 0.90197 0.0
H483 H 0.95307 0.52027 0.89727 0.0
H484 H 0.89838 0.56237 0.93823 0.0
H485 H 0.86819 0.51677 0.94345 0.0
C486 C 0.78649 0.40051 0.86749 0.0
C487 C 0.77141 0.42134 0.86505 0.0
C488 C 0.80702 0.40478 0.88415 0.0
C489 C 0.81245 0.42962 0.89934 0.0
C490 C 0.79725 0.45044 0.89694 0.0
C491 C 0.77706 0.44646 0.87972 0.0
C492 C 0.83493 0.4345 0.91639 0.0
C493 C 0.85244 0.46032 0.91398 0.0
C494 C 0.84024 0.41322 0.93341 0.0
C495 C 0.8214 0.38664 0.93892 0.0
C496 C 0.79592 0.38768 0.94707 0.0
C497 C 0.77809 0.36261 0.95168 0.0
C498 C 0.78554 0.33634 0.94842 0.0
C499 C 0.81087 0.33509 0.94064 0.0
C500 C 0.82877 0.36009 0.93595 0.0
C501 C 0.93638 0.47302 0.98523 0.0
C502 C 0.95672 0.46294 0.97203 0.0
C503 C 0.91138 0.46514 0.97671 0.0
C504 C 0.90634 0.44663 0.95532 0.0
C505 C 0.92625 0.43478 0.94351 0.0
C506 C 0.95134 0.44315 0.95159 0.0
C507 C 0.88145 0.44304 0.94269 0.0
C508 C 0.86373 0.4176 0.94596 0.0
C509 C 0.87554 0.46482 0.92696 0.0
C510 C 0.89348 0.49226 0.92332 0.0
C511 C 0.91749 0.49351 0.91013 0.0
C512 C 0.93454 0.51942 0.90733 0.0
C513 C 0.92768 0.54423 0.91745 0.0
C514 C 0.90373 0.54318 0.93036 0.0
C515 C 0.88663 0.51731 0.93325 0.0
H516 H 0.94092 0.56425 0.9152 0.0
H517 H 0.77169 0.31696 0.95196 0.0
H518 H 0.77868 0.73381 0.41955 0.0
H519 H 0.73737 0.71018 0.4393 0.0
H520 H 0.72777 0.65129 0.37441 0.0
H521 H 0.76892 0.67474 0.3545 0.0
H522 H 0.68413 0.67284 0.38642 0.0
H523 H 0.74514 0.63056 0.43226 0.0
H524 H 0.78291 0.63102 0.45885 0.0
H525 H 0.7483 0.67346 0.52143 0.0
H526 H 0.71045 0.67358 0.49505 0.0
H527 H 0.5833 0.56692 0.43747 0.0
H528 H 0.62341 0.59415 0.41868 0.0
H529 H 0.63347 0.64409 0.48972 0.0
H530 H 0.59378 0.61617 0.50902 0.0
H531 H 0.67662 0.62943 0.47523 0.0
H532 H 0.61484 0.67033 0.43101 0.0
H533 H 0.57664 0.66992 0.40511 0.0
H534 H 0.61198 0.63171 0.34019 0.0
H535 H 0.65026 0.63146 0.36586 0.0
C536 C 0.76783 0.71577 0.40952 0.0
C537 C 0.77713 0.70613 0.38547 0.0
C538 C 0.74425 0.70228 0.42086 0.0
C539 C 0.72957 0.67892 0.40835 0.0
C540 C 0.73878 0.66931 0.38434 0.0
C541 C 0.76237 0.68268 0.37307 0.0
C542 C 0.70456 0.66446 0.4202 0.0
C543 C 0.68247 0.66309 0.40573 0.0
C544 C 0.70237 0.65246 0.44568 0.0
C545 C 0.72509 0.65235 0.46157 0.0
C546 C 0.74568 0.64021 0.4516 0.0
C547 C 0.76708 0.64032 0.46665 0.0
C548 C 0.76804 0.65234 0.49178 0.0
C549 C 0.74755 0.6642 0.50194 0.0
C550 C 0.72611 0.66416 0.48696 0.0
C551 C 0.59394 0.58384 0.44903 0.0
C552 C 0.58539 0.5894 0.47474 0.0
C553 C 0.61685 0.59949 0.43821 0.0
C554 C 0.63135 0.62144 0.45265 0.0
C555 C 0.62264 0.62726 0.4782 0.0
C556 C 0.5999 0.61135 0.48918 0.0
C557 C 0.65605 0.63765 0.44144 0.0
C558 C 0.67814 0.63935 0.456 0.0
C559 C 0.65819 0.65015 0.41612 0.0
C560 C 0.63537 0.6507 0.40045 0.0
C561 C 0.61442 0.6617 0.41126 0.0
C562 C 0.59276 0.6616 0.39662 0.0
C563 C 0.59189 0.65081 0.37102 0.0
C564 C 0.6127 0.6401 0.36001 0.0
C565 C 0.6344 0.64009 0.37459 0.0
H566 H 0.57508 0.65071 0.35973 0.0
H567 H 0.78462 0.6524 0.5034 0.0
H568 H 0.18868 0.3054 0.19696 0.0
H569 H 0.16218 0.3322 0.17317 0.0
H570 H 0.10901 0.25475 0.1576 0.0
H571 H 0.13574 0.22768 0.18094 0.0
H572 H 0.11819 0.28553 0.11474 0.0
H573 H 0.09399 0.3029 0.20367 0.0
H574 H 0.10045 0.31657 0.25006 0.0
H575 H 0.13732 0.40051 0.22617 0.0
H576 H 0.1314 0.38723 0.17961 0.0
H577 H 0.03266 0.40141 0.09803 0.0
H578 H 0.04773 0.36639 0.12527 0.0
H579 H 0.11458 0.37058 0.07301 0.0
H580 H 0.09964 0.40504 0.04582 0.0
H581 H 0.09054 0.37123 0.1524 0.0
H582 H 0.13272 0.30821 0.06855 0.0
H583 H 0.12286 0.29248 0.02325 0.0
H584 H 0.04337 0.29549 0.03931 0.0
H585 H 0.05267 0.31091 0.08478 0.0
C586 C 0.17132 0.29405 0.18855 0.0
C587 C 0.16432 0.2644 0.19087 0.0
C588 C 0.15609 0.30944 0.17508 0.0
C589 C 0.13339 0.29556 0.1639 0.0
C590 C 0.1264 0.26594 0.16612 0.0
C591 C 0.14169 0.2505 0.1795 0.0
C592 C 0.11748 0.31192 0.14915 0.0
C593 C 0.11204 0.30417 0.12305 0.0
C594 C 0.10886 0.33587 0.16013 0.0
C595 C 0.11241 0.34399 0.18813 0.0
C596 C 0.10364 0.32421 0.2083 0.0
C597 C 0.10718 0.3319 0.23463 0.0
C598 C 0.11933 0.35937 0.24106 0.0
C599 C 0.12792 0.37923 0.22116 0.0
C600 C 0.12445 0.37165 0.1948 0.0
C601 C 0.05041 0.39459 0.09222 0.0
C602 C 0.06486 0.40585 0.06963 0.0
C603 C 0.05904 0.37468 0.10784 0.0
C604 C 0.08212 0.36561 0.101 0.0
C605 C 0.09646 0.37679 0.07841 0.0
C606 C 0.08789 0.39659 0.06288 0.0
C607 C 0.09204 0.34532 0.11782 0.0
C608 C 0.09642 0.35238 0.14425 0.0
C609 C 0.09923 0.32041 0.10731 0.0
C610 C 0.09344 0.31083 0.08005 0.0
C611 C 0.11311 0.30535 0.06247 0.0
C612 C 0.10762 0.29651 0.03676 0.0
C613 C 0.0825 0.29295 0.02843 0.0
C614 C 0.06282 0.29828 0.04578 0.0
C615 C 0.0682 0.30711 0.07151 0.0
H616 H 0.07829 0.28608 0.00853 0.0
H617 H 0.12205 0.36528 0.26145 0.0
H618 H 0.64679 0.30794 0.91571 0.0
H619 H 0.62306 0.26771 0.94094 0.0
H620 H 0.69228 0.23365 0.94616 0.0
H621 H 0.71621 0.2738 0.92053 0.0
H622 H 0.65233 0.193 0.93347 0.0
H623 H 0.66852 0.2655 0.99889 0.0
H624 H 0.66913 0.31276 0.01853 0.0
H625 H 0.58699 0.29992 0.0169 0.0
H626 H 0.58591 0.25271 0.99689 0.0
H627 H 0.60579 0.09199 0.03302 0.0
H628 H 0.62986 0.13249 0.00845 0.0
H629 H 0.56034 0.16525 0.00037 0.0
H630 H 0.53599 0.12479 0.02534 0.0
H631 H 0.60064 0.20638 0.01471 0.0
H632 H 0.58508 0.13315 0.94916 0.0
H633 H 0.58518 0.08525 0.93128 0.0
H634 H 0.66725 0.09917 0.9345 0.0
H635 H 0.6676 0.14704 0.95278 0.0
C636 C 0.65704 0.29198 0.92228 0.0
C637 C 0.68341 0.2941 0.91614 0.0
C638 C 0.64344 0.26902 0.93679 0.0
C639 C 0.65595 0.24784 0.94566 0.0
C640 C 0.68227 0.24981 0.93952 0.0
C641 C 0.69591 0.27279 0.92495 0.0
C642 C 0.64139 0.22344 0.96099 0.0
C643 C 0.64132 0.1959 0.95143 0.0
C644 C 0.6266 0.22728 0.98413 0.0
C645 C 0.62717 0.25568 0.99614 0.0
C646 C 0.6506 0.27285 0.00251 0.0
C647 C 0.65103 0.29961 0.01375 0.0
C648 C 0.62812 0.30936 0.01889 0.0
C649 C 0.60473 0.29234 0.01287 0.0
C650 C 0.60419 0.26557 0.0016 0.0
C651 C 0.59556 0.10775 0.02605 0.0
C652 C 0.56894 0.10511 0.03108 0.0
C653 C 0.60934 0.13085 0.0119 0.0
C654 C 0.59682 0.15168 0.00235 0.0
C655 C 0.57032 0.14932 0.00753 0.0
C656 C 0.55646 0.12615 0.02169 0.0
C657 C 0.61152 0.17603 0.98712 0.0
C658 C 0.61163 0.20353 0.99672 0.0
C659 C 0.62645 0.17214 0.9641 0.0
C660 C 0.62634 0.1436 0.95256 0.0
C661 C 0.60314 0.12594 0.9462 0.0
C662 C 0.60311 0.0988 0.93598 0.0
C663 C 0.6262 0.08914 0.93183 0.0
C664 C 0.64938 0.10667 0.93776 0.0
C665 C 0.6495 0.13383 0.94802 0.0
H666 H 0.62614 0.0681 0.92397 0.0
H667 H 0.62849 0.33008 0.02761 0.0
H668 H 0.90112 0.8292 0.30182 0.0
H669 H 0.91598 0.85446 0.34167 0.0
H670 H 0.90645 0.77484 0.38325 0.0
H671 H 0.8903 0.74958 0.34349 0.0
H672 H 0.89201 0.81035 0.41449 0.0
H673 H 0.96759 0.8136 0.36139 0.0
H674 H 0.99621 0.82097 0.32154 0.0
H675 H 0.99235 0.90955 0.32179 0.0
H676 H 0.96342 0.90265 0.36144 0.0
H677 H 0.99336 0.92626 0.48643 0.0
H678 H 0.98357 0.88745 0.45475 0.0
H679 H 0.90369 0.8947 0.46001 0.0
H680 H 0.91317 0.9323 0.49247 0.0
H681 H 0.96881 0.88733 0.40888 0.0
H682 H 0.86393 0.83594 0.44467 0.0
H683 H 0.83947 0.82364 0.48664 0.0
H684 H 0.90945 0.82223 0.52526 0.0
H685 H 0.93431 0.8341 0.48347 0.0
C686 C 0.90216 0.81711 0.31949 0.0
C687 C 0.89453 0.78748 0.31964 0.0
C688 C 0.91085 0.83153 0.34223 0.0
C689 C 0.913 0.81657 0.36539 0.0
C690 C 0.90507 0.7869 0.36565 0.0
C691 C 0.89578 0.77248 0.34298 0.0
C692 C 0.92307 0.83215 0.3893 0.0
C693 C 0.9089 0.82705 0.41331 0.0
C694 C 0.94572 0.85321 0.38816 0.0
C695 C 0.9632 0.85755 0.36433 0.0
C696 C 0.97272 0.83462 0.35286 0.0
C697 C 0.98901 0.83872 0.33032 0.0
C698 C 0.99606 0.8657 0.31912 0.0
C699 C 0.98687 0.88866 0.33049 0.0
C700 C 0.97056 0.88467 0.35302 0.0
C701 C 0.97366 0.91919 0.48112 0.0
C702 C 0.95403 0.93228 0.49197 0.0
C703 C 0.96807 0.89705 0.46297 0.0
C704 C 0.94281 0.88781 0.45511 0.0
C705 C 0.9232 0.90076 0.46621 0.0
C706 C 0.92869 0.92247 0.48468 0.0
C707 C 0.93713 0.86636 0.43381 0.0
C708 C 0.95214 0.87035 0.41025 0.0
C709 C 0.9159 0.84352 0.43572 0.0
C710 C 0.90101 0.83612 0.46092 0.0
C711 C 0.8741 0.83285 0.46208 0.0
C712 C 0.86017 0.82599 0.48585 0.0
C713 C 0.87291 0.82222 0.50861 0.0
C714 C 0.89961 0.82524 0.50764 0.0
C715 C 0.91364 0.83208 0.48391 0.0
H716 H 0.86208 0.81693 0.527 0.0
H717 H 0.00868 0.86883 0.30167 0.0
H718 H 0.35638 0.79116 0.70344 0.0
H719 H 0.37825 0.75714 0.68033 0.0
H720 H 0.44689 0.82128 0.67099 0.0
H721 H 0.42467 0.85578 0.69315 0.0
H722 H 0.44091 0.79323 0.62793 0.0
H723 H 0.44016 0.76579 0.71754 0.0
H724 H 0.42203 0.75252 0.76214 0.0
H725 H 0.37326 0.67921 0.73102 0.0
H726 H 0.39084 0.69224 0.68617 0.0
H727 H 0.51534 0.68497 0.59212 0.0
H728 H 0.49943 0.72295 0.6167 0.0
H729 H 0.42194 0.67626 0.61283 0.0
H730 H 0.43748 0.63868 0.58802 0.0
H731 H 0.4372 0.69698 0.66452 0.0
H732 H 0.43795 0.72848 0.57387 0.0
H733 H 0.4588 0.74222 0.53041 0.0
H734 H 0.51183 0.80889 0.56613 0.0
H735 H 0.49149 0.79526 0.60988 0.0
C736 C 0.37614 0.79802 0.69649 0.0
C737 C 0.38883 0.82611 0.70021 0.0
C738 C 0.3887 0.77849 0.68341 0.0
C739 C 0.41445 0.78641 0.67436 0.0
C740 C 0.42708 0.81458 0.67784 0.0
C741 C 0.41436 0.83427 0.69055 0.0
C742 C 0.42793 0.76541 0.66087 0.0
C743 C 0.44045 0.77238 0.63622 0.0
C744 C 0.42734 0.73807 0.6715 0.0
C745 C 0.41668 0.73013 0.69845 0.0
C746 C 0.42543 0.74695 0.72018 0.0
C747 C 0.41528 0.73945 0.74551 0.0
C748 C 0.39647 0.71507 0.7494 0.0
C749 C 0.38781 0.6981 0.72797 0.0
C750 C 0.39789 0.70551 0.70259 0.0
C751 C 0.49492 0.6829 0.59645 0.0
C752 C 0.47765 0.6589 0.58807 0.0
C753 C 0.48588 0.70457 0.61043 0.0
C754 C 0.45953 0.70232 0.61653 0.0
C755 C 0.44235 0.67833 0.60833 0.0
C756 C 0.45128 0.65696 0.59404 0.0
C757 C 0.44959 0.72476 0.6316 0.0
C758 C 0.43781 0.718 0.65652 0.0
C759 C 0.45128 0.75239 0.62145 0.0
C760 C 0.4634 0.76064 0.59516 0.0
C761 C 0.45421 0.74589 0.57248 0.0
C762 C 0.4659 0.7537 0.54779 0.0
C763 C 0.48668 0.77636 0.54552 0.0
C764 C 0.49576 0.79131 0.56793 0.0
C765 C 0.48415 0.78357 0.59267 0.0
H766 H 0.4957 0.78237 0.52639 0.0
H767 H 0.38863 0.7093 0.76903 0.0
H768 H 0.86213 0.90386 0.79209 0.0
H769 H 0.88579 0.92357 0.7522 0.0
H770 H 0.91314 0.84528 0.73894 0.0
H771 H 0.88974 0.82541 0.77912 0.0
H772 H 0.95091 0.89156 0.72844 0.0
H773 H 0.86405 0.85826 0.70515 0.0
H774 H 0.81699 0.85345 0.70927 0.0
H775 H 0.82402 0.9432 0.69794 0.0
H776 H 0.87117 0.9486 0.69412 0.0
H777 H 0.99031 0.92241 0.59425 0.0
H778 H 0.96925 0.89977 0.63438 0.0
H779 H 0.93661 0.97403 0.65177 0.0
H780 H 0.95707 0.99652 0.61143 0.0
H781 H 0.90176 0.92707 0.65949 0.0
H782 H 0.98947 0.95997 0.68279 0.0
H783 H 0.03635 0.96363 0.67716 0.0
H784 H 0.02779 0.87358 0.68751 0.0
H785 H 0.98083 0.8693 0.6927 0.0
C786 C 0.87327 0.89083 0.78082 0.0
C787 C 0.87385 0.86294 0.78871 0.0
C788 C 0.88675 0.90212 0.75797 0.0
C789 C 0.90091 0.88573 0.74241 0.0
C790 C 0.90226 0.85825 0.75064 0.0
C791 C 0.8888 0.84691 0.77356 0.0
C792 C 0.91354 0.89706 0.71713 0.0
C793 C 0.94016 0.89901 0.7132 0.0
C794 C 0.89952 0.90705 0.6974 0.0
C795 C 0.87115 0.90386 0.6996 0.0
C796 C 0.85557 0.877 0.70374 0.0
C797 C 0.82888 0.87417 0.70599 0.0
C798 C 0.81753 0.89802 0.70393 0.0
C799 C 0.83284 0.92475 0.69956 0.0
C800 C 0.85955 0.92771 0.69733 0.0
C801 C 0.9786 0.93389 0.60659 0.0
C802 C 0.97539 0.96129 0.59968 0.0
C803 C 0.96669 0.92098 0.62959 0.0
C804 C 0.95165 0.93537 0.64626 0.0
C805 C 0.94818 0.96256 0.63922 0.0
C806 C 0.95992 0.9754 0.61616 0.0
C807 C 0.93922 0.92209 0.67092 0.0
C808 C 0.91257 0.91965 0.6747 0.0
C809 C 0.95325 0.91161 0.69041 0.0
C810 C 0.98158 0.91428 0.68787 0.0
C811 C 0.99757 0.94091 0.68369 0.0
C812 C 0.02417 0.9431 0.68057 0.0
C813 C 0.03505 0.91884 0.68186 0.0
C814 C 0.01935 0.89236 0.68642 0.0
C815 C 0.99274 0.89004 0.68947 0.0
H816 H 0.05565 0.92056 0.6794 0.0
H817 H 0.79686 0.89578 0.70567 0.0
H818 H 0.6629 0.19147 0.32903 0.0
H819 H 0.648 0.18447 0.2842 0.0
H820 H 0.62161 0.09532 0.30018 0.0
H821 H 0.63673 0.10219 0.34482 0.0
H822 H 0.64472 0.10207 0.25326 0.0
H823 H 0.58031 0.14415 0.30076 0.0
H824 H 0.56508 0.18096 0.32796 0.0
H825 H 0.59293 0.24323 0.26826 0.0
H826 H 0.60867 0.20686 0.24086 0.0
H827 H 0.55282 0.06074 0.15737 0.0
H828 H 0.57509 0.07296 0.19804 0.0
H829 H 0.60248 0.15814 0.16953 0.0
H830 H 0.58015 0.14614 0.12871 0.0
H831 H 0.58239 0.15713 0.22032 0.0
H832 H 0.6434 0.11383 0.1712 0.0
H833 H 0.65839 0.07683 0.14411 0.0
H834 H 0.63658 0.01661 0.2068 0.0
H835 H 0.6211 0.05316 0.23415 0.0
C836 C 0.65358 0.17049 0.32309 0.0
C837 C 0.65044 0.14749 0.34059 0.0
C838 C 0.64521 0.16647 0.29742 0.0
C839 C 0.63328 0.13944 0.28894 0.0
C840 C 0.63071 0.11637 0.30626 0.0
C841 C 0.63929 0.12033 0.33179 0.0
C842 C 0.62315 0.13502 0.26219 0.0
C843 C 0.63092 0.11394 0.24616 0.0
C844 C 0.6057 0.15107 0.2526 0.0
C845 C 0.5959 0.17285 0.26889 0.0
C846 C 0.58333 0.16573 0.29351 0.0
C847 C 0.57459 0.18651 0.30896 0.0
C848 C 0.5781 0.21443 0.29988 0.0
C849 C 0.59027 0.22161 0.27529 0.0
C850 C 0.59908 0.20092 0.25979 0.0
C851 C 0.56367 0.08205 0.15966 0.0
C852 C 0.56472 0.10247 0.13979 0.0
C853 C 0.57647 0.08896 0.18288 0.0
C854 C 0.59059 0.1164 0.1867 0.0
C855 C 0.59171 0.13684 0.16693 0.0
C856 C 0.57901 0.1299 0.1436 0.0
C857 C 0.60357 0.12379 0.21169 0.0
C858 C 0.59636 0.14544 0.22735 0.0
C859 C 0.62147 0.10822 0.22098 0.0
C860 C 0.6309 0.0862 0.20465 0.0
C861 C 0.64162 0.09264 0.17914 0.0
C862 C 0.65023 0.07176 0.16375 0.0
C863 C 0.64839 0.04437 0.1737 0.0
C864 C 0.63798 0.03783 0.19911 0.0
C865 C 0.62931 0.05864 0.21458 0.0
H866 H 0.65507 0.02823 0.16175 0.0
H867 H 0.57134 0.23049 0.31187 0.0
H868 H 0.38388 0.61382 0.29364 0.0
H869 H 0.39776 0.60098 0.33629 0.0
H870 H 0.47603 0.63852 0.31357 0.0
H871 H 0.46236 0.64978 0.27031 0.0
H872 H 0.47751 0.59449 0.33968 0.0
H873 H 0.43487 0.67256 0.35557 0.0
H874 H 0.39994 0.69983 0.3546 0.0
H875 H 0.35016 0.63477 0.39953 0.0
H876 H 0.38472 0.60693 0.40048 0.0
H877 H 0.51953 0.62189 0.47141 0.0
H878 H 0.50418 0.62982 0.42793 0.0
H879 H 0.44003 0.56088 0.44103 0.0
H880 H 0.45567 0.55224 0.48438 0.0
H881 H 0.4313 0.61955 0.42082 0.0
H882 H 0.47853 0.54307 0.40471 0.0
H883 H 0.517 0.5217 0.40824 0.0
H884 H 0.5623 0.59158 0.36531 0.0
H885 H 0.52419 0.61373 0.36203 0.0
C886 C 0.40405 0.6192 0.29775 0.0
C887 C 0.42203 0.63294 0.27876 0.0
C888 C 0.41198 0.61202 0.3222 0.0
C889 C 0.4379 0.61935 0.3285 0.0
C890 C 0.45593 0.63264 0.30929 0.0
C891 C 0.4481 0.63916 0.28459 0.0
C892 C 0.44619 0.61355 0.35516 0.0
C893 C 0.46747 0.60025 0.35734 0.0
C894 C 0.43315 0.62087 0.37842 0.0
C895 C 0.4123 0.63752 0.37785 0.0
C896 C 0.41641 0.66397 0.36507 0.0
C897 C 0.39669 0.67955 0.36455 0.0
C898 C 0.37282 0.669 0.37693 0.0
C899 C 0.36864 0.64289 0.38991 0.0
C900 C 0.3883 0.62721 0.39046 0.0
C901 C 0.50205 0.60855 0.46512 0.0
C902 C 0.48869 0.58651 0.48125 0.0
C903 C 0.4934 0.61304 0.44029 0.0
C904 C 0.47105 0.59589 0.43142 0.0
C905 C 0.45733 0.57428 0.44767 0.0
C906 C 0.46629 0.56936 0.4723 0.0
C907 C 0.46222 0.60049 0.40501 0.0
C908 C 0.44103 0.61368 0.403 0.0
C909 C 0.47573 0.59379 0.382 0.0
C910 C 0.49854 0.58017 0.38333 0.0
C911 C 0.49674 0.554 0.39621 0.0
C912 C 0.51848 0.54175 0.39816 0.0
C913 C 0.5421 0.55535 0.3871 0.0
C914 C 0.544 0.58116 0.37395 0.0
C915 C 0.52233 0.59355 0.37202 0.0
H916 H 0.55891 0.54585 0.38865 0.0
H917 H 0.35758 0.68109 0.37651 0.0
H918 H 0.16435 0.34843 0.7983 0.0
H919 H 0.13413 0.36846 0.82702 0.0
H920 H 0.19301 0.39255 0.883 0.0
H921 H 0.22289 0.37154 0.85498 0.0
H922 H 0.14945 0.37027 0.90781 0.0
H923 H 0.17643 0.44098 0.84079 0.0
H924 H 0.18327 0.45917 0.79534 0.0
H925 H 0.10237 0.43674 0.78383 0.0
H926 H 0.09509 0.41807 0.82913 0.0
H927 H 0.08761 0.49963 0.94845 0.0
H928 H 0.11371 0.47648 0.91765 0.0
H929 H 0.06992 0.39465 0.94086 0.0
H930 H 0.04426 0.4176 0.9723 0.0
H931 H 0.10499 0.44479 0.87599 0.0
H932 H 0.10824 0.34522 0.93773 0.0
H933 H 0.10591 0.32995 0.98402 0.0
H934 H 0.1331 0.41591 0.00816 0.0
H935 H 0.13586 0.43165 0.96194 0.0
C936 C 0.17069 0.35736 0.81696 0.0
C937 C 0.19591 0.35786 0.82454 0.0
C938 C 0.1535 0.36923 0.8332 0.0
C939 C 0.16132 0.38211 0.85715 0.0
C940 C 0.18648 0.38262 0.86469 0.0
C941 C 0.2036 0.37073 0.84855 0.0
C942 C 0.14351 0.39521 0.87446 0.0
C943 C 0.13962 0.38647 0.90081 0.0
C944 C 0.13094 0.4166 0.86545 0.0
C945 C 0.13526 0.42786 0.83824 0.0
C946 C 0.16013 0.43973 0.8285 0.0
C947 C 0.16408 0.45016 0.80278 0.0
C948 C 0.14327 0.44904 0.78668 0.0
C949 C 0.11847 0.43755 0.7963 0.0
C950 C 0.11442 0.42706 0.822 0.0
C951 C 0.08345 0.47671 0.94693 0.0
C952 C 0.06397 0.46045 0.96297 0.0
C953 C 0.09836 0.46349 0.92925 0.0
C954 C 0.09405 0.43378 0.92717 0.0
C955 C 0.07399 0.41756 0.94249 0.0
C956 C 0.05924 0.43074 0.96038 0.0
C957 C 0.11097 0.4199 0.90941 0.0
C958 C 0.11462 0.42841 0.88295 0.0
C959 C 0.12379 0.39871 0.91847 0.0
C960 C 0.12196 0.38963 0.9464 0.0
C961 C 0.11371 0.36086 0.95293 0.0
C962 C 0.1123 0.35212 0.97917 0.0
C963 C 0.1192 0.37194 0.99908 0.0
C964 C 0.12759 0.40058 0.99276 0.0
C965 C 0.12905 0.40943 0.96653 0.0
H966 H 0.11816 0.36507 0.01937 0.0
H967 H 0.14637 0.45713 0.76678 0.0
H968 H 0.75205 0.92537 0.86653 0.0
H969 H 0.72058 0.94446 0.89401 0.0
H970 H 0.72461 0.88292 0.95419 0.0
H971 H 0.7562 0.86338 0.92656 0.0
H972 H 0.67475 0.88903 0.94622 0.0
H973 H 0.75484 0.94952 0.96231 0.0
H974 H 0.79645 0.98021 0.95062 0.0
H975 H 0.75796 0.03779 0.91117 0.0
H976 H 0.71611 0.00723 0.9223 0.0
H977 H 0.6067 0.96351 0.03988 0.0
H978 H 0.63928 0.94006 0.01832 0.0
H979 H 0.6453 0.99749 0.95261 0.0
H980 H 0.61308 0.02115 0.97404 0.0
H981 H 0.69189 0.99172 0.9678 0.0
H982 H 0.61229 0.92966 0.94881 0.0
H983 H 0.57053 0.89899 0.96 0.0
H984 H 0.60799 0.84453 0.00473 0.0
H985 H 0.64997 0.87512 0.99411 0.0
C986 C 0.74627 0.91577 0.88557 0.0
C987 C 0.7568 0.89294 0.89441 0.0
C988 C 0.7283 0.92681 0.90131 0.0
C989 C 0.72054 0.9154 0.92631 0.0
C990 C 0.73045 0.89211 0.93499 0.0
C991 C 0.74853 0.88103 0.91922 0.0
C992 C 0.70225 0.92819 0.94326 0.0
C993 C 0.67866 0.91136 0.95137 0.0
C994 C 0.70721 0.95743 0.94962 0.0
C995 C 0.73234 0.97595 0.94298 0.0
C996 C 0.75525 0.96862 0.95097 0.0
C997 C 0.77889 0.98601 0.94447 0.0
C998 C 0.77985 0.0109 0.93011 0.0
C999 C 0.75718 0.01849 0.92228 0.0
C1000 C 0.7335 0.00115 0.9287 0.0
C1001 C 0.61499 0.97115 0.02085 0.0
C1002 C 0.60725 0.99416 0.00866 0.0
C1003 C 0.63352 0.95764 0.00851 0.0
C1004 C 0.64457 0.96688 0.98376 0.0
C1005 C 0.63704 0.99001 0.97171 0.0
C1006 C 0.61853 0.00346 0.98397 0.0
C1007 C 0.66416 0.95273 0.97031 0.0
C1008 C 0.68805 0.96932 0.96289 0.0
C1009 C 0.65943 0.92331 0.9646 0.0
C1010 C 0.63423 0.90486 0.97093 0.0
C1011 C 0.6116 0.91128 0.96122 0.0
C1012 C 0.5879 0.89388 0.96742 0.0
C1013 C 0.5866 0.86988 0.98314 0.0
C1014 C 0.60902 0.86316 0.99261 0.0
C1015 C 0.63278 0.88051 0.9865 0.0
H1016 H 0.56823 0.85643 0.98791 0.0
H1017 H 0.79817 0.02434 0.9251 0.0
H1018 H 0.73372 0.07554 0.45272 0.0
H1019 H 0.77455 0.06552 0.46649 0.0
H1020 H 0.80989 0.15329 0.45434 0.0
H1021 H 0.76914 0.16344 0.4401 0.0
H1022 H 0.84078 0.11839 0.43568 0.0
H1023 H 0.79285 0.12826 0.51603 0.0
H1024 H 0.75542 0.11892 0.54732 0.0
H1025 H 0.76153 0.03109 0.55098 0.0
H1026 H 0.7988 0.03983 0.51941 0.0
H1027 H 0.95272 0.10592 0.50417 0.0
H1028 H 0.91352 0.1211 0.49129 0.0
H1029 H 0.87152 0.0354 0.50094 0.0
H1030 H 0.91035 0.02015 0.51415 0.0
H1031 H 0.84488 0.07281 0.52215 0.0
H1032 H 0.89139 0.06259 0.44007 0.0
H1033 H 0.92877 0.07189 0.40871 0.0
H1034 H 0.92538 0.16059 0.40849 0.0
H1035 H 0.88817 0.15186 0.44015 0.0
C1036 C 0.75018 0.09272 0.45289 0.0
C1037 C 0.74814 0.12032 0.44545 0.0
C1038 C 0.77348 0.08697 0.46088 0.0
C1039 C 0.79516 0.10876 0.46185 0.0
C1040 C 0.79337 0.1362 0.45384 0.0
C1041 C 0.77006 0.14196 0.44576 0.0
C1042 C 0.81962 0.10282 0.47135 0.0
C1043 C 0.84179 0.10884 0.45476 0.0
C1044 C 0.82082 0.08996 0.49608 0.0
C1045 C 0.79849 0.08466 0.51518 0.0
C1046 C 0.7861 0.10691 0.52336 0.0
C1047 C 0.76493 0.10173 0.54116 0.0
C1048 C 0.75607 0.07441 0.55108 0.0
C1049 C 0.7684 0.05223 0.54326 0.0
C1050 C 0.78957 0.05729 0.52543 0.0
C1051 C 0.93511 0.09033 0.50363 0.0
C1052 C 0.93469 0.06181 0.51012 0.0
C1053 C 0.91276 0.09902 0.49616 0.0
C1054 C 0.88966 0.07931 0.4949 0.0
C1055 C 0.88913 0.05096 0.50178 0.0
C1056 C 0.91139 0.04228 0.50927 0.0
C1057 C 0.86595 0.08799 0.48632 0.0
C1058 C 0.84391 0.08253 0.50313 0.0
C1059 C 0.86489 0.10136 0.46182 0.0
C1060 C 0.88718 0.10661 0.4427 0.0
C1061 C 0.89874 0.08411 0.4335 0.0
C1062 C 0.91988 0.08927 0.41564 0.0
C1063 C 0.92949 0.11682 0.40668 0.0
C1064 C 0.91794 0.13926 0.41549 0.0
C1065 C 0.89682 0.13422 0.43338 0.0
H1066 H 0.94586 0.12078 0.39285 0.0
H1067 H 0.73967 0.07045 0.56487 0.0
H1068 H 0.27491 0.61473 0.18662 0.0
H1069 H 0.23422 0.59038 0.16982 0.0
H1070 H 0.26515 0.60513 0.09023 0.0
H1071 H 0.30575 0.63004 0.10686 0.0
H1072 H 0.21903 0.61857 0.09521 0.0
H1073 H 0.25552 0.53872 0.11847 0.0
H1074 H 0.2758 0.50911 0.14726 0.0
H1075 H 0.21049 0.49971 0.20153 0.0
H1076 H 0.18995 0.5296 0.17325 0.0
H1077 H 0.11423 0.52611 0.03691 0.0
H1078 H 0.15674 0.54905 0.05077 0.0
H1079 H 0.12964 0.54024 0.13202 0.0
H1080 H 0.08731 0.51718 0.11843 0.0
H1081 H 0.1748 0.5227 0.12423 0.0
H1082 H 0.13917 0.60398 0.10175 0.0
H1083 H 0.1188 0.63347 0.07292 0.0
H1084 H 0.1826 0.63983 0.01698 0.0
H1085 H 0.2032 0.61002 0.04532 0.0
C1086 C 0.27316 0.61254 0.16554 0.0
C1087 C 0.29357 0.62434 0.14807 0.0
C1088 C 0.24989 0.59853 0.15596 0.0
C1089 C 0.24669 0.59573 0.12875 0.0
C1090 C 0.26718 0.60707 0.11129 0.0
C1091 C 0.29041 0.62121 0.12085 0.0
C1092 C 0.22162 0.582 0.11853 0.0
C1093 C 0.20955 0.59741 0.10122 0.0
C1094 C 0.209 0.55464 0.12679 0.0
C1095 C 0.2213 0.53662 0.14384 0.0
C1096 C 0.24556 0.53053 0.13664 0.0
C1097 C 0.25709 0.51366 0.15286 0.0
C1098 C 0.24447 0.50259 0.17624 0.0
C1099 C 0.22026 0.50832 0.18343 0.0
C1100 C 0.20865 0.5252 0.1673 0.0
C1101 C 0.11728 0.52929 0.05771 0.0
C1102 C 0.09741 0.51979 0.07657 0.0
C1103 C 0.14156 0.54243 0.0656 0.0
C1104 C 0.14631 0.54639 0.09244 0.0
C1105 C 0.1264 0.53728 0.11122 0.0
C1106 C 0.10218 0.5242 0.10339 0.0
C1107 C 0.17217 0.55935 0.10112 0.0
C1108 C 0.18437 0.54379 0.11813 0.0
C1109 C 0.18492 0.58653 0.09256 0.0
C1110 C 0.17259 0.60451 0.07552 0.0
C1111 C 0.14876 0.61146 0.08319 0.0
C1112 C 0.13719 0.62827 0.06696 0.0
C1113 C 0.14936 0.63845 0.04309 0.0
C1114 C 0.17317 0.63189 0.03545 0.0
C1115 C 0.18481 0.61506 0.0516 0.0
H1116 H 0.14038 0.65147 0.03056 0.0
H1117 H 0.25343 0.48953 0.18876 0.0
H1118 H 0.34616 0.40403 0.76526 0.0
H1119 H 0.37579 0.43689 0.73676 0.0
H1120 H 0.32819 0.4117 0.67097 0.0
H1121 H 0.29837 0.37864 0.69938 0.0
H1122 H 0.38009 0.41434 0.65852 0.0
H1123 H 0.32615 0.4734 0.69929 0.0
H1124 H 0.30405 0.49376 0.73629 0.0
H1125 H 0.37661 0.52841 0.76864 0.0
H1126 H 0.39915 0.5079 0.73202 0.0
H1127 H 0.4466 0.52838 0.57708 0.0
H1128 H 0.4134 0.49466 0.60126 0.0
H1129 H 0.45088 0.51877 0.67374 0.0
H1130 H 0.48366 0.55275 0.64992 0.0
H1131 H 0.4011 0.51682 0.68038 0.0
H1132 H 0.45509 0.45589 0.64183 0.0
H1133 H 0.47791 0.43522 0.60555 0.0
H1134 H 0.40635 0.40381 0.56983 0.0
H1135 H 0.38312 0.42465 0.60574 0.0
C1136 C 0.34194 0.40546 0.74474 0.0
C1137 C 0.31985 0.3888 0.7346 0.0
C1138 C 0.35887 0.42431 0.7285 0.0
C1139 C 0.35404 0.42689 0.70183 0.0
C1140 C 0.33221 0.41003 0.69152 0.0
C1141 C 0.31517 0.39126 0.70781 0.0
C1142 C 0.37189 0.44723 0.6848 0.0
C1143 C 0.38441 0.43684 0.663 0.0
C1144 C 0.37782 0.47645 0.691 0.0
C1145 C 0.36432 0.4889 0.71301 0.0
C1146 C 0.33739 0.48517 0.7144 0.0
C1147 C 0.32478 0.49677 0.73529 0.0
C1148 C 0.33891 0.51231 0.75483 0.0
C1149 C 0.36569 0.51634 0.7535 0.0
C1150 C 0.37839 0.50476 0.73266 0.0
C1151 C 0.44777 0.5264 0.59815 0.0
C1152 C 0.46771 0.54327 0.61159 0.0
C1153 C 0.42885 0.50707 0.61193 0.0
C1154 C 0.42975 0.50406 0.6393 0.0
C1155 C 0.44973 0.52079 0.65266 0.0
C1156 C 0.4685 0.54018 0.63897 0.0
C1157 C 0.40972 0.48392 0.65432 0.0
C1158 C 0.39671 0.49437 0.67574 0.0
C1159 C 0.40348 0.45474 0.64785 0.0
C1160 C 0.4174 0.4421 0.62631 0.0
C1161 C 0.44424 0.44477 0.62613 0.0
C1162 C 0.45725 0.43299 0.60565 0.0
C1163 C 0.4436 0.41828 0.58535 0.0
C1164 C 0.4169 0.41525 0.58554 0.0
C1165 C 0.4038 0.42703 0.60595 0.0
H1166 H 0.4537 0.40918 0.56952 0.0
H1167 H 0.32911 0.52128 0.77099 0.0
H1168 H 0.87725 0.71574 0.8466 0.0
H1169 H 0.90285 0.68221 0.86183 0.0
H1170 H 0.90732 0.72331 0.93774 0.0
H1171 H 0.88286 0.7577 0.92213 0.0
H1172 H 0.95102 0.71102 0.92592 0.0
H1173 H 0.86419 0.65848 0.92335 0.0
H1174 H 0.8234 0.63813 0.9032 0.0
H1175 H 0.86334 0.59142 0.84844 0.0
H1176 H 0.90443 0.61179 0.86807 0.0
H1177 H 0.94421 0.56502 0.99073 0.0
H1178 H 0.92574 0.60097 0.96911 0.0
H1179 H 0.99803 0.63091 0.92714 0.0
H1180 H 0.01717 0.5956 0.94994 0.0
H1181 H 0.91897 0.60753 0.91804 0.0
H1182 H 0.00647 0.68955 0.91742 0.0
H1183 H 0.04325 0.7104 0.94393 0.0
H1184 H 0.99466 0.69812 0.01424 0.0
H1185 H 0.95794 0.6762 0.98821 0.0
C1186 C 0.88372 0.7176 0.86653 0.0
C1187 C 0.87793 0.73923 0.88324 0.0
C1188 C 0.89829 0.69836 0.87526 0.0
C1189 C 0.90674 0.69988 0.90111 0.0
C1190 C 0.90112 0.72167 0.9177 0.0
C1191 C 0.88702 0.74127 0.90881 0.0
C1192 C 0.9211 0.67866 0.91114 0.0
C1193 C 0.94397 0.68839 0.92402 0.0
C1194 C 0.91208 0.64903 0.90887 0.0
C1195 C 0.88741 0.63697 0.89693 0.0
C1196 C 0.8643 0.64408 0.90686 0.0
C1197 C 0.84112 0.6325 0.89556 0.0
C1198 C 0.84079 0.61359 0.87449 0.0
C1199 C 0.86363 0.60614 0.86471 0.0
C1200 C 0.88686 0.61769 0.87591 0.0
C1201 C 0.95639 0.57957 0.97728 0.0
C1202 C 0.98231 0.57784 0.97247 0.0
C1203 C 0.94571 0.59999 0.96475 0.0
C1204 C 0.96054 0.61889 0.94673 0.0
C1205 C 0.98636 0.61694 0.9414 0.0
C1206 C 0.9972 0.59659 0.95423 0.0
C1207 C 0.94842 0.63992 0.93319 0.0
C1208 C 0.92609 0.63014 0.91953 0.0
C1209 C 0.95748 0.6694 0.93529 0.0
C1210 C 0.9797 0.6811 0.95099 0.0
C1211 C 0.0038 0.69105 0.93858 0.0
C1212 C 0.02463 0.70289 0.95352 0.0
C1213 C 0.02136 0.7053 0.98081 0.0
C1214 C 0.99728 0.69578 0.9932 0.0
C1215 C 0.97652 0.6835 0.97839 0.0
H1216 H 0.03743 0.7147 0.99233 0.0
H1217 H 0.82283 0.60463 0.86578 0.0
H1218 H 0.44845 0.75353 0.19819 0.0
H1219 H 0.46745 0.80265 0.18682 0.0
H1220 H 0.39267 0.81885 0.16989 0.0
H1221 H 0.37351 0.76986 0.18109 0.0
H1222 H 0.42799 0.83578 0.13004 0.0
H1223 H 0.42174 0.84697 0.22377 0.0
H1224 H 0.42818 0.83611 0.26998 0.0
H1225 H 0.50986 0.85461 0.25528 0.0
H1226 H 0.5039 0.8652 0.20886 0.0
H1227 H 0.46308 0.98215 0.10833 0.0
H1228 H 0.44309 0.938 0.13043 0.0
H1229 H 0.5178 0.91957 0.14419 0.0
H1230 H 0.53805 0.96386 0.12237 0.0
H1231 H 0.48223 0.90478 0.18698 0.0
H1232 H 0.48898 0.88828 0.0934 0.0
H1233 H 0.48405 0.90139 0.04741 0.0
H1234 H 0.40284 0.89395 0.06251 0.0
H1235 H 0.40733 0.88068 0.1085 0.0
C1236 C 0.43599 0.76762 0.19234 0.0
C1237 C 0.40947 0.75771 0.19043 0.0
C1238 C 0.44688 0.79571 0.18595 0.0
C1239 C 0.43143 0.81438 0.17759 0.0
C1240 C 0.40491 0.80475 0.17627 0.0
C1241 C 0.394 0.77674 0.18275 0.0
C1242 C 0.44311 0.84342 0.16864 0.0
C1243 C 0.4395 0.85097 0.14267 0.0
C1244 C 0.45872 0.86298 0.18486 0.0
C1245 C 0.46236 0.8566 0.21276 0.0
C1246 C 0.44107 0.84847 0.23032 0.0
C1247 C 0.44463 0.84242 0.25657 0.0
C1248 C 0.46941 0.8446 0.26554 0.0
C1249 C 0.49067 0.8529 0.24829 0.0
C1250 C 0.48722 0.85896 0.22202 0.0
C1251 C 0.4753 0.96889 0.11629 0.0
C1252 C 0.50215 0.97634 0.11328 0.0
C1253 C 0.46384 0.9437 0.12894 0.0
C1254 C 0.479 0.92545 0.13867 0.0
C1255 C 0.50579 0.93342 0.13682 0.0
C1256 C 0.5173 0.95864 0.12418 0.0
C1257 C 0.46689 0.89698 0.1486 0.0
C1258 C 0.47056 0.88953 0.17455 0.0
C1259 C 0.4515 0.87733 0.13238 0.0
C1260 C 0.44849 0.88358 0.10435 0.0
C1261 C 0.47006 0.88933 0.08683 0.0
C1262 C 0.46736 0.89678 0.06075 0.0
C1263 C 0.44315 0.89847 0.05197 0.0
C1264 C 0.42157 0.89247 0.06921 0.0
C1265 C 0.42416 0.88488 0.09527 0.0
H1266 H 0.44117 0.90446 0.03182 0.0
H1267 H 0.47213 0.83991 0.28587 0.0
H1268 H 0.09736 0.28389 0.70156 0.0
H1269 H 0.07691 0.2467 0.67203 0.0
H1270 H 0.10981 0.18493 0.71321 0.0
H1271 H 0.12964 0.22165 0.7431 0.0
H1272 H 0.09784 0.21624 0.63809 0.0
H1273 H 0.07415 0.12037 0.71061 0.0
H1274 H 0.05921 0.11117 0.75686 0.0
H1275 H 0.02454 0.18511 0.75732 0.0
H1276 H 0.03895 0.19455 0.71097 0.0
H1277 H 0.10074 0.08639 0.57529 0.0
H1278 H 0.10542 0.12827 0.60336 0.0
H1279 H 0.02463 0.1086 0.62539 0.0
H1280 H 0.0199 0.06608 0.59774 0.0
H1281 H 0.05094 0.12147 0.6673 0.0
H1282 H 0.04955 0.16481 0.5843 0.0
H1283 H 0.06125 0.17491 0.53744 0.0
H1284 H 0.13899 0.20845 0.55671 0.0
H1285 H 0.12789 0.1981 0.60363 0.0
C1286 C 0.09992 0.2623 0.70456 0.0
C1287 C 0.11515 0.25575 0.7247 0.0
C1288 C 0.08827 0.24108 0.68761 0.0
C1289 C 0.0916 0.21294 0.69051 0.0
C1290 C 0.10647 0.20633 0.71088 0.0
C1291 C 0.11794 0.22744 0.7279 0.0
C1292 C 0.08106 0.19072 0.67133 0.0
C1293 C 0.08738 0.1956 0.64446 0.0
C1294 C 0.06682 0.164 0.67951 0.0
C1295 C 0.05779 0.15826 0.70733 0.0
C1296 C 0.06321 0.13458 0.72052 0.0
C1297 C 0.05486 0.12934 0.74678 0.0
C1298 C 0.04099 0.14758 0.76004 0.0
C1299 C 0.03536 0.17105 0.74705 0.0
C1300 C 0.04365 0.17638 0.7208 0.0
C1301 C 0.08389 0.09105 0.58591 0.0
C1302 C 0.05995 0.07287 0.5843 0.0
C1303 C 0.08657 0.11514 0.60186 0.0
C1304 C 0.06531 0.12182 0.61625 0.0
C1305 C 0.04129 0.1039 0.61443 0.0
C1306 C 0.03861 0.07965 0.59858 0.0
C1307 C 0.06864 0.14667 0.63423 0.0
C1308 C 0.06101 0.14226 0.66088 0.0
C1309 C 0.08114 0.17401 0.62574 0.0
C1310 C 0.08789 0.18053 0.59752 0.0
C1311 C 0.06918 0.17417 0.57854 0.0
C1312 C 0.07571 0.17996 0.55196 0.0
C1313 C 0.10085 0.1923 0.54411 0.0
C1314 C 0.11952 0.1989 0.56282 0.0
C1315 C 0.11311 0.19311 0.58943 0.0
H1316 H 0.10588 0.19679 0.52353 0.0
H1317 H 0.03456 0.14349 0.78036 0.0
H1318 H 0.64322 0.30336 0.39229 0.0
H1319 H 0.63131 0.34517 0.41333 0.0
H1320 H 0.55213 0.31459 0.39616 0.0
H1321 H 0.56385 0.27247 0.37497 0.0
H1322 H 0.56888 0.37479 0.38941 0.0
H1323 H 0.56876 0.30204 0.45416 0.0
H1324 H 0.58726 0.26619 0.47726 0.0
H1325 H 0.64973 0.3307 0.50071 0.0
H1326 H 0.63178 0.36688 0.47741 0.0
H1327 H 0.51754 0.46193 0.48403 0.0
H1328 H 0.52619 0.42112 0.4584 0.0
H1329 H 0.60494 0.43907 0.48098 0.0
H1330 H 0.59637 0.47946 0.50699 0.0
H1331 H 0.58626 0.38409 0.48445 0.0
H1332 H 0.58772 0.45692 0.42018 0.0
H1333 H 0.57041 0.49367 0.39708 0.0
H1334 H 0.50733 0.4308 0.37224 0.0
H1335 H 0.52403 0.39372 0.39559 0.0
C1336 C 0.62331 0.30563 0.39262 0.0
C1337 C 0.60443 0.28437 0.38222 0.0
C1338 C 0.61655 0.32956 0.40468 0.0
C1339 C 0.59081 0.33274 0.40659 0.0
C1340 C 0.57209 0.31244 0.39492 0.0
C1341 C 0.57882 0.28836 0.38292 0.0
C1342 C 0.58338 0.35613 0.42252 0.0
C1343 C 0.57233 0.37669 0.41026 0.0
C1344 C 0.58835 0.35879 0.4496 0.0
C1345 C 0.59905 0.33711 0.46384 0.0
C1346 C 0.58654 0.30854 0.46408 0.0
C1347 C 0.59691 0.28817 0.47723 0.0
C1348 C 0.61969 0.29615 0.49039 0.0
C1349 C 0.6321 0.32454 0.49048 0.0
C1350 C 0.62183 0.34499 0.47733 0.0
C1351 C 0.53667 0.4571 0.48364 0.0
C1352 C 0.55628 0.47397 0.49752 0.0
C1353 C 0.54161 0.43387 0.46885 0.0
C1354 C 0.56631 0.42726 0.46749 0.0
C1355 C 0.58576 0.44378 0.48171 0.0
C1356 C 0.58082 0.46691 0.49656 0.0
C1357 C 0.572 0.4031 0.45136 0.0
C1358 C 0.5827 0.38227 0.46361 0.0
C1359 C 0.56688 0.4004 0.42427 0.0
C1360 C 0.55699 0.42258 0.40987 0.0
C1361 C 0.57006 0.45095 0.40995 0.0
C1362 C 0.56037 0.47185 0.3968 0.0
C1363 C 0.53775 0.46459 0.38326 0.0
C1364 C 0.52482 0.4364 0.38278 0.0
C1365 C 0.5344 0.41543 0.39596 0.0
H1366 H 0.53027 0.4808 0.3731 0.0
H1367 H 0.62769 0.28035 0.50056 0.0
loop_
_geom_bond_atom_site_label_1
_geom_bond_atom_site_label_2
_geom_bond_distance
_geom_bond_site_symmetry_2
_ccdc_geom_bond_type
O0 Cd1 2.300 . S
O0 C7 1.275 . S
Cd1 O0 2.300 . S
Cd1 O9 2.381 . S
Cd1 O10 2.378 . S
O2 Cd3 2.385 . S
O2 C7 1.255 . S
Cd3 O2 2.385 . S
Cd3 O4 2.317 . S
O4 Cd3 2.317 . S
O4 C5 1.232 . S
C5 O4 1.232 . S
C5 O6 1.218 . S
O6 C5 1.218 . S
C7 O0 1.275 . S
C7 O2 1.255 . S
C8 O9 1.258 . S
C8 O10 1.256 . S
O9 Cd1 2.381 . S
O9 C8 1.258 . S
O10 Cd1 2.378 . S
O10 C8 1.256 . S
O11 Cd12 2.300 . S
O11 C18 1.275 . S
Cd12 O11 2.300 . S
Cd12 O20 2.381 . S
Cd12 O21 2.378 . S
O13 Cd14 2.385 . S
O13 C18 1.255 . S
Cd14 O13 2.385 . S
Cd14 O15 2.317 . S
O15 Cd14 2.317 . S
O15 C16 1.232 . S
C16 O15 1.232 . S
C16 O17 1.218 . S
O17 C16 1.218 . S
C18 O11 1.275 . S
C18 O13 1.255 . S
C19 O20 1.258 . S
C19 O21 1.256 . S
O20 Cd12 2.381 . S
O20 C19 1.258 . S
O21 Cd12 2.378 . S
O21 C19 1.256 . S
O22 Cd23 2.300 . S
O22 C29 1.275 . S
Cd23 O22 2.300 . S
Cd23 O31 2.381 . S
Cd23 O32 2.378 . S
O24 Cd25 2.385 . S
O24 C29 1.255 . S
Cd25 O24 2.385 . S
Cd25 O26 2.317 . S
O26 Cd25 2.317 . S
O26 C27 1.232 . S
C27 O26 1.232 . S
C27 O28 1.218 . S
O28 C27 1.218 . S
C29 O22 1.275 . S
C29 O24 1.255 . S
C30 O31 1.258 . S
C30 O32 1.256 . S
O31 Cd23 2.381 . S
O31 C30 1.258 . S
O32 Cd23 2.378 . S
O32 C30 1.256 . S
O33 Cd34 2.300 . S
O33 C40 1.275 . S
Cd34 O33 2.300 . S
Cd34 O42 2.381 . S
Cd34 O43 2.378 . S
O35 Cd36 2.385 . S
O35 C40 1.255 . S
Cd36 O35 2.385 . S
Cd36 O37 2.317 . S
O37 Cd36 2.317 . S
O37 C38 1.232 . S
C38 O37 1.232 . S
C38 O39 1.218 . S
O39 C38 1.218 . S
C40 O33 1.275 . S
C40 O35 1.255 . S
C41 O42 1.258 . S
C41 O43 1.256 . S
O42 Cd34 2.381 . S
O42 C41 1.258 . S
O43 Cd34 2.378 . S
O43 C41 1.256 . S
O44 Cd45 2.300 . S
O44 C51 1.275 . S
Cd45 O44 2.300 . S
Cd45 O53 2.381 . S
Cd45 O54 2.378 . S
O46 Cd47 2.385 . S
O46 C51 1.255 . S
Cd47 O46 2.385 . S
Cd47 O48 2.317 . S
O48 Cd47 2.317 . S
O48 C49 1.232 . S
C49 O48 1.232 . S
C49 O50 1.218 . S
O50 C49 1.218 . S
C51 O44 1.275 . S
C51 O46 1.255 . S
C52 O53 1.258 . S
C52 O54 1.256 . S
O53 Cd45 2.381 . S
O53 C52 1.258 . S
O54 Cd45 2.378 . S
O54 C52 1.256 . S
O55 Cd56 2.300 . S
O55 C62 1.275 . S
Cd56 O55 2.300 . S
Cd56 O64 2.381 . S
Cd56 O65 2.378 . S
O57 Cd58 2.385 . S
O57 C62 1.255 . S
Cd58 O57 2.385 . S
Cd58 O59 2.317 . S
O59 Cd58 2.317 . S
O59 C60 1.232 . S
C60 O59 1.232 . S
C60 O61 1.218 . S
O61 C60 1.218 . S
C62 O55 1.275 . S
C62 O57 1.255 . S
C63 O64 1.258 . S
C63 O65 1.256 . S
O64 Cd56 2.381 . S
O64 C63 1.258 . S
O65 Cd56 2.378 . S
O65 C63 1.256 . S
O66 Cd67 2.300 . S
O66 C73 1.275 . S
Cd67 O66 2.300 . S
Cd67 O75 2.381 . S
Cd67 O76 2.378 . S
O68 Cd69 2.385 . S
O68 C73 1.255 . S
Cd69 O68 2.385 . S
Cd69 O70 2.317 . S
O70 Cd69 2.317 . S
O70 C71 1.232 . S
C71 O70 1.232 . S
C71 O72 1.218 . S
O72 C71 1.218 . S
C73 O66 1.275 . S
C73 O68 1.255 . S
C74 O75 1.258 . S
C74 O76 1.256 . S
O75 Cd67 2.381 . S
O75 C74 1.258 . S
O76 Cd67 2.378 . S
O76 C74 1.256 . S
O77 Cd78 2.300 . S
O77 C84 1.275 . S
Cd78 O77 2.300 . S
Cd78 O86 2.381 . S
Cd78 O87 2.378 . S
O79 Cd80 2.385 . S
O79 C84 1.255 . S
Cd80 O79 2.385 . S
Cd80 O81 2.317 . S
O81 Cd80 2.317 . S
O81 C82 1.232 . S
C82 O81 1.232 . S
C82 O83 1.218 . S
O83 C82 1.218 . S
C84 O77 1.275 . S
C84 O79 1.255 . S
C85 O86 1.258 . S
C85 O87 1.256 . S
O86 Cd78 2.381 . S
O86 C85 1.258 . S
O87 Cd78 2.378 . S
O87 C85 1.256 . S
Zn88 O94 1.969 1_545 S
Zn88 O95 1.965 1_545 S
Zn88 O99 2.024 . S
Zn88 O104 1.969 . S
Zn89 O96 1.969 1_545 S
Zn89 O102 1.969 . S
Zn89 O103 1.965 1_655 S
Zn89 O105 2.024 1_545 S
C90 O91 1.229 . S
C90 O99 1.058 . S
O91 C90 1.229 . S
C92 O93 1.229 . S
C92 O105 1.058 . S
O93 C92 1.229 . S
O94 Zn88 1.969 1_565 S
O94 C97 1.267 . S
O95 Zn88 1.965 1_565 S
O95 C106 1.260 1_455 S
O96 Zn89 1.969 1_565 S
O96 C106 1.258 . S
C97 O94 1.267 . S
C97 O98 1.228 . S
O98 C97 1.228 . S
O99 Zn88 2.024 . S
O99 C90 1.058 . S
C100 O101 1.228 . S
C100 O102 1.267 . S
O101 C100 1.228 . S
O102 Zn89 1.969 . S
O102 C100 1.267 . S
O103 Zn89 1.965 1_455 S
O103 C107 1.260 . S
O104 Zn88 1.969 . S
O104 C107 1.258 . S
O105 Zn89 2.024 1_565 S
O105 C92 1.058 . S
C106 O95 1.260 1_655 S
C106 O96 1.258 . S
C107 O103 1.260 . S
C107 O104 1.258 . S
Zn108 O114 1.969 1_545 S
Zn108 O115 1.965 . S
Zn108 O119 2.024 1_554 S
Zn108 O124 1.969 1_545 S
Zn109 O116 1.969 . S
Zn109 O122 1.969 . S
Zn109 O123 1.965 . S
Zn109 O125 2.024 . S
C110 O111 1.229 . S
C110 O119 1.058 1_565 S
O111 C110 1.229 . S
C112 O113 1.229 . S
C112 O125 1.058 . S
O113 C112 1.229 . S
O114 Zn108 1.969 1_565 S
O114 C117 1.267 1_554 S
O115 Zn108 1.965 . S
O115 C126 1.260 . S
O116 Zn109 1.969 . S
O116 C126 1.258 . S
C117 O114 1.267 1_556 S
C117 O118 1.228 1_565 S
O118 C117 1.228 1_545 S
O119 Zn108 2.024 1_556 S
O119 C110 1.058 1_545 S
C120 O121 1.228 . S
C120 O122 1.267 . S
O121 C120 1.228 . S
O122 Zn109 1.969 . S
O122 C120 1.267 . S
O123 Zn109 1.965 . S
O123 C127 1.257 1_545 S
O124 Zn108 1.969 1_565 S
O124 C127 1.259 . S
O125 Zn109 2.024 . S
O125 C112 1.058 . S
C126 O115 1.260 . S
C126 O116 1.258 . S
C127 O123 1.257 1_565 S
C127 O124 1.259 . S
Zn128 O134 1.969 . S
Zn128 O135 1.965 . S
Zn128 O139 2.024 . S
Zn128 O144 1.969 . S
Zn129 O136 1.969 . S
Zn129 O142 1.969 . S
Zn129 O143 1.965 . S
Zn129 O145 2.024 . S
C130 O131 1.229 . S
C130 O139 1.058 . S
O131 C130 1.229 . S
C132 O133 1.229 . S
C132 O145 1.058 . S
O133 C132 1.229 . S
O134 Zn128 1.969 . S
O134 C137 1.267 . S
O135 Zn128 1.965 . S
O135 C146 1.260 . S
O136 Zn129 1.969 . S
O136 C146 1.258 . S
C137 O134 1.267 . S
C137 O138 1.228 . S
O138 C137 1.228 . S
O139 Zn128 2.024 . S
O139 C130 1.058 . S
C140 O141 1.228 . S
C140 O142 1.267 . S
O141 C140 1.228 . S
O142 Zn129 1.969 . S
O142 C140 1.267 . S
O143 Zn129 1.965 . S
O143 C147 1.260 . S
O144 Zn128 1.969 . S
O144 C147 1.258 . S
O145 Zn129 2.024 . S
O145 C132 1.058 . S
C146 O135 1.260 . S
C146 O136 1.258 . S
C147 O143 1.260 . S
C147 O144 1.258 . S
Zn148 O154 1.969 . S
Zn148 O155 1.965 1_556 S
Zn148 O159 2.024 1_455 S
Zn148 O164 1.969 . S
Zn149 O156 1.969 . S
Zn149 O162 1.969 . S
Zn149 O163 1.965 . S
Zn149 O165 2.024 . S
C150 O151 1.229 . S
C150 O159 1.058 . S
O151 C150 1.229 . S
C152 O153 1.229 . S
C152 O165 1.058 . S
O153 C152 1.229 . S
O154 Zn148 1.969 . S
O154 C157 1.267 1_455 S
O155 Zn148 1.965 1_554 S
O155 C166 1.260 . S
O156 Zn149 1.969 . S
O156 C166 1.258 . S
C157 O154 1.267 1_655 S
C157 O158 1.228 . S
O158 C157 1.228 . S
O159 Zn148 2.024 1_655 S
O159 C150 1.058 . S
C160 O161 1.228 . S
C160 O162 1.267 . S
O161 C160 1.228 . S
O162 Zn149 1.969 . S
O162 C160 1.267 . S
O163 Zn149 1.965 . S
O163 C167 1.260 1_554 S
O164 Zn148 1.969 . S
O164 C167 1.258 . S
O165 Zn149 2.024 . S
O165 C152 1.058 . S
C166 O155 1.260 . S
C166 O156 1.258 . S
C167 O163 1.260 1_556 S
C167 O164 1.258 . S
H168 C186 0.951 . S
H169 C188 0.951 . S
H170 C190 0.950 . S
H171 C191 0.950 . S
H172 C193 0.950 . S
H173 C196 0.950 . S
H174 C197 0.950 . S
H175 C199 0.950 . S
H176 C200 0.950 . S
H177 C201 0.951 . S
H178 C203 0.951 . S
H179 C205 0.950 . S
H180 C206 0.950 . S
H181 C208 0.950 . S
H182 C211 0.950 . S
H183 C212 0.950 . S
H184 C214 0.950 . S
H185 C215 0.950 . S
C186 H168 0.951 . S
C186 C187 1.366 . S
C186 C188 1.388 . S
C187 C186 1.366 . S
C187 C191 1.385 . S
C188 H169 0.951 . S
C188 C186 1.388 . S
C188 C189 1.366 . S
C189 C188 1.366 . S
C189 C190 1.414 . S
C189 C192 1.499 . S
C190 H170 0.950 . S
C190 C189 1.414 . S
C190 C191 1.374 . S
C191 H171 0.950 . S
C191 C187 1.385 . S
C191 C190 1.374 . S
C192 C189 1.499 . S
C192 C193 1.373 . S
C192 C194 1.389 . S
C193 H172 0.950 . S
C193 C192 1.373 . S
C193 C209 1.377 . S
C194 C192 1.389 . S
C194 C195 1.524 . S
C194 C208 1.377 . S
C195 C194 1.524 . S
C195 C196 1.397 . S
C195 C200 1.363 . S
C196 H173 0.950 . S
C196 C195 1.397 . S
C196 C197 1.334 . S
C197 H174 0.950 . S
C197 C196 1.334 . S
C197 C198 1.287 . S
C198 C197 1.287 . S
C198 C199 1.524 . S
C198 H217 0.913 . S
C199 H175 0.950 . S
C199 C198 1.524 . S
C199 C200 1.415 . S
C200 H176 0.950 . S
C200 C195 1.363 . S
C200 C199 1.415 . S
C201 H177 0.951 . S
C201 C202 1.366 . S
C201 C203 1.388 . S
C202 C201 1.366 . S
C202 C206 1.385 . S
C203 H178 0.951 . S
C203 C201 1.388 . S
C203 C204 1.366 . S
C204 C203 1.366 . S
C204 C205 1.414 . S
C204 C207 1.499 . S
C205 H179 0.950 . S
C205 C204 1.414 . S
C205 C206 1.374 . S
C206 H180 0.950 . S
C206 C202 1.385 . S
C206 C205 1.374 . S
C207 C204 1.499 . S
C207 C208 1.373 . S
C207 C209 1.389 . S
C208 H181 0.950 . S
C208 C194 1.377 . S
C208 C207 1.373 . S
C209 C193 1.377 . S
C209 C207 1.389 . S
C209 C210 1.524 . S
C210 C209 1.524 . S
C210 C211 1.397 . S
C210 C215 1.363 . S
C211 H182 0.950 . S
C211 C210 1.397 . S
C211 C212 1.334 . S
C212 H183 0.950 . S
C212 C211 1.334 . S
C212 C213 1.287 . S
C213 C212 1.287 . S
C213 C214 1.524 . S
C213 H216 0.999 1_455 S
C214 H184 0.950 . S
C214 C213 1.524 . S
C214 C215 1.415 . S
C215 H185 0.950 . S
C215 C210 1.363 . S
C215 C214 1.415 . S
H216 C213 0.999 1_655 S
H217 C198 0.913 . S
H218 C236 0.951 . S
H219 C238 0.951 . S
H220 C240 0.950 . S
H221 C241 0.950 . S
H222 C243 0.950 . S
H223 C246 0.950 . S
H224 C247 0.950 . S
H225 C249 0.950 . S
H226 C250 0.947 1_545 S
H227 C251 0.951 . S
H228 C253 0.951 . S
H229 C255 0.950 . S
H230 C256 0.950 1_545 S
H231 C258 0.950 . S
H232 C261 0.950 . S
H233 C262 0.950 . S
H234 C264 0.950 . S
H235 C265 0.950 . S
C236 H218 0.951 . S
C236 C237 1.366 . S
C236 C238 1.388 . S
C237 C236 1.366 . S
C237 C241 1.385 . S
C238 H219 0.951 . S
C238 C236 1.388 . S
C238 C239 1.366 . S
C239 C238 1.366 . S
C239 C240 1.414 . S
C239 C242 1.499 . S
C240 H220 0.950 . S
C240 C239 1.414 . S
C240 C241 1.374 . S
C241 H221 0.950 . S
C241 C237 1.385 . S
C241 C240 1.374 . S
C242 C239 1.499 . S
C242 C243 1.373 . S
C242 C244 1.389 . S
C243 H222 0.950 . S
C243 C242 1.373 . S
C243 C259 1.377 . S
C244 C242 1.389 . S
C244 C245 1.524 . S
C244 C258 1.377 . S
C245 C244 1.524 . S
C245 C246 1.397 . S
C245 C250 1.384 . S
C246 H223 0.950 . S
C246 C245 1.397 . S
C246 C247 1.334 . S
C247 H224 0.950 . S
C247 C246 1.334 . S
C247 C248 1.287 1_565 S
C248 C247 1.287 1_545 S
C248 C249 1.524 . S
C248 H267 0.913 . S
C249 H225 0.950 . S
C249 C248 1.524 . S
C249 C250 1.397 1_545 S
C250 H226 0.947 1_565 S
C250 C245 1.384 . S
C250 C249 1.397 1_565 S
C251 H227 0.951 . S
C251 C252 1.366 . S
C251 C253 1.388 . S
C252 C251 1.366 . S
C252 C256 1.385 . S
C253 H228 0.951 . S
C253 C251 1.388 . S
C253 C254 1.366 . S
C254 C253 1.366 . S
C254 C255 1.414 . S
C254 C257 1.499 . S
C255 H229 0.950 . S
C255 C254 1.414 . S
C255 C256 1.374 . S
C256 H230 0.950 1_565 S
C256 C252 1.385 . S
C256 C255 1.374 . S
C257 C254 1.499 . S
C257 C258 1.373 . S
C257 C259 1.389 . S
C258 H231 0.950 . S
C258 C244 1.377 . S
C258 C257 1.373 . S
C259 C243 1.377 . S
C259 C257 1.389 . S
C259 C260 1.524 . S
C260 C259 1.524 . S
C260 C261 1.397 . S
C260 C265 1.363 . S
C261 H232 0.950 . S
C261 C260 1.397 . S
C261 C262 1.334 . S
C262 H233 0.950 . S
C262 C261 1.334 . S
C262 C263 1.287 . S
C263 C262 1.287 . S
C263 C264 1.524 . S
C263 H266 0.999 . S
C264 H234 0.950 . S
C264 C263 1.524 . S
C264 C265 1.415 . S
C265 H235 0.950 . S
C265 C260 1.363 . S
C265 C264 1.415 . S
H266 C263 0.999 . S
H267 C248 0.913 . S
H268 C286 0.951 . S
H269 C288 0.951 . S
H270 C290 0.950 . S
H271 C291 0.950 . S
H272 C293 0.950 . S
H273 C296 0.950 . S
H274 C297 0.950 . S
H275 C299 0.950 . S
H276 C300 0.950 . S
H277 C301 0.951 . S
H278 C303 0.951 . S
H279 C305 0.950 . S
H280 C306 0.950 . S
H281 C308 0.950 . S
H282 C311 0.950 . S
H283 C312 0.950 . S
H284 C314 0.950 . S
H285 C315 0.950 . S
C286 H268 0.951 . S
C286 C287 1.366 . S
C286 C288 1.388 . S
C287 C286 1.366 . S
C287 C291 1.385 . S
C288 H269 0.951 . S
C288 C286 1.388 . S
C288 C289 1.366 . S
C289 C288 1.366 . S
C289 C290 1.414 . S
C289 C292 1.499 . S
C290 H270 0.950 . S
C290 C289 1.414 . S
C290 C291 1.374 . S
C291 H271 0.950 . S
C291 C287 1.385 . S
C291 C290 1.374 . S
C292 C289 1.499 . S
C292 C293 1.373 . S
C292 C294 1.389 . S
C293 H272 0.950 . S
C293 C292 1.373 . S
C293 C309 1.377 . S
C294 C292 1.389 . S
C294 C295 1.524 . S
C294 C308 1.377 . S
C295 C294 1.524 . S
C295 C296 1.397 . S
C295 C300 1.363 . S
C296 H273 0.950 . S
C296 C295 1.397 . S
C296 C297 1.334 . S
C297 H274 0.950 . S
C297 C296 1.334 . S
C297 C298 1.287 . S
C298 C297 1.287 . S
C298 C299 1.524 . S
C298 H317 0.913 . S
C299 H275 0.950 . S
C299 C298 1.524 . S
C299 C300 1.415 . S
C300 H276 0.950 . S
C300 C295 1.363 . S
C300 C299 1.415 . S
C301 H277 0.951 . S
C301 C302 1.366 . S
C301 C303 1.388 . S
C302 C301 1.366 . S
C302 C306 1.385 . S
C303 H278 0.951 . S
C303 C301 1.388 . S
C303 C304 1.366 . S
C304 C303 1.366 . S
C304 C305 1.414 . S
C304 C307 1.499 . S
C305 H279 0.950 . S
C305 C304 1.414 . S
C305 C306 1.374 . S
C306 H280 0.950 . S
C306 C302 1.385 . S
C306 C305 1.374 . S
C307 C304 1.499 . S
C307 C308 1.373 . S
C307 C309 1.389 . S
C308 H281 0.950 . S
C308 C294 1.377 . S
C308 C307 1.373 . S
C309 C293 1.377 . S
C309 C307 1.389 . S
C309 C310 1.524 . S
C310 C309 1.524 . S
C310 C311 1.397 . S
C310 C315 1.363 . S
C311 H282 0.950 . S
C311 C310 1.397 . S
C311 C312 1.334 . S
C312 H283 0.950 . S
C312 C311 1.334 . S
C312 C313 1.287 . S
C313 C312 1.287 . S
C313 C314 1.524 . S
C313 H316 0.999 . S
C314 H284 0.950 . S
C314 C313 1.524 . S
C314 C315 1.415 . S
C315 H285 0.950 . S
C315 C310 1.363 . S
C315 C314 1.415 . S
H316 C313 0.999 . S
H317 C298 0.913 . S
H318 C336 0.951 . S
H319 C338 0.951 . S
H320 C340 0.950 . S
H321 C341 0.950 . S
H322 C343 0.950 . S
H323 C346 0.950 . S
H324 C347 0.950 . S
H325 C349 0.950 . S
H326 C350 0.950 . S
H327 C351 0.951 . S
H328 C353 0.951 . S
H329 C355 0.950 . S
H330 C356 0.950 . S
H331 C358 0.950 . S
H332 C361 0.950 . S
H333 C362 0.950 . S
H334 C364 0.950 . S
H335 C365 0.950 . S
C336 H318 0.951 . S
C336 C337 1.366 . S
C336 C338 1.388 . S
C337 C336 1.366 . S
C337 C341 1.385 . S
C338 H319 0.951 . S
C338 C336 1.388 . S
C338 C339 1.366 . S
C339 C338 1.366 . S
C339 C340 1.414 . S
C339 C342 1.499 . S
C340 H320 0.950 . S
C340 C339 1.414 . S
C340 C341 1.374 . S
C341 H321 0.950 . S
C341 C337 1.385 . S
C341 C340 1.374 . S
C342 C339 1.499 . S
C342 C343 1.373 . S
C342 C344 1.389 . S
C343 H322 0.950 . S
C343 C342 1.373 . S
C343 C359 1.377 . S
C344 C342 1.389 . S
C344 C345 1.524 . S
C344 C358 1.377 . S
C345 C344 1.524 . S
C345 C346 1.397 . S
C345 C350 1.363 . S
C346 H323 0.950 . S
C346 C345 1.397 . S
C346 C347 1.334 . S
C347 H324 0.950 . S
C347 C346 1.334 . S
C347 C348 1.287 . S
C348 C347 1.287 . S
C348 C349 1.524 . S
C348 H367 0.913 . S
C349 H325 0.950 . S
C349 C348 1.524 . S
C349 C350 1.415 . S
C350 H326 0.950 . S
C350 C345 1.363 . S
C350 C349 1.415 . S
C351 H327 0.951 . S
C351 C352 1.368 . S
C351 C353 1.388 1_455 S
C352 C351 1.368 . S
C352 C356 1.358 1_455 S
C353 H328 0.951 . S
C353 C351 1.388 1_655 S
C353 C354 1.366 . S
C354 C353 1.366 . S
C354 C355 1.414 . S
C354 C357 1.499 . S
C355 H329 0.950 . S
C355 C354 1.414 . S
C355 C356 1.374 . S
C356 H330 0.950 . S
C356 C352 1.358 1_655 S
C356 C355 1.374 . S
C357 C354 1.499 . S
C357 C358 1.373 . S
C357 C359 1.389 . S
C358 H331 0.950 . S
C358 C344 1.377 . S
C358 C357 1.373 . S
C359 C343 1.377 . S
C359 C357 1.389 . S
C359 C360 1.524 . S
C360 C359 1.524 . S
C360 C361 1.397 . S
C360 C365 1.363 . S
C361 H332 0.950 . S
C361 C360 1.397 . S
C361 C362 1.334 . S
C362 H333 0.950 . S
C362 C361 1.334 . S
C362 C363 1.287 . S
C363 C362 1.287 . S
C363 C364 1.524 . S
C363 H366 0.999 . S
C364 H334 0.950 . S
C364 C363 1.524 . S
C364 C365 1.415 . S
C365 H335 0.950 . S
C365 C360 1.363 . S
C365 C364 1.415 . S
H366 C363 0.999 . S
H367 C348 0.913 . S
H368 C386 0.951 . S
H369 C388 0.951 . S
H370 C390 0.950 . S
H371 C391 0.950 . S
H372 C393 0.950 . S
H373 C396 0.950 . S
H374 C397 0.950 . S
H375 C399 0.950 . S
H376 C400 0.950 . S
H377 C401 0.951 . S
H378 C403 0.951 . S
H379 C405 0.950 . S
H380 C406 0.950 . S
H381 C408 0.950 . S
H382 C411 0.950 . S
H383 C412 0.950 . S
H384 C414 0.950 . S
H385 C415 0.950 . S
C386 H368 0.951 . S
C386 C387 1.366 . S
C386 C388 1.388 . S
C387 C386 1.366 . S
C387 C391 1.385 . S
C388 H369 0.951 . S
C388 C386 1.388 . S
C388 C389 1.366 . S
C389 C388 1.366 . S
C389 C390 1.414 . S
C389 C392 1.499 . S
C390 H370 0.950 . S
C390 C389 1.414 . S
C390 C391 1.374 . S
C391 H371 0.950 . S
C391 C387 1.385 . S
C391 C390 1.374 . S
C392 C389 1.499 . S
C392 C393 1.373 . S
C392 C394 1.389 . S
C393 H372 0.950 . S
C393 C392 1.373 . S
C393 C409 1.377 . S
C394 C392 1.389 . S
C394 C395 1.524 . S
C394 C408 1.377 . S
C395 C394 1.524 . S
C395 C396 1.397 . S
C395 C400 1.363 . S
C396 H373 0.950 . S
C396 C395 1.397 . S
C396 C397 1.334 . S
C397 H374 0.950 . S
C397 C396 1.334 . S
C397 C398 1.287 . S
C398 C397 1.287 . S
C398 C399 1.524 . S
C398 H417 0.913 . S
C399 H375 0.950 . S
C399 C398 1.524 . S
C399 C400 1.415 . S
C400 H376 0.950 . S
C400 C395 1.363 . S
C400 C399 1.415 . S
C401 H377 0.951 . S
C401 C402 1.366 . S
C401 C403 1.388 . S
C402 C401 1.366 . S
C402 C406 1.385 . S
C403 H378 0.951 . S
C403 C401 1.388 . S
C403 C404 1.366 . S
C404 C403 1.366 . S
C404 C405 1.414 . S
C404 C407 1.499 . S
C405 H379 0.950 . S
C405 C404 1.414 . S
C405 C406 1.374 . S
C406 H380 0.950 . S
C406 C402 1.385 . S
C406 C405 1.374 . S
C407 C404 1.499 . S
C407 C408 1.373 . S
C407 C409 1.389 . S
C408 H381 0.950 . S
C408 C394 1.377 . S
C408 C407 1.373 . S
C409 C393 1.377 . S
C409 C407 1.389 . S
C409 C410 1.524 . S
C410 C409 1.524 . S
C410 C411 1.397 . S
C410 C415 1.363 . S
C411 H382 0.950 . S
C411 C410 1.397 . S
C411 C412 1.334 . S
C412 H383 0.950 . S
C412 C411 1.334 . S
C412 C413 1.287 . S
C413 C412 1.287 . S
C413 C414 1.524 . S
C413 H416 0.999 . S
C414 H384 0.950 . S
C414 C413 1.524 . S
C414 C415 1.415 . S
C415 H385 0.950 . S
C415 C410 1.363 . S
C415 C414 1.415 . S
H416 C413 0.999 . S
H417 C398 0.913 . S
H418 C436 0.951 . S
H419 C438 0.951 . S
H420 C440 0.950 . S
H421 C441 0.950 . S
H422 C443 0.950 . S
H423 C446 0.950 . S
H424 C447 0.950 . S
H425 C449 0.950 . S
H426 C450 0.950 . S
H427 C451 0.951 . S
H428 C453 0.951 . S
H429 C455 0.950 . S
H430 C456 0.950 . S
H431 C458 0.950 . S
H432 C461 0.950 . S
H433 C462 0.950 . S
H434 C464 0.950 . S
H435 C465 0.950 . S
C436 H418 0.951 . S
C436 C437 1.366 . S
C436 C438 1.388 . S
C437 C436 1.366 . S
C437 C441 1.385 . S
C438 H419 0.951 . S
C438 C436 1.388 . S
C438 C439 1.366 . S
C439 C438 1.366 . S
C439 C440 1.414 . S
C439 C442 1.499 . S
C440 H420 0.950 . S
C440 C439 1.414 . S
C440 C441 1.374 . S
C441 H421 0.950 . S
C441 C437 1.385 . S
C441 C440 1.374 . S
C442 C439 1.499 . S
C442 C443 1.373 . S
C442 C444 1.389 . S
C443 H422 0.950 . S
C443 C442 1.373 . S
C443 C459 1.377 . S
C444 C442 1.389 . S
C444 C445 1.524 . S
C444 C458 1.377 . S
C445 C444 1.524 . S
C445 C446 1.397 . S
C445 C450 1.363 . S
C446 H423 0.950 . S
C446 C445 1.397 . S
C446 C447 1.334 1_565 S
C447 H424 0.950 . S
C447 C446 1.334 1_545 S
C447 C448 1.287 . S
C448 C447 1.287 . S
C448 C449 1.524 . S
C448 H467 0.913 . S
C449 H425 0.950 . S
C449 C448 1.524 . S
C449 C450 1.415 1_545 S
C450 H426 0.950 . S
C450 C445 1.363 . S
C450 C449 1.415 1_565 S
C451 H427 0.951 . S
C451 C452 1.366 . S
C451 C453 1.388 . S
C452 C451 1.366 . S
C452 C456 1.385 . S
C453 H428 0.951 . S
C453 C451 1.388 . S
C453 C454 1.366 . S
C454 C453 1.366 . S
C454 C455 1.414 . S
C454 C457 1.499 . S
C455 H429 0.950 . S
C455 C454 1.414 . S
C455 C456 1.374 . S
C456 H430 0.950 . S
C456 C452 1.385 . S
C456 C455 1.374 . S
C457 C454 1.499 . S
C457 C458 1.373 . S
C457 C459 1.389 . S
C458 H431 0.950 . S
C458 C444 1.377 . S
C458 C457 1.373 . S
C459 C443 1.377 . S
C459 C457 1.389 . S
C459 C460 1.524 . S
C460 C459 1.524 . S
C460 C461 1.397 . S
C460 C465 1.363 . S
C461 H432 0.950 . S
C461 C460 1.397 . S
C461 C462 1.334 . S
C462 H433 0.950 . S
C462 C461 1.334 . S
C462 C463 1.287 . S
C463 C462 1.287 . S
C463 C464 1.524 . S
C463 H466 0.999 . S
C464 H434 0.950 . S
C464 C463 1.524 . S
C464 C465 1.415 . S
C465 H435 0.950 . S
C465 C460 1.363 . S
C465 C464 1.415 . S
H466 C463 0.999 . S
H467 C448 0.913 . S
H468 C486 0.951 . S
H469 C488 0.951 . S
H470 C490 0.950 . S
H471 C491 0.950 . S
H472 C493 0.950 . S
H473 C496 0.950 . S
H474 C497 0.950 . S
H475 C499 0.950 . S
H476 C500 0.950 . S
H477 C501 0.951 . S
H478 C503 0.951 . S
H479 C505 0.950 . S
H480 C506 0.950 . S
H481 C508 0.950 . S
H482 C511 0.950 . S
H483 C512 0.950 . S
H484 C514 0.950 . S
H485 C515 0.950 . S
C486 H468 0.951 . S
C486 C487 1.366 . S
C486 C488 1.388 . S
C487 C486 1.366 . S
C487 C491 1.385 . S
C488 H469 0.951 . S
C488 C486 1.388 . S
C488 C489 1.366 . S
C489 C488 1.366 . S
C489 C490 1.414 . S
C489 C492 1.499 . S
C490 H470 0.950 . S
C490 C489 1.414 . S
C490 C491 1.374 . S
C491 H471 0.950 . S
C491 C487 1.385 . S
C491 C490 1.374 . S
C492 C489 1.499 . S
C492 C493 1.373 . S
C492 C494 1.389 . S
C493 H472 0.950 . S
C493 C492 1.373 . S
C493 C509 1.377 . S
C494 C492 1.389 . S
C494 C495 1.524 . S
C494 C508 1.377 . S
C495 C494 1.524 . S
C495 C496 1.397 . S
C495 C500 1.363 . S
C496 H473 0.950 . S
C496 C495 1.397 . S
C496 C497 1.334 . S
C497 H474 0.950 . S
C497 C496 1.334 . S
C497 C498 1.287 . S
C498 C497 1.287 . S
C498 C499 1.524 . S
C498 H517 0.913 . S
C499 H475 0.950 . S
C499 C498 1.524 . S
C499 C500 1.415 . S
C500 H476 0.950 . S
C500 C495 1.363 . S
C500 C499 1.415 . S
C501 H477 0.951 . S
C501 C502 1.366 . S
C501 C503 1.388 . S
C502 C501 1.366 . S
C502 C506 1.385 . S
C503 H478 0.951 . S
C503 C501 1.388 . S
C503 C504 1.366 . S
C504 C503 1.366 . S
C504 C505 1.414 . S
C504 C507 1.499 . S
C505 H479 0.950 . S
C505 C504 1.414 . S
C505 C506 1.374 . S
C506 H480 0.950 . S
C506 C502 1.385 . S
C506 C505 1.374 . S
C507 C504 1.499 . S
C507 C508 1.373 . S
C507 C509 1.389 . S
C508 H481 0.950 . S
C508 C494 1.377 . S
C508 C507 1.373 . S
C509 C493 1.377 . S
C509 C507 1.389 . S
C509 C510 1.524 . S
C510 C509 1.524 . S
C510 C511 1.397 . S
C510 C515 1.363 . S
C511 H482 0.950 . S
C511 C510 1.397 . S
C511 C512 1.334 . S
C512 H483 0.950 . S
C512 C511 1.334 . S
C512 C513 1.287 . S
C513 C512 1.287 . S
C513 C514 1.524 . S
C513 H516 0.999 . S
C514 H484 0.950 . S
C514 C513 1.524 . S
C514 C515 1.415 . S
C515 H485 0.950 . S
C515 C510 1.363 . S
C515 C514 1.415 . S
H516 C513 0.999 . S
H517 C498 0.913 . S
H518 C536 0.951 . S
H519 C538 0.951 . S
H520 C540 0.950 . S
H521 C541 0.950 . S
H522 C543 0.950 . S
H523 C546 0.950 . S
H524 C547 0.950 . S
H525 C549 0.950 . S
H526 C550 0.950 . S
H527 C551 0.951 . S
H528 C553 0.951 . S
H529 C555 0.950 . S
H530 C556 0.950 . S
H531 C558 0.950 . S
H532 C561 0.950 . S
H533 C562 0.950 . S
H534 C564 0.950 . S
H535 C565 0.950 . S
C536 H518 0.951 . S
C536 C537 1.366 . S
C536 C538 1.388 . S
C537 C536 1.366 . S
C537 C541 1.385 . S
C538 H519 0.951 . S
C538 C536 1.388 . S
C538 C539 1.366 . S
C539 C538 1.366 . S
C539 C540 1.414 . S
C539 C542 1.499 . S
C540 H520 0.950 . S
C540 C539 1.414 . S
C540 C541 1.374 . S
C541 H521 0.950 . S
C541 C537 1.385 . S
C541 C540 1.374 . S
C542 C539 1.499 . S
C542 C543 1.373 . S
C542 C544 1.389 . S
C543 H522 0.950 . S
C543 C542 1.373 . S
C543 C559 1.377 . S
C544 C542 1.389 . S
C544 C545 1.524 . S
C544 C558 1.377 . S
C545 C544 1.524 . S
C545 C546 1.397 . S
C545 C550 1.363 . S
C546 H523 0.950 . S
C546 C545 1.397 . S
C546 C547 1.334 . S
C547 H524 0.950 . S
C547 C546 1.334 . S
C547 C548 1.287 . S
C548 C547 1.287 . S
C548 C549 1.524 . S
C548 H567 0.913 . S
C549 H525 0.950 . S
C549 C548 1.524 . S
C549 C550 1.415 . S
C550 H526 0.950 . S
C550 C545 1.363 . S
C550 C549 1.415 . S
C551 H527 0.951 . S
C551 C552 1.366 . S
C551 C553 1.388 . S
C552 C551 1.366 . S
C552 C556 1.385 . S
C553 H528 0.951 . S
C553 C551 1.388 . S
C553 C554 1.366 . S
C554 C553 1.366 . S
C554 C555 1.414 . S
C554 C557 1.499 . S
C555 H529 0.950 . S
C555 C554 1.414 . S
C555 C556 1.374 . S
C556 H530 0.950 . S
C556 C552 1.385 . S
C556 C555 1.374 . S
C557 C554 1.499 . S
C557 C558 1.373 . S
C557 C559 1.389 . S
C558 H531 0.950 . S
C558 C544 1.377 . S
C558 C557 1.373 . S
C559 C543 1.377 . S
C559 C557 1.389 . S
C559 C560 1.524 . S
C560 C559 1.524 . S
C560 C561 1.397 . S
C560 C565 1.363 . S
C561 H532 0.950 . S
C561 C560 1.397 . S
C561 C562 1.334 . S
C562 H533 0.950 . S
C562 C561 1.334 . S
C562 C563 1.287 . S
C563 C562 1.287 . S
C563 C564 1.524 . S
C563 H566 0.999 . S
C564 H534 0.950 . S
C564 C563 1.524 . S
C564 C565 1.415 . S
C565 H535 0.950 . S
C565 C560 1.363 . S
C565 C564 1.415 . S
H566 C563 0.999 . S
H567 C548 0.913 . S
H568 C586 0.951 . S
H569 C588 0.951 . S
H570 C590 0.950 . S
H571 C591 0.950 . S
H572 C593 0.950 . S
H573 C596 0.950 . S
H574 C597 0.950 . S
H575 C599 0.950 . S
H576 C600 0.950 . S
H577 C601 0.951 . S
H578 C603 0.951 . S
H579 C605 0.950 . S
H580 C606 0.950 . S
H581 C608 0.950 . S
H582 C611 0.950 . S
H583 C612 0.950 . S
H584 C614 0.950 . S
H585 C615 0.950 . S
C586 H568 0.951 . S
C586 C587 1.366 . S
C586 C588 1.388 . S
C587 C586 1.366 . S
C587 C591 1.385 . S
C588 H569 0.951 . S
C588 C586 1.388 . S
C588 C589 1.366 . S
C589 C588 1.366 . S
C589 C590 1.414 . S
C589 C592 1.499 . S
C590 H570 0.950 . S
C590 C589 1.414 . S
C590 C591 1.374 . S
C591 H571 0.950 . S
C591 C587 1.385 . S
C591 C590 1.374 . S
C592 C589 1.499 . S
C592 C593 1.373 . S
C592 C594 1.389 . S
C593 H572 0.950 . S
C593 C592 1.373 . S
C593 C609 1.377 . S
C594 C592 1.389 . S
C594 C595 1.524 . S
C594 C608 1.377 . S
C595 C594 1.524 . S
C595 C596 1.397 . S
C595 C600 1.363 . S
C596 H573 0.950 . S
C596 C595 1.397 . S
C596 C597 1.334 . S
C597 H574 0.950 . S
C597 C596 1.334 . S
C597 C598 1.287 . S
C598 C597 1.287 . S
C598 C599 1.524 . S
C598 H617 0.913 . S
C599 H575 0.950 . S
C599 C598 1.524 . S
C599 C600 1.415 . S
C600 H576 0.950 . S
C600 C595 1.363 . S
C600 C599 1.415 . S
C601 H577 0.951 . S
C601 C602 1.366 . S
C601 C603 1.388 . S
C602 C601 1.366 . S
C602 C606 1.385 . S
C603 H578 0.951 . S
C603 C601 1.388 . S
C603 C604 1.366 . S
C604 C603 1.366 . S
C604 C605 1.414 . S
C604 C607 1.499 . S
C605 H579 0.950 . S
C605 C604 1.414 . S
C605 C606 1.374 . S
C606 H580 0.950 . S
C606 C602 1.385 . S
C606 C605 1.374 . S
C607 C604 1.499 . S
C607 C608 1.373 . S
C607 C609 1.389 . S
C608 H581 0.950 . S
C608 C594 1.377 . S
C608 C607 1.373 . S
C609 C593 1.377 . S
C609 C607 1.389 . S
C609 C610 1.524 . S
C610 C609 1.524 . S
C610 C611 1.397 . S
C610 C615 1.363 . S
C611 H582 0.950 . S
C611 C610 1.397 . S
C611 C612 1.334 . S
C612 H583 0.950 . S
C612 C611 1.334 . S
C612 C613 1.287 . S
C613 C612 1.287 . S
C613 C614 1.524 . S
C613 H616 0.999 . S
C614 H584 0.950 . S
C614 C613 1.524 . S
C614 C615 1.415 . S
C615 H585 0.950 . S
C615 C610 1.363 . S
C615 C614 1.415 . S
H616 C613 0.999 . S
H617 C598 0.913 . S
H618 C636 0.951 . S
H619 C638 0.951 . S
H620 C640 0.950 . S
H621 C641 0.950 . S
H622 C643 0.950 . S
H623 C646 0.950 . S
H624 C647 0.950 . S
H625 C649 0.950 . S
H626 C650 0.950 . S
H627 C651 0.951 . S
H628 C653 0.951 . S
H629 C655 0.950 . S
H630 C656 0.950 . S
H631 C658 0.950 . S
H632 C661 0.950 . S
H633 C662 0.950 . S
H634 C664 0.950 . S
H635 C665 0.950 . S
C636 H618 0.951 . S
C636 C637 1.366 . S
C636 C638 1.388 . S
C637 C636 1.366 . S
C637 C641 1.385 . S
C638 H619 0.951 . S
C638 C636 1.388 . S
C638 C639 1.366 . S
C639 C638 1.366 . S
C639 C640 1.414 . S
C639 C642 1.499 . S
C640 H620 0.950 . S
C640 C639 1.414 . S
C640 C641 1.374 . S
C641 H621 0.950 . S
C641 C637 1.385 . S
C641 C640 1.374 . S
C642 C639 1.499 . S
C642 C643 1.373 . S
C642 C644 1.389 . S
C643 H622 0.950 . S
C643 C642 1.373 . S
C643 C659 1.377 . S
C644 C642 1.389 . S
C644 C645 1.524 . S
C644 C658 1.377 . S
C645 C644 1.524 . S
C645 C646 1.397 . S
C645 C650 1.363 1_556 S
C646 H623 0.950 . S
C646 C645 1.397 . S
C646 C647 1.334 . S
C647 H624 0.950 . S
C647 C646 1.334 . S
C647 C648 1.287 1_556 S
C648 C647 1.287 1_554 S
C648 C649 1.524 . S
C648 H667 0.913 . S
C649 H625 0.950 . S
C649 C648 1.524 . S
C649 C650 1.415 . S
C650 H626 0.950 . S
C650 C645 1.363 1_554 S
C650 C649 1.415 . S
C651 H627 0.951 . S
C651 C652 1.366 1_556 S
C651 C653 1.388 . S
C652 C651 1.366 1_554 S
C652 C656 1.385 . S
C653 H628 0.951 . S
C653 C651 1.388 . S
C653 C654 1.366 . S
C654 C653 1.366 . S
C654 C655 1.414 1_556 S
C654 C657 1.499 . S
C655 H629 0.950 . S
C655 C654 1.414 1_554 S
C655 C656 1.374 . S
C656 H630 0.950 . S
C656 C652 1.385 . S
C656 C655 1.374 . S
C657 C654 1.499 . S
C657 C658 1.373 . S
C657 C659 1.389 . S
C658 H631 0.950 . S
C658 C644 1.377 . S
C658 C657 1.373 . S
C659 C643 1.377 . S
C659 C657 1.389 . S
C659 C660 1.524 . S
C660 C659 1.524 . S
C660 C661 1.397 . S
C660 C665 1.363 . S
C661 H632 0.950 . S
C661 C660 1.397 . S
C661 C662 1.334 . S
C662 H633 0.950 . S
C662 C661 1.334 . S
C662 C663 1.287 . S
C663 C662 1.287 . S
C663 C664 1.524 . S
C663 H666 0.999 . S
C664 H634 0.950 . S
C664 C663 1.524 . S
C664 C665 1.415 . S
C665 H635 0.950 . S
C665 C660 1.363 . S
C665 C664 1.415 . S
H666 C663 0.999 . S
H667 C648 0.913 . S
H668 C686 0.951 . S
H669 C688 0.951 . S
H670 C690 0.950 . S
H671 C691 0.950 . S
H672 C693 0.950 . S
H673 C696 0.950 . S
H674 C697 0.950 . S
H675 C699 0.950 . S
H676 C700 0.950 . S
H677 C701 0.951 . S
H678 C703 0.951 . S
H679 C705 0.950 . S
H680 C706 0.950 . S
H681 C708 0.950 . S
H682 C711 0.950 . S
H683 C712 0.950 . S
H684 C714 0.950 . S
H685 C715 0.950 . S
C686 H668 0.951 . S
C686 C687 1.366 . S
C686 C688 1.388 . S
C687 C686 1.366 . S
C687 C691 1.385 . S
C688 H669 0.951 . S
C688 C686 1.388 . S
C688 C689 1.366 . S
C689 C688 1.366 . S
C689 C690 1.414 . S
C689 C692 1.499 . S
C690 H670 0.950 . S
C690 C689 1.414 . S
C690 C691 1.374 . S
C691 H671 0.950 . S
C691 C687 1.385 . S
C691 C690 1.374 . S
C692 C689 1.499 . S
C692 C693 1.373 . S
C692 C694 1.389 . S
C693 H672 0.950 . S
C693 C692 1.373 . S
C693 C709 1.377 . S
C694 C692 1.389 . S
C694 C695 1.524 . S
C694 C708 1.377 . S
C695 C694 1.524 . S
C695 C696 1.397 . S
C695 C700 1.363 . S
C696 H673 0.950 . S
C696 C695 1.397 . S
C696 C697 1.334 . S
C697 H674 0.950 . S
C697 C696 1.334 . S
C697 C698 1.287 . S
C698 C697 1.287 . S
C698 C699 1.524 . S
C698 H717 0.913 . S
C699 H675 0.950 . S
C699 C698 1.524 . S
C699 C700 1.415 . S
C700 H676 0.950 . S
C700 C695 1.363 . S
C700 C699 1.415 . S
C701 H677 0.951 . S
C701 C702 1.366 . S
C701 C703 1.388 . S
C702 C701 1.366 . S
C702 C706 1.385 . S
C703 H678 0.951 . S
C703 C701 1.388 . S
C703 C704 1.366 . S
C704 C703 1.366 . S
C704 C705 1.414 . S
C704 C707 1.499 . S
C705 H679 0.950 . S
C705 C704 1.414 . S
C705 C706 1.374 . S
C706 H680 0.950 . S
C706 C702 1.385 . S
C706 C705 1.374 . S
C707 C704 1.499 . S
C707 C708 1.373 . S
C707 C709 1.389 . S
C708 H681 0.950 . S
C708 C694 1.377 . S
C708 C707 1.373 . S
C709 C693 1.377 . S
C709 C707 1.389 . S
C709 C710 1.524 . S
C710 C709 1.524 . S
C710 C711 1.397 . S
C710 C715 1.363 . S
C711 H682 0.950 . S
C711 C710 1.397 . S
C711 C712 1.334 . S
C712 H683 0.950 . S
C712 C711 1.334 . S
C712 C713 1.287 . S
C713 C712 1.287 . S
C713 C714 1.524 . S
C713 H716 0.999 . S
C714 H684 0.950 . S
C714 C713 1.524 . S
C714 C715 1.415 . S
C715 H685 0.950 . S
C715 C710 1.363 . S
C715 C714 1.415 . S
H716 C713 0.999 . S
H717 C698 0.913 . S
H718 C736 0.951 . S
H719 C738 0.951 . S
H720 C740 0.950 . S
H721 C741 0.950 . S
H722 C743 0.950 . S
H723 C746 0.950 . S
H724 C747 0.950 . S
H725 C749 0.950 . S
H726 C750 0.950 . S
H727 C751 0.951 . S
H728 C753 0.951 . S
H729 C755 0.950 . S
H730 C756 0.950 . S
H731 C758 0.950 . S
H732 C761 0.950 . S
H733 C762 0.950 . S
H734 C764 0.950 . S
H735 C765 0.950 . S
C736 H718 0.951 . S
C736 C737 1.366 . S
C736 C738 1.388 . S
C737 C736 1.366 . S
C737 C741 1.385 . S
C738 H719 0.951 . S
C738 C736 1.388 . S
C738 C739 1.366 . S
C739 C738 1.366 . S
C739 C740 1.414 . S
C739 C742 1.499 . S
C740 H720 0.950 . S
C740 C739 1.414 . S
C740 C741 1.374 . S
C741 H721 0.950 . S
C741 C737 1.385 . S
C741 C740 1.374 . S
C742 C739 1.499 . S
C742 C743 1.373 . S
C742 C744 1.389 . S
C743 H722 0.950 . S
C743 C742 1.373 . S
C743 C759 1.377 . S
C744 C742 1.389 . S
C744 C745 1.524 . S
C744 C758 1.377 . S
C745 C744 1.524 . S
C745 C746 1.397 . S
C745 C750 1.363 . S
C746 H723 0.950 . S
C746 C745 1.397 . S
C746 C747 1.334 . S
C747 H724 0.950 . S
C747 C746 1.334 . S
C747 C748 1.287 . S
C748 C747 1.287 . S
C748 C749 1.524 . S
C748 H767 0.913 . S
C749 H725 0.950 . S
C749 C748 1.524 . S
C749 C750 1.415 . S
C750 H726 0.950 . S
C750 C745 1.363 . S
C750 C749 1.415 . S
C751 H727 0.951 . S
C751 C752 1.366 . S
C751 C753 1.388 . S
C752 C751 1.366 . S
C752 C756 1.385 . S
C753 H728 0.951 . S
C753 C751 1.388 . S
C753 C754 1.366 . S
C754 C753 1.366 . S
C754 C755 1.414 . S
C754 C757 1.499 . S
C755 H729 0.950 . S
C755 C754 1.414 . S
C755 C756 1.374 . S
C756 H730 0.950 . S
C756 C752 1.385 . S
C756 C755 1.374 . S
C757 C754 1.499 . S
C757 C758 1.373 . S
C757 C759 1.389 . S
C758 H731 0.950 . S
C758 C744 1.377 . S
C758 C757 1.373 . S
C759 C743 1.377 . S
C759 C757 1.389 . S
C759 C760 1.524 . S
C760 C759 1.524 . S
C760 C761 1.397 . S
C760 C765 1.363 . S
C761 H732 0.950 . S
C761 C760 1.397 . S
C761 C762 1.334 . S
C762 H733 0.950 . S
C762 C761 1.334 . S
C762 C763 1.287 . S
C763 C762 1.287 . S
C763 C764 1.524 . S
C763 H766 0.999 . S
C764 H734 0.950 . S
C764 C763 1.524 . S
C764 C765 1.415 . S
C765 H735 0.950 . S
C765 C760 1.363 . S
C765 C764 1.415 . S
H766 C763 0.999 . S
H767 C748 0.913 . S
H768 C786 0.951 . S
H769 C788 0.951 . S
H770 C790 0.950 . S
H771 C791 0.950 . S
H772 C793 0.950 . S
H773 C796 0.950 . S
H774 C797 0.950 . S
H775 C799 0.950 . S
H776 C800 0.950 . S
H777 C801 0.951 . S
H778 C803 0.951 . S
H779 C805 0.950 . S
H780 C806 0.982 . S
H781 C808 0.950 . S
H782 C811 0.950 . S
H783 C812 0.950 1_545 S
H784 C814 0.950 1_455 S
H785 C815 0.950 . S
C786 H768 0.951 . S
C786 C787 1.366 . S
C786 C788 1.388 . S
C787 C786 1.366 . S
C787 C791 1.385 . S
C788 H769 0.951 . S
C788 C786 1.388 . S
C788 C789 1.366 . S
C789 C788 1.366 . S
C789 C790 1.414 . S
C789 C792 1.499 . S
C790 H770 0.950 . S
C790 C789 1.414 . S
C790 C791 1.374 . S
C791 H771 0.950 . S
C791 C787 1.385 . S
C791 C790 1.374 . S
C792 C789 1.499 . S
C792 C793 1.373 . S
C792 C794 1.389 . S
C793 H772 0.950 . S
C793 C792 1.373 . S
C793 C809 1.377 . S
C794 C792 1.389 . S
C794 C795 1.524 . S
C794 C808 1.377 . S
C795 C794 1.524 . S
C795 C796 1.397 . S
C795 C800 1.363 . S
C796 H773 0.950 . S
C796 C795 1.397 . S
C796 C797 1.334 . S
C797 H774 0.950 . S
C797 C796 1.334 . S
C797 C798 1.287 . S
C798 C797 1.287 . S
C798 C799 1.524 . S
C798 H817 0.913 . S
C799 H775 0.950 . S
C799 C798 1.524 . S
C799 C800 1.415 . S
C800 H776 0.950 . S
C800 C795 1.363 . S
C800 C799 1.415 . S
C801 H777 0.951 . S
C801 C802 1.366 . S
C801 C803 1.388 . S
C802 C801 1.366 . S
C802 C806 1.385 . S
C803 H778 0.951 . S
C803 C801 1.388 . S
C803 C804 1.366 . S
C804 C803 1.366 . S
C804 C805 1.414 . S
C804 C807 1.499 . S
C805 H779 0.950 . S
C805 C804 1.414 . S
C805 C806 1.374 . S
C806 H780 0.982 . S
C806 C802 1.385 . S
C806 C805 1.374 . S
C807 C804 1.499 . S
C807 C808 1.373 . S
C807 C809 1.389 . S
C808 H781 0.950 . S
C808 C794 1.377 . S
C808 C807 1.373 . S
C809 C793 1.377 . S
C809 C807 1.389 . S
C809 C810 1.524 . S
C810 C809 1.524 . S
C810 C811 1.397 . S
C810 C815 1.363 . S
C811 H782 0.950 . S
C811 C810 1.397 . S
C811 C812 1.334 . S
C812 H783 0.950 1_565 S
C812 C811 1.334 . S
C812 C813 1.287 1_655 S
C813 C812 1.287 1_455 S
C813 C814 1.524 1_455 S
C813 H816 0.999 . S
C814 H784 0.950 1_655 S
C814 C813 1.524 1_655 S
C814 C815 1.415 . S
C815 H785 0.950 . S
C815 C810 1.363 . S
C815 C814 1.415 . S
H816 C813 0.999 . S
H817 C798 0.913 . S
H818 C836 0.951 . S
H819 C838 0.951 . S
H820 C840 0.950 . S
H821 C841 0.950 . S
H822 C843 0.950 . S
H823 C846 0.950 . S
H824 C847 0.950 . S
H825 C849 0.950 . S
H826 C850 0.950 . S
H827 C851 0.951 . S
H828 C853 0.951 . S
H829 C855 0.950 . S
H830 C856 0.950 . S
H831 C858 0.950 . S
H832 C861 0.950 . S
H833 C862 0.950 . S
H834 C864 0.950 . S
H835 C865 0.950 . S
C836 H818 0.951 . S
C836 C837 1.366 . S
C836 C838 1.388 . S
C837 C836 1.366 . S
C837 C841 1.385 . S
C838 H819 0.951 . S
C838 C836 1.388 . S
C838 C839 1.366 . S
C839 C838 1.366 . S
C839 C840 1.414 . S
C839 C842 1.499 . S
C840 H820 0.950 . S
C840 C839 1.414 . S
C840 C841 1.374 . S
C841 H821 0.950 . S
C841 C837 1.385 . S
C841 C840 1.374 . S
C842 C839 1.499 . S
C842 C843 1.373 . S
C842 C844 1.389 . S
C843 H822 0.950 . S
C843 C842 1.373 . S
C843 C859 1.377 . S
C844 C842 1.389 . S
C844 C845 1.524 . S
C844 C858 1.377 . S
C845 C844 1.524 . S
C845 C846 1.397 . S
C845 C850 1.363 . S
C846 H823 0.950 . S
C846 C845 1.397 . S
C846 C847 1.334 . S
C847 H824 0.950 . S
C847 C846 1.334 . S
C847 C848 1.287 . S
C848 C847 1.287 . S
C848 C849 1.524 . S
C848 H867 0.913 . S
C849 H825 0.950 . S
C849 C848 1.524 . S
C849 C850 1.415 . S
C850 H826 0.950 . S
C850 C845 1.363 . S
C850 C849 1.415 . S
C851 H827 0.951 . S
C851 C852 1.366 . S
C851 C853 1.388 . S
C852 C851 1.366 . S
C852 C856 1.385 . S
C853 H828 0.951 . S
C853 C851 1.388 . S
C853 C854 1.366 . S
C854 C853 1.366 . S
C854 C855 1.414 . S
C854 C857 1.499 . S
C855 H829 0.950 . S
C855 C854 1.414 . S
C855 C856 1.374 . S
C856 H830 0.950 . S
C856 C852 1.385 . S
C856 C855 1.374 . S
C857 C854 1.499 . S
C857 C858 1.373 . S
C857 C859 1.389 . S
C858 H831 0.950 . S
C858 C844 1.377 . S
C858 C857 1.373 . S
C859 C843 1.377 . S
C859 C857 1.389 . S
C859 C860 1.524 . S
C860 C859 1.524 . S
C860 C861 1.397 . S
C860 C865 1.363 . S
C861 H832 0.950 . S
C861 C860 1.397 . S
C861 C862 1.334 . S
C862 H833 0.950 . S
C862 C861 1.334 . S
C862 C863 1.287 . S
C863 C862 1.287 . S
C863 C864 1.524 . S
C863 H866 0.965 1_545 S
C864 H834 0.950 . S
C864 C863 1.524 . S
C864 C865 1.415 . S
C865 H835 0.950 . S
C865 C860 1.363 . S
C865 C864 1.415 . S
H866 C863 0.965 1_565 S
H867 C848 0.913 . S
H868 C886 0.951 . S
H869 C888 0.951 . S
H870 C890 0.950 . S
H871 C891 0.950 . S
H872 C893 0.950 . S
H873 C896 0.950 . S
H874 C897 0.950 . S
H875 C899 0.950 . S
H876 C900 0.950 . S
H877 C901 0.951 . S
H878 C903 0.951 . S
H879 C905 0.950 . S
H880 C906 0.950 . S
H881 C908 0.950 . S
H882 C911 0.950 . S
H883 C912 0.950 . S
H884 C914 0.950 . S
H885 C915 0.950 . S
C886 H868 0.951 . S
C886 C887 1.366 . S
C886 C888 1.388 . S
C887 C886 1.366 . S
C887 C891 1.385 . S
C888 H869 0.951 . S
C888 C886 1.388 . S
C888 C889 1.366 . S
C889 C888 1.366 . S
C889 C890 1.414 . S
C889 C892 1.499 . S
C890 H870 0.950 . S
C890 C889 1.414 . S
C890 C891 1.374 . S
C891 H871 0.950 . S
C891 C887 1.385 . S
C891 C890 1.374 . S
C892 C889 1.499 . S
C892 C893 1.373 . S
C892 C894 1.389 . S
C893 H872 0.950 . S
C893 C892 1.373 . S
C893 C909 1.377 . S
C894 C892 1.389 . S
C894 C895 1.524 . S
C894 C908 1.377 . S
C895 C894 1.524 . S
C895 C896 1.397 . S
C895 C900 1.363 . S
C896 H873 0.950 . S
C896 C895 1.397 . S
C896 C897 1.334 . S
C897 H874 0.950 . S
C897 C896 1.334 . S
C897 C898 1.287 . S
C898 C897 1.287 . S
C898 C899 1.524 . S
C898 H917 0.913 . S
C899 H875 0.950 . S
C899 C898 1.524 . S
C899 C900 1.415 . S
C900 H876 0.950 . S
C900 C895 1.363 . S
C900 C899 1.415 . S
C901 H877 0.951 . S
C901 C902 1.366 . S
C901 C903 1.388 . S
C902 C901 1.366 . S
C902 C906 1.385 . S
C903 H878 0.951 . S
C903 C901 1.388 . S
C903 C904 1.366 . S
C904 C903 1.366 . S
C904 C905 1.414 . S
C904 C907 1.499 . S
C905 H879 0.950 . S
C905 C904 1.414 . S
C905 C906 1.374 . S
C906 H880 0.950 . S
C906 C902 1.385 . S
C906 C905 1.374 . S
C907 C904 1.499 . S
C907 C908 1.373 . S
C907 C909 1.389 . S
C908 H881 0.950 . S
C908 C894 1.377 . S
C908 C907 1.373 . S
C909 C893 1.377 . S
C909 C907 1.389 . S
C909 C910 1.524 . S
C910 C909 1.524 . S
C910 C911 1.397 . S
C910 C915 1.363 . S
C911 H882 0.950 . S
C911 C910 1.397 . S
C911 C912 1.334 . S
C912 H883 0.950 . S
C912 C911 1.334 . S
C912 C913 1.287 . S
C913 C912 1.287 . S
C913 C914 1.524 . S
C913 H916 0.999 . S
C914 H884 0.950 . S
C914 C913 1.524 . S
C914 C915 1.415 . S
C915 H885 0.950 . S
C915 C910 1.363 . S
C915 C914 1.415 . S
H916 C913 0.999 . S
H917 C898 0.913 . S
H918 C936 0.951 . S
H919 C938 0.951 . S
H920 C940 0.950 . S
H921 C941 0.950 . S
H922 C943 0.950 . S
H923 C946 0.950 . S
H924 C947 0.950 . S
H925 C949 0.950 . S
H926 C950 0.950 . S
H927 C951 0.951 . S
H928 C953 0.951 . S
H929 C955 0.950 . S
H930 C956 0.950 . S
H931 C958 0.950 . S
H932 C961 0.950 . S
H933 C962 0.950 . S
H934 C964 0.950 . S
H935 C965 0.950 . S
C936 H918 0.951 . S
C936 C937 1.366 . S
C936 C938 1.388 . S
C937 C936 1.366 . S
C937 C941 1.385 . S
C938 H919 0.951 . S
C938 C936 1.388 . S
C938 C939 1.366 . S
C939 C938 1.366 . S
C939 C940 1.414 . S
C939 C942 1.499 . S
C940 H920 0.950 . S
C940 C939 1.414 . S
C940 C941 1.374 . S
C941 H921 0.950 . S
C941 C937 1.385 . S
C941 C940 1.374 . S
C942 C939 1.499 . S
C942 C943 1.373 . S
C942 C944 1.389 . S
C943 H922 0.950 . S
C943 C942 1.373 . S
C943 C959 1.377 . S
C944 C942 1.389 . S
C944 C945 1.524 . S
C944 C958 1.377 . S
C945 C944 1.524 . S
C945 C946 1.397 . S
C945 C950 1.363 . S
C946 H923 0.950 . S
C946 C945 1.397 . S
C946 C947 1.334 . S
C947 H924 0.950 . S
C947 C946 1.334 . S
C947 C948 1.287 . S
C948 C947 1.287 . S
C948 C949 1.524 . S
C948 H967 0.913 . S
C949 H925 0.950 . S
C949 C948 1.524 . S
C949 C950 1.415 . S
C950 H926 0.950 . S
C950 C945 1.363 . S
C950 C949 1.415 . S
C951 H927 0.951 . S
C951 C952 1.366 . S
C951 C953 1.388 . S
C952 C951 1.366 . S
C952 C956 1.385 . S
C953 H928 0.951 . S
C953 C951 1.388 . S
C953 C954 1.366 . S
C954 C953 1.366 . S
C954 C955 1.414 . S
C954 C957 1.499 . S
C955 H929 0.950 . S
C955 C954 1.414 . S
C955 C956 1.374 . S
C956 H930 0.950 . S
C956 C952 1.385 . S
C956 C955 1.374 . S
C957 C954 1.499 . S
C957 C958 1.373 . S
C957 C959 1.389 . S
C958 H931 0.950 . S
C958 C944 1.377 . S
C958 C957 1.373 . S
C959 C943 1.377 . S
C959 C957 1.389 . S
C959 C960 1.524 . S
C960 C959 1.524 . S
C960 C961 1.397 . S
C960 C965 1.363 . S
C961 H932 0.950 . S
C961 C960 1.397 . S
C961 C962 1.334 . S
C962 H933 0.950 . S
C962 C961 1.334 . S
C962 C963 1.287 . S
C963 C962 1.287 . S
C963 C964 1.524 . S
C963 H966 0.999 1_556 S
C964 H934 0.950 . S
C964 C963 1.524 . S
C964 C965 1.415 . S
C965 H935 0.950 . S
C965 C960 1.363 . S
C965 C964 1.415 . S
H966 C963 0.999 1_554 S
H967 C948 0.913 . S
H968 C986 0.951 . S
H969 C988 0.951 . S
H970 C990 0.950 . S
H971 C991 0.950 . S
H972 C993 0.950 . S
H973 C996 0.950 . S
H974 C997 0.950 . S
H975 C999 0.950 1_545 S
H976 C1000 0.950 . S
H977 C1001 0.970 . S
H978 C1003 0.951 . S
H979 C1005 0.950 . S
H980 C1006 0.950 1_545 S
H981 C1008 0.950 . S
H982 C1011 0.950 . S
H983 C1012 0.950 . S
H984 C1014 0.950 . S
H985 C1015 0.950 . S
C986 H968 0.951 . S
C986 C987 1.366 . S
C986 C988 1.388 . S
C987 C986 1.366 . S
C987 C991 1.385 . S
C988 H969 0.951 . S
C988 C986 1.388 . S
C988 C989 1.366 . S
C989 C988 1.366 . S
C989 C990 1.414 . S
C989 C992 1.499 . S
C990 H970 0.950 . S
C990 C989 1.414 . S
C990 C991 1.374 . S
C991 H971 0.950 . S
C991 C987 1.385 . S
C991 C990 1.374 . S
C992 C989 1.499 . S
C992 C993 1.373 . S
C992 C994 1.389 . S
C993 H972 0.950 . S
C993 C992 1.373 . S
C993 C1009 1.377 . S
C994 C992 1.389 . S
C994 C995 1.524 . S
C994 C1008 1.377 . S
C995 C994 1.524 . S
C995 C996 1.397 . S
C995 C1000 1.363 . S
C996 H973 0.950 . S
C996 C995 1.397 . S
C996 C997 1.334 . S
C997 H974 0.950 . S
C997 C996 1.334 . S
C997 C998 1.287 . S
C998 C997 1.287 . S
C998 C999 1.524 . S
C998 H1017 0.913 . S
C999 H975 0.950 1_565 S
C999 C998 1.524 . S
C999 C1000 1.415 . S
C1000 H976 0.950 . S
C1000 C995 1.363 . S
C1000 C999 1.415 . S
C1001 H977 0.970 . S
C1001 C1002 1.366 . S
C1001 C1003 1.388 . S
C1002 C1001 1.366 . S
C1002 C1006 1.385 . S
C1003 H978 0.951 . S
C1003 C1001 1.388 . S
C1003 C1004 1.366 . S
C1004 C1003 1.366 . S
C1004 C1005 1.414 . S
C1004 C1007 1.499 . S
C1005 H979 0.950 . S
C1005 C1004 1.414 . S
C1005 C1006 1.374 . S
C1006 H980 0.950 1_565 S
C1006 C1002 1.385 . S
C1006 C1005 1.374 . S
C1007 C1004 1.499 . S
C1007 C1008 1.373 . S
C1007 C1009 1.389 . S
C1008 H981 0.950 . S
C1008 C994 1.377 . S
C1008 C1007 1.373 . S
C1009 C993 1.377 . S
C1009 C1007 1.389 . S
C1009 C1010 1.524 . S
C1010 C1009 1.524 . S
C1010 C1011 1.397 . S
C1010 C1015 1.363 . S
C1011 H982 0.950 . S
C1011 C1010 1.397 . S
C1011 C1012 1.334 . S
C1012 H983 0.950 . S
C1012 C1011 1.334 . S
C1012 C1013 1.287 . S
C1013 C1012 1.287 . S
C1013 C1014 1.524 . S
C1013 H1016 0.999 . S
C1014 H984 0.950 . S
C1014 C1013 1.524 . S
C1014 C1015 1.415 . S
C1015 H985 0.950 . S
C1015 C1010 1.363 . S
C1015 C1014 1.415 . S
H1016 C1013 0.999 . S
H1017 C998 0.913 . S
H1018 C1036 0.951 . S
H1019 C1038 0.951 . S
H1020 C1040 0.950 . S
H1021 C1041 0.950 . S
H1022 C1043 0.950 . S
H1023 C1046 0.950 . S
H1024 C1047 0.950 . S
H1025 C1049 0.950 . S
H1026 C1050 0.950 . S
H1027 C1051 0.951 . S
H1028 C1053 0.951 . S
H1029 C1055 0.950 . S
H1030 C1056 0.950 . S
H1031 C1058 0.950 . S
H1032 C1061 0.950 . S
H1033 C1062 0.950 . S
H1034 C1064 0.950 . S
H1035 C1065 0.950 . S
C1036 H1018 0.951 . S
C1036 C1037 1.366 . S
C1036 C1038 1.388 . S
C1037 C1036 1.366 . S
C1037 C1041 1.385 . S
C1038 H1019 0.951 . S
C1038 C1036 1.388 . S
C1038 C1039 1.366 . S
C1039 C1038 1.366 . S
C1039 C1040 1.414 . S
C1039 C1042 1.499 . S
C1040 H1020 0.950 . S
C1040 C1039 1.414 . S
C1040 C1041 1.374 . S
C1041 H1021 0.950 . S
C1041 C1037 1.385 . S
C1041 C1040 1.374 . S
C1042 C1039 1.499 . S
C1042 C1043 1.373 . S
C1042 C1044 1.389 . S
C1043 H1022 0.950 . S
C1043 C1042 1.373 . S
C1043 C1059 1.377 . S
C1044 C1042 1.389 . S
C1044 C1045 1.524 . S
C1044 C1058 1.377 . S
C1045 C1044 1.524 . S
C1045 C1046 1.397 . S
C1045 C1050 1.363 . S
C1046 H1023 0.950 . S
C1046 C1045 1.397 . S
C1046 C1047 1.334 . S
C1047 H1024 0.950 . S
C1047 C1046 1.334 . S
C1047 C1048 1.287 . S
C1048 C1047 1.287 . S
C1048 C1049 1.524 . S
C1048 H1067 0.913 . S
C1049 H1025 0.950 . S
C1049 C1048 1.524 . S
C1049 C1050 1.415 . S
C1050 H1026 0.950 . S
C1050 C1045 1.363 . S
C1050 C1049 1.415 . S
C1051 H1027 0.951 . S
C1051 C1052 1.366 . S
C1051 C1053 1.388 . S
C1052 C1051 1.366 . S
C1052 C1056 1.385 . S
C1053 H1028 0.951 . S
C1053 C1051 1.388 . S
C1053 C1054 1.366 . S
C1054 C1053 1.366 . S
C1054 C1055 1.414 . S
C1054 C1057 1.499 . S
C1055 H1029 0.950 . S
C1055 C1054 1.414 . S
C1055 C1056 1.374 . S
C1056 H1030 0.950 . S
C1056 C1052 1.385 . S
C1056 C1055 1.374 . S
C1057 C1054 1.499 . S
C1057 C1058 1.373 . S
C1057 C1059 1.389 . S
C1058 H1031 0.950 . S
C1058 C1044 1.377 . S
C1058 C1057 1.373 . S
C1059 C1043 1.377 . S
C1059 C1057 1.389 . S
C1059 C1060 1.524 . S
C1060 C1059 1.524 . S
C1060 C1061 1.397 . S
C1060 C1065 1.363 . S
C1061 H1032 0.950 . S
C1061 C1060 1.397 . S
C1061 C1062 1.334 . S
C1062 H1033 0.950 . S
C1062 C1061 1.334 . S
C1062 C1063 1.287 . S
C1063 C1062 1.287 . S
C1063 C1064 1.524 . S
C1063 H1066 0.999 . S
C1064 H1034 0.950 . S
C1064 C1063 1.524 . S
C1064 C1065 1.415 . S
C1065 H1035 0.950 . S
C1065 C1060 1.363 . S
C1065 C1064 1.415 . S
H1066 C1063 0.999 . S
H1067 C1048 0.913 . S
H1068 C1086 0.951 . S
H1069 C1088 0.951 . S
H1070 C1090 0.950 . S
H1071 C1091 0.950 . S
H1072 C1093 0.950 . S
H1073 C1096 0.950 . S
H1074 C1097 0.950 . S
H1075 C1099 0.950 . S
H1076 C1100 0.950 . S
H1077 C1101 0.951 . S
H1078 C1103 0.951 . S
H1079 C1105 0.950 . S
H1080 C1106 0.950 . S
H1081 C1108 0.950 . S
H1082 C1111 0.950 . S
H1083 C1112 0.950 . S
H1084 C1114 0.950 . S
H1085 C1115 0.950 . S
C1086 H1068 0.951 . S
C1086 C1087 1.366 . S
C1086 C1088 1.388 . S
C1087 C1086 1.366 . S
C1087 C1091 1.385 . S
C1088 H1069 0.951 . S
C1088 C1086 1.388 . S
C1088 C1089 1.366 . S
C1089 C1088 1.366 . S
C1089 C1090 1.414 . S
C1089 C1092 1.499 . S
C1090 H1070 0.950 . S
C1090 C1089 1.414 . S
C1090 C1091 1.374 . S
C1091 H1071 0.950 . S
C1091 C1087 1.385 . S
C1091 C1090 1.374 . S
C1092 C1089 1.499 . S
C1092 C1093 1.373 . S
C1092 C1094 1.389 . S
C1093 H1072 0.950 . S
C1093 C1092 1.373 . S
C1093 C1109 1.377 . S
C1094 C1092 1.389 . S
C1094 C1095 1.524 . S
C1094 C1108 1.377 . S
C1095 C1094 1.524 . S
C1095 C1096 1.397 . S
C1095 C1100 1.363 . S
C1096 H1073 0.950 . S
C1096 C1095 1.397 . S
C1096 C1097 1.334 . S
C1097 H1074 0.950 . S
C1097 C1096 1.334 . S
C1097 C1098 1.287 . S
C1098 C1097 1.287 . S
C1098 C1099 1.524 . S
C1098 H1117 0.913 . S
C1099 H1075 0.950 . S
C1099 C1098 1.524 . S
C1099 C1100 1.415 . S
C1100 H1076 0.950 . S
C1100 C1095 1.363 . S
C1100 C1099 1.415 . S
C1101 H1077 0.951 . S
C1101 C1102 1.366 . S
C1101 C1103 1.388 . S
C1102 C1101 1.366 . S
C1102 C1106 1.385 . S
C1103 H1078 0.951 . S
C1103 C1101 1.388 . S
C1103 C1104 1.366 . S
C1104 C1103 1.366 . S
C1104 C1105 1.414 . S
C1104 C1107 1.499 . S
C1105 H1079 0.950 . S
C1105 C1104 1.414 . S
C1105 C1106 1.374 . S
C1106 H1080 0.950 . S
C1106 C1102 1.385 . S
C1106 C1105 1.374 . S
C1107 C1104 1.499 . S
C1107 C1108 1.373 . S
C1107 C1109 1.389 . S
C1108 H1081 0.950 . S
C1108 C1094 1.377 . S
C1108 C1107 1.373 . S
C1109 C1093 1.377 . S
C1109 C1107 1.389 . S
C1109 C1110 1.524 . S
C1110 C1109 1.524 . S
C1110 C1111 1.397 . S
C1110 C1115 1.363 . S
C1111 H1082 0.950 . S
C1111 C1110 1.397 . S
C1111 C1112 1.334 . S
C1112 H1083 0.950 . S
C1112 C1111 1.334 . S
C1112 C1113 1.287 . S
C1113 C1112 1.287 . S
C1113 C1114 1.524 . S
C1113 H1116 0.999 . S
C1114 H1084 0.950 . S
C1114 C1113 1.524 . S
C1114 C1115 1.415 . S
C1115 H1085 0.950 . S
C1115 C1110 1.363 . S
C1115 C1114 1.415 . S
H1116 C1113 0.999 . S
H1117 C1098 0.913 . S
H1118 C1136 0.951 . S
H1119 C1138 0.951 . S
H1120 C1140 0.950 . S
H1121 C1141 0.950 . S
H1122 C1143 0.950 . S
H1123 C1146 0.950 . S
H1124 C1147 0.950 . S
H1125 C1149 0.950 . S
H1126 C1150 0.950 . S
H1127 C1151 0.951 . S
H1128 C1153 0.951 . S
H1129 C1155 0.950 . S
H1130 C1156 0.950 . S
H1131 C1158 0.950 . S
H1132 C1161 0.950 . S
H1133 C1162 0.950 . S
H1134 C1164 0.950 . S
H1135 C1165 0.950 . S
C1136 H1118 0.951 . S
C1136 C1137 1.366 . S
C1136 C1138 1.388 . S
C1137 C1136 1.366 . S
C1137 C1141 1.385 . S
C1138 H1119 0.951 . S
C1138 C1136 1.388 . S
C1138 C1139 1.366 . S
C1139 C1138 1.366 . S
C1139 C1140 1.414 . S
C1139 C1142 1.499 . S
C1140 H1120 0.950 . S
C1140 C1139 1.414 . S
C1140 C1141 1.374 . S
C1141 H1121 0.950 . S
C1141 C1137 1.385 . S
C1141 C1140 1.374 . S
C1142 C1139 1.499 . S
C1142 C1143 1.373 . S
C1142 C1144 1.389 . S
C1143 H1122 0.950 . S
C1143 C1142 1.373 . S
C1143 C1159 1.377 . S
C1144 C1142 1.389 . S
C1144 C1145 1.524 . S
C1144 C1158 1.377 . S
C1145 C1144 1.524 . S
C1145 C1146 1.397 . S
C1145 C1150 1.363 . S
C1146 H1123 0.950 . S
C1146 C1145 1.397 . S
C1146 C1147 1.334 . S
C1147 H1124 0.950 . S
C1147 C1146 1.334 . S
C1147 C1148 1.287 . S
C1148 C1147 1.287 . S
C1148 C1149 1.524 . S
C1148 H1167 0.913 . S
C1149 H1125 0.950 . S
C1149 C1148 1.524 . S
C1149 C1150 1.415 . S
C1150 H1126 0.950 . S
C1150 C1145 1.363 . S
C1150 C1149 1.415 . S
C1151 H1127 0.951 . S
C1151 C1152 1.366 . S
C1151 C1153 1.388 . S
C1152 C1151 1.366 . S
C1152 C1156 1.385 . S
C1153 H1128 0.951 . S
C1153 C1151 1.388 . S
C1153 C1154 1.366 . S
C1154 C1153 1.366 . S
C1154 C1155 1.414 . S
C1154 C1157 1.499 . S
C1155 H1129 0.950 . S
C1155 C1154 1.414 . S
C1155 C1156 1.374 . S
C1156 H1130 0.950 . S
C1156 C1152 1.385 . S
C1156 C1155 1.374 . S
C1157 C1154 1.499 . S
C1157 C1158 1.373 . S
C1157 C1159 1.389 . S
C1158 H1131 0.950 . S
C1158 C1144 1.377 . S
C1158 C1157 1.373 . S
C1159 C1143 1.377 . S
C1159 C1157 1.389 . S
C1159 C1160 1.524 . S
C1160 C1159 1.524 . S
C1160 C1161 1.397 . S
C1160 C1165 1.363 . S
C1161 H1132 0.950 . S
C1161 C1160 1.397 . S
C1161 C1162 1.334 . S
C1162 H1133 0.950 . S
C1162 C1161 1.334 . S
C1162 C1163 1.287 . S
C1163 C1162 1.287 . S
C1163 C1164 1.524 . S
C1163 H1166 0.999 . S
C1164 H1134 0.950 . S
C1164 C1163 1.524 . S
C1164 C1165 1.415 . S
C1165 H1135 0.950 . S
C1165 C1160 1.363 . S
C1165 C1164 1.415 . S
H1166 C1163 0.999 . S
H1167 C1148 0.913 . S
H1168 C1186 0.951 . S
H1169 C1188 0.951 . S
H1170 C1190 0.950 . S
H1171 C1191 0.950 . S
H1172 C1193 0.950 . S
H1173 C1196 0.950 . S
H1174 C1197 0.950 . S
H1175 C1199 0.950 . S
H1176 C1200 0.950 . S
H1177 C1201 0.951 . S
H1178 C1203 0.951 . S
H1179 C1205 0.950 . S
H1180 C1206 0.950 1_455 S
H1181 C1208 0.950 . S
H1182 C1211 0.950 . S
H1183 C1212 0.950 . S
H1184 C1214 0.950 . S
H1185 C1215 0.950 . S
C1186 H1168 0.951 . S
C1186 C1187 1.366 . S
C1186 C1188 1.388 . S
C1187 C1186 1.366 . S
C1187 C1191 1.385 . S
C1188 H1169 0.951 . S
C1188 C1186 1.388 . S
C1188 C1189 1.366 . S
C1189 C1188 1.366 . S
C1189 C1190 1.414 . S
C1189 C1192 1.499 . S
C1190 H1170 0.950 . S
C1190 C1189 1.414 . S
C1190 C1191 1.374 . S
C1191 H1171 0.950 . S
C1191 C1187 1.385 . S
C1191 C1190 1.374 . S
C1192 C1189 1.499 . S
C1192 C1193 1.373 . S
C1192 C1194 1.389 . S
C1193 H1172 0.950 . S
C1193 C1192 1.373 . S
C1193 C1209 1.377 . S
C1194 C1192 1.389 . S
C1194 C1195 1.524 . S
C1194 C1208 1.377 . S
C1195 C1194 1.524 . S
C1195 C1196 1.397 . S
C1195 C1200 1.363 . S
C1196 H1173 0.950 . S
C1196 C1195 1.397 . S
C1196 C1197 1.334 . S
C1197 H1174 0.950 . S
C1197 C1196 1.334 . S
C1197 C1198 1.287 . S
C1198 C1197 1.287 . S
C1198 C1199 1.524 . S
C1198 H1217 0.913 . S
C1199 H1175 0.950 . S
C1199 C1198 1.524 . S
C1199 C1200 1.415 . S
C1200 H1176 0.950 . S
C1200 C1195 1.363 . S
C1200 C1199 1.415 . S
C1201 H1177 0.951 . S
C1201 C1202 1.366 . S
C1201 C1203 1.388 . S
C1202 C1201 1.366 . S
C1202 C1206 1.385 . S
C1203 H1178 0.951 . S
C1203 C1201 1.388 . S
C1203 C1204 1.366 . S
C1204 C1203 1.366 . S
C1204 C1205 1.414 . S
C1204 C1207 1.499 . S
C1205 H1179 0.950 . S
C1205 C1204 1.414 . S
C1205 C1206 1.374 . S
C1206 H1180 0.950 1_655 S
C1206 C1202 1.385 . S
C1206 C1205 1.374 . S
C1207 C1204 1.499 . S
C1207 C1208 1.373 . S
C1207 C1209 1.389 . S
C1208 H1181 0.950 . S
C1208 C1194 1.377 . S
C1208 C1207 1.373 . S
C1209 C1193 1.377 . S
C1209 C1207 1.389 . S
C1209 C1210 1.524 . S
C1210 C1209 1.524 . S
C1210 C1211 1.397 . S
C1210 C1215 1.363 . S
C1211 H1182 0.950 . S
C1211 C1210 1.397 . S
C1211 C1212 1.334 . S
C1212 H1183 0.950 . S
C1212 C1211 1.334 . S
C1212 C1213 1.287 1_556 S
C1213 C1212 1.287 1_554 S
C1213 C1214 1.524 . S
C1213 H1216 0.999 . S
C1214 H1184 0.950 . S
C1214 C1213 1.524 . S
C1214 C1215 1.415 1_554 S
C1215 H1185 0.950 . S
C1215 C1210 1.363 . S
C1215 C1214 1.415 1_556 S
H1216 C1213 0.999 . S
H1217 C1198 0.913 . S
H1218 C1236 0.951 . S
H1219 C1238 0.951 . S
H1220 C1240 0.950 . S
H1221 C1241 0.950 . S
H1222 C1243 0.950 . S
H1223 C1246 0.950 . S
H1224 C1247 0.950 . S
H1225 C1249 0.950 . S
H1226 C1250 0.950 . S
H1227 C1251 0.951 . S
H1228 C1253 0.951 . S
H1229 C1255 0.950 . S
H1230 C1256 0.950 . S
H1231 C1258 0.950 . S
H1232 C1261 0.950 . S
H1233 C1262 0.950 . S
H1234 C1264 0.950 . S
H1235 C1265 0.950 . S
C1236 H1218 0.951 . S
C1236 C1237 1.366 . S
C1236 C1238 1.388 . S
C1237 C1236 1.366 . S
C1237 C1241 1.385 . S
C1238 H1219 0.951 . S
C1238 C1236 1.388 . S
C1238 C1239 1.366 . S
C1239 C1238 1.366 . S
C1239 C1240 1.414 . S
C1239 C1242 1.499 . S
C1240 H1220 0.950 . S
C1240 C1239 1.414 . S
C1240 C1241 1.374 . S
C1241 H1221 0.950 . S
C1241 C1237 1.385 . S
C1241 C1240 1.374 . S
C1242 C1239 1.499 . S
C1242 C1243 1.373 . S
C1242 C1244 1.389 . S
C1243 H1222 0.950 . S
C1243 C1242 1.373 . S
C1243 C1259 1.377 . S
C1244 C1242 1.389 . S
C1244 C1245 1.524 . S
C1244 C1258 1.377 . S
C1245 C1244 1.524 . S
C1245 C1246 1.397 . S
C1245 C1250 1.363 . S
C1246 H1223 0.950 . S
C1246 C1245 1.397 . S
C1246 C1247 1.334 . S
C1247 H1224 0.950 . S
C1247 C1246 1.334 . S
C1247 C1248 1.287 . S
C1248 C1247 1.287 . S
C1248 C1249 1.524 . S
C1248 H1267 0.913 . S
C1249 H1225 0.950 . S
C1249 C1248 1.524 . S
C1249 C1250 1.415 . S
C1250 H1226 0.950 . S
C1250 C1245 1.363 . S
C1250 C1249 1.415 . S
C1251 H1227 0.951 . S
C1251 C1252 1.366 . S
C1251 C1253 1.388 . S
C1252 C1251 1.366 . S
C1252 C1256 1.385 . S
C1253 H1228 0.951 . S
C1253 C1251 1.388 . S
C1253 C1254 1.366 . S
C1254 C1253 1.366 . S
C1254 C1255 1.414 . S
C1254 C1257 1.499 . S
C1255 H1229 0.950 . S
C1255 C1254 1.414 . S
C1255 C1256 1.374 . S
C1256 H1230 0.950 . S
C1256 C1252 1.385 . S
C1256 C1255 1.374 . S
C1257 C1254 1.499 . S
C1257 C1258 1.373 . S
C1257 C1259 1.389 . S
C1258 H1231 0.950 . S
C1258 C1244 1.377 . S
C1258 C1257 1.373 . S
C1259 C1243 1.377 . S
C1259 C1257 1.389 . S
C1259 C1260 1.524 . S
C1260 C1259 1.524 . S
C1260 C1261 1.397 . S
C1260 C1265 1.363 . S
C1261 H1232 0.950 . S
C1261 C1260 1.397 . S
C1261 C1262 1.334 . S
C1262 H1233 0.950 . S
C1262 C1261 1.334 . S
C1262 C1263 1.287 . S
C1263 C1262 1.287 . S
C1263 C1264 1.524 . S
C1263 H1266 0.999 . S
C1264 H1234 0.950 . S
C1264 C1263 1.524 . S
C1264 C1265 1.415 . S
C1265 H1235 0.950 . S
C1265 C1260 1.363 . S
C1265 C1264 1.415 . S
H1266 C1263 0.999 . S
H1267 C1248 0.913 . S
H1268 C1286 0.951 . S
H1269 C1288 0.951 . S
H1270 C1290 0.950 . S
H1271 C1291 0.950 . S
H1272 C1293 0.950 . S
H1273 C1296 0.950 . S
H1274 C1297 0.950 . S
H1275 C1299 0.950 . S
H1276 C1300 0.950 . S
H1277 C1301 0.951 . S
H1278 C1303 0.951 . S
H1279 C1305 0.950 . S
H1280 C1306 0.950 . S
H1281 C1308 0.950 . S
H1282 C1311 0.950 . S
H1283 C1312 0.950 . S
H1284 C1314 0.950 . S
H1285 C1315 0.950 . S
C1286 H1268 0.951 . S
C1286 C1287 1.366 . S
C1286 C1288 1.388 . S
C1287 C1286 1.366 . S
C1287 C1291 1.385 . S
C1288 H1269 0.951 . S
C1288 C1286 1.388 . S
C1288 C1289 1.366 . S
C1289 C1288 1.366 . S
C1289 C1290 1.414 . S
C1289 C1292 1.499 . S
C1290 H1270 0.950 . S
C1290 C1289 1.414 . S
C1290 C1291 1.374 . S
C1291 H1271 0.950 . S
C1291 C1287 1.385 . S
C1291 C1290 1.374 . S
C1292 C1289 1.499 . S
C1292 C1293 1.373 . S
C1292 C1294 1.389 . S
C1293 H1272 0.950 . S
C1293 C1292 1.373 . S
C1293 C1309 1.377 . S
C1294 C1292 1.389 . S
C1294 C1295 1.524 . S
C1294 C1308 1.377 . S
C1295 C1294 1.524 . S
C1295 C1296 1.397 . S
C1295 C1300 1.363 . S
C1296 H1273 0.950 . S
C1296 C1295 1.397 . S
C1296 C1297 1.334 . S
C1297 H1274 0.950 . S
C1297 C1296 1.334 . S
C1297 C1298 1.287 . S
C1298 C1297 1.287 . S
C1298 C1299 1.524 . S
C1298 H1317 0.913 . S
C1299 H1275 0.950 . S
C1299 C1298 1.524 . S
C1299 C1300 1.415 . S
C1300 H1276 0.950 . S
C1300 C1295 1.363 . S
C1300 C1299 1.415 . S
C1301 H1277 0.951 . S
C1301 C1302 1.366 . S
C1301 C1303 1.388 . S
C1302 C1301 1.366 . S
C1302 C1306 1.385 . S
C1303 H1278 0.951 . S
C1303 C1301 1.388 . S
C1303 C1304 1.366 . S
C1304 C1303 1.366 . S
C1304 C1305 1.414 . S
C1304 C1307 1.499 . S
C1305 H1279 0.950 . S
C1305 C1304 1.414 . S
C1305 C1306 1.374 . S
C1306 H1280 0.950 . S
C1306 C1302 1.385 . S
C1306 C1305 1.374 . S
C1307 C1304 1.499 . S
C1307 C1308 1.373 . S
C1307 C1309 1.389 . S
C1308 H1281 0.950 . S
C1308 C1294 1.377 . S
C1308 C1307 1.373 . S
C1309 C1293 1.377 . S
C1309 C1307 1.389 . S
C1309 C1310 1.524 . S
C1310 C1309 1.524 . S
C1310 C1311 1.397 . S
C1310 C1315 1.363 . S
C1311 H1282 0.950 . S
C1311 C1310 1.397 . S
C1311 C1312 1.334 . S
C1312 H1283 0.950 . S
C1312 C1311 1.334 . S
C1312 C1313 1.287 . S
C1313 C1312 1.287 . S
C1313 C1314 1.524 . S
C1313 H1316 0.999 . S
C1314 H1284 0.950 . S
C1314 C1313 1.524 . S
C1314 C1315 1.415 . S
C1315 H1285 0.950 . S
C1315 C1310 1.363 . S
C1315 C1314 1.415 . S
H1316 C1313 0.999 . S
H1317 C1298 0.913 . S
H1318 C1336 0.951 . S
H1319 C1338 0.951 . S
H1320 C1340 0.950 . S
H1321 C1341 0.950 . S
H1322 C1343 0.950 . S
H1323 C1346 0.950 . S
H1324 C1347 0.950 . S
H1325 C1349 0.950 . S
H1326 C1350 0.950 . S
H1327 C1351 0.951 . S
H1328 C1353 0.951 . S
H1329 C1355 0.950 . S
H1330 C1356 0.950 . S
H1331 C1358 0.950 . S
H1332 C1361 0.950 . S
H1333 C1362 0.950 . S
H1334 C1364 0.950 . S
H1335 C1365 0.950 . S
C1336 H1318 0.951 . S
C1336 C1337 1.366 . S
C1336 C1338 1.388 . S
C1337 C1336 1.366 . S
C1337 C1341 1.385 . S
C1338 H1319 0.951 . S
C1338 C1336 1.388 . S
C1338 C1339 1.366 . S
C1339 C1338 1.366 . S
C1339 C1340 1.414 . S
C1339 C1342 1.499 . S
C1340 H1320 0.950 . S
C1340 C1339 1.414 . S
C1340 C1341 1.374 . S
C1341 H1321 0.950 . S
C1341 C1337 1.385 . S
C1341 C1340 1.374 . S
C1342 C1339 1.499 . S
C1342 C1343 1.373 . S
C1342 C1344 1.389 . S
C1343 H1322 0.950 . S
C1343 C1342 1.373 . S
C1343 C1359 1.377 . S
C1344 C1342 1.389 . S
C1344 C1345 1.524 . S
C1344 C1358 1.377 . S
C1345 C1344 1.524 . S
C1345 C1346 1.397 . S
C1345 C1350 1.363 . S
C1346 H1323 0.950 . S
C1346 C1345 1.397 . S
C1346 C1347 1.334 . S
C1347 H1324 0.950 . S
C1347 C1346 1.334 . S
C1347 C1348 1.287 . S
C1348 C1347 1.287 . S
C1348 C1349 1.524 . S
C1348 H1367 0.913 . S
C1349 H1325 0.950 . S
C1349 C1348 1.524 . S
C1349 C1350 1.415 . S
C1350 H1326 0.950 . S
C1350 C1345 1.363 . S
C1350 C1349 1.415 . S
C1351 H1327 0.951 . S
C1351 C1352 1.366 . S
C1351 C1353 1.388 . S
C1352 C1351 1.366 . S
C1352 C1356 1.385 . S
C1353 H1328 0.951 . S
C1353 C1351 1.388 . S
C1353 C1354 1.366 . S
C1354 C1353 1.366 . S
C1354 C1355 1.414 . S
C1354 C1357 1.499 . S
C1355 H1329 0.950 . S
C1355 C1354 1.414 . S
C1355 C1356 1.374 . S
C1356 H1330 0.950 . S
C1356 C1352 1.385 . S
C1356 C1355 1.374 . S
C1357 C1354 1.499 . S
C1357 C1358 1.373 . S
C1357 C1359 1.389 . S
C1358 H1331 0.950 . S
C1358 C1344 1.377 . S
C1358 C1357 1.373 . S
C1359 C1343 1.377 . S
C1359 C1357 1.389 . S
C1359 C1360 1.524 . S
C1360 C1359 1.524 . S
C1360 C1361 1.397 . S
C1360 C1365 1.363 . S
C1361 H1332 0.950 . S
C1361 C1360 1.397 . S
C1361 C1362 1.334 . S
C1362 H1333 0.950 . S
C1362 C1361 1.334 . S
C1362 C1363 1.287 . S
C1363 C1362 1.287 . S
C1363 C1364 1.524 . S
C1363 H1366 0.999 . S
C1364 H1334 0.950 . S
C1364 C1363 1.524 . S
C1364 C1365 1.415 . S
C1365 H1335 0.950 . S
C1365 C1360 1.363 . S
C1365 C1364 1.415 . S
H1366 C1363 0.999 . S
H1367 C1348 0.913 . S
C187 C5 1.571 . S
C202 C107 1.824 . S
C237 C18 1.373 . S
C252 C110 1.383 . S
C302 C146 1.469 . S
C287 C30 1.503 . S
C337 C41 1.278 . S
C352 C166 1.306 . S
C402 C120 2.039 . S
C387 C7 1.964 . S
C452 C97 1.845 . S
C437 C16 1.687 . S
C502 C150 1.530 . S
C487 C29 1.594 . S
C552 C130 0.927 . S
C537 C38 0.850 . S
C587 C8 1.466 . S
C602 C160 1.440 . S
C652 C126 1.810 . S
C637 C27 1.656 . S
C687 C40 1.697 . S
C702 C92 1.689 . S
C737 C19 1.003 . S
C752 C140 0.972 . S
C802 C106 1.561 . S
C787 C51 1.473 . S
C837 C62 1.525 . S
C852 C112 1.517 . S
C887 C74 1.645 . S
C902 C147 1.623 . S
C937 C84 1.383 . S
C952 C167 1.395 . S
C987 C49 1.888 . S
C1002 C117 2.151 . S
C1052 C100 1.542 . S
C1037 C63 1.570 . S
C1102 C152 1.430 . S
C1087 C71 1.377 . S
C1152 C132 1.071 . S
C1137 C85 1.129 . S
C1187 C52 1.361 . S
C1202 C157 1.314 . S
C1252 C127 1.873 . S
C1237 C73 1.855 . S
C1302 C90 1.345 . S
C1287 C82 1.280 . S
C1337 C60 1.270 . S
C1352 C137 1.415 . S
