# Generated by pormake.
# Topology anh, (6,3)-cn, num edge types: 1
# Building blocks:
#     Node 0, Type 0, BuildingBlock: BETFAJ_clean_sbu_0, # of connection points: 6
#     Node 1, Type 0, BuildingBlock: BETFAJ_clean_sbu_0, # of connection points: 6
#     Node 2, Type 0, BuildingBlock: BETFAJ_clean_sbu_0, # of connection points: 6
#     Node 3, Type 1, BuildingBlock: OLANEW_clean_sbu_2, # of connection points: 3
#     Node 4, Type 1, BuildingBlock: OLANEW_clean_sbu_2, # of connection points: 3
#     Node 5, Type 1, BuildingBlock: OLANEW_clean_sbu_2, # of connection points: 3
#     Node 6, Type 1, BuildingBlock: OLANEW_clean_sbu_2, # of connection points: 3
#     Node 7, Type 1, BuildingBlock: OLANEW_clean_sbu_2, # of connection points: 3
#     Node 8, Type 1, BuildingBlock: OLANEW_clean_sbu_2, # of connection points: 3
#     Edge 9, Type (0, 1), BuildingBlock: FUNLAD_clean_linker_0, # of connection points: 2
#     Edge 10, Type (0, 1), BuildingBlock: FUNLAD_clean_linker_0, # of connection points: 2
#     Edge 11, Type (0, 1), BuildingBlock: FUNLAD_clean_linker_0, # of connection points: 2
#     Edge 12, Type (0, 1), BuildingBlock: FUNLAD_clean_linker_0, # of connection points: 2
#     Edge 13, Type (0, 1), BuildingBlock: FUNLAD_clean_linker_0, # of connection points: 2
#     Edge 14, Type (0, 1), BuildingBlock: FUNLAD_clean_linker_0, # of connection points: 2
#     Edge 15, Type (0, 1), BuildingBlock: FUNLAD_clean_linker_0, # of connection points: 2
#     Edge 16, Type (0, 1), BuildingBlock: FUNLAD_clean_linker_0, # of connection points: 2
#     Edge 17, Type (0, 1), BuildingBlock: FUNLAD_clean_linker_0, # of connection points: 2
#     Edge 18, Type (0, 1), BuildingBlock: FUNLAD_clean_linker_0, # of connection points: 2
#     Edge 19, Type (0, 1), BuildingBlock: FUNLAD_clean_linker_0, # of connection points: 2
#     Edge 20, Type (0, 1), BuildingBlock: FUNLAD_clean_linker_0, # of connection points: 2
#     Edge 21, Type (0, 1), BuildingBlock: FUNLAD_clean_linker_0, # of connection points: 2
#     Edge 22, Type (0, 1), BuildingBlock: FUNLAD_clean_linker_0, # of connection points: 2
#     Edge 23, Type (0, 1), BuildingBlock: FUNLAD_clean_linker_0, # of connection points: 2
#     Edge 24, Type (0, 1), BuildingBlock: FUNLAD_clean_linker_0, # of connection points: 2
#     Edge 25, Type (0, 1), BuildingBlock: FUNLAD_clean_linker_0, # of connection points: 2
#     Edge 26, Type (0, 1), BuildingBlock: FUNLAD_clean_linker_0, # of connection points: 2
# Relax obj value: 0.124
# Max RMSD: 0.160
# Mean RMSD: 0.111
data_MOF--net-anh--node1-BETFAJ_clean_sbu_0--node2-OLANEW_clean_sbu_2--edge1-FUNLAD_clean_linker_0
_symmetry_space_group_name_H-M    P1
_symmetry_Int_Tables_number       1
_symmetry_cell_setting            triclinic
loop_
_symmetry_equiv_pos_as_xyz
'x, y, z'
_cell_length_a     42.365222
_cell_length_b     46.647364
_cell_length_c     58.690205
_cell_angle_alpha  91.6266
_cell_angle_beta   89.757544
_cell_angle_gamma 129.42821
loop_
_atom_site_label
_atom_site_type_symbol
_atom_site_fract_x
_atom_site_fract_y
_atom_site_fract_z
_atom_type_partial_charge
Sm0 Sm 0.03477 0.50111 0.1335 0.0
Sm1 Sm 0.98737 0.52676 0.14833 0.0
C2 C 0.08222 0.48913 0.11433 0.0
C3 C 0.12236 0.50067 0.12041 0.0
C4 C 0.14432 0.52488 0.13925 0.0
C5 C 0.18039 0.53263 0.14668 0.0
C6 C 0.19491 0.51614 0.1354 0.0
C7 C 0.17339 0.49285 0.11604 0.0
C8 C 0.13731 0.48511 0.10864 0.0
C9 C 0.03136 0.50745 0.18004 0.0
C10 C 0.08288 0.59101 0.13975 0.0
C11 C 0.94166 0.53941 0.16933 0.0
C12 C 0.89848 0.52074 0.17376 0.0
C13 C 0.87072 0.4829 0.17872 0.0
C14 C 0.82987 0.466 0.18307 0.0
C15 C 0.81623 0.4867 0.18253 0.0
C16 C 0.84421 0.52452 0.1774 0.0
C17 C 0.88494 0.54135 0.17309 0.0
C18 C 0.99351 0.52222 0.10183 0.0
C19 C 0.9388 0.43737 0.14121 0.0
O20 O 0.08148 0.51541 0.10809 0.0
O21 O 0.05324 0.46643 0.12845 0.0
O22 O 0.03644 0.52971 0.16587 0.0
O23 O 0.03127 0.48232 0.17003 0.0
O24 O 0.08173 0.56496 0.1291 0.0
O25 O 0.05166 0.58251 0.15166 0.0
O26 O 0.9577 0.52664 0.17951 0.0
O27 O 0.95344 0.54849 0.14829 0.0
O28 O 0.98664 0.49898 0.11582 0.0
O29 O 0.99471 0.548 0.11196 0.0
O30 O 0.94068 0.46324 0.15264 0.0
O31 O 0.96947 0.4462 0.12851 0.0
H32 H 0.13287 0.53686 0.14862 0.0
H33 H 0.19601 0.55038 0.16175 0.0
H34 H 0.18418 0.48022 0.10677 0.0
H35 H 0.12058 0.46629 0.0941 0.0
H36 H 0.88059 0.46647 0.1793 0.0
H37 H 0.8091 0.43688 0.18708 0.0
H38 H 0.8345 0.54106 0.17637 0.0
H39 H 0.90591 0.57053 0.16917 0.0
Sm40 Sm 0.54421 0.00526 0.49002 0.0
Sm41 Sm 0.49663 0.03727 0.47855 0.0
C42 C 0.56898 0.9706 0.5073 0.0
C43 C 0.56239 0.93553 0.50409 0.0
C44 C 0.54032 0.90783 0.52026 0.0
C45 C 0.53576 0.87544 0.5182 0.0
C46 C 0.55351 0.87019 0.50001 0.0
C47 C 0.57517 0.8977 0.48367 0.0
C48 C 0.57956 0.93002 0.48567 0.0
C49 C 0.54437 0.02158 0.4455 0.0
C50 C 0.44394 0.94664 0.47848 0.0
C51 C 0.46911 0.06765 0.45848 0.0
C52 C 0.47203 0.10051 0.46288 0.0
C53 C 0.50777 0.13357 0.47237 0.0
C54 C 0.50951 0.16408 0.47726 0.0
C55 C 0.47542 0.16195 0.47298 0.0
C56 C 0.43974 0.12881 0.46342 0.0
C57 C 0.43812 0.0984 0.45838 0.0
C58 C 0.50716 0.0363 0.52516 0.0
C59 C 0.59536 0.09411 0.491 0.0
O60 O 0.53871 0.96826 0.51569 0.0
O61 O 0.58865 0.99515 0.49141 0.0
O62 O 0.51481 0.00754 0.45885 0.0
O63 O 0.57378 0.02398 0.45482 0.0
O64 O 0.47703 0.95168 0.48531 0.0
O65 O 0.44438 0.97446 0.47352 0.0
O66 O 0.50289 0.07393 0.45249 0.0
O67 O 0.44753 0.04097 0.47302 0.0
O68 O 0.51874 0.02754 0.50883 0.0
O69 O 0.48774 0.04686 0.51688 0.0
O70 O 0.5653 0.08824 0.47885 0.0
O71 O 0.5916 0.06688 0.50087 0.0
H72 H 0.52714 0.91148 0.53477 0.0
H73 H 0.51941 0.85503 0.53126 0.0
H74 H 0.5889 0.89431 0.46936 0.0
H75 H 0.59687 0.95084 0.47291 0.0
H76 H 0.53418 0.1357 0.47626 0.0
H77 H 0.53724 0.18904 0.48487 0.0
H78 H 0.41312 0.12644 0.45975 0.0
H79 H 0.41024 0.07309 0.45115 0.0
Sm80 Sm 0.56972 0.55673 0.84611 0.0
Sm81 Sm 0.51136 0.47714 0.8619 0.0
C82 C 0.60482 0.6195 0.82469 0.0
C83 C 0.59706 0.6458 0.82209 0.0
C84 C 0.6208 0.6752 0.80724 0.0
C85 C 0.61387 0.70056 0.80479 0.0
C86 C 0.58295 0.69686 0.81713 0.0
C87 C 0.55905 0.66709 0.83193 0.0
C88 C 0.5661 0.64183 0.83441 0.0
C89 C 0.56754 0.54968 0.89242 0.0
C90 C 0.47256 0.51765 0.85635 0.0
C91 C 0.47561 0.41341 0.88222 0.0
C92 C 0.47885 0.38391 0.88043 0.0
C93 C 0.45406 0.35244 0.89366 0.0
C94 C 0.45567 0.32347 0.89117 0.0
C95 C 0.48209 0.32553 0.87536 0.0
C96 C 0.50746 0.3576 0.86245 0.0
C97 C 0.50584 0.38652 0.86498 0.0
C98 C 0.5144 0.48387 0.81542 0.0
C99 C 0.60969 0.51762 0.8539 0.0
O100 O 0.57808 0.58664 0.81491 0.0
O101 O 0.61591 0.61811 0.84511 0.0
O102 O 0.53697 0.53147 0.8791 0.0
O103 O 0.60078 0.57455 0.88169 0.0
O104 O 0.50602 0.54245 0.84484 0.0
O105 O 0.46935 0.49191 0.86778 0.0
O106 O 0.50763 0.4454 0.8908 0.0
O107 O 0.46006 0.41677 0.86432 0.0
O108 O 0.54478 0.50227 0.82888 0.0
O109 O 0.48113 0.45925 0.82616 0.0
O110 O 0.57497 0.49154 0.86402 0.0
O111 O 0.61398 0.54409 0.84272 0.0
H112 H 0.64473 0.67858 0.79755 0.0
H113 H 0.63245 0.72284 0.79303 0.0
H114 H 0.53533 0.66365 0.84189 0.0
H115 H 0.54759 0.61935 0.84605 0.0
H116 H 0.43314 0.35009 0.90572 0.0
H117 H 0.43612 0.29941 0.90158 0.0
H118 H 0.52774 0.35994 0.8499 0.0
H119 H 0.52514 0.41066 0.85457 0.0
O120 O 0.54152 0.04501 0.22699 0.0
Cd121 Cd 0.55156 0.04578 0.18586 0.0
O122 O 0.48346 0.98759 0.22801 0.0
Cd123 Cd 0.47577 0.96992 0.19218 0.0
O124 O 0.43551 0.91984 0.17038 0.0
C125 C 0.40256 0.91152 0.1626 0.0
O126 O 0.39565 0.93503 0.16617 0.0
C127 C 0.51176 0.01826 0.23816 0.0
C128 C 0.61888 0.11741 0.17354 0.0
O129 O 0.58274 0.10716 0.17355 0.0
O130 O 0.62315 0.09364 0.17905 0.0
O131 O 0.5207 0.49818 0.59377 0.0
Cd132 Cd 0.5244 0.50173 0.55223 0.0
O133 O 0.47787 0.50972 0.59688 0.0
Cd134 Cd 0.48005 0.52414 0.56151 0.0
O135 O 0.47977 0.55999 0.53849 0.0
C136 C 0.51327 0.58997 0.53208 0.0
O137 O 0.54774 0.59741 0.53798 0.0
C138 C 0.49837 0.50162 0.60601 0.0
C139 C 0.52084 0.44399 0.53337 0.0
O140 O 0.55506 0.47527 0.53937 0.0
O141 O 0.48829 0.44014 0.53602 0.0
O142 O 0.07633 0.519 0.89112 0.0
Cd143 Cd 0.10867 0.51619 0.85648 0.0
O144 O 0.02706 0.51827 0.87755 0.0
Cd145 Cd 0.97538 0.52025 0.87682 0.0
O146 O 0.92076 0.51743 0.87319 0.0
C147 C 0.92419 0.54665 0.87324 0.0
O148 O 0.96085 0.57909 0.87569 0.0
C149 C 0.0467 0.51936 0.89454 0.0
C150 C 0.17308 0.51297 0.86228 0.0
O151 O 0.18044 0.54414 0.8612 0.0
O152 O 0.13551 0.48347 0.86137 0.0
O153 O 0.05544 0.53658 0.40391 0.0
Cd154 Cd 0.05757 0.5449 0.44534 0.0
O155 O 0.98844 0.49698 0.39868 0.0
Cd156 Cd 0.96935 0.4826 0.43406 0.0
O157 O 0.92096 0.43806 0.45549 0.0
C158 C 0.91505 0.40769 0.45496 0.0
O159 O 0.93993 0.40559 0.44309 0.0
C160 C 0.02429 0.51764 0.39064 0.0
C161 C 0.129 0.61634 0.45764 0.0
O162 O 0.12837 0.58849 0.45694 0.0
O163 O 0.09567 0.61032 0.45298 0.0
O164 O 0.53663 0.0025 0.74254 0.0
Cd165 Cd 0.54084 0.99416 0.78309 0.0
O166 O 0.54368 0.05328 0.74793 0.0
Cd167 Cd 0.5456 0.05789 0.7851 0.0
O168 O 0.54047 0.08947 0.81091 0.0
C169 C 0.51216 0.09109 0.80698 0.0
O170 O 0.48764 0.07215 0.7893 0.0
C171 C 0.53934 0.02903 0.73454 0.0
C172 C 0.55313 0.94258 0.7893 0.0
O173 O 0.51701 0.93227 0.78803 0.0
O174 O 0.58341 0.97727 0.78775 0.0
O175 O 0.47653 0.45207 0.10346 0.0
Cd176 Cd 0.45403 0.44048 0.14326 0.0
O177 O 0.53913 0.50485 0.10879 0.0
Cd178 Cd 0.52586 0.51327 0.14288 0.0
O179 O 0.49386 0.52738 0.1628 0.0
C180 C 0.50236 0.55816 0.15865 0.0
O181 O 0.53212 0.58051 0.14459 0.0
C182 C 0.51154 0.47812 0.09566 0.0
C183 C 0.50243 0.43222 0.1695 0.0
O184 O 0.47279 0.40503 0.15717 0.0
O185 O 0.50821 0.46269 0.16996 0.0
C186 C 0.26592 0.5569 0.15255 0.0
C187 C 0.23125 0.52178 0.14436 0.0
C188 C 0.30011 0.56193 0.16082 0.0
C189 C 0.30032 0.53185 0.16094 0.0
C190 C 0.26519 0.49664 0.15336 0.0
C191 C 0.23113 0.49165 0.14512 0.0
C192 C 0.3365 0.53571 0.16808 0.0
C193 C 0.37512 0.56806 0.16876 0.0
C194 C 0.4109 0.56927 0.17054 0.0
C195 C 0.44662 0.5968 0.15903 0.0
C196 C 0.47791 0.5947 0.15651 0.0
C197 C 0.47404 0.56505 0.16556 0.0
H198 H 0.38267 0.52109 0.19152 0.0
C199 C 0.44013 0.53959 0.17901 0.0
C200 C 0.40892 0.54178 0.18159 0.0
H201 H 0.43668 0.51688 0.18664 0.0
H202 H 0.26686 0.58064 0.15225 0.0
H203 H 0.32605 0.58934 0.16706 0.0
H204 H 0.26426 0.47288 0.15343 0.0
H205 H 0.20454 0.46405 0.13946 0.0
H206 H 0.33136 0.51001 0.17034 0.0
H207 H 0.38113 0.59364 0.16466 0.0
H208 H 0.44925 0.61865 0.15069 0.0
H209 H 0.50393 0.61509 0.14631 0.0
C210 C 0.63983 0.16183 0.4826 0.0
C211 C 0.63523 0.13229 0.4925 0.0
C212 C 0.67808 0.19721 0.48219 0.0
C213 C 0.71276 0.204 0.49181 0.0
C214 C 0.70796 0.17467 0.50216 0.0
C215 C 0.66964 0.13928 0.50262 0.0
C216 C 0.75472 0.24012 0.48957 0.0
C217 C 0.76253 0.27241 0.4855 0.0
C218 C 0.80382 0.30739 0.48006 0.0
C219 C 0.81113 0.34127 0.48209 0.0
C220 C 0.84792 0.3742 0.47485 0.0
C221 C 0.87814 0.37392 0.46517 0.0
H222 H 0.83008 0.28189 0.46854 0.0
C223 C 0.87136 0.34025 0.46375 0.0
C224 C 0.83465 0.30737 0.47102 0.0
H225 H 0.8939 0.33897 0.45631 0.0
H226 H 0.61406 0.15751 0.47459 0.0
H227 H 0.68041 0.21859 0.47349 0.0
H228 H 0.73411 0.17895 0.50955 0.0
H229 H 0.66731 0.11721 0.51036 0.0
H230 H 0.77997 0.23977 0.49125 0.0
H231 H 0.7377 0.27351 0.48596 0.0
H232 H 0.78791 0.34215 0.48885 0.0
H233 H 0.85208 0.39963 0.47616 0.0
C234 C 0.60906 0.76225 0.81349 0.0
C235 C 0.57589 0.72409 0.8147 0.0
C236 C 0.60255 0.78793 0.81128 0.0
C237 C 0.56257 0.77599 0.81003 0.0
C238 C 0.52948 0.7379 0.81152 0.0
C239 C 0.53601 0.71224 0.81376 0.0
C240 C 0.55397 0.80224 0.80787 0.0
C241 C 0.58088 0.8367 0.79973 0.0
C242 C 0.57246 0.86306 0.79751 0.0
C243 C 0.60571 0.90106 0.7958 0.0
C244 C 0.59948 0.92686 0.7933 0.0
C245 C 0.55972 0.91525 0.79227 0.0
H246 H 0.50598 0.82234 0.79687 0.0
C247 C 0.52634 0.87722 0.79382 0.0
C248 C 0.53258 0.85138 0.79634 0.0
H249 H 0.4953 0.86729 0.79289 0.0
H250 H 0.64018 0.77241 0.81469 0.0
H251 H 0.62902 0.81704 0.81105 0.0
H252 H 0.49837 0.72786 0.81076 0.0
H253 H 0.50975 0.68303 0.81447 0.0
H254 H 0.52397 0.79228 0.81301 0.0
H255 H 0.61083 0.8466 0.79454 0.0
H256 H 0.63676 0.9109 0.79646 0.0
H257 H 0.62589 0.95593 0.79208 0.0
C258 C 0.76286 0.48817 0.19942 0.0
C259 C 0.77284 0.46902 0.1867 0.0
C260 C 0.72228 0.4735 0.20136 0.0
C261 C 0.69056 0.43905 0.19074 0.0
C262 C 0.70046 0.41926 0.17879 0.0
C263 C 0.74114 0.43397 0.17686 0.0
C264 C 0.64791 0.4253 0.18927 0.0
C265 C 0.63292 0.43734 0.20327 0.0
C266 C 0.59525 0.43182 0.19763 0.0
C267 C 0.59365 0.4601 0.20391 0.0
C268 C 0.56223 0.4593 0.19568 0.0
C269 C 0.53144 0.42985 0.18124 0.0
H270 H 0.56231 0.378 0.1801 0.0
C271 C 0.53115 0.39999 0.17649 0.0
C272 C 0.5628 0.40095 0.18459 0.0
H273 H 0.50752 0.37667 0.16564 0.0
H274 H 0.7866 0.51506 0.20743 0.0
H275 H 0.71645 0.49031 0.21023 0.0
H276 H 0.67675 0.39285 0.17026 0.0
H277 H 0.74784 0.41865 0.16679 0.0
H278 H 0.62955 0.40694 0.17479 0.0
H279 H 0.65105 0.45565 0.21779 0.0
H280 H 0.61802 0.484 0.21414 0.0
H281 H 0.56305 0.48252 0.19989 0.0
C282 C 0.40295 0.87751 0.48011 0.0
C283 C 0.40485 0.90805 0.47571 0.0
C284 C 0.36612 0.84116 0.47747 0.0
C285 C 0.3301 0.83446 0.47047 0.0
C286 C 0.33217 0.86502 0.46594 0.0
C287 C 0.36896 0.90132 0.46857 0.0
C288 C 0.29014 0.79635 0.46693 0.0
C289 C 0.28119 0.76537 0.47543 0.0
C290 C 0.2414 0.72745 0.47123 0.0
C291 C 0.24003 0.69667 0.47268 0.0
C292 C 0.20352 0.66061 0.46849 0.0
C293 C 0.16733 0.65443 0.463 0.0
H294 H 0.20422 0.74395 0.46575 0.0
C295 C 0.16838 0.68512 0.46214 0.0
C296 C 0.20493 0.72121 0.46625 0.0
H297 H 0.14097 0.68133 0.45815 0.0
H298 H 0.43001 0.88157 0.48549 0.0
H299 H 0.36651 0.81866 0.48054 0.0
H300 H 0.30511 0.86084 0.46037 0.0
H301 H 0.36915 0.92408 0.46497 0.0
H302 H 0.26721 0.79402 0.45678 0.0
H303 H 0.30397 0.76727 0.4854 0.0
H304 H 0.26748 0.70055 0.47673 0.0
H305 H 0.20378 0.6376 0.46941 0.0
C306 C 0.51852 0.29984 0.86751 0.0
C307 C 0.48197 0.29376 0.87157 0.0
C308 C 0.51798 0.27008 0.86229 0.0
C309 C 0.48077 0.2334 0.86118 0.0
C310 C 0.44441 0.22736 0.8657 0.0
C311 C 0.44495 0.2571 0.87088 0.0
C312 C 0.478 0.20111 0.85355 0.0
C313 C 0.50999 0.20133 0.85294 0.0
C314 C 0.50758 0.17043 0.84258 0.0
C315 C 0.5377 0.16764 0.84828 0.0
C316 C 0.53848 0.141 0.83737 0.0
C317 C 0.50928 0.11677 0.82035 0.0
H318 H 0.45482 0.14733 0.82036 0.0
C319 C 0.47863 0.11902 0.815 0.0
C320 C 0.47785 0.14558 0.82587 0.0
H321 H 0.45578 0.10095 0.80188 0.0
H322 H 0.54761 0.32772 0.86809 0.0
H323 H 0.54669 0.27628 0.85844 0.0
H324 H 0.41525 0.19952 0.86476 0.0
H325 H 0.41615 0.25138 0.87356 0.0
H326 H 0.44798 0.17607 0.84814 0.0
H327 H 0.53927 0.22491 0.86025 0.0
H328 H 0.56118 0.18656 0.86093 0.0
H329 H 0.56261 0.1401 0.84184 0.0
C330 C 0.51446 0.80166 0.50362 0.0
C331 C 0.55104 0.83695 0.49876 0.0
C332 C 0.513 0.77087 0.50398 0.0
C333 C 0.5482 0.77474 0.49946 0.0
C334 C 0.58454 0.80992 0.49428 0.0
C335 C 0.58592 0.84064 0.49379 0.0
C336 C 0.54923 0.7437 0.50198 0.0
C337 C 0.5159 0.70751 0.49999 0.0
C338 C 0.51592 0.67655 0.50561 0.0
C339 C 0.47861 0.64208 0.5108 0.0
C340 C 0.47746 0.61333 0.51845 0.0
C341 C 0.5137 0.61838 0.52103 0.0
H342 H 0.58115 0.7062 0.50208 0.0
C343 C 0.55077 0.65206 0.51455 0.0
C344 C 0.55191 0.68078 0.50681 0.0
H345 H 0.57917 0.65664 0.51597 0.0
H346 H 0.48703 0.79793 0.50743 0.0
H347 H 0.48466 0.74452 0.50867 0.0
H348 H 0.6122 0.81381 0.49097 0.0
H349 H 0.61473 0.86753 0.49029 0.0
H350 H 0.57868 0.75151 0.50634 0.0
H351 H 0.48667 0.70007 0.49539 0.0
H352 H 0.45032 0.63777 0.50975 0.0
H353 H 0.4483 0.58763 0.52312 0.0
C354 C 0.6829 0.54533 0.8464 0.0
C355 C 0.64439 0.51684 0.85536 0.0
C356 C 0.71566 0.5449 0.84843 0.0
C357 C 0.71084 0.51594 0.85958 0.0
C358 C 0.6721 0.48719 0.86812 0.0
C359 C 0.63946 0.48767 0.86614 0.0
C360 C 0.74475 0.51404 0.86233 0.0
C361 C 0.785 0.54353 0.86084 0.0
C362 C 0.81944 0.54253 0.86434 0.0
C363 C 0.85928 0.57646 0.86727 0.0
C364 C 0.89284 0.57758 0.87026 0.0
C365 C 0.8878 0.54472 0.87032 0.0
H366 H 0.78443 0.48265 0.86169 0.0
C367 C 0.848 0.51061 0.86733 0.0
C368 C 0.81424 0.50947 0.86434 0.0
H369 H 0.84291 0.48473 0.86714 0.0
H370 H 0.68787 0.56813 0.83785 0.0
H371 H 0.74442 0.56712 0.84096 0.0
H372 H 0.66707 0.4643 0.8766 0.0
H373 H 0.6103 0.46508 0.87317 0.0
H374 H 0.73586 0.48744 0.86686 0.0
H375 H 0.79375 0.57056 0.85784 0.0
H376 H 0.86461 0.60246 0.86728 0.0
H377 H 0.92289 0.60443 0.87246 0.0
C378 C 0.15557 0.64099 0.12799 0.0
C379 C 0.12026 0.63047 0.13908 0.0
C380 C 0.19089 0.67838 0.12789 0.0
C381 C 0.19157 0.70599 0.13896 0.0
C382 C 0.156 0.69536 0.14964 0.0
C383 C 0.1209 0.65817 0.14978 0.0
C384 C 0.22816 0.74611 0.13987 0.0
C385 C 0.26681 0.75949 0.13632 0.0
C386 C 0.30278 0.79945 0.14026 0.0
C387 C 0.34033 0.80914 0.14697 0.0
C388 C 0.3735 0.84591 0.15324 0.0
C389 C 0.36984 0.87381 0.15281 0.0
H390 H 0.27226 0.82184 0.13226 0.0
C391 C 0.33313 0.86454 0.14465 0.0
C392 C 0.30004 0.82784 0.13833 0.0
H393 H 0.32949 0.88546 0.14372 0.0
H394 H 0.15602 0.62037 0.11945 0.0
H395 H 0.21723 0.68537 0.11896 0.0
H396 H 0.15543 0.71592 0.1582 0.0
H397 H 0.09428 0.65121 0.1584 0.0
H398 H 0.22305 0.76522 0.14551 0.0
H399 H 0.27283 0.74046 0.13261 0.0
H400 H 0.34354 0.78797 0.14829 0.0
H401 H 0.40146 0.85213 0.15927 0.0
C402 C 0.51129 0.2303 0.47382 0.0
C403 C 0.47685 0.19396 0.47889 0.0
C404 C 0.51289 0.26048 0.47973 0.0
C405 C 0.48019 0.25501 0.49117 0.0
C406 C 0.44557 0.21856 0.49589 0.0
C407 C 0.44388 0.1884 0.48985 0.0
C408 C 0.48045 0.28614 0.49822 0.0
C409 C 0.5145 0.3221 0.49989 0.0
C410 C 0.51494 0.35299 0.50792 0.0
C411 C 0.55232 0.38681 0.51522 0.0
C412 C 0.55432 0.41644 0.52324 0.0
C413 C 0.51891 0.41301 0.52412 0.0
H414 H 0.45036 0.32494 0.50211 0.0
C415 C 0.48159 0.3795 0.5164 0.0
C416 C 0.4796 0.34989 0.50827 0.0
H417 H 0.45381 0.3761 0.51661 0.0
H418 H 0.53685 0.23538 0.465 0.0
H419 H 0.53962 0.28778 0.47498 0.0
H420 H 0.41979 0.21335 0.50453 0.0
H421 H 0.41702 0.16076 0.49414 0.0
H422 H 0.45144 0.27851 0.50336 0.0
H423 H 0.54397 0.32942 0.49646 0.0
H424 H 0.58013 0.39024 0.51497 0.0
H425 H 0.58362 0.44191 0.52898 0.0
C426 C 0.4031 0.49455 0.8694 0.0
C427 C 0.43879 0.51978 0.85696 0.0
C428 C 0.37159 0.49688 0.87004 0.0
C429 C 0.37484 0.52449 0.85812 0.0
C430 C 0.41069 0.54976 0.84584 0.0
C431 C 0.44208 0.54741 0.84519 0.0
C432 C 0.34253 0.52879 0.85838 0.0
C433 C 0.30348 0.5025 0.86498 0.0
C434 C 0.27099 0.50655 0.86453 0.0
C435 C 0.22974 0.47439 0.86538 0.0
C436 C 0.19817 0.47651 0.8649 0.0
C437 C 0.20687 0.51097 0.86374 0.0
H438 H 0.31094 0.56684 0.86375 0.0
C439 C 0.24812 0.5433 0.86333 0.0
C440 C 0.27977 0.54118 0.86377 0.0
H441 H 0.25606 0.57037 0.86257 0.0
H442 H 0.39951 0.47303 0.87882 0.0
H443 H 0.34522 0.4773 0.8802 0.0
H444 H 0.41447 0.57151 0.83658 0.0
H445 H 0.46901 0.56743 0.83544 0.0
H446 H 0.35127 0.55442 0.85185 0.0
H447 H 0.29386 0.47583 0.86999 0.0
H448 H 0.22177 0.4473 0.86618 0.0
H449 H 0.16685 0.45099 0.86529 0.0
C450 C 0.86856 0.38816 0.15597 0.0
C451 C 0.9016 0.39794 0.14267 0.0
C452 C 0.83404 0.35094 0.15809 0.0
C453 C 0.83159 0.32251 0.14681 0.0
C454 C 0.86465 0.33231 0.13355 0.0
C455 C 0.89918 0.36958 0.1314 0.0
C456 C 0.79614 0.28244 0.14941 0.0
C457 C 0.75856 0.26987 0.15533 0.0
C458 C 0.72331 0.23005 0.1589 0.0
C459 C 0.68361 0.21857 0.15815 0.0
C460 C 0.6497 0.18191 0.16251 0.0
C461 C 0.65471 0.15584 0.16791 0.0
H462 H 0.75836 0.21167 0.16565 0.0
C463 C 0.69439 0.16718 0.16859 0.0
C464 C 0.72833 0.20388 0.16421 0.0
H465 H 0.69935 0.14787 0.17288 0.0
H466 H 0.8695 0.40921 0.16506 0.0
H467 H 0.80995 0.34469 0.16908 0.0
H468 H 0.86382 0.31104 0.12485 0.0
H469 H 0.92414 0.37606 0.12111 0.0
H470 H 0.80118 0.26273 0.1456 0.0
H471 H 0.7527 0.28934 0.15707 0.0
H472 H 0.67877 0.23812 0.15429 0.0
H473 H 0.61959 0.17416 0.1619 0.0
C474 C 0.99975 0.54329 0.06212 0.0
C475 C 0.99928 0.52018 0.0772 0.0
C476 C 1.00613 0.54183 0.03884 0.0
C477 C 0.01261 0.51748 0.03029 0.0
C478 C 0.01239 0.49461 0.04545 0.0
C479 C 1.00533 0.49562 0.06863 0.0
C480 C 0.0221 0.51682 0.00598 0.0
C481 C 0.00728 0.5238 0.98867 0.0
C482 C 0.01773 0.52327 0.96455 0.0
C483 C 0.98849 0.51064 0.94718 0.0
C484 C 0.99755 0.50926 0.92438 0.0
C485 C 0.03648 0.52153 0.91844 0.0
H486 H 0.08033 0.54653 0.97153 0.0
C487 C 0.06592 0.53483 0.93588 0.0
C488 C 0.0567 0.5357 0.95863 0.0
H489 H 0.09631 0.54466 0.93198 0.0
H490 H 0.99537 0.56262 0.06833 0.0
H491 H 0.00711 0.5605 0.02772 0.0
H492 H 0.01767 0.47586 0.03933 0.0
H493 H 1.00532 0.47762 0.0799 0.0
H494 H 0.04064 0.5087 0.00218 0.0
H495 H 0.98534 0.52814 0.99208 0.0
H496 H 0.9582 0.50086 0.95132 0.0
H497 H 0.9736 0.49748 0.91166 0.0
C498 C 0.50912 0.02223 0.41159 0.0
C499 C 0.54408 0.03019 0.42157 0.0
C500 C 0.50848 0.02842 0.38846 0.0
C501 C 0.54284 0.04257 0.3749 0.0
C502 C 0.57825 0.05194 0.38524 0.0
C503 C 0.57883 0.04566 0.40828 0.0
C504 C 0.54292 0.04715 0.34992 0.0
C505 C 0.5088 0.02669 0.33671 0.0
C506 C 0.50946 0.02675 0.31136 0.0
C507 C 0.4766 0.99503 0.29921 0.0
C508 C 0.47708 0.9926 0.27547 0.0
C509 C 0.51036 0.02205 0.26324 0.0
H510 H 0.56736 0.08235 0.30777 0.0
C511 C 0.54256 0.05449 0.2753 0.0
C512 C 0.54209 0.05689 0.29911 0.0
H513 H 0.56842 0.07788 0.2664 0.0
H514 H 0.48208 0.01069 0.42156 0.0
H515 H 0.48106 0.02202 0.38133 0.0
H516 H 0.60529 0.06322 0.37531 0.0
H517 H 0.60635 0.05241 0.41561 0.0
H518 H 0.57255 0.0652 0.34195 0.0
H519 H 0.47945 0.00623 0.3445 0.0
H520 H 0.45087 0.97154 0.30815 0.0
H521 H 0.45155 0.96731 0.26675 0.0
C522 C 0.481 0.46392 0.77692 0.0
C523 C 0.51671 0.48697 0.79043 0.0
C524 C 0.48278 0.46647 0.75323 0.0
C525 C 0.52039 0.49244 0.74255 0.0
C526 C 0.55617 0.51513 0.7561 0.0
C527 C 0.55435 0.51258 0.77984 0.0
C528 C 0.52341 0.49584 0.71736 0.0
C529 C 0.49233 0.48688 0.70397 0.0
C530 C 0.49489 0.49065 0.67883 0.0
C531 C 0.46859 0.49461 0.6678 0.0
C532 C 0.46966 0.49802 0.6442 0.0
C533 C 0.49677 0.49708 0.63099 0.0
H534 H 0.54158 0.48506 0.67341 0.0
C535 C 0.52261 0.49241 0.64195 0.0
C536 C 0.52171 0.48921 0.66563 0.0
H537 H 0.5437 0.49136 0.63226 0.0
H538 H 0.45161 0.44369 0.78465 0.0
H539 H 0.45469 0.44759 0.74341 0.0
H540 H 0.58557 0.53513 0.74831 0.0
H541 H 0.58239 0.53058 0.78987 0.0
H542 H 0.55281 0.50792 0.70989 0.0
H543 H 0.46433 0.47828 0.71178 0.0
H544 H 0.44735 0.49544 0.67751 0.0
H545 H 0.44917 0.50141 0.63633 0.0
C546 C 0.49203 0.03789 0.56605 0.0
C547 C 0.51231 0.03296 0.54949 0.0
C548 C 0.49648 0.03439 0.58914 0.0
C549 C 0.52178 0.0263 0.59615 0.0
C550 C 0.5417 0.02104 0.57948 0.0
C551 C 0.53721 0.02454 0.55638 0.0
C552 C 0.52731 0.02235 0.62057 0.0
C553 C 0.52298 0.03936 0.63773 0.0
C554 C 0.52864 0.03631 0.66229 0.0
C555 C 0.53548 0.06332 0.67774 0.0
C556 C 0.53951 0.06115 0.70106 0.0
C557 C 0.53652 0.03167 0.70962 0.0
H558 H 0.51943 0.9848 0.65956 0.0
C559 C 0.52978 0.00456 0.6942 0.0
C560 C 0.52576 0.00677 0.67077 0.0
H561 H 0.52703 0.98135 0.70024 0.0
H562 H 0.47235 0.04407 0.56114 0.0
H563 H 0.47946 0.0374 0.60132 0.0
H564 H 0.56116 0.01459 0.58435 0.0
H565 H 0.55347 0.02095 0.54394 0.0
H566 H 0.5373 0.00653 0.62428 0.0
H567 H 0.51668 0.05789 0.63369 0.0
H568 H 0.5376 0.08625 0.67175 0.0
H569 H 0.54461 0.08252 0.7124 0.0
C570 C 0.52868 0.51365 0.92666 0.0
C571 C 0.56582 0.54271 0.91689 0.0
C572 C 0.52706 0.50667 0.9498 0.0
C573 C 0.56267 0.52869 0.96361 0.0
C574 C 0.59966 0.55799 0.95381 0.0
C575 C 0.60131 0.56479 0.93062 0.0
C576 C 0.56188 0.52339 0.98848 0.0
C577 C 0.53419 0.49051 0.99827 0.0
C578 C 0.53071 0.48598 0.02336 0.0
C579 C 0.493 0.45605 0.03218 0.0
C580 C 0.48715 0.4526 0.0557 0.0
C581 C 0.51907 0.47898 0.07094 0.0
H582 H 0.59346 0.53365 0.03261 0.0
C583 C 0.55753 0.50771 0.06214 0.0
C584 C 0.56338 0.51111 0.03862 0.0
H585 H 0.58297 0.52816 0.07341 0.0
H586 H 0.50078 0.49637 0.91646 0.0
H587 H 0.49769 0.48465 0.95685 0.0
H588 H 0.62741 0.57563 0.96411 0.0
H589 H 0.63034 0.58743 0.9235 0.0
H590 H 0.58473 0.54785 0.99892 0.0
H591 H 0.51161 0.46617 0.98763 0.0
H592 H 0.46746 0.43598 0.02084 0.0
H593 H 0.45721 0.42994 0.06189 0.0
C594 C 0.03157 0.48914 0.21955 0.0
C595 C 0.03066 0.51196 0.20497 0.0
C596 C 0.03037 0.49296 0.24317 0.0
C597 C 0.02784 0.51947 0.25263 0.0
C598 C 0.02658 0.54204 0.23802 0.0
C599 C 0.02854 0.53869 0.2144 0.0
C600 C 0.02439 0.52276 0.27756 0.0
C601 C 0.04338 0.51729 0.29299 0.0
C602 C 0.0386 0.519 0.31792 0.0
C603 C 0.07122 0.53123 0.33271 0.0
C604 C 0.06696 0.53167 0.35633 0.0
C605 C 0.02958 0.51897 0.36564 0.0
H606 H 0.97526 0.49623 0.31629 0.0
C607 C 0.99684 0.50653 0.35081 0.0
C608 C 1.00134 0.50671 0.3272 0.0
H609 H 0.96762 0.49649 0.35744 0.0
H610 H 0.03305 0.46821 0.21271 0.0
H611 H 0.03038 0.47449 0.25394 0.0
H612 H 0.02435 0.56248 0.24491 0.0
H613 H 0.028 0.55676 0.20354 0.0
H614 H 0.0069 0.53123 0.28331 0.0
H615 H 0.06426 0.51262 0.28724 0.0
H616 H 0.1001 0.54051 0.32596 0.0
H617 H 0.09266 0.54118 0.3673 0.0
loop_
_geom_bond_atom_site_label_1
_geom_bond_atom_site_label_2
_geom_bond_distance
_geom_bond_site_symmetry_2
_ccdc_geom_bond_type
Sm0 C2 2.846 . S
Sm0 O20 2.543 . S
Sm0 O21 2.450 . S
Sm0 O22 2.681 . S
Sm0 O23 2.464 . S
Sm0 O24 2.396 . S
Sm0 O28 2.386 . S
Sm0 O31 2.408 1_455 S
Sm1 C11 2.846 . S
Sm1 O22 2.386 1_655 S
Sm1 O25 2.408 1_655 S
Sm1 O26 2.543 . S
Sm1 O27 2.450 . S
Sm1 O28 2.681 1_655 S
Sm1 O29 2.464 1_655 S
Sm1 O30 2.396 . S
C2 Sm0 2.846 . S
C2 C3 1.506 . S
C2 O20 1.261 . S
C2 O21 1.242 . S
C3 C2 1.506 . S
C3 C4 1.358 . S
C3 C8 1.382 . S
C4 C3 1.358 . S
C4 C5 1.385 . S
C4 H32 0.930 . S
C5 C4 1.385 . S
C5 C6 1.395 . S
C5 H33 0.929 . S
C6 C5 1.395 . S
C6 C7 1.335 . S
C7 C6 1.335 . S
C7 C8 1.398 . S
C7 H34 0.930 . S
C8 C3 1.382 . S
C8 C7 1.398 . S
C8 H35 0.929 . S
C9 O22 1.271 . S
C9 O23 1.251 . S
C10 O24 1.252 . S
C10 O25 1.272 . S
C11 Sm1 2.846 . S
C11 C12 1.506 . S
C11 O26 1.261 . S
C11 O27 1.242 . S
C12 C11 1.506 . S
C12 C13 1.358 . S
C12 C17 1.382 . S
C13 C12 1.358 . S
C13 C14 1.385 . S
C13 H36 0.930 . S
C14 C13 1.385 . S
C14 C15 1.395 . S
C14 H37 0.929 . S
C15 C14 1.395 . S
C15 C16 1.335 . S
C16 C15 1.335 . S
C16 C17 1.398 . S
C16 H38 0.930 . S
C17 C12 1.382 . S
C17 C16 1.398 . S
C17 H39 0.929 . S
C18 O28 1.271 . S
C18 O29 1.249 . S
C19 O30 1.252 . S
C19 O31 1.272 . S
O20 Sm0 2.543 . S
O20 C2 1.261 . S
O21 Sm0 2.450 . S
O21 C2 1.242 . S
O22 Sm0 2.681 . S
O22 Sm1 2.386 1_455 S
O22 C9 1.271 . S
O23 Sm0 2.464 . S
O23 C9 1.251 . S
O24 Sm0 2.396 . S
O24 C10 1.252 . S
O25 Sm1 2.408 1_455 S
O25 C10 1.272 . S
O26 Sm1 2.543 . S
O26 C11 1.261 . S
O27 Sm1 2.450 . S
O27 C11 1.242 . S
O28 Sm0 2.386 . S
O28 Sm1 2.681 1_455 S
O28 C18 1.271 . S
O29 Sm1 2.464 1_455 S
O29 C18 1.249 . S
O30 Sm1 2.396 . S
O30 C19 1.252 . S
O31 Sm0 2.408 1_655 S
O31 C19 1.272 . S
H32 C4 0.930 . S
H33 C5 0.929 . S
H34 C7 0.930 . S
H35 C8 0.929 . S
H36 C13 0.930 . S
H37 C14 0.929 . S
H38 C16 0.930 . S
H39 C17 0.929 . S
Sm40 C42 2.846 . S
Sm40 O60 2.543 . S
Sm40 O61 2.450 . S
Sm40 O62 2.681 1_565 S
Sm40 O63 2.464 . S
Sm40 O64 2.396 . S
Sm40 O68 2.386 1_565 S
Sm40 O71 2.408 1_565 S
Sm41 C51 2.846 . S
Sm41 O62 2.386 . S
Sm41 O65 2.408 1_545 S
Sm41 O66 2.543 . S
Sm41 O67 2.450 . S
Sm41 O68 2.681 . S
Sm41 O69 2.464 . S
Sm41 O70 2.396 . S
C42 Sm40 2.846 . S
C42 C43 1.506 . S
C42 O60 1.261 . S
C42 O61 1.242 . S
C43 C42 1.506 . S
C43 C44 1.358 . S
C43 C48 1.382 . S
C44 C43 1.358 . S
C44 C45 1.385 . S
C44 H72 0.930 . S
C45 C44 1.385 . S
C45 C46 1.395 . S
C45 H73 0.929 . S
C46 C45 1.395 . S
C46 C47 1.335 . S
C47 C46 1.335 . S
C47 C48 1.398 . S
C47 H74 0.930 . S
C48 C43 1.382 . S
C48 C47 1.398 . S
C48 H75 0.929 . S
C49 O62 1.271 . S
C49 O63 1.251 1_545 S
C50 O64 1.252 . S
C50 O65 1.272 . S
C51 Sm41 2.846 . S
C51 C52 1.506 . S
C51 O66 1.261 . S
C51 O67 1.242 . S
C52 C51 1.506 . S
C52 C53 1.358 . S
C52 C57 1.382 . S
C53 C52 1.358 . S
C53 C54 1.385 . S
C53 H76 0.930 . S
C54 C53 1.385 . S
C54 C55 1.395 . S
C54 H77 0.929 . S
C55 C54 1.395 . S
C55 C56 1.335 . S
C56 C55 1.335 . S
C56 C57 1.398 . S
C56 H78 0.930 . S
C57 C52 1.382 . S
C57 C56 1.398 . S
C57 H79 0.929 . S
C58 O68 1.271 . S
C58 O69 1.251 . S
C59 O70 1.252 . S
C59 O71 1.272 . S
O60 Sm40 2.543 . S
O60 C42 1.261 . S
O61 Sm40 2.450 . S
O61 C42 1.242 . S
O62 Sm40 2.681 1_545 S
O62 Sm41 2.386 . S
O62 C49 1.271 . S
O63 Sm40 2.464 . S
O63 C49 1.251 1_565 S
O64 Sm40 2.396 . S
O64 C50 1.252 . S
O65 Sm41 2.408 1_565 S
O65 C50 1.272 . S
O66 Sm41 2.543 . S
O66 C51 1.261 . S
O67 Sm41 2.450 . S
O67 C51 1.242 . S
O68 Sm40 2.386 1_545 S
O68 Sm41 2.681 . S
O68 C58 1.271 . S
O69 Sm41 2.464 . S
O69 C58 1.251 . S
O70 Sm41 2.396 . S
O70 C59 1.252 . S
O71 Sm40 2.408 1_545 S
O71 C59 1.272 . S
H72 C44 0.930 . S
H73 C45 0.929 . S
H74 C47 0.930 . S
H75 C48 0.929 . S
H76 C53 0.930 . S
H77 C54 0.929 . S
H78 C56 0.930 . S
H79 C57 0.929 . S
Sm80 C82 2.846 . S
Sm80 O100 2.543 . S
Sm80 O101 2.450 . S
Sm80 O102 2.681 . S
Sm80 O103 2.464 . S
Sm80 O104 2.396 . S
Sm80 O108 2.386 . S
Sm80 O111 2.408 . S
Sm81 C91 2.846 . S
Sm81 O102 2.386 . S
Sm81 O105 2.408 . S
Sm81 O106 2.543 . S
Sm81 O107 2.450 . S
Sm81 O108 2.681 . S
Sm81 O109 2.464 . S
Sm81 O110 2.396 . S
C82 Sm80 2.846 . S
C82 C83 1.506 . S
C82 O100 1.261 . S
C82 O101 1.242 . S
C83 C82 1.506 . S
C83 C84 1.358 . S
C83 C88 1.382 . S
C84 C83 1.358 . S
C84 C85 1.385 . S
C84 H112 0.930 . S
C85 C84 1.385 . S
C85 C86 1.395 . S
C85 H113 0.929 . S
C86 C85 1.395 . S
C86 C87 1.335 . S
C87 C86 1.335 . S
C87 C88 1.398 . S
C87 H114 0.930 . S
C88 C83 1.382 . S
C88 C87 1.398 . S
C88 H115 0.929 . S
C89 O102 1.271 . S
C89 O103 1.251 . S
C90 O104 1.252 . S
C90 O105 1.272 . S
C91 Sm81 2.846 . S
C91 C92 1.506 . S
C91 O106 1.261 . S
C91 O107 1.242 . S
C92 C91 1.506 . S
C92 C93 1.358 . S
C92 C97 1.382 . S
C93 C92 1.358 . S
C93 C94 1.385 . S
C93 H116 0.930 . S
C94 C93 1.385 . S
C94 C95 1.395 . S
C94 H117 0.929 . S
C95 C94 1.395 . S
C95 C96 1.335 . S
C96 C95 1.335 . S
C96 C97 1.398 . S
C96 H118 0.930 . S
C97 C92 1.382 . S
C97 C96 1.398 . S
C97 H119 0.929 . S
C98 O108 1.271 . S
C98 O109 1.251 . S
C99 O110 1.252 . S
C99 O111 1.272 . S
O100 Sm80 2.543 . S
O100 C82 1.261 . S
O101 Sm80 2.450 . S
O101 C82 1.242 . S
O102 Sm80 2.681 . S
O102 Sm81 2.386 . S
O102 C89 1.271 . S
O103 Sm80 2.464 . S
O103 C89 1.251 . S
O104 Sm80 2.396 . S
O104 C90 1.252 . S
O105 Sm81 2.408 . S
O105 C90 1.272 . S
O106 Sm81 2.543 . S
O106 C91 1.261 . S
O107 Sm81 2.450 . S
O107 C91 1.242 . S
O108 Sm80 2.386 . S
O108 Sm81 2.681 . S
O108 C98 1.271 . S
O109 Sm81 2.464 . S
O109 C98 1.251 . S
O110 Sm81 2.396 . S
O110 C99 1.252 . S
O111 Sm80 2.408 . S
O111 C99 1.272 . S
H112 C84 0.930 . S
H113 C85 0.929 . S
H114 C87 0.930 . S
H115 C88 0.929 . S
H116 C93 0.930 . S
H117 C94 0.929 . S
H118 C96 0.930 . S
H119 C97 0.929 . S
O120 Cd121 2.300 . S
O120 C127 1.275 . S
Cd121 O120 2.300 . S
Cd121 O129 2.381 . S
Cd121 O130 2.378 . S
O122 Cd123 2.385 . S
O122 C127 1.255 1_565 S
Cd123 O122 2.385 . S
Cd123 O124 2.317 . S
O124 Cd123 2.317 . S
O124 C125 1.232 . S
C125 O124 1.232 . S
C125 O126 1.218 . S
O126 C125 1.218 . S
C127 O120 1.275 . S
C127 O122 1.255 1_545 S
C128 O129 1.258 . S
C128 O130 1.256 . S
O129 Cd121 2.381 . S
O129 C128 1.258 . S
O130 Cd121 2.378 . S
O130 C128 1.256 . S
O131 Cd132 2.300 . S
O131 C138 1.275 . S
Cd132 O131 2.300 . S
Cd132 O140 2.381 . S
Cd132 O141 2.378 . S
O133 Cd134 2.385 . S
O133 C138 1.255 . S
Cd134 O133 2.385 . S
Cd134 O135 2.317 . S
O135 Cd134 2.317 . S
O135 C136 1.232 . S
C136 O135 1.232 . S
C136 O137 1.218 . S
O137 C136 1.218 . S
C138 O131 1.275 . S
C138 O133 1.255 . S
C139 O140 1.258 . S
C139 O141 1.256 . S
O140 Cd132 2.381 . S
O140 C139 1.258 . S
O141 Cd132 2.378 . S
O141 C139 1.256 . S
O142 Cd143 2.300 . S
O142 C149 1.275 . S
Cd143 O142 2.300 . S
Cd143 O151 2.381 . S
Cd143 O152 2.378 . S
O144 Cd145 2.385 1_455 S
O144 C149 1.255 . S
Cd145 O144 2.385 1_655 S
Cd145 O146 2.317 . S
O146 Cd145 2.317 . S
O146 C147 1.232 . S
C147 O146 1.232 . S
C147 O148 1.218 . S
O148 C147 1.218 . S
C149 O142 1.275 . S
C149 O144 1.255 . S
C150 O151 1.258 . S
C150 O152 1.256 . S
O151 Cd143 2.381 . S
O151 C150 1.258 . S
O152 Cd143 2.378 . S
O152 C150 1.256 . S
O153 Cd154 2.300 . S
O153 C160 1.275 1_455 S
Cd154 O153 2.300 . S
Cd154 O162 2.381 . S
Cd154 O163 2.378 . S
O155 Cd156 2.385 . S
O155 C160 1.255 . S
Cd156 O155 2.385 . S
Cd156 O157 2.317 . S
O157 Cd156 2.317 . S
O157 C158 1.232 . S
C158 O157 1.232 . S
C158 O159 1.218 . S
O159 C158 1.218 . S
C160 O153 1.275 1_655 S
C160 O155 1.255 . S
C161 O162 1.258 . S
C161 O163 1.256 . S
O162 Cd154 2.381 . S
O162 C161 1.258 . S
O163 Cd154 2.378 . S
O163 C161 1.256 . S
O164 Cd165 2.300 . S
O164 C171 1.275 1_565 S
Cd165 O164 2.300 . S
Cd165 O173 2.381 . S
Cd165 O174 2.378 . S
O166 Cd167 2.385 . S
O166 C171 1.255 . S
Cd167 O166 2.385 . S
Cd167 O168 2.317 . S
O168 Cd167 2.317 . S
O168 C169 1.232 . S
C169 O168 1.232 . S
C169 O170 1.218 . S
O170 C169 1.218 . S
C171 O164 1.275 1_545 S
C171 O166 1.255 . S
C172 O173 1.258 . S
C172 O174 1.256 . S
O173 Cd165 2.381 . S
O173 C172 1.258 . S
O174 Cd165 2.378 . S
O174 C172 1.256 . S
O175 Cd176 2.300 . S
O175 C182 1.275 . S
Cd176 O175 2.300 . S
Cd176 O184 2.381 . S
Cd176 O185 2.378 . S
O177 Cd178 2.385 . S
O177 C182 1.255 . S
Cd178 O177 2.385 . S
Cd178 O179 2.317 . S
O179 Cd178 2.317 . S
O179 C180 1.232 . S
C180 O179 1.232 . S
C180 O181 1.218 . S
O181 C180 1.218 . S
C182 O175 1.275 . S
C182 O177 1.255 . S
C183 O184 1.258 . S
C183 O185 1.256 . S
O184 Cd176 2.381 . S
O184 C183 1.258 . S
O185 Cd176 2.378 . S
O185 C183 1.256 . S
C186 C187 1.386 . S
C186 C188 1.383 . S
C186 H202 0.951 . S
C187 C186 1.386 . S
C187 C191 1.383 . S
C188 C186 1.383 . S
C188 C189 1.402 . S
C188 H203 0.951 . S
C189 C188 1.402 . S
C189 C190 1.375 . S
C189 C192 1.481 . S
C190 C189 1.375 . S
C190 C191 1.367 . S
C190 H204 0.951 . S
C191 C187 1.383 . S
C191 C190 1.367 . S
C191 H205 0.950 . S
C192 C189 1.481 . S
C192 C193 1.297 . S
C192 H206 0.950 . S
C193 C192 1.297 . S
C193 C194 1.479 . S
C193 H207 0.950 . S
C194 C193 1.479 . S
C194 C195 1.375 . S
C194 C200 1.404 . S
C195 C194 1.375 . S
C195 C196 1.369 . S
C195 H208 0.950 . S
C196 C195 1.369 . S
C196 C197 1.392 . S
C196 H209 0.951 . S
C197 C196 1.392 . S
C197 C199 1.384 . S
H198 C200 0.949 . S
C199 C197 1.384 . S
C199 C200 1.385 . S
C199 H201 0.950 . S
C200 C194 1.404 . S
C200 H198 0.949 . S
C200 C199 1.385 . S
H201 C199 0.950 . S
H202 C186 0.951 . S
H203 C188 0.951 . S
H204 C190 0.951 . S
H205 C191 0.950 . S
H206 C192 0.950 . S
H207 C193 0.950 . S
H208 C195 0.950 . S
H209 C196 0.951 . S
C210 C211 1.386 . S
C210 C212 1.383 . S
C210 H226 0.951 . S
C211 C210 1.386 . S
C211 C215 1.383 . S
C212 C210 1.383 . S
C212 C213 1.402 . S
C212 H227 0.951 . S
C213 C212 1.402 . S
C213 C214 1.375 . S
C213 C216 1.481 . S
C214 C213 1.375 . S
C214 C215 1.367 . S
C214 H228 0.951 . S
C215 C211 1.383 . S
C215 C214 1.367 . S
C215 H229 0.950 . S
C216 C213 1.481 . S
C216 C217 1.297 . S
C216 H230 0.950 . S
C217 C216 1.297 . S
C217 C218 1.479 . S
C217 H231 0.950 . S
C218 C217 1.479 . S
C218 C219 1.375 . S
C218 C224 1.404 . S
C219 C218 1.375 . S
C219 C220 1.369 . S
C219 H232 0.950 . S
C220 C219 1.369 . S
C220 C221 1.392 . S
C220 H233 0.951 . S
C221 C220 1.392 . S
C221 C223 1.384 . S
H222 C224 0.949 . S
C223 C221 1.384 . S
C223 C224 1.385 . S
C223 H225 0.950 . S
C224 C218 1.404 . S
C224 H222 0.949 . S
C224 C223 1.385 . S
H225 C223 0.950 . S
H226 C210 0.951 . S
H227 C212 0.951 . S
H228 C214 0.951 . S
H229 C215 0.950 . S
H230 C216 0.950 . S
H231 C217 0.950 . S
H232 C219 0.950 . S
H233 C220 0.951 . S
C234 C235 1.386 . S
C234 C236 1.383 . S
C234 H250 0.951 . S
C235 C234 1.386 . S
C235 C239 1.383 . S
C236 C234 1.383 . S
C236 C237 1.402 . S
C236 H251 0.951 . S
C237 C236 1.402 . S
C237 C238 1.375 . S
C237 C240 1.481 . S
C238 C237 1.375 . S
C238 C239 1.367 . S
C238 H252 0.951 . S
C239 C235 1.383 . S
C239 C238 1.367 . S
C239 H253 0.950 . S
C240 C237 1.481 . S
C240 C241 1.297 . S
C240 H254 0.950 . S
C241 C240 1.297 . S
C241 C242 1.479 . S
C241 H255 0.950 . S
C242 C241 1.479 . S
C242 C243 1.375 . S
C242 C248 1.404 . S
C243 C242 1.375 . S
C243 C244 1.369 . S
C243 H256 0.950 . S
C244 C243 1.369 . S
C244 C245 1.392 . S
C244 H257 0.951 . S
C245 C244 1.392 . S
C245 C247 1.384 . S
H246 C248 0.949 . S
C247 C245 1.384 . S
C247 C248 1.385 . S
C247 H249 0.950 . S
C248 C242 1.404 . S
C248 H246 0.949 . S
C248 C247 1.385 . S
H249 C247 0.950 . S
H250 C234 0.951 . S
H251 C236 0.951 . S
H252 C238 0.951 . S
H253 C239 0.950 . S
H254 C240 0.950 . S
H255 C241 0.950 . S
H256 C243 0.950 . S
H257 C244 0.951 . S
C258 C259 1.386 . S
C258 C260 1.383 . S
C258 H274 0.951 . S
C259 C258 1.386 . S
C259 C263 1.383 . S
C260 C258 1.383 . S
C260 C261 1.402 . S
C260 H275 0.951 . S
C261 C260 1.402 . S
C261 C262 1.375 . S
C261 C264 1.481 . S
C262 C261 1.375 . S
C262 C263 1.367 . S
C262 H276 0.951 . S
C263 C259 1.383 . S
C263 C262 1.367 . S
C263 H277 0.950 . S
C264 C261 1.481 . S
C264 C265 1.297 . S
C264 H278 0.950 . S
C265 C264 1.297 . S
C265 C266 1.479 . S
C265 H279 0.950 . S
C266 C265 1.479 . S
C266 C267 1.375 . S
C266 C272 1.404 . S
C267 C266 1.375 . S
C267 C268 1.369 . S
C267 H280 0.950 . S
C268 C267 1.369 . S
C268 C269 1.392 . S
C268 H281 0.951 . S
C269 C268 1.392 . S
C269 C271 1.384 . S
H270 C272 0.949 . S
C271 C269 1.384 . S
C271 C272 1.385 . S
C271 H273 0.950 . S
C272 C266 1.404 . S
C272 H270 0.949 . S
C272 C271 1.385 . S
H273 C271 0.950 . S
H274 C258 0.951 . S
H275 C260 0.951 . S
H276 C262 0.951 . S
H277 C263 0.950 . S
H278 C264 0.950 . S
H279 C265 0.950 . S
H280 C267 0.950 . S
H281 C268 0.951 . S
C282 C283 1.386 . S
C282 C284 1.383 . S
C282 H298 0.951 . S
C283 C282 1.386 . S
C283 C287 1.383 . S
C284 C282 1.383 . S
C284 C285 1.402 . S
C284 H299 0.951 . S
C285 C284 1.402 . S
C285 C286 1.375 . S
C285 C288 1.481 . S
C286 C285 1.375 . S
C286 C287 1.367 . S
C286 H300 0.951 . S
C287 C283 1.383 . S
C287 C286 1.367 . S
C287 H301 0.950 . S
C288 C285 1.481 . S
C288 C289 1.297 . S
C288 H302 0.950 . S
C289 C288 1.297 . S
C289 C290 1.479 . S
C289 H303 0.950 . S
C290 C289 1.479 . S
C290 C291 1.375 . S
C290 C296 1.404 . S
C291 C290 1.375 . S
C291 C292 1.369 . S
C291 H304 0.950 . S
C292 C291 1.369 . S
C292 C293 1.392 . S
C292 H305 0.951 . S
C293 C292 1.392 . S
C293 C295 1.384 . S
H294 C296 0.949 . S
C295 C293 1.384 . S
C295 C296 1.385 . S
C295 H297 0.950 . S
C296 C290 1.404 . S
C296 H294 0.949 . S
C296 C295 1.385 . S
H297 C295 0.950 . S
H298 C282 0.951 . S
H299 C284 0.951 . S
H300 C286 0.951 . S
H301 C287 0.950 . S
H302 C288 0.950 . S
H303 C289 0.950 . S
H304 C291 0.950 . S
H305 C292 0.951 . S
C306 C307 1.386 . S
C306 C308 1.383 . S
C306 H322 0.951 . S
C307 C306 1.386 . S
C307 C311 1.383 . S
C308 C306 1.383 . S
C308 C309 1.402 . S
C308 H323 0.951 . S
C309 C308 1.402 . S
C309 C310 1.375 . S
C309 C312 1.481 . S
C310 C309 1.375 . S
C310 C311 1.367 . S
C310 H324 0.951 . S
C311 C307 1.383 . S
C311 C310 1.367 . S
C311 H325 0.950 . S
C312 C309 1.481 . S
C312 C313 1.297 . S
C312 H326 0.950 . S
C313 C312 1.297 . S
C313 C314 1.479 . S
C313 H327 0.950 . S
C314 C313 1.479 . S
C314 C315 1.375 . S
C314 C320 1.404 . S
C315 C314 1.375 . S
C315 C316 1.369 . S
C315 H328 0.950 . S
C316 C315 1.369 . S
C316 C317 1.392 . S
C316 H329 0.951 . S
C317 C316 1.392 . S
C317 C319 1.384 . S
H318 C320 0.949 . S
C319 C317 1.384 . S
C319 C320 1.385 . S
C319 H321 0.950 . S
C320 C314 1.404 . S
C320 H318 0.949 . S
C320 C319 1.385 . S
H321 C319 0.950 . S
H322 C306 0.951 . S
H323 C308 0.951 . S
H324 C310 0.951 . S
H325 C311 0.950 . S
H326 C312 0.950 . S
H327 C313 0.950 . S
H328 C315 0.950 . S
H329 C316 0.951 . S
C330 C331 1.386 . S
C330 C332 1.383 . S
C330 H346 0.951 . S
C331 C330 1.386 . S
C331 C335 1.383 . S
C332 C330 1.383 . S
C332 C333 1.402 . S
C332 H347 0.951 . S
C333 C332 1.402 . S
C333 C334 1.375 . S
C333 C336 1.481 . S
C334 C333 1.375 . S
C334 C335 1.367 . S
C334 H348 0.951 . S
C335 C331 1.383 . S
C335 C334 1.367 . S
C335 H349 0.950 . S
C336 C333 1.481 . S
C336 C337 1.297 . S
C336 H350 0.950 . S
C337 C336 1.297 . S
C337 C338 1.479 . S
C337 H351 0.950 . S
C338 C337 1.479 . S
C338 C339 1.375 . S
C338 C344 1.404 . S
C339 C338 1.375 . S
C339 C340 1.369 . S
C339 H352 0.950 . S
C340 C339 1.369 . S
C340 C341 1.392 . S
C340 H353 0.951 . S
C341 C340 1.392 . S
C341 C343 1.384 . S
H342 C344 0.949 . S
C343 C341 1.384 . S
C343 C344 1.385 . S
C343 H345 0.950 . S
C344 C338 1.404 . S
C344 H342 0.949 . S
C344 C343 1.385 . S
H345 C343 0.950 . S
H346 C330 0.951 . S
H347 C332 0.951 . S
H348 C334 0.951 . S
H349 C335 0.950 . S
H350 C336 0.950 . S
H351 C337 0.950 . S
H352 C339 0.950 . S
H353 C340 0.951 . S
C354 C355 1.386 . S
C354 C356 1.383 . S
C354 H370 0.951 . S
C355 C354 1.386 . S
C355 C359 1.383 . S
C356 C354 1.383 . S
C356 C357 1.402 . S
C356 H371 0.951 . S
C357 C356 1.402 . S
C357 C358 1.375 . S
C357 C360 1.481 . S
C358 C357 1.375 . S
C358 C359 1.367 . S
C358 H372 0.951 . S
C359 C355 1.383 . S
C359 C358 1.367 . S
C359 H373 0.950 . S
C360 C357 1.481 . S
C360 C361 1.297 . S
C360 H374 0.950 . S
C361 C360 1.297 . S
C361 C362 1.479 . S
C361 H375 0.950 . S
C362 C361 1.479 . S
C362 C363 1.375 . S
C362 C368 1.404 . S
C363 C362 1.375 . S
C363 C364 1.369 . S
C363 H376 0.950 . S
C364 C363 1.369 . S
C364 C365 1.392 . S
C364 H377 0.951 . S
C365 C364 1.392 . S
C365 C367 1.384 . S
H366 C368 0.949 . S
C367 C365 1.384 . S
C367 C368 1.385 . S
C367 H369 0.950 . S
C368 C362 1.404 . S
C368 H366 0.949 . S
C368 C367 1.385 . S
H369 C367 0.950 . S
H370 C354 0.951 . S
H371 C356 0.951 . S
H372 C358 0.951 . S
H373 C359 0.950 . S
H374 C360 0.950 . S
H375 C361 0.950 . S
H376 C363 0.950 . S
H377 C364 0.951 . S
C378 C379 1.386 . S
C378 C380 1.383 . S
C378 H394 0.951 . S
C379 C378 1.386 . S
C379 C383 1.383 . S
C380 C378 1.383 . S
C380 C381 1.402 . S
C380 H395 0.951 . S
C381 C380 1.402 . S
C381 C382 1.375 . S
C381 C384 1.481 . S
C382 C381 1.375 . S
C382 C383 1.367 . S
C382 H396 0.951 . S
C383 C379 1.383 . S
C383 C382 1.367 . S
C383 H397 0.950 . S
C384 C381 1.481 . S
C384 C385 1.297 . S
C384 H398 0.950 . S
C385 C384 1.297 . S
C385 C386 1.479 . S
C385 H399 0.950 . S
C386 C385 1.479 . S
C386 C387 1.375 . S
C386 C392 1.404 . S
C387 C386 1.375 . S
C387 C388 1.369 . S
C387 H400 0.950 . S
C388 C387 1.369 . S
C388 C389 1.392 . S
C388 H401 0.951 . S
C389 C388 1.392 . S
C389 C391 1.384 . S
H390 C392 0.949 . S
C391 C389 1.384 . S
C391 C392 1.385 . S
C391 H393 0.950 . S
C392 C386 1.404 . S
C392 H390 0.949 . S
C392 C391 1.385 . S
H393 C391 0.950 . S
H394 C378 0.951 . S
H395 C380 0.951 . S
H396 C382 0.951 . S
H397 C383 0.950 . S
H398 C384 0.950 . S
H399 C385 0.950 . S
H400 C387 0.950 . S
H401 C388 0.951 . S
C402 C403 1.386 . S
C402 C404 1.383 . S
C402 H418 0.951 . S
C403 C402 1.386 . S
C403 C407 1.383 . S
C404 C402 1.383 . S
C404 C405 1.402 . S
C404 H419 0.951 . S
C405 C404 1.402 . S
C405 C406 1.375 . S
C405 C408 1.481 . S
C406 C405 1.375 . S
C406 C407 1.367 . S
C406 H420 0.951 . S
C407 C403 1.383 . S
C407 C406 1.367 . S
C407 H421 0.950 . S
C408 C405 1.481 . S
C408 C409 1.297 . S
C408 H422 0.950 . S
C409 C408 1.297 . S
C409 C410 1.479 . S
C409 H423 0.950 . S
C410 C409 1.479 . S
C410 C411 1.375 . S
C410 C416 1.404 . S
C411 C410 1.375 . S
C411 C412 1.369 . S
C411 H424 0.950 . S
C412 C411 1.369 . S
C412 C413 1.392 . S
C412 H425 0.951 . S
C413 C412 1.392 . S
C413 C415 1.384 . S
H414 C416 0.949 . S
C415 C413 1.384 . S
C415 C416 1.385 . S
C415 H417 0.950 . S
C416 C410 1.404 . S
C416 H414 0.949 . S
C416 C415 1.385 . S
H417 C415 0.950 . S
H418 C402 0.951 . S
H419 C404 0.951 . S
H420 C406 0.951 . S
H421 C407 0.950 . S
H422 C408 0.950 . S
H423 C409 0.950 . S
H424 C411 0.950 . S
H425 C412 0.951 . S
C426 C427 1.386 . S
C426 C428 1.383 . S
C426 H442 0.951 . S
C427 C426 1.386 . S
C427 C431 1.383 . S
C428 C426 1.383 . S
C428 C429 1.402 . S
C428 H443 0.951 . S
C429 C428 1.402 . S
C429 C430 1.375 . S
C429 C432 1.481 . S
C430 C429 1.375 . S
C430 C431 1.367 . S
C430 H444 0.951 . S
C431 C427 1.383 . S
C431 C430 1.367 . S
C431 H445 0.950 . S
C432 C429 1.481 . S
C432 C433 1.297 . S
C432 H446 0.950 . S
C433 C432 1.297 . S
C433 C434 1.479 . S
C433 H447 0.950 . S
C434 C433 1.479 . S
C434 C435 1.375 . S
C434 C440 1.404 . S
C435 C434 1.375 . S
C435 C436 1.369 . S
C435 H448 0.950 . S
C436 C435 1.369 . S
C436 C437 1.392 . S
C436 H449 0.951 . S
C437 C436 1.392 . S
C437 C439 1.384 . S
H438 C440 0.949 . S
C439 C437 1.384 . S
C439 C440 1.385 . S
C439 H441 0.950 . S
C440 C434 1.404 . S
C440 H438 0.949 . S
C440 C439 1.385 . S
H441 C439 0.950 . S
H442 C426 0.951 . S
H443 C428 0.951 . S
H444 C430 0.951 . S
H445 C431 0.950 . S
H446 C432 0.950 . S
H447 C433 0.950 . S
H448 C435 0.950 . S
H449 C436 0.951 . S
C450 C451 1.386 . S
C450 C452 1.383 . S
C450 H466 0.951 . S
C451 C450 1.386 . S
C451 C455 1.383 . S
C452 C450 1.383 . S
C452 C453 1.402 . S
C452 H467 0.951 . S
C453 C452 1.402 . S
C453 C454 1.375 . S
C453 C456 1.481 . S
C454 C453 1.375 . S
C454 C455 1.367 . S
C454 H468 0.951 . S
C455 C451 1.383 . S
C455 C454 1.367 . S
C455 H469 0.950 . S
C456 C453 1.481 . S
C456 C457 1.297 . S
C456 H470 0.950 . S
C457 C456 1.297 . S
C457 C458 1.479 . S
C457 H471 0.950 . S
C458 C457 1.479 . S
C458 C459 1.375 . S
C458 C464 1.404 . S
C459 C458 1.375 . S
C459 C460 1.369 . S
C459 H472 0.950 . S
C460 C459 1.369 . S
C460 C461 1.392 . S
C460 H473 0.951 . S
C461 C460 1.392 . S
C461 C463 1.384 . S
H462 C464 0.949 . S
C463 C461 1.384 . S
C463 C464 1.385 . S
C463 H465 0.950 . S
C464 C458 1.404 . S
C464 H462 0.949 . S
C464 C463 1.385 . S
H465 C463 0.950 . S
H466 C450 0.951 . S
H467 C452 0.951 . S
H468 C454 0.951 . S
H469 C455 0.950 . S
H470 C456 0.950 . S
H471 C457 0.950 . S
H472 C459 0.950 . S
H473 C460 0.951 . S
C474 C475 1.386 1_655 S
C474 C476 1.381 . S
C474 H490 0.951 . S
C475 C474 1.386 1_455 S
C475 C479 1.383 . S
C476 C474 1.381 . S
C476 C477 1.388 1_655 S
C476 H491 0.967 . S
C477 C476 1.388 1_455 S
C477 C478 1.375 . S
C477 C480 1.481 . S
C478 C477 1.375 . S
C478 C479 1.367 . S
C478 H492 0.951 . S
C479 C475 1.383 . S
C479 C478 1.367 . S
C479 H493 0.950 . S
C480 C477 1.481 . S
C480 C481 1.297 . S
C480 H494 0.950 . S
C481 C480 1.297 . S
C481 C482 1.479 1_554 S
C481 H495 0.950 1_455 S
C482 C481 1.479 1_556 S
C482 C483 1.375 1_455 S
C482 C488 1.404 . S
C483 C482 1.375 1_655 S
C483 C484 1.369 . S
C483 H496 0.950 . S
C484 C483 1.369 . S
C484 C485 1.392 1_655 S
C484 H497 0.951 . S
C485 C484 1.392 1_455 S
C485 C487 1.384 . S
H486 C488 0.949 . S
C487 C485 1.384 . S
C487 C488 1.385 . S
C487 H489 0.950 . S
C488 C482 1.404 . S
C488 H486 0.949 . S
C488 C487 1.385 . S
H489 C487 0.950 . S
H490 C474 0.951 . S
H491 C476 0.967 . S
H492 C478 0.951 . S
H493 C479 0.950 . S
H494 C480 0.950 . S
H495 C481 0.950 1_655 S
H496 C483 0.950 . S
H497 C484 0.951 . S
C498 C499 1.386 1_565 S
C498 C500 1.383 . S
C498 H514 0.951 . S
C499 C498 1.386 1_545 S
C499 C503 1.383 . S
C500 C498 1.383 . S
C500 C501 1.402 1_565 S
C500 H515 0.951 . S
C501 C500 1.402 1_545 S
C501 C502 1.375 . S
C501 C504 1.481 . S
C502 C501 1.375 . S
C502 C503 1.367 . S
C502 H516 0.951 . S
C503 C499 1.383 . S
C503 C502 1.367 . S
C503 H517 0.950 . S
C504 C501 1.481 . S
C504 C505 1.297 . S
C504 H518 0.950 . S
C505 C504 1.297 . S
C505 C506 1.479 . S
C505 H519 0.950 1_545 S
C506 C505 1.479 . S
C506 C507 1.375 1_545 S
C506 C512 1.404 . S
C507 C506 1.375 1_565 S
C507 C508 1.369 . S
C507 H520 0.950 . S
C508 C507 1.369 . S
C508 C509 1.392 1_565 S
C508 H521 0.951 . S
C509 C508 1.392 1_545 S
C509 C511 1.384 . S
H510 C512 0.949 . S
C511 C509 1.384 . S
C511 C512 1.385 . S
C511 H513 0.950 . S
C512 C506 1.404 . S
C512 H510 0.949 . S
C512 C511 1.385 . S
H513 C511 0.950 . S
H514 C498 0.951 . S
H515 C500 0.951 . S
H516 C502 0.951 . S
H517 C503 0.950 . S
H518 C504 0.950 . S
H519 C505 0.950 1_565 S
H520 C507 0.950 . S
H521 C508 0.951 . S
C522 C523 1.386 . S
C522 C524 1.383 . S
C522 H538 0.951 . S
C523 C522 1.386 . S
C523 C527 1.383 . S
C524 C522 1.383 . S
C524 C525 1.402 . S
C524 H539 0.951 . S
C525 C524 1.402 . S
C525 C526 1.375 . S
C525 C528 1.481 . S
C526 C525 1.375 . S
C526 C527 1.367 . S
C526 H540 0.951 . S
C527 C523 1.383 . S
C527 C526 1.367 . S
C527 H541 0.950 . S
C528 C525 1.481 . S
C528 C529 1.297 . S
C528 H542 0.950 . S
C529 C528 1.297 . S
C529 C530 1.479 . S
C529 H543 0.950 . S
C530 C529 1.479 . S
C530 C531 1.375 . S
C530 C536 1.404 . S
C531 C530 1.375 . S
C531 C532 1.369 . S
C531 H544 0.950 . S
C532 C531 1.369 . S
C532 C533 1.392 . S
C532 H545 0.951 . S
C533 C532 1.392 . S
C533 C535 1.384 . S
H534 C536 0.949 . S
C535 C533 1.384 . S
C535 C536 1.385 . S
C535 H537 0.950 . S
C536 C530 1.404 . S
C536 H534 0.949 . S
C536 C535 1.385 . S
H537 C535 0.950 . S
H538 C522 0.951 . S
H539 C524 0.951 . S
H540 C526 0.951 . S
H541 C527 0.950 . S
H542 C528 0.950 . S
H543 C529 0.950 . S
H544 C531 0.950 . S
H545 C532 0.951 . S
C546 C547 1.386 . S
C546 C548 1.383 . S
C546 H562 0.951 . S
C547 C546 1.386 . S
C547 C551 1.383 1_545 S
C548 C546 1.383 . S
C548 C549 1.402 1_545 S
C548 H563 0.951 . S
C549 C548 1.402 1_565 S
C549 C550 1.375 . S
C549 C552 1.481 . S
C550 C549 1.375 . S
C550 C551 1.367 . S
C550 H564 0.951 . S
C551 C547 1.383 1_565 S
C551 C550 1.367 . S
C551 H565 0.950 . S
C552 C549 1.481 . S
C552 C553 1.297 1_565 S
C552 H566 0.950 . S
C553 C552 1.297 1_545 S
C553 C554 1.479 . S
C553 H567 0.950 . S
C554 C553 1.479 . S
C554 C555 1.375 . S
C554 C560 1.404 1_545 S
C555 C554 1.375 . S
C555 C556 1.369 . S
C555 H568 0.950 . S
C556 C555 1.369 . S
C556 C557 1.392 . S
C556 H569 0.951 . S
C557 C556 1.392 . S
C557 C559 1.384 1_545 S
H558 C560 0.949 . S
C559 C557 1.384 1_565 S
C559 C560 1.385 . S
C559 H561 0.950 . S
C560 C554 1.404 1_565 S
C560 H558 0.949 . S
C560 C559 1.385 . S
H561 C559 0.950 . S
H562 C546 0.951 . S
H563 C548 0.951 . S
H564 C550 0.951 . S
H565 C551 0.950 . S
H566 C552 0.950 . S
H567 C553 0.950 . S
H568 C555 0.950 . S
H569 C556 0.951 . S
C570 C571 1.386 . S
C570 C572 1.383 . S
C570 H586 0.951 . S
C571 C570 1.386 . S
C571 C575 1.383 . S
C572 C570 1.383 . S
C572 C573 1.402 . S
C572 H587 0.951 . S
C573 C572 1.402 . S
C573 C574 1.375 . S
C573 C576 1.481 . S
C574 C573 1.375 . S
C574 C575 1.367 . S
C574 H588 0.951 . S
C575 C571 1.383 . S
C575 C574 1.367 . S
C575 H589 0.950 . S
C576 C573 1.481 . S
C576 C577 1.297 . S
C576 H590 0.950 . S
C577 C576 1.297 . S
C577 C578 1.479 1_556 S
C577 H591 0.950 . S
C578 C577 1.479 1_554 S
C578 C579 1.375 . S
C578 C584 1.404 . S
C579 C578 1.375 . S
C579 C580 1.369 . S
C579 H592 0.950 . S
C580 C579 1.369 . S
C580 C581 1.392 . S
C580 H593 0.951 . S
C581 C580 1.392 . S
C581 C583 1.384 . S
H582 C584 0.949 . S
C583 C581 1.384 . S
C583 C584 1.385 . S
C583 H585 0.950 . S
C584 C578 1.404 . S
C584 H582 0.949 . S
C584 C583 1.385 . S
H585 C583 0.950 . S
H586 C570 0.951 . S
H587 C572 0.951 . S
H588 C574 0.951 . S
H589 C575 0.950 . S
H590 C576 0.950 . S
H591 C577 0.950 . S
H592 C579 0.950 . S
H593 C580 0.951 . S
C594 C595 1.386 . S
C594 C596 1.383 . S
C594 H610 0.951 . S
C595 C594 1.386 . S
C595 C599 1.383 . S
C596 C594 1.383 . S
C596 C597 1.402 . S
C596 H611 0.951 . S
C597 C596 1.402 . S
C597 C598 1.375 . S
C597 C600 1.481 . S
C598 C597 1.375 . S
C598 C599 1.367 . S
C598 H612 0.952 . S
C599 C595 1.383 . S
C599 C598 1.367 . S
C599 H613 0.950 . S
C600 C597 1.481 . S
C600 C601 1.297 . S
C600 H614 0.950 . S
C601 C600 1.297 . S
C601 C602 1.479 . S
C601 H615 0.950 . S
C602 C601 1.479 . S
C602 C603 1.375 . S
C602 C608 1.404 . S
C603 C602 1.375 . S
C603 C604 1.369 . S
C603 H616 0.950 . S
C604 C603 1.369 . S
C604 C605 1.392 1_455 S
C604 H617 0.951 . S
C605 C604 1.392 1_655 S
C605 C607 1.384 . S
H606 C608 0.949 . S
C607 C605 1.384 . S
C607 C608 1.385 1_655 S
C607 H609 0.950 . S
C608 C602 1.404 . S
C608 H606 0.949 . S
C608 C607 1.385 1_455 S
H609 C607 0.950 . S
H610 C594 0.951 . S
H611 C596 0.951 . S
H612 C598 0.952 . S
H613 C599 0.950 . S
H614 C600 0.950 . S
H615 C601 0.950 . S
H616 C603 0.950 . S
H617 C604 0.951 . S
C187 C6 0.649 . S
C197 C180 0.543 . S
C211 C59 2.048 . S
C221 C158 1.835 . S
C235 C86 1.016 . S
C245 C172 1.020 . S
C259 C15 0.361 . S
C269 C183 0.198 . S
C293 C161 1.793 . S
C283 C50 1.822 . S
C317 C169 1.179 . S
C307 C95 1.413 . S
C331 C46 1.351 . S
C341 C136 1.196 . S
C355 C99 3.269 . S
C365 C147 2.868 . S
C379 C10 2.118 . S
C389 C125 1.834 . S
C413 C139 1.009 . S
C403 C55 1.031 . S
C437 C150 2.755 . S
C427 C90 2.831 . S
C451 C19 1.735 . S
C461 C128 1.737 . S
C485 C149 1.679 . S
C475 C18 1.628 . S
C499 C49 1.425 . S
C509 C127 1.423 . S
C523 C98 1.498 . S
C533 C138 1.510 . S
C557 C171 1.489 . S
C547 C58 1.459 . S
C581 C182 1.160 . S
C571 C89 1.227 . S
C595 C9 1.437 . S
C605 C160 1.356 . S
