# Generated by pormake.
# Topology pth, (4,4)-cn, num edge types: 1
# Building blocks:
#     Node 0, Type 0, BuildingBlock: GALJAG_clean_sbu_0, # of connection points: 4
#     Node 1, Type 0, BuildingBlock: GALJAG_clean_sbu_0, # of connection points: 4
#     Node 2, Type 0, BuildingBlock: GALJAG_clean_sbu_0, # of connection points: 4
#     Node 3, Type 1, BuildingBlock: NAWXER_clean_sbu_0, # of connection points: 4
#     Node 4, Type 1, BuildingBlock: NAWXER_clean_sbu_0, # of connection points: 4
#     Node 5, Type 1, BuildingBlock: NAWXER_clean_sbu_0, # of connection points: 4
#     Edge 6, Type (0, 1), BuildingBlock: TEMPAE_clean_linker_10, # of connection points: 2
#     Edge 7, Type (0, 1), BuildingBlock: TEMPAE_clean_linker_10, # of connection points: 2
#     Edge 8, Type (0, 1), BuildingBlock: TEMPAE_clean_linker_10, # of connection points: 2
#     Edge 9, Type (0, 1), BuildingBlock: TEMPAE_clean_linker_10, # of connection points: 2
#     Edge 10, Type (0, 1), BuildingBlock: TEMPAE_clean_linker_10, # of connection points: 2
#     Edge 11, Type (0, 1), BuildingBlock: TEMPAE_clean_linker_10, # of connection points: 2
#     Edge 12, Type (0, 1), BuildingBlock: TEMPAE_clean_linker_10, # of connection points: 2
#     Edge 13, Type (0, 1), BuildingBlock: TEMPAE_clean_linker_10, # of connection points: 2
#     Edge 14, Type (0, 1), BuildingBlock: TEMPAE_clean_linker_10, # of connection points: 2
#     Edge 15, Type (0, 1), BuildingBlock: TEMPAE_clean_linker_10, # of connection points: 2
#     Edge 16, Type (0, 1), BuildingBlock: TEMPAE_clean_linker_10, # of connection points: 2
#     Edge 17, Type (0, 1), BuildingBlock: TEMPAE_clean_linker_10, # of connection points: 2
# Relax obj value: 0.017
# Max RMSD: 0.060
# Mean RMSD: 0.053
data_MOF--net-pth--node1-GALJAG_clean_sbu_0--node2-NAWXER_clean_sbu_0--edge1-TEMPAE_clean_linker_10
_symmetry_space_group_name_H-M    P1
_symmetry_Int_Tables_number       1
_symmetry_cell_setting            triclinic
loop_
_symmetry_equiv_pos_as_xyz
'x, y, z'
_cell_length_a     23.590118
_cell_length_b     23.568262
_cell_length_c     56.477497
_cell_angle_alpha  90.194214
_cell_angle_beta   90.106141
_cell_angle_gamma 119.8464
loop_
_atom_site_label
_atom_site_type_symbol
_atom_site_fract_x
_atom_site_fract_y
_atom_site_fract_z
_atom_type_partial_charge
In0 In 1.00104 0.00593 0.07075 0.0
O1 O 0.98169 0.08954 0.08029 0.0
O2 O 0.04785 0.07596 0.10181 0.0
C3 C 0.89789 0.93713 0.04172 0.0
C4 C 0.10569 0.07242 0.04251 0.0
C5 C 0.9804 0.90424 0.09857 0.0
O6 O 0.89377 0.96603 0.05999 0.0
O7 O 0.95364 0.94386 0.03813 0.0
O8 O 0.02176 0.92456 0.08201 0.0
O9 O 0.95085 0.93599 0.10129 0.0
C10 C 0.02043 0.10918 0.09778 0.0
O11 O 0.10881 0.04498 0.06128 0.0
O12 O 0.05018 0.06547 0.03806 0.0
In13 In 0.02002 0.02022 0.4084 0.0
O14 O 0.05781 0.11943 0.39064 0.0
O15 O 0.96756 0.03866 0.3785 0.0
C16 C 0.10947 0.02285 0.43861 0.0
C17 C 0.9381 0.03104 0.43854 0.0
C18 C 0.02296 0.93199 0.37892 0.0
O19 O 0.12495 0.06552 0.42256 0.0
O20 O 0.04937 0.98126 0.4397 0.0
O21 O 0.97614 0.91615 0.39329 0.0
O22 O 0.06618 0.99176 0.37924 0.0
C23 C 0.00891 0.09892 0.37683 0.0
O24 O 0.92304 0.97685 0.42861 0.0
O25 O 0.99422 0.0778 0.43365 0.0
In26 In 0.00948 0.9896 0.74316 0.0
O27 O 0.96925 0.88249 0.75393 0.0
O28 O 0.94597 0.94267 0.77525 0.0
C29 C 0.11341 0.00698 0.71738 0.0
C30 C 0.9094 0.96896 0.71421 0.0
C31 C 0.0752 0.09566 0.77131 0.0
O32 O 0.094 0.97047 0.73535 0.0
O33 O 0.07969 0.0332 0.71226 0.0
O34 O 0.04954 0.09831 0.75197 0.0
O35 O 0.06677 0.03993 0.77637 0.0
C36 C 0.93963 0.88689 0.77186 0.0
O37 O 0.92908 0.01064 0.73082 0.0
O38 O 0.94082 0.93889 0.71208 0.0
C39 C 0.04855 0.60748 0.26911 0.0
C40 C 0.04953 0.45945 0.2077 0.0
O41 O 0.09956 0.60911 0.26085 0.0
Zn42 Zn 0.05457 0.53583 0.23855 0.0
O43 O 0.99196 0.5627 0.2623 0.0
Zn44 Zn 0.94809 0.48089 0.23913 0.0
O45 O 0.9055 0.40688 0.26104 0.0
O46 O 0.0132 0.45363 0.26119 0.0
O47 O 0.99292 0.44604 0.21507 0.0
O48 O 0.10024 0.50962 0.21581 0.0
O49 O 0.00718 0.57135 0.216 0.0
O50 O 0.89996 0.50724 0.21767 0.0
C51 C 0.95744 0.4085 0.26832 0.0
C52 C 0.94974 0.55777 0.20949 0.0
C53 C 0.57378 0.95239 0.60114 0.0
C54 C 0.43055 0.98067 0.54502 0.0
O55 O 0.5246 0.90601 0.59067 0.0
Zn56 Zn 0.49894 0.96148 0.57299 0.0
O57 O 0.58718 0.01151 0.59812 0.0
Zn58 Zn 0.55326 0.06621 0.57939 0.0
O59 O 0.52416 0.10249 0.60468 0.0
O60 O 0.46085 0.99594 0.59999 0.0
O61 O 0.47472 0.03371 0.55466 0.0
O62 O 0.42735 0.92648 0.55005 0.0
O63 O 0.58094 0.01525 0.55056 0.0
O64 O 0.63007 0.12028 0.56024 0.0
C65 C 0.47345 0.04925 0.61047 0.0
C66 C 0.62677 0.07418 0.54742 0.0
C67 C 0.45642 0.40063 0.93776 0.0
C68 C 0.60383 0.54354 0.87682 0.0
O69 O 0.44309 0.44499 0.93146 0.0
Zn70 Zn 0.47872 0.52394 0.90638 0.0
O71 O 0.50348 0.39787 0.928 0.0
Zn72 Zn 0.5304 0.47186 0.9073 0.0
O73 O 0.56524 0.55343 0.93147 0.0
O74 O 0.5051 0.60016 0.92614 0.0
O75 O 0.60571 0.49709 0.88745 0.0
O76 O 0.55927 0.5575 0.88209 0.0
O77 O 0.40413 0.49653 0.88571 0.0
O78 O 0.45066 0.4356 0.88232 0.0
C79 C 0.5518 0.59845 0.93671 0.0
C80 C 0.40631 0.44894 0.87601 0.0
C81 C 0.00986 0.20825 0.10547 0.0
C82 C 0.03307 0.16648 0.11247 0.0
C83 C 0.02006 0.26158 0.11971 0.0
C84 C 0.05342 0.27275 0.14162 0.0
C85 C 0.0786 0.23179 0.14843 0.0
C86 C 0.06844 0.1794 0.13371 0.0
C87 C 0.99298 0.30448 0.11172 0.0
C88 C 0.11352 0.24132 0.17179 0.0
C89 C 0.10682 0.4318 0.1758 0.0
C90 C 0.05355 0.413 0.191 0.0
C91 C 0.10766 0.38687 0.15944 0.0
C92 C 0.05462 0.32168 0.15869 0.0
C93 C 1.00164 0.3024 0.17442 0.0
C94 C 1.0016 0.34824 0.19019 0.0
C95 C 0.16464 0.40922 0.14276 0.0
C96 C 0.94465 0.23318 0.17459 0.0
H97 H 0.98313 0.19893 0.08894 0.0
H98 H 0.08676 0.14743 0.13917 0.0
H99 H 0.95177 0.29648 0.12333 0.0
H100 H 0.03089 0.35685 0.11326 0.0
H101 H 0.97504 0.29408 0.09313 0.0
H102 H 0.13531 0.2092 0.1735 0.0
H103 H 0.15281 0.29294 0.17392 0.0
H104 H 0.07853 0.2303 0.18652 0.0
H105 H 0.14698 0.48177 0.17634 0.0
H106 H 0.96062 0.33298 0.20212 0.0
H107 H 0.1471 0.40307 0.12417 0.0
H108 H 0.1878 0.37854 0.14497 0.0
H109 H 0.20227 0.46127 0.14569 0.0
H110 H 0.91982 0.22096 0.15709 0.0
H111 H 0.90811 0.22576 0.18839 0.0
H112 H 0.96235 0.19818 0.17777 0.0
C113 C 0.84405 0.98918 0.46678 0.0
C114 C 0.89335 0.041 0.45402 0.0
C115 C 0.80297 0.99965 0.482 0.0
C116 C 0.81027 0.06301 0.48389 0.0
C117 C 0.85922 0.11512 0.47063 0.0
C118 C 0.90073 0.10367 0.45613 0.0
C119 C 0.75221 0.94311 0.49624 0.0
C120 C 0.86733 0.18282 0.47158 0.0
C121 C 0.66073 0.06667 0.50663 0.0
C122 C 0.67791 0.08515 0.53029 0.0
C123 C 0.70468 0.06245 0.491 0.0
C124 C 0.76621 0.07454 0.49956 0.0
C125 C 0.78436 0.09497 0.52337 0.0
C126 C 0.74008 0.10073 0.53842 0.0
C127 C 0.68415 0.0424 0.46561 0.0
C128 C 0.84883 0.1069 0.53332 0.0
H129 H 0.83854 0.94082 0.46524 0.0
H130 H 0.93847 0.14376 0.44608 0.0
H131 H 0.75909 0.95568 0.51538 0.0
H132 H 0.70261 0.93333 0.49129 0.0
H133 H 0.75452 0.89762 0.49347 0.0
H134 H 0.90682 0.21765 0.45974 0.0
H135 H 0.8209 0.18064 0.46636 0.0
H136 H 0.87873 0.20224 0.48994 0.0
H137 H 0.61202 0.05349 0.50058 0.0
H138 H 0.75235 0.11314 0.55694 0.0
H139 H 0.67719 0.99286 0.46241 0.0
H140 H 0.72286 0.07644 0.45338 0.0
H141 H 0.63783 0.04155 0.46118 0.0
H142 H 0.85048 0.06065 0.53286 0.0
H143 H 0.8567 0.12516 0.55187 0.0
H144 H 0.88982 0.1429 0.52232 0.0
C145 C 0.87002 0.76654 0.77879 0.0
C146 C 0.89792 0.83095 0.78723 0.0
C147 C 0.82426 0.71385 0.79245 0.0
C148 C 0.80725 0.72606 0.81519 0.0
C149 C 0.83806 0.79078 0.82422 0.0
C150 C 0.88246 0.84247 0.81002 0.0
C151 C 0.79176 0.64567 0.7821 0.0
C152 C 0.82231 0.80583 0.84856 0.0
C153 C 0.64056 0.61864 0.84222 0.0
C154 C 0.65414 0.58386 0.85924 0.0
C155 C 0.68926 0.66232 0.82686 0.0
C156 C 0.75352 0.67257 0.8289 0.0
C157 C 0.76703 0.63585 0.84549 0.0
C158 C 0.71689 0.59135 0.86034 0.0
C159 C 0.67246 0.69951 0.8091 0.0
C160 C 0.83512 0.64612 0.84844 0.0
H161 H 0.88174 0.75761 0.76111 0.0
H162 H 0.90444 0.89223 0.81667 0.0
H163 H 0.79402 0.61103 0.79478 0.0
H164 H 0.73934 0.62869 0.77873 0.0
H165 H 0.8146 0.64351 0.76518 0.0
H166 H 0.85499 0.85768 0.85379 0.0
H167 H 0.7711 0.79574 0.84889 0.0
H168 H 0.82662 0.77387 0.86197 0.0
H169 H 0.5919 0.61245 0.84115 0.0
H170 H 0.72763 0.56472 0.87355 0.0
H171 H 0.69007 0.69608 0.79123 0.0
H172 H 0.69732 0.75205 0.8141 0.0
H173 H 0.61904 0.68102 0.80808 0.0
H174 H 0.85555 0.64375 0.83103 0.0
H175 H 0.83625 0.60935 0.86039 0.0
H176 H 0.8676 0.69558 0.85593 0.0
C177 C 0.92664 0.83272 0.13352 0.0
C178 C 0.96729 0.8478 0.11368 0.0
C179 C 0.91575 0.7811 0.14863 0.0
C180 C 0.9458 0.74326 0.14368 0.0
C181 C 0.98483 0.75667 0.12315 0.0
C182 C 0.99542 0.80903 0.10846 0.0
C183 C 0.8745 0.76898 0.17047 0.0
C184 C 0.01739 0.71721 0.11716 0.0
C185 C 0.9923 0.67044 0.19462 0.0
C186 C 0.94387 0.60425 0.19357 0.0
C187 C 0.99222 0.71611 0.17889 0.0
C188 C 0.94296 0.6951 0.16133 0.0
C189 C 0.89288 0.62853 0.16044 0.0
C190 C 0.89355 0.58378 0.1768 0.0
C191 C 0.0458 0.78676 0.18083 0.0
C192 C 0.83989 0.60436 0.14182 0.0
H193 H 0.9045 0.86233 0.13759 0.0
H194 H 0.02635 0.82005 0.09303 0.0
H195 H 0.83695 0.71649 0.17173 0.0
H196 H 0.90586 0.78152 0.18649 0.0
H197 H 0.84967 0.79853 0.17063 0.0
H198 H 0.04044 0.72928 0.09939 0.0
H199 H 0.05573 0.72687 0.13053 0.0
H200 H 0.9813 0.66413 0.11771 0.0
H201 H 0.03081 0.68669 0.20782 0.0
H202 H 0.85621 0.53261 0.17592 0.0
H203 H 0.02429 0.81907 0.18255 0.0
H204 H 0.07576 0.80128 0.16451 0.0
H205 H 0.07856 0.79557 0.19624 0.0
H206 H 0.815 0.63375 0.14227 0.0
H207 H 0.8028 0.55198 0.1442 0.0
H208 H 0.86194 0.6106 0.124 0.0
C209 C 0.22372 0.04861 0.44795 0.0
C210 C 0.15758 0.01843 0.45417 0.0
C211 C 0.26852 0.04023 0.46185 0.0
C212 C 0.24675 1.00186 0.48265 0.0
C213 C 0.18012 0.97203 0.48912 0.0
C214 C 0.13628 0.98019 0.47469 0.0
C215 C 0.33907 0.07218 0.45424 0.0
C216 C 0.1552 0.93204 0.51144 0.0
C217 C 0.34919 0.9367 0.5115 0.0
C218 C 0.38266 0.98418 0.529 0.0
C219 C 0.3055 0.94228 0.49594 0.0
C220 C 0.29414 0.99573 0.49838 0.0
C221 C 0.3271 0.04307 0.5163 0.0
C222 C 0.37129 0.03703 0.53119 0.0
C223 C 0.27185 0.89136 0.47681 0.0
C224 C 0.31528 0.09991 0.5199 0.0
H225 H 0.24017 0.07755 0.43194 0.0
H226 H 0.08513 0.95676 0.47956 0.0
H227 H 0.37083 0.10805 0.46785 0.0
H228 H 0.35441 0.03481 0.45263 0.0
H229 H 0.34755 0.09787 0.43704 0.0
H230 H 0.10183 0.91175 0.51387 0.0
H231 H 0.16542 0.89093 0.51103 0.0
H232 H 0.18112 0.96279 0.52708 0.0
H233 H 0.35809 0.89599 0.50968 0.0
H234 H 0.39647 0.07357 0.54487 0.0
H235 H 0.2827 0.91519 0.4592 0.0
H236 H 0.21811 0.86648 0.47921 0.0
H237 H 0.28728 0.85386 0.47684 0.0
H238 H 0.32803 0.12983 0.50359 0.0
H239 H 0.34429 0.13203 0.53487 0.0
H240 H 0.26271 0.08149 0.52341 0.0
C241 C 0.1278 0.14454 0.80998 0.0
C242 C 0.11553 0.15339 0.78639 0.0
C243 C 0.17153 0.19763 0.82402 0.0
C244 C 0.20484 0.26105 0.81408 0.0
C245 C 0.19081 0.27072 0.79051 0.0
C246 C 0.14576 0.21669 0.77697 0.0
C247 C 0.18413 0.18532 0.8492 0.0
C248 C 0.22588 0.33742 0.77922 0.0
C249 C 0.29464 0.4012 0.85787 0.0
C250 C 0.35667 0.40678 0.85831 0.0
C251 C 0.24504 0.35554 0.84291 0.0
C252 C 0.25833 0.31551 0.82779 0.0
C253 C 0.32194 0.32359 0.82729 0.0
C254 C 0.3701 0.36864 0.8427 0.0
C255 C 0.17765 0.3478 0.84417 0.0
C256 C 0.33852 0.28274 0.81114 0.0
H257 H 0.10405 0.09569 0.81737 0.0
H258 H 0.13652 0.2236 0.7587 0.0
H259 H 0.23468 0.19386 0.8508 0.0
H260 H 0.17987 0.21983 0.86148 0.0
H261 H 0.14967 0.13452 0.85495 0.0
H262 H 0.20477 0.33802 0.76168 0.0
H263 H 0.22397 0.37441 0.79086 0.0
H264 H 0.27817 0.35246 0.7768 0.0
H265 H 0.28397 0.43045 0.86997 0.0
H266 H 0.4182 0.37328 0.84278 0.0
H267 H 0.14336 0.29974 0.85212 0.0
H268 H 0.15915 0.34842 0.82616 0.0
H269 H 0.1769 0.38686 0.855 0.0
H270 H 0.31161 0.23091 0.81685 0.0
H271 H 0.39164 0.29942 0.8112 0.0
H272 H 0.32308 0.28447 0.79271 0.0
C273 C 0.84024 0.9156 0.67844 0.0
C274 C 0.85431 0.95639 0.69832 0.0
C275 C 0.79022 0.9056 0.66253 0.0
C276 C 0.75305 0.93673 0.66671 0.0
C277 C 0.76533 0.97584 0.68728 0.0
C278 C 0.81606 0.98549 0.70278 0.0
C279 C 0.77919 0.86414 0.6407 0.0
C280 C 0.7265 0.00954 0.69247 0.0
C281 C 0.68568 0.9876 0.61526 0.0
C282 C 0.61889 0.94127 0.61596 0.0
C283 C 0.72998 0.98483 0.63104 0.0
C284 C 0.70686 0.93499 0.64831 0.0
C285 C 0.63972 0.88638 0.64856 0.0
C286 C 0.59636 0.88977 0.63216 0.0
C287 C 0.80123 0.03691 0.62977 0.0
C288 C 0.61331 0.83272 0.6668 0.0
H289 H 0.86946 0.89271 0.67495 0.0
H290 H 0.82629 0.01654 0.71824 0.0
H291 H 0.72659 0.82754 0.63867 0.0
H292 H 0.79396 0.89566 0.62476 0.0
H293 H 0.80757 0.83811 0.64122 0.0
H294 H 0.73754 0.03271 0.7103 0.0
H295 H 0.7378 0.048 0.67906 0.0
H296 H 0.67336 0.97409 0.69128 0.0
H297 H 0.70325 0.02711 0.60253 0.0
H298 H 0.54464 0.85421 0.63279 0.0
H299 H 0.83246 0.01405 0.62886 0.0
H300 H 0.81528 0.06759 0.64602 0.0
H301 H 0.81192 0.06927 0.61418 0.0
H302 H 0.64285 0.80799 0.66718 0.0
H303 H 0.56143 0.79556 0.66334 0.0
H304 H 0.61691 0.85423 0.68462 0.0
C305 C 0.77747 0.86713 0.03475 0.0
C306 C 0.84162 0.89537 0.02627 0.0
C307 C 0.72456 0.82103 0.02104 0.0
C308 C 0.73626 0.80397 0.99821 0.0
C309 C 0.80067 0.83513 0.98915 0.0
C310 C 0.85259 0.87991 1.00338 0.0
C311 C 0.65674 0.78821 0.03143 0.0
C312 C 0.81518 0.8193 0.96474 0.0
C313 C 0.62862 0.63643 0.97107 0.0
C314 C 0.59293 0.64939 0.9542 0.0
C315 C 0.6728 0.68562 0.98638 0.0
C316 C 0.68261 0.74978 0.98446 0.0
C317 C 0.6451 0.76272 0.968 0.0
C318 C 0.60014 0.7121 0.9532 0.0
C319 C 0.71088 0.66943 1.00399 0.0
C320 C 0.65486 0.83067 0.96519 0.0
H321 H 0.76894 0.87881 0.0525 0.0
H322 H 0.90213 0.90211 0.99671 0.0
H323 H 0.62162 0.79007 0.01882 0.0
H324 H 0.64022 0.73585 0.03468 0.0
H325 H 0.65489 0.81116 0.04841 0.0
H326 H 0.86676 0.85229 0.95948 0.0
H327 H 0.80553 0.76818 0.96429 0.0
H328 H 0.78265 0.82314 0.95141 0.0
H329 H 0.6227 0.58783 0.97207 0.0
H330 H 0.57283 0.72239 0.94011 0.0
H331 H 0.70782 0.68709 0.02192 0.0
H332 H 0.76322 0.69467 0.99894 0.0
H333 H 0.69288 0.61605 0.00487 0.0
H334 H 0.65271 0.85122 0.98264 0.0
H335 H 0.61772 0.8314 0.95326 0.0
H336 H 0.70406 0.86333 0.95773 0.0
C337 C 0.07386 0.90776 0.34456 0.0
C338 C 0.02888 0.88474 0.36325 0.0
C339 C 0.0816 0.86442 0.32963 0.0
C340 C 0.04423 0.7963 0.3337 0.0
C341 C 0.99957 0.77276 0.35283 0.0
C342 C 0.99196 0.81728 0.36726 0.0
C343 C 0.12858 0.89149 0.30913 0.0
C344 C 0.95937 0.7005 0.35789 0.0
C345 C 0.00645 0.68003 0.28192 0.0
C346 C 0.05209 0.659 0.28501 0.0
C347 C 1.00439 0.72552 0.29737 0.0
C348 C 0.04808 0.74959 0.31682 0.0
C349 C 0.09489 0.72908 0.31995 0.0
C350 C 0.09694 0.68449 0.30375 0.0
C351 C 0.95501 0.74741 0.29293 0.0
C352 C 0.14157 0.75298 0.34069 0.0
H353 H 0.10257 0.95992 0.34137 0.0
H354 H 0.95768 0.79933 0.38184 0.0
H355 H 0.16441 0.87408 0.30996 0.0
H356 H 0.10138 0.87348 0.29219 0.0
H357 H 0.1557 0.94583 0.30891 0.0
H358 H 0.93054 0.69043 0.37443 0.0
H359 H 0.92515 0.6753 0.34298 0.0
H360 H 0.99165 0.67893 0.35945 0.0
H361 H 0.97215 0.66081 0.26725 0.0
H362 H 0.13189 0.66784 0.30621 0.0
H363 H 0.9801 0.80152 0.29168 0.0
H364 H 0.92044 0.73285 0.30797 0.0
H365 H 0.92651 0.72612 0.2764 0.0
H366 H 0.17098 0.80716 0.3406 0.0
H367 H 0.1753 0.73285 0.34053 0.0
H368 H 0.1136 0.73865 0.35749 0.0
C369 C 0.21507 0.99987 0.71197 0.0
C370 C 0.17118 0.01877 0.70338 0.0
C371 C 0.26953 0.01024 0.69855 0.0
C372 C 0.27955 0.03913 0.67587 0.0
C373 C 0.23601 0.05943 0.66735 0.0
C374 C 0.18266 0.04944 0.68128 0.0
C375 C 0.31532 0.98868 0.70837 0.0
C376 C 0.24424 0.08935 0.6431 0.0
C377 C 0.4406 0.10096 0.64288 0.0
C378 C 0.42601 0.04746 0.62808 0.0
C379 C 0.394 0.09862 0.65902 0.0
C380 C 0.33127 0.04193 0.66003 0.0
C381 C 0.3166 0.98785 0.6452 0.0
C382 C 0.36413 0.99113 0.62959 0.0
C383 C 0.41158 0.15686 0.67482 0.0
C384 C 0.25007 0.92682 0.64542 0.0
H385 H 0.20678 0.97679 0.72916 0.0
H386 H 0.14894 0.06429 0.67457 0.0
H387 H 0.31098 0.94695 0.69779 0.0
H388 H 0.36672 0.0289 0.70703 0.0
H389 H 0.30467 0.9733 0.72717 0.0
H390 H 0.20861 0.10623 0.6397 0.0
H391 H 0.29436 0.1315 0.6411 0.0
H392 H 0.23755 0.05277 0.62934 0.0
H393 H 0.4883 0.14453 0.64187 0.0
H394 H 0.35203 0.94957 0.61815 0.0
H395 H 0.40296 0.14139 0.69362 0.0
H396 H 0.37976 0.17778 0.67065 0.0
H397 H 0.46339 0.1958 0.67278 0.0
H398 H 0.23877 0.90563 0.66345 0.0
H399 H 0.24672 0.88887 0.63286 0.0
H400 H 0.21193 0.9393 0.64064 0.0
C401 C 0.15291 0.12622 1.00407 0.0
C402 C 0.16273 0.11275 0.02738 0.0
C403 C 0.20557 0.1696 0.99001 0.0
C404 C 0.26953 0.20138 0.99967 0.0
C405 C 0.28007 0.18629 0.02296 0.0
C406 C 0.22644 0.14155 0.0365 0.0
C407 C 0.19231 0.18332 0.96511 0.0
C408 C 0.34739 0.21983 0.03397 0.0
C409 C 0.40747 0.28874 0.95544 0.0
C410 C 0.41474 0.35152 0.95547 0.0
C411 C 0.36194 0.23962 0.97037 0.0
C412 C 0.32391 0.25421 0.98596 0.0
C413 C 0.33382 0.31857 0.98695 0.0
C414 C 0.37858 0.36621 0.97153 0.0
C415 C 0.35211 0.17138 0.96855 0.0
C416 C 0.29521 0.33652 1.00365 0.0
H417 H 0.10371 0.10356 0.99691 0.0
H418 H 0.23407 0.13138 0.05457 0.0
H419 H 0.20224 0.23445 0.96397 0.0
H420 H 0.22534 0.17814 0.95243 0.0
H421 H 0.14095 0.15003 0.95952 0.0
H422 H 0.34835 0.19832 0.05134 0.0
H423 H 0.38301 0.21678 0.022 0.0
H424 H 0.36394 0.27249 0.03666 0.0
H425 H 0.43516 0.27713 0.94298 0.0
H426 H 0.38458 0.41491 0.97179 0.0
H427 H 0.30328 0.13815 0.96076 0.0
H428 H 0.35327 0.15236 0.98637 0.0
H429 H 0.38978 0.1695 0.95734 0.0
H430 H 0.24309 0.31101 0.99814 0.0
H431 H 0.3134 0.39 1.00395 0.0
H432 H 0.2974 0.32041 0.02189 0.0
C433 C 0.95171 0.11551 0.34259 0.0
C434 C 0.9982 0.14233 0.36085 0.0
C435 C 0.93941 0.15565 0.32762 0.0
C436 C 0.97357 0.2242 0.33128 0.0
C437 C 0.01969 0.25143 0.35 0.0
C438 C 0.03193 0.21019 0.36442 0.0
C439 C 0.89103 0.12484 0.30754 0.0
C440 C 0.05659 0.32422 0.35465 0.0
C441 C 1.00284 0.33785 0.27976 0.0
C442 C 0.95593 0.35693 0.28352 0.0
C443 C 0.00757 0.29325 0.29476 0.0
C444 C 0.9652 0.26793 0.31439 0.0
C445 C 0.91665 0.28587 0.31805 0.0
C446 C 0.91204 0.32977 0.30233 0.0
C447 C 0.05894 0.27431 0.28982 0.0
C448 C 0.87119 0.26045 0.33898 0.0
H449 H 0.92542 0.063 0.33979 0.0
H450 H 0.06728 0.23103 0.37871 0.0
H451 H 0.85308 0.13944 0.30855 0.0
H452 H 0.91647 0.14266 0.29036 0.0
H453 H 0.86661 0.07058 0.30767 0.0
H454 H 0.08702 0.33712 0.37096 0.0
H455 H 0.08895 0.3498 0.33945 0.0
H456 H 0.02191 0.3429 0.35641 0.0
H457 H 0.03635 0.35825 0.26502 0.0
H458 H 0.87604 0.34481 0.3053 0.0
H459 H 0.03615 0.22028 0.28891 0.0
H460 H 0.09521 0.29165 0.30447 0.0
H461 H 0.08525 0.29526 0.27298 0.0
H462 H 0.84504 0.20621 0.33914 0.0
H463 H 0.83459 0.27703 0.33885 0.0
H464 H 0.89997 0.27752 0.35564 0.0
loop_
_geom_bond_atom_site_label_1
_geom_bond_atom_site_label_2
_geom_bond_distance
_geom_bond_site_symmetry_2
_ccdc_geom_bond_type
In0 O1 2.294 1_455 S
In0 O2 2.326 . S
In0 O6 2.266 1_445 S
In0 O7 2.326 1_445 S
In0 O8 2.266 1_545 S
In0 O9 2.326 1_445 S
In0 O11 2.294 . S
In0 O12 2.326 . S
O1 In0 2.294 1_655 S
O1 C10 1.240 1_655 S
O2 In0 2.326 . S
O2 C10 1.252 . S
C3 O6 1.252 . S
C3 O7 1.260 . S
C4 O11 1.240 . S
C4 O12 1.252 . S
C5 O8 1.252 1_655 S
C5 O9 1.260 . S
O6 In0 2.266 1_665 S
O6 C3 1.252 . S
O7 In0 2.326 1_665 S
O7 C3 1.260 . S
O8 In0 2.266 1_565 S
O8 C5 1.252 1_455 S
O9 In0 2.326 1_665 S
O9 C5 1.260 . S
C10 O1 1.240 1_455 S
C10 O2 1.252 . S
O11 In0 2.294 . S
O11 C4 1.240 . S
O12 In0 2.326 . S
O12 C4 1.252 . S
In13 O14 2.294 . S
In13 O15 2.326 1_455 S
In13 O19 2.266 . S
In13 O20 2.326 1_545 S
In13 O21 2.266 1_445 S
In13 O22 2.326 1_545 S
In13 O24 2.294 1_445 S
In13 O25 2.326 1_455 S
O14 In13 2.294 . S
O14 C23 1.240 1_455 S
O15 In13 2.326 1_655 S
O15 C23 1.252 . S
C16 O19 1.252 1_565 S
C16 O20 1.260 . S
C17 O24 1.240 1_545 S
C17 O25 1.252 . S
C18 O21 1.252 1_455 S
C18 O22 1.260 . S
O19 In13 2.266 . S
O19 C16 1.252 1_545 S
O20 In13 2.326 1_565 S
O20 C16 1.260 . S
O21 In13 2.266 1_665 S
O21 C18 1.252 1_655 S
O22 In13 2.326 1_565 S
O22 C18 1.260 . S
C23 O14 1.240 1_655 S
C23 O15 1.252 . S
O24 In13 2.294 1_665 S
O24 C17 1.240 1_565 S
O25 In13 2.326 1_655 S
O25 C17 1.252 . S
In26 O27 2.294 1_445 S
In26 O28 2.326 1_445 S
In26 O32 2.266 1_545 S
In26 O33 2.326 . S
In26 O34 2.266 . S
In26 O35 2.326 . S
In26 O37 2.294 1_455 S
In26 O38 2.326 1_445 S
O27 In26 2.294 1_665 S
O27 C36 1.240 . S
O28 In26 2.326 1_665 S
O28 C36 1.252 . S
C29 O32 1.252 1_545 S
C29 O33 1.260 . S
C30 O37 1.240 1_565 S
C30 O38 1.252 . S
C31 O34 1.252 . S
C31 O35 1.260 . S
O32 In26 2.266 1_565 S
O32 C29 1.252 1_565 S
O33 In26 2.326 . S
O33 C29 1.260 . S
O34 In26 2.266 . S
O34 C31 1.252 . S
O35 In26 2.326 . S
O35 C31 1.260 . S
C36 O27 1.240 . S
C36 O28 1.252 . S
O37 In26 2.294 1_655 S
O37 C30 1.240 1_545 S
O38 In26 2.326 1_665 S
O38 C30 1.252 . S
C39 O41 1.247 . S
C39 O43 1.258 1_455 S
C40 O47 1.247 1_455 S
C40 O48 1.258 . S
O41 C39 1.247 . S
O41 Zn42 2.028 . S
Zn42 O41 2.028 . S
Zn42 O46 2.035 . S
Zn42 O48 2.035 . S
Zn42 O49 2.028 . S
O43 C39 1.258 1_655 S
O43 Zn44 2.035 . S
Zn44 O43 2.035 . S
Zn44 O45 2.028 . S
Zn44 O47 2.028 . S
Zn44 O50 2.035 . S
O45 Zn44 2.028 . S
O45 C51 1.247 1_655 S
O46 Zn42 2.035 . S
O46 C51 1.258 . S
O47 C40 1.247 1_655 S
O47 Zn44 2.028 . S
O48 C40 1.258 . S
O48 Zn42 2.035 . S
O49 Zn42 2.028 . S
O49 C52 1.247 . S
O50 Zn44 2.035 . S
O50 C52 1.258 1_655 S
C51 O45 1.247 1_455 S
C51 O46 1.258 . S
C52 O49 1.247 . S
C52 O50 1.258 1_455 S
C53 O55 1.247 1_545 S
C53 O57 1.258 . S
C54 O61 1.247 . S
C54 O62 1.258 1_545 S
O55 C53 1.247 1_565 S
O55 Zn56 2.028 . S
Zn56 O55 2.028 . S
Zn56 O60 2.035 . S
Zn56 O62 2.035 . S
Zn56 O63 2.028 . S
O57 C53 1.258 . S
O57 Zn58 2.035 . S
Zn58 O57 2.035 . S
Zn58 O59 2.028 . S
Zn58 O61 2.028 . S
Zn58 O64 2.035 . S
O59 Zn58 2.028 . S
O59 C65 1.247 . S
O60 Zn56 2.035 . S
O60 C65 1.258 1_565 S
O61 C54 1.247 . S
O61 Zn58 2.028 . S
O62 C54 1.258 1_565 S
O62 Zn56 2.035 . S
O63 Zn56 2.028 . S
O63 C66 1.247 1_565 S
O64 Zn58 2.035 . S
O64 C66 1.258 . S
C65 O59 1.247 . S
C65 O60 1.258 1_545 S
C66 O63 1.247 1_545 S
C66 O64 1.258 . S
C67 O69 1.247 . S
C67 O71 1.258 . S
C68 O75 1.247 . S
C68 O76 1.258 . S
O69 C67 1.247 . S
O69 Zn70 2.028 . S
Zn70 O69 2.028 . S
Zn70 O74 2.035 . S
Zn70 O76 2.035 . S
Zn70 O77 2.028 . S
O71 C67 1.258 . S
O71 Zn72 2.035 . S
Zn72 O71 2.035 . S
Zn72 O73 2.028 . S
Zn72 O75 2.028 . S
Zn72 O78 2.035 . S
O73 Zn72 2.028 . S
O73 C79 1.247 . S
O74 Zn70 2.035 . S
O74 C79 1.258 . S
O75 C68 1.247 . S
O75 Zn72 2.028 . S
O76 C68 1.258 . S
O76 Zn70 2.035 . S
O77 Zn70 2.028 . S
O77 C80 1.247 . S
O78 Zn72 2.035 . S
O78 C80 1.258 . S
C79 O73 1.247 . S
C79 O74 1.258 . S
C80 O77 1.247 . S
C80 O78 1.258 . S
C81 C82 1.391 1_655 S
C81 C83 1.394 . S
C81 H97 0.931 . S
C82 C81 1.391 1_455 S
C82 C86 1.376 . S
C83 C81 1.394 . S
C83 C84 1.369 1_655 S
C83 C87 1.531 . S
C84 C83 1.369 1_455 S
C84 C85 1.410 . S
C84 C92 1.503 . S
C85 C84 1.410 . S
C85 C86 1.392 . S
C85 C88 1.511 . S
C86 C82 1.376 . S
C86 C85 1.392 . S
C86 H98 0.929 . S
C87 C83 1.531 . S
C87 H99 0.960 . S
C87 H100 0.962 . S
C87 H101 0.960 . S
C88 C85 1.511 . S
C88 H102 0.961 . S
C88 H103 0.961 . S
C88 H104 0.961 . S
C89 C90 1.370 . S
C89 C91 1.363 . S
C89 H105 0.931 . S
C90 C89 1.370 . S
C90 C94 1.408 1_455 S
C91 C89 1.363 . S
C91 C92 1.370 . S
C91 C95 1.524 . S
C92 C84 1.503 . S
C92 C91 1.370 . S
C92 C93 1.403 1_455 S
C93 C92 1.403 1_655 S
C93 C94 1.404 . S
C93 C96 1.539 . S
C94 C90 1.408 1_655 S
C94 C93 1.404 . S
C94 H106 0.930 . S
C95 C91 1.524 . S
C95 H107 0.948 1_455 S
C95 H108 0.961 . S
C95 H109 0.961 . S
C96 C93 1.539 . S
C96 H110 0.958 . S
C96 H111 0.961 . S
C96 H112 0.960 . S
H97 C81 0.931 . S
H98 C86 0.929 . S
H99 C87 0.960 . S
H100 C87 0.962 . S
H101 C87 0.960 . S
H102 C88 0.961 . S
H103 C88 0.961 . S
H104 C88 0.961 . S
H105 C89 0.931 . S
H106 C94 0.930 . S
H107 C95 0.948 1_655 S
H108 C95 0.961 . S
H109 C95 0.961 . S
H110 C96 0.958 . S
H111 C96 0.961 . S
H112 C96 0.960 . S
C113 C114 1.391 1_565 S
C113 C115 1.394 . S
C113 H129 0.931 . S
C114 C113 1.391 1_545 S
C114 C118 1.376 . S
C115 C113 1.394 . S
C115 C116 1.369 1_565 S
C115 C119 1.531 . S
C116 C115 1.369 1_545 S
C116 C117 1.410 . S
C116 C124 1.503 . S
C117 C116 1.410 . S
C117 C118 1.392 . S
C117 C120 1.511 . S
C118 C114 1.376 . S
C118 C117 1.392 . S
C118 H130 0.929 . S
C119 C115 1.531 . S
C119 H131 0.960 . S
C119 H132 0.962 . S
C119 H133 0.960 . S
C120 C117 1.511 . S
C120 H134 0.961 . S
C120 H135 0.961 . S
C120 H136 0.961 . S
C121 C122 1.370 1_565 S
C121 C123 1.363 . S
C121 H137 0.931 . S
C122 C121 1.370 1_545 S
C122 C126 1.408 . S
C123 C121 1.363 . S
C123 C124 1.370 1_565 S
C123 C127 1.524 . S
C124 C116 1.503 . S
C124 C123 1.370 1_545 S
C124 C125 1.403 . S
C125 C124 1.403 . S
C125 C126 1.404 . S
C125 C128 1.539 . S
C126 C122 1.408 . S
C126 C125 1.404 . S
C126 H138 0.930 . S
C127 C123 1.524 . S
C127 H139 0.956 . S
C127 H140 0.961 . S
C127 H141 0.961 . S
C128 C125 1.539 . S
C128 H142 0.958 . S
C128 H143 0.961 . S
C128 H144 0.960 . S
H129 C113 0.931 . S
H130 C118 0.929 . S
H131 C119 0.960 . S
H132 C119 0.962 . S
H133 C119 0.960 . S
H134 C120 0.961 . S
H135 C120 0.961 . S
H136 C120 0.961 . S
H137 C121 0.931 . S
H138 C126 0.930 . S
H139 C127 0.956 . S
H140 C127 0.961 . S
H141 C127 0.961 . S
H142 C128 0.958 . S
H143 C128 0.961 . S
H144 C128 0.960 . S
C145 C146 1.391 . S
C145 C147 1.394 . S
C145 H161 0.931 . S
C146 C145 1.391 . S
C146 C150 1.376 . S
C147 C145 1.394 . S
C147 C148 1.369 . S
C147 C151 1.531 . S
C148 C147 1.369 . S
C148 C149 1.410 . S
C148 C156 1.503 . S
C149 C148 1.410 . S
C149 C150 1.392 . S
C149 C152 1.511 . S
C150 C146 1.376 . S
C150 C149 1.392 . S
C150 H162 0.929 . S
C151 C147 1.531 . S
C151 H163 0.960 . S
C151 H164 0.962 . S
C151 H165 0.960 . S
C152 C149 1.511 . S
C152 H166 0.961 . S
C152 H167 0.961 . S
C152 H168 0.961 . S
C153 C154 1.370 . S
C153 C155 1.363 . S
C153 H169 0.931 . S
C154 C153 1.370 . S
C154 C158 1.408 . S
C155 C153 1.363 . S
C155 C156 1.370 . S
C155 C159 1.524 . S
C156 C148 1.503 . S
C156 C155 1.370 . S
C156 C157 1.403 . S
C157 C156 1.403 . S
C157 C158 1.404 . S
C157 C160 1.539 . S
C158 C154 1.408 . S
C158 C157 1.404 . S
C158 H170 0.930 . S
C159 C155 1.524 . S
C159 H171 0.956 . S
C159 H172 0.961 . S
C159 H173 0.961 . S
C160 C157 1.539 . S
C160 H174 0.958 . S
C160 H175 0.961 . S
C160 H176 0.960 . S
H161 C145 0.931 . S
H162 C150 0.929 . S
H163 C151 0.960 . S
H164 C151 0.962 . S
H165 C151 0.960 . S
H166 C152 0.961 . S
H167 C152 0.961 . S
H168 C152 0.961 . S
H169 C153 0.931 . S
H170 C158 0.930 . S
H171 C159 0.956 . S
H172 C159 0.961 . S
H173 C159 0.961 . S
H174 C160 0.958 . S
H175 C160 0.961 . S
H176 C160 0.960 . S
C177 C178 1.391 1_655 S
C177 C179 1.394 . S
C177 H193 0.931 . S
C178 C177 1.391 1_455 S
C178 C182 1.375 . S
C179 C177 1.394 . S
C179 C180 1.369 1_655 S
C179 C183 1.531 . S
C180 C179 1.369 1_455 S
C180 C181 1.410 . S
C180 C188 1.503 . S
C181 C180 1.410 . S
C181 C182 1.392 . S
C181 C184 1.511 . S
C182 C178 1.375 . S
C182 C181 1.392 . S
C182 H194 0.929 . S
C183 C179 1.531 . S
C183 H195 0.960 . S
C183 H196 0.962 . S
C183 H197 0.960 . S
C184 C181 1.511 . S
C184 H198 0.961 . S
C184 H199 0.961 . S
C184 H200 0.961 . S
C185 C186 1.370 1_655 S
C185 C187 1.363 . S
C185 H201 0.931 . S
C186 C185 1.370 1_455 S
C186 C190 1.408 . S
C187 C185 1.363 . S
C187 C188 1.370 1_655 S
C187 C191 1.524 . S
C188 C180 1.503 . S
C188 C187 1.370 1_455 S
C188 C189 1.403 . S
C189 C188 1.403 . S
C189 C190 1.404 . S
C189 C192 1.539 . S
C190 C186 1.408 . S
C190 C189 1.404 . S
C190 H202 0.930 . S
C191 C187 1.524 . S
C191 H203 0.956 . S
C191 H204 0.961 1_655 S
C191 H205 0.961 . S
C192 C189 1.539 . S
C192 H206 0.958 1_455 S
C192 H207 0.961 . S
C192 H208 0.960 . S
H193 C177 0.931 . S
H194 C182 0.929 . S
H195 C183 0.960 . S
H196 C183 0.962 . S
H197 C183 0.960 . S
H198 C184 0.961 . S
H199 C184 0.961 . S
H200 C184 0.961 . S
H201 C185 0.931 . S
H202 C190 0.930 . S
H203 C191 0.956 . S
H204 C191 0.961 1_455 S
H205 C191 0.961 . S
H206 C192 0.958 1_655 S
H207 C192 0.961 . S
H208 C192 0.960 . S
C209 C210 1.391 . S
C209 C211 1.394 . S
C209 H225 0.931 . S
C210 C209 1.391 . S
C210 C214 1.376 1_545 S
C211 C209 1.394 . S
C211 C212 1.369 . S
C211 C215 1.531 . S
C212 C211 1.369 . S
C212 C213 1.410 1_545 S
C212 C220 1.503 . S
C213 C212 1.410 1_565 S
C213 C214 1.392 . S
C213 C216 1.511 . S
C214 C210 1.376 1_565 S
C214 C213 1.392 . S
C214 H226 0.929 . S
C215 C211 1.531 . S
C215 H227 0.960 . S
C215 H228 0.962 . S
C215 H229 0.960 . S
C216 C213 1.511 . S
C216 H230 0.961 . S
C216 H231 0.961 . S
C216 H232 0.961 . S
C217 C218 1.370 1_565 S
C217 C219 1.363 . S
C217 H233 0.931 . S
C218 C217 1.370 1_545 S
C218 C222 1.408 . S
C219 C217 1.363 . S
C219 C220 1.370 1_565 S
C219 C223 1.524 . S
C220 C212 1.503 . S
C220 C219 1.370 1_545 S
C220 C221 1.403 . S
C221 C220 1.403 . S
C221 C222 1.404 . S
C221 C224 1.539 . S
C222 C218 1.408 . S
C222 C221 1.404 . S
C222 H234 0.930 . S
C223 C219 1.524 . S
C223 H235 0.956 . S
C223 H236 0.961 . S
C223 H237 0.961 . S
C224 C221 1.539 . S
C224 H238 0.958 . S
C224 H239 0.961 . S
C224 H240 0.960 . S
H225 C209 0.931 . S
H226 C214 0.929 . S
H227 C215 0.960 . S
H228 C215 0.962 . S
H229 C215 0.960 . S
H230 C216 0.961 . S
H231 C216 0.961 . S
H232 C216 0.961 . S
H233 C217 0.931 . S
H234 C222 0.930 . S
H235 C223 0.956 . S
H236 C223 0.961 . S
H237 C223 0.961 . S
H238 C224 0.958 . S
H239 C224 0.961 . S
H240 C224 0.960 . S
C241 C242 1.391 . S
C241 C243 1.394 . S
C241 H257 0.931 . S
C242 C241 1.391 . S
C242 C246 1.376 . S
C243 C241 1.394 . S
C243 C244 1.369 . S
C243 C247 1.531 . S
C244 C243 1.369 . S
C244 C245 1.410 . S
C244 C252 1.503 . S
C245 C244 1.410 . S
C245 C246 1.392 . S
C245 C248 1.511 . S
C246 C242 1.376 . S
C246 C245 1.392 . S
C246 H258 0.929 . S
C247 C243 1.531 . S
C247 H259 0.960 . S
C247 H260 0.962 . S
C247 H261 0.960 . S
C248 C245 1.511 . S
C248 H262 0.961 . S
C248 H263 0.961 . S
C248 H264 0.961 . S
C249 C250 1.370 . S
C249 C251 1.363 . S
C249 H265 0.931 . S
C250 C249 1.370 . S
C250 C254 1.408 . S
C251 C249 1.363 . S
C251 C252 1.370 . S
C251 C255 1.524 . S
C252 C244 1.503 . S
C252 C251 1.370 . S
C252 C253 1.403 . S
C253 C252 1.403 . S
C253 C254 1.404 . S
C253 C256 1.539 . S
C254 C250 1.408 . S
C254 C253 1.404 . S
C254 H266 0.930 . S
C255 C251 1.524 . S
C255 H267 0.956 . S
C255 H268 0.961 . S
C255 H269 0.961 . S
C256 C253 1.539 . S
C256 H270 0.958 . S
C256 H271 0.961 . S
C256 H272 0.960 . S
H257 C241 0.931 . S
H258 C246 0.929 . S
H259 C247 0.960 . S
H260 C247 0.962 . S
H261 C247 0.960 . S
H262 C248 0.961 . S
H263 C248 0.961 . S
H264 C248 0.961 . S
H265 C249 0.931 . S
H266 C254 0.930 . S
H267 C255 0.956 . S
H268 C255 0.961 . S
H269 C255 0.961 . S
H270 C256 0.958 . S
H271 C256 0.961 . S
H272 C256 0.960 . S
C273 C274 1.391 . S
C273 C275 1.394 . S
C273 H289 0.931 . S
C274 C273 1.391 . S
C274 C278 1.376 1_565 S
C275 C273 1.394 . S
C275 C276 1.369 . S
C275 C279 1.531 . S
C276 C275 1.369 . S
C276 C277 1.410 1_565 S
C276 C284 1.503 . S
C277 C276 1.410 1_545 S
C277 C278 1.392 . S
C277 C280 1.511 . S
C278 C274 1.376 1_545 S
C278 C277 1.392 . S
C278 H290 0.929 . S
C279 C275 1.531 . S
C279 H291 0.960 . S
C279 H292 0.962 . S
C279 H293 0.960 . S
C280 C277 1.511 . S
C280 H294 0.961 . S
C280 H295 0.961 . S
C280 H296 0.961 . S
C281 C282 1.371 . S
C281 C283 1.363 . S
C281 H297 0.931 . S
C282 C281 1.371 . S
C282 C286 1.403 1_545 S
C283 C281 1.363 . S
C283 C284 1.370 1_545 S
C283 C287 1.524 . S
C284 C276 1.503 . S
C284 C283 1.370 1_565 S
C284 C285 1.403 . S
C285 C284 1.403 . S
C285 C286 1.404 . S
C285 C288 1.539 . S
C286 C282 1.403 1_565 S
C286 C285 1.404 . S
C286 H298 0.930 . S
C287 C283 1.524 . S
C287 H299 0.956 . S
C287 H300 0.961 . S
C287 H301 0.961 . S
C288 C285 1.539 . S
C288 H302 0.958 . S
C288 H303 0.961 . S
C288 H304 0.960 . S
H289 C273 0.931 . S
H290 C278 0.929 . S
H291 C279 0.960 . S
H292 C279 0.962 . S
H293 C279 0.960 . S
H294 C280 0.961 . S
H295 C280 0.961 . S
H296 C280 0.961 . S
H297 C281 0.931 . S
H298 C286 0.930 . S
H299 C287 0.956 . S
H300 C287 0.961 . S
H301 C287 0.961 . S
H302 C288 0.958 . S
H303 C288 0.961 . S
H304 C288 0.960 . S
C305 C306 1.391 . S
C305 C307 1.394 . S
C305 H321 0.931 . S
C306 C305 1.391 . S
C306 C310 1.376 . S
C307 C305 1.394 . S
C307 C308 1.369 1_554 S
C307 C311 1.531 . S
C308 C307 1.369 1_556 S
C308 C309 1.410 . S
C308 C316 1.503 . S
C309 C308 1.410 . S
C309 C310 1.392 1_556 S
C309 C312 1.511 . S
C310 C306 1.376 . S
C310 C309 1.392 1_554 S
C310 H322 0.929 . S
C311 C307 1.531 . S
C311 H323 0.960 . S
C311 H324 0.962 . S
C311 H325 0.960 . S
C312 C309 1.511 . S
C312 H326 0.961 . S
C312 H327 0.961 . S
C312 H328 0.961 . S
C313 C314 1.370 . S
C313 C315 1.363 . S
C313 H329 0.931 . S
C314 C313 1.370 . S
C314 C318 1.408 . S
C315 C313 1.363 . S
C315 C316 1.370 . S
C315 C319 1.524 1_556 S
C316 C308 1.503 . S
C316 C315 1.370 . S
C316 C317 1.403 . S
C317 C316 1.403 . S
C317 C318 1.404 . S
C317 C320 1.539 . S
C318 C314 1.408 . S
C318 C317 1.404 . S
C318 H330 0.930 . S
C319 C315 1.524 1_554 S
C319 H331 0.956 . S
C319 H332 0.961 . S
C319 H333 0.961 . S
C320 C317 1.539 . S
C320 H334 0.958 . S
C320 H335 0.961 . S
C320 H336 0.960 . S
H321 C305 0.931 . S
H322 C310 0.929 . S
H323 C311 0.960 . S
H324 C311 0.962 . S
H325 C311 0.960 . S
H326 C312 0.961 . S
H327 C312 0.961 . S
H328 C312 0.961 . S
H329 C313 0.931 . S
H330 C318 0.930 . S
H331 C319 0.956 . S
H332 C319 0.961 . S
H333 C319 0.961 . S
H334 C320 0.958 . S
H335 C320 0.961 . S
H336 C320 0.960 . S
C337 C338 1.391 . S
C337 C339 1.394 . S
C337 H353 0.931 . S
C338 C337 1.391 . S
C338 C342 1.376 1_455 S
C339 C337 1.394 . S
C339 C340 1.369 . S
C339 C343 1.531 . S
C340 C339 1.369 . S
C340 C341 1.410 1_455 S
C340 C348 1.503 . S
C341 C340 1.410 1_655 S
C341 C342 1.392 . S
C341 C344 1.511 . S
C342 C338 1.376 1_655 S
C342 C341 1.392 . S
C342 H354 0.929 . S
C343 C339 1.531 . S
C343 H355 0.960 . S
C343 H356 0.962 . S
C343 H357 0.960 . S
C344 C341 1.511 . S
C344 H358 0.961 . S
C344 H359 0.961 . S
C344 H360 0.961 . S
C345 C346 1.370 . S
C345 C347 1.363 . S
C345 H361 0.931 . S
C346 C345 1.370 . S
C346 C350 1.408 1_455 S
C347 C345 1.363 . S
C347 C348 1.370 . S
C347 C351 1.524 . S
C348 C340 1.503 . S
C348 C347 1.370 . S
C348 C349 1.403 . S
C349 C348 1.403 . S
C349 C350 1.403 1_455 S
C349 C352 1.539 1_455 S
C350 C346 1.408 1_655 S
C350 C349 1.403 1_655 S
C350 H362 0.930 . S
C351 C347 1.524 . S
C351 H363 0.956 . S
C351 H364 0.961 1_455 S
C351 H365 0.961 . S
C352 C349 1.539 1_655 S
C352 H366 0.958 1_655 S
C352 H367 0.961 . S
C352 H368 0.960 . S
H353 C337 0.931 . S
H354 C342 0.929 . S
H355 C343 0.960 . S
H356 C343 0.962 . S
H357 C343 0.960 . S
H358 C344 0.961 . S
H359 C344 0.961 . S
H360 C344 0.961 . S
H361 C345 0.931 . S
H362 C350 0.930 . S
H363 C351 0.956 . S
H364 C351 0.961 1_655 S
H365 C351 0.961 . S
H366 C352 0.958 1_455 S
H367 C352 0.961 . S
H368 C352 0.960 . S
C369 C370 1.391 . S
C369 C371 1.394 . S
C369 H385 0.931 . S
C370 C369 1.391 . S
C370 C374 1.376 1_545 S
C371 C369 1.394 . S
C371 C372 1.369 1_545 S
C371 C375 1.531 . S
C372 C371 1.369 1_565 S
C372 C373 1.410 . S
C372 C380 1.503 . S
C373 C372 1.410 . S
C373 C374 1.392 . S
C373 C376 1.511 . S
C374 C370 1.376 1_565 S
C374 C373 1.392 . S
C374 H386 0.929 . S
C375 C371 1.531 . S
C375 H387 0.960 . S
C375 H388 0.962 . S
C375 H389 0.960 . S
C376 C373 1.511 . S
C376 H390 0.961 . S
C376 H391 0.961 . S
C376 H392 0.961 . S
C377 C378 1.388 . S
C377 C379 1.363 . S
C377 H393 0.931 . S
C378 C377 1.388 . S
C378 C382 1.397 1_545 S
C379 C377 1.363 . S
C379 C380 1.370 1_545 S
C379 C383 1.524 . S
C380 C372 1.503 . S
C380 C379 1.370 1_565 S
C380 C381 1.403 . S
C381 C380 1.403 . S
C381 C382 1.404 . S
C381 C384 1.539 . S
C382 C378 1.397 1_565 S
C382 C381 1.404 . S
C382 H394 0.930 . S
C383 C379 1.524 . S
C383 H395 0.956 . S
C383 H396 0.961 . S
C383 H397 0.961 . S
C384 C381 1.539 . S
C384 H398 0.958 . S
C384 H399 0.961 . S
C384 H400 0.960 . S
H385 C369 0.931 . S
H386 C374 0.929 . S
H387 C375 0.960 . S
H388 C375 0.962 . S
H389 C375 0.960 . S
H390 C376 0.961 . S
H391 C376 0.961 . S
H392 C376 0.961 . S
H393 C377 0.931 . S
H394 C382 0.930 . S
H395 C383 0.956 . S
H396 C383 0.961 . S
H397 C383 0.961 . S
H398 C384 0.958 . S
H399 C384 0.961 . S
H400 C384 0.960 . S
C401 C402 1.391 . S
C401 C403 1.394 . S
C401 H417 0.931 . S
C402 C401 1.391 . S
C402 C406 1.376 . S
C403 C401 1.394 . S
C403 C404 1.361 1_554 S
C403 C407 1.531 1_554 S
C404 C403 1.361 1_556 S
C404 C405 1.397 1_556 S
C404 C412 1.527 . S
C405 C404 1.397 1_554 S
C405 C406 1.392 . S
C405 C408 1.511 . S
C406 C402 1.376 . S
C406 C405 1.392 . S
C406 H418 0.929 . S
C407 C403 1.531 1_556 S
C407 H419 0.960 . S
C407 H420 0.962 . S
C407 H421 0.960 1_556 S
C408 C405 1.511 . S
C408 H422 0.961 . S
C408 H423 0.961 1_554 S
C408 H424 0.961 . S
C409 C410 1.370 . S
C409 C411 1.363 . S
C409 H425 0.931 . S
C410 C409 1.370 . S
C410 C414 1.408 . S
C411 C409 1.363 . S
C411 C412 1.370 . S
C411 C415 1.524 . S
C412 C404 1.527 . S
C412 C411 1.370 . S
C412 C413 1.403 . S
C413 C412 1.403 . S
C413 C414 1.404 . S
C413 C416 1.539 1_556 S
C414 C410 1.408 . S
C414 C413 1.404 . S
C414 H426 0.930 . S
C415 C411 1.524 . S
C415 H427 0.956 . S
C415 H428 0.961 . S
C415 H429 0.961 . S
C416 C413 1.539 1_554 S
C416 H430 0.958 . S
C416 H431 0.961 . S
C416 H432 0.960 . S
H417 C401 0.931 . S
H418 C406 0.929 . S
H419 C407 0.960 . S
H420 C407 0.962 . S
H421 C407 0.960 1_554 S
H422 C408 0.961 . S
H423 C408 0.961 1_556 S
H424 C408 0.961 . S
H425 C409 0.931 . S
H426 C414 0.930 . S
H427 C415 0.956 . S
H428 C415 0.961 . S
H429 C415 0.961 . S
H430 C416 0.958 . S
H431 C416 0.961 . S
H432 C416 0.960 . S
C433 C434 1.391 . S
C433 C435 1.394 . S
C433 H449 0.931 . S
C434 C433 1.391 . S
C434 C438 1.376 1_655 S
C435 C433 1.394 . S
C435 C436 1.369 . S
C435 C439 1.531 . S
C436 C435 1.369 . S
C436 C437 1.410 1_655 S
C436 C444 1.500 . S
C437 C436 1.410 1_455 S
C437 C438 1.392 . S
C437 C440 1.511 . S
C438 C434 1.376 1_455 S
C438 C437 1.392 . S
C438 H450 0.929 . S
C439 C435 1.531 . S
C439 H451 0.960 . S
C439 H452 0.962 . S
C439 H453 0.960 . S
C440 C437 1.511 . S
C440 H454 0.961 . S
C440 H455 0.961 . S
C440 H456 0.961 . S
C441 C442 1.370 . S
C441 C443 1.363 . S
C441 H457 0.931 . S
C442 C441 1.370 . S
C442 C446 1.408 1_455 S
C443 C441 1.363 . S
C443 C444 1.369 1_455 S
C443 C447 1.524 . S
C444 C436 1.500 . S
C444 C443 1.369 1_655 S
C444 C445 1.407 . S
C445 C444 1.407 . S
C445 C446 1.404 . S
C445 C448 1.539 . S
C446 C442 1.408 1_655 S
C446 C445 1.404 . S
C446 H458 0.930 . S
C447 C443 1.524 . S
C447 H459 0.956 1_455 S
C447 H460 0.961 . S
C447 H461 0.961 . S
C448 C445 1.539 . S
C448 H462 0.958 . S
C448 H463 0.961 1_655 S
C448 H464 0.960 1_655 S
H449 C433 0.931 . S
H450 C438 0.929 . S
H451 C439 0.960 . S
H452 C439 0.962 . S
H453 C439 0.960 . S
H454 C440 0.961 . S
H455 C440 0.961 . S
H456 C440 0.961 . S
H457 C441 0.931 . S
H458 C446 0.930 . S
H459 C447 0.956 1_655 S
H460 C447 0.961 . S
H461 C447 0.961 . S
H462 C448 0.958 . S
H463 C448 0.961 1_455 S
H464 C448 0.960 1_455 S
C90 C40 1.497 . S
C82 C10 1.492 . S
C114 C17 1.493 . S
C122 C66 1.497 . S
C146 C36 1.492 . S
C154 C68 1.497 . S
C178 C5 1.497 1_455 S
C186 C52 1.497 . S
C218 C54 1.499 . S
C210 C16 1.491 1_545 S
C242 C31 1.495 . S
C250 C80 1.497 . S
C282 C53 1.499 . S
C274 C30 1.493 . S
C306 C3 1.492 . S
C314 C79 1.499 . S
C346 C39 1.497 . S
C338 C18 1.497 . S
C378 C65 1.491 . S
C370 C29 1.495 . S
C410 C67 1.495 . S
C402 C4 1.493 . S
C434 C23 1.493 . S
C442 C51 1.495 . S
