# Generated by pormake.
# Topology ocu, (6,8)-cn, num edge types: 1
# Building blocks:
#     Node 0, Type 0, BuildingBlock: JUFBIX_clean_sbu_0, # of connection points: 6
#     Node 1, Type 0, BuildingBlock: JUFBIX_clean_sbu_0, # of connection points: 6
#     Node 2, Type 0, BuildingBlock: JUFBIX_clean_sbu_0, # of connection points: 6
#     Node 3, Type 0, BuildingBlock: JUFBIX_clean_sbu_0, # of connection points: 6
#     Node 4, Type 0, BuildingBlock: JUFBIX_clean_sbu_0, # of connection points: 6
#     Node 5, Type 0, BuildingBlock: JUFBIX_clean_sbu_0, # of connection points: 6
#     Node 6, Type 0, BuildingBlock: JUFBIX_clean_sbu_0, # of connection points: 6
#     Node 7, Type 0, BuildingBlock: JUFBIX_clean_sbu_0, # of connection points: 6
#     Node 8, Type 1, BuildingBlock: GIZVER_clean_sbu_0, # of connection points: 8
#     Node 9, Type 1, BuildingBlock: GIZVER_clean_sbu_0, # of connection points: 8
#     Node 10, Type 1, BuildingBlock: GIZVER_clean_sbu_0, # of connection points: 8
#     Node 11, Type 1, BuildingBlock: GIZVER_clean_sbu_0, # of connection points: 8
#     Node 12, Type 1, BuildingBlock: GIZVER_clean_sbu_0, # of connection points: 8
#     Node 13, Type 1, BuildingBlock: GIZVER_clean_sbu_0, # of connection points: 8
#     Edge 14, Type (0, 1), BuildingBlock: CIFDUS_clean_linker_0, # of connection points: 2
#     Edge 15, Type (0, 1), BuildingBlock: CIFDUS_clean_linker_0, # of connection points: 2
#     Edge 16, Type (0, 1), BuildingBlock: CIFDUS_clean_linker_0, # of connection points: 2
#     Edge 17, Type (0, 1), BuildingBlock: CIFDUS_clean_linker_0, # of connection points: 2
#     Edge 18, Type (0, 1), BuildingBlock: CIFDUS_clean_linker_0, # of connection points: 2
#     Edge 19, Type (0, 1), BuildingBlock: CIFDUS_clean_linker_0, # of connection points: 2
#     Edge 20, Type (0, 1), BuildingBlock: CIFDUS_clean_linker_0, # of connection points: 2
#     Edge 21, Type (0, 1), BuildingBlock: CIFDUS_clean_linker_0, # of connection points: 2
#     Edge 22, Type (0, 1), BuildingBlock: CIFDUS_clean_linker_0, # of connection points: 2
#     Edge 23, Type (0, 1), BuildingBlock: CIFDUS_clean_linker_0, # of connection points: 2
#     Edge 24, Type (0, 1), BuildingBlock: CIFDUS_clean_linker_0, # of connection points: 2
#     Edge 25, Type (0, 1), BuildingBlock: CIFDUS_clean_linker_0, # of connection points: 2
#     Edge 26, Type (0, 1), BuildingBlock: CIFDUS_clean_linker_0, # of connection points: 2
#     Edge 27, Type (0, 1), BuildingBlock: CIFDUS_clean_linker_0, # of connection points: 2
#     Edge 28, Type (0, 1), BuildingBlock: CIFDUS_clean_linker_0, # of connection points: 2
#     Edge 29, Type (0, 1), BuildingBlock: CIFDUS_clean_linker_0, # of connection points: 2
#     Edge 30, Type (0, 1), BuildingBlock: CIFDUS_clean_linker_0, # of connection points: 2
#     Edge 31, Type (0, 1), BuildingBlock: CIFDUS_clean_linker_0, # of connection points: 2
#     Edge 32, Type (0, 1), BuildingBlock: CIFDUS_clean_linker_0, # of connection points: 2
#     Edge 33, Type (0, 1), BuildingBlock: CIFDUS_clean_linker_0, # of connection points: 2
#     Edge 34, Type (0, 1), BuildingBlock: CIFDUS_clean_linker_0, # of connection points: 2
#     Edge 35, Type (0, 1), BuildingBlock: CIFDUS_clean_linker_0, # of connection points: 2
#     Edge 36, Type (0, 1), BuildingBlock: CIFDUS_clean_linker_0, # of connection points: 2
#     Edge 37, Type (0, 1), BuildingBlock: CIFDUS_clean_linker_0, # of connection points: 2
#     Edge 38, Type (0, 1), BuildingBlock: CIFDUS_clean_linker_0, # of connection points: 2
#     Edge 39, Type (0, 1), BuildingBlock: CIFDUS_clean_linker_0, # of connection points: 2
#     Edge 40, Type (0, 1), BuildingBlock: CIFDUS_clean_linker_0, # of connection points: 2
#     Edge 41, Type (0, 1), BuildingBlock: CIFDUS_clean_linker_0, # of connection points: 2
#     Edge 42, Type (0, 1), BuildingBlock: CIFDUS_clean_linker_0, # of connection points: 2
#     Edge 43, Type (0, 1), BuildingBlock: CIFDUS_clean_linker_0, # of connection points: 2
#     Edge 44, Type (0, 1), BuildingBlock: CIFDUS_clean_linker_0, # of connection points: 2
#     Edge 45, Type (0, 1), BuildingBlock: CIFDUS_clean_linker_0, # of connection points: 2
#     Edge 46, Type (0, 1), BuildingBlock: CIFDUS_clean_linker_0, # of connection points: 2
#     Edge 47, Type (0, 1), BuildingBlock: CIFDUS_clean_linker_0, # of connection points: 2
#     Edge 48, Type (0, 1), BuildingBlock: CIFDUS_clean_linker_0, # of connection points: 2
#     Edge 49, Type (0, 1), BuildingBlock: CIFDUS_clean_linker_0, # of connection points: 2
#     Edge 50, Type (0, 1), BuildingBlock: CIFDUS_clean_linker_0, # of connection points: 2
#     Edge 51, Type (0, 1), BuildingBlock: CIFDUS_clean_linker_0, # of connection points: 2
#     Edge 52, Type (0, 1), BuildingBlock: CIFDUS_clean_linker_0, # of connection points: 2
#     Edge 53, Type (0, 1), BuildingBlock: CIFDUS_clean_linker_0, # of connection points: 2
#     Edge 54, Type (0, 1), BuildingBlock: CIFDUS_clean_linker_0, # of connection points: 2
#     Edge 55, Type (0, 1), BuildingBlock: CIFDUS_clean_linker_0, # of connection points: 2
#     Edge 56, Type (0, 1), BuildingBlock: CIFDUS_clean_linker_0, # of connection points: 2
#     Edge 57, Type (0, 1), BuildingBlock: CIFDUS_clean_linker_0, # of connection points: 2
#     Edge 58, Type (0, 1), BuildingBlock: CIFDUS_clean_linker_0, # of connection points: 2
#     Edge 59, Type (0, 1), BuildingBlock: CIFDUS_clean_linker_0, # of connection points: 2
#     Edge 60, Type (0, 1), BuildingBlock: CIFDUS_clean_linker_0, # of connection points: 2
#     Edge 61, Type (0, 1), BuildingBlock: CIFDUS_clean_linker_0, # of connection points: 2
# Relax obj value: 0.273
# Max RMSD: 0.330
# Mean RMSD: 0.220
data_MOF--net-ocu--node1-JUFBIX_clean_sbu_0--node2-GIZVER_clean_sbu_0--edge1-CIFDUS_clean_linker_0
_symmetry_space_group_name_H-M    P1
_symmetry_Int_Tables_number       1
_symmetry_cell_setting            triclinic
loop_
_symmetry_equiv_pos_as_xyz
'x, y, z'
_cell_length_a     35.873393
_cell_length_b     37.550322
_cell_length_c     27.434278
_cell_angle_alpha  92.864128
_cell_angle_beta   94.266786
_cell_angle_gamma 101.26726
loop_
_atom_site_label
_atom_site_type_symbol
_atom_site_fract_x
_atom_site_fract_y
_atom_site_fract_z
_atom_type_partial_charge
Co0 Co 0.25401 0.26637 0.26444 0.0
C1 C 0.24637 0.32308 0.33195 0.0
Co2 Co 0.30643 0.30746 0.27949 0.0
C3 C 0.20845 0.19483 0.2654 0.0
C4 C 0.17516 0.23313 0.24137 0.0
N5 N 0.21114 0.22988 0.25495 0.0
N6 N 0.17209 0.17619 0.26041 0.0
C7 C 0.1511 0.20019 0.24471 0.0
H8 H 0.23252 0.18366 0.27898 0.0
H9 H 0.16663 0.25832 0.23269 0.0
C10 C 0.31391 0.25142 0.21132 0.0
N11 N 0.34848 0.34447 0.28958 0.0
C12 C 0.36274 0.36646 0.25544 0.0
C13 C 0.36684 0.35985 0.3325 0.0
N14 N 0.38843 0.39551 0.27523 0.0
C15 C 0.39175 0.39131 0.3237 0.0
C16 C 0.30794 0.25091 0.33906 0.0
O17 O 0.27918 0.23998 0.2192 0.0
O18 O 0.33131 0.28185 0.23237 0.0
O19 O 0.32745 0.28139 0.32956 0.0
O20 O 0.27446 0.2409 0.3175 0.0
O21 O 0.28171 0.33299 0.32642 0.0
H22 H 0.36094 0.34997 0.36806 0.0
H23 H 0.35351 0.36185 0.21679 0.0
O24 O 0.22844 0.29339 0.30957 0.0
O25 O 0.23426 0.29149 0.21189 0.0
O26 O 0.28535 0.33368 0.22857 0.0
C27 C 0.25334 0.32254 0.20394 0.0
H28 H 0.12025 0.19531 0.24023 0.0
H29 H 0.40943 0.41041 0.35089 0.0
Co30 Co 0.80028 0.28734 0.25767 0.0
C31 C 0.81503 0.33755 0.33747 0.0
Co32 Co 0.75478 0.28161 0.30736 0.0
C33 C 0.86144 0.32374 0.20733 0.0
C34 C 0.84837 0.26667 0.18642 0.0
N35 N 0.83824 0.29239 0.21593 0.0
N36 N 0.88545 0.31867 0.17361 0.0
C37 C 0.87727 0.28296 0.15972 0.0
H38 H 0.85982 0.35009 0.224 0.0
H39 H 0.83516 0.23809 0.18385 0.0
C40 C 0.73858 0.23182 0.22752 0.0
N41 N 0.71681 0.2773 0.34939 0.0
C42 C 0.70592 0.24828 0.37519 0.0
C43 C 0.69315 0.30003 0.36014 0.0
N44 N 0.67672 0.25177 0.40167 0.0
C45 C 0.66779 0.28393 0.39192 0.0
C46 C 0.74541 0.32827 0.23362 0.0
O47 O 0.77036 0.24883 0.21529 0.0
O48 O 0.72682 0.24101 0.26787 0.0
O49 O 0.72963 0.31308 0.26928 0.0
O50 O 0.77724 0.32141 0.22296 0.0
O51 O 0.78201 0.32206 0.34706 0.0
H52 H 0.69362 0.32614 0.345 0.0
H53 H 0.71784 0.22395 0.37278 0.0
O54 O 0.82917 0.32592 0.30021 0.0
O55 O 0.82407 0.25379 0.29196 0.0
O56 O 0.78092 0.24959 0.34477 0.0
C57 C 0.81112 0.24083 0.33052 0.0
H58 H 0.8909 0.26985 0.13198 0.0
H59 H 0.64439 0.29449 0.40589 0.0
Co60 Co 0.78743 0.78202 0.25922 0.0
C61 C 0.84816 0.84261 0.27487 0.0
Co62 Co 0.79589 0.81778 0.19864 0.0
C63 C 0.81449 0.7497 0.34088 0.0
C64 C 0.75453 0.7473 0.34239 0.0
N65 N 0.78387 0.75648 0.31446 0.0
N66 N 0.80599 0.73756 0.38473 0.0
C67 C 0.76808 0.73531 0.38574 0.0
H68 H 0.84287 0.75448 0.32844 0.0
H69 H 0.72569 0.75074 0.3329 0.0
C70 C 0.73458 0.75724 0.18341 0.0
N71 N 0.80179 0.84328 0.14322 0.0
C72 C 0.77371 0.84422 0.10849 0.0
C73 C 0.83364 0.86204 0.12597 0.0
N74 N 0.78632 0.86244 0.0701 0.0
C75 C 0.82396 0.87468 0.08129 0.0
C76 C 0.83597 0.76088 0.19482 0.0
O77 O 0.7438 0.75039 0.22706 0.0
O78 O 0.75403 0.78433 0.16489 0.0
O79 O 0.8302 0.78952 0.17547 0.0
O80 O 0.8192 0.7512 0.23264 0.0
O81 O 0.83722 0.851 0.23273 0.0
H82 H 0.86185 0.86677 0.14497 0.0
H83 H 0.74384 0.83369 0.11252 0.0
O84 O 0.83088 0.81363 0.29135 0.0
O85 O 0.75596 0.81287 0.28551 0.0
O86 O 0.76117 0.8466 0.22241 0.0
C87 C 0.74776 0.83969 0.26345 0.0
H88 H 0.7516 0.72668 0.41606 0.0
H89 H 0.84256 0.89281 0.05994 0.0
Co90 Co 0.25689 0.79728 0.25181 0.0
C91 C 0.30209 0.83229 0.33309 0.0
Co92 Co 0.29997 0.76793 0.27614 0.0
C93 C 0.18733 0.82243 0.25003 0.0
C94 C 0.21561 0.83536 0.18554 0.0
N95 N 0.21892 0.81955 0.22841 0.0
N96 N 0.16462 0.83988 0.22309 0.0
C97 C 0.18254 0.84881 0.18283 0.0
H98 H 0.18251 0.81477 0.28693 0.0
H99 H 0.23644 0.83811 0.15874 0.0
C100 C 0.2527 0.73327 0.19485 0.0
N101 N 0.33797 0.74483 0.29637 0.0
C102 C 0.35583 0.72754 0.26463 0.0
C103 C 0.35556 0.74176 0.34088 0.0
N104 N 0.38342 0.71327 0.28688 0.0
C105 C 0.38415 0.7223 0.335 0.0
C106 C 0.23189 0.74056 0.31934 0.0
O107 O 0.24155 0.76312 0.19816 0.0
O108 O 0.27976 0.72886 0.22519 0.0
O109 O 0.26737 0.74045 0.31969 0.0
O110 O 0.21965 0.7638 0.2926 0.0
O111 O 0.31862 0.80566 0.3263 0.0
H112 H 0.34835 0.75319 0.37507 0.0
H113 H 0.34924 0.72599 0.2253 0.0
O114 O 0.27182 0.83311 0.30608 0.0
O115 O 0.29416 0.82951 0.21245 0.0
O116 O 0.33464 0.7956 0.23206 0.0
C117 C 0.32763 0.82294 0.20973 0.0
H118 H 0.17376 0.86601 0.15548 0.0
H119 H 0.4035 0.71518 0.36335 0.0
Co120 Co 0.31653 0.78048 0.71609 0.0
C121 C 0.33286 0.83259 0.79591 0.0
Co122 Co 0.27123 0.77835 0.76583 0.0
C123 C 0.37839 0.81577 0.6681 0.0
C124 C 0.37401 0.75824 0.65922 0.0
N125 N 0.35616 0.78408 0.67677 0.0
N126 N 0.4102 0.81114 0.64778 0.0
C127 C 0.40748 0.77497 0.641 0.0
H128 H 0.37232 0.84202 0.67898 0.0
H129 H 0.36463 0.72933 0.66239 0.0
C130 C 0.25545 0.72616 0.6862 0.0
N131 N 0.23211 0.77446 0.80564 0.0
C132 C 0.20864 0.74313 0.81338 0.0
C133 C 0.22122 0.80013 0.83452 0.0
N134 N 0.18361 0.74808 0.84563 0.0
C135 C 0.19148 0.78369 0.85995 0.0
C136 C 0.26299 0.82339 0.69007 0.0
O137 O 0.28838 0.74067 0.67488 0.0
O138 O 0.24292 0.73881 0.72405 0.0
O139 O 0.24867 0.81095 0.7282 0.0
O140 O 0.2935 0.81412 0.67753 0.0
O141 O 0.29998 0.81812 0.80746 0.0
H142 H 0.2346 0.82867 0.83779 0.0
H143 H 0.21091 0.71673 0.7975 0.0
O144 O 0.34486 0.82015 0.75756 0.0
O145 O 0.33922 0.74761 0.75498 0.0
O146 O 0.29337 0.74493 0.80383 0.0
C147 C 0.32384 0.73526 0.79258 0.0
H148 H 0.42909 0.76178 0.62689 0.0
H149 H 0.17728 0.79655 0.88728 0.0
Co150 Co 0.28435 0.25891 0.79459 0.0
C151 C 0.34626 0.3176 0.80407 0.0
Co152 Co 0.29353 0.28854 0.72807 0.0
C153 C 0.30236 0.23199 0.8864 0.0
C154 C 0.24201 0.2247 0.87088 0.0
N155 N 0.27556 0.23745 0.85243 0.0
N156 N 0.28719 0.21613 0.92531 0.0
C157 C 0.24911 0.21097 0.91555 0.0
H158 H 0.33256 0.23764 0.88135 0.0
H159 H 0.21424 0.22463 0.85251 0.0
C160 C 0.23146 0.23074 0.71841 0.0
N161 N 0.30088 0.30916 0.66859 0.0
C162 C 0.29136 0.34013 0.65402 0.0
C163 C 0.30717 0.29143 0.62673 0.0
N164 N 0.2907 0.34194 0.60509 0.0
C165 C 0.30051 0.31138 0.58765 0.0
C166 C 0.33097 0.22899 0.73572 0.0
O167 O 0.24195 0.22598 0.76241 0.0
O168 O 0.24989 0.25698 0.69727 0.0
O169 O 0.32418 0.25438 0.70979 0.0
O170 O 0.31714 0.2259 0.77708 0.0
O171 O 0.33722 0.32058 0.75894 0.0
H172 H 0.31194 0.26391 0.62367 0.0
H173 H 0.28058 0.35895 0.67773 0.0
O174 O 0.32693 0.29234 0.82625 0.0
O175 O 0.2522 0.29114 0.81227 0.0
O176 O 0.26228 0.32272 0.74809 0.0
C177 C 0.24667 0.31783 0.78812 0.0
H178 H 0.2281 0.19696 0.93803 0.0
H179 H 0.29875 0.30236 0.54929 0.0
Co180 Co 0.77243 0.28694 0.75823 0.0
C181 C 0.82616 0.307 0.83758 0.0
Co182 Co 0.81036 0.24918 0.76638 0.0
C183 C 0.71603 0.32512 0.78246 0.0
C184 C 0.72876 0.33235 0.70824 0.0
N185 N 0.73873 0.31663 0.74914 0.0
N186 N 0.69188 0.3452 0.76418 0.0
C187 C 0.69995 0.35049 0.71768 0.0
H188 H 0.71763 0.31721 0.81986 0.0
H189 H 0.74131 0.33038 0.6738 0.0
C190 C 0.75699 0.22889 0.68678 0.0
N191 N 0.84383 0.219 0.7759 0.0
C192 C 0.88201 0.22906 0.77982 0.0
C193 C 0.83651 0.18258 0.77749 0.0
N194 N 0.89923 0.20028 0.78038 0.0
C195 C 0.87054 0.17099 0.7803 0.0
C196 C 0.74307 0.22525 0.81543 0.0
O197 O 0.74708 0.25768 0.70244 0.0
O198 O 0.78645 0.22028 0.70798 0.0
O199 O 0.77475 0.21766 0.80496 0.0
O200 O 0.73618 0.2554 0.80067 0.0
O201 O 0.83399 0.27681 0.82386 0.0
H202 H 0.80835 0.16543 0.77307 0.0
H203 H 0.89689 0.25682 0.77738 0.0
O204 O 0.79836 0.31733 0.8147 0.0
O205 O 0.80749 0.31796 0.71676 0.0
O206 O 0.84725 0.28166 0.72722 0.0
C207 C 0.84023 0.31103 0.70996 0.0
H208 H 0.68599 0.36609 0.69259 0.0
H209 H 0.87353 0.1429 0.77577 0.0
Co210 Co 0.75534 0.75024 0.75885 0.0
C211 C 0.74265 0.80569 0.82466 0.0
Co212 Co 0.80629 0.79286 0.77735 0.0
C213 C 0.70967 0.67856 0.75527 0.0
C214 C 0.67717 0.71723 0.7304 0.0
N215 N 0.71283 0.71372 0.74519 0.0
N216 N 0.67321 0.66018 0.7496 0.0
C217 C 0.65277 0.6844 0.73309 0.0
H218 H 0.73336 0.66729 0.76988 0.0
H219 H 0.66895 0.74263 0.7221 0.0
C220 C 0.81758 0.73635 0.71124 0.0
N221 N 0.84861 0.82954 0.79238 0.0
C222 C 0.86864 0.85147 0.76202 0.0
C223 C 0.86526 0.84106 0.8377 0.0
N224 N 0.89716 0.87604 0.78661 0.0
C225 C 0.89537 0.86947 0.83421 0.0
C226 C 0.80506 0.73488 0.83672 0.0
O227 O 0.78212 0.72561 0.71509 0.0
O228 O 0.83447 0.76643 0.734 0.0
O229 O 0.82361 0.76642 0.83011 0.0
O230 O 0.77345 0.72356 0.81126 0.0
O231 O 0.77776 0.81869 0.82044 0.0
H232 H 0.85585 0.82979 0.87126 0.0
H233 H 0.86266 0.84928 0.72259 0.0
O234 O 0.72804 0.77486 0.80278 0.0
O235 O 0.73773 0.77686 0.7069 0.0
O236 O 0.78893 0.8192 0.72388 0.0
C237 C 0.75702 0.80781 0.69883 0.0
H238 H 0.62195 0.67997 0.72837 0.0
H239 H 0.91409 0.88451 0.86425 0.0
Co240 Co 0.07095 0.95797 0.49113 0.0
Co241 Co 0.09269 0.98962 0.57433 0.0
Co242 Co 1.03354 0.0312 0.51286 0.0
O243 O 0.07721 1.00605 0.51639 0.0
H244 H 0.09912 1.02145 0.50466 0.0
O245 O 0.99141 0.05854 0.51078 0.0
Co246 Co 1.00542 0.11061 0.51927 0.0
Co247 Co 0.97254 0.06516 0.44889 0.0
H248 H 0.97109 0.04819 0.53018 0.0
O249 O 0.14239 0.98303 0.58922 0.0
O250 O 0.09237 0.94128 0.55425 0.0
O251 O 0.05748 0.99105 0.62279 0.0
O252 O 1.01387 1.0122 0.5758 0.0
O253 O 0.06758 0.07284 0.5493 0.0
O254 O 1.01509 0.15821 0.53225 0.0
O255 O 0.9638 0.1153 0.54633 0.0
O256 O 0.05389 0.11144 0.49664 0.0
O257 O 0.05206 0.04875 0.44863 0.0
O258 O 1.00006 0.048 0.39812 0.0
O259 O 0.98142 0.1162 0.45218 0.0
O260 O 0.92493 0.07716 0.43648 0.0
C261 C 0.10045 0.93357 0.44704 0.0
C262 C 0.99564 0.9564 0.48343 0.0
C263 C 1.02469 0.99887 0.61534 0.0
C264 C 0.12727 0.94944 0.57506 0.0
C265 C 0.98438 0.14803 0.55427 0.0
C266 C 0.07586 0.10362 0.53139 0.0
C267 C 0.0356 0.04857 0.40541 0.0
C268 C 0.9448 0.11016 0.43887 0.0
O269 O 0.06897 0.91499 0.46124 0.0
O270 O 0.11575 0.96541 0.46788 0.0
O271 O 0.99925 0.98982 0.47536 0.0
O272 O 1.02081 0.94569 0.51086 0.0
Co273 Co 0.57813 0.96697 0.97166 0.0
Co274 Co 0.56956 0.9728 0.06406 0.0
Co275 Co 0.53121 0.03377 0.01648 0.0
O276 O 0.57451 1.00732 0.01714 0.0
H277 H 0.5988 1.02397 0.02349 0.0
O278 O 0.48874 0.06144 0.01682 0.0
Co279 Co 0.49368 0.10659 0.05805 0.0
Co280 Co 0.48945 0.08991 0.96303 0.0
H281 H 0.46402 0.0457 0.01727 0.0
O282 O 0.6129 0.97016 0.0995 0.0
O283 O 0.58603 0.93818 0.02872 0.0
O284 O 0.52145 0.95359 0.08721 0.0
O285 O 0.49301 0.9956 0.05507 0.0
O286 O 0.55541 0.06105 0.07887 0.0
O287 O 0.49462 0.14718 0.09518 0.0
O288 O 0.44269 0.10512 0.06887 0.0
O289 O 0.54741 0.11482 0.05527 0.0
O290 O 0.56886 0.0726 0.97782 0.0
O291 O 0.53415 0.1009 0.92813 0.0
O292 O 0.48713 0.13224 0.99833 0.0
O293 O 0.44427 0.10053 0.93946 0.0
C294 C 0.6206 0.94523 0.93803 0.0
C295 C 0.5019 0.9707 0.94831 0.0
C296 C 0.49162 0.96637 0.07956 0.0
C297 C 0.61471 0.94793 0.06221 0.0
C298 C 0.45784 0.13617 0.09332 0.0
C299 C 0.56582 0.09557 0.08089 0.0
C300 C 0.56656 0.09551 0.94379 0.0
C301 C 0.45464 0.1277 0.97203 0.0
O302 O 0.58464 0.93015 0.93089 0.0
O303 O 0.63025 0.97569 0.9657 0.0
O304 O 0.50694 1.00544 0.95437 0.0
O305 O 0.52439 0.95267 0.96947 0.0
Co306 Co 0.07941 0.45641 0.96991 0.0
Co307 Co 0.09977 0.49002 0.05572 0.0
Co308 Co 0.0378 0.52946 1.00429 0.0
O309 O 0.08341 0.50645 0.99607 0.0
H310 H 0.10408 0.52304 0.98357 0.0
O311 O 0.99126 0.55102 0.01219 0.0
Co312 Co 0.99277 0.59905 0.04052 0.0
Co313 Co 0.97359 0.5676 0.95353 0.0
H314 H 0.97093 0.53355 0.02387 0.0
O315 O 0.14836 0.48114 0.06937 0.0
O316 O 0.09644 0.44085 0.03646 0.0
O317 O 0.06741 0.49146 0.109 0.0
O318 O 1.01901 0.49689 0.05648 0.0
O319 O 0.06998 0.56735 0.05325 0.0
O320 O 0.98976 0.64198 0.06926 0.0
O321 O 0.9445 0.59078 0.05911 0.0
O322 O 0.04493 0.61352 0.02743 0.0
O323 O 0.05623 0.56205 0.95193 0.0
O324 O 1.00723 0.56975 0.90152 0.0
O325 O 0.97411 0.61572 0.9757 0.0
O326 O 0.92383 0.57478 0.94049 0.0
C327 C 0.11533 0.4274 0.93681 0.0
C328 C 1.00044 0.4585 0.95934 0.0
C329 C 1.03193 0.48699 0.09703 0.0
C330 C 0.13129 0.44765 0.05779 0.0
C331 C 0.9555 0.62472 0.07578 0.0
C332 C 0.07239 0.60161 0.04918 0.0
C333 C 0.0428 0.57347 0.91263 0.0
C334 C 0.93905 0.6082 0.9553 0.0
O335 O 0.08047 0.41222 0.94378 0.0
O336 O 0.12818 0.46151 0.95175 0.0
O337 O 1.00618 0.49279 0.95504 0.0
O338 O 1.02591 0.44408 0.98147 0.0
Co339 Co 0.56602 0.45152 1.01056 0.0
Co340 Co 0.59436 0.4996 0.08 0.0
Co341 Co 0.53206 0.52837 0.01367 0.0
O342 O 0.5751 0.50284 0.01684 0.0
H343 H 0.59526 0.51419 0.99785 0.0
O344 O 0.4889 0.55372 1.01072 0.0
Co345 Co 0.49432 0.60377 0.02758 0.0
Co346 Co 0.47089 0.56347 0.95005 0.0
H347 H 0.46786 0.53955 0.02576 0.0
O348 O 0.6417 0.48807 0.09659 0.0
O349 O 0.58547 0.44884 0.08044 0.0
O350 O 0.56659 0.51807 0.12924 0.0
O351 O 0.51415 0.51065 0.07787 0.0
O352 O 0.5662 0.56986 0.05068 0.0
O353 O 0.49377 0.64885 0.04973 0.0
O354 O 0.44745 0.59805 0.04371 0.0
O355 O 0.54716 0.61535 0.01508 0.0
O356 O 0.55039 0.54634 0.94948 0.0
O357 O 0.49898 0.54838 0.89926 0.0
O358 O 0.47793 0.61421 0.95841 0.0
O359 O 0.42317 0.57444 0.93424 0.0
C360 C 0.59427 0.41723 0.98132 0.0
C361 C 0.49246 0.45417 0.99329 0.0
C362 C 0.53064 0.51395 0.12143 0.0
C363 C 0.62136 0.45545 0.09712 0.0
C364 C 0.46073 0.63131 0.06085 0.0
C365 C 0.57166 0.6032 0.04204 0.0
C366 C 0.53403 0.54701 0.90638 0.0
C367 C 0.4428 0.60759 0.93835 0.0
O368 O 0.56213 0.40394 0.99894 0.0
O369 O 0.61082 0.45113 0.99065 0.0
O370 O 0.49825 0.48582 0.97738 0.0
O371 O 0.51512 0.44675 0.02747 0.0
Co372 Co 0.10269 0.4866 0.51796 0.0
Co373 Co 0.07926 0.50094 0.43402 0.0
Co374 Co 1.03039 0.53205 0.51824 0.0
O375 O 0.05352 0.49183 0.48968 0.0
H376 H 0.03539 0.46897 0.48525 0.0
O377 O 1.00705 0.57173 0.54704 0.0
Co378 Co 0.95577 0.5751 0.52401 0.0
Co379 Co 0.9866 0.56117 0.60694 0.0
H380 H 1.0245 0.595 0.54978 0.0
O381 O 0.07922 0.46221 0.38967 0.0
O382 O 0.12371 0.48454 0.45153 0.0
O383 O 0.0929 0.5509 0.41978 0.0
O384 O 0.06297 0.57432 0.47901 0.0
O385 O 0.98963 0.52211 0.46418 0.0
O386 O 0.91044 0.5807 0.50358 0.0
O387 O 0.96176 0.6245 0.52894 0.0
O388 O 0.94252 0.5234 0.51149 0.0
O389 O 0.99693 0.48948 0.55604 0.0
O390 O 0.97517 0.51097 0.62356 0.0
O391 O 0.94007 0.57507 0.59339 0.0
O392 O 0.98701 0.59969 0.65147 0.0
C393 C 0.12959 0.44557 0.53316 0.0
C394 C 0.10572 0.55354 0.563 0.0
C395 C 0.08534 0.57839 0.44296 0.0
C396 C 0.11103 0.46054 0.4146 0.0
C397 C 0.92565 0.61477 0.51321 0.0
C398 C 0.95534 0.51051 0.47351 0.0
C399 C 0.97843 0.48409 0.59543 0.0
C400 C 0.95381 0.59986 0.62916 0.0
O401 O 0.14559 0.47933 0.54404 0.0
O402 O 0.09406 0.43712 0.51468 0.0
O403 O 0.07136 0.54282 0.57285 0.0
O404 O 0.11844 0.538 0.52724 0.0
Co405 Co 0.61095 0.97524 0.5279 0.0
Co406 Co 0.591 0.9886 0.44242 0.0
Co407 Co 0.53719 1.02697 0.50764 0.0
O408 O 0.56274 0.98327 0.49601 0.0
H409 H 0.54419 0.96071 0.49129 0.0
O410 O 0.51048 0.06995 0.5176 0.0
Co411 Co 0.46049 0.07611 0.48619 0.0
Co412 Co 0.48342 0.06708 0.57199 0.0
H413 H 0.52866 0.09275 0.51939 0.0
O414 O 0.59143 0.95043 0.39899 0.0
O415 O 0.63488 0.97269 0.46326 0.0
O416 O 0.59931 0.03718 0.42126 0.0
O417 O 0.54103 0.04101 0.43836 0.0
O418 O 0.48794 0.9923 0.48733 0.0
O419 O 0.4177 0.0864 0.45661 0.0
O420 O 0.47121 0.12602 0.48455 0.0
O421 O 0.44163 1.0244 0.48078 0.0
O422 O 0.53438 1.01198 0.57656 0.0
O423 O 0.47927 1.02171 0.60166 0.0
O424 O 0.43811 0.08025 0.55149 0.0
O425 O 0.48315 0.10773 0.61137 0.0
C426 C 0.63366 0.93127 0.55132 0.0
C427 C 0.62125 0.05703 0.53862 0.0
C428 C 0.57247 0.05478 0.42162 0.0
C429 C 0.62425 0.95128 0.42316 0.0
C430 C 0.43663 0.11982 0.46254 0.0
C431 C 0.45286 0.99418 0.47948 0.0
C432 C 0.50612 1.00414 0.60231 0.0
C433 C 0.44926 0.10423 0.5889 0.0
O434 O 0.65262 0.96455 0.55815 0.0
O435 O 0.59967 0.92516 0.52751 0.0
O436 O 0.58707 0.06175 0.52943 0.0
O437 O 0.62956 1.02566 0.53599 0.0
H438 H 0.10594 0.12986 0.23298 0.0
H439 H 0.20539 0.14668 0.33645 0.0
H440 H 0.17339 0.10025 0.38592 0.0
H441 H 0.11298 0.06592 0.40917 0.0
H442 H 1.01169 0.05259 0.30908 0.0
H443 H 0.04864 0.08587 0.24888 0.0
C444 C 0.12079 0.1228 0.26586 0.0
C445 C 0.15751 0.1425 0.28159 0.0
C446 C 0.10165 0.09702 0.29532 0.0
C447 C 0.17699 0.13229 0.32344 0.0
C448 C 0.15855 0.10587 0.35217 0.0
C449 C 0.0991 0.06942 0.37372 0.0
C450 C 0.05939 0.05803 0.36442 0.0
C451 C 0.12018 0.0897 0.33993 0.0
C452 C 0.04209 0.06197 0.31777 0.0
C453 C 0.06316 0.08114 0.28331 0.0
H454 H 0.88701 0.23975 0.33736 0.0
H455 H 0.77992 0.18503 0.38467 0.0
H456 H 0.81184 0.1403 0.42342 0.0
H457 H 0.86988 0.1149 0.44025 0.0
H458 H 0.9777 0.17243 0.39831 0.0
H459 H 0.94602 0.21799 0.36161 0.0
C460 C 0.87069 0.21812 0.35639 0.0
C461 C 0.83099 0.21549 0.35758 0.0
C462 C 0.88944 0.19297 0.37954 0.0
C463 C 0.81042 0.18767 0.3831 0.0
C464 C 0.82869 0.16202 0.40514 0.0
C465 C 0.88649 0.13758 0.4234 0.0
C466 C 0.92613 0.13997 0.4216 0.0
C467 C 0.86811 0.1641 0.40308 0.0
C468 C 0.94725 0.16985 0.40026 0.0
C469 C 0.92907 0.19585 0.37903 0.0
H470 H 0.88183 0.82816 0.36143 0.0
H471 H 0.88207 0.91228 0.25955 0.0
H472 H 0.9273 0.95484 0.31615 0.0
H473 H 0.96452 0.96859 0.39498 0.0
H474 H 0.96654 0.88467 0.49656 0.0
H475 H 0.92203 0.84126 0.43933 0.0
C476 C 0.89197 0.85574 0.35144 0.0
C477 C 0.87846 0.86716 0.30648 0.0
C478 C 0.91786 0.88003 0.38416 0.0
C479 C 0.89207 0.90285 0.29388 0.0
C480 C 0.91773 0.92722 0.32632 0.0
C481 C 0.95506 0.94088 0.40496 0.0
C482 C 0.96825 0.92992 0.45031 0.0
C483 C 0.93032 0.9162 0.37173 0.0
C484 C 0.95646 0.89373 0.46203 0.0
C485 C 0.93116 0.86898 0.42932 0.0
H486 H 0.18371 0.90672 0.26079 0.0
H487 H 0.09216 0.81338 0.24002 0.0
H488 H 0.06213 0.83551 0.30992 0.0
H489 H 0.06878 0.87599 0.38431 0.0
H490 H 0.16651 0.96456 0.41049 0.0
H491 H 0.1887 0.9489 0.33214 0.0
C492 C 0.15618 0.89246 0.27042 0.0
C493 C 0.13956 0.85909 0.24571 0.0
C494 C 0.14171 0.90336 0.31309 0.0
C495 C 0.10466 0.83961 0.25853 0.0
C496 C 0.08825 0.85176 0.29906 0.0
C497 C 0.09513 0.89162 0.37309 0.0
C498 C 0.11631 0.92096 0.40335 0.0
C499 C 0.10779 0.88247 0.32814 0.0
C500 C 0.15002 0.94145 0.38806 0.0
C501 C 0.16246 0.93289 0.34304 0.0
H502 H 0.18705 0.81797 0.66811 0.0
H503 H 0.29605 0.88518 0.64818 0.0
H504 H 0.26392 0.92991 0.6094 0.0
H505 H 0.20431 0.95168 0.58589 0.0
H506 H 0.09565 0.8814 0.5996 0.0
H507 H 0.12797 0.83606 0.63542 0.0
C508 C 0.20375 0.84227 0.65481 0.0
C509 C 0.2439 0.84845 0.66147 0.0
C510 C 0.18504 0.86737 0.63148 0.0
C511 C 0.26516 0.87978 0.64346 0.0
C512 C 0.24675 0.90543 0.62148 0.0
C513 C 0.18775 0.92623 0.5962 0.0
C514 C 0.1475 0.92015 0.5904 0.0
C515 C 0.20666 0.8998 0.61596 0.0
C516 C 0.12655 0.88683 0.60345 0.0
C517 C 0.14505 0.86093 0.62425 0.0
H518 H 0.20011 0.23617 0.62648 0.0
H519 H 0.19161 0.16755 0.7487 0.0
H520 H 0.14245 0.12259 0.70108 0.0
H521 H 0.10413 0.10187 0.62468 0.0
H522 H 0.11071 0.1699 0.50204 0.0
H523 H 0.15881 0.21636 0.5503 0.0
C524 C 0.18735 0.21146 0.6428 0.0
C525 C 0.19966 0.20505 0.69096 0.0
C526 C 0.15913 0.18568 0.6152 0.0
C527 C 0.18269 0.17309 0.71172 0.0
C528 C 0.15469 0.14733 0.68449 0.0
C529 C 0.11608 0.12679 0.60823 0.0
C530 C 0.10428 0.13232 0.55964 0.0
C531 C 0.14313 0.15318 0.63612 0.0
C532 C 0.11955 0.16503 0.53933 0.0
C533 C 0.14697 0.1915 0.56687 0.0
H534 H 0.92973 0.24366 0.71231 0.0
H535 H 0.94604 0.15317 0.79675 0.0
H536 H 0.98146 0.13151 0.73257 0.0
H537 H 0.99014 0.12923 0.64496 0.0
H538 H 0.96764 0.21605 0.55754 0.0
H539 H 0.95099 0.24837 0.63049 0.0
C540 C 0.94235 0.22006 0.71788 0.0
C541 C 0.93385 0.19892 0.75813 0.0
C542 C 0.9597 0.20639 0.67932 0.0
C543 C 0.95146 0.16915 0.76531 0.0
C544 C 0.97105 0.1565 0.72833 0.0
C545 C 0.98191 0.15546 0.64231 0.0
C546 C 0.9782 0.16994 0.59662 0.0
C547 C 0.97226 0.17322 0.68377 0.0
C548 C 0.96929 0.20434 0.59275 0.0
C549 C 0.96014 0.22271 0.63428 0.0
H550 H 0.88319 0.91636 0.7122 0.0
H551 H 0.97202 0.89642 0.81552 0.0
H552 H 1.01977 0.938 0.77544 0.0
H553 H 0.03665 0.97414 0.70554 0.0
H554 H 0.9475 0.99377 0.60163 0.0
H555 H 0.89936 0.95899 0.64819 0.0
C556 C 0.91301 0.9214 0.72592 0.0
C557 C 0.92438 0.90306 0.76601 0.0
C558 C 0.94013 0.9453 0.70277 0.0
C559 C 0.96283 0.91028 0.78453 0.0
C560 C 0.99006 0.93391 0.76157 0.0
C561 C 1.00667 0.97142 0.69352 0.0
C562 C 0.99582 0.98597 0.64963 0.0
C563 C 0.97912 0.95082 0.7199 0.0
C564 C 0.95678 0.98269 0.63509 0.0
C565 C 0.92916 0.96251 0.66146 0.0
H566 H 0.39094 0.25891 0.20547 0.0
H567 H 0.28376 0.1896 0.15203 0.0
H568 H 0.31766 0.14788 0.11048 0.0
H569 H 0.37866 0.1293 0.09192 0.0
H570 H 0.48502 0.19945 0.14791 0.0
H571 H 0.45076 0.24159 0.18561 0.0
C572 C 0.37486 0.23491 0.18435 0.0
C573 C 0.33466 0.22776 0.18204 0.0
C574 C 0.39458 0.21051 0.16126 0.0
C575 C 0.31465 0.19609 0.15466 0.0
C576 C 0.33409 0.172 0.13094 0.0
C577 C 0.39432 0.15374 0.11243 0.0
C578 C 0.4347 0.16064 0.11691 0.0
C579 C 0.3742 0.17855 0.13451 0.0
C580 C 0.45414 0.19285 0.14359 0.0
C581 C 0.43451 0.2173 0.16532 0.0
H582 H 0.93802 0.37079 0.22295 0.0
H583 H 0.88864 0.32942 0.07838 0.0
H584 H 0.92764 0.38081 0.04269 0.0
H585 H 0.97527 0.43653 0.05282 0.0
H586 H 1.03143 0.47551 0.19536 0.0
H587 H 0.98977 0.42601 0.23257 0.0
C588 C 0.93633 0.37318 0.18365 0.0
C589 C 0.91092 0.34679 0.15294 0.0
C590 C 0.95953 0.40225 0.16353 0.0
C591 C 0.90854 0.34946 0.10216 0.0
C592 C 0.93054 0.37884 0.08198 0.0
C593 C 0.97827 0.43454 0.09211 0.0
C594 C 1.0058 0.45989 0.12156 0.0
C595 C 0.95593 0.40535 0.11237 0.0
C596 C 1.01001 0.45643 0.17224 0.0
C597 C 0.98643 0.42811 0.1933 0.0
H598 H 0.78406 0.93188 0.06375 0.0
H599 H 0.73052 0.82402 1.00661 0.0
H600 H 0.66913 0.84276 0.99373 0.0
H601 H 0.62898 0.88567 0.01939 0.0
H602 H 0.68328 0.99159 0.08532 0.0
H603 H 0.74592 0.97786 0.07557 0.0
C604 C 0.75935 0.91323 0.04578 0.0
C605 C 0.76113 0.87665 0.03723 0.0
C606 C 0.7239 0.92339 0.043 0.0
C607 C 0.7293 0.85238 0.01378 0.0
C608 C 0.6941 0.86282 1.00784 0.0
C609 C 0.65463 0.90564 0.03125 0.0
C610 C 0.65183 0.93902 0.05432 0.0
C611 C 0.69064 0.89744 0.02603 0.0
C612 C 0.68499 0.96519 0.06884 0.0
C613 C 0.72077 0.95763 0.06262 0.0
H614 H 0.20026 0.73883 0.12115 0.0
H615 H 0.24925 0.65907 0.19748 0.0
H616 H 0.19898 0.61035 0.157 0.0
H617 H 0.13661 0.59124 0.10598 0.0
H618 H 0.08809 0.67375 0.03444 0.0
H619 H 0.14214 0.72005 0.06725 0.0
C620 C 0.20052 0.71073 0.12843 0.0
C621 C 0.22867 0.70282 0.16252 0.0
C622 C 0.17089 0.68316 0.10645 0.0
C623 C 0.22829 0.66611 0.17115 0.0
C624 C 0.19917 0.63823 0.1484 0.0
C625 C 0.13804 0.61929 0.09729 0.0
C626 C 0.1077 0.62868 0.06792 0.0
C627 C 0.16956 0.64651 0.11698 0.0
C628 C 0.11038 0.66536 0.05723 0.0
C629 C 0.14153 0.6921 0.0759 0.0
H630 H 0.40536 0.8644 0.78259 0.0
H631 H 0.31698 0.86743 0.88016 0.0
H632 H 0.36066 0.91379 0.93409 0.0
H633 H 0.42586 0.95041 0.95624 0.0
H634 H 0.51394 0.9443 0.85946 0.0
H635 H 0.46852 0.9023 0.80218 0.0
C636 C 0.3954 0.87546 0.81529 0.0
C637 C 0.35796 0.86238 0.82729 0.0
C638 C 0.4207 0.90166 0.84619 0.0
C639 C 0.34569 0.87693 0.87009 0.0
C640 C 0.37066 0.90345 0.90093 0.0
C641 C 0.43459 0.94048 0.92193 0.0
C642 C 0.47276 0.95065 0.91128 0.0
C643 C 0.40842 0.91567 0.88969 0.0
C644 C 0.48442 0.93709 0.86765 0.0
C645 C 0.45855 0.91302 0.83512 0.0
H646 H 0.20036 0.30605 0.8617 0.0
H647 H 0.24132 0.38679 0.76152 0.0
H648 H 0.20645 0.42912 0.80047 0.0
H649 H 0.16387 0.44312 0.86401 0.0
H650 H 0.12129 0.35989 0.96001 0.0
H651 H 0.15766 0.31898 0.92241 0.0
C652 C 0.2017 0.33288 0.84813 0.0
C653 C 0.22359 0.34315 0.80866 0.0
C654 C 0.18149 0.35685 0.87048 0.0
C655 C 0.2246 0.37801 0.79161 0.0
C656 C 0.20481 0.40232 0.81412 0.0
C657 C 0.16298 0.41615 0.87685 0.0
C658 C 0.14013 0.40462 0.91505 0.0
C659 C 0.18324 0.39213 0.85383 0.0
C660 C 0.13865 0.36938 0.93076 0.0
C661 C 0.15938 0.34593 0.90918 0.0
H662 H 0.6745 0.23221 0.85708 0.0
H663 H 0.74635 0.15446 0.83437 0.0
H664 H 0.70212 0.10852 0.8729 0.0
H665 H 0.64011 0.08794 0.91177 0.0
H666 H 0.57017 0.16737 0.93584 0.0
H667 H 0.61549 0.21318 0.89985 0.0
C668 C 0.68081 0.20534 0.8606 0.0
C669 C 0.71465 0.19775 0.84191 0.0
C670 C 0.6549 0.17834 0.88383 0.0
C671 C 0.72121 0.16211 0.84784 0.0
C672 C 0.69555 0.13534 0.87017 0.0
C673 C 0.63495 0.11535 0.91007 0.0
C674 C 0.6006 0.12318 0.92731 0.0
C675 C 0.66191 0.14275 0.88838 0.0
C676 C 0.5955 0.15947 0.92328 0.0
C677 C 0.6217 0.18619 0.90228 0.0
H678 H 0.87661 0.74652 0.88653 0.0
H679 H 0.77378 0.6648 0.85415 0.0
H680 H 0.80525 0.61934 0.89049 0.0
H681 H 0.86349 0.60107 0.92475 0.0
H682 H 0.96649 0.68216 0.95863 0.0
H683 H 0.93346 0.72925 0.92914 0.0
C684 C 0.8608 0.71894 0.88823 0.0
C685 C 0.82268 0.70932 0.8671 0.0
C686 C 0.87932 0.69252 0.9091 0.0
C687 C 0.80298 0.67326 0.86979 0.0
C688 C 0.82109 0.64705 0.89047 0.0
C689 C 0.87874 0.62909 0.92619 0.0
C690 C 0.91776 0.63775 0.9434 0.0
C691 C 0.85951 0.65611 0.90912 0.0
C692 C 0.93663 0.67444 0.94544 0.0
C693 C 0.91771 0.70146 0.92837 0.0
H694 H 0.18238 0.31142 0.15213 0.0
H695 H 0.28779 0.39026 0.18125 0.0
H696 H 0.2604 0.43441 0.13587 0.0
H697 H 0.20534 0.45277 0.0933 0.0
H698 H 0.09947 0.375 0.06299 0.0
H699 H 0.12828 0.32854 0.10251 0.0
C700 C 0.19956 0.33807 0.14796 0.0
C701 C 0.23725 0.34731 0.17061 0.0
C702 C 0.18343 0.36379 0.1217 0.0
C703 C 0.25883 0.38215 0.16461 0.0
C704 C 0.2431 0.4076 0.13864 0.0
C705 C 0.18853 0.42557 0.0948 0.0
C706 C 0.15 0.41772 0.07546 0.0
C707 C 0.20523 0.39904 0.11787 0.0
C708 C 0.12907 0.38205 0.07752 0.0
C709 C 0.14555 0.35544 0.10041 0.0
H710 H 0.12789 0.70018 0.79539 0.0
H711 H 0.1856 0.73109 0.93883 0.0
H712 H 0.15042 0.6756 0.97027 0.0
H713 H 0.10321 0.6197 0.95693 0.0
H714 H 0.03873 0.59118 0.81659 0.0
H715 H 0.07717 0.64437 0.78286 0.0
C716 C 0.13182 0.69482 0.83372 0.0
C717 C 0.15846 0.71936 0.86534 0.0
C718 C 0.1109 0.66341 0.85146 0.0
C719 C 0.16435 0.71263 0.91469 0.0
C720 C 0.1446 0.68091 0.93232 0.0
C721 C 0.09774 0.62472 0.91877 0.0
C722 C 0.06862 0.60136 0.88898 0.0
C723 C 0.11798 0.65617 0.90096 0.0
C724 C 0.0614 0.60867 0.83989 0.0
C725 C 0.08303 0.63917 0.82089 0.0
H726 H 0.35493 0.24477 0.97256 0.0
H727 H 0.26673 0.14811 0.95456 0.0
H728 H 0.31307 0.11102 0.97777 0.0
H729 H 0.37992 0.10523 0.9782 0.0
H730 H 0.46917 0.20123 0.99178 0.0
H731 H 0.42141 0.23984 0.99474 0.0
C732 C 0.34582 0.21577 0.97591 0.0
C733 C 0.30812 0.19881 0.96011 0.0
C734 C 0.37303 0.19456 0.98619 0.0
C735 C 0.29586 0.16154 0.96581 0.0
C736 C 0.32248 0.14029 0.97814 0.0
C737 C 0.38878 0.13463 0.98244 0.0
C738 C 0.42743 0.15079 0.98241 0.0
C739 C 0.36138 0.15628 0.98407 0.0
C740 C 0.43922 0.1886 0.99026 0.0
C741 C 0.41202 0.21051 0.99218 0.0
H742 H 0.84287 0.38148 0.84463 0.0
H743 H 0.87379 0.28768 0.90881 0.0
H744 H 0.92957 0.32628 0.95401 0.0
H745 H 0.9735 0.38573 0.96862 0.0
H746 H 0.94308 0.47958 0.90362 0.0
H747 H 0.88384 0.44208 0.86555 0.0
C748 C 0.8612 0.36965 0.86958 0.0
C749 C 0.85396 0.33168 0.87333 0.0
C750 C 0.89406 0.39196 0.89455 0.0
C751 C 0.87854 0.3168 0.90525 0.0
C752 C 0.91072 0.33884 0.93083 0.0
C753 C 0.95384 0.39808 0.94639 0.0
C754 C 0.96324 0.43549 0.93874 0.0
C755 C 0.91948 0.3763 0.92456 0.0
C756 C 0.93699 0.45089 0.91009 0.0
C757 C 0.90291 0.42942 0.88825 0.0
H758 H 0.75931 0.87729 0.86547 0.0
H759 H 0.66787 0.78301 0.83938 0.0
H760 H 0.62318 0.81784 0.86995 0.0
H761 H 0.60853 0.87492 0.90157 0.0
H762 H 0.69838 0.96967 0.93234 0.0
H763 H 0.74468 0.93505 0.90254 0.0
C764 C 0.72971 0.86424 0.86697 0.0
C765 C 0.71733 0.82723 0.84965 0.0
C766 C 0.7035 0.88474 0.88483 0.0
C767 C 0.67864 0.81118 0.8521 0.0
C768 C 0.65279 0.83122 0.86946 0.0
C769 C 0.63816 0.88836 0.90141 0.0
C770 C 0.64954 0.92532 0.91845 0.0
C771 C 0.66467 0.86808 0.88519 0.0
C772 C 0.68844 0.94156 0.91884 0.0
C773 C 0.71502 0.92161 0.90195 0.0
H774 H 0.83249 0.68714 0.19116 0.0
H775 H 0.89823 0.78787 0.14848 0.0
H776 H 0.94109 0.7548 0.10885 0.0
H777 H 0.95955 0.69751 0.08496 0.0
H778 H 0.89212 0.59583 0.12173 0.0
H779 H 0.85017 0.62879 0.16448 0.0
C780 C 0.85641 0.70174 0.17351 0.0
C781 C 0.86236 0.73994 0.17311 0.0
C782 C 0.88048 0.68236 0.14938 0.0
C783 C 0.89305 0.7585 0.14934 0.0
C784 C 0.91758 0.73962 0.12662 0.0
C785 C 0.93576 0.68251 0.10249 0.0
C786 C 0.9292 0.64427 0.10053 0.0
C787 C 0.91149 0.70158 0.12618 0.0
C788 C 0.89782 0.62528 0.1227 0.0
C789 C 0.8739 0.64414 0.14729 0.0
H790 H 0.33053 0.89033 0.16274 0.0
H791 H 0.39874 0.81058 0.19742 0.0
H792 H 0.4524 0.84651 0.16176 0.0
H793 H 0.48223 0.90046 0.12191 0.0
H794 H 0.41742 0.98186 0.08401 0.0
H795 H 0.36159 0.94594 0.1189 0.0
C796 C 0.35699 0.88057 0.1623 0.0
C797 C 0.35944 0.8468 0.18361 0.0
C798 C 0.38911 0.90204 0.14098 0.0
C799 C 0.39481 0.83573 0.18204 0.0
C800 C 0.42605 0.85656 0.16141 0.0
C801 C 0.45608 0.91087 0.12094 0.0
C802 C 0.45524 0.9448 0.09986 0.0
C803 C 0.42385 0.88982 0.141 0.0
C804 C 0.42004 0.95643 0.09955 0.0
C805 C 0.38776 0.9356 0.11979 0.0
H806 H 0.68693 0.17315 0.24944 0.0
H807 H 0.7332 0.23057 0.12822 0.0
H808 H 0.68422 0.19227 0.07123 0.0
H809 H 0.62471 0.14612 0.05708 0.0
H810 H 0.58117 0.0855 0.17696 0.0
H811 H 0.63268 0.12121 0.23351 0.0
C812 C 0.68657 0.17681 0.21043 0.0
C813 C 0.71329 0.20475 0.19296 0.0
C814 C 0.65867 0.15438 0.17786 0.0
C815 C 0.71293 0.2091 0.1424 0.0
C816 C 0.68479 0.18741 0.10987 0.0
C817 C 0.62692 0.14058 0.09553 0.0
C818 C 0.59923 0.11377 0.11331 0.0
C819 C 0.657 0.16058 0.12737 0.0
C820 C 0.60236 0.10617 0.16281 0.0
C821 C 0.63164 0.12662 0.19504 0.0
H822 H 0.6057 0.61508 0.72553 0.0
H823 H 0.70618 0.63181 0.8273 0.0
H824 H 0.67278 0.58991 0.88127 0.0
H825 H 0.61145 0.56093 0.90854 0.0
H826 H 0.50945 0.54802 0.80983 0.0
H827 H 0.54692 0.57553 0.74605 0.0
C828 C 0.62046 0.60892 0.75904 0.0
C829 C 0.6579 0.62762 0.77292 0.0
C830 C 0.60052 0.586 0.79122 0.0
C831 C 0.67721 0.61836 0.81561 0.0
C832 C 0.65796 0.59456 0.84701 0.0
C833 C 0.5975 0.56328 0.87271 0.0
C834 C 0.55759 0.55379 0.86463 0.0
C835 C 0.61899 0.58015 0.83662 0.0
C836 C 0.54008 0.55614 0.81755 0.0
C837 C 0.56146 0.57191 0.78098 0.0
H838 H 0.39913 0.73624 0.81868 0.0
H839 H 0.28573 0.67623 0.83403 0.0
H840 H 0.31217 0.63192 0.88123 0.0
H841 H 0.36766 0.60918 0.9164 0.0
H842 H 0.48103 0.67168 0.90709 0.0
H843 H 0.45463 0.71623 0.86034 0.0
C844 C 0.3803 0.71344 0.83243 0.0
C845 C 0.34051 0.70927 0.82236 0.0
C846 C 0.39573 0.68861 0.86098 0.0
C847 C 0.31641 0.67999 0.84119 0.0
C848 C 0.33154 0.65464 0.86817 0.0
C849 C 0.38661 0.63269 0.90448 0.0
C850 C 0.42637 0.63682 0.91501 0.0
C851 C 0.37116 0.65854 0.87813 0.0
C852 C 0.45037 0.66775 0.89968 0.0
C853 C 0.43527 0.69317 0.87261 0.0
H854 H 0.37688 0.31528 0.89739 0.0
H855 H 0.38336 0.38189 0.77319 0.0
H856 H 0.42853 0.43009 0.82142 0.0
H857 H 0.4643 0.45414 0.89916 0.0
H858 H 0.46017 0.38745 0.02304 0.0
H859 H 0.41557 0.33838 0.97455 0.0
C860 C 0.38839 0.34024 0.88075 0.0
C861 C 0.37661 0.34503 0.83178 0.0
C862 C 0.41437 0.36791 0.90872 0.0
C863 C 0.39198 0.37743 0.81072 0.0
C864 C 0.41765 0.40511 0.83835 0.0
C865 C 0.4535 0.42896 0.91575 0.0
C866 C 0.46507 0.42457 0.96483 0.0
C867 C 0.42861 0.40081 0.88749 0.0
C868 C 0.45144 0.39151 0.9854 0.0
C869 C 0.42605 0.36349 0.95768 0.0
H870 H 0.65014 0.31242 0.83143 0.0
H871 H 0.67762 0.41266 0.75979 0.0
H872 H 0.64805 0.44382 0.82217 0.0
H873 H 0.62238 0.44383 0.90154 0.0
H874 H 0.59493 0.34427 0.97492 0.0
H875 H 0.61788 0.31104 0.90751 0.0
C876 C 0.64901 0.34096 0.82934 0.0
C877 C 0.66643 0.36066 0.79212 0.0
C878 C 0.63334 0.35869 0.86605 0.0
C879 C 0.66423 0.39724 0.78835 0.0
C880 C 0.64793 0.41505 0.82427 0.0
C881 C 0.62182 0.41489 0.90301 0.0
C882 C 0.60856 0.39644 0.94343 0.0
C883 C 0.63399 0.39632 0.86418 0.0
C884 C 0.60609 0.35882 0.94433 0.0
C885 C 0.61883 0.33998 0.90584 0.0
H886 H 0.66956 0.32927 0.21709 0.0
H887 H 0.78129 0.38497 0.18565 0.0
H888 H 0.75293 0.42873 0.14003 0.0
H889 H 0.6965 0.45221 0.1106 0.0
H890 H 0.58432 0.39441 0.13685 0.0
H891 H 0.61256 0.35032 0.18226 0.0
C892 C 0.68763 0.35103 0.20024 0.0
C893 C 0.72752 0.35408 0.20519 0.0
C894 C 0.67101 0.37565 0.17291 0.0
C895 C 0.75054 0.38204 0.18247 0.0
C896 C 0.73433 0.40711 0.15639 0.0
C897 C 0.67821 0.42985 0.12605 0.0
C898 C 0.63835 0.42683 0.12065 0.0
C899 C 0.69463 0.40431 0.15155 0.0
C900 C 0.61507 0.3974 0.14036 0.0
C901 C 0.63123 0.37225 0.16658 0.0
H902 H 0.7082 0.68525 0.18961 0.0
H903 H 0.68962 0.77675 0.109 0.0
H904 H 0.63757 0.73757 0.05725 0.0
H905 H 0.59704 0.67673 0.03499 0.0
H906 H 0.6199 0.5852 0.1134 0.0
H907 H 0.67038 0.62474 0.16514 0.0
C908 C 0.69253 0.6966 0.16094 0.0
C909 C 0.70238 0.73376 0.15342 0.0
C910 C 0.66346 0.6738 0.1305 0.0
C911 C 0.68242 0.7481 0.11552 0.0
C912 C 0.65269 0.72573 0.08588 0.0
C913 C 0.61323 0.66547 0.06318 0.0
C914 C 0.60432 0.628 0.07017 0.0
C915 C 0.64297 0.68842 0.09292 0.0
C916 C 0.62585 0.61389 0.10689 0.0
C917 C 0.65481 0.6365 0.13686 0.0
H918 H 0.35687 0.6571 0.22522 0.0
H919 H 0.46018 0.72766 0.28765 0.0
H920 H 0.4945 0.7096 0.21908 0.0
H921 H 0.49199 0.67897 0.13665 0.0
H922 H 0.38534 0.61407 0.0717 0.0
H923 H 0.35423 0.62656 0.1448 0.0
C924 C 0.38725 0.66746 0.22427 0.0
C925 C 0.40628 0.69336 0.26071 0.0
C926 C 0.40527 0.65963 0.18315 0.0
C927 C 0.44541 0.70717 0.25995 0.0
C928 C 0.46456 0.69763 0.22023 0.0
C929 C 0.46174 0.66838 0.13816 0.0
C930 C 0.44069 0.64614 0.09886 0.0
C931 C 0.44421 0.6752 0.18057 0.0
C932 C 0.40182 0.63168 0.10146 0.0
C933 C 0.38423 0.63827 0.14341 0.0
H934 H 0.45913 0.43507 0.2962 0.0
H935 H 0.35832 0.42312 0.19612 0.0
H936 H 0.39269 0.46564 0.1429 0.0
H937 H 0.45355 0.49772 0.11866 0.0
H938 H 0.55543 0.50785 0.21697 0.0
H939 H 0.51816 0.47584 0.27792 0.0
C940 C 0.44458 0.44254 0.26335 0.0
C941 C 0.40676 0.42526 0.24919 0.0
C942 C 0.4647 0.46657 0.23254 0.0
C943 C 0.38791 0.43522 0.20678 0.0
C944 C 0.40744 0.45967 0.17652 0.0
C945 C 0.46755 0.49364 0.15379 0.0
C946 C 0.50732 0.50409 0.16259 0.0
C947 C 0.44626 0.47419 0.18798 0.0
C948 C 0.52487 0.4994 0.2088 0.0
C949 C 0.50364 0.48091 0.24365 0.0
H950 H 0.89463 0.73616 0.71992 0.0
H951 H 0.78806 0.67828 0.64626 0.0
H952 H 0.81979 0.63143 0.61374 0.0
H953 H 0.87751 0.60398 0.61055 0.0
H954 H 0.98375 0.66251 0.68439 0.0
H955 H 0.95264 0.71075 0.71268 0.0
C956 C 0.87844 0.7137 0.696 0.0
C957 C 0.83885 0.71117 0.68564 0.0
C958 C 0.89682 0.68617 0.67791 0.0
C959 C 0.8185 0.68129 0.65503 0.0
C960 C 0.83665 0.65419 0.6365 0.0
C961 C 0.89393 0.62755 0.63213 0.0
C962 C 0.93313 0.62922 0.64488 0.0
C963 C 0.87574 0.65587 0.64836 0.0
C964 C 0.95358 0.65991 0.67393 0.0
C965 C 0.9358 0.68787 0.69012 0.0
H966 H 0.43591 0.86966 0.70834 0.0
H967 H 0.45496 0.81685 0.57218 0.0
H968 H 0.49686 0.87307 0.55165 0.0
H969 H 0.51515 0.93962 0.56481 0.0
H970 H 0.48453 0.99343 0.69401 0.0
H971 H 0.45984 0.9345 0.72564 0.0
C972 C 0.44964 0.87043 0.67447 0.0
C973 C 0.44164 0.83989 0.64099 0.0
C974 C 0.4712 0.90312 0.66186 0.0
C975 C 0.46057 0.84038 0.59807 0.0
C976 C 0.48414 0.87251 0.5863 0.0
C977 C 0.50432 0.93825 0.60066 0.0
C978 C 0.50144 0.97037 0.6273 0.0
C979 C 0.48786 0.90447 0.61674 0.0
C980 C 0.48685 0.96876 0.67324 0.0
C981 C 0.47267 0.93518 0.69108 0.0
H982 H 0.21779 0.31957 0.57361 0.0
H983 H 0.31253 0.41024 0.58061 0.0
H984 H 0.26979 0.44999 0.55232 0.0
H985 H 0.2056 0.45992 0.53752 0.0
H986 H 0.10883 0.37093 0.5355 0.0
H987 H 0.15239 0.32865 0.54962 0.0
C988 C 0.22881 0.34783 0.56734 0.0
C989 C 0.2678 0.36248 0.57847 0.0
C990 C 0.20384 0.37048 0.55324 0.0
C991 C 0.28251 0.39894 0.57155 0.0
C992 C 0.25811 0.42145 0.55593 0.0
C993 C 0.19379 0.43127 0.54025 0.0
C994 C 0.15408 0.41858 0.53724 0.0
C995 C 0.21868 0.40775 0.54875 0.0
C996 C 0.13934 0.38127 0.53876 0.0
C997 C 0.16419 0.35725 0.54672 0.0
H998 H 0.7661 0.16299 0.64663 0.0
H999 H 0.6882 0.23724 0.6441 0.0
H1000 H 0.64003 0.19195 0.59548 0.0
H1001 H 0.61726 0.12872 0.56066 0.0
H1002 H 0.6964 0.05554 0.56087 0.0
H1003 H 0.74613 0.10268 0.60273 0.0
C1004 C 0.73885 0.16953 0.63477 0.0
C1005 C 0.7309 0.20347 0.64975 0.0
C1006 C 0.71093 0.14321 0.60674 0.0
C1007 C 0.69532 0.21135 0.63357 0.0
C1008 C 0.66749 0.18532 0.60586 0.0
C1009 C 0.64547 0.12317 0.56933 0.0
C1010 C 0.65249 0.08816 0.55807 0.0
C1011 C 0.67452 0.15072 0.5934 0.0
C1012 C 0.68961 0.08191 0.56931 0.0
C1013 C 0.71833 0.10895 0.59341 0.0
H1014 H 0.88558 0.37603 0.32661 0.0
H1015 H 0.79192 0.37037 0.41795 0.0
H1016 H 0.82665 0.42397 0.46787 0.0
H1017 H 0.88342 0.473 0.48468 0.0
H1018 H 0.97718 0.47684 0.39358 0.0
H1019 H 0.94219 0.42381 0.34407 0.0
C1020 C 0.87274 0.38643 0.35748 0.0
C1021 C 0.83628 0.36928 0.36851 0.0
C1022 C 0.89274 0.41713 0.38593 0.0
C1023 C 0.82005 0.38311 0.40867 0.0
C1024 C 0.83982 0.41379 0.43719 0.0
C1025 C 0.89627 0.46208 0.45427 0.0
C1026 C 0.93297 0.47878 0.44328 0.0
C1027 C 0.87617 0.43111 0.42604 0.0
C1028 C 0.949 0.46455 0.40315 0.0
C1029 C 0.92907 0.43412 0.37472 0.0
H1030 H 0.74274 0.8554 0.36064 0.0
H1031 H 0.69775 0.87566 0.21678 0.0
H1032 H 0.6553 0.9112 0.25349 0.0
H1033 H 0.63015 0.93573 0.32649 0.0
H1034 H 0.67934 0.92074 0.47036 0.0
H1035 H 0.72096 0.88411 0.43389 0.0
C1036 C 0.72362 0.86763 0.33736 0.0
C1037 C 0.72313 0.86253 0.28593 0.0
C1038 C 0.70003 0.88895 0.35882 0.0
C1039 C 0.69869 0.87909 0.25633 0.0
C1040 C 0.67434 0.89936 0.27736 0.0
C1041 C 0.64997 0.92444 0.34993 0.0
C1042 C 0.65113 0.93055 0.40129 0.0
C1043 C 0.67462 0.90433 0.32855 0.0
C1044 C 0.6776 0.91633 0.43091 0.0
C1045 C 0.7014 0.89532 0.40998 0.0
H1046 H 0.15403 0.73087 0.34789 0.0
H1047 H 0.25235 0.67999 0.35241 0.0
H1048 H 0.21784 0.62932 0.39194 0.0
H1049 H 0.1598 0.59623 0.42338 0.0
H1050 H 0.06024 0.64399 0.42474 0.0
H1051 H 0.09465 0.69777 0.38667 0.0
C1052 C 0.16806 0.70885 0.35764 0.0
C1053 C 0.20676 0.71047 0.34606 0.0
C1054 C 0.14759 0.67854 0.38218 0.0
C1055 C 0.22334 0.68087 0.36005 0.0
C1056 C 0.20338 0.65125 0.38302 0.0
C1057 C 0.14544 0.61853 0.41614 0.0
C1058 C 0.10697 0.61529 0.42783 0.0
C1059 C 0.16554 0.64946 0.39412 0.0
C1060 C 0.08968 0.64513 0.41744 0.0
C1061 C 0.10951 0.67602 0.39492 0.0
H1062 H 0.38248 0.25872 0.37862 0.0
H1063 H 0.27392 0.18372 0.3654 0.0
H1064 H 0.30375 0.13761 0.40305 0.0
H1065 H 0.36114 0.11677 0.43528 0.0
H1066 H 0.46997 0.19111 0.44992 0.0
H1067 H 0.43967 0.23891 0.41652 0.0
C1068 C 0.36516 0.2325 0.38465 0.0
C1069 C 0.32571 0.225 0.36885 0.0
C1070 C 0.38272 0.20565 0.40621 0.0
C1071 C 0.30412 0.19059 0.37696 0.0
C1072 C 0.32128 0.16399 0.39839 0.0
C1073 C 0.37837 0.14344 0.43136 0.0
C1074 C 0.41808 0.14998 0.44483 0.0
C1075 C 0.36065 0.17092 0.41234 0.0
C1076 C 0.43951 0.18504 0.4399 0.0
C1077 C 0.42212 0.21245 0.42067 0.0
H1078 H 0.68468 0.79706 0.65168 0.0
H1079 H 0.79194 0.8741 0.67096 0.0
H1080 H 0.76371 0.91754 0.62485 0.0
H1081 H 0.70793 0.93564 0.58397 0.0
H1082 H 0.59995 0.86 0.56457 0.0
H1083 H 0.62915 0.81411 0.60525 0.0
C1084 C 0.70208 0.82314 0.6452 0.0
C1085 C 0.7406 0.83211 0.66512 0.0
C1086 C 0.68542 0.84845 0.61887 0.0
C1087 C 0.7624 0.86624 0.65635 0.0
C1088 C 0.74618 0.89125 0.63001 0.0
C1089 C 0.69064 0.90905 0.58827 0.0
C1090 C 0.65152 0.90156 0.57142 0.0
C1091 C 0.70759 0.88296 0.61193 0.0
C1092 C 0.63 0.86668 0.57703 0.0
C1093 C 0.64673 0.84045 0.60053 0.0
H1094 H 0.60221 0.22174 0.38699 0.0
H1095 H 0.70734 0.21601 0.46986 0.0
H1096 H 0.6833 0.15234 0.48307 0.0
H1097 H 0.638 0.09698 0.45725 0.0
H1098 H 0.52903 0.1009 0.38265 0.0
H1099 H 0.54913 0.16722 0.37836 0.0
C1100 C 0.61876 0.20691 0.41017 0.0
C1101 C 0.65659 0.2228 0.42688 0.0
C1102 C 0.60475 0.17009 0.41705 0.0
C1103 C 0.67819 0.20378 0.45674 0.0
C1104 C 0.66469 0.16738 0.46356 0.0
C1105 C 0.61822 0.11234 0.44101 0.0
C1106 C 0.58258 0.09433 0.41926 0.0
C1107 C 0.62899 0.14995 0.44146 0.0
C1108 C 0.55705 0.11446 0.39859 0.0
C1109 C 0.56838 0.15221 0.39663 0.0
H1110 H 0.79014 0.68577 0.44778 0.0
H1111 H 0.88145 0.76658 0.40267 0.0
H1112 H 0.92847 0.73899 0.44788 0.0
H1113 H 0.94343 0.68478 0.48659 0.0
H1114 H 0.85076 0.60253 0.52602 0.0
H1115 H 0.80477 0.63838 0.4988 0.0
C1116 C 0.82022 0.69799 0.44913 0.0
C1117 C 0.83238 0.72723 0.42066 0.0
C1118 C 0.84703 0.6815 0.4741 0.0
C1119 C 0.8715 0.74307 0.42294 0.0
C1120 C 0.89841 0.72742 0.44891 0.0
C1121 C 0.91328 0.67537 0.49037 0.0
C1122 C 0.90041 0.64096 0.50738 0.0
C1123 C 0.88657 0.69542 0.47244 0.0
C1124 C 0.86128 0.62885 0.51228 0.0
C1125 C 0.83486 0.64923 0.49659 0.0
H1126 H 0.36575 0.83774 0.39617 0.0
H1127 H 0.28213 0.89899 0.34543 0.0
H1128 H 0.31958 0.95397 0.39008 0.0
H1129 H 0.37957 0.98612 0.43649 0.0
H1130 H 0.46324 0.92428 0.48564 0.0
H1131 H 0.4222 0.86842 0.4492 0.0
C1132 C 0.3553 0.86295 0.39543 0.0
C1133 C 0.32116 0.86407 0.36699 0.0
C1134 C 0.3773 0.89466 0.42063 0.0
C1135 C 0.30821 0.89712 0.36685 0.0
C1136 C 0.32979 0.92873 0.39223 0.0
C1137 C 0.38861 0.96038 0.43996 0.0
C1138 C 0.4249 0.95978 0.46341 0.0
C1139 C 0.36492 0.92807 0.4182 0.0
C1140 C 0.43585 0.92593 0.46742 0.0
C1141 C 0.41233 0.89381 0.44648 0.0
H1142 H 0.17012 0.32482 0.32253 0.0
H1143 H 0.27636 0.38008 0.39949 0.0
H1144 H 0.24453 0.42644 0.43411 0.0
H1145 H 0.18675 0.45434 0.43776 0.0
H1146 H 0.08171 0.39892 0.35745 0.0
H1147 H 0.11265 0.35067 0.32906 0.0
C1148 C 0.18628 0.34662 0.34753 0.0
C1149 C 0.22574 0.34852 0.35837 0.0
C1150 C 0.16797 0.37396 0.36627 0.0
C1151 C 0.24603 0.3776 0.39036 0.0
C1152 C 0.2278 0.40437 0.41006 0.0
C1153 C 0.17056 0.43156 0.41444 0.0
C1154 C 0.1317 0.43084 0.39982 0.0
C1155 C 0.18883 0.40337 0.39753 0.0
C1156 C 0.11158 0.40089 0.3692 0.0
C1157 C 0.12928 0.37293 0.35291 0.0
H1158 H 0.33006 0.20185 0.64186 0.0
H1159 H 0.38383 0.19851 0.78691 0.0
H1160 H 0.42544 0.16011 0.75418 0.0
H1161 H 0.4479 0.12912 0.68369 0.0
H1162 H 0.38938 0.12705 0.54021 0.0
H1163 H 0.34837 0.16591 0.57267 0.0
C1164 C 0.35086 0.19262 0.6663 0.0
C1165 C 0.3542 0.2034 0.71674 0.0
C1166 C 0.37394 0.16973 0.64734 0.0
C1167 C 0.38072 0.19064 0.74806 0.0
C1168 C 0.40459 0.16879 0.72926 0.0
C1169 C 0.42615 0.13714 0.65947 0.0
C1170 C 0.4224 0.12579 0.60914 0.0
C1171 C 0.40171 0.15845 0.67888 0.0
C1172 C 0.39339 0.13575 0.57872 0.0
C1173 C 0.36984 0.15796 0.59739 0.0
H1174 H 0.83259 0.36653 0.64628 0.0
H1175 H 0.91873 0.31873 0.72086 0.0
H1176 H 0.96875 0.36456 0.69094 0.0
H1177 H 0.98945 0.42203 0.64687 0.0
H1178 H 0.90277 0.46697 0.56896 0.0
H1179 H 0.85325 0.41936 0.59542 0.0
C1180 C 0.86227 0.36569 0.65573 0.0
C1181 C 0.87095 0.33834 0.68661 0.0
C1182 C 0.89164 0.39215 0.63706 0.0
C1183 C 0.91021 0.33866 0.69747 0.0
C1184 C 0.93924 0.36528 0.68024 0.0
C1185 C 0.95988 0.42079 0.63416 0.0
C1186 C 0.95078 0.44825 0.6036 0.0
C1187 C 0.93061 0.39261 0.65019 0.0
C1188 C 0.91156 0.44606 0.59019 0.0
C1189 C 0.8828 0.41883 0.60625 0.0
H1190 H 0.18528 0.68943 0.70316 0.0
H1191 H 0.27285 0.69167 0.60292 0.0
H1192 H 0.23419 0.63845 0.5557 0.0
H1193 H 0.17577 0.59082 0.54365 0.0
H1194 H 0.08869 0.58939 0.6446 0.0
H1195 H 0.1271 0.64276 0.69079 0.0
C1196 C 0.19599 0.67838 0.67094 0.0
C1197 C 0.23196 0.6945 0.65667 0.0
C1198 C 0.17376 0.64782 0.64417 0.0
C1199 C 0.24527 0.67978 0.61477 0.0
C1200 C 0.22321 0.64932 0.58777 0.0
C1201 C 0.16525 0.60212 0.57583 0.0
C1202 C 0.12947 0.58594 0.59072 0.0
C1203 C 0.18747 0.633 0.60229 0.0
C1204 C 0.11613 0.60118 0.63228 0.0
C1205 C 0.13807 0.63175 0.65878 0.0
loop_
_geom_bond_atom_site_label_1
_geom_bond_atom_site_label_2
_geom_bond_distance
_geom_bond_site_symmetry_2
_ccdc_geom_bond_type
Co0 N5 2.057 . S
Co0 O17 2.021 . S
Co0 O20 2.062 . S
Co0 O24 2.117 . S
Co0 O25 2.020 . S
C1 O21 1.259 . S
C1 O24 1.258 . S
Co2 N11 2.057 . S
Co2 O18 2.117 . S
Co2 O19 2.020 . S
Co2 O21 2.021 . S
Co2 O26 2.062 . S
C3 N5 1.316 . S
C3 N6 1.347 . S
C3 H8 0.931 . S
C4 N5 1.375 . S
C4 C7 1.350 . S
C4 H9 0.930 . S
N5 Co0 2.057 . S
N5 C3 1.316 . S
N5 C4 1.375 . S
N6 C3 1.347 . S
N6 C7 1.373 . S
C7 C4 1.350 . S
C7 N6 1.373 . S
C7 H28 0.931 . S
H8 C3 0.931 . S
H9 C4 0.930 . S
C10 O17 1.259 . S
C10 O18 1.258 . S
N11 Co2 2.057 . S
N11 C12 1.316 . S
N11 C13 1.375 . S
C12 N11 1.316 . S
C12 N14 1.347 . S
C12 H23 0.931 . S
C13 N11 1.375 . S
C13 C15 1.350 . S
C13 H22 0.930 . S
N14 C12 1.347 . S
N14 C15 1.373 . S
C15 C13 1.350 . S
C15 N14 1.373 . S
C15 H29 0.931 . S
C16 O19 1.256 . S
C16 O20 1.255 . S
O17 Co0 2.021 . S
O17 C10 1.259 . S
O18 Co2 2.117 . S
O18 C10 1.258 . S
O19 Co2 2.020 . S
O19 C16 1.256 . S
O20 Co0 2.062 . S
O20 C16 1.255 . S
O21 C1 1.259 . S
O21 Co2 2.021 . S
H22 C13 0.930 . S
H23 C12 0.931 . S
O24 Co0 2.117 . S
O24 C1 1.258 . S
O25 Co0 2.020 . S
O25 C27 1.256 . S
O26 Co2 2.062 . S
O26 C27 1.255 . S
C27 O25 1.256 . S
C27 O26 1.255 . S
H28 C7 0.931 . S
H29 C15 0.931 . S
Co30 N35 2.057 . S
Co30 O47 2.021 . S
Co30 O50 2.062 . S
Co30 O54 2.117 . S
Co30 O55 2.020 . S
C31 O51 1.259 . S
C31 O54 1.258 . S
Co32 N41 2.057 . S
Co32 O48 2.117 . S
Co32 O49 2.020 . S
Co32 O51 2.021 . S
Co32 O56 2.062 . S
C33 N35 1.316 . S
C33 N36 1.347 . S
C33 H38 0.931 . S
C34 N35 1.375 . S
C34 C37 1.350 . S
C34 H39 0.930 . S
N35 Co30 2.057 . S
N35 C33 1.316 . S
N35 C34 1.375 . S
N36 C33 1.347 . S
N36 C37 1.373 . S
C37 C34 1.350 . S
C37 N36 1.373 . S
C37 H58 0.931 . S
H38 C33 0.931 . S
H39 C34 0.930 . S
C40 O47 1.259 . S
C40 O48 1.258 . S
N41 Co32 2.057 . S
N41 C42 1.316 . S
N41 C43 1.375 . S
C42 N41 1.316 . S
C42 N44 1.347 . S
C42 H53 0.931 . S
C43 N41 1.375 . S
C43 C45 1.350 . S
C43 H52 0.930 . S
N44 C42 1.347 . S
N44 C45 1.373 . S
C45 C43 1.350 . S
C45 N44 1.373 . S
C45 H59 0.931 . S
C46 O49 1.256 . S
C46 O50 1.255 . S
O47 Co30 2.021 . S
O47 C40 1.259 . S
O48 Co32 2.117 . S
O48 C40 1.258 . S
O49 Co32 2.020 . S
O49 C46 1.256 . S
O50 Co30 2.062 . S
O50 C46 1.255 . S
O51 C31 1.259 . S
O51 Co32 2.021 . S
H52 C43 0.930 . S
H53 C42 0.931 . S
O54 Co30 2.117 . S
O54 C31 1.258 . S
O55 Co30 2.020 . S
O55 C57 1.256 . S
O56 Co32 2.062 . S
O56 C57 1.255 . S
C57 O55 1.256 . S
C57 O56 1.255 . S
H58 C37 0.931 . S
H59 C45 0.931 . S
Co60 N65 2.057 . S
Co60 O77 2.021 . S
Co60 O80 2.062 . S
Co60 O84 2.117 . S
Co60 O85 2.020 . S
C61 O81 1.259 . S
C61 O84 1.258 . S
Co62 N71 2.057 . S
Co62 O78 2.117 . S
Co62 O79 2.020 . S
Co62 O81 2.021 . S
Co62 O86 2.062 . S
C63 N65 1.316 . S
C63 N66 1.347 . S
C63 H68 0.931 . S
C64 N65 1.375 . S
C64 C67 1.350 . S
C64 H69 0.930 . S
N65 Co60 2.057 . S
N65 C63 1.316 . S
N65 C64 1.375 . S
N66 C63 1.347 . S
N66 C67 1.373 . S
C67 C64 1.350 . S
C67 N66 1.373 . S
C67 H88 0.931 . S
H68 C63 0.931 . S
H69 C64 0.930 . S
C70 O77 1.259 . S
C70 O78 1.258 . S
N71 Co62 2.057 . S
N71 C72 1.316 . S
N71 C73 1.375 . S
C72 N71 1.316 . S
C72 N74 1.347 . S
C72 H83 0.931 . S
C73 N71 1.375 . S
C73 C75 1.350 . S
C73 H82 0.930 . S
N74 C72 1.347 . S
N74 C75 1.373 . S
C75 C73 1.350 . S
C75 N74 1.373 . S
C75 H89 0.931 . S
C76 O79 1.256 . S
C76 O80 1.255 . S
O77 Co60 2.021 . S
O77 C70 1.259 . S
O78 Co62 2.117 . S
O78 C70 1.258 . S
O79 Co62 2.020 . S
O79 C76 1.256 . S
O80 Co60 2.062 . S
O80 C76 1.255 . S
O81 C61 1.259 . S
O81 Co62 2.021 . S
H82 C73 0.930 . S
H83 C72 0.931 . S
O84 Co60 2.117 . S
O84 C61 1.258 . S
O85 Co60 2.020 . S
O85 C87 1.256 . S
O86 Co62 2.062 . S
O86 C87 1.255 . S
C87 O85 1.256 . S
C87 O86 1.255 . S
H88 C67 0.931 . S
H89 C75 0.931 . S
Co90 N95 2.057 . S
Co90 O107 2.021 . S
Co90 O110 2.062 . S
Co90 O114 2.117 . S
Co90 O115 2.020 . S
C91 O111 1.259 . S
C91 O114 1.258 . S
Co92 N101 2.057 . S
Co92 O108 2.117 . S
Co92 O109 2.020 . S
Co92 O111 2.021 . S
Co92 O116 2.062 . S
C93 N95 1.316 . S
C93 N96 1.347 . S
C93 H98 0.931 . S
C94 N95 1.375 . S
C94 C97 1.350 . S
C94 H99 0.930 . S
N95 Co90 2.057 . S
N95 C93 1.316 . S
N95 C94 1.375 . S
N96 C93 1.347 . S
N96 C97 1.373 . S
C97 C94 1.350 . S
C97 N96 1.373 . S
C97 H118 0.931 . S
H98 C93 0.931 . S
H99 C94 0.930 . S
C100 O107 1.259 . S
C100 O108 1.258 . S
N101 Co92 2.057 . S
N101 C102 1.316 . S
N101 C103 1.375 . S
C102 N101 1.316 . S
C102 N104 1.347 . S
C102 H113 0.931 . S
C103 N101 1.375 . S
C103 C105 1.350 . S
C103 H112 0.930 . S
N104 C102 1.347 . S
N104 C105 1.373 . S
C105 C103 1.350 . S
C105 N104 1.373 . S
C105 H119 0.931 . S
C106 O109 1.256 . S
C106 O110 1.255 . S
O107 Co90 2.021 . S
O107 C100 1.259 . S
O108 Co92 2.117 . S
O108 C100 1.258 . S
O109 Co92 2.020 . S
O109 C106 1.256 . S
O110 Co90 2.062 . S
O110 C106 1.255 . S
O111 C91 1.259 . S
O111 Co92 2.021 . S
H112 C103 0.930 . S
H113 C102 0.931 . S
O114 Co90 2.117 . S
O114 C91 1.258 . S
O115 Co90 2.020 . S
O115 C117 1.256 . S
O116 Co92 2.062 . S
O116 C117 1.255 . S
C117 O115 1.256 . S
C117 O116 1.255 . S
H118 C97 0.931 . S
H119 C105 0.931 . S
Co120 N125 2.057 . S
Co120 O137 2.021 . S
Co120 O140 2.062 . S
Co120 O144 2.117 . S
Co120 O145 2.020 . S
C121 O141 1.259 . S
C121 O144 1.258 . S
Co122 N131 2.057 . S
Co122 O138 2.117 . S
Co122 O139 2.020 . S
Co122 O141 2.021 . S
Co122 O146 2.062 . S
C123 N125 1.316 . S
C123 N126 1.347 . S
C123 H128 0.931 . S
C124 N125 1.375 . S
C124 C127 1.350 . S
C124 H129 0.930 . S
N125 Co120 2.057 . S
N125 C123 1.316 . S
N125 C124 1.375 . S
N126 C123 1.347 . S
N126 C127 1.373 . S
C127 C124 1.350 . S
C127 N126 1.373 . S
C127 H148 0.931 . S
H128 C123 0.931 . S
H129 C124 0.930 . S
C130 O137 1.259 . S
C130 O138 1.258 . S
N131 Co122 2.057 . S
N131 C132 1.316 . S
N131 C133 1.375 . S
C132 N131 1.316 . S
C132 N134 1.347 . S
C132 H143 0.931 . S
C133 N131 1.375 . S
C133 C135 1.350 . S
C133 H142 0.930 . S
N134 C132 1.347 . S
N134 C135 1.373 . S
C135 C133 1.350 . S
C135 N134 1.373 . S
C135 H149 0.931 . S
C136 O139 1.256 . S
C136 O140 1.255 . S
O137 Co120 2.021 . S
O137 C130 1.259 . S
O138 Co122 2.117 . S
O138 C130 1.258 . S
O139 Co122 2.020 . S
O139 C136 1.256 . S
O140 Co120 2.062 . S
O140 C136 1.255 . S
O141 C121 1.259 . S
O141 Co122 2.021 . S
H142 C133 0.930 . S
H143 C132 0.931 . S
O144 Co120 2.117 . S
O144 C121 1.258 . S
O145 Co120 2.020 . S
O145 C147 1.256 . S
O146 Co122 2.062 . S
O146 C147 1.255 . S
C147 O145 1.256 . S
C147 O146 1.255 . S
H148 C127 0.931 . S
H149 C135 0.931 . S
Co150 N155 2.057 . S
Co150 O167 2.021 . S
Co150 O170 2.062 . S
Co150 O174 2.117 . S
Co150 O175 2.020 . S
C151 O171 1.259 . S
C151 O174 1.258 . S
Co152 N161 2.057 . S
Co152 O168 2.117 . S
Co152 O169 2.020 . S
Co152 O171 2.021 . S
Co152 O176 2.062 . S
C153 N155 1.316 . S
C153 N156 1.347 . S
C153 H158 0.931 . S
C154 N155 1.375 . S
C154 C157 1.350 . S
C154 H159 0.930 . S
N155 Co150 2.057 . S
N155 C153 1.316 . S
N155 C154 1.375 . S
N156 C153 1.347 . S
N156 C157 1.373 . S
C157 C154 1.350 . S
C157 N156 1.373 . S
C157 H178 0.931 . S
H158 C153 0.931 . S
H159 C154 0.930 . S
C160 O167 1.259 . S
C160 O168 1.258 . S
N161 Co152 2.057 . S
N161 C162 1.316 . S
N161 C163 1.375 . S
C162 N161 1.316 . S
C162 N164 1.347 . S
C162 H173 0.931 . S
C163 N161 1.375 . S
C163 C165 1.350 . S
C163 H172 0.930 . S
N164 C162 1.347 . S
N164 C165 1.373 . S
C165 C163 1.350 . S
C165 N164 1.373 . S
C165 H179 0.931 . S
C166 O169 1.256 . S
C166 O170 1.255 . S
O167 Co150 2.021 . S
O167 C160 1.259 . S
O168 Co152 2.117 . S
O168 C160 1.258 . S
O169 Co152 2.020 . S
O169 C166 1.256 . S
O170 Co150 2.062 . S
O170 C166 1.255 . S
O171 C151 1.259 . S
O171 Co152 2.021 . S
H172 C163 0.930 . S
H173 C162 0.931 . S
O174 Co150 2.117 . S
O174 C151 1.258 . S
O175 Co150 2.020 . S
O175 C177 1.256 . S
O176 Co152 2.062 . S
O176 C177 1.255 . S
C177 O175 1.256 . S
C177 O176 1.255 . S
H178 C157 0.931 . S
H179 C165 0.931 . S
Co180 N185 2.057 . S
Co180 O197 2.021 . S
Co180 O200 2.062 . S
Co180 O204 2.117 . S
Co180 O205 2.020 . S
C181 O201 1.259 . S
C181 O204 1.258 . S
Co182 N191 2.057 . S
Co182 O198 2.117 . S
Co182 O199 2.020 . S
Co182 O201 2.021 . S
Co182 O206 2.062 . S
C183 N185 1.316 . S
C183 N186 1.347 . S
C183 H188 0.931 . S
C184 N185 1.375 . S
C184 C187 1.350 . S
C184 H189 0.930 . S
N185 Co180 2.057 . S
N185 C183 1.316 . S
N185 C184 1.375 . S
N186 C183 1.347 . S
N186 C187 1.373 . S
C187 C184 1.350 . S
C187 N186 1.373 . S
C187 H208 0.931 . S
H188 C183 0.931 . S
H189 C184 0.930 . S
C190 O197 1.259 . S
C190 O198 1.258 . S
N191 Co182 2.057 . S
N191 C192 1.316 . S
N191 C193 1.375 . S
C192 N191 1.316 . S
C192 N194 1.347 . S
C192 H203 0.931 . S
C193 N191 1.375 . S
C193 C195 1.350 . S
C193 H202 0.930 . S
N194 C192 1.347 . S
N194 C195 1.373 . S
C195 C193 1.350 . S
C195 N194 1.373 . S
C195 H209 0.931 . S
C196 O199 1.256 . S
C196 O200 1.255 . S
O197 Co180 2.021 . S
O197 C190 1.259 . S
O198 Co182 2.117 . S
O198 C190 1.258 . S
O199 Co182 2.020 . S
O199 C196 1.256 . S
O200 Co180 2.062 . S
O200 C196 1.255 . S
O201 C181 1.259 . S
O201 Co182 2.021 . S
H202 C193 0.930 . S
H203 C192 0.931 . S
O204 Co180 2.117 . S
O204 C181 1.258 . S
O205 Co180 2.020 . S
O205 C207 1.256 . S
O206 Co182 2.062 . S
O206 C207 1.255 . S
C207 O205 1.256 . S
C207 O206 1.255 . S
H208 C187 0.931 . S
H209 C195 0.931 . S
Co210 N215 2.057 . S
Co210 O227 2.021 . S
Co210 O230 2.062 . S
Co210 O234 2.117 . S
Co210 O235 2.020 . S
C211 O231 1.259 . S
C211 O234 1.258 . S
Co212 N221 2.057 . S
Co212 O228 2.117 . S
Co212 O229 2.020 . S
Co212 O231 2.021 . S
Co212 O236 2.062 . S
C213 N215 1.316 . S
C213 N216 1.347 . S
C213 H218 0.931 . S
C214 N215 1.375 . S
C214 C217 1.350 . S
C214 H219 0.930 . S
N215 Co210 2.057 . S
N215 C213 1.316 . S
N215 C214 1.375 . S
N216 C213 1.347 . S
N216 C217 1.373 . S
C217 C214 1.350 . S
C217 N216 1.373 . S
C217 H238 0.931 . S
H218 C213 0.931 . S
H219 C214 0.930 . S
C220 O227 1.259 . S
C220 O228 1.258 . S
N221 Co212 2.057 . S
N221 C222 1.316 . S
N221 C223 1.375 . S
C222 N221 1.316 . S
C222 N224 1.347 . S
C222 H233 0.931 . S
C223 N221 1.375 . S
C223 C225 1.350 . S
C223 H232 0.930 . S
N224 C222 1.347 . S
N224 C225 1.373 . S
C225 C223 1.350 . S
C225 N224 1.373 . S
C225 H239 0.931 . S
C226 O229 1.256 . S
C226 O230 1.255 . S
O227 Co210 2.021 . S
O227 C220 1.259 . S
O228 Co212 2.117 . S
O228 C220 1.258 . S
O229 Co212 2.020 . S
O229 C226 1.256 . S
O230 Co210 2.062 . S
O230 C226 1.255 . S
O231 C211 1.259 . S
O231 Co212 2.021 . S
H232 C223 0.930 . S
H233 C222 0.931 . S
O234 Co210 2.117 . S
O234 C211 1.258 . S
O235 Co210 2.020 . S
O235 C237 1.256 . S
O236 Co212 2.062 . S
O236 C237 1.255 . S
C237 O235 1.256 . S
C237 O236 1.255 . S
H238 C217 0.931 . S
H239 C225 0.931 . S
Co240 O243 2.042 . S
Co240 O250 2.264 . S
Co240 O269 2.286 . S
Co240 O270 2.069 . S
Co240 O272 2.015 1_455 S
Co241 O243 2.122 . S
Co241 O249 2.073 . S
Co241 O250 2.327 . S
Co241 O251 1.976 1_455 S
Co242 O243 2.089 1_545 S
Co242 O245 2.085 1_455 S
Co242 O252 2.107 1_445 S
Co242 O253 2.147 . S
Co242 O257 2.115 . S
Co242 O271 2.140 1_445 S
O243 Co240 2.042 . S
O243 Co241 2.122 . S
O243 Co242 2.089 1_565 S
O243 H244 0.980 . S
H244 O243 0.980 . S
O245 Co242 2.085 1_655 S
O245 Co246 2.042 . S
O245 Co247 2.122 . S
O245 H248 0.980 . S
Co246 O245 2.042 . S
Co246 O254 2.286 . S
Co246 O255 2.069 . S
Co246 O256 2.015 1_655 S
Co246 O259 2.264 . S
Co247 O245 2.122 . S
Co247 O258 1.976 1_655 S
Co247 O259 2.327 . S
Co247 O260 2.073 . S
H248 O245 0.980 . S
O249 Co241 2.073 . S
O249 C264 1.245 . S
O250 Co240 2.264 . S
O250 Co241 2.327 . S
O250 C264 1.257 . S
O251 Co241 1.976 1_655 S
O251 C263 1.251 . S
O252 Co242 2.107 1_665 S
O252 C263 1.274 . S
O253 Co242 2.147 . S
O253 C266 1.246 . S
O254 Co246 2.286 . S
O254 C265 1.259 . S
O255 Co246 2.069 . S
O255 C265 1.289 . S
O256 Co246 2.015 1_455 S
O256 C266 1.257 . S
O257 Co242 2.115 . S
O257 C267 1.274 . S
O258 Co247 1.976 1_455 S
O258 C267 1.251 . S
O259 Co246 2.264 . S
O259 Co247 2.327 . S
O259 C268 1.257 . S
O260 Co247 2.073 . S
O260 C268 1.245 . S
C261 O269 1.259 . S
C261 O270 1.289 . S
C262 O271 1.246 . S
C262 O272 1.257 . S
C263 O251 1.251 . S
C263 O252 1.274 . S
C264 O249 1.245 . S
C264 O250 1.257 . S
C265 O254 1.259 . S
C265 O255 1.289 . S
C266 O253 1.246 . S
C266 O256 1.257 . S
C267 O257 1.274 . S
C267 O258 1.251 . S
C268 O259 1.257 . S
C268 O260 1.245 . S
O269 Co240 2.286 . S
O269 C261 1.259 . S
O270 Co240 2.069 . S
O270 C261 1.289 . S
O271 Co242 2.140 1_665 S
O271 C262 1.246 . S
O272 Co240 2.015 1_655 S
O272 C262 1.257 . S
Co273 O276 2.042 1_556 S
Co273 O283 2.264 1_556 S
Co273 O302 2.286 . S
Co273 O303 2.069 . S
Co273 O305 2.015 . S
Co274 O276 2.122 . S
Co274 O282 2.073 . S
Co274 O283 2.327 . S
Co274 O284 1.976 . S
Co275 O276 2.085 1_545 S
Co275 O278 2.089 1_554 S
Co275 O285 2.110 1_545 S
Co275 O286 2.145 . S
Co275 O290 2.112 1_554 S
Co275 O304 2.142 1_544 S
O276 Co273 2.042 1_554 S
O276 Co274 2.122 . S
O276 Co275 2.085 1_565 S
O276 H277 0.980 . S
H277 O276 0.980 . S
O278 Co275 2.089 1_556 S
O278 Co279 2.042 1_556 S
O278 Co280 2.122 . S
O278 H281 0.980 . S
Co279 O278 2.042 1_554 S
Co279 O287 2.286 . S
Co279 O288 2.069 . S
Co279 O289 2.015 . S
Co279 O292 2.264 1_554 S
Co280 O278 2.122 . S
Co280 O291 1.976 . S
Co280 O292 2.327 . S
Co280 O293 2.073 . S
H281 O278 0.980 . S
O282 Co274 2.073 . S
O282 C297 1.245 . S
O283 Co273 2.264 1_554 S
O283 Co274 2.327 . S
O283 C297 1.257 . S
O284 Co274 1.976 . S
O284 C296 1.251 . S
O285 Co275 2.110 1_565 S
O285 C296 1.274 . S
O286 Co275 2.145 . S
O286 C299 1.246 . S
O287 Co279 2.286 . S
O287 C298 1.259 . S
O288 Co279 2.069 . S
O288 C298 1.289 . S
O289 Co279 2.015 . S
O289 C299 1.257 . S
O290 Co275 2.112 1_556 S
O290 C300 1.274 . S
O291 Co280 1.976 . S
O291 C300 1.251 . S
O292 Co279 2.264 1_556 S
O292 Co280 2.327 . S
O292 C301 1.257 . S
O293 Co280 2.073 . S
O293 C301 1.245 . S
C294 O302 1.259 . S
C294 O303 1.289 . S
C295 O304 1.246 . S
C295 O305 1.257 . S
C296 O284 1.251 . S
C296 O285 1.274 . S
C297 O282 1.245 . S
C297 O283 1.257 . S
C298 O287 1.259 . S
C298 O288 1.289 . S
C299 O286 1.246 . S
C299 O289 1.257 . S
C300 O290 1.274 . S
C300 O291 1.251 . S
C301 O292 1.257 . S
C301 O293 1.245 . S
O302 Co273 2.286 . S
O302 C294 1.259 . S
O303 Co273 2.069 . S
O303 C294 1.289 . S
O304 Co275 2.142 1_566 S
O304 C295 1.246 . S
O305 Co273 2.015 . S
O305 C295 1.257 . S
Co306 O309 2.042 1_556 S
Co306 O316 2.264 1_556 S
Co306 O335 2.286 . S
Co306 O336 2.069 . S
Co306 O338 2.015 1_455 S
Co307 O309 2.122 . S
Co307 O315 2.073 . S
Co307 O316 2.327 . S
Co307 O317 1.976 1_455 S
Co308 O309 2.091 . S
Co308 O311 2.083 1_454 S
Co308 O318 2.108 1_455 S
Co308 O319 2.145 . S
Co308 O323 2.114 1_554 S
Co308 O337 2.142 1_454 S
O309 Co306 2.042 1_554 S
O309 Co307 2.122 . S
O309 Co308 2.091 . S
O309 H310 0.980 . S
H310 O309 0.980 . S
O311 Co308 2.083 1_656 S
O311 Co312 2.042 1_556 S
O311 Co313 2.122 . S
O311 H314 0.980 . S
Co312 O311 2.042 1_554 S
Co312 O320 2.286 . S
Co312 O321 2.069 . S
Co312 O322 2.015 1_655 S
Co312 O325 2.264 1_554 S
Co313 O311 2.122 . S
Co313 O324 1.976 1_655 S
Co313 O325 2.327 . S
Co313 O326 2.073 . S
H314 O311 0.980 . S
O315 Co307 2.073 . S
O315 C330 1.245 . S
O316 Co306 2.264 1_554 S
O316 Co307 2.327 . S
O316 C330 1.257 . S
O317 Co307 1.976 1_655 S
O317 C329 1.251 . S
O318 Co308 2.108 1_655 S
O318 C329 1.274 . S
O319 Co308 2.145 . S
O319 C332 1.246 . S
O320 Co312 2.286 . S
O320 C331 1.259 . S
O321 Co312 2.069 . S
O321 C331 1.289 . S
O322 Co312 2.015 1_455 S
O322 C332 1.257 . S
O323 Co308 2.114 1_556 S
O323 C333 1.274 . S
O324 Co313 1.976 1_455 S
O324 C333 1.251 . S
O325 Co312 2.264 1_556 S
O325 Co313 2.327 . S
O325 C334 1.257 . S
O326 Co313 2.073 . S
O326 C334 1.245 . S
C327 O335 1.259 . S
C327 O336 1.289 . S
C328 O337 1.246 . S
C328 O338 1.257 . S
C329 O317 1.251 . S
C329 O318 1.274 . S
C330 O315 1.245 . S
C330 O316 1.257 . S
C331 O320 1.259 . S
C331 O321 1.289 . S
C332 O319 1.246 . S
C332 O322 1.257 . S
C333 O323 1.274 . S
C333 O324 1.251 . S
C334 O325 1.257 . S
C334 O326 1.245 . S
O335 Co306 2.286 . S
O335 C327 1.259 . S
O336 Co306 2.069 . S
O336 C327 1.289 . S
O337 Co308 2.142 1_656 S
O337 C328 1.246 . S
O338 Co306 2.015 1_655 S
O338 C328 1.257 . S
Co339 O342 2.042 1_556 S
Co339 O349 2.264 1_556 S
Co339 O368 2.286 . S
Co339 O369 2.069 . S
Co339 O371 2.015 . S
Co340 O342 2.122 . S
Co340 O348 2.073 . S
Co340 O349 2.327 . S
Co340 O350 1.976 . S
Co341 O342 2.087 . S
Co341 O344 2.087 1_554 S
Co341 O351 2.111 . S
Co341 O352 2.143 . S
Co341 O356 2.111 1_554 S
Co341 O370 2.143 1_554 S
O342 Co339 2.042 1_554 S
O342 Co340 2.122 . S
O342 Co341 2.087 . S
O342 H343 0.980 . S
H343 O342 0.980 . S
O344 Co341 2.087 1_556 S
O344 Co345 2.042 1_556 S
O344 Co346 2.122 . S
O344 H347 0.980 . S
Co345 O344 2.042 1_554 S
Co345 O353 2.286 . S
Co345 O354 2.069 . S
Co345 O355 2.015 . S
Co345 O358 2.264 1_554 S
Co346 O344 2.122 . S
Co346 O357 1.976 . S
Co346 O358 2.327 . S
Co346 O359 2.073 . S
H347 O344 0.980 . S
O348 Co340 2.073 . S
O348 C363 1.245 . S
O349 Co339 2.264 1_554 S
O349 Co340 2.327 . S
O349 C363 1.257 . S
O350 Co340 1.976 . S
O350 C362 1.251 . S
O351 Co341 2.111 . S
O351 C362 1.274 . S
O352 Co341 2.143 . S
O352 C365 1.246 . S
O353 Co345 2.286 . S
O353 C364 1.259 . S
O354 Co345 2.069 . S
O354 C364 1.289 . S
O355 Co345 2.015 . S
O355 C365 1.257 . S
O356 Co341 2.111 1_556 S
O356 C366 1.274 . S
O357 Co346 1.976 . S
O357 C366 1.251 . S
O358 Co345 2.264 1_556 S
O358 Co346 2.327 . S
O358 C367 1.257 . S
O359 Co346 2.073 . S
O359 C367 1.245 . S
C360 O368 1.259 . S
C360 O369 1.289 . S
C361 O370 1.246 . S
C361 O371 1.257 . S
C362 O350 1.251 . S
C362 O351 1.274 . S
C363 O348 1.245 . S
C363 O349 1.257 . S
C364 O353 1.259 . S
C364 O354 1.289 . S
C365 O352 1.246 . S
C365 O355 1.257 . S
C366 O356 1.274 . S
C366 O357 1.251 . S
C367 O358 1.257 . S
C367 O359 1.245 . S
O368 Co339 2.286 . S
O368 C360 1.259 . S
O369 Co339 2.069 . S
O369 C360 1.289 . S
O370 Co341 2.143 1_556 S
O370 C361 1.246 . S
O371 Co339 2.015 . S
O371 C361 1.257 . S
Co372 O375 2.042 . S
Co372 O382 2.264 . S
Co372 O401 2.286 . S
Co372 O402 2.069 . S
Co372 O404 2.015 . S
Co373 O375 2.122 . S
Co373 O381 2.073 . S
Co373 O382 2.327 . S
Co373 O383 1.976 . S
Co374 O375 2.091 . S
Co374 O377 2.083 1_455 S
Co374 O384 2.113 . S
Co374 O385 2.141 1_455 S
Co374 O389 2.110 1_455 S
Co374 O403 2.146 . S
O375 Co372 2.042 . S
O375 Co373 2.122 . S
O375 Co374 2.091 . S
O375 H376 0.980 . S
H376 O375 0.980 . S
O377 Co374 2.083 1_655 S
O377 Co378 2.042 . S
O377 Co379 2.122 . S
O377 H380 0.980 . S
Co378 O377 2.042 . S
Co378 O386 2.286 . S
Co378 O387 2.069 . S
Co378 O388 2.015 . S
Co378 O391 2.264 . S
Co379 O377 2.122 . S
Co379 O390 1.976 . S
Co379 O391 2.327 . S
Co379 O392 2.073 . S
H380 O377 0.980 . S
O381 Co373 2.073 . S
O381 C396 1.245 . S
O382 Co372 2.264 . S
O382 Co373 2.327 . S
O382 C396 1.257 . S
O383 Co373 1.976 . S
O383 C395 1.251 . S
O384 Co374 2.113 . S
O384 C395 1.274 . S
O385 Co374 2.141 1_655 S
O385 C398 1.246 . S
O386 Co378 2.286 . S
O386 C397 1.259 . S
O387 Co378 2.069 . S
O387 C397 1.289 . S
O388 Co378 2.015 . S
O388 C398 1.257 . S
O389 Co374 2.110 1_655 S
O389 C399 1.274 . S
O390 Co379 1.976 . S
O390 C399 1.251 . S
O391 Co378 2.264 . S
O391 Co379 2.327 . S
O391 C400 1.257 . S
O392 Co379 2.073 . S
O392 C400 1.245 . S
C393 O401 1.259 . S
C393 O402 1.289 . S
C394 O403 1.246 . S
C394 O404 1.257 . S
C395 O383 1.251 . S
C395 O384 1.274 . S
C396 O381 1.245 . S
C396 O382 1.257 . S
C397 O386 1.259 . S
C397 O387 1.289 . S
C398 O385 1.246 . S
C398 O388 1.257 . S
C399 O389 1.274 . S
C399 O390 1.251 . S
C400 O391 1.257 . S
C400 O392 1.245 . S
O401 Co372 2.286 . S
O401 C393 1.259 . S
O402 Co372 2.069 . S
O402 C393 1.289 . S
O403 Co374 2.146 . S
O403 C394 1.246 . S
O404 Co372 2.015 . S
O404 C394 1.257 . S
Co405 O408 2.042 . S
Co405 O415 2.264 . S
Co405 O434 2.286 . S
Co405 O435 2.069 . S
Co405 O437 2.015 1_565 S
Co406 O408 2.122 . S
Co406 O414 2.073 . S
Co406 O415 2.327 . S
Co406 O416 1.976 1_565 S
Co407 O408 2.085 1_545 S
Co407 O410 2.089 . S
Co407 O417 2.113 . S
Co407 O418 2.143 1_545 S
Co407 O422 2.110 1_545 S
Co407 O436 2.144 . S
O408 Co405 2.042 . S
O408 Co406 2.122 . S
O408 Co407 2.085 1_565 S
O408 H409 0.980 . S
H409 O408 0.980 . S
O410 Co407 2.089 . S
O410 Co411 2.042 . S
O410 Co412 2.122 . S
O410 H413 0.980 . S
Co411 O410 2.042 . S
Co411 O419 2.286 . S
Co411 O420 2.069 . S
Co411 O421 2.015 1_545 S
Co411 O424 2.264 . S
Co412 O410 2.122 . S
Co412 O423 1.976 1_545 S
Co412 O424 2.327 . S
Co412 O425 2.073 . S
H413 O410 0.980 . S
O414 Co406 2.073 . S
O414 C429 1.245 . S
O415 Co405 2.264 . S
O415 Co406 2.327 . S
O415 C429 1.257 . S
O416 Co406 1.976 1_545 S
O416 C428 1.251 . S
O417 Co407 2.113 . S
O417 C428 1.274 . S
O418 Co407 2.143 1_565 S
O418 C431 1.246 . S
O419 Co411 2.286 . S
O419 C430 1.259 . S
O420 Co411 2.069 . S
O420 C430 1.289 . S
O421 Co411 2.015 1_565 S
O421 C431 1.257 . S
O422 Co407 2.110 1_565 S
O422 C432 1.274 . S
O423 Co412 1.976 1_565 S
O423 C432 1.251 . S
O424 Co411 2.264 . S
O424 Co412 2.327 . S
O424 C433 1.257 . S
O425 Co412 2.073 . S
O425 C433 1.245 . S
C426 O434 1.259 . S
C426 O435 1.289 . S
C427 O436 1.246 . S
C427 O437 1.257 . S
C428 O416 1.251 . S
C428 O417 1.274 . S
C429 O414 1.245 . S
C429 O415 1.257 . S
C430 O419 1.259 . S
C430 O420 1.289 . S
C431 O418 1.246 . S
C431 O421 1.257 . S
C432 O422 1.274 . S
C432 O423 1.251 . S
C433 O424 1.257 . S
C433 O425 1.245 . S
O434 Co405 2.286 . S
O434 C426 1.259 . S
O435 Co405 2.069 . S
O435 C426 1.289 . S
O436 Co407 2.144 . S
O436 C427 1.246 . S
O437 Co405 2.015 1_545 S
O437 C427 1.257 . S
H438 C444 0.930 . S
H439 C447 0.930 . S
H440 C448 0.930 . S
H441 C449 0.930 . S
H442 C452 0.930 . S
H443 C453 0.930 . S
C444 H438 0.930 . S
C444 C445 1.355 . S
C444 C446 1.415 . S
C445 C444 1.355 . S
C445 C447 1.419 . S
C446 C444 1.415 . S
C446 C451 1.425 . S
C446 C453 1.409 . S
C447 H439 0.930 . S
C447 C445 1.419 . S
C447 C448 1.362 . S
C448 H440 0.930 . S
C448 C447 1.362 . S
C448 C451 1.409 . S
C449 H441 0.930 . S
C449 C450 1.355 . S
C449 C451 1.415 . S
C450 C449 1.355 . S
C450 C452 1.419 . S
C451 C446 1.425 . S
C451 C448 1.409 . S
C451 C449 1.415 . S
C452 H442 0.930 . S
C452 C450 1.419 . S
C452 C453 1.362 . S
C453 H443 0.930 . S
C453 C446 1.409 . S
C453 C452 1.362 . S
H454 C460 0.930 . S
H455 C463 0.930 . S
H456 C464 0.930 . S
H457 C465 0.930 . S
H458 C468 0.930 . S
H459 C469 0.930 . S
C460 H454 0.930 . S
C460 C461 1.355 . S
C460 C462 1.415 . S
C461 C460 1.355 . S
C461 C463 1.419 . S
C462 C460 1.415 . S
C462 C467 1.425 . S
C462 C469 1.409 . S
C463 H455 0.930 . S
C463 C461 1.419 . S
C463 C464 1.362 . S
C464 H456 0.930 . S
C464 C463 1.362 . S
C464 C467 1.409 . S
C465 H457 0.930 . S
C465 C466 1.355 . S
C465 C467 1.415 . S
C466 C465 1.355 . S
C466 C468 1.419 . S
C467 C462 1.425 . S
C467 C464 1.409 . S
C467 C465 1.415 . S
C468 H458 0.930 . S
C468 C466 1.419 . S
C468 C469 1.362 . S
C469 H459 0.930 . S
C469 C462 1.409 . S
C469 C468 1.362 . S
H470 C476 0.930 . S
H471 C479 0.930 . S
H472 C480 0.930 . S
H473 C481 0.930 . S
H474 C484 0.930 . S
H475 C485 0.930 . S
C476 H470 0.930 . S
C476 C477 1.355 . S
C476 C478 1.415 . S
C477 C476 1.355 . S
C477 C479 1.419 . S
C478 C476 1.415 . S
C478 C483 1.425 . S
C478 C485 1.409 . S
C479 H471 0.930 . S
C479 C477 1.419 . S
C479 C480 1.362 . S
C480 H472 0.930 . S
C480 C479 1.362 . S
C480 C483 1.409 . S
C481 H473 0.930 . S
C481 C482 1.355 . S
C481 C483 1.415 . S
C482 C481 1.355 . S
C482 C484 1.419 . S
C483 C478 1.425 . S
C483 C480 1.409 . S
C483 C481 1.415 . S
C484 H474 0.930 . S
C484 C482 1.419 . S
C484 C485 1.362 . S
C485 H475 0.930 . S
C485 C478 1.409 . S
C485 C484 1.362 . S
H486 C492 0.930 . S
H487 C495 0.930 . S
H488 C496 0.930 . S
H489 C497 0.930 . S
H490 C500 0.930 . S
H491 C501 0.930 . S
C492 H486 0.930 . S
C492 C493 1.355 . S
C492 C494 1.415 . S
C493 C492 1.355 . S
C493 C495 1.419 . S
C494 C492 1.415 . S
C494 C499 1.425 . S
C494 C501 1.409 . S
C495 H487 0.930 . S
C495 C493 1.419 . S
C495 C496 1.362 . S
C496 H488 0.930 . S
C496 C495 1.362 . S
C496 C499 1.409 . S
C497 H489 0.930 . S
C497 C498 1.355 . S
C497 C499 1.415 . S
C498 C497 1.355 . S
C498 C500 1.419 . S
C499 C494 1.425 . S
C499 C496 1.409 . S
C499 C497 1.415 . S
C500 H490 0.930 . S
C500 C498 1.419 . S
C500 C501 1.362 . S
C501 H491 0.930 . S
C501 C494 1.409 . S
C501 C500 1.362 . S
H502 C508 0.930 . S
H503 C511 0.930 . S
H504 C512 0.930 . S
H505 C513 0.930 . S
H506 C516 0.930 . S
H507 C517 0.930 . S
C508 H502 0.930 . S
C508 C509 1.355 . S
C508 C510 1.415 . S
C509 C508 1.355 . S
C509 C511 1.419 . S
C510 C508 1.415 . S
C510 C515 1.425 . S
C510 C517 1.409 . S
C511 H503 0.930 . S
C511 C509 1.419 . S
C511 C512 1.362 . S
C512 H504 0.930 . S
C512 C511 1.362 . S
C512 C515 1.409 . S
C513 H505 0.930 . S
C513 C514 1.355 . S
C513 C515 1.415 . S
C514 C513 1.355 . S
C514 C516 1.419 . S
C515 C510 1.425 . S
C515 C512 1.409 . S
C515 C513 1.415 . S
C516 H506 0.930 . S
C516 C514 1.419 . S
C516 C517 1.362 . S
C517 H507 0.930 . S
C517 C510 1.409 . S
C517 C516 1.362 . S
H518 C524 0.930 . S
H519 C527 0.930 . S
H520 C528 0.930 . S
H521 C529 0.930 . S
H522 C532 0.930 . S
H523 C533 0.930 . S
C524 H518 0.930 . S
C524 C525 1.355 . S
C524 C526 1.415 . S
C525 C524 1.355 . S
C525 C527 1.419 . S
C526 C524 1.415 . S
C526 C531 1.425 . S
C526 C533 1.409 . S
C527 H519 0.930 . S
C527 C525 1.419 . S
C527 C528 1.362 . S
C528 H520 0.930 . S
C528 C527 1.362 . S
C528 C531 1.409 . S
C529 H521 0.930 . S
C529 C530 1.355 . S
C529 C531 1.415 . S
C530 C529 1.355 . S
C530 C532 1.419 . S
C531 C526 1.425 . S
C531 C528 1.409 . S
C531 C529 1.415 . S
C532 H522 0.930 . S
C532 C530 1.419 . S
C532 C533 1.362 . S
C533 H523 0.930 . S
C533 C526 1.409 . S
C533 C532 1.362 . S
H534 C540 0.930 . S
H535 C543 0.930 . S
H536 C544 0.930 . S
H537 C545 0.930 . S
H538 C548 0.930 . S
H539 C549 0.930 . S
C540 H534 0.930 . S
C540 C541 1.355 . S
C540 C542 1.415 . S
C541 C540 1.355 . S
C541 C543 1.419 . S
C542 C540 1.415 . S
C542 C547 1.425 . S
C542 C549 1.409 . S
C543 H535 0.930 . S
C543 C541 1.419 . S
C543 C544 1.362 . S
C544 H536 0.930 . S
C544 C543 1.362 . S
C544 C547 1.409 . S
C545 H537 0.930 . S
C545 C546 1.355 . S
C545 C547 1.415 . S
C546 C545 1.355 . S
C546 C548 1.419 . S
C547 C542 1.425 . S
C547 C544 1.409 . S
C547 C545 1.415 . S
C548 H538 0.930 . S
C548 C546 1.419 . S
C548 C549 1.362 . S
C549 H539 0.930 . S
C549 C542 1.409 . S
C549 C548 1.362 . S
H550 C556 0.930 . S
H551 C559 0.930 . S
H552 C560 0.930 . S
H553 C561 0.930 . S
H554 C564 0.930 . S
H555 C565 0.930 . S
C556 H550 0.930 . S
C556 C557 1.355 . S
C556 C558 1.415 . S
C557 C556 1.355 . S
C557 C559 1.419 . S
C558 C556 1.415 . S
C558 C563 1.425 . S
C558 C565 1.409 . S
C559 H551 0.930 . S
C559 C557 1.419 . S
C559 C560 1.362 . S
C560 H552 0.930 . S
C560 C559 1.362 . S
C560 C563 1.409 . S
C561 H553 0.930 . S
C561 C562 1.355 . S
C561 C563 1.415 . S
C562 C561 1.355 . S
C562 C564 1.419 . S
C563 C558 1.425 . S
C563 C560 1.409 . S
C563 C561 1.415 . S
C564 H554 0.930 . S
C564 C562 1.419 . S
C564 C565 1.362 . S
C565 H555 0.930 . S
C565 C558 1.409 . S
C565 C564 1.362 . S
H566 C572 0.930 . S
H567 C575 0.930 . S
H568 C576 0.930 . S
H569 C577 0.930 . S
H570 C580 0.930 . S
H571 C581 0.930 . S
C572 H566 0.930 . S
C572 C573 1.355 . S
C572 C574 1.415 . S
C573 C572 1.355 . S
C573 C575 1.419 . S
C574 C572 1.415 . S
C574 C579 1.425 . S
C574 C581 1.409 . S
C575 H567 0.930 . S
C575 C573 1.419 . S
C575 C576 1.362 . S
C576 H568 0.930 . S
C576 C575 1.362 . S
C576 C579 1.409 . S
C577 H569 0.930 . S
C577 C578 1.355 . S
C577 C579 1.415 . S
C578 C577 1.355 . S
C578 C580 1.419 . S
C579 C574 1.425 . S
C579 C576 1.409 . S
C579 C577 1.415 . S
C580 H570 0.930 . S
C580 C578 1.419 . S
C580 C581 1.362 . S
C581 H571 0.930 . S
C581 C574 1.409 . S
C581 C580 1.362 . S
H582 C588 0.930 . S
H583 C591 0.930 . S
H584 C592 0.930 . S
H585 C593 0.930 . S
H586 C596 0.930 . S
H587 C597 0.930 . S
C588 H582 0.930 . S
C588 C589 1.355 . S
C588 C590 1.415 . S
C589 C588 1.355 . S
C589 C591 1.419 . S
C590 C588 1.415 . S
C590 C595 1.425 . S
C590 C597 1.409 . S
C591 H583 0.930 . S
C591 C589 1.419 . S
C591 C592 1.362 . S
C592 H584 0.930 . S
C592 C591 1.362 . S
C592 C595 1.409 . S
C593 H585 0.930 . S
C593 C594 1.355 . S
C593 C595 1.415 . S
C594 C593 1.355 . S
C594 C596 1.419 . S
C595 C590 1.425 . S
C595 C592 1.409 . S
C595 C593 1.415 . S
C596 H586 0.930 . S
C596 C594 1.419 . S
C596 C597 1.362 . S
C597 H587 0.930 . S
C597 C590 1.409 . S
C597 C596 1.362 . S
H598 C604 0.930 . S
H599 C607 0.930 . S
H600 C608 0.930 . S
H601 C609 0.930 . S
H602 C612 0.930 1_556 S
H603 C613 0.930 . S
C604 H598 0.930 . S
C604 C605 1.355 . S
C604 C606 1.415 . S
C605 C604 1.355 . S
C605 C607 1.419 . S
C606 C604 1.415 . S
C606 C611 1.425 . S
C606 C613 1.409 . S
C607 H599 0.930 . S
C607 C605 1.419 . S
C607 C608 1.362 . S
C608 H600 0.930 . S
C608 C607 1.362 . S
C608 C611 1.409 . S
C609 H601 0.930 . S
C609 C610 1.355 . S
C609 C611 1.415 . S
C610 C609 1.355 . S
C610 C612 1.419 . S
C611 C606 1.425 . S
C611 C608 1.409 . S
C611 C609 1.415 . S
C612 H602 0.930 1_554 S
C612 C610 1.419 . S
C612 C613 1.362 . S
C613 H603 0.930 . S
C613 C606 1.409 . S
C613 C612 1.362 . S
H614 C620 0.930 . S
H615 C623 0.930 . S
H616 C624 0.930 . S
H617 C625 0.930 . S
H618 C628 0.930 . S
H619 C629 0.930 . S
C620 H614 0.930 . S
C620 C621 1.355 . S
C620 C622 1.415 . S
C621 C620 1.355 . S
C621 C623 1.419 . S
C622 C620 1.415 . S
C622 C627 1.425 . S
C622 C629 1.409 . S
C623 H615 0.930 . S
C623 C621 1.419 . S
C623 C624 1.362 . S
C624 H616 0.930 . S
C624 C623 1.362 . S
C624 C627 1.409 . S
C625 H617 0.930 . S
C625 C626 1.355 . S
C625 C627 1.415 . S
C626 C625 1.355 . S
C626 C628 1.419 . S
C627 C622 1.425 . S
C627 C624 1.409 . S
C627 C625 1.415 . S
C628 H618 0.930 . S
C628 C626 1.419 . S
C628 C629 1.362 . S
C629 H619 0.930 . S
C629 C622 1.409 . S
C629 C628 1.362 . S
H630 C636 0.930 . S
H631 C639 0.930 . S
H632 C640 0.930 . S
H633 C641 0.930 . S
H634 C644 0.930 . S
H635 C645 0.930 . S
C636 H630 0.930 . S
C636 C637 1.355 . S
C636 C638 1.415 . S
C637 C636 1.355 . S
C637 C639 1.419 . S
C638 C636 1.415 . S
C638 C643 1.425 . S
C638 C645 1.409 . S
C639 H631 0.930 . S
C639 C637 1.419 . S
C639 C640 1.362 . S
C640 H632 0.930 . S
C640 C639 1.362 . S
C640 C643 1.409 . S
C641 H633 0.930 . S
C641 C642 1.355 . S
C641 C643 1.415 . S
C642 C641 1.355 . S
C642 C644 1.419 . S
C643 C638 1.425 . S
C643 C640 1.409 . S
C643 C641 1.415 . S
C644 H634 0.930 . S
C644 C642 1.419 . S
C644 C645 1.362 . S
C645 H635 0.930 . S
C645 C638 1.409 . S
C645 C644 1.362 . S
H646 C652 0.930 . S
H647 C655 0.930 . S
H648 C656 0.930 . S
H649 C657 0.930 . S
H650 C660 0.930 . S
H651 C661 0.930 . S
C652 H646 0.930 . S
C652 C653 1.355 . S
C652 C654 1.415 . S
C653 C652 1.355 . S
C653 C655 1.419 . S
C654 C652 1.415 . S
C654 C659 1.425 . S
C654 C661 1.409 . S
C655 H647 0.930 . S
C655 C653 1.419 . S
C655 C656 1.362 . S
C656 H648 0.930 . S
C656 C655 1.362 . S
C656 C659 1.409 . S
C657 H649 0.930 . S
C657 C658 1.355 . S
C657 C659 1.415 . S
C658 C657 1.355 . S
C658 C660 1.419 . S
C659 C654 1.425 . S
C659 C656 1.409 . S
C659 C657 1.415 . S
C660 H650 0.930 . S
C660 C658 1.419 . S
C660 C661 1.362 . S
C661 H651 0.930 . S
C661 C654 1.409 . S
C661 C660 1.362 . S
H662 C668 0.930 . S
H663 C671 0.930 . S
H664 C672 0.930 . S
H665 C673 0.930 . S
H666 C676 0.930 . S
H667 C677 0.930 . S
C668 H662 0.930 . S
C668 C669 1.355 . S
C668 C670 1.415 . S
C669 C668 1.355 . S
C669 C671 1.419 . S
C670 C668 1.415 . S
C670 C675 1.425 . S
C670 C677 1.409 . S
C671 H663 0.930 . S
C671 C669 1.419 . S
C671 C672 1.362 . S
C672 H664 0.930 . S
C672 C671 1.362 . S
C672 C675 1.409 . S
C673 H665 0.930 . S
C673 C674 1.355 . S
C673 C675 1.415 . S
C674 C673 1.355 . S
C674 C676 1.419 . S
C675 C670 1.425 . S
C675 C672 1.409 . S
C675 C673 1.415 . S
C676 H666 0.930 . S
C676 C674 1.419 . S
C676 C677 1.362 . S
C677 H667 0.930 . S
C677 C670 1.409 . S
C677 C676 1.362 . S
H678 C684 0.930 . S
H679 C687 0.930 . S
H680 C688 0.930 . S
H681 C689 0.930 . S
H682 C692 0.930 . S
H683 C693 0.930 . S
C684 H678 0.930 . S
C684 C685 1.355 . S
C684 C686 1.415 . S
C685 C684 1.355 . S
C685 C687 1.419 . S
C686 C684 1.415 . S
C686 C691 1.425 . S
C686 C693 1.409 . S
C687 H679 0.930 . S
C687 C685 1.419 . S
C687 C688 1.362 . S
C688 H680 0.930 . S
C688 C687 1.362 . S
C688 C691 1.409 . S
C689 H681 0.930 . S
C689 C690 1.355 . S
C689 C691 1.415 . S
C690 C689 1.355 . S
C690 C692 1.419 . S
C691 C686 1.425 . S
C691 C688 1.409 . S
C691 C689 1.415 . S
C692 H682 0.930 . S
C692 C690 1.419 . S
C692 C693 1.362 . S
C693 H683 0.930 . S
C693 C686 1.409 . S
C693 C692 1.362 . S
H694 C700 0.930 . S
H695 C703 0.930 . S
H696 C704 0.930 . S
H697 C705 0.930 . S
H698 C708 0.930 . S
H699 C709 0.930 . S
C700 H694 0.930 . S
C700 C701 1.355 . S
C700 C702 1.415 . S
C701 C700 1.355 . S
C701 C703 1.419 . S
C702 C700 1.415 . S
C702 C707 1.425 . S
C702 C709 1.409 . S
C703 H695 0.930 . S
C703 C701 1.419 . S
C703 C704 1.362 . S
C704 H696 0.930 . S
C704 C703 1.362 . S
C704 C707 1.409 . S
C705 H697 0.930 . S
C705 C706 1.355 . S
C705 C707 1.415 . S
C706 C705 1.355 . S
C706 C708 1.419 . S
C707 C702 1.425 . S
C707 C704 1.409 . S
C707 C705 1.415 . S
C708 H698 0.930 . S
C708 C706 1.419 . S
C708 C709 1.362 . S
C709 H699 0.930 . S
C709 C702 1.409 . S
C709 C708 1.362 . S
H710 C716 0.930 . S
H711 C719 0.930 . S
H712 C720 0.930 . S
H713 C721 0.930 . S
H714 C724 0.930 . S
H715 C725 0.930 . S
C716 H710 0.930 . S
C716 C717 1.355 . S
C716 C718 1.415 . S
C717 C716 1.355 . S
C717 C719 1.419 . S
C718 C716 1.415 . S
C718 C723 1.425 . S
C718 C725 1.409 . S
C719 H711 0.930 . S
C719 C717 1.419 . S
C719 C720 1.362 . S
C720 H712 0.930 . S
C720 C719 1.362 . S
C720 C723 1.409 . S
C721 H713 0.930 . S
C721 C722 1.355 . S
C721 C723 1.415 . S
C722 C721 1.355 . S
C722 C724 1.419 . S
C723 C718 1.425 . S
C723 C720 1.409 . S
C723 C721 1.415 . S
C724 H714 0.930 . S
C724 C722 1.419 . S
C724 C725 1.362 . S
C725 H715 0.930 . S
C725 C718 1.409 . S
C725 C724 1.362 . S
H726 C732 0.930 . S
H727 C735 0.930 . S
H728 C736 0.930 . S
H729 C737 0.930 . S
H730 C740 0.930 . S
H731 C741 0.930 . S
C732 H726 0.930 . S
C732 C733 1.355 . S
C732 C734 1.415 . S
C733 C732 1.355 . S
C733 C735 1.419 . S
C734 C732 1.415 . S
C734 C739 1.425 . S
C734 C741 1.409 . S
C735 H727 0.930 . S
C735 C733 1.419 . S
C735 C736 1.362 . S
C736 H728 0.930 . S
C736 C735 1.362 . S
C736 C739 1.409 . S
C737 H729 0.930 . S
C737 C738 1.355 . S
C737 C739 1.415 . S
C738 C737 1.355 . S
C738 C740 1.419 . S
C739 C734 1.425 . S
C739 C736 1.409 . S
C739 C737 1.415 . S
C740 H730 0.930 . S
C740 C738 1.419 . S
C740 C741 1.362 . S
C741 H731 0.930 . S
C741 C734 1.409 . S
C741 C740 1.362 . S
H742 C748 0.930 . S
H743 C751 0.930 . S
H744 C752 0.930 . S
H745 C753 0.930 . S
H746 C756 0.930 . S
H747 C757 0.930 . S
C748 H742 0.930 . S
C748 C749 1.355 . S
C748 C750 1.415 . S
C749 C748 1.355 . S
C749 C751 1.419 . S
C750 C748 1.415 . S
C750 C755 1.425 . S
C750 C757 1.409 . S
C751 H743 0.930 . S
C751 C749 1.419 . S
C751 C752 1.362 . S
C752 H744 0.930 . S
C752 C751 1.362 . S
C752 C755 1.409 . S
C753 H745 0.930 . S
C753 C754 1.355 . S
C753 C755 1.415 . S
C754 C753 1.355 . S
C754 C756 1.419 . S
C755 C750 1.425 . S
C755 C752 1.409 . S
C755 C753 1.415 . S
C756 H746 0.930 . S
C756 C754 1.419 . S
C756 C757 1.362 . S
C757 H747 0.930 . S
C757 C750 1.409 . S
C757 C756 1.362 . S
H758 C764 0.930 . S
H759 C767 0.930 . S
H760 C768 0.930 . S
H761 C769 0.930 . S
H762 C772 0.930 . S
H763 C773 0.930 . S
C764 H758 0.930 . S
C764 C765 1.355 . S
C764 C766 1.415 . S
C765 C764 1.355 . S
C765 C767 1.419 . S
C766 C764 1.415 . S
C766 C771 1.425 . S
C766 C773 1.409 . S
C767 H759 0.930 . S
C767 C765 1.419 . S
C767 C768 1.362 . S
C768 H760 0.930 . S
C768 C767 1.362 . S
C768 C771 1.409 . S
C769 H761 0.930 . S
C769 C770 1.355 . S
C769 C771 1.415 . S
C770 C769 1.355 . S
C770 C772 1.419 . S
C771 C766 1.425 . S
C771 C768 1.409 . S
C771 C769 1.415 . S
C772 H762 0.930 . S
C772 C770 1.419 . S
C772 C773 1.362 . S
C773 H763 0.930 . S
C773 C766 1.409 . S
C773 C772 1.362 . S
H774 C780 0.930 . S
H775 C783 0.930 . S
H776 C784 0.930 . S
H777 C785 0.930 . S
H778 C788 0.930 . S
H779 C789 0.930 . S
C780 H774 0.930 . S
C780 C781 1.355 . S
C780 C782 1.415 . S
C781 C780 1.355 . S
C781 C783 1.419 . S
C782 C780 1.415 . S
C782 C787 1.425 . S
C782 C789 1.409 . S
C783 H775 0.930 . S
C783 C781 1.419 . S
C783 C784 1.362 . S
C784 H776 0.930 . S
C784 C783 1.362 . S
C784 C787 1.409 . S
C785 H777 0.930 . S
C785 C786 1.355 . S
C785 C787 1.415 . S
C786 C785 1.355 . S
C786 C788 1.419 . S
C787 C782 1.425 . S
C787 C784 1.409 . S
C787 C785 1.415 . S
C788 H778 0.930 . S
C788 C786 1.419 . S
C788 C789 1.362 . S
C789 H779 0.930 . S
C789 C782 1.409 . S
C789 C788 1.362 . S
H790 C796 0.930 . S
H791 C799 0.930 . S
H792 C800 0.930 . S
H793 C801 0.930 . S
H794 C804 0.930 . S
H795 C805 0.930 . S
C796 H790 0.930 . S
C796 C797 1.355 . S
C796 C798 1.415 . S
C797 C796 1.355 . S
C797 C799 1.419 . S
C798 C796 1.415 . S
C798 C803 1.425 . S
C798 C805 1.409 . S
C799 H791 0.930 . S
C799 C797 1.419 . S
C799 C800 1.362 . S
C800 H792 0.930 . S
C800 C799 1.362 . S
C800 C803 1.409 . S
C801 H793 0.930 . S
C801 C802 1.355 . S
C801 C803 1.415 . S
C802 C801 1.355 . S
C802 C804 1.419 . S
C803 C798 1.425 . S
C803 C800 1.409 . S
C803 C801 1.415 . S
C804 H794 0.930 . S
C804 C802 1.419 . S
C804 C805 1.362 . S
C805 H795 0.930 . S
C805 C798 1.409 . S
C805 C804 1.362 . S
H806 C812 0.930 . S
H807 C815 0.930 . S
H808 C816 0.930 . S
H809 C817 0.930 . S
H810 C820 0.930 . S
H811 C821 0.930 . S
C812 H806 0.930 . S
C812 C813 1.355 . S
C812 C814 1.415 . S
C813 C812 1.355 . S
C813 C815 1.419 . S
C814 C812 1.415 . S
C814 C819 1.425 . S
C814 C821 1.409 . S
C815 H807 0.930 . S
C815 C813 1.419 . S
C815 C816 1.362 . S
C816 H808 0.930 . S
C816 C815 1.362 . S
C816 C819 1.409 . S
C817 H809 0.930 . S
C817 C818 1.355 . S
C817 C819 1.415 . S
C818 C817 1.355 . S
C818 C820 1.419 . S
C819 C814 1.425 . S
C819 C816 1.409 . S
C819 C817 1.415 . S
C820 H810 0.930 . S
C820 C818 1.419 . S
C820 C821 1.362 . S
C821 H811 0.930 . S
C821 C814 1.409 . S
C821 C820 1.362 . S
H822 C828 0.930 . S
H823 C831 0.930 . S
H824 C832 0.930 . S
H825 C833 0.930 . S
H826 C836 0.930 . S
H827 C837 0.930 . S
C828 H822 0.930 . S
C828 C829 1.355 . S
C828 C830 1.415 . S
C829 C828 1.355 . S
C829 C831 1.419 . S
C830 C828 1.415 . S
C830 C835 1.425 . S
C830 C837 1.409 . S
C831 H823 0.930 . S
C831 C829 1.419 . S
C831 C832 1.362 . S
C832 H824 0.930 . S
C832 C831 1.362 . S
C832 C835 1.409 . S
C833 H825 0.930 . S
C833 C834 1.355 . S
C833 C835 1.415 . S
C834 C833 1.355 . S
C834 C836 1.419 . S
C835 C830 1.425 . S
C835 C832 1.409 . S
C835 C833 1.415 . S
C836 H826 0.930 . S
C836 C834 1.419 . S
C836 C837 1.362 . S
C837 H827 0.930 . S
C837 C830 1.409 . S
C837 C836 1.362 . S
H838 C844 0.930 . S
H839 C847 0.930 . S
H840 C848 0.930 . S
H841 C849 0.930 . S
H842 C852 0.930 . S
H843 C853 0.930 . S
C844 H838 0.930 . S
C844 C845 1.355 . S
C844 C846 1.415 . S
C845 C844 1.355 . S
C845 C847 1.419 . S
C846 C844 1.415 . S
C846 C851 1.425 . S
C846 C853 1.409 . S
C847 H839 0.930 . S
C847 C845 1.419 . S
C847 C848 1.362 . S
C848 H840 0.930 . S
C848 C847 1.362 . S
C848 C851 1.409 . S
C849 H841 0.930 . S
C849 C850 1.355 . S
C849 C851 1.415 . S
C850 C849 1.355 . S
C850 C852 1.419 . S
C851 C846 1.425 . S
C851 C848 1.409 . S
C851 C849 1.415 . S
C852 H842 0.930 . S
C852 C850 1.419 . S
C852 C853 1.362 . S
C853 H843 0.930 . S
C853 C846 1.409 . S
C853 C852 1.362 . S
H854 C860 0.930 . S
H855 C863 0.930 . S
H856 C864 0.930 . S
H857 C865 0.930 . S
H858 C868 0.930 . S
H859 C869 0.930 . S
C860 H854 0.930 . S
C860 C861 1.355 . S
C860 C862 1.415 . S
C861 C860 1.355 . S
C861 C863 1.419 . S
C862 C860 1.415 . S
C862 C867 1.425 . S
C862 C869 1.409 . S
C863 H855 0.930 . S
C863 C861 1.419 . S
C863 C864 1.362 . S
C864 H856 0.930 . S
C864 C863 1.362 . S
C864 C867 1.409 . S
C865 H857 0.930 . S
C865 C866 1.355 . S
C865 C867 1.415 . S
C866 C865 1.355 . S
C866 C868 1.419 . S
C867 C862 1.425 . S
C867 C864 1.409 . S
C867 C865 1.415 . S
C868 H858 0.930 . S
C868 C866 1.419 . S
C868 C869 1.362 . S
C869 H859 0.930 . S
C869 C862 1.409 . S
C869 C868 1.362 . S
H870 C876 0.930 . S
H871 C879 0.930 . S
H872 C880 0.930 . S
H873 C881 0.930 . S
H874 C884 0.930 . S
H875 C885 0.930 . S
C876 H870 0.930 . S
C876 C877 1.355 . S
C876 C878 1.415 . S
C877 C876 1.355 . S
C877 C879 1.419 . S
C878 C876 1.415 . S
C878 C883 1.425 . S
C878 C885 1.409 . S
C879 H871 0.930 . S
C879 C877 1.419 . S
C879 C880 1.362 . S
C880 H872 0.930 . S
C880 C879 1.362 . S
C880 C883 1.409 . S
C881 H873 0.930 . S
C881 C882 1.355 . S
C881 C883 1.415 . S
C882 C881 1.355 . S
C882 C884 1.419 . S
C883 C878 1.425 . S
C883 C880 1.409 . S
C883 C881 1.415 . S
C884 H874 0.930 . S
C884 C882 1.419 . S
C884 C885 1.362 . S
C885 H875 0.930 . S
C885 C878 1.409 . S
C885 C884 1.362 . S
H886 C892 0.930 . S
H887 C895 0.930 . S
H888 C896 0.930 . S
H889 C897 0.930 . S
H890 C900 0.930 . S
H891 C901 0.930 . S
C892 H886 0.930 . S
C892 C893 1.355 . S
C892 C894 1.415 . S
C893 C892 1.355 . S
C893 C895 1.419 . S
C894 C892 1.415 . S
C894 C899 1.425 . S
C894 C901 1.409 . S
C895 H887 0.930 . S
C895 C893 1.419 . S
C895 C896 1.362 . S
C896 H888 0.930 . S
C896 C895 1.362 . S
C896 C899 1.409 . S
C897 H889 0.930 . S
C897 C898 1.355 . S
C897 C899 1.415 . S
C898 C897 1.355 . S
C898 C900 1.419 . S
C899 C894 1.425 . S
C899 C896 1.409 . S
C899 C897 1.415 . S
C900 H890 0.930 . S
C900 C898 1.419 . S
C900 C901 1.362 . S
C901 H891 0.930 . S
C901 C894 1.409 . S
C901 C900 1.362 . S
H902 C908 0.930 . S
H903 C911 0.930 . S
H904 C912 0.930 . S
H905 C913 0.930 . S
H906 C916 0.930 . S
H907 C917 0.930 . S
C908 H902 0.930 . S
C908 C909 1.355 . S
C908 C910 1.415 . S
C909 C908 1.355 . S
C909 C911 1.419 . S
C910 C908 1.415 . S
C910 C915 1.425 . S
C910 C917 1.409 . S
C911 H903 0.930 . S
C911 C909 1.419 . S
C911 C912 1.362 . S
C912 H904 0.930 . S
C912 C911 1.362 . S
C912 C915 1.409 . S
C913 H905 0.930 . S
C913 C914 1.355 . S
C913 C915 1.415 . S
C914 C913 1.355 . S
C914 C916 1.419 . S
C915 C910 1.425 . S
C915 C912 1.409 . S
C915 C913 1.415 . S
C916 H906 0.930 . S
C916 C914 1.419 . S
C916 C917 1.362 . S
C917 H907 0.930 . S
C917 C910 1.409 . S
C917 C916 1.362 . S
H918 C924 0.930 . S
H919 C927 0.930 . S
H920 C928 0.930 . S
H921 C929 0.930 . S
H922 C932 0.930 . S
H923 C933 0.930 . S
C924 H918 0.930 . S
C924 C925 1.355 . S
C924 C926 1.415 . S
C925 C924 1.355 . S
C925 C927 1.419 . S
C926 C924 1.415 . S
C926 C931 1.425 . S
C926 C933 1.409 . S
C927 H919 0.930 . S
C927 C925 1.419 . S
C927 C928 1.362 . S
C928 H920 0.930 . S
C928 C927 1.362 . S
C928 C931 1.409 . S
C929 H921 0.930 . S
C929 C930 1.355 . S
C929 C931 1.415 . S
C930 C929 1.355 . S
C930 C932 1.419 . S
C931 C926 1.425 . S
C931 C928 1.409 . S
C931 C929 1.415 . S
C932 H922 0.930 . S
C932 C930 1.419 . S
C932 C933 1.362 . S
C933 H923 0.930 . S
C933 C926 1.409 . S
C933 C932 1.362 . S
H934 C940 0.930 . S
H935 C943 0.930 . S
H936 C944 0.930 . S
H937 C945 0.930 . S
H938 C948 0.930 . S
H939 C949 0.930 . S
C940 H934 0.930 . S
C940 C941 1.355 . S
C940 C942 1.415 . S
C941 C940 1.355 . S
C941 C943 1.419 . S
C942 C940 1.415 . S
C942 C947 1.425 . S
C942 C949 1.409 . S
C943 H935 0.930 . S
C943 C941 1.419 . S
C943 C944 1.362 . S
C944 H936 0.930 . S
C944 C943 1.362 . S
C944 C947 1.409 . S
C945 H937 0.930 . S
C945 C946 1.355 . S
C945 C947 1.415 . S
C946 C945 1.355 . S
C946 C948 1.419 . S
C947 C942 1.425 . S
C947 C944 1.409 . S
C947 C945 1.415 . S
C948 H938 0.930 . S
C948 C946 1.419 . S
C948 C949 1.362 . S
C949 H939 0.930 . S
C949 C942 1.409 . S
C949 C948 1.362 . S
H950 C956 0.930 . S
H951 C959 0.930 . S
H952 C960 0.930 . S
H953 C961 0.930 . S
H954 C964 0.930 . S
H955 C965 0.930 . S
C956 H950 0.930 . S
C956 C957 1.355 . S
C956 C958 1.415 . S
C957 C956 1.355 . S
C957 C959 1.419 . S
C958 C956 1.415 . S
C958 C963 1.425 . S
C958 C965 1.409 . S
C959 H951 0.930 . S
C959 C957 1.419 . S
C959 C960 1.362 . S
C960 H952 0.930 . S
C960 C959 1.362 . S
C960 C963 1.409 . S
C961 H953 0.930 . S
C961 C962 1.355 . S
C961 C963 1.415 . S
C962 C961 1.355 . S
C962 C964 1.419 . S
C963 C958 1.425 . S
C963 C960 1.409 . S
C963 C961 1.415 . S
C964 H954 0.930 . S
C964 C962 1.419 . S
C964 C965 1.362 . S
C965 H955 0.930 . S
C965 C958 1.409 . S
C965 C964 1.362 . S
H966 C972 0.930 . S
H967 C975 0.930 . S
H968 C976 0.930 . S
H969 C977 0.930 . S
H970 C980 0.930 . S
H971 C981 0.930 . S
C972 H966 0.930 . S
C972 C973 1.355 . S
C972 C974 1.415 . S
C973 C972 1.355 . S
C973 C975 1.419 . S
C974 C972 1.415 . S
C974 C979 1.425 . S
C974 C981 1.409 . S
C975 H967 0.930 . S
C975 C973 1.419 . S
C975 C976 1.362 . S
C976 H968 0.930 . S
C976 C975 1.362 . S
C976 C979 1.409 . S
C977 H969 0.930 . S
C977 C978 1.355 . S
C977 C979 1.415 . S
C978 C977 1.355 . S
C978 C980 1.419 . S
C979 C974 1.425 . S
C979 C976 1.409 . S
C979 C977 1.415 . S
C980 H970 0.930 . S
C980 C978 1.419 . S
C980 C981 1.362 . S
C981 H971 0.930 . S
C981 C974 1.409 . S
C981 C980 1.362 . S
H982 C988 0.930 . S
H983 C991 0.930 . S
H984 C992 0.930 . S
H985 C993 0.930 . S
H986 C996 0.930 . S
H987 C997 0.930 . S
C988 H982 0.930 . S
C988 C989 1.355 . S
C988 C990 1.415 . S
C989 C988 1.355 . S
C989 C991 1.419 . S
C990 C988 1.415 . S
C990 C995 1.425 . S
C990 C997 1.409 . S
C991 H983 0.930 . S
C991 C989 1.419 . S
C991 C992 1.362 . S
C992 H984 0.930 . S
C992 C991 1.362 . S
C992 C995 1.409 . S
C993 H985 0.930 . S
C993 C994 1.355 . S
C993 C995 1.415 . S
C994 C993 1.355 . S
C994 C996 1.419 . S
C995 C990 1.425 . S
C995 C992 1.409 . S
C995 C993 1.415 . S
C996 H986 0.930 . S
C996 C994 1.419 . S
C996 C997 1.362 . S
C997 H987 0.930 . S
C997 C990 1.409 . S
C997 C996 1.362 . S
H998 C1004 0.930 . S
H999 C1007 0.930 . S
H1000 C1008 0.930 . S
H1001 C1009 0.930 . S
H1002 C1012 0.930 . S
H1003 C1013 0.930 . S
C1004 H998 0.930 . S
C1004 C1005 1.355 . S
C1004 C1006 1.415 . S
C1005 C1004 1.355 . S
C1005 C1007 1.419 . S
C1006 C1004 1.415 . S
C1006 C1011 1.425 . S
C1006 C1013 1.409 . S
C1007 H999 0.930 . S
C1007 C1005 1.419 . S
C1007 C1008 1.362 . S
C1008 H1000 0.930 . S
C1008 C1007 1.362 . S
C1008 C1011 1.409 . S
C1009 H1001 0.930 . S
C1009 C1010 1.355 . S
C1009 C1011 1.415 . S
C1010 C1009 1.355 . S
C1010 C1012 1.419 . S
C1011 C1006 1.425 . S
C1011 C1008 1.409 . S
C1011 C1009 1.415 . S
C1012 H1002 0.930 . S
C1012 C1010 1.419 . S
C1012 C1013 1.362 . S
C1013 H1003 0.930 . S
C1013 C1006 1.409 . S
C1013 C1012 1.362 . S
H1014 C1020 0.930 . S
H1015 C1023 0.930 . S
H1016 C1024 0.930 . S
H1017 C1025 0.930 . S
H1018 C1028 0.930 . S
H1019 C1029 0.930 . S
C1020 H1014 0.930 . S
C1020 C1021 1.355 . S
C1020 C1022 1.415 . S
C1021 C1020 1.355 . S
C1021 C1023 1.419 . S
C1022 C1020 1.415 . S
C1022 C1027 1.425 . S
C1022 C1029 1.409 . S
C1023 H1015 0.930 . S
C1023 C1021 1.419 . S
C1023 C1024 1.362 . S
C1024 H1016 0.930 . S
C1024 C1023 1.362 . S
C1024 C1027 1.409 . S
C1025 H1017 0.930 . S
C1025 C1026 1.355 . S
C1025 C1027 1.415 . S
C1026 C1025 1.355 . S
C1026 C1028 1.419 . S
C1027 C1022 1.425 . S
C1027 C1024 1.409 . S
C1027 C1025 1.415 . S
C1028 H1018 0.930 . S
C1028 C1026 1.419 . S
C1028 C1029 1.362 . S
C1029 H1019 0.930 . S
C1029 C1022 1.409 . S
C1029 C1028 1.362 . S
H1030 C1036 0.930 . S
H1031 C1039 0.930 . S
H1032 C1040 0.930 . S
H1033 C1041 0.930 . S
H1034 C1044 0.930 . S
H1035 C1045 0.930 . S
C1036 H1030 0.930 . S
C1036 C1037 1.355 . S
C1036 C1038 1.415 . S
C1037 C1036 1.355 . S
C1037 C1039 1.419 . S
C1038 C1036 1.415 . S
C1038 C1043 1.425 . S
C1038 C1045 1.409 . S
C1039 H1031 0.930 . S
C1039 C1037 1.419 . S
C1039 C1040 1.362 . S
C1040 H1032 0.930 . S
C1040 C1039 1.362 . S
C1040 C1043 1.409 . S
C1041 H1033 0.930 . S
C1041 C1042 1.355 . S
C1041 C1043 1.415 . S
C1042 C1041 1.355 . S
C1042 C1044 1.419 . S
C1043 C1038 1.425 . S
C1043 C1040 1.409 . S
C1043 C1041 1.415 . S
C1044 H1034 0.930 . S
C1044 C1042 1.419 . S
C1044 C1045 1.362 . S
C1045 H1035 0.930 . S
C1045 C1038 1.409 . S
C1045 C1044 1.362 . S
H1046 C1052 0.930 . S
H1047 C1055 0.930 . S
H1048 C1056 0.930 . S
H1049 C1057 0.930 . S
H1050 C1060 0.930 . S
H1051 C1061 0.930 . S
C1052 H1046 0.930 . S
C1052 C1053 1.355 . S
C1052 C1054 1.415 . S
C1053 C1052 1.355 . S
C1053 C1055 1.419 . S
C1054 C1052 1.415 . S
C1054 C1059 1.425 . S
C1054 C1061 1.409 . S
C1055 H1047 0.930 . S
C1055 C1053 1.419 . S
C1055 C1056 1.362 . S
C1056 H1048 0.930 . S
C1056 C1055 1.362 . S
C1056 C1059 1.409 . S
C1057 H1049 0.930 . S
C1057 C1058 1.355 . S
C1057 C1059 1.415 . S
C1058 C1057 1.355 . S
C1058 C1060 1.419 . S
C1059 C1054 1.425 . S
C1059 C1056 1.409 . S
C1059 C1057 1.415 . S
C1060 H1050 0.930 . S
C1060 C1058 1.419 . S
C1060 C1061 1.362 . S
C1061 H1051 0.930 . S
C1061 C1054 1.409 . S
C1061 C1060 1.362 . S
H1062 C1068 0.930 . S
H1063 C1071 0.930 . S
H1064 C1072 0.930 . S
H1065 C1073 0.930 . S
H1066 C1076 0.930 . S
H1067 C1077 0.930 . S
C1068 H1062 0.930 . S
C1068 C1069 1.355 . S
C1068 C1070 1.415 . S
C1069 C1068 1.355 . S
C1069 C1071 1.419 . S
C1070 C1068 1.415 . S
C1070 C1075 1.425 . S
C1070 C1077 1.409 . S
C1071 H1063 0.930 . S
C1071 C1069 1.419 . S
C1071 C1072 1.362 . S
C1072 H1064 0.930 . S
C1072 C1071 1.362 . S
C1072 C1075 1.409 . S
C1073 H1065 0.930 . S
C1073 C1074 1.355 . S
C1073 C1075 1.415 . S
C1074 C1073 1.355 . S
C1074 C1076 1.419 . S
C1075 C1070 1.425 . S
C1075 C1072 1.409 . S
C1075 C1073 1.415 . S
C1076 H1066 0.930 . S
C1076 C1074 1.419 . S
C1076 C1077 1.362 . S
C1077 H1067 0.930 . S
C1077 C1070 1.409 . S
C1077 C1076 1.362 . S
H1078 C1084 0.930 . S
H1079 C1087 0.930 . S
H1080 C1088 0.930 . S
H1081 C1089 0.930 . S
H1082 C1092 0.930 . S
H1083 C1093 0.930 . S
C1084 H1078 0.930 . S
C1084 C1085 1.355 . S
C1084 C1086 1.415 . S
C1085 C1084 1.355 . S
C1085 C1087 1.419 . S
C1086 C1084 1.415 . S
C1086 C1091 1.425 . S
C1086 C1093 1.409 . S
C1087 H1079 0.930 . S
C1087 C1085 1.419 . S
C1087 C1088 1.362 . S
C1088 H1080 0.930 . S
C1088 C1087 1.362 . S
C1088 C1091 1.409 . S
C1089 H1081 0.930 . S
C1089 C1090 1.355 . S
C1089 C1091 1.415 . S
C1090 C1089 1.355 . S
C1090 C1092 1.419 . S
C1091 C1086 1.425 . S
C1091 C1088 1.409 . S
C1091 C1089 1.415 . S
C1092 H1082 0.930 . S
C1092 C1090 1.419 . S
C1092 C1093 1.362 . S
C1093 H1083 0.930 . S
C1093 C1086 1.409 . S
C1093 C1092 1.362 . S
H1094 C1100 0.930 . S
H1095 C1103 0.930 . S
H1096 C1104 0.930 . S
H1097 C1105 0.930 . S
H1098 C1108 0.930 . S
H1099 C1109 0.930 . S
C1100 H1094 0.930 . S
C1100 C1101 1.355 . S
C1100 C1102 1.415 . S
C1101 C1100 1.355 . S
C1101 C1103 1.419 . S
C1102 C1100 1.415 . S
C1102 C1107 1.425 . S
C1102 C1109 1.409 . S
C1103 H1095 0.930 . S
C1103 C1101 1.419 . S
C1103 C1104 1.362 . S
C1104 H1096 0.930 . S
C1104 C1103 1.362 . S
C1104 C1107 1.409 . S
C1105 H1097 0.930 . S
C1105 C1106 1.355 . S
C1105 C1107 1.415 . S
C1106 C1105 1.355 . S
C1106 C1108 1.419 . S
C1107 C1102 1.425 . S
C1107 C1104 1.409 . S
C1107 C1105 1.415 . S
C1108 H1098 0.930 . S
C1108 C1106 1.419 . S
C1108 C1109 1.362 . S
C1109 H1099 0.930 . S
C1109 C1102 1.409 . S
C1109 C1108 1.362 . S
H1110 C1116 0.930 . S
H1111 C1119 0.930 . S
H1112 C1120 0.930 . S
H1113 C1121 0.930 . S
H1114 C1124 0.930 . S
H1115 C1125 0.930 . S
C1116 H1110 0.930 . S
C1116 C1117 1.355 . S
C1116 C1118 1.415 . S
C1117 C1116 1.355 . S
C1117 C1119 1.419 . S
C1118 C1116 1.415 . S
C1118 C1123 1.425 . S
C1118 C1125 1.409 . S
C1119 H1111 0.930 . S
C1119 C1117 1.419 . S
C1119 C1120 1.362 . S
C1120 H1112 0.930 . S
C1120 C1119 1.362 . S
C1120 C1123 1.409 . S
C1121 H1113 0.930 . S
C1121 C1122 1.355 . S
C1121 C1123 1.415 . S
C1122 C1121 1.355 . S
C1122 C1124 1.419 . S
C1123 C1118 1.425 . S
C1123 C1120 1.409 . S
C1123 C1121 1.415 . S
C1124 H1114 0.930 . S
C1124 C1122 1.419 . S
C1124 C1125 1.362 . S
C1125 H1115 0.930 . S
C1125 C1118 1.409 . S
C1125 C1124 1.362 . S
H1126 C1132 0.930 . S
H1127 C1135 0.930 . S
H1128 C1136 0.930 . S
H1129 C1137 0.930 . S
H1130 C1140 0.930 . S
H1131 C1141 0.930 . S
C1132 H1126 0.930 . S
C1132 C1133 1.355 . S
C1132 C1134 1.415 . S
C1133 C1132 1.355 . S
C1133 C1135 1.419 . S
C1134 C1132 1.415 . S
C1134 C1139 1.425 . S
C1134 C1141 1.409 . S
C1135 H1127 0.930 . S
C1135 C1133 1.419 . S
C1135 C1136 1.362 . S
C1136 H1128 0.930 . S
C1136 C1135 1.362 . S
C1136 C1139 1.409 . S
C1137 H1129 0.930 . S
C1137 C1138 1.355 . S
C1137 C1139 1.415 . S
C1138 C1137 1.355 . S
C1138 C1140 1.419 . S
C1139 C1134 1.425 . S
C1139 C1136 1.409 . S
C1139 C1137 1.415 . S
C1140 H1130 0.930 . S
C1140 C1138 1.419 . S
C1140 C1141 1.362 . S
C1141 H1131 0.930 . S
C1141 C1134 1.409 . S
C1141 C1140 1.362 . S
H1142 C1148 0.930 . S
H1143 C1151 0.930 . S
H1144 C1152 0.930 . S
H1145 C1153 0.930 . S
H1146 C1156 0.930 . S
H1147 C1157 0.930 . S
C1148 H1142 0.930 . S
C1148 C1149 1.355 . S
C1148 C1150 1.415 . S
C1149 C1148 1.355 . S
C1149 C1151 1.419 . S
C1150 C1148 1.415 . S
C1150 C1155 1.425 . S
C1150 C1157 1.409 . S
C1151 H1143 0.930 . S
C1151 C1149 1.419 . S
C1151 C1152 1.362 . S
C1152 H1144 0.930 . S
C1152 C1151 1.362 . S
C1152 C1155 1.409 . S
C1153 H1145 0.930 . S
C1153 C1154 1.355 . S
C1153 C1155 1.415 . S
C1154 C1153 1.355 . S
C1154 C1156 1.419 . S
C1155 C1150 1.425 . S
C1155 C1152 1.409 . S
C1155 C1153 1.415 . S
C1156 H1146 0.930 . S
C1156 C1154 1.419 . S
C1156 C1157 1.362 . S
C1157 H1147 0.930 . S
C1157 C1150 1.409 . S
C1157 C1156 1.362 . S
H1158 C1164 0.930 . S
H1159 C1167 0.930 . S
H1160 C1168 0.930 . S
H1161 C1169 0.930 . S
H1162 C1172 0.930 . S
H1163 C1173 0.930 . S
C1164 H1158 0.930 . S
C1164 C1165 1.355 . S
C1164 C1166 1.415 . S
C1165 C1164 1.355 . S
C1165 C1167 1.419 . S
C1166 C1164 1.415 . S
C1166 C1171 1.425 . S
C1166 C1173 1.409 . S
C1167 H1159 0.930 . S
C1167 C1165 1.419 . S
C1167 C1168 1.362 . S
C1168 H1160 0.930 . S
C1168 C1167 1.362 . S
C1168 C1171 1.409 . S
C1169 H1161 0.930 . S
C1169 C1170 1.355 . S
C1169 C1171 1.415 . S
C1170 C1169 1.355 . S
C1170 C1172 1.419 . S
C1171 C1166 1.425 . S
C1171 C1168 1.409 . S
C1171 C1169 1.415 . S
C1172 H1162 0.930 . S
C1172 C1170 1.419 . S
C1172 C1173 1.362 . S
C1173 H1163 0.930 . S
C1173 C1166 1.409 . S
C1173 C1172 1.362 . S
H1174 C1180 0.930 . S
H1175 C1183 0.930 . S
H1176 C1184 0.930 . S
H1177 C1185 0.930 . S
H1178 C1188 0.930 . S
H1179 C1189 0.930 . S
C1180 H1174 0.930 . S
C1180 C1181 1.355 . S
C1180 C1182 1.415 . S
C1181 C1180 1.355 . S
C1181 C1183 1.419 . S
C1182 C1180 1.415 . S
C1182 C1187 1.425 . S
C1182 C1189 1.409 . S
C1183 H1175 0.930 . S
C1183 C1181 1.419 . S
C1183 C1184 1.362 . S
C1184 H1176 0.930 . S
C1184 C1183 1.362 . S
C1184 C1187 1.409 . S
C1185 H1177 0.930 . S
C1185 C1186 1.355 . S
C1185 C1187 1.415 . S
C1186 C1185 1.355 . S
C1186 C1188 1.419 . S
C1187 C1182 1.425 . S
C1187 C1184 1.409 . S
C1187 C1185 1.415 . S
C1188 H1178 0.930 . S
C1188 C1186 1.419 . S
C1188 C1189 1.362 . S
C1189 H1179 0.930 . S
C1189 C1182 1.409 . S
C1189 C1188 1.362 . S
H1190 C1196 0.930 . S
H1191 C1199 0.930 . S
H1192 C1200 0.930 . S
H1193 C1201 0.930 . S
H1194 C1204 0.930 . S
H1195 C1205 0.930 . S
C1196 H1190 0.930 . S
C1196 C1197 1.355 . S
C1196 C1198 1.415 . S
C1197 C1196 1.355 . S
C1197 C1199 1.419 . S
C1198 C1196 1.415 . S
C1198 C1203 1.425 . S
C1198 C1205 1.409 . S
C1199 H1191 0.930 . S
C1199 C1197 1.419 . S
C1199 C1200 1.362 . S
C1200 H1192 0.930 . S
C1200 C1199 1.362 . S
C1200 C1203 1.409 . S
C1201 H1193 0.930 . S
C1201 C1202 1.355 . S
C1201 C1203 1.415 . S
C1202 C1201 1.355 . S
C1202 C1204 1.419 . S
C1203 C1198 1.425 . S
C1203 C1200 1.409 . S
C1203 C1201 1.415 . S
C1204 H1194 0.930 . S
C1204 C1202 1.419 . S
C1204 C1205 1.362 . S
C1205 H1195 0.930 . S
C1205 C1198 1.409 . S
C1205 C1204 1.362 . S
C450 C267 0.712 . S
C445 N6 0.790 . S
C466 C268 2.083 . S
C461 C57 2.233 . S
C482 C262 1.424 . S
C477 C61 1.445 . S
C493 N96 0.456 . S
C498 C261 0.397 . S
C509 C136 2.232 . S
C514 C264 2.097 . S
C530 C266 1.373 . S
C525 C160 1.441 . S
C541 N194 0.456 . S
C546 C265 0.397 . S
C557 N224 0.888 . S
C562 C263 0.897 . S
C578 C298 2.026 . S
C573 C10 2.009 . S
C589 N36 0.870 . S
C594 C329 0.947 . S
C610 C297 0.716 . S
C605 N74 0.658 . S
C626 C332 1.256 . S
C621 C100 1.325 . S
C637 C121 1.544 . S
C642 C295 1.501 . S
C658 C327 1.919 . S
C653 C177 1.908 . S
C669 C196 2.123 . S
C674 C300 2.076 . S
C685 C226 1.956 . S
C690 C334 1.907 . S
C701 C27 1.950 . S
C706 C330 1.915 . S
C717 N134 0.987 . S
C722 C333 0.902 . S
C738 C301 0.618 . S
C733 N156 0.751 . S
C754 C328 1.299 . S
C749 C181 1.312 . S
C765 C211 1.986 . S
C770 C294 2.034 . S
C781 C76 1.931 . S
C786 C331 1.935 . S
C802 C296 2.068 . S
C797 C117 2.133 . S
C813 C40 1.537 . S
C818 C299 1.477 . S
C829 N216 0.791 . S
C834 C366 0.738 . S
C845 C147 1.912 . S
C850 C367 1.820 . S
C866 C361 1.269 . S
C861 C151 1.339 . S
C882 C360 0.640 . S
C877 N186 0.619 . S
C893 C46 1.881 . S
C898 C363 1.740 . S
C914 C365 1.326 . S
C909 C70 1.338 . S
C925 N104 0.726 . S
C930 C364 0.699 . S
C941 N14 0.767 . S
C946 C362 0.758 . S
C957 C220 2.103 . S
C962 C400 2.044 . S
C978 C432 0.973 . S
C973 N126 0.943 . S
C989 N164 0.574 . S
C994 C393 0.528 . S
C1005 C190 1.583 . S
C1010 C427 1.548 . S
C1026 C398 1.376 . S
C1021 C31 1.379 . S
C1037 C87 2.118 . S
C1042 C429 2.066 . S
C1058 C395 2.239 . S
C1053 C106 2.287 . S
C1074 C430 1.948 . S
C1069 C16 1.869 . S
C1090 C426 1.946 . S
C1085 C237 1.886 . S
C1101 N44 0.920 . S
C1106 C428 1.005 . S
C1117 N66 0.472 . S
C1122 C397 0.489 . S
C1138 C431 1.568 . S
C1133 C91 1.573 . S
C1149 C1 2.113 . S
C1154 C396 2.010 . S
C1165 C166 2.085 . S
C1170 C433 2.075 . S
C1186 C399 2.206 . S
C1181 C207 2.286 . S
C1202 C394 1.381 . S
C1197 C130 1.361 . S
