# Generated by pormake.
# Topology ssa, (4,4)-cn, num edge types: 1
# Building blocks:
#     Node 0, Type 0, BuildingBlock: ESEHIV_clean_sbu_0, # of connection points: 4
#     Node 1, Type 0, BuildingBlock: ESEHIV_clean_sbu_0, # of connection points: 4
#     Node 2, Type 0, BuildingBlock: ESEHIV_clean_sbu_0, # of connection points: 4
#     Node 3, Type 0, BuildingBlock: ESEHIV_clean_sbu_0, # of connection points: 4
#     Node 4, Type 0, BuildingBlock: ESEHIV_clean_sbu_0, # of connection points: 4
#     Node 5, Type 0, BuildingBlock: ESEHIV_clean_sbu_0, # of connection points: 4
#     Node 6, Type 1, BuildingBlock: MUDLON_clean_sbu_0, # of connection points: 4
#     Node 7, Type 1, BuildingBlock: MUDLON_clean_sbu_0, # of connection points: 4
#     Node 8, Type 1, BuildingBlock: MUDLON_clean_sbu_0, # of connection points: 4
#     Node 9, Type 1, BuildingBlock: MUDLON_clean_sbu_0, # of connection points: 4
#     Node 10, Type 1, BuildingBlock: MUDLON_clean_sbu_0, # of connection points: 4
#     Node 11, Type 1, BuildingBlock: MUDLON_clean_sbu_0, # of connection points: 4
#     Edge 12, Type (0, 1), BuildingBlock: OJICUG_clean_linker_0, # of connection points: 2
#     Edge 13, Type (0, 1), BuildingBlock: OJICUG_clean_linker_0, # of connection points: 2
#     Edge 14, Type (0, 1), BuildingBlock: OJICUG_clean_linker_0, # of connection points: 2
#     Edge 15, Type (0, 1), BuildingBlock: OJICUG_clean_linker_0, # of connection points: 2
#     Edge 16, Type (0, 1), BuildingBlock: OJICUG_clean_linker_0, # of connection points: 2
#     Edge 17, Type (0, 1), BuildingBlock: OJICUG_clean_linker_0, # of connection points: 2
#     Edge 18, Type (0, 1), BuildingBlock: OJICUG_clean_linker_0, # of connection points: 2
#     Edge 19, Type (0, 1), BuildingBlock: OJICUG_clean_linker_0, # of connection points: 2
#     Edge 20, Type (0, 1), BuildingBlock: OJICUG_clean_linker_0, # of connection points: 2
#     Edge 21, Type (0, 1), BuildingBlock: OJICUG_clean_linker_0, # of connection points: 2
#     Edge 22, Type (0, 1), BuildingBlock: OJICUG_clean_linker_0, # of connection points: 2
#     Edge 23, Type (0, 1), BuildingBlock: OJICUG_clean_linker_0, # of connection points: 2
#     Edge 24, Type (0, 1), BuildingBlock: OJICUG_clean_linker_0, # of connection points: 2
#     Edge 25, Type (0, 1), BuildingBlock: OJICUG_clean_linker_0, # of connection points: 2
#     Edge 26, Type (0, 1), BuildingBlock: OJICUG_clean_linker_0, # of connection points: 2
#     Edge 27, Type (0, 1), BuildingBlock: OJICUG_clean_linker_0, # of connection points: 2
#     Edge 28, Type (0, 1), BuildingBlock: OJICUG_clean_linker_0, # of connection points: 2
#     Edge 29, Type (0, 1), BuildingBlock: OJICUG_clean_linker_0, # of connection points: 2
#     Edge 30, Type (0, 1), BuildingBlock: OJICUG_clean_linker_0, # of connection points: 2
#     Edge 31, Type (0, 1), BuildingBlock: OJICUG_clean_linker_0, # of connection points: 2
#     Edge 32, Type (0, 1), BuildingBlock: OJICUG_clean_linker_0, # of connection points: 2
#     Edge 33, Type (0, 1), BuildingBlock: OJICUG_clean_linker_0, # of connection points: 2
#     Edge 34, Type (0, 1), BuildingBlock: OJICUG_clean_linker_0, # of connection points: 2
#     Edge 35, Type (0, 1), BuildingBlock: OJICUG_clean_linker_0, # of connection points: 2
# Relax obj value: 0.026
# Max RMSD: 0.110
# Mean RMSD: 0.060
data_MOF--net-ssa--node1-ESEHIV_clean_sbu_0--node2-MUDLON_clean_sbu_0--edge1-OJICUG_clean_linker_0
_symmetry_space_group_name_H-M    P1
_symmetry_Int_Tables_number       1
_symmetry_cell_setting            triclinic
loop_
_symmetry_equiv_pos_as_xyz
'x, y, z'
_cell_length_a     31.71277
_cell_length_b     35.268071
_cell_length_c     30.444181
_cell_angle_alpha  86.84891
_cell_angle_beta   92.264634
_cell_angle_gamma 123.36809
loop_
_atom_site_label
_atom_site_type_symbol
_atom_site_fract_x
_atom_site_fract_y
_atom_site_fract_z
_atom_type_partial_charge
Cu0 Cu 1.01365 0.47907 0.04032 0.0
N1 N 0.03325 0.46135 0.99206 0.0
N2 N 0.02307 0.42334 0.93172 0.0
C3 C 1.00216 0.42373 0.96935 0.0
C4 C 0.06954 0.46214 0.93103 0.0
C5 C 0.07576 0.48544 0.96835 0.0
O6 O 0.94523 0.46523 1.02636 0.0
C7 C 0.03636 0.42365 0.09653 0.0
O8 O 0.03595 0.40579 0.05968 0.0
H9 H 0.96336 0.39904 0.97852 0.0
H10 H 0.10776 0.51878 0.9763 0.0
N11 N 0.05488 0.54201 0.04707 0.0
N12 N 0.0978 0.60759 0.08197 0.0
C13 C 0.07452 0.56195 0.08566 0.0
C14 C 0.06607 0.57624 1.01777 0.0
C15 C 0.09257 0.61676 0.03923 0.0
C16 C 0.9376 0.47434 0.98666 0.0
O17 O 0.97482 0.49192 0.95862 0.0
H18 H 0.07028 0.54306 0.11623 0.0
H19 H 0.05494 0.57205 0.98346 0.0
O20 O 0.02302 0.45194 0.09558 0.0
H21 H 0.09627 0.47384 0.90455 0.0
H22 H 0.107 0.65029 1.02449 0.0
Cu23 Cu 0.52045 0.03755 0.51214 0.0
N24 N 0.55271 0.02599 0.46906 0.0
N25 N 0.56625 0.98487 0.42505 0.0
C26 C 0.53428 0.98448 0.45333 0.0
C27 C 0.60625 0.0283 0.4225 0.0
C28 C 0.59755 0.05372 0.44924 0.0
O29 O 0.44884 0.99299 0.50162 0.0
C30 C 0.59466 0.05977 0.57657 0.0
O31 O 0.62305 0.07647 0.54152 0.0
H32 H 0.49873 0.95424 0.46346 0.0
H33 H 0.62272 0.08966 0.45453 0.0
N34 N 0.53165 0.09553 0.50877 0.0
N35 N 0.53909 0.1563 0.53701 0.0
C36 C 0.51948 0.11136 0.54201 0.0
C37 C 0.55975 0.13164 0.48129 0.0
C38 C 0.56448 0.16927 0.49871 0.0
C39 C 0.42968 0.99987 0.46683 0.0
O40 O 0.4568 0.03882 0.44467 0.0
H41 H 0.50015 0.09091 0.57121 0.0
H42 H 0.57791 0.13126 0.45215 0.0
O43 O 0.5467 0.03604 0.57132 0.0
H44 H 0.63938 0.0407 0.40277 0.0
H45 H 0.58682 0.2038 0.48527 0.0
Cu46 Cu 0.48807 0.50412 0.04496 0.0
N47 N 0.47375 0.44966 1.0213 0.0
N48 N 0.4751 0.40513 0.9718 0.0
C49 C 0.48511 0.44676 0.97977 0.0
C50 C 0.45652 0.38083 1.01005 0.0
C51 C 0.45608 0.40836 0.0405 0.0
O52 O 0.54216 0.55148 1.00826 0.0
C53 C 0.38976 0.47403 0.06516 0.0
O54 O 0.38191 0.4339 0.05999 0.0
H55 H 0.50137 0.47513 0.95606 0.0
H56 H 0.44494 0.39918 0.07452 0.0
N57 N 0.50917 0.51236 0.10375 0.0
N58 N 0.52463 0.5538 0.16268 0.0
C59 C 0.53416 0.55431 0.11976 0.0
C60 C 0.48314 0.4841 0.1381 0.0
C61 C 0.4927 0.50958 0.17453 0.0
C62 C 0.58539 0.55744 1.01442 0.0
O63 O 0.59211 0.5372 0.04894 0.0
H64 H 0.55303 0.58489 0.09881 0.0
H65 H 0.45408 0.44841 0.13553 0.0
O66 O 0.42996 0.50878 0.04946 0.0
H67 H 0.44598 0.34618 1.01628 0.0
H68 H 0.47448 0.49688 0.20613 0.0
Cu69 Cu 0.03247 0.55037 0.56056 0.0
N70 N 0.08669 0.543 0.55935 0.0
N71 N 0.14347 0.53531 0.52666 0.0
C72 C 0.10755 0.54435 0.5211 0.0
C73 C 0.14496 0.52702 0.57035 0.0
C74 C 0.11006 0.53221 0.59059 0.0
O75 O 0.03946 0.58294 0.5045 0.0
C76 C 0.96343 0.47567 0.61104 0.0
O77 O 1.00052 0.49847 0.63927 0.0
H78 H 0.09468 0.54944 0.48922 0.0
H79 H 0.10135 0.52708 0.62524 0.0
N80 N 0.03424 0.5853 0.60568 0.0
N81 N 0.99432 0.5973 0.65678 0.0
C82 C 0.99194 0.58274 0.61614 0.0
C83 C 0.06567 0.60362 0.64041 0.0
C84 C 0.04113 0.61131 0.67198 0.0
C85 C 0.08236 0.62063 0.50151 0.0
O86 O 0.1109 0.63539 0.53706 0.0
H87 H 0.95811 0.56601 0.59587 0.0
H88 H 0.10143 0.60664 0.64446 0.0
O89 O 0.96942 0.49056 0.57097 0.0
H90 H 0.16865 0.51697 0.5863 0.0
H91 H 0.05469 0.62184 0.70512 0.0
Cu92 Cu 0.55585 0.02157 0.03387 0.0
N93 N 0.51694 0.0137 0.98325 0.0
N94 N 0.50226 0.04668 0.92485 0.0
C95 C 0.53683 0.04241 0.9478 0.0
C96 C 0.45824 0.01794 0.94578 0.0
C97 C 0.46743 0.99782 0.98181 0.0
O98 O 0.60826 0.08653 0.02751 0.0
C99 C 0.48381 0.95818 0.0928 0.0
O100 O 0.48169 0.93147 0.06313 0.0
H101 H 0.57703 0.0645 0.94258 0.0
H102 H 0.44126 0.97788 1.00804 0.0
N103 N 0.58395 0.98664 0.03509 0.0
N104 N 0.60767 0.94165 0.065 0.0
C105 C 0.59719 0.97301 0.07233 0.0
C106 C 0.58679 0.96364 1.0028 0.0
C107 C 0.60129 0.93572 1.02119 0.0
C108 C 0.65389 0.10043 1.01996 0.0
O109 O 0.66999 0.07429 0.03272 0.0
H110 H 0.59498 0.98311 0.10467 0.0
H111 H 0.57613 0.96502 0.96884 0.0
O112 O 0.51319 1.0012 0.08619 0.0
H113 H 0.42291 0.01493 0.93816 0.0
H114 H 0.6045 0.91138 1.00397 0.0
Cu115 Cu 0.53821 0.48972 0.53046 0.0
N116 N 0.5891 0.54019 0.49833 0.0
N117 N 0.62735 0.60796 0.46208 0.0
C118 C 0.58963 0.57827 0.48946 0.0
C119 C 0.65159 0.58755 0.45335 0.0
C120 C 0.62797 0.54575 0.47587 0.0
O121 O 0.47596 0.4714 0.49672 0.0
C122 C 0.53328 0.48199 0.62353 0.0
O123 O 0.49921 0.43861 0.61852 0.0
H124 H 0.5611 0.58297 0.50125 0.0
H125 H 0.63744 0.52067 0.47482 0.0
N126 N 0.54987 0.44306 0.53729 0.0
N127 N 0.57096 0.40345 0.58236 0.0
C128 C 0.58432 0.44504 0.56628 0.0
C129 C 0.51446 0.39847 0.53368 0.0
C130 C 0.5273 0.37399 0.56152 0.0
C131 C 0.4296 0.44468 0.50681 0.0
O132 O 0.41768 0.42474 0.54619 0.0
H133 H 0.61404 0.47639 0.58053 0.0
H134 H 0.47855 0.38503 0.51688 0.0
O135 O 0.54432 0.5096 0.5904 0.0
H136 H 0.6835 0.60139 0.43169 0.0
H137 H 0.50393 0.33779 0.56903 0.0
Mg138 Mg 0.25031 0.47449 0.30299 0.0
C139 C 0.16092 0.416 0.23692 0.0
O140 O 0.18814 0.40055 0.22562 0.0
C141 C 0.27534 0.42896 0.38403 0.0
O142 O 0.23321 0.41987 0.40099 0.0
C143 C 0.20707 0.49172 0.37541 0.0
O144 O 0.17537 0.44887 0.36625 0.0
O145 O 0.24526 0.51638 0.35074 0.0
O146 O 0.1747 0.44077 0.27028 0.0
O147 O 0.29916 0.50404 0.24459 0.0
C148 C 0.30459 0.47437 0.22844 0.0
O149 O 0.28737 0.43579 0.25087 0.0
O150 O 0.28611 0.44509 0.34446 0.0
Mg151 Mg 0.78176 0.24714 0.77405 0.0
C152 C 0.69764 0.16429 0.7291 0.0
O153 O 0.67224 0.17297 0.75525 0.0
C154 C 0.89538 0.31065 0.79356 0.0
O155 O 0.89429 0.33281 0.75792 0.0
C156 C 0.75045 0.20416 0.8612 0.0
O157 O 0.78366 0.19643 0.84733 0.0
O158 O 0.73755 0.22583 0.83517 0.0
O159 O 0.74582 0.18883 0.73102 0.0
O160 O 0.79625 0.30687 0.73383 0.0
C161 C 0.80453 0.30848 0.6928 0.0
O162 O 0.79452 0.2713 0.67488 0.0
O163 O 0.85667 0.27134 0.80299 0.0
Mg164 Mg 0.5983 0.79 0.29877 0.0
C165 C 0.60118 0.82488 0.20647 0.0
O166 O 0.55923 0.7843 0.20671 0.0
C167 C 0.627 0.75661 0.3771 0.0
O168 O 0.58934 0.75871 0.3901 0.0
C169 C 0.54834 0.83915 0.33121 0.0
O170 O 0.52652 0.8311 0.29221 0.0
O171 O 0.57437 0.82257 0.34234 0.0
O172 O 0.6289 0.83738 0.24108 0.0
O173 O 0.5509 0.72206 0.27172 0.0
C174 C 0.58082 0.71586 0.25108 0.0
O175 O 0.62869 0.74927 0.24921 0.0
O176 O 0.64574 0.77414 0.33939 0.0
Mg177 Mg 0.75527 0.5348 0.83079 0.0
C178 C 0.69283 0.53064 0.75317 0.0
O179 O 0.73393 0.57178 0.75006 0.0
C180 C 0.78272 0.49552 0.91088 0.0
O181 O 0.77464 0.52275 0.93135 0.0
C182 C 0.70752 0.58058 0.86993 0.0
O183 O 0.68771 0.57533 0.8303 0.0
O184 O 0.74036 0.57084 0.87764 0.0
O185 O 0.6903 0.50387 0.78448 0.0
O186 O 0.82322 0.57411 0.79074 0.0
C187 C 0.82376 0.54891 0.76264 0.0
O188 O 0.78461 0.50678 0.76068 0.0
O189 O 0.77244 0.49022 0.86979 0.0
Mg190 Mg 0.25391 0.79809 0.28498 0.0
C191 C 0.20581 0.73371 0.2195 0.0
O192 O 0.23846 0.72826 0.24204 0.0
C193 C 0.28534 0.84944 0.36496 0.0
O194 O 0.28872 0.81435 0.37375 0.0
C195 C 0.17585 0.71854 0.33815 0.0
O196 O 0.14925 0.72869 0.31191 0.0
O197 O 0.22347 0.74007 0.33249 0.0
O198 O 0.20151 0.76615 0.22946 0.0
O199 O 0.32644 0.8295 0.25113 0.0
C200 C 0.34642 0.87125 0.23923 0.0
O201 O 0.3257 0.8922 0.25235 0.0
O202 O 0.26716 0.85222 0.32758 0.0
Mg203 Mg 0.54864 0.28329 0.77449 0.0
C204 C 0.56032 0.25821 0.68579 0.0
O205 O 0.60662 0.28095 0.70165 0.0
C206 C 0.53307 0.34855 0.82325 0.0
O207 O 0.5794 0.37693 0.80942 0.0
C208 C 0.55663 0.20299 0.81085 0.0
O209 O 0.58694 0.21413 0.77753 0.0
O210 O 0.53838 0.2266 0.81736 0.0
O211 O 0.52497 0.25373 0.70887 0.0
O212 O 0.628 0.34027 0.77086 0.0
C213 C 0.65318 0.37356 0.7432 0.0
O214 O 0.7016 0.40204 0.75119 0.0
O215 O 0.50867 0.30774 0.8104 0.0
C216 C 0.07339 0.44309 0.17377 0.0
C217 C 0.06032 0.41639 0.13666 0.0
H218 H 0.11478 0.4636 0.23493 0.0
C219 C 0.07553 0.38568 0.13602 0.0
H220 H 0.06252 0.4672 0.17546 0.0
C221 C 0.10554 0.38373 0.16993 0.0
C222 C 0.12122 0.41227 0.20577 0.0
H223 H 0.06608 0.36432 0.10827 0.0
H224 H 0.11821 0.36104 0.16705 0.0
C225 C 0.10339 0.44098 0.20796 0.0
C226 C 0.67167 0.10009 0.62479 0.0
C227 C 0.61891 0.07786 0.61995 0.0
H228 H 0.73786 0.14438 0.66292 0.0
C229 C 0.59176 0.07983 0.65413 0.0
H230 H 0.6938 0.09917 0.59916 0.0
C231 C 0.61722 0.10607 0.69075 0.0
C232 C 0.67036 0.1308 0.69408 0.0
H233 H 0.55122 0.06344 0.65138 0.0
H234 H 0.59531 0.10857 0.71548 0.0
C235 C 0.69706 0.12615 0.66138 0.0
C236 C 0.58502 0.63392 0.1792 0.0
C237 C 0.53833 0.59317 0.18689 0.0
H238 H 0.63449 0.70389 0.19296 0.0
C239 C 0.50463 0.59263 0.21619 0.0
H240 H 0.61172 0.63534 0.15696 0.0
C241 C 0.51746 0.63245 0.23686 0.0
C242 C 0.56441 0.67323 0.22892 0.0
H243 H 0.46803 0.56179 0.22231 0.0
H244 H 0.49092 0.63127 0.25913 0.0
C245 C 0.59795 0.67324 0.19997 0.0
C246 C 0.90349 0.54873 0.67384 0.0
C247 C 0.95161 0.58756 0.68217 0.0
H248 H 0.82615 0.50671 0.69214 0.0
C249 C 0.95723 0.61513 0.71659 0.0
H250 H 0.89769 0.52598 0.64845 0.0
C251 C 0.91553 0.60385 0.74215 0.0
C252 C 0.86771 0.56444 0.73403 0.0
H253 H 0.99384 0.64521 0.72378 0.0
H254 H 0.92098 0.62524 0.76886 0.0
C255 C 0.86229 0.53739 0.69933 0.0
C256 C 0.42983 0.89056 0.14328 0.0
C257 C 0.45264 0.93732 0.13302 0.0
H258 H 0.37939 0.83316 0.18522 0.0
C259 C 0.44395 0.96282 0.16071 0.0
H260 H 0.43619 0.86992 0.123 0.0
C261 C 0.41117 0.94156 0.19644 0.0
C262 C 0.38679 0.89443 0.20562 0.0
H263 H 0.46112 0.99886 0.15395 0.0
H264 H 0.40389 0.96193 0.21621 0.0
C265 C 0.39753 0.86943 0.17924 0.0
C266 C 0.64331 0.41728 0.62878 0.0
C267 C 0.59101 0.39439 0.62201 0.0
H268 H 0.70361 0.42792 0.67167 0.0
C269 C 0.55874 0.36508 0.65585 0.0
H270 H 0.66894 0.44051 0.60349 0.0
C271 C 0.57848 0.35892 0.69566 0.0
C272 C 0.63085 0.3805 0.70191 0.0
H273 H 0.51824 0.3482 0.6521 0.0
H274 H 0.55267 0.33782 0.72161 0.0
C275 C 0.66298 0.41012 0.66801 0.0
C276 C 0.59924 0.939 0.40522 0.0
C277 C 0.56018 0.94663 0.40364 0.0
H278 H 0.62535 0.89815 0.38491 0.0
C279 C 0.51568 0.91698 0.38013 0.0
H280 H 0.63374 0.96128 0.42334 0.0
C281 C 0.51124 0.88145 0.35712 0.0
C282 C 0.55051 0.87392 0.35852 0.0
H283 H 0.48511 0.9223 0.37842 0.0
H284 H 0.47727 0.86005 0.338 0.0
C285 C 0.59418 0.90266 0.38351 0.0
C286 C 0.6694 0.5806 0.98582 0.0
C287 C 0.6226 0.57571 0.97845 0.0
H288 H 0.73352 0.58665 0.95728 0.0
C289 C 0.60881 0.58096 0.93523 0.0
H290 H 0.68146 0.57728 1.0188 0.0
C291 C 0.63882 0.58642 0.89986 0.0
C292 C 0.68312 0.58667 0.90705 0.0
H293 H 0.5731 0.57751 0.9284 0.0
H294 H 0.6254 0.58728 0.86678 0.0
C295 C 0.69934 0.58599 0.95051 0.0
C296 C 0.15816 0.66984 0.45475 0.0
C297 C 0.10517 0.64298 0.45841 0.0
H298 H 0.22198 0.71357 0.41382 0.0
C299 C 0.07559 0.63781 0.4209 0.0
H300 H 0.18218 0.67382 0.48281 0.0
C301 C 0.09867 0.661 0.38117 0.0
C302 C 0.15173 0.68899 0.37801 0.0
H303 H 0.03477 0.61698 0.4226 0.0
H304 H 0.07492 0.65775 0.35315 0.0
C305 C 0.18114 0.69225 0.415 0.0
C306 C 0.48697 0.10509 0.89517 0.0
C307 C 0.51358 0.08378 0.89405 0.0
H308 H 0.48007 0.15954 0.87055 0.0
C309 C 0.55422 0.10181 0.86491 0.0
H310 H 0.45614 0.09275 0.91775 0.0
C311 C 0.56798 0.14023 0.83771 0.0
C312 C 0.54195 0.16203 0.83948 0.0
H313 H 0.57558 0.08632 0.86342 0.0
H314 H 0.59956 0.15328 0.81581 0.0
C315 C 0.50115 0.14383 0.86844 0.0
C316 C 0.33841 0.41355 0.48653 0.0
C317 C 0.3894 0.43733 0.47423 0.0
H318 H 0.26266 0.39188 0.46787 0.0
C319 C 0.40176 0.45508 0.43062 0.0
H320 H 0.32729 0.39923 0.51966 0.0
C321 C 0.36448 0.45039 0.40062 0.0
C322 C 0.31378 0.42816 0.41347 0.0
H323 H 0.44052 0.47335 0.41974 0.0
H324 H 0.37577 0.46565 0.36781 0.0
C325 C 0.30122 0.40921 0.45667 0.0
C326 C 0.95731 0.34722 0.90572 0.0
C327 C 0.99695 0.39248 0.89647 0.0
H328 H 0.8949 0.28532 0.88049 0.0
C329 C 1.00724 0.40811 0.85225 0.0
H330 H 0.94892 0.33399 0.93939 0.0
C331 C 0.97627 0.38026 0.81838 0.0
C332 C 0.93453 0.33599 0.82789 0.0
H333 H 0.03728 0.44279 0.84392 0.0
H334 H 0.98354 0.39431 0.78492 0.0
C335 C 0.92662 0.31921 0.87185 0.0
C336 C 0.86313 0.48049 0.99729 0.0
C337 C 0.88974 0.46906 0.97115 0.0
H338 H 0.80802 0.49778 0.99866 0.0
C339 C 0.87519 0.45963 0.92676 0.0
H340 H 0.87374 0.48826 0.03146 0.0
C341 C 0.83741 0.4646 0.90801 0.0
C342 C 0.81372 0.47993 0.93302 0.0
H343 H 0.8949 0.45053 0.90581 0.0
H344 H 0.82923 0.45931 0.87317 0.0
C345 C 0.82568 0.48616 0.97832 0.0
C346 C 0.36627 0.96928 0.40479 0.0
C347 C 0.38366 0.96187 0.4457 0.0
H348 H 0.32078 0.93944 0.34703 0.0
C349 C 0.36114 0.91711 0.46267 0.0
H350 H 0.38246 1.0034 0.39086 0.0
C351 C 0.32565 0.88058 0.43758 0.0
C352 C 0.31181 0.8879 0.39495 0.0
H353 H 0.37325 0.9101 0.4941 0.0
H354 H 0.31135 0.84644 0.45059 0.0
C355 C 0.33066 0.93264 0.37965 0.0
C356 C 0.52536 0.42302 0.90416 0.0
C357 C 0.48635 0.391 0.93234 0.0
H358 H 0.57009 0.43487 0.84785 0.0
C359 C 0.45994 0.3448 0.922 0.0
H360 H 0.54696 0.45879 0.91099 0.0
C361 C 0.47315 0.33096 0.88533 0.0
C362 C 0.51348 0.36292 0.85826 0.0
H363 H 0.42931 0.31919 0.94254 0.0
H364 H 0.45294 0.29506 0.87916 0.0
C365 C 0.53879 0.40919 0.86784 0.0
C366 C 0.17067 0.49061 0.49224 0.0
C367 C 0.16809 0.52905 0.49161 0.0
H368 H 0.18462 0.44865 0.45541 0.0
C369 C 0.1842 0.5583 0.45376 0.0
H370 H 0.15804 0.46735 0.52071 0.0
C371 C 0.20054 0.54818 0.41657 0.0
C372 C 0.19966 0.508 0.41633 0.0
H373 H 0.18252 0.58819 0.45256 0.0
H374 H 0.21085 0.57021 0.38727 0.0
C375 C 0.18561 0.47988 0.45478 0.0
C376 C 0.73123 0.14864 0.97473 0.0
C377 C 0.68257 0.13666 0.98527 0.0
H378 H 0.79049 0.17944 0.92785 0.0
C379 C 0.65929 0.1536 0.95752 0.0
H380 H 0.75078 0.13695 0.99546 0.0
C381 C 0.68219 0.17801 0.91798 0.0
C382 C 0.7288 0.18603 0.90575 0.0
H383 H 0.62195 0.14546 0.96478 0.0
H384 H 0.6622 0.18826 0.896 0.0
C385 C 0.75391 0.17284 0.93559 0.0
C386 C 0.65594 0.66626 0.40068 0.0
C387 C 0.63565 0.65007 0.44307 0.0
H388 H 0.66983 0.71325 0.34644 0.0
C389 C 0.61988 0.67394 0.46544 0.0
H390 H 0.66838 0.64871 0.38243 0.0
C391 C 0.62079 0.71081 0.44492 0.0
C392 C 0.63767 0.72504 0.40147 0.0
H393 H 0.60525 0.66321 0.49847 0.0
H394 H 0.60605 0.72692 0.46253 0.0
C395 C 0.65695 0.7034 0.38006 0.0
C396 C 0.58473 0.22812 0.57651 0.0
C397 C 0.54089 0.18488 0.5703 0.0
H398 H 0.62493 0.28512 0.61787 0.0
C399 C 0.50076 0.16832 0.59988 0.0
H400 H 0.61644 0.24176 0.55465 0.0
C401 C 0.50538 0.19349 0.63602 0.0
C402 C 0.55059 0.23533 0.64368 0.0
H403 H 0.46635 0.13526 0.59572 0.0
H404 H 0.47474 0.17903 0.65924 0.0
C405 C 0.58966 0.25284 0.61293 0.0
C406 C 0.38451 0.51886 0.12473 0.0
C407 C 0.36272 0.47852 0.10141 0.0
H408 H 0.38302 0.54965 0.18353 0.0
C409 C 0.31864 0.43937 0.11797 0.0
H410 H 0.41888 0.54955 0.11324 0.0
C411 C 0.2991 0.4393 0.15823 0.0
C412 C 0.32247 0.47853 0.18299 0.0
H413 H 0.30066 0.4078 0.10097 0.0
H414 H 0.26636 0.40778 0.17076 0.0
C415 C 0.36426 0.51892 0.16513 0.0
C416 C 0.90184 0.43376 0.6715 0.0
C417 C 0.91581 0.43492 0.62788 0.0
H418 H 0.85486 0.39355 0.72581 0.0
C419 C 0.88735 0.39561 0.60358 0.0
H420 H 0.92267 0.46378 0.6909 0.0
C421 C 0.84848 0.35492 0.62388 0.0
C422 C 0.83696 0.35302 0.66861 0.0
H423 H 0.89722 0.39554 0.56994 0.0
H424 H 0.82923 0.32442 0.60513 0.0
C425 C 0.86268 0.39349 0.69151 0.0
C426 C 0.59104 0.86738 0.09239 0.0
C427 C 0.61336 0.91393 0.0983 0.0
H428 H 0.56995 0.80291 0.12202 0.0
C429 C 0.63708 0.93192 0.1389 0.0
H430 H 0.57208 0.85234 0.06177 0.0
C431 C 0.63641 0.90358 0.17346 0.0
C432 C 0.61119 0.85656 0.16827 0.0
H433 H 0.65488 0.96774 0.14427 0.0
H434 H 0.65309 0.91805 0.20491 0.0
C435 C 0.58963 0.83901 0.12705 0.0
C436 C 0.61368 0.53989 0.66154 0.0
C437 C 0.5702 0.4956 0.66084 0.0
H438 H 0.68602 0.58524 0.69049 0.0
C439 C 0.56618 0.46305 0.69253 0.0
H440 H 0.61841 0.56586 0.63768 0.0
C441 C 0.6055 0.47413 0.72291 0.0
C442 C 0.64976 0.51803 0.72232 0.0
H443 H 0.53336 0.42849 0.69295 0.0
H444 H 0.60166 0.44809 0.74619 0.0
C445 C 0.65283 0.55088 0.69172 0.0
C446 C 0.14607 0.62923 0.15172 0.0
C447 C 0.12338 0.63936 0.11664 0.0
H448 H 0.18916 0.65066 0.21119 0.0
C449 C 0.12635 0.68079 0.11617 0.0
H450 H 0.14504 0.598 0.15298 0.0
C451 C 0.15176 0.71139 0.15011 0.0
C452 C 0.17524 0.70131 0.18465 0.0
H453 H 0.1088 0.68939 0.08976 0.0
H454 H 0.15395 0.74318 0.14883 0.0
C455 C 0.17171 0.65974 0.18505 0.0
loop_
_geom_bond_atom_site_label_1
_geom_bond_atom_site_label_2
_geom_bond_distance
_geom_bond_site_symmetry_2
_ccdc_geom_bond_type
Cu0 N1 1.999 1_454 S
Cu0 O6 1.974 1_454 S
Cu0 N11 1.985 . S
Cu0 O20 1.959 . S
N1 Cu0 1.999 1_656 S
N1 C3 1.263 . S
N1 C5 1.389 1_556 S
N2 C3 1.358 . S
N2 C4 1.400 . S
C3 N1 1.263 . S
C3 N2 1.358 . S
C3 H9 0.930 . S
C4 N2 1.400 . S
C4 C5 1.351 1_556 S
C4 H21 0.930 . S
C5 N1 1.389 1_554 S
C5 C4 1.351 1_554 S
C5 H10 0.930 . S
O6 Cu0 1.974 1_656 S
O6 C16 1.285 . S
C7 O8 1.261 . S
C7 O20 1.251 . S
O8 C7 1.261 . S
H9 C3 0.930 . S
H10 C5 0.930 . S
N11 Cu0 1.985 . S
N11 C13 1.335 . S
N11 C14 1.390 . S
N12 C13 1.345 . S
N12 C15 1.336 . S
C13 N11 1.335 . S
C13 N12 1.345 . S
C13 H18 0.930 . S
C14 N11 1.390 . S
C14 C15 1.346 . S
C14 H19 0.930 . S
C15 N12 1.336 . S
C15 C14 1.346 . S
C15 H22 0.929 . S
C16 O6 1.285 . S
C16 O17 1.199 1_655 S
O17 C16 1.199 1_455 S
H18 C13 0.930 . S
H19 C14 0.930 . S
O20 Cu0 1.959 . S
O20 C7 1.251 . S
H21 C4 0.930 . S
H22 C15 0.929 . S
Cu23 N24 1.999 . S
Cu23 O29 1.974 . S
Cu23 N34 1.985 1_565 S
Cu23 O43 1.959 1_565 S
N24 Cu23 1.999 . S
N24 C26 1.263 . S
N24 C28 1.389 . S
N25 C26 1.358 . S
N25 C27 1.400 . S
C26 N24 1.263 . S
C26 N25 1.358 . S
C26 H32 0.930 . S
C27 N25 1.400 . S
C27 C28 1.351 . S
C27 H44 0.930 . S
C28 N24 1.389 . S
C28 C27 1.351 . S
C28 H33 0.930 . S
O29 Cu23 1.974 . S
O29 C39 1.282 . S
C30 O31 1.261 . S
C30 O43 1.251 . S
O31 C30 1.261 . S
H32 C26 0.930 . S
H33 C28 0.930 . S
N34 Cu23 1.985 1_545 S
N34 C36 1.335 . S
N34 C37 1.390 . S
N35 C36 1.345 . S
N35 C38 1.336 . S
C36 N34 1.335 . S
C36 N35 1.345 . S
C36 H41 0.930 . S
C37 N34 1.390 . S
C37 C38 1.346 . S
C37 H42 0.930 . S
C38 N35 1.336 . S
C38 C37 1.346 . S
C38 H45 0.929 . S
C39 O29 1.282 . S
C39 O40 1.216 1_565 S
O40 C39 1.216 1_545 S
H41 C36 0.930 . S
H42 C37 0.930 . S
O43 Cu23 1.959 1_545 S
O43 C30 1.251 . S
H44 C27 0.930 . S
H45 C38 0.929 . S
Cu46 N47 1.999 1_554 S
Cu46 O52 1.974 1_554 S
Cu46 N57 1.985 . S
Cu46 O66 1.959 . S
N47 Cu46 1.999 1_556 S
N47 C49 1.263 . S
N47 C51 1.389 . S
N48 C49 1.358 . S
N48 C50 1.400 . S
C49 N47 1.263 . S
C49 N48 1.358 . S
C49 H55 0.930 . S
C50 N48 1.400 . S
C50 C51 1.351 . S
C50 H67 0.930 . S
C51 N47 1.389 . S
C51 C50 1.351 . S
C51 H56 0.930 . S
O52 Cu46 1.974 1_556 S
O52 C62 1.282 . S
C53 O54 1.261 . S
C53 O66 1.251 . S
O54 C53 1.261 . S
H55 C49 0.930 . S
H56 C51 0.930 . S
N57 Cu46 1.985 . S
N57 C59 1.335 . S
N57 C60 1.390 . S
N58 C59 1.345 . S
N58 C61 1.336 . S
C59 N57 1.335 . S
C59 N58 1.345 . S
C59 H64 0.930 . S
C60 N57 1.390 . S
C60 C61 1.346 . S
C60 H65 0.930 . S
C61 N58 1.336 . S
C61 C60 1.346 . S
C61 H68 0.929 . S
C62 O52 1.282 . S
C62 O63 1.223 . S
O63 C62 1.223 . S
H64 C59 0.930 . S
H65 C60 0.930 . S
O66 Cu46 1.959 . S
O66 C53 1.251 . S
H67 C50 0.930 . S
H68 C61 0.929 . S
Cu69 N70 1.999 1_655 S
Cu69 O75 1.974 1_655 S
Cu69 N80 1.985 . S
Cu69 O89 1.959 . S
N70 Cu69 1.999 1_455 S
N70 C72 1.263 . S
N70 C74 1.389 1_455 S
N71 C72 1.358 . S
N71 C73 1.401 . S
C72 N70 1.263 . S
C72 N71 1.358 . S
C72 H78 0.930 . S
C73 N71 1.401 . S
C73 C74 1.350 1_455 S
C73 H90 0.931 1_455 S
C74 N70 1.389 1_655 S
C74 C73 1.350 1_655 S
C74 H79 0.930 . S
O75 Cu69 1.974 1_455 S
O75 C85 1.282 . S
C76 O77 1.261 1_655 S
C76 O89 1.251 . S
O77 C76 1.261 1_455 S
H78 C72 0.930 . S
H79 C74 0.930 . S
N80 Cu69 1.985 . S
N80 C82 1.335 . S
N80 C83 1.390 . S
N81 C82 1.345 . S
N81 C84 1.336 . S
C82 N80 1.335 . S
C82 N81 1.345 . S
C82 H87 0.930 . S
C83 N80 1.390 . S
C83 C84 1.346 . S
C83 H88 0.930 1_655 S
C84 N81 1.336 . S
C84 C83 1.346 . S
C84 H91 0.929 . S
C85 O75 1.282 . S
C85 O86 1.216 . S
O86 C85 1.216 . S
H87 C82 0.930 . S
H88 C83 0.930 1_455 S
O89 Cu69 1.959 . S
O89 C76 1.251 . S
H90 C73 0.931 1_655 S
H91 C84 0.929 . S
Cu92 N93 1.999 1_554 S
Cu92 O98 1.974 1_554 S
Cu92 N103 1.985 1_545 S
Cu92 O112 1.959 1_545 S
N93 Cu92 1.999 1_556 S
N93 C95 1.263 . S
N93 C97 1.389 1_556 S
N94 C95 1.358 . S
N94 C96 1.400 . S
C95 N93 1.263 . S
C95 N94 1.358 . S
C95 H101 0.930 . S
C96 N94 1.400 . S
C96 C97 1.351 1_556 S
C96 H113 0.930 . S
C97 N93 1.389 1_554 S
C97 C96 1.351 1_554 S
C97 H102 0.930 . S
O98 Cu92 1.974 1_556 S
O98 C108 1.282 . S
C99 O100 1.261 . S
C99 O112 1.251 . S
O100 C99 1.261 . S
H101 C95 0.930 . S
H102 C97 0.930 . S
N103 Cu92 1.985 1_565 S
N103 C105 1.335 . S
N103 C106 1.390 . S
N104 C105 1.345 . S
N104 C107 1.336 . S
C105 N103 1.335 . S
C105 N104 1.345 . S
C105 H110 0.930 . S
C106 N103 1.390 . S
C106 C107 1.346 . S
C106 H111 0.930 . S
C107 N104 1.336 . S
C107 C106 1.346 . S
C107 H114 0.929 . S
C108 O98 1.282 . S
C108 O109 1.216 1_545 S
O109 C108 1.216 1_565 S
H110 C105 0.930 . S
H111 C106 0.930 . S
O112 Cu92 1.959 1_565 S
O112 C99 1.251 . S
H113 C96 0.930 . S
H114 C107 0.929 . S
Cu115 N116 1.999 . S
Cu115 O121 1.974 . S
Cu115 N126 1.985 . S
Cu115 O135 1.959 . S
N116 Cu115 1.999 . S
N116 C118 1.263 . S
N116 C120 1.389 . S
N117 C118 1.358 . S
N117 C119 1.400 . S
C118 N116 1.263 . S
C118 N117 1.358 . S
C118 H124 0.930 . S
C119 N117 1.400 . S
C119 C120 1.351 . S
C119 H136 0.930 . S
C120 N116 1.389 . S
C120 C119 1.351 . S
C120 H125 0.930 . S
O121 Cu115 1.974 . S
O121 C131 1.282 . S
C122 O123 1.261 . S
C122 O135 1.251 . S
O123 C122 1.261 . S
H124 C118 0.930 . S
H125 C120 0.930 . S
N126 Cu115 1.985 . S
N126 C128 1.335 . S
N126 C129 1.390 . S
N127 C128 1.345 . S
N127 C130 1.336 . S
C128 N126 1.335 . S
C128 N127 1.345 . S
C128 H133 0.930 . S
C129 N126 1.390 . S
C129 C130 1.346 . S
C129 H134 0.930 . S
C130 N127 1.336 . S
C130 C129 1.346 . S
C130 H137 0.929 . S
C131 O121 1.282 . S
C131 O132 1.216 . S
O132 C131 1.216 . S
H133 C128 0.930 . S
H134 C129 0.930 . S
O135 Cu115 1.959 . S
O135 C122 1.251 . S
H136 C119 0.930 . S
H137 C130 0.929 . S
Mg138 O145 2.141 . S
Mg138 O146 2.048 . S
Mg138 O147 2.048 . S
Mg138 O150 2.141 . S
C139 O140 1.313 . S
C139 O146 1.195 . S
O140 C139 1.313 . S
C141 O142 1.245 . S
C141 O150 1.289 . S
O142 C141 1.245 . S
C143 O144 1.245 . S
C143 O145 1.289 . S
O144 C143 1.245 . S
O145 Mg138 2.141 . S
O145 C143 1.289 . S
O146 Mg138 2.048 . S
O146 C139 1.195 . S
O147 Mg138 2.048 . S
O147 C148 1.195 . S
C148 O147 1.195 . S
C148 O149 1.313 . S
O149 C148 1.313 . S
O150 Mg138 2.141 . S
O150 C141 1.289 . S
Mg151 O158 2.141 . S
Mg151 O159 2.048 . S
Mg151 O160 2.048 . S
Mg151 O163 2.141 . S
C152 O153 1.313 . S
C152 O159 1.195 . S
O153 C152 1.313 . S
C154 O155 1.245 . S
C154 O163 1.289 . S
O155 C154 1.245 . S
C156 O157 1.245 . S
C156 O158 1.289 . S
O157 C156 1.245 . S
O158 Mg151 2.141 . S
O158 C156 1.289 . S
O159 Mg151 2.048 . S
O159 C152 1.195 . S
O160 Mg151 2.048 . S
O160 C161 1.195 . S
C161 O160 1.195 . S
C161 O162 1.313 . S
O162 C161 1.313 . S
O163 Mg151 2.141 . S
O163 C154 1.289 . S
Mg164 O171 2.141 . S
Mg164 O172 2.048 . S
Mg164 O173 2.048 . S
Mg164 O176 2.141 . S
C165 O166 1.313 . S
C165 O172 1.195 . S
O166 C165 1.313 . S
C167 O168 1.245 . S
C167 O176 1.289 . S
O168 C167 1.245 . S
C169 O170 1.245 . S
C169 O171 1.289 . S
O170 C169 1.245 . S
O171 Mg164 2.141 . S
O171 C169 1.289 . S
O172 Mg164 2.048 . S
O172 C165 1.195 . S
O173 Mg164 2.048 . S
O173 C174 1.195 . S
C174 O173 1.195 . S
C174 O175 1.313 . S
O175 C174 1.313 . S
O176 Mg164 2.141 . S
O176 C167 1.289 . S
Mg177 O184 2.141 . S
Mg177 O185 2.048 . S
Mg177 O186 2.048 . S
Mg177 O189 2.141 . S
C178 O179 1.313 . S
C178 O185 1.195 . S
O179 C178 1.313 . S
C180 O181 1.245 . S
C180 O189 1.289 . S
O181 C180 1.245 . S
C182 O183 1.245 . S
C182 O184 1.289 . S
O183 C182 1.245 . S
O184 Mg177 2.141 . S
O184 C182 1.289 . S
O185 Mg177 2.048 . S
O185 C178 1.195 . S
O186 Mg177 2.048 . S
O186 C187 1.195 . S
C187 O186 1.195 . S
C187 O188 1.313 . S
O188 C187 1.313 . S
O189 Mg177 2.141 . S
O189 C180 1.289 . S
Mg190 O197 2.141 . S
Mg190 O198 2.048 . S
Mg190 O199 2.048 . S
Mg190 O202 2.141 . S
C191 O192 1.313 . S
C191 O198 1.195 . S
O192 C191 1.313 . S
C193 O194 1.245 . S
C193 O202 1.289 . S
O194 C193 1.245 . S
C195 O196 1.245 . S
C195 O197 1.289 . S
O196 C195 1.245 . S
O197 Mg190 2.141 . S
O197 C195 1.289 . S
O198 Mg190 2.048 . S
O198 C191 1.195 . S
O199 Mg190 2.048 . S
O199 C200 1.195 . S
C200 O199 1.195 . S
C200 O201 1.313 . S
O201 C200 1.313 . S
O202 Mg190 2.141 . S
O202 C193 1.289 . S
Mg203 O210 2.141 . S
Mg203 O211 2.048 . S
Mg203 O212 2.048 . S
Mg203 O215 2.141 . S
C204 O205 1.313 . S
C204 O211 1.195 . S
O205 C204 1.313 . S
C206 O207 1.245 . S
C206 O215 1.289 . S
O207 C206 1.245 . S
C208 O209 1.245 . S
C208 O210 1.289 . S
O209 C208 1.245 . S
O210 Mg203 2.141 . S
O210 C208 1.289 . S
O211 Mg203 2.048 . S
O211 C204 1.195 . S
O212 Mg203 2.048 . S
O212 C213 1.195 . S
C213 O212 1.195 . S
C213 O214 1.313 . S
O214 C213 1.313 . S
O215 Mg203 2.141 . S
O215 C206 1.289 . S
C216 C217 1.387 . S
C216 H220 0.950 . S
C216 C225 1.390 . S
C217 C216 1.387 . S
C217 C219 1.387 . S
H218 C225 0.950 . S
C219 C217 1.387 . S
C219 C221 1.390 . S
C219 H223 0.950 . S
H220 C216 0.950 . S
C221 C219 1.390 . S
C221 C222 1.387 . S
C221 H224 0.950 . S
C222 C221 1.387 . S
C222 C225 1.387 . S
H223 C219 0.950 . S
H224 C221 0.950 . S
C225 C216 1.390 . S
C225 H218 0.950 . S
C225 C222 1.387 . S
C226 C227 1.387 . S
C226 H230 0.950 . S
C226 C235 1.390 . S
C227 C226 1.387 . S
C227 C229 1.387 . S
H228 C235 0.950 . S
C229 C227 1.387 . S
C229 C231 1.390 . S
C229 H233 0.950 . S
H230 C226 0.950 . S
C231 C229 1.390 . S
C231 C232 1.387 . S
C231 H234 0.950 . S
C232 C231 1.387 . S
C232 C235 1.387 . S
H233 C229 0.950 . S
H234 C231 0.950 . S
C235 C226 1.390 . S
C235 H228 0.950 . S
C235 C232 1.387 . S
C236 C237 1.387 . S
C236 H240 0.950 . S
C236 C245 1.390 . S
C237 C236 1.387 . S
C237 C239 1.387 . S
H238 C245 0.950 . S
C239 C237 1.387 . S
C239 C241 1.390 . S
C239 H243 0.950 . S
H240 C236 0.950 . S
C241 C239 1.390 . S
C241 C242 1.387 . S
C241 H244 0.950 . S
C242 C241 1.387 . S
C242 C245 1.387 . S
H243 C239 0.950 . S
H244 C241 0.950 . S
C245 C236 1.390 . S
C245 H238 0.950 . S
C245 C242 1.387 . S
C246 C247 1.387 . S
C246 H250 0.950 . S
C246 C255 1.390 . S
C247 C246 1.387 . S
C247 C249 1.387 . S
H248 C255 0.950 . S
C249 C247 1.387 . S
C249 C251 1.390 . S
C249 H253 0.950 . S
H250 C246 0.950 . S
C251 C249 1.390 . S
C251 C252 1.387 . S
C251 H254 0.950 . S
C252 C251 1.387 . S
C252 C255 1.387 . S
H253 C249 0.950 . S
H254 C251 0.950 . S
C255 C246 1.390 . S
C255 H248 0.950 . S
C255 C252 1.387 . S
C256 C257 1.387 . S
C256 H260 0.950 . S
C256 C265 1.390 . S
C257 C256 1.387 . S
C257 C259 1.387 . S
H258 C265 0.950 . S
C259 C257 1.387 . S
C259 C261 1.390 . S
C259 H263 0.950 . S
H260 C256 0.950 . S
C261 C259 1.390 . S
C261 C262 1.387 . S
C261 H264 0.950 . S
C262 C261 1.387 . S
C262 C265 1.387 . S
H263 C259 0.950 . S
H264 C261 0.950 . S
C265 C256 1.390 . S
C265 H258 0.950 . S
C265 C262 1.387 . S
C266 C267 1.387 . S
C266 H270 0.950 . S
C266 C275 1.390 . S
C267 C266 1.387 . S
C267 C269 1.387 . S
H268 C275 0.950 . S
C269 C267 1.387 . S
C269 C271 1.390 . S
C269 H273 0.950 . S
H270 C266 0.950 . S
C271 C269 1.390 . S
C271 C272 1.387 . S
C271 H274 0.950 . S
C272 C271 1.387 . S
C272 C275 1.387 . S
H273 C269 0.950 . S
H274 C271 0.950 . S
C275 C266 1.390 . S
C275 H268 0.950 . S
C275 C272 1.387 . S
C276 C277 1.387 . S
C276 H280 0.950 . S
C276 C285 1.390 . S
C277 C276 1.387 . S
C277 C279 1.387 . S
H278 C285 0.950 . S
C279 C277 1.387 . S
C279 C281 1.390 . S
C279 H283 0.950 . S
H280 C276 0.950 . S
C281 C279 1.390 . S
C281 C282 1.387 . S
C281 H284 0.950 . S
C282 C281 1.387 . S
C282 C285 1.387 . S
H283 C279 0.950 . S
H284 C281 0.950 . S
C285 C276 1.390 . S
C285 H278 0.950 . S
C285 C282 1.387 . S
C286 C287 1.387 . S
C286 H290 0.950 . S
C286 C295 1.390 . S
C287 C286 1.387 . S
C287 C289 1.387 . S
H288 C295 0.950 . S
C289 C287 1.387 . S
C289 C291 1.390 . S
C289 H293 0.950 . S
H290 C286 0.950 . S
C291 C289 1.390 . S
C291 C292 1.387 . S
C291 H294 0.950 . S
C292 C291 1.387 . S
C292 C295 1.387 . S
H293 C289 0.950 . S
H294 C291 0.950 . S
C295 C286 1.390 . S
C295 H288 0.950 . S
C295 C292 1.387 . S
C296 C297 1.387 . S
C296 H300 0.950 . S
C296 C305 1.390 . S
C297 C296 1.387 . S
C297 C299 1.387 . S
H298 C305 0.950 . S
C299 C297 1.387 . S
C299 C301 1.390 . S
C299 H303 0.950 . S
H300 C296 0.950 . S
C301 C299 1.390 . S
C301 C302 1.387 . S
C301 H304 0.950 . S
C302 C301 1.387 . S
C302 C305 1.387 . S
H303 C299 0.950 . S
H304 C301 0.950 . S
C305 C296 1.390 . S
C305 H298 0.950 . S
C305 C302 1.387 . S
C306 C307 1.387 . S
C306 H310 0.950 . S
C306 C315 1.390 . S
C307 C306 1.387 . S
C307 C309 1.387 . S
H308 C315 0.950 . S
C309 C307 1.387 . S
C309 C311 1.390 . S
C309 H313 0.950 . S
H310 C306 0.950 . S
C311 C309 1.390 . S
C311 C312 1.387 . S
C311 H314 0.950 . S
C312 C311 1.387 . S
C312 C315 1.387 . S
H313 C309 0.950 . S
H314 C311 0.950 . S
C315 C306 1.390 . S
C315 H308 0.950 . S
C315 C312 1.387 . S
C316 C317 1.387 . S
C316 H320 0.950 . S
C316 C325 1.390 . S
C317 C316 1.387 . S
C317 C319 1.387 . S
H318 C325 0.950 . S
C319 C317 1.387 . S
C319 C321 1.390 . S
C319 H323 0.950 . S
H320 C316 0.950 . S
C321 C319 1.390 . S
C321 C322 1.387 . S
C321 H324 0.950 . S
C322 C321 1.387 . S
C322 C325 1.387 . S
H323 C319 0.950 . S
H324 C321 0.950 . S
C325 C316 1.390 . S
C325 H318 0.950 . S
C325 C322 1.387 . S
C326 C327 1.387 . S
C326 H330 0.950 . S
C326 C335 1.390 . S
C327 C326 1.387 . S
C327 C329 1.387 . S
H328 C335 0.950 . S
C329 C327 1.387 . S
C329 C331 1.390 . S
C329 H333 0.950 . S
H330 C326 0.950 . S
C331 C329 1.390 . S
C331 C332 1.387 . S
C331 H334 0.950 . S
C332 C331 1.387 . S
C332 C335 1.387 . S
H333 C329 0.950 . S
H334 C331 0.950 . S
C335 C326 1.390 . S
C335 H328 0.950 . S
C335 C332 1.387 . S
C336 C337 1.387 . S
C336 H340 0.950 . S
C336 C345 1.390 . S
C337 C336 1.387 . S
C337 C339 1.387 . S
H338 C345 0.950 . S
C339 C337 1.387 . S
C339 C341 1.390 . S
C339 H343 0.950 1_655 S
H340 C336 0.950 . S
C341 C339 1.390 . S
C341 C342 1.387 . S
C341 H344 0.950 . S
C342 C341 1.387 . S
C342 C345 1.387 . S
H343 C339 0.950 1_455 S
H344 C341 0.950 . S
C345 C336 1.390 . S
C345 H338 0.950 . S
C345 C342 1.387 . S
C346 C347 1.387 . S
C346 H350 0.950 1_565 S
C346 C355 1.390 . S
C347 C346 1.387 . S
C347 C349 1.387 . S
H348 C355 0.950 . S
C349 C347 1.387 . S
C349 C351 1.390 . S
C349 H353 0.950 . S
H350 C346 0.950 1_545 S
C351 C349 1.390 . S
C351 C352 1.387 . S
C351 H354 0.950 . S
C352 C351 1.387 . S
C352 C355 1.387 . S
H353 C349 0.950 . S
H354 C351 0.950 . S
C355 C346 1.390 . S
C355 H348 0.950 . S
C355 C352 1.387 . S
C356 C357 1.387 . S
C356 H360 0.950 . S
C356 C365 1.390 . S
C357 C356 1.387 . S
C357 C359 1.387 . S
H358 C365 0.950 . S
C359 C357 1.387 . S
C359 C361 1.390 . S
C359 H363 0.950 . S
H360 C356 0.950 . S
C361 C359 1.390 . S
C361 C362 1.387 . S
C361 H364 0.950 . S
C362 C361 1.387 . S
C362 C365 1.387 . S
H363 C359 0.950 . S
H364 C361 0.950 . S
C365 C356 1.390 . S
C365 H358 0.950 . S
C365 C362 1.387 . S
C366 C367 1.387 . S
C366 H370 0.950 . S
C366 C375 1.390 . S
C367 C366 1.387 . S
C367 C369 1.387 . S
H368 C375 0.950 . S
C369 C367 1.387 . S
C369 C371 1.390 . S
C369 H373 0.950 . S
H370 C366 0.950 . S
C371 C369 1.390 . S
C371 C372 1.387 . S
C371 H374 0.950 . S
C372 C371 1.387 . S
C372 C375 1.387 . S
H373 C369 0.950 . S
H374 C371 0.950 . S
C375 C366 1.390 . S
C375 H368 0.950 . S
C375 C372 1.387 . S
C376 C377 1.387 . S
C376 H380 0.950 . S
C376 C385 1.390 . S
C377 C376 1.387 . S
C377 C379 1.387 . S
H378 C385 0.950 . S
C379 C377 1.387 . S
C379 C381 1.390 . S
C379 H383 0.950 . S
H380 C376 0.950 . S
C381 C379 1.390 . S
C381 C382 1.387 . S
C381 H384 0.950 . S
C382 C381 1.387 . S
C382 C385 1.387 . S
H383 C379 0.950 . S
H384 C381 0.950 . S
C385 C376 1.390 . S
C385 H378 0.950 . S
C385 C382 1.387 . S
C386 C387 1.387 . S
C386 H390 0.950 . S
C386 C395 1.390 . S
C387 C386 1.387 . S
C387 C389 1.387 . S
H388 C395 0.950 . S
C389 C387 1.387 . S
C389 C391 1.390 . S
C389 H393 0.950 . S
H390 C386 0.950 . S
C391 C389 1.390 . S
C391 C392 1.387 . S
C391 H394 0.950 . S
C392 C391 1.387 . S
C392 C395 1.387 . S
H393 C389 0.950 . S
H394 C391 0.950 . S
C395 C386 1.390 . S
C395 H388 0.950 . S
C395 C392 1.387 . S
C396 C397 1.387 . S
C396 H400 0.950 . S
C396 C405 1.390 . S
C397 C396 1.387 . S
C397 C399 1.387 . S
H398 C405 0.950 . S
C399 C397 1.387 . S
C399 C401 1.390 . S
C399 H403 0.950 . S
H400 C396 0.950 . S
C401 C399 1.390 . S
C401 C402 1.387 . S
C401 H404 0.950 . S
C402 C401 1.387 . S
C402 C405 1.387 . S
H403 C399 0.950 . S
H404 C401 0.950 . S
C405 C396 1.390 . S
C405 H398 0.950 . S
C405 C402 1.387 . S
C406 C407 1.387 . S
C406 H410 0.950 . S
C406 C415 1.390 . S
C407 C406 1.387 . S
C407 C409 1.387 . S
H408 C415 0.950 . S
C409 C407 1.387 . S
C409 C411 1.390 . S
C409 H413 0.950 . S
H410 C406 0.950 . S
C411 C409 1.390 . S
C411 C412 1.387 . S
C411 H414 0.950 . S
C412 C411 1.387 . S
C412 C415 1.387 . S
H413 C409 0.950 . S
H414 C411 0.950 . S
C415 C406 1.390 . S
C415 H408 0.950 . S
C415 C412 1.387 . S
C416 C417 1.387 . S
C416 H420 0.950 . S
C416 C425 1.390 . S
C417 C416 1.387 . S
C417 C419 1.387 . S
H418 C425 0.950 . S
C419 C417 1.387 . S
C419 C421 1.390 . S
C419 H423 0.950 1_655 S
H420 C416 0.950 . S
C421 C419 1.390 . S
C421 C422 1.387 . S
C421 H424 0.950 . S
C422 C421 1.387 . S
C422 C425 1.387 . S
H423 C419 0.950 1_455 S
H424 C421 0.950 . S
C425 C416 1.390 . S
C425 H418 0.950 . S
C425 C422 1.387 . S
C426 C427 1.387 . S
C426 H430 0.950 . S
C426 C435 1.390 . S
C427 C426 1.387 . S
C427 C429 1.387 . S
H428 C435 0.950 . S
C429 C427 1.387 . S
C429 C431 1.390 . S
C429 H433 0.945 1_565 S
H430 C426 0.950 . S
C431 C429 1.390 . S
C431 C432 1.387 . S
C431 H434 0.950 . S
C432 C431 1.387 . S
C432 C435 1.387 . S
H433 C429 0.945 1_545 S
H434 C431 0.950 . S
C435 C426 1.390 . S
C435 H428 0.950 . S
C435 C432 1.387 . S
C436 C437 1.387 . S
C436 H440 0.950 . S
C436 C445 1.390 . S
C437 C436 1.387 . S
C437 C439 1.387 . S
H438 C445 0.950 . S
C439 C437 1.387 . S
C439 C441 1.390 . S
C439 H443 0.950 . S
H440 C436 0.950 . S
C441 C439 1.390 . S
C441 C442 1.387 . S
C441 H444 0.950 . S
C442 C441 1.387 . S
C442 C445 1.387 . S
H443 C439 0.950 . S
H444 C441 0.950 . S
C445 C436 1.390 . S
C445 H438 0.950 . S
C445 C442 1.387 . S
C446 C447 1.387 . S
C446 H450 0.950 . S
C446 C455 1.390 . S
C447 C446 1.387 . S
C447 C449 1.387 . S
H448 C455 0.950 . S
C449 C447 1.387 . S
C449 C451 1.390 . S
C449 H453 0.950 . S
H450 C446 0.950 . S
C451 C449 1.390 . S
C451 C452 1.387 . S
C451 H454 0.950 . S
C452 C451 1.387 . S
C452 C455 1.387 . S
H453 C449 0.950 . S
H454 C451 0.950 . S
C455 C446 1.390 . S
C455 H448 0.950 . S
C455 C452 1.387 . S
C217 C7 1.858 . S
C222 C139 1.856 . S
C227 C30 1.645 . S
C232 C152 1.635 . S
C242 C174 1.622 . S
C237 N58 1.648 . S
C252 C187 1.444 . S
C247 N81 1.446 . S
C262 C200 1.728 . S
C257 C99 1.812 . S
C272 C213 1.420 . S
C267 N127 1.448 . S
C277 N25 1.661 . S
C282 C169 1.592 . S
C287 C62 1.635 . S
C292 C182 1.536 . S
C302 C195 1.695 . S
C297 C85 1.784 . S
C312 C208 1.390 . S
C307 N94 1.465 . S
C317 C131 1.825 . S
C322 C141 1.814 . S
C332 C154 1.498 . S
C327 N2 1.461 . S
C342 C180 1.716 . S
C337 C16 1.800 . S
C347 C39 1.597 . S
C352 C193 1.526 . S
C362 C206 1.597 . S
C357 N48 1.640 . S
C367 N71 1.443 . S
C372 C143 1.491 . S
C377 C108 1.780 . S
C382 C156 1.791 . S
C387 N117 1.432 . S
C392 C167 1.391 . S
C397 N35 1.634 . S
C402 C204 1.612 . S
C412 C148 1.618 . S
C407 C53 1.621 . S
C417 C76 1.820 . S
C422 C161 1.819 . S
C427 N104 1.429 . S
C432 C165 1.404 . S
C437 C122 1.781 . S
C442 C178 1.715 . S
C447 N12 1.416 . S
C452 C191 1.412 . S
