# Generated by pormake.
# Topology gar, (4,6)-cn, num edge types: 1
# Building blocks:
#     Node 0, Type 0, BuildingBlock: CEKHIL_clean_sbu_0, # of connection points: 4
#     Node 1, Type 0, BuildingBlock: CEKHIL_clean_sbu_0, # of connection points: 4
#     Node 2, Type 0, BuildingBlock: CEKHIL_clean_sbu_0, # of connection points: 4
#     Node 3, Type 0, BuildingBlock: CEKHIL_clean_sbu_0, # of connection points: 4
#     Node 4, Type 0, BuildingBlock: CEKHIL_clean_sbu_0, # of connection points: 4
#     Node 5, Type 0, BuildingBlock: CEKHIL_clean_sbu_0, # of connection points: 4
#     Node 6, Type 0, BuildingBlock: CEKHIL_clean_sbu_0, # of connection points: 4
#     Node 7, Type 0, BuildingBlock: CEKHIL_clean_sbu_0, # of connection points: 4
#     Node 8, Type 0, BuildingBlock: CEKHIL_clean_sbu_0, # of connection points: 4
#     Node 9, Type 0, BuildingBlock: CEKHIL_clean_sbu_0, # of connection points: 4
#     Node 10, Type 0, BuildingBlock: CEKHIL_clean_sbu_0, # of connection points: 4
#     Node 11, Type 0, BuildingBlock: CEKHIL_clean_sbu_0, # of connection points: 4
#     Node 12, Type 0, BuildingBlock: CEKHIL_clean_sbu_0, # of connection points: 4
#     Node 13, Type 0, BuildingBlock: CEKHIL_clean_sbu_0, # of connection points: 4
#     Node 14, Type 0, BuildingBlock: CEKHIL_clean_sbu_0, # of connection points: 4
#     Node 15, Type 0, BuildingBlock: CEKHIL_clean_sbu_0, # of connection points: 4
#     Node 16, Type 0, BuildingBlock: CEKHIL_clean_sbu_0, # of connection points: 4
#     Node 17, Type 0, BuildingBlock: CEKHIL_clean_sbu_0, # of connection points: 4
#     Node 18, Type 0, BuildingBlock: CEKHIL_clean_sbu_0, # of connection points: 4
#     Node 19, Type 0, BuildingBlock: CEKHIL_clean_sbu_0, # of connection points: 4
#     Node 20, Type 0, BuildingBlock: CEKHIL_clean_sbu_0, # of connection points: 4
#     Node 21, Type 0, BuildingBlock: CEKHIL_clean_sbu_0, # of connection points: 4
#     Node 22, Type 0, BuildingBlock: CEKHIL_clean_sbu_0, # of connection points: 4
#     Node 23, Type 0, BuildingBlock: CEKHIL_clean_sbu_0, # of connection points: 4
#     Node 24, Type 1, BuildingBlock: CUKXOW_clean_sbu_0, # of connection points: 6
#     Node 25, Type 1, BuildingBlock: CUKXOW_clean_sbu_0, # of connection points: 6
#     Node 26, Type 1, BuildingBlock: CUKXOW_clean_sbu_0, # of connection points: 6
#     Node 27, Type 1, BuildingBlock: CUKXOW_clean_sbu_0, # of connection points: 6
#     Node 28, Type 1, BuildingBlock: CUKXOW_clean_sbu_0, # of connection points: 6
#     Node 29, Type 1, BuildingBlock: CUKXOW_clean_sbu_0, # of connection points: 6
#     Node 30, Type 1, BuildingBlock: CUKXOW_clean_sbu_0, # of connection points: 6
#     Node 31, Type 1, BuildingBlock: CUKXOW_clean_sbu_0, # of connection points: 6
#     Node 32, Type 1, BuildingBlock: CUKXOW_clean_sbu_0, # of connection points: 6
#     Node 33, Type 1, BuildingBlock: CUKXOW_clean_sbu_0, # of connection points: 6
#     Node 34, Type 1, BuildingBlock: CUKXOW_clean_sbu_0, # of connection points: 6
#     Node 35, Type 1, BuildingBlock: CUKXOW_clean_sbu_0, # of connection points: 6
#     Node 36, Type 1, BuildingBlock: CUKXOW_clean_sbu_0, # of connection points: 6
#     Node 37, Type 1, BuildingBlock: CUKXOW_clean_sbu_0, # of connection points: 6
#     Node 38, Type 1, BuildingBlock: CUKXOW_clean_sbu_0, # of connection points: 6
#     Node 39, Type 1, BuildingBlock: CUKXOW_clean_sbu_0, # of connection points: 6
#     Edge 40, Type (0, 1), BuildingBlock: OJICUG_clean_linker_0, # of connection points: 2
#     Edge 41, Type (0, 1), BuildingBlock: OJICUG_clean_linker_0, # of connection points: 2
#     Edge 42, Type (0, 1), BuildingBlock: OJICUG_clean_linker_0, # of connection points: 2
#     Edge 43, Type (0, 1), BuildingBlock: OJICUG_clean_linker_0, # of connection points: 2
#     Edge 44, Type (0, 1), BuildingBlock: OJICUG_clean_linker_0, # of connection points: 2
#     Edge 45, Type (0, 1), BuildingBlock: OJICUG_clean_linker_0, # of connection points: 2
#     Edge 46, Type (0, 1), BuildingBlock: OJICUG_clean_linker_0, # of connection points: 2
#     Edge 47, Type (0, 1), BuildingBlock: OJICUG_clean_linker_0, # of connection points: 2
#     Edge 48, Type (0, 1), BuildingBlock: OJICUG_clean_linker_0, # of connection points: 2
#     Edge 49, Type (0, 1), BuildingBlock: OJICUG_clean_linker_0, # of connection points: 2
#     Edge 50, Type (0, 1), BuildingBlock: OJICUG_clean_linker_0, # of connection points: 2
#     Edge 51, Type (0, 1), BuildingBlock: OJICUG_clean_linker_0, # of connection points: 2
#     Edge 52, Type (0, 1), BuildingBlock: OJICUG_clean_linker_0, # of connection points: 2
#     Edge 53, Type (0, 1), BuildingBlock: OJICUG_clean_linker_0, # of connection points: 2
#     Edge 54, Type (0, 1), BuildingBlock: OJICUG_clean_linker_0, # of connection points: 2
#     Edge 55, Type (0, 1), BuildingBlock: OJICUG_clean_linker_0, # of connection points: 2
#     Edge 56, Type (0, 1), BuildingBlock: OJICUG_clean_linker_0, # of connection points: 2
#     Edge 57, Type (0, 1), BuildingBlock: OJICUG_clean_linker_0, # of connection points: 2
#     Edge 58, Type (0, 1), BuildingBlock: OJICUG_clean_linker_0, # of connection points: 2
#     Edge 59, Type (0, 1), BuildingBlock: OJICUG_clean_linker_0, # of connection points: 2
#     Edge 60, Type (0, 1), BuildingBlock: OJICUG_clean_linker_0, # of connection points: 2
#     Edge 61, Type (0, 1), BuildingBlock: OJICUG_clean_linker_0, # of connection points: 2
#     Edge 62, Type (0, 1), BuildingBlock: OJICUG_clean_linker_0, # of connection points: 2
#     Edge 63, Type (0, 1), BuildingBlock: OJICUG_clean_linker_0, # of connection points: 2
#     Edge 64, Type (0, 1), BuildingBlock: OJICUG_clean_linker_0, # of connection points: 2
#     Edge 65, Type (0, 1), BuildingBlock: OJICUG_clean_linker_0, # of connection points: 2
#     Edge 66, Type (0, 1), BuildingBlock: OJICUG_clean_linker_0, # of connection points: 2
#     Edge 67, Type (0, 1), BuildingBlock: OJICUG_clean_linker_0, # of connection points: 2
#     Edge 68, Type (0, 1), BuildingBlock: OJICUG_clean_linker_0, # of connection points: 2
#     Edge 69, Type (0, 1), BuildingBlock: OJICUG_clean_linker_0, # of connection points: 2
#     Edge 70, Type (0, 1), BuildingBlock: OJICUG_clean_linker_0, # of connection points: 2
#     Edge 71, Type (0, 1), BuildingBlock: OJICUG_clean_linker_0, # of connection points: 2
#     Edge 72, Type (0, 1), BuildingBlock: OJICUG_clean_linker_0, # of connection points: 2
#     Edge 73, Type (0, 1), BuildingBlock: OJICUG_clean_linker_0, # of connection points: 2
#     Edge 74, Type (0, 1), BuildingBlock: OJICUG_clean_linker_0, # of connection points: 2
#     Edge 75, Type (0, 1), BuildingBlock: OJICUG_clean_linker_0, # of connection points: 2
#     Edge 76, Type (0, 1), BuildingBlock: OJICUG_clean_linker_0, # of connection points: 2
#     Edge 77, Type (0, 1), BuildingBlock: OJICUG_clean_linker_0, # of connection points: 2
#     Edge 78, Type (0, 1), BuildingBlock: OJICUG_clean_linker_0, # of connection points: 2
#     Edge 79, Type (0, 1), BuildingBlock: OJICUG_clean_linker_0, # of connection points: 2
#     Edge 80, Type (0, 1), BuildingBlock: OJICUG_clean_linker_0, # of connection points: 2
#     Edge 81, Type (0, 1), BuildingBlock: OJICUG_clean_linker_0, # of connection points: 2
#     Edge 82, Type (0, 1), BuildingBlock: OJICUG_clean_linker_0, # of connection points: 2
#     Edge 83, Type (0, 1), BuildingBlock: OJICUG_clean_linker_0, # of connection points: 2
#     Edge 84, Type (0, 1), BuildingBlock: OJICUG_clean_linker_0, # of connection points: 2
#     Edge 85, Type (0, 1), BuildingBlock: OJICUG_clean_linker_0, # of connection points: 2
#     Edge 86, Type (0, 1), BuildingBlock: OJICUG_clean_linker_0, # of connection points: 2
#     Edge 87, Type (0, 1), BuildingBlock: OJICUG_clean_linker_0, # of connection points: 2
#     Edge 88, Type (0, 1), BuildingBlock: OJICUG_clean_linker_0, # of connection points: 2
#     Edge 89, Type (0, 1), BuildingBlock: OJICUG_clean_linker_0, # of connection points: 2
#     Edge 90, Type (0, 1), BuildingBlock: OJICUG_clean_linker_0, # of connection points: 2
#     Edge 91, Type (0, 1), BuildingBlock: OJICUG_clean_linker_0, # of connection points: 2
#     Edge 92, Type (0, 1), BuildingBlock: OJICUG_clean_linker_0, # of connection points: 2
#     Edge 93, Type (0, 1), BuildingBlock: OJICUG_clean_linker_0, # of connection points: 2
#     Edge 94, Type (0, 1), BuildingBlock: OJICUG_clean_linker_0, # of connection points: 2
#     Edge 95, Type (0, 1), BuildingBlock: OJICUG_clean_linker_0, # of connection points: 2
#     Edge 96, Type (0, 1), BuildingBlock: OJICUG_clean_linker_0, # of connection points: 2
#     Edge 97, Type (0, 1), BuildingBlock: OJICUG_clean_linker_0, # of connection points: 2
#     Edge 98, Type (0, 1), BuildingBlock: OJICUG_clean_linker_0, # of connection points: 2
#     Edge 99, Type (0, 1), BuildingBlock: OJICUG_clean_linker_0, # of connection points: 2
#     Edge 100, Type (0, 1), BuildingBlock: OJICUG_clean_linker_0, # of connection points: 2
#     Edge 101, Type (0, 1), BuildingBlock: OJICUG_clean_linker_0, # of connection points: 2
#     Edge 102, Type (0, 1), BuildingBlock: OJICUG_clean_linker_0, # of connection points: 2
#     Edge 103, Type (0, 1), BuildingBlock: OJICUG_clean_linker_0, # of connection points: 2
#     Edge 104, Type (0, 1), BuildingBlock: OJICUG_clean_linker_0, # of connection points: 2
#     Edge 105, Type (0, 1), BuildingBlock: OJICUG_clean_linker_0, # of connection points: 2
#     Edge 106, Type (0, 1), BuildingBlock: OJICUG_clean_linker_0, # of connection points: 2
#     Edge 107, Type (0, 1), BuildingBlock: OJICUG_clean_linker_0, # of connection points: 2
#     Edge 108, Type (0, 1), BuildingBlock: OJICUG_clean_linker_0, # of connection points: 2
#     Edge 109, Type (0, 1), BuildingBlock: OJICUG_clean_linker_0, # of connection points: 2
#     Edge 110, Type (0, 1), BuildingBlock: OJICUG_clean_linker_0, # of connection points: 2
#     Edge 111, Type (0, 1), BuildingBlock: OJICUG_clean_linker_0, # of connection points: 2
#     Edge 112, Type (0, 1), BuildingBlock: OJICUG_clean_linker_0, # of connection points: 2
#     Edge 113, Type (0, 1), BuildingBlock: OJICUG_clean_linker_0, # of connection points: 2
#     Edge 114, Type (0, 1), BuildingBlock: OJICUG_clean_linker_0, # of connection points: 2
#     Edge 115, Type (0, 1), BuildingBlock: OJICUG_clean_linker_0, # of connection points: 2
#     Edge 116, Type (0, 1), BuildingBlock: OJICUG_clean_linker_0, # of connection points: 2
#     Edge 117, Type (0, 1), BuildingBlock: OJICUG_clean_linker_0, # of connection points: 2
#     Edge 118, Type (0, 1), BuildingBlock: OJICUG_clean_linker_0, # of connection points: 2
#     Edge 119, Type (0, 1), BuildingBlock: OJICUG_clean_linker_0, # of connection points: 2
#     Edge 120, Type (0, 1), BuildingBlock: OJICUG_clean_linker_0, # of connection points: 2
#     Edge 121, Type (0, 1), BuildingBlock: OJICUG_clean_linker_0, # of connection points: 2
#     Edge 122, Type (0, 1), BuildingBlock: OJICUG_clean_linker_0, # of connection points: 2
#     Edge 123, Type (0, 1), BuildingBlock: OJICUG_clean_linker_0, # of connection points: 2
#     Edge 124, Type (0, 1), BuildingBlock: OJICUG_clean_linker_0, # of connection points: 2
#     Edge 125, Type (0, 1), BuildingBlock: OJICUG_clean_linker_0, # of connection points: 2
#     Edge 126, Type (0, 1), BuildingBlock: OJICUG_clean_linker_0, # of connection points: 2
#     Edge 127, Type (0, 1), BuildingBlock: OJICUG_clean_linker_0, # of connection points: 2
#     Edge 128, Type (0, 1), BuildingBlock: OJICUG_clean_linker_0, # of connection points: 2
#     Edge 129, Type (0, 1), BuildingBlock: OJICUG_clean_linker_0, # of connection points: 2
#     Edge 130, Type (0, 1), BuildingBlock: OJICUG_clean_linker_0, # of connection points: 2
#     Edge 131, Type (0, 1), BuildingBlock: OJICUG_clean_linker_0, # of connection points: 2
#     Edge 132, Type (0, 1), BuildingBlock: OJICUG_clean_linker_0, # of connection points: 2
#     Edge 133, Type (0, 1), BuildingBlock: OJICUG_clean_linker_0, # of connection points: 2
#     Edge 134, Type (0, 1), BuildingBlock: OJICUG_clean_linker_0, # of connection points: 2
#     Edge 135, Type (0, 1), BuildingBlock: OJICUG_clean_linker_0, # of connection points: 2
# Relax obj value: 0.121
# Max RMSD: 0.234
# Mean RMSD: 0.123
data_MOF--net-gar--node1-CEKHIL_clean_sbu_0--node2-CUKXOW_clean_sbu_0--edge1-OJICUG_clean_linker_0
_symmetry_space_group_name_H-M    P1
_symmetry_Int_Tables_number       1
_symmetry_cell_setting            triclinic
loop_
_symmetry_equiv_pos_as_xyz
'x, y, z'
_cell_length_a     40.383496
_cell_length_b     38.950251
_cell_length_c     38.436236
_cell_angle_alpha  94.007821
_cell_angle_beta   94.602556
_cell_angle_gamma 97.485215
loop_
_atom_site_label
_atom_site_type_symbol
_atom_site_fract_x
_atom_site_fract_y
_atom_site_fract_z
_atom_type_partial_charge
Co0 Co 0.05732 0.28601 0.44569 0.0
O1 O 0.10163 0.27168 0.44721 0.0
O2 O 0.06369 0.26355 0.40142 0.0
C3 C 0.07258 0.33995 0.47206 0.0
O4 O 1.01117 0.29701 0.43078 0.0
Co5 Co 1.01916 0.3077 0.50877 0.0
O6 O 0.98295 0.3168 0.47402 0.0
C7 C 0.02661 0.23394 0.49236 0.0
C8 C 0.09349 0.26013 0.41456 0.0
C9 C 0.98535 0.30859 0.44179 0.0
O10 O 0.0381 0.2407 0.46292 0.0
O11 O 0.02056 0.25741 0.51506 0.0
O12 O 0.07647 0.33363 0.43902 0.0
O13 O 0.06187 0.31343 0.48829 0.0
Co14 Co 1.00751 0.79753 0.60428 0.0
O15 O 0.96013 0.80126 0.60099 0.0
O16 O 0.98929 0.78424 0.6465 0.0
C17 C 0.0228 0.84914 0.58386 0.0
O18 O 0.0552 0.79243 0.62062 0.0
Co19 Co 0.05405 0.80028 0.54403 0.0
O20 O 0.09148 0.80838 0.58183 0.0
C21 C 1.0049 0.73756 0.55051 0.0
C22 C 0.96123 0.79261 0.63315 0.0
C23 C 0.0852 0.8002 0.61233 0.0
O24 O 0.999 0.74866 0.58153 0.0
O25 O 0.02325 0.75579 0.53102 0.0
O26 O 1.0171 0.84741 0.61656 0.0
O27 O 1.01806 0.82026 0.56459 0.0
Co28 Co 0.55758 0.78638 0.9464 0.0
O29 O 0.60188 0.77204 0.9481 0.0
O30 O 0.56402 0.76376 0.90223 0.0
C31 C 0.57279 0.84038 0.97259 0.0
O32 O 0.51145 0.79738 0.93135 0.0
Co33 Co 0.51934 0.80821 0.00937 0.0
O34 O 0.48322 0.81731 0.97452 0.0
C35 C 0.52688 0.73446 0.99322 0.0
C36 C 0.59381 0.76038 0.91547 0.0
C37 C 0.48566 0.80904 0.94231 0.0
O38 O 0.53832 0.74115 0.96374 0.0
O39 O 0.52084 0.75797 0.01588 0.0
O40 O 0.57675 0.83394 0.93959 0.0
O41 O 0.56206 0.81393 0.98891 0.0
Co42 Co 0.50719 0.29749 0.10384 0.0
O43 O 0.45984 0.30148 0.1006 0.0
O44 O 0.48886 0.28396 0.14591 0.0
C45 C 0.52272 0.34924 0.08378 0.0
O46 O 0.55481 0.29207 0.12016 0.0
Co47 Co 0.55383 0.30044 0.0437 0.0
O48 O 0.59119 0.30834 0.08158 0.0
C49 C 0.50446 0.23778 0.04971 0.0
C50 C 0.46087 0.29259 0.13267 0.0
C51 C 0.58483 0.29993 0.112 0.0
O52 O 0.49849 0.24875 0.08075 0.0
O53 O 0.52295 0.25606 0.03037 0.0
O54 O 0.51698 0.34731 0.11645 0.0
O55 O 0.5179 0.32047 0.06433 0.0
Co56 Co 1.00701 0.77183 0.17952 0.0
O57 O 0.95796 0.76285 0.17338 0.0
O58 O 0.9882 0.75644 0.22197 0.0
C59 C 1.00783 0.82277 0.15457 0.0
O60 O 0.05738 0.78075 0.19855 0.0
Co61 Co 0.05466 0.78797 0.12128 0.0
O62 O 0.08882 0.80692 0.15988 0.0
C63 C 0.02054 0.71575 0.12703 0.0
C64 C 0.95853 0.75685 0.20621 0.0
C65 C 0.08545 0.79705 0.19041 0.0
O66 O 1.01131 0.72308 0.15804 0.0
O67 O 0.03479 0.73863 0.10871 0.0
O68 O 1.00337 0.82175 0.18765 0.0
O69 O 1.01229 0.79406 0.13852 0.0
Co70 Co 0.55159 0.81123 0.38154 0.0
O71 O 0.60079 0.82173 0.38756 0.0
O72 O 0.57154 0.79875 0.33889 0.0
C73 C 0.54005 0.86147 0.40907 0.0
O74 O 0.5014 0.79701 0.36317 0.0
Co75 Co 0.50624 0.80557 0.44338 0.0
O76 O 0.46803 0.79263 0.40732 0.0
C77 C 0.55549 0.75832 0.43238 0.0
C78 C 0.60091 0.80927 0.35528 0.0
C79 C 0.47215 0.79022 0.37477 0.0
O80 O 0.5549 0.76422 0.39973 0.0
O81 O 0.54234 0.77673 0.45489 0.0
O82 O 0.54739 0.86101 0.3766 0.0
O83 O 0.54223 0.83314 0.42354 0.0
Co84 Co 0.50712 0.27188 0.6795 0.0
O85 O 0.45807 0.26291 0.6733 0.0
O86 O 0.48826 0.25633 0.72187 0.0
C87 C 0.50794 0.32291 0.65474 0.0
O88 O 0.55748 0.28075 0.69858 0.0
Co89 Co 0.55483 0.28829 0.62137 0.0
O90 O 0.58892 0.30718 0.66006 0.0
C91 C 0.52075 0.21599 0.62683 0.0
C92 C 0.45861 0.25682 0.7061 0.0
C93 C 0.58554 0.29714 0.69052 0.0
O94 O 0.51144 0.22319 0.65783 0.0
O95 O 0.53504 0.23896 0.60863 0.0
O96 O 0.50347 0.32177 0.68781 0.0
O97 O 0.51243 0.29425 0.6386 0.0
Co98 Co 0.05176 0.31122 0.88148 0.0
O99 O 0.10096 0.32173 0.88751 0.0
O100 O 0.07172 0.29887 0.8388 0.0
C101 C 0.04024 0.3614 0.90915 0.0
O102 O 1.00157 0.29702 0.86309 0.0
Co103 Co 1.00641 0.3054 0.94331 0.0
O104 O 0.9682 0.29251 0.90723 0.0
C105 C 0.05566 0.25819 0.93218 0.0
C106 C 0.10109 0.30937 0.8552 0.0
C107 C 0.97232 0.29018 0.87469 0.0
O108 O 0.05508 0.26416 0.89954 0.0
O109 O 0.04253 0.27658 0.95473 0.0
O110 O 0.04756 0.36103 0.87669 0.0
O111 O 0.0424 0.33302 0.92354 0.0
Co112 Co 0.42322 0.08737 0.26908 0.0
O113 O 0.42041 0.13702 0.26494 0.0
O114 O 0.3795 0.09441 0.24917 0.0
C115 C 0.44839 0.09135 0.32529 0.0
O116 O 0.41046 0.03573 0.27093 0.0
Co117 Co 0.48483 0.04909 0.28227 0.0
O118 O 0.45251 0.00805 0.29053 0.0
C119 C 0.46742 0.06902 0.21067 0.0
C120 C 0.38904 0.1275 0.25321 0.0
C121 C 0.4216 0.00862 0.28148 0.0
O122 O 0.44073 0.08096 0.22042 0.0
O123 O 0.48839 0.05704 0.23173 0.0
O124 O 0.41658 0.0935 0.31924 0.0
O125 O 0.46443 0.08957 0.29761 0.0
Co126 Co 0.27933 0.14782 0.48358 0.0
O127 O 0.32487 0.15496 0.50511 0.0
O128 O 0.29194 0.10437 0.49646 0.0
C129 C 0.29109 0.18244 0.4402 0.0
O130 O 0.23214 0.12783 0.46372 0.0
Co131 Co 0.23322 0.20366 0.46817 0.0
O132 O 0.19813 0.1659 0.44771 0.0
C133 C 0.24961 0.18445 0.54089 0.0
C134 C 0.32071 0.12164 0.50834 0.0
C135 C 0.20344 0.1349 0.45172 0.0
O136 O 0.26252 0.15759 0.53019 0.0
O137 O 0.23964 0.20648 0.52057 0.0
O138 O 0.29635 0.15008 0.43704 0.0
O139 O 0.27846 0.19207 0.46827 0.0
Co140 Co 0.18279 0.00974 0.82019 0.0
O141 O 0.17999 0.95988 0.80801 0.0
O142 O 0.22646 0.99721 0.81226 0.0
C143 C 0.14931 1.00427 0.86531 0.0
O144 O 0.19822 0.06206 0.83121 0.0
Co145 Co 0.12372 0.05336 0.82291 0.0
O146 O 0.15699 0.09383 0.84098 0.0
C147 C 0.1495 0.03271 0.75477 0.0
C148 C 0.21225 0.96531 0.80599 0.0
C149 C 0.18785 0.09143 0.83867 0.0
O150 O 0.17335 0.01826 0.76942 0.0
O151 O 0.12727 0.04582 0.77137 0.0
O152 O 0.18104 1.00115 0.87023 0.0
O153 O 0.13912 0.01015 0.83403 0.0
Co154 Co 0.22903 0.89647 0.03534 0.0
O155 O 0.1804 0.89846 0.03747 0.0
O156 O 0.22003 0.94159 0.0546 0.0
C157 C 0.22649 0.87111 0.97858 0.0
O158 O 0.27998 0.90929 0.03609 0.0
Co159 Co 0.26506 0.83163 0.02275 0.0
O160 O 0.30274 0.86554 0.01064 0.0
C161 C 0.24539 0.84901 0.09406 0.0
C162 C 0.18815 0.93099 0.04921 0.0
C163 C 0.30465 0.89706 0.02269 0.0
O164 O 0.23439 0.8772 0.08428 0.0
O165 O 0.25652 0.82727 0.07298 0.0
O166 O 0.22429 0.90396 0.98464 0.0
O167 O 0.22752 0.85435 1.00637 0.0
Co168 Co 0.28204 0.42762 0.06338 0.0
O169 O 0.23681 0.41929 0.04141 0.0
O170 O 0.25822 0.46584 0.0763 0.0
C171 C 0.30523 0.41302 0.0146 0.0
O172 O 0.32816 0.44765 0.08777 0.0
Co173 Co 0.32903 0.37044 0.06707 0.0
O174 O 0.36494 0.40982 0.07915 0.0
C175 C 0.26776 0.36649 0.1043 0.0
C176 C 0.23336 0.4499 0.05512 0.0
C177 C 0.35834 0.44003 0.08835 0.0
O178 O 0.26744 0.39962 0.10354 0.0
O179 O 0.28803 0.35016 0.08789 0.0
O180 O 0.29719 0.44412 0.01976 0.0
O181 O 0.2977 0.39196 0.03795 0.0
Co182 Co 0.83368 0.17393 0.0101 0.0
O183 O 0.88251 0.17176 0.01007 0.0
O184 O 0.84511 0.12767 0.01781 0.0
C185 C 0.82729 0.20438 0.96073 0.0
O186 O 0.78279 0.16167 0.01035 0.0
Co187 Co 0.79824 0.24021 0.0152 0.0
O188 O 0.75563 0.20786 1.00428 0.0
C189 C 0.83055 0.21699 0.07988 0.0
C190 C 0.87633 0.13877 0.01464 0.0
C191 C 0.75549 0.17537 1.00665 0.0
O192 O 0.83691 0.18865 0.06317 0.0
O193 O 0.81841 0.24136 0.06464 0.0
O194 O 0.82887 0.17114 0.95786 0.0
O195 O 0.83183 0.21815 0.99246 0.0
Co196 Co 0.13346 0.48053 0.29509 0.0
O197 O 0.13452 0.43022 0.29474 0.0
O198 O 0.17662 0.469 0.28436 0.0
C199 C 0.1082 0.48651 0.34599 0.0
O200 O 0.14684 0.53225 0.29455 0.0
Co201 Co 0.0732 0.52191 0.29626 0.0
O202 O 0.1066 0.56462 0.30557 0.0
C203 C 0.0864 0.48375 0.22996 0.0
C204 C 0.16593 0.43692 0.28856 0.0
C205 C 0.13687 0.56182 0.30022 0.0
O206 O 0.11526 0.4772 0.24337 0.0
O207 O 0.06569 0.49785 0.24798 0.0
O208 O 0.14024 0.48486 0.34695 0.0
O209 O 0.09265 0.48347 0.31518 0.0
Co210 Co 0.78148 0.92714 0.56359 0.0
O211 O 0.73624 0.9189 0.54168 0.0
O212 O 0.7578 0.9655 0.57641 0.0
C213 C 0.80456 0.91231 0.51483 0.0
O214 O 0.82769 0.9471 0.58786 0.0
Co215 Co 0.82827 0.8698 0.56743 0.0
O216 O 0.86431 0.90914 0.57904 0.0
C217 C 0.76706 0.8662 0.60475 0.0
C218 C 0.73289 0.94958 0.55529 0.0
C219 C 0.85784 0.93942 0.58819 0.0
O220 O 0.76684 0.89933 0.60388 0.0
O221 O 0.78727 0.84973 0.5884 0.0
O222 O 0.79663 0.94346 0.51991 0.0
O223 O 0.79699 0.89133 0.53825 0.0
Co224 Co 0.87436 0.06555 0.2559 0.0
O225 O 0.87861 0.11559 0.26583 0.0
O226 O 0.83386 0.08326 0.23864 0.0
C227 C 0.89398 0.05429 0.30958 0.0
O228 O 0.85909 0.01303 0.24414 0.0
Co229 Co 0.9363 0.02545 0.2609 0.0
O230 O 0.90269 0.98311 0.25393 0.0
C231 C 0.92781 0.07183 0.20517 0.0
C232 C 0.8478 0.11369 0.25249 0.0
C233 C 0.87158 0.98419 0.24615 0.0
O234 O 0.89634 0.07108 0.21006 0.0
O235 O 0.94862 0.05968 0.22621 0.0
O236 O 0.86301 0.05973 0.30403 0.0
O237 O 0.91224 0.05885 0.28392 0.0
Co238 Co 0.33384 0.67426 0.51031 0.0
O239 O 0.38268 0.67214 0.51019 0.0
O240 O 0.34535 0.62805 0.51809 0.0
C241 C 0.32728 0.70463 0.4609 0.0
O242 O 0.28297 0.66188 0.51069 0.0
Co243 Co 0.29822 0.7404 0.5154 0.0
O244 O 0.25564 0.70795 0.50469 0.0
C245 C 0.3309 0.71748 0.58002 0.0
C246 C 0.37655 0.63917 0.51486 0.0
C247 C 0.25561 0.67548 0.50708 0.0
O248 O 0.33719 0.68909 0.56337 0.0
O249 O 0.3187 0.74179 0.56476 0.0
O250 O 0.32891 0.6714 0.45806 0.0
O251 O 0.33185 0.71844 0.49261 0.0
Co252 Co 0.37498 0.56614 0.7565 0.0
O253 O 0.37925 0.61618 0.76641 0.0
O254 O 0.33455 0.58388 0.73909 0.0
C255 C 0.39443 0.55488 0.81023 0.0
O256 O 0.3597 0.51363 0.7447 0.0
Co257 Co 0.43688 0.52599 0.76171 0.0
O258 O 0.40325 0.48367 0.75457 0.0
C259 C 0.42858 0.57237 0.70594 0.0
C260 C 0.34849 0.6143 0.75296 0.0
C261 C 0.37217 0.48477 0.7467 0.0
O262 O 0.3971 0.57165 0.71074 0.0
O263 O 0.44934 0.56021 0.72703 0.0
O264 O 0.36348 0.56034 0.80458 0.0
O265 O 0.41277 0.55941 0.78464 0.0
Co266 Co 0.63346 0.98048 0.7946 0.0
O267 O 0.63456 0.93018 0.79431 0.0
O268 O 0.67663 0.96895 0.7839 0.0
C269 C 0.60819 0.98647 0.84551 0.0
O270 O 0.64683 0.0322 0.79403 0.0
Co271 Co 0.57321 0.02188 0.79581 0.0
O272 O 0.60663 0.06457 0.80515 0.0
C273 C 0.58639 0.98372 0.72948 0.0
C274 C 0.66597 0.93688 0.78816 0.0
C275 C 0.63689 0.06177 0.79975 0.0
O276 O 0.61523 0.97713 0.74288 0.0
O277 O 0.5657 0.99786 0.74751 0.0
O278 O 0.64024 0.98484 0.84647 0.0
O279 O 0.59264 0.98342 0.81469 0.0
Co280 Co 0.77963 0.64754 0.98378 0.0
O281 O 0.82512 0.65452 1.00542 0.0
O282 O 0.79209 0.60401 0.99658 0.0
C283 C 0.79156 0.68224 0.94051 0.0
O284 O 0.73244 0.6277 0.9638 0.0
Co285 Co 0.73373 0.70358 0.96845 0.0
O286 O 0.69854 0.66593 0.94796 0.0
C287 C 0.74977 0.68402 0.04111 0.0
C288 C 0.82086 0.62119 1.00858 0.0
C289 C 0.70377 0.63489 0.95187 0.0
O290 O 0.76273 0.65721 0.03037 0.0
O291 O 0.73989 0.70616 0.02085 0.0
O292 O 0.79675 0.64986 0.93729 0.0
O293 O 0.77892 0.69185 0.96857 0.0
Co294 Co 0.92329 0.58729 0.76958 0.0
O295 O 0.92043 0.63692 0.76541 0.0
O296 O 0.87958 0.59427 0.74963 0.0
C297 C 0.94842 0.59131 0.82582 0.0
O298 O 0.91059 0.53564 0.77146 0.0
Co299 Co 0.98495 0.54907 0.78291 0.0
O300 O 0.95264 0.50799 0.79108 0.0
C301 C 0.96761 0.56894 0.71127 0.0
C302 C 0.88907 0.62737 0.75369 0.0
C303 C 0.92173 0.50854 0.782 0.0
O304 O 0.94088 0.58084 0.72095 0.0
O305 O 0.98858 0.55702 0.73238 0.0
O306 O 0.91661 0.59342 0.81973 0.0
O307 O 0.96449 0.58954 0.79816 0.0
Co308 Co 0.72912 0.39642 0.53529 0.0
O309 O 0.6805 0.39848 0.53746 0.0
O310 O 0.72017 0.44157 0.55453 0.0
C311 C 0.72651 0.37098 0.47854 0.0
O312 O 0.78007 0.40921 0.53603 0.0
Co313 Co 0.76515 0.33158 0.52272 0.0
O314 O 0.80289 0.36545 0.5107 0.0
C315 C 0.74555 0.34904 0.59405 0.0
C316 C 0.68829 0.43102 0.54918 0.0
C317 C 0.80479 0.39697 0.52274 0.0
O318 O 0.73449 0.37721 0.58425 0.0
O319 O 0.75669 0.32731 0.57298 0.0
O320 O 0.72435 0.40384 0.48457 0.0
O321 O 0.72757 0.35426 0.50636 0.0
Co322 Co 0.68282 0.50931 0.32065 0.0
O323 O 0.6799 0.45945 0.30842 0.0
O324 O 0.72645 0.49668 0.31275 0.0
C325 C 0.64929 0.50389 0.36573 0.0
O326 O 0.69831 0.5616 0.33172 0.0
Co327 Co 0.62378 0.553 0.32327 0.0
O328 O 0.65708 0.5934 0.34143 0.0
C329 C 0.64969 0.53237 0.2552 0.0
C330 C 0.71217 0.4648 0.3064 0.0
C331 C 0.68795 0.59097 0.33918 0.0
O332 O 0.67348 0.51787 0.26989 0.0
O333 O 0.62744 0.5455 0.27174 0.0
O334 O 0.681 0.50069 0.37068 0.0
O335 O 0.63914 0.50978 0.33443 0.0
Tb336 Tb 0.04945 0.07448 0.02727 0.0
C337 C 0.05945 0.01216 0.97399 0.0
Tb338 Tb 1.01867 0.99899 0.03971 0.0
O339 O 0.10157 0.06319 0.03705 0.0
O340 O 0.0629 0.03295 0.05622 0.0
O341 O 0.05563 0.04537 0.97848 0.0
C342 C 1.01395 0.94216 0.07412 0.0
O343 O 0.049 0.98886 0.99588 0.0
C344 C 0.97368 0.03759 0.01424 0.0
C345 C 1.0033 0.06308 0.08924 0.0
O346 O 1.00345 0.9429 0.04112 0.0
O347 O 0.02754 0.97285 0.08684 0.0
O348 O 0.96613 0.00746 0.02655 0.0
O349 O 1.005 0.04043 0.01123 0.0
O350 O 1.00448 0.02916 0.08472 0.0
O351 O 1.01837 0.08621 0.06968 0.0
C352 C 0.06037 0.13333 0.99688 0.0
O353 O 0.06964 0.12981 0.02963 0.0
O354 O 0.044 0.10448 0.98235 0.0
C355 C 0.09362 0.03421 0.05108 0.0
Tb356 Tb 0.29172 0.82422 0.28914 0.0
C357 C 0.34311 0.77029 0.29425 0.0
Tb358 Tb 0.26451 0.74579 0.27885 0.0
O359 O 0.3095 0.82087 0.34466 0.0
O360 O 0.27178 0.78473 0.32041 0.0
O361 O 0.33759 0.80115 0.2846 0.0
C362 C 0.23214 0.68458 0.29176 0.0
O363 O 0.31809 0.74457 0.29617 0.0
C364 C 0.26435 0.77862 0.22029 0.0
C365 C 0.21361 0.80094 0.27149 0.0
O366 O 0.25508 0.68871 0.2697 0.0
O367 O 0.22882 0.71446 0.30696 0.0
O368 O 0.2461 0.74925 0.22374 0.0
O369 O 0.28491 0.78491 0.24735 0.0
O370 O 0.21846 0.76962 0.28068 0.0
O371 O 0.23897 0.82645 0.27066 0.0
C372 C 0.3241 0.88646 0.27994 0.0
O373 O 0.32795 0.85736 0.26348 0.0
O374 O 0.30036 0.88105 0.30085 0.0
C375 C 0.29194 0.79107 0.3477 0.0
Tb376 Tb 0.56054 0.03742 0.51618 0.0
C377 C 0.54128 1.00182 0.58717 0.0
Tb378 Tb 0.48862 0.02804 0.53487 0.0
O379 O 0.56384 0.09367 0.52818 0.0
O380 O 0.53363 0.05872 0.55524 0.0
O381 O 0.56315 0.00817 0.5635 0.0
C382 C 0.43199 0.0521 0.54892 0.0
O383 O 0.51028 0.00996 0.58295 0.0
C384 C 0.50619 0.97494 0.49885 0.0
C385 C 0.50696 0.06087 0.4621 0.0
O386 O 0.43409 0.02029 0.53733 0.0
O387 O 0.46179 0.06942 0.55377 0.0
O388 O 0.48294 0.97191 0.52059 0.0
O389 O 0.51552 1.00662 0.49614 0.0
O390 O 0.48554 0.05565 0.48651 0.0
O391 O 0.53816 0.0529 0.46647 0.0
C392 C 0.62039 0.01718 0.50847 0.0
O393 O 0.61546 0.04809 0.52016 0.0
O394 O 0.59155 0.99887 0.49875 0.0
C395 C 0.54196 0.09034 0.5513 0.0
Tb396 Tb 0.29717 0.29953 0.82404 0.0
C397 C 0.30249 0.34925 0.76214 0.0
Tb398 Tb 0.27004 0.27041 0.74678 0.0
O399 O 0.34998 0.28934 0.81993 0.0
O400 O 0.31529 0.27991 0.7783 0.0
O401 O 0.30027 0.34654 0.7961 0.0
C402 C 0.26341 0.23926 0.6831 0.0
O403 O 0.29601 0.32208 0.73837 0.0
C404 C 0.22025 0.28914 0.78271 0.0
C405 C 0.26147 0.22211 0.80991 0.0
O406 O 0.25196 0.26792 0.69203 0.0
O407 O 0.27965 0.22848 0.70985 0.0
O408 O 0.21687 0.27672 0.75022 0.0
O409 O 0.25113 0.29083 0.79242 0.0
O410 O 0.26492 0.22369 0.7758 0.0
O411 O 0.26862 0.24967 0.83316 0.0
C412 C 0.3054 0.33758 0.88429 0.0
O413 O 0.31285 0.30614 0.87998 0.0
O414 O 0.29206 0.34676 0.85522 0.0
C415 C 0.34564 0.27831 0.78699 0.0
Tb416 Tb 1.01046 0.02936 0.49196 0.0
C417 C 0.97564 0.02468 0.56348 0.0
Tb418 Tb 0.05356 0.04511 0.56147 0.0
O419 O 0.02711 0.97768 0.48527 0.0
O420 O 0.02504 1.00172 0.53413 0.0
O421 O 0.97204 0.02912 0.52941 0.0
C422 C 0.09844 0.04266 0.6157 0.0
O423 O 1.00567 0.02557 0.5809 0.0
C424 C 0.02663 0.09726 0.53757 0.0
C425 C 0.08712 0.05253 0.48923 0.0
O426 O 0.08415 0.06954 0.60824 0.0
O427 O 0.08727 0.01696 0.59272 0.0
O428 O 0.03321 0.09381 0.57072 0.0
O429 O 0.03802 0.07381 0.52 0.0
O430 O 0.09133 0.04622 0.52284 0.0
O431 O 0.05688 0.05241 0.47294 0.0
C432 C 0.96618 0.02978 0.43708 0.0
O433 O 0.98987 0.0103 0.43899 0.0
O434 O 0.96748 0.04929 0.46605 0.0
C435 C 0.03477 0.97633 0.51853 0.0
Tb436 Tb 0.31741 0.79596 0.79836 0.0
C437 C 0.25648 0.80964 0.84285 0.0
Tb438 Tb 0.245 0.78498 0.76131 0.0
O439 O 0.31802 0.85245 0.80698 0.0
O440 O 0.28637 0.82431 0.7675 0.0
O441 O 0.28712 0.80052 0.84304 0.0
C442 C 0.19249 0.79601 0.71958 0.0
O443 O 0.23611 0.80804 0.81349 0.0
C444 C 0.26827 0.72661 0.77497 0.0
C445 C 0.30627 0.76604 0.71853 0.0
O446 O 0.19073 0.77823 0.74706 0.0
O447 O 0.22344 0.80821 0.71653 0.0
O448 O 0.24179 0.72826 0.75391 0.0
O449 O 0.27598 0.75626 0.7915 0.0
O450 O 0.27481 0.77314 0.71758 0.0
O451 O 0.32736 0.77152 0.74749 0.0
C452 C 0.37354 0.79294 0.8382 0.0
O453 O 0.372 0.80774 0.80889 0.0
O454 O 0.34392 0.7785 0.84384 0.0
C455 C 0.2927 0.8537 0.78443 0.0
Tb456 Tb 0.49519 0.01534 0.01794 0.0
C457 C 0.55781 0.97735 0.02613 0.0
Tb458 Tb 0.56528 0.05912 0.02575 0.0
O459 O 0.50526 0.98844 0.96885 0.0
O460 O 0.52965 0.03829 0.98364 0.0
O461 O 0.52656 0.97725 0.03462 0.0
C462 C 0.62657 0.09266 0.01762 0.0
O463 O 0.57659 1.00586 0.01824 0.0
C464 C 0.53133 0.06133 0.08198 0.0
C465 C 0.50189 0.09596 0.01298 0.0
O466 O 0.61999 0.06971 0.04003 0.0
O467 O 0.59874 0.0964 0.99993 0.0
O468 O 0.55444 0.08568 0.07515 0.0
O469 O 0.53136 0.0356 0.06005 0.0
O470 O 0.5336 0.09578 1.00648 0.0
O471 O 0.48277 0.06824 0.02179 0.0
C472 C 0.43269 0.98301 0.02115 0.0
O473 O 0.44537 0.99353 0.9932 0.0
O474 O 0.45509 0.99112 0.04767 0.0
C475 C 0.5287 0.01225 0.96174 0.0
Tb476 Tb 0.24161 0.25651 0.2814 0.0
C477 C 0.30187 0.27809 0.33557 0.0
Tb478 Tb 0.30393 0.29763 0.25972 0.0
O479 O 0.25354 0.20785 0.25393 0.0
O480 O 0.29085 0.24654 0.27306 0.0
O481 O 0.26998 0.28146 0.3291 0.0
C482 C 0.35574 0.31138 0.22165 0.0
O483 O 0.32133 0.27894 0.30944 0.0
C484 C 0.26199 0.33762 0.28629 0.0
C485 C 0.24036 0.27873 0.20665 0.0
O486 O 0.35795 0.31037 0.25546 0.0
O487 O 0.32451 0.30609 0.20982 0.0
O488 O 0.29409 0.34716 0.2856 0.0
O489 O 0.2551 0.3087 0.26883 0.0
O490 O 0.27284 0.27666 0.21155 0.0
O491 O 0.22169 0.27594 0.23333 0.0
C492 C 0.19244 0.23626 0.32118 0.0
O493 O 0.18834 0.24038 0.28789 0.0
O494 O 0.22402 0.24276 0.3314 0.0
C495 C 0.28556 0.21833 0.25474 0.0
Tb496 Tb 0.51075 0.52999 0.9927 0.0
C497 C 0.4761 0.52544 0.06431 0.0
Tb498 Tb 0.55403 0.54551 0.06208 0.0
O499 O 0.52727 0.47827 0.98586 0.0
O500 O 0.52532 0.50221 0.03479 0.0
O501 O 0.47245 0.52992 0.03025 0.0
C502 C 0.59898 0.54275 0.11616 0.0
O503 O 0.50616 0.52618 0.08164 0.0
C504 C 0.52721 0.5978 0.03843 0.0
C505 C 0.58739 0.55293 0.98973 0.0
O506 O 0.58494 0.56978 0.10872 0.0
O507 O 0.58753 0.51707 0.09325 0.0
O508 O 0.53387 0.59427 0.07155 0.0
O509 O 0.53848 0.57435 0.02074 0.0
O510 O 0.59167 0.54651 0.0233 0.0
O511 O 0.55713 0.55296 0.97356 0.0
C512 C 0.46642 0.53043 0.93785 0.0
O513 O 0.49004 0.51087 0.93979 0.0
O514 O 0.46782 0.55003 0.96679 0.0
C515 C 0.53494 0.47681 0.0191 0.0
Tb516 Tb 0.81684 0.2952 0.29819 0.0
C517 C 0.75602 0.30909 0.34277 0.0
Tb518 Tb 0.74439 0.28439 0.26123 0.0
O519 O 0.81761 0.3517 0.30681 0.0
O520 O 0.78584 0.32363 0.26739 0.0
O521 O 0.78663 0.29988 0.34293 0.0
C522 C 0.69191 0.29552 0.21947 0.0
O523 O 0.73561 0.3075 0.31344 0.0
C524 C 0.76758 0.22594 0.27483 0.0
C525 C 0.80559 0.26534 0.21836 0.0
O526 O 0.69012 0.27768 0.24692 0.0
O527 O 0.72288 0.30772 0.21649 0.0
O528 O 0.7411 0.22766 0.2538 0.0
O529 O 0.77534 0.25559 0.29136 0.0
O530 O 0.77415 0.27252 0.21746 0.0
O531 O 0.8267 0.27075 0.2473 0.0
C532 C 0.87303 0.29213 0.33792 0.0
O533 O 0.87145 0.30687 0.30857 0.0
O534 O 0.84341 0.27777 0.34366 0.0
C535 C 0.79227 0.35302 0.28432 0.0
Tb536 Tb 0.99554 0.515 0.51874 0.0
C537 C 0.05807 0.4768 0.5265 0.0
Tb538 Tb 0.06575 0.55863 0.52654 0.0
O539 O 1.00544 0.48829 0.46947 0.0
O540 O 0.02998 0.53802 0.48448 0.0
O541 O 0.02685 0.47672 0.53507 0.0
C542 C 0.12696 0.59227 0.51825 0.0
O543 O 0.07692 0.50533 0.51876 0.0
C544 C 0.03192 0.5608 0.58285 0.0
C545 C 1.00239 0.59564 0.51416 0.0
O546 O 0.12049 0.56925 0.54063 0.0
O547 O 0.09907 0.59599 0.50067 0.0
O548 O 0.05512 0.58508 0.57608 0.0
O549 O 0.0318 0.53511 0.56083 0.0
O550 O 0.03406 0.59541 0.50753 0.0
O551 O 0.98326 0.56793 0.52296 0.0
C552 C 0.93298 0.48277 0.52183 0.0
O553 O 0.94558 0.49373 0.494 0.0
O554 O 0.9555 0.49038 0.54831 0.0
C555 C 0.02892 0.51209 0.46244 0.0
Tb556 Tb 0.79697 0.79913 0.32414 0.0
C557 C 0.80212 0.8487 0.26213 0.0
Tb558 Tb 0.7698 0.76982 0.24697 0.0
O559 O 0.84985 0.78923 0.32001 0.0
O560 O 0.81508 0.77933 0.27844 0.0
O561 O 0.79988 0.84607 0.2961 0.0
C562 C 0.76312 0.73854 0.18334 0.0
O563 O 0.79571 0.82147 0.23844 0.0
C564 C 0.72002 0.78861 0.28288 0.0
C565 C 0.76138 0.72163 0.31019 0.0
O566 O 0.75163 0.76718 0.19224 0.0
O567 O 0.77942 0.72784 0.2101 0.0
O568 O 0.71662 0.77609 0.25042 0.0
O569 O 0.7509 0.79033 0.29258 0.0
O570 O 0.76475 0.72315 0.27607 0.0
O571 O 0.76853 0.74924 0.33338 0.0
C572 C 0.80516 0.83707 0.38444 0.0
O573 O 0.8125 0.80559 0.38011 0.0
O574 O 0.79196 0.84637 0.35535 0.0
C575 C 0.84549 0.77802 0.28712 0.0
Tb576 Tb 0.79183 0.32414 0.78912 0.0
C577 C 0.84327 0.27025 0.79417 0.0
Tb578 Tb 0.76466 0.24572 0.77873 0.0
O579 O 0.80963 0.32072 0.84461 0.0
O580 O 0.77189 0.28461 0.82034 0.0
O581 O 0.83773 0.30113 0.78457 0.0
C582 C 0.7323 0.18447 0.79154 0.0
O583 O 0.81825 0.24451 0.79605 0.0
C584 C 0.76449 0.27863 0.72024 0.0
C585 C 0.71373 0.30084 0.77149 0.0
O586 O 0.75521 0.18864 0.76946 0.0
O587 O 0.729 0.21433 0.80683 0.0
O588 O 0.74623 0.24926 0.72365 0.0
O589 O 0.78507 0.28488 0.74729 0.0
O590 O 0.71859 0.26951 0.7806 0.0
O591 O 0.73907 0.32637 0.77068 0.0
C592 C 0.82416 0.38642 0.78003 0.0
O593 O 0.8005 0.38093 0.80102 0.0
O594 O 0.82794 0.35737 0.76341 0.0
C595 C 0.79206 0.29092 0.84762 0.0
Tb596 Tb 0.74179 0.75655 0.78214 0.0
C597 C 0.80233 0.77797 0.83595 0.0
Tb598 Tb 0.80399 0.79745 0.76004 0.0
O599 O 0.75357 0.70779 0.75471 0.0
O600 O 0.79097 0.74645 0.77363 0.0
O601 O 0.77047 0.78153 0.82967 0.0
C602 C 0.85543 0.81063 0.72141 0.0
O603 O 0.82158 0.77858 0.80962 0.0
C604 C 0.76217 0.83766 0.78657 0.0
C605 C 0.73998 0.7789 0.70732 0.0
O606 O 0.82428 0.8033 0.70966 0.0
O607 O 0.85778 0.81186 0.75541 0.0
O608 O 0.79424 0.84718 0.78559 0.0
O609 O 0.75524 0.80864 0.76932 0.0
O610 O 0.77251 0.77705 0.71192 0.0
O611 O 0.72154 0.776 0.73418 0.0
C612 C 0.69285 0.73648 0.82227 0.0
O613 O 0.68863 0.74001 0.78886 0.0
O614 O 0.72441 0.74351 0.83242 0.0
C615 C 0.78559 0.71821 0.75536 0.0
Tb616 Tb 0.54976 0.57472 0.52761 0.0
C617 C 0.55951 0.51228 0.4744 0.0
Tb618 Tb 0.51891 0.49936 0.54026 0.0
O619 O 0.60187 0.56335 0.53723 0.0
O620 O 0.56324 0.53323 0.55661 0.0
O621 O 0.55573 0.5455 0.47883 0.0
C622 C 0.51409 0.44249 0.57461 0.0
O623 O 0.54911 0.48906 0.49639 0.0
C624 C 0.47393 0.53801 0.51488 0.0
C625 C 0.50386 0.56355 0.58982 0.0
O626 O 0.50355 0.44329 0.54163 0.0
O627 O 0.52777 0.47314 0.58736 0.0
O628 O 0.46638 0.50795 0.52732 0.0
O629 O 0.50522 0.54076 0.51171 0.0
O630 O 0.50499 0.52963 0.58535 0.0
O631 O 0.51884 0.5866 0.57012 0.0
C632 C 0.56067 0.63355 0.49717 0.0
O633 O 0.56996 0.63005 0.52992 0.0
O634 O 0.5443 0.60469 0.48267 0.0
C635 C 0.59393 0.53441 0.55135 0.0
Tb636 Tb 0.06057 0.53725 0.01661 0.0
C637 C 0.04135 0.50157 0.08758 0.0
Tb638 Tb 0.98864 0.52767 0.03527 0.0
O639 O 0.06375 0.59349 0.02863 0.0
O640 O 0.03359 0.55846 0.05566 0.0
O641 O 0.06325 0.50802 0.06395 0.0
C642 C 0.93192 0.55148 0.04938 0.0
O643 O 1.01032 0.50959 0.08333 0.0
C644 C 1.00637 0.47467 0.99922 0.0
C645 C 1.00693 0.56068 0.96259 0.0
O646 O 0.93409 0.51977 0.03753 0.0
O647 O 0.9617 0.56883 0.05445 0.0
O648 O 0.98313 0.47155 0.02097 0.0
O649 O 1.01561 0.50636 0.99653 0.0
O650 O 0.98552 0.55539 0.98699 0.0
O651 O 0.03815 0.55275 0.96694 0.0
C652 C 0.12048 0.51718 1.00881 0.0
O653 O 0.11548 0.54806 0.02056 0.0
O654 O 0.09167 0.4988 0.99912 0.0
C655 C 0.04185 0.59009 0.05173 0.0
C656 C 0.05636 0.19448 0.92557 0.0
C657 C 0.06671 0.22648 0.94473 0.0
H658 H 0.04588 0.13946 0.92768 0.0
C659 C 0.08009 0.22722 0.9798 0.0
H660 H 0.04569 0.1933 0.89866 0.0
C661 C 0.07987 0.1966 0.99654 0.0
C662 C 0.06622 0.16493 0.97838 0.0
H663 H 0.08832 0.25176 0.99504 0.0
H664 H 0.08839 0.19796 0.02412 0.0
C665 C 0.05599 0.16382 0.94239 0.0
C666 C 0.12013 0.77969 0.2426 0.0
C667 C 0.11625 0.80193 0.21572 0.0
H668 H 0.15376 0.76203 0.28145 0.0
C669 C 0.14369 0.82702 0.21088 0.0
H670 H 0.09972 0.76001 0.24708 0.0
C671 C 0.17456 0.82864 0.231 0.0
C672 C 0.17914 0.80482 0.25621 0.0
H673 H 0.1417 0.84476 0.19057 0.0
H674 H 0.19542 0.84713 0.22518 0.0
C675 C 0.15122 0.7809 0.26233 0.0
C676 C 0.512 0.88479 0.45925 0.0
C677 C 0.52917 0.89123 0.42936 0.0
H678 H 0.49132 0.90594 0.50426 0.0
C679 C 0.53805 0.92581 0.42183 0.0
H680 H 0.50474 0.85857 0.46603 0.0
C681 C 0.5307 0.95325 0.44445 0.0
C682 C 0.51398 0.94646 0.47461 0.0
H683 H 0.55155 0.93162 0.39926 0.0
H684 H 0.53823 0.97974 0.43844 0.0
C685 C 0.50432 0.91197 0.48139 0.0
C686 C 0.43078 0.25723 0.76264 0.0
C687 C 0.4279 0.2567 0.72587 0.0
H688 H 0.40734 0.26442 0.81028 0.0
C689 C 0.39631 0.26042 0.70897 0.0
H690 H 0.45454 0.25471 0.77675 0.0
C691 C 0.36889 0.26581 0.72841 0.0
C692 C 0.37248 0.26796 0.76525 0.0
H693 H 0.39306 0.26043 0.68073 0.0
H694 H 0.3454 0.26979 0.71467 0.0
C695 C 0.40361 0.26295 0.78196 0.0
C696 C 0.03332 0.91367 0.58841 0.0
C697 C 0.03206 0.88205 0.56841 0.0
H698 H 0.03542 0.96848 0.58806 0.0
C699 C 0.03648 0.88203 0.53243 0.0
H700 H 0.03014 0.91443 0.61617 0.0
C701 C 0.0396 0.91309 0.51622 0.0
C702 C 0.03842 0.94447 0.53583 0.0
H703 H 0.0359 0.85791 0.51642 0.0
H704 H 0.04118 0.91235 0.48818 0.0
C705 C 0.03648 0.94464 0.57224 0.0
C706 C 0.42414 0.79934 0.92563 0.0
C707 C 0.45676 0.80886 0.91643 0.0
H708 H 0.3723 0.78568 0.90756 0.0
C709 C 0.46188 0.81366 0.8812 0.0
H710 H 0.4196 0.79499 0.95248 0.0
C711 C 0.43481 0.80862 0.85553 0.0
C712 C 0.40242 0.79782 0.86462 0.0
H713 H 0.48691 0.82085 0.87347 0.0
H714 H 0.43927 0.81251 0.82857 0.0
C715 C 0.39723 0.79348 0.89986 0.0
C716 C 0.50033 0.18969 1.00269 0.0
C717 C 0.49332 0.20116 0.03658 0.0
H718 H 0.5083 0.14644 0.96846 0.0
C719 C 0.48065 0.17647 0.05884 0.0
H720 H 0.50935 0.20793 0.98444 0.0
C721 C 0.47903 0.14099 0.04894 0.0
C722 C 0.49053 0.13005 0.01701 0.0
H723 H 0.47466 0.18443 0.08491 0.0
H724 H 0.47221 0.12242 0.06773 0.0
C725 C 0.49942 0.15444 0.99323 0.0
C726 C 0.10838 0.2395 0.35569 0.0
C727 C 0.11764 0.247 0.39181 0.0
H728 H 0.125 0.22993 0.30478 0.0
C729 C 0.15079 0.24526 0.40483 0.0
H730 H 0.08292 0.24027 0.34484 0.0
C731 C 0.17477 0.23884 0.38178 0.0
C732 C 0.16597 0.23439 0.34541 0.0
H733 H 0.15857 0.25057 0.43252 0.0
H734 H 0.20058 0.23952 0.39229 0.0
C735 C 0.13239 0.23342 0.33266 0.0
C736 C 0.92781 0.05981 0.14105 0.0
C737 C 0.94084 0.08051 0.17158 0.0
H738 H 0.93816 0.03769 0.09115 0.0
C739 C 0.97258 0.10065 0.17201 0.0
H740 H 0.90388 0.04343 0.14026 0.0
C741 C 0.99217 0.09769 0.14366 0.0
C742 C 0.98055 0.0739 0.11491 0.0
H743 H 0.98345 0.11634 0.19556 0.0
H744 H 1.01741 0.11152 0.14564 0.0
C745 C 0.94768 0.0562 0.11316 0.0
C746 C 0.3023 0.71037 0.39848 0.0
C747 C 0.31785 0.72563 0.43106 0.0
H748 H 0.28167 0.71854 0.34682 0.0
C749 C 0.32384 0.76219 0.43568 0.0
H750 H 0.29728 0.68236 0.3938 0.0
C751 C 0.315 0.78281 0.40875 0.0
C752 C 0.2991 0.76781 0.37633 0.0
H753 H 0.3358 0.77508 0.46024 0.0
H754 H 0.32063 0.81079 0.41342 0.0
C755 C 0.29281 0.7312 0.3716 0.0
C756 C 0.54182 0.9735 0.6796 0.0
C757 C 0.5763 0.97868 0.69108 0.0
H758 H 0.5038 0.9766 0.63824 0.0
C759 C 0.59939 0.98637 0.66632 0.0
H760 H 0.52328 0.96731 0.69789 0.0
C761 C 0.58806 0.9917 0.63172 0.0
C762 C 0.55343 0.98961 0.6213 0.0
H763 H 0.62604 0.99091 0.67429 0.0
H764 H 0.60648 0.99964 0.61385 0.0
C765 C 0.53056 0.97902 0.64534 0.0
C766 C 0.30354 0.41303 0.95006 0.0
C767 C 0.31417 0.39902 0.98094 0.0
H768 H 0.29194 0.40375 0.89465 0.0
C769 C 0.3265 0.3669 0.97919 0.0
H770 H 0.29382 0.43769 0.95086 0.0
C771 C 0.32501 0.34737 0.9473 0.0
C772 C 0.31129 0.35986 0.9169 0.0
H773 H 0.33507 0.35576 1.00279 0.0
H774 H 0.33296 0.32183 0.94675 0.0
C775 C 0.30201 0.39341 0.91809 0.0
C776 C 0.9339 0.02269 0.34236 0.0
C777 C 0.90822 0.04369 0.34277 0.0
H778 H 0.9719 1.00124 0.37224 0.0
C779 C 0.89927 0.05736 0.37488 0.0
H780 H 0.94107 0.01164 0.31792 0.0
C781 C 0.91746 0.05196 0.4061 0.0
C782 C 0.94418 0.03222 0.40537 0.0
H783 H 0.87961 0.07378 0.37567 0.0
H784 H 0.91135 0.06403 0.43059 0.0
C785 C 0.9515 0.01669 0.37343 0.0
C786 C 0.30262 0.70768 0.6342 0.0
C787 C 0.33144 0.72144 0.61892 0.0
H788 H 0.27196 0.71143 0.67711 0.0
C789 C 0.35389 0.74785 0.63856 0.0
H790 H 0.28419 0.6883 0.61937 0.0
C791 C 0.34707 0.76094 0.67205 0.0
C792 C 0.3169 0.74894 0.68595 0.0
H793 H 0.37565 0.75995 0.62705 0.0
H794 H 0.3642 0.78212 0.6859 0.0
C795 C 0.29529 0.72146 0.66704 0.0
C796 C 0.60351 0.01547 0.90607 0.0
C797 C 0.5896 0.9931 0.87667 0.0
H798 H 0.59488 0.04017 0.95593 0.0
C799 C 0.55589 0.97824 0.87562 0.0
H800 H 0.62935 0.02756 0.90747 0.0
C801 C 0.53658 0.98505 0.90319 0.0
C802 C 0.54996 0.00779 0.93231 0.0
H803 H 0.54437 0.96097 0.85337 0.0
H804 H 0.51084 0.97257 0.90155 0.0
C805 C 0.58367 0.02312 0.93351 0.0
C806 C 0.24017 0.35845 0.16001 0.0
C807 C 0.24682 0.34524 0.12683 0.0
H808 H 0.2308 0.34618 0.21207 0.0
C809 C 0.24015 0.30906 0.11806 0.0
H810 H 0.24496 0.38611 0.16744 0.0
C811 C 0.23286 0.28631 0.14366 0.0
C812 C 0.23083 0.29941 0.17802 0.0
H813 H 0.24431 0.29813 0.09233 0.0
H814 H 0.23241 0.25867 0.13743 0.0
C815 C 0.23194 0.33551 0.18549 0.0
C816 C 0.17413 0.99232 0.05569 0.0
C817 C 0.16293 0.95632 0.05279 0.0
H818 H 0.16146 0.04417 0.05719 0.0
C819 C 0.12797 0.94585 0.05146 0.0
H820 H 0.20065 1.00175 0.05658 0.0
C821 C 0.10518 0.9707 0.05265 0.0
C822 C 0.11662 1.00669 0.05435 0.0
H823 H 0.11818 0.91848 0.04904 0.0
H824 H 0.07864 0.96161 0.05068 0.0
C825 C 0.1515 0.01687 0.05605 0.0
C826 C 0.67737 0.5793 0.97258 0.0
C827 C 0.67445 0.60766 0.95216 0.0
H828 H 0.65196 0.54003 1.00105 0.0
C829 C 0.6423 0.61339 0.93908 0.0
H830 H 0.70168 0.57397 0.98317 0.0
C831 C 0.61376 0.5933 0.9489 0.0
C832 C 0.61687 0.56766 0.97256 0.0
H833 H 0.63914 0.63491 0.92329 0.0
H834 H 0.58933 0.59985 0.94024 0.0
C835 C 0.64887 0.55988 0.98312 0.0
C836 C 0.76728 0.44191 0.30546 0.0
C837 C 0.73222 0.43625 0.29826 0.0
H838 H 0.81331 0.42004 0.30662 0.0
C839 C 0.71699 0.40319 0.28394 0.0
H840 H 0.77991 0.467 0.31653 0.0
C841 C 0.73643 0.37635 0.27748 0.0
C842 C 0.77136 0.38179 0.28583 0.0
H843 H 0.69005 0.39795 0.27805 0.0
H844 H 0.72384 0.35109 0.26758 0.0
C845 C 0.78648 0.41498 0.29968 0.0
C846 C 0.8542 0.42041 0.49215 0.0
C847 C 0.83701 0.41992 0.52248 0.0
H848 H 0.89756 0.4416 0.46801 0.0
C849 C 0.85126 0.44088 0.55262 0.0
H850 H 0.8437 0.40457 0.46857 0.0
C851 C 0.88265 0.46123 0.55267 0.0
C852 C 0.89965 0.4619 0.52219 0.0
H853 H 0.83854 0.44081 0.57639 0.0
H854 H 0.89349 0.4766 0.5764 0.0
C855 C 0.88491 0.44167 0.49183 0.0
C856 C 0.32978 0.13887 0.23817 0.0
C857 C 0.36367 0.15205 0.24864 0.0
H858 H 0.27868 0.14915 0.23172 0.0
C859 C 0.37175 0.18788 0.25785 0.0
H860 H 0.32246 0.11142 0.23079 0.0
C861 C 0.34646 0.20954 0.25812 0.0
C862 C 0.3124 0.19593 0.24948 0.0
H863 H 0.39742 0.199 0.26605 0.0
H864 H 0.35352 0.23684 0.26634 0.0
C865 C 0.30451 0.16048 0.23865 0.0
C866 C 0.34398 0.06715 0.52147 0.0
C867 C 0.34763 0.10369 0.52371 0.0
H868 H 0.36805 0.02186 0.5283 0.0
C869 C 0.37772 0.12266 0.53921 0.0
H870 H 0.32092 0.05181 0.50992 0.0
C871 C 0.40442 0.10544 0.55027 0.0
C872 C 0.40155 0.06902 0.54564 0.0
H873 H 0.38107 0.1508 0.5417 0.0
H874 H 0.42794 0.1208 0.56055 0.0
C875 C 0.37081 0.04993 0.53223 0.0
C876 C 0.70546 0.65517 0.35475 0.0
C877 C 0.71127 0.62368 0.33758 0.0
H878 H 0.71744 0.71081 0.36025 0.0
C879 C 0.73621 0.62467 0.31395 0.0
H880 H 0.68623 0.65536 0.37283 0.0
C881 C 0.75326 0.65644 0.30592 0.0
C882 C 0.74657 0.68796 0.32212 0.0
H883 H 0.74102 0.60104 0.29982 0.0
H884 H 0.77108 0.6564 0.2863 0.0
C885 C 0.72331 0.68693 0.34751 0.0
C886 C 0.86448 0.48025 0.79183 0.0
C887 C 0.89719 0.47717 0.78289 0.0
H888 H 0.81557 0.45367 0.79857 0.0
C889 C 0.90545 0.44426 0.77312 0.0
H890 H 0.85756 0.50546 0.79953 0.0
C891 C 0.88119 0.41503 0.77147 0.0
C892 C 0.84855 0.41805 0.78055 0.0
H893 H 0.93036 0.44125 0.76588 0.0
H894 H 0.88818 0.3899 0.76356 0.0
C895 C 0.84046 0.4508 0.79122 0.0
C896 C 1.00181 0.84964 0.09821 0.0
C897 C 1.00793 0.85394 0.13498 0.0
H898 H 0.99849 0.87422 0.05011 0.0
C899 C 1.01494 0.88752 0.15166 0.0
H900 H 0.99606 0.82396 0.08463 0.0
C901 C 1.0168 0.91628 0.13165 0.0
C902 C 1.01102 0.9118 0.09486 0.0
H903 H 1.01977 0.89148 0.17988 0.0
H904 H 0.02283 0.94205 0.14498 0.0
C905 C 1.00307 0.8783 0.07836 0.0
C906 C 0.93708 0.29477 0.81803 0.0
C907 C 0.9415 0.27969 0.84994 0.0
H908 H 0.90245 0.30342 0.77514 0.0
C909 C 0.9145 0.25685 0.86001 0.0
H910 H 0.95718 0.31255 0.80953 0.0
C911 C 0.8834 0.25075 0.83979 0.0
C912 C 0.87813 0.26802 0.80936 0.0
H913 H 0.91703 0.24461 0.88436 0.0
H914 H 0.86282 0.23459 0.84949 0.0
C915 C 0.90567 0.28939 0.79827 0.0
C916 C 0.51281 0.1765 0.57259 0.0
C917 C 0.51685 0.18013 0.60955 0.0
H918 H 0.51875 0.14589 0.52556 0.0
C919 C 0.52467 0.15151 0.62738 0.0
H920 H 0.50634 0.19785 0.55794 0.0
C921 C 0.53099 0.12107 0.60838 0.0
C922 C 0.53038 0.11944 0.57156 0.0
H923 H 0.52829 0.15353 0.65571 0.0
H924 H 0.53855 0.09983 0.62249 0.0
C925 C 0.52015 0.1469 0.5539 0.0
C926 C 0.66481 0.812 0.35612 0.0
C927 C 0.6325 0.80599 0.33779 0.0
H928 H 0.71815 0.81123 0.35367 0.0
C929 C 0.63018 0.79548 0.30188 0.0
H930 H 0.66764 0.82002 0.38387 0.0
C931 C 0.65878 0.79071 0.28483 0.0
C932 C 0.69101 0.79605 0.30291 0.0
H933 H 0.60601 0.79063 0.2867 0.0
H934 H 0.65543 0.78233 0.25715 0.0
C935 C 0.69379 0.80697 0.33888 0.0
C936 C 0.02847 0.17041 0.47858 0.0
C937 C 0.02178 0.19765 0.50175 0.0
H938 H 0.03448 0.11669 0.47167 0.0
C939 C 1.01245 0.19027 0.53524 0.0
H940 H 0.03535 0.17512 0.45249 0.0
C941 C 1.0122 0.15695 0.54623 0.0
C942 C 0.02097 0.13037 0.52387 0.0
H943 H 1.00669 0.21051 0.55366 0.0
H944 H 1.00648 0.15235 0.57272 0.0
C945 C 0.02788 0.13694 0.48952 0.0
C946 C 0.64528 0.31392 0.13529 0.0
C947 C 0.61244 0.29899 0.13948 0.0
H948 H 0.69608 0.32504 0.15783 0.0
C949 C 0.6058 0.28388 0.17091 0.0
H950 H 0.65117 0.32602 0.1116 0.0
C951 C 0.63148 0.2833 0.19734 0.0
C952 C 0.66422 0.29806 0.19296 0.0
H953 H 0.58074 0.27216 0.17507 0.0
H954 H 0.62578 0.27104 0.22099 0.0
C955 C 0.6709 0.31358 0.16187 0.0
C956 C 0.56021 0.88118 0.02111 0.0
C957 C 0.57425 0.87596 0.98913 0.0
H958 H 0.54398 0.91777 0.05807 0.0
C959 C 0.58754 0.90492 0.97251 0.0
H960 H 0.55017 0.85943 0.0349 0.0
C961 C 0.58505 0.93847 0.98662 0.0
C962 C 0.56851 0.94344 0.01706 0.0
H963 H 0.59877 0.90166 0.94803 0.0
H964 H 0.59394 0.96032 0.97232 0.0
C965 C 0.5569 0.91459 0.03465 0.0
C966 C 0.90235 0.80322 0.64094 0.0
C967 C 0.93371 0.79672 0.65541 0.0
H968 H 0.85287 0.81314 0.65087 0.0
C969 C 0.93965 0.79686 0.69202 0.0
H970 H 0.89721 0.80363 0.61288 0.0
C971 C 0.91467 0.80317 0.71373 0.0
C972 C 0.88317 0.80897 0.69919 0.0
H973 H 0.96376 0.79243 0.70402 0.0
H974 H 0.9197 0.80253 0.74177 0.0
C975 C 0.87717 0.80902 0.66267 0.0
C976 C 0.09433 0.0146 0.88645 0.0
C977 C 0.12568 1.00306 0.89316 0.0
H978 H 0.04871 0.02592 0.90666 0.0
C979 C 0.1331 0.99013 0.92576 0.0
H980 H 0.08749 0.02447 0.86161 0.0
C981 C 0.10999 0.9899 0.95138 0.0
C982 C 0.07938 1.00302 0.94491 0.0
H983 H 0.15684 0.98072 0.93162 0.0
H984 H 0.11689 0.98137 0.97684 0.0
C985 C 0.07175 0.015 0.91208 0.0
C986 C 0.7765 0.34723 0.65333 0.0
C987 C 0.74643 0.33957 0.63115 0.0
H988 H 0.80606 0.33431 0.69863 0.0
C989 C 0.72176 0.31377 0.64043 0.0
H990 H 0.79663 0.3659 0.64624 0.0
C991 C 0.72742 0.29524 0.67001 0.0
C992 C 0.75801 0.30175 0.69135 0.0
H993 H 0.69886 0.30626 0.62342 0.0
H994 H 0.70812 0.27479 0.67545 0.0
C995 C 0.7821 0.3288 0.68322 0.0
C996 C 0.44576 0.08616 0.39021 0.0
C997 C 0.46425 0.08598 0.36076 0.0
H998 H 0.44463 0.07906 0.44484 0.0
C999 C 0.49783 0.0795 0.3654 0.0
H1000 H 0.41994 0.09113 0.3878 0.0
C1001 C 0.51219 0.07246 0.39833 0.0
C1002 C 0.4934 0.07178 0.42764 0.0
H1003 H 0.51294 0.0792 0.34336 0.0
H1004 H 0.53778 0.06676 0.40059 0.0
C1005 C 0.46009 0.07923 0.42308 0.0
C1006 C 0.72886 0.71689 0.09017 0.0
C1007 C 0.74909 0.69238 0.07882 0.0
H1008 H 0.71791 0.75089 0.13229 0.0
C1009 C 0.77169 0.68019 0.10322 0.0
H1010 H 0.71084 0.72636 0.07206 0.0
C1011 C 0.77565 0.69431 0.13796 0.0
C1012 C 0.75712 0.72071 0.14833 0.0
H1013 H 0.78762 0.66133 0.09508 0.0
H1014 H 0.79415 0.68578 0.15621 0.0
C1015 C 0.733 0.73107 0.12457 0.0
C1016 C 0.13985 1.00568 0.69346 0.0
C1017 C 0.14664 0.03551 0.71688 0.0
H1018 H 0.11888 0.9846 0.64209 0.0
C1019 C 0.14277 0.06806 0.70484 0.0
H1020 H 0.14224 0.9803 0.70248 0.0
C1021 C 0.12941 0.07054 0.67075 0.0
C1022 C 0.11951 0.04046 0.64824 0.0
H1023 H 0.1478 0.09135 0.72264 0.0
H1024 H 0.12476 0.09577 0.66283 0.0
C1025 C 0.12628 0.00816 0.65914 0.0
C1026 C 0.74815 0.32438 0.44089 0.0
C1027 C 0.73236 0.35457 0.44328 0.0
H1028 H 0.76831 0.28692 0.40786 0.0
C1029 C 0.72274 0.36865 0.41179 0.0
H1030 H 0.75592 0.31258 0.46431 0.0
C1031 C 0.72881 0.35297 0.37901 0.0
C1032 C 0.74556 0.32339 0.37689 0.0
H1033 H 0.71047 0.39177 0.41246 0.0
H1034 H 0.7215 0.36477 0.35539 0.0
C1035 C 0.75518 0.30947 0.40836 0.0
C1036 C 0.47608 0.03605 0.15468 0.0
C1037 C 0.47569 0.0683 0.17362 0.0
H1038 H 0.49357 0.00843 0.11083 0.0
C1039 C 0.49152 0.09835 0.16053 0.0
H1040 H 0.46495 0.01232 0.1647 0.0
C1041 C 0.50861 0.09603 0.13013 0.0
C1042 C 0.51011 0.06362 0.11195 0.0
H1043 H 0.49258 0.12339 0.17505 0.0
H1044 H 0.52164 0.11958 0.1215 0.0
C1045 C 0.49274 0.03376 0.12399 0.0
C1046 C 0.79191 0.74192 0.92171 0.0
C1047 C 0.79966 0.70799 0.91493 0.0
H1048 H 0.78802 0.79139 0.90211 0.0
C1049 C 0.81487 0.69997 0.88437 0.0
H1050 H 0.78064 0.74929 0.94527 0.0
C1051 C 0.81999 0.72485 0.85994 0.0
C1052 C 0.80973 0.75783 0.86579 0.0
H1053 H 0.82154 0.67424 0.87873 0.0
H1054 H 0.8293 0.71729 0.83529 0.0
C1055 C 0.79672 0.76644 0.89736 0.0
C1056 C 0.93639 0.12438 1.00895 0.0
C1057 C 0.90248 0.11408 0.01468 0.0
H1058 H 0.98552 0.10905 1.00416 0.0
C1059 C 0.89296 0.07874 0.01949 0.0
H1060 H 0.9449 0.15125 1.00502 0.0
C1061 C 0.91609 0.0547 0.01864 0.0
C1062 C 0.94993 0.06469 0.01299 0.0
H1063 H 0.86732 0.06939 0.02391 0.0
H1064 H 0.90727 0.02792 0.02268 0.0
C1065 C 0.95977 0.10005 1.00816 0.0
C1066 C 0.41834 0.46177 0.10766 0.0
C1067 C 0.3869 0.46828 0.09321 0.0
H1068 H 0.47159 0.47591 0.11079 0.0
C1069 C 0.38496 0.49844 0.07553 0.0
H1070 H 0.42051 0.43856 0.12119 0.0
C1071 C 0.41427 0.5193 0.06871 0.0
C1072 C 0.44587 0.51087 0.08035 0.0
H1073 H 0.36111 0.50385 0.06373 0.0
H1074 H 0.4123 0.54048 0.05217 0.0
C1075 C 0.44758 0.4832 0.1017 0.0
C1076 C 0.34216 0.67425 0.77911 0.0
C1077 C 0.32901 0.64413 0.75727 0.0
H1078 H 0.33337 0.72364 0.80248 0.0
C1079 C 0.29593 0.64161 0.74197 0.0
H1080 H 0.36748 0.677 0.7916 0.0
C1081 C 0.27651 0.66826 0.74841 0.0
C1082 C 0.28941 0.69819 0.77051 0.0
H1083 H 0.28486 0.61883 0.7252 0.0
H1084 H 0.25116 0.66535 0.73594 0.0
C1085 C 0.32253 0.7009 0.78574 0.0
C1086 C 0.22107 0.62229 0.52577 0.0
C1087 C 0.22292 0.65294 0.50816 0.0
H1088 H 0.18932 0.57942 0.54338 0.0
C1089 C 0.19296 0.66272 0.49318 0.0
H1090 H 0.24359 0.6141 0.53786 0.0
C1091 C 0.16201 0.64251 0.49587 0.0
C1092 C 0.16012 0.61245 0.51427 0.0
H1093 H 0.19341 0.68607 0.4794 0.0
H1094 H 0.13943 0.65087 0.48412 0.0
C1095 C 0.18998 0.60248 0.52912 0.0
C1096 C 0.67913 0.87473 0.78734 0.0
C1097 C 0.6899 0.91066 0.78866 0.0
H1098 H 0.6936 0.82337 0.78566 0.0
C1099 C 0.72466 0.92212 0.79131 0.0
H1100 H 0.65263 0.865 0.78553 0.0
C1101 C 0.748 0.8985 0.79214 0.0
C1102 C 0.73734 0.86261 0.78981 0.0
H1103 H 0.73403 0.94958 0.7928 0.0
H1104 H 0.77445 0.90842 0.79368 0.0
C1105 C 0.70261 0.85093 0.7876 0.0
C1106 C 0.70369 1.0026 0.55307 0.0
C1107 C 0.7041 0.96715 0.54347 0.0
H1108 H 0.67725 0.04666 0.54857 0.0
C1109 C 0.67802 0.94927 0.52001 0.0
H1110 H 0.72367 0.01724 0.57069 0.0
C1111 C 0.65175 0.96622 0.50705 0.0
C1112 C 0.65104 1.00145 0.51711 0.0
H1113 H 0.67777 0.92207 0.51173 0.0
H1114 H 0.63151 0.95146 0.48983 0.0
C1115 C 0.67743 0.01961 0.53995 0.0
C1116 C 0.32144 0.44725 0.76292 0.0
C1117 C 0.34962 0.45113 0.74365 0.0
H1118 H 0.28467 0.41169 0.78424 0.0
C1119 C 0.35931 0.42127 0.72668 0.0
H1120 H 0.31374 0.46966 0.77677 0.0
C1121 C 0.34206 0.38812 0.73014 0.0
C1122 C 0.31552 0.38409 0.75162 0.0
H1123 H 0.38116 0.42345 0.71196 0.0
H1124 H 0.35106 0.36552 0.71812 0.0
C1125 C 0.30492 0.41405 0.76733 0.0
C1126 C 0.1567 0.62538 0.31489 0.0
C1127 C 0.1617 0.59319 0.29902 0.0
H1128 H 0.17563 0.67929 0.32567 0.0
C1129 C 0.19099 0.59098 0.28174 0.0
H1130 H 0.13459 0.62791 0.32856 0.0
C1131 C 0.21437 0.62047 0.27973 0.0
C1132 C 0.20919 0.6526 0.29548 0.0
H1133 H 0.19559 0.56652 0.26911 0.0
H1134 H 0.23626 0.6182 0.26564 0.0
C1135 C 0.18035 0.65471 0.3134 0.0
C1136 C 0.57994 0.72749 0.4801 0.0
C1137 C 0.56662 0.72668 0.445 0.0
H1138 H 0.58834 0.69829 0.52445 0.0
C1139 C 0.55648 0.69464 0.42583 0.0
H1140 H 0.58802 0.75205 0.49535 0.0
C1141 C 0.55625 0.664 0.44267 0.0
C1142 C 0.56643 0.66516 0.47868 0.0
H1143 H 0.54586 0.6934 0.3989 0.0
H1144 H 0.5463 0.6396 0.42795 0.0
C1145 C 0.57987 0.69688 0.49685 0.0
C1146 C 0.64373 0.32714 0.71112 0.0
C1147 C 0.61633 0.30196 0.71584 0.0
H1148 H 0.69544 0.34728 0.72548 0.0
C1149 C 0.62025 0.27956 0.74257 0.0
H1150 H 0.64171 0.345 0.69093 0.0
C1151 C 0.65135 0.28072 0.76227 0.0
C1152 C 0.67924 0.30474 0.75626 0.0
H1153 H 0.59987 0.2598 0.74695 0.0
H1154 H 0.65392 0.26175 0.78127 0.0
C1155 C 0.67461 0.3287 0.73121 0.0
C1156 C 1.01233 0.3846 0.9595 0.0
C1157 C 0.02938 0.39111 0.92955 0.0
H1158 H 0.99174 0.40564 1.00463 0.0
C1159 C 0.03815 0.42571 0.92204 0.0
H1160 H 1.00517 0.35837 0.96629 0.0
C1161 C 0.0308 0.4531 0.94473 0.0
C1162 C 1.01418 0.44624 0.97493 0.0
H1163 H 0.05156 0.43159 0.89942 0.0
H1164 H 0.03824 0.47961 0.93872 0.0
C1165 C 1.00465 0.41173 0.98171 0.0
C1166 C 0.89619 0.7602 0.2091 0.0
C1167 C 0.92784 0.7567 0.226 0.0
H1168 H 0.8452 0.76931 0.21479 0.0
C1169 C 0.93077 0.75737 0.26278 0.0
H1170 H 0.89291 0.76009 0.18085 0.0
C1171 C 0.90359 0.76301 0.2821 0.0
C1172 C 0.87238 0.76779 0.26538 0.0
H1173 H 0.95457 0.755 0.27689 0.0
H1174 H 0.90734 0.76458 0.31042 0.0
C1175 C 0.86876 0.76551 0.22854 0.0
C1176 C 0.53657 0.38241 0.03259 0.0
C1177 C 0.53205 0.38226 0.06853 0.0
H1178 H 0.5414 0.41295 0.98851 0.0
C1179 C 0.53326 0.41379 0.08867 0.0
H1180 H 0.53604 0.35836 0.01647 0.0
C1181 C 0.53648 0.44485 0.07265 0.0
C1182 C 0.53852 0.44486 0.03627 0.0
H1183 H 0.53 0.41441 0.1164 0.0
H1184 H 0.53539 0.46863 0.08856 0.0
C1185 C 0.53974 0.41356 0.01653 0.0
C1186 C 0.96144 0.31295 0.38069 0.0
C1187 C 0.9564 0.30833 0.41596 0.0
H1188 H 0.93873 0.31156 0.32808 0.0
C1189 C 0.9238 0.29888 0.42527 0.0
H1190 H 0.98644 0.32008 0.37287 0.0
C1191 C 0.89684 0.29292 0.39955 0.0
C1192 C 0.90196 0.29708 0.36427 0.0
H1193 H 0.91932 0.29467 0.45216 0.0
H1194 H 0.87194 0.28518 0.40734 0.0
C1195 C 0.93433 0.3078 0.35507 0.0
C1196 C 0.98134 0.67627 0.56 0.0
C1197 C 0.99383 0.70088 0.53757 0.0
H1198 H 0.97305 0.62226 0.56908 0.0
C1199 C 1.00069 0.68931 0.50367 0.0
H1200 H 0.97547 0.68431 0.58609 0.0
C1201 C 0.99981 0.65405 0.49431 0.0
C1202 C 0.99108 0.62974 0.51822 0.0
H1203 H 1.00957 0.70749 0.4853 0.0
H1204 H 1.00856 0.64597 0.46949 0.0
C1205 C 0.97974 0.64077 0.5502 0.0
C1206 C 0.60874 0.73931 0.85676 0.0
C1207 C 0.61801 0.74718 0.89284 0.0
H1208 H 0.62536 0.72945 0.80591 0.0
C1209 C 0.65122 0.7458 0.90588 0.0
H1210 H 0.58322 0.73979 0.8459 0.0
C1211 C 0.67523 0.73941 0.88287 0.0
C1212 C 0.66641 0.7346 0.84652 0.0
H1213 H 0.65901 0.75141 0.93355 0.0
H1214 H 0.70109 0.74038 0.89338 0.0
C1215 C 0.63278 0.73323 0.83378 0.0
C1216 C 0.47357 0.60094 0.67288 0.0
C1217 C 0.4417 0.58105 0.67238 0.0
H1218 H 0.51841 0.61161 0.64648 0.0
C1219 C 0.42848 0.56064 0.64173 0.0
H1220 H 0.48457 0.61642 0.6965 0.0
C1221 C 0.44827 0.55702 0.61378 0.0
C1222 C 0.48123 0.57447 0.61557 0.0
H1223 H 0.40443 0.54445 0.64088 0.0
H1224 H 0.43859 0.5387 0.59167 0.0
C1225 C 0.49308 0.59799 0.64447 0.0
C1226 C 0.82385 0.26197 0.9356 0.0
C1227 C 0.8179 0.22541 0.93092 0.0
H1228 H 0.82064 0.3106 0.91339 0.0
C1229 C 0.8024 0.21018 0.89831 0.0
H1230 H 0.83577 0.27484 0.96018 0.0
C1231 C 0.79294 0.23104 0.87145 0.0
C1232 C 0.79919 0.26764 0.87623 0.0
H1233 H 0.7974 0.18218 0.8936 0.0
H1234 H 0.78184 0.2184 0.84664 0.0
C1235 C 0.81504 0.28262 0.90868 0.0
C1236 C 0.04188 0.47338 0.18005 0.0
C1237 C 0.07635 0.47865 0.19156 0.0
H1238 H 1.00388 0.47632 0.13863 0.0
C1239 C 0.09946 0.48635 0.16682 0.0
H1240 H 0.02333 0.46719 0.19833 0.0
C1241 C 0.08814 0.4916 0.13219 0.0
C1242 C 0.05351 0.48942 0.12173 0.0
H1243 H 0.1261 0.49096 0.17481 0.0
H1244 H 0.10657 0.49955 0.11433 0.0
C1245 C 0.03063 0.47881 0.14576 0.0
C1246 C 0.80324 0.9124 0.45031 0.0
C1247 C 0.81354 0.89823 0.48122 0.0
H1248 H 0.79203 0.90335 0.39485 0.0
C1249 C 0.82566 0.866 0.47949 0.0
H1250 H 0.79369 0.93716 0.45109 0.0
C1251 C 0.82432 0.84656 0.44757 0.0
C1252 C 0.81094 0.85924 0.41712 0.0
H1253 H 0.83398 0.85474 0.50311 0.0
H1254 H 0.8321 0.82095 0.44702 0.0
C1255 C 0.80184 0.89287 0.41832 0.0
C1256 C 0.43412 0.52313 0.84314 0.0
C1257 C 0.40857 0.5443 0.84347 0.0
H1258 H 0.47197 0.50158 0.87311 0.0
C1259 C 0.39969 0.55815 0.87554 0.0
H1260 H 0.44123 0.51194 0.81874 0.0
C1261 C 0.41784 0.55277 0.90679 0.0
C1262 C 0.44444 0.53288 0.90614 0.0
H1263 H 0.38013 0.5747 0.87626 0.0
H1264 H 0.4118 0.56499 0.93124 0.0
C1265 C 0.45167 0.51716 0.87425 0.0
C1266 C 0.8017 0.2074 0.13371 0.0
C1267 C 0.83083 0.22077 0.11875 0.0
H1268 H 0.77078 0.21142 0.17637 0.0
C1269 C 0.85352 0.24678 0.13868 0.0
H1270 H 0.78311 0.18834 0.11866 0.0
C1271 C 0.84662 0.25984 0.17216 0.0
C1272 C 0.81617 0.24825 0.18575 0.0
H1273 H 0.87553 0.2586 0.12742 0.0
H1274 H 0.86395 0.2807 0.18625 0.0
C1275 C 0.79432 0.22115 0.16654 0.0
C1276 C 0.10366 0.51527 0.40668 0.0
C1277 C 0.08963 0.49314 0.37717 0.0
H1278 H 0.09519 0.53973 0.45671 0.0
C1279 C 0.05586 0.47847 0.37605 0.0
H1280 H 0.12955 0.5272 0.40815 0.0
C1281 C 0.0366 0.48523 0.40368 0.0
C1282 C 0.05012 0.50772 0.43294 0.0
H1283 H 0.04425 0.46138 0.35371 0.0
H1284 H 1.01081 0.47289 0.40199 0.0
C1285 C 0.08388 0.52288 0.43419 0.0
C1286 C 0.73951 0.85842 0.66052 0.0
C1287 C 0.74605 0.84509 0.62734 0.0
H1288 H 0.73028 0.84631 0.71266 0.0
C1289 C 0.73922 0.80891 0.61866 0.0
H1290 H 0.7444 0.88608 0.6679 0.0
C1291 C 0.73195 0.78624 0.64433 0.0
C1292 C 0.7301 0.79944 0.6787 0.0
H1293 H 0.74329 0.7979 0.59292 0.0
H1294 H 0.73143 0.75859 0.63816 0.0
C1295 C 0.73129 0.83556 0.68608 0.0
C1296 C 0.62816 0.44598 0.5517 0.0
C1297 C 0.66311 0.45638 0.55282 0.0
H1298 H 0.57887 0.46183 0.55118 0.0
C1299 C 0.67436 0.49237 0.5556 0.0
H1300 H 0.61833 0.41861 0.54938 0.0
C1301 C 0.65176 0.51697 0.55605 0.0
C1302 C 0.61689 0.50685 0.55456 0.0
H1303 H 0.70087 0.50177 0.55634 0.0
H1304 H 0.66176 0.54425 0.55709 0.0
C1305 C 0.60542 0.47088 0.55298 0.0
C1306 C 0.17714 0.07929 0.47247 0.0
C1307 C 0.17419 0.10759 0.45198 0.0
H1308 H 0.15175 0.03995 0.50087 0.0
C1309 C 0.14204 0.11315 0.43873 0.0
H1310 H 0.20146 0.07409 0.48318 0.0
C1311 C 0.11351 0.09296 0.44845 0.0
C1312 C 0.11663 0.06736 0.47216 0.0
H1313 H 0.13884 0.13462 0.42288 0.0
H1314 H 0.08906 0.09938 0.43966 0.0
C1315 C 0.14865 0.05975 0.48289 0.0
C1316 C 0.21727 0.90367 0.78375 0.0
C1317 C 0.2324 0.93679 0.79797 0.0
H1318 H 0.22426 0.85156 0.76761 0.0
C1319 C 0.26745 0.94255 0.80524 0.0
H1320 H 0.19033 0.89834 0.77783 0.0
C1321 C 0.28674 0.91566 0.7996 0.0
C1322 C 0.27171 0.88241 0.78584 0.0
H1323 H 0.28002 0.96769 0.81624 0.0
H1324 H 0.31355 0.92081 0.80658 0.0
C1325 C 0.23679 0.87687 0.77743 0.0
C1326 C 0.35422 0.91999 0.99206 0.0
C1327 C 0.33684 0.92004 0.02226 0.0
H1328 H 0.39769 0.94077 0.96786 0.0
C1329 C 0.35087 0.94158 0.05211 0.0
H1330 H 0.34391 0.9037 0.9687 0.0
C1331 C 0.38222 0.96197 0.05202 0.0
C1332 C 0.39941 0.96209 0.02166 0.0
H1333 H 0.33801 0.94195 0.07578 0.0
H1334 H 0.39289 0.97781 0.07553 0.0
C1335 C 0.3849 0.94127 0.99157 0.0
C1336 C 0.87177 0.68775 0.75811 0.0
C1337 C 0.86366 0.65188 0.74915 0.0
H1338 H 0.85358 0.73676 0.76638 0.0
C1339 C 0.82973 0.63866 0.73897 0.0
H1340 H 0.89747 0.69891 0.76607 0.0
C1341 C 0.80446 0.66026 0.73948 0.0
C1342 C 0.81238 0.69577 0.75005 0.0
H1343 H 0.82237 0.61117 0.73179 0.0
H1344 H 0.7786 0.64891 0.73278 0.0
C1345 C 0.84648 0.70941 0.75839 0.0
C1346 C 0.84404 0.56661 0.02154 0.0
C1347 C 0.84768 0.60315 0.02401 0.0
H1348 H 0.86807 0.52128 0.02824 0.0
C1349 C 0.87767 0.62205 0.03984 0.0
H1350 H 0.82104 0.55132 0.00974 0.0
C1351 C 0.9043 0.60478 0.05097 0.0
C1352 C 0.90147 0.56837 0.04609 0.0
H1353 H 0.88101 0.65019 0.04252 0.0
H1354 H 0.92776 0.62009 0.0615 0.0
C1355 C 0.87081 0.54934 0.03236 0.0
C1356 C 0.23613 0.12514 0.81347 0.0
C1357 C 0.21117 0.12414 0.83708 0.0
H1358 H 0.27108 0.15687 0.78591 0.0
C1359 C 0.20536 0.15563 0.85427 0.0
H1360 H 0.24093 0.10151 0.79933 0.0
C1361 C 0.22327 0.18738 0.84709 0.0
C1362 C 0.24657 0.18842 0.82174 0.0
H1363 H 0.18612 0.15581 0.87233 0.0
H1364 H 0.21742 0.21126 0.85985 0.0
C1365 C 0.25323 0.15691 0.80551 0.0
C1366 C 0.3643 0.98035 0.29124 0.0
C1367 C 0.39705 0.97725 0.28244 0.0
H1368 H 0.31538 0.95378 0.298 0.0
C1369 C 0.40537 0.94431 0.27293 0.0
H1370 H 0.35732 1.00558 0.29875 0.0
C1371 C 0.38115 0.91506 0.27141 0.0
C1372 C 0.34847 0.9181 0.28036 0.0
H1373 H 0.43031 0.94127 0.26581 0.0
H1374 H 0.38819 0.8899 0.2637 0.0
C1375 C 0.34031 0.95089 0.29076 0.0
C1376 C 0.50179 0.34992 0.59849 0.0
C1377 C 0.50801 0.35414 0.63526 0.0
H1378 H 0.49842 0.37462 0.55047 0.0
C1379 C 0.51511 0.38767 0.65201 0.0
H1380 H 0.49597 0.32427 0.58486 0.0
C1381 C 0.51698 0.41649 0.63208 0.0
C1382 C 0.51112 0.41209 0.59529 0.0
H1383 H 0.52001 0.39157 0.68022 0.0
H1384 H 0.52309 0.44223 0.64545 0.0
C1385 C 0.50307 0.37864 0.57871 0.0
C1386 C 0.41432 0.75691 0.36012 0.0
C1387 C 0.44133 0.77972 0.35003 0.0
H1388 H 0.36264 0.73467 0.34961 0.0
C1389 C 0.43693 0.79477 0.31811 0.0
H1390 H 0.41685 0.7447 0.38449 0.0
C1391 C 0.40552 0.78939 0.29834 0.0
C1392 C 0.37797 0.76805 0.30945 0.0
H1393 H 0.45704 0.81253 0.30959 0.0
H1394 H 0.40231 0.8034 0.27519 0.0
C1395 C 0.38323 0.75081 0.33991 0.0
C1396 C 1.01226 0.67604 0.07296 0.0
C1397 C 1.0166 0.67983 0.1099 0.0
H1398 H 1.01802 0.64531 0.02594 0.0
C1399 C 0.02474 0.65136 0.12779 0.0
H1400 H 1.00556 0.69728 0.05828 0.0
C1401 C 0.03109 0.62092 0.10882 0.0
C1402 C 0.03019 0.61914 0.07198 0.0
H1403 H 0.02859 0.65352 0.15611 0.0
H1404 H 0.03891 0.59981 0.12296 0.0
C1405 C 1.01963 0.64643 0.05429 0.0
C1406 C 0.13039 0.29585 0.80174 0.0
C1407 C 0.13269 0.3062 0.83769 0.0
H1408 H 0.15567 0.28292 0.75697 0.0
C1409 C 0.165 0.31217 0.85604 0.0
H1410 H 0.10623 0.29103 0.78655 0.0
C1411 C 0.19399 0.30725 0.83877 0.0
C1412 C 0.19122 0.29648 0.80277 0.0
H1413 H 0.16782 0.32008 0.8838 0.0
H1414 H 0.21834 0.31147 0.85357 0.0
C1415 C 0.159 0.29119 0.78468 0.0
C1416 C 0.51315 0.69088 0.03632 0.0
C1417 C 0.52213 0.69819 1.00269 0.0
H1418 H 0.50752 0.65301 0.07388 0.0
C1419 C 0.52858 0.67091 0.97943 0.0
H1420 H 0.5076 0.71116 0.05482 0.0
C1421 C 0.52807 0.63746 0.99038 0.0
C1422 C 0.52149 0.63094 0.02482 0.0
H1423 H 0.53519 0.67557 0.95324 0.0
H1424 H 0.53447 0.61717 0.97243 0.0
C1425 C 0.51297 0.65757 0.04731 0.0
C1426 C 0.14569 0.81419 0.63541 0.0
C1427 C 0.11286 0.79937 0.63978 0.0
H1428 H 0.19656 0.82524 0.65778 0.0
C1429 C 0.10627 0.78444 0.67131 0.0
H1430 H 0.15153 0.82614 0.61164 0.0
C1431 C 0.13201 0.78391 0.69767 0.0
C1432 C 0.16475 0.79853 0.69313 0.0
H1433 H 0.08122 0.77282 0.6756 0.0
H1434 H 0.12636 0.77179 0.72141 0.0
C1435 C 0.17138 0.81389 0.66194 0.0
C1436 C 0.08745 0.40452 0.47229 0.0
C1437 C 0.07413 0.37547 0.48878 0.0
H1438 H 0.09401 0.45995 0.47245 0.0
C1439 C 0.06018 0.38057 0.52083 0.0
H1440 H 0.09861 0.40136 0.44776 0.0
C1441 C 0.057 0.41393 0.53459 0.0
C1442 C 0.06865 0.44288 0.51716 0.0
H1443 H 0.05012 0.35874 0.53452 0.0
H1444 H 0.04416 0.41702 0.55808 0.0
C1445 C 0.0851 0.43803 0.48663 0.0
C1446 C 0.43905 0.29524 0.19148 0.0
C1447 C 0.43342 0.29675 0.15504 0.0
H1448 H 0.41911 0.2998 0.24131 0.0
C1449 C 0.40259 0.30508 0.14097 0.0
H1450 H 0.46274 0.28934 0.2032 0.0
C1451 C 0.37764 0.31113 0.16294 0.0
C1452 C 0.38335 0.30945 0.19929 0.0
H1453 H 0.39771 0.30681 0.11307 0.0
H1454 H 0.35374 0.31671 0.15143 0.0
C1455 C 0.41432 0.30174 0.21342 0.0
C1456 C 0.59438 0.5145 0.38685 0.0
C1457 C 0.62565 0.50281 0.39357 0.0
H1458 H 0.54884 0.52606 0.40707 0.0
C1459 C 0.63301 0.48985 0.42617 0.0
H1460 H 0.58759 0.52439 0.36201 0.0
C1461 C 0.60991 0.48975 0.45178 0.0
C1462 C 0.57939 0.50304 0.44532 0.0
H1463 H 0.65669 0.48032 0.43203 0.0
H1464 H 0.61676 0.48119 0.47725 0.0
C1465 C 0.57182 0.51503 0.41249 0.0
C1466 C 0.22167 0.8135 0.14029 0.0
C1467 C 0.24623 0.83949 0.13115 0.0
H1468 H 0.20813 0.7744 0.17522 0.0
C1469 C 0.27619 0.84734 0.15347 0.0
H1470 H 0.19886 0.80584 0.12318 0.0
C1471 C 0.28181 0.82892 0.18336 0.0
C1472 C 0.25784 0.80169 0.19136 0.0
H1473 H 0.29624 0.86618 0.14649 0.0
H1474 H 0.3057 0.83459 0.19888 0.0
C1475 C 0.22734 0.79499 0.16988 0.0
C1476 C 0.99786 0.57953 0.86595 0.0
C1477 C 0.96425 0.58591 0.86129 0.0
H1478 H 0.03782 0.56683 0.90115 0.0
C1479 C 0.94571 0.58595 0.89071 0.0
H1480 H 1.013 0.57933 0.84394 0.0
C1481 C 0.96003 0.57899 0.92357 0.0
C1482 C 0.99337 0.57163 0.92815 0.0
H1483 H 0.91987 0.59085 0.88828 0.0
H1484 H 0.94454 0.5787 0.94531 0.0
C1485 C 1.0122 0.57245 0.89888 0.0
C1486 C 0.27167 0.18073 0.60298 0.0
C1487 C 0.2491 0.19298 0.5786 0.0
H1488 H 0.2942 0.18631 0.65595 0.0
C1489 C 0.22904 0.21767 0.58994 0.0
H1490 H 0.28747 0.16174 0.59486 0.0
C1491 C 0.2333 0.23192 0.62432 0.0
C1492 C 0.25737 0.22146 0.64807 0.0
H1493 H 0.21106 0.2272 0.57185 0.0
H1494 H 0.21834 0.25185 0.63203 0.0
C1495 C 0.27574 0.19493 0.63771 0.0
C1496 C 0.64341 0.56782 0.2053 0.0
C1497 C 0.64696 0.5352 0.21732 0.0
H1498 H 0.62573 0.59571 0.16328 0.0
C1499 C 0.63995 0.50539 0.1939 0.0
H1500 H 0.64861 0.59109 0.22311 0.0
C1501 C 0.62648 0.50798 0.15958 0.0
C1502 C 0.62001 0.54038 0.14868 0.0
H1503 H 0.6421 0.47996 0.20291 0.0
H1504 H 0.61889 0.48446 0.14252 0.0
C1505 C 0.63014 0.57042 0.1712 0.0
C1506 C 0.24827 0.82462 0.94091 0.0
C1507 C 0.23245 0.85479 0.94333 0.0
H1508 H 0.26858 0.78728 0.90787 0.0
C1509 C 0.22293 0.86896 0.91185 0.0
H1510 H 0.25596 0.81276 0.96432 0.0
C1511 C 0.22913 0.85339 0.87907 0.0
C1512 C 0.24592 0.82384 0.87695 0.0
H1513 H 0.21064 0.89208 0.91254 0.0
H1514 H 0.22189 0.86525 0.85547 0.0
C1515 C 0.25543 0.80982 0.9084 0.0
C1516 C 0.97606 0.53592 0.65523 0.0
C1517 C 0.97595 0.56818 0.67424 0.0
H1518 H 0.99347 0.50814 0.61142 0.0
C1519 C 0.99219 0.59812 0.66132 0.0
H1520 H 0.96464 0.51225 0.66514 0.0
C1521 C 1.00939 0.59566 0.63101 0.0
C1522 C 1.0106 0.56323 0.61274 0.0
H1523 H 0.99349 0.62316 0.67591 0.0
H1524 H 0.02272 0.61912 0.62251 0.0
C1525 C 0.99285 0.5335 0.62463 0.0
C1526 C 0.31449 0.2002 0.38412 0.0
C1527 C 0.29913 0.20817 0.41459 0.0
H1528 H 0.32907 0.21756 0.3351 0.0
C1529 C 0.2912 0.24205 0.42128 0.0
H1530 H 0.32129 0.17452 0.37856 0.0
C1531 C 0.29603 0.26656 0.39693 0.0
C1532 C 0.30922 0.258 0.36545 0.0
H1533 H 0.2798 0.24937 0.44476 0.0
H1534 H 0.28721 0.29146 0.40159 0.0
C1535 C 0.31962 0.22508 0.35969 0.0
C1536 C 0.39322 0.5792 0.51994 0.0
C1537 C 0.40273 0.6145 0.51498 0.0
H1538 H 0.40754 0.52841 0.52335 0.0
C1539 C 0.43664 0.62478 0.50921 0.0
H1540 H 0.36758 0.56986 0.52439 0.0
C1541 C 0.46003 0.60044 0.50853 0.0
C1542 C 0.45019 0.56511 0.51351 0.0
H1543 H 0.44513 0.65161 0.50517 0.0
H1544 H 0.48577 0.60942 0.50449 0.0
C1545 C 0.41635 0.55516 0.51919 0.0
C1546 C 0.91792 0.96113 0.60712 0.0
C1547 C 0.88645 0.96761 0.59273 0.0
H1548 H 0.97117 0.97525 0.61009 0.0
C1549 C 0.88448 0.99763 0.57484 0.0
H1550 H 0.92011 0.93802 0.6208 0.0
C1551 C 0.91378 0.01842 0.56783 0.0
C1552 C 0.9454 0.01007 0.5795 0.0
H1553 H 0.86061 1.003 0.56305 0.0
H1554 H 0.91177 0.03951 0.55117 0.0
C1555 C 0.94715 0.9825 0.60099 0.0
C1556 C 0.84146 0.17356 0.2788 0.0
C1557 C 0.82831 0.1435 0.25688 0.0
H1558 H 0.83266 0.22289 0.30232 0.0
C1559 C 0.79524 0.14101 0.24159 0.0
H1560 H 0.86677 0.17628 0.2913 0.0
C1561 C 0.77581 0.16765 0.2481 0.0
C1562 C 0.78871 0.19752 0.27029 0.0
H1563 H 0.78416 0.11827 0.22476 0.0
H1564 H 0.75047 0.16477 0.23563 0.0
C1565 C 0.82182 0.2002 0.28552 0.0
C1566 C 0.69286 0.1628 0.99255 0.0
C1567 C 0.72273 0.15294 1.00765 0.0
H1568 H 0.63933 0.15114 0.98335 0.0
C1569 C 0.72072 0.12233 0.02533 0.0
H1570 H 0.69344 0.18613 0.97871 0.0
C1571 C 0.68957 0.10266 0.02864 0.0
C1572 C 0.65979 0.11272 0.01368 0.0
H1573 H 0.74318 0.11409 0.03751 0.0
H1574 H 0.68878 0.07962 0.04296 0.0
C1575 C 0.66184 0.14272 0.99519 0.0
C1576 C 0.17898 0.37472 0.28718 0.0
C1577 C 0.18981 0.41067 0.28895 0.0
H1578 H 0.19338 0.32333 0.28493 0.0
C1579 C 0.22458 0.4221 0.29185 0.0
H1580 H 0.15246 0.36501 0.28515 0.0
C1581 C 0.24788 0.39844 0.29249 0.0
C1582 C 0.23717 0.36254 0.28969 0.0
H1583 H 0.23399 0.44957 0.29369 0.0
H1584 H 0.27435 0.40834 0.29425 0.0
C1585 C 0.20243 0.35089 0.28723 0.0
C1586 C 0.20395 0.50279 0.05314 0.0
C1587 C 0.20448 0.46739 0.0434 0.0
H1588 H 0.17732 0.54674 0.04889 0.0
C1589 C 0.17841 0.4495 0.01993 0.0
H1590 H 0.22391 0.51744 0.07077 0.0
C1591 C 0.15204 0.46637 1.00711 0.0
C1592 C 0.15121 0.50155 0.01732 0.0
H1593 H 0.17826 0.42234 0.01154 0.0
H1594 H 0.13181 0.4516 0.98988 0.0
C1595 C 0.17759 0.51974 0.04016 0.0
C1596 C 0.82097 0.94669 0.26265 0.0
C1597 C 0.84906 0.95054 0.24324 0.0
H1598 H 0.78434 0.91117 0.28422 0.0
C1599 C 0.8587 0.92065 0.22628 0.0
H1600 H 0.81331 0.96912 0.27651 0.0
C1601 C 0.84151 0.88751 0.22988 0.0
C1602 C 0.81508 0.88352 0.25151 0.0
H1603 H 0.88048 0.92281 0.21145 0.0
H1604 H 0.85048 0.86489 0.21786 0.0
C1605 C 0.80452 0.9135 0.26721 0.0
C1606 C 0.69099 0.09092 0.78122 0.0
C1607 C 0.66174 0.09312 0.79858 0.0
H1608 H 0.73627 0.11814 0.76514 0.0
C1609 C 0.65681 0.12529 0.81459 0.0
H1610 H 0.69552 0.06649 0.76849 0.0
C1611 C 0.6805 0.1546 0.81316 0.0
C1612 C 0.7093 0.1525 0.79518 0.0
H1613 H 0.63473 0.1278 0.82831 0.0
H1614 H 0.67584 0.17914 0.82554 0.0
C1615 C 0.7144 0.1204 0.77929 0.0
loop_
_geom_bond_atom_site_label_1
_geom_bond_atom_site_label_2
_geom_bond_distance
_geom_bond_site_symmetry_2
_ccdc_geom_bond_type
Co0 O1 2.216 . S
Co0 O2 2.091 . S
Co0 O4 2.004 1_455 S
Co0 O10 2.021 . S
Co0 O12 2.137 . S
Co0 O13 2.244 . S
O1 Co0 2.216 . S
O1 C8 1.247 . S
O2 Co0 2.091 . S
O2 C8 1.261 . S
C3 O12 1.247 . S
C3 O13 1.272 . S
O4 Co0 2.004 1_655 S
O4 C9 1.259 . S
Co5 O6 2.061 . S
Co5 O11 2.052 . S
Co5 O13 2.135 1_655 S
O6 Co5 2.061 . S
O6 C9 1.235 . S
C7 O10 1.238 . S
C7 O11 1.241 1_455 S
C8 O1 1.247 . S
C8 O2 1.261 . S
C9 O4 1.259 . S
C9 O6 1.235 . S
O10 Co0 2.021 . S
O10 C7 1.238 . S
O11 Co5 2.052 . S
O11 C7 1.241 1_655 S
O12 Co0 2.137 . S
O12 C3 1.247 . S
O13 Co0 2.244 . S
O13 C3 1.272 . S
O13 Co5 2.135 1_455 S
Co14 O15 2.216 . S
Co14 O16 2.091 . S
Co14 O18 2.004 1_655 S
Co14 O24 2.021 . S
Co14 O26 2.137 . S
Co14 O27 2.244 1_655 S
O15 Co14 2.216 . S
O15 C22 1.247 . S
O16 Co14 2.091 . S
O16 C22 1.261 . S
C17 O26 1.247 1_455 S
C17 O27 1.272 . S
O18 Co14 2.004 1_455 S
O18 C23 1.259 . S
Co19 O20 2.061 . S
Co19 O25 2.052 . S
Co19 O27 2.135 . S
O20 Co19 2.061 . S
O20 C23 1.235 . S
C21 O24 1.238 . S
C21 O25 1.241 1_655 S
C22 O15 1.247 . S
C22 O16 1.261 . S
C23 O18 1.259 . S
C23 O20 1.235 . S
O24 Co14 2.021 . S
O24 C21 1.238 . S
O25 Co19 2.052 . S
O25 C21 1.241 1_455 S
O26 Co14 2.137 . S
O26 C17 1.247 1_655 S
O27 Co14 2.244 1_455 S
O27 C17 1.272 . S
O27 Co19 2.135 . S
Co28 O29 2.216 . S
Co28 O30 2.091 . S
Co28 O32 2.004 . S
Co28 O38 2.021 . S
Co28 O40 2.137 . S
Co28 O41 2.244 . S
O29 Co28 2.216 . S
O29 C36 1.247 . S
O30 Co28 2.091 . S
O30 C36 1.261 . S
C31 O40 1.247 . S
C31 O41 1.272 . S
O32 Co28 2.004 . S
O32 C37 1.259 . S
Co33 O34 2.061 . S
Co33 O39 2.052 . S
Co33 O41 2.135 . S
O34 Co33 2.061 . S
O34 C37 1.235 . S
C35 O38 1.238 . S
C35 O39 1.241 . S
C36 O29 1.247 . S
C36 O30 1.261 . S
C37 O32 1.259 . S
C37 O34 1.235 . S
O38 Co28 2.021 . S
O38 C35 1.238 . S
O39 Co33 2.052 . S
O39 C35 1.241 . S
O40 Co28 2.137 . S
O40 C31 1.247 . S
O41 Co28 2.244 . S
O41 C31 1.272 . S
O41 Co33 2.135 . S
Co42 O43 2.216 . S
Co42 O44 2.091 . S
Co42 O46 2.004 . S
Co42 O52 2.021 . S
Co42 O54 2.137 . S
Co42 O55 2.244 . S
O43 Co42 2.216 . S
O43 C50 1.247 . S
O44 Co42 2.091 . S
O44 C50 1.261 . S
C45 O54 1.247 . S
C45 O55 1.272 . S
O46 Co42 2.004 . S
O46 C51 1.259 . S
Co47 O48 2.061 . S
Co47 O53 2.052 . S
Co47 O55 2.135 . S
O48 Co47 2.061 . S
O48 C51 1.235 . S
C49 O52 1.238 . S
C49 O53 1.241 . S
C50 O43 1.247 . S
C50 O44 1.261 . S
C51 O46 1.259 . S
C51 O48 1.235 . S
O52 Co42 2.021 . S
O52 C49 1.238 . S
O53 Co47 2.052 . S
O53 C49 1.241 . S
O54 Co42 2.137 . S
O54 C45 1.247 . S
O55 Co42 2.244 . S
O55 C45 1.272 . S
O55 Co47 2.135 . S
Co56 O57 2.216 1_455 S
Co56 O58 2.091 1_455 S
Co56 O60 2.004 . S
Co56 O66 2.018 . S
Co56 O68 2.137 . S
Co56 O69 2.244 . S
O57 Co56 2.216 1_655 S
O57 C64 1.247 . S
O58 Co56 2.091 1_655 S
O58 C64 1.261 . S
C59 O68 1.247 . S
C59 O69 1.272 . S
O60 Co56 2.004 . S
O60 C65 1.259 . S
Co61 O62 2.061 . S
Co61 O67 2.052 . S
Co61 O69 2.135 . S
O62 Co61 2.061 . S
O62 C65 1.235 . S
C63 O66 1.245 . S
C63 O67 1.241 . S
C64 O57 1.247 . S
C64 O58 1.261 . S
C65 O60 1.259 . S
C65 O62 1.235 . S
O66 Co56 2.018 . S
O66 C63 1.245 . S
O67 Co61 2.052 . S
O67 C63 1.241 . S
O68 Co56 2.137 . S
O68 C59 1.247 . S
O69 Co56 2.244 . S
O69 C59 1.272 . S
O69 Co61 2.135 . S
Co70 O71 2.216 . S
Co70 O72 2.091 . S
Co70 O74 2.004 . S
Co70 O80 2.021 . S
Co70 O82 2.137 . S
Co70 O83 2.244 . S
O71 Co70 2.216 . S
O71 C78 1.247 . S
O72 Co70 2.091 . S
O72 C78 1.261 . S
C73 O82 1.247 . S
C73 O83 1.272 . S
O74 Co70 2.004 . S
O74 C79 1.259 . S
Co75 O76 2.061 . S
Co75 O81 2.052 . S
Co75 O83 2.135 . S
O76 Co75 2.061 . S
O76 C79 1.235 . S
C77 O80 1.238 . S
C77 O81 1.241 . S
C78 O71 1.247 . S
C78 O72 1.261 . S
C79 O74 1.259 . S
C79 O76 1.235 . S
O80 Co70 2.021 . S
O80 C77 1.238 . S
O81 Co75 2.052 . S
O81 C77 1.241 . S
O82 Co70 2.137 . S
O82 C73 1.247 . S
O83 Co70 2.244 . S
O83 C73 1.272 . S
O83 Co75 2.135 . S
Co84 O85 2.216 . S
Co84 O86 2.091 . S
Co84 O88 2.004 . S
Co84 O94 2.021 . S
Co84 O96 2.137 . S
Co84 O97 2.244 . S
O85 Co84 2.216 . S
O85 C92 1.247 . S
O86 Co84 2.091 . S
O86 C92 1.261 . S
C87 O96 1.247 . S
C87 O97 1.272 . S
O88 Co84 2.004 . S
O88 C93 1.259 . S
Co89 O90 2.061 . S
Co89 O95 2.052 . S
Co89 O97 2.135 . S
O90 Co89 2.061 . S
O90 C93 1.235 . S
C91 O94 1.238 . S
C91 O95 1.241 . S
C92 O85 1.247 . S
C92 O86 1.261 . S
C93 O88 1.259 . S
C93 O90 1.235 . S
O94 Co84 2.021 . S
O94 C91 1.238 . S
O95 Co89 2.052 . S
O95 C91 1.241 . S
O96 Co84 2.137 . S
O96 C87 1.247 . S
O97 Co84 2.244 . S
O97 C87 1.272 . S
O97 Co89 2.135 . S
Co98 O99 2.216 . S
Co98 O100 2.091 . S
Co98 O102 2.004 1_455 S
Co98 O108 2.021 . S
Co98 O110 2.137 . S
Co98 O111 2.244 . S
O99 Co98 2.216 . S
O99 C106 1.247 . S
O100 Co98 2.091 . S
O100 C106 1.261 . S
C101 O110 1.247 . S
C101 O111 1.272 . S
O102 Co98 2.004 1_655 S
O102 C107 1.259 . S
Co103 O104 2.061 . S
Co103 O109 2.052 . S
Co103 O111 2.135 1_655 S
O104 Co103 2.061 . S
O104 C107 1.235 . S
C105 O108 1.238 . S
C105 O109 1.241 1_455 S
C106 O99 1.247 . S
C106 O100 1.261 . S
C107 O102 1.259 . S
C107 O104 1.235 . S
O108 Co98 2.021 . S
O108 C105 1.238 . S
O109 Co103 2.052 . S
O109 C105 1.241 1_655 S
O110 Co98 2.137 . S
O110 C101 1.247 . S
O111 Co98 2.244 . S
O111 C101 1.272 . S
O111 Co103 2.135 1_455 S
Co112 O113 2.216 . S
Co112 O114 2.091 . S
Co112 O116 2.004 . S
Co112 O122 2.021 . S
Co112 O124 2.137 . S
Co112 O125 2.244 . S
O113 Co112 2.216 . S
O113 C120 1.247 . S
O114 Co112 2.091 . S
O114 C120 1.261 . S
C115 O124 1.247 . S
C115 O125 1.272 . S
O116 Co112 2.004 . S
O116 C121 1.259 1_545 S
Co117 O118 2.061 1_545 S
Co117 O123 2.052 . S
Co117 O125 2.135 . S
O118 Co117 2.061 1_565 S
O118 C121 1.235 . S
C119 O122 1.238 . S
C119 O123 1.241 . S
C120 O113 1.247 . S
C120 O114 1.261 . S
C121 O116 1.259 1_565 S
C121 O118 1.235 . S
O122 Co112 2.021 . S
O122 C119 1.238 . S
O123 Co117 2.052 . S
O123 C119 1.241 . S
O124 Co112 2.137 . S
O124 C115 1.247 . S
O125 Co112 2.244 . S
O125 C115 1.272 . S
O125 Co117 2.135 . S
Co126 O127 2.216 . S
Co126 O128 2.091 . S
Co126 O130 2.004 . S
Co126 O136 2.021 . S
Co126 O138 2.137 . S
Co126 O139 2.244 . S
O127 Co126 2.216 . S
O127 C134 1.247 . S
O128 Co126 2.091 . S
O128 C134 1.261 . S
C129 O138 1.247 . S
C129 O139 1.272 . S
O130 Co126 2.004 . S
O130 C135 1.259 . S
Co131 O132 2.061 . S
Co131 O137 2.052 . S
Co131 O139 2.135 . S
O132 Co131 2.061 . S
O132 C135 1.235 . S
C133 O136 1.238 . S
C133 O137 1.241 . S
C134 O127 1.247 . S
C134 O128 1.261 . S
C135 O130 1.259 . S
C135 O132 1.235 . S
O136 Co126 2.021 . S
O136 C133 1.238 . S
O137 Co131 2.052 . S
O137 C133 1.241 . S
O138 Co126 2.137 . S
O138 C129 1.247 . S
O139 Co126 2.244 . S
O139 C129 1.272 . S
O139 Co131 2.135 . S
Co140 O141 2.216 . S
Co140 O142 2.091 . S
Co140 O144 2.004 1_565 S
Co140 O150 2.021 . S
Co140 O152 2.137 . S
Co140 O153 2.244 1_565 S
O141 Co140 2.216 . S
O141 C148 1.247 . S
O142 Co140 2.091 . S
O142 C148 1.261 . S
C143 O152 1.238 1_545 S
C143 O153 1.279 . S
O144 Co140 2.004 1_545 S
O144 C149 1.259 . S
Co145 O146 2.061 . S
Co145 O151 2.052 . S
Co145 O153 2.135 . S
O146 Co145 2.061 . S
O146 C149 1.235 . S
C147 O150 1.240 . S
C147 O151 1.238 1_565 S
C148 O141 1.247 . S
C148 O142 1.261 . S
C149 O144 1.259 . S
C149 O146 1.235 . S
O150 Co140 2.021 . S
O150 C147 1.240 . S
O151 Co145 2.052 . S
O151 C147 1.238 1_545 S
O152 Co140 2.137 . S
O152 C143 1.238 1_565 S
O153 Co140 2.244 1_545 S
O153 C143 1.279 . S
O153 Co145 2.135 . S
Co154 O155 2.216 . S
Co154 O156 2.091 . S
Co154 O158 2.004 . S
Co154 O164 2.021 . S
Co154 O166 2.137 1_554 S
Co154 O167 2.244 . S
O155 Co154 2.216 . S
O155 C162 1.247 . S
O156 Co154 2.091 . S
O156 C162 1.261 . S
C157 O166 1.247 . S
C157 O167 1.272 1_556 S
O158 Co154 2.004 . S
O158 C163 1.259 . S
Co159 O160 2.061 . S
Co159 O165 2.052 . S
Co159 O167 2.135 . S
O160 Co159 2.061 . S
O160 C163 1.235 . S
C161 O164 1.238 . S
C161 O165 1.241 . S
C162 O155 1.247 . S
C162 O156 1.261 . S
C163 O158 1.259 . S
C163 O160 1.235 . S
O164 Co154 2.021 . S
O164 C161 1.238 . S
O165 Co159 2.052 . S
O165 C161 1.241 . S
O166 Co154 2.137 1_556 S
O166 C157 1.247 . S
O167 Co154 2.244 . S
O167 C157 1.272 1_554 S
O167 Co159 2.135 . S
Co168 O169 2.216 . S
Co168 O170 2.091 . S
Co168 O172 2.004 . S
Co168 O178 2.021 . S
Co168 O180 2.137 1_554 S
Co168 O181 2.244 . S
O169 Co168 2.216 . S
O169 C176 1.247 . S
O170 Co168 2.091 . S
O170 C176 1.261 . S
C171 O180 1.247 . S
C171 O181 1.272 1_556 S
O172 Co168 2.004 . S
O172 C177 1.259 . S
Co173 O174 2.061 . S
Co173 O179 2.052 . S
Co173 O181 2.135 . S
O174 Co173 2.061 . S
O174 C177 1.235 . S
C175 O178 1.238 . S
C175 O179 1.241 . S
C176 O169 1.247 . S
C176 O170 1.261 . S
C177 O172 1.259 . S
C177 O174 1.235 . S
O178 Co168 2.021 . S
O178 C175 1.238 . S
O179 Co173 2.052 . S
O179 C175 1.241 . S
O180 Co168 2.137 1_556 S
O180 C171 1.247 . S
O181 Co168 2.244 . S
O181 C171 1.272 1_554 S
O181 Co173 2.135 . S
Co182 O183 2.217 1_556 S
Co182 O184 2.089 1_556 S
Co182 O186 2.004 . S
Co182 O192 1.995 1_556 S
Co182 O194 2.164 . S
Co182 O195 2.256 . S
O183 Co182 2.217 1_554 S
O183 C190 1.247 . S
O184 Co182 2.089 1_554 S
O184 C190 1.261 . S
C185 O194 1.247 . S
C185 O195 1.272 . S
O186 Co182 2.004 . S
O186 C191 1.259 . S
Co187 O188 2.061 . S
Co187 O193 2.052 . S
Co187 O195 2.135 1_554 S
O188 Co187 2.061 . S
O188 C191 1.235 1_554 S
C189 O192 1.238 . S
C189 O193 1.241 . S
C190 O183 1.247 . S
C190 O184 1.261 . S
C191 O186 1.259 . S
C191 O188 1.235 1_556 S
O192 Co182 1.995 1_554 S
O192 C189 1.238 . S
O193 Co187 2.052 . S
O193 C189 1.241 . S
O194 Co182 2.164 . S
O194 C185 1.247 . S
O195 Co182 2.256 . S
O195 C185 1.272 . S
O195 Co187 2.135 1_556 S
Co196 O197 2.216 . S
Co196 O198 2.091 . S
Co196 O200 2.004 . S
Co196 O206 2.021 . S
Co196 O208 2.137 . S
Co196 O209 2.244 . S
O197 Co196 2.216 . S
O197 C204 1.247 . S
O198 Co196 2.091 . S
O198 C204 1.261 . S
C199 O208 1.247 . S
C199 O209 1.272 . S
O200 Co196 2.004 . S
O200 C205 1.259 . S
Co201 O202 2.061 . S
Co201 O207 2.052 . S
Co201 O209 2.135 . S
O202 Co201 2.061 . S
O202 C205 1.235 . S
C203 O206 1.238 . S
C203 O207 1.241 . S
C204 O197 1.247 . S
C204 O198 1.261 . S
C205 O200 1.259 . S
C205 O202 1.235 . S
O206 Co196 2.021 . S
O206 C203 1.238 . S
O207 Co201 2.052 . S
O207 C203 1.241 . S
O208 Co196 2.137 . S
O208 C199 1.247 . S
O209 Co196 2.244 . S
O209 C199 1.272 . S
O209 Co201 2.135 . S
Co210 O211 2.216 . S
Co210 O212 2.091 . S
Co210 O214 2.004 . S
Co210 O220 2.021 . S
Co210 O222 2.137 . S
Co210 O223 2.244 . S
O211 Co210 2.216 . S
O211 C218 1.247 . S
O212 Co210 2.091 . S
O212 C218 1.261 . S
C213 O222 1.247 . S
C213 O223 1.272 . S
O214 Co210 2.004 . S
O214 C219 1.259 . S
Co215 O216 2.061 . S
Co215 O221 2.052 . S
Co215 O223 2.135 . S
O216 Co215 2.061 . S
O216 C219 1.235 . S
C217 O220 1.238 . S
C217 O221 1.241 . S
C218 O211 1.247 . S
C218 O212 1.261 . S
C219 O214 1.259 . S
C219 O216 1.235 . S
O220 Co210 2.021 . S
O220 C217 1.238 . S
O221 Co215 2.052 . S
O221 C217 1.241 . S
O222 Co210 2.137 . S
O222 C213 1.247 . S
O223 Co210 2.244 . S
O223 C213 1.272 . S
O223 Co215 2.135 . S
Co224 O225 2.216 . S
Co224 O226 2.091 . S
Co224 O228 2.004 . S
Co224 O234 2.021 . S
Co224 O236 2.137 . S
Co224 O237 2.244 . S
O225 Co224 2.216 . S
O225 C232 1.247 . S
O226 Co224 2.091 . S
O226 C232 1.261 . S
C227 O236 1.247 . S
C227 O237 1.272 . S
O228 Co224 2.004 . S
O228 C233 1.259 1_545 S
Co229 O230 2.061 1_545 S
Co229 O235 2.052 . S
Co229 O237 2.135 . S
O230 Co229 2.061 1_565 S
O230 C233 1.235 . S
C231 O234 1.238 . S
C231 O235 1.241 . S
C232 O225 1.247 . S
C232 O226 1.261 . S
C233 O228 1.259 1_565 S
C233 O230 1.235 . S
O234 Co224 2.021 . S
O234 C231 1.238 . S
O235 Co229 2.052 . S
O235 C231 1.241 . S
O236 Co224 2.137 . S
O236 C227 1.247 . S
O237 Co224 2.244 . S
O237 C227 1.272 . S
O237 Co229 2.135 . S
Co238 O239 2.216 . S
Co238 O240 2.091 . S
Co238 O242 2.004 . S
Co238 O248 2.021 . S
Co238 O250 2.137 . S
Co238 O251 2.244 . S
O239 Co238 2.216 . S
O239 C246 1.247 . S
O240 Co238 2.091 . S
O240 C246 1.261 . S
C241 O250 1.247 . S
C241 O251 1.272 . S
O242 Co238 2.004 . S
O242 C247 1.259 . S
Co243 O244 2.061 . S
Co243 O249 2.052 . S
Co243 O251 2.135 . S
O244 Co243 2.061 . S
O244 C247 1.235 . S
C245 O248 1.238 . S
C245 O249 1.241 . S
C246 O239 1.247 . S
C246 O240 1.261 . S
C247 O242 1.259 . S
C247 O244 1.235 . S
O248 Co238 2.021 . S
O248 C245 1.238 . S
O249 Co243 2.052 . S
O249 C245 1.241 . S
O250 Co238 2.137 . S
O250 C241 1.247 . S
O251 Co238 2.244 . S
O251 C241 1.272 . S
O251 Co243 2.135 . S
Co252 O253 2.216 . S
Co252 O254 2.091 . S
Co252 O256 2.004 . S
Co252 O262 2.021 . S
Co252 O264 2.137 . S
Co252 O265 2.244 . S
O253 Co252 2.216 . S
O253 C260 1.247 . S
O254 Co252 2.091 . S
O254 C260 1.261 . S
C255 O264 1.247 . S
C255 O265 1.272 . S
O256 Co252 2.004 . S
O256 C261 1.259 . S
Co257 O258 2.061 . S
Co257 O263 2.052 . S
Co257 O265 2.135 . S
O258 Co257 2.061 . S
O258 C261 1.235 . S
C259 O262 1.238 . S
C259 O263 1.241 . S
C260 O253 1.247 . S
C260 O254 1.261 . S
C261 O256 1.259 . S
C261 O258 1.235 . S
O262 Co252 2.021 . S
O262 C259 1.238 . S
O263 Co257 2.052 . S
O263 C259 1.241 . S
O264 Co252 2.137 . S
O264 C255 1.247 . S
O265 Co252 2.244 . S
O265 C255 1.272 . S
O265 Co257 2.135 . S
Co266 O267 2.215 1_545 S
Co266 O268 2.090 1_545 S
Co266 O270 2.006 . S
Co266 O276 2.021 1_545 S
Co266 O278 2.137 1_545 S
Co266 O279 2.244 . S
O267 Co266 2.215 1_565 S
O267 C274 1.247 . S
O268 Co266 2.090 1_565 S
O268 C274 1.261 . S
C269 O278 1.247 1_545 S
C269 O279 1.272 . S
O270 Co266 2.006 . S
O270 C275 1.259 . S
Co271 O272 2.061 . S
Co271 O277 2.052 . S
Co271 O279 2.135 . S
O272 Co271 2.061 . S
O272 C275 1.235 . S
C273 O276 1.238 1_545 S
C273 O277 1.241 . S
C274 O267 1.247 . S
C274 O268 1.261 . S
C275 O270 1.259 . S
C275 O272 1.235 . S
O276 Co266 2.021 1_565 S
O276 C273 1.238 1_565 S
O277 Co271 2.052 . S
O277 C273 1.241 . S
O278 Co266 2.137 1_565 S
O278 C269 1.247 1_565 S
O279 Co266 2.244 . S
O279 C269 1.272 . S
O279 Co271 2.135 . S
Co280 O281 2.216 1_556 S
Co280 O282 2.092 . S
Co280 O284 2.004 . S
Co280 O290 2.021 1_556 S
Co280 O292 2.137 . S
Co280 O293 2.244 . S
O281 Co280 2.216 1_554 S
O281 C288 1.247 . S
O282 Co280 2.092 . S
O282 C288 1.262 1_556 S
C283 O292 1.247 . S
C283 O293 1.272 . S
O284 Co280 2.004 . S
O284 C289 1.259 . S
Co285 O286 2.061 . S
Co285 O291 2.049 1_556 S
Co285 O293 2.137 . S
O286 Co285 2.061 . S
O286 C289 1.235 . S
C287 O290 1.238 . S
C287 O291 1.241 . S
C288 O281 1.247 . S
C288 O282 1.262 1_554 S
C289 O284 1.259 . S
C289 O286 1.235 . S
O290 Co280 2.021 1_554 S
O290 C287 1.238 . S
O291 Co285 2.049 1_554 S
O291 C287 1.241 . S
O292 Co280 2.137 . S
O292 C283 1.247 . S
O293 Co280 2.244 . S
O293 C283 1.272 . S
O293 Co285 2.137 . S
Co294 O295 2.216 . S
Co294 O296 2.091 . S
Co294 O298 2.004 . S
Co294 O304 2.021 . S
Co294 O306 2.137 . S
Co294 O307 2.244 . S
O295 Co294 2.216 . S
O295 C302 1.247 . S
O296 Co294 2.091 . S
O296 C302 1.261 . S
C297 O306 1.247 . S
C297 O307 1.272 . S
O298 Co294 2.004 . S
O298 C303 1.259 . S
Co299 O300 2.061 . S
Co299 O305 2.052 . S
Co299 O307 2.135 . S
O300 Co299 2.061 . S
O300 C303 1.235 . S
C301 O304 1.238 . S
C301 O305 1.241 . S
C302 O295 1.247 . S
C302 O296 1.261 . S
C303 O298 1.259 . S
C303 O300 1.235 . S
O304 Co294 2.021 . S
O304 C301 1.238 . S
O305 Co299 2.052 . S
O305 C301 1.241 . S
O306 Co294 2.137 . S
O306 C297 1.247 . S
O307 Co294 2.244 . S
O307 C297 1.272 . S
O307 Co299 2.135 . S
Co308 O309 2.216 . S
Co308 O310 2.091 . S
Co308 O312 2.004 . S
Co308 O318 2.021 . S
Co308 O320 2.137 . S
Co308 O321 2.244 . S
O309 Co308 2.216 . S
O309 C316 1.247 . S
O310 Co308 2.091 . S
O310 C316 1.261 . S
C311 O320 1.247 . S
C311 O321 1.272 . S
O312 Co308 2.004 . S
O312 C317 1.259 . S
Co313 O314 2.061 . S
Co313 O319 2.052 . S
Co313 O321 2.135 . S
O314 Co313 2.061 . S
O314 C317 1.235 . S
C315 O318 1.238 . S
C315 O319 1.241 . S
C316 O309 1.247 . S
C316 O310 1.261 . S
C317 O312 1.259 . S
C317 O314 1.235 . S
O318 Co308 2.021 . S
O318 C315 1.238 . S
O319 Co313 2.052 . S
O319 C315 1.241 . S
O320 Co308 2.137 . S
O320 C311 1.247 . S
O321 Co308 2.244 . S
O321 C311 1.272 . S
O321 Co313 2.135 . S
Co322 O323 2.216 . S
Co322 O324 2.091 . S
Co322 O326 2.004 . S
Co322 O332 2.021 . S
Co322 O334 2.137 . S
Co322 O335 2.244 . S
O323 Co322 2.216 . S
O323 C330 1.247 . S
O324 Co322 2.091 . S
O324 C330 1.261 . S
C325 O334 1.247 . S
C325 O335 1.272 . S
O326 Co322 2.004 . S
O326 C331 1.259 . S
Co327 O328 2.061 . S
Co327 O333 2.052 . S
Co327 O335 2.135 . S
O328 Co327 2.061 . S
O328 C331 1.235 . S
C329 O332 1.238 . S
C329 O333 1.241 . S
C330 O323 1.247 . S
C330 O324 1.261 . S
C331 O326 1.259 . S
C331 O328 1.235 . S
O332 Co322 2.021 . S
O332 C329 1.238 . S
O333 Co327 2.052 . S
O333 C329 1.241 . S
O334 Co322 2.137 . S
O334 C325 1.247 . S
O335 Co322 2.244 . S
O335 C325 1.272 . S
O335 Co327 2.135 . S
Tb336 O339 2.453 . S
Tb336 O340 2.596 . S
Tb336 O341 2.374 1_554 S
Tb336 O349 2.343 1_455 S
Tb336 O351 2.353 . S
Tb336 O353 2.427 . S
Tb336 O354 2.513 1_554 S
C337 O341 1.251 . S
C337 O343 1.263 1_545 S
Tb338 O340 2.343 1_665 S
Tb338 O343 2.353 1_654 S
Tb338 O346 2.427 1_655 S
Tb338 O347 2.504 1_655 S
Tb338 O348 2.453 1_564 S
Tb338 O349 2.596 1_565 S
Tb338 O350 2.374 1_565 S
O339 Tb336 2.453 . S
O339 C355 1.245 . S
O340 Tb336 2.596 . S
O340 Tb338 2.343 1_445 S
O340 C355 1.259 . S
O341 Tb336 2.374 1_556 S
O341 C337 1.251 . S
C342 O346 1.275 . S
C342 O347 1.257 . S
O343 C337 1.263 1_565 S
O343 Tb338 2.353 1_456 S
C344 O348 1.245 1_554 S
C344 O349 1.259 . S
C345 O350 1.250 . S
C345 O351 1.263 1_655 S
O346 Tb338 2.427 1_455 S
O346 C342 1.275 . S
O347 Tb338 2.504 1_455 S
O347 C342 1.257 . S
O348 Tb338 2.453 1_546 S
O348 C344 1.245 1_556 S
O349 Tb336 2.343 1_655 S
O349 Tb338 2.596 1_545 S
O349 C344 1.259 . S
O350 Tb338 2.374 1_545 S
O350 C345 1.250 . S
O351 Tb336 2.353 . S
O351 C345 1.263 1_455 S
C352 O353 1.282 . S
C352 O354 1.241 1_554 S
O353 Tb336 2.427 . S
O353 C352 1.282 . S
O354 Tb336 2.513 1_556 S
O354 C352 1.241 1_556 S
C355 O339 1.245 . S
C355 O340 1.259 . S
Tb356 O359 2.453 . S
Tb356 O360 2.596 . S
Tb356 O361 2.374 . S
Tb356 O369 2.343 . S
Tb356 O371 2.353 . S
Tb356 O373 2.427 . S
Tb356 O374 2.513 . S
C357 O361 1.251 . S
C357 O363 1.263 . S
Tb358 O360 2.343 . S
Tb358 O363 2.353 . S
Tb358 O366 2.427 . S
Tb358 O367 2.513 . S
Tb358 O368 2.453 . S
Tb358 O369 2.596 . S
Tb358 O370 2.374 . S
O359 Tb356 2.453 . S
O359 C375 1.245 . S
O360 Tb356 2.596 . S
O360 Tb358 2.343 . S
O360 C375 1.259 . S
O361 Tb356 2.374 . S
O361 C357 1.251 . S
C362 O366 1.275 . S
C362 O367 1.246 . S
O363 C357 1.263 . S
O363 Tb358 2.353 . S
C364 O368 1.245 . S
C364 O369 1.259 . S
C365 O370 1.250 . S
C365 O371 1.263 . S
O366 Tb358 2.427 . S
O366 C362 1.275 . S
O367 Tb358 2.513 . S
O367 C362 1.246 . S
O368 Tb358 2.453 . S
O368 C364 1.245 . S
O369 Tb356 2.343 . S
O369 Tb358 2.596 . S
O369 C364 1.259 . S
O370 Tb358 2.374 . S
O370 C365 1.250 . S
O371 Tb356 2.353 . S
O371 C365 1.263 . S
C372 O373 1.275 . S
C372 O374 1.246 . S
O373 Tb356 2.427 . S
O373 C372 1.275 . S
O374 Tb356 2.513 . S
O374 C372 1.246 . S
C375 O359 1.245 . S
C375 O360 1.259 . S
Tb376 O379 2.453 . S
Tb376 O380 2.596 . S
Tb376 O381 2.374 . S
Tb376 O389 2.343 1_545 S
Tb376 O391 2.353 . S
Tb376 O393 2.427 . S
Tb376 O394 2.513 1_545 S
C377 O381 1.251 . S
C377 O383 1.263 . S
Tb378 O380 2.343 . S
Tb378 O383 2.353 . S
Tb378 O386 2.427 . S
Tb378 O387 2.513 . S
Tb378 O388 2.453 1_545 S
Tb378 O389 2.596 1_545 S
Tb378 O390 2.374 . S
O379 Tb376 2.453 . S
O379 C395 1.245 . S
O380 Tb376 2.596 . S
O380 Tb378 2.343 . S
O380 C395 1.259 . S
O381 Tb376 2.374 . S
O381 C377 1.251 . S
C382 O386 1.275 . S
C382 O387 1.246 . S
O383 C377 1.263 . S
O383 Tb378 2.353 . S
C384 O388 1.245 . S
C384 O389 1.259 . S
C385 O390 1.250 . S
C385 O391 1.263 . S
O386 Tb378 2.427 . S
O386 C382 1.275 . S
O387 Tb378 2.513 . S
O387 C382 1.246 . S
O388 Tb378 2.453 1_565 S
O388 C384 1.245 . S
O389 Tb376 2.343 1_565 S
O389 Tb378 2.596 1_565 S
O389 C384 1.259 . S
O390 Tb378 2.374 . S
O390 C385 1.250 . S
O391 Tb376 2.353 . S
O391 C385 1.263 . S
C392 O393 1.275 1_565 S
C392 O394 1.246 . S
O393 Tb376 2.427 . S
O393 C392 1.275 1_545 S
O394 Tb376 2.513 1_565 S
O394 C392 1.246 . S
C395 O379 1.245 . S
C395 O380 1.259 . S
Tb396 O399 2.453 . S
Tb396 O400 2.596 . S
Tb396 O401 2.374 . S
Tb396 O409 2.343 . S
Tb396 O411 2.353 . S
Tb396 O413 2.427 . S
Tb396 O414 2.513 . S
C397 O401 1.251 . S
C397 O403 1.263 . S
Tb398 O400 2.343 . S
Tb398 O403 2.353 . S
Tb398 O406 2.427 . S
Tb398 O407 2.513 . S
Tb398 O408 2.453 . S
Tb398 O409 2.596 . S
Tb398 O410 2.374 . S
O399 Tb396 2.453 . S
O399 C415 1.245 . S
O400 Tb396 2.596 . S
O400 Tb398 2.343 . S
O400 C415 1.259 . S
O401 Tb396 2.374 . S
O401 C397 1.251 . S
C402 O406 1.275 . S
C402 O407 1.246 . S
O403 C397 1.263 . S
O403 Tb398 2.353 . S
C404 O408 1.245 . S
C404 O409 1.259 . S
C405 O410 1.250 . S
C405 O411 1.263 . S
O406 Tb398 2.427 . S
O406 C402 1.275 . S
O407 Tb398 2.513 . S
O407 C402 1.246 . S
O408 Tb398 2.453 . S
O408 C404 1.245 . S
O409 Tb396 2.343 . S
O409 Tb398 2.596 . S
O409 C404 1.259 . S
O410 Tb398 2.374 . S
O410 C405 1.250 . S
O411 Tb396 2.353 . S
O411 C405 1.263 . S
C412 O413 1.275 . S
C412 O414 1.246 . S
O413 Tb396 2.427 . S
O413 C412 1.275 . S
O414 Tb396 2.513 . S
O414 C412 1.246 . S
C415 O399 1.245 . S
C415 O400 1.259 . S
Tb416 O419 2.453 1_545 S
Tb416 O420 2.596 1_545 S
Tb416 O421 2.374 1_445 S
Tb416 O429 2.343 . S
Tb416 O431 2.353 . S
Tb416 O433 2.427 . S
Tb416 O434 2.513 1_455 S
C417 O421 1.251 1_545 S
C417 O423 1.263 . S
Tb418 O420 2.343 1_545 S
Tb418 O423 2.353 1_455 S
Tb418 O426 2.427 . S
Tb418 O427 2.513 . S
Tb418 O428 2.453 . S
Tb418 O429 2.596 . S
Tb418 O430 2.374 . S
O419 Tb416 2.453 1_565 S
O419 C435 1.245 . S
O420 Tb416 2.596 1_565 S
O420 Tb418 2.343 1_565 S
O420 C435 1.259 . S
O421 Tb416 2.374 1_665 S
O421 C417 1.251 1_565 S
C422 O426 1.275 . S
C422 O427 1.246 . S
O423 C417 1.263 . S
O423 Tb418 2.353 1_655 S
C424 O428 1.245 . S
C424 O429 1.259 . S
C425 O430 1.250 . S
C425 O431 1.263 . S
O426 Tb418 2.427 . S
O426 C422 1.275 . S
O427 Tb418 2.513 . S
O427 C422 1.246 . S
O428 Tb418 2.453 . S
O428 C424 1.245 . S
O429 Tb416 2.343 . S
O429 Tb418 2.596 . S
O429 C424 1.259 . S
O430 Tb418 2.374 . S
O430 C425 1.250 . S
O431 Tb416 2.353 . S
O431 C425 1.263 . S
C432 O433 1.275 1_655 S
C432 O434 1.246 . S
O433 Tb416 2.427 . S
O433 C432 1.275 1_455 S
O434 Tb416 2.513 1_655 S
O434 C432 1.246 . S
C435 O419 1.245 . S
C435 O420 1.259 . S
Tb436 O439 2.453 . S
Tb436 O440 2.596 . S
Tb436 O441 2.374 . S
Tb436 O449 2.343 . S
Tb436 O451 2.353 . S
Tb436 O453 2.427 . S
Tb436 O454 2.513 . S
C437 O441 1.251 . S
C437 O443 1.263 . S
Tb438 O440 2.343 . S
Tb438 O443 2.353 . S
Tb438 O446 2.427 . S
Tb438 O447 2.513 . S
Tb438 O448 2.453 . S
Tb438 O449 2.596 . S
Tb438 O450 2.374 . S
O439 Tb436 2.453 . S
O439 C455 1.245 . S
O440 Tb436 2.596 . S
O440 Tb438 2.343 . S
O440 C455 1.259 . S
O441 Tb436 2.374 . S
O441 C437 1.251 . S
C442 O446 1.275 . S
C442 O447 1.246 . S
O443 C437 1.263 . S
O443 Tb438 2.353 . S
C444 O448 1.245 . S
C444 O449 1.259 . S
C445 O450 1.250 . S
C445 O451 1.263 . S
O446 Tb438 2.427 . S
O446 C442 1.275 . S
O447 Tb438 2.513 . S
O447 C442 1.246 . S
O448 Tb438 2.453 . S
O448 C444 1.245 . S
O449 Tb436 2.343 . S
O449 Tb438 2.596 . S
O449 C444 1.259 . S
O450 Tb438 2.374 . S
O450 C445 1.250 . S
O451 Tb436 2.353 . S
O451 C445 1.263 . S
C452 O453 1.275 . S
C452 O454 1.246 . S
O453 Tb436 2.427 . S
O453 C452 1.275 . S
O454 Tb436 2.513 . S
O454 C452 1.246 . S
C455 O439 1.245 . S
C455 O440 1.259 . S
Tb456 O459 2.453 . S
Tb456 O460 2.596 . S
Tb456 O461 2.374 1_545 S
Tb456 O469 2.343 1_556 S
Tb456 O471 2.353 1_556 S
Tb456 O473 2.427 1_556 S
Tb456 O474 2.513 1_546 S
C457 O461 1.247 1_554 S
C457 O463 1.273 . S
Tb458 O460 2.343 1_554 S
Tb458 O463 2.353 1_545 S
Tb458 O466 2.427 . S
Tb458 O467 2.513 . S
Tb458 O468 2.453 . S
Tb458 O469 2.596 . S
Tb458 O470 2.374 . S
O459 Tb456 2.453 . S
O459 C475 1.245 . S
O460 Tb456 2.596 . S
O460 Tb458 2.343 1_556 S
O460 C475 1.259 . S
O461 Tb456 2.374 1_565 S
O461 C457 1.247 1_556 S
C462 O466 1.275 . S
C462 O467 1.246 . S
O463 C457 1.273 . S
O463 Tb458 2.353 1_565 S
C464 O468 1.245 . S
C464 O469 1.259 . S
C465 O470 1.250 . S
C465 O471 1.263 . S
O466 Tb458 2.427 . S
O466 C462 1.275 . S
O467 Tb458 2.513 . S
O467 C462 1.246 . S
O468 Tb458 2.453 . S
O468 C464 1.245 . S
O469 Tb456 2.343 1_554 S
O469 Tb458 2.596 . S
O469 C464 1.259 . S
O470 Tb458 2.374 . S
O470 C465 1.250 . S
O471 Tb456 2.353 1_554 S
O471 C465 1.263 . S
C472 O473 1.275 . S
C472 O474 1.246 1_545 S
O473 Tb456 2.427 1_554 S
O473 C472 1.275 . S
O474 Tb456 2.513 1_564 S
O474 C472 1.246 1_565 S
C475 O459 1.245 . S
C475 O460 1.259 . S
Tb476 O479 2.453 . S
Tb476 O480 2.596 . S
Tb476 O481 2.374 . S
Tb476 O489 2.343 . S
Tb476 O491 2.353 . S
Tb476 O493 2.427 . S
Tb476 O494 2.513 . S
C477 O481 1.251 . S
C477 O483 1.263 . S
Tb478 O480 2.343 . S
Tb478 O483 2.353 . S
Tb478 O486 2.427 . S
Tb478 O487 2.513 . S
Tb478 O488 2.453 . S
Tb478 O489 2.596 . S
Tb478 O490 2.374 . S
O479 Tb476 2.453 . S
O479 C495 1.245 . S
O480 Tb476 2.596 . S
O480 Tb478 2.343 . S
O480 C495 1.259 . S
O481 Tb476 2.374 . S
O481 C477 1.251 . S
C482 O486 1.275 . S
C482 O487 1.246 . S
O483 C477 1.263 . S
O483 Tb478 2.353 . S
C484 O488 1.245 . S
C484 O489 1.259 . S
C485 O490 1.250 . S
C485 O491 1.263 . S
O486 Tb478 2.427 . S
O486 C482 1.275 . S
O487 Tb478 2.513 . S
O487 C482 1.246 . S
O488 Tb478 2.453 . S
O488 C484 1.245 . S
O489 Tb476 2.343 . S
O489 Tb478 2.596 . S
O489 C484 1.259 . S
O490 Tb478 2.374 . S
O490 C485 1.250 . S
O491 Tb476 2.353 . S
O491 C485 1.263 . S
C492 O493 1.275 . S
C492 O494 1.246 . S
O493 Tb476 2.427 . S
O493 C492 1.275 . S
O494 Tb476 2.513 . S
O494 C492 1.246 . S
C495 O479 1.245 . S
C495 O480 1.259 . S
Tb496 O499 2.453 1_556 S
Tb496 O500 2.596 1_556 S
Tb496 O501 2.374 . S
Tb496 O509 2.343 . S
Tb496 O511 2.353 . S
Tb496 O513 2.427 . S
Tb496 O514 2.513 . S
C497 O501 1.250 1_554 S
C497 O503 1.263 . S
Tb498 O500 2.343 . S
Tb498 O503 2.353 . S
Tb498 O506 2.427 . S
Tb498 O507 2.513 . S
Tb498 O508 2.453 . S
Tb498 O509 2.596 1_554 S
Tb498 O510 2.374 . S
O499 Tb496 2.453 1_554 S
O499 C515 1.245 . S
O500 Tb496 2.596 1_554 S
O500 Tb498 2.343 . S
O500 C515 1.259 . S
O501 Tb496 2.374 . S
O501 C497 1.250 1_556 S
C502 O506 1.275 . S
C502 O507 1.246 . S
O503 C497 1.263 . S
O503 Tb498 2.353 . S
C504 O508 1.245 . S
C504 O509 1.259 1_554 S
C505 O510 1.250 . S
C505 O511 1.263 1_554 S
O506 Tb498 2.427 . S
O506 C502 1.275 . S
O507 Tb498 2.513 . S
O507 C502 1.246 . S
O508 Tb498 2.453 . S
O508 C504 1.245 . S
O509 Tb496 2.343 . S
O509 Tb498 2.596 1_556 S
O509 C504 1.259 1_556 S
O510 Tb498 2.374 . S
O510 C505 1.250 . S
O511 Tb496 2.353 . S
O511 C505 1.263 1_556 S
C512 O513 1.275 . S
C512 O514 1.246 . S
O513 Tb496 2.427 . S
O513 C512 1.275 . S
O514 Tb496 2.513 . S
O514 C512 1.246 . S
C515 O499 1.245 . S
C515 O500 1.259 . S
Tb516 O519 2.453 . S
Tb516 O520 2.596 . S
Tb516 O521 2.374 . S
Tb516 O529 2.343 . S
Tb516 O531 2.353 . S
Tb516 O533 2.427 . S
Tb516 O534 2.513 . S
C517 O521 1.251 . S
C517 O523 1.263 . S
Tb518 O520 2.343 . S
Tb518 O523 2.353 . S
Tb518 O526 2.427 . S
Tb518 O527 2.513 . S
Tb518 O528 2.453 . S
Tb518 O529 2.596 . S
Tb518 O530 2.374 . S
O519 Tb516 2.453 . S
O519 C535 1.245 . S
O520 Tb516 2.596 . S
O520 Tb518 2.343 . S
O520 C535 1.259 . S
O521 Tb516 2.374 . S
O521 C517 1.251 . S
C522 O526 1.275 . S
C522 O527 1.246 . S
O523 C517 1.263 . S
O523 Tb518 2.353 . S
C524 O528 1.245 . S
C524 O529 1.259 . S
C525 O530 1.250 . S
C525 O531 1.263 . S
O526 Tb518 2.427 . S
O526 C522 1.275 . S
O527 Tb518 2.513 . S
O527 C522 1.246 . S
O528 Tb518 2.453 . S
O528 C524 1.245 . S
O529 Tb516 2.343 . S
O529 Tb518 2.596 . S
O529 C524 1.259 . S
O530 Tb518 2.374 . S
O530 C525 1.250 . S
O531 Tb516 2.353 . S
O531 C525 1.263 . S
C532 O533 1.275 . S
C532 O534 1.246 . S
O533 Tb516 2.427 . S
O533 C532 1.275 . S
O534 Tb516 2.513 . S
O534 C532 1.246 . S
C535 O519 1.245 . S
C535 O520 1.259 . S
Tb536 O539 2.453 . S
Tb536 O540 2.596 1_655 S
Tb536 O541 2.374 . S
Tb536 O549 2.343 . S
Tb536 O551 2.353 . S
Tb536 O553 2.427 . S
Tb536 O554 2.513 . S
C537 O541 1.251 1_455 S
C537 O543 1.263 . S
Tb538 O540 2.343 . S
Tb538 O543 2.353 . S
Tb538 O546 2.427 . S
Tb538 O547 2.513 . S
Tb538 O548 2.453 . S
Tb538 O549 2.596 1_455 S
Tb538 O550 2.374 . S
O539 Tb536 2.453 . S
O539 C555 1.245 1_655 S
O540 Tb536 2.596 1_455 S
O540 Tb538 2.343 . S
O540 C555 1.259 . S
O541 Tb536 2.374 . S
O541 C537 1.251 1_655 S
C542 O546 1.275 . S
C542 O547 1.246 . S
O543 C537 1.263 . S
O543 Tb538 2.353 . S
C544 O548 1.245 1_655 S
C544 O549 1.259 . S
C545 O550 1.250 . S
C545 O551 1.263 1_455 S
O546 Tb538 2.427 . S
O546 C542 1.275 . S
O547 Tb538 2.513 . S
O547 C542 1.246 . S
O548 Tb538 2.453 . S
O548 C544 1.245 1_455 S
O549 Tb536 2.343 . S
O549 Tb538 2.596 1_655 S
O549 C544 1.259 . S
O550 Tb538 2.374 . S
O550 C545 1.250 . S
O551 Tb536 2.353 . S
O551 C545 1.263 1_655 S
C552 O553 1.275 . S
C552 O554 1.246 . S
O553 Tb536 2.427 . S
O553 C552 1.275 . S
O554 Tb536 2.513 . S
O554 C552 1.246 . S
C555 O539 1.245 1_455 S
C555 O540 1.259 . S
Tb556 O559 2.453 . S
Tb556 O560 2.596 . S
Tb556 O561 2.374 . S
Tb556 O569 2.343 . S
Tb556 O571 2.353 . S
Tb556 O573 2.427 . S
Tb556 O574 2.513 . S
C557 O561 1.251 . S
C557 O563 1.263 . S
Tb558 O560 2.343 . S
Tb558 O563 2.353 . S
Tb558 O566 2.427 . S
Tb558 O567 2.513 . S
Tb558 O568 2.453 . S
Tb558 O569 2.596 . S
Tb558 O570 2.374 . S
O559 Tb556 2.453 . S
O559 C575 1.245 . S
O560 Tb556 2.596 . S
O560 Tb558 2.343 . S
O560 C575 1.259 . S
O561 Tb556 2.374 . S
O561 C557 1.251 . S
C562 O566 1.275 . S
C562 O567 1.246 . S
O563 C557 1.263 . S
O563 Tb558 2.353 . S
C564 O568 1.245 . S
C564 O569 1.259 . S
C565 O570 1.250 . S
C565 O571 1.263 . S
O566 Tb558 2.427 . S
O566 C562 1.275 . S
O567 Tb558 2.513 . S
O567 C562 1.246 . S
O568 Tb558 2.453 . S
O568 C564 1.245 . S
O569 Tb556 2.343 . S
O569 Tb558 2.596 . S
O569 C564 1.259 . S
O570 Tb558 2.374 . S
O570 C565 1.250 . S
O571 Tb556 2.353 . S
O571 C565 1.263 . S
C572 O573 1.275 . S
C572 O574 1.246 . S
O573 Tb556 2.427 . S
O573 C572 1.275 . S
O574 Tb556 2.513 . S
O574 C572 1.246 . S
C575 O559 1.245 . S
C575 O560 1.259 . S
Tb576 O579 2.453 . S
Tb576 O580 2.596 . S
Tb576 O581 2.374 . S
Tb576 O589 2.343 . S
Tb576 O591 2.353 . S
Tb576 O593 2.427 . S
Tb576 O594 2.513 . S
C577 O581 1.251 . S
C577 O583 1.263 . S
Tb578 O580 2.343 . S
Tb578 O583 2.353 . S
Tb578 O586 2.427 . S
Tb578 O587 2.513 . S
Tb578 O588 2.453 . S
Tb578 O589 2.596 . S
Tb578 O590 2.374 . S
O579 Tb576 2.453 . S
O579 C595 1.245 . S
O580 Tb576 2.596 . S
O580 Tb578 2.343 . S
O580 C595 1.259 . S
O581 Tb576 2.374 . S
O581 C577 1.251 . S
C582 O586 1.275 . S
C582 O587 1.246 . S
O583 C577 1.263 . S
O583 Tb578 2.353 . S
C584 O588 1.245 . S
C584 O589 1.259 . S
C585 O590 1.250 . S
C585 O591 1.263 . S
O586 Tb578 2.427 . S
O586 C582 1.275 . S
O587 Tb578 2.513 . S
O587 C582 1.246 . S
O588 Tb578 2.453 . S
O588 C584 1.245 . S
O589 Tb576 2.343 . S
O589 Tb578 2.596 . S
O589 C584 1.259 . S
O590 Tb578 2.374 . S
O590 C585 1.250 . S
O591 Tb576 2.353 . S
O591 C585 1.263 . S
C592 O593 1.275 . S
C592 O594 1.246 . S
O593 Tb576 2.427 . S
O593 C592 1.275 . S
O594 Tb576 2.513 . S
O594 C592 1.246 . S
C595 O579 1.245 . S
C595 O580 1.259 . S
Tb596 O599 2.453 . S
Tb596 O600 2.596 . S
Tb596 O601 2.374 . S
Tb596 O609 2.343 . S
Tb596 O611 2.353 . S
Tb596 O613 2.427 . S
Tb596 O614 2.513 . S
C597 O601 1.251 . S
C597 O603 1.263 . S
Tb598 O600 2.343 . S
Tb598 O603 2.353 . S
Tb598 O606 2.427 . S
Tb598 O607 2.513 . S
Tb598 O608 2.453 . S
Tb598 O609 2.596 . S
Tb598 O610 2.374 . S
O599 Tb596 2.453 . S
O599 C615 1.245 . S
O600 Tb596 2.596 . S
O600 Tb598 2.343 . S
O600 C615 1.259 . S
O601 Tb596 2.374 . S
O601 C597 1.251 . S
C602 O606 1.275 . S
C602 O607 1.246 . S
O603 C597 1.263 . S
O603 Tb598 2.353 . S
C604 O608 1.245 . S
C604 O609 1.259 . S
C605 O610 1.250 . S
C605 O611 1.263 . S
O606 Tb598 2.427 . S
O606 C602 1.275 . S
O607 Tb598 2.513 . S
O607 C602 1.246 . S
O608 Tb598 2.453 . S
O608 C604 1.245 . S
O609 Tb596 2.343 . S
O609 Tb598 2.596 . S
O609 C604 1.259 . S
O610 Tb598 2.374 . S
O610 C605 1.250 . S
O611 Tb596 2.353 . S
O611 C605 1.263 . S
C612 O613 1.275 . S
C612 O614 1.246 . S
O613 Tb596 2.427 . S
O613 C612 1.275 . S
O614 Tb596 2.513 . S
O614 C612 1.246 . S
C615 O599 1.245 . S
C615 O600 1.259 . S
Tb616 O619 2.453 . S
Tb616 O620 2.596 . S
Tb616 O621 2.374 . S
Tb616 O629 2.343 . S
Tb616 O631 2.353 . S
Tb616 O633 2.427 . S
Tb616 O634 2.513 . S
C617 O621 1.251 . S
C617 O623 1.263 . S
Tb618 O620 2.343 . S
Tb618 O623 2.353 . S
Tb618 O626 2.427 . S
Tb618 O627 2.513 . S
Tb618 O628 2.453 . S
Tb618 O629 2.596 . S
Tb618 O630 2.374 . S
O619 Tb616 2.453 . S
O619 C635 1.245 . S
O620 Tb616 2.596 . S
O620 Tb618 2.343 . S
O620 C635 1.259 . S
O621 Tb616 2.374 . S
O621 C617 1.251 . S
C622 O626 1.275 . S
C622 O627 1.246 . S
O623 C617 1.263 . S
O623 Tb618 2.353 . S
C624 O628 1.245 . S
C624 O629 1.259 . S
C625 O630 1.250 . S
C625 O631 1.263 . S
O626 Tb618 2.427 . S
O626 C622 1.275 . S
O627 Tb618 2.513 . S
O627 C622 1.246 . S
O628 Tb618 2.453 . S
O628 C624 1.245 . S
O629 Tb616 2.343 . S
O629 Tb618 2.596 . S
O629 C624 1.259 . S
O630 Tb618 2.374 . S
O630 C625 1.250 . S
O631 Tb616 2.353 . S
O631 C625 1.263 . S
C632 O633 1.275 . S
C632 O634 1.246 . S
O633 Tb616 2.427 . S
O633 C632 1.275 . S
O634 Tb616 2.513 . S
O634 C632 1.246 . S
C635 O619 1.245 . S
C635 O620 1.259 . S
Tb636 O639 2.453 . S
Tb636 O640 2.596 . S
Tb636 O641 2.374 . S
Tb636 O649 2.343 . S
Tb636 O651 2.353 1_554 S
Tb636 O653 2.427 1_554 S
Tb636 O654 2.513 . S
C637 O641 1.251 . S
C637 O643 1.263 1_455 S
Tb638 O640 2.343 1_655 S
Tb638 O643 2.353 . S
Tb638 O646 2.427 . S
Tb638 O647 2.513 . S
Tb638 O648 2.453 . S
Tb638 O649 2.596 1_655 S
Tb638 O650 2.374 1_554 S
O639 Tb636 2.453 . S
O639 C655 1.245 . S
O640 Tb636 2.596 . S
O640 Tb638 2.343 1_455 S
O640 C655 1.259 . S
O641 Tb636 2.374 . S
O641 C637 1.251 . S
C642 O646 1.275 . S
C642 O647 1.246 . S
O643 C637 1.263 1_655 S
O643 Tb638 2.353 . S
C644 O648 1.245 1_556 S
C644 O649 1.259 1_656 S
C645 O650 1.250 . S
C645 O651 1.263 1_655 S
O646 Tb638 2.427 . S
O646 C642 1.275 . S
O647 Tb638 2.513 . S
O647 C642 1.246 . S
O648 Tb638 2.453 . S
O648 C644 1.245 1_554 S
O649 Tb636 2.343 . S
O649 Tb638 2.596 1_455 S
O649 C644 1.259 1_454 S
O650 Tb638 2.374 1_556 S
O650 C645 1.250 . S
O651 Tb636 2.353 1_556 S
O651 C645 1.263 1_455 S
C652 O653 1.278 . S
C652 O654 1.241 1_556 S
O653 Tb636 2.427 1_556 S
O653 C652 1.278 . S
O654 Tb636 2.513 . S
O654 C652 1.241 1_554 S
C655 O639 1.245 . S
C655 O640 1.259 . S
C656 C657 1.387 1_655 S
C656 H660 0.950 . S
C656 C665 1.390 . S
C657 C656 1.387 1_455 S
C657 C659 1.387 . S
H658 C665 0.950 . S
C659 C657 1.387 . S
C659 C661 1.390 . S
C659 H663 0.950 . S
H660 C656 0.950 . S
C661 C659 1.390 . S
C661 C662 1.387 . S
C661 H664 0.950 . S
C662 C661 1.387 . S
C662 C665 1.387 1_455 S
H663 C659 0.950 . S
H664 C661 0.950 . S
C665 C656 1.390 . S
C665 H658 0.950 . S
C665 C662 1.387 1_655 S
C666 C667 1.387 . S
C666 H670 0.950 . S
C666 C675 1.390 . S
C667 C666 1.387 . S
C667 C669 1.387 . S
H668 C675 0.950 . S
C669 C667 1.387 . S
C669 C671 1.390 . S
C669 H673 0.950 . S
H670 C666 0.950 . S
C671 C669 1.390 . S
C671 C672 1.387 . S
C671 H674 0.950 . S
C672 C671 1.387 . S
C672 C675 1.387 . S
H673 C669 0.950 . S
H674 C671 0.950 . S
C675 C666 1.390 . S
C675 H668 0.950 . S
C675 C672 1.387 . S
C676 C677 1.387 . S
C676 H680 0.950 . S
C676 C685 1.390 . S
C677 C676 1.387 . S
C677 C679 1.387 . S
H678 C685 0.950 . S
C679 C677 1.387 . S
C679 C681 1.390 . S
C679 H683 0.950 . S
H680 C676 0.950 . S
C681 C679 1.390 . S
C681 C682 1.387 . S
C681 H684 0.950 . S
C682 C681 1.387 . S
C682 C685 1.387 . S
H683 C679 0.950 . S
H684 C681 0.950 . S
C685 C676 1.390 . S
C685 H678 0.950 . S
C685 C682 1.387 . S
C686 C687 1.387 . S
C686 H690 0.950 . S
C686 C695 1.390 . S
C687 C686 1.387 . S
C687 C689 1.387 . S
H688 C695 0.950 . S
C689 C687 1.387 . S
C689 C691 1.390 . S
C689 H693 0.950 . S
H690 C686 0.950 . S
C691 C689 1.390 . S
C691 C692 1.387 . S
C691 H694 0.950 . S
C692 C691 1.387 . S
C692 C695 1.387 . S
H693 C689 0.950 . S
H694 C691 0.950 . S
C695 C686 1.390 . S
C695 H688 0.950 . S
C695 C692 1.387 . S
C696 C697 1.387 1_655 S
C696 H700 0.950 . S
C696 C705 1.390 . S
C697 C696 1.387 1_455 S
C697 C699 1.387 . S
H698 C705 0.950 . S
C699 C697 1.387 . S
C699 C701 1.390 . S
C699 H703 0.950 . S
H700 C696 0.950 . S
C701 C699 1.390 . S
C701 C702 1.387 . S
C701 H704 0.950 . S
C702 C701 1.387 . S
C702 C705 1.387 1_455 S
H703 C699 0.950 . S
H704 C701 0.950 . S
C705 C696 1.390 . S
C705 H698 0.950 . S
C705 C702 1.387 1_655 S
C706 C707 1.387 . S
C706 H710 0.950 . S
C706 C715 1.390 . S
C707 C706 1.387 . S
C707 C709 1.387 . S
H708 C715 0.950 . S
C709 C707 1.387 . S
C709 C711 1.390 . S
C709 H713 0.950 . S
H710 C706 0.950 . S
C711 C709 1.390 . S
C711 C712 1.387 . S
C711 H714 0.950 . S
C712 C711 1.387 . S
C712 C715 1.387 . S
H713 C709 0.950 . S
H714 C711 0.950 . S
C715 C706 1.390 . S
C715 H708 0.950 . S
C715 C712 1.387 . S
C716 C717 1.387 . S
C716 H720 0.950 . S
C716 C725 1.390 . S
C717 C716 1.387 . S
C717 C719 1.387 . S
H718 C725 0.950 . S
C719 C717 1.387 . S
C719 C721 1.390 . S
C719 H723 0.950 . S
H720 C716 0.950 . S
C721 C719 1.390 . S
C721 C722 1.387 . S
C721 H724 0.950 . S
C722 C721 1.387 . S
C722 C725 1.387 . S
H723 C719 0.950 . S
H724 C721 0.950 . S
C725 C716 1.390 . S
C725 H718 0.950 . S
C725 C722 1.387 . S
C726 C727 1.387 . S
C726 H730 0.950 . S
C726 C735 1.390 . S
C727 C726 1.387 . S
C727 C729 1.387 . S
H728 C735 0.950 . S
C729 C727 1.387 . S
C729 C731 1.390 . S
C729 H733 0.950 . S
H730 C726 0.950 . S
C731 C729 1.390 . S
C731 C732 1.387 . S
C731 H734 0.950 . S
C732 C731 1.387 . S
C732 C735 1.387 . S
H733 C729 0.950 . S
H734 C731 0.950 . S
C735 C726 1.390 . S
C735 H728 0.950 . S
C735 C732 1.387 . S
C736 C737 1.387 . S
C736 H740 0.950 . S
C736 C745 1.390 . S
C737 C736 1.387 . S
C737 C739 1.387 . S
H738 C745 0.950 . S
C739 C737 1.387 . S
C739 C741 1.390 . S
C739 H743 0.950 . S
H740 C736 0.950 . S
C741 C739 1.390 . S
C741 C742 1.387 . S
C741 H744 0.950 . S
C742 C741 1.387 . S
C742 C745 1.387 . S
H743 C739 0.950 . S
H744 C741 0.950 . S
C745 C736 1.390 . S
C745 H738 0.950 . S
C745 C742 1.387 . S
C746 C747 1.387 . S
C746 H750 0.950 . S
C746 C755 1.390 . S
C747 C746 1.387 . S
C747 C749 1.387 . S
H748 C755 0.950 . S
C749 C747 1.387 . S
C749 C751 1.390 . S
C749 H753 0.950 . S
H750 C746 0.950 . S
C751 C749 1.390 . S
C751 C752 1.387 . S
C751 H754 0.950 . S
C752 C751 1.387 . S
C752 C755 1.387 . S
H753 C749 0.950 . S
H754 C751 0.950 . S
C755 C746 1.390 . S
C755 H748 0.950 . S
C755 C752 1.387 . S
C756 C757 1.387 1_565 S
C756 H760 0.950 . S
C756 C765 1.390 . S
C757 C756 1.387 1_545 S
C757 C759 1.387 . S
H758 C765 0.950 . S
C759 C757 1.387 . S
C759 C761 1.390 . S
C759 H763 0.950 . S
H760 C756 0.950 . S
C761 C759 1.390 . S
C761 C762 1.387 . S
C761 H764 0.950 . S
C762 C761 1.387 . S
C762 C765 1.387 1_545 S
H763 C759 0.950 . S
H764 C761 0.950 . S
C765 C756 1.390 . S
C765 H758 0.950 . S
C765 C762 1.387 1_565 S
C766 C767 1.387 . S
C766 H770 0.950 . S
C766 C775 1.390 . S
C767 C766 1.387 . S
C767 C769 1.387 . S
H768 C775 0.950 . S
C769 C767 1.387 . S
C769 C771 1.390 . S
C769 H773 0.950 . S
H770 C766 0.950 . S
C771 C769 1.390 . S
C771 C772 1.387 . S
C771 H774 0.950 . S
C772 C771 1.387 . S
C772 C775 1.387 . S
H773 C769 0.950 . S
H774 C771 0.950 . S
C775 C766 1.390 . S
C775 H768 0.950 . S
C775 C772 1.387 . S
C776 C777 1.387 . S
C776 H780 0.950 . S
C776 C785 1.390 . S
C777 C776 1.387 . S
C777 C779 1.387 . S
H778 C785 0.942 1_565 S
C779 C777 1.387 . S
C779 C781 1.390 . S
C779 H783 0.950 . S
H780 C776 0.950 . S
C781 C779 1.390 . S
C781 C782 1.387 . S
C781 H784 0.950 . S
C782 C781 1.387 . S
C782 C785 1.387 . S
H783 C779 0.950 . S
H784 C781 0.950 . S
C785 C776 1.390 . S
C785 H778 0.942 1_545 S
C785 C782 1.387 . S
C786 C787 1.387 . S
C786 H790 0.950 . S
C786 C795 1.390 . S
C787 C786 1.387 . S
C787 C789 1.387 . S
H788 C795 0.950 . S
C789 C787 1.387 . S
C789 C791 1.390 . S
C789 H793 0.950 . S
H790 C786 0.950 . S
C791 C789 1.390 . S
C791 C792 1.387 . S
C791 H794 0.950 . S
C792 C791 1.387 . S
C792 C795 1.387 . S
H793 C789 0.950 . S
H794 C791 0.950 . S
C795 C786 1.390 . S
C795 H788 0.950 . S
C795 C792 1.387 . S
C796 C797 1.387 . S
C796 H800 0.950 . S
C796 C805 1.390 . S
C797 C796 1.387 . S
C797 C799 1.387 1_545 S
H798 C805 0.950 . S
C799 C797 1.387 1_565 S
C799 C801 1.399 . S
C799 H803 0.950 . S
H800 C796 0.950 . S
C801 C799 1.399 . S
C801 C802 1.359 1_565 S
C801 H804 0.969 . S
C802 C801 1.359 1_545 S
C802 C805 1.387 . S
H803 C799 0.950 . S
H804 C801 0.969 . S
C805 C796 1.390 . S
C805 H798 0.950 . S
C805 C802 1.387 . S
C806 C807 1.387 . S
C806 H810 0.950 . S
C806 C815 1.390 . S
C807 C806 1.387 . S
C807 C809 1.387 . S
H808 C815 0.950 . S
C809 C807 1.387 . S
C809 C811 1.390 . S
C809 H813 0.950 . S
H810 C806 0.950 . S
C811 C809 1.390 . S
C811 C812 1.387 . S
C811 H814 0.950 . S
C812 C811 1.387 . S
C812 C815 1.387 . S
H813 C809 0.950 . S
H814 C811 0.950 . S
C815 C806 1.390 . S
C815 H808 0.950 . S
C815 C812 1.387 . S
C816 C817 1.387 . S
C816 H820 0.950 . S
C816 C825 1.390 . S
C817 C816 1.387 . S
C817 C819 1.387 . S
H818 C825 0.950 . S
C819 C817 1.387 . S
C819 C821 1.390 . S
C819 H823 0.950 1_554 S
H820 C816 0.950 . S
C821 C819 1.390 . S
C821 C822 1.387 . S
C821 H824 0.950 1_554 S
C822 C821 1.387 . S
C822 C825 1.387 . S
H823 C819 0.950 1_556 S
H824 C821 0.950 1_556 S
C825 C816 1.390 . S
C825 H818 0.950 . S
C825 C822 1.387 . S
C826 C827 1.387 1_554 S
C826 H830 0.950 . S
C826 C835 1.390 . S
C827 C826 1.387 1_556 S
C827 C829 1.387 . S
H828 C835 0.950 . S
C829 C827 1.387 . S
C829 C831 1.390 . S
C829 H833 0.950 . S
H830 C826 0.950 . S
C831 C829 1.390 . S
C831 C832 1.392 . S
C831 H834 0.950 . S
C832 C831 1.392 . S
C832 C835 1.385 1_556 S
H833 C829 0.950 . S
H834 C831 0.950 . S
C835 C826 1.390 . S
C835 H828 0.950 . S
C835 C832 1.385 1_554 S
C836 C837 1.387 . S
C836 H840 0.950 . S
C836 C845 1.390 . S
C837 C836 1.387 . S
C837 C839 1.387 . S
H838 C845 0.950 . S
C839 C837 1.387 . S
C839 C841 1.390 . S
C839 H843 0.950 . S
H840 C836 0.950 . S
C841 C839 1.390 . S
C841 C842 1.387 . S
C841 H844 0.950 . S
C842 C841 1.387 . S
C842 C845 1.387 . S
H843 C839 0.950 . S
H844 C841 0.950 . S
C845 C836 1.390 . S
C845 H838 0.950 . S
C845 C842 1.387 . S
C846 C847 1.387 . S
C846 H850 0.950 . S
C846 C855 1.390 . S
C847 C846 1.387 . S
C847 C849 1.387 . S
H848 C855 0.950 . S
C849 C847 1.387 . S
C849 C851 1.390 . S
C849 H853 0.950 . S
H850 C846 0.950 . S
C851 C849 1.390 . S
C851 C852 1.387 . S
C851 H854 0.950 . S
C852 C851 1.387 . S
C852 C855 1.387 . S
H853 C849 0.950 . S
H854 C851 0.950 . S
C855 C846 1.390 . S
C855 H848 0.950 . S
C855 C852 1.387 . S
C856 C857 1.387 . S
C856 H860 0.950 . S
C856 C865 1.390 . S
C857 C856 1.387 . S
C857 C859 1.387 . S
H858 C865 0.950 . S
C859 C857 1.387 . S
C859 C861 1.390 . S
C859 H863 0.950 . S
H860 C856 0.950 . S
C861 C859 1.390 . S
C861 C862 1.387 . S
C861 H864 0.950 . S
C862 C861 1.387 . S
C862 C865 1.387 . S
H863 C859 0.950 . S
H864 C861 0.950 . S
C865 C856 1.390 . S
C865 H858 0.950 . S
C865 C862 1.387 . S
C866 C867 1.387 . S
C866 H870 0.950 . S
C866 C875 1.390 . S
C867 C866 1.387 . S
C867 C869 1.387 . S
H868 C875 0.950 . S
C869 C867 1.387 . S
C869 C871 1.390 . S
C869 H873 0.950 . S
H870 C866 0.950 . S
C871 C869 1.390 . S
C871 C872 1.387 . S
C871 H874 0.950 . S
C872 C871 1.387 . S
C872 C875 1.387 . S
H873 C869 0.950 . S
H874 C871 0.950 . S
C875 C866 1.390 . S
C875 H868 0.950 . S
C875 C872 1.387 . S
C876 C877 1.387 . S
C876 H880 0.950 . S
C876 C885 1.390 . S
C877 C876 1.387 . S
C877 C879 1.387 . S
H878 C885 0.950 . S
C879 C877 1.387 . S
C879 C881 1.390 . S
C879 H883 0.950 . S
H880 C876 0.950 . S
C881 C879 1.390 . S
C881 C882 1.387 . S
C881 H884 0.950 . S
C882 C881 1.387 . S
C882 C885 1.387 . S
H883 C879 0.950 . S
H884 C881 0.950 . S
C885 C876 1.390 . S
C885 H878 0.950 . S
C885 C882 1.387 . S
C886 C887 1.387 . S
C886 H890 0.950 . S
C886 C895 1.390 . S
C887 C886 1.387 . S
C887 C889 1.387 . S
H888 C895 0.950 . S
C889 C887 1.387 . S
C889 C891 1.390 . S
C889 H893 0.950 . S
H890 C886 0.950 . S
C891 C889 1.390 . S
C891 C892 1.387 . S
C891 H894 0.950 . S
C892 C891 1.387 . S
C892 C895 1.387 . S
H893 C889 0.950 . S
H894 C891 0.950 . S
C895 C886 1.390 . S
C895 H888 0.950 . S
C895 C892 1.387 . S
C896 C897 1.387 1_655 S
C896 H900 0.950 . S
C896 C905 1.390 . S
C897 C896 1.387 1_455 S
C897 C899 1.387 . S
H898 C905 0.950 . S
C899 C897 1.387 . S
C899 C901 1.390 . S
C899 H903 0.950 . S
H900 C896 0.950 . S
C901 C899 1.390 . S
C901 C902 1.387 . S
C901 H904 0.950 . S
C902 C901 1.387 . S
C902 C905 1.387 1_455 S
H903 C899 0.950 . S
H904 C901 0.950 . S
C905 C896 1.390 . S
C905 H898 0.950 . S
C905 C902 1.387 1_655 S
C906 C907 1.387 . S
C906 H910 0.950 . S
C906 C915 1.390 . S
C907 C906 1.387 . S
C907 C909 1.387 . S
H908 C915 0.950 . S
C909 C907 1.387 . S
C909 C911 1.390 . S
C909 H913 0.950 . S
H910 C906 0.950 . S
C911 C909 1.390 . S
C911 C912 1.387 . S
C911 H914 0.950 . S
C912 C911 1.387 . S
C912 C915 1.387 . S
H913 C909 0.950 . S
H914 C911 0.950 . S
C915 C906 1.390 . S
C915 H908 0.950 . S
C915 C912 1.387 . S
C916 C917 1.387 . S
C916 H920 0.950 . S
C916 C925 1.390 . S
C917 C916 1.387 . S
C917 C919 1.387 . S
H918 C925 0.950 . S
C919 C917 1.387 . S
C919 C921 1.390 . S
C919 H923 0.950 . S
H920 C916 0.950 . S
C921 C919 1.390 . S
C921 C922 1.387 . S
C921 H924 0.950 . S
C922 C921 1.387 . S
C922 C925 1.387 . S
H923 C919 0.950 . S
H924 C921 0.950 . S
C925 C916 1.390 . S
C925 H918 0.950 . S
C925 C922 1.387 . S
C926 C927 1.387 . S
C926 H930 0.950 . S
C926 C935 1.390 . S
C927 C926 1.387 . S
C927 C929 1.387 . S
H928 C935 0.950 . S
C929 C927 1.387 . S
C929 C931 1.390 . S
C929 H933 0.950 . S
H930 C926 0.950 . S
C931 C929 1.390 . S
C931 C932 1.387 . S
C931 H934 0.950 . S
C932 C931 1.387 . S
C932 C935 1.387 . S
H933 C929 0.950 . S
H934 C931 0.950 . S
C935 C926 1.390 . S
C935 H928 0.950 . S
C935 C932 1.387 . S
C936 C937 1.387 . S
C936 H940 0.950 . S
C936 C945 1.390 . S
C937 C936 1.387 . S
C937 C939 1.387 1_455 S
H938 C945 0.950 . S
C939 C937 1.387 1_655 S
C939 C941 1.390 . S
C939 H943 0.950 . S
H940 C936 0.950 . S
C941 C939 1.390 . S
C941 C942 1.387 1_655 S
C941 H944 0.950 . S
C942 C941 1.387 1_455 S
C942 C945 1.387 . S
H943 C939 0.950 . S
H944 C941 0.950 . S
C945 C936 1.390 . S
C945 H938 0.950 . S
C945 C942 1.387 . S
C946 C947 1.387 . S
C946 H950 0.950 . S
C946 C955 1.390 . S
C947 C946 1.387 . S
C947 C949 1.387 . S
H948 C955 0.950 . S
C949 C947 1.387 . S
C949 C951 1.390 . S
C949 H953 0.950 . S
H950 C946 0.950 . S
C951 C949 1.390 . S
C951 C952 1.387 . S
C951 H954 0.950 . S
C952 C951 1.387 . S
C952 C955 1.387 . S
H953 C949 0.950 . S
H954 C951 0.950 . S
C955 C946 1.390 . S
C955 H948 0.950 . S
C955 C952 1.387 . S
C956 C957 1.387 . S
C956 H960 0.950 . S
C956 C965 1.390 . S
C957 C956 1.387 . S
C957 C959 1.387 . S
H958 C965 0.950 1_554 S
C959 C957 1.387 . S
C959 C961 1.390 . S
C959 H963 0.950 . S
H960 C956 0.950 . S
C961 C959 1.390 . S
C961 C962 1.387 . S
C961 H964 0.950 . S
C962 C961 1.387 . S
C962 C965 1.387 . S
H963 C959 0.950 . S
H964 C961 0.950 . S
C965 C956 1.390 . S
C965 H958 0.950 1_556 S
C965 C962 1.387 . S
C966 C967 1.387 . S
C966 H970 0.950 . S
C966 C975 1.390 . S
C967 C966 1.387 . S
C967 C969 1.387 . S
H968 C975 0.950 . S
C969 C967 1.387 . S
C969 C971 1.390 . S
C969 H973 0.950 . S
H970 C966 0.950 . S
C971 C969 1.390 . S
C971 C972 1.387 . S
C971 H974 0.950 . S
C972 C971 1.387 . S
C972 C975 1.387 . S
H973 C969 0.950 . S
H974 C971 0.950 . S
C975 C966 1.390 . S
C975 H968 0.950 . S
C975 C972 1.387 . S
C976 C977 1.387 . S
C976 H980 0.950 . S
C976 C985 1.390 . S
C977 C976 1.387 . S
C977 C979 1.387 1_545 S
H978 C985 0.950 . S
C979 C977 1.387 1_565 S
C979 C981 1.390 . S
C979 H983 0.950 . S
H980 C976 0.950 . S
C981 C979 1.390 . S
C981 C982 1.387 1_565 S
C981 H984 0.950 . S
C982 C981 1.387 1_545 S
C982 C985 1.387 . S
H983 C979 0.950 . S
H984 C981 0.950 . S
C985 C976 1.390 . S
C985 H978 0.950 . S
C985 C982 1.387 . S
C986 C987 1.387 . S
C986 H990 0.950 . S
C986 C995 1.390 . S
C987 C986 1.387 . S
C987 C989 1.387 . S
H988 C995 0.950 . S
C989 C987 1.387 . S
C989 C991 1.390 . S
C989 H993 0.950 . S
H990 C986 0.950 . S
C991 C989 1.390 . S
C991 C992 1.387 . S
C991 H994 0.950 . S
C992 C991 1.387 . S
C992 C995 1.387 . S
H993 C989 0.950 . S
H994 C991 0.950 . S
C995 C986 1.390 . S
C995 H988 0.950 . S
C995 C992 1.387 . S
C996 C997 1.387 . S
C996 H1000 0.950 . S
C996 C1005 1.390 . S
C997 C996 1.387 . S
C997 C999 1.387 . S
H998 C1005 0.950 . S
C999 C997 1.387 . S
C999 C1001 1.390 . S
C999 H1003 0.948 . S
H1000 C996 0.950 . S
C1001 C999 1.390 . S
C1001 C1002 1.387 . S
C1001 H1004 0.950 1_545 S
C1002 C1001 1.387 . S
C1002 C1005 1.387 . S
H1003 C999 0.948 . S
H1004 C1001 0.950 1_565 S
C1005 C996 1.390 . S
C1005 H998 0.950 . S
C1005 C1002 1.387 . S
C1006 C1007 1.387 . S
C1006 H1010 0.950 . S
C1006 C1015 1.390 . S
C1007 C1006 1.387 . S
C1007 C1009 1.387 . S
H1008 C1015 0.950 . S
C1009 C1007 1.387 . S
C1009 C1011 1.390 . S
C1009 H1013 0.950 . S
H1010 C1006 0.950 . S
C1011 C1009 1.390 . S
C1011 C1012 1.387 . S
C1011 H1014 0.950 . S
C1012 C1011 1.387 . S
C1012 C1015 1.387 . S
H1013 C1009 0.950 . S
H1014 C1011 0.950 . S
C1015 C1006 1.390 . S
C1015 H1008 0.950 . S
C1015 C1012 1.387 . S
C1016 C1017 1.387 . S
C1016 H1020 0.950 . S
C1016 C1025 1.390 . S
C1017 C1016 1.387 . S
C1017 C1019 1.387 1_565 S
H1018 C1025 0.950 . S
C1019 C1017 1.387 1_545 S
C1019 C1021 1.390 . S
C1019 H1023 0.950 . S
H1020 C1016 0.950 . S
C1021 C1019 1.390 . S
C1021 C1022 1.387 . S
C1021 H1024 0.950 . S
C1022 C1021 1.387 . S
C1022 C1025 1.387 1_545 S
H1023 C1019 0.950 . S
H1024 C1021 0.950 . S
C1025 C1016 1.390 . S
C1025 H1018 0.950 . S
C1025 C1022 1.387 1_565 S
C1026 C1027 1.387 . S
C1026 H1030 0.950 . S
C1026 C1035 1.390 . S
C1027 C1026 1.387 . S
C1027 C1029 1.387 . S
H1028 C1035 0.950 . S
C1029 C1027 1.387 . S
C1029 C1031 1.390 . S
C1029 H1033 0.950 . S
H1030 C1026 0.950 . S
C1031 C1029 1.390 . S
C1031 C1032 1.387 . S
C1031 H1034 0.950 . S
C1032 C1031 1.387 . S
C1032 C1035 1.387 . S
H1033 C1029 0.950 . S
H1034 C1031 0.950 . S
C1035 C1026 1.390 . S
C1035 H1028 0.950 . S
C1035 C1032 1.387 . S
C1036 C1037 1.387 . S
C1036 H1040 0.950 . S
C1036 C1045 1.390 . S
C1037 C1036 1.387 . S
C1037 C1039 1.387 . S
H1038 C1045 0.950 . S
C1039 C1037 1.387 . S
C1039 C1041 1.390 . S
C1039 H1043 0.950 . S
H1040 C1036 0.950 . S
C1041 C1039 1.390 . S
C1041 C1042 1.387 . S
C1041 H1044 0.950 . S
C1042 C1041 1.387 . S
C1042 C1045 1.387 . S
H1043 C1039 0.950 . S
H1044 C1041 0.950 . S
C1045 C1036 1.390 . S
C1045 H1038 0.950 . S
C1045 C1042 1.387 . S
C1046 C1047 1.387 . S
C1046 H1050 0.950 . S
C1046 C1055 1.390 . S
C1047 C1046 1.387 . S
C1047 C1049 1.387 . S
H1048 C1055 0.950 . S
C1049 C1047 1.387 . S
C1049 C1051 1.390 . S
C1049 H1053 0.950 . S
H1050 C1046 0.950 . S
C1051 C1049 1.390 . S
C1051 C1052 1.387 . S
C1051 H1054 0.950 . S
C1052 C1051 1.387 . S
C1052 C1055 1.387 . S
H1053 C1049 0.950 . S
H1054 C1051 0.950 . S
C1055 C1046 1.390 . S
C1055 H1048 0.950 . S
C1055 C1052 1.387 . S
C1056 C1057 1.387 1_556 S
C1056 H1060 0.950 . S
C1056 C1065 1.390 . S
C1057 C1056 1.387 1_554 S
C1057 C1059 1.387 . S
H1058 C1065 0.950 . S
C1059 C1057 1.387 . S
C1059 C1061 1.390 . S
C1059 H1063 0.950 . S
H1060 C1056 0.950 . S
C1061 C1059 1.390 . S
C1061 C1062 1.387 . S
C1061 H1064 0.950 . S
C1062 C1061 1.387 . S
C1062 C1065 1.387 1_554 S
H1063 C1059 0.950 . S
H1064 C1061 0.950 . S
C1065 C1056 1.390 . S
C1065 H1058 0.950 . S
C1065 C1062 1.387 1_556 S
C1066 C1067 1.387 . S
C1066 H1070 0.950 . S
C1066 C1075 1.390 . S
C1067 C1066 1.387 . S
C1067 C1069 1.387 . S
H1068 C1075 0.950 . S
C1069 C1067 1.387 . S
C1069 C1071 1.390 . S
C1069 H1073 0.950 1_554 S
H1070 C1066 0.950 . S
C1071 C1069 1.390 . S
C1071 C1072 1.387 . S
C1071 H1074 0.950 1_554 S
C1072 C1071 1.387 . S
C1072 C1075 1.387 . S
H1073 C1069 0.950 1_556 S
H1074 C1071 0.950 1_556 S
C1075 C1066 1.390 . S
C1075 H1068 0.950 . S
C1075 C1072 1.387 . S
C1076 C1077 1.387 . S
C1076 H1080 0.950 . S
C1076 C1085 1.390 . S
C1077 C1076 1.387 . S
C1077 C1079 1.387 . S
H1078 C1085 0.950 . S
C1079 C1077 1.387 . S
C1079 C1081 1.390 . S
C1079 H1083 0.950 . S
H1080 C1076 0.950 . S
C1081 C1079 1.390 . S
C1081 C1082 1.387 . S
C1081 H1084 0.950 . S
C1082 C1081 1.387 . S
C1082 C1085 1.387 . S
H1083 C1079 0.950 . S
H1084 C1081 0.950 . S
C1085 C1076 1.390 . S
C1085 H1078 0.950 . S
C1085 C1082 1.387 . S
C1086 C1087 1.387 . S
C1086 H1090 0.950 . S
C1086 C1095 1.390 . S
C1087 C1086 1.387 . S
C1087 C1089 1.387 . S
H1088 C1095 0.950 . S
C1089 C1087 1.387 . S
C1089 C1091 1.390 . S
C1089 H1093 0.950 . S
H1090 C1086 0.950 . S
C1091 C1089 1.390 . S
C1091 C1092 1.387 . S
C1091 H1094 0.950 . S
C1092 C1091 1.387 . S
C1092 C1095 1.387 . S
H1093 C1089 0.950 . S
H1094 C1091 0.950 . S
C1095 C1086 1.390 . S
C1095 H1088 0.950 . S
C1095 C1092 1.387 . S
C1096 C1097 1.387 . S
C1096 H1100 0.950 . S
C1096 C1105 1.390 . S
C1097 C1096 1.387 . S
C1097 C1099 1.387 . S
H1098 C1105 0.950 . S
C1099 C1097 1.387 . S
C1099 C1101 1.390 . S
C1099 H1103 0.950 . S
H1100 C1096 0.950 . S
C1101 C1099 1.390 . S
C1101 C1102 1.387 . S
C1101 H1104 0.950 . S
C1102 C1101 1.387 . S
C1102 C1105 1.387 . S
H1103 C1099 0.950 . S
H1104 C1101 0.950 . S
C1105 C1096 1.390 . S
C1105 H1098 0.950 . S
C1105 C1102 1.387 . S
C1106 C1107 1.387 . S
C1106 H1110 0.950 . S
C1106 C1115 1.390 . S
C1107 C1106 1.387 . S
C1107 C1109 1.387 . S
H1108 C1115 0.950 . S
C1109 C1107 1.387 . S
C1109 C1111 1.390 . S
C1109 H1113 0.950 . S
H1110 C1106 0.950 . S
C1111 C1109 1.390 . S
C1111 C1112 1.387 . S
C1111 H1114 0.950 . S
C1112 C1111 1.387 . S
C1112 C1115 1.387 . S
H1113 C1109 0.950 . S
H1114 C1111 0.950 . S
C1115 C1106 1.390 . S
C1115 H1108 0.950 . S
C1115 C1112 1.387 . S
C1116 C1117 1.387 . S
C1116 H1120 0.950 . S
C1116 C1125 1.390 . S
C1117 C1116 1.387 . S
C1117 C1119 1.387 . S
H1118 C1125 0.950 . S
C1119 C1117 1.387 . S
C1119 C1121 1.390 . S
C1119 H1123 0.950 . S
H1120 C1116 0.950 . S
C1121 C1119 1.390 . S
C1121 C1122 1.387 . S
C1121 H1124 0.950 . S
C1122 C1121 1.387 . S
C1122 C1125 1.387 . S
H1123 C1119 0.950 . S
H1124 C1121 0.950 . S
C1125 C1116 1.390 . S
C1125 H1118 0.950 . S
C1125 C1122 1.387 . S
C1126 C1127 1.387 . S
C1126 H1130 0.950 . S
C1126 C1135 1.390 . S
C1127 C1126 1.387 . S
C1127 C1129 1.387 . S
H1128 C1135 0.950 . S
C1129 C1127 1.387 . S
C1129 C1131 1.390 . S
C1129 H1133 0.950 . S
H1130 C1126 0.950 . S
C1131 C1129 1.390 . S
C1131 C1132 1.387 . S
C1131 H1134 0.950 . S
C1132 C1131 1.387 . S
C1132 C1135 1.387 . S
H1133 C1129 0.950 . S
H1134 C1131 0.950 . S
C1135 C1126 1.390 . S
C1135 H1128 0.950 . S
C1135 C1132 1.387 . S
C1136 C1137 1.387 . S
C1136 H1140 0.950 . S
C1136 C1145 1.390 . S
C1137 C1136 1.387 . S
C1137 C1139 1.387 . S
H1138 C1145 0.950 . S
C1139 C1137 1.387 . S
C1139 C1141 1.390 . S
C1139 H1143 0.950 . S
H1140 C1136 0.950 . S
C1141 C1139 1.390 . S
C1141 C1142 1.387 . S
C1141 H1144 0.950 . S
C1142 C1141 1.387 . S
C1142 C1145 1.387 . S
H1143 C1139 0.950 . S
H1144 C1141 0.950 . S
C1145 C1136 1.390 . S
C1145 H1138 0.950 . S
C1145 C1142 1.387 . S
C1146 C1147 1.387 . S
C1146 H1150 0.950 . S
C1146 C1155 1.390 . S
C1147 C1146 1.387 . S
C1147 C1149 1.387 . S
H1148 C1155 0.950 . S
C1149 C1147 1.387 . S
C1149 C1151 1.390 . S
C1149 H1153 0.950 . S
H1150 C1146 0.950 . S
C1151 C1149 1.390 . S
C1151 C1152 1.387 . S
C1151 H1154 0.950 . S
C1152 C1151 1.387 . S
C1152 C1155 1.387 . S
H1153 C1149 0.950 . S
H1154 C1151 0.950 . S
C1155 C1146 1.390 . S
C1155 H1148 0.950 . S
C1155 C1152 1.387 . S
C1156 C1157 1.387 . S
C1156 H1160 0.950 . S
C1156 C1165 1.390 . S
C1157 C1156 1.387 . S
C1157 C1159 1.387 . S
H1158 C1165 0.950 1_654 S
C1159 C1157 1.387 . S
C1159 C1161 1.390 . S
C1159 H1163 0.950 . S
H1160 C1156 0.950 . S
C1161 C1159 1.390 . S
C1161 C1162 1.387 . S
C1161 H1164 0.950 . S
C1162 C1161 1.387 . S
C1162 C1165 1.387 . S
H1163 C1159 0.950 . S
H1164 C1161 0.950 . S
C1165 C1156 1.390 . S
C1165 H1158 0.950 1_456 S
C1165 C1162 1.387 . S
C1166 C1167 1.387 . S
C1166 H1170 0.950 . S
C1166 C1175 1.390 . S
C1167 C1166 1.387 . S
C1167 C1169 1.387 . S
H1168 C1175 0.950 . S
C1169 C1167 1.387 . S
C1169 C1171 1.390 . S
C1169 H1173 0.950 . S
H1170 C1166 0.950 . S
C1171 C1169 1.390 . S
C1171 C1172 1.387 . S
C1171 H1174 0.950 . S
C1172 C1171 1.387 . S
C1172 C1175 1.387 . S
H1173 C1169 0.950 . S
H1174 C1171 0.950 . S
C1175 C1166 1.390 . S
C1175 H1168 0.950 . S
C1175 C1172 1.387 . S
C1176 C1177 1.387 . S
C1176 H1180 0.950 . S
C1176 C1185 1.390 . S
C1177 C1176 1.387 . S
C1177 C1179 1.387 . S
H1178 C1185 0.950 . S
C1179 C1177 1.387 . S
C1179 C1181 1.390 . S
C1179 H1183 0.950 . S
H1180 C1176 0.950 . S
C1181 C1179 1.390 . S
C1181 C1182 1.387 . S
C1181 H1184 0.950 . S
C1182 C1181 1.387 . S
C1182 C1185 1.387 . S
H1183 C1179 0.950 . S
H1184 C1181 0.950 . S
C1185 C1176 1.390 . S
C1185 H1178 0.950 . S
C1185 C1182 1.387 . S
C1186 C1187 1.387 . S
C1186 H1190 0.950 . S
C1186 C1195 1.390 . S
C1187 C1186 1.387 . S
C1187 C1189 1.387 . S
H1188 C1195 0.950 . S
C1189 C1187 1.387 . S
C1189 C1191 1.390 . S
C1189 H1193 0.950 . S
H1190 C1186 0.950 . S
C1191 C1189 1.390 . S
C1191 C1192 1.387 . S
C1191 H1194 0.950 . S
C1192 C1191 1.387 . S
C1192 C1195 1.387 . S
H1193 C1189 0.950 . S
H1194 C1191 0.950 . S
C1195 C1186 1.390 . S
C1195 H1188 0.950 . S
C1195 C1192 1.387 . S
C1196 C1197 1.387 1_455 S
C1196 H1200 0.950 . S
C1196 C1205 1.390 . S
C1197 C1196 1.387 1_655 S
C1197 C1199 1.387 . S
H1198 C1205 0.950 . S
C1199 C1197 1.387 . S
C1199 C1201 1.390 . S
C1199 H1203 0.950 . S
H1200 C1196 0.950 . S
C1201 C1199 1.390 . S
C1201 C1202 1.387 . S
C1201 H1204 0.950 . S
C1202 C1201 1.387 . S
C1202 C1205 1.387 1_655 S
H1203 C1199 0.950 . S
H1204 C1201 0.950 . S
C1205 C1196 1.390 . S
C1205 H1198 0.950 . S
C1205 C1202 1.387 1_455 S
C1206 C1207 1.387 . S
C1206 H1210 0.950 . S
C1206 C1215 1.390 . S
C1207 C1206 1.387 . S
C1207 C1209 1.387 . S
H1208 C1215 0.950 . S
C1209 C1207 1.387 . S
C1209 C1211 1.390 . S
C1209 H1213 0.950 . S
H1210 C1206 0.950 . S
C1211 C1209 1.390 . S
C1211 C1212 1.387 . S
C1211 H1214 0.950 . S
C1212 C1211 1.387 . S
C1212 C1215 1.387 . S
H1213 C1209 0.950 . S
H1214 C1211 0.950 . S
C1215 C1206 1.390 . S
C1215 H1208 0.950 . S
C1215 C1212 1.387 . S
C1216 C1217 1.387 . S
C1216 H1220 0.950 . S
C1216 C1225 1.390 . S
C1217 C1216 1.387 . S
C1217 C1219 1.387 . S
H1218 C1225 0.950 . S
C1219 C1217 1.387 . S
C1219 C1221 1.390 . S
C1219 H1223 0.950 . S
H1220 C1216 0.950 . S
C1221 C1219 1.390 . S
C1221 C1222 1.387 . S
C1221 H1224 0.950 . S
C1222 C1221 1.387 . S
C1222 C1225 1.387 . S
H1223 C1219 0.950 . S
H1224 C1221 0.950 . S
C1225 C1216 1.390 . S
C1225 H1218 0.950 . S
C1225 C1222 1.387 . S
C1226 C1227 1.387 . S
C1226 H1230 0.950 . S
C1226 C1235 1.390 . S
C1227 C1226 1.387 . S
C1227 C1229 1.387 . S
H1228 C1235 0.950 . S
C1229 C1227 1.387 . S
C1229 C1231 1.390 . S
C1229 H1233 0.950 . S
H1230 C1226 0.950 . S
C1231 C1229 1.390 . S
C1231 C1232 1.387 . S
C1231 H1234 0.950 . S
C1232 C1231 1.387 . S
C1232 C1235 1.387 . S
H1233 C1229 0.950 . S
H1234 C1231 0.950 . S
C1235 C1226 1.390 . S
C1235 H1228 0.950 . S
C1235 C1232 1.387 . S
C1236 C1237 1.387 . S
C1236 H1240 0.950 . S
C1236 C1245 1.390 . S
C1237 C1236 1.387 . S
C1237 C1239 1.387 . S
H1238 C1245 0.950 . S
C1239 C1237 1.387 . S
C1239 C1241 1.390 . S
C1239 H1243 0.950 . S
H1240 C1236 0.950 . S
C1241 C1239 1.390 . S
C1241 C1242 1.387 . S
C1241 H1244 0.950 . S
C1242 C1241 1.387 . S
C1242 C1245 1.387 . S
H1243 C1239 0.950 . S
H1244 C1241 0.950 . S
C1245 C1236 1.390 . S
C1245 H1238 0.950 . S
C1245 C1242 1.387 . S
C1246 C1247 1.387 . S
C1246 H1250 0.950 . S
C1246 C1255 1.390 . S
C1247 C1246 1.387 . S
C1247 C1249 1.387 . S
H1248 C1255 0.950 . S
C1249 C1247 1.387 . S
C1249 C1251 1.390 . S
C1249 H1253 0.950 . S
H1250 C1246 0.950 . S
C1251 C1249 1.390 . S
C1251 C1252 1.387 . S
C1251 H1254 0.950 . S
C1252 C1251 1.387 . S
C1252 C1255 1.387 . S
H1253 C1249 0.950 . S
H1254 C1251 0.950 . S
C1255 C1246 1.390 . S
C1255 H1248 0.950 . S
C1255 C1252 1.387 . S
C1256 C1257 1.387 . S
C1256 H1260 0.950 . S
C1256 C1265 1.390 . S
C1257 C1256 1.387 . S
C1257 C1259 1.387 . S
H1258 C1265 0.950 . S
C1259 C1257 1.387 . S
C1259 C1261 1.390 . S
C1259 H1263 0.950 . S
H1260 C1256 0.950 . S
C1261 C1259 1.390 . S
C1261 C1262 1.387 . S
C1261 H1264 0.950 . S
C1262 C1261 1.387 . S
C1262 C1265 1.387 . S
H1263 C1259 0.950 . S
H1264 C1261 0.950 . S
C1265 C1256 1.390 . S
C1265 H1258 0.950 . S
C1265 C1262 1.387 . S
C1266 C1267 1.387 . S
C1266 H1270 0.950 . S
C1266 C1275 1.390 . S
C1267 C1266 1.387 . S
C1267 C1269 1.387 . S
H1268 C1275 0.950 . S
C1269 C1267 1.387 . S
C1269 C1271 1.390 . S
C1269 H1273 0.950 . S
H1270 C1266 0.950 . S
C1271 C1269 1.390 . S
C1271 C1272 1.387 . S
C1271 H1274 0.950 . S
C1272 C1271 1.387 . S
C1272 C1275 1.387 . S
H1273 C1269 0.950 . S
H1274 C1271 0.950 . S
C1275 C1266 1.390 . S
C1275 H1268 0.950 . S
C1275 C1272 1.387 . S
C1276 C1277 1.387 . S
C1276 H1280 0.950 . S
C1276 C1285 1.390 . S
C1277 C1276 1.387 . S
C1277 C1279 1.387 . S
H1278 C1285 0.950 . S
C1279 C1277 1.387 . S
C1279 C1281 1.390 . S
C1279 H1283 0.950 . S
H1280 C1276 0.950 . S
C1281 C1279 1.390 . S
C1281 C1282 1.387 . S
C1281 H1284 0.950 . S
C1282 C1281 1.387 . S
C1282 C1285 1.387 . S
H1283 C1279 0.950 . S
H1284 C1281 0.950 . S
C1285 C1276 1.390 . S
C1285 H1278 0.950 . S
C1285 C1282 1.387 . S
C1286 C1287 1.387 . S
C1286 H1290 0.950 . S
C1286 C1295 1.390 . S
C1287 C1286 1.387 . S
C1287 C1289 1.387 . S
H1288 C1295 0.950 . S
C1289 C1287 1.387 . S
C1289 C1291 1.390 . S
C1289 H1293 0.950 . S
H1290 C1286 0.950 . S
C1291 C1289 1.390 . S
C1291 C1292 1.387 . S
C1291 H1294 0.950 . S
C1292 C1291 1.387 . S
C1292 C1295 1.387 . S
H1293 C1289 0.950 . S
H1294 C1291 0.950 . S
C1295 C1286 1.390 . S
C1295 H1288 0.950 . S
C1295 C1292 1.387 . S
C1296 C1297 1.387 . S
C1296 H1300 0.950 . S
C1296 C1305 1.390 . S
C1297 C1296 1.387 . S
C1297 C1299 1.387 . S
H1298 C1305 0.950 . S
C1299 C1297 1.387 . S
C1299 C1301 1.390 . S
C1299 H1303 0.950 . S
H1300 C1296 0.950 . S
C1301 C1299 1.390 . S
C1301 C1302 1.387 . S
C1301 H1304 0.950 . S
C1302 C1301 1.387 . S
C1302 C1305 1.387 . S
H1303 C1299 0.950 . S
H1304 C1301 0.950 . S
C1305 C1296 1.390 . S
C1305 H1298 0.950 . S
C1305 C1302 1.387 . S
C1306 C1307 1.387 . S
C1306 H1310 0.950 . S
C1306 C1315 1.390 . S
C1307 C1306 1.387 . S
C1307 C1309 1.387 . S
H1308 C1315 0.950 . S
C1309 C1307 1.387 . S
C1309 C1311 1.390 . S
C1309 H1313 0.950 . S
H1310 C1306 0.950 . S
C1311 C1309 1.390 . S
C1311 C1312 1.387 . S
C1311 H1314 0.950 . S
C1312 C1311 1.387 . S
C1312 C1315 1.387 . S
H1313 C1309 0.950 . S
H1314 C1311 0.950 . S
C1315 C1306 1.390 . S
C1315 H1308 0.950 . S
C1315 C1312 1.387 . S
C1316 C1317 1.387 . S
C1316 H1320 0.950 . S
C1316 C1325 1.390 . S
C1317 C1316 1.387 . S
C1317 C1319 1.387 . S
H1318 C1325 0.950 . S
C1319 C1317 1.387 . S
C1319 C1321 1.390 . S
C1319 H1323 0.950 . S
H1320 C1316 0.950 . S
C1321 C1319 1.390 . S
C1321 C1322 1.387 . S
C1321 H1324 0.950 . S
C1322 C1321 1.387 . S
C1322 C1325 1.387 . S
H1323 C1319 0.950 . S
H1324 C1321 0.950 . S
C1325 C1316 1.390 . S
C1325 H1318 0.950 . S
C1325 C1322 1.387 . S
C1326 C1327 1.387 . S
C1326 H1330 0.950 1_554 S
C1326 C1335 1.390 . S
C1327 C1326 1.387 . S
C1327 C1329 1.387 . S
H1328 C1335 0.950 1_556 S
C1329 C1327 1.387 . S
C1329 C1331 1.390 . S
C1329 H1333 0.950 . S
H1330 C1326 0.950 1_556 S
C1331 C1329 1.390 . S
C1331 C1332 1.387 . S
C1331 H1334 0.950 1_565 S
C1332 C1331 1.387 . S
C1332 C1335 1.387 . S
H1333 C1329 0.950 . S
H1334 C1331 0.950 1_545 S
C1335 C1326 1.390 . S
C1335 H1328 0.950 1_554 S
C1335 C1332 1.387 . S
C1336 C1337 1.387 . S
C1336 H1340 0.950 . S
C1336 C1345 1.390 . S
C1337 C1336 1.387 . S
C1337 C1339 1.387 . S
H1338 C1345 0.950 . S
C1339 C1337 1.387 . S
C1339 C1341 1.390 . S
C1339 H1343 0.950 . S
H1340 C1336 0.950 . S
C1341 C1339 1.390 . S
C1341 C1342 1.387 . S
C1341 H1344 0.950 . S
C1342 C1341 1.387 . S
C1342 C1345 1.387 . S
H1343 C1339 0.950 . S
H1344 C1341 0.950 . S
C1345 C1336 1.390 . S
C1345 H1338 0.950 . S
C1345 C1342 1.387 . S
C1346 C1347 1.387 1_556 S
C1346 H1350 0.950 . S
C1346 C1355 1.390 1_556 S
C1347 C1346 1.387 1_554 S
C1347 C1349 1.387 . S
H1348 C1355 0.950 1_556 S
C1349 C1347 1.387 . S
C1349 C1351 1.390 . S
C1349 H1353 0.950 . S
H1350 C1346 0.950 . S
C1351 C1349 1.390 . S
C1351 C1352 1.387 . S
C1351 H1354 0.950 . S
C1352 C1351 1.387 . S
C1352 C1355 1.387 . S
H1353 C1349 0.950 . S
H1354 C1351 0.950 . S
C1355 C1346 1.390 1_554 S
C1355 H1348 0.950 1_554 S
C1355 C1352 1.387 . S
C1356 C1357 1.387 . S
C1356 H1360 0.950 . S
C1356 C1365 1.390 . S
C1357 C1356 1.387 . S
C1357 C1359 1.387 . S
H1358 C1365 0.950 . S
C1359 C1357 1.387 . S
C1359 C1361 1.390 . S
C1359 H1363 0.950 . S
H1360 C1356 0.950 . S
C1361 C1359 1.390 . S
C1361 C1362 1.387 . S
C1361 H1364 0.950 . S
C1362 C1361 1.387 . S
C1362 C1365 1.387 . S
H1363 C1359 0.950 . S
H1364 C1361 0.950 . S
C1365 C1356 1.390 . S
C1365 H1358 0.950 . S
C1365 C1362 1.387 . S
C1366 C1367 1.387 . S
C1366 H1370 0.950 . S
C1366 C1375 1.390 . S
C1367 C1366 1.387 . S
C1367 C1369 1.387 . S
H1368 C1375 0.950 . S
C1369 C1367 1.387 . S
C1369 C1371 1.390 . S
C1369 H1373 0.950 . S
H1370 C1366 0.950 . S
C1371 C1369 1.390 . S
C1371 C1372 1.387 . S
C1371 H1374 0.950 . S
C1372 C1371 1.387 . S
C1372 C1375 1.387 . S
H1373 C1369 0.950 . S
H1374 C1371 0.950 . S
C1375 C1366 1.390 . S
C1375 H1368 0.950 . S
C1375 C1372 1.387 . S
C1376 C1377 1.387 . S
C1376 H1380 0.950 . S
C1376 C1385 1.390 . S
C1377 C1376 1.387 . S
C1377 C1379 1.387 . S
H1378 C1385 0.950 . S
C1379 C1377 1.387 . S
C1379 C1381 1.390 . S
C1379 H1383 0.950 . S
H1380 C1376 0.950 . S
C1381 C1379 1.390 . S
C1381 C1382 1.387 . S
C1381 H1384 0.950 . S
C1382 C1381 1.387 . S
C1382 C1385 1.387 . S
H1383 C1379 0.950 . S
H1384 C1381 0.950 . S
C1385 C1376 1.390 . S
C1385 H1378 0.950 . S
C1385 C1382 1.387 . S
C1386 C1387 1.387 . S
C1386 H1390 0.950 . S
C1386 C1395 1.390 . S
C1387 C1386 1.387 . S
C1387 C1389 1.387 . S
H1388 C1395 0.950 . S
C1389 C1387 1.387 . S
C1389 C1391 1.390 . S
C1389 H1393 0.950 . S
H1390 C1386 0.950 . S
C1391 C1389 1.390 . S
C1391 C1392 1.387 . S
C1391 H1394 0.950 . S
C1392 C1391 1.387 . S
C1392 C1395 1.387 . S
H1393 C1389 0.950 . S
H1394 C1391 0.950 . S
C1395 C1386 1.390 . S
C1395 H1388 0.950 . S
C1395 C1392 1.387 . S
C1396 C1397 1.378 1_655 S
C1396 H1400 0.950 . S
C1396 C1405 1.390 . S
C1397 C1396 1.378 1_455 S
C1397 C1399 1.407 . S
H1398 C1405 0.950 . S
C1399 C1397 1.407 . S
C1399 C1401 1.390 . S
C1399 H1403 0.950 . S
H1400 C1396 0.950 . S
C1401 C1399 1.390 . S
C1401 C1402 1.387 . S
C1401 H1404 0.950 . S
C1402 C1401 1.387 . S
C1402 C1405 1.387 1_455 S
H1403 C1399 0.950 . S
H1404 C1401 0.950 . S
C1405 C1396 1.390 . S
C1405 H1398 0.950 . S
C1405 C1402 1.387 1_655 S
C1406 C1407 1.387 . S
C1406 H1410 0.950 . S
C1406 C1415 1.390 . S
C1407 C1406 1.387 . S
C1407 C1409 1.387 . S
H1408 C1415 0.950 . S
C1409 C1407 1.387 . S
C1409 C1411 1.390 . S
C1409 H1413 0.950 . S
H1410 C1406 0.950 . S
C1411 C1409 1.390 . S
C1411 C1412 1.387 . S
C1411 H1414 0.950 . S
C1412 C1411 1.387 . S
C1412 C1415 1.387 . S
H1413 C1409 0.950 . S
H1414 C1411 0.950 . S
C1415 C1406 1.390 . S
C1415 H1408 0.950 . S
C1415 C1412 1.387 . S
C1416 C1417 1.387 . S
C1416 H1420 0.950 . S
C1416 C1425 1.390 . S
C1417 C1416 1.387 . S
C1417 C1419 1.387 . S
H1418 C1425 0.950 . S
C1419 C1417 1.387 . S
C1419 C1421 1.390 . S
C1419 H1423 0.950 . S
H1420 C1416 0.950 . S
C1421 C1419 1.390 . S
C1421 C1422 1.387 . S
C1421 H1424 0.950 . S
C1422 C1421 1.387 . S
C1422 C1425 1.387 . S
H1423 C1419 0.950 . S
H1424 C1421 0.950 . S
C1425 C1416 1.390 . S
C1425 H1418 0.950 . S
C1425 C1422 1.387 . S
C1426 C1427 1.387 . S
C1426 H1430 0.950 . S
C1426 C1435 1.390 . S
C1427 C1426 1.387 . S
C1427 C1429 1.387 . S
H1428 C1435 0.950 . S
C1429 C1427 1.387 . S
C1429 C1431 1.390 . S
C1429 H1433 0.950 . S
H1430 C1426 0.950 . S
C1431 C1429 1.390 . S
C1431 C1432 1.387 . S
C1431 H1434 0.950 . S
C1432 C1431 1.387 . S
C1432 C1435 1.387 . S
H1433 C1429 0.950 . S
H1434 C1431 0.950 . S
C1435 C1426 1.390 . S
C1435 H1428 0.950 . S
C1435 C1432 1.387 . S
C1436 C1437 1.387 . S
C1436 H1440 0.950 . S
C1436 C1445 1.390 . S
C1437 C1436 1.387 . S
C1437 C1439 1.387 . S
H1438 C1445 0.950 . S
C1439 C1437 1.387 . S
C1439 C1441 1.390 . S
C1439 H1443 0.950 . S
H1440 C1436 0.950 . S
C1441 C1439 1.390 . S
C1441 C1442 1.387 . S
C1441 H1444 0.950 . S
C1442 C1441 1.387 . S
C1442 C1445 1.387 . S
H1443 C1439 0.950 . S
H1444 C1441 0.950 . S
C1445 C1436 1.390 . S
C1445 H1438 0.950 . S
C1445 C1442 1.387 . S
C1446 C1447 1.387 . S
C1446 H1450 0.950 . S
C1446 C1455 1.390 . S
C1447 C1446 1.387 . S
C1447 C1449 1.387 . S
H1448 C1455 0.950 . S
C1449 C1447 1.387 . S
C1449 C1451 1.390 . S
C1449 H1453 0.950 . S
H1450 C1446 0.950 . S
C1451 C1449 1.390 . S
C1451 C1452 1.387 . S
C1451 H1454 0.950 . S
C1452 C1451 1.387 . S
C1452 C1455 1.387 . S
H1453 C1449 0.950 . S
H1454 C1451 0.950 . S
C1455 C1446 1.390 . S
C1455 H1448 0.950 . S
C1455 C1452 1.387 . S
C1456 C1457 1.387 . S
C1456 H1460 0.950 . S
C1456 C1465 1.390 . S
C1457 C1456 1.387 . S
C1457 C1459 1.387 . S
H1458 C1465 0.950 . S
C1459 C1457 1.387 . S
C1459 C1461 1.390 . S
C1459 H1463 0.950 . S
H1460 C1456 0.950 . S
C1461 C1459 1.390 . S
C1461 C1462 1.387 . S
C1461 H1464 0.950 . S
C1462 C1461 1.387 . S
C1462 C1465 1.387 . S
H1463 C1459 0.950 . S
H1464 C1461 0.950 . S
C1465 C1456 1.390 . S
C1465 H1458 0.950 . S
C1465 C1462 1.387 . S
C1466 C1467 1.387 . S
C1466 H1470 0.950 . S
C1466 C1475 1.390 . S
C1467 C1466 1.387 . S
C1467 C1469 1.387 . S
H1468 C1475 0.950 . S
C1469 C1467 1.387 . S
C1469 C1471 1.390 . S
C1469 H1473 0.950 . S
H1470 C1466 0.950 . S
C1471 C1469 1.390 . S
C1471 C1472 1.387 . S
C1471 H1474 0.950 . S
C1472 C1471 1.387 . S
C1472 C1475 1.387 . S
H1473 C1469 0.950 . S
H1474 C1471 0.950 . S
C1475 C1466 1.390 . S
C1475 H1468 0.950 . S
C1475 C1472 1.387 . S
C1476 C1477 1.387 . S
C1476 H1480 0.950 . S
C1476 C1485 1.390 . S
C1477 C1476 1.387 . S
C1477 C1479 1.387 . S
H1478 C1485 0.950 1_455 S
C1479 C1477 1.387 . S
C1479 C1481 1.390 . S
C1479 H1483 0.950 . S
H1480 C1476 0.950 . S
C1481 C1479 1.390 . S
C1481 C1482 1.387 . S
C1481 H1484 0.950 . S
C1482 C1481 1.387 . S
C1482 C1485 1.387 . S
H1483 C1479 0.950 . S
H1484 C1481 0.950 . S
C1485 C1476 1.390 . S
C1485 H1478 0.950 1_655 S
C1485 C1482 1.387 . S
C1486 C1487 1.387 . S
C1486 H1490 0.950 . S
C1486 C1495 1.390 . S
C1487 C1486 1.387 . S
C1487 C1489 1.387 . S
H1488 C1495 0.950 . S
C1489 C1487 1.387 . S
C1489 C1491 1.390 . S
C1489 H1493 0.950 . S
H1490 C1486 0.950 . S
C1491 C1489 1.390 . S
C1491 C1492 1.387 . S
C1491 H1494 0.950 . S
C1492 C1491 1.387 . S
C1492 C1495 1.387 . S
H1493 C1489 0.950 . S
H1494 C1491 0.950 . S
C1495 C1486 1.390 . S
C1495 H1488 0.950 . S
C1495 C1492 1.387 . S
C1496 C1497 1.387 . S
C1496 H1500 0.950 . S
C1496 C1505 1.390 . S
C1497 C1496 1.387 . S
C1497 C1499 1.387 . S
H1498 C1505 0.950 . S
C1499 C1497 1.387 . S
C1499 C1501 1.390 . S
C1499 H1503 0.950 . S
H1500 C1496 0.950 . S
C1501 C1499 1.390 . S
C1501 C1502 1.387 . S
C1501 H1504 0.950 . S
C1502 C1501 1.387 . S
C1502 C1505 1.387 . S
H1503 C1499 0.950 . S
H1504 C1501 0.950 . S
C1505 C1496 1.390 . S
C1505 H1498 0.950 . S
C1505 C1502 1.387 . S
C1506 C1507 1.387 . S
C1506 H1510 0.950 . S
C1506 C1515 1.390 . S
C1507 C1506 1.387 . S
C1507 C1509 1.387 . S
H1508 C1515 0.950 . S
C1509 C1507 1.387 . S
C1509 C1511 1.390 . S
C1509 H1513 0.950 . S
H1510 C1506 0.950 . S
C1511 C1509 1.390 . S
C1511 C1512 1.387 . S
C1511 H1514 0.950 . S
C1512 C1511 1.387 . S
C1512 C1515 1.387 . S
H1513 C1509 0.950 . S
H1514 C1511 0.950 . S
C1515 C1506 1.390 . S
C1515 H1508 0.950 . S
C1515 C1512 1.387 . S
C1516 C1517 1.387 . S
C1516 H1520 0.950 . S
C1516 C1525 1.390 . S
C1517 C1516 1.387 . S
C1517 C1519 1.387 . S
H1518 C1525 0.950 . S
C1519 C1517 1.387 . S
C1519 C1521 1.390 . S
C1519 H1523 0.950 . S
H1520 C1516 0.950 . S
C1521 C1519 1.390 . S
C1521 C1522 1.387 . S
C1521 H1524 0.950 . S
C1522 C1521 1.387 . S
C1522 C1525 1.387 . S
H1523 C1519 0.950 . S
H1524 C1521 0.950 . S
C1525 C1516 1.390 . S
C1525 H1518 0.950 . S
C1525 C1522 1.387 . S
C1526 C1527 1.387 . S
C1526 H1530 0.950 . S
C1526 C1535 1.390 . S
C1527 C1526 1.387 . S
C1527 C1529 1.387 . S
H1528 C1535 0.950 . S
C1529 C1527 1.387 . S
C1529 C1531 1.390 . S
C1529 H1533 0.950 . S
H1530 C1526 0.950 . S
C1531 C1529 1.390 . S
C1531 C1532 1.387 . S
C1531 H1534 0.950 . S
C1532 C1531 1.387 . S
C1532 C1535 1.387 . S
H1533 C1529 0.950 . S
H1534 C1531 0.950 . S
C1535 C1526 1.390 . S
C1535 H1528 0.950 . S
C1535 C1532 1.387 . S
C1536 C1537 1.387 . S
C1536 H1540 0.950 . S
C1536 C1545 1.390 . S
C1537 C1536 1.387 . S
C1537 C1539 1.387 . S
H1538 C1545 0.950 . S
C1539 C1537 1.387 . S
C1539 C1541 1.390 . S
C1539 H1543 0.950 . S
H1540 C1536 0.950 . S
C1541 C1539 1.390 . S
C1541 C1542 1.387 . S
C1541 H1544 0.950 . S
C1542 C1541 1.387 . S
C1542 C1545 1.387 . S
H1543 C1539 0.950 . S
H1544 C1541 0.950 . S
C1545 C1536 1.390 . S
C1545 H1538 0.950 . S
C1545 C1542 1.387 . S
C1546 C1547 1.387 . S
C1546 H1550 0.950 . S
C1546 C1555 1.390 . S
C1547 C1546 1.387 . S
C1547 C1549 1.387 . S
H1548 C1555 0.950 . S
C1549 C1547 1.387 . S
C1549 C1551 1.390 . S
C1549 H1553 0.950 . S
H1550 C1546 0.950 . S
C1551 C1549 1.390 . S
C1551 C1552 1.387 . S
C1551 H1554 0.950 . S
C1552 C1551 1.387 . S
C1552 C1555 1.387 . S
H1553 C1549 0.950 . S
H1554 C1551 0.950 . S
C1555 C1546 1.390 . S
C1555 H1548 0.950 . S
C1555 C1552 1.387 . S
C1556 C1557 1.387 . S
C1556 H1560 0.950 . S
C1556 C1565 1.390 . S
C1557 C1556 1.387 . S
C1557 C1559 1.387 . S
H1558 C1565 0.950 . S
C1559 C1557 1.387 . S
C1559 C1561 1.390 . S
C1559 H1563 0.950 . S
H1560 C1556 0.950 . S
C1561 C1559 1.390 . S
C1561 C1562 1.387 . S
C1561 H1564 0.950 . S
C1562 C1561 1.387 . S
C1562 C1565 1.387 . S
H1563 C1559 0.950 . S
H1564 C1561 0.950 . S
C1565 C1556 1.390 . S
C1565 H1558 0.950 . S
C1565 C1562 1.387 . S
C1566 C1567 1.407 . S
C1566 H1570 0.950 . S
C1566 C1575 1.390 . S
C1567 C1566 1.407 . S
C1567 C1569 1.362 1_556 S
H1568 C1575 0.950 . S
C1569 C1567 1.362 1_554 S
C1569 C1571 1.390 . S
C1569 H1573 0.950 . S
H1570 C1566 0.950 . S
C1571 C1569 1.390 . S
C1571 C1572 1.387 . S
C1571 H1574 0.950 . S
C1572 C1571 1.387 . S
C1572 C1575 1.387 1_554 S
H1573 C1569 0.950 . S
H1574 C1571 0.950 . S
C1575 C1566 1.390 . S
C1575 H1568 0.950 . S
C1575 C1572 1.387 1_556 S
C1576 C1577 1.387 . S
C1576 H1580 0.950 . S
C1576 C1585 1.390 . S
C1577 C1576 1.387 . S
C1577 C1579 1.387 . S
H1578 C1585 0.950 . S
C1579 C1577 1.387 . S
C1579 C1581 1.390 . S
C1579 H1583 0.950 . S
H1580 C1576 0.950 . S
C1581 C1579 1.390 . S
C1581 C1582 1.387 . S
C1581 H1584 0.950 . S
C1582 C1581 1.387 . S
C1582 C1585 1.387 . S
H1583 C1579 0.950 . S
H1584 C1581 0.950 . S
C1585 C1576 1.390 . S
C1585 H1578 0.950 . S
C1585 C1582 1.387 . S
C1586 C1587 1.387 . S
C1586 H1590 0.950 . S
C1586 C1595 1.390 . S
C1587 C1586 1.387 . S
C1587 C1589 1.387 1_554 S
H1588 C1595 0.950 . S
C1589 C1587 1.387 1_556 S
C1589 C1591 1.390 . S
C1589 H1593 0.950 . S
H1590 C1586 0.950 . S
C1591 C1589 1.390 . S
C1591 C1592 1.378 1_556 S
C1591 H1594 0.950 . S
C1592 C1591 1.378 1_554 S
C1592 C1595 1.405 . S
H1593 C1589 0.950 . S
H1594 C1591 0.950 . S
C1595 C1586 1.390 . S
C1595 H1588 0.950 . S
C1595 C1592 1.405 . S
C1596 C1597 1.387 . S
C1596 H1600 0.950 . S
C1596 C1605 1.390 . S
C1597 C1596 1.387 . S
C1597 C1599 1.387 . S
H1598 C1605 0.950 . S
C1599 C1597 1.387 . S
C1599 C1601 1.390 . S
C1599 H1603 0.950 . S
H1600 C1596 0.950 . S
C1601 C1599 1.390 . S
C1601 C1602 1.387 . S
C1601 H1604 0.950 . S
C1602 C1601 1.387 . S
C1602 C1605 1.387 . S
H1603 C1599 0.950 . S
H1604 C1601 0.950 . S
C1605 C1596 1.390 . S
C1605 H1598 0.950 . S
C1605 C1602 1.387 . S
C1606 C1607 1.387 . S
C1606 H1610 0.950 . S
C1606 C1615 1.390 . S
C1607 C1606 1.387 . S
C1607 C1609 1.387 . S
H1608 C1615 0.950 . S
C1609 C1607 1.387 . S
C1609 C1611 1.390 . S
C1609 H1613 0.950 . S
H1610 C1606 0.950 . S
C1611 C1609 1.390 . S
C1611 C1612 1.387 . S
C1611 H1614 0.950 . S
C1612 C1611 1.387 . S
C1612 C1615 1.387 . S
H1613 C1609 0.950 . S
H1614 C1611 0.950 . S
C1615 C1606 1.390 . S
C1615 H1608 0.950 . S
C1615 C1612 1.387 . S
C657 C105 1.331 . S
C662 C352 1.328 1_556 S
C667 C65 1.460 . S
C672 C365 1.434 . S
C677 C73 1.468 . S
C682 C384 1.455 . S
C692 C415 1.844 . S
C687 C92 1.886 . S
C697 C17 1.734 . S
C702 C435 1.702 . S
C712 C452 1.055 . S
C707 C37 1.074 . S
C722 C465 1.510 . S
C717 C49 1.460 . S
C727 C8 1.215 . S
C732 C492 1.178 . S
C742 C345 1.353 . S
C737 C231 1.308 . S
C747 C241 1.584 . S
C752 C375 1.561 . S
C762 C377 1.684 . S
C757 C273 1.674 . S
C772 C412 0.990 . S
C767 C171 1.003 . S
C777 C227 1.246 . S
C782 C432 1.234 . S
C792 C445 1.768 . S
C787 C245 1.685 . S
C802 C475 1.426 . S
C797 C269 1.454 . S
C812 C485 1.265 . S
C807 C175 1.278 . S
C822 C355 1.668 1_565 S
C817 C162 1.669 . S
C827 C289 1.720 . S
C832 C505 1.709 1_556 S
C842 C535 1.686 . S
C837 C330 1.663 . S
C852 C552 1.289 . S
C847 C317 1.316 . S
C857 C120 1.854 . S
C862 C495 1.890 . S
C867 C134 1.385 . S
C872 C382 1.323 . S
C877 C331 1.767 . S
C882 C565 1.766 . S
C892 C592 1.175 . S
C887 C303 1.234 . S
C902 C342 1.332 . S
C897 C59 1.394 . S
C912 C577 1.450 . S
C907 C107 1.472 . S
C917 C91 1.424 . S
C922 C395 1.477 . S
C927 C78 1.918 . S
C932 C564 1.868 . S
C942 C424 1.723 . S
C937 C7 1.718 . S
C947 C51 1.086 . S
C952 C522 1.065 . S
C962 C457 1.512 1_556 S
C957 C31 1.524 . S
C972 C602 1.165 . S
C967 C22 1.201 . S
C982 C337 1.360 . S
C977 C143 1.381 . S
C992 C584 1.588 . S
C987 C315 1.526 . S
C997 C115 1.771 . S
C1002 C385 1.700 . S
C1007 C287 1.000 . S
C1012 C562 1.016 . S
C1017 C147 1.206 . S
C1022 C422 1.261 . S
C1032 C517 1.777 . S
C1027 C311 1.772 . S
C1037 C119 1.406 . S
C1042 C464 1.448 . S
C1047 C283 1.311 . S
C1052 C597 1.275 . S
C1057 C190 1.681 . S
C1062 C344 1.676 . S
C1067 C177 1.729 . S
C1072 C497 1.729 . S
C1077 C260 1.666 . S
C1082 C444 1.698 . S
C1087 C247 1.342 . S
C1092 C542 1.311 . S
C1102 C604 1.890 . S
C1097 C274 1.868 . S
C1107 C218 1.376 . S
C1112 C392 1.334 . S
C1122 C397 1.783 . S
C1117 C261 1.776 . S
C1132 C362 1.189 . S
C1127 C205 1.251 . S
C1137 C77 1.334 . S
C1142 C632 1.335 . S
C1152 C585 1.434 . S
C1147 C93 1.459 . S
C1157 C101 1.468 . S
C1162 C644 1.456 1_455 S
C1167 C64 1.885 . S
C1172 C575 1.844 . S
C1177 C45 1.734 . S
C1182 C515 1.700 . S
C1192 C532 1.058 . S
C1187 C9 1.075 . S
C1202 C545 1.511 1_655 S
C1197 C21 1.459 . S
C1212 C612 1.178 . S
C1207 C36 1.215 . S
C1222 C625 1.354 . S
C1217 C259 1.312 . S
C1227 C185 1.583 . S
C1232 C595 1.561 . S
C1242 C637 1.681 . S
C1237 C203 1.673 . S
C1252 C572 0.991 . S
C1247 C213 1.003 . S
C1262 C512 1.234 . S
C1257 C255 1.246 . S
C1267 C189 1.687 . S
C1272 C525 1.767 . S
C1282 C555 1.428 . S
C1277 C199 1.454 . S
C1287 C217 1.278 . S
C1292 C605 1.265 . S
C1302 C635 1.668 . S
C1297 C316 1.669 . S
C1307 C135 1.720 . S
C1312 C425 1.714 . S
C1322 C455 1.687 . S
C1317 C148 1.665 . S
C1332 C472 1.289 1_565 S
C1327 C163 1.317 . S
C1342 C615 1.891 . S
C1337 C302 1.851 . S
C1347 C288 1.385 . S
C1352 C642 1.325 . S
C1362 C405 1.766 . S
C1357 C149 1.764 . S
C1372 C372 1.176 . S
C1367 C121 1.235 . S
C1377 C87 1.394 . S
C1382 C622 1.332 . S
C1392 C357 1.450 . S
C1387 C79 1.474 . S
C1397 C63 1.425 . S
C1402 C655 1.476 . S
C1407 C106 1.919 . S
C1412 C404 1.866 . S
C1417 C35 1.717 . S
C1422 C504 1.725 1_556 S
C1432 C442 1.067 . S
C1427 C23 1.086 . S
C1437 C3 1.525 . S
C1442 C537 1.517 . S
C1447 C50 1.205 . S
C1452 C482 1.169 . S
C1462 C617 1.360 . S
C1457 C325 1.380 . S
C1467 C161 1.529 . S
C1472 C364 1.589 . S
C1482 C645 1.699 . S
C1477 C297 1.770 . S
C1487 C133 0.996 . S
C1492 C402 1.022 . S
C1497 C329 1.206 . S
C1502 C502 1.260 . S
C1512 C437 1.777 . S
C1507 C157 1.772 . S
C1517 C301 1.406 . S
C1522 C544 1.449 . S
C1532 C477 1.272 . S
C1527 C129 1.312 . S
C1542 C624 1.675 . S
C1537 C246 1.682 . S
C1552 C417 1.729 1_565 S
C1547 C219 1.729 . S
C1557 C232 1.665 . S
C1562 C524 1.698 . S
C1572 C462 1.313 . S
C1567 C191 1.346 . S
C1577 C204 1.868 . S
C1582 C484 1.890 . S
C1587 C176 1.378 . S
C1592 C652 1.333 1_554 S
C1602 C557 1.783 . S
C1597 C233 1.776 . S
C1612 C582 1.186 . S
C1607 C275 1.250 . S
