# Generated by pormake.
# Topology ocu, (6,8)-cn, num edge types: 1
# Building blocks:
#     Node 0, Type 0, BuildingBlock: PAMTOO_clean_sbu_0, # of connection points: 6
#     Node 1, Type 0, BuildingBlock: PAMTOO_clean_sbu_0, # of connection points: 6
#     Node 2, Type 0, BuildingBlock: PAMTOO_clean_sbu_0, # of connection points: 6
#     Node 3, Type 0, BuildingBlock: PAMTOO_clean_sbu_0, # of connection points: 6
#     Node 4, Type 0, BuildingBlock: PAMTOO_clean_sbu_0, # of connection points: 6
#     Node 5, Type 0, BuildingBlock: PAMTOO_clean_sbu_0, # of connection points: 6
#     Node 6, Type 0, BuildingBlock: PAMTOO_clean_sbu_0, # of connection points: 6
#     Node 7, Type 0, BuildingBlock: PAMTOO_clean_sbu_0, # of connection points: 6
#     Node 8, Type 1, BuildingBlock: TAGTUT_clean_sbu_1, # of connection points: 8
#     Node 9, Type 1, BuildingBlock: TAGTUT_clean_sbu_1, # of connection points: 8
#     Node 10, Type 1, BuildingBlock: TAGTUT_clean_sbu_1, # of connection points: 8
#     Node 11, Type 1, BuildingBlock: TAGTUT_clean_sbu_1, # of connection points: 8
#     Node 12, Type 1, BuildingBlock: TAGTUT_clean_sbu_1, # of connection points: 8
#     Node 13, Type 1, BuildingBlock: TAGTUT_clean_sbu_1, # of connection points: 8
#     Edge 14, Type (0, 1), BuildingBlock: XIVTED_clean_linker_0, # of connection points: 2
#     Edge 15, Type (0, 1), BuildingBlock: XIVTED_clean_linker_0, # of connection points: 2
#     Edge 16, Type (0, 1), BuildingBlock: XIVTED_clean_linker_0, # of connection points: 2
#     Edge 17, Type (0, 1), BuildingBlock: XIVTED_clean_linker_0, # of connection points: 2
#     Edge 18, Type (0, 1), BuildingBlock: XIVTED_clean_linker_0, # of connection points: 2
#     Edge 19, Type (0, 1), BuildingBlock: XIVTED_clean_linker_0, # of connection points: 2
#     Edge 20, Type (0, 1), BuildingBlock: XIVTED_clean_linker_0, # of connection points: 2
#     Edge 21, Type (0, 1), BuildingBlock: XIVTED_clean_linker_0, # of connection points: 2
#     Edge 22, Type (0, 1), BuildingBlock: XIVTED_clean_linker_0, # of connection points: 2
#     Edge 23, Type (0, 1), BuildingBlock: XIVTED_clean_linker_0, # of connection points: 2
#     Edge 24, Type (0, 1), BuildingBlock: XIVTED_clean_linker_0, # of connection points: 2
#     Edge 25, Type (0, 1), BuildingBlock: XIVTED_clean_linker_0, # of connection points: 2
#     Edge 26, Type (0, 1), BuildingBlock: XIVTED_clean_linker_0, # of connection points: 2
#     Edge 27, Type (0, 1), BuildingBlock: XIVTED_clean_linker_0, # of connection points: 2
#     Edge 28, Type (0, 1), BuildingBlock: XIVTED_clean_linker_0, # of connection points: 2
#     Edge 29, Type (0, 1), BuildingBlock: XIVTED_clean_linker_0, # of connection points: 2
#     Edge 30, Type (0, 1), BuildingBlock: XIVTED_clean_linker_0, # of connection points: 2
#     Edge 31, Type (0, 1), BuildingBlock: XIVTED_clean_linker_0, # of connection points: 2
#     Edge 32, Type (0, 1), BuildingBlock: XIVTED_clean_linker_0, # of connection points: 2
#     Edge 33, Type (0, 1), BuildingBlock: XIVTED_clean_linker_0, # of connection points: 2
#     Edge 34, Type (0, 1), BuildingBlock: XIVTED_clean_linker_0, # of connection points: 2
#     Edge 35, Type (0, 1), BuildingBlock: XIVTED_clean_linker_0, # of connection points: 2
#     Edge 36, Type (0, 1), BuildingBlock: XIVTED_clean_linker_0, # of connection points: 2
#     Edge 37, Type (0, 1), BuildingBlock: XIVTED_clean_linker_0, # of connection points: 2
#     Edge 38, Type (0, 1), BuildingBlock: XIVTED_clean_linker_0, # of connection points: 2
#     Edge 39, Type (0, 1), BuildingBlock: XIVTED_clean_linker_0, # of connection points: 2
#     Edge 40, Type (0, 1), BuildingBlock: XIVTED_clean_linker_0, # of connection points: 2
#     Edge 41, Type (0, 1), BuildingBlock: XIVTED_clean_linker_0, # of connection points: 2
#     Edge 42, Type (0, 1), BuildingBlock: XIVTED_clean_linker_0, # of connection points: 2
#     Edge 43, Type (0, 1), BuildingBlock: XIVTED_clean_linker_0, # of connection points: 2
#     Edge 44, Type (0, 1), BuildingBlock: XIVTED_clean_linker_0, # of connection points: 2
#     Edge 45, Type (0, 1), BuildingBlock: XIVTED_clean_linker_0, # of connection points: 2
#     Edge 46, Type (0, 1), BuildingBlock: XIVTED_clean_linker_0, # of connection points: 2
#     Edge 47, Type (0, 1), BuildingBlock: XIVTED_clean_linker_0, # of connection points: 2
#     Edge 48, Type (0, 1), BuildingBlock: XIVTED_clean_linker_0, # of connection points: 2
#     Edge 49, Type (0, 1), BuildingBlock: XIVTED_clean_linker_0, # of connection points: 2
#     Edge 50, Type (0, 1), BuildingBlock: XIVTED_clean_linker_0, # of connection points: 2
#     Edge 51, Type (0, 1), BuildingBlock: XIVTED_clean_linker_0, # of connection points: 2
#     Edge 52, Type (0, 1), BuildingBlock: XIVTED_clean_linker_0, # of connection points: 2
#     Edge 53, Type (0, 1), BuildingBlock: XIVTED_clean_linker_0, # of connection points: 2
#     Edge 54, Type (0, 1), BuildingBlock: XIVTED_clean_linker_0, # of connection points: 2
#     Edge 55, Type (0, 1), BuildingBlock: XIVTED_clean_linker_0, # of connection points: 2
#     Edge 56, Type (0, 1), BuildingBlock: XIVTED_clean_linker_0, # of connection points: 2
#     Edge 57, Type (0, 1), BuildingBlock: XIVTED_clean_linker_0, # of connection points: 2
#     Edge 58, Type (0, 1), BuildingBlock: XIVTED_clean_linker_0, # of connection points: 2
#     Edge 59, Type (0, 1), BuildingBlock: XIVTED_clean_linker_0, # of connection points: 2
#     Edge 60, Type (0, 1), BuildingBlock: XIVTED_clean_linker_0, # of connection points: 2
#     Edge 61, Type (0, 1), BuildingBlock: XIVTED_clean_linker_0, # of connection points: 2
# Relax obj value: 0.216
# Max RMSD: 0.302
# Mean RMSD: 0.149
data_MOF--net-ocu--node1-PAMTOO_clean_sbu_0--node2-TAGTUT_clean_sbu_1--edge1-XIVTED_clean_linker_0
_symmetry_space_group_name_H-M    P1
_symmetry_Int_Tables_number       1
_symmetry_cell_setting            triclinic
loop_
_symmetry_equiv_pos_as_xyz
'x, y, z'
_cell_length_a     38.874969
_cell_length_b     39.670357
_cell_length_c     40.528972
_cell_angle_alpha  92.896797
_cell_angle_beta   94.406611
_cell_angle_gamma 107.49676
loop_
_atom_site_label
_atom_site_type_symbol
_atom_site_fract_x
_atom_site_fract_y
_atom_site_fract_z
_atom_type_partial_charge
Dy0 Dy 0.33252 0.30078 0.32834 0.0
Dy1 Dy 0.26212 0.28274 0.27618 0.0
C2 C 0.32702 0.24905 0.26061 0.0
O3 O 0.35512 0.33583 0.28808 0.0
O4 O 0.30382 0.32543 0.25238 0.0
O5 O 0.37718 0.33943 0.3574 0.0
O6 O 0.36597 0.28317 0.36373 0.0
O7 O 0.24897 0.31927 0.31508 0.0
O8 O 0.30147 0.3353 0.3499 0.0
O9 O 0.24021 0.24711 0.3168 0.0
O10 O 0.29239 0.25581 0.35087 0.0
O11 O 0.2149 0.24502 0.24931 0.0
O12 O 0.23127 0.30035 0.23848 0.0
C13 C 0.33873 0.34146 0.26025 0.0
O14 O 0.34708 0.26786 0.28699 0.0
O15 O 0.29303 0.24828 0.25439 0.0
C16 C 0.42614 0.31817 0.37072 0.0
C17 C 0.49468 0.30886 0.37304 0.0
C18 C 0.47352 0.30463 0.3425 0.0
C19 C 0.43926 0.30912 0.34137 0.0
C20 C 0.4483 0.32556 0.40058 0.0
C21 C 0.48241 0.32094 0.4018 0.0
C22 C 0.38805 0.31508 0.37142 0.0
C23 C 0.26863 0.33715 0.34201 0.0
C24 C 0.25734 0.24007 0.34368 0.0
C25 C 0.16976 0.27044 0.23253 0.0
C26 C 0.10545 0.28834 0.22673 0.0
C27 C 0.1261 0.2934 0.25762 0.0
C28 C 0.15825 0.28461 0.26048 0.0
C29 C 0.14778 0.26244 0.20254 0.0
C30 C 0.11575 0.27132 0.19959 0.0
C31 C 0.2068 0.26943 0.23284 0.0
H32 H 0.48245 0.29568 0.31993 0.0
H33 H 0.42219 0.30342 0.31807 0.0
H34 H 0.43827 0.33251 0.42337 0.0
H35 H 0.4977 0.32392 0.42583 0.0
H36 H 0.11863 0.30617 0.27898 0.0
H37 H 0.17523 0.29098 0.28382 0.0
H38 H 0.15663 0.25169 0.18077 0.0
H39 H 0.10082 0.26755 0.17531 0.0
Dy40 Dy 0.79941 0.28436 0.2794 0.0
Dy41 Dy 0.74521 0.29487 0.33032 0.0
C42 C 0.82667 0.34773 0.33671 0.0
O43 O 0.82183 0.26704 0.32594 0.0
O44 O 0.77148 0.25534 0.35423 0.0
O45 O 0.85064 0.28828 0.26051 0.0
O46 O 0.80149 0.24926 0.23792 0.0
O47 O 0.71224 0.26031 0.28635 0.0
O48 O 0.75517 0.2343 0.28403 0.0
O49 O 0.74035 0.3334 0.29212 0.0
O50 O 0.76568 0.31315 0.24921 0.0
O51 O 0.7036 0.27535 0.36319 0.0
O52 O 0.72278 0.33141 0.35509 0.0
C53 C 0.80423 0.25239 0.35051 0.0
O54 O 0.83077 0.33746 0.30617 0.0
O55 O 0.79856 0.33113 0.35175 0.0
C56 C 0.84813 0.27167 0.20429 0.0
C57 C 0.87949 0.30808 0.15217 0.0
C58 C 0.84211 0.30067 0.15437 0.0
C59 C 0.82651 0.28291 0.18074 0.0
C60 C 0.88386 0.27391 0.199 0.0
C61 C 0.89956 0.29199 0.17277 0.0
C62 C 0.83618 0.26342 0.23679 0.0
C63 C 0.72239 0.23403 0.27439 0.0
C64 C 0.74607 0.33268 0.26051 0.0
C65 C 0.71369 0.31639 0.4093 0.0
C66 C 0.73507 0.30886 0.47524 0.0
C67 C 0.69794 0.29924 0.46361 0.0
C68 C 0.68748 0.30251 0.43057 0.0
C69 C 0.74967 0.33308 0.42253 0.0
C70 C 0.76011 0.33024 0.45572 0.0
C71 C 0.70489 0.30757 0.37355 0.0
H72 H 0.82616 0.31305 0.13886 0.0
H73 H 0.79874 0.28118 0.18444 0.0
H74 H 0.90063 0.26501 0.21703 0.0
H75 H 0.92846 0.29759 0.17142 0.0
H76 H 0.67725 0.28455 0.4782 0.0
H77 H 0.65954 0.29102 0.42065 0.0
H78 H 0.77034 0.34534 0.40668 0.0
H79 H 0.78862 0.34034 0.46444 0.0
Dy80 Dy 0.85975 0.80713 0.28203 0.0
Dy81 Dy 0.84515 0.86664 0.23399 0.0
C82 C 0.89429 0.8851 0.30086 0.0
O83 O 0.82298 0.83017 0.30639 0.0
O84 O 0.79631 0.84915 0.26169 0.0
O85 O 0.87138 0.79681 0.33245 0.0
O86 O 0.86572 0.75639 0.29222 0.0
O87 O 0.82406 0.81312 0.20631 0.0
O88 O 0.80939 0.77935 0.25027 0.0
O89 O 0.89753 0.86166 0.22094 0.0
O90 O 0.8912 0.80611 0.23923 0.0
O91 O 0.81966 0.88 0.18978 0.0
O92 O 0.85555 0.92167 0.22426 0.0
C93 C 0.79736 0.84126 0.29272 0.0
O94 O 0.90359 0.85814 0.28949 0.0
O95 O 0.86727 0.8921 0.28457 0.0
C96 C 0.91125 0.76332 0.33631 0.0
C97 C 0.97712 0.75602 0.36224 0.0
C98 C 0.95588 0.76919 0.38286 0.0
C99 C 0.92311 0.77272 0.36997 0.0
C100 C 0.9334 0.75209 0.31528 0.0
C101 C 0.96614 0.74841 0.32822 0.0
C102 C 0.87646 0.76678 0.32346 0.0
C103 C 0.80629 0.78342 0.21845 0.0
C104 C 0.90618 0.83228 0.22135 0.0
C105 C 0.80043 0.92811 0.2026 0.0
C106 C 0.73059 0.93304 0.20396 0.0
C107 C 0.74766 0.93765 0.1745 0.0
C108 C 0.78254 0.93522 0.17383 0.0
C109 C 0.78434 0.92614 0.2327 0.0
C110 C 0.74944 0.92874 0.23338 0.0
C111 C 0.83035 0.91366 0.19943 0.0
H112 H 0.96337 0.77466 0.40934 0.0
H113 H 0.90663 0.78202 0.38645 0.0
H114 H 0.92521 0.74542 0.28902 0.0
H115 H 0.98214 0.73824 0.31192 0.0
H116 H 0.73318 0.94113 0.15162 0.0
H117 H 0.79434 0.93609 0.15039 0.0
H118 H 0.7976 0.91995 0.25506 0.0
H119 H 0.73641 0.92517 0.2562 0.0
Dy120 Dy 0.26919 0.81606 0.28738 0.0
Dy121 Dy 0.33333 0.78204 0.30329 0.0
C122 C 0.33975 0.85614 0.33824 0.0
O123 O 0.30173 0.82801 0.24336 0.0
O124 O 0.35519 0.82634 0.26947 0.0
O125 O 0.24912 0.85539 0.26472 0.0
O126 O 0.21668 0.82015 0.2971 0.0
O127 O 0.29431 0.74251 0.2659 0.0
O128 O 0.24887 0.76737 0.25348 0.0
O129 O 0.2904 0.75016 0.33326 0.0
O130 O 0.25259 0.78458 0.33244 0.0
O131 O 0.36385 0.75609 0.33425 0.0
O132 O 0.37959 0.77045 0.28552 0.0
C133 C 0.33732 0.83666 0.24495 0.0
O134 O 0.31646 0.85863 0.31411 0.0
O135 O 0.34521 0.82577 0.34321 0.0
C136 C 0.2218 0.87985 0.30416 0.0
C137 C 0.22421 0.93784 0.34743 0.0
C138 C 0.25207 0.92228 0.35013 0.0
C139 C 0.25031 0.89308 0.32922 0.0
C140 C 0.19425 0.89561 0.30057 0.0
C141 C 0.19523 0.92435 0.32239 0.0
C142 C 0.22177 0.84948 0.28251 0.0
C143 C 0.26339 0.74179 0.24993 0.0
C144 C 0.26223 0.75776 0.34378 0.0
C145 C 0.37778 0.71428 0.29908 0.0
C146 C 0.36713 0.65376 0.25641 0.0
C147 C 0.3372 0.66184 0.2677 0.0
C148 C 0.34254 0.69165 0.28945 0.0
C149 C 0.40767 0.70453 0.2902 0.0
C150 C 0.40236 0.67409 0.26922 0.0
C151 C 0.38242 0.75111 0.31003 0.0
H152 H 0.27479 0.93199 0.36897 0.0
H153 H 0.27099 0.88046 0.33318 0.0
H154 H 0.17179 0.88529 0.28156 0.0
H155 H 0.17274 0.93514 0.32034 0.0
H156 H 0.3099 0.64668 0.25782 0.0
H157 H 0.31912 0.69875 0.29629 0.0
H158 H 0.43495 0.72198 0.29701 0.0
H159 H 0.42584 0.66858 0.2603 0.0
Dy160 Dy 0.3409 0.79069 0.75684 0.0
Dy161 Dy 0.30409 0.81455 0.81596 0.0
C162 C 0.37783 0.86733 0.78913 0.0
O163 O 0.37325 0.77791 0.8011 0.0
O164 O 0.33283 0.77734 0.83918 0.0
O165 O 0.38122 0.77684 0.7308 0.0
O166 O 0.32455 0.75862 0.71054 0.0
O167 O 0.26253 0.76326 0.79742 0.0
O168 O 0.30574 0.74295 0.77706 0.0
O169 O 0.27029 0.82619 0.77285 0.0
O170 O 0.30905 0.82599 0.73347 0.0
O171 O 0.27496 0.84788 0.83622 0.0
O172 O 0.30157 0.81982 0.86875 0.0
C173 C 0.36158 0.76921 0.8302 0.0
O174 O 0.38125 0.8436 0.76719 0.0
O175 O 0.35167 0.86075 0.80873 0.0
C176 C 0.36964 0.76955 0.67368 0.0
C177 C 0.40689 0.80028 0.62165 0.0
C178 C 0.37738 0.81069 0.63105 0.0
C179 C 0.35893 0.79554 0.65729 0.0
C180 C 0.39677 0.75681 0.66222 0.0
C181 C 0.41553 0.77228 0.6363 0.0
C182 C 0.3579 0.76022 0.70595 0.0
C183 C 0.27313 0.73701 0.78593 0.0
C184 C 0.28048 0.8341 0.74328 0.0
C185 C 0.24576 0.82335 0.8816 0.0
C186 C 0.18786 0.77916 0.91053 0.0
C187 C 0.18423 0.78412 0.87659 0.0
C188 C 0.21324 0.80578 0.86207 0.0
C189 C 0.24827 0.82105 0.9159 0.0
C190 C 0.21956 0.79889 0.93032 0.0
C191 C 0.27887 0.83809 0.86605 0.0
H192 H 0.37096 0.83284 0.62039 0.0
H193 H 0.33834 0.80598 0.6663 0.0
H194 H 0.40543 0.73701 0.67506 0.0
H195 H 0.43861 0.76443 0.6295 0.0
H196 H 0.15995 0.76946 0.8609 0.0
H197 H 0.21097 0.80686 0.83535 0.0
H198 H 0.27345 0.83406 0.93108 0.0
H199 H 0.22353 0.79506 0.95644 0.0
Dy200 Dy 0.3449 0.32381 0.77491 0.0
Dy201 Dy 0.26939 0.27795 0.80073 0.0
C202 C 0.29398 0.25592 0.73359 0.0
O203 O 0.30689 0.35266 0.75535 0.0
O204 O 0.25214 0.31406 0.76651 0.0
O205 O 0.37744 0.354 0.7395 0.0
O206 O 0.40314 0.34247 0.78489 0.0
O207 O 0.28113 0.32894 0.83144 0.0
O208 O 0.3407 0.35399 0.82105 0.0
O209 O 0.31377 0.2716 0.83579 0.0
O210 O 0.35302 0.27487 0.79679 0.0
O211 O 0.23978 0.2489 0.83839 0.0
O212 O 0.21401 0.24527 0.78844 0.0
C213 C 0.27117 0.34205 0.75252 0.0
O214 O 0.31423 0.28843 0.73194 0.0
O215 O 0.28471 0.24429 0.76226 0.0
C216 C 0.4287 0.33481 0.73535 0.0
C217 C 0.45875 0.28989 0.69979 0.0
C218 C 0.43522 0.30557 0.68322 0.0
C219 C 0.42037 0.32789 0.70081 0.0
C220 C 0.45372 0.32052 0.75161 0.0
C221 C 0.46848 0.29808 0.734 0.0
C222 C 0.40746 0.35217 0.75482 0.0
C223 C 0.31271 0.35343 0.83738 0.0
C224 C 0.34238 0.26498 0.82579 0.0
C225 C 0.18041 0.25023 0.83327 0.0
C226 C 0.13928 0.28346 0.86874 0.0
C227 C 0.14804 0.29353 0.83704 0.0
C228 C 0.16871 0.27717 0.81945 0.0
C229 C 0.16956 0.2386 0.86397 0.0
C230 C 0.14922 0.25526 0.88173 0.0
C231 C 0.20935 0.23938 0.8194 0.0
H232 H 0.42787 0.3002 0.65672 0.0
H233 H 0.40126 0.33855 0.68749 0.0
H234 H 0.46059 0.3253 0.77821 0.0
H235 H 0.4864 0.28611 0.74742 0.0
H236 H 0.14102 0.31561 0.82685 0.0
H237 H 0.17737 0.28715 0.79609 0.0
H238 H 0.17886 0.21826 0.87517 0.0
H239 H 0.14258 0.24721 0.9062 0.0
Dy240 Dy 0.76676 0.29883 0.76686 0.0
Dy241 Dy 0.8292 0.27597 0.80777 0.0
C242 C 0.81055 0.34502 0.83157 0.0
O243 O 0.81823 0.33678 0.75472 0.0
O244 O 0.85612 0.30348 0.76506 0.0
O245 O 0.74683 0.33861 0.74526 0.0
O246 O 0.71461 0.2834 0.73783 0.0
O247 O 0.79968 0.23079 0.77088 0.0
O248 O 0.78619 0.26508 0.73182 0.0
O249 O 0.78205 0.26363 0.83857 0.0
O250 O 0.73742 0.25462 0.79636 0.0
O251 O 0.84496 0.24863 0.84831 0.0
O252 O 0.88408 0.27371 0.81505 0.0
C253 C 0.84905 0.33042 0.75165 0.0
O254 O 0.77781 0.33049 0.81636 0.0
O255 O 0.8369 0.33149 0.82697 0.0
C256 C 0.68597 0.32588 0.7524 0.0
C257 C 0.65754 0.35817 0.80188 0.0
C258 C 0.65616 0.32246 0.80293 0.0
C259 C 0.67023 0.30639 0.77833 0.0
C260 C 0.68289 0.35988 0.74897 0.0
C261 C 0.66884 0.37604 0.7737 0.0
C262 C 0.71476 0.31628 0.73673 0.0
C263 C 0.79219 0.23565 0.73978 0.0
C264 C 0.74792 0.25002 0.82685 0.0
C265 C 0.88015 0.21577 0.82604 0.0
C266 C 0.88591 0.15791 0.78644 0.0
C267 C 0.91714 0.1857 0.79869 0.0
C268 C 0.91425 0.21442 0.8184 0.0
C269 C 0.84932 0.18668 0.81601 0.0
C270 C 0.85221 0.15797 0.7965 0.0
C271 C 0.87556 0.24997 0.83655 0.0
H272 H 0.64782 0.308 0.8244 0.0
H273 H 0.67242 0.28019 0.78179 0.0
H274 H 0.69508 0.37538 0.72925 0.0
H275 H 0.66957 0.40342 0.77212 0.0
H276 H 0.94346 0.1867 0.79097 0.0
H277 H 0.93821 0.23686 0.82533 0.0
H278 H 0.8225 0.18716 0.82106 0.0
H279 H 0.82776 0.13679 0.78771 0.0
Dy280 Dy 0.81967 0.80835 0.81942 0.0
Dy281 Dy 0.75519 0.78116 0.76247 0.0
C282 C 0.82847 0.75316 0.75886 0.0
O283 O 0.84276 0.84019 0.77727 0.0
O284 O 0.79085 0.83072 0.74291 0.0
O285 O 0.86422 0.85079 0.84468 0.0
O286 O 0.84592 0.79994 0.86544 0.0
O287 O 0.73222 0.81709 0.79524 0.0
O288 O 0.78039 0.83836 0.83483 0.0
O289 O 0.73084 0.75279 0.80572 0.0
O290 O 0.78303 0.75866 0.83825 0.0
O291 O 0.70989 0.73805 0.73904 0.0
O292 O 0.72882 0.7874 0.71578 0.0
C293 C 0.82567 0.84694 0.75038 0.0
O294 O 0.84354 0.77393 0.78615 0.0
O295 O 0.79464 0.75058 0.74776 0.0
C296 C 0.90735 0.82909 0.87307 0.0
C297 C 0.96784 0.80534 0.88425 0.0
C298 C 0.95115 0.81527 0.91115 0.0
C299 C 0.92111 0.82711 0.90554 0.0
C300 C 0.92558 0.82211 0.84626 0.0
C301 C 0.95589 0.81057 0.85186 0.0
C302 C 0.87049 0.83079 0.86747 0.0
C303 C 0.74712 0.83693 0.82315 0.0
C304 C 0.7477 0.74474 0.83198 0.0
C305 C 0.66738 0.75781 0.7072 0.0
C306 C 0.61057 0.78286 0.68434 0.0
C307 C 0.62325 0.78781 0.71826 0.0
C308 C 0.65189 0.7757 0.72957 0.0
C309 C 0.65143 0.74836 0.67466 0.0
C310 C 0.62313 0.76076 0.66323 0.0
C311 C 0.7042 0.75663 0.71479 0.0
H312 H 0.95913 0.81095 0.9364 0.0
H313 H 0.90688 0.83189 0.92639 0.0
H314 H 0.91489 0.8231 0.82095 0.0
H315 H 0.96841 0.80344 0.83072 0.0
H316 H 0.61359 0.80403 0.73531 0.0
H317 H 0.66406 0.78316 0.75488 0.0
H318 H 0.66326 0.73459 0.65716 0.0
H319 H 0.61431 0.7564 0.63694 0.0
C320 C 0.95268 0.08069 0.57997 0.0
C321 C 0.94805 0.11768 0.48764 0.0
C322 C 0.98426 0.9622 0.52437 0.0
Mg323 Mg 1.01296 0.11826 0.53977 0.0
O324 O 1.0125 0.07257 0.52299 0.0
Mg325 Mg 0.96295 0.03743 0.50715 0.0
Mg326 Mg 0.04052 0.04262 0.54808 0.0
O327 O 0.06793 1.01236 0.5726 0.0
Mg328 Mg 0.06057 0.96266 0.55944 0.0
Mg329 Mg 0.11713 0.04883 0.58921 0.0
C330 C 0.09192 0.1231 0.57461 0.0
C331 C 0.11761 0.07477 0.51001 0.0
O332 O 0.94314 0.05467 0.55745 0.0
O333 O 0.98026 0.10746 0.5788 0.0
O334 O 0.93647 0.08363 0.48971 0.0
O335 O 0.97942 0.13608 0.50176 0.0
O336 O 0.07003 0.13857 0.56127 0.0
O337 O 0.08295 0.08916 0.57618 0.0
C338 C 0.96663 1.00986 0.58645 0.0
O339 O 1.00116 0.02437 0.59005 0.0
O340 O 0.94809 1.01409 0.55987 0.0
O341 O 0.11009 1.01363 0.54254 0.0
O342 O 0.08295 0.96357 0.51365 0.0
O343 O 0.14465 1.00266 0.60544 0.0
C344 C 0.10616 0.99381 0.5162 0.0
O345 O 0.10083 0.94977 0.59585 0.0
O346 O 1.00298 0.94574 0.54104 0.0
C347 C 0.13301 0.96859 0.60831 0.0
O348 O 0.99604 0.99585 0.52098 0.0
O349 O 0.08263 0.06163 0.50677 0.0
O350 O 0.13585 0.07103 0.53691 0.0
C351 C 0.44139 0.12628 0.08865 0.0
C352 C 0.46288 0.13698 0.98482 0.0
C353 C 0.46331 0.99688 0.97533 0.0
Mg354 Mg 0.51001 0.13225 0.0495 0.0
O355 O 0.49339 0.08264 0.04405 0.0
Mg356 Mg 0.44132 0.06171 0.02586 0.0
Mg357 Mg 0.51903 0.05065 0.02135 0.0
O358 O 0.54459 1.01738 0.99754 0.0
Mg359 Mg 0.52585 0.96648 0.9946 0.0
Mg360 Mg 0.59567 0.03785 0.01928 0.0
C361 C 0.58482 0.1094 0.06591 0.0
C362 C 0.58024 0.09656 0.97267 0.0
O363 O 0.42417 0.09859 0.06875 0.0
O364 O 0.47527 0.14188 0.08686 0.0
O365 O 0.44334 0.10551 0.98913 0.0
O366 O 0.49166 0.1525 1.00406 0.0
O367 O 0.56562 0.131 0.06441 0.0
O368 O 0.57216 0.07637 0.05431 0.0
C369 C 0.45932 1.00221 0.0723 0.0
O370 O 0.49123 1.00809 0.06188 0.0
O371 O 0.43838 1.01929 0.06135 0.0
O372 O 0.61503 0.99612 0.981 0.0
O373 O 0.56487 0.95256 0.96112 0.0
O374 O 0.5853 0.99858 0.05821 0.0
C375 C 0.59956 0.96717 0.96183 0.0
O376 O 0.53771 0.95105 0.04286 0.0
O377 O 0.47202 0.97586 0.99496 0.0
C378 C 0.56303 0.96921 0.06418 0.0
O379 O 0.46608 0.02861 0.98658 0.0
O380 O 0.5485 0.09196 0.98305 0.0
O381 O 0.60096 0.07855 0.9823 0.0
C382 C 0.9775 0.66522 0.08737 0.0
C383 C 1.01538 0.63121 1.00366 0.0
C384 C 0.92564 0.49778 1.01303 0.0
Mg385 Mg 1.02964 0.62383 0.07769 0.0
O386 O 0.98924 0.58396 0.07874 0.0
Mg387 Mg 0.94643 0.58587 0.04382 0.0
Mg388 Mg 0.99735 0.53731 0.06526 0.0
O389 O 1.01312 0.50041 0.04287 0.0
Mg390 Mg 0.97939 0.45547 0.03694 0.0
Mg391 Mg 0.06069 0.50679 0.06886 0.0
C392 C 0.07481 0.58004 0.11174 0.0
C393 C 0.06573 0.56977 0.02331 0.0
O394 O 0.9533 0.64282 0.06704 0.0
O395 O 1.00776 0.6609 0.09704 0.0
O396 O 0.98309 0.61076 1.0042 0.0
O397 O 0.03785 0.63942 0.02937 0.0
O398 O 0.07172 0.61015 0.10497 0.0
O399 O 0.04996 0.55067 0.10233 0.0
C400 C 0.93415 0.55567 0.10185 0.0
O401 O 0.96758 0.57155 0.096 0.0
O402 O 0.91016 0.56372 0.08383 0.0
O403 O 0.06596 0.4633 0.03153 0.0
O404 O 1.01025 0.43348 1.00696 0.0
O405 O 1.03597 0.46487 0.10278 0.0
C406 C 0.04462 0.43977 1.01017 0.0
O407 O 0.97999 0.43217 0.08273 0.0
O408 O 0.93264 0.46833 1.01536 0.0
C409 C 1.00679 0.43993 0.10488 0.0
O410 O 0.94733 0.52719 0.02695 0.0
O411 O 1.03468 0.57047 0.03126 0.0
O412 O 0.08193 0.54867 0.03476 0.0
C413 C 0.48849 0.61676 0.08206 0.0
C414 C 0.48158 0.62328 0.97937 0.0
C415 C 0.48501 0.4783 1.01156 0.0
Mg416 Mg 0.53935 0.63034 0.04303 0.0
O417 O 0.515 0.57905 0.04878 0.0
Mg418 Mg 0.46145 0.54772 0.02787 0.0
Mg419 Mg 0.54566 0.54554 0.04733 0.0
O420 O 0.57493 0.51183 0.04372 0.0
Mg421 Mg 0.55671 0.46345 0.04885 0.0
Mg422 Mg 0.6253 0.53817 0.06296 0.0
C423 C 0.61059 0.61272 0.07872 0.0
C424 C 0.61125 0.5838 0.99942 0.0
O425 O 0.49629 0.59103 0.06684 0.0
O426 O 0.51069 0.64761 0.08119 0.0
O427 O 0.46385 0.59192 0.9873 0.0
O428 O 0.51235 0.64087 0.9953 0.0
O429 O 0.59449 0.63256 0.06359 0.0
O430 O 0.59527 0.57958 0.08215 0.0
C431 C 0.477 0.50165 0.09143 0.0
O432 O 0.51187 0.51307 0.09047 0.0
O433 O 0.45593 0.51055 0.07007 0.0
O434 O 0.64348 0.49678 0.03166 0.0
O435 O 0.5922 0.45149 1.01708 0.0
O436 O 0.62524 0.5002 0.10846 0.0
C437 C 0.62592 0.46706 1.01544 0.0
O438 O 0.58107 0.44907 0.0955 0.0
O439 O 0.5012 0.45716 0.02443 0.0
C440 C 0.6098 0.46744 0.11376 0.0
O441 O 0.49915 0.51224 1.0135 0.0
O442 O 0.57727 0.57675 1.00343 0.0
O443 O 0.63164 0.57191 0.01867 0.0
C444 C 0.98074 0.6224 0.6262 0.0
C445 C 0.03778 0.6325 0.53348 0.0
C446 C 1.00625 0.48668 0.51908 0.0
Mg447 Mg 0.05913 0.62279 0.60623 0.0
O448 O 0.04171 0.57572 0.58818 0.0
Mg449 Mg 0.99242 0.5581 0.56446 0.0
Mg450 Mg 0.0698 0.5461 0.56419 0.0
O451 O 0.09774 0.51467 0.54332 0.0
Mg452 Mg 0.08182 0.46501 0.5393 0.0
Mg453 Mg 0.1493 0.53573 0.56362 0.0
C454 C 0.12578 0.59 0.62569 0.0
C455 C 0.13173 0.59464 0.51497 0.0
O456 O 0.96798 0.59653 0.60302 0.0
O457 O 1.0153 0.63487 0.63313 0.0
O458 O 1.01129 0.60373 0.53216 0.0
O459 O 0.06027 0.64461 0.55921 0.0
O460 O 0.10608 0.61045 0.6309 0.0
O461 O 0.12144 0.56967 0.59893 0.0
C462 C 1.00705 0.49903 0.61065 0.0
O463 O 0.03957 0.50463 0.60174 0.0
O464 O 0.98546 0.51545 0.59913 0.0
O465 O 0.16842 0.49779 0.52256 0.0
O466 O 0.11724 0.45527 0.50303 0.0
O467 O 0.1475 0.49344 0.60124 0.0
C468 C 0.15142 0.47016 0.5024 0.0
O469 O 0.10153 0.44488 0.58475 0.0
O470 O 1.02628 0.46592 0.52247 0.0
C471 C 0.12949 0.46133 0.6047 0.0
O472 O 1.01785 0.52012 0.52975 0.0
O473 O 0.09945 0.58906 0.5247 0.0
O474 O 0.15241 0.5775 0.52666 0.0
C475 C 0.56489 0.13511 0.56886 0.0
C476 C 0.60857 0.15845 0.47699 0.0
C477 C 0.55588 0.02337 0.43989 0.0
Mg478 Mg 0.63452 0.13238 0.54085 0.0
O479 O 0.60496 0.08645 0.52747 0.0
Mg480 Mg 0.55839 0.08153 0.50006 0.0
Mg481 Mg 0.62771 0.06166 0.49674 0.0
O482 O 0.64484 0.0256 0.46999 0.0
Mg483 Mg 0.60889 0.98111 0.45873 0.0
Mg484 Mg 0.68567 1.01773 0.5038 0.0
C485 C 0.69458 0.0941 0.55431 0.0
C486 C 0.70215 0.06886 0.46119 0.0
O487 O 0.5462 0.11436 0.54413 0.0
O488 O 0.59945 0.14405 0.57326 0.0
O489 O 0.5807 0.13128 0.47467 0.0
O490 O 0.63365 0.16455 0.50059 0.0
O491 O 0.68362 0.12129 0.55888 0.0
O492 O 0.67624 0.06701 0.53487 0.0
C493 C 0.55953 1.00934 0.52837 0.0
O494 O 0.59164 1.01447 0.51964 0.0
O495 O 0.54156 0.03125 0.52455 0.0
O496 O 0.68843 0.97164 0.46819 0.0
O497 O 0.63851 0.95611 0.43187 0.0
O498 O 0.6468 0.97832 0.53307 0.0
C499 C 0.6696 0.95406 0.44198 0.0
O500 O 0.59689 0.94995 0.50006 0.0
O501 O 0.56465 0.99507 0.43523 0.0
C502 C 0.61632 0.95424 0.52754 0.0
O503 O 0.57603 0.05008 0.45903 0.0
O504 O 0.66807 0.04955 0.45995 0.0
O505 O 0.72453 0.05433 0.47339 0.0
H506 H 0.2832 0.21852 0.40208 0.0
H507 H 0.08986 0.09295 0.45004 0.0
H508 H 0.18357 0.20194 0.34002 0.0
H509 H 0.19153 0.10669 0.50783 0.0
H510 H 0.12268 0.13165 0.40955 0.0
H511 H 0.24978 0.17786 0.44044 0.0
C512 C 0.25431 0.20633 0.39626 0.0
C513 C 0.23663 0.21408 0.3672 0.0
C514 C 0.1379 0.12606 0.43096 0.0
C515 C 0.19736 0.16656 0.41209 0.0
C516 C 0.11907 0.10365 0.45422 0.0
C517 C 0.13756 0.09588 0.48285 0.0
C518 C 0.1759 0.14137 0.43594 0.0
C519 C 0.17564 0.11136 0.48643 0.0
C520 C 0.23508 0.18291 0.41842 0.0
C521 C 0.19881 0.19707 0.36177 0.0
N522 N 0.19321 0.13311 0.46363 0.0
N523 N 0.18069 0.17442 0.38377 0.0
H524 H 0.77569 0.20003 0.39457 0.0
H525 H 0.97072 0.1826 0.46126 0.0
H526 H 0.87658 0.25759 0.35849 0.0
H527 H 0.87287 0.09729 0.4687 0.0
H528 H 0.93526 0.21398 0.42985 0.0
H529 H 0.80858 0.16628 0.4275 0.0
C530 C 0.80464 0.20595 0.39365 0.0
C531 C 0.82297 0.23215 0.37331 0.0
C532 C 0.92133 0.18842 0.4383 0.0
C533 C 0.86129 0.19333 0.4117 0.0
C534 C 0.94172 0.1703 0.45647 0.0
C535 C 0.92528 0.13676 0.46792 0.0
C536 C 0.88345 0.17377 0.43161 0.0
C537 C 0.88721 0.1228 0.46043 0.0
C538 C 0.82347 0.18639 0.41243 0.0
C539 C 0.86074 0.23791 0.37344 0.0
N540 N 0.86777 0.14131 0.44314 0.0
N541 N 0.87828 0.21913 0.39216 0.0
H542 H 0.86607 0.92832 0.33799 0.0
H543 H 0.96821 0.89256 0.50298 0.0
H544 H 0.93686 0.86275 0.34564 0.0
H545 H 0.92594 0.98099 0.49613 0.0
H546 H 0.93454 0.86686 0.4501 0.0
H547 H 0.87178 0.93713 0.39868 0.0
C548 C 0.88308 0.9161 0.35236 0.0
C549 C 0.9014 0.89512 0.33673 0.0
C550 C 0.93221 0.89172 0.46043 0.0
C551 C 0.90681 0.90401 0.40576 0.0
C552 C 0.95111 0.90629 0.49089 0.0
C553 C 0.95221 0.94051 0.50268 0.0
C554 C 0.91453 0.91164 0.44191 0.0
C555 C 0.92841 0.95616 0.48648 0.0
C556 C 0.88582 0.92068 0.38691 0.0
C557 C 0.92254 0.87943 0.35654 0.0
N558 N 0.91138 0.94222 0.45616 0.0
N559 N 0.92463 0.8842 0.39 0.0
H560 H 0.24495 0.94137 0.41381 0.0
H561 H 0.0925 1.00079 0.45098 0.0
H562 H 0.20081 0.99589 0.33988 0.0
H563 H 0.17814 1.01108 0.52849 0.0
H564 H 0.13695 1.0104 0.41014 0.0
H565 H 0.22987 0.97712 0.45689 0.0
C566 C 0.2333 0.96178 0.40651 0.0
C567 C 0.22316 0.965 0.37309 0.0
C568 C 0.14626 1.01151 0.43617 0.0
C569 C 0.20475 1.00519 0.42253 0.0
C570 C 0.12085 1.00534 0.45913 0.0
C571 C 0.13212 1.00373 0.49228 0.0
C572 C 0.18238 1.01425 0.44669 0.0
C573 C 0.16889 1.01119 0.50259 0.0
C574 C 0.22472 0.98233 0.43128 0.0
C575 C 0.20774 0.99167 0.36538 0.0
N576 N 0.19288 1.01504 0.47959 0.0
N577 N 0.19791 1.01011 0.39002 0.0
H578 H 0.2108 0.83731 0.74748 0.0
H579 H 0.20902 0.98536 0.61845 0.0
H580 H 0.30096 0.87626 0.68963 0.0
H581 H 0.11172 0.90825 0.64257 0.0
H582 H 0.24524 0.95302 0.64901 0.0
H583 H 0.17695 0.86952 0.71493 0.0
C584 C 0.22369 0.8525 0.72788 0.0
C585 C 0.25918 0.85328 0.72156 0.0
C586 C 0.21596 0.94317 0.64765 0.0
C587 C 0.2198 0.89192 0.68384 0.0
C588 C 0.19508 0.96184 0.63023 0.0
C589 C 0.15673 0.94991 0.62753 0.0
C590 C 0.19879 0.91254 0.66363 0.0
C591 C 0.14092 0.91883 0.6435 0.0
C592 C 0.20408 0.87106 0.70914 0.0
C593 C 0.27376 0.87414 0.69559 0.0
N594 N 0.16169 0.90181 0.66086 0.0
N595 N 0.25437 0.89265 0.67813 0.0
H596 H 0.28412 0.28241 0.67421 0.0
H597 H 0.11473 0.19489 0.59066 0.0
H598 H 0.25717 0.18501 0.72345 0.0
H599 H 0.15275 0.10344 0.59232 0.0
H600 H 0.17164 0.22964 0.6224 0.0
H601 H 0.23973 0.25267 0.62774 0.0
C602 C 0.26959 0.25452 0.67491 0.0
C603 C 0.27398 0.23612 0.70289 0.0
C604 C 0.16751 0.20197 0.61505 0.0
C605 C 0.22346 0.20251 0.65008 0.0
C606 C 0.13499 0.18203 0.59716 0.0
C607 C 0.12804 0.14549 0.58962 0.0
C608 C 0.19292 0.18506 0.62551 0.0
C609 C 0.15559 0.13062 0.59854 0.0
C610 C 0.24408 0.23785 0.64855 0.0
C611 C 0.25435 0.20015 0.70248 0.0
N612 N 0.18645 0.15019 0.61664 0.0
N613 N 0.22972 0.18445 0.67641 0.0
H614 H 0.83913 0.13318 0.73059 0.0
H615 H 0.98794 0.08164 0.63958 0.0
H616 H 0.9377 0.12443 0.7809 0.0
H617 H 0.88193 0.07044 0.59146 0.0
H618 H 0.96527 0.0861 0.69339 0.0
H619 H 0.84873 0.09977 0.68205 0.0
C620 C 0.86227 0.12334 0.73181 0.0
C621 C 0.88792 0.13197 0.75973 0.0
C622 C 0.94661 0.08202 0.67124 0.0
C623 C 0.8995 0.09441 0.7039 0.0
C624 C 0.95961 0.07962 0.64059 0.0
C625 C 0.93675 0.0765 0.61147 0.0
C626 C 0.91077 0.08238 0.67262 0.0
C627 C 0.90026 0.07331 0.61365 0.0
C628 C 0.86782 0.10437 0.70396 0.0
C629 C 0.91766 0.11899 0.75965 0.0
N630 N 0.88846 0.07721 0.6439 0.0
N631 N 0.92295 0.10134 0.73193 0.0
H632 H 0.80142 0.86368 0.68934 0.0
H633 H 0.99373 0.99548 0.64816 0.0
H634 H 0.89772 0.8891 0.75785 0.0
H635 H 0.89369 0.97527 0.58569 0.0
H636 H 0.96023 0.95722 0.6886 0.0
H637 H 0.83556 0.90402 0.65128 0.0
C638 C 0.82968 0.87787 0.69662 0.0
C639 C 0.84636 0.87277 0.72726 0.0
C640 C 0.94558 0.96134 0.66612 0.0
C641 C 0.88625 0.91965 0.68305 0.0
C642 C 0.96475 0.98339 0.64297 0.0
C643 C 0.94674 0.98911 0.61324 0.0
C644 C 0.90796 0.94445 0.65962 0.0
C645 C 0.90904 0.97213 0.60812 0.0
C646 C 0.8493 0.90102 0.6747 0.0
C647 C 0.8834 0.89199 0.73471 0.0
N648 N 0.89118 0.95073 0.63078 0.0
N649 N 0.90195 0.91438 0.71291 0.0
H650 H 0.39876 0.25061 0.25849 0.0
H651 H 0.36712 0.11243 0.09619 0.0
H652 H 0.29334 0.2024 0.20561 0.0
H653 H 0.47218 0.17695 0.14045 0.0
H654 H 0.33889 0.1411 0.13731 0.0
H655 H 0.42504 0.22047 0.21751 0.0
C656 C 0.38093 0.23349 0.23852 0.0
C657 C 0.34345 0.22917 0.23617 0.0
C658 C 0.36814 0.14891 0.13806 0.0
C659 C 0.37394 0.19392 0.18821 0.0
C660 C 0.38439 0.13235 0.11452 0.0
C661 C 0.42243 0.1419 0.11437 0.0
C662 C 0.38984 0.17519 0.16223 0.0
C663 C 0.44288 0.16833 0.13906 0.0
C664 C 0.3961 0.21626 0.21484 0.0
C665 C 0.32226 0.20667 0.209 0.0
N666 N 0.42654 0.18368 0.16166 0.0
N667 N 0.33763 0.19 0.18642 0.0
H668 H 0.92985 0.363 0.1861 0.0
H669 H 0.87674 0.49905 0.07626 0.0
H670 H 0.86805 0.33021 0.09052 0.0
H671 H 0.97496 0.52874 0.14307 0.0
H672 H 0.86984 0.43686 0.08372 0.0
H673 H 0.94474 0.42419 0.17265 0.0
C674 C 0.92067 0.3686 0.16164 0.0
C675 C 0.89812 0.34163 0.13905 0.0
C676 C 0.89275 0.45708 0.09682 0.0
C677 C 0.9142 0.41151 0.12408 0.0
C678 C 0.89639 0.49249 0.09309 0.0
C679 C 0.9261 0.51888 0.10974 0.0
C680 C 0.9185 0.44834 0.11787 0.0
C681 C 0.95135 0.50903 0.13039 0.0
C682 C 0.9287 0.40357 0.15426 0.0
C683 C 0.88602 0.35041 0.1082 0.0
N684 N 0.94682 0.47436 0.13412 0.0
N685 N 0.89391 0.38493 0.10167 0.0
H686 H 0.69946 0.98158 0.22592 0.0
H687 H 0.55139 0.90089 0.08027 0.0
H688 H 0.67544 0.87698 0.17725 0.0
H689 H 0.58508 1.00919 0.12214 0.0
H690 H 0.57633 0.88348 0.13166 0.0
H691 H 0.6389 0.98281 0.20583 0.0
C692 C 0.68072 0.95837 0.2121 0.0
C693 C 0.69208 0.9295 0.20243 0.0
C694 C 0.57723 0.91089 0.13001 0.0
C695 C 0.62399 0.93093 0.17859 0.0
C696 C 0.56302 0.92073 0.10073 0.0
C697 C 0.56777 0.95659 0.09685 0.0
C698 C 0.59634 0.9373 0.15497 0.0
C699 C 0.58235 0.98139 0.12398 0.0
C700 C 0.64628 0.959 0.20054 0.0
C701 C 0.66735 0.89991 0.18456 0.0
N702 N 0.59694 0.97141 0.15172 0.0
N703 N 0.63459 0.9017 0.17242 0.0
H704 H 0.2462 0.67284 0.26473 0.0
H705 H 0.14009 0.59957 0.08763 0.0
H706 H 0.23385 0.73905 0.18639 0.0
H707 H 0.08866 0.56793 0.17623 0.0
H708 H 0.19488 0.63495 0.12188 0.0
H709 H 0.20646 0.62068 0.23003 0.0
C710 C 0.23577 0.67618 0.23994 0.0
C711 C 0.24312 0.71006 0.22821 0.0
C712 C 0.17213 0.61899 0.13377 0.0
C713 C 0.19917 0.65098 0.18852 0.0
C714 C 0.14106 0.59847 0.1143 0.0
C715 C 0.10973 0.58131 0.12921 0.0
C716 C 0.17203 0.62154 0.16834 0.0
C717 C 0.11233 0.58076 0.16385 0.0
C718 C 0.21322 0.64657 0.22034 0.0
C719 C 0.22869 0.7133 0.19622 0.0
N720 N 0.14278 0.60139 0.18244 0.0
N721 N 0.20749 0.68406 0.17738 0.0
H722 H 0.36776 0.93166 0.79716 0.0
H723 H 0.48799 0.94603 0.9455 0.0
H724 H 0.45089 0.88027 0.79903 0.0
H725 H 0.44995 0.03501 0.9239 0.0
H726 H 0.48775 0.93214 0.88714 0.0
H727 H 0.40795 0.98058 0.83357 0.0
C728 C 0.39527 0.93163 0.80396 0.0
C729 C 0.40589 0.90167 0.79599 0.0
C730 C 0.48051 0.95544 0.89492 0.0
C731 C 0.45129 0.95651 0.83875 0.0
C732 C 0.4807 0.96353 0.92863 0.0
C733 C 0.46881 0.99177 0.93994 0.0
C734 C 0.46602 0.97413 0.87207 0.0
C735 C 0.45885 1.01267 0.91631 0.0
C736 C 0.41826 0.95956 0.82485 0.0
C737 C 0.44164 0.90278 0.80517 0.0
N738 N 0.45649 1.00271 0.88339 0.0
N739 N 0.46277 0.92922 0.82719 0.0
H740 H 0.08034 0.30498 0.85255 0.0
H741 H 0.11221 0.43218 1.01754 0.0
H742 H 0.16388 0.31183 0.93145 0.0
H743 H 1.0115 0.39903 0.954 0.0
H744 H 0.13544 0.3937 0.98258 0.0
H745 H 0.05776 0.3449 0.88661 0.0
C746 C 0.09364 0.31474 0.87717 0.0
C747 C 0.12357 0.30501 0.88957 0.0
C748 C 0.10827 0.39493 0.97641 0.0
C749 C 0.09857 0.35058 0.92812 0.0
C750 C 0.09512 0.41697 0.99616 0.0
C751 C 0.05988 0.4185 0.98868 0.0
C752 C 0.08605 0.37476 0.94899 0.0
C753 C 0.03875 0.39832 0.96078 0.0
C754 C 0.08085 0.33739 0.89652 0.0
C755 C 0.14024 0.31833 0.92142 0.0
N756 N 0.05221 0.37719 0.94188 0.0
N757 N 0.12755 0.34067 0.93966 0.0
H758 H 0.75948 0.23758 0.89199 0.0
H759 H 0.55895 0.10913 0.90855 0.0
H760 H 0.6748 0.21556 0.81129 0.0
H761 H 0.64251 0.14824 0.98954 0.0
H762 H 0.5985 0.14851 0.8721 0.0
H763 H 0.71563 0.20413 0.92734 0.0
C764 C 0.73162 0.22579 0.88165 0.0
C765 C 0.72098 0.2296 0.84852 0.0
C766 C 0.60779 0.14893 0.89803 0.0
C767 C 0.67004 0.19088 0.88926 0.0
C768 C 0.585 0.12686 0.91889 0.0
C769 C 0.59725 0.12592 0.95224 0.0
C770 C 0.64307 0.1697 0.91067 0.0
C771 C 0.6318 0.14852 0.96411 0.0
C772 C 0.70643 0.20668 0.90195 0.0
C773 C 0.68432 0.21345 0.83668 0.0
N774 N 0.65345 0.16907 0.94341 0.0
N775 N 0.66021 0.19471 0.85695 0.0
H776 H 0.96926 0.74665 0.8466 0.0
H777 H 0.98321 0.6161 0.94003 0.0
H778 H 1.02141 0.81348 0.93497 0.0
H779 H 0.06612 0.6951 1.00325 0.0
H780 H 0.98569 0.65927 0.89919 0.0
H781 H 0.99649 0.70214 0.86426 0.0
C782 C 0.98723 0.75245 0.86933 0.0
C783 C 0.99228 0.78353 0.88984 0.0
C784 C 1.00471 0.66688 0.92115 0.0
C785 C 1.02153 0.73156 0.91115 0.0
C786 C 1.00299 0.64214 0.94463 0.0
C787 C 1.02417 0.6522 0.97506 0.0
C788 C 1.02761 0.70189 0.92853 0.0
C789 C 0.0492 0.68626 0.98006 0.0
C790 C 1.00221 0.72658 0.87971 0.0
C791 C 1.01587 0.78943 0.91893 0.0
N792 N 0.0497 0.71011 0.95731 0.0
N793 N 1.02896 0.76327 0.92911 0.0
H794 H 0.10814 0.35446 0.25121 0.0
H795 H 0.97613 0.36874 0.10038 0.0
H796 H 0.04066 0.26429 0.18784 0.0
H797 H 0.04002 0.45728 0.1673 0.0
H798 H 0.98798 0.32823 0.13982 0.0
H799 H 0.07153 0.38979 0.22995 0.0
C800 C 0.08482 0.34166 0.23367 0.0
C801 C 0.07774 0.30644 0.2209 0.0
C802 C 0.99874 0.35649 0.14628 0.0
C803 C 0.03658 0.34726 0.19549 0.0
C804 C 0.99189 0.37954 0.12384 0.0
C805 C 1.00714 0.41615 0.1309 0.0
C806 C 1.02154 0.37035 0.17552 0.0
C807 C 1.02777 0.42907 0.16122 0.0
C808 C 0.06409 0.36204 0.22125 0.0
C809 C 0.0475 0.29158 0.19778 0.0
N810 N 1.03481 0.4061 0.18232 0.0
N811 N 1.02846 0.31233 0.18522 0.0
H812 H 0.16387 0.77687 0.97217 0.0
H813 H 0.0563 0.57271 0.9568 0.0
H814 H 0.15454 0.71303 0.88025 0.0
H815 H 0.11709 0.62907 0.04682 0.0
H816 H 0.08379 0.62467 0.92626 0.0
H817 H 0.13508 0.72321 0.99872 0.0
C818 C 0.15517 0.75168 0.95746 0.0
C819 C 0.16215 0.74928 0.92421 0.0
C820 C 0.09164 0.62517 0.95255 0.0
C821 C 0.12907 0.68836 0.95408 0.0
C822 C 0.07616 0.59579 0.96974 0.0
C823 C 0.08528 0.59715 1.00386 0.0
C824 C 0.11518 0.65577 0.97023 0.0
C825 C 0.1103 0.62731 0.02028 0.0
C826 C 0.13904 0.72118 0.97262 0.0
C827 C 0.14952 0.71614 0.90594 0.0
N828 N 0.12417 0.65587 1.00329 0.0
N829 N 0.13365 0.68672 0.92126 0.0
H830 H 0.37808 0.21711 0.80831 0.0
H831 H 0.46718 0.20731 0.98893 0.0
H832 H 0.35128 0.2701 0.89355 0.0
H833 H 0.42474 0.11189 0.92383 0.0
H834 H 0.43806 0.23837 0.94999 0.0
H835 H 0.4082 0.18535 0.84606 0.0
C836 C 0.37884 0.22233 0.83489 0.0
C837 C 0.36219 0.24639 0.84775 0.0
C838 C 0.43555 0.21075 0.94409 0.0
C839 C 0.39723 0.2108 0.89093 0.0
C840 C 0.45246 0.19308 0.96611 0.0
C841 C 0.44895 0.15702 0.95946 0.0
C842 C 0.41578 0.19263 0.91461 0.0
C843 C 0.42855 0.13976 0.92982 0.0
C844 C 0.3958 0.20407 0.85636 0.0
C845 C 0.3637 0.2518 0.8825 0.0
N846 N 0.4131 0.15776 0.90835 0.0
N847 N 0.38123 0.23455 0.9028 0.0
H848 H 0.87212 0.40036 0.83787 0.0
H849 H 0.85561 0.45878 1.01536 0.0
H850 H 0.76834 0.36295 0.87678 0.0
H851 H 0.92707 0.52886 0.95502 0.0
H852 H 0.81781 0.42839 0.96525 0.0
H853 H 0.88983 0.45054 0.87956 0.0
C854 C 0.85287 0.40305 0.85501 0.0
C855 C 0.81887 0.37742 0.85413 0.0
C856 C 0.84076 0.45146 0.96293 0.0
C857 C 0.83912 0.43461 0.90232 0.0
C858 C 0.86203 0.46924 0.99163 0.0
C859 C 0.89462 0.49621 0.98926 0.0
C860 C 0.8527 0.46039 0.9318 0.0
C861 C 0.90215 0.5082 0.95789 0.0
C862 C 0.86286 0.43188 0.87863 0.0
C863 C 0.79484 0.38222 0.87674 0.0
N864 N 0.88216 0.48933 0.93024 0.0
N865 N 0.80576 0.40984 0.90053 0.0
H866 H 0.77153 0.88787 0.87747 0.0
H867 H 0.57558 0.9116 0.9118 0.0
H868 H 0.67325 0.83408 0.81567 0.0
H869 H 0.67569 0.98003 0.96191 0.0
H870 H 0.61021 0.88181 0.87892 0.0
H871 H 0.73769 0.91935 0.90971 0.0
C872 C 0.74286 0.88251 0.87033 0.0
C873 C 0.72597 0.85777 0.84293 0.0
C874 C 0.62486 0.90336 0.897 0.0
C875 C 0.6857 0.89461 0.88137 0.0
C876 C 0.60485 0.92069 0.91613 0.0
C877 C 0.62195 0.94916 0.94035 0.0
C878 C 0.66314 0.91355 0.90162 0.0
C879 C 0.66047 0.9587 0.94386 0.0
C880 C 0.72333 0.90079 0.88908 0.0
C881 C 0.68828 0.85271 0.836 0.0
N882 N 0.67927 0.94114 0.92521 0.0
N883 N 0.66988 0.87047 0.85482 0.0
H884 H 0.88518 0.82374 0.15631 0.0
H885 H 1.02461 0.71766 0.12831 0.0
H886 H 0.96942 0.81811 0.22944 0.0
H887 H 0.9164 0.68621 0.0775 0.0
H888 H 1.01355 0.76884 0.1544 0.0
H889 H 0.90648 0.78802 0.11621 0.0
C890 C 0.90942 0.81655 0.16316 0.0
C891 C 0.9264 0.82413 0.19556 0.0
C892 C 0.99241 0.75099 0.13721 0.0
C893 C 0.94993 0.7834 0.15091 0.0
C894 C 0.99852 0.72161 0.12233 0.0
C895 C 0.97109 0.69734 0.10095 0.0
C896 C 0.9587 0.75625 0.1308 0.0
C897 C 0.93808 0.70418 0.09404 0.0
C898 C 0.92106 0.79582 0.14063 0.0
C899 C 0.95646 0.81321 0.20427 0.0
N900 N 0.93257 0.73307 0.10933 0.0
N901 N 0.96722 0.79299 0.18199 0.0
H902 H 0.41035 0.85424 0.2335 0.0
H903 H 0.39019 0.98204 0.08984 0.0
H904 H 0.31095 0.87333 0.19824 0.0
H905 H 0.49187 0.96158 0.11357 0.0
H906 H 0.36318 0.94302 0.13076 0.0
H907 H 0.4419 0.89293 0.19219 0.0
C908 C 0.39502 0.8664 0.21714 0.0
C909 C 0.35753 0.85991 0.21956 0.0
C910 C 0.39137 0.94668 0.12723 0.0
C911 C 0.39403 0.90495 0.17193 0.0
C912 C 0.40722 0.96933 0.10351 0.0
C913 C 0.44393 0.97576 0.09753 0.0
C914 C 0.41174 0.92941 0.14608 0.0
C915 C 0.46361 0.95773 0.11679 0.0
C916 C 0.41319 0.88858 0.19346 0.0
C917 C 0.33959 0.87686 0.19748 0.0
N918 N 0.44736 0.93556 0.14013 0.0
N919 N 0.35784 0.89834 0.17501 0.0
H920 H 0.67676 0.25045 0.22771 0.0
H921 H 0.61226 0.07389 0.11301 0.0
H922 H 0.72591 0.16914 0.24991 0.0
H923 H 0.6309 0.17639 0.07429 0.0
H924 H 0.64944 0.10297 0.16464 0.0
H925 H 0.65128 0.21838 0.17392 0.0
C926 C 0.68167 0.22551 0.22155 0.0
C927 C 0.70325 0.21233 0.24356 0.0
C928 C 0.64612 0.11888 0.1444 0.0
C929 C 0.67419 0.17545 0.18167 0.0
C930 C 0.62543 0.10223 0.1147 0.0
C931 C 0.61823 0.1227 0.08928 0.0
C932 C 0.65895 0.15613 0.14872 0.0
C933 C 0.6355 0.15953 0.09326 0.0
C934 C 0.6675 0.20744 0.19063 0.0
C935 C 0.70922 0.18012 0.23377 0.0
N936 N 0.65408 0.17507 0.12265 0.0
N937 N 0.69449 0.16255 0.20367 0.0
H938 H 0.67339 0.7128 0.82905 0.0
H939 H 0.6838 0.61073 0.99414 0.0
H940 H 0.77228 0.7205 0.8892 0.0
H941 H 0.58144 0.6121 0.94577 0.0
H942 H 0.71524 0.64864 0.9539 0.0
H943 H 0.63887 0.67435 0.86865 0.0
C944 C 0.688 0.7064 0.85045 0.0
C945 C 0.72615 0.72013 0.85544 0.0
C946 C 0.68592 0.64078 0.95183 0.0
C947 C 0.68626 0.67574 0.9013 0.0
C948 C 0.66763 0.61879 0.97495 0.0
C949 C 0.62945 0.60755 0.97364 0.0
C950 C 0.66641 0.6521 0.92643 0.0
C951 C 0.61074 0.61974 0.94798 0.0
C952 C 0.6681 0.68444 0.87318 0.0
C953 C 0.74312 0.71071 0.88392 0.0
N954 N 0.62934 0.64115 0.92539 0.0
N955 N 0.72321 0.68927 0.90549 0.0
H956 H 0.43065 0.76217 0.83 0.0
H957 H 0.40816 0.61055 0.95962 0.0
H958 H 0.33417 0.72576 0.88036 0.0
H959 H 0.51264 0.68111 0.9432 0.0
H960 H 0.37913 0.64536 0.92463 0.0
H961 H 0.45909 0.72667 0.86457 0.0
C962 C 0.4153 0.74684 0.84831 0.0
C963 C 0.37977 0.74777 0.85211 0.0
C964 C 0.40843 0.65311 0.92839 0.0
C965 C 0.41252 0.7055 0.89194 0.0
C966 C 0.42523 0.63289 0.94826 0.0
C967 C 0.46338 0.64216 0.9545 0.0
C968 C 0.42955 0.68286 0.91358 0.0
C969 C 0.48335 0.67228 0.93923 0.0
C970 C 0.43172 0.72643 0.8682 0.0
C971 C 0.36165 0.72664 0.87645 0.0
N972 N 0.46642 0.69104 0.91956 0.0
N973 N 0.37793 0.70642 0.89498 0.0
H974 H 0.34626 0.42414 0.84148 0.0
H975 H 0.43853 0.41046 1.01103 0.0
H976 H 0.29862 0.33755 0.90015 0.0
H977 H 0.44782 0.51193 0.97216 0.0
H978 H 0.38258 0.38458 0.9745 0.0
H979 H 0.37772 0.45955 0.89195 0.0
C980 C 0.3413 0.41321 0.86527 0.0
C981 C 0.31996 0.3781 0.86693 0.0
C982 C 0.39639 0.41272 0.97472 0.0
C983 C 0.35712 0.4175 0.92441 0.0
C984 C 0.4285 0.42744 0.99534 0.0
C985 C 0.44829 0.46326 0.99421 0.0
C986 C 0.38452 0.4339 0.95252 0.0
C987 C 0.43371 0.48413 0.97375 0.0
C988 C 0.35938 0.43328 0.89407 0.0
C989 C 0.31474 0.36473 0.89811 0.0
N990 N 0.40311 0.46898 0.95324 0.0
N991 N 0.33418 0.38411 0.9257 0.0
H992 H 0.7002 0.42353 0.82807 0.0
H993 H 0.61405 0.39759 0.99978 0.0
H994 H 0.60701 0.33672 0.84597 0.0
H995 H 0.67337 0.50144 0.97278 0.0
H996 H 0.62408 0.3719 0.94702 0.0
H997 H 0.6995 0.45098 0.88332 0.0
C998 C 0.67908 0.41065 0.84328 0.0
C999 C 0.65344 0.37783 0.83241 0.0
C1000 C 0.63551 0.40023 0.95284 0.0
C1001 C 0.65371 0.40826 0.89577 0.0
C1002 C 0.63026 0.4148 0.98307 0.0
C1003 C 0.64278 0.45158 0.99031 0.0
C1004 C 0.65341 0.42263 0.92976 0.0
C1005 C 0.66354 0.47288 0.968 0.0
C1006 C 0.6791 0.4261 0.87491 0.0
C1007 C 0.6274 0.36186 0.85349 0.0
N1008 N 0.6678 0.45809 0.93822 0.0
N1009 N 0.62838 0.37712 0.88431 0.0
H1010 H 0.72188 0.31929 0.19281 0.0
H1011 H 0.66024 0.49458 0.16951 0.0
H1012 H 0.72785 0.39379 0.27567 0.0
H1013 H 0.60629 0.39646 0.11118 0.0
H1014 H 0.69371 0.46294 0.20412 0.0
H1015 H 0.68885 0.35137 0.15821 0.0
C1016 C 0.71687 0.34265 0.20374 0.0
C1017 C 0.72833 0.35364 0.23756 0.0
C1018 C 0.67436 0.44824 0.18388 0.0
C1019 C 0.69021 0.39131 0.19733 0.0
C1020 C 0.65497 0.46638 0.16404 0.0
C1021 C 0.62917 0.4484 0.1375 0.0
C1022 C 0.66936 0.41172 0.1768 0.0
C1023 C 0.62486 0.41173 0.13166 0.0
C1024 C 0.69762 0.36091 0.1839 0.0
C1025 C 0.72001 0.38403 0.24992 0.0
N1026 N 0.64469 0.39499 0.15066 0.0
N1027 N 0.70206 0.40172 0.23001 0.0
H1028 H 0.76913 0.71645 0.23362 0.0
H1029 H 0.66022 0.66901 0.05666 0.0
H1030 H 0.79301 0.78194 0.15124 0.0
H1031 H 0.6461 0.59535 0.13299 0.0
H1032 H 0.7157 0.70617 0.08798 0.0
H1033 H 0.72986 0.66829 0.19542 0.0
C1034 C 0.76624 0.72068 0.20749 0.0
C1035 C 0.78378 0.75351 0.19566 0.0
C1036 C 0.70095 0.68157 0.09769 0.0
C1037 C 0.73916 0.69849 0.15189 0.0
C1038 C 0.66927 0.66035 0.07979 0.0
C1039 C 0.64819 0.62964 0.09279 0.0
C1040 C 0.71121 0.67232 0.12909 0.0
C1041 C 0.66143 0.61916 0.12241 0.0
C1042 C 0.74404 0.69306 0.18567 0.0
C1043 C 0.77954 0.75729 0.16153 0.0
N1044 N 0.69176 0.64098 0.14007 0.0
N1045 N 0.75733 0.73024 0.14092 0.0
H1046 H 0.3342 0.65926 0.19658 0.0
H1047 H 0.45674 0.55958 0.11412 0.0
H1048 H 0.39233 0.59714 0.24754 0.0
H1049 H 0.44589 0.65988 0.08744 0.0
H1050 H 0.40667 0.55225 0.14858 0.0
H1051 H 0.34785 0.63662 0.14351 0.0
C1052 C 0.34823 0.63943 0.19647 0.0
C1053 C 0.36274 0.63027 0.22624 0.0
C1054 C 0.41439 0.57522 0.13422 0.0
C1055 C 0.37845 0.60487 0.1662 0.0
C1056 C 0.44275 0.57931 0.11446 0.0
C1057 C 0.45519 0.61032 0.09818 0.0
C1058 C 0.39875 0.60254 0.1377 0.0
C1059 C 0.43719 0.63585 0.10019 0.0
C1060 C 0.35614 0.62677 0.16627 0.0
C1061 C 0.3811 0.60494 0.22497 0.0
N1062 N 0.40998 0.63162 0.12012 0.0
N1063 N 0.38913 0.59357 0.1953 0.0
H1064 H 0.41293 0.37602 0.26456 0.0
H1065 H 0.40431 0.47011 0.09378 0.0
H1066 H 0.31507 0.36281 0.20079 0.0
H1067 H 0.50633 0.47757 0.14851 0.0
H1068 H 0.37254 0.43259 0.13417 0.0
H1069 H 0.44774 0.41411 0.22479 0.0
C1070 C 0.39856 0.38113 0.24235 0.0
C1071 C 0.36057 0.36589 0.23648 0.0
C1072 C 0.40186 0.44224 0.13758 0.0
C1073 C 0.40094 0.41002 0.19026 0.0
C1074 C 0.42038 0.46399 0.1143 0.0
C1075 C 0.45861 0.47762 0.11723 0.0
C1076 C 0.42109 0.43345 0.16485 0.0
C1077 C 0.47704 0.468 0.14483 0.0
C1078 C 0.41866 0.40293 0.2195 0.0
C1079 C 0.34406 0.37372 0.20685 0.0
N1080 N 0.4582 0.44672 0.16747 0.0
N1081 N 0.36415 0.39503 0.1852 0.0
H1082 H 0.90164 0.75569 0.76947 0.0
H1083 H 0.90447 0.61184 0.61781 0.0
H1084 H 0.80681 0.70324 0.7028 0.0
H1085 H 0.99966 0.67438 0.6794 0.0
H1086 H 0.86799 0.6421 0.64858 0.0
H1087 H 0.93636 0.72457 0.73806 0.0
C1088 C 0.88772 0.73756 0.7484 0.0
C1089 C 0.85042 0.73265 0.7396 0.0
C1090 C 0.89687 0.64924 0.65552 0.0
C1091 C 0.89147 0.6956 0.70223 0.0
C1092 C 0.91801 0.63166 0.63778 0.0
C1093 C 0.95603 0.63976 0.64542 0.0
C1094 C 0.91311 0.67558 0.68186 0.0
C1095 C 0.97086 0.66642 0.67195 0.0
C1096 C 0.90792 0.71959 0.73015 0.0
C1097 C 0.83511 0.70842 0.71131 0.0
N1098 N 0.94984 0.6828 0.68875 0.0
N1099 N 0.85528 0.69115 0.69413 0.0
H1100 H 0.47659 0.83352 0.64289 0.0
H1101 H 0.51079 0.95551 0.49197 0.0
H1102 H 0.39592 0.82281 0.56046 0.0
H1103 H 0.56541 0.9881 0.59024 0.0
H1104 H 0.47529 0.89959 0.5119 0.0
H1105 H 0.51681 0.88359 0.61874 0.0
C1106 C 0.46804 0.84094 0.61897 0.0
C1107 C 0.43332 0.82411 0.60319 0.0
C1108 C 0.49516 0.91891 0.52902 0.0
C1109 C 0.47908 0.88059 0.57549 0.0
C1110 C 0.51524 0.95053 0.51773 0.0
C1111 C 0.5407 0.97561 0.53975 0.0
C1112 C 0.501 0.91278 0.56241 0.0
C1113 C 0.54592 0.96881 0.57282 0.0
C1114 C 0.49086 0.86954 0.60537 0.0
C1115 C 0.42279 0.83515 0.57291 0.0
N1116 N 0.52609 0.93769 0.58331 0.0
N1117 N 0.44576 0.86296 0.55988 0.0
H1118 H 0.28156 0.36047 0.68893 0.0
H1119 H 0.15652 0.48185 0.66972 0.0
H1120 H 0.21456 0.36597 0.76764 0.0
H1121 H 0.14356 0.39836 0.59322 0.0
H1122 H 0.19123 0.45314 0.7062 0.0
H1123 H 0.24512 0.38804 0.65298 0.0
C1124 C 0.25956 0.36799 0.69879 0.0
C1125 C 0.25121 0.36116 0.73142 0.0
C1126 C 0.18035 0.44096 0.68156 0.0
C1127 C 0.20996 0.39318 0.69068 0.0
C1128 C 0.16034 0.45712 0.66084 0.0
C1129 C 0.14589 0.4418 0.62877 0.0
C1130 C 0.18748 0.4101 0.66966 0.0
C1131 C 0.15301 0.41042 0.61814 0.0
C1132 C 0.23865 0.38341 0.67821 0.0
C1133 C 0.22198 0.37089 0.74272 0.0
N1134 N 0.17368 0.39589 0.63831 0.0
N1135 N 0.20276 0.38684 0.7226 0.0
H1136 H 0.77844 0.16398 0.74427 0.0
H1137 H 0.76286 0.13491 0.54824 0.0
H1138 H 0.8033 0.24515 0.67512 0.0
H1139 H 0.69945 0.05925 0.60942 0.0
H1140 H 0.8015 0.16598 0.59739 0.0
H1141 H 0.77004 0.11881 0.69792 0.0
C1142 C 0.78267 0.1723 0.71946 0.0
C1143 C 0.79077 0.20822 0.7133 0.0
C1144 C 0.78012 0.14167 0.60002 0.0
C1145 C 0.78237 0.15709 0.66076 0.0
C1146 C 0.75851 0.12346 0.57178 0.0
C1147 C 0.72752 0.09499 0.5749 0.0
C1148 C 0.77048 0.13115 0.63144 0.0
C1149 C 0.72296 0.0814 0.60609 0.0
C1150 C 0.77802 0.14658 0.69314 0.0
C1151 C 0.79631 0.21767 0.68083 0.0
N1152 N 0.74336 0.1004 0.6335 0.0
N1153 N 0.7918 0.19227 0.65578 0.0
H1154 H 0.89829 0.35338 0.35057 0.0
H1155 H 0.96701 0.52032 0.47897 0.0
H1156 H 0.81861 0.40494 0.37171 0.0
H1157 H 0.96996 0.41687 0.50471 0.0
H1158 H 0.92328 0.49133 0.43055 0.0
H1159 H 0.93978 0.39134 0.39609 0.0
C1160 C 0.8901 0.37363 0.36387 0.0
C1161 C 0.85518 0.37635 0.3571 0.0
C1162 C 0.93345 0.47525 0.44719 0.0
C1163 C 0.90229 0.41966 0.4091 0.0
C1164 C 0.95792 0.49168 0.47506 0.0
C1165 C 0.97258 0.47117 0.49599 0.0
C1166 C 0.92459 0.43837 0.4399 0.0
C1167 C 0.95998 0.43403 0.48921 0.0
C1168 C 0.91354 0.39495 0.39004 0.0
C1169 C 0.84551 0.40235 0.37594 0.0
N1170 N 0.93757 0.41904 0.46152 0.0
N1171 N 0.86888 0.42302 0.40112 0.0
H1172 H 0.80439 0.8437 0.35991 0.0
H1173 H 0.64334 0.92398 0.37994 0.0
H1174 H 0.73776 0.86229 0.27649 0.0
H1175 H 0.73102 0.93569 0.45647 0.0
H1176 H 0.67134 0.89173 0.34371 0.0
H1177 H 0.77067 0.8676 0.39738 0.0
C1178 C 0.78218 0.85222 0.3494 0.0
C1179 C 0.7737 0.85106 0.31495 0.0
C1180 C 0.68428 0.90121 0.36849 0.0
C1181 C 0.73544 0.8786 0.35789 0.0
C1182 C 0.66832 0.91946 0.38927 0.0
C1183 C 0.68505 0.93252 0.42121 0.0
C1184 C 0.71691 0.89584 0.37987 0.0
C1185 C 0.7174 0.92611 0.43195 0.0
C1186 C 0.76321 0.86611 0.37091 0.0
C1187 C 0.74506 0.86284 0.30288 0.0
N1188 N 0.73244 0.90816 0.41114 0.0
N1189 N 0.72688 0.87637 0.32448 0.0
H1190 H 0.28387 0.71206 0.38326 0.0
H1191 H 0.10116 0.63761 0.47546 0.0
H1192 H 0.19277 0.75108 0.36339 0.0
H1193 H 0.20026 0.61164 0.49532 0.0
H1194 H 0.13085 0.6783 0.43433 0.0
H1195 H 0.25112 0.67461 0.42363 0.0
C1196 C 0.25688 0.71285 0.38724 0.0
C1197 C 0.24148 0.73523 0.36946 0.0
C1198 C 0.14601 0.66369 0.44785 0.0
C1199 C 0.20271 0.69111 0.41663 0.0
C1200 C 0.12896 0.64046 0.47155 0.0
C1201 C 0.14773 0.62082 0.48961 0.0
C1202 C 0.1823 0.66733 0.44181 0.0
C1203 C 0.18397 0.62572 0.4826 0.0
C1204 C 0.23799 0.69124 0.41057 0.0
C1205 C 0.20615 0.73463 0.37641 0.0
N1206 N 0.1996 0.648 0.45967 0.0
N1207 N 0.18803 0.71298 0.39916 0.0
H1208 H 0.49953 0.24788 0.34236 0.0
H1209 H 0.62886 0.22895 0.49209 0.0
H1210 H 0.55882 0.33547 0.41262 0.0
H1211 H 0.5852 0.14836 0.41154 0.0
H1212 H 0.61105 0.27143 0.45879 0.0
H1213 H 0.54049 0.21549 0.36029 0.0
C1214 C 0.52198 0.26092 0.36073 0.0
C1215 C 0.52536 0.29425 0.37649 0.0
C1216 C 0.60676 0.24488 0.44778 0.0
C1217 C 0.57147 0.25658 0.39804 0.0
C1218 C 0.61708 0.22076 0.46674 0.0
C1219 C 0.60845 0.1855 0.45427 0.0
C1220 C 0.58896 0.23377 0.41583 0.0
C1221 C 0.59236 0.17562 0.42173 0.0
C1222 C 0.54521 0.24216 0.37123 0.0
C1223 C 0.55472 0.30946 0.40044 0.0
N1224 N 0.58282 0.19968 0.4036 0.0
N1225 N 0.57619 0.29012 0.4111 0.0
H1226 H 0.62275 0.85287 0.70334 0.0
H1227 H 0.56641 0.88843 0.5204 0.0
H1228 H 0.55931 0.76995 0.63026 0.0
H1229 H 0.63774 0.96611 0.59355 0.0
H1230 H 0.55055 0.84713 0.56363 0.0
H1231 H 0.61176 0.89661 0.66825 0.0
C1232 C 0.60531 0.84358 0.68049 0.0
C1233 C 0.59281 0.80746 0.66938 0.0
C1234 C 0.56935 0.87336 0.57022 0.0
C1235 C 0.58182 0.85798 0.62819 0.0
C1236 C 0.57844 0.89686 0.54562 0.0
C1237 C 0.60386 0.93038 0.55348 0.0
C1238 C 0.58565 0.88373 0.60276 0.0
C1239 C 0.61848 0.94022 0.58644 0.0
C1240 C 0.59954 0.86883 0.66012 0.0
C1241 C 0.57056 0.79756 0.6393 0.0
N1242 N 0.60929 0.91688 0.60986 0.0
N1243 N 0.56663 0.82277 0.61921 0.0
H1244 H 0.70108 0.27432 0.52785 0.0
H1245 H 0.77083 0.11463 0.46937 0.0
H1246 H 0.79764 0.28868 0.47714 0.0
H1247 H 0.65894 0.11158 0.46961 0.0
H1248 H 0.78946 0.17684 0.49094 0.0
H1249 H 0.69748 0.21222 0.53215 0.0
C1250 C 0.72224 0.26499 0.51855 0.0
C1251 C 0.74713 0.28573 0.49854 0.0
C1252 C 0.76088 0.16221 0.48677 0.0
C1253 C 0.74415 0.2158 0.50483 0.0
C1254 C 0.75013 0.12696 0.47408 0.0
C1255 C 0.71312 0.10755 0.46856 0.0
C1256 C 0.73444 0.17787 0.49452 0.0
C1257 C 0.68764 0.125 0.4745 0.0
C1258 C 0.71996 0.22946 0.52088 0.0
C1259 C 0.77594 0.27316 0.49034 0.0
N1260 N 0.69886 0.15913 0.48745 0.0
N1261 N 0.77278 0.23838 0.49212 0.0
H1262 H 1.03034 0.79037 0.41136 0.0
H1263 H 1.01399 0.60524 0.4704 0.0
H1264 H 0.9885 0.69287 0.34875 0.0
H1265 H 0.07469 0.70212 0.5285 0.0
H1266 H 1.01825 0.63756 0.42099 0.0
H1267 H 0.06198 0.76082 0.44878 0.0
C1268 C 1.02896 0.76312 0.40491 0.0
C1269 C 1.00617 0.74372 0.37753 0.0
C1270 C 1.03117 0.65181 0.44438 0.0
C1271 C 0.04149 0.70977 0.42009 0.0
C1272 C 1.02824 0.63342 0.47267 0.0
C1273 C 0.04299 0.65145 0.50354 0.0
C1274 C 0.04792 0.68863 0.44723 0.0
C1275 C 0.06234 0.68755 0.5051 0.0
C1276 C 0.04699 0.74625 0.42621 0.0
C1277 C 1.00561 0.70874 0.36978 0.0
N1278 N 0.06355 0.70526 0.4773 0.0
N1279 N 1.02225 0.69256 0.3915 0.0
H1280 H 0.35866 0.92319 0.3176 0.0
H1281 H 0.49735 1.01019 0.47548 0.0
H1282 H 0.3767 0.86406 0.40018 0.0
H1283 H 0.5287 0.02369 0.3763 0.0
H1284 H 0.43672 0.97394 0.4527 0.0
H1285 H 0.40546 0.97578 0.3444 0.0
C1286 C 0.37185 0.92144 0.3417 0.0
C1287 C 0.36406 0.88905 0.35654 0.0
C1288 C 0.45649 0.98612 0.43597 0.0
C1289 C 0.41671 0.94931 0.38749 0.0
C1290 C 0.49102 1.00732 0.44894 0.0
C1291 C 0.51822 1.02006 0.42781 0.0
C1292 C 0.44895 0.97847 0.40157 0.0
C1293 C 0.5084 1.01473 0.39345 0.0
C1294 C 0.3985 0.95144 0.35685 0.0
C1295 C 0.38213 0.88837 0.38773 0.0
N1296 N 0.47466 0.99389 0.38133 0.0
N1297 N 0.4077 0.91806 0.40217 0.0
H1298 H 0.30277 0.38337 0.39707 0.0
H1299 H 0.12079 0.42112 0.44969 0.0
H1300 H 0.19841 0.3415 0.34077 0.0
H1301 H 0.22604 0.47945 0.49824 0.0
H1302 H 0.14941 0.39089 0.41161 0.0
H1303 H 0.27644 0.41696 0.4352 0.0
C1304 C 0.27435 0.38122 0.39246 0.0
C1305 C 0.25308 0.35929 0.36506 0.0
C1306 C 0.16649 0.41036 0.4304 0.0
C1307 C 0.22228 0.39809 0.40964 0.0
C1308 C 0.15005 0.42788 0.45247 0.0
C1309 C 0.17065 0.45342 0.47775 0.0
C1310 C 0.20435 0.41762 0.4331 0.0
C1311 C 0.20867 0.46037 0.47934 0.0
C1312 C 0.25929 0.40059 0.41445 0.0
C1313 C 0.21629 0.35794 0.36108 0.0
N1314 N 0.2241 0.44257 0.45764 0.0
N1315 N 0.20229 0.3767 0.38294 0.0
H1316 H 0.42164 0.23733 0.65237 0.0
H1317 H 0.59496 0.17548 0.626 0.0
H1318 H 0.52722 0.28471 0.7059 0.0
H1319 H 0.49404 0.13469 0.56328 0.0
H1320 H 0.56781 0.21109 0.65923 0.0
H1321 H 0.44562 0.19594 0.62211 0.0
C1322 C 0.4499 0.23909 0.65764 0.0
C1323 C 0.47261 0.26453 0.68154 0.0
C1324 C 0.55144 0.19414 0.6384 0.0
C1325 C 0.49979 0.21701 0.6477 0.0
C1326 C 0.56687 0.17366 0.61943 0.0
C1327 C 0.54675 0.1523 0.59166 0.0
C1328 C 0.5156 0.19325 0.62963 0.0
C1329 C 0.51048 0.15086 0.58449 0.0
C1330 C 0.46343 0.21533 0.64058 0.0
C1331 C 0.50873 0.26527 0.68793 0.0
N1332 N 0.49605 0.17141 0.60329 0.0
N1333 N 0.52123 0.24184 0.67103 0.0
H1334 H 0.84742 0.39427 0.73185 0.0
H1335 H 1.01563 0.43318 0.62306 0.0
H1336 H 0.9117 0.32255 0.72829 0.0
H1337 H 0.96471 0.50979 0.65661 0.0
H1338 H 0.97956 0.3907 0.65962 0.0
H1339 H 0.88994 0.43462 0.70061 0.0
C1340 C 0.87059 0.38693 0.72452 0.0
C1341 C 0.87592 0.35487 0.73284 0.0
C1342 C 0.97684 0.41704 0.65912 0.0
C1343 C 0.92548 0.40165 0.6967 0.0
C1344 C 0.99757 0.44128 0.63853 0.0
C1345 C 0.99281 0.47486 0.6365 0.0
C1346 C 0.95138 0.42674 0.67739 0.0
C1347 C 0.96891 0.48401 0.65693 0.0
C1348 C 0.89511 0.41021 0.7067 0.0
C1349 C 0.90665 0.34709 0.72253 0.0
N1350 N 0.94897 0.4601 0.67605 0.0
N1351 N 0.93029 0.37029 0.70479 0.0
H1352 H 0.19843 0.71292 0.78056 0.0
H1353 H 0.10542 0.56537 0.68335 0.0
H1354 H 0.29279 0.67769 0.77456 0.0
H1355 H 0.20014 0.61238 0.63329 0.0
H1356 H 0.1407 0.58782 0.73683 0.0
H1357 H 0.16174 0.65729 0.74979 0.0
C1358 C 0.21116 0.69302 0.77396 0.0
C1359 C 0.24878 0.70041 0.77904 0.0
C1360 C 0.15409 0.59171 0.71422 0.0
C1361 C 0.20754 0.63767 0.74357 0.0
C1362 C 0.13424 0.57874 0.6838 0.0
C1363 C 0.15005 0.58764 0.65416 0.0
C1364 C 0.18994 0.61322 0.71466 0.0
C1365 C 0.18716 0.60517 0.65572 0.0
C1366 C 0.19029 0.66129 0.75644 0.0
C1367 C 0.26394 0.67356 0.77007 0.0
N1368 N 0.20589 0.61813 0.68571 0.0
N1369 N 0.24355 0.64399 0.75146 0.0
loop_
_geom_bond_atom_site_label_1
_geom_bond_atom_site_label_2
_geom_bond_distance
_geom_bond_site_symmetry_2
_ccdc_geom_bond_type
Dy0 O3 2.307 . S
Dy0 O5 2.395 . S
Dy0 O6 2.379 . S
Dy0 O8 2.339 . S
Dy0 O10 2.298 . S
Dy0 O14 2.275 . S
Dy0 C22 2.738 . S
Dy1 O4 2.298 . S
Dy1 O7 2.275 . S
Dy1 O9 2.307 . S
Dy1 O11 2.395 . S
Dy1 O12 2.379 . S
Dy1 O15 2.339 . S
Dy1 C31 2.738 . S
C2 O14 1.254 . S
C2 O15 1.257 . S
O3 Dy0 2.307 . S
O3 C13 1.266 . S
O4 Dy1 2.298 . S
O4 C13 1.236 . S
O5 Dy0 2.395 . S
O5 C22 1.255 . S
O6 Dy0 2.379 . S
O6 C22 1.249 . S
O7 Dy1 2.275 . S
O7 C23 1.254 . S
O8 Dy0 2.339 . S
O8 C23 1.257 . S
O9 Dy1 2.307 . S
O9 C24 1.266 . S
O10 Dy0 2.298 . S
O10 C24 1.236 . S
O11 Dy1 2.395 . S
O11 C31 1.255 . S
O12 Dy1 2.379 . S
O12 C31 1.249 . S
C13 O3 1.266 . S
C13 O4 1.236 . S
O14 Dy0 2.275 . S
O14 C2 1.254 . S
O15 Dy1 2.339 . S
O15 C2 1.257 . S
C16 C19 1.344 . S
C16 C20 1.328 . S
C16 C22 1.516 . S
C17 C18 1.304 . S
C17 C21 1.323 . S
C18 C17 1.304 . S
C18 C19 1.371 . S
C18 H32 0.930 . S
C19 C16 1.344 . S
C19 C18 1.371 . S
C19 H33 0.931 . S
C20 C16 1.328 . S
C20 C21 1.433 . S
C20 H34 0.931 . S
C21 C17 1.323 . S
C21 C20 1.433 . S
C21 H35 0.933 . S
C22 Dy0 2.738 . S
C22 O5 1.255 . S
C22 O6 1.249 . S
C22 C16 1.516 . S
C23 O7 1.254 . S
C23 O8 1.257 . S
C24 O9 1.266 . S
C24 O10 1.236 . S
C25 C28 1.344 . S
C25 C29 1.328 . S
C25 C31 1.516 . S
C26 C27 1.304 . S
C26 C30 1.323 . S
C27 C26 1.304 . S
C27 C28 1.371 . S
C27 H36 0.930 . S
C28 C25 1.344 . S
C28 C27 1.371 . S
C28 H37 0.931 . S
C29 C25 1.328 . S
C29 C30 1.433 . S
C29 H38 0.931 . S
C30 C26 1.323 . S
C30 C29 1.433 . S
C30 H39 0.933 . S
C31 Dy1 2.738 . S
C31 O11 1.255 . S
C31 O12 1.249 . S
C31 C25 1.516 . S
H32 C18 0.930 . S
H33 C19 0.931 . S
H34 C20 0.931 . S
H35 C21 0.933 . S
H36 C27 0.930 . S
H37 C28 0.931 . S
H38 C29 0.931 . S
H39 C30 0.933 . S
Dy40 O43 2.307 . S
Dy40 O45 2.395 . S
Dy40 O46 2.379 . S
Dy40 O48 2.339 . S
Dy40 O50 2.298 . S
Dy40 O54 2.275 . S
Dy40 C62 2.738 . S
Dy41 O44 2.298 . S
Dy41 O47 2.275 . S
Dy41 O49 2.307 . S
Dy41 O51 2.395 . S
Dy41 O52 2.379 . S
Dy41 O55 2.339 . S
Dy41 C71 2.738 . S
C42 O54 1.254 . S
C42 O55 1.257 . S
O43 Dy40 2.307 . S
O43 C53 1.266 . S
O44 Dy41 2.298 . S
O44 C53 1.236 . S
O45 Dy40 2.395 . S
O45 C62 1.255 . S
O46 Dy40 2.379 . S
O46 C62 1.249 . S
O47 Dy41 2.275 . S
O47 C63 1.254 . S
O48 Dy40 2.339 . S
O48 C63 1.257 . S
O49 Dy41 2.307 . S
O49 C64 1.266 . S
O50 Dy40 2.298 . S
O50 C64 1.236 . S
O51 Dy41 2.395 . S
O51 C71 1.255 . S
O52 Dy41 2.379 . S
O52 C71 1.249 . S
C53 O43 1.266 . S
C53 O44 1.236 . S
O54 Dy40 2.275 . S
O54 C42 1.254 . S
O55 Dy41 2.339 . S
O55 C42 1.257 . S
C56 C59 1.344 . S
C56 C60 1.328 . S
C56 C62 1.516 . S
C57 C58 1.304 . S
C57 C61 1.323 . S
C58 C57 1.304 . S
C58 C59 1.371 . S
C58 H72 0.930 . S
C59 C56 1.344 . S
C59 C58 1.371 . S
C59 H73 0.931 . S
C60 C56 1.328 . S
C60 C61 1.433 . S
C60 H74 0.931 . S
C61 C57 1.323 . S
C61 C60 1.433 . S
C61 H75 0.933 . S
C62 Dy40 2.738 . S
C62 O45 1.255 . S
C62 O46 1.249 . S
C62 C56 1.516 . S
C63 O47 1.254 . S
C63 O48 1.257 . S
C64 O49 1.266 . S
C64 O50 1.236 . S
C65 C68 1.344 . S
C65 C69 1.328 . S
C65 C71 1.516 . S
C66 C67 1.304 . S
C66 C70 1.323 . S
C67 C66 1.304 . S
C67 C68 1.371 . S
C67 H76 0.930 . S
C68 C65 1.344 . S
C68 C67 1.371 . S
C68 H77 0.931 . S
C69 C65 1.328 . S
C69 C70 1.433 . S
C69 H78 0.931 . S
C70 C66 1.323 . S
C70 C69 1.433 . S
C70 H79 0.933 . S
C71 Dy41 2.738 . S
C71 O51 1.255 . S
C71 O52 1.249 . S
C71 C65 1.516 . S
H72 C58 0.930 . S
H73 C59 0.931 . S
H74 C60 0.931 . S
H75 C61 0.933 . S
H76 C67 0.930 . S
H77 C68 0.931 . S
H78 C69 0.931 . S
H79 C70 0.933 . S
Dy80 O83 2.307 . S
Dy80 O85 2.395 . S
Dy80 O86 2.379 . S
Dy80 O88 2.339 . S
Dy80 O90 2.298 . S
Dy80 O94 2.275 . S
Dy80 C102 2.738 . S
Dy81 O84 2.298 . S
Dy81 O87 2.275 . S
Dy81 O89 2.307 . S
Dy81 O91 2.395 . S
Dy81 O92 2.379 . S
Dy81 O95 2.339 . S
Dy81 C111 2.738 . S
C82 O94 1.254 . S
C82 O95 1.257 . S
O83 Dy80 2.307 . S
O83 C93 1.266 . S
O84 Dy81 2.298 . S
O84 C93 1.236 . S
O85 Dy80 2.395 . S
O85 C102 1.255 . S
O86 Dy80 2.379 . S
O86 C102 1.249 . S
O87 Dy81 2.275 . S
O87 C103 1.254 . S
O88 Dy80 2.339 . S
O88 C103 1.257 . S
O89 Dy81 2.307 . S
O89 C104 1.266 . S
O90 Dy80 2.298 . S
O90 C104 1.236 . S
O91 Dy81 2.395 . S
O91 C111 1.255 . S
O92 Dy81 2.379 . S
O92 C111 1.249 . S
C93 O83 1.266 . S
C93 O84 1.236 . S
O94 Dy80 2.275 . S
O94 C82 1.254 . S
O95 Dy81 2.339 . S
O95 C82 1.257 . S
C96 C99 1.344 . S
C96 C100 1.328 . S
C96 C102 1.516 . S
C97 C98 1.304 . S
C97 C101 1.323 . S
C98 C97 1.304 . S
C98 C99 1.371 . S
C98 H112 0.930 . S
C99 C96 1.344 . S
C99 C98 1.371 . S
C99 H113 0.931 . S
C100 C96 1.328 . S
C100 C101 1.433 . S
C100 H114 0.931 . S
C101 C97 1.323 . S
C101 C100 1.433 . S
C101 H115 0.933 . S
C102 Dy80 2.738 . S
C102 O85 1.255 . S
C102 O86 1.249 . S
C102 C96 1.516 . S
C103 O87 1.254 . S
C103 O88 1.257 . S
C104 O89 1.266 . S
C104 O90 1.236 . S
C105 C108 1.344 . S
C105 C109 1.328 . S
C105 C111 1.516 . S
C106 C107 1.304 . S
C106 C110 1.323 . S
C107 C106 1.304 . S
C107 C108 1.371 . S
C107 H116 0.930 . S
C108 C105 1.344 . S
C108 C107 1.371 . S
C108 H117 0.931 . S
C109 C105 1.328 . S
C109 C110 1.433 . S
C109 H118 0.931 . S
C110 C106 1.323 . S
C110 C109 1.433 . S
C110 H119 0.933 . S
C111 Dy81 2.738 . S
C111 O91 1.255 . S
C111 O92 1.249 . S
C111 C105 1.516 . S
H112 C98 0.930 . S
H113 C99 0.931 . S
H114 C100 0.931 . S
H115 C101 0.933 . S
H116 C107 0.930 . S
H117 C108 0.931 . S
H118 C109 0.931 . S
H119 C110 0.933 . S
Dy120 O123 2.307 . S
Dy120 O125 2.395 . S
Dy120 O126 2.379 . S
Dy120 O128 2.339 . S
Dy120 O130 2.298 . S
Dy120 O134 2.275 . S
Dy120 C142 2.738 . S
Dy121 O124 2.298 . S
Dy121 O127 2.275 . S
Dy121 O129 2.307 . S
Dy121 O131 2.395 . S
Dy121 O132 2.379 . S
Dy121 O135 2.339 . S
Dy121 C151 2.738 . S
C122 O134 1.254 . S
C122 O135 1.257 . S
O123 Dy120 2.307 . S
O123 C133 1.266 . S
O124 Dy121 2.298 . S
O124 C133 1.236 . S
O125 Dy120 2.395 . S
O125 C142 1.255 . S
O126 Dy120 2.379 . S
O126 C142 1.249 . S
O127 Dy121 2.275 . S
O127 C143 1.254 . S
O128 Dy120 2.339 . S
O128 C143 1.257 . S
O129 Dy121 2.307 . S
O129 C144 1.266 . S
O130 Dy120 2.298 . S
O130 C144 1.236 . S
O131 Dy121 2.395 . S
O131 C151 1.255 . S
O132 Dy121 2.379 . S
O132 C151 1.249 . S
C133 O123 1.266 . S
C133 O124 1.236 . S
O134 Dy120 2.275 . S
O134 C122 1.254 . S
O135 Dy121 2.339 . S
O135 C122 1.257 . S
C136 C139 1.344 . S
C136 C140 1.328 . S
C136 C142 1.516 . S
C137 C138 1.304 . S
C137 C141 1.323 . S
C138 C137 1.304 . S
C138 C139 1.371 . S
C138 H152 0.930 . S
C139 C136 1.344 . S
C139 C138 1.371 . S
C139 H153 0.931 . S
C140 C136 1.328 . S
C140 C141 1.433 . S
C140 H154 0.931 . S
C141 C137 1.323 . S
C141 C140 1.433 . S
C141 H155 0.933 . S
C142 Dy120 2.738 . S
C142 O125 1.255 . S
C142 O126 1.249 . S
C142 C136 1.516 . S
C143 O127 1.254 . S
C143 O128 1.257 . S
C144 O129 1.266 . S
C144 O130 1.236 . S
C145 C148 1.344 . S
C145 C149 1.328 . S
C145 C151 1.516 . S
C146 C147 1.304 . S
C146 C150 1.323 . S
C147 C146 1.304 . S
C147 C148 1.371 . S
C147 H156 0.930 . S
C148 C145 1.344 . S
C148 C147 1.371 . S
C148 H157 0.931 . S
C149 C145 1.328 . S
C149 C150 1.433 . S
C149 H158 0.931 . S
C150 C146 1.323 . S
C150 C149 1.433 . S
C150 H159 0.933 . S
C151 Dy121 2.738 . S
C151 O131 1.255 . S
C151 O132 1.249 . S
C151 C145 1.516 . S
H152 C138 0.930 . S
H153 C139 0.931 . S
H154 C140 0.931 . S
H155 C141 0.933 . S
H156 C147 0.930 . S
H157 C148 0.931 . S
H158 C149 0.931 . S
H159 C150 0.933 . S
Dy160 O163 2.307 . S
Dy160 O165 2.395 . S
Dy160 O166 2.379 . S
Dy160 O168 2.339 . S
Dy160 O170 2.298 . S
Dy160 O174 2.275 . S
Dy160 C182 2.738 . S
Dy161 O164 2.298 . S
Dy161 O167 2.275 . S
Dy161 O169 2.307 . S
Dy161 O171 2.395 . S
Dy161 O172 2.379 . S
Dy161 O175 2.339 . S
Dy161 C191 2.738 . S
C162 O174 1.254 . S
C162 O175 1.257 . S
O163 Dy160 2.307 . S
O163 C173 1.266 . S
O164 Dy161 2.298 . S
O164 C173 1.236 . S
O165 Dy160 2.395 . S
O165 C182 1.255 . S
O166 Dy160 2.379 . S
O166 C182 1.249 . S
O167 Dy161 2.275 . S
O167 C183 1.254 . S
O168 Dy160 2.339 . S
O168 C183 1.257 . S
O169 Dy161 2.307 . S
O169 C184 1.266 . S
O170 Dy160 2.298 . S
O170 C184 1.236 . S
O171 Dy161 2.395 . S
O171 C191 1.255 . S
O172 Dy161 2.379 . S
O172 C191 1.249 . S
C173 O163 1.266 . S
C173 O164 1.236 . S
O174 Dy160 2.275 . S
O174 C162 1.254 . S
O175 Dy161 2.339 . S
O175 C162 1.257 . S
C176 C179 1.344 . S
C176 C180 1.328 . S
C176 C182 1.516 . S
C177 C178 1.304 . S
C177 C181 1.323 . S
C178 C177 1.304 . S
C178 C179 1.371 . S
C178 H192 0.930 . S
C179 C176 1.344 . S
C179 C178 1.371 . S
C179 H193 0.931 . S
C180 C176 1.328 . S
C180 C181 1.433 . S
C180 H194 0.931 . S
C181 C177 1.323 . S
C181 C180 1.433 . S
C181 H195 0.933 . S
C182 Dy160 2.738 . S
C182 O165 1.255 . S
C182 O166 1.249 . S
C182 C176 1.516 . S
C183 O167 1.254 . S
C183 O168 1.257 . S
C184 O169 1.266 . S
C184 O170 1.236 . S
C185 C188 1.344 . S
C185 C189 1.328 . S
C185 C191 1.516 . S
C186 C187 1.304 . S
C186 C190 1.323 . S
C187 C186 1.304 . S
C187 C188 1.371 . S
C187 H196 0.930 . S
C188 C185 1.344 . S
C188 C187 1.371 . S
C188 H197 0.931 . S
C189 C185 1.328 . S
C189 C190 1.433 . S
C189 H198 0.931 . S
C190 C186 1.323 . S
C190 C189 1.433 . S
C190 H199 0.933 . S
C191 Dy161 2.738 . S
C191 O171 1.255 . S
C191 O172 1.249 . S
C191 C185 1.516 . S
H192 C178 0.930 . S
H193 C179 0.931 . S
H194 C180 0.931 . S
H195 C181 0.933 . S
H196 C187 0.930 . S
H197 C188 0.931 . S
H198 C189 0.931 . S
H199 C190 0.933 . S
Dy200 O203 2.307 . S
Dy200 O205 2.395 . S
Dy200 O206 2.379 . S
Dy200 O208 2.339 . S
Dy200 O210 2.298 . S
Dy200 O214 2.275 . S
Dy200 C222 2.738 . S
Dy201 O204 2.298 . S
Dy201 O207 2.275 . S
Dy201 O209 2.307 . S
Dy201 O211 2.395 . S
Dy201 O212 2.379 . S
Dy201 O215 2.339 . S
Dy201 C231 2.738 . S
C202 O214 1.254 . S
C202 O215 1.257 . S
O203 Dy200 2.307 . S
O203 C213 1.266 . S
O204 Dy201 2.298 . S
O204 C213 1.236 . S
O205 Dy200 2.395 . S
O205 C222 1.255 . S
O206 Dy200 2.379 . S
O206 C222 1.249 . S
O207 Dy201 2.275 . S
O207 C223 1.254 . S
O208 Dy200 2.339 . S
O208 C223 1.257 . S
O209 Dy201 2.307 . S
O209 C224 1.266 . S
O210 Dy200 2.298 . S
O210 C224 1.236 . S
O211 Dy201 2.395 . S
O211 C231 1.255 . S
O212 Dy201 2.379 . S
O212 C231 1.249 . S
C213 O203 1.266 . S
C213 O204 1.236 . S
O214 Dy200 2.275 . S
O214 C202 1.254 . S
O215 Dy201 2.339 . S
O215 C202 1.257 . S
C216 C219 1.344 . S
C216 C220 1.328 . S
C216 C222 1.516 . S
C217 C218 1.304 . S
C217 C221 1.323 . S
C218 C217 1.304 . S
C218 C219 1.371 . S
C218 H232 0.930 . S
C219 C216 1.344 . S
C219 C218 1.371 . S
C219 H233 0.931 . S
C220 C216 1.328 . S
C220 C221 1.433 . S
C220 H234 0.931 . S
C221 C217 1.323 . S
C221 C220 1.433 . S
C221 H235 0.933 . S
C222 Dy200 2.738 . S
C222 O205 1.255 . S
C222 O206 1.249 . S
C222 C216 1.516 . S
C223 O207 1.254 . S
C223 O208 1.257 . S
C224 O209 1.266 . S
C224 O210 1.236 . S
C225 C228 1.344 . S
C225 C229 1.328 . S
C225 C231 1.516 . S
C226 C227 1.304 . S
C226 C230 1.323 . S
C227 C226 1.304 . S
C227 C228 1.371 . S
C227 H236 0.930 . S
C228 C225 1.344 . S
C228 C227 1.371 . S
C228 H237 0.931 . S
C229 C225 1.328 . S
C229 C230 1.433 . S
C229 H238 0.931 . S
C230 C226 1.323 . S
C230 C229 1.433 . S
C230 H239 0.933 . S
C231 Dy201 2.738 . S
C231 O211 1.255 . S
C231 O212 1.249 . S
C231 C225 1.516 . S
H232 C218 0.930 . S
H233 C219 0.931 . S
H234 C220 0.931 . S
H235 C221 0.933 . S
H236 C227 0.930 . S
H237 C228 0.931 . S
H238 C229 0.931 . S
H239 C230 0.933 . S
Dy240 O243 2.307 . S
Dy240 O245 2.395 . S
Dy240 O246 2.379 . S
Dy240 O248 2.339 . S
Dy240 O250 2.298 . S
Dy240 O254 2.275 . S
Dy240 C262 2.738 . S
Dy241 O244 2.298 . S
Dy241 O247 2.275 . S
Dy241 O249 2.307 . S
Dy241 O251 2.395 . S
Dy241 O252 2.379 . S
Dy241 O255 2.339 . S
Dy241 C271 2.738 . S
C242 O254 1.254 . S
C242 O255 1.257 . S
O243 Dy240 2.307 . S
O243 C253 1.266 . S
O244 Dy241 2.298 . S
O244 C253 1.236 . S
O245 Dy240 2.395 . S
O245 C262 1.255 . S
O246 Dy240 2.379 . S
O246 C262 1.249 . S
O247 Dy241 2.275 . S
O247 C263 1.254 . S
O248 Dy240 2.339 . S
O248 C263 1.257 . S
O249 Dy241 2.307 . S
O249 C264 1.266 . S
O250 Dy240 2.298 . S
O250 C264 1.236 . S
O251 Dy241 2.395 . S
O251 C271 1.255 . S
O252 Dy241 2.379 . S
O252 C271 1.249 . S
C253 O243 1.266 . S
C253 O244 1.236 . S
O254 Dy240 2.275 . S
O254 C242 1.254 . S
O255 Dy241 2.339 . S
O255 C242 1.257 . S
C256 C259 1.344 . S
C256 C260 1.328 . S
C256 C262 1.516 . S
C257 C258 1.304 . S
C257 C261 1.323 . S
C258 C257 1.304 . S
C258 C259 1.371 . S
C258 H272 0.930 . S
C259 C256 1.344 . S
C259 C258 1.371 . S
C259 H273 0.931 . S
C260 C256 1.328 . S
C260 C261 1.433 . S
C260 H274 0.931 . S
C261 C257 1.323 . S
C261 C260 1.433 . S
C261 H275 0.933 . S
C262 Dy240 2.738 . S
C262 O245 1.255 . S
C262 O246 1.249 . S
C262 C256 1.516 . S
C263 O247 1.254 . S
C263 O248 1.257 . S
C264 O249 1.266 . S
C264 O250 1.236 . S
C265 C268 1.344 . S
C265 C269 1.328 . S
C265 C271 1.516 . S
C266 C267 1.304 . S
C266 C270 1.323 . S
C267 C266 1.304 . S
C267 C268 1.371 . S
C267 H276 0.930 . S
C268 C265 1.344 . S
C268 C267 1.371 . S
C268 H277 0.931 . S
C269 C265 1.328 . S
C269 C270 1.433 . S
C269 H278 0.931 . S
C270 C266 1.323 . S
C270 C269 1.433 . S
C270 H279 0.933 . S
C271 Dy241 2.738 . S
C271 O251 1.255 . S
C271 O252 1.249 . S
C271 C265 1.516 . S
H272 C258 0.930 . S
H273 C259 0.931 . S
H274 C260 0.931 . S
H275 C261 0.933 . S
H276 C267 0.930 . S
H277 C268 0.931 . S
H278 C269 0.931 . S
H279 C270 0.933 . S
Dy280 O283 2.307 . S
Dy280 O285 2.395 . S
Dy280 O286 2.379 . S
Dy280 O288 2.339 . S
Dy280 O290 2.298 . S
Dy280 O294 2.275 . S
Dy280 C302 2.738 . S
Dy281 O284 2.298 . S
Dy281 O287 2.275 . S
Dy281 O289 2.307 . S
Dy281 O291 2.395 . S
Dy281 O292 2.379 . S
Dy281 O295 2.339 . S
Dy281 C311 2.738 . S
C282 O294 1.254 . S
C282 O295 1.257 . S
O283 Dy280 2.307 . S
O283 C293 1.266 . S
O284 Dy281 2.298 . S
O284 C293 1.236 . S
O285 Dy280 2.395 . S
O285 C302 1.255 . S
O286 Dy280 2.379 . S
O286 C302 1.249 . S
O287 Dy281 2.275 . S
O287 C303 1.254 . S
O288 Dy280 2.339 . S
O288 C303 1.257 . S
O289 Dy281 2.307 . S
O289 C304 1.266 . S
O290 Dy280 2.298 . S
O290 C304 1.236 . S
O291 Dy281 2.395 . S
O291 C311 1.255 . S
O292 Dy281 2.379 . S
O292 C311 1.249 . S
C293 O283 1.266 . S
C293 O284 1.236 . S
O294 Dy280 2.275 . S
O294 C282 1.254 . S
O295 Dy281 2.339 . S
O295 C282 1.257 . S
C296 C299 1.344 . S
C296 C300 1.328 . S
C296 C302 1.516 . S
C297 C298 1.304 . S
C297 C301 1.323 . S
C298 C297 1.304 . S
C298 C299 1.371 . S
C298 H312 0.930 . S
C299 C296 1.344 . S
C299 C298 1.371 . S
C299 H313 0.931 . S
C300 C296 1.328 . S
C300 C301 1.433 . S
C300 H314 0.931 . S
C301 C297 1.323 . S
C301 C300 1.433 . S
C301 H315 0.933 . S
C302 Dy280 2.738 . S
C302 O285 1.255 . S
C302 O286 1.249 . S
C302 C296 1.516 . S
C303 O287 1.254 . S
C303 O288 1.257 . S
C304 O289 1.266 . S
C304 O290 1.236 . S
C305 C308 1.344 . S
C305 C309 1.328 . S
C305 C311 1.516 . S
C306 C307 1.304 . S
C306 C310 1.323 . S
C307 C306 1.304 . S
C307 C308 1.371 . S
C307 H316 0.930 . S
C308 C305 1.344 . S
C308 C307 1.371 . S
C308 H317 0.931 . S
C309 C305 1.328 . S
C309 C310 1.433 . S
C309 H318 0.931 . S
C310 C306 1.323 . S
C310 C309 1.433 . S
C310 H319 0.933 . S
C311 Dy281 2.738 . S
C311 O291 1.255 . S
C311 O292 1.249 . S
C311 C305 1.516 . S
H312 C298 0.930 . S
H313 C299 0.931 . S
H314 C300 0.931 . S
H315 C301 0.933 . S
H316 C307 0.930 . S
H317 C308 0.931 . S
H318 C309 0.931 . S
H319 C310 0.933 . S
C320 O332 1.241 . S
C320 O333 1.280 . S
C321 O334 1.277 . S
C321 O335 1.245 . S
C322 O346 1.247 . S
C322 O348 1.289 . S
Mg323 O324 1.926 1_455 S
Mg323 O333 1.984 1_455 S
Mg323 O335 1.988 1_455 S
Mg323 O336 2.061 . S
O324 Mg323 1.926 1_655 S
O324 Mg325 1.986 . S
O324 Mg326 1.917 1_655 S
Mg325 O324 1.986 . S
Mg325 O332 2.042 . S
Mg325 O334 2.041 . S
Mg325 O340 2.038 1_545 S
Mg325 O348 2.238 1_545 S
Mg326 O324 1.917 1_455 S
Mg326 O327 1.917 1_545 S
Mg326 O337 2.106 . S
Mg326 O339 2.079 1_545 S
Mg326 O348 2.106 1_445 S
Mg326 O349 2.079 . S
O327 Mg326 1.917 1_565 S
O327 Mg328 1.926 . S
O327 Mg329 1.986 1_565 S
Mg328 O327 1.926 . S
Mg328 O342 1.984 . S
Mg328 O345 1.988 . S
Mg328 O346 2.061 1_455 S
Mg329 O327 1.986 1_545 S
Mg329 O337 2.238 . S
Mg329 O341 2.042 1_545 S
Mg329 O343 2.041 1_545 S
Mg329 O350 2.038 . S
C330 O336 1.247 . S
C330 O337 1.289 . S
C331 O349 1.245 . S
C331 O350 1.274 . S
O332 C320 1.241 . S
O332 Mg325 2.042 . S
O333 C320 1.280 . S
O333 Mg323 1.984 1_655 S
O334 C321 1.277 . S
O334 Mg325 2.041 . S
O335 C321 1.245 . S
O335 Mg323 1.988 1_655 S
O336 Mg323 2.061 . S
O336 C330 1.247 . S
O337 Mg326 2.106 . S
O337 Mg329 2.238 . S
O337 C330 1.289 . S
C338 O339 1.245 1_655 S
C338 O340 1.274 . S
O339 Mg326 2.079 1_565 S
O339 C338 1.245 1_455 S
O340 Mg325 2.038 1_565 S
O340 C338 1.274 . S
O341 Mg329 2.042 1_565 S
O341 C344 1.241 . S
O342 Mg328 1.984 . S
O342 C344 1.280 . S
O343 Mg329 2.041 1_565 S
O343 C347 1.277 . S
C344 O341 1.241 . S
C344 O342 1.280 . S
O345 Mg328 1.988 . S
O345 C347 1.245 . S
O346 C322 1.247 . S
O346 Mg328 2.061 1_655 S
C347 O343 1.277 . S
C347 O345 1.245 . S
O348 C322 1.289 . S
O348 Mg325 2.238 1_565 S
O348 Mg326 2.106 1_665 S
O349 Mg326 2.079 . S
O349 C331 1.245 . S
O350 Mg329 2.038 . S
O350 C331 1.274 . S
C351 O363 1.241 . S
C351 O364 1.280 . S
C352 O365 1.277 . S
C352 O366 1.245 . S
C353 O377 1.247 . S
C353 O379 1.289 1_565 S
Mg354 O355 1.926 . S
Mg354 O364 1.984 . S
Mg354 O366 1.988 1_554 S
Mg354 O367 2.061 . S
O355 Mg354 1.926 . S
O355 Mg356 1.986 1_554 S
O355 Mg357 1.921 . S
Mg356 O355 1.986 1_556 S
Mg356 O363 2.042 1_556 S
Mg356 O365 2.041 . S
Mg356 O371 2.038 1_556 S
Mg356 O379 2.238 . S
Mg357 O355 1.921 . S
Mg357 O358 1.913 1_554 S
Mg357 O368 2.114 . S
Mg357 O370 2.092 . S
Mg357 O379 2.099 1_554 S
Mg357 O380 2.065 1_554 S
O358 Mg357 1.913 1_556 S
O358 Mg359 1.926 1_545 S
O358 Mg360 1.986 1_556 S
Mg359 O358 1.926 1_565 S
Mg359 O373 1.984 . S
Mg359 O376 1.988 1_556 S
Mg359 O377 2.061 . S
Mg360 O358 1.986 1_554 S
Mg360 O368 2.238 . S
Mg360 O372 2.042 1_554 S
Mg360 O374 2.041 . S
Mg360 O381 2.038 1_554 S
C361 O367 1.247 . S
C361 O368 1.289 . S
C362 O380 1.245 . S
C362 O381 1.274 . S
O363 C351 1.241 . S
O363 Mg356 2.042 1_554 S
O364 C351 1.280 . S
O364 Mg354 1.984 . S
O365 C352 1.277 . S
O365 Mg356 2.041 . S
O366 C352 1.245 . S
O366 Mg354 1.988 1_556 S
O367 Mg354 2.061 . S
O367 C361 1.247 . S
O368 Mg357 2.114 . S
O368 Mg360 2.238 . S
O368 C361 1.289 . S
C369 O370 1.245 1_565 S
C369 O371 1.274 1_565 S
O370 Mg357 2.092 . S
O370 C369 1.245 1_545 S
O371 Mg356 2.038 1_554 S
O371 C369 1.274 1_545 S
O372 Mg360 2.042 1_556 S
O372 C375 1.241 1_545 S
O373 Mg359 1.984 . S
O373 C375 1.280 . S
O374 Mg360 2.041 . S
O374 C378 1.277 1_545 S
C375 O372 1.241 1_565 S
C375 O373 1.280 . S
O376 Mg359 1.988 1_554 S
O376 C378 1.245 . S
O377 C353 1.247 . S
O377 Mg359 2.061 . S
C378 O374 1.277 1_565 S
C378 O376 1.245 . S
O379 C353 1.289 1_545 S
O379 Mg356 2.238 . S
O379 Mg357 2.099 1_556 S
O380 Mg357 2.065 1_556 S
O380 C362 1.245 . S
O381 Mg360 2.038 1_556 S
O381 C362 1.274 . S
C382 O394 1.241 . S
C382 O395 1.280 . S
C383 O396 1.277 . S
C383 O397 1.245 . S
C384 O408 1.247 1_556 S
C384 O410 1.289 1_556 S
Mg385 O386 1.926 . S
Mg385 O395 1.984 . S
Mg385 O397 1.988 . S
Mg385 O398 2.061 1_655 S
O386 Mg385 1.926 . S
O386 Mg387 1.986 . S
O386 Mg388 1.917 1_655 S
Mg387 O386 1.986 . S
Mg387 O394 2.042 . S
Mg387 O396 2.041 . S
Mg387 O402 2.038 . S
Mg387 O410 2.238 . S
Mg388 O386 1.917 1_455 S
Mg388 O389 1.917 . S
Mg388 O399 2.106 . S
Mg388 O401 2.079 1_455 S
Mg388 O410 2.106 1_455 S
Mg388 O411 2.079 . S
O389 Mg388 1.917 . S
O389 Mg390 1.926 . S
O389 Mg391 1.986 . S
Mg390 O389 1.926 . S
Mg390 O404 1.999 . S
Mg390 O407 1.988 . S
Mg390 O408 2.061 1_455 S
Mg391 O389 1.986 . S
Mg391 O399 2.238 . S
Mg391 O403 2.042 . S
Mg391 O405 2.041 . S
Mg391 O412 2.038 . S
C392 O398 1.247 . S
C392 O399 1.289 . S
C393 O411 1.245 . S
C393 O412 1.274 . S
O394 C382 1.241 . S
O394 Mg387 2.042 . S
O395 C382 1.280 . S
O395 Mg385 1.984 . S
O396 C383 1.277 . S
O396 Mg387 2.041 . S
O397 C383 1.245 . S
O397 Mg385 1.988 . S
O398 Mg385 2.061 1_455 S
O398 C392 1.247 . S
O399 Mg388 2.106 . S
O399 Mg391 2.238 . S
O399 C392 1.289 . S
C400 O401 1.245 . S
C400 O402 1.274 . S
O401 Mg388 2.079 1_655 S
O401 C400 1.245 . S
O402 Mg387 2.038 . S
O402 C400 1.274 . S
O403 Mg391 2.042 . S
O403 C406 1.234 1_554 S
O404 Mg390 1.999 . S
O404 C406 1.271 1_554 S
O405 Mg391 2.041 . S
O405 C409 1.277 . S
C406 O403 1.234 1_556 S
C406 O404 1.271 1_556 S
O407 Mg390 1.988 . S
O407 C409 1.245 . S
O408 C384 1.247 1_554 S
O408 Mg390 2.061 1_655 S
C409 O405 1.277 . S
C409 O407 1.245 . S
O410 C384 1.289 1_554 S
O410 Mg387 2.238 . S
O410 Mg388 2.106 1_655 S
O411 Mg388 2.079 . S
O411 C393 1.245 . S
O412 Mg391 2.038 . S
O412 C393 1.274 . S
C413 O425 1.241 . S
C413 O426 1.280 . S
C414 O427 1.277 . S
C414 O428 1.245 . S
C415 O439 1.247 . S
C415 O441 1.289 . S
Mg416 O417 1.926 . S
Mg416 O426 1.984 . S
Mg416 O428 1.988 1_554 S
Mg416 O429 2.061 . S
O417 Mg416 1.926 . S
O417 Mg418 1.986 . S
O417 Mg419 1.917 . S
Mg418 O417 1.986 . S
Mg418 O425 2.042 . S
Mg418 O427 2.041 1_554 S
Mg418 O433 2.038 . S
Mg418 O441 2.238 1_554 S
Mg419 O417 1.917 . S
Mg419 O420 1.917 . S
Mg419 O430 2.106 . S
Mg419 O432 2.079 . S
Mg419 O441 2.106 1_554 S
Mg419 O442 2.079 1_554 S
O420 Mg419 1.917 . S
O420 Mg421 1.926 . S
O420 Mg422 1.986 . S
Mg421 O420 1.926 . S
Mg421 O435 1.984 1_554 S
Mg421 O438 1.988 . S
Mg421 O439 2.061 1_554 S
Mg422 O420 1.986 . S
Mg422 O430 2.238 . S
Mg422 O434 2.042 1_554 S
Mg422 O436 2.041 . S
Mg422 O443 2.038 1_554 S
C423 O429 1.247 . S
C423 O430 1.289 . S
C424 O442 1.245 . S
C424 O443 1.274 . S
O425 C413 1.241 . S
O425 Mg418 2.042 . S
O426 C413 1.280 . S
O426 Mg416 1.984 . S
O427 C414 1.277 . S
O427 Mg418 2.041 1_556 S
O428 C414 1.245 . S
O428 Mg416 1.988 1_556 S
O429 Mg416 2.061 . S
O429 C423 1.247 . S
O430 Mg419 2.106 . S
O430 Mg422 2.238 . S
O430 C423 1.289 . S
C431 O432 1.245 . S
C431 O433 1.274 . S
O432 Mg419 2.079 . S
O432 C431 1.245 . S
O433 Mg418 2.038 . S
O433 C431 1.274 . S
O434 Mg422 2.042 1_556 S
O434 C437 1.241 . S
O435 Mg421 1.984 1_556 S
O435 C437 1.280 . S
O436 Mg422 2.041 . S
O436 C440 1.277 . S
C437 O434 1.241 . S
C437 O435 1.280 . S
O438 Mg421 1.988 . S
O438 C440 1.245 . S
O439 C415 1.247 . S
O439 Mg421 2.061 1_556 S
C440 O436 1.277 . S
C440 O438 1.245 . S
O441 C415 1.289 . S
O441 Mg418 2.238 1_556 S
O441 Mg419 2.106 1_556 S
O442 Mg419 2.079 1_556 S
O442 C424 1.245 . S
O443 Mg422 2.038 1_556 S
O443 C424 1.274 . S
C444 O456 1.241 . S
C444 O457 1.280 . S
C445 O458 1.277 . S
C445 O459 1.245 1_655 S
C446 O470 1.244 1_655 S
C446 O472 1.289 . S
Mg447 O448 1.926 . S
Mg447 O457 1.984 1_455 S
Mg447 O459 1.988 . S
Mg447 O460 2.061 . S
O448 Mg447 1.926 . S
O448 Mg449 1.986 1_455 S
O448 Mg450 1.917 . S
Mg449 O448 1.986 1_655 S
Mg449 O456 2.042 . S
Mg449 O458 2.041 . S
Mg449 O464 2.038 . S
Mg449 O472 2.238 . S
Mg450 O448 1.917 . S
Mg450 O451 1.917 . S
Mg450 O461 2.106 . S
Mg450 O463 2.079 . S
Mg450 O472 2.106 1_455 S
Mg450 O473 2.079 . S
O451 Mg450 1.917 . S
O451 Mg452 1.926 . S
O451 Mg453 1.986 . S
Mg452 O451 1.926 . S
Mg452 O466 1.984 . S
Mg452 O469 1.988 . S
Mg452 O470 2.066 . S
Mg453 O451 1.986 . S
Mg453 O461 2.238 . S
Mg453 O465 2.042 . S
Mg453 O467 2.041 . S
Mg453 O474 2.038 . S
C454 O460 1.247 . S
C454 O461 1.289 . S
C455 O473 1.245 . S
C455 O474 1.274 . S
O456 C444 1.241 . S
O456 Mg449 2.042 . S
O457 C444 1.280 . S
O457 Mg447 1.984 1_655 S
O458 C445 1.277 . S
O458 Mg449 2.041 . S
O459 C445 1.245 1_455 S
O459 Mg447 1.988 . S
O460 Mg447 2.061 . S
O460 C454 1.247 . S
O461 Mg450 2.106 . S
O461 Mg453 2.238 . S
O461 C454 1.289 . S
C462 O463 1.245 1_655 S
C462 O464 1.274 . S
O463 Mg450 2.079 . S
O463 C462 1.245 1_455 S
O464 Mg449 2.038 . S
O464 C462 1.274 . S
O465 Mg453 2.042 . S
O465 C468 1.241 . S
O466 Mg452 1.984 . S
O466 C468 1.280 . S
O467 Mg453 2.041 . S
O467 C471 1.277 . S
C468 O465 1.241 . S
C468 O466 1.280 . S
O469 Mg452 1.988 . S
O469 C471 1.245 . S
O470 C446 1.244 1_455 S
O470 Mg452 2.066 . S
C471 O467 1.277 . S
C471 O469 1.245 . S
O472 C446 1.289 . S
O472 Mg449 2.238 . S
O472 Mg450 2.106 1_655 S
O473 Mg450 2.079 . S
O473 C455 1.245 . S
O474 Mg453 2.038 . S
O474 C455 1.274 . S
C475 O487 1.241 . S
C475 O488 1.280 . S
C476 O489 1.277 . S
C476 O490 1.245 . S
C477 O501 1.247 . S
C477 O503 1.289 . S
Mg478 O479 1.926 . S
Mg478 O488 1.984 . S
Mg478 O490 1.988 . S
Mg478 O491 2.061 . S
O479 Mg478 1.926 . S
O479 Mg480 1.988 . S
O479 Mg481 1.917 . S
Mg480 O479 1.988 . S
Mg480 O487 2.049 . S
Mg480 O489 2.048 . S
Mg480 O495 2.031 1_545 S
Mg480 O503 2.232 1_545 S
Mg481 O479 1.917 . S
Mg481 O482 1.917 1_545 S
Mg481 O492 2.106 . S
Mg481 O494 2.079 1_545 S
Mg481 O503 2.106 1_545 S
Mg481 O504 2.079 . S
O482 Mg481 1.917 1_565 S
O482 Mg483 1.926 . S
O482 Mg484 1.987 . S
Mg483 O482 1.926 . S
Mg483 O497 1.984 . S
Mg483 O500 1.988 . S
Mg483 O501 2.061 . S
Mg484 O482 1.987 . S
Mg484 O492 2.237 1_565 S
Mg484 O496 2.043 . S
Mg484 O498 2.042 . S
Mg484 O505 2.037 1_565 S
C485 O491 1.247 . S
C485 O492 1.289 . S
C486 O504 1.245 . S
C486 O505 1.274 . S
O487 C475 1.241 . S
O487 Mg480 2.049 . S
O488 C475 1.280 . S
O488 Mg478 1.984 . S
O489 C476 1.277 . S
O489 Mg480 2.048 . S
O490 C476 1.245 . S
O490 Mg478 1.988 . S
O491 Mg478 2.061 . S
O491 C485 1.247 . S
O492 Mg481 2.106 . S
O492 Mg484 2.237 1_545 S
O492 C485 1.289 . S
C493 O494 1.245 . S
C493 O495 1.274 . S
O494 Mg481 2.079 1_565 S
O494 C493 1.245 . S
O495 Mg480 2.031 1_565 S
O495 C493 1.274 . S
O496 Mg484 2.043 . S
O496 C499 1.241 . S
O497 Mg483 1.984 . S
O497 C499 1.280 . S
O498 Mg484 2.042 . S
O498 C502 1.277 . S
C499 O496 1.241 . S
C499 O497 1.280 . S
O500 Mg483 1.988 . S
O500 C502 1.245 . S
O501 C477 1.247 . S
O501 Mg483 2.061 . S
C502 O498 1.277 . S
C502 O500 1.245 . S
O503 C477 1.289 . S
O503 Mg480 2.232 1_565 S
O503 Mg481 2.106 1_565 S
O504 Mg481 2.079 . S
O504 C486 1.245 . S
O505 Mg484 2.037 1_545 S
O505 C486 1.274 . S
H506 C512 0.930 . S
H507 C516 0.930 . S
H508 C521 0.929 . S
H509 C519 0.929 . S
H510 C514 0.929 . S
H511 C520 0.929 . S
C512 H506 0.930 . S
C512 C513 1.367 . S
C512 C520 1.378 . S
C513 C512 1.367 . S
C513 C521 1.433 . S
C514 H510 0.929 . S
C514 C516 1.378 . S
C514 C518 1.350 . S
C515 C518 1.463 . S
C515 C520 1.350 . S
C515 N523 1.427 . S
C516 H507 0.930 . S
C516 C514 1.378 . S
C516 C517 1.367 . S
C517 C516 1.367 . S
C517 C519 1.433 . S
C518 C514 1.350 . S
C518 C515 1.463 . S
C518 N522 1.427 . S
C519 H509 0.929 . S
C519 C517 1.433 . S
C519 N522 1.384 . S
C520 H511 0.929 . S
C520 C512 1.378 . S
C520 C515 1.350 . S
C521 H508 0.929 . S
C521 C513 1.433 . S
C521 N523 1.384 . S
N522 C518 1.427 . S
N522 C519 1.384 . S
N523 C515 1.427 . S
N523 C521 1.384 . S
H524 C530 0.930 . S
H525 C534 0.930 . S
H526 C539 0.929 . S
H527 C537 0.929 . S
H528 C532 0.929 . S
H529 C538 0.929 . S
C530 H524 0.930 . S
C530 C531 1.367 . S
C530 C538 1.378 . S
C531 C530 1.367 . S
C531 C539 1.433 . S
C532 H528 0.929 . S
C532 C534 1.378 . S
C532 C536 1.350 . S
C533 C536 1.463 . S
C533 C538 1.350 . S
C533 N541 1.427 . S
C534 H525 0.930 . S
C534 C532 1.378 . S
C534 C535 1.367 . S
C535 C534 1.367 . S
C535 C537 1.433 . S
C536 C532 1.350 . S
C536 C533 1.463 . S
C536 N540 1.427 . S
C537 H527 0.929 . S
C537 C535 1.433 . S
C537 N540 1.384 . S
C538 H529 0.929 . S
C538 C530 1.378 . S
C538 C533 1.350 . S
C539 H526 0.929 . S
C539 C531 1.433 . S
C539 N541 1.384 . S
N540 C536 1.427 . S
N540 C537 1.384 . S
N541 C533 1.427 . S
N541 C539 1.384 . S
H542 C548 0.930 . S
H543 C552 0.930 . S
H544 C557 0.929 . S
H545 C555 0.929 . S
H546 C550 0.929 . S
H547 C556 0.929 . S
C548 H542 0.930 . S
C548 C549 1.367 . S
C548 C556 1.378 . S
C549 C548 1.367 . S
C549 C557 1.433 . S
C550 H546 0.929 . S
C550 C552 1.378 . S
C550 C554 1.350 . S
C551 C554 1.463 . S
C551 C556 1.350 . S
C551 N559 1.427 . S
C552 H543 0.930 . S
C552 C550 1.378 . S
C552 C553 1.367 . S
C553 C552 1.367 . S
C553 C555 1.433 . S
C554 C550 1.350 . S
C554 C551 1.463 . S
C554 N558 1.427 . S
C555 H545 0.929 . S
C555 C553 1.433 . S
C555 N558 1.384 . S
C556 H547 0.929 . S
C556 C548 1.378 . S
C556 C551 1.350 . S
C557 H544 0.929 . S
C557 C549 1.433 . S
C557 N559 1.384 . S
N558 C554 1.427 . S
N558 C555 1.384 . S
N559 C551 1.427 . S
N559 C557 1.384 . S
H560 C566 0.930 . S
H561 C570 0.930 1_545 S
H562 C575 0.929 . S
H563 C573 0.929 . S
H564 C568 0.929 . S
H565 C574 0.929 . S
C566 H560 0.930 . S
C566 C567 1.367 . S
C566 C574 1.378 . S
C567 C566 1.367 . S
C567 C575 1.433 . S
C568 H564 0.929 . S
C568 C570 1.378 . S
C568 C572 1.350 . S
C569 C572 1.463 . S
C569 C574 1.350 . S
C569 N577 1.427 . S
C570 H561 0.930 1_565 S
C570 C568 1.378 . S
C570 C571 1.367 . S
C571 C570 1.367 . S
C571 C573 1.433 . S
C572 C568 1.350 . S
C572 C569 1.463 . S
C572 N576 1.427 . S
C573 H563 0.929 . S
C573 C571 1.433 . S
C573 N576 1.384 . S
C574 H565 0.929 . S
C574 C566 1.378 . S
C574 C569 1.350 . S
C575 H562 0.929 . S
C575 C567 1.433 . S
C575 N577 1.384 . S
N576 C572 1.427 . S
N576 C573 1.384 . S
N577 C569 1.427 . S
N577 C575 1.384 . S
H578 C584 0.930 . S
H579 C588 0.930 . S
H580 C593 0.929 . S
H581 C591 0.929 . S
H582 C586 0.929 . S
H583 C592 0.929 . S
C584 H578 0.930 . S
C584 C585 1.367 . S
C584 C592 1.378 . S
C585 C584 1.367 . S
C585 C593 1.433 . S
C586 H582 0.929 . S
C586 C588 1.378 . S
C586 C590 1.350 . S
C587 C590 1.463 . S
C587 C592 1.350 . S
C587 N595 1.427 . S
C588 H579 0.930 . S
C588 C586 1.378 . S
C588 C589 1.367 . S
C589 C588 1.367 . S
C589 C591 1.433 . S
C590 C586 1.350 . S
C590 C587 1.463 . S
C590 N594 1.427 . S
C591 H581 0.929 . S
C591 C589 1.433 . S
C591 N594 1.384 . S
C592 H583 0.929 . S
C592 C584 1.378 . S
C592 C587 1.350 . S
C593 H580 0.929 . S
C593 C585 1.433 . S
C593 N595 1.384 . S
N594 C590 1.427 . S
N594 C591 1.384 . S
N595 C587 1.427 . S
N595 C593 1.384 . S
H596 C602 0.930 . S
H597 C606 0.930 . S
H598 C611 0.929 . S
H599 C609 0.929 . S
H600 C604 0.929 . S
H601 C610 0.929 . S
C602 H596 0.930 . S
C602 C603 1.367 . S
C602 C610 1.378 . S
C603 C602 1.367 . S
C603 C611 1.433 . S
C604 H600 0.929 . S
C604 C606 1.378 . S
C604 C608 1.350 . S
C605 C608 1.463 . S
C605 C610 1.350 . S
C605 N613 1.427 . S
C606 H597 0.930 . S
C606 C604 1.378 . S
C606 C607 1.367 . S
C607 C606 1.367 . S
C607 C609 1.433 . S
C608 C604 1.350 . S
C608 C605 1.463 . S
C608 N612 1.427 . S
C609 H599 0.929 . S
C609 C607 1.433 . S
C609 N612 1.384 . S
C610 H601 0.929 . S
C610 C602 1.378 . S
C610 C605 1.350 . S
C611 H598 0.929 . S
C611 C603 1.433 . S
C611 N613 1.384 . S
N612 C608 1.427 . S
N612 C609 1.384 . S
N613 C605 1.427 . S
N613 C611 1.384 . S
H614 C620 0.930 . S
H615 C624 0.930 . S
H616 C629 0.929 . S
H617 C627 0.929 . S
H618 C622 0.929 . S
H619 C628 0.929 . S
C620 H614 0.930 . S
C620 C621 1.367 . S
C620 C628 1.378 . S
C621 C620 1.367 . S
C621 C629 1.433 . S
C622 H618 0.929 . S
C622 C624 1.378 . S
C622 C626 1.350 . S
C623 C626 1.463 . S
C623 C628 1.350 . S
C623 N631 1.427 . S
C624 H615 0.930 . S
C624 C622 1.378 . S
C624 C625 1.367 . S
C625 C624 1.367 . S
C625 C627 1.433 . S
C626 C622 1.350 . S
C626 C623 1.463 . S
C626 N630 1.427 . S
C627 H617 0.929 . S
C627 C625 1.433 . S
C627 N630 1.384 . S
C628 H619 0.929 . S
C628 C620 1.378 . S
C628 C623 1.350 . S
C629 H616 0.929 . S
C629 C621 1.433 . S
C629 N631 1.384 . S
N630 C626 1.427 . S
N630 C627 1.384 . S
N631 C623 1.427 . S
N631 C629 1.384 . S
H632 C638 0.930 . S
H633 C642 0.930 . S
H634 C647 0.929 . S
H635 C645 0.929 . S
H636 C640 0.929 . S
H637 C646 0.929 . S
C638 H632 0.930 . S
C638 C639 1.367 . S
C638 C646 1.378 . S
C639 C638 1.367 . S
C639 C647 1.433 . S
C640 H636 0.929 . S
C640 C642 1.378 . S
C640 C644 1.350 . S
C641 C644 1.463 . S
C641 C646 1.350 . S
C641 N649 1.427 . S
C642 H633 0.930 . S
C642 C640 1.378 . S
C642 C643 1.367 . S
C643 C642 1.367 . S
C643 C645 1.433 . S
C644 C640 1.350 . S
C644 C641 1.463 . S
C644 N648 1.427 . S
C645 H635 0.929 . S
C645 C643 1.433 . S
C645 N648 1.384 . S
C646 H637 0.929 . S
C646 C638 1.378 . S
C646 C641 1.350 . S
C647 H634 0.929 . S
C647 C639 1.433 . S
C647 N649 1.384 . S
N648 C644 1.427 . S
N648 C645 1.384 . S
N649 C641 1.427 . S
N649 C647 1.384 . S
H650 C656 0.930 . S
H651 C660 0.930 . S
H652 C665 0.929 . S
H653 C663 0.929 . S
H654 C658 0.929 . S
H655 C664 0.929 . S
C656 H650 0.930 . S
C656 C657 1.367 . S
C656 C664 1.378 . S
C657 C656 1.367 . S
C657 C665 1.433 . S
C658 H654 0.929 . S
C658 C660 1.378 . S
C658 C662 1.350 . S
C659 C662 1.463 . S
C659 C664 1.350 . S
C659 N667 1.427 . S
C660 H651 0.930 . S
C660 C658 1.378 . S
C660 C661 1.367 . S
C661 C660 1.367 . S
C661 C663 1.433 . S
C662 C658 1.350 . S
C662 C659 1.463 . S
C662 N666 1.427 . S
C663 H653 0.929 . S
C663 C661 1.433 . S
C663 N666 1.384 . S
C664 H655 0.929 . S
C664 C656 1.378 . S
C664 C659 1.350 . S
C665 H652 0.929 . S
C665 C657 1.433 . S
C665 N667 1.384 . S
N666 C662 1.427 . S
N666 C663 1.384 . S
N667 C659 1.427 . S
N667 C665 1.384 . S
H668 C674 0.930 . S
H669 C678 0.930 . S
H670 C683 0.929 . S
H671 C681 0.929 . S
H672 C676 0.929 . S
H673 C682 0.929 . S
C674 H668 0.930 . S
C674 C675 1.367 . S
C674 C682 1.378 . S
C675 C674 1.367 . S
C675 C683 1.433 . S
C676 H672 0.929 . S
C676 C678 1.378 . S
C676 C680 1.350 . S
C677 C680 1.463 . S
C677 C682 1.350 . S
C677 N685 1.427 . S
C678 H669 0.930 . S
C678 C676 1.378 . S
C678 C679 1.367 . S
C679 C678 1.367 . S
C679 C681 1.433 . S
C680 C676 1.350 . S
C680 C677 1.463 . S
C680 N684 1.427 . S
C681 H671 0.929 . S
C681 C679 1.433 . S
C681 N684 1.384 . S
C682 H673 0.929 . S
C682 C674 1.378 . S
C682 C677 1.350 . S
C683 H670 0.929 . S
C683 C675 1.433 . S
C683 N685 1.384 . S
N684 C680 1.427 . S
N684 C681 1.384 . S
N685 C677 1.427 . S
N685 C683 1.384 . S
H686 C692 0.930 . S
H687 C696 0.930 . S
H688 C701 0.929 . S
H689 C699 0.929 1_545 S
H690 C694 0.929 . S
H691 C700 0.929 . S
C692 H686 0.930 . S
C692 C693 1.367 . S
C692 C700 1.378 . S
C693 C692 1.367 . S
C693 C701 1.433 . S
C694 H690 0.929 . S
C694 C696 1.378 . S
C694 C698 1.350 . S
C695 C698 1.463 . S
C695 C700 1.350 . S
C695 N703 1.427 . S
C696 H687 0.930 . S
C696 C694 1.378 . S
C696 C697 1.367 . S
C697 C696 1.367 . S
C697 C699 1.433 . S
C698 C694 1.350 . S
C698 C695 1.463 . S
C698 N702 1.427 . S
C699 H689 0.929 1_565 S
C699 C697 1.433 . S
C699 N702 1.384 . S
C700 H691 0.929 . S
C700 C692 1.378 . S
C700 C695 1.350 . S
C701 H688 0.929 . S
C701 C693 1.433 . S
C701 N703 1.384 . S
N702 C698 1.427 . S
N702 C699 1.384 . S
N703 C695 1.427 . S
N703 C701 1.384 . S
H704 C710 0.930 . S
H705 C714 0.930 . S
H706 C719 0.929 . S
H707 C717 0.929 . S
H708 C712 0.929 . S
H709 C718 0.929 . S
C710 H704 0.930 . S
C710 C711 1.367 . S
C710 C718 1.378 . S
C711 C710 1.367 . S
C711 C719 1.433 . S
C712 H708 0.929 . S
C712 C714 1.378 . S
C712 C716 1.350 . S
C713 C716 1.463 . S
C713 C718 1.350 . S
C713 N721 1.427 . S
C714 H705 0.930 . S
C714 C712 1.378 . S
C714 C715 1.367 . S
C715 C714 1.367 . S
C715 C717 1.433 . S
C716 C712 1.350 . S
C716 C713 1.463 . S
C716 N720 1.427 . S
C717 H707 0.929 . S
C717 C715 1.433 . S
C717 N720 1.384 . S
C718 H709 0.929 . S
C718 C710 1.378 . S
C718 C713 1.350 . S
C719 H706 0.929 . S
C719 C711 1.433 . S
C719 N721 1.384 . S
N720 C716 1.427 . S
N720 C717 1.384 . S
N721 C713 1.427 . S
N721 C719 1.384 . S
H722 C728 0.930 . S
H723 C732 0.930 . S
H724 C737 0.929 . S
H725 C735 0.929 . S
H726 C730 0.929 . S
H727 C736 0.929 . S
C728 H722 0.930 . S
C728 C729 1.367 . S
C728 C736 1.378 . S
C729 C728 1.367 . S
C729 C737 1.433 . S
C730 H726 0.929 . S
C730 C732 1.378 . S
C730 C734 1.350 . S
C731 C734 1.463 . S
C731 C736 1.350 . S
C731 N739 1.427 . S
C732 H723 0.930 . S
C732 C730 1.378 . S
C732 C733 1.367 . S
C733 C732 1.367 . S
C733 C735 1.433 . S
C734 C730 1.350 . S
C734 C731 1.463 . S
C734 N738 1.427 . S
C735 H725 0.929 . S
C735 C733 1.433 . S
C735 N738 1.384 . S
C736 H727 0.929 . S
C736 C728 1.378 . S
C736 C731 1.350 . S
C737 H724 0.929 . S
C737 C729 1.433 . S
C737 N739 1.384 . S
N738 C734 1.427 . S
N738 C735 1.384 . S
N739 C731 1.427 . S
N739 C737 1.384 . S
H740 C746 0.930 . S
H741 C750 0.930 1_554 S
H742 C755 0.929 . S
H743 C753 0.929 . S
H744 C748 0.929 . S
H745 C754 0.929 . S
C746 H740 0.930 . S
C746 C747 1.367 . S
C746 C754 1.378 . S
C747 C746 1.367 . S
C747 C755 1.433 . S
C748 H744 0.929 . S
C748 C750 1.378 . S
C748 C752 1.350 . S
C749 C752 1.463 . S
C749 C754 1.350 . S
C749 N757 1.427 . S
C750 H741 0.930 1_556 S
C750 C748 1.378 . S
C750 C751 1.367 . S
C751 C750 1.367 . S
C751 C753 1.433 . S
C752 C748 1.350 . S
C752 C749 1.463 . S
C752 N756 1.427 . S
C753 H743 0.929 . S
C753 C751 1.433 . S
C753 N756 1.384 . S
C754 H745 0.929 . S
C754 C746 1.378 . S
C754 C749 1.350 . S
C755 H742 0.929 . S
C755 C747 1.433 . S
C755 N757 1.384 . S
N756 C752 1.427 . S
N756 C753 1.384 . S
N757 C749 1.427 . S
N757 C755 1.384 . S
H758 C764 0.930 . S
H759 C768 0.930 . S
H760 C773 0.929 . S
H761 C771 0.929 . S
H762 C766 0.929 . S
H763 C772 0.929 . S
C764 H758 0.930 . S
C764 C765 1.367 . S
C764 C772 1.378 . S
C765 C764 1.367 . S
C765 C773 1.433 . S
C766 H762 0.929 . S
C766 C768 1.378 . S
C766 C770 1.350 . S
C767 C770 1.463 . S
C767 C772 1.350 . S
C767 N775 1.427 . S
C768 H759 0.930 . S
C768 C766 1.378 . S
C768 C769 1.367 . S
C769 C768 1.367 . S
C769 C771 1.433 . S
C770 C766 1.350 . S
C770 C767 1.463 . S
C770 N774 1.427 . S
C771 H761 0.929 . S
C771 C769 1.433 . S
C771 N774 1.384 . S
C772 H763 0.929 . S
C772 C764 1.378 . S
C772 C767 1.350 . S
C773 H760 0.929 . S
C773 C765 1.433 . S
C773 N775 1.384 . S
N774 C770 1.427 . S
N774 C771 1.384 . S
N775 C767 1.427 . S
N775 C773 1.384 . S
H776 C782 0.930 . S
H777 C786 0.930 . S
H778 C791 0.929 . S
H779 C789 0.929 . S
H780 C784 0.929 . S
H781 C790 0.929 . S
C782 H776 0.930 . S
C782 C783 1.367 . S
C782 C790 1.378 . S
C783 C782 1.367 . S
C783 C791 1.433 . S
C784 H780 0.929 . S
C784 C786 1.378 . S
C784 C788 1.350 1_554 S
C785 C788 1.463 . S
C785 C790 1.350 . S
C785 N793 1.427 . S
C786 H777 0.930 . S
C786 C784 1.378 . S
C786 C787 1.367 1_554 S
C787 C786 1.367 1_556 S
C787 C789 1.433 . S
C788 C784 1.350 1_556 S
C788 C785 1.463 . S
C788 N792 1.427 . S
C789 H779 0.929 . S
C789 C787 1.433 . S
C789 N792 1.384 . S
C790 H781 0.929 . S
C790 C782 1.378 . S
C790 C785 1.350 . S
C791 H778 0.929 . S
C791 C783 1.433 . S
C791 N793 1.384 . S
N792 C788 1.427 . S
N792 C789 1.384 . S
N793 C785 1.427 . S
N793 C791 1.384 . S
H794 C800 0.930 . S
H795 C804 0.930 . S
H796 C809 0.929 . S
H797 C807 0.929 . S
H798 C802 0.929 . S
H799 C808 0.929 . S
C800 H794 0.930 . S
C800 C801 1.367 . S
C800 C808 1.378 . S
C801 C800 1.367 . S
C801 C809 1.433 . S
C802 H798 0.929 . S
C802 C804 1.378 . S
C802 C806 1.350 . S
C803 C806 1.463 . S
C803 C808 1.350 . S
C803 N811 1.427 . S
C804 H795 0.930 . S
C804 C802 1.378 . S
C804 C805 1.367 . S
C805 C804 1.367 . S
C805 C807 1.433 . S
C806 C802 1.350 . S
C806 C803 1.463 . S
C806 N810 1.427 . S
C807 H797 0.929 . S
C807 C805 1.433 . S
C807 N810 1.384 . S
C808 H799 0.929 . S
C808 C800 1.378 . S
C808 C803 1.350 . S
C809 H796 0.929 . S
C809 C801 1.433 . S
C809 N811 1.384 . S
N810 C806 1.427 . S
N810 C807 1.384 . S
N811 C803 1.427 . S
N811 C809 1.384 . S
H812 C818 0.930 . S
H813 C822 0.930 . S
H814 C827 0.929 . S
H815 C825 0.929 1_554 S
H816 C820 0.929 . S
H817 C826 0.929 . S
C818 H812 0.930 . S
C818 C819 1.367 . S
C818 C826 1.378 . S
C819 C818 1.367 . S
C819 C827 1.433 . S
C820 H816 0.929 . S
C820 C822 1.378 . S
C820 C824 1.350 . S
C821 C824 1.463 . S
C821 C826 1.350 . S
C821 N829 1.427 . S
C822 H813 0.930 . S
C822 C820 1.378 . S
C822 C823 1.361 1_556 S
C823 C822 1.361 1_554 S
C823 C825 1.431 1_554 S
C824 C820 1.350 . S
C824 C821 1.463 . S
C824 N828 1.427 . S
C825 H815 0.929 1_556 S
C825 C823 1.431 1_556 S
C825 N828 1.384 . S
C826 H817 0.929 . S
C826 C818 1.378 . S
C826 C821 1.350 . S
C827 H814 0.929 . S
C827 C819 1.433 . S
C827 N829 1.384 . S
N828 C824 1.427 . S
N828 C825 1.384 . S
N829 C821 1.427 . S
N829 C827 1.384 . S
H830 C836 0.930 . S
H831 C840 0.930 . S
H832 C845 0.929 . S
H833 C843 0.929 . S
H834 C838 0.929 . S
H835 C844 0.929 . S
C836 H830 0.930 . S
C836 C837 1.367 . S
C836 C844 1.378 . S
C837 C836 1.367 . S
C837 C845 1.433 . S
C838 H834 0.929 . S
C838 C840 1.378 . S
C838 C842 1.350 . S
C839 C842 1.463 . S
C839 C844 1.350 . S
C839 N847 1.427 . S
C840 H831 0.930 . S
C840 C838 1.378 . S
C840 C841 1.367 . S
C841 C840 1.367 . S
C841 C843 1.433 . S
C842 C838 1.350 . S
C842 C839 1.463 . S
C842 N846 1.427 . S
C843 H833 0.929 . S
C843 C841 1.433 . S
C843 N846 1.384 . S
C844 H835 0.929 . S
C844 C836 1.378 . S
C844 C839 1.350 . S
C845 H832 0.929 . S
C845 C837 1.433 . S
C845 N847 1.384 . S
N846 C842 1.427 . S
N846 C843 1.384 . S
N847 C839 1.427 . S
N847 C845 1.384 . S
H848 C854 0.930 . S
H849 C858 0.930 . S
H850 C863 0.929 . S
H851 C861 0.929 . S
H852 C856 0.929 . S
H853 C862 0.929 . S
C854 H848 0.930 . S
C854 C855 1.367 . S
C854 C862 1.378 . S
C855 C854 1.367 . S
C855 C863 1.433 . S
C856 H852 0.929 . S
C856 C858 1.378 . S
C856 C860 1.350 . S
C857 C860 1.463 . S
C857 C862 1.350 . S
C857 N865 1.427 . S
C858 H849 0.930 . S
C858 C856 1.378 . S
C858 C859 1.367 . S
C859 C858 1.367 . S
C859 C861 1.433 . S
C860 C856 1.350 . S
C860 C857 1.463 . S
C860 N864 1.427 . S
C861 H851 0.929 . S
C861 C859 1.433 . S
C861 N864 1.384 . S
C862 H853 0.929 . S
C862 C854 1.378 . S
C862 C857 1.350 . S
C863 H850 0.929 . S
C863 C855 1.433 . S
C863 N865 1.384 . S
N864 C860 1.427 . S
N864 C861 1.384 . S
N865 C857 1.427 . S
N865 C863 1.384 . S
H866 C872 0.930 . S
H867 C876 0.930 . S
H868 C881 0.929 . S
H869 C879 0.929 . S
H870 C874 0.929 . S
H871 C880 0.929 . S
C872 H866 0.930 . S
C872 C873 1.367 . S
C872 C880 1.378 . S
C873 C872 1.367 . S
C873 C881 1.433 . S
C874 H870 0.929 . S
C874 C876 1.378 . S
C874 C878 1.350 . S
C875 C878 1.463 . S
C875 C880 1.350 . S
C875 N883 1.427 . S
C876 H867 0.930 . S
C876 C874 1.378 . S
C876 C877 1.367 . S
C877 C876 1.367 . S
C877 C879 1.433 . S
C878 C874 1.350 . S
C878 C875 1.463 . S
C878 N882 1.427 . S
C879 H869 0.929 . S
C879 C877 1.433 . S
C879 N882 1.384 . S
C880 H871 0.929 . S
C880 C872 1.378 . S
C880 C875 1.350 . S
C881 H868 0.929 . S
C881 C873 1.433 . S
C881 N883 1.384 . S
N882 C878 1.427 . S
N882 C879 1.384 . S
N883 C875 1.427 . S
N883 C881 1.384 . S
H884 C890 0.930 . S
H885 C894 0.930 . S
H886 C899 0.929 . S
H887 C897 0.929 . S
H888 C892 0.929 . S
H889 C898 0.929 . S
C890 H884 0.930 . S
C890 C891 1.367 . S
C890 C898 1.378 . S
C891 C890 1.367 . S
C891 C899 1.433 . S
C892 H888 0.929 . S
C892 C894 1.378 . S
C892 C896 1.350 . S
C893 C896 1.463 . S
C893 C898 1.350 . S
C893 N901 1.427 . S
C894 H885 0.930 . S
C894 C892 1.378 . S
C894 C895 1.367 . S
C895 C894 1.367 . S
C895 C897 1.433 . S
C896 C892 1.350 . S
C896 C893 1.463 . S
C896 N900 1.427 . S
C897 H887 0.929 . S
C897 C895 1.433 . S
C897 N900 1.384 . S
C898 H889 0.929 . S
C898 C890 1.378 . S
C898 C893 1.350 . S
C899 H886 0.929 . S
C899 C891 1.433 . S
C899 N901 1.384 . S
N900 C896 1.427 . S
N900 C897 1.384 . S
N901 C893 1.427 . S
N901 C899 1.384 . S
H902 C908 0.930 . S
H903 C912 0.930 . S
H904 C917 0.929 . S
H905 C915 0.929 . S
H906 C910 0.929 . S
H907 C916 0.929 . S
C908 H902 0.930 . S
C908 C909 1.367 . S
C908 C916 1.378 . S
C909 C908 1.367 . S
C909 C917 1.433 . S
C910 H906 0.929 . S
C910 C912 1.378 . S
C910 C914 1.350 . S
C911 C914 1.463 . S
C911 C916 1.350 . S
C911 N919 1.427 . S
C912 H903 0.930 . S
C912 C910 1.378 . S
C912 C913 1.367 . S
C913 C912 1.367 . S
C913 C915 1.433 . S
C914 C910 1.350 . S
C914 C911 1.463 . S
C914 N918 1.427 . S
C915 H905 0.929 . S
C915 C913 1.433 . S
C915 N918 1.384 . S
C916 H907 0.929 . S
C916 C908 1.378 . S
C916 C911 1.350 . S
C917 H904 0.929 . S
C917 C909 1.433 . S
C917 N919 1.384 . S
N918 C914 1.427 . S
N918 C915 1.384 . S
N919 C911 1.427 . S
N919 C917 1.384 . S
H920 C926 0.930 . S
H921 C930 0.930 . S
H922 C935 0.929 . S
H923 C933 0.929 . S
H924 C928 0.929 . S
H925 C934 0.929 . S
C926 H920 0.930 . S
C926 C927 1.367 . S
C926 C934 1.378 . S
C927 C926 1.367 . S
C927 C935 1.433 . S
C928 H924 0.929 . S
C928 C930 1.378 . S
C928 C932 1.350 . S
C929 C932 1.463 . S
C929 C934 1.350 . S
C929 N937 1.427 . S
C930 H921 0.930 . S
C930 C928 1.378 . S
C930 C931 1.367 . S
C931 C930 1.367 . S
C931 C933 1.433 . S
C932 C928 1.350 . S
C932 C929 1.463 . S
C932 N936 1.427 . S
C933 H923 0.929 . S
C933 C931 1.433 . S
C933 N936 1.384 . S
C934 H925 0.929 . S
C934 C926 1.378 . S
C934 C929 1.350 . S
C935 H922 0.929 . S
C935 C927 1.433 . S
C935 N937 1.384 . S
N936 C932 1.427 . S
N936 C933 1.384 . S
N937 C929 1.427 . S
N937 C935 1.384 . S
H938 C944 0.930 . S
H939 C948 0.930 . S
H940 C953 0.929 . S
H941 C951 0.929 . S
H942 C946 0.929 . S
H943 C952 0.929 . S
C944 H938 0.930 . S
C944 C945 1.367 . S
C944 C952 1.378 . S
C945 C944 1.367 . S
C945 C953 1.433 . S
C946 H942 0.929 . S
C946 C948 1.378 . S
C946 C950 1.350 . S
C947 C950 1.463 . S
C947 C952 1.350 . S
C947 N955 1.427 . S
C948 H939 0.930 . S
C948 C946 1.378 . S
C948 C949 1.367 . S
C949 C948 1.367 . S
C949 C951 1.433 . S
C950 C946 1.350 . S
C950 C947 1.463 . S
C950 N954 1.427 . S
C951 H941 0.929 . S
C951 C949 1.433 . S
C951 N954 1.384 . S
C952 H943 0.929 . S
C952 C944 1.378 . S
C952 C947 1.350 . S
C953 H940 0.929 . S
C953 C945 1.433 . S
C953 N955 1.384 . S
N954 C950 1.427 . S
N954 C951 1.384 . S
N955 C947 1.427 . S
N955 C953 1.384 . S
H956 C962 0.930 . S
H957 C966 0.930 . S
H958 C971 0.929 . S
H959 C969 0.929 . S
H960 C964 0.929 . S
H961 C970 0.929 . S
C962 H956 0.930 . S
C962 C963 1.367 . S
C962 C970 1.378 . S
C963 C962 1.367 . S
C963 C971 1.433 . S
C964 H960 0.929 . S
C964 C966 1.378 . S
C964 C968 1.350 . S
C965 C968 1.463 . S
C965 C970 1.350 . S
C965 N973 1.427 . S
C966 H957 0.930 . S
C966 C964 1.378 . S
C966 C967 1.367 . S
C967 C966 1.367 . S
C967 C969 1.433 . S
C968 C964 1.350 . S
C968 C965 1.463 . S
C968 N972 1.427 . S
C969 H959 0.929 . S
C969 C967 1.433 . S
C969 N972 1.384 . S
C970 H961 0.929 . S
C970 C962 1.378 . S
C970 C965 1.350 . S
C971 H958 0.929 . S
C971 C963 1.433 . S
C971 N973 1.384 . S
N972 C968 1.427 . S
N972 C969 1.384 . S
N973 C965 1.427 . S
N973 C971 1.384 . S
H974 C980 0.930 . S
H975 C984 0.930 . S
H976 C989 0.929 . S
H977 C987 0.929 . S
H978 C982 0.929 . S
H979 C988 0.929 . S
C980 H974 0.930 . S
C980 C981 1.367 . S
C980 C988 1.378 . S
C981 C980 1.367 . S
C981 C989 1.433 . S
C982 H978 0.929 . S
C982 C984 1.378 . S
C982 C986 1.350 . S
C983 C986 1.463 . S
C983 C988 1.350 . S
C983 N991 1.427 . S
C984 H975 0.930 . S
C984 C982 1.378 . S
C984 C985 1.367 . S
C985 C984 1.367 . S
C985 C987 1.433 . S
C986 C982 1.350 . S
C986 C983 1.463 . S
C986 N990 1.427 . S
C987 H977 0.929 . S
C987 C985 1.433 . S
C987 N990 1.384 . S
C988 H979 0.929 . S
C988 C980 1.378 . S
C988 C983 1.350 . S
C989 H976 0.929 . S
C989 C981 1.433 . S
C989 N991 1.384 . S
N990 C986 1.427 . S
N990 C987 1.384 . S
N991 C983 1.427 . S
N991 C989 1.384 . S
H992 C998 0.930 . S
H993 C1002 0.930 . S
H994 C1007 0.929 . S
H995 C1005 0.929 . S
H996 C1000 0.929 . S
H997 C1006 0.929 . S
C998 H992 0.930 . S
C998 C999 1.367 . S
C998 C1006 1.378 . S
C999 C998 1.367 . S
C999 C1007 1.433 . S
C1000 H996 0.929 . S
C1000 C1002 1.378 . S
C1000 C1004 1.350 . S
C1001 C1004 1.463 . S
C1001 C1006 1.350 . S
C1001 N1009 1.427 . S
C1002 H993 0.930 . S
C1002 C1000 1.378 . S
C1002 C1003 1.367 . S
C1003 C1002 1.367 . S
C1003 C1005 1.433 . S
C1004 C1000 1.350 . S
C1004 C1001 1.463 . S
C1004 N1008 1.427 . S
C1005 H995 0.929 . S
C1005 C1003 1.433 . S
C1005 N1008 1.384 . S
C1006 H997 0.929 . S
C1006 C998 1.378 . S
C1006 C1001 1.350 . S
C1007 H994 0.929 . S
C1007 C999 1.433 . S
C1007 N1009 1.384 . S
N1008 C1004 1.427 . S
N1008 C1005 1.384 . S
N1009 C1001 1.427 . S
N1009 C1007 1.384 . S
H1010 C1016 0.930 . S
H1011 C1020 0.930 . S
H1012 C1025 0.929 . S
H1013 C1023 0.929 . S
H1014 C1018 0.929 . S
H1015 C1024 0.929 . S
C1016 H1010 0.930 . S
C1016 C1017 1.367 . S
C1016 C1024 1.378 . S
C1017 C1016 1.367 . S
C1017 C1025 1.433 . S
C1018 H1014 0.929 . S
C1018 C1020 1.378 . S
C1018 C1022 1.350 . S
C1019 C1022 1.463 . S
C1019 C1024 1.350 . S
C1019 N1027 1.427 . S
C1020 H1011 0.930 . S
C1020 C1018 1.378 . S
C1020 C1021 1.367 . S
C1021 C1020 1.367 . S
C1021 C1023 1.433 . S
C1022 C1018 1.350 . S
C1022 C1019 1.463 . S
C1022 N1026 1.427 . S
C1023 H1013 0.929 . S
C1023 C1021 1.433 . S
C1023 N1026 1.384 . S
C1024 H1015 0.929 . S
C1024 C1016 1.378 . S
C1024 C1019 1.350 . S
C1025 H1012 0.929 . S
C1025 C1017 1.433 . S
C1025 N1027 1.384 . S
N1026 C1022 1.427 . S
N1026 C1023 1.384 . S
N1027 C1019 1.427 . S
N1027 C1025 1.384 . S
H1028 C1034 0.930 . S
H1029 C1038 0.930 . S
H1030 C1043 0.929 . S
H1031 C1041 0.929 . S
H1032 C1036 0.929 . S
H1033 C1042 0.929 . S
C1034 H1028 0.930 . S
C1034 C1035 1.367 . S
C1034 C1042 1.378 . S
C1035 C1034 1.367 . S
C1035 C1043 1.433 . S
C1036 H1032 0.929 . S
C1036 C1038 1.378 . S
C1036 C1040 1.350 . S
C1037 C1040 1.463 . S
C1037 C1042 1.350 . S
C1037 N1045 1.427 . S
C1038 H1029 0.930 . S
C1038 C1036 1.378 . S
C1038 C1039 1.367 . S
C1039 C1038 1.367 . S
C1039 C1041 1.433 . S
C1040 C1036 1.350 . S
C1040 C1037 1.463 . S
C1040 N1044 1.427 . S
C1041 H1031 0.929 . S
C1041 C1039 1.433 . S
C1041 N1044 1.384 . S
C1042 H1033 0.929 . S
C1042 C1034 1.378 . S
C1042 C1037 1.350 . S
C1043 H1030 0.929 . S
C1043 C1035 1.433 . S
C1043 N1045 1.384 . S
N1044 C1040 1.427 . S
N1044 C1041 1.384 . S
N1045 C1037 1.427 . S
N1045 C1043 1.384 . S
H1046 C1052 0.930 . S
H1047 C1056 0.930 . S
H1048 C1061 0.929 . S
H1049 C1059 0.929 . S
H1050 C1054 0.929 . S
H1051 C1060 0.929 . S
C1052 H1046 0.930 . S
C1052 C1053 1.367 . S
C1052 C1060 1.378 . S
C1053 C1052 1.367 . S
C1053 C1061 1.433 . S
C1054 H1050 0.929 . S
C1054 C1056 1.378 . S
C1054 C1058 1.350 . S
C1055 C1058 1.463 . S
C1055 C1060 1.350 . S
C1055 N1063 1.427 . S
C1056 H1047 0.930 . S
C1056 C1054 1.378 . S
C1056 C1057 1.367 . S
C1057 C1056 1.367 . S
C1057 C1059 1.433 . S
C1058 C1054 1.350 . S
C1058 C1055 1.463 . S
C1058 N1062 1.427 . S
C1059 H1049 0.929 . S
C1059 C1057 1.433 . S
C1059 N1062 1.384 . S
C1060 H1051 0.929 . S
C1060 C1052 1.378 . S
C1060 C1055 1.350 . S
C1061 H1048 0.929 . S
C1061 C1053 1.433 . S
C1061 N1063 1.384 . S
N1062 C1058 1.427 . S
N1062 C1059 1.384 . S
N1063 C1055 1.427 . S
N1063 C1061 1.384 . S
H1064 C1070 0.930 . S
H1065 C1074 0.930 . S
H1066 C1079 0.929 . S
H1067 C1077 0.929 . S
H1068 C1072 0.929 . S
H1069 C1078 0.929 . S
C1070 H1064 0.930 . S
C1070 C1071 1.367 . S
C1070 C1078 1.378 . S
C1071 C1070 1.367 . S
C1071 C1079 1.433 . S
C1072 H1068 0.929 . S
C1072 C1074 1.378 . S
C1072 C1076 1.350 . S
C1073 C1076 1.463 . S
C1073 C1078 1.350 . S
C1073 N1081 1.427 . S
C1074 H1065 0.930 . S
C1074 C1072 1.378 . S
C1074 C1075 1.367 . S
C1075 C1074 1.367 . S
C1075 C1077 1.433 . S
C1076 C1072 1.350 . S
C1076 C1073 1.463 . S
C1076 N1080 1.427 . S
C1077 H1067 0.929 . S
C1077 C1075 1.433 . S
C1077 N1080 1.384 . S
C1078 H1069 0.929 . S
C1078 C1070 1.378 . S
C1078 C1073 1.350 . S
C1079 H1066 0.929 . S
C1079 C1071 1.433 . S
C1079 N1081 1.384 . S
N1080 C1076 1.427 . S
N1080 C1077 1.384 . S
N1081 C1073 1.427 . S
N1081 C1079 1.384 . S
H1082 C1088 0.930 . S
H1083 C1092 0.930 . S
H1084 C1097 0.929 . S
H1085 C1095 0.929 . S
H1086 C1090 0.929 . S
H1087 C1096 0.929 . S
C1088 H1082 0.930 . S
C1088 C1089 1.367 . S
C1088 C1096 1.378 . S
C1089 C1088 1.367 . S
C1089 C1097 1.433 . S
C1090 H1086 0.929 . S
C1090 C1092 1.378 . S
C1090 C1094 1.350 . S
C1091 C1094 1.463 . S
C1091 C1096 1.350 . S
C1091 N1099 1.427 . S
C1092 H1083 0.930 . S
C1092 C1090 1.378 . S
C1092 C1093 1.367 . S
C1093 C1092 1.367 . S
C1093 C1095 1.433 . S
C1094 C1090 1.350 . S
C1094 C1091 1.463 . S
C1094 N1098 1.427 . S
C1095 H1085 0.929 . S
C1095 C1093 1.433 . S
C1095 N1098 1.384 . S
C1096 H1087 0.929 . S
C1096 C1088 1.378 . S
C1096 C1091 1.350 . S
C1097 H1084 0.929 . S
C1097 C1089 1.433 . S
C1097 N1099 1.384 . S
N1098 C1094 1.427 . S
N1098 C1095 1.384 . S
N1099 C1091 1.427 . S
N1099 C1097 1.384 . S
H1100 C1106 0.930 . S
H1101 C1110 0.930 . S
H1102 C1115 0.929 . S
H1103 C1113 0.929 . S
H1104 C1108 0.929 . S
H1105 C1114 0.929 . S
C1106 H1100 0.930 . S
C1106 C1107 1.367 . S
C1106 C1114 1.378 . S
C1107 C1106 1.367 . S
C1107 C1115 1.433 . S
C1108 H1104 0.929 . S
C1108 C1110 1.378 . S
C1108 C1112 1.350 . S
C1109 C1112 1.463 . S
C1109 C1114 1.350 . S
C1109 N1117 1.427 . S
C1110 H1101 0.930 . S
C1110 C1108 1.378 . S
C1110 C1111 1.367 . S
C1111 C1110 1.367 . S
C1111 C1113 1.433 . S
C1112 C1108 1.350 . S
C1112 C1109 1.463 . S
C1112 N1116 1.427 . S
C1113 H1103 0.929 . S
C1113 C1111 1.433 . S
C1113 N1116 1.384 . S
C1114 H1105 0.929 . S
C1114 C1106 1.378 . S
C1114 C1109 1.350 . S
C1115 H1102 0.929 . S
C1115 C1107 1.433 . S
C1115 N1117 1.384 . S
N1116 C1112 1.427 . S
N1116 C1113 1.384 . S
N1117 C1109 1.427 . S
N1117 C1115 1.384 . S
H1118 C1124 0.930 . S
H1119 C1128 0.930 . S
H1120 C1133 0.929 . S
H1121 C1131 0.929 . S
H1122 C1126 0.929 . S
H1123 C1132 0.929 . S
C1124 H1118 0.930 . S
C1124 C1125 1.367 . S
C1124 C1132 1.378 . S
C1125 C1124 1.367 . S
C1125 C1133 1.433 . S
C1126 H1122 0.929 . S
C1126 C1128 1.378 . S
C1126 C1130 1.350 . S
C1127 C1130 1.463 . S
C1127 C1132 1.350 . S
C1127 N1135 1.427 . S
C1128 H1119 0.930 . S
C1128 C1126 1.378 . S
C1128 C1129 1.367 . S
C1129 C1128 1.367 . S
C1129 C1131 1.433 . S
C1130 C1126 1.350 . S
C1130 C1127 1.463 . S
C1130 N1134 1.427 . S
C1131 H1121 0.929 . S
C1131 C1129 1.433 . S
C1131 N1134 1.384 . S
C1132 H1123 0.929 . S
C1132 C1124 1.378 . S
C1132 C1127 1.350 . S
C1133 H1120 0.929 . S
C1133 C1125 1.433 . S
C1133 N1135 1.384 . S
N1134 C1130 1.427 . S
N1134 C1131 1.384 . S
N1135 C1127 1.427 . S
N1135 C1133 1.384 . S
H1136 C1142 0.930 . S
H1137 C1146 0.930 . S
H1138 C1151 0.929 . S
H1139 C1149 0.929 . S
H1140 C1144 0.929 . S
H1141 C1150 0.929 . S
C1142 H1136 0.930 . S
C1142 C1143 1.367 . S
C1142 C1150 1.378 . S
C1143 C1142 1.367 . S
C1143 C1151 1.433 . S
C1144 H1140 0.929 . S
C1144 C1146 1.378 . S
C1144 C1148 1.350 . S
C1145 C1148 1.463 . S
C1145 C1150 1.350 . S
C1145 N1153 1.427 . S
C1146 H1137 0.930 . S
C1146 C1144 1.378 . S
C1146 C1147 1.367 . S
C1147 C1146 1.367 . S
C1147 C1149 1.433 . S
C1148 C1144 1.350 . S
C1148 C1145 1.463 . S
C1148 N1152 1.427 . S
C1149 H1139 0.929 . S
C1149 C1147 1.433 . S
C1149 N1152 1.384 . S
C1150 H1141 0.929 . S
C1150 C1142 1.378 . S
C1150 C1145 1.350 . S
C1151 H1138 0.929 . S
C1151 C1143 1.433 . S
C1151 N1153 1.384 . S
N1152 C1148 1.427 . S
N1152 C1149 1.384 . S
N1153 C1145 1.427 . S
N1153 C1151 1.384 . S
H1154 C1160 0.930 . S
H1155 C1164 0.930 . S
H1156 C1169 0.929 . S
H1157 C1167 0.929 . S
H1158 C1162 0.929 . S
H1159 C1168 0.929 . S
C1160 H1154 0.930 . S
C1160 C1161 1.367 . S
C1160 C1168 1.378 . S
C1161 C1160 1.367 . S
C1161 C1169 1.433 . S
C1162 H1158 0.929 . S
C1162 C1164 1.378 . S
C1162 C1166 1.350 . S
C1163 C1166 1.463 . S
C1163 C1168 1.350 . S
C1163 N1171 1.427 . S
C1164 H1155 0.930 . S
C1164 C1162 1.378 . S
C1164 C1165 1.367 . S
C1165 C1164 1.367 . S
C1165 C1167 1.433 . S
C1166 C1162 1.350 . S
C1166 C1163 1.463 . S
C1166 N1170 1.427 . S
C1167 H1157 0.929 . S
C1167 C1165 1.433 . S
C1167 N1170 1.384 . S
C1168 H1159 0.929 . S
C1168 C1160 1.378 . S
C1168 C1163 1.350 . S
C1169 H1156 0.929 . S
C1169 C1161 1.433 . S
C1169 N1171 1.384 . S
N1170 C1166 1.427 . S
N1170 C1167 1.384 . S
N1171 C1163 1.427 . S
N1171 C1169 1.384 . S
H1172 C1178 0.930 . S
H1173 C1182 0.930 . S
H1174 C1187 0.929 . S
H1175 C1185 0.929 . S
H1176 C1180 0.929 . S
H1177 C1186 0.929 . S
C1178 H1172 0.930 . S
C1178 C1179 1.367 . S
C1178 C1186 1.378 . S
C1179 C1178 1.367 . S
C1179 C1187 1.433 . S
C1180 H1176 0.929 . S
C1180 C1182 1.378 . S
C1180 C1184 1.350 . S
C1181 C1184 1.463 . S
C1181 C1186 1.350 . S
C1181 N1189 1.427 . S
C1182 H1173 0.930 . S
C1182 C1180 1.378 . S
C1182 C1183 1.367 . S
C1183 C1182 1.367 . S
C1183 C1185 1.433 . S
C1184 C1180 1.350 . S
C1184 C1181 1.463 . S
C1184 N1188 1.427 . S
C1185 H1175 0.929 . S
C1185 C1183 1.433 . S
C1185 N1188 1.384 . S
C1186 H1177 0.929 . S
C1186 C1178 1.378 . S
C1186 C1181 1.350 . S
C1187 H1174 0.929 . S
C1187 C1179 1.433 . S
C1187 N1189 1.384 . S
N1188 C1184 1.427 . S
N1188 C1185 1.384 . S
N1189 C1181 1.427 . S
N1189 C1187 1.384 . S
H1190 C1196 0.930 . S
H1191 C1200 0.930 . S
H1192 C1205 0.929 . S
H1193 C1203 0.929 . S
H1194 C1198 0.929 . S
H1195 C1204 0.929 . S
C1196 H1190 0.930 . S
C1196 C1197 1.367 . S
C1196 C1204 1.378 . S
C1197 C1196 1.367 . S
C1197 C1205 1.433 . S
C1198 H1194 0.929 . S
C1198 C1200 1.378 . S
C1198 C1202 1.350 . S
C1199 C1202 1.463 . S
C1199 C1204 1.350 . S
C1199 N1207 1.427 . S
C1200 H1191 0.930 . S
C1200 C1198 1.378 . S
C1200 C1201 1.367 . S
C1201 C1200 1.367 . S
C1201 C1203 1.433 . S
C1202 C1198 1.350 . S
C1202 C1199 1.463 . S
C1202 N1206 1.427 . S
C1203 H1193 0.929 . S
C1203 C1201 1.433 . S
C1203 N1206 1.384 . S
C1204 H1195 0.929 . S
C1204 C1196 1.378 . S
C1204 C1199 1.350 . S
C1205 H1192 0.929 . S
C1205 C1197 1.433 . S
C1205 N1207 1.384 . S
N1206 C1202 1.427 . S
N1206 C1203 1.384 . S
N1207 C1199 1.427 . S
N1207 C1205 1.384 . S
H1208 C1214 0.930 . S
H1209 C1218 0.930 . S
H1210 C1223 0.929 . S
H1211 C1221 0.929 . S
H1212 C1216 0.929 . S
H1213 C1222 0.929 . S
C1214 H1208 0.930 . S
C1214 C1215 1.367 . S
C1214 C1222 1.378 . S
C1215 C1214 1.367 . S
C1215 C1223 1.433 . S
C1216 H1212 0.929 . S
C1216 C1218 1.378 . S
C1216 C1220 1.350 . S
C1217 C1220 1.463 . S
C1217 C1222 1.350 . S
C1217 N1225 1.427 . S
C1218 H1209 0.930 . S
C1218 C1216 1.378 . S
C1218 C1219 1.367 . S
C1219 C1218 1.367 . S
C1219 C1221 1.433 . S
C1220 C1216 1.350 . S
C1220 C1217 1.463 . S
C1220 N1224 1.427 . S
C1221 H1211 0.929 . S
C1221 C1219 1.433 . S
C1221 N1224 1.384 . S
C1222 H1213 0.929 . S
C1222 C1214 1.378 . S
C1222 C1217 1.350 . S
C1223 H1210 0.929 . S
C1223 C1215 1.433 . S
C1223 N1225 1.384 . S
N1224 C1220 1.427 . S
N1224 C1221 1.384 . S
N1225 C1217 1.427 . S
N1225 C1223 1.384 . S
H1226 C1232 0.930 . S
H1227 C1236 0.930 . S
H1228 C1241 0.929 . S
H1229 C1239 0.929 . S
H1230 C1234 0.929 . S
H1231 C1240 0.929 . S
C1232 H1226 0.930 . S
C1232 C1233 1.367 . S
C1232 C1240 1.378 . S
C1233 C1232 1.367 . S
C1233 C1241 1.433 . S
C1234 H1230 0.929 . S
C1234 C1236 1.378 . S
C1234 C1238 1.350 . S
C1235 C1238 1.463 . S
C1235 C1240 1.350 . S
C1235 N1243 1.427 . S
C1236 H1227 0.930 . S
C1236 C1234 1.378 . S
C1236 C1237 1.367 . S
C1237 C1236 1.367 . S
C1237 C1239 1.433 . S
C1238 C1234 1.350 . S
C1238 C1235 1.463 . S
C1238 N1242 1.427 . S
C1239 H1229 0.929 . S
C1239 C1237 1.433 . S
C1239 N1242 1.384 . S
C1240 H1231 0.929 . S
C1240 C1232 1.378 . S
C1240 C1235 1.350 . S
C1241 H1228 0.929 . S
C1241 C1233 1.433 . S
C1241 N1243 1.384 . S
N1242 C1238 1.427 . S
N1242 C1239 1.384 . S
N1243 C1235 1.427 . S
N1243 C1241 1.384 . S
H1244 C1250 0.930 . S
H1245 C1254 0.930 1_565 S
H1246 C1259 0.929 . S
H1247 C1257 0.929 . S
H1248 C1252 0.929 . S
H1249 C1258 0.929 . S
C1250 H1244 0.930 . S
C1250 C1251 1.367 . S
C1250 C1258 1.378 . S
C1251 C1250 1.367 . S
C1251 C1259 1.433 . S
C1252 H1248 0.929 . S
C1252 C1254 1.378 . S
C1252 C1256 1.350 . S
C1253 C1256 1.463 . S
C1253 C1258 1.350 . S
C1253 N1261 1.427 . S
C1254 H1245 0.930 1_545 S
C1254 C1252 1.378 . S
C1254 C1255 1.367 . S
C1255 C1254 1.367 . S
C1255 C1257 1.433 . S
C1256 C1252 1.350 . S
C1256 C1253 1.463 . S
C1256 N1260 1.427 . S
C1257 H1247 0.929 . S
C1257 C1255 1.433 . S
C1257 N1260 1.384 . S
C1258 H1249 0.929 . S
C1258 C1250 1.378 . S
C1258 C1253 1.350 . S
C1259 H1246 0.929 . S
C1259 C1251 1.433 . S
C1259 N1261 1.384 . S
N1260 C1256 1.427 . S
N1260 C1257 1.384 . S
N1261 C1253 1.427 . S
N1261 C1259 1.384 . S
H1262 C1268 0.930 . S
H1263 C1272 0.930 . S
H1264 C1277 0.929 . S
H1265 C1275 0.929 1_455 S
H1266 C1270 0.929 . S
H1267 C1276 0.929 . S
C1268 H1262 0.930 . S
C1268 C1269 1.367 . S
C1268 C1276 1.378 . S
C1269 C1268 1.367 . S
C1269 C1277 1.433 . S
C1270 H1266 0.929 . S
C1270 C1272 1.378 . S
C1270 C1274 1.350 . S
C1271 C1274 1.463 . S
C1271 C1276 1.350 . S
C1271 N1279 1.427 . S
C1272 H1263 0.930 . S
C1272 C1270 1.378 . S
C1272 C1273 1.367 . S
C1273 C1272 1.367 . S
C1273 C1275 1.433 . S
C1274 C1270 1.350 . S
C1274 C1271 1.463 . S
C1274 N1278 1.427 . S
C1275 H1265 0.929 1_655 S
C1275 C1273 1.433 . S
C1275 N1278 1.384 . S
C1276 H1267 0.929 . S
C1276 C1268 1.378 . S
C1276 C1271 1.350 . S
C1277 H1264 0.929 . S
C1277 C1269 1.433 . S
C1277 N1279 1.384 . S
N1278 C1274 1.427 . S
N1278 C1275 1.384 . S
N1279 C1271 1.427 . S
N1279 C1277 1.384 . S
H1280 C1286 0.930 . S
H1281 C1290 0.930 . S
H1282 C1295 0.929 . S
H1283 C1293 0.929 . S
H1284 C1288 0.929 . S
H1285 C1294 0.929 . S
C1286 H1280 0.930 . S
C1286 C1287 1.367 . S
C1286 C1294 1.378 . S
C1287 C1286 1.367 . S
C1287 C1295 1.433 . S
C1288 H1284 0.929 . S
C1288 C1290 1.378 . S
C1288 C1292 1.350 . S
C1289 C1292 1.463 . S
C1289 C1294 1.350 . S
C1289 N1297 1.427 . S
C1290 H1281 0.930 . S
C1290 C1288 1.378 . S
C1290 C1291 1.367 . S
C1291 C1290 1.367 . S
C1291 C1293 1.433 . S
C1292 C1288 1.350 . S
C1292 C1289 1.463 . S
C1292 N1296 1.427 . S
C1293 H1283 0.929 . S
C1293 C1291 1.433 . S
C1293 N1296 1.384 . S
C1294 H1285 0.929 . S
C1294 C1286 1.378 . S
C1294 C1289 1.350 . S
C1295 H1282 0.929 . S
C1295 C1287 1.433 . S
C1295 N1297 1.384 . S
N1296 C1292 1.427 . S
N1296 C1293 1.384 . S
N1297 C1289 1.427 . S
N1297 C1295 1.384 . S
H1298 C1304 0.930 . S
H1299 C1308 0.930 . S
H1300 C1313 0.929 . S
H1301 C1311 0.929 . S
H1302 C1306 0.929 . S
H1303 C1312 0.929 . S
C1304 H1298 0.930 . S
C1304 C1305 1.367 . S
C1304 C1312 1.378 . S
C1305 C1304 1.367 . S
C1305 C1313 1.433 . S
C1306 H1302 0.929 . S
C1306 C1308 1.378 . S
C1306 C1310 1.350 . S
C1307 C1310 1.463 . S
C1307 C1312 1.350 . S
C1307 N1315 1.427 . S
C1308 H1299 0.930 . S
C1308 C1306 1.378 . S
C1308 C1309 1.367 . S
C1309 C1308 1.367 . S
C1309 C1311 1.433 . S
C1310 C1306 1.350 . S
C1310 C1307 1.463 . S
C1310 N1314 1.427 . S
C1311 H1301 0.929 . S
C1311 C1309 1.433 . S
C1311 N1314 1.384 . S
C1312 H1303 0.929 . S
C1312 C1304 1.378 . S
C1312 C1307 1.350 . S
C1313 H1300 0.929 . S
C1313 C1305 1.433 . S
C1313 N1315 1.384 . S
N1314 C1310 1.427 . S
N1314 C1311 1.384 . S
N1315 C1307 1.427 . S
N1315 C1313 1.384 . S
H1316 C1322 0.930 . S
H1317 C1326 0.930 . S
H1318 C1331 0.929 . S
H1319 C1329 0.929 . S
H1320 C1324 0.929 . S
H1321 C1330 0.929 . S
C1322 H1316 0.930 . S
C1322 C1323 1.367 . S
C1322 C1330 1.378 . S
C1323 C1322 1.367 . S
C1323 C1331 1.433 . S
C1324 H1320 0.929 . S
C1324 C1326 1.378 . S
C1324 C1328 1.350 . S
C1325 C1328 1.463 . S
C1325 C1330 1.350 . S
C1325 N1333 1.427 . S
C1326 H1317 0.930 . S
C1326 C1324 1.378 . S
C1326 C1327 1.367 . S
C1327 C1326 1.367 . S
C1327 C1329 1.433 . S
C1328 C1324 1.350 . S
C1328 C1325 1.463 . S
C1328 N1332 1.427 . S
C1329 H1319 0.929 . S
C1329 C1327 1.433 . S
C1329 N1332 1.384 . S
C1330 H1321 0.929 . S
C1330 C1322 1.378 . S
C1330 C1325 1.350 . S
C1331 H1318 0.929 . S
C1331 C1323 1.433 . S
C1331 N1333 1.384 . S
N1332 C1328 1.427 . S
N1332 C1329 1.384 . S
N1333 C1325 1.427 . S
N1333 C1331 1.384 . S
H1334 C1340 0.930 . S
H1335 C1344 0.930 . S
H1336 C1349 0.929 . S
H1337 C1347 0.929 . S
H1338 C1342 0.929 . S
H1339 C1348 0.929 . S
C1340 H1334 0.930 . S
C1340 C1341 1.367 . S
C1340 C1348 1.378 . S
C1341 C1340 1.367 . S
C1341 C1349 1.433 . S
C1342 H1338 0.929 . S
C1342 C1344 1.378 . S
C1342 C1346 1.350 . S
C1343 C1346 1.463 . S
C1343 C1348 1.350 . S
C1343 N1351 1.427 . S
C1344 H1335 0.930 . S
C1344 C1342 1.378 . S
C1344 C1345 1.367 . S
C1345 C1344 1.367 . S
C1345 C1347 1.433 . S
C1346 C1342 1.350 . S
C1346 C1343 1.463 . S
C1346 N1350 1.427 . S
C1347 H1337 0.929 . S
C1347 C1345 1.433 . S
C1347 N1350 1.384 . S
C1348 H1339 0.929 . S
C1348 C1340 1.378 . S
C1348 C1343 1.350 . S
C1349 H1336 0.929 . S
C1349 C1341 1.433 . S
C1349 N1351 1.384 . S
N1350 C1346 1.427 . S
N1350 C1347 1.384 . S
N1351 C1343 1.427 . S
N1351 C1349 1.384 . S
H1352 C1358 0.930 . S
H1353 C1362 0.930 . S
H1354 C1367 0.929 . S
H1355 C1365 0.929 . S
H1356 C1360 0.929 . S
H1357 C1366 0.929 . S
C1358 H1352 0.930 . S
C1358 C1359 1.367 . S
C1358 C1366 1.378 . S
C1359 C1358 1.367 . S
C1359 C1367 1.433 . S
C1360 H1356 0.929 . S
C1360 C1362 1.378 . S
C1360 C1364 1.350 . S
C1361 C1364 1.463 . S
C1361 C1366 1.350 . S
C1361 N1369 1.427 . S
C1362 H1353 0.930 . S
C1362 C1360 1.378 . S
C1362 C1363 1.367 . S
C1363 C1362 1.367 . S
C1363 C1365 1.433 . S
C1364 C1360 1.350 . S
C1364 C1361 1.463 . S
C1364 N1368 1.427 . S
C1365 H1355 0.929 . S
C1365 C1363 1.433 . S
C1365 N1368 1.384 . S
C1366 H1357 0.929 . S
C1366 C1358 1.378 . S
C1366 C1361 1.350 . S
C1367 H1354 0.929 . S
C1367 C1359 1.433 . S
C1367 N1369 1.384 . S
N1368 C1364 1.427 . S
N1368 C1365 1.384 . S
N1369 C1361 1.427 . S
N1369 C1367 1.384 . S
C517 C331 2.689 . S
C513 C24 2.678 . S
C535 C321 3.214 . S
C531 C53 3.215 . S
C553 C322 0.950 . S
C549 C82 0.961 . S
C567 C137 0.313 . S
C571 C344 0.517 . S
C585 C184 3.064 . S
C589 C347 3.034 . S
C607 C330 0.981 . S
C603 C202 0.993 . S
C621 C266 0.433 . S
C625 C320 0.395 . S
C639 C293 2.685 . S
C643 C338 2.688 . S
C661 C351 2.864 . S
C657 C2 2.872 . S
C675 C57 0.642 . S
C679 C400 0.810 . S
C697 C378 0.897 . S
C693 C106 0.902 . S
C715 C392 0.592 . S
C711 C143 0.594 . S
C729 C162 0.669 . S
C733 C353 0.670 . S
C751 C406 0.921 . S
C747 C226 0.926 . S
C765 C264 2.469 . S
C769 C362 2.402 . S
C783 C297 0.409 . S
C787 C383 0.446 1_556 S
C801 C26 0.752 . S
C805 C409 0.746 . S
C819 C186 0.128 . S
C823 C393 0.451 . S
C841 C352 2.474 . S
C837 C224 2.491 . S
C859 C384 1.399 . S
C855 C242 1.467 . S
C873 C303 3.275 . S
C877 C375 3.214 . S
C891 C104 2.162 . S
C895 C382 2.141 . S
C913 C369 2.872 . S
C909 C133 2.897 . S
C927 C63 1.320 . S
C931 C361 1.361 . S
C945 C304 2.690 . S
C949 C424 2.686 . S
C963 C173 3.064 . S
C967 C414 3.034 . S
C985 C415 0.967 . S
C981 C223 0.996 . S
C1003 C437 0.416 . S
C999 C257 0.469 . S
C1017 C64 3.211 . S
C1021 C440 3.215 . S
C1039 C423 0.952 . S
C1035 C103 0.966 . S
C1053 C146 0.313 . S
C1057 C413 0.517 . S
C1071 C13 2.678 . S
C1075 C431 2.685 . S
C1089 C282 3.276 . S
C1093 C444 3.212 . S
C1111 C493 0.434 . S
C1107 C177 0.106 . S
C1125 C213 2.485 . S
C1129 C471 2.480 . S
C1143 C263 1.467 . S
C1147 C485 1.394 . S
C1165 C446 1.360 . S
C1161 C42 1.322 . S
C1179 C93 2.160 . S
C1183 C499 2.152 . S
C1201 C455 2.869 . S
C1197 C144 2.893 . S
C1219 C476 0.785 . S
C1215 C17 0.781 . S
C1237 C502 0.451 . S
C1233 C306 0.407 . S
C1251 C66 0.643 . S
C1255 C486 0.812 . S
C1269 C97 0.885 . S
C1273 C445 0.884 . S
C1291 C477 0.613 . S
C1287 C122 0.581 . S
C1305 C23 2.867 . S
C1309 C468 2.870 . S
C1323 C217 0.912 . S
C1327 C475 0.898 . S
C1345 C462 2.393 . S
C1341 C253 2.463 . S
C1363 C454 0.698 . S
C1359 C183 0.660 . S
