# Generated by pormake.
# Topology apo, (3,6)-cn, num edge types: 1
# Building blocks:
#     Node 0, Type 0, BuildingBlock: OLANEW_clean_sbu_2, # of connection points: 3
#     Node 1, Type 0, BuildingBlock: OLANEW_clean_sbu_2, # of connection points: 3
#     Node 2, Type 0, BuildingBlock: OLANEW_clean_sbu_2, # of connection points: 3
#     Node 3, Type 0, BuildingBlock: OLANEW_clean_sbu_2, # of connection points: 3
#     Node 4, Type 0, BuildingBlock: OLANEW_clean_sbu_2, # of connection points: 3
#     Node 5, Type 0, BuildingBlock: OLANEW_clean_sbu_2, # of connection points: 3
#     Node 6, Type 0, BuildingBlock: OLANEW_clean_sbu_2, # of connection points: 3
#     Node 7, Type 0, BuildingBlock: OLANEW_clean_sbu_2, # of connection points: 3
#     Node 8, Type 1, BuildingBlock: MIDCAF_clean_sbu_0, # of connection points: 6
#     Node 9, Type 1, BuildingBlock: MIDCAF_clean_sbu_0, # of connection points: 6
#     Node 10, Type 1, BuildingBlock: MIDCAF_clean_sbu_0, # of connection points: 6
#     Node 11, Type 1, BuildingBlock: MIDCAF_clean_sbu_0, # of connection points: 6
#     Edge 12, Type (0, 1), BuildingBlock: XUDNAN_clean_linker_2, # of connection points: 2
#     Edge 13, Type (0, 1), BuildingBlock: XUDNAN_clean_linker_2, # of connection points: 2
#     Edge 14, Type (0, 1), BuildingBlock: XUDNAN_clean_linker_2, # of connection points: 2
#     Edge 15, Type (0, 1), BuildingBlock: XUDNAN_clean_linker_2, # of connection points: 2
#     Edge 16, Type (0, 1), BuildingBlock: XUDNAN_clean_linker_2, # of connection points: 2
#     Edge 17, Type (0, 1), BuildingBlock: XUDNAN_clean_linker_2, # of connection points: 2
#     Edge 18, Type (0, 1), BuildingBlock: XUDNAN_clean_linker_2, # of connection points: 2
#     Edge 19, Type (0, 1), BuildingBlock: XUDNAN_clean_linker_2, # of connection points: 2
#     Edge 20, Type (0, 1), BuildingBlock: XUDNAN_clean_linker_2, # of connection points: 2
#     Edge 21, Type (0, 1), BuildingBlock: XUDNAN_clean_linker_2, # of connection points: 2
#     Edge 22, Type (0, 1), BuildingBlock: XUDNAN_clean_linker_2, # of connection points: 2
#     Edge 23, Type (0, 1), BuildingBlock: XUDNAN_clean_linker_2, # of connection points: 2
#     Edge 24, Type (0, 1), BuildingBlock: XUDNAN_clean_linker_2, # of connection points: 2
#     Edge 25, Type (0, 1), BuildingBlock: XUDNAN_clean_linker_2, # of connection points: 2
#     Edge 26, Type (0, 1), BuildingBlock: XUDNAN_clean_linker_2, # of connection points: 2
#     Edge 27, Type (0, 1), BuildingBlock: XUDNAN_clean_linker_2, # of connection points: 2
#     Edge 28, Type (0, 1), BuildingBlock: XUDNAN_clean_linker_2, # of connection points: 2
#     Edge 29, Type (0, 1), BuildingBlock: XUDNAN_clean_linker_2, # of connection points: 2
#     Edge 30, Type (0, 1), BuildingBlock: XUDNAN_clean_linker_2, # of connection points: 2
#     Edge 31, Type (0, 1), BuildingBlock: XUDNAN_clean_linker_2, # of connection points: 2
#     Edge 32, Type (0, 1), BuildingBlock: XUDNAN_clean_linker_2, # of connection points: 2
#     Edge 33, Type (0, 1), BuildingBlock: XUDNAN_clean_linker_2, # of connection points: 2
#     Edge 34, Type (0, 1), BuildingBlock: XUDNAN_clean_linker_2, # of connection points: 2
#     Edge 35, Type (0, 1), BuildingBlock: XUDNAN_clean_linker_2, # of connection points: 2
# Relax obj value: 0.030
# Max RMSD: 0.082
# Mean RMSD: 0.069
data_MOF--net-apo--node1-OLANEW_clean_sbu_2--node2-MIDCAF_clean_sbu_0--edge1-XUDNAN_clean_linker_2
_symmetry_space_group_name_H-M    P1
_symmetry_Int_Tables_number       1
_symmetry_cell_setting            triclinic
loop_
_symmetry_equiv_pos_as_xyz
'x, y, z'
_cell_length_a     39.577299
_cell_length_b     44.199946
_cell_length_c     38.437835
_cell_angle_alpha  88.271727
_cell_angle_beta   89.939641
_cell_angle_gamma 90.266939
loop_
_atom_site_label
_atom_site_type_symbol
_atom_site_fract_x
_atom_site_fract_y
_atom_site_fract_z
_atom_type_partial_charge
O0 O 0.36638 0.33803 0.32181 0.0
Cd1 Cd 0.32714 0.30278 0.35166 0.0
O2 O 0.39219 0.35137 0.36997 0.0
Cd3 Cd 0.36848 0.32202 0.4104 0.0
O4 O 0.36719 0.30824 0.46606 0.0
C5 C 0.36211 0.32885 0.48787 0.0
O6 O 0.35568 0.35641 0.47597 0.0
C7 C 0.38834 0.35404 0.3371 0.0
C8 C 0.28248 0.27208 0.30806 0.0
O9 O 0.27699 0.2995 0.31631 0.0
O10 O 0.30938 0.25931 0.31972 0.0
O11 O 0.17787 0.1954 0.94141 0.0
Cd12 Cd 0.18267 0.1976 0.87742 0.0
O13 O 0.20318 0.15155 0.94894 0.0
Cd14 Cd 0.19853 0.14275 0.89345 0.0
O15 O 0.16693 0.1185 0.8566 0.0
C16 C 0.1425 0.10432 0.87126 0.0
O17 O 0.13887 0.10621 0.90512 0.0
C18 C 0.18954 0.17471 0.9617 0.0
C19 C 0.24273 0.22272 0.85046 0.0
O20 O 0.21868 0.23949 0.86095 0.0
O21 O 0.2388 0.19394 0.85321 0.0
O22 O 0.86376 0.15926 0.67977 0.0
Cd23 Cd 0.8378 0.20547 0.65543 0.0
O24 O 0.8757 0.14114 0.62825 0.0
Cd25 Cd 0.85666 0.17521 0.5906 0.0
O26 O 0.85916 0.18428 0.53402 0.0
C27 C 0.88798 0.19187 0.5219 0.0
O28 O 0.91277 0.19629 0.54392 0.0
C29 C 0.87643 0.1387 0.66135 0.0
C30 C 0.78434 0.22827 0.69467 0.0
O31 O 0.77903 0.2098 0.67014 0.0
O32 O 0.81503 0.23551 0.70123 0.0
O33 O 0.69233 0.27632 0.05443 0.0
Cd34 Cd 0.6937 0.27141 0.1187 0.0
O35 O 0.67038 0.32165 0.0592 0.0
Cd36 Cd 0.6633 0.32355 0.11546 0.0
O37 O 0.62243 0.35104 0.13569 0.0
C38 C 0.621 0.36548 0.16375 0.0
O39 O 0.64594 0.36325 0.18619 0.0
C40 C 0.68105 0.30063 0.04023 0.0
C41 C 0.75314 0.25127 0.15159 0.0
O42 O 0.73111 0.23257 0.14038 0.0
O43 O 0.7477 0.2796 0.14627 0.0
O44 O 0.63845 0.65655 0.67639 0.0
Cd45 Cd 0.66269 0.70225 0.6487 0.0
O46 O 0.62871 0.63627 0.62566 0.0
Cd47 Cd 0.64765 0.67117 0.58885 0.0
O48 O 0.64533 0.6745 0.5319 0.0
C49 C 0.64668 0.6977 0.51153 0.0
O50 O 0.65138 0.72457 0.52445 0.0
C51 C 0.62722 0.6348 0.65874 0.0
C52 C 0.71672 0.72716 0.68519 0.0
O53 O 0.68613 0.73423 0.69213 0.0
O54 O 0.72173 0.70794 0.66141 0.0
O55 O 0.85328 0.84426 0.1879 0.0
Cd56 Cd 0.82602 0.79902 0.16476 0.0
O57 O 0.86166 0.8623 0.1345 0.0
Cd58 Cd 0.83497 0.82895 0.10366 0.0
O59 O 0.82733 0.81946 0.04863 0.0
C60 C 0.84751 0.80168 0.03375 0.0
O61 O 0.87002 0.78703 0.0528 0.0
C62 C 0.86559 0.86447 0.16718 0.0
C63 C 0.76895 0.77466 0.19873 0.0
O64 O 0.79879 0.76744 0.20882 0.0
O65 O 0.76616 0.79429 0.17366 0.0
O66 O 0.12804 0.8167 0.27534 0.0
Cd67 Cd 0.1536 0.77072 0.30019 0.0
O68 O 0.12869 0.82759 0.33007 0.0
Cd69 Cd 0.12441 0.84708 0.38163 0.0
O70 O 0.12179 0.84973 0.43833 0.0
C71 C 0.12847 0.82625 0.457 0.0
O72 O 0.13731 0.80133 0.44163 0.0
C73 C 0.12133 0.83542 0.29881 0.0
C74 C 0.21263 0.75116 0.26867 0.0
O75 O 0.1845 0.7375 0.26369 0.0
O76 O 0.21277 0.77444 0.28771 0.0
O77 O 0.33183 0.63183 0.81267 0.0
Cd78 Cd 0.29018 0.66479 0.84007 0.0
O79 O 0.35311 0.62208 0.86474 0.0
Cd80 Cd 0.32458 0.65266 0.89749 0.0
O81 O 0.32769 0.67024 0.95012 0.0
C82 C 0.3098 0.6598 0.97529 0.0
O83 O 0.28609 0.63979 0.96899 0.0
C84 C 0.35285 0.61767 0.83217 0.0
C85 C 0.2435 0.69668 0.79834 0.0
O86 O 0.27094 0.70925 0.80836 0.0
O87 O 0.23877 0.66869 0.80676 0.0
Zn88 Zn 0.05655 0.10391 0.29847 0.0
Zn89 Zn -0.00281 0.11177 0.17638 0.0
Zn90 Zn 0.02452 0.1116 0.23844 0.0
C91 C 0.06015 0.13804 0.16693 0.0
C92 C -0.00799 0.0528 0.1997 0.0
O93 O -0.00675 0.13577 0.27653 0.0
O94 O 0.02227 0.12654 0.32488 0.0
C95 C 0.09962 0.13799 0.25478 0.0
O96 O 0.06071 0.13277 0.20013 0.0
O97 O 0.03455 0.13087 0.14938 0.0
O98 O 0.98619 0.06825 0.17223 0.0
O99 O 0.00721 0.06513 0.22546 0.0
O100 O 0.09852 0.12582 0.2849 0.0
O101 O 0.07457 0.13485 0.23367 0.0
O102 O 0.0327 0.06255 0.25157 0.0
O103 O 0.05884 0.05915 0.30235 0.0
C104 C 0.04683 0.04646 0.27608 0.0
O105 O 0.97757 0.13873 0.24347 0.0
O106 O 0.95866 0.13714 0.18934 0.0
C107 C -0.00273 0.13862 0.30954 0.0
C108 C 0.95533 0.14577 0.22014 0.0
Zn109 Zn 0.53582 0.37385 0.70503 0.0
Zn110 Zn 0.4915 0.38025 0.83077 0.0
Zn111 Zn 0.51342 0.37352 0.7675 0.0
C112 C 0.48631 0.43687 0.80119 0.0
C113 C 0.44657 0.34072 0.79685 0.0
O114 O 0.56246 0.34899 0.76923 0.0
O115 O 0.57061 0.3423 0.71308 0.0
C116 C 0.54014 0.43306 0.72346 0.0
O117 O 0.50028 0.42216 0.77646 0.0
O118 O 0.47978 0.42352 0.82988 0.0
O119 O 0.453 0.35151 0.82621 0.0
O120 O 0.46593 0.34692 0.77058 0.0
O121 O 0.55062 0.4166 0.6995 0.0
O122 O 0.52369 0.42104 0.74942 0.0
O123 O 0.47517 0.34951 0.73519 0.0
O124 O 0.49353 0.36205 0.68228 0.0
C125 C 0.47139 0.34998 0.70185 0.0
O126 O 0.55198 0.3531 0.80376 0.0
O127 O 0.53325 0.36716 0.85504 0.0
C128 C 0.57924 0.33718 0.7443 0.0
C129 C 0.55554 0.35458 0.83703 0.0
Zn130 Zn 0.02176 0.86811 0.80989 0.0
Zn131 Zn 0.96212 0.87947 0.69227 0.0
Zn132 Zn 0.99038 0.87341 0.74993 0.0
C133 C 0.96211 0.9365 0.71722 0.0
C134 C 0.92196 0.83932 0.72887 0.0
O135 O 0.03661 0.84494 0.74306 0.0
O136 O 0.06115 0.84456 0.79484 0.0
C137 C 0.01931 0.92972 0.79399 0.0
O138 O 0.98191 0.92274 0.73908 0.0
O139 O 0.94672 0.92164 0.69459 0.0
O140 O 0.92863 0.84624 0.69753 0.0
O141 O 0.94047 0.84974 0.75344 0.0
O142 O 0.02866 0.91165 0.81811 0.0
O143 O 0.00439 0.91959 0.76684 0.0
O144 O 0.95468 0.85084 0.78723 0.0
O145 O 0.98514 0.84637 0.83541 0.0
C146 C 0.9577 0.84231 0.81947 0.0
O147 O 0.02404 0.85334 0.70994 0.0
O148 O 0.00127 0.87342 0.66222 0.0
C149 C 0.06078 0.83643 0.76366 0.0
C150 C 0.02495 0.85898 0.67683 0.0
Zn151 Zn 0.52251 0.62324 0.17018 0.0
Zn152 Zn 0.46681 0.60672 0.29818 0.0
Zn153 Zn 0.49631 0.61567 0.23498 0.0
C154 C 0.52878 0.63833 0.30635 0.0
C155 C 0.47736 0.54965 0.27222 0.0
O156 O 0.45859 0.6382 0.19985 0.0
O157 O 0.4831 0.64333 0.14825 0.0
C158 C 0.5649 0.65354 0.21695 0.0
O159 O 0.52984 0.63749 0.27289 0.0
O160 O 0.50457 0.62624 0.32319 0.0
O161 O 0.46552 0.56199 0.29876 0.0
O162 O 0.4897 0.56604 0.24686 0.0
O163 O 0.56074 0.64909 0.18492 0.0
O164 O 0.54406 0.64211 0.23964 0.0
O165 O 0.50747 0.57071 0.21569 0.0
O166 O 0.52873 0.57894 0.16283 0.0
C167 C 0.52002 0.56082 0.18732 0.0
O168 O 0.44737 0.63891 0.23457 0.0
O169 O 0.4248 0.62995 0.2867 0.0
C170 C 0.4576 0.64671 0.16746 0.0
C171 C 0.42328 0.64228 0.25666 0.0
H172 H 0.10291 0.88197 0.34182 0.0
H173 H 0.10492 0.85665 0.23359 0.0
H174 H 0.08159 0.90643 0.21633 0.0
H175 H 0.02468 0.92599 0.33671 0.0
H176 H 0.04006 0.95393 0.36607 0.0
H177 H 0.05456 0.9154 0.37024 0.0
H178 H 0.11661 0.934 0.36504 0.0
H179 H 0.10232 0.97253 0.3609 0.0
H180 H 0.12915 0.95728 0.32787 0.0
H181 H 0.06277 0.96051 0.21023 0.0
H182 H 0.04982 0.01464 0.21607 0.0
H183 H 0.05772 0.00414 0.32833 0.0
C184 C 0.09823 0.88656 0.31458 0.0
C185 C 0.1059 0.86513 0.2892 0.0
C186 C 0.09931 0.87255 0.25368 0.0
C187 C 0.08594 0.90079 0.24355 0.0
C188 C 0.07901 0.92143 0.26922 0.0
C189 C 0.0848 0.91464 0.30402 0.0
C190 C 0.0766 0.94134 0.3263 0.0
C191 C 0.04722 0.9337 0.35131 0.0
C192 C 0.10804 0.9519 0.34619 0.0
C193 C 0.06613 0.96443 0.29849 0.0
C194 C 0.06742 0.95242 0.26575 0.0
C195 C 0.06091 0.96997 0.23579 0.0
C196 C 0.05323 0.00067 0.23938 0.0
C197 C 0.05161 0.01345 0.27269 0.0
C198 C 0.05804 -0.00509 0.30255 0.0
H199 H 0.39728 0.58234 0.86891 0.0
H200 H 0.36173 0.6012 0.76377 0.0
H201 H 0.39915 0.56089 0.74234 0.0
H202 H 0.48502 0.56278 0.84685 0.0
H203 H 0.4864 0.53332 0.88027 0.0
H204 H 0.46047 0.56621 0.88606 0.0
H205 H 0.40801 0.53168 0.89638 0.0
H206 H 0.43376 0.49882 0.89083 0.0
H207 H 0.39679 0.50459 0.86415 0.0
H208 H 0.43745 0.51478 0.73376 0.0
H209 H 0.46805 0.46608 0.73981 0.0
H210 H 0.47666 0.47836 0.85089 0.0
C211 C 0.39768 0.57852 0.84122 0.0
C212 C 0.3766 0.59513 0.81801 0.0
C213 C 0.37774 0.58891 0.78207 0.0
C214 C 0.39904 0.56614 0.76965 0.0
C215 C 0.41916 0.54993 0.79349 0.0
C216 C 0.41852 0.55596 0.82855 0.0
C217 C 0.43986 0.53382 0.84956 0.0
C218 C 0.46971 0.55001 0.86669 0.0
C219 C 0.41831 0.51619 0.8768 0.0
C220 C 0.45184 0.51361 0.8211 0.0
C221 C 0.44035 0.52348 0.78875 0.0
C222 C 0.44684 0.50713 0.75894 0.0
C223 C 0.4644 0.47957 0.76256 0.0
C224 C 0.4748 0.46851 0.79581 0.0
C225 C 0.46922 0.48632 0.82511 0.0
H226 H 0.60465 0.58372 0.62784 0.0
H227 H 0.61551 0.62396 0.72888 0.0
H228 H 0.59031 0.57789 0.75682 0.0
H229 H 0.52493 0.54526 0.64494 0.0
H230 H 0.53664 0.51278 0.62044 0.0
H231 H 0.55365 0.54956 0.60867 0.0
H232 H 0.61451 0.52846 0.61426 0.0
H233 H 0.59769 0.49165 0.62588 0.0
H234 H 0.6273 0.50964 0.65435 0.0
H235 H 0.56563 0.52574 0.77356 0.0
H236 H 0.54699 0.47218 0.77748 0.0
H237 H 0.5526 0.46758 0.6651 0.0
C238 C 0.60158 0.58309 0.65585 0.0
C239 C 0.61203 0.60756 0.67614 0.0
C240 C 0.60769 0.60552 0.71275 0.0
C241 C 0.59328 0.57949 0.72884 0.0
C242 C 0.5833 0.55578 0.70792 0.0
C243 C 0.58739 0.55742 0.67221 0.0
C244 C 0.57614 0.52856 0.65548 0.0
C245 C 0.54605 0.5344 0.63094 0.0
C246 C 0.60567 0.51371 0.63639 0.0
C247 C 0.56558 0.51007 0.68738 0.0
C248 C 0.56945 0.52614 0.71742 0.0
C249 C 0.56222 0.51311 0.75013 0.0
C250 C 0.55137 0.48275 0.75211 0.0
C251 C 0.54792 0.46585 0.72157 0.0
C252 C 0.55481 0.47995 0.6889 0.0
H253 H 0.89699 0.90914 0.12846 0.0
H254 H 0.87977 0.8783 0.23534 0.0
H255 H 0.91402 0.92136 0.25582 0.0
H256 H 0.98324 0.93428 0.13961 0.0
H257 H 0.9784 0.96634 0.10996 0.0
H258 H 0.95362 0.93259 0.10411 0.0
H259 H 0.89857 0.96412 0.10603 0.0
H260 H 0.92319 -0.00206 0.11162 0.0
H261 H 0.89075 0.98755 0.14276 0.0
H262 H 0.9485 0.96982 0.26414 0.0
H263 H 0.97773 0.01937 0.25953 0.0
H264 H 0.97322 0.01637 0.14694 0.0
C265 C 0.90039 0.91124 0.15624 0.0
C266 C 0.8856 0.89026 0.18029 0.0
C267 C 0.8908 0.89406 0.21638 0.0
C268 C 0.91032 0.91839 0.22824 0.0
C269 C 0.92461 0.93857 0.20367 0.0
C270 C 0.91978 0.93516 0.16842 0.0
C271 C 0.93681 0.96023 0.14717 0.0
C272 C 0.96467 0.9476 0.12384 0.0
C273 C 0.91078 0.97854 0.12564 0.0
C274 C 0.95164 0.97869 0.17592 0.0
C275 C 0.9446 0.96584 0.20838 0.0
C276 C 0.95449 0.97981 0.23882 0.0
C277 C 0.97135 0.00786 0.23594 0.0
C278 C 0.97841 0.02151 0.20286 0.0
C279 C 0.96867 0.00638 0.17261 0.0
H280 H 0.90161 0.08978 0.62864 0.0
H281 H 0.88725 0.12584 0.73136 0.0
H282 H 0.91342 0.07968 0.75765 0.0
H283 H 0.87996 0.01498 0.6508 0.0
H284 H 0.91043 -0.00129 0.62202 0.0
H285 H 0.89346 0.03559 0.612 0.0
H286 H 0.95421 0.05782 0.60895 0.0
H287 H 0.97138 0.02095 0.61924 0.0
H288 H 0.9821 0.05258 0.64567 0.0
H289 H 0.93923 0.02724 0.77238 0.0
H290 H 0.95723 0.97341 0.77368 0.0
H291 H 0.95329 0.97356 0.66105 0.0
C292 C 0.90419 0.08828 0.65669 0.0
C293 C 0.89243 0.11155 0.6779 0.0
C294 C 0.89611 0.10834 0.71452 0.0
C295 C 0.9111 0.08226 0.72967 0.0
C296 C 0.92235 0.05971 0.70783 0.0
C297 C 0.91889 0.06258 0.6721 0.0
C298 C 0.93085 0.03467 0.65414 0.0
C299 C 0.90195 0.02014 0.63355 0.0
C300 C 0.96145 0.04195 0.63062 0.0
C301 C 0.94086 0.01517 0.68532 0.0
C302 C 0.93643 0.02998 0.71615 0.0
C303 C 0.94302 0.01561 0.74832 0.0
C304 C 0.95346 0.98515 0.74886 0.0
C305 C 0.9568 0.96953 0.71745 0.0
C306 C 0.95104 0.98504 0.68545 0.0
H307 H 0.61133 0.40427 0.2178 0.0
H308 H 0.57055 0.3793 0.11775 0.0
H309 H 0.53303 0.42331 0.11793 0.0
H310 H 0.52759 0.43763 0.25104 0.0
H311 H 0.54987 0.46695 0.27326 0.0
H312 H 0.56862 0.43006 0.26955 0.0
H313 H 0.62184 0.45459 0.24108 0.0
H314 H 0.60345 0.49144 0.24455 0.0
H315 H 0.61721 0.47874 0.20273 0.0
H316 H 0.51057 0.47482 0.12159 0.0
H317 H 0.49966 0.52877 0.13219 0.0
H318 H 0.55063 0.52015 0.23163 0.0
C319 C 0.59363 0.40748 0.19657 0.0
C320 C 0.59412 0.38838 0.16769 0.0
C321 C 0.57081 0.39355 0.14018 0.0
C322 C 0.5492 0.41848 0.14008 0.0
C323 C 0.55046 0.43768 0.16806 0.0
C324 C 0.57138 0.43212 0.19632 0.0
C325 C 0.56988 0.45792 0.22148 0.0
C326 C 0.55299 0.44752 0.25587 0.0
C327 C 0.60519 0.47146 0.22779 0.0
C328 C 0.54742 0.47988 0.20132 0.0
C329 C 0.53595 0.46744 0.17091 0.0
C330 C 0.51837 0.4845 0.14584 0.0
C331 C 0.51255 0.51511 0.15188 0.0
C332 C 0.52397 0.52817 0.18284 0.0
C333 C 0.54101 0.51026 0.20816 0.0
H334 H 0.43412 0.39392 0.36307 0.0
H335 H 0.38632 0.36835 0.26672 0.0
H336 H 0.41395 0.41187 0.23612 0.0
H337 H 0.42027 0.46895 0.35382 0.0
H338 H 0.45951 0.48114 0.37276 0.0
H339 H 0.44214 0.44477 0.38489 0.0
H340 H 0.49799 0.41925 0.36674 0.0
H341 H 0.5156 0.45565 0.35406 0.0
H342 H 0.51424 0.42567 0.32332 0.0
H343 H 0.43995 0.46271 0.21823 0.0
H344 H 0.45777 0.51655 0.21644 0.0
H345 H 0.48752 0.50854 0.32463 0.0
C346 C 0.43015 0.39687 0.33531 0.0
C347 C 0.4081 0.37756 0.31733 0.0
C348 C 0.40323 0.38267 0.2811 0.0
C349 C 0.41899 0.40729 0.26344 0.0
C350 C 0.4398 0.42643 0.28226 0.0
C351 C 0.4455 0.4213 0.31744 0.0
C352 C 0.46529 0.44699 0.33289 0.0
C353 C 0.44561 0.4613 0.36282 0.0
C354 C 0.50036 0.43624 0.34496 0.0
C355 C 0.46804 0.46831 0.30151 0.0
C356 C 0.45421 0.45577 0.27219 0.0
C357 C 0.45144 0.47245 0.24086 0.0
C358 C 0.46182 0.50297 0.23996 0.0
C359 C 0.47442 0.51643 0.27027 0.0
C360 C 0.47845 0.49856 0.30097 0.0
H361 H 0.09803 0.06267 0.89807 0.0
H362 H 0.13647 0.1 0.80009 0.0
H363 H 0.10084 0.06376 0.76831 0.0
H364 H 0.10179 0.98812 0.87539 0.0
H365 H 0.06433 0.97633 0.89893 0.0
H366 H 0.0883 0.00831 0.91299 0.0
H367 H 0.03456 0.04162 0.90883 0.0
H368 H 0.01044 0.00964 0.89448 0.0
H369 H 0.01144 0.04425 0.86848 0.0
H370 H 0.06452 0.01987 0.74776 0.0
H371 H 0.0367 0.97 0.74111 0.0
H372 H 0.02452 0.96139 0.853 0.0
C373 C 0.09844 0.06379 0.86989 0.0
C374 C 0.1198 0.08435 0.85155 0.0
C375 C 0.12014 0.08451 0.81468 0.0
C376 C 0.09982 0.06415 0.79643 0.0
C377 C 0.07934 0.04384 0.81545 0.0
C378 C 0.07871 0.04351 0.85143 0.0
C379 C 0.05783 0.01742 0.86615 0.0
C380 C 0.07936 -0.00369 0.88972 0.0
C381 C 0.02672 0.02893 0.88563 0.0
C382 C 0.04774 0.00236 0.83294 0.0
C383 C 0.05954 0.01826 0.80383 0.0
C384 C 0.05485 0.00748 0.77038 0.0
C385 C 0.03889 0.97922 0.7668 0.0
C386 C 0.02846 0.96199 0.79656 0.0
C387 C 0.03206 0.97424 0.82981 0.0
H388 H 0.13745 0.20282 0.99332 0.0
H389 H 0.22395 0.14562 0.01494 0.0
H390 H 0.20535 0.1391 0.07623 0.0
H391 H 0.12817 0.23599 0.08271 0.0
H392 H 0.08278 0.2336 0.07991 0.0
H393 H 0.1076 0.24049 0.04107 0.0
H394 H 0.07969 0.19402 0.01294 0.0
H395 H 0.05497 0.18702 0.0515 0.0
H396 H 0.08159 0.1576 0.03529 0.0
H397 H 0.1726 0.13257 0.13267 0.0
H398 H 0.12648 0.12195 0.17508 0.0
H399 H 0.05979 0.18011 0.11438 0.0
C400 C 0.1533 0.19004 0.01133 0.0
C401 C 0.18251 0.17525 -0.00043 0.0
C402 C 0.20174 0.15753 0.02355 0.0
C403 C 0.19143 0.15383 0.05846 0.0
C404 C 0.1617 0.16782 0.06894 0.0
C405 C 0.14289 0.18554 0.04591 0.0
C406 C 0.10909 0.19372 0.06141 0.0
C407 C 0.10679 0.22799 0.06659 0.0
C408 C 0.07963 0.18239 0.03896 0.0
C409 C 0.11098 0.17657 0.09601 0.0
C410 C 0.14197 0.16269 0.10058 0.0
C411 C 0.14848 0.14376 0.12958 0.0
C412 C 0.12224 0.13794 0.15364 0.0
C413 C 0.08981 0.15041 0.14795 0.0
C414 C 0.08458 0.17067 0.11946 0.0
H415 H 0.36126 0.37029 0.53911 0.0
H416 H 0.37737 0.27491 0.52206 0.0
H417 H 0.39488 0.26767 0.58347 0.0
H418 H 0.43231 0.38148 0.5848 0.0
H419 H 0.41501 0.40834 0.61429 0.0
H420 H 0.39632 0.40416 0.57224 0.0
H421 H 0.3383 0.393 0.60149 0.0
H422 H 0.35714 0.39683 0.64385 0.0
H423 H 0.33455 0.3627 0.63374 0.0
H424 H 0.42082 0.27284 0.64294 0.0
H425 H 0.45612 0.29077 0.69141 0.0
H426 H 0.42308 0.3824 0.6696 0.0
C427 C 0.36736 0.34764 0.54852 0.0
C428 C 0.36771 0.32315 0.52574 0.0
C429 C 0.37665 0.29402 0.53902 0.0
C430 C 0.38646 0.28966 0.57398 0.0
C431 C 0.38689 0.31457 0.5955 0.0
C432 C 0.37738 0.343 0.58319 0.0
C433 C 0.38466 0.36691 0.60958 0.0
C434 C 0.4085 0.39164 0.59432 0.0
C435 C 0.35169 0.38067 0.62295 0.0
C436 C 0.4017 0.3479 0.63782 0.0
C437 C 0.40186 0.31757 0.62984 0.0
C438 C 0.41992 0.29634 0.64999 0.0
C439 C 0.43966 0.3066 0.67774 0.0
C440 C 0.44127 0.33776 0.68479 0.0
C441 C 0.42096 0.35831 0.66555 0.0
H442 H 0.66779 0.35248 0.00311 0.0
H443 H 0.68039 0.25598 0.99131 0.0
H444 H 0.65879 0.26103 0.93091 0.0
H445 H 0.59155 0.35733 0.96647 0.0
H446 H 0.59725 0.39402 0.94546 0.0
H447 H 0.62137 0.38404 0.98353 0.0
H448 H 0.67702 0.39528 0.94981 0.0
H449 H 0.65294 0.40554 0.91148 0.0
H450 H 0.685 0.37681 0.90945 0.0
H451 H 0.62556 0.27571 0.87555 0.0
H452 H 0.58404 0.29797 0.83367 0.0
H453 H 0.59275 0.38399 0.88374 0.0
C454 C 0.66718 0.3325 0.98748 0.0
C455 C 0.67592 0.30385 0.00196 0.0
C456 C 0.67426 0.27826 0.98069 0.0
C457 C 0.66196 0.28094 0.94631 0.0
C458 C 0.6519 0.30942 0.93346 0.0
C459 C 0.65489 0.33481 0.95345 0.0
C460 C 0.63841 0.3621 0.93607 0.0
C461 C 0.6105 0.37509 0.95925 0.0
C462 C 0.66493 0.38636 0.92611 0.0
C463 C 0.62387 0.34787 0.9041 0.0
C464 C 0.63256 0.31768 0.90229 0.0
C465 C 0.61928 0.29948 0.8764 0.0
C466 C 0.59581 0.31225 0.85264 0.0
C467 C 0.58565 0.34271 0.8554 0.0
C468 C 0.60063 0.36076 0.8808 0.0
H469 H 0.94835 0.20285 0.48975 0.0
H470 H 0.84431 0.17849 0.46844 0.0
H471 H 0.85931 0.17055 0.40683 0.0
H472 H 0.9683 0.23926 0.40282 0.0
H473 H 0.01037 0.22381 0.40362 0.0
H474 H 0.98988 0.23333 0.44372 0.0
H475 H -0.00061 0.17863 0.46796 0.0
H476 H 0.01984 0.16902 0.42813 0.0
H477 H 0.98402 0.14716 0.44364 0.0
H478 H 0.8881 0.15825 0.34913 0.0
H479 H 0.92776 0.14041 0.30407 0.0
H480 H 0.01211 0.17218 0.36489 0.0
C481 C 0.92841 0.19671 0.47199 0.0
C482 C 0.89511 0.19146 0.48396 0.0
C483 C 0.86998 0.18289 0.45986 0.0
C484 C 0.87826 0.17841 0.42475 0.0
C485 C 0.91171 0.18284 0.41408 0.0
C486 C 0.93629 0.192 0.43713 0.0
C487 C 0.97103 0.19175 0.42082 0.0
C488 C 0.98575 0.22396 0.41755 0.0
C489 C -0.00506 0.17036 0.44134 0.0
C490 C 0.96254 0.17968 0.38551 0.0
C491 C 0.92816 0.17533 0.38153 0.0
C492 C 0.91498 0.16209 0.3518 0.0
C493 C 0.93761 0.15216 0.32623 0.0
C494 C 0.97289 0.15507 0.33105 0.0
C495 C 0.9852 0.1699 0.36047 0.0
H496 H 0.89294 0.77145 0.99422 0.0
H497 H 0.80938 0.83442 0.9864 0.0
H498 H 0.82192 0.84337 0.92407 0.0
H499 H 0.94816 0.81323 0.94858 0.0
H500 H 0.96897 0.78296 0.92672 0.0
H501 H 0.94823 0.77541 0.96757 0.0
H502 H 0.91169 0.73384 0.93963 0.0
H503 H 0.93253 0.74124 0.89847 0.0
H504 H 0.88712 0.74299 0.9013 0.0
H505 H 0.8515 0.85472 0.86777 0.0
H506 H 0.89489 0.86651 0.82309 0.0
H507 H 0.9579 0.79495 0.86569 0.0
C508 C 0.87644 0.78622 0.97911 0.0
C509 C 0.85016 0.80218 0.99524 0.0
C510 C 0.82956 0.82178 0.97465 0.0
C511 C 0.83643 0.82693 0.93912 0.0
C512 C 0.86364 0.81197 0.92439 0.0
C513 C 0.88301 0.79162 0.94368 0.0
C514 C 0.91358 0.78169 0.92332 0.0
C515 C 0.94665 0.78878 0.9427 0.0
C516 C 0.91106 0.74793 0.91519 0.0
C517 C 0.90977 0.80126 0.89058 0.0
C518 C 0.88033 0.81801 0.89121 0.0
C519 C 0.8738 0.84076 0.86616 0.0
C520 C 0.89832 0.84706 0.84048 0.0
C521 C 0.92876 0.83054 0.8399 0.0
C522 C 0.93411 0.80697 0.86479 0.0
H523 H 0.63187 0.64543 0.47887 0.0
H524 H 0.64253 0.74223 0.45977 0.0
H525 H 0.62206 0.73627 0.39948 0.0
H526 H 0.65271 0.6212 0.38889 0.0
H527 H 0.62135 0.59151 0.39156 0.0
H528 H 0.64318 0.60279 0.43026 0.0
H529 H 0.58568 0.61273 0.46018 0.0
H530 H 0.5638 0.60154 0.42174 0.0
H531 H 0.55602 0.63823 0.4393 0.0
H532 H 0.59275 0.72012 0.34362 0.0
H533 H 0.555 0.696 0.3007 0.0
H534 H 0.56275 0.6108 0.35852 0.0
C535 C 0.63084 0.66536 0.46182 0.0
C536 C 0.63894 0.69429 0.47407 0.0
C537 C 0.63665 0.71978 0.45094 0.0
C538 C 0.62517 0.71659 0.41658 0.0
C539 C 0.61636 0.68774 0.40571 0.0
C540 C 0.61928 0.66258 0.42777 0.0
C541 C 0.60447 0.63465 0.41184 0.0
C542 C 0.63208 0.61116 0.40524 0.0
C543 C 0.5758 0.62103 0.43461 0.0
C544 C 0.59121 0.64819 0.37804 0.0
C545 C 0.59901 0.67865 0.3743 0.0
C546 C 0.58703 0.69619 0.34607 0.0
C547 C 0.56572 0.68239 0.3218 0.0
C548 C 0.55643 0.65162 0.32642 0.0
C549 C 0.57001 0.6343 0.35432 0.0
H550 H 0.36421 0.69254 -0.00312 0.0
H551 H 0.27966 0.63866 0.03577 0.0
H552 H 0.30355 0.63965 0.09501 0.0
H553 H 0.42392 0.65446 0.03942 0.0
H554 H 0.45107 0.68604 0.04878 0.0
H555 H 0.4231 0.68839 0.01218 0.0
H556 H 0.39645 0.73707 0.03604 0.0
H557 H 0.4246 0.7349 0.07289 0.0
H558 H 0.37959 0.73666 0.07964 0.0
H559 H 0.3424 0.63687 0.14653 0.0
H560 H 0.39274 0.62929 0.18362 0.0
H561 H 0.45176 0.68531 0.11171 0.0
C562 C 0.34998 0.68197 0.01806 0.0
C563 C 0.32 0.66561 0.01164 0.0
C564 C 0.30258 0.6515 0.04001 0.0
C565 C 0.31591 0.65206 0.07385 0.0
C566 C 0.34646 0.66714 0.07901 0.0
C567 C 0.36307 0.68217 0.05185 0.0
C568 C 0.39783 0.69266 0.06275 0.0
C569 C 0.42558 0.67958 0.03942 0.0
C570 C 0.39971 0.72739 0.06284 0.0
C571 C 0.39923 0.67927 0.0994 0.0
C572 C 0.36901 0.66547 0.10883 0.0
C573 C 0.3658 0.64842 0.13987 0.0
C574 C 0.39449 0.6444 0.161 0.0
C575 C 0.42593 0.65726 0.15088 0.0
C576 C 0.42783 0.67577 0.12038 0.0
H577 H 0.1144 0.87464 0.49721 0.0
H578 H 0.13061 0.77763 0.50305 0.0
H579 H 0.1158 0.77683 0.56549 0.0
H580 H 0.14428 0.89042 0.58804 0.0
H581 H 0.1123 0.91888 0.593 0.0
H582 H 0.13023 0.91258 0.5507 0.0
H583 H 0.07023 0.90364 0.52579 0.0
H584 H 0.05226 0.91008 0.56778 0.0
H585 H 0.04329 0.87528 0.54623 0.0
H586 H 0.08918 0.7853 0.62414 0.0
H587 H 0.05272 0.80251 0.67202 0.0
H588 H 0.05687 0.8939 0.62886 0.0
C589 C 0.1157 0.85334 0.51181 0.0
C590 C 0.12366 0.82623 0.49523 0.0
C591 C 0.12472 0.79875 0.5152 0.0
C592 C 0.11649 0.79809 0.55077 0.0
C593 C 0.10785 0.82515 0.56615 0.0
C594 C 0.1078 0.85233 0.54729 0.0
C595 C 0.09422 0.87773 0.56865 0.0
C596 C 0.12192 0.90129 0.5755 0.0
C597 C 0.06316 0.89251 0.55108 0.0
C598 C 0.08473 0.86032 0.60173 0.0
C599 C 0.0934 0.83012 0.60025 0.0
C600 C 0.08336 0.80908 0.62617 0.0
C601 C 0.06304 0.81902 0.65358 0.0
C602 C 0.05312 0.84962 0.65467 0.0
C603 C 0.06502 0.87053 0.62904 0.0
H604 H 0.27171 0.21106 0.30951 0.0
H605 H 0.23543 0.29497 0.2622 0.0
H606 H 0.18969 0.26689 0.2332 0.0
H607 H 0.24736 0.15929 0.23794 0.0
H608 H 0.23434 0.12997 0.26876 0.0
H609 H 0.26817 0.15549 0.27953 0.0
H610 H 0.23624 0.17004 0.33551 0.0
H611 H 0.20259 0.14453 0.325 0.0
H612 H 0.19352 0.1838 0.33208 0.0
H613 H 0.14403 0.23032 0.21474 0.0
H614 H 0.09956 0.19068 0.21516 0.0
H615 H 0.16422 0.13169 0.27739 0.0
C616 C 0.25481 0.22336 0.29211 0.0
C617 C 0.25742 0.2551 0.28762 0.0
C618 C 0.23405 0.2706 0.26572 0.0
C619 C 0.20813 0.25479 0.24896 0.0
C620 C 0.20577 0.22351 0.25453 0.0
C621 C 0.22844 0.20802 0.27582 0.0
C622 C 0.21768 0.17537 0.28186 0.0
C623 C 0.24343 0.15376 0.26607 0.0
C624 C 0.21217 0.16804 0.32091 0.0
C625 C 0.18473 0.17518 0.2619 0.0
C626 C 0.17874 0.20282 0.24533 0.0
C627 C 0.14871 0.20847 0.22723 0.0
C628 C 0.12363 0.18578 0.2274 0.0
C629 C 0.12856 0.15815 0.2462 0.0
C630 C 0.15996 0.15253 0.26252 0.0
H631 H 0.26849 0.27895 0.86172 0.0
H632 H 0.28777 0.197 0.8059 0.0
H633 H 0.33975 0.22027 0.78068 0.0
H634 H 0.30063 0.33317 0.79657 0.0
H635 H 0.31942 0.35702 0.82856 0.0
H636 H 0.28234 0.33488 0.83944 0.0
H637 H 0.31368 0.31004 0.89212 0.0
H638 H 0.35067 0.33228 0.88157 0.0
H639 H 0.35359 0.29163 0.88522 0.0
H640 H 0.39063 0.2532 0.76205 0.0
H641 H 0.43874 0.28954 0.75852 0.0
H642 H 0.38677 0.34766 0.82967 0.0
C643 C 0.28343 0.26601 0.84387 0.0
C644 C 0.27397 0.23631 0.83547 0.0
C645 C 0.29458 0.21985 0.81262 0.0
C646 C 0.324 0.23296 0.798 0.0
C647 C 0.33261 0.2624 0.80681 0.0
C648 C 0.31309 0.2785 0.82963 0.0
C649 C 0.3291 0.30867 0.83736 0.0
C650 C 0.30652 0.33499 0.82472 0.0
C651 C 0.33725 0.31075 0.87637 0.0
C652 C 0.3609 0.30697 0.81569 0.0
C653 C 0.36229 0.28046 0.79758 0.0
C654 C 0.38974 0.27401 0.77614 0.0
C655 C 0.41682 0.2948 0.77406 0.0
C656 C 0.41637 0.32124 0.79387 0.0
C657 C 0.38775 0.32753 0.81431 0.0
H658 H 0.71709 0.22445 0.67918 0.0
H659 H 0.78709 0.26435 0.75165 0.0
H660 H 0.73976 0.29138 0.77884 0.0
H661 H 0.67073 0.28881 0.66291 0.0
H662 H 0.63049 0.2699 0.65921 0.0
H663 H 0.66874 0.25005 0.64965 0.0
H664 H 0.65249 0.20787 0.69506 0.0
H665 H 0.6141 0.22773 0.70482 0.0
H666 H 0.64328 0.21776 0.73922 0.0
H667 H 0.68518 0.3186 0.79376 0.0
H668 H 0.63009 0.34522 0.79192 0.0
H669 H 0.59702 0.28771 0.70918 0.0
C670 C 0.72241 0.23825 0.70135 0.0
C671 C 0.75578 0.24209 0.71343 0.0
C672 C 0.7617 0.26092 0.74203 0.0
C673 C 0.73493 0.27627 0.75776 0.0
C674 C 0.70236 0.27248 0.74469 0.0
C675 C 0.69609 0.25384 0.71711 0.0
C676 C 0.65969 0.25593 0.7054 0.0
C677 C 0.6573 0.26684 0.66704 0.0
C678 C 0.64131 0.22551 0.7115 0.0
C679 C 0.64672 0.2795 0.72973 0.0
C680 C 0.67135 0.28837 0.75281 0.0
C681 C 0.66556 0.31142 0.7762 0.0
C682 C 0.63416 0.32628 0.77521 0.0
C683 C 0.60928 0.31816 0.75078 0.0
C684 C 0.61551 0.29406 0.72843 0.0
H685 H 0.77466 0.19281 0.16029 0.0
H686 H 0.80088 0.285 0.18539 0.0
H687 H 0.85201 0.2664 0.21612 0.0
H688 H 0.8068 0.1556 0.24094 0.0
H689 H 0.82235 0.12357 0.21792 0.0
H690 H 0.78575 0.14378 0.20203 0.0
H691 H 0.81479 0.15284 0.14201 0.0
H692 H 0.85101 0.13221 0.15757 0.0
H693 H 0.85604 0.17029 0.14014 0.0
H694 H 0.90336 0.23757 0.23983 0.0
H695 H 0.95191 0.20249 0.24717 0.0
H696 H 0.89144 0.13013 0.20591 0.0
C697 C 0.79083 0.2091 0.1727 0.0
C698 C 0.78363 0.24035 0.17055 0.0
C699 C 0.80581 0.26091 0.18671 0.0
C700 C 0.83479 0.25053 0.20449 0.0
C701 C 0.84119 0.2195 0.20604 0.0
C702 C 0.81982 0.19916 0.19034 0.0
C703 C 0.8338 0.16739 0.1925 0.0
C704 C 0.8108 0.14635 0.21467 0.0
C705 C 0.83925 0.15498 0.15589 0.0
C706 C 0.86697 0.1731 0.21075 0.0
C707 C 0.8706 0.20312 0.21921 0.0
C708 C 0.90052 0.21393 0.23383 0.0
C709 C 0.92787 0.19386 0.23827 0.0
C710 C 0.92503 0.16365 0.22759 0.0
C711 C 0.89384 0.15301 0.21501 0.0
H712 H 0.78401 0.72292 0.66948 0.0
H713 H 0.7143 0.76556 0.73988 0.0
H714 H 0.76174 0.7939 0.7653 0.0
H715 H 0.85767 0.71884 0.72985 0.0
H716 H 0.88711 0.72749 0.69511 0.0
H717 H 0.84861 0.70716 0.68629 0.0
H718 H 0.83294 0.74749 0.63872 0.0
H719 H 0.8713 0.76781 0.64733 0.0
H720 H 0.8312 0.78679 0.64987 0.0
H721 H 0.81541 0.82264 0.7774 0.0
H722 H 0.87003 0.84996 0.77347 0.0
H723 H 0.90484 0.78792 0.69653 0.0
C724 C 0.7788 0.73764 0.69084 0.0
C725 C 0.74545 0.74187 0.70283 0.0
C726 C 0.73966 0.76184 0.73035 0.0
C727 C 0.76648 0.77794 0.74507 0.0
C728 C 0.79899 0.77371 0.73214 0.0
C729 C 0.80523 0.75394 0.70569 0.0
C730 C 0.84175 0.75562 0.69404 0.0
C731 C 0.85985 0.72548 0.7018 0.0
C732 C 0.84443 0.765 0.6552 0.0
C733 C 0.8548 0.78024 0.7171 0.0
C734 C 0.82998 0.79003 0.73939 0.0
C735 C 0.83537 0.81447 0.76092 0.0
C736 C 0.86666 0.82959 0.75907 0.0
C737 C 0.89207 0.82014 0.73605 0.0
C738 C 0.88612 0.79495 0.71518 0.0
H739 H 0.70445 0.7766 0.17364 0.0
H740 H 0.76547 0.73598 0.25607 0.0
H741 H 0.71646 0.70487 0.27555 0.0
H742 H 0.62213 0.77524 0.22131 0.0
H743 H 0.59929 0.76589 0.18251 0.0
H744 H 0.63718 0.78859 0.17928 0.0
H745 H 0.66285 0.75049 0.13672 0.0
H746 H 0.62522 0.7277 0.13991 0.0
H747 H 0.66571 0.71109 0.14991 0.0
H748 H 0.66204 0.67382 0.28166 0.0
H749 H 0.60934 0.64468 0.27134 0.0
H750 H 0.58575 0.70505 0.18399 0.0
C751 C 0.7073 0.76184 0.19643 0.0
C752 C 0.73873 0.75896 0.21351 0.0
C753 C 0.74156 0.73875 0.2427 0.0
C754 C 0.71381 0.72104 0.25404 0.0
C755 C 0.68337 0.72384 0.23596 0.0
C756 C 0.68004 0.74386 0.2078 0.0
C757 C 0.64609 0.74039 0.19031 0.0
C758 C 0.62492 0.76925 0.19356 0.0
C759 C 0.65024 0.7319 0.15197 0.0
C760 C 0.63133 0.7145 0.21207 0.0
C761 C 0.65272 0.70562 0.23885 0.0
C762 C 0.64493 0.68093 0.26107 0.0
C763 C 0.61494 0.66458 0.25519 0.0
C764 C 0.5935 0.67288 0.22712 0.0
C765 C 0.60164 0.69842 0.20583 0.0
H766 H 0.23229 0.69255 0.27152 0.0
H767 H 0.26538 0.78256 0.23906 0.0
H768 H 0.32155 0.76226 0.22364 0.0
H769 H 0.30506 0.67497 0.31579 0.0
H770 H 0.30562 0.63538 0.30584 0.0
H771 H 0.26619 0.65534 0.30659 0.0
H772 H 0.25371 0.63966 0.24336 0.0
H773 H 0.29315 0.61943 0.24256 0.0
H774 H 0.28424 0.6481 0.20956 0.0
H775 H 0.37531 0.73261 0.21603 0.0
H776 H 0.42399 0.69807 0.22455 0.0
H777 H 0.35707 0.62926 0.26882 0.0
C778 C 0.25105 0.70771 0.25998 0.0
C779 C 0.24452 0.73889 0.25554 0.0
C780 C 0.26997 0.75848 0.24201 0.0
C781 C 0.30179 0.74712 0.23306 0.0
C782 C 0.30779 0.71625 0.23846 0.0
C783 C 0.28319 0.69688 0.252 0.0
C784 C 0.29742 0.66581 0.26053 0.0
C785 C 0.29334 0.65741 0.29949 0.0
C786 C 0.28116 0.64184 0.23763 0.0
C787 C 0.33408 0.67098 0.25086 0.0
C788 C 0.33936 0.69984 0.23697 0.0
C789 C 0.37142 0.70994 0.22676 0.0
C790 C 0.39886 0.69027 0.23167 0.0
C791 C 0.39404 0.66128 0.24753 0.0
C792 C 0.36125 0.65142 0.25675 0.0
H793 H 0.23578 0.75809 0.79683 0.0
H794 H 0.18981 0.67546 0.761 0.0
H795 H 0.14134 0.70488 0.73792 0.0
H796 H 0.16323 0.7875 0.82947 0.0
H797 H 0.17256 0.82653 0.81817 0.0
H798 H 0.20644 0.80015 0.82503 0.0
H799 H 0.23006 0.81385 0.76359 0.0
H800 H 0.19605 0.84033 0.75652 0.0
H801 H 0.20305 0.81073 0.72612 0.0
H802 H 0.09434 0.74219 0.72631 0.0
H803 H 0.05206 0.783 0.73118 0.0
H804 H 0.12804 0.84081 0.77583 0.0
C805 C 0.21608 0.74632 0.78305 0.0
C806 C 0.2168 0.71453 0.78026 0.0
C807 C 0.18994 0.69983 0.76314 0.0
C808 C 0.16237 0.7164 0.7498 0.0
C809 C 0.16198 0.74766 0.75382 0.0
C810 C 0.1882 0.76246 0.77008 0.0
C811 C 0.17978 0.79539 0.77541 0.0
C812 C 0.18053 0.8028 0.81432 0.0
C813 C 0.20366 0.81631 0.75413 0.0
C814 C 0.14422 0.79656 0.76095 0.0
C815 C 0.13466 0.76905 0.74776 0.0
C816 C 0.10187 0.76404 0.73572 0.0
C817 C 0.07808 0.78741 0.73822 0.0
C818 C 0.08718 0.81526 0.75278 0.0
C819 C 0.1208 0.81999 0.76361 0.0
loop_
_geom_bond_atom_site_label_1
_geom_bond_atom_site_label_2
_geom_bond_distance
_geom_bond_site_symmetry_2
_ccdc_geom_bond_type
O0 Cd1 2.300 . S
O0 C7 1.275 . S
Cd1 O0 2.300 . S
Cd1 O9 2.381 . S
Cd1 O10 2.378 . S
O2 Cd3 2.385 . S
O2 C7 1.255 . S
Cd3 O2 2.385 . S
Cd3 O4 2.317 . S
O4 Cd3 2.317 . S
O4 C5 1.232 . S
C5 O4 1.232 . S
C5 O6 1.218 . S
O6 C5 1.218 . S
C7 O0 1.275 . S
C7 O2 1.255 . S
C8 O9 1.258 . S
C8 O10 1.256 . S
O9 Cd1 2.381 . S
O9 C8 1.258 . S
O10 Cd1 2.378 . S
O10 C8 1.256 . S
O11 Cd12 2.300 . S
O11 C18 1.275 . S
Cd12 O11 2.300 . S
Cd12 O20 2.381 . S
Cd12 O21 2.378 . S
O13 Cd14 2.385 . S
O13 C18 1.255 . S
Cd14 O13 2.385 . S
Cd14 O15 2.317 . S
O15 Cd14 2.317 . S
O15 C16 1.232 . S
C16 O15 1.232 . S
C16 O17 1.218 . S
O17 C16 1.218 . S
C18 O11 1.275 . S
C18 O13 1.255 . S
C19 O20 1.258 . S
C19 O21 1.256 . S
O20 Cd12 2.381 . S
O20 C19 1.258 . S
O21 Cd12 2.378 . S
O21 C19 1.256 . S
O22 Cd23 2.300 . S
O22 C29 1.275 . S
Cd23 O22 2.300 . S
Cd23 O31 2.381 . S
Cd23 O32 2.378 . S
O24 Cd25 2.385 . S
O24 C29 1.255 . S
Cd25 O24 2.385 . S
Cd25 O26 2.317 . S
O26 Cd25 2.317 . S
O26 C27 1.232 . S
C27 O26 1.232 . S
C27 O28 1.218 . S
O28 C27 1.218 . S
C29 O22 1.275 . S
C29 O24 1.255 . S
C30 O31 1.258 . S
C30 O32 1.256 . S
O31 Cd23 2.381 . S
O31 C30 1.258 . S
O32 Cd23 2.378 . S
O32 C30 1.256 . S
O33 Cd34 2.300 . S
O33 C40 1.275 . S
Cd34 O33 2.300 . S
Cd34 O42 2.381 . S
Cd34 O43 2.378 . S
O35 Cd36 2.385 . S
O35 C40 1.255 . S
Cd36 O35 2.385 . S
Cd36 O37 2.317 . S
O37 Cd36 2.317 . S
O37 C38 1.232 . S
C38 O37 1.232 . S
C38 O39 1.218 . S
O39 C38 1.218 . S
C40 O33 1.275 . S
C40 O35 1.255 . S
C41 O42 1.258 . S
C41 O43 1.256 . S
O42 Cd34 2.381 . S
O42 C41 1.258 . S
O43 Cd34 2.378 . S
O43 C41 1.256 . S
O44 Cd45 2.300 . S
O44 C51 1.275 . S
Cd45 O44 2.300 . S
Cd45 O53 2.381 . S
Cd45 O54 2.378 . S
O46 Cd47 2.385 . S
O46 C51 1.255 . S
Cd47 O46 2.385 . S
Cd47 O48 2.317 . S
O48 Cd47 2.317 . S
O48 C49 1.232 . S
C49 O48 1.232 . S
C49 O50 1.218 . S
O50 C49 1.218 . S
C51 O44 1.275 . S
C51 O46 1.255 . S
C52 O53 1.258 . S
C52 O54 1.256 . S
O53 Cd45 2.381 . S
O53 C52 1.258 . S
O54 Cd45 2.378 . S
O54 C52 1.256 . S
O55 Cd56 2.300 . S
O55 C62 1.275 . S
Cd56 O55 2.300 . S
Cd56 O64 2.381 . S
Cd56 O65 2.378 . S
O57 Cd58 2.385 . S
O57 C62 1.255 . S
Cd58 O57 2.385 . S
Cd58 O59 2.317 . S
O59 Cd58 2.317 . S
O59 C60 1.232 . S
C60 O59 1.232 . S
C60 O61 1.218 . S
O61 C60 1.218 . S
C62 O55 1.275 . S
C62 O57 1.255 . S
C63 O64 1.258 . S
C63 O65 1.256 . S
O64 Cd56 2.381 . S
O64 C63 1.258 . S
O65 Cd56 2.378 . S
O65 C63 1.256 . S
O66 Cd67 2.300 . S
O66 C73 1.275 . S
Cd67 O66 2.300 . S
Cd67 O75 2.381 . S
Cd67 O76 2.378 . S
O68 Cd69 2.385 . S
O68 C73 1.255 . S
Cd69 O68 2.385 . S
Cd69 O70 2.317 . S
O70 Cd69 2.317 . S
O70 C71 1.232 . S
C71 O70 1.232 . S
C71 O72 1.218 . S
O72 C71 1.218 . S
C73 O66 1.275 . S
C73 O68 1.255 . S
C74 O75 1.258 . S
C74 O76 1.256 . S
O75 Cd67 2.381 . S
O75 C74 1.258 . S
O76 Cd67 2.378 . S
O76 C74 1.256 . S
O77 Cd78 2.300 . S
O77 C84 1.275 . S
Cd78 O77 2.300 . S
Cd78 O86 2.381 . S
Cd78 O87 2.378 . S
O79 Cd80 2.385 . S
O79 C84 1.255 . S
Cd80 O79 2.385 . S
Cd80 O81 2.317 . S
O81 Cd80 2.317 . S
O81 C82 1.232 . S
C82 O81 1.232 . S
C82 O83 1.218 . S
O83 C82 1.218 . S
C84 O77 1.275 . S
C84 O79 1.255 . S
C85 O86 1.258 . S
C85 O87 1.256 . S
O86 Cd78 2.381 . S
O86 C85 1.258 . S
O87 Cd78 2.378 . S
O87 C85 1.256 . S
Zn88 O94 1.920 . S
Zn88 O100 1.898 . S
Zn88 O103 1.905 . S
Zn89 O97 1.905 1_655 S
Zn89 O98 1.898 . S
Zn89 O106 1.920 . S
Zn90 O93 2.080 1_455 S
Zn90 O96 2.114 . S
Zn90 O99 2.120 1_455 S
Zn90 O101 2.120 . S
Zn90 O102 2.114 . S
Zn90 O105 2.080 1_455 S
C91 O96 1.166 . S
C91 O97 1.182 . S
C92 O98 1.167 . S
C92 O99 1.299 . S
O93 Zn90 2.080 1_655 S
O93 C107 1.305 . S
O94 Zn88 1.920 . S
O94 C107 1.234 1_455 S
C95 O100 1.167 . S
C95 O101 1.299 . S
O96 Zn90 2.114 . S
O96 C91 1.166 . S
O97 Zn89 1.905 1_455 S
O97 C91 1.182 . S
O98 Zn89 1.898 . S
O98 C92 1.167 . S
O99 Zn90 2.120 1_655 S
O99 C92 1.299 . S
O100 Zn88 1.898 . S
O100 C95 1.167 . S
O101 Zn90 2.120 . S
O101 C95 1.299 . S
O102 Zn90 2.114 . S
O102 C104 1.166 . S
O103 Zn88 1.905 . S
O103 C104 1.182 . S
C104 O102 1.166 . S
C104 O103 1.182 . S
O105 Zn90 2.080 1_655 S
O105 C108 1.305 . S
O106 Zn89 1.920 . S
O106 C108 1.234 . S
C107 O93 1.305 . S
C107 O94 1.234 1_655 S
C108 O105 1.305 . S
C108 O106 1.234 . S
Zn109 O115 1.920 . S
Zn109 O121 1.898 . S
Zn109 O124 1.905 . S
Zn110 O118 1.905 . S
Zn110 O119 1.898 . S
Zn110 O127 1.920 . S
Zn111 O114 2.080 . S
Zn111 O117 2.114 . S
Zn111 O120 2.120 . S
Zn111 O122 2.120 . S
Zn111 O123 2.114 . S
Zn111 O126 2.080 . S
C112 O117 1.166 . S
C112 O118 1.182 . S
C113 O119 1.167 . S
C113 O120 1.299 . S
O114 Zn111 2.080 . S
O114 C128 1.305 . S
O115 Zn109 1.920 . S
O115 C128 1.234 . S
C116 O121 1.167 . S
C116 O122 1.299 . S
O117 Zn111 2.114 . S
O117 C112 1.166 . S
O118 Zn110 1.905 . S
O118 C112 1.182 . S
O119 Zn110 1.898 . S
O119 C113 1.167 . S
O120 Zn111 2.120 . S
O120 C113 1.299 . S
O121 Zn109 1.898 . S
O121 C116 1.167 . S
O122 Zn111 2.120 . S
O122 C116 1.299 . S
O123 Zn111 2.114 . S
O123 C125 1.166 . S
O124 Zn109 1.905 . S
O124 C125 1.182 . S
C125 O123 1.166 . S
C125 O124 1.182 . S
O126 Zn111 2.080 . S
O126 C129 1.305 . S
O127 Zn110 1.920 . S
O127 C129 1.234 . S
C128 O114 1.305 . S
C128 O115 1.234 . S
C129 O126 1.305 . S
C129 O127 1.234 . S
Zn130 O136 1.920 . S
Zn130 O142 1.898 . S
Zn130 O145 1.905 1_455 S
Zn131 O139 1.905 . S
Zn131 O140 1.898 . S
Zn131 O148 1.920 1_655 S
Zn132 O135 2.080 . S
Zn132 O138 2.114 1_455 S
Zn132 O141 2.120 1_455 S
Zn132 O143 2.120 . S
Zn132 O144 2.114 1_455 S
Zn132 O147 2.080 . S
C133 O138 1.166 . S
C133 O139 1.182 . S
C134 O140 1.167 . S
C134 O141 1.299 . S
O135 Zn132 2.080 . S
O135 C149 1.305 . S
O136 Zn130 1.920 . S
O136 C149 1.234 . S
C137 O142 1.167 . S
C137 O143 1.299 . S
O138 Zn132 2.114 1_655 S
O138 C133 1.166 . S
O139 Zn131 1.905 . S
O139 C133 1.182 . S
O140 Zn131 1.898 . S
O140 C134 1.167 . S
O141 Zn132 2.120 1_655 S
O141 C134 1.299 . S
O142 Zn130 1.898 . S
O142 C137 1.167 . S
O143 Zn132 2.120 . S
O143 C137 1.299 . S
O144 Zn132 2.114 1_655 S
O144 C146 1.166 . S
O145 Zn130 1.905 1_655 S
O145 C146 1.182 . S
C146 O144 1.166 . S
C146 O145 1.182 . S
O147 Zn132 2.080 . S
O147 C150 1.305 . S
O148 Zn131 1.920 1_455 S
O148 C150 1.234 . S
C149 O135 1.305 . S
C149 O136 1.234 . S
C150 O147 1.305 . S
C150 O148 1.234 . S
Zn151 O157 1.920 . S
Zn151 O163 1.898 . S
Zn151 O166 1.905 . S
Zn152 O160 1.905 . S
Zn152 O161 1.898 . S
Zn152 O169 1.920 . S
Zn153 O156 2.080 . S
Zn153 O159 2.114 . S
Zn153 O162 2.120 . S
Zn153 O164 2.120 . S
Zn153 O165 2.114 . S
Zn153 O168 2.080 . S
C154 O159 1.166 . S
C154 O160 1.182 . S
C155 O161 1.167 . S
C155 O162 1.299 . S
O156 Zn153 2.080 . S
O156 C170 1.305 . S
O157 Zn151 1.920 . S
O157 C170 1.234 . S
C158 O163 1.167 . S
C158 O164 1.299 . S
O159 Zn153 2.114 . S
O159 C154 1.166 . S
O160 Zn152 1.905 . S
O160 C154 1.182 . S
O161 Zn152 1.898 . S
O161 C155 1.167 . S
O162 Zn153 2.120 . S
O162 C155 1.299 . S
O163 Zn151 1.898 . S
O163 C158 1.167 . S
O164 Zn153 2.120 . S
O164 C158 1.299 . S
O165 Zn153 2.114 . S
O165 C167 1.166 . S
O166 Zn151 1.905 . S
O166 C167 1.182 . S
C167 O165 1.166 . S
C167 O166 1.182 . S
O168 Zn153 2.080 . S
O168 C171 1.305 . S
O169 Zn152 1.920 . S
O169 C171 1.234 . S
C170 O156 1.305 . S
C170 O157 1.234 . S
C171 O168 1.305 . S
C171 O169 1.234 . S
H172 C184 0.930 . S
H173 C186 0.930 . S
H174 C187 0.930 . S
H175 C191 0.959 . S
H176 C191 0.959 . S
H177 C191 0.961 . S
H178 C192 0.960 . S
H179 C192 0.961 . S
H180 C192 0.959 . S
H181 C195 0.929 . S
H182 C196 0.931 . S
H183 C198 0.930 . S
C184 H172 0.930 . S
C184 C185 1.399 . S
C184 C189 1.399 . S
C185 C184 1.399 . S
C185 C186 1.376 . S
C186 H173 0.930 . S
C186 C185 1.376 . S
C186 C187 1.388 . S
C187 H174 0.930 . S
C187 C186 1.388 . S
C187 C188 1.390 . S
C188 C187 1.390 . S
C188 C189 1.394 . S
C188 C194 1.465 . S
C189 C184 1.399 . S
C189 C188 1.394 . S
C189 C190 1.516 . S
C190 C189 1.516 . S
C190 C191 1.502 . S
C190 C192 1.561 . S
C190 C193 1.526 . S
C191 H175 0.959 . S
C191 H176 0.959 . S
C191 H177 0.961 . S
C191 C190 1.502 . S
C192 H178 0.960 . S
C192 H179 0.961 . S
C192 H180 0.959 . S
C192 C190 1.561 . S
C193 C190 1.526 . S
C193 C194 1.396 . S
C193 C198 1.390 1_565 S
C194 C188 1.465 . S
C194 C193 1.396 . S
C194 C195 1.399 1_565 S
C195 H181 0.929 . S
C195 C194 1.399 1_545 S
C195 C196 1.385 . S
C196 H182 0.931 . S
C196 C195 1.385 . S
C196 C197 1.389 . S
C197 C196 1.389 . S
C197 C198 1.387 . S
C198 H183 0.930 . S
C198 C193 1.390 1_545 S
C198 C197 1.387 . S
H199 C211 0.930 . S
H200 C213 0.930 . S
H201 C214 0.930 . S
H202 C218 0.959 . S
H203 C218 0.959 . S
H204 C218 0.961 . S
H205 C219 0.960 . S
H206 C219 0.961 . S
H207 C219 0.959 . S
H208 C222 0.929 . S
H209 C223 0.931 . S
H210 C225 0.930 . S
C211 H199 0.930 . S
C211 C212 1.399 . S
C211 C216 1.399 . S
C212 C211 1.399 . S
C212 C213 1.376 . S
C213 H200 0.930 . S
C213 C212 1.376 . S
C213 C214 1.388 . S
C214 H201 0.930 . S
C214 C213 1.388 . S
C214 C215 1.390 . S
C215 C214 1.390 . S
C215 C216 1.394 . S
C215 C221 1.465 . S
C216 C211 1.399 . S
C216 C215 1.394 . S
C216 C217 1.516 . S
C217 C216 1.516 . S
C217 C218 1.502 . S
C217 C219 1.561 . S
C217 C220 1.526 . S
C218 H202 0.959 . S
C218 H203 0.959 . S
C218 H204 0.961 . S
C218 C217 1.502 . S
C219 H205 0.960 . S
C219 H206 0.961 . S
C219 H207 0.959 . S
C219 C217 1.561 . S
C220 C217 1.526 . S
C220 C221 1.396 . S
C220 C225 1.390 . S
C221 C215 1.465 . S
C221 C220 1.396 . S
C221 C222 1.399 . S
C222 H208 0.929 . S
C222 C221 1.399 . S
C222 C223 1.385 . S
C223 H209 0.931 . S
C223 C222 1.385 . S
C223 C224 1.389 . S
C224 C223 1.389 . S
C224 C225 1.387 . S
C225 H210 0.930 . S
C225 C220 1.390 . S
C225 C224 1.387 . S
H226 C238 0.930 . S
H227 C240 0.930 . S
H228 C241 0.930 . S
H229 C245 0.959 . S
H230 C245 0.959 . S
H231 C245 0.961 . S
H232 C246 0.960 . S
H233 C246 0.961 . S
H234 C246 0.959 . S
H235 C249 0.929 . S
H236 C250 0.931 . S
H237 C252 0.930 . S
C238 H226 0.930 . S
C238 C239 1.399 . S
C238 C243 1.399 . S
C239 C238 1.399 . S
C239 C240 1.376 . S
C240 H227 0.930 . S
C240 C239 1.376 . S
C240 C241 1.388 . S
C241 H228 0.930 . S
C241 C240 1.388 . S
C241 C242 1.390 . S
C242 C241 1.390 . S
C242 C243 1.394 . S
C242 C248 1.465 . S
C243 C238 1.399 . S
C243 C242 1.394 . S
C243 C244 1.516 . S
C244 C243 1.516 . S
C244 C245 1.502 . S
C244 C246 1.561 . S
C244 C247 1.526 . S
C245 H229 0.959 . S
C245 H230 0.959 . S
C245 H231 0.961 . S
C245 C244 1.502 . S
C246 H232 0.960 . S
C246 H233 0.961 . S
C246 H234 0.959 . S
C246 C244 1.561 . S
C247 C244 1.526 . S
C247 C248 1.396 . S
C247 C252 1.390 . S
C248 C242 1.465 . S
C248 C247 1.396 . S
C248 C249 1.399 . S
C249 H235 0.929 . S
C249 C248 1.399 . S
C249 C250 1.385 . S
C250 H236 0.931 . S
C250 C249 1.385 . S
C250 C251 1.389 . S
C251 C250 1.389 . S
C251 C252 1.387 . S
C252 H237 0.930 . S
C252 C247 1.390 . S
C252 C251 1.387 . S
H253 C265 0.930 . S
H254 C267 0.930 . S
H255 C268 0.930 . S
H256 C272 0.959 . S
H257 C272 0.959 . S
H258 C272 0.961 . S
H259 C273 0.960 . S
H260 C273 0.961 1_545 S
H261 C273 0.959 . S
H262 C276 0.929 . S
H263 C277 0.931 1_455 S
H264 C279 0.930 . S
C265 H253 0.930 . S
C265 C266 1.399 . S
C265 C270 1.399 . S
C266 C265 1.399 . S
C266 C267 1.376 . S
C267 H254 0.930 . S
C267 C266 1.376 . S
C267 C268 1.388 . S
C268 H255 0.930 . S
C268 C267 1.388 . S
C268 C269 1.390 . S
C269 C268 1.390 . S
C269 C270 1.394 . S
C269 C275 1.465 . S
C270 C265 1.399 . S
C270 C269 1.394 . S
C270 C271 1.516 . S
C271 C270 1.516 . S
C271 C272 1.502 1_565 S
C271 C273 1.561 . S
C271 C274 1.521 1_565 S
C272 H256 0.959 . S
C272 H257 0.959 . S
C272 H258 0.961 . S
C272 C271 1.502 1_545 S
C273 H259 0.960 . S
C273 H260 0.961 1_565 S
C273 H261 0.959 . S
C273 C271 1.561 . S
C274 C271 1.521 1_545 S
C274 C275 1.383 1_545 S
C274 C279 1.404 . S
C275 C269 1.465 . S
C275 C274 1.383 1_565 S
C275 C276 1.399 . S
C276 H262 0.929 . S
C276 C275 1.399 . S
C276 C277 1.385 1_565 S
C277 H263 0.931 1_655 S
C277 C276 1.385 1_545 S
C277 C278 1.389 . S
C278 C277 1.389 . S
C278 C279 1.387 . S
C279 H264 0.930 . S
C279 C274 1.404 . S
C279 C278 1.387 . S
H280 C292 0.930 . S
H281 C294 0.930 . S
H282 C295 0.930 . S
H283 C299 0.959 . S
H284 C299 0.959 1_455 S
H285 C299 0.961 . S
H286 C300 0.960 . S
H287 C300 0.961 . S
H288 C300 0.959 . S
H289 C303 0.929 . S
H290 C304 0.931 . S
H291 C306 0.927 1_545 S
C292 H280 0.930 . S
C292 C293 1.399 . S
C292 C297 1.399 . S
C293 C292 1.399 . S
C293 C294 1.376 . S
C294 H281 0.930 . S
C294 C293 1.376 . S
C294 C295 1.388 . S
C295 H282 0.930 . S
C295 C294 1.388 . S
C295 C296 1.390 . S
C296 C295 1.390 . S
C296 C297 1.394 . S
C296 C302 1.465 . S
C297 C292 1.399 . S
C297 C296 1.394 . S
C297 C298 1.516 . S
C298 C297 1.516 . S
C298 C299 1.502 . S
C298 C300 1.561 . S
C298 C301 1.526 . S
C299 H283 0.959 . S
C299 H284 0.959 1_655 S
C299 H285 0.961 . S
C299 C298 1.502 . S
C300 H286 0.960 . S
C300 H287 0.961 . S
C300 H288 0.959 . S
C300 C298 1.561 . S
C301 C298 1.526 . S
C301 C302 1.396 . S
C301 C306 1.372 1_545 S
C302 C296 1.465 . S
C302 C301 1.396 . S
C302 C303 1.399 1_545 S
C303 H289 0.929 . S
C303 C302 1.399 1_565 S
C303 C304 1.385 . S
C304 H290 0.931 . S
C304 C303 1.385 . S
C304 C305 1.389 . S
C305 C304 1.389 . S
C305 C306 1.407 . S
C306 H291 0.927 1_565 S
C306 C301 1.372 1_565 S
C306 C305 1.407 . S
H307 C319 0.930 . S
H308 C321 0.930 . S
H309 C322 0.930 . S
H310 C326 0.959 . S
H311 C326 0.959 . S
H312 C326 0.961 . S
H313 C327 0.960 . S
H314 C327 0.961 . S
H315 C327 0.959 . S
H316 C330 0.929 . S
H317 C331 0.931 . S
H318 C333 0.930 . S
C319 H307 0.930 . S
C319 C320 1.399 . S
C319 C324 1.399 . S
C320 C319 1.399 . S
C320 C321 1.376 . S
C321 H308 0.930 . S
C321 C320 1.376 . S
C321 C322 1.388 . S
C322 H309 0.930 . S
C322 C321 1.388 . S
C322 C323 1.390 . S
C323 C322 1.390 . S
C323 C324 1.394 . S
C323 C329 1.465 . S
C324 C319 1.399 . S
C324 C323 1.394 . S
C324 C325 1.516 . S
C325 C324 1.516 . S
C325 C326 1.502 . S
C325 C327 1.561 . S
C325 C328 1.526 . S
C326 H310 0.959 . S
C326 H311 0.959 . S
C326 H312 0.961 . S
C326 C325 1.502 . S
C327 H313 0.960 . S
C327 H314 0.961 . S
C327 H315 0.959 . S
C327 C325 1.561 . S
C328 C325 1.526 . S
C328 C329 1.396 . S
C328 C333 1.390 . S
C329 C323 1.465 . S
C329 C328 1.396 . S
C329 C330 1.399 . S
C330 H316 0.929 . S
C330 C329 1.399 . S
C330 C331 1.385 . S
C331 H317 0.931 . S
C331 C330 1.385 . S
C331 C332 1.389 . S
C332 C331 1.389 . S
C332 C333 1.387 . S
C333 H318 0.930 . S
C333 C328 1.390 . S
C333 C332 1.387 . S
H334 C346 0.930 . S
H335 C348 0.930 . S
H336 C349 0.930 . S
H337 C353 0.959 . S
H338 C353 0.959 . S
H339 C353 0.961 . S
H340 C354 0.960 . S
H341 C354 0.961 . S
H342 C354 0.959 . S
H343 C357 0.929 . S
H344 C358 0.931 . S
H345 C360 0.930 . S
C346 H334 0.930 . S
C346 C347 1.399 . S
C346 C351 1.399 . S
C347 C346 1.399 . S
C347 C348 1.376 . S
C348 H335 0.930 . S
C348 C347 1.376 . S
C348 C349 1.388 . S
C349 H336 0.930 . S
C349 C348 1.388 . S
C349 C350 1.390 . S
C350 C349 1.390 . S
C350 C351 1.394 . S
C350 C356 1.465 . S
C351 C346 1.399 . S
C351 C350 1.394 . S
C351 C352 1.516 . S
C352 C351 1.516 . S
C352 C353 1.502 . S
C352 C354 1.561 . S
C352 C355 1.526 . S
C353 H337 0.959 . S
C353 H338 0.959 . S
C353 H339 0.961 . S
C353 C352 1.502 . S
C354 H340 0.960 . S
C354 H341 0.961 . S
C354 H342 0.959 . S
C354 C352 1.561 . S
C355 C352 1.526 . S
C355 C356 1.396 . S
C355 C360 1.390 . S
C356 C350 1.465 . S
C356 C355 1.396 . S
C356 C357 1.399 . S
C357 H343 0.929 . S
C357 C356 1.399 . S
C357 C358 1.385 . S
C358 H344 0.931 . S
C358 C357 1.385 . S
C358 C359 1.389 . S
C359 C358 1.389 . S
C359 C360 1.387 . S
C360 H345 0.930 . S
C360 C355 1.390 . S
C360 C359 1.387 . S
H361 C373 0.930 . S
H362 C375 0.930 . S
H363 C376 0.930 . S
H364 C380 0.959 . S
H365 C380 0.959 . S
H366 C380 0.969 . S
H367 C381 0.960 . S
H368 C381 0.961 1_565 S
H369 C381 0.959 . S
H370 C384 0.929 . S
H371 C385 0.931 . S
H372 C387 0.930 . S
C373 H361 0.930 . S
C373 C374 1.399 . S
C373 C378 1.399 . S
C374 C373 1.399 . S
C374 C375 1.376 . S
C375 H362 0.930 . S
C375 C374 1.376 . S
C375 C376 1.388 . S
C376 H363 0.930 . S
C376 C375 1.388 . S
C376 C377 1.390 . S
C377 C376 1.390 . S
C377 C378 1.394 . S
C377 C383 1.465 . S
C378 C373 1.399 . S
C378 C377 1.394 . S
C378 C379 1.516 . S
C379 C378 1.516 . S
C379 C380 1.502 1_545 S
C379 C381 1.561 . S
C379 C382 1.520 1_545 S
C380 H364 0.959 . S
C380 H365 0.959 . S
C380 H366 0.969 . S
C380 C379 1.502 1_565 S
C381 H367 0.960 . S
C381 H368 0.961 1_545 S
C381 H369 0.959 . S
C381 C379 1.561 . S
C382 C379 1.520 1_565 S
C382 C383 1.386 1_565 S
C382 C387 1.404 . S
C383 C377 1.465 . S
C383 C382 1.386 1_545 S
C383 C384 1.399 . S
C384 H370 0.929 . S
C384 C383 1.399 . S
C384 C385 1.385 1_545 S
C385 H371 0.931 . S
C385 C384 1.385 1_565 S
C385 C386 1.389 . S
C386 C385 1.389 . S
C386 C387 1.387 . S
C387 H372 0.930 . S
C387 C382 1.404 . S
C387 C386 1.387 . S
H388 C400 0.930 . S
H389 C402 0.930 . S
H390 C403 0.930 . S
H391 C407 0.959 . S
H392 C407 0.959 . S
H393 C407 0.961 . S
H394 C408 0.960 . S
H395 C408 0.961 . S
H396 C408 0.959 . S
H397 C411 0.929 . S
H398 C412 0.931 . S
H399 C414 0.930 . S
C400 H388 0.930 . S
C400 C401 1.399 1_554 S
C400 C405 1.399 . S
C401 C400 1.399 1_556 S
C401 C402 1.376 . S
C402 H389 0.930 . S
C402 C401 1.376 . S
C402 C403 1.388 1_556 S
C403 H390 0.930 . S
C403 C402 1.388 1_554 S
C403 C404 1.390 . S
C404 C403 1.390 . S
C404 C405 1.394 . S
C404 C410 1.465 . S
C405 C400 1.399 . S
C405 C404 1.394 . S
C405 C406 1.516 . S
C406 C405 1.516 . S
C406 C407 1.502 . S
C406 C408 1.561 . S
C406 C409 1.526 . S
C407 H391 0.959 . S
C407 H392 0.959 . S
C407 H393 0.961 . S
C407 C406 1.502 . S
C408 H394 0.960 . S
C408 H395 0.961 . S
C408 H396 0.959 . S
C408 C406 1.561 . S
C409 C406 1.526 . S
C409 C410 1.396 . S
C409 C414 1.390 . S
C410 C404 1.465 . S
C410 C409 1.396 . S
C410 C411 1.399 . S
C411 H397 0.929 . S
C411 C410 1.399 . S
C411 C412 1.385 . S
C412 H398 0.931 . S
C412 C411 1.385 . S
C412 C413 1.389 . S
C413 C412 1.389 . S
C413 C414 1.387 . S
C414 H399 0.930 . S
C414 C409 1.390 . S
C414 C413 1.387 . S
H415 C427 0.930 . S
H416 C429 0.930 . S
H417 C430 0.930 . S
H418 C434 0.959 . S
H419 C434 0.959 . S
H420 C434 0.961 . S
H421 C435 0.960 . S
H422 C435 0.961 . S
H423 C435 0.959 . S
H424 C438 0.929 . S
H425 C439 0.931 . S
H426 C441 0.930 . S
C427 H415 0.930 . S
C427 C428 1.399 . S
C427 C432 1.399 . S
C428 C427 1.399 . S
C428 C429 1.376 . S
C429 H416 0.930 . S
C429 C428 1.376 . S
C429 C430 1.388 . S
C430 H417 0.930 . S
C430 C429 1.388 . S
C430 C431 1.390 . S
C431 C430 1.390 . S
C431 C432 1.394 . S
C431 C437 1.465 . S
C432 C427 1.399 . S
C432 C431 1.394 . S
C432 C433 1.516 . S
C433 C432 1.516 . S
C433 C434 1.502 . S
C433 C435 1.561 . S
C433 C436 1.526 . S
C434 H418 0.959 . S
C434 H419 0.959 . S
C434 H420 0.961 . S
C434 C433 1.502 . S
C435 H421 0.960 . S
C435 H422 0.961 . S
C435 H423 0.959 . S
C435 C433 1.561 . S
C436 C433 1.526 . S
C436 C437 1.396 . S
C436 C441 1.390 . S
C437 C431 1.465 . S
C437 C436 1.396 . S
C437 C438 1.399 . S
C438 H424 0.929 . S
C438 C437 1.399 . S
C438 C439 1.385 . S
C439 H425 0.931 . S
C439 C438 1.385 . S
C439 C440 1.389 . S
C440 C439 1.389 . S
C440 C441 1.387 . S
C441 H426 0.930 . S
C441 C436 1.390 . S
C441 C440 1.387 . S
H442 C454 0.930 . S
H443 C456 0.930 . S
H444 C457 0.930 . S
H445 C461 0.959 . S
H446 C461 0.959 . S
H447 C461 0.961 . S
H448 C462 0.960 . S
H449 C462 0.961 . S
H450 C462 0.959 . S
H451 C465 0.929 . S
H452 C466 0.931 . S
H453 C468 0.930 . S
C454 H442 0.930 . S
C454 C455 1.399 . S
C454 C459 1.399 1_554 S
C455 C454 1.399 . S
C455 C456 1.376 . S
C456 H443 0.930 . S
C456 C455 1.376 . S
C456 C457 1.388 1_554 S
C457 H444 0.930 . S
C457 C456 1.388 1_556 S
C457 C458 1.390 . S
C458 C457 1.390 . S
C458 C459 1.394 . S
C458 C464 1.465 . S
C459 C454 1.399 1_556 S
C459 C458 1.394 . S
C459 C460 1.516 . S
C460 C459 1.516 . S
C460 C461 1.502 . S
C460 C462 1.561 . S
C460 C463 1.526 . S
C461 H445 0.959 . S
C461 H446 0.959 . S
C461 H447 0.961 . S
C461 C460 1.502 . S
C462 H448 0.960 . S
C462 H449 0.961 . S
C462 H450 0.959 . S
C462 C460 1.561 . S
C463 C460 1.526 . S
C463 C464 1.396 . S
C463 C468 1.390 . S
C464 C458 1.465 . S
C464 C463 1.396 . S
C464 C465 1.399 . S
C465 H451 0.929 . S
C465 C464 1.399 . S
C465 C466 1.385 . S
C466 H452 0.931 . S
C466 C465 1.385 . S
C466 C467 1.389 . S
C467 C466 1.389 . S
C467 C468 1.387 . S
C468 H453 0.930 . S
C468 C463 1.390 . S
C468 C467 1.387 . S
H469 C481 0.930 . S
H470 C483 0.930 . S
H471 C484 0.930 . S
H472 C488 0.959 . S
H473 C488 0.959 1_455 S
H474 C488 0.961 1_455 S
H475 C489 0.960 . S
H476 C489 0.961 1_455 S
H477 C489 0.959 . S
H478 C492 0.929 . S
H479 C493 0.931 . S
H480 C495 0.930 1_455 S
C481 H469 0.930 . S
C481 C482 1.399 . S
C481 C486 1.399 . S
C482 C481 1.399 . S
C482 C483 1.376 . S
C483 H470 0.930 . S
C483 C482 1.376 . S
C483 C484 1.388 . S
C484 H471 0.930 . S
C484 C483 1.388 . S
C484 C485 1.390 . S
C485 C484 1.390 . S
C485 C486 1.394 . S
C485 C491 1.465 . S
C486 C481 1.399 . S
C486 C485 1.394 . S
C486 C487 1.516 . S
C487 C486 1.516 . S
C487 C488 1.502 . S
C487 C489 1.561 . S
C487 C490 1.526 . S
C488 H472 0.959 . S
C488 H473 0.959 1_655 S
C488 H474 0.961 1_655 S
C488 C487 1.502 . S
C489 H475 0.960 . S
C489 H476 0.961 1_655 S
C489 H477 0.959 . S
C489 C487 1.561 . S
C490 C487 1.526 . S
C490 C491 1.396 . S
C490 C495 1.390 . S
C491 C485 1.465 . S
C491 C490 1.396 . S
C491 C492 1.399 . S
C492 H478 0.929 . S
C492 C491 1.399 . S
C492 C493 1.385 . S
C493 H479 0.931 . S
C493 C492 1.385 . S
C493 C494 1.389 . S
C494 C493 1.389 . S
C494 C495 1.387 . S
C495 H480 0.930 1_655 S
C495 C490 1.390 . S
C495 C494 1.387 . S
H496 C508 0.930 . S
H497 C510 0.930 1_554 S
H498 C511 0.930 . S
H499 C515 0.959 . S
H500 C515 0.959 . S
H501 C515 0.961 . S
H502 C516 0.960 . S
H503 C516 0.961 . S
H504 C516 0.959 . S
H505 C519 0.929 . S
H506 C520 0.931 . S
H507 C522 0.930 . S
C508 H496 0.930 . S
C508 C509 1.399 1_556 S
C508 C513 1.399 . S
C509 C508 1.399 1_554 S
C509 C510 1.376 1_554 S
C510 H497 0.930 1_556 S
C510 C509 1.376 1_556 S
C510 C511 1.388 . S
C511 H498 0.930 . S
C511 C510 1.388 . S
C511 C512 1.390 . S
C512 C511 1.390 . S
C512 C513 1.394 . S
C512 C518 1.465 . S
C513 C508 1.399 . S
C513 C512 1.394 . S
C513 C514 1.516 . S
C514 C513 1.516 . S
C514 C515 1.502 . S
C514 C516 1.561 . S
C514 C517 1.526 . S
C515 H499 0.959 . S
C515 H500 0.959 . S
C515 H501 0.961 . S
C515 C514 1.502 . S
C516 H502 0.960 . S
C516 H503 0.961 . S
C516 H504 0.959 . S
C516 C514 1.561 . S
C517 C514 1.526 . S
C517 C518 1.396 . S
C517 C522 1.390 . S
C518 C512 1.465 . S
C518 C517 1.396 . S
C518 C519 1.399 . S
C519 H505 0.929 . S
C519 C518 1.399 . S
C519 C520 1.385 . S
C520 H506 0.931 . S
C520 C519 1.385 . S
C520 C521 1.389 . S
C521 C520 1.389 . S
C521 C522 1.387 . S
C522 H507 0.930 . S
C522 C517 1.390 . S
C522 C521 1.387 . S
H523 C535 0.930 . S
H524 C537 0.930 . S
H525 C538 0.930 . S
H526 C542 0.959 . S
H527 C542 0.959 . S
H528 C542 0.961 . S
H529 C543 0.960 . S
H530 C543 0.961 . S
H531 C543 0.959 . S
H532 C546 0.929 . S
H533 C547 0.931 . S
H534 C549 0.930 . S
C535 H523 0.930 . S
C535 C536 1.399 . S
C535 C540 1.399 . S
C536 C535 1.399 . S
C536 C537 1.376 . S
C537 H524 0.930 . S
C537 C536 1.376 . S
C537 C538 1.388 . S
C538 H525 0.930 . S
C538 C537 1.388 . S
C538 C539 1.390 . S
C539 C538 1.390 . S
C539 C540 1.394 . S
C539 C545 1.465 . S
C540 C535 1.399 . S
C540 C539 1.394 . S
C540 C541 1.516 . S
C541 C540 1.516 . S
C541 C542 1.502 . S
C541 C543 1.561 . S
C541 C544 1.526 . S
C542 H526 0.959 . S
C542 H527 0.959 . S
C542 H528 0.961 . S
C542 C541 1.502 . S
C543 H529 0.960 . S
C543 H530 0.961 . S
C543 H531 0.959 . S
C543 C541 1.561 . S
C544 C541 1.526 . S
C544 C545 1.396 . S
C544 C549 1.390 . S
C545 C539 1.465 . S
C545 C544 1.396 . S
C545 C546 1.399 . S
C546 H532 0.929 . S
C546 C545 1.399 . S
C546 C547 1.385 . S
C547 H533 0.931 . S
C547 C546 1.385 . S
C547 C548 1.389 . S
C548 C547 1.389 . S
C548 C549 1.387 . S
C549 H534 0.930 . S
C549 C544 1.390 . S
C549 C548 1.387 . S
H550 C562 0.930 . S
H551 C564 0.930 1_556 S
H552 C565 0.930 . S
H553 C569 0.959 . S
H554 C569 0.959 . S
H555 C569 0.961 . S
H556 C570 0.960 . S
H557 C570 0.961 . S
H558 C570 0.959 . S
H559 C573 0.929 . S
H560 C574 0.931 . S
H561 C576 0.930 . S
C562 H550 0.930 . S
C562 C563 1.399 1_554 S
C562 C567 1.399 . S
C563 C562 1.399 1_556 S
C563 C564 1.376 1_556 S
C564 H551 0.930 1_554 S
C564 C563 1.376 1_554 S
C564 C565 1.388 . S
C565 H552 0.930 . S
C565 C564 1.388 . S
C565 C566 1.390 . S
C566 C565 1.390 . S
C566 C567 1.394 . S
C566 C572 1.465 . S
C567 C562 1.399 . S
C567 C566 1.394 . S
C567 C568 1.516 . S
C568 C567 1.516 . S
C568 C569 1.502 . S
C568 C570 1.561 . S
C568 C571 1.526 . S
C569 H553 0.959 . S
C569 H554 0.959 . S
C569 H555 0.961 . S
C569 C568 1.502 . S
C570 H556 0.960 . S
C570 H557 0.961 . S
C570 H558 0.959 . S
C570 C568 1.561 . S
C571 C568 1.526 . S
C571 C572 1.396 . S
C571 C576 1.390 . S
C572 C566 1.465 . S
C572 C571 1.396 . S
C572 C573 1.399 . S
C573 H559 0.929 . S
C573 C572 1.399 . S
C573 C574 1.385 . S
C574 H560 0.931 . S
C574 C573 1.385 . S
C574 C575 1.389 . S
C575 C574 1.389 . S
C575 C576 1.387 . S
C576 H561 0.930 . S
C576 C571 1.390 . S
C576 C575 1.387 . S
H577 C589 0.930 . S
H578 C591 0.930 . S
H579 C592 0.930 . S
H580 C596 0.959 . S
H581 C596 0.959 . S
H582 C596 0.961 . S
H583 C597 0.960 . S
H584 C597 0.961 . S
H585 C597 0.959 . S
H586 C600 0.929 . S
H587 C601 0.931 . S
H588 C603 0.930 . S
C589 H577 0.930 . S
C589 C590 1.399 . S
C589 C594 1.399 . S
C590 C589 1.399 . S
C590 C591 1.376 . S
C591 H578 0.930 . S
C591 C590 1.376 . S
C591 C592 1.388 . S
C592 H579 0.930 . S
C592 C591 1.388 . S
C592 C593 1.390 . S
C593 C592 1.390 . S
C593 C594 1.394 . S
C593 C599 1.465 . S
C594 C589 1.399 . S
C594 C593 1.394 . S
C594 C595 1.516 . S
C595 C594 1.516 . S
C595 C596 1.502 . S
C595 C597 1.561 . S
C595 C598 1.526 . S
C596 H580 0.959 . S
C596 H581 0.959 . S
C596 H582 0.961 . S
C596 C595 1.502 . S
C597 H583 0.960 . S
C597 H584 0.961 . S
C597 H585 0.959 . S
C597 C595 1.561 . S
C598 C595 1.526 . S
C598 C599 1.396 . S
C598 C603 1.390 . S
C599 C593 1.465 . S
C599 C598 1.396 . S
C599 C600 1.399 . S
C600 H586 0.929 . S
C600 C599 1.399 . S
C600 C601 1.385 . S
C601 H587 0.931 . S
C601 C600 1.385 . S
C601 C602 1.389 . S
C602 C601 1.389 . S
C602 C603 1.387 . S
C603 H588 0.930 . S
C603 C598 1.390 . S
C603 C602 1.387 . S
H604 C616 0.930 . S
H605 C618 0.930 . S
H606 C619 0.930 . S
H607 C623 0.959 . S
H608 C623 0.959 . S
H609 C623 0.961 . S
H610 C624 0.960 . S
H611 C624 0.961 . S
H612 C624 0.959 . S
H613 C627 0.929 . S
H614 C628 0.931 . S
H615 C630 0.930 . S
C616 H604 0.930 . S
C616 C617 1.399 . S
C616 C621 1.399 . S
C617 C616 1.399 . S
C617 C618 1.376 . S
C618 H605 0.930 . S
C618 C617 1.376 . S
C618 C619 1.388 . S
C619 H606 0.930 . S
C619 C618 1.388 . S
C619 C620 1.390 . S
C620 C619 1.390 . S
C620 C621 1.394 . S
C620 C626 1.465 . S
C621 C616 1.399 . S
C621 C620 1.394 . S
C621 C622 1.516 . S
C622 C621 1.516 . S
C622 C623 1.502 . S
C622 C624 1.561 . S
C622 C625 1.526 . S
C623 H607 0.959 . S
C623 H608 0.959 . S
C623 H609 0.961 . S
C623 C622 1.502 . S
C624 H610 0.960 . S
C624 H611 0.961 . S
C624 H612 0.959 . S
C624 C622 1.561 . S
C625 C622 1.526 . S
C625 C626 1.396 . S
C625 C630 1.390 . S
C626 C620 1.465 . S
C626 C625 1.396 . S
C626 C627 1.399 . S
C627 H613 0.929 . S
C627 C626 1.399 . S
C627 C628 1.385 . S
C628 H614 0.931 . S
C628 C627 1.385 . S
C628 C629 1.389 . S
C629 C628 1.389 . S
C629 C630 1.387 . S
C630 H615 0.930 . S
C630 C625 1.390 . S
C630 C629 1.387 . S
H631 C643 0.930 . S
H632 C645 0.930 . S
H633 C646 0.930 . S
H634 C650 0.959 . S
H635 C650 0.959 . S
H636 C650 0.961 . S
H637 C651 0.960 . S
H638 C651 0.961 . S
H639 C651 0.959 . S
H640 C654 0.929 . S
H641 C655 0.931 . S
H642 C657 0.930 . S
C643 H631 0.930 . S
C643 C644 1.399 . S
C643 C648 1.399 . S
C644 C643 1.399 . S
C644 C645 1.376 . S
C645 H632 0.930 . S
C645 C644 1.376 . S
C645 C646 1.388 . S
C646 H633 0.930 . S
C646 C645 1.388 . S
C646 C647 1.390 . S
C647 C646 1.390 . S
C647 C648 1.394 . S
C647 C653 1.465 . S
C648 C643 1.399 . S
C648 C647 1.394 . S
C648 C649 1.516 . S
C649 C648 1.516 . S
C649 C650 1.502 . S
C649 C651 1.561 . S
C649 C652 1.526 . S
C650 H634 0.959 . S
C650 H635 0.959 . S
C650 H636 0.961 . S
C650 C649 1.502 . S
C651 H637 0.960 . S
C651 H638 0.961 . S
C651 H639 0.959 . S
C651 C649 1.561 . S
C652 C649 1.526 . S
C652 C653 1.396 . S
C652 C657 1.390 . S
C653 C647 1.465 . S
C653 C652 1.396 . S
C653 C654 1.399 . S
C654 H640 0.929 . S
C654 C653 1.399 . S
C654 C655 1.385 . S
C655 H641 0.931 . S
C655 C654 1.385 . S
C655 C656 1.389 . S
C656 C655 1.389 . S
C656 C657 1.387 . S
C657 H642 0.930 . S
C657 C652 1.390 . S
C657 C656 1.387 . S
H658 C670 0.930 . S
H659 C672 0.930 . S
H660 C673 0.930 . S
H661 C677 0.959 . S
H662 C677 0.959 . S
H663 C677 0.961 . S
H664 C678 0.960 . S
H665 C678 0.961 . S
H666 C678 0.959 . S
H667 C681 0.929 . S
H668 C682 0.931 . S
H669 C684 0.930 . S
C670 H658 0.930 . S
C670 C671 1.399 . S
C670 C675 1.399 . S
C671 C670 1.399 . S
C671 C672 1.376 . S
C672 H659 0.930 . S
C672 C671 1.376 . S
C672 C673 1.388 . S
C673 H660 0.930 . S
C673 C672 1.388 . S
C673 C674 1.390 . S
C674 C673 1.390 . S
C674 C675 1.394 . S
C674 C680 1.465 . S
C675 C670 1.399 . S
C675 C674 1.394 . S
C675 C676 1.516 . S
C676 C675 1.516 . S
C676 C677 1.502 . S
C676 C678 1.561 . S
C676 C679 1.526 . S
C677 H661 0.959 . S
C677 H662 0.959 . S
C677 H663 0.961 . S
C677 C676 1.502 . S
C678 H664 0.960 . S
C678 H665 0.961 . S
C678 H666 0.959 . S
C678 C676 1.561 . S
C679 C676 1.526 . S
C679 C680 1.396 . S
C679 C684 1.390 . S
C680 C674 1.465 . S
C680 C679 1.396 . S
C680 C681 1.399 . S
C681 H667 0.929 . S
C681 C680 1.399 . S
C681 C682 1.385 . S
C682 H668 0.931 . S
C682 C681 1.385 . S
C682 C683 1.389 . S
C683 C682 1.389 . S
C683 C684 1.387 . S
C684 H669 0.930 . S
C684 C679 1.390 . S
C684 C683 1.387 . S
H685 C697 0.930 . S
H686 C699 0.930 . S
H687 C700 0.930 . S
H688 C704 0.959 . S
H689 C704 0.959 . S
H690 C704 0.961 . S
H691 C705 0.960 . S
H692 C705 0.961 . S
H693 C705 0.959 . S
H694 C708 0.929 . S
H695 C709 0.931 . S
H696 C711 0.930 . S
C697 H685 0.930 . S
C697 C698 1.399 . S
C697 C702 1.399 . S
C698 C697 1.399 . S
C698 C699 1.376 . S
C699 H686 0.930 . S
C699 C698 1.376 . S
C699 C700 1.388 . S
C700 H687 0.930 . S
C700 C699 1.388 . S
C700 C701 1.390 . S
C701 C700 1.390 . S
C701 C702 1.394 . S
C701 C707 1.465 . S
C702 C697 1.399 . S
C702 C701 1.394 . S
C702 C703 1.516 . S
C703 C702 1.516 . S
C703 C704 1.502 . S
C703 C705 1.561 . S
C703 C706 1.526 . S
C704 H688 0.959 . S
C704 H689 0.959 . S
C704 H690 0.961 . S
C704 C703 1.502 . S
C705 H691 0.960 . S
C705 H692 0.961 . S
C705 H693 0.959 . S
C705 C703 1.561 . S
C706 C703 1.526 . S
C706 C707 1.396 . S
C706 C711 1.390 . S
C707 C701 1.465 . S
C707 C706 1.396 . S
C707 C708 1.399 . S
C708 H694 0.929 . S
C708 C707 1.399 . S
C708 C709 1.385 . S
C709 H695 0.931 . S
C709 C708 1.385 . S
C709 C710 1.389 . S
C710 C709 1.389 . S
C710 C711 1.387 . S
C711 H696 0.930 . S
C711 C706 1.390 . S
C711 C710 1.387 . S
H712 C724 0.930 . S
H713 C726 0.930 . S
H714 C727 0.930 . S
H715 C731 0.959 . S
H716 C731 0.959 . S
H717 C731 0.961 . S
H718 C732 0.960 . S
H719 C732 0.961 . S
H720 C732 0.959 . S
H721 C735 0.929 . S
H722 C736 0.931 . S
H723 C738 0.930 . S
C724 H712 0.930 . S
C724 C725 1.399 . S
C724 C729 1.399 . S
C725 C724 1.399 . S
C725 C726 1.376 . S
C726 H713 0.930 . S
C726 C725 1.376 . S
C726 C727 1.388 . S
C727 H714 0.930 . S
C727 C726 1.388 . S
C727 C728 1.390 . S
C728 C727 1.390 . S
C728 C729 1.394 . S
C728 C734 1.465 . S
C729 C724 1.399 . S
C729 C728 1.394 . S
C729 C730 1.516 . S
C730 C729 1.516 . S
C730 C731 1.502 . S
C730 C732 1.561 . S
C730 C733 1.526 . S
C731 H715 0.959 . S
C731 H716 0.959 . S
C731 H717 0.961 . S
C731 C730 1.502 . S
C732 H718 0.960 . S
C732 H719 0.961 . S
C732 H720 0.959 . S
C732 C730 1.561 . S
C733 C730 1.526 . S
C733 C734 1.396 . S
C733 C738 1.390 . S
C734 C728 1.465 . S
C734 C733 1.396 . S
C734 C735 1.399 . S
C735 H721 0.929 . S
C735 C734 1.399 . S
C735 C736 1.385 . S
C736 H722 0.931 . S
C736 C735 1.385 . S
C736 C737 1.389 . S
C737 C736 1.389 . S
C737 C738 1.387 . S
C738 H723 0.930 . S
C738 C733 1.390 . S
C738 C737 1.387 . S
H739 C751 0.930 . S
H740 C753 0.930 . S
H741 C754 0.930 . S
H742 C758 0.959 . S
H743 C758 0.959 . S
H744 C758 0.961 . S
H745 C759 0.960 . S
H746 C759 0.961 . S
H747 C759 0.959 . S
H748 C762 0.929 . S
H749 C763 0.931 . S
H750 C765 0.930 . S
C751 H739 0.930 . S
C751 C752 1.399 . S
C751 C756 1.399 . S
C752 C751 1.399 . S
C752 C753 1.376 . S
C753 H740 0.930 . S
C753 C752 1.376 . S
C753 C754 1.388 . S
C754 H741 0.930 . S
C754 C753 1.388 . S
C754 C755 1.390 . S
C755 C754 1.390 . S
C755 C756 1.394 . S
C755 C761 1.465 . S
C756 C751 1.399 . S
C756 C755 1.394 . S
C756 C757 1.516 . S
C757 C756 1.516 . S
C757 C758 1.502 . S
C757 C759 1.561 . S
C757 C760 1.526 . S
C758 H742 0.959 . S
C758 H743 0.959 . S
C758 H744 0.961 . S
C758 C757 1.502 . S
C759 H745 0.960 . S
C759 H746 0.961 . S
C759 H747 0.959 . S
C759 C757 1.561 . S
C760 C757 1.526 . S
C760 C761 1.396 . S
C760 C765 1.390 . S
C761 C755 1.465 . S
C761 C760 1.396 . S
C761 C762 1.399 . S
C762 H748 0.929 . S
C762 C761 1.399 . S
C762 C763 1.385 . S
C763 H749 0.931 . S
C763 C762 1.385 . S
C763 C764 1.389 . S
C764 C763 1.389 . S
C764 C765 1.387 . S
C765 H750 0.930 . S
C765 C760 1.390 . S
C765 C764 1.387 . S
H766 C778 0.930 . S
H767 C780 0.930 . S
H768 C781 0.930 . S
H769 C785 0.959 . S
H770 C785 0.959 . S
H771 C785 0.961 . S
H772 C786 0.960 . S
H773 C786 0.961 . S
H774 C786 0.959 . S
H775 C789 0.929 . S
H776 C790 0.931 . S
H777 C792 0.930 . S
C778 H766 0.930 . S
C778 C779 1.399 . S
C778 C783 1.399 . S
C779 C778 1.399 . S
C779 C780 1.376 . S
C780 H767 0.930 . S
C780 C779 1.376 . S
C780 C781 1.388 . S
C781 H768 0.930 . S
C781 C780 1.388 . S
C781 C782 1.390 . S
C782 C781 1.390 . S
C782 C783 1.394 . S
C782 C788 1.465 . S
C783 C778 1.399 . S
C783 C782 1.394 . S
C783 C784 1.516 . S
C784 C783 1.516 . S
C784 C785 1.502 . S
C784 C786 1.561 . S
C784 C787 1.526 . S
C785 H769 0.959 . S
C785 H770 0.959 . S
C785 H771 0.961 . S
C785 C784 1.502 . S
C786 H772 0.960 . S
C786 H773 0.961 . S
C786 H774 0.959 . S
C786 C784 1.561 . S
C787 C784 1.526 . S
C787 C788 1.396 . S
C787 C792 1.390 . S
C788 C782 1.465 . S
C788 C787 1.396 . S
C788 C789 1.399 . S
C789 H775 0.929 . S
C789 C788 1.399 . S
C789 C790 1.385 . S
C790 H776 0.931 . S
C790 C789 1.385 . S
C790 C791 1.389 . S
C791 C790 1.389 . S
C791 C792 1.387 . S
C792 H777 0.930 . S
C792 C787 1.390 . S
C792 C791 1.387 . S
H793 C805 0.930 . S
H794 C807 0.930 . S
H795 C808 0.930 . S
H796 C812 0.959 . S
H797 C812 0.959 . S
H798 C812 0.961 . S
H799 C813 0.960 . S
H800 C813 0.961 . S
H801 C813 0.959 . S
H802 C816 0.929 . S
H803 C817 0.931 . S
H804 C819 0.930 . S
C805 H793 0.930 . S
C805 C806 1.399 . S
C805 C810 1.399 . S
C806 C805 1.399 . S
C806 C807 1.376 . S
C807 H794 0.930 . S
C807 C806 1.376 . S
C807 C808 1.388 . S
C808 H795 0.930 . S
C808 C807 1.388 . S
C808 C809 1.390 . S
C809 C808 1.390 . S
C809 C810 1.394 . S
C809 C815 1.465 . S
C810 C805 1.399 . S
C810 C809 1.394 . S
C810 C811 1.516 . S
C811 C810 1.516 . S
C811 C812 1.502 . S
C811 C813 1.561 . S
C811 C814 1.526 . S
C812 H796 0.959 . S
C812 H797 0.959 . S
C812 H798 0.961 . S
C812 C811 1.502 . S
C813 H799 0.960 . S
C813 H800 0.961 . S
C813 H801 0.959 . S
C813 C811 1.561 . S
C814 C811 1.526 . S
C814 C815 1.396 . S
C814 C819 1.390 . S
C815 C809 1.465 . S
C815 C814 1.396 . S
C815 C816 1.399 . S
C816 H802 0.929 . S
C816 C815 1.399 . S
C816 C817 1.385 . S
C817 H803 0.931 . S
C817 C816 1.385 . S
C817 C818 1.389 . S
C818 C817 1.389 . S
C818 C819 1.387 . S
C819 H804 0.930 . S
C819 C814 1.390 . S
C819 C818 1.387 . S
C185 C73 1.358 . S
C197 C104 1.335 . S
C224 C112 1.491 . S
C212 C84 1.524 . S
C251 C116 1.378 . S
C239 C51 1.374 . S
C266 C62 1.545 . S
C278 C92 1.477 . S
C305 C133 1.389 . S
C293 C29 1.500 . S
C332 C167 1.087 . S
C320 C38 0.972 . S
C347 C7 1.479 . S
C359 C155 1.454 . S
C374 C16 1.154 . S
C386 C137 1.214 . S
C413 C91 1.393 . S
C401 C18 1.564 . S
C440 C125 1.428 . S
C428 C5 1.416 . S
C467 C129 1.471 . S
C455 C40 1.533 . S
C494 C107 1.435 . S
C482 C27 1.433 . S
C521 C146 1.200 . S
C509 C60 1.057 . S
C536 C49 1.237 . S
C548 C154 1.217 . S
C575 C170 1.192 . S
C563 C82 1.067 . S
C590 C71 1.241 . S
C602 C150 1.213 . S
C629 C95 1.495 . S
C617 C8 1.624 . S
C656 C113 1.379 . S
C644 C19 1.462 . S
C671 C30 1.613 . S
C683 C128 1.380 . S
C710 C108 1.316 . S
C698 C41 1.457 . S
C737 C134 1.249 . S
C725 C52 1.416 . S
C752 C63 1.530 . S
C764 C158 1.338 . S
C779 C74 1.378 . S
C791 C171 1.302 . S
C806 C85 1.525 . S
C818 C149 1.345 . S
