# Generated by pormake.
# Topology apo, (3,6)-cn, num edge types: 1
# Building blocks:
#     Node 0, Type 0, BuildingBlock: WUSLED_clean_sbu_0, # of connection points: 3
#     Node 1, Type 0, BuildingBlock: WUSLED_clean_sbu_0, # of connection points: 3
#     Node 2, Type 0, BuildingBlock: WUSLED_clean_sbu_0, # of connection points: 3
#     Node 3, Type 0, BuildingBlock: WUSLED_clean_sbu_0, # of connection points: 3
#     Node 4, Type 0, BuildingBlock: WUSLED_clean_sbu_0, # of connection points: 3
#     Node 5, Type 0, BuildingBlock: WUSLED_clean_sbu_0, # of connection points: 3
#     Node 6, Type 0, BuildingBlock: WUSLED_clean_sbu_0, # of connection points: 3
#     Node 7, Type 0, BuildingBlock: WUSLED_clean_sbu_0, # of connection points: 3
#     Node 8, Type 1, BuildingBlock: KUMJIN_clean_sbu_1, # of connection points: 6
#     Node 9, Type 1, BuildingBlock: KUMJIN_clean_sbu_1, # of connection points: 6
#     Node 10, Type 1, BuildingBlock: KUMJIN_clean_sbu_1, # of connection points: 6
#     Node 11, Type 1, BuildingBlock: KUMJIN_clean_sbu_1, # of connection points: 6
#     Edge 12, Type (0, 1), BuildingBlock: XIVTED_clean_linker_0, # of connection points: 2
#     Edge 13, Type (0, 1), BuildingBlock: XIVTED_clean_linker_0, # of connection points: 2
#     Edge 14, Type (0, 1), BuildingBlock: XIVTED_clean_linker_0, # of connection points: 2
#     Edge 15, Type (0, 1), BuildingBlock: XIVTED_clean_linker_0, # of connection points: 2
#     Edge 16, Type (0, 1), BuildingBlock: XIVTED_clean_linker_0, # of connection points: 2
#     Edge 17, Type (0, 1), BuildingBlock: XIVTED_clean_linker_0, # of connection points: 2
#     Edge 18, Type (0, 1), BuildingBlock: XIVTED_clean_linker_0, # of connection points: 2
#     Edge 19, Type (0, 1), BuildingBlock: XIVTED_clean_linker_0, # of connection points: 2
#     Edge 20, Type (0, 1), BuildingBlock: XIVTED_clean_linker_0, # of connection points: 2
#     Edge 21, Type (0, 1), BuildingBlock: XIVTED_clean_linker_0, # of connection points: 2
#     Edge 22, Type (0, 1), BuildingBlock: XIVTED_clean_linker_0, # of connection points: 2
#     Edge 23, Type (0, 1), BuildingBlock: XIVTED_clean_linker_0, # of connection points: 2
#     Edge 24, Type (0, 1), BuildingBlock: XIVTED_clean_linker_0, # of connection points: 2
#     Edge 25, Type (0, 1), BuildingBlock: XIVTED_clean_linker_0, # of connection points: 2
#     Edge 26, Type (0, 1), BuildingBlock: XIVTED_clean_linker_0, # of connection points: 2
#     Edge 27, Type (0, 1), BuildingBlock: XIVTED_clean_linker_0, # of connection points: 2
#     Edge 28, Type (0, 1), BuildingBlock: XIVTED_clean_linker_0, # of connection points: 2
#     Edge 29, Type (0, 1), BuildingBlock: XIVTED_clean_linker_0, # of connection points: 2
#     Edge 30, Type (0, 1), BuildingBlock: XIVTED_clean_linker_0, # of connection points: 2
#     Edge 31, Type (0, 1), BuildingBlock: XIVTED_clean_linker_0, # of connection points: 2
#     Edge 32, Type (0, 1), BuildingBlock: XIVTED_clean_linker_0, # of connection points: 2
#     Edge 33, Type (0, 1), BuildingBlock: XIVTED_clean_linker_0, # of connection points: 2
#     Edge 34, Type (0, 1), BuildingBlock: XIVTED_clean_linker_0, # of connection points: 2
#     Edge 35, Type (0, 1), BuildingBlock: XIVTED_clean_linker_0, # of connection points: 2
# Relax obj value: 0.010
# Max RMSD: 0.098
# Mean RMSD: 0.075
data_MOF--net-apo--node1-WUSLED_clean_sbu_0--node2-KUMJIN_clean_sbu_1--edge1-XIVTED_clean_linker_0
_symmetry_space_group_name_H-M    P1
_symmetry_Int_Tables_number       1
_symmetry_cell_setting            triclinic
loop_
_symmetry_equiv_pos_as_xyz
'x, y, z'
_cell_length_a     31.562042
_cell_length_b     55.423286
_cell_length_c     66.53983
_cell_angle_alpha  90.253461
_cell_angle_beta   89.997117
_cell_angle_gamma 90.208787
loop_
_atom_site_label
_atom_site_type_symbol
_atom_site_fract_x
_atom_site_fract_y
_atom_site_fract_z
_atom_type_partial_charge
C0 C 0.31315 0.43081 0.3781 0.0
C1 C 0.30896 0.45364 0.38717 0.0
C2 C 0.35114 0.47184 0.36051 0.0
C3 C 0.32765 0.47399 0.3784 0.0
C4 C 0.35573 0.44889 0.35169 0.0
C5 C 0.33684 0.42863 0.36037 0.0
U6 U 0.28485 0.38789 0.42138 0.0
O7 O 0.22477 0.36869 0.42719 0.0
O8 O 0.2832 0.34827 0.42184 0.0
C9 C 0.24171 0.34746 0.42365 0.0
C10 C 0.29236 0.40912 0.38638 0.0
C11 C 0.21905 0.33209 0.40892 0.0
C12 C 0.21495 0.31212 0.37631 0.0
C13 C 0.23626 0.32728 0.38984 0.0
C14 C 0.15817 0.30699 0.40042 0.0
C15 C 0.17577 0.30168 0.38149 0.0
C16 C 0.17971 0.32198 0.41402 0.0
C17 C 0.32743 0.40232 0.47448 0.0
C18 C 0.31243 0.37894 0.50448 0.0
C19 C 0.36208 0.41234 0.50602 0.0
C20 C 0.35551 0.41672 0.4856 0.0
C21 C 0.3406 0.39342 0.51576 0.0
C22 C 0.30591 0.38335 0.48399 0.0
C23 C 0.32173 0.40734 0.45297 0.0
O24 O 0.31787 0.39191 0.39241 0.0
O25 O 0.26016 0.41271 0.39857 0.0
O26 O 0.2831 0.41281 0.44721 0.0
O27 O 0.34105 0.39251 0.44058 0.0
H28 H 0.29107 0.45582 0.40095 0.0
H29 H 0.32396 0.49137 0.38569 0.0
H30 H 0.37318 0.44664 0.33779 0.0
H31 H 0.34038 0.41123 0.35309 0.0
H32 H 0.22906 0.30865 0.36175 0.0
H33 H 0.26631 0.33511 0.38539 0.0
H34 H 0.12822 0.29909 0.40491 0.0
H35 H 0.16579 0.32552 0.42862 0.0
H36 H 0.29503 0.36438 0.51153 0.0
H37 H 0.3845 0.42359 0.51411 0.0
H38 H 0.3726 0.43135 0.47845 0.0
H39 H 0.28412 0.37202 0.47558 0.0
C40 C 0.20801 0.1528 0.97925 0.0
C41 C 0.1686 0.14203 0.98332 0.0
C42 C 0.1817 0.1452 0.01941 0.0
C43 C 0.1555 0.13838 1.00318 0.0
C44 C 0.22141 0.15569 1.01517 0.0
C45 C 0.23431 0.1595 0.99531 0.0
U46 U 0.21497 0.13479 0.92377 0.0
O47 O 0.20932 0.15671 0.89647 0.0
O48 O 0.26844 0.13723 0.90256 0.0
C49 C 0.24873 0.15273 0.89097 0.0
C50 C 0.22226 0.15721 0.95845 0.0
C51 C 0.27375 0.17373 0.88405 0.0
C52 C 0.28164 0.2168 0.87772 0.0
C53 C 0.25961 0.1976 0.88661 0.0
C54 C 0.33299 0.18869 0.86428 0.0
C55 C 0.3181 0.2125 0.86608 0.0
C56 C 0.31098 0.16957 0.8731 0.0
C57 C 0.16232 0.07598 0.90582 0.0
C58 C 0.18085 0.05037 0.87731 0.0
C59 C 0.10943 0.04966 0.8906 0.0
C60 C 0.12088 0.06684 0.90507 0.0
C61 C 0.13929 0.04114 0.87659 0.0
C62 C 0.19223 0.06772 0.89173 0.0
C63 C 0.17352 0.09371 0.92161 0.0
O64 O 0.25099 0.14222 0.95152 0.0
O65 O 0.19243 0.16208 0.94529 0.0
O66 O 0.15487 0.11482 0.9203 0.0
O67 O 0.21381 0.09529 0.9265 0.0
H68 H 0.14779 0.13657 0.97116 0.0
H69 H 0.12453 0.13054 1.00578 0.0
H70 H 0.24286 0.16074 0.02718 0.0
H71 H 0.26497 0.16766 0.9925 0.0
H72 H 0.26918 0.23488 0.87934 0.0
H73 H 0.23094 0.2014 0.89497 0.0
H74 H 0.36142 0.18476 0.85578 0.0
H75 H 0.32253 0.15135 0.8709 0.0
H76 H 0.20445 0.04435 0.86661 0.0
H77 H 0.0773 0.04272 0.89062 0.0
H78 H 0.09735 0.07288 0.91581 0.0
H79 H 0.2244 0.0746 0.89187 0.0
C80 C 0.81778 0.08941 0.65353 0.0
C81 C 0.80837 0.06655 0.64538 0.0
C82 C 0.85124 0.04731 0.67119 0.0
C83 C 0.82499 0.04568 0.65414 0.0
C84 C 0.86181 0.07029 0.67877 0.0
C85 C 0.84513 0.09106 0.67008 0.0
U86 U 0.78846 0.13497 0.61209 0.0
O87 O 0.72917 0.15534 0.60825 0.0
O88 O 0.78911 0.17459 0.61353 0.0
C89 C 0.74761 0.1761 0.61229 0.0
C90 C 0.7978 0.11166 0.64601 0.0
C91 C 0.72647 0.19115 0.62765 0.0
C92 C 0.72455 0.21032 0.66066 0.0
C93 C 0.74445 0.19509 0.64672 0.0
C94 C 0.66771 0.21711 0.63693 0.0
C95 C 0.68617 0.22179 0.65582 0.0
C96 C 0.68774 0.20204 0.623 0.0
C97 C 0.82386 0.1245 0.55744 0.0
C98 C 0.83243 0.15514 0.53171 0.0
C99 C 0.83413 0.11281 0.52253 0.0
C100 C 0.82754 0.10656 0.54263 0.0
C101 C 0.8374 0.13717 0.51687 0.0
C102 C 0.8256 0.14886 0.55181 0.0
C103 C 0.82047 0.11737 0.57869 0.0
O104 O 0.82385 0.12877 0.64009 0.0
O105 O 0.76447 0.1091 0.63432 0.0
O106 O 0.78229 0.11187 0.58515 0.0
O107 O 0.8423 0.13055 0.59154 0.0
H108 H 0.78745 0.06472 0.63256 0.0
H109 H 0.81609 0.02827 0.64799 0.0
H110 H 0.88267 0.07224 0.6916 0.0
H111 H 0.85297 0.10848 0.67657 0.0
H112 H 0.73983 0.21359 0.67498 0.0
H113 H 0.77418 0.1867 0.65077 0.0
H114 H 0.63772 0.22514 0.63283 0.0
H115 H 0.67307 0.19904 0.60847 0.0
H116 H 0.83416 0.17407 0.5278 0.0
H117 H 0.83816 0.09853 0.51153 0.0
H118 H 0.8263 0.08766 0.5467 0.0
H119 H 0.8225 0.16302 0.56299 0.0
C120 C 0.70077 0.36081 0.05669 0.0
C121 C 0.69929 0.38279 0.04624 0.0
C122 C 0.6748 0.36186 1.01598 0.0
C123 C 0.68658 0.38329 0.02602 0.0
C124 C 0.67624 0.33999 0.02664 0.0
C125 C 0.68906 0.3395 0.04672 0.0
U126 U 0.7095 0.38553 0.11079 0.0
O127 O 0.70046 0.36644 0.13945 0.0
O128 O 0.76198 0.38308 0.13246 0.0
C129 C 0.74008 0.36957 0.14496 0.0
C130 C 0.71454 0.35936 0.07787 0.0
C131 C 0.76148 0.34829 0.15354 0.0
C132 C 0.81828 0.31863 0.154 0.0
C133 C 0.7969 0.33751 0.1444 0.0
C134 C 0.76843 0.32065 0.1816 0.0
C135 C 0.8047 0.31026 0.17291 0.0
C136 C 0.7472 0.33945 0.17205 0.0
C137 C 0.66124 0.44673 0.12474 0.0
C138 C 0.67282 0.46747 0.1566 0.0
C139 C 0.61871 0.48157 0.13372 0.0
C140 C 0.62893 0.46307 0.12024 0.0
C141 C 0.64072 0.48416 0.15201 0.0
C142 C 0.68297 0.44889 0.14308 0.0
C143 C 0.67148 0.4276 0.11011 0.0
O144 O 0.74441 0.37449 0.08365 0.0
O145 O 0.68409 0.35684 0.09117 0.0
O146 O 0.65116 0.40709 0.11256 0.0
O147 O 0.71188 0.42475 0.10593 0.0
H148 H 0.70796 0.39952 0.05368 0.0
H149 H 0.68554 0.40046 0.01833 0.0
H150 H 0.66817 0.32308 0.01935 0.0
H151 H 0.69009 0.32236 0.05448 0.0
H152 H 0.84619 0.31112 0.14691 0.0
H153 H 0.80855 0.34397 0.13008 0.0
H154 H 0.75651 0.31435 0.19592 0.0
H155 H 0.7199 0.34742 0.17936 0.0
H156 H 0.6906 0.46899 0.17047 0.0
H157 H 0.59323 0.49372 0.12985 0.0
H158 H 0.61154 0.46155 0.10625 0.0
H159 H 0.70791 0.43632 0.14688 0.0
C160 C 0.7038 0.58574 0.65382 0.0
C161 C 0.66372 0.57713 0.64798 0.0
C162 C 0.66973 0.54368 0.67152 0.0
C163 C 0.6468 0.55632 0.6568 0.0
C164 C 0.71039 0.55199 0.67681 0.0
C165 C 0.72717 0.57284 0.66807 0.0
U166 U 0.72285 0.63266 0.61213 0.0
O167 O 0.72143 0.67223 0.61388 0.0
O168 O 0.78073 0.65385 0.60609 0.0
C169 C 0.76253 0.67431 0.61108 0.0
C170 C 0.72123 0.60858 0.64603 0.0
C171 C 0.78561 0.68933 0.6259 0.0
C172 C 0.79216 0.70723 0.65923 0.0
C173 C 0.77064 0.69223 0.64565 0.0
C174 C 0.84472 0.71603 0.63376 0.0
C175 C 0.82931 0.71944 0.65341 0.0
C176 C 0.82299 0.70119 0.62014 0.0
C177 C 0.67799 0.62153 0.559 0.0
C178 C 0.69302 0.64644 0.52985 0.0
C179 C 0.64381 0.61296 0.52704 0.0
C180 C 0.65005 0.60766 0.54734 0.0
C181 C 0.66542 0.63231 0.51795 0.0
C182 C 0.69923 0.6411 0.55021 0.0
C183 C 0.68501 0.61484 0.58012 0.0
O184 O 0.75201 0.60659 0.63283 0.0
O185 O 0.69364 0.62542 0.64147 0.0
O186 O 0.6655 0.62815 0.59362 0.0
O187 O 0.72429 0.60974 0.58507 0.0
H188 H 0.64522 0.58667 0.63686 0.0
H189 H 0.61565 0.5502 0.65217 0.0
H190 H 0.72874 0.54287 0.68822 0.0
H191 H 0.75814 0.57919 0.67278 0.0
H192 H 0.77978 0.70921 0.67433 0.0
H193 H 0.74213 0.68306 0.65058 0.0
H194 H 0.87302 0.72533 0.62874 0.0
H195 H 0.83515 0.69916 0.605 0.0
H196 H 0.70987 0.66161 0.52342 0.0
H197 H 0.62293 0.60141 0.51834 0.0
H198 H 0.63347 0.59244 0.55387 0.0
H199 H 0.72084 0.65207 0.55904 0.0
C200 C 0.79614 0.86986 0.05489 0.0
C201 C 0.81938 0.89073 0.05024 0.0
C202 C 0.82566 0.87752 1.01535 0.0
C203 C 0.83403 0.89453 0.03065 0.0
C204 C 0.80215 0.85669 0.02015 0.0
C205 C 0.78757 0.85291 0.03975 0.0
U206 U 0.78684 0.88906 0.10969 0.0
O207 O 0.73314 0.88662 0.13076 0.0
O208 O 0.79289 0.86808 0.13749 0.0
C209 C 0.75329 0.87182 0.14279 0.0
C210 C 0.78109 0.86548 0.07548 0.0
C211 C 0.72901 0.85074 0.14994 0.0
C212 C 0.71782 0.80742 0.15281 0.0
C213 C 0.73946 0.82702 0.14434 0.0
C214 C 0.67434 0.83502 0.17207 0.0
C215 C 0.68529 0.81119 0.16696 0.0
C216 C 0.696 0.85454 0.16366 0.0
C217 C 0.83659 0.94866 0.12695 0.0
C218 C 0.86226 0.95908 0.16038 0.0
C219 C 0.84338 0.9907 0.13705 0.0
C220 C 0.83248 0.97328 0.12267 0.0
C221 C 0.8589 0.9838 0.15598 0.0
C222 C 0.851 0.94166 0.14604 0.0
C223 C 0.82651 0.9307 0.11121 0.0
O224 O 0.81093 0.86146 0.08881 0.0
O225 O 0.75172 0.88034 0.08201 0.0
O226 O 0.78624 0.92863 0.10646 0.0
O227 O 0.84595 0.90982 0.11255 0.0
H228 H 0.8262 0.90405 0.06178 0.0
H229 H 0.85154 0.91091 0.02744 0.0
H230 H 0.7956 0.84307 1.00884 0.0
H231 H 0.76979 0.83666 0.0431 0.0
H232 H 0.72668 0.78932 0.14833 0.0
H233 H 0.76472 0.82362 0.13369 0.0
H234 H 0.64993 0.83865 0.1831 0.0
H235 H 0.68756 0.87268 0.16826 0.0
H236 H 0.8736 0.95321 0.17491 0.0
H237 H 0.8408 1.00959 0.13313 0.0
H238 H 0.82136 0.97906 0.10806 0.0
H239 H 0.85399 0.92276 0.14983 0.0
C240 C 0.20115 0.93222 0.37841 0.0
C241 C 0.1623 0.94211 0.38458 0.0
C242 C 0.16936 0.97413 0.35971 0.0
C243 C 0.14653 0.96289 0.3753 0.0
C244 C 0.20888 0.96454 0.35412 0.0
C245 C 0.2245 0.9438 0.36335 0.0
U246 U 0.21947 0.88633 0.42104 0.0
O247 O 0.21512 0.84666 0.41969 0.0
O248 O 0.27569 0.86415 0.42699 0.0
C249 C 0.25599 0.84386 0.42258 0.0
C250 C 0.21723 0.90934 0.38664 0.0
C251 C 0.27769 0.82788 0.40811 0.0
C252 C 0.31707 0.82146 0.37708 0.0
C253 C 0.29581 0.83693 0.39039 0.0
C254 C 0.30153 0.78769 0.39887 0.0
C255 C 0.32048 0.79663 0.38123 0.0
C256 C 0.28046 0.80316 0.41216 0.0
C257 C 0.17901 0.90048 0.47461 0.0
C258 C 0.18178 0.87291 0.5029 0.0
C259 C 0.155 0.91344 0.50764 0.0
C260 C 0.16217 0.91825 0.48731 0.0
C261 C 0.16454 0.89068 0.51573 0.0
C262 C 0.18897 0.87778 0.48252 0.0
C263 C 0.18534 0.90607 0.45319 0.0
O264 O 0.2491 0.91109 0.39928 0.0
O265 O 0.18864 0.89333 0.39206 0.0
O266 O 0.16397 0.89267 0.44035 0.0
O267 O 0.22466 0.91006 0.44758 0.0
H268 H 0.14376 0.93353 0.39625 0.0
H269 H 0.1159 0.96969 0.37991 0.0
H270 H 0.22773 0.97299 0.3425 0.0
H271 H 0.25465 0.93654 0.35845 0.0
H272 H 0.33151 0.82906 0.36377 0.0
H273 H 0.29383 0.85598 0.38692 0.0
H274 H 0.30269 0.76864 0.40239 0.0
H275 H 0.26638 0.7958 0.42567 0.0
H276 H 0.19008 0.8553 0.50864 0.0
H277 H 0.14119 0.92744 0.51693 0.0
H278 H 0.15422 0.93588 0.48144 0.0
H279 H 0.20218 0.86386 0.47294 0.0
C280 C 0.31531 0.65815 0.97874 0.0
C281 C 0.31163 0.63549 0.98799 0.0
C282 C 0.34037 0.65207 0.01918 0.0
C283 C 0.32387 0.63252 1.00806 0.0
C284 C 0.34499 0.67453 1.00964 0.0
C285 C 0.3325 0.67753 0.98965 0.0
U286 U 0.30272 0.6378 0.924 0.0
O287 O 0.24947 0.64182 0.90303 0.0
O288 O 0.31115 0.65822 0.89595 0.0
C289 C 0.2711 0.65584 0.89083 0.0
C290 C 0.30096 0.66212 0.9579 0.0
C291 C 0.24973 0.67773 0.88332 0.0
C292 C 0.18765 0.70353 0.88076 0.0
C293 C 0.20918 0.68452 0.89001 0.0
C294 C 0.24736 0.7098 0.85853 0.0
C295 C 0.20615 0.71605 0.86461 0.0
C296 C 0.26878 0.69082 0.86772 0.0
C297 C 0.3445 0.57625 0.9069 0.0
C298 C 0.331 0.53582 0.89396 0.0
C299 C 0.38194 0.5616 0.87726 0.0
C300 C 0.37381 0.57991 0.89125 0.0
C301 C 0.36101 0.53922 0.87859 0.0
C302 C 0.32301 0.55408 0.90799 0.0
C303 C 0.33715 0.59484 0.92257 0.0
O304 O 0.33116 0.6647 0.94447 0.0
O305 O 0.26933 0.64853 0.9516 0.0
O306 O 0.29744 0.59843 0.92774 0.0
O307 O 0.35913 0.61496 0.92104 0.0
H308 H 0.29889 0.62016 0.97981 0.0
H309 H 0.32033 0.61492 1.01489 0.0
H310 H 0.35706 0.69004 0.01781 0.0
H311 H 0.33569 0.69513 0.98278 0.0
H312 H 0.15585 0.70777 0.88573 0.0
H313 H 0.19353 0.67474 0.90197 0.0
H314 H 0.26288 0.71935 0.8464 0.0
H315 H 0.29993 0.68591 0.86224 0.0
H316 H 0.31381 0.51895 0.89525 0.0
H317 H 0.40562 0.56475 0.86578 0.0
H318 H 0.39106 0.59676 0.88996 0.0
H319 H 0.30029 0.55074 0.91988 0.0
Eu320 Eu 0.05294 0.15165 0.24847 0.0
C321 C 0.86479 0.12517 0.26993 0.0
N322 N 0.88421 0.14698 0.27215 0.0
C323 C 0.8231 0.16698 0.25897 0.0
C324 C 0.82369 0.12348 0.26171 0.0
C325 C 0.86388 0.16778 0.26714 0.0
C326 C 0.80297 0.14473 0.25615 0.0
C327 C 0.8671 0.08155 0.27323 0.0
C328 C 0.88637 0.1044 0.27561 0.0
C329 C 0.82626 0.07984 0.26496 0.0
C330 C 0.80463 0.10073 0.25923 0.0
Eu331 Eu 0.9531 0.1464 0.2858 0.0
N332 N 0.92642 0.10651 0.28309 0.0
C333 C 0.88942 0.06107 0.27927 0.0
C334 C 0.94727 0.0867 0.28999 0.0
C335 C 0.92947 0.06369 0.28789 0.0
H336 H 0.87876 0.18503 0.26986 0.0
H337 H 0.94648 0.04801 0.29316 0.0
H338 H 0.13147 0.12029 0.2696 0.0
H339 H 0.04441 0.24808 0.23068 0.0
H340 H 0.97714 0.08844 0.29753 0.0
H341 H 0.87573 0.04321 0.27768 0.0
H342 H 0.02289 0.20557 0.22876 0.0
H343 H 0.80712 0.18352 0.25497 0.0
H344 H 0.81107 0.06243 0.26297 0.0
H345 H 0.77311 0.09909 0.2529 0.0
H346 H 0.20111 0.12804 0.2854 0.0
H347 H 0.77137 0.14418 0.24981 0.0
H348 H 0.11001 0.25951 0.24871 0.0
N349 N 0.1199 0.15724 0.26342 0.0
C350 C 0.13479 0.18028 0.26421 0.0
C351 C 0.1827 0.14289 0.27958 0.0
C352 C 0.17436 0.18552 0.27309 0.0
C353 C 0.14319 0.13856 0.27075 0.0
C354 C 0.19832 0.16646 0.2808 0.0
N355 N 0.07159 0.19316 0.24816 0.0
C356 C 0.04953 0.21035 0.23799 0.0
C357 C 0.12446 0.22282 0.25732 0.0
C358 C 0.10976 0.19875 0.2566 0.0
C359 C 0.0998 0.24082 0.24851 0.0
C360 C 0.06258 0.23448 0.23847 0.0
H361 H 0.22888 0.16976 0.28773 0.0
H362 H 0.21874 0.2139 0.28105 0.0
H363 H 0.17526 0.24652 0.26712 0.0
O364 O 0.05433 0.15598 0.21576 0.0
O365 O 0.059 0.16517 0.28068 0.0
O366 O 0.99344 0.18031 0.28814 0.0
O367 O 0.10477 0.13694 0.23058 0.0
O368 O 0.98934 0.16769 0.23897 0.0
O369 O 0.95843 0.18115 0.26833 0.0
O370 O 0.95493 0.13925 0.31814 0.0
O371 O 0.94797 0.1299 0.25438 0.0
O372 O 0.0151 0.11704 0.24662 0.0
O373 O 0.904 0.16032 0.30572 0.0
O374 O 0.01446 0.12789 0.29529 0.0
O375 O 0.05113 0.11698 0.2664 0.0
C376 C 0.03481 0.18063 0.2902 0.0
C377 C 0.08685 0.12424 0.1978 0.0
C378 C 0.09546 0.11223 0.16259 0.0
C379 C 0.08586 0.08828 0.16805 0.0
C380 C 0.07704 0.10031 0.2028 0.0
C381 C 0.0765 0.08246 0.18796 0.0
C382 C 0.09571 0.13017 0.17772 0.0
C383 C 0.96318 0.18211 0.24871 0.0
C384 C 0.0884 0.14309 0.21344 0.0
C385 C 0.18852 0.20952 0.2742 0.0
C386 C 0.16366 0.22811 0.26635 0.0
C387 C 0.97383 0.11499 0.24519 0.0
C388 C 0.92526 0.16956 0.33877 0.0
C389 C 0.91698 0.17886 0.37452 0.0
C390 C 0.93007 0.20271 0.37061 0.0
C391 C 0.93836 0.19336 0.33528 0.0
C392 C 0.91479 0.16232 0.35837 0.0
C393 C 0.94082 0.20982 0.35115 0.0
C394 C 0.04254 0.11449 0.2857 0.0
C395 C 0.92161 0.15228 0.32202 0.0
H396 H 0.08624 0.07388 0.15701 0.0
H397 H 0.07022 0.09539 0.21819 0.0
H398 H 0.06921 0.06399 0.19195 0.0
H399 H 0.10252 0.14878 0.17394 0.0
H400 H 0.93136 0.21607 0.38252 0.0
H401 H 0.94619 0.19926 0.32025 0.0
H402 H 0.9052 0.1438 0.36099 0.0
H403 H 0.95071 0.22822 0.34833 0.0
Eu404 Eu 0.45488 0.37373 0.74807 0.0
C405 C 0.63141 0.40782 0.77836 0.0
N406 N 0.61752 0.38503 0.77463 0.0
C407 C 0.68108 0.37619 0.75641 0.0
C408 C 0.67035 0.41602 0.77052 0.0
C409 C 0.64209 0.36894 0.76439 0.0
C410 C 0.6951 0.39991 0.75931 0.0
C411 C 0.62045 0.44653 0.79456 0.0
C412 C 0.60665 0.42284 0.79021 0.0
C413 C 0.65848 0.4551 0.78619 0.0
C414 C 0.68342 0.43986 0.77424 0.0
Eu415 Eu 0.55159 0.37406 0.78848 0.0
N416 N 0.57028 0.41391 0.79829 0.0
C417 C 0.59629 0.46065 0.80772 0.0
C418 C 0.54876 0.42688 0.81244 0.0
C419 C 0.56069 0.45062 0.81697 0.0
H420 H 0.63145 0.35056 0.7623 0.0
H421 H 0.54288 0.46099 0.82787 0.0
H422 H 0.38455 0.41284 0.76897 0.0
H423 H 0.4281 0.28044 0.72554 0.0
H424 H 0.52302 0.41885 0.82068 0.0
H425 H 0.60576 0.47894 0.81143 0.0
H426 H 0.46543 0.31989 0.72656 0.0
H427 H 0.70029 0.3635 0.74805 0.0
H428 H 0.66938 0.47331 0.78925 0.0
H429 H 0.71305 0.44658 0.76819 0.0
H430 H 0.3179 0.41118 0.78802 0.0
H431 H 0.72526 0.4055 0.75307 0.0
H432 H 0.36226 0.27466 0.7452 0.0
N433 N 0.38912 0.37472 0.76539 0.0
C434 C 0.36814 0.3533 0.76683 0.0
C435 C 0.33204 0.39469 0.78245 0.0
C436 C 0.3289 0.35165 0.7769 0.0
C437 C 0.37048 0.39548 0.77203 0.0
C438 C 0.31149 0.37262 0.7852 0.0
N439 N 0.42174 0.33559 0.74699 0.0
C440 C 0.43683 0.31729 0.73523 0.0
C441 C 0.36223 0.31117 0.75695 0.0
C442 C 0.38454 0.33325 0.75706 0.0
C443 C 0.37854 0.29189 0.74571 0.0
C444 C 0.41572 0.29508 0.73459 0.0
H445 H 0.28141 0.37211 0.79304 0.0
H446 H 0.27754 0.32775 0.7855 0.0
H447 H 0.30672 0.29232 0.768 0.0
O448 O 0.46136 0.37222 0.71524 0.0
O449 O 0.46783 0.34178 0.76858 0.0
O450 O 0.48708 0.36012 0.79781 0.0
O451 O 0.40725 0.38963 0.72844 0.0
O452 O 0.51732 0.35795 0.73759 0.0
O453 O 0.5508 0.34276 0.76599 0.0
O454 O 0.58072 0.37437 0.81849 0.0
O455 O 0.56119 0.39087 0.7575 0.0
O456 O 0.49613 0.40704 0.75071 0.0
O457 O 0.57973 0.34113 0.80061 0.0
O458 O 0.48858 0.3905 0.7981 0.0
O459 O 0.45954 0.40624 0.7691 0.0
C460 C 0.46734 0.34275 0.78825 0.0
C461 C 0.39642 0.36918 0.6977 0.0
C462 C 0.37323 0.36066 0.66332 0.0
C463 C 0.34309 0.34431 0.67091 0.0
C464 C 0.36545 0.35314 0.70487 0.0
C465 C 0.33925 0.34066 0.69154 0.0
C466 C 0.40005 0.37304 0.67688 0.0
C467 C 0.5432 0.34263 0.74643 0.0
C468 C 0.42463 0.38199 0.71189 0.0
C469 C 0.30754 0.32938 0.77769 0.0
C470 C 0.3241 0.30921 0.76769 0.0
C471 C 0.53757 0.40761 0.74928 0.0
C472 C 0.61262 0.33877 0.83375 0.0
C473 C 0.63161 0.33456 0.86922 0.0
C474 C 0.64984 0.31207 0.86482 0.0
C475 C 0.63127 0.31628 0.82977 0.0
C476 C 0.6135 0.34809 0.85354 0.0
C477 C 0.64996 0.30313 0.8452 0.0
C478 C 0.4651 0.40653 0.78873 0.0
C479 C 0.59049 0.35162 0.81743 0.0
H480 H 0.32165 0.33478 0.66092 0.0
H481 H 0.3611 0.35043 0.72077 0.0
H482 H 0.31552 0.32831 0.69724 0.0
H483 H 0.42369 0.38555 0.67128 0.0
H484 H 0.66406 0.3014 0.87663 0.0
H485 H 0.63114 0.30875 0.81472 0.0
H486 H 0.5988 0.36528 0.8569 0.0
H487 H 0.66415 0.28578 0.84199 0.0
Eu488 Eu 0.05566 0.87476 0.74732 0.0
C489 C 0.86388 0.85383 0.77395 0.0
N490 N 0.88573 0.87497 0.77521 0.0
C491 C 0.82456 0.89691 0.76452 0.0
C492 C 0.8212 0.85348 0.76767 0.0
C493 C 0.86686 0.89637 0.77074 0.0
C494 C 0.80163 0.87537 0.76296 0.0
C495 C 0.86293 0.81014 0.77675 0.0
C496 C 0.88462 0.83236 0.7784 0.0
C497 C 0.82036 0.80977 0.77062 0.0
C498 C 0.79957 0.83136 0.7661 0.0
Eu499 Eu 0.9566 0.87222 0.78593 0.0
N500 N 0.92633 0.83316 0.78368 0.0
C501 C 0.88476 0.78889 0.78121 0.0
C502 C 0.94719 0.81258 0.7888 0.0
C503 C 0.92696 0.79015 0.7874 0.0
H504 H 0.8842 0.91309 0.77234 0.0
H505 H 0.94384 0.77386 0.79127 0.0
H506 H 0.13275 0.84764 0.77319 0.0
H507 H 0.04732 0.9676 0.71941 0.0
H508 H 0.97914 0.81325 0.79425 0.0
H509 H 0.86922 0.77147 0.78011 0.0
H510 H 0.02748 0.92476 0.7211 0.0
H511 H 0.80963 0.91392 0.76101 0.0
H512 H 0.80327 0.79285 0.76924 0.0
H513 H 0.76678 0.83075 0.76129 0.0
H514 H 0.2003 0.8584 0.78985 0.0
H515 H 0.76889 0.87584 0.75809 0.0
H516 H 0.10978 0.9825 0.73823 0.0
N517 N 0.12044 0.88336 0.76353 0.0
C518 C 0.13468 0.9065 0.76233 0.0
C519 C 0.18202 0.87212 0.78228 0.0
C520 C 0.17296 0.91347 0.77166 0.0
C521 C 0.1437 0.86609 0.77297 0.0
C522 C 0.19662 0.89593 0.78172 0.0
N523 N 0.07356 0.91605 0.74315 0.0
C524 C 0.05261 0.93129 0.73058 0.0
C525 C 0.12409 0.94755 0.7509 0.0
C526 C 0.1102 0.92337 0.75219 0.0
C527 C 0.10019 0.96379 0.73959 0.0
C528 C 0.06475 0.95549 0.72906 0.0
H529 H 0.22622 0.90057 0.78905 0.0
H530 H 0.21538 0.94337 0.77799 0.0
H531 H 0.17275 0.97317 0.75976 0.0
O532 O 0.06597 0.87658 0.71428 0.0
O533 O 0.06199 0.88995 0.77925 0.0
O534 O 0.99669 0.90602 0.78528 0.0
O535 O 0.10618 0.85436 0.73335 0.0
O536 O 0.99252 0.89095 0.73715 0.0
O537 O 0.96266 0.90544 0.76655 0.0
O538 O 0.96193 0.86474 0.81806 0.0
O539 O 0.94672 0.85473 0.75532 0.0
O540 O 0.01264 0.84195 0.74489 0.0
O541 O 0.91311 0.88869 0.80748 0.0
O542 O 0.01776 0.8535 0.79505 0.0
O543 O 0.05068 0.84083 0.76582 0.0
C544 C 0.03799 0.90678 0.78717 0.0
C545 C 0.12318 0.85324 0.69792 0.0
C546 C 0.13909 0.85182 0.66192 0.0
C547 C 0.1701 0.83428 0.66567 0.0
C548 C 0.15468 0.83578 0.70116 0.0
C549 C 0.17793 0.82645 0.68515 0.0
C550 C 0.11579 0.86151 0.67817 0.0
C551 C 0.9668 0.90573 0.74684 0.0
C552 C 0.09779 0.86171 0.71529 0.0
C553 C 0.18621 0.93765 0.7708 0.0
C554 C 0.16182 0.95464 0.76049 0.0
C555 C 0.97107 0.84093 0.74418 0.0
C556 C 0.94097 0.89618 0.83977 0.0
C557 C 0.93609 0.90655 0.87544 0.0
C558 C 0.95928 0.9278 0.87163 0.0
C559 C 0.96381 0.91749 0.83632 0.0
C560 C 0.92716 0.89075 0.8593 0.0
C561 C 0.97302 0.93317 0.85219 0.0
C562 C 0.04455 0.8395 0.78533 0.0
C563 C 0.93161 0.87947 0.82312 0.0
H564 H 0.18865 0.82676 0.65347 0.0
H565 H 0.16121 0.82907 0.7161 0.0
H566 H 0.202 0.81299 0.68786 0.0
H567 H 0.09163 0.87492 0.67538 0.0
H568 H 0.96619 0.94051 0.8836 0.0
H569 H 0.97425 0.92201 0.82135 0.0
H570 H 0.90986 0.87413 0.86193 0.0
H571 H 0.99063 0.94962 0.84941 0.0
Eu572 Eu 0.4569 0.64938 0.25046 0.0
C573 C 0.64512 0.67361 0.27101 0.0
N574 N 0.62665 0.65148 0.26944 0.0
C575 C 0.68557 0.63684 0.25032 0.0
C576 C 0.68459 0.67829 0.26186 0.0
C577 C 0.64625 0.63309 0.25947 0.0
C578 C 0.7048 0.65955 0.25147 0.0
C579 C 0.6419 0.71508 0.28273 0.0
C580 C 0.62368 0.69185 0.28121 0.0
C581 C 0.68106 0.71984 0.27349 0.0
C582 C 0.70236 0.7015 0.26312 0.0
Eu583 Eu 0.56103 0.64651 0.28578 0.0
N584 N 0.58551 0.68682 0.28988 0.0
C585 C 0.62065 0.73278 0.29382 0.0
C586 C 0.56663 0.70349 0.30206 0.0
C587 C 0.58321 0.72683 0.3038 0.0
H588 H 0.63176 0.61543 0.2588 0.0
H589 H 0.56758 0.74006 0.3132 0.0
H590 H 0.38567 0.6808 0.27684 0.0
H591 H 0.4491 0.55593 0.2229 0.0
H592 H 0.53973 0.69884 0.31114 0.0
H593 H 0.6336 0.75083 0.29535 0.0
H594 H 0.47663 0.59728 0.22461 0.0
H595 H 0.70105 0.62222 0.24241 0.0
H596 H 0.69535 0.73761 0.27445 0.0
H597 H 0.73258 0.70545 0.25612 0.0
H598 H 0.31694 0.67408 0.29377 0.0
H599 H 0.73518 0.66243 0.24427 0.0
H600 H 0.38394 0.54506 0.24143 0.0
N601 N 0.39123 0.64457 0.26686 0.0
C602 C 0.37283 0.62239 0.26556 0.0
C603 C 0.33245 0.65936 0.28601 0.0
C604 C 0.33361 0.61773 0.27496 0.0
C605 C 0.37152 0.66308 0.27661 0.0
C606 C 0.31349 0.63656 0.28527 0.0
N607 N 0.4319 0.60915 0.24637 0.0
C608 C 0.45028 0.59252 0.23399 0.0
C609 C 0.37588 0.58084 0.25401 0.0
C610 C 0.39403 0.60412 0.25531 0.0
C611 C 0.39683 0.56314 0.24279 0.0
C612 C 0.43379 0.56915 0.23244 0.0
H613 H 0.28329 0.6337 0.29265 0.0
H614 H 0.28599 0.59052 0.2812 0.0
H615 H 0.32287 0.55827 0.26281 0.0
O616 O 0.44659 0.64881 0.21753 0.0
O617 O 0.45126 0.6314 0.28115 0.0
O618 O 0.51665 0.61442 0.28554 0.0
O619 O 0.40847 0.67193 0.23705 0.0
O620 O 0.51616 0.63132 0.23761 0.0
O621 O 0.55031 0.6146 0.26498 0.0
O622 O 0.57169 0.64663 0.31882 0.0
O623 O 0.56723 0.66382 0.25494 0.0
O624 O 0.50224 0.68118 0.2503 0.0
O625 O 0.60946 0.6239 0.29888 0.0
O626 O 0.5014 0.66424 0.29861 0.0
O627 O 0.46805 0.68126 0.2712 0.0
C628 C 0.47563 0.61451 0.28856 0.0
C629 C 0.3918 0.67383 0.20155 0.0
C630 C 0.37139 0.67257 0.16614 0.0
C631 C 0.34146 0.69072 0.16983 0.0
C632 C 0.36178 0.69214 0.20478 0.0
C633 C 0.33694 0.70054 0.189 0.0
C634 C 0.39696 0.66425 0.18201 0.0
C635 C 0.54225 0.6154 0.24558 0.0
C636 C 0.41602 0.66449 0.21887 0.0
C637 C 0.31599 0.59446 0.27398 0.0
C638 C 0.33708 0.57607 0.26357 0.0
C639 C 0.54309 0.68034 0.24681 0.0
C640 C 0.62676 0.621 0.33417 0.0
C641 C 0.64879 0.62105 0.36942 0.0
C642 C 0.67746 0.6024 0.36507 0.0
C643 C 0.65567 0.60226 0.33034 0.0
C644 C 0.62293 0.63018 0.35392 0.0
C645 C 0.68065 0.59303 0.34571 0.0
C646 C 0.47511 0.68008 0.29067 0.0
C647 C 0.60214 0.63091 0.31718 0.0
H648 H 0.32165 0.69738 0.15778 0.0
H649 H 0.35716 0.69991 0.21958 0.0
H650 H 0.31386 0.71459 0.19168 0.0
H651 H 0.41982 0.65007 0.17924 0.0
H652 H 0.69726 0.59491 0.37678 0.0
H653 H 0.65921 0.59472 0.31539 0.0
H654 H 0.6009 0.64464 0.35712 0.0
H655 H 0.70276 0.57861 0.34257 0.0
H656 H 0.17257 0.98345 0.31932 0.0
H657 H 0.04201 0.10682 0.32639 0.0
H658 H 0.1253 0.01292 0.3751 0.0
H659 H 0.09054 0.07717 0.2709 0.0
H660 H 0.07344 0.07318 0.3446 0.0
H661 H 0.14392 0.01812 0.30156 0.0
C662 C 0.15647 0.99731 0.3279 0.0
C663 C 0.15165 0.99526 0.34881 0.0
C664 C 0.07735 0.07407 0.32845 0.0
C665 C 0.11807 0.03504 0.32839 0.0
C666 C 0.05943 0.09331 0.31801 0.0
C667 C 0.06354 0.09487 0.29703 0.0
C668 C 0.0996 0.05617 0.31787 0.0
C669 C 0.08661 0.07681 0.28705 0.0
C670 C 0.13986 0.01707 0.31769 0.0
C671 C 0.12953 0.01359 0.35898 0.0
N672 N 0.10362 0.05821 0.29755 0.0
N673 N 0.11363 0.0327 0.34868 0.0
H674 H 0.36962 0.49131 0.88749 0.0
H675 H 0.44358 0.45214 0.77696 0.0
H676 H 0.37794 0.54119 0.83797 0.0
H677 H 0.44034 0.40432 0.8279 0.0
H678 H 0.41443 0.4844 0.79813 0.0
H679 H 0.3902 0.45868 0.86497 0.0
C680 C 0.37529 0.49539 0.87182 0.0
C681 C 0.37195 0.5191 0.86466 0.0
C682 C 0.41989 0.46681 0.80464 0.0
C683 C 0.3964 0.48168 0.83874 0.0
C684 C 0.43633 0.4484 0.79255 0.0
C685 C 0.44466 0.42565 0.80078 0.0
C686 C 0.41155 0.46233 0.82504 0.0
C687 C 0.43483 0.42171 0.82105 0.0
C688 C 0.38738 0.47673 0.85897 0.0
C689 C 0.3806 0.52327 0.84423 0.0
N690 N 0.41897 0.43989 0.83249 0.0
N691 N 0.39252 0.50476 0.832 0.0
H692 H 0.70782 0.50105 0.68231 0.0
H693 H 0.50216 0.45063 0.73909 0.0
H694 H 0.58822 0.53842 0.68501 0.0
H695 H 0.61778 0.40993 0.73321 0.0
H696 H 0.53414 0.4832 0.71977 0.0
H697 H 0.67646 0.46777 0.70135 0.0
C698 C 0.67497 0.50227 0.68689 0.0
C699 C 0.65065 0.52262 0.68204 0.0
C700 C 0.55266 0.46719 0.72273 0.0
C701 C 0.61452 0.48452 0.70381 0.0
C702 C 0.53437 0.44854 0.73376 0.0
C703 C 0.55745 0.42755 0.73791 0.0
C704 C 0.59442 0.46493 0.71571 0.0
C705 C 0.59912 0.42595 0.73067 0.0
C706 C 0.65706 0.48321 0.69771 0.0
C707 C 0.60808 0.52302 0.68816 0.0
N708 N 0.61631 0.4444 0.71992 0.0
N709 N 0.59149 0.50434 0.69877 0.0
H710 H 0.81971 0.02621 0.16634 0.0
H711 H 0.01216 0.07266 0.23471 0.0
H712 H 0.93075 0.98374 0.17903 0.0
H713 H 0.89463 0.11144 0.22852 0.0
H714 H 0.98284 0.04 0.21421 0.0
H715 H 0.84621 0.05761 0.18912 0.0
C716 C 0.84964 0.02349 0.17394 0.0
C717 C 0.87313 1.00236 0.17072 0.0
C718 C 0.96335 0.05559 0.21739 0.0
C719 C 0.9037 0.03822 0.19679 0.0
C720 C 0.98022 0.07434 0.22897 0.0
C721 C 0.95594 0.0949 0.23317 0.0
C722 C 0.92189 0.0574 0.20988 0.0
C723 C 0.91442 0.09589 0.22567 0.0
C724 C 0.86467 0.04137 0.18701 0.0
C725 C 0.91143 0.99964 0.18119 0.0
N726 N 0.89877 0.07745 0.21431 0.0
N727 N 0.92564 0.01742 0.19363 0.0
H728 H 0.87987 1.00458 0.65476 0.0
H729 H 0.93461 0.94765 0.76196 0.0
H730 H 0.85584 0.03964 0.71167 0.0
H731 H 0.95162 0.90875 0.70621 0.0
H732 H 0.904 0.98101 0.74341 0.0
H733 H 0.90481 0.96889 0.67287 0.0
C734 C 0.87965 1.00475 0.67103 0.0
C735 C 0.86611 0.02527 0.68169 0.0
C736 C 0.91418 0.96516 0.73517 0.0
C737 C 0.89476 0.98459 0.70247 0.0
C738 C 0.93151 0.946 0.7458 0.0
C739 C 0.94577 0.92535 0.73562 0.0
C740 C 0.91115 0.96384 0.71414 0.0
C741 C 0.94123 0.9244 0.71463 0.0
C742 C 0.89401 0.98441 0.68135 0.0
C743 C 0.86681 0.0245 0.70278 0.0
N744 N 0.92453 0.94345 0.70455 0.0
N745 N 0.88096 1.00458 0.71243 0.0
H746 H 0.62099 0.53093 0.14263 0.0
H747 H 0.57797 0.57227 0.25635 0.0
H748 H 0.63655 0.4836 0.19343 0.0
H749 H 0.54983 0.61601 0.20457 0.0
H750 H 0.60534 0.54081 0.23398 0.0
H751 H 0.60023 0.56327 0.16548 0.0
C752 C 0.6199 0.52726 0.1586 0.0
C753 C 0.63014 0.50433 0.16604 0.0
C754 C 0.59333 0.55733 0.22752 0.0
C755 C 0.60682 0.54161 0.19245 0.0
C756 C 0.57783 0.57535 0.24029 0.0
C757 C 0.56132 0.59678 0.23232 0.0
C758 C 0.59253 0.56077 0.20662 0.0
C759 C 0.56192 0.59972 0.21138 0.0
C760 C 0.60825 0.54584 0.17167 0.0
C761 C 0.62917 0.50097 0.18697 0.0
N762 N 0.57711 0.58192 0.19929 0.0
N763 N 0.61752 0.51936 0.19942 0.0
H764 H 0.42983 0.47597 0.34353 0.0
H765 H 0.39755 0.61222 0.30675 0.0
H766 H 0.31625 0.51676 0.35535 0.0
H767 H 0.51034 0.57041 0.29578 0.0
H768 H 0.36661 0.57772 0.32445 0.0
H769 H 0.45968 0.51078 0.32618 0.0
C770 C 0.41111 0.49225 0.34243 0.0
C771 C 0.37037 0.49338 0.35083 0.0
C772 C 0.39813 0.57612 0.31817 0.0
C773 C 0.40451 0.53349 0.33102 0.0
C774 C 0.41565 0.59574 0.30792 0.0
C775 C 0.4564 0.59412 0.2996 0.0
C776 C 0.42171 0.5548 0.32022 0.0
C777 C 0.47887 0.57252 0.302 0.0
C778 C 0.42824 0.51218 0.33258 0.0
C779 C 0.34791 0.51514 0.34925 0.0
N780 N 0.46122 0.55375 0.31206 0.0
N781 N 0.3652 0.5343 0.33946 0.0
H782 H 0.06667 0.03896 0.85418 0.0
H783 H 0.11421 0.90864 0.80717 0.0
H784 H 0.18364 1.00094 0.86455 0.0
H785 H 0.00481 0.95152 0.79256 0.0
H786 H 0.14217 0.94246 0.82717 0.0
H787 H 0.04473 1.00719 0.8309 0.0
C788 C 0.08776 0.0239 0.85156 0.0
C789 C 0.12692 0.02255 0.86146 0.0
C790 C 0.11216 0.9445 0.81949 0.0
C791 C 0.10206 0.98599 0.83465 0.0
C792 C 0.09635 0.92525 0.80799 0.0
C793 C 0.05707 0.92725 0.79829 0.0
C794 C 0.08829 0.96577 0.82139 0.0
C795 C 0.03499 0.94909 0.80001 0.0
C796 C 0.07533 1.0058 0.83816 0.0
C797 C 0.15327 1.00279 0.85717 0.0
N798 N 0.05072 0.96738 0.81143 0.0
N799 N 0.14023 0.98519 0.8442 0.0
H800 H 0.19611 0.17421 0.05248 0.0
H801 H 0.06108 0.09287 0.12806 0.0
H802 H 0.13532 0.10741 0.03494 0.0
H803 H 0.15334 0.1454 0.14823 0.0
H804 H 0.08111 0.10128 0.09338 0.0
H805 H 0.17418 0.16706 0.08717 0.0
C806 C 0.17839 0.15797 0.05587 0.0
C807 C 0.1678 0.14135 0.04062 0.0
C808 C 0.09693 0.11098 0.10541 0.0
C809 C 0.14179 0.13337 0.0804 0.0
C810 C 0.08568 0.1061 0.12528 0.0
C811 C 0.10578 0.11824 0.14127 0.0
C812 C 0.12822 0.12833 0.10135 0.0
C813 C 0.13658 0.13572 0.13651 0.0
C814 C 0.16567 0.15399 0.0757 0.0
C815 C 0.14382 0.12094 0.04601 0.0
N816 N 0.14686 0.14021 0.11701 0.0
N817 N 0.13163 0.11756 0.0654 0.0
H818 H 0.35021 0.42665 0.54622 0.0
H819 H 0.37105 0.3275 0.63274 0.0
H820 H 0.34765 0.34986 0.53508 0.0
H821 H 0.3789 0.40412 0.64385 0.0
H822 H 0.36565 0.33539 0.59674 0.0
H823 H 0.36323 0.41885 0.58177 0.0
C824 C 0.35264 0.40813 0.5512 0.0
C825 C 0.34783 0.38888 0.53755 0.0
C826 C 0.36881 0.3505 0.60701 0.0
C827 C 0.36238 0.37982 0.57842 0.0
C828 C 0.37184 0.34601 0.62757 0.0
C829 C 0.37507 0.3652 0.64134 0.0
C830 C 0.36873 0.3744 0.60008 0.0
C831 C 0.37665 0.38879 0.63377 0.0
C832 C 0.35994 0.4037 0.57155 0.0
C833 C 0.35057 0.36528 0.54503 0.0
N834 N 0.37309 0.39274 0.61366 0.0
N835 N 0.35763 0.36143 0.56493 0.0
H836 H 0.61072 0.33597 0.99823 0.0
H837 H 0.6661 0.37586 0.88546 0.0
H838 H 0.70862 0.3879 0.9845 0.0
H839 H 0.59542 0.31198 0.90102 0.0
H840 H 0.67169 0.38608 0.92148 0.0
H841 H 0.59446 0.33266 0.9625 0.0
C842 C 0.62882 0.34672 0.98771 0.0
C843 C 0.66166 0.3619 0.99443 0.0
C844 C 0.65454 0.36999 0.91696 0.0
C845 C 0.6428 0.35835 0.9533 0.0
C846 C 0.65115 0.36427 0.89646 0.0
C847 C 0.63049 0.343 0.89039 0.0
C848 C 0.63665 0.35446 0.93134 0.0
C849 C 0.61187 0.32845 0.90515 0.0
C850 C 0.61937 0.34489 0.96728 0.0
C851 C 0.68308 0.37593 0.98005 0.0
N852 N 0.61549 0.3344 0.9249 0.0
N853 N 0.67356 0.37366 0.96014 0.0
H854 H 0.89324 0.17165 0.50394 0.0
H855 H 0.85301 0.14814 0.38666 0.0
H856 H 0.80638 0.11745 0.48176 0.0
H857 H 0.95422 0.19274 0.41007 0.0
H858 H 0.8333 0.1376 0.42109 0.0
H859 H 0.91253 0.18133 0.46938 0.0
C860 C 0.8779 0.16193 0.49179 0.0
C861 C 0.84804 0.14374 0.49579 0.0
C862 C 0.85984 0.14967 0.41866 0.0
C863 C 0.87046 0.15454 0.45605 0.0
C864 C 0.87134 0.15559 0.39898 0.0
C865 C 0.90528 0.1715 0.39535 0.0
C866 C 0.88224 0.15982 0.43488 0.0
C867 C 0.92733 0.18082 0.41203 0.0
C868 C 0.88922 0.16731 0.47204 0.0
C869 C 0.82981 0.13145 0.47939 0.0
N870 N 0.91535 0.17492 0.431 0.0
N871 N 0.84124 0.13711 0.46025 0.0
H872 H 0.7849 0.86819 0.97963 0.0
H873 H 0.97831 0.91316 0.91112 0.0
H874 H 0.90289 0.89555 1.00352 0.0
H875 H 0.85925 0.88765 0.88704 0.0
H876 H 0.95176 0.90589 0.94503 0.0
H877 H 0.81216 0.87411 0.94563 0.0
C878 C 0.81663 0.87533 0.97775 0.0
C879 C 0.84161 0.88136 0.99453 0.0
C880 C 0.93143 0.90184 0.93234 0.0
C881 C 0.87294 0.8884 0.95553 0.0
C882 C 0.94651 0.9061 0.91295 0.0
C883 C 0.92093 0.90115 0.89614 0.0
C884 C 0.89036 0.89256 0.93505 0.0
C885 C 0.88028 0.89154 0.89949 0.0
C886 C 0.8321 0.87882 0.9583 0.0
C887 C 0.88225 0.89092 0.99109 0.0
N888 N 0.86623 0.88765 0.91854 0.0
N889 N 0.89662 0.89411 0.97201 0.0
H890 H 0.72688 0.64537 0.49084 0.0
H891 H 0.57973 0.62419 0.3944 0.0
H892 H 0.59321 0.62927 0.49475 0.0
H893 H 0.71396 0.63835 0.39199 0.0
H894 H 0.58111 0.63207 0.43081 0.0
H895 H 0.71999 0.64884 0.4545 0.0
C896 C 0.6959 0.64292 0.48413 0.0
C897 C 0.66067 0.63679 0.49597 0.0
C898 C 0.61013 0.63384 0.42225 0.0
C899 C 0.65267 0.64032 0.45407 0.0
C900 C 0.60923 0.62953 0.40148 0.0
C901 C 0.64686 0.63044 0.3903 0.0
C902 C 0.64892 0.63912 0.43178 0.0
C903 C 0.68436 0.63722 0.40016 0.0
C904 C 0.69203 0.64476 0.46329 0.0
C905 C 0.62146 0.63354 0.48624 0.0
N906 N 0.68451 0.64107 0.42033 0.0
N907 N 0.61859 0.63513 0.46587 0.0
H908 H 0.29509 0.62803 0.04802 0.0
H909 H 0.43684 0.67709 0.13947 0.0
H910 H 0.40864 0.6705 0.03997 0.0
H911 H 0.31201 0.64649 0.14606 0.0
H912 H 0.43453 0.6675 0.10334 0.0
H913 H 0.30837 0.6274 0.08416 0.0
C914 C 0.3232 0.63691 0.0538 0.0
C915 C 0.35057 0.64953 0.04092 0.0
C916 C 0.40797 0.66249 0.11276 0.0
C917 C 0.36574 0.64912 0.08243 0.0
C918 C 0.40948 0.66777 0.13335 0.0
C919 C 0.37456 0.66252 0.1456 0.0
C920 C 0.37131 0.65184 0.10451 0.0
C921 C 0.33953 0.65079 0.13701 0.0
C922 C 0.33063 0.63667 0.07448 0.0
C923 C 0.38628 0.66092 0.04937 0.0
N924 N 0.33866 0.64598 0.11698 0.0
N925 N 0.39268 0.66058 0.06959 0.0
H926 H 0.1336 0.84892 0.53245 0.0
H927 H 0.14412 0.89745 0.64622 0.0
H928 H 0.17569 0.92066 0.54847 0.0
H929 H 0.12011 0.82338 0.62976 0.0
H930 H 0.1458 0.90805 0.61036 0.0
H931 H 0.12039 0.84069 0.56792 0.0
C932 C 0.1403 0.86293 0.54341 0.0
C933 C 0.15607 0.88549 0.53736 0.0
C934 C 0.13962 0.88953 0.61461 0.0
C935 C 0.14028 0.87627 0.57817 0.0
C936 C 0.13825 0.88356 0.63504 0.0
C937 C 0.13215 0.85951 0.64087 0.0
C938 C 0.13461 0.87131 0.59998 0.0
C939 C 0.12519 0.84211 0.62584 0.0
C940 C 0.1324 0.85827 0.56368 0.0
C941 C 0.16316 0.90308 0.55232 0.0
N942 N 0.12686 0.84831 0.60613 0.0
N943 N 0.15538 0.89808 0.572 0.0
H944 H 0.0912 0.29954 0.37169 0.0
H945 H 0.11386 0.17883 0.30669 0.0
H946 H 0.21085 0.26507 0.35942 0.0
H947 H 0.00202 0.22326 0.30462 0.0
H948 H 0.14836 0.20903 0.32784 0.0
H949 H 0.05616 0.27047 0.34924 0.0
C950 C 0.11008 0.28585 0.36429 0.0
C951 C 0.15404 0.28473 0.36745 0.0
C952 C 0.11627 0.21223 0.32278 0.0
C953 C 0.11417 0.25143 0.3418 0.0
C954 C 0.09659 0.19503 0.31058 0.0
C955 C 0.05507 0.19859 0.3037 0.0
C956 C 0.09407 0.23304 0.32853 0.0
C957 C 0.0339 0.21965 0.30973 0.0
C958 C 0.09011 0.26936 0.3514 0.0
C959 C 0.17699 0.26677 0.35729 0.0
N960 N 0.05358 0.23607 0.32186 0.0
N961 N 0.15677 0.25078 0.34504 0.0
H962 H 0.33426 0.25908 0.87884 0.0
H963 H 0.45078 0.29649 0.77643 0.0
H964 H 0.35029 0.2115 0.82789 0.0
H965 H 0.43501 0.34541 0.8264 0.0
H966 H 0.41287 0.2654 0.79512 0.0
H967 H 0.36978 0.29124 0.86 0.0
C968 C 0.3451 0.25539 0.8637 0.0
C969 C 0.33954 0.23243 0.85503 0.0
C970 C 0.4176 0.28292 0.80205 0.0
C971 C 0.38042 0.26913 0.83343 0.0
C972 C 0.43903 0.30073 0.79131 0.0
C973 C 0.44553 0.32363 0.79976 0.0
C974 C 0.40287 0.28792 0.82156 0.0
C975 C 0.43064 0.32795 0.81933 0.0
C976 C 0.36555 0.27374 0.85298 0.0
C977 C 0.35457 0.22871 0.83538 0.0
N978 N 0.40993 0.31027 0.82957 0.0
N979 N 0.37427 0.24681 0.8253 0.0
H980 H 0.68052 0.21954 0.69726 0.0
H981 H 0.54344 0.34037 0.70543 0.0
H982 H 0.64638 0.26422 0.64683 0.0
H983 H 0.59291 0.30406 0.75768 0.0
H984 H 0.57859 0.31104 0.68404 0.0
H985 H 0.64704 0.24889 0.71988 0.0
C986 C 0.66618 0.23551 0.69092 0.0
C987 C 0.66608 0.23925 0.67002 0.0
C988 C 0.58193 0.30945 0.70018 0.0
C989 C 0.62734 0.27274 0.69584 0.0
C990 C 0.56173 0.32623 0.71247 0.0
C991 C 0.56516 0.32477 0.73346 0.0
C992 C 0.60577 0.29084 0.70881 0.0
C993 C 0.58944 0.30595 0.74158 0.0
C994 C 0.64693 0.2522 0.70385 0.0
C995 C 0.64655 0.26019 0.66273 0.0
N996 N 0.60876 0.28967 0.72923 0.0
N997 N 0.62799 0.27603 0.67558 0.0
H998 H 0.82263 0.30867 0.21314 0.0
H999 H 0.94783 0.18324 0.20817 0.0
H1000 H 0.84216 0.26895 0.15799 0.0
H1001 H 0.92487 0.22306 0.26294 0.0
H1002 H 0.9099 0.21431 0.18938 0.0
H1003 H 0.86044 0.27743 0.2314 0.0
C1004 C 0.83461 0.29328 0.20485 0.0
C1005 C 0.82876 0.2914 0.18397 0.0
C1006 C 0.91307 0.21622 0.20551 0.0
C1007 C 0.87286 0.2555 0.20489 0.0
C1008 C 0.93473 0.19849 0.21626 0.0
C1009 C 0.93936 0.20048 0.23719 0.0
C1010 C 0.89597 0.23615 0.21575 0.0
C1011 C 0.92174 0.22064 0.24686 0.0
C1012 C 0.85647 0.27547 0.21531 0.0
C1013 C 0.84605 0.27127 0.17405 0.0
N1014 N 0.90089 0.23765 0.23607 0.0
N1015 N 0.86719 0.25408 0.1846 0.0
H1016 H 0.91481 0.72458 0.66019 0.0
H1017 H 0.88703 0.83734 0.73437 0.0
H1018 H 0.79362 0.75273 0.67876 0.0
H1019 H 0.00764 0.80313 0.72364 0.0
H1020 H 0.85279 0.80686 0.71353 0.0
H1021 H 0.94988 0.75359 0.68261 0.0
C1022 C 0.89558 0.73687 0.66896 0.0
C1023 C 0.85118 0.73624 0.66755 0.0
C1024 C 0.88673 0.80592 0.71576 0.0
C1025 C 0.89112 0.76947 0.69326 0.0
C1026 C 0.90637 0.8233 0.7278 0.0
C1027 C 0.95031 0.82268 0.73107 0.0
C1028 C 0.91117 0.78787 0.70657 0.0
C1029 C 0.97369 0.80433 0.72161 0.0
C1030 C 0.91561 0.75334 0.68184 0.0
C1031 C 0.82787 0.75238 0.67949 0.0
N1032 N 0.95385 0.78769 0.70976 0.0
N1033 N 0.8481 0.76839 0.69173 0.0
H1034 H 0.72065 0.76898 0.18041 0.0
H1035 H 0.50898 0.72325 0.23465 0.0
H1036 H 0.6011 0.8063 0.17679 0.0
H1037 H 0.62184 0.67996 0.22942 0.0
H1038 H 0.5428 0.75433 0.21416 0.0
H1039 H 0.68567 0.73651 0.19889 0.0
C1040 C 0.68696 0.77024 0.18327 0.0
C1041 C 0.66388 0.79051 0.17704 0.0
C1042 C 0.56022 0.73804 0.21752 0.0
C1043 C 0.62371 0.7535 0.19854 0.0
C1044 C 0.5409 0.72026 0.22922 0.0
C1045 C 0.56285 0.69909 0.23404 0.0
C1046 C 0.60185 0.73468 0.21059 0.0
C1047 C 0.60412 0.69623 0.22653 0.0
C1048 C 0.66705 0.75174 0.19395 0.0
C1049 C 0.62038 0.79126 0.18154 0.0
N1050 N 0.62234 0.71386 0.21527 0.0
N1051 N 0.6018 0.77311 0.19206 0.0
H1052 H 0.32301 0.79684 0.33976 0.0
H1053 H 0.46856 0.67887 0.33175 0.0
H1054 H 0.372 0.75862 0.39111 0.0
H1055 H 0.43162 0.72108 0.28033 0.0
H1056 H 0.43187 0.7075 0.3536 0.0
H1057 H 0.36138 0.7691 0.31765 0.0
C1058 C 0.34198 0.78274 0.34643 0.0
C1059 C 0.34399 0.78009 0.36742 0.0
C1060 C 0.43179 0.71054 0.33754 0.0
C1061 C 0.3877 0.748 0.34208 0.0
C1062 C 0.4528 0.69417 0.32503 0.0
C1063 C 0.45316 0.69749 0.30413 0.0
C1064 C 0.41077 0.73041 0.32914 0.0
C1065 C 0.43203 0.71768 0.29634 0.0
C1066 C 0.36373 0.76681 0.33376 0.0
C1067 C 0.36873 0.76119 0.37508 0.0
N1068 N 0.41164 0.73332 0.30882 0.0
N1069 N 0.38947 0.74591 0.36245 0.0
H1070 H 0.1532 0.7512 0.87963 0.0
H1071 H 0.09583 0.80353 0.77086 0.0
H1072 H 0.20336 0.72307 0.82395 0.0
H1073 H 0.04676 0.83329 0.82622 0.0
H1074 H 0.13486 0.77369 0.79024 0.0
H1075 H 0.11309 0.78109 0.86051 0.0
C1076 C 0.15574 0.75127 0.8634 0.0
C1077 C 0.18194 0.73466 0.85342 0.0
C1078 C 0.11556 0.78674 0.79817 0.0
C1079 C 0.13626 0.76888 0.83143 0.0
C1080 C 0.09323 0.80382 0.7871 0.0
C1081 C 0.06803 0.82105 0.7969 0.0
C1082 C 0.11266 0.78676 0.81924 0.0
C1083 C 0.06579 0.82039 0.81799 0.0
C1084 C 0.13297 0.7684 0.8525 0.0
C1085 C 0.18423 0.73576 0.83235 0.0
N1086 N 0.08784 0.80356 0.82845 0.0
N1087 N 0.16173 0.75253 0.8221 0.0
loop_
_geom_bond_atom_site_label_1
_geom_bond_atom_site_label_2
_geom_bond_distance
_geom_bond_site_symmetry_2
_ccdc_geom_bond_type
C0 C1 1.264 . S
C0 C5 1.479 . S
C0 C10 1.465 . S
C1 C0 1.264 . S
C1 C3 1.339 . S
C1 H28 0.931 . S
C2 C3 1.395 . S
C2 C4 1.320 . S
C3 C1 1.339 . S
C3 C2 1.395 . S
C3 H29 0.929 . S
C4 C2 1.320 . S
C4 C5 1.405 . S
C4 H30 0.930 . S
C5 C0 1.479 . S
C5 C4 1.405 . S
C5 H31 0.931 . S
U6 O7 2.454 . S
U6 O8 2.458 . S
U6 C9 2.984 . S
U6 C10 2.847 . S
U6 C23 2.882 . S
U6 O24 2.441 . S
U6 O25 2.420 . S
U6 O26 2.455 . S
U6 O27 2.449 . S
O7 U6 2.454 . S
O7 C9 1.353 . S
O8 U6 2.458 . S
O8 C9 1.286 . S
C9 U6 2.984 . S
C9 O7 1.353 . S
C9 O8 1.286 . S
C9 C11 1.363 . S
C10 C0 1.465 . S
C10 U6 2.847 . S
C10 O24 1.249 . S
C10 O25 1.202 . S
C11 C9 1.363 . S
C11 C13 1.408 . S
C11 C16 1.342 . S
C12 C13 1.310 . S
C12 C15 1.461 . S
C12 H32 0.932 . S
C13 C11 1.408 . S
C13 C12 1.310 . S
C13 H33 0.930 . S
C14 C15 1.474 . S
C14 C16 1.285 . S
C14 H34 0.929 . S
C15 C12 1.461 . S
C15 C14 1.474 . S
C16 C11 1.342 . S
C16 C14 1.285 . S
C16 H35 0.930 . S
C17 C20 1.424 . S
C17 C22 1.245 . S
C17 C23 1.428 . S
C18 C21 1.260 . S
C18 C22 1.477 . S
C18 H36 0.932 . S
C19 C20 1.384 . S
C19 C21 1.479 . S
C19 H37 0.929 . S
C20 C17 1.424 . S
C20 C19 1.384 . S
C20 H38 0.928 . S
C21 C18 1.260 . S
C21 C19 1.479 . S
C22 C17 1.245 . S
C22 C18 1.477 . S
C22 H39 0.932 . S
C23 U6 2.882 . S
C23 C17 1.428 . S
C23 O26 1.301 . S
C23 O27 1.282 . S
O24 U6 2.441 . S
O24 C10 1.249 . S
O25 U6 2.420 . S
O25 C10 1.202 . S
O26 U6 2.455 . S
O26 C23 1.301 . S
O27 U6 2.449 . S
O27 C23 1.282 . S
H28 C1 0.931 . S
H29 C3 0.929 . S
H30 C4 0.930 . S
H31 C5 0.931 . S
H32 C12 0.932 . S
H33 C13 0.930 . S
H34 C14 0.929 . S
H35 C16 0.930 . S
H36 C18 0.932 . S
H37 C19 0.929 . S
H38 C20 0.928 . S
H39 C22 0.932 . S
C40 C41 1.264 . S
C40 C45 1.479 . S
C40 C50 1.465 . S
C41 C40 1.264 . S
C41 C43 1.339 . S
C41 H68 0.931 . S
C42 C43 1.395 1_554 S
C42 C44 1.320 . S
C43 C41 1.339 . S
C43 C42 1.395 1_556 S
C43 H69 0.914 1_556 S
C44 C42 1.320 . S
C44 C45 1.405 1_554 S
C44 H70 0.930 . S
C45 C40 1.479 . S
C45 C44 1.405 1_556 S
C45 H71 0.931 . S
U46 O47 2.454 . S
U46 O48 2.458 . S
U46 C49 2.984 . S
U46 C50 2.847 . S
U46 C63 2.882 . S
U46 O64 2.441 . S
U46 O65 2.420 . S
U46 O66 2.455 . S
U46 O67 2.449 . S
O47 U46 2.454 . S
O47 C49 1.353 . S
O48 U46 2.458 . S
O48 C49 1.286 . S
C49 U46 2.984 . S
C49 O47 1.353 . S
C49 O48 1.286 . S
C49 C51 1.363 . S
C50 C40 1.465 . S
C50 U46 2.847 . S
C50 O64 1.249 . S
C50 O65 1.202 . S
C51 C49 1.363 . S
C51 C53 1.408 . S
C51 C56 1.342 . S
C52 C53 1.310 . S
C52 C55 1.461 . S
C52 H72 0.932 . S
C53 C51 1.408 . S
C53 C52 1.310 . S
C53 H73 0.930 . S
C54 C55 1.474 . S
C54 C56 1.285 . S
C54 H74 0.929 . S
C55 C52 1.461 . S
C55 C54 1.474 . S
C56 C51 1.342 . S
C56 C54 1.285 . S
C56 H75 0.930 . S
C57 C60 1.424 . S
C57 C62 1.245 . S
C57 C63 1.428 . S
C58 C61 1.260 . S
C58 C62 1.477 . S
C58 H76 0.932 . S
C59 C60 1.384 . S
C59 C61 1.479 . S
C59 H77 0.929 . S
C60 C57 1.424 . S
C60 C59 1.384 . S
C60 H78 0.928 . S
C61 C58 1.260 . S
C61 C59 1.479 . S
C62 C57 1.245 . S
C62 C58 1.477 . S
C62 H79 0.932 . S
C63 U46 2.882 . S
C63 C57 1.428 . S
C63 O66 1.301 . S
C63 O67 1.282 . S
O64 U46 2.441 . S
O64 C50 1.249 . S
O65 U46 2.420 . S
O65 C50 1.202 . S
O66 U46 2.455 . S
O66 C63 1.301 . S
O67 U46 2.449 . S
O67 C63 1.282 . S
H68 C41 0.931 . S
H69 C43 0.914 1_554 S
H70 C44 0.930 . S
H71 C45 0.931 . S
H72 C52 0.932 . S
H73 C53 0.930 . S
H74 C54 0.929 . S
H75 C56 0.930 . S
H76 C58 0.932 . S
H77 C59 0.929 . S
H78 C60 0.928 . S
H79 C62 0.932 . S
C80 C81 1.264 . S
C80 C85 1.479 . S
C80 C90 1.465 . S
C81 C80 1.264 . S
C81 C83 1.339 . S
C81 H108 0.931 . S
C82 C83 1.395 . S
C82 C84 1.320 . S
C83 C81 1.339 . S
C83 C82 1.395 . S
C83 H109 0.929 . S
C84 C82 1.320 . S
C84 C85 1.405 . S
C84 H110 0.930 . S
C85 C80 1.479 . S
C85 C84 1.405 . S
C85 H111 0.931 . S
U86 O87 2.454 . S
U86 O88 2.458 . S
U86 C89 2.984 . S
U86 C90 2.847 . S
U86 C103 2.882 . S
U86 O104 2.441 . S
U86 O105 2.420 . S
U86 O106 2.455 . S
U86 O107 2.449 . S
O87 U86 2.454 . S
O87 C89 1.353 . S
O88 U86 2.458 . S
O88 C89 1.286 . S
C89 U86 2.984 . S
C89 O87 1.353 . S
C89 O88 1.286 . S
C89 C91 1.363 . S
C90 C80 1.465 . S
C90 U86 2.847 . S
C90 O104 1.249 . S
C90 O105 1.202 . S
C91 C89 1.363 . S
C91 C93 1.408 . S
C91 C96 1.342 . S
C92 C93 1.310 . S
C92 C95 1.461 . S
C92 H112 0.932 . S
C93 C91 1.408 . S
C93 C92 1.310 . S
C93 H113 0.930 . S
C94 C95 1.474 . S
C94 C96 1.285 . S
C94 H114 0.929 . S
C95 C92 1.461 . S
C95 C94 1.474 . S
C96 C91 1.342 . S
C96 C94 1.285 . S
C96 H115 0.930 . S
C97 C100 1.424 . S
C97 C102 1.245 . S
C97 C103 1.428 . S
C98 C101 1.260 . S
C98 C102 1.477 . S
C98 H116 0.932 . S
C99 C100 1.384 . S
C99 C101 1.479 . S
C99 H117 0.929 . S
C100 C97 1.424 . S
C100 C99 1.384 . S
C100 H118 0.928 . S
C101 C98 1.260 . S
C101 C99 1.479 . S
C102 C97 1.245 . S
C102 C98 1.477 . S
C102 H119 0.932 . S
C103 U86 2.882 . S
C103 C97 1.428 . S
C103 O106 1.301 . S
C103 O107 1.282 . S
O104 U86 2.441 . S
O104 C90 1.249 . S
O105 U86 2.420 . S
O105 C90 1.202 . S
O106 U86 2.455 . S
O106 C103 1.301 . S
O107 U86 2.449 . S
O107 C103 1.282 . S
H108 C81 0.931 . S
H109 C83 0.929 . S
H110 C84 0.930 . S
H111 C85 0.931 . S
H112 C92 0.932 . S
H113 C93 0.930 . S
H114 C94 0.929 . S
H115 C96 0.930 . S
H116 C98 0.932 . S
H117 C99 0.929 . S
H118 C100 0.928 . S
H119 C102 0.932 . S
C120 C121 1.264 . S
C120 C125 1.479 . S
C120 C130 1.465 . S
C121 C120 1.264 . S
C121 C123 1.339 . S
C121 H148 0.931 . S
C122 C123 1.395 1_556 S
C122 C124 1.320 1_556 S
C123 C121 1.339 . S
C123 C122 1.395 1_554 S
C123 H149 0.929 . S
C124 C122 1.320 1_554 S
C124 C125 1.405 . S
C124 H150 0.930 1_554 S
C125 C120 1.479 . S
C125 C124 1.405 . S
C125 H151 0.931 . S
U126 O127 2.454 . S
U126 O128 2.458 . S
U126 C129 2.984 . S
U126 C130 2.847 . S
U126 C143 2.882 . S
U126 O144 2.441 . S
U126 O145 2.420 . S
U126 O146 2.455 . S
U126 O147 2.449 . S
O127 U126 2.454 . S
O127 C129 1.353 . S
O128 U126 2.458 . S
O128 C129 1.286 . S
C129 U126 2.984 . S
C129 O127 1.353 . S
C129 O128 1.286 . S
C129 C131 1.363 . S
C130 C120 1.465 . S
C130 U126 2.847 . S
C130 O144 1.249 . S
C130 O145 1.202 . S
C131 C129 1.363 . S
C131 C133 1.408 . S
C131 C136 1.342 . S
C132 C133 1.310 . S
C132 C135 1.461 . S
C132 H152 0.932 . S
C133 C131 1.408 . S
C133 C132 1.310 . S
C133 H153 0.930 . S
C134 C135 1.474 . S
C134 C136 1.285 . S
C134 H154 0.929 . S
C135 C132 1.461 . S
C135 C134 1.474 . S
C136 C131 1.342 . S
C136 C134 1.285 . S
C136 H155 0.930 . S
C137 C140 1.424 . S
C137 C142 1.245 . S
C137 C143 1.428 . S
C138 C141 1.260 . S
C138 C142 1.477 . S
C138 H156 0.932 . S
C139 C140 1.384 . S
C139 C141 1.479 . S
C139 H157 0.929 . S
C140 C137 1.424 . S
C140 C139 1.384 . S
C140 H158 0.928 . S
C141 C138 1.260 . S
C141 C139 1.479 . S
C142 C137 1.245 . S
C142 C138 1.477 . S
C142 H159 0.932 . S
C143 U126 2.882 . S
C143 C137 1.428 . S
C143 O146 1.301 . S
C143 O147 1.282 . S
O144 U126 2.441 . S
O144 C130 1.249 . S
O145 U126 2.420 . S
O145 C130 1.202 . S
O146 U126 2.455 . S
O146 C143 1.301 . S
O147 U126 2.449 . S
O147 C143 1.282 . S
H148 C121 0.931 . S
H149 C123 0.929 . S
H150 C124 0.930 1_556 S
H151 C125 0.931 . S
H152 C132 0.932 . S
H153 C133 0.930 . S
H154 C134 0.929 . S
H155 C136 0.930 . S
H156 C138 0.932 . S
H157 C139 0.929 . S
H158 C140 0.928 . S
H159 C142 0.932 . S
C160 C161 1.264 . S
C160 C165 1.479 . S
C160 C170 1.465 . S
C161 C160 1.264 . S
C161 C163 1.339 . S
C161 H188 0.931 . S
C162 C163 1.395 . S
C162 C164 1.320 . S
C163 C161 1.339 . S
C163 C162 1.395 . S
C163 H189 0.929 . S
C164 C162 1.320 . S
C164 C165 1.405 . S
C164 H190 0.930 . S
C165 C160 1.479 . S
C165 C164 1.405 . S
C165 H191 0.931 . S
U166 O167 2.454 . S
U166 O168 2.458 . S
U166 C169 2.984 . S
U166 C170 2.847 . S
U166 C183 2.882 . S
U166 O184 2.441 . S
U166 O185 2.420 . S
U166 O186 2.455 . S
U166 O187 2.449 . S
O167 U166 2.454 . S
O167 C169 1.353 . S
O168 U166 2.458 . S
O168 C169 1.286 . S
C169 U166 2.984 . S
C169 O167 1.353 . S
C169 O168 1.286 . S
C169 C171 1.363 . S
C170 C160 1.465 . S
C170 U166 2.847 . S
C170 O184 1.249 . S
C170 O185 1.202 . S
C171 C169 1.363 . S
C171 C173 1.408 . S
C171 C176 1.342 . S
C172 C173 1.310 . S
C172 C175 1.461 . S
C172 H192 0.932 . S
C173 C171 1.408 . S
C173 C172 1.310 . S
C173 H193 0.930 . S
C174 C175 1.474 . S
C174 C176 1.285 . S
C174 H194 0.929 . S
C175 C172 1.461 . S
C175 C174 1.474 . S
C176 C171 1.342 . S
C176 C174 1.285 . S
C176 H195 0.930 . S
C177 C180 1.424 . S
C177 C182 1.245 . S
C177 C183 1.428 . S
C178 C181 1.260 . S
C178 C182 1.477 . S
C178 H196 0.932 . S
C179 C180 1.384 . S
C179 C181 1.479 . S
C179 H197 0.929 . S
C180 C177 1.424 . S
C180 C179 1.384 . S
C180 H198 0.928 . S
C181 C178 1.260 . S
C181 C179 1.479 . S
C182 C177 1.245 . S
C182 C178 1.477 . S
C182 H199 0.932 . S
C183 U166 2.882 . S
C183 C177 1.428 . S
C183 O186 1.301 . S
C183 O187 1.282 . S
O184 U166 2.441 . S
O184 C170 1.249 . S
O185 U166 2.420 . S
O185 C170 1.202 . S
O186 U166 2.455 . S
O186 C183 1.301 . S
O187 U166 2.449 . S
O187 C183 1.282 . S
H188 C161 0.931 . S
H189 C163 0.929 . S
H190 C164 0.930 . S
H191 C165 0.931 . S
H192 C172 0.932 . S
H193 C173 0.930 . S
H194 C174 0.929 . S
H195 C176 0.930 . S
H196 C178 0.932 . S
H197 C179 0.929 . S
H198 C180 0.928 . S
H199 C182 0.932 . S
C200 C201 1.264 . S
C200 C205 1.479 . S
C200 C210 1.465 . S
C201 C200 1.264 . S
C201 C203 1.339 . S
C201 H228 0.931 . S
C202 C203 1.395 1_556 S
C202 C204 1.320 . S
C203 C201 1.339 . S
C203 C202 1.395 1_554 S
C203 H229 0.929 1_554 S
C204 C202 1.320 . S
C204 C205 1.405 1_556 S
C204 H230 0.930 . S
C205 C200 1.479 . S
C205 C204 1.405 1_554 S
C205 H231 0.931 . S
U206 O207 2.454 . S
U206 O208 2.458 . S
U206 C209 2.984 . S
U206 C210 2.847 . S
U206 C223 2.882 . S
U206 O224 2.441 . S
U206 O225 2.420 . S
U206 O226 2.455 . S
U206 O227 2.449 . S
O207 U206 2.454 . S
O207 C209 1.353 . S
O208 U206 2.458 . S
O208 C209 1.286 . S
C209 U206 2.984 . S
C209 O207 1.353 . S
C209 O208 1.286 . S
C209 C211 1.363 . S
C210 C200 1.465 . S
C210 U206 2.847 . S
C210 O224 1.249 . S
C210 O225 1.202 . S
C211 C209 1.363 . S
C211 C213 1.408 . S
C211 C216 1.342 . S
C212 C213 1.310 . S
C212 C215 1.461 . S
C212 H232 0.932 . S
C213 C211 1.408 . S
C213 C212 1.310 . S
C213 H233 0.930 . S
C214 C215 1.474 . S
C214 C216 1.285 . S
C214 H234 0.929 . S
C215 C212 1.461 . S
C215 C214 1.474 . S
C216 C211 1.342 . S
C216 C214 1.285 . S
C216 H235 0.930 . S
C217 C220 1.424 . S
C217 C222 1.245 . S
C217 C223 1.428 . S
C218 C221 1.260 . S
C218 C222 1.477 . S
C218 H236 0.932 . S
C219 C220 1.384 . S
C219 C221 1.479 . S
C219 H237 0.929 . S
C220 C217 1.424 . S
C220 C219 1.384 . S
C220 H238 0.928 . S
C221 C218 1.260 . S
C221 C219 1.479 . S
C222 C217 1.245 . S
C222 C218 1.477 . S
C222 H239 0.932 . S
C223 U206 2.882 . S
C223 C217 1.428 . S
C223 O226 1.301 . S
C223 O227 1.282 . S
O224 U206 2.441 . S
O224 C210 1.249 . S
O225 U206 2.420 . S
O225 C210 1.202 . S
O226 U206 2.455 . S
O226 C223 1.301 . S
O227 U206 2.449 . S
O227 C223 1.282 . S
H228 C201 0.931 . S
H229 C203 0.929 1_556 S
H230 C204 0.930 . S
H231 C205 0.931 . S
H232 C212 0.932 . S
H233 C213 0.930 . S
H234 C214 0.929 . S
H235 C216 0.930 . S
H236 C218 0.932 . S
H237 C219 0.929 . S
H238 C220 0.928 . S
H239 C222 0.932 . S
C240 C241 1.264 . S
C240 C245 1.479 . S
C240 C250 1.465 . S
C241 C240 1.264 . S
C241 C243 1.339 . S
C241 H268 0.931 . S
C242 C243 1.395 . S
C242 C244 1.320 . S
C243 C241 1.339 . S
C243 C242 1.395 . S
C243 H269 0.929 . S
C244 C242 1.320 . S
C244 C245 1.405 . S
C244 H270 0.930 . S
C245 C240 1.479 . S
C245 C244 1.405 . S
C245 H271 0.931 . S
U246 O247 2.454 . S
U246 O248 2.458 . S
U246 C249 2.984 . S
U246 C250 2.847 . S
U246 C263 2.882 . S
U246 O264 2.441 . S
U246 O265 2.420 . S
U246 O266 2.455 . S
U246 O267 2.449 . S
O247 U246 2.454 . S
O247 C249 1.353 . S
O248 U246 2.458 . S
O248 C249 1.286 . S
C249 U246 2.984 . S
C249 O247 1.353 . S
C249 O248 1.286 . S
C249 C251 1.363 . S
C250 C240 1.465 . S
C250 U246 2.847 . S
C250 O264 1.249 . S
C250 O265 1.202 . S
C251 C249 1.363 . S
C251 C253 1.408 . S
C251 C256 1.342 . S
C252 C253 1.310 . S
C252 C255 1.461 . S
C252 H272 0.932 . S
C253 C251 1.408 . S
C253 C252 1.310 . S
C253 H273 0.930 . S
C254 C255 1.474 . S
C254 C256 1.285 . S
C254 H274 0.929 . S
C255 C252 1.461 . S
C255 C254 1.474 . S
C256 C251 1.342 . S
C256 C254 1.285 . S
C256 H275 0.930 . S
C257 C260 1.424 . S
C257 C262 1.245 . S
C257 C263 1.428 . S
C258 C261 1.260 . S
C258 C262 1.477 . S
C258 H276 0.932 . S
C259 C260 1.384 . S
C259 C261 1.479 . S
C259 H277 0.929 . S
C260 C257 1.424 . S
C260 C259 1.384 . S
C260 H278 0.928 . S
C261 C258 1.260 . S
C261 C259 1.479 . S
C262 C257 1.245 . S
C262 C258 1.477 . S
C262 H279 0.932 . S
C263 U246 2.882 . S
C263 C257 1.428 . S
C263 O266 1.301 . S
C263 O267 1.282 . S
O264 U246 2.441 . S
O264 C250 1.249 . S
O265 U246 2.420 . S
O265 C250 1.202 . S
O266 U246 2.455 . S
O266 C263 1.301 . S
O267 U246 2.449 . S
O267 C263 1.282 . S
H268 C241 0.931 . S
H269 C243 0.929 . S
H270 C244 0.930 . S
H271 C245 0.931 . S
H272 C252 0.932 . S
H273 C253 0.930 . S
H274 C254 0.929 . S
H275 C256 0.930 . S
H276 C258 0.932 . S
H277 C259 0.929 . S
H278 C260 0.928 . S
H279 C262 0.932 . S
C280 C281 1.264 . S
C280 C285 1.479 . S
C280 C290 1.465 . S
C281 C280 1.264 . S
C281 C283 1.339 . S
C281 H308 0.931 . S
C282 C283 1.395 1_554 S
C282 C284 1.314 1_554 S
C283 C281 1.339 . S
C283 C282 1.395 1_556 S
C283 H309 0.929 1_556 S
C284 C282 1.314 1_556 S
C284 C285 1.419 . S
C284 H310 0.922 1_556 S
C285 C280 1.479 . S
C285 C284 1.419 . S
C285 H311 0.931 . S
U286 O287 2.454 . S
U286 O288 2.458 . S
U286 C289 2.984 . S
U286 C290 2.847 . S
U286 C303 2.882 . S
U286 O304 2.441 . S
U286 O305 2.420 . S
U286 O306 2.455 . S
U286 O307 2.449 . S
O287 U286 2.454 . S
O287 C289 1.353 . S
O288 U286 2.458 . S
O288 C289 1.286 . S
C289 U286 2.984 . S
C289 O287 1.353 . S
C289 O288 1.286 . S
C289 C291 1.363 . S
C290 C280 1.465 . S
C290 U286 2.847 . S
C290 O304 1.249 . S
C290 O305 1.202 . S
C291 C289 1.363 . S
C291 C293 1.408 . S
C291 C296 1.342 . S
C292 C293 1.310 . S
C292 C295 1.461 . S
C292 H312 0.932 . S
C293 C291 1.408 . S
C293 C292 1.310 . S
C293 H313 0.930 . S
C294 C295 1.474 . S
C294 C296 1.285 . S
C294 H314 0.929 . S
C295 C292 1.461 . S
C295 C294 1.474 . S
C296 C291 1.342 . S
C296 C294 1.285 . S
C296 H315 0.930 . S
C297 C300 1.424 . S
C297 C302 1.245 . S
C297 C303 1.428 . S
C298 C301 1.260 . S
C298 C302 1.477 . S
C298 H316 0.932 . S
C299 C300 1.384 . S
C299 C301 1.479 . S
C299 H317 0.929 . S
C300 C297 1.424 . S
C300 C299 1.384 . S
C300 H318 0.928 . S
C301 C298 1.260 . S
C301 C299 1.479 . S
C302 C297 1.245 . S
C302 C298 1.477 . S
C302 H319 0.932 . S
C303 U286 2.882 . S
C303 C297 1.428 . S
C303 O306 1.301 . S
C303 O307 1.282 . S
O304 U286 2.441 . S
O304 C290 1.249 . S
O305 U286 2.420 . S
O305 C290 1.202 . S
O306 U286 2.455 . S
O306 C303 1.301 . S
O307 U286 2.449 . S
O307 C303 1.282 . S
H308 C281 0.931 . S
H309 C283 0.929 1_554 S
H310 C284 0.922 1_554 S
H311 C285 0.931 . S
H312 C292 0.932 . S
H313 C293 0.930 . S
H314 C294 0.929 . S
H315 C296 0.930 . S
H316 C298 0.932 . S
H317 C299 0.929 . S
H318 C300 0.928 . S
H319 C302 0.932 . S
Eu320 N349 2.600 . S
Eu320 N355 2.562 . S
Eu320 O364 2.462 . S
Eu320 O365 2.373 . S
Eu320 O367 2.432 . S
Eu320 O368 2.291 . S
Eu320 O372 2.335 . S
Eu320 O375 2.372 . S
Eu320 C384 2.787 . S
C321 N322 1.365 . S
C321 C324 1.405 . S
C321 C328 1.448 . S
N322 C321 1.365 . S
N322 C325 1.319 . S
N322 Eu331 2.600 . S
C323 C325 1.397 . S
C323 C326 1.367 . S
C323 H343 0.931 . S
C324 C321 1.405 . S
C324 C326 1.403 . S
C324 C330 1.439 . S
C325 N322 1.319 . S
C325 C323 1.397 . S
C325 H336 0.930 . S
C326 C323 1.367 . S
C326 C324 1.403 . S
C326 H347 0.929 . S
C327 C328 1.430 . S
C327 C329 1.387 . S
C327 C333 1.404 . S
C328 C321 1.448 . S
C328 C327 1.430 . S
C328 N332 1.351 . S
C329 C327 1.387 . S
C329 C330 1.374 . S
C329 H344 0.931 . S
C330 C324 1.439 . S
C330 C329 1.374 . S
C330 H345 0.931 . S
Eu331 N322 2.600 . S
Eu331 N332 2.562 . S
Eu331 O366 2.334 1_655 S
Eu331 O369 2.372 . S
Eu331 O370 2.462 . S
Eu331 O371 2.373 . S
Eu331 O373 2.432 . S
Eu331 O374 2.291 1_655 S
Eu331 C395 2.787 . S
N332 C328 1.351 . S
N332 Eu331 2.562 . S
N332 C334 1.325 . S
C333 C327 1.404 . S
C333 C335 1.366 . S
C333 H341 0.930 . S
C334 N332 1.325 . S
C334 C335 1.416 . S
C334 H340 0.929 . S
C335 C333 1.366 . S
C335 C334 1.416 . S
C335 H337 0.930 . S
H336 C325 0.930 . S
H337 C335 0.930 . S
H338 C353 0.930 . S
H339 C360 0.930 . S
H340 C334 0.929 . S
H341 C333 0.930 . S
H342 C356 0.929 . S
H343 C323 0.931 . S
H344 C329 0.931 . S
H345 C330 0.931 . S
H346 C351 0.931 . S
H347 C326 0.929 . S
H348 C359 0.930 . S
N349 Eu320 2.600 . S
N349 C350 1.365 . S
N349 C353 1.319 . S
C350 N349 1.365 . S
C350 C352 1.405 . S
C350 C358 1.448 . S
C351 H346 0.931 . S
C351 C353 1.397 . S
C351 C354 1.367 . S
C352 C350 1.405 . S
C352 C354 1.403 . S
C352 C385 1.439 . S
C353 H338 0.930 . S
C353 N349 1.319 . S
C353 C351 1.397 . S
C354 C351 1.367 . S
C354 C352 1.403 . S
C354 H361 0.929 . S
N355 Eu320 2.562 . S
N355 C356 1.325 . S
N355 C358 1.351 . S
C356 H342 0.929 . S
C356 N355 1.325 . S
C356 C360 1.416 . S
C357 C358 1.430 . S
C357 C359 1.404 . S
C357 C386 1.387 . S
C358 C350 1.448 . S
C358 N355 1.351 . S
C358 C357 1.430 . S
C359 H348 0.930 . S
C359 C357 1.404 . S
C359 C360 1.366 . S
C360 H339 0.930 . S
C360 C356 1.416 . S
C360 C359 1.366 . S
H361 C354 0.929 . S
H362 C385 0.931 . S
H363 C386 0.931 . S
O364 Eu320 2.462 . S
O364 C384 1.252 . S
O365 Eu320 2.373 . S
O365 C376 1.249 . S
O366 Eu331 2.334 1_455 S
O366 C376 1.265 . S
O367 Eu320 2.432 . S
O367 C384 1.268 . S
O368 Eu320 2.291 . S
O368 C383 1.255 1_455 S
O369 Eu331 2.372 . S
O369 C383 1.257 . S
O370 Eu331 2.462 . S
O370 C395 1.252 . S
O371 Eu331 2.373 . S
O371 C387 1.249 . S
O372 Eu320 2.335 . S
O372 C387 1.264 1_455 S
O373 Eu331 2.432 . S
O373 C395 1.268 . S
O374 Eu331 2.291 1_455 S
O374 C394 1.255 . S
O375 Eu320 2.372 . S
O375 C394 1.257 . S
C376 O365 1.249 . S
C376 O366 1.265 . S
C377 C380 1.382 . S
C377 C382 1.390 . S
C377 C384 1.506 . S
C378 C379 1.398 . S
C378 C382 1.392 . S
C379 C378 1.398 . S
C379 C381 1.372 . S
C379 H396 0.931 . S
C380 C377 1.382 . S
C380 C381 1.390 . S
C380 H397 0.931 . S
C381 C379 1.372 . S
C381 C380 1.390 . S
C381 H398 0.929 . S
C382 C377 1.390 . S
C382 C378 1.392 . S
C382 H399 0.930 . S
C383 O368 1.255 1_655 S
C383 O369 1.257 . S
C384 Eu320 2.787 . S
C384 O364 1.252 . S
C384 O367 1.268 . S
C384 C377 1.506 . S
C385 C352 1.439 . S
C385 H362 0.931 . S
C385 C386 1.374 . S
C386 C357 1.387 . S
C386 H363 0.931 . S
C386 C385 1.374 . S
C387 O371 1.249 . S
C387 O372 1.264 1_655 S
C388 C391 1.382 . S
C388 C392 1.390 . S
C388 C395 1.506 . S
C389 C390 1.398 . S
C389 C392 1.392 . S
C390 C389 1.398 . S
C390 C393 1.372 . S
C390 H400 0.931 . S
C391 C388 1.382 . S
C391 C393 1.390 . S
C391 H401 0.931 . S
C392 C388 1.390 . S
C392 C389 1.392 . S
C392 H402 0.930 . S
C393 C390 1.372 . S
C393 C391 1.390 . S
C393 H403 0.929 . S
C394 O374 1.255 . S
C394 O375 1.257 . S
C395 Eu331 2.787 . S
C395 O370 1.252 . S
C395 O373 1.268 . S
C395 C388 1.506 . S
H396 C379 0.931 . S
H397 C380 0.931 . S
H398 C381 0.929 . S
H399 C382 0.930 . S
H400 C390 0.931 . S
H401 C391 0.931 . S
H402 C392 0.930 . S
H403 C393 0.929 . S
Eu404 N433 2.600 . S
Eu404 N439 2.562 . S
Eu404 O448 2.462 . S
Eu404 O449 2.373 . S
Eu404 O451 2.432 . S
Eu404 O452 2.291 . S
Eu404 O456 2.335 . S
Eu404 O459 2.372 . S
Eu404 C468 2.787 . S
C405 N406 1.365 . S
C405 C408 1.405 . S
C405 C412 1.448 . S
N406 C405 1.365 . S
N406 C409 1.319 . S
N406 Eu415 2.600 . S
C407 C409 1.397 . S
C407 C410 1.367 . S
C407 H427 0.931 . S
C408 C405 1.405 . S
C408 C410 1.403 . S
C408 C414 1.439 . S
C409 N406 1.319 . S
C409 C407 1.397 . S
C409 H420 0.930 . S
C410 C407 1.367 . S
C410 C408 1.403 . S
C410 H431 0.929 . S
C411 C412 1.430 . S
C411 C413 1.387 . S
C411 C417 1.404 . S
C412 C405 1.448 . S
C412 C411 1.430 . S
C412 N416 1.351 . S
C413 C411 1.387 . S
C413 C414 1.374 . S
C413 H428 0.931 . S
C414 C408 1.439 . S
C414 C413 1.374 . S
C414 H429 0.931 . S
Eu415 N406 2.600 . S
Eu415 N416 2.562 . S
Eu415 O450 2.335 . S
Eu415 O453 2.372 . S
Eu415 O454 2.462 . S
Eu415 O455 2.373 . S
Eu415 O457 2.432 . S
Eu415 O458 2.291 . S
Eu415 C479 2.787 . S
N416 C412 1.351 . S
N416 Eu415 2.562 . S
N416 C418 1.325 . S
C417 C411 1.404 . S
C417 C419 1.366 . S
C417 H425 0.930 . S
C418 N416 1.325 . S
C418 C419 1.416 . S
C418 H424 0.929 . S
C419 C417 1.366 . S
C419 C418 1.416 . S
C419 H421 0.930 . S
H420 C409 0.930 . S
H421 C419 0.930 . S
H422 C437 0.930 . S
H423 C444 0.930 . S
H424 C418 0.929 . S
H425 C417 0.930 . S
H426 C440 0.929 . S
H427 C407 0.931 . S
H428 C413 0.931 . S
H429 C414 0.931 . S
H430 C435 0.931 . S
H431 C410 0.929 . S
H432 C443 0.930 . S
N433 Eu404 2.600 . S
N433 C434 1.365 . S
N433 C437 1.319 . S
C434 N433 1.365 . S
C434 C436 1.405 . S
C434 C442 1.448 . S
C435 H430 0.931 . S
C435 C437 1.397 . S
C435 C438 1.367 . S
C436 C434 1.405 . S
C436 C438 1.403 . S
C436 C469 1.439 . S
C437 H422 0.930 . S
C437 N433 1.319 . S
C437 C435 1.397 . S
C438 C435 1.367 . S
C438 C436 1.403 . S
C438 H445 0.929 . S
N439 Eu404 2.562 . S
N439 C440 1.325 . S
N439 C442 1.351 . S
C440 H426 0.929 . S
C440 N439 1.325 . S
C440 C444 1.416 . S
C441 C442 1.430 . S
C441 C443 1.404 . S
C441 C470 1.387 . S
C442 C434 1.448 . S
C442 N439 1.351 . S
C442 C441 1.430 . S
C443 H432 0.930 . S
C443 C441 1.404 . S
C443 C444 1.366 . S
C444 H423 0.930 . S
C444 C440 1.416 . S
C444 C443 1.366 . S
H445 C438 0.929 . S
H446 C469 0.931 . S
H447 C470 0.931 . S
O448 Eu404 2.462 . S
O448 C468 1.252 . S
O449 Eu404 2.373 . S
O449 C460 1.249 . S
O450 Eu415 2.335 . S
O450 C460 1.264 . S
O451 Eu404 2.432 . S
O451 C468 1.268 . S
O452 Eu404 2.291 . S
O452 C467 1.255 . S
O453 Eu415 2.372 . S
O453 C467 1.257 . S
O454 Eu415 2.462 . S
O454 C479 1.252 . S
O455 Eu415 2.373 . S
O455 C471 1.249 . S
O456 Eu404 2.335 . S
O456 C471 1.264 . S
O457 Eu415 2.432 . S
O457 C479 1.268 . S
O458 Eu415 2.291 . S
O458 C478 1.255 . S
O459 Eu404 2.372 . S
O459 C478 1.257 . S
C460 O449 1.249 . S
C460 O450 1.264 . S
C461 C464 1.382 . S
C461 C466 1.390 . S
C461 C468 1.506 . S
C462 C463 1.398 . S
C462 C466 1.392 . S
C463 C462 1.398 . S
C463 C465 1.372 . S
C463 H480 0.931 . S
C464 C461 1.382 . S
C464 C465 1.390 . S
C464 H481 0.931 . S
C465 C463 1.372 . S
C465 C464 1.390 . S
C465 H482 0.929 . S
C466 C461 1.390 . S
C466 C462 1.392 . S
C466 H483 0.930 . S
C467 O452 1.255 . S
C467 O453 1.257 . S
C468 Eu404 2.787 . S
C468 O448 1.252 . S
C468 O451 1.268 . S
C468 C461 1.506 . S
C469 C436 1.439 . S
C469 H446 0.931 . S
C469 C470 1.374 . S
C470 C441 1.387 . S
C470 H447 0.931 . S
C470 C469 1.374 . S
C471 O455 1.249 . S
C471 O456 1.264 . S
C472 C475 1.382 . S
C472 C476 1.390 . S
C472 C479 1.506 . S
C473 C474 1.398 . S
C473 C476 1.392 . S
C474 C473 1.398 . S
C474 C477 1.372 . S
C474 H484 0.931 . S
C475 C472 1.382 . S
C475 C477 1.390 . S
C475 H485 0.931 . S
C476 C472 1.390 . S
C476 C473 1.392 . S
C476 H486 0.930 . S
C477 C474 1.372 . S
C477 C475 1.390 . S
C477 H487 0.929 . S
C478 O458 1.255 . S
C478 O459 1.257 . S
C479 Eu415 2.787 . S
C479 O454 1.252 . S
C479 O457 1.268 . S
C479 C472 1.506 . S
H480 C463 0.931 . S
H481 C464 0.931 . S
H482 C465 0.929 . S
H483 C466 0.930 . S
H484 C474 0.931 . S
H485 C475 0.931 . S
H486 C476 0.930 . S
H487 C477 0.929 . S
Eu488 N517 2.600 . S
Eu488 N523 2.562 . S
Eu488 O532 2.462 . S
Eu488 O533 2.373 . S
Eu488 O535 2.432 . S
Eu488 O536 2.291 . S
Eu488 O540 2.335 . S
Eu488 O543 2.372 . S
Eu488 C552 2.787 . S
C489 N490 1.365 . S
C489 C492 1.405 . S
C489 C496 1.448 . S
N490 C489 1.365 . S
N490 C493 1.319 . S
N490 Eu499 2.600 . S
C491 C493 1.397 . S
C491 C494 1.367 . S
C491 H511 0.931 . S
C492 C489 1.405 . S
C492 C494 1.403 . S
C492 C498 1.439 . S
C493 N490 1.319 . S
C493 C491 1.397 . S
C493 H504 0.930 . S
C494 C491 1.367 . S
C494 C492 1.403 . S
C494 H515 0.929 . S
C495 C496 1.430 . S
C495 C497 1.387 . S
C495 C501 1.404 . S
C496 C489 1.448 . S
C496 C495 1.430 . S
C496 N500 1.351 . S
C497 C495 1.387 . S
C497 C498 1.374 . S
C497 H512 0.931 . S
C498 C492 1.439 . S
C498 C497 1.374 . S
C498 H513 0.931 . S
Eu499 N490 2.600 . S
Eu499 N500 2.562 . S
Eu499 O534 2.335 1_655 S
Eu499 O537 2.372 . S
Eu499 O538 2.462 . S
Eu499 O539 2.373 . S
Eu499 O541 2.432 . S
Eu499 O542 2.291 1_655 S
Eu499 C563 2.787 . S
N500 C496 1.351 . S
N500 Eu499 2.562 . S
N500 C502 1.325 . S
C501 C495 1.404 . S
C501 C503 1.366 . S
C501 H509 0.930 . S
C502 N500 1.325 . S
C502 C503 1.416 . S
C502 H508 0.929 . S
C503 C501 1.366 . S
C503 C502 1.416 . S
C503 H505 0.930 . S
H504 C493 0.930 . S
H505 C503 0.930 . S
H506 C521 0.930 . S
H507 C528 0.930 . S
H508 C502 0.929 . S
H509 C501 0.930 . S
H510 C524 0.929 . S
H511 C491 0.931 . S
H512 C497 0.931 . S
H513 C498 0.931 . S
H514 C519 0.931 . S
H515 C494 0.929 . S
H516 C527 0.930 . S
N517 Eu488 2.600 . S
N517 C518 1.365 . S
N517 C521 1.319 . S
C518 N517 1.365 . S
C518 C520 1.405 . S
C518 C526 1.448 . S
C519 H514 0.931 . S
C519 C521 1.397 . S
C519 C522 1.367 . S
C520 C518 1.405 . S
C520 C522 1.403 . S
C520 C553 1.439 . S
C521 H506 0.930 . S
C521 N517 1.319 . S
C521 C519 1.397 . S
C522 C519 1.367 . S
C522 C520 1.403 . S
C522 H529 0.929 . S
N523 Eu488 2.562 . S
N523 C524 1.325 . S
N523 C526 1.351 . S
C524 H510 0.929 . S
C524 N523 1.325 . S
C524 C528 1.416 . S
C525 C526 1.430 . S
C525 C527 1.404 . S
C525 C554 1.387 . S
C526 C518 1.448 . S
C526 N523 1.351 . S
C526 C525 1.430 . S
C527 H516 0.930 . S
C527 C525 1.404 . S
C527 C528 1.366 . S
C528 H507 0.930 . S
C528 C524 1.416 . S
C528 C527 1.366 . S
H529 C522 0.929 . S
H530 C553 0.931 . S
H531 C554 0.931 . S
O532 Eu488 2.462 . S
O532 C552 1.252 . S
O533 Eu488 2.373 . S
O533 C544 1.249 . S
O534 Eu499 2.335 1_455 S
O534 C544 1.264 . S
O535 Eu488 2.432 . S
O535 C552 1.268 . S
O536 Eu488 2.291 . S
O536 C551 1.255 1_455 S
O537 Eu499 2.372 . S
O537 C551 1.257 . S
O538 Eu499 2.462 . S
O538 C563 1.252 . S
O539 Eu499 2.373 . S
O539 C555 1.249 . S
O540 Eu488 2.335 . S
O540 C555 1.264 1_455 S
O541 Eu499 2.432 . S
O541 C563 1.268 . S
O542 Eu499 2.291 1_455 S
O542 C562 1.255 . S
O543 Eu488 2.372 . S
O543 C562 1.257 . S
C544 O533 1.249 . S
C544 O534 1.264 . S
C545 C548 1.382 . S
C545 C550 1.390 . S
C545 C552 1.506 . S
C546 C547 1.398 . S
C546 C550 1.392 . S
C547 C546 1.398 . S
C547 C549 1.372 . S
C547 H564 0.931 . S
C548 C545 1.382 . S
C548 C549 1.390 . S
C548 H565 0.931 . S
C549 C547 1.372 . S
C549 C548 1.390 . S
C549 H566 0.929 . S
C550 C545 1.390 . S
C550 C546 1.392 . S
C550 H567 0.930 . S
C551 O536 1.255 1_655 S
C551 O537 1.257 . S
C552 Eu488 2.787 . S
C552 O532 1.252 . S
C552 O535 1.268 . S
C552 C545 1.506 . S
C553 C520 1.439 . S
C553 H530 0.931 . S
C553 C554 1.374 . S
C554 C525 1.387 . S
C554 H531 0.931 . S
C554 C553 1.374 . S
C555 O539 1.249 . S
C555 O540 1.264 1_655 S
C556 C559 1.382 . S
C556 C560 1.390 . S
C556 C563 1.506 . S
C557 C558 1.398 . S
C557 C560 1.392 . S
C558 C557 1.398 . S
C558 C561 1.372 . S
C558 H568 0.931 . S
C559 C556 1.382 . S
C559 C561 1.390 . S
C559 H569 0.931 . S
C560 C556 1.390 . S
C560 C557 1.392 . S
C560 H570 0.930 . S
C561 C558 1.372 . S
C561 C559 1.390 . S
C561 H571 0.929 . S
C562 O542 1.255 . S
C562 O543 1.257 . S
C563 Eu499 2.787 . S
C563 O538 1.252 . S
C563 O541 1.268 . S
C563 C556 1.506 . S
H564 C547 0.931 . S
H565 C548 0.931 . S
H566 C549 0.929 . S
H567 C550 0.930 . S
H568 C558 0.931 . S
H569 C559 0.931 . S
H570 C560 0.930 . S
H571 C561 0.929 . S
Eu572 N601 2.600 . S
Eu572 N607 2.562 . S
Eu572 O616 2.462 . S
Eu572 O617 2.373 . S
Eu572 O619 2.432 . S
Eu572 O620 2.291 . S
Eu572 O624 2.335 . S
Eu572 O627 2.372 . S
Eu572 C636 2.787 . S
C573 N574 1.365 . S
C573 C576 1.405 . S
C573 C580 1.448 . S
N574 C573 1.365 . S
N574 C577 1.319 . S
N574 Eu583 2.600 . S
C575 C577 1.397 . S
C575 C578 1.367 . S
C575 H595 0.931 . S
C576 C573 1.405 . S
C576 C578 1.403 . S
C576 C582 1.439 . S
C577 N574 1.319 . S
C577 C575 1.397 . S
C577 H588 0.930 . S
C578 C575 1.367 . S
C578 C576 1.403 . S
C578 H599 0.929 . S
C579 C580 1.430 . S
C579 C581 1.387 . S
C579 C585 1.404 . S
C580 C573 1.448 . S
C580 C579 1.430 . S
C580 N584 1.351 . S
C581 C579 1.387 . S
C581 C582 1.374 . S
C581 H596 0.931 . S
C582 C576 1.439 . S
C582 C581 1.374 . S
C582 H597 0.931 . S
Eu583 N574 2.600 . S
Eu583 N584 2.562 . S
Eu583 O618 2.335 . S
Eu583 O621 2.372 . S
Eu583 O622 2.462 . S
Eu583 O623 2.373 . S
Eu583 O625 2.432 . S
Eu583 O626 2.291 . S
Eu583 C647 2.787 . S
N584 C580 1.351 . S
N584 Eu583 2.562 . S
N584 C586 1.325 . S
C585 C579 1.404 . S
C585 C587 1.366 . S
C585 H593 0.930 . S
C586 N584 1.325 . S
C586 C587 1.416 . S
C586 H592 0.929 . S
C587 C585 1.366 . S
C587 C586 1.416 . S
C587 H589 0.930 . S
H588 C577 0.930 . S
H589 C587 0.930 . S
H590 C605 0.930 . S
H591 C612 0.930 . S
H592 C586 0.929 . S
H593 C585 0.930 . S
H594 C608 0.929 . S
H595 C575 0.931 . S
H596 C581 0.931 . S
H597 C582 0.931 . S
H598 C603 0.931 . S
H599 C578 0.929 . S
H600 C611 0.930 . S
N601 Eu572 2.600 . S
N601 C602 1.365 . S
N601 C605 1.319 . S
C602 N601 1.365 . S
C602 C604 1.405 . S
C602 C610 1.448 . S
C603 H598 0.931 . S
C603 C605 1.397 . S
C603 C606 1.367 . S
C604 C602 1.405 . S
C604 C606 1.403 . S
C604 C637 1.439 . S
C605 H590 0.930 . S
C605 N601 1.319 . S
C605 C603 1.397 . S
C606 C603 1.367 . S
C606 C604 1.403 . S
C606 H613 0.929 . S
N607 Eu572 2.562 . S
N607 C608 1.325 . S
N607 C610 1.351 . S
C608 H594 0.929 . S
C608 N607 1.325 . S
C608 C612 1.416 . S
C609 C610 1.430 . S
C609 C611 1.404 . S
C609 C638 1.387 . S
C610 C602 1.448 . S
C610 N607 1.351 . S
C610 C609 1.430 . S
C611 H600 0.930 . S
C611 C609 1.404 . S
C611 C612 1.366 . S
C612 H591 0.930 . S
C612 C608 1.416 . S
C612 C611 1.366 . S
H613 C606 0.929 . S
H614 C637 0.931 . S
H615 C638 0.931 . S
O616 Eu572 2.462 . S
O616 C636 1.252 . S
O617 Eu572 2.373 . S
O617 C628 1.249 . S
O618 Eu583 2.335 . S
O618 C628 1.264 . S
O619 Eu572 2.432 . S
O619 C636 1.268 . S
O620 Eu572 2.291 . S
O620 C635 1.255 . S
O621 Eu583 2.372 . S
O621 C635 1.257 . S
O622 Eu583 2.462 . S
O622 C647 1.252 . S
O623 Eu583 2.373 . S
O623 C639 1.249 . S
O624 Eu572 2.335 . S
O624 C639 1.264 . S
O625 Eu583 2.432 . S
O625 C647 1.268 . S
O626 Eu583 2.291 . S
O626 C646 1.255 . S
O627 Eu572 2.372 . S
O627 C646 1.257 . S
C628 O617 1.249 . S
C628 O618 1.264 . S
C629 C632 1.382 . S
C629 C634 1.390 . S
C629 C636 1.506 . S
C630 C631 1.398 . S
C630 C634 1.392 . S
C631 C630 1.398 . S
C631 C633 1.372 . S
C631 H648 0.931 . S
C632 C629 1.382 . S
C632 C633 1.390 . S
C632 H649 0.931 . S
C633 C631 1.372 . S
C633 C632 1.390 . S
C633 H650 0.929 . S
C634 C629 1.390 . S
C634 C630 1.392 . S
C634 H651 0.930 . S
C635 O620 1.255 . S
C635 O621 1.257 . S
C636 Eu572 2.787 . S
C636 O616 1.252 . S
C636 O619 1.268 . S
C636 C629 1.506 . S
C637 C604 1.439 . S
C637 H614 0.931 . S
C637 C638 1.374 . S
C638 C609 1.387 . S
C638 H615 0.931 . S
C638 C637 1.374 . S
C639 O623 1.249 . S
C639 O624 1.264 . S
C640 C643 1.382 . S
C640 C644 1.390 . S
C640 C647 1.506 . S
C641 C642 1.398 . S
C641 C644 1.392 . S
C642 C641 1.398 . S
C642 C645 1.372 . S
C642 H652 0.931 . S
C643 C640 1.382 . S
C643 C645 1.390 . S
C643 H653 0.931 . S
C644 C640 1.390 . S
C644 C641 1.392 . S
C644 H654 0.930 . S
C645 C642 1.372 . S
C645 C643 1.390 . S
C645 H655 0.929 . S
C646 O626 1.255 . S
C646 O627 1.257 . S
C647 Eu583 2.787 . S
C647 O622 1.252 . S
C647 O625 1.268 . S
C647 C640 1.506 . S
H648 C631 0.931 . S
H649 C632 0.931 . S
H650 C633 0.929 . S
H651 C634 0.930 . S
H652 C642 0.931 . S
H653 C643 0.931 . S
H654 C644 0.930 . S
H655 C645 0.929 . S
H656 C662 0.930 . S
H657 C666 0.930 . S
H658 C671 0.929 . S
H659 C669 0.929 . S
H660 C664 0.929 . S
H661 C670 0.929 . S
C662 H656 0.930 . S
C662 C663 1.367 1_565 S
C662 C670 1.378 1_565 S
C663 C662 1.367 1_545 S
C663 C671 1.433 . S
C664 H660 0.929 . S
C664 C666 1.378 . S
C664 C668 1.350 . S
C665 C668 1.463 . S
C665 C670 1.350 . S
C665 N673 1.427 . S
C666 H657 0.930 . S
C666 C664 1.378 . S
C666 C667 1.367 . S
C667 C666 1.367 . S
C667 C669 1.433 . S
C668 C664 1.350 . S
C668 C665 1.463 . S
C668 N672 1.427 . S
C669 H659 0.929 . S
C669 C667 1.433 . S
C669 N672 1.384 . S
C670 H661 0.929 . S
C670 C662 1.378 1_545 S
C670 C665 1.350 . S
C671 H658 0.929 . S
C671 C663 1.433 . S
C671 N673 1.384 . S
N672 C668 1.427 . S
N672 C669 1.384 . S
N673 C665 1.427 . S
N673 C671 1.384 . S
H674 C680 0.930 . S
H675 C684 0.930 . S
H676 C689 0.929 . S
H677 C687 0.929 . S
H678 C682 0.929 . S
H679 C688 0.929 . S
C680 H674 0.930 . S
C680 C681 1.367 . S
C680 C688 1.378 . S
C681 C680 1.367 . S
C681 C689 1.433 . S
C682 H678 0.929 . S
C682 C684 1.378 . S
C682 C686 1.350 . S
C683 C686 1.463 . S
C683 C688 1.350 . S
C683 N691 1.427 . S
C684 H675 0.930 . S
C684 C682 1.378 . S
C684 C685 1.367 . S
C685 C684 1.367 . S
C685 C687 1.433 . S
C686 C682 1.350 . S
C686 C683 1.463 . S
C686 N690 1.427 . S
C687 H677 0.929 . S
C687 C685 1.433 . S
C687 N690 1.384 . S
C688 H679 0.929 . S
C688 C680 1.378 . S
C688 C683 1.350 . S
C689 H676 0.929 . S
C689 C681 1.433 . S
C689 N691 1.384 . S
N690 C686 1.427 . S
N690 C687 1.384 . S
N691 C683 1.427 . S
N691 C689 1.384 . S
H692 C698 0.930 . S
H693 C702 0.930 . S
H694 C707 0.929 . S
H695 C705 0.929 . S
H696 C700 0.929 . S
H697 C706 0.929 . S
C698 H692 0.930 . S
C698 C699 1.367 . S
C698 C706 1.378 . S
C699 C698 1.367 . S
C699 C707 1.433 . S
C700 H696 0.929 . S
C700 C702 1.378 . S
C700 C704 1.350 . S
C701 C704 1.463 . S
C701 C706 1.350 . S
C701 N709 1.427 . S
C702 H693 0.930 . S
C702 C700 1.378 . S
C702 C703 1.367 . S
C703 C702 1.367 . S
C703 C705 1.433 . S
C704 C700 1.350 . S
C704 C701 1.463 . S
C704 N708 1.427 . S
C705 H695 0.929 . S
C705 C703 1.433 . S
C705 N708 1.384 . S
C706 H697 0.929 . S
C706 C698 1.378 . S
C706 C701 1.350 . S
C707 H694 0.929 . S
C707 C699 1.433 . S
C707 N709 1.384 . S
N708 C704 1.427 . S
N708 C705 1.384 . S
N709 C701 1.427 . S
N709 C707 1.384 . S
H710 C716 0.930 . S
H711 C720 0.930 . S
H712 C725 0.929 . S
H713 C723 0.929 . S
H714 C718 0.929 . S
H715 C724 0.929 . S
C716 H710 0.930 . S
C716 C717 1.415 . S
C716 C724 1.378 . S
C717 C716 1.415 . S
C717 C725 1.419 1_545 S
C718 H714 0.929 . S
C718 C720 1.378 . S
C718 C722 1.350 . S
C719 C722 1.463 . S
C719 C724 1.350 . S
C719 N727 1.427 . S
C720 H711 0.930 . S
C720 C718 1.378 . S
C720 C721 1.367 . S
C721 C720 1.367 . S
C721 C723 1.433 . S
C722 C718 1.350 . S
C722 C719 1.463 . S
C722 N726 1.427 . S
C723 H713 0.929 . S
C723 C721 1.433 . S
C723 N726 1.384 . S
C724 H715 0.929 . S
C724 C716 1.378 . S
C724 C719 1.350 . S
C725 H712 0.929 . S
C725 C717 1.419 1_565 S
C725 N727 1.384 1_565 S
N726 C722 1.427 . S
N726 C723 1.384 . S
N727 C719 1.427 . S
N727 C725 1.384 1_545 S
H728 C734 0.930 . S
H729 C738 0.930 . S
H730 C743 0.929 1_545 S
H731 C741 0.929 . S
H732 C736 0.929 . S
H733 C742 0.929 . S
C734 H728 0.930 . S
C734 C735 1.367 . S
C734 C742 1.378 . S
C735 C734 1.367 . S
C735 C743 1.433 . S
C736 H732 0.929 . S
C736 C738 1.378 . S
C736 C740 1.350 . S
C737 C740 1.463 . S
C737 C742 1.350 . S
C737 N745 1.427 . S
C738 H729 0.930 . S
C738 C736 1.378 . S
C738 C739 1.367 . S
C739 C738 1.367 . S
C739 C741 1.433 . S
C740 C736 1.350 . S
C740 C737 1.463 . S
C740 N744 1.427 . S
C741 H731 0.929 . S
C741 C739 1.433 . S
C741 N744 1.384 . S
C742 H733 0.929 . S
C742 C734 1.378 . S
C742 C737 1.350 . S
C743 H730 0.929 1_565 S
C743 C735 1.433 . S
C743 N745 1.384 . S
N744 C740 1.427 . S
N744 C741 1.384 . S
N745 C737 1.427 . S
N745 C743 1.384 . S
H746 C752 0.930 . S
H747 C756 0.930 . S
H748 C761 0.929 . S
H749 C759 0.929 . S
H750 C754 0.929 . S
H751 C760 0.929 . S
C752 H746 0.930 . S
C752 C753 1.367 . S
C752 C760 1.378 . S
C753 C752 1.367 . S
C753 C761 1.433 . S
C754 H750 0.929 . S
C754 C756 1.378 . S
C754 C758 1.350 . S
C755 C758 1.463 . S
C755 C760 1.350 . S
C755 N763 1.427 . S
C756 H747 0.930 . S
C756 C754 1.378 . S
C756 C757 1.367 . S
C757 C756 1.367 . S
C757 C759 1.433 . S
C758 C754 1.350 . S
C758 C755 1.463 . S
C758 N762 1.427 . S
C759 H749 0.929 . S
C759 C757 1.433 . S
C759 N762 1.384 . S
C760 H751 0.929 . S
C760 C752 1.378 . S
C760 C755 1.350 . S
C761 H748 0.929 . S
C761 C753 1.433 . S
C761 N763 1.384 . S
N762 C758 1.427 . S
N762 C759 1.384 . S
N763 C755 1.427 . S
N763 C761 1.384 . S
H764 C770 0.930 . S
H765 C774 0.930 . S
H766 C779 0.929 . S
H767 C777 0.929 . S
H768 C772 0.929 . S
H769 C778 0.929 . S
C770 H764 0.930 . S
C770 C771 1.367 . S
C770 C778 1.378 . S
C771 C770 1.367 . S
C771 C779 1.433 . S
C772 H768 0.929 . S
C772 C774 1.378 . S
C772 C776 1.350 . S
C773 C776 1.463 . S
C773 C778 1.350 . S
C773 N781 1.427 . S
C774 H765 0.930 . S
C774 C772 1.378 . S
C774 C775 1.367 . S
C775 C774 1.367 . S
C775 C777 1.433 . S
C776 C772 1.350 . S
C776 C773 1.463 . S
C776 N780 1.427 . S
C777 H767 0.929 . S
C777 C775 1.433 . S
C777 N780 1.384 . S
C778 H769 0.929 . S
C778 C770 1.378 . S
C778 C773 1.350 . S
C779 H766 0.929 . S
C779 C771 1.433 . S
C779 N781 1.384 . S
N780 C776 1.427 . S
N780 C777 1.384 . S
N781 C773 1.427 . S
N781 C779 1.384 . S
H782 C788 0.923 1_545 S
H783 C792 0.930 . S
H784 C797 0.929 . S
H785 C795 0.929 . S
H786 C790 0.929 . S
H787 C796 0.929 . S
C788 H782 0.923 1_565 S
C788 C789 1.374 . S
C788 C796 1.378 . S
C789 C788 1.374 . S
C789 C797 1.445 . S
C790 H786 0.929 . S
C790 C792 1.378 . S
C790 C794 1.350 . S
C791 C794 1.463 . S
C791 C796 1.350 . S
C791 N799 1.427 . S
C792 H783 0.930 . S
C792 C790 1.378 . S
C792 C793 1.367 . S
C793 C792 1.367 . S
C793 C795 1.433 . S
C794 C790 1.350 . S
C794 C791 1.463 . S
C794 N798 1.427 . S
C795 H785 0.929 . S
C795 C793 1.433 . S
C795 N798 1.384 . S
C796 H787 0.929 . S
C796 C788 1.378 . S
C796 C791 1.350 . S
C797 H784 0.929 . S
C797 C789 1.445 . S
C797 N799 1.384 . S
N798 C794 1.427 . S
N798 C795 1.384 . S
N799 C791 1.427 . S
N799 C797 1.384 . S
H800 C806 0.930 . S
H801 C810 0.930 . S
H802 C815 0.929 . S
H803 C813 0.929 . S
H804 C808 0.929 . S
H805 C814 0.929 . S
C806 H800 0.930 . S
C806 C807 1.367 . S
C806 C814 1.378 . S
C807 C806 1.367 . S
C807 C815 1.433 . S
C808 H804 0.929 . S
C808 C810 1.378 . S
C808 C812 1.350 . S
C809 C812 1.463 . S
C809 C814 1.350 . S
C809 N817 1.427 . S
C810 H801 0.930 . S
C810 C808 1.378 . S
C810 C811 1.367 . S
C811 C810 1.367 . S
C811 C813 1.433 . S
C812 C808 1.350 . S
C812 C809 1.463 . S
C812 N816 1.427 . S
C813 H803 0.929 . S
C813 C811 1.433 . S
C813 N816 1.384 . S
C814 H805 0.929 . S
C814 C806 1.378 . S
C814 C809 1.350 . S
C815 H802 0.929 . S
C815 C807 1.433 . S
C815 N817 1.384 . S
N816 C812 1.427 . S
N816 C813 1.384 . S
N817 C809 1.427 . S
N817 C815 1.384 . S
H818 C824 0.930 . S
H819 C828 0.930 . S
H820 C833 0.929 . S
H821 C831 0.929 . S
H822 C826 0.929 . S
H823 C832 0.929 . S
C824 H818 0.930 . S
C824 C825 1.367 . S
C824 C832 1.378 . S
C825 C824 1.367 . S
C825 C833 1.433 . S
C826 H822 0.929 . S
C826 C828 1.378 . S
C826 C830 1.350 . S
C827 C830 1.463 . S
C827 C832 1.350 . S
C827 N835 1.427 . S
C828 H819 0.930 . S
C828 C826 1.378 . S
C828 C829 1.367 . S
C829 C828 1.367 . S
C829 C831 1.433 . S
C830 C826 1.350 . S
C830 C827 1.463 . S
C830 N834 1.427 . S
C831 H821 0.929 . S
C831 C829 1.433 . S
C831 N834 1.384 . S
C832 H823 0.929 . S
C832 C824 1.378 . S
C832 C827 1.350 . S
C833 H820 0.929 . S
C833 C825 1.433 . S
C833 N835 1.384 . S
N834 C830 1.427 . S
N834 C831 1.384 . S
N835 C827 1.427 . S
N835 C833 1.384 . S
H836 C842 0.930 . S
H837 C846 0.930 . S
H838 C851 0.929 . S
H839 C849 0.929 . S
H840 C844 0.929 . S
H841 C850 0.929 . S
C842 H836 0.930 . S
C842 C843 1.367 . S
C842 C850 1.378 . S
C843 C842 1.367 . S
C843 C851 1.433 . S
C844 H840 0.929 . S
C844 C846 1.378 . S
C844 C848 1.350 . S
C845 C848 1.463 . S
C845 C850 1.350 . S
C845 N853 1.427 . S
C846 H837 0.930 . S
C846 C844 1.378 . S
C846 C847 1.367 . S
C847 C846 1.367 . S
C847 C849 1.433 . S
C848 C844 1.350 . S
C848 C845 1.463 . S
C848 N852 1.427 . S
C849 H839 0.929 . S
C849 C847 1.433 . S
C849 N852 1.384 . S
C850 H841 0.929 . S
C850 C842 1.378 . S
C850 C845 1.350 . S
C851 H838 0.929 . S
C851 C843 1.433 . S
C851 N853 1.384 . S
N852 C848 1.427 . S
N852 C849 1.384 . S
N853 C845 1.427 . S
N853 C851 1.384 . S
H854 C860 0.930 . S
H855 C864 0.930 . S
H856 C869 0.929 . S
H857 C867 0.929 . S
H858 C862 0.929 . S
H859 C868 0.929 . S
C860 H854 0.930 . S
C860 C861 1.367 . S
C860 C868 1.378 . S
C861 C860 1.367 . S
C861 C869 1.433 . S
C862 H858 0.929 . S
C862 C864 1.378 . S
C862 C866 1.350 . S
C863 C866 1.463 . S
C863 C868 1.350 . S
C863 N871 1.427 . S
C864 H855 0.930 . S
C864 C862 1.378 . S
C864 C865 1.367 . S
C865 C864 1.367 . S
C865 C867 1.433 . S
C866 C862 1.350 . S
C866 C863 1.463 . S
C866 N870 1.427 . S
C867 H857 0.929 . S
C867 C865 1.433 . S
C867 N870 1.384 . S
C868 H859 0.929 . S
C868 C860 1.378 . S
C868 C863 1.350 . S
C869 H856 0.929 . S
C869 C861 1.433 . S
C869 N871 1.384 . S
N870 C866 1.427 . S
N870 C867 1.384 . S
N871 C863 1.427 . S
N871 C869 1.384 . S
H872 C878 0.930 . S
H873 C882 0.930 . S
H874 C887 0.929 . S
H875 C885 0.929 . S
H876 C880 0.929 . S
H877 C886 0.929 . S
C878 H872 0.930 . S
C878 C879 1.367 . S
C878 C886 1.378 . S
C879 C878 1.367 . S
C879 C887 1.433 . S
C880 H876 0.929 . S
C880 C882 1.378 . S
C880 C884 1.350 . S
C881 C884 1.463 . S
C881 C886 1.350 . S
C881 N889 1.427 . S
C882 H873 0.930 . S
C882 C880 1.378 . S
C882 C883 1.367 . S
C883 C882 1.367 . S
C883 C885 1.433 . S
C884 C880 1.350 . S
C884 C881 1.463 . S
C884 N888 1.427 . S
C885 H875 0.929 . S
C885 C883 1.433 . S
C885 N888 1.384 . S
C886 H877 0.929 . S
C886 C878 1.378 . S
C886 C881 1.350 . S
C887 H874 0.929 . S
C887 C879 1.433 . S
C887 N889 1.384 . S
N888 C884 1.427 . S
N888 C885 1.384 . S
N889 C881 1.427 . S
N889 C887 1.384 . S
H890 C896 0.930 . S
H891 C900 0.930 . S
H892 C905 0.929 . S
H893 C903 0.929 . S
H894 C898 0.929 . S
H895 C904 0.929 . S
C896 H890 0.930 . S
C896 C897 1.367 . S
C896 C904 1.378 . S
C897 C896 1.367 . S
C897 C905 1.433 . S
C898 H894 0.929 . S
C898 C900 1.378 . S
C898 C902 1.350 . S
C899 C902 1.463 . S
C899 C904 1.350 . S
C899 N907 1.427 . S
C900 H891 0.930 . S
C900 C898 1.378 . S
C900 C901 1.367 . S
C901 C900 1.367 . S
C901 C903 1.433 . S
C902 C898 1.350 . S
C902 C899 1.463 . S
C902 N906 1.427 . S
C903 H893 0.929 . S
C903 C901 1.433 . S
C903 N906 1.384 . S
C904 H895 0.929 . S
C904 C896 1.378 . S
C904 C899 1.350 . S
C905 H892 0.929 . S
C905 C897 1.433 . S
C905 N907 1.384 . S
N906 C902 1.427 . S
N906 C903 1.384 . S
N907 C899 1.427 . S
N907 C905 1.384 . S
H908 C914 0.930 . S
H909 C918 0.930 . S
H910 C923 0.929 . S
H911 C921 0.929 . S
H912 C916 0.929 . S
H913 C922 0.929 . S
C914 H908 0.930 . S
C914 C915 1.367 . S
C914 C922 1.378 . S
C915 C914 1.367 . S
C915 C923 1.433 . S
C916 H912 0.929 . S
C916 C918 1.378 . S
C916 C920 1.350 . S
C917 C920 1.463 . S
C917 C922 1.350 . S
C917 N925 1.427 . S
C918 H909 0.930 . S
C918 C916 1.378 . S
C918 C919 1.367 . S
C919 C918 1.367 . S
C919 C921 1.433 . S
C920 C916 1.350 . S
C920 C917 1.463 . S
C920 N924 1.427 . S
C921 H911 0.929 . S
C921 C919 1.433 . S
C921 N924 1.384 . S
C922 H913 0.929 . S
C922 C914 1.378 . S
C922 C917 1.350 . S
C923 H910 0.929 . S
C923 C915 1.433 . S
C923 N925 1.384 . S
N924 C920 1.427 . S
N924 C921 1.384 . S
N925 C917 1.427 . S
N925 C923 1.384 . S
H926 C932 0.930 . S
H927 C936 0.930 . S
H928 C941 0.929 . S
H929 C939 0.929 . S
H930 C934 0.929 . S
H931 C940 0.929 . S
C932 H926 0.930 . S
C932 C933 1.367 . S
C932 C940 1.378 . S
C933 C932 1.367 . S
C933 C941 1.433 . S
C934 H930 0.929 . S
C934 C936 1.378 . S
C934 C938 1.350 . S
C935 C938 1.463 . S
C935 C940 1.350 . S
C935 N943 1.427 . S
C936 H927 0.930 . S
C936 C934 1.378 . S
C936 C937 1.367 . S
C937 C936 1.367 . S
C937 C939 1.433 . S
C938 C934 1.350 . S
C938 C935 1.463 . S
C938 N942 1.427 . S
C939 H929 0.929 . S
C939 C937 1.433 . S
C939 N942 1.384 . S
C940 H931 0.929 . S
C940 C932 1.378 . S
C940 C935 1.350 . S
C941 H928 0.929 . S
C941 C933 1.433 . S
C941 N943 1.384 . S
N942 C938 1.427 . S
N942 C939 1.384 . S
N943 C935 1.427 . S
N943 C941 1.384 . S
H944 C950 0.930 . S
H945 C954 0.930 . S
H946 C959 0.929 . S
H947 C957 0.929 . S
H948 C952 0.929 . S
H949 C958 0.929 . S
C950 H944 0.930 . S
C950 C951 1.367 . S
C950 C958 1.378 . S
C951 C950 1.367 . S
C951 C959 1.433 . S
C952 H948 0.929 . S
C952 C954 1.378 . S
C952 C956 1.350 . S
C953 C956 1.463 . S
C953 C958 1.350 . S
C953 N961 1.427 . S
C954 H945 0.930 . S
C954 C952 1.378 . S
C954 C955 1.367 . S
C955 C954 1.367 . S
C955 C957 1.433 . S
C956 C952 1.350 . S
C956 C953 1.463 . S
C956 N960 1.427 . S
C957 H947 0.929 . S
C957 C955 1.433 . S
C957 N960 1.384 . S
C958 H949 0.929 . S
C958 C950 1.378 . S
C958 C953 1.350 . S
C959 H946 0.929 . S
C959 C951 1.433 . S
C959 N961 1.384 . S
N960 C956 1.427 . S
N960 C957 1.384 . S
N961 C953 1.427 . S
N961 C959 1.384 . S
H962 C968 0.930 . S
H963 C972 0.930 . S
H964 C977 0.929 . S
H965 C975 0.929 . S
H966 C970 0.929 . S
H967 C976 0.929 . S
C968 H962 0.930 . S
C968 C969 1.367 . S
C968 C976 1.378 . S
C969 C968 1.367 . S
C969 C977 1.433 . S
C970 H966 0.929 . S
C970 C972 1.378 . S
C970 C974 1.350 . S
C971 C974 1.463 . S
C971 C976 1.350 . S
C971 N979 1.427 . S
C972 H963 0.930 . S
C972 C970 1.378 . S
C972 C973 1.367 . S
C973 C972 1.367 . S
C973 C975 1.433 . S
C974 C970 1.350 . S
C974 C971 1.463 . S
C974 N978 1.427 . S
C975 H965 0.929 . S
C975 C973 1.433 . S
C975 N978 1.384 . S
C976 H967 0.929 . S
C976 C968 1.378 . S
C976 C971 1.350 . S
C977 H964 0.929 . S
C977 C969 1.433 . S
C977 N979 1.384 . S
N978 C974 1.427 . S
N978 C975 1.384 . S
N979 C971 1.427 . S
N979 C977 1.384 . S
H980 C986 0.930 . S
H981 C990 0.930 . S
H982 C995 0.929 . S
H983 C993 0.929 . S
H984 C988 0.929 . S
H985 C994 0.929 . S
C986 H980 0.930 . S
C986 C987 1.367 . S
C986 C994 1.378 . S
C987 C986 1.367 . S
C987 C995 1.433 . S
C988 H984 0.929 . S
C988 C990 1.378 . S
C988 C992 1.350 . S
C989 C992 1.463 . S
C989 C994 1.350 . S
C989 N997 1.427 . S
C990 H981 0.930 . S
C990 C988 1.378 . S
C990 C991 1.367 . S
C991 C990 1.367 . S
C991 C993 1.433 . S
C992 C988 1.350 . S
C992 C989 1.463 . S
C992 N996 1.427 . S
C993 H983 0.929 . S
C993 C991 1.433 . S
C993 N996 1.384 . S
C994 H985 0.929 . S
C994 C986 1.378 . S
C994 C989 1.350 . S
C995 H982 0.929 . S
C995 C987 1.433 . S
C995 N997 1.384 . S
N996 C992 1.427 . S
N996 C993 1.384 . S
N997 C989 1.427 . S
N997 C995 1.384 . S
H998 C1004 0.930 . S
H999 C1008 0.930 . S
H1000 C1013 0.929 . S
H1001 C1011 0.929 1_455 S
H1002 C1006 0.929 . S
H1003 C1012 0.929 . S
C1004 H998 0.930 . S
C1004 C1005 1.367 . S
C1004 C1012 1.378 . S
C1005 C1004 1.367 . S
C1005 C1013 1.433 . S
C1006 H1002 0.929 . S
C1006 C1008 1.378 . S
C1006 C1010 1.350 . S
C1007 C1010 1.463 . S
C1007 C1012 1.350 . S
C1007 N1015 1.427 . S
C1008 H999 0.930 . S
C1008 C1006 1.378 . S
C1008 C1009 1.367 . S
C1009 C1008 1.367 . S
C1009 C1011 1.433 . S
C1010 C1006 1.350 . S
C1010 C1007 1.463 . S
C1010 N1014 1.427 . S
C1011 H1001 0.929 1_655 S
C1011 C1009 1.433 . S
C1011 N1014 1.384 . S
C1012 H1003 0.929 . S
C1012 C1004 1.378 . S
C1012 C1007 1.350 . S
C1013 H1000 0.929 . S
C1013 C1005 1.433 . S
C1013 N1015 1.384 . S
N1014 C1010 1.427 . S
N1014 C1011 1.384 . S
N1015 C1007 1.427 . S
N1015 C1013 1.384 . S
H1016 C1022 0.930 . S
H1017 C1026 0.930 . S
H1018 C1031 0.929 . S
H1019 C1029 0.929 1_455 S
H1020 C1024 0.929 . S
H1021 C1030 0.929 . S
C1022 H1016 0.930 . S
C1022 C1023 1.367 . S
C1022 C1030 1.378 . S
C1023 C1022 1.367 . S
C1023 C1031 1.433 . S
C1024 H1020 0.929 . S
C1024 C1026 1.378 . S
C1024 C1028 1.350 . S
C1025 C1028 1.463 . S
C1025 C1030 1.350 . S
C1025 N1033 1.427 . S
C1026 H1017 0.930 . S
C1026 C1024 1.378 . S
C1026 C1027 1.367 . S
C1027 C1026 1.367 . S
C1027 C1029 1.433 . S
C1028 C1024 1.350 . S
C1028 C1025 1.463 . S
C1028 N1032 1.427 . S
C1029 H1019 0.929 1_655 S
C1029 C1027 1.433 . S
C1029 N1032 1.384 . S
C1030 H1021 0.929 . S
C1030 C1022 1.378 . S
C1030 C1025 1.350 . S
C1031 H1018 0.929 . S
C1031 C1023 1.433 . S
C1031 N1033 1.384 . S
N1032 C1028 1.427 . S
N1032 C1029 1.384 . S
N1033 C1025 1.427 . S
N1033 C1031 1.384 . S
H1034 C1040 0.930 . S
H1035 C1044 0.930 . S
H1036 C1049 0.929 . S
H1037 C1047 0.929 . S
H1038 C1042 0.929 . S
H1039 C1048 0.929 . S
C1040 H1034 0.930 . S
C1040 C1041 1.367 . S
C1040 C1048 1.378 . S
C1041 C1040 1.367 . S
C1041 C1049 1.433 . S
C1042 H1038 0.929 . S
C1042 C1044 1.378 . S
C1042 C1046 1.350 . S
C1043 C1046 1.463 . S
C1043 C1048 1.350 . S
C1043 N1051 1.427 . S
C1044 H1035 0.930 . S
C1044 C1042 1.378 . S
C1044 C1045 1.367 . S
C1045 C1044 1.367 . S
C1045 C1047 1.433 . S
C1046 C1042 1.350 . S
C1046 C1043 1.463 . S
C1046 N1050 1.427 . S
C1047 H1037 0.929 . S
C1047 C1045 1.433 . S
C1047 N1050 1.384 . S
C1048 H1039 0.929 . S
C1048 C1040 1.378 . S
C1048 C1043 1.350 . S
C1049 H1036 0.929 . S
C1049 C1041 1.433 . S
C1049 N1051 1.384 . S
N1050 C1046 1.427 . S
N1050 C1047 1.384 . S
N1051 C1043 1.427 . S
N1051 C1049 1.384 . S
H1052 C1058 0.930 . S
H1053 C1062 0.930 . S
H1054 C1067 0.929 . S
H1055 C1065 0.929 . S
H1056 C1060 0.929 . S
H1057 C1066 0.929 . S
C1058 H1052 0.930 . S
C1058 C1059 1.367 . S
C1058 C1066 1.378 . S
C1059 C1058 1.367 . S
C1059 C1067 1.433 . S
C1060 H1056 0.929 . S
C1060 C1062 1.378 . S
C1060 C1064 1.350 . S
C1061 C1064 1.463 . S
C1061 C1066 1.350 . S
C1061 N1069 1.427 . S
C1062 H1053 0.930 . S
C1062 C1060 1.378 . S
C1062 C1063 1.367 . S
C1063 C1062 1.367 . S
C1063 C1065 1.433 . S
C1064 C1060 1.350 . S
C1064 C1061 1.463 . S
C1064 N1068 1.427 . S
C1065 H1055 0.929 . S
C1065 C1063 1.433 . S
C1065 N1068 1.384 . S
C1066 H1057 0.929 . S
C1066 C1058 1.378 . S
C1066 C1061 1.350 . S
C1067 H1054 0.929 . S
C1067 C1059 1.433 . S
C1067 N1069 1.384 . S
N1068 C1064 1.427 . S
N1068 C1065 1.384 . S
N1069 C1061 1.427 . S
N1069 C1067 1.384 . S
H1070 C1076 0.930 . S
H1071 C1080 0.930 . S
H1072 C1085 0.929 . S
H1073 C1083 0.929 . S
H1074 C1078 0.929 . S
H1075 C1084 0.929 . S
C1076 H1070 0.930 . S
C1076 C1077 1.367 . S
C1076 C1084 1.378 . S
C1077 C1076 1.367 . S
C1077 C1085 1.433 . S
C1078 H1074 0.929 . S
C1078 C1080 1.378 . S
C1078 C1082 1.350 . S
C1079 C1082 1.463 . S
C1079 C1084 1.350 . S
C1079 N1087 1.427 . S
C1080 H1071 0.930 . S
C1080 C1078 1.378 . S
C1080 C1081 1.367 . S
C1081 C1080 1.367 . S
C1081 C1083 1.433 . S
C1082 C1078 1.350 . S
C1082 C1079 1.463 . S
C1082 N1086 1.427 . S
C1083 H1073 0.929 . S
C1083 C1081 1.433 . S
C1083 N1086 1.384 . S
C1084 H1075 0.929 . S
C1084 C1076 1.378 . S
C1084 C1079 1.350 . S
C1085 H1072 0.929 . S
C1085 C1077 1.433 . S
C1085 N1087 1.384 . S
N1086 C1082 1.427 . S
N1086 C1083 1.384 . S
N1087 C1079 1.427 . S
N1087 C1085 1.384 . S
C663 C242 1.458 1_545 S
C667 C394 1.486 . S
C685 C478 1.479 . S
C681 C301 1.493 . S
C703 C471 1.490 . S
C699 C162 1.459 . S
C717 C221 1.456 1_545 S
C721 C387 1.487 . S
C739 C551 1.479 . S
C735 C82 1.495 1_565 S
C757 C635 1.475 . S
C753 C141 1.470 . S
C771 C2 1.487 . S
C775 C628 1.487 . S
C789 C61 1.435 1_565 S
C793 C544 1.485 . S
C811 C378 1.335 . S
C807 C42 1.497 . S
C829 C462 1.356 . S
C825 C21 1.533 . S
C847 C473 1.408 . S
C843 C122 1.515 . S
C865 C389 1.398 . S
C861 C101 1.550 . S
C883 C557 1.344 . S
C879 C202 1.529 . S
C897 C181 1.503 . S
C901 C641 1.349 . S
C919 C630 1.394 . S
C915 C282 1.546 . S
C933 C261 1.518 . S
C937 C546 1.413 . S
C955 C376 1.613 . S
C951 C15 1.606 . S
C973 C460 1.599 . S
C969 C55 1.592 . S
C987 C95 1.591 . S
C991 C467 1.593 . S
C1009 C383 1.577 . S
C1005 C135 1.581 . S
C1027 C555 1.611 . S
C1023 C175 1.603 . S
C1041 C215 1.591 . S
C1045 C639 1.598 . S
C1059 C255 1.586 . S
C1063 C646 1.594 . S
C1077 C295 1.584 . S
C1081 C562 1.573 . S
