# Generated by pormake.
# Topology iac, (4,6)-cn, num edge types: 1
# Building blocks:
#     Node 0, Type 0, BuildingBlock: AZAVOO_clean_sbu_0, # of connection points: 4
#     Node 1, Type 0, BuildingBlock: AZAVOO_clean_sbu_0, # of connection points: 4
#     Node 2, Type 0, BuildingBlock: AZAVOO_clean_sbu_0, # of connection points: 4
#     Node 3, Type 0, BuildingBlock: AZAVOO_clean_sbu_0, # of connection points: 4
#     Node 4, Type 0, BuildingBlock: AZAVOO_clean_sbu_0, # of connection points: 4
#     Node 5, Type 0, BuildingBlock: AZAVOO_clean_sbu_0, # of connection points: 4
#     Node 6, Type 0, BuildingBlock: AZAVOO_clean_sbu_0, # of connection points: 4
#     Node 7, Type 0, BuildingBlock: AZAVOO_clean_sbu_0, # of connection points: 4
#     Node 8, Type 0, BuildingBlock: AZAVOO_clean_sbu_0, # of connection points: 4
#     Node 9, Type 0, BuildingBlock: AZAVOO_clean_sbu_0, # of connection points: 4
#     Node 10, Type 0, BuildingBlock: AZAVOO_clean_sbu_0, # of connection points: 4
#     Node 11, Type 0, BuildingBlock: AZAVOO_clean_sbu_0, # of connection points: 4
#     Node 12, Type 0, BuildingBlock: AZAVOO_clean_sbu_0, # of connection points: 4
#     Node 13, Type 0, BuildingBlock: AZAVOO_clean_sbu_0, # of connection points: 4
#     Node 14, Type 0, BuildingBlock: AZAVOO_clean_sbu_0, # of connection points: 4
#     Node 15, Type 0, BuildingBlock: AZAVOO_clean_sbu_0, # of connection points: 4
#     Node 16, Type 0, BuildingBlock: AZAVOO_clean_sbu_0, # of connection points: 4
#     Node 17, Type 0, BuildingBlock: AZAVOO_clean_sbu_0, # of connection points: 4
#     Node 18, Type 0, BuildingBlock: AZAVOO_clean_sbu_0, # of connection points: 4
#     Node 19, Type 0, BuildingBlock: AZAVOO_clean_sbu_0, # of connection points: 4
#     Node 20, Type 0, BuildingBlock: AZAVOO_clean_sbu_0, # of connection points: 4
#     Node 21, Type 0, BuildingBlock: AZAVOO_clean_sbu_0, # of connection points: 4
#     Node 22, Type 0, BuildingBlock: AZAVOO_clean_sbu_0, # of connection points: 4
#     Node 23, Type 0, BuildingBlock: AZAVOO_clean_sbu_0, # of connection points: 4
#     Node 24, Type 1, BuildingBlock: JUFBIX_clean_sbu_0, # of connection points: 6
#     Node 25, Type 1, BuildingBlock: JUFBIX_clean_sbu_0, # of connection points: 6
#     Node 26, Type 1, BuildingBlock: JUFBIX_clean_sbu_0, # of connection points: 6
#     Node 27, Type 1, BuildingBlock: JUFBIX_clean_sbu_0, # of connection points: 6
#     Node 28, Type 1, BuildingBlock: JUFBIX_clean_sbu_0, # of connection points: 6
#     Node 29, Type 1, BuildingBlock: JUFBIX_clean_sbu_0, # of connection points: 6
#     Node 30, Type 1, BuildingBlock: JUFBIX_clean_sbu_0, # of connection points: 6
#     Node 31, Type 1, BuildingBlock: JUFBIX_clean_sbu_0, # of connection points: 6
#     Node 32, Type 1, BuildingBlock: JUFBIX_clean_sbu_0, # of connection points: 6
#     Node 33, Type 1, BuildingBlock: JUFBIX_clean_sbu_0, # of connection points: 6
#     Node 34, Type 1, BuildingBlock: JUFBIX_clean_sbu_0, # of connection points: 6
#     Node 35, Type 1, BuildingBlock: JUFBIX_clean_sbu_0, # of connection points: 6
#     Node 36, Type 1, BuildingBlock: JUFBIX_clean_sbu_0, # of connection points: 6
#     Node 37, Type 1, BuildingBlock: JUFBIX_clean_sbu_0, # of connection points: 6
#     Node 38, Type 1, BuildingBlock: JUFBIX_clean_sbu_0, # of connection points: 6
#     Node 39, Type 1, BuildingBlock: JUFBIX_clean_sbu_0, # of connection points: 6
#     Edge 40, Type (0, 1), BuildingBlock: UVAHIK_clean_linker_0, # of connection points: 2
#     Edge 41, Type (0, 1), BuildingBlock: UVAHIK_clean_linker_0, # of connection points: 2
#     Edge 42, Type (0, 1), BuildingBlock: UVAHIK_clean_linker_0, # of connection points: 2
#     Edge 43, Type (0, 1), BuildingBlock: UVAHIK_clean_linker_0, # of connection points: 2
#     Edge 44, Type (0, 1), BuildingBlock: UVAHIK_clean_linker_0, # of connection points: 2
#     Edge 45, Type (0, 1), BuildingBlock: UVAHIK_clean_linker_0, # of connection points: 2
#     Edge 46, Type (0, 1), BuildingBlock: UVAHIK_clean_linker_0, # of connection points: 2
#     Edge 47, Type (0, 1), BuildingBlock: UVAHIK_clean_linker_0, # of connection points: 2
#     Edge 48, Type (0, 1), BuildingBlock: UVAHIK_clean_linker_0, # of connection points: 2
#     Edge 49, Type (0, 1), BuildingBlock: UVAHIK_clean_linker_0, # of connection points: 2
#     Edge 50, Type (0, 1), BuildingBlock: UVAHIK_clean_linker_0, # of connection points: 2
#     Edge 51, Type (0, 1), BuildingBlock: UVAHIK_clean_linker_0, # of connection points: 2
#     Edge 52, Type (0, 1), BuildingBlock: UVAHIK_clean_linker_0, # of connection points: 2
#     Edge 53, Type (0, 1), BuildingBlock: UVAHIK_clean_linker_0, # of connection points: 2
#     Edge 54, Type (0, 1), BuildingBlock: UVAHIK_clean_linker_0, # of connection points: 2
#     Edge 55, Type (0, 1), BuildingBlock: UVAHIK_clean_linker_0, # of connection points: 2
#     Edge 56, Type (0, 1), BuildingBlock: UVAHIK_clean_linker_0, # of connection points: 2
#     Edge 57, Type (0, 1), BuildingBlock: UVAHIK_clean_linker_0, # of connection points: 2
#     Edge 58, Type (0, 1), BuildingBlock: UVAHIK_clean_linker_0, # of connection points: 2
#     Edge 59, Type (0, 1), BuildingBlock: UVAHIK_clean_linker_0, # of connection points: 2
#     Edge 60, Type (0, 1), BuildingBlock: UVAHIK_clean_linker_0, # of connection points: 2
#     Edge 61, Type (0, 1), BuildingBlock: UVAHIK_clean_linker_0, # of connection points: 2
#     Edge 62, Type (0, 1), BuildingBlock: UVAHIK_clean_linker_0, # of connection points: 2
#     Edge 63, Type (0, 1), BuildingBlock: UVAHIK_clean_linker_0, # of connection points: 2
#     Edge 64, Type (0, 1), BuildingBlock: UVAHIK_clean_linker_0, # of connection points: 2
#     Edge 65, Type (0, 1), BuildingBlock: UVAHIK_clean_linker_0, # of connection points: 2
#     Edge 66, Type (0, 1), BuildingBlock: UVAHIK_clean_linker_0, # of connection points: 2
#     Edge 67, Type (0, 1), BuildingBlock: UVAHIK_clean_linker_0, # of connection points: 2
#     Edge 68, Type (0, 1), BuildingBlock: UVAHIK_clean_linker_0, # of connection points: 2
#     Edge 69, Type (0, 1), BuildingBlock: UVAHIK_clean_linker_0, # of connection points: 2
#     Edge 70, Type (0, 1), BuildingBlock: UVAHIK_clean_linker_0, # of connection points: 2
#     Edge 71, Type (0, 1), BuildingBlock: UVAHIK_clean_linker_0, # of connection points: 2
#     Edge 72, Type (0, 1), BuildingBlock: UVAHIK_clean_linker_0, # of connection points: 2
#     Edge 73, Type (0, 1), BuildingBlock: UVAHIK_clean_linker_0, # of connection points: 2
#     Edge 74, Type (0, 1), BuildingBlock: UVAHIK_clean_linker_0, # of connection points: 2
#     Edge 75, Type (0, 1), BuildingBlock: UVAHIK_clean_linker_0, # of connection points: 2
#     Edge 76, Type (0, 1), BuildingBlock: UVAHIK_clean_linker_0, # of connection points: 2
#     Edge 77, Type (0, 1), BuildingBlock: UVAHIK_clean_linker_0, # of connection points: 2
#     Edge 78, Type (0, 1), BuildingBlock: UVAHIK_clean_linker_0, # of connection points: 2
#     Edge 79, Type (0, 1), BuildingBlock: UVAHIK_clean_linker_0, # of connection points: 2
#     Edge 80, Type (0, 1), BuildingBlock: UVAHIK_clean_linker_0, # of connection points: 2
#     Edge 81, Type (0, 1), BuildingBlock: UVAHIK_clean_linker_0, # of connection points: 2
#     Edge 82, Type (0, 1), BuildingBlock: UVAHIK_clean_linker_0, # of connection points: 2
#     Edge 83, Type (0, 1), BuildingBlock: UVAHIK_clean_linker_0, # of connection points: 2
#     Edge 84, Type (0, 1), BuildingBlock: UVAHIK_clean_linker_0, # of connection points: 2
#     Edge 85, Type (0, 1), BuildingBlock: UVAHIK_clean_linker_0, # of connection points: 2
#     Edge 86, Type (0, 1), BuildingBlock: UVAHIK_clean_linker_0, # of connection points: 2
#     Edge 87, Type (0, 1), BuildingBlock: UVAHIK_clean_linker_0, # of connection points: 2
#     Edge 88, Type (0, 1), BuildingBlock: UVAHIK_clean_linker_0, # of connection points: 2
#     Edge 89, Type (0, 1), BuildingBlock: UVAHIK_clean_linker_0, # of connection points: 2
#     Edge 90, Type (0, 1), BuildingBlock: UVAHIK_clean_linker_0, # of connection points: 2
#     Edge 91, Type (0, 1), BuildingBlock: UVAHIK_clean_linker_0, # of connection points: 2
#     Edge 92, Type (0, 1), BuildingBlock: UVAHIK_clean_linker_0, # of connection points: 2
#     Edge 93, Type (0, 1), BuildingBlock: UVAHIK_clean_linker_0, # of connection points: 2
#     Edge 94, Type (0, 1), BuildingBlock: UVAHIK_clean_linker_0, # of connection points: 2
#     Edge 95, Type (0, 1), BuildingBlock: UVAHIK_clean_linker_0, # of connection points: 2
#     Edge 96, Type (0, 1), BuildingBlock: UVAHIK_clean_linker_0, # of connection points: 2
#     Edge 97, Type (0, 1), BuildingBlock: UVAHIK_clean_linker_0, # of connection points: 2
#     Edge 98, Type (0, 1), BuildingBlock: UVAHIK_clean_linker_0, # of connection points: 2
#     Edge 99, Type (0, 1), BuildingBlock: UVAHIK_clean_linker_0, # of connection points: 2
#     Edge 100, Type (0, 1), BuildingBlock: UVAHIK_clean_linker_0, # of connection points: 2
#     Edge 101, Type (0, 1), BuildingBlock: UVAHIK_clean_linker_0, # of connection points: 2
#     Edge 102, Type (0, 1), BuildingBlock: UVAHIK_clean_linker_0, # of connection points: 2
#     Edge 103, Type (0, 1), BuildingBlock: UVAHIK_clean_linker_0, # of connection points: 2
#     Edge 104, Type (0, 1), BuildingBlock: UVAHIK_clean_linker_0, # of connection points: 2
#     Edge 105, Type (0, 1), BuildingBlock: UVAHIK_clean_linker_0, # of connection points: 2
#     Edge 106, Type (0, 1), BuildingBlock: UVAHIK_clean_linker_0, # of connection points: 2
#     Edge 107, Type (0, 1), BuildingBlock: UVAHIK_clean_linker_0, # of connection points: 2
#     Edge 108, Type (0, 1), BuildingBlock: UVAHIK_clean_linker_0, # of connection points: 2
#     Edge 109, Type (0, 1), BuildingBlock: UVAHIK_clean_linker_0, # of connection points: 2
#     Edge 110, Type (0, 1), BuildingBlock: UVAHIK_clean_linker_0, # of connection points: 2
#     Edge 111, Type (0, 1), BuildingBlock: UVAHIK_clean_linker_0, # of connection points: 2
#     Edge 112, Type (0, 1), BuildingBlock: UVAHIK_clean_linker_0, # of connection points: 2
#     Edge 113, Type (0, 1), BuildingBlock: UVAHIK_clean_linker_0, # of connection points: 2
#     Edge 114, Type (0, 1), BuildingBlock: UVAHIK_clean_linker_0, # of connection points: 2
#     Edge 115, Type (0, 1), BuildingBlock: UVAHIK_clean_linker_0, # of connection points: 2
#     Edge 116, Type (0, 1), BuildingBlock: UVAHIK_clean_linker_0, # of connection points: 2
#     Edge 117, Type (0, 1), BuildingBlock: UVAHIK_clean_linker_0, # of connection points: 2
#     Edge 118, Type (0, 1), BuildingBlock: UVAHIK_clean_linker_0, # of connection points: 2
#     Edge 119, Type (0, 1), BuildingBlock: UVAHIK_clean_linker_0, # of connection points: 2
#     Edge 120, Type (0, 1), BuildingBlock: UVAHIK_clean_linker_0, # of connection points: 2
#     Edge 121, Type (0, 1), BuildingBlock: UVAHIK_clean_linker_0, # of connection points: 2
#     Edge 122, Type (0, 1), BuildingBlock: UVAHIK_clean_linker_0, # of connection points: 2
#     Edge 123, Type (0, 1), BuildingBlock: UVAHIK_clean_linker_0, # of connection points: 2
#     Edge 124, Type (0, 1), BuildingBlock: UVAHIK_clean_linker_0, # of connection points: 2
#     Edge 125, Type (0, 1), BuildingBlock: UVAHIK_clean_linker_0, # of connection points: 2
#     Edge 126, Type (0, 1), BuildingBlock: UVAHIK_clean_linker_0, # of connection points: 2
#     Edge 127, Type (0, 1), BuildingBlock: UVAHIK_clean_linker_0, # of connection points: 2
#     Edge 128, Type (0, 1), BuildingBlock: UVAHIK_clean_linker_0, # of connection points: 2
#     Edge 129, Type (0, 1), BuildingBlock: UVAHIK_clean_linker_0, # of connection points: 2
#     Edge 130, Type (0, 1), BuildingBlock: UVAHIK_clean_linker_0, # of connection points: 2
#     Edge 131, Type (0, 1), BuildingBlock: UVAHIK_clean_linker_0, # of connection points: 2
#     Edge 132, Type (0, 1), BuildingBlock: UVAHIK_clean_linker_0, # of connection points: 2
#     Edge 133, Type (0, 1), BuildingBlock: UVAHIK_clean_linker_0, # of connection points: 2
#     Edge 134, Type (0, 1), BuildingBlock: UVAHIK_clean_linker_0, # of connection points: 2
#     Edge 135, Type (0, 1), BuildingBlock: UVAHIK_clean_linker_0, # of connection points: 2
# Relax obj value: 0.248
# Max RMSD: 0.226
# Mean RMSD: 0.173
data_MOF--net-iac--node1-AZAVOO_clean_sbu_0--node2-JUFBIX_clean_sbu_0--edge1-UVAHIK_clean_linker_0
_symmetry_space_group_name_H-M    P1
_symmetry_Int_Tables_number       1
_symmetry_cell_setting            triclinic
loop_
_symmetry_equiv_pos_as_xyz
'x, y, z'
_cell_length_a     70.581462
_cell_length_b     68.882852
_cell_length_c     69.60389
_cell_angle_alpha  91.279835
_cell_angle_beta   88.42148
_cell_angle_gamma 89.89979
loop_
_atom_site_label
_atom_site_type_symbol
_atom_site_fract_x
_atom_site_fract_y
_atom_site_fract_z
_atom_type_partial_charge
Mg0 Mg 0.00519 0.27801 0.1545 0.0
O1 O 0.00705 0.25067 0.13479 0.0
O2 O 0.9815 0.25068 0.11654 0.0
Mg3 Mg 0.96279 0.27673 0.12536 0.0
C4 C 0.99704 0.24306 0.12159 0.0
C5 C 0.04667 0.28954 0.16439 0.0
O6 O 0.03939 0.30679 0.1616 0.0
O7 O 0.01241 0.29807 0.12949 0.0
O8 O 0.98525 0.29797 0.11372 0.0
O9 O 0.98912 0.26134 0.17681 0.0
O10 O 0.97565 0.27752 0.15383 0.0
C11 C 0.00212 0.30414 0.11603 0.0
C12 C 0.97381 0.26637 0.16835 0.0
O13 O 0.03632 0.27462 0.16206 0.0
Mg14 Mg 0.03967 0.76225 0.37655 0.0
O15 O 0.03199 0.78978 0.39436 0.0
O16 O 0.00327 0.78458 0.40766 0.0
Mg17 Mg 0.99243 0.75496 0.39778 0.0
C18 C 0.01789 0.79521 0.4051 0.0
C19 C 0.07872 0.78582 0.37089 0.0
O20 O 0.06821 0.80044 0.36563 0.0
O21 O 0.04435 0.74638 0.40391 0.0
O22 O 0.01534 0.74082 0.4161 0.0
O23 O 0.02692 0.77448 0.35056 0.0
O24 O 0.01126 0.75712 0.37207 0.0
C25 C 0.03337 0.73929 0.41675 0.0
C26 C 0.01101 0.76719 0.35669 0.0
O27 O 0.07089 0.77 0.37564 0.0
Mg28 Mg 0.51453 0.78596 0.64845 0.0
O29 O 0.51295 0.75796 0.62955 0.0
O30 O 0.48495 0.75851 0.61531 0.0
Mg31 Mg 0.46813 0.78515 0.62596 0.0
C32 C 0.50092 0.75049 0.61814 0.0
C33 C 0.55646 0.79608 0.65702 0.0
O34 O 0.54883 0.8135 0.65716 0.0
O35 O 0.51883 0.80507 0.62196 0.0
O36 O 0.48944 0.80499 0.61069 0.0
O37 O 0.50106 0.77089 0.67351 0.0
O38 O 0.4851 0.78658 0.65191 0.0
C39 C 0.50662 0.81082 0.61005 0.0
C40 C 0.48488 0.77631 0.66713 0.0
O41 O 0.54626 0.78153 0.65264 0.0
Mg42 Mg 0.50217 0.23175 0.89439 0.0
O43 O 0.48627 0.25889 0.90555 0.0
O44 O 0.4583 0.24931 0.91779 0.0
Mg45 Mg 0.45564 0.21653 0.91238 0.0
C46 C 0.47041 0.26258 0.91414 0.0
C47 C 0.53111 0.26456 0.88558 0.0
O48 O 0.51573 0.27267 0.87915 0.0
O49 O 0.5067 0.22342 0.92484 0.0
O50 O 0.4788 0.21171 0.93502 0.0
O51 O 0.49157 0.23474 0.86531 0.0
O52 O 0.47656 0.21852 0.88829 0.0
C53 C 0.49629 0.21553 0.93767 0.0
C54 C 0.47692 0.2249 0.87098 0.0
O55 O 0.52991 0.24808 0.89334 0.0
Mg56 Mg 0.14435 0.98089 0.29936 0.0
O57 O 0.16086 0.00944 0.29831 0.0
O58 O 0.17269 0.01531 0.32732 0.0
Mg59 Mg 0.16398 0.99044 0.3468 0.0
C60 C 0.17033 0.01999 0.30989 0.0
C61 C 0.13751 0.99532 0.25859 0.0
O62 O 0.13356 0.01091 0.26917 0.0
O63 O 0.17223 0.96427 0.29858 0.0
O64 O 0.18267 0.96962 0.32823 0.0
O65 O 0.11816 0.99684 0.30864 0.0
O66 O 0.13926 0.98579 0.32866 0.0
C67 C 0.18442 0.96171 0.3115 0.0
C68 C 0.12417 0.99587 0.32599 0.0
O69 O 0.14293 0.98003 0.26676 0.0
Mg70 Mg 0.24474 0.90057 0.54063 0.0
O71 O 0.27288 0.89086 0.52729 0.0
O72 O 0.29748 0.90313 0.54302 0.0
Mg73 Mg 0.28381 0.92103 0.56788 0.0
C74 C 0.29062 0.89297 0.52936 0.0
C75 C 0.2144 0.87669 0.51636 0.0
O76 O 0.20878 0.862 0.5056 0.0
O77 O 0.2478 0.88023 0.56535 0.0
O78 O 0.27192 0.89321 0.58129 0.0
O79 O 0.24678 0.92598 0.52162 0.0
O80 O 0.25785 0.92547 0.55111 0.0
C81 C 0.25925 0.88017 0.57919 0.0
C82 C 0.25682 0.93406 0.5349 0.0
O83 O 0.23088 0.87624 0.52322 0.0
Mg84 Mg 0.38428 0.06041 0.78052 0.0
O85 O 0.3805 0.02894 0.78931 0.0
O86 O 0.37085 0.02874 0.82015 0.0
Mg87 Mg 0.36963 0.06032 0.83124 0.0
C88 C 0.37521 0.01988 0.80431 0.0
C89 C 0.39864 0.03901 0.7441 0.0
O90 O 0.40939 0.03189 0.75737 0.0
O91 O 0.35254 0.06289 0.78052 0.0
O92 O 0.34401 0.06559 0.8117 0.0
O93 O 0.41421 0.0603 0.78864 0.0
O94 O 0.39044 0.06849 0.80861 0.0
C95 C 0.33998 0.0652 0.79388 0.0
C96 C 0.40832 0.06517 0.80586 0.0
O97 O 0.38565 0.05101 0.74911 0.0
Mg98 Mg 0.29409 0.14127 0.98657 0.0
O99 O 0.29264 0.16238 0.01264 0.0
O100 O 0.31783 0.18185 0.01057 0.0
Mg101 Mg 0.33577 0.17248 0.98386 0.0
C102 C 0.30264 0.17633 0.01921 0.0
C103 C 0.25299 0.12742 0.9785 0.0
O104 O 0.25975 0.12886 0.96082 0.0
O105 O 0.28572 0.16483 0.96552 0.0
O106 O 0.31273 0.18152 0.96285 0.0
O107 O 0.3108 0.12067 0.00371 0.0
O108 O 0.32365 0.14307 0.9853 0.0
C109 C 0.29576 0.17812 0.95775 0.0
C110 C 0.32587 0.12937 0.99734 0.0
O111 O 0.26343 0.1323 0.99239 0.0
Mg112 Mg 0.74444 0.43007 0.05218 0.0
O113 O 0.75023 0.40814 0.02725 0.0
O114 O 0.77907 0.39545 0.03094 0.0
Mg115 Mg 0.79129 0.40846 0.05819 0.0
C116 C 0.76377 0.39681 0.02171 0.0
C117 C 0.70488 0.44737 0.04799 0.0
O118 O 0.71483 0.46229 0.05405 0.0
O119 O 0.73888 0.4054 0.07269 0.0
O120 O 0.76793 0.39274 0.07525 0.0
O121 O 0.75841 0.45314 0.03483 0.0
O122 O 0.77335 0.43425 0.05477 0.0
C123 C 0.75017 0.39287 0.07928 0.0
C124 C 0.7742 0.44735 0.04187 0.0
O125 O 0.71319 0.43116 0.04514 0.0
Mg126 Mg 0.88752 0.53759 0.27212 0.0
O127 O 0.87722 0.5081 0.28243 0.0
O128 O 0.86545 0.51272 0.31237 0.0
Mg129 Mg 0.87018 0.54431 0.32168 0.0
C130 C 0.86908 0.50179 0.29765 0.0
C131 C 0.89987 0.51317 0.23631 0.0
O132 O 0.90953 0.50471 0.24967 0.0
O133 O 0.85716 0.54687 0.26971 0.0
O134 O 0.84761 0.55345 0.30005 0.0
O135 O 0.9162 0.53164 0.28216 0.0
O136 O 0.8936 0.54582 0.30015 0.0
C137 C 0.84463 0.5528 0.282 0.0
C138 C 0.91047 0.53854 0.29877 0.0
O139 O 0.88845 0.52678 0.24117 0.0
Mg140 Mg 0.79598 0.63826 0.49782 0.0
O141 O 0.79331 0.65862 0.52464 0.0
O142 O 0.81809 0.67874 0.5233 0.0
Mg143 Mg 0.83729 0.67043 0.49736 0.0
C144 C 0.80285 0.6728 0.53152 0.0
C145 C 0.75499 0.62637 0.48663 0.0
O146 O 0.76266 0.62994 0.46967 0.0
O147 O 0.78809 0.66253 0.47735 0.0
O148 O 0.81494 0.67957 0.47592 0.0
O149 O 0.81291 0.61699 0.5144 0.0
O150 O 0.82552 0.64087 0.49788 0.0
C151 C 0.79819 0.67613 0.47025 0.0
C152 C 0.8279 0.6265 0.50908 0.0
O153 O 0.76493 0.62876 0.50148 0.0
Mg154 Mg 0.60793 0.50473 0.80297 0.0
O155 O 0.6223 0.53419 0.80713 0.0
O156 O 0.6345 0.53489 0.83642 0.0
Mg157 Mg 0.62731 0.50634 0.85108 0.0
C158 C 0.63157 0.54275 0.82032 0.0
C159 C 0.60136 0.52425 0.76289 0.0
O160 O 0.59589 0.53928 0.77361 0.0
O161 O 0.63684 0.49083 0.79943 0.0
O162 O 0.64757 0.49037 0.82933 0.0
O163 O 0.58056 0.51621 0.81538 0.0
O164 O 0.603 0.50274 0.8322 0.0
C165 C 0.64945 0.48637 0.81134 0.0
C166 C 0.58674 0.51121 0.83192 0.0
O167 O 0.60691 0.50892 0.77086 0.0
Mg168 Mg 0.00752 0.76466 0.88826 0.0
O169 O 0.00762 0.79446 0.90365 0.0
O170 O 0.98011 0.79826 0.91982 0.0
Mg171 Mg 0.9623 0.7709 0.91435 0.0
C172 C 0.99646 0.8045 0.91466 0.0
C173 C 0.04805 0.75244 0.87541 0.0
O174 O 0.03861 0.73621 0.8728 0.0
O175 O 0.01186 0.74907 0.91641 0.0
O176 O 0.98323 0.75193 0.93079 0.0
O177 O 0.99405 0.77732 0.86266 0.0
O178 O 0.97801 0.76472 0.88701 0.0
C179 C 0.00024 0.74543 0.93026 0.0
C180 C 0.97784 0.77307 0.87065 0.0
O181 O 0.03927 0.76726 0.88229 0.0
Mg182 Mg 0.97909 0.32629 0.64838 0.0
O183 O 0.98562 0.2964 0.63508 0.0
O184 O 0.96125 0.28717 0.61728 0.0
Mg185 Mg 0.9387 0.31106 0.61995 0.0
C186 C 0.97767 0.28417 0.62391 0.0
C187 C 0.01484 0.33645 0.67171 0.0
O188 O 0.00162 0.34338 0.68364 0.0
O189 O 0.9844 0.33958 0.61936 0.0
O190 O 0.95846 0.33168 0.60319 0.0
O191 O 0.9654 0.3128 0.6739 0.0
O192 O 0.95024 0.32063 0.64776 0.0
C193 C 0.97441 0.34032 0.60438 0.0
C194 C 0.94988 0.31273 0.66438 0.0
O195 O 0.01006 0.32903 0.65571 0.0
Mg196 Mg 0.49716 0.27201 0.38675 0.0
O197 O 0.49852 0.30251 0.4004 0.0
O198 O 0.47053 0.3086 0.41497 0.0
Mg199 Mg 0.45084 0.28274 0.40901 0.0
C200 C 0.48746 0.31361 0.41046 0.0
C201 C 0.53581 0.25656 0.37372 0.0
O202 O 0.52416 0.24252 0.3689 0.0
O203 O 0.49837 0.25788 0.41603 0.0
O204 O 0.46871 0.26253 0.42733 0.0
O205 O 0.4866 0.28387 0.3594 0.0
O206 O 0.46811 0.27417 0.3834 0.0
C207 C 0.48523 0.25509 0.42867 0.0
C208 C 0.46966 0.28127 0.36649 0.0
O209 O 0.52912 0.27151 0.38252 0.0
Mg210 Mg 0.50736 0.81781 0.12636 0.0
O211 O 0.49939 0.78618 0.11977 0.0
O212 O 0.4678 0.78437 0.11831 0.0
Mg213 Mg 0.45591 0.81501 0.12256 0.0
C214 C 0.48418 0.77647 0.11754 0.0
C215 C 0.55028 0.82381 0.12401 0.0
O216 O 0.54413 0.84154 0.12783 0.0
O217 O 0.5023 0.82509 0.09552 0.0
O218 O 0.4707 0.82466 0.09424 0.0
O219 O 0.50433 0.81274 0.15744 0.0
O220 O 0.48087 0.82261 0.13953 0.0
C221 C 0.48706 0.82733 0.08637 0.0
C222 C 0.48652 0.81675 0.15592 0.0
O223 O 0.53826 0.81059 0.12053 0.0
Mg224 Mg 0.87487 0.07191 0.75941 0.0
O225 O 0.86829 0.04 0.76466 0.0
O226 O 0.85817 0.03657 0.79505 0.0
Mg227 Mg 0.85768 0.06676 0.8091 0.0
C228 C 0.86238 0.02945 0.7784 0.0
C229 C 0.88731 0.07619 0.71713 0.0
O230 O 0.88973 0.09409 0.72349 0.0
O231 O 0.84344 0.07811 0.75774 0.0
O232 O 0.83417 0.0755 0.7886 0.0
O233 O 0.90392 0.0678 0.76924 0.0
O234 O 0.8798 0.0765 0.78856 0.0
C235 C 0.83062 0.07882 0.77105 0.0
C236 C 0.89736 0.07146 0.78648 0.0
O237 O 0.8787 0.06424 0.72786 0.0
Mg238 Mg 0.79689 0.13123 0.51696 0.0
O239 O 0.78936 0.15775 0.53588 0.0
O240 O 0.8132 0.179 0.53462 0.0
Mg241 Mg 0.83604 0.16602 0.51422 0.0
C242 C 0.79681 0.1739 0.54083 0.0
C243 C 0.75659 0.11496 0.50614 0.0
O244 O 0.7642 0.1137 0.48871 0.0
O245 O 0.79106 0.14826 0.49023 0.0
O246 O 0.81598 0.16823 0.48898 0.0
O247 O 0.81102 0.11736 0.54134 0.0
O248 O 0.82542 0.13678 0.52065 0.0
C249 C 0.80067 0.16156 0.48204 0.0
C250 C 0.82608 0.12674 0.536 0.0
O251 O 0.7664 0.12141 0.51988 0.0
Mg252 Mg 0.65032 0.95757 0.299 0.0
O253 O 0.65755 0.98982 0.29822 0.0
O254 O 0.66937 -0.00102 0.32642 0.0
Mg255 Mg 0.66933 0.97234 0.34539 0.0
C256 C 0.66449 0.00274 0.30937 0.0
C257 C 0.63864 0.94468 0.25757 0.0
O258 O 0.6325 0.92937 0.26676 0.0
O259 O 0.68153 0.95052 0.29621 0.0
O260 O 0.69229 0.95824 0.3253 0.0
O261 O 0.62153 0.96465 0.31022 0.0
O262 O 0.64609 0.9596 0.32863 0.0
C263 C 0.69492 0.95158 0.30814 0.0
C264 C 0.62859 0.96474 0.3272 0.0
O265 O 0.64728 0.95794 0.26676 0.0
Mg266 Mg 0.79336 0.9012 0.01248 0.0
O267 O 0.79235 0.88525 0.98309 0.0
O268 O 0.81787 0.86599 0.98078 0.0
Mg269 Mg 0.83636 0.87186 0.00692 0.0
C270 C 0.80246 0.87241 0.97408 0.0
C271 C 0.75331 0.91337 0.02663 0.0
O272 O 0.76197 0.91075 0.04285 0.0
O273 O 0.78618 0.87332 0.02839 0.0
O274 O 0.81394 0.85763 0.02669 0.0
O275 O 0.80933 0.92601 -0.00035 0.0
O276 O 0.82282 0.9004 0.01198 0.0
C277 C 0.79675 0.85912 0.03286 0.0
C278 C 0.82469 0.91685 0.00375 0.0
O279 O 0.7623 0.90982 0.01086 0.0
Mg280 Mg 0.26483 0.65358 0.03006 0.0
O281 O 0.28926 0.66411 0.04777 0.0
O282 O 0.31526 0.64596 0.04317 0.0
Mg283 Mg 0.30786 0.62586 0.01765 0.0
C284 C 0.30627 0.6599 0.05167 0.0
C285 C 0.23339 0.68318 0.04826 0.0
O286 O 0.2276 0.70053 0.05407 0.0
O287 O 0.27732 0.6688 0.00431 0.0
O288 O 0.30398 0.65199 0.998 0.0
O289 O 0.25948 0.63158 0.0528 0.0
O290 O 0.27749 0.62645 0.0266 0.0
C291 C 0.29266 0.66591 0.99453 0.0
C292 C 0.2713 0.62059 0.043 0.0
O293 O 0.2495 0.68148 0.03979 0.0
Mg294 Mg 0.16551 0.4667 0.80025 0.0
O295 O 0.1767 0.49745 0.80436 0.0
O296 O 0.19283 0.49928 0.83151 0.0
Mg297 Mg 0.19141 0.46935 0.84498 0.0
C298 C 0.18652 0.50699 0.81644 0.0
C299 C 0.15113 0.46165 0.75828 0.0
O300 O 0.1472 0.44413 0.76429 0.0
O301 O 0.19503 0.45713 0.79202 0.0
O302 O 0.21023 0.45689 0.81979 0.0
O303 O 0.13927 0.47476 0.81589 0.0
O304 O 0.16476 0.46345 0.82988 0.0
C305 C 0.20982 0.45402 0.80159 0.0
C306 C 0.14804 0.47109 0.83151 0.0
O307 O 0.15917 0.47365 0.76949 0.0
Mg308 Mg 0.29312 0.39782 0.50428 0.0
O309 O 0.29182 0.38179 0.47484 0.0
O310 O 0.31702 0.36211 0.4728 0.0
Mg311 Mg 0.33543 0.36761 0.49912 0.0
C312 C 0.30178 0.36875 0.46593 0.0
C313 C 0.25466 0.4133 0.51869 0.0
O314 O 0.26442 0.41199 0.53442 0.0
O315 O 0.28521 0.37014 0.52031 0.0
O316 O 0.31257 0.35373 0.51882 0.0
O317 O 0.30941 0.42225 0.49133 0.0
O318 O 0.32272 0.39665 0.50388 0.0
C319 C 0.29537 0.35566 0.52487 0.0
C320 C 0.32472 0.41304 0.4955 0.0
O321 O 0.26227 0.40743 0.50282 0.0
Mg322 Mg 0.33376 0.53328 0.28443 0.0
O323 O 0.35249 0.50696 0.28768 0.0
O324 O 0.35235 0.49724 0.31818 0.0
Mg325 Mg 0.33421 0.51942 0.33604 0.0
C326 C 0.35778 0.49536 0.30053 0.0
C327 C 0.34181 0.54107 0.24221 0.0
O328 O 0.34472 0.55808 0.25054 0.0
O329 O 0.30835 0.51335 0.28963 0.0
O330 O 0.30805 0.50826 0.31995 0.0
O331 O 0.35872 0.55218 0.28943 0.0
O332 O 0.34048 0.5411 0.31301 0.0
C333 C 0.30214 0.51841 0.3063 0.0
C334 C 0.35567 0.55007 0.30769 0.0
O335 O 0.33487 0.52754 0.25226 0.0
Co336 Co 0.03453 0.03261 0.99683 0.0
C337 C 0.03246 0.05643 0.02992 0.0
Co338 Co 0.04105 0.01777 0.02349 0.0
C339 C 0.01734 0.0424 0.9613 0.0
C340 C 0.03847 0.06291 0.96969 0.0
N341 N 0.02997 0.04629 0.97501 0.0
N342 N 0.01756 0.05598 0.94759 0.0
C343 C 0.03092 0.06887 0.95283 0.0
H344 H 0.00788 0.03006 0.96167 0.0
H345 H 0.04936 0.07031 0.97764 0.0
C346 C 0.04243 0.99389 0.99033 0.0
N347 N 0.04589 0.00409 0.0453 0.0
C348 C 0.05738 0.00891 0.0598 0.0
C349 C 0.03925 0.98629 0.04951 0.0
N350 N 0.05831 0.99473 0.07283 0.0
C351 C 0.04688 0.98049 0.06641 0.0
C352 C 0.00287 0.01641 0.01371 0.0
O353 O 0.03787 0.00934 0.98192 0.0
O354 O 0.04525 0.99466 0.00829 0.0
O355 O 0.01481 0.01115 0.02594 0.0
O356 O 0.00843 0.02681 -0.00016 0.0
O357 O 0.03671 0.04102 0.03858 0.0
H358 H 0.02968 0.97796 0.04071 0.0
H359 H 0.06531 0.02233 0.0605 0.0
O360 O 0.03093 0.05574 0.01178 0.0
O361 O 0.06068 0.03822 0.99382 0.0
O362 O 0.06726 0.0244 0.02084 0.0
C363 C 0.07273 0.03371 0.00615 0.0
H364 H 0.03506 0.08168 0.94506 0.0
H365 H 0.04417 0.96688 0.07345 0.0
Co366 Co 0.31288 0.76402 0.3167 0.0
C367 C 0.30942 0.72495 0.30662 0.0
Co368 Co 0.29963 0.75858 0.2888 0.0
C369 C 0.32137 0.78129 0.35387 0.0
C370 C 0.33996 0.75786 0.34546 0.0
N371 N 0.32471 0.76784 0.33981 0.0
N372 N 0.33401 0.78014 0.36806 0.0
C373 C 0.34569 0.76534 0.36278 0.0
H374 H 0.30995 0.79177 0.35356 0.0
H375 H 0.34679 0.74617 0.33725 0.0
C376 C 0.30245 0.79761 0.29876 0.0
N377 N 0.28881 0.75421 0.26526 0.0
C378 C 0.2962 0.74269 0.25104 0.0
C379 C 0.27358 0.76266 0.25766 0.0
N380 N 0.28645 0.74376 0.23473 0.0
C381 C 0.27214 0.75631 0.23881 0.0
C382 C 0.27381 0.76084 0.31937 0.0
O383 O 0.31028 0.79137 0.31368 0.0
O384 O 0.29694 0.78556 0.28603 0.0
O385 O 0.2757 0.7578 0.30133 0.0
O386 O 0.28849 0.76365 0.32931 0.0
O387 O 0.30228 0.73165 0.29163 0.0
H388 H 0.26454 0.77324 0.26511 0.0
H389 H 0.30914 0.73443 0.25237 0.0
O390 O 0.31506 0.73664 0.3196 0.0
O391 O 0.33716 0.76475 0.30384 0.0
O392 O 0.32347 0.75967 0.27643 0.0
C393 C 0.33839 0.76271 0.28569 0.0
H394 H 0.3579 0.76063 0.37052 0.0
H395 H 0.2616 0.76086 0.22883 0.0
Co396 Co 0.48763 0.03285 0.51719 0.0
C397 C 0.49857 0.07162 0.51713 0.0
Co398 Co 0.51414 0.03869 0.5323 0.0
C399 C 0.44905 0.02085 0.51188 0.0
C400 C 0.46101 0.03388 0.48672 0.0
N401 N 0.4652 0.02856 0.50466 0.0
N402 N 0.43488 0.02128 0.49926 0.0
C403 C 0.4424 0.02935 0.48334 0.0
H404 H 0.44765 0.01524 0.52625 0.0
H405 H 0.47069 0.04111 0.47694 0.0
C406 C 0.50347 -0.00012 0.53238 0.0
N407 N 0.5366 0.0432 0.54453 0.0
C408 C 0.55199 0.05197 0.53686 0.0
C409 C 0.54188 0.03751 0.56201 0.0
N410 N 0.56679 0.05179 0.54868 0.0
C411 C 0.56046 0.04284 0.56463 0.0
C412 C 0.48242 0.04151 0.5561 0.0
O413 O 0.48961 0.00582 0.52272 0.0
O414 O 0.51574 0.01205 0.53804 0.0
O415 O 0.50033 0.04331 0.55564 0.0
O416 O 0.47396 0.03725 0.54072 0.0
O417 O 0.51252 0.06544 0.52639 0.0
H418 H 0.53297 0.02952 0.57194 0.0
H419 H 0.55236 0.05815 0.5227 0.0
O420 O 0.48586 0.05975 0.51185 0.0
O421 O 0.50151 0.02841 0.49378 0.0
O422 O 0.52779 0.03376 0.50896 0.0
C423 C 0.51946 0.02946 0.49354 0.0
H424 H 0.43481 0.03245 0.47045 0.0
H425 H 0.56886 0.03967 0.57696 0.0
Co426 Co 0.2747 0.2423 0.72881 0.0
C427 C 0.2576 0.24934 0.69404 0.0
Co428 Co 0.24357 0.24482 0.73131 0.0
C429 C 0.31251 0.23099 0.73829 0.0
C430 C 0.31238 0.25013 0.7145 0.0
N431 N 0.30081 0.24026 0.72652 0.0
N432 N 0.33087 0.23504 0.73442 0.0
C433 C 0.33088 0.24699 0.71935 0.0
H434 H 0.30762 0.22257 0.75039 0.0
H435 H 0.30768 0.2599 0.70365 0.0
C436 C 0.26078 0.23836 0.76626 0.0
N437 N 0.21757 0.24696 0.73384 0.0
C438 C 0.20609 0.26016 0.72607 0.0
C439 C 0.206 0.23574 0.74455 0.0
N440 N 0.18776 0.25766 0.73153 0.0
C441 C 0.1877 0.24227 0.74319 0.0
C442 C 0.25613 0.20721 0.72476 0.0
O443 O 0.27577 0.23853 0.75578 0.0
O444 O 0.24492 0.24095 0.75848 0.0
O445 O 0.24134 0.21758 0.72729 0.0
O446 O 0.27231 0.21528 0.72463 0.0
O447 O 0.24238 0.24888 0.70424 0.0
H448 H 0.21062 0.2237 0.753 0.0
H449 H 0.21116 0.2713 0.71651 0.0
O450 O 0.27331 0.24627 0.70195 0.0
O451 O 0.27707 0.26929 0.73309 0.0
O452 O 0.24605 0.27201 0.73523 0.0
C453 C 0.26237 0.27974 0.73537 0.0
H454 H 0.34328 0.25372 0.71291 0.0
H455 H 0.17539 0.23633 0.75055 0.0
Co456 Co 0.03023 0.02444 0.53663 0.0
C457 C 0.02951 0.0299 0.57593 0.0
Co458 Co 0.04654 0.04998 0.54606 0.0
C459 C 0.02354 0.9884 0.51629 0.0
C460 C -7e-05 0.99682 0.53456 0.0
N461 N 0.0174 0.00247 0.52874 0.0
N462 N 0.01065 0.9741 0.51413 0.0
C463 C 0.99573 0.97944 0.5256 0.0
H464 H 0.03742 0.9885 0.5093 0.0
H465 H 0.99089 0.00478 0.54479 0.0
C466 C 0.04603 0.04483 0.50658 0.0
N467 N 0.05896 0.07224 0.55402 0.0
C468 C 0.05076 0.08679 0.56449 0.0
C469 C 0.07614 0.07911 0.54864 0.0
N470 N 0.06172 0.10275 0.56534 0.0
C471 C 0.07788 0.09794 0.55561 0.0
C472 C 0.06856 0.01748 0.54238 0.0
O473 O 0.03518 0.03081 0.51086 0.0
O474 O 0.05324 0.0551 0.5199 0.0
O475 O 0.069 0.03513 0.54808 0.0
O476 O 0.05308 0.01022 0.53678 0.0
O477 O 0.03949 0.04473 0.57206 0.0
H478 H 0.08618 0.07143 0.53921 0.0
H479 H 0.03648 0.08607 0.5705 0.0
O480 O 0.025 0.01833 0.56238 0.0
O481 O 0.00757 0.03873 0.53662 0.0
O482 O 0.0238 0.06471 0.54399 0.0
C483 C 0.00804 0.05676 0.54052 0.0
H484 H 0.98266 0.97143 0.5274 0.0
H485 H 0.08946 0.10777 0.5525 0.0
Co486 Co 0.27406 0.77988 0.78808 0.0
C487 C 0.23841 0.76451 0.79654 0.0
Co488 Co 0.27025 0.74987 0.77723 0.0
C489 C 0.28887 0.8189 0.79092 0.0
C490 C 0.26843 0.81308 0.81333 0.0
N491 N 0.27717 0.80496 0.79763 0.0
N492 N 0.28767 0.83535 0.80177 0.0
C493 C 0.27476 0.8318 0.81583 0.0
H494 H 0.29807 0.81709 0.77831 0.0
H495 H 0.25831 0.80578 0.8226 0.0
C496 C 0.30581 0.76469 0.76864 0.0
N497 N 0.2671 0.72492 0.76786 0.0
C498 C 0.25936 0.70989 0.77728 0.0
C499 C 0.27136 0.7179 0.75001 0.0
N500 N 0.25849 0.69375 0.76602 0.0
C501 C 0.26601 0.69871 0.74882 0.0
C502 C 0.26032 0.77788 0.75141 0.0
O503 O 0.29944 0.7797 0.77763 0.0
O504 O 0.29521 0.74993 0.76691 0.0
O505 O 0.26136 0.75973 0.75401 0.0
O506 O 0.26516 0.78961 0.76474 0.0
O507 O 0.24521 0.74973 0.78757 0.0
H508 H 0.27777 0.72625 0.73858 0.0
H509 H 0.25401 0.71093 0.79199 0.0
O510 O 0.24864 0.77956 0.79835 0.0
O511 O 0.28298 0.77011 0.81131 0.0
O512 O 0.27927 0.74023 0.80056 0.0
C513 C 0.28422 0.75196 0.81383 0.0
H514 H 0.27061 0.84184 0.82738 0.0
H515 H 0.2676 0.68915 0.73632 0.0
Co516 Co 0.5445 0.03191 0.01095 0.0
C517 C 0.57584 0.0169 0.02733 0.0
Co518 Co 0.54063 0.03029 0.04238 0.0
C519 C 0.53781 0.04711 0.97392 0.0
C520 C 0.55362 0.02061 0.9717 0.0
N521 N 0.54637 0.03373 0.98455 0.0
N522 N 0.53874 0.04257 0.95497 0.0
C523 C 0.54894 0.02599 0.9535 0.0
H524 H 0.5301 0.05941 0.98014 0.0
H525 H 0.56065 0.00729 0.97542 0.0
C526 C 0.50926 0.04529 0.02579 0.0
N527 N 0.53873 0.02848 0.06874 0.0
C528 C 0.54609 0.01439 0.07941 0.0
C529 C 0.53195 0.04191 0.08157 0.0
N530 N 0.54457 0.01863 0.09837 0.0
C531 C 0.53566 0.03594 0.09984 0.0
C532 C 0.55536 0.06525 0.03034 0.0
O533 O 0.51968 0.04275 0.01079 0.0
O534 O 0.51547 0.04031 0.04191 0.0
O535 O 0.54989 0.05601 0.04506 0.0
O536 O 0.55474 0.05711 0.01382 0.0
O537 O 0.566 0.02014 0.04266 0.0
H538 H 0.52561 0.05558 0.07784 0.0
H539 H 0.55359 0.00186 0.07334 0.0
O540 O 0.56899 0.02118 0.01131 0.0
O541 O 0.53412 0.00663 0.00815 0.0
O542 O 0.53102 0.00484 0.03949 0.0
C543 C 0.52907 0.9972 0.02289 0.0
H544 H 0.5515 0.01748 0.94042 0.0
H545 H 0.53271 0.04401 0.11311 0.0
Co546 Co 0.26713 0.25678 0.25129 0.0
C547 C 0.30491 0.26717 0.25295 0.0
Co548 Co 0.27314 0.28534 0.23895 0.0
C549 C 0.25047 0.21857 0.25849 0.0
C550 C 0.27022 0.22826 0.27945 0.0
N551 N 0.26221 0.23338 0.26293 0.0
N552 N 0.25081 0.20453 0.27178 0.0
C553 C 0.26333 0.21062 0.28486 0.0
H554 H 0.24159 0.21829 0.24606 0.0
H555 H 0.28035 0.23692 0.28723 0.0
C556 C 0.23534 0.2752 0.23742 0.0
N557 N 0.27917 0.30892 0.22838 0.0
C558 C 0.29082 0.3217 0.23689 0.0
C559 C 0.27624 0.31612 0.21084 0.0
N560 N 0.29561 0.33649 0.22546 0.0
C561 C 0.28645 0.33313 0.20896 0.0
C562 C 0.27567 0.25439 0.21233 0.0
O563 O 0.241 0.2601 0.24584 0.0
O564 O 0.24723 0.28841 0.23315 0.0
O565 O 0.27758 0.27264 0.21474 0.0
O566 O 0.27103 0.24411 0.2267 0.0
O567 O 0.29906 0.28217 0.24477 0.0
H568 H 0.268 0.30902 0.19986 0.0
H569 H 0.29674 0.31944 0.25084 0.0
O570 O 0.29324 0.25371 0.25665 0.0
O571 O 0.26337 0.2696 0.27578 0.0
O572 O 0.26873 0.29799 0.26341 0.0
C573 C 0.26507 0.28785 0.27804 0.0
H574 H 0.26738 0.20279 0.29743 0.0
H575 H 0.28745 0.34198 0.19633 0.0
Co576 Co 0.46906 0.49234 0.04286 0.0
C577 C 0.46607 0.50224 0.08162 0.0
Co578 Co 0.48188 0.52062 0.05024 0.0
C579 C 0.46351 0.45538 0.02381 0.0
C580 C 0.44032 0.46296 0.04299 0.0
N581 N 0.45739 0.46918 0.03657 0.0
N582 N 0.45089 0.44077 0.02187 0.0
C583 C 0.43628 0.44554 0.03399 0.0
H584 H 0.47698 0.45617 0.01608 0.0
H585 H 0.43123 0.47081 0.05325 0.0
C586 C 0.48421 0.51133 0.01138 0.0
N587 N 0.49374 0.54383 0.05641 0.0
C588 C 0.48622 0.55995 0.06499 0.0
C589 C 0.51223 0.54811 0.05326 0.0
N590 N 0.49933 0.57393 0.06745 0.0
C591 C 0.51572 0.56656 0.06018 0.0
C592 C 0.50694 0.48921 0.05052 0.0
O593 O 0.4754 0.49616 0.01654 0.0
O594 O 0.48844 0.52408 0.02399 0.0
O595 O 0.50481 0.50731 0.05348 0.0
O596 O 0.49272 0.47909 0.0457 0.0
O597 O 0.47512 0.51721 0.07632 0.0
H598 H 0.52252 0.53852 0.04621 0.0
H599 H 0.47148 0.56141 0.06949 0.0
O600 O 0.46261 0.4889 0.06928 0.0
O601 O 0.44556 0.50569 0.04009 0.0
O602 O 0.45869 0.53366 0.04718 0.0
C603 C 0.44404 0.52389 0.04316 0.0
H604 H 0.42333 0.43736 0.0359 0.0
H605 H 0.52911 0.57418 0.05947 0.0
Co606 Co 0.75746 0.26641 0.27431 0.0
C607 C 0.72074 0.25482 0.28236 0.0
Co608 Co 0.75017 0.23875 0.25986 0.0
C609 C 0.77477 0.30392 0.28081 0.0
C610 C 0.76031 0.29317 0.30585 0.0
N611 N 0.76394 0.28909 0.28705 0.0
N612 N 0.77827 0.31685 0.2951 0.0
C613 C 0.76919 0.31017 0.31086 0.0
H614 H 0.78073 0.30473 0.26635 0.0
H615 H 0.75227 0.28397 0.31547 0.0
C616 C 0.78704 0.25029 0.25203 0.0
N617 N 0.74355 0.21571 0.24788 0.0
C618 C 0.73442 0.20106 0.25661 0.0
C619 C 0.74668 0.20938 0.2296 0.0
N620 N 0.73181 0.18569 0.24467 0.0
C621 C 0.73941 0.19087 0.22756 0.0
C622 C 0.74288 0.27129 0.23848 0.0
O623 O 0.78213 0.26466 0.26283 0.0
O624 O 0.7751 0.2369 0.24876 0.0
O625 O 0.74229 0.25284 0.23842 0.0
O626 O 0.74901 0.28046 0.25309 0.0
O627 O 0.72532 0.24075 0.27107 0.0
H628 H 0.75395 0.21759 0.21857 0.0
H629 H 0.7297 0.20176 0.27153 0.0
O630 O 0.73284 0.26797 0.28574 0.0
O631 O 0.76584 0.25228 0.29539 0.0
O632 O 0.7581 0.22477 0.28146 0.0
C633 C 0.76464 0.23395 0.2958 0.0
H634 H 0.76926 0.31698 0.32504 0.0
H635 H 0.74008 0.18182 0.21465 0.0
Co636 Co 0.05242 0.54437 0.50969 0.0
C637 C 0.08554 0.5309 0.52434 0.0
Co638 Co 0.05302 0.54842 0.54114 0.0
C639 C 0.03585 0.53848 0.47299 0.0
C640 C 0.0655 0.54455 0.47018 0.0
N641 N 0.05138 0.54198 0.48332 0.0
N642 N 0.0396 0.53896 0.45392 0.0
C643 C 0.0583 0.54265 0.45205 0.0
H644 H 0.02196 0.53586 0.47938 0.0
H645 H 0.07997 0.54813 0.47356 0.0
C646 C 0.01959 0.56125 0.52643 0.0
N647 N 0.05419 0.55085 0.56749 0.0
C648 C 0.06147 0.53778 0.57938 0.0
C649 C 0.04939 0.56628 0.57887 0.0
N650 N 0.06167 0.54447 0.59771 0.0
C651 C 0.05407 0.56243 0.59749 0.0
C652 C 0.06706 0.57978 0.52177 0.0
O653 O 0.02778 0.55588 0.5107 0.0
O654 O 0.02825 0.55939 0.54203 0.0
O655 O 0.06347 0.57363 0.53852 0.0
O656 O 0.06348 0.56915 0.5072 0.0
O657 O 0.07796 0.53715 0.54008 0.0
H658 H 0.04338 0.57965 0.57386 0.0
H659 H 0.06732 0.52393 0.5745 0.0
O660 O 0.07666 0.53283 0.5089 0.0
O661 O 0.04146 0.51956 0.51221 0.0
O662 O 0.04228 0.52333 0.54356 0.0
C663 C 0.03817 0.51304 0.52888 0.0
H664 H 0.06604 0.54463 0.4386 0.0
H665 H 0.0523 0.57217 0.60983 0.0
Co666 Co 0.78673 0.74949 0.24155 0.0
C667 C 0.77049 0.75989 0.20779 0.0
Co668 Co 0.75553 0.74967 0.24387 0.0
C669 C 0.82493 0.75482 0.25375 0.0
C670 C 0.82407 0.74244 0.22531 0.0
N671 N 0.81288 0.74877 0.24018 0.0
N672 N 0.8432 0.75258 0.24795 0.0
C673 C 0.84275 0.74483 0.23002 0.0
H674 H 0.82036 0.76101 0.26755 0.0
H675 H 0.81897 0.73645 0.21192 0.0
C676 C 0.77186 0.73952 0.27774 0.0
N677 N 0.72939 0.75043 0.24491 0.0
C678 C 0.71843 0.76295 0.23557 0.0
C679 C 0.71726 0.73724 0.25226 0.0
N680 N 0.7 0.75788 0.2363 0.0
C681 C 0.69915 0.74173 0.24688 0.0
C682 C 0.77012 0.71417 0.23216 0.0
O683 O 0.78701 0.74217 0.26783 0.0
O684 O 0.75596 0.74182 0.26994 0.0
O685 O 0.75477 0.72336 0.23567 0.0
O686 O 0.78583 0.72296 0.23385 0.0
O687 O 0.75532 0.75758 0.21768 0.0
H688 H 0.72146 0.72456 0.26001 0.0
H689 H 0.72405 0.77473 0.22712 0.0
O690 O 0.78627 0.75685 0.21549 0.0
O691 O 0.78747 0.77601 0.2493 0.0
O692 O 0.75644 0.77592 0.25227 0.0
C693 C 0.7721 0.78485 0.25368 0.0
H694 H 0.85502 0.74088 0.22111 0.0
H695 H 0.68651 0.73329 0.24977 0.0
Co696 Co 0.74782 0.28041 0.78826 0.0
C697 C 0.73756 0.2433 0.77698 0.0
Co698 Co 0.73286 0.27934 0.76087 0.0
C699 C 0.75491 0.2937 0.82654 0.0
C700 C 0.77441 0.27129 0.8175 0.0
N701 N 0.75956 0.28169 0.8116 0.0
N702 N 0.76625 0.29133 0.84164 0.0
C703 C 0.77857 0.27719 0.83594 0.0
H704 H 0.74324 0.30386 0.82627 0.0
H705 H 0.78176 0.2602 0.80893 0.0
C706 C 0.74297 0.31644 0.77214 0.0
N707 N 0.72128 0.27796 0.73744 0.0
C708 C 0.72613 0.26539 0.72305 0.0
C709 C 0.70777 0.28935 0.73021 0.0
N710 N 0.71641 0.26847 0.70701 0.0
C711 C 0.70481 0.28359 0.7114 0.0
C712 C 0.7086 0.2842 0.792 0.0
O713 O 0.74968 0.30777 0.78638 0.0
O714 O 0.73502 0.3066 0.759 0.0
O715 O 0.70901 0.28246 0.77378 0.0
O716 O 0.72397 0.2834 0.80099 0.0
O717 O 0.73074 0.25207 0.76289 0.0
H718 H 0.70095 0.30137 0.73792 0.0
H719 H 0.73733 0.25475 0.72409 0.0
O720 O 0.74583 0.25305 0.78999 0.0
O721 O 0.7716 0.27751 0.77539 0.0
O722 O 0.75688 0.27633 0.74812 0.0
C723 C 0.77223 0.27588 0.7572 0.0
H724 H 0.78996 0.2716 0.84432 0.0
H725 H 0.69516 0.29024 0.70166 0.0
Co726 Co 0.76822 0.75817 0.76158 0.0
C727 C 0.80632 0.76871 0.76411 0.0
Co728 Co 0.77519 0.78636 0.74882 0.0
C729 C 0.7487 0.72208 0.77076 0.0
C730 C 0.77179 0.72857 0.78912 0.0
N731 N 0.76285 0.73495 0.77357 0.0
N732 N 0.74842 0.7081 0.78409 0.0
C733 C 0.76306 0.71211 0.79553 0.0
H734 H 0.73828 0.72346 0.75974 0.0
H735 H 0.78348 0.73585 0.79592 0.0
C736 C 0.73714 0.77628 0.74634 0.0
N737 N 0.7808 0.80969 0.7376 0.0
C738 C 0.79073 0.82428 0.74563 0.0
C739 C 0.77594 0.81616 0.72027 0.0
N740 N 0.7922 0.83972 0.73413 0.0
C741 C 0.78298 0.83466 0.71808 0.0
C742 C 0.77785 0.75476 0.72294 0.0
O743 O 0.74219 0.76132 0.75533 0.0
O744 O 0.74942 0.78914 0.74232 0.0
O745 O 0.78018 0.773 0.72497 0.0
O746 O 0.77264 0.74496 0.73746 0.0
O747 O 0.80099 0.78365 0.75539 0.0
H748 H 0.76764 0.80805 0.71003 0.0
H749 H 0.79682 0.82351 0.7597 0.0
O750 O 0.79433 0.75544 0.76761 0.0
O751 O 0.76391 0.77144 0.78564 0.0
O752 O 0.77018 0.79951 0.77286 0.0
C753 C 0.76585 0.7897 0.78757 0.0
H754 H 0.76701 0.70393 0.8079 0.0
H755 H 0.78102 0.84383 0.70586 0.0
Co756 Co 0.52874 0.541 0.48764 0.0
C757 C 0.52515 0.56481 0.52051 0.0
Co758 Co 0.53583 0.52651 0.51437 0.0
C759 C 0.50955 0.54868 0.45277 0.0
C760 C 0.5292 0.57119 0.45979 0.0
N761 N 0.52274 0.55379 0.46556 0.0
N762 N 0.50728 0.5623 0.43938 0.0
C763 C 0.51968 0.57648 0.44371 0.0
H764 H 0.50108 0.53565 0.45385 0.0
H765 H 0.53966 0.57979 0.4672 0.0
C766 C 0.53892 0.50257 0.48161 0.0
N767 N 0.54174 0.5138 0.53646 0.0
C768 C 0.55057 0.52109 0.55195 0.0
C769 C 0.53798 0.49515 0.54064 0.0
N770 N 0.55249 0.50774 0.56565 0.0
C771 C 0.54462 0.49137 0.55857 0.0
C772 C 0.49807 0.52227 0.50479 0.0
O773 O 0.53366 0.51768 0.47301 0.0
O774 O 0.54151 0.50365 0.49959 0.0
O775 O 0.51026 0.51796 0.51711 0.0
O776 O 0.50299 0.53309 0.49099 0.0
O777 O 0.53004 0.54955 0.52903 0.0
H778 H 0.53068 0.48503 0.53134 0.0
H779 H 0.55557 0.53591 0.55312 0.0
O780 O 0.5236 0.56418 0.50236 0.0
O781 O 0.55465 0.54868 0.48447 0.0
O782 O 0.56136 0.5349 0.51153 0.0
C783 C 0.56666 0.5447 0.49711 0.0
H784 H 0.52148 0.5899 0.43608 0.0
H785 H 0.54332 0.47779 0.56602 0.0
Co786 Co 0.00922 0.52601 0.02115 0.0
C787 C 0.01836 0.56505 0.023 0.0
Co788 Co 0.03305 0.53224 0.04012 0.0
C789 C 0.97329 0.5109 0.00968 0.0
C790 C 0.98689 0.52693 0.98725 0.0
N791 N 0.98923 0.52078 0.00529 0.0
N792 N 0.96097 0.51074 0.99518 0.0
C793 C 0.96951 0.52081 0.981 0.0
H794 H 0.97052 0.50458 0.02357 0.0
H795 H 0.997 0.53565 0.97931 0.0
C796 C 0.02378 0.49316 0.03807 0.0
N797 N 0.05316 0.53772 0.05569 0.0
C798 C 0.06762 0.54967 0.05126 0.0
C799 C 0.057 0.53104 0.07323 0.0
N800 N 0.0804 0.55084 0.06528 0.0
C801 C 0.07382 0.53907 0.07916 0.0
C802 C 0.99826 0.53319 0.05912 0.0
O803 O 0.01137 0.49916 0.02668 0.0
O804 O 0.03505 0.50534 0.04561 0.0
O805 O 0.01593 0.5355 0.0613 0.0
O806 O 0.99216 0.5294 0.04247 0.0
O807 O 0.03085 0.5593 0.03442 0.0
H808 H 0.04817 0.521 0.08114 0.0
H809 H 0.06887 0.55712 0.03776 0.0
O810 O 0.00717 0.55268 0.01571 0.0
O811 O 0.02639 0.52261 7e-05 0.0
O812 O 0.05014 0.52862 0.0189 0.0
C813 C 0.04408 0.52445 0.00233 0.0
H814 H 0.96358 0.5237 0.96718 0.0
H815 H 0.08052 0.5366 0.09269 0.0
C816 C 0.99559 0.21844 0.09463 0.0
C817 C 0.00314 0.2244 0.11228 0.0
C818 C 0.00051 0.20046 0.08621 0.0
C819 C 0.01608 0.15163 0.09758 0.0
H820 H 0.02927 0.14758 0.04321 0.0
C821 C 0.03565 0.07794 0.05941 0.0
C822 C 0.02957 0.07518 0.04048 0.0
C823 C 0.03364 0.0961 0.06878 0.0
C824 C 0.02537 0.14836 0.05836 0.0
H825 H 0.02188 0.21611 0.1349 0.0
H826 H 0.03024 0.18445 0.12025 0.0
H827 H 0.0237 0.17941 0.05822 0.0
H828 H 0.01607 0.08914 0.01679 0.0
H829 H 0.01198 0.12035 0.03321 0.0
H830 H 0.01708 0.12056 0.09763 0.0
C831 C 0.02057 0.19383 0.11295 0.0
C832 C 0.02229 0.16665 0.06696 0.0
C833 C 0.01588 0.21199 0.12125 0.0
C834 C 0.02109 0.09081 0.0313 0.0
C835 C 0.01889 0.10881 0.0407 0.0
C836 C 0.01893 0.13326 0.08891 0.0
C837 C 0.0129 0.18788 0.09536 0.0
C838 C 0.01742 0.16849 0.08661 0.0
C839 C 0.02535 0.11184 0.05947 0.0
C840 C 0.02337 0.13136 0.0691 0.0
H841 H 0.98577 0.22764 0.08731 0.0
H842 H 0.99426 0.1962 0.07271 0.0
H843 H 0.01219 0.15262 0.11273 0.0
H844 H 0.04232 0.0662 0.06683 0.0
H845 H 0.03893 0.09788 0.08316 0.0
C846 C 0.11049 0.77145 0.37674 0.0
C847 C 0.09966 0.78693 0.37003 0.0
C848 C 0.13016 0.77131 0.37432 0.0
C849 C 0.17271 0.77696 0.37329 0.0
H850 H 0.19059 0.78993 0.32202 0.0
C851 C 0.25168 0.77064 0.34682 0.0
C852 C 0.25454 0.76297 0.32807 0.0
C853 C 0.23335 0.77495 0.35389 0.0
C854 C 0.18581 0.78623 0.3364 0.0
H855 H 0.10112 0.81491 0.35642 0.0
H856 H 0.13565 0.81471 0.35224 0.0
H857 H 0.15768 0.79611 0.33154 0.0
H858 H 0.24037 0.7529 0.30242 0.0
H859 H 0.20859 0.76011 0.31482 0.0
H860 H 0.20078 0.76632 0.37777 0.0
C861 C 0.1288 0.80255 0.35916 0.0
C862 C 0.16701 0.79003 0.34196 0.0
C863 C 0.10905 0.80272 0.36163 0.0
C864 C 0.2387 0.75895 0.31687 0.0
C865 C 0.22047 0.76324 0.32391 0.0
C866 C 0.19158 0.77317 0.36771 0.0
C867 C 0.13953 0.78664 0.36513 0.0
C868 C 0.16012 0.78505 0.36031 0.0
C869 C 0.2176 0.77169 0.34231 0.0
C870 C 0.19818 0.77732 0.34904 0.0
H871 H 0.10373 0.75909 0.38341 0.0
H872 H 0.13792 0.75872 0.37889 0.0
H873 H 0.16788 0.77317 0.38762 0.0
H874 H 0.26362 0.77397 0.35577 0.0
H875 H 0.23156 0.78145 0.36814 0.0
C876 C 0.52556 0.8402 0.60078 0.0
C877 C 0.51137 0.82657 0.59659 0.0
C878 C 0.52688 0.85749 0.59056 0.0
C879 C 0.49536 0.88978 0.56486 0.0
H880 H 0.54134 0.9179 0.55209 0.0
C881 C 0.49282 0.9651 0.5302 0.0
C882 C 0.50544 0.97914 0.53722 0.0
C883 C 0.49468 0.9456 0.53515 0.0
C884 C 0.52836 0.91029 0.5557 0.0
H885 H 0.48873 0.81948 0.57719 0.0
H886 H 0.49131 0.8493 0.55924 0.0
H887 H 0.54345 0.88499 0.56431 0.0
H888 H 0.53002 0.98365 0.55484 0.0
H889 H 0.533 0.9499 0.56374 0.0
H890 H 0.48023 0.9151 0.55684 0.0
C891 C 0.50103 0.84698 0.57074 0.0
C892 C 0.52959 0.89141 0.56266 0.0
C893 C 0.49965 0.82982 0.58096 0.0
C894 C 0.52006 0.97322 0.54912 0.0
C895 C 0.52188 0.95379 0.55412 0.0
C896 C 0.49413 0.90862 0.558 0.0
C897 C 0.5141 0.86138 0.57594 0.0
C898 C 0.5131 0.88098 0.56742 0.0
C899 C 0.50917 0.93973 0.54729 0.0
C900 C 0.51059 0.9192 0.55347 0.0
H901 H 0.53476 0.83816 0.61277 0.0
H902 H 0.53712 0.8683 0.59494 0.0
H903 H 0.48236 0.88233 0.56876 0.0
H904 H 0.48147 0.96915 0.52091 0.0
H905 H 0.48478 0.93513 0.52941 0.0
C906 C 0.46624 0.21752 0.83816 0.0
C907 C 0.46156 0.22116 0.8576 0.0
C908 C 0.45211 0.21561 0.82472 0.0
C909 C 0.39992 0.21116 0.81878 0.0
H910 H 0.41256 0.23519 0.77025 0.0
C911 C 0.36068 0.24483 0.74936 0.0
C912 C 0.3465 0.2309 0.7465 0.0
C913 C 0.37487 0.24171 0.76248 0.0
C914 C 0.4087 0.22855 0.78375 0.0
H915 H 0.43857 0.22505 0.87854 0.0
H916 H 0.4136 0.22276 0.8548 0.0
H917 H 0.43619 0.2335 0.7946 0.0
H918 H 0.3363 0.20256 0.75468 0.0
H919 H 0.36151 0.19675 0.77729 0.0
H920 H 0.37195 0.20737 0.80818 0.0
C921 C 0.42821 0.22078 0.84997 0.0
C922 C 0.4224 0.22726 0.79767 0.0
C923 C 0.44245 0.2222 0.86357 0.0
C924 C 0.34704 0.21356 0.75671 0.0
C925 C 0.36139 0.21032 0.76973 0.0
C926 C 0.38606 0.21272 0.8049 0.0
C927 C 0.43293 0.21791 0.83029 0.0
C928 C 0.41823 0.21858 0.8154 0.0
C929 C 0.37538 0.22446 0.77291 0.0
C930 C 0.39026 0.22161 0.78728 0.0
H931 H 0.48093 0.21632 0.8333 0.0
H932 H 0.45631 0.21271 0.80985 0.0
H933 H 0.39625 0.2042 0.83217 0.0
H934 H 0.3604 0.25851 0.74202 0.0
H935 H 0.38511 0.25314 0.76484 0.0
C936 C 0.00518 0.81858 0.43024 0.0
C937 C 0.01862 0.81417 0.4155 0.0
C938 C 0.00602 0.83609 0.44059 0.0
C939 C 0.02273 0.886 0.43844 0.0
H940 H 0.01689 0.88463 0.49397 0.0
C941 C 0.02589 0.95528 0.48712 0.0
C942 C 0.01271 0.95649 0.50265 0.0
C943 C 0.02809 0.93806 0.47627 0.0
C944 C 0.01835 0.8853 0.47847 0.0
H945 H 0.04335 0.8249 0.39988 0.0
H946 H 0.04464 0.85578 0.41794 0.0
H947 H 0.01804 0.85435 0.47524 0.0
H948 H 0.99156 0.94032 0.51887 0.0
H949 H 0.99491 0.91068 0.49966 0.0
H950 H 0.0225 0.91699 0.44161 0.0
C951 C 0.03351 0.84553 0.42143 0.0
C952 C 0.01908 0.86795 0.46777 0.0
C953 C 0.0328 0.82785 0.41117 0.0
C954 C 0.0017 0.94008 0.50694 0.0
C955 C 0.00383 0.92293 0.49606 0.0
C956 C 0.02185 0.90342 0.44916 0.0
C957 C 0.02022 0.8497 0.43636 0.0
C958 C 0.02099 0.86813 0.44765 0.0
C959 C 0.01712 0.92166 0.48067 0.0
C960 C 0.01934 0.90326 0.46928 0.0
H961 H 0.99407 0.80841 0.434 0.0
H962 H 0.99544 0.83906 0.45185 0.0
H963 H 0.02409 0.88652 0.42292 0.0
H964 H 0.03446 0.96766 0.48322 0.0
H965 H 0.03854 0.93753 0.46458 0.0
C966 C 0.44948 0.7774 0.66972 0.0
C967 C 0.46682 0.77166 0.67729 0.0
C968 C 0.43251 0.77469 0.68005 0.0
C969 C 0.39798 0.7581 0.70079 0.0
H970 H 0.39573 0.7752 0.7543 0.0
C971 C 0.33116 0.7481 0.74861 0.0
C972 C 0.32508 0.76435 0.75973 0.0
C973 C 0.34896 0.74789 0.73939 0.0
C974 C 0.39616 0.77041 0.73937 0.0
H975 H 0.4799 0.75831 0.70157 0.0
H976 H 0.45011 0.75369 0.71972 0.0
H977 H 0.42592 0.7761 0.73618 0.0
H978 H 0.33311 0.79297 0.77024 0.0
H979 H 0.36435 0.79257 0.75408 0.0
H980 H 0.36823 0.75272 0.70381 0.0
C981 C 0.44975 0.7603 0.70575 0.0
C982 C 0.41345 0.77072 0.72907 0.0
C983 C 0.46676 0.76282 0.6953 0.0
C984 C 0.33738 0.78025 0.76177 0.0
C985 C 0.35529 0.77998 0.7526 0.0
C986 C 0.38076 0.75763 0.71112 0.0
C987 C 0.43248 0.76637 0.69828 0.0
C988 C 0.41448 0.76475 0.70962 0.0
C989 C 0.36115 0.76387 0.74114 0.0
C990 C 0.37963 0.76393 0.73046 0.0
H991 H 0.44897 0.78445 0.65602 0.0
H992 H 0.41944 0.77973 0.67401 0.0
H993 H 0.39838 0.75331 0.68586 0.0
H994 H 0.32207 0.73558 0.74678 0.0
H995 H 0.35318 0.73519 0.73086 0.0
C996 C 0.52504 0.21201 0.9575 0.0
C997 C 0.50548 0.20901 0.95531 0.0
C998 C 0.53467 0.2028 0.97196 0.0
C999 C 0.5313 0.17446 0.01585 0.0
H1000 H 0.5649 0.13857 0.98802 0.0
C1001 C 0.54408 0.09774 0.04098 0.0
C1002 C 0.55812 0.08631 0.03166 0.0
C1003 C 0.54273 0.11749 0.03717 0.0
C1004 C 0.55622 0.14873 0.99644 0.0
H1005 H 0.48038 0.19566 0.96791 0.0
H1006 H 0.49734 0.17956 0.99329 0.0
H1007 H 0.55205 0.16583 0.9717 0.0
H1008 H 0.58328 0.08662 0.01327 0.0
H1009 H 0.58223 0.12148 0.00814 0.0
H1010 H 0.53546 0.15742 0.04067 0.0
C1011 C 0.50513 0.18902 0.98369 0.0
C1012 C 0.54869 0.16438 0.98689 0.0
C1013 C 0.49547 0.19811 0.96906 0.0
C1014 C 0.57222 0.09523 0.02045 0.0
C1015 C 0.57136 0.11516 0.01729 0.0
C1016 C 0.5393 0.15905 0.02564 0.0
C1017 C 0.52492 0.19063 0.98468 0.0
C1018 C 0.53559 0.17689 0.99627 0.0
C1019 C 0.55576 0.12627 0.02437 0.0
C1020 C 0.55116 0.14538 0.01581 0.0
H1021 H 0.53321 0.22055 0.94736 0.0
H1022 H 0.54993 0.20428 0.97252 0.0
H1023 H 0.52132 0.18409 0.02339 0.0
H1024 H 0.53294 0.09107 0.04958 0.0
H1025 H 0.53044 0.12524 0.04296 0.0
C1026 C 0.07814 0.30396 0.17236 0.0
C1027 C 0.06625 0.28765 0.17129 0.0
C1028 C 0.09631 0.30244 0.1797 0.0
C1029 C 0.13359 0.26662 0.19112 0.0
H1030 H 0.15218 0.30895 0.22303 0.0
C1031 C 0.20299 0.26101 0.23301 0.0
C1032 C 0.21536 0.27693 0.23165 0.0
C1033 C 0.18453 0.26224 0.22629 0.0
C1034 C 0.14724 0.29707 0.21404 0.0
H1035 H 0.06422 0.25688 0.17698 0.0
H1036 H 0.09574 0.2543 0.19012 0.0
H1037 H 0.12069 0.31109 0.20971 0.0
H1038 H 0.21789 0.30676 0.22256 0.0
H1039 H 0.18567 0.30892 0.21099 0.0
H1040 H 0.16014 0.25255 0.19566 0.0
C1041 C 0.09118 0.26822 0.18498 0.0
C1042 C 0.1292 0.29831 0.20633 0.0
C1043 C 0.07304 0.26972 0.17751 0.0
C1044 C 0.20873 0.29423 0.22384 0.0
C1045 C 0.19023 0.29551 0.21728 0.0
C1046 C 0.15158 0.26533 0.19895 0.0
C1047 C 0.10301 0.2846 0.18629 0.0
C1048 C 0.12217 0.28315 0.19467 0.0
C1049 C 0.17799 0.27946 0.21823 0.0
C1050 C 0.15864 0.28058 0.21042 0.0
H1051 H 0.07341 0.31797 0.16757 0.0
H1052 H 0.10514 0.31528 0.18012 0.0
H1053 H 0.12879 0.25479 0.18198 0.0
H1054 H 0.20765 0.24745 0.23892 0.0
H1055 H 0.17536 0.2497 0.22741 0.0
C1056 C 0.12858 0.01228 0.22878 0.0
C1057 C 0.13402 0.99515 0.23775 0.0
C1058 C 0.12349 0.01187 0.20954 0.0
C1059 C 0.10365 0.97876 0.17381 0.0
H1060 H 0.11629 0.0195 0.13811 0.0
C1061 C 0.0762 0.977 0.09684 0.0
C1062 C 0.0694 0.99459 0.08986 0.0
C1063 C 0.0864 0.97671 0.11372 0.0
C1064 C 0.11253 0.00809 0.14797 0.0
H1065 H 0.13923 0.9643 0.23334 0.0
H1066 H 0.13032 0.9636 0.19969 0.0
H1067 H 0.13056 0.0196 0.1697 0.0
H1068 H 0.06811 0.02571 0.09496 0.0
H1069 H 0.08565 0.02524 0.12466 0.0
H1070 H 0.08522 0.96753 0.15245 0.0
C1071 C 0.12982 0.97731 0.20764 0.0
C1072 C 0.12074 0.00813 0.16601 0.0
C1073 C 0.135 0.97773 0.22687 0.0
C1074 C 0.07333 0.01196 0.09991 0.0
C1075 C 0.08343 0.01168 0.11689 0.0
C1076 C 0.09538 0.97877 0.15584 0.0
C1077 C 0.12368 0.99431 0.19888 0.0
C1078 C 0.11624 0.99355 0.17918 0.0
C1079 C 0.08991 0.99402 0.1241 0.0
C1080 C 0.09958 0.99353 0.14276 0.0
H1081 H 0.12776 0.02596 0.23674 0.0
H1082 H 0.11868 0.02518 0.20324 0.0
H1083 H 0.09965 0.96752 0.18377 0.0
H1084 H 0.07373 0.96343 0.08919 0.0
H1085 H 0.09151 0.96291 0.11866 0.0
C1086 C 0.29865 0.88756 0.49499 0.0
C1087 C 0.30322 0.88473 0.51419 0.0
C1088 C 0.30891 0.87816 0.48019 0.0
C1089 C 0.33147 0.83279 0.47009 0.0
H1090 H 0.3437 0.85607 0.42107 0.0
C1091 C 0.34477 0.7861 0.4012 0.0
C1092 C 0.33541 0.79254 0.38491 0.0
C1093 C 0.34617 0.7981 0.41753 0.0
C1094 C 0.34037 0.84934 0.43466 0.0
H1095 H 0.32237 0.87056 0.53321 0.0
H1096 H 0.34012 0.85328 0.50703 0.0
H1097 H 0.33771 0.87684 0.44948 0.0
H1098 H 0.32057 0.81689 0.37297 0.0
H1099 H 0.32236 0.83749 0.40161 0.0
H1100 H 0.33277 0.80537 0.45514 0.0
C1101 C 0.32878 0.86309 0.50354 0.0
C1102 C 0.33712 0.86122 0.45092 0.0
C1103 C 0.31871 0.87294 0.51843 0.0
C1104 C 0.32764 0.81133 0.3853 0.0
C1105 C 0.32897 0.82329 0.40165 0.0
C1106 C 0.33457 0.8209 0.4538 0.0
C1107 C 0.32372 0.86544 0.48432 0.0
C1108 C 0.33193 0.85306 0.4686 0.0
C1109 C 0.33819 0.8168 0.41798 0.0
C1110 C 0.3383 0.8291 0.43576 0.0
H1111 H 0.28679 0.89671 0.49144 0.0
H1112 H 0.30453 0.88002 0.46554 0.0
H1113 H 0.32729 0.82616 0.48353 0.0
H1114 H 0.35078 0.77166 0.4015 0.0
H1115 H 0.35344 0.79269 0.42983 0.0
C1116 C 0.42083 0.02664 0.71818 0.0
C1117 C 0.40347 0.03541 0.72357 0.0
C1118 C 0.42675 0.02555 0.69892 0.0
C1119 C 0.41914 0.0499 0.65304 0.0
H1120 H 0.45303 0.00928 0.63342 0.0
C1121 C 0.45185 0.04403 0.57506 0.0
C1122 C 0.47173 0.04242 0.57458 0.0
C1123 C 0.44164 0.0429 0.59249 0.0
C1124 C 0.44354 0.02068 0.63875 0.0
H1125 H 0.37809 0.04878 0.71292 0.0
H1126 H 0.38814 0.04626 0.67913 0.0
H1127 H 0.43731 0.00589 0.66479 0.0
H1128 H 0.49651 0.03869 0.59192 0.0
H1129 H 0.47858 0.03634 0.62227 0.0
H1130 H 0.42534 0.06448 0.62668 0.0
C1131 C 0.39747 0.04078 0.68986 0.0
C1132 C 0.4346 0.01882 0.65672 0.0
C1133 C 0.39164 0.0421 0.7092 0.0
C1134 C 0.48122 0.04008 0.59185 0.0
C1135 C 0.47099 0.03858 0.60918 0.0
C1136 C 0.42785 0.05159 0.63488 0.0
C1137 C 0.41532 0.03294 0.68453 0.0
C1138 C 0.4227 0.03365 0.66434 0.0
C1139 C 0.45114 0.03975 0.60959 0.0
C1140 C 0.44047 0.03722 0.62786 0.0
H1141 H 0.4303 0.02139 0.7289 0.0
H1142 H 0.4407 0.01968 0.69547 0.0
H1143 H 0.41028 0.06174 0.6585 0.0
H1144 H 0.44418 0.04583 0.56195 0.0
H1145 H 0.42631 0.04385 0.59254 0.0
C1146 C 0.30066 0.20075 0.93031 0.0
C1147 C 0.28858 0.18836 0.94076 0.0
C1148 C 0.29519 0.20829 0.91282 0.0
C1149 C 0.26198 0.19858 0.87319 0.0
H1150 H 0.2819 0.24747 0.85496 0.0
C1151 C 0.24576 0.22915 0.79798 0.0
C1152 C 0.26188 0.23476 0.78715 0.0
C1153 C 0.24713 0.22489 0.8175 0.0
C1154 C 0.27624 0.23377 0.85986 0.0
H1155 H 0.26074 0.17508 0.94132 0.0
H1156 H 0.25092 0.18876 0.91109 0.0
H1157 H 0.28679 0.23833 0.88809 0.0
H1158 H 0.292 0.24067 0.78847 0.0
H1159 H 0.29428 0.23365 0.82255 0.0
H1160 H 0.25131 0.19423 0.84484 0.0
C1161 C 0.2649 0.19221 0.91618 0.0
C1162 C 0.27911 0.22845 0.87885 0.0
C1163 C 0.27046 0.1845 0.93366 0.0
C1164 C 0.27931 0.23639 0.79638 0.0
C1165 C 0.2806 0.23246 0.81593 0.0
C1166 C 0.25888 0.20405 0.85426 0.0
C1167 C 0.27736 0.20388 0.90528 0.0
C1168 C 0.27241 0.21056 0.8857 0.0
C1169 C 0.26458 0.22651 0.82669 0.0
C1170 C 0.26632 0.22152 0.84727 0.0
H1171 H 0.31475 0.20405 0.9352 0.0
H1172 H 0.30536 0.21692 0.90485 0.0
H1173 H 0.25681 0.18458 0.87773 0.0
H1174 H 0.23214 0.22769 0.79128 0.0
H1175 H 0.23453 0.22041 0.82545 0.0
C1176 C 0.12451 0.0132 0.35792 0.0
C1177 C 0.11445 0.00665 0.34192 0.0
C1178 C 0.1151 0.02258 0.37338 0.0
C1179 C 0.09181 0.04939 0.4007 0.0
H1180 H 0.05125 0.01833 0.42253 0.0
C1181 C 0.03798 0.04322 0.47208 0.0
C1182 C 0.05101 0.04804 0.48626 0.0
C1183 C 0.04348 0.04323 0.45269 0.0
C1184 C 0.06215 0.02758 0.41648 0.0
H1185 H 0.0868 0.0054 0.32916 0.0
H1186 H 0.07018 0.02139 0.35656 0.0
H1187 H 0.06493 0.00941 0.39125 0.0
H1188 H 0.07964 0.05761 0.49147 0.0
H1189 H 0.08964 0.05667 0.45767 0.0
H1190 H 0.08919 0.06751 0.426 0.0
C1191 C 0.08539 0.01933 0.35701 0.0
C1192 C 0.07005 0.02236 0.39853 0.0
C1193 C 0.09488 0.01022 0.34139 0.0
C1194 C 0.06933 0.05391 0.48074 0.0
C1195 C 0.075 0.05346 0.46133 0.0
C1196 C 0.08371 0.05483 0.41857 0.0
C1197 C 0.09541 0.02538 0.37323 0.0
C1198 C 0.08527 0.03288 0.39072 0.0
C1199 C 0.06229 0.04749 0.44709 0.0
C1200 C 0.06912 0.04366 0.42694 0.0
H1201 H 0.13962 0.0111 0.35859 0.0
H1202 H 0.12312 0.02698 0.38579 0.0
H1203 H 0.10347 0.05782 0.39485 0.0
H1204 H 0.02366 0.03891 0.47602 0.0
H1205 H 0.03313 0.03916 0.44214 0.0
C1206 C 0.2725 0.86084 0.60558 0.0
C1207 C 0.25725 0.86512 0.59384 0.0
C1208 C 0.27024 0.84775 0.62046 0.0
C1209 C 0.23511 0.83113 0.65452 0.0
H1210 H 0.27271 0.79209 0.66562 0.0
C1211 C 0.25131 0.80505 0.73027 0.0
C1212 C 0.25485 0.78518 0.7326 0.0
C1213 C 0.24805 0.81222 0.71205 0.0
C1214 C 0.26193 0.80272 0.66257 0.0
H1215 H 0.22781 0.85873 0.58812 0.0
H1216 H 0.22378 0.83612 0.61456 0.0
H1217 H 0.27451 0.80875 0.63499 0.0
H1218 H 0.25698 0.75711 0.71787 0.0
H1219 H 0.25159 0.76978 0.68598 0.0
H1220 H 0.22308 0.82576 0.68251 0.0
C1221 C 0.23748 0.84281 0.61206 0.0
C1222 C 0.26304 0.8123 0.64513 0.0
C1223 C 0.23983 0.85567 0.59693 0.0
C1224 C 0.25432 0.77251 0.71651 0.0
C1225 C 0.2513 0.77972 0.69827 0.0
C1226 C 0.23415 0.82173 0.67209 0.0
C1227 C 0.25262 0.83892 0.62404 0.0
C1228 C 0.24988 0.82686 0.64115 0.0
C1229 C 0.24848 0.79968 0.69585 0.0
C1230 C 0.24779 0.80774 0.6764 0.0
H1231 H 0.28612 0.86782 0.60347 0.0
H1232 H 0.28208 0.8451 0.62964 0.0
H1233 H 0.22488 0.84241 0.6518 0.0
H1234 H 0.25155 0.81514 0.74242 0.0
H1235 H 0.24607 0.8277 0.71053 0.0
C1236 C 0.41587 0.0726 0.84024 0.0
C1237 C 0.42173 0.0661 0.82175 0.0
C1238 C 0.4288 0.07356 0.85508 0.0
C1239 C 0.48032 0.07418 0.86426 0.0
H1240 H 0.46475 0.05385 0.91369 0.0
C1241 C 0.5324 0.04783 0.92071 0.0
C1242 C 0.52744 0.05082 0.94024 0.0
C1243 C 0.52005 0.05336 0.90645 0.0
C1244 C 0.46925 0.05991 0.90009 0.0
H1245 H 0.44572 0.05559 0.80427 0.0
H1246 H 0.46809 0.05695 0.83015 0.0
H1247 H 0.44169 0.05639 0.88854 0.0
H1248 H 0.50586 0.06292 0.95998 0.0
H1249 H 0.4847 0.07287 0.93521 0.0
H1250 H 0.50806 0.07716 0.87572 0.0
C1251 C 0.45364 0.06164 0.83316 0.0
C1252 C 0.45602 0.06136 0.88567 0.0
C1253 C 0.44075 0.0607 0.81836 0.0
C1254 C 0.51032 0.06046 0.94514 0.0
C1255 C 0.49801 0.06598 0.93093 0.0
C1256 C 0.49358 0.07268 0.87868 0.0
C1257 C 0.44782 0.06806 0.85169 0.0
C1258 C 0.46148 0.06821 0.8675 0.0
C1259 C 0.50248 0.06199 0.91147 0.0
C1260 C 0.48823 0.06528 0.89666 0.0
H1261 H 0.40134 0.07703 0.84323 0.0
H1262 H 0.42394 0.07874 0.86918 0.0
H1263 H 0.48488 0.07983 0.85049 0.0
H1264 H 0.54558 0.04069 0.91645 0.0
H1265 H 0.52386 0.05002 0.89156 0.0
C1266 C 0.28473 0.17589 0.05094 0.0
C1267 C 0.29738 0.1853 0.03826 0.0
C1268 C 0.28127 0.18329 0.06962 0.0
C1269 C 0.28378 0.22765 0.09991 0.0
H1270 H 0.28798 0.19231 0.14218 0.0
C1271 C 0.28712 0.25628 0.17808 0.0
C1272 C 0.27832 0.24559 0.19278 0.0
C1273 C 0.28893 0.2486 0.15937 0.0
C1274 C 0.28644 0.20237 0.13059 0.0
H1275 H 0.31579 0.21029 0.03515 0.0
H1276 H 0.30944 0.22336 0.06759 0.0
H1277 H 0.29115 0.17991 0.10913 0.0
H1278 H 0.26457 0.21833 0.19933 0.0
H1279 H 0.26723 0.20506 0.16652 0.0
H1280 H 0.27875 0.25007 0.12116 0.0
C1281 C 0.3023 0.21018 0.06309 0.0
C1282 C 0.28831 0.19524 0.11162 0.0
C1283 C 0.30598 0.20265 0.04451 0.0
C1284 C 0.27153 0.22689 0.18835 0.0
C1285 C 0.27313 0.21927 0.16952 0.0
C1286 C 0.28168 0.23475 0.11884 0.0
C1287 C 0.29014 0.20042 0.07596 0.0
C1288 C 0.2872 0.20784 0.09607 0.0
C1289 C 0.28175 0.23008 0.15471 0.0
C1290 C 0.28322 0.22227 0.13449 0.0
H1291 H 0.27791 0.16246 0.04666 0.0
H1292 H 0.27169 0.17555 0.07914 0.0
H1293 H 0.2826 0.23768 0.08823 0.0
H1294 H 0.29266 0.27067 0.18101 0.0
H1295 H 0.29608 0.25721 0.14857 0.0
C1296 C 0.22857 0.11312 0.0009 0.0
C1297 C 0.23423 0.11844 0.98222 0.0
C1298 C 0.21154 0.10321 0.00414 0.0
C1299 C 0.17632 0.07309 0.97851 0.0
H1300 H 0.14463 0.08367 0.02395 0.0
C1301 C 0.09891 0.04764 0.98599 0.0
C1302 C 0.09253 0.04043 0.00375 0.0
C1303 C 0.11697 0.05564 0.98392 0.0
C1304 C 0.15348 0.08037 0.01133 0.0
H1305 H 0.22608 0.11815 0.9524 0.0
H1306 H 0.1962 0.10137 0.9581 0.0
H1307 H 0.17413 0.1016 0.01921 0.0
H1308 H 0.10023 0.03565 0.03322 0.0
H1309 H 0.13192 0.04984 0.02961 0.0
H1310 H 0.1554 0.0522 0.97042 0.0
C1311 C 0.20514 0.10435 0.9702 0.0
C1312 C 0.17038 0.09065 0.00859 0.0
C1313 C 0.22222 0.11413 0.96695 0.0
C1314 C 0.10479 0.04102 0.01933 0.0
C1315 C 0.12284 0.04926 0.01731 0.0
C1316 C 0.15937 0.06293 0.98118 0.0
C1317 C 0.19971 0.0985 0.98879 0.0
C1318 C 0.18193 0.08727 0.99204 0.0
C1319 C 0.12904 0.05681 -0.00039 0.0
C1320 C 0.14769 0.06658 0.99753 0.0
H1321 H 0.23754 0.11615 0.01299 0.0
H1322 H 0.20792 0.09879 0.01861 0.0
H1323 H 0.18506 0.06975 0.96583 0.0
H1324 H 0.08981 0.04741 0.9737 0.0
H1325 H 0.12126 0.0615 0.97016 0.0
C1326 C 0.67536 0.46741 0.04861 0.0
C1327 C 0.68421 0.4493 0.04551 0.0
C1328 C 0.65579 0.4693 0.0471 0.0
C1329 C 0.61125 0.44175 0.04981 0.0
H1330 H 0.5911 0.48886 0.02864 0.0
C1331 C 0.53041 0.46203 0.04393 0.0
C1332 C 0.52625 0.48088 0.05107 0.0
C1333 C 0.54929 0.4556 0.04217 0.0
C1334 C 0.59653 0.4756 0.03455 0.0
H1335 H 0.67944 0.41895 0.03817 0.0
H1336 H 0.6451 0.42232 0.03541 0.0
H1337 H 0.62505 0.48257 0.02634 0.0
H1338 H 0.53853 0.50727 0.063 0.0
H1339 H 0.57108 0.49614 0.05979 0.0
H1340 H 0.5825 0.43505 0.05819 0.0
C1341 C 0.65337 0.43501 0.03917 0.0
C1342 C 0.61596 0.47203 0.0333 0.0
C1343 C 0.67303 0.43312 0.04065 0.0
C1344 C 0.54119 0.49275 0.05723 0.0
C1345 C 0.55988 0.48644 0.05533 0.0
C1346 C 0.59169 0.4453 0.05095 0.0
C1347 C 0.64454 0.45314 0.04241 0.0
C1348 C 0.62364 0.45539 0.04145 0.0
C1349 C 0.56417 0.46803 0.04735 0.0
C1350 C 0.58428 0.46257 0.04385 0.0
H1351 H 0.68351 0.48016 0.05245 0.0
H1352 H 0.64942 0.48341 0.05004 0.0
H1353 H 0.61674 0.42882 0.05628 0.0
H1354 H 0.5192 0.45255 0.03907 0.0
H1355 H 0.55229 0.4413 0.03605 0.0
C1356 C 0.87017 0.46761 0.28454 0.0
C1357 C 0.86272 0.48138 0.29791 0.0
C1358 C 0.86337 0.44856 0.28427 0.0
C1359 C 0.83449 0.41401 0.31326 0.0
H1360 H 0.8283 0.38787 0.26395 0.0
C1361 C 0.80274 0.3376 0.30917 0.0
C1362 C 0.79032 0.33354 0.29424 0.0
C1363 C 0.81385 0.3543 0.30893 0.0
C1364 C 0.82976 0.39502 0.27784 0.0
H1365 H 0.84228 0.48603 0.32142 0.0
H1366 H 0.82997 0.45321 0.32049 0.0
H1367 H 0.84291 0.41979 0.26525 0.0
H1368 H 0.77988 0.34332 0.26721 0.0
H1369 H 0.79857 0.37315 0.26711 0.0
H1370 H 0.82023 0.38997 0.32579 0.0
C1371 C 0.84148 0.4568 0.3106 0.0
C1372 C 0.83846 0.41322 0.27861 0.0
C1373 C 0.84847 0.47571 0.31107 0.0
C1374 C 0.78946 0.34621 0.27882 0.0
C1375 C 0.80027 0.36319 0.27876 0.0
C1376 C 0.82553 0.39601 0.31246 0.0
C1377 C 0.84878 0.44297 0.29716 0.0
C1378 C 0.84074 0.42304 0.29634 0.0
C1379 C 0.81245 0.36758 0.29396 0.0
C1380 C 0.82291 0.38631 0.29473 0.0
H1381 H 0.88126 0.47154 0.27429 0.0
H1382 H 0.86956 0.43824 0.27394 0.0
H1383 H 0.83632 0.42092 0.32721 0.0
H1384 H 0.80386 0.32778 0.32102 0.0
H1385 H 0.82344 0.35685 0.3206 0.0
C1386 C 0.85002 0.60299 0.52407 0.0
C1387 C 0.84709 0.62078 0.51506 0.0
C1388 C 0.86839 0.59669 0.52787 0.0
C1389 C 0.90886 0.58209 0.519 0.0
H1390 H 0.94711 0.61643 0.53975 0.0
C1391 C 0.98894 0.5666 0.51006 0.0
C1392 C -9e-05 0.56877 0.52652 0.0
C1393 C 0.97008 0.57282 0.51031 0.0
C1394 C 0.93655 0.60664 0.53407 0.0
H1395 H 0.86123 0.64613 0.50357 0.0
H1396 H 0.89308 0.63534 0.51054 0.0
H1397 H 0.91424 0.62763 0.53825 0.0
H1398 H -0.00023 0.57952 0.55606 0.0
H1399 H 0.96682 0.59074 0.55634 0.0
H1400 H 0.9312 0.56127 0.5144 0.0
C1401 C 0.88119 0.62627 0.51465 0.0
C1402 C 0.91778 0.61308 0.53311 0.0
C1403 C 0.86288 0.63243 0.51061 0.0
C1404 C 0.99168 0.57762 0.54315 0.0
C1405 C 0.97286 0.58409 0.5433 0.0
C1406 C 0.92765 0.57576 0.51972 0.0
C1407 C 0.88418 0.60818 0.52299 0.0
C1408 C 0.90377 0.60092 0.52543 0.0
C1409 C 0.96181 0.58157 0.52694 0.0
C1410 C 0.94172 0.58802 0.52709 0.0
H1411 H 0.83817 0.59364 0.52765 0.0
H1412 H 0.87028 0.58273 0.53442 0.0
H1413 H 0.89841 0.57246 0.51285 0.0
H1414 H 0.99482 0.55982 0.49702 0.0
H1415 H 0.96198 0.5709 0.49741 0.0
C1416 C 0.17697 0.04387 0.28376 0.0
C1417 C 0.17869 0.03834 0.30299 0.0
C1418 C 0.18485 0.0613 0.27742 0.0
C1419 C 0.19314 0.10465 0.272 0.0
H1420 H 0.2414 0.12045 0.29253 0.0
C1421 C 0.23513 0.17672 0.2555 0.0
C1422 C 0.24031 0.18666 0.27243 0.0
C1423 C 0.22697 0.15819 0.25645 0.0
C1424 C 0.22795 0.11617 0.28662 0.0
H1425 H 0.1899 0.04695 0.33063 0.0
H1426 H 0.20335 0.07725 0.31968 0.0
H1427 H 0.22913 0.08821 0.29915 0.0
H1428 H 0.23946 0.18575 0.30359 0.0
H1429 H 0.22573 0.15353 0.30515 0.0
H1430 H 0.19209 0.13295 0.25963 0.0
C1431 C 0.19624 0.06799 0.30939 0.0
C1432 C 0.22088 0.09778 0.29048 0.0
C1433 C 0.18841 0.05063 0.3157 0.0
C1434 C 0.2362 0.17824 0.29026 0.0
C1435 C 0.22827 0.15983 0.29119 0.0
C1436 C 0.20035 0.1231 0.26799 0.0
C1437 C 0.19465 0.07348 0.29017 0.0
C1438 C 0.20311 0.09203 0.28377 0.0
C1439 C 0.22404 0.14944 0.27432 0.0
C1440 C 0.21753 0.12916 0.2758 0.0
H1441 H 0.16957 0.03474 0.27357 0.0
H1442 H 0.18348 0.0651 0.26251 0.0
H1443 H 0.17939 0.10063 0.26666 0.0
H1444 H 0.23812 0.18287 0.24157 0.0
H1445 H 0.22372 0.15041 0.24326 0.0
C1446 C 0.2787 0.96021 0.54541 0.0
C1447 C 0.27032 0.94971 0.53038 0.0
C1448 C 0.29451 0.97182 0.54179 0.0
C1449 C 0.3251 0.99343 0.50372 0.0
H1450 H 0.36497 0.9821 0.53908 0.0
C1451 C 0.4044 0.00907 0.48727 0.0
C1452 C 0.41549 0.01556 0.50258 0.0
C1453 C 0.38563 0.00333 0.49057 0.0
C1454 C 0.35395 0.98572 0.52924 0.0
H1455 H 0.27095 0.94421 0.49958 0.0
H1456 H 0.29874 0.96437 0.49324 0.0
H1457 H 0.33339 0.96933 0.54495 0.0
H1458 H 0.41533 0.02189 0.53324 0.0
H1459 H 0.38264 0.01196 0.53901 0.0
H1460 H 0.34593 0.00959 0.48783 0.0
C1461 C 0.29302 0.96377 0.50781 0.0
C1462 C 0.3358 0.97841 0.53262 0.0
C1463 C 0.27709 0.95223 0.51144 0.0
C1464 C 0.40731 0.01653 0.52121 0.0
C1465 C 0.38855 0.01089 0.5245 0.0
C1466 C 0.34333 0.00081 0.50034 0.0
C1467 C 0.30233 0.97304 0.52307 0.0
C1468 C 0.32118 0.9821 0.51988 0.0
C1469 C 0.37754 0.00404 0.50926 0.0
C1470 C 0.35797 0.99693 0.51303 0.0
H1471 H 0.27362 0.95871 0.56013 0.0
H1472 H 0.30111 0.97916 0.55378 0.0
H1473 H 0.3141 0.99659 0.4937 0.0
H1474 H 0.41036 0.00802 0.47279 0.0
H1475 H 0.37762 0.99787 0.47856 0.0
C1476 C 0.82117 0.55596 0.25603 0.0
C1477 C 0.82682 0.56072 0.27476 0.0
C1478 C 0.80659 0.56625 0.24769 0.0
C1479 C 0.79255 0.60226 0.22917 0.0
H1480 H 0.75523 0.63283 0.25839 0.0
C1481 C 0.78677 0.68319 0.22343 0.0
C1482 C 0.76985 0.69304 0.2283 0.0
C1483 C 0.7874 0.66298 0.22332 0.0
C1484 C 0.76518 0.62417 0.24972 0.0
H1485 H 0.82047 0.57866 0.30009 0.0
H1486 H 0.79566 0.59714 0.28541 0.0
H1487 H 0.76619 0.60227 0.27098 0.0
H1488 H 0.73989 0.68949 0.2352 0.0
H1489 H 0.74104 0.65403 0.23506 0.0
H1490 H 0.792 0.62447 0.20824 0.0
C1491 C 0.80211 0.58525 0.27716 0.0
C1492 C 0.77165 0.60675 0.25708 0.0
C1493 C 0.8165 0.57475 0.28559 0.0
C1494 C 0.75319 0.68227 0.23154 0.0
C1495 C 0.75384 0.66198 0.23152 0.0
C1496 C 0.78593 0.61954 0.22173 0.0
C1497 C 0.79759 0.58174 0.2578 0.0
C1498 C 0.78634 0.59628 0.2475 0.0
C1499 C 0.77112 0.65216 0.22812 0.0
C1500 C 0.77315 0.63132 0.23254 0.0
H1501 H 0.82862 0.54489 0.24747 0.0
H1502 H 0.80314 0.56283 0.23294 0.0
H1503 H 0.80382 0.59463 0.22129 0.0
H1504 H 0.7998 0.69108 0.2207 0.0
H1505 H 0.80101 0.65594 0.22086 0.0
C1506 C 0.66938 0.47197 0.78432 0.0
C1507 C 0.66617 0.4751 0.80418 0.0
C1508 C 0.68354 0.45921 0.77756 0.0
C1509 C 0.72451 0.4292 0.79192 0.0
H1510 H 0.70313 0.39149 0.75654 0.0
C1511 C 0.74519 0.34874 0.78888 0.0
C1512 C 0.74257 0.33784 0.77188 0.0
C1513 C 0.74129 0.36862 0.78958 0.0
C1514 C 0.70967 0.40206 0.76599 0.0
H1515 H 0.67627 0.46839 0.83245 0.0
H1516 H 0.7007 0.4458 0.82065 0.0
H1517 H 0.6863 0.42145 0.76381 0.0
H1518 H 0.73573 0.33943 0.74177 0.0
H1519 H 0.72946 0.37425 0.74283 0.0
H1520 H 0.74757 0.40927 0.79463 0.0
C1521 C 0.69241 0.45337 0.81029 0.0
C1522 C 0.69994 0.41931 0.7702 0.0
C1523 C 0.67828 0.46621 0.81707 0.0
C1524 C 0.73757 0.34744 0.75517 0.0
C1525 C 0.73392 0.36737 0.7558 0.0
C1526 C 0.73434 0.41192 0.78762 0.0
C1527 C 0.69475 0.44924 0.79049 0.0
C1528 C 0.70694 0.4328 0.78365 0.0
C1529 C 0.73488 0.37801 0.77322 0.0
C1530 C 0.7267 0.39787 0.77507 0.0
H1531 H 0.66052 0.47885 0.77397 0.0
H1532 H 0.68524 0.45658 0.7622 0.0
H1533 H 0.73037 0.43947 0.80215 0.0
H1534 H 0.74907 0.34174 0.802 0.0
H1535 H 0.74205 0.37629 0.80329 0.0
C1536 C 0.02114 0.83065 0.91755 0.0
C1537 C 0.00259 0.82406 0.92147 0.0
C1538 C 0.02686 0.84913 0.92382 0.0
C1539 C 0.0379 0.88413 0.94893 0.0
H1540 H 0.0035 0.92766 0.9445 0.0
C1541 C 0.04697 0.95777 0.98942 0.0
C1542 C 0.0421 0.97484 0.97998 0.0
C1543 C 0.04402 0.93954 0.98077 0.0
C1544 C 0.01337 0.91571 0.94565 0.0
H1545 H 0.97554 0.83189 0.93511 0.0
H1546 H 0.98554 0.86405 0.94602 0.0
H1547 H 0.99432 0.89561 0.93246 0.0
H1548 H 0.03107 0.98611 0.95365 0.0
H1549 H 0.02603 0.95428 0.93853 0.0
H1550 H 0.05692 0.90426 0.9622 0.0
C1551 C 0.99561 0.85496 0.93796 0.0
C1552 C 0.00801 0.89729 0.93896 0.0
C1553 C 0.98992 0.83644 0.93181 0.0
C1554 C 0.03499 0.97327 0.96133 0.0
C1555 C 0.03194 0.95502 0.95273 0.0
C1556 C 0.04322 0.90255 0.95574 0.0
C1557 C 0.01414 0.86153 0.93404 0.0
C1558 C 0.02014 0.88124 0.94064 0.0
C1559 C 0.03604 0.93793 0.96251 0.0
C1560 C 0.03097 0.91855 0.95428 0.0
H1561 H 0.0313 0.82154 0.90962 0.0
H1562 H 0.04118 0.85381 0.92041 0.0
H1563 H 0.04753 0.87205 0.95055 0.0
H1564 H 0.05243 0.95843 0.00381 0.0
H1565 H 0.04721 0.92668 0.98876 0.0
C1566 C 0.93142 0.2976 0.69134 0.0
C1567 C 0.93235 0.30396 0.6723 0.0
C1568 C 0.91431 0.291 0.69938 0.0
C1569 C 0.86292 0.29606 0.69288 0.0
H1570 H 0.85931 0.256 0.73108 0.0
C1571 C 0.7913 0.27437 0.72642 0.0
C1572 C 0.7906 0.2744 0.74662 0.0
C1573 C 0.80868 0.27477 0.71642 0.0
C1574 C 0.86016 0.26721 0.72043 0.0
H1575 H 0.91621 0.30757 0.64653 0.0
H1576 H 0.88672 0.29542 0.66022 0.0
H1577 H 0.88982 0.26238 0.71493 0.0
H1578 H 0.80757 0.27384 0.77214 0.0
H1579 H 0.83797 0.27462 0.75459 0.0
H1580 H 0.83338 0.30101 0.69845 0.0
C1581 C 0.89904 0.29601 0.66916 0.0
C1582 C 0.8776 0.27091 0.71123 0.0
C1583 C 0.91604 0.30282 0.66123 0.0
C1584 C 0.80765 0.27393 0.75657 0.0
C1585 C 0.82505 0.27423 0.74654 0.0
C1586 C 0.84553 0.29226 0.70194 0.0
C1587 C 0.89783 0.29048 0.68846 0.0
C1588 C 0.8792 0.28552 0.69747 0.0
C1589 C 0.82571 0.27511 0.72639 0.0
C1590 C 0.84399 0.27794 0.71592 0.0
H1591 H 0.94374 0.29833 0.70026 0.0
H1592 H 0.91386 0.28704 0.71435 0.0
H1593 H 0.86369 0.30771 0.68271 0.0
H1594 H 0.77841 0.27457 0.71832 0.0
H1595 H 0.80881 0.27519 0.70086 0.0
C1596 C 0.50587 0.2313 0.44545 0.0
C1597 C 0.48821 0.24055 0.44373 0.0
C1598 C 0.50758 0.21502 0.45699 0.0
C1599 C 0.47946 0.17399 0.47068 0.0
H1600 H 0.51759 0.16302 0.50798 0.0
C1601 C 0.4798 0.10064 0.50812 0.0
C1602 C 0.49738 0.09226 0.51199 0.0
C1603 C 0.47871 0.11989 0.50234 0.0
C1604 C 0.50699 0.16572 0.49741 0.0
H1605 H 0.45886 0.24074 0.45405 0.0
H1606 H 0.46187 0.21226 0.4738 0.0
H1607 H 0.51636 0.19511 0.49367 0.0
H1608 H 0.5276 0.09744 0.51305 0.0
H1609 H 0.52588 0.1307 0.50201 0.0
H1610 H 0.4706 0.14461 0.47333 0.0
C1611 C 0.47433 0.21759 0.46616 0.0
C1612 C 0.50625 0.18416 0.48935 0.0
C1613 C 0.47266 0.23396 0.45487 0.0
C1614 C 0.51384 0.10359 0.51025 0.0
C1615 C 0.51281 0.12273 0.50404 0.0
C1616 C 0.48041 0.15552 0.4784 0.0
C1617 C 0.49163 0.20762 0.46684 0.0
C1618 C 0.4924 0.18844 0.47598 0.0
C1619 C 0.49523 0.1311 0.49978 0.0
C1620 C 0.49414 0.15108 0.49194 0.0
H1621 H 0.51816 0.23603 0.43716 0.0
H1622 H 0.52108 0.20754 0.45729 0.0
H1623 H 0.46886 0.17683 0.46011 0.0
H1624 H 0.46685 0.09231 0.50959 0.0
H1625 H 0.46485 0.1259 0.49978 0.0
C1626 C 0.58272 0.83262 0.13482 0.0
C1627 C 0.56988 0.81838 0.12863 0.0
C1628 C 0.59957 0.82725 0.14338 0.0
C1629 C 0.63022 0.78483 0.1542 0.0
H1630 H 0.6383 0.81387 0.20166 0.0
C1631 C 0.67178 0.75371 0.21647 0.0
C1632 C 0.68541 0.76587 0.2248 0.0
C1633 C 0.65903 0.76108 0.20348 0.0
C1634 C 0.63637 0.80576 0.18835 0.0
H1635 H 0.56546 0.78736 0.12494 0.0
H1636 H 0.59451 0.77805 0.14013 0.0
H1637 H 0.61498 0.82526 0.17936 0.0
H1638 H 0.6959 0.79536 0.22666 0.0
H1639 H 0.67343 0.80833 0.20407 0.0
H1640 H 0.65117 0.76493 0.16369 0.0
C1641 C 0.59174 0.79335 0.13832 0.0
C1642 C 0.6231 0.81234 0.17548 0.0
C1643 C 0.57498 0.79871 0.12966 0.0
C1644 C 0.6856 0.78567 0.22036 0.0
C1645 C 0.67273 0.79309 0.20751 0.0
C1646 C 0.64338 0.77817 0.16717 0.0
C1647 C 0.60386 0.80756 0.14598 0.0
C1648 C 0.61965 0.8018 0.15837 0.0
C1649 C 0.65954 0.78079 0.1987 0.0
C1650 C 0.64636 0.78842 0.18449 0.0
H1651 H 0.57932 0.84791 0.13402 0.0
H1652 H 0.60885 0.83856 0.14868 0.0
H1653 H 0.62814 0.77653 0.14103 0.0
H1654 H 0.67143 0.73836 0.21944 0.0
H1655 H 0.64882 0.75134 0.19709 0.0
C1656 C 0.00699 0.26347 0.6232 0.0
C1657 C 0.98803 0.26618 0.61808 0.0
C1658 C 0.01693 0.24674 0.6172 0.0
C1659 C 0.01593 0.20682 0.58082 0.0
H1660 H 0.0481 0.17981 0.61586 0.0
C1661 C 0.03651 0.12733 0.56923 0.0
C1662 C 0.0555 0.12187 0.57143 0.0
C1663 C 0.03032 0.14592 0.5745 0.0
C1664 C 0.03939 0.18739 0.60585 0.0
H1665 H 0.96457 0.2532 0.60294 0.0
H1666 H 0.98175 0.22396 0.59282 0.0
H1667 H 0.033 0.21047 0.62614 0.0
H1668 H 0.08292 0.13159 0.58092 0.0
H1669 H 0.07194 0.16444 0.59049 0.0
H1670 H 0.02182 0.18346 0.56078 0.0
C1671 C 0.98909 0.23495 0.60111 0.0
C1672 C 0.03074 0.20491 0.61171 0.0
C1673 C 0.97918 0.25168 0.60703 0.0
C1674 C 0.06822 0.13547 0.5791 0.0
C1675 C 0.06194 0.15415 0.58462 0.0
C1676 C 0.02446 0.18931 0.57503 0.0
C1677 C 0.00812 0.23234 0.60599 0.0
C1678 C 0.01859 0.2146 0.59938 0.0
C1679 C 0.04295 0.15955 0.58218 0.0
C1680 C 0.03594 0.17922 0.58762 0.0
H1681 H 0.01428 0.27438 0.63165 0.0
H1682 H 0.03161 0.24525 0.62107 0.0
H1683 H 0.00705 0.21416 0.5708 0.0
H1684 H 0.02642 0.11734 0.56306 0.0
H1685 H 0.01557 0.14962 0.57265 0.0
C1686 C 0.56282 0.23967 0.35638 0.0
C1687 C 0.55594 0.25573 0.36728 0.0
C1688 C 0.58133 0.23952 0.34879 0.0
C1689 C 0.6195 0.27282 0.33422 0.0
H1690 H 0.64974 0.22574 0.33099 0.0
C1691 C 0.69677 0.27118 0.30443 0.0
C1692 C 0.70188 0.25546 0.29213 0.0
C1693 C 0.67929 0.2714 0.31434 0.0
C1694 C 0.64138 0.23896 0.33164 0.0
H1695 H 0.56334 0.28393 0.37936 0.0
H1696 H 0.59578 0.28354 0.36628 0.0
H1697 H 0.61904 0.22559 0.34796 0.0
H1698 H 0.69259 0.2277 0.28046 0.0
H1699 H 0.66202 0.22818 0.29766 0.0
H1700 H 0.64181 0.28615 0.31781 0.0
C1701 C 0.58673 0.27121 0.36335 0.0
C1702 C 0.62382 0.23888 0.34138 0.0
C1703 C 0.56818 0.27137 0.37095 0.0
C1704 C 0.68908 0.24004 0.28982 0.0
C1705 C 0.67163 0.24023 0.29979 0.0
C1706 C 0.63708 0.27291 0.32452 0.0
C1707 C 0.59341 0.2554 0.35194 0.0
C1708 C 0.61259 0.25577 0.34264 0.0
C1709 C 0.66658 0.25586 0.31223 0.0
C1710 C 0.64814 0.25593 0.32298 0.0
H1711 H 0.55377 0.22738 0.35328 0.0
H1712 H 0.58595 0.22721 0.33989 0.0
H1713 H 0.61107 0.28599 0.33466 0.0
H1714 H 0.70634 0.28326 0.30658 0.0
H1715 H 0.67587 0.28356 0.32395 0.0
C1716 C 0.47185 0.84124 0.05755 0.0
C1717 C 0.48834 0.83613 0.06716 0.0
C1718 C 0.47285 0.85415 0.04235 0.0
C1719 C 0.47777 0.89553 0.0309 0.0
H1720 H 0.52393 0.90822 0.00247 0.0
C1721 C 0.51167 0.96916 0.03674 0.0
C1722 C 0.52073 0.97767 0.02084 0.0
C1723 C 0.50398 0.95063 0.03513 0.0
C1724 C 0.51071 0.90482 0.00991 0.0
H1725 H 0.51904 0.83825 0.06647 0.0
H1726 H 0.52072 0.86107 0.04068 0.0
H1727 H 0.51716 0.87444 0.00995 0.0
H1728 H 0.52864 0.97354 0.99067 0.0
H1729 H 0.51543 0.9407 0.988 0.0
H1730 H 0.47178 0.92596 0.03162 0.0
C1731 C 0.50698 0.8552 0.04463 0.0
C1732 C 0.5069 0.88549 0.01434 0.0
C1733 C 0.506 0.84219 0.05968 0.0
C1734 C 0.52174 0.96732 0.00318 0.0
C1735 C 0.51419 0.94858 0.00163 0.0
C1736 C 0.48153 0.91476 0.02638 0.0
C1737 C 0.49032 0.86232 0.03663 0.0
C1738 C 0.49102 0.88082 0.02602 0.0
C1739 C 0.50526 0.94008 0.01762 0.0
C1740 C 0.49863 0.91971 0.01697 0.0
H1741 H 0.45804 0.83645 0.06265 0.0
H1742 H 0.45979 0.8589 0.03611 0.0
H1743 H 0.46538 0.89262 0.03988 0.0
H1744 H 0.51061 0.97677 0.05052 0.0
H1745 H 0.49754 0.9443 0.04783 0.0
C1746 C 0.95952 0.78618 0.84335 0.0
C1747 C 0.95989 0.77579 0.8605 0.0
C1748 C 0.94314 0.78642 0.83242 0.0
C1749 C 0.90251 0.75621 0.82151 0.0
H1750 H 0.87957 0.80271 0.80202 0.0
C1751 C 0.82952 0.7545 0.78646 0.0
C1752 C 0.8255 0.76791 0.7722 0.0
C1753 C 0.84661 0.75539 0.79609 0.0
C1754 C 0.88598 0.78952 0.807 0.0
H1755 H 0.94317 0.75807 0.87997 0.0
H1756 H 0.91477 0.75828 0.86076 0.0
H1757 H 0.90774 0.80536 0.8215 0.0
H1758 H 0.83668 0.79222 0.75625 0.0
H1759 H 0.86687 0.79326 0.77245 0.0
H1760 H 0.88127 0.74021 0.80673 0.0
C1761 C 0.92714 0.76623 0.85579 0.0
C1762 C 0.90205 0.7911 0.81829 0.0
C1763 C 0.94336 0.76625 0.86685 0.0
C1764 C 0.83932 0.78171 0.76722 0.0
C1765 C 0.85656 0.78243 0.77668 0.0
C1766 C 0.88666 0.75458 0.80999 0.0
C1767 C 0.92698 0.776 0.83831 0.0
C1768 C 0.91029 0.77448 0.82586 0.0
C1769 C 0.8603 0.76954 0.79154 0.0
C1770 C 0.87798 0.77122 0.80277 0.0
H1771 H 0.97203 0.79367 0.83807 0.0
H1772 H 0.94339 0.79405 0.81898 0.0
H1773 H 0.90881 0.74312 0.8269 0.0
H1774 H 0.81912 0.74379 0.79079 0.0
H1775 H 0.84873 0.74539 0.80762 0.0
C1776 C 0.90233 0.07242 0.82196 0.0
C1777 C 0.90947 0.06892 0.80316 0.0
C1778 C 0.91399 0.07018 0.83764 0.0
C1779 C 0.93956 0.05286 0.86766 0.0
H1780 H 0.98931 0.07674 0.86555 0.0
C1781 C 0.99658 0.04013 0.92408 0.0
C1782 C 0.00559 0.0569 0.93121 0.0
C1783 C 0.98476 0.04113 0.90838 0.0
C1784 C 0.97544 0.07004 0.86633 0.0
H1785 H 0.93439 0.06034 0.78602 0.0
H1786 H 0.95474 0.05662 0.81341 0.0
H1787 H 0.96853 0.07934 0.83825 0.0
H1788 H 0.00894 0.08794 0.92744 0.0
H1789 H 0.98866 0.08954 0.89987 0.0
H1790 H 0.94647 0.04366 0.89582 0.0
C1791 C 0.94015 0.06109 0.81599 0.0
C1792 C 0.96363 0.0714 0.85069 0.0
C1793 C 0.92847 0.06316 0.80034 0.0
C1794 C 0.00256 0.07466 0.92218 0.0
C1795 C 0.99089 0.07562 0.90641 0.0
C1796 C 0.95145 0.05134 0.88325 0.0
C1797 C 0.93303 0.06462 0.83476 0.0
C1798 C 0.94557 0.06289 0.85126 0.0
C1799 C 0.98186 0.05889 0.8994 0.0
C1800 C 0.96944 0.06002 0.88275 0.0
H1801 H 0.88783 0.07707 0.8246 0.0
H1802 H 0.90824 0.0732 0.85199 0.0
H1803 H 0.92573 0.04608 0.86837 0.0
H1804 H -0.0012 0.02615 0.93044 0.0
H1805 H 0.97811 0.02798 0.90308 0.0
C1806 C 0.7674 0.18284 0.56002 0.0
C1807 C 0.78646 0.1866 0.55498 0.0
C1808 C 0.75812 0.19372 0.57462 0.0
C1809 C 0.74012 0.22522 0.60138 0.0
H1810 H 0.76812 0.2282 0.64853 0.0
C1811 C 0.71751 0.2689 0.67142 0.0
C1812 C 0.71988 0.25895 0.68862 0.0
C1813 C 0.72368 0.26054 0.65382 0.0
C1814 C 0.76013 0.22746 0.63546 0.0
H1815 H 0.81046 0.2053 0.56078 0.0
H1816 H 0.79427 0.22412 0.58642 0.0
H1817 H 0.78312 0.21402 0.61954 0.0
H1818 H 0.72895 0.23178 0.70064 0.0
H1819 H 0.73999 0.21743 0.67007 0.0
H1820 H 0.71706 0.23864 0.61755 0.0
C1821 C 0.78657 0.21271 0.57907 0.0
C1822 C 0.76878 0.21954 0.61884 0.0
C1823 C 0.7958 0.20197 0.56435 0.0
C1824 C 0.7274 0.24003 0.68772 0.0
C1825 C 0.73368 0.23179 0.67023 0.0
C1826 C 0.73153 0.23342 0.61802 0.0
C1827 C 0.76777 0.20844 0.58457 0.0
C1828 C 0.75881 0.21816 0.60169 0.0
C1829 C 0.73238 0.24217 0.65321 0.0
C1830 C 0.7414 0.23432 0.63526 0.0
H1831 H 0.75974 0.17118 0.553 0.0
H1832 H 0.74366 0.19005 0.57868 0.0
H1833 H 0.73218 0.22436 0.58829 0.0
H1834 H 0.71183 0.2835 0.67164 0.0
H1835 H 0.72255 0.26881 0.64084 0.0
C1836 C 0.62529 0.97286 0.36234 0.0
C1837 C 0.61731 0.9718 0.3441 0.0
C1838 C 0.61467 0.97985 0.37823 0.0
C1839 C 0.57151 0.00833 0.39164 0.0
H1840 H 0.57766 0.98422 0.44091 0.0
C1841 C 0.52168 0.02168 0.45825 0.0
C1842 C 0.53064 0.02487 0.47582 0.0
C1843 C 0.53228 0.01621 0.44177 0.0
C1844 C 0.57593 0.99118 0.42726 0.0
H1845 H 0.59178 0.97687 0.32826 0.0
H1846 H 0.57305 0.98849 0.35608 0.0
H1847 H 0.59588 0.97214 0.41292 0.0
H1848 H 0.55777 0.02533 0.48981 0.0
H1849 H 0.57619 0.01559 0.46106 0.0
H1850 H 0.55115 0.02706 0.40609 0.0
C1851 C 0.5877 0.98444 0.35804 0.0
C1852 C 0.5864 0.98433 0.41124 0.0
C1853 C 0.59839 0.97763 0.34211 0.0
C1854 C 0.55043 0.0229 0.4765 0.0
C1855 C 0.56098 0.01725 0.4601 0.0
C1856 C 0.56088 0.01505 0.40766 0.0
C1857 C 0.59573 0.98568 0.37628 0.0
C1858 C 0.58439 0.99288 0.39325 0.0
C1859 C 0.55198 0.01365 0.44265 0.0
C1860 C 0.56309 0.00659 0.42561 0.0
H1861 H 0.63975 0.96834 0.36442 0.0
H1862 H 0.6214 0.98085 0.39201 0.0
H1863 H 0.56983 0.01544 0.37807 0.0
H1864 H 0.50645 0.02314 0.45729 0.0
H1865 H 0.52503 0.01343 0.42848 0.0
C1866 C 0.77162 0.84694 0.056 0.0
C1867 C 0.78969 0.84494 0.04713 0.0
C1868 C 0.76616 0.83511 0.07129 0.0
C1869 C 0.7803 0.79079 0.0977 0.0
H1870 H 0.756 0.81758 0.14136 0.0
C1871 C 0.78617 0.76592 0.17579 0.0
C1872 C 0.76985 0.76672 0.1878 0.0
C1873 C 0.7859 0.77328 0.15725 0.0
C1874 C 0.76252 0.8098 0.1292 0.0
H1875 H 0.8158 0.82818 0.04687 0.0
H1876 H 0.80652 0.80804 0.07355 0.0
H1877 H 0.75998 0.83419 0.11098 0.0
H1878 H 0.74033 0.77562 0.18968 0.0
H1879 H 0.73999 0.78879 0.15733 0.0
H1880 H 0.78363 0.76673 0.11633 0.0
C1881 C 0.79637 0.81849 0.06862 0.0
C1882 C 0.76476 0.81929 0.11172 0.0
C1883 C 0.80177 0.83021 0.05332 0.0
C1884 C 0.75314 0.77478 0.18077 0.0
C1885 C 0.75295 0.78238 0.16229 0.0
C1886 C 0.77825 0.78139 0.11523 0.0
C1887 C 0.77867 0.82104 0.0781 0.0
C1888 C 0.77405 0.81006 0.09585 0.0
C1889 C 0.76937 0.78181 0.15039 0.0
C1890 C 0.76968 0.79094 0.13126 0.0
H1891 H 0.7619 0.85806 0.05155 0.0
H1892 H 0.75228 0.83726 0.07803 0.0
H1893 H 0.78714 0.78305 0.08569 0.0
H1894 H 0.79924 0.75978 0.18077 0.0
H1895 H 0.79882 0.77282 0.14848 0.0
C1896 C 0.90644 0.08113 0.68689 0.0
C1897 C 0.89941 0.06866 0.70102 0.0
C1898 C 0.9207 0.07484 0.67385 0.0
C1899 C 0.94836 0.03066 0.65711 0.0
H1900 H 0.98439 0.06981 0.64101 0.0
C1901 C 0.00345 0.01657 0.5964 0.0
C1902 C 0.01944 0.0286 0.59474 0.0
C1903 C 0.99041 0.01923 0.61161 0.0
C1904 C 0.97479 0.05853 0.6457 0.0
H1905 H 0.90131 0.0396 0.71225 0.0
H1906 H 0.92664 0.029 0.6904 0.0
H1907 H 0.95776 0.07907 0.66172 0.0
H1908 H 0.03555 0.05119 0.60898 0.0
H1909 H 0.01343 0.05497 0.63633 0.0
H1910 H 0.96609 0.00992 0.64212 0.0
C1911 C 0.92088 0.04341 0.68871 0.0
C1912 C 0.9591 0.06397 0.65723 0.0
C1913 C 0.90629 0.04952 0.70136 0.0
C1914 C 0.02323 0.04185 0.60976 0.0
C1915 C 0.01036 0.0442 0.62528 0.0
C1916 C 0.96434 0.02513 0.64602 0.0
C1917 C 0.92863 0.05612 0.67505 0.0
C1918 C 0.94546 0.05019 0.66284 0.0
C1919 C 0.99326 0.03367 0.62585 0.0
C1920 C 0.9776 0.03904 0.63981 0.0
H1921 H 0.90131 0.09594 0.68628 0.0
H1922 H 0.92578 0.08488 0.66314 0.0
H1923 H 0.93818 0.01956 0.6609 0.0
H1924 H 8e-05 0.00619 0.58509 0.0
H1925 H 0.97746 0.01086 0.61131 0.0
C1926 C 0.80307 0.18544 0.4557 0.0
C1927 C 0.79485 0.16857 0.46319 0.0
C1928 C 0.7994 0.19098 0.43704 0.0
C1929 C 0.76712 0.1837 0.3967 0.0
H1930 H 0.81016 0.20336 0.36724 0.0
C1931 C 0.76312 0.20491 0.31676 0.0
C1932 C 0.76983 0.22373 0.31326 0.0
C1933 C 0.76662 0.19611 0.33422 0.0
C1934 C 0.79803 0.19788 0.37531 0.0
H1935 H 0.77574 0.14466 0.45726 0.0
H1936 H 0.76953 0.15425 0.42445 0.0
H1937 H 0.81456 0.19232 0.39982 0.0
H1938 H 0.78599 0.24783 0.32488 0.0
H1939 H 0.79231 0.23237 0.35515 0.0
H1940 H 0.75063 0.18937 0.37202 0.0
C1941 C 0.77869 0.16326 0.43311 0.0
C1942 C 0.8005 0.19168 0.39399 0.0
C1943 C 0.78226 0.15777 0.45189 0.0
C1944 C 0.78062 0.23332 0.32719 0.0
C1945 C 0.78432 0.22444 0.34448 0.0
C1946 C 0.76468 0.1898 0.37791 0.0
C1947 C 0.78757 0.1797 0.42536 0.0
C1948 C 0.785 0.18494 0.40506 0.0
C1949 C 0.77714 0.20588 0.34826 0.0
C1950 C 0.78005 0.1973 0.36722 0.0
H1951 H 0.81264 0.19422 0.46412 0.0
H1952 H 0.80604 0.20403 0.43169 0.0
H1953 H 0.75489 0.17867 0.40489 0.0
H1954 H 0.75469 0.19723 0.30628 0.0
H1955 H 0.76102 0.18174 0.33681 0.0
C1956 C 0.62254 0.93417 0.22738 0.0
C1957 C 0.63297 0.94811 0.23764 0.0
C1958 C 0.61497 0.93863 0.20963 0.0
C1959 C 0.61589 0.97619 0.17159 0.0
H1960 H 0.56359 0.96064 0.16519 0.0
C1961 C 0.56315 0.01897 0.12776 0.0
C1962 C 0.5538 0.00852 0.11332 0.0
C1963 C 0.5737 0.00925 0.14121 0.0
C1964 C 0.57827 0.96487 0.16671 0.0
H1965 H 0.64445 0.97731 0.23686 0.0
H1966 H 0.63091 0.98523 0.20648 0.0
H1967 H 0.58162 0.94725 0.19127 0.0
H1968 H 0.5476 0.97982 0.10188 0.0
H1969 H 0.56568 0.96265 0.12598 0.0
H1970 H 0.61201 0.99473 0.1477 0.0
C1971 C 0.62879 0.97072 0.21178 0.0
C1972 C 0.58867 0.95713 0.18154 0.0
C1973 C 0.63648 0.96621 0.22936 0.0
C1974 C 0.55474 0.98814 0.1129 0.0
C1975 C 0.56501 0.97837 0.12662 0.0
C1976 C 0.60539 0.98416 0.15701 0.0
C1977 C 0.61758 0.95716 0.20188 0.0
C1978 C 0.60748 0.96307 0.18446 0.0
C1979 C 0.57483 0.9889 0.14066 0.0
C1980 C 0.58639 0.97887 0.15473 0.0
H1981 H 0.61972 0.92003 0.23331 0.0
H1982 H 0.6067 0.92771 0.20222 0.0
H1983 H 0.63046 0.98073 0.17308 0.0
H1984 H 0.56284 0.03469 0.12824 0.0
H1985 H 0.58105 0.01763 0.15204 0.0
C1986 C 0.78491 0.87591 0.9434 0.0
C1987 C 0.79618 0.86465 0.95526 0.0
C1988 C 0.77951 0.86868 0.92538 0.0
C1989 C 0.76986 0.82436 0.89841 0.0
H1990 H 0.78534 0.85173 0.85255 0.0
C1991 C 0.76729 0.78766 0.82332 0.0
C1992 C 0.76518 0.799 0.80699 0.0
C1993 C 0.76895 0.79638 0.84152 0.0
C1994 C 0.78046 0.84404 0.86514 0.0
H1995 H 0.81023 0.83682 0.95773 0.0
H1996 H 0.80023 0.824 0.92656 0.0
H1997 H 0.79184 0.86578 0.88415 0.0
H1998 H 0.76236 0.82843 0.79708 0.0
H1999 H 0.76421 0.84368 0.82894 0.0
H2000 H 0.75799 0.80288 0.87974 0.0
C2001 C 0.79584 0.8385 0.93112 0.0
C2002 C 0.78435 0.85209 0.88326 0.0
C2003 C 0.80162 0.84589 0.94889 0.0
C2004 C 0.76403 0.81928 0.80938 0.0
C2005 C 0.76531 0.82803 0.82768 0.0
C2006 C 0.76559 0.8165 0.88033 0.0
C2007 C 0.78487 0.84988 0.91913 0.0
C2008 C 0.77939 0.84215 0.90003 0.0
C2009 C 0.76817 0.81673 0.84401 0.0
C2010 C 0.77118 0.826 0.86337 0.0
H2011 H 0.78056 0.89044 0.94788 0.0
H2012 H 0.77103 0.8777 0.91638 0.0
H2013 H 0.76572 0.81651 0.91117 0.0
H2014 H 0.76847 0.772 0.82197 0.0
H2015 H 0.77153 0.78708 0.8535 0.0
C2016 C 0.8456 0.94376 0.99196 0.0
C2017 C 0.84357 0.92592 0.00122 0.0
C2018 C 0.86284 0.95378 0.99229 0.0
C2019 C 0.90374 0.96002 0.02261 0.0
H2020 H 0.92822 0.98341 0.97833 0.0
C2021 C 0.97874 0.99278 0.02588 0.0
C2022 C 0.98335 0.00858 0.01424 0.0
C2023 C 0.96118 0.98359 0.02446 0.0
C2024 C 0.92141 0.97729 0.99093 0.0
H2025 H 0.85829 0.90419 0.01733 0.0
H2026 H 0.88825 0.92174 0.01798 0.0
H2027 H 0.89895 0.96508 0.97439 0.0
H2028 H 0.9728 0.0277 0.99261 0.0
H2029 H 0.94189 0.01217 0.99068 0.0
H2030 H 0.92577 0.97249 0.0393 0.0
C2031 C 0.87649 0.92801 0.01057 0.0
C2032 C 0.90471 0.96668 0.98861 0.0
C2033 C 0.85936 0.9179 0.01005 0.0
C2034 C 0.9697 0.01551 0.00174 0.0
C2035 C 0.95204 0.00646 0.00048 0.0
C2036 C 0.92027 0.97083 0.02499 0.0
C2037 C 0.87827 0.94624 0.00208 0.0
C2038 C 0.89583 0.95776 0.0044 0.0
C2039 C 0.94768 0.99011 0.01154 0.0
C2040 C 0.92947 0.97946 0.00915 0.0
H2041 H 0.83369 0.95033 0.98505 0.0
H2042 H 0.86383 0.96782 0.98564 0.0
H2043 H 0.89699 0.9536 0.0351 0.0
H2044 H 0.98899 0.98695 0.03552 0.0
H2045 H 0.95852 0.9709 0.03302 0.0
C2046 C 0.28569 0.58795 0.04115 0.0
C2047 C 0.28187 0.60501 0.05193 0.0
C2048 C 0.30117 0.57631 0.04537 0.0
C2049 C 0.34838 0.58531 0.05936 0.0
H2050 H 0.35472 0.5294 0.05692 0.0
C2051 C 0.42264 0.55046 0.05546 0.0
C2052 C 0.42515 0.53312 0.04469 0.0
C2053 C 0.40455 0.55813 0.05902 0.0
C2054 C 0.35322 0.54504 0.05737 0.0
H2055 H 0.29019 0.62273 0.07633 0.0
H2056 H 0.31757 0.60254 0.08356 0.0
H2057 H 0.32293 0.54335 0.06066 0.0
H2058 H 0.41073 0.51044 0.02878 0.0
H2059 H 0.37917 0.52441 0.03399 0.0
H2060 H 0.37828 0.5873 0.05475 0.0
C2061 C 0.30841 0.59798 0.07207 0.0
C2062 C 0.33503 0.55298 0.05978 0.0
C2063 C 0.29265 0.60939 0.06809 0.0
C2064 C 0.40921 0.52386 0.03711 0.0
C2065 C 0.3911 0.53175 0.04034 0.0
C2066 C 0.36649 0.57742 0.0566 0.0
C2067 C 0.31329 0.58188 0.06016 0.0
C2068 C 0.33245 0.57319 0.06062 0.0
C2069 C 0.38849 0.54887 0.05157 0.0
C2070 C 0.36918 0.55718 0.05535 0.0
H2071 H 0.27772 0.58454 0.02842 0.0
H2072 H 0.3047 0.56408 0.03588 0.0
H2073 H 0.34675 0.60096 0.0595 0.0
H2074 H 0.43461 0.55777 0.0618 0.0
H2075 H 0.40317 0.5711 0.06802 0.0
C2076 C 0.1876 0.53505 0.79424 0.0
C2077 C 0.19159 0.5273 0.81222 0.0
C2078 C 0.19368 0.55366 0.7896 0.0
C2079 C 0.20946 0.60026 0.81 0.0
H2080 H 0.23593 0.60527 0.76078 0.0
C2081 C 0.25143 0.66902 0.79024 0.0
C2082 C 0.25063 0.67532 0.77123 0.0
C2083 C 0.24362 0.65121 0.79537 0.0
C2084 C 0.22833 0.60421 0.77445 0.0
H2085 H 0.20448 0.53335 0.83967 0.0
H2086 H 0.21503 0.56594 0.83151 0.0
H2087 H 0.22265 0.57402 0.76968 0.0
H2088 H 0.24073 0.66813 0.74277 0.0
H2089 H 0.22682 0.63715 0.75172 0.0
H2090 H 0.21499 0.63048 0.81474 0.0
C2091 C 0.2072 0.55754 0.82106 0.0
C2092 C 0.22076 0.5863 0.77955 0.0
C2093 C 0.20124 0.53885 0.82568 0.0
C2094 C 0.24181 0.66349 0.75745 0.0
C2095 C 0.23386 0.64575 0.7626 0.0
C2096 C 0.21691 0.61823 0.80485 0.0
C2097 C 0.20375 0.56497 0.80285 0.0
C2098 C 0.21131 0.58414 0.79738 0.0
C2099 C 0.23471 0.63938 0.78162 0.0
C2100 C 0.2265 0.62039 0.78703 0.0
H2101 H 0.18016 0.5266 0.78354 0.0
H2102 H 0.19063 0.55916 0.77555 0.0
H2103 H 0.20208 0.599 0.82377 0.0
H2104 H 0.25837 0.67773 0.80109 0.0
H2105 H 0.24483 0.64659 0.81006 0.0
C2106 C 0.22811 0.43013 0.53694 0.0
C2107 C 0.23611 0.42344 0.51929 0.0
C2108 C 0.21155 0.44128 0.53754 0.0
C2109 C 0.18393 0.47377 0.50763 0.0
H2110 H 0.14478 0.46734 0.54715 0.0
C2111 C 0.11196 0.51354 0.50643 0.0
C2112 C 0.10382 0.52029 0.524 0.0
C2113 C 0.12834 0.50213 0.50603 0.0
C2114 C 0.15571 0.4695 0.53618 0.0
H2115 H 0.2326 0.42271 0.48842 0.0
H2116 H 0.20355 0.44206 0.48948 0.0
H2117 H 0.17218 0.44567 0.54585 0.0
H2118 H 0.1068 0.52071 0.55494 0.0
H2119 H 0.13562 0.50097 0.55422 0.0
H2120 H 0.16751 0.49762 0.49798 0.0
C2121 C 0.21027 0.43889 0.50285 0.0
C2122 C 0.17138 0.45703 0.5354 0.0
C2123 C 0.22684 0.42767 0.50226 0.0
C2124 C 0.11271 0.51574 0.54116 0.0
C2125 C 0.12913 0.50429 0.54076 0.0
C2126 C 0.16827 0.48624 0.50842 0.0
C2127 C 0.20259 0.44606 0.52049 0.0
C2128 C 0.18567 0.459 0.52109 0.0
C2129 C 0.13702 0.49718 0.52319 0.0
C2130 C 0.15395 0.48425 0.52269 0.0
H2131 H 0.23488 0.42713 0.55034 0.0
H2132 H 0.20611 0.4467 0.55135 0.0
H2133 H 0.19485 0.47593 0.49665 0.0
H2134 H 0.10545 0.51672 0.49294 0.0
H2135 H 0.1339 0.49674 0.49226 0.0
C2136 C 0.86054 0.00086 0.75563 0.0
C2137 C 0.85901 0.00855 0.7745 0.0
C2138 C 0.85537 0.98166 0.75163 0.0
C2139 C 0.82445 0.94363 0.77104 0.0
H2140 H 0.8503 0.91046 0.7329 0.0
C2141 C 0.8023 0.86446 0.75787 0.0
C2142 C 0.80104 0.85802 0.73864 0.0
C2143 C 0.81063 0.88225 0.76236 0.0
C2144 C 0.84287 0.91964 0.74348 0.0
H2145 H 0.85192 0.00173 0.80413 0.0
H2146 H 0.84321 0.96818 0.79718 0.0
H2147 H 0.86346 0.94232 0.74099 0.0
H2148 H 0.80781 0.86511 0.70906 0.0
H2149 H 0.82218 0.89647 0.7169 0.0
H2150 H 0.80381 0.9211 0.77346 0.0
C2151 C 0.84797 0.97714 0.78541 0.0
C2152 C 0.85041 0.93785 0.74812 0.0
C2153 C 0.85307 0.99635 0.78941 0.0
C2154 C 0.80842 0.86976 0.72399 0.0
C2155 C 0.81683 0.88759 0.72849 0.0
C2156 C 0.81696 0.92546 0.76644 0.0
C2157 C 0.84864 0.96973 0.76643 0.0
C2158 C 0.84124 0.95005 0.76194 0.0
C2159 C 0.81789 0.89406 0.74772 0.0
C2160 C 0.82606 0.91328 0.75259 0.0
H2161 H 0.86509 0.00984 0.74379 0.0
H2162 H 0.85591 0.97644 0.73683 0.0
H2163 H 0.81681 0.95284 0.78143 0.0
H2164 H 0.79654 0.85592 0.7695 0.0
H2165 H 0.81141 0.88677 0.77732 0.0
C2166 C 0.72542 0.10208 0.49503 0.0
C2167 C 0.73682 0.10882 0.50999 0.0
C2168 C 0.70678 0.09619 0.4989 0.0
C2169 C 0.66793 0.10095 0.53546 0.0
H2170 H 0.64884 0.05427 0.51065 0.0
C2171 C 0.59755 0.06478 0.5591 0.0
C2172 C 0.58573 0.0584 0.54435 0.0
C2173 C 0.61594 0.07115 0.5548 0.0
C2174 C 0.65391 0.06744 0.51755 0.0
H2175 H 0.73761 0.11465 0.54075 0.0
H2176 H 0.70532 0.10417 0.54748 0.0
H2177 H 0.68095 0.06521 0.503 0.0
H2178 H 0.58407 0.0533 0.51356 0.0
H2179 H 0.61597 0.06466 0.50606 0.0
H2180 H 0.64092 0.10309 0.55012 0.0
C2181 C 0.71063 0.1037 0.53273 0.0
C2182 C 0.67228 0.07373 0.51314 0.0
C2183 C 0.7292 0.1096 0.52887 0.0
C2184 C 0.5927 0.05841 0.52524 0.0
C2185 C 0.61107 0.06469 0.52095 0.0
C2186 C 0.64958 0.09464 0.53991 0.0
C2187 C 0.6992 0.09694 0.51781 0.0
C2188 C 0.67951 0.09053 0.52209 0.0
C2189 C 0.62289 0.07114 0.53567 0.0
C2190 C 0.64239 0.07781 0.53102 0.0
H2191 H 0.73087 0.10137 0.48033 0.0
H2192 H 0.69825 0.09125 0.48707 0.0
H2193 H 0.67298 0.11413 0.54238 0.0
H2194 H 0.59253 0.06503 0.57394 0.0
H2195 H 0.6248 0.07588 0.56646 0.0
C2196 C 0.22761 0.44554 0.77119 0.0
C2197 C 0.22611 0.44473 0.79133 0.0
C2198 C 0.23942 0.43263 0.76084 0.0
C2199 C 0.27344 0.39179 0.76388 0.0
H2200 H 0.23566 0.36464 0.73422 0.0
C2201 C 0.27414 0.30905 0.75257 0.0
C2202 C 0.2642 0.30078 0.73733 0.0
C2203 C 0.27468 0.3292 0.75513 0.0
C2204 C 0.24677 0.37208 0.74183 0.0
H2205 H 0.23769 0.43174 0.81657 0.0
H2206 H 0.25803 0.40883 0.79844 0.0
H2207 H 0.22949 0.39729 0.74556 0.0
H2208 H 0.24851 0.30646 0.71182 0.0
H2209 H 0.25048 0.34167 0.71537 0.0
H2210 H 0.29062 0.36626 0.76038 0.0
C2211 C 0.25018 0.4195 0.79065 0.0
C2212 C 0.24316 0.39095 0.74841 0.0
C2213 C 0.23842 0.43254 0.80104 0.0
C2214 C 0.25588 0.31272 0.72393 0.0
C2215 C 0.25697 0.33285 0.72607 0.0
C2216 C 0.27728 0.37293 0.75692 0.0
C2217 C 0.24979 0.41862 0.77047 0.0
C2218 C 0.25611 0.40074 0.76007 0.0
C2219 C 0.26575 0.34139 0.74211 0.0
C2220 C 0.26363 0.36256 0.74644 0.0
H2221 H 0.2186 0.45514 0.76333 0.0
H2222 H 0.23915 0.43245 0.74528 0.0
H2223 H 0.28368 0.39909 0.77282 0.0
H2224 H 0.28074 0.29991 0.76297 0.0
H2225 H 0.28135 0.33508 0.7678 0.0
C2226 C 0.29773 0.55174 0.29398 0.0
C2227 C 0.30021 0.53966 0.30973 0.0
C2228 C 0.299 0.57179 0.29619 0.0
C2229 C 0.29741 0.61313 0.33006 0.0
H2230 H 0.32943 0.63632 0.2906 0.0
C2231 C 0.314 0.69585 0.32702 0.0
C2232 C 0.31063 0.70378 0.30898 0.0
C2233 C 0.31411 0.67571 0.32921 0.0
C2234 C 0.32047 0.63005 0.30172 0.0
H2235 H 0.30302 0.53936 0.34073 0.0
H2236 H 0.30547 0.57471 0.34453 0.0
H2237 H 0.32569 0.60121 0.29099 0.0
H2238 H 0.30512 0.69691 0.27907 0.0
H2239 H 0.3055 0.66193 0.28287 0.0
H2240 H 0.292 0.64221 0.34054 0.0
C2241 C 0.30309 0.56845 0.33039 0.0
C2242 C 0.31827 0.60999 0.30192 0.0
C2243 C 0.30176 0.54824 0.32819 0.0
C2244 C 0.30774 0.69125 0.29315 0.0
C2245 C 0.30807 0.67121 0.2953 0.0
C2246 C 0.29966 0.63332 0.32989 0.0
C2247 C 0.30248 0.5803 0.31425 0.0
C2248 C 0.30627 0.60138 0.3157 0.0
C2249 C 0.31114 0.66324 0.31334 0.0
C2250 C 0.31079 0.64194 0.31536 0.0
H2251 H 0.2957 0.54567 0.27969 0.0
H2252 H 0.29776 0.58064 0.28362 0.0
H2253 H 0.28811 0.60683 0.34086 0.0
H2254 H 0.31621 0.70519 0.33948 0.0
H2255 H 0.31657 0.66987 0.34325 0.0
C2256 C 0.5185 0.71868 0.61519 0.0
C2257 C 0.50525 0.73176 0.60803 0.0
C2258 C 0.5216 0.70054 0.60609 0.0
C2259 C 0.51755 0.67453 0.55984 0.0
H2260 H 0.51372 0.62788 0.58983 0.0
C2261 C 0.51339 0.59914 0.52285 0.0
C2262 C 0.52231 0.58339 0.53137 0.0
C2263 C 0.51165 0.61703 0.53263 0.0
C2264 C 0.51516 0.64072 0.58123 0.0
H2265 H 0.48526 0.73625 0.58539 0.0
H2266 H 0.49099 0.70488 0.56936 0.0
H2267 H 0.51125 0.65967 0.60593 0.0
H2268 H 0.53636 0.57404 0.5569 0.0
H2269 H 0.53388 0.60538 0.57373 0.0
H2270 H 0.52185 0.65585 0.5352 0.0
C2271 C 0.49886 0.70857 0.58208 0.0
C2272 C 0.5137 0.65894 0.5905 0.0
C2273 C 0.49552 0.7265 0.59133 0.0
C2274 C 0.52927 0.58586 0.54999 0.0
C2275 C 0.52777 0.60386 0.55968 0.0
C2276 C 0.51928 0.65636 0.55061 0.0
C2277 C 0.51178 0.69532 0.58944 0.0
C2278 C 0.51464 0.67602 0.57986 0.0
C2279 C 0.51905 0.61976 0.55108 0.0
C2280 C 0.51786 0.63916 0.56112 0.0
H2281 H 0.52616 0.72226 0.62806 0.0
H2282 H 0.53171 0.69062 0.612 0.0
H2283 H 0.51856 0.68747 0.55131 0.0
H2284 H 0.50776 0.59767 0.50857 0.0
H2285 H 0.50442 0.62872 0.52567 0.0
C2286 C 0.5664 0.26226 0.88483 0.0
C2287 C 0.54994 0.27286 0.88108 0.0
C2288 C 0.58402 0.2684 0.87785 0.0
C2289 C 0.62121 0.28617 0.86583 0.0
H2290 H 0.62088 0.30269 0.81296 0.0
C2291 C 0.69064 0.29454 0.82182 0.0
C2292 C 0.69057 0.28733 0.80279 0.0
C2293 C 0.67369 0.29702 0.83237 0.0
C2294 C 0.62123 0.29803 0.8277 0.0
H2295 H 0.53924 0.29907 0.86844 0.0
H2296 H 0.57017 0.31007 0.85661 0.0
H2297 H 0.5911 0.29949 0.83093 0.0
H2298 H 0.67276 0.27739 0.77971 0.0
H2299 H 0.64318 0.28092 0.79833 0.0
H2300 H 0.6512 0.2833 0.86218 0.0
C2301 C 0.56935 0.2967 0.86449 0.0
C2302 C 0.60415 0.29651 0.83814 0.0
C2303 C 0.55164 0.29046 0.87137 0.0
C2304 C 0.67321 0.28299 0.79435 0.0
C2305 C 0.65626 0.2852 0.805 0.0
C2306 C 0.63826 0.28746 0.85533 0.0
C2307 C 0.58565 0.2854 0.86712 0.0
C2308 C 0.6039 0.29007 0.85717 0.0
C2309 C 0.65631 0.29207 0.82421 0.0
C2310 C 0.63844 0.29294 0.83598 0.0
H2311 H 0.5656 0.24866 0.89233 0.0
H2312 H 0.5962 0.25918 0.87998 0.0
H2313 H 0.62156 0.2815 0.88057 0.0
H2314 H 0.70381 0.29829 0.82861 0.0
H2315 H 0.67425 0.3027 0.84697 0.0
C2316 C 0.02368 0.33256 0.11002 0.0
C2317 C 0.00885 0.32044 0.10403 0.0
C2318 C 0.0276 0.34991 0.10056 0.0
C2319 C 0.0028 0.38569 0.07169 0.0
H2320 H 0.05256 0.40857 0.06458 0.0
C2321 C 0.01215 0.45893 0.03463 0.0
C2322 C 0.02447 0.47238 0.04316 0.0
C2323 C 0.01185 0.4396 0.04032 0.0
C2324 C 0.03856 0.40242 0.06659 0.0
H2325 H 0.98759 0.31626 0.08239 0.0
H2326 H 0.99468 0.34615 0.06573 0.0
H2327 H 0.04965 0.37582 0.07722 0.0
H2328 H 0.04653 0.47591 0.06405 0.0
H2329 H 0.04582 0.44222 0.07417 0.0
H2330 H 0.99163 0.41226 0.06145 0.0
C2331 C 0.00292 0.34261 0.07809 0.0
C2332 C 0.03689 0.38365 0.07382 0.0
C2333 C -0.00106 0.32538 0.08758 0.0
C2334 C 0.03687 0.46592 0.05717 0.0
C2335 C 0.03654 0.44656 0.0629 0.0
C2336 C 0.00445 0.40439 0.0645 0.0
C2337 C 0.01683 0.35544 0.08485 0.0
C2338 C 0.01897 0.37506 0.07647 0.0
C2339 C 0.02382 0.43323 0.05475 0.0
C2340 C 0.02233 0.41303 0.06188 0.0
H2341 H 0.03158 0.32922 0.12266 0.0
H2342 H 0.03838 0.35946 0.1062 0.0
H2343 H 0.98873 0.37977 0.07397 0.0
H2344 H 0.00249 0.46337 0.02371 0.0
H2345 H 0.00211 0.42966 0.0335 0.0
C2346 C 0.9759 0.76343 0.35384 0.0
C2347 C 0.99331 0.77005 0.34622 0.0
C2348 C 0.95944 0.76472 0.34327 0.0
C2349 C 0.94412 0.7645 0.29395 0.0
H2350 H 0.89563 0.78101 0.31628 0.0
C2351 C 0.87647 0.7633 0.24948 0.0
C2352 C 0.85973 0.75711 0.2588 0.0
C2353 C 0.89264 0.7673 0.25998 0.0
C2354 C 0.90902 0.77616 0.30988 0.0
H2355 H 0.00701 0.78361 0.32168 0.0
H2356 H 0.97823 0.78556 0.30308 0.0
H2357 H 0.92414 0.78391 0.33521 0.0
H2358 H 0.84676 0.75017 0.28635 0.0
H2359 H 0.87506 0.7566 0.30466 0.0
H2360 H 0.92909 0.75598 0.26894 0.0
C2361 C 0.97738 0.77945 0.31728 0.0
C2362 C 0.92534 0.77793 0.3207 0.0
C2363 C 0.99382 0.77839 0.32797 0.0
C2364 C 0.85941 0.75515 0.27884 0.0
C2365 C 0.87563 0.75893 0.28932 0.0
C2366 C 0.9278 0.76252 0.28321 0.0
C2367 C 0.96009 0.77241 0.32475 0.0
C2368 C 0.94301 0.77196 0.31289 0.0
C2369 C 0.8925 0.76497 0.28002 0.0
C2370 C 0.91 0.76815 0.29109 0.0
H2371 H 0.975 0.75685 0.36779 0.0
H2372 H 0.94633 0.75901 0.34929 0.0
H2373 H 0.95753 0.75952 0.28768 0.0
H2374 H 0.877 0.76521 0.23408 0.0
H2375 H 0.90524 0.77228 0.25237 0.0
C2376 C 0.45132 0.28641 0.93437 0.0
C2377 C 0.46658 0.28262 0.92142 0.0
C2378 C 0.44887 0.30482 0.94288 0.0
C2379 C 0.47617 0.34889 0.95494 0.0
H2380 H 0.42644 0.36977 0.96869 0.0
C2381 C 0.46506 0.42373 0.99314 0.0
C2382 C 0.45238 0.42396 0.00913 0.0
C2383 C 0.46645 0.40744 0.98084 0.0
C2384 C 0.44041 0.36407 0.96498 0.0
H2385 H 0.49068 0.29555 0.9065 0.0
H2386 H 0.48611 0.32779 0.921 0.0
H2387 H 0.42911 0.33999 0.94915 0.0
H2388 H 0.43138 0.40692 0.02466 0.0
H2389 H 0.43362 0.37876 0.00304 0.0
H2390 H 0.48742 0.37303 0.97082 0.0
C2391 C 0.47632 0.31638 0.92496 0.0
C2392 C 0.44196 0.347 0.95383 0.0
C2393 C 0.47887 0.29791 0.91655 0.0
C2394 C 0.44107 0.40749 0.01238 0.0
C2395 C 0.44235 0.3913 -2e-05 0.0
C2396 C 0.47461 0.36605 0.96595 0.0
C2397 C 0.46152 0.31996 0.93853 0.0
C2398 C 0.45985 0.33902 0.94892 0.0
C2399 C 0.45507 0.39109 0.98412 0.0
C2400 C 0.45672 0.37364 0.97133 0.0
H2401 H 0.44162 0.27498 0.93851 0.0
H2402 H 0.43746 0.30695 0.95344 0.0
H2403 H 0.49017 0.34303 0.95173 0.0
H2404 H 0.47378 0.43619 0.98991 0.0
H2405 H 0.47626 0.40773 0.96861 0.0
C2406 C 0.93842 0.26654 0.16653 0.0
C2407 C 0.95485 0.26017 0.17548 0.0
C2408 C 0.92047 0.26238 0.17432 0.0
C2409 C 0.88366 0.2447 0.18949 0.0
H2410 H 0.87716 0.25398 0.24443 0.0
C2411 C 0.81167 0.23436 0.23018 0.0
C2412 C 0.80645 0.24929 0.24341 0.0
C2413 C 0.82998 0.23366 0.22194 0.0
C2414 C 0.87875 0.25135 0.22907 0.0
H2415 H 0.96528 0.24386 0.19931 0.0
H2416 H 0.93389 0.23657 0.21292 0.0
H2417 H 0.90872 0.25586 0.22944 0.0
H2418 H 0.81641 0.27512 0.25841 0.0
H2419 H 0.84823 0.27389 0.24402 0.0
H2420 H 0.85357 0.24076 0.18907 0.0
C2421 C 0.93493 0.24493 0.19994 0.0
C2422 C 0.89686 0.2522 0.22051 0.0
C2423 C 0.95291 0.24901 0.19208 0.0
C2424 C 0.81996 0.2634 0.2483 0.0
C2425 C 0.83825 0.26263 0.24015 0.0
C2426 C 0.86554 0.24375 0.19807 0.0
C2427 C 0.91852 0.25183 0.19132 0.0
C2428 C 0.89949 0.24917 0.20058 0.0
C2429 C 0.84348 0.24779 0.22685 0.0
C2430 C 0.86285 0.24737 0.21792 0.0
H2431 H 0.93937 0.27528 0.15381 0.0
H2432 H 0.90814 0.26812 0.16745 0.0
H2433 H 0.88525 0.24213 0.17412 0.0
H2434 H 0.8016 0.22327 0.22612 0.0
H2435 H 0.83362 0.22197 0.21184 0.0
C2436 C 0.03076 0.7218 0.44799 0.0
C2437 C 0.0419 0.72825 0.43234 0.0
C2438 C 0.03861 0.70987 0.46169 0.0
C2439 C 0.06246 0.68943 0.49209 0.0
H2440 H 0.08227 0.6429 0.46644 0.0
C2441 C 0.08671 0.60433 0.50509 0.0
C2442 C 0.07259 0.59999 0.51882 0.0
C2443 C 0.0887 0.62325 0.49859 0.0
C2444 C 0.07744 0.65591 0.47408 0.0
H2445 H 0.07031 0.72812 0.41945 0.0
H2446 H 0.08377 0.70697 0.44312 0.0
H2447 H 0.0748 0.67081 0.44771 0.0
H2448 H 0.05026 0.61179 0.53753 0.0
H2449 H 0.05271 0.64449 0.52534 0.0
H2450 H 0.06503 0.67452 0.51853 0.0
C2451 C 0.06902 0.71123 0.44477 0.0
C2452 C 0.07299 0.67192 0.46321 0.0
C2453 C 0.06125 0.7233 0.43122 0.0
C2454 C 0.06138 0.61496 0.52702 0.0
C2455 C 0.06288 0.63376 0.52002 0.0
C2456 C 0.06731 0.6735 0.5031 0.0
C2457 C 0.05767 0.70406 0.45986 0.0
C2458 C 0.06495 0.68858 0.47202 0.0
C2459 C 0.07596 0.63794 0.50501 0.0
C2460 C 0.07428 0.65626 0.49416 0.0
H2461 H 0.01585 0.7255 0.44937 0.0
H2462 H 0.02955 0.70436 0.47313 0.0
H2463 H 0.0564 0.70224 0.49919 0.0
H2464 H 0.09558 0.59292 0.49872 0.0
H2465 H 0.09947 0.62602 0.48762 0.0
C2466 C 0.58749 0.80942 0.66786 0.0
C2467 C 0.57579 0.79332 0.66436 0.0
C2468 C 0.60493 0.80714 0.67662 0.0
C2469 C 0.64085 0.77024 0.68955 0.0
H2470 H 0.65524 0.81016 0.72649 0.0
C2471 C 0.70534 0.76215 0.73871 0.0
C2472 C 0.71761 0.7782 0.73931 0.0
C2473 C 0.68761 0.76363 0.73028 0.0
C2474 C 0.65146 0.79894 0.71615 0.0
H2475 H 0.57348 0.76208 0.6669 0.0
H2476 H 0.60368 0.75814 0.68252 0.0
H2477 H 0.62563 0.8133 0.70966 0.0
H2478 H 0.72064 0.80853 0.73206 0.0
H2479 H 0.6897 0.81115 0.71765 0.0
H2480 H 0.66668 0.7558 0.69633 0.0
C2481 C 0.59957 0.77253 0.67823 0.0
C2482 C 0.63452 0.80078 0.70639 0.0
C2483 C 0.58219 0.77479 0.66931 0.0
C2484 C 0.71153 0.79589 0.73185 0.0
C2485 C 0.69376 0.79742 0.72364 0.0
C2486 C 0.65773 0.76833 0.69945 0.0
C2487 C 0.61105 0.78872 0.68228 0.0
C2488 C 0.62905 0.78654 0.69282 0.0
C2489 C 0.68171 0.78125 0.72251 0.0
C2490 C 0.6633 0.78274 0.71274 0.0
H2491 H 0.58306 0.82388 0.6641 0.0
H2492 H 0.61356 0.8199 0.67906 0.0
H2493 H 0.63726 0.7591 0.67906 0.0
H2494 H 0.70963 0.7483 0.74426 0.0
H2495 H 0.67855 0.75097 0.72977 0.0
C2496 C 0.60534 0.50795 0.73063 0.0
C2497 C 0.59978 0.52438 0.74176 0.0
C2498 C 0.6024 0.50718 0.71092 0.0
C2499 C 0.59256 0.53633 0.66867 0.0
H2500 H 0.56886 0.48892 0.65031 0.0
C2501 C 0.55883 0.52865 0.59401 0.0
C2502 C 0.56035 0.51057 0.58434 0.0
C2503 C 0.56536 0.53101 0.61268 0.0
C2504 C 0.57577 0.50213 0.65508 0.0
H2505 H 0.58758 0.55326 0.74074 0.0
H2506 H 0.58236 0.55183 0.70614 0.0
H2507 H 0.57745 0.49206 0.68379 0.0
H2508 H 0.57076 0.4811 0.58618 0.0
H2509 H 0.58246 0.48523 0.61862 0.0
H2510 H 0.59084 0.54639 0.63987 0.0
C2511 C 0.58904 0.5396 0.71277 0.0
C2512 C 0.58065 0.50394 0.6743 0.0
C2513 C 0.59195 0.54037 0.73258 0.0
C2514 C 0.56909 0.49508 0.59344 0.0
C2515 C 0.57575 0.49747 0.61202 0.0
C2516 C 0.58776 0.53448 0.64935 0.0
C2517 C 0.59387 0.52281 0.70185 0.0
C2518 C 0.58908 0.52104 0.6813 0.0
C2519 C 0.57366 0.51535 0.62201 0.0
C2520 C 0.57929 0.51734 0.64235 0.0
H2521 H 0.61161 0.49545 0.7372 0.0
H2522 H 0.60656 0.49419 0.7028 0.0
H2523 H 0.59916 0.54962 0.67368 0.0
H2524 H 0.55198 0.54079 0.58741 0.0
H2525 H 0.56331 0.54491 0.62003 0.0
C2526 C 0.74881 0.39009 0.98997 0.0
C2527 C 0.76197 0.38506 0.00382 0.0
C2528 C 0.748 0.37955 0.97262 0.0
C2529 C 0.75982 0.33255 0.94959 0.0
H2530 H 0.76275 0.3613 0.90235 0.0
C2531 C 0.77445 0.29459 0.87599 0.0
C2532 C 0.76521 0.3017 0.85992 0.0
C2533 C 0.77332 0.3046 0.89367 0.0
C2534 C 0.7616 0.35302 0.91537 0.0
H2535 H 0.78416 0.36465 0.0106 0.0
H2536 H 0.78252 0.34615 0.98044 0.0
H2537 H 0.76108 0.3788 0.93316 0.0
H2538 H 0.74766 0.3253 0.85012 0.0
H2539 H 0.74504 0.3421 0.88093 0.0
H2540 H 0.76008 0.30676 0.93192 0.0
C2541 C 0.77292 0.35829 0.98298 0.0
C2542 C 0.76069 0.36307 0.93301 0.0
C2543 C 0.77392 0.36896 0.00018 0.0
C2544 C 0.75479 0.3191 0.86208 0.0
C2545 C 0.7535 0.32897 0.87979 0.0
C2546 C 0.76051 0.32247 0.93195 0.0
C2547 C 0.76012 0.36361 0.96894 0.0
C2548 C 0.75995 0.35293 0.95028 0.0
C2549 C 0.76278 0.32189 0.89581 0.0
C2550 C 0.76157 0.33258 0.91461 0.0
H2551 H 0.73944 0.40244 0.99235 0.0
H2552 H 0.73792 0.38386 0.96204 0.0
H2553 H 0.75909 0.3244 0.96273 0.0
H2554 H 0.78248 0.28121 0.87505 0.0
H2555 H 0.7809 0.29884 0.90561 0.0
C2556 C 0.89395 0.51776 0.20144 0.0
C2557 C 0.90498 0.50979 0.21581 0.0
C2558 C 0.90057 0.51759 0.18233 0.0
C2559 C 0.93957 0.49852 0.14951 0.0
H2560 H 0.93313 0.54787 0.12464 0.0
C2561 C 0.99257 0.52885 0.09421 0.0
C2562 C 0.98529 0.53238 0.07603 0.0
C2563 C 0.98036 0.52518 0.10977 0.0
C2564 C 0.93482 0.53396 0.13135 0.0
H2565 H 0.93098 0.4943 0.2213 0.0
H2566 H 0.94281 0.49459 0.18833 0.0
H2567 H 0.91534 0.54138 0.15435 0.0
H2568 H 0.95956 0.53574 0.06005 0.0
H2569 H 0.93813 0.53004 0.0877 0.0
H2570 H 0.96008 0.4918 0.12706 0.0
C2571 C 0.92888 0.50063 0.19154 0.0
C2572 C 0.92456 0.53012 0.14828 0.0
C2573 C 0.92214 0.50055 0.21055 0.0
C2574 C 0.96554 0.53308 0.07392 0.0
C2575 C 0.9533 0.52979 0.08965 0.0
C2576 C 0.95008 0.50253 0.13281 0.0
C2577 C 0.91846 0.50969 0.17728 0.0
C2578 C 0.92714 0.51252 0.15783 0.0
C2579 C 0.96068 0.52535 0.10753 0.0
C2580 C 0.94805 0.52042 0.12387 0.0
H2581 H 0.88054 0.52477 0.20505 0.0
H2582 H 0.89195 0.52425 0.17166 0.0
H2583 H 0.9416 0.48464 0.15617 0.0
H2584 H 0.00771 0.52809 0.09625 0.0
H2585 H 0.98628 0.52196 0.12355 0.0
C2586 C 0.77484 0.68106 0.44393 0.0
C2587 C 0.79163 0.68649 0.4531 0.0
C2588 C 0.7707 0.68836 0.42585 0.0
C2589 C 0.796 0.70433 0.38295 0.0
H2590 H 0.74824 0.72535 0.36664 0.0
C2591 C 0.78983 0.73654 0.308 0.0
C2592 C 0.77287 0.73409 0.29817 0.0
C2593 C 0.79098 0.73144 0.32725 0.0
C2594 C 0.7616 0.71924 0.37085 0.0
H2595 H 0.81645 0.70503 0.45097 0.0
H2596 H 0.80928 0.71746 0.41958 0.0
H2597 H 0.75155 0.7156 0.4 0.0
H2598 H 0.74375 0.72435 0.30084 0.0
H2599 H 0.74592 0.71473 0.33427 0.0
H2600 H 0.80602 0.70721 0.35397 0.0
C2601 C 0.79945 0.70742 0.42627 0.0
C2602 C 0.76348 0.71376 0.39 0.0
C2603 C 0.80349 0.70032 0.44433 0.0
C2604 C 0.75702 0.72647 0.30806 0.0
C2605 C 0.75824 0.72107 0.32728 0.0
C2606 C 0.79406 0.7095 0.36383 0.0
C2607 C 0.78335 0.70106 0.41657 0.0
C2608 C 0.78081 0.7065 0.39627 0.0
C2609 C 0.77529 0.72341 0.33714 0.0
C2610 C 0.77692 0.71729 0.35751 0.0
H2611 H 0.76535 0.67048 0.45025 0.0
H2612 H 0.75816 0.68325 0.41868 0.0
H2613 H 0.80941 0.69839 0.38728 0.0
H2614 H 0.80224 0.74261 0.30089 0.0
H2615 H 0.80421 0.73397 0.33439 0.0
C2616 C 0.55761 0.52371 0.84962 0.0
C2617 C 0.57533 0.51437 0.84983 0.0
C2618 C 0.54608 0.52485 0.86629 0.0
C2619 C 0.53761 0.4992 0.91127 0.0
H2620 H 0.51104 0.5459 0.92884 0.0
C2621 C 0.50104 0.52993 0.98561 0.0
C2622 C 0.49066 0.51349 0.99116 0.0
C2623 C 0.50889 0.53104 0.96704 0.0
C2624 C 0.51836 0.53275 0.92407 0.0
H2625 H 0.59508 0.49945 0.8678 0.0
H2626 H 0.57512 0.50164 0.89676 0.0
H2627 H 0.53059 0.54634 0.89923 0.0
H2628 H 0.47956 0.48575 0.9813 0.0
H2629 H 0.49321 0.48777 0.94885 0.0
H2630 H 0.5259 0.48569 0.93622 0.0
C2631 C 0.57002 0.50785 0.8837 0.0
C2632 C 0.52943 0.53298 0.90708 0.0
C2633 C 0.58153 0.50677 0.86713 0.0
C2634 C 0.48758 0.49857 0.97751 0.0
C2635 C 0.49547 0.49968 0.95895 0.0
C2636 C 0.52651 0.49894 0.92813 0.0
C2637 C 0.55204 0.51656 0.88338 0.0
C2638 C 0.5394 0.51627 0.90071 0.0
C2639 C 0.50656 0.51572 0.95366 0.0
C2640 C 0.51695 0.51577 0.93485 0.0
H2641 H 0.55244 0.52969 0.83649 0.0
H2642 H 0.53225 0.53162 0.86564 0.0
H2643 H 0.54491 0.48602 0.90655 0.0
H2644 H 0.50363 0.54169 0.99578 0.0
H2645 H 0.51751 0.54351 0.96344 0.0
C2646 C 0.73175 0.38384 0.10875 0.0
C2647 C 0.74285 0.37827 0.09256 0.0
C2648 C 0.72754 0.37042 0.12302 0.0
C2649 C 0.7466 0.32398 0.1406 0.0
H2650 H 0.70413 0.32853 0.17698 0.0
C2651 C 0.73684 0.27213 0.20336 0.0
C2652 C 0.73753 0.28189 0.22127 0.0
C2653 C 0.73382 0.28246 0.18669 0.0
C2654 C 0.71597 0.32708 0.1668 0.0
H2655 H 0.7569 0.35426 0.0775 0.0
H2656 H 0.74845 0.33045 0.10158 0.0
H2657 H 0.70497 0.3486 0.1484 0.0
H2658 H 0.73447 0.30986 0.23599 0.0
H2659 H 0.72881 0.32787 0.20675 0.0
H2660 H 0.75739 0.30229 0.15892 0.0
C2661 C 0.74381 0.34532 0.10399 0.0
C2662 C 0.71657 0.33864 0.15052 0.0
C2663 C 0.74851 0.35886 0.09007 0.0
C2664 C 0.73412 0.302 0.22235 0.0
C2665 C 0.73075 0.31227 0.2057 0.0
C2666 C 0.74576 0.31219 0.15658 0.0
C2667 C 0.73399 0.35107 0.12106 0.0
C2668 C 0.73209 0.33749 0.13736 0.0
C2669 C 0.73106 0.30263 0.18772 0.0
C2670 C 0.73063 0.31386 0.16996 0.0
H2671 H 0.72735 0.39882 0.11095 0.0
H2672 H 0.72012 0.37554 0.13598 0.0
H2673 H 0.75907 0.32295 0.13122 0.0
H2674 H 0.73942 0.25664 0.20209 0.0
H2675 H 0.73411 0.27477 0.17293 0.0
C2676 C 0.94096 0.52919 0.31323 0.0
C2677 C 0.92281 0.53749 0.31548 0.0
C2678 C 0.95312 0.52878 0.32864 0.0
C2679 C 0.95463 0.53125 0.38121 0.0
H2680 H 0.00684 0.54664 0.37171 0.0
C2681 C 0.00729 0.54374 0.44219 0.0
C2682 C 0.02612 0.53762 0.43883 0.0
C2683 C 0.99437 0.54316 0.42739 0.0
C2684 C 0.99238 0.54203 0.37455 0.0
H2685 H 0.90309 0.55166 0.33574 0.0
H2686 H 0.92442 0.55084 0.3628 0.0
H2687 H 0.98466 0.54674 0.34553 0.0
H2688 H 0.04604 0.52562 0.41751 0.0
H2689 H 0.02341 0.52437 0.39163 0.0
H2690 H 0.96239 0.5264 0.41022 0.0
C2691 C 0.92912 0.54458 0.34907 0.0
C2692 C 0.97968 0.54215 0.35957 0.0
C2693 C 0.91695 0.54509 0.33358 0.0
C2694 C 0.03169 0.53066 0.42043 0.0
C2695 C 0.01874 0.52999 0.40563 0.0
C2696 C 0.96738 0.53104 0.3962 0.0
C2697 C 0.9474 0.5366 0.34667 0.0
C2698 C 0.9607 0.53671 0.36273 0.0
C2699 C -3e-05 0.53638 0.40891 0.0
C2700 C 0.98641 0.5364 0.39302 0.0
H2701 H 0.9459 0.52314 0.29948 0.0
H2702 H 0.96703 0.52228 0.32645 0.0
H2703 H 0.94011 0.5268 0.38398 0.0
H2704 H 0.00265 0.5495 0.45613 0.0
H2705 H 0.98011 0.54849 0.43032 0.0
C2706 C 0.80465 0.6998 0.55617 0.0
C2707 C 0.79703 0.68181 0.55037 0.0
C2708 C 0.80074 0.70753 0.57459 0.0
C2709 C 0.78837 0.69298 0.62359 0.0
H2710 H 0.77751 0.74773 0.63211 0.0
C2711 C 0.77349 0.72652 0.69993 0.0
C2712 C 0.78023 0.7454 0.70361 0.0
C2713 C 0.77458 0.71836 0.6813 0.0
C2714 C 0.78078 0.73245 0.63005 0.0
H2715 H 0.77897 0.65805 0.55937 0.0
H2716 H 0.77228 0.67155 0.5917 0.0
H2717 H 0.78046 0.73456 0.59939 0.0
H2718 H 0.79392 0.77027 0.69068 0.0
H2719 H 0.79638 0.7559 0.6585 0.0
H2720 H 0.78925 0.69092 0.6542 0.0
C2721 C 0.7813 0.67961 0.58189 0.0
C2722 C 0.78236 0.7249 0.61126 0.0
C2723 C 0.78501 0.67197 0.56333 0.0
C2724 C 0.78848 0.75574 0.68834 0.0
C2725 C 0.78972 0.74753 0.6698 0.0
C2726 C 0.78697 0.70058 0.64242 0.0
C2727 C 0.78928 0.69739 0.58778 0.0
C2728 C 0.78634 0.70512 0.60779 0.0
C2729 C 0.78256 0.72884 0.66593 0.0
C2730 C 0.78335 0.72047 0.64591 0.0
H2731 H 0.81394 0.70779 0.54656 0.0
H2732 H 0.80722 0.72119 0.57872 0.0
H2733 H 0.79166 0.67772 0.62138 0.0
H2734 H 0.76694 0.71822 0.71134 0.0
H2735 H 0.76873 0.70402 0.67888 0.0
C2736 C 0.72809 0.61136 0.50551 0.0
C2737 C 0.73533 0.61884 0.48818 0.0
C2738 C 0.70986 0.60339 0.50655 0.0
C2739 C 0.67222 0.58318 0.47546 0.0
H2740 H 0.6406 0.58976 0.52158 0.0
C2741 C 0.59279 0.56183 0.47907 0.0
C2742 C 0.58633 0.55221 0.4956 0.0
C2743 C 0.61108 0.56966 0.47807 0.0
C2744 C 0.64933 0.58765 0.50866 0.0
H2745 H 0.72883 0.62431 0.4585 0.0
H2746 H 0.69698 0.61096 0.46045 0.0
H2747 H 0.67199 0.60448 0.52017 0.0
H2748 H 0.5941 0.54319 0.52401 0.0
H2749 H 0.62593 0.55689 0.52225 0.0
H2750 H 0.64938 0.56658 0.46388 0.0
C2751 C 0.70551 0.61072 0.47313 0.0
C2752 C 0.66737 0.59606 0.50785 0.0
C2753 C 0.72377 0.61853 0.47205 0.0
C2754 C 0.59862 0.55048 0.51104 0.0
C2755 C 0.61683 0.55845 0.5101 0.0
C2756 C 0.65413 0.57491 0.47622 0.0
C2757 C 0.69835 0.60285 0.49033 0.0
C2758 C 0.67908 0.59394 0.49124 0.0
C2759 C 0.62324 0.56821 0.49365 0.0
C2760 C 0.64249 0.57701 0.49283 0.0
H2761 H 0.73665 0.61129 0.51818 0.0
H2762 H 0.70496 0.59727 0.51999 0.0
H2763 H 0.68093 0.58088 0.46255 0.0
H2764 H 0.58368 0.56347 0.46694 0.0
H2765 H 0.61555 0.57723 0.46526 0.0
C2766 C 0.20292 0.905 0.53664 0.0
C2767 C 0.20197 0.89369 0.51967 0.0
C2768 C 0.19118 0.92118 0.53959 0.0
C2769 C 0.15903 0.95399 0.51381 0.0
H2770 H 0.13597 0.96276 0.56452 0.0
C2771 C 0.0869 0.98984 0.5279 0.0
C2772 C 0.08597 0.00573 0.5409 0.0
C2773 C 0.10341 0.97886 0.52576 0.0
C2774 C 0.14258 0.96066 0.55039 0.0
H2775 H 0.18751 0.88989 0.4928 0.0
H2776 H 0.1664 0.91753 0.49824 0.0
H2777 H 0.16049 0.93793 0.55981 0.0
H2778 H 0.10143 0.02254 0.56198 0.0
H2779 H 0.13035 0.00259 0.5587 0.0
H2780 H 0.14009 0.97588 0.50426 0.0
C2781 C 0.17678 0.91451 0.50896 0.0
C2782 C 0.15664 0.9465 0.54765 0.0
C2783 C 0.18869 0.8985 0.50593 0.0
C2784 C 0.10183 0.01034 0.55187 0.0
C2785 C 0.11829 -0.00098 0.55002 0.0
C2786 C 0.14478 0.9679 0.5165 0.0
C2787 C 0.17793 0.92611 0.52579 0.0
C2788 C 0.16468 0.94266 0.52921 0.0
C2789 C 0.11918 0.98332 0.53681 0.0
C2790 C 0.13619 0.97101 0.53471 0.0
H2791 H 0.21233 0.90109 0.54792 0.0
H2792 H 0.19243 0.92974 0.55272 0.0
H2793 H 0.16526 0.95179 0.49953 0.0
H2794 H 0.07495 0.98604 0.51914 0.0
H2795 H 0.10378 0.96667 0.51563 0.0
C2796 C 0.36832 0.98769 0.8191 0.0
C2797 C 0.37198 -0.0013 0.80265 0.0
C2798 C 0.36255 0.96835 0.81733 0.0
C2799 C 0.3351 0.93821 0.78576 0.0
H2800 H 0.35268 0.89509 0.81552 0.0
C2801 C 0.29008 0.87096 0.80335 0.0
C2802 C 0.29853 0.85278 0.79949 0.0
C2803 C 0.30074 0.88792 0.80184 0.0
C2804 C 0.34777 0.90699 0.80702 0.0
H2805 H 0.37342 0.99768 0.77141 0.0
H2806 H 0.36299 0.96405 0.76842 0.0
H2807 H 0.36969 0.92614 0.81665 0.0
H2808 H 0.32465 0.83795 0.79116 0.0
H2809 H 0.34354 0.86777 0.78897 0.0
H2810 H 0.31273 0.91938 0.77677 0.0
C2811 C 0.36464 0.97042 0.78265 0.0
C2812 C 0.35741 0.9247 0.80773 0.0
C2813 C 0.37068 0.98965 0.7844 0.0
C2814 C 0.31783 0.85184 0.79403 0.0
C2815 C 0.32861 0.86881 0.79291 0.0
C2816 C 0.32528 0.92065 0.78533 0.0
C2817 C 0.36009 0.95976 0.79908 0.0
C2818 C 0.35105 0.94049 0.79722 0.0
C2819 C 0.32012 0.88697 0.7968 0.0
C2820 C 0.33142 0.90497 0.79609 0.0
H2821 H 0.36929 0.99419 0.83336 0.0
H2822 H 0.35903 0.96043 0.83022 0.0
H2823 H 0.3298 0.95023 0.77768 0.0
H2824 H 0.2752 0.87201 0.80748 0.0
H2825 H 0.29393 0.90178 0.80501 0.0
C2826 C 0.34724 0.11027 0.0181 0.0
C2827 C 0.34498 0.12325 0.00301 0.0
C2828 C 0.36519 0.10295 0.0221 0.0
C2829 C 0.40992 0.09084 0.99786 0.0
H2830 H 0.43098 0.08922 0.04866 0.0
C2831 C 0.48625 0.06506 0.00792 0.0
C2832 C 0.49043 0.0545 0.02431 0.0
C2833 C 0.4686 0.0739 0.00625 0.0
C2834 C 0.4252 0.08926 0.03441 0.0
H2835 H 0.35983 0.13919 0.9807 0.0
H2836 H 0.39106 0.12615 0.98751 0.0
H2837 H 0.39995 0.10418 0.04447 0.0
H2838 H 0.47939 0.04497 0.05187 0.0
H2839 H 0.44818 0.05979 0.04866 0.0
H2840 H 0.43457 0.07541 0.98772 0.0
C2841 C 0.37895 0.12169 0.99623 0.0
C2842 C 0.40748 0.09795 0.03204 0.0
C2843 C 0.36109 0.12922 0.99242 0.0
C2844 C 0.47657 0.05304 0.03907 0.0
C2845 C 0.45873 0.06166 0.03727 0.0
C2846 C 0.42743 0.08191 0.00025 0.0
C2847 C 0.38113 0.10825 0.0109 0.0
C2848 C 0.39979 0.09898 0.01369 0.0
C2849 C 0.45448 0.07217 0.02078 0.0
C2850 C 0.43545 0.08117 0.01851 0.0
H2851 H 0.3351 0.10543 0.02654 0.0
H2852 H 0.36648 0.09256 0.03345 0.0
H2853 H 0.40413 0.09111 0.9836 0.0
H2854 H 0.49673 0.06673 0.99642 0.0
H2855 H 0.46613 0.08227 0.99357 0.0
C2856 C 0.64965 0.57212 0.83096 0.0
C2857 C 0.6404 0.56179 0.81634 0.0
C2858 C 0.65972 0.58899 0.82684 0.0
C2859 C 0.69114 0.61424 0.81165 0.0
H2860 H 0.6743 0.65415 0.77753 0.0
C2861 C 0.73078 0.68595 0.80533 0.0
C2862 C 0.73462 0.69295 0.78682 0.0
C2863 C 0.71824 0.67063 0.80811 0.0
C2864 C 0.67923 0.643 0.78692 0.0
H2865 H 0.63381 0.56162 0.78604 0.0
H2866 H 0.65163 0.59101 0.77885 0.0
H2867 H 0.65373 0.62636 0.78431 0.0
H2868 H 0.72777 0.68976 0.75677 0.0
H2869 H 0.70569 0.66274 0.76164 0.0
H2870 H 0.71655 0.63073 0.81434 0.0
C2871 C 0.65095 0.5861 0.79353 0.0
C2872 C 0.66748 0.62713 0.79082 0.0
C2873 C 0.64079 0.56921 0.79765 0.0
C2874 C 0.72507 0.68469 0.77119 0.0
C2875 C 0.71244 0.66926 0.77398 0.0
C2876 C 0.70282 0.63004 0.8078 0.0
C2877 C 0.66088 0.59591 0.808 0.0
C2878 C 0.67324 0.6127 0.80342 0.0
C2879 C 0.70919 0.66188 0.79245 0.0
C2880 C 0.69692 0.64472 0.79559 0.0
H2881 H 0.64948 0.56696 0.84555 0.0
H2882 H 0.66687 0.59648 0.83841 0.0
H2883 H 0.69624 0.60312 0.82099 0.0
H2884 H 0.73744 0.69234 0.81777 0.0
H2885 H 0.71566 0.66559 0.82257 0.0
C2886 C 0.80948 0.44815 0.04284 0.0
C2887 C 0.79273 0.45411 0.03425 0.0
C2888 C 0.8271 0.45368 0.03533 0.0
C2889 C 0.85127 0.49082 0.0078 0.0
H2890 H 0.89121 0.45211 0.00289 0.0
C2891 C 0.92784 0.5108 0.98441 0.0
C2892 C 0.94209 0.50282 0.99558 0.0
C2893 C 0.90921 0.50402 0.98593 0.0
C2894 C 0.88024 0.46311 0.00425 0.0
H2895 H 0.7813 0.47106 0.01134 0.0
H2896 H 0.81233 0.48106 0.99837 0.0
H2897 H 0.85906 0.44222 0.01179 0.0
H2898 H 0.94809 0.48085 0.01641 0.0
H2899 H 0.91566 0.46939 0.01944 0.0
H2900 H 0.87257 0.51183 0.00101 0.0
C2901 C 0.81169 0.4719 0.01081 0.0
C2902 C 0.86184 0.45744 0.0093 0.0
C2903 C 0.79397 0.46618 0.01824 0.0
C2904 C 0.93742 0.48752 0.00783 0.0
C2905 C 0.91884 0.48076 0.00936 0.0
C2906 C 0.86973 0.49653 0.00287 0.0
C2907 C 0.8284 0.46549 0.01919 0.0
C2908 C 0.84728 0.47129 0.01156 0.0
C2909 C 0.90447 0.48908 0.99861 0.0
C2910 C 0.88451 0.48279 0.00149 0.0
H2911 H 0.80907 0.43923 0.05544 0.0
H2912 H 0.83975 0.44889 0.04234 0.0
H2913 H 0.84031 0.5018 0.00956 0.0
H2914 H 0.93091 0.52269 0.97493 0.0
H2915 H 0.8985 0.5106 0.97732 0.0
C2916 C 0.31346 0.06048 0.77144 0.0
C2917 C 0.32049 0.06927 0.78817 0.0
C2918 C 0.29699 0.06749 0.76335 0.0
C2919 C 0.27798 0.0973 0.74001 0.0
H2920 H 0.24366 0.1331 0.76698 0.0
C2921 C 0.27091 0.17472 0.71918 0.0
C2922 C 0.25486 0.18584 0.72444 0.0
C2923 C 0.27134 0.15492 0.72274 0.0
C2924 C 0.25269 0.12286 0.75902 0.0
H2925 H 0.31504 0.09094 0.81061 0.0
H2926 H 0.28705 0.10402 0.79607 0.0
H2927 H 0.25685 0.10604 0.78401 0.0
H2928 H 0.22601 0.18471 0.73594 0.0
H2929 H 0.22679 0.14993 0.74224 0.0
H2930 H 0.27411 0.11437 0.71516 0.0
C2931 C 0.2937 0.09134 0.78931 0.0
C2932 C 0.26051 0.10747 0.7689 0.0
C2933 C 0.30989 0.08396 0.79767 0.0
C2934 C 0.23862 0.17648 0.73181 0.0
C2935 C 0.23909 0.1566 0.7355 0.0
C2936 C 0.2699 0.11245 0.73008 0.0
C2937 C 0.28762 0.08388 0.77148 0.0
C2938 C 0.27437 0.09541 0.75989 0.0
C2939 C 0.25574 0.14578 0.73171 0.0
C2940 C 0.25835 0.12625 0.73986 0.0
H2941 H 0.32126 0.04883 0.76406 0.0
H2942 H 0.2924 0.0609 0.75 0.0
H2943 H 0.28845 0.08835 0.73238 0.0
H2944 H 0.28358 0.18151 0.71334 0.0
H2945 H 0.28451 0.14718 0.71982 0.0
C2946 C 0.20383 0.94025 0.2889 0.0
C2947 C 0.20077 0.94862 0.30733 0.0
C2948 C 0.21848 0.92684 0.28544 0.0
C2949 C 0.26209 0.90624 0.30622 0.0
H2950 H 0.24737 0.85992 0.27779 0.0
C2951 C 0.29709 0.83085 0.31325 0.0
C2952 C 0.29764 0.81835 0.29702 0.0
C2953 C 0.28889 0.84929 0.31228 0.0
C2954 C 0.25191 0.87289 0.28543 0.0
H2955 H 0.2112 0.94995 0.3364 0.0
H2956 H 0.23636 0.92631 0.33046 0.0
H2957 H 0.226 0.88751 0.28001 0.0
H2958 H 0.29169 0.81599 0.26664 0.0
H2959 H 0.27773 0.8482 0.26489 0.0
H2960 H 0.28778 0.89112 0.31222 0.0
C2961 C 0.22767 0.93031 0.31858 0.0
C2962 C 0.23963 0.88875 0.2867 0.0
C2963 C 0.21311 0.94378 0.32202 0.0
C2964 C 0.29123 0.8252 0.27947 0.0
C2965 C 0.28316 0.84362 0.27848 0.0
C2966 C 0.27439 0.89028 0.305 0.0
C2967 C 0.23033 0.92142 0.30034 0.0
C2968 C 0.24441 0.9055 0.29736 0.0
C2969 C 0.28119 0.85555 0.29504 0.0
C2970 C 0.2693 0.87333 0.29481 0.0
H2971 H 0.19473 0.9438 0.27719 0.0
H2972 H 0.22034 0.92048 0.27114 0.0
H2973 H 0.2663 0.91904 0.31433 0.0
H2974 H 0.30191 0.82596 0.32698 0.0
H2975 H 0.28751 0.85811 0.32532 0.0
C2976 C 0.51226 0.33981 0.4106 0.0
C2977 C 0.49444 0.33295 0.41696 0.0
C2978 C 0.51876 0.35807 0.41666 0.0
C2979 C 0.51227 0.39489 0.45549 0.0
H2980 H 0.53642 0.42985 0.41944 0.0
C2981 C 0.53189 0.48091 0.45318 0.0
C2982 C 0.53922 0.48331 0.47167 0.0
C2983 C 0.52879 0.46229 0.44541 0.0
C2984 C 0.52969 0.42025 0.42966 0.0
H2985 H 0.4695 0.34006 0.4347 0.0
H2986 H 0.48087 0.37181 0.44524 0.0
H2987 H 0.52551 0.39796 0.40819 0.0
H2988 H 0.55028 0.468 0.49589 0.0
H2989 H 0.5451 0.43567 0.48224 0.0
H2990 H 0.51607 0.41718 0.47688 0.0
C2991 C 0.48987 0.363 0.43566 0.0
C2992 C 0.52358 0.40193 0.42326 0.0
C2993 C 0.48331 0.34481 0.42953 0.0
C2994 C 0.54449 0.46671 0.48167 0.0
C2995 C 0.54138 0.44815 0.47391 0.0
C2996 C 0.51847 0.41309 0.4619 0.0
C2997 C 0.50767 0.36984 0.42932 0.0
C2998 C 0.51467 0.38911 0.43609 0.0
C2999 C 0.53294 0.4457 0.45597 0.0
C3000 C 0.52719 0.42603 0.44907 0.0
H3001 H 0.52122 0.3311 0.4009 0.0
H3002 H 0.53262 0.36284 0.41165 0.0
H3003 H 0.50564 0.38528 0.46578 0.0
H3004 H 0.52761 0.49338 0.44513 0.0
H3005 H 0.52221 0.46091 0.43157 0.0
C3006 C 0.45354 0.81607 0.16994 0.0
C3007 C 0.47303 0.81301 0.17197 0.0
C3008 C 0.44075 0.81153 0.18478 0.0
C3009 C 0.43606 0.78127 0.22773 0.0
H3010 H 0.38974 0.81112 0.23556 0.0
C3011 C 0.37322 0.77024 0.28469 0.0
C3012 C 0.35643 0.76592 0.27504 0.0
C3013 C 0.38951 0.77582 0.2743 0.0
C3014 C 0.40273 0.8028 0.23361 0.0
H3015 H 0.4945 0.80351 0.19145 0.0
H3016 H 0.47218 0.79608 0.21756 0.0
H3017 H 0.41449 0.82283 0.21362 0.0
H3018 H 0.34383 0.76308 0.24696 0.0
H3019 H 0.37209 0.77315 0.2291 0.0
H3020 H 0.42396 0.76125 0.24786 0.0
C3021 C 0.46674 0.80151 0.20431 0.0
C3022 C 0.41681 0.80936 0.22096 0.0
C3023 C 0.47952 0.80588 0.18938 0.0
C3024 C 0.35648 0.76641 0.25486 0.0
C3025 C 0.37259 0.7722 0.2446 0.0
C3026 C 0.42202 0.77485 0.24064 0.0
C3027 C 0.44718 0.80408 0.2021 0.0
C3028 C 0.43339 0.79838 0.21741 0.0
C3029 C 0.38904 0.77732 0.25426 0.0
C3030 C 0.4051 0.78534 0.24322 0.0
H3031 H 0.44807 0.82173 0.15682 0.0
H3032 H 0.42576 0.81343 0.18244 0.0
H3033 H 0.44857 0.77236 0.22521 0.0
H3034 H 0.37358 0.76994 0.30023 0.0
H3035 H 0.40218 0.77971 0.28193 0.0
C3036 C 0.02101 0.7185 0.94141 0.0
C3037 C 0.00571 0.73131 0.94496 0.0
C3038 C 0.02401 0.70289 0.95351 0.0
C3039 C 0.99652 0.67203 0.98675 0.0
H3040 H 0.04535 0.64794 0.99431 0.0
C3041 C 0.00317 0.5916 0.0049 0.0
C3042 C 0.01718 0.58569 0.01751 0.0
C3043 C 0.0024 0.61074 0.99882 0.0
C3044 C 0.03161 0.65461 0.99258 0.0
H3045 H 0.98259 0.73872 0.96497 0.0
H3046 H 0.98817 0.71193 0.98635 0.0
H3047 H 0.04386 0.6798 0.97971 0.0
H3048 H 0.04129 0.59542 0.03378 0.0
H3049 H 0.0398 0.62906 0.02327 0.0
H3050 H 0.98425 0.64697 -0.00035 0.0
C3051 C 0.99747 0.71351 0.97386 0.0
C3052 C 0.03074 0.67279 0.984 0.0
C3053 C 0.99435 0.72898 0.96166 0.0
C3054 C 0.0303 0.59951 0.02409 0.0
C3055 C 0.02952 0.61875 0.01797 0.0
C3056 C 0.99739 0.65395 0.99537 0.0
C3057 C 0.01189 0.69983 0.96956 0.0
C3058 C 0.01315 0.68157 0.98063 0.0
C3059 C 0.01558 0.62458 0.0052 0.0
C3060 C 0.01491 0.64478 0.99799 0.0
H3061 H 0.03003 0.71983 0.92866 0.0
H3062 H 0.03518 0.69263 0.94962 0.0
H3063 H 0.98269 0.67814 0.98423 0.0
H3064 H 0.99289 0.58135 -0.00055 0.0
H3065 H 0.99169 0.61457 0.98872 0.0
C3066 C 0.04861 0.32674 0.66521 0.0
C3067 C 0.03471 0.335 0.67774 0.0
C3068 C 0.06677 0.32294 0.67165 0.0
C3069 C 0.10654 0.32151 0.68726 0.0
H3070 H 0.1059 0.29468 0.73567 0.0
C3071 C 0.17386 0.28813 0.71973 0.0
C3072 C 0.17161 0.26903 0.72623 0.0
C3073 C 0.15812 0.29908 0.7147 0.0
C3074 C 0.10632 0.30219 0.72216 0.0
H3075 H 0.02934 0.34695 0.70648 0.0
H3076 H 0.06112 0.34035 0.71771 0.0
H3077 H 0.07699 0.30978 0.72485 0.0
H3078 H 0.15095 0.24646 0.73209 0.0
H3079 H 0.12365 0.26557 0.72356 0.0
H3080 H 0.13575 0.31314 0.68427 0.0
C3081 C 0.05785 0.33657 0.70298 0.0
C3082 C 0.08982 0.31106 0.71606 0.0
C3083 C 0.03968 0.34041 0.69652 0.0
C3084 C 0.15325 0.2612 0.72754 0.0
C3085 C 0.13756 0.27217 0.72264 0.0
C3086 C 0.1231 0.31269 0.69342 0.0
C3087 C 0.07142 0.32731 0.69076 0.0
C3088 C 0.08962 0.32042 0.69834 0.0
C3089 C 0.1398 0.29122 0.7162 0.0
C3090 C 0.123 0.30253 0.7107 0.0
H3091 H 0.04528 0.32248 0.65061 0.0
H3092 H 0.07684 0.31564 0.66193 0.0
H3093 H 0.10685 0.32877 0.67362 0.0
H3094 H 0.18772 0.29475 0.71877 0.0
H3095 H 0.16024 0.31378 0.70988 0.0
C3096 C 0.50126 0.74737 0.1038 0.0
C3097 C 0.48554 0.75535 0.11391 0.0
C3098 C 0.50229 0.72741 0.09991 0.0
C3099 C 0.47241 0.68265 0.09933 0.0
H3100 H 0.52159 0.6577 0.09465 0.0
C3101 C 0.48111 0.6044 0.06913 0.0
C3102 C 0.49639 0.59323 0.07508 0.0
C3103 C 0.47927 0.62381 0.07516 0.0
C3104 C 0.50767 0.66425 0.09625 0.0
H3105 H 0.45884 0.74882 0.12842 0.0
H3106 H 0.46108 0.71391 0.12268 0.0
H3107 H 0.51962 0.69176 0.10351 0.0
H3108 H 0.52114 0.59292 0.09264 0.0
H3109 H 0.51741 0.6264 0.10425 0.0
H3110 H 0.46041 0.65485 0.09323 0.0
C3111 C 0.47228 0.723 0.11695 0.0
C3112 C 0.50656 0.68403 0.10096 0.0
C3113 C 0.47103 0.74302 0.1204 0.0
C3114 C 0.50937 0.60144 0.08775 0.0
C3115 C 0.50728 0.62067 0.09421 0.0
C3116 C 0.47349 0.66276 0.09509 0.0
C3117 C 0.48785 0.71491 0.1065 0.0
C3118 C 0.48894 0.6936 0.1023 0.0
C3119 C 0.49245 0.6323 0.08766 0.0
C3120 C 0.49115 0.6533 0.09324 0.0
H3121 H 0.51255 0.75661 0.09848 0.0
H3122 H 0.51429 0.72191 0.09143 0.0
H3123 H 0.45857 0.68945 0.09994 0.0
H3124 H 0.47107 0.59832 0.05918 0.0
H3125 H 0.46786 0.63226 0.06947 0.0
C3126 C 0.07816 0.77137 0.87089 0.0
C3127 C 0.06821 0.75377 0.86912 0.0
C3128 C 0.09682 0.77286 0.86378 0.0
C3129 C 0.12979 0.75003 0.82809 0.0
H3130 H 0.16858 0.77775 0.8559 0.0
C3131 C 0.20826 0.74677 0.8038 0.0
C3132 C 0.21896 0.76393 0.80501 0.0
C3133 C 0.18998 0.74599 0.8119 0.0
C3134 C 0.15785 0.77017 0.84784 0.0
H3135 H 0.07029 0.72379 0.85903 0.0
H3136 H 0.10282 0.72637 0.8468 0.0
H3137 H 0.13659 0.77537 0.86996 0.0
H3138 H 0.21882 0.79374 0.81573 0.0
H3139 H 0.18671 0.79245 0.82968 0.0
H3140 H 0.1509 0.74487 0.80595 0.0
C3141 C 0.09611 0.7391 0.85341 0.0
C3142 C 0.13953 0.76878 0.85592 0.0
C3143 C 0.07749 0.73759 0.86053 0.0
C3144 C 0.21095 0.7803 0.81455 0.0
C3145 C 0.1926 0.77952 0.82265 0.0
C3146 C 0.14804 0.75145 0.82001 0.0
C3147 C 0.10591 0.7568 0.85472 0.0
C3148 C 0.12534 0.75857 0.84618 0.0
C3149 C 0.18189 0.76236 0.82138 0.0
C3150 C 0.16234 0.76141 0.82983 0.0
H3151 H 0.07142 0.78411 0.87744 0.0
H3152 H 0.10395 0.78673 0.8649 0.0
H3153 H 0.11908 0.7424 0.82003 0.0
H3154 H 0.21405 0.73384 0.79667 0.0
H3155 H 0.18227 0.73244 0.81094 0.0
C3156 C 0.96789 0.35946 0.57513 0.0
C3157 C 0.9808 0.35295 0.58862 0.0
C3158 C 0.97309 0.37396 0.56232 0.0
C3159 C 0.01337 0.40234 0.54267 0.0
H3160 H 0.97949 0.44641 0.55051 0.0
C3161 C 0.02113 0.48876 0.54887 0.0
C3162 C 0.0297 0.4937 0.53122 0.0
C3163 C 0.01332 0.47038 0.55128 0.0
C3164 C 0.98893 0.43414 0.54796 0.0
H3165 H 0.00978 0.35522 0.59807 0.0
H3166 H 0.01882 0.38046 0.5757 0.0
H3167 H 0.96973 0.41453 0.56165 0.0
H3168 H 0.03681 0.48338 0.50222 0.0
H3169 H 0.02353 0.45088 0.50671 0.0
H3170 H 0.03292 0.42232 0.52978 0.0
C3171 C 0.00468 0.37442 0.57506 0.0
C3172 C 0.98331 0.41589 0.55417 0.0
C3173 C -0.00056 0.36009 0.588 0.0
C3174 C 0.03024 0.47994 0.51597 0.0
C3175 C 0.02271 0.4614 0.51852 0.0
C3176 C 0.0189 0.4206 0.53623 0.0
C3177 C 0.99135 0.38199 0.56261 0.0
C3178 C 0.99575 0.39998 0.55222 0.0
C3179 C 0.01417 0.45652 0.53619 0.0
C3180 C 0.00699 0.43675 0.5395 0.0
H3181 H 0.95344 0.35417 0.57517 0.0
H3182 H 0.9626 0.37949 0.55276 0.0
H3183 H 0.02316 0.39027 0.54094 0.0
H3184 H 0.02046 0.49908 0.56084 0.0
H3185 H 0.00702 0.46684 0.56513 0.0
C3186 C 0.43545 0.2755 0.36058 0.0
C3187 C 0.45277 0.28384 0.35473 0.0
C3188 C 0.42034 0.27459 0.3481 0.0
C3189 C 0.39835 0.2951 0.30704 0.0
H3190 H 0.38078 0.24267 0.29661 0.0
C3191 C 0.33773 0.28063 0.25484 0.0
C3192 C 0.32426 0.26673 0.26049 0.0
C3193 C 0.35494 0.28223 0.26422 0.0
C3194 C 0.38531 0.25744 0.29949 0.0
H3195 H 0.46741 0.29894 0.33171 0.0
H3196 H 0.44058 0.29786 0.31003 0.0
H3197 H 0.40687 0.24805 0.31828 0.0
H3198 H 0.3185 0.24319 0.27996 0.0
H3199 H 0.34807 0.24632 0.29667 0.0
H3200 H 0.37628 0.3047 0.28909 0.0
C3201 C 0.43895 0.29179 0.3242 0.0
C3202 C 0.40032 0.26047 0.31184 0.0
C3203 C 0.45424 0.2924 0.33659 0.0
C3204 C 0.32866 0.25394 0.27514 0.0
C3205 C 0.34572 0.25572 0.2847 0.0
C3206 C 0.38307 0.29212 0.29494 0.0
C3207 C 0.42212 0.28231 0.32966 0.0
C3208 C 0.40681 0.27932 0.31587 0.0
C3209 C 0.35894 0.27015 0.27964 0.0
C3210 C 0.3762 0.27324 0.29119 0.0
H3211 H 0.43384 0.26875 0.37444 0.0
H3212 H 0.40739 0.2674 0.35266 0.0
H3213 H 0.40314 0.30977 0.31001 0.0
H3214 H 0.33475 0.29066 0.24353 0.0
H3215 H 0.36492 0.29321 0.2596 0.0
C3216 C 0.38866 0.56029 0.31507 0.0
C3217 C 0.37036 0.5552 0.32158 0.0
C3218 C 0.40315 0.56312 0.32808 0.0
C3219 C 0.42984 0.57605 0.35935 0.0
H3220 H 0.4323 0.53855 0.39994 0.0
C3221 C 0.48523 0.58015 0.41914 0.0
C3222 C 0.49298 0.56251 0.42503 0.0
C3223 C 0.47033 0.58026 0.40633 0.0
C3224 C 0.4319 0.54904 0.38859 0.0
H3225 H 0.35256 0.55032 0.34689 0.0
H3226 H 0.37782 0.55546 0.36966 0.0
H3227 H 0.40583 0.53769 0.37829 0.0
H3228 H 0.49177 0.53121 0.42144 0.0
H3229 H 0.4659 0.53137 0.39897 0.0
H3230 H 0.45626 0.587 0.36935 0.0
C3231 C 0.38109 0.55679 0.35446 0.0
C3232 C 0.41657 0.54874 0.37636 0.0
C3233 C 0.36661 0.5539 0.34142 0.0
C3234 C 0.48587 0.54501 0.41743 0.0
C3235 C 0.47103 0.54511 0.40459 0.0
C3236 C 0.44521 0.57634 0.37159 0.0
C3237 C 0.39961 0.56102 0.3479 0.0
C3238 C 0.41541 0.56216 0.36152 0.0
C3239 C 0.46291 0.56273 0.39911 0.0
C3240 C 0.44647 0.56273 0.38626 0.0
H3241 H 0.392 0.56141 0.29985 0.0
H3242 H 0.41729 0.5662 0.32254 0.0
H3243 H 0.42928 0.58669 0.34815 0.0
H3244 H 0.49021 0.59387 0.42492 0.0
H3245 H 0.46426 0.59406 0.40255 0.0
C3246 C 0.30885 0.68947 0.07234 0.0
C3247 C 0.3144 0.67021 0.06824 0.0
C3248 C 0.31205 0.69796 0.09029 0.0
C3249 C 0.31372 0.68265 0.13966 0.0
H3250 H 0.32021 0.73777 0.14995 0.0
C3251 C 0.30219 0.71748 0.21552 0.0
C3252 C 0.2918 0.73493 0.21641 0.0
C3253 C 0.3085 0.70952 0.19785 0.0
C3254 C 0.31832 0.72235 0.14728 0.0
H3255 H 0.32892 0.64516 0.07908 0.0
H3256 H 0.33458 0.66008 0.11071 0.0
H3257 H 0.32765 0.72432 0.11786 0.0
H3258 H 0.2798 0.75764 0.1994 0.0
H3259 H 0.29046 0.74354 0.16851 0.0
H3260 H 0.30376 0.68077 0.16886 0.0
C3261 C 0.32767 0.66856 0.1 0.0
C3262 C 0.32268 0.71464 0.12896 0.0
C3263 C 0.32463 0.66009 0.08186 0.0
C3264 C 0.28761 0.7441 0.19921 0.0
C3265 C 0.29397 0.73617 0.18153 0.0
C3266 C 0.30939 0.69035 0.15799 0.0
C3267 C 0.32072 0.6873 0.10463 0.0
C3268 C 0.3199 0.6948 0.12479 0.0
C3269 C 0.30459 0.71886 0.18067 0.0
C3270 C 0.31113 0.71038 0.16184 0.0
H3271 H 0.30095 0.69757 0.06204 0.0
H3272 H 0.30637 0.71235 0.09339 0.0
H3273 H 0.31113 0.66737 0.13687 0.0
H3274 H 0.30547 0.70996 0.22851 0.0
H3275 H 0.31666 0.69619 0.19767 0.0
C3276 C 0.12189 0.4864 0.85116 0.0
C3277 C 0.13975 0.47738 0.8503 0.0
C3278 C 0.11412 0.49315 0.86864 0.0
C3279 C 0.11634 0.48722 0.92079 0.0
H3280 H 0.08688 0.53487 0.92159 0.0
C3281 C 0.07677 0.51826 0.98886 0.0
C3282 C 0.05741 0.52152 0.98591 0.0
C3283 C 0.0892 0.51466 0.97322 0.0
C3284 C 0.09514 0.5216 0.92156 0.0
H3285 H 0.16329 0.46793 0.86721 0.0
H3286 H 0.14981 0.48012 0.89784 0.0
H3287 H 0.10474 0.52507 0.89249 0.0
H3288 H 0.03595 0.52414 0.96439 0.0
H3289 H 0.05772 0.51813 0.93711 0.0
H3290 H 0.10649 0.48377 0.94991 0.0
C3291 C 0.14182 0.48186 0.88493 0.0
C3292 C 0.10528 0.51592 0.90492 0.0
C3293 C 0.14958 0.47498 0.86737 0.0
C3294 C 0.05078 0.5216 0.96709 0.0
C3295 C 0.06324 0.51829 0.95149 0.0
C3296 C 0.10633 0.49302 0.93753 0.0
C3297 C 0.12406 0.49115 0.88569 0.0
C3298 C 0.11549 0.49837 0.90416 0.0
C3299 C 0.0825 0.51463 0.95444 0.0
C3300 C 0.09523 0.50996 0.93783 0.0
H3301 H 0.11386 0.48833 0.8383 0.0
H3302 H 0.10018 0.49977 0.8688 0.0
H3303 H 0.12398 0.47357 0.92061 0.0
H3304 H 0.08225 0.51812 0.00325 0.0
H3305 H 0.10402 0.51189 0.97579 0.0
C3306 C 0.26932 0.34356 0.54708 0.0
C3307 C 0.28763 0.34138 0.53878 0.0
C3308 C 0.26295 0.33122 0.56164 0.0
C3309 C 0.27418 0.28473 0.5858 0.0
H3310 H 0.24821 0.3093 0.62974 0.0
C3311 C 0.24165 0.2651 0.66654 0.0
C3312 C 0.25747 0.25549 0.67376 0.0
C3313 C 0.24264 0.27346 0.64837 0.0
C3314 C 0.25516 0.30211 0.61747 0.0
H3315 H 0.3133 0.32397 0.53895 0.0
H3316 H 0.30239 0.30286 0.56435 0.0
H3317 H 0.25478 0.32796 0.60101 0.0
H3318 H 0.28638 0.24635 0.66716 0.0
H3319 H 0.28801 0.26069 0.63549 0.0
H3320 H 0.2752 0.2591 0.60265 0.0
C3321 C 0.29277 0.31388 0.55949 0.0
C3322 C 0.25892 0.31282 0.60093 0.0
C3323 C 0.29911 0.32613 0.54494 0.0
C3324 C 0.27394 0.25363 0.66203 0.0
C3325 C 0.27484 0.26179 0.64382 0.0
C3326 C 0.27054 0.27408 0.60238 0.0
C3327 C 0.27472 0.31642 0.56828 0.0
C3328 C 0.26883 0.30439 0.58501 0.0
C3329 C 0.25937 0.27219 0.63694 0.0
C3330 C 0.2613 0.28275 0.61855 0.0
H3331 H 0.26005 0.35508 0.54267 0.0
H3332 H 0.24885 0.33344 0.56785 0.0
H3333 H 0.28148 0.27761 0.5737 0.0
H3334 H 0.22878 0.26687 0.67525 0.0
H3335 H 0.23042 0.28124 0.6434 0.0
C3336 C 0.35015 0.51756 0.21526 0.0
C3337 C 0.35061 0.53654 0.2231 0.0
C3338 C 0.36136 0.51251 0.19902 0.0
C3339 C 0.39127 0.53348 0.15972 0.0
H3340 H 0.41849 0.4846 0.16186 0.0
C3341 C 0.45731 0.51899 0.11272 0.0
C3342 C 0.45642 0.50233 0.10074 0.0
C3343 C 0.44462 0.52148 0.12827 0.0
C3344 C 0.41089 0.49822 0.16107 0.0
H3345 H 0.36233 0.56535 0.21939 0.0
H3346 H 0.38201 0.55654 0.19147 0.0
H3347 H 0.39405 0.49263 0.18636 0.0
H3348 H 0.44265 0.47442 0.09676 0.0
H3349 H 0.42068 0.4787 0.12434 0.0
H3350 H 0.40857 0.53931 0.1348 0.0
C3351 C 0.37289 0.54554 0.19761 0.0
C3352 C 0.3968 0.50279 0.17497 0.0
C3353 C 0.36162 0.5506 0.21373 0.0
C3354 C 0.44369 0.48743 0.1057 0.0
C3355 C 0.43108 0.48988 0.12144 0.0
C3356 C 0.40549 0.52903 0.14602 0.0
C3357 C 0.37328 0.52632 0.19034 0.0
C3358 C 0.38698 0.5206 0.1746 0.0
C3359 C 0.43093 0.50729 0.13232 0.0
C3360 C 0.4156 0.51149 0.14672 0.0
H3361 H 0.34173 0.50639 0.22209 0.0
H3362 H 0.36102 0.49767 0.19356 0.0
H3363 H 0.38374 0.54711 0.15871 0.0
H3364 H 0.467 0.5307 0.10939 0.0
H3365 H 0.44498 0.53489 0.1367 0.0
C3366 C 0.31408 0.67622 0.96732 0.0
C3367 C 0.29696 0.6784 0.97798 0.0
C3368 C 0.31732 0.68674 0.95063 0.0
C3369 C 0.31274 0.69805 0.90924 0.0
H3370 H 0.29206 0.74957 0.90261 0.0
C3371 C 0.2892 0.72482 0.83636 0.0
C3372 C 0.29079 0.74462 0.83224 0.0
C3373 C 0.29418 0.7181 0.85429 0.0
C3374 C 0.29826 0.73533 0.90422 0.0
H3375 H 0.2702 0.694 0.97993 0.0
H3376 H 0.27565 0.71193 0.9507 0.0
H3377 H 0.29369 0.73657 0.93472 0.0
H3378 H 0.29967 0.77277 0.8433 0.0
H3379 H 0.30867 0.76095 0.87452 0.0
H3380 H 0.31726 0.69679 0.87873 0.0
C3381 C 0.28673 0.70235 0.95534 0.0
C3382 C 0.29897 0.72778 0.92262 0.0
C3383 C 0.28353 0.69193 0.97205 0.0
C3384 C 0.29811 0.75745 0.84614 0.0
C3385 C 0.30322 0.7507 0.86403 0.0
C3386 C 0.31215 0.70565 0.89085 0.0
C3387 C 0.30349 0.69959 0.94423 0.0
C3388 C 0.30565 0.70883 0.92526 0.0
C3389 C 0.30099 0.73101 0.86843 0.0
C3390 C 0.30434 0.72412 0.88808 0.0
H3391 H 0.32484 0.66608 0.97161 0.0
H3392 H 0.33051 0.68452 0.94254 0.0
H3393 H 0.31788 0.68336 0.91073 0.0
H3394 H 0.28358 0.71459 0.82594 0.0
H3395 H 0.292 0.7029 0.85729 0.0
C3396 C 0.14658 0.48771 0.73447 0.0
C3397 C 0.14445 0.46819 0.73954 0.0
C3398 C 0.13873 0.4945 0.71773 0.0
C3399 C 0.10082 0.48333 0.68391 0.0
H3400 H 0.12498 0.52412 0.65461 0.0
C3401 C 0.07021 0.51472 0.61458 0.0
C3402 C 0.07016 0.53507 0.61358 0.0
C3403 C 0.07951 0.50551 0.62932 0.0
C3404 C 0.11804 0.5128 0.66274 0.0
H3405 H 0.13312 0.44028 0.73059 0.0
H3406 H 0.11971 0.45209 0.70105 0.0
H3407 H 0.14192 0.50921 0.68054 0.0
H3408 H 0.07969 0.56174 0.62726 0.0
H3409 H 0.09594 0.54566 0.65305 0.0
H3410 H 0.07696 0.48696 0.66593 0.0
C3411 C 0.12711 0.46222 0.71028 0.0
C3412 C 0.12772 0.50426 0.67759 0.0
C3413 C 0.1349 0.45543 0.72713 0.0
C3414 C 0.07935 0.54605 0.62777 0.0
C3415 C 0.08882 0.53685 0.64238 0.0
C3416 C 0.09121 0.49177 0.66892 0.0
C3417 C 0.12867 0.48192 0.70556 0.0
C3418 C 0.11911 0.48966 0.68858 0.0
C3419 C 0.08912 0.51649 0.6432 0.0
C3420 C 0.09962 0.5068 0.65841 0.0
H3421 H 0.15383 0.49795 0.74372 0.0
H3422 H 0.13998 0.50981 0.71472 0.0
H3423 H 0.09365 0.47232 0.69224 0.0
H3424 H 0.0631 0.50593 0.60391 0.0
H3425 H 0.07956 0.48979 0.6296 0.0
C3426 C 0.30109 0.3423 0.44059 0.0
C3427 C 0.29559 0.36104 0.44702 0.0
C3428 C 0.29551 0.33499 0.42271 0.0
C3429 C 0.28391 0.34908 0.37474 0.0
H3430 H 0.2591 0.29907 0.37054 0.0
C3431 C 0.2634 0.31701 0.30048 0.0
C3432 C 0.26484 0.29679 0.29766 0.0
C3433 C 0.26493 0.32544 0.3189 0.0
C3434 C 0.26629 0.31292 0.37131 0.0
H3435 H 0.28002 0.38683 0.43957 0.0
H3436 H 0.27081 0.37422 0.40791 0.0
H3437 H 0.26661 0.31245 0.40213 0.0
H3438 H 0.269 0.26957 0.31203 0.0
H3439 H 0.27248 0.28413 0.34376 0.0
H3440 H 0.28464 0.34926 0.34403 0.0
C3441 C 0.27922 0.36516 0.41694 0.0
C3442 C 0.27044 0.32063 0.38949 0.0
C3443 C 0.28442 0.37232 0.43507 0.0
C3444 C 0.26758 0.28519 0.3137 0.0
C3445 C 0.26947 0.29361 0.33202 0.0
C3446 C 0.28014 0.34119 0.3565 0.0
C3447 C 0.28466 0.34639 0.41063 0.0
C3448 C 0.27938 0.33873 0.39138 0.0
C3449 C 0.26833 0.3139 0.33495 0.0
C3450 C 0.27139 0.32288 0.35447 0.0
H3451 H 0.30962 0.33321 0.44947 0.0
H3452 H 0.29999 0.32052 0.41814 0.0
H3453 H 0.29096 0.363 0.3758 0.0
H3454 H 0.26126 0.32636 0.28842 0.0
H3455 H 0.26354 0.34104 0.32048 0.0
C3456 C 0.35929 0.41503 0.50259 0.0
C3457 C 0.34359 0.42222 0.49297 0.0
C3458 C 0.37624 0.42553 0.50302 0.0
C3459 C 0.4038 0.46433 0.47971 0.0
H3460 H 0.42419 0.47283 0.53037 0.0
C3461 C 0.4653 0.51813 0.49212 0.0
C3462 C 0.47919 0.51282 0.50512 0.0
C3463 C 0.44842 0.50759 0.49081 0.0
C3464 C 0.41891 0.47042 0.51606 0.0
H3465 H 0.33373 0.44554 0.47534 0.0
H3466 H 0.36345 0.46366 0.47576 0.0
H3467 H 0.39647 0.45225 0.52653 0.0
H3468 H 0.48605 0.49239 0.52716 0.0
H3469 H 0.45698 0.4738 0.52461 0.0
H3470 H 0.42641 0.48214 0.46911 0.0
C3471 C 0.36259 0.44997 0.4831 0.0
C3472 C 0.40297 0.45861 0.51388 0.0
C3473 C 0.34556 0.43959 0.48287 0.0
C3474 C 0.47558 0.49703 0.51713 0.0
C3475 C 0.45882 0.48637 0.51568 0.0
C3476 C 0.4199 0.47597 0.48184 0.0
C3477 C 0.37794 0.44333 0.49362 0.0
C3478 C 0.39523 0.45544 0.49569 0.0
C3479 C 0.44509 0.49131 0.50232 0.0
C3480 C 0.42768 0.47921 0.50007 0.0
H3481 H 0.35824 0.40172 0.51055 0.0
H3482 H 0.38791 0.41992 0.51103 0.0
H3483 H 0.39822 0.46206 0.4655 0.0
H3484 H 0.46762 0.53023 0.48266 0.0
H3485 H 0.43805 0.51213 0.48064 0.0
C3486 C 0.84886 0.10712 0.55401 0.0
C3487 C 0.84389 0.12496 0.54625 0.0
C3488 C 0.86737 0.10389 0.55973 0.0
C3489 C 0.91477 0.12109 0.54608 0.0
H3490 H 0.92992 0.08082 0.58056 0.0
C3491 C 0.99044 0.08812 0.54551 0.0
C3492 C 0.99026 0.06778 0.54337 0.0
C3493 C 0.97366 0.09827 0.54993 0.0
C3494 C 0.92589 0.09223 0.57101 0.0
H3495 H 0.85341 0.15426 0.54084 0.0
H3496 H 0.88558 0.14888 0.55133 0.0
H3497 H 0.89785 0.09417 0.58337 0.0
H3498 H 0.97247 0.04211 0.54427 0.0
H3499 H 0.94329 0.05983 0.55195 0.0
H3500 H 0.94269 0.11874 0.53344 0.0
C3501 C 0.8755 0.13707 0.55222 0.0
C3502 C 0.90755 0.09983 0.57256 0.0
C3503 C 0.85708 0.14017 0.54619 0.0
C3504 C 0.97304 0.0578 0.54565 0.0
C3505 C 0.95639 0.06789 0.55033 0.0
C3506 C 0.93316 0.11367 0.54471 0.0
C3507 C 0.88113 0.11859 0.55807 0.0
C3508 C 0.90153 0.11375 0.55957 0.0
C3509 C 0.95656 0.08818 0.55259 0.0
C3510 C 0.93859 0.09863 0.55663 0.0
H3511 H 0.83889 0.09518 0.55424 0.0
H3512 H 0.87117 0.08942 0.56404 0.0
H3513 H 0.91064 0.1316 0.53564 0.0
H3514 H 0.00354 0.09616 0.5439 0.0
H3515 H 0.97407 0.11394 0.55151 0.0
C3516 C 0.66438 0.02659 0.28266 0.0
C3517 C 0.66779 0.02247 0.30197 0.0
C3518 C 0.66871 0.04483 0.27535 0.0
C3519 C 0.67879 0.0956 0.28997 0.0
H3520 H 0.70741 0.09702 0.24163 0.0
C3521 C 0.72342 0.16126 0.2688 0.0
C3522 C 0.72322 0.16748 0.2497 0.0
C3523 C 0.71468 0.14398 0.27399 0.0
C3524 C 0.69916 0.0969 0.25498 0.0
H3525 H 0.67793 0.03453 0.32887 0.0
H3526 H 0.68555 0.06624 0.31609 0.0
H3527 H 0.69513 0.06613 0.25309 0.0
H3528 H 0.71384 0.16023 0.22104 0.0
H3529 H 0.6986 0.12975 0.23015 0.0
H3530 H 0.68316 0.12627 0.29208 0.0
C3531 C 0.67939 0.05541 0.30664 0.0
C3532 C 0.69212 0.07921 0.26154 0.0
C3533 C 0.67513 0.03718 0.31393 0.0
C3534 C 0.71434 0.15577 0.23583 0.0
C3535 C 0.70559 0.13837 0.24104 0.0
C3536 C 0.68581 0.11324 0.28341 0.0
C3537 C 0.67643 0.05937 0.28722 0.0
C3538 C 0.6822 0.07834 0.27931 0.0
C3539 C 0.70555 0.13241 0.26023 0.0
C3540 C 0.69642 0.11401 0.26606 0.0
H3541 H 0.65869 0.01563 0.27304 0.0
H3542 H 0.66608 0.04753 0.26039 0.0
H3543 H 0.67088 0.09543 0.30353 0.0
H3544 H 0.73055 0.16963 0.27977 0.0
H3545 H 0.71532 0.13954 0.28879 0.0
C3546 C 0.72581 0.92744 0.00956 0.0
C3547 C 0.73414 0.92216 0.0268 0.0
C3548 C 0.70846 0.93728 0.00987 0.0
C3549 C 0.66594 0.94868 0.04029 0.0
H3550 H 0.66178 0.99281 0.00702 0.0
C3551 C 0.60195 0.00138 0.04543 0.0
C3552 C 0.59458 0.00728 0.02793 0.0
C3553 C 0.61915 0.99126 0.04571 0.0
C3554 C 0.66262 0.98041 0.01626 0.0
H3555 H 0.73045 0.92249 0.05786 0.0
H3556 H 0.70021 0.93965 0.05838 0.0
H3557 H 0.6909 0.97375 0.00635 0.0
H3558 H 0.5996 0.00735 0.99702 0.0
H3559 H 0.62937 0.98962 0.99751 0.0
H3560 H 0.6376 0.9553 0.05013 0.0
C3561 C 0.70705 0.93614 0.04462 0.0
C3562 C 0.67931 0.96947 0.01585 0.0
C3563 C 0.72444 0.92637 0.04431 0.0
C3564 C 0.6049 0.00311 0.01077 0.0
C3565 C 0.62205 0.993 0.01106 0.0
C3566 C 0.64921 0.95961 0.04066 0.0
C3567 C 0.69901 0.94197 0.02742 0.0
C3568 C 0.68115 0.95344 0.02781 0.0
C3569 C 0.62933 0.98684 0.0285 0.0
C3570 C 0.64732 0.97557 0.0286 0.0
H3571 H 0.73287 0.92436 0.99581 0.0
H3572 H 0.70247 0.9413 0.99636 0.0
H3573 H 0.66685 0.9363 0.04955 0.0
H3574 H 0.59434 0.00437 0.05891 0.0
H3575 H 0.62449 0.98694 0.05942 0.0
C3576 C 0.37663 0.47692 0.27543 0.0
C3577 C 0.36767 0.4775 0.29374 0.0
C3578 C 0.38003 0.45918 0.26589 0.0
C3579 C 0.37261 0.40557 0.26988 0.0
H3580 H 0.34417 0.41281 0.22364 0.0
C3581 C 0.31239 0.35654 0.24913 0.0
C3582 C 0.30937 0.35122 0.22986 0.0
C3583 C 0.32674 0.36942 0.25389 0.0
C3584 C 0.35257 0.41041 0.23617 0.0
H3585 H 0.35798 0.46007 0.31758 0.0
H3586 H 0.36347 0.42921 0.3009 0.0
H3587 H 0.35976 0.44035 0.23856 0.0
H3588 H 0.31889 0.35557 0.2004 0.0
H3589 H 0.34378 0.37888 0.20877 0.0
H3590 H 0.36397 0.37582 0.26818 0.0
C3591 C 0.36797 0.44232 0.2938 0.0
C3592 C 0.36162 0.42622 0.24475 0.0
C3593 C 0.36473 0.46008 0.30342 0.0
C3594 C 0.32077 0.35952 0.21535 0.0
C3595 C 0.33513 0.37265 0.22014 0.0
C3596 C 0.36351 0.38977 0.2613 0.0
C3597 C 0.37435 0.44178 0.27444 0.0
C3598 C 0.37075 0.42421 0.26235 0.0
C3599 C 0.33836 0.37751 0.2395 0.0
C3600 C 0.35247 0.39234 0.24503 0.0
H3601 H 0.37946 0.49019 0.26779 0.0
H3602 H 0.38546 0.4592 0.25118 0.0
H3603 H 0.37988 0.40348 0.28318 0.0
H3604 H 0.30358 0.3508 0.26063 0.0
H3605 H 0.32844 0.37341 0.26889 0.0
C3606 C 0.20828 0.66635 0.06736 0.0
C3607 C 0.22122 0.66617 0.05168 0.0
C3608 C 0.19564 0.65101 0.06991 0.0
C3609 C 0.17108 0.61411 0.04169 0.0
H3610 H 0.15449 0.59585 0.09172 0.0
C3611 C 0.11327 0.55676 0.07555 0.0
C3612 C 0.09747 0.56228 0.06505 0.0
C3613 C 0.13008 0.5675 0.07448 0.0
C3614 C 0.15914 0.60062 0.07764 0.0
H3615 H 0.23099 0.64994 0.02627 0.0
H3616 H 0.20921 0.62288 0.03096 0.0
H3617 H 0.18192 0.61738 0.08911 0.0
H3618 H 0.08667 0.58394 0.04597 0.0
H3619 H 0.11584 0.60245 0.04402 0.0
H3620 H 0.14821 0.59761 0.03023 0.0
C3621 C 0.20887 0.63487 0.04131 0.0
C3622 C 0.17472 0.61306 0.07616 0.0
C3623 C 0.22152 0.65023 0.03876 0.0
C3624 C 0.0987 0.57897 0.05384 0.0
C3625 C 0.11543 0.5896 0.05272 0.0
C3626 C 0.15551 0.60175 0.04318 0.0
C3627 C 0.19558 0.63525 0.05674 0.0
C3628 C 0.18061 0.62023 0.0582 0.0
C3629 C 0.13136 0.58389 0.06284 0.0
C3630 C 0.14911 0.59525 0.06121 0.0
H3631 H 0.20771 0.67852 0.07749 0.0
H3632 H 0.18539 0.6519 0.08178 0.0
H3633 H 0.17513 0.6195 0.02767 0.0
H3634 H 0.11282 0.54391 0.08421 0.0
H3635 H 0.14217 0.56276 0.08241 0.0
C3636 C 0.71663 0.93541 0.28372 0.0
C3637 C 0.71349 0.94291 0.30248 0.0
C3638 C 0.73226 0.92356 0.27937 0.0
C3639 C 0.76638 0.89774 0.27263 0.0
H3640 H 0.76291 0.85771 0.31085 0.0
C3641 C 0.78818 0.81706 0.25782 0.0
C3642 C 0.77233 0.80507 0.26098 0.0
C3643 C 0.78801 0.83634 0.26465 0.0
C3644 C 0.76439 0.86889 0.30021 0.0
H3645 H 0.7256 0.94589 0.33073 0.0
H3646 H 0.75292 0.92514 0.32309 0.0
H3647 H 0.75125 0.89014 0.31887 0.0
H3648 H 0.74416 0.80359 0.27413 0.0
H3649 H 0.74399 0.83697 0.28621 0.0
H3650 H 0.77806 0.87572 0.2535 0.0
C3651 C 0.74307 0.92816 0.31186 0.0
C3652 C 0.75787 0.88756 0.30482 0.0
C3653 C 0.7274 0.94004 0.31623 0.0
C3654 C 0.75654 0.81251 0.27139 0.0
C3655 C 0.75652 0.83154 0.27848 0.0
C3656 C 0.77298 0.87901 0.26804 0.0
C3657 C 0.7451 0.91896 0.29368 0.0
C3658 C 0.75772 0.90186 0.29072 0.0
C3659 C 0.77218 0.84366 0.27511 0.0
C3660 C 0.77096 0.86421 0.28147 0.0
H3661 H 0.70638 0.93761 0.27267 0.0
H3662 H 0.73328 0.91667 0.26524 0.0
H3663 H 0.76672 0.90856 0.26158 0.0
H3664 H 0.80054 0.81166 0.24981 0.0
H3665 H 0.80017 0.84551 0.26178 0.0
C3666 C 0.80956 0.09935 0.75173 0.0
C3667 C 0.81165 0.08631 0.76672 0.0
C3668 C 0.79308 0.11046 0.75069 0.0
C3669 C 0.75793 0.13067 0.78537 0.0
H3670 H 0.746 0.161 0.74109 0.0
C3671 C 0.74759 0.212 0.79098 0.0
C3672 C 0.73711 0.22189 0.77742 0.0
C3673 C 0.74927 0.19184 0.78988 0.0
C3674 C 0.74868 0.1525 0.75363 0.0
H3675 H 0.79723 0.07255 0.79068 0.0
H3676 H 0.76808 0.09126 0.78836 0.0
H3677 H 0.76123 0.12958 0.73639 0.0
H3678 H 0.71901 0.21832 0.75288 0.0
H3679 H 0.72164 0.18301 0.7512 0.0
H3680 H 0.74543 0.15359 0.80259 0.0
C3681 C 0.77947 0.09366 0.77794 0.0
C3682 C 0.75769 0.13453 0.75092 0.0
C3683 C 0.79613 0.08285 0.77922 0.0
C3684 C 0.72737 0.21111 0.76344 0.0
C3685 C 0.72892 0.19088 0.76243 0.0
C3686 C 0.74861 0.14843 0.78805 0.0
C3687 C 0.77822 0.10849 0.76444 0.0
C3688 C 0.76356 0.12401 0.7668 0.0
C3689 C 0.74035 0.18105 0.77529 0.0
C3690 C 0.74501 0.16012 0.77228 0.0
H3691 H 0.82126 0.10227 0.74182 0.0
H3692 H 0.79283 0.12172 0.74012 0.0
H3693 H 0.76209 0.12309 0.79804 0.0
H3694 H 0.75526 0.21988 0.80194 0.0
H3695 H 0.75847 0.18489 0.79985 0.0
loop_
_geom_bond_atom_site_label_1
_geom_bond_atom_site_label_2
_geom_bond_distance
_geom_bond_site_symmetry_2
_ccdc_geom_bond_type
Mg0 O1 2.028 . S
Mg0 O7 1.986 . S
Mg0 O9 2.114 . S
Mg0 O10 2.251 1_455 S
Mg0 O13 2.010 . S
O1 Mg0 2.028 . S
O1 C4 1.250 . S
O2 Mg3 2.028 1_455 S
O2 C4 1.248 . S
Mg3 O2 2.028 1_655 S
Mg3 O8 2.032 1_655 S
Mg3 O10 2.079 . S
C4 O1 1.250 . S
C4 O2 1.248 . S
C5 O6 1.264 . S
C5 O13 1.249 . S
O6 C5 1.264 . S
O7 Mg0 1.986 . S
O7 C11 1.246 . S
O8 Mg3 2.032 1_455 S
O8 C11 1.259 . S
O9 Mg0 2.114 . S
O9 C12 1.252 1_455 S
O10 Mg0 2.251 1_655 S
O10 Mg3 2.079 . S
O10 C12 1.273 . S
C11 O7 1.246 . S
C11 O8 1.259 . S
C12 O9 1.252 1_655 S
C12 O10 1.273 . S
O13 Mg0 2.010 . S
O13 C5 1.249 . S
Mg14 O15 2.028 . S
Mg14 O21 1.986 . S
Mg14 O23 2.114 . S
Mg14 O24 2.251 . S
Mg14 O27 2.010 . S
O15 Mg14 2.028 . S
O15 C18 1.250 . S
O16 Mg17 2.028 . S
O16 C18 1.248 . S
Mg17 O16 2.028 . S
Mg17 O22 2.032 . S
Mg17 O24 2.079 . S
C18 O15 1.250 . S
C18 O16 1.248 . S
C19 O20 1.264 . S
C19 O27 1.249 . S
O20 C19 1.264 . S
O21 Mg14 1.986 . S
O21 C25 1.246 . S
O22 Mg17 2.032 . S
O22 C25 1.259 . S
O23 Mg14 2.114 . S
O23 C26 1.252 . S
O24 Mg14 2.251 . S
O24 Mg17 2.079 . S
O24 C26 1.273 . S
C25 O21 1.246 . S
C25 O22 1.259 . S
C26 O23 1.252 . S
C26 O24 1.273 . S
O27 Mg14 2.010 . S
O27 C19 1.249 . S
Mg28 O29 2.028 . S
Mg28 O35 1.986 . S
Mg28 O37 2.114 . S
Mg28 O38 2.251 . S
Mg28 O41 2.010 . S
O29 Mg28 2.028 . S
O29 C32 1.250 . S
O30 Mg31 2.028 . S
O30 C32 1.248 . S
Mg31 O30 2.028 . S
Mg31 O36 2.032 . S
Mg31 O38 2.079 . S
C32 O29 1.250 . S
C32 O30 1.248 . S
C33 O34 1.264 . S
C33 O41 1.249 . S
O34 C33 1.264 . S
O35 Mg28 1.986 . S
O35 C39 1.246 . S
O36 Mg31 2.032 . S
O36 C39 1.259 . S
O37 Mg28 2.114 . S
O37 C40 1.252 . S
O38 Mg28 2.251 . S
O38 Mg31 2.079 . S
O38 C40 1.273 . S
C39 O35 1.246 . S
C39 O36 1.259 . S
C40 O37 1.252 . S
C40 O38 1.273 . S
O41 Mg28 2.010 . S
O41 C33 1.249 . S
Mg42 O43 2.028 . S
Mg42 O49 1.986 . S
Mg42 O51 2.114 . S
Mg42 O52 2.251 . S
Mg42 O55 2.010 . S
O43 Mg42 2.028 . S
O43 C46 1.250 . S
O44 Mg45 2.028 . S
O44 C46 1.248 . S
Mg45 O44 2.028 . S
Mg45 O50 2.032 . S
Mg45 O52 2.079 . S
C46 O43 1.250 . S
C46 O44 1.248 . S
C47 O48 1.264 . S
C47 O55 1.249 . S
O48 C47 1.264 . S
O49 Mg42 1.986 . S
O49 C53 1.246 . S
O50 Mg45 2.032 . S
O50 C53 1.259 . S
O51 Mg42 2.114 . S
O51 C54 1.252 . S
O52 Mg42 2.251 . S
O52 Mg45 2.079 . S
O52 C54 1.273 . S
C53 O49 1.246 . S
C53 O50 1.259 . S
C54 O51 1.252 . S
C54 O52 1.273 . S
O55 Mg42 2.010 . S
O55 C47 1.249 . S
Mg56 O57 2.028 1_565 S
Mg56 O63 1.986 . S
Mg56 O65 2.114 1_565 S
Mg56 O66 2.251 . S
Mg56 O69 2.010 . S
O57 Mg56 2.028 1_545 S
O57 C60 1.250 . S
O58 Mg59 2.028 . S
O58 C60 1.248 . S
Mg59 O58 2.028 . S
Mg59 O64 2.032 1_545 S
Mg59 O66 2.079 1_545 S
C60 O57 1.250 . S
C60 O58 1.248 . S
C61 O62 1.264 . S
C61 O69 1.249 . S
O62 C61 1.264 . S
O63 Mg56 1.986 . S
O63 C67 1.246 . S
O64 Mg59 2.032 1_565 S
O64 C67 1.259 . S
O65 Mg56 2.114 1_545 S
O65 C68 1.252 . S
O66 Mg56 2.251 . S
O66 Mg59 2.079 1_565 S
O66 C68 1.273 1_565 S
C67 O63 1.246 . S
C67 O64 1.259 . S
C68 O65 1.252 . S
C68 O66 1.273 1_545 S
O69 Mg56 2.010 . S
O69 C61 1.249 . S
Mg70 O71 2.028 . S
Mg70 O77 1.986 . S
Mg70 O79 2.114 . S
Mg70 O80 2.251 . S
Mg70 O83 2.010 . S
O71 Mg70 2.028 . S
O71 C74 1.250 . S
O72 Mg73 2.028 . S
O72 C74 1.248 . S
Mg73 O72 2.028 . S
Mg73 O78 2.032 . S
Mg73 O80 2.079 . S
C74 O71 1.250 . S
C74 O72 1.248 . S
C75 O76 1.264 . S
C75 O83 1.249 . S
O76 C75 1.264 . S
O77 Mg70 1.986 . S
O77 C81 1.246 . S
O78 Mg73 2.032 . S
O78 C81 1.259 . S
O79 Mg70 2.114 . S
O79 C82 1.252 . S
O80 Mg70 2.251 . S
O80 Mg73 2.079 . S
O80 C82 1.273 . S
C81 O77 1.246 . S
C81 O78 1.259 . S
C82 O79 1.252 . S
C82 O80 1.273 . S
O83 Mg70 2.010 . S
O83 C75 1.249 . S
Mg84 O85 2.028 . S
Mg84 O91 1.986 . S
Mg84 O93 2.114 . S
Mg84 O94 2.251 . S
Mg84 O97 2.010 . S
O85 Mg84 2.028 . S
O85 C88 1.250 . S
O86 Mg87 2.028 . S
O86 C88 1.248 . S
Mg87 O86 2.028 . S
Mg87 O92 2.032 . S
Mg87 O94 2.079 . S
C88 O85 1.250 . S
C88 O86 1.248 . S
C89 O90 1.264 . S
C89 O97 1.249 . S
O90 C89 1.264 . S
O91 Mg84 1.986 . S
O91 C95 1.246 . S
O92 Mg87 2.032 . S
O92 C95 1.259 . S
O93 Mg84 2.114 . S
O93 C96 1.252 . S
O94 Mg84 2.251 . S
O94 Mg87 2.079 . S
O94 C96 1.273 . S
C95 O91 1.246 . S
C95 O92 1.259 . S
C96 O93 1.252 . S
C96 O94 1.273 . S
O97 Mg84 2.010 . S
O97 C89 1.249 . S
Mg98 O99 2.028 . S
Mg98 O105 1.986 . S
Mg98 O107 2.114 . S
Mg98 O108 2.251 . S
Mg98 O111 2.010 . S
O99 Mg98 2.028 . S
O99 C102 1.250 . S
O100 Mg101 2.028 . S
O100 C102 1.248 . S
Mg101 O100 2.028 . S
Mg101 O106 2.032 . S
Mg101 O108 2.079 . S
C102 O99 1.250 . S
C102 O100 1.248 . S
C103 O104 1.264 . S
C103 O111 1.249 . S
O104 C103 1.264 . S
O105 Mg98 1.986 . S
O105 C109 1.246 1_554 S
O106 Mg101 2.032 . S
O106 C109 1.259 1_554 S
O107 Mg98 2.114 . S
O107 C110 1.252 . S
O108 Mg98 2.251 . S
O108 Mg101 2.079 . S
O108 C110 1.273 . S
C109 O105 1.246 1_556 S
C109 O106 1.259 1_556 S
C110 O107 1.252 . S
C110 O108 1.273 . S
O111 Mg98 2.010 . S
O111 C103 1.249 . S
Mg112 O113 2.028 . S
Mg112 O119 1.986 . S
Mg112 O121 2.114 . S
Mg112 O122 2.251 . S
Mg112 O125 2.010 . S
O113 Mg112 2.028 . S
O113 C116 1.250 . S
O114 Mg115 2.028 . S
O114 C116 1.248 . S
Mg115 O114 2.028 . S
Mg115 O120 2.032 . S
Mg115 O122 2.079 . S
C116 O113 1.250 . S
C116 O114 1.248 . S
C117 O118 1.264 . S
C117 O125 1.249 . S
O118 C117 1.264 . S
O119 Mg112 1.986 . S
O119 C123 1.246 . S
O120 Mg115 2.032 . S
O120 C123 1.259 . S
O121 Mg112 2.114 . S
O121 C124 1.252 . S
O122 Mg112 2.251 . S
O122 Mg115 2.079 . S
O122 C124 1.273 . S
C123 O119 1.246 . S
C123 O120 1.259 . S
C124 O121 1.252 . S
C124 O122 1.273 . S
O125 Mg112 2.010 . S
O125 C117 1.249 . S
Mg126 O127 2.028 . S
Mg126 O133 1.986 . S
Mg126 O135 2.114 . S
Mg126 O136 2.251 . S
Mg126 O139 2.010 . S
O127 Mg126 2.028 . S
O127 C130 1.250 . S
O128 Mg129 2.028 . S
O128 C130 1.248 . S
Mg129 O128 2.028 . S
Mg129 O134 2.032 . S
Mg129 O136 2.079 . S
C130 O127 1.250 . S
C130 O128 1.248 . S
C131 O132 1.264 . S
C131 O139 1.249 . S
O132 C131 1.264 . S
O133 Mg126 1.986 . S
O133 C137 1.246 . S
O134 Mg129 2.032 . S
O134 C137 1.259 . S
O135 Mg126 2.114 . S
O135 C138 1.252 . S
O136 Mg126 2.251 . S
O136 Mg129 2.079 . S
O136 C138 1.273 . S
C137 O133 1.246 . S
C137 O134 1.259 . S
C138 O135 1.252 . S
C138 O136 1.273 . S
O139 Mg126 2.010 . S
O139 C131 1.249 . S
Mg140 O141 2.028 . S
Mg140 O147 1.986 . S
Mg140 O149 2.114 . S
Mg140 O150 2.251 . S
Mg140 O153 2.010 . S
O141 Mg140 2.028 . S
O141 C144 1.250 . S
O142 Mg143 2.028 . S
O142 C144 1.248 . S
Mg143 O142 2.028 . S
Mg143 O148 2.032 . S
Mg143 O150 2.079 . S
C144 O141 1.250 . S
C144 O142 1.248 . S
C145 O146 1.264 . S
C145 O153 1.249 . S
O146 C145 1.264 . S
O147 Mg140 1.986 . S
O147 C151 1.246 . S
O148 Mg143 2.032 . S
O148 C151 1.259 . S
O149 Mg140 2.114 . S
O149 C152 1.252 . S
O150 Mg140 2.251 . S
O150 Mg143 2.079 . S
O150 C152 1.273 . S
C151 O147 1.246 . S
C151 O148 1.259 . S
C152 O149 1.252 . S
C152 O150 1.273 . S
O153 Mg140 2.010 . S
O153 C145 1.249 . S
Mg154 O155 2.028 . S
Mg154 O161 1.986 . S
Mg154 O163 2.114 . S
Mg154 O164 2.251 . S
Mg154 O167 2.010 . S
O155 Mg154 2.028 . S
O155 C158 1.250 . S
O156 Mg157 2.028 . S
O156 C158 1.248 . S
Mg157 O156 2.028 . S
Mg157 O162 2.032 . S
Mg157 O164 2.079 . S
C158 O155 1.250 . S
C158 O156 1.248 . S
C159 O160 1.264 . S
C159 O167 1.249 . S
O160 C159 1.264 . S
O161 Mg154 1.986 . S
O161 C165 1.246 . S
O162 Mg157 2.032 . S
O162 C165 1.259 . S
O163 Mg154 2.114 . S
O163 C166 1.252 . S
O164 Mg154 2.251 . S
O164 Mg157 2.079 . S
O164 C166 1.273 . S
C165 O161 1.246 . S
C165 O162 1.259 . S
C166 O163 1.252 . S
C166 O164 1.273 . S
O167 Mg154 2.010 . S
O167 C159 1.249 . S
Mg168 O169 2.028 . S
Mg168 O175 1.986 . S
Mg168 O177 2.114 . S
Mg168 O178 2.251 1_455 S
Mg168 O181 2.010 . S
O169 Mg168 2.028 . S
O169 C172 1.250 . S
O170 Mg171 2.028 . S
O170 C172 1.248 1_655 S
Mg171 O170 2.028 . S
Mg171 O176 2.072 . S
Mg171 O178 2.079 . S
C172 O169 1.250 . S
C172 O170 1.248 1_455 S
C173 O174 1.264 . S
C173 O181 1.249 . S
O174 C173 1.264 . S
O175 Mg168 1.986 . S
O175 C179 1.246 . S
O176 Mg171 2.072 . S
O176 C179 1.209 1_655 S
O177 Mg168 2.114 . S
O177 C180 1.252 1_455 S
O178 Mg168 2.251 1_655 S
O178 Mg171 2.079 . S
O178 C180 1.273 . S
C179 O175 1.246 . S
C179 O176 1.209 1_455 S
C180 O177 1.252 1_655 S
C180 O178 1.273 . S
O181 Mg168 2.010 . S
O181 C173 1.249 . S
Mg182 O183 2.028 . S
Mg182 O189 1.986 . S
Mg182 O191 2.114 1_455 S
Mg182 O192 2.251 1_455 S
Mg182 O195 2.010 . S
O183 Mg182 2.028 . S
O183 C186 1.250 1_455 S
O184 Mg185 2.028 . S
O184 C186 1.248 . S
Mg185 O184 2.028 . S
Mg185 O190 2.032 . S
Mg185 O192 2.079 . S
C186 O183 1.250 1_655 S
C186 O184 1.248 . S
C187 O188 1.264 . S
C187 O195 1.249 . S
O188 C187 1.264 . S
O189 Mg182 1.986 . S
O189 C193 1.246 1_455 S
O190 Mg185 2.032 . S
O190 C193 1.259 . S
O191 Mg182 2.114 1_655 S
O191 C194 1.252 . S
O192 Mg182 2.251 1_655 S
O192 Mg185 2.079 . S
O192 C194 1.273 . S
C193 O189 1.246 1_655 S
C193 O190 1.259 . S
C194 O191 1.252 . S
C194 O192 1.273 . S
O195 Mg182 2.010 . S
O195 C187 1.249 . S
Mg196 O197 2.028 . S
Mg196 O203 1.986 . S
Mg196 O205 2.114 . S
Mg196 O206 2.251 . S
Mg196 O209 2.010 . S
O197 Mg196 2.028 . S
O197 C200 1.250 . S
O198 Mg199 2.028 . S
O198 C200 1.248 . S
Mg199 O198 2.028 . S
Mg199 O204 2.032 . S
Mg199 O206 2.079 . S
C200 O197 1.250 . S
C200 O198 1.248 . S
C201 O202 1.264 . S
C201 O209 1.249 . S
O202 C201 1.264 . S
O203 Mg196 1.986 . S
O203 C207 1.246 . S
O204 Mg199 2.032 . S
O204 C207 1.259 . S
O205 Mg196 2.114 . S
O205 C208 1.252 . S
O206 Mg196 2.251 . S
O206 Mg199 2.079 . S
O206 C208 1.273 . S
C207 O203 1.246 . S
C207 O204 1.259 . S
C208 O205 1.252 . S
C208 O206 1.273 . S
O209 Mg196 2.010 . S
O209 C201 1.249 . S
Mg210 O211 2.028 . S
Mg210 O217 1.986 . S
Mg210 O219 2.114 . S
Mg210 O220 2.251 . S
Mg210 O223 2.010 . S
O211 Mg210 2.028 . S
O211 C214 1.250 . S
O212 Mg213 2.028 . S
O212 C214 1.248 . S
Mg213 O212 2.028 . S
Mg213 O218 2.032 . S
Mg213 O220 2.079 . S
C214 O211 1.250 . S
C214 O212 1.248 . S
C215 O216 1.264 . S
C215 O223 1.249 . S
O216 C215 1.264 . S
O217 Mg210 1.986 . S
O217 C221 1.246 . S
O218 Mg213 2.032 . S
O218 C221 1.259 . S
O219 Mg210 2.114 . S
O219 C222 1.252 . S
O220 Mg210 2.251 . S
O220 Mg213 2.079 . S
O220 C222 1.273 . S
C221 O217 1.246 . S
C221 O218 1.259 . S
C222 O219 1.252 . S
C222 O220 1.273 . S
O223 Mg210 2.010 . S
O223 C215 1.249 . S
Mg224 O225 2.028 . S
Mg224 O231 1.986 . S
Mg224 O233 2.114 . S
Mg224 O234 2.251 . S
Mg224 O237 2.010 . S
O225 Mg224 2.028 . S
O225 C228 1.250 . S
O226 Mg227 2.028 . S
O226 C228 1.248 . S
Mg227 O226 2.028 . S
Mg227 O232 2.032 . S
Mg227 O234 2.079 . S
C228 O225 1.250 . S
C228 O226 1.248 . S
C229 O230 1.264 . S
C229 O237 1.249 . S
O230 C229 1.264 . S
O231 Mg224 1.986 . S
O231 C235 1.246 . S
O232 Mg227 2.032 . S
O232 C235 1.259 . S
O233 Mg224 2.114 . S
O233 C236 1.252 . S
O234 Mg224 2.251 . S
O234 Mg227 2.079 . S
O234 C236 1.273 . S
C235 O231 1.246 . S
C235 O232 1.259 . S
C236 O233 1.252 . S
C236 O234 1.273 . S
O237 Mg224 2.010 . S
O237 C229 1.249 . S
Mg238 O239 2.028 . S
Mg238 O245 1.986 . S
Mg238 O247 2.114 . S
Mg238 O248 2.251 . S
Mg238 O251 2.010 . S
O239 Mg238 2.028 . S
O239 C242 1.250 . S
O240 Mg241 2.028 . S
O240 C242 1.248 . S
Mg241 O240 2.028 . S
Mg241 O246 2.032 . S
Mg241 O248 2.079 . S
C242 O239 1.250 . S
C242 O240 1.248 . S
C243 O244 1.264 . S
C243 O251 1.249 . S
O244 C243 1.264 . S
O245 Mg238 1.986 . S
O245 C249 1.246 . S
O246 Mg241 2.032 . S
O246 C249 1.259 . S
O247 Mg238 2.114 . S
O247 C250 1.252 . S
O248 Mg238 2.251 . S
O248 Mg241 2.079 . S
O248 C250 1.273 . S
C249 O245 1.246 . S
C249 O246 1.259 . S
C250 O247 1.252 . S
C250 O248 1.273 . S
O251 Mg238 2.010 . S
O251 C243 1.249 . S
Mg252 O253 2.028 1_565 S
Mg252 O259 1.986 . S
Mg252 O261 2.114 1_565 S
Mg252 O262 2.254 . S
Mg252 O265 2.010 . S
O253 Mg252 2.028 1_545 S
O253 C256 1.250 . S
O254 Mg255 2.028 . S
O254 C256 1.248 . S
Mg255 O254 2.028 . S
Mg255 O260 2.032 1_545 S
Mg255 O262 2.074 1_545 S
C256 O253 1.250 . S
C256 O254 1.248 . S
C257 O258 1.294 . S
C257 O265 1.261 . S
O258 C257 1.294 . S
O259 Mg252 1.986 . S
O259 C263 1.246 . S
O260 Mg255 2.032 1_565 S
O260 C263 1.259 . S
O261 Mg252 2.114 1_545 S
O261 C264 1.252 . S
O262 Mg252 2.254 . S
O262 Mg255 2.074 1_565 S
O262 C264 1.255 1_565 S
C263 O259 1.246 . S
C263 O260 1.259 . S
C264 O261 1.252 . S
C264 O262 1.255 1_545 S
O265 Mg252 2.010 . S
O265 C257 1.261 . S
Mg266 O267 2.028 . S
Mg266 O273 1.986 . S
Mg266 O275 2.114 . S
Mg266 O276 2.251 . S
Mg266 O279 2.010 . S
O267 Mg266 2.028 . S
O267 C270 1.250 1_554 S
O268 Mg269 2.032 . S
O268 C270 1.246 1_554 S
Mg269 O268 2.032 . S
Mg269 O274 2.032 . S
Mg269 O276 2.079 . S
C270 O267 1.250 1_556 S
C270 O268 1.246 1_556 S
C271 O272 1.264 . S
C271 O279 1.249 . S
O272 C271 1.264 . S
O273 Mg266 1.986 . S
O273 C277 1.246 . S
O274 Mg269 2.032 . S
O274 C277 1.259 . S
O275 Mg266 2.114 . S
O275 C278 1.252 . S
O276 Mg266 2.251 . S
O276 Mg269 2.079 . S
O276 C278 1.273 . S
C277 O273 1.246 . S
C277 O274 1.259 . S
C278 O275 1.252 . S
C278 O276 1.273 . S
O279 Mg266 2.010 . S
O279 C271 1.249 . S
Mg280 O281 2.028 1_556 S
Mg280 O287 1.986 . S
Mg280 O289 2.114 1_556 S
Mg280 O290 2.251 . S
Mg280 O293 2.010 . S
O281 Mg280 2.028 1_554 S
O281 C284 1.250 . S
O282 Mg283 2.028 1_554 S
O282 C284 1.248 . S
Mg283 O282 2.028 1_556 S
Mg283 O288 2.032 . S
Mg283 O290 2.079 . S
C284 O281 1.250 . S
C284 O282 1.248 . S
C285 O286 1.264 . S
C285 O293 1.249 . S
O286 C285 1.264 . S
O287 Mg280 1.986 . S
O287 C291 1.246 . S
O288 Mg283 2.032 . S
O288 C291 1.259 . S
O289 Mg280 2.114 1_554 S
O289 C292 1.266 . S
O290 Mg280 2.251 . S
O290 Mg283 2.079 . S
O290 C292 1.254 1_556 S
C291 O287 1.246 . S
C291 O288 1.259 . S
C292 O289 1.266 . S
C292 O290 1.254 1_554 S
O293 Mg280 2.010 . S
O293 C285 1.249 . S
Mg294 O295 2.028 . S
Mg294 O301 1.986 . S
Mg294 O303 2.114 . S
Mg294 O304 2.251 . S
Mg294 O307 2.010 . S
O295 Mg294 2.028 . S
O295 C298 1.250 . S
O296 Mg297 2.028 . S
O296 C298 1.248 . S
Mg297 O296 2.028 . S
Mg297 O302 2.032 . S
Mg297 O304 2.079 . S
C298 O295 1.250 . S
C298 O296 1.248 . S
C299 O300 1.264 . S
C299 O307 1.249 . S
O300 C299 1.264 . S
O301 Mg294 1.986 . S
O301 C305 1.246 . S
O302 Mg297 2.032 . S
O302 C305 1.259 . S
O303 Mg294 2.114 . S
O303 C306 1.252 . S
O304 Mg294 2.251 . S
O304 Mg297 2.079 . S
O304 C306 1.273 . S
C305 O301 1.246 . S
C305 O302 1.259 . S
C306 O303 1.252 . S
C306 O304 1.273 . S
O307 Mg294 2.010 . S
O307 C299 1.249 . S
Mg308 O309 2.028 . S
Mg308 O315 1.986 . S
Mg308 O317 2.114 . S
Mg308 O318 2.251 . S
Mg308 O321 2.010 . S
O309 Mg308 2.028 . S
O309 C312 1.250 . S
O310 Mg311 2.028 . S
O310 C312 1.248 . S
Mg311 O310 2.028 . S
Mg311 O316 2.032 . S
Mg311 O318 2.079 . S
C312 O309 1.250 . S
C312 O310 1.248 . S
C313 O314 1.264 . S
C313 O321 1.249 . S
O314 C313 1.264 . S
O315 Mg308 1.986 . S
O315 C319 1.246 . S
O316 Mg311 2.032 . S
O316 C319 1.259 . S
O317 Mg308 2.114 . S
O317 C320 1.252 . S
O318 Mg308 2.251 . S
O318 Mg311 2.079 . S
O318 C320 1.273 . S
C319 O315 1.246 . S
C319 O316 1.259 . S
C320 O317 1.252 . S
C320 O318 1.273 . S
O321 Mg308 2.010 . S
O321 C313 1.249 . S
Mg322 O323 2.028 . S
Mg322 O329 1.986 . S
Mg322 O331 2.114 . S
Mg322 O332 2.251 . S
Mg322 O335 2.010 . S
O323 Mg322 2.028 . S
O323 C326 1.250 . S
O324 Mg325 2.028 . S
O324 C326 1.248 . S
Mg325 O324 2.028 . S
Mg325 O330 2.032 . S
Mg325 O332 2.079 . S
C326 O323 1.250 . S
C326 O324 1.248 . S
C327 O328 1.264 . S
C327 O335 1.249 . S
O328 C327 1.264 . S
O329 Mg322 1.986 . S
O329 C333 1.246 . S
O330 Mg325 2.032 . S
O330 C333 1.259 . S
O331 Mg322 2.114 . S
O331 C334 1.252 . S
O332 Mg322 2.251 . S
O332 Mg325 2.079 . S
O332 C334 1.273 . S
C333 O329 1.246 . S
C333 O330 1.259 . S
C334 O331 1.252 . S
C334 O332 1.273 . S
O335 Mg322 2.010 . S
O335 C327 1.249 . S
Co336 N341 2.057 1_554 S
Co336 O353 2.021 1_554 S
Co336 O356 2.062 1_455 S
Co336 O360 2.117 . S
Co336 O361 2.020 . S
C337 O357 1.259 . S
C337 O360 1.258 . S
Co338 N347 2.057 . S
Co338 O354 2.117 1_545 S
Co338 O355 2.020 1_455 S
Co338 O357 2.021 . S
Co338 O362 2.062 . S
C339 N341 1.316 1_655 S
C339 N342 1.347 . S
C339 H344 0.931 . S
C340 N341 1.375 1_655 S
C340 C343 1.350 . S
C340 H345 0.930 . S
N341 Co336 2.057 1_556 S
N341 C339 1.316 1_455 S
N341 C340 1.375 1_455 S
N342 C339 1.347 . S
N342 C343 1.373 . S
C343 C340 1.350 . S
C343 N342 1.373 . S
C343 H364 0.931 . S
H344 C339 0.931 . S
H345 C340 0.930 . S
C346 O353 1.259 1_564 S
C346 O354 1.258 . S
N347 Co338 2.057 . S
N347 C348 1.316 . S
N347 C349 1.375 1_545 S
C348 N347 1.316 . S
C348 N350 1.347 . S
C348 H359 0.931 . S
C349 N347 1.375 1_565 S
C349 C351 1.350 . S
C349 H358 0.930 . S
N350 C348 1.347 . S
N350 C351 1.373 1_545 S
C351 C349 1.350 . S
C351 N350 1.373 1_565 S
C351 H365 0.931 . S
C352 O355 1.256 . S
C352 O356 1.255 . S
O353 Co336 2.021 1_556 S
O353 C346 1.259 1_546 S
O354 Co338 2.117 1_565 S
O354 C346 1.258 . S
O355 Co338 2.020 1_655 S
O355 C352 1.256 . S
O356 Co336 2.062 1_655 S
O356 C352 1.255 . S
O357 C337 1.259 . S
O357 Co338 2.021 . S
H358 C349 0.930 . S
H359 C348 0.931 . S
O360 Co336 2.117 . S
O360 C337 1.258 . S
O361 Co336 2.020 . S
O361 C363 1.256 . S
O362 Co338 2.062 . S
O362 C363 1.255 . S
C363 O361 1.256 . S
C363 O362 1.255 . S
H364 C343 0.931 . S
H365 C351 0.931 . S
Co366 N371 2.057 . S
Co366 O383 2.021 . S
Co366 O386 2.062 . S
Co366 O390 2.117 . S
Co366 O391 2.020 . S
C367 O387 1.259 . S
C367 O390 1.258 . S
Co368 N377 2.057 . S
Co368 O384 2.117 . S
Co368 O385 2.020 . S
Co368 O387 2.021 . S
Co368 O392 2.062 . S
C369 N371 1.316 . S
C369 N372 1.347 . S
C369 H374 0.931 . S
C370 N371 1.375 . S
C370 C373 1.350 . S
C370 H375 0.930 . S
N371 Co366 2.057 . S
N371 C369 1.316 . S
N371 C370 1.375 . S
N372 C369 1.347 . S
N372 C373 1.373 . S
C373 C370 1.350 . S
C373 N372 1.373 . S
C373 H394 0.931 . S
H374 C369 0.931 . S
H375 C370 0.930 . S
C376 O383 1.259 . S
C376 O384 1.258 . S
N377 Co368 2.057 . S
N377 C378 1.316 . S
N377 C379 1.375 . S
C378 N377 1.316 . S
C378 N380 1.347 . S
C378 H389 0.931 . S
C379 N377 1.375 . S
C379 C381 1.350 . S
C379 H388 0.930 . S
N380 C378 1.347 . S
N380 C381 1.373 . S
C381 C379 1.350 . S
C381 N380 1.373 . S
C381 H395 0.931 . S
C382 O385 1.256 . S
C382 O386 1.255 . S
O383 Co366 2.021 . S
O383 C376 1.259 . S
O384 Co368 2.117 . S
O384 C376 1.258 . S
O385 Co368 2.020 . S
O385 C382 1.256 . S
O386 Co366 2.062 . S
O386 C382 1.255 . S
O387 C367 1.259 . S
O387 Co368 2.021 . S
H388 C379 0.930 . S
H389 C378 0.931 . S
O390 Co366 2.117 . S
O390 C367 1.258 . S
O391 Co366 2.020 . S
O391 C393 1.256 . S
O392 Co368 2.062 . S
O392 C393 1.255 . S
C393 O391 1.256 . S
C393 O392 1.255 . S
H394 C373 0.931 . S
H395 C381 0.931 . S
Co396 N401 2.057 . S
Co396 O413 2.021 1_545 S
Co396 O416 2.062 . S
Co396 O420 2.117 . S
Co396 O421 2.020 . S
C397 O417 1.259 . S
C397 O420 1.258 . S
Co398 N407 2.057 . S
Co398 O414 2.117 . S
Co398 O415 2.020 . S
Co398 O417 2.021 . S
Co398 O422 2.062 . S
C399 N401 1.316 1_565 S
C399 N402 1.347 . S
C399 H404 0.931 . S
C400 N401 1.375 . S
C400 C403 1.350 . S
C400 H405 0.930 . S
N401 Co396 2.057 . S
N401 C399 1.316 1_545 S
N401 C400 1.375 . S
N402 C399 1.347 . S
N402 C403 1.373 1_565 S
C403 C400 1.350 . S
C403 N402 1.373 1_545 S
C403 H424 0.931 . S
H404 C399 0.931 . S
H405 C400 0.930 . S
C406 O413 1.259 . S
C406 O414 1.258 1_565 S
N407 Co398 2.057 . S
N407 C408 1.316 . S
N407 C409 1.375 . S
C408 N407 1.316 . S
C408 N410 1.347 . S
C408 H419 0.931 . S
C409 N407 1.375 . S
C409 C411 1.350 . S
C409 H418 0.930 . S
N410 C408 1.347 . S
N410 C411 1.373 . S
C411 C409 1.350 . S
C411 N410 1.373 . S
C411 H425 0.931 . S
C412 O415 1.256 . S
C412 O416 1.255 . S
O413 Co396 2.021 1_565 S
O413 C406 1.259 . S
O414 Co398 2.117 . S
O414 C406 1.258 1_545 S
O415 Co398 2.020 . S
O415 C412 1.256 . S
O416 Co396 2.062 . S
O416 C412 1.255 . S
O417 C397 1.259 . S
O417 Co398 2.021 . S
H418 C409 0.930 . S
H419 C408 0.931 . S
O420 Co396 2.117 . S
O420 C397 1.258 . S
O421 Co396 2.020 . S
O421 C423 1.256 . S
O422 Co398 2.062 . S
O422 C423 1.255 . S
C423 O421 1.256 . S
C423 O422 1.255 . S
H424 C403 0.931 . S
H425 C411 0.931 . S
Co426 N431 2.057 . S
Co426 O443 2.021 . S
Co426 O446 2.062 . S
Co426 O450 2.117 . S
Co426 O451 2.020 . S
C427 O447 1.259 . S
C427 O450 1.258 . S
Co428 N437 2.057 . S
Co428 O444 2.117 . S
Co428 O445 2.020 . S
Co428 O447 2.021 . S
Co428 O452 2.062 . S
C429 N431 1.316 . S
C429 N432 1.347 . S
C429 H434 0.931 . S
C430 N431 1.375 . S
C430 C433 1.350 . S
C430 H435 0.930 . S
N431 Co426 2.057 . S
N431 C429 1.316 . S
N431 C430 1.375 . S
N432 C429 1.347 . S
N432 C433 1.373 . S
C433 C430 1.350 . S
C433 N432 1.373 . S
C433 H454 0.931 . S
H434 C429 0.931 . S
H435 C430 0.930 . S
C436 O443 1.259 . S
C436 O444 1.258 . S
N437 Co428 2.057 . S
N437 C438 1.316 . S
N437 C439 1.375 . S
C438 N437 1.316 . S
C438 N440 1.347 . S
C438 H449 0.931 . S
C439 N437 1.375 . S
C439 C441 1.350 . S
C439 H448 0.930 . S
N440 C438 1.347 . S
N440 C441 1.373 . S
C441 C439 1.350 . S
C441 N440 1.373 . S
C441 H455 0.931 . S
C442 O445 1.256 . S
C442 O446 1.255 . S
O443 Co426 2.021 . S
O443 C436 1.259 . S
O444 Co428 2.117 . S
O444 C436 1.258 . S
O445 Co428 2.020 . S
O445 C442 1.256 . S
O446 Co426 2.062 . S
O446 C442 1.255 . S
O447 C427 1.259 . S
O447 Co428 2.021 . S
H448 C439 0.930 . S
H449 C438 0.931 . S
O450 Co426 2.117 . S
O450 C427 1.258 . S
O451 Co426 2.020 . S
O451 C453 1.256 . S
O452 Co428 2.062 . S
O452 C453 1.255 . S
C453 O451 1.256 . S
C453 O452 1.255 . S
H454 C433 0.931 . S
H455 C441 0.931 . S
Co456 N461 2.057 1_545 S
Co456 O473 2.021 . S
Co456 O476 2.059 1_545 S
Co456 O480 2.117 . S
Co456 O481 2.020 1_455 S
C457 O477 1.259 . S
C457 O480 1.258 . S
Co458 N467 2.057 . S
Co458 O474 2.117 . S
Co458 O475 2.020 . S
Co458 O477 2.021 . S
Co458 O482 2.062 1_455 S
C459 N461 1.316 . S
C459 N462 1.347 . S
C459 H464 0.931 . S
C460 N461 1.375 1_655 S
C460 C463 1.350 . S
C460 H465 0.930 . S
N461 Co456 2.057 1_565 S
N461 C459 1.316 . S
N461 C460 1.375 1_455 S
N462 C459 1.347 . S
N462 C463 1.373 1_455 S
C463 C460 1.350 . S
C463 N462 1.373 1_655 S
C463 H484 0.931 . S
H464 C459 0.931 . S
H465 C460 0.930 . S
C466 O473 1.259 . S
C466 O474 1.258 . S
N467 Co458 2.057 . S
N467 C468 1.316 . S
N467 C469 1.375 . S
C468 N467 1.316 . S
C468 N470 1.347 . S
C468 H479 0.931 . S
C469 N467 1.375 . S
C469 C471 1.350 . S
C469 H478 0.930 . S
N470 C468 1.347 . S
N470 C471 1.373 . S
C471 C469 1.350 . S
C471 N470 1.373 . S
C471 H485 0.931 . S
C472 O475 1.256 . S
C472 O476 1.248 1_545 S
O473 Co456 2.021 . S
O473 C466 1.259 . S
O474 Co458 2.117 . S
O474 C466 1.258 . S
O475 Co458 2.020 . S
O475 C472 1.256 . S
O476 Co456 2.059 1_565 S
O476 C472 1.248 1_565 S
O477 C457 1.259 . S
O477 Co458 2.021 . S
H478 C469 0.930 . S
H479 C468 0.931 . S
O480 Co456 2.117 . S
O480 C457 1.258 . S
O481 Co456 2.020 1_655 S
O481 C483 1.256 . S
O482 Co458 2.062 1_655 S
O482 C483 1.255 . S
C483 O481 1.256 . S
C483 O482 1.255 . S
H484 C463 0.931 . S
H485 C471 0.931 . S
Co486 N491 2.057 . S
Co486 O503 2.021 . S
Co486 O506 2.062 . S
Co486 O510 2.117 . S
Co486 O511 2.020 . S
C487 O507 1.259 . S
C487 O510 1.258 . S
Co488 N497 2.057 . S
Co488 O504 2.117 . S
Co488 O505 2.020 . S
Co488 O507 2.021 . S
Co488 O512 2.062 . S
C489 N491 1.316 . S
C489 N492 1.347 . S
C489 H494 0.931 . S
C490 N491 1.375 . S
C490 C493 1.350 . S
C490 H495 0.930 . S
N491 Co486 2.057 . S
N491 C489 1.316 . S
N491 C490 1.375 . S
N492 C489 1.347 . S
N492 C493 1.373 . S
C493 C490 1.350 . S
C493 N492 1.373 . S
C493 H514 0.931 . S
H494 C489 0.931 . S
H495 C490 0.930 . S
C496 O503 1.259 . S
C496 O504 1.258 . S
N497 Co488 2.057 . S
N497 C498 1.316 . S
N497 C499 1.375 . S
C498 N497 1.316 . S
C498 N500 1.347 . S
C498 H509 0.931 . S
C499 N497 1.375 . S
C499 C501 1.350 . S
C499 H508 0.930 . S
N500 C498 1.347 . S
N500 C501 1.373 . S
C501 C499 1.350 . S
C501 N500 1.373 . S
C501 H515 0.931 . S
C502 O505 1.256 . S
C502 O506 1.255 . S
O503 Co486 2.021 . S
O503 C496 1.259 . S
O504 Co488 2.117 . S
O504 C496 1.258 . S
O505 Co488 2.020 . S
O505 C502 1.256 . S
O506 Co486 2.062 . S
O506 C502 1.255 . S
O507 C487 1.259 . S
O507 Co488 2.021 . S
H508 C499 0.930 . S
H509 C498 0.931 . S
O510 Co486 2.117 . S
O510 C487 1.258 . S
O511 Co486 2.020 . S
O511 C513 1.256 . S
O512 Co488 2.062 . S
O512 C513 1.255 . S
C513 O511 1.256 . S
C513 O512 1.255 . S
H514 C493 0.931 . S
H515 C501 0.931 . S
Co516 N521 2.057 1_554 S
Co516 O533 2.021 . S
Co516 O536 2.062 1_554 S
Co516 O540 2.117 . S
Co516 O541 2.020 1_545 S
C517 O537 1.259 . S
C517 O540 1.258 . S
Co518 N527 2.057 . S
Co518 O534 2.117 . S
Co518 O535 2.020 . S
Co518 O537 2.021 . S
Co518 O542 2.062 . S
C519 N521 1.316 . S
C519 N522 1.347 . S
C519 H524 0.931 . S
C520 N521 1.389 . S
C520 C523 1.349 1_545 S
C520 H525 0.919 1_545 S
N521 Co516 2.057 1_556 S
N521 C519 1.316 . S
N521 C520 1.389 . S
N522 C519 1.347 . S
N522 C523 1.361 1_545 S
C523 C520 1.349 1_565 S
C523 N522 1.361 1_565 S
C523 H544 0.942 . S
H524 C519 0.931 . S
H525 C520 0.919 1_565 S
C526 O533 1.259 . S
C526 O534 1.258 . S
N527 Co518 2.057 . S
N527 C528 1.316 . S
N527 C529 1.375 . S
C528 N527 1.316 . S
C528 N530 1.347 . S
C528 H539 0.931 . S
C529 N527 1.375 . S
C529 C531 1.350 . S
C529 H538 0.930 . S
N530 C528 1.347 . S
N530 C531 1.373 . S
C531 C529 1.350 . S
C531 N530 1.373 . S
C531 H545 0.931 . S
C532 O535 1.256 . S
C532 O536 1.255 1_554 S
O533 Co516 2.021 . S
O533 C526 1.259 . S
O534 Co518 2.117 . S
O534 C526 1.258 . S
O535 Co518 2.020 . S
O535 C532 1.256 . S
O536 Co516 2.062 1_556 S
O536 C532 1.255 1_556 S
O537 C517 1.259 . S
O537 Co518 2.021 . S
H538 C529 0.930 . S
H539 C528 0.931 . S
O540 Co516 2.117 . S
O540 C517 1.258 . S
O541 Co516 2.020 1_565 S
O541 C543 1.256 . S
O542 Co518 2.062 . S
O542 C543 1.255 1_545 S
C543 O541 1.256 . S
C543 O542 1.255 1_565 S
H544 C523 0.942 . S
H545 C531 0.931 . S
Co546 N551 2.057 . S
Co546 O563 2.021 . S
Co546 O566 2.062 . S
Co546 O570 2.117 . S
Co546 O571 2.020 . S
C547 O567 1.259 . S
C547 O570 1.258 . S
Co548 N557 2.057 . S
Co548 O564 2.117 . S
Co548 O565 2.020 . S
Co548 O567 2.021 . S
Co548 O572 2.062 . S
C549 N551 1.316 . S
C549 N552 1.347 . S
C549 H554 0.931 . S
C550 N551 1.375 . S
C550 C553 1.350 . S
C550 H555 0.930 . S
N551 Co546 2.057 . S
N551 C549 1.316 . S
N551 C550 1.375 . S
N552 C549 1.347 . S
N552 C553 1.373 . S
C553 C550 1.350 . S
C553 N552 1.373 . S
C553 H574 0.931 . S
H554 C549 0.931 . S
H555 C550 0.930 . S
C556 O563 1.259 . S
C556 O564 1.258 . S
N557 Co548 2.057 . S
N557 C558 1.316 . S
N557 C559 1.375 . S
C558 N557 1.316 . S
C558 N560 1.347 . S
C558 H569 0.931 . S
C559 N557 1.375 . S
C559 C561 1.350 . S
C559 H568 0.930 . S
N560 C558 1.347 . S
N560 C561 1.373 . S
C561 C559 1.350 . S
C561 N560 1.373 . S
C561 H575 0.931 . S
C562 O565 1.256 . S
C562 O566 1.255 . S
O563 Co546 2.021 . S
O563 C556 1.259 . S
O564 Co548 2.117 . S
O564 C556 1.258 . S
O565 Co548 2.020 . S
O565 C562 1.256 . S
O566 Co546 2.062 . S
O566 C562 1.255 . S
O567 C547 1.259 . S
O567 Co548 2.021 . S
H568 C559 0.930 . S
H569 C558 0.931 . S
O570 Co546 2.117 . S
O570 C547 1.258 . S
O571 Co546 2.020 . S
O571 C573 1.256 . S
O572 Co548 2.062 . S
O572 C573 1.255 . S
C573 O571 1.256 . S
C573 O572 1.255 . S
H574 C553 0.931 . S
H575 C561 0.931 . S
Co576 N581 2.057 . S
Co576 O593 2.021 1_554 S
Co576 O596 2.062 . S
Co576 O600 2.117 . S
Co576 O601 2.020 . S
C577 O597 1.259 . S
C577 O600 1.258 . S
Co578 N587 2.057 . S
Co578 O594 2.117 1_554 S
Co578 O595 2.020 . S
Co578 O597 2.021 . S
Co578 O602 2.062 . S
C579 N581 1.316 1_556 S
C579 N582 1.347 . S
C579 H584 0.931 . S
C580 N581 1.375 . S
C580 C583 1.350 . S
C580 H585 0.930 . S
N581 Co576 2.057 . S
N581 C579 1.316 1_554 S
N581 C580 1.375 . S
N582 C579 1.347 . S
N582 C583 1.373 1_556 S
C583 C580 1.350 . S
C583 N582 1.373 1_554 S
C583 H604 0.931 . S
H584 C579 0.931 . S
H585 C580 0.930 . S
C586 O593 1.259 . S
C586 O594 1.258 . S
N587 Co578 2.057 . S
N587 C588 1.316 . S
N587 C589 1.375 . S
C588 N587 1.316 . S
C588 N590 1.347 . S
C588 H599 0.931 . S
C589 N587 1.375 . S
C589 C591 1.350 . S
C589 H598 0.930 . S
N590 C588 1.347 . S
N590 C591 1.373 . S
C591 C589 1.350 . S
C591 N590 1.373 . S
C591 H605 0.931 . S
C592 O595 1.256 . S
C592 O596 1.255 . S
O593 Co576 2.021 1_556 S
O593 C586 1.259 . S
O594 Co578 2.117 1_556 S
O594 C586 1.258 . S
O595 Co578 2.020 . S
O595 C592 1.256 . S
O596 Co576 2.062 . S
O596 C592 1.255 . S
O597 C577 1.259 . S
O597 Co578 2.021 . S
H598 C589 0.930 . S
H599 C588 0.931 . S
O600 Co576 2.117 . S
O600 C577 1.258 . S
O601 Co576 2.020 . S
O601 C603 1.256 . S
O602 Co578 2.062 . S
O602 C603 1.255 . S
C603 O601 1.256 . S
C603 O602 1.255 . S
H604 C583 0.931 . S
H605 C591 0.931 . S
Co606 N611 2.057 . S
Co606 O623 2.021 . S
Co606 O626 2.062 . S
Co606 O630 2.117 . S
Co606 O631 2.020 . S
C607 O627 1.259 . S
C607 O630 1.258 . S
Co608 N617 2.057 . S
Co608 O624 2.117 . S
Co608 O625 2.020 . S
Co608 O627 2.021 . S
Co608 O632 2.062 . S
C609 N611 1.316 . S
C609 N612 1.347 . S
C609 H614 0.931 . S
C610 N611 1.375 . S
C610 C613 1.350 . S
C610 H615 0.930 . S
N611 Co606 2.057 . S
N611 C609 1.316 . S
N611 C610 1.375 . S
N612 C609 1.347 . S
N612 C613 1.373 . S
C613 C610 1.350 . S
C613 N612 1.373 . S
C613 H634 0.931 . S
H614 C609 0.931 . S
H615 C610 0.930 . S
C616 O623 1.259 . S
C616 O624 1.258 . S
N617 Co608 2.057 . S
N617 C618 1.316 . S
N617 C619 1.375 . S
C618 N617 1.316 . S
C618 N620 1.347 . S
C618 H629 0.931 . S
C619 N617 1.375 . S
C619 C621 1.350 . S
C619 H628 0.930 . S
N620 C618 1.347 . S
N620 C621 1.373 . S
C621 C619 1.350 . S
C621 N620 1.373 . S
C621 H635 0.931 . S
C622 O625 1.256 . S
C622 O626 1.255 . S
O623 Co606 2.021 . S
O623 C616 1.259 . S
O624 Co608 2.117 . S
O624 C616 1.258 . S
O625 Co608 2.020 . S
O625 C622 1.256 . S
O626 Co606 2.062 . S
O626 C622 1.255 . S
O627 C607 1.259 . S
O627 Co608 2.021 . S
H628 C619 0.930 . S
H629 C618 0.931 . S
O630 Co606 2.117 . S
O630 C607 1.258 . S
O631 Co606 2.020 . S
O631 C633 1.256 . S
O632 Co608 2.062 . S
O632 C633 1.255 . S
C633 O631 1.256 . S
C633 O632 1.255 . S
H634 C613 0.931 . S
H635 C621 0.931 . S
Co636 N641 2.057 . S
Co636 O653 2.021 1_455 S
Co636 O656 2.062 . S
Co636 O660 2.117 . S
Co636 O661 2.020 . S
C637 O657 1.259 . S
C637 O660 1.258 . S
Co638 N647 2.057 . S
Co638 O654 2.117 1_455 S
Co638 O655 2.020 . S
Co638 O657 2.021 . S
Co638 O662 2.062 . S
C639 N641 1.316 1_655 S
C639 N642 1.347 . S
C639 H644 0.931 . S
C640 N641 1.375 . S
C640 C643 1.350 . S
C640 H645 0.930 . S
N641 Co636 2.057 . S
N641 C639 1.316 1_455 S
N641 C640 1.375 . S
N642 C639 1.347 . S
N642 C643 1.373 1_655 S
C643 C640 1.350 . S
C643 N642 1.373 1_455 S
C643 H664 0.931 . S
H644 C639 0.931 . S
H645 C640 0.930 . S
C646 O653 1.259 . S
C646 O654 1.258 . S
N647 Co638 2.057 . S
N647 C648 1.316 . S
N647 C649 1.375 . S
C648 N647 1.316 . S
C648 N650 1.347 . S
C648 H659 0.931 . S
C649 N647 1.375 . S
C649 C651 1.350 . S
C649 H658 0.930 . S
N650 C648 1.347 . S
N650 C651 1.373 . S
C651 C649 1.350 . S
C651 N650 1.373 . S
C651 H665 0.931 . S
C652 O655 1.256 . S
C652 O656 1.255 . S
O653 Co636 2.021 1_655 S
O653 C646 1.259 . S
O654 Co638 2.117 1_655 S
O654 C646 1.258 . S
O655 Co638 2.020 . S
O655 C652 1.256 . S
O656 Co636 2.062 . S
O656 C652 1.255 . S
O657 C637 1.259 . S
O657 Co638 2.021 . S
H658 C649 0.930 . S
H659 C648 0.931 . S
O660 Co636 2.117 . S
O660 C637 1.258 . S
O661 Co636 2.020 . S
O661 C663 1.256 . S
O662 Co638 2.062 . S
O662 C663 1.255 . S
C663 O661 1.256 . S
C663 O662 1.255 . S
H664 C643 0.931 . S
H665 C651 0.931 . S
Co666 N671 2.057 . S
Co666 O683 2.021 . S
Co666 O686 2.062 . S
Co666 O690 2.117 . S
Co666 O691 2.020 . S
C667 O687 1.259 . S
C667 O690 1.258 . S
Co668 N677 2.057 . S
Co668 O684 2.117 . S
Co668 O685 2.020 . S
Co668 O687 2.021 . S
Co668 O692 2.062 . S
C669 N671 1.316 . S
C669 N672 1.347 . S
C669 H674 0.931 . S
C670 N671 1.375 . S
C670 C673 1.350 . S
C670 H675 0.930 . S
N671 Co666 2.057 . S
N671 C669 1.316 . S
N671 C670 1.375 . S
N672 C669 1.347 . S
N672 C673 1.373 . S
C673 C670 1.350 . S
C673 N672 1.373 . S
C673 H694 0.931 . S
H674 C669 0.931 . S
H675 C670 0.930 . S
C676 O683 1.259 . S
C676 O684 1.258 . S
N677 Co668 2.057 . S
N677 C678 1.316 . S
N677 C679 1.375 . S
C678 N677 1.316 . S
C678 N680 1.347 . S
C678 H689 0.931 . S
C679 N677 1.375 . S
C679 C681 1.350 . S
C679 H688 0.930 . S
N680 C678 1.347 . S
N680 C681 1.373 . S
C681 C679 1.350 . S
C681 N680 1.373 . S
C681 H695 0.931 . S
C682 O685 1.256 . S
C682 O686 1.255 . S
O683 Co666 2.021 . S
O683 C676 1.259 . S
O684 Co668 2.117 . S
O684 C676 1.258 . S
O685 Co668 2.020 . S
O685 C682 1.256 . S
O686 Co666 2.062 . S
O686 C682 1.255 . S
O687 C667 1.259 . S
O687 Co668 2.021 . S
H688 C679 0.930 . S
H689 C678 0.931 . S
O690 Co666 2.117 . S
O690 C667 1.258 . S
O691 Co666 2.020 . S
O691 C693 1.256 . S
O692 Co668 2.062 . S
O692 C693 1.255 . S
C693 O691 1.256 . S
C693 O692 1.255 . S
H694 C673 0.931 . S
H695 C681 0.931 . S
Co696 N701 2.057 . S
Co696 O713 2.021 . S
Co696 O716 2.062 . S
Co696 O720 2.117 . S
Co696 O721 2.020 . S
C697 O717 1.259 . S
C697 O720 1.258 . S
Co698 N707 2.057 . S
Co698 O714 2.117 . S
Co698 O715 2.020 . S
Co698 O717 2.021 . S
Co698 O722 2.062 . S
C699 N701 1.316 . S
C699 N702 1.347 . S
C699 H704 0.931 . S
C700 N701 1.375 . S
C700 C703 1.350 . S
C700 H705 0.930 . S
N701 Co696 2.057 . S
N701 C699 1.316 . S
N701 C700 1.375 . S
N702 C699 1.347 . S
N702 C703 1.373 . S
C703 C700 1.350 . S
C703 N702 1.373 . S
C703 H724 0.931 . S
H704 C699 0.931 . S
H705 C700 0.930 . S
C706 O713 1.259 . S
C706 O714 1.258 . S
N707 Co698 2.057 . S
N707 C708 1.316 . S
N707 C709 1.375 . S
C708 N707 1.316 . S
C708 N710 1.347 . S
C708 H719 0.931 . S
C709 N707 1.375 . S
C709 C711 1.350 . S
C709 H718 0.930 . S
N710 C708 1.347 . S
N710 C711 1.373 . S
C711 C709 1.350 . S
C711 N710 1.373 . S
C711 H725 0.931 . S
C712 O715 1.256 . S
C712 O716 1.255 . S
O713 Co696 2.021 . S
O713 C706 1.259 . S
O714 Co698 2.117 . S
O714 C706 1.258 . S
O715 Co698 2.020 . S
O715 C712 1.256 . S
O716 Co696 2.062 . S
O716 C712 1.255 . S
O717 C697 1.259 . S
O717 Co698 2.021 . S
H718 C709 0.930 . S
H719 C708 0.931 . S
O720 Co696 2.117 . S
O720 C697 1.258 . S
O721 Co696 2.020 . S
O721 C723 1.256 . S
O722 Co698 2.062 . S
O722 C723 1.255 . S
C723 O721 1.256 . S
C723 O722 1.255 . S
H724 C703 0.931 . S
H725 C711 0.931 . S
Co726 N731 2.057 . S
Co726 O743 2.021 . S
Co726 O746 2.062 . S
Co726 O750 2.117 . S
Co726 O751 2.020 . S
C727 O747 1.259 . S
C727 O750 1.258 . S
Co728 N737 2.057 . S
Co728 O744 2.117 . S
Co728 O745 2.020 . S
Co728 O747 2.021 . S
Co728 O752 2.062 . S
C729 N731 1.316 . S
C729 N732 1.347 . S
C729 H734 0.931 . S
C730 N731 1.375 . S
C730 C733 1.350 . S
C730 H735 0.930 . S
N731 Co726 2.057 . S
N731 C729 1.316 . S
N731 C730 1.375 . S
N732 C729 1.347 . S
N732 C733 1.373 . S
C733 C730 1.350 . S
C733 N732 1.373 . S
C733 H754 0.931 . S
H734 C729 0.931 . S
H735 C730 0.930 . S
C736 O743 1.259 . S
C736 O744 1.258 . S
N737 Co728 2.057 . S
N737 C738 1.316 . S
N737 C739 1.375 . S
C738 N737 1.316 . S
C738 N740 1.347 . S
C738 H749 0.931 . S
C739 N737 1.375 . S
C739 C741 1.350 . S
C739 H748 0.930 . S
N740 C738 1.347 . S
N740 C741 1.373 . S
C741 C739 1.350 . S
C741 N740 1.373 . S
C741 H755 0.931 . S
C742 O745 1.256 . S
C742 O746 1.255 . S
O743 Co726 2.021 . S
O743 C736 1.259 . S
O744 Co728 2.117 . S
O744 C736 1.258 . S
O745 Co728 2.020 . S
O745 C742 1.256 . S
O746 Co726 2.062 . S
O746 C742 1.255 . S
O747 C727 1.259 . S
O747 Co728 2.021 . S
H748 C739 0.930 . S
H749 C738 0.931 . S
O750 Co726 2.117 . S
O750 C727 1.258 . S
O751 Co726 2.020 . S
O751 C753 1.256 . S
O752 Co728 2.062 . S
O752 C753 1.255 . S
C753 O751 1.256 . S
C753 O752 1.255 . S
H754 C733 0.931 . S
H755 C741 0.931 . S
Co756 N761 2.057 . S
Co756 O773 2.021 . S
Co756 O776 2.062 . S
Co756 O780 2.117 . S
Co756 O781 2.020 . S
C757 O777 1.259 . S
C757 O780 1.258 . S
Co758 N767 2.057 . S
Co758 O774 2.117 . S
Co758 O775 2.020 . S
Co758 O777 2.021 . S
Co758 O782 2.062 . S
C759 N761 1.316 . S
C759 N762 1.347 . S
C759 H764 0.931 . S
C760 N761 1.375 . S
C760 C763 1.350 . S
C760 H765 0.930 . S
N761 Co756 2.057 . S
N761 C759 1.316 . S
N761 C760 1.375 . S
N762 C759 1.347 . S
N762 C763 1.373 . S
C763 C760 1.350 . S
C763 N762 1.373 . S
C763 H784 0.931 . S
H764 C759 0.931 . S
H765 C760 0.930 . S
C766 O773 1.259 . S
C766 O774 1.258 . S
N767 Co758 2.057 . S
N767 C768 1.316 . S
N767 C769 1.375 . S
C768 N767 1.316 . S
C768 N770 1.347 . S
C768 H779 0.931 . S
C769 N767 1.375 . S
C769 C771 1.350 . S
C769 H778 0.930 . S
N770 C768 1.347 . S
N770 C771 1.373 . S
C771 C769 1.350 . S
C771 N770 1.373 . S
C771 H785 0.931 . S
C772 O775 1.256 . S
C772 O776 1.255 . S
O773 Co756 2.021 . S
O773 C766 1.259 . S
O774 Co758 2.117 . S
O774 C766 1.258 . S
O775 Co758 2.020 . S
O775 C772 1.256 . S
O776 Co756 2.062 . S
O776 C772 1.255 . S
O777 C757 1.259 . S
O777 Co758 2.021 . S
H778 C769 0.930 . S
H779 C768 0.931 . S
O780 Co756 2.117 . S
O780 C757 1.258 . S
O781 Co756 2.020 . S
O781 C783 1.256 . S
O782 Co758 2.062 . S
O782 C783 1.255 . S
C783 O781 1.256 . S
C783 O782 1.255 . S
H784 C763 0.931 . S
H785 C771 0.931 . S
Co786 N791 2.057 1_455 S
Co786 O803 2.021 . S
Co786 O806 2.062 1_455 S
Co786 O810 2.117 . S
Co786 O811 2.020 1_554 S
C787 O807 1.259 . S
C787 O810 1.258 . S
Co788 N797 2.057 . S
Co788 O804 2.117 . S
Co788 O805 2.020 . S
Co788 O807 2.021 . S
Co788 O812 2.062 1_554 S
C789 N791 1.316 . S
C789 N792 1.347 . S
C789 H794 0.931 . S
C790 N791 1.375 1_556 S
C790 C793 1.350 . S
C790 H795 0.930 . S
N791 Co786 2.057 1_655 S
N791 C789 1.316 . S
N791 C790 1.375 1_554 S
N792 C789 1.347 . S
N792 C793 1.373 1_554 S
C793 C790 1.350 . S
C793 N792 1.373 1_556 S
C793 H814 0.931 . S
H794 C789 0.931 . S
H795 C790 0.930 . S
C796 O803 1.259 . S
C796 O804 1.258 . S
N797 Co788 2.057 . S
N797 C798 1.316 . S
N797 C799 1.375 . S
C798 N797 1.316 . S
C798 N800 1.347 . S
C798 H809 0.931 . S
C799 N797 1.375 . S
C799 C801 1.350 . S
C799 H808 0.930 . S
N800 C798 1.347 . S
N800 C801 1.373 . S
C801 C799 1.350 . S
C801 N800 1.373 . S
C801 H815 0.931 . S
C802 O805 1.256 . S
C802 O806 1.255 1_455 S
O803 Co786 2.021 . S
O803 C796 1.259 . S
O804 Co788 2.117 . S
O804 C796 1.258 . S
O805 Co788 2.020 . S
O805 C802 1.256 . S
O806 Co786 2.062 1_655 S
O806 C802 1.255 1_655 S
O807 C787 1.259 . S
O807 Co788 2.021 . S
H808 C799 0.930 . S
H809 C798 0.931 . S
O810 Co786 2.117 . S
O810 C787 1.258 . S
O811 Co786 2.020 1_556 S
O811 C813 1.256 . S
O812 Co788 2.062 1_556 S
O812 C813 1.255 . S
C813 O811 1.256 . S
C813 O812 1.255 . S
H814 C793 0.931 . S
H815 C801 0.931 . S
C816 C817 1.349 . S
C816 C818 1.327 . S
C816 H841 0.950 . S
C817 C816 1.349 . S
C817 C833 1.349 . S
C818 C816 1.327 . S
C818 C837 1.429 . S
C818 H842 0.950 . S
C819 C836 1.576 . S
C819 C838 1.368 . S
C819 H843 0.949 1_455 S
H820 C824 0.949 . S
C821 C822 1.349 1_655 S
C821 C823 1.327 . S
C821 H844 0.950 . S
C822 C821 1.349 1_455 S
C822 C834 1.349 . S
C823 C821 1.327 . S
C823 C839 1.429 1_655 S
C823 H845 0.950 . S
C824 H820 0.949 . S
C824 C832 1.574 . S
C824 C840 1.368 . S
H825 C833 0.980 . S
H826 C831 0.950 1_655 S
H827 C832 0.949 . S
H828 C834 0.950 . S
H829 C835 0.950 . S
H830 C836 0.934 1_655 S
C831 H826 0.950 1_455 S
C831 C833 1.327 . S
C831 C837 1.429 . S
C832 C824 1.574 . S
C832 H827 0.949 . S
C832 C838 1.368 . S
C833 C817 1.349 . S
C833 H825 0.980 . S
C833 C831 1.327 . S
C834 C822 1.349 . S
C834 H828 0.950 . S
C834 C835 1.327 . S
C835 H829 0.950 . S
C835 C834 1.327 . S
C835 C839 1.429 . S
C836 C819 1.576 . S
C836 H830 0.934 1_455 S
C836 C840 1.383 . S
C837 C818 1.429 . S
C837 C831 1.429 . S
C837 C838 1.523 . S
C838 C819 1.368 . S
C838 C832 1.368 . S
C838 C837 1.523 . S
C839 C823 1.429 1_455 S
C839 C835 1.429 . S
C839 C840 1.523 . S
C840 C824 1.368 . S
C840 C836 1.383 . S
C840 C839 1.523 . S
H841 C816 0.950 . S
H842 C818 0.950 . S
H843 C819 0.949 1_655 S
H844 C821 0.950 . S
H845 C823 0.950 . S
C846 C847 1.349 . S
C846 C848 1.327 . S
C846 H871 0.950 . S
C847 C846 1.349 . S
C847 C863 1.349 . S
C848 C846 1.327 . S
C848 C867 1.429 . S
C848 H872 0.950 . S
C849 C866 1.574 . S
C849 C868 1.368 . S
C849 H873 0.949 . S
H850 C854 0.949 . S
C851 C852 1.349 . S
C851 C853 1.327 . S
C851 H874 0.950 . S
C852 C851 1.349 . S
C852 C864 1.349 . S
C853 C851 1.327 . S
C853 C869 1.429 . S
C853 H875 0.950 . S
C854 H850 0.949 . S
C854 C862 1.574 . S
C854 C870 1.368 . S
H855 C863 0.950 . S
H856 C861 0.950 . S
H857 C862 0.949 . S
H858 C864 0.950 . S
H859 C865 0.950 . S
H860 C866 0.949 . S
C861 H856 0.950 . S
C861 C863 1.327 . S
C861 C867 1.429 . S
C862 C854 1.574 . S
C862 H857 0.949 . S
C862 C868 1.368 . S
C863 C847 1.349 . S
C863 H855 0.950 . S
C863 C861 1.327 . S
C864 C852 1.349 . S
C864 H858 0.950 . S
C864 C865 1.327 . S
C865 H859 0.950 . S
C865 C864 1.327 . S
C865 C869 1.429 . S
C866 C849 1.574 . S
C866 H860 0.949 . S
C866 C870 1.368 . S
C867 C848 1.429 . S
C867 C861 1.429 . S
C867 C868 1.523 . S
C868 C849 1.368 . S
C868 C862 1.368 . S
C868 C867 1.523 . S
C869 C853 1.429 . S
C869 C865 1.429 . S
C869 C870 1.523 . S
C870 C854 1.368 . S
C870 C866 1.368 . S
C870 C869 1.523 . S
H871 C846 0.950 . S
H872 C848 0.950 . S
H873 C849 0.949 . S
H874 C851 0.950 . S
H875 C853 0.950 . S
C876 C877 1.349 . S
C876 C878 1.327 . S
C876 H901 0.950 . S
C877 C876 1.349 . S
C877 C893 1.349 . S
C878 C876 1.327 . S
C878 C897 1.429 . S
C878 H902 0.950 . S
C879 C896 1.574 . S
C879 C898 1.368 . S
C879 H903 0.949 . S
H880 C884 0.949 . S
C881 C882 1.349 . S
C881 C883 1.327 . S
C881 H904 0.950 . S
C882 C881 1.349 . S
C882 C894 1.349 . S
C883 C881 1.327 . S
C883 C899 1.429 . S
C883 H905 0.950 . S
C884 H880 0.949 . S
C884 C892 1.574 . S
C884 C900 1.368 . S
H885 C893 0.950 . S
H886 C891 0.950 . S
H887 C892 0.949 . S
H888 C894 0.950 . S
H889 C895 0.950 . S
H890 C896 0.949 . S
C891 H886 0.950 . S
C891 C893 1.327 . S
C891 C897 1.429 . S
C892 C884 1.574 . S
C892 H887 0.949 . S
C892 C898 1.368 . S
C893 C877 1.349 . S
C893 H885 0.950 . S
C893 C891 1.327 . S
C894 C882 1.349 . S
C894 H888 0.950 . S
C894 C895 1.327 . S
C895 H889 0.950 . S
C895 C894 1.327 . S
C895 C899 1.429 . S
C896 C879 1.574 . S
C896 H890 0.949 . S
C896 C900 1.368 . S
C897 C878 1.429 . S
C897 C891 1.429 . S
C897 C898 1.523 . S
C898 C879 1.368 . S
C898 C892 1.368 . S
C898 C897 1.523 . S
C899 C883 1.429 . S
C899 C895 1.429 . S
C899 C900 1.523 . S
C900 C884 1.368 . S
C900 C896 1.368 . S
C900 C899 1.523 . S
H901 C876 0.950 . S
H902 C878 0.950 . S
H903 C879 0.949 . S
H904 C881 0.950 . S
H905 C883 0.950 . S
C906 C907 1.349 . S
C906 C908 1.327 . S
C906 H931 0.950 . S
C907 C906 1.349 . S
C907 C923 1.349 . S
C908 C906 1.327 . S
C908 C927 1.429 . S
C908 H932 0.950 . S
C909 C926 1.574 . S
C909 C928 1.368 . S
C909 H933 0.949 . S
H910 C914 0.949 . S
C911 C912 1.349 . S
C911 C913 1.327 . S
C911 H934 0.950 . S
C912 C911 1.349 . S
C912 C924 1.349 . S
C913 C911 1.327 . S
C913 C929 1.429 . S
C913 H935 0.950 . S
C914 H910 0.949 . S
C914 C922 1.574 . S
C914 C930 1.368 . S
H915 C923 0.950 . S
H916 C921 0.950 . S
H917 C922 0.949 . S
H918 C924 0.950 . S
H919 C925 0.950 . S
H920 C926 0.949 . S
C921 H916 0.950 . S
C921 C923 1.327 . S
C921 C927 1.429 . S
C922 C914 1.574 . S
C922 H917 0.949 . S
C922 C928 1.368 . S
C923 C907 1.349 . S
C923 H915 0.950 . S
C923 C921 1.327 . S
C924 C912 1.349 . S
C924 H918 0.950 . S
C924 C925 1.327 . S
C925 H919 0.950 . S
C925 C924 1.327 . S
C925 C929 1.429 . S
C926 C909 1.574 . S
C926 H920 0.949 . S
C926 C930 1.368 . S
C927 C908 1.429 . S
C927 C921 1.429 . S
C927 C928 1.523 . S
C928 C909 1.368 . S
C928 C922 1.368 . S
C928 C927 1.523 . S
C929 C913 1.429 . S
C929 C925 1.429 . S
C929 C930 1.523 . S
C930 C914 1.368 . S
C930 C926 1.368 . S
C930 C929 1.523 . S
H931 C906 0.950 . S
H932 C908 0.950 . S
H933 C909 0.949 . S
H934 C911 0.950 . S
H935 C913 0.950 . S
C936 C937 1.349 . S
C936 C938 1.327 . S
C936 H961 0.950 . S
C937 C936 1.349 . S
C937 C953 1.349 . S
C938 C936 1.327 . S
C938 C957 1.429 . S
C938 H962 0.950 . S
C939 C956 1.574 . S
C939 C958 1.368 . S
C939 H963 0.949 . S
H940 C944 0.949 . S
C941 C942 1.361 . S
C941 C943 1.332 . S
C941 H964 0.933 1_455 S
C942 C941 1.361 . S
C942 C954 1.349 . S
C943 C941 1.332 . S
C943 C959 1.429 . S
C943 H965 0.950 1_455 S
C944 H940 0.949 . S
C944 C952 1.574 . S
C944 C960 1.368 . S
H945 C953 0.950 . S
H946 C951 0.950 . S
H947 C952 0.949 . S
H948 C954 0.950 . S
H949 C955 0.950 . S
H950 C956 0.949 . S
C951 H946 0.950 . S
C951 C953 1.327 . S
C951 C957 1.429 . S
C952 C944 1.574 . S
C952 H947 0.949 . S
C952 C958 1.368 . S
C953 C937 1.349 . S
C953 H945 0.950 . S
C953 C951 1.327 . S
C954 C942 1.349 . S
C954 H948 0.950 . S
C954 C955 1.327 . S
C955 H949 0.950 . S
C955 C954 1.327 . S
C955 C959 1.429 . S
C956 C939 1.574 . S
C956 H950 0.949 . S
C956 C960 1.368 . S
C957 C938 1.429 . S
C957 C951 1.429 . S
C957 C958 1.523 . S
C958 C939 1.368 . S
C958 C952 1.368 . S
C958 C957 1.523 . S
C959 C943 1.429 . S
C959 C955 1.429 . S
C959 C960 1.523 . S
C960 C944 1.368 . S
C960 C956 1.368 . S
C960 C959 1.523 . S
H961 C936 0.950 . S
H962 C938 0.950 . S
H963 C939 0.949 . S
H964 C941 0.933 1_655 S
H965 C943 0.950 1_655 S
C966 C967 1.349 . S
C966 C968 1.327 . S
C966 H991 0.950 . S
C967 C966 1.349 . S
C967 C983 1.349 . S
C968 C966 1.327 . S
C968 C987 1.429 . S
C968 H992 0.950 . S
C969 C986 1.574 . S
C969 C988 1.368 . S
C969 H993 0.949 . S
H970 C974 0.949 . S
C971 C972 1.349 . S
C971 C973 1.327 . S
C971 H994 0.950 . S
C972 C971 1.349 . S
C972 C984 1.349 . S
C973 C971 1.327 . S
C973 C989 1.429 . S
C973 H995 0.950 . S
C974 H970 0.949 . S
C974 C982 1.574 . S
C974 C990 1.368 . S
H975 C983 0.950 . S
H976 C981 0.950 . S
H977 C982 0.949 . S
H978 C984 0.950 . S
H979 C985 0.950 . S
H980 C986 0.949 . S
C981 H976 0.950 . S
C981 C983 1.327 . S
C981 C987 1.429 . S
C982 C974 1.574 . S
C982 H977 0.949 . S
C982 C988 1.368 . S
C983 C967 1.349 . S
C983 H975 0.950 . S
C983 C981 1.327 . S
C984 C972 1.349 . S
C984 H978 0.950 . S
C984 C985 1.327 . S
C985 H979 0.950 . S
C985 C984 1.327 . S
C985 C989 1.429 . S
C986 C969 1.574 . S
C986 H980 0.949 . S
C986 C990 1.368 . S
C987 C968 1.429 . S
C987 C981 1.429 . S
C987 C988 1.523 . S
C988 C969 1.368 . S
C988 C982 1.368 . S
C988 C987 1.523 . S
C989 C973 1.429 . S
C989 C985 1.429 . S
C989 C990 1.523 . S
C990 C974 1.368 . S
C990 C986 1.368 . S
C990 C989 1.523 . S
H991 C966 0.950 . S
H992 C968 0.950 . S
H993 C969 0.949 . S
H994 C971 0.950 . S
H995 C973 0.950 . S
C996 C997 1.349 . S
C996 C998 1.327 . S
C996 H1021 0.950 . S
C997 C996 1.349 . S
C997 C1013 1.349 . S
C998 C996 1.327 . S
C998 C1017 1.429 . S
C998 H1022 0.950 . S
C999 C1016 1.574 . S
C999 C1018 1.368 . S
C999 H1023 0.949 . S
H1000 C1004 0.949 . S
C1001 C1002 1.349 . S
C1001 C1003 1.327 . S
C1001 H1024 0.950 . S
C1002 C1001 1.349 . S
C1002 C1014 1.349 1_554 S
C1003 C1001 1.327 . S
C1003 C1019 1.429 1_554 S
C1003 H1025 0.950 . S
C1004 H1000 0.949 . S
C1004 C1012 1.574 . S
C1004 C1020 1.368 . S
H1005 C1013 0.950 . S
H1006 C1011 0.950 . S
H1007 C1012 0.949 . S
H1008 C1014 0.950 . S
H1009 C1015 0.950 . S
H1010 C1016 1.005 . S
C1011 H1006 0.950 . S
C1011 C1013 1.327 . S
C1011 C1017 1.429 . S
C1012 C1004 1.574 . S
C1012 H1007 0.949 . S
C1012 C1018 1.368 . S
C1013 C997 1.349 . S
C1013 H1005 0.950 . S
C1013 C1011 1.327 . S
C1014 C1002 1.349 1_556 S
C1014 H1008 0.950 . S
C1014 C1015 1.327 . S
C1015 H1009 0.950 . S
C1015 C1014 1.327 . S
C1015 C1019 1.429 . S
C1016 C999 1.574 . S
C1016 H1010 1.005 . S
C1016 C1020 1.368 . S
C1017 C998 1.429 . S
C1017 C1011 1.429 . S
C1017 C1018 1.523 . S
C1018 C999 1.368 . S
C1018 C1012 1.368 . S
C1018 C1017 1.523 . S
C1019 C1003 1.429 1_556 S
C1019 C1015 1.429 . S
C1019 C1020 1.523 . S
C1020 C1004 1.368 . S
C1020 C1016 1.368 . S
C1020 C1019 1.523 . S
H1021 C996 0.950 . S
H1022 C998 0.950 . S
H1023 C999 0.949 . S
H1024 C1001 0.950 . S
H1025 C1003 0.950 . S
C1026 C1027 1.349 . S
C1026 C1028 1.327 . S
C1026 H1051 0.950 . S
C1027 C1026 1.349 . S
C1027 C1043 1.349 . S
C1028 C1026 1.327 . S
C1028 C1047 1.429 . S
C1028 H1052 0.950 . S
C1029 C1046 1.574 . S
C1029 C1048 1.368 . S
C1029 H1053 0.949 . S
H1030 C1034 0.949 . S
C1031 C1032 1.349 . S
C1031 C1033 1.327 . S
C1031 H1054 0.950 . S
C1032 C1031 1.349 . S
C1032 C1044 1.349 . S
C1033 C1031 1.327 . S
C1033 C1049 1.429 . S
C1033 H1055 0.950 . S
C1034 H1030 0.949 . S
C1034 C1042 1.574 . S
C1034 C1050 1.368 . S
H1035 C1043 0.950 . S
H1036 C1041 0.950 . S
H1037 C1042 0.949 . S
H1038 C1044 0.950 . S
H1039 C1045 0.950 . S
H1040 C1046 0.949 . S
C1041 H1036 0.950 . S
C1041 C1043 1.327 . S
C1041 C1047 1.429 . S
C1042 C1034 1.574 . S
C1042 H1037 0.949 . S
C1042 C1048 1.368 . S
C1043 C1027 1.349 . S
C1043 H1035 0.950 . S
C1043 C1041 1.327 . S
C1044 C1032 1.349 . S
C1044 H1038 0.950 . S
C1044 C1045 1.327 . S
C1045 H1039 0.950 . S
C1045 C1044 1.327 . S
C1045 C1049 1.429 . S
C1046 C1029 1.574 . S
C1046 H1040 0.949 . S
C1046 C1050 1.368 . S
C1047 C1028 1.429 . S
C1047 C1041 1.429 . S
C1047 C1048 1.523 . S
C1048 C1029 1.368 . S
C1048 C1042 1.368 . S
C1048 C1047 1.523 . S
C1049 C1033 1.429 . S
C1049 C1045 1.429 . S
C1049 C1050 1.523 . S
C1050 C1034 1.368 . S
C1050 C1046 1.368 . S
C1050 C1049 1.523 . S
H1051 C1026 0.950 . S
H1052 C1028 0.950 . S
H1053 C1029 0.949 . S
H1054 C1031 0.950 . S
H1055 C1033 0.950 . S
C1056 C1057 1.349 . S
C1056 C1058 1.327 . S
C1056 H1081 0.950 . S
C1057 C1056 1.349 . S
C1057 C1073 1.349 1_545 S
C1058 C1056 1.327 . S
C1058 C1077 1.429 . S
C1058 H1082 0.950 . S
C1059 C1076 1.574 . S
C1059 C1078 1.368 1_565 S
C1059 H1083 0.949 . S
H1060 C1064 0.949 . S
C1061 C1062 1.349 1_565 S
C1061 C1063 1.327 . S
C1061 H1084 0.950 . S
C1062 C1061 1.349 1_545 S
C1062 C1074 1.349 . S
C1063 C1061 1.327 . S
C1063 C1079 1.429 1_565 S
C1063 H1085 0.950 . S
C1064 H1060 0.949 . S
C1064 C1072 1.574 . S
C1064 C1080 1.368 . S
H1065 C1073 0.950 . S
H1066 C1071 0.950 . S
H1067 C1072 0.949 . S
H1068 C1074 0.950 . S
H1069 C1075 0.950 . S
H1070 C1076 0.949 . S
C1071 H1066 0.950 . S
C1071 C1073 1.327 . S
C1071 C1077 1.429 1_565 S
C1072 C1064 1.574 . S
C1072 H1067 0.949 . S
C1072 C1078 1.368 . S
C1073 C1057 1.349 1_565 S
C1073 H1065 0.950 . S
C1073 C1071 1.327 . S
C1074 C1062 1.349 . S
C1074 H1068 0.950 . S
C1074 C1075 1.327 . S
C1075 H1069 0.950 . S
C1075 C1074 1.327 . S
C1075 C1079 1.429 . S
C1076 C1059 1.574 . S
C1076 H1070 0.949 . S
C1076 C1080 1.368 1_565 S
C1077 C1058 1.429 . S
C1077 C1071 1.429 1_545 S
C1077 C1078 1.523 . S
C1078 C1059 1.368 1_545 S
C1078 C1072 1.368 . S
C1078 C1077 1.523 . S
C1079 C1063 1.429 1_545 S
C1079 C1075 1.429 . S
C1079 C1080 1.523 . S
C1080 C1064 1.368 . S
C1080 C1076 1.368 1_545 S
C1080 C1079 1.523 . S
H1081 C1056 0.950 . S
H1082 C1058 0.950 . S
H1083 C1059 0.949 . S
H1084 C1061 0.950 . S
H1085 C1063 0.950 . S
C1086 C1087 1.349 . S
C1086 C1088 1.327 . S
C1086 H1111 0.950 . S
C1087 C1086 1.349 . S
C1087 C1103 1.349 . S
C1088 C1086 1.327 . S
C1088 C1107 1.429 . S
C1088 H1112 0.950 . S
C1089 C1106 1.574 . S
C1089 C1108 1.368 . S
C1089 H1113 0.949 . S
H1090 C1094 0.949 . S
C1091 C1092 1.349 . S
C1091 C1093 1.327 . S
C1091 H1114 0.950 . S
C1092 C1091 1.349 . S
C1092 C1104 1.349 . S
C1093 C1091 1.327 . S
C1093 C1109 1.429 . S
C1093 H1115 0.950 . S
C1094 H1090 0.949 . S
C1094 C1102 1.574 . S
C1094 C1110 1.368 . S
H1095 C1103 0.950 . S
H1096 C1101 0.950 . S
H1097 C1102 0.949 . S
H1098 C1104 0.950 . S
H1099 C1105 0.950 . S
H1100 C1106 0.949 . S
C1101 H1096 0.950 . S
C1101 C1103 1.327 . S
C1101 C1107 1.429 . S
C1102 C1094 1.574 . S
C1102 H1097 0.949 . S
C1102 C1108 1.368 . S
C1103 C1087 1.349 . S
C1103 H1095 0.950 . S
C1103 C1101 1.327 . S
C1104 C1092 1.349 . S
C1104 H1098 0.950 . S
C1104 C1105 1.327 . S
C1105 H1099 0.950 . S
C1105 C1104 1.327 . S
C1105 C1109 1.429 . S
C1106 C1089 1.574 . S
C1106 H1100 0.949 . S
C1106 C1110 1.368 . S
C1107 C1088 1.429 . S
C1107 C1101 1.429 . S
C1107 C1108 1.523 . S
C1108 C1089 1.368 . S
C1108 C1102 1.368 . S
C1108 C1107 1.523 . S
C1109 C1093 1.429 . S
C1109 C1105 1.429 . S
C1109 C1110 1.523 . S
C1110 C1094 1.368 . S
C1110 C1106 1.368 . S
C1110 C1109 1.523 . S
H1111 C1086 0.950 . S
H1112 C1088 0.950 . S
H1113 C1089 0.949 . S
H1114 C1091 0.950 . S
H1115 C1093 0.950 . S
C1116 C1117 1.349 . S
C1116 C1118 1.327 . S
C1116 H1141 0.950 . S
C1117 C1116 1.349 . S
C1117 C1133 1.349 . S
C1118 C1116 1.327 . S
C1118 C1137 1.429 . S
C1118 H1142 0.950 . S
C1119 C1136 1.574 . S
C1119 C1138 1.368 . S
C1119 H1143 0.949 . S
H1120 C1124 0.949 . S
C1121 C1122 1.349 . S
C1121 C1123 1.327 . S
C1121 H1144 0.950 . S
C1122 C1121 1.349 . S
C1122 C1134 1.349 . S
C1123 C1121 1.327 . S
C1123 C1139 1.429 . S
C1123 H1145 0.950 . S
C1124 H1120 0.949 . S
C1124 C1132 1.574 . S
C1124 C1140 1.368 . S
H1125 C1133 0.950 . S
H1126 C1131 0.950 . S
H1127 C1132 0.949 . S
H1128 C1134 0.950 . S
H1129 C1135 0.950 . S
H1130 C1136 0.949 . S
C1131 H1126 0.950 . S
C1131 C1133 1.327 . S
C1131 C1137 1.429 . S
C1132 C1124 1.574 . S
C1132 H1127 0.949 . S
C1132 C1138 1.368 . S
C1133 C1117 1.349 . S
C1133 H1125 0.950 . S
C1133 C1131 1.327 . S
C1134 C1122 1.349 . S
C1134 H1128 0.950 . S
C1134 C1135 1.327 . S
C1135 H1129 0.950 . S
C1135 C1134 1.327 . S
C1135 C1139 1.429 . S
C1136 C1119 1.574 . S
C1136 H1130 0.949 . S
C1136 C1140 1.368 . S
C1137 C1118 1.429 . S
C1137 C1131 1.429 . S
C1137 C1138 1.523 . S
C1138 C1119 1.368 . S
C1138 C1132 1.368 . S
C1138 C1137 1.523 . S
C1139 C1123 1.429 . S
C1139 C1135 1.429 . S
C1139 C1140 1.523 . S
C1140 C1124 1.368 . S
C1140 C1136 1.368 . S
C1140 C1139 1.523 . S
H1141 C1116 0.950 . S
H1142 C1118 0.950 . S
H1143 C1119 0.949 . S
H1144 C1121 0.950 . S
H1145 C1123 0.950 . S
C1146 C1147 1.349 . S
C1146 C1148 1.327 . S
C1146 H1171 0.950 . S
C1147 C1146 1.349 . S
C1147 C1163 1.349 . S
C1148 C1146 1.327 . S
C1148 C1167 1.429 . S
C1148 H1172 0.950 . S
C1149 C1166 1.574 . S
C1149 C1168 1.368 . S
C1149 H1173 0.949 . S
H1150 C1154 0.949 . S
C1151 C1152 1.349 . S
C1151 C1153 1.327 . S
C1151 H1174 0.950 . S
C1152 C1151 1.349 . S
C1152 C1164 1.349 . S
C1153 C1151 1.327 . S
C1153 C1169 1.429 . S
C1153 H1175 0.950 . S
C1154 H1150 0.949 . S
C1154 C1162 1.574 . S
C1154 C1170 1.368 . S
H1155 C1163 0.950 . S
H1156 C1161 0.950 . S
H1157 C1162 0.949 . S
H1158 C1164 0.950 . S
H1159 C1165 0.950 . S
H1160 C1166 0.949 . S
C1161 H1156 0.950 . S
C1161 C1163 1.327 . S
C1161 C1167 1.429 . S
C1162 C1154 1.574 . S
C1162 H1157 0.949 . S
C1162 C1168 1.368 . S
C1163 C1147 1.349 . S
C1163 H1155 0.950 . S
C1163 C1161 1.327 . S
C1164 C1152 1.349 . S
C1164 H1158 0.950 . S
C1164 C1165 1.327 . S
C1165 H1159 0.950 . S
C1165 C1164 1.327 . S
C1165 C1169 1.429 . S
C1166 C1149 1.574 . S
C1166 H1160 0.949 . S
C1166 C1170 1.368 . S
C1167 C1148 1.429 . S
C1167 C1161 1.429 . S
C1167 C1168 1.523 . S
C1168 C1149 1.368 . S
C1168 C1162 1.368 . S
C1168 C1167 1.523 . S
C1169 C1153 1.429 . S
C1169 C1165 1.429 . S
C1169 C1170 1.523 . S
C1170 C1154 1.368 . S
C1170 C1166 1.368 . S
C1170 C1169 1.523 . S
H1171 C1146 0.950 . S
H1172 C1148 0.950 . S
H1173 C1149 0.949 . S
H1174 C1151 0.950 . S
H1175 C1153 0.950 . S
C1176 C1177 1.349 1_565 S
C1176 C1178 1.327 . S
C1176 H1201 0.950 . S
C1177 C1176 1.349 1_545 S
C1177 C1193 1.349 . S
C1178 C1176 1.327 . S
C1178 C1197 1.429 1_565 S
C1178 H1202 0.950 . S
C1179 C1196 1.574 . S
C1179 C1198 1.368 . S
C1179 H1203 0.949 . S
H1180 C1184 0.949 1_565 S
C1181 C1182 1.349 . S
C1181 C1183 1.327 . S
C1181 H1204 0.950 . S
C1182 C1181 1.349 . S
C1182 C1194 1.349 . S
C1183 C1181 1.327 . S
C1183 C1199 1.429 . S
C1183 H1205 0.950 . S
C1184 H1180 0.949 1_545 S
C1184 C1192 1.574 . S
C1184 C1200 1.368 . S
H1185 C1193 0.950 . S
H1186 C1191 0.950 . S
H1187 C1192 0.949 1_565 S
H1188 C1194 0.950 . S
H1189 C1195 0.950 . S
H1190 C1196 0.949 . S
C1191 H1186 0.950 . S
C1191 C1193 1.327 . S
C1191 C1197 1.429 . S
C1192 C1184 1.574 . S
C1192 H1187 0.949 1_545 S
C1192 C1198 1.368 . S
C1193 C1177 1.349 . S
C1193 H1185 0.950 . S
C1193 C1191 1.327 . S
C1194 C1182 1.349 . S
C1194 H1188 0.950 . S
C1194 C1195 1.327 . S
C1195 H1189 0.950 . S
C1195 C1194 1.327 . S
C1195 C1199 1.429 . S
C1196 C1179 1.574 . S
C1196 H1190 0.949 . S
C1196 C1200 1.368 . S
C1197 C1178 1.429 1_545 S
C1197 C1191 1.429 . S
C1197 C1198 1.523 . S
C1198 C1179 1.368 . S
C1198 C1192 1.368 . S
C1198 C1197 1.523 . S
C1199 C1183 1.429 . S
C1199 C1195 1.429 . S
C1199 C1200 1.523 . S
C1200 C1184 1.368 . S
C1200 C1196 1.368 . S
C1200 C1199 1.523 . S
H1201 C1176 0.950 . S
H1202 C1178 0.950 . S
H1203 C1179 0.949 . S
H1204 C1181 0.950 . S
H1205 C1183 0.950 . S
C1206 C1207 1.349 . S
C1206 C1208 1.327 . S
C1206 H1231 0.950 . S
C1207 C1206 1.349 . S
C1207 C1223 1.349 . S
C1208 C1206 1.327 . S
C1208 C1227 1.429 . S
C1208 H1232 0.950 . S
C1209 C1226 1.574 . S
C1209 C1228 1.368 . S
C1209 H1233 0.949 . S
H1210 C1214 0.949 . S
C1211 C1212 1.349 . S
C1211 C1213 1.327 . S
C1211 H1234 0.950 . S
C1212 C1211 1.349 . S
C1212 C1224 1.349 . S
C1213 C1211 1.327 . S
C1213 C1229 1.429 . S
C1213 H1235 0.950 . S
C1214 H1210 0.949 . S
C1214 C1222 1.574 . S
C1214 C1230 1.368 . S
H1215 C1223 0.950 . S
H1216 C1221 0.950 . S
H1217 C1222 0.949 . S
H1218 C1224 0.950 . S
H1219 C1225 0.950 . S
H1220 C1226 0.949 . S
C1221 H1216 0.950 . S
C1221 C1223 1.327 . S
C1221 C1227 1.429 . S
C1222 C1214 1.574 . S
C1222 H1217 0.949 . S
C1222 C1228 1.368 . S
C1223 C1207 1.349 . S
C1223 H1215 0.950 . S
C1223 C1221 1.327 . S
C1224 C1212 1.349 . S
C1224 H1218 0.950 . S
C1224 C1225 1.327 . S
C1225 H1219 0.950 . S
C1225 C1224 1.327 . S
C1225 C1229 1.429 . S
C1226 C1209 1.574 . S
C1226 H1220 0.949 . S
C1226 C1230 1.368 . S
C1227 C1208 1.429 . S
C1227 C1221 1.429 . S
C1227 C1228 1.523 . S
C1228 C1209 1.368 . S
C1228 C1222 1.368 . S
C1228 C1227 1.523 . S
C1229 C1213 1.429 . S
C1229 C1225 1.429 . S
C1229 C1230 1.523 . S
C1230 C1214 1.368 . S
C1230 C1226 1.368 . S
C1230 C1229 1.523 . S
H1231 C1206 0.950 . S
H1232 C1208 0.950 . S
H1233 C1209 0.949 . S
H1234 C1211 0.950 . S
H1235 C1213 0.950 . S
C1236 C1237 1.349 . S
C1236 C1238 1.327 . S
C1236 H1261 0.950 . S
C1237 C1236 1.349 . S
C1237 C1253 1.349 . S
C1238 C1236 1.327 . S
C1238 C1257 1.429 . S
C1238 H1262 0.950 . S
C1239 C1256 1.574 . S
C1239 C1258 1.368 . S
C1239 H1263 0.949 . S
H1240 C1244 0.949 . S
C1241 C1242 1.349 1_565 S
C1241 C1243 1.321 1_565 S
C1241 H1264 0.950 . S
C1242 C1241 1.349 1_545 S
C1242 C1254 1.349 . S
C1243 C1241 1.321 1_545 S
C1243 C1259 1.460 . S
C1243 H1265 0.925 1_545 S
C1244 H1240 0.949 . S
C1244 C1252 1.574 . S
C1244 C1260 1.368 . S
H1245 C1253 0.950 . S
H1246 C1251 0.950 . S
H1247 C1252 0.949 . S
H1248 C1254 0.950 . S
H1249 C1255 0.950 . S
H1250 C1256 0.949 1_565 S
C1251 H1246 0.950 . S
C1251 C1253 1.327 . S
C1251 C1257 1.429 . S
C1252 C1244 1.574 . S
C1252 H1247 0.949 . S
C1252 C1258 1.368 . S
C1253 C1237 1.349 . S
C1253 H1245 0.950 . S
C1253 C1251 1.327 . S
C1254 C1242 1.349 . S
C1254 H1248 0.950 . S
C1254 C1255 1.327 . S
C1255 H1249 0.950 . S
C1255 C1254 1.327 . S
C1255 C1259 1.429 . S
C1256 C1239 1.574 . S
C1256 H1250 0.949 1_545 S
C1256 C1260 1.368 . S
C1257 C1238 1.429 . S
C1257 C1251 1.429 . S
C1257 C1258 1.523 . S
C1258 C1239 1.368 . S
C1258 C1252 1.368 . S
C1258 C1257 1.523 . S
C1259 C1243 1.460 . S
C1259 C1255 1.429 . S
C1259 C1260 1.523 . S
C1260 C1244 1.368 . S
C1260 C1256 1.368 . S
C1260 C1259 1.523 . S
H1261 C1236 0.950 . S
H1262 C1238 0.950 . S
H1263 C1239 0.949 . S
H1264 C1241 0.950 . S
H1265 C1243 0.925 1_565 S
C1266 C1267 1.349 . S
C1266 C1268 1.327 . S
C1266 H1291 0.950 . S
C1267 C1266 1.349 . S
C1267 C1283 1.349 . S
C1268 C1266 1.327 . S
C1268 C1287 1.429 . S
C1268 H1292 0.950 . S
C1269 C1286 1.574 . S
C1269 C1288 1.368 . S
C1269 H1293 0.949 . S
H1270 C1274 0.949 . S
C1271 C1272 1.349 . S
C1271 C1273 1.327 . S
C1271 H1294 0.950 . S
C1272 C1271 1.349 . S
C1272 C1284 1.349 . S
C1273 C1271 1.327 . S
C1273 C1289 1.429 . S
C1273 H1295 0.950 . S
C1274 H1270 0.949 . S
C1274 C1282 1.574 . S
C1274 C1290 1.368 . S
H1275 C1283 0.950 . S
H1276 C1281 0.950 . S
H1277 C1282 0.949 . S
H1278 C1284 0.950 . S
H1279 C1285 0.950 . S
H1280 C1286 0.949 . S
C1281 H1276 0.950 . S
C1281 C1283 1.327 . S
C1281 C1287 1.429 . S
C1282 C1274 1.574 . S
C1282 H1277 0.949 . S
C1282 C1288 1.368 . S
C1283 C1267 1.349 . S
C1283 H1275 0.950 . S
C1283 C1281 1.327 . S
C1284 C1272 1.349 . S
C1284 H1278 0.950 . S
C1284 C1285 1.327 . S
C1285 H1279 0.950 . S
C1285 C1284 1.327 . S
C1285 C1289 1.429 . S
C1286 C1269 1.574 . S
C1286 H1280 0.949 . S
C1286 C1290 1.368 . S
C1287 C1268 1.429 . S
C1287 C1281 1.429 . S
C1287 C1288 1.523 . S
C1288 C1269 1.368 . S
C1288 C1282 1.368 . S
C1288 C1287 1.523 . S
C1289 C1273 1.429 . S
C1289 C1285 1.429 . S
C1289 C1290 1.523 . S
C1290 C1274 1.368 . S
C1290 C1286 1.368 . S
C1290 C1289 1.523 . S
H1291 C1266 0.950 . S
H1292 C1268 0.950 . S
H1293 C1269 0.949 . S
H1294 C1271 0.950 . S
H1295 C1273 0.950 . S
C1296 C1297 1.349 . S
C1296 C1298 1.327 . S
C1296 H1321 0.950 . S
C1297 C1296 1.349 . S
C1297 C1313 1.349 . S
C1298 C1296 1.327 . S
C1298 C1317 1.429 . S
C1298 H1322 0.950 . S
C1299 C1316 1.574 . S
C1299 C1318 1.368 . S
C1299 H1323 0.949 1_554 S
H1300 C1304 0.949 . S
C1301 C1302 1.370 . S
C1301 C1303 1.330 . S
C1301 H1324 0.926 1_554 S
C1302 C1301 1.370 . S
C1302 C1314 1.349 . S
C1303 C1301 1.330 . S
C1303 C1319 1.429 . S
C1303 H1325 0.950 1_554 S
C1304 H1300 0.949 . S
C1304 C1312 1.574 . S
C1304 C1320 1.368 . S
H1305 C1313 0.950 . S
H1306 C1311 0.950 1_556 S
H1307 C1312 0.949 . S
H1308 C1314 0.950 . S
H1309 C1315 0.950 . S
H1310 C1316 0.949 1_556 S
C1311 H1306 0.950 1_554 S
C1311 C1313 1.327 . S
C1311 C1317 1.429 . S
C1312 C1304 1.574 . S
C1312 H1307 0.949 . S
C1312 C1318 1.368 . S
C1313 C1297 1.349 . S
C1313 H1305 0.950 . S
C1313 C1311 1.327 . S
C1314 C1302 1.349 . S
C1314 H1308 0.950 . S
C1314 C1315 1.327 . S
C1315 H1309 0.950 . S
C1315 C1314 1.327 . S
C1315 C1319 1.429 . S
C1316 C1299 1.574 . S
C1316 H1310 0.949 1_554 S
C1316 C1320 1.368 . S
C1317 C1298 1.429 . S
C1317 C1311 1.429 . S
C1317 C1318 1.523 . S
C1318 C1299 1.368 . S
C1318 C1312 1.368 . S
C1318 C1317 1.523 . S
C1319 C1303 1.429 . S
C1319 C1315 1.429 . S
C1319 C1320 1.523 . S
C1320 C1304 1.368 . S
C1320 C1316 1.368 . S
C1320 C1319 1.523 . S
H1321 C1296 0.950 . S
H1322 C1298 0.950 . S
H1323 C1299 0.949 1_556 S
H1324 C1301 0.926 1_556 S
H1325 C1303 0.950 1_556 S
C1326 C1327 1.349 . S
C1326 C1328 1.327 . S
C1326 H1351 0.950 . S
C1327 C1326 1.349 . S
C1327 C1343 1.349 . S
C1328 C1326 1.327 . S
C1328 C1347 1.429 . S
C1328 H1352 0.950 . S
C1329 C1346 1.574 . S
C1329 C1348 1.368 . S
C1329 H1353 0.949 . S
H1330 C1334 0.949 . S
C1331 C1332 1.349 . S
C1331 C1333 1.327 . S
C1331 H1354 0.950 . S
C1332 C1331 1.349 . S
C1332 C1344 1.349 . S
C1333 C1331 1.327 . S
C1333 C1349 1.429 . S
C1333 H1355 0.950 . S
C1334 H1330 0.949 . S
C1334 C1342 1.574 . S
C1334 C1350 1.368 . S
H1335 C1343 0.950 . S
H1336 C1341 0.950 . S
H1337 C1342 0.949 . S
H1338 C1344 0.950 . S
H1339 C1345 0.950 . S
H1340 C1346 0.949 . S
C1341 H1336 0.950 . S
C1341 C1343 1.327 . S
C1341 C1347 1.429 . S
C1342 C1334 1.574 . S
C1342 H1337 0.949 . S
C1342 C1348 1.368 . S
C1343 C1327 1.349 . S
C1343 H1335 0.950 . S
C1343 C1341 1.327 . S
C1344 C1332 1.349 . S
C1344 H1338 0.950 . S
C1344 C1345 1.327 . S
C1345 H1339 0.950 . S
C1345 C1344 1.327 . S
C1345 C1349 1.429 . S
C1346 C1329 1.574 . S
C1346 H1340 0.949 . S
C1346 C1350 1.368 . S
C1347 C1328 1.429 . S
C1347 C1341 1.429 . S
C1347 C1348 1.523 . S
C1348 C1329 1.368 . S
C1348 C1342 1.368 . S
C1348 C1347 1.523 . S
C1349 C1333 1.429 . S
C1349 C1345 1.429 . S
C1349 C1350 1.523 . S
C1350 C1334 1.368 . S
C1350 C1346 1.368 . S
C1350 C1349 1.523 . S
H1351 C1326 0.950 . S
H1352 C1328 0.950 . S
H1353 C1329 0.949 . S
H1354 C1331 0.950 . S
H1355 C1333 0.950 . S
C1356 C1357 1.349 . S
C1356 C1358 1.327 . S
C1356 H1381 0.950 . S
C1357 C1356 1.349 . S
C1357 C1373 1.349 . S
C1358 C1356 1.327 . S
C1358 C1377 1.429 . S
C1358 H1382 0.950 . S
C1359 C1376 1.574 . S
C1359 C1378 1.368 . S
C1359 H1383 0.949 . S
H1360 C1364 0.949 . S
C1361 C1362 1.349 . S
C1361 C1363 1.327 . S
C1361 H1384 0.950 . S
C1362 C1361 1.349 . S
C1362 C1374 1.349 . S
C1363 C1361 1.327 . S
C1363 C1379 1.429 . S
C1363 H1385 0.950 . S
C1364 H1360 0.949 . S
C1364 C1372 1.574 . S
C1364 C1380 1.368 . S
H1365 C1373 0.950 . S
H1366 C1371 0.950 . S
H1367 C1372 0.949 . S
H1368 C1374 0.950 . S
H1369 C1375 0.950 . S
H1370 C1376 0.949 . S
C1371 H1366 0.950 . S
C1371 C1373 1.327 . S
C1371 C1377 1.429 . S
C1372 C1364 1.574 . S
C1372 H1367 0.949 . S
C1372 C1378 1.368 . S
C1373 C1357 1.349 . S
C1373 H1365 0.950 . S
C1373 C1371 1.327 . S
C1374 C1362 1.349 . S
C1374 H1368 0.950 . S
C1374 C1375 1.327 . S
C1375 H1369 0.950 . S
C1375 C1374 1.327 . S
C1375 C1379 1.429 . S
C1376 C1359 1.574 . S
C1376 H1370 0.949 . S
C1376 C1380 1.368 . S
C1377 C1358 1.429 . S
C1377 C1371 1.429 . S
C1377 C1378 1.523 . S
C1378 C1359 1.368 . S
C1378 C1372 1.368 . S
C1378 C1377 1.523 . S
C1379 C1363 1.429 . S
C1379 C1375 1.429 . S
C1379 C1380 1.523 . S
C1380 C1364 1.368 . S
C1380 C1376 1.368 . S
C1380 C1379 1.523 . S
H1381 C1356 0.950 . S
H1382 C1358 0.950 . S
H1383 C1359 0.949 . S
H1384 C1361 0.950 . S
H1385 C1363 0.950 . S
C1386 C1387 1.349 . S
C1386 C1388 1.327 . S
C1386 H1411 0.950 . S
C1387 C1386 1.349 . S
C1387 C1403 1.349 . S
C1388 C1386 1.327 . S
C1388 C1407 1.429 . S
C1388 H1412 0.950 . S
C1389 C1406 1.574 . S
C1389 C1408 1.368 . S
C1389 H1413 0.949 . S
H1390 C1394 0.949 . S
C1391 C1392 1.349 . S
C1391 C1393 1.327 . S
C1391 H1414 0.950 . S
C1392 C1391 1.349 . S
C1392 C1404 1.349 . S
C1393 C1391 1.327 . S
C1393 C1409 1.429 . S
C1393 H1415 0.950 . S
C1394 H1390 0.949 . S
C1394 C1402 1.574 . S
C1394 C1410 1.368 . S
H1395 C1403 0.950 . S
H1396 C1401 0.950 . S
H1397 C1402 0.949 . S
H1398 C1404 0.950 . S
H1399 C1405 0.950 . S
H1400 C1406 0.949 . S
C1401 H1396 0.950 . S
C1401 C1403 1.327 . S
C1401 C1407 1.429 . S
C1402 C1394 1.574 . S
C1402 H1397 0.949 . S
C1402 C1408 1.368 . S
C1403 C1387 1.349 . S
C1403 H1395 0.950 . S
C1403 C1401 1.327 . S
C1404 C1392 1.349 . S
C1404 H1398 0.950 . S
C1404 C1405 1.327 . S
C1405 H1399 0.950 . S
C1405 C1404 1.327 . S
C1405 C1409 1.429 . S
C1406 C1389 1.574 . S
C1406 H1400 0.949 . S
C1406 C1410 1.368 . S
C1407 C1388 1.429 . S
C1407 C1401 1.429 . S
C1407 C1408 1.523 . S
C1408 C1389 1.368 . S
C1408 C1402 1.368 . S
C1408 C1407 1.523 . S
C1409 C1393 1.429 . S
C1409 C1405 1.429 . S
C1409 C1410 1.523 . S
C1410 C1394 1.368 . S
C1410 C1406 1.368 . S
C1410 C1409 1.523 . S
H1411 C1386 0.950 . S
H1412 C1388 0.950 . S
H1413 C1389 0.949 . S
H1414 C1391 0.950 . S
H1415 C1393 0.950 . S
C1416 C1417 1.349 . S
C1416 C1418 1.327 . S
C1416 H1441 0.950 . S
C1417 C1416 1.349 . S
C1417 C1433 1.349 . S
C1418 C1416 1.327 . S
C1418 C1437 1.429 . S
C1418 H1442 0.950 . S
C1419 C1436 1.574 . S
C1419 C1438 1.368 . S
C1419 H1443 0.949 . S
H1420 C1424 0.949 . S
C1421 C1422 1.349 . S
C1421 C1423 1.327 . S
C1421 H1444 0.950 . S
C1422 C1421 1.349 . S
C1422 C1434 1.349 . S
C1423 C1421 1.327 . S
C1423 C1439 1.429 . S
C1423 H1445 0.950 . S
C1424 H1420 0.949 . S
C1424 C1432 1.574 . S
C1424 C1440 1.368 . S
H1425 C1433 0.950 . S
H1426 C1431 0.950 . S
H1427 C1432 0.949 . S
H1428 C1434 0.950 . S
H1429 C1435 0.950 . S
H1430 C1436 0.949 . S
C1431 H1426 0.950 . S
C1431 C1433 1.327 . S
C1431 C1437 1.429 . S
C1432 C1424 1.574 . S
C1432 H1427 0.949 . S
C1432 C1438 1.368 . S
C1433 C1417 1.349 . S
C1433 H1425 0.950 . S
C1433 C1431 1.327 . S
C1434 C1422 1.349 . S
C1434 H1428 0.950 . S
C1434 C1435 1.327 . S
C1435 H1429 0.950 . S
C1435 C1434 1.327 . S
C1435 C1439 1.429 . S
C1436 C1419 1.574 . S
C1436 H1430 0.949 . S
C1436 C1440 1.368 . S
C1437 C1418 1.429 . S
C1437 C1431 1.429 . S
C1437 C1438 1.523 . S
C1438 C1419 1.368 . S
C1438 C1432 1.368 . S
C1438 C1437 1.523 . S
C1439 C1423 1.429 . S
C1439 C1435 1.429 . S
C1439 C1440 1.523 . S
C1440 C1424 1.368 . S
C1440 C1436 1.368 . S
C1440 C1439 1.523 . S
H1441 C1416 0.950 . S
H1442 C1418 0.950 . S
H1443 C1419 0.949 . S
H1444 C1421 0.950 . S
H1445 C1423 0.950 . S
C1446 C1447 1.349 . S
C1446 C1448 1.327 . S
C1446 H1471 0.950 . S
C1447 C1446 1.349 . S
C1447 C1463 1.349 . S
C1448 C1446 1.327 . S
C1448 C1467 1.429 . S
C1448 H1472 0.950 . S
C1449 C1466 1.574 . S
C1449 C1468 1.368 . S
C1449 H1473 0.949 . S
H1450 C1454 0.949 . S
C1451 C1452 1.349 . S
C1451 C1453 1.327 . S
C1451 H1474 0.950 . S
C1452 C1451 1.349 . S
C1452 C1464 1.349 . S
C1453 C1451 1.327 . S
C1453 C1469 1.429 . S
C1453 H1475 0.950 . S
C1454 H1450 0.949 . S
C1454 C1462 1.574 . S
C1454 C1470 1.368 . S
H1455 C1463 0.950 . S
H1456 C1461 0.950 . S
H1457 C1462 0.949 . S
H1458 C1464 0.950 . S
H1459 C1465 0.950 . S
H1460 C1466 0.949 . S
C1461 H1456 0.950 . S
C1461 C1463 1.327 . S
C1461 C1467 1.429 . S
C1462 C1454 1.574 . S
C1462 H1457 0.949 . S
C1462 C1468 1.368 . S
C1463 C1447 1.349 . S
C1463 H1455 0.950 . S
C1463 C1461 1.327 . S
C1464 C1452 1.349 . S
C1464 H1458 0.950 . S
C1464 C1465 1.327 . S
C1465 H1459 0.950 . S
C1465 C1464 1.327 . S
C1465 C1469 1.429 . S
C1466 C1449 1.574 . S
C1466 H1460 0.949 . S
C1466 C1470 1.368 . S
C1467 C1448 1.429 . S
C1467 C1461 1.429 . S
C1467 C1468 1.523 . S
C1468 C1449 1.368 . S
C1468 C1462 1.368 . S
C1468 C1467 1.523 . S
C1469 C1453 1.429 . S
C1469 C1465 1.429 . S
C1469 C1470 1.523 . S
C1470 C1454 1.368 . S
C1470 C1466 1.368 . S
C1470 C1469 1.523 . S
H1471 C1446 0.950 . S
H1472 C1448 0.950 . S
H1473 C1449 0.949 . S
H1474 C1451 0.950 . S
H1475 C1453 0.950 . S
C1476 C1477 1.349 . S
C1476 C1478 1.327 . S
C1476 H1501 0.950 . S
C1477 C1476 1.349 . S
C1477 C1493 1.349 . S
C1478 C1476 1.327 . S
C1478 C1497 1.429 . S
C1478 H1502 0.950 . S
C1479 C1496 1.574 . S
C1479 C1498 1.368 . S
C1479 H1503 0.949 . S
H1480 C1484 0.949 . S
C1481 C1482 1.349 . S
C1481 C1483 1.327 . S
C1481 H1504 0.950 . S
C1482 C1481 1.349 . S
C1482 C1494 1.349 . S
C1483 C1481 1.327 . S
C1483 C1499 1.429 . S
C1483 H1505 0.950 . S
C1484 H1480 0.949 . S
C1484 C1492 1.574 . S
C1484 C1500 1.368 . S
H1485 C1493 0.950 . S
H1486 C1491 0.950 . S
H1487 C1492 0.949 . S
H1488 C1494 0.950 . S
H1489 C1495 0.950 . S
H1490 C1496 0.949 . S
C1491 H1486 0.950 . S
C1491 C1493 1.327 . S
C1491 C1497 1.429 . S
C1492 C1484 1.574 . S
C1492 H1487 0.949 . S
C1492 C1498 1.368 . S
C1493 C1477 1.349 . S
C1493 H1485 0.950 . S
C1493 C1491 1.327 . S
C1494 C1482 1.349 . S
C1494 H1488 0.950 . S
C1494 C1495 1.327 . S
C1495 H1489 0.950 . S
C1495 C1494 1.327 . S
C1495 C1499 1.429 . S
C1496 C1479 1.574 . S
C1496 H1490 0.949 . S
C1496 C1500 1.368 . S
C1497 C1478 1.429 . S
C1497 C1491 1.429 . S
C1497 C1498 1.523 . S
C1498 C1479 1.368 . S
C1498 C1492 1.368 . S
C1498 C1497 1.523 . S
C1499 C1483 1.429 . S
C1499 C1495 1.429 . S
C1499 C1500 1.523 . S
C1500 C1484 1.368 . S
C1500 C1496 1.368 . S
C1500 C1499 1.523 . S
H1501 C1476 0.950 . S
H1502 C1478 0.950 . S
H1503 C1479 0.949 . S
H1504 C1481 0.950 . S
H1505 C1483 0.950 . S
C1506 C1507 1.349 . S
C1506 C1508 1.327 . S
C1506 H1531 0.950 . S
C1507 C1506 1.349 . S
C1507 C1523 1.349 . S
C1508 C1506 1.327 . S
C1508 C1527 1.429 . S
C1508 H1532 0.950 . S
C1509 C1526 1.574 . S
C1509 C1528 1.368 . S
C1509 H1533 0.949 . S
H1510 C1514 0.949 . S
C1511 C1512 1.349 . S
C1511 C1513 1.327 . S
C1511 H1534 0.950 . S
C1512 C1511 1.349 . S
C1512 C1524 1.349 . S
C1513 C1511 1.327 . S
C1513 C1529 1.429 . S
C1513 H1535 0.950 . S
C1514 H1510 0.949 . S
C1514 C1522 1.574 . S
C1514 C1530 1.368 . S
H1515 C1523 0.950 . S
H1516 C1521 0.950 . S
H1517 C1522 0.949 . S
H1518 C1524 0.950 . S
H1519 C1525 0.950 . S
H1520 C1526 0.949 . S
C1521 H1516 0.950 . S
C1521 C1523 1.327 . S
C1521 C1527 1.429 . S
C1522 C1514 1.574 . S
C1522 H1517 0.949 . S
C1522 C1528 1.368 . S
C1523 C1507 1.349 . S
C1523 H1515 0.950 . S
C1523 C1521 1.327 . S
C1524 C1512 1.349 . S
C1524 H1518 0.950 . S
C1524 C1525 1.327 . S
C1525 H1519 0.950 . S
C1525 C1524 1.327 . S
C1525 C1529 1.429 . S
C1526 C1509 1.574 . S
C1526 H1520 0.949 . S
C1526 C1530 1.368 . S
C1527 C1508 1.429 . S
C1527 C1521 1.429 . S
C1527 C1528 1.523 . S
C1528 C1509 1.368 . S
C1528 C1522 1.368 . S
C1528 C1527 1.523 . S
C1529 C1513 1.429 . S
C1529 C1525 1.429 . S
C1529 C1530 1.523 . S
C1530 C1514 1.368 . S
C1530 C1526 1.368 . S
C1530 C1529 1.523 . S
H1531 C1506 0.950 . S
H1532 C1508 0.950 . S
H1533 C1509 0.949 . S
H1534 C1511 0.950 . S
H1535 C1513 0.950 . S
C1536 C1537 1.349 . S
C1536 C1538 1.327 . S
C1536 H1561 0.950 . S
C1537 C1536 1.349 . S
C1537 C1553 1.349 . S
C1538 C1536 1.327 . S
C1538 C1557 1.429 . S
C1538 H1562 0.950 . S
C1539 C1556 1.574 . S
C1539 C1558 1.368 . S
C1539 H1563 0.949 . S
H1540 C1544 0.949 . S
C1541 C1542 1.349 1_554 S
C1541 C1543 1.327 1_554 S
C1541 H1564 0.950 . S
C1542 C1541 1.349 1_556 S
C1542 C1554 1.349 . S
C1543 C1541 1.327 1_556 S
C1543 C1559 1.429 . S
C1543 H1565 0.950 1_556 S
C1544 H1540 0.949 . S
C1544 C1552 1.574 . S
C1544 C1560 1.368 . S
H1545 C1553 0.950 . S
H1546 C1551 0.950 . S
H1547 C1552 0.949 . S
H1548 C1554 0.950 . S
H1549 C1555 0.950 . S
H1550 C1556 0.949 . S
C1551 H1546 0.950 . S
C1551 C1553 1.327 . S
C1551 C1557 1.429 . S
C1552 C1544 1.574 . S
C1552 H1547 0.949 . S
C1552 C1558 1.368 . S
C1553 C1537 1.349 . S
C1553 H1545 0.950 . S
C1553 C1551 1.327 . S
C1554 C1542 1.349 . S
C1554 H1548 0.950 . S
C1554 C1555 1.327 . S
C1555 H1549 0.950 . S
C1555 C1554 1.327 . S
C1555 C1559 1.429 . S
C1556 C1539 1.574 . S
C1556 H1550 0.949 . S
C1556 C1560 1.368 . S
C1557 C1538 1.429 . S
C1557 C1551 1.429 . S
C1557 C1558 1.523 . S
C1558 C1539 1.368 . S
C1558 C1552 1.368 . S
C1558 C1557 1.523 . S
C1559 C1543 1.429 . S
C1559 C1555 1.429 . S
C1559 C1560 1.523 . S
C1560 C1544 1.368 . S
C1560 C1556 1.368 . S
C1560 C1559 1.523 . S
H1561 C1536 0.950 . S
H1562 C1538 0.950 . S
H1563 C1539 0.949 . S
H1564 C1541 0.950 . S
H1565 C1543 0.950 1_554 S
C1566 C1567 1.349 . S
C1566 C1568 1.327 . S
C1566 H1591 0.950 . S
C1567 C1566 1.349 . S
C1567 C1583 1.349 . S
C1568 C1566 1.327 . S
C1568 C1587 1.429 . S
C1568 H1592 0.950 . S
C1569 C1586 1.574 . S
C1569 C1588 1.368 . S
C1569 H1593 0.949 . S
H1570 C1574 0.949 . S
C1571 C1572 1.349 . S
C1571 C1573 1.327 . S
C1571 H1594 0.950 . S
C1572 C1571 1.349 . S
C1572 C1584 1.349 . S
C1573 C1571 1.327 . S
C1573 C1589 1.429 . S
C1573 H1595 0.950 . S
C1574 H1570 0.949 . S
C1574 C1582 1.574 . S
C1574 C1590 1.368 . S
H1575 C1583 0.950 . S
H1576 C1581 0.950 . S
H1577 C1582 0.949 . S
H1578 C1584 0.950 . S
H1579 C1585 0.950 . S
H1580 C1586 0.949 . S
C1581 H1576 0.950 . S
C1581 C1583 1.327 . S
C1581 C1587 1.429 . S
C1582 C1574 1.574 . S
C1582 H1577 0.949 . S
C1582 C1588 1.368 . S
C1583 C1567 1.349 . S
C1583 H1575 0.950 . S
C1583 C1581 1.327 . S
C1584 C1572 1.349 . S
C1584 H1578 0.950 . S
C1584 C1585 1.327 . S
C1585 H1579 0.950 . S
C1585 C1584 1.327 . S
C1585 C1589 1.429 . S
C1586 C1569 1.574 . S
C1586 H1580 0.949 . S
C1586 C1590 1.368 . S
C1587 C1568 1.429 . S
C1587 C1581 1.429 . S
C1587 C1588 1.523 . S
C1588 C1569 1.368 . S
C1588 C1582 1.368 . S
C1588 C1587 1.523 . S
C1589 C1573 1.429 . S
C1589 C1585 1.429 . S
C1589 C1590 1.523 . S
C1590 C1574 1.368 . S
C1590 C1586 1.368 . S
C1590 C1589 1.523 . S
H1591 C1566 0.950 . S
H1592 C1568 0.950 . S
H1593 C1569 0.949 . S
H1594 C1571 0.950 . S
H1595 C1573 0.950 . S
C1596 C1597 1.349 . S
C1596 C1598 1.327 . S
C1596 H1621 0.950 . S
C1597 C1596 1.349 . S
C1597 C1613 1.349 . S
C1598 C1596 1.327 . S
C1598 C1617 1.429 . S
C1598 H1622 0.950 . S
C1599 C1616 1.574 . S
C1599 C1618 1.368 . S
C1599 H1623 0.949 . S
H1600 C1604 0.949 . S
C1601 C1602 1.349 . S
C1601 C1603 1.327 . S
C1601 H1624 0.950 . S
C1602 C1601 1.349 . S
C1602 C1614 1.349 . S
C1603 C1601 1.327 . S
C1603 C1619 1.429 . S
C1603 H1625 0.950 . S
C1604 H1600 0.949 . S
C1604 C1612 1.574 . S
C1604 C1620 1.368 . S
H1605 C1613 0.950 . S
H1606 C1611 0.950 . S
H1607 C1612 0.949 . S
H1608 C1614 0.950 . S
H1609 C1615 0.950 . S
H1610 C1616 0.949 . S
C1611 H1606 0.950 . S
C1611 C1613 1.327 . S
C1611 C1617 1.429 . S
C1612 C1604 1.574 . S
C1612 H1607 0.949 . S
C1612 C1618 1.368 . S
C1613 C1597 1.349 . S
C1613 H1605 0.950 . S
C1613 C1611 1.327 . S
C1614 C1602 1.349 . S
C1614 H1608 0.950 . S
C1614 C1615 1.327 . S
C1615 H1609 0.950 . S
C1615 C1614 1.327 . S
C1615 C1619 1.429 . S
C1616 C1599 1.574 . S
C1616 H1610 0.949 . S
C1616 C1620 1.368 . S
C1617 C1598 1.429 . S
C1617 C1611 1.429 . S
C1617 C1618 1.523 . S
C1618 C1599 1.368 . S
C1618 C1612 1.368 . S
C1618 C1617 1.523 . S
C1619 C1603 1.429 . S
C1619 C1615 1.429 . S
C1619 C1620 1.523 . S
C1620 C1604 1.368 . S
C1620 C1616 1.368 . S
C1620 C1619 1.523 . S
H1621 C1596 0.950 . S
H1622 C1598 0.950 . S
H1623 C1599 0.949 . S
H1624 C1601 0.950 . S
H1625 C1603 0.950 . S
C1626 C1627 1.349 . S
C1626 C1628 1.327 . S
C1626 H1651 0.950 . S
C1627 C1626 1.349 . S
C1627 C1643 1.349 . S
C1628 C1626 1.327 . S
C1628 C1647 1.429 . S
C1628 H1652 0.950 . S
C1629 C1646 1.574 . S
C1629 C1648 1.368 . S
C1629 H1653 0.949 . S
H1630 C1634 0.949 . S
C1631 C1632 1.349 . S
C1631 C1633 1.327 . S
C1631 H1654 0.950 . S
C1632 C1631 1.349 . S
C1632 C1644 1.349 . S
C1633 C1631 1.327 . S
C1633 C1649 1.429 . S
C1633 H1655 0.950 . S
C1634 H1630 0.949 . S
C1634 C1642 1.574 . S
C1634 C1650 1.368 . S
H1635 C1643 0.950 . S
H1636 C1641 0.950 . S
H1637 C1642 0.949 . S
H1638 C1644 0.950 . S
H1639 C1645 0.950 . S
H1640 C1646 0.949 . S
C1641 H1636 0.950 . S
C1641 C1643 1.327 . S
C1641 C1647 1.429 . S
C1642 C1634 1.574 . S
C1642 H1637 0.949 . S
C1642 C1648 1.368 . S
C1643 C1627 1.349 . S
C1643 H1635 0.950 . S
C1643 C1641 1.327 . S
C1644 C1632 1.349 . S
C1644 H1638 0.950 . S
C1644 C1645 1.327 . S
C1645 H1639 0.950 . S
C1645 C1644 1.327 . S
C1645 C1649 1.429 . S
C1646 C1629 1.574 . S
C1646 H1640 0.949 . S
C1646 C1650 1.368 . S
C1647 C1628 1.429 . S
C1647 C1641 1.429 . S
C1647 C1648 1.523 . S
C1648 C1629 1.368 . S
C1648 C1642 1.368 . S
C1648 C1647 1.523 . S
C1649 C1633 1.429 . S
C1649 C1645 1.429 . S
C1649 C1650 1.523 . S
C1650 C1634 1.368 . S
C1650 C1646 1.368 . S
C1650 C1649 1.523 . S
H1651 C1626 0.950 . S
H1652 C1628 0.950 . S
H1653 C1629 0.949 . S
H1654 C1631 0.950 . S
H1655 C1633 0.950 . S
C1656 C1657 1.349 . S
C1656 C1658 1.327 . S
C1656 H1681 0.950 . S
C1657 C1656 1.349 . S
C1657 C1673 1.349 1_455 S
C1658 C1656 1.327 . S
C1658 C1677 1.429 . S
C1658 H1682 0.950 . S
C1659 C1676 1.574 1_655 S
C1659 C1678 1.368 1_655 S
C1659 H1683 0.949 . S
H1660 C1664 0.949 . S
C1661 C1662 1.349 . S
C1661 C1663 1.327 . S
C1661 H1684 0.950 . S
C1662 C1661 1.349 . S
C1662 C1674 1.349 . S
C1663 C1661 1.327 . S
C1663 C1679 1.429 . S
C1663 H1685 0.950 1_455 S
C1664 H1660 0.949 . S
C1664 C1672 1.574 . S
C1664 C1680 1.368 . S
H1665 C1673 0.950 . S
H1666 C1671 0.950 . S
H1667 C1672 0.949 . S
H1668 C1674 0.950 . S
H1669 C1675 0.950 . S
H1670 C1676 0.949 1_655 S
C1671 H1666 0.950 . S
C1671 C1673 1.327 . S
C1671 C1677 1.429 1_655 S
C1672 C1664 1.574 . S
C1672 H1667 0.949 . S
C1672 C1678 1.368 . S
C1673 C1657 1.349 1_655 S
C1673 H1665 0.950 . S
C1673 C1671 1.327 . S
C1674 C1662 1.349 . S
C1674 H1668 0.950 . S
C1674 C1675 1.327 . S
C1675 H1669 0.950 . S
C1675 C1674 1.327 . S
C1675 C1679 1.429 . S
C1676 C1659 1.574 1_455 S
C1676 H1670 0.949 1_455 S
C1676 C1680 1.368 . S
C1677 C1658 1.429 . S
C1677 C1671 1.429 1_455 S
C1677 C1678 1.523 . S
C1678 C1659 1.368 1_455 S
C1678 C1672 1.368 . S
C1678 C1677 1.523 . S
C1679 C1663 1.429 . S
C1679 C1675 1.429 . S
C1679 C1680 1.523 . S
C1680 C1664 1.368 . S
C1680 C1676 1.368 . S
C1680 C1679 1.523 . S
H1681 C1656 0.950 . S
H1682 C1658 0.950 . S
H1683 C1659 0.949 . S
H1684 C1661 0.950 . S
H1685 C1663 0.950 1_655 S
C1686 C1687 1.349 . S
C1686 C1688 1.327 . S
C1686 H1711 0.950 . S
C1687 C1686 1.349 . S
C1687 C1703 1.349 . S
C1688 C1686 1.327 . S
C1688 C1707 1.429 . S
C1688 H1712 0.950 . S
C1689 C1706 1.574 . S
C1689 C1708 1.368 . S
C1689 H1713 0.949 . S
H1690 C1694 0.949 . S
C1691 C1692 1.349 . S
C1691 C1693 1.327 . S
C1691 H1714 0.950 . S
C1692 C1691 1.349 . S
C1692 C1704 1.349 . S
C1693 C1691 1.327 . S
C1693 C1709 1.429 . S
C1693 H1715 0.950 . S
C1694 H1690 0.949 . S
C1694 C1702 1.574 . S
C1694 C1710 1.368 . S
H1695 C1703 0.950 . S
H1696 C1701 0.950 . S
H1697 C1702 0.949 . S
H1698 C1704 0.950 . S
H1699 C1705 0.950 . S
H1700 C1706 0.949 . S
C1701 H1696 0.950 . S
C1701 C1703 1.327 . S
C1701 C1707 1.429 . S
C1702 C1694 1.574 . S
C1702 H1697 0.949 . S
C1702 C1708 1.368 . S
C1703 C1687 1.349 . S
C1703 H1695 0.950 . S
C1703 C1701 1.327 . S
C1704 C1692 1.349 . S
C1704 H1698 0.950 . S
C1704 C1705 1.327 . S
C1705 H1699 0.950 . S
C1705 C1704 1.327 . S
C1705 C1709 1.429 . S
C1706 C1689 1.574 . S
C1706 H1700 0.949 . S
C1706 C1710 1.368 . S
C1707 C1688 1.429 . S
C1707 C1701 1.429 . S
C1707 C1708 1.523 . S
C1708 C1689 1.368 . S
C1708 C1702 1.368 . S
C1708 C1707 1.523 . S
C1709 C1693 1.429 . S
C1709 C1705 1.429 . S
C1709 C1710 1.523 . S
C1710 C1694 1.368 . S
C1710 C1706 1.368 . S
C1710 C1709 1.523 . S
H1711 C1686 0.950 . S
H1712 C1688 0.950 . S
H1713 C1689 0.949 . S
H1714 C1691 0.950 . S
H1715 C1693 0.950 . S
C1716 C1717 1.349 . S
C1716 C1718 1.327 . S
C1716 H1741 0.950 . S
C1717 C1716 1.349 . S
C1717 C1733 1.349 . S
C1718 C1716 1.327 . S
C1718 C1737 1.429 . S
C1718 H1742 0.950 . S
C1719 C1736 1.574 . S
C1719 C1738 1.368 . S
C1719 H1743 0.949 . S
H1720 C1724 0.949 . S
C1721 C1722 1.349 . S
C1721 C1723 1.327 . S
C1721 H1744 0.950 . S
C1722 C1721 1.349 . S
C1722 C1734 1.349 . S
C1723 C1721 1.327 . S
C1723 C1739 1.429 . S
C1723 H1745 0.950 . S
C1724 H1720 0.949 . S
C1724 C1732 1.574 . S
C1724 C1740 1.368 . S
H1725 C1733 0.950 . S
H1726 C1731 0.950 . S
H1727 C1732 0.949 . S
H1728 C1734 0.950 . S
H1729 C1735 0.950 . S
H1730 C1736 0.949 . S
C1731 H1726 0.950 . S
C1731 C1733 1.327 . S
C1731 C1737 1.429 . S
C1732 C1724 1.574 . S
C1732 H1727 0.949 . S
C1732 C1738 1.368 . S
C1733 C1717 1.349 . S
C1733 H1725 0.950 . S
C1733 C1731 1.327 . S
C1734 C1722 1.349 . S
C1734 H1728 0.950 . S
C1734 C1735 1.327 . S
C1735 H1729 0.950 . S
C1735 C1734 1.327 . S
C1735 C1739 1.429 . S
C1736 C1719 1.574 . S
C1736 H1730 0.949 . S
C1736 C1740 1.368 . S
C1737 C1718 1.429 . S
C1737 C1731 1.429 . S
C1737 C1738 1.523 . S
C1738 C1719 1.368 . S
C1738 C1732 1.368 . S
C1738 C1737 1.523 . S
C1739 C1723 1.429 . S
C1739 C1735 1.429 . S
C1739 C1740 1.523 . S
C1740 C1724 1.368 . S
C1740 C1736 1.368 . S
C1740 C1739 1.523 . S
H1741 C1716 0.950 . S
H1742 C1718 0.950 . S
H1743 C1719 0.949 . S
H1744 C1721 0.950 . S
H1745 C1723 0.950 . S
C1746 C1747 1.349 . S
C1746 C1748 1.327 . S
C1746 H1771 0.950 . S
C1747 C1746 1.349 . S
C1747 C1763 1.349 . S
C1748 C1746 1.327 . S
C1748 C1767 1.429 . S
C1748 H1772 0.950 . S
C1749 C1766 1.574 . S
C1749 C1768 1.368 . S
C1749 H1773 0.949 . S
H1750 C1754 0.949 . S
C1751 C1752 1.349 . S
C1751 C1753 1.327 . S
C1751 H1774 0.950 . S
C1752 C1751 1.349 . S
C1752 C1764 1.349 . S
C1753 C1751 1.327 . S
C1753 C1769 1.429 . S
C1753 H1775 0.950 . S
C1754 H1750 0.949 . S
C1754 C1762 1.574 . S
C1754 C1770 1.368 . S
H1755 C1763 0.950 . S
H1756 C1761 0.950 . S
H1757 C1762 0.949 . S
H1758 C1764 0.950 . S
H1759 C1765 0.950 . S
H1760 C1766 0.949 . S
C1761 H1756 0.950 . S
C1761 C1763 1.327 . S
C1761 C1767 1.429 . S
C1762 C1754 1.574 . S
C1762 H1757 0.949 . S
C1762 C1768 1.368 . S
C1763 C1747 1.349 . S
C1763 H1755 0.950 . S
C1763 C1761 1.327 . S
C1764 C1752 1.349 . S
C1764 H1758 0.950 . S
C1764 C1765 1.327 . S
C1765 H1759 0.950 . S
C1765 C1764 1.327 . S
C1765 C1769 1.429 . S
C1766 C1749 1.574 . S
C1766 H1760 0.949 . S
C1766 C1770 1.368 . S
C1767 C1748 1.429 . S
C1767 C1761 1.429 . S
C1767 C1768 1.523 . S
C1768 C1749 1.368 . S
C1768 C1762 1.368 . S
C1768 C1767 1.523 . S
C1769 C1753 1.429 . S
C1769 C1765 1.429 . S
C1769 C1770 1.523 . S
C1770 C1754 1.368 . S
C1770 C1766 1.368 . S
C1770 C1769 1.523 . S
H1771 C1746 0.950 . S
H1772 C1748 0.950 . S
H1773 C1749 0.949 . S
H1774 C1751 0.950 . S
H1775 C1753 0.950 . S
C1776 C1777 1.349 . S
C1776 C1778 1.327 . S
C1776 H1801 0.950 . S
C1777 C1776 1.349 . S
C1777 C1793 1.349 . S
C1778 C1776 1.327 . S
C1778 C1797 1.429 . S
C1778 H1802 0.950 . S
C1779 C1796 1.574 . S
C1779 C1798 1.368 . S
C1779 H1803 0.949 . S
H1780 C1784 0.949 . S
C1781 C1782 1.349 . S
C1781 C1783 1.327 . S
C1781 H1804 0.950 . S
C1782 C1781 1.349 . S
C1782 C1794 1.349 . S
C1783 C1781 1.327 . S
C1783 C1799 1.429 . S
C1783 H1805 0.950 . S
C1784 H1780 0.949 . S
C1784 C1792 1.574 . S
C1784 C1800 1.368 . S
H1785 C1793 0.950 . S
H1786 C1791 0.950 . S
H1787 C1792 0.949 . S
H1788 C1794 0.950 . S
H1789 C1795 0.950 . S
H1790 C1796 0.949 . S
C1791 H1786 0.950 . S
C1791 C1793 1.327 . S
C1791 C1797 1.429 . S
C1792 C1784 1.574 . S
C1792 H1787 0.949 . S
C1792 C1798 1.368 . S
C1793 C1777 1.349 . S
C1793 H1785 0.950 . S
C1793 C1791 1.327 . S
C1794 C1782 1.349 . S
C1794 H1788 0.950 . S
C1794 C1795 1.327 . S
C1795 H1789 0.950 . S
C1795 C1794 1.327 . S
C1795 C1799 1.429 . S
C1796 C1779 1.574 . S
C1796 H1790 0.949 . S
C1796 C1800 1.368 . S
C1797 C1778 1.429 . S
C1797 C1791 1.429 . S
C1797 C1798 1.523 . S
C1798 C1779 1.368 . S
C1798 C1792 1.368 . S
C1798 C1797 1.523 . S
C1799 C1783 1.429 . S
C1799 C1795 1.429 . S
C1799 C1800 1.523 . S
C1800 C1784 1.368 . S
C1800 C1796 1.368 . S
C1800 C1799 1.523 . S
H1801 C1776 0.950 . S
H1802 C1778 0.950 . S
H1803 C1779 0.949 . S
H1804 C1781 0.950 . S
H1805 C1783 0.950 . S
C1806 C1807 1.349 . S
C1806 C1808 1.327 . S
C1806 H1831 0.950 . S
C1807 C1806 1.349 . S
C1807 C1823 1.349 . S
C1808 C1806 1.327 . S
C1808 C1827 1.429 . S
C1808 H1832 0.950 . S
C1809 C1826 1.574 . S
C1809 C1828 1.368 . S
C1809 H1833 0.949 . S
H1810 C1814 0.949 . S
C1811 C1812 1.349 . S
C1811 C1813 1.327 . S
C1811 H1834 0.950 . S
C1812 C1811 1.349 . S
C1812 C1824 1.349 . S
C1813 C1811 1.327 . S
C1813 C1829 1.429 . S
C1813 H1835 0.950 . S
C1814 H1810 0.949 . S
C1814 C1822 1.574 . S
C1814 C1830 1.368 . S
H1815 C1823 0.950 . S
H1816 C1821 0.950 . S
H1817 C1822 0.949 . S
H1818 C1824 0.950 . S
H1819 C1825 0.950 . S
H1820 C1826 0.949 . S
C1821 H1816 0.950 . S
C1821 C1823 1.327 . S
C1821 C1827 1.429 . S
C1822 C1814 1.574 . S
C1822 H1817 0.949 . S
C1822 C1828 1.368 . S
C1823 C1807 1.349 . S
C1823 H1815 0.950 . S
C1823 C1821 1.327 . S
C1824 C1812 1.349 . S
C1824 H1818 0.950 . S
C1824 C1825 1.327 . S
C1825 H1819 0.950 . S
C1825 C1824 1.327 . S
C1825 C1829 1.429 . S
C1826 C1809 1.574 . S
C1826 H1820 0.949 . S
C1826 C1830 1.368 . S
C1827 C1808 1.429 . S
C1827 C1821 1.429 . S
C1827 C1828 1.523 . S
C1828 C1809 1.368 . S
C1828 C1822 1.368 . S
C1828 C1827 1.523 . S
C1829 C1813 1.429 . S
C1829 C1825 1.429 . S
C1829 C1830 1.523 . S
C1830 C1814 1.368 . S
C1830 C1826 1.368 . S
C1830 C1829 1.523 . S
H1831 C1806 0.950 . S
H1832 C1808 0.950 . S
H1833 C1809 0.949 . S
H1834 C1811 0.950 . S
H1835 C1813 0.950 . S
C1836 C1837 1.349 1_565 S
C1836 C1838 1.327 . S
C1836 H1861 0.950 . S
C1837 C1836 1.349 1_545 S
C1837 C1853 1.349 . S
C1838 C1836 1.327 . S
C1838 C1857 1.429 1_565 S
C1838 H1862 0.950 . S
C1839 C1856 1.574 . S
C1839 C1858 1.368 . S
C1839 H1863 0.949 . S
H1840 C1844 0.949 . S
C1841 C1842 1.349 . S
C1841 C1843 1.327 . S
C1841 H1864 0.950 . S
C1842 C1841 1.349 . S
C1842 C1854 1.349 1_545 S
C1843 C1841 1.327 . S
C1843 C1859 1.429 . S
C1843 H1865 0.950 . S
C1844 H1840 0.949 . S
C1844 C1852 1.574 . S
C1844 C1860 1.368 1_565 S
H1845 C1853 0.950 . S
H1846 C1851 0.950 . S
H1847 C1852 0.949 . S
H1848 C1854 0.950 . S
H1849 C1855 0.950 . S
H1850 C1856 0.949 . S
C1851 H1846 0.950 . S
C1851 C1853 1.327 . S
C1851 C1857 1.429 . S
C1852 C1844 1.574 . S
C1852 H1847 0.949 . S
C1852 C1858 1.368 1_565 S
C1853 C1837 1.349 . S
C1853 H1845 0.950 . S
C1853 C1851 1.327 . S
C1854 C1842 1.349 1_565 S
C1854 H1848 0.950 . S
C1854 C1855 1.327 . S
C1855 H1849 0.950 . S
C1855 C1854 1.327 . S
C1855 C1859 1.429 1_565 S
C1856 C1839 1.574 . S
C1856 H1850 0.949 . S
C1856 C1860 1.368 . S
C1857 C1838 1.429 1_545 S
C1857 C1851 1.429 . S
C1857 C1858 1.523 . S
C1858 C1839 1.368 . S
C1858 C1852 1.368 1_545 S
C1858 C1857 1.523 . S
C1859 C1843 1.429 . S
C1859 C1855 1.429 1_545 S
C1859 C1860 1.523 . S
C1860 C1844 1.368 1_545 S
C1860 C1856 1.368 . S
C1860 C1859 1.523 . S
H1861 C1836 0.950 . S
H1862 C1838 0.950 . S
H1863 C1839 0.949 . S
H1864 C1841 0.950 . S
H1865 C1843 0.950 . S
C1866 C1867 1.349 . S
C1866 C1868 1.327 . S
C1866 H1891 0.950 . S
C1867 C1866 1.349 . S
C1867 C1883 1.349 . S
C1868 C1866 1.327 . S
C1868 C1887 1.429 . S
C1868 H1892 0.950 . S
C1869 C1886 1.574 . S
C1869 C1888 1.368 . S
C1869 H1893 0.949 . S
H1870 C1874 0.949 . S
C1871 C1872 1.349 . S
C1871 C1873 1.327 . S
C1871 H1894 0.950 . S
C1872 C1871 1.349 . S
C1872 C1884 1.349 . S
C1873 C1871 1.327 . S
C1873 C1889 1.429 . S
C1873 H1895 0.950 . S
C1874 H1870 0.949 . S
C1874 C1882 1.574 . S
C1874 C1890 1.368 . S
H1875 C1883 0.950 . S
H1876 C1881 0.950 . S
H1877 C1882 0.949 . S
H1878 C1884 0.950 . S
H1879 C1885 0.950 . S
H1880 C1886 0.949 . S
C1881 H1876 0.950 . S
C1881 C1883 1.327 . S
C1881 C1887 1.429 . S
C1882 C1874 1.574 . S
C1882 H1877 0.949 . S
C1882 C1888 1.368 . S
C1883 C1867 1.349 . S
C1883 H1875 0.950 . S
C1883 C1881 1.327 . S
C1884 C1872 1.349 . S
C1884 H1878 0.950 . S
C1884 C1885 1.327 . S
C1885 H1879 0.950 . S
C1885 C1884 1.327 . S
C1885 C1889 1.429 . S
C1886 C1869 1.574 . S
C1886 H1880 0.949 . S
C1886 C1890 1.368 . S
C1887 C1868 1.429 . S
C1887 C1881 1.429 . S
C1887 C1888 1.523 . S
C1888 C1869 1.368 . S
C1888 C1882 1.368 . S
C1888 C1887 1.523 . S
C1889 C1873 1.429 . S
C1889 C1885 1.429 . S
C1889 C1890 1.523 . S
C1890 C1874 1.368 . S
C1890 C1886 1.368 . S
C1890 C1889 1.523 . S
H1891 C1866 0.950 . S
H1892 C1868 0.950 . S
H1893 C1869 0.949 . S
H1894 C1871 0.950 . S
H1895 C1873 0.950 . S
C1896 C1897 1.349 . S
C1896 C1898 1.327 . S
C1896 H1921 0.950 . S
C1897 C1896 1.349 . S
C1897 C1913 1.349 . S
C1898 C1896 1.327 . S
C1898 C1917 1.429 . S
C1898 H1922 0.950 . S
C1899 C1916 1.574 . S
C1899 C1918 1.368 . S
C1899 H1923 0.949 . S
H1900 C1904 0.949 . S
C1901 C1902 1.349 . S
C1901 C1903 1.327 . S
C1901 H1924 0.950 1_545 S
C1902 C1901 1.349 . S
C1902 C1914 1.349 1_655 S
C1903 C1901 1.327 . S
C1903 C1919 1.429 . S
C1903 H1925 0.950 1_545 S
C1904 H1900 0.949 . S
C1904 C1912 1.574 . S
C1904 C1920 1.368 . S
H1905 C1913 0.950 . S
H1906 C1911 0.950 . S
H1907 C1912 0.949 . S
H1908 C1914 0.950 . S
H1909 C1915 0.950 . S
H1910 C1916 0.950 1_565 S
C1911 H1906 0.950 . S
C1911 C1913 1.327 . S
C1911 C1917 1.429 . S
C1912 C1904 1.574 . S
C1912 H1907 0.949 . S
C1912 C1918 1.368 . S
C1913 C1897 1.349 . S
C1913 H1905 0.950 . S
C1913 C1911 1.327 . S
C1914 C1902 1.349 1_455 S
C1914 H1908 0.950 . S
C1914 C1915 1.327 1_455 S
C1915 H1909 0.950 . S
C1915 C1914 1.327 1_655 S
C1915 C1919 1.429 . S
C1916 C1899 1.574 . S
C1916 H1910 0.950 1_545 S
C1916 C1920 1.368 . S
C1917 C1898 1.429 . S
C1917 C1911 1.429 . S
C1917 C1918 1.523 . S
C1918 C1899 1.368 . S
C1918 C1912 1.368 . S
C1918 C1917 1.523 . S
C1919 C1903 1.429 . S
C1919 C1915 1.429 . S
C1919 C1920 1.523 . S
C1920 C1904 1.368 . S
C1920 C1916 1.368 . S
C1920 C1919 1.523 . S
H1921 C1896 0.950 . S
H1922 C1898 0.950 . S
H1923 C1899 0.949 . S
H1924 C1901 0.950 1_565 S
H1925 C1903 0.950 1_565 S
C1926 C1927 1.349 . S
C1926 C1928 1.327 . S
C1926 H1951 0.950 . S
C1927 C1926 1.349 . S
C1927 C1943 1.349 . S
C1928 C1926 1.327 . S
C1928 C1947 1.429 . S
C1928 H1952 0.950 . S
C1929 C1946 1.574 . S
C1929 C1948 1.368 . S
C1929 H1953 0.949 . S
H1930 C1934 0.949 . S
C1931 C1932 1.349 . S
C1931 C1933 1.327 . S
C1931 H1954 0.950 . S
C1932 C1931 1.349 . S
C1932 C1944 1.349 . S
C1933 C1931 1.327 . S
C1933 C1949 1.429 . S
C1933 H1955 0.950 . S
C1934 H1930 0.949 . S
C1934 C1942 1.574 . S
C1934 C1950 1.368 . S
H1935 C1943 0.950 . S
H1936 C1941 0.950 . S
H1937 C1942 0.949 . S
H1938 C1944 0.950 . S
H1939 C1945 0.950 . S
H1940 C1946 0.949 . S
C1941 H1936 0.950 . S
C1941 C1943 1.327 . S
C1941 C1947 1.429 . S
C1942 C1934 1.574 . S
C1942 H1937 0.949 . S
C1942 C1948 1.368 . S
C1943 C1927 1.349 . S
C1943 H1935 0.950 . S
C1943 C1941 1.327 . S
C1944 C1932 1.349 . S
C1944 H1938 0.950 . S
C1944 C1945 1.327 . S
C1945 H1939 0.950 . S
C1945 C1944 1.327 . S
C1945 C1949 1.429 . S
C1946 C1929 1.574 . S
C1946 H1940 0.949 . S
C1946 C1950 1.368 . S
C1947 C1928 1.429 . S
C1947 C1941 1.429 . S
C1947 C1948 1.523 . S
C1948 C1929 1.368 . S
C1948 C1942 1.368 . S
C1948 C1947 1.523 . S
C1949 C1933 1.429 . S
C1949 C1945 1.429 . S
C1949 C1950 1.523 . S
C1950 C1934 1.368 . S
C1950 C1946 1.368 . S
C1950 C1949 1.523 . S
H1951 C1926 0.950 . S
H1952 C1928 0.950 . S
H1953 C1929 0.949 . S
H1954 C1931 0.950 . S
H1955 C1933 0.950 . S
C1956 C1957 1.349 1_565 S
C1956 C1958 1.327 . S
C1956 H1981 0.950 . S
C1957 C1956 1.349 1_545 S
C1957 C1973 1.349 . S
C1958 C1956 1.327 . S
C1958 C1977 1.429 1_565 S
C1958 H1982 0.950 . S
C1959 C1976 1.574 . S
C1959 C1978 1.368 . S
C1959 H1983 0.949 . S
H1960 C1964 0.949 1_565 S
C1961 C1962 1.349 . S
C1961 C1963 1.327 . S
C1961 H1984 0.950 . S
C1962 C1961 1.349 . S
C1962 C1974 1.349 . S
C1963 C1961 1.327 . S
C1963 C1979 1.429 . S
C1963 H1985 0.950 . S
C1964 H1960 0.949 1_545 S
C1964 C1972 1.574 . S
C1964 C1980 1.368 . S
H1965 C1973 0.950 . S
H1966 C1971 0.950 . S
H1967 C1972 0.949 1_565 S
H1968 C1974 0.950 . S
H1969 C1975 0.950 . S
H1970 C1976 0.949 . S
C1971 H1966 0.950 . S
C1971 C1973 1.327 . S
C1971 C1977 1.429 . S
C1972 C1964 1.574 . S
C1972 H1967 0.949 1_545 S
C1972 C1978 1.368 . S
C1973 C1957 1.349 . S
C1973 H1965 0.950 . S
C1973 C1971 1.327 . S
C1974 C1962 1.349 . S
C1974 H1968 0.950 . S
C1974 C1975 1.327 . S
C1975 H1969 0.950 . S
C1975 C1974 1.327 . S
C1975 C1979 1.429 . S
C1976 C1959 1.574 . S
C1976 H1970 0.949 . S
C1976 C1980 1.368 . S
C1977 C1958 1.429 1_545 S
C1977 C1971 1.429 . S
C1977 C1978 1.523 . S
C1978 C1959 1.368 . S
C1978 C1972 1.368 . S
C1978 C1977 1.523 . S
C1979 C1963 1.429 . S
C1979 C1975 1.429 . S
C1979 C1980 1.523 . S
C1980 C1964 1.368 . S
C1980 C1976 1.368 . S
C1980 C1979 1.523 . S
H1981 C1956 0.950 . S
H1982 C1958 0.950 . S
H1983 C1959 0.949 . S
H1984 C1961 0.950 . S
H1985 C1963 0.950 . S
C1986 C1987 1.349 . S
C1986 C1988 1.327 . S
C1986 H2011 0.950 . S
C1987 C1986 1.349 . S
C1987 C2003 1.349 . S
C1988 C1986 1.327 . S
C1988 C2007 1.429 . S
C1988 H2012 0.950 . S
C1989 C2006 1.574 . S
C1989 C2008 1.368 . S
C1989 H2013 0.949 . S
H1990 C1994 0.949 . S
C1991 C1992 1.349 . S
C1991 C1993 1.327 . S
C1991 H2014 0.950 . S
C1992 C1991 1.349 . S
C1992 C2004 1.349 . S
C1993 C1991 1.327 . S
C1993 C2009 1.429 . S
C1993 H2015 0.950 . S
C1994 H1990 0.949 . S
C1994 C2002 1.574 . S
C1994 C2010 1.368 . S
H1995 C2003 0.950 . S
H1996 C2001 0.950 . S
H1997 C2002 0.949 . S
H1998 C2004 0.950 . S
H1999 C2005 0.950 . S
H2000 C2006 0.949 . S
C2001 H1996 0.950 . S
C2001 C2003 1.327 . S
C2001 C2007 1.429 . S
C2002 C1994 1.574 . S
C2002 H1997 0.949 . S
C2002 C2008 1.368 . S
C2003 C1987 1.349 . S
C2003 H1995 0.950 . S
C2003 C2001 1.327 . S
C2004 C1992 1.349 . S
C2004 H1998 0.950 . S
C2004 C2005 1.327 . S
C2005 H1999 0.950 . S
C2005 C2004 1.327 . S
C2005 C2009 1.429 . S
C2006 C1989 1.574 . S
C2006 H2000 0.949 . S
C2006 C2010 1.368 . S
C2007 C1988 1.429 . S
C2007 C2001 1.429 . S
C2007 C2008 1.523 . S
C2008 C1989 1.368 . S
C2008 C2002 1.368 . S
C2008 C2007 1.523 . S
C2009 C1993 1.429 . S
C2009 C2005 1.429 . S
C2009 C2010 1.523 . S
C2010 C1994 1.368 . S
C2010 C2006 1.368 . S
C2010 C2009 1.523 . S
H2011 C1986 0.950 . S
H2012 C1988 0.950 . S
H2013 C1989 0.949 . S
H2014 C1991 0.950 . S
H2015 C1993 0.950 . S
C2016 C2017 1.349 . S
C2016 C2018 1.327 . S
C2016 H2041 0.950 . S
C2017 C2016 1.349 . S
C2017 C2033 1.349 . S
C2018 C2016 1.327 . S
C2018 C2037 1.429 . S
C2018 H2042 0.950 . S
C2019 C2036 1.574 . S
C2019 C2038 1.368 . S
C2019 H2043 0.949 . S
H2020 C2024 0.949 . S
C2021 C2022 1.349 1_565 S
C2021 C2023 1.327 . S
C2021 H2044 0.950 . S
C2022 C2021 1.349 1_545 S
C2022 C2034 1.349 . S
C2023 C2021 1.327 . S
C2023 C2039 1.429 . S
C2023 H2045 0.950 . S
C2024 H2020 0.949 . S
C2024 C2032 1.574 . S
C2024 C2040 1.368 . S
H2025 C2033 0.950 . S
H2026 C2031 0.950 . S
H2027 C2032 0.949 . S
H2028 C2034 0.950 . S
H2029 C2035 0.950 . S
H2030 C2036 0.949 . S
C2031 H2026 0.950 . S
C2031 C2033 1.327 . S
C2031 C2037 1.429 . S
C2032 C2024 1.574 . S
C2032 H2027 0.949 . S
C2032 C2038 1.368 . S
C2033 C2017 1.349 . S
C2033 H2025 0.950 . S
C2033 C2031 1.327 . S
C2034 C2022 1.349 . S
C2034 H2028 0.950 . S
C2034 C2035 1.327 . S
C2035 H2029 0.950 . S
C2035 C2034 1.327 . S
C2035 C2039 1.429 1_545 S
C2036 C2019 1.574 . S
C2036 H2030 0.949 . S
C2036 C2040 1.368 . S
C2037 C2018 1.429 . S
C2037 C2031 1.429 . S
C2037 C2038 1.523 . S
C2038 C2019 1.368 . S
C2038 C2032 1.368 . S
C2038 C2037 1.523 . S
C2039 C2023 1.429 . S
C2039 C2035 1.429 1_565 S
C2039 C2040 1.523 . S
C2040 C2024 1.368 . S
C2040 C2036 1.368 . S
C2040 C2039 1.523 . S
H2041 C2016 0.950 . S
H2042 C2018 0.950 . S
H2043 C2019 0.949 . S
H2044 C2021 0.950 . S
H2045 C2023 0.950 . S
C2046 C2047 1.349 1_556 S
C2046 C2048 1.327 . S
C2046 H2071 0.950 . S
C2047 C2046 1.349 1_554 S
C2047 C2063 1.349 . S
C2048 C2046 1.327 . S
C2048 C2067 1.429 1_556 S
C2048 H2072 0.950 . S
C2049 C2066 1.574 . S
C2049 C2068 1.368 . S
C2049 H2073 0.949 . S
H2050 C2054 0.949 . S
C2051 C2052 1.349 . S
C2051 C2053 1.327 . S
C2051 H2074 0.950 . S
C2052 C2051 1.349 . S
C2052 C2064 1.349 1_554 S
C2053 C2051 1.327 . S
C2053 C2069 1.429 . S
C2053 H2075 0.950 . S
C2054 H2050 0.949 . S
C2054 C2062 1.574 . S
C2054 C2070 1.368 1_556 S
H2055 C2063 0.950 . S
H2056 C2061 0.950 . S
H2057 C2062 0.949 . S
H2058 C2064 0.950 . S
H2059 C2065 0.950 . S
H2060 C2066 0.949 . S
C2061 H2056 0.950 . S
C2061 C2063 1.327 . S
C2061 C2067 1.429 . S
C2062 C2054 1.574 . S
C2062 H2057 0.949 . S
C2062 C2068 1.368 1_556 S
C2063 C2047 1.349 . S
C2063 H2055 0.950 . S
C2063 C2061 1.327 . S
C2064 C2052 1.349 1_556 S
C2064 H2058 0.950 . S
C2064 C2065 1.327 . S
C2065 H2059 0.950 . S
C2065 C2064 1.327 . S
C2065 C2069 1.429 1_556 S
C2066 C2049 1.574 . S
C2066 H2060 0.949 . S
C2066 C2070 1.368 . S
C2067 C2048 1.429 1_554 S
C2067 C2061 1.429 . S
C2067 C2068 1.523 . S
C2068 C2049 1.368 . S
C2068 C2062 1.368 1_554 S
C2068 C2067 1.523 . S
C2069 C2053 1.429 . S
C2069 C2065 1.429 1_554 S
C2069 C2070 1.523 . S
C2070 C2054 1.368 1_554 S
C2070 C2066 1.368 . S
C2070 C2069 1.523 . S
H2071 C2046 0.950 . S
H2072 C2048 0.950 . S
H2073 C2049 0.949 . S
H2074 C2051 0.950 . S
H2075 C2053 0.950 . S
C2076 C2077 1.349 . S
C2076 C2078 1.327 . S
C2076 H2101 0.950 . S
C2077 C2076 1.349 . S
C2077 C2093 1.349 . S
C2078 C2076 1.327 . S
C2078 C2097 1.429 . S
C2078 H2102 0.950 . S
C2079 C2096 1.574 . S
C2079 C2098 1.368 . S
C2079 H2103 0.949 . S
H2080 C2084 0.949 . S
C2081 C2082 1.349 . S
C2081 C2083 1.327 . S
C2081 H2104 0.950 . S
C2082 C2081 1.349 . S
C2082 C2094 1.349 . S
C2083 C2081 1.327 . S
C2083 C2099 1.429 . S
C2083 H2105 0.950 . S
C2084 H2080 0.949 . S
C2084 C2092 1.574 . S
C2084 C2100 1.368 . S
H2085 C2093 0.950 . S
H2086 C2091 0.950 . S
H2087 C2092 0.949 . S
H2088 C2094 0.950 . S
H2089 C2095 0.950 . S
H2090 C2096 0.949 . S
C2091 H2086 0.950 . S
C2091 C2093 1.327 . S
C2091 C2097 1.429 . S
C2092 C2084 1.574 . S
C2092 H2087 0.949 . S
C2092 C2098 1.368 . S
C2093 C2077 1.349 . S
C2093 H2085 0.950 . S
C2093 C2091 1.327 . S
C2094 C2082 1.349 . S
C2094 H2088 0.950 . S
C2094 C2095 1.327 . S
C2095 H2089 0.950 . S
C2095 C2094 1.327 . S
C2095 C2099 1.429 . S
C2096 C2079 1.574 . S
C2096 H2090 0.949 . S
C2096 C2100 1.368 . S
C2097 C2078 1.429 . S
C2097 C2091 1.429 . S
C2097 C2098 1.523 . S
C2098 C2079 1.368 . S
C2098 C2092 1.368 . S
C2098 C2097 1.523 . S
C2099 C2083 1.429 . S
C2099 C2095 1.429 . S
C2099 C2100 1.523 . S
C2100 C2084 1.368 . S
C2100 C2096 1.368 . S
C2100 C2099 1.523 . S
H2101 C2076 0.950 . S
H2102 C2078 0.950 . S
H2103 C2079 0.949 . S
H2104 C2081 0.950 . S
H2105 C2083 0.950 . S
C2106 C2107 1.349 . S
C2106 C2108 1.327 . S
C2106 H2131 0.950 . S
C2107 C2106 1.349 . S
C2107 C2123 1.349 . S
C2108 C2106 1.327 . S
C2108 C2127 1.429 . S
C2108 H2132 0.950 . S
C2109 C2126 1.574 . S
C2109 C2128 1.368 . S
C2109 H2133 0.949 . S
H2110 C2114 0.949 . S
C2111 C2112 1.349 . S
C2111 C2113 1.327 . S
C2111 H2134 0.950 . S
C2112 C2111 1.349 . S
C2112 C2124 1.349 . S
C2113 C2111 1.327 . S
C2113 C2129 1.429 . S
C2113 H2135 0.950 . S
C2114 H2110 0.949 . S
C2114 C2122 1.574 . S
C2114 C2130 1.368 . S
H2115 C2123 0.950 . S
H2116 C2121 0.950 . S
H2117 C2122 0.949 . S
H2118 C2124 0.950 . S
H2119 C2125 0.950 . S
H2120 C2126 0.949 . S
C2121 H2116 0.950 . S
C2121 C2123 1.327 . S
C2121 C2127 1.429 . S
C2122 C2114 1.574 . S
C2122 H2117 0.949 . S
C2122 C2128 1.368 . S
C2123 C2107 1.349 . S
C2123 H2115 0.950 . S
C2123 C2121 1.327 . S
C2124 C2112 1.349 . S
C2124 H2118 0.950 . S
C2124 C2125 1.327 . S
C2125 H2119 0.950 . S
C2125 C2124 1.327 . S
C2125 C2129 1.429 . S
C2126 C2109 1.574 . S
C2126 H2120 0.949 . S
C2126 C2130 1.368 . S
C2127 C2108 1.429 . S
C2127 C2121 1.429 . S
C2127 C2128 1.523 . S
C2128 C2109 1.368 . S
C2128 C2122 1.368 . S
C2128 C2127 1.523 . S
C2129 C2113 1.429 . S
C2129 C2125 1.429 . S
C2129 C2130 1.523 . S
C2130 C2114 1.368 . S
C2130 C2126 1.368 . S
C2130 C2129 1.523 . S
H2131 C2106 0.950 . S
H2132 C2108 0.950 . S
H2133 C2109 0.949 . S
H2134 C2111 0.950 . S
H2135 C2113 0.950 . S
C2136 C2137 1.349 1_565 S
C2136 C2138 1.327 . S
C2136 H2161 0.950 1_565 S
C2137 C2136 1.349 1_545 S
C2137 C2153 1.349 1_545 S
C2138 C2136 1.327 . S
C2138 C2157 1.429 . S
C2138 H2162 0.950 . S
C2139 C2156 1.574 . S
C2139 C2158 1.368 . S
C2139 H2163 0.949 . S
H2140 C2144 0.949 . S
C2141 C2142 1.349 . S
C2141 C2143 1.327 . S
C2141 H2164 0.950 . S
C2142 C2141 1.349 . S
C2142 C2154 1.349 . S
C2143 C2141 1.327 . S
C2143 C2159 1.429 . S
C2143 H2165 0.950 . S
C2144 H2140 0.949 . S
C2144 C2152 1.574 . S
C2144 C2160 1.368 . S
H2145 C2153 0.950 1_545 S
H2146 C2151 0.950 . S
H2147 C2152 0.949 . S
H2148 C2154 0.950 . S
H2149 C2155 0.950 . S
H2150 C2156 0.949 . S
C2151 H2146 0.950 . S
C2151 C2153 1.327 . S
C2151 C2157 1.429 . S
C2152 C2144 1.574 . S
C2152 H2147 0.949 . S
C2152 C2158 1.368 . S
C2153 C2137 1.349 1_565 S
C2153 H2145 0.950 1_565 S
C2153 C2151 1.327 . S
C2154 C2142 1.349 . S
C2154 H2148 0.950 . S
C2154 C2155 1.327 . S
C2155 H2149 0.950 . S
C2155 C2154 1.327 . S
C2155 C2159 1.429 . S
C2156 C2139 1.574 . S
C2156 H2150 0.949 . S
C2156 C2160 1.368 . S
C2157 C2138 1.429 . S
C2157 C2151 1.429 . S
C2157 C2158 1.523 . S
C2158 C2139 1.368 . S
C2158 C2152 1.368 . S
C2158 C2157 1.523 . S
C2159 C2143 1.429 . S
C2159 C2155 1.429 . S
C2159 C2160 1.523 . S
C2160 C2144 1.368 . S
C2160 C2156 1.368 . S
C2160 C2159 1.523 . S
H2161 C2136 0.950 1_545 S
H2162 C2138 0.950 . S
H2163 C2139 0.949 . S
H2164 C2141 0.950 . S
H2165 C2143 0.950 . S
C2166 C2167 1.349 . S
C2166 C2168 1.327 . S
C2166 H2191 0.950 . S
C2167 C2166 1.349 . S
C2167 C2183 1.349 . S
C2168 C2166 1.327 . S
C2168 C2187 1.429 . S
C2168 H2192 0.950 . S
C2169 C2186 1.574 . S
C2169 C2188 1.368 . S
C2169 H2193 0.949 . S
H2170 C2174 0.949 . S
C2171 C2172 1.349 . S
C2171 C2173 1.327 . S
C2171 H2194 0.950 . S
C2172 C2171 1.349 . S
C2172 C2184 1.349 . S
C2173 C2171 1.327 . S
C2173 C2189 1.429 . S
C2173 H2195 0.950 . S
C2174 H2170 0.949 . S
C2174 C2182 1.574 . S
C2174 C2190 1.368 . S
H2175 C2183 0.950 . S
H2176 C2181 0.950 . S
H2177 C2182 0.949 . S
H2178 C2184 0.950 . S
H2179 C2185 0.950 . S
H2180 C2186 0.949 . S
C2181 H2176 0.950 . S
C2181 C2183 1.327 . S
C2181 C2187 1.429 . S
C2182 C2174 1.574 . S
C2182 H2177 0.949 . S
C2182 C2188 1.368 . S
C2183 C2167 1.349 . S
C2183 H2175 0.950 . S
C2183 C2181 1.327 . S
C2184 C2172 1.349 . S
C2184 H2178 0.950 . S
C2184 C2185 1.327 . S
C2185 H2179 0.950 . S
C2185 C2184 1.327 . S
C2185 C2189 1.429 . S
C2186 C2169 1.574 . S
C2186 H2180 0.949 . S
C2186 C2190 1.368 . S
C2187 C2168 1.429 . S
C2187 C2181 1.429 . S
C2187 C2188 1.523 . S
C2188 C2169 1.368 . S
C2188 C2182 1.368 . S
C2188 C2187 1.523 . S
C2189 C2173 1.429 . S
C2189 C2185 1.429 . S
C2189 C2190 1.523 . S
C2190 C2174 1.368 . S
C2190 C2186 1.368 . S
C2190 C2189 1.523 . S
H2191 C2166 0.950 . S
H2192 C2168 0.950 . S
H2193 C2169 0.949 . S
H2194 C2171 0.950 . S
H2195 C2173 0.950 . S
C2196 C2197 1.349 . S
C2196 C2198 1.327 . S
C2196 H2221 0.950 . S
C2197 C2196 1.349 . S
C2197 C2213 1.349 . S
C2198 C2196 1.327 . S
C2198 C2217 1.429 . S
C2198 H2222 0.950 . S
C2199 C2216 1.574 . S
C2199 C2218 1.368 . S
C2199 H2223 0.949 . S
H2200 C2204 0.949 . S
C2201 C2202 1.349 . S
C2201 C2203 1.327 . S
C2201 H2224 0.950 . S
C2202 C2201 1.349 . S
C2202 C2214 1.349 . S
C2203 C2201 1.327 . S
C2203 C2219 1.429 . S
C2203 H2225 0.950 . S
C2204 H2200 0.949 . S
C2204 C2212 1.574 . S
C2204 C2220 1.368 . S
H2205 C2213 0.950 . S
H2206 C2211 0.950 . S
H2207 C2212 0.949 . S
H2208 C2214 0.950 . S
H2209 C2215 0.950 . S
H2210 C2216 0.949 . S
C2211 H2206 0.950 . S
C2211 C2213 1.327 . S
C2211 C2217 1.429 . S
C2212 C2204 1.574 . S
C2212 H2207 0.949 . S
C2212 C2218 1.368 . S
C2213 C2197 1.349 . S
C2213 H2205 0.950 . S
C2213 C2211 1.327 . S
C2214 C2202 1.349 . S
C2214 H2208 0.950 . S
C2214 C2215 1.327 . S
C2215 H2209 0.950 . S
C2215 C2214 1.327 . S
C2215 C2219 1.429 . S
C2216 C2199 1.574 . S
C2216 H2210 0.949 . S
C2216 C2220 1.368 . S
C2217 C2198 1.429 . S
C2217 C2211 1.429 . S
C2217 C2218 1.523 . S
C2218 C2199 1.368 . S
C2218 C2212 1.368 . S
C2218 C2217 1.523 . S
C2219 C2203 1.429 . S
C2219 C2215 1.429 . S
C2219 C2220 1.523 . S
C2220 C2204 1.368 . S
C2220 C2216 1.368 . S
C2220 C2219 1.523 . S
H2221 C2196 0.950 . S
H2222 C2198 0.950 . S
H2223 C2199 0.949 . S
H2224 C2201 0.950 . S
H2225 C2203 0.950 . S
C2226 C2227 1.349 . S
C2226 C2228 1.327 . S
C2226 H2251 0.950 . S
C2227 C2226 1.349 . S
C2227 C2243 1.349 . S
C2228 C2226 1.327 . S
C2228 C2247 1.429 . S
C2228 H2252 0.950 . S
C2229 C2246 1.574 . S
C2229 C2248 1.368 . S
C2229 H2253 0.949 . S
H2230 C2234 0.949 . S
C2231 C2232 1.349 . S
C2231 C2233 1.327 . S
C2231 H2254 0.950 . S
C2232 C2231 1.349 . S
C2232 C2244 1.349 . S
C2233 C2231 1.327 . S
C2233 C2249 1.429 . S
C2233 H2255 0.950 . S
C2234 H2230 0.949 . S
C2234 C2242 1.574 . S
C2234 C2250 1.368 . S
H2235 C2243 0.950 . S
H2236 C2241 0.950 . S
H2237 C2242 0.949 . S
H2238 C2244 0.950 . S
H2239 C2245 0.950 . S
H2240 C2246 0.949 . S
C2241 H2236 0.950 . S
C2241 C2243 1.327 . S
C2241 C2247 1.429 . S
C2242 C2234 1.574 . S
C2242 H2237 0.949 . S
C2242 C2248 1.368 . S
C2243 C2227 1.349 . S
C2243 H2235 0.950 . S
C2243 C2241 1.327 . S
C2244 C2232 1.349 . S
C2244 H2238 0.950 . S
C2244 C2245 1.327 . S
C2245 H2239 0.950 . S
C2245 C2244 1.327 . S
C2245 C2249 1.429 . S
C2246 C2229 1.574 . S
C2246 H2240 0.949 . S
C2246 C2250 1.368 . S
C2247 C2228 1.429 . S
C2247 C2241 1.429 . S
C2247 C2248 1.523 . S
C2248 C2229 1.368 . S
C2248 C2242 1.368 . S
C2248 C2247 1.523 . S
C2249 C2233 1.429 . S
C2249 C2245 1.429 . S
C2249 C2250 1.523 . S
C2250 C2234 1.368 . S
C2250 C2246 1.368 . S
C2250 C2249 1.523 . S
H2251 C2226 0.950 . S
H2252 C2228 0.950 . S
H2253 C2229 0.949 . S
H2254 C2231 0.950 . S
H2255 C2233 0.950 . S
C2256 C2257 1.349 . S
C2256 C2258 1.327 . S
C2256 H2281 0.950 . S
C2257 C2256 1.349 . S
C2257 C2273 1.349 . S
C2258 C2256 1.327 . S
C2258 C2277 1.429 . S
C2258 H2282 0.950 . S
C2259 C2276 1.574 . S
C2259 C2278 1.368 . S
C2259 H2283 0.949 . S
H2260 C2264 0.949 . S
C2261 C2262 1.349 . S
C2261 C2263 1.327 . S
C2261 H2284 0.950 . S
C2262 C2261 1.349 . S
C2262 C2274 1.349 . S
C2263 C2261 1.327 . S
C2263 C2279 1.429 . S
C2263 H2285 0.950 . S
C2264 H2260 0.949 . S
C2264 C2272 1.574 . S
C2264 C2280 1.368 . S
H2265 C2273 0.950 . S
H2266 C2271 0.950 . S
H2267 C2272 0.949 . S
H2268 C2274 0.950 . S
H2269 C2275 0.950 . S
H2270 C2276 0.949 . S
C2271 H2266 0.950 . S
C2271 C2273 1.327 . S
C2271 C2277 1.429 . S
C2272 C2264 1.574 . S
C2272 H2267 0.949 . S
C2272 C2278 1.368 . S
C2273 C2257 1.349 . S
C2273 H2265 0.950 . S
C2273 C2271 1.327 . S
C2274 C2262 1.349 . S
C2274 H2268 0.950 . S
C2274 C2275 1.327 . S
C2275 H2269 0.950 . S
C2275 C2274 1.327 . S
C2275 C2279 1.429 . S
C2276 C2259 1.574 . S
C2276 H2270 0.949 . S
C2276 C2280 1.368 . S
C2277 C2258 1.429 . S
C2277 C2271 1.429 . S
C2277 C2278 1.523 . S
C2278 C2259 1.368 . S
C2278 C2272 1.368 . S
C2278 C2277 1.523 . S
C2279 C2263 1.429 . S
C2279 C2275 1.429 . S
C2279 C2280 1.523 . S
C2280 C2264 1.368 . S
C2280 C2276 1.368 . S
C2280 C2279 1.523 . S
H2281 C2256 0.950 . S
H2282 C2258 0.950 . S
H2283 C2259 0.949 . S
H2284 C2261 0.950 . S
H2285 C2263 0.950 . S
C2286 C2287 1.349 . S
C2286 C2288 1.327 . S
C2286 H2311 0.950 . S
C2287 C2286 1.349 . S
C2287 C2303 1.349 . S
C2288 C2286 1.327 . S
C2288 C2307 1.429 . S
C2288 H2312 0.950 . S
C2289 C2306 1.574 . S
C2289 C2308 1.368 . S
C2289 H2313 0.949 . S
H2290 C2294 0.949 . S
C2291 C2292 1.349 . S
C2291 C2293 1.327 . S
C2291 H2314 0.950 . S
C2292 C2291 1.349 . S
C2292 C2304 1.349 . S
C2293 C2291 1.327 . S
C2293 C2309 1.429 . S
C2293 H2315 0.950 . S
C2294 H2290 0.949 . S
C2294 C2302 1.574 . S
C2294 C2310 1.368 . S
H2295 C2303 0.950 . S
H2296 C2301 0.950 . S
H2297 C2302 0.949 . S
H2298 C2304 0.950 . S
H2299 C2305 0.950 . S
H2300 C2306 0.949 . S
C2301 H2296 0.950 . S
C2301 C2303 1.327 . S
C2301 C2307 1.429 . S
C2302 C2294 1.574 . S
C2302 H2297 0.949 . S
C2302 C2308 1.368 . S
C2303 C2287 1.349 . S
C2303 H2295 0.950 . S
C2303 C2301 1.327 . S
C2304 C2292 1.349 . S
C2304 H2298 0.950 . S
C2304 C2305 1.327 . S
C2305 H2299 0.950 . S
C2305 C2304 1.327 . S
C2305 C2309 1.429 . S
C2306 C2289 1.574 . S
C2306 H2300 0.949 . S
C2306 C2310 1.368 . S
C2307 C2288 1.429 . S
C2307 C2301 1.429 . S
C2307 C2308 1.523 . S
C2308 C2289 1.368 . S
C2308 C2302 1.368 . S
C2308 C2307 1.523 . S
C2309 C2293 1.429 . S
C2309 C2305 1.429 . S
C2309 C2310 1.523 . S
C2310 C2294 1.368 . S
C2310 C2306 1.368 . S
C2310 C2309 1.523 . S
H2311 C2286 0.950 . S
H2312 C2288 0.950 . S
H2313 C2289 0.949 . S
H2314 C2291 0.950 . S
H2315 C2293 0.950 . S
C2316 C2317 1.349 . S
C2316 C2318 1.327 . S
C2316 H2341 0.950 . S
C2317 C2316 1.349 . S
C2317 C2333 1.349 . S
C2318 C2316 1.327 . S
C2318 C2337 1.429 . S
C2318 H2342 0.950 . S
C2319 C2336 1.574 . S
C2319 C2338 1.368 . S
C2319 H2343 0.949 . S
H2320 C2324 0.949 . S
C2321 C2322 1.349 . S
C2321 C2323 1.327 . S
C2321 H2344 0.950 . S
C2322 C2321 1.349 . S
C2322 C2334 1.349 . S
C2323 C2321 1.327 . S
C2323 C2339 1.429 . S
C2323 H2345 0.950 . S
C2324 H2320 0.949 . S
C2324 C2332 1.574 . S
C2324 C2340 1.368 . S
H2325 C2333 0.950 . S
H2326 C2331 0.950 . S
H2327 C2332 0.949 . S
H2328 C2334 0.950 . S
H2329 C2335 0.950 . S
H2330 C2336 0.949 . S
C2331 H2326 0.950 . S
C2331 C2333 1.327 . S
C2331 C2337 1.429 . S
C2332 C2324 1.574 . S
C2332 H2327 0.949 . S
C2332 C2338 1.368 . S
C2333 C2317 1.349 . S
C2333 H2325 0.950 . S
C2333 C2331 1.327 . S
C2334 C2322 1.349 . S
C2334 H2328 0.950 . S
C2334 C2335 1.327 . S
C2335 H2329 0.950 . S
C2335 C2334 1.327 . S
C2335 C2339 1.429 . S
C2336 C2319 1.574 . S
C2336 H2330 0.949 . S
C2336 C2340 1.368 . S
C2337 C2318 1.429 . S
C2337 C2331 1.429 . S
C2337 C2338 1.523 . S
C2338 C2319 1.368 . S
C2338 C2332 1.368 . S
C2338 C2337 1.523 . S
C2339 C2323 1.429 . S
C2339 C2335 1.429 . S
C2339 C2340 1.523 . S
C2340 C2324 1.368 . S
C2340 C2336 1.368 . S
C2340 C2339 1.523 . S
H2341 C2316 0.950 . S
H2342 C2318 0.950 . S
H2343 C2319 0.949 . S
H2344 C2321 0.950 . S
H2345 C2323 0.950 . S
C2346 C2347 1.349 . S
C2346 C2348 1.327 . S
C2346 H2371 0.950 . S
C2347 C2346 1.349 . S
C2347 C2363 1.349 . S
C2348 C2346 1.327 . S
C2348 C2367 1.429 . S
C2348 H2372 0.950 . S
C2349 C2366 1.574 . S
C2349 C2368 1.368 . S
C2349 H2373 0.949 . S
H2350 C2354 0.949 . S
C2351 C2352 1.349 . S
C2351 C2353 1.327 . S
C2351 H2374 0.950 . S
C2352 C2351 1.349 . S
C2352 C2364 1.349 . S
C2353 C2351 1.327 . S
C2353 C2369 1.429 . S
C2353 H2375 0.950 . S
C2354 H2350 0.949 . S
C2354 C2362 1.574 . S
C2354 C2370 1.368 . S
H2355 C2363 0.950 1_455 S
H2356 C2361 0.950 . S
H2357 C2362 0.949 . S
H2358 C2364 0.950 . S
H2359 C2365 0.950 . S
H2360 C2366 0.949 . S
C2361 H2356 0.950 . S
C2361 C2363 1.327 . S
C2361 C2367 1.429 . S
C2362 C2354 1.574 . S
C2362 H2357 0.949 . S
C2362 C2368 1.368 . S
C2363 C2347 1.349 . S
C2363 H2355 0.950 1_655 S
C2363 C2361 1.327 . S
C2364 C2352 1.349 . S
C2364 H2358 0.950 . S
C2364 C2365 1.327 . S
C2365 H2359 0.950 . S
C2365 C2364 1.327 . S
C2365 C2369 1.429 . S
C2366 C2349 1.574 . S
C2366 H2360 0.949 . S
C2366 C2370 1.368 . S
C2367 C2348 1.429 . S
C2367 C2361 1.429 . S
C2367 C2368 1.523 . S
C2368 C2349 1.368 . S
C2368 C2362 1.368 . S
C2368 C2367 1.523 . S
C2369 C2353 1.429 . S
C2369 C2365 1.429 . S
C2369 C2370 1.523 . S
C2370 C2354 1.368 . S
C2370 C2366 1.368 . S
C2370 C2369 1.523 . S
H2371 C2346 0.950 . S
H2372 C2348 0.950 . S
H2373 C2349 0.949 . S
H2374 C2351 0.950 . S
H2375 C2353 0.950 . S
C2376 C2377 1.349 . S
C2376 C2378 1.327 . S
C2376 H2401 0.950 . S
C2377 C2376 1.349 . S
C2377 C2393 1.349 . S
C2378 C2376 1.327 . S
C2378 C2397 1.429 . S
C2378 H2402 0.950 . S
C2379 C2396 1.574 . S
C2379 C2398 1.368 . S
C2379 H2403 0.949 . S
H2380 C2384 0.949 . S
C2381 C2382 1.349 . S
C2381 C2383 1.327 . S
C2381 H2404 0.950 . S
C2382 C2381 1.349 . S
C2382 C2394 1.346 1_556 S
C2383 C2381 1.327 . S
C2383 C2399 1.429 . S
C2383 H2405 0.950 . S
C2384 H2380 0.949 . S
C2384 C2392 1.574 . S
C2384 C2400 1.368 . S
H2385 C2393 0.950 . S
H2386 C2391 0.950 . S
H2387 C2392 0.949 . S
H2388 C2394 0.954 . S
H2389 C2395 0.957 . S
H2390 C2396 0.949 . S
C2391 H2386 0.950 . S
C2391 C2393 1.327 . S
C2391 C2397 1.429 . S
C2392 C2384 1.574 . S
C2392 H2387 0.949 . S
C2392 C2398 1.368 . S
C2393 C2377 1.349 . S
C2393 H2385 0.950 . S
C2393 C2391 1.327 . S
C2394 C2382 1.346 1_554 S
C2394 H2388 0.954 . S
C2394 C2395 1.325 1_554 S
C2395 H2389 0.957 . S
C2395 C2394 1.325 1_556 S
C2395 C2399 1.429 . S
C2396 C2379 1.574 . S
C2396 H2390 0.949 . S
C2396 C2400 1.368 . S
C2397 C2378 1.429 . S
C2397 C2391 1.429 . S
C2397 C2398 1.523 . S
C2398 C2379 1.368 . S
C2398 C2392 1.368 . S
C2398 C2397 1.523 . S
C2399 C2383 1.429 . S
C2399 C2395 1.429 . S
C2399 C2400 1.523 . S
C2400 C2384 1.368 . S
C2400 C2396 1.368 . S
C2400 C2399 1.523 . S
H2401 C2376 0.950 . S
H2402 C2378 0.950 . S
H2403 C2379 0.949 . S
H2404 C2381 0.950 . S
H2405 C2383 0.950 . S
C2406 C2407 1.349 . S
C2406 C2408 1.327 . S
C2406 H2431 0.950 . S
C2407 C2406 1.349 . S
C2407 C2423 1.349 . S
C2408 C2406 1.327 . S
C2408 C2427 1.429 . S
C2408 H2432 0.950 . S
C2409 C2426 1.574 . S
C2409 C2428 1.368 . S
C2409 H2433 0.949 . S
H2410 C2414 0.949 . S
C2411 C2412 1.349 . S
C2411 C2413 1.327 . S
C2411 H2434 0.950 . S
C2412 C2411 1.349 . S
C2412 C2424 1.349 . S
C2413 C2411 1.327 . S
C2413 C2429 1.429 . S
C2413 H2435 0.950 . S
C2414 H2410 0.949 . S
C2414 C2422 1.574 . S
C2414 C2430 1.368 . S
H2415 C2423 0.950 . S
H2416 C2421 0.950 . S
H2417 C2422 0.949 . S
H2418 C2424 0.950 . S
H2419 C2425 0.950 . S
H2420 C2426 0.949 . S
C2421 H2416 0.950 . S
C2421 C2423 1.327 . S
C2421 C2427 1.429 . S
C2422 C2414 1.574 . S
C2422 H2417 0.949 . S
C2422 C2428 1.368 . S
C2423 C2407 1.349 . S
C2423 H2415 0.950 . S
C2423 C2421 1.327 . S
C2424 C2412 1.349 . S
C2424 H2418 0.950 . S
C2424 C2425 1.327 . S
C2425 H2419 0.950 . S
C2425 C2424 1.327 . S
C2425 C2429 1.429 . S
C2426 C2409 1.574 . S
C2426 H2420 0.949 . S
C2426 C2430 1.368 . S
C2427 C2408 1.429 . S
C2427 C2421 1.429 . S
C2427 C2428 1.523 . S
C2428 C2409 1.368 . S
C2428 C2422 1.368 . S
C2428 C2427 1.523 . S
C2429 C2413 1.429 . S
C2429 C2425 1.429 . S
C2429 C2430 1.523 . S
C2430 C2414 1.368 . S
C2430 C2426 1.368 . S
C2430 C2429 1.523 . S
H2431 C2406 0.950 . S
H2432 C2408 0.950 . S
H2433 C2409 0.949 . S
H2434 C2411 0.950 . S
H2435 C2413 0.950 . S
C2436 C2437 1.349 . S
C2436 C2438 1.327 . S
C2436 H2461 0.950 . S
C2437 C2436 1.349 . S
C2437 C2453 1.349 . S
C2438 C2436 1.327 . S
C2438 C2457 1.429 . S
C2438 H2462 0.950 . S
C2439 C2456 1.574 . S
C2439 C2458 1.368 . S
C2439 H2463 0.949 . S
H2440 C2444 0.949 . S
C2441 C2442 1.349 . S
C2441 C2443 1.327 . S
C2441 H2464 0.950 . S
C2442 C2441 1.349 . S
C2442 C2454 1.349 . S
C2443 C2441 1.327 . S
C2443 C2459 1.429 . S
C2443 H2465 0.950 . S
C2444 H2440 0.949 . S
C2444 C2452 1.574 . S
C2444 C2460 1.368 . S
H2445 C2453 0.950 . S
H2446 C2451 0.950 . S
H2447 C2452 0.949 . S
H2448 C2454 0.950 . S
H2449 C2455 0.950 . S
H2450 C2456 0.949 . S
C2451 H2446 0.950 . S
C2451 C2453 1.327 . S
C2451 C2457 1.429 . S
C2452 C2444 1.574 . S
C2452 H2447 0.949 . S
C2452 C2458 1.368 . S
C2453 C2437 1.349 . S
C2453 H2445 0.950 . S
C2453 C2451 1.327 . S
C2454 C2442 1.349 . S
C2454 H2448 0.950 . S
C2454 C2455 1.327 . S
C2455 H2449 0.950 . S
C2455 C2454 1.327 . S
C2455 C2459 1.429 . S
C2456 C2439 1.574 . S
C2456 H2450 0.949 . S
C2456 C2460 1.368 . S
C2457 C2438 1.429 . S
C2457 C2451 1.429 . S
C2457 C2458 1.523 . S
C2458 C2439 1.368 . S
C2458 C2452 1.368 . S
C2458 C2457 1.523 . S
C2459 C2443 1.429 . S
C2459 C2455 1.429 . S
C2459 C2460 1.523 . S
C2460 C2444 1.368 . S
C2460 C2456 1.368 . S
C2460 C2459 1.523 . S
H2461 C2436 0.950 . S
H2462 C2438 0.950 . S
H2463 C2439 0.949 . S
H2464 C2441 0.950 . S
H2465 C2443 0.950 . S
C2466 C2467 1.349 . S
C2466 C2468 1.327 . S
C2466 H2491 0.950 . S
C2467 C2466 1.349 . S
C2467 C2483 1.349 . S
C2468 C2466 1.327 . S
C2468 C2487 1.429 . S
C2468 H2492 0.950 . S
C2469 C2486 1.574 . S
C2469 C2488 1.368 . S
C2469 H2493 0.949 . S
H2470 C2474 0.949 . S
C2471 C2472 1.349 . S
C2471 C2473 1.327 . S
C2471 H2494 0.950 . S
C2472 C2471 1.349 . S
C2472 C2484 1.349 . S
C2473 C2471 1.327 . S
C2473 C2489 1.429 . S
C2473 H2495 0.950 . S
C2474 H2470 0.949 . S
C2474 C2482 1.574 . S
C2474 C2490 1.368 . S
H2475 C2483 0.950 . S
H2476 C2481 0.950 . S
H2477 C2482 0.949 . S
H2478 C2484 0.950 . S
H2479 C2485 0.950 . S
H2480 C2486 0.949 . S
C2481 H2476 0.950 . S
C2481 C2483 1.327 . S
C2481 C2487 1.429 . S
C2482 C2474 1.574 . S
C2482 H2477 0.949 . S
C2482 C2488 1.368 . S
C2483 C2467 1.349 . S
C2483 H2475 0.950 . S
C2483 C2481 1.327 . S
C2484 C2472 1.349 . S
C2484 H2478 0.950 . S
C2484 C2485 1.327 . S
C2485 H2479 0.950 . S
C2485 C2484 1.327 . S
C2485 C2489 1.429 . S
C2486 C2469 1.574 . S
C2486 H2480 0.949 . S
C2486 C2490 1.368 . S
C2487 C2468 1.429 . S
C2487 C2481 1.429 . S
C2487 C2488 1.523 . S
C2488 C2469 1.368 . S
C2488 C2482 1.368 . S
C2488 C2487 1.523 . S
C2489 C2473 1.429 . S
C2489 C2485 1.429 . S
C2489 C2490 1.523 . S
C2490 C2474 1.368 . S
C2490 C2486 1.368 . S
C2490 C2489 1.523 . S
H2491 C2466 0.950 . S
H2492 C2468 0.950 . S
H2493 C2469 0.949 . S
H2494 C2471 0.950 . S
H2495 C2473 0.950 . S
C2496 C2497 1.349 . S
C2496 C2498 1.327 . S
C2496 H2521 0.950 . S
C2497 C2496 1.349 . S
C2497 C2513 1.349 . S
C2498 C2496 1.327 . S
C2498 C2517 1.429 . S
C2498 H2522 0.950 . S
C2499 C2516 1.574 . S
C2499 C2518 1.368 . S
C2499 H2523 0.949 . S
H2500 C2504 0.949 . S
C2501 C2502 1.349 . S
C2501 C2503 1.327 . S
C2501 H2524 0.950 . S
C2502 C2501 1.349 . S
C2502 C2514 1.349 . S
C2503 C2501 1.327 . S
C2503 C2519 1.429 . S
C2503 H2525 0.950 . S
C2504 H2500 0.949 . S
C2504 C2512 1.574 . S
C2504 C2520 1.368 . S
H2505 C2513 0.950 . S
H2506 C2511 0.950 . S
H2507 C2512 0.949 . S
H2508 C2514 0.950 . S
H2509 C2515 0.950 . S
H2510 C2516 0.949 . S
C2511 H2506 0.950 . S
C2511 C2513 1.327 . S
C2511 C2517 1.429 . S
C2512 C2504 1.574 . S
C2512 H2507 0.949 . S
C2512 C2518 1.368 . S
C2513 C2497 1.349 . S
C2513 H2505 0.950 . S
C2513 C2511 1.327 . S
C2514 C2502 1.349 . S
C2514 H2508 0.950 . S
C2514 C2515 1.327 . S
C2515 H2509 0.950 . S
C2515 C2514 1.327 . S
C2515 C2519 1.429 . S
C2516 C2499 1.574 . S
C2516 H2510 0.949 . S
C2516 C2520 1.368 . S
C2517 C2498 1.429 . S
C2517 C2511 1.429 . S
C2517 C2518 1.523 . S
C2518 C2499 1.368 . S
C2518 C2512 1.368 . S
C2518 C2517 1.523 . S
C2519 C2503 1.429 . S
C2519 C2515 1.429 . S
C2519 C2520 1.523 . S
C2520 C2504 1.368 . S
C2520 C2516 1.368 . S
C2520 C2519 1.523 . S
H2521 C2496 0.950 . S
H2522 C2498 0.950 . S
H2523 C2499 0.949 . S
H2524 C2501 0.950 . S
H2525 C2503 0.950 . S
C2526 C2527 1.349 1_556 S
C2526 C2528 1.327 . S
C2526 H2551 0.950 . S
C2527 C2526 1.349 1_554 S
C2527 C2543 1.349 . S
C2528 C2526 1.327 . S
C2528 C2547 1.429 . S
C2528 H2552 0.950 . S
C2529 C2546 1.574 . S
C2529 C2548 1.368 . S
C2529 H2553 0.949 . S
H2530 C2534 0.949 . S
C2531 C2532 1.349 . S
C2531 C2533 1.327 . S
C2531 H2554 0.950 . S
C2532 C2531 1.349 . S
C2532 C2544 1.349 . S
C2533 C2531 1.327 . S
C2533 C2549 1.429 . S
C2533 H2555 0.950 . S
C2534 H2530 0.949 . S
C2534 C2542 1.574 . S
C2534 C2550 1.368 . S
H2535 C2543 0.950 . S
H2536 C2541 0.950 . S
H2537 C2542 0.949 . S
H2538 C2544 0.950 . S
H2539 C2545 0.950 . S
H2540 C2546 0.949 . S
C2541 H2536 0.950 . S
C2541 C2543 1.327 1_556 S
C2541 C2547 1.429 . S
C2542 C2534 1.574 . S
C2542 H2537 0.949 . S
C2542 C2548 1.368 . S
C2543 C2527 1.349 . S
C2543 H2535 0.950 . S
C2543 C2541 1.327 1_554 S
C2544 C2532 1.349 . S
C2544 H2538 0.950 . S
C2544 C2545 1.327 . S
C2545 H2539 0.950 . S
C2545 C2544 1.327 . S
C2545 C2549 1.429 . S
C2546 C2529 1.574 . S
C2546 H2540 0.949 . S
C2546 C2550 1.368 . S
C2547 C2528 1.429 . S
C2547 C2541 1.429 . S
C2547 C2548 1.523 . S
C2548 C2529 1.368 . S
C2548 C2542 1.368 . S
C2548 C2547 1.523 . S
C2549 C2533 1.429 . S
C2549 C2545 1.429 . S
C2549 C2550 1.523 . S
C2550 C2534 1.368 . S
C2550 C2546 1.368 . S
C2550 C2549 1.523 . S
H2551 C2526 0.950 . S
H2552 C2528 0.950 . S
H2553 C2529 0.949 . S
H2554 C2531 0.950 . S
H2555 C2533 0.950 . S
C2556 C2557 1.349 . S
C2556 C2558 1.327 . S
C2556 H2581 0.950 . S
C2557 C2556 1.349 . S
C2557 C2573 1.349 . S
C2558 C2556 1.327 . S
C2558 C2577 1.429 . S
C2558 H2582 0.950 . S
C2559 C2576 1.574 . S
C2559 C2578 1.368 . S
C2559 H2583 0.949 . S
H2560 C2564 0.949 . S
C2561 C2562 1.349 . S
C2561 C2563 1.315 1_455 S
C2561 H2584 0.962 . S
C2562 C2561 1.349 . S
C2562 C2574 1.326 1_455 S
C2563 C2561 1.315 1_655 S
C2563 C2579 1.429 . S
C2563 H2585 0.950 . S
C2564 H2560 0.949 . S
C2564 C2572 1.574 . S
C2564 C2580 1.368 . S
H2565 C2573 0.950 . S
H2566 C2571 0.950 . S
H2567 C2572 0.949 . S
H2568 C2574 0.950 . S
H2569 C2575 0.950 . S
H2570 C2576 0.949 . S
C2571 H2566 0.950 . S
C2571 C2573 1.327 . S
C2571 C2577 1.429 . S
C2572 C2564 1.574 . S
C2572 H2567 0.949 . S
C2572 C2578 1.368 . S
C2573 C2557 1.349 . S
C2573 H2565 0.950 . S
C2573 C2571 1.327 . S
C2574 C2562 1.326 1_655 S
C2574 H2568 0.950 . S
C2574 C2575 1.327 . S
C2575 H2569 0.950 . S
C2575 C2574 1.327 . S
C2575 C2579 1.429 . S
C2576 C2559 1.574 . S
C2576 H2570 0.949 . S
C2576 C2580 1.368 . S
C2577 C2558 1.429 . S
C2577 C2571 1.429 . S
C2577 C2578 1.523 . S
C2578 C2559 1.368 . S
C2578 C2572 1.368 . S
C2578 C2577 1.523 . S
C2579 C2563 1.429 . S
C2579 C2575 1.429 . S
C2579 C2580 1.523 . S
C2580 C2564 1.368 . S
C2580 C2576 1.368 . S
C2580 C2579 1.523 . S
H2581 C2556 0.950 . S
H2582 C2558 0.950 . S
H2583 C2559 0.949 . S
H2584 C2561 0.962 . S
H2585 C2563 0.950 . S
C2586 C2587 1.349 . S
C2586 C2588 1.327 . S
C2586 H2611 0.950 . S
C2587 C2586 1.349 . S
C2587 C2603 1.349 . S
C2588 C2586 1.327 . S
C2588 C2607 1.429 . S
C2588 H2612 0.950 . S
C2589 C2606 1.574 . S
C2589 C2608 1.368 . S
C2589 H2613 0.949 . S
H2590 C2594 0.949 . S
C2591 C2592 1.349 . S
C2591 C2593 1.327 . S
C2591 H2614 0.950 . S
C2592 C2591 1.349 . S
C2592 C2604 1.349 . S
C2593 C2591 1.327 . S
C2593 C2609 1.429 . S
C2593 H2615 0.950 . S
C2594 H2590 0.949 . S
C2594 C2602 1.574 . S
C2594 C2610 1.368 . S
H2595 C2603 0.950 . S
H2596 C2601 0.950 . S
H2597 C2602 0.949 . S
H2598 C2604 0.950 . S
H2599 C2605 0.950 . S
H2600 C2606 0.949 . S
C2601 H2596 0.950 . S
C2601 C2603 1.327 . S
C2601 C2607 1.429 . S
C2602 C2594 1.574 . S
C2602 H2597 0.949 . S
C2602 C2608 1.368 . S
C2603 C2587 1.349 . S
C2603 H2595 0.950 . S
C2603 C2601 1.327 . S
C2604 C2592 1.349 . S
C2604 H2598 0.950 . S
C2604 C2605 1.327 . S
C2605 H2599 0.950 . S
C2605 C2604 1.327 . S
C2605 C2609 1.429 . S
C2606 C2589 1.574 . S
C2606 H2600 0.949 . S
C2606 C2610 1.368 . S
C2607 C2588 1.429 . S
C2607 C2601 1.429 . S
C2607 C2608 1.523 . S
C2608 C2589 1.368 . S
C2608 C2602 1.368 . S
C2608 C2607 1.523 . S
C2609 C2593 1.429 . S
C2609 C2605 1.429 . S
C2609 C2610 1.523 . S
C2610 C2594 1.368 . S
C2610 C2606 1.368 . S
C2610 C2609 1.523 . S
H2611 C2586 0.950 . S
H2612 C2588 0.950 . S
H2613 C2589 0.949 . S
H2614 C2591 0.950 . S
H2615 C2593 0.950 . S
C2616 C2617 1.349 . S
C2616 C2618 1.327 . S
C2616 H2641 0.950 . S
C2617 C2616 1.349 . S
C2617 C2633 1.349 . S
C2618 C2616 1.327 . S
C2618 C2637 1.429 . S
C2618 H2642 0.950 . S
C2619 C2636 1.574 . S
C2619 C2638 1.368 . S
C2619 H2643 0.949 . S
H2620 C2624 0.949 . S
C2621 C2622 1.349 . S
C2621 C2623 1.327 . S
C2621 H2644 0.950 . S
C2622 C2621 1.349 . S
C2622 C2634 1.349 . S
C2623 C2621 1.327 . S
C2623 C2639 1.429 . S
C2623 H2645 0.950 . S
C2624 H2620 0.949 . S
C2624 C2632 1.574 . S
C2624 C2640 1.368 . S
H2625 C2633 0.950 . S
H2626 C2631 0.950 . S
H2627 C2632 0.949 . S
H2628 C2634 0.950 . S
H2629 C2635 0.950 . S
H2630 C2636 0.949 . S
C2631 H2626 0.950 . S
C2631 C2633 1.327 . S
C2631 C2637 1.429 . S
C2632 C2624 1.574 . S
C2632 H2627 0.949 . S
C2632 C2638 1.368 . S
C2633 C2617 1.349 . S
C2633 H2625 0.950 . S
C2633 C2631 1.327 . S
C2634 C2622 1.349 . S
C2634 H2628 0.950 . S
C2634 C2635 1.327 . S
C2635 H2629 0.950 . S
C2635 C2634 1.327 . S
C2635 C2639 1.429 . S
C2636 C2619 1.574 . S
C2636 H2630 0.949 . S
C2636 C2640 1.368 . S
C2637 C2618 1.429 . S
C2637 C2631 1.429 . S
C2637 C2638 1.523 . S
C2638 C2619 1.368 . S
C2638 C2632 1.368 . S
C2638 C2637 1.523 . S
C2639 C2623 1.429 . S
C2639 C2635 1.429 . S
C2639 C2640 1.523 . S
C2640 C2624 1.368 . S
C2640 C2636 1.368 . S
C2640 C2639 1.523 . S
H2641 C2616 0.950 . S
H2642 C2618 0.950 . S
H2643 C2619 0.949 . S
H2644 C2621 0.950 . S
H2645 C2623 0.950 . S
C2646 C2647 1.349 . S
C2646 C2648 1.327 . S
C2646 H2671 0.950 . S
C2647 C2646 1.349 . S
C2647 C2663 1.349 . S
C2648 C2646 1.327 . S
C2648 C2667 1.429 . S
C2648 H2672 0.950 . S
C2649 C2666 1.574 . S
C2649 C2668 1.368 . S
C2649 H2673 0.949 . S
H2650 C2654 0.949 . S
C2651 C2652 1.349 . S
C2651 C2653 1.327 . S
C2651 H2674 0.950 . S
C2652 C2651 1.349 . S
C2652 C2664 1.349 . S
C2653 C2651 1.327 . S
C2653 C2669 1.429 . S
C2653 H2675 0.950 . S
C2654 H2650 0.949 . S
C2654 C2662 1.574 . S
C2654 C2670 1.368 . S
H2655 C2663 0.950 . S
H2656 C2661 0.950 . S
H2657 C2662 0.949 . S
H2658 C2664 0.950 . S
H2659 C2665 0.950 . S
H2660 C2666 0.949 . S
C2661 H2656 0.950 . S
C2661 C2663 1.327 . S
C2661 C2667 1.429 . S
C2662 C2654 1.574 . S
C2662 H2657 0.949 . S
C2662 C2668 1.368 . S
C2663 C2647 1.349 . S
C2663 H2655 0.950 . S
C2663 C2661 1.327 . S
C2664 C2652 1.349 . S
C2664 H2658 0.950 . S
C2664 C2665 1.327 . S
C2665 H2659 0.950 . S
C2665 C2664 1.327 . S
C2665 C2669 1.429 . S
C2666 C2649 1.574 . S
C2666 H2660 0.949 . S
C2666 C2670 1.368 . S
C2667 C2648 1.429 . S
C2667 C2661 1.429 . S
C2667 C2668 1.523 . S
C2668 C2649 1.368 . S
C2668 C2662 1.368 . S
C2668 C2667 1.523 . S
C2669 C2653 1.429 . S
C2669 C2665 1.429 . S
C2669 C2670 1.523 . S
C2670 C2654 1.368 . S
C2670 C2666 1.368 . S
C2670 C2669 1.523 . S
H2671 C2646 0.950 . S
H2672 C2648 0.950 . S
H2673 C2649 0.949 . S
H2674 C2651 0.950 . S
H2675 C2653 0.950 . S
C2676 C2677 1.349 . S
C2676 C2678 1.327 . S
C2676 H2701 0.950 . S
C2677 C2676 1.349 . S
C2677 C2693 1.349 . S
C2678 C2676 1.327 . S
C2678 C2697 1.429 . S
C2678 H2702 0.950 . S
C2679 C2696 1.574 . S
C2679 C2698 1.368 . S
C2679 H2703 0.949 . S
H2680 C2684 0.949 . S
C2681 C2682 1.349 . S
C2681 C2683 1.327 . S
C2681 H2704 0.950 . S
C2682 C2681 1.349 . S
C2682 C2694 1.349 . S
C2683 C2681 1.327 . S
C2683 C2699 1.429 . S
C2683 H2705 0.950 . S
C2684 H2680 0.949 . S
C2684 C2692 1.574 . S
C2684 C2700 1.368 . S
H2685 C2693 0.950 . S
H2686 C2691 0.950 . S
H2687 C2692 0.949 . S
H2688 C2694 0.972 . S
H2689 C2695 0.950 . S
H2690 C2696 0.949 . S
C2691 H2686 0.950 . S
C2691 C2693 1.327 . S
C2691 C2697 1.429 . S
C2692 C2684 1.574 . S
C2692 H2687 0.949 . S
C2692 C2698 1.368 . S
C2693 C2677 1.349 . S
C2693 H2685 0.950 . S
C2693 C2691 1.327 . S
C2694 C2682 1.349 . S
C2694 H2688 0.972 . S
C2694 C2695 1.327 . S
C2695 H2689 0.950 . S
C2695 C2694 1.327 . S
C2695 C2699 1.429 . S
C2696 C2679 1.574 . S
C2696 H2690 0.949 . S
C2696 C2700 1.368 . S
C2697 C2678 1.429 . S
C2697 C2691 1.429 . S
C2697 C2698 1.523 . S
C2698 C2679 1.368 . S
C2698 C2692 1.368 . S
C2698 C2697 1.523 . S
C2699 C2683 1.429 . S
C2699 C2695 1.429 . S
C2699 C2700 1.523 . S
C2700 C2684 1.368 . S
C2700 C2696 1.368 . S
C2700 C2699 1.523 . S
H2701 C2676 0.950 . S
H2702 C2678 0.950 . S
H2703 C2679 0.949 . S
H2704 C2681 0.950 . S
H2705 C2683 0.950 . S
C2706 C2707 1.349 . S
C2706 C2708 1.327 . S
C2706 H2731 0.950 . S
C2707 C2706 1.349 . S
C2707 C2723 1.349 . S
C2708 C2706 1.327 . S
C2708 C2727 1.429 . S
C2708 H2732 0.950 . S
C2709 C2726 1.574 . S
C2709 C2728 1.368 . S
C2709 H2733 0.949 . S
H2710 C2714 0.949 . S
C2711 C2712 1.349 . S
C2711 C2713 1.327 . S
C2711 H2734 0.950 . S
C2712 C2711 1.349 . S
C2712 C2724 1.349 . S
C2713 C2711 1.327 . S
C2713 C2729 1.429 . S
C2713 H2735 0.950 . S
C2714 H2710 0.949 . S
C2714 C2722 1.574 . S
C2714 C2730 1.368 . S
H2715 C2723 0.950 . S
H2716 C2721 0.950 . S
H2717 C2722 0.949 . S
H2718 C2724 0.950 . S
H2719 C2725 0.950 . S
H2720 C2726 0.949 . S
C2721 H2716 0.950 . S
C2721 C2723 1.327 . S
C2721 C2727 1.429 . S
C2722 C2714 1.574 . S
C2722 H2717 0.949 . S
C2722 C2728 1.368 . S
C2723 C2707 1.349 . S
C2723 H2715 0.950 . S
C2723 C2721 1.327 . S
C2724 C2712 1.349 . S
C2724 H2718 0.950 . S
C2724 C2725 1.327 . S
C2725 H2719 0.950 . S
C2725 C2724 1.327 . S
C2725 C2729 1.429 . S
C2726 C2709 1.574 . S
C2726 H2720 0.949 . S
C2726 C2730 1.368 . S
C2727 C2708 1.429 . S
C2727 C2721 1.429 . S
C2727 C2728 1.523 . S
C2728 C2709 1.368 . S
C2728 C2722 1.368 . S
C2728 C2727 1.523 . S
C2729 C2713 1.429 . S
C2729 C2725 1.429 . S
C2729 C2730 1.523 . S
C2730 C2714 1.368 . S
C2730 C2726 1.368 . S
C2730 C2729 1.523 . S
H2731 C2706 0.950 . S
H2732 C2708 0.950 . S
H2733 C2709 0.949 . S
H2734 C2711 0.950 . S
H2735 C2713 0.950 . S
C2736 C2737 1.349 . S
C2736 C2738 1.327 . S
C2736 H2761 0.950 . S
C2737 C2736 1.349 . S
C2737 C2753 1.349 . S
C2738 C2736 1.327 . S
C2738 C2757 1.429 . S
C2738 H2762 0.950 . S
C2739 C2756 1.574 . S
C2739 C2758 1.368 . S
C2739 H2763 0.949 . S
H2740 C2744 0.949 . S
C2741 C2742 1.349 . S
C2741 C2743 1.327 . S
C2741 H2764 0.950 . S
C2742 C2741 1.349 . S
C2742 C2754 1.349 . S
C2743 C2741 1.327 . S
C2743 C2759 1.429 . S
C2743 H2765 0.950 . S
C2744 H2740 0.949 . S
C2744 C2752 1.574 . S
C2744 C2760 1.368 . S
H2745 C2753 0.950 . S
H2746 C2751 0.950 . S
H2747 C2752 0.949 . S
H2748 C2754 0.950 . S
H2749 C2755 0.950 . S
H2750 C2756 0.949 . S
C2751 H2746 0.950 . S
C2751 C2753 1.327 . S
C2751 C2757 1.429 . S
C2752 C2744 1.574 . S
C2752 H2747 0.949 . S
C2752 C2758 1.368 . S
C2753 C2737 1.349 . S
C2753 H2745 0.950 . S
C2753 C2751 1.327 . S
C2754 C2742 1.349 . S
C2754 H2748 0.950 . S
C2754 C2755 1.327 . S
C2755 H2749 0.950 . S
C2755 C2754 1.327 . S
C2755 C2759 1.429 . S
C2756 C2739 1.574 . S
C2756 H2750 0.949 . S
C2756 C2760 1.368 . S
C2757 C2738 1.429 . S
C2757 C2751 1.429 . S
C2757 C2758 1.523 . S
C2758 C2739 1.368 . S
C2758 C2752 1.368 . S
C2758 C2757 1.523 . S
C2759 C2743 1.429 . S
C2759 C2755 1.429 . S
C2759 C2760 1.523 . S
C2760 C2744 1.368 . S
C2760 C2756 1.368 . S
C2760 C2759 1.523 . S
H2761 C2736 0.950 . S
H2762 C2738 0.950 . S
H2763 C2739 0.949 . S
H2764 C2741 0.950 . S
H2765 C2743 0.950 . S
C2766 C2767 1.349 . S
C2766 C2768 1.327 . S
C2766 H2791 0.950 . S
C2767 C2766 1.349 . S
C2767 C2783 1.349 . S
C2768 C2766 1.327 . S
C2768 C2787 1.429 . S
C2768 H2792 0.950 . S
C2769 C2786 1.574 . S
C2769 C2788 1.368 . S
C2769 H2793 0.949 . S
H2770 C2774 0.949 1_545 S
C2771 C2772 1.349 1_565 S
C2771 C2773 1.327 . S
C2771 H2794 0.950 . S
C2772 C2771 1.349 1_545 S
C2772 C2784 1.349 . S
C2773 C2771 1.327 . S
C2773 C2789 1.429 . S
C2773 H2795 0.950 . S
C2774 H2770 0.949 1_565 S
C2774 C2782 1.574 . S
C2774 C2790 1.368 . S
H2775 C2783 0.950 . S
H2776 C2781 0.950 . S
H2777 C2782 0.949 . S
H2778 C2784 0.950 . S
H2779 C2785 0.950 . S
H2780 C2786 0.949 . S
C2781 H2776 0.950 . S
C2781 C2783 1.327 . S
C2781 C2787 1.429 . S
C2782 C2774 1.574 . S
C2782 H2777 0.949 . S
C2782 C2788 1.368 . S
C2783 C2767 1.349 . S
C2783 H2775 0.950 . S
C2783 C2781 1.327 . S
C2784 C2772 1.349 . S
C2784 H2778 0.950 . S
C2784 C2785 1.327 . S
C2785 H2779 0.950 . S
C2785 C2784 1.327 . S
C2785 C2789 1.429 1_545 S
C2786 C2769 1.574 . S
C2786 H2780 0.949 . S
C2786 C2790 1.368 . S
C2787 C2768 1.429 . S
C2787 C2781 1.429 . S
C2787 C2788 1.523 . S
C2788 C2769 1.368 . S
C2788 C2782 1.368 . S
C2788 C2787 1.523 . S
C2789 C2773 1.429 . S
C2789 C2785 1.429 1_565 S
C2789 C2790 1.523 . S
C2790 C2774 1.368 . S
C2790 C2786 1.368 . S
C2790 C2789 1.523 . S
H2791 C2766 0.950 . S
H2792 C2768 0.950 . S
H2793 C2769 0.949 . S
H2794 C2771 0.950 . S
H2795 C2773 0.950 . S
C2796 C2797 1.349 1_565 S
C2796 C2798 1.327 . S
C2796 H2821 0.950 . S
C2797 C2796 1.349 1_545 S
C2797 C2813 1.349 . S
C2798 C2796 1.327 . S
C2798 C2817 1.429 . S
C2798 H2822 0.950 . S
C2799 C2816 1.574 . S
C2799 C2818 1.368 . S
C2799 H2823 0.949 . S
H2800 C2804 0.949 . S
C2801 C2802 1.349 . S
C2801 C2803 1.327 . S
C2801 H2824 0.950 . S
C2802 C2801 1.349 . S
C2802 C2814 1.349 . S
C2803 C2801 1.327 . S
C2803 C2819 1.429 . S
C2803 H2825 0.950 . S
C2804 H2800 0.949 . S
C2804 C2812 1.574 . S
C2804 C2820 1.368 . S
H2805 C2813 0.950 . S
H2806 C2811 0.950 . S
H2807 C2812 0.949 . S
H2808 C2814 0.950 . S
H2809 C2815 0.950 . S
H2810 C2816 0.949 . S
C2811 H2806 0.950 . S
C2811 C2813 1.327 1_565 S
C2811 C2817 1.429 . S
C2812 C2804 1.574 . S
C2812 H2807 0.949 . S
C2812 C2818 1.368 . S
C2813 C2797 1.349 . S
C2813 H2805 0.950 . S
C2813 C2811 1.327 1_545 S
C2814 C2802 1.349 . S
C2814 H2808 0.950 . S
C2814 C2815 1.327 . S
C2815 H2809 0.950 . S
C2815 C2814 1.327 . S
C2815 C2819 1.429 . S
C2816 C2799 1.574 . S
C2816 H2810 0.949 . S
C2816 C2820 1.368 . S
C2817 C2798 1.429 . S
C2817 C2811 1.429 . S
C2817 C2818 1.523 . S
C2818 C2799 1.368 . S
C2818 C2812 1.368 . S
C2818 C2817 1.523 . S
C2819 C2803 1.429 . S
C2819 C2815 1.429 . S
C2819 C2820 1.523 . S
C2820 C2804 1.368 . S
C2820 C2816 1.368 . S
C2820 C2819 1.523 . S
H2821 C2796 0.950 . S
H2822 C2798 0.950 . S
H2823 C2799 0.949 . S
H2824 C2801 0.950 . S
H2825 C2803 0.950 . S
C2826 C2827 1.349 . S
C2826 C2828 1.327 . S
C2826 H2851 0.950 . S
C2827 C2826 1.349 . S
C2827 C2843 1.349 . S
C2828 C2826 1.327 . S
C2828 C2847 1.429 . S
C2828 H2852 0.950 . S
C2829 C2846 1.574 . S
C2829 C2848 1.368 . S
C2829 H2853 0.949 . S
H2830 C2834 0.949 . S
C2831 C2832 1.349 . S
C2831 C2833 1.327 . S
C2831 H2854 0.950 . S
C2832 C2831 1.349 . S
C2832 C2844 1.349 . S
C2833 C2831 1.327 . S
C2833 C2849 1.429 . S
C2833 H2855 0.950 . S
C2834 H2830 0.949 . S
C2834 C2842 1.574 . S
C2834 C2850 1.368 . S
H2835 C2843 0.998 . S
H2836 C2841 0.950 . S
H2837 C2842 0.949 . S
H2838 C2844 0.950 . S
H2839 C2845 0.950 . S
H2840 C2846 0.949 . S
C2841 H2836 0.950 . S
C2841 C2843 1.327 . S
C2841 C2847 1.429 . S
C2842 C2834 1.574 . S
C2842 H2837 0.949 . S
C2842 C2848 1.368 . S
C2843 C2827 1.349 . S
C2843 H2835 0.998 . S
C2843 C2841 1.327 . S
C2844 C2832 1.349 . S
C2844 H2838 0.950 . S
C2844 C2845 1.327 . S
C2845 H2839 0.950 . S
C2845 C2844 1.327 . S
C2845 C2849 1.429 . S
C2846 C2829 1.574 . S
C2846 H2840 0.949 . S
C2846 C2850 1.368 . S
C2847 C2828 1.429 . S
C2847 C2841 1.429 . S
C2847 C2848 1.523 . S
C2848 C2829 1.368 . S
C2848 C2842 1.368 . S
C2848 C2847 1.523 . S
C2849 C2833 1.429 . S
C2849 C2845 1.429 . S
C2849 C2850 1.523 . S
C2850 C2834 1.368 . S
C2850 C2846 1.368 . S
C2850 C2849 1.523 . S
H2851 C2826 0.950 . S
H2852 C2828 0.950 . S
H2853 C2829 0.949 . S
H2854 C2831 0.950 . S
H2855 C2833 0.950 . S
C2856 C2857 1.349 . S
C2856 C2858 1.327 . S
C2856 H2881 0.950 . S
C2857 C2856 1.349 . S
C2857 C2873 1.349 . S
C2858 C2856 1.327 . S
C2858 C2877 1.429 . S
C2858 H2882 0.950 . S
C2859 C2876 1.574 . S
C2859 C2878 1.368 . S
C2859 H2883 0.949 . S
H2860 C2864 0.949 . S
C2861 C2862 1.349 . S
C2861 C2863 1.327 . S
C2861 H2884 0.950 . S
C2862 C2861 1.349 . S
C2862 C2874 1.349 . S
C2863 C2861 1.327 . S
C2863 C2879 1.429 . S
C2863 H2885 0.950 . S
C2864 H2860 0.949 . S
C2864 C2872 1.574 . S
C2864 C2880 1.368 . S
H2865 C2873 0.950 . S
H2866 C2871 0.950 . S
H2867 C2872 0.949 . S
H2868 C2874 0.950 . S
H2869 C2875 0.950 . S
H2870 C2876 0.949 . S
C2871 H2866 0.950 . S
C2871 C2873 1.327 . S
C2871 C2877 1.429 . S
C2872 C2864 1.574 . S
C2872 H2867 0.949 . S
C2872 C2878 1.368 . S
C2873 C2857 1.349 . S
C2873 H2865 0.950 . S
C2873 C2871 1.327 . S
C2874 C2862 1.349 . S
C2874 H2868 0.950 . S
C2874 C2875 1.327 . S
C2875 H2869 0.950 . S
C2875 C2874 1.327 . S
C2875 C2879 1.429 . S
C2876 C2859 1.574 . S
C2876 H2870 0.949 . S
C2876 C2880 1.368 . S
C2877 C2858 1.429 . S
C2877 C2871 1.429 . S
C2877 C2878 1.523 . S
C2878 C2859 1.368 . S
C2878 C2872 1.368 . S
C2878 C2877 1.523 . S
C2879 C2863 1.429 . S
C2879 C2875 1.429 . S
C2879 C2880 1.523 . S
C2880 C2864 1.368 . S
C2880 C2876 1.368 . S
C2880 C2879 1.523 . S
H2881 C2856 0.950 . S
H2882 C2858 0.950 . S
H2883 C2859 0.949 . S
H2884 C2861 0.950 . S
H2885 C2863 0.950 . S
C2886 C2887 1.349 . S
C2886 C2888 1.327 . S
C2886 H2911 0.950 . S
C2887 C2886 1.349 . S
C2887 C2903 1.349 . S
C2888 C2886 1.327 . S
C2888 C2907 1.429 . S
C2888 H2912 0.950 . S
C2889 C2906 1.574 . S
C2889 C2908 1.368 . S
C2889 H2913 0.949 . S
H2890 C2894 0.949 . S
C2891 C2892 1.349 1_556 S
C2891 C2893 1.329 . S
C2891 H2914 0.950 . S
C2892 C2891 1.349 1_554 S
C2892 C2904 1.349 . S
C2893 C2891 1.329 . S
C2893 C2909 1.421 1_556 S
C2893 H2915 0.956 . S
C2894 H2890 0.949 . S
C2894 C2902 1.574 . S
C2894 C2910 1.368 . S
H2895 C2903 0.950 . S
H2896 C2901 0.950 . S
H2897 C2902 0.949 . S
H2898 C2904 0.950 . S
H2899 C2905 0.950 . S
H2900 C2906 0.949 1_556 S
C2901 H2896 0.950 . S
C2901 C2903 1.327 . S
C2901 C2907 1.429 . S
C2902 C2894 1.574 . S
C2902 H2897 0.949 . S
C2902 C2908 1.368 . S
C2903 C2887 1.349 . S
C2903 H2895 0.950 . S
C2903 C2901 1.327 . S
C2904 C2892 1.349 . S
C2904 H2898 0.950 . S
C2904 C2905 1.327 . S
C2905 H2899 0.950 . S
C2905 C2904 1.327 . S
C2905 C2909 1.429 . S
C2906 C2889 1.574 . S
C2906 H2900 0.949 1_554 S
C2906 C2910 1.368 . S
C2907 C2888 1.429 . S
C2907 C2901 1.429 . S
C2907 C2908 1.523 . S
C2908 C2889 1.368 . S
C2908 C2902 1.368 . S
C2908 C2907 1.523 . S
C2909 C2893 1.421 1_554 S
C2909 C2905 1.429 . S
C2909 C2910 1.523 . S
C2910 C2894 1.368 . S
C2910 C2906 1.368 . S
C2910 C2909 1.523 . S
H2911 C2886 0.950 . S
H2912 C2888 0.950 . S
H2913 C2889 0.949 . S
H2914 C2891 0.950 . S
H2915 C2893 0.956 . S
C2916 C2917 1.349 . S
C2916 C2918 1.327 . S
C2916 H2941 0.950 . S
C2917 C2916 1.349 . S
C2917 C2933 1.349 . S
C2918 C2916 1.327 . S
C2918 C2937 1.429 . S
C2918 H2942 0.950 . S
C2919 C2936 1.574 . S
C2919 C2938 1.368 . S
C2919 H2943 0.949 . S
H2920 C2924 0.949 . S
C2921 C2922 1.349 . S
C2921 C2923 1.327 . S
C2921 H2944 0.950 . S
C2922 C2921 1.349 . S
C2922 C2934 1.349 . S
C2923 C2921 1.327 . S
C2923 C2939 1.429 . S
C2923 H2945 0.950 . S
C2924 H2920 0.949 . S
C2924 C2932 1.574 . S
C2924 C2940 1.368 . S
H2925 C2933 0.950 . S
H2926 C2931 0.950 . S
H2927 C2932 0.949 . S
H2928 C2934 0.950 . S
H2929 C2935 0.950 . S
H2930 C2936 0.949 . S
C2931 H2926 0.950 . S
C2931 C2933 1.327 . S
C2931 C2937 1.429 . S
C2932 C2924 1.574 . S
C2932 H2927 0.949 . S
C2932 C2938 1.368 . S
C2933 C2917 1.349 . S
C2933 H2925 0.950 . S
C2933 C2931 1.327 . S
C2934 C2922 1.349 . S
C2934 H2928 0.950 . S
C2934 C2935 1.327 . S
C2935 H2929 0.950 . S
C2935 C2934 1.327 . S
C2935 C2939 1.429 . S
C2936 C2919 1.574 . S
C2936 H2930 0.949 . S
C2936 C2940 1.368 . S
C2937 C2918 1.429 . S
C2937 C2931 1.429 . S
C2937 C2938 1.523 . S
C2938 C2919 1.368 . S
C2938 C2932 1.368 . S
C2938 C2937 1.523 . S
C2939 C2923 1.429 . S
C2939 C2935 1.429 . S
C2939 C2940 1.523 . S
C2940 C2924 1.368 . S
C2940 C2936 1.368 . S
C2940 C2939 1.523 . S
H2941 C2916 0.950 . S
H2942 C2918 0.950 . S
H2943 C2919 0.949 . S
H2944 C2921 0.950 . S
H2945 C2923 0.950 . S
C2946 C2947 1.349 . S
C2946 C2948 1.327 . S
C2946 H2971 0.950 . S
C2947 C2946 1.349 . S
C2947 C2963 1.349 . S
C2948 C2946 1.327 . S
C2948 C2967 1.429 . S
C2948 H2972 0.950 . S
C2949 C2966 1.574 . S
C2949 C2968 1.368 . S
C2949 H2973 0.949 . S
H2950 C2954 0.949 . S
C2951 C2952 1.349 . S
C2951 C2953 1.327 . S
C2951 H2974 0.950 . S
C2952 C2951 1.349 . S
C2952 C2964 1.349 . S
C2953 C2951 1.327 . S
C2953 C2969 1.429 . S
C2953 H2975 0.950 . S
C2954 H2950 0.949 . S
C2954 C2962 1.574 . S
C2954 C2970 1.368 . S
H2955 C2963 0.950 . S
H2956 C2961 0.950 . S
H2957 C2962 0.949 . S
H2958 C2964 0.950 . S
H2959 C2965 0.950 . S
H2960 C2966 0.949 . S
C2961 H2956 0.950 . S
C2961 C2963 1.327 . S
C2961 C2967 1.429 . S
C2962 C2954 1.574 . S
C2962 H2957 0.949 . S
C2962 C2968 1.368 . S
C2963 C2947 1.349 . S
C2963 H2955 0.950 . S
C2963 C2961 1.327 . S
C2964 C2952 1.349 . S
C2964 H2958 0.950 . S
C2964 C2965 1.327 . S
C2965 H2959 0.950 . S
C2965 C2964 1.327 . S
C2965 C2969 1.429 . S
C2966 C2949 1.574 . S
C2966 H2960 0.949 . S
C2966 C2970 1.368 . S
C2967 C2948 1.429 . S
C2967 C2961 1.429 . S
C2967 C2968 1.523 . S
C2968 C2949 1.368 . S
C2968 C2962 1.368 . S
C2968 C2967 1.523 . S
C2969 C2953 1.429 . S
C2969 C2965 1.429 . S
C2969 C2970 1.523 . S
C2970 C2954 1.368 . S
C2970 C2966 1.368 . S
C2970 C2969 1.523 . S
H2971 C2946 0.950 . S
H2972 C2948 0.950 . S
H2973 C2949 0.949 . S
H2974 C2951 0.950 . S
H2975 C2953 0.950 . S
C2976 C2977 1.349 . S
C2976 C2978 1.327 . S
C2976 H3001 0.950 . S
C2977 C2976 1.349 . S
C2977 C2993 1.349 . S
C2978 C2976 1.327 . S
C2978 C2997 1.429 . S
C2978 H3002 0.950 . S
C2979 C2996 1.574 . S
C2979 C2998 1.368 . S
C2979 H3003 0.949 . S
H2980 C2984 0.949 . S
C2981 C2982 1.349 . S
C2981 C2983 1.327 . S
C2981 H3004 0.950 . S
C2982 C2981 1.349 . S
C2982 C2994 1.349 . S
C2983 C2981 1.327 . S
C2983 C2999 1.429 . S
C2983 H3005 0.950 . S
C2984 H2980 0.949 . S
C2984 C2992 1.574 . S
C2984 C3000 1.368 . S
H2985 C2993 0.950 . S
H2986 C2991 0.950 . S
H2987 C2992 0.949 . S
H2988 C2994 0.950 . S
H2989 C2995 0.950 . S
H2990 C2996 0.949 . S
C2991 H2986 0.950 . S
C2991 C2993 1.327 . S
C2991 C2997 1.429 . S
C2992 C2984 1.574 . S
C2992 H2987 0.949 . S
C2992 C2998 1.368 . S
C2993 C2977 1.349 . S
C2993 H2985 0.950 . S
C2993 C2991 1.327 . S
C2994 C2982 1.349 . S
C2994 H2988 0.950 . S
C2994 C2995 1.327 . S
C2995 H2989 0.950 . S
C2995 C2994 1.327 . S
C2995 C2999 1.429 . S
C2996 C2979 1.574 . S
C2996 H2990 0.949 . S
C2996 C3000 1.368 . S
C2997 C2978 1.429 . S
C2997 C2991 1.429 . S
C2997 C2998 1.523 . S
C2998 C2979 1.368 . S
C2998 C2992 1.368 . S
C2998 C2997 1.523 . S
C2999 C2983 1.429 . S
C2999 C2995 1.429 . S
C2999 C3000 1.523 . S
C3000 C2984 1.368 . S
C3000 C2996 1.368 . S
C3000 C2999 1.523 . S
H3001 C2976 0.950 . S
H3002 C2978 0.950 . S
H3003 C2979 0.949 . S
H3004 C2981 0.950 . S
H3005 C2983 0.950 . S
C3006 C3007 1.349 . S
C3006 C3008 1.327 . S
C3006 H3031 0.950 . S
C3007 C3006 1.349 . S
C3007 C3023 1.349 . S
C3008 C3006 1.327 . S
C3008 C3027 1.429 . S
C3008 H3032 0.950 . S
C3009 C3026 1.574 . S
C3009 C3028 1.368 . S
C3009 H3033 0.949 . S
H3010 C3014 0.949 . S
C3011 C3012 1.349 . S
C3011 C3013 1.327 . S
C3011 H3034 0.950 . S
C3012 C3011 1.349 . S
C3012 C3024 1.349 . S
C3013 C3011 1.327 . S
C3013 C3029 1.429 . S
C3013 H3035 0.950 . S
C3014 H3010 0.949 . S
C3014 C3022 1.574 . S
C3014 C3030 1.368 . S
H3015 C3023 0.950 . S
H3016 C3021 0.950 . S
H3017 C3022 0.949 . S
H3018 C3024 0.950 . S
H3019 C3025 0.950 . S
H3020 C3026 0.949 . S
C3021 H3016 0.950 . S
C3021 C3023 1.327 . S
C3021 C3027 1.429 . S
C3022 C3014 1.574 . S
C3022 H3017 0.949 . S
C3022 C3028 1.368 . S
C3023 C3007 1.349 . S
C3023 H3015 0.950 . S
C3023 C3021 1.327 . S
C3024 C3012 1.349 . S
C3024 H3018 0.950 . S
C3024 C3025 1.327 . S
C3025 H3019 0.950 . S
C3025 C3024 1.327 . S
C3025 C3029 1.429 . S
C3026 C3009 1.574 . S
C3026 H3020 0.949 . S
C3026 C3030 1.368 . S
C3027 C3008 1.429 . S
C3027 C3021 1.429 . S
C3027 C3028 1.523 . S
C3028 C3009 1.368 . S
C3028 C3022 1.368 . S
C3028 C3027 1.523 . S
C3029 C3013 1.429 . S
C3029 C3025 1.429 . S
C3029 C3030 1.523 . S
C3030 C3014 1.368 . S
C3030 C3026 1.368 . S
C3030 C3029 1.523 . S
H3031 C3006 0.950 . S
H3032 C3008 0.950 . S
H3033 C3009 0.949 . S
H3034 C3011 0.950 . S
H3035 C3013 0.950 . S
C3036 C3037 1.349 . S
C3036 C3038 1.327 . S
C3036 H3061 0.950 . S
C3037 C3036 1.349 . S
C3037 C3053 1.349 . S
C3038 C3036 1.327 . S
C3038 C3057 1.429 . S
C3038 H3062 0.950 . S
C3039 C3056 1.574 . S
C3039 C3058 1.368 . S
C3039 H3063 0.949 1_455 S
H3040 C3044 0.949 . S
C3041 C3042 1.359 1_554 S
C3041 C3043 1.312 1_554 S
C3041 H3064 0.939 1_455 S
C3042 C3041 1.359 1_556 S
C3042 C3054 1.349 . S
C3043 C3041 1.312 1_556 S
C3043 C3059 1.490 . S
C3043 H3065 0.906 1_456 S
C3044 H3040 0.949 . S
C3044 C3052 1.574 . S
C3044 C3060 1.368 . S
H3045 C3053 0.951 . S
H3046 C3051 0.950 1_655 S
H3047 C3052 0.949 . S
H3048 C3054 0.950 . S
H3049 C3055 0.950 . S
H3050 C3056 0.949 1_655 S
C3051 H3046 0.950 1_455 S
C3051 C3053 1.327 . S
C3051 C3057 1.429 . S
C3052 C3044 1.574 . S
C3052 H3047 0.949 . S
C3052 C3058 1.368 . S
C3053 C3037 1.349 . S
C3053 H3045 0.951 . S
C3053 C3051 1.327 . S
C3054 C3042 1.349 . S
C3054 H3048 0.950 . S
C3054 C3055 1.327 . S
C3055 H3049 0.950 . S
C3055 C3054 1.327 . S
C3055 C3059 1.429 . S
C3056 C3039 1.574 . S
C3056 H3050 0.949 1_455 S
C3056 C3060 1.368 . S
C3057 C3038 1.429 . S
C3057 C3051 1.429 . S
C3057 C3058 1.523 . S
C3058 C3039 1.368 . S
C3058 C3052 1.368 . S
C3058 C3057 1.523 . S
C3059 C3043 1.490 . S
C3059 C3055 1.429 . S
C3059 C3060 1.523 . S
C3060 C3044 1.368 . S
C3060 C3056 1.368 . S
C3060 C3059 1.523 . S
H3061 C3036 0.950 . S
H3062 C3038 0.950 . S
H3063 C3039 0.949 1_655 S
H3064 C3041 0.939 1_655 S
H3065 C3043 0.906 1_654 S
C3066 C3067 1.349 . S
C3066 C3068 1.327 . S
C3066 H3091 0.950 . S
C3067 C3066 1.349 . S
C3067 C3083 1.349 . S
C3068 C3066 1.327 . S
C3068 C3087 1.429 . S
C3068 H3092 0.950 . S
C3069 C3086 1.574 . S
C3069 C3088 1.368 . S
C3069 H3093 0.949 . S
H3070 C3074 0.949 . S
C3071 C3072 1.349 . S
C3071 C3073 1.327 . S
C3071 H3094 0.950 . S
C3072 C3071 1.349 . S
C3072 C3084 1.349 . S
C3073 C3071 1.327 . S
C3073 C3089 1.429 . S
C3073 H3095 0.950 . S
C3074 H3070 0.949 . S
C3074 C3082 1.574 . S
C3074 C3090 1.368 . S
H3075 C3083 0.950 . S
H3076 C3081 0.950 . S
H3077 C3082 0.949 . S
H3078 C3084 0.950 . S
H3079 C3085 0.950 . S
H3080 C3086 0.949 . S
C3081 H3076 0.950 . S
C3081 C3083 1.327 . S
C3081 C3087 1.429 . S
C3082 C3074 1.574 . S
C3082 H3077 0.949 . S
C3082 C3088 1.368 . S
C3083 C3067 1.349 . S
C3083 H3075 0.950 . S
C3083 C3081 1.327 . S
C3084 C3072 1.349 . S
C3084 H3078 0.950 . S
C3084 C3085 1.327 . S
C3085 H3079 0.950 . S
C3085 C3084 1.327 . S
C3085 C3089 1.429 . S
C3086 C3069 1.574 . S
C3086 H3080 0.949 . S
C3086 C3090 1.368 . S
C3087 C3068 1.429 . S
C3087 C3081 1.429 . S
C3087 C3088 1.523 . S
C3088 C3069 1.368 . S
C3088 C3082 1.368 . S
C3088 C3087 1.523 . S
C3089 C3073 1.429 . S
C3089 C3085 1.429 . S
C3089 C3090 1.523 . S
C3090 C3074 1.368 . S
C3090 C3086 1.368 . S
C3090 C3089 1.523 . S
H3091 C3066 0.950 . S
H3092 C3068 0.950 . S
H3093 C3069 0.949 . S
H3094 C3071 0.950 . S
H3095 C3073 0.950 . S
C3096 C3097 1.349 . S
C3096 C3098 1.327 . S
C3096 H3121 0.950 . S
C3097 C3096 1.349 . S
C3097 C3113 1.349 . S
C3098 C3096 1.327 . S
C3098 C3117 1.429 . S
C3098 H3122 0.950 . S
C3099 C3116 1.574 . S
C3099 C3118 1.368 . S
C3099 H3123 0.949 . S
H3100 C3104 0.949 . S
C3101 C3102 1.349 . S
C3101 C3103 1.327 . S
C3101 H3124 0.950 . S
C3102 C3101 1.349 . S
C3102 C3114 1.349 . S
C3103 C3101 1.327 . S
C3103 C3119 1.429 . S
C3103 H3125 0.950 . S
C3104 H3100 0.949 . S
C3104 C3112 1.574 . S
C3104 C3120 1.368 . S
H3105 C3113 0.950 . S
H3106 C3111 0.950 . S
H3107 C3112 0.949 . S
H3108 C3114 0.950 . S
H3109 C3115 0.950 . S
H3110 C3116 0.949 . S
C3111 H3106 0.950 . S
C3111 C3113 1.327 . S
C3111 C3117 1.429 . S
C3112 C3104 1.574 . S
C3112 H3107 0.949 . S
C3112 C3118 1.368 . S
C3113 C3097 1.349 . S
C3113 H3105 0.950 . S
C3113 C3111 1.327 . S
C3114 C3102 1.349 . S
C3114 H3108 0.950 . S
C3114 C3115 1.327 . S
C3115 H3109 0.950 . S
C3115 C3114 1.327 . S
C3115 C3119 1.429 . S
C3116 C3099 1.574 . S
C3116 H3110 0.949 . S
C3116 C3120 1.368 . S
C3117 C3098 1.429 . S
C3117 C3111 1.429 . S
C3117 C3118 1.523 . S
C3118 C3099 1.368 . S
C3118 C3112 1.368 . S
C3118 C3117 1.523 . S
C3119 C3103 1.429 . S
C3119 C3115 1.429 . S
C3119 C3120 1.523 . S
C3120 C3104 1.368 . S
C3120 C3116 1.368 . S
C3120 C3119 1.523 . S
H3121 C3096 0.950 . S
H3122 C3098 0.950 . S
H3123 C3099 0.949 . S
H3124 C3101 0.950 . S
H3125 C3103 0.950 . S
C3126 C3127 1.349 . S
C3126 C3128 1.327 . S
C3126 H3151 0.950 . S
C3127 C3126 1.349 . S
C3127 C3143 1.349 . S
C3128 C3126 1.327 . S
C3128 C3147 1.429 . S
C3128 H3152 0.950 . S
C3129 C3146 1.574 . S
C3129 C3148 1.368 . S
C3129 H3153 0.949 . S
H3130 C3134 0.949 . S
C3131 C3132 1.349 . S
C3131 C3133 1.327 . S
C3131 H3154 0.950 . S
C3132 C3131 1.349 . S
C3132 C3144 1.349 . S
C3133 C3131 1.327 . S
C3133 C3149 1.429 . S
C3133 H3155 0.950 . S
C3134 H3130 0.949 . S
C3134 C3142 1.574 . S
C3134 C3150 1.368 . S
H3135 C3143 0.950 . S
H3136 C3141 0.950 . S
H3137 C3142 0.949 . S
H3138 C3144 0.950 . S
H3139 C3145 0.950 . S
H3140 C3146 0.949 . S
C3141 H3136 0.950 . S
C3141 C3143 1.327 . S
C3141 C3147 1.429 . S
C3142 C3134 1.574 . S
C3142 H3137 0.949 . S
C3142 C3148 1.368 . S
C3143 C3127 1.349 . S
C3143 H3135 0.950 . S
C3143 C3141 1.327 . S
C3144 C3132 1.349 . S
C3144 H3138 0.950 . S
C3144 C3145 1.327 . S
C3145 H3139 0.950 . S
C3145 C3144 1.327 . S
C3145 C3149 1.429 . S
C3146 C3129 1.574 . S
C3146 H3140 0.949 . S
C3146 C3150 1.368 . S
C3147 C3128 1.429 . S
C3147 C3141 1.429 . S
C3147 C3148 1.523 . S
C3148 C3129 1.368 . S
C3148 C3142 1.368 . S
C3148 C3147 1.523 . S
C3149 C3133 1.429 . S
C3149 C3145 1.429 . S
C3149 C3150 1.523 . S
C3150 C3134 1.368 . S
C3150 C3146 1.368 . S
C3150 C3149 1.523 . S
H3151 C3126 0.950 . S
H3152 C3128 0.950 . S
H3153 C3129 0.949 . S
H3154 C3131 0.950 . S
H3155 C3133 0.950 . S
C3156 C3157 1.327 1_655 S
C3156 C3158 1.327 . S
C3156 H3181 0.950 . S
C3157 C3156 1.327 1_455 S
C3157 C3173 1.373 . S
C3158 C3156 1.327 . S
C3158 C3177 1.429 1_655 S
C3158 H3182 0.950 . S
C3159 C3176 1.574 . S
C3159 C3178 1.368 . S
C3159 H3183 0.949 . S
H3160 C3164 0.949 . S
C3161 C3162 1.349 . S
C3161 C3163 1.327 . S
C3161 H3184 0.950 . S
C3162 C3161 1.349 . S
C3162 C3174 1.349 1_455 S
C3163 C3161 1.327 . S
C3163 C3179 1.429 . S
C3163 H3185 0.950 . S
C3164 H3160 0.949 . S
C3164 C3172 1.574 . S
C3164 C3180 1.368 1_655 S
H3165 C3173 0.950 . S
H3166 C3171 0.950 . S
H3167 C3172 0.949 . S
H3168 C3174 0.950 . S
H3169 C3175 0.950 . S
H3170 C3176 0.949 . S
C3171 H3166 0.950 . S
C3171 C3173 1.327 . S
C3171 C3177 1.429 . S
C3172 C3164 1.574 . S
C3172 H3167 0.949 . S
C3172 C3178 1.368 1_655 S
C3173 C3157 1.373 . S
C3173 H3165 0.950 . S
C3173 C3171 1.327 . S
C3174 C3162 1.349 1_655 S
C3174 H3168 0.950 . S
C3174 C3175 1.327 . S
C3175 H3169 0.950 . S
C3175 C3174 1.327 . S
C3175 C3179 1.429 1_655 S
C3176 C3159 1.574 . S
C3176 H3170 0.949 . S
C3176 C3180 1.368 . S
C3177 C3158 1.429 1_455 S
C3177 C3171 1.429 . S
C3177 C3178 1.523 . S
C3178 C3159 1.368 . S
C3178 C3172 1.368 1_455 S
C3178 C3177 1.523 . S
C3179 C3163 1.429 . S
C3179 C3175 1.429 1_455 S
C3179 C3180 1.523 . S
C3180 C3164 1.368 1_455 S
C3180 C3176 1.368 . S
C3180 C3179 1.523 . S
H3181 C3156 0.950 . S
H3182 C3158 0.950 . S
H3183 C3159 0.949 . S
H3184 C3161 0.950 . S
H3185 C3163 0.950 . S
C3186 C3187 1.349 . S
C3186 C3188 1.327 . S
C3186 H3211 0.950 . S
C3187 C3186 1.349 . S
C3187 C3203 1.349 . S
C3188 C3186 1.327 . S
C3188 C3207 1.429 . S
C3188 H3212 0.950 . S
C3189 C3206 1.574 . S
C3189 C3208 1.368 . S
C3189 H3213 0.949 . S
H3190 C3194 0.949 . S
C3191 C3192 1.349 . S
C3191 C3193 1.327 . S
C3191 H3214 0.950 . S
C3192 C3191 1.349 . S
C3192 C3204 1.349 . S
C3193 C3191 1.327 . S
C3193 C3209 1.429 . S
C3193 H3215 0.950 . S
C3194 H3190 0.949 . S
C3194 C3202 1.574 . S
C3194 C3210 1.368 . S
H3195 C3203 0.950 . S
H3196 C3201 0.950 . S
H3197 C3202 0.949 . S
H3198 C3204 0.950 . S
H3199 C3205 0.950 . S
H3200 C3206 0.949 . S
C3201 H3196 0.950 . S
C3201 C3203 1.327 . S
C3201 C3207 1.429 . S
C3202 C3194 1.574 . S
C3202 H3197 0.949 . S
C3202 C3208 1.368 . S
C3203 C3187 1.349 . S
C3203 H3195 0.950 . S
C3203 C3201 1.327 . S
C3204 C3192 1.349 . S
C3204 H3198 0.950 . S
C3204 C3205 1.327 . S
C3205 H3199 0.950 . S
C3205 C3204 1.327 . S
C3205 C3209 1.429 . S
C3206 C3189 1.574 . S
C3206 H3200 0.949 . S
C3206 C3210 1.368 . S
C3207 C3188 1.429 . S
C3207 C3201 1.429 . S
C3207 C3208 1.523 . S
C3208 C3189 1.368 . S
C3208 C3202 1.368 . S
C3208 C3207 1.523 . S
C3209 C3193 1.429 . S
C3209 C3205 1.429 . S
C3209 C3210 1.523 . S
C3210 C3194 1.368 . S
C3210 C3206 1.368 . S
C3210 C3209 1.523 . S
H3211 C3186 0.950 . S
H3212 C3188 0.950 . S
H3213 C3189 0.949 . S
H3214 C3191 0.950 . S
H3215 C3193 0.950 . S
C3216 C3217 1.349 . S
C3216 C3218 1.327 . S
C3216 H3241 0.950 . S
C3217 C3216 1.349 . S
C3217 C3233 1.349 . S
C3218 C3216 1.327 . S
C3218 C3237 1.429 . S
C3218 H3242 0.950 . S
C3219 C3236 1.574 . S
C3219 C3238 1.368 . S
C3219 H3243 0.949 . S
H3220 C3224 0.949 . S
C3221 C3222 1.349 . S
C3221 C3223 1.327 . S
C3221 H3244 0.950 . S
C3222 C3221 1.349 . S
C3222 C3234 1.349 . S
C3223 C3221 1.327 . S
C3223 C3239 1.429 . S
C3223 H3245 0.950 . S
C3224 H3220 0.949 . S
C3224 C3232 1.574 . S
C3224 C3240 1.368 . S
H3225 C3233 0.950 . S
H3226 C3231 0.950 . S
H3227 C3232 0.949 . S
H3228 C3234 0.950 . S
H3229 C3235 0.950 . S
H3230 C3236 0.949 . S
C3231 H3226 0.950 . S
C3231 C3233 1.327 . S
C3231 C3237 1.429 . S
C3232 C3224 1.574 . S
C3232 H3227 0.949 . S
C3232 C3238 1.368 . S
C3233 C3217 1.349 . S
C3233 H3225 0.950 . S
C3233 C3231 1.327 . S
C3234 C3222 1.349 . S
C3234 H3228 0.950 . S
C3234 C3235 1.327 . S
C3235 H3229 0.950 . S
C3235 C3234 1.327 . S
C3235 C3239 1.429 . S
C3236 C3219 1.574 . S
C3236 H3230 0.949 . S
C3236 C3240 1.368 . S
C3237 C3218 1.429 . S
C3237 C3231 1.429 . S
C3237 C3238 1.523 . S
C3238 C3219 1.368 . S
C3238 C3232 1.368 . S
C3238 C3237 1.523 . S
C3239 C3223 1.429 . S
C3239 C3235 1.429 . S
C3239 C3240 1.523 . S
C3240 C3224 1.368 . S
C3240 C3236 1.368 . S
C3240 C3239 1.523 . S
H3241 C3216 0.950 . S
H3242 C3218 0.950 . S
H3243 C3219 0.949 . S
H3244 C3221 0.950 . S
H3245 C3223 0.950 . S
C3246 C3247 1.349 . S
C3246 C3248 1.327 . S
C3246 H3271 0.950 . S
C3247 C3246 1.349 . S
C3247 C3263 1.349 . S
C3248 C3246 1.327 . S
C3248 C3267 1.429 . S
C3248 H3272 0.950 . S
C3249 C3266 1.574 . S
C3249 C3268 1.368 . S
C3249 H3273 0.949 . S
H3250 C3254 0.949 . S
C3251 C3252 1.349 . S
C3251 C3253 1.327 . S
C3251 H3274 0.950 . S
C3252 C3251 1.349 . S
C3252 C3264 1.349 . S
C3253 C3251 1.327 . S
C3253 C3269 1.429 . S
C3253 H3275 0.950 . S
C3254 H3250 0.949 . S
C3254 C3262 1.574 . S
C3254 C3270 1.368 . S
H3255 C3263 0.950 . S
H3256 C3261 0.950 . S
H3257 C3262 0.949 . S
H3258 C3264 0.950 . S
H3259 C3265 0.950 . S
H3260 C3266 0.949 . S
C3261 H3256 0.950 . S
C3261 C3263 1.327 . S
C3261 C3267 1.429 . S
C3262 C3254 1.574 . S
C3262 H3257 0.949 . S
C3262 C3268 1.368 . S
C3263 C3247 1.349 . S
C3263 H3255 0.950 . S
C3263 C3261 1.327 . S
C3264 C3252 1.349 . S
C3264 H3258 0.950 . S
C3264 C3265 1.327 . S
C3265 H3259 0.950 . S
C3265 C3264 1.327 . S
C3265 C3269 1.429 . S
C3266 C3249 1.574 . S
C3266 H3260 0.949 . S
C3266 C3270 1.368 . S
C3267 C3248 1.429 . S
C3267 C3261 1.429 . S
C3267 C3268 1.523 . S
C3268 C3249 1.368 . S
C3268 C3262 1.368 . S
C3268 C3267 1.523 . S
C3269 C3253 1.429 . S
C3269 C3265 1.429 . S
C3269 C3270 1.523 . S
C3270 C3254 1.368 . S
C3270 C3266 1.368 . S
C3270 C3269 1.523 . S
H3271 C3246 0.950 . S
H3272 C3248 0.950 . S
H3273 C3249 0.949 . S
H3274 C3251 0.950 . S
H3275 C3253 0.950 . S
C3276 C3277 1.349 . S
C3276 C3278 1.327 . S
C3276 H3301 0.950 . S
C3277 C3276 1.349 . S
C3277 C3293 1.349 . S
C3278 C3276 1.327 . S
C3278 C3297 1.429 . S
C3278 H3302 0.950 . S
C3279 C3296 1.574 . S
C3279 C3298 1.368 . S
C3279 H3303 0.949 . S
H3280 C3284 0.949 . S
C3281 C3282 1.349 . S
C3281 C3283 1.327 . S
C3281 H3304 0.950 . S
C3282 C3281 1.349 . S
C3282 C3294 1.349 . S
C3283 C3281 1.327 . S
C3283 C3299 1.429 . S
C3283 H3305 0.950 . S
C3284 H3280 0.949 . S
C3284 C3292 1.574 . S
C3284 C3300 1.368 . S
H3285 C3293 0.950 . S
H3286 C3291 0.950 . S
H3287 C3292 0.949 . S
H3288 C3294 0.950 . S
H3289 C3295 0.950 . S
H3290 C3296 0.949 . S
C3291 H3286 0.950 . S
C3291 C3293 1.327 . S
C3291 C3297 1.429 . S
C3292 C3284 1.574 . S
C3292 H3287 0.949 . S
C3292 C3298 1.368 . S
C3293 C3277 1.349 . S
C3293 H3285 0.950 . S
C3293 C3291 1.327 . S
C3294 C3282 1.349 . S
C3294 H3288 0.950 . S
C3294 C3295 1.327 . S
C3295 H3289 0.950 . S
C3295 C3294 1.327 . S
C3295 C3299 1.429 . S
C3296 C3279 1.574 . S
C3296 H3290 0.949 . S
C3296 C3300 1.368 . S
C3297 C3278 1.429 . S
C3297 C3291 1.429 . S
C3297 C3298 1.523 . S
C3298 C3279 1.368 . S
C3298 C3292 1.368 . S
C3298 C3297 1.523 . S
C3299 C3283 1.429 . S
C3299 C3295 1.429 . S
C3299 C3300 1.523 . S
C3300 C3284 1.368 . S
C3300 C3296 1.368 . S
C3300 C3299 1.523 . S
H3301 C3276 0.950 . S
H3302 C3278 0.950 . S
H3303 C3279 0.949 . S
H3304 C3281 0.950 . S
H3305 C3283 0.950 . S
C3306 C3307 1.349 . S
C3306 C3308 1.327 . S
C3306 H3331 0.950 . S
C3307 C3306 1.349 . S
C3307 C3323 1.349 . S
C3308 C3306 1.327 . S
C3308 C3327 1.429 . S
C3308 H3332 0.950 . S
C3309 C3326 1.574 . S
C3309 C3328 1.368 . S
C3309 H3333 0.949 . S
H3310 C3314 0.949 . S
C3311 C3312 1.349 . S
C3311 C3313 1.327 . S
C3311 H3334 0.950 . S
C3312 C3311 1.349 . S
C3312 C3324 1.349 . S
C3313 C3311 1.327 . S
C3313 C3329 1.429 . S
C3313 H3335 0.950 . S
C3314 H3310 0.949 . S
C3314 C3322 1.574 . S
C3314 C3330 1.368 . S
H3315 C3323 0.950 . S
H3316 C3321 0.950 . S
H3317 C3322 0.949 . S
H3318 C3324 0.950 . S
H3319 C3325 0.950 . S
H3320 C3326 0.949 . S
C3321 H3316 0.950 . S
C3321 C3323 1.327 . S
C3321 C3327 1.429 . S
C3322 C3314 1.574 . S
C3322 H3317 0.949 . S
C3322 C3328 1.368 . S
C3323 C3307 1.349 . S
C3323 H3315 0.950 . S
C3323 C3321 1.327 . S
C3324 C3312 1.349 . S
C3324 H3318 0.950 . S
C3324 C3325 1.327 . S
C3325 H3319 0.950 . S
C3325 C3324 1.327 . S
C3325 C3329 1.429 . S
C3326 C3309 1.574 . S
C3326 H3320 0.949 . S
C3326 C3330 1.368 . S
C3327 C3308 1.429 . S
C3327 C3321 1.429 . S
C3327 C3328 1.523 . S
C3328 C3309 1.368 . S
C3328 C3322 1.368 . S
C3328 C3327 1.523 . S
C3329 C3313 1.429 . S
C3329 C3325 1.429 . S
C3329 C3330 1.523 . S
C3330 C3314 1.368 . S
C3330 C3326 1.368 . S
C3330 C3329 1.523 . S
H3331 C3306 0.950 . S
H3332 C3308 0.950 . S
H3333 C3309 0.949 . S
H3334 C3311 0.950 . S
H3335 C3313 0.950 . S
C3336 C3337 1.349 . S
C3336 C3338 1.327 . S
C3336 H3361 0.950 . S
C3337 C3336 1.349 . S
C3337 C3353 1.349 . S
C3338 C3336 1.327 . S
C3338 C3357 1.429 . S
C3338 H3362 0.950 . S
C3339 C3356 1.574 . S
C3339 C3358 1.368 . S
C3339 H3363 0.949 . S
H3340 C3344 0.949 . S
C3341 C3342 1.349 . S
C3341 C3343 1.327 . S
C3341 H3364 0.950 . S
C3342 C3341 1.349 . S
C3342 C3354 1.349 . S
C3343 C3341 1.327 . S
C3343 C3359 1.429 . S
C3343 H3365 0.950 . S
C3344 H3340 0.949 . S
C3344 C3352 1.574 . S
C3344 C3360 1.368 . S
H3345 C3353 0.950 . S
H3346 C3351 0.950 . S
H3347 C3352 0.949 . S
H3348 C3354 0.950 . S
H3349 C3355 0.950 . S
H3350 C3356 0.949 . S
C3351 H3346 0.950 . S
C3351 C3353 1.327 . S
C3351 C3357 1.429 . S
C3352 C3344 1.574 . S
C3352 H3347 0.949 . S
C3352 C3358 1.368 . S
C3353 C3337 1.349 . S
C3353 H3345 0.950 . S
C3353 C3351 1.327 . S
C3354 C3342 1.349 . S
C3354 H3348 0.950 . S
C3354 C3355 1.327 . S
C3355 H3349 0.950 . S
C3355 C3354 1.327 . S
C3355 C3359 1.429 . S
C3356 C3339 1.574 . S
C3356 H3350 0.949 . S
C3356 C3360 1.368 . S
C3357 C3338 1.429 . S
C3357 C3351 1.429 . S
C3357 C3358 1.523 . S
C3358 C3339 1.368 . S
C3358 C3352 1.368 . S
C3358 C3357 1.523 . S
C3359 C3343 1.429 . S
C3359 C3355 1.429 . S
C3359 C3360 1.523 . S
C3360 C3344 1.368 . S
C3360 C3356 1.368 . S
C3360 C3359 1.523 . S
H3361 C3336 0.950 . S
H3362 C3338 0.950 . S
H3363 C3339 0.949 . S
H3364 C3341 0.950 . S
H3365 C3343 0.950 . S
C3366 C3367 1.349 . S
C3366 C3368 1.327 . S
C3366 H3391 0.950 . S
C3367 C3366 1.349 . S
C3367 C3383 1.349 . S
C3368 C3366 1.327 . S
C3368 C3387 1.429 . S
C3368 H3392 0.950 . S
C3369 C3386 1.574 . S
C3369 C3388 1.368 . S
C3369 H3393 0.949 . S
H3370 C3374 0.949 . S
C3371 C3372 1.349 . S
C3371 C3373 1.327 . S
C3371 H3394 0.950 . S
C3372 C3371 1.349 . S
C3372 C3384 1.349 . S
C3373 C3371 1.327 . S
C3373 C3389 1.429 . S
C3373 H3395 0.950 . S
C3374 H3370 0.949 . S
C3374 C3382 1.574 . S
C3374 C3390 1.368 . S
H3375 C3383 0.950 . S
H3376 C3381 0.950 . S
H3377 C3382 0.949 . S
H3378 C3384 0.950 . S
H3379 C3385 0.950 . S
H3380 C3386 0.949 . S
C3381 H3376 0.950 . S
C3381 C3383 1.327 . S
C3381 C3387 1.429 . S
C3382 C3374 1.574 . S
C3382 H3377 0.949 . S
C3382 C3388 1.368 . S
C3383 C3367 1.349 . S
C3383 H3375 0.950 . S
C3383 C3381 1.327 . S
C3384 C3372 1.349 . S
C3384 H3378 0.950 . S
C3384 C3385 1.327 . S
C3385 H3379 0.950 . S
C3385 C3384 1.327 . S
C3385 C3389 1.429 . S
C3386 C3369 1.574 . S
C3386 H3380 0.949 . S
C3386 C3390 1.368 . S
C3387 C3368 1.429 . S
C3387 C3381 1.429 . S
C3387 C3388 1.523 . S
C3388 C3369 1.368 . S
C3388 C3382 1.368 . S
C3388 C3387 1.523 . S
C3389 C3373 1.429 . S
C3389 C3385 1.429 . S
C3389 C3390 1.523 . S
C3390 C3374 1.368 . S
C3390 C3386 1.368 . S
C3390 C3389 1.523 . S
H3391 C3366 0.950 . S
H3392 C3368 0.950 . S
H3393 C3369 0.949 . S
H3394 C3371 0.950 . S
H3395 C3373 0.950 . S
C3396 C3397 1.349 . S
C3396 C3398 1.327 . S
C3396 H3421 0.950 . S
C3397 C3396 1.349 . S
C3397 C3413 1.349 . S
C3398 C3396 1.327 . S
C3398 C3417 1.429 . S
C3398 H3422 0.950 . S
C3399 C3416 1.574 . S
C3399 C3418 1.368 . S
C3399 H3423 0.949 . S
H3400 C3404 0.949 . S
C3401 C3402 1.349 . S
C3401 C3403 1.327 . S
C3401 H3424 0.950 . S
C3402 C3401 1.349 . S
C3402 C3414 1.349 . S
C3403 C3401 1.327 . S
C3403 C3419 1.429 . S
C3403 H3425 0.950 . S
C3404 H3400 0.949 . S
C3404 C3412 1.574 . S
C3404 C3420 1.368 . S
H3405 C3413 0.950 . S
H3406 C3411 0.950 . S
H3407 C3412 0.949 . S
H3408 C3414 0.950 . S
H3409 C3415 0.950 . S
H3410 C3416 0.949 . S
C3411 H3406 0.950 . S
C3411 C3413 1.327 . S
C3411 C3417 1.429 . S
C3412 C3404 1.574 . S
C3412 H3407 0.949 . S
C3412 C3418 1.368 . S
C3413 C3397 1.349 . S
C3413 H3405 0.950 . S
C3413 C3411 1.327 . S
C3414 C3402 1.349 . S
C3414 H3408 0.950 . S
C3414 C3415 1.327 . S
C3415 H3409 0.950 . S
C3415 C3414 1.327 . S
C3415 C3419 1.429 . S
C3416 C3399 1.574 . S
C3416 H3410 0.949 . S
C3416 C3420 1.368 . S
C3417 C3398 1.429 . S
C3417 C3411 1.429 . S
C3417 C3418 1.523 . S
C3418 C3399 1.368 . S
C3418 C3412 1.368 . S
C3418 C3417 1.523 . S
C3419 C3403 1.429 . S
C3419 C3415 1.429 . S
C3419 C3420 1.523 . S
C3420 C3404 1.368 . S
C3420 C3416 1.368 . S
C3420 C3419 1.523 . S
H3421 C3396 0.950 . S
H3422 C3398 0.950 . S
H3423 C3399 0.949 . S
H3424 C3401 0.950 . S
H3425 C3403 0.950 . S
C3426 C3427 1.349 . S
C3426 C3428 1.327 . S
C3426 H3451 0.950 . S
C3427 C3426 1.349 . S
C3427 C3443 1.349 . S
C3428 C3426 1.327 . S
C3428 C3447 1.429 . S
C3428 H3452 0.950 . S
C3429 C3446 1.574 . S
C3429 C3448 1.368 . S
C3429 H3453 0.949 . S
H3430 C3434 0.949 . S
C3431 C3432 1.349 . S
C3431 C3433 1.327 . S
C3431 H3454 0.950 . S
C3432 C3431 1.349 . S
C3432 C3444 1.349 . S
C3433 C3431 1.327 . S
C3433 C3449 1.429 . S
C3433 H3455 0.950 . S
C3434 H3430 0.949 . S
C3434 C3442 1.574 . S
C3434 C3450 1.368 . S
H3435 C3443 0.950 . S
H3436 C3441 0.950 . S
H3437 C3442 0.949 . S
H3438 C3444 0.950 . S
H3439 C3445 0.950 . S
H3440 C3446 0.949 . S
C3441 H3436 0.950 . S
C3441 C3443 1.327 . S
C3441 C3447 1.429 . S
C3442 C3434 1.574 . S
C3442 H3437 0.949 . S
C3442 C3448 1.368 . S
C3443 C3427 1.349 . S
C3443 H3435 0.950 . S
C3443 C3441 1.327 . S
C3444 C3432 1.349 . S
C3444 H3438 0.950 . S
C3444 C3445 1.327 . S
C3445 H3439 0.950 . S
C3445 C3444 1.327 . S
C3445 C3449 1.429 . S
C3446 C3429 1.574 . S
C3446 H3440 0.949 . S
C3446 C3450 1.368 . S
C3447 C3428 1.429 . S
C3447 C3441 1.429 . S
C3447 C3448 1.523 . S
C3448 C3429 1.368 . S
C3448 C3442 1.368 . S
C3448 C3447 1.523 . S
C3449 C3433 1.429 . S
C3449 C3445 1.429 . S
C3449 C3450 1.523 . S
C3450 C3434 1.368 . S
C3450 C3446 1.368 . S
C3450 C3449 1.523 . S
H3451 C3426 0.950 . S
H3452 C3428 0.950 . S
H3453 C3429 0.949 . S
H3454 C3431 0.950 . S
H3455 C3433 0.950 . S
C3456 C3457 1.349 . S
C3456 C3458 1.327 . S
C3456 H3481 0.950 . S
C3457 C3456 1.349 . S
C3457 C3473 1.349 . S
C3458 C3456 1.327 . S
C3458 C3477 1.429 . S
C3458 H3482 0.950 . S
C3459 C3476 1.574 . S
C3459 C3478 1.368 . S
C3459 H3483 0.949 . S
H3460 C3464 0.949 . S
C3461 C3462 1.349 . S
C3461 C3463 1.327 . S
C3461 H3484 0.950 . S
C3462 C3461 1.349 . S
C3462 C3474 1.349 . S
C3463 C3461 1.327 . S
C3463 C3479 1.429 . S
C3463 H3485 0.950 . S
C3464 H3460 0.949 . S
C3464 C3472 1.574 . S
C3464 C3480 1.368 . S
H3465 C3473 0.950 . S
H3466 C3471 0.950 . S
H3467 C3472 0.949 . S
H3468 C3474 0.950 . S
H3469 C3475 0.950 . S
H3470 C3476 0.949 . S
C3471 H3466 0.950 . S
C3471 C3473 1.327 . S
C3471 C3477 1.429 . S
C3472 C3464 1.574 . S
C3472 H3467 0.949 . S
C3472 C3478 1.368 . S
C3473 C3457 1.349 . S
C3473 H3465 0.950 . S
C3473 C3471 1.327 . S
C3474 C3462 1.349 . S
C3474 H3468 0.950 . S
C3474 C3475 1.327 . S
C3475 H3469 0.950 . S
C3475 C3474 1.327 . S
C3475 C3479 1.429 . S
C3476 C3459 1.574 . S
C3476 H3470 0.949 . S
C3476 C3480 1.368 . S
C3477 C3458 1.429 . S
C3477 C3471 1.429 . S
C3477 C3478 1.523 . S
C3478 C3459 1.368 . S
C3478 C3472 1.368 . S
C3478 C3477 1.523 . S
C3479 C3463 1.429 . S
C3479 C3475 1.429 . S
C3479 C3480 1.523 . S
C3480 C3464 1.368 . S
C3480 C3476 1.368 . S
C3480 C3479 1.523 . S
H3481 C3456 0.950 . S
H3482 C3458 0.950 . S
H3483 C3459 0.949 . S
H3484 C3461 0.950 . S
H3485 C3463 0.950 . S
C3486 C3487 1.349 . S
C3486 C3488 1.327 . S
C3486 H3511 0.950 . S
C3487 C3486 1.349 . S
C3487 C3503 1.349 . S
C3488 C3486 1.327 . S
C3488 C3507 1.429 . S
C3488 H3512 0.950 . S
C3489 C3506 1.574 . S
C3489 C3508 1.368 . S
C3489 H3513 0.949 . S
H3490 C3494 0.949 . S
C3491 C3492 1.349 . S
C3491 C3493 1.327 . S
C3491 H3514 0.950 . S
C3492 C3491 1.349 . S
C3492 C3504 1.349 . S
C3493 C3491 1.327 . S
C3493 C3509 1.429 . S
C3493 H3515 0.950 . S
C3494 H3490 0.949 . S
C3494 C3502 1.574 . S
C3494 C3510 1.368 . S
H3495 C3503 0.950 . S
H3496 C3501 0.950 . S
H3497 C3502 0.949 . S
H3498 C3504 0.950 . S
H3499 C3505 0.950 . S
H3500 C3506 0.949 . S
C3501 H3496 0.950 . S
C3501 C3503 1.327 . S
C3501 C3507 1.429 . S
C3502 C3494 1.574 . S
C3502 H3497 0.949 . S
C3502 C3508 1.368 . S
C3503 C3487 1.349 . S
C3503 H3495 0.950 . S
C3503 C3501 1.327 . S
C3504 C3492 1.349 . S
C3504 H3498 0.950 . S
C3504 C3505 1.327 . S
C3505 H3499 0.950 . S
C3505 C3504 1.327 . S
C3505 C3509 1.429 . S
C3506 C3489 1.574 . S
C3506 H3500 0.949 . S
C3506 C3510 1.368 . S
C3507 C3488 1.429 . S
C3507 C3501 1.429 . S
C3507 C3508 1.523 . S
C3508 C3489 1.368 . S
C3508 C3502 1.368 . S
C3508 C3507 1.523 . S
C3509 C3493 1.429 . S
C3509 C3505 1.429 . S
C3509 C3510 1.523 . S
C3510 C3494 1.368 . S
C3510 C3506 1.368 . S
C3510 C3509 1.523 . S
H3511 C3486 0.950 . S
H3512 C3488 0.950 . S
H3513 C3489 0.949 . S
H3514 C3491 0.950 . S
H3515 C3493 0.950 . S
C3516 C3517 1.349 . S
C3516 C3518 1.327 . S
C3516 H3541 0.950 . S
C3517 C3516 1.349 . S
C3517 C3533 1.349 . S
C3518 C3516 1.327 . S
C3518 C3537 1.429 . S
C3518 H3542 0.950 . S
C3519 C3536 1.574 . S
C3519 C3538 1.368 . S
C3519 H3543 0.949 . S
H3520 C3524 0.949 . S
C3521 C3522 1.349 . S
C3521 C3523 1.327 . S
C3521 H3544 0.950 . S
C3522 C3521 1.349 . S
C3522 C3534 1.349 . S
C3523 C3521 1.327 . S
C3523 C3539 1.429 . S
C3523 H3545 0.950 . S
C3524 H3520 0.949 . S
C3524 C3532 1.574 . S
C3524 C3540 1.368 . S
H3525 C3533 0.950 . S
H3526 C3531 0.950 . S
H3527 C3532 0.949 . S
H3528 C3534 0.950 . S
H3529 C3535 0.950 . S
H3530 C3536 0.949 . S
C3531 H3526 0.950 . S
C3531 C3533 1.327 . S
C3531 C3537 1.429 . S
C3532 C3524 1.574 . S
C3532 H3527 0.949 . S
C3532 C3538 1.368 . S
C3533 C3517 1.349 . S
C3533 H3525 0.950 . S
C3533 C3531 1.327 . S
C3534 C3522 1.349 . S
C3534 H3528 0.950 . S
C3534 C3535 1.327 . S
C3535 H3529 0.950 . S
C3535 C3534 1.327 . S
C3535 C3539 1.429 . S
C3536 C3519 1.574 . S
C3536 H3530 0.949 . S
C3536 C3540 1.368 . S
C3537 C3518 1.429 . S
C3537 C3531 1.429 . S
C3537 C3538 1.523 . S
C3538 C3519 1.368 . S
C3538 C3532 1.368 . S
C3538 C3537 1.523 . S
C3539 C3523 1.429 . S
C3539 C3535 1.429 . S
C3539 C3540 1.523 . S
C3540 C3524 1.368 . S
C3540 C3536 1.368 . S
C3540 C3539 1.523 . S
H3541 C3516 0.950 . S
H3542 C3518 0.950 . S
H3543 C3519 0.949 . S
H3544 C3521 0.950 . S
H3545 C3523 0.950 . S
C3546 C3547 1.349 . S
C3546 C3548 1.327 . S
C3546 H3571 0.950 1_554 S
C3547 C3546 1.349 . S
C3547 C3563 1.349 . S
C3548 C3546 1.327 . S
C3548 C3567 1.429 . S
C3548 H3572 0.950 1_554 S
C3549 C3566 1.574 . S
C3549 C3568 1.368 . S
C3549 H3573 0.949 . S
H3550 C3554 0.949 1_556 S
C3551 C3552 1.349 . S
C3551 C3553 1.327 . S
C3551 H3574 0.950 . S
C3552 C3551 1.349 . S
C3552 C3564 1.365 1_545 S
C3553 C3551 1.327 . S
C3553 C3569 1.429 1_545 S
C3553 H3575 0.950 . S
C3554 H3550 0.949 1_554 S
C3554 C3562 1.574 . S
C3554 C3570 1.368 . S
H3555 C3563 0.950 . S
H3556 C3561 0.950 . S
H3557 C3562 0.949 1_556 S
H3558 C3564 0.932 1_556 S
H3559 C3565 0.917 1_556 S
H3560 C3566 0.949 . S
C3561 H3556 0.950 . S
C3561 C3563 1.327 . S
C3561 C3567 1.429 . S
C3562 C3554 1.574 . S
C3562 H3557 0.949 1_554 S
C3562 C3568 1.368 . S
C3563 C3547 1.349 . S
C3563 H3555 0.950 . S
C3563 C3561 1.327 . S
C3564 C3552 1.365 1_565 S
C3564 H3558 0.932 1_554 S
C3564 C3565 1.326 . S
C3565 H3559 0.917 1_554 S
C3565 C3564 1.326 . S
C3565 C3569 1.466 . S
C3566 C3549 1.574 . S
C3566 H3560 0.949 . S
C3566 C3570 1.368 . S
C3567 C3548 1.429 . S
C3567 C3561 1.429 . S
C3567 C3568 1.523 . S
C3568 C3549 1.368 . S
C3568 C3562 1.368 . S
C3568 C3567 1.523 . S
C3569 C3553 1.429 1_565 S
C3569 C3565 1.466 . S
C3569 C3570 1.523 . S
C3570 C3554 1.368 . S
C3570 C3566 1.368 . S
C3570 C3569 1.523 . S
H3571 C3546 0.950 1_556 S
H3572 C3548 0.950 1_556 S
H3573 C3549 0.949 . S
H3574 C3551 0.950 . S
H3575 C3553 0.950 . S
C3576 C3577 1.349 . S
C3576 C3578 1.327 . S
C3576 H3601 0.950 . S
C3577 C3576 1.349 . S
C3577 C3593 1.349 . S
C3578 C3576 1.327 . S
C3578 C3597 1.429 . S
C3578 H3602 0.950 . S
C3579 C3596 1.574 . S
C3579 C3598 1.368 . S
C3579 H3603 0.949 . S
H3580 C3584 0.949 . S
C3581 C3582 1.349 . S
C3581 C3583 1.327 . S
C3581 H3604 0.950 . S
C3582 C3581 1.349 . S
C3582 C3594 1.349 . S
C3583 C3581 1.327 . S
C3583 C3599 1.429 . S
C3583 H3605 0.950 . S
C3584 H3580 0.949 . S
C3584 C3592 1.574 . S
C3584 C3600 1.368 . S
H3585 C3593 0.950 . S
H3586 C3591 0.950 . S
H3587 C3592 0.949 . S
H3588 C3594 0.950 . S
H3589 C3595 0.950 . S
H3590 C3596 0.949 . S
C3591 H3586 0.950 . S
C3591 C3593 1.327 . S
C3591 C3597 1.429 . S
C3592 C3584 1.574 . S
C3592 H3587 0.949 . S
C3592 C3598 1.368 . S
C3593 C3577 1.349 . S
C3593 H3585 0.950 . S
C3593 C3591 1.327 . S
C3594 C3582 1.349 . S
C3594 H3588 0.950 . S
C3594 C3595 1.327 . S
C3595 H3589 0.950 . S
C3595 C3594 1.327 . S
C3595 C3599 1.429 . S
C3596 C3579 1.574 . S
C3596 H3590 0.949 . S
C3596 C3600 1.368 . S
C3597 C3578 1.429 . S
C3597 C3591 1.429 . S
C3597 C3598 1.523 . S
C3598 C3579 1.368 . S
C3598 C3592 1.368 . S
C3598 C3597 1.523 . S
C3599 C3583 1.429 . S
C3599 C3595 1.429 . S
C3599 C3600 1.523 . S
C3600 C3584 1.368 . S
C3600 C3596 1.368 . S
C3600 C3599 1.523 . S
H3601 C3576 0.950 . S
H3602 C3578 0.950 . S
H3603 C3579 0.949 . S
H3604 C3581 0.950 . S
H3605 C3583 0.950 . S
C3606 C3607 1.349 . S
C3606 C3608 1.327 . S
C3606 H3631 0.950 . S
C3607 C3606 1.349 . S
C3607 C3623 1.359 . S
C3608 C3606 1.327 . S
C3608 C3627 1.429 . S
C3608 H3632 0.950 . S
C3609 C3626 1.574 . S
C3609 C3628 1.368 . S
C3609 H3633 0.949 . S
H3610 C3614 0.949 . S
C3611 C3612 1.349 . S
C3611 C3613 1.327 . S
C3611 H3634 0.950 . S
C3612 C3611 1.349 . S
C3612 C3624 1.349 . S
C3613 C3611 1.327 . S
C3613 C3629 1.429 . S
C3613 H3635 0.950 . S
C3614 H3610 0.949 . S
C3614 C3622 1.574 . S
C3614 C3630 1.368 . S
H3615 C3623 0.933 1_556 S
H3616 C3621 0.950 . S
H3617 C3622 0.949 . S
H3618 C3624 0.950 . S
H3619 C3625 0.950 . S
H3620 C3626 0.949 . S
C3621 H3616 0.950 . S
C3621 C3623 1.337 . S
C3621 C3627 1.429 . S
C3622 C3614 1.574 . S
C3622 H3617 0.949 . S
C3622 C3628 1.368 . S
C3623 C3607 1.359 . S
C3623 H3615 0.933 1_554 S
C3623 C3621 1.337 . S
C3624 C3612 1.349 . S
C3624 H3618 0.950 . S
C3624 C3625 1.327 . S
C3625 H3619 0.950 . S
C3625 C3624 1.327 . S
C3625 C3629 1.429 . S
C3626 C3609 1.574 . S
C3626 H3620 0.949 . S
C3626 C3630 1.368 . S
C3627 C3608 1.429 . S
C3627 C3621 1.429 . S
C3627 C3628 1.523 . S
C3628 C3609 1.368 . S
C3628 C3622 1.368 . S
C3628 C3627 1.523 . S
C3629 C3613 1.429 . S
C3629 C3625 1.429 . S
C3629 C3630 1.523 . S
C3630 C3614 1.368 . S
C3630 C3626 1.368 . S
C3630 C3629 1.523 . S
H3631 C3606 0.950 . S
H3632 C3608 0.950 . S
H3633 C3609 0.949 . S
H3634 C3611 0.950 . S
H3635 C3613 0.950 . S
C3636 C3637 1.349 . S
C3636 C3638 1.327 . S
C3636 H3661 0.950 . S
C3637 C3636 1.349 . S
C3637 C3653 1.349 . S
C3638 C3636 1.327 . S
C3638 C3657 1.429 . S
C3638 H3662 0.950 . S
C3639 C3656 1.574 . S
C3639 C3658 1.368 . S
C3639 H3663 0.949 . S
H3640 C3644 0.949 . S
C3641 C3642 1.349 . S
C3641 C3643 1.327 . S
C3641 H3664 0.950 . S
C3642 C3641 1.349 . S
C3642 C3654 1.349 . S
C3643 C3641 1.327 . S
C3643 C3659 1.429 . S
C3643 H3665 0.950 . S
C3644 H3640 0.949 . S
C3644 C3652 1.574 . S
C3644 C3660 1.368 . S
H3645 C3653 0.950 . S
H3646 C3651 0.950 . S
H3647 C3652 0.949 . S
H3648 C3654 0.950 . S
H3649 C3655 0.950 . S
H3650 C3656 0.949 . S
C3651 H3646 0.950 . S
C3651 C3653 1.327 . S
C3651 C3657 1.429 . S
C3652 C3644 1.574 . S
C3652 H3647 0.949 . S
C3652 C3658 1.368 . S
C3653 C3637 1.349 . S
C3653 H3645 0.950 . S
C3653 C3651 1.327 . S
C3654 C3642 1.349 . S
C3654 H3648 0.950 . S
C3654 C3655 1.327 . S
C3655 H3649 0.950 . S
C3655 C3654 1.327 . S
C3655 C3659 1.429 . S
C3656 C3639 1.574 . S
C3656 H3650 0.949 . S
C3656 C3660 1.368 . S
C3657 C3638 1.429 . S
C3657 C3651 1.429 . S
C3657 C3658 1.523 . S
C3658 C3639 1.368 . S
C3658 C3652 1.368 . S
C3658 C3657 1.523 . S
C3659 C3643 1.429 . S
C3659 C3655 1.429 . S
C3659 C3660 1.523 . S
C3660 C3644 1.368 . S
C3660 C3656 1.368 . S
C3660 C3659 1.523 . S
H3661 C3636 0.950 . S
H3662 C3638 0.950 . S
H3663 C3639 0.949 . S
H3664 C3641 0.950 . S
H3665 C3643 0.950 . S
C3666 C3667 1.349 . S
C3666 C3668 1.327 . S
C3666 H3691 0.950 . S
C3667 C3666 1.349 . S
C3667 C3683 1.349 . S
C3668 C3666 1.327 . S
C3668 C3687 1.429 . S
C3668 H3692 0.950 . S
C3669 C3686 1.574 . S
C3669 C3688 1.368 . S
C3669 H3693 0.949 . S
H3670 C3674 0.949 . S
C3671 C3672 1.349 . S
C3671 C3673 1.327 . S
C3671 H3694 0.950 . S
C3672 C3671 1.349 . S
C3672 C3684 1.349 . S
C3673 C3671 1.327 . S
C3673 C3689 1.429 . S
C3673 H3695 0.950 . S
C3674 H3670 0.949 . S
C3674 C3682 1.574 . S
C3674 C3690 1.368 . S
H3675 C3683 0.950 . S
H3676 C3681 0.950 . S
H3677 C3682 0.949 . S
H3678 C3684 0.950 . S
H3679 C3685 0.950 . S
H3680 C3686 0.949 . S
C3681 H3676 0.950 . S
C3681 C3683 1.327 . S
C3681 C3687 1.429 . S
C3682 C3674 1.574 . S
C3682 H3677 0.949 . S
C3682 C3688 1.368 . S
C3683 C3667 1.349 . S
C3683 H3675 0.950 . S
C3683 C3681 1.327 . S
C3684 C3672 1.349 . S
C3684 H3678 0.950 . S
C3684 C3685 1.327 . S
C3685 H3679 0.950 . S
C3685 C3684 1.327 . S
C3685 C3689 1.429 . S
C3686 C3669 1.574 . S
C3686 H3680 0.949 . S
C3686 C3690 1.368 . S
C3687 C3668 1.429 . S
C3687 C3681 1.429 . S
C3687 C3688 1.523 . S
C3688 C3669 1.368 . S
C3688 C3682 1.368 . S
C3688 C3687 1.523 . S
C3689 C3673 1.429 . S
C3689 C3685 1.429 . S
C3689 C3690 1.523 . S
C3690 C3674 1.368 . S
C3690 C3686 1.368 . S
C3690 C3689 1.523 . S
H3691 C3666 0.950 . S
H3692 C3668 0.950 . S
H3693 C3669 0.949 . S
H3694 C3671 0.950 . S
H3695 C3673 0.950 . S
C822 C337 1.589 . S
C817 C4 1.566 . S
C847 C19 0.757 . S
C852 C382 0.764 . S
C877 C39 1.432 . S
C882 C406 1.421 . S
C912 N432 0.826 . S
C907 C54 0.826 . S
C937 C18 0.871 . S
C942 N462 0.890 . S
C972 C496 1.437 . S
C967 C40 1.459 . S
C1002 C532 0.872 . S
C997 C53 0.868 . S
C1027 C5 1.284 . S
C1032 C556 1.529 . S
C1057 C61 0.721 1_545 S
C1062 N350 0.667 . S
C1087 C74 0.928 . S
C1092 N372 0.954 . S
C1122 C412 0.670 . S
C1117 C89 0.718 . S
C1152 C436 1.610 . S
C1147 C109 1.626 . S
C1177 C68 0.970 . S
C1182 C466 0.955 . S
C1212 C502 0.904 . S
C1207 C81 0.897 . S
C1242 N522 0.825 . S
C1237 C96 0.825 . S
C1272 C562 1.616 . S
C1267 C102 1.586 . S
C1302 C363 1.401 . S
C1297 C103 1.166 . S
C1332 C592 0.797 . S
C1327 C117 0.774 . S
C1357 C130 0.918 . S
C1362 N612 0.943 . S
C1392 C646 1.426 . S
C1387 C152 1.448 . S
C1417 C60 0.792 . S
C1422 N552 0.795 . S
C1452 N402 0.824 . S
C1447 C82 0.824 . S
C1477 C137 0.765 . S
C1482 C682 0.766 . S
C1512 C706 0.781 . S
C1507 C165 0.783 . S
C1537 C172 1.635 . S
C1542 C346 1.638 1_556 S
C1572 C723 0.835 . S
C1567 C194 0.837 . S
C1597 C207 1.444 . S
C1602 C397 1.439 . S
C1627 C215 0.811 . S
C1632 N680 0.850 . S
C1662 N470 0.957 . S
C1657 C186 0.953 1_455 S
C1692 C607 1.442 . S
C1687 C201 1.260 . S
C1722 C543 0.884 . S
C1717 C221 0.884 . S
C1752 C727 1.565 . S
C1747 C180 1.588 . S
C1782 N342 0.738 . S
C1777 C236 0.738 . S
C1807 C242 1.037 . S
C1812 N710 1.041 . S
C1842 C423 0.806 . S
C1837 C264 0.808 . S
C1867 C277 1.684 . S
C1872 C667 1.677 . S
C1897 C229 0.841 . S
C1902 C457 0.899 1_655 S
C1927 C249 0.867 . S
C1932 C633 0.867 . S
C1962 N530 0.836 . S
C1957 C257 0.762 1_545 S
C1987 C270 1.628 . S
C1992 C753 1.638 . S
C2017 C278 1.439 . S
C2022 C352 1.431 . S
C2047 C292 0.874 . S
C2052 C603 0.864 . S
C2077 C298 1.055 . S
C2082 N500 1.060 . S
C2107 C313 1.299 . S
C2112 C637 1.483 . S
C2142 N740 0.829 . S
C2137 C228 0.825 . S
C2172 N410 0.809 . S
C2167 C243 0.785 . S
C2202 C453 0.792 . S
C2197 C305 0.791 . S
C2232 C367 0.734 . S
C2227 C333 0.733 . S
C2257 C32 1.567 . S
C2262 C757 1.589 . S
C2292 C712 0.764 . S
C2287 C47 0.757 . S
C2322 C796 1.422 . S
C2317 C11 1.433 . S
C2347 C26 0.826 1_655 S
C2352 N672 0.826 . S
C2377 C46 0.871 . S
C2382 N582 0.890 . S
C2412 C616 1.437 . S
C2407 C12 1.459 . S
C2442 C652 0.872 . S
C2437 C25 0.868 . S
C2472 C736 1.529 . S
C2467 C33 1.284 . S
C2502 N770 0.667 . S
C2497 C159 0.721 . S
C2527 C116 0.928 . S
C2532 N702 0.954 . S
C2557 C131 0.718 . S
C2562 C802 0.692 . S
C2592 C676 1.610 . S
C2587 C151 1.626 . S
C2622 C586 0.955 . S
C2617 C166 0.970 . S
C2647 C123 0.897 . S
C2652 C622 0.904 . S
C2682 N642 0.825 . S
C2677 C138 0.825 . S
C2707 C144 1.587 . S
C2712 C742 1.616 . S
C2742 C783 1.401 . S
C2737 C145 1.166 . S
C2772 C472 0.797 . S
C2767 C75 0.774 . S
C2802 N492 0.943 . S
C2797 C88 0.918 . S
C2827 C110 1.448 . S
C2832 C526 1.426 . S
C2862 N732 0.795 . S
C2857 C158 0.792 . S
C2887 C124 0.825 . S
C2892 N792 0.825 . S
C2922 C442 0.766 . S
C2917 C95 0.765 . S
C2952 C376 0.781 . S
C2947 C67 0.783 . S
C2977 C200 1.635 . S
C2982 C766 1.638 . S
C3012 C393 0.835 . S
C3007 C222 0.837 . S
C3042 C787 1.439 1_556 S
C3037 C179 1.444 . S
C3067 C187 0.811 . S
C3072 N440 0.850 . S
C3097 C214 0.953 . S
C3102 N590 0.957 . S
C3127 C173 1.260 . S
C3132 C487 1.441 . S
C3157 C193 0.873 1_455 S
C3162 C663 0.884 . S
C3187 C208 1.588 . S
C3192 C547 1.565 . S
C3222 N762 0.738 . S
C3217 C334 0.738 . S
C3247 C284 1.036 . S
C3252 N380 1.035 . S
C3282 C813 0.806 . S
C3277 C306 0.808 . S
C3307 C319 1.684 . S
C3312 C427 1.677 . S
C3337 C327 0.841 . S
C3342 C577 0.899 . S
C3372 C513 0.867 . S
C3367 C291 0.873 . S
C3397 C299 0.802 . S
C3402 N650 0.836 . S
C3432 C573 1.638 . S
C3427 C312 1.628 . S
C3462 C772 1.431 . S
C3457 C320 1.439 . S
C3492 C483 0.866 . S
C3487 C250 0.869 . S
C3517 C256 1.055 . S
C3522 N620 1.060 . S
C3552 C517 1.483 . S
C3547 C271 1.299 . S
C3582 N560 0.829 . S
C3577 C326 0.825 . S
C3607 C285 0.785 1_554 S
C3612 N800 0.807 . S
C3642 C693 0.792 . S
C3637 C263 0.791 . S
C3672 C697 0.734 . S
C3667 C235 0.734 . S
