# Generated by pormake.
# Topology ibd, (4,6)-cn, num edge types: 1
# Building blocks:
#     Node 0, Type 0, BuildingBlock: GALJAG_clean_sbu_0, # of connection points: 4
#     Node 1, Type 0, BuildingBlock: GALJAG_clean_sbu_0, # of connection points: 4
#     Node 2, Type 0, BuildingBlock: GALJAG_clean_sbu_0, # of connection points: 4
#     Node 3, Type 0, BuildingBlock: GALJAG_clean_sbu_0, # of connection points: 4
#     Node 4, Type 0, BuildingBlock: GALJAG_clean_sbu_0, # of connection points: 4
#     Node 5, Type 0, BuildingBlock: GALJAG_clean_sbu_0, # of connection points: 4
#     Node 6, Type 0, BuildingBlock: GALJAG_clean_sbu_0, # of connection points: 4
#     Node 7, Type 0, BuildingBlock: GALJAG_clean_sbu_0, # of connection points: 4
#     Node 8, Type 0, BuildingBlock: GALJAG_clean_sbu_0, # of connection points: 4
#     Node 9, Type 0, BuildingBlock: GALJAG_clean_sbu_0, # of connection points: 4
#     Node 10, Type 0, BuildingBlock: GALJAG_clean_sbu_0, # of connection points: 4
#     Node 11, Type 0, BuildingBlock: GALJAG_clean_sbu_0, # of connection points: 4
#     Node 12, Type 0, BuildingBlock: GALJAG_clean_sbu_0, # of connection points: 4
#     Node 13, Type 0, BuildingBlock: GALJAG_clean_sbu_0, # of connection points: 4
#     Node 14, Type 0, BuildingBlock: GALJAG_clean_sbu_0, # of connection points: 4
#     Node 15, Type 0, BuildingBlock: GALJAG_clean_sbu_0, # of connection points: 4
#     Node 16, Type 0, BuildingBlock: GALJAG_clean_sbu_0, # of connection points: 4
#     Node 17, Type 0, BuildingBlock: GALJAG_clean_sbu_0, # of connection points: 4
#     Node 18, Type 0, BuildingBlock: GALJAG_clean_sbu_0, # of connection points: 4
#     Node 19, Type 0, BuildingBlock: GALJAG_clean_sbu_0, # of connection points: 4
#     Node 20, Type 0, BuildingBlock: GALJAG_clean_sbu_0, # of connection points: 4
#     Node 21, Type 0, BuildingBlock: GALJAG_clean_sbu_0, # of connection points: 4
#     Node 22, Type 0, BuildingBlock: GALJAG_clean_sbu_0, # of connection points: 4
#     Node 23, Type 0, BuildingBlock: GALJAG_clean_sbu_0, # of connection points: 4
#     Node 24, Type 1, BuildingBlock: IZENUY_clean_sbu_0, # of connection points: 6
#     Node 25, Type 1, BuildingBlock: IZENUY_clean_sbu_0, # of connection points: 6
#     Node 26, Type 1, BuildingBlock: IZENUY_clean_sbu_0, # of connection points: 6
#     Node 27, Type 1, BuildingBlock: IZENUY_clean_sbu_0, # of connection points: 6
#     Node 28, Type 1, BuildingBlock: IZENUY_clean_sbu_0, # of connection points: 6
#     Node 29, Type 1, BuildingBlock: IZENUY_clean_sbu_0, # of connection points: 6
#     Node 30, Type 1, BuildingBlock: IZENUY_clean_sbu_0, # of connection points: 6
#     Node 31, Type 1, BuildingBlock: IZENUY_clean_sbu_0, # of connection points: 6
#     Node 32, Type 1, BuildingBlock: IZENUY_clean_sbu_0, # of connection points: 6
#     Node 33, Type 1, BuildingBlock: IZENUY_clean_sbu_0, # of connection points: 6
#     Node 34, Type 1, BuildingBlock: IZENUY_clean_sbu_0, # of connection points: 6
#     Node 35, Type 1, BuildingBlock: IZENUY_clean_sbu_0, # of connection points: 6
#     Node 36, Type 1, BuildingBlock: IZENUY_clean_sbu_0, # of connection points: 6
#     Node 37, Type 1, BuildingBlock: IZENUY_clean_sbu_0, # of connection points: 6
#     Node 38, Type 1, BuildingBlock: IZENUY_clean_sbu_0, # of connection points: 6
#     Node 39, Type 1, BuildingBlock: IZENUY_clean_sbu_0, # of connection points: 6
#     Edge 40, Type (0, 1), BuildingBlock: CIFDUS_clean_linker_0, # of connection points: 2
#     Edge 41, Type (0, 1), BuildingBlock: CIFDUS_clean_linker_0, # of connection points: 2
#     Edge 42, Type (0, 1), BuildingBlock: CIFDUS_clean_linker_0, # of connection points: 2
#     Edge 43, Type (0, 1), BuildingBlock: CIFDUS_clean_linker_0, # of connection points: 2
#     Edge 44, Type (0, 1), BuildingBlock: CIFDUS_clean_linker_0, # of connection points: 2
#     Edge 45, Type (0, 1), BuildingBlock: CIFDUS_clean_linker_0, # of connection points: 2
#     Edge 46, Type (0, 1), BuildingBlock: CIFDUS_clean_linker_0, # of connection points: 2
#     Edge 47, Type (0, 1), BuildingBlock: CIFDUS_clean_linker_0, # of connection points: 2
#     Edge 48, Type (0, 1), BuildingBlock: CIFDUS_clean_linker_0, # of connection points: 2
#     Edge 49, Type (0, 1), BuildingBlock: CIFDUS_clean_linker_0, # of connection points: 2
#     Edge 50, Type (0, 1), BuildingBlock: CIFDUS_clean_linker_0, # of connection points: 2
#     Edge 51, Type (0, 1), BuildingBlock: CIFDUS_clean_linker_0, # of connection points: 2
#     Edge 52, Type (0, 1), BuildingBlock: CIFDUS_clean_linker_0, # of connection points: 2
#     Edge 53, Type (0, 1), BuildingBlock: CIFDUS_clean_linker_0, # of connection points: 2
#     Edge 54, Type (0, 1), BuildingBlock: CIFDUS_clean_linker_0, # of connection points: 2
#     Edge 55, Type (0, 1), BuildingBlock: CIFDUS_clean_linker_0, # of connection points: 2
#     Edge 56, Type (0, 1), BuildingBlock: CIFDUS_clean_linker_0, # of connection points: 2
#     Edge 57, Type (0, 1), BuildingBlock: CIFDUS_clean_linker_0, # of connection points: 2
#     Edge 58, Type (0, 1), BuildingBlock: CIFDUS_clean_linker_0, # of connection points: 2
#     Edge 59, Type (0, 1), BuildingBlock: CIFDUS_clean_linker_0, # of connection points: 2
#     Edge 60, Type (0, 1), BuildingBlock: CIFDUS_clean_linker_0, # of connection points: 2
#     Edge 61, Type (0, 1), BuildingBlock: CIFDUS_clean_linker_0, # of connection points: 2
#     Edge 62, Type (0, 1), BuildingBlock: CIFDUS_clean_linker_0, # of connection points: 2
#     Edge 63, Type (0, 1), BuildingBlock: CIFDUS_clean_linker_0, # of connection points: 2
#     Edge 64, Type (0, 1), BuildingBlock: CIFDUS_clean_linker_0, # of connection points: 2
#     Edge 65, Type (0, 1), BuildingBlock: CIFDUS_clean_linker_0, # of connection points: 2
#     Edge 66, Type (0, 1), BuildingBlock: CIFDUS_clean_linker_0, # of connection points: 2
#     Edge 67, Type (0, 1), BuildingBlock: CIFDUS_clean_linker_0, # of connection points: 2
#     Edge 68, Type (0, 1), BuildingBlock: CIFDUS_clean_linker_0, # of connection points: 2
#     Edge 69, Type (0, 1), BuildingBlock: CIFDUS_clean_linker_0, # of connection points: 2
#     Edge 70, Type (0, 1), BuildingBlock: CIFDUS_clean_linker_0, # of connection points: 2
#     Edge 71, Type (0, 1), BuildingBlock: CIFDUS_clean_linker_0, # of connection points: 2
#     Edge 72, Type (0, 1), BuildingBlock: CIFDUS_clean_linker_0, # of connection points: 2
#     Edge 73, Type (0, 1), BuildingBlock: CIFDUS_clean_linker_0, # of connection points: 2
#     Edge 74, Type (0, 1), BuildingBlock: CIFDUS_clean_linker_0, # of connection points: 2
#     Edge 75, Type (0, 1), BuildingBlock: CIFDUS_clean_linker_0, # of connection points: 2
#     Edge 76, Type (0, 1), BuildingBlock: CIFDUS_clean_linker_0, # of connection points: 2
#     Edge 77, Type (0, 1), BuildingBlock: CIFDUS_clean_linker_0, # of connection points: 2
#     Edge 78, Type (0, 1), BuildingBlock: CIFDUS_clean_linker_0, # of connection points: 2
#     Edge 79, Type (0, 1), BuildingBlock: CIFDUS_clean_linker_0, # of connection points: 2
#     Edge 80, Type (0, 1), BuildingBlock: CIFDUS_clean_linker_0, # of connection points: 2
#     Edge 81, Type (0, 1), BuildingBlock: CIFDUS_clean_linker_0, # of connection points: 2
#     Edge 82, Type (0, 1), BuildingBlock: CIFDUS_clean_linker_0, # of connection points: 2
#     Edge 83, Type (0, 1), BuildingBlock: CIFDUS_clean_linker_0, # of connection points: 2
#     Edge 84, Type (0, 1), BuildingBlock: CIFDUS_clean_linker_0, # of connection points: 2
#     Edge 85, Type (0, 1), BuildingBlock: CIFDUS_clean_linker_0, # of connection points: 2
#     Edge 86, Type (0, 1), BuildingBlock: CIFDUS_clean_linker_0, # of connection points: 2
#     Edge 87, Type (0, 1), BuildingBlock: CIFDUS_clean_linker_0, # of connection points: 2
#     Edge 88, Type (0, 1), BuildingBlock: CIFDUS_clean_linker_0, # of connection points: 2
#     Edge 89, Type (0, 1), BuildingBlock: CIFDUS_clean_linker_0, # of connection points: 2
#     Edge 90, Type (0, 1), BuildingBlock: CIFDUS_clean_linker_0, # of connection points: 2
#     Edge 91, Type (0, 1), BuildingBlock: CIFDUS_clean_linker_0, # of connection points: 2
#     Edge 92, Type (0, 1), BuildingBlock: CIFDUS_clean_linker_0, # of connection points: 2
#     Edge 93, Type (0, 1), BuildingBlock: CIFDUS_clean_linker_0, # of connection points: 2
#     Edge 94, Type (0, 1), BuildingBlock: CIFDUS_clean_linker_0, # of connection points: 2
#     Edge 95, Type (0, 1), BuildingBlock: CIFDUS_clean_linker_0, # of connection points: 2
#     Edge 96, Type (0, 1), BuildingBlock: CIFDUS_clean_linker_0, # of connection points: 2
#     Edge 97, Type (0, 1), BuildingBlock: CIFDUS_clean_linker_0, # of connection points: 2
#     Edge 98, Type (0, 1), BuildingBlock: CIFDUS_clean_linker_0, # of connection points: 2
#     Edge 99, Type (0, 1), BuildingBlock: CIFDUS_clean_linker_0, # of connection points: 2
#     Edge 100, Type (0, 1), BuildingBlock: CIFDUS_clean_linker_0, # of connection points: 2
#     Edge 101, Type (0, 1), BuildingBlock: CIFDUS_clean_linker_0, # of connection points: 2
#     Edge 102, Type (0, 1), BuildingBlock: CIFDUS_clean_linker_0, # of connection points: 2
#     Edge 103, Type (0, 1), BuildingBlock: CIFDUS_clean_linker_0, # of connection points: 2
#     Edge 104, Type (0, 1), BuildingBlock: CIFDUS_clean_linker_0, # of connection points: 2
#     Edge 105, Type (0, 1), BuildingBlock: CIFDUS_clean_linker_0, # of connection points: 2
#     Edge 106, Type (0, 1), BuildingBlock: CIFDUS_clean_linker_0, # of connection points: 2
#     Edge 107, Type (0, 1), BuildingBlock: CIFDUS_clean_linker_0, # of connection points: 2
#     Edge 108, Type (0, 1), BuildingBlock: CIFDUS_clean_linker_0, # of connection points: 2
#     Edge 109, Type (0, 1), BuildingBlock: CIFDUS_clean_linker_0, # of connection points: 2
#     Edge 110, Type (0, 1), BuildingBlock: CIFDUS_clean_linker_0, # of connection points: 2
#     Edge 111, Type (0, 1), BuildingBlock: CIFDUS_clean_linker_0, # of connection points: 2
#     Edge 112, Type (0, 1), BuildingBlock: CIFDUS_clean_linker_0, # of connection points: 2
#     Edge 113, Type (0, 1), BuildingBlock: CIFDUS_clean_linker_0, # of connection points: 2
#     Edge 114, Type (0, 1), BuildingBlock: CIFDUS_clean_linker_0, # of connection points: 2
#     Edge 115, Type (0, 1), BuildingBlock: CIFDUS_clean_linker_0, # of connection points: 2
#     Edge 116, Type (0, 1), BuildingBlock: CIFDUS_clean_linker_0, # of connection points: 2
#     Edge 117, Type (0, 1), BuildingBlock: CIFDUS_clean_linker_0, # of connection points: 2
#     Edge 118, Type (0, 1), BuildingBlock: CIFDUS_clean_linker_0, # of connection points: 2
#     Edge 119, Type (0, 1), BuildingBlock: CIFDUS_clean_linker_0, # of connection points: 2
#     Edge 120, Type (0, 1), BuildingBlock: CIFDUS_clean_linker_0, # of connection points: 2
#     Edge 121, Type (0, 1), BuildingBlock: CIFDUS_clean_linker_0, # of connection points: 2
#     Edge 122, Type (0, 1), BuildingBlock: CIFDUS_clean_linker_0, # of connection points: 2
#     Edge 123, Type (0, 1), BuildingBlock: CIFDUS_clean_linker_0, # of connection points: 2
#     Edge 124, Type (0, 1), BuildingBlock: CIFDUS_clean_linker_0, # of connection points: 2
#     Edge 125, Type (0, 1), BuildingBlock: CIFDUS_clean_linker_0, # of connection points: 2
#     Edge 126, Type (0, 1), BuildingBlock: CIFDUS_clean_linker_0, # of connection points: 2
#     Edge 127, Type (0, 1), BuildingBlock: CIFDUS_clean_linker_0, # of connection points: 2
#     Edge 128, Type (0, 1), BuildingBlock: CIFDUS_clean_linker_0, # of connection points: 2
#     Edge 129, Type (0, 1), BuildingBlock: CIFDUS_clean_linker_0, # of connection points: 2
#     Edge 130, Type (0, 1), BuildingBlock: CIFDUS_clean_linker_0, # of connection points: 2
#     Edge 131, Type (0, 1), BuildingBlock: CIFDUS_clean_linker_0, # of connection points: 2
#     Edge 132, Type (0, 1), BuildingBlock: CIFDUS_clean_linker_0, # of connection points: 2
#     Edge 133, Type (0, 1), BuildingBlock: CIFDUS_clean_linker_0, # of connection points: 2
#     Edge 134, Type (0, 1), BuildingBlock: CIFDUS_clean_linker_0, # of connection points: 2
#     Edge 135, Type (0, 1), BuildingBlock: CIFDUS_clean_linker_0, # of connection points: 2
# Relax obj value: 0.206
# Max RMSD: 0.229
# Mean RMSD: 0.214
data_MOF--net-ibd--node1-GALJAG_clean_sbu_0--node2-IZENUY_clean_sbu_0--edge1-CIFDUS_clean_linker_0
_symmetry_space_group_name_H-M    P1
_symmetry_Int_Tables_number       1
_symmetry_cell_setting            triclinic
loop_
_symmetry_equiv_pos_as_xyz
'x, y, z'
_cell_length_a     43.550213
_cell_length_b     43.595947
_cell_length_c     43.570853
_cell_angle_alpha  90.063126
_cell_angle_beta   90.056948
_cell_angle_gamma 90.071892
loop_
_atom_site_label
_atom_site_type_symbol
_atom_site_fract_x
_atom_site_fract_y
_atom_site_fract_z
_atom_type_partial_charge
In0 In 0.98663 0.2635 0.38252 0.0
O1 O 0.01937 0.27443 0.34304 0.0
O2 O 0.01571 0.22818 0.35778 0.0
C3 C 0.00455 0.30631 0.42297 0.0
C4 C 0.9393 0.28301 0.34798 0.0
C5 C 0.97533 0.21746 0.42176 0.0
O6 O 0.02218 0.29609 0.40235 0.0
O7 O 0.97771 0.29542 0.42261 0.0
O8 O 0.95493 0.22817 0.40416 0.0
O9 O 0.00145 0.22965 0.41911 0.0
C10 C 0.02751 0.24694 0.33924 0.0
O11 O 0.94778 0.25537 0.34842 0.0
O12 O 0.95408 0.3005 0.36569 0.0
In13 In 0.00438 0.73207 0.62609 0.0
O14 O 0.97777 0.76909 0.6515 0.0
O15 O 0.96834 0.72283 0.66327 0.0
C16 C 0.0179 0.77655 0.58527 0.0
C17 C 0.04862 0.70929 0.66289 0.0
C18 C 0.98783 0.68991 0.5843 0.0
O19 O 0.99126 0.7657 0.58854 0.0
O20 O 0.03781 0.7656 0.60333 0.0
O21 O 0.0153 0.69831 0.58813 0.0
O22 O 0.96867 0.70222 0.60227 0.0
C23 C 0.96288 0.7508 0.6682 0.0
O24 O 0.03116 0.69265 0.6469 0.0
O25 O 0.04449 0.73777 0.65965 0.0
In26 In 0.494 0.74012 0.86604 0.0
O27 O 0.52943 0.74756 0.82859 0.0
O28 O 0.5178 0.70147 0.8393 0.0
C29 C 0.52034 0.78002 0.90519 0.0
C30 C 0.45219 0.76545 0.82817 0.0
C31 C 0.47236 0.69992 0.90814 0.0
O32 O 0.5357 0.76336 0.88719 0.0
O33 O 0.49161 0.77705 0.90297 0.0
O34 O 0.45493 0.71579 0.89134 0.0
O35 O 0.5006 0.70313 0.90255 0.0
C36 C 0.53334 0.71953 0.82276 0.0
O37 O 0.4557 0.7368 0.83048 0.0
O38 O 0.46886 0.78118 0.84591 0.0
In39 In 0.50583 0.25214 0.12659 0.0
O40 O 0.52463 0.21032 0.15228 0.0
O41 O 0.54089 0.25442 0.16517 0.0
C42 C 0.47246 0.21464 0.09002 0.0
C43 C 0.46985 0.28567 0.16393 0.0
C44 C 0.53817 0.28501 0.08525 0.0
O45 O 0.50136 0.21328 0.09148 0.0
O46 O 0.46049 0.23436 0.10743 0.0
O47 O 0.50957 0.28797 0.08867 0.0
O48 O 0.5505 0.26565 0.10286 0.0
C49 C 0.54143 0.22594 0.17004 0.0
O50 O 0.48779 0.29784 0.14471 0.0
O51 O 0.46962 0.25674 0.16369 0.0
In52 In 0.99275 0.77399 0.12618 0.0
O53 O 0.94754 0.7926 0.10785 0.0
O54 O 0.9891 0.81062 0.0895 0.0
C55 C 0.96067 0.74343 0.16914 0.0
C56 C 0.01586 0.73682 0.0824 0.0
C57 C 0.03188 0.8046 0.16342 0.0
O58 O 0.95764 0.77185 0.16478 0.0
O59 O 0.97919 0.7303 0.15122 0.0
O60 O 0.03325 0.77599 0.15936 0.0
O61 O 0.01168 0.81799 0.1476 0.0
C62 C 0.96011 0.81036 0.08873 0.0
O63 O 0.03277 0.75345 0.09914 0.0
O64 O 0.98759 0.73846 0.08828 0.0
In65 In 0.49639 0.75104 0.37767 0.0
O66 O 0.48849 0.71727 0.41634 0.0
O67 O 0.53433 0.72295 0.40031 0.0
C68 C 0.45787 0.72345 0.33747 0.0
C69 C 0.47629 0.79173 0.41936 0.0
C70 C 0.536 0.77971 0.33968 0.0
O71 O 0.4765 0.70896 0.35411 0.0
O72 O 0.45794 0.7521 0.34154 0.0
O73 O 0.51577 0.79361 0.3549 0.0
O74 O 0.53683 0.75109 0.34399 0.0
C75 C 0.51638 0.71002 0.41911 0.0
O76 O 0.50433 0.78572 0.41547 0.0
O77 O 0.45812 0.77765 0.40154 0.0
In78 In 0.50014 0.24976 0.6286 0.0
O79 O 0.53508 0.22136 0.60163 0.0
O80 O 0.48839 0.22009 0.58739 0.0
C81 C 0.54361 0.26715 0.66969 0.0
C82 C 0.47912 0.29639 0.59412 0.0
C83 C 0.45816 0.22342 0.66547 0.0
O84 O 0.53619 0.2395 0.66551 0.0
O85 O 0.53 0.28585 0.65234 0.0
O86 O 0.46262 0.25203 0.66497 0.0
O87 O 0.47446 0.2083 0.647 0.0
C88 C 0.51549 0.21119 0.58274 0.0
O89 O 0.4625 0.28262 0.61345 0.0
O90 O 0.50663 0.28735 0.59308 0.0
In91 In 0.99666 0.25744 0.8685 0.0
O92 O -0.00103 0.22165 0.90637 0.0
O93 O 0.0409 0.24238 0.89251 0.0
C94 C 0.96471 0.22207 0.82851 0.0
C95 C 0.96354 0.29053 0.90896 0.0
C96 C 0.03084 0.29279 0.83062 0.0
O97 O 0.98552 0.21157 0.84565 0.0
O98 O 0.95978 0.2504 0.83168 0.0
O99 O 0.00877 0.30327 0.84609 0.0
O100 O 0.03588 0.26457 0.8345 0.0
C101 C 0.02758 0.22388 0.91039 0.0
O102 O 0.99239 0.29219 0.90714 0.0
O103 O 0.95114 0.27288 0.88957 0.0
In104 In 0.36307 0.00684 0.24187 0.0
O105 O 0.32574 0.97041 0.2361 0.0
O106 O 0.33791 0.98348 0.28144 0.0
C107 C 0.40638 0.98259 0.20489 0.0
C108 C 0.32454 0.04622 0.21348 0.0
C109 C 0.40117 0.03171 0.28417 0.0
O110 O 0.38823 0.96622 0.22043 0.0
O111 O 0.40196 0.01108 0.20722 0.0
O112 O 0.38377 0.04775 0.26746 0.0
O113 O 0.39857 0.00316 0.28025 0.0
C114 C 0.32082 0.96738 0.26445 0.0
O115 O 0.32687 0.04462 0.24231 0.0
O116 O 0.34247 0.02873 0.19896 0.0
In117 In 0.25279 0.13555 0.49732 0.0
O118 O 0.21321 0.15981 0.52143 0.0
O119 O 0.25903 0.17191 0.53368 0.0
C120 C 0.2137 0.09708 0.4684 0.0
C121 C 0.27734 0.17728 0.45903 0.0
C122 C 0.2889 0.09564 0.52767 0.0
O123 O 0.21229 0.10215 0.49687 0.0
O124 O 0.23429 0.11193 0.45452 0.0
O125 O 0.28979 0.09829 0.49883 0.0
O126 O 0.27047 0.11346 0.54091 0.0
C127 C 0.23072 0.17646 0.53759 0.0
O128 O 0.29368 0.15824 0.47357 0.0
O129 O 0.24881 0.17431 0.46295 0.0
In130 In 0.12256 0.01136 0.75884 0.0
O131 O 0.09919 0.97386 0.78693 0.0
O132 O 0.07851 0.01806 0.78554 0.0
C133 C 0.17141 0.97991 0.73751 0.0
C134 C 0.08841 0.02774 0.70989 0.0
C135 C 0.15297 0.04931 0.79676 0.0
O136 O 0.14672 0.96649 0.74463 0.0
O137 O 0.17099 0.0086 0.74043 0.0
O138 O 0.14563 0.05683 0.76971 0.0
O139 O 0.14394 0.02301 0.805 0.0
C140 C 0.07695 0.99073 0.79485 0.0
O141 O 0.10038 0.04711 0.72782 0.0
O142 O 0.09522 0.00026 0.71564 0.0
In143 In 0.2446 0.89005 0.01557 0.0
O144 O 0.21969 0.90718 0.05832 0.0
O145 O 0.20766 0.92667 0.01528 0.0
C146 C 0.21975 0.8522 0.97348 0.0
C147 C 0.28366 0.93142 0.99184 0.0
C148 C 0.2728 0.84948 0.05233 0.0
O149 O 0.2038 0.87024 0.98952 0.0
O150 O 0.24826 0.85371 0.97825 0.0
O151 O 0.28714 0.87027 0.03822 0.0
O152 O 0.24406 0.84977 0.04862 0.0
C153 C 0.20348 0.92633 0.0439 0.0
O154 O 0.28001 0.92801 0.02033 0.0
O155 O 0.26778 0.91371 0.97528 0.0
In156 In 0.23518 0.38116 0.00904 0.0
O157 O 0.25636 0.35489 0.96858 0.0
O158 O 0.25843 0.33514 0.0131 0.0
C159 C 0.19736 0.41914 0.97896 0.0
C160 C 0.19615 0.35092 0.04583 0.0
C161 C 0.27916 0.42076 0.02708 0.0
O162 O 0.20982 0.39641 0.96594 0.0
O163 O 0.2034 0.42198 0.00717 0.0
O164 O 0.26042 0.40881 0.04562 0.0
O165 O 0.27623 0.4121 -0.00033 0.0
C166 C 0.26458 0.33258 0.98504 0.0
O167 O 0.22202 0.36036 0.055 0.0
O168 O 0.18958 0.35766 0.01842 0.0
In169 In 0.73537 0.11647 -0.00077 0.0
O170 O 0.71493 0.0991 0.0441 0.0
O171 O 0.69714 0.08105 0.00232 0.0
C172 C 0.76811 0.15684 0.03297 0.0
C173 C 0.77174 0.07203 0.97582 0.0
C174 C 0.70617 0.15539 0.9606 0.0
O175 O 0.73931 0.15457 0.03497 0.0
O176 O 0.78038 0.13849 0.01431 0.0
O177 O 0.7348 0.1511 0.95981 0.0
O178 O 0.69216 0.13912 0.97997 0.0
C179 C 0.69646 0.08076 0.0313 0.0
O180 O 0.75578 0.08932 0.95888 0.0
O181 O 0.76946 0.07745 0.00413 0.0
In182 In 0.13284 0.47256 0.24143 0.0
O183 O 0.15946 0.45448 0.28285 0.0
O184 O 0.17261 0.43877 0.23866 0.0
C185 C 0.08719 0.50362 0.2691 0.0
C186 C 0.16571 0.51725 0.21371 0.0
C187 C 0.09505 0.43163 0.21458 0.0
O188 O 0.10885 0.49175 0.28429 0.0
O189 O 0.08958 0.50113 0.24038 0.0
O190 O 0.11403 0.44729 0.19926 0.0
O191 O 0.09672 0.43518 0.24328 0.0
C192 C 0.17777 0.43849 0.26714 0.0
O193 O 0.1502 0.49774 0.19893 0.0
O194 O 0.16403 0.5147 0.24247 0.0
In195 In 0.76059 0.86378 0.49045 0.0
O196 O 0.75553 0.82755 0.45327 0.0
O197 O 0.80079 0.84108 0.46572 0.0
C198 C 0.71838 0.90138 0.46501 0.0
C199 C 0.74045 0.82248 0.53219 0.0
C200 C 0.80053 0.90607 0.51214 0.0
O201 O 0.73468 0.88324 0.44948 0.0
O202 O 0.72269 0.9 0.49362 0.0
O203 O 0.78427 0.8896 0.52952 0.0
O204 O 0.79715 0.90072 0.4839 0.0
C205 C 0.784 0.82403 0.4493 0.0
O206 O 0.76847 0.82651 0.52621 0.0
O207 O 0.72245 0.84004 0.51783 0.0
In208 In 0.86475 0.98546 0.24489 0.0
O209 O 0.89854 0.98872 0.2851 0.0
O210 O 0.88776 0.9445 0.26767 0.0
C211 C 0.82235 0.0262 0.2641 0.0
C212 C 0.90601 0.01039 0.20588 0.0
C213 C 0.82358 0.94454 0.22353 0.0
O214 O 0.84067 0.01312 0.28239 0.0
O215 O 0.82628 0.01956 0.23621 0.0
O216 O 0.841 0.95961 0.2059 0.0
O217 O 0.82797 0.94922 0.25177 0.0
C218 C 0.9031 0.96017 0.2866 0.0
O219 O 0.90155 0.98184 0.20755 0.0
O220 O 0.88909 0.02623 0.22317 0.0
In221 In 0.25821 0.63314 0.49236 0.0
O222 O 0.2694 0.60449 0.45028 0.0
O223 O 0.30292 0.60631 0.48569 0.0
C224 C 0.23651 0.67527 0.45311 0.0
C225 C 0.22574 0.59268 0.52582 0.0
C226 C 0.27393 0.6751 0.53443 0.0
O227 O 0.26475 0.67254 0.45912 0.0
O228 O 0.21924 0.65586 0.46609 0.0
O229 O 0.2464 0.66933 0.52746 0.0
O230 O 0.29384 0.65939 0.52025 0.0
C231 C 0.29529 0.59579 0.45977 0.0
O232 O 0.25064 0.60434 0.53476 0.0
O233 O 0.21696 0.60122 0.49954 0.0
In234 In 0.37888 0.50282 0.75336 0.0
O235 O 0.41526 0.50185 0.79155 0.0
O236 O 0.40108 0.45957 0.77194 0.0
C237 C 0.33734 0.54307 0.77547 0.0
C238 C 0.41852 0.53001 0.71402 0.0
C239 C 0.33672 0.46299 0.73216 0.0
O240 O 0.35541 0.52845 0.79286 0.0
O241 O 0.34124 0.53825 0.7472 0.0
O242 O 0.35453 0.47747 0.71439 0.0
O243 O 0.34085 0.46812 0.76035 0.0
C244 C 0.41839 0.47306 0.79076 0.0
O245 O 0.41285 0.50164 0.71313 0.0
O246 O 0.40371 0.5446 0.73412 0.0
In247 In 0.61987 0.00193 0.75663 0.0
O248 O 0.63619 0.97738 0.7999 0.0
O249 O 0.65356 0.96271 0.75661 0.0
C250 C 0.58054 0.03551 0.79036 0.0
C251 C 0.6671 0.03606 0.73634 0.0
C252 C 0.58273 0.97409 0.71541 0.0
O253 O 0.58202 0.00667 0.79237 0.0
O254 O 0.59923 0.04734 0.77176 0.0
O255 O 0.58673 0.00276 0.71565 0.0
O256 O 0.59764 0.95974 0.73554 0.0
C257 C 0.65387 0.95953 0.78538 0.0
O258 O 0.6477 0.02407 0.71836 0.0
O259 O 0.66211 0.03149 0.76444 0.0
In260 In 0.76611 0.6225 0.0118 0.0
O261 O 0.72394 0.64753 0.0299 0.0
O262 O 0.76783 0.66373 0.04381 0.0
C263 C 0.72785 0.57835 0.9906 0.0
C264 C 0.79381 0.65747 0.96885 0.0
C265 C 0.8047 0.58712 0.04438 0.0
O266 O 0.73139 0.58388 0.01876 0.0
O267 O 0.74308 0.59555 0.97298 0.0
O268 O 0.80457 0.58758 0.0154 0.0
O269 O 0.786 0.60531 0.05691 0.0
C270 C 0.73912 0.66709 0.04496 0.0
O271 O 0.80868 0.64156 0.98792 0.0
O272 O 0.76502 0.65482 0.97075 0.0
In273 In 0.88278 0.51015 0.75646 0.0
O274 O 0.84526 0.47585 0.74607 0.0
O275 O 0.85743 0.48243 0.79299 0.0
C276 C 0.92009 0.48252 0.7157 0.0
C277 C 0.84174 0.55173 0.73647 0.0
C278 C 0.92405 0.53219 0.79743 0.0
O279 O 0.90323 0.46802 0.73411 0.0
O280 O 0.91799 0.51135 0.71744 0.0
O281 O 0.90951 0.54921 0.77911 0.0
O282 O 0.91699 0.50417 0.79585 0.0
C283 C 0.84042 0.46886 0.7737 0.0
O284 O 0.84422 0.5444 0.76438 0.0
O285 O 0.86122 0.53937 0.71891 0.0
In286 In 0.75341 0.36394 0.487 0.0
O287 O 0.7121 0.39489 0.49611 0.0
O288 O 0.74512 0.3898 0.53172 0.0
C289 C 0.72932 0.32341 0.4467 0.0
C290 C 0.78659 0.40482 0.45456 0.0
C291 C 0.77882 0.32526 0.52761 0.0
O292 O 0.71302 0.33819 0.46552 0.0
O293 O 0.75747 0.33 0.44743 0.0
O294 O 0.79364 0.34724 0.51583 0.0
O295 O 0.75103 0.32345 0.51952 0.0
C296 C 0.72063 0.40239 0.5228 0.0
O297 O 0.79857 0.38089 0.46551 0.0
O298 O 0.75824 0.40754 0.45943 0.0
In299 In 0.6289 0.5245 0.234 0.0
O300 O 0.60398 0.48443 0.25703 0.0
O301 O 0.5893 0.52971 0.26755 0.0
C302 C 0.66374 0.48366 0.20305 0.0
C303 C 0.59152 0.55566 0.19616 0.0
C304 C 0.6717 0.55675 0.26521 0.0
O305 O 0.65861 0.48145 0.23147 0.0
O306 O 0.65078 0.50608 0.19018 0.0
O307 O 0.65133 0.54096 0.27827 0.0
O308 O 0.67023 0.55676 0.23632 0.0
C309 C 0.58554 0.50134 0.27167 0.0
O310 O 0.61005 0.56905 0.21403 0.0
O311 O 0.59268 0.52675 0.19685 0.0
Fe312 Fe 0.10633 0.10713 0.15846 0.0
Fe313 Fe 0.07791 0.16567 0.13233 0.0
O314 O 0.10678 0.13727 0.13145 0.0
Fe315 Fe 0.13613 0.13917 0.10357 0.0
O316 O 0.12518 0.10237 0.08783 0.0
O317 O 0.12292 0.07858 0.1322 0.0
O318 O 0.06883 0.09436 0.14567 0.0
C319 C 0.04521 0.11103 0.14617 0.0
C320 C 0.16768 0.11923 0.15703 0.0
O321 O 0.0477 0.13998 0.14683 0.0
C322 C 0.13175 0.19944 0.1188 0.0
O323 O 0.08983 0.13043 0.1895 0.0
O324 O 0.0888 0.17717 0.17073 0.0
O325 O 0.16593 0.12174 0.12809 0.0
O326 O 0.14369 0.11797 0.17309 0.0
C327 C 0.08268 0.15689 0.07075 0.0
O328 O 0.1028 0.19665 0.11804 0.0
O329 O 0.14878 0.17612 0.11781 0.0
C330 C 0.08933 0.15924 0.19342 0.0
O331 O 0.06545 0.15571 0.09397 0.0
O332 O 0.11167 0.15681 0.07382 0.0
C333 C 0.12446 0.07787 0.10316 0.0
Fe334 Fe 0.08931 0.85459 0.38422 0.0
Fe335 Fe 0.11869 0.91219 0.35625 0.0
O336 O 0.1186 0.88274 0.3842 0.0
Fe337 Fe 0.14799 0.88127 0.41215 0.0
O338 O 0.16031 0.84378 0.3989 0.0
O339 O 0.11402 0.82372 0.39864 0.0
O340 O 0.09962 0.8422 0.34596 0.0
C341 C 0.10042 0.85933 0.32269 0.0
C342 C 0.09498 0.86369 0.44575 0.0
O343 O 0.10204 0.88824 0.32556 0.0
C344 C 0.13687 0.94269 0.4111 0.0
O345 O 0.0593 0.88028 0.3694 0.0
O346 O 0.08121 0.92563 0.36824 0.0
O347 O 0.1238 0.86439 0.44209 0.0
O348 O 0.07724 0.86491 0.42283 0.0
C349 C 0.18004 0.90019 0.35871 0.0
O350 O 0.13531 0.94132 0.38205 0.0
O351 O 0.13733 0.91854 0.42702 0.0
C352 C 0.05734 0.90925 0.36823 0.0
O353 O 0.15627 0.90093 0.34218 0.0
O354 O 0.17779 0.89801 0.38757 0.0
C355 C 0.14293 0.82058 0.39822 0.0
Fe356 Fe 0.37126 0.91291 0.6519 0.0
Fe357 Fe 0.33992 0.87671 0.60009 0.0
O358 O 0.37096 0.88183 0.62578 0.0
Fe359 Fe 0.40188 0.85564 0.62518 0.0
O360 O 0.39414 0.84435 0.66424 0.0
O361 O 0.39068 0.89125 0.68275 0.0
O362 O 0.33543 0.90099 0.66899 0.0
C363 C 0.31062 0.8975 0.65456 0.0
C364 C 0.43175 0.9124 0.63665 0.0
O365 O 0.31061 0.89269 0.6259 0.0
C366 C 0.39205 0.8622 0.56397 0.0
O367 O 0.35188 0.93966 0.62557 0.0
O368 O 0.34697 0.91351 0.58261 0.0
O369 O 0.43112 0.88341 0.63756 0.0
O370 O 0.40713 0.92744 0.63677 0.0
C371 C 0.35018 0.81735 0.61532 0.0
O372 O 0.36352 0.86018 0.56938 0.0
O373 O 0.41098 0.86547 0.58574 0.0
C374 C 0.34852 0.93873 0.59665 0.0
O375 O 0.33122 0.83921 0.61589 0.0
O376 O 0.37864 0.82276 0.61304 0.0
C377 C 0.39333 0.86251 0.68677 0.0
Fe378 Fe 0.39972 0.1609 0.8787 0.0
Fe379 Fe 0.36506 0.10828 0.8477 0.0
O380 O 0.36942 0.13397 0.87872 0.0
Fe381 Fe 0.3434 0.13239 0.90968 0.0
O382 O 0.33132 0.17121 0.90306 0.0
O383 O 0.37773 0.19096 0.89878 0.0
O384 O 0.3863 0.17786 0.84335 0.0
C385 C 0.38347 0.16332 0.81857 0.0
C386 C 0.4005 0.14447 0.93896 0.0
O387 O 0.38111 0.13437 0.8187 0.0
C388 C 0.35089 0.07163 0.89926 0.0
O389 O 0.42691 0.13533 0.85865 0.0
O390 O 0.40203 0.09148 0.85536 0.0
O391 O 0.3714 0.14465 0.93895 0.0
O392 O 0.41517 0.14585 0.91413 0.0
C393 C 0.30556 0.12341 0.85738 0.0
O394 O 0.34842 0.07714 0.87082 0.0
O395 O 0.35419 0.0933 0.91811 0.0
C396 C 0.42687 0.10628 0.85627 0.0
O397 O 0.32767 0.12388 0.83872 0.0
O398 O 0.31043 0.12017 0.88593 0.0
C399 C 0.34905 0.19404 0.90283 0.0
Fe400 Fe 0.60335 0.35084 0.87232 0.0
Fe401 Fe 0.63739 0.40623 0.84561 0.0
O402 O 0.63373 0.37778 0.8742 0.0
Fe403 Fe 0.6606 0.37637 0.90463 0.0
O404 O 0.67236 0.33816 0.8937 0.0
O405 O 0.62582 0.31902 0.88905 0.0
O406 O 0.61547 0.3372 0.83489 0.0
C407 C 0.61767 0.3541 0.81155 0.0
C408 C 0.60428 0.36149 0.93391 0.0
O409 O 0.62107 0.3828 0.81452 0.0
C410 C 0.65349 0.43816 0.90019 0.0
O411 O 0.57562 0.378 0.85541 0.0
O412 O 0.60027 0.42207 0.85508 0.0
O413 O 0.63334 0.36143 0.93315 0.0
O414 O 0.5889 0.36253 0.90945 0.0
C415 C 0.69741 0.39117 0.85303 0.0
O416 O 0.65412 0.43513 0.87129 0.0
O417 O 0.65073 0.41491 0.91728 0.0
C418 C 0.57547 0.40713 0.85477 0.0
O419 O 0.675 0.39216 0.83463 0.0
O420 O 0.69286 0.39069 0.88173 0.0
C421 C 0.65463 0.31538 0.89166 0.0
Fe422 Fe 0.84333 0.36952 0.09722 0.0
Fe423 Fe 0.86958 0.39175 0.15837 0.0
O424 O 0.86915 0.36481 0.12815 0.0
Fe425 Fe 0.89432 0.33306 0.12871 0.0
O426 O 0.91211 0.34523 0.09323 0.0
O427 O 0.86865 0.35153 0.06851 0.0
O428 O 0.86077 0.40564 0.08703 0.0
C429 C 0.86272 0.42827 0.10493 0.0
C430 C 0.8385 0.30813 0.10617 0.0
O431 O 0.85995 0.42476 0.13372 0.0
C432 C 0.87674 0.33461 0.18868 0.0
O433 O 0.81314 0.38861 0.12002 0.0
O434 O 0.82982 0.38418 0.16724 0.0
O435 O 0.86753 0.30711 0.10861 0.0
O436 O 0.82466 0.33351 0.10587 0.0
C437 C 0.93086 0.38146 0.15315 0.0
O438 O 0.87925 0.36357 0.18806 0.0
O439 O 0.87805 0.31911 0.16427 0.0
C440 C 0.80808 0.38806 0.14865 0.0
O441 O 0.9095 0.40087 0.15188 0.0
O442 O 0.92552 0.35317 0.14916 0.0
C443 C 0.89759 0.34844 0.06841 0.0
Fe444 Fe 0.85852 0.62109 0.39319 0.0
Fe445 Fe 0.92276 0.64056 0.3733 0.0
O446 O 0.89062 0.61608 0.36904 0.0
Fe447 Fe 0.89051 0.58712 0.34053 0.0
O448 O 0.85662 0.60283 0.32238 0.0
O449 O 0.83001 0.60899 0.36462 0.0
O450 O 0.85289 0.65992 0.37977 0.0
C451 C 0.87263 0.68079 0.38307 0.0
C452 C 0.86104 0.55891 0.39171 0.0
O453 O 0.90065 0.67395 0.38677 0.0
C454 C 0.94995 0.58309 0.35869 0.0
O455 O 0.88123 0.63374 0.4264 0.0
O456 O 0.9292 0.62735 0.41218 0.0
O457 O 0.8676 0.55968 0.36334 0.0
O458 O 0.86202 0.58277 0.40796 0.0
C459 C 0.91689 0.63849 0.31101 0.0
O460 O 0.95106 0.61205 0.36041 0.0
O461 O 0.92456 0.56941 0.35632 0.0
C462 C 0.90927 0.62965 0.4331 0.0
O463 O 0.91766 0.65501 0.33479 0.0
O464 O 0.91303 0.6097 0.31281 0.0
C465 C 0.83135 0.60714 0.33568 0.0
Fe466 Fe 0.89899 0.84257 0.86626 0.0
Fe467 Fe 0.84152 0.87191 0.89421 0.0
O468 O 0.86994 0.87085 0.86531 0.0
Fe469 Fe 0.86947 0.89814 0.83538 0.0
O470 O 0.90697 0.91263 0.84649 0.0
O471 O 0.92848 0.86715 0.84892 0.0
O472 O 0.91248 0.85621 0.903 0.0
C473 C 0.8962 0.85869 0.92675 0.0
C474 C 0.88733 0.84334 0.80502 0.0
O475 O 0.86714 0.85848 0.92499 0.0
C476 C 0.80855 0.88476 0.83952 0.0
O477 O 0.8749 0.81285 0.88418 0.0
O478 O 0.82897 0.8334 0.88516 0.0
O479 O 0.88623 0.87234 0.80663 0.0
O480 O 0.88744 0.82738 0.82918 0.0
C481 C 0.85057 0.93321 0.88713 0.0
O482 O 0.811 0.88551 0.8685 0.0
O483 O 0.83209 0.88511 0.82266 0.0
C484 C 0.84599 0.81009 0.88581 0.0
O485 O 0.85188 0.91069 0.9052 0.0
O486 O 0.85235 0.92908 0.85842 0.0
C487 C 0.93073 0.8961 0.84775 0.0
Fe488 Fe 0.87756 0.08906 0.65234 0.0
Fe489 Fe 0.8464 0.10951 0.59273 0.0
O490 O 0.87429 0.11538 0.6216 0.0
Fe491 Fe 0.89893 0.14752 0.61967 0.0
O492 O 0.88549 0.1617 0.65634 0.0
O493 O 0.89023 0.11789 0.68067 0.0
O494 O 0.83828 0.09648 0.66448 0.0
C495 C 0.81523 0.09322 0.64713 0.0
C496 C 0.93808 0.09989 0.64026 0.0
O497 O 0.81848 0.09163 0.61834 0.0
C498 C 0.89768 0.13122 0.55933 0.0
O499 O 0.86555 0.05542 0.62964 0.0
O500 O 0.86294 0.07283 0.58247 0.0
O501 O 0.93171 0.12807 0.63738 0.0
O502 O 0.91697 0.08006 0.64203 0.0
C503 C 0.84156 0.17136 0.60034 0.0
O504 O 0.86915 0.12649 0.56184 0.0
O505 O 0.91403 0.13546 0.58285 0.0
C506 C 0.86512 0.05067 0.60091 0.0
O507 O 0.828 0.14581 0.60118 0.0
O508 O 0.87057 0.17281 0.6016 0.0
C509 C 0.88787 0.14688 0.68105 0.0
Fe510 Fe 0.61843 0.08154 0.35116 0.0
Fe511 Fe 0.6472 0.11578 0.40563 0.0
O512 O 0.61768 0.11212 0.37798 0.0
Fe513 Fe 0.5875 0.13927 0.37719 0.0
O514 O 0.59727 0.1506 0.33843 0.0
O515 O 0.60107 0.10384 0.31975 0.0
O516 O 0.65571 0.09321 0.33647 0.0
C517 C 0.67953 0.09577 0.35278 0.0
C518 C 0.55695 0.08325 0.36302 0.0
O519 O 0.67739 0.09943 0.38148 0.0
C520 C 0.59376 0.13198 0.43894 0.0
O521 O 0.63592 0.05392 0.37792 0.0
O522 O 0.63821 0.07865 0.42188 0.0
O523 O 0.55828 0.11225 0.36331 0.0
O524 O 0.58121 0.06749 0.36368 0.0
C525 C 0.63982 0.17581 0.39028 0.0
O526 O 0.62255 0.13257 0.43513 0.0
O527 O 0.57591 0.12979 0.41616 0.0
C528 C 0.63829 0.05385 0.40695 0.0
O529 O 0.65805 0.15334 0.39114 0.0
O530 O 0.61108 0.17146 0.39066 0.0
C531 C 0.59831 0.13252 0.31581 0.0
Fe532 Fe 0.583 0.83666 0.12264 0.0
Fe533 Fe 0.63597 0.86778 0.08892 0.0
O534 O 0.61052 0.86637 0.12037 0.0
Fe535 Fe 0.61264 0.89457 0.14946 0.0
O536 O 0.57339 0.90648 0.14243 0.0
O537 O 0.55397 0.85997 0.14243 0.0
O538 O 0.56538 0.84836 0.08685 0.0
C539 C 0.57969 0.84959 0.06175 0.0
C540 C 0.6013 0.83939 0.18229 0.0
O541 O 0.60874 0.85102 0.06143 0.0
C542 C 0.67362 0.88524 0.13907 0.0
O543 O 0.60704 0.80785 0.10335 0.0
O544 O 0.65175 0.83064 0.09852 0.0
O545 O 0.60084 0.86845 0.18056 0.0
O546 O 0.599 0.82318 0.15844 0.0
C547 C 0.62243 0.92835 0.09454 0.0
O548 O 0.66792 0.88488 0.11057 0.0
O549 O 0.65204 0.88444 0.15835 0.0
C550 C 0.63592 0.80647 0.10017 0.0
O551 O 0.62161 0.90494 0.07758 0.0
O552 O 0.62483 0.92566 0.12345 0.0
C553 C 0.55052 0.88878 0.14404 0.0
Fe554 Fe 0.39396 0.66109 0.11894 0.0
Fe555 Fe 0.33657 0.62661 0.09705 0.0
O556 O 0.36714 0.63092 0.1234 0.0
Fe557 Fe 0.37087 0.60485 0.15414 0.0
O558 O 0.40803 0.59275 0.14052 0.0
O559 O 0.42684 0.63908 0.13381 0.0
O560 O 0.40474 0.64781 0.08098 0.0
C561 C 0.38621 0.64491 0.05893 0.0
C562 C 0.38744 0.66176 0.18117 0.0
O563 O 0.35769 0.64213 0.06392 0.0
C564 C 0.30899 0.61171 0.15433 0.0
O565 O 0.36569 0.68826 0.10345 0.0
O566 O 0.32156 0.66391 0.10692 0.0
O567 O 0.38786 0.63272 0.18088 0.0
O568 O 0.38513 0.6766 0.15649 0.0
C569 C 0.35236 0.56687 0.10464 0.0
O570 O 0.30965 0.61047 0.12526 0.0
O571 O 0.33352 0.61524 0.16938 0.0
C572 C 0.33662 0.68856 0.10534 0.0
O573 O 0.34982 0.58875 0.08585 0.0
O574 O 0.35478 0.57213 0.13312 0.0
C575 C 0.43055 0.61033 0.13608 0.0
Fe576 Fe 0.13115 0.60824 0.85688 0.0
Fe577 Fe 0.16035 0.6369 0.91407 0.0
O578 O 0.13281 0.63815 0.8843 0.0
Fe579 Fe 0.10707 0.66937 0.88217 0.0
O580 O 0.12086 0.67974 0.84447 0.0
O581 O 0.11935 0.63326 0.82496 0.0
O582 O 0.17063 0.61486 0.84514 0.0
C583 C 0.19326 0.61337 0.86316 0.0
C584 C 0.06984 0.61841 0.86518 0.0
O585 O 0.1894 0.61607 0.89181 0.0
C586 C 0.10792 0.66117 0.94399 0.0
O587 O 0.14247 0.57805 0.88417 0.0
O588 O 0.14413 0.60173 0.92873 0.0
O589 O 0.07511 0.64699 0.86596 0.0
O590 O 0.09162 0.59943 0.86657 0.0
C591 C 0.16354 0.69724 0.89912 0.0
O592 O 0.13667 0.6574 0.94217 0.0
O593 O 0.09162 0.66117 0.92003 0.0
C594 C 0.14151 0.5774 0.91327 0.0
O595 O 0.17797 0.67222 0.901 0.0
O596 O 0.13446 0.69744 0.89767 0.0
C597 C 0.12076 0.66212 0.82153 0.0
Fe598 Fe 0.15596 0.38172 0.59235 0.0
Fe599 Fe 0.09684 0.35972 0.62256 0.0
O600 O 0.12852 0.38498 0.62189 0.0
Fe601 Fe 0.13278 0.4134 0.65051 0.0
O602 O 0.16975 0.39826 0.66218 0.0
O603 O 0.1884 0.39529 0.61558 0.0
O604 O 0.16556 0.34312 0.60416 0.0
C605 C 0.14621 0.32155 0.60473 0.0
C606 C 0.14955 0.44364 0.59543 0.0
O607 O 0.1177 0.32728 0.60555 0.0
C608 C 0.0711 0.41656 0.64081 0.0
O609 O 0.1287 0.36791 0.56343 0.0
O610 O 0.08373 0.37295 0.58537 0.0
O611 O 0.15059 0.44171 0.6245 0.0
O612 O 0.1475 0.41992 0.57904 0.0
C613 C 0.11154 0.36118 0.68328 0.0
O614 O 0.07027 0.38752 0.63985 0.0
O615 O 0.09637 0.43058 0.64066 0.0
C616 C 0.09993 0.37141 0.56145 0.0
O617 O 0.10822 0.34502 0.65953 0.0
O618 O 0.11538 0.39 0.68138 0.0
C619 C 0.19243 0.3963 0.64433 0.0
Fe620 Fe 0.66089 0.61904 0.58989 0.0
Fe621 Fe 0.63404 0.58586 0.64567 0.0
O622 O 0.63225 0.61596 0.61846 0.0
Fe623 Fe 0.60192 0.64288 0.61975 0.0
O624 O 0.58947 0.63298 0.58118 0.0
O625 O 0.6354 0.63514 0.56065 0.0
O626 O 0.65137 0.58151 0.57472 0.0
C627 C 0.65227 0.55713 0.5902 0.0
C628 C 0.65391 0.67946 0.60408 0.0
O629 O 0.6518 0.55802 0.61927 0.0
C630 C 0.61286 0.63659 0.68101 0.0
O631 O 0.69182 0.60353 0.61386 0.0
O632 O 0.67116 0.59893 0.65953 0.0
O633 O 0.62513 0.6752 0.60554 0.0
O634 O 0.67204 0.65692 0.6031 0.0
C635 C 0.57244 0.58637 0.63457 0.0
O636 O 0.6165 0.60804 0.67695 0.0
O637 O 0.61217 0.65466 0.6584 0.0
C638 C 0.69457 0.60181 0.64273 0.0
O639 O 0.59694 0.57093 0.63376 0.0
O640 O 0.5733 0.61544 0.63418 0.0
C641 C 0.6065 0.63486 0.55783 0.0
Fe642 Fe 0.42275 0.35478 0.37842 0.0
Fe643 Fe 0.39009 0.40953 0.34897 0.0
O644 O 0.39347 0.38276 0.37923 0.0
Fe645 Fe 0.36746 0.38377 0.41028 0.0
O646 O 0.35421 0.34519 0.40199 0.0
O647 O 0.40034 0.32529 0.39858 0.0
O648 O 0.408 0.33889 0.34302 0.0
C649 C 0.40496 0.35395 0.31853 0.0
C650 C 0.42446 0.37001 0.43885 0.0
O651 O 0.40381 0.383 0.31905 0.0
C652 C 0.37731 0.44485 0.40236 0.0
O653 O 0.45053 0.37897 0.35792 0.0
O654 O 0.42849 0.42418 0.35577 0.0
O655 O 0.39535 0.36997 0.43876 0.0
O656 O 0.43915 0.36896 0.41394 0.0
C657 C 0.32962 0.39675 0.3589 0.0
O658 O 0.37568 0.44078 0.37356 0.0
O659 O 0.3792 0.42231 0.42035 0.0
C660 C 0.4523 0.40777 0.35448 0.0
O661 O 0.35155 0.39655 0.34005 0.0
O662 O 0.33477 0.39782 0.38751 0.0
C663 C 0.37159 0.32207 0.40141 0.0
H664 H 0.0479 0.18956 0.32791 0.0
H665 H 0.04806 0.28144 0.29118 0.0
H666 H 0.07055 0.26259 0.24336 0.0
H667 H 0.08428 0.21924 0.21014 0.0
H668 H 0.08251 0.12719 0.24677 0.0
H669 H 0.06679 0.147 0.29661 0.0
C670 C 0.05331 0.20553 0.30962 0.0
C671 C 0.046 0.23673 0.31285 0.0
C672 C 0.06563 0.19448 0.28208 0.0
C673 C 0.05337 0.25725 0.28913 0.0
C674 C 0.06607 0.24648 0.26175 0.0
C675 C 0.08079 0.20352 0.22909 0.0
C676 C 0.08399 0.17172 0.22451 0.0
C677 C 0.07136 0.215 0.25764 0.0
C678 C 0.07984 0.15174 0.24949 0.0
C679 C 0.07081 0.16303 0.27804 0.0
H680 H 0.07186 0.80641 0.5759 0.0
H681 H 0.98118 0.79419 0.53785 0.0
H682 H 0.99589 0.8233 0.49233 0.0
H683 H 0.03622 0.84732 0.46095 0.0
H684 H 0.12692 0.85935 0.49934 0.0
H685 H 0.11032 0.83575 0.5471 0.0
C686 C 0.05521 0.8105 0.55783 0.0
C687 C 0.02564 0.79786 0.56007 0.0
C688 C 0.06386 0.82712 0.53162 0.0
C689 C 0.00419 0.80357 0.53662 0.0
C690 C 0.0126 0.82014 0.51051 0.0
C691 C 0.05221 0.84529 0.47993 0.0
C692 C 0.08292 0.85463 0.47625 0.0
C693 C 0.04263 0.83133 0.50739 0.0
C694 C 0.10323 0.85201 0.50128 0.0
C695 C 0.09381 0.83842 0.52866 0.0
H696 H 0.44421 0.82618 0.81688 0.0
H697 H 0.41882 0.73619 0.78407 0.0
H698 H 0.39569 0.7589 0.7384 0.0
H699 H 0.38787 0.80357 0.70535 0.0
H700 H 0.41393 0.89363 0.73742 0.0
H701 H 0.43134 0.87164 0.78603 0.0
C702 C 0.43314 0.81159 0.79999 0.0
C703 C 0.43352 0.77954 0.80366 0.0
C704 C 0.42031 0.82477 0.77354 0.0
C705 C 0.41895 0.76092 0.78169 0.0
C706 C 0.40585 0.77387 0.7555 0.0
C707 C 0.39711 0.81845 0.72308 0.0
C708 C 0.40008 0.8501 0.7176 0.0
C709 C 0.40726 0.80565 0.75077 0.0
C710 C 0.41155 0.86915 0.741 0.0
C711 C 0.42161 0.85658 0.76875 0.0
H712 H 0.49378 0.17935 0.04333 0.0
H713 H 0.41017 0.21095 0.08591 0.0
H714 H 0.37995 0.18813 0.04451 0.0
H715 H 0.37777 0.16456 0.99345 0.0
H716 H 0.46163 0.13562 0.9494 0.0
H717 H 0.49118 0.15162 0.9943 0.0
C718 C 0.46892 0.18077 0.0438 0.0
C719 C 0.45424 0.19702 0.06747 0.0
C720 C 0.45173 0.16825 0.01954 0.0
C721 C 0.42202 0.19872 0.0678 0.0
C722 C 0.40472 0.18573 0.04411 0.0
C723 C 0.40243 0.16117 0.9939 0.0
C724 C 0.41749 0.14918 0.968 0.0
C725 C 0.41939 0.17122 0.01943 0.0
C726 C 0.4495 0.14507 0.96894 0.0
C727 C 0.46644 0.15427 0.99458 0.0
H728 H 0.06617 0.77841 0.20811 0.0
H729 H 0.0357 0.86619 0.17419 0.0
H730 H 0.05739 0.89154 0.21939 0.0
H731 H 0.08001 0.88795 0.27101 0.0
H732 H 0.10747 0.79952 0.30602 0.0
H733 H 0.09213 0.77529 0.25788 0.0
C734 C 0.06478 0.80315 0.21032 0.0
C735 C 0.04927 0.82039 0.18793 0.0
C736 C 0.07647 0.81742 0.23676 0.0
C737 C 0.04749 0.85241 0.19119 0.0
C738 C 0.05977 0.8669 0.21708 0.0
C739 C 0.0831 0.86345 0.26792 0.0
C740 C 0.09462 0.84554 0.29218 0.0
C741 C 0.07355 0.84952 0.24041 0.0
C742 C 0.09836 0.8138 0.28784 0.0
C743 C 0.08961 0.79991 0.26031 0.0
H744 H 0.41766 0.80788 0.43285 0.0
H745 H 0.51129 0.81886 0.46349 0.0
H746 H 0.4936 0.84462 0.50994 0.0
H747 H 0.45139 0.85913 0.54422 0.0
H748 H 0.35768 0.84763 0.51363 0.0
H749 H 0.37562 0.82741 0.46476 0.0
C750 C 0.43418 0.81631 0.4495 0.0
C751 C 0.46565 0.81114 0.44495 0.0
C752 C 0.42387 0.83083 0.47632 0.0
C753 C 0.48687 0.82239 0.46657 0.0
C754 C 0.47679 0.83705 0.4932 0.0
C755 C 0.43488 0.85257 0.52674 0.0
C756 C 0.40326 0.8544 0.53288 0.0
C757 C 0.44531 0.84064 0.4987 0.0
C758 C 0.3822 0.84616 0.50975 0.0
C759 C 0.3924 0.8345 0.48174 0.0
H760 H 0.42899 0.25016 0.7134 0.0
H761 H 0.44297 0.16292 0.66869 0.0
H762 H 0.4169 0.13675 0.7108 0.0
H763 H 0.39616 0.13813 0.76297 0.0
H764 H 0.38479 0.22518 0.80895 0.0
H765 H 0.40342 0.25197 0.76348 0.0
C766 C 0.42583 0.22548 0.71264 0.0
C767 C 0.43816 0.20844 0.68822 0.0
C768 C 0.41154 0.21053 0.73726 0.0
C769 C 0.43388 0.1765 0.68743 0.0
C770 C 0.41905 0.16152 0.71151 0.0
C771 C 0.39721 0.16299 0.76288 0.0
C772 C 0.38955 0.17959 0.78947 0.0
C773 C 0.40869 0.17821 0.73698 0.0
C774 C 0.39094 0.21182 0.7889 0.0
C775 C 0.40164 0.22717 0.76294 0.0
H776 H 0.00171 0.1905 0.95589 0.0
H777 H 0.08909 0.22342 0.92287 0.0
H778 H 0.11445 0.20308 0.96864 0.0
H779 H 0.11102 0.17969 0.01989 0.0
H780 H 0.02297 0.14915 0.05367 0.0
H781 H -0.00129 0.16466 0.00565 0.0
C782 C 0.02637 0.19287 0.9585 0.0
C783 C 0.04349 0.20852 0.93609 0.0
C784 C 0.04065 0.18174 0.98513 0.0
C785 C 0.0754 0.2115 0.93985 0.0
C786 C 0.08989 0.19995 0.96604 0.0
C787 C 0.08659 0.17605 0.0166 0.0
C788 C 0.06881 0.16345 0.04044 0.0
C789 C 0.07264 0.18558 0.98913 0.0
C790 C 0.03716 0.15903 0.03581 0.0
C791 C 0.02324 0.16789 0.00835 0.0
H792 H 0.27808 0.07764 0.24037 0.0
H793 H 0.31631 0.05471 0.15198 0.0
H794 H 0.27234 0.07838 0.12641 0.0
H795 H 0.22072 0.10093 0.12937 0.0
H796 H 0.18154 0.12145 0.21803 0.0
H797 H 0.22828 0.10365 0.24322 0.0
C798 C 0.27703 0.07826 0.2155 0.0
C799 C 0.30032 0.0643 0.1981 0.0
C800 C 0.25136 0.09126 0.20099 0.0
C801 C 0.29861 0.06522 0.1659 0.0
C802 C 0.27342 0.07867 0.15126 0.0
C803 C 0.22258 0.10198 0.15418 0.0
C804 C 0.19753 0.11227 0.17178 0.0
C805 C 0.2493 0.09107 0.1686 0.0
C806 C 0.20035 0.11337 0.20392 0.0
C807 C 0.22707 0.10317 0.21838 0.0
H808 H 0.18011 0.05202 0.49511 0.0
H809 H 0.2062 0.0887 0.40697 0.0
H810 H 0.18126 0.04557 0.38117 0.0
H811 H 0.15688 0.99504 0.38392 0.0
H812 H 0.13376 0.95656 0.4722 0.0
H813 H 0.15241 0.00293 0.49766 0.0
C814 C 0.17986 0.05081 0.47025 0.0
C815 C 0.19506 0.07337 0.45295 0.0
C816 C 0.16624 0.0255 0.45561 0.0
C817 C 0.19476 0.07148 0.42077 0.0
C818 C 0.18057 0.04681 0.40601 0.0
C819 C 0.15544 0.99696 0.4087 0.0
C820 C 0.14416 0.97226 0.42614 0.0
C821 C 0.16695 0.0233 0.42323 0.0
C822 C 0.14257 0.97514 0.45825 0.0
C823 C 0.15327 0.00163 0.47284 0.0
H824 H 0.17651 0.93172 0.69791 0.0
H825 H 0.22894 0.99289 0.75553 0.0
H826 H 0.27673 0.96983 0.73763 0.0
H827 H 0.30363 0.93552 0.70282 0.0
H828 H 0.25243 0.87815 0.64035 0.0
H829 H 0.20411 0.8962 0.66292 0.0
C830 C 0.19846 0.93957 0.70672 0.0
C831 C 0.19944 0.9638 0.72799 0.0
C832 C 0.22597 0.92703 0.69533 0.0
C833 C 0.22784 0.97429 0.73903 0.0
C834 C 0.25511 0.96114 0.72884 0.0
C835 C 0.28193 0.92653 0.69446 0.0
C836 C 0.28155 0.9054 0.67011 0.0
C837 C 0.25446 0.93793 0.7066 0.0
C838 C 0.25323 0.89443 0.65914 0.0
C839 C 0.22565 0.90479 0.67198 0.0
H840 H 0.2938 0.94358 0.93175 0.0
H841 H 0.31657 0.97433 0.0232 0.0
H842 H 0.34282 0.01906 0.0021 0.0
H843 H 0.35432 0.05196 0.95819 0.0
H844 H 0.33022 0.02205 0.86673 0.0
H845 H 0.30993 0.97415 0.88735 0.0
C846 C 0.30486 0.95988 0.94702 0.0
C847 C 0.30293 0.95596 0.97894 0.0
C848 C 0.31953 0.98573 0.93477 0.0
C849 C 0.31756 0.97703 -0.00149 0.0
C850 C 0.33252 0.00263 0.98648 0.0
C851 C 0.34497 0.03483 0.9427 0.0
C852 C 0.34329 0.04081 0.91105 0.0
C853 C 0.33287 0.00761 0.95471 0.0
C854 C 0.33156 0.01815 0.89124 0.0
C855 C 0.31983 0.99079 0.90301 0.0
H856 H 0.31051 0.95149 0.32367 0.0
H857 H 0.27297 0.94265 0.23245 0.0
H858 H 0.22668 0.91873 0.25331 0.0
H859 H 0.19501 0.90467 0.29795 0.0
H860 H 0.23329 0.91316 0.38908 0.0
H861 H 0.28114 0.93248 0.36772 0.0
C862 C 0.29235 0.94396 0.30834 0.0
C863 C 0.29499 0.9491 0.27664 0.0
C864 C 0.26581 0.93031 0.32048 0.0
C865 C 0.27144 0.93898 0.25699 0.0
C866 C 0.24491 0.92543 0.26891 0.0
C867 C 0.21394 0.91042 0.31312 0.0
C868 C 0.21029 0.90785 0.34511 0.0
C869 C 0.24153 0.92164 0.3007 0.0
C870 C 0.23525 0.91505 0.36438 0.0
C871 C 0.26268 0.92623 0.3522 0.0
H872 H 0.31476 0.04427 0.50419 0.0
H873 H 0.29869 0.09246 0.58917 0.0
H874 H 0.3185 0.04886 0.6182 0.0
H875 H 0.33552 0.99531 0.61956 0.0
H876 H 0.34886 0.94613 0.53453 0.0
H877 H 0.33509 0.99184 0.50545 0.0
C878 C 0.31615 0.0454 0.52902 0.0
C879 C 0.30522 0.07138 0.54456 0.0
C880 C 0.32669 0.01992 0.54559 0.0
C881 C 0.30689 0.07255 0.57675 0.0
C882 C 0.3181 0.04762 0.59336 0.0
C883 C 0.33575 0.99468 0.59468 0.0
C884 C 0.34284 0.96725 0.57929 0.0
C885 C 0.32728 0.02088 0.57805 0.0
C886 C 0.34309 0.96685 0.54699 0.0
C887 C 0.33529 0.99299 0.5303 0.0
H888 H 0.18956 0.09543 0.7772 0.0
H889 H 0.16595 0.04287 0.85763 0.0
H890 H 0.20917 0.06547 0.88551 0.0
H891 H 0.25768 0.09414 0.88435 0.0
H892 H 0.28371 0.14278 0.80218 0.0
H893 H 0.23537 0.12807 0.77773 0.0
C894 C 0.19345 0.08949 0.80106 0.0
C895 C 0.17479 0.0674 0.81532 0.0
C896 C 0.21902 0.1016 0.81649 0.0
C897 C 0.18016 0.05973 0.84616 0.0
C898 C 0.20492 0.07254 0.86205 0.0
C899 C 0.25244 0.10211 0.86136 0.0
C900 C 0.27429 0.11929 0.84497 0.0
C901 C 0.22515 0.09261 0.84707 0.0
C902 C 0.26732 0.12929 0.81512 0.0
C903 C 0.23973 0.12084 0.80113 0.0
H904 H 0.17131 0.97226 0.01749 0.0
H905 H 0.19162 0.93112 0.10522 0.0
H906 H 0.1651 0.97302 0.1314 0.0
H907 H 0.14164 0.02405 0.12941 0.0
H908 H 0.12386 0.06634 0.04158 0.0
H909 H 0.1436 0.02101 0.01536 0.0
C910 C 0.16953 0.97222 0.04232 0.0
C911 C 0.18366 0.94888 0.05944 0.0
C912 C 0.15492 0.99668 0.05719 0.0
C913 C 0.18107 0.949 0.09157 0.0
C914 C 0.16599 0.97297 0.10654 0.0
C915 C 0.14157 0.02317 0.10453 0.0
C916 C 0.13169 0.04871 0.08748 0.0
C917 C 0.15364 0.99737 0.0896 0.0
C918 C 0.13169 0.04713 0.05525 0.0
C919 C 0.14301 0.02124 0.04023 0.0
H920 H 0.21591 0.31256 0.09013 0.0
H921 H 0.13487 0.33995 0.04031 0.0
H922 H 0.1061 0.29727 0.06274 0.0
H923 H 0.10621 0.24852 0.09071 0.0
H924 H 0.18901 0.21809 0.13572 0.0
H925 H 0.21492 0.26572 0.12123 0.0
C926 C 0.19174 0.30959 0.08482 0.0
C927 C 0.17743 0.32923 0.06368 0.0
C928 C 0.17585 0.28422 0.09661 0.0
C929 C 0.14628 0.32498 0.05654 0.0
C930 C 0.12991 0.30055 0.06924 0.0
C931 C 0.12972 0.25262 0.09789 0.0
C932 C 0.14578 0.22986 0.11412 0.0
C933 C 0.14477 0.27943 0.08843 0.0
C934 C 0.17631 0.23526 0.12301 0.0
C935 C 0.19111 0.26244 0.11472 0.0
H936 H 0.73322 0.19955 0.92618 0.0
H937 H 0.64476 0.16746 0.95704 0.0
H938 H 0.62024 0.21292 0.93523 0.0
H939 H 0.62477 0.26434 0.91227 0.0
H940 H 0.71389 0.29732 0.88413 0.0
H941 H 0.7372 0.24894 0.89973 0.0
C942 C 0.70851 0.20223 0.92766 0.0
C943 C 0.69087 0.18026 0.94333 0.0
C944 C 0.69469 0.22878 0.91578 0.0
C945 C 0.65888 0.18412 0.94515 0.0
C946 C 0.64485 0.21016 0.93278 0.0
C947 C 0.6492 0.26072 0.90905 0.0
C948 C 0.66759 0.28451 0.89728 0.0
C949 C 0.66263 0.23305 0.91877 0.0
C950 C 0.69925 0.2795 0.89342 0.0
C951 C 0.71263 0.25183 0.90234 0.0
H952 H 0.03794 0.42972 0.23665 0.0
H953 H 0.09271 0.40096 0.15955 0.0
H954 H 0.04654 0.38084 0.1339 0.0
H955 H 0.98969 0.37408 0.13268 0.0
H956 H 0.93577 0.40918 0.20782 0.0
H957 H 0.98237 0.42435 0.23503 0.0
C958 C 0.03984 0.41851 0.21447 0.0
C959 C 0.06859 0.4162 0.20018 0.0
C960 C 0.01323 0.4086 0.1994 0.0
C961 C 0.07073 0.40258 0.17105 0.0
C962 C 0.04436 0.39128 0.15638 0.0
C963 C 0.98839 0.38505 0.15499 0.0
C964 C 0.95957 0.39075 0.16828 0.0
C965 C 0.01537 0.3946 0.17014 0.0
C966 C 0.95783 0.405 0.19712 0.0
C967 C 0.98441 0.41349 0.21273 0.0
H968 H 0.844 0.81016 0.43948 0.0
H969 H 0.7519 0.78295 0.41482 0.0
H970 H 0.77183 0.7378 0.38842 0.0
H971 H 0.81464 0.70312 0.3778 0.0
H972 H 0.90674 0.7294 0.40369 0.0
H973 H 0.88761 0.7781 0.42358 0.0
C974 C 0.82836 0.79459 0.42791 0.0
C975 C 0.79652 0.79962 0.42946 0.0
C976 C 0.83994 0.76841 0.41315 0.0
C977 C 0.77651 0.77942 0.41417 0.0
C978 C 0.78787 0.75356 0.39913 0.0
C979 C 0.83063 0.71965 0.38739 0.0
C980 C 0.86199 0.71233 0.38976 0.0
C981 C 0.81944 0.74735 0.39931 0.0
C982 C 0.88243 0.73427 0.40182 0.0
C983 C 0.8715 0.7621 0.41335 0.0
H984 H 0.91513 0.07061 0.19381 0.0
H985 H 0.9537 0.98088 0.17803 0.0
H986 H -0.00056 0.00418 0.15531 0.0
H987 H 0.03054 0.05016 0.14494 0.0
H988 H 0.99159 0.13984 0.16097 0.0
H989 H 0.94384 0.11639 0.17818 0.0
C990 C 0.93337 0.05615 0.185 0.0
C991 C 0.93124 0.02412 0.1879 0.0
C992 C 0.95964 0.06969 0.1722 0.0
C993 C 0.95487 0.00563 0.17612 0.0
C994 C 0.98108 0.01894 0.16326 0.0
C995 C 0.01149 0.0646 0.15185 0.0
C996 C 0.01491 0.09672 0.15212 0.0
C997 C 0.98406 0.05097 0.16196 0.0
C998 C 0.98978 0.11506 0.16073 0.0
C999 C 0.96243 0.10167 0.1707 0.0
H1000 H 0.32963 0.6868 0.55967 0.0
H1001 H 0.23617 0.71938 0.55679 0.0
H1002 H 0.25073 0.76486 0.58609 0.0
H1003 H 0.29119 0.79825 0.60654 0.0
H1004 H 0.38479 0.76566 0.60908 0.0
H1005 H 0.36881 0.71705 0.58663 0.0
C1006 C 0.31242 0.70368 0.56583 0.0
C1007 C 0.28206 0.7001 0.55567 0.0
C1008 C 0.32095 0.72982 0.58256 0.0
C1009 C 0.25981 0.72182 0.56417 0.0
C1010 C 0.2681 0.74786 0.58087 0.0
C1011 C 0.30801 0.78031 0.60279 0.0
C1012 C 0.33922 0.78592 0.6088 0.0
C1013 C 0.29879 0.75254 0.58935 0.0
C1014 C 0.36064 0.76219 0.6042 0.0
C1015 C 0.35158 0.73438 0.59121 0.0
H1016 H 0.08158 0.53335 0.3241 0.0
H1017 H 0.02996 0.50082 0.246 0.0
H1018 H 0.98244 0.51934 0.26892 0.0
H1019 H 0.95573 0.54652 0.30984 0.0
H1020 H 0.00686 0.58501 0.38529 0.0
H1021 H 0.0544 0.56224 0.36513 0.0
C1022 C 0.05986 0.5304 0.31225 0.0
C1023 C 0.05917 0.51592 0.28341 0.0
C1024 C 0.0326 0.54196 0.32521 0.0
C1025 C 0.03103 0.51227 0.26806 0.0
C1026 C 0.00384 0.52266 0.28122 0.0
C1027 C 0.97722 0.54935 0.32218 0.0
C1028 C 0.9779 0.56667 0.34931 0.0
C1029 C 0.00438 0.53766 0.30964 0.0
C1030 C 0.00592 0.57126 0.36458 0.0
C1031 C 0.03303 0.55844 0.35295 0.0
H1032 H 0.46821 0.49739 0.81945 0.0
H1033 H 0.42326 0.4115 0.79912 0.0
H1034 H 0.46693 0.38331 0.81999 0.0
H1035 H 0.51985 0.38305 0.8392 0.0
H1036 H 0.56588 0.46899 0.85723 0.0
H1037 H 0.51985 0.49708 0.84228 0.0
C1038 C 0.46778 0.47252 0.82012 0.0
C1039 C 0.44266 0.45654 0.80765 0.0
C1040 C 0.49333 0.45643 0.83142 0.0
C1041 C 0.44244 0.42431 0.80847 0.0
C1042 C 0.46744 0.40817 0.82032 0.0
C1043 C 0.51972 0.4079 0.84024 0.0
C1044 C 0.54643 0.42384 0.84899 0.0
C1045 C 0.49334 0.42398 0.83109 0.0
C1046 C 0.54577 0.45609 0.85026 0.0
C1047 C 0.51943 0.47222 0.84172 0.0
H1048 H 0.93957 0.80766 0.67562 0.0
H1049 H 0.94214 0.71811 0.71746 0.0
H1050 H 0.91597 0.73822 0.76291 0.0
H1051 H 0.89737 0.78257 0.79272 0.0
H1052 H 0.89489 0.87194 0.74999 0.0
H1053 H 0.91559 0.85044 0.70287 0.0
C1054 C 0.93402 0.79247 0.69453 0.0
C1055 C 0.94307 0.7616 0.69342 0.0
C1056 C 0.91915 0.80419 0.72053 0.0
C1057 C 0.93544 0.74203 0.71786 0.0
C1058 C 0.92062 0.75354 0.7439 0.0
C1059 C 0.90094 0.79726 0.77297 0.0
C1060 C 0.89508 0.82895 0.77519 0.0
C1061 C 0.9131 0.78479 0.74581 0.0
C1062 C 0.8995 0.84754 0.74918 0.0
C1063 C 0.91144 0.8353 0.72215 0.0
H1064 H 0.92293 0.18487 0.42882 0.0
H1065 H 0.01216 0.20018 0.4692 0.0
H1066 H 0.99725 0.17058 0.51433 0.0
H1067 H 0.95654 0.14682 0.54505 0.0
H1068 H 0.86699 0.13237 0.50472 0.0
H1069 H 0.88461 0.15464 0.45667 0.0
C1070 C 0.93926 0.18127 0.44729 0.0
C1071 C 0.96833 0.19509 0.44602 0.0
C1072 C 0.93043 0.16459 0.47328 0.0
C1073 C 0.9895 0.18994 0.46982 0.0
C1074 C 0.98097 0.17312 0.49568 0.0
C1075 C 0.94102 0.14804 0.5256 0.0
C1076 C 0.9103 0.13865 0.52877 0.0
C1077 C 0.95112 0.16132 0.49811 0.0
C1078 C 0.89066 0.13988 0.50313 0.0
C1079 C 0.90065 0.15271 0.47561 0.0
H1080 H 0.54813 0.1655 0.1842 0.0
H1081 H 0.57148 0.25659 0.2154 0.0
H1082 H 0.59315 0.23548 0.26248 0.0
H1083 H 0.60162 0.19165 0.29661 0.0
H1084 H 0.57882 0.10038 0.26551 0.0
H1085 H 0.56116 0.12102 0.21651 0.0
C1086 C 0.55831 0.18066 0.20115 0.0
C1087 C 0.55793 0.21255 0.19646 0.0
C1088 C 0.57069 0.16837 0.22828 0.0
C1089 C 0.57138 0.23194 0.2185 0.0
C1090 C 0.5837 0.21991 0.2455 0.0
C1091 C 0.59304 0.17624 0.27901 0.0
C1092 C 0.59121 0.14459 0.28487 0.0
C1093 C 0.58286 0.18824 0.25092 0.0
C1094 C 0.58044 0.12487 0.26165 0.0
C1095 C 0.57019 0.13666 0.23364 0.0
H1096 H 0.4931 0.80528 0.95501 0.0
H1097 H 0.58051 0.79625 0.90937 0.0
H1098 H 0.6062 0.82076 0.9528 0.0
H1099 H 0.60448 0.83929 0.00564 0.0
H1100 H 0.51754 0.84538 0.05286 0.0
H1101 H 0.49093 0.82779 0.00669 0.0
C1102 C 0.51769 0.80919 0.95438 0.0
C1103 C 0.53496 0.79882 0.92921 0.0
C1104 C 0.5324 0.82247 0.97979 0.0
C1105 C 0.5668 0.80388 0.92864 0.0
C1106 C 0.58149 0.81782 0.95347 0.0
C1107 C 0.57966 0.83719 0.0058 0.0
C1108 C 0.56309 0.84323 0.03282 0.0
C1109 C 0.56463 0.82636 0.9795 0.0
C1110 C 0.53091 0.84056 0.03246 0.0
C1111 C 0.51567 0.83046 0.00609 0.0
H1112 H 0.92512 0.24114 0.78423 0.0
H1113 H 0.96858 0.16017 0.82089 0.0
H1114 H 0.9456 0.12904 0.78026 0.0
H1115 H 0.91671 0.12556 0.73206 0.0
H1116 H 0.87546 0.20696 0.69376 0.0
H1117 H 0.89364 0.23707 0.7375 0.0
C1118 C 0.92928 0.21663 0.7835 0.0
C1119 C 0.94866 0.20301 0.80542 0.0
C1120 C 0.91642 0.19894 0.75975 0.0
C1121 C 0.95387 0.17123 0.80418 0.0
C1122 C 0.94074 0.15341 0.78095 0.0
C1123 C 0.91119 0.14977 0.73353 0.0
C1124 C 0.89481 0.16399 0.70961 0.0
C1125 C 0.92244 0.16711 0.7583 0.0
C1126 C 0.88814 0.19547 0.71179 0.0
C1127 C 0.89861 0.21273 0.73675 0.0
H1128 H 0.57006 0.1836 0.57139 0.0
H1129 H 0.4793 0.19649 0.53387 0.0
H1130 H 0.49445 0.17008 0.4868 0.0
H1131 H 0.53497 0.14768 0.45448 0.0
H1132 H 0.62568 0.13489 0.49253 0.0
H1133 H 0.60889 0.15642 0.5412 0.0
C1134 C 0.55354 0.18033 0.55302 0.0
C1135 C 0.52379 0.19227 0.55591 0.0
C1136 C 0.56239 0.16521 0.52601 0.0
C1137 C 0.50245 0.1876 0.53211 0.0
C1138 C 0.5111 0.17257 0.50515 0.0
C1139 C 0.55092 0.14912 0.47356 0.0
C1140 C 0.58166 0.14014 0.46961 0.0
C1141 C 0.54122 0.16187 0.50157 0.0
C1142 C 0.60196 0.14201 0.49472 0.0
C1143 C 0.59244 0.15439 0.52262 0.0
H1144 H 0.56826 0.75377 0.29314 0.0
H1145 H 0.54427 0.84111 0.33304 0.0
H1146 H 0.56674 0.86777 0.28924 0.0
H1147 H 0.58677 0.86596 0.23681 0.0
H1148 H 0.60782 0.77849 0.19538 0.0
H1149 H 0.59336 0.75226 0.24266 0.0
C1150 C 0.56856 0.77864 0.29251 0.0
C1151 C 0.5544 0.79546 0.31607 0.0
C1152 C 0.58069 0.7938 0.26681 0.0
C1153 C 0.55483 0.82767 0.31499 0.0
C1154 C 0.5676 0.84293 0.28993 0.0
C1155 C 0.58878 0.84121 0.23829 0.0
C1156 C 0.59792 0.8242 0.21244 0.0
C1157 C 0.57962 0.8262 0.26524 0.0
C1158 C 0.60046 0.79212 0.21482 0.0
C1159 C 0.59215 0.77707 0.24184 0.0
H1160 H 0.98327 0.84063 0.03991 0.0
H1161 H 0.89784 0.81345 0.08198 0.0
H1162 H 0.86969 0.82965 0.03621 0.0
H1163 H 0.87034 0.84519 0.98199 0.0
H1164 H 0.95651 0.86922 0.93929 0.0
H1165 H 0.98336 0.86073 0.98763 0.0
C1166 C 0.95843 0.83882 0.03932 0.0
C1167 C 0.94266 0.82562 0.0641 0.0
C1168 C 0.94258 0.8472 0.01264 0.0
C1169 C 0.91048 0.82342 0.06306 0.0
C1170 C 0.89441 0.83252 0.03685 0.0
C1171 C 0.89491 0.84902 0.98339 0.0
C1172 C 0.91146 0.85734 0.95698 0.0
C1173 C 0.91035 0.84344 0.01111 0.0
C1174 C 0.9433 0.86233 0.95919 0.0
C1175 C 0.95868 0.85753 0.98682 0.0
H1176 H 0.69705 0.92449 0.7582 0.0
H1177 H 0.66145 0.95029 0.84694 0.0
H1178 H 0.7048 0.92495 0.87201 0.0
H1179 H 0.75599 0.90207 0.86813 0.0
H1180 H 0.79306 0.87958 0.77899 0.0
H1181 H 0.74564 0.89677 0.75462 0.0
C1182 C 0.69847 0.92409 0.78306 0.0
C1183 C 0.67637 0.93955 0.80073 0.0
C1184 C 0.72385 0.91038 0.79718 0.0
C1185 C 0.67835 0.93871 0.83288 0.0
C1186 C 0.70318 0.92435 0.84719 0.0
C1187 C 0.75353 0.90038 0.84341 0.0
C1188 C 0.77821 0.89003 0.82535 0.0
C1189 C 0.72659 0.91111 0.82949 0.0
C1190 C 0.77455 0.88786 0.79337 0.0
C1191 C 0.74748 0.89771 0.77941 0.0
H1192 H 0.81531 0.91867 0.5714 0.0
H1193 H 0.82801 0.95118 0.47877 0.0
H1194 H 0.85269 0.99766 0.49813 0.0
H1195 H 0.86525 0.03148 0.54142 0.0
H1196 H 0.85229 -0.00095 0.63414 0.0
H1197 H 0.83374 0.94996 0.61465 0.0
C1198 C 0.82388 0.93575 0.55546 0.0
C1199 C 0.81947 0.93172 0.52375 0.0
C1200 C 0.8379 0.96251 0.56675 0.0
C1201 C 0.83098 0.95383 0.50332 0.0
C1202 C 0.84502 0.98047 0.51437 0.0
C1203 C 0.85882 0.01352 0.5574 0.0
C1204 C 0.85969 0.0192 0.58919 0.0
C1205 C 0.84779 0.98543 0.54606 0.0
C1206 C 0.85169 0.99546 0.60954 0.0
C1207 C 0.84089 0.96739 0.59842 0.0
H1208 H 0.8122 0.04842 0.32138 0.0
H1209 H 0.77326 0.04519 0.23037 0.0
H1210 H 0.72617 0.06903 0.24919 0.0
H1211 H 0.69421 0.08603 0.29253 0.0
H1212 H 0.73377 0.08958 0.38344 0.0
H1213 H 0.78239 0.07082 0.36352 0.0
C1214 C 0.79357 0.05335 0.30561 0.0
C1215 C 0.79606 0.04477 0.27466 0.0
C1216 C 0.76651 0.06695 0.31659 0.0
C1217 C 0.77186 0.05152 0.25438 0.0
C1218 C 0.74486 0.06503 0.26513 0.0
C1219 C 0.71357 0.08307 0.30792 0.0
C1220 C 0.71006 0.08875 0.33951 0.0
C1221 C 0.74162 0.07211 0.29636 0.0
C1222 C 0.73559 0.08515 0.35904 0.0
C1223 C 0.76349 0.07431 0.34771 0.0
H1224 H 0.65792 0.03767 0.00831 0.0
H1225 H 0.69436 0.07304 0.09342 0.0
H1226 H 0.67075 0.03064 0.12147 0.0
H1227 H 0.64538 0.98028 0.12076 0.0
H1228 H 0.61104 0.94399 0.03508 0.0
H1229 H 0.6278 0.99021 0.00843 0.0
C1230 C 0.66027 0.03638 0.03306 0.0
C1231 C 0.67816 0.05821 0.04872 0.0
C1232 C 0.64719 0.01164 0.04893 0.0
C1233 C 0.68086 0.05637 0.08081 0.0
C1234 C 0.66744 0.03208 0.09686 0.0
C1235 C 0.64099 0.98274 0.09638 0.0
C1236 C 0.62737 0.95853 0.07987 0.0
C1237 C 0.65137 0.00908 0.08101 0.0
C1238 C 0.62183 0.96213 0.04827 0.0
C1239 C 0.63146 0.98852 0.03298 0.0
H1240 H 0.68034 0.05232 0.67802 0.0
H1241 H 0.71657 0.05434 0.77017 0.0
H1242 H 0.76541 0.07431 0.75107 0.0
H1243 H 0.7991 0.08723 0.70754 0.0
H1244 H 0.76203 0.08491 0.61552 0.0
H1245 H 0.71234 0.06927 0.6353 0.0
C1246 C 0.69882 0.05746 0.69394 0.0
C1247 C 0.69501 0.05164 0.72534 0.0
C1248 C 0.72682 0.06869 0.68283 0.0
C1249 C 0.71902 0.0586 0.74581 0.0
C1250 C 0.74698 0.0699 0.73491 0.0
C1251 C 0.78008 0.08358 0.69187 0.0
C1252 C 0.78453 0.08677 0.66008 0.0
C1253 C 0.75137 0.07442 0.70336 0.0
C1254 C 0.75948 0.08224 0.6401 0.0
C1255 C 0.73095 0.07329 0.65135 0.0
H1256 H 0.68988 0.94954 0.49246 0.0
H1257 H 0.70268 0.90551 0.40467 0.0
H1258 H 0.67584 0.94752 0.37921 0.0
H1259 H 0.6535 -0.001 0.38129 0.0
H1260 H 0.64271 0.04423 0.46884 0.0
H1261 H 0.66367 -0.0006 0.49494 0.0
C1262 C 0.68634 0.94892 0.46782 0.0
C1263 C 0.69842 0.92458 0.45045 0.0
C1264 C 0.67147 0.9735 0.45323 0.0
C1265 C 0.69373 0.92409 0.41854 0.0
C1266 C 0.67845 0.94814 0.40394 0.0
C1267 C 0.65528 -0.00106 0.40612 0.0
C1268 C 0.64684 0.02514 0.423 0.0
C1269 C 0.66793 0.97333 0.42097 0.0
C1270 C 0.64928 0.02452 0.4552 0.0
C1271 C 0.66132 -0.00111 0.47018 0.0
H1272 H 0.80751 0.93366 0.16424 0.0
H1273 H 0.78025 0.91512 0.25759 0.0
H1274 H 0.73216 0.8927 0.23949 0.0
H1275 H 0.69566 0.88329 0.19755 0.0
H1276 H 0.72283 0.90222 0.10417 0.0
H1277 H 0.77313 0.91925 0.12189 0.0
C1278 C 0.79127 0.92423 0.18057 0.0
C1279 C 0.79728 0.92634 0.21219 0.0
C1280 C 0.76346 0.91172 0.17004 0.0
C1281 C 0.7761 0.91391 0.2331 0.0
C1282 C 0.74851 0.9012 0.22279 0.0
C1283 C 0.71268 0.89086 0.18104 0.0
C1284 C 0.70525 0.89191 0.14965 0.0
C1285 C 0.74158 0.9008 0.19137 0.0
C1286 C 0.72778 0.90136 0.12852 0.0
C1287 C 0.75659 0.91119 0.13862 0.0
H1288 H 0.78622 0.05941 0.91628 0.0
H1289 H 0.79948 0.02715 0.00894 0.0
H1290 H 0.82742 0.9826 0.98988 0.0
H1291 H 0.84499 0.95097 0.94684 0.0
H1292 H 0.83221 0.98322 0.85403 0.0
H1293 H 0.80776 0.02971 0.87325 0.0
C1294 C 0.79543 0.04272 0.93227 0.0
C1295 C 0.79052 0.04642 0.96393 0.0
C1296 C 0.81161 0.01712 0.92115 0.0
C1297 C 0.80283 0.02478 0.98442 0.0
C1298 C 0.8188 -0.00074 0.97356 0.0
C1299 C 0.83721 0.96831 0.93079 0.0
C1300 C 0.84019 0.96336 0.89903 0.0
C1301 C 0.82291 0.99493 0.94195 0.0
C1302 C 0.83019 0.98629 0.87862 0.0
C1303 C 0.81602 0.01288 0.88957 0.0
H1304 H 0.76588 0.69995 0.93314 0.0
H1305 H 0.85518 0.66667 0.96005 0.0
H1306 H 0.87964 0.70949 0.93335 0.0
H1307 H 0.87523 0.75932 0.90745 0.0
H1308 H 0.78558 0.79379 0.88304 0.0
H1309 H 0.76174 0.74744 0.90341 0.0
C1310 C 0.79072 0.70177 0.93272 0.0
C1311 C 0.80868 0.68033 0.94873 0.0
C1312 C 0.80456 0.72684 0.91801 0.0
C1313 C 0.84084 0.68298 0.948 0.0
C1314 C 0.85483 0.70752 0.93283 0.0
C1315 C 0.85052 0.75648 0.90611 0.0
C1316 C 0.83221 0.78016 0.89405 0.0
C1317 C 0.83687 0.73006 0.91851 0.0
C1318 C 0.8002 0.77608 0.89251 0.0
C1319 C 0.78653 0.74958 0.90418 0.0
H1320 H 0.2475 0.79772 0.07535 0.0
H1321 H 0.33398 0.8449 0.06447 0.0
H1322 H 0.36141 0.79969 0.08289 0.0
H1323 H 0.36103 0.74526 0.09658 0.0
H1324 H 0.27451 0.69748 0.10537 0.0
H1325 H 0.2469 0.74457 0.09342 0.0
C1326 C 0.27231 0.79828 0.07754 0.0
C1327 C 0.28874 0.82442 0.06833 0.0
C1328 C 0.28794 0.77201 0.08738 0.0
C1329 C 0.32086 0.82491 0.07128 0.0
C1330 C 0.33656 0.79905 0.08168 0.0
C1331 C 0.33613 0.74516 0.09617 0.0
C1332 C 0.31992 0.71775 0.10134 0.0
C1333 C 0.32038 0.77219 0.08888 0.0
C1334 C 0.28762 0.71817 0.10109 0.0
C1335 C 0.27177 0.74509 0.09427 0.0
H1336 H 0.93941 0.59148 0.80875 0.0
H1337 H 0.96657 0.49845 0.82853 0.0
H1338 H 0.0132 0.51706 0.85368 0.0
H1339 H 0.04851 0.55952 0.86562 0.0
H1340 H 0.02096 0.65259 0.84599 0.0
H1341 H 0.97216 0.6342 0.82562 0.0
C1342 C 0.95534 0.57532 0.81894 0.0
C1343 C 0.94971 0.54365 0.81651 0.0
C1344 C 0.98216 0.58616 0.83324 0.0
C1345 C 0.97041 0.52296 0.83005 0.0
C1346 C 0.99716 0.53358 0.84431 0.0
C1347 C 0.0317 0.57582 0.85721 0.0
C1348 C 0.03866 0.60736 0.85698 0.0
C1349 C 0.00364 0.56509 0.84536 0.0
C1350 C 0.01638 0.62816 0.84635 0.0
C1351 C 0.98845 0.61767 0.83455 0.0
H1352 H 0.17141 0.1908 0.55018 0.0
H1353 H 0.26481 0.21847 0.56869 0.0
H1354 H 0.24658 0.26463 0.59445 0.0
H1355 H 0.20451 0.29982 0.6063 0.0
H1356 H 0.11102 0.27259 0.58739 0.0
H1357 H 0.12888 0.22337 0.56771 0.0
C1358 C 0.18771 0.20673 0.56026 0.0
C1359 C 0.21935 0.20154 0.55714 0.0
C1360 C 0.1771 0.23339 0.5748 0.0
C1361 C 0.24029 0.22212 0.57058 0.0
C1362 C 0.22991 0.24857 0.58525 0.0
C1363 C 0.18801 0.28297 0.59823 0.0
C1364 C 0.15658 0.2901 0.59775 0.0
C1365 C 0.19842 0.25488 0.58663 0.0
C1366 C 0.13542 0.26781 0.58776 0.0
C1367 C 0.1456 0.23968 0.57637 0.0
H1368 H 0.06639 0.93233 0.81359 0.0
H1369 H 0.02545 0.02237 0.8106 0.0
H1370 H 0.97691 0.00138 0.82909 0.0
H1371 H 0.94481 0.95675 0.84138 0.0
H1372 H 0.98578 0.86658 0.84358 0.0
H1373 H 0.03551 0.88841 0.83039 0.0
C1374 C 0.04698 0.94742 0.81745 0.0
C1375 C 0.04941 0.97875 0.81049 0.0
C1376 C 0.019 0.93515 0.82765 0.0
C1377 C 0.02412 -0.00192 0.81568 0.0
C1378 C 0.9963 0.9861 0.82614 0.0
C1379 C 0.96465 0.94189 0.83924 0.0
C1380 C 0.96137 0.91003 0.84298 0.0
C1381 C 0.99325 0.95454 0.83142 0.0
C1382 C 0.98748 0.89118 0.8405 0.0
C1383 C 0.016 0.90361 0.83294 0.0
H1384 H 0.66968 0.30924 0.43595 0.0
H1385 H 0.76209 0.27903 0.41738 0.0
H1386 H 0.74244 0.23126 0.3955 0.0
H1387 H 0.69921 0.19576 0.38709 0.0
H1388 H 0.60679 0.22673 0.40519 0.0
H1389 H 0.62624 0.2765 0.42138 0.0
C1390 C 0.68546 0.29241 0.42664 0.0
C1391 C 0.71723 0.29743 0.42862 0.0
C1392 C 0.67403 0.26496 0.41424 0.0
C1393 C 0.73747 0.27562 0.41619 0.0
C1394 C 0.72627 0.24822 0.40383 0.0
C1395 C 0.68331 0.21353 0.3942 0.0
C1396 C 0.65166 0.20725 0.39542 0.0
C1397 C 0.69463 0.24225 0.40359 0.0
C1398 C 0.63132 0.23074 0.40423 0.0
C1399 C 0.6424 0.25927 0.41362 0.0
H1400 H 0.96892 0.50754 0.68622 0.0
H1401 H 0.92186 0.42184 0.70194 0.0
H1402 H 0.9632 0.39398 0.67651 0.0
H1403 H 0.01509 0.39345 0.65536 0.0
H1404 H 0.06366 0.47882 0.64204 0.0
H1405 H 0.01921 0.50732 0.66064 0.0
C1406 C 0.9675 0.48284 0.68354 0.0
C1407 C 0.94261 0.46671 0.69613 0.0
C1408 C 0.99174 0.46687 0.66962 0.0
C1409 C 0.94099 0.43471 0.69262 0.0
C1410 C 0.96462 0.41876 0.67815 0.0
C1411 C 0.01585 0.41831 0.65608 0.0
C1412 C 0.04283 0.43392 0.64777 0.0
C1413 C 0.99052 0.43452 0.66743 0.0
C1414 C 0.0433 0.46618 0.64868 0.0
C1415 C 0.0179 0.48253 0.65934 0.0
H1416 H 0.54702 0.53054 0.16115 0.0
H1417 H 0.58138 0.61752 0.19382 0.0
H1418 H 0.53561 0.64326 0.17393 0.0
H1419 H 0.48288 0.63964 0.15371 0.0
H1420 H 0.44772 0.55168 0.12455 0.0
H1421 H 0.49689 0.52774 0.13638 0.0
C1422 C 0.54478 0.55522 0.16343 0.0
C1423 C 0.56729 0.57207 0.17923 0.0
C1424 C 0.51809 0.56962 0.15287 0.0
C1425 C 0.5642 0.60404 0.18188 0.0
C1426 C 0.53799 0.61873 0.17065 0.0
C1427 C 0.48623 0.61537 0.14939 0.0
C1428 C 0.46166 0.59735 0.13867 0.0
C1429 C 0.51431 0.60156 0.15708 0.0
C1430 C 0.46623 0.56592 0.13321 0.0
C1431 C 0.4943 0.55222 0.13995 0.0
H1432 H 0.55117 0.66118 0.80943 0.0
H1433 H 0.55897 0.75472 0.77813 0.0
H1434 H 0.58664 0.73765 0.73256 0.0
H1435 H 0.605 0.69583 0.69959 0.0
H1436 H 0.59784 0.60226 0.73122 0.0
H1437 H 0.57409 0.61972 0.77871 0.0
C1438 C 0.5592 0.67781 0.79276 0.0
C1439 C 0.55275 0.7091 0.79698 0.0
C1440 C 0.5752 0.66786 0.76659 0.0
C1441 C 0.56355 0.73046 0.77536 0.0
C1442 C 0.57933 0.72073 0.74924 0.0
C1443 C 0.5986 0.67927 0.71702 0.0
C1444 C 0.60291 0.64776 0.71158 0.0
C1445 C 0.58476 0.68943 0.74431 0.0
C1446 C 0.59475 0.62667 0.73464 0.0
C1447 C 0.58098 0.6366 0.76182 0.0
H1448 H 0.5152 0.3211 0.04007 0.0
H1449 H 0.60013 0.28564 0.07669 0.0
H1450 H 0.6286 0.30927 0.03459 0.0
H1451 H 0.62881 0.3363 0.98532 0.0
H1452 H 0.54355 0.36938 0.94718 0.0
H1453 H 0.5158 0.35072 0.99217 0.0
C1454 C 0.53998 0.31884 0.039 0.0
C1455 C 0.55553 0.30152 0.06132 0.0
C1456 C 0.55612 0.33199 0.01444 0.0
C1457 C 0.58762 0.29874 0.05966 0.0
C1458 C 0.60391 0.31223 0.03561 0.0
C1459 C 0.60423 0.33991 0.98706 0.0
C1460 C 0.58825 0.3541 0.96287 0.0
C1461 C 0.58833 0.32841 0.01257 0.0
C1462 C 0.55636 0.35837 0.96542 0.0
C1463 C 0.54047 0.34764 0.99109 0.0
H1464 H 0.91518 0.25242 0.2995 0.0
H1465 H 0.91605 0.34079 0.34422 0.0
H1466 H 0.89136 0.36392 0.2996 0.0
H1467 H 0.87805 0.36055 0.24525 0.0
H1468 H 0.88035 0.27276 0.19924 0.0
H1469 H 0.89475 0.2478 0.24721 0.0
C1470 C 0.90924 0.27657 0.29977 0.0
C1471 C 0.91786 0.29501 0.3248 0.0
C1472 C 0.89604 0.2899 0.27365 0.0
C1473 C 0.90992 0.32623 0.325 0.0
C1474 C 0.89594 0.33948 0.29945 0.0
C1475 C 0.88117 0.33587 0.24577 0.0
C1476 C 0.87892 0.31868 0.21853 0.0
C1477 C 0.89026 0.3218 0.27317 0.0
C1478 C 0.88244 0.28664 0.21977 0.0
C1479 C 0.89076 0.27234 0.24719 0.0
H1480 H 0.93009 0.67258 0.56883 0.0
H1481 H 0.02473 0.66451 0.54074 0.0
H1482 H 0.00872 0.64124 0.49232 0.0
H1483 H 0.96772 0.6297 0.45548 0.0
H1484 H 0.873 0.63938 0.48318 0.0
H1485 H 0.88923 0.65509 0.53432 0.0
C1486 C 0.94722 0.6652 0.55235 0.0
C1487 C 0.97847 0.67066 0.5581 0.0
C1488 C 0.93785 0.65242 0.52433 0.0
C1489 C 0.00047 0.66077 0.53669 0.0
C1490 C 0.99134 0.64758 0.50895 0.0
C1491 C 0.9506 0.6348 0.47281 0.0
C1492 C 0.91922 0.634 0.46526 0.0
C1493 C 0.96006 0.64432 0.50209 0.0
C1494 C 0.89735 0.64025 0.48818 0.0
C1495 C 0.90658 0.64929 0.51747 0.0
H1496 H 0.56635 0.32422 0.67985 0.0
H1497 H 0.56499 0.2327 0.71736 0.0
H1498 H 0.59065 0.25103 0.76382 0.0
H1499 H 0.60844 0.29405 0.79588 0.0
H1500 H 0.60963 0.38557 0.758 0.0
H1501 H 0.5895 0.36613 0.70958 0.0
C1502 C 0.5721 0.30821 0.698 0.0
C1503 C 0.56349 0.27724 0.69532 0.0
C1504 C 0.58664 0.31894 0.72473 0.0
C1505 C 0.57131 0.2567 0.7189 0.0
C1506 C 0.58585 0.26719 0.74555 0.0
C1507 C 0.6047 0.30971 0.77692 0.0
C1508 C 0.61012 0.34132 0.78086 0.0
C1509 C 0.59286 0.29842 0.74906 0.0
C1510 C 0.60547 0.36117 0.75583 0.0
C1511 C 0.59383 0.3501 0.72807 0.0
H1512 H 0.98697 0.31865 0.95911 0.0
H1513 H 0.9013 0.29463 0.91542 0.0
H1514 H 0.87296 0.3133 0.96016 0.0
H1515 H 0.87295 0.33223 0.01333 0.0
H1516 H 0.95906 0.35309 0.05792 0.0
H1517 H 0.98684 0.34001 0.01107 0.0
C1518 C 0.96207 0.31792 0.95918 0.0
C1519 C 0.94622 0.30524 0.93407 0.0
C1520 C 0.94605 0.32788 0.98524 0.0
C1521 C 0.91399 0.30426 0.93454 0.0
C1522 C 0.8978 0.31484 0.96013 0.0
C1523 C 0.89776 0.33431 0.01266 0.0
C1524 C 0.91394 0.34343 0.03912 0.0
C1525 C 0.91364 0.32607 0.98587 0.0
C1526 C 0.9461 0.34586 0.03794 0.0
C1527 C 0.962 0.33841 0.01117 0.0
H1528 H 0.9613 0.68239 0.18086 0.0
H1529 H 0.92829 0.76884 0.21608 0.0
H1530 H 0.91064 0.74352 0.2628 0.0
H1531 H 0.90812 0.69765 0.29511 0.0
H1532 H 0.94038 0.61095 0.25986 0.0
H1533 H 0.95473 0.63555 0.21152 0.0
C1534 C 0.94992 0.69559 0.19862 0.0
C1535 C 0.94634 0.72744 0.19522 0.0
C1536 C 0.93997 0.68093 0.22546 0.0
C1537 C 0.93135 0.74428 0.21824 0.0
C1538 C 0.92139 0.72987 0.24501 0.0
C1539 C 0.91823 0.68414 0.27679 0.0
C1540 C 0.92362 0.65269 0.28112 0.0
C1541 C 0.92621 0.69835 0.24912 0.0
C1542 C 0.93613 0.63527 0.25705 0.0
C1543 C 0.94439 0.64931 0.22947 0.0
H1544 H 0.57405 0.68827 0.42795 0.0
H1545 H 0.48314 0.68806 0.46721 0.0
H1546 H 0.50242 0.66175 0.51273 0.0
H1547 H 0.54605 0.64363 0.54352 0.0
H1548 H 0.637 0.64413 0.50401 0.0
H1549 H 0.61664 0.66503 0.45644 0.0
C1550 C 0.55841 0.68209 0.4463 0.0
C1551 C 0.52735 0.69041 0.44441 0.0
C1552 C 0.56967 0.66716 0.4725 0.0
C1553 C 0.50724 0.68203 0.4682 0.0
C1554 C 0.51825 0.66706 0.4943 0.0
C1555 C 0.56136 0.64789 0.52438 0.0
C1556 C 0.59308 0.6428 0.52763 0.0
C1557 C 0.54958 0.66023 0.49704 0.0
C1558 C 0.61251 0.64816 0.50238 0.0
C1559 C 0.60093 0.6602 0.4751 0.0
H1560 H 0.83062 0.56845 0.67759 0.0
H1561 H 0.79238 0.57254 0.76882 0.0
H1562 H 0.74373 0.59101 0.74799 0.0
H1563 H 0.71033 0.60013 0.70336 0.0
H1564 H 0.74881 0.59539 0.61214 0.0
H1565 H 0.79899 0.58326 0.63352 0.0
C1566 C 0.81183 0.57396 0.69297 0.0
C1567 C 0.81498 0.56882 0.72463 0.0
C1568 C 0.78377 0.58405 0.68081 0.0
C1569 C 0.79051 0.57621 0.7443 0.0
C1570 C 0.76259 0.58659 0.7324 0.0
C1571 C 0.72975 0.59674 0.68817 0.0
C1572 C 0.72559 0.59813 0.65618 0.0
C1573 C 0.75866 0.58961 0.7006 0.0
C1574 C 0.75117 0.59416 0.63686 0.0
C1575 C 0.77995 0.58718 0.64904 0.0
H1576 H 0.70951 0.56744 0.93215 0.0
H1577 H 0.70473 0.5307 0.02388 0.0
H1578 H 0.67888 0.48477 0.0045 0.0
H1579 H 0.66145 0.45326 0.96079 0.0
H1580 H 0.66583 0.49098 0.86923 0.0
H1581 H 0.68757 0.53827 0.88933 0.0
C1582 C 0.70253 0.54951 0.94792 0.0
C1583 C 0.70928 0.55229 0.9793 0.0
C1584 C 0.68766 0.52322 0.93665 0.0
C1585 C 0.69984 0.52904 -0.00045 0.0
C1586 C 0.68513 0.50272 0.98848 0.0
C1587 C 0.66677 0.47196 0.94528 0.0
C1588 C 0.66238 0.46824 0.91348 0.0
C1589 C 0.67947 0.49928 0.95697 0.0
C1590 C 0.6692 0.49293 0.89379 0.0
C1591 C 0.68174 0.52007 0.90523 0.0
H1592 H 0.69837 0.43811 0.22732 0.0
H1593 H 0.67826 0.48432 0.14215 0.0
H1594 H 0.71908 0.45569 0.11652 0.0
H1595 H 0.764 0.42167 0.11978 0.0
H1596 H 0.7854 0.37751 0.20579 0.0
H1597 H 0.74037 0.40084 0.22946 0.0
C1598 C 0.70263 0.44158 0.20305 0.0
C1599 C 0.68553 0.46347 0.18673 0.0
C1600 C 0.7265 0.4255 0.18863 0.0
C1601 C 0.69125 0.4677 0.15527 0.0
C1602 C 0.71463 0.45138 0.1406 0.0
C1603 C 0.75844 0.41667 0.14352 0.0
C1604 C 0.77814 0.3981 0.16106 0.0
C1605 C 0.73292 0.4308 0.15725 0.0
C1606 C 0.77073 0.39196 0.19186 0.0
C1607 C 0.74503 0.40534 0.20545 0.0
H1608 H 0.77234 0.46433 0.45375 0.0
H1609 H 0.84085 0.40015 0.42285 0.0
H1610 H 0.86992 0.44221 0.39897 0.0
H1611 H 0.87579 0.498 0.38774 0.0
H1612 H 0.80855 0.56117 0.42359 0.0
H1613 H 0.77895 0.51881 0.44469 0.0
C1614 C 0.79355 0.45951 0.4416 0.0
C1615 C 0.80437 0.42934 0.43967 0.0
C1616 C 0.81037 0.48369 0.42898 0.0
C1617 C 0.83214 0.42335 0.42446 0.0
C1618 C 0.84869 0.44735 0.41086 0.0
C1619 C 0.85466 0.50225 0.40019 0.0
C1620 C 0.84433 0.53249 0.40428 0.0
C1621 C 0.83806 0.4777 0.41308 0.0
C1622 C 0.81705 0.53801 0.42052 0.0
C1623 C 0.80005 0.51385 0.43247 0.0
H1624 H 0.82876 0.44529 0.83013 0.0
H1625 H 0.79487 0.44693 0.73705 0.0
H1626 H 0.7488 0.41923 0.75273 0.0
H1627 H 0.71564 0.39998 0.79385 0.0
H1628 H 0.74956 0.39847 0.88704 0.0
H1629 H 0.79827 0.42004 0.87018 0.0
C1630 C 0.81145 0.43921 0.81325 0.0
C1631 C 0.81493 0.44852 0.78265 0.0
C1632 C 0.78495 0.42339 0.82242 0.0
C1633 C 0.79258 0.44018 0.76086 0.0
C1634 C 0.76619 0.4244 0.7698 0.0
C1635 C 0.73384 0.40387 0.81042 0.0
C1636 C 0.72864 0.39822 0.84173 0.0
C1637 C 0.76174 0.41668 0.80068 0.0
C1638 C 0.75272 0.40298 0.86281 0.0
C1639 C 0.78061 0.41545 0.85324 0.0
H1640 H 0.84186 0.54297 0.02169 0.0
H1641 H 0.80513 0.57865 0.10643 0.0
H1642 H 0.82434 0.53386 0.13405 0.0
H1643 H 0.84452 0.48128 0.13242 0.0
H1644 H 0.8785 0.4447 0.04683 0.0
H1645 H 0.86778 0.49328 0.02135 0.0
C1646 C 0.83862 0.54125 0.04632 0.0
C1647 C 0.82174 0.56379 0.06193 0.0
C1648 C 0.84893 0.51509 0.06184 0.0
C1649 C 0.81788 0.56142 0.09386 0.0
C1650 C 0.82873 0.53575 0.10964 0.0
C1651 C 0.85021 0.48417 0.10836 0.0
C1652 C 0.86178 0.45928 0.09142 0.0
C1653 C 0.84322 0.5119 0.09363 0.0
C1654 C 0.86911 0.46339 0.06027 0.0
C1655 C 0.86297 0.49114 0.04566 0.0
H1656 H 0.72478 0.57957 0.24215 0.0
H1657 H 0.6752 0.56628 0.3268 0.0
H1658 H 0.71954 0.58434 0.35605 0.0
H1659 H 0.77376 0.59872 0.35776 0.0
H1660 H 0.82454 0.60903 0.27331 0.0
H1661 H 0.77822 0.59762 0.24376 0.0
C1662 C 0.72355 0.58111 0.26697 0.0
C1663 C 0.69691 0.57145 0.28235 0.0
C1664 C 0.74939 0.59073 0.28366 0.0
C1665 C 0.69558 0.57343 0.31449 0.0
C1666 C 0.72092 0.5837 0.33122 0.0
C1667 C 0.77464 0.59896 0.33288 0.0
C1668 C 0.80264 0.60443 0.31778 0.0
C1669 C 0.74818 0.59163 0.31608 0.0
C1670 C 0.80333 0.60461 0.28552 0.0
C1671 C 0.77687 0.59805 0.26859 0.0
H1672 H 0.68298 0.44701 0.50157 0.0
H1673 H 0.72485 0.41245 0.58431 0.0
H1674 H 0.70466 0.45607 0.61328 0.0
H1675 H 0.67891 0.50613 0.61409 0.0
H1676 H 0.64065 0.54271 0.5304 0.0
H1677 H 0.65549 0.49619 0.50281 0.0
C1678 C 0.68722 0.44879 0.52605 0.0
C1679 C 0.70528 0.42658 0.54085 0.0
C1680 C 0.67644 0.47446 0.54229 0.0
C1681 C 0.711 0.42933 0.57246 0.0
C1682 C 0.69954 0.45429 0.58899 0.0
C1683 C 0.67344 0.50374 0.58991 0.0
C1684 C 0.65877 0.52786 0.57429 0.0
C1685 C 0.6828 0.47732 0.57401 0.0
C1686 C 0.65211 0.52454 0.54289 0.0
C1687 C 0.66057 0.49795 0.5271 0.0
H1688 H 0.68187 0.81044 0.55026 0.0
H1689 H 0.77478 0.77696 0.55766 0.0
H1690 H 0.75645 0.73085 0.58358 0.0
H1691 H 0.71367 0.69773 0.59933 0.0
H1692 H 0.62066 0.73118 0.59181 0.0
H1693 H 0.63947 0.77966 0.5713 0.0
C1694 C 0.69813 0.79325 0.55795 0.0
C1695 C 0.72958 0.79696 0.55174 0.0
C1696 C 0.68742 0.76665 0.57271 0.0
C1697 C 0.75041 0.77461 0.56204 0.0
C1698 C 0.73995 0.74816 0.57679 0.0
C1699 C 0.69751 0.71576 0.59363 0.0
C1700 C 0.66576 0.71053 0.59672 0.0
C1701 C 0.70844 0.74357 0.58152 0.0
C1702 C 0.64522 0.73438 0.58953 0.0
C1703 C 0.65594 0.76214 0.57763 0.0
H1704 H 0.1772 0.68633 0.43772 0.0
H1705 H 0.26868 0.72369 0.43013 0.0
H1706 H 0.24788 0.7714 0.40953 0.0
H1707 H 0.20342 0.80441 0.39918 0.0
H1708 H 0.11191 0.76695 0.4074 0.0
H1709 H 0.13309 0.7174 0.4219 0.0
C1710 C 0.19261 0.70473 0.43107 0.0
C1711 C 0.22435 0.70165 0.43577 0.0
C1712 C 0.18049 0.73224 0.41963 0.0
C1713 C 0.24409 0.72557 0.42686 0.0
C1714 C 0.23222 0.75293 0.41521 0.0
C1715 C 0.1881 0.78533 0.40379 0.0
C1716 C 0.15612 0.78963 0.40273 0.0
C1717 C 0.2004 0.75684 0.41238 0.0
C1718 C 0.13664 0.76447 0.40834 0.0
C1719 C 0.1487 0.73606 0.41671 0.0
H1720 H 0.5369 0.00019 0.6821 0.0
H1721 H 0.57814 0.91302 0.7042 0.0
H1722 H 0.53684 0.8862 0.67742 0.0
H1723 H 0.48618 0.88732 0.65351 0.0
H1724 H 0.44283 0.97422 0.63425 0.0
H1725 H 0.48801 0.00132 0.65362 0.0
C1726 C 0.53709 0.97536 0.68053 0.0
C1727 C 0.56031 0.95857 0.69531 0.0
C1728 C 0.51279 0.96003 0.66581 0.0
C1729 C 0.56032 0.92641 0.69321 0.0
C1730 C 0.53671 0.91106 0.67794 0.0
C1731 C 0.48676 0.91218 0.65298 0.0
C1732 C 0.46097 0.92869 0.64281 0.0
C1733 C 0.51236 0.9276 0.665 0.0
C1734 C 0.46226 0.96093 0.64224 0.0
C1735 C 0.48805 0.97646 0.65341 0.0
H1736 H 0.30268 0.32717 0.93578 0.0
H1737 H 0.25758 0.27551 0.00717 0.0
H1738 H 0.27946 0.22804 0.98739 0.0
H1739 H 0.31101 0.20125 0.95007 0.0
H1740 H 0.36026 0.25185 0.88092 0.0
H1741 H 0.33742 0.3 0.8996 0.0
C1742 C 0.29772 0.30543 0.94682 0.0
C1743 C 0.27848 0.30458 0.97266 0.0
C1744 C 0.31112 0.27826 0.93582 0.0
C1745 C 0.27242 0.27655 0.98725 0.0
C1746 C 0.28484 0.24945 0.97595 0.0
C1747 C 0.31661 0.22286 0.93903 0.0
C1748 C 0.33675 0.22327 0.91398 0.0
C1749 C 0.30413 0.25007 0.9503 0.0
C1750 C 0.3446 0.25126 0.90023 0.0
C1751 C 0.33153 0.27863 0.91084 0.0
H1752 H 0.46452 0.50227 0.68215 0.0
H1753 H 0.42647 0.59097 0.70398 0.0
H1754 H 0.46922 0.61615 0.67797 0.0
H1755 H 0.51949 0.61311 0.65346 0.0
H1756 H 0.55973 0.52468 0.63437 0.0
H1757 H 0.51389 0.49927 0.65451 0.0
C1758 C 0.46539 0.52709 0.68075 0.0
C1759 C 0.44245 0.54476 0.69504 0.0
C1760 C 0.49051 0.54147 0.66643 0.0
C1761 C 0.44394 0.57689 0.69328 0.0
C1762 C 0.46839 0.59131 0.67844 0.0
C1763 C 0.51814 0.58827 0.65321 0.0
C1764 C 0.54317 0.57086 0.64256 0.0
C1765 C 0.49214 0.57384 0.66558 0.0
C1766 C 0.54091 0.53867 0.64257 0.0
C1767 C 0.51472 0.52411 0.65416 0.0
H1768 H 0.74573 0.20522 0.06493 0.0
H1769 H 0.83029 0.16177 0.03732 0.0
H1770 H 0.8598 0.20365 0.06025 0.0
H1771 H 0.86136 0.25438 0.08451 0.0
H1772 H 0.77664 0.29915 0.10959 0.0
H1773 H 0.7474 0.25484 0.09149 0.0
C1774 C 0.77063 0.20476 0.06428 0.0
C1775 C 0.78584 0.18056 0.04939 0.0
C1776 C 0.78739 0.22921 0.07689 0.0
C1777 C 0.81808 0.18027 0.04857 0.0
C1778 C 0.83496 0.2042 0.06163 0.0
C1779 C 0.83653 0.25429 0.08641 0.0
C1780 C 0.82118 0.28008 0.0982 0.0
C1781 C 0.81983 0.22906 0.07533 0.0
C1782 C 0.78898 0.27966 0.10035 0.0
C1783 C 0.77224 0.25435 0.09001 0.0
H1784 H 0.53234 0.01407 0.82299 0.0
H1785 H 0.57559 0.0978 0.79267 0.0
H1786 H 0.53289 0.12772 0.81332 0.0
H1787 H 0.48107 0.12954 0.83559 0.0
H1788 H 0.43701 0.04525 0.86333 0.0
H1789 H 0.48231 0.01615 0.84827 0.0
C1790 C 0.53262 0.0389 0.8213 0.0
C1791 C 0.55689 0.05371 0.80619 0.0
C1792 C 0.50773 0.05584 0.83252 0.0
C1793 C 0.557 0.08588 0.8041 0.0
C1794 C 0.53259 0.10299 0.81582 0.0
C1795 C 0.48158 0.10486 0.83872 0.0
C1796 C 0.45564 0.08954 0.85022 0.0
C1797 C 0.50748 0.08814 0.82941 0.0
C1798 C 0.45658 0.05754 0.85413 0.0
C1799 C 0.48247 0.04086 0.84557 0.0
H1800 H 0.94784 0.98949 0.31888 0.0
H1801 H 0.91163 0.89956 0.29857 0.0
H1802 H 0.95457 0.87586 0.32565 0.0
H1803 H 0.00491 0.88055 0.35014 0.0
H1804 H 0.04288 0.97037 0.36795 0.0
H1805 H 0.99657 0.99421 0.3472 0.0
C1806 C 0.9491 0.96473 0.32085 0.0
C1807 C 0.92672 0.9463 0.30659 0.0
C1808 C 0.97429 0.95122 0.33582 0.0
C1809 C 0.92869 0.91424 0.3092 0.0
C1810 C 0.95326 0.90066 0.32464 0.0
C1811 C 0.00291 0.90535 0.35001 0.0
C1812 C 0.02751 0.92361 0.36036 0.0
C1813 C 0.9766 0.91891 0.33731 0.0
C1814 C 0.02442 0.95573 0.35993 0.0
C1815 C 0.99796 0.9694 0.34799 0.0
H1816 H 0.43624 0.26356 0.21111 0.0
H1817 H 0.46639 0.348 0.16921 0.0
H1818 H 0.44506 0.37725 0.21209 0.0
H1819 H 0.42333 0.37813 0.26409 0.0
H1820 H 0.39621 0.29316 0.30711 0.0
H1821 H 0.41057 0.26481 0.26098 0.0
C1822 C 0.43772 0.2884 0.21112 0.0
C1823 C 0.45309 0.3036 0.18722 0.0
C1824 C 0.42615 0.30493 0.23615 0.0
C1825 C 0.45479 0.33578 0.18747 0.0
C1826 C 0.44268 0.35249 0.21201 0.0
C1827 C 0.42 0.35348 0.26315 0.0
C1828 C 0.40901 0.33772 0.28906 0.0
C1829 C 0.42911 0.33722 0.23688 0.0
C1830 C 0.40494 0.30577 0.28755 0.0
C1831 C 0.41317 0.28954 0.26122 0.0
H1832 H 0.413 0.68813 0.92359 0.0
H1833 H 0.50629 0.67359 0.9536 0.0
H1834 H 0.48779 0.65298 0.00229 0.0
H1835 H 0.44528 0.64395 0.03829 0.0
H1836 H 0.35193 0.65816 0.00809 0.0
H1837 H 0.37029 0.67368 0.95756 0.0
C1838 C 0.42926 0.67997 0.94059 0.0
C1839 C 0.46096 0.68266 0.93508 0.0
C1840 C 0.41846 0.66833 0.96867 0.0
C1841 C 0.48175 0.67183 0.95726 0.0
C1842 C 0.47119 0.66018 0.98521 0.0
C1843 C 0.42893 0.65012 0.02056 0.0
C1844 C 0.39729 0.65028 0.02719 0.0
C1845 C 0.43962 0.6591 0.99148 0.0
C1846 C 0.37642 0.65794 0.00376 0.0
C1847 C 0.38689 0.66694 0.97482 0.0
H1848 H 0.07956 0.73981 0.70766 0.0
H1849 H 0.06267 0.64914 0.67154 0.0
H1850 H 0.08772 0.62637 0.71612 0.0
H1851 H 0.10782 0.63207 0.7683 0.0
H1852 H 0.12262 0.72274 0.80555 0.0
H1853 H 0.10545 0.74556 0.75745 0.0
C1854 C 0.08196 0.7151 0.70926 0.0
C1855 C 0.06896 0.69618 0.68658 0.0
C1856 C 0.09572 0.70211 0.73533 0.0
C1857 C 0.07227 0.6642 0.68887 0.0
C1858 C 0.0865 0.65114 0.7144 0.0
C1859 C 0.10784 0.65682 0.76576 0.0
C1860 C 0.11596 0.67562 0.79073 0.0
C1861 C 0.09729 0.66985 0.73828 0.0
C1862 C 0.11608 0.70767 0.78686 0.0
C1863 C 0.1062 0.72079 0.75936 0.0
H1864 H 0.06125 0.33084 0.42924 0.0
H1865 H 0.97264 0.32561 0.47318 0.0
H1866 H 0.99374 0.34956 0.5193 0.0
H1867 H 0.03885 0.36507 0.54932 0.0
H1868 H 0.12779 0.36842 0.50561 0.0
H1869 H 0.10493 0.35251 0.45713 0.0
C1870 C 0.04644 0.33548 0.44871 0.0
C1871 C 0.01563 0.32606 0.44806 0.0
C1872 C 0.05884 0.3486 0.47531 0.0
C1873 C 0.99657 0.33245 0.47327 0.0
C1874 C 0.00863 0.34602 0.49969 0.0
C1875 C 0.05316 0.36283 0.52908 0.0
C1876 C 0.08506 0.36723 0.53127 0.0
C1877 C 0.03999 0.35312 0.50135 0.0
C1878 C 0.10322 0.36462 0.50471 0.0
C1879 C 0.0902 0.35551 0.47694 0.0
H1880 H 0.43006 0.74972 0.28817 0.0
H1881 H 0.44623 0.66252 0.332 0.0
H1882 H 0.42298 0.63586 0.28852 0.0
H1883 H 0.40265 0.637 0.23628 0.0
H1884 H 0.38873 0.72389 0.19091 0.0
H1885 H 0.40626 0.75096 0.23683 0.0
C1886 C 0.42798 0.72493 0.28838 0.0
C1887 C 0.43994 0.70809 0.31315 0.0
C1888 C 0.41529 0.70967 0.26291 0.0
C1889 C 0.43732 0.67597 0.31309 0.0
C1890 C 0.4241 0.6607 0.28822 0.0
C1891 C 0.4031 0.66187 0.23647 0.0
C1892 C 0.39469 0.67833 0.21001 0.0
C1893 C 0.41373 0.67726 0.26269 0.0
C1894 C 0.39532 0.71059 0.21083 0.0
C1895 C 0.40537 0.72612 0.23709 0.0
H1896 H 0.07503 0.72095 0.07148 0.0
H1897 H 0.98331 0.71202 0.0351 0.0
H1898 H 0.00336 0.6861 0.98959 0.0
H1899 H 0.0474 0.66904 0.95857 0.0
H1900 H 0.13896 0.67701 0.996 0.0
H1901 H 0.11847 0.69982 0.04262 0.0
C1902 C 0.05945 0.71309 0.05368 0.0
C1903 C 0.02783 0.71861 0.05647 0.0
C1904 C 0.07109 0.69807 0.02768 0.0
C1905 C 0.00781 0.70805 0.03343 0.0
C1906 C 0.01924 0.69331 0.00736 0.0
C1907 C 0.06283 0.67551 0.97704 0.0
C1908 C 0.09469 0.67161 0.97353 0.0
C1909 C 0.05091 0.68865 0.00399 0.0
C1910 C 0.11433 0.67982 0.9979 0.0
C1911 C 0.10267 0.693 0.02462 0.0
H1912 H 0.07412 0.27324 0.79055 0.0
H1913 H 0.02561 0.35429 0.81999 0.0
H1914 H 0.04989 0.38406 0.7791 0.0
H1915 H 0.08086 0.38566 0.73174 0.0
H1916 H 0.12628 0.30348 0.70066 0.0
H1917 H 0.10775 0.27568 0.74565 0.0
C1918 C 0.06917 0.29751 0.78827 0.0
C1919 C 0.04795 0.31149 0.8081 0.0
C1920 C 0.08268 0.31428 0.76435 0.0
C1921 C 0.04176 0.34296 0.80487 0.0
C1922 C 0.05562 0.35999 0.78149 0.0
C1923 C 0.08727 0.36188 0.73529 0.0
C1924 C 0.10491 0.34658 0.71305 0.0
C1925 C 0.07559 0.34573 0.76066 0.0
C1926 C 0.11267 0.31564 0.71754 0.0
C1927 C 0.10198 0.29973 0.74315 0.0
H1928 H 0.50829 0.32111 0.54507 0.0
H1929 H 0.42096 0.31927 0.59177 0.0
H1930 H 0.39707 0.34633 0.54892 0.0
H1931 H 0.39958 0.36378 0.49565 0.0
H1932 H 0.48637 0.36305 0.44776 0.0
H1933 H 0.51196 0.34418 0.49385 0.0
C1934 C 0.48417 0.3272 0.54614 0.0
C1935 C 0.46631 0.31789 0.57134 0.0
C1936 C 0.47042 0.34199 0.52108 0.0
C1937 C 0.43513 0.326 0.57249 0.0
C1938 C 0.42144 0.34136 0.54795 0.0
C1939 C 0.42418 0.35999 0.49537 0.0
C1940 C 0.44088 0.36427 0.46806 0.0
C1941 C 0.43863 0.34842 0.52169 0.0
C1942 C 0.47284 0.3596 0.46831 0.0
C1943 C 0.4875 0.34871 0.49465 0.0
H1944 H 0.1938 0.43514 0.32735 0.0
H1945 H 0.2238 0.40932 0.23657 0.0
H1946 H 0.27285 0.39194 0.25736 0.0
H1947 H 0.3089 0.3885 0.30054 0.0
H1948 H 0.27896 0.41441 0.39138 0.0
H1949 H 0.22819 0.42702 0.37136 0.0
C1950 C 0.21091 0.4253 0.31219 0.0
C1951 C 0.20529 0.42379 0.28045 0.0
C1952 C 0.23919 0.41559 0.32426 0.0
C1953 C 0.2276 0.41083 0.2611 0.0
C1954 C 0.25572 0.401 0.27294 0.0
C1955 C 0.29119 0.39666 0.31602 0.0
C1956 C 0.2979 0.40089 0.34733 0.0
C1957 C 0.26205 0.40399 0.30436 0.0
C1958 C 0.27453 0.41105 0.36714 0.0
C1959 C 0.24547 0.41838 0.35571 0.0
H1960 H 0.29769 0.43546 0.08445 0.0
H1961 H 0.30698 0.46227 0.98966 0.0
H1962 H 0.3338 0.50907 0.00515 0.0
H1963 H 0.34875 0.54514 0.04602 0.0
H1964 H 0.33982 0.51749 0.14078 0.0
H1965 H 0.31922 0.46813 0.12485 0.0
C1966 C 0.30605 0.45133 0.0672 0.0
C1967 C 0.30002 0.44578 0.03608 0.0
C1968 C 0.32132 0.47816 0.07625 0.0
C1969 C 0.3113 0.4662 0.01384 0.0
C1970 C 0.32648 0.49303 0.02267 0.0
C1971 C 0.34273 0.52814 0.06315 0.0
C1972 C 0.34524 0.5353 0.09451 0.0
C1973 C 0.33072 0.49971 0.05387 0.0
C1974 C 0.33785 0.51279 0.11644 0.0
C1975 C 0.32593 0.48452 0.1074 0.0
H1976 H 0.32336 0.55639 0.83491 0.0
H1977 H 0.29256 0.5708 0.74189 0.0
H1978 H 0.24595 0.59543 0.76067 0.0
H1979 H 0.21203 0.60934 0.80353 0.0
H1980 H 0.24306 0.59519 0.8966 0.0
H1981 H 0.29136 0.57431 0.87778 0.0
C1982 C 0.30663 0.56529 0.81877 0.0
C1983 C 0.31134 0.56155 0.78709 0.0
C1984 C 0.27972 0.57931 0.82972 0.0
C1985 C 0.28949 0.57331 0.76643 0.0
C1986 C 0.26273 0.58731 0.77714 0.0
C1987 C 0.22944 0.60191 0.8197 0.0
C1988 C 0.22367 0.60354 0.85142 0.0
C1989 C 0.25729 0.58985 0.80874 0.0
C1990 C 0.24671 0.59412 0.87204 0.0
C1991 C 0.2744 0.58208 0.86131 0.0
H1992 H 0.18291 0.55182 0.50636 0.0
H1993 H 0.23251 0.58185 0.58672 0.0
H1994 H 0.2101 0.5402 0.61667 0.0
H1995 H 0.18054 0.4924 0.61866 0.0
H1996 H 0.13388 0.46018 0.53736 0.0
H1997 H 0.15068 0.50562 0.50923 0.0
C1998 C 0.1884 0.54945 0.53053 0.0
C1999 C 0.20941 0.56964 0.5443 0.0
C2000 C 0.17611 0.52495 0.54739 0.0
C2001 C 0.21654 0.56634 0.57559 0.0
C2002 C 0.20375 0.54256 0.59272 0.0
C2003 C 0.1736 0.49563 0.59496 0.0
C2004 C 0.15619 0.47297 0.58004 0.0
C2005 C 0.18411 0.52129 0.57868 0.0
C2006 C 0.14754 0.47727 0.54924 0.0
C2007 C 0.15715 0.50319 0.53314 0.0
H2008 H 0.20912 0.55315 0.24057 0.0
H2009 H 0.16949 0.53009 0.15269 0.0
H2010 H 0.20841 0.56096 0.12675 0.0
H2011 H 0.25655 0.58968 0.12874 0.0
H2012 H 0.29824 0.61035 0.21634 0.0
H2013 H 0.25533 0.58565 0.2427 0.0
C2014 C 0.20873 0.55529 0.21577 0.0
C2015 C 0.18662 0.53919 0.19854 0.0
C2016 C 0.23163 0.57249 0.20096 0.0
C2017 C 0.18639 0.54213 0.16644 0.0
C2018 C 0.20866 0.55973 0.1516 0.0
C2019 C 0.2561 0.58927 0.15363 0.0
C2020 C 0.28082 0.60158 0.1705 0.0
C2021 C 0.23185 0.57431 0.16858 0.0
C2022 C 0.27967 0.60087 0.20275 0.0
C2023 C 0.25518 0.58664 0.21785 0.0
H2024 H 0.16879 0.46863 0.00276 0.0
H2025 H 0.1881 0.42292 0.91705 0.0
H2026 H 0.16829 0.46705 0.88869 0.0
H2027 H 0.15221 0.52104 0.88855 0.0
H2028 H 0.13524 0.56718 0.97466 0.0
H2029 H 0.14709 0.52025 0.00255 0.0
C2030 C 0.16818 0.4681 0.97787 0.0
C2031 C 0.18027 0.44283 0.96198 0.0
C2032 C 0.15747 0.49374 0.9618 0.0
C2033 C 0.17907 0.44227 0.92977 0.0
C2034 C 0.16789 0.46754 0.91356 0.0
C2035 C 0.15057 0.5207 0.91338 0.0
C2036 C 0.14343 0.54774 0.92951 0.0
C2037 C 0.15806 0.49381 0.92936 0.0
C2038 C 0.14117 0.54682 0.96169 0.0
C2039 C 0.14796 0.52 0.97769 0.0
H2040 H 0.32482 0.44554 0.67346 0.0
H2041 H 0.29049 0.43832 0.76604 0.0
H2042 H 0.24379 0.41369 0.74725 0.0
H2043 H 0.21042 0.39949 0.70415 0.0
H2044 H 0.24476 0.4068 0.61147 0.0
H2045 H 0.29382 0.42555 0.63075 0.0
C2046 C 0.3073 0.43817 0.68952 0.0
C2047 C 0.31089 0.44411 0.721 0.0
C2048 C 0.2804 0.42416 0.67856 0.0
C2049 C 0.28817 0.43416 0.74163 0.0
C2050 C 0.2614 0.42015 0.73092 0.0
C2051 C 0.22877 0.40475 0.68817 0.0
C2052 C 0.22365 0.40225 0.65641 0.0
C2053 C 0.2569 0.41584 0.69936 0.0
C2054 C 0.24789 0.40875 0.63606 0.0
C2055 C 0.27598 0.41962 0.64703 0.0
H2056 H 0.33941 0.55842 0.4828 0.0
H2057 H 0.2914 0.58126 0.39928 0.0
H2058 H 0.31619 0.53857 0.37277 0.0
H2059 H 0.34681 0.49157 0.37495 0.0
H2060 H 0.39143 0.46605 0.45961 0.0
H2061 H 0.37301 0.5131 0.48397 0.0
C2062 C 0.33487 0.55435 0.45865 0.0
C2063 C 0.31358 0.57281 0.443 0.0
C2064 C 0.34841 0.52913 0.44385 0.0
C2065 C 0.30761 0.56719 0.41181 0.0
C2066 C 0.32173 0.54278 0.39667 0.0
C2067 C 0.35304 0.49659 0.39854 0.0
C2068 C 0.37034 0.47532 0.41549 0.0
C2069 C 0.3415 0.5231 0.41268 0.0
C2070 C 0.37796 0.48202 0.44614 0.0
C2071 C 0.36739 0.50887 0.4601 0.0
H2072 H 0.33763 0.18994 0.44902 0.0
H2073 H 0.2462 0.22371 0.43134 0.0
H2074 H 0.26739 0.27096 0.41014 0.0
H2075 H 0.31167 0.30451 0.40082 0.0
H2076 H 0.40317 0.27075 0.41841 0.0
H2077 H 0.38216 0.2217 0.43521 0.0
C2078 C 0.32238 0.20746 0.4401 0.0
C2079 C 0.29043 0.20346 0.442 0.0
C2080 C 0.3347 0.23473 0.42819 0.0
C2081 C 0.27092 0.22628 0.43024 0.0
C2082 C 0.283 0.25338 0.41822 0.0
C2083 C 0.32702 0.28635 0.40814 0.0
C2084 C 0.35888 0.29147 0.40876 0.0
C2085 C 0.31482 0.25817 0.4178 0.0
C2086 C 0.37851 0.26752 0.41785 0.0
C2087 C 0.36653 0.23944 0.42753 0.0
H2088 H 0.75296 0.27315 0.54948 0.0
H2089 H 0.83786 0.32432 0.54842 0.0
H2090 H 0.86412 0.28199 0.57403 0.0
H2091 H 0.86402 0.22882 0.59181 0.0
H2092 H 0.77957 0.17673 0.59094 0.0
H2093 H 0.75198 0.22129 0.57129 0.0
C2094 C 0.77711 0.27521 0.55527 0.0
C2095 C 0.79354 0.30167 0.54684 0.0
C2096 C 0.79217 0.25057 0.5694 0.0
C2097 C 0.82478 0.30409 0.55452 0.0
C2098 C 0.83981 0.27987 0.56909 0.0
C2099 C 0.83951 0.22723 0.58766 0.0
C2100 C 0.82401 0.1993 0.59241 0.0
C2101 C 0.82391 0.25272 0.57586 0.0
C2102 C 0.79217 0.19784 0.58721 0.0
C2103 C 0.77636 0.2233 0.57591 0.0
H2104 H 0.4481 0.00224 0.31273 0.0
H2105 H 0.40823 0.09186 0.29974 0.0
H2106 H 0.45153 0.11537 0.32662 0.0
H2107 H 0.50291 0.11096 0.34882 0.0
H2108 H 0.5444 0.02165 0.35931 0.0
H2109 H 0.49804 0.99752 0.33879 0.0
C2110 C 0.44866 0.02687 0.31623 0.0
C2111 C 0.42509 0.04532 0.3041 0.0
C2112 C 0.47401 0.0403 0.33106 0.0
C2113 C 0.42616 0.07719 0.30873 0.0
C2114 C 0.45095 0.09065 0.32404 0.0
C2115 C 0.50174 0.08617 0.3471 0.0
C2116 C 0.52733 0.06821 0.35534 0.0
C2117 C 0.47536 0.0725 0.33457 0.0
C2118 C 0.5252 0.0361 0.35297 0.0
C2119 C 0.49871 0.02226 0.34114 0.0
H2120 H 0.67836 0.67624 0.05462 0.0
H2121 H 0.76745 0.71698 0.06979 0.0
H2122 H 0.74329 0.76324 0.09013 0.0
H2123 H 0.69687 0.79346 0.09993 0.0
H2124 H 0.60772 0.75256 0.08502 0.0
H2125 H 0.63194 0.70489 0.06855 0.0
C2126 C 0.69246 0.69513 0.06268 0.0
C2127 C 0.72458 0.69337 0.06046 0.0
C2128 C 0.67844 0.72166 0.07424 0.0
C2129 C 0.74264 0.71786 0.07121 0.0
C2130 C 0.72885 0.74435 0.08274 0.0
C2131 C 0.68273 0.77405 0.09328 0.0
C2132 C 0.65057 0.77671 0.09332 0.0
C2133 C 0.69677 0.74673 0.08377 0.0
C2134 C 0.63256 0.75119 0.08508 0.0
C2135 C 0.64637 0.72393 0.07556 0.0
H2136 H 0.57702 0.44237 0.28988 0.0
H2137 H 0.53773 0.53294 0.29642 0.0
H2138 H 0.49394 0.51237 0.32469 0.0
H2139 H 0.46519 0.46819 0.34455 0.0
H2140 H 0.50482 0.37761 0.33837 0.0
H2141 H 0.55017 0.39874 0.31342 0.0
C2142 C 0.55896 0.4576 0.2977 0.0
C2143 C 0.56045 0.48904 0.29084 0.0
C2144 C 0.53387 0.44564 0.314 0.0
C2145 C 0.53706 0.50859 0.30134 0.0
C2146 C 0.51198 0.49686 0.31747 0.0
C2147 C 0.48386 0.45309 0.33804 0.0
C2148 C 0.48135 0.42131 0.34306 0.0
C2149 C 0.5099 0.46534 0.3235 0.0
C2150 C 0.50597 0.40216 0.33471 0.0
C2151 C 0.53194 0.41419 0.32029 0.0
H2152 H 0.24812 0.80348 0.94743 0.0
H2153 H 0.16016 0.84832 0.95502 0.0
H2154 H 0.13557 0.80551 0.9284 0.0
H2155 H 0.1382 0.75314 0.90882 0.0
H2156 H 0.22557 0.70658 0.90435 0.0
H2157 H 0.25138 0.75257 0.92348 0.0
C2158 C 0.22366 0.8041 0.94276 0.0
C2159 C 0.20589 0.82881 0.95338 0.0
C2160 C 0.20957 0.77904 0.92825 0.0
C2161 C 0.17424 0.82938 0.94723 0.0
C2162 C 0.16018 0.80491 0.93208 0.0
C2163 C 0.16296 0.75311 0.91155 0.0
C2164 C 0.17986 0.72628 0.90561 0.0
C2165 C 0.17748 0.77924 0.92338 0.0
C2166 C 0.21196 0.72681 0.90908 0.0
C2167 C 0.22672 0.75307 0.92009 0.0
H2168 H 0.41969 0.92247 0.1957 0.0
H2169 H 0.45251 0.01389 0.17656 0.0
H2170 H 0.49945 0.99285 0.15434 0.0
H2171 H 0.53279 0.94867 0.14394 0.0
H2172 H 0.4998 0.85721 0.16305 0.0
H2173 H 0.4513 0.8781 0.18144 0.0
C2174 C 0.43696 0.93776 0.18632 0.0
C2175 C 0.43275 0.96967 0.18798 0.0
C2176 C 0.46398 0.92552 0.17377 0.0
C2177 C 0.45523 0.98921 0.17561 0.0
C2178 C 0.48214 0.97721 0.16301 0.0
C2179 C 0.51493 0.93329 0.15194 0.0
C2180 C 0.52013 0.90145 0.15244 0.0
C2181 C 0.48704 0.94543 0.16256 0.0
C2182 C 0.49653 0.88183 0.16251 0.0
C2183 C 0.46876 0.89375 0.17312 0.0
H2184 H 0.07164 0.08478 0.69205 0.0
H2185 H 0.04929 0.98911 0.67988 0.0
H2186 H 0.00136 0.00302 0.65433 0.0
H2187 H 0.96276 0.04237 0.64192 0.0
H2188 H 0.98564 0.13803 0.65433 0.0
H2189 H 0.03634 0.12407 0.67303 0.0
C2190 C 0.0566 0.06699 0.68319 0.0
C2191 C 0.06374 0.03602 0.68822 0.0
C2192 C 0.02889 0.07513 0.66896 0.0
C2193 C 0.04422 0.01317 0.67638 0.0
C2194 C 0.01668 0.0211 0.66198 0.0
C2195 C 0.97899 0.06015 0.64836 0.0
C2196 C 0.97013 0.09113 0.64729 0.0
C2197 C 0.00825 0.052 0.65921 0.0
C2198 C 0.99165 0.11394 0.65519 0.0
C2199 C 0.02071 0.10602 0.66597 0.0
loop_
_geom_bond_atom_site_label_1
_geom_bond_atom_site_label_2
_geom_bond_distance
_geom_bond_site_symmetry_2
_ccdc_geom_bond_type
In0 O1 2.318 . S
In0 O2 2.323 1_455 S
In0 O6 2.290 . S
In0 O7 2.322 1_455 S
In0 O8 2.243 1_455 S
In0 O9 2.330 . S
In0 O11 2.270 1_455 S
In0 O12 2.330 . S
O1 In0 2.318 . S
O1 C10 1.240 . S
O2 In0 2.323 1_655 S
O2 C10 1.252 1_655 S
C3 O6 1.252 . S
C3 O7 1.260 1_455 S
C4 O11 1.240 . S
C4 O12 1.252 1_655 S
C5 O8 1.252 . S
C5 O9 1.260 1_655 S
O6 In0 2.290 . S
O6 C3 1.252 . S
O7 In0 2.322 1_655 S
O7 C3 1.260 1_655 S
O8 In0 2.243 1_655 S
O8 C5 1.252 . S
O9 In0 2.330 . S
O9 C5 1.260 1_455 S
C10 O1 1.240 . S
C10 O2 1.252 1_455 S
O11 In0 2.270 1_655 S
O11 C4 1.240 . S
O12 In0 2.330 . S
O12 C4 1.252 1_455 S
In13 O14 2.294 1_455 S
In13 O15 2.326 1_455 S
In13 O19 2.266 . S
In13 O20 2.326 . S
In13 O21 2.266 1_455 S
In13 O22 2.326 1_455 S
In13 O24 2.294 . S
In13 O25 2.326 . S
O14 In13 2.294 1_655 S
O14 C23 1.240 . S
O15 In13 2.326 1_655 S
O15 C23 1.252 . S
C16 O19 1.252 . S
C16 O20 1.260 . S
C17 O24 1.240 . S
C17 O25 1.252 . S
C18 O21 1.252 . S
C18 O22 1.260 . S
O19 In13 2.266 . S
O19 C16 1.252 . S
O20 In13 2.326 . S
O20 C16 1.260 . S
O21 In13 2.266 1_655 S
O21 C18 1.252 . S
O22 In13 2.326 1_655 S
O22 C18 1.260 . S
C23 O14 1.240 . S
C23 O15 1.252 . S
O24 In13 2.294 . S
O24 C17 1.240 . S
O25 In13 2.326 . S
O25 C17 1.252 . S
In26 O27 2.294 . S
In26 O28 2.326 . S
In26 O32 2.266 . S
In26 O33 2.326 . S
In26 O34 2.266 . S
In26 O35 2.326 . S
In26 O37 2.294 . S
In26 O38 2.326 . S
O27 In26 2.294 . S
O27 C36 1.240 . S
O28 In26 2.326 . S
O28 C36 1.252 . S
C29 O32 1.252 . S
C29 O33 1.260 . S
C30 O37 1.240 . S
C30 O38 1.252 . S
C31 O34 1.252 . S
C31 O35 1.260 . S
O32 In26 2.266 . S
O32 C29 1.252 . S
O33 In26 2.326 . S
O33 C29 1.260 . S
O34 In26 2.266 . S
O34 C31 1.252 . S
O35 In26 2.326 . S
O35 C31 1.260 . S
C36 O27 1.240 . S
C36 O28 1.252 . S
O37 In26 2.294 . S
O37 C30 1.240 . S
O38 In26 2.326 . S
O38 C30 1.252 . S
In39 O40 2.294 . S
In39 O41 2.326 . S
In39 O45 2.266 . S
In39 O46 2.326 . S
In39 O47 2.266 . S
In39 O48 2.326 . S
In39 O50 2.294 . S
In39 O51 2.326 . S
O40 In39 2.294 . S
O40 C49 1.240 . S
O41 In39 2.326 . S
O41 C49 1.252 . S
C42 O45 1.252 . S
C42 O46 1.260 . S
C43 O50 1.240 . S
C43 O51 1.252 . S
C44 O47 1.252 . S
C44 O48 1.260 . S
O45 In39 2.266 . S
O45 C42 1.252 . S
O46 In39 2.326 . S
O46 C42 1.260 . S
O47 In39 2.266 . S
O47 C44 1.252 . S
O48 In39 2.326 . S
O48 C44 1.260 . S
C49 O40 1.240 . S
C49 O41 1.252 . S
O50 In39 2.294 . S
O50 C43 1.240 . S
O51 In39 2.326 . S
O51 C43 1.252 . S
In52 O53 2.282 1_455 S
In52 O54 2.328 . S
In52 O58 2.255 1_455 S
In52 O59 2.327 . S
In52 O60 2.278 . S
In52 O61 2.324 1_455 S
In52 O63 2.306 . S
In52 O64 2.325 1_455 S
O53 In52 2.282 1_655 S
O53 C62 1.240 . S
O54 In52 2.328 . S
O54 C62 1.252 1_455 S
C55 O58 1.252 . S
C55 O59 1.260 1_655 S
C56 O63 1.240 . S
C56 O64 1.252 1_455 S
C57 O60 1.252 . S
C57 O61 1.260 1_455 S
O58 In52 2.255 1_655 S
O58 C55 1.252 . S
O59 In52 2.327 . S
O59 C55 1.260 1_455 S
O60 In52 2.278 . S
O60 C57 1.252 . S
O61 In52 2.324 1_655 S
O61 C57 1.260 1_655 S
C62 O53 1.240 . S
C62 O54 1.252 1_655 S
O63 In52 2.306 . S
O63 C56 1.240 . S
O64 In52 2.325 1_655 S
O64 C56 1.252 1_655 S
In65 O66 2.294 . S
In65 O67 2.326 . S
In65 O71 2.266 . S
In65 O72 2.326 . S
In65 O73 2.266 . S
In65 O74 2.326 . S
In65 O76 2.294 . S
In65 O77 2.326 . S
O66 In65 2.294 . S
O66 C75 1.240 . S
O67 In65 2.326 . S
O67 C75 1.252 . S
C68 O71 1.252 . S
C68 O72 1.260 . S
C69 O76 1.240 . S
C69 O77 1.252 . S
C70 O73 1.252 . S
C70 O74 1.260 . S
O71 In65 2.266 . S
O71 C68 1.252 . S
O72 In65 2.326 . S
O72 C68 1.260 . S
O73 In65 2.266 . S
O73 C70 1.252 . S
O74 In65 2.326 . S
O74 C70 1.260 . S
C75 O66 1.240 . S
C75 O67 1.252 . S
O76 In65 2.294 . S
O76 C69 1.240 . S
O77 In65 2.326 . S
O77 C69 1.252 . S
In78 O79 2.294 . S
In78 O80 2.326 . S
In78 O84 2.266 . S
In78 O85 2.326 . S
In78 O86 2.266 . S
In78 O87 2.326 . S
In78 O89 2.294 . S
In78 O90 2.326 . S
O79 In78 2.294 . S
O79 C88 1.240 . S
O80 In78 2.326 . S
O80 C88 1.252 . S
C81 O84 1.252 . S
C81 O85 1.260 . S
C82 O89 1.240 . S
C82 O90 1.252 . S
C83 O86 1.252 . S
C83 O87 1.260 . S
O84 In78 2.266 . S
O84 C81 1.252 . S
O85 In78 2.326 . S
O85 C81 1.260 . S
O86 In78 2.266 . S
O86 C83 1.252 . S
O87 In78 2.326 . S
O87 C83 1.260 . S
C88 O79 1.240 . S
C88 O80 1.252 . S
O89 In78 2.294 . S
O89 C82 1.240 . S
O90 In78 2.326 . S
O90 C82 1.252 . S
In91 O92 2.298 . S
In91 O93 2.333 . S
In91 O97 2.262 1_455 S
In91 O98 2.318 1_455 S
In91 O99 2.270 . S
In91 O100 2.333 . S
In91 O102 2.290 1_455 S
In91 O103 2.319 1_455 S
O92 In91 2.298 . S
O92 C101 1.240 . S
O93 In91 2.333 . S
O93 C101 1.252 . S
C94 O97 1.252 . S
C94 O98 1.260 . S
C95 O102 1.240 . S
C95 O103 1.252 . S
C96 O99 1.252 . S
C96 O100 1.260 . S
O97 In91 2.262 1_655 S
O97 C94 1.252 . S
O98 In91 2.318 1_655 S
O98 C94 1.260 . S
O99 In91 2.270 . S
O99 C96 1.252 . S
O100 In91 2.333 . S
O100 C96 1.260 . S
C101 O92 1.240 . S
C101 O93 1.252 . S
O102 In91 2.290 1_655 S
O102 C95 1.240 . S
O103 In91 2.319 1_655 S
O103 C95 1.252 . S
In104 O105 2.294 1_545 S
In104 O106 2.326 . S
In104 O110 2.266 1_545 S
In104 O111 2.326 . S
In104 O112 2.266 . S
In104 O113 2.326 1_545 S
In104 O115 2.294 . S
In104 O116 2.326 1_545 S
O105 In104 2.294 1_565 S
O105 C114 1.240 . S
O106 In104 2.326 . S
O106 C114 1.252 1_545 S
C107 O110 1.252 . S
C107 O111 1.260 1_565 S
C108 O115 1.240 . S
C108 O116 1.252 1_545 S
C109 O112 1.252 . S
C109 O113 1.260 1_545 S
O110 In104 2.266 1_565 S
O110 C107 1.252 . S
O111 In104 2.326 . S
O111 C107 1.260 1_545 S
O112 In104 2.266 . S
O112 C109 1.252 . S
O113 In104 2.326 1_565 S
O113 C109 1.260 1_565 S
C114 O105 1.240 . S
C114 O106 1.252 1_565 S
O115 In104 2.294 . S
O115 C108 1.240 . S
O116 In104 2.326 1_565 S
O116 C108 1.252 1_565 S
In117 O118 2.294 . S
In117 O119 2.326 . S
In117 O123 2.266 . S
In117 O124 2.326 . S
In117 O125 2.266 . S
In117 O126 2.326 . S
In117 O128 2.294 . S
In117 O129 2.326 . S
O118 In117 2.294 . S
O118 C127 1.240 . S
O119 In117 2.326 . S
O119 C127 1.252 . S
C120 O123 1.252 . S
C120 O124 1.260 . S
C121 O128 1.240 . S
C121 O129 1.252 . S
C122 O125 1.252 . S
C122 O126 1.260 . S
O123 In117 2.266 . S
O123 C120 1.252 . S
O124 In117 2.326 . S
O124 C120 1.260 . S
O125 In117 2.266 . S
O125 C122 1.252 . S
O126 In117 2.326 . S
O126 C122 1.260 . S
C127 O118 1.240 . S
C127 O119 1.252 . S
O128 In117 2.294 . S
O128 C121 1.240 . S
O129 In117 2.326 . S
O129 C121 1.252 . S
In130 O131 2.294 1_545 S
In130 O132 2.326 . S
In130 O136 2.266 1_545 S
In130 O137 2.326 . S
In130 O138 2.266 . S
In130 O139 2.326 1_545 S
In130 O141 2.294 . S
In130 O142 2.326 1_545 S
O131 In130 2.294 1_565 S
O131 C140 1.240 . S
O132 In130 2.326 . S
O132 C140 1.252 1_545 S
C133 O136 1.252 . S
C133 O137 1.260 1_565 S
C134 O141 1.240 . S
C134 O142 1.252 1_545 S
C135 O138 1.252 . S
C135 O139 1.260 1_545 S
O136 In130 2.266 1_565 S
O136 C133 1.252 . S
O137 In130 2.326 . S
O137 C133 1.260 1_545 S
O138 In130 2.266 . S
O138 C135 1.252 . S
O139 In130 2.326 1_565 S
O139 C135 1.260 1_565 S
C140 O131 1.240 . S
C140 O132 1.252 1_565 S
O141 In130 2.294 . S
O141 C134 1.240 . S
O142 In130 2.326 1_565 S
O142 C134 1.252 1_565 S
In143 O144 2.294 . S
In143 O145 2.326 . S
In143 O149 2.266 1_554 S
In143 O150 2.326 1_554 S
In143 O151 2.266 . S
In143 O152 2.326 . S
In143 O154 2.294 1_554 S
In143 O155 2.326 1_554 S
O144 In143 2.294 . S
O144 C153 1.240 . S
O145 In143 2.326 . S
O145 C153 1.252 . S
C146 O149 1.252 . S
C146 O150 1.260 . S
C147 O154 1.240 . S
C147 O155 1.252 . S
C148 O151 1.252 . S
C148 O152 1.260 . S
O149 In143 2.266 1_556 S
O149 C146 1.252 . S
O150 In143 2.326 1_556 S
O150 C146 1.260 . S
O151 In143 2.266 . S
O151 C148 1.252 . S
O152 In143 2.326 . S
O152 C148 1.260 . S
C153 O144 1.240 . S
C153 O145 1.252 . S
O154 In143 2.294 1_556 S
O154 C147 1.240 . S
O155 In143 2.326 1_556 S
O155 C147 1.252 . S
In156 O157 2.281 1_554 S
In156 O158 2.328 . S
In156 O162 2.253 1_554 S
In156 O163 2.328 . S
In156 O164 2.279 . S
In156 O165 2.323 1_554 S
In156 O167 2.307 . S
In156 O168 2.324 1_554 S
O157 In156 2.281 1_556 S
O157 C166 1.240 . S
O158 In156 2.328 . S
O158 C166 1.252 1_554 S
C159 O162 1.252 . S
C159 O163 1.260 1_556 S
C160 O167 1.240 . S
C160 O168 1.252 1_554 S
C161 O164 1.252 . S
C161 O165 1.260 1_554 S
O162 In156 2.253 1_556 S
O162 C159 1.252 . S
O163 In156 2.328 . S
O163 C159 1.260 1_554 S
O164 In156 2.279 . S
O164 C161 1.252 . S
O165 In156 2.323 1_556 S
O165 C161 1.260 1_556 S
C166 O157 1.240 . S
C166 O158 1.252 1_556 S
O167 In156 2.307 . S
O167 C160 1.240 . S
O168 In156 2.324 1_556 S
O168 C160 1.252 1_556 S
In169 O170 2.296 . S
In169 O171 2.326 1_554 S
In169 O175 2.268 . S
In169 O176 2.325 1_554 S
In169 O177 2.264 1_554 S
In169 O178 2.326 . S
In169 O180 2.292 1_554 S
In169 O181 2.327 . S
O170 In169 2.296 . S
O170 C179 1.240 . S
O171 In169 2.326 1_556 S
O171 C179 1.252 1_556 S
C172 O175 1.252 . S
C172 O176 1.260 1_554 S
C173 O180 1.240 . S
C173 O181 1.252 1_556 S
C174 O177 1.252 . S
C174 O178 1.260 1_556 S
O175 In169 2.268 . S
O175 C172 1.252 . S
O176 In169 2.325 1_556 S
O176 C172 1.260 1_556 S
O177 In169 2.264 1_556 S
O177 C174 1.252 . S
O178 In169 2.326 . S
O178 C174 1.260 1_554 S
C179 O170 1.240 . S
C179 O171 1.252 1_554 S
O180 In169 2.292 1_556 S
O180 C173 1.240 . S
O181 In169 2.327 . S
O181 C173 1.252 1_554 S
In182 O183 2.294 . S
In182 O184 2.326 . S
In182 O188 2.266 . S
In182 O189 2.326 . S
In182 O190 2.266 . S
In182 O191 2.326 . S
In182 O193 2.294 . S
In182 O194 2.326 . S
O183 In182 2.294 . S
O183 C192 1.240 . S
O184 In182 2.326 . S
O184 C192 1.252 . S
C185 O188 1.252 . S
C185 O189 1.260 . S
C186 O193 1.240 . S
C186 O194 1.252 . S
C187 O190 1.252 . S
C187 O191 1.260 . S
O188 In182 2.266 . S
O188 C185 1.252 . S
O189 In182 2.326 . S
O189 C185 1.260 . S
O190 In182 2.266 . S
O190 C187 1.252 . S
O191 In182 2.326 . S
O191 C187 1.260 . S
C192 O183 1.240 . S
C192 O184 1.252 . S
O193 In182 2.294 . S
O193 C186 1.240 . S
O194 In182 2.326 . S
O194 C186 1.252 . S
In195 O196 2.294 . S
In195 O197 2.326 . S
In195 O201 2.266 . S
In195 O202 2.326 . S
In195 O203 2.266 . S
In195 O204 2.326 . S
In195 O206 2.294 . S
In195 O207 2.326 . S
O196 In195 2.294 . S
O196 C205 1.240 . S
O197 In195 2.326 . S
O197 C205 1.252 . S
C198 O201 1.252 . S
C198 O202 1.260 . S
C199 O206 1.240 . S
C199 O207 1.252 . S
C200 O203 1.252 . S
C200 O204 1.260 . S
O201 In195 2.266 . S
O201 C198 1.252 . S
O202 In195 2.326 . S
O202 C198 1.260 . S
O203 In195 2.266 . S
O203 C200 1.252 . S
O204 In195 2.326 . S
O204 C200 1.260 . S
C205 O196 1.240 . S
C205 O197 1.252 . S
O206 In195 2.294 . S
O206 C199 1.240 . S
O207 In195 2.326 . S
O207 C199 1.252 . S
In208 O209 2.294 1_545 S
In208 O210 2.326 1_545 S
In208 O214 2.266 . S
In208 O215 2.326 . S
In208 O216 2.266 1_545 S
In208 O217 2.326 1_545 S
In208 O219 2.294 . S
In208 O220 2.326 . S
O209 In208 2.294 1_565 S
O209 C218 1.240 . S
O210 In208 2.326 1_565 S
O210 C218 1.252 . S
C211 O214 1.252 . S
C211 O215 1.260 . S
C212 O219 1.240 . S
C212 O220 1.252 . S
C213 O216 1.252 . S
C213 O217 1.260 . S
O214 In208 2.266 . S
O214 C211 1.252 . S
O215 In208 2.326 . S
O215 C211 1.260 . S
O216 In208 2.266 1_565 S
O216 C213 1.252 . S
O217 In208 2.326 1_565 S
O217 C213 1.260 . S
C218 O209 1.240 . S
C218 O210 1.252 . S
O219 In208 2.294 . S
O219 C212 1.240 . S
O220 In208 2.326 . S
O220 C212 1.252 . S
In221 O222 2.294 . S
In221 O223 2.326 . S
In221 O227 2.266 . S
In221 O228 2.326 . S
In221 O229 2.266 . S
In221 O230 2.326 . S
In221 O232 2.294 . S
In221 O233 2.326 . S
O222 In221 2.294 . S
O222 C231 1.240 . S
O223 In221 2.326 . S
O223 C231 1.252 . S
C224 O227 1.252 . S
C224 O228 1.260 . S
C225 O232 1.240 . S
C225 O233 1.252 . S
C226 O229 1.252 . S
C226 O230 1.260 . S
O227 In221 2.266 . S
O227 C224 1.252 . S
O228 In221 2.326 . S
O228 C224 1.260 . S
O229 In221 2.266 . S
O229 C226 1.252 . S
O230 In221 2.326 . S
O230 C226 1.260 . S
C231 O222 1.240 . S
C231 O223 1.252 . S
O232 In221 2.294 . S
O232 C225 1.240 . S
O233 In221 2.326 . S
O233 C225 1.252 . S
In234 O235 2.294 . S
In234 O236 2.326 . S
In234 O240 2.266 . S
In234 O241 2.326 . S
In234 O242 2.266 . S
In234 O243 2.326 . S
In234 O245 2.294 . S
In234 O246 2.326 . S
O235 In234 2.294 . S
O235 C244 1.240 . S
O236 In234 2.326 . S
O236 C244 1.252 . S
C237 O240 1.252 . S
C237 O241 1.260 . S
C238 O245 1.240 . S
C238 O246 1.252 . S
C239 O242 1.252 . S
C239 O243 1.260 . S
O240 In234 2.266 . S
O240 C237 1.252 . S
O241 In234 2.326 . S
O241 C237 1.260 . S
O242 In234 2.266 . S
O242 C239 1.252 . S
O243 In234 2.326 . S
O243 C239 1.260 . S
C244 O235 1.240 . S
C244 O236 1.252 . S
O245 In234 2.294 . S
O245 C238 1.240 . S
O246 In234 2.326 . S
O246 C238 1.252 . S
In247 O248 2.294 1_545 S
In247 O249 2.326 1_545 S
In247 O253 2.266 . S
In247 O254 2.326 . S
In247 O255 2.266 1_545 S
In247 O256 2.326 1_545 S
In247 O258 2.294 . S
In247 O259 2.326 . S
O248 In247 2.294 1_565 S
O248 C257 1.240 . S
O249 In247 2.326 1_565 S
O249 C257 1.252 . S
C250 O253 1.252 . S
C250 O254 1.260 . S
C251 O258 1.240 . S
C251 O259 1.252 . S
C252 O255 1.252 . S
C252 O256 1.260 . S
O253 In247 2.266 . S
O253 C250 1.252 . S
O254 In247 2.326 . S
O254 C250 1.260 . S
O255 In247 2.266 1_565 S
O255 C252 1.252 . S
O256 In247 2.326 1_565 S
O256 C252 1.260 . S
C257 O248 1.240 . S
C257 O249 1.252 . S
O258 In247 2.294 . S
O258 C251 1.240 . S
O259 In247 2.326 . S
O259 C251 1.252 . S
In260 O261 2.294 . S
In260 O262 2.326 . S
In260 O266 2.266 1_554 S
In260 O267 2.326 1_554 S
In260 O268 2.266 . S
In260 O269 2.326 . S
In260 O271 2.294 1_554 S
In260 O272 2.326 1_554 S
O261 In260 2.294 . S
O261 C270 1.240 . S
O262 In260 2.326 . S
O262 C270 1.252 . S
C263 O266 1.252 . S
C263 O267 1.260 . S
C264 O271 1.240 . S
C264 O272 1.252 . S
C265 O268 1.252 . S
C265 O269 1.260 . S
O266 In260 2.266 1_556 S
O266 C263 1.252 . S
O267 In260 2.326 1_556 S
O267 C263 1.260 . S
O268 In260 2.266 . S
O268 C265 1.252 . S
O269 In260 2.326 . S
O269 C265 1.260 . S
C270 O261 1.240 . S
C270 O262 1.252 . S
O271 In260 2.294 1_556 S
O271 C264 1.240 . S
O272 In260 2.326 1_556 S
O272 C264 1.252 . S
In273 O274 2.294 . S
In273 O275 2.326 . S
In273 O279 2.266 . S
In273 O280 2.326 . S
In273 O281 2.266 . S
In273 O282 2.326 . S
In273 O284 2.294 . S
In273 O285 2.326 . S
O274 In273 2.294 . S
O274 C283 1.240 . S
O275 In273 2.326 . S
O275 C283 1.252 . S
C276 O279 1.252 . S
C276 O280 1.260 . S
C277 O284 1.240 . S
C277 O285 1.252 . S
C278 O281 1.252 . S
C278 O282 1.260 . S
O279 In273 2.266 . S
O279 C276 1.252 . S
O280 In273 2.326 . S
O280 C276 1.260 . S
O281 In273 2.266 . S
O281 C278 1.252 . S
O282 In273 2.326 . S
O282 C278 1.260 . S
C283 O274 1.240 . S
C283 O275 1.252 . S
O284 In273 2.294 . S
O284 C277 1.240 . S
O285 In273 2.326 . S
O285 C277 1.252 . S
In286 O287 2.294 . S
In286 O288 2.326 . S
In286 O292 2.266 . S
In286 O293 2.326 . S
In286 O294 2.266 . S
In286 O295 2.326 . S
In286 O297 2.294 . S
In286 O298 2.326 . S
O287 In286 2.294 . S
O287 C296 1.240 . S
O288 In286 2.326 . S
O288 C296 1.252 . S
C289 O292 1.252 . S
C289 O293 1.260 . S
C290 O297 1.240 . S
C290 O298 1.252 . S
C291 O294 1.252 . S
C291 O295 1.260 . S
O292 In286 2.266 . S
O292 C289 1.252 . S
O293 In286 2.326 . S
O293 C289 1.260 . S
O294 In286 2.266 . S
O294 C291 1.252 . S
O295 In286 2.326 . S
O295 C291 1.260 . S
C296 O287 1.240 . S
C296 O288 1.252 . S
O297 In286 2.294 . S
O297 C290 1.240 . S
O298 In286 2.326 . S
O298 C290 1.252 . S
In299 O300 2.294 . S
In299 O301 2.326 . S
In299 O305 2.266 . S
In299 O306 2.326 . S
In299 O307 2.266 . S
In299 O308 2.326 . S
In299 O310 2.294 . S
In299 O311 2.326 . S
O300 In299 2.294 . S
O300 C309 1.240 . S
O301 In299 2.326 . S
O301 C309 1.252 . S
C302 O305 1.252 . S
C302 O306 1.260 . S
C303 O310 1.240 . S
C303 O311 1.252 . S
C304 O307 1.252 . S
C304 O308 1.260 . S
O305 In299 2.266 . S
O305 C302 1.252 . S
O306 In299 2.326 . S
O306 C302 1.260 . S
O307 In299 2.266 . S
O307 C304 1.252 . S
O308 In299 2.326 . S
O308 C304 1.260 . S
C309 O300 1.240 . S
C309 O301 1.252 . S
O310 In299 2.294 . S
O310 C303 1.240 . S
O311 In299 2.326 . S
O311 C303 1.252 . S
Fe312 O314 1.918 . S
Fe312 O317 1.997 . S
Fe312 O318 2.002 . S
Fe312 O323 1.976 . S
Fe312 O326 1.996 . S
Fe313 O314 1.918 . S
Fe313 O321 1.997 . S
Fe313 O324 1.996 . S
Fe313 O328 1.976 . S
Fe313 O331 2.002 . S
O314 Fe312 1.918 . S
O314 Fe313 1.918 . S
O314 Fe315 1.918 . S
Fe315 O314 1.918 . S
Fe315 O316 2.002 . S
Fe315 O325 1.976 . S
Fe315 O329 1.996 . S
Fe315 O332 1.997 . S
O316 Fe315 2.002 . S
O316 C333 1.295 . S
O317 Fe312 1.997 . S
O317 C333 1.235 . S
O318 Fe312 2.002 . S
O318 C319 1.295 . S
C319 O318 1.295 . S
C319 O321 1.235 . S
C320 O325 1.287 . S
C320 O326 1.255 . S
O321 Fe313 1.997 . S
O321 C319 1.235 . S
C322 O328 1.287 . S
C322 O329 1.255 . S
O323 Fe312 1.976 . S
O323 C330 1.287 . S
O324 Fe313 1.996 . S
O324 C330 1.255 . S
O325 Fe315 1.976 . S
O325 C320 1.287 . S
O326 Fe312 1.996 . S
O326 C320 1.255 . S
C327 O331 1.295 . S
C327 O332 1.235 . S
O328 Fe313 1.976 . S
O328 C322 1.287 . S
O329 Fe315 1.996 . S
O329 C322 1.255 . S
C330 O323 1.287 . S
C330 O324 1.255 . S
O331 Fe313 2.002 . S
O331 C327 1.295 . S
O332 Fe315 1.997 . S
O332 C327 1.235 . S
C333 O316 1.295 . S
C333 O317 1.235 . S
Fe334 O336 1.918 . S
Fe334 O339 1.997 . S
Fe334 O340 2.002 . S
Fe334 O345 1.976 . S
Fe334 O348 1.996 . S
Fe335 O336 1.918 . S
Fe335 O343 1.997 . S
Fe335 O346 1.996 . S
Fe335 O350 1.976 . S
Fe335 O353 2.002 . S
O336 Fe334 1.918 . S
O336 Fe335 1.918 . S
O336 Fe337 1.918 . S
Fe337 O336 1.918 . S
Fe337 O338 2.002 . S
Fe337 O347 1.976 . S
Fe337 O351 1.996 . S
Fe337 O354 1.997 . S
O338 Fe337 2.002 . S
O338 C355 1.295 . S
O339 Fe334 1.997 . S
O339 C355 1.235 . S
O340 Fe334 2.002 . S
O340 C341 1.295 . S
C341 O340 1.295 . S
C341 O343 1.235 . S
C342 O347 1.287 . S
C342 O348 1.255 . S
O343 Fe335 1.997 . S
O343 C341 1.235 . S
C344 O350 1.287 . S
C344 O351 1.255 . S
O345 Fe334 1.976 . S
O345 C352 1.287 . S
O346 Fe335 1.996 . S
O346 C352 1.255 . S
O347 Fe337 1.976 . S
O347 C342 1.287 . S
O348 Fe334 1.996 . S
O348 C342 1.255 . S
C349 O353 1.295 . S
C349 O354 1.235 . S
O350 Fe335 1.976 . S
O350 C344 1.287 . S
O351 Fe337 1.996 . S
O351 C344 1.255 . S
C352 O345 1.287 . S
C352 O346 1.255 . S
O353 Fe335 2.002 . S
O353 C349 1.295 . S
O354 Fe337 1.997 . S
O354 C349 1.235 . S
C355 O338 1.295 . S
C355 O339 1.235 . S
Fe356 O358 1.918 . S
Fe356 O361 1.997 . S
Fe356 O362 2.002 . S
Fe356 O367 1.976 . S
Fe356 O370 1.996 . S
Fe357 O358 1.918 . S
Fe357 O365 1.997 . S
Fe357 O368 1.996 . S
Fe357 O372 1.976 . S
Fe357 O375 2.002 . S
O358 Fe356 1.918 . S
O358 Fe357 1.918 . S
O358 Fe359 1.918 . S
Fe359 O358 1.918 . S
Fe359 O360 2.002 . S
Fe359 O369 1.976 . S
Fe359 O373 1.996 . S
Fe359 O376 1.997 . S
O360 Fe359 2.002 . S
O360 C377 1.295 . S
O361 Fe356 1.997 . S
O361 C377 1.235 . S
O362 Fe356 2.002 . S
O362 C363 1.295 . S
C363 O362 1.295 . S
C363 O365 1.235 . S
C364 O369 1.287 . S
C364 O370 1.255 . S
O365 Fe357 1.997 . S
O365 C363 1.235 . S
C366 O372 1.287 . S
C366 O373 1.255 . S
O367 Fe356 1.976 . S
O367 C374 1.287 . S
O368 Fe357 1.996 . S
O368 C374 1.255 . S
O369 Fe359 1.976 . S
O369 C364 1.287 . S
O370 Fe356 1.996 . S
O370 C364 1.255 . S
C371 O375 1.295 . S
C371 O376 1.235 . S
O372 Fe357 1.976 . S
O372 C366 1.287 . S
O373 Fe359 1.996 . S
O373 C366 1.255 . S
C374 O367 1.287 . S
C374 O368 1.255 . S
O375 Fe357 2.002 . S
O375 C371 1.295 . S
O376 Fe359 1.997 . S
O376 C371 1.235 . S
C377 O360 1.295 . S
C377 O361 1.235 . S
Fe378 O380 1.918 . S
Fe378 O383 1.997 . S
Fe378 O384 2.002 . S
Fe378 O389 1.976 . S
Fe378 O392 1.996 . S
Fe379 O380 1.918 . S
Fe379 O387 1.997 . S
Fe379 O390 1.996 . S
Fe379 O394 1.976 . S
Fe379 O397 2.002 . S
O380 Fe378 1.918 . S
O380 Fe379 1.918 . S
O380 Fe381 1.918 . S
Fe381 O380 1.918 . S
Fe381 O382 2.002 . S
Fe381 O391 1.976 . S
Fe381 O395 1.996 . S
Fe381 O398 1.997 . S
O382 Fe381 2.002 . S
O382 C399 1.295 . S
O383 Fe378 1.997 . S
O383 C399 1.235 . S
O384 Fe378 2.002 . S
O384 C385 1.295 . S
C385 O384 1.295 . S
C385 O387 1.235 . S
C386 O391 1.287 . S
C386 O392 1.255 . S
O387 Fe379 1.997 . S
O387 C385 1.235 . S
C388 O394 1.287 . S
C388 O395 1.255 . S
O389 Fe378 1.976 . S
O389 C396 1.287 . S
O390 Fe379 1.996 . S
O390 C396 1.255 . S
O391 Fe381 1.976 . S
O391 C386 1.287 . S
O392 Fe378 1.996 . S
O392 C386 1.255 . S
C393 O397 1.295 . S
C393 O398 1.235 . S
O394 Fe379 1.976 . S
O394 C388 1.287 . S
O395 Fe381 1.996 . S
O395 C388 1.255 . S
C396 O389 1.287 . S
C396 O390 1.255 . S
O397 Fe379 2.002 . S
O397 C393 1.295 . S
O398 Fe381 1.997 . S
O398 C393 1.235 . S
C399 O382 1.295 . S
C399 O383 1.235 . S
Fe400 O402 1.918 . S
Fe400 O405 1.997 . S
Fe400 O406 2.002 . S
Fe400 O411 1.976 . S
Fe400 O414 1.996 . S
Fe401 O402 1.918 . S
Fe401 O409 1.997 . S
Fe401 O412 1.996 . S
Fe401 O416 1.976 . S
Fe401 O419 2.002 . S
O402 Fe400 1.918 . S
O402 Fe401 1.918 . S
O402 Fe403 1.918 . S
Fe403 O402 1.918 . S
Fe403 O404 2.002 . S
Fe403 O413 1.976 . S
Fe403 O417 1.996 . S
Fe403 O420 1.997 . S
O404 Fe403 2.002 . S
O404 C421 1.295 . S
O405 Fe400 1.997 . S
O405 C421 1.235 . S
O406 Fe400 2.002 . S
O406 C407 1.295 . S
C407 O406 1.295 . S
C407 O409 1.235 . S
C408 O413 1.287 . S
C408 O414 1.255 . S
O409 Fe401 1.997 . S
O409 C407 1.235 . S
C410 O416 1.287 . S
C410 O417 1.255 . S
O411 Fe400 1.976 . S
O411 C418 1.287 . S
O412 Fe401 1.996 . S
O412 C418 1.255 . S
O413 Fe403 1.976 . S
O413 C408 1.287 . S
O414 Fe400 1.996 . S
O414 C408 1.255 . S
C415 O419 1.295 . S
C415 O420 1.235 . S
O416 Fe401 1.976 . S
O416 C410 1.287 . S
O417 Fe403 1.996 . S
O417 C410 1.255 . S
C418 O411 1.287 . S
C418 O412 1.255 . S
O419 Fe401 2.002 . S
O419 C415 1.295 . S
O420 Fe403 1.997 . S
O420 C415 1.235 . S
C421 O404 1.295 . S
C421 O405 1.235 . S
Fe422 O424 1.918 . S
Fe422 O427 1.997 . S
Fe422 O428 2.002 . S
Fe422 O433 1.976 . S
Fe422 O436 1.996 . S
Fe423 O424 1.918 . S
Fe423 O431 1.997 . S
Fe423 O434 1.996 . S
Fe423 O438 1.976 . S
Fe423 O441 2.002 . S
O424 Fe422 1.918 . S
O424 Fe423 1.918 . S
O424 Fe425 1.918 . S
Fe425 O424 1.918 . S
Fe425 O426 2.002 . S
Fe425 O435 1.976 . S
Fe425 O439 1.996 . S
Fe425 O442 1.997 . S
O426 Fe425 2.002 . S
O426 C443 1.295 . S
O427 Fe422 1.997 . S
O427 C443 1.235 . S
O428 Fe422 2.002 . S
O428 C429 1.295 . S
C429 O428 1.295 . S
C429 O431 1.235 . S
C430 O435 1.287 . S
C430 O436 1.255 . S
O431 Fe423 1.997 . S
O431 C429 1.235 . S
C432 O438 1.287 . S
C432 O439 1.255 . S
O433 Fe422 1.976 . S
O433 C440 1.287 . S
O434 Fe423 1.996 . S
O434 C440 1.255 . S
O435 Fe425 1.976 . S
O435 C430 1.287 . S
O436 Fe422 1.996 . S
O436 C430 1.255 . S
C437 O441 1.295 . S
C437 O442 1.235 . S
O438 Fe423 1.976 . S
O438 C432 1.287 . S
O439 Fe425 1.996 . S
O439 C432 1.255 . S
C440 O433 1.287 . S
C440 O434 1.255 . S
O441 Fe423 2.002 . S
O441 C437 1.295 . S
O442 Fe425 1.997 . S
O442 C437 1.235 . S
C443 O426 1.295 . S
C443 O427 1.235 . S
Fe444 O446 1.918 . S
Fe444 O449 1.997 . S
Fe444 O450 2.002 . S
Fe444 O455 1.976 . S
Fe444 O458 1.996 . S
Fe445 O446 1.918 . S
Fe445 O453 1.997 . S
Fe445 O456 1.996 . S
Fe445 O460 1.976 . S
Fe445 O463 2.002 . S
O446 Fe444 1.918 . S
O446 Fe445 1.918 . S
O446 Fe447 1.918 . S
Fe447 O446 1.918 . S
Fe447 O448 2.002 . S
Fe447 O457 1.976 . S
Fe447 O461 1.996 . S
Fe447 O464 1.997 . S
O448 Fe447 2.002 . S
O448 C465 1.295 . S
O449 Fe444 1.997 . S
O449 C465 1.235 . S
O450 Fe444 2.002 . S
O450 C451 1.295 . S
C451 O450 1.295 . S
C451 O453 1.235 . S
C452 O457 1.287 . S
C452 O458 1.255 . S
O453 Fe445 1.997 . S
O453 C451 1.235 . S
C454 O460 1.287 . S
C454 O461 1.255 . S
O455 Fe444 1.976 . S
O455 C462 1.287 . S
O456 Fe445 1.996 . S
O456 C462 1.255 . S
O457 Fe447 1.976 . S
O457 C452 1.287 . S
O458 Fe444 1.996 . S
O458 C452 1.255 . S
C459 O463 1.295 . S
C459 O464 1.235 . S
O460 Fe445 1.976 . S
O460 C454 1.287 . S
O461 Fe447 1.996 . S
O461 C454 1.255 . S
C462 O455 1.287 . S
C462 O456 1.255 . S
O463 Fe445 2.002 . S
O463 C459 1.295 . S
O464 Fe447 1.997 . S
O464 C459 1.235 . S
C465 O448 1.295 . S
C465 O449 1.235 . S
Fe466 O468 1.918 . S
Fe466 O471 1.997 . S
Fe466 O472 2.002 . S
Fe466 O477 1.976 . S
Fe466 O480 1.996 . S
Fe467 O468 1.918 . S
Fe467 O475 1.997 . S
Fe467 O478 1.996 . S
Fe467 O482 1.976 . S
Fe467 O485 2.002 . S
O468 Fe466 1.918 . S
O468 Fe467 1.918 . S
O468 Fe469 1.918 . S
Fe469 O468 1.918 . S
Fe469 O470 2.002 . S
Fe469 O479 1.976 . S
Fe469 O483 1.996 . S
Fe469 O486 1.997 . S
O470 Fe469 2.002 . S
O470 C487 1.295 . S
O471 Fe466 1.997 . S
O471 C487 1.235 . S
O472 Fe466 2.002 . S
O472 C473 1.295 . S
C473 O472 1.295 . S
C473 O475 1.235 . S
C474 O479 1.287 . S
C474 O480 1.255 . S
O475 Fe467 1.997 . S
O475 C473 1.235 . S
C476 O482 1.287 . S
C476 O483 1.255 . S
O477 Fe466 1.976 . S
O477 C484 1.287 . S
O478 Fe467 1.996 . S
O478 C484 1.255 . S
O479 Fe469 1.976 . S
O479 C474 1.287 . S
O480 Fe466 1.996 . S
O480 C474 1.255 . S
C481 O485 1.295 . S
C481 O486 1.235 . S
O482 Fe467 1.976 . S
O482 C476 1.287 . S
O483 Fe469 1.996 . S
O483 C476 1.255 . S
C484 O477 1.287 . S
C484 O478 1.255 . S
O485 Fe467 2.002 . S
O485 C481 1.295 . S
O486 Fe469 1.997 . S
O486 C481 1.235 . S
C487 O470 1.295 . S
C487 O471 1.235 . S
Fe488 O490 1.918 . S
Fe488 O493 1.997 . S
Fe488 O494 2.002 . S
Fe488 O499 1.976 . S
Fe488 O502 1.996 . S
Fe489 O490 1.918 . S
Fe489 O497 1.997 . S
Fe489 O500 1.996 . S
Fe489 O504 1.976 . S
Fe489 O507 2.002 . S
O490 Fe488 1.918 . S
O490 Fe489 1.918 . S
O490 Fe491 1.918 . S
Fe491 O490 1.918 . S
Fe491 O492 2.002 . S
Fe491 O501 1.976 . S
Fe491 O505 1.996 . S
Fe491 O508 1.997 . S
O492 Fe491 2.002 . S
O492 C509 1.295 . S
O493 Fe488 1.997 . S
O493 C509 1.235 . S
O494 Fe488 2.002 . S
O494 C495 1.295 . S
C495 O494 1.295 . S
C495 O497 1.235 . S
C496 O501 1.287 . S
C496 O502 1.255 . S
O497 Fe489 1.997 . S
O497 C495 1.235 . S
C498 O504 1.287 . S
C498 O505 1.255 . S
O499 Fe488 1.976 . S
O499 C506 1.287 . S
O500 Fe489 1.996 . S
O500 C506 1.255 . S
O501 Fe491 1.976 . S
O501 C496 1.287 . S
O502 Fe488 1.996 . S
O502 C496 1.255 . S
C503 O507 1.295 . S
C503 O508 1.235 . S
O504 Fe489 1.976 . S
O504 C498 1.287 . S
O505 Fe491 1.996 . S
O505 C498 1.255 . S
C506 O499 1.287 . S
C506 O500 1.255 . S
O507 Fe489 2.002 . S
O507 C503 1.295 . S
O508 Fe491 1.997 . S
O508 C503 1.235 . S
C509 O492 1.295 . S
C509 O493 1.235 . S
Fe510 O512 1.918 . S
Fe510 O515 1.997 . S
Fe510 O516 2.002 . S
Fe510 O521 1.976 . S
Fe510 O524 1.996 . S
Fe511 O512 1.918 . S
Fe511 O519 1.997 . S
Fe511 O522 1.996 . S
Fe511 O526 1.976 . S
Fe511 O529 2.002 . S
O512 Fe510 1.918 . S
O512 Fe511 1.918 . S
O512 Fe513 1.918 . S
Fe513 O512 1.918 . S
Fe513 O514 2.002 . S
Fe513 O523 1.976 . S
Fe513 O527 1.996 . S
Fe513 O530 1.997 . S
O514 Fe513 2.002 . S
O514 C531 1.295 . S
O515 Fe510 1.997 . S
O515 C531 1.235 . S
O516 Fe510 2.002 . S
O516 C517 1.295 . S
C517 O516 1.295 . S
C517 O519 1.235 . S
C518 O523 1.287 . S
C518 O524 1.255 . S
O519 Fe511 1.997 . S
O519 C517 1.235 . S
C520 O526 1.287 . S
C520 O527 1.255 . S
O521 Fe510 1.976 . S
O521 C528 1.287 . S
O522 Fe511 1.996 . S
O522 C528 1.255 . S
O523 Fe513 1.976 . S
O523 C518 1.287 . S
O524 Fe510 1.996 . S
O524 C518 1.255 . S
C525 O529 1.295 . S
C525 O530 1.235 . S
O526 Fe511 1.976 . S
O526 C520 1.287 . S
O527 Fe513 1.996 . S
O527 C520 1.255 . S
C528 O521 1.287 . S
C528 O522 1.255 . S
O529 Fe511 2.002 . S
O529 C525 1.295 . S
O530 Fe513 1.997 . S
O530 C525 1.235 . S
C531 O514 1.295 . S
C531 O515 1.235 . S
Fe532 O534 1.918 . S
Fe532 O537 1.997 . S
Fe532 O538 2.002 . S
Fe532 O543 1.976 . S
Fe532 O546 1.996 . S
Fe533 O534 1.918 . S
Fe533 O541 1.997 . S
Fe533 O544 1.996 . S
Fe533 O548 1.976 . S
Fe533 O551 2.002 . S
O534 Fe532 1.918 . S
O534 Fe533 1.918 . S
O534 Fe535 1.918 . S
Fe535 O534 1.918 . S
Fe535 O536 2.002 . S
Fe535 O545 1.976 . S
Fe535 O549 1.996 . S
Fe535 O552 1.997 . S
O536 Fe535 2.002 . S
O536 C553 1.295 . S
O537 Fe532 1.997 . S
O537 C553 1.235 . S
O538 Fe532 2.002 . S
O538 C539 1.295 . S
C539 O538 1.295 . S
C539 O541 1.235 . S
C540 O545 1.287 . S
C540 O546 1.255 . S
O541 Fe533 1.997 . S
O541 C539 1.235 . S
C542 O548 1.287 . S
C542 O549 1.255 . S
O543 Fe532 1.976 . S
O543 C550 1.287 . S
O544 Fe533 1.996 . S
O544 C550 1.255 . S
O545 Fe535 1.976 . S
O545 C540 1.287 . S
O546 Fe532 1.996 . S
O546 C540 1.255 . S
C547 O551 1.295 . S
C547 O552 1.235 . S
O548 Fe533 1.976 . S
O548 C542 1.287 . S
O549 Fe535 1.996 . S
O549 C542 1.255 . S
C550 O543 1.287 . S
C550 O544 1.255 . S
O551 Fe533 2.002 . S
O551 C547 1.295 . S
O552 Fe535 1.997 . S
O552 C547 1.235 . S
C553 O536 1.295 . S
C553 O537 1.235 . S
Fe554 O556 1.918 . S
Fe554 O559 1.997 . S
Fe554 O560 2.002 . S
Fe554 O565 1.976 . S
Fe554 O568 1.996 . S
Fe555 O556 1.918 . S
Fe555 O563 1.997 . S
Fe555 O566 1.996 . S
Fe555 O570 1.976 . S
Fe555 O573 2.002 . S
O556 Fe554 1.918 . S
O556 Fe555 1.918 . S
O556 Fe557 1.918 . S
Fe557 O556 1.918 . S
Fe557 O558 2.002 . S
Fe557 O567 1.976 . S
Fe557 O571 1.996 . S
Fe557 O574 1.997 . S
O558 Fe557 2.002 . S
O558 C575 1.295 . S
O559 Fe554 1.997 . S
O559 C575 1.235 . S
O560 Fe554 2.002 . S
O560 C561 1.295 . S
C561 O560 1.295 . S
C561 O563 1.235 . S
C562 O567 1.287 . S
C562 O568 1.255 . S
O563 Fe555 1.997 . S
O563 C561 1.235 . S
C564 O570 1.287 . S
C564 O571 1.255 . S
O565 Fe554 1.976 . S
O565 C572 1.287 . S
O566 Fe555 1.996 . S
O566 C572 1.255 . S
O567 Fe557 1.976 . S
O567 C562 1.287 . S
O568 Fe554 1.996 . S
O568 C562 1.255 . S
C569 O573 1.295 . S
C569 O574 1.235 . S
O570 Fe555 1.976 . S
O570 C564 1.287 . S
O571 Fe557 1.996 . S
O571 C564 1.255 . S
C572 O565 1.287 . S
C572 O566 1.255 . S
O573 Fe555 2.002 . S
O573 C569 1.295 . S
O574 Fe557 1.997 . S
O574 C569 1.235 . S
C575 O558 1.295 . S
C575 O559 1.235 . S
Fe576 O578 1.918 . S
Fe576 O581 1.997 . S
Fe576 O582 2.002 . S
Fe576 O587 1.976 . S
Fe576 O590 1.996 . S
Fe577 O578 1.918 . S
Fe577 O585 1.997 . S
Fe577 O588 1.996 . S
Fe577 O592 1.976 . S
Fe577 O595 2.002 . S
O578 Fe576 1.918 . S
O578 Fe577 1.918 . S
O578 Fe579 1.918 . S
Fe579 O578 1.918 . S
Fe579 O580 2.002 . S
Fe579 O589 1.976 . S
Fe579 O593 1.996 . S
Fe579 O596 1.997 . S
O580 Fe579 2.002 . S
O580 C597 1.295 . S
O581 Fe576 1.997 . S
O581 C597 1.235 . S
O582 Fe576 2.002 . S
O582 C583 1.295 . S
C583 O582 1.295 . S
C583 O585 1.235 . S
C584 O589 1.287 . S
C584 O590 1.255 . S
O585 Fe577 1.997 . S
O585 C583 1.235 . S
C586 O592 1.287 . S
C586 O593 1.255 . S
O587 Fe576 1.976 . S
O587 C594 1.287 . S
O588 Fe577 1.996 . S
O588 C594 1.255 . S
O589 Fe579 1.976 . S
O589 C584 1.287 . S
O590 Fe576 1.996 . S
O590 C584 1.255 . S
C591 O595 1.295 . S
C591 O596 1.235 . S
O592 Fe577 1.976 . S
O592 C586 1.287 . S
O593 Fe579 1.996 . S
O593 C586 1.255 . S
C594 O587 1.287 . S
C594 O588 1.255 . S
O595 Fe577 2.002 . S
O595 C591 1.295 . S
O596 Fe579 1.997 . S
O596 C591 1.235 . S
C597 O580 1.295 . S
C597 O581 1.235 . S
Fe598 O600 1.918 . S
Fe598 O603 1.997 . S
Fe598 O604 2.002 . S
Fe598 O609 1.976 . S
Fe598 O612 1.996 . S
Fe599 O600 1.918 . S
Fe599 O607 1.997 . S
Fe599 O610 1.996 . S
Fe599 O614 1.976 . S
Fe599 O617 2.002 . S
O600 Fe598 1.918 . S
O600 Fe599 1.918 . S
O600 Fe601 1.918 . S
Fe601 O600 1.918 . S
Fe601 O602 2.002 . S
Fe601 O611 1.976 . S
Fe601 O615 1.996 . S
Fe601 O618 1.997 . S
O602 Fe601 2.002 . S
O602 C619 1.295 . S
O603 Fe598 1.997 . S
O603 C619 1.235 . S
O604 Fe598 2.002 . S
O604 C605 1.295 . S
C605 O604 1.295 . S
C605 O607 1.235 . S
C606 O611 1.287 . S
C606 O612 1.255 . S
O607 Fe599 1.997 . S
O607 C605 1.235 . S
C608 O614 1.287 . S
C608 O615 1.255 . S
O609 Fe598 1.976 . S
O609 C616 1.287 . S
O610 Fe599 1.996 . S
O610 C616 1.255 . S
O611 Fe601 1.976 . S
O611 C606 1.287 . S
O612 Fe598 1.996 . S
O612 C606 1.255 . S
C613 O617 1.295 . S
C613 O618 1.235 . S
O614 Fe599 1.976 . S
O614 C608 1.287 . S
O615 Fe601 1.996 . S
O615 C608 1.255 . S
C616 O609 1.287 . S
C616 O610 1.255 . S
O617 Fe599 2.002 . S
O617 C613 1.295 . S
O618 Fe601 1.997 . S
O618 C613 1.235 . S
C619 O602 1.295 . S
C619 O603 1.235 . S
Fe620 O622 1.918 . S
Fe620 O625 1.997 . S
Fe620 O626 2.002 . S
Fe620 O631 1.976 . S
Fe620 O634 1.996 . S
Fe621 O622 1.918 . S
Fe621 O629 1.997 . S
Fe621 O632 1.996 . S
Fe621 O636 1.976 . S
Fe621 O639 2.002 . S
O622 Fe620 1.918 . S
O622 Fe621 1.918 . S
O622 Fe623 1.918 . S
Fe623 O622 1.918 . S
Fe623 O624 2.002 . S
Fe623 O633 1.976 . S
Fe623 O637 1.996 . S
Fe623 O640 1.997 . S
O624 Fe623 2.002 . S
O624 C641 1.295 . S
O625 Fe620 1.997 . S
O625 C641 1.235 . S
O626 Fe620 2.002 . S
O626 C627 1.295 . S
C627 O626 1.295 . S
C627 O629 1.235 . S
C628 O633 1.287 . S
C628 O634 1.255 . S
O629 Fe621 1.997 . S
O629 C627 1.235 . S
C630 O636 1.287 . S
C630 O637 1.255 . S
O631 Fe620 1.976 . S
O631 C638 1.287 . S
O632 Fe621 1.996 . S
O632 C638 1.255 . S
O633 Fe623 1.976 . S
O633 C628 1.287 . S
O634 Fe620 1.996 . S
O634 C628 1.255 . S
C635 O639 1.295 . S
C635 O640 1.235 . S
O636 Fe621 1.976 . S
O636 C630 1.287 . S
O637 Fe623 1.996 . S
O637 C630 1.255 . S
C638 O631 1.287 . S
C638 O632 1.255 . S
O639 Fe621 2.002 . S
O639 C635 1.295 . S
O640 Fe623 1.997 . S
O640 C635 1.235 . S
C641 O624 1.295 . S
C641 O625 1.235 . S
Fe642 O644 1.918 . S
Fe642 O647 1.997 . S
Fe642 O648 2.002 . S
Fe642 O653 1.976 . S
Fe642 O656 1.996 . S
Fe643 O644 1.918 . S
Fe643 O651 1.997 . S
Fe643 O654 1.996 . S
Fe643 O658 1.976 . S
Fe643 O661 2.002 . S
O644 Fe642 1.918 . S
O644 Fe643 1.918 . S
O644 Fe645 1.918 . S
Fe645 O644 1.918 . S
Fe645 O646 2.002 . S
Fe645 O655 1.976 . S
Fe645 O659 1.996 . S
Fe645 O662 1.997 . S
O646 Fe645 2.002 . S
O646 C663 1.295 . S
O647 Fe642 1.997 . S
O647 C663 1.235 . S
O648 Fe642 2.002 . S
O648 C649 1.295 . S
C649 O648 1.295 . S
C649 O651 1.235 . S
C650 O655 1.287 . S
C650 O656 1.255 . S
O651 Fe643 1.997 . S
O651 C649 1.235 . S
C652 O658 1.287 . S
C652 O659 1.255 . S
O653 Fe642 1.976 . S
O653 C660 1.287 . S
O654 Fe643 1.996 . S
O654 C660 1.255 . S
O655 Fe645 1.976 . S
O655 C650 1.287 . S
O656 Fe642 1.996 . S
O656 C650 1.255 . S
C657 O661 1.295 . S
C657 O662 1.235 . S
O658 Fe643 1.976 . S
O658 C652 1.287 . S
O659 Fe645 1.996 . S
O659 C652 1.255 . S
C660 O653 1.287 . S
C660 O654 1.255 . S
O661 Fe643 2.002 . S
O661 C657 1.295 . S
O662 Fe645 1.997 . S
O662 C657 1.235 . S
C663 O646 1.295 . S
C663 O647 1.235 . S
H664 C670 0.930 . S
H665 C673 0.930 . S
H666 C674 0.930 . S
H667 C675 0.930 . S
H668 C678 0.930 . S
H669 C679 0.930 . S
C670 H664 0.930 . S
C670 C671 1.355 . S
C670 C672 1.415 . S
C671 C670 1.355 . S
C671 C673 1.419 . S
C672 C670 1.415 . S
C672 C677 1.425 . S
C672 C679 1.409 . S
C673 H665 0.930 . S
C673 C671 1.419 . S
C673 C674 1.362 . S
C674 H666 0.930 . S
C674 C673 1.362 . S
C674 C677 1.409 . S
C675 H667 0.930 . S
C675 C676 1.355 . S
C675 C677 1.415 . S
C676 C675 1.355 . S
C676 C678 1.419 . S
C677 C672 1.425 . S
C677 C674 1.409 . S
C677 C675 1.415 . S
C678 H668 0.930 . S
C678 C676 1.419 . S
C678 C679 1.362 . S
C679 H669 0.930 . S
C679 C672 1.409 . S
C679 C678 1.362 . S
H680 C686 0.930 . S
H681 C689 0.930 . S
H682 C690 0.930 . S
H683 C691 0.930 . S
H684 C694 0.930 . S
H685 C695 0.930 . S
C686 H680 0.930 . S
C686 C687 1.355 . S
C686 C688 1.415 . S
C687 C686 1.355 . S
C687 C689 1.419 . S
C688 C686 1.415 . S
C688 C693 1.425 . S
C688 C695 1.409 . S
C689 H681 0.930 . S
C689 C687 1.419 . S
C689 C690 1.362 . S
C690 H682 0.930 . S
C690 C689 1.362 . S
C690 C693 1.409 . S
C691 H683 0.930 . S
C691 C692 1.355 . S
C691 C693 1.415 . S
C692 C691 1.355 . S
C692 C694 1.419 . S
C693 C688 1.425 . S
C693 C690 1.409 . S
C693 C691 1.415 . S
C694 H684 0.930 . S
C694 C692 1.419 . S
C694 C695 1.362 . S
C695 H685 0.930 . S
C695 C688 1.409 . S
C695 C694 1.362 . S
H696 C702 0.930 . S
H697 C705 0.930 . S
H698 C706 0.930 . S
H699 C707 0.930 . S
H700 C710 0.930 . S
H701 C711 0.930 . S
C702 H696 0.930 . S
C702 C703 1.355 . S
C702 C704 1.415 . S
C703 C702 1.355 . S
C703 C705 1.419 . S
C704 C702 1.415 . S
C704 C709 1.425 . S
C704 C711 1.409 . S
C705 H697 0.930 . S
C705 C703 1.419 . S
C705 C706 1.362 . S
C706 H698 0.930 . S
C706 C705 1.362 . S
C706 C709 1.409 . S
C707 H699 0.930 . S
C707 C708 1.355 . S
C707 C709 1.415 . S
C708 C707 1.355 . S
C708 C710 1.419 . S
C709 C704 1.425 . S
C709 C706 1.409 . S
C709 C707 1.415 . S
C710 H700 0.930 . S
C710 C708 1.419 . S
C710 C711 1.362 . S
C711 H701 0.930 . S
C711 C704 1.409 . S
C711 C710 1.362 . S
H712 C718 0.930 . S
H713 C721 0.930 . S
H714 C722 0.930 1_556 S
H715 C723 0.930 . S
H716 C726 0.930 . S
H717 C727 0.930 . S
C718 H712 0.930 . S
C718 C719 1.355 . S
C718 C720 1.415 . S
C719 C718 1.355 . S
C719 C721 1.419 . S
C720 C718 1.415 . S
C720 C725 1.425 . S
C720 C727 1.409 . S
C721 H713 0.930 . S
C721 C719 1.419 . S
C721 C722 1.362 . S
C722 H714 0.930 1_554 S
C722 C721 1.362 . S
C722 C725 1.409 . S
C723 H715 0.930 . S
C723 C724 1.355 . S
C723 C725 1.415 1_556 S
C724 C723 1.355 . S
C724 C726 1.419 . S
C725 C720 1.425 . S
C725 C722 1.409 . S
C725 C723 1.415 1_554 S
C726 H716 0.930 . S
C726 C724 1.419 . S
C726 C727 1.362 1_556 S
C727 H717 0.930 . S
C727 C720 1.409 . S
C727 C726 1.362 1_554 S
H728 C734 0.930 . S
H729 C737 0.930 1_655 S
H730 C738 0.930 . S
H731 C739 0.930 . S
H732 C742 0.930 . S
H733 C743 0.930 . S
C734 H728 0.930 . S
C734 C735 1.355 . S
C734 C736 1.415 . S
C735 C734 1.355 . S
C735 C737 1.419 . S
C736 C734 1.415 . S
C736 C741 1.425 . S
C736 C743 1.409 . S
C737 H729 0.930 1_455 S
C737 C735 1.419 . S
C737 C738 1.362 . S
C738 H730 0.930 . S
C738 C737 1.362 . S
C738 C741 1.409 . S
C739 H731 0.930 . S
C739 C740 1.355 . S
C739 C741 1.415 . S
C740 C739 1.355 . S
C740 C742 1.419 . S
C741 C736 1.425 . S
C741 C738 1.409 . S
C741 C739 1.415 . S
C742 H732 0.930 . S
C742 C740 1.419 . S
C742 C743 1.362 . S
C743 H733 0.930 . S
C743 C736 1.409 . S
C743 C742 1.362 . S
H744 C750 0.930 . S
H745 C753 0.930 . S
H746 C754 0.930 . S
H747 C755 0.930 . S
H748 C758 0.930 . S
H749 C759 0.930 . S
C750 H744 0.930 . S
C750 C751 1.355 . S
C750 C752 1.415 . S
C751 C750 1.355 . S
C751 C753 1.419 . S
C752 C750 1.415 . S
C752 C757 1.425 . S
C752 C759 1.409 . S
C753 H745 0.930 . S
C753 C751 1.419 . S
C753 C754 1.362 . S
C754 H746 0.930 . S
C754 C753 1.362 . S
C754 C757 1.409 . S
C755 H747 0.930 . S
C755 C756 1.355 . S
C755 C757 1.415 . S
C756 C755 1.355 . S
C756 C758 1.419 . S
C757 C752 1.425 . S
C757 C754 1.409 . S
C757 C755 1.415 . S
C758 H748 0.930 . S
C758 C756 1.419 . S
C758 C759 1.362 . S
C759 H749 0.930 . S
C759 C752 1.409 . S
C759 C758 1.362 . S
H760 C766 0.930 . S
H761 C769 0.930 . S
H762 C770 0.930 . S
H763 C771 0.930 . S
H764 C774 0.930 . S
H765 C775 0.930 . S
C766 H760 0.930 . S
C766 C767 1.355 . S
C766 C768 1.415 . S
C767 C766 1.355 . S
C767 C769 1.419 . S
C768 C766 1.415 . S
C768 C773 1.425 . S
C768 C775 1.409 . S
C769 H761 0.930 . S
C769 C767 1.419 . S
C769 C770 1.362 . S
C770 H762 0.930 . S
C770 C769 1.362 . S
C770 C773 1.409 . S
C771 H763 0.930 . S
C771 C772 1.355 . S
C771 C773 1.415 . S
C772 C771 1.355 . S
C772 C774 1.419 . S
C773 C768 1.425 . S
C773 C770 1.409 . S
C773 C771 1.415 . S
C774 H764 0.930 . S
C774 C772 1.419 . S
C774 C775 1.362 . S
C775 H765 0.930 . S
C775 C768 1.409 . S
C775 C774 1.362 . S
H776 C782 0.930 . S
H777 C785 0.930 . S
H778 C786 0.904 1_554 S
H779 C787 0.930 . S
H780 C790 0.930 . S
H781 C791 0.930 . S
C782 H776 0.930 . S
C782 C783 1.355 . S
C782 C784 1.415 . S
C783 C782 1.355 . S
C783 C785 1.419 . S
C784 C782 1.415 . S
C784 C789 1.425 1_556 S
C784 C791 1.409 . S
C785 H777 0.930 . S
C785 C783 1.419 . S
C785 C786 1.390 . S
C786 H778 0.904 1_556 S
C786 C785 1.390 . S
C786 C789 1.407 1_556 S
C787 H779 0.930 . S
C787 C788 1.355 . S
C787 C789 1.415 . S
C788 C787 1.355 . S
C788 C790 1.419 . S
C789 C784 1.425 1_554 S
C789 C786 1.407 1_554 S
C789 C787 1.415 . S
C790 H780 0.930 . S
C790 C788 1.419 . S
C790 C791 1.362 1_554 S
C791 H781 0.930 . S
C791 C784 1.409 . S
C791 C790 1.362 1_556 S
H792 C798 0.930 . S
H793 C801 0.930 . S
H794 C802 0.930 . S
H795 C803 0.930 . S
H796 C806 0.930 . S
H797 C807 0.930 . S
C798 H792 0.930 . S
C798 C799 1.355 . S
C798 C800 1.415 . S
C799 C798 1.355 . S
C799 C801 1.419 . S
C800 C798 1.415 . S
C800 C805 1.425 . S
C800 C807 1.409 . S
C801 H793 0.930 . S
C801 C799 1.419 . S
C801 C802 1.362 . S
C802 H794 0.930 . S
C802 C801 1.362 . S
C802 C805 1.409 . S
C803 H795 0.930 . S
C803 C804 1.355 . S
C803 C805 1.415 . S
C804 C803 1.355 . S
C804 C806 1.419 . S
C805 C800 1.425 . S
C805 C802 1.409 . S
C805 C803 1.415 . S
C806 H796 0.930 . S
C806 C804 1.419 . S
C806 C807 1.362 . S
C807 H797 0.930 . S
C807 C800 1.409 . S
C807 C806 1.362 . S
H808 C814 0.930 . S
H809 C817 0.930 . S
H810 C818 0.930 . S
H811 C819 0.930 . S
H812 C822 0.930 . S
H813 C823 0.930 . S
C814 H808 0.930 . S
C814 C815 1.355 . S
C814 C816 1.415 . S
C815 C814 1.355 . S
C815 C817 1.419 . S
C816 C814 1.415 . S
C816 C821 1.425 . S
C816 C823 1.409 . S
C817 H809 0.930 . S
C817 C815 1.419 . S
C817 C818 1.362 . S
C818 H810 0.930 . S
C818 C817 1.362 . S
C818 C821 1.409 . S
C819 H811 0.930 . S
C819 C820 1.355 . S
C819 C821 1.415 1_565 S
C820 C819 1.355 . S
C820 C822 1.419 . S
C821 C816 1.425 . S
C821 C818 1.409 . S
C821 C819 1.415 1_545 S
C822 H812 0.930 . S
C822 C820 1.419 . S
C822 C823 1.362 1_565 S
C823 H813 0.930 . S
C823 C816 1.409 . S
C823 C822 1.362 1_545 S
H824 C830 0.930 . S
H825 C833 0.930 1_545 S
H826 C834 0.930 . S
H827 C835 0.930 . S
H828 C838 0.930 . S
H829 C839 0.930 . S
C830 H824 0.930 . S
C830 C831 1.355 . S
C830 C832 1.415 . S
C831 C830 1.355 . S
C831 C833 1.419 . S
C832 C830 1.415 . S
C832 C837 1.425 . S
C832 C839 1.409 . S
C833 H825 0.930 1_565 S
C833 C831 1.419 . S
C833 C834 1.362 . S
C834 H826 0.930 . S
C834 C833 1.362 . S
C834 C837 1.409 . S
C835 H827 0.930 . S
C835 C836 1.355 . S
C835 C837 1.415 . S
C836 C835 1.355 . S
C836 C838 1.419 . S
C837 C832 1.425 . S
C837 C834 1.409 . S
C837 C835 1.415 . S
C838 H828 0.930 . S
C838 C836 1.419 . S
C838 C839 1.362 . S
C839 H829 0.930 . S
C839 C832 1.409 . S
C839 C838 1.362 . S
H840 C846 0.930 . S
H841 C849 0.930 . S
H842 C850 0.930 . S
H843 C851 0.930 . S
H844 C854 0.930 . S
H845 C855 0.930 . S
C846 H840 0.930 . S
C846 C847 1.355 . S
C846 C848 1.415 . S
C847 C846 1.355 . S
C847 C849 1.419 . S
C848 C846 1.415 . S
C848 C853 1.425 . S
C848 C855 1.409 1_565 S
C849 H841 0.930 . S
C849 C847 1.419 . S
C849 C850 1.362 . S
C850 H842 0.930 . S
C850 C849 1.362 . S
C850 C853 1.409 . S
C851 H843 0.930 . S
C851 C852 1.355 . S
C851 C853 1.415 1_545 S
C852 C851 1.355 . S
C852 C854 1.419 . S
C853 C848 1.425 . S
C853 C850 1.409 . S
C853 C851 1.415 1_565 S
C854 H844 0.930 . S
C854 C852 1.419 . S
C854 C855 1.362 . S
C855 H845 0.930 . S
C855 C848 1.409 1_545 S
C855 C854 1.362 . S
H856 C862 0.930 . S
H857 C865 0.930 . S
H858 C866 0.930 . S
H859 C867 0.930 . S
H860 C870 0.930 . S
H861 C871 0.930 . S
C862 H856 0.930 . S
C862 C863 1.355 . S
C862 C864 1.415 . S
C863 C862 1.355 . S
C863 C865 1.419 . S
C864 C862 1.415 . S
C864 C869 1.425 . S
C864 C871 1.409 . S
C865 H857 0.930 . S
C865 C863 1.419 . S
C865 C866 1.362 . S
C866 H858 0.930 . S
C866 C865 1.362 . S
C866 C869 1.409 . S
C867 H859 0.930 . S
C867 C868 1.355 . S
C867 C869 1.415 . S
C868 C867 1.355 . S
C868 C870 1.419 . S
C869 C864 1.425 . S
C869 C866 1.409 . S
C869 C867 1.415 . S
C870 H860 0.930 . S
C870 C868 1.419 . S
C870 C871 1.362 . S
C871 H861 0.930 . S
C871 C864 1.409 . S
C871 C870 1.362 . S
H872 C878 0.930 . S
H873 C881 0.930 . S
H874 C882 0.930 . S
H875 C883 0.930 . S
H876 C886 0.930 . S
H877 C887 0.930 . S
C878 H872 0.930 . S
C878 C879 1.355 . S
C878 C880 1.415 . S
C879 C878 1.355 . S
C879 C881 1.419 . S
C880 C878 1.415 . S
C880 C885 1.425 . S
C880 C887 1.409 . S
C881 H873 0.930 . S
C881 C879 1.419 . S
C881 C882 1.362 . S
C882 H874 0.930 . S
C882 C881 1.362 . S
C882 C885 1.409 . S
C883 H875 0.930 . S
C883 C884 1.355 . S
C883 C885 1.415 1_565 S
C884 C883 1.355 . S
C884 C886 1.419 . S
C885 C880 1.425 . S
C885 C882 1.409 . S
C885 C883 1.415 1_545 S
C886 H876 0.930 . S
C886 C884 1.419 . S
C886 C887 1.362 1_565 S
C887 H877 0.930 . S
C887 C880 1.409 . S
C887 C886 1.362 1_545 S
H888 C894 0.930 . S
H889 C897 0.930 . S
H890 C898 0.930 . S
H891 C899 0.930 . S
H892 C902 0.930 . S
H893 C903 0.930 . S
C894 H888 0.930 . S
C894 C895 1.355 . S
C894 C896 1.415 . S
C895 C894 1.355 . S
C895 C897 1.419 . S
C896 C894 1.415 . S
C896 C901 1.425 . S
C896 C903 1.409 . S
C897 H889 0.930 . S
C897 C895 1.419 . S
C897 C898 1.362 . S
C898 H890 0.930 . S
C898 C897 1.362 . S
C898 C901 1.409 . S
C899 H891 0.930 . S
C899 C900 1.355 . S
C899 C901 1.415 . S
C900 C899 1.355 . S
C900 C902 1.419 . S
C901 C896 1.425 . S
C901 C898 1.409 . S
C901 C899 1.415 . S
C902 H892 0.930 . S
C902 C900 1.419 . S
C902 C903 1.362 . S
C903 H893 0.930 . S
C903 C896 1.409 . S
C903 C902 1.362 . S
H904 C910 0.930 . S
H905 C913 0.930 . S
H906 C914 0.930 . S
H907 C915 0.930 . S
H908 C918 0.930 . S
H909 C919 0.930 . S
C910 H904 0.930 . S
C910 C911 1.355 . S
C910 C912 1.415 . S
C911 C910 1.355 . S
C911 C913 1.419 . S
C912 C910 1.415 . S
C912 C917 1.425 . S
C912 C919 1.409 1_565 S
C913 H905 0.930 . S
C913 C911 1.419 . S
C913 C914 1.362 . S
C914 H906 0.930 . S
C914 C913 1.362 . S
C914 C917 1.409 . S
C915 H907 0.930 . S
C915 C916 1.355 . S
C915 C917 1.415 1_545 S
C916 C915 1.355 . S
C916 C918 1.419 . S
C917 C912 1.425 . S
C917 C914 1.409 . S
C917 C915 1.415 1_565 S
C918 H908 0.930 . S
C918 C916 1.419 . S
C918 C919 1.362 . S
C919 H909 0.930 . S
C919 C912 1.409 1_545 S
C919 C918 1.362 . S
H920 C926 0.930 . S
H921 C929 0.930 . S
H922 C930 0.930 . S
H923 C931 0.930 . S
H924 C934 0.930 . S
H925 C935 0.930 . S
C926 H920 0.930 . S
C926 C927 1.355 . S
C926 C928 1.415 . S
C927 C926 1.355 . S
C927 C929 1.419 . S
C928 C926 1.415 . S
C928 C933 1.425 . S
C928 C935 1.409 . S
C929 H921 0.930 . S
C929 C927 1.419 . S
C929 C930 1.362 . S
C930 H922 0.930 . S
C930 C929 1.362 . S
C930 C933 1.409 . S
C931 H923 0.930 . S
C931 C932 1.355 . S
C931 C933 1.415 . S
C932 C931 1.355 . S
C932 C934 1.419 . S
C933 C928 1.425 . S
C933 C930 1.409 . S
C933 C931 1.415 . S
C934 H924 0.930 . S
C934 C932 1.419 . S
C934 C935 1.362 . S
C935 H925 0.930 . S
C935 C928 1.409 . S
C935 C934 1.362 . S
H936 C942 0.930 . S
H937 C945 0.930 . S
H938 C946 0.930 . S
H939 C947 0.930 . S
H940 C950 0.930 . S
H941 C951 0.930 . S
C942 H936 0.930 . S
C942 C943 1.355 . S
C942 C944 1.415 . S
C943 C942 1.355 . S
C943 C945 1.419 . S
C944 C942 1.415 . S
C944 C949 1.425 . S
C944 C951 1.409 . S
C945 H937 0.930 . S
C945 C943 1.419 . S
C945 C946 1.362 . S
C946 H938 0.930 . S
C946 C945 1.362 . S
C946 C949 1.409 . S
C947 H939 0.930 . S
C947 C948 1.355 . S
C947 C949 1.415 . S
C948 C947 1.355 . S
C948 C950 1.419 . S
C949 C944 1.425 . S
C949 C946 1.409 . S
C949 C947 1.415 . S
C950 H940 0.930 . S
C950 C948 1.419 . S
C950 C951 1.362 . S
C951 H941 0.930 . S
C951 C944 1.409 . S
C951 C950 1.362 . S
H952 C958 0.930 . S
H953 C961 0.930 . S
H954 C962 0.930 . S
H955 C963 0.930 1_455 S
H956 C966 0.930 . S
H957 C967 0.930 . S
C958 H952 0.930 . S
C958 C959 1.355 . S
C958 C960 1.415 . S
C959 C958 1.355 . S
C959 C961 1.419 . S
C960 C958 1.415 . S
C960 C965 1.425 . S
C960 C967 1.409 1_455 S
C961 H953 0.930 . S
C961 C959 1.419 . S
C961 C962 1.362 . S
C962 H954 0.930 . S
C962 C961 1.362 . S
C962 C965 1.409 . S
C963 H955 0.930 1_655 S
C963 C964 1.355 . S
C963 C965 1.415 1_655 S
C964 C963 1.355 . S
C964 C966 1.419 . S
C965 C960 1.425 . S
C965 C962 1.409 . S
C965 C963 1.415 1_455 S
C966 H956 0.930 . S
C966 C964 1.419 . S
C966 C967 1.362 . S
C967 H957 0.930 . S
C967 C960 1.409 1_655 S
C967 C966 1.362 . S
H968 C974 0.930 . S
H969 C977 0.930 . S
H970 C978 0.930 . S
H971 C979 0.930 . S
H972 C982 0.930 . S
H973 C983 0.930 . S
C974 H968 0.930 . S
C974 C975 1.355 . S
C974 C976 1.415 . S
C975 C974 1.355 . S
C975 C977 1.419 . S
C976 C974 1.415 . S
C976 C981 1.425 . S
C976 C983 1.409 . S
C977 H969 0.930 . S
C977 C975 1.419 . S
C977 C978 1.362 . S
C978 H970 0.930 . S
C978 C977 1.362 . S
C978 C981 1.409 . S
C979 H971 0.930 . S
C979 C980 1.355 . S
C979 C981 1.415 . S
C980 C979 1.355 . S
C980 C982 1.419 . S
C981 C976 1.425 . S
C981 C978 1.409 . S
C981 C979 1.415 . S
C982 H972 0.930 . S
C982 C980 1.419 . S
C982 C983 1.362 . S
C983 H973 0.930 . S
C983 C976 1.409 . S
C983 C982 1.362 . S
H984 C990 0.930 . S
H985 C993 0.930 . S
H986 C994 0.930 1_455 S
H987 C995 0.930 . S
H988 C998 0.930 . S
H989 C999 0.930 . S
C990 H984 0.930 . S
C990 C991 1.355 . S
C990 C992 1.415 . S
C991 C990 1.355 . S
C991 C993 1.419 . S
C992 C990 1.415 . S
C992 C997 1.425 . S
C992 C999 1.409 . S
C993 H985 0.930 . S
C993 C991 1.419 . S
C993 C994 1.362 . S
C994 H986 0.930 1_655 S
C994 C993 1.362 . S
C994 C997 1.409 . S
C995 H987 0.930 . S
C995 C996 1.355 . S
C995 C997 1.415 1_455 S
C996 C995 1.355 . S
C996 C998 1.419 . S
C997 C992 1.425 . S
C997 C994 1.409 . S
C997 C995 1.415 1_655 S
C998 H988 0.930 . S
C998 C996 1.419 . S
C998 C999 1.362 1_455 S
C999 H989 0.930 . S
C999 C992 1.409 . S
C999 C998 1.362 1_655 S
H1000 C1006 0.930 . S
H1001 C1009 0.930 . S
H1002 C1010 0.930 . S
H1003 C1011 0.930 . S
H1004 C1014 0.930 . S
H1005 C1015 0.930 . S
C1006 H1000 0.930 . S
C1006 C1007 1.355 . S
C1006 C1008 1.415 . S
C1007 C1006 1.355 . S
C1007 C1009 1.419 . S
C1008 C1006 1.415 . S
C1008 C1013 1.425 . S
C1008 C1015 1.409 . S
C1009 H1001 0.930 . S
C1009 C1007 1.419 . S
C1009 C1010 1.362 . S
C1010 H1002 0.930 . S
C1010 C1009 1.362 . S
C1010 C1013 1.409 . S
C1011 H1003 0.930 . S
C1011 C1012 1.355 . S
C1011 C1013 1.415 . S
C1012 C1011 1.355 . S
C1012 C1014 1.419 . S
C1013 C1008 1.425 . S
C1013 C1010 1.409 . S
C1013 C1011 1.415 . S
C1014 H1004 0.930 . S
C1014 C1012 1.419 . S
C1014 C1015 1.362 . S
C1015 H1005 0.930 . S
C1015 C1008 1.409 . S
C1015 C1014 1.362 . S
H1016 C1022 0.930 . S
H1017 C1025 0.930 . S
H1018 C1026 0.930 1_655 S
H1019 C1027 0.930 . S
H1020 C1030 0.930 . S
H1021 C1031 0.930 . S
C1022 H1016 0.930 . S
C1022 C1023 1.355 . S
C1022 C1024 1.415 . S
C1023 C1022 1.355 . S
C1023 C1025 1.419 . S
C1024 C1022 1.415 . S
C1024 C1029 1.425 . S
C1024 C1031 1.409 . S
C1025 H1017 0.930 . S
C1025 C1023 1.419 . S
C1025 C1026 1.362 . S
C1026 H1018 0.930 1_455 S
C1026 C1025 1.362 . S
C1026 C1029 1.409 . S
C1027 H1019 0.930 . S
C1027 C1028 1.355 . S
C1027 C1029 1.415 1_655 S
C1028 C1027 1.355 . S
C1028 C1030 1.419 . S
C1029 C1024 1.425 . S
C1029 C1026 1.409 . S
C1029 C1027 1.415 1_455 S
C1030 H1020 0.930 . S
C1030 C1028 1.419 . S
C1030 C1031 1.362 1_655 S
C1031 H1021 0.930 . S
C1031 C1024 1.409 . S
C1031 C1030 1.362 1_455 S
H1032 C1038 0.930 . S
H1033 C1041 0.930 . S
H1034 C1042 0.930 . S
H1035 C1043 0.930 . S
H1036 C1046 0.930 . S
H1037 C1047 0.930 . S
C1038 H1032 0.930 . S
C1038 C1039 1.355 . S
C1038 C1040 1.415 . S
C1039 C1038 1.355 . S
C1039 C1041 1.419 . S
C1040 C1038 1.415 . S
C1040 C1045 1.425 . S
C1040 C1047 1.409 . S
C1041 H1033 0.930 . S
C1041 C1039 1.419 . S
C1041 C1042 1.362 . S
C1042 H1034 0.930 . S
C1042 C1041 1.362 . S
C1042 C1045 1.409 . S
C1043 H1035 0.930 . S
C1043 C1044 1.355 . S
C1043 C1045 1.415 . S
C1044 C1043 1.355 . S
C1044 C1046 1.419 . S
C1045 C1040 1.425 . S
C1045 C1042 1.409 . S
C1045 C1043 1.415 . S
C1046 H1036 0.930 . S
C1046 C1044 1.419 . S
C1046 C1047 1.362 . S
C1047 H1037 0.930 . S
C1047 C1040 1.409 . S
C1047 C1046 1.362 . S
H1048 C1054 0.930 . S
H1049 C1057 0.930 . S
H1050 C1058 0.930 . S
H1051 C1059 0.930 . S
H1052 C1062 0.930 . S
H1053 C1063 0.930 . S
C1054 H1048 0.930 . S
C1054 C1055 1.355 . S
C1054 C1056 1.415 . S
C1055 C1054 1.355 . S
C1055 C1057 1.419 . S
C1056 C1054 1.415 . S
C1056 C1061 1.425 . S
C1056 C1063 1.409 . S
C1057 H1049 0.930 . S
C1057 C1055 1.419 . S
C1057 C1058 1.362 . S
C1058 H1050 0.930 . S
C1058 C1057 1.362 . S
C1058 C1061 1.409 . S
C1059 H1051 0.930 . S
C1059 C1060 1.355 . S
C1059 C1061 1.415 . S
C1060 C1059 1.355 . S
C1060 C1062 1.419 . S
C1061 C1056 1.425 . S
C1061 C1058 1.409 . S
C1061 C1059 1.415 . S
C1062 H1052 0.930 . S
C1062 C1060 1.419 . S
C1062 C1063 1.362 . S
C1063 H1053 0.930 . S
C1063 C1056 1.409 . S
C1063 C1062 1.362 . S
H1064 C1070 0.930 . S
H1065 C1073 0.930 . S
H1066 C1074 0.930 . S
H1067 C1075 0.930 . S
H1068 C1078 0.930 . S
H1069 C1079 0.930 . S
C1070 H1064 0.930 . S
C1070 C1071 1.355 . S
C1070 C1072 1.415 . S
C1071 C1070 1.355 . S
C1071 C1073 1.419 . S
C1072 C1070 1.415 . S
C1072 C1077 1.425 . S
C1072 C1079 1.409 . S
C1073 H1065 0.930 . S
C1073 C1071 1.419 . S
C1073 C1074 1.362 . S
C1074 H1066 0.930 . S
C1074 C1073 1.362 . S
C1074 C1077 1.409 . S
C1075 H1067 0.930 . S
C1075 C1076 1.355 . S
C1075 C1077 1.415 . S
C1076 C1075 1.355 . S
C1076 C1078 1.419 . S
C1077 C1072 1.425 . S
C1077 C1074 1.409 . S
C1077 C1075 1.415 . S
C1078 H1068 0.930 . S
C1078 C1076 1.419 . S
C1078 C1079 1.362 . S
C1079 H1069 0.930 . S
C1079 C1072 1.409 . S
C1079 C1078 1.362 . S
H1080 C1086 0.930 . S
H1081 C1089 0.930 . S
H1082 C1090 0.930 . S
H1083 C1091 0.930 . S
H1084 C1094 0.930 . S
H1085 C1095 0.930 . S
C1086 H1080 0.930 . S
C1086 C1087 1.355 . S
C1086 C1088 1.415 . S
C1087 C1086 1.355 . S
C1087 C1089 1.419 . S
C1088 C1086 1.415 . S
C1088 C1093 1.425 . S
C1088 C1095 1.409 . S
C1089 H1081 0.930 . S
C1089 C1087 1.419 . S
C1089 C1090 1.362 . S
C1090 H1082 0.930 . S
C1090 C1089 1.362 . S
C1090 C1093 1.409 . S
C1091 H1083 0.930 . S
C1091 C1092 1.355 . S
C1091 C1093 1.415 . S
C1092 C1091 1.355 . S
C1092 C1094 1.419 . S
C1093 C1088 1.425 . S
C1093 C1090 1.409 . S
C1093 C1091 1.415 . S
C1094 H1084 0.930 . S
C1094 C1092 1.419 . S
C1094 C1095 1.362 . S
C1095 H1085 0.930 . S
C1095 C1088 1.409 . S
C1095 C1094 1.362 . S
H1096 C1102 0.930 . S
H1097 C1105 0.930 . S
H1098 C1106 0.930 . S
H1099 C1107 0.930 . S
H1100 C1110 0.930 . S
H1101 C1111 0.930 . S
C1102 H1096 0.930 . S
C1102 C1103 1.355 . S
C1102 C1104 1.415 . S
C1103 C1102 1.355 . S
C1103 C1105 1.419 . S
C1104 C1102 1.415 . S
C1104 C1109 1.425 . S
C1104 C1111 1.409 1_556 S
C1105 H1097 0.930 . S
C1105 C1103 1.419 . S
C1105 C1106 1.362 . S
C1106 H1098 0.930 . S
C1106 C1105 1.362 . S
C1106 C1109 1.409 . S
C1107 H1099 0.930 . S
C1107 C1108 1.355 . S
C1107 C1109 1.415 1_554 S
C1108 C1107 1.355 . S
C1108 C1110 1.419 . S
C1109 C1104 1.425 . S
C1109 C1106 1.409 . S
C1109 C1107 1.415 1_556 S
C1110 H1100 0.930 . S
C1110 C1108 1.419 . S
C1110 C1111 1.362 . S
C1111 H1101 0.930 . S
C1111 C1104 1.409 1_554 S
C1111 C1110 1.362 . S
H1112 C1118 0.930 . S
H1113 C1121 0.930 . S
H1114 C1122 0.930 . S
H1115 C1123 0.930 . S
H1116 C1126 0.930 . S
H1117 C1127 0.930 . S
C1118 H1112 0.930 . S
C1118 C1119 1.355 . S
C1118 C1120 1.415 . S
C1119 C1118 1.355 . S
C1119 C1121 1.419 . S
C1120 C1118 1.415 . S
C1120 C1125 1.425 . S
C1120 C1127 1.409 . S
C1121 H1113 0.930 . S
C1121 C1119 1.419 . S
C1121 C1122 1.362 . S
C1122 H1114 0.930 . S
C1122 C1121 1.362 . S
C1122 C1125 1.409 . S
C1123 H1115 0.930 . S
C1123 C1124 1.355 . S
C1123 C1125 1.415 . S
C1124 C1123 1.355 . S
C1124 C1126 1.419 . S
C1125 C1120 1.425 . S
C1125 C1122 1.409 . S
C1125 C1123 1.415 . S
C1126 H1116 0.930 . S
C1126 C1124 1.419 . S
C1126 C1127 1.362 . S
C1127 H1117 0.930 . S
C1127 C1120 1.409 . S
C1127 C1126 1.362 . S
H1128 C1134 0.930 . S
H1129 C1137 0.930 . S
H1130 C1138 0.930 . S
H1131 C1139 0.930 . S
H1132 C1142 0.930 . S
H1133 C1143 0.930 . S
C1134 H1128 0.930 . S
C1134 C1135 1.355 . S
C1134 C1136 1.415 . S
C1135 C1134 1.355 . S
C1135 C1137 1.419 . S
C1136 C1134 1.415 . S
C1136 C1141 1.425 . S
C1136 C1143 1.409 . S
C1137 H1129 0.930 . S
C1137 C1135 1.419 . S
C1137 C1138 1.362 . S
C1138 H1130 0.930 . S
C1138 C1137 1.362 . S
C1138 C1141 1.409 . S
C1139 H1131 0.930 . S
C1139 C1140 1.355 . S
C1139 C1141 1.415 . S
C1140 C1139 1.355 . S
C1140 C1142 1.419 . S
C1141 C1136 1.425 . S
C1141 C1138 1.409 . S
C1141 C1139 1.415 . S
C1142 H1132 0.930 . S
C1142 C1140 1.419 . S
C1142 C1143 1.362 . S
C1143 H1133 0.930 . S
C1143 C1136 1.409 . S
C1143 C1142 1.362 . S
H1144 C1150 0.930 . S
H1145 C1153 0.930 . S
H1146 C1154 0.930 . S
H1147 C1155 0.930 . S
H1148 C1158 0.930 . S
H1149 C1159 0.930 . S
C1150 H1144 0.930 . S
C1150 C1151 1.355 . S
C1150 C1152 1.415 . S
C1151 C1150 1.355 . S
C1151 C1153 1.419 . S
C1152 C1150 1.415 . S
C1152 C1157 1.425 . S
C1152 C1159 1.409 . S
C1153 H1145 0.930 . S
C1153 C1151 1.419 . S
C1153 C1154 1.362 . S
C1154 H1146 0.930 . S
C1154 C1153 1.362 . S
C1154 C1157 1.409 . S
C1155 H1147 0.930 . S
C1155 C1156 1.355 . S
C1155 C1157 1.415 . S
C1156 C1155 1.355 . S
C1156 C1158 1.419 . S
C1157 C1152 1.425 . S
C1157 C1154 1.409 . S
C1157 C1155 1.415 . S
C1158 H1148 0.930 . S
C1158 C1156 1.419 . S
C1158 C1159 1.362 . S
C1159 H1149 0.930 . S
C1159 C1152 1.409 . S
C1159 C1158 1.362 . S
H1160 C1166 0.930 . S
H1161 C1169 0.930 . S
H1162 C1170 0.930 . S
H1163 C1171 0.930 1_554 S
H1164 C1174 0.930 . S
H1165 C1175 0.930 . S
C1166 H1160 0.930 . S
C1166 C1167 1.355 . S
C1166 C1168 1.415 . S
C1167 C1166 1.355 . S
C1167 C1169 1.419 . S
C1168 C1166 1.415 . S
C1168 C1173 1.425 . S
C1168 C1175 1.409 1_554 S
C1169 H1161 0.930 . S
C1169 C1167 1.419 . S
C1169 C1170 1.362 . S
C1170 H1162 0.930 . S
C1170 C1169 1.362 . S
C1170 C1173 1.409 . S
C1171 H1163 0.930 1_556 S
C1171 C1172 1.355 . S
C1171 C1173 1.415 1_556 S
C1172 C1171 1.355 . S
C1172 C1174 1.419 . S
C1173 C1168 1.425 . S
C1173 C1170 1.409 . S
C1173 C1171 1.415 1_554 S
C1174 H1164 0.930 . S
C1174 C1172 1.419 . S
C1174 C1175 1.362 . S
C1175 H1165 0.930 . S
C1175 C1168 1.409 1_556 S
C1175 C1174 1.362 . S
H1176 C1182 0.930 . S
H1177 C1185 0.930 . S
H1178 C1186 0.930 . S
H1179 C1187 0.930 . S
H1180 C1190 0.930 . S
H1181 C1191 0.930 . S
C1182 H1176 0.930 . S
C1182 C1183 1.355 . S
C1182 C1184 1.415 . S
C1183 C1182 1.355 . S
C1183 C1185 1.419 . S
C1184 C1182 1.415 . S
C1184 C1189 1.425 . S
C1184 C1191 1.409 . S
C1185 H1177 0.930 . S
C1185 C1183 1.419 . S
C1185 C1186 1.362 . S
C1186 H1178 0.930 . S
C1186 C1185 1.362 . S
C1186 C1189 1.409 . S
C1187 H1179 0.930 . S
C1187 C1188 1.355 . S
C1187 C1189 1.415 . S
C1188 C1187 1.355 . S
C1188 C1190 1.419 . S
C1189 C1184 1.425 . S
C1189 C1186 1.409 . S
C1189 C1187 1.415 . S
C1190 H1180 0.930 . S
C1190 C1188 1.419 . S
C1190 C1191 1.362 . S
C1191 H1181 0.930 . S
C1191 C1184 1.409 . S
C1191 C1190 1.362 . S
H1192 C1198 0.930 . S
H1193 C1201 0.930 . S
H1194 C1202 0.930 1_545 S
H1195 C1203 0.930 . S
H1196 C1206 0.930 . S
H1197 C1207 0.930 . S
C1198 H1192 0.930 . S
C1198 C1199 1.355 . S
C1198 C1200 1.415 . S
C1199 C1198 1.355 . S
C1199 C1201 1.419 . S
C1200 C1198 1.415 . S
C1200 C1205 1.425 . S
C1200 C1207 1.409 . S
C1201 H1193 0.930 . S
C1201 C1199 1.419 . S
C1201 C1202 1.362 . S
C1202 H1194 0.930 1_565 S
C1202 C1201 1.362 . S
C1202 C1205 1.409 . S
C1203 H1195 0.930 . S
C1203 C1204 1.355 . S
C1203 C1205 1.415 1_545 S
C1204 C1203 1.355 . S
C1204 C1206 1.419 . S
C1205 C1200 1.425 . S
C1205 C1202 1.409 . S
C1205 C1203 1.415 1_565 S
C1206 H1196 0.930 . S
C1206 C1204 1.419 . S
C1206 C1207 1.362 1_545 S
C1207 H1197 0.930 . S
C1207 C1200 1.409 . S
C1207 C1206 1.362 1_565 S
H1208 C1214 0.930 . S
H1209 C1217 0.930 . S
H1210 C1218 0.930 . S
H1211 C1219 0.930 . S
H1212 C1222 0.930 . S
H1213 C1223 0.930 . S
C1214 H1208 0.930 . S
C1214 C1215 1.355 . S
C1214 C1216 1.415 . S
C1215 C1214 1.355 . S
C1215 C1217 1.419 . S
C1216 C1214 1.415 . S
C1216 C1221 1.425 . S
C1216 C1223 1.409 . S
C1217 H1209 0.930 . S
C1217 C1215 1.419 . S
C1217 C1218 1.362 . S
C1218 H1210 0.930 . S
C1218 C1217 1.362 . S
C1218 C1221 1.409 . S
C1219 H1211 0.930 . S
C1219 C1220 1.355 . S
C1219 C1221 1.415 . S
C1220 C1219 1.355 . S
C1220 C1222 1.419 . S
C1221 C1216 1.425 . S
C1221 C1218 1.409 . S
C1221 C1219 1.415 . S
C1222 H1212 0.930 . S
C1222 C1220 1.419 . S
C1222 C1223 1.362 . S
C1223 H1213 0.930 . S
C1223 C1216 1.409 . S
C1223 C1222 1.362 . S
H1224 C1230 0.930 . S
H1225 C1233 0.930 . S
H1226 C1234 0.930 . S
H1227 C1235 0.930 . S
H1228 C1238 0.930 . S
H1229 C1239 0.930 1_545 S
C1230 H1224 0.930 . S
C1230 C1231 1.355 . S
C1230 C1232 1.415 . S
C1231 C1230 1.355 . S
C1231 C1233 1.419 . S
C1232 C1230 1.415 . S
C1232 C1237 1.425 . S
C1232 C1239 1.409 1_545 S
C1233 H1225 0.930 . S
C1233 C1231 1.419 . S
C1233 C1234 1.362 . S
C1234 H1226 0.930 . S
C1234 C1233 1.362 . S
C1234 C1237 1.409 . S
C1235 H1227 0.930 . S
C1235 C1236 1.355 . S
C1235 C1237 1.415 1_565 S
C1236 C1235 1.355 . S
C1236 C1238 1.419 . S
C1237 C1232 1.425 . S
C1237 C1234 1.409 . S
C1237 C1235 1.415 1_545 S
C1238 H1228 0.930 . S
C1238 C1236 1.419 . S
C1238 C1239 1.362 . S
C1239 H1229 0.930 1_565 S
C1239 C1232 1.409 1_565 S
C1239 C1238 1.362 . S
H1240 C1246 0.930 . S
H1241 C1249 0.930 . S
H1242 C1250 0.930 . S
H1243 C1251 0.930 . S
H1244 C1254 0.930 . S
H1245 C1255 0.930 . S
C1246 H1240 0.930 . S
C1246 C1247 1.355 . S
C1246 C1248 1.415 . S
C1247 C1246 1.355 . S
C1247 C1249 1.419 . S
C1248 C1246 1.415 . S
C1248 C1253 1.425 . S
C1248 C1255 1.409 . S
C1249 H1241 0.930 . S
C1249 C1247 1.419 . S
C1249 C1250 1.362 . S
C1250 H1242 0.930 . S
C1250 C1249 1.362 . S
C1250 C1253 1.409 . S
C1251 H1243 0.930 . S
C1251 C1252 1.355 . S
C1251 C1253 1.415 . S
C1252 C1251 1.355 . S
C1252 C1254 1.419 . S
C1253 C1248 1.425 . S
C1253 C1250 1.409 . S
C1253 C1251 1.415 . S
C1254 H1244 0.930 . S
C1254 C1252 1.419 . S
C1254 C1255 1.362 . S
C1255 H1245 0.930 . S
C1255 C1248 1.409 . S
C1255 C1254 1.362 . S
H1256 C1262 0.930 . S
H1257 C1265 0.930 . S
H1258 C1266 0.930 . S
H1259 C1267 0.930 . S
H1260 C1270 0.930 . S
H1261 C1271 0.930 . S
C1262 H1256 0.930 . S
C1262 C1263 1.355 . S
C1262 C1264 1.415 . S
C1263 C1262 1.355 . S
C1263 C1265 1.419 . S
C1264 C1262 1.415 . S
C1264 C1269 1.425 . S
C1264 C1271 1.409 1_565 S
C1265 H1257 0.930 . S
C1265 C1263 1.419 . S
C1265 C1266 1.362 . S
C1266 H1258 0.930 . S
C1266 C1265 1.362 . S
C1266 C1269 1.409 . S
C1267 H1259 0.930 . S
C1267 C1268 1.355 . S
C1267 C1269 1.415 1_545 S
C1268 C1267 1.355 . S
C1268 C1270 1.419 . S
C1269 C1264 1.425 . S
C1269 C1266 1.409 . S
C1269 C1267 1.415 1_565 S
C1270 H1260 0.930 . S
C1270 C1268 1.419 . S
C1270 C1271 1.362 . S
C1271 H1261 0.930 . S
C1271 C1264 1.409 1_545 S
C1271 C1270 1.362 . S
H1272 C1278 0.930 . S
H1273 C1281 0.930 . S
H1274 C1282 0.930 . S
H1275 C1283 0.930 . S
H1276 C1286 0.930 . S
H1277 C1287 0.930 . S
C1278 H1272 0.930 . S
C1278 C1279 1.355 . S
C1278 C1280 1.415 . S
C1279 C1278 1.355 . S
C1279 C1281 1.419 . S
C1280 C1278 1.415 . S
C1280 C1285 1.425 . S
C1280 C1287 1.409 . S
C1281 H1273 0.930 . S
C1281 C1279 1.419 . S
C1281 C1282 1.362 . S
C1282 H1274 0.930 . S
C1282 C1281 1.362 . S
C1282 C1285 1.409 . S
C1283 H1275 0.930 . S
C1283 C1284 1.355 . S
C1283 C1285 1.415 . S
C1284 C1283 1.355 . S
C1284 C1286 1.419 . S
C1285 C1280 1.425 . S
C1285 C1282 1.409 . S
C1285 C1283 1.415 . S
C1286 H1276 0.930 . S
C1286 C1284 1.419 . S
C1286 C1287 1.362 . S
C1287 H1277 0.930 . S
C1287 C1280 1.409 . S
C1287 C1286 1.362 . S
H1288 C1294 0.930 . S
H1289 C1297 0.930 1_554 S
H1290 C1298 0.930 1_565 S
H1291 C1299 0.930 . S
H1292 C1302 0.930 . S
H1293 C1303 0.930 . S
C1294 H1288 0.930 . S
C1294 C1295 1.355 . S
C1294 C1296 1.415 . S
C1295 C1294 1.355 . S
C1295 C1297 1.419 . S
C1296 C1294 1.415 . S
C1296 C1301 1.425 . S
C1296 C1303 1.409 . S
C1297 H1289 0.930 1_556 S
C1297 C1295 1.419 . S
C1297 C1298 1.362 . S
C1298 H1290 0.930 1_545 S
C1298 C1297 1.362 . S
C1298 C1301 1.409 . S
C1299 H1291 0.930 . S
C1299 C1300 1.355 . S
C1299 C1301 1.415 1_565 S
C1300 C1299 1.355 . S
C1300 C1302 1.419 . S
C1301 C1296 1.425 . S
C1301 C1298 1.409 . S
C1301 C1299 1.415 1_545 S
C1302 H1292 0.930 . S
C1302 C1300 1.419 . S
C1302 C1303 1.362 1_565 S
C1303 H1293 0.930 . S
C1303 C1296 1.409 . S
C1303 C1302 1.362 1_545 S
H1304 C1310 0.930 . S
H1305 C1313 0.930 . S
H1306 C1314 0.930 . S
H1307 C1315 0.930 . S
H1308 C1318 0.930 . S
H1309 C1319 0.930 . S
C1310 H1304 0.930 . S
C1310 C1311 1.355 . S
C1310 C1312 1.415 . S
C1311 C1310 1.355 . S
C1311 C1313 1.419 . S
C1312 C1310 1.415 . S
C1312 C1317 1.425 . S
C1312 C1319 1.409 . S
C1313 H1305 0.930 . S
C1313 C1311 1.419 . S
C1313 C1314 1.362 . S
C1314 H1306 0.930 . S
C1314 C1313 1.362 . S
C1314 C1317 1.409 . S
C1315 H1307 0.930 . S
C1315 C1316 1.355 . S
C1315 C1317 1.415 . S
C1316 C1315 1.355 . S
C1316 C1318 1.419 . S
C1317 C1312 1.425 . S
C1317 C1314 1.409 . S
C1317 C1315 1.415 . S
C1318 H1308 0.930 . S
C1318 C1316 1.419 . S
C1318 C1319 1.362 . S
C1319 H1309 0.930 . S
C1319 C1312 1.409 . S
C1319 C1318 1.362 . S
H1320 C1326 0.930 . S
H1321 C1329 0.930 . S
H1322 C1330 0.930 . S
H1323 C1331 0.930 . S
H1324 C1334 0.930 . S
H1325 C1335 0.930 . S
C1326 H1320 0.930 . S
C1326 C1327 1.355 . S
C1326 C1328 1.415 . S
C1327 C1326 1.355 . S
C1327 C1329 1.419 . S
C1328 C1326 1.415 . S
C1328 C1333 1.425 . S
C1328 C1335 1.409 . S
C1329 H1321 0.930 . S
C1329 C1327 1.419 . S
C1329 C1330 1.362 . S
C1330 H1322 0.930 . S
C1330 C1329 1.362 . S
C1330 C1333 1.409 . S
C1331 H1323 0.930 . S
C1331 C1332 1.355 . S
C1331 C1333 1.415 . S
C1332 C1331 1.355 . S
C1332 C1334 1.419 . S
C1333 C1328 1.425 . S
C1333 C1330 1.409 . S
C1333 C1331 1.415 . S
C1334 H1324 0.930 . S
C1334 C1332 1.419 . S
C1334 C1335 1.362 . S
C1335 H1325 0.930 . S
C1335 C1328 1.409 . S
C1335 C1334 1.362 . S
H1336 C1342 0.930 . S
H1337 C1345 0.930 . S
H1338 C1346 0.930 1_455 S
H1339 C1347 0.930 . S
H1340 C1350 0.930 . S
H1341 C1351 0.930 . S
C1342 H1336 0.930 . S
C1342 C1343 1.355 . S
C1342 C1344 1.415 . S
C1343 C1342 1.355 . S
C1343 C1345 1.419 . S
C1344 C1342 1.415 . S
C1344 C1349 1.425 . S
C1344 C1351 1.409 . S
C1345 H1337 0.930 . S
C1345 C1343 1.419 . S
C1345 C1346 1.362 . S
C1346 H1338 0.930 1_655 S
C1346 C1345 1.362 . S
C1346 C1349 1.409 . S
C1347 H1339 0.930 . S
C1347 C1348 1.355 . S
C1347 C1349 1.415 1_455 S
C1348 C1347 1.355 . S
C1348 C1350 1.419 . S
C1349 C1344 1.425 . S
C1349 C1346 1.409 . S
C1349 C1347 1.415 1_655 S
C1350 H1340 0.930 . S
C1350 C1348 1.419 . S
C1350 C1351 1.362 1_455 S
C1351 H1341 0.930 . S
C1351 C1344 1.409 . S
C1351 C1350 1.362 1_655 S
H1352 C1358 0.930 . S
H1353 C1361 0.930 . S
H1354 C1362 0.930 . S
H1355 C1363 0.930 . S
H1356 C1366 0.930 . S
H1357 C1367 0.930 . S
C1358 H1352 0.930 . S
C1358 C1359 1.355 . S
C1358 C1360 1.415 . S
C1359 C1358 1.355 . S
C1359 C1361 1.419 . S
C1360 C1358 1.415 . S
C1360 C1365 1.425 . S
C1360 C1367 1.409 . S
C1361 H1353 0.930 . S
C1361 C1359 1.419 . S
C1361 C1362 1.362 . S
C1362 H1354 0.930 . S
C1362 C1361 1.362 . S
C1362 C1365 1.409 . S
C1363 H1355 0.930 . S
C1363 C1364 1.355 . S
C1363 C1365 1.415 . S
C1364 C1363 1.355 . S
C1364 C1366 1.419 . S
C1365 C1360 1.425 . S
C1365 C1362 1.409 . S
C1365 C1363 1.415 . S
C1366 H1356 0.930 . S
C1366 C1364 1.419 . S
C1366 C1367 1.362 . S
C1367 H1357 0.930 . S
C1367 C1360 1.409 . S
C1367 C1366 1.362 . S
H1368 C1374 0.930 . S
H1369 C1377 0.930 1_545 S
H1370 C1378 0.924 1_645 S
H1371 C1379 0.930 . S
H1372 C1382 0.930 . S
H1373 C1383 0.930 . S
C1374 H1368 0.930 . S
C1374 C1375 1.355 . S
C1374 C1376 1.415 . S
C1375 C1374 1.355 . S
C1375 C1377 1.419 . S
C1376 C1374 1.415 . S
C1376 C1381 1.425 . S
C1376 C1383 1.409 . S
C1377 H1369 0.930 1_565 S
C1377 C1375 1.419 . S
C1377 C1378 1.362 . S
C1378 H1370 0.924 1_465 S
C1378 C1377 1.362 . S
C1378 C1381 1.409 . S
C1379 H1371 0.930 . S
C1379 C1380 1.355 . S
C1379 C1381 1.415 1_655 S
C1380 C1379 1.355 . S
C1380 C1382 1.419 . S
C1381 C1376 1.425 . S
C1381 C1378 1.409 . S
C1381 C1379 1.415 1_455 S
C1382 H1372 0.930 . S
C1382 C1380 1.419 . S
C1382 C1383 1.362 1_655 S
C1383 H1373 0.930 . S
C1383 C1376 1.409 . S
C1383 C1382 1.362 1_455 S
H1384 C1390 0.930 . S
H1385 C1393 0.930 . S
H1386 C1394 0.930 . S
H1387 C1395 0.930 . S
H1388 C1398 0.930 . S
H1389 C1399 0.930 . S
C1390 H1384 0.930 . S
C1390 C1391 1.355 . S
C1390 C1392 1.415 . S
C1391 C1390 1.355 . S
C1391 C1393 1.419 . S
C1392 C1390 1.415 . S
C1392 C1397 1.425 . S
C1392 C1399 1.409 . S
C1393 H1385 0.930 . S
C1393 C1391 1.419 . S
C1393 C1394 1.362 . S
C1394 H1386 0.930 . S
C1394 C1393 1.362 . S
C1394 C1397 1.409 . S
C1395 H1387 0.930 . S
C1395 C1396 1.355 . S
C1395 C1397 1.415 . S
C1396 C1395 1.355 . S
C1396 C1398 1.419 . S
C1397 C1392 1.425 . S
C1397 C1394 1.409 . S
C1397 C1395 1.415 . S
C1398 H1388 0.930 . S
C1398 C1396 1.419 . S
C1398 C1399 1.362 . S
C1399 H1389 0.930 . S
C1399 C1392 1.409 . S
C1399 C1398 1.362 . S
H1400 C1406 0.930 . S
H1401 C1409 0.930 . S
H1402 C1410 0.930 . S
H1403 C1411 0.930 . S
H1404 C1414 0.930 . S
H1405 C1415 0.930 . S
C1406 H1400 0.930 . S
C1406 C1407 1.355 . S
C1406 C1408 1.415 . S
C1407 C1406 1.355 . S
C1407 C1409 1.419 . S
C1408 C1406 1.415 . S
C1408 C1413 1.425 . S
C1408 C1415 1.409 . S
C1409 H1401 0.930 . S
C1409 C1407 1.419 . S
C1409 C1410 1.362 . S
C1410 H1402 0.930 . S
C1410 C1409 1.362 . S
C1410 C1413 1.409 . S
C1411 H1403 0.930 . S
C1411 C1412 1.355 . S
C1411 C1413 1.415 1_455 S
C1412 C1411 1.355 . S
C1412 C1414 1.419 . S
C1413 C1408 1.425 . S
C1413 C1410 1.409 . S
C1413 C1411 1.415 1_655 S
C1414 H1404 0.930 . S
C1414 C1412 1.419 . S
C1414 C1415 1.362 1_455 S
C1415 H1405 0.930 . S
C1415 C1408 1.409 . S
C1415 C1414 1.362 1_655 S
H1416 C1422 0.930 . S
H1417 C1425 0.930 . S
H1418 C1426 0.930 . S
H1419 C1427 0.930 . S
H1420 C1430 0.930 . S
H1421 C1431 0.930 . S
C1422 H1416 0.930 . S
C1422 C1423 1.355 . S
C1422 C1424 1.415 . S
C1423 C1422 1.355 . S
C1423 C1425 1.419 . S
C1424 C1422 1.415 . S
C1424 C1429 1.425 . S
C1424 C1431 1.409 . S
C1425 H1417 0.930 . S
C1425 C1423 1.419 . S
C1425 C1426 1.362 . S
C1426 H1418 0.930 . S
C1426 C1425 1.362 . S
C1426 C1429 1.409 . S
C1427 H1419 0.930 . S
C1427 C1428 1.355 . S
C1427 C1429 1.415 . S
C1428 C1427 1.355 . S
C1428 C1430 1.419 . S
C1429 C1424 1.425 . S
C1429 C1426 1.409 . S
C1429 C1427 1.415 . S
C1430 H1420 0.930 . S
C1430 C1428 1.419 . S
C1430 C1431 1.362 . S
C1431 H1421 0.930 . S
C1431 C1424 1.409 . S
C1431 C1430 1.362 . S
H1432 C1438 0.930 . S
H1433 C1441 0.930 . S
H1434 C1442 0.930 . S
H1435 C1443 0.930 . S
H1436 C1446 0.930 . S
H1437 C1447 0.930 . S
C1438 H1432 0.930 . S
C1438 C1439 1.355 . S
C1438 C1440 1.415 . S
C1439 C1438 1.355 . S
C1439 C1441 1.419 . S
C1440 C1438 1.415 . S
C1440 C1445 1.425 . S
C1440 C1447 1.409 . S
C1441 H1433 0.930 . S
C1441 C1439 1.419 . S
C1441 C1442 1.362 . S
C1442 H1434 0.930 . S
C1442 C1441 1.362 . S
C1442 C1445 1.409 . S
C1443 H1435 0.930 . S
C1443 C1444 1.355 . S
C1443 C1445 1.415 . S
C1444 C1443 1.355 . S
C1444 C1446 1.419 . S
C1445 C1440 1.425 . S
C1445 C1442 1.409 . S
C1445 C1443 1.415 . S
C1446 H1436 0.930 . S
C1446 C1444 1.419 . S
C1446 C1447 1.362 . S
C1447 H1437 0.930 . S
C1447 C1440 1.409 . S
C1447 C1446 1.362 . S
H1448 C1454 0.930 . S
H1449 C1457 0.930 . S
H1450 C1458 0.930 1_556 S
H1451 C1459 0.930 . S
H1452 C1462 0.935 . S
H1453 C1463 0.930 . S
C1454 H1448 0.930 . S
C1454 C1455 1.355 . S
C1454 C1456 1.415 . S
C1455 C1454 1.355 . S
C1455 C1457 1.419 . S
C1456 C1454 1.415 . S
C1456 C1461 1.425 . S
C1456 C1463 1.409 . S
C1457 H1449 0.930 . S
C1457 C1455 1.419 . S
C1457 C1458 1.362 . S
C1458 H1450 0.930 1_554 S
C1458 C1457 1.362 . S
C1458 C1461 1.409 . S
C1459 H1451 0.930 . S
C1459 C1460 1.355 . S
C1459 C1461 1.415 1_556 S
C1460 C1459 1.355 . S
C1460 C1462 1.449 . S
C1461 C1456 1.425 . S
C1461 C1458 1.409 . S
C1461 C1459 1.415 1_554 S
C1462 H1452 0.935 . S
C1462 C1460 1.449 . S
C1462 C1463 1.329 1_556 S
C1463 H1453 0.930 . S
C1463 C1456 1.409 . S
C1463 C1462 1.329 1_554 S
H1464 C1470 0.930 . S
H1465 C1473 0.930 . S
H1466 C1474 0.930 . S
H1467 C1475 0.930 . S
H1468 C1478 0.930 . S
H1469 C1479 0.930 . S
C1470 H1464 0.930 . S
C1470 C1471 1.355 . S
C1470 C1472 1.415 . S
C1471 C1470 1.355 . S
C1471 C1473 1.419 . S
C1472 C1470 1.415 . S
C1472 C1477 1.425 . S
C1472 C1479 1.409 . S
C1473 H1465 0.930 . S
C1473 C1471 1.419 . S
C1473 C1474 1.362 . S
C1474 H1466 0.930 . S
C1474 C1473 1.362 . S
C1474 C1477 1.409 . S
C1475 H1467 0.930 . S
C1475 C1476 1.355 . S
C1475 C1477 1.415 . S
C1476 C1475 1.355 . S
C1476 C1478 1.419 . S
C1477 C1472 1.425 . S
C1477 C1474 1.409 . S
C1477 C1475 1.415 . S
C1478 H1468 0.930 . S
C1478 C1476 1.419 . S
C1478 C1479 1.362 . S
C1479 H1469 0.930 . S
C1479 C1472 1.409 . S
C1479 C1478 1.362 . S
H1480 C1486 0.930 . S
H1481 C1489 0.930 . S
H1482 C1490 0.930 . S
H1483 C1491 0.930 . S
H1484 C1494 0.930 . S
H1485 C1495 0.930 . S
C1486 H1480 0.930 . S
C1486 C1487 1.355 . S
C1486 C1488 1.415 . S
C1487 C1486 1.355 . S
C1487 C1489 1.419 . S
C1488 C1486 1.415 . S
C1488 C1493 1.425 . S
C1488 C1495 1.409 . S
C1489 H1481 0.930 . S
C1489 C1487 1.419 . S
C1489 C1490 1.362 . S
C1490 H1482 0.930 . S
C1490 C1489 1.362 . S
C1490 C1493 1.409 . S
C1491 H1483 0.930 . S
C1491 C1492 1.355 . S
C1491 C1493 1.415 . S
C1492 C1491 1.355 . S
C1492 C1494 1.419 . S
C1493 C1488 1.425 . S
C1493 C1490 1.409 . S
C1493 C1491 1.415 . S
C1494 H1484 0.930 . S
C1494 C1492 1.419 . S
C1494 C1495 1.362 . S
C1495 H1485 0.930 . S
C1495 C1488 1.409 . S
C1495 C1494 1.362 . S
H1496 C1502 0.930 . S
H1497 C1505 0.930 . S
H1498 C1506 0.930 . S
H1499 C1507 0.930 . S
H1500 C1510 0.930 . S
H1501 C1511 0.930 . S
C1502 H1496 0.930 . S
C1502 C1503 1.355 . S
C1502 C1504 1.415 . S
C1503 C1502 1.355 . S
C1503 C1505 1.419 . S
C1504 C1502 1.415 . S
C1504 C1509 1.425 . S
C1504 C1511 1.409 . S
C1505 H1497 0.930 . S
C1505 C1503 1.419 . S
C1505 C1506 1.362 . S
C1506 H1498 0.930 . S
C1506 C1505 1.362 . S
C1506 C1509 1.409 . S
C1507 H1499 0.930 . S
C1507 C1508 1.355 . S
C1507 C1509 1.415 . S
C1508 C1507 1.355 . S
C1508 C1510 1.419 . S
C1509 C1504 1.425 . S
C1509 C1506 1.409 . S
C1509 C1507 1.415 . S
C1510 H1500 0.930 . S
C1510 C1508 1.419 . S
C1510 C1511 1.362 . S
C1511 H1501 0.930 . S
C1511 C1504 1.409 . S
C1511 C1510 1.362 . S
H1512 C1518 0.930 . S
H1513 C1521 0.930 . S
H1514 C1522 0.930 1_554 S
H1515 C1523 0.930 . S
H1516 C1526 0.930 . S
H1517 C1527 0.930 . S
C1518 H1512 0.930 . S
C1518 C1519 1.355 . S
C1518 C1520 1.415 . S
C1519 C1518 1.355 . S
C1519 C1521 1.419 . S
C1520 C1518 1.415 . S
C1520 C1525 1.431 . S
C1520 C1527 1.409 . S
C1521 H1513 0.930 . S
C1521 C1519 1.419 . S
C1521 C1522 1.362 . S
C1522 H1514 0.930 1_556 S
C1522 C1521 1.362 . S
C1522 C1525 1.410 . S
C1523 H1515 0.930 . S
C1523 C1524 1.355 . S
C1523 C1525 1.408 1_554 S
C1524 C1523 1.355 . S
C1524 C1526 1.419 . S
C1525 C1520 1.431 . S
C1525 C1522 1.410 . S
C1525 C1523 1.408 1_556 S
C1526 H1516 0.930 . S
C1526 C1524 1.419 . S
C1526 C1527 1.362 1_554 S
C1527 H1517 0.930 . S
C1527 C1520 1.409 . S
C1527 C1526 1.362 1_556 S
H1528 C1534 0.930 . S
H1529 C1537 0.930 . S
H1530 C1538 0.930 . S
H1531 C1539 0.930 . S
H1532 C1542 0.930 . S
H1533 C1543 0.930 . S
C1534 H1528 0.930 . S
C1534 C1535 1.355 . S
C1534 C1536 1.415 . S
C1535 C1534 1.355 . S
C1535 C1537 1.419 . S
C1536 C1534 1.415 . S
C1536 C1541 1.425 . S
C1536 C1543 1.409 . S
C1537 H1529 0.930 . S
C1537 C1535 1.419 . S
C1537 C1538 1.362 . S
C1538 H1530 0.930 . S
C1538 C1537 1.362 . S
C1538 C1541 1.409 . S
C1539 H1531 0.930 . S
C1539 C1540 1.355 . S
C1539 C1541 1.415 . S
C1540 C1539 1.355 . S
C1540 C1542 1.419 . S
C1541 C1536 1.425 . S
C1541 C1538 1.409 . S
C1541 C1539 1.415 . S
C1542 H1532 0.930 . S
C1542 C1540 1.419 . S
C1542 C1543 1.362 . S
C1543 H1533 0.930 . S
C1543 C1536 1.409 . S
C1543 C1542 1.362 . S
H1544 C1550 0.930 . S
H1545 C1553 0.930 . S
H1546 C1554 0.930 . S
H1547 C1555 0.930 . S
H1548 C1558 0.930 . S
H1549 C1559 0.930 . S
C1550 H1544 0.930 . S
C1550 C1551 1.355 . S
C1550 C1552 1.415 . S
C1551 C1550 1.355 . S
C1551 C1553 1.419 . S
C1552 C1550 1.415 . S
C1552 C1557 1.425 . S
C1552 C1559 1.409 . S
C1553 H1545 0.930 . S
C1553 C1551 1.419 . S
C1553 C1554 1.362 . S
C1554 H1546 0.930 . S
C1554 C1553 1.362 . S
C1554 C1557 1.409 . S
C1555 H1547 0.930 . S
C1555 C1556 1.355 . S
C1555 C1557 1.415 . S
C1556 C1555 1.355 . S
C1556 C1558 1.419 . S
C1557 C1552 1.425 . S
C1557 C1554 1.409 . S
C1557 C1555 1.415 . S
C1558 H1548 0.930 . S
C1558 C1556 1.419 . S
C1558 C1559 1.362 . S
C1559 H1549 0.930 . S
C1559 C1552 1.409 . S
C1559 C1558 1.362 . S
H1560 C1566 0.930 . S
H1561 C1569 0.930 . S
H1562 C1570 0.930 . S
H1563 C1571 0.930 . S
H1564 C1574 0.930 . S
H1565 C1575 0.930 . S
C1566 H1560 0.930 . S
C1566 C1567 1.355 . S
C1566 C1568 1.415 . S
C1567 C1566 1.355 . S
C1567 C1569 1.419 . S
C1568 C1566 1.415 . S
C1568 C1573 1.425 . S
C1568 C1575 1.409 . S
C1569 H1561 0.930 . S
C1569 C1567 1.419 . S
C1569 C1570 1.362 . S
C1570 H1562 0.930 . S
C1570 C1569 1.362 . S
C1570 C1573 1.409 . S
C1571 H1563 0.930 . S
C1571 C1572 1.355 . S
C1571 C1573 1.415 . S
C1572 C1571 1.355 . S
C1572 C1574 1.419 . S
C1573 C1568 1.425 . S
C1573 C1570 1.409 . S
C1573 C1571 1.415 . S
C1574 H1564 0.930 . S
C1574 C1572 1.419 . S
C1574 C1575 1.362 . S
C1575 H1565 0.930 . S
C1575 C1568 1.409 . S
C1575 C1574 1.362 . S
H1576 C1582 0.930 . S
H1577 C1585 0.930 . S
H1578 C1586 0.930 . S
H1579 C1587 0.930 . S
H1580 C1590 0.930 . S
H1581 C1591 0.930 . S
C1582 H1576 0.930 . S
C1582 C1583 1.355 . S
C1582 C1584 1.415 . S
C1583 C1582 1.355 . S
C1583 C1585 1.419 . S
C1584 C1582 1.415 . S
C1584 C1589 1.425 . S
C1584 C1591 1.409 . S
C1585 H1577 0.930 . S
C1585 C1583 1.419 . S
C1585 C1586 1.362 . S
C1586 H1578 0.930 . S
C1586 C1585 1.362 . S
C1586 C1589 1.409 . S
C1587 H1579 0.930 . S
C1587 C1588 1.355 . S
C1587 C1589 1.415 . S
C1588 C1587 1.355 . S
C1588 C1590 1.419 . S
C1589 C1584 1.425 . S
C1589 C1586 1.409 . S
C1589 C1587 1.415 . S
C1590 H1580 0.930 . S
C1590 C1588 1.419 . S
C1590 C1591 1.362 . S
C1591 H1581 0.930 . S
C1591 C1584 1.409 . S
C1591 C1590 1.362 . S
H1592 C1598 0.930 . S
H1593 C1601 0.930 . S
H1594 C1602 0.930 . S
H1595 C1603 0.930 . S
H1596 C1606 0.930 . S
H1597 C1607 0.930 . S
C1598 H1592 0.930 . S
C1598 C1599 1.355 . S
C1598 C1600 1.415 . S
C1599 C1598 1.355 . S
C1599 C1601 1.419 . S
C1600 C1598 1.415 . S
C1600 C1605 1.425 . S
C1600 C1607 1.409 . S
C1601 H1593 0.930 . S
C1601 C1599 1.419 . S
C1601 C1602 1.362 . S
C1602 H1594 0.930 . S
C1602 C1601 1.362 . S
C1602 C1605 1.409 . S
C1603 H1595 0.930 . S
C1603 C1604 1.355 . S
C1603 C1605 1.415 . S
C1604 C1603 1.355 . S
C1604 C1606 1.419 . S
C1605 C1600 1.425 . S
C1605 C1602 1.409 . S
C1605 C1603 1.415 . S
C1606 H1596 0.930 . S
C1606 C1604 1.419 . S
C1606 C1607 1.362 . S
C1607 H1597 0.930 . S
C1607 C1600 1.409 . S
C1607 C1606 1.362 . S
H1608 C1614 0.930 . S
H1609 C1617 0.930 . S
H1610 C1618 0.930 . S
H1611 C1619 0.930 . S
H1612 C1622 0.930 . S
H1613 C1623 0.930 . S
C1614 H1608 0.930 . S
C1614 C1615 1.355 . S
C1614 C1616 1.415 . S
C1615 C1614 1.355 . S
C1615 C1617 1.419 . S
C1616 C1614 1.415 . S
C1616 C1621 1.425 . S
C1616 C1623 1.409 . S
C1617 H1609 0.930 . S
C1617 C1615 1.419 . S
C1617 C1618 1.362 . S
C1618 H1610 0.930 . S
C1618 C1617 1.362 . S
C1618 C1621 1.409 . S
C1619 H1611 0.930 . S
C1619 C1620 1.355 . S
C1619 C1621 1.415 . S
C1620 C1619 1.355 . S
C1620 C1622 1.419 . S
C1621 C1616 1.425 . S
C1621 C1618 1.409 . S
C1621 C1619 1.415 . S
C1622 H1612 0.930 . S
C1622 C1620 1.419 . S
C1622 C1623 1.362 . S
C1623 H1613 0.930 . S
C1623 C1616 1.409 . S
C1623 C1622 1.362 . S
H1624 C1630 0.930 . S
H1625 C1633 0.930 . S
H1626 C1634 0.930 . S
H1627 C1635 0.930 . S
H1628 C1638 0.930 . S
H1629 C1639 0.930 . S
C1630 H1624 0.930 . S
C1630 C1631 1.355 . S
C1630 C1632 1.415 . S
C1631 C1630 1.355 . S
C1631 C1633 1.419 . S
C1632 C1630 1.415 . S
C1632 C1637 1.425 . S
C1632 C1639 1.409 . S
C1633 H1625 0.930 . S
C1633 C1631 1.419 . S
C1633 C1634 1.362 . S
C1634 H1626 0.930 . S
C1634 C1633 1.362 . S
C1634 C1637 1.409 . S
C1635 H1627 0.930 . S
C1635 C1636 1.355 . S
C1635 C1637 1.415 . S
C1636 C1635 1.355 . S
C1636 C1638 1.419 . S
C1637 C1632 1.425 . S
C1637 C1634 1.409 . S
C1637 C1635 1.415 . S
C1638 H1628 0.930 . S
C1638 C1636 1.419 . S
C1638 C1639 1.362 . S
C1639 H1629 0.930 . S
C1639 C1632 1.409 . S
C1639 C1638 1.362 . S
H1640 C1646 0.930 . S
H1641 C1649 0.930 . S
H1642 C1650 0.930 . S
H1643 C1651 0.930 . S
H1644 C1654 0.930 . S
H1645 C1655 0.930 . S
C1646 H1640 0.930 . S
C1646 C1647 1.355 . S
C1646 C1648 1.415 . S
C1647 C1646 1.355 . S
C1647 C1649 1.419 . S
C1648 C1646 1.415 . S
C1648 C1653 1.425 . S
C1648 C1655 1.409 . S
C1649 H1641 0.930 . S
C1649 C1647 1.419 . S
C1649 C1650 1.362 . S
C1650 H1642 0.930 . S
C1650 C1649 1.362 . S
C1650 C1653 1.409 . S
C1651 H1643 0.930 . S
C1651 C1652 1.355 . S
C1651 C1653 1.415 . S
C1652 C1651 1.355 . S
C1652 C1654 1.419 . S
C1653 C1648 1.425 . S
C1653 C1650 1.409 . S
C1653 C1651 1.415 . S
C1654 H1644 0.930 . S
C1654 C1652 1.419 . S
C1654 C1655 1.362 . S
C1655 H1645 0.930 . S
C1655 C1648 1.409 . S
C1655 C1654 1.362 . S
H1656 C1662 0.930 . S
H1657 C1665 0.930 . S
H1658 C1666 0.930 . S
H1659 C1667 0.930 . S
H1660 C1670 0.930 . S
H1661 C1671 0.930 . S
C1662 H1656 0.930 . S
C1662 C1663 1.355 . S
C1662 C1664 1.415 . S
C1663 C1662 1.355 . S
C1663 C1665 1.419 . S
C1664 C1662 1.415 . S
C1664 C1669 1.425 . S
C1664 C1671 1.409 . S
C1665 H1657 0.930 . S
C1665 C1663 1.419 . S
C1665 C1666 1.362 . S
C1666 H1658 0.930 . S
C1666 C1665 1.362 . S
C1666 C1669 1.409 . S
C1667 H1659 0.930 . S
C1667 C1668 1.355 . S
C1667 C1669 1.415 . S
C1668 C1667 1.355 . S
C1668 C1670 1.419 . S
C1669 C1664 1.425 . S
C1669 C1666 1.409 . S
C1669 C1667 1.415 . S
C1670 H1660 0.930 . S
C1670 C1668 1.419 . S
C1670 C1671 1.362 . S
C1671 H1661 0.930 . S
C1671 C1664 1.409 . S
C1671 C1670 1.362 . S
H1672 C1678 0.930 . S
H1673 C1681 0.930 . S
H1674 C1682 0.930 . S
H1675 C1683 0.930 . S
H1676 C1686 0.930 . S
H1677 C1687 0.930 . S
C1678 H1672 0.930 . S
C1678 C1679 1.355 . S
C1678 C1680 1.415 . S
C1679 C1678 1.355 . S
C1679 C1681 1.419 . S
C1680 C1678 1.415 . S
C1680 C1685 1.425 . S
C1680 C1687 1.409 . S
C1681 H1673 0.930 . S
C1681 C1679 1.419 . S
C1681 C1682 1.362 . S
C1682 H1674 0.930 . S
C1682 C1681 1.362 . S
C1682 C1685 1.409 . S
C1683 H1675 0.930 . S
C1683 C1684 1.355 . S
C1683 C1685 1.415 . S
C1684 C1683 1.355 . S
C1684 C1686 1.419 . S
C1685 C1680 1.425 . S
C1685 C1682 1.409 . S
C1685 C1683 1.415 . S
C1686 H1676 0.930 . S
C1686 C1684 1.419 . S
C1686 C1687 1.362 . S
C1687 H1677 0.930 . S
C1687 C1680 1.409 . S
C1687 C1686 1.362 . S
H1688 C1694 0.930 . S
H1689 C1697 0.930 . S
H1690 C1698 0.930 . S
H1691 C1699 0.930 . S
H1692 C1702 0.930 . S
H1693 C1703 0.930 . S
C1694 H1688 0.930 . S
C1694 C1695 1.355 . S
C1694 C1696 1.415 . S
C1695 C1694 1.355 . S
C1695 C1697 1.419 . S
C1696 C1694 1.415 . S
C1696 C1701 1.425 . S
C1696 C1703 1.409 . S
C1697 H1689 0.930 . S
C1697 C1695 1.419 . S
C1697 C1698 1.362 . S
C1698 H1690 0.930 . S
C1698 C1697 1.362 . S
C1698 C1701 1.409 . S
C1699 H1691 0.930 . S
C1699 C1700 1.355 . S
C1699 C1701 1.415 . S
C1700 C1699 1.355 . S
C1700 C1702 1.419 . S
C1701 C1696 1.425 . S
C1701 C1698 1.409 . S
C1701 C1699 1.415 . S
C1702 H1692 0.930 . S
C1702 C1700 1.419 . S
C1702 C1703 1.362 . S
C1703 H1693 0.930 . S
C1703 C1696 1.409 . S
C1703 C1702 1.362 . S
H1704 C1710 0.930 . S
H1705 C1713 0.930 . S
H1706 C1714 0.930 . S
H1707 C1715 0.930 . S
H1708 C1718 0.930 . S
H1709 C1719 0.930 . S
C1710 H1704 0.930 . S
C1710 C1711 1.355 . S
C1710 C1712 1.415 . S
C1711 C1710 1.355 . S
C1711 C1713 1.419 . S
C1712 C1710 1.415 . S
C1712 C1717 1.425 . S
C1712 C1719 1.409 . S
C1713 H1705 0.930 . S
C1713 C1711 1.419 . S
C1713 C1714 1.362 . S
C1714 H1706 0.930 . S
C1714 C1713 1.362 . S
C1714 C1717 1.409 . S
C1715 H1707 0.930 . S
C1715 C1716 1.355 . S
C1715 C1717 1.415 . S
C1716 C1715 1.355 . S
C1716 C1718 1.419 . S
C1717 C1712 1.425 . S
C1717 C1714 1.409 . S
C1717 C1715 1.415 . S
C1718 H1708 0.930 . S
C1718 C1716 1.419 . S
C1718 C1719 1.362 . S
C1719 H1709 0.930 . S
C1719 C1712 1.409 . S
C1719 C1718 1.362 . S
H1720 C1726 0.930 . S
H1721 C1729 0.930 . S
H1722 C1730 0.930 . S
H1723 C1731 0.930 . S
H1724 C1734 0.930 . S
H1725 C1735 0.930 . S
C1726 H1720 0.930 . S
C1726 C1727 1.355 . S
C1726 C1728 1.415 . S
C1727 C1726 1.355 . S
C1727 C1729 1.419 . S
C1728 C1726 1.415 . S
C1728 C1733 1.425 . S
C1728 C1735 1.409 . S
C1729 H1721 0.930 . S
C1729 C1727 1.419 . S
C1729 C1730 1.362 . S
C1730 H1722 0.930 . S
C1730 C1729 1.362 . S
C1730 C1733 1.409 . S
C1731 H1723 0.930 . S
C1731 C1732 1.355 . S
C1731 C1733 1.415 . S
C1732 C1731 1.355 . S
C1732 C1734 1.419 . S
C1733 C1728 1.425 . S
C1733 C1730 1.409 . S
C1733 C1731 1.415 . S
C1734 H1724 0.930 . S
C1734 C1732 1.419 . S
C1734 C1735 1.362 . S
C1735 H1725 0.930 . S
C1735 C1728 1.409 . S
C1735 C1734 1.362 . S
H1736 C1742 0.930 . S
H1737 C1745 0.930 . S
H1738 C1746 0.930 . S
H1739 C1747 0.930 . S
H1740 C1750 0.930 . S
H1741 C1751 0.930 . S
C1742 H1736 0.930 . S
C1742 C1743 1.355 . S
C1742 C1744 1.415 . S
C1743 C1742 1.355 . S
C1743 C1745 1.419 . S
C1744 C1742 1.415 . S
C1744 C1749 1.425 . S
C1744 C1751 1.409 . S
C1745 H1737 0.930 . S
C1745 C1743 1.419 . S
C1745 C1746 1.362 . S
C1746 H1738 0.930 . S
C1746 C1745 1.362 . S
C1746 C1749 1.409 . S
C1747 H1739 0.930 . S
C1747 C1748 1.355 . S
C1747 C1749 1.415 . S
C1748 C1747 1.355 . S
C1748 C1750 1.419 . S
C1749 C1744 1.425 . S
C1749 C1746 1.409 . S
C1749 C1747 1.415 . S
C1750 H1740 0.930 . S
C1750 C1748 1.419 . S
C1750 C1751 1.362 . S
C1751 H1741 0.930 . S
C1751 C1744 1.409 . S
C1751 C1750 1.362 . S
H1752 C1758 0.930 . S
H1753 C1761 0.930 . S
H1754 C1762 0.930 . S
H1755 C1763 0.930 . S
H1756 C1766 0.930 . S
H1757 C1767 0.930 . S
C1758 H1752 0.930 . S
C1758 C1759 1.355 . S
C1758 C1760 1.415 . S
C1759 C1758 1.355 . S
C1759 C1761 1.419 . S
C1760 C1758 1.415 . S
C1760 C1765 1.425 . S
C1760 C1767 1.409 . S
C1761 H1753 0.930 . S
C1761 C1759 1.419 . S
C1761 C1762 1.362 . S
C1762 H1754 0.930 . S
C1762 C1761 1.362 . S
C1762 C1765 1.409 . S
C1763 H1755 0.930 . S
C1763 C1764 1.355 . S
C1763 C1765 1.415 . S
C1764 C1763 1.355 . S
C1764 C1766 1.419 . S
C1765 C1760 1.425 . S
C1765 C1762 1.409 . S
C1765 C1763 1.415 . S
C1766 H1756 0.930 . S
C1766 C1764 1.419 . S
C1766 C1767 1.362 . S
C1767 H1757 0.930 . S
C1767 C1760 1.409 . S
C1767 C1766 1.362 . S
H1768 C1774 0.930 . S
H1769 C1777 0.930 1_556 S
H1770 C1778 0.930 . S
H1771 C1779 0.930 . S
H1772 C1782 0.930 . S
H1773 C1783 0.930 . S
C1774 H1768 0.930 . S
C1774 C1775 1.355 . S
C1774 C1776 1.415 . S
C1775 C1774 1.355 . S
C1775 C1777 1.419 . S
C1776 C1774 1.415 . S
C1776 C1781 1.425 . S
C1776 C1783 1.409 . S
C1777 H1769 0.930 1_554 S
C1777 C1775 1.419 . S
C1777 C1778 1.362 . S
C1778 H1770 0.930 . S
C1778 C1777 1.362 . S
C1778 C1781 1.409 . S
C1779 H1771 0.930 . S
C1779 C1780 1.355 . S
C1779 C1781 1.415 . S
C1780 C1779 1.355 . S
C1780 C1782 1.419 . S
C1781 C1776 1.425 . S
C1781 C1778 1.409 . S
C1781 C1779 1.415 . S
C1782 H1772 0.930 . S
C1782 C1780 1.419 . S
C1782 C1783 1.362 . S
C1783 H1773 0.930 . S
C1783 C1776 1.409 . S
C1783 C1782 1.362 . S
H1784 C1790 0.930 . S
H1785 C1793 0.930 . S
H1786 C1794 0.930 . S
H1787 C1795 0.930 . S
H1788 C1798 0.930 . S
H1789 C1799 0.930 . S
C1790 H1784 0.930 . S
C1790 C1791 1.355 . S
C1790 C1792 1.415 . S
C1791 C1790 1.355 . S
C1791 C1793 1.419 . S
C1792 C1790 1.415 . S
C1792 C1797 1.425 . S
C1792 C1799 1.409 . S
C1793 H1785 0.930 . S
C1793 C1791 1.419 . S
C1793 C1794 1.362 . S
C1794 H1786 0.930 . S
C1794 C1793 1.362 . S
C1794 C1797 1.409 . S
C1795 H1787 0.930 . S
C1795 C1796 1.355 . S
C1795 C1797 1.415 . S
C1796 C1795 1.355 . S
C1796 C1798 1.419 . S
C1797 C1792 1.425 . S
C1797 C1794 1.409 . S
C1797 C1795 1.415 . S
C1798 H1788 0.930 . S
C1798 C1796 1.419 . S
C1798 C1799 1.362 . S
C1799 H1789 0.930 . S
C1799 C1792 1.409 . S
C1799 C1798 1.362 . S
H1800 C1806 0.930 . S
H1801 C1809 0.930 . S
H1802 C1810 0.930 . S
H1803 C1811 0.930 . S
H1804 C1814 0.930 . S
H1805 C1815 0.930 . S
C1806 H1800 0.930 . S
C1806 C1807 1.355 . S
C1806 C1808 1.415 . S
C1807 C1806 1.355 . S
C1807 C1809 1.419 . S
C1808 C1806 1.415 . S
C1808 C1813 1.425 . S
C1808 C1815 1.409 . S
C1809 H1801 0.930 . S
C1809 C1807 1.419 . S
C1809 C1810 1.362 . S
C1810 H1802 0.930 . S
C1810 C1809 1.362 . S
C1810 C1813 1.409 . S
C1811 H1803 0.930 . S
C1811 C1812 1.355 . S
C1811 C1813 1.415 1_455 S
C1812 C1811 1.355 . S
C1812 C1814 1.419 . S
C1813 C1808 1.425 . S
C1813 C1810 1.409 . S
C1813 C1811 1.415 1_655 S
C1814 H1804 0.930 . S
C1814 C1812 1.419 . S
C1814 C1815 1.362 1_455 S
C1815 H1805 0.930 . S
C1815 C1808 1.409 . S
C1815 C1814 1.362 1_655 S
H1816 C1822 0.930 . S
H1817 C1825 0.930 . S
H1818 C1826 0.930 . S
H1819 C1827 0.930 . S
H1820 C1830 0.930 . S
H1821 C1831 0.930 . S
C1822 H1816 0.930 . S
C1822 C1823 1.355 . S
C1822 C1824 1.415 . S
C1823 C1822 1.355 . S
C1823 C1825 1.419 . S
C1824 C1822 1.415 . S
C1824 C1829 1.425 . S
C1824 C1831 1.409 . S
C1825 H1817 0.930 . S
C1825 C1823 1.419 . S
C1825 C1826 1.362 . S
C1826 H1818 0.930 . S
C1826 C1825 1.362 . S
C1826 C1829 1.409 . S
C1827 H1819 0.930 . S
C1827 C1828 1.355 . S
C1827 C1829 1.415 . S
C1828 C1827 1.355 . S
C1828 C1830 1.419 . S
C1829 C1824 1.425 . S
C1829 C1826 1.409 . S
C1829 C1827 1.415 . S
C1830 H1820 0.930 . S
C1830 C1828 1.419 . S
C1830 C1831 1.362 . S
C1831 H1821 0.930 . S
C1831 C1824 1.409 . S
C1831 C1830 1.362 . S
H1832 C1838 0.930 . S
H1833 C1841 0.930 . S
H1834 C1842 0.930 . S
H1835 C1843 0.930 . S
H1836 C1846 0.930 . S
H1837 C1847 0.930 1_556 S
C1838 H1832 0.930 . S
C1838 C1839 1.355 . S
C1838 C1840 1.415 . S
C1839 C1838 1.355 . S
C1839 C1841 1.419 . S
C1840 C1838 1.415 . S
C1840 C1845 1.425 . S
C1840 C1847 1.409 1_556 S
C1841 H1833 0.930 . S
C1841 C1839 1.419 . S
C1841 C1842 1.362 . S
C1842 H1834 0.930 . S
C1842 C1841 1.362 . S
C1842 C1845 1.409 . S
C1843 H1835 0.930 . S
C1843 C1844 1.355 . S
C1843 C1845 1.415 1_554 S
C1844 C1843 1.355 . S
C1844 C1846 1.419 . S
C1845 C1840 1.425 . S
C1845 C1842 1.409 . S
C1845 C1843 1.415 1_556 S
C1846 H1836 0.930 . S
C1846 C1844 1.419 . S
C1846 C1847 1.362 . S
C1847 H1837 0.930 1_554 S
C1847 C1840 1.409 1_554 S
C1847 C1846 1.362 . S
H1848 C1854 0.930 . S
H1849 C1857 0.930 . S
H1850 C1858 0.930 . S
H1851 C1859 0.930 . S
H1852 C1862 0.930 . S
H1853 C1863 0.930 . S
C1854 H1848 0.930 . S
C1854 C1855 1.355 . S
C1854 C1856 1.415 . S
C1855 C1854 1.355 . S
C1855 C1857 1.419 . S
C1856 C1854 1.415 . S
C1856 C1861 1.425 . S
C1856 C1863 1.409 . S
C1857 H1849 0.930 . S
C1857 C1855 1.419 . S
C1857 C1858 1.362 . S
C1858 H1850 0.930 . S
C1858 C1857 1.362 . S
C1858 C1861 1.409 . S
C1859 H1851 0.930 . S
C1859 C1860 1.355 . S
C1859 C1861 1.415 . S
C1860 C1859 1.355 . S
C1860 C1862 1.419 . S
C1861 C1856 1.425 . S
C1861 C1858 1.409 . S
C1861 C1859 1.415 . S
C1862 H1852 0.930 . S
C1862 C1860 1.419 . S
C1862 C1863 1.362 . S
C1863 H1853 0.930 . S
C1863 C1856 1.409 . S
C1863 C1862 1.362 . S
H1864 C1870 0.930 . S
H1865 C1873 0.930 . S
H1866 C1874 0.930 . S
H1867 C1875 0.930 . S
H1868 C1878 0.930 . S
H1869 C1879 0.930 . S
C1870 H1864 0.930 . S
C1870 C1871 1.355 . S
C1870 C1872 1.415 . S
C1871 C1870 1.355 . S
C1871 C1873 1.419 . S
C1872 C1870 1.415 . S
C1872 C1877 1.425 . S
C1872 C1879 1.409 . S
C1873 H1865 0.930 . S
C1873 C1871 1.419 . S
C1873 C1874 1.362 . S
C1874 H1866 0.930 . S
C1874 C1873 1.362 . S
C1874 C1877 1.409 . S
C1875 H1867 0.930 . S
C1875 C1876 1.355 . S
C1875 C1877 1.415 . S
C1876 C1875 1.355 . S
C1876 C1878 1.419 . S
C1877 C1872 1.425 . S
C1877 C1874 1.409 . S
C1877 C1875 1.415 . S
C1878 H1868 0.930 . S
C1878 C1876 1.419 . S
C1878 C1879 1.362 . S
C1879 H1869 0.930 . S
C1879 C1872 1.409 . S
C1879 C1878 1.362 . S
H1880 C1886 0.930 . S
H1881 C1889 0.930 . S
H1882 C1890 0.930 . S
H1883 C1891 0.930 . S
H1884 C1894 0.930 . S
H1885 C1895 0.930 . S
C1886 H1880 0.930 . S
C1886 C1887 1.355 . S
C1886 C1888 1.415 . S
C1887 C1886 1.355 . S
C1887 C1889 1.419 . S
C1888 C1886 1.415 . S
C1888 C1893 1.425 . S
C1888 C1895 1.409 . S
C1889 H1881 0.930 . S
C1889 C1887 1.419 . S
C1889 C1890 1.362 . S
C1890 H1882 0.930 . S
C1890 C1889 1.362 . S
C1890 C1893 1.409 . S
C1891 H1883 0.930 . S
C1891 C1892 1.355 . S
C1891 C1893 1.415 . S
C1892 C1891 1.355 . S
C1892 C1894 1.419 . S
C1893 C1888 1.425 . S
C1893 C1890 1.409 . S
C1893 C1891 1.415 . S
C1894 H1884 0.930 . S
C1894 C1892 1.419 . S
C1894 C1895 1.362 . S
C1895 H1885 0.930 . S
C1895 C1888 1.409 . S
C1895 C1894 1.362 . S
H1896 C1902 0.930 . S
H1897 C1905 0.930 1_655 S
H1898 C1906 0.930 . S
H1899 C1907 0.930 . S
H1900 C1910 0.930 . S
H1901 C1911 0.930 . S
C1902 H1896 0.930 . S
C1902 C1903 1.355 . S
C1902 C1904 1.415 . S
C1903 C1902 1.355 . S
C1903 C1905 1.419 . S
C1904 C1902 1.415 . S
C1904 C1909 1.425 . S
C1904 C1911 1.409 . S
C1905 H1897 0.930 1_455 S
C1905 C1903 1.419 . S
C1905 C1906 1.362 . S
C1906 H1898 0.930 . S
C1906 C1905 1.362 . S
C1906 C1909 1.409 . S
C1907 H1899 0.930 . S
C1907 C1908 1.355 . S
C1907 C1909 1.415 1_556 S
C1908 C1907 1.355 . S
C1908 C1910 1.419 . S
C1909 C1904 1.425 . S
C1909 C1906 1.409 . S
C1909 C1907 1.415 1_554 S
C1910 H1900 0.930 . S
C1910 C1908 1.419 . S
C1910 C1911 1.362 1_556 S
C1911 H1901 0.930 . S
C1911 C1904 1.409 . S
C1911 C1910 1.362 1_554 S
H1912 C1918 0.930 . S
H1913 C1921 0.930 . S
H1914 C1922 0.930 . S
H1915 C1923 0.930 . S
H1916 C1926 0.930 . S
H1917 C1927 0.930 . S
C1918 H1912 0.930 . S
C1918 C1919 1.355 . S
C1918 C1920 1.415 . S
C1919 C1918 1.355 . S
C1919 C1921 1.419 . S
C1920 C1918 1.415 . S
C1920 C1925 1.425 . S
C1920 C1927 1.409 . S
C1921 H1913 0.930 . S
C1921 C1919 1.419 . S
C1921 C1922 1.362 . S
C1922 H1914 0.930 . S
C1922 C1921 1.362 . S
C1922 C1925 1.409 . S
C1923 H1915 0.930 . S
C1923 C1924 1.355 . S
C1923 C1925 1.415 . S
C1924 C1923 1.355 . S
C1924 C1926 1.419 . S
C1925 C1920 1.425 . S
C1925 C1922 1.409 . S
C1925 C1923 1.415 . S
C1926 H1916 0.930 . S
C1926 C1924 1.419 . S
C1926 C1927 1.362 . S
C1927 H1917 0.930 . S
C1927 C1920 1.409 . S
C1927 C1926 1.362 . S
H1928 C1934 0.930 . S
H1929 C1937 0.930 . S
H1930 C1938 0.930 . S
H1931 C1939 0.930 . S
H1932 C1942 0.930 . S
H1933 C1943 0.930 . S
C1934 H1928 0.930 . S
C1934 C1935 1.355 . S
C1934 C1936 1.415 . S
C1935 C1934 1.355 . S
C1935 C1937 1.419 . S
C1936 C1934 1.415 . S
C1936 C1941 1.425 . S
C1936 C1943 1.409 . S
C1937 H1929 0.930 . S
C1937 C1935 1.419 . S
C1937 C1938 1.362 . S
C1938 H1930 0.930 . S
C1938 C1937 1.362 . S
C1938 C1941 1.409 . S
C1939 H1931 0.930 . S
C1939 C1940 1.355 . S
C1939 C1941 1.415 . S
C1940 C1939 1.355 . S
C1940 C1942 1.419 . S
C1941 C1936 1.425 . S
C1941 C1938 1.409 . S
C1941 C1939 1.415 . S
C1942 H1932 0.930 . S
C1942 C1940 1.419 . S
C1942 C1943 1.362 . S
C1943 H1933 0.930 . S
C1943 C1936 1.409 . S
C1943 C1942 1.362 . S
H1944 C1950 0.930 . S
H1945 C1953 0.930 . S
H1946 C1954 0.930 . S
H1947 C1955 0.930 . S
H1948 C1958 0.930 . S
H1949 C1959 0.930 . S
C1950 H1944 0.930 . S
C1950 C1951 1.355 . S
C1950 C1952 1.415 . S
C1951 C1950 1.355 . S
C1951 C1953 1.419 . S
C1952 C1950 1.415 . S
C1952 C1957 1.425 . S
C1952 C1959 1.409 . S
C1953 H1945 0.930 . S
C1953 C1951 1.419 . S
C1953 C1954 1.362 . S
C1954 H1946 0.930 . S
C1954 C1953 1.362 . S
C1954 C1957 1.409 . S
C1955 H1947 0.930 . S
C1955 C1956 1.355 . S
C1955 C1957 1.415 . S
C1956 C1955 1.355 . S
C1956 C1958 1.419 . S
C1957 C1952 1.425 . S
C1957 C1954 1.409 . S
C1957 C1955 1.415 . S
C1958 H1948 0.930 . S
C1958 C1956 1.419 . S
C1958 C1959 1.362 . S
C1959 H1949 0.930 . S
C1959 C1952 1.409 . S
C1959 C1958 1.362 . S
H1960 C1966 0.930 . S
H1961 C1969 0.930 . S
H1962 C1970 0.930 . S
H1963 C1971 0.930 . S
H1964 C1974 0.930 . S
H1965 C1975 0.930 . S
C1966 H1960 0.930 . S
C1966 C1967 1.355 . S
C1966 C1968 1.415 . S
C1967 C1966 1.355 . S
C1967 C1969 1.419 . S
C1968 C1966 1.415 . S
C1968 C1973 1.425 . S
C1968 C1975 1.409 . S
C1969 H1961 0.930 . S
C1969 C1967 1.419 . S
C1969 C1970 1.362 . S
C1970 H1962 0.930 . S
C1970 C1969 1.362 . S
C1970 C1973 1.409 . S
C1971 H1963 0.930 . S
C1971 C1972 1.355 . S
C1971 C1973 1.415 . S
C1972 C1971 1.355 . S
C1972 C1974 1.419 . S
C1973 C1968 1.425 . S
C1973 C1970 1.409 . S
C1973 C1971 1.415 . S
C1974 H1964 0.930 . S
C1974 C1972 1.419 . S
C1974 C1975 1.362 . S
C1975 H1965 0.930 . S
C1975 C1968 1.409 . S
C1975 C1974 1.362 . S
H1976 C1982 0.930 . S
H1977 C1985 0.930 . S
H1978 C1986 0.930 . S
H1979 C1987 0.930 . S
H1980 C1990 0.930 . S
H1981 C1991 0.930 . S
C1982 H1976 0.930 . S
C1982 C1983 1.355 . S
C1982 C1984 1.415 . S
C1983 C1982 1.355 . S
C1983 C1985 1.419 . S
C1984 C1982 1.415 . S
C1984 C1989 1.425 . S
C1984 C1991 1.409 . S
C1985 H1977 0.930 . S
C1985 C1983 1.419 . S
C1985 C1986 1.362 . S
C1986 H1978 0.930 . S
C1986 C1985 1.362 . S
C1986 C1989 1.409 . S
C1987 H1979 0.930 . S
C1987 C1988 1.355 . S
C1987 C1989 1.415 . S
C1988 C1987 1.355 . S
C1988 C1990 1.419 . S
C1989 C1984 1.425 . S
C1989 C1986 1.409 . S
C1989 C1987 1.415 . S
C1990 H1980 0.930 . S
C1990 C1988 1.419 . S
C1990 C1991 1.362 . S
C1991 H1981 0.930 . S
C1991 C1984 1.409 . S
C1991 C1990 1.362 . S
H1992 C1998 0.930 . S
H1993 C2001 0.930 . S
H1994 C2002 0.930 . S
H1995 C2003 0.930 . S
H1996 C2006 0.930 . S
H1997 C2007 0.930 . S
C1998 H1992 0.930 . S
C1998 C1999 1.355 . S
C1998 C2000 1.415 . S
C1999 C1998 1.355 . S
C1999 C2001 1.419 . S
C2000 C1998 1.415 . S
C2000 C2005 1.425 . S
C2000 C2007 1.409 . S
C2001 H1993 0.930 . S
C2001 C1999 1.419 . S
C2001 C2002 1.362 . S
C2002 H1994 0.930 . S
C2002 C2001 1.362 . S
C2002 C2005 1.409 . S
C2003 H1995 0.930 . S
C2003 C2004 1.355 . S
C2003 C2005 1.415 . S
C2004 C2003 1.355 . S
C2004 C2006 1.419 . S
C2005 C2000 1.425 . S
C2005 C2002 1.409 . S
C2005 C2003 1.415 . S
C2006 H1996 0.930 . S
C2006 C2004 1.419 . S
C2006 C2007 1.362 . S
C2007 H1997 0.930 . S
C2007 C2000 1.409 . S
C2007 C2006 1.362 . S
H2008 C2014 0.930 . S
H2009 C2017 0.930 . S
H2010 C2018 0.930 . S
H2011 C2019 0.930 . S
H2012 C2022 0.930 . S
H2013 C2023 0.930 . S
C2014 H2008 0.930 . S
C2014 C2015 1.355 . S
C2014 C2016 1.415 . S
C2015 C2014 1.355 . S
C2015 C2017 1.419 . S
C2016 C2014 1.415 . S
C2016 C2021 1.425 . S
C2016 C2023 1.409 . S
C2017 H2009 0.930 . S
C2017 C2015 1.419 . S
C2017 C2018 1.362 . S
C2018 H2010 0.930 . S
C2018 C2017 1.362 . S
C2018 C2021 1.409 . S
C2019 H2011 0.930 . S
C2019 C2020 1.355 . S
C2019 C2021 1.415 . S
C2020 C2019 1.355 . S
C2020 C2022 1.419 . S
C2021 C2016 1.425 . S
C2021 C2018 1.409 . S
C2021 C2019 1.415 . S
C2022 H2012 0.930 . S
C2022 C2020 1.419 . S
C2022 C2023 1.362 . S
C2023 H2013 0.930 . S
C2023 C2016 1.409 . S
C2023 C2022 1.362 . S
H2024 C2030 0.930 . S
H2025 C2033 0.930 . S
H2026 C2034 0.930 . S
H2027 C2035 0.930 . S
H2028 C2038 0.930 . S
H2029 C2039 0.930 . S
C2030 H2024 0.930 . S
C2030 C2031 1.355 . S
C2030 C2032 1.415 . S
C2031 C2030 1.355 . S
C2031 C2033 1.419 . S
C2032 C2030 1.415 . S
C2032 C2037 1.425 . S
C2032 C2039 1.409 . S
C2033 H2025 0.930 . S
C2033 C2031 1.419 . S
C2033 C2034 1.362 . S
C2034 H2026 0.930 . S
C2034 C2033 1.362 . S
C2034 C2037 1.409 . S
C2035 H2027 0.930 . S
C2035 C2036 1.355 . S
C2035 C2037 1.415 . S
C2036 C2035 1.355 . S
C2036 C2038 1.419 . S
C2037 C2032 1.425 . S
C2037 C2034 1.409 . S
C2037 C2035 1.415 . S
C2038 H2028 0.930 . S
C2038 C2036 1.419 . S
C2038 C2039 1.362 . S
C2039 H2029 0.930 . S
C2039 C2032 1.409 . S
C2039 C2038 1.362 . S
H2040 C2046 0.930 . S
H2041 C2049 0.930 . S
H2042 C2050 0.930 . S
H2043 C2051 0.930 . S
H2044 C2054 0.930 . S
H2045 C2055 0.930 . S
C2046 H2040 0.930 . S
C2046 C2047 1.355 . S
C2046 C2048 1.415 . S
C2047 C2046 1.355 . S
C2047 C2049 1.419 . S
C2048 C2046 1.415 . S
C2048 C2053 1.425 . S
C2048 C2055 1.409 . S
C2049 H2041 0.930 . S
C2049 C2047 1.419 . S
C2049 C2050 1.362 . S
C2050 H2042 0.930 . S
C2050 C2049 1.362 . S
C2050 C2053 1.409 . S
C2051 H2043 0.930 . S
C2051 C2052 1.355 . S
C2051 C2053 1.415 . S
C2052 C2051 1.355 . S
C2052 C2054 1.419 . S
C2053 C2048 1.425 . S
C2053 C2050 1.409 . S
C2053 C2051 1.415 . S
C2054 H2044 0.930 . S
C2054 C2052 1.419 . S
C2054 C2055 1.362 . S
C2055 H2045 0.930 . S
C2055 C2048 1.409 . S
C2055 C2054 1.362 . S
H2056 C2062 0.930 . S
H2057 C2065 0.930 . S
H2058 C2066 0.930 . S
H2059 C2067 0.930 . S
H2060 C2070 0.930 . S
H2061 C2071 0.930 . S
C2062 H2056 0.930 . S
C2062 C2063 1.355 . S
C2062 C2064 1.415 . S
C2063 C2062 1.355 . S
C2063 C2065 1.419 . S
C2064 C2062 1.415 . S
C2064 C2069 1.425 . S
C2064 C2071 1.409 . S
C2065 H2057 0.930 . S
C2065 C2063 1.419 . S
C2065 C2066 1.362 . S
C2066 H2058 0.930 . S
C2066 C2065 1.362 . S
C2066 C2069 1.409 . S
C2067 H2059 0.930 . S
C2067 C2068 1.355 . S
C2067 C2069 1.415 . S
C2068 C2067 1.355 . S
C2068 C2070 1.419 . S
C2069 C2064 1.425 . S
C2069 C2066 1.409 . S
C2069 C2067 1.415 . S
C2070 H2060 0.930 . S
C2070 C2068 1.419 . S
C2070 C2071 1.362 . S
C2071 H2061 0.930 . S
C2071 C2064 1.409 . S
C2071 C2070 1.362 . S
H2072 C2078 0.930 . S
H2073 C2081 0.930 . S
H2074 C2082 0.930 . S
H2075 C2083 0.930 . S
H2076 C2086 0.930 . S
H2077 C2087 0.930 . S
C2078 H2072 0.930 . S
C2078 C2079 1.355 . S
C2078 C2080 1.415 . S
C2079 C2078 1.355 . S
C2079 C2081 1.419 . S
C2080 C2078 1.415 . S
C2080 C2085 1.425 . S
C2080 C2087 1.409 . S
C2081 H2073 0.930 . S
C2081 C2079 1.419 . S
C2081 C2082 1.362 . S
C2082 H2074 0.930 . S
C2082 C2081 1.362 . S
C2082 C2085 1.409 . S
C2083 H2075 0.930 . S
C2083 C2084 1.355 . S
C2083 C2085 1.415 . S
C2084 C2083 1.355 . S
C2084 C2086 1.419 . S
C2085 C2080 1.425 . S
C2085 C2082 1.409 . S
C2085 C2083 1.415 . S
C2086 H2076 0.930 . S
C2086 C2084 1.419 . S
C2086 C2087 1.362 . S
C2087 H2077 0.930 . S
C2087 C2080 1.409 . S
C2087 C2086 1.362 . S
H2088 C2094 0.930 . S
H2089 C2097 0.930 . S
H2090 C2098 0.930 . S
H2091 C2099 0.930 . S
H2092 C2102 0.930 . S
H2093 C2103 0.930 . S
C2094 H2088 0.930 . S
C2094 C2095 1.355 . S
C2094 C2096 1.415 . S
C2095 C2094 1.355 . S
C2095 C2097 1.419 . S
C2096 C2094 1.415 . S
C2096 C2101 1.425 . S
C2096 C2103 1.409 . S
C2097 H2089 0.930 . S
C2097 C2095 1.419 . S
C2097 C2098 1.362 . S
C2098 H2090 0.930 . S
C2098 C2097 1.362 . S
C2098 C2101 1.409 . S
C2099 H2091 0.930 . S
C2099 C2100 1.355 . S
C2099 C2101 1.415 . S
C2100 C2099 1.355 . S
C2100 C2102 1.419 . S
C2101 C2096 1.425 . S
C2101 C2098 1.409 . S
C2101 C2099 1.415 . S
C2102 H2092 0.930 . S
C2102 C2100 1.419 . S
C2102 C2103 1.362 . S
C2103 H2093 0.930 . S
C2103 C2096 1.409 . S
C2103 C2102 1.362 . S
H2104 C2110 0.930 . S
H2105 C2113 0.930 . S
H2106 C2114 0.930 . S
H2107 C2115 0.930 . S
H2108 C2118 0.930 . S
H2109 C2119 0.930 . S
C2110 H2104 0.930 . S
C2110 C2111 1.355 . S
C2110 C2112 1.415 . S
C2111 C2110 1.355 . S
C2111 C2113 1.419 . S
C2112 C2110 1.415 . S
C2112 C2117 1.425 . S
C2112 C2119 1.409 . S
C2113 H2105 0.930 . S
C2113 C2111 1.419 . S
C2113 C2114 1.362 . S
C2114 H2106 0.930 . S
C2114 C2113 1.362 . S
C2114 C2117 1.409 . S
C2115 H2107 0.930 . S
C2115 C2116 1.355 . S
C2115 C2117 1.415 . S
C2116 C2115 1.355 . S
C2116 C2118 1.419 . S
C2117 C2112 1.425 . S
C2117 C2114 1.409 . S
C2117 C2115 1.415 . S
C2118 H2108 0.930 . S
C2118 C2116 1.419 . S
C2118 C2119 1.362 . S
C2119 H2109 0.930 . S
C2119 C2112 1.409 . S
C2119 C2118 1.362 . S
H2120 C2126 0.930 . S
H2121 C2129 0.930 . S
H2122 C2130 0.930 . S
H2123 C2131 0.930 . S
H2124 C2134 0.930 . S
H2125 C2135 0.930 . S
C2126 H2120 0.930 . S
C2126 C2127 1.355 . S
C2126 C2128 1.415 . S
C2127 C2126 1.355 . S
C2127 C2129 1.419 . S
C2128 C2126 1.415 . S
C2128 C2133 1.425 . S
C2128 C2135 1.409 . S
C2129 H2121 0.930 . S
C2129 C2127 1.419 . S
C2129 C2130 1.362 . S
C2130 H2122 0.930 . S
C2130 C2129 1.362 . S
C2130 C2133 1.409 . S
C2131 H2123 0.930 . S
C2131 C2132 1.355 . S
C2131 C2133 1.415 . S
C2132 C2131 1.355 . S
C2132 C2134 1.419 . S
C2133 C2128 1.425 . S
C2133 C2130 1.409 . S
C2133 C2131 1.415 . S
C2134 H2124 0.930 . S
C2134 C2132 1.419 . S
C2134 C2135 1.362 . S
C2135 H2125 0.930 . S
C2135 C2128 1.409 . S
C2135 C2134 1.362 . S
H2136 C2142 0.930 . S
H2137 C2145 0.930 . S
H2138 C2146 0.930 . S
H2139 C2147 0.930 . S
H2140 C2150 0.930 . S
H2141 C2151 0.930 . S
C2142 H2136 0.930 . S
C2142 C2143 1.355 . S
C2142 C2144 1.415 . S
C2143 C2142 1.355 . S
C2143 C2145 1.419 . S
C2144 C2142 1.415 . S
C2144 C2149 1.425 . S
C2144 C2151 1.409 . S
C2145 H2137 0.930 . S
C2145 C2143 1.419 . S
C2145 C2146 1.362 . S
C2146 H2138 0.930 . S
C2146 C2145 1.362 . S
C2146 C2149 1.409 . S
C2147 H2139 0.930 . S
C2147 C2148 1.355 . S
C2147 C2149 1.415 . S
C2148 C2147 1.355 . S
C2148 C2150 1.419 . S
C2149 C2144 1.425 . S
C2149 C2146 1.409 . S
C2149 C2147 1.415 . S
C2150 H2140 0.930 . S
C2150 C2148 1.419 . S
C2150 C2151 1.362 . S
C2151 H2141 0.930 . S
C2151 C2144 1.409 . S
C2151 C2150 1.362 . S
H2152 C2158 0.930 . S
H2153 C2161 0.930 . S
H2154 C2162 0.930 . S
H2155 C2163 0.930 . S
H2156 C2166 0.930 . S
H2157 C2167 0.930 . S
C2158 H2152 0.930 . S
C2158 C2159 1.355 . S
C2158 C2160 1.415 . S
C2159 C2158 1.355 . S
C2159 C2161 1.419 . S
C2160 C2158 1.415 . S
C2160 C2165 1.425 . S
C2160 C2167 1.409 . S
C2161 H2153 0.930 . S
C2161 C2159 1.419 . S
C2161 C2162 1.362 . S
C2162 H2154 0.930 . S
C2162 C2161 1.362 . S
C2162 C2165 1.409 . S
C2163 H2155 0.930 . S
C2163 C2164 1.355 . S
C2163 C2165 1.415 . S
C2164 C2163 1.355 . S
C2164 C2166 1.419 . S
C2165 C2160 1.425 . S
C2165 C2162 1.409 . S
C2165 C2163 1.415 . S
C2166 H2156 0.930 . S
C2166 C2164 1.419 . S
C2166 C2167 1.362 . S
C2167 H2157 0.930 . S
C2167 C2160 1.409 . S
C2167 C2166 1.362 . S
H2168 C2174 0.930 . S
H2169 C2177 0.930 1_545 S
H2170 C2178 0.930 . S
H2171 C2179 0.930 . S
H2172 C2182 0.930 . S
H2173 C2183 0.930 . S
C2174 H2168 0.930 . S
C2174 C2175 1.355 . S
C2174 C2176 1.415 . S
C2175 C2174 1.355 . S
C2175 C2177 1.419 . S
C2176 C2174 1.415 . S
C2176 C2181 1.425 . S
C2176 C2183 1.409 . S
C2177 H2169 0.930 1_565 S
C2177 C2175 1.419 . S
C2177 C2178 1.362 . S
C2178 H2170 0.930 . S
C2178 C2177 1.362 . S
C2178 C2181 1.409 . S
C2179 H2171 0.930 . S
C2179 C2180 1.355 . S
C2179 C2181 1.415 . S
C2180 C2179 1.355 . S
C2180 C2182 1.419 . S
C2181 C2176 1.425 . S
C2181 C2178 1.409 . S
C2181 C2179 1.415 . S
C2182 H2172 0.930 . S
C2182 C2180 1.419 . S
C2182 C2183 1.362 . S
C2183 H2173 0.930 . S
C2183 C2176 1.409 . S
C2183 C2182 1.362 . S
H2184 C2190 0.930 . S
H2185 C2193 0.930 . S
H2186 C2194 0.930 1_655 S
H2187 C2195 0.930 . S
H2188 C2198 0.932 . S
H2189 C2199 0.930 . S
C2190 H2184 0.930 . S
C2190 C2191 1.355 . S
C2190 C2192 1.415 . S
C2191 C2190 1.355 . S
C2191 C2193 1.419 . S
C2192 C2190 1.415 . S
C2192 C2197 1.425 . S
C2192 C2199 1.409 . S
C2193 H2185 0.930 . S
C2193 C2191 1.419 . S
C2193 C2194 1.362 . S
C2194 H2186 0.930 1_455 S
C2194 C2193 1.362 . S
C2194 C2197 1.409 . S
C2195 H2187 0.930 . S
C2195 C2196 1.355 . S
C2195 C2197 1.415 1_655 S
C2196 C2195 1.355 . S
C2196 C2198 1.445 . S
C2197 C2192 1.425 . S
C2197 C2194 1.409 . S
C2197 C2195 1.415 1_455 S
C2198 H2188 0.932 . S
C2198 C2196 1.445 . S
C2198 C2199 1.335 1_655 S
C2199 H2189 0.930 . S
C2199 C2192 1.409 . S
C2199 C2198 1.335 1_455 S
C676 C330 1.247 . S
C671 C10 1.260 . S
C687 C16 1.281 . S
C692 C342 1.279 . S
C708 C377 1.313 . S
C703 C30 1.316 . S
C724 C386 1.319 . S
C719 C42 1.308 . S
C740 C341 1.330 . S
C735 C57 1.336 . S
C751 C69 1.282 . S
C756 C366 1.259 . S
C772 C385 1.316 . S
C767 C83 1.342 . S
C783 C101 1.330 . S
C788 C327 1.330 . S
C799 C108 1.332 . S
C804 C320 1.297 . S
C820 C344 1.328 . S
C815 C120 1.327 . S
C836 C363 1.316 . S
C831 C133 1.327 . S
C852 C388 1.254 . S
C847 C147 1.305 . S
C868 C349 1.228 . S
C863 C114 1.300 . S
C884 C374 1.311 . S
C879 C122 1.323 . S
C895 C135 1.349 . S
C900 C393 1.296 . S
C916 C333 1.266 . S
C911 C153 1.333 . S
C927 C160 1.306 . S
C932 C322 1.255 . S
C943 C174 1.343 . S
C948 C421 1.326 . S
C964 C437 1.258 . S
C959 C187 1.336 . S
C980 C451 1.231 . S
C975 C205 1.290 . S
C991 C212 1.295 . S
C996 C319 1.271 . S
C1007 C226 1.326 . S
C1012 C371 1.253 . S
C1028 C454 1.297 . S
C1023 C185 1.297 . S
C1044 C418 1.286 . S
C1039 C244 1.338 . S
C1060 C474 1.259 . S
C1055 C23 1.267 . S
C1076 C498 1.232 . S
C1071 C5 1.283 . S
C1087 C49 1.313 . S
C1092 C531 1.233 . S
C1103 C29 1.312 . S
C1108 C539 1.287 . S
C1119 C94 1.313 . S
C1124 C509 1.285 . S
C1135 C88 1.280 . S
C1140 C520 1.281 . S
C1156 C540 1.243 . S
C1151 C70 1.297 . S
C1167 C62 1.321 . S
C1172 C473 1.240 . S
C1183 C257 1.275 . S
C1188 C476 1.221 . S
C1204 C506 1.282 . S
C1199 C200 1.284 . S
C1220 C517 1.318 . S
C1215 C211 1.295 . S
C1236 C547 1.292 . S
C1231 C179 1.299 . S
C1252 C495 1.281 . S
C1247 C251 1.296 . S
C1268 C528 1.238 . S
C1263 C198 1.280 . S
C1284 C542 1.280 . S
C1279 C213 1.287 . S
C1295 C173 1.297 . S
C1300 C481 1.298 . S
C1316 C484 1.264 . S
C1311 C264 1.238 . S
C1327 C148 1.308 . S
C1332 C572 1.248 . S
C1348 C584 1.307 . S
C1343 C278 1.279 . S
C1359 C127 1.297 . S
C1364 C605 1.303 . S
C1380 C487 1.303 . S
C1375 C140 1.315 . S
C1396 C525 1.232 . S
C1391 C289 1.308 . S
C1412 C608 1.252 . S
C1407 C276 1.239 . S
C1423 C303 1.274 . S
C1428 C575 1.290 . S
C1439 C36 1.285 . S
C1444 C630 1.256 . S
C1455 C44 1.298 . S
C1460 C408 1.312 . S
C1476 C432 1.278 . S
C1471 C4 1.309 . S
C1487 C18 1.298 . S
C1492 C462 1.307 . S
C1503 C81 1.307 . S
C1508 C407 1.232 . S
C1519 C95 1.332 . S
C1524 C443 1.332 . S
C1540 C459 1.254 . S
C1535 C55 1.330 . S
C1556 C641 1.234 . S
C1551 C75 1.309 . S
C1572 C638 1.257 . S
C1567 C277 1.266 . S
C1588 C410 1.253 . S
C1583 C263 1.301 . S
C1604 C440 1.283 . S
C1599 C302 1.335 . S
C1615 C290 1.321 . S
C1620 C452 1.274 . S
C1636 C415 1.286 . S
C1631 C283 1.292 . S
C1647 C265 1.321 . S
C1652 C429 1.305 . S
C1668 C465 1.266 . S
C1663 C304 1.338 . S
C1679 C296 1.338 . S
C1684 C627 1.335 . S
C1700 C628 1.258 . S
C1695 C199 1.286 . S
C1711 C224 1.307 . S
C1716 C355 1.233 . S
C1732 C364 1.303 . S
C1727 C252 1.308 . S
C1743 C166 1.277 . S
C1748 C399 1.267 . S
C1764 C635 1.316 . S
C1759 C238 1.314 . S
C1780 C430 1.323 . S
C1775 C172 1.311 . S
C1796 C396 1.305 . S
C1791 C250 1.325 . S
C1812 C352 1.327 . S
C1807 C218 1.323 . S
C1823 C43 1.315 . S
C1828 C649 1.241 . S
C1839 C31 1.305 . S
C1844 C561 1.249 . S
C1855 C17 1.284 . S
C1860 C597 1.278 . S
C1876 C616 1.283 . S
C1871 C3 1.257 . S
C1892 C562 1.232 . S
C1887 C68 1.288 . S
C1903 C56 1.293 . S
C1908 C586 1.269 . S
C1924 C613 1.321 . S
C1919 C96 1.303 . S
C1935 C82 1.286 . S
C1940 C650 1.268 . S
C1956 C657 1.266 . S
C1951 C192 1.310 . S
C1967 C161 1.282 . S
C1972 C569 1.305 . S
C1983 C237 1.301 . S
C1988 C583 1.303 . S
C2004 C606 1.260 . S
C1999 C225 1.272 . S
C2020 C564 1.237 . S
C2015 C186 1.283 . S
C2031 C159 1.289 . S
C2036 C594 1.230 . S
C2052 C619 1.240 . S
C2047 C239 1.319 . S
C2068 C652 1.250 . S
C2063 C231 1.303 . S
C2084 C663 1.262 . S
C2079 C121 1.285 . S
C2100 C503 1.288 . S
C2095 C291 1.336 . S
C2111 C109 1.308 . S
C2116 C518 1.248 . S
C2127 C270 1.271 . S
C2132 C550 1.302 . S
C2148 C660 1.266 . S
C2143 C309 1.310 . S
C2164 C591 1.229 . S
C2159 C146 1.305 . S
C2180 C553 1.282 . S
C2175 C107 1.287 . S
C2196 C496 1.287 . S
C2191 C134 1.262 . S
