# Generated by pormake.
# Topology gar, (4,6)-cn, num edge types: 1
# Building blocks:
#     Node 0, Type 0, BuildingBlock: AZAVOO_clean_sbu_0, # of connection points: 4
#     Node 1, Type 0, BuildingBlock: AZAVOO_clean_sbu_0, # of connection points: 4
#     Node 2, Type 0, BuildingBlock: AZAVOO_clean_sbu_0, # of connection points: 4
#     Node 3, Type 0, BuildingBlock: AZAVOO_clean_sbu_0, # of connection points: 4
#     Node 4, Type 0, BuildingBlock: AZAVOO_clean_sbu_0, # of connection points: 4
#     Node 5, Type 0, BuildingBlock: AZAVOO_clean_sbu_0, # of connection points: 4
#     Node 6, Type 0, BuildingBlock: AZAVOO_clean_sbu_0, # of connection points: 4
#     Node 7, Type 0, BuildingBlock: AZAVOO_clean_sbu_0, # of connection points: 4
#     Node 8, Type 0, BuildingBlock: AZAVOO_clean_sbu_0, # of connection points: 4
#     Node 9, Type 0, BuildingBlock: AZAVOO_clean_sbu_0, # of connection points: 4
#     Node 10, Type 0, BuildingBlock: AZAVOO_clean_sbu_0, # of connection points: 4
#     Node 11, Type 0, BuildingBlock: AZAVOO_clean_sbu_0, # of connection points: 4
#     Node 12, Type 0, BuildingBlock: AZAVOO_clean_sbu_0, # of connection points: 4
#     Node 13, Type 0, BuildingBlock: AZAVOO_clean_sbu_0, # of connection points: 4
#     Node 14, Type 0, BuildingBlock: AZAVOO_clean_sbu_0, # of connection points: 4
#     Node 15, Type 0, BuildingBlock: AZAVOO_clean_sbu_0, # of connection points: 4
#     Node 16, Type 0, BuildingBlock: AZAVOO_clean_sbu_0, # of connection points: 4
#     Node 17, Type 0, BuildingBlock: AZAVOO_clean_sbu_0, # of connection points: 4
#     Node 18, Type 0, BuildingBlock: AZAVOO_clean_sbu_0, # of connection points: 4
#     Node 19, Type 0, BuildingBlock: AZAVOO_clean_sbu_0, # of connection points: 4
#     Node 20, Type 0, BuildingBlock: AZAVOO_clean_sbu_0, # of connection points: 4
#     Node 21, Type 0, BuildingBlock: AZAVOO_clean_sbu_0, # of connection points: 4
#     Node 22, Type 0, BuildingBlock: AZAVOO_clean_sbu_0, # of connection points: 4
#     Node 23, Type 0, BuildingBlock: AZAVOO_clean_sbu_0, # of connection points: 4
#     Node 24, Type 1, BuildingBlock: KUMBOL_clean_sbu_1, # of connection points: 6
#     Node 25, Type 1, BuildingBlock: KUMBOL_clean_sbu_1, # of connection points: 6
#     Node 26, Type 1, BuildingBlock: KUMBOL_clean_sbu_1, # of connection points: 6
#     Node 27, Type 1, BuildingBlock: KUMBOL_clean_sbu_1, # of connection points: 6
#     Node 28, Type 1, BuildingBlock: KUMBOL_clean_sbu_1, # of connection points: 6
#     Node 29, Type 1, BuildingBlock: KUMBOL_clean_sbu_1, # of connection points: 6
#     Node 30, Type 1, BuildingBlock: KUMBOL_clean_sbu_1, # of connection points: 6
#     Node 31, Type 1, BuildingBlock: KUMBOL_clean_sbu_1, # of connection points: 6
#     Node 32, Type 1, BuildingBlock: KUMBOL_clean_sbu_1, # of connection points: 6
#     Node 33, Type 1, BuildingBlock: KUMBOL_clean_sbu_1, # of connection points: 6
#     Node 34, Type 1, BuildingBlock: KUMBOL_clean_sbu_1, # of connection points: 6
#     Node 35, Type 1, BuildingBlock: KUMBOL_clean_sbu_1, # of connection points: 6
#     Node 36, Type 1, BuildingBlock: KUMBOL_clean_sbu_1, # of connection points: 6
#     Node 37, Type 1, BuildingBlock: KUMBOL_clean_sbu_1, # of connection points: 6
#     Node 38, Type 1, BuildingBlock: KUMBOL_clean_sbu_1, # of connection points: 6
#     Node 39, Type 1, BuildingBlock: KUMBOL_clean_sbu_1, # of connection points: 6
#     Edge 40, Type (0, 1), BuildingBlock: ZUJKAS_clean_linker_0, # of connection points: 2
#     Edge 41, Type (0, 1), BuildingBlock: ZUJKAS_clean_linker_0, # of connection points: 2
#     Edge 42, Type (0, 1), BuildingBlock: ZUJKAS_clean_linker_0, # of connection points: 2
#     Edge 43, Type (0, 1), BuildingBlock: ZUJKAS_clean_linker_0, # of connection points: 2
#     Edge 44, Type (0, 1), BuildingBlock: ZUJKAS_clean_linker_0, # of connection points: 2
#     Edge 45, Type (0, 1), BuildingBlock: ZUJKAS_clean_linker_0, # of connection points: 2
#     Edge 46, Type (0, 1), BuildingBlock: ZUJKAS_clean_linker_0, # of connection points: 2
#     Edge 47, Type (0, 1), BuildingBlock: ZUJKAS_clean_linker_0, # of connection points: 2
#     Edge 48, Type (0, 1), BuildingBlock: ZUJKAS_clean_linker_0, # of connection points: 2
#     Edge 49, Type (0, 1), BuildingBlock: ZUJKAS_clean_linker_0, # of connection points: 2
#     Edge 50, Type (0, 1), BuildingBlock: ZUJKAS_clean_linker_0, # of connection points: 2
#     Edge 51, Type (0, 1), BuildingBlock: ZUJKAS_clean_linker_0, # of connection points: 2
#     Edge 52, Type (0, 1), BuildingBlock: ZUJKAS_clean_linker_0, # of connection points: 2
#     Edge 53, Type (0, 1), BuildingBlock: ZUJKAS_clean_linker_0, # of connection points: 2
#     Edge 54, Type (0, 1), BuildingBlock: ZUJKAS_clean_linker_0, # of connection points: 2
#     Edge 55, Type (0, 1), BuildingBlock: ZUJKAS_clean_linker_0, # of connection points: 2
#     Edge 56, Type (0, 1), BuildingBlock: ZUJKAS_clean_linker_0, # of connection points: 2
#     Edge 57, Type (0, 1), BuildingBlock: ZUJKAS_clean_linker_0, # of connection points: 2
#     Edge 58, Type (0, 1), BuildingBlock: ZUJKAS_clean_linker_0, # of connection points: 2
#     Edge 59, Type (0, 1), BuildingBlock: ZUJKAS_clean_linker_0, # of connection points: 2
#     Edge 60, Type (0, 1), BuildingBlock: ZUJKAS_clean_linker_0, # of connection points: 2
#     Edge 61, Type (0, 1), BuildingBlock: ZUJKAS_clean_linker_0, # of connection points: 2
#     Edge 62, Type (0, 1), BuildingBlock: ZUJKAS_clean_linker_0, # of connection points: 2
#     Edge 63, Type (0, 1), BuildingBlock: ZUJKAS_clean_linker_0, # of connection points: 2
#     Edge 64, Type (0, 1), BuildingBlock: ZUJKAS_clean_linker_0, # of connection points: 2
#     Edge 65, Type (0, 1), BuildingBlock: ZUJKAS_clean_linker_0, # of connection points: 2
#     Edge 66, Type (0, 1), BuildingBlock: ZUJKAS_clean_linker_0, # of connection points: 2
#     Edge 67, Type (0, 1), BuildingBlock: ZUJKAS_clean_linker_0, # of connection points: 2
#     Edge 68, Type (0, 1), BuildingBlock: ZUJKAS_clean_linker_0, # of connection points: 2
#     Edge 69, Type (0, 1), BuildingBlock: ZUJKAS_clean_linker_0, # of connection points: 2
#     Edge 70, Type (0, 1), BuildingBlock: ZUJKAS_clean_linker_0, # of connection points: 2
#     Edge 71, Type (0, 1), BuildingBlock: ZUJKAS_clean_linker_0, # of connection points: 2
#     Edge 72, Type (0, 1), BuildingBlock: ZUJKAS_clean_linker_0, # of connection points: 2
#     Edge 73, Type (0, 1), BuildingBlock: ZUJKAS_clean_linker_0, # of connection points: 2
#     Edge 74, Type (0, 1), BuildingBlock: ZUJKAS_clean_linker_0, # of connection points: 2
#     Edge 75, Type (0, 1), BuildingBlock: ZUJKAS_clean_linker_0, # of connection points: 2
#     Edge 76, Type (0, 1), BuildingBlock: ZUJKAS_clean_linker_0, # of connection points: 2
#     Edge 77, Type (0, 1), BuildingBlock: ZUJKAS_clean_linker_0, # of connection points: 2
#     Edge 78, Type (0, 1), BuildingBlock: ZUJKAS_clean_linker_0, # of connection points: 2
#     Edge 79, Type (0, 1), BuildingBlock: ZUJKAS_clean_linker_0, # of connection points: 2
#     Edge 80, Type (0, 1), BuildingBlock: ZUJKAS_clean_linker_0, # of connection points: 2
#     Edge 81, Type (0, 1), BuildingBlock: ZUJKAS_clean_linker_0, # of connection points: 2
#     Edge 82, Type (0, 1), BuildingBlock: ZUJKAS_clean_linker_0, # of connection points: 2
#     Edge 83, Type (0, 1), BuildingBlock: ZUJKAS_clean_linker_0, # of connection points: 2
#     Edge 84, Type (0, 1), BuildingBlock: ZUJKAS_clean_linker_0, # of connection points: 2
#     Edge 85, Type (0, 1), BuildingBlock: ZUJKAS_clean_linker_0, # of connection points: 2
#     Edge 86, Type (0, 1), BuildingBlock: ZUJKAS_clean_linker_0, # of connection points: 2
#     Edge 87, Type (0, 1), BuildingBlock: ZUJKAS_clean_linker_0, # of connection points: 2
#     Edge 88, Type (0, 1), BuildingBlock: ZUJKAS_clean_linker_0, # of connection points: 2
#     Edge 89, Type (0, 1), BuildingBlock: ZUJKAS_clean_linker_0, # of connection points: 2
#     Edge 90, Type (0, 1), BuildingBlock: ZUJKAS_clean_linker_0, # of connection points: 2
#     Edge 91, Type (0, 1), BuildingBlock: ZUJKAS_clean_linker_0, # of connection points: 2
#     Edge 92, Type (0, 1), BuildingBlock: ZUJKAS_clean_linker_0, # of connection points: 2
#     Edge 93, Type (0, 1), BuildingBlock: ZUJKAS_clean_linker_0, # of connection points: 2
#     Edge 94, Type (0, 1), BuildingBlock: ZUJKAS_clean_linker_0, # of connection points: 2
#     Edge 95, Type (0, 1), BuildingBlock: ZUJKAS_clean_linker_0, # of connection points: 2
#     Edge 96, Type (0, 1), BuildingBlock: ZUJKAS_clean_linker_0, # of connection points: 2
#     Edge 97, Type (0, 1), BuildingBlock: ZUJKAS_clean_linker_0, # of connection points: 2
#     Edge 98, Type (0, 1), BuildingBlock: ZUJKAS_clean_linker_0, # of connection points: 2
#     Edge 99, Type (0, 1), BuildingBlock: ZUJKAS_clean_linker_0, # of connection points: 2
#     Edge 100, Type (0, 1), BuildingBlock: ZUJKAS_clean_linker_0, # of connection points: 2
#     Edge 101, Type (0, 1), BuildingBlock: ZUJKAS_clean_linker_0, # of connection points: 2
#     Edge 102, Type (0, 1), BuildingBlock: ZUJKAS_clean_linker_0, # of connection points: 2
#     Edge 103, Type (0, 1), BuildingBlock: ZUJKAS_clean_linker_0, # of connection points: 2
#     Edge 104, Type (0, 1), BuildingBlock: ZUJKAS_clean_linker_0, # of connection points: 2
#     Edge 105, Type (0, 1), BuildingBlock: ZUJKAS_clean_linker_0, # of connection points: 2
#     Edge 106, Type (0, 1), BuildingBlock: ZUJKAS_clean_linker_0, # of connection points: 2
#     Edge 107, Type (0, 1), BuildingBlock: ZUJKAS_clean_linker_0, # of connection points: 2
#     Edge 108, Type (0, 1), BuildingBlock: ZUJKAS_clean_linker_0, # of connection points: 2
#     Edge 109, Type (0, 1), BuildingBlock: ZUJKAS_clean_linker_0, # of connection points: 2
#     Edge 110, Type (0, 1), BuildingBlock: ZUJKAS_clean_linker_0, # of connection points: 2
#     Edge 111, Type (0, 1), BuildingBlock: ZUJKAS_clean_linker_0, # of connection points: 2
#     Edge 112, Type (0, 1), BuildingBlock: ZUJKAS_clean_linker_0, # of connection points: 2
#     Edge 113, Type (0, 1), BuildingBlock: ZUJKAS_clean_linker_0, # of connection points: 2
#     Edge 114, Type (0, 1), BuildingBlock: ZUJKAS_clean_linker_0, # of connection points: 2
#     Edge 115, Type (0, 1), BuildingBlock: ZUJKAS_clean_linker_0, # of connection points: 2
#     Edge 116, Type (0, 1), BuildingBlock: ZUJKAS_clean_linker_0, # of connection points: 2
#     Edge 117, Type (0, 1), BuildingBlock: ZUJKAS_clean_linker_0, # of connection points: 2
#     Edge 118, Type (0, 1), BuildingBlock: ZUJKAS_clean_linker_0, # of connection points: 2
#     Edge 119, Type (0, 1), BuildingBlock: ZUJKAS_clean_linker_0, # of connection points: 2
#     Edge 120, Type (0, 1), BuildingBlock: ZUJKAS_clean_linker_0, # of connection points: 2
#     Edge 121, Type (0, 1), BuildingBlock: ZUJKAS_clean_linker_0, # of connection points: 2
#     Edge 122, Type (0, 1), BuildingBlock: ZUJKAS_clean_linker_0, # of connection points: 2
#     Edge 123, Type (0, 1), BuildingBlock: ZUJKAS_clean_linker_0, # of connection points: 2
#     Edge 124, Type (0, 1), BuildingBlock: ZUJKAS_clean_linker_0, # of connection points: 2
#     Edge 125, Type (0, 1), BuildingBlock: ZUJKAS_clean_linker_0, # of connection points: 2
#     Edge 126, Type (0, 1), BuildingBlock: ZUJKAS_clean_linker_0, # of connection points: 2
#     Edge 127, Type (0, 1), BuildingBlock: ZUJKAS_clean_linker_0, # of connection points: 2
#     Edge 128, Type (0, 1), BuildingBlock: ZUJKAS_clean_linker_0, # of connection points: 2
#     Edge 129, Type (0, 1), BuildingBlock: ZUJKAS_clean_linker_0, # of connection points: 2
#     Edge 130, Type (0, 1), BuildingBlock: ZUJKAS_clean_linker_0, # of connection points: 2
#     Edge 131, Type (0, 1), BuildingBlock: ZUJKAS_clean_linker_0, # of connection points: 2
#     Edge 132, Type (0, 1), BuildingBlock: ZUJKAS_clean_linker_0, # of connection points: 2
#     Edge 133, Type (0, 1), BuildingBlock: ZUJKAS_clean_linker_0, # of connection points: 2
#     Edge 134, Type (0, 1), BuildingBlock: ZUJKAS_clean_linker_0, # of connection points: 2
#     Edge 135, Type (0, 1), BuildingBlock: ZUJKAS_clean_linker_0, # of connection points: 2
# Relax obj value: 0.086
# Max RMSD: 0.202
# Mean RMSD: 0.150
data_MOF--net-gar--node1-AZAVOO_clean_sbu_0--node2-KUMBOL_clean_sbu_1--edge1-ZUJKAS_clean_linker_0
_symmetry_space_group_name_H-M    P1
_symmetry_Int_Tables_number       1
_symmetry_cell_setting            triclinic
loop_
_symmetry_equiv_pos_as_xyz
'x, y, z'
_cell_length_a     77.542269
_cell_length_b     74.948533
_cell_length_c     71.862545
_cell_angle_alpha  97.948771
_cell_angle_beta   95.396334
_cell_angle_gamma 101.57866
loop_
_atom_site_label
_atom_site_type_symbol
_atom_site_fract_x
_atom_site_fract_y
_atom_site_fract_z
_atom_type_partial_charge
Mg0 Mg 0.03118 0.2871 0.33958 0.0
O1 O 0.03576 0.31515 0.36121 0.0
O2 O 0.01237 0.31168 0.37765 0.0
Mg3 Mg 0.99177 0.28512 0.36645 0.0
C4 C 0.02716 0.32101 0.37442 0.0
C5 C 0.07034 0.29847 0.32174 0.0
O6 O 0.06211 0.30818 0.31148 0.0
O7 O 0.0361 0.27012 0.36402 0.0
O8 O 0.01091 0.26845 0.37708 0.0
O9 O 0.01337 0.2972 0.31651 0.0
O10 O 0.00301 0.28476 0.33975 0.0
C11 C 0.02589 0.26411 0.37591 0.0
C12 C 0.99978 0.29194 0.32507 0.0
O13 O 0.06187 0.29006 0.33366 0.0
Mg14 Mg 0.01391 0.75711 0.68972 0.0
O15 O 0.01114 0.72832 0.66981 0.0
O16 O 0.98681 0.72487 0.64923 0.0
Mg17 Mg 0.97104 0.74714 0.65743 0.0
C18 C 1.00064 0.71941 0.6551 0.0
C19 C 0.05187 0.75069 0.71072 0.0
O20 O 0.04114 0.73909 0.71881 0.0
O21 O 0.01895 0.77446 0.66512 0.0
O22 O 0.99205 0.76907 0.6483 0.0
O23 O 0.99564 0.74743 0.71258 0.0
O24 O 0.9853 0.7544 0.6863 0.0
C25 C 0.00832 0.77753 0.65167 0.0
C26 C 0.98205 0.74995 0.70231 0.0
O27 O 0.04502 0.7594 0.69885 0.0
Mg28 Mg 0.53299 0.78973 0.84019 0.0
O29 O 0.53471 0.81632 0.86313 0.0
O30 O 0.50927 0.81027 0.87575 0.0
Mg31 Mg 0.49131 0.7822 0.86328 0.0
C32 C 0.52404 0.82103 0.87462 0.0
C33 C 0.5701 0.79529 0.82023 0.0
O34 O 0.55858 0.79246 0.80493 0.0
O35 O 0.53795 0.77139 0.86342 0.0
O36 O 0.51128 0.7662 0.8737 0.0
O37 O 0.51474 0.80073 0.81795 0.0
O38 O 0.5045 0.78366 0.83807 0.0
C39 C 0.52691 0.76326 0.87344 0.0
C40 C 0.50105 0.79226 0.82461 0.0
O41 O 0.5642 0.79622 0.83639 0.0
Mg42 Mg 0.51335 0.25667 0.18951 0.0
O43 O 0.50936 0.22862 0.16879 0.0
O44 O 0.48376 0.22462 0.15023 0.0
Mg45 Mg 0.46946 0.24803 0.15958 0.0
C46 C 0.49794 0.21931 0.15507 0.0
C47 C 0.55273 0.26161 0.21378 0.0
O48 O 0.54441 0.26795 0.2275 0.0
O49 O 0.5183 0.27454 0.16507 0.0
O50 O 0.49044 0.27005 0.15074 0.0
O51 O 0.49514 0.24526 0.21191 0.0
O52 O 0.48524 0.25585 0.18753 0.0
C53 C 0.50675 0.27837 0.15302 0.0
C54 C 0.48195 0.24978 0.20278 0.0
O55 O 0.54399 0.25611 0.19723 0.0
Mg56 Mg 0.05015 0.79393 0.11727 0.0
O57 O 0.04668 0.76566 0.09722 0.0
O58 O 0.02122 0.76088 0.07833 0.0
Mg59 Mg 0.00714 0.78473 0.08753 0.0
C60 C 0.03528 0.75566 0.08389 0.0
C61 C 0.08932 0.80384 0.1405 0.0
O62 O 0.08291 0.81743 0.14872 0.0
O63 O 0.05478 0.8138 0.09419 0.0
O64 O 0.02709 0.80892 0.07943 0.0
O65 O 0.03513 0.77963 0.13868 0.0
O66 O 0.0222 0.79135 0.11631 0.0
C67 C 0.0432 0.81794 0.08237 0.0
C68 C 0.02075 0.78312 0.1308 0.0
O69 O 0.07983 0.79282 0.12641 0.0
Mg70 Mg 0.49748 0.75565 0.41504 0.0
O71 O 0.50322 0.78407 0.43574 0.0
O72 O 0.48161 0.78206 0.45418 0.0
Mg73 Mg 0.46241 0.75348 0.44478 0.0
C74 C 0.49551 0.79131 0.44892 0.0
C75 C 0.5307 0.76994 0.39421 0.0
O76 O 0.51906 0.77778 0.38589 0.0
O77 O 0.50435 0.73679 0.43666 0.0
O78 O 0.48157 0.73455 0.45359 0.0
O79 O 0.48198 0.76865 0.39491 0.0
O80 O 0.46948 0.75205 0.4151 0.0
C81 C 0.49585 0.7298 0.44931 0.0
C82 C 0.46778 0.76192 0.40192 0.0
O83 O 0.52623 0.76087 0.40738 0.0
Mg84 Mg 0.5509 0.29404 0.61678 0.0
O85 O 0.54676 0.26556 0.59665 0.0
O86 O 0.52028 0.26073 0.57962 0.0
Mg87 Mg 0.50702 0.28503 0.58877 0.0
C88 C 0.53456 0.25545 0.58414 0.0
C89 C 0.58773 0.30103 0.64189 0.0
O90 O 0.57844 0.31029 0.65239 0.0
O91 O 0.55498 0.31336 0.59331 0.0
O92 O 0.52715 0.30767 0.57868 0.0
O93 O 0.53659 0.27999 0.63879 0.0
O94 O 0.5232 0.29185 0.61682 0.0
C95 C 0.54324 0.31675 0.58113 0.0
C96 C 0.52212 0.28368 0.63137 0.0
O97 O 0.58069 0.29324 0.6252 0.0
Mg98 Mg 0.998 0.25618 0.91587 0.0
O99 O 1.00163 0.28421 0.93684 0.0
O100 O 0.97703 0.28117 0.9509 0.0
Mg101 Mg 0.95956 0.25175 0.94123 0.0
C102 C 0.99171 0.29097 0.94793 0.0
C103 C 0.03005 0.25368 0.89476 0.0
O104 O 0.01689 0.24079 0.88534 0.0
O105 O 0.00436 0.2378 0.93839 0.0
O106 O 0.97919 0.23397 0.95143 0.0
O107 O 0.98304 0.26846 0.89435 0.0
O108 O 0.96969 0.25108 0.91339 0.0
C109 C 0.99431 0.22999 0.94946 0.0
C110 C 0.96846 0.26097 0.90021 0.0
O111 O 0.02711 0.26342 0.90964 0.0
Mg112 Mg 0.38763 0.02701 0.29452 0.0
O113 O 0.37145 0.99779 0.29109 0.0
O114 O 0.36119 0.99323 0.31853 0.0
Mg115 Mg 0.36895 0.02042 0.33873 0.0
C116 C 0.36309 0.98747 0.30144 0.0
C117 C 0.39455 0.00986 0.2561 0.0
O118 O 0.39702 0.99735 0.2666 0.0
O119 O 0.36255 0.03681 0.29165 0.0
O120 O 0.35204 0.03376 0.31929 0.0
O121 O 0.4106 0.01709 0.30516 0.0
O122 O 0.39152 0.02743 0.32296 0.0
C123 C 0.35099 0.03843 0.30286 0.0
C124 C 0.40438 0.01904 0.32126 0.0
O125 O 0.38938 0.02398 0.26336 0.0
Mg126 Mg 0.2665 0.15993 0.49686 0.0
O127 O 0.26955 0.17842 0.52623 0.0
O128 O 0.29693 0.19595 0.53086 0.0
Mg129 Mg 0.31176 0.18821 0.50577 0.0
C130 C 0.28178 0.19095 0.53638 0.0
C131 C 0.23068 0.13426 0.49716 0.0
O132 O 0.24203 0.1234 0.49639 0.0
O133 O 0.26489 0.18391 0.48028 0.0
O134 O 0.29346 0.1985 0.48461 0.0
O135 O 0.27735 0.13817 0.5098 0.0
O136 O 0.29383 0.16086 0.49881 0.0
C137 C 0.27753 0.19637 0.47674 0.0
C138 C 0.29286 0.14627 0.50651 0.0
O139 O 0.23638 0.15143 0.49721 0.0
Mg140 Mg 0.1267 0.02917 0.78017 0.0
O141 O 0.14506 0.05775 0.78223 0.0
O142 O 0.16354 0.06263 0.80917 0.0
Mg143 Mg 0.15449 0.03964 0.82631 0.0
C144 C 0.15827 0.06743 0.79364 0.0
C145 C 0.10263 0.02221 0.74225 0.0
O146 O 0.09184 0.01514 0.75368 0.0
O147 O 0.14955 0.01437 0.77532 0.0
O148 O 0.16342 0.01921 0.80494 0.0
O149 O 0.10607 0.04074 0.79527 0.0
O150 O 0.12842 0.03152 0.80926 0.0
C151 C 0.16131 0.01149 0.78765 0.0
C152 C 0.1144 0.03791 0.8107 0.0
O153 O 0.1188 0.029 0.74872 0.0
Mg154 Mg 0.28462 0.93395 0.01323 0.0
O155 O 0.28638 0.91711 0.98487 0.0
O156 O 0.31177 0.90729 0.98654 0.0
Mg157 Mg 0.32435 0.91483 0.01723 0.0
C158 C 0.29744 0.90887 0.97731 0.0
C159 C 0.25615 0.95159 -0.00046 0.0
O160 O 0.26988 0.96531 0.00527 0.0
O161 O 0.27525 0.90801 0.02474 0.0
O162 O 0.3001 0.89701 0.02663 0.0
O163 O 0.30126 0.958 0.00474 0.0
O164 O 0.31136 0.9382 0.02089 0.0
C165 C 0.28373 0.89583 0.02866 0.0
C166 C 0.31444 0.95214 0.01218 0.0
O167 O 0.25736 0.93541 0.00186 0.0
Mg168 Mg 0.28541 0.3865 0.03503 0.0
O169 O 0.2835 0.36669 0.00662 0.0
O170 O 0.30866 0.35643 0.00856 0.0
Mg171 Mg 0.32543 0.36775 0.03746 0.0
C172 C 0.29398 0.35727 -0.0006 0.0
C173 C 0.25561 0.40536 0.0369 0.0
O174 O 0.26981 0.41631 0.04691 0.0
O175 O 0.27837 0.36306 0.0525 0.0
O176 O 0.30464 0.3551 0.05555 0.0
O177 O 0.30093 0.4097 0.02259 0.0
O178 O 0.31298 0.39143 0.03881 0.0
C179 C 0.28889 0.35407 0.05989 0.0
C180 C 0.31505 0.40494 0.02946 0.0
O181 O 0.25688 0.38948 0.02904 0.0
Mg182 Mg 0.77403 0.11648 0.02576 0.0
O183 O 0.77387 0.13432 0.05365 0.0
O184 O 0.80122 0.15169 0.06261 0.0
Mg185 Mg 0.81765 0.14634 0.03874 0.0
C186 C 0.78515 0.14622 0.0654 0.0
C187 C 0.73724 0.09344 0.0153 0.0
O188 O 0.74604 0.08275 0.00585 0.0
O189 O 0.77249 0.14033 0.01131 0.0
O190 O 0.79938 0.15875 0.0192 0.0
O191 O 0.78208 0.0956 0.04076 0.0
O192 O 0.80066 0.11837 0.03135 0.0
C193 C 0.78357 0.15514 0.01065 0.0
C194 C 0.79815 0.10459 0.04052 0.0
O195 O 0.74519 0.10917 0.02396 0.0
Mg196 Mg 0.15649 0.51816 0.23488 0.0
O197 O 0.1722 0.54777 0.2383 0.0
O198 O 0.18225 0.55588 0.26921 0.0
Mg199 Mg 0.16895 0.53427 0.28588 0.0
C200 C 0.1816 0.55905 0.25218 0.0
C201 C 0.15924 0.51934 0.19008 0.0
O202 O 0.16677 0.51505 0.17495 0.0
O203 O 0.18144 0.50922 0.24296 0.0
O204 O 0.18655 0.51531 0.27461 0.0
O205 O 0.13054 0.52761 0.23775 0.0
O206 O 0.14898 0.52335 0.26115 0.0
C207 C 0.19013 0.50834 0.25858 0.0
C208 C 0.1349 0.5285 0.25574 0.0
O209 O 0.16321 0.51295 0.20491 0.0
Mg210 Mg 0.7855 0.88782 0.53476 0.0
O211 O 0.78258 0.86766 0.50656 0.0
O212 O 0.80558 0.85398 0.5089 0.0
Mg213 Mg 0.82368 0.86619 0.53694 0.0
C214 C 0.79151 0.85628 0.49965 0.0
C215 C 0.75691 0.90902 0.53183 0.0
O216 O 0.77194 0.92115 0.53712 0.0
O217 O 0.77746 0.86478 0.55246 0.0
O218 O 0.80311 0.85554 0.5562 0.0
O219 O 0.80169 0.91003 0.52181 0.0
O220 O 0.81302 0.89119 0.53786 0.0
C221 C 0.78737 0.85541 0.56017 0.0
C222 C 0.81553 0.90459 0.52835 0.0
O223 O 0.75725 0.89197 0.52912 0.0
Mg224 Mg 0.92721 0.02018 0.25857 0.0
O225 O 0.90641 0.99292 0.25733 0.0
O226 O 0.8945 0.99675 0.28441 0.0
Mg227 Mg 0.90727 0.02439 0.3029 0.0
C228 C 0.89557 0.98704 0.26865 0.0
C229 C 0.94556 0.02369 0.2243 0.0
O230 O 0.95584 0.03458 0.23874 0.0
O231 O 0.90541 0.03601 0.25235 0.0
O232 O 0.89704 0.04062 0.28127 0.0
O233 O 0.9485 0.00893 0.27366 0.0
O234 O 0.93037 0.02368 0.28804 0.0
C235 C 0.89663 0.04351 0.26416 0.0
C236 C 0.94295 0.01491 0.28926 0.0
O237 O 0.93079 0.0143 0.22729 0.0
Mg238 Mg 0.27181 0.615 0.52568 0.0
O239 O 0.27217 0.63349 0.55366 0.0
O240 O 0.29865 0.65307 0.55957 0.0
Mg241 Mg 0.31514 0.64653 0.53624 0.0
C242 C 0.28316 0.64707 0.56383 0.0
C243 C 0.23562 0.59591 0.53479 0.0
O244 O 0.2457 0.59032 0.5475 0.0
O245 O 0.26869 0.63863 0.51092 0.0
O246 O 0.29572 0.65708 0.51689 0.0
O247 O 0.28226 0.59489 0.54049 0.0
O248 O 0.2986 0.61849 0.53015 0.0
C249 C 0.27957 0.65332 0.50934 0.0
C250 C 0.29774 0.60477 0.53927 0.0
O251 O 0.24266 0.60614 0.52372 0.0
Mg252 Mg 0.42768 0.52195 0.75802 0.0
O253 O 0.40897 0.49334 0.7554 0.0
O254 O 0.39446 0.49421 0.78098 0.0
Mg255 Mg 0.40513 0.52156 0.80069 0.0
C256 C 0.39745 0.48596 0.76525 0.0
C257 C 0.44358 0.52935 0.72232 0.0
O258 O 0.45111 0.54381 0.73508 0.0
O259 O 0.40435 0.53555 0.75136 0.0
O260 O 0.39282 0.53621 0.77877 0.0
O261 O 0.4497 0.51237 0.77335 0.0
O262 O 0.42953 0.52449 0.78725 0.0
C263 C 0.39314 0.54011 0.76205 0.0
C264 C 0.44302 0.51699 0.78868 0.0
O265 O 0.43206 0.51675 0.72706 0.0
Mg266 Mg 0.65894 0.02163 0.7461 0.0
O267 O 0.6763 0.05005 0.74853 0.0
O268 O 0.6934 0.05722 0.77647 0.0
Mg269 Mg 0.68571 0.03329 0.79238 0.0
C270 C 0.68834 0.06093 0.76033 0.0
C271 C 0.64907 0.0355 0.7104 0.0
O272 O 0.64821 0.04918 0.7236 0.0
O273 O 0.68257 0.00987 0.74171 0.0
O274 O 0.69807 0.01619 0.77052 0.0
O275 O 0.63795 0.03348 0.75783 0.0
O276 O 0.65955 0.02519 0.77491 0.0
C277 C 0.69597 0.0092 0.75299 0.0
C278 C 0.64599 0.03274 0.77426 0.0
O279 O 0.65319 0.02111 0.71517 0.0
Mg280 Mg 0.76459 0.65918 0.99543 0.0
O281 O 0.76835 0.67738 0.02501 0.0
O282 O 0.79596 0.69443 0.02947 0.0
Mg283 Mg 0.81039 0.68628 0.00423 0.0
C284 C 0.78082 0.68969 0.03511 0.0
C285 C 0.7274 0.6348 0.989 0.0
O286 O 0.73735 0.62447 0.98095 0.0
O287 O 0.76362 0.68368 0.97936 0.0
O288 O 0.79244 0.69735 0.98352 0.0
O289 O 0.77456 0.63652 0.00751 0.0
O290 O 0.7917 0.65938 0.99734 0.0
C291 C 0.77655 0.69584 0.97585 0.0
C292 C 0.79026 0.64452 0.00462 0.0
O293 O 0.73455 0.65142 0.99623 0.0
Mg294 Mg 0.88634 0.52932 0.79199 0.0
O295 O 0.87238 0.49973 0.79074 0.0
O296 O 0.86273 0.49606 0.81864 0.0
Mg297 Mg 0.87085 0.52384 0.83806 0.0
C298 C 0.86447 0.48976 0.80166 0.0
C299 C 0.90145 0.52539 0.75616 0.0
O300 O 0.91483 0.53234 0.76946 0.0
O301 O 0.86006 0.53681 0.78998 0.0
O302 O 0.85215 0.53556 0.81902 0.0
O303 O 0.91144 0.52258 0.80247 0.0
O304 O 0.89222 0.53155 0.82083 0.0
C305 C 0.84943 0.53892 0.80217 0.0
C306 C 0.9063 0.52518 0.819 0.0
O307 O 0.88576 0.52368 0.7603 0.0
Mg308 Mg 0.78771 0.43183 0.51451 0.0
O309 O 0.78916 0.41534 0.4861 0.0
O310 O 0.81513 0.40674 0.48661 0.0
Mg311 Mg 0.82944 0.41632 0.51658 0.0
C312 C 0.80016 0.40741 0.47803 0.0
C313 C 0.75735 0.44779 0.50787 0.0
O314 O 0.77017 0.46079 0.51772 0.0
O315 O 0.78094 0.40549 0.52639 0.0
O316 O 0.80732 0.39757 0.52802 0.0
O317 O 0.80204 0.45678 0.5049 0.0
O318 O 0.81453 0.43808 0.52052 0.0
C319 C 0.791 0.39475 0.53071 0.0
C320 C 0.81616 0.4519 0.51158 0.0
O321 O 0.75968 0.43147 0.50468 0.0
Mg322 Mg 0.62593 0.52941 0.2797 0.0
O323 O 0.64538 0.55747 0.28305 0.0
O324 O 0.66171 0.56197 0.31124 0.0
Mg325 Mg 0.65172 0.5381 0.32695 0.0
C326 C 0.65781 0.56712 0.29547 0.0
C327 C 0.6047 0.52045 0.23992 0.0
O328 O 0.59478 0.50957 0.24945 0.0
O329 O 0.64835 0.5139 0.27538 0.0
O330 O 0.6604 0.51742 0.30562 0.0
O331 O 0.60505 0.54148 0.29378 0.0
O332 O 0.62622 0.53138 0.30889 0.0
C333 C 0.65895 0.51009 0.28826 0.0
C334 C 0.61251 0.53844 0.30958 0.0
O335 O 0.61941 0.53032 0.24823 0.0
C336 C 0.98798 0.96671 0.9787 0.0
C337 C 0.96934 0.95024 -0.00106 0.0
C338 C 0.97959 0.96682 0.99503 0.0
C339 C 0.96805 0.93364 0.98662 0.0
C340 C 0.98622 0.9501 0.96603 0.0
C341 C 0.97642 0.93358 0.9702 0.0
N342 N 0.99728 0.98291 0.97482 0.0
C343 C 0.00413 0.9836 0.95805 0.0
C344 C 0.99395 0.95063 0.94923 0.0
C345 C 0.00279 0.96749 0.94514 0.0
Gd346 Gd 0.04474 0.03501 0.02559 0.0
Gd347 Gd 0.99758 0.00924 0.99674 0.0
N348 N 0.98061 0.98315 0.0065 0.0
C349 C 0.96015 0.95087 0.01478 0.0
C350 C 0.97057 0.98393 0.02118 0.0
C351 C 0.96061 0.96782 0.02581 0.0
H352 H 0.96985 0.99699 0.02922 0.0
H353 H 0.95299 0.96855 0.03765 0.0
H354 H 0.06707 0.04511 0.98924 0.0
H355 H 0.01008 0.99658 0.95418 0.0
H356 H 0.08338 0.0726 0.97817 0.0
H357 H 0.95217 0.93844 0.01822 0.0
H358 H 0.96024 0.92082 0.98943 0.0
H359 H 0.03985 0.0487 0.07122 0.0
H360 H 0.99275 0.93819 0.93908 0.0
H361 H 0.00829 0.96814 0.9319 0.0
H362 H 0.08433 0.12214 0.02846 0.0
H363 H 0.97494 0.92071 0.96062 0.0
H364 H 0.05995 0.10702 0.08445 0.0
H365 H 0.04581 0.07764 0.094 0.0
N366 N 0.04903 0.06175 0.04839 0.0
C367 C 0.05777 0.07756 0.04319 0.0
C368 C 0.04542 0.06155 0.06664 0.0
C369 C 0.05699 0.09441 0.07423 0.0
C370 C 0.049 0.07788 0.07968 0.0
C371 C 0.06179 0.09437 0.05593 0.0
H372 H 0.07417 0.12348 0.0599 0.0
N373 N 0.06088 0.06018 0.01402 0.0
C374 C 0.06384 0.07677 0.02553 0.0
C375 C 0.08031 0.0913 0.00264 0.0
C376 C 0.07362 0.0928 0.02009 0.0
C377 C 0.06827 0.05847 0.99752 0.0
C378 C 0.07779 0.07401 0.99141 0.0
O379 O 0.01732 0.99098 0.00166 0.0
O380 O 0.03235 0.00591 0.03048 0.0
O381 O 0.07233 0.03392 0.0257 0.0
O382 O 0.05973 0.03068 0.051 0.0
O383 O 0.99951 0.01244 0.02845 0.0
O384 O 0.02077 0.03875 0.04006 0.0
O385 O 0.03267 0.05164 0.0061 0.0
O386 O 0.00261 0.04091 0.00602 0.0
O387 O 0.97006 0.011 0.9959 0.0
O388 O 0.98242 0.01034 0.97012 0.0
O389 O 0.04398 0.01769 0.99684 0.0
O390 O 0.01869 0.02257 0.98091 0.0
C391 C 0.02638 0.9907 0.01805 0.0
C392 C 0.00722 0.02591 0.0421 0.0
C393 C 0.08336 0.01568 0.04632 0.0
C394 C 0.10317 0.99596 0.03615 0.0
C395 C 0.09435 0.99697 0.06776 0.0
C396 C 0.08426 0.00985 0.06408 0.0
C397 C 0.10385 0.99009 0.05391 0.0
C398 C 0.09271 0.00852 0.03239 0.0
C399 C 0.074 0.03033 0.04291 0.0
C400 C 0.07689 0.10968 0.03242 0.0
C401 C 0.07106 0.11045 0.05032 0.0
H402 H 0.08787 0.1033 0.99797 0.0
C403 C 0.01631 0.05405 0.00401 0.0
C404 C 0.03482 0.01968 0.98114 0.0
C405 C 0.95895 0.02625 0.9723 0.0
C406 C 0.93632 0.04394 0.97758 0.0
C407 C 0.9527 0.04703 0.95067 0.0
C408 C 0.96222 0.03418 0.95599 0.0
C409 C 0.93985 0.05203 0.96148 0.0
C410 C 0.94583 0.03108 0.98286 0.0
C411 C 0.96827 0.01218 0.97793 0.0
H412 H 0.09515 0.99265 0.08151 0.0
H413 H 0.0774 0.01545 0.07519 0.0
H414 H 0.11216 0.98068 0.0573 0.0
H415 H 0.09224 0.01302 0.01868 0.0
H416 H 0.95521 0.05305 0.93808 0.0
H417 H 0.97201 0.0304 0.94731 0.0
H418 H 0.93247 0.0619 0.95712 0.0
H419 H 0.94299 0.02486 0.99531 0.0
C420 C 0.30213 0.73996 0.21992 0.0
C421 C 0.27761 0.72606 0.19545 0.0
C422 C 0.28586 0.74037 0.21041 0.0
C423 C 0.28581 0.71127 0.19052 0.0
C424 C 0.31059 0.72534 0.21482 0.0
C425 C 0.30228 0.71094 0.20014 0.0
N426 N 0.30955 0.75373 0.23446 0.0
C427 C 0.32564 0.75415 0.24414 0.0
C428 C 0.32709 0.72559 0.22475 0.0
C429 C 0.33469 0.74013 0.2394 0.0
Gd430 Gd 0.26387 0.7757 0.29115 0.0
Gd431 Gd 0.2931 0.77585 0.24285 0.0
N432 N 0.27821 0.7548 0.21571 0.0
C433 C 0.26143 0.72709 0.18578 0.0
C434 C 0.26291 0.75633 0.20552 0.0
C435 C 0.25419 0.74242 0.19067 0.0
H436 H 0.25729 0.76826 0.20835 0.0
H437 H 0.24192 0.74361 0.18292 0.0
H438 H 0.29863 0.78153 0.32559 0.0
H439 H 0.33149 0.76527 0.2556 0.0
H440 H 0.31185 0.80332 0.35444 0.0
H441 H 0.25462 0.71634 0.17427 0.0
H442 H 0.27958 0.7001 0.17916 0.0
H443 H 0.22542 0.7873 0.27733 0.0
H444 H 0.33404 0.71464 0.22123 0.0
H445 H 0.34745 0.74047 0.24714 0.0
H446 H 0.27188 0.84423 0.36216 0.0
H447 H 0.3085 0.69951 0.19611 0.0
H448 H 0.22041 0.83389 0.31639 0.0
H449 H 0.2089 0.81096 0.28748 0.0
N450 N 0.24653 0.79702 0.29991 0.0
C451 C 0.25278 0.80909 0.31624 0.0
C452 C 0.23084 0.79739 0.28977 0.0
C453 C 0.2278 0.82355 0.31198 0.0
C454 C 0.2213 0.81068 0.2956 0.0
C455 C 0.24368 0.82284 0.32256 0.0
H456 H 0.24395 0.8462 0.34414 0.0
N457 N 0.27723 0.79472 0.31985 0.0
C458 C 0.26853 0.80789 0.32652 0.0
C459 C 0.29146 0.81898 0.35317 0.0
C460 C 0.27557 0.82053 0.34322 0.0
C461 C 0.2923 0.79265 0.32999 0.0
C462 C 0.29975 0.80486 0.34662 0.0
O463 O 0.28538 0.74824 0.25202 0.0
O464 O 0.26212 0.75727 0.26332 0.0
O465 O 0.26283 0.75261 0.30623 0.0
O466 O 0.23885 0.76217 0.29901 0.0
O467 O 0.26611 0.78433 0.23868 0.0
O468 O 0.2481 0.77559 0.26226 0.0
O469 O 0.27796 0.80511 0.29073 0.0
O470 O 0.28321 0.78751 0.26731 0.0
O471 O 0.29515 0.79773 0.22624 0.0
O472 O 0.31905 0.79232 0.24026 0.0
O473 O 0.29127 0.76765 0.29345 0.0
O474 O 0.30942 0.78082 0.27199 0.0
C475 C 0.27142 0.74466 0.26082 0.0
C476 C 0.25066 0.78152 0.24582 0.0
C477 C 0.24205 0.75089 0.3279 0.0
C478 C 0.24773 0.74014 0.35756 0.0
C479 C 0.22784 0.76104 0.35494 0.0
C480 C 0.23067 0.76133 0.33607 0.0
C481 C 0.23648 0.75059 0.36576 0.0
C482 C 0.25024 0.74003 0.33865 0.0
C483 C 0.24619 0.75152 0.30853 0.0
C484 C 0.26662 0.83435 0.34942 0.0
C485 C 0.25071 0.83548 0.33915 0.0
H486 H 0.29731 0.82846 0.36603 0.0
C487 C 0.28563 0.80421 0.27579 0.0
C488 C 0.30697 0.77328 0.28751 0.0
C489 C 0.3201 0.80248 0.21043 0.0
C490 C 0.31695 0.81049 0.17898 0.0
C491 C 0.33873 0.79287 0.18738 0.0
C492 C 0.33354 0.79327 0.20552 0.0
C493 C 0.33026 0.80118 0.174 0.0
C494 C 0.31239 0.81162 0.19732 0.0
C495 C 0.31241 0.80134 0.22819 0.0
H496 H 0.21908 0.76904 0.36123 0.0
H497 H 0.22413 0.76981 0.32802 0.0
H498 H 0.23432 0.75055 0.38043 0.0
H499 H 0.25897 0.73186 0.33247 0.0
H500 H 0.34897 0.78567 0.18351 0.0
H501 H 0.33968 0.78605 0.21543 0.0
H502 H 0.33397 0.80023 0.15979 0.0
H503 H 0.30189 0.81859 0.20099 0.0
C504 C 0.56375 0.06394 0.49153 0.0
C505 C 0.58516 0.08192 0.51759 0.0
C506 C 0.57186 0.06614 0.51003 0.0
C507 C 0.58997 0.09564 0.5064 0.0
C508 C 0.56896 0.0774 0.48006 0.0
C509 C 0.5819 0.09338 0.48769 0.0
N510 N 0.55155 0.04815 0.48442 0.0
C511 C 0.54542 0.04424 0.46558 0.0
C512 C 0.56152 0.07408 0.46105 0.0
C513 C 0.5499 0.05727 0.45371 0.0
Gd514 Gd 0.49706 0.0211 0.52451 0.0
Gd515 Gd 0.54564 0.02686 0.50532 0.0
N516 N 0.56689 0.05268 0.52057 0.0
C517 C 0.59337 0.08332 0.53612 0.0
C518 C 0.57525 0.05359 0.53835 0.0
C519 C 0.58845 0.06905 0.54649 0.0
H520 H 0.57168 0.0424 0.54621 0.0
H521 H 0.59492 0.06989 0.5607 0.0
H522 H 0.47664 0.00543 0.47958 0.0
H523 H 0.53788 0.0307 0.45955 0.0
H524 H 0.45716 0.97691 0.46199 0.0
H525 H 0.60365 0.09524 0.54244 0.0
H526 H 0.60012 0.1079 0.51198 0.0
H527 H 0.5062 0.01288 0.56856 0.0
H528 H 0.56523 0.08404 0.45176 0.0
H529 H 0.54479 0.05413 0.43881 0.0
H530 H 0.44784 0.93685 0.5084 0.0
H531 H 0.58603 0.10389 0.4791 0.0
H532 H 0.47744 0.95852 0.57146 0.0
H533 H 0.4979 0.98764 0.58689 0.0
N534 N 0.49148 0.99774 0.54281 0.0
C535 C 0.47974 0.98213 0.53413 0.0
C536 C 0.49778 0.99999 0.56154 0.0
C537 C 0.48122 0.96947 0.56328 0.0
C538 C 0.49286 0.98584 0.57203 0.0
C539 C 0.4745 0.96745 0.54413 0.0
H540 H 0.45867 0.93979 0.54218 0.0
N541 N 0.47898 0.9949 0.50548 0.0
C542 C 0.47349 0.98058 0.51494 0.0
C543 C 0.45625 0.96283 0.48618 0.0
C544 C 0.46201 0.96415 0.50547 0.0
C545 C 0.47304 0.99385 0.48682 0.0
C546 C 0.46176 0.97774 0.47684 0.0
O547 O 0.53996 0.05268 0.52265 0.0
O548 O 0.5094 0.05 0.51944 0.0
O549 O 0.47 0.02553 0.52222 0.0
O550 O 0.48649 0.032 0.54928 0.0
O551 O 0.54225 0.01682 0.5329 0.0
O552 O 0.52163 0.03219 0.54502 0.0
O553 O 0.51032 0.99621 0.52014 0.0
O554 O 0.5245 1.00087 0.49424 0.0
O555 O 0.56529 0.00999 0.5119 0.0
O556 O 0.5623 0.02001 0.48477 0.0
O557 O 0.4987 0.03244 0.49726 0.0
O558 O 0.5203 0.01896 0.48594 0.0
C559 C 0.52579 0.06003 0.52266 0.0
C560 C 0.53471 0.02367 0.54705 0.0
C561 C 0.4644 0.04937 0.54522 0.0
C562 C 0.44313 0.06872 0.53967 0.0
C563 C 0.46423 0.07638 0.56824 0.0
C564 C 0.47122 0.06109 0.56251 0.0
C565 C 0.45034 0.08024 0.55688 0.0
C566 C 0.45005 0.05313 0.5339 0.0
C567 C 0.47138 0.03258 0.54007 0.0
C568 C 0.4567 0.94954 0.51546 0.0
C569 C 0.46287 0.95121 0.53472 0.0
H570 H 0.44746 0.95041 0.4784 0.0
C571 C 0.51695 0.98962 0.50508 0.0
C572 C 0.50872 0.02924 0.484 0.0
C573 C 0.5833 1.00085 0.48686 0.0
C574 C 0.60818 0.98578 0.48986 0.0
C575 C 0.59566 0.98951 0.45881 0.0
C576 C 0.58334 0.99818 0.46707 0.0
C577 C 0.60809 0.9834 0.47014 0.0
C578 C 0.59571 0.99443 0.49828 0.0
C579 C 0.57032 0.01051 0.49509 0.0
H580 H 0.46951 0.0852 0.58163 0.0
H581 H 0.48187 0.05835 0.57182 0.0
H582 H 0.44498 0.09211 0.5617 0.0
H583 H 0.44429 0.04405 0.52077 0.0
H584 H 0.59562 0.98758 0.4436 0.0
H585 H 0.57384 0.00283 0.4579 0.0
H586 H 0.61767 0.97675 0.46352 0.0
H587 H 0.59587 0.99638 0.51353 0.0
C588 C 0.23586 0.29257 0.72997 0.0
C589 C 0.21714 0.26507 0.71098 0.0
C590 C 0.22939 0.27374 0.72699 0.0
C591 C 0.2123 0.27562 0.69745 0.0
C592 C 0.23021 0.30341 0.71706 0.0
C593 C 0.21882 0.29478 0.70049 0.0
N594 N 0.24646 0.30043 0.74633 0.0
C595 C 0.25045 0.31913 0.75154 0.0
C596 C 0.23553 0.32264 0.72163 0.0
C597 C 0.24542 0.33054 0.73914 0.0
Gd598 Gd 0.30401 0.26461 0.77073 0.0
Gd599 Gd 0.25547 0.28037 0.76583 0.0
N600 N 0.23419 0.26408 0.74047 0.0
C601 C 0.20966 0.24622 0.70943 0.0
C602 C 0.22614 0.24597 0.73963 0.0
C603 C 0.21396 0.2367 0.724 0.0
H604 H 0.22934 0.23866 0.75089 0.0
H605 H 0.20792 0.22224 0.7232 0.0
H606 H 0.32659 0.30888 0.78667 0.0
H607 H 0.25736 0.32521 0.76543 0.0
H608 H 0.34491 0.32652 0.81556 0.0
H609 H 0.20019 0.23904 0.69736 0.0
H610 H 0.20307 0.26919 0.68493 0.0
H611 H 0.29266 0.22116 0.77931 0.0
H612 H 0.23145 0.33148 0.71213 0.0
H613 H 0.24895 0.34538 0.7432 0.0
H614 H 0.34725 0.28207 0.85717 0.0
H615 H 0.21449 0.30285 0.69029 0.0
H616 H 0.31575 0.21974 0.83532 0.0
H617 H 0.29742 0.20383 0.80535 0.0
N618 N 0.30719 0.2469 0.79472 0.0
C619 C 0.3179 0.25581 0.81079 0.0
C620 C 0.30017 0.22842 0.7925 0.0
C621 C 0.31352 0.22749 0.824 0.0
C622 C 0.30309 0.21848 0.80714 0.0
C623 C 0.32114 0.24635 0.82598 0.0
H624 H 0.33442 0.24891 0.85443 0.0
N625 N 0.32172 0.28348 0.79747 0.0
C626 C 0.32533 0.27459 0.81224 0.0
C627 C 0.34292 0.30315 0.83021 0.0
C628 C 0.33592 0.28426 0.82904 0.0
C629 C 0.32883 0.30184 0.79844 0.0
C630 C 0.33941 0.31194 0.81483 0.0
O631 O 0.26158 0.26213 0.74031 0.0
O632 O 0.29224 0.26908 0.74202 0.0
O633 O 0.33141 0.2701 0.76421 0.0
O634 O 0.3156 0.24232 0.75872 0.0
O635 O 0.26034 0.25544 0.77818 0.0
O636 O 0.27945 0.24185 0.76162 0.0
O637 O 0.29047 0.27088 0.79689 0.0
O638 O 0.27851 0.29403 0.78797 0.0
O639 O 0.23289 0.26953 0.7803 0.0
O640 O 0.24441 0.29859 0.78506 0.0
O641 O 0.30522 0.29225 0.76116 0.0
O642 O 0.27864 0.30289 0.76154 0.0
C643 C 0.27634 0.26277 0.73241 0.0
C644 C 0.26444 0.24074 0.76906 0.0
C645 C 0.33779 0.24961 0.73849 0.0
C646 C 0.36262 0.25326 0.71949 0.0
C647 C 0.33438 0.2328 0.7064 0.0
C648 C 0.32733 0.23725 0.72314 0.0
C649 C 0.35189 0.24068 0.70459 0.0
C650 C 0.35556 0.2577 0.73654 0.0
C651 C 0.33058 0.25305 0.75681 0.0
C652 C 0.33913 0.27485 0.84417 0.0
C653 C 0.33181 0.25596 0.84263 0.0
H654 H 0.3511 0.31105 0.84289 0.0
C655 C 0.28363 0.28531 0.80121 0.0
C656 C 0.29568 0.30483 0.75923 0.0
C657 C 0.21385 0.29021 0.78768 0.0
C658 C 0.18602 0.29006 0.80121 0.0
C659 C 0.19322 0.30791 0.77617 0.0
C660 C 0.2091 0.30197 0.7754 0.0
C661 C 0.1818 0.30212 0.78907 0.0
C662 C 0.20209 0.28405 0.80047 0.0
C663 C 0.23164 0.28577 0.78835 0.0
H664 H 0.32625 0.2231 0.69478 0.0
H665 H 0.3137 0.23077 0.7241 0.0
H666 H 0.35711 0.23696 0.69147 0.0
H667 H 0.36386 0.2672 0.74822 0.0
H668 H 0.18983 0.31719 0.76683 0.0
H669 H 0.21782 0.30691 0.76545 0.0
H670 H 0.16956 0.30696 0.7895 0.0
H671 H 0.2056 0.27502 0.81007 0.0
C672 C 0.00475 0.06737 0.56097 0.0
C673 C 0.03235 0.08453 0.57961 0.0
C674 C 0.02313 0.07348 0.56274 0.0
C675 C 0.02293 0.08928 0.59463 0.0
C676 C 0.99529 0.07207 0.57607 0.0
C677 C 0.00447 0.08307 0.59287 0.0
N678 N 0.99618 0.05661 0.54461 0.0
C679 C 0.97821 0.05035 0.54225 0.0
C680 C 0.97686 0.06553 0.57384 0.0
C681 C 0.96829 0.05464 0.55685 0.0
Gd682 Gd 0.02879 1.00118 0.51406 0.0
Gd683 Gd 0.01406 0.05047 0.52113 0.0
N684 N 0.032 0.06829 0.54811 0.0
C685 C 0.05077 0.09054 0.58085 0.0
C686 C 0.04982 0.0748 0.54895 0.0
C687 C 0.05951 0.08579 0.56539 0.0
H688 H 0.05662 0.07193 0.53693 0.0
H689 H 0.0737 0.09075 0.56605 0.0
H690 H 0.98647 0.97651 0.5037 0.0
H691 H 0.97147 0.04238 0.52896 0.0
H692 H 0.96711 0.95705 0.47632 0.0
H693 H 0.05833 0.09908 0.59356 0.0
H694 H 0.0298 0.09777 0.60769 0.0
H695 H 0.06974 0.00891 0.5015 0.0
H696 H 0.96912 0.06885 0.58511 0.0
H697 H 0.95404 0.04966 0.55494 0.0
H698 H 0.00609 0.95072 0.42899 0.0
H699 H 0.99741 0.08685 0.60461 0.0
H700 H 0.06744 0.98061 0.44508 0.0
H701 H 0.08472 1.00078 0.47372 0.0
N702 N 0.04422 0.99406 0.48851 0.0
C703 C 0.03452 0.98268 0.47308 0.0
C704 C 0.06203 1.00045 0.48894 0.0
C705 C 0.06079 0.98425 0.45719 0.0
C706 C 0.07057 0.99569 0.4733 0.0
C707 C 0.04254 0.97757 0.45693 0.0
H708 H 0.03806 0.96204 0.4285 0.0
N709 N 0.00906 0.98172 0.48911 0.0
C710 C 0.01642 0.97642 0.47334 0.0
C711 C 0.98794 0.95812 0.45843 0.0
C712 C 0.00599 0.9647 0.45747 0.0
C713 C 0.99179 0.97424 0.49056 0.0
C714 C 0.98088 0.9627 0.47515 0.0
O715 O 0.01904 0.03695 0.54704 0.0
O716 O 0.04115 0.02197 0.53979 0.0
O717 O 0.02154 0.97748 0.52941 0.0
O718 O 0.04772 0.9848 0.52022 0.0
O719 O 0.03955 0.04912 0.50846 0.0
O720 O 0.05122 0.02643 0.5207 0.0
O721 O 0.02417 0.0147 0.48809 0.0
O722 O 0.00225 0.03046 0.49454 0.0
O723 O 0.02349 0.07363 0.50653 0.0
O724 O 0.99766 0.06999 0.51624 0.0
O725 O 0.00347 0.00339 0.52707 0.0
O726 O 0.99206 0.0252 0.51292 0.0
C727 C 0.03239 0.02963 0.55213 0.0
C728 C 0.05294 0.04141 0.51271 0.0
C729 C 0.0433 0.95818 0.53621 0.0
C730 C 0.04002 0.93223 0.55401 0.0
C731 C 0.06665 0.94095 0.53919 0.0
C732 C 0.06003 0.95507 0.53241 0.0
C733 C 0.05676 0.92964 0.54991 0.0
C734 C 0.03317 0.94657 0.5471 0.0
C735 C 0.03717 0.97366 0.52859 0.0
C736 C 0.01391 0.95968 0.44131 0.0
C737 C 0.03213 0.96609 0.44105 0.0
H738 H 0.97949 0.94906 0.44656 0.0
C739 C 0.01107 0.02226 0.48251 0.0
C740 C 0.99006 0.01066 0.52156 0.0
C741 C 1.00146 0.08577 0.48995 0.0
C742 C 0.00237 0.10931 0.46936 0.0
C743 C 0.97692 0.0836 0.46547 0.0
C744 C 0.9848 0.07648 0.48024 0.0
C745 C 0.98555 0.09999 0.46018 0.0
C746 C 0.01036 0.10209 0.48422 0.0
C747 C 0.00886 0.07963 0.50711 0.0
H748 H 0.07954 0.93877 0.53612 0.0
H749 H 0.06814 0.96358 0.5241 0.0
H750 H 0.06222 0.91874 0.55506 0.0
H751 H 0.02027 0.94868 0.55024 0.0
H752 H 0.96397 0.07651 0.45826 0.0
H753 H 0.97767 0.06393 0.48432 0.0
H754 H 0.97912 0.10538 0.44881 0.0
H755 H 0.02316 0.10945 0.49167 0.0
C756 C 0.23702 0.7306 0.79482 0.0
C757 C 0.22013 0.70791 0.76863 0.0
C758 C 0.23548 0.7215 0.77621 0.0
C759 C 0.20645 0.70363 0.77984 0.0
C760 C 0.22336 0.72619 0.80613 0.0
C761 C 0.20808 0.71268 0.79853 0.0
N762 N 0.25171 0.74404 0.8017 0.0
C763 C 0.25415 0.75265 0.82004 0.0
C764 C 0.22546 0.73549 0.82477 0.0
C765 C 0.24098 0.74869 0.83179 0.0
Gd766 Gd 0.27847 0.79498 0.75934 0.0
Gd767 Gd 0.27358 0.74795 0.78155 0.0
N768 N 0.24894 0.7259 0.76559 0.0
C769 C 0.21906 0.69884 0.75004 0.0
C770 C 0.24838 0.7163 0.74791 0.0
C771 C 0.23331 0.70294 0.73971 0.0
H772 H 0.25972 0.7183 0.74033 0.0
H773 H 0.23286 0.69553 0.72557 0.0
H774 H 0.29301 0.82675 0.79734 0.0
H775 H 0.26642 0.76221 0.82585 0.0
H776 H 0.31924 0.85206 0.80922 0.0
H777 H 0.20747 0.68834 0.7437 0.0
H778 H 0.19457 0.69322 0.77422 0.0
H779 H 0.28305 0.7793 0.71375 0.0
H780 H 0.21529 0.73243 0.83392 0.0
H781 H 0.2429 0.75564 0.84631 0.0
H782 H 0.35591 0.85053 0.75898 0.0
H783 H 0.19744 0.70913 0.80701 0.0
H784 H 0.33392 0.8066 0.7026 0.0
H785 H 0.30572 0.78374 0.69221 0.0
N786 N 0.29904 0.79757 0.73723 0.0
C787 C 0.31405 0.81096 0.74286 0.0
C788 C 0.29571 0.78836 0.71904 0.0
C789 C 0.32424 0.80422 0.71242 0.0
C790 C 0.30838 0.79124 0.70654 0.0
C791 C 0.32709 0.81456 0.73063 0.0
H792 H 0.35244 0.83159 0.7275 0.0
N793 N 0.30316 0.81821 0.77202 0.0
C794 C 0.31601 0.82179 0.76059 0.0
C795 C 0.33226 0.84709 0.78438 0.0
C796 C 0.33102 0.83628 0.76656 0.0
C797 C 0.30387 0.82912 0.78901 0.0
C798 C 0.31857 0.84356 0.7956 0.0
O799 O 0.24857 0.76006 0.77673 0.0
O800 O 0.25304 0.77347 0.75037 0.0
O801 O 0.26293 0.81623 0.76586 0.0
O802 O 0.27243 0.81114 0.73823 0.0
O803 O 0.28271 0.74662 0.75264 0.0
O804 O 0.2696 0.76793 0.73975 0.0
O805 O 0.30334 0.79058 0.7765 0.0
O806 O 0.30045 0.75903 0.77217 0.0
O807 O 0.27755 0.72005 0.78157 0.0
O808 O 0.28681 0.7408 0.80651 0.0
O809 O 0.26887 0.79425 0.78783 0.0
O810 O 0.28419 0.77476 0.80115 0.0
C811 C 0.24229 0.7665 0.76187 0.0
C812 C 0.27682 0.75349 0.73808 0.0
C813 C 0.25564 0.83484 0.74165 0.0
C814 C 0.23796 0.85823 0.74506 0.0
C815 C 0.24889 0.85034 0.71516 0.0
C816 C 0.25696 0.83753 0.72279 0.0
C817 C 0.23936 0.86058 0.72618 0.0
C818 C 0.24625 0.84545 0.7529 0.0
C819 C 0.2637 0.82056 0.74893 0.0
C820 C 0.34423 0.83953 0.7546 0.0
C821 C 0.34228 0.82869 0.7367 0.0
H822 H 0.3436 0.85832 0.78949 0.0
C823 C 0.31041 0.77591 0.77607 0.0
C824 C 0.27679 0.78907 0.80246 0.0
C825 C 0.30178 0.71596 0.80246 0.0
C826 C 0.31893 0.6925 0.79501 0.0
C827 C 0.32711 0.71423 0.82432 0.0
C828 C 0.31306 0.72249 0.81959 0.0
C829 C 0.33007 0.69933 0.81209 0.0
C830 C 0.30472 0.70074 0.79021 0.0
C831 C 0.28601 0.72385 0.79865 0.0
H832 H 0.25 0.8523 0.70064 0.0
H833 H 0.26416 0.82964 0.7138 0.0
H834 H 0.23324 0.87056 0.72003 0.0
H835 H 0.24516 0.84363 0.76749 0.0
H836 H 0.33561 0.71926 0.83761 0.0
H837 H 0.31084 0.73379 0.82956 0.0
H838 H 0.34092 0.69293 0.81608 0.0
H839 H 0.29593 0.69514 0.77717 0.0
C840 C 0.55665 0.99823 0.0588 0.0
C841 C 0.5699 0.02386 0.08378 0.0
C842 C 0.55643 0.01545 0.06871 0.0
C843 C 0.5837 0.01498 0.08832 0.0
C844 C 0.57042 0.98923 0.06336 0.0
C845 C 0.58395 0.99771 0.07816 0.0
N846 N 0.54379 0.99067 0.04405 0.0
C847 C 0.54366 0.97401 0.03355 0.0
C848 C 0.57034 0.97209 0.0527 0.0
C849 C 0.55687 0.96444 0.03776 0.0
Gd850 Gd 0.52884 0.03986 0.99504 0.0
Gd851 Gd 0.52259 0.00789 0.03714 0.0
N852 N 0.54306 0.0239 0.06369 0.0
C853 C 0.569 0.04084 0.09401 0.0
C854 C 0.54142 0.03969 0.07476 0.0
C855 C 0.55452 0.04861 0.08969 0.0
H856 H 0.52985 0.04533 0.07275 0.0
H857 H 0.55328 0.06133 0.09809 0.0
H858 H 0.52307 0.00306 0.9585 0.0
H859 H 0.53331 0.9681 0.02191 0.0
H860 H 0.5005 0.98756 0.93224 0.0
H861 H 0.5791 0.04777 0.10563 0.0
H862 H 0.59419 0.02132 0.09975 0.0
H863 H 0.5176 0.07943 0.01022 0.0
H864 H 0.58067 0.96473 0.0558 0.0
H865 H 0.55673 0.95123 0.0294 0.0
H866 H 0.45985 0.02769 0.92934 0.0
H867 H 0.59468 0.99105 0.08182 0.0
H868 H 0.47183 0.08354 0.97418 0.0
H869 H 0.4946 0.09649 0.00181 0.0
N870 N 0.50805 0.05727 0.98744 0.0
C871 C 0.4959 0.05005 0.97199 0.0
C872 C 0.50775 0.07372 0.9981 0.0
C873 C 0.482 0.0761 0.97769 0.0
C874 C 0.49479 0.08343 0.99334 0.0
C875 C 0.48237 0.05918 0.96686 0.0
H876 H 0.45882 0.0577 0.94741 0.0
N877 N 0.50956 0.02436 0.96738 0.0
C878 C 0.49646 0.03298 0.9619 0.0
C879 C 0.4847 0.00801 0.93591 0.0
C880 C 0.48353 0.02486 0.94623 0.0
C881 C 0.51158 0.00878 0.95619 0.0
C882 C 0.49899 1.00014 0.9407 0.0
O883 O 0.54963 0.01434 0.02852 0.0
O884 O 0.54582 0.04166 0.02207 0.0
O885 O 0.55155 0.04254 0.97964 0.0
O886 O 0.54063 0.06637 0.98766 0.0
O887 O 0.5142 0.03601 0.04224 0.0
O888 O 0.53129 0.05535 0.02502 0.0
O889 O 0.50128 0.03239 0.0025 0.0
O890 O 0.50509 0.00546 0.01032 0.0
O891 O 0.5018 0.0057 0.05529 0.0
O892 O 0.51025 0.9812 0.04359 0.0
O893 O 0.53667 0.01156 0.9895 0.0
O894 O 0.51957 0.99245 0.00695 0.0
C895 C 0.55589 0.03001 0.02349 0.0
C896 C 0.5207 0.05271 0.0383 0.0
C897 C 0.55059 0.06305 0.9577 0.0
C898 C 0.55389 0.05332 0.9248 0.0
C899 C 0.54586 0.08264 0.93435 0.0
C900 C 0.54649 0.07945 0.95305 0.0
C901 C 0.5496 0.06969 0.92026 0.0
C902 C 0.55408 0.05 0.94345 0.0
C903 C 0.55121 0.05939 0.97729 0.0
C904 C 0.46995 0.03384 0.94121 0.0
C905 C 0.4694 0.05097 0.95146 0.0
H906 H 0.475 1.0013 0.92386 0.0
C907 C 0.49479 0.01672 0.00765 0.0
C908 C 0.53014 0.99497 0.9936 0.0
C909 C 0.5021 0.98296 0.0745 0.0
C910 C 0.49196 0.98507 0.10536 0.0
C911 C 0.51587 0.96953 0.09933 0.0
C912 C 0.51477 0.97333 0.08079 0.0
C913 C 0.50454 0.97547 0.11167 0.0
C914 C 0.49063 0.98859 0.08682 0.0
C915 C 0.50102 0.98824 0.05563 0.0
H916 H 0.54281 0.09534 0.93082 0.0
H917 H 0.5438 0.08978 0.96384 0.0
H918 H 0.54981 0.07283 0.906 0.0
H919 H 0.5573 0.03731 0.94684 0.0
H920 H 0.52563 0.96215 0.10418 0.0
H921 H 0.5239 0.96893 0.07155 0.0
H922 H 0.5056 0.97268 0.12608 0.0
H923 H 0.4809 0.99613 0.08212 0.0
C924 C 0.33001 0.32001 0.29973 0.0
C925 C 0.34374 0.33794 0.27722 0.0
C926 C 0.32872 0.32669 0.28256 0.0
C927 C 0.35985 0.34249 0.28931 0.0
C928 C 0.34615 0.32473 0.31193 0.0
C929 C 0.36103 0.33596 0.30662 0.0
N930 N 0.3155 0.30889 0.30449 0.0
C931 C 0.31585 0.30326 0.32177 0.0
C932 C 0.34682 0.31822 0.32928 0.0
C933 C 0.33155 0.30757 0.33427 0.0
Gd934 Gd 0.2712 0.25414 0.25721 0.0
Gd935 Gd 0.28941 0.30516 0.28392 0.0
N936 N 0.31295 0.32203 0.27101 0.0
C937 C 0.3422 0.34416 0.2598 0.0
C938 C 0.31125 0.3287 0.25435 0.0
C939 C 0.32589 0.33955 0.24835 0.0
H940 H 0.29859 0.3263 0.24585 0.0
H941 H 0.3245 0.34465 0.23503 0.0
H942 H 0.25863 0.2318 0.29189 0.0
H943 H 0.30395 0.29605 0.32633 0.0
H944 H 0.23108 0.21408 0.30102 0.0
H945 H 0.35347 0.35271 0.25515 0.0
H946 H 0.37149 0.35111 0.28542 0.0
H947 H 0.26122 0.2602 0.21174 0.0
H948 H 0.35894 0.32165 0.33908 0.0
H949 H 0.33177 0.30298 0.34791 0.0
H950 H 0.18658 0.21369 0.24968 0.0
H951 H 0.37352 0.33973 0.31583 0.0
H952 H 0.20539 0.24089 0.19648 0.0
H953 H 0.23473 0.25553 0.18861 0.0
N954 N 0.24692 0.25086 0.23376 0.0
C955 C 0.23105 0.24182 0.23798 0.0
C956 C 0.24843 0.25508 0.216 0.0
C957 C 0.21692 0.24361 0.20705 0.0
C958 C 0.23344 0.25194 0.20258 0.0
C959 C 0.21562 0.23804 0.22475 0.0
H960 H 0.18757 0.22524 0.2193 0.0
N961 N 0.2456 0.23836 0.26727 0.0
C962 C 0.23042 0.23515 0.25508 0.0
C963 C 0.21469 0.21744 0.27635 0.0
C964 C 0.21447 0.22475 0.25942 0.0
C965 C 0.24617 0.23037 0.28319 0.0
C966 C 0.23066 0.22011 0.28819 0.0
O967 O 0.31023 0.28758 0.27772 0.0
O968 O 0.29799 0.2679 0.25016 0.0
O969 O 0.28235 0.23094 0.26313 0.0
O970 O 0.26792 0.23023 0.23555 0.0
O971 O 0.27542 0.30318 0.25424 0.0
O972 O 0.28076 0.27586 0.23937 0.0
O973 O 0.25255 0.26711 0.275 0.0
O974 O 0.25982 0.29781 0.27267 0.0
O975 O 0.29185 0.33466 0.28938 0.0
O976 O 0.28233 0.31804 0.31024 0.0
O977 O 0.28623 0.25819 0.28663 0.0
O978 O 0.27841 0.28396 0.30144 0.0
C979 C 0.31193 0.27657 0.26224 0.0
C980 C 0.27663 0.29196 0.23884 0.0
C981 C 0.29078 0.21377 0.23697 0.0
C982 C 0.30849 0.19062 0.2367 0.0
C983 C 0.30951 0.20982 0.21214 0.0
C984 C 0.29733 0.21886 0.22042 0.0
C985 C 0.31495 0.19554 0.22012 0.0
C986 C 0.29656 0.19986 0.24508 0.0
C987 C 0.27749 0.22205 0.24593 0.0
C988 C 0.19898 0.22159 0.24657 0.0
C989 C 0.19955 0.22821 0.22928 0.0
H990 H 0.20271 0.20936 0.28017 0.0
C991 C 0.24818 0.28325 0.27543 0.0
C992 C 0.28235 0.26781 0.30174 0.0
C993 C 0.2724 0.34565 0.30928 0.0
C994 C 0.25354 0.36562 0.29892 0.0
C995 C 0.25776 0.3622 0.33211 0.0
C996 C 0.26897 0.35019 0.32795 0.0
C997 C 0.25019 0.37003 0.31774 0.0
C998 C 0.26434 0.35306 0.29476 0.0
C999 C 0.28549 0.33442 0.30551 0.0
H1000 H 0.31457 0.21371 0.19942 0.0
H1001 H 0.2931 0.22977 0.21399 0.0
H1002 H 0.3241 0.18834 0.2134 0.0
H1003 H 0.29124 0.19574 0.25767 0.0
H1004 H 0.25532 0.36585 0.34658 0.0
H1005 H 0.27523 0.34471 0.33935 0.0
H1006 H 0.24223 0.38 0.32148 0.0
H1007 H 0.26687 0.34947 0.28028 0.0
C1008 C 0.50449 0.56707 0.05782 0.0
C1009 C 0.53128 0.58855 0.07358 0.0
C1010 C 0.52233 0.57517 0.05812 0.0
C1011 C 0.52221 0.5933 0.08891 0.0
C1012 C 0.49531 0.57192 0.07312 0.0
C1013 C 0.5043 0.58496 0.08871 0.0
N1014 N 0.49611 0.55453 0.04252 0.0
C1015 C 0.4784 0.54703 0.04121 0.0
C1016 C 0.47731 0.56366 0.07221 0.0
C1017 C 0.46879 0.55127 0.05612 0.0
Gd1018 Gd 0.52781 0.49854 0.01155 0.0
Gd1019 Gd 0.51357 0.54856 0.01844 0.0
N1020 N 0.53098 0.5698 0.0434 0.0
C1021 C 0.54913 0.59668 0.07319 0.0
C1022 C 0.54816 0.57811 0.04262 0.0
C1023 C 0.55756 0.59152 0.05758 0.0
H1024 H 0.55453 0.57476 0.03032 0.0
H1025 H 0.57125 0.59798 0.05699 0.0
H1026 H 0.48462 0.4779 0.99784 0.0
H1027 H 0.47148 0.53818 0.02849 0.0
H1028 H 0.46596 0.4601 0.96912 0.0
H1029 H 0.55647 0.60703 0.08477 0.0
H1030 H 0.52891 0.60343 0.10097 0.0
H1031 H 0.56958 0.50598 0.00118 0.0
H1032 H 0.46981 0.56701 0.08369 0.0
H1033 H 0.45478 0.54517 0.05507 0.0
H1034 H 0.50733 0.45193 0.92475 0.0
H1035 H 0.49748 0.58881 0.10062 0.0
H1036 H 0.56892 0.47888 0.94452 0.0
H1037 H 0.58552 0.49793 0.9741 0.0
N1038 N 0.54424 0.49196 0.98684 0.0
C1039 C 0.53482 0.48137 0.97077 0.0
C1040 C 0.56219 0.49791 0.98821 0.0
C1041 C 0.56184 0.48245 0.95631 0.0
C1042 C 0.57126 0.49325 0.97297 0.0
C1043 C 0.5434 0.4764 0.95502 0.0
H1044 H 0.53972 0.46173 0.92627 0.0
N1045 N 0.50844 0.48131 0.98519 0.0
C1046 C 0.51644 0.4759 0.96991 0.0
C1047 C 0.48794 0.45982 0.95293 0.0
C1048 C 0.50634 0.46521 0.95329 0.0
C1049 C 0.49067 0.47521 0.98525 0.0
C1050 C 0.48011 0.46469 0.96905 0.0
O1051 O 0.52211 0.53816 0.04553 0.0
O1052 O 0.54013 0.51735 0.03852 0.0
O1053 O 0.51839 0.47455 0.025 0.0
O1054 O 0.54447 0.47911 0.01603 0.0
O1055 O 0.53927 0.54645 0.00642 0.0
O1056 O 0.55048 0.52359 0.01935 0.0
O1057 O 0.52404 0.51297 0.9861 0.0
O1058 O 0.50147 0.52698 0.99329 0.0
O1059 O 0.52091 0.57101 0.00152 0.0
O1060 O 0.49504 0.56517 0.01181 0.0
O1061 O 0.50334 0.50115 0.02591 0.0
O1062 O 0.4921 0.52276 0.01166 0.0
C1063 C 0.53312 0.52782 0.05052 0.0
C1064 C 0.55249 0.53906 0.01214 0.0
C1065 C 0.54063 0.46331 0.04222 0.0
C1066 C 0.54191 0.43974 0.06256 0.0
C1067 C 0.56339 0.46904 0.0693 0.0
C1068 C 0.55544 0.47488 0.05368 0.0
C1069 C 0.55681 0.45156 0.07361 0.0
C1070 C 0.53369 0.44576 0.0469 0.0
C1071 C 0.53325 0.46896 0.02472 0.0
C1072 C 0.51489 0.46016 0.93762 0.0
C1073 C 0.53335 0.46572 0.93849 0.0
H1074 H 0.47973 0.4516 0.94044 0.0
C1075 C 0.51077 0.52033 0.98089 0.0
C1076 C 0.49018 0.509 0.02133 0.0
C1077 C 0.4995 0.59052 0.99409 0.0
C1078 C 0.50307 0.61551 0.97501 0.0
C1079 C 0.47601 0.60726 0.98931 0.0
C1080 C 0.48258 0.59361 0.99709 0.0
C1081 C 0.4861 0.61806 0.97832 0.0
C1082 C 0.50991 0.60174 0.9831 0.0
C1083 C 0.50553 0.57542 0.00254 0.0
H1084 H 0.57485 0.47803 0.07798 0.0
H1085 H 0.56099 0.48839 0.05046 0.0
H1086 H 0.56335 0.44726 0.08569 0.0
H1087 H 0.52235 0.43665 0.03809 0.0
H1088 H 0.46298 0.60945 0.99178 0.0
H1089 H 0.47427 0.58542 0.00549 0.0
H1090 H 0.48065 0.62862 0.97244 0.0
H1091 H 0.52297 0.59962 0.98061 0.0
C1092 C 0.73868 0.23359 0.2991 0.0
C1093 C 0.71936 0.21209 0.27356 0.0
C1094 C 0.73542 0.22495 0.28027 0.0
C1095 C 0.70663 0.20814 0.28593 0.0
C1096 C 0.72594 0.2296 0.31155 0.0
C1097 C 0.70991 0.21685 0.30485 0.0
N1098 N 0.7542 0.2461 0.30515 0.0
C1099 C 0.75805 0.25468 0.32353 0.0
C1100 C 0.72968 0.23858 0.33036 0.0
C1101 C 0.74583 0.25112 0.33638 0.0
Gd1102 Gd 0.77773 0.29582 0.25812 0.0
Gd1103 Gd 0.77385 0.25057 0.28258 0.0
N1104 N 0.74786 0.2293 0.26848 0.0
C1105 C 0.71663 0.20346 0.25464 0.0
C1106 C 0.74568 0.22012 0.25039 0.0
C1107 C 0.72994 0.20735 0.24308 0.0
H1108 H 0.75618 0.22211 0.2417 0.0
H1109 H 0.72821 0.20029 0.22861 0.0
H1110 H 0.79339 0.32379 0.29987 0.0
H1111 H 0.77073 0.26395 0.32839 0.0
H1112 H 0.8207 0.34607 0.3143 0.0
H1113 H 0.70448 0.19348 0.24895 0.0
H1114 H 0.69422 0.1983 0.28101 0.0
H1115 H 0.78345 0.28257 0.21312 0.0
H1116 H 0.72024 0.23585 0.34037 0.0
H1117 H 0.74892 0.25796 0.35095 0.0
H1118 H 0.85695 0.35012 0.26387 0.0
H1119 H 0.69997 0.21361 0.31421 0.0
H1120 H 0.834 0.31274 0.20359 0.0
H1121 H 0.80617 0.28965 0.19175 0.0
N1122 N 0.79852 0.30103 0.23685 0.0
C1123 C 0.81357 0.31397 0.24361 0.0
C1124 C 0.79571 0.29236 0.2185 0.0
C1125 C 0.82412 0.3096 0.21305 0.0
C1126 C 0.80846 0.2965 0.20633 0.0
C1127 C 0.82686 0.31849 0.23189 0.0
H1128 H 0.85283 0.33524 0.23056 0.0
N1129 N 0.80296 0.31744 0.27358 0.0
C1130 C 0.81591 0.32232 0.2625 0.0
C1131 C 0.83342 0.3438 0.28895 0.0
C1132 C 0.83158 0.33549 0.26999 0.0
C1133 C 0.80428 0.32626 0.29172 0.0
C1134 C 0.81963 0.33929 0.2998 0.0
O1135 O 0.74828 0.26145 0.27752 0.0
O1136 O 0.75164 0.2748 0.25082 0.0
O1137 O 0.76555 0.31994 0.26381 0.0
O1138 O 0.76889 0.30836 0.23499 0.0
O1139 O 0.78214 0.24923 0.25318 0.0
O1140 O 0.76758 0.26883 0.23927 0.0
O1141 O 0.80299 0.28433 0.26238 0.0
O1142 O 0.80026 0.27131 0.28936 0.0
O1143 O 0.78556 0.22651 0.27562 0.0
O1144 O 0.78269 0.23681 0.305 0.0
O1145 O 0.76837 0.2967 0.287 0.0
O1146 O 0.784 0.27798 0.30079 0.0
C1147 C 0.74149 0.26729 0.26256 0.0
C1148 C 0.77513 0.25468 0.23817 0.0
C1149 C 0.75431 0.33385 0.23724 0.0
C1150 C 0.74205 0.36146 0.23974 0.0
C1151 C 0.74066 0.34267 0.20905 0.0
C1152 C 0.74924 0.33069 0.21754 0.0
C1153 C 0.73712 0.35798 0.22003 0.0
C1154 C 0.75049 0.34921 0.2484 0.0
C1155 C 0.76298 0.32059 0.24573 0.0
C1156 C 0.84483 0.34004 0.25834 0.0
C1157 C 0.84247 0.33159 0.23935 0.0
H1158 H 0.84526 0.35398 0.29523 0.0
C1159 C 0.81016 0.27862 0.27724 0.0
C1160 C 0.77469 0.29072 0.30196 0.0
C1161 C 0.79565 0.20999 0.30033 0.0
C1162 C 0.81221 0.18559 0.29568 0.0
C1163 C 0.80283 0.19416 0.32637 0.0
C1164 C 0.79502 0.20744 0.31929 0.0
C1165 C 0.81144 0.18336 0.31471 0.0
C1166 C 0.8041 0.19883 0.28845 0.0
C1167 C 0.78785 0.22462 0.29341 0.0
H1168 H 0.73671 0.34005 0.1939 0.0
H1169 H 0.75175 0.31883 0.20863 0.0
H1170 H 0.73033 0.36707 0.21314 0.0
H1171 H 0.75422 0.35176 0.26361 0.0
H1172 H 0.80226 0.19228 0.34099 0.0
H1173 H 0.78852 0.21574 0.32871 0.0
H1174 H 0.81738 0.17308 0.32052 0.0
H1175 H 0.80475 0.20072 0.27382 0.0
C1176 C 0.05465 0.49137 0.56201 0.0
C1177 C 0.06791 0.51421 0.58966 0.0
C1178 C 0.05536 0.50815 0.57332 0.0
C1179 C 0.07958 0.50306 0.59459 0.0
C1180 C 0.06615 0.47998 0.56715 0.0
C1181 C 0.07867 0.48596 0.58341 0.0
N1182 N 0.0427 0.48617 0.54607 0.0
C1183 C 0.04072 0.46909 0.53553 0.0
C1184 C 0.06468 0.46285 0.55587 0.0
C1185 C 0.05175 0.4573 0.54013 0.0
Gd1186 Gd 0.02909 0.53726 0.49208 0.0
Gd1187 Gd 0.02466 0.50702 0.53965 0.0
N1188 N 0.04427 0.51893 0.56781 0.0
C1189 C 0.06847 0.5314 0.60045 0.0
C1190 C 0.04442 0.53543 0.57866 0.0
C1191 C 0.05658 0.54199 0.59498 0.0
H1192 H 0.03535 0.5437 0.57472 0.0
H1193 H 0.0568 0.55524 0.60331 0.0
H1194 H 0.01475 0.49595 0.46167 0.0
H1195 H 0.03031 0.46421 0.52388 0.0
H1196 H 0.98902 0.48052 0.43895 0.0
H1197 H 0.07797 0.53658 0.61303 0.0
H1198 H 0.08935 0.50752 0.60704 0.0
H1199 H 0.02542 0.58062 0.50159 0.0
H1200 H 0.07322 0.45368 0.55938 0.0
H1201 H 0.05016 0.44384 0.53162 0.0
H1202 H 0.95518 0.52684 0.43336 0.0
H1203 H 0.08769 0.47744 0.58747 0.0
H1204 H 0.97811 0.58697 0.4698 0.0
H1205 H 0.00469 0.60021 0.49323 0.0
N1206 N 0.01077 0.55676 0.48323 0.0
C1207 C 0.9966 0.54937 0.46995 0.0
C1208 C 0.01384 0.57478 0.49145 0.0
C1209 C 0.98724 0.5784 0.47337 0.0
C1210 C 0.00218 0.5859 0.48664 0.0
C1211 C 0.98427 0.55991 0.46485 0.0
H1212 H 0.95962 0.55945 0.44766 0.0
N1213 N 0.00638 0.52138 0.46731 0.0
C1214 C 0.99421 0.53106 0.46187 0.0
C1215 C 0.97726 0.50425 0.44043 0.0
C1216 C 0.97926 0.52273 0.44847 0.0
C1217 C 0.00482 0.50357 0.45873 0.0
C1218 C 0.99022 0.49472 0.44542 0.0
O1219 O 0.05277 0.52239 0.5414 0.0
O1220 O 0.03905 0.52599 0.51569 0.0
O1221 O 0.04703 0.53607 0.47107 0.0
O1222 O 0.04877 0.56186 0.48977 0.0
O1223 O 0.01931 0.53658 0.54314 0.0
O1224 O 0.03199 0.55517 0.52146 0.0
O1225 O 0.00294 0.53263 0.50241 0.0
O1226 O 0.00721 0.5065 0.51245 0.0
O1227 O 0.00404 0.50838 0.55778 0.0
O1228 O 0.00887 0.48192 0.54603 0.0
O1229 O 0.03607 0.50865 0.48793 0.0
O1230 O 0.02494 0.49029 0.5103 0.0
C1231 C 0.05389 0.52997 0.52663 0.0
C1232 C 0.02472 0.55286 0.53742 0.0
C1233 C 0.05532 0.56274 0.45808 0.0
C1234 C 0.06429 0.56232 0.4266 0.0
C1235 C 0.04552 0.58285 0.43755 0.0
C1236 C 0.04575 0.5763 0.45484 0.0
C1237 C 0.05459 0.57575 0.42338 0.0
C1238 C 0.06486 0.55607 0.44402 0.0
C1239 C 0.05408 0.55365 0.47484 0.0
C1240 C 0.96679 0.53306 0.44351 0.0
C1241 C 0.96932 0.55163 0.45164 0.0
H1242 H 0.96593 0.49733 0.43016 0.0
C1243 C 0.99706 0.51829 0.51025 0.0
C1244 C 0.03175 0.49256 0.4942 0.0
C1245 C 0.00201 0.48524 0.5773 0.0
C1246 C 0.99729 0.49138 0.61032 0.0
C1247 C 0.00538 0.46276 0.59791 0.0
C1248 C 0.0056 0.46806 0.58007 0.0
C1249 C 1.00105 0.47422 0.61295 0.0
C1250 C 0.99849 0.49702 0.59263 0.0
C1251 C 1.00118 0.49074 0.55844 0.0
H1252 H 0.038 0.59316 0.435 0.0
H1253 H 0.0382 0.58155 0.46541 0.0
H1254 H 0.05398 0.58063 0.40987 0.0
H1255 H 0.07204 0.54537 0.4463 0.0
H1256 H 0.00797 0.44944 0.59993 0.0
H1257 H 0.00837 0.45865 0.56845 0.0
H1258 H 0.99982 0.46923 0.6263 0.0
H1259 H 0.99593 0.51035 0.59058 0.0
C1260 C 0.73961 0.78911 0.22339 0.0
C1261 C 0.72041 0.76134 0.20507 0.0
C1262 C 0.73178 0.77046 0.22156 0.0
C1263 C 0.71775 0.77098 0.19 0.0
C1264 C 0.73631 0.799 0.20858 0.0
C1265 C 0.72573 0.78974 0.19173 0.0
N1266 N 0.74935 0.79783 0.24011 0.0
C1267 C 0.75478 0.81663 0.24344 0.0
C1268 C 0.74315 0.81807 0.21143 0.0
C1269 C 0.75218 0.82694 0.22904 0.0
Gd1270 Gd 0.80187 0.76609 0.26869 0.0
Gd1271 Gd 0.75315 0.77876 0.2629 0.0
N1272 N 0.73472 0.76139 0.23627 0.0
C1273 C 0.71164 0.74296 0.20446 0.0
C1274 C 0.72542 0.74387 0.23628 0.0
C1275 C 0.71395 0.73428 0.22025 0.0
H1276 H 0.7271 0.73731 0.24861 0.0
H1277 H 0.70687 0.72025 0.2201 0.0
H1278 H 0.8245 0.8105 0.28023 0.0
H1279 H 0.76086 0.82385 0.25729 0.0
H1280 H 0.84358 0.83041 0.30762 0.0
H1281 H 0.70273 0.73551 0.19207 0.0
H1282 H 0.7092 0.76417 0.17713 0.0
H1283 H 0.79174 0.72385 0.28095 0.0
H1284 H 0.74091 0.82615 0.20041 0.0
H1285 H 0.75685 0.84179 0.23166 0.0
H1286 H 0.84878 0.78999 0.35309 0.0
H1287 H 0.72316 0.79711 0.18017 0.0
H1288 H 0.81776 0.72684 0.33674 0.0
H1289 H 0.79827 0.70883 0.30832 0.0
N1290 N 0.80632 0.75049 0.29416 0.0
C1291 C 0.81766 0.76051 0.30931 0.0
C1292 C 0.79971 0.73208 0.29348 0.0
C1293 C 0.81474 0.73361 0.32484 0.0
C1294 C 0.80364 0.72341 0.30887 0.0
C1295 C 0.82197 0.75235 0.32518 0.0
H1296 H 0.83669 0.75708 0.35321 0.0
N1297 N 0.82009 0.78676 0.29371 0.0
C1298 C 0.82459 0.77916 0.30916 0.0
C1299 C 0.84253 0.80867 0.32446 0.0
C1300 C 0.83586 0.78998 0.32499 0.0
C1301 C 0.82707 0.8048 0.29287 0.0
C1302 C 0.83818 0.81607 0.3083 0.0
O1303 O 0.76081 0.75974 0.23901 0.0
O1304 O 0.79071 0.77075 0.23998 0.0
O1305 O 0.82934 0.77085 0.26219 0.0
O1306 O 0.81292 0.74332 0.25707 0.0
O1307 O 0.75731 0.75424 0.27627 0.0
O1308 O 0.77809 0.74212 0.26072 0.0
O1309 O 0.7881 0.77249 0.29503 0.0
O1310 O 0.77275 0.79434 0.28774 0.0
O1311 O 0.73467 0.77027 0.28288 0.0
O1312 O 0.73046 0.79113 0.2662 0.0
O1313 O 0.80056 0.79188 0.25596 0.0
O1314 O 0.77717 0.80277 0.26813 0.0
C1315 C 0.77516 0.76275 0.23049 0.0
C1316 C 0.76336 0.74011 0.26874 0.0
C1317 C 0.8362 0.749 0.23766 0.0
C1318 C 0.86139 0.75277 0.21909 0.0
C1319 C 0.83576 0.72758 0.20876 0.0
C1320 C 0.82764 0.73344 0.22429 0.0
C1321 C 0.85251 0.7371 0.20621 0.0
C1322 C 0.85322 0.75875 0.2349 0.0
C1323 C 0.82821 0.75358 0.25533 0.0
C1324 C 0.84013 0.78187 0.34082 0.0
C1325 C 0.83324 0.76312 0.34089 0.0
H1326 H 0.8512 0.81744 0.33635 0.0
C1327 C 0.78061 0.78642 0.30029 0.0
C1328 C 0.79184 0.80505 0.25994 0.0
C1329 C 0.71833 0.79203 0.29512 0.0
C1330 C 0.69468 0.79511 0.31485 0.0
C1331 C 0.72014 0.82052 0.31659 0.0
C1332 C 0.72728 0.81009 0.30292 0.0
C1333 C 0.70389 0.81318 0.3224 0.0
C1334 C 0.70211 0.78445 0.30134 0.0
C1335 C 0.72477 0.78176 0.27915 0.0
H1336 H 0.82912 0.71543 0.19876 0.0
H1337 H 0.81477 0.72545 0.22597 0.0
H1338 H 0.85863 0.73217 0.19412 0.0
H1339 H 0.8602 0.77059 0.24516 0.0
H1340 H 0.72706 0.8345 0.32244 0.0
H1341 H 0.73954 0.81629 0.29805 0.0
H1342 H 0.69846 0.82165 0.3328 0.0
H1343 H 0.69494 0.77063 0.29512 0.0
C1344 C 0.80096 0.23714 0.72221 0.0
C1345 C 0.77787 0.22457 0.69596 0.0
C1346 C 0.78587 0.23861 0.71124 0.0
C1347 C 0.78479 0.20863 0.69261 0.0
C1348 C 0.80849 0.22161 0.71843 0.0
C1349 C 0.80011 0.20717 0.7038 0.0
N1350 N 0.8086 0.25125 0.73631 0.0
C1351 C 0.82431 0.25126 0.74657 0.0
C1352 C 0.82434 0.22122 0.72929 0.0
C1353 C 0.83239 0.23623 0.74328 0.0
Gd1354 Gd 0.76539 0.27999 0.79297 0.0
Gd1355 Gd 0.79316 0.27478 0.74273 0.0
N1356 N 0.77967 0.25428 0.71484 0.0
C1357 C 0.76353 0.22727 0.68415 0.0
C1358 C 0.76677 0.25766 0.70235 0.0
C1359 C 0.75822 0.24406 0.68712 0.0
H1360 H 0.76299 0.27083 0.70396 0.0
H1361 H 0.74764 0.24661 0.6776 0.0
H1362 H 0.80103 0.28901 0.82636 0.0
H1363 H 0.83061 0.26282 0.75738 0.0
H1364 H 0.81523 0.3133 0.85304 0.0
H1365 H 0.75696 0.2168 0.67229 0.0
H1366 H 0.77869 0.19758 0.68108 0.0
H1367 H 0.72515 0.2885 0.78046 0.0
H1368 H 0.8306 0.20957 0.72678 0.0
H1369 H 0.84479 0.23621 0.75156 0.0
H1370 H 0.7752 0.3545 0.85742 0.0
H1371 H 0.80556 0.195 0.70079 0.0
H1372 H 0.72142 0.33884 0.81433 0.0
H1373 H 0.70859 0.31266 0.78863 0.0
N1374 N 0.74774 0.30138 0.80051 0.0
C1375 C 0.75468 0.31521 0.81525 0.0
C1376 C 0.73119 0.3001 0.79133 0.0
C1377 C 0.72888 0.32836 0.81066 0.0
C1378 C 0.72162 0.31364 0.79611 0.0
C1379 C 0.74551 0.32918 0.82059 0.0
H1380 H 0.74631 0.35433 0.83993 0.0
N1381 N 0.77949 0.30164 0.81964 0.0
C1382 C 0.77095 0.31527 0.8252 0.0
C1383 C 0.79474 0.32876 0.85049 0.0
C1384 C 0.77849 0.32936 0.84061 0.0
C1385 C 0.79489 0.3005 0.82982 0.0
C1386 C 0.80287 0.31414 0.8452 0.0
O1387 O 0.78564 0.24899 0.75505 0.0
O1388 O 0.76267 0.25873 0.7668 0.0
O1389 O 0.7663 0.26028 0.81214 0.0
O1390 O 0.74088 0.26686 0.80261 0.0
O1391 O 0.76446 0.27871 0.73728 0.0
O1392 O 0.74912 0.28048 0.76446 0.0
O1393 O 0.781 0.30788 0.79011 0.0
O1394 O 0.78343 0.28874 0.7662 0.0
O1395 O 0.79529 0.29663 0.726 0.0
O1396 O 0.81915 0.2904 0.73915 0.0
O1397 O 0.79251 0.27163 0.79527 0.0
O1398 O 0.81009 0.28088 0.77156 0.0
C1399 C 0.77215 0.24616 0.76475 0.0
C1400 C 0.75027 0.28053 0.746 0.0
C1401 C 0.74031 0.24452 0.82411 0.0
C1402 C 0.74226 0.22459 0.84774 0.0
C1403 C 0.71344 0.22743 0.83358 0.0
C1404 C 0.72172 0.23982 0.82266 0.0
C1405 C 0.72364 0.2198 0.84607 0.0
C1406 C 0.75049 0.23684 0.83664 0.0
C1407 C 0.74924 0.2574 0.81273 0.0
C1408 C 0.76956 0.3435 0.84569 0.0
C1409 C 0.75312 0.34341 0.83572 0.0
H1410 H 0.80097 0.33932 0.8624 0.0
C1411 C 0.78733 0.30569 0.77436 0.0
C1412 C 0.80781 0.27513 0.78802 0.0
C1413 C 0.82001 0.3008 0.70943 0.0
C1414 C 0.81775 0.30993 0.6783 0.0
C1415 C 0.84092 0.29428 0.68768 0.0
C1416 C 0.83467 0.29328 0.70522 0.0
C1417 C 0.83249 0.30253 0.67421 0.0
C1418 C 0.81191 0.30939 0.69604 0.0
C1419 C 0.81253 0.29968 0.72736 0.0
H1420 H 0.69911 0.22389 0.83253 0.0
H1421 H 0.71361 0.24568 0.8131 0.0
H1422 H 0.717 0.21061 0.85483 0.0
H1423 H 0.76486 0.24052 0.83797 0.0
H1424 H 0.85217 0.28843 0.68443 0.0
H1425 H 0.84119 0.28656 0.71534 0.0
H1426 H 0.83723 0.30277 0.66052 0.0
H1427 H 0.80079 0.31551 0.69937 0.0
C1428 C 0.83227 0.81693 0.80475 0.0
C1429 C 0.85001 0.83402 0.78424 0.0
C1430 C 0.83346 0.82429 0.78802 0.0
C1431 C 0.86526 0.83581 0.79711 0.0
C1432 C 0.84753 0.81927 0.81798 0.0
C1433 C 0.86402 0.82851 0.81395 0.0
N1434 N 0.81614 0.80796 0.80834 0.0
C1435 C 0.81419 0.8025 0.82552 0.0
C1436 C 0.84571 0.81266 0.83512 0.0
C1437 C 0.82893 0.80446 0.839 0.0
Gd1438 Gd 0.77159 0.75601 0.75614 0.0
Gd1439 Gd 0.79215 0.8061 0.78505 0.0
N1440 N 0.81843 0.82262 0.77587 0.0
C1441 C 0.85069 0.84217 0.76788 0.0
C1442 C 0.81894 0.83178 0.76065 0.0
C1443 C 0.83505 0.84127 0.7562 0.0
H1444 H 0.80696 0.83245 0.7521 0.0
H1445 H 0.83534 0.84822 0.74396 0.0
H1446 H 0.76357 0.73116 0.79073 0.0
H1447 H 0.80123 0.79715 0.82924 0.0
H1448 H 0.73799 0.71183 0.80162 0.0
H1449 H 0.86314 0.84976 0.76452 0.0
H1450 H 0.87805 0.8432 0.79438 0.0
H1451 H 0.75915 0.75837 0.71021 0.0
H1452 H 0.8571 0.81429 0.84567 0.0
H1453 H 0.82728 0.79991 0.85251 0.0
H1454 H 0.69036 0.70598 0.75188 0.0
H1455 H 0.87586 0.83037 0.82393 0.0
H1456 H 0.70426 0.73198 0.69645 0.0
H1457 H 0.73198 0.74929 0.6873 0.0
N1458 N 0.74672 0.74735 0.73261 0.0
C1459 C 0.73189 0.73703 0.73756 0.0
C1460 C 0.74702 0.75118 0.71454 0.0
C1461 C 0.71609 0.73616 0.70667 0.0
C1462 C 0.7317 0.74592 0.70145 0.0
C1463 C 0.71611 0.73131 0.7248 0.0
H1464 H 0.68879 0.71605 0.72072 0.0
N1465 N 0.74853 0.73591 0.76641 0.0
C1466 C 0.73281 0.73116 0.75501 0.0
C1467 C 0.71975 0.71311 0.77753 0.0
C1468 C 0.71794 0.71969 0.7603 0.0
C1469 C 0.7507 0.72853 0.78256 0.0
C1470 C 0.73629 0.71734 0.78858 0.0
O1471 O 0.81143 0.78714 0.77921 0.0
O1472 O 0.79788 0.77261 0.7502 0.0
O1473 O 0.78248 0.73183 0.75853 0.0
O1474 O 0.77707 0.74 0.73068 0.0
O1475 O 0.78764 0.80472 0.75322 0.0
O1476 O 0.7653 0.7792 0.74163 0.0
O1477 O 0.75301 0.76676 0.77532 0.0
O1478 O 0.76169 0.7983 0.77612 0.0
O1479 O 0.79084 0.83469 0.78551 0.0
O1480 O 0.78847 0.8226 0.81101 0.0
O1481 O 0.78677 0.75894 0.78553 0.0
O1482 O 0.77962 0.78458 0.80144 0.0
C1483 C 0.81227 0.77784 0.76252 0.0
C1484 C 0.77553 0.79483 0.7397 0.0
C1485 C 0.78936 0.71285 0.73123 0.0
C1486 C 0.804 0.68753 0.73445 0.0
C1487 C 0.79215 0.69197 0.7033 0.0
C1488 C 0.78627 0.70729 0.71153 0.0
C1489 C 0.80085 0.68201 0.71468 0.0
C1490 C 0.7986 0.70326 0.74249 0.0
C1491 C 0.78292 0.7285 0.74028 0.0
C1492 C 0.70196 0.7147 0.74801 0.0
C1493 C 0.70106 0.72045 0.73028 0.0
H1494 H 0.70864 0.70428 0.78212 0.0
C1495 C 0.74961 0.78343 0.77776 0.0
C1496 C 0.78324 0.76822 0.8011 0.0
C1497 C 0.7735 0.84668 0.80751 0.0
C1498 C 0.75566 0.86847 0.79999 0.0
C1499 C 0.75467 0.8572 0.82996 0.0
C1500 C 0.76686 0.84649 0.82505 0.0
C1501 C 0.74921 0.86835 0.81756 0.0
C1502 C 0.76763 0.85756 0.79495 0.0
C1503 C 0.7877 0.83701 0.80306 0.0
H1504 H 0.78959 0.68756 0.68812 0.0
H1505 H 0.77917 0.71461 0.70255 0.0
H1506 H 0.80455 0.66967 0.70808 0.0
H1507 H 0.80132 0.70786 0.75767 0.0
H1508 H 0.74972 0.85714 0.84354 0.0
H1509 H 0.77135 0.83838 0.83512 0.0
H1510 H 0.74008 0.87694 0.82169 0.0
H1511 H 0.77292 0.85824 0.78155 0.0
C1512 C 0.48684 0.46521 0.48054 0.0
C1513 C 0.47246 0.45013 0.50461 0.0
C1514 C 0.48114 0.46629 0.49846 0.0
C1515 C 0.4697 0.43303 0.49272 0.0
C1516 C 0.484 0.44804 0.46857 0.0
C1517 C 0.47539 0.432 0.47475 0.0
N1518 N 0.49544 0.48089 0.47496 0.0
C1519 C 0.50099 0.4805 0.45749 0.0
C1520 C 0.4899 0.4475 0.45072 0.0
C1521 C 0.4984 0.46381 0.44515 0.0
Gd1522 Gd 0.54387 0.53115 0.52474 0.0
Gd1523 Gd 0.49661 0.50813 0.49561 0.0
N1524 N 0.48387 0.48307 0.50972 0.0
C1525 C 0.46648 0.45167 0.52242 0.0
C1526 C 0.47691 0.48471 0.52645 0.0
C1527 C 0.46855 0.46906 0.53329 0.0
H1528 H 0.47688 0.498 0.53414 0.0
H1529 H 0.46325 0.47048 0.54669 0.0
H1530 H 0.56379 0.54392 0.48748 0.0
H1531 H 0.50685 0.49312 0.45278 0.0
H1532 H 0.58014 0.57213 0.47807 0.0
H1533 H 0.45975 0.43959 0.52764 0.0
H1534 H 0.46301 0.42052 0.49722 0.0
H1535 H 0.53514 0.54318 0.56913 0.0
H1536 H 0.48787 0.43458 0.44108 0.0
H1537 H 0.50275 0.46356 0.43125 0.0
H1538 H 0.58466 0.61848 0.53251 0.0
H1539 H 0.47306 0.4187 0.46573 0.0
H1540 H 0.55809 0.60062 0.58655 0.0
H1541 H 0.54108 0.5711 0.59333 0.0
N1542 N 0.54771 0.55694 0.54842 0.0
C1543 C 0.55736 0.57295 0.5445 0.0
C1544 C 0.54197 0.5561 0.56573 0.0
C1545 C 0.55525 0.58847 0.57573 0.0
C1546 C 0.54558 0.57185 0.57959 0.0
C1547 C 0.5613 0.58918 0.55804 0.0
H1548 H 0.57436 0.61813 0.56382 0.0
N1549 N 0.55915 0.55728 0.51395 0.0
C1550 C 0.56324 0.57313 0.52679 0.0
C1551 C 0.57894 0.58923 0.50439 0.0
C1552 C 0.57313 0.58957 0.52227 0.0
C1553 C 0.56557 0.5567 0.49691 0.0
C1554 C 0.57526 0.57268 0.49172 0.0
O1555 O 0.51607 0.48934 0.50126 0.0
O1556 O 0.52968 0.50346 0.53045 0.0
O1557 O 0.56791 0.52117 0.52063 0.0
O1558 O 0.56293 0.53225 0.54912 0.0
O1559 O 0.49651 0.52481 0.52461 0.0
O1560 O 0.52174 0.51995 0.54044 0.0
O1561 O 0.52845 0.55251 0.5169 0.0
O1562 O 0.50555 0.53847 0.49291 0.0
O1563 O 0.46876 0.50773 0.49592 0.0
O1564 O 0.4797 0.50675 0.46933 0.0
O1565 O 0.54288 0.51679 0.4945 0.0
O1566 O 0.5171 0.52118 0.47906 0.0
C1567 C 0.52472 0.48853 0.5177 0.0
C1568 C 0.50631 0.52449 0.54047 0.0
C1569 C 0.59006 0.52139 0.54711 0.0
C1570 C 0.61681 0.51007 0.54284 0.0
C1571 C 0.61025 0.51992 0.57452 0.0
C1572 C 0.59461 0.52413 0.56685 0.0
C1573 C 0.62135 0.51289 0.56259 0.0
C1574 C 0.60124 0.51448 0.53523 0.0
C1575 C 0.57333 0.52488 0.5388 0.0
C1576 C 0.57703 0.60575 0.53573 0.0
C1577 C 0.57117 0.60554 0.55357 0.0
H1578 H 0.58657 0.60157 0.50038 0.0
C1579 C 0.51615 0.55328 0.50323 0.0
C1580 C 0.53327 0.51859 0.47903 0.0
C1581 C 0.45634 0.52248 0.47265 0.0
C1582 C 0.43612 0.54251 0.48068 0.0
C1583 C 0.446 0.54002 0.44954 0.0
C1584 C 0.45598 0.52739 0.45446 0.0
C1585 C 0.43602 0.54753 0.46255 0.0
C1586 C 0.4466 0.53035 0.48569 0.0
C1587 C 0.46598 0.50851 0.47791 0.0
H1588 H 0.61368 0.52193 0.58972 0.0
H1589 H 0.58605 0.52934 0.57633 0.0
H1590 H 0.63327 0.50939 0.56876 0.0
H1591 H 0.59783 0.51249 0.51999 0.0
H1592 H 0.4457 0.5437 0.43549 0.0
H1593 H 0.46326 0.52137 0.44402 0.0
H1594 H 0.42786 0.55675 0.45825 0.0
H1595 H 0.44688 0.52674 0.49979 0.0
C1596 C 0.06493 0.56372 0.994 0.0
C1597 C 0.08699 0.5827 0.01905 0.0
C1598 C 0.07435 0.56625 0.01203 0.0
C1599 C 0.09017 0.59656 0.00773 0.0
C1600 C 0.06863 0.5774 0.98238 0.0
C1601 C 0.08107 0.59389 0.98944 0.0
N1602 N 0.05277 0.54766 0.98755 0.0
C1603 C 0.04585 0.54355 0.96885 0.0
C1604 C 0.06014 0.57388 0.96378 0.0
C1605 C 0.04899 0.55673 0.95689 0.0
Gd1606 Gd 1.00042 0.52472 0.02521 0.0
Gd1607 Gd 0.04933 0.52657 0.00918 0.0
N1608 N 0.07079 0.55277 0.02291 0.0
C1609 C 0.09602 0.58475 0.03731 0.0
C1610 C 0.07976 0.55446 0.04054 0.0
C1611 C 0.09244 0.57054 0.04806 0.0
H1612 H 0.07698 0.54344 0.04879 0.0
H1613 H 0.09943 0.57199 0.06213 0.0
H1614 H 0.9719 0.50965 0.98591 0.0
H1615 H 0.0384 0.52994 0.96271 0.0
H1616 H 0.94887 0.48179 0.97199 0.0
H1617 H 0.10581 0.59721 0.04321 0.0
H1618 H 0.09979 0.60933 0.01291 0.0
H1619 H 0.01049 0.5204 0.07144 0.0
H1620 H 0.06269 0.584 0.95441 0.0
H1621 H 0.04313 0.55348 0.94221 0.0
H1622 H 0.94775 0.44285 0.01982 0.0
H1623 H 0.08395 0.60458 0.98074 0.0
H1624 H 0.98524 0.4662 0.07847 0.0
H1625 H 0.00527 0.49632 0.09133 0.0
N1626 N 0.99609 0.50327 0.04634 0.0
C1627 C 0.98368 0.48748 0.03953 0.0
C1628 C 0.00291 0.50693 0.06505 0.0
C1629 C 0.98805 0.47653 0.06937 0.0
C1630 C 0.99946 0.49345 0.07664 0.0
C1631 C 0.9796 0.47355 0.05079 0.0
H1632 H 0.96367 0.44649 0.05182 0.0
N1633 N 0.97838 0.49916 0.01097 0.0
C1634 C 0.97435 0.48551 0.02154 0.0
C1635 C 0.95212 0.46811 0.99618 0.0
C1636 C 0.96124 0.46947 0.01428 0.0
C1637 C 0.96916 0.49823 0.99363 0.0
C1638 C 0.95602 0.48261 0.98587 0.0
O1639 O 0.04399 0.5532 0.02541 0.0
O1640 O 0.0144 0.55133 0.01642 0.0
O1641 O 0.97538 0.53343 0.01916 0.0
O1642 O 0.98942 0.53889 0.04798 0.0
O1643 O 0.04465 0.51774 0.03716 0.0
O1644 O 0.02439 0.53455 0.04737 0.0
O1645 O 0.00552 0.49784 0.00928 0.0
O1646 O 0.03527 0.4998 0.0177 0.0
O1647 O 0.07491 0.51818 0.0139 0.0
O1648 O 0.05924 0.5124 0.98585 0.0
O1649 O 0.00627 0.53381 0.9977 0.0
O1650 O 0.0255 0.51608 0.98741 0.0
C1651 C 0.0304 0.56114 0.02305 0.0
C1652 C 0.03795 0.52683 0.05059 0.0
C1653 C 0.96169 0.54899 0.04415 0.0
C1654 C 0.93728 0.56461 0.03964 0.0
C1655 C 0.94738 0.55935 0.07102 0.0
C1656 C 0.96018 0.55081 0.06362 0.0
C1657 C 0.93605 0.56631 0.05914 0.0
C1658 C 0.95 0.55573 0.03206 0.0
C1659 C 0.97564 0.54024 0.03686 0.0
C1660 C 0.95769 0.45534 0.02522 0.0
C1661 C 0.96682 0.45738 0.04341 0.0
H1662 H 0.94196 0.45599 0.9901 0.0
C1663 C 0.01928 0.48999 0.01093 0.0
C1664 C 0.01193 0.52363 0.98437 0.0
C1665 C 0.08696 0.5027 0.98719 0.0
C1666 C 0.10968 0.48457 0.98831 0.0
C1667 C 0.09925 0.49304 0.95854 0.0
C1668 C 0.08768 0.50222 0.96765 0.0
C1669 C 0.11009 0.48412 0.96876 0.0
C1670 C 0.09827 0.49414 0.99761 0.0
C1671 C 0.07356 0.51114 0.99606 0.0
H1672 H 0.94629 0.56068 0.08603 0.0
H1673 H 0.96891 0.54559 0.07316 0.0
H1674 H 0.92626 0.57305 0.06517 0.0
H1675 H 0.95104 0.55449 0.01702 0.0
H1676 H 0.09969 0.4927 0.94349 0.0
H1677 H 0.07916 0.50881 0.95935 0.0
H1678 H 0.11894 0.47696 0.96142 0.0
H1679 H 0.09773 0.49431 0.01265 0.0
H1680 H 0.02224 0.21244 0.94422 0.0
H1681 H 0.02653 0.18357 0.95462 0.0
H1682 H 0.98072 0.18179 0.98442 0.0
H1683 H 0.97626 0.2104 0.97405 0.0
H1684 H 0.03151 0.17196 0.99026 0.0
H1685 H 0.96789 0.13185 0.94999 0.0
H1686 H 0.97765 0.1549 0.94644 0.0
H1687 H 0.96569 0.15139 0.96637 0.0
C1688 C 0.0132 0.20609 0.95321 0.0
C1689 C 0.99881 0.21395 0.95812 0.0
C1690 C 0.01564 0.18944 0.95912 0.0
C1691 C 0.00371 0.18004 0.96999 0.0
C1692 C 0.98989 0.18833 0.97566 0.0
H1693 H 0.98775 0.07102 0.00782 0.0
H1694 H 0.98517 0.10161 0.0006 0.0
C1695 C 0.98745 0.20492 0.9698 0.0
C1696 C 0.00539 0.16147 0.97505 0.0
H1697 H 0.98311 0.1163 0.97031 0.0
C1698 C 0.02094 0.15979 0.98583 0.0
C1699 C 0.99164 0.14542 0.96946 0.0
C1700 C 0.97483 0.14586 0.95728 0.0
C1701 C 0.02293 0.14284 0.99146 0.0
C1702 C 0.0092 0.12669 0.98569 0.0
C1703 C 0.99368 0.12844 0.9749 0.0
C1704 C 0.01075 0.10788 0.9903 0.0
C1705 C 0.03958 0.1427 0.00408 0.0
C1706 C 0.02569 0.10063 0.98658 0.0
C1707 C 0.02725 0.08327 0.99094 0.0
C1708 C 0.01377 0.07223 -0.00118 0.0
C1709 C 0.99846 0.07908 0.00189 0.0
C1710 C 0.99701 0.09667 0.99775 0.0
H1711 H 0.04541 0.15657 0.01247 0.0
H1712 H 0.037 0.13267 0.01403 0.0
H1713 H 0.04964 0.13889 0.99518 0.0
H1714 H 0.0362 0.10831 0.98009 0.0
H1715 H 0.03907 0.07842 0.98787 0.0
H1716 H 0.11631 0.82896 0.16287 0.0
H1717 H 0.1436 0.82376 0.17896 0.0
H1718 H 0.12836 0.76603 0.15489 0.0
H1719 H 0.10137 0.77143 0.13797 0.0
H1720 H 0.1489 0.80487 0.20544 0.0
H1721 H 0.17805 0.77476 0.1442 0.0
H1722 H 0.15909 0.78509 0.14119 0.0
H1723 H 0.1564 0.7619 0.14632 0.0
C1724 C 0.11889 0.8152 0.16071 0.0
C1725 C 0.10666 0.80068 0.1489 0.0
C1726 C 0.13453 0.81219 0.17004 0.0
C1727 C 0.13841 0.79453 0.16808 0.0
C1728 C 0.12616 0.77994 0.1563 0.0
H1729 H 0.21873 0.75719 0.23866 0.0
H1730 H 0.1916 0.75976 0.21957 0.0
C1731 C 0.11062 0.78302 0.14664 0.0
C1732 C 0.15488 0.79152 0.17901 0.0
H1733 H 0.19241 0.77431 0.17478 0.0
C1734 C 0.15838 0.79822 0.19862 0.0
C1735 C 0.16745 0.78281 0.17034 0.0
C1736 C 0.16517 0.77588 0.14934 0.0
C1737 C 0.17386 0.79653 0.20959 0.0
C1738 C 0.18632 0.7879 0.20089 0.0
C1739 C 0.18286 0.78098 0.18143 0.0
C1740 C 0.20305 0.78608 0.2119 0.0
C1741 C 0.177 0.80412 0.23047 0.0
C1742 C 0.21862 0.79991 0.21378 0.0
C1743 C 0.23425 0.79833 0.22446 0.0
C1744 C 0.23449 0.78305 0.23377 0.0
C1745 C 0.2189 0.76922 0.23181 0.0
C1746 C 0.2034 0.77064 0.22087 0.0
H1747 H 0.16571 0.80976 0.23538 0.0
H1748 H 0.17919 0.79311 0.23873 0.0
H1749 H 0.1892 0.81526 0.23354 0.0
H1750 H 0.21863 0.812 0.20709 0.0
H1751 H 0.24601 0.80925 0.2258 0.0
H1752 H 0.48914 0.80996 0.48251 0.0
H1753 H 0.49426 0.84344 0.4927 0.0
H1754 H 0.51844 0.85266 0.44236 0.0
H1755 H 0.51365 0.81916 0.43218 0.0
H1756 H 0.53292 0.87509 0.49169 0.0
H1757 H 0.46952 0.87789 0.44993 0.0
H1758 H 0.47212 0.85764 0.46 0.0
H1759 H 0.48329 0.86311 0.44013 0.0
C1760 C 0.49585 0.81906 0.47373 0.0
C1761 C 0.50107 0.81166 0.45653 0.0
C1762 C 0.49874 0.83827 0.47959 0.0
C1763 C 0.50669 0.85069 0.46831 0.0
C1764 C 0.51235 0.84343 0.45139 0.0
H1765 H 0.52191 0.97028 0.47131 0.0
H1766 H 0.51954 0.93695 0.4628 0.0
C1767 C 0.50968 0.8242 0.44563 0.0
C1768 C 0.50822 0.87113 0.47373 0.0
H1769 H 0.48688 0.906 0.4666 0.0
C1770 C 0.52284 0.88182 0.48623 0.0
C1771 C 0.49511 0.88004 0.46666 0.0
C1772 C 0.47904 0.86921 0.45345 0.0
C1773 C 0.52468 0.90107 0.49169 0.0
C1774 C 0.51154 0.90997 0.48463 0.0
C1775 C 0.49696 0.89928 0.47208 0.0
C1776 C 0.51284 0.93038 0.48994 0.0
C1777 C 0.54083 0.91194 0.50476 0.0
C1778 C 0.50972 0.93797 0.50803 0.0
C1779 C 0.51092 0.95709 0.51291 0.0
C1780 C 0.51539 0.96918 0.49988 0.0
C1781 C 0.51849 0.9615 0.48178 0.0
C1782 C 0.51711 0.94238 0.47685 0.0
H1783 H 0.55082 0.90351 0.50734 0.0
H1784 H 0.54712 0.92414 0.4987 0.0
H1785 H 0.53678 0.91709 0.51855 0.0
H1786 H 0.50631 0.92907 0.5184 0.0
H1787 H 0.50857 0.9624 0.52702 0.0
H1788 H 0.51288 0.26125 0.65768 0.0
H1789 H 0.48639 0.25848 0.67417 0.0
H1790 H 0.46828 0.29811 0.64336 0.0
H1791 H 0.49407 0.30008 0.62617 0.0
H1792 H 0.47521 0.28233 0.69763 0.0
H1793 H 0.42377 0.2605 0.63518 0.0
H1794 H 0.44692 0.2614 0.63323 0.0
H1795 H 0.43832 0.28211 0.63439 0.0
C1796 C 0.50304 0.26906 0.65416 0.0
C1797 C 0.50547 0.28062 0.64036 0.0
C1798 C 0.48794 0.26758 0.66369 0.0
C1799 C 0.47501 0.2778 0.65984 0.0
C1800 C 0.47759 0.28954 0.64621 0.0
H1801 H 0.37413 0.28361 0.70357 0.0
H1802 H 0.40265 0.29213 0.69126 0.0
C1803 C 0.49246 0.29071 0.6364 0.0
C1804 C 0.45916 0.27655 0.67044 0.0
H1805 H 0.41378 0.26843 0.66472 0.0
C1806 C 0.46179 0.27919 0.69038 0.0
C1807 C 0.44153 0.27267 0.66113 0.0
C1808 C 0.43744 0.26884 0.63982 0.0
C1809 C 0.44743 0.278 0.70115 0.0
C1810 C 0.42986 0.27389 0.69181 0.0
C1811 C 0.42723 0.27164 0.67193 0.0
C1812 C 0.41391 0.27087 0.70212 0.0
C1813 C 0.45122 0.28139 0.72246 0.0
C1814 C 0.41084 0.25641 0.7128 0.0
C1815 C 0.39459 0.25165 0.71993 0.0
C1816 C 0.38111 0.26127 0.71658 0.0
C1817 C 0.38446 0.27625 0.70669 0.0
C1818 C 0.40069 0.28101 0.69953 0.0
H1819 H 0.46484 0.28971 0.7274 0.0
H1820 H 0.44155 0.28861 0.72899 0.0
H1821 H 0.45014 0.26794 0.72756 0.0
H1822 H 0.4206 0.24809 0.71467 0.0
H1823 H 0.39214 0.23974 0.72708 0.0
H1824 H 0.03365 0.80978 0.66303 0.0
H1825 H 0.03754 0.83744 0.6477 0.0
H1826 H 0.999 0.80785 0.6008 0.0
H1827 H 0.99479 0.78049 0.61614 0.0
H1828 H 0.04729 0.84586 0.61385 0.0
H1829 H 0.97745 0.85134 0.6168 0.0
H1830 H 0.98739 0.83594 0.62935 0.0
H1831 H 0.97929 0.82942 0.60452 0.0
C1832 C 0.02629 0.80907 0.64927 0.0
C1833 C 0.01383 0.79291 0.64089 0.0
C1834 C 0.0284 0.82495 0.64058 0.0
C1835 C 0.01812 0.82498 0.62335 0.0
C1836 C 0.00663 0.80846 0.61439 0.0
H1837 H 0.01644 0.89961 0.54167 0.0
H1838 H 0.00943 0.8742 0.5599 0.0
C1839 C 0.00441 0.79271 0.62309 0.0
C1840 C 0.01917 0.8422 0.61475 0.0
H1841 H 0.99386 0.87033 0.59749 0.0
C1842 C 0.03563 0.85129 0.61047 0.0
C1843 C 0.00396 0.84944 0.61035 0.0
C1844 C 0.98606 0.84115 0.61567 0.0
C1845 C 0.03721 0.86694 0.6014 0.0
C1846 C 0.02196 0.87388 0.5966 0.0
C1847 C 0.00552 0.86498 0.60109 0.0
C1848 C 0.02299 0.89011 0.58653 0.0
C1849 C 0.05514 0.87574 0.59655 0.0
C1850 C 0.0321 0.90775 0.59563 0.0
C1851 C 0.03589 0.92231 0.58528 0.0
C1852 C 0.03054 0.91953 0.56567 0.0
C1853 C 0.02029 0.90225 0.55685 0.0
C1854 C 0.01645 0.88768 0.56723 0.0
H1855 H 0.06501 0.86705 0.59842 0.0
H1856 H 0.05406 0.87833 0.58168 0.0
H1857 H 0.06016 0.88924 0.60589 0.0
H1858 H 0.03717 0.90998 0.61052 0.0
H1859 H 0.04417 0.93535 0.59231 0.0
H1860 H 0.48605 0.81861 0.80871 0.0
H1861 H 0.45414 0.81751 0.80038 0.0
H1862 H 0.44137 0.76312 0.81549 0.0
H1863 H 0.47266 0.76465 0.82473 0.0
H1864 H 0.42755 0.79779 0.77619 0.0
H1865 H 0.40943 0.78484 0.84621 0.0
H1866 H 0.43223 0.79073 0.84193 0.0
H1867 H 0.41982 0.76715 0.8362 0.0
C1868 C 0.47639 0.80647 0.81028 0.0
C1869 C 0.48202 0.79186 0.81771 0.0
C1870 C 0.45807 0.80582 0.80553 0.0
C1871 C 0.44496 0.79047 0.8079 0.0
C1872 C 0.45083 0.77554 0.8143 0.0
H1873 H 0.33042 0.74923 0.77627 0.0
H1874 H 0.36269 0.75346 0.78363 0.0
C1875 C 0.46891 0.77636 0.81942 0.0
C1876 C 0.42526 0.78972 0.80364 0.0
H1877 H 0.38535 0.77794 0.82095 0.0
C1878 C 0.41843 0.79364 0.78613 0.0
C1879 C 0.41299 0.7845 0.81652 0.0
C1880 C 0.41903 0.78179 0.83632 0.0
C1881 C 0.39997 0.79185 0.78101 0.0
C1882 C 0.38779 0.78581 0.79354 0.0
C1883 C 0.39456 0.78225 0.81114 0.0
C1884 C 0.36801 0.78328 0.78874 0.0
C1885 C 0.39347 0.79613 0.76204 0.0
C1886 C 0.35998 0.79855 0.78949 0.0
C1887 C 0.34143 0.79615 0.78566 0.0
C1888 C 0.33028 0.77843 0.78049 0.0
C1889 C 0.3384 0.76313 0.77989 0.0
C1890 C 0.35695 0.76553 0.78409 0.0
H1891 H 0.40428 0.79871 0.753 0.0
H1892 H 0.38278 0.78454 0.75445 0.0
H1893 H 0.38774 0.80858 0.76421 0.0
H1894 H 0.36807 0.8124 0.79335 0.0
H1895 H 0.33585 0.80826 0.78708 0.0
H1896 H 0.47357 0.19113 0.13265 0.0
H1897 H 0.47847 0.16309 0.11426 0.0
H1898 H 0.53461 0.18038 0.13303 0.0
H1899 H 0.52961 0.20812 0.15226 0.0
H1900 H 0.49497 0.15711 0.08546 0.0
H1901 H 0.5285 0.12926 0.14295 0.0
H1902 H 0.51825 0.14869 0.14774 0.0
H1903 H 0.54001 0.15179 0.14018 0.0
C1904 C 0.48697 0.18893 0.13306 0.0
C1905 C 0.50115 0.20194 0.14416 0.0
C1906 C 0.48978 0.17281 0.12244 0.0
C1907 C 0.5069 0.16918 0.12235 0.0
C1908 C 0.52117 0.18232 0.1332 0.0
H1909 H 0.54232 0.0872 0.04459 0.0
H1910 H 0.53908 0.11496 0.06503 0.0
C1911 C 0.51831 0.19834 0.14415 0.0
C1912 C 0.50961 0.15195 0.11046 0.0
H1913 H 0.52775 0.11384 0.11156 0.0
C1914 C 0.50208 0.14768 0.09131 0.0
C1915 C 0.51891 0.1394 0.11783 0.0
C1916 C 0.52673 0.1424 0.13833 0.0
C1917 C 0.5036 0.1315 0.07953 0.0
C1918 C 0.51289 0.11911 0.08691 0.0
C1919 C 0.52055 0.12331 0.10592 0.0
C1920 C 0.51496 0.10188 0.07489 0.0
C1921 C 0.49523 0.12761 0.05917 0.0
C1922 C 0.50252 0.08514 0.07365 0.0
C1923 C 0.50437 0.06908 0.06197 0.0
C1924 C 0.51861 0.06949 0.05112 0.0
C1925 C 0.53106 0.08632 0.05253 0.0
C1926 C 0.52929 0.10226 0.0643 0.0
H1927 H 0.48861 0.13869 0.05539 0.0
H1928 H 0.50551 0.12613 0.04965 0.0
H1929 H 0.48528 0.11434 0.0566 0.0
H1930 H 0.49131 0.08452 0.08164 0.0
H1931 H 0.49452 0.05643 0.06121 0.0
H1932 H 0.08964 0.27294 0.33211 0.0
H1933 H 0.11953 0.27005 0.32489 0.0
H1934 H 0.12356 0.31753 0.29673 0.0
H1935 H 0.09381 0.32033 0.30356 0.0
H1936 H 0.13261 0.2668 0.28593 0.0
H1937 H 0.17025 0.32849 0.33591 0.0
H1938 H 0.14817 0.31673 0.33886 0.0
H1939 H 0.15123 0.3316 0.32134 0.0
C1940 C 0.09691 0.28287 0.32451 0.0
C1941 C 0.0891 0.29695 0.31856 0.0
C1942 C 0.11406 0.28114 0.32029 0.0
C1943 C 0.12409 0.29364 0.31032 0.0
C1944 C 0.11636 0.30776 0.30456 0.0
H1945 H 0.23156 0.3128 0.27435 0.0
H1946 H 0.20181 0.315 0.28234 0.0
C1947 C 0.0992 0.30932 0.3085 0.0
C1948 C 0.14243 0.29195 0.30562 0.0
H1949 H 0.18642 0.31406 0.31441 0.0
C1950 C 0.14437 0.27707 0.29229 0.0
C1951 C 0.15794 0.30538 0.31362 0.0
C1952 C 0.15696 0.32143 0.32834 0.0
C1953 C 0.16111 0.27548 0.28655 0.0
C1954 C 0.1767 0.28888 0.29467 0.0
C1955 C 0.1747 0.30373 0.30804 0.0
C1956 C 0.1951 0.2876 0.2897 0.0
C1957 C 0.16176 0.25972 0.27129 0.0
C1958 C 0.20181 0.27172 0.29148 0.0
C1959 C 0.21888 0.27049 0.28697 0.0
C1960 C 0.22998 0.28504 0.28043 0.0
C1961 C 0.22346 0.30116 0.27906 0.0
C1962 C 0.20635 0.30243 0.28368 0.0
H1963 H 0.1487 0.25439 0.26247 0.0
H1964 H 0.17188 0.26396 0.26188 0.0
H1965 H 0.16524 0.24822 0.27798 0.0
H1966 H 0.19395 0.26025 0.29668 0.0
H1967 H 0.22346 0.25812 0.28896 0.0
H1968 H 0.92796 0.0029 0.19076 0.0
H1969 H 0.93813 1.00186 0.15932 0.0
H1970 H 0.98617 0.04143 0.18329 0.0
H1971 H 0.97631 0.04247 0.21454 0.0
H1972 H 0.9475 0.03188 0.13886 0.0
H1973 H 0.00415 0.99894 0.15416 0.0
H1974 H 0.98642 0.9986 0.1688 0.0
H1975 H 0.00391 0.01885 0.17112 0.0
C1976 C 0.94071 0.01131 0.18932 0.0
C1977 C 0.95135 0.02271 0.20518 0.0
C1978 C 0.94649 0.01072 0.17138 0.0
C1979 C 0.96301 0.02138 0.16906 0.0
C1980 C 0.97354 0.03283 0.18483 0.0
H1981 H 0.00634 0.05525 0.0691 0.0
H1982 H 0.99549 0.05403 0.10008 0.0
C1983 C 0.96781 0.03346 0.20269 0.0
C1984 C 0.96921 0.02101 0.15016 0.0
H1985 H 0.00311 0.01206 0.1258 0.0
C1986 C 0.95959 0.02745 0.13595 0.0
C1987 C 0.98494 0.01509 0.14638 0.0
C1988 C 0.99539 0.00731 0.16085 0.0
C1989 C 0.96555 0.02858 0.1182 0.0
C1990 C 0.98158 0.02327 0.11468 0.0
C1991 C 0.99096 0.01638 0.12869 0.0
C1992 C 0.98849 0.02419 0.09627 0.0
C1993 C 0.95466 0.03532 0.10323 0.0
C1994 C 0.98843 0.00784 0.08414 0.0
C1995 C 0.99457 0.00852 0.06656 0.0
C1996 C 1.00103 0.02556 0.06086 0.0
C1997 C 1.00144 0.04195 0.07319 0.0
C1998 C 0.99517 0.04126 0.09077 0.0
H1999 H 0.94123 0.036 0.10705 0.0
H2000 H 0.96154 0.04933 0.10141 0.0
H2001 H 0.95325 0.02612 0.08941 0.0
H2002 H 0.98345 0.99455 0.08821 0.0
H2003 H 0.99443 0.99566 0.0575 0.0
H2004 H 0.29676 0.68793 0.50589 0.0
H2005 H 0.29159 0.70388 0.4792 0.0
H2006 H 0.24486 0.66156 0.45713 0.0
H2007 H 0.24967 0.64568 0.48386 0.0
H2008 H 0.29309 0.68343 0.44367 0.0
H2009 H 0.2306 0.70895 0.44552 0.0
H2010 H 0.24257 0.7042 0.46642 0.0
H2011 H 0.22872 0.6856 0.44972 0.0
C2012 C 0.2851 0.68231 0.49565 0.0
C2013 C 0.27394 0.66529 0.49656 0.0
C2014 C 0.28216 0.69145 0.48049 0.0
C2015 C 0.26802 0.68368 0.46623 0.0
C2016 C 0.25578 0.66776 0.46814 0.0
H2017 H 0.24129 0.70297 0.35398 0.0
H2018 H 0.25119 0.68536 0.37772 0.0
C2019 C 0.25864 0.65866 0.48336 0.0
C2020 C 0.26785 0.69027 0.44801 0.0
H2021 H 0.24301 0.7077 0.41658 0.0
C2022 C 0.28221 0.68888 0.43774 0.0
C2023 C 0.25348 0.697 0.44039 0.0
C2024 C 0.23802 0.69919 0.45113 0.0
C2025 C 0.28264 0.69431 0.41993 0.0
C2026 C 0.26832 0.70109 0.41243 0.0
C2027 C 0.25384 0.70219 0.42251 0.0
C2028 C 0.26858 0.70922 0.39516 0.0
C2029 C 0.29825 0.69292 0.40924 0.0
C2030 C 0.27587 0.72813 0.3969 0.0
C2031 C 0.26986 0.73819 0.38378 0.0
C2032 C 0.25683 0.72924 0.36877 0.0
C2033 C 0.25124 0.70999 0.36571 0.0
C2034 C 0.25703 0.69995 0.37903 0.0
H2035 H 0.30752 0.68562 0.41625 0.0
H2036 H 0.29354 0.68552 0.39459 0.0
H2037 H 0.3056 0.70699 0.40819 0.0
H2038 H 0.28467 0.7354 0.40945 0.0
H2039 H 0.27443 0.75306 0.38604 0.0
H2040 H 0.64383 0.00721 0.68087 0.0
H2041 H 0.62605 0.00507 0.65046 0.0
H2042 H 0.62138 0.06153 0.66521 0.0
H2043 H 0.63914 0.0639 0.69563 0.0
H2044 H 0.59086 0.0119 0.65506 0.0
H2045 H 0.62659 0.05469 0.60733 0.0
H2046 H 0.63793 0.04484 0.62516 0.0
H2047 H 0.62932 0.06498 0.63187 0.0
C2048 C 0.63951 0.01936 0.6774 0.0
C2049 C 0.64243 0.03559 0.69072 0.0
C2050 C 0.62946 0.01811 0.66003 0.0
C2051 C 0.62253 0.03314 0.65584 0.0
C2052 C 0.62688 0.04991 0.66829 0.0
H2053 H 0.5398 0.05046 0.57759 0.0
H2054 H 0.55875 0.05174 0.60728 0.0
C2055 C 0.63687 0.05116 0.68568 0.0
C2056 C 0.60799 0.03029 0.64063 0.0
H2057 H 0.59527 0.04512 0.60001 0.0
C2058 C 0.5918 0.01898 0.64288 0.0
C2059 C 0.60944 0.03982 0.6251 0.0
C2060 C 0.62678 0.05168 0.62206 0.0
C2061 C 0.57676 0.01713 0.62991 0.0
C2062 C 0.5782 0.02682 0.61453 0.0
C2063 C 0.59438 0.03802 0.61218 0.0
C2064 C 0.56353 0.02436 0.59964 0.0
C2065 C 0.55943 0.0051 0.63273 0.0
C2066 C 0.55976 0.00829 0.58619 0.0
C2067 C 0.54929 0.00765 0.5693 0.0
C2068 C 0.54253 0.02304 0.56595 0.0
C2069 C 0.54499 0.03849 0.5801 0.0
C2070 C 0.55569 0.03922 0.59693 0.0
H2071 H 0.55987 1.00093 0.64699 0.0
H2072 H 0.54844 0.01244 0.63081 0.0
H2073 H 0.55637 0.99244 0.62191 0.0
H2074 H 0.56595 0.99683 0.58818 0.0
H2075 H 0.54723 0.99555 0.55849 0.0
H2076 H 0.31774 0.35794 0.9742 0.0
H2077 H 0.31278 0.34543 0.94055 0.0
H2078 H 0.25745 0.3245 0.94479 0.0
H2079 H 0.26225 0.33834 0.97848 0.0
H2080 H 0.30452 0.31274 0.92325 0.0
H2081 H 0.25078 0.34612 0.89853 0.0
H2082 H 0.26253 0.35261 0.92214 0.0
H2083 H 0.24498 0.3322 0.91631 0.0
C2084 C 0.30448 0.35073 0.96796 0.0
C2085 C 0.29041 0.34904 0.97901 0.0
C2086 C 0.30163 0.34356 0.94864 0.0
C2087 C 0.28468 0.3341 0.93981 0.0
C2088 C 0.27056 0.33218 0.95093 0.0
H2089 H 0.26357 0.26812 0.8253 0.0
H2090 H 0.26216 0.27956 0.85886 0.0
C2091 C 0.27333 0.3399 0.97027 0.0
C2092 C 0.28237 0.32581 0.91925 0.0
H2093 H 0.2589 0.32414 0.87589 0.0
C2094 C 0.29451 0.31531 0.91299 0.0
C2095 C 0.2693 0.329 0.90561 0.0
C2096 C 0.25626 0.34073 0.91093 0.0
C2097 C 0.29419 0.30834 0.89374 0.0
C2098 C 0.28125 0.31162 0.88025 0.0
C2099 C 0.26879 0.32164 0.88634 0.0
C2100 C 0.28107 0.30524 0.85969 0.0
C2101 C 0.30794 0.29779 0.88778 0.0
C2102 C 0.29203 0.31597 0.84904 0.0
C2103 C 0.29264 0.30959 0.82989 0.0
C2104 C 0.28255 0.29223 0.8212 0.0
C2105 C 0.27155 0.2815 0.83181 0.0
C2106 C 0.27069 0.28804 0.85088 0.0
H2107 H 0.31618 0.29498 0.90009 0.0
H2108 H 0.30141 0.28446 0.8787 0.0
H2109 H 0.3168 0.30587 0.87922 0.0
H2110 H 0.30027 0.3292 0.85562 0.0
H2111 H 0.30126 0.31803 0.82196 0.0
H2112 H 0.97721 0.01325 0.29991 0.0
H2113 H 0.99091 0.01242 0.33198 0.0
H2114 H 0.94013 0.01001 0.35252 0.0
H2115 H 0.92647 0.01061 0.32073 0.0
H2116 H 0.99009 0.03935 0.36529 0.0
H2117 H 0.95918 0.96771 0.37315 0.0
H2118 H 0.96028 0.97518 0.35035 0.0
H2119 H 0.94381 0.98075 0.36482 0.0
C2120 C 0.96896 0.01221 0.31123 0.0
C2121 C 0.9508 0.01216 0.30787 0.0
C2122 C 0.97679 0.01185 0.32952 0.0
C2123 C 0.96649 0.01106 0.34456 0.0
C2124 C 0.94828 0.01046 0.34107 0.0
H2125 H 0.98044 0.0289 0.46561 0.0
H2126 H 0.97093 0.02611 0.43171 0.0
C2127 C 0.94051 0.01099 0.32291 0.0
C2128 C 0.97474 0.01179 0.36414 0.0
H2129 H 0.97301 0.98812 0.40151 0.0
C2130 C 0.98659 0.02806 0.37315 0.0
C2131 C 0.97002 0.99707 0.37434 0.0
C2132 C 0.95774 0.97911 0.36516 0.0
C2133 C 0.9934 0.0302 0.39233 0.0
C2134 C 0.98832 0.01565 0.40258 0.0
C2135 C 0.97682 0.99923 0.3935 0.0
C2136 C 0.99433 0.01752 0.42299 0.0
C2137 C 0.00555 0.04813 0.40178 0.0
C2138 C 0.01064 0.01359 0.42918 0.0
C2139 C 0.01615 0.01518 0.44854 0.0
C2140 C 0.00538 0.02065 0.46199 0.0
C2141 C 0.98906 0.02465 0.45565 0.0
C2142 C 0.98358 0.02304 0.43631 0.0
H2143 H 0.00804 0.05826 0.39189 0.0
H2144 H 0.99962 0.0543 0.41391 0.0
H2145 H 0.01843 0.04547 0.4075 0.0
H2146 H 0.01909 0.00932 0.41902 0.0
H2147 H 0.02891 0.0123 0.45295 0.0
H2148 H 0.25471 0.63529 0.58237 0.0
H2149 H 0.2461 0.65194 0.61068 0.0
H2150 H 0.29021 0.69743 0.61098 0.0
H2151 H 0.29889 0.68112 0.58298 0.0
H2152 H 0.26892 0.66385 0.64559 0.0
H2153 H 0.24773 0.72226 0.61771 0.0
H2154 H 0.24828 0.70097 0.60274 0.0
H2155 H 0.26824 0.71852 0.60995 0.0
C2156 C 0.26247 0.6489 0.58843 0.0
C2157 C 0.27758 0.65685 0.5806 0.0
C2158 C 0.2575 0.65837 0.60448 0.0
C2159 C 0.26739 0.67596 0.61259 0.0
C2160 C 0.28224 0.684 0.60462 0.0
H2161 H 0.29984 0.73465 0.72273 0.0
H2162 H 0.29489 0.71469 0.69181 0.0
C2163 C 0.28731 0.67454 0.58877 0.0
C2164 C 0.26356 0.68544 0.63048 0.0
H2165 H 0.25914 0.72769 0.65104 0.0
C2166 C 0.26632 0.67763 0.64683 0.0
C2167 C 0.25993 0.70325 0.6319 0.0
C2168 C 0.25568 0.71167 0.6146 0.0
C2169 C 0.26691 0.68781 0.6648 0.0
C2170 C 0.26509 0.70634 0.66626 0.0
C2171 C 0.26092 0.7136 0.64986 0.0
C2172 C 0.26828 0.71867 0.68461 0.0
C2173 C 0.26989 0.67876 0.68198 0.0
C2174 C 0.25535 0.72821 0.69021 0.0
C2175 C 0.25843 0.74002 0.70745 0.0
C2176 C 0.27436 0.7422 0.71939 0.0
C2177 C 0.28741 0.73291 0.71372 0.0
C2178 C 0.2845 0.72143 0.69624 0.0
H2179 H 0.26492 0.66357 0.67861 0.0
H2180 H 0.28434 0.68142 0.68675 0.0
H2181 H 0.26323 0.68426 0.69383 0.0
H2182 H 0.24282 0.72634 0.68134 0.0
H2183 H 0.24813 0.74699 0.71172 0.0
H2184 H 0.61393 0.04162 0.777 0.0
H2185 H 0.59894 0.04313 0.80539 0.0
H2186 H 0.64649 0.03837 0.83886 0.0
H2187 H 0.66156 0.03677 0.81067 0.0
H2188 H 0.59749 0.01035 0.82442 0.0
H2189 H 0.62546 0.07731 0.87202 0.0
H2190 H 0.62562 0.07467 0.84666 0.0
H2191 H 0.64096 0.06567 0.86101 0.0
C2192 C 0.62137 0.04148 0.7905 0.0
C2193 C 0.63877 0.03862 0.79161 0.0
C2194 C 0.6128 0.04233 0.80663 0.0
C2195 C 0.62166 0.04065 0.82398 0.0
C2196 C 0.63955 0.03971 0.82549 0.0
H2197 H 0.58252 0.03793 0.93024 0.0
H2198 H 0.59844 0.02581 0.9056 0.0
C2199 C 0.64809 0.03871 0.80935 0.0
C2200 C 0.61155 0.03691 0.83967 0.0
H2201 H 0.6056 0.05497 0.88394 0.0
C2202 C 0.59922 0.02003 0.8375 0.0
C2203 C 0.61427 0.04949 0.85666 0.0
C2204 C 0.62721 0.06787 0.85932 0.0
C2205 C 0.58903 0.01561 0.85192 0.0
C2206 C 0.5913 0.02847 0.86866 0.0
C2207 C 0.60414 0.04504 0.87107 0.0
C2208 C 0.57877 0.02689 0.88264 0.0
C2209 C 0.57575 0.99748 0.84911 0.0
C2210 C 0.56186 0.0301 0.87775 0.0
C2211 C 0.55271 0.03714 0.89179 0.0
C2212 C 0.56046 0.04094 0.91074 0.0
C2213 C 0.57623 0.0352 0.91572 0.0
C2214 C 0.58534 0.02816 0.90169 0.0
H2215 H 0.57897 0.98721 0.83802 0.0
H2216 H 0.57523 0.99172 0.86253 0.0
H2217 H 0.56238 0.99972 0.84458 0.0
H2218 H 0.55669 0.0293 0.86305 0.0
H2219 H 0.54036 0.04106 0.88769 0.0
H2220 H 0.25569 0.34214 0.07067 0.0
H2221 H 0.24912 0.33007 0.10006 0.0
H2222 H 0.30488 0.33401 0.11596 0.0
H2223 H 0.31155 0.34571 0.08691 0.0
H2224 H 0.27515 0.29724 0.1181 0.0
H2225 H 0.26848 0.36489 0.15658 0.0
H2226 H 0.26028 0.35771 0.13175 0.0
H2227 H 0.28371 0.36417 0.1391 0.0
C2228 C 0.2665 0.34019 0.08032 0.0
C2229 C 0.28413 0.34475 0.07628 0.0
C2230 C 0.26274 0.33338 0.09711 0.0
C2231 C 0.27655 0.33125 0.11019 0.0
C2232 C 0.29404 0.33546 0.10602 0.0
H2233 H 0.30027 0.29126 0.21349 0.0
H2234 H 0.29847 0.30053 0.18215 0.0
C2235 C 0.29779 0.34206 0.08928 0.0
C2236 C 0.27315 0.32497 0.12848 0.0
H2237 H 0.26986 0.34112 0.17459 0.0
C2238 C 0.27371 0.30673 0.13041 0.0
C2239 C 0.27127 0.33737 0.14448 0.0
C2240 C 0.27086 0.35717 0.14306 0.0
C2241 C 0.27284 0.30066 0.14804 0.0
C2242 C 0.2719 0.31332 0.16432 0.0
C2243 C 0.27065 0.33141 0.16219 0.0
C2244 C 0.27316 0.30834 0.18374 0.0
C2245 C 0.27301 0.28071 0.14901 0.0
C2246 C 0.26002 0.31054 0.19559 0.0
C2247 C 0.26134 0.30574 0.21381 0.0
C2248 C 0.2757 0.2985 0.22035 0.0
C2249 C 0.28895 0.29661 0.20865 0.0
C2250 C 0.28783 0.30174 0.19067 0.0
H2251 H 0.26807 0.27181 0.13507 0.0
H2252 H 0.28683 0.27943 0.15299 0.0
H2253 H 0.26475 0.27546 0.15973 0.0
H2254 H 0.24863 0.3157 0.19064 0.0
H2255 H 0.25089 0.30716 0.22255 0.0
H2256 H 0.2501 0.98428 0.99146 0.0
H2257 H 0.22119 0.99201 0.98564 0.0
H2258 H 0.19539 0.93527 0.98493 0.0
H2259 H 0.22422 0.92731 0.9908 0.0
H2260 H 0.18001 0.96605 0.9588 0.0
H2261 H 0.19545 0.97893 0.03774 0.0
H2262 H 0.21268 0.98486 0.02309 0.0
H2263 H 0.2034 0.96109 0.02378 0.0
C2264 C 0.23829 0.97333 0.9895 0.0
C2265 C 0.23927 0.95531 0.9921 0.0
C2266 C 0.22187 0.97774 0.98589 0.0
C2267 C 0.2064 0.96415 0.98486 0.0
C2268 C 0.20735 0.94579 0.98549 0.0
H2269 H 0.1087 0.96147 0.0254 0.0
H2270 H 0.13172 0.95349 0.00681 0.0
C2271 C 0.22378 0.94135 0.98908 0.0
C2272 C 0.18994 0.96978 0.98839 0.0
H2273 H 0.16755 0.98176 0.02491 0.0
C2274 C 0.1772 0.96962 0.97317 0.0
C2275 C 0.18668 0.97448 0.00724 0.0
C2276 C 0.20021 0.97491 0.02398 0.0
C2277 C 0.16078 0.97372 0.9765 0.0
C2278 C 0.15736 0.97775 0.99536 0.0
C2279 C 0.17035 0.97842 0.01047 0.0
C2280 C 0.14031 0.98098 0.00033 0.0
C2281 C 0.14708 0.97341 0.9601 0.0
C2282 C 0.13748 0.99894 0.0023 0.0
C2283 C 0.1246 0.0036 0.01314 0.0
C2284 C 0.11452 0.9903 0.02213 0.0
C2285 C 0.11649 0.97198 0.01883 0.0
C2286 C 0.12936 0.96735 0.00798 0.0
H2287 H 0.15175 0.9697 0.94622 0.0
H2288 H 0.13472 0.96333 0.96112 0.0
H2289 H 0.14376 0.98721 0.96077 0.0
H2290 H 0.14618 0.00965 0.99683 0.0
H2291 H 0.12345 0.01788 0.01558 0.0
H2292 H 0.70373 0.65056 0.0083 0.0
H2293 H 0.67371 0.63549 0.01326 0.0
H2294 H 0.67888 0.58537 0.97895 0.0
H2295 H 0.70875 0.60012 0.97405 0.0
H2296 H 0.64322 0.61819 0.98732 0.0
H2297 H 0.66634 0.56875 0.02911 0.0
H2298 H 0.68107 0.58904 0.02429 0.0
H2299 H 0.67465 0.56865 0.0066 0.0
C2300 C 0.69843 0.63636 0.00172 0.0
C2301 C 0.70872 0.62651 0.99091 0.0
C2302 C 0.68129 0.62778 0.00459 0.0
C2303 C 0.67422 0.6092 0.99678 0.0
C2304 C 0.68423 0.59958 0.98545 0.0
H2305 H 0.56457 0.5489 0.98008 0.0
H2306 H 0.5942 0.56617 0.97674 0.0
C2307 C 0.70129 0.6081 0.98259 0.0
C2308 C 0.65647 0.59968 0.0005 0.0
H2309 H 0.63545 0.56229 0.01813 0.0
C2310 C 0.64149 0.60606 0.9942 0.0
C2311 C 0.65427 0.58406 0.00979 0.0
C2312 C 0.66994 0.57731 0.01802 0.0
C2313 C 0.62429 0.59688 0.99641 0.0
C2314 C 0.62202 0.5806 0.00472 0.0
C2315 C 0.6371 0.5746 0.01154 0.0
C2316 C 0.6042 0.56953 0.00651 0.0
C2317 C 0.60882 0.60495 0.99004 0.0
C2318 C 0.60022 0.56466 0.02409 0.0
C2319 C 0.58355 0.55413 0.0258 0.0
C2320 C 0.5705 0.54863 0.01004 0.0
C2321 C 0.57446 0.55322 0.99243 0.0
C2322 C 0.59129 0.56328 0.9906 0.0
H2323 H 0.61302 0.62002 0.99001 0.0
H2324 H 0.60328 0.59833 0.97534 0.0
H2325 H 0.59816 0.60263 -0.00071 0.0
H2326 H 0.60995 0.56921 0.03656 0.0
H2327 H 0.58063 0.55084 0.03954 0.0
H2328 H 0.67233 0.49909 0.25537 0.0
H2329 H 0.68783 0.47349 0.24958 0.0
H2330 H 0.68081 0.46102 0.30552 0.0
H2331 H 0.66574 0.48641 0.31151 0.0
H2332 H 0.72026 0.46919 0.28405 0.0
H2333 H 0.66117 0.41205 0.25818 0.0
H2334 H 0.66165 0.43521 0.25346 0.0
H2335 H 0.66 0.43024 0.27698 0.0
C2336 C 0.67413 0.49085 0.26635 0.0
C2337 C 0.66812 0.49488 0.28396 0.0
C2338 C 0.68292 0.47631 0.26306 0.0
C2339 C 0.68538 0.46553 0.2772 0.0
C2340 C 0.67906 0.4693 0.29455 0.0
H2341 H 0.72322 0.36304 0.27007 0.0
H2342 H 0.71112 0.38934 0.28321 0.0
C2343 C 0.67057 0.48388 0.29794 0.0
C2344 C 0.69506 0.45061 0.27433 0.0
H2345 H 0.68905 0.40411 0.26139 0.0
C2346 C 0.71352 0.45494 0.27902 0.0
C2347 C 0.68604 0.43209 0.26842 0.0
C2348 C 0.6661 0.42694 0.26392 0.0
C2349 C 0.72335 0.44114 0.27751 0.0
C2350 C 0.71444 0.42264 0.27072 0.0
C2351 C 0.69586 0.41829 0.2666 0.0
C2352 C 0.72417 0.40794 0.26577 0.0
C2353 C 0.74313 0.4465 0.28333 0.0
C2354 C 0.73587 0.40989 0.25209 0.0
C2355 C 0.74279 0.39504 0.24474 0.0
C2356 C 0.738 0.3779 0.25077 0.0
C2357 C 0.72719 0.37619 0.26532 0.0
C2358 C 0.72021 0.39113 0.27271 0.0
H2359 H 0.74677 0.45906 0.29431 0.0
H2360 H 0.7482 0.43519 0.28892 0.0
H2361 H 0.74985 0.44967 0.27084 0.0
H2362 H 0.73882 0.42256 0.24623 0.0
H2363 H 0.75113 0.39665 0.23353 0.0
H2364 H 0.82424 0.47119 0.48271 0.0
H2365 H 0.85423 0.48232 0.47444 0.0
H2366 H 0.87667 0.46077 0.52154 0.0
H2367 H 0.84729 0.45023 0.53016 0.0
H2368 H 0.88311 0.50651 0.507 0.0
H2369 H 0.89928 0.44223 0.47152 0.0
H2370 H 0.87695 0.44621 0.47009 0.0
H2371 H 0.88674 0.43995 0.49121 0.0
C2372 C 0.83565 0.469 0.49129 0.0
C2373 C 0.83362 0.45987 0.507 0.0
C2374 C 0.85258 0.47505 0.4864 0.0
C2375 C 0.8673 0.47175 0.49712 0.0
C2376 C 0.86525 0.46285 0.51286 0.0
H2377 H 0.9781 0.4885 0.52292 0.0
H2378 H 0.94573 0.47787 0.51834 0.0
C2379 C 0.84852 0.45701 0.51782 0.0
C2380 C 0.88527 0.47958 0.49397 0.0
H2381 H 0.92378 0.46643 0.48629 0.0
C2382 C 0.89206 0.49802 0.50198 0.0
C2383 C 0.89661 0.46805 0.4879 0.0
C2384 C 0.88955 0.44801 0.47957 0.0
C2385 C 0.91031 0.505 0.50551 0.0
C2386 C 0.92179 0.49338 0.4998 0.0
C2387 C 0.91487 0.4752 0.49071 0.0
C2388 C 0.94105 0.49987 0.50318 0.0
C2389 C 0.91699 0.52425 0.51653 0.0
C2390 C 0.94885 0.51571 0.49632 0.0
C2391 C 0.967 0.5222 0.49969 0.0
C2392 C 0.97781 0.51238 0.50905 0.0
C2393 C 0.97003 0.49635 0.51577 0.0
C2394 C 0.95166 0.4902 0.51299 0.0
H2395 H 0.90691 0.52866 0.52507 0.0
H2396 H 0.92928 0.52521 0.52623 0.0
H2397 H 0.91991 0.53413 0.5065 0.0
H2398 H 0.9409 0.52302 0.48824 0.0
H2399 H 0.97251 0.53466 0.49438 0.0
H2400 H 0.33771 0.04148 0.26749 0.0
H2401 H 0.3247 0.06688 0.25937 0.0
H2402 H 0.3226 0.08531 0.31851 0.0
H2403 H 0.33551 0.05983 0.32684 0.0
H2404 H 0.29247 0.08843 0.28167 0.0
H2405 H 0.3649 0.11895 0.28637 0.0
H2406 H 0.35689 0.09522 0.27544 0.0
H2407 H 0.35638 0.10167 0.30032 0.0
C2408 C 0.33375 0.05046 0.27869 0.0
C2409 C 0.33785 0.04899 0.29778 0.0
C2410 C 0.3263 0.06487 0.27403 0.0
C2411 C 0.32297 0.07785 0.28842 0.0
C2412 C 0.32509 0.07522 0.30733 0.0
H2413 H 0.32304 0.19091 0.27255 0.0
H2414 H 0.32563 0.1639 0.28755 0.0
C2415 C 0.33242 0.06069 0.31202 0.0
C2416 C 0.32094 0.09575 0.28395 0.0
H2417 H 0.34514 0.13548 0.27354 0.0
C2418 C 0.3039 0.09889 0.28011 0.0
C2419 C 0.33605 0.1092 0.28216 0.0
C2420 C 0.35464 0.10625 0.28635 0.0
C2421 C 0.30154 0.11513 0.27369 0.0
C2422 C 0.31663 0.12813 0.27095 0.0
C2423 C 0.33368 0.12532 0.27564 0.0
C2424 C 0.31505 0.14424 0.26208 0.0
C2425 C 0.28303 0.11817 0.26957 0.0
C2426 C 0.30887 0.14188 0.24276 0.0
C2427 C 0.30776 0.1572 0.23413 0.0
C2428 C 0.31276 0.17494 0.24481 0.0
C2429 C 0.31933 0.17728 0.26408 0.0
C2430 C 0.32062 0.16197 0.27265 0.0
H2431 H 0.27327 0.10893 0.27628 0.0
H2432 H 0.28257 0.13273 0.27469 0.0
H2433 H 0.279 0.11532 0.25404 0.0
H2434 H 0.3048 0.1282 0.23443 0.0
H2435 H 0.30233 0.15518 0.21935 0.0
H2436 H 0.32737 0.16141 0.50321 0.0
H2437 H 0.35269 0.14658 0.50494 0.0
H2438 H 0.3192 0.09759 0.51755 0.0
H2439 H 0.29376 0.11237 0.51602 0.0
H2440 H 0.36592 0.13077 0.53707 0.0
H2441 H 0.34435 0.07976 0.4709 0.0
H2442 H 0.33591 0.10053 0.47544 0.0
H2443 H 0.32807 0.08127 0.487 0.0
C2444 C 0.32539 0.14757 0.50658 0.0
C2445 C 0.30855 0.13812 0.5096 0.0
C2446 C 0.33986 0.13908 0.50742 0.0
C2447 C 0.3377 0.1209 0.51103 0.0
C2448 C 0.32103 0.11153 0.51443 0.0
H2449 H 0.40898 0.04882 0.53191 0.0
H2450 H 0.38289 0.06076 0.5218 0.0
C2451 C 0.30657 0.12008 0.51376 0.0
C2452 C 0.35309 0.11202 0.51196 0.0
H2453 H 0.36996 0.07697 0.49019 0.0
C2454 C 0.36687 0.11907 0.52679 0.0
C2455 C 0.35419 0.09676 0.49849 0.0
C2456 C 0.33993 0.08915 0.48194 0.0
C2457 C 0.38161 0.11101 0.52881 0.0
C2458 C 0.38281 0.09575 0.51534 0.0
C2459 C 0.36903 0.0887 0.50043 0.0
C2460 C 0.3982 0.08686 0.51703 0.0
C2461 C 0.39558 0.11864 0.54567 0.0
C2462 C 0.41536 0.09714 0.51656 0.0
C2463 C 0.43016 0.09042 0.52242 0.0
C2464 C 0.42803 0.07318 0.52849 0.0
C2465 C 0.41091 0.0621 0.52715 0.0
C2466 C 0.39604 0.06893 0.52145 0.0
H2467 H 0.3906 0.12725 0.55694 0.0
H2468 H 0.40016 0.10734 0.55182 0.0
H2469 H 0.40718 0.12745 0.54108 0.0
H2470 H 0.41729 0.11087 0.51287 0.0
H2471 H 0.44326 0.09917 0.52336 0.0
H2472 H 0.68014 0.5947 0.32059 0.0
H2473 H 0.69759 0.62356 0.31408 0.0
H2474 H 0.67705 0.60826 0.25486 0.0
H2475 H 0.65908 0.57955 0.26134 0.0
H2476 H 0.72364 0.62896 0.29241 0.0
H2477 H 0.66892 0.6598 0.26513 0.0
H2478 H 0.66502 0.63978 0.27676 0.0
H2479 H 0.66879 0.63745 0.2523 0.0
C2480 C 0.67922 0.59749 0.30618 0.0
C2481 C 0.66815 0.58481 0.2915 0.0
C2482 C 0.68923 0.61402 0.30248 0.0
C2483 C 0.68848 0.61823 0.28403 0.0
C2484 C 0.67753 0.60556 0.26929 0.0
H2485 H 0.75983 0.70789 0.24416 0.0
H2486 H 0.74182 0.67743 0.24663 0.0
C2487 C 0.66734 0.58908 0.27301 0.0
C2488 C 0.69968 0.63558 0.28025 0.0
H2489 H 0.69824 0.67555 0.26284 0.0
C2490 C 0.71806 0.63909 0.28587 0.0
C2491 C 0.69239 0.64889 0.27184 0.0
C2492 C 0.67269 0.64642 0.26632 0.0
C2493 C 0.72931 0.65552 0.28336 0.0
C2494 C 0.72202 0.66867 0.27488 0.0
C2495 C 0.70373 0.66522 0.26911 0.0
C2496 C 0.73308 0.68675 0.27328 0.0
C2497 C 0.74887 0.65906 0.29021 0.0
C2498 C 0.73407 0.70185 0.28748 0.0
C2499 C 0.74419 0.71912 0.28606 0.0
C2500 C 0.75361 0.72152 0.27049 0.0
C2501 C 0.75285 0.7063 0.2564 0.0
C2502 C 0.74253 0.689 0.25774 0.0
H2503 H 0.75259 0.64718 0.29602 0.0
H2504 H 0.75667 0.662 0.27838 0.0
H2505 H 0.75256 0.67143 0.30141 0.0
H2506 H 0.72693 0.70028 0.29962 0.0
H2507 H 0.74465 0.7306 0.29719 0.0
H2508 H 0.85938 0.46156 0.8219 0.0
H2509 H 0.84759 0.42888 0.80963 0.0
H2510 H 0.8411 0.44133 0.75283 0.0
H2511 H 0.85349 0.474 0.76495 0.0
H2512 H 0.81465 0.41409 0.79072 0.0
H2513 H 0.86656 0.39892 0.74612 0.0
H2514 H 0.86992 0.41966 0.76335 0.0
H2515 H 0.85658 0.41764 0.74102 0.0
C2516 C 0.85548 0.4573 0.80681 0.0
C2517 C 0.85728 0.47019 0.79435 0.0
C2518 C 0.84884 0.43869 0.79982 0.0
C2519 C 0.84374 0.43279 0.78033 0.0
C2520 C 0.8454 0.44564 0.76785 0.0
H2521 H 0.77833 0.32288 0.74578 0.0
H2522 H 0.79362 0.35358 0.74094 0.0
C2523 C 0.85233 0.46424 0.7748 0.0
C2524 C 0.83578 0.41324 0.77342 0.0
H2525 H 0.8424 0.3743 0.74699 0.0
C2526 C 0.82058 0.40542 0.78099 0.0
C2527 C 0.84363 0.40212 0.76067 0.0
C2528 C 0.86015 0.40993 0.75239 0.0
C2529 C 0.81338 0.38653 0.77679 0.0
C2530 C 0.8215 0.37535 0.76448 0.0
C2531 C 0.83627 0.38316 0.75627 0.0
C2532 C 0.81586 0.3553 0.76216 0.0
C2533 C 0.7977 0.37846 0.78629 0.0
C2534 C 0.82392 0.34607 0.775 0.0
C2535 C 0.81521 0.32874 0.77783 0.0
C2536 C 0.79862 0.32058 0.76759 0.0
C2537 C 0.79135 0.32902 0.75349 0.0
C2538 C 0.80004 0.3464 0.75068 0.0
H2539 H 0.79326 0.38914 0.79586 0.0
H2540 H 0.78641 0.37136 0.7754 0.0
H2541 H 0.8012 0.36804 0.79469 0.0
H2542 H 0.83602 0.353 0.78412 0.0
H2543 H 0.82073 0.32238 0.78897 0.0
H2544 H 0.05493 0.82783 0.049 0.0
H2545 H 0.05445 0.85715 0.03712 0.0
H2546 H 0.0354 0.87801 0.08843 0.0
H2547 H 0.03658 0.84928 0.10042 0.0
H2548 H 0.02731 0.87323 0.02878 0.0
H2549 H 0.07267 0.92197 0.08576 0.0
H2550 H 0.07093 0.89737 0.08336 0.0
H2551 H 0.05499 0.90792 0.09493 0.0
C2552 C 0.05129 0.83896 0.05798 0.0
C2553 C 0.04646 0.83643 0.076 0.0
C2554 C 0.05078 0.8557 0.05109 0.0
C2555 C 0.04526 0.87027 0.06195 0.0
C2556 C 0.04038 0.86755 0.07991 0.0
H2557 H 0.02461 0.97945 0.05262 0.0
H2558 H 0.0287 0.95013 0.06167 0.0
C2559 C 0.04107 0.85101 0.08682 0.0
C2560 C 0.0436 0.88785 0.05434 0.0
H2561 H 0.05411 0.93507 0.06575 0.0
C2562 C 0.03332 0.88676 0.03682 0.0
C2563 C 0.05131 0.9057 0.06466 0.0
C2564 C 0.06323 0.90834 0.08312 0.0
C2565 C 0.0299 0.90268 0.02982 0.0
C2566 C 0.03741 0.92058 0.0403 0.0
C2567 C 0.04808 0.92161 0.0576 0.0
C2568 C 0.03415 0.93838 0.03411 0.0
C2569 C 0.01757 0.8999 0.01162 0.0
C2570 C 0.03569 0.94209 0.0155 0.0
C2571 C 0.03266 0.95874 0.01013 0.0
C2572 C 0.0288 0.9726 0.02339 0.0
C2573 C 0.02765 0.96915 0.04204 0.0
C2574 C 0.03006 0.95229 0.04724 0.0
H2575 H 0.00864 0.88597 0.00882 0.0
H2576 H 0.00925 0.91036 0.0119 0.0
H2577 H 0.02554 0.90101 -0.00038 0.0
H2578 H 0.03955 0.93227 0.0051 0.0
H2579 H 0.03389 0.961 0.9957 0.0
H2580 H 0.94329 0.23279 0.87984 0.0
H2581 H 0.91613 0.23472 0.86047 0.0
H2582 H 0.9268 0.29341 0.88013 0.0
H2583 H 0.95463 0.29158 0.89835 0.0
H2584 H 0.88666 0.24327 0.86636 0.0
H2585 H 0.91916 0.29506 0.82572 0.0
H2586 H 0.93173 0.28423 0.84141 0.0
H2587 H 0.92287 0.30368 0.85059 0.0
C2588 C 0.93974 0.24608 0.88003 0.0
C2589 C 0.95103 0.26205 0.89053 0.0
C2590 C 0.92422 0.24721 0.86892 0.0
C2591 C 0.91947 0.26431 0.86827 0.0
C2592 C 0.93039 0.28014 0.87962 0.0
H2593 H 0.83086 0.30139 0.81359 0.0
H2594 H 0.85746 0.29787 0.83292 0.0
C2595 C 0.94619 0.27908 0.89028 0.0
C2596 C 0.90311 0.26547 0.85587 0.0
H2597 H 0.88762 0.28915 0.82275 0.0
C2598 C 0.88695 0.25325 0.85675 0.0
C2599 C 0.90331 0.27832 0.84306 0.0
C2600 C 0.92024 0.29091 0.83997 0.0
C2601 C 0.87107 0.25389 0.84578 0.0
C2602 C 0.87121 0.2671 0.83341 0.0
C2603 C 0.88738 0.27915 0.83233 0.0
C2604 C 0.85477 0.26896 0.82172 0.0
C2605 C 0.8542 0.24069 0.84797 0.0
C2606 C 0.84437 0.25399 0.80875 0.0
C2607 C 0.82899 0.25596 0.79795 0.0
C2608 C 0.82388 0.273 0.79962 0.0
C2609 C 0.83444 0.28807 0.81219 0.0
C2610 C 0.84967 0.28606 0.82318 0.0
H2611 H 0.85533 0.23507 0.86145 0.0
H2612 H 0.84273 0.24748 0.84754 0.0
H2613 H 0.85146 0.22888 0.83616 0.0
H2614 H 0.8482 0.24081 0.80683 0.0
H2615 H 0.82116 0.2442 0.78814 0.0
H2616 H 0.51044 0.22951 0.55851 0.0
H2617 H 0.51117 0.1974 0.54757 0.0
H2618 H 0.56276 0.20537 0.57956 0.0
H2619 H 0.5619 0.23751 0.59105 0.0
H2620 H 0.53155 0.18012 0.52727 0.0
H2621 H 0.53766 0.16113 0.59908 0.0
H2622 H 0.53308 0.183 0.59497 0.0
H2623 H 0.55539 0.1794 0.59581 0.0
C2624 C 0.52203 0.22455 0.56324 0.0
C2625 C 0.53605 0.2363 0.57588 0.0
C2626 C 0.52242 0.20605 0.55691 0.0
C2627 C 0.53681 0.19858 0.56302 0.0
C2628 C 0.5512 0.21045 0.57501 0.0
H2629 H 0.55575 0.08574 0.53979 0.0
H2630 H 0.5593 0.11919 0.54843 0.0
C2631 C 0.55078 0.22899 0.58145 0.0
C2632 C 0.53653 0.17841 0.5569 0.0
H2633 H 0.53936 0.13819 0.57357 0.0
C2634 C 0.53325 0.17101 0.53746 0.0
C2635 C 0.53871 0.16626 0.57004 0.0
C2636 C 0.54124 0.17277 0.59114 0.0
C2637 C 0.53217 0.1521 0.5309 0.0
C2638 C 0.53426 0.14 0.54405 0.0
C2639 C 0.5378 0.14739 0.56343 0.0
C2640 C 0.53231 0.11959 0.53802 0.0
C2641 C 0.52901 0.14521 0.50987 0.0
C2642 C 0.51596 0.10844 0.52932 0.0
C2643 C 0.51392 0.08925 0.52426 0.0
C2644 C 0.52821 0.0806 0.52771 0.0
C2645 C 0.54457 0.09182 0.53647 0.0
C2646 C 0.54657 0.11102 0.5416 0.0
H2647 H 0.53168 0.15669 0.50155 0.0
H2648 H 0.5375 0.13534 0.50592 0.0
H2649 H 0.51495 0.13786 0.50584 0.0
H2650 H 0.50462 0.11455 0.52668 0.0
H2651 H 0.50107 0.08119 0.51766 0.0
H2652 H 0.54609 0.79233 0.3707 0.0
H2653 H 0.57414 0.79238 0.35768 0.0
H2654 H 0.58301 0.74878 0.38818 0.0
H2655 H 0.55493 0.74871 0.40152 0.0
H2656 H 0.61132 0.79424 0.38417 0.0
H2657 H 0.5861 0.73483 0.32571 0.0
H2658 H 0.57167 0.74937 0.33444 0.0
H2659 H 0.57907 0.73408 0.34891 0.0
C2660 C 0.554 0.78277 0.37474 0.0
C2661 C 0.54824 0.77054 0.3872 0.0
C2662 C 0.57001 0.78281 0.36724 0.0
C2663 C 0.58055 0.77049 0.37185 0.0
C2664 C 0.575 0.75833 0.38438 0.0
H2665 H 0.68422 0.76481 0.33193 0.0
H2666 H 0.65635 0.75631 0.34576 0.0
C2667 C 0.559 0.75839 0.39206 0.0
C2668 C 0.59752 0.77082 0.36373 0.0
H2669 H 0.61553 0.75143 0.32637 0.0
C2670 C 0.61232 0.78475 0.37169 0.0
C2671 C 0.59877 0.75838 0.34747 0.0
C2672 C 0.58312 0.74326 0.33849 0.0
C2673 C 0.62822 0.78687 0.3635 0.0
C2674 C 0.62929 0.77492 0.3468 0.0
C2675 C 0.61468 0.76057 0.33917 0.0
C2676 C 0.64509 0.77825 0.3365 0.0
C2677 C 0.64377 0.80211 0.37254 0.0
C2678 C 0.64775 0.79307 0.32635 0.0
C2679 C 0.66359 0.79797 0.31863 0.0
C2680 C 0.67703 0.78805 0.32073 0.0
C2681 C 0.674 0.77259 0.33002 0.0
C2682 C 0.65814 0.76776 0.33792 0.0
H2683 H 0.6418 0.80836 0.38691 0.0
H2684 H 0.65613 0.79676 0.37358 0.0
H2685 H 0.64562 0.8131 0.36356 0.0
H2686 H 0.63781 0.80126 0.325 0.0
H2687 H 0.66555 0.80986 0.31142 0.0
H2688 H 0.00932 0.25334 0.40552 0.0
H2689 H 0.01255 0.2279 0.42216 0.0
H2690 H 0.05506 0.21775 0.39053 0.0
H2691 H 0.05189 0.2435 0.37339 0.0
H2692 H 0.01496 0.18718 0.39405 0.0
H2693 H 0.06339 0.22051 0.45754 0.0
H2694 H 0.0484 0.23339 0.44779 0.0
H2695 H 0.06551 0.22751 0.4346 0.0
C2696 C 0.0196 0.24599 0.40217 0.0
C2697 C 0.03028 0.2505 0.38792 0.0
C2698 C 0.02142 0.23141 0.4118 0.0
C2699 C 0.034 0.22095 0.40759 0.0
C2700 C 0.04527 0.22574 0.394 0.0
H2701 H 0.03088 0.11503 0.44967 0.0
H2702 H 0.04169 0.14226 0.43488 0.0
C2703 C 0.04348 0.24048 0.38427 0.0
C2704 C 0.03396 0.20419 0.41647 0.0
H2705 H 0.04689 0.1903 0.45799 0.0
C2706 C 0.02227 0.18769 0.40781 0.0
C2707 C 0.04327 0.20503 0.43456 0.0
C2708 C 0.05593 0.2225 0.44429 0.0
C2709 C 0.01919 0.17222 0.41707 0.0
C2710 C 0.02802 0.17325 0.43544 0.0
C2711 C 0.04018 0.18953 0.44388 0.0
C2712 C 0.02351 0.15794 0.44646 0.0
C2713 C 0.00589 0.15506 0.40757 0.0
C2714 C 0.00997 0.15791 0.45813 0.0
C2715 C 0.00372 0.14239 0.4664 0.0
C2716 C 0.01107 0.12671 0.46335 0.0
C2717 C 0.0252 0.12707 0.45243 0.0
C2718 C 0.03133 0.14256 0.44396 0.0
H2719 H 1.0002 0.15639 0.39318 0.0
H2720 H 0.01232 0.14306 0.40645 0.0
H2721 H 0.9949 0.15214 0.41633 0.0
H2722 H 0.00371 0.16961 0.46015 0.0
H2723 H 0.99272 0.14236 0.47465 0.0
H2724 H 0.57398 0.27202 0.24789 0.0
H2725 H 0.60527 0.27165 0.25534 0.0
H2726 H 0.60716 0.24954 0.19714 0.0
H2727 H 0.57566 0.25001 0.18947 0.0
H2728 H 0.62284 0.24272 0.25234 0.0
H2729 H 0.64972 0.29315 0.20697 0.0
H2730 H 0.62721 0.29002 0.21257 0.0
H2731 H 0.63313 0.27367 0.19491 0.0
C2732 C 0.58096 0.26709 0.23655 0.0
C2733 C 0.57207 0.26111 0.21798 0.0
C2734 C 0.59898 0.26686 0.24091 0.0
C2735 C 0.60888 0.2608 0.22685 0.0
C2736 C 0.60006 0.25465 0.20828 0.0
H2737 H 0.72218 0.26036 0.22755 0.0
H2738 H 0.69031 0.25743 0.21947 0.0
C2739 C 0.58194 0.25482 0.2039 0.0
C2740 C 0.62827 0.26081 0.23185 0.0
H2741 H 0.67018 0.27925 0.22274 0.0
C2742 C 0.63319 0.2507 0.24582 0.0
C2743 C 0.64195 0.27114 0.22344 0.0
C2744 C 0.63784 0.28275 0.20875 0.0
C2745 C 0.65113 0.25028 0.25128 0.0
C2746 C 0.66491 0.2609 0.24311 0.0
C2747 C 0.6599 0.27104 0.22913 0.0
C2748 C 0.68447 0.26157 0.24846 0.0
C2749 C 0.65491 0.23789 0.2653 0.0
C2750 C 0.69232 0.26471 0.26752 0.0
C2751 C 0.71063 0.26576 0.27217 0.0
C2752 C 0.72179 0.26448 0.25792 0.0
C2753 C 0.71403 0.2615 0.23892 0.0
C2754 C 0.6957 0.25989 0.23428 0.0
H2755 H 0.64335 0.22633 0.26504 0.0
H2756 H 0.66659 0.23197 0.2624 0.0
H2757 H 0.65753 0.24598 0.2798 0.0
H2758 H 0.68442 0.2668 0.27892 0.0
H2759 H 0.71618 0.26831 0.28694 0.0
H2760 H 0.55618 0.8466 0.88544 0.0
H2761 H 0.56114 0.87693 0.90597 0.0
H2762 H 0.5051 0.86853 0.91007 0.0
H2763 H 0.50013 0.83856 0.89024 0.0
H2764 H 0.54703 0.90888 0.90263 0.0
H2765 H 0.52588 0.87958 0.96544 0.0
H2766 H 0.53123 0.86566 0.94512 0.0
H2767 H 0.50977 0.87143 0.94489 0.0
C2768 C 0.54495 0.85123 0.89077 0.0
C2769 C 0.5278 0.83986 0.8864 0.0
C2770 C 0.5478 0.86859 0.9025 0.0
C2771 C 0.53355 0.8749 0.91003 0.0
C2772 C 0.51642 0.86384 0.90502 0.0
H2773 H 0.50524 0.96326 0.98155 0.0
H2774 H 0.50801 0.93539 0.96113 0.0
C2775 C 0.51361 0.84661 0.89356 0.0
C2776 C 0.53614 0.89293 0.92309 0.0
H2777 H 0.52654 0.9116 0.96606 0.0
C2778 C 0.54278 0.90952 0.91661 0.0
C2779 C 0.53064 0.89386 0.94139 0.0
C2780 C 0.52415 0.87668 0.94971 0.0
C2781 C 0.54307 0.92689 0.92739 0.0
C2782 C 0.53692 0.92779 0.94546 0.0
C2783 C 0.53105 0.91113 0.9522 0.0
C2784 C 0.53542 0.94554 0.95726 0.0
C2785 C 0.54914 0.944 0.91882 0.0
C2786 C 0.54982 0.96088 0.96206 0.0
C2787 C 0.54806 0.97715 0.97342 0.0
C2788 C 0.53206 0.97823 0.98079 0.0
C2789 C 0.51779 0.96286 0.97621 0.0
C2790 C 0.51939 0.94685 0.96451 0.0
H2791 H 0.54859 0.94077 0.90319 0.0
H2792 H 0.54093 0.95429 0.92216 0.0
H2793 H 0.56313 0.95035 0.92466 0.0
H2794 H 0.56255 0.96022 0.95733 0.0
H2795 H 0.55936 0.98869 0.97689 0.0
H2796 H 0.9499 0.74841 0.68141 0.0
H2797 H 0.92178 0.75211 0.69269 0.0
H2798 H 0.94531 0.75634 0.75026 0.0
H2799 H 0.97352 0.75231 0.739 0.0
H2800 H 0.89975 0.7304 0.71807 0.0
H2801 H 0.92454 0.80457 0.7483 0.0
H2802 H 0.9352 0.79285 0.73054 0.0
H2803 H 0.93794 0.78874 0.75452 0.0
C2804 C 0.94913 0.74984 0.69647 0.0
C2805 C 0.96417 0.74987 0.70919 0.0
C2806 C 0.93293 0.75203 0.70295 0.0
C2807 C 0.93125 0.75474 0.72241 0.0
C2808 C 0.94613 0.75445 0.73518 0.0
H2809 H 0.84517 0.78586 0.78433 0.0
H2810 H 0.87342 0.77991 0.77517 0.0
C2811 C 0.96229 0.75195 0.72867 0.0
C2812 C 0.91406 0.75805 0.72921 0.0
H2813 H 0.89505 0.79129 0.75171 0.0
C2814 C 0.89876 0.74373 0.72543 0.0
C2815 C 0.91256 0.77534 0.73902 0.0
C2816 C 0.92835 0.79137 0.74331 0.0
C2817 C 0.88228 0.74612 0.73128 0.0
C2818 C 0.88058 0.76362 0.7406 0.0
C2819 C 0.896 0.77788 0.74454 0.0
C2820 C 0.86305 0.76742 0.74624 0.0
C2821 C 0.86701 0.72954 0.72788 0.0
C2822 C 0.84746 0.76284 0.73316 0.0
C2823 C 0.83117 0.76613 0.73845 0.0
C2824 C 0.82983 0.77446 0.75696 0.0
C2825 C 0.84549 0.77943 0.76995 0.0
C2826 C 0.86179 0.77601 0.76468 0.0
H2827 H 0.8718 0.71647 0.727 0.0
H2828 H 0.85832 0.72996 0.73929 0.0
H2829 H 0.85897 0.72924 0.71418 0.0
H2830 H 0.84786 0.75682 0.71867 0.0
H2831 H 0.81958 0.7622 0.72791 0.0
H2832 H 0.12782 0.02866 0.8434 0.0
H2833 H 0.11384 0.0259 0.87195 0.0
H2834 H 0.07054 0.04756 0.84856 0.0
H2835 H 0.08431 0.04981 0.81932 0.0
H2836 H 0.10489 0.04976 0.89793 0.0
H2837 H 0.04427 0.99978 0.8617 0.0
H2838 H 0.0635 0.00653 0.8499 0.0
H2839 H 0.0481 0.0214 0.85307 0.0
C2840 C 0.11546 0.03314 0.84432 0.0
C2841 C 0.10716 0.03945 0.82902 0.0
C2842 C 0.10743 0.03146 0.8607 0.0
C2843 C 0.09097 0.03613 0.86226 0.0
C2844 C 0.08303 0.04339 0.84745 0.0
H2845 H 0.02431 0.0349 0.95106 0.0
H2846 H 0.0381 0.03761 0.92224 0.0
C2847 C 0.09101 0.04491 0.83086 0.0
C2848 C 0.08225 0.03307 0.87939 0.0
H2849 H 0.04491 0.00998 0.89454 0.0
C2850 C 0.09179 0.04103 0.89719 0.0
C2851 C 0.06523 0.02149 0.87838 0.0
C2852 C 0.05472 0.01165 0.85976 0.0
C2853 C 0.08468 0.03801 0.914 0.0
C2854 C 0.06762 0.02663 0.91297 0.0
C2855 C 0.05804 0.01864 0.89522 0.0
C2856 C 0.05901 0.02387 0.93017 0.0
C2857 C 0.09531 0.04734 0.93272 0.0
C2858 C 0.0661 0.01497 0.94409 0.0
C2859 C 0.05825 0.01341 0.96072 0.0
C2860 C 0.04316 0.02064 0.96354 0.0
C2861 C 0.03592 0.02914 0.94933 0.0
C2862 C 0.04375 0.0307 0.93281 0.0
H2863 H 0.10661 0.05845 0.93095 0.0
H2864 H 0.08678 0.05335 0.9423 0.0
H2865 H 0.10075 0.03698 0.93969 0.0
H2866 H 0.07775 0.00935 0.94212 0.0
H2867 H 0.06399 0.00665 0.97137 0.0
H2868 H 0.75733 0.38396 0.53992 0.0
H2869 H 0.74915 0.366 0.56507 0.0
H2870 H 0.80195 0.35577 0.57223 0.0
H2871 H 0.81026 0.37339 0.54738 0.0
H2872 H 0.76658 0.32445 0.57364 0.0
H2873 H 0.77922 0.39205 0.6215 0.0
H2874 H 0.76797 0.38856 0.59768 0.0
H2875 H 0.79153 0.39055 0.6015 0.0
C2876 C 0.76704 0.37746 0.54653 0.0
C2877 C 0.78454 0.38039 0.54194 0.0
C2878 C 0.76232 0.36725 0.56082 0.0
C2879 C 0.77505 0.35988 0.57046 0.0
C2880 C 0.792 0.36142 0.56481 0.0
H2881 H 0.83135 0.33446 0.656 0.0
H2882 H 0.81482 0.34685 0.63194 0.0
C2883 C 0.7967 0.37152 0.55059 0.0
C2884 C 0.772 0.35248 0.58795 0.0
H2885 H 0.78481 0.36628 0.63523 0.0
C2886 C 0.76973 0.33341 0.58727 0.0
C2887 C 0.77625 0.36442 0.60552 0.0
C2888 C 0.77881 0.38506 0.60674 0.0
C2889 C 0.77356 0.32605 0.60364 0.0
C2890 C 0.77969 0.33821 0.6209 0.0
C2891 C 0.7801 0.35709 0.6219 0.0
C2892 C 0.78902 0.33213 0.63677 0.0
C2893 C 0.77286 0.30563 0.60205 0.0
C2894 C 0.77985 0.31997 0.6474 0.0
C2895 C 0.78925 0.31278 0.66096 0.0
C2896 C 0.80792 0.31772 0.66404 0.0
C2897 C 0.81701 0.33026 0.65366 0.0
C2898 C 0.80759 0.33747 0.64014 0.0
H2899 H 0.76873 0.29827 0.5873 0.0
H2900 H 0.78609 0.30326 0.60704 0.0
H2901 H 0.7633 0.29953 0.61121 0.0
H2902 H 0.76551 0.31577 0.64492 0.0
H2903 H 0.78196 0.30305 0.66877 0.0
H2904 H 0.42559 0.99408 0.32046 0.0
H2905 H 0.44211 0.9869 0.34811 0.0
H2906 H 0.41453 0.01891 0.38479 0.0
H2907 H 0.39819 0.02603 0.35765 0.0
H2908 H 0.46242 0.01912 0.3658 0.0
H2909 H 0.42739 0.98442 0.41865 0.0
H2910 H 0.41792 0.9811 0.39412 0.0
H2911 H 0.41536 1.00054 0.41066 0.0
C2912 C 0.42268 0.99902 0.33446 0.0
C2913 C 0.41114 0.01112 0.33707 0.0
C2914 C 0.43183 0.99462 0.35015 0.0
C2915 C 0.42956 0.00249 0.36837 0.0
C2916 C 0.41625 0.01243 0.37085 0.0
H2917 H 0.49035 0.05413 0.47314 0.0
H2918 H 0.47395 0.05193 0.44165 0.0
C2919 C 0.4071 0.01678 0.35525 0.0
C2920 C 0.44426 0.00615 0.38355 0.0
H2921 H 0.45263 0.00996 0.4313 0.0
C2922 C 0.46046 0.01667 0.38006 0.0
C2923 C 0.44142 0.00334 0.4021 0.0
C2924 C 0.42459 0.99157 0.4065 0.0
C2925 C 0.4737 0.02512 0.39488 0.0
C2926 C 0.47045 0.02294 0.41339 0.0
C2927 C 0.45458 0.01201 0.41691 0.0
C2928 C 0.48437 0.02898 0.42916 0.0
C2929 C 0.4909 0.03654 0.39089 0.0
C2930 C 0.49571 0.01707 0.4319 0.0
C2931 C 0.5042 0.01766 0.44977 0.0
C2932 C 0.50204 0.03073 0.46485 0.0
C2933 C 0.49206 0.04391 0.46163 0.0
C2934 C 0.48302 0.0429 0.44374 0.0
H2935 H 0.49036 0.03891 0.37594 0.0
H2936 H 0.49417 0.05008 0.4004 0.0
H2937 H 0.5018 0.02933 0.39384 0.0
H2938 H 0.49645 0.00603 0.42074 0.0
H2939 H 0.51158 0.00711 0.45193 0.0
H2940 H 0.80378 0.71724 0.05987 0.0
H2941 H 0.80027 0.72992 0.09209 0.0
H2942 H 0.74822 0.69456 0.08643 0.0
H2943 H 0.75167 0.68156 0.05412 0.0
H2944 H 0.77491 0.74812 0.10634 0.0
H2945 H 0.77327 0.6824 0.13439 0.0
H2946 H 0.78022 0.68576 0.11162 0.0
H2947 H 0.75704 0.68115 0.11442 0.0
C2948 C 0.79153 0.71213 0.06538 0.0
C2949 C 0.77807 0.69821 0.05433 0.0
C2950 C 0.78954 0.71946 0.08386 0.0
C2951 C 0.77411 0.71301 0.09185 0.0
C2952 C 0.76041 0.69951 0.08073 0.0
H2953 H 0.74857 0.73726 0.20756 0.0
H2954 H 0.74694 0.72634 0.17363 0.0
C2955 C 0.76236 0.69217 0.06218 0.0
C2956 C 0.77262 0.7203 0.11189 0.0
H2957 H 0.76946 0.7078 0.15566 0.0
C2958 C 0.77368 0.7393 0.11712 0.0
C2959 C 0.77099 0.7088 0.12598 0.0
C2960 C 0.77046 0.68842 0.12144 0.0
C2961 C 0.77312 0.74708 0.13599 0.0
C2962 C 0.77182 0.73563 0.15013 0.0
C2963 C 0.77046 0.71659 0.14484 0.0
C2964 C 0.77237 0.74313 0.17057 0.0
C2965 C 0.77369 0.76747 0.14055 0.0
C2966 C 0.78722 0.75615 0.18027 0.0
C2967 C 0.78805 0.76261 0.19966 0.0
C2968 C 0.77407 0.75613 0.20983 0.0
C2969 C 0.7593 0.74296 0.20011 0.0
C2970 C 0.75844 0.73655 0.18071 0.0
H2971 H 0.76954 0.77313 0.12777 0.0
H2972 H 0.765 0.77034 0.15151 0.0
H2973 H 0.78749 0.77487 0.14608 0.0
H2974 H 0.79835 0.7611 0.17292 0.0
H2975 H 0.79971 0.77264 0.20669 0.0
H2976 H 0.06909 0.00794 0.72419 0.0
H2977 H 0.05728 0.01038 0.69211 0.0
H2978 H 0.10839 0.04129 0.68372 0.0
H2979 H 0.12042 0.03877 0.71577 0.0
H2980 H 0.05626 0.04332 0.67678 0.0
H2981 H 0.09544 0.99986 0.6374 0.0
H2982 H 0.09319 0.99967 0.66216 0.0
H2983 H 0.10821 0.01831 0.65503 0.0
C2984 C 0.07788 0.01517 0.71551 0.0
C2985 C 0.09573 0.02311 0.72253 0.0
C2986 C 0.07108 0.01658 0.69718 0.0
C2987 C 0.08199 0.02587 0.68549 0.0
C2988 C 0.09982 0.0338 0.69242 0.0
H2989 H 0.06638 0.04157 0.56844 0.0
H2990 H 0.07792 0.04269 0.60156 0.0
C2991 C 0.10665 0.03239 0.71075 0.0
C2992 C 0.07459 0.02752 0.66618 0.0
H2993 H 0.07792 0.01523 0.61939 0.0
C2994 C 0.06096 0.03719 0.66418 0.0
C2995 C 0.0808 0.01955 0.64984 0.0
C2996 C 0.09511 0.00863 0.65111 0.0
C2997 C 0.05359 0.03944 0.64625 0.0
C2998 C 0.05968 0.0313 0.62984 0.0
C2999 C 0.07328 0.02156 0.63192 0.0
C3000 C 0.05225 0.03256 0.61033 0.0
C3001 C 0.03972 0.05093 0.64519 0.0
C3002 C 0.03392 0.02688 0.60424 0.0
C3003 C 0.02729 0.0268 0.58542 0.0
C3004 C 0.03895 0.03172 0.57231 0.0
C3005 C 0.05719 0.03758 0.57836 0.0
C3006 C 0.06376 0.0382 0.59725 0.0
H3007 H 0.04088 0.06092 0.65844 0.0
H3008 H 0.04075 0.05869 0.63311 0.0
H3009 H 0.02634 0.04171 0.64333 0.0
H3010 H 0.02479 0.02192 0.61383 0.0
H3011 H 0.01318 0.02206 0.58091 0.0
H3012 H 0.76649 0.39431 0.46012 0.0
H3013 H 0.75751 0.3737 0.42974 0.0
H3014 H 0.81247 0.37771 0.42159 0.0
H3015 H 0.82163 0.39801 0.45212 0.0
H3016 H 0.76604 0.37646 0.39128 0.0
H3017 H 0.79189 0.3222 0.42318 0.0
H3018 H 0.78787 0.34252 0.43723 0.0
H3019 H 0.80759 0.34381 0.42573 0.0
C3020 C 0.77667 0.39103 0.45171 0.0
C3021 C 0.79478 0.39742 0.4586 0.0
C3022 C 0.77149 0.3793 0.4344 0.0
C3023 C 0.78437 0.37397 0.42378 0.0
C3024 C 0.80241 0.38143 0.42991 0.0
H3025 H 0.80169 0.3044 0.32985 0.0
H3026 H 0.80071 0.32326 0.36011 0.0
C3027 C 0.8076 0.39298 0.4473 0.0
C3028 C 0.77914 0.35953 0.40703 0.0
H3029 H 0.78479 0.31679 0.38966 0.0
C3030 C 0.76993 0.36331 0.39084 0.0
C3031 C 0.78399 0.34234 0.40687 0.0
C3032 C 0.79323 0.33735 0.42424 0.0
C3033 C 0.76665 0.3508 0.37384 0.0
C3034 C 0.77242 0.33397 0.37339 0.0
C3035 C 0.78054 0.32976 0.39003 0.0
C3036 C 0.77235 0.32165 0.3555 0.0
C3037 C 0.75803 0.35621 0.35637 0.0
C3038 C 0.75669 0.31423 0.34305 0.0
C3039 C 0.7574 0.30405 0.32546 0.0
C3040 C 0.77364 0.30062 0.32059 0.0
C3041 C 0.78907 0.30701 0.33346 0.0
C3042 C 0.78847 0.3177 0.35069 0.0
H3043 H 0.7579 0.37115 0.35833 0.0
H3044 H 0.76499 0.35296 0.34394 0.0
H3045 H 0.74406 0.34838 0.35319 0.0
H3046 H 0.74402 0.31653 0.34679 0.0
H3047 H 0.74532 0.29878 0.31572 0.0
H3048 H 0.40419 0.98096 0.23552 0.0
H3049 H 0.41898 0.98158 0.20696 0.0
H3050 H 0.41431 0.03786 0.20628 0.0
H3051 H 0.39935 0.0374 0.23472 0.0
H3052 H 0.40703 0.0125 0.16915 0.0
H3053 H 0.47088 0.01422 0.2124 0.0
H3054 H 0.45267 0.99627 0.21547 0.0
H3055 H 0.45194 0.02001 0.22271 0.0
C3056 C 0.40603 0.99336 0.22911 0.0
C3057 C 0.40076 0.00918 0.23739 0.0
C3058 C 0.41448 0.99369 0.21287 0.0
C3059 C 0.41784 0.00985 0.20484 0.0
C3060 C 0.41177 0.02532 0.21241 0.0
H3061 H 0.49911 0.01755 0.12912 0.0
H3062 H 0.47984 0.02865 0.15129 0.0
C3063 C 0.40323 0.02499 0.22861 0.0
C3064 C 0.42881 0.01092 0.18934 0.0
H3065 H 0.47019 0.00821 0.17902 0.0
C3066 C 0.42091 0.01181 0.17124 0.0
C3067 C 0.44696 0.01046 0.1924 0.0
C3068 C 0.45621 0.01036 0.21182 0.0
C3069 C 0.43055 0.01107 0.15572 0.0
C3070 C 0.44835 0.00928 0.1586 0.0
C3071 C 0.4565 0.00957 0.17692 0.0
C3072 C 0.45825 0.00472 0.14283 0.0
C3073 C 0.42155 0.01178 0.13639 0.0
C3074 C 0.4523 0.98775 0.13075 0.0
C3075 C 0.46329 0.9814 0.11834 0.0
C3076 C 0.48033 0.9919 0.11809 0.0
C3077 C 0.48604 0.0092 0.12952 0.0
C3078 C 0.47504 0.01559 0.14191 0.0
H3079 H 0.41038 0.01896 0.13742 0.0
H3080 H 0.43107 0.01889 0.12776 0.0
H3081 H 0.41607 0.99749 0.1289 0.0
H3082 H 0.43955 0.979 0.1316 0.0
H3083 H 0.45872 0.96811 0.10932 0.0
H3084 H 0.79955 0.7257 0.96798 0.0
H3085 H 0.79898 0.73863 0.93864 0.0
H3086 H 0.74787 0.703 0.9183 0.0
H3087 H 0.74835 0.6897 0.94767 0.0
H3088 H 0.7929 0.71083 0.90007 0.0
H3089 H 0.74728 0.7593 0.90825 0.0
H3090 H 0.75982 0.75403 0.92853 0.0
H3091 H 0.7415 0.73701 0.91556 0.0
C3092 C 0.78797 0.72083 0.95749 0.0
C3093 C 0.77403 0.70654 0.96021 0.0
C3094 C 0.78772 0.72823 0.94068 0.0
C3095 C 0.77346 0.72169 0.92628 0.0
C3096 C 0.75898 0.70826 0.92931 0.0
H3097 H 0.75375 0.75685 0.81731 0.0
H3098 H 0.75152 0.74407 0.84667 0.0
C3099 C 0.75923 0.70076 0.94617 0.0
C3100 C 0.77456 0.72783 0.90756 0.0
H3101 H 0.7602 0.75677 0.88 0.0
C3102 C 0.7857 0.72081 0.89555 0.0
C3103 C 0.76504 0.74067 0.90173 0.0
C3104 C 0.75273 0.74833 0.91412 0.0
C3105 C 0.78741 0.72608 0.87765 0.0
C3106 C 0.77835 0.73952 0.87192 0.0
C3107 C 0.76721 0.74653 0.88415 0.0
C3108 C 0.77983 0.74626 0.85329 0.0
C3109 C 0.79845 0.7166 0.86497 0.0
C3110 C 0.79639 0.75167 0.84677 0.0
C3111 C 0.79747 0.75784 0.82927 0.0
C3112 C 0.78213 0.75982 0.81849 0.0
C3113 C 0.76571 0.75516 0.82525 0.0
C3114 C 0.7645 0.74804 0.84218 0.0
H3115 H 0.79897 0.7027 0.86844 0.0
H3116 H 0.79315 0.71498 0.8498 0.0
H3117 H 0.81228 0.72483 0.86721 0.0
H3118 H 0.80858 0.75144 0.8553 0.0
H3119 H 0.81034 0.76182 0.82454 0.0
H3120 H 0.79786 0.06981 0.04706 0.0
H3121 H 0.82361 0.05576 0.04751 0.0
H3122 H 0.85803 0.10935 0.05126 0.0
H3123 H 0.83238 0.1235 0.05056 0.0
H3124 H 0.84053 0.06831 0.01329 0.0
H3125 H 0.88773 0.07487 0.07851 0.0
H3126 H 0.86403 0.07203 0.07888 0.0
H3127 H 0.87702 0.09375 0.07563 0.0
C3128 C 0.81097 0.07872 0.04895 0.0
C3129 C 0.81321 0.09763 0.04809 0.0
C3130 C 0.82565 0.07066 0.04935 0.0
C3131 C 0.84256 0.08157 0.0493 0.0
C3132 C 0.84501 0.1008 0.05144 0.0
H3133 H 0.93361 0.07808 0.99369 0.0
H3134 H 0.91093 0.08572 0.01326 0.0
C3135 C 0.83033 0.10883 0.05077 0.0
C3136 C 0.85596 0.07312 0.04077 0.0
H3137 H 0.89817 0.06699 0.04887 0.0
C3138 C 0.853 0.0676 0.02108 0.0
C3139 C 0.8722 0.07274 0.05107 0.0
C3140 C 0.87554 0.07857 0.07224 0.0
C3141 C 0.86623 0.06221 0.01122 0.0
C3142 C 0.88261 0.06206 0.02145 0.0
C3143 C 0.88547 0.06713 0.04122 0.0
C3144 C 0.89706 0.05733 0.01145 0.0
C3145 C 0.86294 0.05744 0.98989 0.0
C3146 C 0.89649 0.0389 0.00412 0.0
C3147 C 0.90928 0.03456 0.99299 0.0
C3148 C 0.92264 0.04865 0.98897 0.0
C3149 C 0.92324 0.06709 0.99646 0.0
C3150 C 0.91052 0.07141 0.00776 0.0
H3151 H 0.85023 0.06039 0.98399 0.0
H3152 H 0.87392 0.06535 0.9835 0.0
H3153 H 0.86254 0.04255 0.98559 0.0
H3154 H 0.88598 0.02797 0.00674 0.0
H3155 H 0.90861 0.02024 0.98729 0.0
H3156 H 0.325 0.42775 0.00381 0.0
H3157 H 0.35502 0.44524 0.002 0.0
H3158 H 0.37517 0.42315 0.04987 0.0
H3159 H 0.34559 0.40513 0.05118 0.0
H3160 H 0.37624 0.47175 0.02776 0.0
H3161 H 0.40991 0.41351 0.01434 0.0
H3162 H 0.38608 0.41012 0.0126 0.0
H3163 H 0.39917 0.41317 0.03534 0.0
C3164 C 0.33592 0.42645 0.01372 0.0
C3165 C 0.33303 0.41492 0.02746 0.0
C3166 C 0.35302 0.43645 0.01272 0.0
C3167 C 0.36741 0.43519 0.02555 0.0
C3168 C 0.36443 0.42386 0.03941 0.0
H3169 H 0.47968 0.48732 0.04759 0.0
H3170 H 0.44952 0.47037 0.04956 0.0
C3171 C 0.34747 0.41364 0.04019 0.0
C3172 C 0.38541 0.44633 0.02508 0.0
H3173 H 0.42861 0.44346 0.02328 0.0
C3174 C 0.38767 0.46556 0.02663 0.0
C3175 C 0.40034 0.43824 0.02375 0.0
C3176 C 0.39874 0.41761 0.02123 0.0
C3177 C 0.40451 0.47696 0.02723 0.0
C3178 C 0.41943 0.46886 0.02594 0.0
C3179 C 0.41717 0.44964 0.0244 0.0
C3180 C 0.43744 0.47994 0.0255 0.0
C3181 C 0.40617 0.49759 0.02964 0.0
C3182 C 0.44062 0.49084 0.0113 0.0
C3183 C 0.4577 0.50067 0.01033 0.0
C3184 C 0.472 0.49951 0.02333 0.0
C3185 C 0.46887 0.48849 0.03746 0.0
C3186 C 0.45168 0.47883 0.03858 0.0
H3187 H 0.39491 0.50177 0.03627 0.0
H3188 H 0.41876 0.50506 0.03845 0.0
H3189 H 0.40604 0.50199 0.01551 0.0
H3190 H 0.42995 0.49143 0.0007 0.0
H3191 H 0.45978 0.50875 -0.00097 0.0
H3192 H 0.36192 0.54347 0.77473 0.0
H3193 H 0.34655 0.56848 0.7718 0.0
H3194 H 0.38273 0.58979 0.73413 0.0
H3195 H 0.39829 0.56459 0.73692 0.0
H3196 H 0.37019 0.60623 0.78345 0.0
H3197 H 0.33023 0.59493 0.71251 0.0
H3198 H 0.33476 0.57582 0.72358 0.0
H3199 H 0.35221 0.59023 0.71443 0.0
C3200 C 0.36631 0.55313 0.76536 0.0
C3201 C 0.38142 0.55218 0.75621 0.0
C3202 C 0.35748 0.56738 0.76367 0.0
C3203 C 0.36353 0.58093 0.75278 0.0
C3204 C 0.37777 0.5793 0.74243 0.0
H3205 H 0.34378 0.69193 0.77099 0.0
H3206 H 0.35384 0.66462 0.75684 0.0
C3207 C 0.38662 0.56491 0.74403 0.0
C3208 C 0.35678 0.59807 0.75501 0.0
H3209 H 0.3289 0.62146 0.73399 0.0
C3210 C 0.36128 0.60965 0.77259 0.0
C3211 C 0.34526 0.60243 0.74075 0.0
C3212 C 0.3402 0.59025 0.72171 0.0
C3213 C 0.35419 0.62531 0.7765 0.0
C3214 C 0.34221 0.6294 0.7625 0.0
C3215 C 0.33804 0.61814 0.74468 0.0
C3216 C 0.33366 0.64514 0.76678 0.0
C3217 C 0.35921 0.63723 0.79575 0.0
C3218 C 0.31869 0.64303 0.77649 0.0
C3219 C 0.31291 0.65855 0.78447 0.0
C3220 C 0.3221 0.67629 0.78283 0.0
C3221 C 0.33641 0.67831 0.77215 0.0
C3222 C 0.34213 0.66279 0.76409 0.0
H3223 H 0.36964 0.63284 0.8046 0.0
H3224 H 0.36409 0.65185 0.79417 0.0
H3225 H 0.34732 0.63655 0.80332 0.0
H3226 H 0.3122 0.6295 0.77893 0.0
H3227 H 0.30204 0.65678 0.79295 0.0
H3228 H 0.21554 0.57419 0.55587 0.0
H3229 H 0.18305 0.56627 0.55322 0.0
H3230 H 0.17981 0.5982 0.50797 0.0
H3231 H 0.21202 0.60627 0.51045 0.0
H3232 H 0.15817 0.60468 0.53856 0.0
H3233 H 0.15101 0.53114 0.50634 0.0
H3234 H 0.16653 0.53938 0.52749 0.0
H3235 H 0.17083 0.5485 0.50617 0.0
C3236 C 0.20789 0.57951 0.54538 0.0
C3237 C 0.21625 0.59082 0.53337 0.0
C3238 C 0.18943 0.57498 0.5439 0.0
C3239 C 0.17932 0.58171 0.5304 0.0
C3240 C 0.18759 0.59302 0.51848 0.0
H3241 H 0.07054 0.5309 0.49556 0.0
H3242 H 0.09991 0.54924 0.49363 0.0
C3243 C 0.20594 0.59752 0.51991 0.0
C3244 C 0.15999 0.5768 0.52834 0.0
H3245 H 0.12507 0.54072 0.51372 0.0
C3246 C 0.1508 0.59075 0.53303 0.0
C3247 C 0.15074 0.5587 0.52082 0.0
C3248 C 0.16021 0.54353 0.51475 0.0
C3249 C 0.13227 0.58695 0.53061 0.0
C3250 C 0.12296 0.56867 0.52365 0.0
C3251 C 0.13227 0.5548 0.5188 0.0
C3252 C 0.10365 0.56292 0.52279 0.0
C3253 C 0.12296 0.60251 0.53547 0.0
C3254 C 0.09575 0.5654 0.53945 0.0
C3255 C 0.07864 0.5557 0.54013 0.0
C3256 C 0.06952 0.54323 0.52429 0.0
C3257 C 0.07702 0.54133 0.50744 0.0
C3258 C 0.09388 0.55153 0.50651 0.0
H3259 H 0.13117 0.61592 0.53349 0.0
H3260 H 0.10989 0.60017 0.52672 0.0
H3261 H 0.12084 0.60364 0.55061 0.0
H3262 H 0.10324 0.57359 0.55236 0.0
H3263 H 0.07302 0.55695 0.55338 0.0
H3264 H 0.69121 0.98526 0.71974 0.0
H3265 H 0.70503 0.95886 0.71431 0.0
H3266 H 0.74149 0.98029 0.76526 0.0
H3267 H 0.72769 0.00666 0.77104 0.0
H3268 H 0.75117 0.95342 0.72871 0.0
H3269 H 0.6909 0.93206 0.76421 0.0
H3270 H 0.68983 0.94472 0.7447 0.0
H3271 H 0.70195 0.95601 0.76712 0.0
C3272 C 0.70267 0.98481 0.72937 0.0
C3273 C 0.70796 0.99758 0.74625 0.0
C3274 C 0.71063 0.96979 0.7261 0.0
C3275 C 0.724 0.96768 0.73954 0.0
C3276 C 0.73113 0.98185 0.75477 0.0
H3277 H 0.76331 0.90563 0.80747 0.0
H3278 H 0.75603 0.92691 0.78647 0.0
C3279 C 0.7231 0.99678 0.75817 0.0
C3280 C 0.72679 0.94923 0.74116 0.0
H3281 H 0.71213 0.91396 0.76485 0.0
C3282 C 0.74242 0.94441 0.73605 0.0
C3283 C 0.71526 0.93774 0.75086 0.0
C3284 C 0.69852 0.94278 0.7571 0.0
C3285 C 0.74741 0.92878 0.74159 0.0
C3286 C 0.73653 0.91815 0.75249 0.0
C3287 C 0.72027 0.9222 0.7563 0.0
C3288 C 0.74313 0.90526 0.76334 0.0
C3289 C 0.76476 0.92434 0.73692 0.0
C3290 C 0.73814 0.88621 0.75709 0.0
C3291 C 0.74235 0.8741 0.76902 0.0
C3292 C 0.75111 0.88103 0.78738 0.0
C3293 C 0.75628 0.90011 0.79345 0.0
C3294 C 0.75237 0.91218 0.78144 0.0
H3295 H 0.7701 0.93184 0.72568 0.0
H3296 H 0.7746 0.92831 0.74984 0.0
H3297 H 0.76304 0.90927 0.7322 0.0
H3298 H 0.73071 0.88079 0.74325 0.0
H3299 H 0.73843 0.85936 0.76414 0.0
H3300 H 0.75337 0.94384 0.52883 0.0
H3301 H 0.72606 0.95508 0.52486 0.0
H3302 H 0.69521 0.90043 0.52497 0.0
H3303 H 0.72268 0.88887 0.52883 0.0
H3304 H 0.6959 0.93769 0.49281 0.0
H3305 H 0.67839 0.93943 0.56645 0.0
H3306 H 0.70098 0.94095 0.56135 0.0
H3307 H 0.68519 0.91941 0.55508 0.0
C3308 C 0.74081 0.93416 0.52808 0.0
C3309 C 0.74017 0.91546 0.52917 0.0
C3310 C 0.72524 0.94064 0.52582 0.0
C3311 C 0.70873 0.92861 0.52483 0.0
C3312 C 0.70792 0.90991 0.5259 0.0
H3313 H 0.60414 0.95397 0.50461 0.0
H3314 H 0.62824 0.93943 0.51541 0.0
C3315 C 0.72356 0.90334 0.52799 0.0
C3316 C 0.69245 0.93573 0.52186 0.0
H3317 H 0.66007 0.95064 0.5448 0.0
C3318 C 0.68796 0.94038 0.5041 0.0
C3319 C 0.68221 0.93917 0.53668 0.0
C3320 C 0.68685 0.93458 0.55604 0.0
C3321 C 0.67355 0.94866 0.50079 0.0
C3322 C 0.66365 0.95273 0.51578 0.0
C3323 C 0.66781 0.9476 0.53342 0.0
C3324 C 0.64919 0.96266 0.51321 0.0
C3325 C 0.66906 0.95307 0.48126 0.0
C3326 C 0.65307 0.98078 0.50937 0.0
C3327 C 0.63942 0.98901 0.50325 0.0
C3328 C 0.62174 0.97929 0.50116 0.0
C3329 C 0.61774 0.96173 0.50643 0.0
C3330 C 0.63144 0.95344 0.51249 0.0
H3331 H 0.67508 0.94514 0.47037 0.0
H3332 H 0.65447 0.95003 0.47719 0.0
H3333 H 0.67426 0.96798 0.48124 0.0
H3334 H 0.66671 0.98814 0.51002 0.0
H3335 H 0.64271 0.00249 0.49903 0.0
H3336 H 0.41059 0.45492 0.76128 0.0
H3337 H 0.39336 0.42287 0.75593 0.0
H3338 H 0.34478 0.44241 0.75009 0.0
H3339 H 0.36194 0.47443 0.75597 0.0
H3340 H 0.36161 0.4136 0.78209 0.0
H3341 H 0.34549 0.39609 0.70359 0.0
H3342 H 0.36563 0.41214 0.71474 0.0
H3343 H 0.34474 0.41883 0.71519 0.0
C3344 C 0.39626 0.45226 0.75836 0.0
C3345 C 0.38749 0.46694 0.75882 0.0
C3346 C 0.38647 0.43406 0.75539 0.0
C3347 C 0.36787 0.43039 0.75249 0.0
C3348 C 0.35915 0.44504 0.75216 0.0
H3349 H 0.2854 0.33807 0.76305 0.0
H3350 H 0.30261 0.36806 0.75947 0.0
C3351 C 0.36891 0.46323 0.75549 0.0
C3352 C 0.35746 0.41149 0.75176 0.0
H3353 H 0.33251 0.37402 0.72167 0.0
C3354 C 0.35531 0.40488 0.7689 0.0
C3355 C 0.34926 0.40033 0.73451 0.0
C3356 C 0.35135 0.40706 0.71587 0.0
C3357 C 0.34495 0.38733 0.76925 0.0
C3358 C 0.33664 0.37619 0.75201 0.0
C3359 C 0.33894 0.38269 0.73483 0.0
C3360 C 0.32549 0.35774 0.75181 0.0
C3361 C 0.34286 0.38073 0.78798 0.0
C3362 C 0.33256 0.342 0.74825 0.0
C3363 C 0.32261 0.32471 0.75001 0.0
C3364 C 0.30541 0.32288 0.75543 0.0
C3365 C 0.29829 0.33873 0.75844 0.0
C3366 C 0.3082 0.35598 0.75657 0.0
H3367 H 0.35125 0.39052 0.8 0.0
H3368 H 0.32878 0.37902 0.7906 0.0
H3369 H 0.34639 0.36705 0.7876 0.0
H3370 H 0.34596 0.34318 0.74468 0.0
H3371 H 0.3286 0.31286 0.74758 0.0
H3372 H 0.21492 0.57558 0.26818 0.0
H3373 H 0.23135 0.60643 0.26552 0.0
H3374 H 0.18846 0.61275 0.22594 0.0
H3375 H 0.17207 0.58155 0.22816 0.0
H3376 H 0.23804 0.62619 0.22801 0.0
H3377 H 0.19633 0.6511 0.28087 0.0
H3378 H 0.19981 0.62782 0.27825 0.0
H3379 H 0.18586 0.63447 0.26033 0.0
C3380 C 0.20915 0.58345 0.25867 0.0
C3381 C 0.19219 0.57646 0.24859 0.0
C3382 C 0.21858 0.60091 0.25705 0.0
C3383 C 0.21101 0.61169 0.2456 0.0
C3384 C 0.19447 0.60443 0.23473 0.0
H3385 H 0.23627 0.72967 0.25432 0.0
H3386 H 0.2221 0.6971 0.25019 0.0
C3387 C 0.18514 0.58675 0.23606 0.0
C3388 C 0.21936 0.6313 0.24732 0.0
H3389 H 0.21902 0.6731 0.27255 0.0
C3390 C 0.23387 0.63657 0.23756 0.0
C3391 C 0.21377 0.64456 0.25988 0.0
C3392 C 0.19813 0.63934 0.27055 0.0
C3393 C 0.24297 0.65505 0.23998 0.0
C3394 C 0.23771 0.66829 0.25303 0.0
C3395 C 0.2231 0.6629 0.26268 0.0
C3396 C 0.24655 0.688 0.2563 0.0
C3397 C 0.25782 0.66021 0.22825 0.0
C3398 C 0.26496 0.69374 0.26162 0.0
C3399 C 0.27316 0.71237 0.26349 0.0
C3400 C 0.26292 0.72543 0.26076 0.0
C3401 C 0.24443 0.71981 0.25657 0.0
C3402 C 0.23633 0.70121 0.25416 0.0
H3403 H 0.25666 0.64981 0.21533 0.0
H3404 H 0.25801 0.67389 0.2239 0.0
H3405 H 0.27071 0.66085 0.23675 0.0
H3406 H 0.27299 0.68383 0.26406 0.0
H3407 H 0.28745 0.71656 0.26695 0.0
H3408 H 0.50724 0.70114 0.43005 0.0
H3409 H 0.51102 0.6723 0.44042 0.0
H3410 H 0.50052 0.69281 0.49639 0.0
H3411 H 0.49511 0.721 0.48542 0.0
H3412 H 0.5311 0.6607 0.46203 0.0
H3413 H 0.46772 0.64602 0.49237 0.0
H3414 H 0.47314 0.66503 0.47962 0.0
H3415 H 0.48179 0.66721 0.50426 0.0
C3416 C 0.50581 0.69956 0.44462 0.0
C3417 C 0.50083 0.7135 0.45685 0.0
C3418 C 0.50794 0.68291 0.4506 0.0
C3419 C 0.50555 0.6797 0.46918 0.0
C3420 C 0.50162 0.69417 0.48174 0.0
H3421 H 0.53063 0.58775 0.52425 0.0
H3422 H 0.5288 0.61812 0.51622 0.0
C3423 C 0.49884 0.71058 0.47555 0.0
C3424 C 0.50727 0.66134 0.47513 0.0
H3425 H 0.48758 0.62652 0.49786 0.0
C3426 C 0.52145 0.65333 0.46979 0.0
C3427 C 0.49477 0.6512 0.48526 0.0
C3428 C 0.47842 0.65771 0.49053 0.0
C3429 C 0.52344 0.63596 0.47422 0.0
C3430 C 0.51117 0.62617 0.48456 0.0
C3431 C 0.4971 0.63405 0.49005 0.0
C3432 C 0.5125 0.60752 0.48935 0.0
C3433 C 0.53859 0.62795 0.46764 0.0
C3434 C 0.50392 0.59125 0.47702 0.0
C3435 C 0.50497 0.57376 0.48156 0.0
C3436 C 0.51467 0.57199 0.49859 0.0
C3437 C 0.52321 0.58838 0.51093 0.0
C3438 C 0.52212 0.60585 0.50638 0.0
H3439 H 0.54735 0.63737 0.46012 0.0
H3440 H 0.54663 0.62492 0.47997 0.0
H3441 H 0.53323 0.61469 0.45796 0.0
H3442 H 0.49641 0.59209 0.4638 0.0
H3443 H 0.49826 0.5616 0.47159 0.0
H3444 H 0.60742 0.27571 0.62939 0.0
H3445 H 0.63481 0.27036 0.64579 0.0
H3446 H 0.63537 0.31582 0.68988 0.0
H3447 H 0.60803 0.3209 0.67396 0.0
H3448 H 0.66829 0.29107 0.6565 0.0
H3449 H 0.63864 0.27586 0.72106 0.0
H3450 H 0.62537 0.27733 0.69955 0.0
H3451 H 0.63623 0.29796 0.71572 0.0
C3452 C 0.61345 0.28463 0.64252 0.0
C3453 C 0.60535 0.29864 0.6504 0.0
C3454 C 0.6291 0.28152 0.65194 0.0
C3455 C 0.63699 0.29233 0.66944 0.0
C3456 C 0.62932 0.30683 0.6768 0.0
H3457 H 0.72982 0.30595 0.7518 0.0
H3458 H 0.70243 0.30767 0.73269 0.0
C3459 C 0.61369 0.30984 0.66753 0.0
C3460 C 0.65325 0.28873 0.68006 0.0
H3461 H 0.67035 0.28236 0.72379 0.0
C3462 C 0.66867 0.28896 0.67114 0.0
C3463 C 0.65386 0.28583 0.6992 0.0
C3464 C 0.63758 0.28403 0.70937 0.0
C3465 C 0.68473 0.28722 0.681 0.0
C3466 C 0.68547 0.28499 0.70032 0.0
C3467 C 0.66994 0.28428 0.70908 0.0
C3468 C 0.70224 0.2838 0.71185 0.0
C3469 C 0.70096 0.28844 0.6708 0.0
C3470 C 0.71123 0.26965 0.70682 0.0
C3471 C 0.7269 0.26867 0.71779 0.0
C3472 C 0.7339 0.28175 0.73409 0.0
C3473 C 0.72475 0.29568 0.73933 0.0
C3474 C 0.70911 0.29669 0.72836 0.0
H3475 H 0.69935 0.29453 0.65767 0.0
H3476 H 0.71291 0.29685 0.68007 0.0
H3477 H 0.70328 0.27436 0.66675 0.0
H3478 H 0.70599 0.25917 0.69455 0.0
H3479 H 0.73324 0.25735 0.71382 0.0
H3480 H 0.96824 0.31295 0.95512 0.0
H3481 H 0.97399 0.34623 0.96508 0.0
H3482 H 0.03031 0.34874 0.96911 0.0
H3483 H 0.02445 0.31541 0.95762 0.0
H3484 H 0.98683 0.36829 0.99405 0.0
H3485 H 0.0314 0.39002 0.94178 0.0
H3486 H 0.02 0.36637 0.94041 0.0
H3487 H 0.04035 0.37555 0.95616 0.0
C3488 C 0.9819 0.32054 0.9581 0.0
C3489 C 0.99586 0.31132 0.95553 0.0
C3490 C 0.98521 0.33975 0.96383 0.0
C3491 C 0.00264 0.35053 0.96759 0.0
C3492 C 0.01668 0.34121 0.96565 0.0
H3493 H 0.04379 0.46823 0.01447 0.0
H3494 H 0.03983 0.43496 0.00403 0.0
C3495 C 0.01334 0.32197 0.95932 0.0
C3496 C 0.00578 0.37123 0.97395 0.0
H3497 H 0.029 0.41338 0.96678 0.0
C3498 C 0.99599 0.37803 0.98787 0.0
C3499 C 0.0177 0.38439 0.96612 0.0
C3500 C 0.02781 0.37873 0.95016 0.0
C3501 C 0.99779 0.39712 0.99412 0.0
C3502 C 0.00985 0.41014 0.98648 0.0
C3503 C 0.0198 0.40349 0.97276 0.0
C3504 C 0.01226 0.43065 0.99255 0.0
C3505 C 0.98686 0.40323 0.0091 0.0
C3506 C 0.99822 0.43964 0.98934 0.0
C3507 C 1.0005 0.45878 0.99517 0.0
C3508 C 0.01682 0.46953 0.00461 0.0
C3509 C 0.03094 0.46052 0.00751 0.0
C3510 C 0.02871 0.44141 0.00148 0.0
H3511 H 0.98136 0.3918 0.01664 0.0
H3512 H 0.99488 0.41487 0.01964 0.0
H3513 H 0.97557 0.40805 0.00229 0.0
H3514 H 0.98549 0.43188 0.9821 0.0
H3515 H 0.98949 0.46517 0.99202 0.0
H3516 H 0.9908 0.79581 0.12171 0.0
H3517 H 0.96471 0.79439 0.13856 0.0
H3518 H 0.98613 0.76201 0.1763 0.0
H3519 H 0.01258 0.76397 0.15991 0.0
H3520 H 0.93935 0.76776 0.14434 0.0
H3521 H 0.97553 0.80102 0.21443 0.0
H3522 H 0.98616 0.80039 0.19315 0.0
H3523 H 0.98317 0.78085 0.20549 0.0
C3524 C 0.98993 0.78826 0.13352 0.0
C3525 C 0.00388 0.78006 0.13948 0.0
C3526 C 0.97499 0.78754 0.14323 0.0
C3527 C 0.97355 0.77854 0.15912 0.0
C3528 C 0.98711 0.76961 0.16455 0.0
H3529 H 0.89283 0.74358 0.22878 0.0
H3530 H 0.92056 0.75262 0.21521 0.0
C3531 C 0.00216 0.77052 0.15498 0.0
C3532 C 0.95773 0.77815 0.1697 0.0
H3533 H 0.94522 0.78565 0.2141 0.0
C3534 C 0.94067 0.77187 0.15957 0.0
C3535 C 0.9593 0.78372 0.18959 0.0
C3536 C 0.97702 0.79207 0.20127 0.0
C3537 C 0.92529 0.77019 0.16878 0.0
C3538 C 0.92691 0.77506 0.18875 0.0
C3539 C 0.94393 0.78179 0.19884 0.0
C3540 C 0.91116 0.7721 0.19941 0.0
C3541 C 0.90747 0.76256 0.15706 0.0
C3542 C 0.89692 0.78073 0.19591 0.0
C3543 C 0.8811 0.77565 0.2038 0.0
C3544 C 0.87932 0.76204 0.21554 0.0
C3545 C 0.89398 0.75435 0.22007 0.0
C3546 C 0.90978 0.75943 0.21219 0.0
H3547 H 0.90875 0.7558 0.14264 0.0
H3548 H 0.89899 0.75239 0.16405 0.0
H3549 H 0.90061 0.77402 0.15549 0.0
H3550 H 0.89774 0.79081 0.18641 0.0
H3551 H 0.8699 0.78154 0.19983 0.0
H3552 H 0.48485 0.30057 0.14409 0.0
H3553 H 0.49033 0.32692 0.12748 0.0
H3554 H 0.54366 0.31999 0.12271 0.0
H3555 H 0.53832 0.29337 0.13987 0.0
H3556 H 0.51944 0.3607 0.13806 0.0
H3557 H 0.51808 0.32045 0.06664 0.0
H3558 H 0.50795 0.31036 0.08547 0.0
H3559 H 0.53161 0.31507 0.08601 0.0
C3560 C 0.49778 0.3045 0.13946 0.0
C3561 C 0.5111 0.29462 0.14311 0.0
C3562 C 0.50088 0.31968 0.13002 0.0
C3563 C 0.5173 0.32533 0.12364 0.0
C3564 C 0.5308 0.31573 0.12737 0.0
H3565 H 0.55996 0.41224 0.06265 0.0
H3566 H 0.5524 0.3839 0.07631 0.0
C3567 C 0.52779 0.30058 0.13721 0.0
C3568 C 0.52003 0.34134 0.1132 0.0
H3569 H 0.52402 0.35289 0.06914 0.0
C3570 C 0.5205 0.35902 0.123 0.0
C3571 C 0.52102 0.33908 0.09349 0.0
C3572 C 0.51953 0.32023 0.08213 0.0
C3573 C 0.52252 0.37458 0.11376 0.0
C3574 C 0.52378 0.37239 0.09406 0.0
C3575 C 0.52306 0.35462 0.08422 0.0
C3576 C 0.52708 0.38851 0.08374 0.0
C3577 C 0.52374 0.39331 0.1253 0.0
C3578 C 0.51503 0.40022 0.08258 0.0
C3579 C 0.51927 0.41637 0.07453 0.0
C3580 C 0.53566 0.4211 0.06758 0.0
C3581 C 0.54725 0.4089 0.0679 0.0
C3582 C 0.54295 0.39273 0.07574 0.0
H3583 H 0.52643 0.39317 0.14074 0.0
H3584 H 0.53437 0.4038 0.12121 0.0
H3585 H 0.51096 0.3976 0.12262 0.0
H3586 H 0.50256 0.39712 0.08835 0.0
H3587 H 0.51017 0.4256 0.07458 0.0
H3588 H 0.98289 0.28793 0.2886 0.0
H3589 H 0.95136 0.28703 0.27868 0.0
H3590 H 0.943 0.29844 0.33716 0.0
H3591 H 0.97423 0.29958 0.34699 0.0
H3592 H 0.92066 0.26333 0.2874 0.0
H3593 H 0.92009 0.33611 0.31404 0.0
H3594 H 0.94038 0.32832 0.31108 0.0
H3595 H 0.92939 0.32471 0.33163 0.0
C3596 C 0.9744 0.29058 0.29932 0.0
C3597 C 0.98124 0.29376 0.31865 0.0
C3598 C 0.95627 0.28991 0.29364 0.0
C3599 C 0.94458 0.29277 0.30711 0.0
C3600 C 0.95157 0.29637 0.32637 0.0
H3601 H 0.83026 0.27513 0.3097 0.0
H3602 H 0.86251 0.27874 0.31582 0.0
C3603 C 0.96954 0.29684 0.33202 0.0
C3604 C 0.92506 0.2915 0.3013 0.0
H3605 H 0.89179 0.31535 0.30593 0.0
C3606 C 0.91444 0.27481 0.29129 0.0
C3607 C 0.91667 0.30637 0.3063 0.0
C3608 C 0.92722 0.32495 0.3162 0.0
C3609 C 0.89586 0.27249 0.28673 0.0
C3610 C 0.88749 0.28722 0.29213 0.0
C3611 C 0.89809 0.30399 0.30181 0.0
C3612 C 0.86771 0.28524 0.28824 0.0
C3613 C 0.88509 0.25416 0.2765 0.0
C3614 C 0.85967 0.28779 0.27068 0.0
C3615 C 0.84112 0.2858 0.26712 0.0
C3616 C 0.83004 0.28115 0.281 0.0
C3617 C 0.8382 0.27867 0.29858 0.0
C3618 C 0.85673 0.28076 0.30215 0.0
H3619 H 0.89338 0.24384 0.27364 0.0
H3620 H 0.87467 0.24866 0.28508 0.0
H3621 H 0.87829 0.25604 0.26284 0.0
H3622 H 0.86777 0.29125 0.25967 0.0
H3623 H 0.83545 0.28768 0.25337 0.0
H3624 H 0.02228 0.69629 0.66609 0.0
H3625 H 0.02724 0.66803 0.64735 0.0
H3626 H 0.99267 0.67582 0.60007 0.0
H3627 H 0.98761 0.7038 0.6185 0.0
H3628 H 0.98708 0.63717 0.61434 0.0
H3629 H 0.05377 0.66591 0.59521 0.0
H3630 H 0.04838 0.67312 0.6186 0.0
H3631 H 0.0375 0.67988 0.59847 0.0
C3632 C 0.01582 0.69206 0.65167 0.0
C3633 C 0.00444 0.70241 0.64395 0.0
C3634 C 0.01866 0.67586 0.64096 0.0
C3635 C 0.01033 0.66973 0.62223 0.0
C3636 C 0.99918 0.68014 0.61447 0.0
H3637 H 0.0341 0.58961 0.53305 0.0
H3638 H 0.02926 0.61672 0.55299 0.0
C3639 C 0.99629 0.6962 0.62512 0.0
C3640 C 0.0128 0.65231 0.61072 0.0
H3641 H 0.04141 0.63468 0.58375 0.0
C3642 C 0.99899 0.63653 0.6077 0.0
C3643 C 0.02812 0.65159 0.60167 0.0
C3644 C 0.04286 0.66847 0.60349 0.0
C3645 C 0.99998 0.62013 0.59586 0.0
C3646 C 0.0156 0.6191 0.58713 0.0
C3647 C 0.02943 0.63506 0.59029 0.0
C3648 C 0.01783 0.60199 0.57439 0.0
C3649 C 0.9838 0.6045 0.59236 0.0
C3650 C 0.01307 0.58423 0.57926 0.0
C3651 C 0.01475 0.56844 0.56708 0.0
C3652 C 0.02241 0.56983 0.55013 0.0
C3653 C 0.02783 0.58766 0.54563 0.0
C3654 C 0.0253 0.60338 0.55734 0.0
H3655 H 0.9715 0.60966 0.59428 0.0
H3656 H 0.9822 0.59657 0.57785 0.0
H3657 H 0.98502 0.59509 0.60282 0.0
H3658 H 0.00809 0.58242 0.59258 0.0
H3659 H 0.01014 0.55512 0.57119 0.0
H3660 H 0.59698 0.7883 0.84501 0.0
H3661 H 0.62754 0.78675 0.83911 0.0
H3662 H 0.61768 0.80213 0.78421 0.0
H3663 H 0.58726 0.80336 0.7898 0.0
H3664 H 0.63712 0.76326 0.80236 0.0
H3665 H 0.6663 0.83851 0.81305 0.0
H3666 H 0.64723 0.8291 0.82409 0.0
H3667 H 0.64484 0.8302 0.79924 0.0
C3668 C 0.60136 0.79159 0.83178 0.0
C3669 C 0.58946 0.79606 0.81797 0.0
C3670 C 0.61888 0.79059 0.82835 0.0
C3671 C 0.62514 0.79439 0.81119 0.0
C3672 C 0.61339 0.79921 0.7976 0.0
H3673 H 0.72927 0.8079 0.76783 0.0
H3674 H 0.69932 0.80956 0.77529 0.0
C3675 C 0.59588 0.79992 0.80087 0.0
C3676 C 0.64365 0.79287 0.80707 0.0
H3677 H 0.68436 0.81862 0.80212 0.0
C3678 C 0.64751 0.77537 0.80243 0.0
C3679 C 0.6572 0.80856 0.80663 0.0
C3680 C 0.65386 0.82772 0.81109 0.0
C3681 C 0.66419 0.77311 0.79705 0.0
C3682 C 0.6781 0.78886 0.79718 0.0
C3683 C 0.67412 0.80639 0.80195 0.0
C3684 C 0.69665 0.78761 0.7923 0.0
C3685 C 0.66618 0.75371 0.79038 0.0
C3686 C 0.70581 0.77494 0.79929 0.0
C3687 C 0.72267 0.77345 0.79427 0.0
C3688 C 0.73159 0.78531 0.78296 0.0
C3689 C 0.72291 0.79856 0.77661 0.0
C3690 C 0.70567 0.79953 0.78098 0.0
H3691 H 0.65316 0.74449 0.78446 0.0
H3692 H 0.67523 0.75329 0.77933 0.0
H3693 H 0.67146 0.74798 0.80261 0.0
H3694 H 0.70004 0.76615 0.80882 0.0
H3695 H 0.72887 0.76315 0.79958 0.0
H3696 H 0.43584 0.4989 0.69444 0.0
H3697 H 0.44587 0.49638 0.66298 0.0
H3698 H 0.47298 0.55366 0.67518 0.0
H3699 H 0.46346 0.55616 0.70663 0.0
H3700 H 0.4401 0.51462 0.63336 0.0
H3701 H 0.51192 0.52893 0.65853 0.0
H3702 H 0.49518 0.52368 0.67395 0.0
H3703 H 0.50165 0.54672 0.66872 0.0
C3704 C 0.44394 0.51095 0.69039 0.0
C3705 C 0.44893 0.52771 0.70305 0.0
C3706 C 0.44966 0.50948 0.67244 0.0
C3707 C 0.46043 0.52476 0.66688 0.0
C3708 C 0.46506 0.54158 0.67935 0.0
H3709 H 0.48149 0.54324 0.55309 0.0
H3710 H 0.46938 0.54278 0.58354 0.0
C3711 C 0.4595 0.54301 0.69729 0.0
C3712 C 0.46668 0.52335 0.64798 0.0
H3713 H 0.50406 0.53148 0.62619 0.0
C3714 C 0.45408 0.51817 0.63175 0.0
C3715 C 0.48494 0.52765 0.64592 0.0
C3716 C 0.4992 0.53185 0.6627 0.0
C3717 C 0.45927 0.51774 0.61351 0.0
C3718 C 0.47747 0.52308 0.61152 0.0
C3719 C 0.49006 0.52776 0.62775 0.0
C3720 C 0.48396 0.52308 0.59278 0.0
C3721 C 0.44528 0.51124 0.59654 0.0
C3722 C 0.49632 0.51246 0.58807 0.0
C3723 C 0.50343 0.51302 0.57106 0.0
C3724 C 0.49826 0.52414 0.55826 0.0
C3725 C 0.48563 0.53455 0.56272 0.0
C3726 C 0.47865 0.53417 0.58 0.0
H3727 H 0.43276 0.50328 0.60033 0.0
H3728 H 0.44225 0.52338 0.59073 0.0
H3729 H 0.45002 0.50245 0.58523 0.0
H3730 H 0.50055 0.50375 0.59765 0.0
H3731 H 0.51294 0.50459 0.56789 0.0
H3732 H 0.79968 0.19088 0.00923 0.0
H3733 H 0.79407 0.20836 0.98373 0.0
H3734 H 0.75093 0.16352 0.95714 0.0
H3735 H 0.75581 0.14658 0.9827 0.0
H3736 H 0.79908 0.19634 0.94905 0.0
H3737 H 0.73018 0.20548 0.9466 0.0
H3738 H 0.74125 0.199 0.96706 0.0
H3739 H 0.73035 0.18173 0.94714 0.0
C3740 C 0.78869 0.18505 0.9982 0.0
C3741 C 0.7784 0.16727 0.99775 0.0
C3742 C 0.78548 0.19503 0.98371 0.0
C3743 C 0.77206 0.18726 0.96861 0.0
C3744 C 0.76106 0.17003 0.96887 0.0
H3745 H 0.73962 0.18941 0.85462 0.0
H3746 H 0.7523 0.18028 0.88341 0.0
C3747 C 0.76402 0.16024 0.98345 0.0
C3748 C 0.77132 0.19538 0.95112 0.0
H3749 H 0.74213 0.20323 0.91642 0.0
C3750 C 0.78673 0.19829 0.94207 0.0
C3751 C 0.75517 0.19779 0.94206 0.0
C3752 C 0.73839 0.196 0.95138 0.0
C3753 C 0.78615 0.20257 0.9237 0.0
C3754 C 0.76978 0.20382 0.91433 0.0
C3755 C 0.75459 0.20178 0.92365 0.0
C3756 C 0.76772 0.20766 0.89491 0.0
C3757 C 0.80277 0.20503 0.91414 0.0
C3758 C 0.77307 0.22579 0.89161 0.0
C3759 C 0.7658 0.23102 0.87529 0.0
C3760 C 0.75303 0.21815 0.86229 0.0
C3761 C 0.74918 0.19959 0.86469 0.0
C3762 C 0.75653 0.19435 0.88095 0.0
H3763 H 0.81402 0.2016 0.92265 0.0
H3764 H 0.80024 0.19618 0.90001 0.0
H3765 H 0.80667 0.21958 0.91192 0.0
H3766 H 0.78152 0.23623 0.90241 0.0
H3767 H 0.76898 0.24544 0.87369 0.0
H3768 H 0.1621 0.55235 0.17851 0.0
H3769 H 0.13732 0.56296 0.16347 0.0
H3770 H 0.10052 0.51951 0.18168 0.0
H3771 H 0.12535 0.5094 0.19743 0.0
H3772 H 0.12174 0.53358 0.13558 0.0
H3773 H 0.07032 0.55841 0.17449 0.0
H3774 H 0.09304 0.56136 0.18503 0.0
H3775 H 0.07788 0.53944 0.18288 0.0
C3776 C 0.14868 0.54586 0.1803 0.0
C3777 C 0.14546 0.53 0.1888 0.0
C3778 C 0.13454 0.55195 0.1718 0.0
C3779 C 0.11713 0.54186 0.17125 0.0
C3780 C 0.11383 0.52762 0.18211 0.0
H3781 H 0.04853 0.50049 0.06797 0.0
H3782 H 0.06551 0.50473 0.09937 0.0
C3783 C 0.12803 0.52177 0.19102 0.0
C3784 C 0.1041 0.54189 0.15494 0.0
H3785 H 0.06168 0.54544 0.14159 0.0
C3786 C 0.10873 0.53653 0.13692 0.0
C3787 C 0.0871 0.54547 0.15676 0.0
C3788 C 0.08177 0.55165 0.17582 0.0
C3789 C 0.09676 0.53437 0.12063 0.0
C3790 C 0.07949 0.5372 0.12244 0.0
C3791 C 0.07491 0.54307 0.14038 0.0
C3792 C 0.06625 0.534 0.10561 0.0
C3793 C 0.10273 0.52894 0.10162 0.0
C3794 C 0.06031 0.54888 0.09932 0.0
C3795 C 0.05034 0.54638 0.08159 0.0
C3796 C 0.04654 0.52907 0.06998 0.0
C3797 C 0.05167 0.51401 0.07668 0.0
C3798 C 0.06124 0.5164 0.09455 0.0
H3799 H 0.11742 0.53207 0.10235 0.0
H3800 H 0.09792 0.51385 0.09697 0.0
H3801 H 0.09727 0.53616 0.09071 0.0
H3802 H 0.06414 0.56255 0.10769 0.0
H3803 H 0.04643 0.55813 0.07654 0.0
H3804 H 0.76853 0.86401 0.47176 0.0
H3805 H 0.76392 0.85124 0.4379 0.0
H3806 H 0.79942 0.81516 0.44798 0.0
H3807 H 0.8041 0.82775 0.48171 0.0
H3808 H 0.79146 0.85242 0.41395 0.0
H3809 H 0.75633 0.78041 0.41447 0.0
H3810 H 0.75764 0.79881 0.43401 0.0
H3811 H 0.77617 0.78809 0.43105 0.0
C3812 C 0.77509 0.85309 0.46685 0.0
C3813 C 0.78668 0.84691 0.47956 0.0
C3814 C 0.7725 0.84587 0.44744 0.0
C3815 C 0.78121 0.83212 0.44036 0.0
C3816 C 0.79233 0.82554 0.45309 0.0
H3817 H 0.79387 0.77319 0.33139 0.0
H3818 H 0.79404 0.78503 0.36485 0.0
C3819 C 0.79504 0.83283 0.47242 0.0
C3820 C 0.77972 0.82549 0.41959 0.0
H3821 H 0.76803 0.78667 0.38602 0.0
C3822 C 0.78618 0.83808 0.40779 0.0
C3823 C 0.77293 0.80677 0.41156 0.0
C3824 C 0.76522 0.79273 0.42337 0.0
C3825 C 0.78663 0.83237 0.38835 0.0
C3826 C 0.77998 0.81356 0.38029 0.0
C3827 C 0.77322 0.80105 0.39209 0.0
C3828 C 0.78009 0.80654 0.35977 0.0
C3829 C 0.79491 0.84648 0.37687 0.0
C3830 C 0.77213 0.81449 0.34557 0.0
C3831 C 0.77259 0.80812 0.3264 0.0
C3832 C 0.78053 0.79324 0.32081 0.0
C3833 C 0.78802 0.78492 0.33503 0.0
C3834 C 0.78792 0.79157 0.35426 0.0
H3835 H 0.80402 0.85849 0.38602 0.0
H3836 H 0.80245 0.84038 0.36622 0.0
H3837 H 0.78429 0.85173 0.36934 0.0
H3838 H 0.76547 0.82563 0.34928 0.0
H3839 H 0.76664 0.8149 0.31595 0.0
H3840 H 0.47796 0.52098 0.80109 0.0
H3841 H 0.49114 0.52025 0.83339 0.0
H3842 H 0.43883 0.50635 0.85026 0.0
H3843 H 0.42563 0.50721 0.81816 0.0
H3844 H 0.47697 0.54361 0.86985 0.0
H3845 H 0.47414 0.46823 0.86596 0.0
H3846 H 0.47677 0.47959 0.84546 0.0
H3847 H 0.4558 0.4758 0.85448 0.0
C3848 C 0.46932 0.51749 0.81165 0.0
C3849 C 0.45081 0.51429 0.80726 0.0
C3850 C 0.47683 0.51718 0.83003 0.0
C3851 C 0.46589 0.51331 0.84407 0.0
C3852 C 0.44742 0.50943 0.83955 0.0
H3853 H 0.47713 0.51759 0.96449 0.0
H3854 H 0.46707 0.51598 0.93083 0.0
C3855 C 0.43992 0.51001 0.82127 0.0
C3856 C 0.47369 0.5141 0.86374 0.0
H3857 H 0.48365 0.487 0.89586 0.0
C3858 C 0.47859 0.53129 0.87555 0.0
C3859 C 0.47561 0.49795 0.87099 0.0
C3860 C 0.47038 0.47927 0.85864 0.0
C3861 C 0.48518 0.53269 0.89467 0.0
C3862 C 0.48699 0.51651 0.90195 0.0
C3863 C 0.4823 0.49935 0.89008 0.0
C3864 C 0.49314 0.51714 0.92208 0.0
C3865 C 0.49 0.55133 0.90713 0.0
C3866 C 0.51107 0.51803 0.92808 0.0
C3867 C 0.51684 0.51879 0.94725 0.0
C3868 C 0.50474 0.51889 0.96061 0.0
C3869 C 0.48676 0.51782 0.95449 0.0
C3870 C 0.48099 0.51684 0.93533 0.0
H3871 H 0.4882 0.56267 0.89918 0.0
H3872 H 0.48161 0.55141 0.91883 0.0
H3873 H 0.50403 0.55404 0.91363 0.0
H3874 H 0.52058 0.51828 0.91794 0.0
H3875 H 0.53077 0.51967 0.95167 0.0
H3876 H 0.75685 0.16209 0.06837 0.0
H3877 H 0.75017 0.17994 0.09717 0.0
H3878 H 0.79333 0.16521 0.12977 0.0
H3879 H 0.80052 0.1482 0.10098 0.0
H3880 H 0.74398 0.17263 0.13534 0.0
H3881 H 0.80714 0.22195 0.1328 0.0
H3882 H 0.79643 0.2045 0.11296 0.0
H3883 H 0.80972 0.19862 0.13213 0.0
C3884 C 0.76466 0.16251 0.0818 0.0
C3885 C 0.77938 0.15426 0.08269 0.0
C3886 C 0.76081 0.17256 0.09814 0.0
C3887 C 0.77152 0.17406 0.11534 0.0
C3888 C 0.7852 0.16441 0.11644 0.0
H3889 H 0.79337 0.22812 0.22811 0.0
H3890 H 0.7901 0.20856 0.19723 0.0
C3891 C 0.78932 0.1548 0.10011 0.0
C3892 C 0.77 0.18734 0.13174 0.0
H3893 H 0.79458 0.22475 0.16186 0.0
C3894 C 0.75487 0.18419 0.14108 0.0
C3895 C 0.78417 0.20256 0.1388 0.0
C3896 C 0.8002 0.20725 0.12855 0.0
C3897 C 0.7541 0.19532 0.1582 0.0
C3898 C 0.76882 0.20972 0.16582 0.0
C3899 C 0.78349 0.21343 0.15596 0.0
C3900 C 0.76979 0.2207 0.18448 0.0
C3901 C 0.73798 0.19129 0.16843 0.0
C3902 C 0.75954 0.23397 0.18716 0.0
C3903 C 0.76142 0.24518 0.20465 0.0
C3904 C 0.77364 0.24323 0.2196 0.0
C3905 C 0.78388 0.22988 0.21681 0.0
C3906 C 0.78199 0.21871 0.19929 0.0
H3907 H 0.72861 0.17825 0.16171 0.0
H3908 H 0.74203 0.19037 0.18344 0.0
H3909 H 0.7309 0.20277 0.16834 0.0
H3910 H 0.75028 0.2358 0.17567 0.0
H3911 H 0.75324 0.25528 0.20646 0.0
H3912 H 0.14499 0.55859 0.28262 0.0
H3913 H 0.13343 0.56245 0.3132 0.0
H3914 H 0.09149 0.51437 0.29345 0.0
H3915 H 0.1029 0.51066 0.26268 0.0
H3916 H 0.09358 0.56186 0.32057 0.0
H3917 H 0.1257 0.50712 0.34393 0.0
H3918 H 0.13404 0.52066 0.32645 0.0
H3919 H 0.11414 0.50307 0.32023 0.0
C3920 C 0.13281 0.54941 0.28455 0.0
C3921 C 0.12448 0.53464 0.27027 0.0
C3922 C 0.12643 0.55142 0.30206 0.0
C3923 C 0.11185 0.53849 0.30554 0.0
C3924 C 0.10285 0.52437 0.29093 0.0
H3925 H 0.04828 0.53786 0.39569 0.0
H3926 H 0.0618 0.52838 0.36747 0.0
C3927 C 0.10912 0.52249 0.27331 0.0
C3928 C 0.10635 0.53952 0.32463 0.0
H3929 H 0.10815 0.52022 0.36499 0.0
C3930 C 0.09674 0.55279 0.33029 0.0
C3931 C 0.11085 0.5278 0.33727 0.0
C3932 C 0.12183 0.51387 0.33183 0.0
C3933 C 0.09108 0.5544 0.34823 0.0
C3934 C 0.09504 0.54232 0.36068 0.0
C3935 C 0.10503 0.52929 0.35524 0.0
C3936 C 0.08834 0.54322 0.37918 0.0
C3937 C 0.08077 0.56896 0.3538 0.0
C3938 C 0.09905 0.55392 0.39529 0.0
C3939 C 0.09135 0.5593 0.41139 0.0
C3940 C 0.07293 0.5541 0.41131 0.0
C3941 C 0.0625 0.54215 0.3958 0.0
C3942 C 0.0702 0.53662 0.37984 0.0
H3943 H 0.08108 0.57892 0.34368 0.0
H3944 H 0.06672 0.56219 0.3542 0.0
H3945 H 0.08617 0.57668 0.36817 0.0
H3946 H 0.11306 0.55919 0.39491 0.0
H3947 H 0.09955 0.56843 0.42337 0.0
H3948 H 0.80347 0.86805 0.59545 0.0
H3949 H 0.79737 0.85572 0.62452 0.0
H3950 H 0.75478 0.8132 0.59288 0.0
H3951 H 0.76068 0.82591 0.56353 0.0
H3952 H 0.76165 0.84842 0.64015 0.0
H3953 H 0.79229 0.78788 0.62309 0.0
H3954 H 0.79783 0.80829 0.61224 0.0
H3955 H 0.77666 0.79282 0.60534 0.0
C3956 C 0.79272 0.85613 0.59472 0.0
C3957 C 0.78253 0.84788 0.57734 0.0
C3958 C 0.78924 0.84914 0.61131 0.0
C3959 C 0.77569 0.83353 0.61085 0.0
C3960 C 0.76532 0.82527 0.5935 0.0
H3961 H 0.74581 0.79097 0.71444 0.0
H3962 H 0.74424 0.79917 0.68245 0.0
C3963 C 0.76863 0.83251 0.57682 0.0
C3964 C 0.77295 0.82597 0.62865 0.0
H3965 H 0.78327 0.79291 0.65342 0.0
C3966 C 0.76605 0.8361 0.64296 0.0
C3967 C 0.77903 0.81009 0.63235 0.0
C3968 C 0.78696 0.79907 0.61755 0.0
C3969 C 0.76532 0.83089 0.66099 0.0
C3970 C 0.77167 0.8152 0.6648 0.0
C3971 C 0.77831 0.80489 0.6504 0.0
C3972 C 0.77247 0.80999 0.68402 0.0
C3973 C 0.75842 0.84258 0.67616 0.0
C3974 C 0.78885 0.81333 0.69544 0.0
C3975 C 0.78975 0.80881 0.71371 0.0
C3976 C 0.7743 0.80072 0.72085 0.0
C3977 C 0.75792 0.79726 0.70933 0.0
C3978 C 0.757 0.80192 0.69109 0.0
H3979 H 0.75558 0.85534 0.6715 0.0
H3980 H 0.74602 0.83448 0.67998 0.0
H3981 H 0.76823 0.84649 0.68912 0.0
H3982 H 0.80095 0.81948 0.69022 0.0
H3983 H 0.80262 0.81116 0.72204 0.0
H3984 H 0.72966 0.42506 0.48412 0.0
H3985 H 0.70141 0.4325 0.47343 0.0
H3986 H 0.72001 0.488 0.50384 0.0
H3987 H 0.74816 0.48088 0.51414 0.0
H3988 H 0.68101 0.4411 0.49923 0.0
H3989 H 0.69225 0.49806 0.45809 0.0
H3990 H 0.70775 0.48315 0.46046 0.0
H3991 H 0.70889 0.50302 0.47824 0.0
C3992 C 0.72779 0.43895 0.48818 0.0
C3993 C 0.74092 0.45235 0.50018 0.0
C3994 C 0.71179 0.44321 0.48186 0.0
C3995 C 0.70881 0.46089 0.48747 0.0
C3996 C 0.72226 0.47446 0.49876 0.0
H3997 H 0.65266 0.51996 0.54442 0.0
H3998 H 0.67143 0.50617 0.52374 0.0
C3999 C 0.73823 0.47027 0.50496 0.0
C4000 C 0.69078 0.46424 0.48547 0.0
H4001 H 0.67046 0.49998 0.48142 0.0
C4002 C 0.67825 0.4535 0.49453 0.0
C4003 C 0.68728 0.48038 0.47928 0.0
C4004 C 0.69975 0.49165 0.46829 0.0
C4005 C 0.66348 0.45989 0.49999 0.0
C4006 C 0.66116 0.47717 0.4958 0.0
C4007 C 0.67247 0.48679 0.4847 0.0
C4008 C 0.64948 0.48693 0.50605 0.0
C4009 C 0.65166 0.44919 0.51207 0.0
C4010 C 0.63106 0.48065 0.50271 0.0
C4011 C 0.62039 0.48827 0.51466 0.0
C4012 C 0.62808 0.5023 0.53 0.0
C4013 C 0.6465 0.50896 0.53288 0.0
C4014 C 0.65715 0.50132 0.52095 0.0
H4015 H 0.65613 0.43657 0.5151 0.0
H4016 H 0.65138 0.458 0.52575 0.0
H4017 H 0.6379 0.44498 0.5047 0.0
H4018 H 0.62504 0.46947 0.49128 0.0
H4019 H 0.60618 0.48285 0.51223 0.0
H4020 H 0.21685 0.10046 0.50552 0.0
H4021 H 0.1859 0.08688 0.50765 0.0
H4022 H 0.17062 0.13615 0.49386 0.0
H4023 H 0.20183 0.1501 0.49187 0.0
H4024 H 0.16163 0.10663 0.53263 0.0
H4025 H 0.13977 0.08714 0.45501 0.0
H4026 H 0.16262 0.08954 0.46476 0.0
H4027 H 0.15353 0.10965 0.46418 0.0
C4028 C 0.20696 0.10847 0.5029 0.0
C4029 C 0.2118 0.12637 0.49847 0.0
C4030 C 0.18929 0.10067 0.50417 0.0
C4031 C 0.17605 0.1105 0.50083 0.0
C4032 C 0.18072 0.12837 0.49641 0.0
H4033 H 0.06165 0.07033 0.4935 0.0
H4034 H 0.09124 0.08791 0.49103 0.0
C4035 C 0.19851 0.13631 0.49533 0.0
C4036 C 0.15742 0.10187 0.50218 0.0
H4037 H 0.11891 0.07795 0.47545 0.0
C4038 C 0.1522 0.10047 0.52017 0.0
C4039 C 0.14525 0.09393 0.48587 0.0
C4040 C 0.15045 0.095 0.46629 0.0
C4041 C 0.13506 0.0912 0.5223 0.0
C4042 C 0.12303 0.08263 0.50596 0.0
C4043 C 0.12817 0.08441 0.48795 0.0
C4044 C 0.10511 0.07167 0.50725 0.0
C4045 C 0.12997 0.09086 0.54203 0.0
C4046 C 0.10306 0.05644 0.51688 0.0
C4047 C 0.08615 0.04645 0.51849 0.0
C4048 C 0.07094 0.05129 0.51021 0.0
C4049 C 0.07306 0.06624 0.50011 0.0
C4050 C 0.08998 0.07631 0.49865 0.0
H4051 H 0.13839 0.10247 0.55234 0.0
H4052 H 0.11585 0.09162 0.54245 0.0
H4053 H 0.13187 0.07781 0.5467 0.0
H4054 H 0.11457 0.05232 0.52323 0.0
H4055 H 0.08502 0.0351 0.52646 0.0
H4056 H 0.18702 0.00225 0.81055 0.0
H4057 H 0.19941 0.9749 0.80539 0.0
H4058 H 0.17053 0.95971 0.74931 0.0
H4059 H 0.1576 0.98709 0.75436 0.0
H4060 H 0.17311 0.93473 0.79087 0.0
H4061 H 0.22846 0.95998 0.7503 0.0
H4062 H 0.22027 0.97559 0.767 0.0
H4063 H 0.20705 0.96535 0.74487 0.0
C4064 C 0.18341 0.99331 0.79696 0.0
C4065 C 0.1712 0.99686 0.78287 0.0
C4066 C 0.19048 0.97764 0.79413 0.0
C4067 C 0.1857 0.96533 0.7771 0.0
C4068 C 0.17423 0.96913 0.76259 0.0
H4069 H 0.20309 0.85848 0.73886 0.0
H4070 H 0.18919 0.8837 0.75059 0.0
C4071 C 0.16699 0.98482 0.76545 0.0
C4072 C 0.19247 0.94829 0.77489 0.0
H4073 H 0.2251 0.92962 0.7568 0.0
C4074 C 0.18444 0.9335 0.78338 0.0
C4075 C 0.20736 0.94703 0.76537 0.0
C4076 C 0.21642 0.96279 0.75635 0.0
C4077 C 0.19088 0.91723 0.78234 0.0
C4078 C 0.2057 0.91592 0.77265 0.0
C4079 C 0.21382 0.93082 0.76436 0.0
C4080 C 0.21237 0.8988 0.76964 0.0
C4081 C 0.18197 0.90162 0.79164 0.0
C4082 C 0.22975 0.89868 0.77707 0.0
C4083 C 0.23763 0.8842 0.77051 0.0
C4084 C 0.22826 0.86991 0.75627 0.0
C4085 C 0.21044 0.86934 0.74998 0.0
C4086 C 0.20252 0.88369 0.75666 0.0
H4087 H 0.17286 0.90605 0.80149 0.0
H4088 H 0.17416 0.89035 0.78057 0.0
H4089 H 0.19204 0.89593 0.79957 0.0
H4090 H 0.23755 0.91035 0.787 0.0
H4091 H 0.25146 0.88498 0.77534 0.0
H4092 H 0.34458 0.9492 0.03221 0.0
H4093 H 0.37474 0.95874 0.02464 0.0
H4094 H 0.35477 0.9798 0.97595 0.0
H4095 H 0.32437 0.97023 0.98335 0.0
H4096 H 0.38714 0.949 0.98424 0.0
H4097 H 0.39229 0.0226 0.01591 0.0
H4098 H 0.37741 0.004 0.02352 0.0
H4099 H 0.3725 0.01013 0.00068 0.0
C4100 C 0.34663 0.95583 0.01987 0.0
C4101 C 0.33235 0.95909 0.00834 0.0
C4102 C 0.36372 0.9611 0.01554 0.0
C4103 C 0.36658 0.96964 -0.00031 0.0
C4104 C 0.35246 0.97303 0.98815 0.0
H4105 H 0.46982 0.02987 0.98773 0.0
H4106 H 0.43849 0.01576 0.98016 0.0
C4107 C 0.33529 0.9678 0.99251 0.0
C4108 C 0.38464 0.97621 0.99623 0.0
H4109 H 0.41802 0.01419 0.00685 0.0
C4110 C 0.39395 0.96331 0.98872 0.0
C4111 C 0.39312 0.99479 0.00244 0.0
C4112 C 0.38342 0.00877 0.01116 0.0
C4113 C 0.41206 0.96862 0.98755 0.0
C4114 C 0.4207 0.98714 0.99437 0.0
C4115 C 0.41116 1.00006 0.00139 0.0
C4116 C 0.43985 0.99339 0.99599 0.0
C4117 C 0.42175 0.95435 0.97947 0.0
C4118 C 0.45079 0.98537 0.00736 0.0
C4119 C 0.46878 0.99311 0.0112 0.0
C4120 C 0.47583 0.00921 0.00416 0.0
C4121 C 0.46479 0.01734 0.99305 0.0
C4122 C 0.44693 0.00927 0.98868 0.0
H4123 H 0.41266 0.94314 0.96928 0.0
H4124 H 0.43294 0.96059 0.97223 0.0
H4125 H 0.42714 0.94798 0.99115 0.0
H4126 H 0.44536 0.97355 0.01375 0.0
H4127 H 0.4771 0.98669 0.01993 0.0
H4128 H 0.83502 0.54265 0.76736 0.0
H4129 H 0.82372 0.56948 0.7607 0.0
H4130 H 0.82305 0.5865 0.82043 0.0
H4131 H 0.83443 0.55973 0.82732 0.0
H4132 H 0.79546 0.58816 0.77161 0.0
H4133 H 0.86442 0.62419 0.80249 0.0
H4134 H 0.85798 0.59947 0.79561 0.0
H4135 H 0.85147 0.61028 0.81689 0.0
C4136 C 0.83174 0.55166 0.77902 0.0
C4137 C 0.83607 0.5495 0.79787 0.0
C4138 C 0.82534 0.56696 0.77519 0.0
C4139 C 0.82315 0.58003 0.79018 0.0
C4140 C 0.825 0.57654 0.8088 0.0
H4141 H 0.79321 0.67981 0.76804 0.0
H4142 H 0.80096 0.65663 0.78575 0.0
C4143 C 0.83134 0.56118 0.81266 0.0
C4144 C 0.82177 0.59835 0.78639 0.0
H4145 H 0.84645 0.64194 0.78874 0.0
C4146 C 0.80642 0.60004 0.7756 0.0
C4147 C 0.83646 0.6135 0.7913 0.0
C4148 C 0.8536 0.61187 0.8021 0.0
C4149 C 0.80537 0.61661 0.76931 0.0
C4150 C 0.81997 0.63179 0.77429 0.0
C4151 C 0.83529 0.63021 0.78526 0.0
C4152 C 0.81956 0.64904 0.76719 0.0
C4153 C 0.78891 0.6176 0.75682 0.0
C4154 C 0.82838 0.653 0.75163 0.0
C4155 C 0.8242 0.66647 0.74153 0.0
C4156 C 0.81108 0.67592 0.7469 0.0
C4157 C 0.80347 0.67291 0.76355 0.0
C4158 C 0.80782 0.65965 0.77371 0.0
H4159 H 0.78022 0.60375 0.75168 0.0
H4160 H 0.7812 0.62619 0.76497 0.0
H4161 H 0.79253 0.62416 0.74437 0.0
H4162 H 0.83754 0.64483 0.74654 0.0
H4163 H 0.83056 0.66884 0.72904 0.0
H4164 H 0.79015 0.60816 0.00475 0.0
H4165 H 0.81594 0.59379 0.00643 0.0
H4166 H 0.85094 0.64735 0.01291 0.0
H4167 H 0.82533 0.66179 0.01103 0.0
H4168 H 0.85022 0.60538 0.98053 0.0
H4169 H 0.86066 0.61359 0.05937 0.0
H4170 H 0.83882 0.61034 0.04645 0.0
H4171 H 0.85436 0.63189 0.04826 0.0
C4172 C 0.80335 0.61688 0.00678 0.0
C4173 C 0.80573 0.63612 0.00785 0.0
C4174 C 0.81801 0.60864 0.00752 0.0
C4175 C 0.83523 0.61955 0.00959 0.0
C4176 C 0.83769 0.63875 0.01109 0.0
H4177 H 0.93857 0.60078 0.03935 0.0
H4178 H 0.91424 0.61432 0.02774 0.0
C4179 C 0.82305 0.64697 0.01012 0.0
C4180 C 0.85077 0.61101 0.01081 0.0
H4181 H 0.88156 0.60152 0.0428 0.0
C4182 C 0.85709 0.60441 0.99409 0.0
C4183 C 0.8596 0.60991 0.02853 0.0
C4184 C 0.85309 0.61673 0.04677 0.0
C4185 C 0.8723 0.59685 0.99474 0.0
C4186 C 0.8812 0.59588 0.01253 0.0
C4187 C 0.87473 0.60239 0.02918 0.0
C4188 C 0.89729 0.58818 0.0146 0.0
C4189 C 0.87902 0.59035 0.97655 0.0
C4190 C 0.89609 0.56908 0.01028 0.0
C4191 C 0.91006 0.56134 0.01683 0.0
C4192 C 0.92526 0.57266 0.02781 0.0
C4193 C 0.927 0.59186 0.03076 0.0
C4194 C 0.91312 0.59957 0.02418 0.0
H4195 H 0.87228 0.59468 0.96414 0.0
H4196 H 0.89354 0.5958 0.97748 0.0
H4197 H 0.87663 0.57506 0.97419 0.0
H4198 H 0.88387 0.56005 0.00315 0.0
H4199 H 0.90839 0.54647 0.01467 0.0
H4200 H 0.19222 0.0745 0.78593 0.0
H4201 H 0.20949 0.10369 0.77923 0.0
H4202 H 0.16402 0.12823 0.78408 0.0
H4203 H 0.14656 0.09883 0.79028 0.0
H4204 H 0.19488 0.12937 0.74841 0.0
H4205 H 0.21295 0.15693 0.82545 0.0
H4206 H 0.20818 0.13245 0.81672 0.0
H4207 H 0.19054 0.14464 0.81666 0.0
C4208 C 0.18592 0.08611 0.78536 0.0
C4209 C 0.16816 0.08458 0.78858 0.0
C4210 C 0.19573 0.10268 0.78149 0.0
C4211 C 0.18797 0.11801 0.78116 0.0
C4212 C 0.17014 0.11645 0.78415 0.0
H4213 H 0.23562 0.23336 0.78798 0.0
H4214 H 0.21683 0.20355 0.78932 0.0
C4215 C 0.16022 0.09975 0.78768 0.0
C4216 C 0.19889 0.13593 0.77881 0.0
H4217 H 0.22428 0.17591 0.80411 0.0
C4218 C 0.20132 0.13963 0.76052 0.0
C4219 C 0.20713 0.14918 0.79467 0.0
C4220 C 0.2047 0.14574 0.81455 0.0
C4221 C 0.21173 0.15646 0.75768 0.0
C4222 C 0.22032 0.16964 0.77361 0.0
C4223 C 0.21779 0.16582 0.79189 0.0
C4224 C 0.23154 0.18775 0.77182 0.0
C4225 C 0.21298 0.16011 0.73766 0.0
C4226 C 0.24618 0.1889 0.76154 0.0
C4227 C 0.25683 0.20609 0.76041 0.0
C4228 C 0.25328 0.2224 0.76993 0.0
C4229 C 0.23877 0.22112 0.78043 0.0
C4230 C 0.22799 0.20404 0.78125 0.0
H4231 H 0.20168 0.15138 0.72765 0.0
H4232 H 0.21327 0.17481 0.73667 0.0
H4233 H 0.22537 0.15674 0.73304 0.0
H4234 H 0.24952 0.17652 0.75457 0.0
H4235 H 0.26789 0.20657 0.75221 0.0
H4236 H 0.35415 0.97211 0.26424 0.0
H4237 H 0.34178 0.93948 0.25146 0.0
H4238 H 0.34511 0.92637 0.30811 0.0
H4239 H 0.35698 0.95887 0.32101 0.0
H4240 H 0.35489 0.90647 0.25598 0.0
H4241 H 0.29226 0.9088 0.28687 0.0
H4242 H 0.30805 0.92943 0.28462 0.0
H4243 H 0.3117 0.91706 0.30387 0.0
C4244 C 0.35221 0.96223 0.27393 0.0
C4245 C 0.3561 0.96797 0.29362 0.0
C4246 C 0.34527 0.94368 0.26662 0.0
C4247 C 0.34233 0.93077 0.27893 0.0
C4248 C 0.34699 0.93633 0.29849 0.0
H4249 H 0.31929 0.82182 0.28891 0.0
H4250 H 0.33456 0.85166 0.28191 0.0
C4251 C 0.35366 0.95485 0.30582 0.0
C4252 C 0.3335 0.91154 0.27165 0.0
H4253 H 0.29795 0.87888 0.27738 0.0
C4254 C 0.34228 0.90041 0.2603 0.0
C4255 C 0.31693 0.90393 0.27711 0.0
C4256 C 0.30659 0.91547 0.28864 0.0
C4257 C 0.33538 0.88137 0.2554 0.0
C4258 C 0.31948 0.87366 0.26206 0.0
C4259 C 0.31017 0.885 0.2723 0.0
C4260 C 0.31327 0.85376 0.26111 0.0
C4261 C 0.34526 0.86949 0.24374 0.0
C4262 C 0.29651 0.8451 0.25139 0.0
C4263 C 0.28781 0.82826 0.25552 0.0
C4264 C 0.29586 0.82005 0.26932 0.0
C4265 C 0.31306 0.82805 0.27812 0.0
C4266 C 0.32181 0.84486 0.27395 0.0
H4267 H 0.35534 0.87786 0.23661 0.0
H4268 H 0.3521 0.86177 0.25309 0.0
H4269 H 0.33585 0.85923 0.23287 0.0
H4270 H 0.28966 0.85203 0.24175 0.0
H4271 H 0.27444 0.8222 0.24877 0.0
H4272 H 0.56237 0.35164 0.59655 0.0
H4273 H 0.56068 0.38054 0.58466 0.0
H4274 H 0.52987 0.34939 0.53314 0.0
H4275 H 0.53079 0.32067 0.54537 0.0
H4276 H 0.56945 0.39786 0.55623 0.0
H4277 H 0.49613 0.38019 0.54826 0.0
H4278 H 0.50936 0.36649 0.55941 0.0
H4279 H 0.50485 0.36343 0.53395 0.0
C4280 C 0.55563 0.35093 0.58248 0.0
C4281 C 0.54677 0.33372 0.57193 0.0
C4282 C 0.5545 0.36754 0.57572 0.0
C4283 C 0.54455 0.36741 0.55819 0.0
C4284 C 0.53699 0.35014 0.54702 0.0
H4285 H 0.51638 0.45349 0.49608 0.0
H4286 H 0.52121 0.42446 0.50559 0.0
C4287 C 0.53782 0.33361 0.5539 0.0
C4288 C 0.5416 0.38514 0.55186 0.0
H4289 H 0.50925 0.40645 0.53541 0.0
C4290 C 0.55625 0.39968 0.55176 0.0
C4291 C 0.52439 0.3879 0.54607 0.0
C4292 C 0.50779 0.37376 0.54711 0.0
C4293 C 0.55424 0.41644 0.54574 0.0
C4294 C 0.53707 0.41902 0.53971 0.0
C4295 C 0.52244 0.40454 0.5398 0.0
C4296 C 0.53396 0.43679 0.53382 0.0
C4297 C 0.57063 0.43116 0.54559 0.0
C4298 C 0.53911 0.45352 0.5465 0.0
C4299 C 0.5361 0.47009 0.54118 0.0
C4300 C 0.52779 0.47055 0.52296 0.0
C4301 C 0.52258 0.45378 0.51026 0.0
C4302 C 0.52545 0.43711 0.51568 0.0
H4303 H 0.58272 0.42534 0.54536 0.0
H4304 H 0.56936 0.43832 0.53315 0.0
H4305 H 0.57249 0.44156 0.55861 0.0
H4306 H 0.54533 0.45376 0.5607 0.0
H4307 H 0.5403 0.4826 0.55148 0.0
H4308 H 0.45759 0.79248 0.39187 0.0
H4309 H 0.42962 0.79395 0.37373 0.0
H4310 H 0.41139 0.73519 0.37081 0.0
H4311 H 0.43866 0.73412 0.39031 0.0
H4312 H 0.41629 0.7811 0.34011 0.0
H4313 H 0.36728 0.74809 0.38299 0.0
H4314 H 0.39065 0.7544 0.39141 0.0
H4315 H 0.38145 0.73315 0.37534 0.0
C4316 C 0.44733 0.78001 0.38783 0.0
C4317 C 0.45011 0.76329 0.39293 0.0
C4318 C 0.43137 0.78079 0.37728 0.0
C4319 C 0.41794 0.76476 0.37107 0.0
C4320 C 0.42094 0.74797 0.376 0.0
H4321 H 0.31637 0.74211 0.29684 0.0
H4322 H 0.34359 0.73984 0.31611 0.0
C4323 C 0.43665 0.74732 0.38712 0.0
C4324 C 0.4014 0.76554 0.35865 0.0
H4325 H 0.35601 0.75214 0.35232 0.0
C4326 C 0.40313 0.77488 0.34297 0.0
C4327 C 0.38404 0.75731 0.362 0.0
C4328 C 0.38073 0.74784 0.37895 0.0
C4329 C 0.38827 0.77612 0.33067 0.0
C4330 C 0.37095 0.76794 0.33409 0.0
C4331 C 0.3692 0.75841 0.34958 0.0
C4332 C 0.35449 0.7693 0.32201 0.0
C4333 C 0.3914 0.78587 0.31387 0.0
C4334 C 0.35128 0.78656 0.31894 0.0
C4335 C 0.33592 0.7878 0.30762 0.0
C4336 C 0.32312 0.77186 0.29956 0.0
C4337 C 0.32601 0.75462 0.30297 0.0
C4338 C 0.34158 0.75334 0.31398 0.0
H4339 H 0.40494 0.78612 0.30989 0.0
H4340 H 0.38158 0.7792 0.30137 0.0
H4341 H 0.39018 0.8004 0.31759 0.0
H4342 H 0.36058 0.79916 0.32544 0.0
H4343 H 0.33389 0.80127 0.30545 0.0
H4344 H 0.01613 0.73172 0.05276 0.0
H4345 H 0.01745 0.69958 0.04202 0.0
H4346 H 0.06012 0.70377 0.08643 0.0
H4347 H 0.05891 0.73591 0.09728 0.0
H4348 H 0.04488 0.68258 0.02971 0.0
H4349 H 0.02331 0.65897 0.09538 0.0
H4350 H 0.02119 0.6811 0.08937 0.0
H4351 H 0.04232 0.67784 0.09915 0.0
C4352 C 0.02593 0.72592 0.06019 0.0
C4353 C 0.03738 0.73661 0.076 0.0
C4354 C 0.02666 0.70744 0.054 0.0
C4355 C 0.03867 0.69897 0.06355 0.0
C4356 C 0.05049 0.70975 0.07896 0.0
H4357 H 0.05753 0.58569 0.04678 0.0
H4358 H 0.06059 0.61911 0.05614 0.0
C4359 C 0.04988 0.72828 0.08507 0.0
C4360 C 0.03856 0.67885 0.05764 0.0
H4361 H 0.0316 0.63694 0.07308 0.0
C4362 C 0.04197 0.67264 0.03923 0.0
C4363 C 0.03471 0.66568 0.06994 0.0
C4364 C 0.03001 0.67112 0.08951 0.0
C4365 C 0.04182 0.65386 0.03294 0.0
C4366 C 0.03797 0.64076 0.04524 0.0
C4367 C 0.03467 0.64694 0.06366 0.0
C4368 C 0.0366 0.6205 0.03897 0.0
C4369 C 0.04595 0.64809 0.0132 0.0
C4370 C 0.02211 0.61001 0.02619 0.0
C4371 C 0.02025 0.59088 0.02093 0.0
C4372 C 0.03294 0.58167 0.02815 0.0
C4373 C 0.0476 0.59226 0.04074 0.0
C4374 C 0.04933 0.6114 0.0462 0.0
H4375 H 0.05149 0.66014 0.00651 0.0
H4376 H 0.05556 0.63893 0.01348 0.0
H4377 H 0.0336 0.64017 0.00427 0.0
H4378 H 0.01202 0.61659 0.02049 0.0
H4379 H 0.00879 0.58327 0.0112 0.0
H4380 H 0.03984 0.23371 0.86445 0.0
H4381 H 0.06794 0.23912 0.85136 0.0
H4382 H 0.08818 0.2865 0.89479 0.0
H4383 H 0.05999 0.28096 0.90828 0.0
H4384 H 0.08311 0.26879 0.83662 0.0
H4385 H 0.12866 0.25957 0.89715 0.0
H4386 H 0.10484 0.25257 0.89577 0.0
H4387 H 0.1157 0.27643 0.90298 0.0
C4388 C 0.05028 0.24522 0.87139 0.0
C4389 C 0.04761 0.25687 0.8875 0.0
C4390 C 0.06639 0.2483 0.86384 0.0
C4391 C 0.08033 0.26308 0.87217 0.0
C4392 C 0.07779 0.27475 0.88832 0.0
H4393 H 0.18055 0.30977 0.83402 0.0
H4394 H 0.15559 0.30237 0.85238 0.0
C4395 C 0.06162 0.27164 0.89596 0.0
C4396 C 0.09708 0.2666 0.86328 0.0
H4397 H 0.14203 0.27054 0.87126 0.0
C4398 C 0.09597 0.26909 0.84421 0.0
C4399 C 0.11391 0.267 0.87313 0.0
C4400 C 0.11591 0.26358 0.89333 0.0
C4401 C 0.11114 0.27214 0.83481 0.0
C4402 C 0.12794 0.27252 0.84463 0.0
C4403 C 0.12913 0.27018 0.86373 0.0
C4404 C 0.14436 0.27575 0.83524 0.0
C4405 C 0.10911 0.27528 0.81449 0.0
C4406 C 0.14672 0.26294 0.81996 0.0
C4407 C 0.16108 0.26706 0.80963 0.0
C4408 C 0.17329 0.28405 0.81443 0.0
C4409 C 0.1714 0.29649 0.83023 0.0
C4410 C 0.15713 0.2923 0.84066 0.0
H4411 H 0.09605 0.27846 0.81027 0.0
H4412 H 0.11977 0.28679 0.81218 0.0
H4413 H 0.11021 0.26262 0.80506 0.0
H4414 H 0.1371 0.25003 0.8156 0.0
H4415 H 0.16214 0.2574 0.79733 0.0
H4416 H 0.50458 0.73078 0.87312 0.0
H4417 H 0.50846 0.70594 0.89057 0.0
H4418 H 0.56126 0.73592 0.91374 0.0
H4419 H 0.55752 0.7611 0.89578 0.0
H4420 H 0.53908 0.68519 0.89034 0.0
H4421 H 0.53002 0.72331 0.95979 0.0
H4422 H 0.52138 0.72912 0.93772 0.0
H4423 H 0.54483 0.73463 0.94498 0.0
C4424 C 0.51712 0.73211 0.88182 0.0
C4425 C 0.53073 0.74796 0.88314 0.0
C4426 C 0.5193 0.71784 0.89176 0.0
C4427 C 0.53507 0.71909 0.90355 0.0
C4428 C 0.54894 0.73472 0.90473 0.0
H4429 H 0.53473 0.64071 0.9848 0.0
H4430 H 0.54672 0.66555 0.96736 0.0
C4431 C 0.54685 0.74902 0.89442 0.0
C4432 C 0.53633 0.70402 0.91478 0.0
H4433 H 0.52928 0.69165 0.95793 0.0
C4434 C 0.53734 0.68668 0.90524 0.0
C4435 C 0.53396 0.70593 0.93417 0.0
C4436 C 0.53243 0.72419 0.94491 0.0
C4437 C 0.53546 0.67108 0.91439 0.0
C4438 C 0.53205 0.67273 0.93352 0.0
C4439 C 0.53192 0.6903 0.94331 0.0
C4440 C 0.52666 0.65627 0.94298 0.0
C4441 C 0.53684 0.65292 0.90331 0.0
C4442 C 0.51164 0.64255 0.93501 0.0
C4443 C 0.50492 0.62838 0.94486 0.0
C4444 C 0.51297 0.62758 0.96301 0.0
C4445 C 0.52848 0.64077 0.97069 0.0
C4446 C 0.53521 0.65506 0.9608 0.0
H4447 H 0.54561 0.65507 0.89208 0.0
H4448 H 0.54204 0.64406 0.91263 0.0
H4449 H 0.52348 0.6455 0.89624 0.0
H4450 H 0.50447 0.64333 0.92157 0.0
H4451 H 0.49278 0.61858 0.93874 0.0
H4452 H 0.06978 0.73106 0.73225 0.0
H4453 H 0.1017 0.73488 0.74075 0.0
H4454 H 0.11148 0.78004 0.7093 0.0
H4455 H 0.07931 0.77624 0.7006 0.0
H4456 H 0.12855 0.73242 0.71722 0.0
H4457 H 0.14155 0.80187 0.76118 0.0
H4458 H 0.11952 0.78749 0.75505 0.0
H4459 H 0.12983 0.7999 0.73791 0.0
C4460 C 0.07862 0.74187 0.72709 0.0
C4461 C 0.07171 0.75333 0.71567 0.0
C4462 C 0.09701 0.74403 0.732 0.0
C4463 C 0.10924 0.75788 0.72592 0.0
C4464 C 0.10246 0.7694 0.71449 0.0
H4465 H 0.22586 0.78284 0.73542 0.0
H4466 H 0.19414 0.78102 0.7271 0.0
C4467 C 0.08398 0.76713 0.7094 0.0
C4468 C 0.12895 0.75983 0.73125 0.0
H4469 H 0.16655 0.7892 0.75564 0.0
C4470 C 0.13679 0.74486 0.72565 0.0
C4471 C 0.13993 0.77598 0.74234 0.0
C4472 C 0.13234 0.79221 0.74966 0.0
C4473 C 0.15508 0.74569 0.73056 0.0
C4474 C 0.16602 0.76181 0.7416 0.0
C4475 C 0.15826 0.77681 0.74718 0.0
C4476 C 0.18554 0.76329 0.74725 0.0
C4477 C 0.16276 0.72938 0.72368 0.0
C4478 C 0.19155 0.75419 0.76164 0.0
C4479 C 0.20984 0.75546 0.76671 0.0
C4480 C 0.22268 0.76552 0.75726 0.0
C4481 C 0.21654 0.77474 0.74296 0.0
C4482 C 0.1983 0.77376 0.73815 0.0
H4483 H 0.15308 0.7187 0.71349 0.0
H4484 H 0.17473 0.73398 0.71675 0.0
H4485 H 0.16694 0.72304 0.73595 0.0
H4486 H 0.18206 0.74611 0.76903 0.0
H4487 H 0.21383 0.74849 0.77799 0.0
H4488 H 0.02909 0.32934 0.41255 0.0
H4489 H 0.03321 0.35989 0.43174 0.0
H4490 H 0.04211 0.38526 0.38221 0.0
H4491 H 0.03832 0.35452 0.36291 0.0
H4492 H 0.06275 0.39436 0.43639 0.0
H4493 H 0.9965 0.40059 0.4041 0.0
H4494 H 0.00285 0.37863 0.40336 0.0
H4495 H 0.01185 0.3944 0.38833 0.0
C4496 C 0.03243 0.34145 0.40584 0.0
C4497 C 0.03356 0.33952 0.38625 0.0
C4498 C 0.03472 0.35891 0.41682 0.0
C4499 C 0.03782 0.37489 0.40843 0.0
C4500 C 0.03969 0.37312 0.38899 0.0
H4501 H 0.05267 0.48982 0.46549 0.0
H4502 H 0.05485 0.46189 0.44432 0.0
C4503 C 0.03771 0.35557 0.37801 0.0
C4504 C 0.03779 0.39312 0.41987 0.0
H4505 H 0.01202 0.42487 0.42784 0.0
C4506 C 0.05178 0.40116 0.43436 0.0
C4507 C 0.0233 0.40182 0.41748 0.0
C4508 C 0.00766 0.39346 0.40258 0.0
C4509 C 0.05167 0.41767 0.44642 0.0
C4510 C 0.03717 0.42632 0.44403 0.0
C4511 C 0.02319 0.4183 0.42956 0.0
C4512 C 0.036 0.44333 0.45692 0.0
C4513 C 0.06678 0.42558 0.46202 0.0
C4514 C 0.02455 0.44223 0.47092 0.0
C4515 C 0.02328 0.45814 0.48305 0.0
C4516 C 0.03346 0.47558 0.48151 0.0
C4517 C 0.04477 0.47664 0.46726 0.0
C4518 C 0.04606 0.46069 0.45515 0.0
H4519 H 0.07657 0.41664 0.46279 0.0
H4520 H 0.07371 0.43938 0.45962 0.0
H4521 H 0.06156 0.42745 0.47586 0.0
H4522 H 0.01656 0.42902 0.47246 0.0
H4523 H 0.01403 0.45677 0.49341 0.0
H4524 H 0.46463 0.27756 0.2015 0.0
H4525 H 0.43701 0.28133 0.2134 0.0
H4526 H 0.43129 0.22821 0.23167 0.0
H4527 H 0.46005 0.22526 0.22114 0.0
H4528 H 0.40577 0.26731 0.20467 0.0
H4529 H 0.41786 0.25237 0.27741 0.0
H4530 H 0.43513 0.25469 0.26226 0.0
H4531 H 0.41906 0.23319 0.2601 0.0
C4532 C 0.45761 0.26672 0.20827 0.0
C4533 C 0.46474 0.25114 0.21041 0.0
C4534 C 0.44162 0.26886 0.21507 0.0
C4535 C 0.43172 0.25527 0.2239 0.0
C4536 C 0.43868 0.2394 0.2257 0.0
H4537 H 0.32038 0.24446 0.24694 0.0
H4538 H 0.3489 0.23911 0.23784 0.0
C4539 C 0.45513 0.23755 0.21944 0.0
C4540 C 0.41404 0.25775 0.23036 0.0
H4541 H 0.3884 0.25438 0.26688 0.0
C4542 C 0.40222 0.26456 0.21839 0.0
C4543 C 0.4089 0.25436 0.24831 0.0
C4544 C 0.42098 0.24844 0.26282 0.0
C4545 C 0.38588 0.26792 0.22367 0.0
C4546 C 0.38068 0.26408 0.2413 0.0
C4547 C 0.39225 0.25721 0.25329 0.0
C4548 C 0.36329 0.26724 0.24742 0.0
C4549 C 0.3742 0.27569 0.2104 0.0
C4550 C 0.36165 0.28475 0.25609 0.0
C4551 C 0.34526 0.28773 0.26142 0.0
C4552 C 0.32991 0.27343 0.25798 0.0
C4553 C 0.33171 0.25589 0.24947 0.0
C4554 C 0.34812 0.2528 0.24437 0.0
H4555 H 0.37959 0.27711 0.19676 0.0
H4556 H 0.3607 0.26667 0.20746 0.0
H4557 H 0.37289 0.28949 0.21724 0.0
H4558 H 0.37305 0.2962 0.25862 0.0
H4559 H 0.34459 0.30136 0.26776 0.0
H4560 H 0.57812 0.53976 0.31405 0.0
H4561 H 0.56403 0.53686 0.34304 0.0
H4562 H 0.61474 0.53787 0.37394 0.0
H4563 H 0.62878 0.54097 0.34545 0.0
H4564 H 0.56477 0.50688 0.36378 0.0
H4565 H 0.59453 0.57463 0.40849 0.0
H4566 H 0.59437 0.5708 0.3831 0.0
H4567 H 0.6104 0.56321 0.3981 0.0
C4568 C 0.58632 0.53992 0.32717 0.0
C4569 C 0.60459 0.54063 0.32744 0.0
C4570 C 0.57824 0.53809 0.34364 0.0
C4571 C 0.58838 0.53723 0.36061 0.0
C4572 C 0.60671 0.53875 0.36106 0.0
H4573 H 0.56457 0.50933 0.47064 0.0
H4574 H 0.57798 0.5119 0.4412 0.0
C4575 C 0.61473 0.54048 0.34467 0.0
C4576 C 0.57984 0.53355 0.37765 0.0
H4577 H 0.57983 0.55103 0.42409 0.0
C4578 C 0.56793 0.51658 0.37693 0.0
C4579 C 0.58418 0.54616 0.3948 0.0
C4580 C 0.59645 0.5648 0.3962 0.0
C4581 C 0.56035 0.51187 0.39305 0.0
C4582 C 0.56481 0.52445 0.41016 0.0
C4583 C 0.57668 0.54137 0.41091 0.0
C4584 C 0.5562 0.52102 0.42712 0.0
C4585 C 0.5477 0.49352 0.39186 0.0
C4586 C 0.53957 0.52521 0.42872 0.0
C4587 C 0.53203 0.52402 0.44546 0.0
C4588 C 0.54097 0.51852 0.46094 0.0
C4589 C 0.55742 0.5137 0.45903 0.0
C4590 C 0.56505 0.5151 0.44226 0.0
H4591 H 0.54688 0.48453 0.378 0.0
H4592 H 0.55193 0.48623 0.40335 0.0
H4593 H 0.53425 0.4958 0.39393 0.0
H4594 H 0.53265 0.52992 0.41717 0.0
H4595 H 0.51935 0.52784 0.44638 0.0
H4596 H 0.26843 0.90375 0.05971 0.0
H4597 H 0.26641 0.88594 0.08557 0.0
H4598 H 0.27949 0.84042 0.05003 0.0
H4599 H 0.28321 0.85906 0.02462 0.0
H4600 H 0.25159 0.85571 0.09615 0.0
H4601 H 0.32184 0.85422 0.08855 0.0
H4602 H 0.3094 0.86643 0.07436 0.0
H4603 H 0.30728 0.84186 0.068 0.0
C4604 C 0.27023 0.88968 0.05721 0.0
C4605 C 0.2761 0.88271 0.0404 0.0
C4606 C 0.26912 0.87953 0.072 0.0
C4607 C 0.27342 0.86214 0.06989 0.0
C4608 C 0.27678 0.85413 0.05211 0.0
H4609 H 0.29871 0.79158 0.14589 0.0
H4610 H 0.28279 0.80389 0.12128 0.0
C4611 C 0.27864 0.8646 0.03755 0.0
C4612 C 0.27694 0.85381 0.08688 0.0
H4613 H 0.30902 0.83816 0.11146 0.0
C4614 C 0.2641 0.85179 0.09948 0.0
C4615 C 0.29361 0.84945 0.09157 0.0
C4616 C 0.30888 0.85331 0.08003 0.0
C4617 C 0.26737 0.84499 0.11639 0.0
C4618 C 0.28357 0.83967 0.1203 0.0
C4619 C 0.29644 0.84196 0.10798 0.0
C4620 C 0.28794 0.83157 0.13703 0.0
C4621 C 0.2537 0.84354 0.13 0.0
C4622 C 0.29569 0.84313 0.15401 0.0
C4623 C 0.30489 0.83618 0.16796 0.0
C4624 C 0.30662 0.81774 0.16479 0.0
C4625 C 0.29792 0.80598 0.14828 0.0
C4626 C 0.28857 0.81286 0.13448 0.0
H4627 H 0.2416 0.84803 0.12469 0.0
H4628 H 0.24991 0.82907 0.13254 0.0
H4629 H 0.25949 0.85225 0.14382 0.0
H4630 H 0.29558 0.8577 0.15594 0.0
H4631 H 0.31132 0.84535 0.18081 0.0
H4632 H 0.89126 0.50426 0.84348 0.0
H4633 H 0.90641 0.49611 0.87142 0.0
H4634 H 0.95669 0.52417 0.85757 0.0
H4635 H 0.94153 0.53226 0.82945 0.0
H4636 H 0.95438 0.4872 0.87038 0.0
H4637 H 0.9289 0.53992 0.91639 0.0
H4638 H 0.9136 0.52371 0.89846 0.0
H4639 H 0.93036 0.54092 0.89164 0.0
C4640 C 0.9055 0.50875 0.84648 0.0
C4641 C 0.91532 0.51928 0.83484 0.0
C4642 C 0.91409 0.50389 0.86222 0.0
C4643 C 0.9325 0.5097 0.86638 0.0
C4644 C 0.94242 0.51955 0.85431 0.0
H4645 H 0.00452 0.54767 0.96215 0.0
H4646 H 0.98427 0.54049 0.93265 0.0
C4647 C 0.93383 0.52422 0.83845 0.0
C4648 C 0.94142 0.50717 0.88423 0.0
H4649 H 0.9504 0.52663 0.93055 0.0
C4650 C 0.95346 0.49555 0.88369 0.0
C4651 C 0.93989 0.5182 0.90128 0.0
C4652 C 0.92756 0.53148 0.90214 0.0
C4653 C 0.96515 0.49566 0.89974 0.0
C4654 C 0.96422 0.50738 0.91663 0.0
C4655 C 0.95111 0.51783 0.91744 0.0
C4656 C 0.97792 0.51097 0.93296 0.0
C4657 C 0.97902 0.48419 0.89806 0.0
C4658 C 0.98152 0.49666 0.9423 0.0
C4659 C 0.99379 0.50072 0.95851 0.0
C4660 C 1.00165 0.51915 0.96592 0.0
C4661 C 0.99835 0.53341 0.95649 0.0
C4662 C 0.98678 0.5293 0.93984 0.0
H4663 H 0.98032 0.47927 0.88306 0.0
H4664 H 0.99218 0.49216 0.90518 0.0
H4665 H 0.97517 0.47188 0.90497 0.0
H4666 H 0.97446 0.48253 0.93748 0.0
H4667 H 0.99622 0.48966 0.96595 0.0
H4668 H 0.30502 0.21737 0.56209 0.0
H4669 H 0.30122 0.22962 0.59431 0.0
H4670 H 0.24804 0.19639 0.58675 0.0
H4671 H 0.25185 0.18368 0.55447 0.0
H4672 H 0.27822 0.24911 0.60877 0.0
H4673 H 0.26896 0.18174 0.63462 0.0
H4674 H 0.27644 0.18475 0.61201 0.0
H4675 H 0.25332 0.18239 0.61478 0.0
C4676 C 0.29246 0.21262 0.56718 0.0
C4677 C 0.27881 0.19934 0.5556 0.0
C4678 C 0.29031 0.2197 0.58568 0.0
C4679 C 0.27447 0.2137 0.5932 0.0
C4680 C 0.26056 0.20092 0.58151 0.0
H4681 H 0.24725 0.24282 0.70802 0.0
H4682 H 0.24558 0.23161 0.67411 0.0
C4683 C 0.26272 0.19375 0.56295 0.0
C4684 C 0.2728 0.22082 0.6133 0.0
H4685 H 0.26669 0.20756 0.65637 0.0
C4686 C 0.27566 0.23999 0.61914 0.0
C4687 C 0.26944 0.20898 0.62694 0.0
C4688 C 0.26701 0.18833 0.62187 0.0
C4689 C 0.27536 0.2476 0.63813 0.0
C4690 C 0.27232 0.23578 0.65178 0.0
C4691 C 0.26903 0.21661 0.64591 0.0
C4692 C 0.27317 0.24307 0.67232 0.0
C4693 C 0.27825 0.26826 0.64346 0.0
C4694 C 0.28925 0.25313 0.68271 0.0
C4695 C 0.29024 0.25957 0.70212 0.0
C4696 C 0.27513 0.25615 0.71165 0.0
C4697 C 0.25906 0.24601 0.70118 0.0
C4698 C 0.2581 0.23948 0.68177 0.0
H4699 H 0.27623 0.27504 0.63087 0.0
H4700 H 0.26913 0.27193 0.65367 0.0
H4701 H 0.29207 0.27385 0.65036 0.0
H4702 H 0.30114 0.25581 0.67583 0.0
H4703 H 0.3029 0.26721 0.70966 0.0
H4704 H 0.61855 0.54601 0.21836 0.0
H4705 H 0.6063 0.54972 0.18676 0.0
H4706 H 0.56395 0.50231 0.18557 0.0
H4707 H 0.57583 0.49873 0.21719 0.0
H4708 H 0.60033 0.5262 0.15281 0.0
H4709 H 0.53678 0.54093 0.17303 0.0
H4710 H 0.55535 0.54129 0.19034 0.0
H4711 H 0.54082 0.51973 0.17953 0.0
C4712 C 0.60665 0.53635 0.21134 0.0
C4713 C 0.5981 0.52213 0.22034 0.0
C4714 C 0.59965 0.53852 0.19331 0.0
C4715 C 0.584 0.52654 0.18398 0.0
C4716 C 0.57576 0.51203 0.19271 0.0
H4717 H 0.53452 0.49916 0.06911 0.0
H4718 H 0.54739 0.50024 0.10189 0.0
C4719 C 0.58266 0.50992 0.21075 0.0
C4720 C 0.57642 0.52889 0.16495 0.0
H4721 H 0.53834 0.53357 0.1398 0.0
C4722 C 0.58684 0.528 0.15002 0.0
C4723 C 0.55887 0.53145 0.16134 0.0
C4724 C 0.54736 0.5336 0.17695 0.0
C4725 C 0.57991 0.52882 0.13146 0.0
C4726 C 0.56217 0.53055 0.1278 0.0
C4727 C 0.55192 0.53208 0.14274 0.0
C4728 C 0.55388 0.53005 0.10833 0.0
C4729 C 0.59141 0.52757 0.11574 0.0
C4730 C 0.55318 0.54646 0.10127 0.0
C4731 C 0.54596 0.54582 0.08254 0.0
C4732 C 0.53927 0.52882 0.07072 0.0
C4733 C 0.53972 0.51243 0.07796 0.0
C4734 C 0.54697 0.51303 0.09663 0.0
H4735 H 0.60532 0.52753 0.1211 0.0
H4736 H 0.58586 0.51473 0.10548 0.0
H4737 H 0.59142 0.53938 0.10796 0.0
H4738 H 0.5586 0.55971 0.11009 0.0
H4739 H 0.54632 0.55854 0.0771 0.0
H4740 H 0.31981 0.90679 0.95063 0.0
H4741 H 0.31323 0.88739 0.91941 0.0
H4742 H 0.25874 0.8699 0.92906 0.0
H4743 H 0.2651 0.88992 0.95994 0.0
H4744 H 0.30205 0.84975 0.91785 0.0
H4745 H 0.25314 0.87642 0.87368 0.0
H4746 H 0.26656 0.89036 0.89459 0.0
H4747 H 0.24776 0.87272 0.8968 0.0
C4748 C 0.30635 0.89913 0.94584 0.0
C4749 C 0.29297 0.89964 0.9576 0.0
C4750 C 0.3026 0.88814 0.92806 0.0
C4751 C 0.2855 0.8773 0.92197 0.0
C4752 C 0.27191 0.87848 0.93333 0.0
H4753 H 0.24914 0.79417 0.8211 0.0
H4754 H 0.25042 0.81354 0.85187 0.0
C4755 C 0.27558 0.8898 0.95098 0.0
C4756 C 0.28273 0.86293 0.90513 0.0
H4757 H 0.26015 0.84844 0.8609 0.0
C4758 C 0.29291 0.84945 0.90535 0.0
C4759 C 0.27041 0.86232 0.88918 0.0
C4760 C 0.2589 0.87628 0.88841 0.0
C4761 C 0.2914 0.83551 0.88985 0.0
C4762 C 0.2798 0.83546 0.87343 0.0
C4763 C 0.26915 0.8486 0.87345 0.0
C4764 C 0.27909 0.82253 0.85576 0.0
C4765 C 0.3021 0.82091 0.89147 0.0
C4766 C 0.29475 0.82105 0.84786 0.0
C4767 C 0.29403 0.80945 0.83079 0.0
C4768 C 0.27759 0.79996 0.821 0.0
C4769 C 0.26191 0.80154 0.82861 0.0
C4770 C 0.26266 0.81257 0.84607 0.0
H4771 H 0.30458 0.81881 0.90641 0.0
H4772 H 0.29534 0.80748 0.88277 0.0
H4773 H 0.31522 0.82551 0.88666 0.0
H4774 H 0.3075 0.82915 0.85467 0.0
H4775 H 0.30621 0.80849 0.82484 0.0
H4776 H 0.8849 0.52817 0.72173 0.0
H4777 H 0.89596 0.52131 0.69107 0.0
H4778 H 0.93678 0.49883 0.71851 0.0
H4779 H 0.92615 0.50597 0.74886 0.0
H4780 H 0.93314 0.53998 0.69134 0.0
H4781 H 0.92136 0.46468 0.66639 0.0
H4782 H 0.90699 0.47496 0.68097 0.0
H4783 H 0.92756 0.47095 0.69152 0.0
C4784 C 0.89589 0.52128 0.72097 0.0
C4785 C 0.90504 0.51795 0.73746 0.0
C4786 C 0.9021 0.51732 0.70357 0.0
C4787 C 0.91708 0.50955 0.7027 0.0
C4788 C 0.92505 0.5046 0.71894 0.0
H4789 H 0.00542 0.49658 0.64901 0.0
H4790 H 0.98638 0.50617 0.67204 0.0
C4791 C 0.91913 0.5089 0.73626 0.0
C4792 C 0.92697 0.51021 0.68638 0.0
H4793 H 0.9476 0.48345 0.65788 0.0
C4794 C 0.93596 0.52766 0.68354 0.0
C4795 C 0.93072 0.49407 0.67662 0.0
C4796 C 0.92102 0.47509 0.67889 0.0
C4797 C 0.94956 0.52935 0.672 0.0
C4798 C 0.95398 0.5132 0.66322 0.0
C4799 C 0.94429 0.49578 0.66514 0.0
C4800 C 0.96824 0.51371 0.6513 0.0
C4801 C 0.95977 0.54821 0.67001 0.0
C4802 C 0.96459 0.5157 0.63242 0.0
C4803 C 0.97504 0.5098 0.61923 0.0
C4804 C 0.9894 0.50199 0.62485 0.0
C4805 C 0.9942 0.50209 0.64422 0.0
C4806 C 0.98353 0.50777 0.65739 0.0
H4807 H 0.95526 0.55945 0.67869 0.0
H4808 H 0.97414 0.5494 0.67435 0.0
H4809 H 0.95815 0.55008 0.65494 0.0
H4810 H 0.95267 0.52008 0.62758 0.0
H4811 H 0.97075 0.5098 0.60446 0.0
H4812 H 0.30009 0.22614 0.46801 0.0
H4813 H 0.29872 0.23871 0.43847 0.0
H4814 H 0.24771 0.20245 0.41934 0.0
H4815 H 0.24894 0.18954 0.44893 0.0
H4816 H 0.28831 0.2072 0.3981 0.0
H4817 H 0.25113 0.26303 0.41182 0.0
H4818 H 0.26514 0.25754 0.43081 0.0
H4819 H 0.24494 0.24156 0.42073 0.0
C4820 C 0.28836 0.22104 0.45775 0.0
C4821 C 0.27466 0.20671 0.46087 0.0
C4822 C 0.28765 0.22825 0.44084 0.0
C4823 C 0.2732 0.22141 0.42672 0.0
C4824 C 0.25899 0.20789 0.43012 0.0
H4825 H 0.25323 0.26001 0.31953 0.0
H4826 H 0.25081 0.2474 0.34906 0.0
C4827 C 0.25967 0.20062 0.44709 0.0
C4828 C 0.27375 0.22744 0.40796 0.0
H4829 H 0.26261 0.25965 0.38272 0.0
C4830 C 0.28261 0.21858 0.39459 0.0
C4831 C 0.2662 0.24216 0.40349 0.0
C4832 C 0.25627 0.25174 0.41738 0.0
C4833 C 0.28406 0.22402 0.37674 0.0
C4834 C 0.27706 0.23929 0.3724 0.0
C4835 C 0.26808 0.24803 0.38589 0.0
C4836 C 0.27857 0.24627 0.35396 0.0
C4837 C 0.29267 0.21291 0.36266 0.0
C4838 C 0.29494 0.24991 0.34665 0.0
C4839 C 0.29608 0.25623 0.32924 0.0
C4840 C 0.28108 0.2599 0.31933 0.0
C4841 C 0.26492 0.25703 0.3269 0.0
C4842 C 0.26359 0.24995 0.34384 0.0
H4843 H 0.29156 0.19856 0.36553 0.0
H4844 H 0.28661 0.21231 0.3479 0.0
H4845 H 0.30702 0.21932 0.3639 0.0
H4846 H 0.30692 0.24811 0.35446 0.0
H4847 H 0.30879 0.25888 0.32387 0.0
H4848 H 0.33164 0.62332 0.53925 0.0
H4849 H 0.35778 0.6105 0.54177 0.0
H4850 H 0.32727 0.56139 0.55765 0.0
H4851 H 0.30063 0.57415 0.5549 0.0
H4852 H 0.37784 0.59344 0.56563 0.0
H4853 H 0.33741 0.54561 0.50319 0.0
H4854 H 0.33053 0.56573 0.51403 0.0
H4855 H 0.32852 0.54564 0.5254 0.0
C4856 C 0.3305 0.61011 0.54397 0.0
C4857 C 0.31401 0.59951 0.54638 0.0
C4858 C 0.34554 0.60284 0.54553 0.0
C4859 C 0.34426 0.5849 0.54949 0.0
C4860 C 0.32834 0.57521 0.55434 0.0
H4861 H 0.41636 0.52182 0.50253 0.0
H4862 H 0.39638 0.53146 0.5241 0.0
C4863 C 0.31318 0.5825 0.55273 0.0
C4864 C 0.35829 0.5754 0.54431 0.0
H4865 H 0.36755 0.54615 0.50783 0.0
C4866 C 0.37562 0.58273 0.55331 0.0
C4867 C 0.35521 0.56177 0.52792 0.0
C4868 C 0.33697 0.55426 0.51693 0.0
C4869 C 0.39012 0.57731 0.54581 0.0
C4870 C 0.38702 0.56425 0.5291 0.0
C4871 C 0.36969 0.55615 0.52074 0.0
C4872 C 0.40145 0.55966 0.51897 0.0
C4873 C 0.40864 0.58598 0.55533 0.0
C4874 C 0.41081 0.57247 0.50902 0.0
C4875 C 0.42234 0.56706 0.49668 0.0
C4876 C 0.42449 0.54876 0.49413 0.0
C4877 C 0.41525 0.53612 0.50444 0.0
C4878 C 0.40385 0.54155 0.51678 0.0
H4879 H 0.40862 0.59307 0.56996 0.0
H4880 H 0.41676 0.57538 0.55581 0.0
H4881 H 0.41505 0.59632 0.54702 0.0
H4882 H 0.40868 0.58642 0.51028 0.0
H4883 H 0.42938 0.57707 0.48899 0.0
H4884 H 0.82531 0.92941 0.50467 0.0
H4885 H 0.85525 0.94712 0.50325 0.0
H4886 H 0.87621 0.91993 0.54656 0.0
H4887 H 0.84656 0.90178 0.54756 0.0
H4888 H 0.87683 0.97141 0.53124 0.0
H4889 H 0.91004 0.91459 0.50833 0.0
H4890 H 0.88624 0.91114 0.50732 0.0
H4891 H 0.8997 0.9118 0.52934 0.0
C4892 C 0.83637 0.92698 0.51362 0.0
C4893 C 0.83363 0.91408 0.52608 0.0
C4894 C 0.85343 0.93715 0.51286 0.0
C4895 C 0.868 0.93464 0.52459 0.0
C4896 C 0.86527 0.92172 0.53699 0.0
H4897 H 0.98012 0.98671 0.54595 0.0
H4898 H 0.9502 0.96919 0.54764 0.0
C4899 C 0.84828 0.9114 0.53758 0.0
C4900 C 0.88591 0.94621 0.52458 0.0
H4901 H 0.92878 0.9442 0.5192 0.0
C4902 C 0.88817 0.96547 0.52848 0.0
C4903 C 0.90071 0.93842 0.52112 0.0
C4904 C 0.89905 0.91786 0.51612 0.0
C4905 C 0.90488 0.97718 0.52927 0.0
C4906 C 0.91966 0.96938 0.52578 0.0
C4907 C 0.91742 0.95012 0.52194 0.0
C4908 C 0.93752 0.9809 0.52559 0.0
C4909 C 0.90662 0.99775 0.5342 0.0
C4910 C 0.94028 0.99328 0.51265 0.0
C4911 C 0.9573 0.00339 0.51175 0.0
C4912 C 0.97191 1.00109 0.52361 0.0
C4913 C 0.96911 0.98877 0.53665 0.0
C4914 C 0.95205 0.97876 0.53762 0.0
H4915 H 0.89554 1.00111 0.54178 0.0
H4916 H 0.91936 0.0044 0.54316 0.0
H4917 H 0.90625 0.00381 0.52097 0.0
H4918 H 0.92934 0.99479 0.5029 0.0
H4919 H 0.95909 0.01256 0.50135 0.0
H4920 H 0.89866 0.07611 0.28583 0.0
H4921 H 0.88342 0.10049 0.27964 0.0
H4922 H 0.85926 0.06875 0.22547 0.0
H4923 H 0.875 0.04409 0.23152 0.0
H4924 H 0.88317 0.12023 0.24527 0.0
H4925 H 0.81821 0.08016 0.25936 0.0
H4926 H 0.83882 0.07453 0.26779 0.0
H4927 H 0.83096 0.06966 0.24298 0.0
C4928 C 0.89015 0.07431 0.27254 0.0
C4929 C 0.88779 0.05817 0.25923 0.0
C4930 C 0.88157 0.0883 0.26899 0.0
C4931 C 0.87022 0.08635 0.25216 0.0
C4932 C 0.86802 0.07042 0.23854 0.0
H4933 H 0.79977 0.16449 0.26097 0.0
H4934 H 0.81354 0.14127 0.24405 0.0
C4935 C 0.87696 0.05643 0.24197 0.0
C4936 C 0.86011 0.10081 0.24996 0.0
H4937 H 0.82132 0.11207 0.26061 0.0
C4938 C 0.86946 0.11838 0.24801 0.0
C4939 C 0.84228 0.09832 0.25363 0.0
C4940 C 0.83186 0.07969 0.25612 0.0
C4941 C 0.86177 0.13381 0.25089 0.0
C4942 C 0.84444 0.13157 0.25613 0.0
C4943 C 0.83461 0.11375 0.25657 0.0
C4944 C 0.83735 0.14749 0.26417 0.0
C4945 C 0.87258 0.15248 0.24916 0.0
C4946 C 0.84629 0.15879 0.2809 0.0
C4947 C 0.83846 0.17189 0.29055 0.0
C4948 C 0.82151 0.1739 0.2837 0.0
C4949 C 0.81291 0.16327 0.26645 0.0
C4950 C 0.82072 0.15001 0.25683 0.0
H4951 H 0.88228 0.15121 0.23888 0.0
H4952 H 0.86398 0.16169 0.24463 0.0
H4953 H 0.88019 0.15902 0.26313 0.0
H4954 H 0.85893 0.15683 0.28707 0.0
H4955 H 0.84538 0.17998 0.30378 0.0
H4956 H 0.71226 0.06666 0.99246 0.0
H4957 H 0.68138 0.05594 0.99796 0.0
H4958 H 0.69104 0.0934 0.05101 0.0
H4959 H 0.72154 0.10451 0.04544 0.0
H4960 H 0.6687 0.04084 0.03004 0.0
H4961 H 0.64899 0.10708 0.02119 0.0
H4962 H 0.66924 0.10175 0.01378 0.0
H4963 H 0.66778 0.1086 0.03844 0.0
C4964 C 0.70771 0.07256 0.00522 0.0
C4965 C 0.719 0.08655 0.01835 0.0
C4966 C 0.69024 0.06646 0.00836 0.0
C4967 C 0.68416 0.0742 0.02471 0.0
C4968 C 0.69558 0.08767 0.03815 0.0
H4969 H 0.57576 0.05543 0.0511 0.0
H4970 H 0.60811 0.06636 0.05418 0.0
C4971 C 0.7129 0.09396 0.0349 0.0
C4972 C 0.6657 0.06841 0.02753 0.0
H4973 H 0.62702 0.08312 0.02794 0.0
C4974 C 0.65955 0.05004 0.02971 0.0
C4975 C 0.65411 0.08072 0.02734 0.0
C4976 C 0.66028 0.10062 0.02494 0.0
C4977 C 0.64172 0.0434 0.03117 0.0
C4978 C 0.63001 0.05547 0.03003 0.0
C4979 C 0.63626 0.07404 0.02871 0.0
C4980 C 0.61098 0.04871 0.02863 0.0
C4981 C 0.6355 0.02354 0.03361 0.0
C4982 C 0.60229 0.03551 0.01311 0.0
C4983 C 0.5841 0.02914 0.01154 0.0
C4984 C 0.57468 0.03638 0.02523 0.0
C4985 C 0.5832 0.04986 0.04052 0.0
C4986 C 0.60144 0.056 0.04228 0.0
H4987 H 0.64652 0.018 0.04001 0.0
H4988 H 0.6246 0.02201 0.04265 0.0
H4989 H 0.63045 0.01503 0.01953 0.0
H4990 H 0.60957 0.03025 0.00222 0.0
H4991 H 0.57737 0.01887 -0.00041 0.0
H4992 H 0.19599 0.48611 0.28387 0.0
H4993 H 0.21084 0.46035 0.27897 0.0
H4994 H 0.22605 0.47623 0.22639 0.0
H4995 H 0.21101 0.50212 0.2311 0.0
H4996 H 0.2019 0.43395 0.23316 0.0
H4997 H 0.26948 0.46497 0.2713 0.0
H4998 H 0.25096 0.47311 0.28012 0.0
H4999 H 0.25702 0.47769 0.25751 0.0
C5000 C 0.20301 0.4845 0.27161 0.0
C5001 C 0.20251 0.49604 0.25789 0.0
C5002 C 0.21126 0.46972 0.26872 0.0
C5003 C 0.21928 0.46653 0.25228 0.0
C5004 C 0.21974 0.47858 0.23906 0.0
H5005 H 0.27184 0.37921 0.27138 0.0
H5006 H 0.26352 0.40009 0.25074 0.0
C5007 C 0.21132 0.49333 0.24184 0.0
C5008 C 0.22642 0.44995 0.24895 0.0
H5009 H 0.25983 0.43242 0.26786 0.0
C5010 C 0.21482 0.43351 0.24011 0.0
C5011 C 0.24327 0.4497 0.25786 0.0
C5012 C 0.25604 0.46729 0.26719 0.0
C5013 C 0.21907 0.41645 0.24167 0.0
C5014 C 0.23511 0.41612 0.25256 0.0
C5015 C 0.24749 0.43269 0.25954 0.0
C5016 C 0.23784 0.39958 0.26031 0.0
C5017 C 0.20589 0.39902 0.23273 0.0
C5018 C 0.22585 0.39191 0.27203 0.0
C5019 C 0.23046 0.37983 0.28372 0.0
C5020 C 0.24724 0.37546 0.28407 0.0
C5021 C 0.25872 0.38215 0.27134 0.0
C5022 C 0.25402 0.3941 0.25952 0.0
H5023 H 0.19854 0.40105 0.21943 0.0
H5024 H 0.21249 0.3873 0.22957 0.0
H5025 H 0.19601 0.3954 0.24257 0.0
H5026 H 0.21348 0.39633 0.27325 0.0
H5027 H 0.22127 0.37467 0.29318 0.0
H5028 H 0.22356 0.38705 0.01667 0.0
H5029 H 0.19678 0.39943 0.01135 0.0
H5030 H 0.22346 0.45103 0.04598 0.0
H5031 H 0.25011 0.43897 0.05129 0.0
H5032 H 0.17611 0.41556 0.03867 0.0
H5033 H 0.20727 0.46494 0.99422 0.0
H5034 H 0.21632 0.44553 -0.00058 0.0
H5035 H 0.21992 0.46605 0.01678 0.0
C5036 C 0.22366 0.401 0.02321 0.0
C5037 C 0.23899 0.41206 0.03429 0.0
C5038 C 0.20838 0.40802 0.02019 0.0
C5039 C 0.20829 0.4262 0.0281 0.0
C5040 C 0.22338 0.43705 0.03956 0.0
H5041 H 0.13544 0.49931 0.01798 0.0
H5042 H 0.15846 0.48437 0.03065 0.0
C5043 C 0.23858 0.43008 0.0426 0.0
C5044 C 0.19266 0.43418 0.02405 0.0
H5045 H 0.17941 0.46832 0.00336 0.0
C5046 C 0.17676 0.42704 0.03089 0.0
C5047 C 0.19363 0.44916 0.01391 0.0
C5048 C 0.21014 0.4568 0.00549 0.0
C5049 C 0.16182 0.43475 0.02807 0.0
C5050 C 0.16289 0.44982 0.01809 0.0
C5051 C 0.17877 0.45691 0.01124 0.0
C5052 C 0.14741 0.45777 0.01334 0.0
C5053 C 0.14506 0.42692 0.03591 0.0
C5054 C 0.1335 0.4476 -0.00025 0.0
C5055 C 0.12055 0.45613 0.99241 0.0
C5056 C 0.12129 0.4749 -0.00135 0.0
C5057 C 0.13458 0.48478 0.01311 0.0
C5058 C 0.14769 0.47629 0.02029 0.0
H5059 H 0.14749 0.41799 0.04656 0.0
H5060 H 0.13918 0.4382 0.04254 0.0
H5061 H 0.13522 0.4185 0.02417 0.0
H5062 H 0.13323 0.43338 0.99403 0.0
H5063 H 0.11039 0.44829 0.98126 0.0
H5064 H 0.8771 0.96793 0.29265 0.0
H5065 H 0.85897 0.93679 0.28614 0.0
H5066 H 0.87028 0.9315 0.22827 0.0
H5067 H 0.88894 0.9629 0.23476 0.0
H5068 H 0.82872 0.92366 0.25922 0.0
H5069 H 0.88142 0.88445 0.24582 0.0
H5070 H 0.88659 0.90827 0.25716 0.0
H5071 H 0.87969 0.90251 0.23214 0.0
C5072 C 0.87578 0.96026 0.27847 0.0
C5073 C 0.88444 0.96802 0.26419 0.0
C5074 C 0.8654 0.94239 0.27481 0.0
C5075 C 0.86334 0.93178 0.25678 0.0
C5076 C 0.87191 0.93937 0.24238 0.0
H5077 H 0.80861 0.81509 0.23024 0.0
H5078 H 0.82448 0.84604 0.22689 0.0
C5079 C 0.88248 0.95734 0.24608 0.0
C5080 C 0.85178 0.91301 0.25335 0.0
H5081 H 0.85266 0.86725 0.24618 0.0
C5082 C 0.83389 0.9113 0.25616 0.0
C5083 C 0.8585 0.89693 0.24915 0.0
C5084 C 0.87762 0.89799 0.24598 0.0
C5085 C 0.82264 0.89397 0.25542 0.0
C5086 C 0.82961 0.87787 0.25237 0.0
C5087 C 0.84732 0.87956 0.2487 0.0
C5088 C 0.81905 0.85931 0.2538 0.0
C5089 C 0.8034 0.8932 0.25787 0.0
C5090 C 0.8107 0.85638 0.27001 0.0
C5091 C 0.8012 0.83886 0.27164 0.0
C5092 C 0.80044 0.82379 0.25742 0.0
C5093 C 0.80898 0.82657 0.24135 0.0
C5094 C 0.81807 0.84421 0.23947 0.0
H5095 H 0.7989 0.90516 0.25303 0.0
H5096 H 0.79465 0.88031 0.2499 0.0
H5097 H 0.80181 0.89389 0.27312 0.0
H5098 H 0.81182 0.86758 0.28162 0.0
H5099 H 0.79506 0.83693 0.28436 0.0
H5100 H 0.72316 0.07726 0.76647 0.0
H5101 H 0.73657 0.10839 0.76134 0.0
H5102 H 0.68546 0.11515 0.7378 0.0
H5103 H 0.672 0.08374 0.74241 0.0
H5104 H 0.72784 0.13124 0.72338 0.0
H5105 H 0.71012 0.14928 0.79616 0.0
H5106 H 0.71528 0.12715 0.78885 0.0
H5107 H 0.69515 0.13215 0.77865 0.0
C5108 C 0.7149 0.0853 0.75987 0.0
C5109 C 0.69661 0.07848 0.75514 0.0
C5110 C 0.72256 0.10287 0.75674 0.0
C5111 C 0.7119 0.1138 0.74922 0.0
C5112 C 0.6938 0.10665 0.74341 0.0
H5113 H 0.73824 0.23275 0.77101 0.0
H5114 H 0.72293 0.20043 0.76606 0.0
C5115 C 0.68617 0.08889 0.74618 0.0
C5116 C 0.71913 0.13357 0.75099 0.0
H5117 H 0.72776 0.1727 0.78359 0.0
C5118 C 0.72771 0.14046 0.73638 0.0
C5119 C 0.71873 0.14527 0.76801 0.0
C5120 C 0.70934 0.13822 0.7839 0.0
C5121 C 0.73632 0.15906 0.73857 0.0
C5122 C 0.73661 0.1706 0.756 0.0
C5123 C 0.72758 0.1637 0.77035 0.0
C5124 C 0.74616 0.18996 0.75975 0.0
C5125 C 0.7449 0.16615 0.72224 0.0
C5126 C 0.76443 0.19458 0.75871 0.0
C5127 C 0.77321 0.21301 0.76142 0.0
C5128 C 0.76381 0.22698 0.76541 0.0
C5129 C 0.74579 0.22226 0.76779 0.0
C5130 C 0.737 0.20384 0.76487 0.0
H5131 H 0.73907 0.15727 0.70852 0.0
H5132 H 0.7435 0.18049 0.72141 0.0
H5133 H 0.75926 0.16613 0.72428 0.0
H5134 H 0.77182 0.18395 0.75548 0.0
H5135 H 0.78719 0.21632 0.75978 0.0
loop_
_geom_bond_atom_site_label_1
_geom_bond_atom_site_label_2
_geom_bond_distance
_geom_bond_site_symmetry_2
_ccdc_geom_bond_type
Mg0 O1 2.028 . S
Mg0 O7 1.986 . S
Mg0 O9 2.114 . S
Mg0 O10 2.251 . S
Mg0 O13 2.010 . S
O1 Mg0 2.028 . S
O1 C4 1.250 . S
O2 Mg3 2.024 1_455 S
O2 C4 1.248 . S
Mg3 O2 2.024 1_655 S
Mg3 O8 2.027 1_655 S
Mg3 O10 2.077 1_655 S
C4 O1 1.250 . S
C4 O2 1.248 . S
C5 O6 1.264 . S
C5 O13 1.249 . S
O6 C5 1.264 . S
O7 Mg0 1.986 . S
O7 C11 1.246 . S
O8 Mg3 2.027 1_455 S
O8 C11 1.259 . S
O9 Mg0 2.114 . S
O9 C12 1.252 . S
O10 Mg0 2.251 . S
O10 Mg3 2.077 1_455 S
O10 C12 1.273 . S
C11 O7 1.246 . S
C11 O8 1.259 . S
C12 O9 1.252 . S
C12 O10 1.273 . S
O13 Mg0 2.010 . S
O13 C5 1.249 . S
Mg14 O15 2.028 . S
Mg14 O21 1.986 . S
Mg14 O23 2.139 . S
Mg14 O24 2.251 1_455 S
Mg14 O27 2.010 . S
O15 Mg14 2.028 . S
O15 C18 1.250 . S
O16 Mg17 2.028 . S
O16 C18 1.248 1_655 S
Mg17 O16 2.028 . S
Mg17 O22 2.032 . S
Mg17 O24 2.079 . S
C18 O15 1.250 . S
C18 O16 1.248 1_455 S
C19 O20 1.264 . S
C19 O27 1.249 . S
O20 C19 1.264 . S
O21 Mg14 1.986 . S
O21 C25 1.246 . S
O22 Mg17 2.032 . S
O22 C25 1.259 1_655 S
O23 Mg14 2.139 . S
O23 C26 1.213 1_455 S
O24 Mg14 2.251 1_655 S
O24 Mg17 2.079 . S
O24 C26 1.273 . S
C25 O21 1.246 . S
C25 O22 1.259 1_455 S
C26 O23 1.213 1_655 S
C26 O24 1.273 . S
O27 Mg14 2.010 . S
O27 C19 1.249 . S
Mg28 O29 2.028 . S
Mg28 O35 1.986 . S
Mg28 O37 2.114 . S
Mg28 O38 2.251 . S
Mg28 O41 2.010 . S
O29 Mg28 2.028 . S
O29 C32 1.250 . S
O30 Mg31 2.028 . S
O30 C32 1.248 . S
Mg31 O30 2.028 . S
Mg31 O36 2.032 . S
Mg31 O38 2.079 . S
C32 O29 1.250 . S
C32 O30 1.248 . S
C33 O34 1.264 . S
C33 O41 1.249 . S
O34 C33 1.264 . S
O35 Mg28 1.986 . S
O35 C39 1.246 . S
O36 Mg31 2.032 . S
O36 C39 1.259 . S
O37 Mg28 2.114 . S
O37 C40 1.252 . S
O38 Mg28 2.251 . S
O38 Mg31 2.079 . S
O38 C40 1.273 . S
C39 O35 1.246 . S
C39 O36 1.259 . S
C40 O37 1.252 . S
C40 O38 1.273 . S
O41 Mg28 2.010 . S
O41 C33 1.249 . S
Mg42 O43 2.028 . S
Mg42 O49 1.986 . S
Mg42 O51 2.114 . S
Mg42 O52 2.251 . S
Mg42 O55 2.010 . S
O43 Mg42 2.028 . S
O43 C46 1.250 . S
O44 Mg45 2.028 . S
O44 C46 1.248 . S
Mg45 O44 2.028 . S
Mg45 O50 2.032 . S
Mg45 O52 2.079 . S
C46 O43 1.250 . S
C46 O44 1.248 . S
C47 O48 1.264 . S
C47 O55 1.249 . S
O48 C47 1.264 . S
O49 Mg42 1.986 . S
O49 C53 1.246 . S
O50 Mg45 2.032 . S
O50 C53 1.259 . S
O51 Mg42 2.114 . S
O51 C54 1.252 . S
O52 Mg42 2.251 . S
O52 Mg45 2.079 . S
O52 C54 1.273 . S
C53 O49 1.246 . S
C53 O50 1.259 . S
C54 O51 1.252 . S
C54 O52 1.273 . S
O55 Mg42 2.010 . S
O55 C47 1.249 . S
Mg56 O57 2.028 . S
Mg56 O63 1.986 . S
Mg56 O65 2.114 . S
Mg56 O66 2.251 . S
Mg56 O69 2.010 . S
O57 Mg56 2.028 . S
O57 C60 1.250 . S
O58 Mg59 2.028 . S
O58 C60 1.248 . S
Mg59 O58 2.028 . S
Mg59 O64 2.032 . S
Mg59 O66 2.079 . S
C60 O57 1.250 . S
C60 O58 1.248 . S
C61 O62 1.264 . S
C61 O69 1.249 . S
O62 C61 1.264 . S
O63 Mg56 1.986 . S
O63 C67 1.246 . S
O64 Mg59 2.032 . S
O64 C67 1.259 . S
O65 Mg56 2.114 . S
O65 C68 1.252 . S
O66 Mg56 2.251 . S
O66 Mg59 2.079 . S
O66 C68 1.273 . S
C67 O63 1.246 . S
C67 O64 1.259 . S
C68 O65 1.252 . S
C68 O66 1.273 . S
O69 Mg56 2.010 . S
O69 C61 1.249 . S
Mg70 O71 2.028 . S
Mg70 O77 1.986 . S
Mg70 O79 2.114 . S
Mg70 O80 2.251 . S
Mg70 O83 2.010 . S
O71 Mg70 2.028 . S
O71 C74 1.250 . S
O72 Mg73 2.028 . S
O72 C74 1.248 . S
Mg73 O72 2.028 . S
Mg73 O78 2.032 . S
Mg73 O80 2.079 . S
C74 O71 1.250 . S
C74 O72 1.248 . S
C75 O76 1.264 . S
C75 O83 1.249 . S
O76 C75 1.264 . S
O77 Mg70 1.986 . S
O77 C81 1.246 . S
O78 Mg73 2.032 . S
O78 C81 1.259 . S
O79 Mg70 2.114 . S
O79 C82 1.252 . S
O80 Mg70 2.251 . S
O80 Mg73 2.079 . S
O80 C82 1.273 . S
C81 O77 1.246 . S
C81 O78 1.259 . S
C82 O79 1.252 . S
C82 O80 1.273 . S
O83 Mg70 2.010 . S
O83 C75 1.249 . S
Mg84 O85 2.028 . S
Mg84 O91 1.986 . S
Mg84 O93 2.114 . S
Mg84 O94 2.251 . S
Mg84 O97 2.010 . S
O85 Mg84 2.028 . S
O85 C88 1.250 . S
O86 Mg87 2.028 . S
O86 C88 1.248 . S
Mg87 O86 2.028 . S
Mg87 O92 2.032 . S
Mg87 O94 2.079 . S
C88 O85 1.250 . S
C88 O86 1.248 . S
C89 O90 1.264 . S
C89 O97 1.249 . S
O90 C89 1.264 . S
O91 Mg84 1.986 . S
O91 C95 1.246 . S
O92 Mg87 2.032 . S
O92 C95 1.259 . S
O93 Mg84 2.114 . S
O93 C96 1.252 . S
O94 Mg84 2.251 . S
O94 Mg87 2.079 . S
O94 C96 1.273 . S
C95 O91 1.246 . S
C95 O92 1.259 . S
C96 O93 1.252 . S
C96 O94 1.273 . S
O97 Mg84 2.010 . S
O97 C89 1.249 . S
Mg98 O99 2.028 1_655 S
Mg98 O105 1.986 1_655 S
Mg98 O107 2.114 . S
Mg98 O108 2.251 . S
Mg98 O111 2.010 1_655 S
O99 Mg98 2.028 1_455 S
O99 C102 1.237 1_455 S
O100 Mg101 2.028 . S
O100 C102 1.267 . S
Mg101 O100 2.028 . S
Mg101 O106 2.032 . S
Mg101 O108 2.079 . S
C102 O99 1.237 1_655 S
C102 O100 1.267 . S
C103 O104 1.264 . S
C103 O111 1.249 . S
O104 C103 1.264 . S
O105 Mg98 1.986 1_455 S
O105 C109 1.246 1_455 S
O106 Mg101 2.032 . S
O106 C109 1.259 . S
O107 Mg98 2.114 . S
O107 C110 1.252 . S
O108 Mg98 2.251 . S
O108 Mg101 2.079 . S
O108 C110 1.273 . S
C109 O105 1.246 1_655 S
C109 O106 1.259 . S
C110 O107 1.252 . S
C110 O108 1.273 . S
O111 Mg98 2.010 1_455 S
O111 C103 1.249 . S
Mg112 O113 2.028 1_545 S
Mg112 O119 1.986 . S
Mg112 O121 2.114 . S
Mg112 O122 2.251 . S
Mg112 O125 2.010 . S
O113 Mg112 2.028 1_565 S
O113 C116 1.250 . S
O114 Mg115 2.028 1_565 S
O114 C116 1.248 . S
Mg115 O114 2.028 1_545 S
Mg115 O120 2.032 . S
Mg115 O122 2.079 . S
C116 O113 1.250 . S
C116 O114 1.248 . S
C117 O118 1.264 . S
C117 O125 1.249 . S
O118 C117 1.264 . S
O119 Mg112 1.986 . S
O119 C123 1.246 . S
O120 Mg115 2.032 . S
O120 C123 1.259 . S
O121 Mg112 2.114 . S
O121 C124 1.252 . S
O122 Mg112 2.251 . S
O122 Mg115 2.079 . S
O122 C124 1.273 . S
C123 O119 1.246 . S
C123 O120 1.259 . S
C124 O121 1.252 . S
C124 O122 1.273 . S
O125 Mg112 2.010 . S
O125 C117 1.249 . S
Mg126 O127 2.028 . S
Mg126 O133 1.986 . S
Mg126 O135 2.114 . S
Mg126 O136 2.251 . S
Mg126 O139 2.010 . S
O127 Mg126 2.028 . S
O127 C130 1.250 . S
O128 Mg129 2.028 . S
O128 C130 1.248 . S
Mg129 O128 2.028 . S
Mg129 O134 2.032 . S
Mg129 O136 2.079 . S
C130 O127 1.250 . S
C130 O128 1.248 . S
C131 O132 1.264 . S
C131 O139 1.249 . S
O132 C131 1.264 . S
O133 Mg126 1.986 . S
O133 C137 1.246 . S
O134 Mg129 2.032 . S
O134 C137 1.259 . S
O135 Mg126 2.114 . S
O135 C138 1.252 . S
O136 Mg126 2.251 . S
O136 Mg129 2.079 . S
O136 C138 1.273 . S
C137 O133 1.246 . S
C137 O134 1.259 . S
C138 O135 1.252 . S
C138 O136 1.273 . S
O139 Mg126 2.010 . S
O139 C131 1.249 . S
Mg140 O141 2.028 . S
Mg140 O147 1.986 . S
Mg140 O149 2.114 . S
Mg140 O150 2.251 . S
Mg140 O153 2.010 . S
O141 Mg140 2.028 . S
O141 C144 1.250 . S
O142 Mg143 2.028 . S
O142 C144 1.248 . S
Mg143 O142 2.028 . S
Mg143 O148 2.032 . S
Mg143 O150 2.079 . S
C144 O141 1.250 . S
C144 O142 1.248 . S
C145 O146 1.264 . S
C145 O153 1.249 . S
O146 C145 1.264 . S
O147 Mg140 1.986 . S
O147 C151 1.246 . S
O148 Mg143 2.032 . S
O148 C151 1.259 . S
O149 Mg140 2.114 . S
O149 C152 1.252 . S
O150 Mg140 2.251 . S
O150 Mg143 2.079 . S
O150 C152 1.273 . S
C151 O147 1.246 . S
C151 O148 1.259 . S
C152 O149 1.252 . S
C152 O150 1.273 . S
O153 Mg140 2.010 . S
O153 C145 1.249 . S
Mg154 O155 2.028 1_554 S
Mg154 O161 1.986 . S
Mg154 O163 2.114 1_554 S
Mg154 O164 2.251 . S
Mg154 O167 2.010 . S
O155 Mg154 2.028 1_556 S
O155 C158 1.250 . S
O156 Mg157 2.028 1_556 S
O156 C158 1.248 . S
Mg157 O156 2.028 1_554 S
Mg157 O162 2.032 . S
Mg157 O164 2.079 . S
C158 O155 1.250 . S
C158 O156 1.248 . S
C159 O160 1.264 . S
C159 O167 1.249 . S
O160 C159 1.264 . S
O161 Mg154 1.986 . S
O161 C165 1.246 . S
O162 Mg157 2.032 . S
O162 C165 1.259 . S
O163 Mg154 2.114 1_556 S
O163 C166 1.252 1_556 S
O164 Mg154 2.251 . S
O164 Mg157 2.079 . S
O164 C166 1.273 . S
C165 O161 1.246 . S
C165 O162 1.259 . S
C166 O163 1.252 1_554 S
C166 O164 1.273 . S
O167 Mg154 2.010 . S
O167 C159 1.249 . S
Mg168 O169 2.028 . S
Mg168 O175 1.986 . S
Mg168 O177 2.114 . S
Mg168 O178 2.251 . S
Mg168 O181 2.010 . S
O169 Mg168 2.028 . S
O169 C172 1.250 . S
O170 Mg171 2.028 . S
O170 C172 1.248 . S
Mg171 O170 2.028 . S
Mg171 O176 2.032 . S
Mg171 O178 2.079 . S
C172 O169 1.250 . S
C172 O170 1.248 . S
C173 O174 1.264 . S
C173 O181 1.249 . S
O174 C173 1.264 . S
O175 Mg168 1.986 . S
O175 C179 1.246 . S
O176 Mg171 2.032 . S
O176 C179 1.259 . S
O177 Mg168 2.114 . S
O177 C180 1.252 . S
O178 Mg168 2.251 . S
O178 Mg171 2.079 . S
O178 C180 1.273 . S
C179 O175 1.246 . S
C179 O176 1.259 . S
C180 O177 1.252 . S
C180 O178 1.273 . S
O181 Mg168 2.010 . S
O181 C173 1.249 . S
Mg182 O183 2.028 . S
Mg182 O189 1.986 . S
Mg182 O191 2.114 . S
Mg182 O192 2.251 . S
Mg182 O195 2.010 . S
O183 Mg182 2.028 . S
O183 C186 1.250 . S
O184 Mg185 2.028 . S
O184 C186 1.248 . S
Mg185 O184 2.028 . S
Mg185 O190 2.032 . S
Mg185 O192 2.079 . S
C186 O183 1.250 . S
C186 O184 1.248 . S
C187 O188 1.264 . S
C187 O195 1.249 . S
O188 C187 1.264 . S
O189 Mg182 1.986 . S
O189 C193 1.246 . S
O190 Mg185 2.032 . S
O190 C193 1.259 . S
O191 Mg182 2.114 . S
O191 C194 1.252 . S
O192 Mg182 2.251 . S
O192 Mg185 2.079 . S
O192 C194 1.273 . S
C193 O189 1.246 . S
C193 O190 1.259 . S
C194 O191 1.252 . S
C194 O192 1.273 . S
O195 Mg182 2.010 . S
O195 C187 1.249 . S
Mg196 O197 2.028 . S
Mg196 O203 1.986 . S
Mg196 O205 2.114 . S
Mg196 O206 2.251 . S
Mg196 O209 2.010 . S
O197 Mg196 2.028 . S
O197 C200 1.250 . S
O198 Mg199 2.028 . S
O198 C200 1.248 . S
Mg199 O198 2.028 . S
Mg199 O204 2.032 . S
Mg199 O206 2.079 . S
C200 O197 1.250 . S
C200 O198 1.248 . S
C201 O202 1.264 . S
C201 O209 1.249 . S
O202 C201 1.264 . S
O203 Mg196 1.986 . S
O203 C207 1.246 . S
O204 Mg199 2.032 . S
O204 C207 1.259 . S
O205 Mg196 2.114 . S
O205 C208 1.252 . S
O206 Mg196 2.251 . S
O206 Mg199 2.079 . S
O206 C208 1.273 . S
C207 O203 1.246 . S
C207 O204 1.259 . S
C208 O205 1.252 . S
C208 O206 1.273 . S
O209 Mg196 2.010 . S
O209 C201 1.249 . S
Mg210 O211 2.028 . S
Mg210 O217 1.986 . S
Mg210 O219 2.114 . S
Mg210 O220 2.251 . S
Mg210 O223 2.010 . S
O211 Mg210 2.028 . S
O211 C214 1.250 . S
O212 Mg213 2.028 . S
O212 C214 1.248 . S
Mg213 O212 2.028 . S
Mg213 O218 2.032 . S
Mg213 O220 2.079 . S
C214 O211 1.250 . S
C214 O212 1.248 . S
C215 O216 1.264 . S
C215 O223 1.249 . S
O216 C215 1.264 . S
O217 Mg210 1.986 . S
O217 C221 1.246 . S
O218 Mg213 2.032 . S
O218 C221 1.259 . S
O219 Mg210 2.114 . S
O219 C222 1.252 . S
O220 Mg210 2.251 . S
O220 Mg213 2.079 . S
O220 C222 1.273 . S
C221 O217 1.246 . S
C221 O218 1.259 . S
C222 O219 1.252 . S
C222 O220 1.273 . S
O223 Mg210 2.010 . S
O223 C215 1.249 . S
Mg224 O225 2.028 1_545 S
Mg224 O231 1.986 . S
Mg224 O233 2.114 . S
Mg224 O234 2.251 . S
Mg224 O237 2.010 . S
O225 Mg224 2.028 1_565 S
O225 C228 1.250 . S
O226 Mg227 2.028 1_565 S
O226 C228 1.248 . S
Mg227 O226 2.028 1_545 S
Mg227 O232 2.032 . S
Mg227 O234 2.079 . S
C228 O225 1.250 . S
C228 O226 1.248 . S
C229 O230 1.264 . S
C229 O237 1.249 . S
O230 C229 1.264 . S
O231 Mg224 1.986 . S
O231 C235 1.246 . S
O232 Mg227 2.032 . S
O232 C235 1.259 . S
O233 Mg224 2.114 . S
O233 C236 1.252 . S
O234 Mg224 2.251 . S
O234 Mg227 2.079 . S
O234 C236 1.273 . S
C235 O231 1.246 . S
C235 O232 1.259 . S
C236 O233 1.252 . S
C236 O234 1.273 . S
O237 Mg224 2.010 . S
O237 C229 1.249 . S
Mg238 O239 2.028 . S
Mg238 O245 1.986 . S
Mg238 O247 2.114 . S
Mg238 O248 2.251 . S
Mg238 O251 2.010 . S
O239 Mg238 2.028 . S
O239 C242 1.250 . S
O240 Mg241 2.028 . S
O240 C242 1.248 . S
Mg241 O240 2.028 . S
Mg241 O246 2.032 . S
Mg241 O248 2.079 . S
C242 O239 1.250 . S
C242 O240 1.248 . S
C243 O244 1.264 . S
C243 O251 1.249 . S
O244 C243 1.264 . S
O245 Mg238 1.986 . S
O245 C249 1.246 . S
O246 Mg241 2.032 . S
O246 C249 1.259 . S
O247 Mg238 2.114 . S
O247 C250 1.252 . S
O248 Mg238 2.251 . S
O248 Mg241 2.079 . S
O248 C250 1.273 . S
C249 O245 1.246 . S
C249 O246 1.259 . S
C250 O247 1.252 . S
C250 O248 1.273 . S
O251 Mg238 2.010 . S
O251 C243 1.249 . S
Mg252 O253 2.028 . S
Mg252 O259 1.986 . S
Mg252 O261 2.114 . S
Mg252 O262 2.251 . S
Mg252 O265 2.010 . S
O253 Mg252 2.028 . S
O253 C256 1.250 . S
O254 Mg255 2.028 . S
O254 C256 1.248 . S
Mg255 O254 2.028 . S
Mg255 O260 2.032 . S
Mg255 O262 2.079 . S
C256 O253 1.250 . S
C256 O254 1.248 . S
C257 O258 1.264 . S
C257 O265 1.249 . S
O258 C257 1.264 . S
O259 Mg252 1.986 . S
O259 C263 1.246 . S
O260 Mg255 2.032 . S
O260 C263 1.259 . S
O261 Mg252 2.114 . S
O261 C264 1.252 . S
O262 Mg252 2.251 . S
O262 Mg255 2.079 . S
O262 C264 1.273 . S
C263 O259 1.246 . S
C263 O260 1.259 . S
C264 O261 1.252 . S
C264 O262 1.273 . S
O265 Mg252 2.010 . S
O265 C257 1.249 . S
Mg266 O267 2.028 . S
Mg266 O273 1.986 . S
Mg266 O275 2.114 . S
Mg266 O276 2.251 . S
Mg266 O279 2.010 . S
O267 Mg266 2.028 . S
O267 C270 1.250 . S
O268 Mg269 2.028 . S
O268 C270 1.248 . S
Mg269 O268 2.028 . S
Mg269 O274 2.032 . S
Mg269 O276 2.079 . S
C270 O267 1.250 . S
C270 O268 1.248 . S
C271 O272 1.264 . S
C271 O279 1.249 . S
O272 C271 1.264 . S
O273 Mg266 1.986 . S
O273 C277 1.246 . S
O274 Mg269 2.032 . S
O274 C277 1.259 . S
O275 Mg266 2.114 . S
O275 C278 1.252 . S
O276 Mg266 2.251 . S
O276 Mg269 2.079 . S
O276 C278 1.273 . S
C277 O273 1.246 . S
C277 O274 1.259 . S
C278 O275 1.252 . S
C278 O276 1.273 . S
O279 Mg266 2.010 . S
O279 C271 1.249 . S
Mg280 O281 2.028 1_556 S
Mg280 O287 1.986 . S
Mg280 O289 2.114 1_556 S
Mg280 O290 2.251 . S
Mg280 O293 2.010 . S
O281 Mg280 2.028 1_554 S
O281 C284 1.250 . S
O282 Mg283 2.028 . S
O282 C284 1.248 . S
Mg283 O282 2.028 . S
Mg283 O288 2.032 1_554 S
Mg283 O290 2.079 1_554 S
C284 O281 1.250 . S
C284 O282 1.248 . S
C285 O286 1.264 . S
C285 O293 1.249 . S
O286 C285 1.264 . S
O287 Mg280 1.986 . S
O287 C291 1.246 . S
O288 Mg283 2.032 1_556 S
O288 C291 1.259 . S
O289 Mg280 2.114 1_554 S
O289 C292 1.252 . S
O290 Mg280 2.251 . S
O290 Mg283 2.079 1_556 S
O290 C292 1.273 1_556 S
C291 O287 1.246 . S
C291 O288 1.259 . S
C292 O289 1.252 . S
C292 O290 1.273 1_554 S
O293 Mg280 2.010 . S
O293 C285 1.249 . S
Mg294 O295 2.028 . S
Mg294 O301 1.986 . S
Mg294 O303 2.114 . S
Mg294 O304 2.251 . S
Mg294 O307 2.010 . S
O295 Mg294 2.028 . S
O295 C298 1.250 . S
O296 Mg297 2.028 . S
O296 C298 1.248 . S
Mg297 O296 2.028 . S
Mg297 O302 2.032 . S
Mg297 O304 2.079 . S
C298 O295 1.250 . S
C298 O296 1.248 . S
C299 O300 1.264 . S
C299 O307 1.249 . S
O300 C299 1.264 . S
O301 Mg294 1.986 . S
O301 C305 1.246 . S
O302 Mg297 2.032 . S
O302 C305 1.259 . S
O303 Mg294 2.114 . S
O303 C306 1.252 . S
O304 Mg294 2.251 . S
O304 Mg297 2.079 . S
O304 C306 1.273 . S
C305 O301 1.246 . S
C305 O302 1.259 . S
C306 O303 1.252 . S
C306 O304 1.273 . S
O307 Mg294 2.010 . S
O307 C299 1.249 . S
Mg308 O309 2.028 . S
Mg308 O315 1.986 . S
Mg308 O317 2.114 . S
Mg308 O318 2.251 . S
Mg308 O321 2.010 . S
O309 Mg308 2.028 . S
O309 C312 1.250 . S
O310 Mg311 2.028 . S
O310 C312 1.248 . S
Mg311 O310 2.028 . S
Mg311 O316 2.032 . S
Mg311 O318 2.079 . S
C312 O309 1.250 . S
C312 O310 1.248 . S
C313 O314 1.264 . S
C313 O321 1.249 . S
O314 C313 1.264 . S
O315 Mg308 1.986 . S
O315 C319 1.246 . S
O316 Mg311 2.032 . S
O316 C319 1.259 . S
O317 Mg308 2.114 . S
O317 C320 1.252 . S
O318 Mg308 2.251 . S
O318 Mg311 2.079 . S
O318 C320 1.273 . S
C319 O315 1.246 . S
C319 O316 1.259 . S
C320 O317 1.252 . S
C320 O318 1.273 . S
O321 Mg308 2.010 . S
O321 C313 1.249 . S
Mg322 O323 2.028 . S
Mg322 O329 1.986 . S
Mg322 O331 2.114 . S
Mg322 O332 2.251 . S
Mg322 O335 2.010 . S
O323 Mg322 2.028 . S
O323 C326 1.250 . S
O324 Mg325 2.028 . S
O324 C326 1.248 . S
Mg325 O324 2.028 . S
Mg325 O330 2.032 . S
Mg325 O332 2.079 . S
C326 O323 1.250 . S
C326 O324 1.248 . S
C327 O328 1.264 . S
C327 O335 1.249 . S
O328 C327 1.264 . S
O329 Mg322 1.986 . S
O329 C333 1.246 . S
O330 Mg325 2.032 . S
O330 C333 1.259 . S
O331 Mg322 2.114 . S
O331 C334 1.252 . S
O332 Mg322 2.251 . S
O332 Mg325 2.079 . S
O332 C334 1.273 . S
C333 O329 1.246 . S
C333 O330 1.259 . S
C334 O331 1.252 . S
C334 O332 1.273 . S
O335 Mg322 2.010 . S
O335 C327 1.249 . S
C336 C338 1.422 . S
C336 C340 1.415 . S
C336 N342 1.369 . S
C337 C338 1.409 1_554 S
C337 C339 1.401 1_554 S
C337 C349 1.451 . S
C338 C336 1.422 . S
C338 C337 1.409 1_556 S
C338 N348 1.359 1_556 S
C339 C337 1.401 1_556 S
C339 C341 1.329 . S
C339 H358 0.930 . S
C340 C336 1.415 . S
C340 C341 1.437 . S
C340 C344 1.413 . S
C341 C339 1.329 . S
C341 C340 1.437 . S
C341 H363 0.929 . S
N342 C336 1.369 . S
N342 C343 1.338 . S
N342 Gd347 2.622 1_565 S
C343 N342 1.338 . S
C343 C345 1.378 . S
C343 H355 0.929 . S
C344 C340 1.413 . S
C344 C345 1.348 . S
C344 H360 0.931 . S
C345 C343 1.378 . S
C345 C344 1.348 . S
C345 H361 0.930 . S
Gd346 N366 2.622 . S
Gd346 N373 2.570 . S
Gd346 O380 2.353 1_545 S
Gd346 O381 2.468 . S
Gd346 O382 2.427 . S
Gd346 O384 2.388 . S
Gd346 O385 2.386 . S
Gd346 O389 2.307 1_554 S
Gd346 C399 2.805 . S
Gd347 N342 2.622 1_545 S
Gd347 N348 2.570 1_546 S
Gd347 O379 2.386 1_646 S
Gd347 O383 2.307 1_656 S
Gd347 O386 2.353 1_656 S
Gd347 O387 2.468 1_556 S
Gd347 O388 2.427 . S
Gd347 O390 2.388 1_655 S
Gd347 C411 2.805 . S
N348 C338 1.359 1_554 S
N348 Gd347 2.570 1_564 S
N348 C350 1.343 . S
C349 C337 1.451 . S
C349 C351 1.321 . S
C349 H357 0.931 . S
C350 N348 1.343 . S
C350 C351 1.390 . S
C350 H352 0.931 . S
C351 C349 1.321 . S
C351 C350 1.390 . S
C351 H353 0.930 . S
H352 C350 0.931 . S
H353 C351 0.930 . S
H354 C377 0.901 1_556 S
H355 C343 0.929 . S
H356 C378 0.930 . S
H357 C349 0.931 . S
H358 C339 0.930 . S
H359 C368 0.929 . S
H360 C344 0.931 . S
H361 C345 0.930 . S
H362 C400 0.930 . S
H363 C341 0.929 . S
H364 C369 0.931 . S
H365 C370 0.930 . S
N366 Gd346 2.622 . S
N366 C367 1.369 . S
N366 C368 1.338 . S
C367 N366 1.369 . S
C367 C371 1.415 . S
C367 C374 1.422 . S
C368 H359 0.929 . S
C368 N366 1.338 . S
C368 C370 1.378 . S
C369 H364 0.931 . S
C369 C370 1.348 . S
C369 C371 1.413 . S
C370 H365 0.930 . S
C370 C368 1.378 . S
C370 C369 1.348 . S
C371 C367 1.415 . S
C371 C369 1.413 . S
C371 C401 1.437 . S
H372 C401 0.929 . S
N373 Gd346 2.570 . S
N373 C374 1.359 . S
N373 C377 1.402 . S
C374 C367 1.422 . S
C374 N373 1.359 . S
C374 C376 1.421 . S
C375 C376 1.422 . S
C375 C378 1.321 1_554 S
C375 H402 0.931 . S
C376 C374 1.421 . S
C376 C375 1.422 . S
C376 C400 1.417 . S
C377 H354 0.901 1_554 S
C377 N373 1.402 . S
C377 C378 1.363 1_554 S
C378 H356 0.930 . S
C378 C375 1.321 1_556 S
C378 C377 1.363 1_556 S
O379 Gd347 2.386 1_464 S
O379 C391 1.265 . S
O380 Gd346 2.353 1_565 S
O380 C391 1.242 . S
O381 Gd346 2.468 . S
O381 C399 1.263 . S
O382 Gd346 2.427 . S
O382 C399 1.252 . S
O383 Gd347 2.307 1_454 S
O383 C392 1.261 . S
O384 Gd346 2.388 . S
O384 C392 1.252 . S
O385 Gd346 2.386 . S
O385 C403 1.265 . S
O386 Gd347 2.353 1_454 S
O386 C403 1.242 . S
O387 Gd347 2.468 1_554 S
O387 C411 1.263 1_554 S
O388 Gd347 2.427 . S
O388 C411 1.252 . S
O389 Gd346 2.307 1_556 S
O389 C404 1.261 . S
O390 Gd347 2.388 1_455 S
O390 C404 1.252 . S
C391 O379 1.265 . S
C391 O380 1.242 . S
C392 O383 1.261 . S
C392 O384 1.252 . S
C393 C396 1.394 . S
C393 C398 1.370 . S
C393 C399 1.500 . S
C394 C397 1.396 1_565 S
C394 C398 1.375 1_565 S
C395 C396 1.396 . S
C395 C397 1.375 . S
C395 H412 0.929 . S
C396 C393 1.394 . S
C396 C395 1.396 . S
C396 H413 0.930 . S
C397 C394 1.396 1_545 S
C397 C395 1.375 . S
C397 H414 0.918 1_545 S
C398 C393 1.370 . S
C398 C394 1.375 1_545 S
C398 H415 0.930 . S
C399 Gd346 2.805 . S
C399 O381 1.263 . S
C399 O382 1.252 . S
C399 C393 1.500 . S
C400 H362 0.930 . S
C400 C376 1.417 . S
C400 C401 1.329 . S
C401 C371 1.437 . S
C401 H372 0.929 . S
C401 C400 1.329 . S
H402 C375 0.931 . S
C403 O385 1.265 . S
C403 O386 1.242 . S
C404 O389 1.261 . S
C404 O390 1.252 . S
C405 C408 1.394 . S
C405 C410 1.370 1_556 S
C405 C411 1.500 . S
C406 C409 1.377 . S
C406 C410 1.396 1_556 S
C407 C408 1.396 . S
C407 C409 1.365 . S
C407 H416 0.929 . S
C408 C405 1.394 . S
C408 C407 1.396 . S
C408 H417 0.930 . S
C409 C406 1.377 . S
C409 C407 1.365 . S
C409 H418 0.931 . S
C410 C405 1.370 1_554 S
C410 C406 1.396 1_554 S
C410 H419 0.930 . S
C411 Gd347 2.805 . S
C411 O387 1.263 1_556 S
C411 O388 1.252 . S
C411 C405 1.500 . S
H412 C395 0.929 . S
H413 C396 0.930 . S
H414 C397 0.918 1_565 S
H415 C398 0.930 . S
H416 C407 0.929 . S
H417 C408 0.930 . S
H418 C409 0.931 . S
H419 C410 0.930 . S
C420 C422 1.422 . S
C420 C424 1.415 . S
C420 N426 1.369 . S
C421 C422 1.421 . S
C421 C423 1.417 . S
C421 C433 1.422 . S
C422 C420 1.422 . S
C422 C421 1.421 . S
C422 N432 1.359 . S
C423 C421 1.417 . S
C423 C425 1.329 . S
C423 H442 0.930 . S
C424 C420 1.415 . S
C424 C425 1.437 . S
C424 C428 1.413 . S
C425 C423 1.329 . S
C425 C424 1.437 . S
C425 H447 0.929 . S
N426 C420 1.369 . S
N426 C427 1.338 . S
N426 Gd431 2.622 . S
C427 N426 1.338 . S
C427 C429 1.378 . S
C427 H439 0.929 . S
C428 C424 1.413 . S
C428 C429 1.348 . S
C428 H444 0.931 . S
C429 C427 1.378 . S
C429 C428 1.348 . S
C429 H445 0.930 . S
Gd430 N450 2.622 . S
Gd430 N457 2.570 . S
Gd430 O464 2.353 . S
Gd430 O465 2.468 . S
Gd430 O466 2.427 . S
Gd430 O468 2.388 . S
Gd430 O469 2.386 . S
Gd430 O473 2.307 . S
Gd430 C483 2.805 . S
Gd431 N426 2.622 . S
Gd431 N432 2.570 . S
Gd431 O463 2.386 . S
Gd431 O467 2.307 . S
Gd431 O470 2.353 . S
Gd431 O471 2.468 . S
Gd431 O472 2.427 . S
Gd431 O474 2.388 . S
Gd431 C495 2.805 . S
N432 C422 1.359 . S
N432 Gd431 2.570 . S
N432 C434 1.343 . S
C433 C421 1.422 . S
C433 C435 1.321 . S
C433 H441 0.931 . S
C434 N432 1.343 . S
C434 C435 1.390 . S
C434 H436 0.931 . S
C435 C433 1.321 . S
C435 C434 1.390 . S
C435 H437 0.930 . S
H436 C434 0.931 . S
H437 C435 0.930 . S
H438 C461 0.931 . S
H439 C427 0.929 . S
H440 C462 0.930 . S
H441 C433 0.931 . S
H442 C423 0.930 . S
H443 C452 0.929 . S
H444 C428 0.931 . S
H445 C429 0.930 . S
H446 C484 0.930 . S
H447 C425 0.929 . S
H448 C453 0.931 . S
H449 C454 0.930 . S
N450 Gd430 2.622 . S
N450 C451 1.369 . S
N450 C452 1.338 . S
C451 N450 1.369 . S
C451 C455 1.415 . S
C451 C458 1.422 . S
C452 H443 0.929 . S
C452 N450 1.338 . S
C452 C454 1.378 . S
C453 H448 0.931 . S
C453 C454 1.348 . S
C453 C455 1.413 . S
C454 H449 0.930 . S
C454 C452 1.378 . S
C454 C453 1.348 . S
C455 C451 1.415 . S
C455 C453 1.413 . S
C455 C485 1.437 . S
H456 C485 0.929 . S
N457 Gd430 2.570 . S
N457 C458 1.359 . S
N457 C461 1.343 . S
C458 C451 1.422 . S
C458 N457 1.359 . S
C458 C460 1.421 . S
C459 C460 1.422 . S
C459 C462 1.321 . S
C459 H486 0.931 . S
C460 C458 1.421 . S
C460 C459 1.422 . S
C460 C484 1.417 . S
C461 H438 0.931 . S
C461 N457 1.343 . S
C461 C462 1.390 . S
C462 H440 0.930 . S
C462 C459 1.321 . S
C462 C461 1.390 . S
O463 Gd431 2.386 . S
O463 C475 1.265 . S
O464 Gd430 2.353 . S
O464 C475 1.242 . S
O465 Gd430 2.468 . S
O465 C483 1.263 . S
O466 Gd430 2.427 . S
O466 C483 1.252 . S
O467 Gd431 2.307 . S
O467 C476 1.261 . S
O468 Gd430 2.388 . S
O468 C476 1.252 . S
O469 Gd430 2.386 . S
O469 C487 1.265 . S
O470 Gd431 2.353 . S
O470 C487 1.242 . S
O471 Gd431 2.468 . S
O471 C495 1.263 . S
O472 Gd431 2.427 . S
O472 C495 1.252 . S
O473 Gd430 2.307 . S
O473 C488 1.261 . S
O474 Gd431 2.388 . S
O474 C488 1.252 . S
C475 O463 1.265 . S
C475 O464 1.242 . S
C476 O467 1.261 . S
C476 O468 1.252 . S
C477 C480 1.394 . S
C477 C482 1.370 . S
C477 C483 1.500 . S
C478 C481 1.383 . S
C478 C482 1.395 . S
C479 C480 1.396 . S
C479 C481 1.365 . S
C479 H496 0.929 . S
C480 C477 1.394 . S
C480 C479 1.396 . S
C480 H497 0.930 . S
C481 C478 1.383 . S
C481 C479 1.365 . S
C481 H498 0.931 . S
C482 C477 1.370 . S
C482 C478 1.395 . S
C482 H499 0.930 . S
C483 Gd430 2.805 . S
C483 O465 1.263 . S
C483 O466 1.252 . S
C483 C477 1.500 . S
C484 H446 0.930 . S
C484 C460 1.417 . S
C484 C485 1.329 . S
C485 C455 1.437 . S
C485 H456 0.929 . S
C485 C484 1.329 . S
H486 C459 0.931 . S
C487 O469 1.265 . S
C487 O470 1.242 . S
C488 O473 1.261 . S
C488 O474 1.252 . S
C489 C492 1.394 . S
C489 C494 1.370 . S
C489 C495 1.500 . S
C490 C493 1.383 . S
C490 C494 1.395 . S
C491 C492 1.396 . S
C491 C493 1.365 . S
C491 H500 0.929 . S
C492 C489 1.394 . S
C492 C491 1.396 . S
C492 H501 0.930 . S
C493 C490 1.383 . S
C493 C491 1.365 . S
C493 H502 0.931 . S
C494 C489 1.370 . S
C494 C490 1.395 . S
C494 H503 0.930 . S
C495 Gd431 2.805 . S
C495 O471 1.263 . S
C495 O472 1.252 . S
C495 C489 1.500 . S
H496 C479 0.929 . S
H497 C480 0.930 . S
H498 C481 0.931 . S
H499 C482 0.930 . S
H500 C491 0.929 . S
H501 C492 0.930 . S
H502 C493 0.931 . S
H503 C494 0.930 . S
C504 C506 1.422 . S
C504 C508 1.415 . S
C504 N510 1.369 . S
C505 C506 1.421 . S
C505 C507 1.417 . S
C505 C517 1.422 . S
C506 C504 1.422 . S
C506 C505 1.421 . S
C506 N516 1.359 . S
C507 C505 1.417 . S
C507 C509 1.329 . S
C507 H526 0.930 . S
C508 C504 1.415 . S
C508 C509 1.437 . S
C508 C512 1.413 . S
C509 C507 1.329 . S
C509 C508 1.437 . S
C509 H531 0.929 . S
N510 C504 1.369 . S
N510 C511 1.338 . S
N510 Gd515 2.622 . S
C511 N510 1.338 . S
C511 C513 1.378 . S
C511 H523 0.929 . S
C512 C508 1.413 . S
C512 C513 1.348 . S
C512 H528 0.931 . S
C513 C511 1.378 . S
C513 C512 1.348 . S
C513 H529 0.930 . S
Gd514 N534 2.622 1_545 S
Gd514 N541 2.570 1_545 S
Gd514 O548 2.353 . S
Gd514 O549 2.468 . S
Gd514 O550 2.427 . S
Gd514 O552 2.388 . S
Gd514 O553 2.386 1_545 S
Gd514 O557 2.307 . S
Gd514 C567 2.805 . S
Gd515 N510 2.622 . S
Gd515 N516 2.570 . S
Gd515 O547 2.386 . S
Gd515 O551 2.307 . S
Gd515 O554 2.353 1_545 S
Gd515 O555 2.468 . S
Gd515 O556 2.427 . S
Gd515 O558 2.388 . S
Gd515 C579 2.805 . S
N516 C506 1.359 . S
N516 Gd515 2.570 . S
N516 C518 1.343 . S
C517 C505 1.422 . S
C517 C519 1.321 . S
C517 H525 0.931 . S
C518 N516 1.343 . S
C518 C519 1.390 . S
C518 H520 0.931 . S
C519 C517 1.321 . S
C519 C518 1.390 . S
C519 H521 0.930 . S
H520 C518 0.931 . S
H521 C519 0.930 . S
H522 C545 0.982 . S
H523 C511 0.929 . S
H524 C546 0.930 . S
H525 C517 0.931 . S
H526 C507 0.930 . S
H527 C536 0.969 . S
H528 C512 0.931 . S
H529 C513 0.930 . S
H530 C568 0.930 . S
H531 C509 0.929 . S
H532 C537 0.931 . S
H533 C538 0.930 . S
N534 Gd514 2.622 1_565 S
N534 C535 1.369 . S
N534 C536 1.343 1_565 S
C535 N534 1.369 . S
C535 C539 1.415 . S
C535 C542 1.422 . S
C536 H527 0.969 . S
C536 N534 1.343 1_545 S
C536 C538 1.337 1_545 S
C537 H532 0.931 . S
C537 C538 1.348 . S
C537 C539 1.413 . S
C538 H533 0.930 . S
C538 C536 1.337 1_565 S
C538 C537 1.348 . S
C539 C535 1.415 . S
C539 C537 1.413 . S
C539 C569 1.437 . S
H540 C569 0.929 . S
N541 Gd514 2.570 1_565 S
N541 C542 1.359 . S
N541 C545 1.343 . S
C542 C535 1.422 . S
C542 N541 1.359 . S
C542 C544 1.421 . S
C543 C544 1.422 . S
C543 C546 1.321 . S
C543 H570 0.931 . S
C544 C542 1.421 . S
C544 C543 1.422 . S
C544 C568 1.417 . S
C545 H522 0.982 . S
C545 N541 1.343 . S
C545 C546 1.390 . S
C546 H524 0.930 . S
C546 C543 1.321 . S
C546 C545 1.390 . S
O547 Gd515 2.386 . S
O547 C559 1.265 . S
O548 Gd514 2.353 . S
O548 C559 1.242 . S
O549 Gd514 2.468 . S
O549 C567 1.263 . S
O550 Gd514 2.427 . S
O550 C567 1.252 . S
O551 Gd515 2.307 . S
O551 C560 1.261 . S
O552 Gd514 2.388 . S
O552 C560 1.252 . S
O553 Gd514 2.386 1_565 S
O553 C571 1.265 . S
O554 Gd515 2.353 1_565 S
O554 C571 1.242 . S
O555 Gd515 2.468 . S
O555 C579 1.263 . S
O556 Gd515 2.427 . S
O556 C579 1.252 . S
O557 Gd514 2.307 . S
O557 C572 1.261 . S
O558 Gd515 2.388 . S
O558 C572 1.252 . S
C559 O547 1.265 . S
C559 O548 1.242 . S
C560 O551 1.261 . S
C560 O552 1.252 . S
C561 C564 1.394 . S
C561 C566 1.370 . S
C561 C567 1.500 . S
C562 C565 1.383 . S
C562 C566 1.395 . S
C563 C564 1.396 . S
C563 C565 1.365 . S
C563 H580 0.929 . S
C564 C561 1.394 . S
C564 C563 1.396 . S
C564 H581 0.930 . S
C565 C562 1.383 . S
C565 C563 1.365 . S
C565 H582 0.931 . S
C566 C561 1.370 . S
C566 C562 1.395 . S
C566 H583 0.930 . S
C567 Gd514 2.805 . S
C567 O549 1.263 . S
C567 O550 1.252 . S
C567 C561 1.500 . S
C568 H530 0.930 . S
C568 C544 1.417 . S
C568 C569 1.329 . S
C569 C539 1.437 . S
C569 H540 0.929 . S
C569 C568 1.329 . S
H570 C543 0.931 . S
C571 O553 1.265 . S
C571 O554 1.242 . S
C572 O557 1.261 . S
C572 O558 1.252 . S
C573 C576 1.394 . S
C573 C578 1.370 . S
C573 C579 1.500 1_565 S
C574 C577 1.383 . S
C574 C578 1.395 . S
C575 C576 1.396 . S
C575 C577 1.365 . S
C575 H584 0.929 . S
C576 C573 1.394 . S
C576 C575 1.396 . S
C576 H585 0.930 . S
C577 C574 1.383 . S
C577 C575 1.365 . S
C577 H586 0.931 . S
C578 C573 1.370 . S
C578 C574 1.395 . S
C578 H587 0.930 . S
C579 Gd515 2.805 . S
C579 O555 1.263 . S
C579 O556 1.252 . S
C579 C573 1.500 1_545 S
H580 C563 0.929 . S
H581 C564 0.930 . S
H582 C565 0.931 . S
H583 C566 0.930 . S
H584 C575 0.929 . S
H585 C576 0.930 . S
H586 C577 0.931 . S
H587 C578 0.930 . S
C588 C590 1.422 . S
C588 C592 1.415 . S
C588 N594 1.369 . S
C589 C590 1.421 . S
C589 C591 1.417 . S
C589 C601 1.422 . S
C590 C588 1.422 . S
C590 C589 1.421 . S
C590 N600 1.359 . S
C591 C589 1.417 . S
C591 C593 1.329 . S
C591 H610 0.930 . S
C592 C588 1.415 . S
C592 C593 1.437 . S
C592 C596 1.413 . S
C593 C591 1.329 . S
C593 C592 1.437 . S
C593 H615 0.929 . S
N594 C588 1.369 . S
N594 C595 1.338 . S
N594 Gd599 2.622 . S
C595 N594 1.338 . S
C595 C597 1.378 . S
C595 H607 0.929 . S
C596 C592 1.413 . S
C596 C597 1.348 . S
C596 H612 0.931 . S
C597 C595 1.378 . S
C597 C596 1.348 . S
C597 H613 0.930 . S
Gd598 N618 2.622 . S
Gd598 N625 2.570 . S
Gd598 O632 2.353 . S
Gd598 O633 2.468 . S
Gd598 O634 2.427 . S
Gd598 O636 2.388 . S
Gd598 O637 2.386 . S
Gd598 O641 2.307 . S
Gd598 C651 2.805 . S
Gd599 N594 2.622 . S
Gd599 N600 2.570 . S
Gd599 O631 2.386 . S
Gd599 O635 2.307 . S
Gd599 O638 2.353 . S
Gd599 O639 2.468 . S
Gd599 O640 2.427 . S
Gd599 O642 2.388 . S
Gd599 C663 2.805 . S
N600 C590 1.359 . S
N600 Gd599 2.570 . S
N600 C602 1.343 . S
C601 C589 1.422 . S
C601 C603 1.321 . S
C601 H609 0.931 . S
C602 N600 1.343 . S
C602 C603 1.390 . S
C602 H604 0.931 . S
C603 C601 1.321 . S
C603 C602 1.390 . S
C603 H605 0.930 . S
H604 C602 0.931 . S
H605 C603 0.930 . S
H606 C629 0.931 . S
H607 C595 0.929 . S
H608 C630 0.930 . S
H609 C601 0.931 . S
H610 C591 0.930 . S
H611 C620 0.929 . S
H612 C596 0.931 . S
H613 C597 0.930 . S
H614 C652 0.930 . S
H615 C593 0.929 . S
H616 C621 0.931 . S
H617 C622 0.930 . S
N618 Gd598 2.622 . S
N618 C619 1.369 . S
N618 C620 1.338 . S
C619 N618 1.369 . S
C619 C623 1.415 . S
C619 C626 1.422 . S
C620 H611 0.929 . S
C620 N618 1.338 . S
C620 C622 1.378 . S
C621 H616 0.931 . S
C621 C622 1.348 . S
C621 C623 1.413 . S
C622 H617 0.930 . S
C622 C620 1.378 . S
C622 C621 1.348 . S
C623 C619 1.415 . S
C623 C621 1.413 . S
C623 C653 1.437 . S
H624 C653 0.929 . S
N625 Gd598 2.570 . S
N625 C626 1.359 . S
N625 C629 1.343 . S
C626 C619 1.422 . S
C626 N625 1.359 . S
C626 C628 1.421 . S
C627 C628 1.422 . S
C627 C630 1.321 . S
C627 H654 0.931 . S
C628 C626 1.421 . S
C628 C627 1.422 . S
C628 C652 1.417 . S
C629 H606 0.931 . S
C629 N625 1.343 . S
C629 C630 1.390 . S
C630 H608 0.930 . S
C630 C627 1.321 . S
C630 C629 1.390 . S
O631 Gd599 2.386 . S
O631 C643 1.265 . S
O632 Gd598 2.353 . S
O632 C643 1.242 . S
O633 Gd598 2.468 . S
O633 C651 1.263 . S
O634 Gd598 2.427 . S
O634 C651 1.252 . S
O635 Gd599 2.307 . S
O635 C644 1.261 . S
O636 Gd598 2.388 . S
O636 C644 1.252 . S
O637 Gd598 2.386 . S
O637 C655 1.265 . S
O638 Gd599 2.353 . S
O638 C655 1.242 . S
O639 Gd599 2.468 . S
O639 C663 1.263 . S
O640 Gd599 2.427 . S
O640 C663 1.252 . S
O641 Gd598 2.307 . S
O641 C656 1.261 . S
O642 Gd599 2.388 . S
O642 C656 1.252 . S
C643 O631 1.265 . S
C643 O632 1.242 . S
C644 O635 1.261 . S
C644 O636 1.252 . S
C645 C648 1.394 . S
C645 C650 1.370 . S
C645 C651 1.500 . S
C646 C649 1.383 . S
C646 C650 1.395 . S
C647 C648 1.396 . S
C647 C649 1.365 . S
C647 H664 0.929 . S
C648 C645 1.394 . S
C648 C647 1.396 . S
C648 H665 0.930 . S
C649 C646 1.383 . S
C649 C647 1.365 . S
C649 H666 0.931 . S
C650 C645 1.370 . S
C650 C646 1.395 . S
C650 H667 0.930 . S
C651 Gd598 2.805 . S
C651 O633 1.263 . S
C651 O634 1.252 . S
C651 C645 1.500 . S
C652 H614 0.930 . S
C652 C628 1.417 . S
C652 C653 1.329 . S
C653 C623 1.437 . S
C653 H624 0.929 . S
C653 C652 1.329 . S
H654 C627 0.931 . S
C655 O637 1.265 . S
C655 O638 1.242 . S
C656 O641 1.261 . S
C656 O642 1.252 . S
C657 C660 1.394 . S
C657 C662 1.370 . S
C657 C663 1.500 . S
C658 C661 1.383 . S
C658 C662 1.395 . S
C659 C660 1.396 . S
C659 C661 1.365 . S
C659 H668 0.929 . S
C660 C657 1.394 . S
C660 C659 1.396 . S
C660 H669 0.930 . S
C661 C658 1.383 . S
C661 C659 1.365 . S
C661 H670 0.931 . S
C662 C657 1.370 . S
C662 C658 1.395 . S
C662 H671 0.930 . S
C663 Gd599 2.805 . S
C663 O639 1.263 . S
C663 O640 1.252 . S
C663 C657 1.500 . S
H664 C647 0.929 . S
H665 C648 0.930 . S
H666 C649 0.931 . S
H667 C650 0.930 . S
H668 C659 0.929 . S
H669 C660 0.930 . S
H670 C661 0.931 . S
H671 C662 0.930 . S
C672 C674 1.419 1_655 S
C672 C676 1.417 . S
C672 N678 1.370 . S
C673 C674 1.421 . S
C673 C675 1.417 . S
C673 C685 1.422 . S
C674 C672 1.419 1_455 S
C674 C673 1.421 . S
C674 N684 1.359 . S
C675 C673 1.417 . S
C675 C677 1.380 . S
C675 H694 0.930 . S
C676 C672 1.417 . S
C676 C677 1.421 1_655 S
C676 C680 1.413 . S
C677 C675 1.380 . S
C677 C676 1.421 1_455 S
C677 H699 0.896 1_455 S
N678 C672 1.370 . S
N678 C679 1.338 . S
N678 Gd683 2.622 1_655 S
C679 N678 1.338 . S
C679 C681 1.378 . S
C679 H691 0.929 . S
C680 C676 1.413 . S
C680 C681 1.348 . S
C680 H696 0.931 . S
C681 C679 1.378 . S
C681 C680 1.348 . S
C681 H697 0.930 . S
Gd682 N702 2.622 . S
Gd682 N709 2.570 . S
Gd682 O716 2.353 1_565 S
Gd682 O717 2.468 . S
Gd682 O718 2.427 . S
Gd682 O720 2.388 1_565 S
Gd682 O721 2.386 1_565 S
Gd682 O725 2.244 1_465 S
Gd682 C735 2.805 . S
Gd683 N678 2.622 1_455 S
Gd683 N684 2.570 . S
Gd683 O715 2.386 . S
Gd683 O719 2.307 . S
Gd683 O722 2.353 . S
Gd683 O723 2.468 . S
Gd683 O724 2.427 1_455 S
Gd683 O726 2.388 1_455 S
Gd683 C747 2.805 . S
N684 C674 1.359 . S
N684 Gd683 2.570 . S
N684 C686 1.343 . S
C685 C673 1.422 . S
C685 C687 1.321 . S
C685 H693 0.931 . S
C686 N684 1.343 . S
C686 C687 1.390 . S
C686 H688 0.931 . S
C687 C685 1.321 . S
C687 C686 1.390 . S
C687 H689 0.930 . S
H688 C686 0.931 . S
H689 C687 0.930 . S
H690 C713 0.931 . S
H691 C679 0.929 . S
H692 C714 0.930 . S
H693 C685 0.931 . S
H694 C675 0.930 . S
H695 C704 0.929 1_545 S
H696 C680 0.931 . S
H697 C681 0.930 . S
H698 C736 0.930 . S
H699 C677 0.896 1_655 S
H700 C705 0.931 . S
H701 C706 0.930 . S
N702 Gd682 2.622 . S
N702 C703 1.369 . S
N702 C704 1.338 . S
C703 N702 1.369 . S
C703 C707 1.415 . S
C703 C710 1.422 . S
C704 H695 0.929 1_565 S
C704 N702 1.338 . S
C704 C706 1.378 . S
C705 H700 0.931 . S
C705 C706 1.348 . S
C705 C707 1.413 . S
C706 H701 0.930 . S
C706 C704 1.378 . S
C706 C705 1.348 . S
C707 C703 1.415 . S
C707 C705 1.413 . S
C707 C737 1.437 . S
H708 C737 0.929 . S
N709 Gd682 2.570 . S
N709 C710 1.359 . S
N709 C713 1.343 1_455 S
C710 C703 1.422 . S
C710 N709 1.359 . S
C710 C712 1.421 . S
C711 C712 1.422 1_655 S
C711 C714 1.321 . S
C711 H738 0.931 . S
C712 C710 1.421 . S
C712 C711 1.422 1_455 S
C712 C736 1.417 . S
C713 H690 0.931 . S
C713 N709 1.343 1_655 S
C713 C714 1.390 . S
C714 H692 0.930 . S
C714 C711 1.321 . S
C714 C713 1.390 . S
O715 Gd683 2.386 . S
O715 C727 1.265 . S
O716 Gd682 2.353 1_545 S
O716 C727 1.242 . S
O717 Gd682 2.468 . S
O717 C735 1.263 . S
O718 Gd682 2.427 . S
O718 C735 1.252 . S
O719 Gd683 2.307 . S
O719 C728 1.261 . S
O720 Gd682 2.388 1_545 S
O720 C728 1.252 . S
O721 Gd682 2.386 1_545 S
O721 C739 1.265 . S
O722 Gd683 2.353 . S
O722 C739 1.242 . S
O723 Gd683 2.468 . S
O723 C747 1.263 . S
O724 Gd683 2.427 1_655 S
O724 C747 1.252 1_655 S
O725 Gd682 2.244 1_645 S
O725 C740 1.319 . S
O726 Gd683 2.388 1_655 S
O726 C740 1.252 . S
C727 O715 1.265 . S
C727 O716 1.242 . S
C728 O719 1.261 . S
C728 O720 1.252 . S
C729 C732 1.394 . S
C729 C734 1.370 . S
C729 C735 1.500 . S
C730 C733 1.383 . S
C730 C734 1.395 . S
C731 C732 1.396 . S
C731 C733 1.365 . S
C731 H748 0.929 . S
C732 C729 1.394 . S
C732 C731 1.396 . S
C732 H749 0.930 . S
C733 C730 1.383 . S
C733 C731 1.365 . S
C733 H750 0.931 . S
C734 C729 1.370 . S
C734 C730 1.395 . S
C734 H751 0.930 . S
C735 Gd682 2.805 . S
C735 O717 1.263 . S
C735 O718 1.252 . S
C735 C729 1.500 . S
C736 H698 0.930 . S
C736 C712 1.417 . S
C736 C737 1.329 . S
C737 C707 1.437 . S
C737 H708 0.929 . S
C737 C736 1.329 . S
H738 C711 0.931 . S
C739 O721 1.265 . S
C739 O722 1.242 . S
C740 O725 1.319 . S
C740 O726 1.252 . S
C741 C744 1.394 1_455 S
C741 C746 1.370 . S
C741 C747 1.500 . S
C742 C745 1.383 1_455 S
C742 C746 1.395 . S
C743 C744 1.396 . S
C743 C745 1.365 . S
C743 H752 0.929 . S
C744 C741 1.394 1_655 S
C744 C743 1.396 . S
C744 H753 0.930 . S
C745 C742 1.383 1_655 S
C745 C743 1.365 . S
C745 H754 0.931 . S
C746 C741 1.370 . S
C746 C742 1.395 . S
C746 H755 0.930 . S
C747 Gd683 2.805 . S
C747 O723 1.263 . S
C747 O724 1.252 1_455 S
C747 C741 1.500 . S
H748 C731 0.929 . S
H749 C732 0.930 . S
H750 C733 0.931 . S
H751 C734 0.930 . S
H752 C743 0.929 . S
H753 C744 0.930 . S
H754 C745 0.931 . S
H755 C746 0.930 . S
C756 C758 1.422 . S
C756 C760 1.415 . S
C756 N762 1.369 . S
C757 C758 1.421 . S
C757 C759 1.417 . S
C757 C769 1.422 . S
C758 C756 1.422 . S
C758 C757 1.421 . S
C758 N768 1.359 . S
C759 C757 1.417 . S
C759 C761 1.329 . S
C759 H778 0.930 . S
C760 C756 1.415 . S
C760 C761 1.437 . S
C760 C764 1.413 . S
C761 C759 1.329 . S
C761 C760 1.437 . S
C761 H783 0.929 . S
N762 C756 1.369 . S
N762 C763 1.338 . S
N762 Gd767 2.622 . S
C763 N762 1.338 . S
C763 C765 1.378 . S
C763 H775 0.929 . S
C764 C760 1.413 . S
C764 C765 1.348 . S
C764 H780 0.931 . S
C765 C763 1.378 . S
C765 C764 1.348 . S
C765 H781 0.930 . S
Gd766 N786 2.622 . S
Gd766 N793 2.570 . S
Gd766 O800 2.353 . S
Gd766 O801 2.468 . S
Gd766 O802 2.427 . S
Gd766 O804 2.388 . S
Gd766 O805 2.386 . S
Gd766 O809 2.307 . S
Gd766 C819 2.805 . S
Gd767 N762 2.622 . S
Gd767 N768 2.570 . S
Gd767 O799 2.386 . S
Gd767 O803 2.307 . S
Gd767 O806 2.353 . S
Gd767 O807 2.468 . S
Gd767 O808 2.427 . S
Gd767 O810 2.388 . S
Gd767 C831 2.805 . S
N768 C758 1.359 . S
N768 Gd767 2.570 . S
N768 C770 1.343 . S
C769 C757 1.422 . S
C769 C771 1.321 . S
C769 H777 0.931 . S
C770 N768 1.343 . S
C770 C771 1.390 . S
C770 H772 0.931 . S
C771 C769 1.321 . S
C771 C770 1.390 . S
C771 H773 0.930 . S
H772 C770 0.931 . S
H773 C771 0.930 . S
H774 C797 0.931 . S
H775 C763 0.929 . S
H776 C798 0.930 . S
H777 C769 0.931 . S
H778 C759 0.930 . S
H779 C788 0.929 . S
H780 C764 0.931 . S
H781 C765 0.930 . S
H782 C820 0.930 . S
H783 C761 0.929 . S
H784 C789 0.931 . S
H785 C790 0.930 . S
N786 Gd766 2.622 . S
N786 C787 1.369 . S
N786 C788 1.338 . S
C787 N786 1.369 . S
C787 C791 1.415 . S
C787 C794 1.422 . S
C788 H779 0.929 . S
C788 N786 1.338 . S
C788 C790 1.378 . S
C789 H784 0.931 . S
C789 C790 1.348 . S
C789 C791 1.413 . S
C790 H785 0.930 . S
C790 C788 1.378 . S
C790 C789 1.348 . S
C791 C787 1.415 . S
C791 C789 1.413 . S
C791 C821 1.437 . S
H792 C821 0.929 . S
N793 Gd766 2.570 . S
N793 C794 1.359 . S
N793 C797 1.343 . S
C794 C787 1.422 . S
C794 N793 1.359 . S
C794 C796 1.421 . S
C795 C796 1.422 . S
C795 C798 1.321 . S
C795 H822 0.931 . S
C796 C794 1.421 . S
C796 C795 1.422 . S
C796 C820 1.417 . S
C797 H774 0.931 . S
C797 N793 1.343 . S
C797 C798 1.390 . S
C798 H776 0.930 . S
C798 C795 1.321 . S
C798 C797 1.390 . S
O799 Gd767 2.386 . S
O799 C811 1.265 . S
O800 Gd766 2.353 . S
O800 C811 1.242 . S
O801 Gd766 2.468 . S
O801 C819 1.263 . S
O802 Gd766 2.427 . S
O802 C819 1.252 . S
O803 Gd767 2.307 . S
O803 C812 1.261 . S
O804 Gd766 2.388 . S
O804 C812 1.252 . S
O805 Gd766 2.386 . S
O805 C823 1.265 . S
O806 Gd767 2.353 . S
O806 C823 1.242 . S
O807 Gd767 2.468 . S
O807 C831 1.263 . S
O808 Gd767 2.427 . S
O808 C831 1.252 . S
O809 Gd766 2.307 . S
O809 C824 1.261 . S
O810 Gd767 2.388 . S
O810 C824 1.252 . S
C811 O799 1.265 . S
C811 O800 1.242 . S
C812 O803 1.261 . S
C812 O804 1.252 . S
C813 C816 1.394 . S
C813 C818 1.370 . S
C813 C819 1.500 . S
C814 C817 1.383 . S
C814 C818 1.395 . S
C815 C816 1.396 . S
C815 C817 1.365 . S
C815 H832 0.929 . S
C816 C813 1.394 . S
C816 C815 1.396 . S
C816 H833 0.930 . S
C817 C814 1.383 . S
C817 C815 1.365 . S
C817 H834 0.931 . S
C818 C813 1.370 . S
C818 C814 1.395 . S
C818 H835 0.930 . S
C819 Gd766 2.805 . S
C819 O801 1.263 . S
C819 O802 1.252 . S
C819 C813 1.500 . S
C820 H782 0.930 . S
C820 C796 1.417 . S
C820 C821 1.329 . S
C821 C791 1.437 . S
C821 H792 0.929 . S
C821 C820 1.329 . S
H822 C795 0.931 . S
C823 O805 1.265 . S
C823 O806 1.242 . S
C824 O809 1.261 . S
C824 O810 1.252 . S
C825 C828 1.394 . S
C825 C830 1.370 . S
C825 C831 1.500 . S
C826 C829 1.383 . S
C826 C830 1.395 . S
C827 C828 1.396 . S
C827 C829 1.365 . S
C827 H836 0.929 . S
C828 C825 1.394 . S
C828 C827 1.396 . S
C828 H837 0.930 . S
C829 C826 1.383 . S
C829 C827 1.365 . S
C829 H838 0.931 . S
C830 C825 1.370 . S
C830 C826 1.395 . S
C830 H839 0.930 . S
C831 Gd767 2.805 . S
C831 O807 1.263 . S
C831 O808 1.252 . S
C831 C825 1.500 . S
H832 C815 0.929 . S
H833 C816 0.930 . S
H834 C817 0.931 . S
H835 C818 0.930 . S
H836 C827 0.929 . S
H837 C828 0.930 . S
H838 C829 0.931 . S
H839 C830 0.930 . S
C840 C842 1.422 1_565 S
C840 C844 1.415 . S
C840 N846 1.369 . S
C841 C842 1.421 . S
C841 C843 1.417 . S
C841 C853 1.422 . S
C842 C840 1.422 1_545 S
C842 C841 1.421 . S
C842 N852 1.359 . S
C843 C841 1.417 . S
C843 C845 1.329 1_545 S
C843 H862 0.930 . S
C844 C840 1.415 . S
C844 C845 1.437 . S
C844 C848 1.413 . S
C845 C843 1.329 1_565 S
C845 C844 1.437 . S
C845 H867 0.929 . S
N846 C840 1.369 . S
N846 C847 1.338 . S
N846 Gd851 2.622 1_565 S
C847 N846 1.338 . S
C847 C849 1.378 . S
C847 H859 0.929 . S
C848 C844 1.413 . S
C848 C849 1.348 . S
C848 H864 0.931 . S
C849 C847 1.378 . S
C849 C848 1.348 . S
C849 H865 0.930 . S
Gd850 N870 2.622 . S
Gd850 N877 2.570 . S
Gd850 O884 2.353 1_556 S
Gd850 O885 2.468 . S
Gd850 O886 2.427 . S
Gd850 O888 2.388 1_556 S
Gd850 O889 2.386 1_556 S
Gd850 O893 2.307 . S
Gd850 C903 2.805 . S
Gd851 N846 2.622 1_545 S
Gd851 N852 2.570 . S
Gd851 O883 2.386 . S
Gd851 O887 2.307 . S
Gd851 O890 2.353 . S
Gd851 O891 2.468 . S
Gd851 O892 2.427 1_545 S
Gd851 O894 2.388 1_545 S
Gd851 C915 2.805 1_545 S
N852 C842 1.359 . S
N852 Gd851 2.570 . S
N852 C854 1.343 . S
C853 C841 1.422 . S
C853 C855 1.321 . S
C853 H861 0.931 . S
C854 N852 1.343 . S
C854 C855 1.390 . S
C854 H856 0.931 . S
C855 C853 1.321 . S
C855 C854 1.390 . S
C855 H857 0.930 . S
H856 C854 0.931 . S
H857 C855 0.930 . S
H858 C881 0.931 1_565 S
H859 C847 0.929 . S
H860 C882 0.930 . S
H861 C853 0.931 . S
H862 C843 0.930 . S
H863 C872 0.943 . S
H864 C848 0.931 . S
H865 C849 0.930 . S
H866 C904 0.930 . S
H867 C845 0.929 . S
H868 C873 0.931 . S
H869 C874 0.930 . S
N870 Gd850 2.622 . S
N870 C871 1.369 . S
N870 C872 1.338 . S
C871 N870 1.369 . S
C871 C875 1.415 . S
C871 C878 1.422 . S
C872 H863 0.943 . S
C872 N870 1.338 . S
C872 C874 1.378 . S
C873 H868 0.931 . S
C873 C874 1.348 . S
C873 C875 1.413 . S
C874 H869 0.930 . S
C874 C872 1.378 . S
C874 C873 1.348 . S
C875 C871 1.415 . S
C875 C873 1.413 . S
C875 C905 1.437 . S
H876 C905 0.929 . S
N877 Gd850 2.570 . S
N877 C878 1.359 . S
N877 C881 1.343 . S
C878 C871 1.422 . S
C878 N877 1.359 . S
C878 C880 1.421 . S
C879 C880 1.384 1_565 S
C879 C882 1.350 . S
C879 H906 0.942 . S
C880 C878 1.421 . S
C880 C879 1.384 1_545 S
C880 C904 1.417 . S
C881 H858 0.931 1_545 S
C881 N877 1.343 . S
C881 C882 1.390 1_545 S
C882 H860 0.930 . S
C882 C879 1.350 . S
C882 C881 1.390 1_565 S
O883 Gd851 2.386 . S
O883 C895 1.265 . S
O884 Gd850 2.353 1_554 S
O884 C895 1.242 . S
O885 Gd850 2.468 . S
O885 C903 1.263 . S
O886 Gd850 2.427 . S
O886 C903 1.252 . S
O887 Gd851 2.307 . S
O887 C896 1.261 . S
O888 Gd850 2.388 1_554 S
O888 C896 1.252 . S
O889 Gd850 2.386 1_554 S
O889 C907 1.265 . S
O890 Gd851 2.353 . S
O890 C907 1.242 . S
O891 Gd851 2.468 . S
O891 C915 1.263 1_545 S
O892 Gd851 2.427 1_565 S
O892 C915 1.252 . S
O893 Gd850 2.307 . S
O893 C908 1.279 1_545 S
O894 Gd851 2.388 1_565 S
O894 C908 1.207 1_554 S
C895 O883 1.265 . S
C895 O884 1.242 . S
C896 O887 1.261 . S
C896 O888 1.252 . S
C897 C900 1.394 . S
C897 C902 1.370 . S
C897 C903 1.500 . S
C898 C901 1.383 . S
C898 C902 1.395 . S
C899 C900 1.396 . S
C899 C901 1.365 . S
C899 H916 0.929 . S
C900 C897 1.394 . S
C900 C899 1.396 . S
C900 H917 0.930 . S
C901 C898 1.383 . S
C901 C899 1.365 . S
C901 H918 0.931 . S
C902 C897 1.370 . S
C902 C898 1.395 . S
C902 H919 0.930 . S
C903 Gd850 2.805 . S
C903 O885 1.263 . S
C903 O886 1.252 . S
C903 C897 1.500 . S
C904 H866 0.930 . S
C904 C880 1.417 . S
C904 C905 1.329 . S
C905 C875 1.437 . S
C905 H876 0.929 . S
C905 C904 1.329 . S
H906 C879 0.942 . S
C907 O889 1.265 . S
C907 O890 1.242 . S
C908 O893 1.279 1_565 S
C908 O894 1.207 1_556 S
C909 C912 1.394 . S
C909 C914 1.370 1_565 S
C909 C915 1.500 . S
C910 C913 1.368 1_545 S
C910 C914 1.400 . S
C911 C912 1.396 . S
C911 C913 1.365 . S
C911 H920 0.929 . S
C912 C909 1.394 . S
C912 C911 1.396 . S
C912 H921 0.930 . S
C913 C910 1.368 1_565 S
C913 C911 1.365 . S
C913 H922 0.931 . S
C914 C909 1.370 1_545 S
C914 C910 1.400 . S
C914 H923 0.930 . S
C915 Gd851 2.805 1_565 S
C915 O891 1.263 1_565 S
C915 O892 1.252 . S
C915 C909 1.500 . S
H916 C899 0.929 . S
H917 C900 0.930 . S
H918 C901 0.931 . S
H919 C902 0.930 . S
H920 C911 0.929 . S
H921 C912 0.930 . S
H922 C913 0.931 . S
H923 C914 0.930 . S
C924 C926 1.422 . S
C924 C928 1.415 . S
C924 N930 1.369 . S
C925 C926 1.421 . S
C925 C927 1.417 . S
C925 C937 1.422 . S
C926 C924 1.422 . S
C926 C925 1.421 . S
C926 N936 1.359 . S
C927 C925 1.417 . S
C927 C929 1.329 . S
C927 H946 0.930 . S
C928 C924 1.415 . S
C928 C929 1.437 . S
C928 C932 1.413 . S
C929 C927 1.329 . S
C929 C928 1.437 . S
C929 H951 0.929 . S
N930 C924 1.369 . S
N930 C931 1.338 . S
N930 Gd935 2.622 . S
C931 N930 1.338 . S
C931 C933 1.378 . S
C931 H943 0.929 . S
C932 C928 1.413 . S
C932 C933 1.348 . S
C932 H948 0.931 . S
C933 C931 1.378 . S
C933 C932 1.348 . S
C933 H949 0.930 . S
Gd934 N954 2.622 . S
Gd934 N961 2.570 . S
Gd934 O968 2.353 . S
Gd934 O969 2.468 . S
Gd934 O970 2.427 . S
Gd934 O972 2.388 . S
Gd934 O973 2.386 . S
Gd934 O977 2.307 . S
Gd934 C987 2.805 . S
Gd935 N930 2.622 . S
Gd935 N936 2.570 . S
Gd935 O967 2.386 . S
Gd935 O971 2.307 . S
Gd935 O974 2.353 . S
Gd935 O975 2.468 . S
Gd935 O976 2.427 . S
Gd935 O978 2.388 . S
Gd935 C999 2.805 . S
N936 C926 1.359 . S
N936 Gd935 2.570 . S
N936 C938 1.343 . S
C937 C925 1.422 . S
C937 C939 1.321 . S
C937 H945 0.931 . S
C938 N936 1.343 . S
C938 C939 1.390 . S
C938 H940 0.931 . S
C939 C937 1.321 . S
C939 C938 1.390 . S
C939 H941 0.930 . S
H940 C938 0.931 . S
H941 C939 0.930 . S
H942 C965 0.931 . S
H943 C931 0.929 . S
H944 C966 0.930 . S
H945 C937 0.931 . S
H946 C927 0.930 . S
H947 C956 0.929 . S
H948 C932 0.931 . S
H949 C933 0.930 . S
H950 C988 0.930 . S
H951 C929 0.929 . S
H952 C957 0.931 . S
H953 C958 0.930 . S
N954 Gd934 2.622 . S
N954 C955 1.369 . S
N954 C956 1.338 . S
C955 N954 1.369 . S
C955 C959 1.415 . S
C955 C962 1.422 . S
C956 H947 0.929 . S
C956 N954 1.338 . S
C956 C958 1.378 . S
C957 H952 0.931 . S
C957 C958 1.348 . S
C957 C959 1.413 . S
C958 H953 0.930 . S
C958 C956 1.378 . S
C958 C957 1.348 . S
C959 C955 1.415 . S
C959 C957 1.413 . S
C959 C989 1.437 . S
H960 C989 0.929 . S
N961 Gd934 2.570 . S
N961 C962 1.359 . S
N961 C965 1.343 . S
C962 C955 1.422 . S
C962 N961 1.359 . S
C962 C964 1.421 . S
C963 C964 1.422 . S
C963 C966 1.321 . S
C963 H990 0.931 . S
C964 C962 1.421 . S
C964 C963 1.422 . S
C964 C988 1.417 . S
C965 H942 0.931 . S
C965 N961 1.343 . S
C965 C966 1.390 . S
C966 H944 0.930 . S
C966 C963 1.321 . S
C966 C965 1.390 . S
O967 Gd935 2.386 . S
O967 C979 1.265 . S
O968 Gd934 2.353 . S
O968 C979 1.242 . S
O969 Gd934 2.468 . S
O969 C987 1.263 . S
O970 Gd934 2.427 . S
O970 C987 1.252 . S
O971 Gd935 2.307 . S
O971 C980 1.261 . S
O972 Gd934 2.388 . S
O972 C980 1.252 . S
O973 Gd934 2.386 . S
O973 C991 1.265 . S
O974 Gd935 2.353 . S
O974 C991 1.242 . S
O975 Gd935 2.468 . S
O975 C999 1.263 . S
O976 Gd935 2.427 . S
O976 C999 1.252 . S
O977 Gd934 2.307 . S
O977 C992 1.261 . S
O978 Gd935 2.388 . S
O978 C992 1.252 . S
C979 O967 1.265 . S
C979 O968 1.242 . S
C980 O971 1.261 . S
C980 O972 1.252 . S
C981 C984 1.394 . S
C981 C986 1.370 . S
C981 C987 1.500 . S
C982 C985 1.383 . S
C982 C986 1.395 . S
C983 C984 1.396 . S
C983 C985 1.365 . S
C983 H1000 0.929 . S
C984 C981 1.394 . S
C984 C983 1.396 . S
C984 H1001 0.930 . S
C985 C982 1.383 . S
C985 C983 1.365 . S
C985 H1002 0.931 . S
C986 C981 1.370 . S
C986 C982 1.395 . S
C986 H1003 0.930 . S
C987 Gd934 2.805 . S
C987 O969 1.263 . S
C987 O970 1.252 . S
C987 C981 1.500 . S
C988 H950 0.930 . S
C988 C964 1.417 . S
C988 C989 1.329 . S
C989 C959 1.437 . S
C989 H960 0.929 . S
C989 C988 1.329 . S
H990 C963 0.931 . S
C991 O973 1.265 . S
C991 O974 1.242 . S
C992 O977 1.261 . S
C992 O978 1.252 . S
C993 C996 1.394 . S
C993 C998 1.370 . S
C993 C999 1.500 . S
C994 C997 1.383 . S
C994 C998 1.395 . S
C995 C996 1.396 . S
C995 C997 1.365 . S
C995 H1004 0.929 . S
C996 C993 1.394 . S
C996 C995 1.396 . S
C996 H1005 0.930 . S
C997 C994 1.383 . S
C997 C995 1.365 . S
C997 H1006 0.931 . S
C998 C993 1.370 . S
C998 C994 1.395 . S
C998 H1007 0.930 . S
C999 Gd935 2.805 . S
C999 O975 1.263 . S
C999 O976 1.252 . S
C999 C993 1.500 . S
H1000 C983 0.929 . S
H1001 C984 0.930 . S
H1002 C985 0.931 . S
H1003 C986 0.930 . S
H1004 C995 0.929 . S
H1005 C996 0.930 . S
H1006 C997 0.931 . S
H1007 C998 0.930 . S
C1008 C1010 1.422 . S
C1008 C1012 1.415 . S
C1008 N1014 1.369 . S
C1009 C1010 1.421 . S
C1009 C1011 1.417 . S
C1009 C1021 1.422 . S
C1010 C1008 1.422 . S
C1010 C1009 1.421 . S
C1010 N1020 1.359 . S
C1011 C1009 1.417 . S
C1011 C1013 1.329 . S
C1011 H1030 0.930 . S
C1012 C1008 1.415 . S
C1012 C1013 1.437 . S
C1012 C1016 1.413 . S
C1013 C1011 1.329 . S
C1013 C1012 1.437 . S
C1013 H1035 0.929 . S
N1014 C1008 1.369 . S
N1014 C1015 1.338 . S
N1014 Gd1019 2.622 . S
C1015 N1014 1.338 . S
C1015 C1017 1.378 . S
C1015 H1027 0.929 . S
C1016 C1012 1.413 . S
C1016 C1017 1.348 . S
C1016 H1032 0.931 . S
C1017 C1015 1.378 . S
C1017 C1016 1.348 . S
C1017 H1033 0.930 . S
Gd1018 N1038 2.622 1_554 S
Gd1018 N1045 2.570 1_554 S
Gd1018 O1052 2.353 . S
Gd1018 O1053 2.468 . S
Gd1018 O1054 2.427 . S
Gd1018 O1056 2.388 . S
Gd1018 O1057 2.386 1_554 S
Gd1018 O1061 2.307 . S
Gd1018 C1071 2.805 . S
Gd1019 N1014 2.622 . S
Gd1019 N1020 2.570 . S
Gd1019 O1051 2.386 . S
Gd1019 O1055 2.307 . S
Gd1019 O1058 2.353 1_554 S
Gd1019 O1059 2.468 . S
Gd1019 O1060 2.427 . S
Gd1019 O1062 2.388 . S
Gd1019 C1083 2.805 . S
N1020 C1010 1.359 . S
N1020 Gd1019 2.570 . S
N1020 C1022 1.343 . S
C1021 C1009 1.422 . S
C1021 C1023 1.321 . S
C1021 H1029 0.931 . S
C1022 N1020 1.343 . S
C1022 C1023 1.390 . S
C1022 H1024 0.931 . S
C1023 C1021 1.321 . S
C1023 C1022 1.390 . S
C1023 H1025 0.930 . S
H1024 C1022 0.931 . S
H1025 C1023 0.930 . S
H1026 C1049 0.931 . S
H1027 C1015 0.929 . S
H1028 C1050 0.930 . S
H1029 C1021 0.931 . S
H1030 C1011 0.930 . S
H1031 C1040 0.929 . S
H1032 C1016 0.931 . S
H1033 C1017 0.930 . S
H1034 C1072 0.930 . S
H1035 C1013 0.929 . S
H1036 C1041 0.931 . S
H1037 C1042 0.930 . S
N1038 Gd1018 2.622 1_556 S
N1038 C1039 1.369 . S
N1038 C1040 1.338 . S
C1039 N1038 1.369 . S
C1039 C1043 1.415 . S
C1039 C1046 1.422 . S
C1040 H1031 0.929 . S
C1040 N1038 1.338 . S
C1040 C1042 1.378 . S
C1041 H1036 0.931 . S
C1041 C1042 1.348 . S
C1041 C1043 1.413 . S
C1042 H1037 0.930 . S
C1042 C1040 1.378 . S
C1042 C1041 1.348 . S
C1043 C1039 1.415 . S
C1043 C1041 1.413 . S
C1043 C1073 1.437 . S
H1044 C1073 0.929 . S
N1045 Gd1018 2.570 1_556 S
N1045 C1046 1.359 . S
N1045 C1049 1.343 . S
C1046 C1039 1.422 . S
C1046 N1045 1.359 . S
C1046 C1048 1.421 . S
C1047 C1048 1.422 . S
C1047 C1050 1.321 . S
C1047 H1074 0.931 . S
C1048 C1046 1.421 . S
C1048 C1047 1.422 . S
C1048 C1072 1.417 . S
C1049 H1026 0.931 . S
C1049 N1045 1.343 . S
C1049 C1050 1.390 . S
C1050 H1028 0.930 . S
C1050 C1047 1.321 . S
C1050 C1049 1.390 . S
O1051 Gd1019 2.386 . S
O1051 C1063 1.265 . S
O1052 Gd1018 2.353 . S
O1052 C1063 1.242 . S
O1053 Gd1018 2.468 . S
O1053 C1071 1.263 . S
O1054 Gd1018 2.427 . S
O1054 C1071 1.252 . S
O1055 Gd1019 2.307 . S
O1055 C1064 1.261 . S
O1056 Gd1018 2.388 . S
O1056 C1064 1.252 . S
O1057 Gd1018 2.386 1_556 S
O1057 C1075 1.265 . S
O1058 Gd1019 2.353 1_556 S
O1058 C1075 1.242 . S
O1059 Gd1019 2.468 . S
O1059 C1083 1.263 . S
O1060 Gd1019 2.427 . S
O1060 C1083 1.252 . S
O1061 Gd1018 2.307 . S
O1061 C1076 1.261 . S
O1062 Gd1019 2.388 . S
O1062 C1076 1.252 . S
C1063 O1051 1.265 . S
C1063 O1052 1.242 . S
C1064 O1055 1.261 . S
C1064 O1056 1.252 . S
C1065 C1068 1.394 . S
C1065 C1070 1.370 . S
C1065 C1071 1.500 . S
C1066 C1069 1.383 . S
C1066 C1070 1.395 . S
C1067 C1068 1.396 . S
C1067 C1069 1.365 . S
C1067 H1084 0.929 . S
C1068 C1065 1.394 . S
C1068 C1067 1.396 . S
C1068 H1085 0.930 . S
C1069 C1066 1.383 . S
C1069 C1067 1.365 . S
C1069 H1086 0.931 . S
C1070 C1065 1.370 . S
C1070 C1066 1.395 . S
C1070 H1087 0.930 . S
C1071 Gd1018 2.805 . S
C1071 O1053 1.263 . S
C1071 O1054 1.252 . S
C1071 C1065 1.500 . S
C1072 H1034 0.930 . S
C1072 C1048 1.417 . S
C1072 C1073 1.329 . S
C1073 C1043 1.437 . S
C1073 H1044 0.929 . S
C1073 C1072 1.329 . S
H1074 C1047 0.931 . S
C1075 O1057 1.265 . S
C1075 O1058 1.242 . S
C1076 O1061 1.261 . S
C1076 O1062 1.252 . S
C1077 C1080 1.394 . S
C1077 C1082 1.370 . S
C1077 C1083 1.500 1_556 S
C1078 C1081 1.383 . S
C1078 C1082 1.395 . S
C1079 C1080 1.396 . S
C1079 C1081 1.365 . S
C1079 H1088 0.929 . S
C1080 C1077 1.394 . S
C1080 C1079 1.396 . S
C1080 H1089 0.930 . S
C1081 C1078 1.383 . S
C1081 C1079 1.365 . S
C1081 H1090 0.931 . S
C1082 C1077 1.370 . S
C1082 C1078 1.395 . S
C1082 H1091 0.930 . S
C1083 Gd1019 2.805 . S
C1083 O1059 1.263 . S
C1083 O1060 1.252 . S
C1083 C1077 1.500 1_554 S
H1084 C1067 0.929 . S
H1085 C1068 0.930 . S
H1086 C1069 0.931 . S
H1087 C1070 0.930 . S
H1088 C1079 0.929 . S
H1089 C1080 0.930 . S
H1090 C1081 0.931 . S
H1091 C1082 0.930 . S
C1092 C1094 1.422 . S
C1092 C1096 1.415 . S
C1092 N1098 1.369 . S
C1093 C1094 1.421 . S
C1093 C1095 1.417 . S
C1093 C1105 1.422 . S
C1094 C1092 1.422 . S
C1094 C1093 1.421 . S
C1094 N1104 1.359 . S
C1095 C1093 1.417 . S
C1095 C1097 1.329 . S
C1095 H1114 0.930 . S
C1096 C1092 1.415 . S
C1096 C1097 1.437 . S
C1096 C1100 1.413 . S
C1097 C1095 1.329 . S
C1097 C1096 1.437 . S
C1097 H1119 0.929 . S
N1098 C1092 1.369 . S
N1098 C1099 1.338 . S
N1098 Gd1103 2.622 . S
C1099 N1098 1.338 . S
C1099 C1101 1.378 . S
C1099 H1111 0.929 . S
C1100 C1096 1.413 . S
C1100 C1101 1.348 . S
C1100 H1116 0.931 . S
C1101 C1099 1.378 . S
C1101 C1100 1.348 . S
C1101 H1117 0.930 . S
Gd1102 N1122 2.622 . S
Gd1102 N1129 2.570 . S
Gd1102 O1136 2.353 . S
Gd1102 O1137 2.468 . S
Gd1102 O1138 2.427 . S
Gd1102 O1140 2.388 . S
Gd1102 O1141 2.386 . S
Gd1102 O1145 2.307 . S
Gd1102 C1155 2.805 . S
Gd1103 N1098 2.622 . S
Gd1103 N1104 2.570 . S
Gd1103 O1135 2.386 . S
Gd1103 O1139 2.307 . S
Gd1103 O1142 2.353 . S
Gd1103 O1143 2.468 . S
Gd1103 O1144 2.427 . S
Gd1103 O1146 2.388 . S
Gd1103 C1167 2.805 . S
N1104 C1094 1.359 . S
N1104 Gd1103 2.570 . S
N1104 C1106 1.343 . S
C1105 C1093 1.422 . S
C1105 C1107 1.321 . S
C1105 H1113 0.931 . S
C1106 N1104 1.343 . S
C1106 C1107 1.390 . S
C1106 H1108 0.931 . S
C1107 C1105 1.321 . S
C1107 C1106 1.390 . S
C1107 H1109 0.930 . S
H1108 C1106 0.931 . S
H1109 C1107 0.930 . S
H1110 C1133 0.931 . S
H1111 C1099 0.929 . S
H1112 C1134 0.930 . S
H1113 C1105 0.931 . S
H1114 C1095 0.930 . S
H1115 C1124 0.929 . S
H1116 C1100 0.931 . S
H1117 C1101 0.930 . S
H1118 C1156 0.930 . S
H1119 C1097 0.929 . S
H1120 C1125 0.931 . S
H1121 C1126 0.930 . S
N1122 Gd1102 2.622 . S
N1122 C1123 1.369 . S
N1122 C1124 1.338 . S
C1123 N1122 1.369 . S
C1123 C1127 1.415 . S
C1123 C1130 1.422 . S
C1124 H1115 0.929 . S
C1124 N1122 1.338 . S
C1124 C1126 1.378 . S
C1125 H1120 0.931 . S
C1125 C1126 1.348 . S
C1125 C1127 1.413 . S
C1126 H1121 0.930 . S
C1126 C1124 1.378 . S
C1126 C1125 1.348 . S
C1127 C1123 1.415 . S
C1127 C1125 1.413 . S
C1127 C1157 1.437 . S
H1128 C1157 0.929 . S
N1129 Gd1102 2.570 . S
N1129 C1130 1.359 . S
N1129 C1133 1.343 . S
C1130 C1123 1.422 . S
C1130 N1129 1.359 . S
C1130 C1132 1.421 . S
C1131 C1132 1.422 . S
C1131 C1134 1.321 . S
C1131 H1158 0.931 . S
C1132 C1130 1.421 . S
C1132 C1131 1.422 . S
C1132 C1156 1.417 . S
C1133 H1110 0.931 . S
C1133 N1129 1.343 . S
C1133 C1134 1.390 . S
C1134 H1112 0.930 . S
C1134 C1131 1.321 . S
C1134 C1133 1.390 . S
O1135 Gd1103 2.386 . S
O1135 C1147 1.265 . S
O1136 Gd1102 2.353 . S
O1136 C1147 1.242 . S
O1137 Gd1102 2.468 . S
O1137 C1155 1.263 . S
O1138 Gd1102 2.427 . S
O1138 C1155 1.252 . S
O1139 Gd1103 2.307 . S
O1139 C1148 1.261 . S
O1140 Gd1102 2.388 . S
O1140 C1148 1.252 . S
O1141 Gd1102 2.386 . S
O1141 C1159 1.265 . S
O1142 Gd1103 2.353 . S
O1142 C1159 1.242 . S
O1143 Gd1103 2.468 . S
O1143 C1167 1.263 . S
O1144 Gd1103 2.427 . S
O1144 C1167 1.252 . S
O1145 Gd1102 2.307 . S
O1145 C1160 1.261 . S
O1146 Gd1103 2.388 . S
O1146 C1160 1.252 . S
C1147 O1135 1.265 . S
C1147 O1136 1.242 . S
C1148 O1139 1.261 . S
C1148 O1140 1.252 . S
C1149 C1152 1.394 . S
C1149 C1154 1.370 . S
C1149 C1155 1.500 . S
C1150 C1153 1.383 . S
C1150 C1154 1.395 . S
C1151 C1152 1.396 . S
C1151 C1153 1.365 . S
C1151 H1168 0.929 . S
C1152 C1149 1.394 . S
C1152 C1151 1.396 . S
C1152 H1169 0.930 . S
C1153 C1150 1.383 . S
C1153 C1151 1.365 . S
C1153 H1170 0.931 . S
C1154 C1149 1.370 . S
C1154 C1150 1.395 . S
C1154 H1171 0.930 . S
C1155 Gd1102 2.805 . S
C1155 O1137 1.263 . S
C1155 O1138 1.252 . S
C1155 C1149 1.500 . S
C1156 H1118 0.930 . S
C1156 C1132 1.417 . S
C1156 C1157 1.329 . S
C1157 C1127 1.437 . S
C1157 H1128 0.929 . S
C1157 C1156 1.329 . S
H1158 C1131 0.931 . S
C1159 O1141 1.265 . S
C1159 O1142 1.242 . S
C1160 O1145 1.261 . S
C1160 O1146 1.252 . S
C1161 C1164 1.394 . S
C1161 C1166 1.370 . S
C1161 C1167 1.500 . S
C1162 C1165 1.383 . S
C1162 C1166 1.395 . S
C1163 C1164 1.396 . S
C1163 C1165 1.365 . S
C1163 H1172 0.929 . S
C1164 C1161 1.394 . S
C1164 C1163 1.396 . S
C1164 H1173 0.930 . S
C1165 C1162 1.383 . S
C1165 C1163 1.365 . S
C1165 H1174 0.931 . S
C1166 C1161 1.370 . S
C1166 C1162 1.395 . S
C1166 H1175 0.930 . S
C1167 Gd1103 2.805 . S
C1167 O1143 1.263 . S
C1167 O1144 1.252 . S
C1167 C1161 1.500 . S
H1168 C1151 0.929 . S
H1169 C1152 0.930 . S
H1170 C1153 0.931 . S
H1171 C1154 0.930 . S
H1172 C1163 0.929 . S
H1173 C1164 0.930 . S
H1174 C1165 0.931 . S
H1175 C1166 0.930 . S
C1176 C1178 1.422 . S
C1176 C1180 1.415 . S
C1176 N1182 1.369 . S
C1177 C1178 1.421 . S
C1177 C1179 1.417 . S
C1177 C1189 1.422 . S
C1178 C1176 1.422 . S
C1178 C1177 1.421 . S
C1178 N1188 1.359 . S
C1179 C1177 1.417 . S
C1179 C1181 1.329 . S
C1179 H1198 0.930 . S
C1180 C1176 1.415 . S
C1180 C1181 1.437 . S
C1180 C1184 1.413 . S
C1181 C1179 1.329 . S
C1181 C1180 1.437 . S
C1181 H1203 0.929 . S
N1182 C1176 1.369 . S
N1182 C1183 1.338 . S
N1182 Gd1187 2.622 . S
C1183 N1182 1.338 . S
C1183 C1185 1.378 . S
C1183 H1195 0.929 . S
C1184 C1180 1.413 . S
C1184 C1185 1.348 . S
C1184 H1200 0.931 . S
C1185 C1183 1.378 . S
C1185 C1184 1.348 . S
C1185 H1201 0.930 . S
Gd1186 N1206 2.622 1_455 S
Gd1186 N1213 2.570 1_455 S
Gd1186 O1220 2.353 . S
Gd1186 O1221 2.468 . S
Gd1186 O1222 2.427 . S
Gd1186 O1224 2.388 . S
Gd1186 O1225 2.386 1_455 S
Gd1186 O1229 2.307 . S
Gd1186 C1239 2.805 . S
Gd1187 N1182 2.622 . S
Gd1187 N1188 2.570 . S
Gd1187 O1219 2.386 . S
Gd1187 O1223 2.307 . S
Gd1187 O1226 2.353 1_455 S
Gd1187 O1227 2.468 . S
Gd1187 O1228 2.427 . S
Gd1187 O1230 2.388 . S
Gd1187 C1251 2.805 . S
N1188 C1178 1.359 . S
N1188 Gd1187 2.570 . S
N1188 C1190 1.343 . S
C1189 C1177 1.422 . S
C1189 C1191 1.321 . S
C1189 H1197 0.931 . S
C1190 N1188 1.343 . S
C1190 C1191 1.390 . S
C1190 H1192 0.931 . S
C1191 C1189 1.321 . S
C1191 C1190 1.390 . S
C1191 H1193 0.930 . S
H1192 C1190 0.931 . S
H1193 C1191 0.930 . S
H1194 C1217 0.931 1_455 S
H1195 C1183 0.929 . S
H1196 C1218 0.930 . S
H1197 C1189 0.931 . S
H1198 C1179 0.930 . S
H1199 C1208 0.929 1_455 S
H1200 C1184 0.931 . S
H1201 C1185 0.930 . S
H1202 C1240 0.930 . S
H1203 C1181 0.929 . S
H1204 C1209 0.931 . S
H1205 C1210 0.930 . S
N1206 Gd1186 2.622 1_655 S
N1206 C1207 1.369 . S
N1206 C1208 1.338 . S
C1207 N1206 1.369 . S
C1207 C1211 1.415 . S
C1207 C1214 1.422 . S
C1208 H1199 0.929 1_655 S
C1208 N1206 1.338 . S
C1208 C1210 1.378 . S
C1209 H1204 0.931 . S
C1209 C1210 1.348 . S
C1209 C1211 1.413 . S
C1210 H1205 0.930 . S
C1210 C1208 1.378 . S
C1210 C1209 1.348 . S
C1211 C1207 1.415 . S
C1211 C1209 1.413 . S
C1211 C1241 1.437 . S
H1212 C1241 0.929 . S
N1213 Gd1186 2.570 1_655 S
N1213 C1214 1.359 . S
N1213 C1217 1.343 . S
C1214 C1207 1.422 . S
C1214 N1213 1.359 . S
C1214 C1216 1.421 . S
C1215 C1216 1.422 . S
C1215 C1218 1.321 . S
C1215 H1242 0.931 . S
C1216 C1214 1.421 . S
C1216 C1215 1.422 . S
C1216 C1240 1.417 . S
C1217 H1194 0.931 1_655 S
C1217 N1213 1.343 . S
C1217 C1218 1.390 . S
C1218 H1196 0.930 . S
C1218 C1215 1.321 . S
C1218 C1217 1.390 . S
O1219 Gd1187 2.386 . S
O1219 C1231 1.265 . S
O1220 Gd1186 2.353 . S
O1220 C1231 1.242 . S
O1221 Gd1186 2.468 . S
O1221 C1239 1.263 . S
O1222 Gd1186 2.427 . S
O1222 C1239 1.252 . S
O1223 Gd1187 2.307 . S
O1223 C1232 1.261 . S
O1224 Gd1186 2.388 . S
O1224 C1232 1.252 . S
O1225 Gd1186 2.386 1_655 S
O1225 C1243 1.265 . S
O1226 Gd1187 2.353 1_655 S
O1226 C1243 1.242 . S
O1227 Gd1187 2.468 . S
O1227 C1251 1.263 . S
O1228 Gd1187 2.427 . S
O1228 C1251 1.252 . S
O1229 Gd1186 2.307 . S
O1229 C1244 1.261 . S
O1230 Gd1187 2.388 . S
O1230 C1244 1.252 . S
C1231 O1219 1.265 . S
C1231 O1220 1.242 . S
C1232 O1223 1.261 . S
C1232 O1224 1.252 . S
C1233 C1236 1.394 . S
C1233 C1238 1.370 . S
C1233 C1239 1.500 . S
C1234 C1237 1.383 . S
C1234 C1238 1.395 . S
C1235 C1236 1.396 . S
C1235 C1237 1.365 . S
C1235 H1252 0.929 . S
C1236 C1233 1.394 . S
C1236 C1235 1.396 . S
C1236 H1253 0.930 . S
C1237 C1234 1.383 . S
C1237 C1235 1.365 . S
C1237 H1254 0.931 . S
C1238 C1233 1.370 . S
C1238 C1234 1.395 . S
C1238 H1255 0.930 . S
C1239 Gd1186 2.805 . S
C1239 O1221 1.263 . S
C1239 O1222 1.252 . S
C1239 C1233 1.500 . S
C1240 H1202 0.930 . S
C1240 C1216 1.417 . S
C1240 C1241 1.329 . S
C1241 C1211 1.437 . S
C1241 H1212 0.929 . S
C1241 C1240 1.329 . S
H1242 C1215 0.931 . S
C1243 O1225 1.265 . S
C1243 O1226 1.242 . S
C1244 O1229 1.261 . S
C1244 O1230 1.252 . S
C1245 C1248 1.394 . S
C1245 C1250 1.370 . S
C1245 C1251 1.500 1_655 S
C1246 C1249 1.383 . S
C1246 C1250 1.395 . S
C1247 C1248 1.396 . S
C1247 C1249 1.365 . S
C1247 H1256 0.929 . S
C1248 C1245 1.394 . S
C1248 C1247 1.396 . S
C1248 H1257 0.930 . S
C1249 C1246 1.383 . S
C1249 C1247 1.365 . S
C1249 H1258 0.931 . S
C1250 C1245 1.370 . S
C1250 C1246 1.395 . S
C1250 H1259 0.930 . S
C1251 Gd1187 2.805 . S
C1251 O1227 1.263 . S
C1251 O1228 1.252 . S
C1251 C1245 1.500 1_455 S
H1252 C1235 0.929 . S
H1253 C1236 0.930 . S
H1254 C1237 0.931 . S
H1255 C1238 0.930 . S
H1256 C1247 0.929 . S
H1257 C1248 0.930 . S
H1258 C1249 0.931 . S
H1259 C1250 0.930 . S
C1260 C1262 1.422 . S
C1260 C1264 1.415 . S
C1260 N1266 1.369 . S
C1261 C1262 1.421 . S
C1261 C1263 1.417 . S
C1261 C1273 1.422 . S
C1262 C1260 1.422 . S
C1262 C1261 1.421 . S
C1262 N1272 1.359 . S
C1263 C1261 1.417 . S
C1263 C1265 1.329 . S
C1263 H1282 0.930 . S
C1264 C1260 1.415 . S
C1264 C1265 1.437 . S
C1264 C1268 1.413 . S
C1265 C1263 1.329 . S
C1265 C1264 1.437 . S
C1265 H1287 0.929 . S
N1266 C1260 1.369 . S
N1266 C1267 1.338 . S
N1266 Gd1271 2.622 . S
C1267 N1266 1.338 . S
C1267 C1269 1.378 . S
C1267 H1279 0.929 . S
C1268 C1264 1.413 . S
C1268 C1269 1.348 . S
C1268 H1284 0.931 . S
C1269 C1267 1.378 . S
C1269 C1268 1.348 . S
C1269 H1285 0.930 . S
Gd1270 N1290 2.622 . S
Gd1270 N1297 2.570 . S
Gd1270 O1304 2.353 . S
Gd1270 O1305 2.468 . S
Gd1270 O1306 2.427 . S
Gd1270 O1308 2.388 . S
Gd1270 O1309 2.386 . S
Gd1270 O1313 2.307 . S
Gd1270 C1323 2.805 . S
Gd1271 N1266 2.622 . S
Gd1271 N1272 2.570 . S
Gd1271 O1303 2.386 . S
Gd1271 O1307 2.307 . S
Gd1271 O1310 2.353 . S
Gd1271 O1311 2.468 . S
Gd1271 O1312 2.427 . S
Gd1271 O1314 2.388 . S
Gd1271 C1335 2.805 . S
N1272 C1262 1.359 . S
N1272 Gd1271 2.570 . S
N1272 C1274 1.343 . S
C1273 C1261 1.422 . S
C1273 C1275 1.321 . S
C1273 H1281 0.931 . S
C1274 N1272 1.343 . S
C1274 C1275 1.390 . S
C1274 H1276 0.931 . S
C1275 C1273 1.321 . S
C1275 C1274 1.390 . S
C1275 H1277 0.930 . S
H1276 C1274 0.931 . S
H1277 C1275 0.930 . S
H1278 C1301 0.931 . S
H1279 C1267 0.929 . S
H1280 C1302 0.930 . S
H1281 C1273 0.931 . S
H1282 C1263 0.930 . S
H1283 C1292 0.929 . S
H1284 C1268 0.931 . S
H1285 C1269 0.930 . S
H1286 C1324 0.930 . S
H1287 C1265 0.929 . S
H1288 C1293 0.931 . S
H1289 C1294 0.930 . S
N1290 Gd1270 2.622 . S
N1290 C1291 1.369 . S
N1290 C1292 1.338 . S
C1291 N1290 1.369 . S
C1291 C1295 1.415 . S
C1291 C1298 1.422 . S
C1292 H1283 0.929 . S
C1292 N1290 1.338 . S
C1292 C1294 1.378 . S
C1293 H1288 0.931 . S
C1293 C1294 1.348 . S
C1293 C1295 1.413 . S
C1294 H1289 0.930 . S
C1294 C1292 1.378 . S
C1294 C1293 1.348 . S
C1295 C1291 1.415 . S
C1295 C1293 1.413 . S
C1295 C1325 1.437 . S
H1296 C1325 0.929 . S
N1297 Gd1270 2.570 . S
N1297 C1298 1.359 . S
N1297 C1301 1.343 . S
C1298 C1291 1.422 . S
C1298 N1297 1.359 . S
C1298 C1300 1.421 . S
C1299 C1300 1.422 . S
C1299 C1302 1.321 . S
C1299 H1326 0.931 . S
C1300 C1298 1.421 . S
C1300 C1299 1.422 . S
C1300 C1324 1.417 . S
C1301 H1278 0.931 . S
C1301 N1297 1.343 . S
C1301 C1302 1.390 . S
C1302 H1280 0.930 . S
C1302 C1299 1.321 . S
C1302 C1301 1.390 . S
O1303 Gd1271 2.386 . S
O1303 C1315 1.265 . S
O1304 Gd1270 2.353 . S
O1304 C1315 1.242 . S
O1305 Gd1270 2.468 . S
O1305 C1323 1.263 . S
O1306 Gd1270 2.427 . S
O1306 C1323 1.252 . S
O1307 Gd1271 2.307 . S
O1307 C1316 1.261 . S
O1308 Gd1270 2.388 . S
O1308 C1316 1.252 . S
O1309 Gd1270 2.386 . S
O1309 C1327 1.265 . S
O1310 Gd1271 2.353 . S
O1310 C1327 1.242 . S
O1311 Gd1271 2.468 . S
O1311 C1335 1.263 . S
O1312 Gd1271 2.427 . S
O1312 C1335 1.252 . S
O1313 Gd1270 2.307 . S
O1313 C1328 1.261 . S
O1314 Gd1271 2.388 . S
O1314 C1328 1.252 . S
C1315 O1303 1.265 . S
C1315 O1304 1.242 . S
C1316 O1307 1.261 . S
C1316 O1308 1.252 . S
C1317 C1320 1.394 . S
C1317 C1322 1.370 . S
C1317 C1323 1.500 . S
C1318 C1321 1.383 . S
C1318 C1322 1.395 . S
C1319 C1320 1.396 . S
C1319 C1321 1.365 . S
C1319 H1336 0.929 . S
C1320 C1317 1.394 . S
C1320 C1319 1.396 . S
C1320 H1337 0.930 . S
C1321 C1318 1.383 . S
C1321 C1319 1.365 . S
C1321 H1338 0.931 . S
C1322 C1317 1.370 . S
C1322 C1318 1.395 . S
C1322 H1339 0.930 . S
C1323 Gd1270 2.805 . S
C1323 O1305 1.263 . S
C1323 O1306 1.252 . S
C1323 C1317 1.500 . S
C1324 H1286 0.930 . S
C1324 C1300 1.417 . S
C1324 C1325 1.329 . S
C1325 C1295 1.437 . S
C1325 H1296 0.929 . S
C1325 C1324 1.329 . S
H1326 C1299 0.931 . S
C1327 O1309 1.265 . S
C1327 O1310 1.242 . S
C1328 O1313 1.261 . S
C1328 O1314 1.252 . S
C1329 C1332 1.394 . S
C1329 C1334 1.370 . S
C1329 C1335 1.500 . S
C1330 C1333 1.383 . S
C1330 C1334 1.395 . S
C1331 C1332 1.396 . S
C1331 C1333 1.365 . S
C1331 H1340 0.929 . S
C1332 C1329 1.394 . S
C1332 C1331 1.396 . S
C1332 H1341 0.930 . S
C1333 C1330 1.383 . S
C1333 C1331 1.365 . S
C1333 H1342 0.931 . S
C1334 C1329 1.370 . S
C1334 C1330 1.395 . S
C1334 H1343 0.930 . S
C1335 Gd1271 2.805 . S
C1335 O1311 1.263 . S
C1335 O1312 1.252 . S
C1335 C1329 1.500 . S
H1336 C1319 0.929 . S
H1337 C1320 0.930 . S
H1338 C1321 0.931 . S
H1339 C1322 0.930 . S
H1340 C1331 0.929 . S
H1341 C1332 0.930 . S
H1342 C1333 0.931 . S
H1343 C1334 0.930 . S
C1344 C1346 1.422 . S
C1344 C1348 1.415 . S
C1344 N1350 1.369 . S
C1345 C1346 1.421 . S
C1345 C1347 1.417 . S
C1345 C1357 1.422 . S
C1346 C1344 1.422 . S
C1346 C1345 1.421 . S
C1346 N1356 1.359 . S
C1347 C1345 1.417 . S
C1347 C1349 1.329 . S
C1347 H1366 0.930 . S
C1348 C1344 1.415 . S
C1348 C1349 1.437 . S
C1348 C1352 1.413 . S
C1349 C1347 1.329 . S
C1349 C1348 1.437 . S
C1349 H1371 0.929 . S
N1350 C1344 1.369 . S
N1350 C1351 1.338 . S
N1350 Gd1355 2.622 . S
C1351 N1350 1.338 . S
C1351 C1353 1.378 . S
C1351 H1363 0.929 . S
C1352 C1348 1.413 . S
C1352 C1353 1.348 . S
C1352 H1368 0.931 . S
C1353 C1351 1.378 . S
C1353 C1352 1.348 . S
C1353 H1369 0.930 . S
Gd1354 N1374 2.622 . S
Gd1354 N1381 2.570 . S
Gd1354 O1388 2.353 . S
Gd1354 O1389 2.468 . S
Gd1354 O1390 2.427 . S
Gd1354 O1392 2.388 . S
Gd1354 O1393 2.386 . S
Gd1354 O1397 2.307 . S
Gd1354 C1407 2.805 . S
Gd1355 N1350 2.622 . S
Gd1355 N1356 2.570 . S
Gd1355 O1387 2.386 . S
Gd1355 O1391 2.307 . S
Gd1355 O1394 2.353 . S
Gd1355 O1395 2.468 . S
Gd1355 O1396 2.427 . S
Gd1355 O1398 2.388 . S
Gd1355 C1419 2.805 . S
N1356 C1346 1.359 . S
N1356 Gd1355 2.570 . S
N1356 C1358 1.343 . S
C1357 C1345 1.422 . S
C1357 C1359 1.321 . S
C1357 H1365 0.931 . S
C1358 N1356 1.343 . S
C1358 C1359 1.390 . S
C1358 H1360 0.931 . S
C1359 C1357 1.321 . S
C1359 C1358 1.390 . S
C1359 H1361 0.930 . S
H1360 C1358 0.931 . S
H1361 C1359 0.930 . S
H1362 C1385 0.931 . S
H1363 C1351 0.929 . S
H1364 C1386 0.930 . S
H1365 C1357 0.931 . S
H1366 C1347 0.930 . S
H1367 C1376 0.929 . S
H1368 C1352 0.931 . S
H1369 C1353 0.930 . S
H1370 C1408 0.930 . S
H1371 C1349 0.929 . S
H1372 C1377 0.931 . S
H1373 C1378 0.930 . S
N1374 Gd1354 2.622 . S
N1374 C1375 1.369 . S
N1374 C1376 1.338 . S
C1375 N1374 1.369 . S
C1375 C1379 1.415 . S
C1375 C1382 1.422 . S
C1376 H1367 0.929 . S
C1376 N1374 1.338 . S
C1376 C1378 1.378 . S
C1377 H1372 0.931 . S
C1377 C1378 1.348 . S
C1377 C1379 1.413 . S
C1378 H1373 0.930 . S
C1378 C1376 1.378 . S
C1378 C1377 1.348 . S
C1379 C1375 1.415 . S
C1379 C1377 1.413 . S
C1379 C1409 1.437 . S
H1380 C1409 0.929 . S
N1381 Gd1354 2.570 . S
N1381 C1382 1.359 . S
N1381 C1385 1.343 . S
C1382 C1375 1.422 . S
C1382 N1381 1.359 . S
C1382 C1384 1.421 . S
C1383 C1384 1.422 . S
C1383 C1386 1.321 . S
C1383 H1410 0.931 . S
C1384 C1382 1.421 . S
C1384 C1383 1.422 . S
C1384 C1408 1.417 . S
C1385 H1362 0.931 . S
C1385 N1381 1.343 . S
C1385 C1386 1.390 . S
C1386 H1364 0.930 . S
C1386 C1383 1.321 . S
C1386 C1385 1.390 . S
O1387 Gd1355 2.386 . S
O1387 C1399 1.265 . S
O1388 Gd1354 2.353 . S
O1388 C1399 1.242 . S
O1389 Gd1354 2.468 . S
O1389 C1407 1.263 . S
O1390 Gd1354 2.427 . S
O1390 C1407 1.252 . S
O1391 Gd1355 2.307 . S
O1391 C1400 1.261 . S
O1392 Gd1354 2.388 . S
O1392 C1400 1.252 . S
O1393 Gd1354 2.386 . S
O1393 C1411 1.265 . S
O1394 Gd1355 2.353 . S
O1394 C1411 1.242 . S
O1395 Gd1355 2.468 . S
O1395 C1419 1.263 . S
O1396 Gd1355 2.427 . S
O1396 C1419 1.252 . S
O1397 Gd1354 2.307 . S
O1397 C1412 1.261 . S
O1398 Gd1355 2.388 . S
O1398 C1412 1.252 . S
C1399 O1387 1.265 . S
C1399 O1388 1.242 . S
C1400 O1391 1.261 . S
C1400 O1392 1.252 . S
C1401 C1404 1.394 . S
C1401 C1406 1.370 . S
C1401 C1407 1.500 . S
C1402 C1405 1.383 . S
C1402 C1406 1.395 . S
C1403 C1404 1.396 . S
C1403 C1405 1.365 . S
C1403 H1420 0.929 . S
C1404 C1401 1.394 . S
C1404 C1403 1.396 . S
C1404 H1421 0.930 . S
C1405 C1402 1.383 . S
C1405 C1403 1.365 . S
C1405 H1422 0.931 . S
C1406 C1401 1.370 . S
C1406 C1402 1.395 . S
C1406 H1423 0.930 . S
C1407 Gd1354 2.805 . S
C1407 O1389 1.263 . S
C1407 O1390 1.252 . S
C1407 C1401 1.500 . S
C1408 H1370 0.930 . S
C1408 C1384 1.417 . S
C1408 C1409 1.329 . S
C1409 C1379 1.437 . S
C1409 H1380 0.929 . S
C1409 C1408 1.329 . S
H1410 C1383 0.931 . S
C1411 O1393 1.265 . S
C1411 O1394 1.242 . S
C1412 O1397 1.261 . S
C1412 O1398 1.252 . S
C1413 C1416 1.394 . S
C1413 C1418 1.370 . S
C1413 C1419 1.500 . S
C1414 C1417 1.383 . S
C1414 C1418 1.395 . S
C1415 C1416 1.396 . S
C1415 C1417 1.365 . S
C1415 H1424 0.929 . S
C1416 C1413 1.394 . S
C1416 C1415 1.396 . S
C1416 H1425 0.930 . S
C1417 C1414 1.383 . S
C1417 C1415 1.365 . S
C1417 H1426 0.931 . S
C1418 C1413 1.370 . S
C1418 C1414 1.395 . S
C1418 H1427 0.930 . S
C1419 Gd1355 2.805 . S
C1419 O1395 1.263 . S
C1419 O1396 1.252 . S
C1419 C1413 1.500 . S
H1420 C1403 0.929 . S
H1421 C1404 0.930 . S
H1422 C1405 0.931 . S
H1423 C1406 0.930 . S
H1424 C1415 0.929 . S
H1425 C1416 0.930 . S
H1426 C1417 0.931 . S
H1427 C1418 0.930 . S
C1428 C1430 1.422 . S
C1428 C1432 1.415 . S
C1428 N1434 1.369 . S
C1429 C1430 1.421 . S
C1429 C1431 1.417 . S
C1429 C1441 1.422 . S
C1430 C1428 1.422 . S
C1430 C1429 1.421 . S
C1430 N1440 1.359 . S
C1431 C1429 1.417 . S
C1431 C1433 1.329 . S
C1431 H1450 0.930 . S
C1432 C1428 1.415 . S
C1432 C1433 1.437 . S
C1432 C1436 1.413 . S
C1433 C1431 1.329 . S
C1433 C1432 1.437 . S
C1433 H1455 0.929 . S
N1434 C1428 1.369 . S
N1434 C1435 1.338 . S
N1434 Gd1439 2.622 . S
C1435 N1434 1.338 . S
C1435 C1437 1.378 . S
C1435 H1447 0.929 . S
C1436 C1432 1.413 . S
C1436 C1437 1.348 . S
C1436 H1452 0.931 . S
C1437 C1435 1.378 . S
C1437 C1436 1.348 . S
C1437 H1453 0.930 . S
Gd1438 N1458 2.622 . S
Gd1438 N1465 2.570 . S
Gd1438 O1472 2.353 . S
Gd1438 O1473 2.468 . S
Gd1438 O1474 2.427 . S
Gd1438 O1476 2.388 . S
Gd1438 O1477 2.386 . S
Gd1438 O1481 2.307 . S
Gd1438 C1491 2.805 . S
Gd1439 N1434 2.622 . S
Gd1439 N1440 2.570 . S
Gd1439 O1471 2.386 . S
Gd1439 O1475 2.307 . S
Gd1439 O1478 2.353 . S
Gd1439 O1479 2.468 . S
Gd1439 O1480 2.427 . S
Gd1439 O1482 2.388 . S
Gd1439 C1503 2.805 . S
N1440 C1430 1.359 . S
N1440 Gd1439 2.570 . S
N1440 C1442 1.343 . S
C1441 C1429 1.422 . S
C1441 C1443 1.321 . S
C1441 H1449 0.931 . S
C1442 N1440 1.343 . S
C1442 C1443 1.390 . S
C1442 H1444 0.931 . S
C1443 C1441 1.321 . S
C1443 C1442 1.390 . S
C1443 H1445 0.930 . S
H1444 C1442 0.931 . S
H1445 C1443 0.930 . S
H1446 C1469 0.931 . S
H1447 C1435 0.929 . S
H1448 C1470 0.930 . S
H1449 C1441 0.931 . S
H1450 C1431 0.930 . S
H1451 C1460 0.929 . S
H1452 C1436 0.931 . S
H1453 C1437 0.930 . S
H1454 C1492 0.930 . S
H1455 C1433 0.929 . S
H1456 C1461 0.931 . S
H1457 C1462 0.930 . S
N1458 Gd1438 2.622 . S
N1458 C1459 1.369 . S
N1458 C1460 1.338 . S
C1459 N1458 1.369 . S
C1459 C1463 1.415 . S
C1459 C1466 1.422 . S
C1460 H1451 0.929 . S
C1460 N1458 1.338 . S
C1460 C1462 1.378 . S
C1461 H1456 0.931 . S
C1461 C1462 1.348 . S
C1461 C1463 1.413 . S
C1462 H1457 0.930 . S
C1462 C1460 1.378 . S
C1462 C1461 1.348 . S
C1463 C1459 1.415 . S
C1463 C1461 1.413 . S
C1463 C1493 1.437 . S
H1464 C1493 0.929 . S
N1465 Gd1438 2.570 . S
N1465 C1466 1.359 . S
N1465 C1469 1.343 . S
C1466 C1459 1.422 . S
C1466 N1465 1.359 . S
C1466 C1468 1.421 . S
C1467 C1468 1.422 . S
C1467 C1470 1.321 . S
C1467 H1494 0.931 . S
C1468 C1466 1.421 . S
C1468 C1467 1.422 . S
C1468 C1492 1.417 . S
C1469 H1446 0.931 . S
C1469 N1465 1.343 . S
C1469 C1470 1.390 . S
C1470 H1448 0.930 . S
C1470 C1467 1.321 . S
C1470 C1469 1.390 . S
O1471 Gd1439 2.386 . S
O1471 C1483 1.265 . S
O1472 Gd1438 2.353 . S
O1472 C1483 1.242 . S
O1473 Gd1438 2.468 . S
O1473 C1491 1.263 . S
O1474 Gd1438 2.427 . S
O1474 C1491 1.252 . S
O1475 Gd1439 2.307 . S
O1475 C1484 1.261 . S
O1476 Gd1438 2.388 . S
O1476 C1484 1.252 . S
O1477 Gd1438 2.386 . S
O1477 C1495 1.265 . S
O1478 Gd1439 2.353 . S
O1478 C1495 1.242 . S
O1479 Gd1439 2.468 . S
O1479 C1503 1.263 . S
O1480 Gd1439 2.427 . S
O1480 C1503 1.252 . S
O1481 Gd1438 2.307 . S
O1481 C1496 1.261 . S
O1482 Gd1439 2.388 . S
O1482 C1496 1.252 . S
C1483 O1471 1.265 . S
C1483 O1472 1.242 . S
C1484 O1475 1.261 . S
C1484 O1476 1.252 . S
C1485 C1488 1.394 . S
C1485 C1490 1.370 . S
C1485 C1491 1.500 . S
C1486 C1489 1.383 . S
C1486 C1490 1.395 . S
C1487 C1488 1.396 . S
C1487 C1489 1.365 . S
C1487 H1504 0.929 . S
C1488 C1485 1.394 . S
C1488 C1487 1.396 . S
C1488 H1505 0.930 . S
C1489 C1486 1.383 . S
C1489 C1487 1.365 . S
C1489 H1506 0.931 . S
C1490 C1485 1.370 . S
C1490 C1486 1.395 . S
C1490 H1507 0.930 . S
C1491 Gd1438 2.805 . S
C1491 O1473 1.263 . S
C1491 O1474 1.252 . S
C1491 C1485 1.500 . S
C1492 H1454 0.930 . S
C1492 C1468 1.417 . S
C1492 C1493 1.329 . S
C1493 C1463 1.437 . S
C1493 H1464 0.929 . S
C1493 C1492 1.329 . S
H1494 C1467 0.931 . S
C1495 O1477 1.265 . S
C1495 O1478 1.242 . S
C1496 O1481 1.261 . S
C1496 O1482 1.252 . S
C1497 C1500 1.394 . S
C1497 C1502 1.370 . S
C1497 C1503 1.500 . S
C1498 C1501 1.383 . S
C1498 C1502 1.395 . S
C1499 C1500 1.396 . S
C1499 C1501 1.365 . S
C1499 H1508 0.929 . S
C1500 C1497 1.394 . S
C1500 C1499 1.396 . S
C1500 H1509 0.930 . S
C1501 C1498 1.383 . S
C1501 C1499 1.365 . S
C1501 H1510 0.931 . S
C1502 C1497 1.370 . S
C1502 C1498 1.395 . S
C1502 H1511 0.930 . S
C1503 Gd1439 2.805 . S
C1503 O1479 1.263 . S
C1503 O1480 1.252 . S
C1503 C1497 1.500 . S
H1504 C1487 0.929 . S
H1505 C1488 0.930 . S
H1506 C1489 0.931 . S
H1507 C1490 0.930 . S
H1508 C1499 0.929 . S
H1509 C1500 0.930 . S
H1510 C1501 0.931 . S
H1511 C1502 0.930 . S
C1512 C1514 1.422 . S
C1512 C1516 1.415 . S
C1512 N1518 1.369 . S
C1513 C1514 1.421 . S
C1513 C1515 1.417 . S
C1513 C1525 1.422 . S
C1514 C1512 1.422 . S
C1514 C1513 1.421 . S
C1514 N1524 1.359 . S
C1515 C1513 1.417 . S
C1515 C1517 1.329 . S
C1515 H1534 0.930 . S
C1516 C1512 1.415 . S
C1516 C1517 1.437 . S
C1516 C1520 1.413 . S
C1517 C1515 1.329 . S
C1517 C1516 1.437 . S
C1517 H1539 0.929 . S
N1518 C1512 1.369 . S
N1518 C1519 1.338 . S
N1518 Gd1523 2.622 . S
C1519 N1518 1.338 . S
C1519 C1521 1.378 . S
C1519 H1531 0.929 . S
C1520 C1516 1.413 . S
C1520 C1521 1.348 . S
C1520 H1536 0.931 . S
C1521 C1519 1.378 . S
C1521 C1520 1.348 . S
C1521 H1537 0.930 . S
Gd1522 N1542 2.622 . S
Gd1522 N1549 2.570 . S
Gd1522 O1556 2.353 . S
Gd1522 O1557 2.468 . S
Gd1522 O1558 2.427 . S
Gd1522 O1560 2.388 . S
Gd1522 O1561 2.386 . S
Gd1522 O1565 2.307 . S
Gd1522 C1575 2.805 . S
Gd1523 N1518 2.622 . S
Gd1523 N1524 2.570 . S
Gd1523 O1555 2.386 . S
Gd1523 O1559 2.307 . S
Gd1523 O1562 2.353 . S
Gd1523 O1563 2.468 . S
Gd1523 O1564 2.427 . S
Gd1523 O1566 2.388 . S
Gd1523 C1587 2.805 . S
N1524 C1514 1.359 . S
N1524 Gd1523 2.570 . S
N1524 C1526 1.343 . S
C1525 C1513 1.422 . S
C1525 C1527 1.321 . S
C1525 H1533 0.931 . S
C1526 N1524 1.343 . S
C1526 C1527 1.390 . S
C1526 H1528 0.931 . S
C1527 C1525 1.321 . S
C1527 C1526 1.390 . S
C1527 H1529 0.930 . S
H1528 C1526 0.931 . S
H1529 C1527 0.930 . S
H1530 C1553 0.931 . S
H1531 C1519 0.929 . S
H1532 C1554 0.930 . S
H1533 C1525 0.931 . S
H1534 C1515 0.930 . S
H1535 C1544 0.929 . S
H1536 C1520 0.931 . S
H1537 C1521 0.930 . S
H1538 C1576 0.930 . S
H1539 C1517 0.929 . S
H1540 C1545 0.931 . S
H1541 C1546 0.930 . S
N1542 Gd1522 2.622 . S
N1542 C1543 1.369 . S
N1542 C1544 1.338 . S
C1543 N1542 1.369 . S
C1543 C1547 1.415 . S
C1543 C1550 1.422 . S
C1544 H1535 0.929 . S
C1544 N1542 1.338 . S
C1544 C1546 1.378 . S
C1545 H1540 0.931 . S
C1545 C1546 1.348 . S
C1545 C1547 1.413 . S
C1546 H1541 0.930 . S
C1546 C1544 1.378 . S
C1546 C1545 1.348 . S
C1547 C1543 1.415 . S
C1547 C1545 1.413 . S
C1547 C1577 1.437 . S
H1548 C1577 0.929 . S
N1549 Gd1522 2.570 . S
N1549 C1550 1.359 . S
N1549 C1553 1.343 . S
C1550 C1543 1.422 . S
C1550 N1549 1.359 . S
C1550 C1552 1.421 . S
C1551 C1552 1.422 . S
C1551 C1554 1.321 . S
C1551 H1578 0.931 . S
C1552 C1550 1.421 . S
C1552 C1551 1.422 . S
C1552 C1576 1.417 . S
C1553 H1530 0.931 . S
C1553 N1549 1.343 . S
C1553 C1554 1.390 . S
C1554 H1532 0.930 . S
C1554 C1551 1.321 . S
C1554 C1553 1.390 . S
O1555 Gd1523 2.386 . S
O1555 C1567 1.265 . S
O1556 Gd1522 2.353 . S
O1556 C1567 1.242 . S
O1557 Gd1522 2.468 . S
O1557 C1575 1.263 . S
O1558 Gd1522 2.427 . S
O1558 C1575 1.252 . S
O1559 Gd1523 2.307 . S
O1559 C1568 1.261 . S
O1560 Gd1522 2.388 . S
O1560 C1568 1.252 . S
O1561 Gd1522 2.386 . S
O1561 C1579 1.265 . S
O1562 Gd1523 2.353 . S
O1562 C1579 1.242 . S
O1563 Gd1523 2.468 . S
O1563 C1587 1.263 . S
O1564 Gd1523 2.427 . S
O1564 C1587 1.252 . S
O1565 Gd1522 2.307 . S
O1565 C1580 1.261 . S
O1566 Gd1523 2.388 . S
O1566 C1580 1.252 . S
C1567 O1555 1.265 . S
C1567 O1556 1.242 . S
C1568 O1559 1.261 . S
C1568 O1560 1.252 . S
C1569 C1572 1.394 . S
C1569 C1574 1.370 . S
C1569 C1575 1.500 . S
C1570 C1573 1.383 . S
C1570 C1574 1.395 . S
C1571 C1572 1.396 . S
C1571 C1573 1.365 . S
C1571 H1588 0.929 . S
C1572 C1569 1.394 . S
C1572 C1571 1.396 . S
C1572 H1589 0.930 . S
C1573 C1570 1.383 . S
C1573 C1571 1.365 . S
C1573 H1590 0.931 . S
C1574 C1569 1.370 . S
C1574 C1570 1.395 . S
C1574 H1591 0.930 . S
C1575 Gd1522 2.805 . S
C1575 O1557 1.263 . S
C1575 O1558 1.252 . S
C1575 C1569 1.500 . S
C1576 H1538 0.930 . S
C1576 C1552 1.417 . S
C1576 C1577 1.329 . S
C1577 C1547 1.437 . S
C1577 H1548 0.929 . S
C1577 C1576 1.329 . S
H1578 C1551 0.931 . S
C1579 O1561 1.265 . S
C1579 O1562 1.242 . S
C1580 O1565 1.261 . S
C1580 O1566 1.252 . S
C1581 C1584 1.394 . S
C1581 C1586 1.370 . S
C1581 C1587 1.500 . S
C1582 C1585 1.383 . S
C1582 C1586 1.395 . S
C1583 C1584 1.396 . S
C1583 C1585 1.365 . S
C1583 H1592 0.929 . S
C1584 C1581 1.394 . S
C1584 C1583 1.396 . S
C1584 H1593 0.930 . S
C1585 C1582 1.383 . S
C1585 C1583 1.365 . S
C1585 H1594 0.931 . S
C1586 C1581 1.370 . S
C1586 C1582 1.395 . S
C1586 H1595 0.930 . S
C1587 Gd1523 2.805 . S
C1587 O1563 1.263 . S
C1587 O1564 1.252 . S
C1587 C1581 1.500 . S
H1588 C1571 0.929 . S
H1589 C1572 0.930 . S
H1590 C1573 0.931 . S
H1591 C1574 0.930 . S
H1592 C1583 0.929 . S
H1593 C1584 0.930 . S
H1594 C1585 0.931 . S
H1595 C1586 0.930 . S
C1596 C1598 1.422 1_556 S
C1596 C1600 1.415 . S
C1596 N1602 1.369 . S
C1597 C1598 1.421 . S
C1597 C1599 1.417 1_554 S
C1597 C1609 1.422 . S
C1598 C1596 1.422 1_554 S
C1598 C1597 1.421 . S
C1598 N1608 1.359 . S
C1599 C1597 1.417 1_556 S
C1599 C1601 1.329 . S
C1599 H1618 0.930 1_556 S
C1600 C1596 1.415 . S
C1600 C1601 1.437 . S
C1600 C1604 1.413 . S
C1601 C1599 1.329 . S
C1601 C1600 1.437 . S
C1601 H1623 0.929 . S
N1602 C1596 1.369 . S
N1602 C1603 1.338 . S
N1602 Gd1607 2.622 1_556 S
C1603 N1602 1.338 . S
C1603 C1605 1.378 . S
C1603 H1615 0.929 . S
C1604 C1600 1.413 . S
C1604 C1605 1.348 . S
C1604 H1620 0.931 . S
C1605 C1603 1.378 . S
C1605 C1604 1.348 . S
C1605 H1621 0.930 . S
Gd1606 N1626 2.622 . S
Gd1606 N1633 2.570 . S
Gd1606 O1640 2.353 1_655 S
Gd1606 O1641 2.468 . S
Gd1606 O1642 2.427 . S
Gd1606 O1644 2.388 1_655 S
Gd1606 O1645 2.386 1_655 S
Gd1606 O1649 2.303 1_654 S
Gd1606 C1659 2.805 . S
Gd1607 N1602 2.622 1_554 S
Gd1607 N1608 2.570 . S
Gd1607 O1639 2.386 . S
Gd1607 O1643 2.307 . S
Gd1607 O1646 2.353 . S
Gd1607 O1647 2.468 . S
Gd1607 O1648 2.427 1_554 S
Gd1607 O1650 2.388 1_554 S
Gd1607 C1671 2.805 1_554 S
N1608 C1598 1.359 . S
N1608 Gd1607 2.570 . S
N1608 C1610 1.343 . S
C1609 C1597 1.422 . S
C1609 C1611 1.321 . S
C1609 H1617 0.931 . S
C1610 N1608 1.343 . S
C1610 C1611 1.390 . S
C1610 H1612 0.931 . S
C1611 C1609 1.321 . S
C1611 C1610 1.390 . S
C1611 H1613 0.930 . S
H1612 C1610 0.931 . S
H1613 C1611 0.930 . S
H1614 C1637 0.931 . S
H1615 C1603 0.929 . S
H1616 C1638 0.930 . S
H1617 C1609 0.931 . S
H1618 C1599 0.930 1_554 S
H1619 C1628 0.929 1_455 S
H1620 C1604 0.931 . S
H1621 C1605 0.930 . S
H1622 C1660 0.930 . S
H1623 C1601 0.929 . S
H1624 C1629 0.931 . S
H1625 C1630 0.930 . S
N1626 Gd1606 2.622 . S
N1626 C1627 1.369 . S
N1626 C1628 1.338 . S
C1627 N1626 1.369 . S
C1627 C1631 1.415 . S
C1627 C1634 1.422 . S
C1628 H1619 0.929 1_655 S
C1628 N1626 1.338 . S
C1628 C1630 1.378 . S
C1629 H1624 0.931 . S
C1629 C1630 1.348 . S
C1629 C1631 1.413 . S
C1630 H1625 0.930 . S
C1630 C1628 1.378 . S
C1630 C1629 1.348 . S
C1631 C1627 1.415 . S
C1631 C1629 1.413 . S
C1631 C1661 1.437 . S
H1632 C1661 0.929 . S
N1633 Gd1606 2.570 . S
N1633 C1634 1.359 . S
N1633 C1637 1.343 1_554 S
C1634 C1627 1.422 . S
C1634 N1633 1.359 . S
C1634 C1636 1.421 . S
C1635 C1636 1.425 1_556 S
C1635 C1638 1.319 . S
C1635 H1662 0.930 . S
C1636 C1634 1.421 . S
C1636 C1635 1.425 1_554 S
C1636 C1660 1.417 . S
C1637 H1614 0.931 . S
C1637 N1633 1.343 1_556 S
C1637 C1638 1.390 . S
C1638 H1616 0.930 . S
C1638 C1635 1.319 . S
C1638 C1637 1.390 . S
O1639 Gd1607 2.386 . S
O1639 C1651 1.265 . S
O1640 Gd1606 2.353 1_455 S
O1640 C1651 1.242 . S
O1641 Gd1606 2.468 . S
O1641 C1659 1.263 . S
O1642 Gd1606 2.427 . S
O1642 C1659 1.252 . S
O1643 Gd1607 2.307 . S
O1643 C1652 1.261 . S
O1644 Gd1606 2.388 1_455 S
O1644 C1652 1.252 . S
O1645 Gd1606 2.386 1_455 S
O1645 C1663 1.265 . S
O1646 Gd1607 2.353 . S
O1646 C1663 1.242 . S
O1647 Gd1607 2.468 . S
O1647 C1671 1.263 1_554 S
O1648 Gd1607 2.427 1_556 S
O1648 C1671 1.252 . S
O1649 Gd1606 2.303 1_456 S
O1649 C1664 1.268 . S
O1650 Gd1607 2.388 1_556 S
O1650 C1664 1.252 . S
C1651 O1639 1.265 . S
C1651 O1640 1.242 . S
C1652 O1643 1.261 . S
C1652 O1644 1.252 . S
C1653 C1656 1.394 . S
C1653 C1658 1.370 . S
C1653 C1659 1.500 . S
C1654 C1657 1.383 . S
C1654 C1658 1.395 . S
C1655 C1656 1.396 . S
C1655 C1657 1.365 . S
C1655 H1672 0.929 . S
C1656 C1653 1.394 . S
C1656 C1655 1.396 . S
C1656 H1673 0.930 . S
C1657 C1654 1.383 . S
C1657 C1655 1.365 . S
C1657 H1674 0.931 . S
C1658 C1653 1.370 . S
C1658 C1654 1.395 . S
C1658 H1675 0.930 . S
C1659 Gd1606 2.805 . S
C1659 O1641 1.263 . S
C1659 O1642 1.252 . S
C1659 C1653 1.500 . S
C1660 H1622 0.930 . S
C1660 C1636 1.417 . S
C1660 C1661 1.329 . S
C1661 C1631 1.437 . S
C1661 H1632 0.929 . S
C1661 C1660 1.329 . S
H1662 C1635 0.930 . S
C1663 O1645 1.265 . S
C1663 O1646 1.242 . S
C1664 O1649 1.268 . S
C1664 O1650 1.252 . S
C1665 C1668 1.394 . S
C1665 C1670 1.370 1_556 S
C1665 C1671 1.500 . S
C1666 C1669 1.383 1_554 S
C1666 C1670 1.395 . S
C1667 C1668 1.396 . S
C1667 C1669 1.365 . S
C1667 H1676 0.929 . S
C1668 C1665 1.394 . S
C1668 C1667 1.396 . S
C1668 H1677 0.930 . S
C1669 C1666 1.383 1_556 S
C1669 C1667 1.365 . S
C1669 H1678 0.931 . S
C1670 C1665 1.370 1_554 S
C1670 C1666 1.395 . S
C1670 H1679 0.930 . S
C1671 Gd1607 2.805 1_556 S
C1671 O1647 1.263 1_556 S
C1671 O1648 1.252 . S
C1671 C1665 1.500 . S
H1672 C1655 0.929 . S
H1673 C1656 0.930 . S
H1674 C1657 0.931 . S
H1675 C1658 0.930 . S
H1676 C1667 0.929 . S
H1677 C1668 0.930 . S
H1678 C1669 0.931 . S
H1679 C1670 0.930 . S
H1680 C1688 0.929 . S
H1681 C1690 0.930 . S
H1682 C1692 0.930 . S
H1683 C1695 0.929 . S
H1684 C1698 0.930 . S
H1685 C1700 0.960 . S
H1686 C1700 0.960 . S
H1687 C1700 0.960 . S
C1688 H1680 0.929 . S
C1688 C1689 1.377 1_455 S
C1688 C1690 1.384 . S
C1689 C1688 1.377 1_655 S
C1689 C1695 1.390 . S
C1690 H1681 0.930 . S
C1690 C1688 1.384 . S
C1690 C1691 1.372 . S
C1691 C1690 1.372 . S
C1691 C1692 1.400 1_455 S
C1691 C1696 1.490 . S
C1692 H1682 0.930 . S
C1692 C1691 1.400 1_655 S
C1692 C1695 1.386 . S
H1693 C1709 0.930 1_655 S
H1694 C1710 0.931 1_655 S
C1695 H1683 0.929 . S
C1695 C1689 1.390 . S
C1695 C1692 1.386 . S
C1696 C1691 1.490 . S
C1696 C1698 1.395 . S
C1696 C1699 1.403 1_455 S
H1697 C1703 0.930 . S
C1698 H1684 0.930 . S
C1698 C1696 1.395 . S
C1698 C1701 1.403 . S
C1699 C1696 1.403 1_655 S
C1699 C1700 1.524 . S
C1699 C1703 1.400 . S
C1700 H1685 0.960 . S
C1700 H1686 0.960 . S
C1700 H1687 0.960 . S
C1700 C1699 1.524 . S
C1701 C1698 1.403 . S
C1701 C1702 1.392 . S
C1701 C1705 1.495 1_556 S
C1702 C1701 1.392 . S
C1702 C1703 1.385 1_455 S
C1702 C1704 1.478 . S
C1703 H1697 0.930 . S
C1703 C1699 1.400 . S
C1703 C1702 1.385 1_655 S
C1704 C1702 1.478 . S
C1704 C1706 1.381 . S
C1704 C1710 1.383 1_556 S
C1705 C1701 1.495 1_554 S
C1705 H1711 0.959 . S
C1705 H1712 0.961 . S
C1705 H1713 0.960 1_554 S
C1706 C1704 1.381 . S
C1706 C1707 1.394 . S
C1706 H1714 0.930 . S
C1707 C1706 1.394 . S
C1707 C1708 1.383 1_556 S
C1707 H1715 0.929 . S
C1708 C1707 1.383 1_554 S
C1708 C1709 1.377 . S
C1709 H1693 0.930 1_455 S
C1709 C1708 1.377 . S
C1709 C1710 1.379 . S
C1710 H1694 0.931 1_455 S
C1710 C1704 1.383 1_554 S
C1710 C1709 1.379 . S
H1711 C1705 0.959 . S
H1712 C1705 0.961 . S
H1713 C1705 0.960 1_556 S
H1714 C1706 0.930 . S
H1715 C1707 0.929 . S
H1716 C1724 0.929 . S
H1717 C1726 0.930 . S
H1718 C1728 0.930 . S
H1719 C1731 0.929 . S
H1720 C1734 0.930 . S
H1721 C1736 0.960 . S
H1722 C1736 0.960 . S
H1723 C1736 0.960 . S
C1724 H1716 0.929 . S
C1724 C1725 1.377 . S
C1724 C1726 1.384 . S
C1725 C1724 1.377 . S
C1725 C1731 1.390 . S
C1726 H1717 0.930 . S
C1726 C1724 1.384 . S
C1726 C1727 1.372 . S
C1727 C1726 1.372 . S
C1727 C1728 1.400 . S
C1727 C1732 1.490 . S
C1728 H1718 0.930 . S
C1728 C1727 1.400 . S
C1728 C1731 1.386 . S
H1729 C1745 0.930 . S
H1730 C1746 0.931 . S
C1731 H1719 0.929 . S
C1731 C1725 1.390 . S
C1731 C1728 1.386 . S
C1732 C1727 1.490 . S
C1732 C1734 1.395 . S
C1732 C1735 1.403 . S
H1733 C1739 0.930 . S
C1734 H1720 0.930 . S
C1734 C1732 1.395 . S
C1734 C1737 1.403 . S
C1735 C1732 1.403 . S
C1735 C1736 1.524 . S
C1735 C1739 1.400 . S
C1736 H1721 0.960 . S
C1736 H1722 0.960 . S
C1736 H1723 0.960 . S
C1736 C1735 1.524 . S
C1737 C1734 1.403 . S
C1737 C1738 1.392 . S
C1737 C1741 1.495 . S
C1738 C1737 1.392 . S
C1738 C1739 1.385 . S
C1738 C1740 1.478 . S
C1739 H1733 0.930 . S
C1739 C1735 1.400 . S
C1739 C1738 1.385 . S
C1740 C1738 1.478 . S
C1740 C1742 1.381 . S
C1740 C1746 1.383 . S
C1741 C1737 1.495 . S
C1741 H1747 0.959 . S
C1741 H1748 0.961 . S
C1741 H1749 0.960 . S
C1742 C1740 1.381 . S
C1742 C1743 1.394 . S
C1742 H1750 0.930 . S
C1743 C1742 1.394 . S
C1743 C1744 1.383 . S
C1743 H1751 0.929 . S
C1744 C1743 1.383 . S
C1744 C1745 1.377 . S
C1745 H1729 0.930 . S
C1745 C1744 1.377 . S
C1745 C1746 1.379 . S
C1746 H1730 0.931 . S
C1746 C1740 1.383 . S
C1746 C1745 1.379 . S
H1747 C1741 0.959 . S
H1748 C1741 0.961 . S
H1749 C1741 0.960 . S
H1750 C1742 0.930 . S
H1751 C1743 0.929 . S
H1752 C1760 0.929 . S
H1753 C1762 0.930 . S
H1754 C1764 0.930 . S
H1755 C1767 0.929 . S
H1756 C1770 0.930 . S
H1757 C1772 0.960 . S
H1758 C1772 0.960 . S
H1759 C1772 0.960 . S
C1760 H1752 0.929 . S
C1760 C1761 1.377 . S
C1760 C1762 1.384 . S
C1761 C1760 1.377 . S
C1761 C1767 1.390 . S
C1762 H1753 0.930 . S
C1762 C1760 1.384 . S
C1762 C1763 1.372 . S
C1763 C1762 1.372 . S
C1763 C1764 1.400 . S
C1763 C1768 1.490 . S
C1764 H1754 0.930 . S
C1764 C1763 1.400 . S
C1764 C1767 1.386 . S
H1765 C1781 0.930 . S
H1766 C1782 0.931 . S
C1767 H1755 0.929 . S
C1767 C1761 1.390 . S
C1767 C1764 1.386 . S
C1768 C1763 1.490 . S
C1768 C1770 1.395 . S
C1768 C1771 1.403 . S
H1769 C1775 0.930 . S
C1770 H1756 0.930 . S
C1770 C1768 1.395 . S
C1770 C1773 1.403 . S
C1771 C1768 1.403 . S
C1771 C1772 1.524 . S
C1771 C1775 1.400 . S
C1772 H1757 0.960 . S
C1772 H1758 0.960 . S
C1772 H1759 0.960 . S
C1772 C1771 1.524 . S
C1773 C1770 1.403 . S
C1773 C1774 1.392 . S
C1773 C1777 1.495 . S
C1774 C1773 1.392 . S
C1774 C1775 1.385 . S
C1774 C1776 1.478 . S
C1775 H1769 0.930 . S
C1775 C1771 1.400 . S
C1775 C1774 1.385 . S
C1776 C1774 1.478 . S
C1776 C1778 1.381 . S
C1776 C1782 1.383 . S
C1777 C1773 1.495 . S
C1777 H1783 0.959 . S
C1777 H1784 0.961 . S
C1777 H1785 0.960 . S
C1778 C1776 1.381 . S
C1778 C1779 1.394 . S
C1778 H1786 0.930 . S
C1779 C1778 1.394 . S
C1779 C1780 1.383 . S
C1779 H1787 0.929 . S
C1780 C1779 1.383 . S
C1780 C1781 1.377 . S
C1781 H1765 0.930 . S
C1781 C1780 1.377 . S
C1781 C1782 1.379 . S
C1782 H1766 0.931 . S
C1782 C1776 1.383 . S
C1782 C1781 1.379 . S
H1783 C1777 0.959 . S
H1784 C1777 0.961 . S
H1785 C1777 0.960 . S
H1786 C1778 0.930 . S
H1787 C1779 0.929 . S
H1788 C1796 0.929 . S
H1789 C1798 0.930 . S
H1790 C1800 0.930 . S
H1791 C1803 0.929 . S
H1792 C1806 0.930 . S
H1793 C1808 0.960 . S
H1794 C1808 0.960 . S
H1795 C1808 0.960 . S
C1796 H1788 0.929 . S
C1796 C1797 1.377 . S
C1796 C1798 1.384 . S
C1797 C1796 1.377 . S
C1797 C1803 1.390 . S
C1798 H1789 0.930 . S
C1798 C1796 1.384 . S
C1798 C1799 1.372 . S
C1799 C1798 1.372 . S
C1799 C1800 1.400 . S
C1799 C1804 1.490 . S
C1800 H1790 0.930 . S
C1800 C1799 1.400 . S
C1800 C1803 1.386 . S
H1801 C1817 0.930 . S
H1802 C1818 0.931 . S
C1803 H1791 0.929 . S
C1803 C1797 1.390 . S
C1803 C1800 1.386 . S
C1804 C1799 1.490 . S
C1804 C1806 1.395 . S
C1804 C1807 1.403 . S
H1805 C1811 0.930 . S
C1806 H1792 0.930 . S
C1806 C1804 1.395 . S
C1806 C1809 1.403 . S
C1807 C1804 1.403 . S
C1807 C1808 1.524 . S
C1807 C1811 1.400 . S
C1808 H1793 0.960 . S
C1808 H1794 0.960 . S
C1808 H1795 0.960 . S
C1808 C1807 1.524 . S
C1809 C1806 1.403 . S
C1809 C1810 1.392 . S
C1809 C1813 1.495 . S
C1810 C1809 1.392 . S
C1810 C1811 1.385 . S
C1810 C1812 1.478 . S
C1811 H1805 0.930 . S
C1811 C1807 1.400 . S
C1811 C1810 1.385 . S
C1812 C1810 1.478 . S
C1812 C1814 1.381 . S
C1812 C1818 1.383 . S
C1813 C1809 1.495 . S
C1813 H1819 0.959 . S
C1813 H1820 0.961 . S
C1813 H1821 0.960 . S
C1814 C1812 1.381 . S
C1814 C1815 1.394 . S
C1814 H1822 0.930 . S
C1815 C1814 1.394 . S
C1815 C1816 1.383 . S
C1815 H1823 0.929 . S
C1816 C1815 1.383 . S
C1816 C1817 1.377 . S
C1817 H1801 0.930 . S
C1817 C1816 1.377 . S
C1817 C1818 1.379 . S
C1818 H1802 0.931 . S
C1818 C1812 1.383 . S
C1818 C1817 1.379 . S
H1819 C1813 0.959 . S
H1820 C1813 0.961 . S
H1821 C1813 0.960 . S
H1822 C1814 0.930 . S
H1823 C1815 0.929 . S
H1824 C1832 0.929 . S
H1825 C1834 0.930 . S
H1826 C1836 0.930 1_655 S
H1827 C1839 0.929 1_655 S
H1828 C1842 0.930 . S
H1829 C1844 0.960 . S
H1830 C1844 0.960 . S
H1831 C1844 0.960 . S
C1832 H1824 0.929 . S
C1832 C1833 1.377 . S
C1832 C1834 1.384 . S
C1833 C1832 1.377 . S
C1833 C1839 1.390 . S
C1834 H1825 0.930 . S
C1834 C1832 1.384 . S
C1834 C1835 1.372 . S
C1835 C1834 1.372 . S
C1835 C1836 1.400 . S
C1835 C1840 1.490 . S
C1836 H1826 0.930 1_455 S
C1836 C1835 1.400 . S
C1836 C1839 1.386 . S
H1837 C1853 0.930 . S
H1838 C1854 0.931 . S
C1839 H1827 0.929 1_455 S
C1839 C1833 1.390 . S
C1839 C1836 1.386 . S
C1840 C1835 1.490 . S
C1840 C1842 1.395 . S
C1840 C1843 1.403 . S
H1841 C1847 0.930 1_655 S
C1842 H1828 0.930 . S
C1842 C1840 1.395 . S
C1842 C1845 1.403 . S
C1843 C1840 1.403 . S
C1843 C1844 1.524 1_455 S
C1843 C1847 1.400 . S
C1844 H1829 0.960 . S
C1844 H1830 0.960 . S
C1844 H1831 0.960 . S
C1844 C1843 1.524 1_655 S
C1845 C1842 1.403 . S
C1845 C1846 1.392 . S
C1845 C1849 1.495 . S
C1846 C1845 1.392 . S
C1846 C1847 1.385 . S
C1846 C1848 1.478 . S
C1847 H1841 0.930 1_455 S
C1847 C1843 1.400 . S
C1847 C1846 1.385 . S
C1848 C1846 1.478 . S
C1848 C1850 1.381 . S
C1848 C1854 1.383 . S
C1849 C1845 1.495 . S
C1849 H1855 0.959 . S
C1849 H1856 0.961 . S
C1849 H1857 0.960 . S
C1850 C1848 1.381 . S
C1850 C1851 1.394 . S
C1850 H1858 0.930 . S
C1851 C1850 1.394 . S
C1851 C1852 1.383 . S
C1851 H1859 0.929 . S
C1852 C1851 1.383 . S
C1852 C1853 1.377 . S
C1853 H1837 0.930 . S
C1853 C1852 1.377 . S
C1853 C1854 1.379 . S
C1854 H1838 0.931 . S
C1854 C1848 1.383 . S
C1854 C1853 1.379 . S
H1855 C1849 0.959 . S
H1856 C1849 0.961 . S
H1857 C1849 0.960 . S
H1858 C1850 0.930 . S
H1859 C1851 0.929 . S
H1860 C1868 0.929 . S
H1861 C1870 0.930 . S
H1862 C1872 0.930 . S
H1863 C1875 0.929 . S
H1864 C1878 0.930 . S
H1865 C1880 0.960 . S
H1866 C1880 0.960 . S
H1867 C1880 0.960 . S
C1868 H1860 0.929 . S
C1868 C1869 1.377 . S
C1868 C1870 1.384 . S
C1869 C1868 1.377 . S
C1869 C1875 1.390 . S
C1870 H1861 0.930 . S
C1870 C1868 1.384 . S
C1870 C1871 1.372 . S
C1871 C1870 1.372 . S
C1871 C1872 1.400 . S
C1871 C1876 1.490 . S
C1872 H1862 0.930 . S
C1872 C1871 1.400 . S
C1872 C1875 1.386 . S
H1873 C1889 0.930 . S
H1874 C1890 0.931 . S
C1875 H1863 0.929 . S
C1875 C1869 1.390 . S
C1875 C1872 1.386 . S
C1876 C1871 1.490 . S
C1876 C1878 1.395 . S
C1876 C1879 1.403 . S
H1877 C1883 0.930 . S
C1878 H1864 0.930 . S
C1878 C1876 1.395 . S
C1878 C1881 1.403 . S
C1879 C1876 1.403 . S
C1879 C1880 1.524 . S
C1879 C1883 1.400 . S
C1880 H1865 0.960 . S
C1880 H1866 0.960 . S
C1880 H1867 0.960 . S
C1880 C1879 1.524 . S
C1881 C1878 1.403 . S
C1881 C1882 1.392 . S
C1881 C1885 1.495 . S
C1882 C1881 1.392 . S
C1882 C1883 1.385 . S
C1882 C1884 1.478 . S
C1883 H1877 0.930 . S
C1883 C1879 1.400 . S
C1883 C1882 1.385 . S
C1884 C1882 1.478 . S
C1884 C1886 1.381 . S
C1884 C1890 1.383 . S
C1885 C1881 1.495 . S
C1885 H1891 0.959 . S
C1885 H1892 0.961 . S
C1885 H1893 0.960 . S
C1886 C1884 1.381 . S
C1886 C1887 1.394 . S
C1886 H1894 0.930 . S
C1887 C1886 1.394 . S
C1887 C1888 1.383 . S
C1887 H1895 0.929 . S
C1888 C1887 1.383 . S
C1888 C1889 1.377 . S
C1889 H1873 0.930 . S
C1889 C1888 1.377 . S
C1889 C1890 1.379 . S
C1890 H1874 0.931 . S
C1890 C1884 1.383 . S
C1890 C1889 1.379 . S
H1891 C1885 0.959 . S
H1892 C1885 0.961 . S
H1893 C1885 0.960 . S
H1894 C1886 0.930 . S
H1895 C1887 0.929 . S
H1896 C1904 0.929 . S
H1897 C1906 0.930 . S
H1898 C1908 0.930 . S
H1899 C1911 0.929 . S
H1900 C1914 0.930 . S
H1901 C1916 0.960 . S
H1902 C1916 0.960 . S
H1903 C1916 0.960 . S
C1904 H1896 0.929 . S
C1904 C1905 1.377 . S
C1904 C1906 1.384 . S
C1905 C1904 1.377 . S
C1905 C1911 1.390 . S
C1906 H1897 0.930 . S
C1906 C1904 1.384 . S
C1906 C1907 1.372 . S
C1907 C1906 1.372 . S
C1907 C1908 1.400 . S
C1907 C1912 1.490 . S
C1908 H1898 0.930 . S
C1908 C1907 1.400 . S
C1908 C1911 1.386 . S
H1909 C1925 0.930 . S
H1910 C1926 0.931 . S
C1911 H1899 0.929 . S
C1911 C1905 1.390 . S
C1911 C1908 1.386 . S
C1912 C1907 1.490 . S
C1912 C1914 1.395 . S
C1912 C1915 1.403 . S
H1913 C1919 0.930 . S
C1914 H1900 0.930 . S
C1914 C1912 1.395 . S
C1914 C1917 1.403 . S
C1915 C1912 1.403 . S
C1915 C1916 1.524 . S
C1915 C1919 1.400 . S
C1916 H1901 0.960 . S
C1916 H1902 0.960 . S
C1916 H1903 0.960 . S
C1916 C1915 1.524 . S
C1917 C1914 1.403 . S
C1917 C1918 1.392 . S
C1917 C1921 1.495 . S
C1918 C1917 1.392 . S
C1918 C1919 1.385 . S
C1918 C1920 1.478 . S
C1919 H1913 0.930 . S
C1919 C1915 1.400 . S
C1919 C1918 1.385 . S
C1920 C1918 1.478 . S
C1920 C1922 1.381 . S
C1920 C1926 1.383 . S
C1921 C1917 1.495 . S
C1921 H1927 0.959 . S
C1921 H1928 0.961 . S
C1921 H1929 0.960 . S
C1922 C1920 1.381 . S
C1922 C1923 1.394 . S
C1922 H1930 0.930 . S
C1923 C1922 1.394 . S
C1923 C1924 1.383 . S
C1923 H1931 0.929 . S
C1924 C1923 1.383 . S
C1924 C1925 1.377 . S
C1925 H1909 0.930 . S
C1925 C1924 1.377 . S
C1925 C1926 1.379 . S
C1926 H1910 0.931 . S
C1926 C1920 1.383 . S
C1926 C1925 1.379 . S
H1927 C1921 0.959 . S
H1928 C1921 0.961 . S
H1929 C1921 0.960 . S
H1930 C1922 0.930 . S
H1931 C1923 0.929 . S
H1932 C1940 0.929 . S
H1933 C1942 0.930 . S
H1934 C1944 0.930 . S
H1935 C1947 0.929 . S
H1936 C1950 0.930 . S
H1937 C1952 0.960 . S
H1938 C1952 0.960 . S
H1939 C1952 0.960 . S
C1940 H1932 0.929 . S
C1940 C1941 1.377 . S
C1940 C1942 1.384 . S
C1941 C1940 1.377 . S
C1941 C1947 1.390 . S
C1942 H1933 0.930 . S
C1942 C1940 1.384 . S
C1942 C1943 1.372 . S
C1943 C1942 1.372 . S
C1943 C1944 1.400 . S
C1943 C1948 1.490 . S
C1944 H1934 0.930 . S
C1944 C1943 1.400 . S
C1944 C1947 1.386 . S
H1945 C1961 0.930 . S
H1946 C1962 0.931 . S
C1947 H1935 0.929 . S
C1947 C1941 1.390 . S
C1947 C1944 1.386 . S
C1948 C1943 1.490 . S
C1948 C1950 1.395 . S
C1948 C1951 1.403 . S
H1949 C1955 0.930 . S
C1950 H1936 0.930 . S
C1950 C1948 1.395 . S
C1950 C1953 1.403 . S
C1951 C1948 1.403 . S
C1951 C1952 1.524 . S
C1951 C1955 1.400 . S
C1952 H1937 0.960 . S
C1952 H1938 0.960 . S
C1952 H1939 0.960 . S
C1952 C1951 1.524 . S
C1953 C1950 1.403 . S
C1953 C1954 1.392 . S
C1953 C1957 1.495 . S
C1954 C1953 1.392 . S
C1954 C1955 1.385 . S
C1954 C1956 1.478 . S
C1955 H1949 0.930 . S
C1955 C1951 1.400 . S
C1955 C1954 1.385 . S
C1956 C1954 1.478 . S
C1956 C1958 1.381 . S
C1956 C1962 1.383 . S
C1957 C1953 1.495 . S
C1957 H1963 0.959 . S
C1957 H1964 0.961 . S
C1957 H1965 0.960 . S
C1958 C1956 1.381 . S
C1958 C1959 1.394 . S
C1958 H1966 0.930 . S
C1959 C1958 1.394 . S
C1959 C1960 1.383 . S
C1959 H1967 0.929 . S
C1960 C1959 1.383 . S
C1960 C1961 1.377 . S
C1961 H1945 0.930 . S
C1961 C1960 1.377 . S
C1961 C1962 1.379 . S
C1962 H1946 0.931 . S
C1962 C1956 1.383 . S
C1962 C1961 1.379 . S
H1963 C1957 0.959 . S
H1964 C1957 0.961 . S
H1965 C1957 0.960 . S
H1966 C1958 0.930 . S
H1967 C1959 0.929 . S
H1968 C1976 0.949 . S
H1969 C1978 0.930 1_565 S
H1970 C1980 0.930 . S
H1971 C1983 0.929 . S
H1972 C1986 0.930 . S
H1973 C1988 0.960 1_455 S
H1974 C1988 0.960 1_565 S
H1975 C1988 0.960 . S
C1976 H1968 0.949 . S
C1976 C1977 1.364 1_565 S
C1976 C1978 1.379 1_565 S
C1977 C1976 1.364 1_545 S
C1977 C1983 1.390 . S
C1978 H1969 0.930 1_545 S
C1978 C1976 1.379 1_545 S
C1978 C1979 1.372 . S
C1979 C1978 1.372 . S
C1979 C1980 1.400 . S
C1979 C1984 1.490 . S
C1980 H1970 0.930 . S
C1980 C1979 1.400 . S
C1980 C1983 1.386 . S
H1981 C1997 0.930 . S
H1982 C1998 0.926 1_455 S
C1983 H1971 0.929 . S
C1983 C1977 1.390 . S
C1983 C1980 1.386 . S
C1984 C1979 1.490 . S
C1984 C1986 1.395 . S
C1984 C1987 1.403 . S
H1985 C1991 0.930 . S
C1986 H1972 0.930 . S
C1986 C1984 1.395 . S
C1986 C1989 1.403 . S
C1987 C1984 1.403 . S
C1987 C1988 1.524 . S
C1987 C1991 1.400 . S
C1988 H1973 0.960 1_655 S
C1988 H1974 0.960 1_545 S
C1988 H1975 0.960 . S
C1988 C1987 1.524 . S
C1989 C1986 1.403 . S
C1989 C1990 1.392 . S
C1989 C1993 1.495 . S
C1990 C1989 1.392 . S
C1990 C1991 1.385 . S
C1990 C1992 1.478 . S
C1991 H1985 0.930 . S
C1991 C1987 1.400 . S
C1991 C1990 1.385 . S
C1992 C1990 1.478 . S
C1992 C1994 1.381 . S
C1992 C1998 1.405 . S
C1993 C1989 1.495 . S
C1993 H1999 0.959 . S
C1993 H2000 0.961 . S
C1993 H2001 0.960 . S
C1994 C1992 1.381 . S
C1994 C1995 1.394 . S
C1994 H2002 0.930 . S
C1995 C1994 1.394 . S
C1995 C1996 1.355 1_655 S
C1995 H2003 0.929 . S
C1996 C1995 1.355 1_455 S
C1996 C1997 1.385 . S
C1997 H1981 0.930 . S
C1997 C1996 1.385 . S
C1997 C1998 1.363 1_455 S
C1998 H1982 0.926 1_655 S
C1998 C1992 1.405 . S
C1998 C1997 1.363 1_655 S
H1999 C1993 0.959 . S
H2000 C1993 0.961 . S
H2001 C1993 0.960 . S
H2002 C1994 0.930 . S
H2003 C1995 0.929 . S
H2004 C2012 0.929 . S
H2005 C2014 0.930 . S
H2006 C2016 0.930 . S
H2007 C2019 0.929 . S
H2008 C2022 0.930 . S
H2009 C2024 0.960 . S
H2010 C2024 0.960 . S
H2011 C2024 0.960 . S
C2012 H2004 0.929 . S
C2012 C2013 1.377 . S
C2012 C2014 1.384 . S
C2013 C2012 1.377 . S
C2013 C2019 1.390 . S
C2014 H2005 0.930 . S
C2014 C2012 1.384 . S
C2014 C2015 1.372 . S
C2015 C2014 1.372 . S
C2015 C2016 1.400 . S
C2015 C2020 1.490 . S
C2016 H2006 0.930 . S
C2016 C2015 1.400 . S
C2016 C2019 1.386 . S
H2017 C2033 0.930 . S
H2018 C2034 0.931 . S
C2019 H2007 0.929 . S
C2019 C2013 1.390 . S
C2019 C2016 1.386 . S
C2020 C2015 1.490 . S
C2020 C2022 1.395 . S
C2020 C2023 1.403 . S
H2021 C2027 0.930 . S
C2022 H2008 0.930 . S
C2022 C2020 1.395 . S
C2022 C2025 1.403 . S
C2023 C2020 1.403 . S
C2023 C2024 1.524 . S
C2023 C2027 1.400 . S
C2024 H2009 0.960 . S
C2024 H2010 0.960 . S
C2024 H2011 0.960 . S
C2024 C2023 1.524 . S
C2025 C2022 1.403 . S
C2025 C2026 1.392 . S
C2025 C2029 1.495 . S
C2026 C2025 1.392 . S
C2026 C2027 1.385 . S
C2026 C2028 1.478 . S
C2027 H2021 0.930 . S
C2027 C2023 1.400 . S
C2027 C2026 1.385 . S
C2028 C2026 1.478 . S
C2028 C2030 1.381 . S
C2028 C2034 1.383 . S
C2029 C2025 1.495 . S
C2029 H2035 0.959 . S
C2029 H2036 0.961 . S
C2029 H2037 0.960 . S
C2030 C2028 1.381 . S
C2030 C2031 1.394 . S
C2030 H2038 0.930 . S
C2031 C2030 1.394 . S
C2031 C2032 1.383 . S
C2031 H2039 0.929 . S
C2032 C2031 1.383 . S
C2032 C2033 1.377 . S
C2033 H2017 0.930 . S
C2033 C2032 1.377 . S
C2033 C2034 1.379 . S
C2034 H2018 0.931 . S
C2034 C2028 1.383 . S
C2034 C2033 1.379 . S
H2035 C2029 0.959 . S
H2036 C2029 0.961 . S
H2037 C2029 0.960 . S
H2038 C2030 0.930 . S
H2039 C2031 0.929 . S
H2040 C2048 0.929 . S
H2041 C2050 0.930 . S
H2042 C2052 0.930 . S
H2043 C2055 0.929 . S
H2044 C2058 0.930 . S
H2045 C2060 0.960 . S
H2046 C2060 0.960 . S
H2047 C2060 0.960 . S
C2048 H2040 0.929 . S
C2048 C2049 1.377 . S
C2048 C2050 1.384 . S
C2049 C2048 1.377 . S
C2049 C2055 1.390 . S
C2050 H2041 0.930 . S
C2050 C2048 1.384 . S
C2050 C2051 1.372 . S
C2051 C2050 1.372 . S
C2051 C2052 1.400 . S
C2051 C2056 1.490 . S
C2052 H2042 0.930 . S
C2052 C2051 1.400 . S
C2052 C2055 1.386 . S
H2053 C2069 0.930 . S
H2054 C2070 0.931 . S
C2055 H2043 0.929 . S
C2055 C2049 1.390 . S
C2055 C2052 1.386 . S
C2056 C2051 1.490 . S
C2056 C2058 1.395 . S
C2056 C2059 1.403 . S
H2057 C2063 0.930 . S
C2058 H2044 0.930 . S
C2058 C2056 1.395 . S
C2058 C2061 1.403 . S
C2059 C2056 1.403 . S
C2059 C2060 1.524 . S
C2059 C2063 1.400 . S
C2060 H2045 0.960 . S
C2060 H2046 0.960 . S
C2060 H2047 0.960 . S
C2060 C2059 1.524 . S
C2061 C2058 1.403 . S
C2061 C2062 1.392 . S
C2061 C2065 1.495 . S
C2062 C2061 1.392 . S
C2062 C2063 1.385 . S
C2062 C2064 1.478 . S
C2063 H2057 0.930 . S
C2063 C2059 1.400 . S
C2063 C2062 1.385 . S
C2064 C2062 1.478 . S
C2064 C2066 1.381 . S
C2064 C2070 1.383 . S
C2065 C2061 1.495 . S
C2065 H2071 0.935 1_545 S
C2065 H2072 0.961 . S
C2065 H2073 0.960 1_545 S
C2066 C2064 1.381 . S
C2066 C2067 1.394 . S
C2066 H2074 0.930 1_545 S
C2067 C2066 1.394 . S
C2067 C2068 1.383 . S
C2067 H2075 0.929 1_545 S
C2068 C2067 1.383 . S
C2068 C2069 1.377 . S
C2069 H2053 0.930 . S
C2069 C2068 1.377 . S
C2069 C2070 1.379 . S
C2070 H2054 0.931 . S
C2070 C2064 1.383 . S
C2070 C2069 1.379 . S
H2071 C2065 0.935 1_565 S
H2072 C2065 0.961 . S
H2073 C2065 0.960 1_565 S
H2074 C2066 0.930 1_565 S
H2075 C2067 0.929 1_565 S
H2076 C2084 0.929 . S
H2077 C2086 0.930 . S
H2078 C2088 0.930 . S
H2079 C2091 0.929 . S
H2080 C2094 0.930 . S
H2081 C2096 0.960 . S
H2082 C2096 0.960 . S
H2083 C2096 0.960 . S
C2084 H2076 0.929 . S
C2084 C2085 1.377 . S
C2084 C2086 1.384 . S
C2085 C2084 1.377 . S
C2085 C2091 1.390 . S
C2086 H2077 0.930 . S
C2086 C2084 1.384 . S
C2086 C2087 1.372 . S
C2087 C2086 1.372 . S
C2087 C2088 1.400 . S
C2087 C2092 1.490 . S
C2088 H2078 0.930 . S
C2088 C2087 1.400 . S
C2088 C2091 1.386 . S
H2089 C2105 0.930 . S
H2090 C2106 0.931 . S
C2091 H2079 0.929 . S
C2091 C2085 1.390 . S
C2091 C2088 1.386 . S
C2092 C2087 1.490 . S
C2092 C2094 1.395 . S
C2092 C2095 1.403 . S
H2093 C2099 0.930 . S
C2094 H2080 0.930 . S
C2094 C2092 1.395 . S
C2094 C2097 1.403 . S
C2095 C2092 1.403 . S
C2095 C2096 1.524 . S
C2095 C2099 1.400 . S
C2096 H2081 0.960 . S
C2096 H2082 0.960 . S
C2096 H2083 0.960 . S
C2096 C2095 1.524 . S
C2097 C2094 1.403 . S
C2097 C2098 1.392 . S
C2097 C2101 1.495 . S
C2098 C2097 1.392 . S
C2098 C2099 1.385 . S
C2098 C2100 1.478 . S
C2099 H2093 0.930 . S
C2099 C2095 1.400 . S
C2099 C2098 1.385 . S
C2100 C2098 1.478 . S
C2100 C2102 1.381 . S
C2100 C2106 1.383 . S
C2101 C2097 1.495 . S
C2101 H2107 0.959 . S
C2101 H2108 0.961 . S
C2101 H2109 0.960 . S
C2102 C2100 1.381 . S
C2102 C2103 1.394 . S
C2102 H2110 0.930 . S
C2103 C2102 1.394 . S
C2103 C2104 1.383 . S
C2103 H2111 0.929 . S
C2104 C2103 1.383 . S
C2104 C2105 1.377 . S
C2105 H2089 0.930 . S
C2105 C2104 1.377 . S
C2105 C2106 1.379 . S
C2106 H2090 0.931 . S
C2106 C2100 1.383 . S
C2106 C2105 1.379 . S
H2107 C2101 0.959 . S
H2108 C2101 0.961 . S
H2109 C2101 0.960 . S
H2110 C2102 0.930 . S
H2111 C2103 0.929 . S
H2112 C2120 0.929 . S
H2113 C2122 0.930 . S
H2114 C2124 0.930 . S
H2115 C2127 0.929 . S
H2116 C2130 0.930 . S
H2117 C2132 0.960 . S
H2118 C2132 0.960 . S
H2119 C2132 0.960 . S
C2120 H2112 0.929 . S
C2120 C2121 1.377 . S
C2120 C2122 1.384 . S
C2121 C2120 1.377 . S
C2121 C2127 1.390 . S
C2122 H2113 0.930 . S
C2122 C2120 1.384 . S
C2122 C2123 1.372 . S
C2123 C2122 1.372 . S
C2123 C2124 1.400 . S
C2123 C2128 1.490 . S
C2124 H2114 0.930 . S
C2124 C2123 1.400 . S
C2124 C2127 1.386 . S
H2125 C2141 0.930 . S
H2126 C2142 0.931 . S
C2127 H2115 0.929 . S
C2127 C2121 1.390 . S
C2127 C2124 1.386 . S
C2128 C2123 1.490 . S
C2128 C2130 1.395 . S
C2128 C2131 1.403 . S
H2129 C2135 0.930 1_565 S
C2130 H2116 0.930 . S
C2130 C2128 1.395 . S
C2130 C2133 1.403 . S
C2131 C2128 1.403 . S
C2131 C2132 1.524 1_545 S
C2131 C2135 1.400 . S
C2132 H2117 0.960 . S
C2132 H2118 0.960 . S
C2132 H2119 0.960 . S
C2132 C2131 1.524 1_565 S
C2133 C2130 1.403 . S
C2133 C2134 1.392 . S
C2133 C2137 1.515 . S
C2134 C2133 1.392 . S
C2134 C2135 1.385 . S
C2134 C2136 1.478 . S
C2135 H2129 0.930 1_545 S
C2135 C2131 1.400 . S
C2135 C2134 1.385 . S
C2136 C2134 1.478 . S
C2136 C2138 1.381 1_655 S
C2136 C2142 1.383 . S
C2137 C2133 1.515 . S
C2137 H2143 0.959 1_655 S
C2137 H2144 0.987 . S
C2137 H2145 0.918 1_655 S
C2138 C2136 1.381 1_455 S
C2138 C2139 1.394 . S
C2138 H2146 0.930 . S
C2139 C2138 1.394 . S
C2139 C2140 1.383 . S
C2139 H2147 0.929 . S
C2140 C2139 1.383 . S
C2140 C2141 1.377 1_455 S
C2141 H2125 0.930 . S
C2141 C2140 1.377 1_655 S
C2141 C2142 1.379 . S
C2142 H2126 0.931 . S
C2142 C2136 1.383 . S
C2142 C2141 1.379 . S
H2143 C2137 0.959 1_455 S
H2144 C2137 0.987 . S
H2145 C2137 0.918 1_455 S
H2146 C2138 0.930 . S
H2147 C2139 0.929 . S
H2148 C2156 0.929 . S
H2149 C2158 0.930 . S
H2150 C2160 0.930 . S
H2151 C2163 0.929 . S
H2152 C2166 0.930 . S
H2153 C2168 0.960 . S
H2154 C2168 0.960 . S
H2155 C2168 0.960 . S
C2156 H2148 0.929 . S
C2156 C2157 1.377 . S
C2156 C2158 1.384 . S
C2157 C2156 1.377 . S
C2157 C2163 1.390 . S
C2158 H2149 0.930 . S
C2158 C2156 1.384 . S
C2158 C2159 1.372 . S
C2159 C2158 1.372 . S
C2159 C2160 1.400 . S
C2159 C2164 1.490 . S
C2160 H2150 0.930 . S
C2160 C2159 1.400 . S
C2160 C2163 1.386 . S
H2161 C2177 0.930 . S
H2162 C2178 0.931 . S
C2163 H2151 0.929 . S
C2163 C2157 1.390 . S
C2163 C2160 1.386 . S
C2164 C2159 1.490 . S
C2164 C2166 1.395 . S
C2164 C2167 1.403 . S
H2165 C2171 0.930 . S
C2166 H2152 0.930 . S
C2166 C2164 1.395 . S
C2166 C2169 1.403 . S
C2167 C2164 1.403 . S
C2167 C2168 1.524 . S
C2167 C2171 1.400 . S
C2168 H2153 0.960 . S
C2168 H2154 0.960 . S
C2168 H2155 0.960 . S
C2168 C2167 1.524 . S
C2169 C2166 1.403 . S
C2169 C2170 1.392 . S
C2169 C2173 1.495 . S
C2170 C2169 1.392 . S
C2170 C2171 1.385 . S
C2170 C2172 1.478 . S
C2171 H2165 0.930 . S
C2171 C2167 1.400 . S
C2171 C2170 1.385 . S
C2172 C2170 1.478 . S
C2172 C2174 1.381 . S
C2172 C2178 1.383 . S
C2173 C2169 1.495 . S
C2173 H2179 0.959 . S
C2173 H2180 0.961 . S
C2173 H2181 0.960 . S
C2174 C2172 1.381 . S
C2174 C2175 1.394 . S
C2174 H2182 0.930 . S
C2175 C2174 1.394 . S
C2175 C2176 1.383 . S
C2175 H2183 0.929 . S
C2176 C2175 1.383 . S
C2176 C2177 1.377 . S
C2177 H2161 0.930 . S
C2177 C2176 1.377 . S
C2177 C2178 1.379 . S
C2178 H2162 0.931 . S
C2178 C2172 1.383 . S
C2178 C2177 1.379 . S
H2179 C2173 0.959 . S
H2180 C2173 0.961 . S
H2181 C2173 0.960 . S
H2182 C2174 0.930 . S
H2183 C2175 0.929 . S
H2184 C2192 0.929 . S
H2185 C2194 0.930 . S
H2186 C2196 0.930 . S
H2187 C2199 0.929 . S
H2188 C2202 0.930 . S
H2189 C2204 0.960 . S
H2190 C2204 0.960 . S
H2191 C2204 0.960 . S
C2192 H2184 0.929 . S
C2192 C2193 1.377 . S
C2192 C2194 1.384 . S
C2193 C2192 1.377 . S
C2193 C2199 1.390 . S
C2194 H2185 0.930 . S
C2194 C2192 1.384 . S
C2194 C2195 1.372 . S
C2195 C2194 1.372 . S
C2195 C2196 1.400 . S
C2195 C2200 1.490 . S
C2196 H2186 0.930 . S
C2196 C2195 1.400 . S
C2196 C2199 1.386 . S
H2197 C2213 0.930 . S
H2198 C2214 0.931 . S
C2199 H2187 0.929 . S
C2199 C2193 1.390 . S
C2199 C2196 1.386 . S
C2200 C2195 1.490 . S
C2200 C2202 1.395 . S
C2200 C2203 1.403 . S
H2201 C2207 0.930 . S
C2202 H2188 0.930 . S
C2202 C2200 1.395 . S
C2202 C2205 1.403 . S
C2203 C2200 1.403 . S
C2203 C2204 1.524 . S
C2203 C2207 1.400 . S
C2204 H2189 0.960 . S
C2204 H2190 0.960 . S
C2204 H2191 0.960 . S
C2204 C2203 1.524 . S
C2205 C2202 1.403 . S
C2205 C2206 1.392 . S
C2205 C2209 1.496 . S
C2206 C2205 1.392 . S
C2206 C2207 1.385 . S
C2206 C2208 1.478 . S
C2207 H2201 0.930 . S
C2207 C2203 1.400 . S
C2207 C2206 1.385 . S
C2208 C2206 1.478 . S
C2208 C2210 1.381 . S
C2208 C2214 1.383 . S
C2209 C2205 1.496 . S
C2209 H2215 0.959 1_545 S
C2209 H2216 0.960 1_545 S
C2209 H2217 0.960 . S
C2210 C2208 1.381 . S
C2210 C2211 1.394 . S
C2210 H2218 0.930 . S
C2211 C2210 1.394 . S
C2211 C2212 1.383 . S
C2211 H2219 0.929 . S
C2212 C2211 1.383 . S
C2212 C2213 1.377 . S
C2213 H2197 0.930 . S
C2213 C2212 1.377 . S
C2213 C2214 1.379 . S
C2214 H2198 0.931 . S
C2214 C2208 1.383 . S
C2214 C2213 1.379 . S
H2215 C2209 0.959 1_565 S
H2216 C2209 0.960 1_565 S
H2217 C2209 0.960 . S
H2218 C2210 0.930 . S
H2219 C2211 0.929 . S
H2220 C2228 0.929 . S
H2221 C2230 0.930 . S
H2222 C2232 0.930 . S
H2223 C2235 0.929 . S
H2224 C2238 0.930 . S
H2225 C2240 0.960 . S
H2226 C2240 0.960 . S
H2227 C2240 0.960 . S
C2228 H2220 0.929 . S
C2228 C2229 1.377 . S
C2228 C2230 1.384 . S
C2229 C2228 1.377 . S
C2229 C2235 1.390 . S
C2230 H2221 0.930 . S
C2230 C2228 1.384 . S
C2230 C2231 1.372 . S
C2231 C2230 1.372 . S
C2231 C2232 1.400 . S
C2231 C2236 1.490 . S
C2232 H2222 0.930 . S
C2232 C2231 1.400 . S
C2232 C2235 1.386 . S
H2233 C2249 0.930 . S
H2234 C2250 0.931 . S
C2235 H2223 0.929 . S
C2235 C2229 1.390 . S
C2235 C2232 1.386 . S
C2236 C2231 1.490 . S
C2236 C2238 1.395 . S
C2236 C2239 1.403 . S
H2237 C2243 0.930 . S
C2238 H2224 0.930 . S
C2238 C2236 1.395 . S
C2238 C2241 1.403 . S
C2239 C2236 1.403 . S
C2239 C2240 1.524 . S
C2239 C2243 1.400 . S
C2240 H2225 0.960 . S
C2240 H2226 0.960 . S
C2240 H2227 0.960 . S
C2240 C2239 1.524 . S
C2241 C2238 1.403 . S
C2241 C2242 1.392 . S
C2241 C2245 1.495 . S
C2242 C2241 1.392 . S
C2242 C2243 1.385 . S
C2242 C2244 1.478 . S
C2243 H2237 0.930 . S
C2243 C2239 1.400 . S
C2243 C2242 1.385 . S
C2244 C2242 1.478 . S
C2244 C2246 1.381 . S
C2244 C2250 1.383 . S
C2245 C2241 1.495 . S
C2245 H2251 0.959 . S
C2245 H2252 0.961 . S
C2245 H2253 0.960 . S
C2246 C2244 1.381 . S
C2246 C2247 1.394 . S
C2246 H2254 0.930 . S
C2247 C2246 1.394 . S
C2247 C2248 1.383 . S
C2247 H2255 0.929 . S
C2248 C2247 1.383 . S
C2248 C2249 1.377 . S
C2249 H2233 0.930 . S
C2249 C2248 1.377 . S
C2249 C2250 1.379 . S
C2250 H2234 0.931 . S
C2250 C2244 1.383 . S
C2250 C2249 1.379 . S
H2251 C2245 0.959 . S
H2252 C2245 0.961 . S
H2253 C2245 0.960 . S
H2254 C2246 0.930 . S
H2255 C2247 0.929 . S
H2256 C2264 0.929 . S
H2257 C2266 0.930 . S
H2258 C2268 0.930 . S
H2259 C2271 0.929 . S
H2260 C2274 0.930 . S
H2261 C2276 0.960 . S
H2262 C2276 0.960 . S
H2263 C2276 0.960 . S
C2264 H2256 0.929 . S
C2264 C2265 1.377 . S
C2264 C2266 1.384 . S
C2265 C2264 1.377 . S
C2265 C2271 1.390 1_556 S
C2266 H2257 0.930 . S
C2266 C2264 1.384 . S
C2266 C2267 1.372 1_556 S
C2267 C2266 1.372 1_554 S
C2267 C2268 1.400 . S
C2267 C2272 1.490 . S
C2268 H2258 0.930 . S
C2268 C2267 1.400 . S
C2268 C2271 1.386 . S
H2269 C2285 0.930 . S
H2270 C2286 0.931 . S
C2271 H2259 0.929 . S
C2271 C2265 1.390 1_554 S
C2271 C2268 1.386 . S
C2272 C2267 1.490 . S
C2272 C2274 1.395 1_554 S
C2272 C2275 1.403 . S
H2273 C2279 0.930 . S
C2274 H2260 0.930 . S
C2274 C2272 1.395 1_556 S
C2274 C2277 1.403 . S
C2275 C2272 1.403 . S
C2275 C2276 1.524 . S
C2275 C2279 1.400 . S
C2276 H2261 0.960 . S
C2276 H2262 0.960 . S
C2276 H2263 0.960 . S
C2276 C2275 1.524 . S
C2277 C2274 1.403 . S
C2277 C2278 1.392 1_556 S
C2277 C2281 1.495 . S
C2278 C2277 1.392 1_554 S
C2278 C2279 1.385 . S
C2278 C2280 1.478 . S
C2279 H2273 0.930 . S
C2279 C2275 1.400 . S
C2279 C2278 1.385 . S
C2280 C2278 1.478 . S
C2280 C2282 1.395 . S
C2280 C2286 1.383 . S
C2281 C2277 1.495 . S
C2281 H2287 0.959 . S
C2281 H2288 0.961 . S
C2281 H2289 0.960 . S
C2282 C2280 1.395 . S
C2282 C2283 1.387 1_565 S
C2282 H2290 0.912 1_564 S
C2283 C2282 1.387 1_545 S
C2283 C2284 1.383 1_545 S
C2283 H2291 0.929 . S
C2284 C2283 1.383 1_565 S
C2284 C2285 1.377 . S
C2285 H2269 0.930 . S
C2285 C2284 1.377 . S
C2285 C2286 1.379 . S
C2286 H2270 0.931 . S
C2286 C2280 1.383 . S
C2286 C2285 1.379 . S
H2287 C2281 0.959 . S
H2288 C2281 0.961 . S
H2289 C2281 0.960 . S
H2290 C2282 0.912 1_546 S
H2291 C2283 0.929 . S
H2292 C2300 0.929 . S
H2293 C2302 0.930 . S
H2294 C2304 0.930 . S
H2295 C2307 0.929 . S
H2296 C2310 0.930 . S
H2297 C2312 0.960 . S
H2298 C2312 0.960 . S
H2299 C2312 0.960 . S
C2300 H2292 0.929 . S
C2300 C2301 1.377 . S
C2300 C2302 1.384 . S
C2301 C2300 1.377 . S
C2301 C2307 1.390 1_554 S
C2302 H2293 0.930 . S
C2302 C2300 1.384 . S
C2302 C2303 1.372 . S
C2303 C2302 1.372 . S
C2303 C2304 1.400 1_554 S
C2303 C2308 1.490 . S
C2304 H2294 0.930 . S
C2304 C2303 1.400 1_556 S
C2304 C2307 1.386 . S
H2305 C2321 0.930 . S
H2306 C2322 0.931 . S
C2307 H2295 0.929 . S
C2307 C2301 1.390 1_556 S
C2307 C2304 1.386 . S
C2308 C2303 1.490 . S
C2308 C2310 1.395 1_554 S
C2308 C2311 1.403 . S
H2309 C2315 0.930 . S
C2310 H2296 0.930 . S
C2310 C2308 1.395 1_556 S
C2310 C2313 1.403 . S
C2311 C2308 1.403 . S
C2311 C2312 1.524 . S
C2311 C2315 1.400 . S
C2312 H2297 0.960 . S
C2312 H2298 0.960 . S
C2312 H2299 0.960 . S
C2312 C2311 1.524 . S
C2313 C2310 1.403 . S
C2313 C2314 1.392 1_556 S
C2313 C2317 1.495 . S
C2314 C2313 1.392 1_554 S
C2314 C2315 1.385 . S
C2314 C2316 1.478 . S
C2315 H2309 0.930 . S
C2315 C2311 1.400 . S
C2315 C2314 1.385 . S
C2316 C2314 1.478 . S
C2316 C2318 1.381 . S
C2316 C2322 1.383 1_554 S
C2317 C2313 1.495 . S
C2317 H2323 0.959 . S
C2317 H2324 0.961 . S
C2317 H2325 0.990 . S
C2318 C2316 1.381 . S
C2318 C2319 1.394 . S
C2318 H2326 0.930 . S
C2319 C2318 1.394 . S
C2319 C2320 1.383 . S
C2319 H2327 0.929 . S
C2320 C2319 1.383 . S
C2320 C2321 1.377 1_554 S
C2321 H2305 0.930 . S
C2321 C2320 1.377 1_556 S
C2321 C2322 1.379 . S
C2322 H2306 0.931 . S
C2322 C2316 1.383 1_556 S
C2322 C2321 1.379 . S
H2323 C2317 0.959 . S
H2324 C2317 0.961 . S
H2325 C2317 0.990 . S
H2326 C2318 0.930 . S
H2327 C2319 0.929 . S
H2328 C2336 0.929 . S
H2329 C2338 0.930 . S
H2330 C2340 0.930 . S
H2331 C2343 0.929 . S
H2332 C2346 0.930 . S
H2333 C2348 0.960 . S
H2334 C2348 0.960 . S
H2335 C2348 0.960 . S
C2336 H2328 0.929 . S
C2336 C2337 1.377 . S
C2336 C2338 1.384 . S
C2337 C2336 1.377 . S
C2337 C2343 1.390 . S
C2338 H2329 0.930 . S
C2338 C2336 1.384 . S
C2338 C2339 1.372 . S
C2339 C2338 1.372 . S
C2339 C2340 1.400 . S
C2339 C2344 1.490 . S
C2340 H2330 0.930 . S
C2340 C2339 1.400 . S
C2340 C2343 1.386 . S
H2341 C2357 0.930 . S
H2342 C2358 0.931 . S
C2343 H2331 0.929 . S
C2343 C2337 1.390 . S
C2343 C2340 1.386 . S
C2344 C2339 1.490 . S
C2344 C2346 1.395 . S
C2344 C2347 1.403 . S
H2345 C2351 0.930 . S
C2346 H2332 0.930 . S
C2346 C2344 1.395 . S
C2346 C2349 1.403 . S
C2347 C2344 1.403 . S
C2347 C2348 1.524 . S
C2347 C2351 1.400 . S
C2348 H2333 0.960 . S
C2348 H2334 0.960 . S
C2348 H2335 0.960 . S
C2348 C2347 1.524 . S
C2349 C2346 1.403 . S
C2349 C2350 1.392 . S
C2349 C2353 1.495 . S
C2350 C2349 1.392 . S
C2350 C2351 1.385 . S
C2350 C2352 1.478 . S
C2351 H2345 0.930 . S
C2351 C2347 1.400 . S
C2351 C2350 1.385 . S
C2352 C2350 1.478 . S
C2352 C2354 1.381 . S
C2352 C2358 1.383 . S
C2353 C2349 1.495 . S
C2353 H2359 0.959 . S
C2353 H2360 0.961 . S
C2353 H2361 0.960 . S
C2354 C2352 1.381 . S
C2354 C2355 1.394 . S
C2354 H2362 0.930 . S
C2355 C2354 1.394 . S
C2355 C2356 1.383 . S
C2355 H2363 0.929 . S
C2356 C2355 1.383 . S
C2356 C2357 1.377 . S
C2357 H2341 0.930 . S
C2357 C2356 1.377 . S
C2357 C2358 1.379 . S
C2358 H2342 0.931 . S
C2358 C2352 1.383 . S
C2358 C2357 1.379 . S
H2359 C2353 0.959 . S
H2360 C2353 0.961 . S
H2361 C2353 0.960 . S
H2362 C2354 0.930 . S
H2363 C2355 0.929 . S
H2364 C2372 0.929 . S
H2365 C2374 0.930 . S
H2366 C2376 0.930 . S
H2367 C2379 0.929 . S
H2368 C2382 0.930 . S
H2369 C2384 0.960 . S
H2370 C2384 0.960 . S
H2371 C2384 0.960 . S
C2372 H2364 0.929 . S
C2372 C2373 1.377 . S
C2372 C2374 1.384 . S
C2373 C2372 1.377 . S
C2373 C2379 1.390 . S
C2374 H2365 0.930 . S
C2374 C2372 1.384 . S
C2374 C2375 1.372 . S
C2375 C2374 1.372 . S
C2375 C2376 1.400 . S
C2375 C2380 1.490 . S
C2376 H2366 0.930 . S
C2376 C2375 1.400 . S
C2376 C2379 1.386 . S
H2377 C2393 0.930 . S
H2378 C2394 0.931 . S
C2379 H2367 0.929 . S
C2379 C2373 1.390 . S
C2379 C2376 1.386 . S
C2380 C2375 1.490 . S
C2380 C2382 1.395 . S
C2380 C2383 1.403 . S
H2381 C2387 0.930 . S
C2382 H2368 0.930 . S
C2382 C2380 1.395 . S
C2382 C2385 1.403 . S
C2383 C2380 1.403 . S
C2383 C2384 1.524 . S
C2383 C2387 1.400 . S
C2384 H2369 0.960 . S
C2384 H2370 0.960 . S
C2384 H2371 0.960 . S
C2384 C2383 1.524 . S
C2385 C2382 1.403 . S
C2385 C2386 1.392 . S
C2385 C2389 1.495 . S
C2386 C2385 1.392 . S
C2386 C2387 1.385 . S
C2386 C2388 1.478 . S
C2387 H2381 0.930 . S
C2387 C2383 1.400 . S
C2387 C2386 1.385 . S
C2388 C2386 1.478 . S
C2388 C2390 1.381 . S
C2388 C2394 1.383 . S
C2389 C2385 1.495 . S
C2389 H2395 0.959 . S
C2389 H2396 0.961 . S
C2389 H2397 0.960 . S
C2390 C2388 1.381 . S
C2390 C2391 1.394 . S
C2390 H2398 0.930 . S
C2391 C2390 1.394 . S
C2391 C2392 1.383 . S
C2391 H2399 0.929 . S
C2392 C2391 1.383 . S
C2392 C2393 1.377 . S
C2393 H2377 0.930 . S
C2393 C2392 1.377 . S
C2393 C2394 1.379 . S
C2394 H2378 0.931 . S
C2394 C2388 1.383 . S
C2394 C2393 1.379 . S
H2395 C2389 0.959 . S
H2396 C2389 0.961 . S
H2397 C2389 0.960 . S
H2398 C2390 0.930 . S
H2399 C2391 0.929 . S
H2400 C2408 0.929 . S
H2401 C2410 0.930 . S
H2402 C2412 0.930 . S
H2403 C2415 0.929 . S
H2404 C2418 0.930 . S
H2405 C2420 0.960 . S
H2406 C2420 0.960 . S
H2407 C2420 0.960 . S
C2408 H2400 0.929 . S
C2408 C2409 1.377 . S
C2408 C2410 1.384 . S
C2409 C2408 1.377 . S
C2409 C2415 1.390 . S
C2410 H2401 0.930 . S
C2410 C2408 1.384 . S
C2410 C2411 1.372 . S
C2411 C2410 1.372 . S
C2411 C2412 1.400 . S
C2411 C2416 1.490 . S
C2412 H2402 0.930 . S
C2412 C2411 1.400 . S
C2412 C2415 1.386 . S
H2413 C2429 0.930 . S
H2414 C2430 0.931 . S
C2415 H2403 0.929 . S
C2415 C2409 1.390 . S
C2415 C2412 1.386 . S
C2416 C2411 1.490 . S
C2416 C2418 1.395 . S
C2416 C2419 1.403 . S
H2417 C2423 0.930 . S
C2418 H2404 0.930 . S
C2418 C2416 1.395 . S
C2418 C2421 1.403 . S
C2419 C2416 1.403 . S
C2419 C2420 1.524 . S
C2419 C2423 1.400 . S
C2420 H2405 0.960 . S
C2420 H2406 0.960 . S
C2420 H2407 0.960 . S
C2420 C2419 1.524 . S
C2421 C2418 1.403 . S
C2421 C2422 1.392 . S
C2421 C2425 1.495 . S
C2422 C2421 1.392 . S
C2422 C2423 1.385 . S
C2422 C2424 1.478 . S
C2423 H2417 0.930 . S
C2423 C2419 1.400 . S
C2423 C2422 1.385 . S
C2424 C2422 1.478 . S
C2424 C2426 1.381 . S
C2424 C2430 1.383 . S
C2425 C2421 1.495 . S
C2425 H2431 0.959 . S
C2425 H2432 0.961 . S
C2425 H2433 0.960 . S
C2426 C2424 1.381 . S
C2426 C2427 1.394 . S
C2426 H2434 0.930 . S
C2427 C2426 1.394 . S
C2427 C2428 1.383 . S
C2427 H2435 0.929 . S
C2428 C2427 1.383 . S
C2428 C2429 1.377 . S
C2429 H2413 0.930 . S
C2429 C2428 1.377 . S
C2429 C2430 1.379 . S
C2430 H2414 0.931 . S
C2430 C2424 1.383 . S
C2430 C2429 1.379 . S
H2431 C2425 0.959 . S
H2432 C2425 0.961 . S
H2433 C2425 0.960 . S
H2434 C2426 0.930 . S
H2435 C2427 0.929 . S
H2436 C2444 0.929 . S
H2437 C2446 0.930 . S
H2438 C2448 0.930 . S
H2439 C2451 0.929 . S
H2440 C2454 0.930 . S
H2441 C2456 0.960 . S
H2442 C2456 0.960 . S
H2443 C2456 0.960 . S
C2444 H2436 0.929 . S
C2444 C2445 1.377 . S
C2444 C2446 1.384 . S
C2445 C2444 1.377 . S
C2445 C2451 1.390 . S
C2446 H2437 0.930 . S
C2446 C2444 1.384 . S
C2446 C2447 1.372 . S
C2447 C2446 1.372 . S
C2447 C2448 1.400 . S
C2447 C2452 1.490 . S
C2448 H2438 0.930 . S
C2448 C2447 1.400 . S
C2448 C2451 1.386 . S
H2449 C2465 0.930 . S
H2450 C2466 0.931 . S
C2451 H2439 0.929 . S
C2451 C2445 1.390 . S
C2451 C2448 1.386 . S
C2452 C2447 1.490 . S
C2452 C2454 1.395 . S
C2452 C2455 1.403 . S
H2453 C2459 0.930 . S
C2454 H2440 0.930 . S
C2454 C2452 1.395 . S
C2454 C2457 1.403 . S
C2455 C2452 1.403 . S
C2455 C2456 1.524 . S
C2455 C2459 1.400 . S
C2456 H2441 0.960 . S
C2456 H2442 0.960 . S
C2456 H2443 0.960 . S
C2456 C2455 1.524 . S
C2457 C2454 1.403 . S
C2457 C2458 1.392 . S
C2457 C2461 1.495 . S
C2458 C2457 1.392 . S
C2458 C2459 1.385 . S
C2458 C2460 1.478 . S
C2459 H2453 0.930 . S
C2459 C2455 1.400 . S
C2459 C2458 1.385 . S
C2460 C2458 1.478 . S
C2460 C2462 1.381 . S
C2460 C2466 1.383 . S
C2461 C2457 1.495 . S
C2461 H2467 0.959 . S
C2461 H2468 0.961 . S
C2461 H2469 0.960 . S
C2462 C2460 1.381 . S
C2462 C2463 1.394 . S
C2462 H2470 0.930 . S
C2463 C2462 1.394 . S
C2463 C2464 1.383 . S
C2463 H2471 0.929 . S
C2464 C2463 1.383 . S
C2464 C2465 1.377 . S
C2465 H2449 0.930 . S
C2465 C2464 1.377 . S
C2465 C2466 1.379 . S
C2466 H2450 0.931 . S
C2466 C2460 1.383 . S
C2466 C2465 1.379 . S
H2467 C2461 0.959 . S
H2468 C2461 0.961 . S
H2469 C2461 0.960 . S
H2470 C2462 0.930 . S
H2471 C2463 0.929 . S
H2472 C2480 0.929 . S
H2473 C2482 0.930 . S
H2474 C2484 0.930 . S
H2475 C2487 0.929 . S
H2476 C2490 0.930 . S
H2477 C2492 0.960 . S
H2478 C2492 0.960 . S
H2479 C2492 0.960 . S
C2480 H2472 0.929 . S
C2480 C2481 1.377 . S
C2480 C2482 1.384 . S
C2481 C2480 1.377 . S
C2481 C2487 1.390 . S
C2482 H2473 0.930 . S
C2482 C2480 1.384 . S
C2482 C2483 1.372 . S
C2483 C2482 1.372 . S
C2483 C2484 1.400 . S
C2483 C2488 1.490 . S
C2484 H2474 0.930 . S
C2484 C2483 1.400 . S
C2484 C2487 1.386 . S
H2485 C2501 0.930 . S
H2486 C2502 0.931 . S
C2487 H2475 0.929 . S
C2487 C2481 1.390 . S
C2487 C2484 1.386 . S
C2488 C2483 1.490 . S
C2488 C2490 1.395 . S
C2488 C2491 1.403 . S
H2489 C2495 0.930 . S
C2490 H2476 0.930 . S
C2490 C2488 1.395 . S
C2490 C2493 1.403 . S
C2491 C2488 1.403 . S
C2491 C2492 1.524 . S
C2491 C2495 1.400 . S
C2492 H2477 0.960 . S
C2492 H2478 0.960 . S
C2492 H2479 0.960 . S
C2492 C2491 1.524 . S
C2493 C2490 1.403 . S
C2493 C2494 1.392 . S
C2493 C2497 1.495 . S
C2494 C2493 1.392 . S
C2494 C2495 1.385 . S
C2494 C2496 1.478 . S
C2495 H2489 0.930 . S
C2495 C2491 1.400 . S
C2495 C2494 1.385 . S
C2496 C2494 1.478 . S
C2496 C2498 1.381 . S
C2496 C2502 1.383 . S
C2497 C2493 1.495 . S
C2497 H2503 0.959 . S
C2497 H2504 0.961 . S
C2497 H2505 0.960 . S
C2498 C2496 1.381 . S
C2498 C2499 1.394 . S
C2498 H2506 0.930 . S
C2499 C2498 1.394 . S
C2499 C2500 1.383 . S
C2499 H2507 0.929 . S
C2500 C2499 1.383 . S
C2500 C2501 1.377 . S
C2501 H2485 0.930 . S
C2501 C2500 1.377 . S
C2501 C2502 1.379 . S
C2502 H2486 0.931 . S
C2502 C2496 1.383 . S
C2502 C2501 1.379 . S
H2503 C2497 0.959 . S
H2504 C2497 0.961 . S
H2505 C2497 0.960 . S
H2506 C2498 0.930 . S
H2507 C2499 0.929 . S
H2508 C2516 0.929 . S
H2509 C2518 0.930 . S
H2510 C2520 0.930 . S
H2511 C2523 0.929 . S
H2512 C2526 0.930 . S
H2513 C2528 0.960 . S
H2514 C2528 0.960 . S
H2515 C2528 0.960 . S
C2516 H2508 0.929 . S
C2516 C2517 1.377 . S
C2516 C2518 1.384 . S
C2517 C2516 1.377 . S
C2517 C2523 1.390 . S
C2518 H2509 0.930 . S
C2518 C2516 1.384 . S
C2518 C2519 1.372 . S
C2519 C2518 1.372 . S
C2519 C2520 1.400 . S
C2519 C2524 1.490 . S
C2520 H2510 0.930 . S
C2520 C2519 1.400 . S
C2520 C2523 1.386 . S
H2521 C2537 0.930 . S
H2522 C2538 0.931 . S
C2523 H2511 0.929 . S
C2523 C2517 1.390 . S
C2523 C2520 1.386 . S
C2524 C2519 1.490 . S
C2524 C2526 1.395 . S
C2524 C2527 1.403 . S
H2525 C2531 0.930 . S
C2526 H2512 0.930 . S
C2526 C2524 1.395 . S
C2526 C2529 1.403 . S
C2527 C2524 1.403 . S
C2527 C2528 1.524 . S
C2527 C2531 1.400 . S
C2528 H2513 0.960 . S
C2528 H2514 0.960 . S
C2528 H2515 0.960 . S
C2528 C2527 1.524 . S
C2529 C2526 1.403 . S
C2529 C2530 1.392 . S
C2529 C2533 1.495 . S
C2530 C2529 1.392 . S
C2530 C2531 1.385 . S
C2530 C2532 1.478 . S
C2531 H2525 0.930 . S
C2531 C2527 1.400 . S
C2531 C2530 1.385 . S
C2532 C2530 1.478 . S
C2532 C2534 1.381 . S
C2532 C2538 1.383 . S
C2533 C2529 1.495 . S
C2533 H2539 0.959 . S
C2533 H2540 0.961 . S
C2533 H2541 0.960 . S
C2534 C2532 1.381 . S
C2534 C2535 1.394 . S
C2534 H2542 0.930 . S
C2535 C2534 1.394 . S
C2535 C2536 1.383 . S
C2535 H2543 0.929 . S
C2536 C2535 1.383 . S
C2536 C2537 1.377 . S
C2537 H2521 0.930 . S
C2537 C2536 1.377 . S
C2537 C2538 1.379 . S
C2538 H2522 0.931 . S
C2538 C2532 1.383 . S
C2538 C2537 1.379 . S
H2539 C2533 0.959 . S
H2540 C2533 0.961 . S
H2541 C2533 0.960 . S
H2542 C2534 0.930 . S
H2543 C2535 0.929 . S
H2544 C2552 0.929 . S
H2545 C2554 0.930 . S
H2546 C2556 0.930 . S
H2547 C2559 0.929 . S
H2548 C2562 0.930 . S
H2549 C2564 0.960 . S
H2550 C2564 0.960 . S
H2551 C2564 0.960 . S
C2552 H2544 0.929 . S
C2552 C2553 1.377 . S
C2552 C2554 1.384 . S
C2553 C2552 1.377 . S
C2553 C2559 1.390 . S
C2554 H2545 0.930 . S
C2554 C2552 1.384 . S
C2554 C2555 1.372 . S
C2555 C2554 1.372 . S
C2555 C2556 1.400 . S
C2555 C2560 1.490 . S
C2556 H2546 0.930 . S
C2556 C2555 1.400 . S
C2556 C2559 1.386 . S
H2557 C2573 0.930 . S
H2558 C2574 0.931 . S
C2559 H2547 0.929 . S
C2559 C2553 1.390 . S
C2559 C2556 1.386 . S
C2560 C2555 1.490 . S
C2560 C2562 1.395 . S
C2560 C2563 1.403 . S
H2561 C2567 0.930 . S
C2562 H2548 0.930 . S
C2562 C2560 1.395 . S
C2562 C2565 1.403 . S
C2563 C2560 1.403 . S
C2563 C2564 1.524 . S
C2563 C2567 1.400 . S
C2564 H2549 0.960 . S
C2564 H2550 0.960 . S
C2564 H2551 0.960 . S
C2564 C2563 1.524 . S
C2565 C2562 1.403 . S
C2565 C2566 1.392 . S
C2565 C2569 1.495 . S
C2566 C2565 1.392 . S
C2566 C2567 1.385 . S
C2566 C2568 1.478 . S
C2567 H2561 0.930 . S
C2567 C2563 1.400 . S
C2567 C2566 1.385 . S
C2568 C2566 1.478 . S
C2568 C2570 1.381 . S
C2568 C2574 1.383 . S
C2569 C2565 1.495 . S
C2569 H2575 0.959 . S
C2569 H2576 0.961 . S
C2569 H2577 0.960 . S
C2570 C2568 1.381 . S
C2570 C2571 1.394 . S
C2570 H2578 0.930 . S
C2571 C2570 1.394 . S
C2571 C2572 1.383 . S
C2571 H2579 0.929 . S
C2572 C2571 1.383 . S
C2572 C2573 1.377 . S
C2573 H2557 0.930 . S
C2573 C2572 1.377 . S
C2573 C2574 1.379 . S
C2574 H2558 0.931 . S
C2574 C2568 1.383 . S
C2574 C2573 1.379 . S
H2575 C2569 0.959 . S
H2576 C2569 0.961 . S
H2577 C2569 0.960 . S
H2578 C2570 0.930 . S
H2579 C2571 0.929 . S
H2580 C2588 0.929 . S
H2581 C2590 0.930 . S
H2582 C2592 0.930 . S
H2583 C2595 0.929 . S
H2584 C2598 0.930 . S
H2585 C2600 0.960 . S
H2586 C2600 0.960 . S
H2587 C2600 0.960 . S
C2588 H2580 0.929 . S
C2588 C2589 1.377 . S
C2588 C2590 1.384 . S
C2589 C2588 1.377 . S
C2589 C2595 1.390 . S
C2590 H2581 0.930 . S
C2590 C2588 1.384 . S
C2590 C2591 1.372 . S
C2591 C2590 1.372 . S
C2591 C2592 1.400 . S
C2591 C2596 1.490 . S
C2592 H2582 0.930 . S
C2592 C2591 1.400 . S
C2592 C2595 1.386 . S
H2593 C2609 0.930 . S
H2594 C2610 0.931 . S
C2595 H2583 0.929 . S
C2595 C2589 1.390 . S
C2595 C2592 1.386 . S
C2596 C2591 1.490 . S
C2596 C2598 1.395 . S
C2596 C2599 1.403 . S
H2597 C2603 0.930 . S
C2598 H2584 0.930 . S
C2598 C2596 1.395 . S
C2598 C2601 1.403 . S
C2599 C2596 1.403 . S
C2599 C2600 1.524 . S
C2599 C2603 1.400 . S
C2600 H2585 0.960 . S
C2600 H2586 0.960 . S
C2600 H2587 0.960 . S
C2600 C2599 1.524 . S
C2601 C2598 1.403 . S
C2601 C2602 1.392 . S
C2601 C2605 1.495 . S
C2602 C2601 1.392 . S
C2602 C2603 1.385 . S
C2602 C2604 1.478 . S
C2603 H2597 0.930 . S
C2603 C2599 1.400 . S
C2603 C2602 1.385 . S
C2604 C2602 1.478 . S
C2604 C2606 1.381 . S
C2604 C2610 1.383 . S
C2605 C2601 1.495 . S
C2605 H2611 0.959 . S
C2605 H2612 0.961 . S
C2605 H2613 0.960 . S
C2606 C2604 1.381 . S
C2606 C2607 1.394 . S
C2606 H2614 0.930 . S
C2607 C2606 1.394 . S
C2607 C2608 1.383 . S
C2607 H2615 0.929 . S
C2608 C2607 1.383 . S
C2608 C2609 1.377 . S
C2609 H2593 0.930 . S
C2609 C2608 1.377 . S
C2609 C2610 1.379 . S
C2610 H2594 0.931 . S
C2610 C2604 1.383 . S
C2610 C2609 1.379 . S
H2611 C2605 0.959 . S
H2612 C2605 0.961 . S
H2613 C2605 0.960 . S
H2614 C2606 0.930 . S
H2615 C2607 0.929 . S
H2616 C2624 0.929 . S
H2617 C2626 0.930 . S
H2618 C2628 0.930 . S
H2619 C2631 0.929 . S
H2620 C2634 0.930 . S
H2621 C2636 0.960 . S
H2622 C2636 0.960 . S
H2623 C2636 0.960 . S
C2624 H2616 0.929 . S
C2624 C2625 1.377 . S
C2624 C2626 1.384 . S
C2625 C2624 1.377 . S
C2625 C2631 1.390 . S
C2626 H2617 0.930 . S
C2626 C2624 1.384 . S
C2626 C2627 1.372 . S
C2627 C2626 1.372 . S
C2627 C2628 1.400 . S
C2627 C2632 1.490 . S
C2628 H2618 0.930 . S
C2628 C2627 1.400 . S
C2628 C2631 1.386 . S
H2629 C2645 0.930 . S
H2630 C2646 0.931 . S
C2631 H2619 0.929 . S
C2631 C2625 1.390 . S
C2631 C2628 1.386 . S
C2632 C2627 1.490 . S
C2632 C2634 1.395 . S
C2632 C2635 1.403 . S
H2633 C2639 0.930 . S
C2634 H2620 0.930 . S
C2634 C2632 1.395 . S
C2634 C2637 1.403 . S
C2635 C2632 1.403 . S
C2635 C2636 1.524 . S
C2635 C2639 1.400 . S
C2636 H2621 0.960 . S
C2636 H2622 0.960 . S
C2636 H2623 0.960 . S
C2636 C2635 1.524 . S
C2637 C2634 1.403 . S
C2637 C2638 1.392 . S
C2637 C2641 1.495 . S
C2638 C2637 1.392 . S
C2638 C2639 1.385 . S
C2638 C2640 1.478 . S
C2639 H2633 0.930 . S
C2639 C2635 1.400 . S
C2639 C2638 1.385 . S
C2640 C2638 1.478 . S
C2640 C2642 1.381 . S
C2640 C2646 1.383 . S
C2641 C2637 1.495 . S
C2641 H2647 0.959 . S
C2641 H2648 0.961 . S
C2641 H2649 0.960 . S
C2642 C2640 1.381 . S
C2642 C2643 1.394 . S
C2642 H2650 0.930 . S
C2643 C2642 1.394 . S
C2643 C2644 1.383 . S
C2643 H2651 0.929 . S
C2644 C2643 1.383 . S
C2644 C2645 1.377 . S
C2645 H2629 0.930 . S
C2645 C2644 1.377 . S
C2645 C2646 1.379 . S
C2646 H2630 0.931 . S
C2646 C2640 1.383 . S
C2646 C2645 1.379 . S
H2647 C2641 0.959 . S
H2648 C2641 0.961 . S
H2649 C2641 0.960 . S
H2650 C2642 0.930 . S
H2651 C2643 0.929 . S
H2652 C2660 0.929 . S
H2653 C2662 0.930 . S
H2654 C2664 0.930 . S
H2655 C2667 0.929 . S
H2656 C2670 0.930 . S
H2657 C2672 0.960 . S
H2658 C2672 0.960 . S
H2659 C2672 0.960 . S
C2660 H2652 0.929 . S
C2660 C2661 1.377 . S
C2660 C2662 1.384 . S
C2661 C2660 1.377 . S
C2661 C2667 1.390 . S
C2662 H2653 0.930 . S
C2662 C2660 1.384 . S
C2662 C2663 1.372 . S
C2663 C2662 1.372 . S
C2663 C2664 1.400 . S
C2663 C2668 1.490 . S
C2664 H2654 0.930 . S
C2664 C2663 1.400 . S
C2664 C2667 1.386 . S
H2665 C2681 0.930 . S
H2666 C2682 0.931 . S
C2667 H2655 0.929 . S
C2667 C2661 1.390 . S
C2667 C2664 1.386 . S
C2668 C2663 1.490 . S
C2668 C2670 1.395 . S
C2668 C2671 1.403 . S
H2669 C2675 0.930 . S
C2670 H2656 0.930 . S
C2670 C2668 1.395 . S
C2670 C2673 1.403 . S
C2671 C2668 1.403 . S
C2671 C2672 1.524 . S
C2671 C2675 1.400 . S
C2672 H2657 0.960 . S
C2672 H2658 0.960 . S
C2672 H2659 0.960 . S
C2672 C2671 1.524 . S
C2673 C2670 1.403 . S
C2673 C2674 1.392 . S
C2673 C2677 1.495 . S
C2674 C2673 1.392 . S
C2674 C2675 1.385 . S
C2674 C2676 1.478 . S
C2675 H2669 0.930 . S
C2675 C2671 1.400 . S
C2675 C2674 1.385 . S
C2676 C2674 1.478 . S
C2676 C2678 1.381 . S
C2676 C2682 1.383 . S
C2677 C2673 1.495 . S
C2677 H2683 0.959 . S
C2677 H2684 0.961 . S
C2677 H2685 0.960 . S
C2678 C2676 1.381 . S
C2678 C2679 1.394 . S
C2678 H2686 0.930 . S
C2679 C2678 1.394 . S
C2679 C2680 1.383 . S
C2679 H2687 0.929 . S
C2680 C2679 1.383 . S
C2680 C2681 1.377 . S
C2681 H2665 0.930 . S
C2681 C2680 1.377 . S
C2681 C2682 1.379 . S
C2682 H2666 0.931 . S
C2682 C2676 1.383 . S
C2682 C2681 1.379 . S
H2683 C2677 0.959 . S
H2684 C2677 0.961 . S
H2685 C2677 0.960 . S
H2686 C2678 0.930 . S
H2687 C2679 0.929 . S
H2688 C2696 0.929 . S
H2689 C2698 0.930 . S
H2690 C2700 0.930 . S
H2691 C2703 0.929 . S
H2692 C2706 0.930 . S
H2693 C2708 0.960 . S
H2694 C2708 0.960 . S
H2695 C2708 0.960 . S
C2696 H2688 0.929 . S
C2696 C2697 1.377 . S
C2696 C2698 1.384 . S
C2697 C2696 1.377 . S
C2697 C2703 1.390 . S
C2698 H2689 0.930 . S
C2698 C2696 1.384 . S
C2698 C2699 1.372 . S
C2699 C2698 1.372 . S
C2699 C2700 1.400 . S
C2699 C2704 1.490 . S
C2700 H2690 0.930 . S
C2700 C2699 1.400 . S
C2700 C2703 1.386 . S
H2701 C2717 0.930 . S
H2702 C2718 0.931 . S
C2703 H2691 0.929 . S
C2703 C2697 1.390 . S
C2703 C2700 1.386 . S
C2704 C2699 1.490 . S
C2704 C2706 1.395 . S
C2704 C2707 1.403 . S
H2705 C2711 0.930 . S
C2706 H2692 0.930 . S
C2706 C2704 1.395 . S
C2706 C2709 1.403 . S
C2707 C2704 1.403 . S
C2707 C2708 1.524 . S
C2707 C2711 1.400 . S
C2708 H2693 0.960 . S
C2708 H2694 0.960 . S
C2708 H2695 0.960 . S
C2708 C2707 1.524 . S
C2709 C2706 1.403 . S
C2709 C2710 1.392 . S
C2709 C2713 1.495 1_455 S
C2710 C2709 1.392 . S
C2710 C2711 1.385 . S
C2710 C2712 1.478 . S
C2711 H2705 0.930 . S
C2711 C2707 1.400 . S
C2711 C2710 1.385 . S
C2712 C2710 1.478 . S
C2712 C2714 1.381 . S
C2712 C2718 1.383 . S
C2713 C2709 1.495 1_655 S
C2713 H2719 0.959 . S
C2713 H2720 0.961 1_655 S
C2713 H2721 0.960 . S
C2714 C2712 1.381 . S
C2714 C2715 1.394 . S
C2714 H2722 0.930 1_455 S
C2715 C2714 1.394 . S
C2715 C2716 1.383 . S
C2715 H2723 0.929 1_455 S
C2716 C2715 1.383 . S
C2716 C2717 1.377 . S
C2717 H2701 0.930 . S
C2717 C2716 1.377 . S
C2717 C2718 1.379 . S
C2718 H2702 0.931 . S
C2718 C2712 1.383 . S
C2718 C2717 1.379 . S
H2719 C2713 0.959 . S
H2720 C2713 0.961 1_455 S
H2721 C2713 0.960 . S
H2722 C2714 0.930 1_655 S
H2723 C2715 0.929 1_655 S
H2724 C2732 0.929 . S
H2725 C2734 0.930 . S
H2726 C2736 0.930 . S
H2727 C2739 0.929 . S
H2728 C2742 0.930 . S
H2729 C2744 0.960 . S
H2730 C2744 0.960 . S
H2731 C2744 0.960 . S
C2732 H2724 0.929 . S
C2732 C2733 1.377 . S
C2732 C2734 1.384 . S
C2733 C2732 1.377 . S
C2733 C2739 1.390 . S
C2734 H2725 0.930 . S
C2734 C2732 1.384 . S
C2734 C2735 1.372 . S
C2735 C2734 1.372 . S
C2735 C2736 1.400 . S
C2735 C2740 1.490 . S
C2736 H2726 0.930 . S
C2736 C2735 1.400 . S
C2736 C2739 1.386 . S
H2737 C2753 0.930 . S
H2738 C2754 0.931 . S
C2739 H2727 0.929 . S
C2739 C2733 1.390 . S
C2739 C2736 1.386 . S
C2740 C2735 1.490 . S
C2740 C2742 1.395 . S
C2740 C2743 1.403 . S
H2741 C2747 0.930 . S
C2742 H2728 0.930 . S
C2742 C2740 1.395 . S
C2742 C2745 1.403 . S
C2743 C2740 1.403 . S
C2743 C2744 1.524 . S
C2743 C2747 1.400 . S
C2744 H2729 0.960 . S
C2744 H2730 0.960 . S
C2744 H2731 0.960 . S
C2744 C2743 1.524 . S
C2745 C2742 1.403 . S
C2745 C2746 1.392 . S
C2745 C2749 1.495 . S
C2746 C2745 1.392 . S
C2746 C2747 1.385 . S
C2746 C2748 1.478 . S
C2747 H2741 0.930 . S
C2747 C2743 1.400 . S
C2747 C2746 1.385 . S
C2748 C2746 1.478 . S
C2748 C2750 1.381 . S
C2748 C2754 1.383 . S
C2749 C2745 1.495 . S
C2749 H2755 0.959 . S
C2749 H2756 0.961 . S
C2749 H2757 0.960 . S
C2750 C2748 1.381 . S
C2750 C2751 1.394 . S
C2750 H2758 0.930 . S
C2751 C2750 1.394 . S
C2751 C2752 1.383 . S
C2751 H2759 0.929 . S
C2752 C2751 1.383 . S
C2752 C2753 1.377 . S
C2753 H2737 0.930 . S
C2753 C2752 1.377 . S
C2753 C2754 1.379 . S
C2754 H2738 0.931 . S
C2754 C2748 1.383 . S
C2754 C2753 1.379 . S
H2755 C2749 0.959 . S
H2756 C2749 0.961 . S
H2757 C2749 0.960 . S
H2758 C2750 0.930 . S
H2759 C2751 0.929 . S
H2760 C2768 0.929 . S
H2761 C2770 0.930 . S
H2762 C2772 0.930 . S
H2763 C2775 0.929 . S
H2764 C2778 0.930 . S
H2765 C2780 0.960 . S
H2766 C2780 0.960 . S
H2767 C2780 0.960 . S
C2768 H2760 0.929 . S
C2768 C2769 1.377 . S
C2768 C2770 1.384 . S
C2769 C2768 1.377 . S
C2769 C2775 1.390 . S
C2770 H2761 0.930 . S
C2770 C2768 1.384 . S
C2770 C2771 1.372 . S
C2771 C2770 1.372 . S
C2771 C2772 1.400 . S
C2771 C2776 1.490 . S
C2772 H2762 0.930 . S
C2772 C2771 1.400 . S
C2772 C2775 1.386 . S
H2773 C2789 0.930 . S
H2774 C2790 0.931 . S
C2775 H2763 0.929 . S
C2775 C2769 1.390 . S
C2775 C2772 1.386 . S
C2776 C2771 1.490 . S
C2776 C2778 1.395 . S
C2776 C2779 1.403 . S
H2777 C2783 0.930 . S
C2778 H2764 0.930 . S
C2778 C2776 1.395 . S
C2778 C2781 1.403 . S
C2779 C2776 1.403 . S
C2779 C2780 1.524 . S
C2779 C2783 1.400 . S
C2780 H2765 0.960 . S
C2780 H2766 0.960 . S
C2780 H2767 0.960 . S
C2780 C2779 1.524 . S
C2781 C2778 1.403 . S
C2781 C2782 1.392 . S
C2781 C2785 1.495 . S
C2782 C2781 1.392 . S
C2782 C2783 1.385 . S
C2782 C2784 1.478 . S
C2783 H2777 0.930 . S
C2783 C2779 1.400 . S
C2783 C2782 1.385 . S
C2784 C2782 1.478 . S
C2784 C2786 1.381 . S
C2784 C2790 1.383 . S
C2785 C2781 1.495 . S
C2785 H2791 0.959 . S
C2785 H2792 0.961 . S
C2785 H2793 0.960 . S
C2786 C2784 1.381 . S
C2786 C2787 1.394 . S
C2786 H2794 0.930 . S
C2787 C2786 1.394 . S
C2787 C2788 1.383 . S
C2787 H2795 0.929 . S
C2788 C2787 1.383 . S
C2788 C2789 1.377 . S
C2789 H2773 0.930 . S
C2789 C2788 1.377 . S
C2789 C2790 1.379 . S
C2790 H2774 0.931 . S
C2790 C2784 1.383 . S
C2790 C2789 1.379 . S
H2791 C2785 0.959 . S
H2792 C2785 0.961 . S
H2793 C2785 0.960 . S
H2794 C2786 0.930 . S
H2795 C2787 0.929 . S
H2796 C2804 0.929 . S
H2797 C2806 0.930 . S
H2798 C2808 0.930 . S
H2799 C2811 0.929 . S
H2800 C2814 0.930 . S
H2801 C2816 0.960 . S
H2802 C2816 0.960 . S
H2803 C2816 0.960 . S
C2804 H2796 0.929 . S
C2804 C2805 1.377 . S
C2804 C2806 1.384 . S
C2805 C2804 1.377 . S
C2805 C2811 1.390 . S
C2806 H2797 0.930 . S
C2806 C2804 1.384 . S
C2806 C2807 1.372 . S
C2807 C2806 1.372 . S
C2807 C2808 1.400 . S
C2807 C2812 1.490 . S
C2808 H2798 0.930 . S
C2808 C2807 1.400 . S
C2808 C2811 1.386 . S
H2809 C2825 0.930 . S
H2810 C2826 0.931 . S
C2811 H2799 0.929 . S
C2811 C2805 1.390 . S
C2811 C2808 1.386 . S
C2812 C2807 1.490 . S
C2812 C2814 1.395 . S
C2812 C2815 1.403 . S
H2813 C2819 0.930 . S
C2814 H2800 0.930 . S
C2814 C2812 1.395 . S
C2814 C2817 1.403 . S
C2815 C2812 1.403 . S
C2815 C2816 1.524 . S
C2815 C2819 1.400 . S
C2816 H2801 0.960 . S
C2816 H2802 0.960 . S
C2816 H2803 0.960 . S
C2816 C2815 1.524 . S
C2817 C2814 1.403 . S
C2817 C2818 1.392 . S
C2817 C2821 1.495 . S
C2818 C2817 1.392 . S
C2818 C2819 1.385 . S
C2818 C2820 1.478 . S
C2819 H2813 0.930 . S
C2819 C2815 1.400 . S
C2819 C2818 1.385 . S
C2820 C2818 1.478 . S
C2820 C2822 1.381 . S
C2820 C2826 1.383 . S
C2821 C2817 1.495 . S
C2821 H2827 0.959 . S
C2821 H2828 0.961 . S
C2821 H2829 0.960 . S
C2822 C2820 1.381 . S
C2822 C2823 1.394 . S
C2822 H2830 0.930 . S
C2823 C2822 1.394 . S
C2823 C2824 1.383 . S
C2823 H2831 0.929 . S
C2824 C2823 1.383 . S
C2824 C2825 1.377 . S
C2825 H2809 0.930 . S
C2825 C2824 1.377 . S
C2825 C2826 1.379 . S
C2826 H2810 0.931 . S
C2826 C2820 1.383 . S
C2826 C2825 1.379 . S
H2827 C2821 0.959 . S
H2828 C2821 0.961 . S
H2829 C2821 0.960 . S
H2830 C2822 0.930 . S
H2831 C2823 0.929 . S
H2832 C2840 0.929 . S
H2833 C2842 0.930 . S
H2834 C2844 0.930 . S
H2835 C2847 0.929 . S
H2836 C2850 0.930 . S
H2837 C2852 0.979 . S
H2838 C2852 0.960 1_565 S
H2839 C2852 0.960 . S
C2840 H2832 0.929 . S
C2840 C2841 1.377 . S
C2840 C2842 1.384 . S
C2841 C2840 1.377 . S
C2841 C2847 1.390 . S
C2842 H2833 0.930 . S
C2842 C2840 1.384 . S
C2842 C2843 1.372 . S
C2843 C2842 1.372 . S
C2843 C2844 1.400 . S
C2843 C2848 1.490 . S
C2844 H2834 0.930 . S
C2844 C2843 1.400 . S
C2844 C2847 1.386 . S
H2845 C2861 0.930 . S
H2846 C2862 0.931 . S
C2847 H2835 0.929 . S
C2847 C2841 1.390 . S
C2847 C2844 1.386 . S
C2848 C2843 1.490 . S
C2848 C2850 1.395 . S
C2848 C2851 1.403 . S
H2849 C2855 0.930 . S
C2850 H2836 0.930 . S
C2850 C2848 1.395 . S
C2850 C2853 1.403 . S
C2851 C2848 1.403 . S
C2851 C2852 1.524 . S
C2851 C2855 1.400 . S
C2852 H2837 0.979 . S
C2852 H2838 0.960 1_545 S
C2852 H2839 0.960 . S
C2852 C2851 1.524 . S
C2853 C2850 1.403 . S
C2853 C2854 1.392 . S
C2853 C2857 1.495 . S
C2854 C2853 1.392 . S
C2854 C2855 1.385 . S
C2854 C2856 1.478 . S
C2855 H2849 0.930 . S
C2855 C2851 1.400 . S
C2855 C2854 1.385 . S
C2856 C2854 1.478 . S
C2856 C2858 1.381 . S
C2856 C2862 1.383 . S
C2857 C2853 1.495 . S
C2857 H2863 0.959 . S
C2857 H2864 0.961 . S
C2857 H2865 0.960 . S
C2858 C2856 1.381 . S
C2858 C2859 1.394 . S
C2858 H2866 0.930 . S
C2859 C2858 1.394 . S
C2859 C2860 1.383 . S
C2859 H2867 0.929 1_545 S
C2860 C2859 1.383 . S
C2860 C2861 1.377 . S
C2861 H2845 0.930 . S
C2861 C2860 1.377 . S
C2861 C2862 1.379 . S
C2862 H2846 0.931 . S
C2862 C2856 1.383 . S
C2862 C2861 1.379 . S
H2863 C2857 0.959 . S
H2864 C2857 0.961 . S
H2865 C2857 0.960 . S
H2866 C2858 0.930 . S
H2867 C2859 0.929 1_565 S
H2868 C2876 0.929 . S
H2869 C2878 0.930 . S
H2870 C2880 0.930 . S
H2871 C2883 0.929 . S
H2872 C2886 0.930 . S
H2873 C2888 0.960 . S
H2874 C2888 0.960 . S
H2875 C2888 0.960 . S
C2876 H2868 0.929 . S
C2876 C2877 1.377 . S
C2876 C2878 1.384 . S
C2877 C2876 1.377 . S
C2877 C2883 1.390 . S
C2878 H2869 0.930 . S
C2878 C2876 1.384 . S
C2878 C2879 1.372 . S
C2879 C2878 1.372 . S
C2879 C2880 1.400 . S
C2879 C2884 1.490 . S
C2880 H2870 0.930 . S
C2880 C2879 1.400 . S
C2880 C2883 1.386 . S
H2881 C2897 0.930 . S
H2882 C2898 0.931 . S
C2883 H2871 0.929 . S
C2883 C2877 1.390 . S
C2883 C2880 1.386 . S
C2884 C2879 1.490 . S
C2884 C2886 1.395 . S
C2884 C2887 1.403 . S
H2885 C2891 0.930 . S
C2886 H2872 0.930 . S
C2886 C2884 1.395 . S
C2886 C2889 1.403 . S
C2887 C2884 1.403 . S
C2887 C2888 1.524 . S
C2887 C2891 1.400 . S
C2888 H2873 0.960 . S
C2888 H2874 0.960 . S
C2888 H2875 0.960 . S
C2888 C2887 1.524 . S
C2889 C2886 1.403 . S
C2889 C2890 1.392 . S
C2889 C2893 1.495 . S
C2890 C2889 1.392 . S
C2890 C2891 1.385 . S
C2890 C2892 1.478 . S
C2891 H2885 0.930 . S
C2891 C2887 1.400 . S
C2891 C2890 1.385 . S
C2892 C2890 1.478 . S
C2892 C2894 1.381 . S
C2892 C2898 1.383 . S
C2893 C2889 1.495 . S
C2893 H2899 0.959 . S
C2893 H2900 0.961 . S
C2893 H2901 0.960 . S
C2894 C2892 1.381 . S
C2894 C2895 1.394 . S
C2894 H2902 0.930 . S
C2895 C2894 1.394 . S
C2895 C2896 1.383 . S
C2895 H2903 0.929 . S
C2896 C2895 1.383 . S
C2896 C2897 1.377 . S
C2897 H2881 0.930 . S
C2897 C2896 1.377 . S
C2897 C2898 1.379 . S
C2898 H2882 0.931 . S
C2898 C2892 1.383 . S
C2898 C2897 1.379 . S
H2899 C2893 0.959 . S
H2900 C2893 0.961 . S
H2901 C2893 0.960 . S
H2902 C2894 0.930 . S
H2903 C2895 0.929 . S
H2904 C2912 0.929 1_565 S
H2905 C2914 0.907 1_565 S
H2906 C2916 0.930 . S
H2907 C2919 0.929 . S
H2908 C2922 0.930 . S
H2909 C2924 0.975 . S
H2910 C2924 0.989 . S
H2911 C2924 0.931 1_545 S
C2912 H2904 0.929 1_545 S
C2912 C2913 1.377 . S
C2912 C2914 1.384 . S
C2913 C2912 1.377 . S
C2913 C2919 1.390 . S
C2914 H2905 0.907 1_545 S
C2914 C2912 1.384 . S
C2914 C2915 1.372 . S
C2915 C2914 1.372 . S
C2915 C2916 1.400 . S
C2915 C2920 1.490 . S
C2916 H2906 0.930 . S
C2916 C2915 1.400 . S
C2916 C2919 1.386 . S
H2917 C2933 0.930 . S
H2918 C2934 0.931 . S
C2919 H2907 0.929 . S
C2919 C2913 1.390 . S
C2919 C2916 1.386 . S
C2920 C2915 1.490 . S
C2920 C2922 1.395 . S
C2920 C2923 1.403 . S
H2921 C2927 0.930 . S
C2922 H2908 0.930 . S
C2922 C2920 1.395 . S
C2922 C2925 1.403 . S
C2923 C2920 1.403 . S
C2923 C2924 1.512 1_545 S
C2923 C2927 1.400 . S
C2924 H2909 0.975 . S
C2924 H2910 0.989 . S
C2924 H2911 0.931 1_565 S
C2924 C2923 1.512 1_565 S
C2925 C2922 1.403 . S
C2925 C2926 1.392 . S
C2925 C2929 1.495 . S
C2926 C2925 1.392 . S
C2926 C2927 1.385 . S
C2926 C2928 1.478 . S
C2927 H2921 0.930 . S
C2927 C2923 1.400 . S
C2927 C2926 1.385 . S
C2928 C2926 1.478 . S
C2928 C2930 1.381 . S
C2928 C2934 1.383 . S
C2929 C2925 1.495 . S
C2929 H2935 0.959 . S
C2929 H2936 0.961 . S
C2929 H2937 0.960 . S
C2930 C2928 1.381 . S
C2930 C2931 1.394 . S
C2930 H2938 0.930 . S
C2931 C2930 1.394 . S
C2931 C2932 1.383 . S
C2931 H2939 0.929 . S
C2932 C2931 1.383 . S
C2932 C2933 1.377 . S
C2933 H2917 0.930 . S
C2933 C2932 1.377 . S
C2933 C2934 1.379 . S
C2934 H2918 0.931 . S
C2934 C2928 1.383 . S
C2934 C2933 1.379 . S
H2935 C2929 0.959 . S
H2936 C2929 0.961 . S
H2937 C2929 0.960 . S
H2938 C2930 0.930 . S
H2939 C2931 0.929 . S
H2940 C2948 0.929 . S
H2941 C2950 0.930 . S
H2942 C2952 0.930 . S
H2943 C2955 0.929 . S
H2944 C2958 0.930 . S
H2945 C2960 0.960 . S
H2946 C2960 0.960 . S
H2947 C2960 0.960 . S
C2948 H2940 0.929 . S
C2948 C2949 1.377 . S
C2948 C2950 1.384 . S
C2949 C2948 1.377 . S
C2949 C2955 1.390 . S
C2950 H2941 0.930 . S
C2950 C2948 1.384 . S
C2950 C2951 1.372 . S
C2951 C2950 1.372 . S
C2951 C2952 1.400 . S
C2951 C2956 1.490 . S
C2952 H2942 0.930 . S
C2952 C2951 1.400 . S
C2952 C2955 1.386 . S
H2953 C2969 0.930 . S
H2954 C2970 0.931 . S
C2955 H2943 0.929 . S
C2955 C2949 1.390 . S
C2955 C2952 1.386 . S
C2956 C2951 1.490 . S
C2956 C2958 1.395 . S
C2956 C2959 1.403 . S
H2957 C2963 0.930 . S
C2958 H2944 0.930 . S
C2958 C2956 1.395 . S
C2958 C2961 1.403 . S
C2959 C2956 1.403 . S
C2959 C2960 1.524 . S
C2959 C2963 1.400 . S
C2960 H2945 0.960 . S
C2960 H2946 0.960 . S
C2960 H2947 0.960 . S
C2960 C2959 1.524 . S
C2961 C2958 1.403 . S
C2961 C2962 1.392 . S
C2961 C2965 1.495 . S
C2962 C2961 1.392 . S
C2962 C2963 1.385 . S
C2962 C2964 1.478 . S
C2963 H2957 0.930 . S
C2963 C2959 1.400 . S
C2963 C2962 1.385 . S
C2964 C2962 1.478 . S
C2964 C2966 1.381 . S
C2964 C2970 1.383 . S
C2965 C2961 1.495 . S
C2965 H2971 0.959 . S
C2965 H2972 0.961 . S
C2965 H2973 0.960 . S
C2966 C2964 1.381 . S
C2966 C2967 1.394 . S
C2966 H2974 0.930 . S
C2967 C2966 1.394 . S
C2967 C2968 1.383 . S
C2967 H2975 0.929 . S
C2968 C2967 1.383 . S
C2968 C2969 1.377 . S
C2969 H2953 0.930 . S
C2969 C2968 1.377 . S
C2969 C2970 1.379 . S
C2970 H2954 0.931 . S
C2970 C2964 1.383 . S
C2970 C2969 1.379 . S
H2971 C2965 0.959 . S
H2972 C2965 0.961 . S
H2973 C2965 0.960 . S
H2974 C2966 0.930 . S
H2975 C2967 0.929 . S
H2976 C2984 0.929 . S
H2977 C2986 0.930 . S
H2978 C2988 0.930 . S
H2979 C2991 0.929 . S
H2980 C2994 0.930 . S
H2981 C2996 0.960 . S
H2982 C2996 0.960 1_565 S
H2983 C2996 0.960 . S
C2984 H2976 0.929 . S
C2984 C2985 1.377 . S
C2984 C2986 1.384 . S
C2985 C2984 1.377 . S
C2985 C2991 1.390 . S
C2986 H2977 0.930 . S
C2986 C2984 1.384 . S
C2986 C2987 1.372 . S
C2987 C2986 1.372 . S
C2987 C2988 1.400 . S
C2987 C2992 1.490 . S
C2988 H2978 0.930 . S
C2988 C2987 1.400 . S
C2988 C2991 1.386 . S
H2989 C3005 0.930 . S
H2990 C3006 0.931 . S
C2991 H2979 0.929 . S
C2991 C2985 1.390 . S
C2991 C2988 1.386 . S
C2992 C2987 1.490 . S
C2992 C2994 1.395 . S
C2992 C2995 1.403 . S
H2993 C2999 0.930 . S
C2994 H2980 0.930 . S
C2994 C2992 1.395 . S
C2994 C2997 1.403 . S
C2995 C2992 1.403 . S
C2995 C2996 1.524 . S
C2995 C2999 1.400 . S
C2996 H2981 0.960 . S
C2996 H2982 0.960 1_545 S
C2996 H2983 0.960 . S
C2996 C2995 1.524 . S
C2997 C2994 1.403 . S
C2997 C2998 1.392 . S
C2997 C3001 1.495 . S
C2998 C2997 1.392 . S
C2998 C2999 1.385 . S
C2998 C3000 1.478 . S
C2999 H2993 0.930 . S
C2999 C2995 1.400 . S
C2999 C2998 1.385 . S
C3000 C2998 1.478 . S
C3000 C3002 1.381 . S
C3000 C3006 1.383 . S
C3001 C2997 1.495 . S
C3001 H3007 0.959 . S
C3001 H3008 0.961 . S
C3001 H3009 0.960 . S
C3002 C3000 1.381 . S
C3002 C3003 1.394 . S
C3002 H3010 0.930 . S
C3003 C3002 1.394 . S
C3003 C3004 1.383 . S
C3003 H3011 0.929 . S
C3004 C3003 1.383 . S
C3004 C3005 1.377 . S
C3005 H2989 0.930 . S
C3005 C3004 1.377 . S
C3005 C3006 1.379 . S
C3006 H2990 0.931 . S
C3006 C3000 1.383 . S
C3006 C3005 1.379 . S
H3007 C3001 0.959 . S
H3008 C3001 0.961 . S
H3009 C3001 0.960 . S
H3010 C3002 0.930 . S
H3011 C3003 0.929 . S
H3012 C3020 0.929 . S
H3013 C3022 0.930 . S
H3014 C3024 0.930 . S
H3015 C3027 0.929 . S
H3016 C3030 0.930 . S
H3017 C3032 0.960 . S
H3018 C3032 0.960 . S
H3019 C3032 0.960 . S
C3020 H3012 0.929 . S
C3020 C3021 1.377 . S
C3020 C3022 1.384 . S
C3021 C3020 1.377 . S
C3021 C3027 1.390 . S
C3022 H3013 0.930 . S
C3022 C3020 1.384 . S
C3022 C3023 1.372 . S
C3023 C3022 1.372 . S
C3023 C3024 1.400 . S
C3023 C3028 1.490 . S
C3024 H3014 0.930 . S
C3024 C3023 1.400 . S
C3024 C3027 1.386 . S
H3025 C3041 0.930 . S
H3026 C3042 0.931 . S
C3027 H3015 0.929 . S
C3027 C3021 1.390 . S
C3027 C3024 1.386 . S
C3028 C3023 1.490 . S
C3028 C3030 1.395 . S
C3028 C3031 1.403 . S
H3029 C3035 0.930 . S
C3030 H3016 0.930 . S
C3030 C3028 1.395 . S
C3030 C3033 1.403 . S
C3031 C3028 1.403 . S
C3031 C3032 1.524 . S
C3031 C3035 1.400 . S
C3032 H3017 0.960 . S
C3032 H3018 0.960 . S
C3032 H3019 0.960 . S
C3032 C3031 1.524 . S
C3033 C3030 1.403 . S
C3033 C3034 1.392 . S
C3033 C3037 1.495 . S
C3034 C3033 1.392 . S
C3034 C3035 1.385 . S
C3034 C3036 1.478 . S
C3035 H3029 0.930 . S
C3035 C3031 1.400 . S
C3035 C3034 1.385 . S
C3036 C3034 1.478 . S
C3036 C3038 1.381 . S
C3036 C3042 1.383 . S
C3037 C3033 1.495 . S
C3037 H3043 0.959 . S
C3037 H3044 0.961 . S
C3037 H3045 0.960 . S
C3038 C3036 1.381 . S
C3038 C3039 1.394 . S
C3038 H3046 0.930 . S
C3039 C3038 1.394 . S
C3039 C3040 1.383 . S
C3039 H3047 0.929 . S
C3040 C3039 1.383 . S
C3040 C3041 1.377 . S
C3041 H3025 0.930 . S
C3041 C3040 1.377 . S
C3041 C3042 1.379 . S
C3042 H3026 0.931 . S
C3042 C3036 1.383 . S
C3042 C3041 1.379 . S
H3043 C3037 0.959 . S
H3044 C3037 0.961 . S
H3045 C3037 0.960 . S
H3046 C3038 0.930 . S
H3047 C3039 0.929 . S
H3048 C3056 0.929 . S
H3049 C3058 0.930 . S
H3050 C3060 0.930 . S
H3051 C3063 0.929 . S
H3052 C3066 0.930 . S
H3053 C3068 0.960 . S
H3054 C3068 0.960 1_565 S
H3055 C3068 0.960 . S
C3056 H3048 0.929 . S
C3056 C3057 1.377 1_565 S
C3056 C3058 1.384 . S
C3057 C3056 1.377 1_545 S
C3057 C3063 1.390 . S
C3058 H3049 0.930 . S
C3058 C3056 1.384 . S
C3058 C3059 1.372 1_565 S
C3059 C3058 1.372 1_545 S
C3059 C3060 1.400 . S
C3059 C3064 1.490 . S
C3060 H3050 0.930 . S
C3060 C3059 1.400 . S
C3060 C3063 1.386 . S
H3061 C3077 0.930 . S
H3062 C3078 0.931 . S
C3063 H3051 0.929 . S
C3063 C3057 1.390 . S
C3063 C3060 1.386 . S
C3064 C3059 1.490 . S
C3064 C3066 1.395 . S
C3064 C3067 1.403 . S
H3065 C3071 0.930 . S
C3066 H3052 0.930 . S
C3066 C3064 1.395 . S
C3066 C3069 1.403 . S
C3067 C3064 1.403 . S
C3067 C3068 1.524 . S
C3067 C3071 1.400 . S
C3068 H3053 0.960 . S
C3068 H3054 0.960 1_545 S
C3068 H3055 0.960 . S
C3068 C3067 1.524 . S
C3069 C3066 1.403 . S
C3069 C3070 1.392 . S
C3069 C3073 1.495 . S
C3070 C3069 1.392 . S
C3070 C3071 1.385 . S
C3070 C3072 1.478 . S
C3071 H3065 0.930 . S
C3071 C3067 1.400 . S
C3071 C3070 1.385 . S
C3072 C3070 1.478 . S
C3072 C3074 1.381 1_545 S
C3072 C3078 1.383 . S
C3073 C3069 1.495 . S
C3073 H3079 0.957 . S
C3073 H3080 0.961 . S
C3073 H3081 0.960 1_545 S
C3074 C3072 1.381 1_565 S
C3074 C3075 1.394 . S
C3074 H3082 0.930 . S
C3075 C3074 1.394 . S
C3075 C3076 1.383 1_565 S
C3075 H3083 0.929 . S
C3076 C3075 1.383 1_545 S
C3076 C3077 1.377 . S
C3077 H3061 0.930 . S
C3077 C3076 1.377 . S
C3077 C3078 1.379 . S
C3078 H3062 0.931 . S
C3078 C3072 1.383 . S
C3078 C3077 1.379 . S
H3079 C3073 0.957 . S
H3080 C3073 0.961 . S
H3081 C3073 0.960 1_565 S
H3082 C3074 0.930 . S
H3083 C3075 0.929 . S
H3084 C3092 0.929 . S
H3085 C3094 0.930 . S
H3086 C3096 0.930 . S
H3087 C3099 0.929 . S
H3088 C3102 0.930 . S
H3089 C3104 0.960 . S
H3090 C3104 0.960 . S
H3091 C3104 0.960 . S
C3092 H3084 0.929 . S
C3092 C3093 1.377 . S
C3092 C3094 1.384 . S
C3093 C3092 1.377 . S
C3093 C3099 1.390 . S
C3094 H3085 0.930 . S
C3094 C3092 1.384 . S
C3094 C3095 1.372 . S
C3095 C3094 1.372 . S
C3095 C3096 1.400 . S
C3095 C3100 1.490 . S
C3096 H3086 0.930 . S
C3096 C3095 1.400 . S
C3096 C3099 1.386 . S
H3097 C3113 0.930 . S
H3098 C3114 0.931 . S
C3099 H3087 0.929 . S
C3099 C3093 1.390 . S
C3099 C3096 1.386 . S
C3100 C3095 1.490 . S
C3100 C3102 1.395 . S
C3100 C3103 1.403 . S
H3101 C3107 0.930 . S
C3102 H3088 0.930 . S
C3102 C3100 1.395 . S
C3102 C3105 1.403 . S
C3103 C3100 1.403 . S
C3103 C3104 1.524 . S
C3103 C3107 1.400 . S
C3104 H3089 0.960 . S
C3104 H3090 0.960 . S
C3104 H3091 0.960 . S
C3104 C3103 1.524 . S
C3105 C3102 1.403 . S
C3105 C3106 1.392 . S
C3105 C3109 1.495 . S
C3106 C3105 1.392 . S
C3106 C3107 1.385 . S
C3106 C3108 1.478 . S
C3107 H3101 0.930 . S
C3107 C3103 1.400 . S
C3107 C3106 1.385 . S
C3108 C3106 1.478 . S
C3108 C3110 1.381 . S
C3108 C3114 1.383 . S
C3109 C3105 1.495 . S
C3109 H3115 0.959 . S
C3109 H3116 0.961 . S
C3109 H3117 0.960 . S
C3110 C3108 1.381 . S
C3110 C3111 1.394 . S
C3110 H3118 0.930 . S
C3111 C3110 1.394 . S
C3111 C3112 1.383 . S
C3111 H3119 0.929 . S
C3112 C3111 1.383 . S
C3112 C3113 1.377 . S
C3113 H3097 0.930 . S
C3113 C3112 1.377 . S
C3113 C3114 1.379 . S
C3114 H3098 0.931 . S
C3114 C3108 1.383 . S
C3114 C3113 1.379 . S
H3115 C3109 0.959 . S
H3116 C3109 0.961 . S
H3117 C3109 0.960 . S
H3118 C3110 0.930 . S
H3119 C3111 0.929 . S
H3120 C3128 0.929 . S
H3121 C3130 0.930 . S
H3122 C3132 0.930 . S
H3123 C3135 0.929 . S
H3124 C3138 0.930 1_556 S
H3125 C3140 0.960 . S
H3126 C3140 0.960 . S
H3127 C3140 0.960 . S
C3128 H3120 0.929 . S
C3128 C3129 1.377 . S
C3128 C3130 1.384 . S
C3129 C3128 1.377 . S
C3129 C3135 1.390 . S
C3130 H3121 0.930 . S
C3130 C3128 1.384 . S
C3130 C3131 1.372 . S
C3131 C3130 1.372 . S
C3131 C3132 1.400 . S
C3131 C3136 1.490 . S
C3132 H3122 0.930 . S
C3132 C3131 1.400 . S
C3132 C3135 1.386 . S
H3133 C3149 0.930 . S
H3134 C3150 0.931 . S
C3135 H3123 0.929 . S
C3135 C3129 1.390 . S
C3135 C3132 1.386 . S
C3136 C3131 1.490 . S
C3136 C3138 1.395 . S
C3136 C3139 1.403 . S
H3137 C3143 0.930 . S
C3138 H3124 0.930 1_554 S
C3138 C3136 1.395 . S
C3138 C3141 1.403 . S
C3139 C3136 1.403 . S
C3139 C3140 1.524 . S
C3139 C3143 1.400 . S
C3140 H3125 0.960 . S
C3140 H3126 0.960 . S
C3140 H3127 0.960 . S
C3140 C3139 1.524 . S
C3141 C3138 1.403 . S
C3141 C3142 1.392 . S
C3141 C3145 1.495 1_554 S
C3142 C3141 1.392 . S
C3142 C3143 1.385 . S
C3142 C3144 1.478 . S
C3143 H3137 0.930 . S
C3143 C3139 1.400 . S
C3143 C3142 1.385 . S
C3144 C3142 1.478 . S
C3144 C3146 1.381 . S
C3144 C3150 1.383 . S
C3145 C3141 1.495 1_556 S
C3145 H3151 0.959 . S
C3145 H3152 0.961 . S
C3145 H3153 0.960 . S
C3146 C3144 1.381 . S
C3146 C3147 1.394 . S
C3146 H3154 0.930 . S
C3147 C3146 1.394 . S
C3147 C3148 1.383 . S
C3147 H3155 0.929 1_554 S
C3148 C3147 1.383 . S
C3148 C3149 1.377 . S
C3149 H3133 0.930 . S
C3149 C3148 1.377 . S
C3149 C3150 1.379 . S
C3150 H3134 0.931 . S
C3150 C3144 1.383 . S
C3150 C3149 1.379 . S
H3151 C3145 0.959 . S
H3152 C3145 0.961 . S
H3153 C3145 0.960 . S
H3154 C3146 0.930 . S
H3155 C3147 0.929 1_556 S
H3156 C3164 0.929 . S
H3157 C3166 0.930 . S
H3158 C3168 0.930 . S
H3159 C3171 0.929 . S
H3160 C3174 0.930 . S
H3161 C3176 0.960 . S
H3162 C3176 0.960 . S
H3163 C3176 0.960 . S
C3164 H3156 0.929 . S
C3164 C3165 1.377 . S
C3164 C3166 1.384 . S
C3165 C3164 1.377 . S
C3165 C3171 1.390 . S
C3166 H3157 0.930 . S
C3166 C3164 1.384 . S
C3166 C3167 1.372 . S
C3167 C3166 1.372 . S
C3167 C3168 1.400 . S
C3167 C3172 1.490 . S
C3168 H3158 0.930 . S
C3168 C3167 1.400 . S
C3168 C3171 1.386 . S
H3169 C3185 0.930 . S
H3170 C3186 0.931 . S
C3171 H3159 0.929 . S
C3171 C3165 1.390 . S
C3171 C3168 1.386 . S
C3172 C3167 1.490 . S
C3172 C3174 1.395 . S
C3172 C3175 1.403 . S
H3173 C3179 0.930 . S
C3174 H3160 0.930 . S
C3174 C3172 1.395 . S
C3174 C3177 1.403 . S
C3175 C3172 1.403 . S
C3175 C3176 1.524 . S
C3175 C3179 1.400 . S
C3176 H3161 0.960 . S
C3176 H3162 0.960 . S
C3176 H3163 0.960 . S
C3176 C3175 1.524 . S
C3177 C3174 1.403 . S
C3177 C3178 1.392 . S
C3177 C3181 1.495 . S
C3178 C3177 1.392 . S
C3178 C3179 1.385 . S
C3178 C3180 1.478 . S
C3179 H3173 0.930 . S
C3179 C3175 1.400 . S
C3179 C3178 1.385 . S
C3180 C3178 1.478 . S
C3180 C3182 1.381 . S
C3180 C3186 1.383 . S
C3181 C3177 1.495 . S
C3181 H3187 0.959 . S
C3181 H3188 0.961 . S
C3181 H3189 0.960 . S
C3182 C3180 1.381 . S
C3182 C3183 1.394 . S
C3182 H3190 0.951 . S
C3183 C3182 1.394 . S
C3183 C3184 1.383 . S
C3183 H3191 0.929 1_554 S
C3184 C3183 1.383 . S
C3184 C3185 1.377 . S
C3185 H3169 0.930 . S
C3185 C3184 1.377 . S
C3185 C3186 1.379 . S
C3186 H3170 0.931 . S
C3186 C3180 1.383 . S
C3186 C3185 1.379 . S
H3187 C3181 0.959 . S
H3188 C3181 0.961 . S
H3189 C3181 0.960 . S
H3190 C3182 0.951 . S
H3191 C3183 0.929 1_556 S
H3192 C3200 0.929 . S
H3193 C3202 0.930 . S
H3194 C3204 0.930 . S
H3195 C3207 0.929 . S
H3196 C3210 0.930 . S
H3197 C3212 0.960 . S
H3198 C3212 0.960 . S
H3199 C3212 0.960 . S
C3200 H3192 0.929 . S
C3200 C3201 1.377 . S
C3200 C3202 1.384 . S
C3201 C3200 1.377 . S
C3201 C3207 1.390 . S
C3202 H3193 0.930 . S
C3202 C3200 1.384 . S
C3202 C3203 1.372 . S
C3203 C3202 1.372 . S
C3203 C3204 1.400 . S
C3203 C3208 1.490 . S
C3204 H3194 0.930 . S
C3204 C3203 1.400 . S
C3204 C3207 1.386 . S
H3205 C3221 0.930 . S
H3206 C3222 0.931 . S
C3207 H3195 0.929 . S
C3207 C3201 1.390 . S
C3207 C3204 1.386 . S
C3208 C3203 1.490 . S
C3208 C3210 1.395 . S
C3208 C3211 1.403 . S
H3209 C3215 0.930 . S
C3210 H3196 0.930 . S
C3210 C3208 1.395 . S
C3210 C3213 1.403 . S
C3211 C3208 1.403 . S
C3211 C3212 1.524 . S
C3211 C3215 1.400 . S
C3212 H3197 0.960 . S
C3212 H3198 0.960 . S
C3212 H3199 0.960 . S
C3212 C3211 1.524 . S
C3213 C3210 1.403 . S
C3213 C3214 1.392 . S
C3213 C3217 1.495 . S
C3214 C3213 1.392 . S
C3214 C3215 1.385 . S
C3214 C3216 1.478 . S
C3215 H3209 0.930 . S
C3215 C3211 1.400 . S
C3215 C3214 1.385 . S
C3216 C3214 1.478 . S
C3216 C3218 1.381 . S
C3216 C3222 1.383 . S
C3217 C3213 1.495 . S
C3217 H3223 0.959 . S
C3217 H3224 0.961 . S
C3217 H3225 0.960 . S
C3218 C3216 1.381 . S
C3218 C3219 1.394 . S
C3218 H3226 0.930 . S
C3219 C3218 1.394 . S
C3219 C3220 1.383 . S
C3219 H3227 0.929 . S
C3220 C3219 1.383 . S
C3220 C3221 1.377 . S
C3221 H3205 0.930 . S
C3221 C3220 1.377 . S
C3221 C3222 1.379 . S
C3222 H3206 0.931 . S
C3222 C3216 1.383 . S
C3222 C3221 1.379 . S
H3223 C3217 0.959 . S
H3224 C3217 0.961 . S
H3225 C3217 0.960 . S
H3226 C3218 0.930 . S
H3227 C3219 0.929 . S
H3228 C3236 0.929 . S
H3229 C3238 0.930 . S
H3230 C3240 0.930 . S
H3231 C3243 0.929 . S
H3232 C3246 0.930 . S
H3233 C3248 0.960 . S
H3234 C3248 0.960 . S
H3235 C3248 0.960 . S
C3236 H3228 0.929 . S
C3236 C3237 1.377 . S
C3236 C3238 1.384 . S
C3237 C3236 1.377 . S
C3237 C3243 1.390 . S
C3238 H3229 0.930 . S
C3238 C3236 1.384 . S
C3238 C3239 1.372 . S
C3239 C3238 1.372 . S
C3239 C3240 1.400 . S
C3239 C3244 1.490 . S
C3240 H3230 0.930 . S
C3240 C3239 1.400 . S
C3240 C3243 1.386 . S
H3241 C3257 0.930 . S
H3242 C3258 0.931 . S
C3243 H3231 0.929 . S
C3243 C3237 1.390 . S
C3243 C3240 1.386 . S
C3244 C3239 1.490 . S
C3244 C3246 1.395 . S
C3244 C3247 1.403 . S
H3245 C3251 0.930 . S
C3246 H3232 0.930 . S
C3246 C3244 1.395 . S
C3246 C3249 1.403 . S
C3247 C3244 1.403 . S
C3247 C3248 1.524 . S
C3247 C3251 1.400 . S
C3248 H3233 0.960 . S
C3248 H3234 0.960 . S
C3248 H3235 0.960 . S
C3248 C3247 1.524 . S
C3249 C3246 1.403 . S
C3249 C3250 1.392 . S
C3249 C3253 1.495 . S
C3250 C3249 1.392 . S
C3250 C3251 1.385 . S
C3250 C3252 1.478 . S
C3251 H3245 0.930 . S
C3251 C3247 1.400 . S
C3251 C3250 1.385 . S
C3252 C3250 1.478 . S
C3252 C3254 1.381 . S
C3252 C3258 1.383 . S
C3253 C3249 1.495 . S
C3253 H3259 0.959 . S
C3253 H3260 0.961 . S
C3253 H3261 0.960 . S
C3254 C3252 1.381 . S
C3254 C3255 1.394 . S
C3254 H3262 0.930 . S
C3255 C3254 1.394 . S
C3255 C3256 1.383 . S
C3255 H3263 0.929 . S
C3256 C3255 1.383 . S
C3256 C3257 1.377 . S
C3257 H3241 0.930 . S
C3257 C3256 1.377 . S
C3257 C3258 1.379 . S
C3258 H3242 0.931 . S
C3258 C3252 1.383 . S
C3258 C3257 1.379 . S
H3259 C3253 0.959 . S
H3260 C3253 0.961 . S
H3261 C3253 0.960 . S
H3262 C3254 0.930 . S
H3263 C3255 0.929 . S
H3264 C3272 0.929 . S
H3265 C3274 0.930 . S
H3266 C3276 0.930 . S
H3267 C3279 0.929 . S
H3268 C3282 0.930 . S
H3269 C3284 0.960 . S
H3270 C3284 0.960 . S
H3271 C3284 0.960 . S
C3272 H3264 0.929 . S
C3272 C3273 1.377 1_565 S
C3272 C3274 1.384 . S
C3273 C3272 1.377 1_545 S
C3273 C3279 1.390 . S
C3274 H3265 0.930 . S
C3274 C3272 1.384 . S
C3274 C3275 1.372 . S
C3275 C3274 1.372 . S
C3275 C3276 1.400 . S
C3275 C3280 1.490 . S
C3276 H3266 0.930 . S
C3276 C3275 1.400 . S
C3276 C3279 1.386 1_565 S
H3277 C3293 0.930 . S
H3278 C3294 0.931 . S
C3279 H3267 0.929 . S
C3279 C3273 1.390 . S
C3279 C3276 1.386 1_545 S
C3280 C3275 1.490 . S
C3280 C3282 1.395 . S
C3280 C3283 1.403 . S
H3281 C3287 0.930 . S
C3282 H3268 0.930 . S
C3282 C3280 1.395 . S
C3282 C3285 1.403 . S
C3283 C3280 1.403 . S
C3283 C3284 1.524 . S
C3283 C3287 1.400 . S
C3284 H3269 0.960 . S
C3284 H3270 0.960 . S
C3284 H3271 0.960 . S
C3284 C3283 1.524 . S
C3285 C3282 1.403 . S
C3285 C3286 1.392 . S
C3285 C3289 1.495 . S
C3286 C3285 1.392 . S
C3286 C3287 1.385 . S
C3286 C3288 1.478 . S
C3287 H3281 0.930 . S
C3287 C3283 1.400 . S
C3287 C3286 1.385 . S
C3288 C3286 1.478 . S
C3288 C3290 1.381 . S
C3288 C3294 1.383 . S
C3289 C3285 1.495 . S
C3289 H3295 0.959 . S
C3289 H3296 0.961 . S
C3289 H3297 0.960 . S
C3290 C3288 1.381 . S
C3290 C3291 1.394 . S
C3290 H3298 0.930 . S
C3291 C3290 1.394 . S
C3291 C3292 1.383 . S
C3291 H3299 0.929 . S
C3292 C3291 1.383 . S
C3292 C3293 1.377 . S
C3293 H3277 0.930 . S
C3293 C3292 1.377 . S
C3293 C3294 1.379 . S
C3294 H3278 0.931 . S
C3294 C3288 1.383 . S
C3294 C3293 1.379 . S
H3295 C3289 0.959 . S
H3296 C3289 0.961 . S
H3297 C3289 0.960 . S
H3298 C3290 0.930 . S
H3299 C3291 0.929 . S
H3300 C3308 0.929 . S
H3301 C3310 0.930 . S
H3302 C3312 0.930 . S
H3303 C3315 0.929 . S
H3304 C3318 0.930 . S
H3305 C3320 0.960 . S
H3306 C3320 0.960 . S
H3307 C3320 0.960 . S
C3308 H3300 0.929 . S
C3308 C3309 1.377 . S
C3308 C3310 1.384 . S
C3309 C3308 1.377 . S
C3309 C3315 1.390 . S
C3310 H3301 0.930 . S
C3310 C3308 1.384 . S
C3310 C3311 1.372 . S
C3311 C3310 1.372 . S
C3311 C3312 1.400 . S
C3311 C3316 1.490 . S
C3312 H3302 0.930 . S
C3312 C3311 1.400 . S
C3312 C3315 1.386 . S
H3313 C3329 0.930 . S
H3314 C3330 0.931 . S
C3315 H3303 0.929 . S
C3315 C3309 1.390 . S
C3315 C3312 1.386 . S
C3316 C3311 1.490 . S
C3316 C3318 1.395 . S
C3316 C3319 1.403 . S
H3317 C3323 0.930 . S
C3318 H3304 0.930 . S
C3318 C3316 1.395 . S
C3318 C3321 1.403 . S
C3319 C3316 1.403 . S
C3319 C3320 1.524 . S
C3319 C3323 1.400 . S
C3320 H3305 0.960 . S
C3320 H3306 0.960 . S
C3320 H3307 0.960 . S
C3320 C3319 1.524 . S
C3321 C3318 1.403 . S
C3321 C3322 1.392 . S
C3321 C3325 1.495 . S
C3322 C3321 1.392 . S
C3322 C3323 1.385 . S
C3322 C3324 1.478 . S
C3323 H3317 0.930 . S
C3323 C3319 1.400 . S
C3323 C3322 1.385 . S
C3324 C3322 1.478 . S
C3324 C3326 1.381 . S
C3324 C3330 1.383 . S
C3325 C3321 1.495 . S
C3325 H3331 0.959 . S
C3325 H3332 0.961 . S
C3325 H3333 0.960 . S
C3326 C3324 1.381 . S
C3326 C3327 1.394 . S
C3326 H3334 0.930 . S
C3327 C3326 1.394 . S
C3327 C3328 1.383 . S
C3327 H3335 0.971 . S
C3328 C3327 1.383 . S
C3328 C3329 1.377 . S
C3329 H3313 0.930 . S
C3329 C3328 1.377 . S
C3329 C3330 1.379 . S
C3330 H3314 0.931 . S
C3330 C3324 1.383 . S
C3330 C3329 1.379 . S
H3331 C3325 0.959 . S
H3332 C3325 0.961 . S
H3333 C3325 0.960 . S
H3334 C3326 0.930 . S
H3335 C3327 0.971 . S
H3336 C3344 0.929 . S
H3337 C3346 0.930 . S
H3338 C3348 0.930 . S
H3339 C3351 0.929 . S
H3340 C3354 0.930 . S
H3341 C3356 0.960 . S
H3342 C3356 0.960 . S
H3343 C3356 0.960 . S
C3344 H3336 0.929 . S
C3344 C3345 1.377 . S
C3344 C3346 1.384 . S
C3345 C3344 1.377 . S
C3345 C3351 1.390 . S
C3346 H3337 0.930 . S
C3346 C3344 1.384 . S
C3346 C3347 1.372 . S
C3347 C3346 1.372 . S
C3347 C3348 1.400 . S
C3347 C3352 1.490 . S
C3348 H3338 0.930 . S
C3348 C3347 1.400 . S
C3348 C3351 1.386 . S
H3349 C3365 0.930 . S
H3350 C3366 0.931 . S
C3351 H3339 0.929 . S
C3351 C3345 1.390 . S
C3351 C3348 1.386 . S
C3352 C3347 1.490 . S
C3352 C3354 1.395 . S
C3352 C3355 1.403 . S
H3353 C3359 0.930 . S
C3354 H3340 0.930 . S
C3354 C3352 1.395 . S
C3354 C3357 1.403 . S
C3355 C3352 1.403 . S
C3355 C3356 1.524 . S
C3355 C3359 1.400 . S
C3356 H3341 0.960 . S
C3356 H3342 0.960 . S
C3356 H3343 0.960 . S
C3356 C3355 1.524 . S
C3357 C3354 1.403 . S
C3357 C3358 1.392 . S
C3357 C3361 1.495 . S
C3358 C3357 1.392 . S
C3358 C3359 1.385 . S
C3358 C3360 1.478 . S
C3359 H3353 0.930 . S
C3359 C3355 1.400 . S
C3359 C3358 1.385 . S
C3360 C3358 1.478 . S
C3360 C3362 1.381 . S
C3360 C3366 1.383 . S
C3361 C3357 1.495 . S
C3361 H3367 0.959 . S
C3361 H3368 0.961 . S
C3361 H3369 0.960 . S
C3362 C3360 1.381 . S
C3362 C3363 1.394 . S
C3362 H3370 0.930 . S
C3363 C3362 1.394 . S
C3363 C3364 1.383 . S
C3363 H3371 0.929 . S
C3364 C3363 1.383 . S
C3364 C3365 1.377 . S
C3365 H3349 0.930 . S
C3365 C3364 1.377 . S
C3365 C3366 1.379 . S
C3366 H3350 0.931 . S
C3366 C3360 1.383 . S
C3366 C3365 1.379 . S
H3367 C3361 0.959 . S
H3368 C3361 0.961 . S
H3369 C3361 0.960 . S
H3370 C3362 0.930 . S
H3371 C3363 0.929 . S
H3372 C3380 0.929 . S
H3373 C3382 0.930 . S
H3374 C3384 0.930 . S
H3375 C3387 0.929 . S
H3376 C3390 0.930 . S
H3377 C3392 0.960 . S
H3378 C3392 0.960 . S
H3379 C3392 0.960 . S
C3380 H3372 0.929 . S
C3380 C3381 1.377 . S
C3380 C3382 1.384 . S
C3381 C3380 1.377 . S
C3381 C3387 1.390 . S
C3382 H3373 0.930 . S
C3382 C3380 1.384 . S
C3382 C3383 1.372 . S
C3383 C3382 1.372 . S
C3383 C3384 1.400 . S
C3383 C3388 1.490 . S
C3384 H3374 0.930 . S
C3384 C3383 1.400 . S
C3384 C3387 1.386 . S
H3385 C3401 0.930 . S
H3386 C3402 0.931 . S
C3387 H3375 0.929 . S
C3387 C3381 1.390 . S
C3387 C3384 1.386 . S
C3388 C3383 1.490 . S
C3388 C3390 1.395 . S
C3388 C3391 1.403 . S
H3389 C3395 0.930 . S
C3390 H3376 0.930 . S
C3390 C3388 1.395 . S
C3390 C3393 1.403 . S
C3391 C3388 1.403 . S
C3391 C3392 1.524 . S
C3391 C3395 1.400 . S
C3392 H3377 0.960 . S
C3392 H3378 0.960 . S
C3392 H3379 0.960 . S
C3392 C3391 1.524 . S
C3393 C3390 1.403 . S
C3393 C3394 1.392 . S
C3393 C3397 1.495 . S
C3394 C3393 1.392 . S
C3394 C3395 1.385 . S
C3394 C3396 1.478 . S
C3395 H3389 0.930 . S
C3395 C3391 1.400 . S
C3395 C3394 1.385 . S
C3396 C3394 1.478 . S
C3396 C3398 1.381 . S
C3396 C3402 1.383 . S
C3397 C3393 1.495 . S
C3397 H3403 0.959 . S
C3397 H3404 0.961 . S
C3397 H3405 0.960 . S
C3398 C3396 1.381 . S
C3398 C3399 1.394 . S
C3398 H3406 0.930 . S
C3399 C3398 1.394 . S
C3399 C3400 1.383 . S
C3399 H3407 0.929 . S
C3400 C3399 1.383 . S
C3400 C3401 1.377 . S
C3401 H3385 0.930 . S
C3401 C3400 1.377 . S
C3401 C3402 1.379 . S
C3402 H3386 0.931 . S
C3402 C3396 1.383 . S
C3402 C3401 1.379 . S
H3403 C3397 0.959 . S
H3404 C3397 0.961 . S
H3405 C3397 0.960 . S
H3406 C3398 0.930 . S
H3407 C3399 0.929 . S
H3408 C3416 0.929 . S
H3409 C3418 0.930 . S
H3410 C3420 0.930 . S
H3411 C3423 0.929 . S
H3412 C3426 0.930 . S
H3413 C3428 0.960 . S
H3414 C3428 0.960 . S
H3415 C3428 0.960 . S
C3416 H3408 0.929 . S
C3416 C3417 1.377 . S
C3416 C3418 1.384 . S
C3417 C3416 1.377 . S
C3417 C3423 1.390 . S
C3418 H3409 0.930 . S
C3418 C3416 1.384 . S
C3418 C3419 1.372 . S
C3419 C3418 1.372 . S
C3419 C3420 1.400 . S
C3419 C3424 1.490 . S
C3420 H3410 0.930 . S
C3420 C3419 1.400 . S
C3420 C3423 1.386 . S
H3421 C3437 0.930 . S
H3422 C3438 0.931 . S
C3423 H3411 0.929 . S
C3423 C3417 1.390 . S
C3423 C3420 1.386 . S
C3424 C3419 1.490 . S
C3424 C3426 1.395 . S
C3424 C3427 1.403 . S
H3425 C3431 0.930 . S
C3426 H3412 0.930 . S
C3426 C3424 1.395 . S
C3426 C3429 1.403 . S
C3427 C3424 1.403 . S
C3427 C3428 1.524 . S
C3427 C3431 1.400 . S
C3428 H3413 0.960 . S
C3428 H3414 0.960 . S
C3428 H3415 0.960 . S
C3428 C3427 1.524 . S
C3429 C3426 1.403 . S
C3429 C3430 1.392 . S
C3429 C3433 1.495 . S
C3430 C3429 1.392 . S
C3430 C3431 1.385 . S
C3430 C3432 1.478 . S
C3431 H3425 0.930 . S
C3431 C3427 1.400 . S
C3431 C3430 1.385 . S
C3432 C3430 1.478 . S
C3432 C3434 1.381 . S
C3432 C3438 1.383 . S
C3433 C3429 1.495 . S
C3433 H3439 0.959 . S
C3433 H3440 0.961 . S
C3433 H3441 0.960 . S
C3434 C3432 1.381 . S
C3434 C3435 1.394 . S
C3434 H3442 0.930 . S
C3435 C3434 1.394 . S
C3435 C3436 1.383 . S
C3435 H3443 0.929 . S
C3436 C3435 1.383 . S
C3436 C3437 1.377 . S
C3437 H3421 0.930 . S
C3437 C3436 1.377 . S
C3437 C3438 1.379 . S
C3438 H3422 0.931 . S
C3438 C3432 1.383 . S
C3438 C3437 1.379 . S
H3439 C3433 0.959 . S
H3440 C3433 0.961 . S
H3441 C3433 0.960 . S
H3442 C3434 0.930 . S
H3443 C3435 0.929 . S
H3444 C3452 0.929 . S
H3445 C3454 0.930 . S
H3446 C3456 0.930 . S
H3447 C3459 0.929 . S
H3448 C3462 0.930 . S
H3449 C3464 0.960 . S
H3450 C3464 0.960 . S
H3451 C3464 0.960 . S
C3452 H3444 0.929 . S
C3452 C3453 1.377 . S
C3452 C3454 1.384 . S
C3453 C3452 1.377 . S
C3453 C3459 1.390 . S
C3454 H3445 0.930 . S
C3454 C3452 1.384 . S
C3454 C3455 1.372 . S
C3455 C3454 1.372 . S
C3455 C3456 1.400 . S
C3455 C3460 1.490 . S
C3456 H3446 0.930 . S
C3456 C3455 1.400 . S
C3456 C3459 1.386 . S
H3457 C3473 0.930 . S
H3458 C3474 0.931 . S
C3459 H3447 0.929 . S
C3459 C3453 1.390 . S
C3459 C3456 1.386 . S
C3460 C3455 1.490 . S
C3460 C3462 1.395 . S
C3460 C3463 1.403 . S
H3461 C3467 0.930 . S
C3462 H3448 0.930 . S
C3462 C3460 1.395 . S
C3462 C3465 1.403 . S
C3463 C3460 1.403 . S
C3463 C3464 1.524 . S
C3463 C3467 1.400 . S
C3464 H3449 0.960 . S
C3464 H3450 0.960 . S
C3464 H3451 0.960 . S
C3464 C3463 1.524 . S
C3465 C3462 1.403 . S
C3465 C3466 1.392 . S
C3465 C3469 1.495 . S
C3466 C3465 1.392 . S
C3466 C3467 1.385 . S
C3466 C3468 1.478 . S
C3467 H3461 0.930 . S
C3467 C3463 1.400 . S
C3467 C3466 1.385 . S
C3468 C3466 1.478 . S
C3468 C3470 1.381 . S
C3468 C3474 1.383 . S
C3469 C3465 1.495 . S
C3469 H3475 0.959 . S
C3469 H3476 0.961 . S
C3469 H3477 0.960 . S
C3470 C3468 1.381 . S
C3470 C3471 1.394 . S
C3470 H3478 0.930 . S
C3471 C3470 1.394 . S
C3471 C3472 1.383 . S
C3471 H3479 0.929 . S
C3472 C3471 1.383 . S
C3472 C3473 1.377 . S
C3473 H3457 0.930 . S
C3473 C3472 1.377 . S
C3473 C3474 1.379 . S
C3474 H3458 0.931 . S
C3474 C3468 1.383 . S
C3474 C3473 1.379 . S
H3475 C3469 0.959 . S
H3476 C3469 0.961 . S
H3477 C3469 0.960 . S
H3478 C3470 0.930 . S
H3479 C3471 0.929 . S
H3480 C3488 0.929 . S
H3481 C3490 0.930 . S
H3482 C3492 0.930 . S
H3483 C3495 0.929 . S
H3484 C3498 0.930 . S
H3485 C3500 0.960 . S
H3486 C3500 0.960 . S
H3487 C3500 0.960 . S
C3488 H3480 0.929 . S
C3488 C3489 1.377 1_655 S
C3488 C3490 1.384 . S
C3489 C3488 1.377 1_455 S
C3489 C3495 1.390 . S
C3490 H3481 0.930 . S
C3490 C3488 1.384 . S
C3490 C3491 1.372 1_655 S
C3491 C3490 1.372 1_455 S
C3491 C3492 1.400 . S
C3491 C3496 1.490 . S
C3492 H3482 0.930 . S
C3492 C3491 1.400 . S
C3492 C3495 1.386 . S
H3493 C3509 0.930 . S
H3494 C3510 0.931 . S
C3495 H3483 0.929 . S
C3495 C3489 1.390 . S
C3495 C3492 1.386 . S
C3496 C3491 1.490 . S
C3496 C3498 1.395 1_455 S
C3496 C3499 1.403 . S
H3497 C3503 0.930 . S
C3498 H3484 0.930 . S
C3498 C3496 1.395 1_655 S
C3498 C3501 1.403 . S
C3499 C3496 1.403 . S
C3499 C3500 1.524 . S
C3499 C3503 1.400 . S
C3500 H3485 0.960 . S
C3500 H3486 0.960 . S
C3500 H3487 0.960 . S
C3500 C3499 1.524 . S
C3501 C3498 1.403 . S
C3501 C3502 1.392 1_655 S
C3501 C3505 1.495 1_556 S
C3502 C3501 1.392 1_455 S
C3502 C3503 1.385 . S
C3502 C3504 1.478 . S
C3503 H3497 0.930 . S
C3503 C3499 1.400 . S
C3503 C3502 1.385 . S
C3504 C3502 1.478 . S
C3504 C3506 1.381 1_455 S
C3504 C3510 1.383 1_556 S
C3505 C3501 1.495 1_554 S
C3505 H3511 0.959 . S
C3505 H3512 0.961 . S
C3505 H3513 0.975 . S
C3506 C3504 1.381 1_655 S
C3506 C3507 1.394 . S
C3506 H3514 0.930 . S
C3507 C3506 1.394 . S
C3507 C3508 1.383 1_656 S
C3507 H3515 0.929 . S
C3508 C3507 1.383 1_454 S
C3508 C3509 1.377 . S
C3509 H3493 0.930 . S
C3509 C3508 1.377 . S
C3509 C3510 1.379 . S
C3510 H3494 0.931 . S
C3510 C3504 1.383 1_554 S
C3510 C3509 1.379 . S
H3511 C3505 0.959 . S
H3512 C3505 0.961 . S
H3513 C3505 0.975 . S
H3514 C3506 0.930 . S
H3515 C3507 0.929 . S
H3516 C3524 0.929 . S
H3517 C3526 0.930 . S
H3518 C3528 0.930 . S
H3519 C3531 0.941 . S
H3520 C3534 0.930 . S
H3521 C3536 0.960 . S
H3522 C3536 0.960 . S
H3523 C3536 0.960 . S
C3524 H3516 0.929 . S
C3524 C3525 1.377 1_655 S
C3524 C3526 1.384 . S
C3525 C3524 1.377 1_455 S
C3525 C3531 1.392 . S
C3526 H3517 0.930 . S
C3526 C3524 1.384 . S
C3526 C3527 1.372 . S
C3527 C3526 1.372 . S
C3527 C3528 1.400 . S
C3527 C3532 1.490 . S
C3528 H3518 0.930 . S
C3528 C3527 1.400 . S
C3528 C3531 1.372 1_655 S
H3529 C3545 0.930 . S
H3530 C3546 0.931 . S
C3531 H3519 0.941 . S
C3531 C3525 1.392 . S
C3531 C3528 1.372 1_455 S
C3532 C3527 1.490 . S
C3532 C3534 1.395 . S
C3532 C3535 1.403 . S
H3533 C3539 0.930 . S
C3534 H3520 0.930 . S
C3534 C3532 1.395 . S
C3534 C3537 1.403 . S
C3535 C3532 1.403 . S
C3535 C3536 1.524 . S
C3535 C3539 1.400 . S
C3536 H3521 0.960 . S
C3536 H3522 0.960 . S
C3536 H3523 0.960 . S
C3536 C3535 1.524 . S
C3537 C3534 1.403 . S
C3537 C3538 1.392 . S
C3537 C3541 1.495 . S
C3538 C3537 1.392 . S
C3538 C3539 1.385 . S
C3538 C3540 1.478 . S
C3539 H3533 0.930 . S
C3539 C3535 1.400 . S
C3539 C3538 1.385 . S
C3540 C3538 1.478 . S
C3540 C3542 1.381 . S
C3540 C3546 1.383 . S
C3541 C3537 1.495 . S
C3541 H3547 0.959 . S
C3541 H3548 0.961 . S
C3541 H3549 0.960 . S
C3542 C3540 1.381 . S
C3542 C3543 1.394 . S
C3542 H3550 0.930 . S
C3543 C3542 1.394 . S
C3543 C3544 1.383 . S
C3543 H3551 0.929 . S
C3544 C3543 1.383 . S
C3544 C3545 1.377 . S
C3545 H3529 0.930 . S
C3545 C3544 1.377 . S
C3545 C3546 1.379 . S
C3546 H3530 0.931 . S
C3546 C3540 1.383 . S
C3546 C3545 1.379 . S
H3547 C3541 0.959 . S
H3548 C3541 0.961 . S
H3549 C3541 0.960 . S
H3550 C3542 0.930 . S
H3551 C3543 0.929 . S
H3552 C3560 0.929 . S
H3553 C3562 0.930 . S
H3554 C3564 0.930 . S
H3555 C3567 0.929 . S
H3556 C3570 0.930 . S
H3557 C3572 0.960 . S
H3558 C3572 0.960 . S
H3559 C3572 0.960 . S
C3560 H3552 0.929 . S
C3560 C3561 1.377 . S
C3560 C3562 1.384 . S
C3561 C3560 1.377 . S
C3561 C3567 1.390 . S
C3562 H3553 0.930 . S
C3562 C3560 1.384 . S
C3562 C3563 1.372 . S
C3563 C3562 1.372 . S
C3563 C3564 1.400 . S
C3563 C3568 1.490 . S
C3564 H3554 0.930 . S
C3564 C3563 1.400 . S
C3564 C3567 1.386 . S
H3565 C3581 0.930 . S
H3566 C3582 0.931 . S
C3567 H3555 0.929 . S
C3567 C3561 1.390 . S
C3567 C3564 1.386 . S
C3568 C3563 1.490 . S
C3568 C3570 1.395 . S
C3568 C3571 1.403 . S
H3569 C3575 0.930 . S
C3570 H3556 0.930 . S
C3570 C3568 1.395 . S
C3570 C3573 1.403 . S
C3571 C3568 1.403 . S
C3571 C3572 1.524 . S
C3571 C3575 1.400 . S
C3572 H3557 0.960 . S
C3572 H3558 0.960 . S
C3572 H3559 0.960 . S
C3572 C3571 1.524 . S
C3573 C3570 1.403 . S
C3573 C3574 1.392 . S
C3573 C3577 1.495 . S
C3574 C3573 1.392 . S
C3574 C3575 1.385 . S
C3574 C3576 1.478 . S
C3575 H3569 0.930 . S
C3575 C3571 1.400 . S
C3575 C3574 1.385 . S
C3576 C3574 1.478 . S
C3576 C3578 1.381 . S
C3576 C3582 1.383 . S
C3577 C3573 1.495 . S
C3577 H3583 0.959 . S
C3577 H3584 0.961 . S
C3577 H3585 0.960 . S
C3578 C3576 1.381 . S
C3578 C3579 1.394 . S
C3578 H3586 0.930 . S
C3579 C3578 1.394 . S
C3579 C3580 1.383 . S
C3579 H3587 0.929 . S
C3580 C3579 1.383 . S
C3580 C3581 1.377 . S
C3581 H3565 0.930 . S
C3581 C3580 1.377 . S
C3581 C3582 1.379 . S
C3582 H3566 0.931 . S
C3582 C3576 1.383 . S
C3582 C3581 1.379 . S
H3583 C3577 0.959 . S
H3584 C3577 0.961 . S
H3585 C3577 0.960 . S
H3586 C3578 0.930 . S
H3587 C3579 0.929 . S
H3588 C3596 0.929 . S
H3589 C3598 0.930 . S
H3590 C3600 0.930 . S
H3591 C3603 0.929 . S
H3592 C3606 0.930 . S
H3593 C3608 0.960 . S
H3594 C3608 0.960 . S
H3595 C3608 0.960 . S
C3596 H3588 0.929 . S
C3596 C3597 1.377 . S
C3596 C3598 1.384 . S
C3597 C3596 1.377 . S
C3597 C3603 1.390 . S
C3598 H3589 0.930 . S
C3598 C3596 1.384 . S
C3598 C3599 1.372 . S
C3599 C3598 1.372 . S
C3599 C3600 1.400 . S
C3599 C3604 1.490 . S
C3600 H3590 0.930 . S
C3600 C3599 1.400 . S
C3600 C3603 1.386 . S
H3601 C3617 0.930 . S
H3602 C3618 0.931 . S
C3603 H3591 0.929 . S
C3603 C3597 1.390 . S
C3603 C3600 1.386 . S
C3604 C3599 1.490 . S
C3604 C3606 1.395 . S
C3604 C3607 1.403 . S
H3605 C3611 0.930 . S
C3606 H3592 0.930 . S
C3606 C3604 1.395 . S
C3606 C3609 1.403 . S
C3607 C3604 1.403 . S
C3607 C3608 1.524 . S
C3607 C3611 1.400 . S
C3608 H3593 0.960 . S
C3608 H3594 0.960 . S
C3608 H3595 0.960 . S
C3608 C3607 1.524 . S
C3609 C3606 1.403 . S
C3609 C3610 1.392 . S
C3609 C3613 1.495 . S
C3610 C3609 1.392 . S
C3610 C3611 1.385 . S
C3610 C3612 1.478 . S
C3611 H3605 0.930 . S
C3611 C3607 1.400 . S
C3611 C3610 1.385 . S
C3612 C3610 1.478 . S
C3612 C3614 1.381 . S
C3612 C3618 1.383 . S
C3613 C3609 1.495 . S
C3613 H3619 0.959 . S
C3613 H3620 0.961 . S
C3613 H3621 0.960 . S
C3614 C3612 1.381 . S
C3614 C3615 1.394 . S
C3614 H3622 0.930 . S
C3615 C3614 1.394 . S
C3615 C3616 1.383 . S
C3615 H3623 0.929 . S
C3616 C3615 1.383 . S
C3616 C3617 1.377 . S
C3617 H3601 0.930 . S
C3617 C3616 1.377 . S
C3617 C3618 1.379 . S
C3618 H3602 0.931 . S
C3618 C3612 1.383 . S
C3618 C3617 1.379 . S
H3619 C3613 0.959 . S
H3620 C3613 0.961 . S
H3621 C3613 0.960 . S
H3622 C3614 0.930 . S
H3623 C3615 0.929 . S
H3624 C3632 0.929 . S
H3625 C3634 0.930 . S
H3626 C3636 0.930 . S
H3627 C3639 0.929 . S
H3628 C3642 0.917 1_655 S
H3629 C3644 0.960 . S
H3630 C3644 0.960 . S
H3631 C3644 0.960 . S
C3632 H3624 0.929 . S
C3632 C3633 1.377 . S
C3632 C3634 1.384 . S
C3633 C3632 1.377 . S
C3633 C3639 1.390 . S
C3634 H3625 0.930 . S
C3634 C3632 1.384 . S
C3634 C3635 1.372 . S
C3635 C3634 1.372 . S
C3635 C3636 1.400 . S
C3635 C3640 1.490 . S
C3636 H3626 0.930 . S
C3636 C3635 1.400 . S
C3636 C3639 1.386 . S
H3637 C3653 0.930 . S
H3638 C3654 0.931 . S
C3639 H3627 0.929 . S
C3639 C3633 1.390 . S
C3639 C3636 1.386 . S
C3640 C3635 1.490 . S
C3640 C3642 1.403 . S
C3640 C3643 1.403 . S
H3641 C3647 0.930 . S
C3642 H3628 0.917 1_455 S
C3642 C3640 1.403 . S
C3642 C3645 1.407 1_455 S
C3643 C3640 1.403 . S
C3643 C3644 1.524 . S
C3643 C3647 1.400 . S
C3644 H3629 0.960 . S
C3644 H3630 0.960 . S
C3644 H3631 0.960 . S
C3644 C3643 1.524 . S
C3645 C3642 1.407 1_655 S
C3645 C3646 1.392 1_655 S
C3645 C3649 1.495 . S
C3646 C3645 1.392 1_455 S
C3646 C3647 1.385 . S
C3646 C3648 1.478 . S
C3647 H3641 0.930 . S
C3647 C3643 1.400 . S
C3647 C3646 1.385 . S
C3648 C3646 1.478 . S
C3648 C3650 1.381 . S
C3648 C3654 1.383 . S
C3649 C3645 1.495 . S
C3649 H3655 0.959 . S
C3649 H3656 0.961 . S
C3649 H3657 0.960 . S
C3650 C3648 1.381 . S
C3650 C3651 1.394 . S
C3650 H3658 0.930 . S
C3651 C3650 1.394 . S
C3651 C3652 1.383 . S
C3651 H3659 0.929 . S
C3652 C3651 1.383 . S
C3652 C3653 1.377 . S
C3653 H3637 0.930 . S
C3653 C3652 1.377 . S
C3653 C3654 1.379 . S
C3654 H3638 0.931 . S
C3654 C3648 1.383 . S
C3654 C3653 1.379 . S
H3655 C3649 0.959 . S
H3656 C3649 0.961 . S
H3657 C3649 0.960 . S
H3658 C3650 0.930 . S
H3659 C3651 0.929 . S
H3660 C3668 0.929 . S
H3661 C3670 0.930 . S
H3662 C3672 0.930 . S
H3663 C3675 0.929 . S
H3664 C3678 0.930 . S
H3665 C3680 0.960 . S
H3666 C3680 0.960 . S
H3667 C3680 0.960 . S
C3668 H3660 0.929 . S
C3668 C3669 1.377 . S
C3668 C3670 1.384 . S
C3669 C3668 1.377 . S
C3669 C3675 1.390 . S
C3670 H3661 0.930 . S
C3670 C3668 1.384 . S
C3670 C3671 1.372 . S
C3671 C3670 1.372 . S
C3671 C3672 1.400 . S
C3671 C3676 1.490 . S
C3672 H3662 0.930 . S
C3672 C3671 1.400 . S
C3672 C3675 1.386 . S
H3673 C3689 0.930 . S
H3674 C3690 0.931 . S
C3675 H3663 0.929 . S
C3675 C3669 1.390 . S
C3675 C3672 1.386 . S
C3676 C3671 1.490 . S
C3676 C3678 1.395 . S
C3676 C3679 1.403 . S
H3677 C3683 0.930 . S
C3678 H3664 0.930 . S
C3678 C3676 1.395 . S
C3678 C3681 1.403 . S
C3679 C3676 1.403 . S
C3679 C3680 1.524 . S
C3679 C3683 1.400 . S
C3680 H3665 0.960 . S
C3680 H3666 0.960 . S
C3680 H3667 0.960 . S
C3680 C3679 1.524 . S
C3681 C3678 1.403 . S
C3681 C3682 1.392 . S
C3681 C3685 1.495 . S
C3682 C3681 1.392 . S
C3682 C3683 1.385 . S
C3682 C3684 1.478 . S
C3683 H3677 0.930 . S
C3683 C3679 1.400 . S
C3683 C3682 1.385 . S
C3684 C3682 1.478 . S
C3684 C3686 1.381 . S
C3684 C3690 1.383 . S
C3685 C3681 1.495 . S
C3685 H3691 0.959 . S
C3685 H3692 0.961 . S
C3685 H3693 0.960 . S
C3686 C3684 1.381 . S
C3686 C3687 1.394 . S
C3686 H3694 0.930 . S
C3687 C3686 1.394 . S
C3687 C3688 1.383 . S
C3687 H3695 0.929 . S
C3688 C3687 1.383 . S
C3688 C3689 1.377 . S
C3689 H3673 0.930 . S
C3689 C3688 1.377 . S
C3689 C3690 1.379 . S
C3690 H3674 0.931 . S
C3690 C3684 1.383 . S
C3690 C3689 1.379 . S
H3691 C3685 0.959 . S
H3692 C3685 0.961 . S
H3693 C3685 0.960 . S
H3694 C3686 0.930 . S
H3695 C3687 0.929 . S
H3696 C3704 0.929 . S
H3697 C3706 0.930 . S
H3698 C3708 0.930 . S
H3699 C3711 0.929 . S
H3700 C3714 0.930 . S
H3701 C3716 0.960 . S
H3702 C3716 0.960 . S
H3703 C3716 0.960 . S
C3704 H3696 0.929 . S
C3704 C3705 1.377 . S
C3704 C3706 1.384 . S
C3705 C3704 1.377 . S
C3705 C3711 1.390 . S
C3706 H3697 0.930 . S
C3706 C3704 1.384 . S
C3706 C3707 1.372 . S
C3707 C3706 1.372 . S
C3707 C3708 1.400 . S
C3707 C3712 1.490 . S
C3708 H3698 0.930 . S
C3708 C3707 1.400 . S
C3708 C3711 1.386 . S
H3709 C3725 0.930 . S
H3710 C3726 0.931 . S
C3711 H3699 0.929 . S
C3711 C3705 1.390 . S
C3711 C3708 1.386 . S
C3712 C3707 1.490 . S
C3712 C3714 1.395 . S
C3712 C3715 1.403 . S
H3713 C3719 0.930 . S
C3714 H3700 0.930 . S
C3714 C3712 1.395 . S
C3714 C3717 1.403 . S
C3715 C3712 1.403 . S
C3715 C3716 1.524 . S
C3715 C3719 1.400 . S
C3716 H3701 0.960 . S
C3716 H3702 0.960 . S
C3716 H3703 0.960 . S
C3716 C3715 1.524 . S
C3717 C3714 1.403 . S
C3717 C3718 1.392 . S
C3717 C3721 1.495 . S
C3718 C3717 1.392 . S
C3718 C3719 1.385 . S
C3718 C3720 1.478 . S
C3719 H3713 0.930 . S
C3719 C3715 1.400 . S
C3719 C3718 1.385 . S
C3720 C3718 1.478 . S
C3720 C3722 1.381 . S
C3720 C3726 1.383 . S
C3721 C3717 1.495 . S
C3721 H3727 0.959 . S
C3721 H3728 0.961 . S
C3721 H3729 0.960 . S
C3722 C3720 1.381 . S
C3722 C3723 1.394 . S
C3722 H3730 0.930 . S
C3723 C3722 1.394 . S
C3723 C3724 1.383 . S
C3723 H3731 0.929 . S
C3724 C3723 1.383 . S
C3724 C3725 1.377 . S
C3725 H3709 0.930 . S
C3725 C3724 1.377 . S
C3725 C3726 1.379 . S
C3726 H3710 0.931 . S
C3726 C3720 1.383 . S
C3726 C3725 1.379 . S
H3727 C3721 0.959 . S
H3728 C3721 0.961 . S
H3729 C3721 0.960 . S
H3730 C3722 0.930 . S
H3731 C3723 0.929 . S
H3732 C3740 0.929 . S
H3733 C3742 0.930 . S
H3734 C3744 0.930 . S
H3735 C3747 0.929 . S
H3736 C3750 0.930 . S
H3737 C3752 0.960 . S
H3738 C3752 0.960 . S
H3739 C3752 0.960 . S
C3740 H3732 0.929 . S
C3740 C3741 1.376 . S
C3740 C3742 1.384 1_554 S
C3741 C3740 1.376 . S
C3741 C3747 1.379 1_554 S
C3742 H3733 0.930 . S
C3742 C3740 1.384 1_556 S
C3742 C3743 1.372 . S
C3743 C3742 1.372 . S
C3743 C3744 1.400 . S
C3743 C3748 1.490 . S
C3744 H3734 0.930 . S
C3744 C3743 1.400 . S
C3744 C3747 1.386 . S
H3745 C3761 0.930 . S
H3746 C3762 0.931 . S
C3747 H3735 0.929 . S
C3747 C3741 1.379 1_556 S
C3747 C3744 1.386 . S
C3748 C3743 1.490 . S
C3748 C3750 1.395 . S
C3748 C3751 1.403 . S
H3749 C3755 0.930 . S
C3750 H3736 0.930 . S
C3750 C3748 1.395 . S
C3750 C3753 1.403 . S
C3751 C3748 1.403 . S
C3751 C3752 1.524 . S
C3751 C3755 1.400 . S
C3752 H3737 0.960 . S
C3752 H3738 0.960 . S
C3752 H3739 0.960 . S
C3752 C3751 1.524 . S
C3753 C3750 1.403 . S
C3753 C3754 1.392 . S
C3753 C3757 1.495 . S
C3754 C3753 1.392 . S
C3754 C3755 1.385 . S
C3754 C3756 1.478 . S
C3755 H3749 0.930 . S
C3755 C3751 1.400 . S
C3755 C3754 1.385 . S
C3756 C3754 1.478 . S
C3756 C3758 1.381 . S
C3756 C3762 1.383 . S
C3757 C3753 1.495 . S
C3757 H3763 0.959 . S
C3757 H3764 0.961 . S
C3757 H3765 0.960 . S
C3758 C3756 1.381 . S
C3758 C3759 1.394 . S
C3758 H3766 0.930 . S
C3759 C3758 1.394 . S
C3759 C3760 1.383 . S
C3759 H3767 0.929 . S
C3760 C3759 1.383 . S
C3760 C3761 1.377 . S
C3761 H3745 0.930 . S
C3761 C3760 1.377 . S
C3761 C3762 1.379 . S
C3762 H3746 0.931 . S
C3762 C3756 1.383 . S
C3762 C3761 1.379 . S
H3763 C3757 0.959 . S
H3764 C3757 0.961 . S
H3765 C3757 0.960 . S
H3766 C3758 0.930 . S
H3767 C3759 0.929 . S
H3768 C3776 0.929 . S
H3769 C3778 0.930 . S
H3770 C3780 0.930 . S
H3771 C3783 0.929 . S
H3772 C3786 0.930 . S
H3773 C3788 0.960 . S
H3774 C3788 0.960 . S
H3775 C3788 0.960 . S
C3776 H3768 0.929 . S
C3776 C3777 1.377 . S
C3776 C3778 1.384 . S
C3777 C3776 1.377 . S
C3777 C3783 1.390 . S
C3778 H3769 0.930 . S
C3778 C3776 1.384 . S
C3778 C3779 1.372 . S
C3779 C3778 1.372 . S
C3779 C3780 1.400 . S
C3779 C3784 1.490 . S
C3780 H3770 0.930 . S
C3780 C3779 1.400 . S
C3780 C3783 1.386 . S
H3781 C3797 0.930 . S
H3782 C3798 0.931 . S
C3783 H3771 0.929 . S
C3783 C3777 1.390 . S
C3783 C3780 1.386 . S
C3784 C3779 1.490 . S
C3784 C3786 1.395 . S
C3784 C3787 1.403 . S
H3785 C3791 0.930 . S
C3786 H3772 0.930 . S
C3786 C3784 1.395 . S
C3786 C3789 1.403 . S
C3787 C3784 1.403 . S
C3787 C3788 1.524 . S
C3787 C3791 1.400 . S
C3788 H3773 0.960 . S
C3788 H3774 0.960 . S
C3788 H3775 0.960 . S
C3788 C3787 1.524 . S
C3789 C3786 1.403 . S
C3789 C3790 1.392 . S
C3789 C3793 1.495 . S
C3790 C3789 1.392 . S
C3790 C3791 1.385 . S
C3790 C3792 1.478 . S
C3791 H3785 0.930 . S
C3791 C3787 1.400 . S
C3791 C3790 1.385 . S
C3792 C3790 1.478 . S
C3792 C3794 1.381 . S
C3792 C3798 1.383 . S
C3793 C3789 1.495 . S
C3793 H3799 0.959 . S
C3793 H3800 0.961 . S
C3793 H3801 0.960 . S
C3794 C3792 1.381 . S
C3794 C3795 1.394 . S
C3794 H3802 0.930 . S
C3795 C3794 1.394 . S
C3795 C3796 1.383 . S
C3795 H3803 0.929 . S
C3796 C3795 1.383 . S
C3796 C3797 1.377 . S
C3797 H3781 0.930 . S
C3797 C3796 1.377 . S
C3797 C3798 1.379 . S
C3798 H3782 0.931 . S
C3798 C3792 1.383 . S
C3798 C3797 1.379 . S
H3799 C3793 0.959 . S
H3800 C3793 0.961 . S
H3801 C3793 0.960 . S
H3802 C3794 0.930 . S
H3803 C3795 0.929 . S
H3804 C3812 0.929 . S
H3805 C3814 0.930 . S
H3806 C3816 0.930 . S
H3807 C3819 0.929 . S
H3808 C3822 0.930 . S
H3809 C3824 0.960 . S
H3810 C3824 0.960 . S
H3811 C3824 0.960 . S
C3812 H3804 0.929 . S
C3812 C3813 1.377 . S
C3812 C3814 1.384 . S
C3813 C3812 1.377 . S
C3813 C3819 1.390 . S
C3814 H3805 0.930 . S
C3814 C3812 1.384 . S
C3814 C3815 1.372 . S
C3815 C3814 1.372 . S
C3815 C3816 1.400 . S
C3815 C3820 1.490 . S
C3816 H3806 0.930 . S
C3816 C3815 1.400 . S
C3816 C3819 1.386 . S
H3817 C3833 0.930 . S
H3818 C3834 0.931 . S
C3819 H3807 0.929 . S
C3819 C3813 1.390 . S
C3819 C3816 1.386 . S
C3820 C3815 1.490 . S
C3820 C3822 1.395 . S
C3820 C3823 1.403 . S
H3821 C3827 0.930 . S
C3822 H3808 0.930 . S
C3822 C3820 1.395 . S
C3822 C3825 1.403 . S
C3823 C3820 1.403 . S
C3823 C3824 1.524 . S
C3823 C3827 1.400 . S
C3824 H3809 0.960 . S
C3824 H3810 0.960 . S
C3824 H3811 0.960 . S
C3824 C3823 1.524 . S
C3825 C3822 1.403 . S
C3825 C3826 1.392 . S
C3825 C3829 1.495 . S
C3826 C3825 1.392 . S
C3826 C3827 1.385 . S
C3826 C3828 1.478 . S
C3827 H3821 0.930 . S
C3827 C3823 1.400 . S
C3827 C3826 1.385 . S
C3828 C3826 1.478 . S
C3828 C3830 1.381 . S
C3828 C3834 1.383 . S
C3829 C3825 1.495 . S
C3829 H3835 0.959 . S
C3829 H3836 0.961 . S
C3829 H3837 0.960 . S
C3830 C3828 1.381 . S
C3830 C3831 1.394 . S
C3830 H3838 0.930 . S
C3831 C3830 1.394 . S
C3831 C3832 1.383 . S
C3831 H3839 0.929 . S
C3832 C3831 1.383 . S
C3832 C3833 1.377 . S
C3833 H3817 0.930 . S
C3833 C3832 1.377 . S
C3833 C3834 1.379 . S
C3834 H3818 0.931 . S
C3834 C3828 1.383 . S
C3834 C3833 1.379 . S
H3835 C3829 0.959 . S
H3836 C3829 0.961 . S
H3837 C3829 0.960 . S
H3838 C3830 0.930 . S
H3839 C3831 0.929 . S
H3840 C3848 0.929 . S
H3841 C3850 0.930 . S
H3842 C3852 0.930 . S
H3843 C3855 0.929 . S
H3844 C3858 0.930 . S
H3845 C3860 0.960 . S
H3846 C3860 0.960 . S
H3847 C3860 0.960 . S
C3848 H3840 0.929 . S
C3848 C3849 1.377 . S
C3848 C3850 1.384 . S
C3849 C3848 1.377 . S
C3849 C3855 1.390 . S
C3850 H3841 0.930 . S
C3850 C3848 1.384 . S
C3850 C3851 1.372 . S
C3851 C3850 1.372 . S
C3851 C3852 1.400 . S
C3851 C3856 1.490 . S
C3852 H3842 0.930 . S
C3852 C3851 1.400 . S
C3852 C3855 1.386 . S
H3853 C3869 0.930 . S
H3854 C3870 0.931 . S
C3855 H3843 0.929 . S
C3855 C3849 1.390 . S
C3855 C3852 1.386 . S
C3856 C3851 1.490 . S
C3856 C3858 1.395 . S
C3856 C3859 1.403 . S
H3857 C3863 0.930 . S
C3858 H3844 0.930 . S
C3858 C3856 1.395 . S
C3858 C3861 1.403 . S
C3859 C3856 1.403 . S
C3859 C3860 1.524 . S
C3859 C3863 1.400 . S
C3860 H3845 0.960 . S
C3860 H3846 0.960 . S
C3860 H3847 0.960 . S
C3860 C3859 1.524 . S
C3861 C3858 1.403 . S
C3861 C3862 1.392 . S
C3861 C3865 1.495 . S
C3862 C3861 1.392 . S
C3862 C3863 1.385 . S
C3862 C3864 1.478 . S
C3863 H3857 0.930 . S
C3863 C3859 1.400 . S
C3863 C3862 1.385 . S
C3864 C3862 1.478 . S
C3864 C3866 1.381 . S
C3864 C3870 1.383 . S
C3865 C3861 1.495 . S
C3865 H3871 0.959 . S
C3865 H3872 0.961 . S
C3865 H3873 0.960 . S
C3866 C3864 1.381 . S
C3866 C3867 1.394 . S
C3866 H3874 0.930 . S
C3867 C3866 1.394 . S
C3867 C3868 1.383 . S
C3867 H3875 0.929 . S
C3868 C3867 1.383 . S
C3868 C3869 1.377 . S
C3869 H3853 0.930 . S
C3869 C3868 1.377 . S
C3869 C3870 1.379 . S
C3870 H3854 0.931 . S
C3870 C3864 1.383 . S
C3870 C3869 1.379 . S
H3871 C3865 0.959 . S
H3872 C3865 0.961 . S
H3873 C3865 0.960 . S
H3874 C3866 0.930 . S
H3875 C3867 0.929 . S
H3876 C3884 0.929 . S
H3877 C3886 0.930 . S
H3878 C3888 0.930 . S
H3879 C3891 0.929 . S
H3880 C3894 0.930 . S
H3881 C3896 0.960 . S
H3882 C3896 0.960 . S
H3883 C3896 0.960 . S
C3884 H3876 0.929 . S
C3884 C3885 1.377 . S
C3884 C3886 1.384 . S
C3885 C3884 1.377 . S
C3885 C3891 1.390 . S
C3886 H3877 0.930 . S
C3886 C3884 1.384 . S
C3886 C3887 1.372 . S
C3887 C3886 1.372 . S
C3887 C3888 1.400 . S
C3887 C3892 1.490 . S
C3888 H3878 0.930 . S
C3888 C3887 1.400 . S
C3888 C3891 1.386 . S
H3889 C3905 0.930 . S
H3890 C3906 0.931 . S
C3891 H3879 0.929 . S
C3891 C3885 1.390 . S
C3891 C3888 1.386 . S
C3892 C3887 1.490 . S
C3892 C3894 1.395 . S
C3892 C3895 1.403 . S
H3893 C3899 0.930 . S
C3894 H3880 0.930 . S
C3894 C3892 1.395 . S
C3894 C3897 1.403 . S
C3895 C3892 1.403 . S
C3895 C3896 1.524 . S
C3895 C3899 1.400 . S
C3896 H3881 0.960 . S
C3896 H3882 0.960 . S
C3896 H3883 0.960 . S
C3896 C3895 1.524 . S
C3897 C3894 1.403 . S
C3897 C3898 1.392 . S
C3897 C3901 1.495 . S
C3898 C3897 1.392 . S
C3898 C3899 1.385 . S
C3898 C3900 1.478 . S
C3899 H3893 0.930 . S
C3899 C3895 1.400 . S
C3899 C3898 1.385 . S
C3900 C3898 1.478 . S
C3900 C3902 1.381 . S
C3900 C3906 1.383 . S
C3901 C3897 1.495 . S
C3901 H3907 0.959 . S
C3901 H3908 0.961 . S
C3901 H3909 0.960 . S
C3902 C3900 1.381 . S
C3902 C3903 1.394 . S
C3902 H3910 0.930 . S
C3903 C3902 1.394 . S
C3903 C3904 1.383 . S
C3903 H3911 0.929 . S
C3904 C3903 1.383 . S
C3904 C3905 1.377 . S
C3905 H3889 0.930 . S
C3905 C3904 1.377 . S
C3905 C3906 1.379 . S
C3906 H3890 0.931 . S
C3906 C3900 1.383 . S
C3906 C3905 1.379 . S
H3907 C3901 0.959 . S
H3908 C3901 0.961 . S
H3909 C3901 0.960 . S
H3910 C3902 0.930 . S
H3911 C3903 0.929 . S
H3912 C3920 0.929 . S
H3913 C3922 0.930 . S
H3914 C3924 0.930 . S
H3915 C3927 0.929 . S
H3916 C3930 0.930 . S
H3917 C3932 0.960 . S
H3918 C3932 0.960 . S
H3919 C3932 0.960 . S
C3920 H3912 0.929 . S
C3920 C3921 1.377 . S
C3920 C3922 1.384 . S
C3921 C3920 1.377 . S
C3921 C3927 1.390 . S
C3922 H3913 0.930 . S
C3922 C3920 1.384 . S
C3922 C3923 1.372 . S
C3923 C3922 1.372 . S
C3923 C3924 1.400 . S
C3923 C3928 1.490 . S
C3924 H3914 0.930 . S
C3924 C3923 1.400 . S
C3924 C3927 1.386 . S
H3925 C3941 0.930 . S
H3926 C3942 0.931 . S
C3927 H3915 0.929 . S
C3927 C3921 1.390 . S
C3927 C3924 1.386 . S
C3928 C3923 1.490 . S
C3928 C3930 1.395 . S
C3928 C3931 1.403 . S
H3929 C3935 0.930 . S
C3930 H3916 0.930 . S
C3930 C3928 1.395 . S
C3930 C3933 1.403 . S
C3931 C3928 1.403 . S
C3931 C3932 1.524 . S
C3931 C3935 1.400 . S
C3932 H3917 0.960 . S
C3932 H3918 0.960 . S
C3932 H3919 0.960 . S
C3932 C3931 1.524 . S
C3933 C3930 1.403 . S
C3933 C3934 1.392 . S
C3933 C3937 1.495 . S
C3934 C3933 1.392 . S
C3934 C3935 1.385 . S
C3934 C3936 1.478 . S
C3935 H3929 0.930 . S
C3935 C3931 1.400 . S
C3935 C3934 1.385 . S
C3936 C3934 1.478 . S
C3936 C3938 1.381 . S
C3936 C3942 1.383 . S
C3937 C3933 1.495 . S
C3937 H3943 0.959 . S
C3937 H3944 0.961 . S
C3937 H3945 0.960 . S
C3938 C3936 1.381 . S
C3938 C3939 1.394 . S
C3938 H3946 0.930 . S
C3939 C3938 1.394 . S
C3939 C3940 1.383 . S
C3939 H3947 0.929 . S
C3940 C3939 1.383 . S
C3940 C3941 1.377 . S
C3941 H3925 0.930 . S
C3941 C3940 1.377 . S
C3941 C3942 1.379 . S
C3942 H3926 0.931 . S
C3942 C3936 1.383 . S
C3942 C3941 1.379 . S
H3943 C3937 0.959 . S
H3944 C3937 0.961 . S
H3945 C3937 0.960 . S
H3946 C3938 0.930 . S
H3947 C3939 0.929 . S
H3948 C3956 0.929 . S
H3949 C3958 0.930 . S
H3950 C3960 0.930 . S
H3951 C3963 0.929 . S
H3952 C3966 0.930 . S
H3953 C3968 0.960 . S
H3954 C3968 0.960 . S
H3955 C3968 0.960 . S
C3956 H3948 0.929 . S
C3956 C3957 1.377 . S
C3956 C3958 1.384 . S
C3957 C3956 1.377 . S
C3957 C3963 1.390 . S
C3958 H3949 0.930 . S
C3958 C3956 1.384 . S
C3958 C3959 1.372 . S
C3959 C3958 1.372 . S
C3959 C3960 1.400 . S
C3959 C3964 1.490 . S
C3960 H3950 0.930 . S
C3960 C3959 1.400 . S
C3960 C3963 1.386 . S
H3961 C3977 0.930 . S
H3962 C3978 0.931 . S
C3963 H3951 0.929 . S
C3963 C3957 1.390 . S
C3963 C3960 1.386 . S
C3964 C3959 1.490 . S
C3964 C3966 1.395 . S
C3964 C3967 1.403 . S
H3965 C3971 0.930 . S
C3966 H3952 0.930 . S
C3966 C3964 1.395 . S
C3966 C3969 1.403 . S
C3967 C3964 1.403 . S
C3967 C3968 1.524 . S
C3967 C3971 1.400 . S
C3968 H3953 0.960 . S
C3968 H3954 0.960 . S
C3968 H3955 0.960 . S
C3968 C3967 1.524 . S
C3969 C3966 1.403 . S
C3969 C3970 1.392 . S
C3969 C3973 1.495 . S
C3970 C3969 1.392 . S
C3970 C3971 1.385 . S
C3970 C3972 1.478 . S
C3971 H3965 0.930 . S
C3971 C3967 1.400 . S
C3971 C3970 1.385 . S
C3972 C3970 1.478 . S
C3972 C3974 1.381 . S
C3972 C3978 1.383 . S
C3973 C3969 1.495 . S
C3973 H3979 0.959 . S
C3973 H3980 0.961 . S
C3973 H3981 0.960 . S
C3974 C3972 1.381 . S
C3974 C3975 1.394 . S
C3974 H3982 0.930 . S
C3975 C3974 1.394 . S
C3975 C3976 1.383 . S
C3975 H3983 0.929 . S
C3976 C3975 1.383 . S
C3976 C3977 1.377 . S
C3977 H3961 0.930 . S
C3977 C3976 1.377 . S
C3977 C3978 1.379 . S
C3978 H3962 0.931 . S
C3978 C3972 1.383 . S
C3978 C3977 1.379 . S
H3979 C3973 0.959 . S
H3980 C3973 0.961 . S
H3981 C3973 0.960 . S
H3982 C3974 0.930 . S
H3983 C3975 0.929 . S
H3984 C3992 0.929 . S
H3985 C3994 0.930 . S
H3986 C3996 0.930 . S
H3987 C3999 0.929 . S
H3988 C4002 0.930 . S
H3989 C4004 0.960 . S
H3990 C4004 0.960 . S
H3991 C4004 0.960 . S
C3992 H3984 0.929 . S
C3992 C3993 1.377 . S
C3992 C3994 1.384 . S
C3993 C3992 1.377 . S
C3993 C3999 1.390 . S
C3994 H3985 0.930 . S
C3994 C3992 1.384 . S
C3994 C3995 1.372 . S
C3995 C3994 1.372 . S
C3995 C3996 1.400 . S
C3995 C4000 1.490 . S
C3996 H3986 0.930 . S
C3996 C3995 1.400 . S
C3996 C3999 1.386 . S
H3997 C4013 0.930 . S
H3998 C4014 0.931 . S
C3999 H3987 0.929 . S
C3999 C3993 1.390 . S
C3999 C3996 1.386 . S
C4000 C3995 1.490 . S
C4000 C4002 1.395 . S
C4000 C4003 1.403 . S
H4001 C4007 0.930 . S
C4002 H3988 0.930 . S
C4002 C4000 1.395 . S
C4002 C4005 1.403 . S
C4003 C4000 1.403 . S
C4003 C4004 1.524 . S
C4003 C4007 1.400 . S
C4004 H3989 0.960 . S
C4004 H3990 0.960 . S
C4004 H3991 0.960 . S
C4004 C4003 1.524 . S
C4005 C4002 1.403 . S
C4005 C4006 1.392 . S
C4005 C4009 1.495 . S
C4006 C4005 1.392 . S
C4006 C4007 1.385 . S
C4006 C4008 1.478 . S
C4007 H4001 0.930 . S
C4007 C4003 1.400 . S
C4007 C4006 1.385 . S
C4008 C4006 1.478 . S
C4008 C4010 1.381 . S
C4008 C4014 1.383 . S
C4009 C4005 1.495 . S
C4009 H4015 0.959 . S
C4009 H4016 0.961 . S
C4009 H4017 0.960 . S
C4010 C4008 1.381 . S
C4010 C4011 1.394 . S
C4010 H4018 0.930 . S
C4011 C4010 1.394 . S
C4011 C4012 1.383 . S
C4011 H4019 0.929 . S
C4012 C4011 1.383 . S
C4012 C4013 1.377 . S
C4013 H3997 0.930 . S
C4013 C4012 1.377 . S
C4013 C4014 1.379 . S
C4014 H3998 0.931 . S
C4014 C4008 1.383 . S
C4014 C4013 1.379 . S
H4015 C4009 0.959 . S
H4016 C4009 0.961 . S
H4017 C4009 0.960 . S
H4018 C4010 0.930 . S
H4019 C4011 0.929 . S
H4020 C4028 0.929 . S
H4021 C4030 0.930 . S
H4022 C4032 0.930 . S
H4023 C4035 0.929 . S
H4024 C4038 0.930 . S
H4025 C4040 0.960 . S
H4026 C4040 0.960 . S
H4027 C4040 0.960 . S
C4028 H4020 0.929 . S
C4028 C4029 1.377 . S
C4028 C4030 1.384 . S
C4029 C4028 1.377 . S
C4029 C4035 1.390 . S
C4030 H4021 0.930 . S
C4030 C4028 1.384 . S
C4030 C4031 1.372 . S
C4031 C4030 1.372 . S
C4031 C4032 1.400 . S
C4031 C4036 1.490 . S
C4032 H4022 0.930 . S
C4032 C4031 1.400 . S
C4032 C4035 1.386 . S
H4033 C4049 0.930 . S
H4034 C4050 0.931 . S
C4035 H4023 0.929 . S
C4035 C4029 1.390 . S
C4035 C4032 1.386 . S
C4036 C4031 1.490 . S
C4036 C4038 1.395 . S
C4036 C4039 1.403 . S
H4037 C4043 0.930 . S
C4038 H4024 0.930 . S
C4038 C4036 1.395 . S
C4038 C4041 1.403 . S
C4039 C4036 1.403 . S
C4039 C4040 1.524 . S
C4039 C4043 1.400 . S
C4040 H4025 0.960 . S
C4040 H4026 0.960 . S
C4040 H4027 0.960 . S
C4040 C4039 1.524 . S
C4041 C4038 1.403 . S
C4041 C4042 1.392 . S
C4041 C4045 1.495 . S
C4042 C4041 1.392 . S
C4042 C4043 1.385 . S
C4042 C4044 1.478 . S
C4043 H4037 0.930 . S
C4043 C4039 1.400 . S
C4043 C4042 1.385 . S
C4044 C4042 1.478 . S
C4044 C4046 1.381 . S
C4044 C4050 1.383 . S
C4045 C4041 1.495 . S
C4045 H4051 0.959 . S
C4045 H4052 0.961 . S
C4045 H4053 0.960 . S
C4046 C4044 1.381 . S
C4046 C4047 1.394 . S
C4046 H4054 0.930 . S
C4047 C4046 1.394 . S
C4047 C4048 1.383 . S
C4047 H4055 0.929 . S
C4048 C4047 1.383 . S
C4048 C4049 1.377 . S
C4049 H4033 0.930 . S
C4049 C4048 1.377 . S
C4049 C4050 1.379 . S
C4050 H4034 0.931 . S
C4050 C4044 1.383 . S
C4050 C4049 1.379 . S
H4051 C4045 0.959 . S
H4052 C4045 0.961 . S
H4053 C4045 0.960 . S
H4054 C4046 0.930 . S
H4055 C4047 0.929 . S
H4056 C4064 0.929 . S
H4057 C4066 0.930 . S
H4058 C4068 0.930 . S
H4059 C4071 0.929 . S
H4060 C4074 0.930 . S
H4061 C4076 0.960 . S
H4062 C4076 0.960 . S
H4063 C4076 0.960 . S
C4064 H4056 0.929 . S
C4064 C4065 1.377 . S
C4064 C4066 1.384 . S
C4065 C4064 1.377 . S
C4065 C4071 1.390 . S
C4066 H4057 0.930 . S
C4066 C4064 1.384 . S
C4066 C4067 1.372 . S
C4067 C4066 1.372 . S
C4067 C4068 1.400 . S
C4067 C4072 1.490 . S
C4068 H4058 0.930 . S
C4068 C4067 1.400 . S
C4068 C4071 1.386 . S
H4069 C4085 0.930 . S
H4070 C4086 0.931 . S
C4071 H4059 0.929 . S
C4071 C4065 1.390 . S
C4071 C4068 1.386 . S
C4072 C4067 1.490 . S
C4072 C4074 1.395 . S
C4072 C4075 1.403 . S
H4073 C4079 0.930 . S
C4074 H4060 0.930 . S
C4074 C4072 1.395 . S
C4074 C4077 1.403 . S
C4075 C4072 1.403 . S
C4075 C4076 1.524 . S
C4075 C4079 1.400 . S
C4076 H4061 0.960 . S
C4076 H4062 0.960 . S
C4076 H4063 0.960 . S
C4076 C4075 1.524 . S
C4077 C4074 1.403 . S
C4077 C4078 1.392 . S
C4077 C4081 1.495 . S
C4078 C4077 1.392 . S
C4078 C4079 1.385 . S
C4078 C4080 1.478 . S
C4079 H4073 0.930 . S
C4079 C4075 1.400 . S
C4079 C4078 1.385 . S
C4080 C4078 1.478 . S
C4080 C4082 1.381 . S
C4080 C4086 1.383 . S
C4081 C4077 1.495 . S
C4081 H4087 0.959 . S
C4081 H4088 0.961 . S
C4081 H4089 0.960 . S
C4082 C4080 1.381 . S
C4082 C4083 1.394 . S
C4082 H4090 0.930 . S
C4083 C4082 1.394 . S
C4083 C4084 1.383 . S
C4083 H4091 0.929 . S
C4084 C4083 1.383 . S
C4084 C4085 1.377 . S
C4085 H4069 0.930 . S
C4085 C4084 1.377 . S
C4085 C4086 1.379 . S
C4086 H4070 0.931 . S
C4086 C4080 1.383 . S
C4086 C4085 1.379 . S
H4087 C4081 0.959 . S
H4088 C4081 0.961 . S
H4089 C4081 0.960 . S
H4090 C4082 0.930 . S
H4091 C4083 0.929 . S
H4092 C4100 0.929 . S
H4093 C4102 0.930 . S
H4094 C4104 0.930 . S
H4095 C4107 0.929 . S
H4096 C4110 0.929 1_556 S
H4097 C4112 0.960 . S
H4098 C4112 0.960 1_565 S
H4099 C4112 0.960 . S
C4100 H4092 0.929 . S
C4100 C4101 1.377 . S
C4100 C4102 1.384 . S
C4101 C4100 1.377 . S
C4101 C4107 1.390 1_554 S
C4102 H4093 0.930 . S
C4102 C4100 1.384 . S
C4102 C4103 1.372 . S
C4103 C4102 1.372 . S
C4103 C4104 1.400 1_554 S
C4103 C4108 1.490 . S
C4104 H4094 0.930 . S
C4104 C4103 1.400 1_556 S
C4104 C4107 1.386 . S
H4105 C4121 0.930 . S
H4106 C4122 0.931 1_545 S
C4107 H4095 0.929 . S
C4107 C4101 1.390 1_556 S
C4107 C4104 1.386 . S
C4108 C4103 1.490 . S
C4108 C4110 1.395 . S
C4108 C4111 1.403 . S
H4109 C4115 0.930 1_545 S
C4110 H4096 0.929 1_554 S
C4110 C4108 1.395 . S
C4110 C4113 1.403 . S
C4111 C4108 1.403 . S
C4111 C4112 1.524 1_565 S
C4111 C4115 1.400 . S
C4112 H4097 0.960 . S
C4112 H4098 0.960 1_545 S
C4112 H4099 0.960 . S
C4112 C4111 1.524 1_545 S
C4113 C4110 1.403 . S
C4113 C4114 1.392 . S
C4113 C4117 1.495 1_554 S
C4114 C4113 1.392 . S
C4114 C4115 1.385 . S
C4114 C4116 1.478 . S
C4115 H4109 0.930 1_565 S
C4115 C4111 1.400 . S
C4115 C4114 1.385 . S
C4116 C4114 1.478 . S
C4116 C4118 1.381 . S
C4116 C4122 1.383 1_554 S
C4117 C4113 1.495 1_556 S
C4117 H4123 0.959 . S
C4117 H4124 0.961 . S
C4117 H4125 0.960 1_556 S
C4118 C4116 1.381 . S
C4118 C4119 1.394 . S
C4118 H4126 0.930 . S
C4119 C4118 1.394 . S
C4119 C4120 1.383 1_565 S
C4119 H4127 0.929 . S
C4120 C4119 1.383 1_545 S
C4120 C4121 1.377 1_554 S
C4121 H4105 0.930 . S
C4121 C4120 1.377 1_556 S
C4121 C4122 1.379 1_545 S
C4122 H4106 0.931 1_565 S
C4122 C4116 1.383 1_556 S
C4122 C4121 1.379 1_565 S
H4123 C4117 0.959 . S
H4124 C4117 0.961 . S
H4125 C4117 0.960 1_554 S
H4126 C4118 0.930 . S
H4127 C4119 0.929 . S
H4128 C4136 0.929 . S
H4129 C4138 0.930 . S
H4130 C4140 0.930 . S
H4131 C4143 0.929 . S
H4132 C4146 0.930 . S
H4133 C4148 0.960 . S
H4134 C4148 0.960 . S
H4135 C4148 0.960 . S
C4136 H4128 0.929 . S
C4136 C4137 1.377 . S
C4136 C4138 1.384 . S
C4137 C4136 1.377 . S
C4137 C4143 1.390 . S
C4138 H4129 0.930 . S
C4138 C4136 1.384 . S
C4138 C4139 1.372 . S
C4139 C4138 1.372 . S
C4139 C4140 1.400 . S
C4139 C4144 1.490 . S
C4140 H4130 0.930 . S
C4140 C4139 1.400 . S
C4140 C4143 1.386 . S
H4141 C4157 0.930 . S
H4142 C4158 0.931 . S
C4143 H4131 0.929 . S
C4143 C4137 1.390 . S
C4143 C4140 1.386 . S
C4144 C4139 1.490 . S
C4144 C4146 1.395 . S
C4144 C4147 1.403 . S
H4145 C4151 0.930 . S
C4146 H4132 0.930 . S
C4146 C4144 1.395 . S
C4146 C4149 1.403 . S
C4147 C4144 1.403 . S
C4147 C4148 1.524 . S
C4147 C4151 1.400 . S
C4148 H4133 0.960 . S
C4148 H4134 0.960 . S
C4148 H4135 0.960 . S
C4148 C4147 1.524 . S
C4149 C4146 1.403 . S
C4149 C4150 1.392 . S
C4149 C4153 1.495 . S
C4150 C4149 1.392 . S
C4150 C4151 1.385 . S
C4150 C4152 1.478 . S
C4151 H4145 0.930 . S
C4151 C4147 1.400 . S
C4151 C4150 1.385 . S
C4152 C4150 1.478 . S
C4152 C4154 1.381 . S
C4152 C4158 1.383 . S
C4153 C4149 1.495 . S
C4153 H4159 0.959 . S
C4153 H4160 0.961 . S
C4153 H4161 0.960 . S
C4154 C4152 1.381 . S
C4154 C4155 1.394 . S
C4154 H4162 0.930 . S
C4155 C4154 1.394 . S
C4155 C4156 1.383 . S
C4155 H4163 0.929 . S
C4156 C4155 1.383 . S
C4156 C4157 1.377 . S
C4157 H4141 0.930 . S
C4157 C4156 1.377 . S
C4157 C4158 1.379 . S
C4158 H4142 0.931 . S
C4158 C4152 1.383 . S
C4158 C4157 1.379 . S
H4159 C4153 0.959 . S
H4160 C4153 0.961 . S
H4161 C4153 0.960 . S
H4162 C4154 0.930 . S
H4163 C4155 0.929 . S
H4164 C4172 0.929 . S
H4165 C4174 0.930 . S
H4166 C4176 0.930 . S
H4167 C4179 0.929 . S
H4168 C4182 0.930 . S
H4169 C4184 0.960 . S
H4170 C4184 0.960 . S
H4171 C4184 0.960 . S
C4172 H4164 0.929 . S
C4172 C4173 1.377 1_556 S
C4172 C4174 1.384 . S
C4173 C4172 1.377 1_554 S
C4173 C4179 1.390 . S
C4174 H4165 0.930 . S
C4174 C4172 1.384 . S
C4174 C4175 1.372 1_556 S
C4175 C4174 1.372 1_554 S
C4175 C4176 1.400 . S
C4175 C4180 1.490 . S
C4176 H4166 0.930 . S
C4176 C4175 1.400 . S
C4176 C4179 1.386 . S
H4177 C4193 0.930 . S
H4178 C4194 0.931 . S
C4179 H4167 0.929 . S
C4179 C4173 1.390 . S
C4179 C4176 1.386 . S
C4180 C4175 1.490 . S
C4180 C4182 1.395 1_554 S
C4180 C4183 1.403 . S
H4181 C4187 0.930 . S
C4182 H4168 0.930 . S
C4182 C4180 1.395 1_556 S
C4182 C4185 1.403 . S
C4183 C4180 1.403 . S
C4183 C4184 1.524 . S
C4183 C4187 1.400 . S
C4184 H4169 0.960 . S
C4184 H4170 0.960 . S
C4184 H4171 0.960 . S
C4184 C4183 1.524 . S
C4185 C4182 1.403 . S
C4185 C4186 1.392 1_556 S
C4185 C4189 1.495 . S
C4186 C4185 1.392 1_554 S
C4186 C4187 1.385 . S
C4186 C4188 1.478 . S
C4187 H4181 0.930 . S
C4187 C4183 1.400 . S
C4187 C4186 1.385 . S
C4188 C4186 1.478 . S
C4188 C4190 1.381 . S
C4188 C4194 1.383 . S
C4189 C4185 1.495 . S
C4189 H4195 0.959 . S
C4189 H4196 0.961 . S
C4189 H4197 0.960 . S
C4190 C4188 1.381 . S
C4190 C4191 1.394 . S
C4190 H4198 0.930 1_554 S
C4191 C4190 1.394 . S
C4191 C4192 1.383 . S
C4191 H4199 0.929 . S
C4192 C4191 1.383 . S
C4192 C4193 1.377 . S
C4193 H4177 0.930 . S
C4193 C4192 1.377 . S
C4193 C4194 1.379 . S
C4194 H4178 0.931 . S
C4194 C4188 1.383 . S
C4194 C4193 1.379 . S
H4195 C4189 0.959 . S
H4196 C4189 0.961 . S
H4197 C4189 0.960 . S
H4198 C4190 0.930 1_556 S
H4199 C4191 0.929 . S
H4200 C4208 0.929 . S
H4201 C4210 0.930 . S
H4202 C4212 0.930 . S
H4203 C4215 0.929 . S
H4204 C4218 0.930 . S
H4205 C4220 0.960 . S
H4206 C4220 0.960 . S
H4207 C4220 0.960 . S
C4208 H4200 0.929 . S
C4208 C4209 1.377 . S
C4208 C4210 1.384 . S
C4209 C4208 1.377 . S
C4209 C4215 1.390 . S
C4210 H4201 0.930 . S
C4210 C4208 1.384 . S
C4210 C4211 1.372 . S
C4211 C4210 1.372 . S
C4211 C4212 1.400 . S
C4211 C4216 1.490 . S
C4212 H4202 0.930 . S
C4212 C4211 1.400 . S
C4212 C4215 1.386 . S
H4213 C4229 0.930 . S
H4214 C4230 0.931 . S
C4215 H4203 0.929 . S
C4215 C4209 1.390 . S
C4215 C4212 1.386 . S
C4216 C4211 1.490 . S
C4216 C4218 1.395 . S
C4216 C4219 1.403 . S
H4217 C4223 0.930 . S
C4218 H4204 0.930 . S
C4218 C4216 1.395 . S
C4218 C4221 1.403 . S
C4219 C4216 1.403 . S
C4219 C4220 1.524 . S
C4219 C4223 1.400 . S
C4220 H4205 0.960 . S
C4220 H4206 0.960 . S
C4220 H4207 0.960 . S
C4220 C4219 1.524 . S
C4221 C4218 1.403 . S
C4221 C4222 1.392 . S
C4221 C4225 1.495 . S
C4222 C4221 1.392 . S
C4222 C4223 1.385 . S
C4222 C4224 1.478 . S
C4223 H4217 0.930 . S
C4223 C4219 1.400 . S
C4223 C4222 1.385 . S
C4224 C4222 1.478 . S
C4224 C4226 1.381 . S
C4224 C4230 1.383 . S
C4225 C4221 1.495 . S
C4225 H4231 0.959 . S
C4225 H4232 0.961 . S
C4225 H4233 0.960 . S
C4226 C4224 1.381 . S
C4226 C4227 1.394 . S
C4226 H4234 0.930 . S
C4227 C4226 1.394 . S
C4227 C4228 1.383 . S
C4227 H4235 0.929 . S
C4228 C4227 1.383 . S
C4228 C4229 1.377 . S
C4229 H4213 0.930 . S
C4229 C4228 1.377 . S
C4229 C4230 1.379 . S
C4230 H4214 0.931 . S
C4230 C4224 1.383 . S
C4230 C4229 1.379 . S
H4231 C4225 0.959 . S
H4232 C4225 0.961 . S
H4233 C4225 0.960 . S
H4234 C4226 0.930 . S
H4235 C4227 0.929 . S
H4236 C4244 0.929 . S
H4237 C4246 0.930 . S
H4238 C4248 0.930 . S
H4239 C4251 0.929 . S
H4240 C4254 0.930 . S
H4241 C4256 0.960 . S
H4242 C4256 0.960 . S
H4243 C4256 0.960 . S
C4244 H4236 0.929 . S
C4244 C4245 1.377 . S
C4244 C4246 1.384 . S
C4245 C4244 1.377 . S
C4245 C4251 1.390 . S
C4246 H4237 0.930 . S
C4246 C4244 1.384 . S
C4246 C4247 1.372 . S
C4247 C4246 1.372 . S
C4247 C4248 1.400 . S
C4247 C4252 1.490 . S
C4248 H4238 0.930 . S
C4248 C4247 1.400 . S
C4248 C4251 1.386 . S
H4249 C4265 0.930 . S
H4250 C4266 0.931 . S
C4251 H4239 0.929 . S
C4251 C4245 1.390 . S
C4251 C4248 1.386 . S
C4252 C4247 1.490 . S
C4252 C4254 1.395 . S
C4252 C4255 1.403 . S
H4253 C4259 0.930 . S
C4254 H4240 0.930 . S
C4254 C4252 1.395 . S
C4254 C4257 1.403 . S
C4255 C4252 1.403 . S
C4255 C4256 1.524 . S
C4255 C4259 1.400 . S
C4256 H4241 0.960 . S
C4256 H4242 0.960 . S
C4256 H4243 0.960 . S
C4256 C4255 1.524 . S
C4257 C4254 1.403 . S
C4257 C4258 1.392 . S
C4257 C4261 1.495 . S
C4258 C4257 1.392 . S
C4258 C4259 1.385 . S
C4258 C4260 1.478 . S
C4259 H4253 0.930 . S
C4259 C4255 1.400 . S
C4259 C4258 1.385 . S
C4260 C4258 1.478 . S
C4260 C4262 1.381 . S
C4260 C4266 1.383 . S
C4261 C4257 1.495 . S
C4261 H4267 0.959 . S
C4261 H4268 0.961 . S
C4261 H4269 0.960 . S
C4262 C4260 1.381 . S
C4262 C4263 1.394 . S
C4262 H4270 0.930 . S
C4263 C4262 1.394 . S
C4263 C4264 1.383 . S
C4263 H4271 0.929 . S
C4264 C4263 1.383 . S
C4264 C4265 1.377 . S
C4265 H4249 0.930 . S
C4265 C4264 1.377 . S
C4265 C4266 1.379 . S
C4266 H4250 0.931 . S
C4266 C4260 1.383 . S
C4266 C4265 1.379 . S
H4267 C4261 0.959 . S
H4268 C4261 0.961 . S
H4269 C4261 0.960 . S
H4270 C4262 0.930 . S
H4271 C4263 0.929 . S
H4272 C4280 0.929 . S
H4273 C4282 0.930 . S
H4274 C4284 0.930 . S
H4275 C4287 0.929 . S
H4276 C4290 0.930 . S
H4277 C4292 0.960 . S
H4278 C4292 0.960 . S
H4279 C4292 0.960 . S
C4280 H4272 0.929 . S
C4280 C4281 1.377 . S
C4280 C4282 1.384 . S
C4281 C4280 1.377 . S
C4281 C4287 1.390 . S
C4282 H4273 0.930 . S
C4282 C4280 1.384 . S
C4282 C4283 1.372 . S
C4283 C4282 1.372 . S
C4283 C4284 1.400 . S
C4283 C4288 1.490 . S
C4284 H4274 0.930 . S
C4284 C4283 1.400 . S
C4284 C4287 1.386 . S
H4285 C4301 0.930 . S
H4286 C4302 0.931 . S
C4287 H4275 0.929 . S
C4287 C4281 1.390 . S
C4287 C4284 1.386 . S
C4288 C4283 1.490 . S
C4288 C4290 1.395 . S
C4288 C4291 1.403 . S
H4289 C4295 0.930 . S
C4290 H4276 0.930 . S
C4290 C4288 1.395 . S
C4290 C4293 1.403 . S
C4291 C4288 1.403 . S
C4291 C4292 1.524 . S
C4291 C4295 1.400 . S
C4292 H4277 0.960 . S
C4292 H4278 0.960 . S
C4292 H4279 0.960 . S
C4292 C4291 1.524 . S
C4293 C4290 1.403 . S
C4293 C4294 1.392 . S
C4293 C4297 1.495 . S
C4294 C4293 1.392 . S
C4294 C4295 1.385 . S
C4294 C4296 1.478 . S
C4295 H4289 0.930 . S
C4295 C4291 1.400 . S
C4295 C4294 1.385 . S
C4296 C4294 1.478 . S
C4296 C4298 1.381 . S
C4296 C4302 1.383 . S
C4297 C4293 1.495 . S
C4297 H4303 0.959 . S
C4297 H4304 0.961 . S
C4297 H4305 0.960 . S
C4298 C4296 1.381 . S
C4298 C4299 1.394 . S
C4298 H4306 0.930 . S
C4299 C4298 1.394 . S
C4299 C4300 1.383 . S
C4299 H4307 0.929 . S
C4300 C4299 1.383 . S
C4300 C4301 1.377 . S
C4301 H4285 0.930 . S
C4301 C4300 1.377 . S
C4301 C4302 1.379 . S
C4302 H4286 0.931 . S
C4302 C4296 1.383 . S
C4302 C4301 1.379 . S
H4303 C4297 0.959 . S
H4304 C4297 0.961 . S
H4305 C4297 0.960 . S
H4306 C4298 0.930 . S
H4307 C4299 0.929 . S
H4308 C4316 0.929 . S
H4309 C4318 0.930 . S
H4310 C4320 0.930 . S
H4311 C4323 0.929 . S
H4312 C4326 0.930 . S
H4313 C4328 0.960 . S
H4314 C4328 0.960 . S
H4315 C4328 0.960 . S
C4316 H4308 0.929 . S
C4316 C4317 1.377 . S
C4316 C4318 1.384 . S
C4317 C4316 1.377 . S
C4317 C4323 1.390 . S
C4318 H4309 0.930 . S
C4318 C4316 1.384 . S
C4318 C4319 1.372 . S
C4319 C4318 1.372 . S
C4319 C4320 1.400 . S
C4319 C4324 1.490 . S
C4320 H4310 0.930 . S
C4320 C4319 1.400 . S
C4320 C4323 1.386 . S
H4321 C4337 0.930 . S
H4322 C4338 0.931 . S
C4323 H4311 0.929 . S
C4323 C4317 1.390 . S
C4323 C4320 1.386 . S
C4324 C4319 1.490 . S
C4324 C4326 1.395 . S
C4324 C4327 1.403 . S
H4325 C4331 0.930 . S
C4326 H4312 0.930 . S
C4326 C4324 1.395 . S
C4326 C4329 1.403 . S
C4327 C4324 1.403 . S
C4327 C4328 1.524 . S
C4327 C4331 1.400 . S
C4328 H4313 0.960 . S
C4328 H4314 0.960 . S
C4328 H4315 0.960 . S
C4328 C4327 1.524 . S
C4329 C4326 1.403 . S
C4329 C4330 1.392 . S
C4329 C4333 1.495 . S
C4330 C4329 1.392 . S
C4330 C4331 1.385 . S
C4330 C4332 1.478 . S
C4331 H4325 0.930 . S
C4331 C4327 1.400 . S
C4331 C4330 1.385 . S
C4332 C4330 1.478 . S
C4332 C4334 1.381 . S
C4332 C4338 1.383 . S
C4333 C4329 1.495 . S
C4333 H4339 0.959 . S
C4333 H4340 0.961 . S
C4333 H4341 0.960 . S
C4334 C4332 1.381 . S
C4334 C4335 1.394 . S
C4334 H4342 0.930 . S
C4335 C4334 1.394 . S
C4335 C4336 1.383 . S
C4335 H4343 0.929 . S
C4336 C4335 1.383 . S
C4336 C4337 1.377 . S
C4337 H4321 0.930 . S
C4337 C4336 1.377 . S
C4337 C4338 1.379 . S
C4338 H4322 0.931 . S
C4338 C4332 1.383 . S
C4338 C4337 1.379 . S
H4339 C4333 0.959 . S
H4340 C4333 0.961 . S
H4341 C4333 0.960 . S
H4342 C4334 0.930 . S
H4343 C4335 0.929 . S
H4344 C4352 0.929 . S
H4345 C4354 0.930 . S
H4346 C4356 0.930 . S
H4347 C4359 0.929 . S
H4348 C4362 0.930 . S
H4349 C4364 0.960 . S
H4350 C4364 0.960 . S
H4351 C4364 0.960 . S
C4352 H4344 0.929 . S
C4352 C4353 1.377 . S
C4352 C4354 1.384 . S
C4353 C4352 1.377 . S
C4353 C4359 1.390 . S
C4354 H4345 0.930 . S
C4354 C4352 1.384 . S
C4354 C4355 1.372 . S
C4355 C4354 1.372 . S
C4355 C4356 1.400 . S
C4355 C4360 1.490 . S
C4356 H4346 0.930 . S
C4356 C4355 1.400 . S
C4356 C4359 1.386 . S
H4357 C4373 0.930 . S
H4358 C4374 0.931 . S
C4359 H4347 0.929 . S
C4359 C4353 1.390 . S
C4359 C4356 1.386 . S
C4360 C4355 1.490 . S
C4360 C4362 1.395 . S
C4360 C4363 1.403 . S
H4361 C4367 0.930 . S
C4362 H4348 0.930 . S
C4362 C4360 1.395 . S
C4362 C4365 1.403 . S
C4363 C4360 1.403 . S
C4363 C4364 1.524 . S
C4363 C4367 1.400 . S
C4364 H4349 0.960 . S
C4364 H4350 0.960 . S
C4364 H4351 0.960 . S
C4364 C4363 1.524 . S
C4365 C4362 1.403 . S
C4365 C4366 1.392 . S
C4365 C4369 1.495 . S
C4366 C4365 1.392 . S
C4366 C4367 1.385 . S
C4366 C4368 1.478 . S
C4367 H4361 0.930 . S
C4367 C4363 1.400 . S
C4367 C4366 1.385 . S
C4368 C4366 1.478 . S
C4368 C4370 1.381 . S
C4368 C4374 1.383 . S
C4369 C4365 1.495 . S
C4369 H4375 0.959 . S
C4369 H4376 0.961 . S
C4369 H4377 0.960 . S
C4370 C4368 1.381 . S
C4370 C4371 1.394 . S
C4370 H4378 0.930 . S
C4371 C4370 1.394 . S
C4371 C4372 1.383 . S
C4371 H4379 0.929 . S
C4372 C4371 1.383 . S
C4372 C4373 1.377 . S
C4373 H4357 0.930 . S
C4373 C4372 1.377 . S
C4373 C4374 1.379 . S
C4374 H4358 0.931 . S
C4374 C4368 1.383 . S
C4374 C4373 1.379 . S
H4375 C4369 0.959 . S
H4376 C4369 0.961 . S
H4377 C4369 0.960 . S
H4378 C4370 0.930 . S
H4379 C4371 0.929 . S
H4380 C4388 0.929 . S
H4381 C4390 0.930 . S
H4382 C4392 0.930 . S
H4383 C4395 0.929 . S
H4384 C4398 0.930 . S
H4385 C4400 0.960 . S
H4386 C4400 0.960 . S
H4387 C4400 0.960 . S
C4388 H4380 0.929 . S
C4388 C4389 1.377 . S
C4388 C4390 1.384 . S
C4389 C4388 1.377 . S
C4389 C4395 1.390 . S
C4390 H4381 0.930 . S
C4390 C4388 1.384 . S
C4390 C4391 1.372 . S
C4391 C4390 1.372 . S
C4391 C4392 1.400 . S
C4391 C4396 1.490 . S
C4392 H4382 0.930 . S
C4392 C4391 1.400 . S
C4392 C4395 1.386 . S
H4393 C4409 0.930 . S
H4394 C4410 0.931 . S
C4395 H4383 0.929 . S
C4395 C4389 1.390 . S
C4395 C4392 1.386 . S
C4396 C4391 1.490 . S
C4396 C4398 1.395 . S
C4396 C4399 1.403 . S
H4397 C4403 0.930 . S
C4398 H4384 0.930 . S
C4398 C4396 1.395 . S
C4398 C4401 1.403 . S
C4399 C4396 1.403 . S
C4399 C4400 1.524 . S
C4399 C4403 1.400 . S
C4400 H4385 0.960 . S
C4400 H4386 0.960 . S
C4400 H4387 0.960 . S
C4400 C4399 1.524 . S
C4401 C4398 1.403 . S
C4401 C4402 1.392 . S
C4401 C4405 1.495 . S
C4402 C4401 1.392 . S
C4402 C4403 1.385 . S
C4402 C4404 1.478 . S
C4403 H4397 0.930 . S
C4403 C4399 1.400 . S
C4403 C4402 1.385 . S
C4404 C4402 1.478 . S
C4404 C4406 1.381 . S
C4404 C4410 1.383 . S
C4405 C4401 1.495 . S
C4405 H4411 0.959 . S
C4405 H4412 0.961 . S
C4405 H4413 0.960 . S
C4406 C4404 1.381 . S
C4406 C4407 1.394 . S
C4406 H4414 0.930 . S
C4407 C4406 1.394 . S
C4407 C4408 1.383 . S
C4407 H4415 0.929 . S
C4408 C4407 1.383 . S
C4408 C4409 1.377 . S
C4409 H4393 0.930 . S
C4409 C4408 1.377 . S
C4409 C4410 1.379 . S
C4410 H4394 0.931 . S
C4410 C4404 1.383 . S
C4410 C4409 1.379 . S
H4411 C4405 0.959 . S
H4412 C4405 0.961 . S
H4413 C4405 0.960 . S
H4414 C4406 0.930 . S
H4415 C4407 0.929 . S
H4416 C4424 0.929 . S
H4417 C4426 0.930 . S
H4418 C4428 0.930 . S
H4419 C4431 0.929 . S
H4420 C4434 0.930 . S
H4421 C4436 0.960 . S
H4422 C4436 0.960 . S
H4423 C4436 0.960 . S
C4424 H4416 0.929 . S
C4424 C4425 1.377 . S
C4424 C4426 1.384 . S
C4425 C4424 1.377 . S
C4425 C4431 1.390 . S
C4426 H4417 0.930 . S
C4426 C4424 1.384 . S
C4426 C4427 1.372 . S
C4427 C4426 1.372 . S
C4427 C4428 1.400 . S
C4427 C4432 1.490 . S
C4428 H4418 0.930 . S
C4428 C4427 1.400 . S
C4428 C4431 1.386 . S
H4429 C4445 0.930 . S
H4430 C4446 0.931 . S
C4431 H4419 0.929 . S
C4431 C4425 1.390 . S
C4431 C4428 1.386 . S
C4432 C4427 1.490 . S
C4432 C4434 1.395 . S
C4432 C4435 1.403 . S
H4433 C4439 0.930 . S
C4434 H4420 0.930 . S
C4434 C4432 1.395 . S
C4434 C4437 1.403 . S
C4435 C4432 1.403 . S
C4435 C4436 1.524 . S
C4435 C4439 1.400 . S
C4436 H4421 0.960 . S
C4436 H4422 0.960 . S
C4436 H4423 0.960 . S
C4436 C4435 1.524 . S
C4437 C4434 1.403 . S
C4437 C4438 1.392 . S
C4437 C4441 1.495 . S
C4438 C4437 1.392 . S
C4438 C4439 1.385 . S
C4438 C4440 1.478 . S
C4439 H4433 0.930 . S
C4439 C4435 1.400 . S
C4439 C4438 1.385 . S
C4440 C4438 1.478 . S
C4440 C4442 1.381 . S
C4440 C4446 1.383 . S
C4441 C4437 1.495 . S
C4441 H4447 0.959 . S
C4441 H4448 0.961 . S
C4441 H4449 0.960 . S
C4442 C4440 1.381 . S
C4442 C4443 1.394 . S
C4442 H4450 0.930 . S
C4443 C4442 1.394 . S
C4443 C4444 1.383 . S
C4443 H4451 0.929 . S
C4444 C4443 1.383 . S
C4444 C4445 1.377 . S
C4445 H4429 0.930 . S
C4445 C4444 1.377 . S
C4445 C4446 1.379 . S
C4446 H4430 0.931 . S
C4446 C4440 1.383 . S
C4446 C4445 1.379 . S
H4447 C4441 0.959 . S
H4448 C4441 0.961 . S
H4449 C4441 0.960 . S
H4450 C4442 0.930 . S
H4451 C4443 0.929 . S
H4452 C4460 0.929 . S
H4453 C4462 0.930 . S
H4454 C4464 0.930 . S
H4455 C4467 0.929 . S
H4456 C4470 0.930 . S
H4457 C4472 0.960 . S
H4458 C4472 0.960 . S
H4459 C4472 0.960 . S
C4460 H4452 0.929 . S
C4460 C4461 1.377 . S
C4460 C4462 1.384 . S
C4461 C4460 1.377 . S
C4461 C4467 1.390 . S
C4462 H4453 0.930 . S
C4462 C4460 1.384 . S
C4462 C4463 1.372 . S
C4463 C4462 1.372 . S
C4463 C4464 1.400 . S
C4463 C4468 1.490 . S
C4464 H4454 0.930 . S
C4464 C4463 1.400 . S
C4464 C4467 1.386 . S
H4465 C4481 0.930 . S
H4466 C4482 0.931 . S
C4467 H4455 0.929 . S
C4467 C4461 1.390 . S
C4467 C4464 1.386 . S
C4468 C4463 1.490 . S
C4468 C4470 1.395 . S
C4468 C4471 1.403 . S
H4469 C4475 0.930 . S
C4470 H4456 0.930 . S
C4470 C4468 1.395 . S
C4470 C4473 1.403 . S
C4471 C4468 1.403 . S
C4471 C4472 1.524 . S
C4471 C4475 1.400 . S
C4472 H4457 0.960 . S
C4472 H4458 0.960 . S
C4472 H4459 0.960 . S
C4472 C4471 1.524 . S
C4473 C4470 1.403 . S
C4473 C4474 1.392 . S
C4473 C4477 1.495 . S
C4474 C4473 1.392 . S
C4474 C4475 1.385 . S
C4474 C4476 1.478 . S
C4475 H4469 0.930 . S
C4475 C4471 1.400 . S
C4475 C4474 1.385 . S
C4476 C4474 1.478 . S
C4476 C4478 1.381 . S
C4476 C4482 1.383 . S
C4477 C4473 1.495 . S
C4477 H4483 0.959 . S
C4477 H4484 0.961 . S
C4477 H4485 0.960 . S
C4478 C4476 1.381 . S
C4478 C4479 1.394 . S
C4478 H4486 0.930 . S
C4479 C4478 1.394 . S
C4479 C4480 1.383 . S
C4479 H4487 0.929 . S
C4480 C4479 1.383 . S
C4480 C4481 1.377 . S
C4481 H4465 0.930 . S
C4481 C4480 1.377 . S
C4481 C4482 1.379 . S
C4482 H4466 0.931 . S
C4482 C4476 1.383 . S
C4482 C4481 1.379 . S
H4483 C4477 0.959 . S
H4484 C4477 0.961 . S
H4485 C4477 0.960 . S
H4486 C4478 0.930 . S
H4487 C4479 0.929 . S
H4488 C4496 0.929 . S
H4489 C4498 0.930 . S
H4490 C4500 0.930 . S
H4491 C4503 0.929 . S
H4492 C4506 0.930 . S
H4493 C4508 0.960 1_655 S
H4494 C4508 0.960 1_655 S
H4495 C4508 0.960 . S
C4496 H4488 0.929 . S
C4496 C4497 1.377 . S
C4496 C4498 1.384 . S
C4497 C4496 1.377 . S
C4497 C4503 1.390 . S
C4498 H4489 0.930 . S
C4498 C4496 1.384 . S
C4498 C4499 1.372 . S
C4499 C4498 1.372 . S
C4499 C4500 1.400 . S
C4499 C4504 1.490 . S
C4500 H4490 0.930 . S
C4500 C4499 1.400 . S
C4500 C4503 1.386 . S
H4501 C4517 0.930 . S
H4502 C4518 0.931 . S
C4503 H4491 0.929 . S
C4503 C4497 1.390 . S
C4503 C4500 1.386 . S
C4504 C4499 1.490 . S
C4504 C4506 1.395 . S
C4504 C4507 1.403 . S
H4505 C4511 0.930 . S
C4506 H4492 0.930 . S
C4506 C4504 1.395 . S
C4506 C4509 1.403 . S
C4507 C4504 1.403 . S
C4507 C4508 1.524 . S
C4507 C4511 1.400 . S
C4508 H4493 0.960 1_455 S
C4508 H4494 0.960 1_455 S
C4508 H4495 0.960 . S
C4508 C4507 1.524 . S
C4509 C4506 1.403 . S
C4509 C4510 1.392 . S
C4509 C4513 1.495 . S
C4510 C4509 1.392 . S
C4510 C4511 1.385 . S
C4510 C4512 1.478 . S
C4511 H4505 0.930 . S
C4511 C4507 1.400 . S
C4511 C4510 1.385 . S
C4512 C4510 1.478 . S
C4512 C4514 1.381 . S
C4512 C4518 1.383 . S
C4513 C4509 1.495 . S
C4513 H4519 0.959 . S
C4513 H4520 0.961 . S
C4513 H4521 0.960 . S
C4514 C4512 1.381 . S
C4514 C4515 1.394 . S
C4514 H4522 0.930 . S
C4515 C4514 1.394 . S
C4515 C4516 1.383 . S
C4515 H4523 0.929 . S
C4516 C4515 1.383 . S
C4516 C4517 1.377 . S
C4517 H4501 0.930 . S
C4517 C4516 1.377 . S
C4517 C4518 1.379 . S
C4518 H4502 0.931 . S
C4518 C4512 1.383 . S
C4518 C4517 1.379 . S
H4519 C4513 0.959 . S
H4520 C4513 0.961 . S
H4521 C4513 0.960 . S
H4522 C4514 0.930 . S
H4523 C4515 0.929 . S
H4524 C4532 0.929 . S
H4525 C4534 0.930 . S
H4526 C4536 0.930 . S
H4527 C4539 0.929 . S
H4528 C4542 0.930 . S
H4529 C4544 0.960 . S
H4530 C4544 0.960 . S
H4531 C4544 0.960 . S
C4532 H4524 0.929 . S
C4532 C4533 1.377 . S
C4532 C4534 1.384 . S
C4533 C4532 1.377 . S
C4533 C4539 1.390 . S
C4534 H4525 0.930 . S
C4534 C4532 1.384 . S
C4534 C4535 1.372 . S
C4535 C4534 1.372 . S
C4535 C4536 1.400 . S
C4535 C4540 1.490 . S
C4536 H4526 0.930 . S
C4536 C4535 1.400 . S
C4536 C4539 1.386 . S
H4537 C4553 0.930 . S
H4538 C4554 0.931 . S
C4539 H4527 0.929 . S
C4539 C4533 1.390 . S
C4539 C4536 1.386 . S
C4540 C4535 1.490 . S
C4540 C4542 1.395 . S
C4540 C4543 1.403 . S
H4541 C4547 0.930 . S
C4542 H4528 0.930 . S
C4542 C4540 1.395 . S
C4542 C4545 1.403 . S
C4543 C4540 1.403 . S
C4543 C4544 1.524 . S
C4543 C4547 1.400 . S
C4544 H4529 0.960 . S
C4544 H4530 0.960 . S
C4544 H4531 0.960 . S
C4544 C4543 1.524 . S
C4545 C4542 1.403 . S
C4545 C4546 1.392 . S
C4545 C4549 1.495 . S
C4546 C4545 1.392 . S
C4546 C4547 1.385 . S
C4546 C4548 1.478 . S
C4547 H4541 0.930 . S
C4547 C4543 1.400 . S
C4547 C4546 1.385 . S
C4548 C4546 1.478 . S
C4548 C4550 1.381 . S
C4548 C4554 1.383 . S
C4549 C4545 1.495 . S
C4549 H4555 0.959 . S
C4549 H4556 0.961 . S
C4549 H4557 0.960 . S
C4550 C4548 1.381 . S
C4550 C4551 1.394 . S
C4550 H4558 0.930 . S
C4551 C4550 1.394 . S
C4551 C4552 1.383 . S
C4551 H4559 0.929 . S
C4552 C4551 1.383 . S
C4552 C4553 1.377 . S
C4553 H4537 0.930 . S
C4553 C4552 1.377 . S
C4553 C4554 1.379 . S
C4554 H4538 0.931 . S
C4554 C4548 1.383 . S
C4554 C4553 1.379 . S
H4555 C4549 0.959 . S
H4556 C4549 0.961 . S
H4557 C4549 0.960 . S
H4558 C4550 0.930 . S
H4559 C4551 0.929 . S
H4560 C4568 0.929 . S
H4561 C4570 0.930 . S
H4562 C4572 0.930 . S
H4563 C4575 0.929 . S
H4564 C4578 0.930 . S
H4565 C4580 0.960 . S
H4566 C4580 0.960 . S
H4567 C4580 0.960 . S
C4568 H4560 0.929 . S
C4568 C4569 1.377 . S
C4568 C4570 1.384 . S
C4569 C4568 1.377 . S
C4569 C4575 1.390 . S
C4570 H4561 0.930 . S
C4570 C4568 1.384 . S
C4570 C4571 1.372 . S
C4571 C4570 1.372 . S
C4571 C4572 1.400 . S
C4571 C4576 1.490 . S
C4572 H4562 0.930 . S
C4572 C4571 1.400 . S
C4572 C4575 1.386 . S
H4573 C4589 0.930 . S
H4574 C4590 0.931 . S
C4575 H4563 0.929 . S
C4575 C4569 1.390 . S
C4575 C4572 1.386 . S
C4576 C4571 1.490 . S
C4576 C4578 1.395 . S
C4576 C4579 1.403 . S
H4577 C4583 0.930 . S
C4578 H4564 0.930 . S
C4578 C4576 1.395 . S
C4578 C4581 1.403 . S
C4579 C4576 1.403 . S
C4579 C4580 1.524 . S
C4579 C4583 1.400 . S
C4580 H4565 0.960 . S
C4580 H4566 0.960 . S
C4580 H4567 0.960 . S
C4580 C4579 1.524 . S
C4581 C4578 1.403 . S
C4581 C4582 1.392 . S
C4581 C4585 1.495 . S
C4582 C4581 1.392 . S
C4582 C4583 1.385 . S
C4582 C4584 1.478 . S
C4583 H4577 0.930 . S
C4583 C4579 1.400 . S
C4583 C4582 1.385 . S
C4584 C4582 1.478 . S
C4584 C4586 1.381 . S
C4584 C4590 1.383 . S
C4585 C4581 1.495 . S
C4585 H4591 0.959 . S
C4585 H4592 0.961 . S
C4585 H4593 0.960 . S
C4586 C4584 1.381 . S
C4586 C4587 1.394 . S
C4586 H4594 0.930 . S
C4587 C4586 1.394 . S
C4587 C4588 1.383 . S
C4587 H4595 0.929 . S
C4588 C4587 1.383 . S
C4588 C4589 1.377 . S
C4589 H4573 0.930 . S
C4589 C4588 1.377 . S
C4589 C4590 1.379 . S
C4590 H4574 0.931 . S
C4590 C4584 1.383 . S
C4590 C4589 1.379 . S
H4591 C4585 0.959 . S
H4592 C4585 0.961 . S
H4593 C4585 0.960 . S
H4594 C4586 0.930 . S
H4595 C4587 0.929 . S
H4596 C4604 0.929 . S
H4597 C4606 0.930 . S
H4598 C4608 0.930 . S
H4599 C4611 0.929 . S
H4600 C4614 0.930 . S
H4601 C4616 0.960 . S
H4602 C4616 0.960 . S
H4603 C4616 0.960 . S
C4604 H4596 0.929 . S
C4604 C4605 1.377 . S
C4604 C4606 1.384 . S
C4605 C4604 1.377 . S
C4605 C4611 1.390 . S
C4606 H4597 0.930 . S
C4606 C4604 1.384 . S
C4606 C4607 1.372 . S
C4607 C4606 1.372 . S
C4607 C4608 1.400 . S
C4607 C4612 1.490 . S
C4608 H4598 0.930 . S
C4608 C4607 1.400 . S
C4608 C4611 1.386 . S
H4609 C4625 0.930 . S
H4610 C4626 0.931 . S
C4611 H4599 0.929 . S
C4611 C4605 1.390 . S
C4611 C4608 1.386 . S
C4612 C4607 1.490 . S
C4612 C4614 1.395 . S
C4612 C4615 1.403 . S
H4613 C4619 0.930 . S
C4614 H4600 0.930 . S
C4614 C4612 1.395 . S
C4614 C4617 1.403 . S
C4615 C4612 1.403 . S
C4615 C4616 1.524 . S
C4615 C4619 1.400 . S
C4616 H4601 0.960 . S
C4616 H4602 0.960 . S
C4616 H4603 0.960 . S
C4616 C4615 1.524 . S
C4617 C4614 1.403 . S
C4617 C4618 1.392 . S
C4617 C4621 1.495 . S
C4618 C4617 1.392 . S
C4618 C4619 1.385 . S
C4618 C4620 1.478 . S
C4619 H4613 0.930 . S
C4619 C4615 1.400 . S
C4619 C4618 1.385 . S
C4620 C4618 1.478 . S
C4620 C4622 1.381 . S
C4620 C4626 1.383 . S
C4621 C4617 1.495 . S
C4621 H4627 0.959 . S
C4621 H4628 0.961 . S
C4621 H4629 0.960 . S
C4622 C4620 1.381 . S
C4622 C4623 1.394 . S
C4622 H4630 0.930 . S
C4623 C4622 1.394 . S
C4623 C4624 1.383 . S
C4623 H4631 0.929 . S
C4624 C4623 1.383 . S
C4624 C4625 1.377 . S
C4625 H4609 0.930 . S
C4625 C4624 1.377 . S
C4625 C4626 1.379 . S
C4626 H4610 0.931 . S
C4626 C4620 1.383 . S
C4626 C4625 1.379 . S
H4627 C4621 0.959 . S
H4628 C4621 0.961 . S
H4629 C4621 0.960 . S
H4630 C4622 0.930 . S
H4631 C4623 0.929 . S
H4632 C4640 0.929 . S
H4633 C4642 0.930 . S
H4634 C4644 0.930 . S
H4635 C4647 0.929 . S
H4636 C4650 0.930 . S
H4637 C4652 0.960 . S
H4638 C4652 0.960 . S
H4639 C4652 0.960 . S
C4640 H4632 0.929 . S
C4640 C4641 1.377 . S
C4640 C4642 1.384 . S
C4641 C4640 1.377 . S
C4641 C4647 1.390 . S
C4642 H4633 0.930 . S
C4642 C4640 1.384 . S
C4642 C4643 1.372 . S
C4643 C4642 1.372 . S
C4643 C4644 1.400 . S
C4643 C4648 1.490 . S
C4644 H4634 0.930 . S
C4644 C4643 1.400 . S
C4644 C4647 1.386 . S
H4645 C4661 0.930 . S
H4646 C4662 0.931 . S
C4647 H4635 0.929 . S
C4647 C4641 1.390 . S
C4647 C4644 1.386 . S
C4648 C4643 1.490 . S
C4648 C4650 1.395 . S
C4648 C4651 1.403 . S
H4649 C4655 0.930 . S
C4650 H4636 0.930 . S
C4650 C4648 1.395 . S
C4650 C4653 1.403 . S
C4651 C4648 1.403 . S
C4651 C4652 1.524 . S
C4651 C4655 1.400 . S
C4652 H4637 0.960 . S
C4652 H4638 0.960 . S
C4652 H4639 0.960 . S
C4652 C4651 1.524 . S
C4653 C4650 1.403 . S
C4653 C4654 1.392 . S
C4653 C4657 1.495 . S
C4654 C4653 1.392 . S
C4654 C4655 1.385 . S
C4654 C4656 1.478 . S
C4655 H4649 0.930 . S
C4655 C4651 1.400 . S
C4655 C4654 1.385 . S
C4656 C4654 1.478 . S
C4656 C4658 1.381 . S
C4656 C4662 1.383 . S
C4657 C4653 1.495 . S
C4657 H4663 0.959 . S
C4657 H4664 0.961 . S
C4657 H4665 0.960 . S
C4658 C4656 1.381 . S
C4658 C4659 1.394 . S
C4658 H4666 0.930 . S
C4659 C4658 1.394 . S
C4659 C4660 1.383 . S
C4659 H4667 0.929 . S
C4660 C4659 1.383 . S
C4660 C4661 1.377 1_655 S
C4661 H4645 0.930 . S
C4661 C4660 1.377 1_455 S
C4661 C4662 1.379 1_455 S
C4662 H4646 0.931 . S
C4662 C4656 1.383 . S
C4662 C4661 1.379 1_655 S
H4663 C4657 0.959 . S
H4664 C4657 0.961 . S
H4665 C4657 0.960 . S
H4666 C4658 0.930 . S
H4667 C4659 0.929 . S
H4668 C4676 0.929 . S
H4669 C4678 0.930 . S
H4670 C4680 0.930 . S
H4671 C4683 0.929 . S
H4672 C4686 0.930 . S
H4673 C4688 0.960 . S
H4674 C4688 0.960 . S
H4675 C4688 0.960 . S
C4676 H4668 0.929 . S
C4676 C4677 1.377 . S
C4676 C4678 1.384 . S
C4677 C4676 1.377 . S
C4677 C4683 1.390 . S
C4678 H4669 0.930 . S
C4678 C4676 1.384 . S
C4678 C4679 1.372 . S
C4679 C4678 1.372 . S
C4679 C4680 1.400 . S
C4679 C4684 1.490 . S
C4680 H4670 0.930 . S
C4680 C4679 1.400 . S
C4680 C4683 1.386 . S
H4681 C4697 0.930 . S
H4682 C4698 0.931 . S
C4683 H4671 0.929 . S
C4683 C4677 1.390 . S
C4683 C4680 1.386 . S
C4684 C4679 1.490 . S
C4684 C4686 1.395 . S
C4684 C4687 1.403 . S
H4685 C4691 0.930 . S
C4686 H4672 0.930 . S
C4686 C4684 1.395 . S
C4686 C4689 1.403 . S
C4687 C4684 1.403 . S
C4687 C4688 1.524 . S
C4687 C4691 1.400 . S
C4688 H4673 0.960 . S
C4688 H4674 0.960 . S
C4688 H4675 0.960 . S
C4688 C4687 1.524 . S
C4689 C4686 1.403 . S
C4689 C4690 1.392 . S
C4689 C4693 1.495 . S
C4690 C4689 1.392 . S
C4690 C4691 1.385 . S
C4690 C4692 1.478 . S
C4691 H4685 0.930 . S
C4691 C4687 1.400 . S
C4691 C4690 1.385 . S
C4692 C4690 1.478 . S
C4692 C4694 1.381 . S
C4692 C4698 1.383 . S
C4693 C4689 1.495 . S
C4693 H4699 0.959 . S
C4693 H4700 0.961 . S
C4693 H4701 0.960 . S
C4694 C4692 1.381 . S
C4694 C4695 1.394 . S
C4694 H4702 0.930 . S
C4695 C4694 1.394 . S
C4695 C4696 1.383 . S
C4695 H4703 0.929 . S
C4696 C4695 1.383 . S
C4696 C4697 1.377 . S
C4697 H4681 0.930 . S
C4697 C4696 1.377 . S
C4697 C4698 1.379 . S
C4698 H4682 0.931 . S
C4698 C4692 1.383 . S
C4698 C4697 1.379 . S
H4699 C4693 0.959 . S
H4700 C4693 0.961 . S
H4701 C4693 0.960 . S
H4702 C4694 0.930 . S
H4703 C4695 0.929 . S
H4704 C4712 0.929 . S
H4705 C4714 0.930 . S
H4706 C4716 0.930 . S
H4707 C4719 0.929 . S
H4708 C4722 0.930 . S
H4709 C4724 0.960 . S
H4710 C4724 0.960 . S
H4711 C4724 0.960 . S
C4712 H4704 0.929 . S
C4712 C4713 1.377 . S
C4712 C4714 1.384 . S
C4713 C4712 1.377 . S
C4713 C4719 1.390 . S
C4714 H4705 0.930 . S
C4714 C4712 1.384 . S
C4714 C4715 1.372 . S
C4715 C4714 1.372 . S
C4715 C4716 1.400 . S
C4715 C4720 1.490 . S
C4716 H4706 0.930 . S
C4716 C4715 1.400 . S
C4716 C4719 1.386 . S
H4717 C4733 0.930 . S
H4718 C4734 0.931 . S
C4719 H4707 0.929 . S
C4719 C4713 1.390 . S
C4719 C4716 1.386 . S
C4720 C4715 1.490 . S
C4720 C4722 1.395 . S
C4720 C4723 1.403 . S
H4721 C4727 0.930 . S
C4722 H4708 0.930 . S
C4722 C4720 1.395 . S
C4722 C4725 1.403 . S
C4723 C4720 1.403 . S
C4723 C4724 1.524 . S
C4723 C4727 1.400 . S
C4724 H4709 0.960 . S
C4724 H4710 0.960 . S
C4724 H4711 0.960 . S
C4724 C4723 1.524 . S
C4725 C4722 1.403 . S
C4725 C4726 1.392 . S
C4725 C4729 1.495 . S
C4726 C4725 1.392 . S
C4726 C4727 1.385 . S
C4726 C4728 1.478 . S
C4727 H4721 0.930 . S
C4727 C4723 1.400 . S
C4727 C4726 1.385 . S
C4728 C4726 1.478 . S
C4728 C4730 1.381 . S
C4728 C4734 1.383 . S
C4729 C4725 1.495 . S
C4729 H4735 0.959 . S
C4729 H4736 0.961 . S
C4729 H4737 0.960 . S
C4730 C4728 1.381 . S
C4730 C4731 1.394 . S
C4730 H4738 0.930 . S
C4731 C4730 1.394 . S
C4731 C4732 1.383 . S
C4731 H4739 0.929 . S
C4732 C4731 1.383 . S
C4732 C4733 1.377 . S
C4733 H4717 0.930 . S
C4733 C4732 1.377 . S
C4733 C4734 1.379 . S
C4734 H4718 0.931 . S
C4734 C4728 1.383 . S
C4734 C4733 1.379 . S
H4735 C4729 0.959 . S
H4736 C4729 0.961 . S
H4737 C4729 0.960 . S
H4738 C4730 0.930 . S
H4739 C4731 0.929 . S
H4740 C4748 0.929 . S
H4741 C4750 0.930 . S
H4742 C4752 0.930 . S
H4743 C4755 0.929 . S
H4744 C4758 0.930 . S
H4745 C4760 0.960 . S
H4746 C4760 0.960 . S
H4747 C4760 0.960 . S
C4748 H4740 0.929 . S
C4748 C4749 1.377 . S
C4748 C4750 1.384 . S
C4749 C4748 1.377 . S
C4749 C4755 1.390 . S
C4750 H4741 0.930 . S
C4750 C4748 1.384 . S
C4750 C4751 1.372 . S
C4751 C4750 1.372 . S
C4751 C4752 1.400 . S
C4751 C4756 1.490 . S
C4752 H4742 0.930 . S
C4752 C4751 1.400 . S
C4752 C4755 1.386 . S
H4753 C4769 0.930 . S
H4754 C4770 0.931 . S
C4755 H4743 0.929 . S
C4755 C4749 1.390 . S
C4755 C4752 1.386 . S
C4756 C4751 1.490 . S
C4756 C4758 1.395 . S
C4756 C4759 1.403 . S
H4757 C4763 0.930 . S
C4758 H4744 0.930 . S
C4758 C4756 1.395 . S
C4758 C4761 1.403 . S
C4759 C4756 1.403 . S
C4759 C4760 1.524 . S
C4759 C4763 1.400 . S
C4760 H4745 0.960 . S
C4760 H4746 0.960 . S
C4760 H4747 0.960 . S
C4760 C4759 1.524 . S
C4761 C4758 1.403 . S
C4761 C4762 1.392 . S
C4761 C4765 1.495 . S
C4762 C4761 1.392 . S
C4762 C4763 1.385 . S
C4762 C4764 1.478 . S
C4763 H4757 0.930 . S
C4763 C4759 1.400 . S
C4763 C4762 1.385 . S
C4764 C4762 1.478 . S
C4764 C4766 1.381 . S
C4764 C4770 1.383 . S
C4765 C4761 1.495 . S
C4765 H4771 0.959 . S
C4765 H4772 0.961 . S
C4765 H4773 0.960 . S
C4766 C4764 1.381 . S
C4766 C4767 1.394 . S
C4766 H4774 0.930 . S
C4767 C4766 1.394 . S
C4767 C4768 1.383 . S
C4767 H4775 0.929 . S
C4768 C4767 1.383 . S
C4768 C4769 1.377 . S
C4769 H4753 0.930 . S
C4769 C4768 1.377 . S
C4769 C4770 1.379 . S
C4770 H4754 0.931 . S
C4770 C4764 1.383 . S
C4770 C4769 1.379 . S
H4771 C4765 0.959 . S
H4772 C4765 0.961 . S
H4773 C4765 0.960 . S
H4774 C4766 0.930 . S
H4775 C4767 0.929 . S
H4776 C4784 0.929 . S
H4777 C4786 0.930 . S
H4778 C4788 0.930 . S
H4779 C4791 0.929 . S
H4780 C4794 0.930 . S
H4781 C4796 0.960 . S
H4782 C4796 0.960 . S
H4783 C4796 0.960 . S
C4784 H4776 0.929 . S
C4784 C4785 1.377 . S
C4784 C4786 1.384 . S
C4785 C4784 1.377 . S
C4785 C4791 1.390 . S
C4786 H4777 0.930 . S
C4786 C4784 1.384 . S
C4786 C4787 1.372 . S
C4787 C4786 1.372 . S
C4787 C4788 1.400 . S
C4787 C4792 1.490 . S
C4788 H4778 0.930 . S
C4788 C4787 1.400 . S
C4788 C4791 1.386 . S
H4789 C4805 0.930 . S
H4790 C4806 0.931 . S
C4791 H4779 0.929 . S
C4791 C4785 1.390 . S
C4791 C4788 1.386 . S
C4792 C4787 1.490 . S
C4792 C4794 1.395 . S
C4792 C4795 1.403 . S
H4793 C4799 0.930 . S
C4794 H4780 0.930 . S
C4794 C4792 1.395 . S
C4794 C4797 1.403 . S
C4795 C4792 1.403 . S
C4795 C4796 1.524 . S
C4795 C4799 1.400 . S
C4796 H4781 0.960 . S
C4796 H4782 0.960 . S
C4796 H4783 0.960 . S
C4796 C4795 1.524 . S
C4797 C4794 1.403 . S
C4797 C4798 1.392 . S
C4797 C4801 1.495 . S
C4798 C4797 1.392 . S
C4798 C4799 1.385 . S
C4798 C4800 1.478 . S
C4799 H4793 0.930 . S
C4799 C4795 1.400 . S
C4799 C4798 1.385 . S
C4800 C4798 1.478 . S
C4800 C4802 1.381 . S
C4800 C4806 1.383 . S
C4801 C4797 1.495 . S
C4801 H4807 0.959 . S
C4801 H4808 0.961 . S
C4801 H4809 0.960 . S
C4802 C4800 1.381 . S
C4802 C4803 1.394 . S
C4802 H4810 0.930 . S
C4803 C4802 1.394 . S
C4803 C4804 1.383 . S
C4803 H4811 0.929 . S
C4804 C4803 1.383 . S
C4804 C4805 1.377 . S
C4805 H4789 0.930 . S
C4805 C4804 1.377 . S
C4805 C4806 1.379 . S
C4806 H4790 0.931 . S
C4806 C4800 1.383 . S
C4806 C4805 1.379 . S
H4807 C4801 0.959 . S
H4808 C4801 0.961 . S
H4809 C4801 0.960 . S
H4810 C4802 0.930 . S
H4811 C4803 0.929 . S
H4812 C4820 0.929 . S
H4813 C4822 0.930 . S
H4814 C4824 0.930 . S
H4815 C4827 0.929 . S
H4816 C4830 0.930 . S
H4817 C4832 0.960 . S
H4818 C4832 0.960 . S
H4819 C4832 0.960 . S
C4820 H4812 0.929 . S
C4820 C4821 1.377 . S
C4820 C4822 1.384 . S
C4821 C4820 1.377 . S
C4821 C4827 1.390 . S
C4822 H4813 0.930 . S
C4822 C4820 1.384 . S
C4822 C4823 1.372 . S
C4823 C4822 1.372 . S
C4823 C4824 1.400 . S
C4823 C4828 1.490 . S
C4824 H4814 0.930 . S
C4824 C4823 1.400 . S
C4824 C4827 1.386 . S
H4825 C4841 0.930 . S
H4826 C4842 0.931 . S
C4827 H4815 0.929 . S
C4827 C4821 1.390 . S
C4827 C4824 1.386 . S
C4828 C4823 1.490 . S
C4828 C4830 1.395 . S
C4828 C4831 1.403 . S
H4829 C4835 0.930 . S
C4830 H4816 0.930 . S
C4830 C4828 1.395 . S
C4830 C4833 1.403 . S
C4831 C4828 1.403 . S
C4831 C4832 1.524 . S
C4831 C4835 1.400 . S
C4832 H4817 0.960 . S
C4832 H4818 0.960 . S
C4832 H4819 0.960 . S
C4832 C4831 1.524 . S
C4833 C4830 1.403 . S
C4833 C4834 1.392 . S
C4833 C4837 1.495 . S
C4834 C4833 1.392 . S
C4834 C4835 1.385 . S
C4834 C4836 1.478 . S
C4835 H4829 0.930 . S
C4835 C4831 1.400 . S
C4835 C4834 1.385 . S
C4836 C4834 1.478 . S
C4836 C4838 1.381 . S
C4836 C4842 1.383 . S
C4837 C4833 1.495 . S
C4837 H4843 0.959 . S
C4837 H4844 0.961 . S
C4837 H4845 0.960 . S
C4838 C4836 1.381 . S
C4838 C4839 1.394 . S
C4838 H4846 0.930 . S
C4839 C4838 1.394 . S
C4839 C4840 1.383 . S
C4839 H4847 0.929 . S
C4840 C4839 1.383 . S
C4840 C4841 1.377 . S
C4841 H4825 0.930 . S
C4841 C4840 1.377 . S
C4841 C4842 1.379 . S
C4842 H4826 0.931 . S
C4842 C4836 1.383 . S
C4842 C4841 1.379 . S
H4843 C4837 0.959 . S
H4844 C4837 0.961 . S
H4845 C4837 0.960 . S
H4846 C4838 0.930 . S
H4847 C4839 0.929 . S
H4848 C4856 0.929 . S
H4849 C4858 0.930 . S
H4850 C4860 0.930 . S
H4851 C4863 0.929 . S
H4852 C4866 0.930 . S
H4853 C4868 0.960 . S
H4854 C4868 0.960 . S
H4855 C4868 0.960 . S
C4856 H4848 0.929 . S
C4856 C4857 1.377 . S
C4856 C4858 1.384 . S
C4857 C4856 1.377 . S
C4857 C4863 1.390 . S
C4858 H4849 0.930 . S
C4858 C4856 1.384 . S
C4858 C4859 1.372 . S
C4859 C4858 1.372 . S
C4859 C4860 1.400 . S
C4859 C4864 1.490 . S
C4860 H4850 0.930 . S
C4860 C4859 1.400 . S
C4860 C4863 1.386 . S
H4861 C4877 0.930 . S
H4862 C4878 0.931 . S
C4863 H4851 0.929 . S
C4863 C4857 1.390 . S
C4863 C4860 1.386 . S
C4864 C4859 1.490 . S
C4864 C4866 1.395 . S
C4864 C4867 1.403 . S
H4865 C4871 0.930 . S
C4866 H4852 0.930 . S
C4866 C4864 1.395 . S
C4866 C4869 1.403 . S
C4867 C4864 1.403 . S
C4867 C4868 1.524 . S
C4867 C4871 1.400 . S
C4868 H4853 0.960 . S
C4868 H4854 0.960 . S
C4868 H4855 0.960 . S
C4868 C4867 1.524 . S
C4869 C4866 1.403 . S
C4869 C4870 1.392 . S
C4869 C4873 1.495 . S
C4870 C4869 1.392 . S
C4870 C4871 1.385 . S
C4870 C4872 1.478 . S
C4871 H4865 0.930 . S
C4871 C4867 1.400 . S
C4871 C4870 1.385 . S
C4872 C4870 1.478 . S
C4872 C4874 1.381 . S
C4872 C4878 1.383 . S
C4873 C4869 1.495 . S
C4873 H4879 0.959 . S
C4873 H4880 0.961 . S
C4873 H4881 0.960 . S
C4874 C4872 1.381 . S
C4874 C4875 1.394 . S
C4874 H4882 0.930 . S
C4875 C4874 1.394 . S
C4875 C4876 1.383 . S
C4875 H4883 0.929 . S
C4876 C4875 1.383 . S
C4876 C4877 1.377 . S
C4877 H4861 0.930 . S
C4877 C4876 1.377 . S
C4877 C4878 1.379 . S
C4878 H4862 0.931 . S
C4878 C4872 1.383 . S
C4878 C4877 1.379 . S
H4879 C4873 0.959 . S
H4880 C4873 0.961 . S
H4881 C4873 0.960 . S
H4882 C4874 0.930 . S
H4883 C4875 0.929 . S
H4884 C4892 0.929 . S
H4885 C4894 0.930 . S
H4886 C4896 0.930 . S
H4887 C4899 0.929 . S
H4888 C4902 0.930 . S
H4889 C4904 0.960 . S
H4890 C4904 0.960 . S
H4891 C4904 0.960 . S
C4892 H4884 0.929 . S
C4892 C4893 1.377 . S
C4892 C4894 1.384 . S
C4893 C4892 1.377 . S
C4893 C4899 1.390 . S
C4894 H4885 0.930 . S
C4894 C4892 1.384 . S
C4894 C4895 1.372 . S
C4895 C4894 1.372 . S
C4895 C4896 1.400 . S
C4895 C4900 1.490 . S
C4896 H4886 0.930 . S
C4896 C4895 1.400 . S
C4896 C4899 1.386 . S
H4897 C4913 0.930 . S
H4898 C4914 0.931 . S
C4899 H4887 0.929 . S
C4899 C4893 1.390 . S
C4899 C4896 1.386 . S
C4900 C4895 1.490 . S
C4900 C4902 1.395 . S
C4900 C4903 1.403 . S
H4901 C4907 0.930 . S
C4902 H4888 0.930 . S
C4902 C4900 1.395 . S
C4902 C4905 1.403 . S
C4903 C4900 1.403 . S
C4903 C4904 1.524 . S
C4903 C4907 1.400 . S
C4904 H4889 0.960 . S
C4904 H4890 0.960 . S
C4904 H4891 0.960 . S
C4904 C4903 1.524 . S
C4905 C4902 1.403 . S
C4905 C4906 1.392 . S
C4905 C4909 1.495 . S
C4906 C4905 1.392 . S
C4906 C4907 1.385 . S
C4906 C4908 1.478 . S
C4907 H4901 0.930 . S
C4907 C4903 1.400 . S
C4907 C4906 1.385 . S
C4908 C4906 1.478 . S
C4908 C4910 1.381 . S
C4908 C4914 1.383 . S
C4909 C4905 1.495 . S
C4909 H4915 0.959 . S
C4909 H4916 0.961 1_565 S
C4909 H4917 0.970 . S
C4910 C4908 1.381 . S
C4910 C4911 1.394 . S
C4910 H4918 0.930 . S
C4911 C4910 1.394 . S
C4911 C4912 1.383 . S
C4911 H4919 0.929 1_565 S
C4912 C4911 1.383 . S
C4912 C4913 1.377 . S
C4913 H4897 0.930 . S
C4913 C4912 1.377 . S
C4913 C4914 1.379 . S
C4914 H4898 0.931 . S
C4914 C4908 1.383 . S
C4914 C4913 1.379 . S
H4915 C4909 0.959 . S
H4916 C4909 0.961 1_545 S
H4917 C4909 0.970 . S
H4918 C4910 0.930 . S
H4919 C4911 0.929 1_545 S
H4920 C4928 0.929 . S
H4921 C4930 0.930 . S
H4922 C4932 0.930 . S
H4923 C4935 0.929 . S
H4924 C4938 0.930 . S
H4925 C4940 0.960 . S
H4926 C4940 0.960 . S
H4927 C4940 0.960 . S
C4928 H4920 0.929 . S
C4928 C4929 1.377 . S
C4928 C4930 1.384 . S
C4929 C4928 1.377 . S
C4929 C4935 1.390 . S
C4930 H4921 0.930 . S
C4930 C4928 1.384 . S
C4930 C4931 1.372 . S
C4931 C4930 1.372 . S
C4931 C4932 1.400 . S
C4931 C4936 1.490 . S
C4932 H4922 0.930 . S
C4932 C4931 1.400 . S
C4932 C4935 1.386 . S
H4933 C4949 0.930 . S
H4934 C4950 0.931 . S
C4935 H4923 0.929 . S
C4935 C4929 1.390 . S
C4935 C4932 1.386 . S
C4936 C4931 1.490 . S
C4936 C4938 1.395 . S
C4936 C4939 1.403 . S
H4937 C4943 0.930 . S
C4938 H4924 0.930 . S
C4938 C4936 1.395 . S
C4938 C4941 1.403 . S
C4939 C4936 1.403 . S
C4939 C4940 1.524 . S
C4939 C4943 1.400 . S
C4940 H4925 0.960 . S
C4940 H4926 0.960 . S
C4940 H4927 0.960 . S
C4940 C4939 1.524 . S
C4941 C4938 1.403 . S
C4941 C4942 1.392 . S
C4941 C4945 1.495 . S
C4942 C4941 1.392 . S
C4942 C4943 1.385 . S
C4942 C4944 1.478 . S
C4943 H4937 0.930 . S
C4943 C4939 1.400 . S
C4943 C4942 1.385 . S
C4944 C4942 1.478 . S
C4944 C4946 1.381 . S
C4944 C4950 1.383 . S
C4945 C4941 1.495 . S
C4945 H4951 0.959 . S
C4945 H4952 0.961 . S
C4945 H4953 0.960 . S
C4946 C4944 1.381 . S
C4946 C4947 1.394 . S
C4946 H4954 0.930 . S
C4947 C4946 1.394 . S
C4947 C4948 1.383 . S
C4947 H4955 0.929 . S
C4948 C4947 1.383 . S
C4948 C4949 1.377 . S
C4949 H4933 0.930 . S
C4949 C4948 1.377 . S
C4949 C4950 1.379 . S
C4950 H4934 0.931 . S
C4950 C4944 1.383 . S
C4950 C4949 1.379 . S
H4951 C4945 0.959 . S
H4952 C4945 0.961 . S
H4953 C4945 0.960 . S
H4954 C4946 0.930 . S
H4955 C4947 0.929 . S
H4956 C4964 0.929 . S
H4957 C4966 0.930 . S
H4958 C4968 0.930 . S
H4959 C4971 0.929 . S
H4960 C4974 0.930 . S
H4961 C4976 0.960 . S
H4962 C4976 0.960 . S
H4963 C4976 0.960 . S
C4964 H4956 0.929 . S
C4964 C4965 1.377 . S
C4964 C4966 1.384 . S
C4965 C4964 1.377 . S
C4965 C4971 1.390 . S
C4966 H4957 0.930 . S
C4966 C4964 1.384 . S
C4966 C4967 1.372 . S
C4967 C4966 1.372 . S
C4967 C4968 1.400 . S
C4967 C4972 1.490 . S
C4968 H4958 0.930 . S
C4968 C4967 1.400 . S
C4968 C4971 1.386 . S
H4969 C4985 0.930 . S
H4970 C4986 0.931 . S
C4971 H4959 0.929 . S
C4971 C4965 1.390 . S
C4971 C4968 1.386 . S
C4972 C4967 1.490 . S
C4972 C4974 1.395 . S
C4972 C4975 1.403 . S
H4973 C4979 0.930 . S
C4974 H4960 0.930 . S
C4974 C4972 1.395 . S
C4974 C4977 1.403 . S
C4975 C4972 1.403 . S
C4975 C4976 1.524 . S
C4975 C4979 1.400 . S
C4976 H4961 0.960 . S
C4976 H4962 0.960 . S
C4976 H4963 0.960 . S
C4976 C4975 1.524 . S
C4977 C4974 1.403 . S
C4977 C4978 1.392 . S
C4977 C4981 1.495 . S
C4978 C4977 1.392 . S
C4978 C4979 1.385 . S
C4978 C4980 1.478 . S
C4979 H4973 0.930 . S
C4979 C4975 1.400 . S
C4979 C4978 1.385 . S
C4980 C4978 1.478 . S
C4980 C4982 1.381 . S
C4980 C4986 1.383 . S
C4981 C4977 1.495 . S
C4981 H4987 0.959 . S
C4981 H4988 0.961 . S
C4981 H4989 0.960 . S
C4982 C4980 1.381 . S
C4982 C4983 1.394 . S
C4982 H4990 0.930 1_554 S
C4983 C4982 1.394 . S
C4983 C4984 1.383 . S
C4983 H4991 0.929 1_554 S
C4984 C4983 1.383 . S
C4984 C4985 1.377 . S
C4985 H4969 0.930 . S
C4985 C4984 1.377 . S
C4985 C4986 1.379 . S
C4986 H4970 0.931 . S
C4986 C4980 1.383 . S
C4986 C4985 1.379 . S
H4987 C4981 0.959 . S
H4988 C4981 0.961 . S
H4989 C4981 0.960 . S
H4990 C4982 0.930 1_556 S
H4991 C4983 0.929 1_556 S
H4992 C5000 0.929 . S
H4993 C5002 0.930 . S
H4994 C5004 0.930 . S
H4995 C5007 0.929 . S
H4996 C5010 0.930 . S
H4997 C5012 0.960 . S
H4998 C5012 0.960 . S
H4999 C5012 0.960 . S
C5000 H4992 0.929 . S
C5000 C5001 1.377 . S
C5000 C5002 1.384 . S
C5001 C5000 1.377 . S
C5001 C5007 1.390 . S
C5002 H4993 0.930 . S
C5002 C5000 1.384 . S
C5002 C5003 1.372 . S
C5003 C5002 1.372 . S
C5003 C5004 1.400 . S
C5003 C5008 1.490 . S
C5004 H4994 0.930 . S
C5004 C5003 1.400 . S
C5004 C5007 1.386 . S
H5005 C5021 0.930 . S
H5006 C5022 0.931 . S
C5007 H4995 0.929 . S
C5007 C5001 1.390 . S
C5007 C5004 1.386 . S
C5008 C5003 1.490 . S
C5008 C5010 1.395 . S
C5008 C5011 1.403 . S
H5009 C5015 0.930 . S
C5010 H4996 0.930 . S
C5010 C5008 1.395 . S
C5010 C5013 1.403 . S
C5011 C5008 1.403 . S
C5011 C5012 1.524 . S
C5011 C5015 1.400 . S
C5012 H4997 0.960 . S
C5012 H4998 0.960 . S
C5012 H4999 0.960 . S
C5012 C5011 1.524 . S
C5013 C5010 1.403 . S
C5013 C5014 1.392 . S
C5013 C5017 1.495 . S
C5014 C5013 1.392 . S
C5014 C5015 1.385 . S
C5014 C5016 1.478 . S
C5015 H5009 0.930 . S
C5015 C5011 1.400 . S
C5015 C5014 1.385 . S
C5016 C5014 1.478 . S
C5016 C5018 1.381 . S
C5016 C5022 1.383 . S
C5017 C5013 1.495 . S
C5017 H5023 0.959 . S
C5017 H5024 0.961 . S
C5017 H5025 0.960 . S
C5018 C5016 1.381 . S
C5018 C5019 1.394 . S
C5018 H5026 0.930 . S
C5019 C5018 1.394 . S
C5019 C5020 1.383 . S
C5019 H5027 0.929 . S
C5020 C5019 1.383 . S
C5020 C5021 1.377 . S
C5021 H5005 0.930 . S
C5021 C5020 1.377 . S
C5021 C5022 1.379 . S
C5022 H5006 0.931 . S
C5022 C5016 1.383 . S
C5022 C5021 1.379 . S
H5023 C5017 0.959 . S
H5024 C5017 0.961 . S
H5025 C5017 0.960 . S
H5026 C5018 0.930 . S
H5027 C5019 0.929 . S
H5028 C5036 0.929 . S
H5029 C5038 0.930 . S
H5030 C5040 0.930 . S
H5031 C5043 0.929 . S
H5032 C5046 0.930 . S
H5033 C5048 0.960 1_556 S
H5034 C5048 0.960 1_556 S
H5035 C5048 0.960 . S
C5036 H5028 0.929 . S
C5036 C5037 1.377 . S
C5036 C5038 1.384 . S
C5037 C5036 1.377 . S
C5037 C5043 1.390 . S
C5038 H5029 0.930 . S
C5038 C5036 1.384 . S
C5038 C5039 1.372 . S
C5039 C5038 1.372 . S
C5039 C5040 1.400 . S
C5039 C5044 1.490 . S
C5040 H5030 0.930 . S
C5040 C5039 1.400 . S
C5040 C5043 1.386 . S
H5041 C5057 0.930 . S
H5042 C5058 0.931 . S
C5043 H5031 0.929 . S
C5043 C5037 1.390 . S
C5043 C5040 1.386 . S
C5044 C5039 1.490 . S
C5044 C5046 1.395 . S
C5044 C5047 1.403 . S
H5045 C5051 0.930 . S
C5046 H5032 0.930 . S
C5046 C5044 1.395 . S
C5046 C5049 1.403 . S
C5047 C5044 1.403 . S
C5047 C5048 1.524 . S
C5047 C5051 1.400 . S
C5048 H5033 0.960 1_554 S
C5048 H5034 0.960 1_554 S
C5048 H5035 0.960 . S
C5048 C5047 1.524 . S
C5049 C5046 1.403 . S
C5049 C5050 1.392 . S
C5049 C5053 1.495 . S
C5050 C5049 1.392 . S
C5050 C5051 1.385 . S
C5050 C5052 1.478 . S
C5051 H5045 0.930 . S
C5051 C5047 1.400 . S
C5051 C5050 1.385 . S
C5052 C5050 1.478 . S
C5052 C5054 1.381 . S
C5052 C5058 1.383 . S
C5053 C5049 1.495 . S
C5053 H5059 0.959 . S
C5053 H5060 0.961 . S
C5053 H5061 0.960 . S
C5054 C5052 1.381 . S
C5054 C5055 1.394 . S
C5054 H5062 0.930 1_554 S
C5055 C5054 1.394 . S
C5055 C5056 1.383 . S
C5055 H5063 0.929 1_554 S
C5056 C5055 1.383 . S
C5056 C5057 1.377 . S
C5057 H5041 0.930 . S
C5057 C5056 1.377 . S
C5057 C5058 1.379 . S
C5058 H5042 0.931 . S
C5058 C5052 1.383 . S
C5058 C5057 1.379 . S
H5059 C5053 0.959 . S
H5060 C5053 0.961 . S
H5061 C5053 0.960 . S
H5062 C5054 0.930 1_556 S
H5063 C5055 0.929 1_556 S
H5064 C5072 0.929 . S
H5065 C5074 0.930 . S
H5066 C5076 0.930 . S
H5067 C5079 0.929 . S
H5068 C5082 0.930 . S
H5069 C5084 0.960 . S
H5070 C5084 0.960 . S
H5071 C5084 0.960 . S
C5072 H5064 0.929 . S
C5072 C5073 1.377 . S
C5072 C5074 1.384 . S
C5073 C5072 1.377 . S
C5073 C5079 1.390 . S
C5074 H5065 0.930 . S
C5074 C5072 1.384 . S
C5074 C5075 1.372 . S
C5075 C5074 1.372 . S
C5075 C5076 1.400 . S
C5075 C5080 1.490 . S
C5076 H5066 0.930 . S
C5076 C5075 1.400 . S
C5076 C5079 1.386 . S
H5077 C5093 0.930 . S
H5078 C5094 0.931 . S
C5079 H5067 0.929 . S
C5079 C5073 1.390 . S
C5079 C5076 1.386 . S
C5080 C5075 1.490 . S
C5080 C5082 1.395 . S
C5080 C5083 1.403 . S
H5081 C5087 0.930 . S
C5082 H5068 0.930 . S
C5082 C5080 1.395 . S
C5082 C5085 1.403 . S
C5083 C5080 1.403 . S
C5083 C5084 1.524 . S
C5083 C5087 1.400 . S
C5084 H5069 0.960 . S
C5084 H5070 0.960 . S
C5084 H5071 0.960 . S
C5084 C5083 1.524 . S
C5085 C5082 1.403 . S
C5085 C5086 1.392 . S
C5085 C5089 1.495 . S
C5086 C5085 1.392 . S
C5086 C5087 1.385 . S
C5086 C5088 1.478 . S
C5087 H5081 0.930 . S
C5087 C5083 1.400 . S
C5087 C5086 1.385 . S
C5088 C5086 1.478 . S
C5088 C5090 1.381 . S
C5088 C5094 1.383 . S
C5089 C5085 1.495 . S
C5089 H5095 0.959 . S
C5089 H5096 0.961 . S
C5089 H5097 0.960 . S
C5090 C5088 1.381 . S
C5090 C5091 1.394 . S
C5090 H5098 0.930 . S
C5091 C5090 1.394 . S
C5091 C5092 1.383 . S
C5091 H5099 0.929 . S
C5092 C5091 1.383 . S
C5092 C5093 1.377 . S
C5093 H5077 0.930 . S
C5093 C5092 1.377 . S
C5093 C5094 1.379 . S
C5094 H5078 0.931 . S
C5094 C5088 1.383 . S
C5094 C5093 1.379 . S
H5095 C5089 0.959 . S
H5096 C5089 0.961 . S
H5097 C5089 0.960 . S
H5098 C5090 0.930 . S
H5099 C5091 0.929 . S
H5100 C5108 0.929 . S
H5101 C5110 0.930 . S
H5102 C5112 0.930 . S
H5103 C5115 0.929 . S
H5104 C5118 0.930 . S
H5105 C5120 0.960 . S
H5106 C5120 0.960 . S
H5107 C5120 0.960 . S
C5108 H5100 0.929 . S
C5108 C5109 1.377 . S
C5108 C5110 1.384 . S
C5109 C5108 1.377 . S
C5109 C5115 1.390 . S
C5110 H5101 0.930 . S
C5110 C5108 1.384 . S
C5110 C5111 1.372 . S
C5111 C5110 1.372 . S
C5111 C5112 1.400 . S
C5111 C5116 1.490 . S
C5112 H5102 0.930 . S
C5112 C5111 1.400 . S
C5112 C5115 1.386 . S
H5113 C5129 0.930 . S
H5114 C5130 0.931 . S
C5115 H5103 0.929 . S
C5115 C5109 1.390 . S
C5115 C5112 1.386 . S
C5116 C5111 1.490 . S
C5116 C5118 1.395 . S
C5116 C5119 1.403 . S
H5117 C5123 0.930 . S
C5118 H5104 0.930 . S
C5118 C5116 1.395 . S
C5118 C5121 1.403 . S
C5119 C5116 1.403 . S
C5119 C5120 1.524 . S
C5119 C5123 1.400 . S
C5120 H5105 0.960 . S
C5120 H5106 0.960 . S
C5120 H5107 0.960 . S
C5120 C5119 1.524 . S
C5121 C5118 1.403 . S
C5121 C5122 1.392 . S
C5121 C5125 1.495 . S
C5122 C5121 1.392 . S
C5122 C5123 1.385 . S
C5122 C5124 1.478 . S
C5123 H5117 0.930 . S
C5123 C5119 1.400 . S
C5123 C5122 1.385 . S
C5124 C5122 1.478 . S
C5124 C5126 1.381 . S
C5124 C5130 1.383 . S
C5125 C5121 1.495 . S
C5125 H5131 0.959 . S
C5125 H5132 0.961 . S
C5125 H5133 0.960 . S
C5126 C5124 1.381 . S
C5126 C5127 1.394 . S
C5126 H5134 0.930 . S
C5127 C5126 1.394 . S
C5127 C5128 1.383 . S
C5127 H5135 0.929 . S
C5128 C5127 1.383 . S
C5128 C5129 1.377 . S
C5129 H5113 0.930 . S
C5129 C5128 1.377 . S
C5129 C5130 1.379 . S
C5130 H5114 0.931 . S
C5130 C5124 1.383 . S
C5130 C5129 1.379 . S
H5131 C5125 0.959 . S
H5132 C5125 0.961 . S
H5133 C5125 0.960 . S
H5134 C5126 0.930 . S
H5135 C5127 0.929 . S
C1689 C109 1.855 . S
C1708 C403 1.857 . S
C1725 C61 1.558 . S
C1744 C476 1.757 . S
C1761 C74 1.732 . S
C1780 C571 1.767 . S
C1816 C646 1.463 . S
C1797 C96 1.594 . S
C1833 C25 1.503 . S
C1852 C730 1.347 . S
C1888 C823 1.774 . S
C1869 C40 1.756 . S
C1924 C896 1.859 . S
C1905 C46 1.867 . S
C1941 C5 1.623 . S
C1960 C991 1.957 . S
C1996 C392 1.464 . S
C1977 C229 1.209 . S
C2013 C249 0.793 . S
C2032 C478 0.844 . S
C2068 C560 0.892 . S
C2049 C271 0.819 . S
C2104 C655 1.687 . S
C2085 C172 1.638 1_556 S
C2121 C236 1.510 . S
C2140 C739 1.500 . S
C2176 C812 1.258 . S
C2157 C242 1.247 . S
C2212 C898 0.845 . S
C2193 C278 0.802 . S
C2248 C980 1.502 . S
C2229 C179 1.551 . S
C2284 C394 0.908 . S
C2265 C159 0.783 1_556 S
C2301 C285 1.417 1_554 S
C2320 C1064 1.593 . S
C2356 C1150 1.171 . S
C2337 C333 1.245 . S
C2392 C1243 0.713 . S
C2373 C320 0.725 . S
C2409 C123 0.810 . S
C2428 C982 0.793 . S
C2445 C138 1.390 . S
C2464 C562 1.264 . S
C2481 C326 1.722 . S
C2500 C1316 1.704 . S
C2536 C1411 0.797 . S
C2517 C298 0.789 . S
C2572 C391 1.839 . S
C2553 C67 1.791 . S
C2608 C1412 1.692 . S
C2589 C110 1.705 . S
C2625 C88 1.722 . S
C2644 C559 1.748 . S
C2661 C75 1.238 . S
C2680 C1330 1.347 . S
C2716 C742 1.322 . S
C2697 C11 1.440 . S
C2733 C47 1.520 . S
C2752 C1147 1.724 . S
C2788 C908 1.763 . S
C2769 C32 1.668 . S
C2824 C1483 1.937 . S
C2805 C26 1.928 . S
C2860 C404 1.492 . S
C2841 C152 1.534 . S
C2896 C1414 0.773 . S
C2877 C319 0.792 . S
C2913 C124 0.864 . S
C2932 C572 0.863 . S
C2949 C284 1.677 . S
C2968 C1315 1.691 . S
C2985 C145 1.260 . S
C3004 C727 1.446 . S
C3040 C1160 1.114 . S
C3021 C312 1.079 . S
C3057 C117 0.725 . S
C3076 C910 0.691 . S
C3093 C291 1.409 . S
C3112 C1496 1.416 . S
C3129 C194 0.892 . S
C3148 C406 0.818 1_554 S
C3165 C180 1.557 . S
C3184 C1076 1.517 . S
C3201 C263 1.121 . S
C3220 C826 1.027 . S
C3237 C243 0.707 . S
C3256 C1231 0.654 . S
C3292 C1498 0.849 . S
C3273 C277 0.819 . S
C3309 C215 1.140 . S
C3328 C574 1.224 . S
C3364 C656 1.584 . S
C3345 C256 1.564 . S
C3400 C475 0.862 . S
C3381 C200 0.844 . S
C3417 C81 1.855 . S
C3436 C1579 1.858 . S
C3472 C1400 1.768 . S
C3453 C89 1.565 . S
C3489 C102 1.731 1_455 S
C3508 C1663 1.775 . S
C3525 C68 1.593 . S
C3544 C1318 1.463 . S
C3561 C53 1.500 . S
C3580 C1066 1.394 . S
C3616 C1159 1.769 . S
C3597 C12 1.760 1_655 S
C3652 C1232 1.873 . S
C3633 C18 1.869 . S
C3688 C1495 1.958 . S
C3669 C33 1.629 . S
C3724 C1568 1.423 . S
C3705 C257 1.204 . S
C3741 C193 0.807 . S
C3760 C1402 0.849 . S
C3796 C1652 0.908 . S
C3777 C201 0.834 . S
C3832 C1327 1.688 . S
C3813 C214 1.644 . S
C3868 C1075 1.502 . S
C3849 C264 1.511 . S
C3885 C186 1.240 . S
C3904 C1148 1.228 . S
C3940 C1234 0.730 . S
C3921 C208 0.802 . S
C3957 C221 1.546 . S
C3976 C1484 1.538 . S
C4012 C1570 0.803 . S
C3993 C313 0.809 . S
C4029 C131 1.401 . S
C4048 C728 1.562 . S
C4084 C814 1.183 . S
C4065 C151 1.239 1_565 S
C4120 C907 0.738 . S
C4101 C166 0.726 . S
C4156 C1486 0.768 . S
C4137 C305 0.809 . S
C4173 C292 1.389 . S
C4192 C1654 1.335 . S
C4228 C644 1.696 . S
C4209 C144 1.721 . S
C4264 C487 0.795 . S
C4245 C116 0.797 . S
C4281 C95 1.784 . S
C4300 C1567 1.827 . S
C4336 C488 1.663 . S
C4317 C82 1.698 . S
C4353 C60 1.722 . S
C4372 C1651 1.750 . S
C4389 C103 1.230 . S
C4408 C658 1.349 . S
C4425 C39 1.440 . S
C4444 C1078 1.357 . S
C4480 C811 1.727 . S
C4461 C19 1.527 . S
C4497 C4 1.661 . S
C4516 C1244 1.732 . S
C4533 C54 1.931 . S
C4552 C979 1.945 . S
C4588 C1580 1.509 . S
C4569 C334 1.537 . S
C4605 C165 0.781 . S
C4624 C490 0.835 . S
C4660 C1664 0.827 1_655 S
C4641 C306 0.865 . S
C4677 C130 1.677 . S
C4696 C643 1.690 . S
C4713 C327 1.278 . S
C4732 C1063 1.441 . S
C4768 C824 1.068 . S
C4749 C158 1.090 . S
C4785 C299 0.725 . S
C4804 C1246 0.734 . S
C4840 C992 1.415 . S
C4821 C137 1.409 . S
C4876 C1582 0.908 . S
C4857 C250 0.884 . S
C4912 C740 1.521 1_565 S
C4893 C222 1.557 . S
C4929 C235 1.117 . S
C4948 C1162 1.081 . S
C4984 C895 0.634 . S
C4965 C187 0.691 . S
C5001 C207 0.807 . S
C5020 C994 0.841 . S
C5037 C173 1.163 . S
C5056 C1666 1.287 . S
C5092 C1328 1.585 . S
C5073 C228 1.558 . S
C5128 C1399 0.865 . S
C5109 C270 0.846 . S
