# Generated by pormake.
# Topology gar, (4,6)-cn, num edge types: 1
# Building blocks:
#     Node 0, Type 0, BuildingBlock: UXUYUI_clean_sbu_0, # of connection points: 4
#     Node 1, Type 0, BuildingBlock: UXUYUI_clean_sbu_0, # of connection points: 4
#     Node 2, Type 0, BuildingBlock: UXUYUI_clean_sbu_0, # of connection points: 4
#     Node 3, Type 0, BuildingBlock: UXUYUI_clean_sbu_0, # of connection points: 4
#     Node 4, Type 0, BuildingBlock: UXUYUI_clean_sbu_0, # of connection points: 4
#     Node 5, Type 0, BuildingBlock: UXUYUI_clean_sbu_0, # of connection points: 4
#     Node 6, Type 0, BuildingBlock: UXUYUI_clean_sbu_0, # of connection points: 4
#     Node 7, Type 0, BuildingBlock: UXUYUI_clean_sbu_0, # of connection points: 4
#     Node 8, Type 0, BuildingBlock: UXUYUI_clean_sbu_0, # of connection points: 4
#     Node 9, Type 0, BuildingBlock: UXUYUI_clean_sbu_0, # of connection points: 4
#     Node 10, Type 0, BuildingBlock: UXUYUI_clean_sbu_0, # of connection points: 4
#     Node 11, Type 0, BuildingBlock: UXUYUI_clean_sbu_0, # of connection points: 4
#     Node 12, Type 0, BuildingBlock: UXUYUI_clean_sbu_0, # of connection points: 4
#     Node 13, Type 0, BuildingBlock: UXUYUI_clean_sbu_0, # of connection points: 4
#     Node 14, Type 0, BuildingBlock: UXUYUI_clean_sbu_0, # of connection points: 4
#     Node 15, Type 0, BuildingBlock: UXUYUI_clean_sbu_0, # of connection points: 4
#     Node 16, Type 0, BuildingBlock: UXUYUI_clean_sbu_0, # of connection points: 4
#     Node 17, Type 0, BuildingBlock: UXUYUI_clean_sbu_0, # of connection points: 4
#     Node 18, Type 0, BuildingBlock: UXUYUI_clean_sbu_0, # of connection points: 4
#     Node 19, Type 0, BuildingBlock: UXUYUI_clean_sbu_0, # of connection points: 4
#     Node 20, Type 0, BuildingBlock: UXUYUI_clean_sbu_0, # of connection points: 4
#     Node 21, Type 0, BuildingBlock: UXUYUI_clean_sbu_0, # of connection points: 4
#     Node 22, Type 0, BuildingBlock: UXUYUI_clean_sbu_0, # of connection points: 4
#     Node 23, Type 0, BuildingBlock: UXUYUI_clean_sbu_0, # of connection points: 4
#     Node 24, Type 1, BuildingBlock: KUMJIN_clean_sbu_0, # of connection points: 6
#     Node 25, Type 1, BuildingBlock: KUMJIN_clean_sbu_0, # of connection points: 6
#     Node 26, Type 1, BuildingBlock: KUMJIN_clean_sbu_0, # of connection points: 6
#     Node 27, Type 1, BuildingBlock: KUMJIN_clean_sbu_0, # of connection points: 6
#     Node 28, Type 1, BuildingBlock: KUMJIN_clean_sbu_0, # of connection points: 6
#     Node 29, Type 1, BuildingBlock: KUMJIN_clean_sbu_0, # of connection points: 6
#     Node 30, Type 1, BuildingBlock: KUMJIN_clean_sbu_0, # of connection points: 6
#     Node 31, Type 1, BuildingBlock: KUMJIN_clean_sbu_0, # of connection points: 6
#     Node 32, Type 1, BuildingBlock: KUMJIN_clean_sbu_0, # of connection points: 6
#     Node 33, Type 1, BuildingBlock: KUMJIN_clean_sbu_0, # of connection points: 6
#     Node 34, Type 1, BuildingBlock: KUMJIN_clean_sbu_0, # of connection points: 6
#     Node 35, Type 1, BuildingBlock: KUMJIN_clean_sbu_0, # of connection points: 6
#     Node 36, Type 1, BuildingBlock: KUMJIN_clean_sbu_0, # of connection points: 6
#     Node 37, Type 1, BuildingBlock: KUMJIN_clean_sbu_0, # of connection points: 6
#     Node 38, Type 1, BuildingBlock: KUMJIN_clean_sbu_0, # of connection points: 6
#     Node 39, Type 1, BuildingBlock: KUMJIN_clean_sbu_0, # of connection points: 6
#     Edge 40, Type (0, 1), BuildingBlock: AJUNOK_clean_linker_0, # of connection points: 2
#     Edge 41, Type (0, 1), BuildingBlock: AJUNOK_clean_linker_0, # of connection points: 2
#     Edge 42, Type (0, 1), BuildingBlock: AJUNOK_clean_linker_0, # of connection points: 2
#     Edge 43, Type (0, 1), BuildingBlock: AJUNOK_clean_linker_0, # of connection points: 2
#     Edge 44, Type (0, 1), BuildingBlock: AJUNOK_clean_linker_0, # of connection points: 2
#     Edge 45, Type (0, 1), BuildingBlock: AJUNOK_clean_linker_0, # of connection points: 2
#     Edge 46, Type (0, 1), BuildingBlock: AJUNOK_clean_linker_0, # of connection points: 2
#     Edge 47, Type (0, 1), BuildingBlock: AJUNOK_clean_linker_0, # of connection points: 2
#     Edge 48, Type (0, 1), BuildingBlock: AJUNOK_clean_linker_0, # of connection points: 2
#     Edge 49, Type (0, 1), BuildingBlock: AJUNOK_clean_linker_0, # of connection points: 2
#     Edge 50, Type (0, 1), BuildingBlock: AJUNOK_clean_linker_0, # of connection points: 2
#     Edge 51, Type (0, 1), BuildingBlock: AJUNOK_clean_linker_0, # of connection points: 2
#     Edge 52, Type (0, 1), BuildingBlock: AJUNOK_clean_linker_0, # of connection points: 2
#     Edge 53, Type (0, 1), BuildingBlock: AJUNOK_clean_linker_0, # of connection points: 2
#     Edge 54, Type (0, 1), BuildingBlock: AJUNOK_clean_linker_0, # of connection points: 2
#     Edge 55, Type (0, 1), BuildingBlock: AJUNOK_clean_linker_0, # of connection points: 2
#     Edge 56, Type (0, 1), BuildingBlock: AJUNOK_clean_linker_0, # of connection points: 2
#     Edge 57, Type (0, 1), BuildingBlock: AJUNOK_clean_linker_0, # of connection points: 2
#     Edge 58, Type (0, 1), BuildingBlock: AJUNOK_clean_linker_0, # of connection points: 2
#     Edge 59, Type (0, 1), BuildingBlock: AJUNOK_clean_linker_0, # of connection points: 2
#     Edge 60, Type (0, 1), BuildingBlock: AJUNOK_clean_linker_0, # of connection points: 2
#     Edge 61, Type (0, 1), BuildingBlock: AJUNOK_clean_linker_0, # of connection points: 2
#     Edge 62, Type (0, 1), BuildingBlock: AJUNOK_clean_linker_0, # of connection points: 2
#     Edge 63, Type (0, 1), BuildingBlock: AJUNOK_clean_linker_0, # of connection points: 2
#     Edge 64, Type (0, 1), BuildingBlock: AJUNOK_clean_linker_0, # of connection points: 2
#     Edge 65, Type (0, 1), BuildingBlock: AJUNOK_clean_linker_0, # of connection points: 2
#     Edge 66, Type (0, 1), BuildingBlock: AJUNOK_clean_linker_0, # of connection points: 2
#     Edge 67, Type (0, 1), BuildingBlock: AJUNOK_clean_linker_0, # of connection points: 2
#     Edge 68, Type (0, 1), BuildingBlock: AJUNOK_clean_linker_0, # of connection points: 2
#     Edge 69, Type (0, 1), BuildingBlock: AJUNOK_clean_linker_0, # of connection points: 2
#     Edge 70, Type (0, 1), BuildingBlock: AJUNOK_clean_linker_0, # of connection points: 2
#     Edge 71, Type (0, 1), BuildingBlock: AJUNOK_clean_linker_0, # of connection points: 2
#     Edge 72, Type (0, 1), BuildingBlock: AJUNOK_clean_linker_0, # of connection points: 2
#     Edge 73, Type (0, 1), BuildingBlock: AJUNOK_clean_linker_0, # of connection points: 2
#     Edge 74, Type (0, 1), BuildingBlock: AJUNOK_clean_linker_0, # of connection points: 2
#     Edge 75, Type (0, 1), BuildingBlock: AJUNOK_clean_linker_0, # of connection points: 2
#     Edge 76, Type (0, 1), BuildingBlock: AJUNOK_clean_linker_0, # of connection points: 2
#     Edge 77, Type (0, 1), BuildingBlock: AJUNOK_clean_linker_0, # of connection points: 2
#     Edge 78, Type (0, 1), BuildingBlock: AJUNOK_clean_linker_0, # of connection points: 2
#     Edge 79, Type (0, 1), BuildingBlock: AJUNOK_clean_linker_0, # of connection points: 2
#     Edge 80, Type (0, 1), BuildingBlock: AJUNOK_clean_linker_0, # of connection points: 2
#     Edge 81, Type (0, 1), BuildingBlock: AJUNOK_clean_linker_0, # of connection points: 2
#     Edge 82, Type (0, 1), BuildingBlock: AJUNOK_clean_linker_0, # of connection points: 2
#     Edge 83, Type (0, 1), BuildingBlock: AJUNOK_clean_linker_0, # of connection points: 2
#     Edge 84, Type (0, 1), BuildingBlock: AJUNOK_clean_linker_0, # of connection points: 2
#     Edge 85, Type (0, 1), BuildingBlock: AJUNOK_clean_linker_0, # of connection points: 2
#     Edge 86, Type (0, 1), BuildingBlock: AJUNOK_clean_linker_0, # of connection points: 2
#     Edge 87, Type (0, 1), BuildingBlock: AJUNOK_clean_linker_0, # of connection points: 2
#     Edge 88, Type (0, 1), BuildingBlock: AJUNOK_clean_linker_0, # of connection points: 2
#     Edge 89, Type (0, 1), BuildingBlock: AJUNOK_clean_linker_0, # of connection points: 2
#     Edge 90, Type (0, 1), BuildingBlock: AJUNOK_clean_linker_0, # of connection points: 2
#     Edge 91, Type (0, 1), BuildingBlock: AJUNOK_clean_linker_0, # of connection points: 2
#     Edge 92, Type (0, 1), BuildingBlock: AJUNOK_clean_linker_0, # of connection points: 2
#     Edge 93, Type (0, 1), BuildingBlock: AJUNOK_clean_linker_0, # of connection points: 2
#     Edge 94, Type (0, 1), BuildingBlock: AJUNOK_clean_linker_0, # of connection points: 2
#     Edge 95, Type (0, 1), BuildingBlock: AJUNOK_clean_linker_0, # of connection points: 2
#     Edge 96, Type (0, 1), BuildingBlock: AJUNOK_clean_linker_0, # of connection points: 2
#     Edge 97, Type (0, 1), BuildingBlock: AJUNOK_clean_linker_0, # of connection points: 2
#     Edge 98, Type (0, 1), BuildingBlock: AJUNOK_clean_linker_0, # of connection points: 2
#     Edge 99, Type (0, 1), BuildingBlock: AJUNOK_clean_linker_0, # of connection points: 2
#     Edge 100, Type (0, 1), BuildingBlock: AJUNOK_clean_linker_0, # of connection points: 2
#     Edge 101, Type (0, 1), BuildingBlock: AJUNOK_clean_linker_0, # of connection points: 2
#     Edge 102, Type (0, 1), BuildingBlock: AJUNOK_clean_linker_0, # of connection points: 2
#     Edge 103, Type (0, 1), BuildingBlock: AJUNOK_clean_linker_0, # of connection points: 2
#     Edge 104, Type (0, 1), BuildingBlock: AJUNOK_clean_linker_0, # of connection points: 2
#     Edge 105, Type (0, 1), BuildingBlock: AJUNOK_clean_linker_0, # of connection points: 2
#     Edge 106, Type (0, 1), BuildingBlock: AJUNOK_clean_linker_0, # of connection points: 2
#     Edge 107, Type (0, 1), BuildingBlock: AJUNOK_clean_linker_0, # of connection points: 2
#     Edge 108, Type (0, 1), BuildingBlock: AJUNOK_clean_linker_0, # of connection points: 2
#     Edge 109, Type (0, 1), BuildingBlock: AJUNOK_clean_linker_0, # of connection points: 2
#     Edge 110, Type (0, 1), BuildingBlock: AJUNOK_clean_linker_0, # of connection points: 2
#     Edge 111, Type (0, 1), BuildingBlock: AJUNOK_clean_linker_0, # of connection points: 2
#     Edge 112, Type (0, 1), BuildingBlock: AJUNOK_clean_linker_0, # of connection points: 2
#     Edge 113, Type (0, 1), BuildingBlock: AJUNOK_clean_linker_0, # of connection points: 2
#     Edge 114, Type (0, 1), BuildingBlock: AJUNOK_clean_linker_0, # of connection points: 2
#     Edge 115, Type (0, 1), BuildingBlock: AJUNOK_clean_linker_0, # of connection points: 2
#     Edge 116, Type (0, 1), BuildingBlock: AJUNOK_clean_linker_0, # of connection points: 2
#     Edge 117, Type (0, 1), BuildingBlock: AJUNOK_clean_linker_0, # of connection points: 2
#     Edge 118, Type (0, 1), BuildingBlock: AJUNOK_clean_linker_0, # of connection points: 2
#     Edge 119, Type (0, 1), BuildingBlock: AJUNOK_clean_linker_0, # of connection points: 2
#     Edge 120, Type (0, 1), BuildingBlock: AJUNOK_clean_linker_0, # of connection points: 2
#     Edge 121, Type (0, 1), BuildingBlock: AJUNOK_clean_linker_0, # of connection points: 2
#     Edge 122, Type (0, 1), BuildingBlock: AJUNOK_clean_linker_0, # of connection points: 2
#     Edge 123, Type (0, 1), BuildingBlock: AJUNOK_clean_linker_0, # of connection points: 2
#     Edge 124, Type (0, 1), BuildingBlock: AJUNOK_clean_linker_0, # of connection points: 2
#     Edge 125, Type (0, 1), BuildingBlock: AJUNOK_clean_linker_0, # of connection points: 2
#     Edge 126, Type (0, 1), BuildingBlock: AJUNOK_clean_linker_0, # of connection points: 2
#     Edge 127, Type (0, 1), BuildingBlock: AJUNOK_clean_linker_0, # of connection points: 2
#     Edge 128, Type (0, 1), BuildingBlock: AJUNOK_clean_linker_0, # of connection points: 2
#     Edge 129, Type (0, 1), BuildingBlock: AJUNOK_clean_linker_0, # of connection points: 2
#     Edge 130, Type (0, 1), BuildingBlock: AJUNOK_clean_linker_0, # of connection points: 2
#     Edge 131, Type (0, 1), BuildingBlock: AJUNOK_clean_linker_0, # of connection points: 2
#     Edge 132, Type (0, 1), BuildingBlock: AJUNOK_clean_linker_0, # of connection points: 2
#     Edge 133, Type (0, 1), BuildingBlock: AJUNOK_clean_linker_0, # of connection points: 2
#     Edge 134, Type (0, 1), BuildingBlock: AJUNOK_clean_linker_0, # of connection points: 2
#     Edge 135, Type (0, 1), BuildingBlock: AJUNOK_clean_linker_0, # of connection points: 2
# Relax obj value: 0.151
# Max RMSD: 0.325
# Mean RMSD: 0.197
data_MOF--net-gar--node1-UXUYUI_clean_sbu_0--node2-KUMJIN_clean_sbu_0--edge1-AJUNOK_clean_linker_0
_symmetry_space_group_name_H-M    P1
_symmetry_Int_Tables_number       1
_symmetry_cell_setting            triclinic
loop_
_symmetry_equiv_pos_as_xyz
'x, y, z'
_cell_length_a     59.628757
_cell_length_b     55.16795
_cell_length_c     55.102015
_cell_angle_alpha  100.80763
_cell_angle_beta   93.39672
_cell_angle_gamma 102.41293
loop_
_atom_site_label
_atom_site_type_symbol
_atom_site_fract_x
_atom_site_fract_y
_atom_site_fract_z
_atom_type_partial_charge
Li0 Li 0.10107 0.32407 0.36298 0.0
Li1 Li 0.12663 0.35064 0.39913 0.0
Li2 Li 0.14158 0.32486 0.36994 0.0
Li3 Li 0.11782 0.30519 0.39812 0.0
C4 C 0.14118 0.36326 0.3483 0.0
N5 N 0.16988 0.38386 0.31613 0.0
C6 C 0.16143 0.38161 0.35761 0.0
C7 C 0.13539 0.3556 0.32261 0.0
C8 C 0.17576 0.39172 0.34105 0.0
C9 C 0.15015 0.36621 0.30666 0.0
C10 C 0.08441 0.34022 0.41546 0.0
C11 C 0.07324 0.35033 0.45683 0.0
N12 N 0.06109 0.36628 0.44923 0.0
C13 C 0.07186 0.35674 0.40806 0.0
C14 C 0.08515 0.33698 0.44003 0.0
C15 C 0.06021 0.36978 0.42544 0.0
C16 C 0.05375 0.30767 0.34393 0.0
N17 N 0.07403 0.32449 0.34367 0.0
C18 C 0.05465 0.35079 0.32466 0.0
C19 C 0.07484 0.34556 0.33405 0.0
C20 C 0.03332 0.33462 0.32592 0.0
C21 C 0.03297 0.31234 0.33493 0.0
H22 H 0.05358 0.29154 0.35252 0.0
H23 H 0.09098 0.35924 0.33513 0.0
C24 C 0.12913 0.38669 0.44459 0.0
N25 N 0.1286 0.383 0.41945 0.0
C26 C 0.12531 0.40913 0.45814 0.0
C27 C 0.12099 0.42379 0.41981 0.0
C28 C 0.1252 0.40122 0.40703 0.0
C29 C 0.12017 0.42746 0.44554 0.0
H30 H 0.1309 0.37166 0.45401 0.0
H31 H 0.12415 0.39756 0.38701 0.0
C32 C 0.12293 0.27775 0.34373 0.0
N33 N 0.13975 0.24526 0.30887 0.0
C34 C 0.14001 0.26601 0.35107 0.0
C35 C 0.11416 0.27274 0.31877 0.0
C36 C 0.14839 0.24974 0.33311 0.0
C37 C 0.12293 0.25627 0.3014 0.0
C38 C 0.15993 0.34338 0.42826 0.0
C39 C 0.17612 0.36594 0.42851 0.0
C40 C 0.15595 0.33536 0.45057 0.0
C41 C 0.18792 0.38019 0.45108 0.0
C42 C 0.16816 0.35012 0.47275 0.0
N43 N 0.18373 0.37206 0.47255 0.0
C44 C 0.18901 0.33012 0.3682 0.0
C45 C 0.16791 0.31736 0.32836 0.0
C46 C 0.20978 0.33173 0.35769 0.0
N47 N 0.16864 0.32332 0.35352 0.0
C48 C 0.18829 0.3187 0.31704 0.0
C49 C 0.20959 0.32608 0.33176 0.0
H50 H 0.1892 0.3345 0.38812 0.0
H51 H 0.15156 0.31198 0.31701 0.0
C52 C 0.08909 0.27132 0.42131 0.0
N53 N 0.11114 0.27902 0.41606 0.0
C54 C 0.08389 0.25375 0.43652 0.0
C55 C 0.12403 0.25159 0.43971 0.0
C56 C 0.12843 0.26912 0.42431 0.0
C57 C 0.10161 0.24417 0.44639 0.0
H58 H 0.07569 0.27943 0.41428 0.0
H59 H 0.14578 0.27553 0.41962 0.0
O60 O 0.12713 0.35283 0.36425 0.0
O61 O 0.09592 0.32727 0.39873 0.0
O62 O 0.11466 0.29393 0.36092 0.0
O63 O 0.1483 0.32909 0.40627 0.0
H64 H 0.16606 0.38795 0.37741 0.0
H65 H 0.11998 0.34112 0.31503 0.0
H66 H 0.19156 0.40583 0.34801 0.0
H67 H 0.14601 0.36024 0.28676 0.0
H68 H 0.0737 0.34808 0.47592 0.0
H69 H 0.07123 0.35959 0.38916 0.0
H70 H 0.09501 0.32448 0.44612 0.0
H71 H 0.05049 0.3827 0.42002 0.0
H72 H 0.05564 0.36794 0.3175 0.0
H73 H 0.01679 0.29949 0.33627 0.0
H74 H 0.12504 0.4115 0.47808 0.0
H75 H 0.11688 0.43742 0.40947 0.0
H76 H 0.14691 0.26971 0.37036 0.0
H77 H 0.10086 0.28165 0.31288 0.0
H78 H 0.16177 0.2407 0.33845 0.0
H79 H 0.11642 0.25231 0.28198 0.0
H80 H 0.17946 0.37246 0.41148 0.0
H81 H 0.14335 0.31817 0.45089 0.0
H82 H 0.20039 0.39774 0.45152 0.0
H83 H 0.16515 0.3442 0.49015 0.0
H84 H 0.22585 0.33748 0.36972 0.0
H85 H 0.1873 0.31384 0.29703 0.0
H86 H 0.06641 0.2485 0.44135 0.0
H87 H 0.13805 0.24433 0.44675 0.0
Li88 Li 0.02104 0.79182 0.65114 0.0
Li89 Li 0.03967 0.77712 0.68492 0.0
Li90 Li 0.01382 0.74708 0.65112 0.0
Li91 Li 0.99779 0.7742 0.68188 0.0
C92 C 0.0508 0.76472 0.62601 0.0
N93 N 0.06528 0.7528 0.57943 0.0
C94 C 0.07343 0.76217 0.62361 0.0
C95 C 0.03555 0.76122 0.60472 0.0
C96 C 0.08042 0.75613 0.5999 0.0
C97 C 0.0432 0.75521 0.58134 0.0
C98 C 0.02631 0.81835 0.71229 0.0
C99 C 0.02304 0.81795 0.75564 0.0
N100 N 0.0314 0.84351 0.76132 0.0
C101 C 0.03483 0.84462 0.71854 0.0
C102 C 0.02038 0.80488 0.73097 0.0
C103 C 0.03732 0.85699 0.74345 0.0
C104 C 1.00697 0.81997 0.61778 0.0
N105 N 0.02554 0.81545 0.63014 0.0
C106 C 0.05142 0.84063 0.60824 0.0
C107 C 0.04749 0.82575 0.6261 0.0
C108 C 0.03256 0.84493 0.59456 0.0
C109 C 0.01012 0.83488 0.59984 0.0
H110 H 0.98973 0.81143 0.62139 0.0
H111 H 0.0619 0.82174 0.63624 0.0
C112 C 0.07627 0.75854 0.69342 0.0
N113 N 0.06683 0.77758 0.70438 0.0
C114 C 0.09533 0.75331 0.70523 0.0
C115 C 0.09497 0.7876 0.73963 0.0
C116 C 0.07588 0.79241 0.7269 0.0
C117 C 0.10452 0.76742 0.72893 0.0
H118 H 0.06862 0.74705 0.67556 0.0
H119 H 0.06811 0.80749 0.73523 0.0
C120 C 0.97129 0.75117 0.63191 0.0
N121 N 0.93229 0.71838 0.60517 0.0
C122 C 0.95714 0.73373 0.64308 0.0
C123 C 0.9655 0.7521 0.60719 0.0
C124 C 0.93753 0.71727 0.62924 0.0
C125 C 0.94574 0.73531 0.59397 0.0
C126 C 0.00974 0.72948 0.69961 0.0
C127 C 0.99328 0.70713 0.68933 0.0
C128 C 0.02141 0.73211 0.72305 0.0
C129 C 0.98865 0.68785 0.70279 0.0
C130 C 0.01628 0.7124 0.73593 0.0
N131 N 1.00014 0.69087 0.72562 0.0
C132 C 0.02668 0.70248 0.64356 0.0
C133 C 1.00151 0.70454 0.60937 0.0
C134 C 0.03055 0.67969 0.63112 0.0
N135 N 0.01248 0.71442 0.63259 0.0
C136 C 1.00506 0.68174 0.59609 0.0
C137 C 0.01994 0.66929 0.60698 0.0
H138 H 0.03577 0.71124 0.66167 0.0
H139 H 0.99098 0.71482 0.60071 0.0
C140 C 0.9624 0.79651 0.69896 0.0
N141 N 0.97196 0.77646 0.70003 0.0
C142 C 0.94235 0.79845 0.71022 0.0
C143 C 0.94279 0.7595 0.72414 0.0
C144 C 0.96292 0.75842 0.71277 0.0
C145 C 0.93197 0.77937 0.7224 0.0
H146 H 0.97011 0.81067 0.68886 0.0
H147 H 0.97084 0.74275 0.71353 0.0
O148 O 0.04361 0.77027 0.64912 0.0
O149 O 0.02367 0.80611 0.68793 0.0
O150 O 0.99077 0.76722 0.64499 0.0
O151 O 0.0147 0.74856 0.68669 0.0
H152 H 0.08549 0.76485 0.63988 0.0
H153 H 0.01797 0.76303 0.60621 0.0
H154 H 0.09787 0.75408 0.59777 0.0
H155 H 0.03156 0.75243 0.56472 0.0
H156 H 0.01852 0.80775 0.77027 0.0
H157 H 0.03948 0.85532 0.70428 0.0
H158 H 0.01391 0.78456 0.72656 0.0
H159 H 0.04393 0.87732 0.74856 0.0
H160 H 0.06898 0.84848 0.60496 0.0
H161 H 0.99519 0.83786 0.58965 0.0
H162 H 0.10267 0.73817 0.69596 0.0
H163 H 0.10181 0.79906 0.75781 0.0
H164 H 0.96128 0.73283 0.66218 0.0
H165 H 0.97626 0.76547 0.59822 0.0
H166 H 0.92648 0.7036 0.63764 0.0
H167 H 0.94113 0.73571 0.57478 0.0
H168 H 0.98423 0.7046 0.67112 0.0
H169 H 0.03429 0.74921 0.73124 0.0
H170 H 0.97596 0.67047 0.69507 0.0
H171 H 0.02514 0.71421 0.75411 0.0
H172 H 0.04267 0.67101 0.63978 0.0
H173 H 0.9969 0.67433 0.57728 0.0
H174 H 0.93471 0.81433 0.70887 0.0
H175 H 0.93528 0.7444 0.7333 0.0
Li176 Li 0.60333 0.82549 0.86695 0.0
Li177 Li 0.62842 0.85175 0.90086 0.0
Li178 Li 0.64521 0.82893 0.87042 0.0
Li179 Li 0.62204 0.80762 0.90031 0.0
C180 C 0.6277 0.85761 0.84133 0.0
N181 N 0.62645 0.86207 0.79208 0.0
C182 C 0.62873 0.88124 0.83505 0.0
C183 C 0.62598 0.8363 0.82243 0.0
C184 C 0.62807 0.8831 0.81009 0.0
C185 C 0.62542 0.83892 0.7977 0.0
C186 C 0.58879 0.83967 0.92148 0.0
C187 C 0.58068 0.84595 0.96431 0.0
N188 N 0.56919 0.86389 0.9604 0.0
C189 C 0.57669 0.85801 0.91785 0.0
C190 C 0.59071 0.83349 0.94488 0.0
C191 C 0.56701 0.87012 0.93778 0.0
C192 C 0.56088 0.80127 0.83588 0.0
N193 N 0.57586 0.82324 0.8474 0.0
C194 C 0.54992 0.84783 0.83681 0.0
C195 C 0.57097 0.84621 0.84771 0.0
C196 C 0.53381 0.82557 0.82544 0.0
C197 C 0.53951 0.80203 0.82443 0.0
H198 H 0.56521 0.78327 0.83626 0.0
H199 H 0.5832 0.8633 0.85723 0.0
C200 C 0.62802 0.90222 0.9104 0.0
N201 N 0.63095 0.88346 0.92222 0.0
C202 C 0.62387 0.92452 0.92365 0.0
C203 C 0.62728 0.90849 0.96136 0.0
C204 C 0.63133 0.88639 0.94731 0.0
C205 C 0.62276 0.92741 0.94927 0.0
H206 H 0.62738 0.89921 0.8905 0.0
H207 H 0.63298 0.87091 0.95618 0.0
C208 C 0.62392 0.77513 0.85057 0.0
N209 N 0.63236 0.73018 0.82561 0.0
C210 C 0.6373 0.76213 0.86261 0.0
C211 C 0.61449 0.76504 0.82597 0.0
C212 C 0.64147 0.7395 0.84963 0.0
C213 C 0.61906 0.74237 0.81363 0.0
C214 C 0.66768 0.85057 0.9235 0.0
C215 C 0.68161 0.8709 0.91573 0.0
C216 C 0.66961 0.84901 0.94855 0.0
C217 C 0.69716 0.88946 0.9332 0.0
C218 C 0.68537 0.86797 0.96545 0.0
N219 N 0.69869 0.88763 0.95749 0.0
C220 C 0.68108 0.85085 0.8438 0.0
C221 C 0.68407 0.8116 0.85361 0.0
C222 C 0.7014 0.85258 0.83231 0.0
N223 N 0.67243 0.83021 0.85351 0.0
C224 C 0.70478 0.81288 0.84288 0.0
C225 C 0.71343 0.83336 0.83163 0.0
H226 H 0.67266 0.86643 0.84551 0.0
H227 H 0.67766 0.79613 0.86264 0.0
C228 C 0.59418 0.76853 0.9175 0.0
N229 N 0.61633 0.782 0.91903 0.0
C230 C 0.58782 0.75245 0.93391 0.0
C231 C 0.6274 0.76371 0.95248 0.0
C232 C 0.63304 0.77941 0.93555 0.0
C233 C 0.60439 0.75056 0.95223 0.0
H234 H 0.58129 0.7711 0.90415 0.0
H235 H 0.65055 0.79021 0.93615 0.0
O236 O 0.62802 0.85553 0.8658 0.0
O237 O 0.5987 0.82783 0.90227 0.0
O238 O 0.6192 0.79703 0.86307 0.0
O239 O 0.65222 0.83236 0.90666 0.0
H240 H 0.63004 0.89807 0.84922 0.0
H241 H 0.62539 0.81797 0.82672 0.0
H242 H 0.62885 0.90126 0.80504 0.0
H243 H 0.62421 0.82254 0.78297 0.0
H244 H 0.58216 0.84145 0.98254 0.0
H245 H 0.57509 0.86315 0.89996 0.0
H246 H 0.60011 0.81951 0.94815 0.0
H247 H 0.55784 0.88454 0.93529 0.0
H248 H 0.54604 0.86626 0.83768 0.0
H249 H 0.52731 0.78454 0.81574 0.0
H250 H 0.62049 0.93887 0.91385 0.0
H251 H 0.62614 0.91006 0.98112 0.0
H252 H 0.64455 0.76956 0.8817 0.0
H253 H 0.60366 0.77455 0.81652 0.0
H254 H 0.65193 0.72933 0.85866 0.0
H255 H 0.61196 0.73441 0.79456 0.0
H256 H 0.68023 0.87248 0.89646 0.0
H257 H 0.65876 0.83365 0.955 0.0
H258 H 0.70797 0.90537 0.92746 0.0
H259 H 0.68691 0.86711 0.98492 0.0
H260 H 0.70803 0.86916 0.82474 0.0
H261 H 0.71399 0.79806 0.84349 0.0
H262 H 0.57004 0.74204 0.9326 0.0
H263 H 0.64072 0.76263 0.96622 0.0
Li264 Li 0.51735 0.28988 0.15161 0.0
Li265 Li 0.5374 0.2746 0.18489 0.0
Li266 Li 0.51187 0.24528 0.15086 0.0
Li267 Li 0.49536 0.2697 0.18248 0.0
C268 C 0.54872 0.25953 0.12748 0.0
N269 N 0.56299 0.23659 0.08395 0.0
C270 C 0.56729 0.24786 0.12829 0.0
C271 C 0.53751 0.25967 0.1045 0.0
C272 C 0.5742 0.23631 0.10609 0.0
C273 C 0.54498 0.24797 0.08272 0.0
C274 C 0.52194 0.31445 0.21326 0.0
C275 C 0.52229 0.31307 0.25676 0.0
N276 N 0.52551 0.33874 0.26243 0.0
C277 C 0.52522 0.3408 0.2195 0.0
C278 C 0.52047 0.30044 0.23201 0.0
C279 C 0.52702 0.35274 0.24448 0.0
C280 C 0.50335 0.31912 0.11869 0.0
N281 N 0.52143 0.31418 0.13153 0.0
C282 C 0.54842 0.33936 0.11077 0.0
C283 C 0.54364 0.32425 0.12826 0.0
C284 C 0.53015 0.34415 0.09656 0.0
C285 C 0.50736 0.33431 0.10104 0.0
H286 H 0.48587 0.31069 0.12166 0.0
H287 H 0.55761 0.31967 0.13859 0.0
C288 C 0.57227 0.25517 0.19883 0.0
N289 N 0.56495 0.27699 0.20451 0.0
C290 C 0.59247 0.25269 0.21091 0.0
C291 C 0.59722 0.29519 0.23512 0.0
C292 C 0.57691 0.29699 0.22216 0.0
C293 C 0.6052 0.27276 0.22943 0.0
H294 H 0.56229 0.23964 0.18478 0.0
H295 H 0.5707 0.31419 0.22626 0.0
C296 C 0.4694 0.24899 0.13041 0.0
N297 N 0.43218 0.21806 0.09905 0.0
C298 C 0.45287 0.23186 0.13951 0.0
C299 C 0.46672 0.25081 0.10548 0.0
C300 C 0.43425 0.21627 0.12333 0.0
C301 C 0.44787 0.23489 0.08988 0.0
C302 C 0.5063 0.22463 0.19701 0.0
C303 C 0.4877 0.20489 0.18556 0.0
C304 C 0.5176 0.2235 0.21959 0.0
C305 C 0.48053 0.18445 0.19708 0.0
C306 C 0.50987 0.20275 0.23053 0.0
N307 N 0.49164 0.18383 0.21916 0.0
C308 C 0.52416 0.2002 0.14186 0.0
C309 C 0.50179 0.20508 0.10682 0.0
C310 C 0.52875 0.17819 0.12856 0.0
N311 N 0.511 0.21321 0.13091 0.0
C312 C 0.50605 0.18306 0.09268 0.0
C313 C 0.51987 0.16958 0.10361 0.0
H314 H 0.53212 0.20763 0.16063 0.0
H315 H 0.49232 0.21628 0.09813 0.0
C316 C 0.4543 0.28252 0.19433 0.0
N317 N 0.4696 0.26942 0.20112 0.0
C318 C 0.4338 0.28154 0.20537 0.0
C319 C 0.44532 0.25397 0.23054 0.0
C320 C 0.46582 0.25585 0.21931 0.0
C321 C 0.42875 0.26649 0.22323 0.0
H322 H 0.4579 0.29337 0.18 0.0
H323 H 0.47843 0.24612 0.22493 0.0
O324 O 0.54108 0.27009 0.14904 0.0
O325 O 0.51998 0.30255 0.18887 0.0
O326 O 0.48774 0.26447 0.14594 0.0
O327 O 0.51371 0.24487 0.18611 0.0
H328 H 0.57623 0.24758 0.14584 0.0
H329 H 0.5229 0.26826 0.10347 0.0
H330 H 0.58846 0.22708 0.10646 0.0
H331 H 0.53635 0.24778 0.06483 0.0
H332 H 0.52117 0.30245 0.27145 0.0
H333 H 0.52637 0.3519 0.20518 0.0
H334 H 0.518 0.28007 0.22754 0.0
H335 H 0.52959 0.37313 0.2496 0.0
H336 H 0.56622 0.34653 0.10781 0.0
H337 H 0.49283 0.33807 0.09083 0.0
H338 H 0.59811 0.2352 0.20571 0.0
H339 H 0.60633 0.31094 0.24959 0.0
H340 H 0.45429 0.2307 0.15888 0.0
H341 H 0.47925 0.26412 0.09816 0.0
H342 H 0.4214 0.20282 0.1301 0.0
H343 H 0.44573 0.23588 0.07049 0.0
H344 H 0.47908 0.20518 0.16786 0.0
H345 H 0.53209 0.23857 0.22864 0.0
H346 H 0.46616 0.16904 0.18843 0.0
H347 H 0.51837 0.20169 0.24807 0.0
H348 H 0.54014 0.16876 0.13735 0.0
H349 H 0.49926 0.17707 0.07329 0.0
H350 H 0.42199 0.29237 0.19979 0.0
H351 H 0.44228 0.24233 0.24434 0.0
Li352 Li 0.10419 0.84192 0.10569 0.0
Li353 Li 0.12974 0.82291 0.13806 0.0
Li354 Li 0.10028 0.79143 0.10228 0.0
Li355 Li 0.08631 0.81846 0.13725 0.0
C356 C 0.14384 0.82017 0.0829 0.0
N357 N 0.17534 0.82136 0.04814 0.0
C358 C 0.1659 0.83602 0.08902 0.0
C359 C 0.13779 0.80484 0.05918 0.0
C360 C 0.18159 0.83637 0.07116 0.0
C361 C 0.15396 0.80576 0.04184 0.0
C362 C 0.11139 0.86741 0.16473 0.0
C363 C 0.12244 0.88312 0.20863 0.0
N364 N 0.11089 0.90179 0.20805 0.0
C365 C 0.09976 0.88684 0.16451 0.0
C366 C 0.12296 0.8656 0.1869 0.0
C367 C 0.09965 0.904 0.18664 0.0
C368 C 0.07987 0.88091 0.09456 0.0
N369 N 0.09983 0.87313 0.09013 0.0
C370 C 0.11084 0.9082 0.0686 0.0
C371 C 0.11512 0.88645 0.07703 0.0
C372 C 0.09071 0.91716 0.07375 0.0
C373 C 0.07509 0.90257 0.08674 0.0
H374 H 0.06752 0.87046 0.10466 0.0
H375 H 0.13096 0.88055 0.07328 0.0
C376 C 0.15926 0.80021 0.166 0.0
N377 N 0.15926 0.82241 0.1584 0.0
C378 C 0.17837 0.79714 0.18048 0.0
C379 C 0.19802 0.83961 0.17908 0.0
C380 C 0.17833 0.84201 0.16478 0.0
C381 C 0.19837 0.81685 0.18725 0.0
H382 H 0.14432 0.78456 0.16076 0.0
H383 H 0.17835 0.85964 0.15886 0.0
C384 C 0.06497 0.80565 0.07725 0.0
N385 N 0.04344 0.79162 0.02931 0.0
C386 C 0.04225 0.79123 0.07249 0.0
C387 C 0.07671 0.81302 0.05766 0.0
C388 C 0.03168 0.78428 0.04811 0.0
C389 C 0.06553 0.80574 0.03355 0.0
C390 C 0.09409 0.77921 0.15468 0.0
C391 C 0.07754 0.75661 0.14579 0.0
C392 C 0.09908 0.78853 0.18027 0.0
C393 C 0.06618 0.7437 0.16271 0.0
C394 C 0.08732 0.77507 0.19658 0.0
N395 N 0.07125 0.75313 0.18754 0.0
C396 C 0.11403 0.74391 0.09181 0.0
C397 C 0.07858 0.7403 0.06851 0.0
C398 C 0.1123 0.71759 0.08446 0.0
N399 N 0.09716 0.75493 0.08424 0.0
C400 C 0.07625 0.71379 0.06057 0.0
C401 C 0.09294 0.70176 0.06907 0.0
H402 H 0.12857 0.75544 0.10453 0.0
H403 H 0.065 0.74886 0.06282 0.0
C404 C 0.06007 0.83224 0.17984 0.0
N405 N 0.06016 0.81622 0.15777 0.0
C406 C 0.04074 0.82924 0.19331 0.0
C407 C 0.02188 0.79305 0.16156 0.0
C408 C 0.04143 0.79694 0.14854 0.0
C409 C 0.02134 0.80929 0.18433 0.0
H410 H 0.07498 0.84724 0.18733 0.0
H411 H 0.04177 0.78428 0.1311 0.0
O412 O 0.12835 0.81934 0.1002 0.0
O413 O 0.11196 0.85059 0.14327 0.0
O414 O 0.0757 0.81225 0.10094 0.0
O415 O 0.10489 0.79253 0.13842 0.0
H416 H 0.17084 0.8479 0.10737 0.0
H417 H 0.12082 0.7923 0.05426 0.0
H418 H 0.19875 0.84854 0.0756 0.0
H419 H 0.14953 0.79402 0.02339 0.0
H420 H 0.13124 0.88189 0.22594 0.0
H421 H 0.09085 0.88861 0.1475 0.0
H422 H 0.13219 0.8508 0.18734 0.0
H423 H 0.09065 0.91908 0.18678 0.0
H424 H 0.12362 0.91838 0.05874 0.0
H425 H 0.05907 0.90784 0.09095 0.0
H426 H 0.1776 0.77916 0.186 0.0
H427 H 0.21271 0.85563 0.18399 0.0
H428 H 0.03292 0.78533 0.08743 0.0
H429 H 0.09429 0.8242 0.06102 0.0
H430 H 0.01413 0.77303 0.04413 0.0
H431 H 0.07442 0.81128 0.0182 0.0
H432 H 0.07332 0.74926 0.12604 0.0
H433 H 0.11175 0.80608 0.18743 0.0
H434 H 0.05327 0.72624 0.1561 0.0
H435 H 0.09093 0.78211 0.21643 0.0
H436 H 0.1259 0.70962 0.09131 0.0
H437 H 0.06092 0.70263 0.04881 0.0
H438 H 0.04118 0.84207 0.2109 0.0
H439 H 1.00728 0.77751 0.15381 0.0
Li440 Li 0.53238 0.80292 0.45314 0.0
Li441 Li 0.50332 0.77261 0.41835 0.0
Li442 Li 0.52881 0.75263 0.44955 0.0
Li443 Li 0.54692 0.77494 0.41677 0.0
C444 C 0.493 0.78364 0.47536 0.0
N445 N 0.47026 0.80209 0.5144 0.0
C446 C 0.47525 0.79574 0.47114 0.0
C447 C 0.49915 0.78081 0.49935 0.0
C448 C 0.46396 0.80496 0.49115 0.0
C449 C 0.48746 0.79031 0.51886 0.0
C450 C 0.52846 0.8144 0.39783 0.0
C451 C 0.53097 0.81639 0.35468 0.0
N452 N 0.52736 0.84027 0.35955 0.0
C453 C 0.52488 0.83901 0.40242 0.0
C454 C 0.53159 0.80302 0.37377 0.0
C455 C 0.52433 0.85175 0.38282 0.0
C456 C 0.55523 0.85593 0.46193 0.0
N457 N 0.53857 0.84002 0.4711 0.0
C458 C 0.52918 0.87679 0.4965 0.0
C459 C 0.52585 0.85014 0.48849 0.0
C460 C 0.54561 0.89362 0.48647 0.0
C461 C 0.55889 0.88252 0.46917 0.0
H462 H 0.56513 0.84797 0.44798 0.0
H463 H 0.51252 0.83771 0.4957 0.0
C464 C 0.45789 0.75209 0.38534 0.0
N465 N 0.47344 0.77308 0.39848 0.0
C466 C 0.43817 0.75438 0.37099 0.0
C467 C 0.45059 0.79968 0.38348 0.0
C468 C 0.46965 0.79655 0.39799 0.0
C469 C 0.43443 0.7785 0.36955 0.0
H470 H 0.4608 0.73346 0.38571 0.0
H471 H 0.48152 0.81313 0.40892 0.0
C472 C 0.57291 0.78135 0.47123 0.0
N473 N 0.60538 0.77898 0.50802 0.0
C474 C 0.59206 0.77164 0.46494 0.0
C475 C 0.5703 0.79001 0.49616 0.0
C476 C 0.60827 0.77053 0.48384 0.0
C477 C 0.58691 0.78863 0.51451 0.0
C478 C 0.51962 0.72681 0.3902 0.0
C479 C 0.52705 0.70447 0.39036 0.0
C480 C 0.51074 0.73128 0.36784 0.0
C481 C 0.526 0.68724 0.36799 0.0
C482 C 0.50995 0.71358 0.34587 0.0
N483 N 0.51757 0.69213 0.34639 0.0
C484 C 0.5199 0.70968 0.48018 0.0
C485 C 0.55257 0.71236 0.45812 0.0
C486 C 0.52433 0.68789 0.48841 0.0
N487 N 0.53382 0.7216 0.46494 0.0
C488 C 0.55756 0.69081 0.4659 0.0
C489 C 0.54324 0.67754 0.481 0.0
H490 H 0.505 0.7167 0.48578 0.0
H491 H 0.5637 0.72149 0.44607 0.0
C492 C 0.58577 0.79941 0.3955 0.0
N493 N 0.5728 0.77611 0.39644 0.0
C494 C 0.60505 0.8018 0.38196 0.0
C495 C 0.59764 0.7562 0.37073 0.0
C496 C 0.57856 0.75468 0.38457 0.0
C497 C 0.61129 0.78 0.36931 0.0
H498 H 0.58111 0.81623 0.40528 0.0
H499 H 0.56853 0.73633 0.38598 0.0
O500 O 0.50422 0.77448 0.45605 0.0
O501 O 0.52922 0.80166 0.41682 0.0
O502 O 0.55674 0.78233 0.45305 0.0
O503 O 0.52042 0.74387 0.41192 0.0
H504 H 0.4703 0.79804 0.45265 0.0
H505 H 0.51283 0.77139 0.50283 0.0
H506 H 0.45022 0.81442 0.48821 0.0
H507 H 0.49205 0.78832 0.53756 0.0
H508 H 0.53342 0.80781 0.33599 0.0
H509 H 0.5222 0.84806 0.42085 0.0
H510 H 0.53475 0.78418 0.36991 0.0
H511 H 0.52145 0.87074 0.3861 0.0
H512 H 0.51825 0.8841 0.50966 0.0
H513 H 0.5719 0.89437 0.46089 0.0
H514 H 0.42623 0.73742 0.36066 0.0
H515 H 0.44842 0.81865 0.38335 0.0
H516 H 0.5943 0.76491 0.44568 0.0
H517 H 0.55557 0.79768 0.50125 0.0
H518 H 0.62314 0.76295 0.47928 0.0
H519 H 0.58512 0.79522 0.5339 0.0
H520 H 0.53367 0.70052 0.40753 0.0
H521 H 0.50436 0.74814 0.36746 0.0
H522 H 0.53185 0.66996 0.36782 0.0
H523 H 0.50321 0.71686 0.32841 0.0
H524 H 0.51255 0.6788 0.49997 0.0
H525 H 0.57274 0.68459 0.45994 0.0
H526 H 0.61473 0.82056 0.38106 0.0
H527 H 0.60183 0.73888 0.36141 0.0
Li528 Li 0.60631 0.34328 0.60459 0.0
Li529 Li 0.63203 0.32397 0.63768 0.0
Li530 Li 0.60414 0.29388 0.60242 0.0
Li531 Li 0.58787 0.31855 0.63606 0.0
C532 C 0.63962 0.31092 0.57879 0.0
N533 N 0.65384 0.28613 0.53622 0.0
C534 C 0.65794 0.29902 0.58043 0.0
C535 C 0.62851 0.31024 0.55555 0.0
C536 C 0.66488 0.28658 0.55868 0.0
C537 C 0.63596 0.2976 0.53423 0.0
C538 C 0.60576 0.36326 0.66403 0.0
C539 C 0.60301 0.36898 0.70813 0.0
N540 N 0.58965 0.38584 0.70645 0.0
C541 C 0.59196 0.38059 0.6627 0.0
C542 C 0.61131 0.35734 0.68688 0.0
C543 C 0.58401 0.39183 0.68438 0.0
C544 C 0.58988 0.37271 0.56718 0.0
N545 N 0.60286 0.37492 0.58922 0.0
C546 C 0.60838 0.42085 0.59495 0.0
C547 C 0.61218 0.39881 0.60285 0.0
C548 C 0.59477 0.41926 0.57247 0.0
C549 C 0.5857 0.39434 0.55856 0.0
H550 H 0.58214 0.35405 0.55626 0.0
H551 H 0.62232 0.40096 0.62038 0.0
C552 C 0.66964 0.30277 0.65331 0.0
N553 N 0.66165 0.3244 0.65839 0.0
C554 C 0.6892 0.29988 0.6672 0.0
C555 C 0.69237 0.34139 0.69207 0.0
C556 C 0.67271 0.34357 0.67757 0.0
C557 C 0.70118 0.31934 0.68697 0.0
H558 H 0.66049 0.2873 0.63864 0.0
H559 H 0.66618 0.36056 0.68192 0.0
C560 C 0.55999 0.29719 0.5858 0.0
N561 N 0.52195 0.26411 0.55754 0.0
C562 C 0.54524 0.27972 0.59644 0.0
C563 C 0.55542 0.29779 0.56078 0.0
C564 C 0.5261 0.26316 0.58184 0.0
C565 C 0.53608 0.28093 0.54681 0.0
C566 C 0.60187 0.27553 0.6511 0.0
C567 C 0.58405 0.25421 0.64153 0.0
C568 C 0.61408 0.2775 0.6741 0.0
C569 C 0.57878 0.23514 0.65514 0.0
C570 C 0.60826 0.25803 0.68716 0.0
N571 N 0.59089 0.23742 0.67748 0.0
C572 C 0.61617 0.2451 0.59435 0.0
C573 C 0.5846 0.24354 0.56584 0.0
C574 C 0.61373 0.21865 0.58712 0.0
N575 N 0.60142 0.25722 0.58423 0.0
C576 C 0.58171 0.21697 0.55784 0.0
C577 C 0.59609 0.20384 0.56882 0.0
H578 H 0.62935 0.25582 0.60906 0.0
H579 H 0.57273 0.25289 0.55788 0.0
C580 C 0.54519 0.32997 0.64922 0.0
N581 N 0.56121 0.31746 0.65576 0.0
C582 C 0.5245 0.3283 0.66036 0.0
C583 C 0.53694 0.30104 0.68511 0.0
C584 C 0.55759 0.30355 0.67375 0.0
C585 C 0.51984 0.31332 0.67835 0.0
H586 H 0.54826 0.34085 0.63483 0.0
H587 H 0.57035 0.29374 0.67892 0.0
O588 O 0.63222 0.32275 0.59984 0.0
O589 O 0.61318 0.35146 0.64298 0.0
O590 O 0.57891 0.31346 0.59972 0.0
O591 O 0.60752 0.29433 0.63799 0.0
H592 H 0.66672 0.2994 0.59829 0.0
H593 H 0.61421 0.31928 0.55404 0.0
H594 H 0.67905 0.27728 0.55964 0.0
H595 H 0.6275 0.29687 0.5161 0.0
H596 H 0.60712 0.36454 0.72594 0.0
H597 H 0.58722 0.38507 0.64509 0.0
H598 H 0.62172 0.34369 0.68812 0.0
H599 H 0.57326 0.40523 0.68364 0.0
H600 H 0.61614 0.43919 0.60663 0.0
H601 H 0.5747 0.39133 0.54143 0.0
H602 H 0.69454 0.28215 0.66277 0.0
H603 H 0.70071 0.35698 0.7071 0.0
H604 H 0.54851 0.2789 0.61573 0.0
H605 H 0.56685 0.31085 0.55213 0.0
H606 H 0.51456 0.24954 0.58984 0.0
H607 H 0.53238 0.28114 0.5274 0.0
H608 H 0.57445 0.25233 0.62375 0.0
H609 H 0.62782 0.29395 0.68185 0.0
H610 H 0.56508 0.2185 0.64793 0.0
H611 H 0.61755 0.2593 0.70499 0.0
H612 H 0.6254 0.20976 0.59621 0.0
H613 H 0.56759 0.20667 0.54397 0.0
H614 H 0.51206 0.33831 0.65455 0.0
H615 H 0.53412 0.28873 0.69833 0.0
Li616 Li 0.03465 0.30236 0.95303 0.0
Li617 Li 1.00564 0.27136 0.91786 0.0
Li618 Li 0.03216 0.25264 0.9496 0.0
Li619 Li 0.04907 0.27579 0.91824 0.0
C620 C 0.99539 0.28304 0.97459 0.0
N621 N 0.97266 0.30307 0.0129 0.0
C622 C 0.9792 0.297 0.97005 0.0
C623 C 0.99985 0.27898 0.9985 0.0
C624 C 0.96794 0.30707 0.9897 0.0
C625 C 0.98821 0.28933 0.01765 0.0
C626 C 0.04049 0.31407 0.90016 0.0
C627 C 0.04448 0.31829 0.85778 0.0
N628 N 0.06272 0.33841 0.86583 0.0
C629 C 0.05923 0.3348 0.90805 0.0
C630 C 0.03301 0.30571 0.87486 0.0
C631 C 0.07024 0.34686 0.89039 0.0
C632 C 0.05634 0.35393 0.98622 0.0
N633 N 0.03775 0.33917 0.97057 0.0
C634 C 0.02268 0.37651 0.96992 0.0
C635 C 0.02102 0.3502 0.96266 0.0
C636 C 0.04193 0.39242 0.98542 0.0
C637 C 0.05863 0.38046 0.99403 0.0
H638 H 0.07001 0.34547 0.99191 0.0
H639 H 1.00664 0.33871 0.94974 0.0
C640 C 0.9573 0.25125 0.8908 0.0
N641 N 0.97574 0.27145 0.89827 0.0
C642 C 0.93736 0.25353 0.87685 0.0
C643 C 0.9554 0.29723 0.87839 0.0
C644 C 0.97476 0.29423 0.89247 0.0
C645 C 0.93625 0.27673 0.87005 0.0
H646 H 0.958 0.23323 0.89551 0.0
H647 H 0.98915 0.31035 0.89878 0.0
C648 C 0.07199 0.28364 0.9763 0.0
N649 N 0.09627 0.28438 0.0208 0.0
C650 C 0.09202 0.27435 0.97643 0.0
C651 C 0.06433 0.29336 0.99875 0.0
C652 C 0.10404 0.27485 0.99913 0.0
C653 C 0.07686 0.29358 0.02107 0.0
C654 C 0.02729 0.22916 0.89014 0.0
C655 C 0.04436 0.2153 0.88966 0.0
C656 C 0.01365 0.228 0.86824 0.0
C657 C 0.04765 0.20062 0.86715 0.0
C658 C 0.01745 0.21306 0.84612 0.0
N659 N 0.03425 0.19982 0.84604 0.0
C660 C 0.02185 0.20854 0.97844 0.0
C661 C 0.05662 0.21348 0.95998 0.0
C662 C 0.02607 0.18669 0.98666 0.0
N663 N 0.03694 0.22162 0.96498 0.0
C664 C 0.06141 0.19183 0.96773 0.0
C665 C 0.04595 0.17743 0.981 0.0
H666 H 1.00619 0.21467 0.98257 0.0
H667 H 0.06878 0.22364 0.94953 0.0
C668 C 0.09627 0.29029 0.90973 0.0
N669 N 0.07509 0.27819 0.89762 0.0
C670 C 0.11588 0.29373 0.89678 0.0
C671 C 0.09184 0.27214 0.85891 0.0
C672 C 0.07262 0.26935 0.87256 0.0
C673 C 0.11386 0.28466 0.87097 0.0
H674 H 0.09794 0.29761 0.92953 0.0
H675 H 0.0557 0.26048 0.86296 0.0
O676 O 1.00677 0.27331 0.95567 0.0
O677 O 0.03006 0.30142 0.91707 0.0
O678 O 0.05979 0.28292 0.95427 0.0
O679 O 0.02366 0.24356 0.91194 0.0
H680 H 0.97543 0.3001 0.95157 0.0
H681 H 0.01219 0.26798 1.00222 0.0
H682 H 0.95545 0.31804 0.98651 0.0
H683 H 0.99155 0.28644 0.03629 0.0
H684 H 0.03898 0.31196 0.83812 0.0
H685 H 0.06534 0.34132 0.92758 0.0
H686 H 0.01871 0.28947 0.86846 0.0
H687 H 0.08484 0.36287 0.89619 0.0
H688 H 1.0091 0.38441 0.96291 0.0
H689 H 0.07393 0.39168 1.00578 0.0
H690 H 0.92312 0.23713 0.871 0.0
H691 H 0.95539 0.31566 0.87426 0.0
H692 H 0.09815 0.26671 0.95918 0.0
H693 H 0.04891 0.30069 0.99894 0.0
H694 H 0.11953 0.26764 0.99953 0.0
H695 H 0.07113 0.30106 0.0386 0.0
H696 H 0.05508 0.21603 0.90641 0.0
H697 H 1.00035 0.23861 0.8683 0.0
H698 H 0.06089 0.18989 0.86647 0.0
H699 H 1.00708 0.21204 0.82901 0.0
H700 H 0.01341 0.17666 0.99678 0.0
H701 H 0.07731 0.18642 0.96322 0.0
H702 H 0.1325 0.30337 0.9069 0.0
H703 H 0.0894 0.26513 0.83899 0.0
Li704 Li 0.44266 0.055 0.33276 0.0
Li705 Li 0.40724 0.02641 0.31045 0.0
Li706 Li 0.43606 0.0506 0.28881 0.0
Li707 Li 0.41224 0.07129 0.31556 0.0
C708 C 0.45192 1.00955 0.29395 0.0
N709 N 0.47706 0.98065 0.26531 0.0
C710 C 0.44135 0.98499 0.28111 0.0
C711 C 0.47538 0.01927 0.29248 0.0
C712 C 0.45434 0.97071 0.26668 0.0
C713 C 0.48775 1.00441 0.27782 0.0
C714 C 0.39793 0.03952 0.35778 0.0
C715 C 0.36109 0.01941 0.36907 0.0
N716 N 0.37207 0.01334 0.38865 0.0
C717 C 0.40885 0.0332 0.37808 0.0
C718 C 0.37386 0.03273 0.3533 0.0
C719 C 0.39546 0.01994 0.39346 0.0
C720 C 0.47227 0.07891 0.37724 0.0
N721 N 0.46576 0.0582 0.35842 0.0
C722 C 0.49264 0.038 0.37529 0.0
C723 C 0.47541 0.03791 0.35728 0.0
C724 C 0.49975 0.05907 0.39479 0.0
C725 C 0.48964 0.07987 0.39571 0.0
H726 H 0.46367 0.09436 0.37819 0.0
H727 H 0.46928 0.02126 0.34281 0.0
C728 C 0.37712 0.98405 0.28262 0.0
N729 N 0.38759 0.99403 0.30599 0.0
C730 C 0.36589 0.95853 0.27602 0.0
C731 C 0.37551 0.95435 0.31804 0.0
C732 C 0.3872 0.97976 0.3236 0.0
C733 C 0.36491 0.94328 0.29386 0.0
H734 H 0.37874 0.99552 0.26865 0.0
H735 H 0.39676 0.98772 0.34161 0.0
C736 C 0.4631 0.10134 0.32674 0.0
N737 N 0.49821 0.13938 0.35436 0.0
C738 C 0.45796 0.12239 0.34183 0.0
C739 C 0.48611 0.09972 0.3256 0.0
C740 C 0.47596 0.14142 0.35564 0.0
C741 C 0.5036 0.1191 0.33976 0.0
C742 C 0.38548 0.05232 0.27233 0.0
C743 C 0.39077 0.06681 0.2543 0.0
C744 C 0.36274 0.04576 0.27802 0.0
C745 C 0.37315 0.07484 0.24246 0.0
C746 C 0.3456 0.05402 0.26566 0.0
N747 N 0.35112 0.06832 0.24834 0.0
C748 C 0.44459 0.02697 0.2423 0.0
C749 C 0.46915 0.0675 0.25873 0.0
C750 C 0.45932 0.02201 0.2243 0.0
N751 N 0.4505 0.04882 0.25975 0.0
C752 C 0.48417 0.06352 0.24084 0.0
C753 C 0.47992 0.03998 0.2243 0.0
H754 H 0.42947 0.01261 0.24367 0.0
H755 H 0.47306 0.08484 0.27265 0.0
C756 C 0.37713 0.09695 0.32934 0.0
N757 N 0.39656 0.09731 0.31762 0.0
C758 C 0.36263 0.11266 0.32463 0.0
C759 C 0.38953 0.12989 0.29755 0.0
C760 C 0.40352 0.11406 0.30291 0.0
C761 C 0.36826 0.12833 0.30747 0.0
H762 H 0.37211 0.08331 0.3409 0.0
H763 H 0.41898 0.11355 0.29369 0.0
O764 O 0.43942 0.02399 0.30797 0.0
O765 O 0.41073 0.05263 0.34261 0.0
O766 O 0.44571 0.08255 0.313 0.0
O767 O 0.4025 0.04447 0.28427 0.0
H768 H 0.42331 0.97703 0.28216 0.0
H769 H 0.48386 0.03818 0.30238 0.0
H770 H 0.44634 0.95173 0.25654 0.0
H771 H 0.50584 1.0118 0.27633 0.0
H772 H 0.34246 0.01385 0.36571 0.0
H773 H 0.42746 0.03843 0.38191 0.0
H774 H 0.36514 0.0374 0.33763 0.0
H775 H 0.40367 0.01486 0.4092 0.0
H776 H 0.49977 0.02141 0.37453 0.0
H777 H 0.49434 0.09604 0.4111 0.0
H778 H 0.35913 0.95068 0.25683 0.0
H779 H 0.37553 0.94333 0.33233 0.0
H780 H 0.44028 0.12393 0.34306 0.0
H781 H 0.49043 0.08356 0.3141 0.0
H782 H 0.47223 0.15776 0.36747 0.0
H783 H 0.52147 0.118 0.33917 0.0
H784 H 0.40833 0.07197 0.24968 0.0
H785 H 0.35839 0.03443 0.29185 0.0
H786 H 0.37699 0.08624 0.22861 0.0
H787 H 0.32791 0.04907 0.26987 0.0
H788 H 0.45541 1.00375 0.21162 0.0
H789 H 0.49947 0.07818 0.24068 0.0
H790 H 0.34651 0.1113 0.33292 0.0
H791 H 0.39438 0.14153 0.28405 0.0
Li792 Li 0.30659 0.21946 0.54108 0.0
Li793 Li 0.3227 0.18502 0.51392 0.0
Li794 Li 0.30614 0.21451 0.49327 0.0
Li795 Li 0.28014 0.18123 0.50975 0.0
C796 C 0.34851 0.24214 0.51373 0.0
N797 N 0.37905 0.28113 0.4999 0.0
C798 C 0.36589 0.23688 0.49907 0.0
C799 C 0.34659 0.26716 0.52134 0.0
C800 C 0.38118 0.25688 0.49226 0.0
C801 C 0.36222 0.28663 0.51415 0.0
C802 C 0.30695 0.16529 0.55267 0.0
C803 C 0.30786 0.12253 0.55595 0.0
N804 N 0.32067 0.1316 0.57836 0.0
C805 C 0.32005 0.1742 0.57576 0.0
C806 C 0.30072 0.13926 0.5427 0.0
C807 C 0.32684 0.15686 0.58845 0.0
C808 C 0.29004 0.2263 0.58827 0.0
N809 N 0.30742 0.23718 0.57602 0.0
C810 C 0.32548 0.26503 0.61456 0.0
C811 C 0.3249 0.25647 0.58865 0.0
C812 C 0.30812 0.25345 0.62778 0.0
C813 C 0.2901 0.23403 0.61405 0.0
H814 H 0.2765 0.21073 0.5781 0.0
H815 H 0.33889 0.26459 0.57888 0.0
C816 C 0.34846 0.1483 0.49509 0.0
N817 N 0.3469 0.16654 0.51488 0.0
C818 C 0.36503 0.13386 0.49621 0.0
C819 C 0.37862 0.15764 0.53778 0.0
C820 C 0.36195 0.1718 0.53576 0.0
C821 C 0.38009 0.13799 0.51802 0.0
H822 H 0.33671 0.1448 0.47845 0.0
H823 H 0.36072 0.18672 0.55109 0.0
C824 C 0.26852 0.23484 0.50913 0.0
N825 N 0.24375 0.26846 0.49676 0.0
C826 C 0.25023 0.22658 0.49026 0.0
C827 C 0.27421 0.26014 0.52176 0.0
C828 C 0.23791 0.24389 0.48427 0.0
C829 C 0.26148 0.27686 0.5152 0.0
C830 C 0.28811 0.15866 0.46459 0.0
C831 C 0.27698 0.16528 0.44461 0.0
C832 C 0.28551 0.1331 0.46564 0.0
C833 C 0.26337 0.14615 0.42599 0.0
C834 C 0.2717 0.11454 0.44669 0.0
N835 N 0.26101 0.12139 0.42742 0.0
C836 C 0.32341 0.22051 0.44659 0.0
C837 C 0.29951 0.24882 0.45802 0.0
C838 C 0.32582 0.22806 0.42365 0.0
N839 N 0.31022 0.23063 0.46334 0.0
C840 C 0.30142 0.25688 0.4352 0.0
C841 C 0.31467 0.24647 0.4174 0.0
H842 H 0.33162 0.20586 0.45074 0.0
H843 H 0.28912 0.25694 0.47122 0.0
C844 C 0.24389 0.15018 0.52858 0.0
N845 N 0.24954 0.15876 0.50763 0.0
C846 C 0.22198 0.13505 0.5295 0.0
C847 C 0.21161 0.138 0.48738 0.0
C848 C 0.23381 0.15305 0.48723 0.0
C849 C 0.20545 0.12866 0.5087 0.0
H850 H 0.25628 0.15548 0.54488 0.0
H851 H 0.23827 0.16046 0.47092 0.0
O852 O 0.33347 0.22287 0.52068 0.0
O853 O 0.3005 0.18198 0.53972 0.0
O854 O 0.28054 0.21815 0.51555 0.0
O855 O 0.30148 0.17709 0.48302 0.0
H856 H 0.36753 0.21755 0.49304 0.0
H857 H 0.33316 0.27147 0.53265 0.0
H858 H 0.39474 0.25312 0.48093 0.0
H859 H 0.36098 0.30611 0.51992 0.0
H860 H 0.30322 0.10234 0.54843 0.0
H861 H 0.32516 0.1943 0.58367 0.0
H862 H 0.29051 0.13207 0.5249 0.0
H863 H 0.33708 0.16349 0.60628 0.0
H864 H 0.33997 0.27972 0.62431 0.0
H865 H 0.27637 0.22447 0.6233 0.0
H866 H 0.36596 0.11952 0.48018 0.0
H867 H 0.38983 0.1616 0.55493 0.0
H868 H 0.24568 0.20706 0.4803 0.0
H869 H 0.28828 0.26674 0.53649 0.0
H870 H 0.22371 0.23779 0.4697 0.0
H871 H 0.26569 0.29652 0.52478 0.0
H872 H 0.27859 0.18495 0.44361 0.0
H873 H 0.29404 0.12764 0.48093 0.0
H874 H 0.25459 0.15099 0.41046 0.0
H875 H 0.26948 0.09469 0.4473 0.0
H876 H 0.33577 0.21885 0.41059 0.0
H877 H 0.29252 0.27119 0.43153 0.0
H878 H 0.21785 0.12892 0.54659 0.0
H879 H 0.19938 0.13369 0.47096 0.0
Li880 Li 0.20753 0.04706 0.77742 0.0
Li881 Li 0.17505 0.02159 0.80035 0.0
Li882 Li 0.20568 0.99557 0.77256 0.0
Li883 Li 0.17266 0.01805 0.7466 0.0
C884 C 0.2281 0.0382 0.82164 0.0
N885 N 0.26386 0.06511 0.8571 0.0
C886 C 0.2241 0.05613 0.84143 0.0
C887 C 0.25026 0.03393 0.81984 0.0
C888 C 0.24241 0.06955 0.85918 0.0
C889 C 0.26812 0.04773 0.83799 0.0
C890 C 0.16791 0.06944 0.78119 0.0
C891 C 0.14832 0.09963 0.76841 0.0
N892 N 0.15671 0.11612 0.79027 0.0
C893 C 0.17626 0.08661 0.80355 0.0
C894 C 0.15382 0.07594 0.76346 0.0
C895 C 0.17047 0.11018 0.80776 0.0
C896 C 0.22076 0.09675 0.76134 0.0
N897 N 0.22752 0.08424 0.77871 0.0
C898 C 0.25746 0.12254 0.79619 0.0
C899 C 0.24586 0.09695 0.79588 0.0
C900 C 0.25045 0.13617 0.77885 0.0
C901 C 0.23182 0.12225 0.76105 0.0
H902 H 0.20643 0.08699 0.74753 0.0
H903 H 0.25158 0.08747 0.80972 0.0
C904 C 0.16833 0.02126 0.85668 0.0
N905 N 0.15729 0.02376 0.83495 0.0
C906 C 0.15827 0.02373 0.87986 0.0
C907 C 0.12486 0.03089 0.85926 0.0
C908 C 0.1356 0.02848 0.83641 0.0
C909 C 0.13602 0.02892 0.88215 0.0
H910 H 0.18535 0.01738 0.85637 0.0
H911 H 0.1263 0.03066 0.81979 0.0
C912 C 0.22435 0.02582 0.7315 0.0
N913 N 0.25826 0.03876 0.70114 0.0
C914 C 0.21896 0.0208 0.70576 0.0
C915 C 0.24698 0.03725 0.74183 0.0
C916 C 0.23636 0.0275 0.69071 0.0
C917 C 0.26388 0.04374 0.72616 0.0
C918 C 0.14985 0.9703 0.767 0.0
C919 C 0.1522 0.94536 0.76498 0.0
C920 C 0.12788 0.97534 0.76616 0.0
C921 C 0.13239 0.92577 0.76213 0.0
C922 C 0.1085 0.95524 0.76331 0.0
N923 N 0.11114 0.93108 0.76136 0.0
C924 C 0.23508 0.95942 0.79282 0.0
C925 C 0.22504 0.9458 0.75017 0.0
C926 C 0.24685 0.9391 0.79317 0.0
N927 N 0.22409 0.96306 0.77152 0.0
C928 C 0.23663 0.92517 0.74978 0.0
C929 C 0.24823 0.92087 0.77148 0.0
H930 H 0.23489 0.97237 0.81014 0.0
H931 H 0.21659 0.94762 0.7329 0.0
C932 C 0.16458 0.03922 0.69903 0.0
N933 N 0.15423 0.02086 0.71122 0.0
C934 C 0.1543 0.04309 0.67623 0.0
C935 C 0.12205 1.00967 0.67768 0.0
C936 C 0.13299 1.00627 0.70049 0.0
C937 C 0.13241 0.02842 0.66456 0.0
H938 H 0.18116 0.05132 0.70698 0.0
H939 H 0.12418 0.99165 0.70949 0.0
O940 O 0.21043 0.02494 0.80406 0.0
O941 O 0.17316 0.04619 0.77679 0.0
O942 O 0.20755 0.01935 0.74647 0.0
O943 O 0.16898 0.9897 0.76957 0.0
H944 H 0.20704 0.05967 0.84305 0.0
H945 H 0.25363 0.02016 0.80456 0.0
H946 H 0.23957 0.08351 0.87458 0.0
H947 H 0.28538 0.04465 0.83685 0.0
H948 H 0.13734 0.10488 0.75491 0.0
H949 H 0.18718 0.08183 0.81744 0.0
H950 H 0.14703 0.06274 0.74615 0.0
H951 H 0.17689 0.12372 0.82495 0.0
H952 H 0.27161 0.13177 0.8104 0.0
H953 H 0.2258 0.13085 0.74659 0.0
H954 H 0.16805 0.02106 0.89592 0.0
H955 H 0.10785 0.03483 0.85892 0.0
H956 H 0.20157 1.01163 0.69748 0.0
H957 H 0.25141 0.04117 0.76174 0.0
H958 H 0.23245 0.0237 0.67075 0.0
H959 H 0.28146 0.05272 0.73388 0.0
H960 H 0.16914 0.94119 0.76555 0.0
H961 H 0.12584 0.99459 0.76767 0.0
H962 H 0.13391 0.90636 0.76052 0.0
H963 H 0.09136 0.95883 0.76261 0.0
H964 H 0.25511 0.93805 0.81082 0.0
H965 H 0.23587 0.91231 0.7322 0.0
H966 H 0.16363 0.05804 0.66797 0.0
H967 H 0.10559 0.99703 0.67021 0.0
Li968 Li 0.31966 0.95656 0.02401 0.0
Li969 Li 0.33717 0.92756 0.04337 0.0
Li970 Li 0.35977 0.95688 0.0212 0.0
Li971 Li 0.3318 0.92047 0.99897 0.0
C972 C 0.36151 0.98289 0.06731 0.0
N973 N 0.39724 0.01819 0.09731 0.0
C974 C 0.37544 0.97541 0.08447 0.0
C975 C 0.36556 1.00846 0.06576 0.0
C976 C 0.39347 0.99349 0.09937 0.0
C977 C 0.38375 0.02597 0.08099 0.0
C978 C 0.29171 0.90491 0.0332 0.0
C979 C 0.27491 0.86472 0.04341 0.0
N980 N 0.26012 0.87579 0.05701 0.0
C981 C 0.27625 0.91587 0.04713 0.0
C982 C 0.29095 0.87911 0.03116 0.0
C983 C 0.26043 0.90083 0.05907 0.0
C984 C 0.28086 0.97109 1.00664 0.0
N985 N 0.29739 0.97567 0.02602 0.0
C986 C 0.28257 1.0093 0.04781 0.0
C987 C 0.29853 0.99416 0.04643 0.0
C988 C 0.2652 1.005 0.02812 0.0
C989 C 0.26442 0.98566 1.00731 0.0
H990 H 0.2806 0.95621 0.99067 0.0
H991 H 0.31202 0.99731 0.06145 0.0
C992 C 0.35902 0.90332 0.07309 0.0
N993 N 0.33955 0.91208 0.07079 0.0
C994 C 0.36389 0.89327 0.0935 0.0
C995 C 0.32864 0.90152 0.10918 0.0
C996 C 0.3245 0.91167 0.0884 0.0
C997 C 0.34854 0.89211 0.11174 0.0
H998 H 0.37133 0.90508 0.05959 0.0
H999 H 0.30965 0.91973 0.08664 0.0
C1000 C 0.34007 0.97602 0.98246 0.0
N1001 N 0.34735 0.01698 0.95928 0.0
C1002 C 0.34405 0.97273 0.95741 0.0
C1003 C 0.33952 1.00012 0.99556 0.0
C1004 C 0.3478 0.99368 0.94607 0.0
C1005 C 0.34328 0.02059 0.98357 0.0
C1006 C 0.36791 0.90147 0.00838 0.0
C1007 C 0.38689 0.90591 0.99474 0.0
C1008 C 0.35739 0.87661 0.00972 0.0
C1009 C 0.39487 0.88536 0.98248 0.0
C1010 C 0.36588 0.85657 0.99719 0.0
N1011 N 0.38428 0.86132 0.98393 0.0
C1012 C 0.40535 0.96576 0.0349 0.0
C1013 C 0.39818 0.9906 1.00577 0.0
C1014 C 0.42898 0.97317 0.03398 0.0
N1015 N 0.39051 0.97425 0.02075 0.0
C1016 C 0.42184 0.99865 1.00435 0.0
C1017 C 0.43738 0.98951 0.01833 0.0
H1018 H 0.39872 0.95231 0.04618 0.0
H1019 H 0.38613 0.99678 0.99435 0.0
C1020 C 0.31022 0.8759 0.96202 0.0
N1021 N 0.3274 0.89721 0.96901 0.0
C1022 C 0.30929 0.86024 0.93871 0.0
C1023 C 0.3439 0.88878 0.93103 0.0
C1024 C 0.34404 0.9038 0.95418 0.0
C1025 C 0.32625 0.86691 0.92298 0.0
H1026 H 0.29722 0.87128 0.97433 0.0
H1027 H 0.35753 0.9208 0.96052 0.0
O1028 O 0.34401 0.96533 0.0522 0.0
O1029 O 0.30715 0.91926 0.02117 0.0
O1030 O 0.33638 0.95565 0.99382 0.0
O1031 O 0.35964 0.92133 0.02033 0.0
H1032 H 0.37257 0.95584 0.08614 0.0
H1033 H 0.3548 0.01484 0.05305 0.0
H1034 H 0.40448 0.98787 0.11255 0.0
H1035 H 0.38711 0.04578 0.07986 0.0
H1036 H 0.27419 0.84475 0.04207 0.0
H1037 H 0.27652 0.93579 0.0488 0.0
H1038 H 0.30259 0.87027 0.02022 0.0
H1039 H 0.24842 0.90906 0.07 0.0
H1040 H 0.284 0.02442 0.06391 0.0
H1041 H 0.25121 0.98181 0.99183 0.0
H1042 H 0.3799 0.88717 0.09535 0.0
H1043 H 0.31662 0.90126 0.12317 0.0
H1044 H 0.34422 0.95422 0.94677 0.0
H1045 H 0.3362 1.00302 0.01476 0.0
H1046 H 0.351 0.99139 0.92675 0.0
H1047 H 0.34296 0.03934 0.99357 0.0
H1048 H 0.39516 0.92498 0.99328 0.0
H1049 H 0.34281 0.87284 0.02032 0.0
H1050 H 0.40944 0.88852 0.97173 0.0
H1051 H 0.35784 0.83724 0.99801 0.0
H1052 H 0.44058 0.96601 0.04519 0.0
H1053 H 0.42789 1.01127 0.99203 0.0
H1054 H 0.29528 0.84359 0.93281 0.0
H1055 H 0.35733 0.89433 0.9194 0.0
Li1056 Li 0.31278 0.4115 0.04075 0.0
Li1057 Li 0.32833 0.38114 0.0615 0.0
Li1058 Li 0.35586 0.41433 0.0424 0.0
Li1059 Li 0.32857 0.37647 0.0139 0.0
C1060 C 0.33685 0.44069 0.08769 0.0
N1061 N 0.33821 0.48422 0.1226 0.0
C1062 C 0.32702 0.43911 0.10992 0.0
C1063 C 0.3477 0.46438 0.0834 0.0
C1064 C 0.32778 0.46134 0.12728 0.0
C1065 C 0.34812 0.48617 0.10123 0.0
C1066 C 0.28523 0.35393 0.03849 0.0
C1067 C 0.27065 0.309 0.03484 0.0
N1068 N 0.25229 0.31368 0.04689 0.0
C1069 C 0.26613 0.35833 0.05063 0.0
C1070 C 0.28748 0.32911 0.03036 0.0
C1071 C 0.2497 0.33772 0.0548 0.0
C1072 C 0.27813 0.42937 0.01687 0.0
N1073 N 0.28882 0.43029 0.03966 0.0
C1074 C 0.26618 0.4582 0.05875 0.0
C1075 C 0.28284 0.44398 0.06049 0.0
C1076 C 0.25541 0.45826 0.03537 0.0
C1077 C 0.26131 0.44321 0.01429 0.0
H1078 H 0.28297 0.41816 1.00058 0.0
H1079 H 0.291 0.44404 0.07848 0.0
C1080 C 0.34118 0.35531 0.10065 0.0
N1081 N 0.3245 0.36556 0.09138 0.0
C1082 C 0.33936 0.34681 0.12321 0.0
C1083 C 0.30321 0.35927 0.1265 0.0
C1084 C 0.30568 0.36747 0.1039 0.0
C1085 C 0.32034 0.34904 0.13682 0.0
H1086 H 0.35626 0.35427 0.09088 0.0
H1087 H 0.29277 0.3761 0.09673 0.0
C1088 C 0.33663 0.43216 1.00069 0.0
N1089 N 0.34261 0.4703 0.9739 0.0
C1090 C 0.34169 0.42725 0.97604 0.0
C1091 C 0.33455 0.45645 0.01168 0.0
C1092 C 0.34468 0.44679 0.96282 0.0
C1093 C 0.33764 0.47547 0.99784 0.0
C1094 C 0.36582 0.35861 0.03265 0.0
C1095 C 0.38665 0.36436 0.02229 0.0
C1096 C 0.35683 0.33386 0.03548 0.0
C1097 C 0.39812 0.34508 0.01474 0.0
C1098 C 0.36882 0.31512 0.02769 0.0
N1099 N 0.38904 0.32107 0.01756 0.0
C1100 C 0.40036 0.44603 0.06579 0.0
C1101 C 0.39414 0.44104 0.0222 0.0
C1102 C 0.42264 0.46119 0.06607 0.0
N1103 N 0.38656 0.43629 0.04402 0.0
C1104 C 0.41599 0.4564 0.02167 0.0
C1105 C 0.43079 0.46672 0.04376 0.0
H1106 H 0.39421 0.44175 0.08294 0.0
H1107 H 0.38332 0.43262 1.005 0.0
C1108 C 0.30939 0.36294 0.96367 0.0
N1109 N 0.32535 0.35721 0.97903 0.0
C1110 C 0.30821 0.35504 0.93778 0.0
C1111 C 0.3389 0.33389 0.94346 0.0
C1112 C 0.33967 0.34244 0.96938 0.0
C1113 C 0.32349 0.34085 0.9272 0.0
H1114 H 0.29832 0.37491 0.97148 0.0
H1115 H 0.35243 0.33811 0.98154 0.0
O1116 O 0.3363 0.41912 0.0705 0.0
O1117 O 0.30154 0.37385 0.03438 0.0
O1118 O 0.33352 0.4132 0.01387 0.0
O1119 O 0.35438 0.3772 0.04017 0.0
H1120 H 0.31873 0.42095 0.11366 0.0
H1121 H 0.35586 0.46594 0.06658 0.0
H1122 H 0.32009 0.4604 0.14447 0.0
H1123 H 0.3564 0.50464 0.09811 0.0
H1124 H 0.27218 0.28966 0.02871 0.0
H1125 H 0.26413 0.37749 0.05691 0.0
H1126 H 0.30206 0.32544 0.02066 0.0
H1127 H 0.23488 0.34082 0.06431 0.0
H1128 H 0.2618 0.4691 0.07554 0.0
H1129 H 0.25345 0.44269 0.99591 0.0
H1130 H 0.3531 0.33917 0.13028 0.0
H1131 H 0.28796 0.36096 0.1358 0.0
H1132 H 0.34357 0.40864 0.96728 0.0
H1133 H 0.33035 0.46052 0.03059 0.0
H1134 H 0.34868 0.44328 0.94376 0.0
H1135 H 0.33603 0.49433 1.00611 0.0
H1136 H 0.39382 0.38348 0.02004 0.0
H1137 H 0.34078 0.32919 0.04362 0.0
H1138 H 0.41424 0.34921 1.00662 0.0
H1139 H 0.36206 0.29585 0.02971 0.0
H1140 H 0.4335 0.46791 0.08352 0.0
H1141 H 0.42127 0.46004 1.00398 0.0
H1142 H 0.2959 0.36072 0.92604 0.0
H1143 H 0.35104 0.32305 0.93618 0.0
Li1144 Li 0.80717 0.16578 0.0471 0.0
Li1145 Li 0.81748 0.13047 0.02185 0.0
Li1146 Li 0.80004 0.16125 1.00274 0.0
Li1147 Li 0.77743 0.13124 0.02586 0.0
C1148 C 0.84738 0.18855 0.03022 0.0
N1149 N 0.8821 0.23184 0.04589 0.0
C1150 C 0.86588 0.18856 0.04702 0.0
C1151 C 0.84662 0.21044 0.02119 0.0
C1152 C 0.88324 0.21068 0.05478 0.0
C1153 C 0.86433 0.23217 0.02939 0.0
C1154 C 0.79984 0.10876 0.06054 0.0
C1155 C 0.7911 0.06308 0.05314 0.0
N1156 N 0.79833 0.06434 0.07732 0.0
C1157 C 0.80724 0.10962 0.08529 0.0
C1158 C 0.79176 0.08533 0.04432 0.0
C1159 C 0.80631 0.08695 0.09344 0.0
C1160 C 0.79969 0.17934 0.09534 0.0
N1161 N 0.81247 0.18876 0.07814 0.0
C1162 C 0.82598 0.22863 0.10613 0.0
C1163 C 0.8253 0.21301 0.08294 0.0
C1164 C 0.81288 0.21925 0.12406 0.0
C1165 C 0.7995 0.19441 0.11853 0.0
H1166 H 0.78907 0.16025 0.09074 0.0
H1167 H 0.83453 0.22053 0.06878 0.0
C1168 C 0.84026 0.09759 0.99399 0.0
N1169 N 0.83839 0.10954 0.01742 0.0
C1170 C 0.85478 0.08084 0.99007 0.0
C1171 C 0.86544 0.08952 0.03446 0.0
C1172 C 0.85079 0.10619 0.03751 0.0
C1173 C 0.86732 0.07644 0.01051 0.0
H1174 H 0.83032 0.10094 0.9784 0.0
H1175 H 0.84918 0.11635 0.05587 0.0
C1176 C 0.77148 0.1863 0.04213 0.0
N1177 N 0.75747 0.22484 0.07262 0.0
C1178 C 0.75483 0.18059 0.0583 0.0
C1179 C 0.78089 0.2116 0.04133 0.0
C1180 C 0.74799 0.20035 0.07358 0.0
C1181 C 0.77362 0.23081 0.05695 0.0
C1182 C 0.77711 0.1059 0.97663 0.0
C1183 C 0.76162 0.11386 0.96157 0.0
C1184 C 0.77757 0.08022 0.97262 0.0
C1185 C 0.74645 0.09594 0.94321 0.0
C1186 C 0.76214 0.06288 0.95404 0.0
N1187 N 0.747 0.07103 0.93987 0.0
C1188 C 0.81174 0.17577 0.9574 0.0
C1189 C 0.77863 0.18691 0.97397 0.0
C1190 C 0.80742 0.18537 0.93628 0.0
N1191 N 0.79725 0.17662 0.97552 0.0
C1192 C 0.77368 0.19664 0.95333 0.0
C1193 C 0.78798 0.19567 0.93404 0.0
H1194 H 0.82631 0.16722 0.95916 0.0
H1195 H 0.76714 0.18676 0.9884 0.0
C1196 C 0.73903 0.10137 0.04456 0.0
N1197 N 0.74666 0.11511 0.02736 0.0
C1198 C 0.71546 0.09491 0.04714 0.0
C1199 C 0.70839 0.11714 0.01458 0.0
C1200 C 0.73191 0.1229 0.01245 0.0
C1201 C 0.70008 0.10344 0.03239 0.0
H1202 H 0.75113 0.0965 0.05709 0.0
H1203 H 0.73858 0.13487 0.99988 0.0
O1204 O 0.83046 0.16699 0.02206 0.0
O1205 O 0.80126 0.13082 0.05218 0.0
O1206 O 0.77881 0.16725 0.02741 0.0
O1207 O 0.79231 0.12324 0.99454 0.0
H1208 H 0.86676 0.17167 0.05401 0.0
H1209 H 0.83246 0.21072 0.00811 0.0
H1210 H 0.89763 0.21103 0.06785 0.0
H1211 H 0.86392 0.24929 0.02268 0.0
H1212 H 0.78482 0.04481 0.04078 0.0
H1213 H 0.81377 0.12763 0.09804 0.0
H1214 H 0.78585 0.08441 0.02523 0.0
H1215 H 0.81198 0.08734 0.11255 0.0
H1216 H 0.83638 0.24788 0.10997 0.0
H1217 H 0.78927 0.1867 0.1321 0.0
H1218 H 0.85601 0.07121 0.97133 0.0
H1219 H 0.87534 0.08707 0.05058 0.0
H1220 H 0.74749 0.16115 0.05932 0.0
H1221 H 0.7939 0.21633 0.02902 0.0
H1222 H 0.73522 0.19621 0.08628 0.0
H1223 H 0.78088 0.25048 0.05667 0.0
H1224 H 0.76119 0.13364 0.96409 0.0
H1225 H 0.78985 0.07369 0.98351 0.0
H1226 H 0.73426 0.10185 0.93157 0.0
H1227 H 0.76228 0.04296 0.95082 0.0
H1228 H 0.81897 0.18459 0.92185 0.0
H1229 H 0.75838 0.20415 0.9521 0.0
H1230 H 0.7094 0.08428 0.06107 0.0
H1231 H 0.69685 0.12374 1.00275 0.0
Li1232 Li 0.22822 0.56672 0.24119 0.0
Li1233 Li 0.19774 0.5415 0.26091 0.0
Li1234 Li 0.22508 0.52274 0.23881 0.0
Li1235 Li 0.19573 0.53574 0.21559 0.0
C1236 C 0.24537 0.54166 0.28439 0.0
N1237 N 0.27397 0.52313 0.31381 0.0
C1238 C 0.23597 0.52303 0.29732 0.0
C1239 C 0.26927 0.55107 0.28659 0.0
C1240 C 0.25074 0.51383 0.31203 0.0
C1241 C 0.28345 0.54143 0.30155 0.0
C1242 C 0.18181 0.5835 0.24537 0.0
C1243 C 0.14529 0.59554 0.24204 0.0
N1244 N 0.15505 0.61853 0.25679 0.0
C1245 C 0.19149 0.60742 0.26024 0.0
C1246 C 0.15853 0.57766 0.23595 0.0
C1247 C 0.17769 0.62479 0.26591 0.0
C1248 C 0.24756 0.61323 0.22724 0.0
N1249 N 0.24639 0.59988 0.24567 0.0
C1250 C 0.26563 0.63675 0.27546 0.0
C1251 C 0.25544 0.61095 0.26934 0.0
C1252 C 0.26694 0.65121 0.25692 0.0
C1253 C 0.2584 0.63893 0.23235 0.0
H1254 H 0.2395 0.60416 0.20874 0.0
H1255 H 0.25349 0.60005 0.28376 0.0
C1256 C 0.16652 0.52492 0.29543 0.0
N1257 N 0.18154 0.54452 0.28916 0.0
C1258 C 0.15286 0.52969 0.31468 0.0
C1259 C 0.17207 0.57417 0.32189 0.0
C1260 C 0.18532 0.56854 0.30265 0.0
C1261 C 0.15525 0.55468 0.32748 0.0
H1262 H 0.16459 0.5058 0.28505 0.0
H1263 H 0.19824 0.58342 0.29797 0.0
C1264 C 0.24405 0.55314 0.19727 0.0
N1265 N 0.2744 0.57921 0.16989 0.0
C1266 C 0.23641 0.55626 0.17382 0.0
C1267 C 0.26718 0.56306 0.20669 0.0
C1268 C 0.25202 0.56953 0.16028 0.0
C1269 C 0.28223 0.57627 0.19261 0.0
C1270 C 0.16849 0.4955 0.23253 0.0
C1271 C 0.16318 0.46925 0.22363 0.0
C1272 C 0.15062 0.50799 0.23673 0.0
C1273 C 0.14008 0.45598 0.21918 0.0
C1274 C 0.12774 0.49408 0.23211 0.0
N1275 N 0.12298 0.46857 0.22347 0.0
C1276 C 0.23087 0.4756 0.24466 0.0
C1277 C 0.26517 0.50418 0.23916 0.0
C1278 C 0.24351 0.45897 0.25127 0.0
N1279 N 0.24193 0.49798 0.23956 0.0
C1280 C 0.27855 0.48847 0.24635 0.0
C1281 C 0.26772 0.46594 0.25332 0.0
H1282 H 0.21241 0.47152 0.24536 0.0
H1283 H 0.27345 0.52233 0.23546 0.0
C1284 C 0.17328 0.5526 0.18039 0.0
N1285 N 0.17564 0.53088 0.18732 0.0
C1286 C 0.15635 0.55181 0.16171 0.0
C1287 C 0.14542 0.5061 0.15686 0.0
C1288 C 0.16268 0.50779 0.17565 0.0
C1289 C 0.14199 0.52839 0.15009 0.0
H1290 H 0.18417 0.57059 0.18991 0.0
H1291 H 0.16536 0.49083 0.18126 0.0
O1292 O 0.23125 0.55032 0.26929 0.0
O1293 O 0.19523 0.5663 0.23941 0.0
O1294 O 0.22903 0.54008 0.21072 0.0
O1295 O 0.19105 0.50885 0.23617 0.0
H1296 H 0.2175 0.51549 0.29569 0.0
H1297 H 0.2768 0.56539 0.27656 0.0
H1298 H 0.24375 0.49923 0.32196 0.0
H1299 H 0.30199 0.54839 0.30329 0.0
H1300 H 0.12726 0.59118 0.23494 0.0
H1301 H 0.20942 0.6125 0.26764 0.0
H1302 H 0.15069 0.55964 0.22385 0.0
H1303 H 0.18498 0.64326 0.27756 0.0
H1304 H 0.27156 0.64541 0.29472 0.0
H1305 H 0.25958 0.64907 0.2173 0.0
H1306 H 0.14006 0.51431 0.31891 0.0
H1307 H 0.17438 0.59361 0.33179 0.0
H1308 H 0.21865 0.54844 0.16611 0.0
H1309 H 0.27333 0.56115 0.22494 0.0
H1310 H 0.24633 0.57212 0.14213 0.0
H1311 H 0.3001 0.58429 0.19978 0.0
H1312 H 0.17672 0.45923 0.2198 0.0
H1313 H 0.1544 0.52815 0.24387 0.0
H1314 H 0.13574 0.43569 0.21219 0.0
H1315 H 0.11377 0.50357 0.23541 0.0
H1316 H 0.23454 0.44173 0.25646 0.0
H1317 H 0.29716 0.49502 0.24841 0.0
H1318 H 0.15441 0.56928 0.15648 0.0
H1319 H 0.13463 0.48774 0.14808 0.0
Li1320 Li 0.8137 0.91117 0.54169 0.0
Li1321 Li 0.82951 0.88089 0.56228 0.0
Li1322 Li 0.85681 0.91418 0.54303 0.0
Li1323 Li 0.82956 0.87624 0.51462 0.0
C1324 C 0.83816 0.94095 0.58808 0.0
N1325 N 0.83999 0.98534 0.62199 0.0
C1326 C 0.82853 0.94016 0.61052 0.0
C1327 C 0.8491 0.96431 0.58311 0.0
C1328 C 0.82951 0.9628 0.62736 0.0
C1329 C 0.84975 0.98654 0.60043 0.0
C1330 C 0.78658 0.85392 0.54049 0.0
C1331 C 0.77195 0.80921 0.53822 0.0
N1332 N 0.7543 0.81444 0.55128 0.0
C1333 C 0.76823 0.85888 0.55372 0.0
C1334 C 0.78843 0.82892 0.53253 0.0
C1335 C 0.75212 0.83864 0.55907 0.0
C1336 C 0.77921 0.92944 0.51791 0.0
N1337 N 0.78962 0.92987 0.54071 0.0
C1338 C 0.7668 0.95749 0.56 0.0
C1339 C 0.78338 0.94314 0.56162 0.0
C1340 C 0.75638 0.95813 0.53663 0.0
C1341 C 0.7625 0.94345 0.51544 0.0
H1342 H 0.78423 0.91855 0.50154 0.0
H1343 H 0.79131 0.94277 0.57961 0.0
C1344 C 0.84114 0.85253 0.60018 0.0
N1345 N 0.82571 0.86507 0.59217 0.0
C1346 C 0.83918 0.8437 0.62258 0.0
C1347 C 0.8057 0.86098 0.62858 0.0
C1348 C 0.8081 0.86914 0.60594 0.0
C1349 C 0.82132 0.84794 0.63743 0.0
H1350 H 0.85534 0.84976 0.58948 0.0
H1351 H 0.79624 0.87961 0.59982 0.0
C1352 C 0.83739 0.93217 0.5017 0.0
N1353 N 0.84322 0.97068 0.47536 0.0
C1354 C 0.84266 0.92762 0.47711 0.0
C1355 C 0.83499 0.95629 0.51283 0.0
C1356 C 0.84558 0.94735 0.46413 0.0
C1357 C 0.83801 0.97551 0.49923 0.0
C1358 C 0.86707 0.85872 0.5328 0.0
C1359 C 0.88776 0.8649 0.5223 0.0
C1360 C 0.85833 0.83378 0.53524 0.0
C1361 C 0.89939 0.84588 0.51428 0.0
C1362 C 0.87048 0.81531 0.52701 0.0
N1363 N 0.89058 0.82169 0.51677 0.0
C1364 C 0.90118 0.94578 0.56645 0.0
C1365 C 0.89516 0.94153 0.52288 0.0
C1366 C 0.92338 0.96117 0.56702 0.0
N1367 N 0.88751 0.93628 0.54455 0.0
C1368 C 0.91702 0.95712 0.52267 0.0
C1369 C 0.93156 0.96703 0.54489 0.0
H1370 H 0.8949 0.9413 0.58347 0.0
H1371 H 0.88446 0.93329 0.50558 0.0
C1372 C 0.81069 0.86309 0.46423 0.0
N1373 N 0.82627 0.85691 0.47968 0.0
C1374 C 0.80928 0.85479 0.43836 0.0
C1375 C 0.83906 0.83248 0.44423 0.0
C1376 C 0.84008 0.84146 0.47012 0.0
C1377 C 0.82386 0.83962 0.42783 0.0
H1378 H 0.80004 0.8756 0.47194 0.0
H1379 H 0.85259 0.83679 0.48232 0.0
O1380 O 0.83738 0.91894 0.57137 0.0
O1381 O 0.8026 0.87346 0.53523 0.0
O1382 O 0.8343 0.91301 0.51464 0.0
O1383 O 0.85549 0.87706 0.54079 0.0
H1384 H 0.82024 0.9223 0.61487 0.0
H1385 H 0.85717 0.9653 0.56616 0.0
H1386 H 0.82195 0.96245 0.6447 0.0
H1387 H 0.8581 1.00474 0.59676 0.0
H1388 H 0.77318 0.78975 0.53224 0.0
H1389 H 0.76656 0.87817 0.55991 0.0
H1390 H 0.80245 0.82482 0.52206 0.0
H1391 H 0.73789 0.84218 0.56942 0.0
H1392 H 0.76223 0.96804 0.57687 0.0
H1393 H 0.75491 0.94337 0.49706 0.0
H1394 H 0.85172 0.83377 0.62829 0.0
H1395 H 0.79212 0.86573 0.6394 0.0
H1396 H 0.84475 0.90913 0.46822 0.0
H1397 H 0.83053 0.96009 0.53166 0.0
H1398 H 0.84976 0.94411 0.44512 0.0
H1399 H 0.83615 0.99424 0.50763 0.0
H1400 H 0.89472 0.88415 0.52031 0.0
H1401 H 0.84233 0.82874 0.54336 0.0
H1402 H 0.91541 0.85034 0.50605 0.0
H1403 H 0.86393 0.79591 0.52873 0.0
H1404 H 0.93402 0.9685 0.58459 0.0
H1405 H 0.92274 0.96087 0.50516 0.0
H1406 H 0.79721 0.86075 0.4266 0.0
H1407 H 0.85083 0.82109 0.43709 0.0
Li1408 Li 0.96359 0.0762 0.30549 0.0
Li1409 Li 0.92775 0.04579 0.27558 0.0
Li1410 Li 0.96108 0.07311 0.25318 0.0
Li1411 Li 0.93134 0.09936 0.2791 0.0
C1412 C 0.97676 0.03209 0.27951 0.0
N1413 N 1.0071 1.00242 0.28795 0.0
C1414 C 0.96932 1.01042 0.28922 0.0
C1415 C 0.9997 0.03892 0.27448 0.0
C1416 C 0.98491 0.99561 0.29327 0.0
C1417 C 0.01474 0.02358 0.27873 0.0
C1418 C 0.91357 0.06805 0.32241 0.0
C1419 C 0.87739 0.06741 0.33993 0.0
N1420 N 0.88355 0.05362 0.35616 0.0
C1421 C 0.91941 0.05356 0.33902 0.0
C1422 C 0.89229 0.07478 0.32265 0.0
C1423 C 0.90406 0.04658 0.35605 0.0
C1424 C 0.9751 0.08304 0.36395 0.0
N1425 N 0.98264 0.0745 0.34148 0.0
C1426 C 0.01172 0.05981 0.36557 0.0
C1427 C 1.00113 0.06326 0.3426 0.0
C1428 C 1.00372 0.06754 0.38893 0.0
C1429 C 0.98509 0.07977 0.38722 0.0
H1430 H 0.96078 0.0922 0.36413 0.0
H1431 H 1.00786 0.0564 0.32557 0.0
C1432 C 0.91116 0.98862 0.25698 0.0
N1433 N 0.90708 1.00872 0.27348 0.0
C1434 C 0.89929 0.96311 0.25644 0.0
C1435 C 0.87903 0.9784 0.28999 0.0
C1436 C 0.89095 1.0036 0.28963 0.0
C1437 C 0.88273 0.95716 0.27313 0.0
H1438 H 0.92402 0.99218 0.24424 0.0
H1439 H 0.88737 0.01901 0.30283 0.0
C1440 C 0.98635 0.12214 0.27819 0.0
N1441 N 0.02353 0.15637 0.26732 0.0
C1442 C 0.98283 0.1392 0.26336 0.0
C1443 C 1.00874 0.12234 0.28741 0.0
C1444 C 1.00186 0.1564 0.2581 0.0
C1445 C 0.02732 0.13984 0.28173 0.0
C1446 C 0.91517 0.06327 0.22544 0.0
C1447 C 0.91654 0.0828 0.21233 0.0
C1448 C 0.90328 0.03865 0.21412 0.0
C1449 C 0.90597 0.07737 0.188 0.0
C1450 C 0.89287 0.03399 0.18979 0.0
N1451 N 0.89442 0.05328 0.17734 0.0
C1452 C 0.99182 0.05306 0.21201 0.0
C1453 C 0.9761 0.08534 0.20121 0.0
C1454 C 1.00287 0.05055 0.18945 0.0
N1455 N 0.97865 0.07052 0.21826 0.0
C1456 C 0.98644 0.08298 0.17812 0.0
C1457 C 1.00055 0.06552 0.17148 0.0
H1458 H 0.99376 0.04042 0.22433 0.0
H1459 H 0.9658 0.09925 0.2052 0.0
C1460 C 0.89926 0.13923 0.29749 0.0
N1461 N 0.91294 0.13205 0.27937 0.0
C1462 C 0.8873 0.15948 0.29728 0.0
C1463 C 0.9033 0.16645 0.26019 0.0
C1464 C 0.91477 0.14595 0.26092 0.0
C1465 C 0.88885 0.17429 0.27848 0.0
H1466 H 0.89728 0.12929 0.31264 0.0
H1467 H 0.92537 0.14145 0.24626 0.0
O1468 O 0.96184 0.04691 0.27547 0.0
O1469 O 0.92849 0.07533 0.30582 0.0
O1470 O 0.96797 0.10506 0.28339 0.0
O1471 O 0.92524 0.06824 0.24932 0.0
H1472 H 0.95174 1.00516 0.29369 0.0
H1473 H 1.00588 0.05608 0.26768 0.0
H1474 H 0.97939 0.97873 0.3007 0.0
H1475 H 0.03254 0.02861 0.27487 0.0
H1476 H 0.86088 0.07256 0.34036 0.0
H1477 H 0.93549 0.04748 0.33854 0.0
H1478 H 0.88724 0.08534 0.30944 0.0
H1479 H 0.90839 0.03543 0.36906 0.0
H1480 H 0.02591 0.0504 0.36479 0.0
H1481 H 0.9781 0.08717 0.40397 0.0
H1482 H 0.90318 0.94811 0.24284 0.0
H1483 H 0.86743 0.97581 0.30411 0.0
H1484 H 0.9656 0.13909 0.25594 0.0
H1485 H 0.0117 0.1091 0.2988 0.0
H1486 H 0.99942 0.16974 0.24665 0.0
H1487 H 0.04477 0.14027 0.28875 0.0
H1488 H 0.92584 0.10189 0.22079 0.0
H1489 H 0.902 0.02335 0.22407 0.0
H1490 H 0.90694 0.0923 0.1776 0.0
H1491 H 0.88353 0.01505 0.18081 0.0
H1492 H 0.01282 0.03624 0.18591 0.0
H1493 H 0.9836 0.09525 0.16563 0.0
H1494 H 0.87651 0.16291 0.31199 0.0
H1495 H 0.90621 0.17631 0.24506 0.0
Li1496 Li 0.30304 0.66482 0.5485 0.0
Li1497 Li 0.31628 0.63116 0.52552 0.0
Li1498 Li 0.29665 0.65913 0.50444 0.0
Li1499 Li 0.27516 0.62826 0.52832 0.0
C1500 C 0.34393 0.68695 0.53824 0.0
N1501 N 0.3778 0.72595 0.56638 0.0
C1502 C 0.3565 0.68284 0.55869 0.0
C1503 C 0.34872 0.71077 0.5319 0.0
C1504 C 0.37351 0.70285 0.57276 0.0
C1505 C 0.36589 0.73028 0.54642 0.0
C1506 C 0.29838 0.60831 0.56367 0.0
C1507 C 0.28576 0.56285 0.55791 0.0
N1508 N 0.29676 0.56388 0.58054 0.0
C1509 C 0.30942 0.60893 0.58697 0.0
C1510 C 0.28633 0.5851 0.54911 0.0
C1511 C 0.30847 0.58626 0.59513 0.0
C1512 C 0.30224 0.67981 0.59882 0.0
N1513 N 0.3075 0.68951 0.57843 0.0
C1514 C 0.31222 0.73173 0.60168 0.0
C1515 C 0.31267 0.71496 0.57945 0.0
C1516 C 0.3063 0.72207 0.62284 0.0
C1517 C 0.30182 0.69581 0.62138 0.0
H1518 H 0.29761 0.65956 0.59742 0.0
H1519 H 0.31615 0.72221 0.56284 0.0
C1520 C 0.34388 0.60638 0.49681 0.0
N1521 N 0.33896 0.61242 0.52064 0.0
C1522 C 0.35928 0.59102 0.49086 0.0
C1523 C 0.36494 0.58923 0.5343 0.0
C1524 C 0.34944 0.60471 0.53942 0.0
C1525 C 0.36983 0.58214 0.50974 0.0
H1526 H 0.33542 0.61311 0.48236 0.0
H1527 H 0.34576 0.61046 0.55829 0.0
C1528 C 0.26729 0.68475 0.53918 0.0
N1529 N 0.25406 0.72773 0.56209 0.0
C1530 C 0.25381 0.68391 0.55905 0.0
C1531 C 0.27388 0.70741 0.53083 0.0
C1532 C 0.24736 0.70586 0.57044 0.0
C1533 C 0.26704 0.72894 0.54268 0.0
C1534 C 0.28316 0.60029 0.47954 0.0
C1535 C 0.27048 0.60188 0.45795 0.0
C1536 C 0.28809 0.57709 0.48182 0.0
C1537 C 0.2625 0.58018 0.4393 0.0
C1538 C 0.27984 0.55583 0.46274 0.0
N1539 N 0.26729 0.55778 0.44207 0.0
C1540 C 0.311 0.68437 0.46546 0.0
C1541 C 0.27074 0.6707 0.46778 0.0
C1542 C 0.30674 0.69458 0.44475 0.0
N1543 N 0.29302 0.67284 0.47642 0.0
C1544 C 0.26571 0.68017 0.44698 0.0
C1545 C 0.28384 0.69227 0.43532 0.0
H1546 H 0.32854 0.68578 0.4729 0.0
H1547 H 0.2569 0.66157 0.47716 0.0
C1548 C 0.23715 0.61264 0.55268 0.0
N1549 N 0.24529 0.60957 0.53005 0.0
C1550 C 0.21354 0.60529 0.55449 0.0
C1551 C 0.20764 0.58979 0.50993 0.0
C1552 C 0.23126 0.59785 0.50893 0.0
C1553 C 0.1986 0.59448 0.53278 0.0
H1554 H 0.24881 0.62236 0.56906 0.0
H1555 H 0.23807 0.59627 0.49117 0.0
O1556 O 0.3271 0.66768 0.52439 0.0
O1557 O 0.29921 0.63046 0.55557 0.0
O1558 O 0.27414 0.66359 0.52805 0.0
O1559 O 0.2912 0.62149 0.49793 0.0
H1560 H 0.35298 0.66446 0.56377 0.0
H1561 H 0.33908 0.71424 0.51614 0.0
H1562 H 0.38328 0.70003 0.58875 0.0
H1563 H 0.36969 0.74887 0.54185 0.0
H1564 H 0.27651 0.54476 0.54676 0.0
H1565 H 0.3189 0.6267 0.59852 0.0
H1566 H 0.27736 0.58422 0.53129 0.0
H1567 H 0.31706 0.58647 0.61304 0.0
H1568 H 0.31579 0.75192 0.60215 0.0
H1569 H 0.29781 0.68767 0.63747 0.0
H1570 H 0.3626 0.58578 0.47169 0.0
H1571 H 0.37311 0.58297 0.54933 0.0
H1572 H 0.24863 0.66661 0.56584 0.0
H1573 H 0.28449 0.7085 0.51564 0.0
H1574 H 0.23709 0.70552 0.58596 0.0
H1575 H 0.27216 0.74664 0.53653 0.0
H1576 H 0.2666 0.61959 0.45565 0.0
H1577 H 0.29836 0.57547 0.498 0.0
H1578 H 0.25251 0.58115 0.42261 0.0
H1579 H 0.2835 0.53778 0.46433 0.0
H1580 H 0.32105 0.7041 0.43621 0.0
H1581 H 0.24787 0.67858 0.4404 0.0
H1582 H 0.20693 0.60903 0.57237 0.0
H1583 H 0.19639 0.58161 0.49286 0.0
Li1584 Li 0.42703 0.54682 0.77456 0.0
Li1585 Li 0.46267 0.57645 0.80504 0.0
Li1586 Li 0.43096 0.59951 0.7783 0.0
Li1587 Li 0.46124 0.57434 0.75244 0.0
C1588 C 0.40806 0.57005 0.8168 0.0
N1589 N 0.36864 0.55846 0.84027 0.0
C1590 C 0.40913 0.56151 0.83907 0.0
C1591 C 0.38699 0.57278 0.80649 0.0
C1592 C 0.38899 0.55569 0.85063 0.0
C1593 C 0.36725 0.56684 0.81866 0.0
C1594 C 0.47406 0.53068 0.77757 0.0
C1595 C 0.50748 0.5135 0.76984 0.0
N1596 N 0.4999 0.49583 0.78354 0.0
C1597 C 0.46663 0.51242 0.79163 0.0
C1598 C 0.49468 0.53132 0.76665 0.0
C1599 C 0.47993 0.49495 0.79442 0.0
C1600 C 0.41421 0.48965 0.75863 0.0
N1601 N 0.40685 0.50947 0.77206 0.0
C1602 C 0.37639 0.47832 0.78464 0.0
C1603 C 0.38795 0.50384 0.78477 0.0
C1604 C 0.38412 0.4575 0.77165 0.0
C1605 C 0.40332 0.46392 0.75826 0.0
H1606 H 0.42905 0.49366 0.74842 0.0
H1607 H 0.38182 0.51907 0.79557 0.0
C1608 C 0.50117 0.58948 0.85299 0.0
N1609 N 0.48133 0.57313 0.84044 0.0
C1610 C 0.51206 0.5858 0.87577 0.0
C1611 C 0.48279 0.54838 0.87333 0.0
C1612 C 0.47252 0.55265 0.85071 0.0
C1613 C 0.50298 0.56507 0.88708 0.0
H1614 H 0.50887 0.60579 0.84557 0.0
H1615 H 0.45717 0.53909 0.84138 0.0
C1616 C 0.41243 0.56904 0.72703 0.0
N1617 N 0.38555 0.56931 0.68459 0.0
C1618 C 0.42006 0.58654 0.71226 0.0
C1619 C 0.39117 0.55168 0.72029 0.0
C1620 C 0.4062 0.58637 0.69085 0.0
C1621 C 0.37782 0.55212 0.69873 0.0
C1622 C 0.48649 0.62324 0.77994 0.0
C1623 C 0.48381 0.64309 0.76842 0.0
C1624 C 0.50859 0.62125 0.78785 0.0
C1625 C 0.5034 0.66074 0.76502 0.0
C1626 C 0.52775 0.6393 0.78414 0.0
N1627 N 0.52477 0.6585 0.77289 0.0
C1628 C 0.39763 0.63876 0.79486 0.0
C1629 C 0.41525 0.64579 0.75943 0.0
C1630 C 0.38577 0.65899 0.79378 0.0
N1631 N 0.41233 0.63182 0.77775 0.0
C1632 C 0.40391 0.66622 0.75787 0.0
C1633 C 0.3882 0.67361 0.77487 0.0
H1634 H 0.39473 0.62859 0.80979 0.0
H1635 H 0.42664 0.64136 0.74555 0.0
C1636 C 0.4814 0.54925 0.70453 0.0
N1637 N 0.47925 0.57215 0.71807 0.0
C1638 C 0.49223 0.54703 0.68179 0.0
C1639 C 0.49878 0.59172 0.68581 0.0
C1640 C 0.48789 0.59317 0.70851 0.0
C1641 C 0.50159 0.56839 0.67149 0.0
H1642 H 0.47458 0.53218 0.71121 0.0
H1643 H 0.48618 0.6115 0.71827 0.0
O1644 O 0.42748 0.5758 0.80507 0.0
O1645 O 0.46132 0.54796 0.7746 0.0
O1646 O 0.42567 0.56898 0.74809 0.0
O1647 O 0.46757 0.60565 0.78322 0.0
H1648 H 0.42531 0.55949 0.84739 0.0
H1649 H 0.38589 0.57926 0.78918 0.0
H1650 H 0.38954 0.54901 0.86786 0.0
H1651 H 0.35081 0.56881 0.81087 0.0
H1652 H 0.52345 0.51373 0.76145 0.0
H1653 H 0.45072 0.51171 0.80024 0.0
H1654 H 0.50074 0.54548 0.75587 0.0
H1655 H 0.47436 0.48068 0.80522 0.0
H1656 H 0.36177 0.47499 0.79532 0.0
H1657 H 0.40998 0.44912 0.74732 0.0
H1658 H 0.52745 0.59962 0.88472 0.0
H1659 H 0.47483 0.5315 0.87971 0.0
H1660 H 0.4365 0.6001 0.71732 0.0
H1661 H 0.38506 0.53805 0.73162 0.0
H1662 H 0.41186 0.59981 0.67922 0.0
H1663 H 0.36131 0.5388 0.69325 0.0
H1664 H 0.46681 0.64479 0.76211 0.0
H1665 H 0.51091 0.60589 0.7967 0.0
H1666 H 0.5016 0.6762 0.7561 0.0
H1667 H 0.54498 0.63803 0.79018 0.0
H1668 H 0.37437 0.66286 0.80783 0.0
H1669 H 0.40813 0.67646 0.74324 0.0
H1670 H 0.49341 0.52834 0.67244 0.0
H1671 H 0.5044 0.60915 0.67935 0.0
Li1672 Li 0.70575 0.04782 0.76035 0.0
Li1673 Li 0.73667 0.06686 0.73992 0.0
Li1674 Li 0.70144 0.03992 0.71589 0.0
Li1675 Li 0.72884 0.02119 0.738 0.0
C1676 C 0.69465 0.09128 0.74764 0.0
N1677 N 0.67262 0.12931 0.76543 0.0
C1678 C 0.70747 0.115 0.76055 0.0
C1679 C 0.67063 0.08708 0.74353 0.0
C1680 C 0.69602 0.13394 0.76945 0.0
C1681 C 0.65982 0.10649 0.75277 0.0
C1682 C 0.74122 0.05494 0.79278 0.0
C1683 C 0.74191 0.04166 0.83204 0.0
N1684 N 0.74376 0.06602 0.84405 0.0
C1685 C 0.74324 0.07988 0.80552 0.0
C1686 C 0.74059 0.03568 0.80613 0.0
C1687 C 0.74444 0.08507 0.83143 0.0
C1688 C 0.67536 0.03001 0.79333 0.0
N1689 N 0.68841 0.05147 0.78813 0.0
C1690 C 0.67172 0.0773 0.81819 0.0
C1691 C 0.68766 0.07479 0.80102 0.0
C1692 C 0.65666 0.05554 0.82228 0.0
C1693 C 0.65915 0.0316 0.8104 0.0
H1694 H 0.67696 1.01165 0.78359 0.0
H1695 H 0.699 0.09154 0.79763 0.0
C1696 C 0.7549 0.11258 0.72707 0.0
N1697 N 0.75916 0.09683 0.74205 0.0
C1698 C 0.76656 0.13792 0.73267 0.0
C1699 C 0.78794 0.1298 0.76783 0.0
C1700 C 0.77613 0.10443 0.76127 0.0
C1701 C 0.78236 0.14704 0.75405 0.0
H1702 H 0.74099 0.106 0.7122 0.0
H1703 H 0.77904 0.09134 0.7728 0.0
C1704 C 0.67361 0.99913 0.73155 0.0
N1705 N 0.63016 0.96756 0.71843 0.0
C1706 C 0.67118 0.97323 0.72222 0.0
C1707 C 0.65395 1.00894 0.73437 0.0
C1708 C 0.64906 0.95759 0.71564 0.0
C1709 C 0.63214 0.99268 0.7276 0.0
C1710 C 0.74842 0.0513 0.69541 0.0
C1711 C 0.7397 0.05927 0.67491 0.0
C1712 C 0.77226 0.05676 0.70185 0.0
C1713 C 0.75502 0.07285 0.66133 0.0
C1714 C 0.787 0.07045 0.68784 0.0
N1715 N 0.77815 0.07815 0.66805 0.0
C1716 C 0.67529 0.05726 0.68323 0.0
C1717 C 0.66808 0.01235 0.67589 0.0
C1718 C 0.65773 0.05601 0.66501 0.0
N1719 N 0.6798 0.03564 0.68856 0.0
C1720 C 0.65012 1.01019 0.65769 0.0
C1721 C 0.64478 0.03226 0.65219 0.0
H1722 H 0.68525 0.0755 0.69332 0.0
H1723 H 0.6724 0.9955 0.68018 0.0
C1724 C 0.73327 0.97759 0.75331 0.0
N1725 N 0.74191 0.99352 0.7384 0.0
C1726 C 0.74586 0.96091 0.75995 0.0
C1727 C 0.77476 0.97565 0.73366 0.0
C1728 C 0.76164 0.99217 0.72763 0.0
C1729 C 0.76747 0.96087 0.75113 0.0
H1730 H 0.71758 0.97937 0.76167 0.0
H1731 H 0.76797 1.00514 0.7158 0.0
O1732 O 0.70558 0.07251 0.73862 0.0
O1733 O 0.73962 0.04939 0.76737 0.0
O1734 O 0.69517 0.01472 0.73783 0.0
O1735 O 0.73368 0.03841 0.70923 0.0
H1736 H 0.72601 0.11865 0.76424 0.0
H1737 H 0.6604 0.06907 0.73325 0.0
H1738 H 0.70573 0.15227 0.77965 0.0
H1739 H 0.64124 0.10342 0.7498 0.0
H1740 H 0.74142 0.02693 0.84261 0.0
H1741 H 0.74339 0.09499 0.79551 0.0
H1742 H 0.73906 0.01631 0.79663 0.0
H1743 H 0.74572 0.10421 0.84149 0.0
H1744 H 0.67058 0.09608 0.82743 0.0
H1745 H 0.64836 0.01437 0.81385 0.0
H1746 H 0.76182 0.15063 0.72161 0.0
H1747 H 0.79973 0.13614 0.78466 0.0
H1748 H 0.68623 0.96535 0.71991 0.0
H1749 H 0.65553 0.02885 0.74178 0.0
H1750 H 0.64691 0.93753 0.70828 0.0
H1751 H 0.61678 1.00003 0.72966 0.0
H1752 H 0.72133 0.05509 0.66958 0.0
H1753 H 0.77928 0.05094 0.71781 0.0
H1754 H 0.74851 0.07921 0.64548 0.0
H1755 H 0.80548 0.07504 0.69277 0.0
H1756 H 0.65443 0.07343 0.66084 0.0
H1757 H 0.64042 0.99154 0.64822 0.0
H1758 H 0.73976 0.94989 0.77358 0.0
H1759 H 0.79119 0.97578 0.72624 0.0
Li1760 Li 0.80455 0.72085 0.04179 0.0
Li1761 Li 0.82168 0.68692 0.01561 0.0
Li1762 Li 0.80473 0.71687 0.99432 0.0
Li1763 Li 0.77871 0.68307 0.01045 0.0
C1764 C 0.84515 0.74878 0.02301 0.0
N1765 N 0.87206 0.79692 0.02618 0.0
C1766 C 0.86889 0.75234 0.02144 0.0
C1767 C 0.83504 0.76962 0.02609 0.0
C1768 C 0.88222 0.77686 0.02312 0.0
C1769 C 0.84896 0.79383 0.02767 0.0
C1770 C 0.79785 0.66266 0.05075 0.0
C1771 C 0.79072 0.61725 0.04612 0.0
N1772 N 0.795 0.62016 0.07114 0.0
C1773 C 0.80216 0.66524 0.07643 0.0
C1774 C 0.79208 0.63851 0.03546 0.0
C1775 C 0.80064 0.6435 0.08638 0.0
C1776 C 0.78757 0.72893 0.08867 0.0
N1777 N 0.80534 0.73904 0.07649 0.0
C1778 C 0.82368 0.7669 0.11489 0.0
C1779 C 0.82314 0.75798 0.08906 0.0
C1780 C 0.80596 0.756 0.12807 0.0
C1781 C 0.78759 0.73701 0.1144 0.0
H1782 H 0.77376 0.71365 0.07854 0.0
H1783 H 0.83742 0.7655 0.07935 0.0
C1784 C 0.85555 0.66038 0.99611 0.0
N1785 N 0.84606 0.66882 0.01702 0.0
C1786 C 0.87302 0.64703 0.99724 0.0
C1787 C 0.87071 0.65134 0.04134 0.0
C1788 C 0.85362 0.66493 0.03944 0.0
C1789 C 0.88063 0.64195 0.02006 0.0
H1790 H 0.84956 0.66405 0.97852 0.0
H1791 H 0.84631 0.67229 0.05594 0.0
C1792 C 0.7637 0.73214 1.00688 0.0
N1793 N 0.7334 0.75694 0.98778 0.0
C1794 C 0.74937 0.72046 0.98498 0.0
C1795 C 0.76258 0.75636 0.01916 0.0
C1796 C 0.73418 0.73333 0.97559 0.0
C1797 C 0.74715 0.7686 0.00918 0.0
C1798 C 0.79114 0.66123 0.96393 0.0
C1799 C 0.77865 0.66734 0.94457 0.0
C1800 C 0.79434 0.63659 0.96185 0.0
C1801 C 0.7692 0.64852 0.92361 0.0
C1802 C 0.7846 0.6183 0.94059 0.0
N1803 N 0.77231 0.62459 0.92208 0.0
C1804 C 0.82035 0.72327 0.94697 0.0
C1805 C 0.79874 0.75313 0.96177 0.0
C1806 C 0.82215 0.7319 0.92451 0.0
N1807 N 0.80846 0.73357 0.96504 0.0
C1808 C 0.80007 0.76228 0.93952 0.0
C1809 C 0.81157 0.7514 0.92017 0.0
H1810 H 0.82802 0.70778 0.9497 0.0
H1811 H 0.78966 0.76155 0.97625 0.0
C1812 C 0.74078 0.65498 0.02954 0.0
N1813 N 0.74826 0.65993 1.00772 0.0
C1814 C 0.71913 0.63917 0.03004 0.0
C1815 C 0.71241 0.63436 0.98567 0.0
C1816 C 0.73449 0.64991 0.98595 0.0
C1817 C 0.70438 0.62865 1.00795 0.0
H1818 H 0.75156 0.66355 0.04677 0.0
H1819 H 0.7403 0.65439 0.96881 0.0
O1820 O 0.83186 0.72493 0.02138 0.0
O1821 O 0.79914 0.6837 0.04067 0.0
O1822 O 0.77883 0.72 0.01627 0.0
O1823 O 0.80073 0.67944 0.9845 0.0
H1824 H 0.87691 0.73632 0.01899 0.0
H1825 H 0.81666 0.7671 0.02726 0.0
H1826 H 0.90064 0.77993 0.022 0.0
H1827 H 0.8414 0.81017 0.03008 0.0
H1828 H 0.78622 0.59843 0.0345 0.0
H1829 H 0.80672 0.68381 0.08852 0.0
H1830 H 0.78849 0.63623 0.0156 0.0
H1831 H 0.80395 0.64519 0.10621 0.0
H1832 H 0.83842 0.78123 0.12465 0.0
H1833 H 0.77361 0.72794 0.12369 0.0
H1834 H 0.88057 0.64094 0.98042 0.0
H1835 H 0.87585 0.64792 0.05934 0.0
H1836 H 0.75008 0.70175 0.97528 0.0
H1837 H 0.77357 0.7656 0.03617 0.0
H1838 H 0.72303 0.72457 0.9586 0.0
H1839 H 0.74612 0.78738 0.01843 0.0
H1840 H 0.77613 0.68635 0.94578 0.0
H1841 H 0.80436 0.63166 0.97643 0.0
H1842 H 0.75937 0.65294 0.90856 0.0
H1843 H 0.78686 0.59913 0.93877 0.0
H1844 H 0.83124 0.72283 0.91035 0.0
H1845 H 0.79215 0.77781 0.93755 0.0
H1846 H 0.71394 0.6354 0.04772 0.0
H1847 H 0.70156 0.62756 0.96822 0.0
Li1848 Li 0.91058 0.52155 0.81034 0.0
Li1849 Li 0.94349 0.55549 0.83093 0.0
Li1850 Li 0.91107 0.56439 0.80867 0.0
Li1851 Li 0.9381 0.54503 0.78637 0.0
C1852 C 0.89863 0.53995 0.85604 0.0
N1853 N 0.87373 0.5192 0.89091 0.0
C1854 C 0.90955 0.54048 0.87936 0.0
C1855 C 0.87502 0.52894 0.85049 0.0
C1856 C 0.89665 0.52989 0.89674 0.0
C1857 C 0.86275 0.5185 0.86835 0.0
C1858 C 0.95903 0.51019 0.79933 0.0
C1859 C 0.99746 0.50952 0.78826 0.0
N1860 N 0.99018 0.4844 0.77791 0.0
C1861 C 0.95196 0.48432 0.78879 0.0
C1862 C 0.98201 0.52287 0.7993 0.0
C1863 C 0.96797 0.47163 0.77799 0.0
C1864 C 0.88524 0.47462 0.78749 0.0
N1865 N 0.89403 0.48864 0.81032 0.0
C1866 C 0.88309 0.4527 0.82888 0.0
C1867 C 0.89339 0.47827 0.83086 0.0
C1868 C 0.87475 0.43747 0.80534 0.0
C1869 C 0.87567 0.44884 0.78451 0.0
H1870 H 0.88672 0.48324 0.77141 0.0
H1871 H 0.90137 0.4896 0.84865 0.0
C1872 C 0.97402 0.58524 0.87437 0.0
N1873 N 0.96603 0.56268 0.85814 0.0
C1874 C 0.99042 0.58712 0.89425 0.0
C1875 C 0.98982 0.54271 0.88 0.0
C1876 C 0.97339 0.54163 0.86089 0.0
C1877 C 0.99814 0.56547 0.89718 0.0
H1878 H 0.96719 0.60144 0.87243 0.0
H1879 H 0.96595 0.52359 0.84881 0.0
C1880 C 0.88712 0.53811 0.76556 0.0
N1881 N 0.85202 0.54691 0.73588 0.0
C1882 C 0.89227 0.55035 0.74588 0.0
C1883 C 0.86415 0.53008 0.77001 0.0
C1884 C 0.87426 0.55468 0.73111 0.0
C1885 C 0.84664 0.53481 0.75485 0.0
C1886 C 0.95889 0.60099 0.8201 0.0
C1887 C 0.95 0.62062 0.83288 0.0
C1888 C 0.9828 0.60387 0.82046 0.0
C1889 C 0.96522 0.64285 0.84582 0.0
C1890 C 0.99743 0.62636 0.83368 0.0
N1891 N 0.98841 0.64522 0.84597 0.0
C1892 C 0.87082 0.58197 0.81478 0.0
C1893 C 0.89686 0.60197 0.78964 0.0
C1894 C 0.85361 0.59294 0.80664 0.0
N1895 N 0.89156 0.58599 0.80548 0.0
C1896 C 0.88027 0.61358 0.78124 0.0
C1897 C 0.85805 0.60817 0.78897 0.0
H1898 H 0.86715 0.56901 0.8272 0.0
H1899 H 0.91349 0.60442 0.78239 0.0
C1900 C 0.95043 0.51801 0.74345 0.0
N1901 N 0.95398 0.54136 0.75833 0.0
C1902 C 0.96598 0.51299 0.7264 0.0
C1903 C 0.9869 0.55689 0.73861 0.0
C1904 C 0.97116 0.56095 0.75569 0.0
C1905 C 0.98496 0.53238 0.72458 0.0
H1906 H 0.93645 0.50291 0.74606 0.0
H1907 H 0.97323 0.57938 0.7676 0.0
O1908 O 0.91092 0.55064 0.83898 0.0
O1909 O 0.94354 0.52306 0.8097 0.0
O1910 O 0.9045 0.534 0.78042 0.0
O1911 O 0.9443 0.5792 0.80708 0.0
H1912 H 0.92775 0.54907 0.88406 0.0
H1913 H 0.86634 0.52797 0.83242 0.0
H1914 H 0.90487 0.53019 0.91487 0.0
H1915 H 0.84452 0.50975 0.86424 0.0
H1916 H 0.01523 0.51915 0.78788 0.0
H1917 H 0.9343 0.47418 0.78879 0.0
H1918 H 0.98776 0.54286 0.80749 0.0
H1919 H 0.96272 0.45165 0.76963 0.0
H1920 H 0.88217 0.44491 0.84552 0.0
H1921 H 0.86985 0.43779 0.76594 0.0
H1922 H 0.99612 0.60477 0.90775 0.0
H1923 H 0.99515 0.52556 0.88206 0.0
H1924 H 0.90999 0.55663 0.74222 0.0
H1925 H 0.85992 0.5205 0.78515 0.0
H1926 H 0.87797 0.56429 0.7159 0.0
H1927 H 0.82879 0.52891 0.75818 0.0
H1928 H 0.93157 0.61867 0.83296 0.0
H1929 H 0.98999 0.58883 0.81083 0.0
H1930 H 0.95859 0.65817 0.85583 0.0
H1931 H 0.01596 0.6288 0.83421 0.0
H1932 H 0.8367 0.58852 0.81312 0.0
H1933 H 0.88451 0.62591 0.76821 0.0
H1934 H 0.96384 0.4939 0.71569 0.0
H1935 H 1.00082 0.57254 0.73695 0.0
Li1936 Li 0.83282 0.43631 0.53888 0.0
Li1937 Li 0.81882 0.46911 0.5212 0.0
Li1938 Li 0.82821 0.43176 0.49394 0.0
Li1939 Li 0.85779 0.4656 0.51842 0.0
C1940 C 0.7864 0.41255 0.5193 0.0
N1941 N 0.75144 0.37301 0.52561 0.0
C1942 C 0.76537 0.41718 0.5265 0.0
C1943 C 0.78965 0.38783 0.51538 0.0
C1944 C 0.7479 0.39693 0.52957 0.0
C1945 C 0.77178 0.36809 0.51863 0.0
C1946 C 0.86096 0.48927 0.56495 0.0
C1947 C 0.88941 0.52893 0.57658 0.0
N1948 N 0.89894 0.52017 0.59524 0.0
C1949 C 0.87092 0.48076 0.58439 0.0
C1950 C 0.87016 0.51366 0.56115 0.0
C1951 C 0.89015 0.49663 0.59945 0.0
C1952 C 0.85049 0.40905 0.56911 0.0
N1953 N 0.83134 0.41739 0.56366 0.0
C1954 C 0.80946 0.3918 0.58821 0.0
C1955 C 0.81135 0.41008 0.57368 0.0
C1956 C 0.82862 0.3818 0.59305 0.0
C1957 C 0.84954 0.39117 0.58396 0.0
H1958 H 0.86623 0.41561 0.5611 0.0
H1959 H 0.79657 0.4175 0.56945 0.0
C1960 C 0.77804 0.48538 0.51233 0.0
N1961 N 0.79864 0.49066 0.52638 0.0
C1962 C 0.76262 0.50094 0.51766 0.0
C1963 C 0.79035 0.52722 0.55127 0.0
C1964 C 0.80502 0.511 0.54553 0.0
C1965 C 0.76871 0.52201 0.53753 0.0
H1966 H 0.77346 0.46884 0.49737 0.0
H1967 H 0.82147 0.51456 0.55642 0.0
C1968 C 0.86495 0.41034 0.50501 0.0
N1969 N 0.88609 0.37243 0.4845 0.0
C1970 C 0.8838 0.41584 0.49138 0.0
C1971 C 0.85703 0.38554 0.50835 0.0
C1972 C 0.8942 0.39643 0.48112 0.0
C1973 C 0.86789 0.36665 0.49779 0.0
C1974 C 0.84206 0.48802 0.47983 0.0
C1975 C 0.84836 0.48409 0.4556 0.0
C1976 C 0.84211 0.51258 0.49222 0.0
C1977 C 0.85501 0.50485 0.44437 0.0
C1978 C 0.84882 0.53285 0.48034 0.0
N1979 N 0.85511 0.5286 0.45687 0.0
C1980 C 0.80407 0.38919 0.45573 0.0
C1981 C 0.84104 0.41238 0.44982 0.0
C1982 C 0.80335 0.37205 0.4334 0.0
N1983 N 0.82293 0.40861 0.46352 0.0
C1984 C 0.84102 0.39593 0.42749 0.0
C1985 C 0.82207 0.37549 0.4192 0.0
H1986 H 0.7896 0.38701 0.46661 0.0
H1987 H 0.85563 0.42816 0.45645 0.0
C1988 C 0.90297 0.47102 0.53314 0.0
N1989 N 0.8893 0.48109 0.51918 0.0
C1990 C 0.92675 0.47724 0.5329 0.0
C1991 C 0.92218 0.50533 0.50503 0.0
C1992 C 0.89835 0.49837 0.50564 0.0
C1993 C 0.93646 0.49407 0.51822 0.0
H1994 H 0.89523 0.4573 0.54368 0.0
H1995 H 0.88728 0.50625 0.49477 0.0
O1996 O 0.80378 0.43226 0.51659 0.0
O1997 O 0.84236 0.47381 0.54973 0.0
O1998 O 0.85474 0.42923 0.51555 0.0
O1999 O 0.83551 0.46785 0.49107 0.0
H2000 H 0.76261 0.43623 0.5298 0.0
H2001 H 0.80576 0.38393 0.50977 0.0
H2002 H 0.73155 0.40024 0.53515 0.0
H2003 H 0.77408 0.34887 0.51561 0.0
H2004 H 0.89681 0.54773 0.57368 0.0
H2005 H 0.86392 0.46211 0.58783 0.0
H2006 H 0.86275 0.52061 0.54623 0.0
H2007 H 0.89808 0.49022 0.61448 0.0
H2008 H 0.79295 0.38481 0.59461 0.0
H2009 H 0.86477 0.38418 0.58768 0.0
H2010 H 0.74599 0.4963 0.50675 0.0
H2011 H 0.79585 0.54361 0.56634 0.0
H2012 H 0.89018 0.43483 0.48842 0.0
H2013 H 0.84279 0.38088 0.51917 0.0
H2014 H 0.90872 0.40044 0.47045 0.0
H2015 H 0.86189 0.3474 0.50024 0.0
H2016 H 0.84814 0.46524 0.44552 0.0
H2017 H 0.83721 0.51605 0.51085 0.0
H2018 H 0.86004 0.50207 0.42569 0.0
H2019 H 0.84904 0.55196 0.48979 0.0
H2020 H 0.78826 0.35669 0.42704 0.0
H2021 H 0.85561 0.39916 0.41673 0.0
H2022 H 0.93743 0.46869 0.54373 0.0
H2023 H 0.92931 0.51866 0.4938 0.0
Li2024 Li 0.67367 0.52054 0.2994 0.0
Li2025 Li 0.70649 0.54662 0.27721 0.0
Li2026 Li 0.67156 0.5177 0.24562 0.0
Li2027 Li 0.70454 0.49483 0.27195 0.0
C2028 C 0.66478 0.56758 0.28236 0.0
N2029 N 0.6483 0.61088 0.29519 0.0
C2030 C 0.66793 0.58077 0.30702 0.0
C2031 C 0.65306 0.57625 0.26426 0.0
C2032 C 0.65959 0.60271 0.31312 0.0
C2033 C 0.64488 0.5982 0.27111 0.0
C2034 C 0.72719 0.53708 0.32081 0.0
C2035 C 0.76711 0.54494 0.33707 0.0
N2036 N 0.76376 0.56361 0.35548 0.0
C2037 C 0.72412 0.55629 0.33991 0.0
C2038 C 0.74883 0.53131 0.31936 0.0
C2039 C 0.74283 0.56951 0.35724 0.0
C2040 C 0.66747 0.52332 0.35633 0.0
N2041 N 0.65553 0.52243 0.3339 0.0
C2042 C 0.62177 0.52584 0.35734 0.0
C2043 C 0.63273 0.52362 0.3346 0.0
C2044 C 0.63381 0.52736 0.38089 0.0
C2045 C 0.65723 0.52578 0.37941 0.0
H2046 H 0.68535 0.52216 0.35667 0.0
H2047 H 0.62265 0.52305 0.31743 0.0
C2048 C 0.73768 0.59079 0.25992 0.0
N2049 N 0.72694 0.58408 0.2798 0.0
C2050 C 0.74989 0.6161 0.26034 0.0
C2051 C 0.7399 0.62847 0.30145 0.0
C2052 C 0.72803 0.60282 0.30038 0.0
C2053 C 0.75137 0.63585 0.28131 0.0
H2054 H 0.73646 0.57669 0.24315 0.0
H2055 H 0.71931 0.59818 0.31612 0.0
C2056 C 0.64888 0.46959 0.26718 0.0
N2057 N 0.61067 0.43038 0.26464 0.0
C2058 C 0.65167 0.44553 0.26924 0.0
C2059 C 0.62671 0.47377 0.26384 0.0
C2060 C 0.63211 0.42593 0.26789 0.0
C2061 C 0.60759 0.45368 0.26262 0.0
C2062 C 0.7253 0.52442 0.23282 0.0
C2063 C 0.7221 0.52781 0.20845 0.0
C2064 C 0.74758 0.52667 0.24379 0.0
C2065 C 0.74135 0.53379 0.19557 0.0
C2066 C 0.76639 0.53269 0.2303 0.0
N2067 N 0.76291 0.53612 0.20668 0.0
C2068 C 0.66222 0.54137 0.19981 0.0
C2069 C 0.63314 0.50491 0.19756 0.0
C2070 C 0.65209 0.5458 0.17719 0.0
N2071 N 0.65311 0.521 0.2101 0.0
C2072 C 0.62239 0.50876 0.17479 0.0
C2073 C 0.63174 0.52939 0.16346 0.0
H2074 H 0.67764 0.55479 0.20926 0.0
H2075 H 0.62519 0.48873 0.20504 0.0
C2076 C 0.73404 0.45849 0.29221 0.0
N2077 N 0.72322 0.46232 0.27089 0.0
C2078 C 0.74607 0.43835 0.29252 0.0
C2079 C 0.73633 0.42479 0.24906 0.0
C2080 C 0.72455 0.4453 0.24949 0.0
C2081 C 0.74785 0.42036 0.27078 0.0
H2082 H 0.73354 0.47116 0.30961 0.0
H2083 H 0.71626 0.44723 0.23218 0.0
O2084 O 0.67208 0.54557 0.27622 0.0
O2085 O 0.70912 0.52404 0.30356 0.0
O2086 O 0.66776 0.48897 0.26823 0.0
O2087 O 0.70676 0.51886 0.2459 0.0
H2088 H 0.6766 0.57405 0.32131 0.0
H2089 H 0.65004 0.56599 0.2452 0.0
H2090 H 0.66196 0.61315 0.33213 0.0
H2091 H 0.6357 0.60508 0.25731 0.0
H2092 H 0.78396 0.54067 0.33618 0.0
H2093 H 0.7075 0.561 0.3413 0.0
H2094 H 0.75149 0.51645 0.30473 0.0
H2095 H 0.74071 0.58447 0.37209 0.0
H2096 H 0.60382 0.52686 0.35638 0.0
H2097 H 0.66784 0.52597 0.39609 0.0
H2098 H 0.75755 0.62021 0.24382 0.0
H2099 H 0.74012 0.64246 0.31817 0.0
H2100 H 0.66876 0.44204 0.27178 0.0
H2101 H 0.62433 0.49233 0.26219 0.0
H2102 H 0.63397 0.40717 0.26941 0.0
H2103 H 0.59031 0.4566 0.26004 0.0
H2104 H 0.70496 0.52577 0.19956 0.0
H2105 H 0.75031 0.524 0.26259 0.0
H2106 H 0.73915 0.53655 0.17673 0.0
H2107 H 0.78375 0.53465 0.23862 0.0
H2108 H 0.66027 0.56261 0.17083 0.0
H2109 H 0.60686 0.49515 0.16586 0.0
H2110 H 0.7542 0.43726 0.31021 0.0
H2111 H 0.73578 0.41216 0.23141 0.0
Eu2112 Eu 0.04205 0.02914 0.01085 0.0
C2113 C 0.10033 0.12227 0.07453 0.0
C2114 C 0.105 0.15097 0.04597 0.0
C2115 C 0.10287 0.16727 0.08964 0.0
C2116 C 0.10176 0.12612 0.0505 0.0
C2117 C 0.10188 0.143 0.09448 0.0
C2118 C 0.10446 0.17125 0.0654 0.0
C2119 C 0.10576 0.11533 0.12282 0.0
N2120 N 0.10018 0.09882 0.07876 0.0
C2121 C 0.10458 0.09554 0.10249 0.0
C2122 C 0.1038 0.13904 0.1188 0.0
Eu2123 Eu 0.09473 0.06538 0.04317 0.0
N2124 N 0.10257 0.10615 0.03212 0.0
C2125 C 0.10957 0.11056 0.00976 0.0
C2126 C 0.11004 0.155 0.0224 0.0
C2127 C 0.11306 0.13485 1.0045 0.0
H2128 H 0.10649 0.07728 0.1056 0.0
H2129 H 0.11788 0.13793 0.9865 0.0
H2130 H 0.10643 0.19032 0.0621 0.0
H2131 H 0.10833 0.11232 0.14154 0.0
H2132 H 0.11217 0.09569 0.99538 0.0
H2133 H 0.01832 0.96055 0.07098 0.0
H2134 H 0.11267 0.17377 0.01821 0.0
H2135 H 0.03272 0.01574 0.94821 0.0
H2136 H 0.02597 1.00216 0.06012 0.0
H2137 H 0.02821 0.97922 0.91334 0.0
H2138 H 0.10365 0.18331 0.10467 0.0
H2139 H 0.02019 0.92259 0.03996 0.0
H2140 H 0.02391 0.90341 0.99587 0.0
H2141 H 0.10503 0.15448 0.13458 0.0
H2142 H 0.02648 0.90847 0.95265 0.0
N2143 N 0.03303 0.98894 0.02298 0.0
C2144 C 0.02688 0.98618 0.04604 0.0
C2145 C 0.02361 0.94101 0.03494 0.0
C2146 C 0.02797 0.94354 0.0108 0.0
C2147 C 0.02243 0.96236 0.05243 0.0
C2148 C 0.03233 0.968 1.00524 0.0
H2149 H 0.0274 0.93653 0.92164 0.0
N2150 N 0.03541 0.99425 0.97618 0.0
C2151 C 0.02989 0.97655 0.93227 0.0
C2152 C 0.03364 0.97078 0.98102 0.0
C2153 C 0.03238 0.99717 0.95212 0.0
C2154 C 0.02955 0.95254 0.93703 0.0
C2155 C 0.03085 0.94929 0.96161 0.0
O2156 O 0.01124 0.02738 0.98656 0.0
O2157 O 0.06193 0.07017 0.02375 0.0
O2158 O 0.06937 0.06408 0.07415 0.0
O2159 O 0.03429 0.04266 0.0522 0.0
O2160 O 0.04755 0.05897 0.98722 0.0
O2161 O 0.01037 0.03551 0.02623 0.0
O2162 O 0.1294 0.08011 0.06236 0.0
O2163 O 0.07484 0.02445 0.03051 0.0
O2164 O 0.06851 0.02768 0.98079 0.0
O2165 O 0.10184 0.05527 1.00135 0.0
O2166 O 0.08912 0.03581 0.06719 0.0
O2167 O 0.12281 0.04699 0.03283 0.0
C2168 C 0.05865 0.07822 1.00368 0.0
C2169 C 0.97529 0.01587 1.00164 0.0
C2170 C 0.93415 0.01409 0.99975 0.0
C2171 C 0.95707 0.02809 1.00285 0.0
C2172 C 0.92963 0.98749 0.99551 0.0
C2173 C 0.97075 0.98933 0.99742 0.0
C2174 C 0.94791 0.97521 0.99437 0.0
C2175 C 0.04673 0.05487 0.07373 0.0
C2176 C 0.99872 0.03156 1.00463 0.0
C2177 C 0.02832 0.92514 0.96726 0.0
C2178 C 0.02688 0.92226 0.99186 0.0
C2179 C 0.07804 0.01643 0.05066 0.0
C2180 C 0.16018 0.07333 0.03918 0.0
C2181 C 0.17648 0.05853 0.03772 0.0
C2182 C 0.19835 0.06753 0.03049 0.0
C2183 C 0.20336 0.09118 0.0235 0.0
C2184 C 0.16536 0.09707 0.03245 0.0
C2185 C 0.18686 0.10583 0.02443 0.0
C2186 C 0.09036 0.04004 0.98053 0.0
C2187 C 0.13827 0.06366 0.04852 0.0
H2188 H 0.96076 0.04865 1.00636 0.0
H2189 H 0.91204 0.97627 0.9928 0.0
H2190 H 0.98476 0.97965 0.99641 0.0
H2191 H 0.94437 0.95471 0.99101 0.0
H2192 H 0.17216 0.03998 0.04248 0.0
H2193 H 0.22011 0.09847 0.01773 0.0
H2194 H 0.15294 0.10884 0.03355 0.0
H2195 H 0.19085 0.12411 0.0192 0.0
Eu2196 Eu 0.32993 0.78601 0.24973 0.0
C2197 C 0.31144 0.87033 0.32143 0.0
C2198 C 0.34315 0.88632 0.354 0.0
C2199 C 0.32426 0.9158 0.33822 0.0
C2200 C 0.3283 0.86583 0.33713 0.0
C2201 C 0.30872 0.89538 0.32254 0.0
C2202 C 0.3415 0.91127 0.35388 0.0
C2203 C 0.27378 0.87826 0.29501 0.0
N2204 N 0.29666 0.8502 0.30637 0.0
C2205 C 0.27714 0.8539 0.29453 0.0
C2206 C 0.28993 0.89916 0.3086 0.0
Eu2207 Eu 0.30356 0.80891 0.30656 0.0
N2208 N 0.3288 0.84142 0.3376 0.0
C2209 C 0.3415 0.83654 0.35699 0.0
C2210 C 0.35836 0.88112 0.37151 0.0
C2211 C 0.35709 0.85609 0.37342 0.0
H2212 H 0.26333 0.8384 0.28526 0.0
H2213 H 0.36766 0.85185 0.38801 0.0
H2214 H 0.35287 0.92715 0.36655 0.0
H2215 H 0.25851 0.88085 0.28514 0.0
H2216 H 0.3396 0.81759 0.36037 0.0
H2217 H 0.27575 0.74982 0.16068 0.0
H2218 H 0.3701 0.8963 0.38462 0.0
H2219 H 0.36518 0.75317 0.27557 0.0
H2220 H 0.3012 0.78207 0.19342 0.0
H2221 H 0.36766 0.70985 0.27471 0.0
H2222 H 0.32265 0.93511 0.33894 0.0
H2223 H 0.2706 0.70436 0.16166 0.0
H2224 H 0.28298 0.67103 0.18081 0.0
H2225 H 0.28725 0.91804 0.309 0.0
H2226 H 0.30875 0.66017 0.21143 0.0
N2227 N 0.30813 0.75559 0.21493 0.0
C2228 C 0.2983 0.7624 0.19486 0.0
C2229 C 0.2813 0.71854 0.17654 0.0
C2230 C 0.29359 0.71153 0.19543 0.0
C2231 C 0.28414 0.74413 0.17593 0.0
C2232 C 0.30718 0.73076 0.21452 0.0
H2233 H 0.34075 0.67449 0.2459 0.0
N2234 N 0.33506 0.74381 0.24925 0.0
C2235 C 0.35424 0.71365 0.26287 0.0
C2236 C 0.32141 0.72468 0.23192 0.0
C2237 C 0.35224 0.73857 0.26369 0.0
C2238 C 0.33913 0.69379 0.24652 0.0
C2239 C 0.32276 0.69916 0.23043 0.0
O2240 O 0.36738 0.79826 0.25082 0.0
O2241 O 0.32847 0.81914 0.27953 0.0
O2242 O 0.27792 0.80422 0.27188 0.0
O2243 O 0.29599 0.79481 0.23607 0.0
O2244 O 0.3272 0.82431 0.24288 0.0
O2245 O 0.3462 0.79057 0.21595 0.0
O2246 O 0.26643 0.79926 0.30896 0.0
O2247 O 0.30434 0.77635 0.27609 0.0
O2248 O 0.35525 0.79093 0.2845 0.0
O2249 O 0.33581 0.79658 0.31985 0.0
O2250 O 0.30296 0.76904 0.31176 0.0
O2251 O 0.29007 0.80727 0.34229 0.0
C2252 C 0.32767 0.83502 0.2659 0.0
C2253 C 0.37748 0.82652 0.2238 0.0
C2254 C 0.3788 0.85919 0.19929 0.0
C2255 C 0.36995 0.83454 0.2027 0.0
C2256 C 0.3952 0.87615 0.21742 0.0
C2257 C 0.39425 0.84358 0.24159 0.0
C2258 C 0.40294 0.86829 0.23841 0.0
C2259 C 0.27831 0.80075 0.24738 0.0
C2260 C 0.36649 0.80115 0.22791 0.0
C2261 C 0.30827 0.67986 0.21246 0.0
C2262 C 0.29357 0.68603 0.19507 0.0
C2263 C 0.30323 0.75932 0.2886 0.0
C2264 C 0.2547 0.7769 0.34011 0.0
C2265 C 0.26485 0.76251 0.35408 0.0
C2266 C 0.2512 0.74182 0.36179 0.0
C2267 C 0.22722 0.7354 0.35505 0.0
C2268 C 0.23077 0.77013 0.33343 0.0
C2269 C 0.21714 0.74939 0.34078 0.0
C2270 C 0.35423 0.79268 0.30877 0.0
C2271 C 0.26867 0.79911 0.33254 0.0
H2272 H 0.35669 0.82177 0.1891 0.0
H2273 H 0.4022 0.89533 0.21519 0.0
H2274 H 0.40034 0.83802 0.25816 0.0
H2275 H 0.41565 0.8814 0.25231 0.0
H2276 H 0.28335 0.76746 0.35918 0.0
H2277 H 0.21618 0.72 0.36135 0.0
H2278 H 0.22261 0.781 0.32263 0.0
H2279 H 0.19866 0.7444 0.33575 0.0
Eu2280 Eu 0.59762 0.0528 0.51729 0.0
C2281 C 0.51564 1.00804 0.57372 0.0
C2282 C 0.4966 0.96779 0.54715 0.0
C2283 C 0.4953 0.97372 0.59183 0.0
C2284 C 0.51001 0.99279 0.5503 0.0
C2285 C 0.50804 0.99884 0.59474 0.0
C2286 C 0.48961 0.95822 0.56807 0.0
C2287 C 0.52499 0.0404 0.61978 0.0
N2288 N 0.52787 0.03225 0.57586 0.0
C2289 C 0.53207 0.04869 0.59839 0.0
C2290 C 0.51309 0.01531 0.618 0.0
Eu2291 Eu 0.54009 0.04461 0.53889 0.0
N2292 N 0.51693 1.00268 0.53049 0.0
C2293 C 0.50977 0.9891 0.5069 0.0
C2294 C 0.49024 0.95335 0.52305 0.0
C2295 C 0.49663 0.96417 0.50282 0.0
H2296 H 0.5413 0.06811 0.60004 0.0
H2297 H 0.49152 0.95331 0.48407 0.0
H2298 H 0.47945 0.93901 0.56604 0.0
H2299 H 0.52871 0.05339 0.63763 0.0
H2300 H 0.51464 0.99712 0.49109 0.0
H2301 H 0.64644 0.14208 0.57563 0.0
H2302 H 0.48004 0.93404 0.51985 0.0
H2303 H 0.5978 0.03179 0.45608 0.0
H2304 H 0.6238 0.09789 0.56672 0.0
H2305 H 0.61033 0.04862 0.41936 0.0
H2306 H 0.48944 0.96625 0.60777 0.0
H2307 H 0.65673 0.16389 0.54112 0.0
H2308 H 0.65664 0.16154 0.4951 0.0
H2309 H 0.50756 1.00896 0.6346 0.0
H2310 H 0.64703 0.13602 0.45256 0.0
N2311 N 0.62061 0.09478 0.52752 0.0
C2312 C 0.62817 0.10708 0.55145 0.0
C2313 C 0.64676 0.14445 0.53708 0.0
C2314 C 0.6402 0.13119 0.51256 0.0
C2315 C 0.64104 0.13219 0.5566 0.0
C2316 C 0.62713 0.10597 0.50834 0.0
H2317 H 0.6302 0.09376 0.42418 0.0
N2318 N 0.61011 0.06715 0.48134 0.0
C2319 C 0.61359 0.06096 0.43756 0.0
C2320 C 0.62175 0.09168 0.48448 0.0
C2321 C 0.60658 0.05148 0.4584 0.0
C2322 C 0.62476 0.08647 0.44035 0.0
C2323 C 0.62923 0.10211 0.46406 0.0
O2324 O 0.61844 0.02591 0.50357 0.0
O2325 O 0.5669 0.02379 0.52417 0.0
O2326 O 0.56242 0.03202 0.56594 0.0
O2327 O 0.59783 0.05586 0.55904 0.0
O2328 O 0.5818 0.01455 0.49203 0.0
O2329 O 0.62875 0.05104 0.53937 0.0
O2330 O 0.5199 0.07274 0.55054 0.0
O2331 O 0.57082 0.07345 0.53168 0.0
O2332 O 0.57438 0.06377 0.48956 0.0
O2333 O 0.53972 0.03937 0.49718 0.0
O2334 O 0.55645 0.08292 0.56403 0.0
O2335 O 0.50842 0.0448 0.51667 0.0
C2336 C 0.56601 1.00608 0.50528 0.0
C2337 C 0.65824 0.0371 0.51765 0.0
C2338 C 0.69498 0.02409 0.5194 0.0
C2339 C 0.67147 0.02021 0.5235 0.0
C2340 C 0.70484 0.04468 0.50883 0.0
C2341 C 0.6685 0.0575 0.50717 0.0
C2342 C 0.69166 0.06118 0.50271 0.0
C2343 C 0.58462 0.04187 0.57207 0.0
C2344 C 0.6339 0.03346 0.52276 0.0
C2345 C 0.64135 0.12757 0.46803 0.0
C2346 C 0.64681 0.1421 0.49225 0.0
C2347 C 0.57215 0.09118 0.55062 0.0
C2348 C 0.4798 0.06087 0.53829 0.0
C2349 C 0.46598 0.07666 0.53105 0.0
C2350 C 0.44298 0.07389 0.53707 0.0
C2351 C 0.43435 0.05557 0.5509 0.0
C2352 C 0.4706 0.04259 0.55179 0.0
C2353 C 0.44804 0.04004 0.55812 0.0
C2354 C 0.55241 0.05255 0.48315 0.0
C2355 C 0.50382 0.06371 0.53204 0.0
H2356 H 0.66362 1.00439 0.53158 0.0
H2357 H 0.72278 0.0479 0.50514 0.0
H2358 H 0.65862 0.0706 0.5025 0.0
H2359 H 0.69945 0.07694 0.49455 0.0
H2360 H 0.473 0.09081 0.52057 0.0
H2361 H 0.41698 0.05338 0.55635 0.0
H2362 H 0.48089 0.03036 0.55754 0.0
H2363 H 0.44115 0.026 0.56872 0.0
Eu2364 Eu 0.28933 0.30442 0.7739 0.0
C2365 C 0.3645 0.26641 0.82424 0.0
C2366 C 0.37668 0.29945 0.86126 0.0
C2367 C 0.378 0.25606 0.86273 0.0
C2368 C 0.3675 0.29158 0.83607 0.0
C2369 C 0.37067 0.24865 0.83721 0.0
C2370 C 0.38097 0.28141 0.87474 0.0
C2371 C 0.36537 0.21862 0.79812 0.0
N2372 N 0.3578 0.25984 0.79949 0.0
C2373 C 0.35944 0.23686 0.78607 0.0
C2374 C 0.37045 0.22433 0.8239 0.0
Eu2375 Eu 0.34614 0.29109 0.78095 0.0
N2376 N 0.36355 0.30871 0.82244 0.0
C2377 C 0.37122 0.33414 0.83216 0.0
C2378 C 0.38242 0.32535 0.87186 0.0
C2379 C 0.3803 0.34277 0.85705 0.0
H2380 H 0.35538 0.2324 0.76612 0.0
H2381 H 0.38549 0.36291 0.86482 0.0
H2382 H 0.3876 0.28709 0.8942 0.0
H2383 H 0.36592 0.20017 0.78754 0.0
H2384 H 0.36988 0.3482 0.82141 0.0
H2385 H 0.25058 0.23498 0.68922 0.0
H2386 H 0.38945 0.33213 0.89113 0.0
H2387 H 0.28143 0.36315 0.79068 0.0
H2388 H 0.26754 0.24936 0.73264 0.0
H2389 H 0.26954 0.39603 0.7713 0.0
H2390 H 0.38241 0.24257 0.87309 0.0
H2391 H 0.24432 0.26626 0.66426 0.0
H2392 H 0.24456 0.31159 0.6628 0.0
H2393 H 0.37512 0.2102 0.83319 0.0
H2394 H 0.24964 0.35571 0.68529 0.0
N2395 N 0.27166 0.28865 0.73244 0.0
C2396 C 0.26482 0.26333 0.7222 0.0
C2397 C 0.25178 0.27273 0.68341 0.0
C2398 C 0.25701 0.29849 0.69462 0.0
C2399 C 0.25519 0.25502 0.69746 0.0
C2400 C 0.26681 0.3059 0.71958 0.0
H2401 H 0.25823 0.38721 0.726 0.0
N2402 N 0.27738 0.33638 0.75659 0.0
C2403 C 0.26971 0.37778 0.76 0.0
C2404 C 0.2698 0.33064 0.73209 0.0
C2405 C 0.27635 0.35913 0.77091 0.0
C2406 C 0.26345 0.37278 0.73442 0.0
C2407 C 0.26292 0.34877 0.7202 0.0
O2408 O 0.26687 0.31662 0.80166 0.0
O2409 O 0.31697 0.30079 0.80208 0.0
O2410 O 0.32053 0.25311 0.78304 0.0
O2411 O 0.2846 0.2617 0.77508 0.0
O2412 O 0.30311 0.33255 0.80948 0.0
O2413 O 0.25535 0.28066 0.77654 0.0
O2414 O 0.36692 0.30756 0.75381 0.0
O2415 O 0.31826 0.29351 0.75315 0.0
O2416 O 0.31494 0.34031 0.76713 0.0
O2417 O 0.35018 0.33428 0.78251 0.0
O2418 O 0.33177 0.26152 0.7462 0.0
O2419 O 0.38176 0.28704 0.7771 0.0
C2420 C 0.31715 0.32075 0.81818 0.0
C2421 C 0.22644 0.30124 0.79199 0.0
C2422 C 0.18878 0.30124 0.8078 0.0
C2423 C 0.21102 0.29626 0.81 0.0
C2424 C 0.18221 0.31108 0.78748 0.0
C2425 C 0.21927 0.31082 0.77177 0.0
C2426 C 0.19732 0.31573 0.76959 0.0
C2427 C 0.2975 0.24571 0.7795 0.0
C2428 C 0.25 0.29673 0.79446 0.0
C2429 C 0.25468 0.34196 0.69487 0.0
C2430 C 0.25177 0.31684 0.68207 0.0
C2431 C 0.31789 0.27342 0.73722 0.0
C2432 C 0.39532 0.28664 0.73737 0.0
C2433 C 0.41793 0.29741 0.73221 0.0
C2434 C 0.42751 0.28584 0.71134 0.0
C2435 C 0.41414 0.26347 0.69602 0.0
C2436 C 0.3827 0.26418 0.72172 0.0
C2437 C 0.39202 0.25278 0.70121 0.0
C2438 C 0.33758 0.3489 0.77414 0.0
C2439 C 0.38482 0.29879 0.75883 0.0
H2440 H 0.21636 0.28881 0.82569 0.0
H2441 H 0.16527 0.3151 0.78543 0.0
H2442 H 0.23065 0.31454 0.75767 0.0
H2443 H 0.19199 0.32322 0.75395 0.0
H2444 H 0.4278 0.31482 0.74411 0.0
H2445 H 0.42094 0.25399 0.68004 0.0
H2446 H 0.36561 0.25531 0.72529 0.0
H2447 H 0.38204 0.23548 0.68927 0.0
Eu2448 Eu 0.0632 0.0769 0.5403 0.0
C2449 C 0.07997 1.01095 0.45507 0.0
C2450 C 0.04191 0.99886 0.43224 0.0
C2451 C 0.0759 1.00498 0.40995 0.0
C2452 C 0.05619 1.00548 0.45501 0.0
C2453 C 0.09003 1.00988 0.43242 0.0
C2454 C 0.05188 0.99947 0.40986 0.0
C2455 C 0.12703 0.01484 0.45532 0.0
N2456 N 0.0932 0.01512 0.47701 0.0
C2457 C 0.11627 0.01546 0.47718 0.0
C2458 C 0.11393 0.01261 0.43288 0.0
Eu2459 Eu 0.07366 0.01903 0.51362 0.0
N2460 N 0.04699 1.00498 0.47697 0.0
C2461 C 0.02383 0.99536 0.47698 0.0
C2462 C 0.01805 0.99112 0.43254 0.0
C2463 C 1.00904 0.98883 0.45495 0.0
H2464 H 0.12651 0.01624 0.49429 0.0
H2465 H 0.99067 0.98186 0.4553 0.0
H2466 H 0.04116 0.9949 0.3923 0.0
H2467 H 0.14538 0.01582 0.45577 0.0
H2468 H 0.01636 0.99224 0.49365 0.0
H2469 H 0.1473 0.11571 0.59571 0.0
H2470 H 1.00653 0.986 0.41549 0.0
H2471 H 0.01051 0.07643 0.56249 0.0
H2472 H 0.12011 0.10512 0.55838 0.0
H2473 H 0.99339 0.07477 0.60167 0.0
H2474 H 0.08336 1.00446 0.39245 0.0
H2475 H 0.13332 0.11026 0.63611 0.0
H2476 H 0.09997 0.09944 0.66065 0.0
H2477 H 0.12226 1.01186 0.41589 0.0
H2478 H 0.058 0.08793 0.6622 0.0
N2479 N 0.09075 0.09083 0.5762 0.0
C2480 C 0.11359 0.1013 0.57532 0.0
C2481 C 0.12122 0.105 0.61951 0.0
C2482 C 0.09759 0.09633 0.62074 0.0
C2483 C 0.12917 0.10799 0.59675 0.0
C2484 C 0.08251 0.08961 0.59852 0.0
H2485 H 0.01822 0.07893 0.64043 0.0
N2486 N 0.04483 0.07847 0.57793 0.0
C2487 C 0.0118 0.07663 0.60126 0.0
C2488 C 0.05889 0.08299 0.59937 0.0
C2489 C 0.02165 0.0771 0.57894 0.0
C2490 C 0.02586 0.07903 0.62308 0.0
C2491 C 0.04976 0.08307 0.62249 0.0
O2492 O 0.04769 0.1096 0.54985 0.0
O2493 O 0.06233 0.05292 0.50119 0.0
O2494 O 0.10808 0.04693 0.51695 0.0
O2495 O 0.0962 0.08438 0.52104 0.0
O2496 O 0.03422 0.06851 0.50899 0.0
O2497 O 0.07903 0.11323 0.53085 0.0
O2498 O 0.08617 0.98429 0.50367 0.0
O2499 O 0.07454 0.04306 0.55244 0.0
O2500 O 0.02841 0.04916 0.53632 0.0
O2501 O 0.03985 1.01138 0.53092 0.0
O2502 O 0.10353 0.02912 0.54433 0.0
O2503 O 0.06105 0.98633 0.53005 0.0
C2504 C 0.04296 0.05591 0.49121 0.0
C2505 C 0.06354 0.15084 0.54064 0.0
C2506 C 0.07383 0.18823 0.52255 0.0
C2507 C 0.07305 0.1625 0.52181 0.0
C2508 C 0.06507 0.20225 0.54222 0.0
C2509 C 0.05456 0.165 0.56 0.0
C2510 C 0.05542 0.19062 0.56079 0.0
C2511 C 0.11213 0.07125 0.5168 0.0
C2512 C 0.06344 0.12417 0.54047 0.0
C2513 C 0.06473 0.0882 0.64439 0.0
C2514 C 0.08861 0.0948 0.64351 0.0
C2515 C 0.09415 0.04065 0.56229 0.0
C2516 C 0.06168 0.94564 0.50838 0.0
C2517 C 0.05713 0.93001 0.52566 0.0
C2518 C 0.04694 0.90412 0.5178 0.0
C2519 C 0.04106 0.8939 0.49232 0.0
C2520 C 0.05551 0.9354 0.48297 0.0
C2521 C 0.04522 0.90956 0.47503 0.0
C2522 C 0.02431 0.02476 0.53618 0.0
C2523 C 0.07321 0.97233 0.51781 0.0
H2524 H 0.07986 0.15166 0.50666 0.0
H2525 H 0.06543 0.2221 0.54298 0.0
H2526 H 0.04719 0.15634 0.5747 0.0
H2527 H 0.04859 0.20149 0.57583 0.0
H2528 H 0.0619 0.93795 0.54532 0.0
H2529 H 0.03309 0.87394 0.48588 0.0
H2530 H 0.0587 0.94727 0.46937 0.0
H2531 H 0.04051 0.90163 0.45542 0.0
Eu2532 Eu 0.34411 0.8162 0.76786 0.0
C2533 C 0.28296 0.7452 0.82044 0.0
C2534 C 0.29209 0.70456 0.80564 0.0
C2535 C 0.27892 0.71381 0.84653 0.0
C2536 C 0.29069 0.72893 0.80222 0.0
C2537 C 0.27646 0.73754 0.84254 0.0
C2538 C 0.28674 0.69736 0.82813 0.0
C2539 C 0.26373 0.77644 0.85427 0.0
N2540 N 0.28051 0.76793 0.81593 0.0
C2541 C 0.2703 0.78317 0.83206 0.0
C2542 C 0.26703 0.75365 0.85966 0.0
Eu2543 Eu 0.29243 0.77784 0.77789 0.0
N2544 N 0.29515 0.73617 0.78043 0.0
C2545 C 0.29938 0.71929 0.7607 0.0
C2546 C 0.29793 0.68778 0.78599 0.0
C2547 C 0.30121 0.69503 0.76329 0.0
H2548 H 0.26755 0.80079 0.82814 0.0
H2549 H 0.30519 0.68199 0.74777 0.0
H2550 H 0.28792 0.67881 0.83117 0.0
H2551 H 0.2561 0.78882 0.86721 0.0
H2552 H 0.30185 0.72464 0.74301 0.0
H2553 H 0.32845 0.91167 0.78706 0.0
H2554 H 0.29924 0.66893 0.78791 0.0
H2555 H 0.38015 0.79547 0.72754 0.0
H2556 H 0.33178 0.8705 0.79634 0.0
H2557 H 0.39655 0.80541 0.68986 0.0
H2558 H 0.27422 0.70771 0.8635 0.0
H2559 H 0.33778 0.92172 0.7464 0.0
H2560 H 0.35359 0.90956 0.70581 0.0
H2561 H 0.26183 0.74844 0.87685 0.0
H2562 H 0.37227 0.88045 0.6792 0.0
N2563 N 0.34142 0.85663 0.76077 0.0
C2564 C 0.33551 0.87445 0.77838 0.0
C2565 C 0.33903 0.90349 0.75029 0.0
C2566 C 0.34696 0.88599 0.73313 0.0
C2567 C 0.33382 0.89793 0.77328 0.0
C2568 C 0.34826 0.86251 0.73912 0.0
H2569 H 0.38896 0.84194 0.67347 0.0
N2570 N 0.36175 0.82496 0.73188 0.0
C2571 C 0.38567 0.81682 0.69911 0.0
C2572 C 0.35881 0.84618 0.72419 0.0
C2573 C 0.37601 0.81105 0.72044 0.0
C2574 C 0.38132 0.83743 0.6899 0.0
C2575 C 0.36825 0.85281 0.7028 0.0
O2576 O 0.37702 0.81055 0.78277 0.0
O2577 O 0.33094 0.77784 0.77923 0.0
O2578 O 0.31371 0.79077 0.81475 0.0
O2579 O 0.33316 0.82817 0.80603 0.0
O2580 O 0.35316 0.77817 0.75249 0.0
O2581 O 0.37031 0.84785 0.79002 0.0
O2582 O 0.25732 0.78297 0.77287 0.0
O2583 O 0.30521 0.81595 0.76598 0.0
O2584 O 0.32638 0.80177 0.72934 0.0
O2585 O 0.29991 0.7678 0.73774 0.0
O2586 O 0.28269 0.81556 0.79263 0.0
O2587 O 0.26514 0.74807 0.75466 0.0
C2588 C 0.34229 0.76357 0.76579 0.0
C2589 C 0.40851 0.84453 0.78372 0.0
C2590 C 0.4494 0.84474 0.78493 0.0
C2591 C 0.42761 0.83675 0.79289 0.0
C2592 C 0.45188 0.86025 0.7673 0.0
C2593 C 0.41135 0.8606 0.76657 0.0
C2594 C 0.43291 0.86821 0.75827 0.0
C2595 C 0.32571 0.81416 0.82206 0.0
C2596 C 0.38569 0.83453 0.79125 0.0
C2597 C 0.36541 0.87522 0.69575 0.0
C2598 C 0.35477 0.8918 0.7109 0.0
C2599 C 0.29332 0.83 0.77903 0.0
C2600 C 0.22764 0.74654 0.7675 0.0
C2601 C 0.2069 0.75271 0.76077 0.0
C2602 C 0.18625 0.74178 0.76953 0.0
C2603 C 0.18672 0.72468 0.78544 0.0
C2604 C 0.22772 0.7289 0.7828 0.0
C2605 C 0.20734 0.71814 0.79183 0.0
C2606 C 0.31062 0.78048 0.72206 0.0
C2607 C 0.24905 0.76027 0.7598 0.0
H2608 H 0.42549 0.82431 0.80609 0.0
H2609 H 0.46857 0.86663 0.76097 0.0
H2610 H 0.39695 0.86715 0.75946 0.0
H2611 H 0.43494 0.8804 0.7449 0.0
H2612 H 0.20687 0.76609 0.74863 0.0
H2613 H 0.17121 0.71646 0.79303 0.0
H2614 H 0.24347 0.72362 0.78797 0.0
H2615 H 0.20755 0.70484 0.80395 0.0
Eu2616 Eu 0.57709 0.03919 0.05497 0.0
C2617 C 0.51353 0.06895 0.97686 0.0
C2618 C 0.48591 0.02927 0.9605 0.0
C2619 C 0.4742 0.06909 0.96253 0.0
C2620 C 0.50823 0.04283 0.97119 0.0
C2621 C 0.49681 0.08245 0.97184 0.0
C2622 C 0.46875 0.04251 0.9569 0.0
C2623 C 0.52669 0.12107 0.98287 0.0
N2624 N 0.53554 0.08118 0.9856 0.0
C2625 C 0.54264 0.10677 0.98737 0.0
C2626 C 0.50356 0.1089 0.97549 0.0
Eu2627 Eu 0.56141 0.05616 0.99473 0.0
N2628 N 0.52527 0.03071 0.97484 0.0
C2629 C 0.52164 1.00514 0.9662 0.0
C2630 C 0.48175 1.0029 0.95302 0.0
C2631 C 0.49983 0.99085 0.95543 0.0
H2632 H 0.56053 0.11619 0.99314 0.0
H2633 H 0.49694 0.97052 0.94921 0.0
H2634 H 0.45142 0.03241 0.94906 0.0
H2635 H 0.53224 0.14144 0.98508 0.0
H2636 H 0.53526 0.99541 0.96815 0.0
H2637 H 0.64538 0.11974 0.10309 0.0
H2638 H 0.46484 0.99178 0.94477 0.0
H2639 H 0.57363 0.97709 0.05007 0.0
H2640 H 0.60666 0.09831 0.08214 0.0
H2641 H 0.59855 0.94869 0.05922 0.0
H2642 H 0.46101 0.07911 0.95889 0.0
H2643 H 0.67419 0.09471 0.10957 0.0
H2644 H 0.68353 0.05201 0.1062 0.0
H2645 H 0.49125 0.11997 0.97187 0.0
H2646 H 0.67069 1.00551 0.09468 0.0
N2647 N 0.61359 0.06148 0.07591 0.0
C2648 C 0.619 0.08709 0.0848 0.0
C2649 C 0.6572 0.08517 0.10027 0.0
C2650 C 0.65108 0.05876 0.09245 0.0
C2651 C 0.64097 0.09935 0.09672 0.0
C2652 C 0.6288 0.04729 0.08026 0.0
H2653 H 0.63893 0.96685 0.07764 0.0
N2654 N 0.59995 1.01074 0.06241 0.0
C2655 C 0.60532 0.96902 0.0632 0.0
C2656 C 0.62173 0.02115 0.07347 0.0
C2657 C 0.59128 0.9851 0.05802 0.0
C2658 C 0.6281 0.97935 0.07359 0.0
C2659 C 0.63651 1.00571 0.07911 0.0
O2660 O 0.55358 0.01792 0.07621 0.0
O2661 O 0.54927 0.03888 0.02622 0.0
O2662 O 0.5494 0.08279 0.0244 0.0
O2663 O 0.5683 0.07794 0.06129 0.0
O2664 O 0.54706 1.00579 0.03917 0.0
O2665 O 0.57315 0.05603 0.09314 0.0
O2666 O 0.58162 0.07838 0.97148 0.0
O2667 O 0.58862 0.05788 0.02428 0.0
O2668 O 0.59416 0.01756 0.0262 0.0
O2669 O 0.57173 0.01791 0.99009 0.0
O2670 O 0.59179 0.08972 0.00921 0.0
O2671 O 0.56925 0.0377 0.95873 0.0
C2672 C 0.53683 0.01711 0.02497 0.0
C2673 C 0.56263 0.02703 0.11928 0.0
C2674 C 0.54832 0.01977 0.15817 0.0
C2675 C 0.54691 0.0297 0.13669 0.0
C2676 C 0.56599 1.00729 0.16223 0.0
C2677 C 0.58041 0.01483 0.12348 0.0
C2678 C 0.58207 1.00502 0.14496 0.0
C2679 C 0.55572 0.08938 0.04856 0.0
C2680 C 0.55883 0.03562 0.09626 0.0
C2681 C 0.65898 0.01705 0.09047 0.0
C2682 C 0.66629 0.04352 0.09703 0.0
C2683 C 0.60123 0.07946 0.02505 0.0
C2684 C 0.57374 0.06285 0.92856 0.0
C2685 C 0.58984 0.06136 0.91136 0.0
C2686 C 0.58518 0.06552 0.88749 0.0
C2687 C 0.56405 0.0712 0.88092 0.0
C2688 C 0.5526 0.06836 0.92195 0.0
C2689 C 0.54781 0.07255 0.89814 0.0
C2690 C 0.5872 1.00931 1.00235 0.0
C2691 C 0.57981 0.05898 0.95333 0.0
H2692 H 0.53336 0.03941 0.13338 0.0
H2693 H 0.5672 0.99908 0.17849 0.0
H2694 H 0.59273 0.01258 0.11017 0.0
H2695 H 0.59565 0.99538 0.14808 0.0
H2696 H 0.60606 0.05682 0.91657 0.0
H2697 H 0.56022 0.07483 0.86265 0.0
H2698 H 0.53993 0.0695 0.9351 0.0
H2699 H 0.53156 0.07696 0.89307 0.0
Eu2700 Eu 0.34041 0.32428 0.29003 0.0
C2701 C 0.24856 0.27948 0.24226 0.0
C2702 C 0.22213 0.27185 0.2732 0.0
C2703 C 0.20985 0.28702 0.23725 0.0
C2704 C 0.24417 0.27262 0.26472 0.0
C2705 C 0.23099 0.28573 0.22785 0.0
C2706 C 0.20533 0.27977 0.25974 0.0
C2707 C 0.25351 0.28192 0.19317 0.0
N2708 N 0.26863 0.27664 0.23296 0.0
C2709 C 0.26987 0.27485 0.20785 0.0
C2710 C 0.2343 0.28827 0.20348 0.0
Eu2711 Eu 0.29688 0.26662 0.26019 0.0
N2712 N 0.26054 0.26436 0.27705 0.0
C2713 C 0.25478 0.25253 0.29634 0.0
C2714 C 0.21712 0.2619 0.29429 0.0
C2715 C 0.23338 0.25174 0.3056 0.0
H2716 H 0.28372 0.26827 0.19887 0.0
H2717 H 0.22929 0.24284 0.3212 0.0
H2718 H 0.18834 0.27911 0.2659 0.0
H2719 H 0.25542 0.28175 0.17373 0.0
H2720 H 0.26616 0.24278 0.30439 0.0
H2721 H 0.39498 0.33231 0.21283 0.0
H2722 H 0.20044 0.26102 0.30135 0.0
H2723 H 0.35823 0.32621 0.35048 0.0
H2724 H 0.35987 0.32998 0.23237 0.0
H2725 H 0.39306 0.32591 0.37577 0.0
H2726 H 0.19633 0.29198 0.22651 0.0
H2727 H 0.43093 0.33093 0.23637 0.0
H2728 H 0.45108 0.32696 0.2755 0.0
H2729 H 0.22127 0.29306 0.19189 0.0
H2730 H 0.45033 0.32382 0.31922 0.0
N2731 N 0.37371 0.3249 0.26735 0.0
C2732 C 0.37445 0.32812 0.24329 0.0
C2733 C 0.41506 0.32911 0.24518 0.0
C2734 C 0.41467 0.32629 0.26976 0.0
C2735 C 0.39484 0.32991 0.23188 0.0
C2736 C 0.39353 0.3242 0.2806 0.0
H2737 H 0.42897 0.32333 0.3565 0.0
N2738 N 0.37292 0.32098 0.31578 0.0
C2739 C 0.39325 0.32423 0.35589 0.0
C2740 C 0.39307 0.32199 0.30528 0.0
C2741 C 0.37331 0.32391 0.34115 0.0
C2742 C 0.41345 0.32285 0.34497 0.0
C2743 C 0.41377 0.32242 0.31958 0.0
O2744 O 0.3398 0.35053 0.32469 0.0
O2745 O 0.30369 0.30289 0.28789 0.0
O2746 O 0.31035 0.29139 0.23244 0.0
O2747 O 0.32761 0.33259 0.25328 0.0
O2748 O 0.30908 0.34073 0.28573 0.0
O2749 O 0.35893 0.36385 0.29549 0.0
O2750 O 0.29724 0.23904 0.22614 0.0
O2751 O 0.33414 0.28696 0.26405 0.0
O2752 O 0.33267 0.29772 0.31801 0.0
O2753 O 0.30339 0.26218 0.30032 0.0
O2754 O 0.32741 0.24961 0.26755 0.0
O2755 O 0.27845 0.22723 0.2559 0.0
C2756 C 0.29373 0.32055 0.28635 0.0
C2757 C 0.34584 0.3939 0.32442 0.0
C2758 C 0.32501 0.42472 0.31493 0.0
C2759 C 0.3321 0.40208 0.30759 0.0
C2760 C 0.33181 0.43922 0.33907 0.0
C2761 C 0.35272 0.40859 0.34844 0.0
C2762 C 0.34575 0.43122 0.3557 0.0
C2763 C 0.3173 0.31603 0.23296 0.0
C2764 C 0.35265 0.36981 0.31776 0.0
C2765 C 0.43444 0.32367 0.30852 0.0
C2766 C 0.43489 0.32563 0.2837 0.0
C2767 C 0.34357 0.26933 0.26744 0.0
C2768 C 0.29233 0.1963 0.22932 0.0
C2769 C 0.30385 0.18852 0.24833 0.0
C2770 C 0.31002 0.16511 0.24367 0.0
C2771 C 0.30491 0.14967 0.21975 0.0
C2772 C 0.28725 0.18074 0.20554 0.0
C2773 C 0.29356 0.1575 0.20079 0.0
C2774 C 0.31827 0.27602 0.31926 0.0
C2775 C 0.28488 0.22019 0.23401 0.0
H2776 H 0.32659 0.39071 0.28906 0.0
H2777 H 0.32642 0.45677 0.34497 0.0
H2778 H 0.36334 0.40243 0.36162 0.0
H2779 H 0.35103 0.44247 0.37428 0.0
H2780 H 0.30772 0.20041 0.26679 0.0
H2781 H 0.30995 0.13172 0.21567 0.0
H2782 H 0.27832 0.18653 0.1907 0.0
H2783 H 0.28967 0.14555 0.18239 0.0
Eu2784 Eu 0.5622 0.57657 0.03925 0.0
C2785 C 0.5967 0.49962 0.96237 0.0
C2786 C 0.56786 0.48955 0.92696 0.0
C2787 C 0.60682 0.48478 0.92092 0.0
C2788 C 0.57449 0.49825 0.95268 0.0
C2789 C 0.61302 0.49238 0.94666 0.0
C2790 C 0.58428 0.4834 0.91108 0.0
C2791 C 0.63993 0.49914 0.98308 0.0
N2792 N 0.60205 0.50686 0.98732 0.0
C2793 C 0.62321 0.5062 0.99787 0.0
C2794 C 0.63489 0.49239 0.95733 0.0
Eu2795 Eu 0.57278 0.51865 0.0113 0.0
N2796 N 0.55897 0.50385 0.96859 0.0
C2797 C 0.53611 0.49909 0.96019 0.0
C2798 C 0.54474 0.48644 0.91807 0.0
C2799 C 0.52873 0.49085 0.93484 0.0
H2800 H 0.62748 0.51131 0.01771 0.0
H2801 H 0.51067 0.48784 0.92828 0.0
H2802 H 0.57955 0.47689 0.89126 0.0
H2803 H 0.65672 0.49896 0.99156 0.0
H2804 H 0.52342 0.50205 0.97288 0.0
H2805 H 0.62385 0.60696 0.12267 0.0
H2806 H 0.53896 0.47986 0.89845 0.0
H2807 H 0.50764 0.58434 0.03248 0.0
H2808 H 0.61137 0.59292 0.07801 0.0
H2809 H 0.47829 0.59673 0.05842 0.0
H2810 H 0.61917 0.47938 0.90855 0.0
H2811 H 0.59542 0.61506 0.15227 0.0
H2812 H 0.55483 0.61825 0.15918 0.0
H2813 H 0.64788 0.48692 0.94591 0.0
H2814 H 0.51534 0.61599 0.14163 0.0
N2815 N 0.57581 0.59139 0.08202 0.0
C2816 C 0.59861 0.59595 0.09059 0.0
C2817 C 0.58975 0.60858 0.13262 0.0
C2818 C 0.5667 0.60563 0.12357 0.0
C2819 C 0.60584 0.60409 0.11598 0.0
C2820 C 0.56022 0.59703 0.09781 0.0
H2821 H 0.48687 0.60864 0.1041 0.0
N2822 N 0.53287 0.58857 0.06302 0.0
C2823 C 0.49501 0.59646 0.06701 0.0
C2824 C 0.53808 0.59577 0.08799 0.0
C2825 C 0.51179 0.58935 0.05233 0.0
C2826 C 0.49991 0.60314 0.09278 0.0
C2827 C 0.5217 0.60305 0.10358 0.0
O2828 O 0.55346 0.60674 0.02263 0.0
O2829 O 0.56193 0.55268 1.00022 0.0
O2830 O 0.60134 0.54791 1.0006 0.0
O2831 O 0.60031 0.5797 0.03385 0.0
O2832 O 0.53353 0.56702 1.00714 0.0
O2833 O 0.58712 0.6127 0.0428 0.0
O2834 O 0.58178 0.48786 0.02664 0.0
O2835 O 0.57311 0.5425 0.05028 0.0
O2836 O 0.53365 0.54747 0.05013 0.0
O2837 O 0.53468 0.51546 0.01707 0.0
O2838 O 0.60133 0.52787 0.04351 0.0
O2839 O 0.54745 0.48296 0.00836 0.0
C2840 C 0.54258 0.55472 0.98968 0.0
C2841 C 0.57374 0.64905 0.03794 0.0
C2842 C 0.57994 0.69065 0.02726 0.0
C2843 C 0.57919 0.66466 0.02086 0.0
C2844 C 0.57512 0.70089 0.05121 0.0
C2845 C 0.56883 0.65929 0.06173 0.0
C2846 C 0.56955 0.68522 0.0683 0.0
C2847 C 0.61079 0.5701 0.01515 0.0
C2848 C 0.57344 0.62221 0.03 0.0
C2849 C 0.52775 0.61057 0.12934 0.0
C2850 C 0.55021 0.61182 0.13933 0.0
C2851 C 0.59238 0.54034 0.06093 0.0
C2852 C 0.56033 0.44596 0.01148 0.0
C2853 C 0.55396 0.43 0.02802 0.0
C2854 C 0.5529 0.40398 0.02129 0.0
C2855 C 0.55815 0.394 0.99746 0.0
C2856 C 0.56555 0.43599 0.98775 0.0
C2857 C 0.56439 0.40998 0.98078 0.0
C2858 C 0.52424 0.52517 0.03576 0.0
C2859 C 0.56144 0.47288 0.02006 0.0
H2860 H 0.58271 0.65647 1.00239 0.0
H2861 H 0.57595 0.72098 0.05681 0.0
H2862 H 0.56456 0.64734 0.07508 0.0
H2863 H 0.56588 0.69323 0.08671 0.0
H2864 H 0.54979 0.43793 0.04629 0.0
H2865 H 0.55783 0.37402 0.99191 0.0
H2866 H 0.57054 0.44823 0.97479 0.0
H2867 H 0.56851 0.40222 0.9625 0.0
Eu2868 Eu 0.84648 0.31905 0.26904 0.0
C2869 C 0.78407 0.24808 0.3224 0.0
C2870 C 0.79477 0.2078 0.31063 0.0
C2871 C 0.78037 0.21869 0.35061 0.0
C2872 C 0.79276 0.23141 0.3055 0.0
C2873 C 0.7772 0.24155 0.34486 0.0
C2874 C 0.78915 0.20187 0.33354 0.0
C2875 C 0.76257 0.2795 0.35332 0.0
N2876 N 0.78097 0.26996 0.3162 0.0
C2877 C 0.76954 0.28515 0.33085 0.0
C2878 C 0.76664 0.25776 0.3605 0.0
Eu2879 Eu 0.79328 0.27759 0.27744 0.0
N2880 N 0.7977 0.23746 0.28333 0.0
C2881 C 0.80296 0.22003 0.2648 0.0
C2882 C 0.80155 0.19046 0.29222 0.0
C2883 C 0.80524 0.19642 0.26905 0.0
H2884 H 0.766 0.3019 0.32559 0.0
H2885 H 0.80998 0.18293 0.25449 0.0
H2886 H 0.79086 0.18396 0.33791 0.0
H2887 H 0.75399 0.29189 0.36506 0.0
H2888 H 0.80583 0.22446 0.24681 0.0
H2889 H 0.82649 0.41236 0.28056 0.0
H2890 H 0.80334 0.17216 0.29547 0.0
H2891 H 0.88542 0.29976 0.2332 0.0
H2892 H 0.83124 0.37283 0.29285 0.0
H2893 H 0.90252 0.30737 0.19487 0.0
H2894 H 0.77545 0.21352 0.36789 0.0
H2895 H 0.8361 0.42015 0.23919 0.0
H2896 H 0.85325 0.40649 0.19966 0.0
H2897 H 0.76111 0.25339 0.37788 0.0
H2898 H 0.87409 0.3775 0.17601 0.0
N2899 N 0.84213 0.35771 0.25837 0.0
C2900 C 0.83515 0.37584 0.27462 0.0
C2901 C 0.83801 0.40268 0.24444 0.0
C2902 C 0.84699 0.38496 0.22869 0.0
C2903 C 0.83265 0.39839 0.26781 0.0
C2904 C 0.84918 0.36257 0.23651 0.0
H2905 H 0.89308 0.34071 0.17437 0.0
N2906 N 0.865 0.32698 0.23334 0.0
C2907 C 0.8906 0.31832 0.2025 0.0
C2908 C 0.86106 0.34657 0.22346 0.0
C2909 C 0.88071 0.31392 0.22413 0.0
C2910 C 0.8852 0.33712 0.19096 0.0
C2911 C 0.87083 0.35208 0.20187 0.0
O2912 O 0.8806 0.31822 0.28513 0.0
O2913 O 0.83121 0.27925 0.27493 0.0
O2914 O 0.81339 0.29305 0.31499 0.0
O2915 O 0.83279 0.33029 0.30558 0.0
O2916 O 0.86412 0.28522 0.26635 0.0
O2917 O 0.86744 0.35169 0.29568 0.0
O2918 O 0.75964 0.28214 0.26335 0.0
O2919 O 0.80679 0.31624 0.26645 0.0
O2920 O 0.83264 0.29887 0.23024 0.0
O2921 O 0.80334 0.26652 0.23832 0.0
O2922 O 0.78137 0.31438 0.29008 0.0
O2923 O 0.76603 0.24482 0.25889 0.0
C2924 C 0.84831 0.26795 0.27209 0.0
C2925 C 0.90768 0.35713 0.29288 0.0
C2926 C 0.94957 0.36409 0.29667 0.0
C2927 C 0.92789 0.35026 0.30047 0.0
C2928 C 0.95094 0.38492 0.28513 0.0
C2929 C 0.90924 0.37783 0.28109 0.0
C2930 C 0.93083 0.39167 0.27732 0.0
C2931 C 0.82487 0.31676 0.32178 0.0
C2932 C 0.88528 0.34177 0.29667 0.0
C2933 C 0.867 0.37313 0.19275 0.0
C2934 C 0.85512 0.38962 0.2062 0.0
C2935 C 0.79336 0.32959 0.278 0.0
C2936 C 0.72883 0.2498 0.2683 0.0
C2937 C 0.7091 0.25744 0.26054 0.0
C2938 C 0.68885 0.25241 0.27242 0.0
C2939 C 0.6886 0.23938 0.29207 0.0
C2940 C 0.728 0.23623 0.28753 0.0
C2941 C 0.70803 0.23121 0.29941 0.0
C2942 C 0.8169 0.27743 0.22334 0.0
C2943 C 0.75055 0.25799 0.2576 0.0
H2944 H 0.92675 0.33419 0.30944 0.0
H2945 H 0.96753 0.39574 0.2819 0.0
H2946 H 0.89387 0.38325 0.2747 0.0
H2947 H 0.93197 0.4076 0.26823 0.0
H2948 H 0.70958 0.26713 0.24513 0.0
H2949 H 0.67334 0.2354 0.3017 0.0
H2950 H 0.74279 0.22968 0.29354 0.0
H2951 H 0.70763 0.22103 0.31443 0.0
Eu2952 Eu 0.07601 0.53706 0.55275 0.0
C2953 C 1.00466 0.55299 0.47651 0.0
C2954 C 0.98791 0.50939 0.45615 0.0
C2955 C 0.96383 0.53989 0.46111 0.0
C2956 C 1.00717 0.52854 0.46824 0.0
C2957 C 0.98308 0.55905 0.47233 0.0
C2958 C 0.96622 0.51509 0.45313 0.0
C2959 C 1.00149 0.60305 0.48825 0.0
N2960 N 0.02343 0.57112 0.48769 0.0
C2961 C 0.02243 0.59613 0.49195 0.0
C2962 C 0.98159 0.58436 0.47888 0.0
Eu2963 Eu 0.05841 0.55798 0.49463 0.0
N2964 N 0.02836 0.52347 0.47172 0.0
C2965 C 0.03137 0.4997 0.46214 0.0
C2966 C 0.99096 0.48504 0.44721 0.0
C2967 C 0.01284 0.4803 0.44994 0.0
H2968 H 0.03781 0.61085 0.49868 0.0
H2969 H 0.01547 0.46156 0.4428 0.0
H2970 H 0.95126 0.50054 0.44421 0.0
H2971 H 1.00077 0.62282 0.49247 0.0
H2972 H 0.04777 0.49489 0.46361 0.0
H2973 H 0.13845 0.62247 0.6031 0.0
H2974 H 0.97661 0.46987 0.43791 0.0
H2975 H 0.07946 0.47676 0.549 0.0
H2976 H 0.10076 0.59749 0.5829 0.0
H2977 H 0.1091 0.45229 0.55396 0.0
H2978 H 0.9471 0.54416 0.4581 0.0
H2979 H 0.17146 0.60223 0.60553 0.0
H2980 H 0.18644 0.56261 0.59768 0.0
H2981 H 0.96536 0.58974 0.47594 0.0
H2982 H 0.17855 0.51622 0.58398 0.0
N2983 N 0.1118 0.56287 0.57345 0.0
C2984 C 0.1147 0.58804 0.58384 0.0
C2985 C 0.15479 0.59098 0.59671 0.0
C2986 C 0.15147 0.56498 0.58722 0.0
C2987 C 0.13619 0.60244 0.59542 0.0
C2988 C 0.12942 0.55121 0.57585 0.0
H2989 H 0.14968 0.47486 0.56802 0.0
N2990 N 0.10334 0.51255 0.55855 0.0
C2991 C 0.11391 0.4728 0.55772 0.0
C2992 C 0.12509 0.52524 0.56794 0.0
C2993 C 0.09722 0.48666 0.55486 0.0
C2994 C 0.13679 0.48561 0.56561 0.0
C2995 C 0.14253 0.51215 0.57142 0.0
O2996 O 0.05662 0.5111 0.57339 0.0
O2997 O 0.04778 0.53873 0.52542 0.0
O2998 O 0.04616 0.58161 0.52655 0.0
O2999 O 0.06492 0.57446 0.56224 0.0
O3000 O 0.04567 0.50448 0.53641 0.0
O3001 O 0.06872 0.551 0.59043 0.0
O3002 O 0.06903 0.59131 0.47909 0.0
O3003 O 0.0863 0.5569 0.52249 0.0
O3004 O 0.08684 0.512 0.52092 0.0
O3005 O 0.07748 0.52628 0.48467 0.0
O3006 O 0.08992 0.59017 0.51018 0.0
O3007 O 0.06796 0.55364 0.45625 0.0
C3008 C 0.03549 0.51674 0.52321 0.0
C3009 C 0.0645 0.52176 0.61677 0.0
C3010 C 0.05353 0.51615 0.65737 0.0
C3011 C 0.04923 0.52335 0.63482 0.0
C3012 C 0.0736 0.50751 0.66182 0.0
C3013 C 0.08463 0.51334 0.62127 0.0
C3014 C 0.08914 0.50623 0.6438 0.0
C3015 C 0.05242 0.58683 0.55065 0.0
C3016 C 0.05842 0.52855 0.59334 0.0
C3017 C 0.16484 0.52589 0.58148 0.0
C3018 C 0.16931 0.55229 0.58934 0.0
C3019 C 0.09952 0.5782 0.52415 0.0
C3020 C 0.07936 0.59091 0.43754 0.0
C3021 C 0.0902 0.57905 0.41843 0.0
C3022 C 0.09859 0.59192 0.39996 0.0
C3023 C 0.09586 0.61672 0.40068 0.0
C3024 C 0.07657 0.61562 0.4379 0.0
C3025 C 0.08474 0.6284 0.41948 0.0
C3026 C 0.08558 0.51068 0.4967 0.0
C3027 C 0.07206 0.57821 0.45782 0.0
H3028 H 0.0339 0.53031 0.63128 0.0
H3029 H 0.07714 0.50153 0.679 0.0
H3030 H 0.09671 0.51216 0.60748 0.0
H3031 H 0.1046 0.49958 0.64725 0.0
H3032 H 0.0925 0.56003 0.41816 0.0
H3033 H 0.10275 0.62727 0.387 0.0
H3034 H 0.06824 0.62516 0.45253 0.0
H3035 H 0.08275 0.64753 0.41998 0.0
Eu3036 Eu 0.78786 0.8021 0.27478 0.0
C3037 C 0.86716 0.76983 0.32626 0.0
C3038 C 0.87907 0.80467 0.36165 0.0
C3039 C 0.88277 0.76249 0.36533 0.0
C3040 C 0.86939 0.79502 0.33679 0.0
C3041 C 0.87468 0.75346 0.34009 0.0
C3042 C 0.88494 0.7881 0.37611 0.0
C3043 C 0.86912 0.7218 0.30217 0.0
N3044 N 0.8598 0.76197 0.30177 0.0
C3045 C 0.8621 0.7389 0.28928 0.0
C3046 C 0.87496 0.72891 0.32783 0.0
Eu3047 Eu 0.84614 0.79093 0.2811 0.0
N3048 N 0.86377 0.81048 0.32215 0.0
C3049 C 0.86962 0.83621 0.33059 0.0
C3050 C 0.88344 0.83081 0.37089 0.0
C3051 C 0.87921 0.84669 0.35509 0.0
H3052 H 0.85782 0.73347 0.26938 0.0
H3053 H 0.88311 0.86702 0.36183 0.0
H3054 H 0.89202 0.79508 0.39535 0.0
H3055 H 0.87013 0.70322 0.29229 0.0
H3056 H 0.86631 0.84892 0.31894 0.0
H3057 H 0.75029 0.72321 0.19637 0.0
H3058 H 0.89081 0.83897 0.38987 0.0
H3059 H 0.77515 0.85906 0.2839 0.0
H3060 H 0.76703 0.74282 0.23888 0.0
H3061 H 0.76281 0.88802 0.25935 0.0
H3062 H 0.88827 0.75011 0.37638 0.0
H3063 H 0.74324 0.74988 0.16666 0.0
H3064 H 0.74271 0.79321 0.15904 0.0
H3065 H 0.88062 0.71575 0.33777 0.0
H3066 H 0.74643 0.83858 0.17622 0.0
N3067 N 0.77006 0.7809 0.23405 0.0
C3068 C 0.76402 0.75504 0.22659 0.0
C3069 C 0.75054 0.75874 0.18553 0.0
C3070 C 0.75518 0.78504 0.19369 0.0
C3071 C 0.75441 0.74365 0.20226 0.0
C3072 C 0.76472 0.79562 0.21846 0.0
H3073 H 0.75329 0.87403 0.21385 0.0
N3074 N 0.77396 0.82973 0.25245 0.0
C3075 C 0.76423 0.86934 0.25018 0.0
C3076 C 0.76694 0.821 0.22797 0.0
C3077 C 0.77126 0.85295 0.264 0.0
C3078 C 0.75892 0.8614 0.22452 0.0
C3079 C 0.75954 0.83667 0.21319 0.0
O3080 O 0.76389 0.81701 0.29901 0.0
O3081 O 0.81633 0.79911 0.30215 0.0
O3082 O 0.82189 0.75276 0.28442 0.0
O3083 O 0.7851 0.76034 0.27886 0.0
O3084 O 0.80153 0.83021 0.31034 0.0
O3085 O 0.75637 0.77731 0.2828 0.0
O3086 O 0.86947 0.77718 0.25525 0.0
O3087 O 0.8178 0.79434 0.254 0.0
O3088 O 0.81219 0.84027 0.27135 0.0
O3089 O 0.84899 0.83294 0.27791 0.0
O3090 O 0.83256 0.76334 0.24507 0.0
O3091 O 0.87861 0.81572 0.27534 0.0
C3092 C 0.81602 0.81866 0.31861 0.0
C3093 C 0.72447 0.79567 0.29103 0.0
C3094 C 0.68518 0.7918 0.30366 0.0
C3095 C 0.70872 0.79181 0.30895 0.0
C3096 C 0.67789 0.79588 0.2803 0.0
C3097 C 0.71656 0.79957 0.26794 0.0
C3098 C 0.69345 0.79974 0.26268 0.0
C3099 C 0.79891 0.74489 0.28213 0.0
C3100 C 0.74903 0.79545 0.29629 0.0
C3101 C 0.75179 0.82674 0.18799 0.0
C3102 C 0.74963 0.80091 0.17823 0.0
C3103 C 0.81803 0.77508 0.23721 0.0
C3104 C 0.90937 0.79623 0.26411 0.0
C3105 C 0.92461 0.79899 0.24553 0.0
C3106 C 0.94744 0.79597 0.24939 0.0
C3107 C 0.95478 0.79061 0.2721 0.0
C3108 C 0.9173 0.79103 0.28661 0.0
C3109 C 0.93986 0.78827 0.29054 0.0
C3110 C 0.83521 0.8483 0.27417 0.0
C3111 C 0.88514 0.79828 0.2599 0.0
H3112 H 0.71471 0.78844 0.3267 0.0
H3113 H 0.66008 0.79628 0.2757 0.0
H3114 H 0.72825 0.8024 0.25392 0.0
H3115 H 0.68754 0.80285 0.2448 0.0
H3116 H 0.91865 0.80301 0.22807 0.0
H3117 H 0.97223 0.7884 0.27564 0.0
H3118 H 0.90603 0.78908 0.30114 0.0
H3119 H 0.94579 0.78423 0.30797 0.0
Eu3120 Eu 0.82973 0.28289 0.75131 0.0
C3121 C 0.81998 0.36112 0.83771 0.0
C3122 C 0.84138 0.35983 0.87604 0.0
C3123 C 0.83944 0.40044 0.8662 0.0
C3124 C 0.82811 0.34737 0.85331 0.0
C3125 C 0.82469 0.38785 0.84464 0.0
C3126 C 0.84783 0.38643 0.88187 0.0
C3127 C 0.79757 0.38762 0.8104 0.0
N3128 N 0.80585 0.34831 0.81691 0.0
C3129 C 0.79373 0.36119 0.80403 0.0
C3130 C 0.81359 0.40109 0.83038 0.0
Eu3131 Eu 0.80241 0.30333 0.80676 0.0
N3132 N 0.8212 0.32177 0.84738 0.0
C3133 C 0.82461 0.30762 0.86462 0.0
C3134 C 0.84682 0.34521 0.89275 0.0
C3135 C 0.83793 0.31902 0.88725 0.0
H3136 H 0.781 0.3517 0.78872 0.0
H3137 H 0.84138 0.3076 0.90037 0.0
H3138 H 0.8584 0.39633 0.89899 0.0
H3139 H 0.78826 0.39761 0.79973 0.0
H3140 H 0.81804 0.28729 0.86031 0.0
H3141 H 0.74862 0.21498 0.70967 0.0
H3142 H 0.85702 0.35406 0.91035 0.0
H3143 H 0.88344 0.27282 0.75669 0.0
H3144 H 0.77171 0.25421 0.7351 0.0
H3145 H 0.90329 0.23814 0.74583 0.0
H3146 H 0.84367 0.42096 0.87144 0.0
H3147 H 0.76677 0.17982 0.69373 0.0
H3148 H 0.80181 0.1619 0.69289 0.0
H3149 H 0.81665 0.42158 0.83514 0.0
H3150 H 0.8434 0.16765 0.70389 0.0
N3151 N 0.80399 0.24329 0.73233 0.0
C3152 C 0.78058 0.23996 0.72757 0.0
C3153 C 0.77732 0.19738 0.7047 0.0
C3154 C 0.80094 0.20016 0.71071 0.0
C3155 C 0.76706 0.21724 0.71348 0.0
C3156 C 0.81406 0.22366 0.72458 0.0
H3157 H 0.88116 0.19575 0.72376 0.0
N3158 N 0.84983 0.24978 0.74361 0.0
C3159 C 0.88475 0.23459 0.74174 0.0
C3160 C 0.83753 0.22689 0.73069 0.0
C3161 C 0.87333 0.25405 0.74843 0.0
C3162 C 0.87223 0.21076 0.72917 0.0
C3163 C 0.84842 0.20674 0.72319 0.0
O3164 O 0.85186 0.28192 0.72113 0.0
O3165 O 0.82365 0.31586 0.77801 0.0
O3166 O 0.78215 0.311 0.77302 0.0
O3167 O 0.79667 0.29304 0.73733 0.0
O3168 O 0.85775 0.3167 0.77058 0.0
O3169 O 0.82818 0.3065 0.7239 0.0
O3170 O 0.76596 0.28481 0.79658 0.0
O3171 O 0.80523 0.27078 0.77746 0.0
O3172 O 0.85454 0.28146 0.78452 0.0
O3173 O 0.83847 0.29767 0.82011 0.0
O3174 O 0.80616 0.26518 0.8138 0.0
O3175 O 0.77787 0.30163 0.83479 0.0
C3176 C 0.84413 0.32875 0.78256 0.0
C3177 C 0.83471 0.2882 0.68399 0.0
C3178 C 0.82488 0.29951 0.64496 0.0
C3179 C 0.83392 0.30654 0.66993 0.0
C3180 C 0.81749 0.2737 0.63375 0.0
C3181 C 0.82694 0.26238 0.67289 0.0
C3182 C 0.81854 0.25521 0.64774 0.0
C3183 C 0.78132 0.30436 0.7484 0.0
C3184 C 0.84248 0.29683 0.71045 0.0
C3185 C 0.83534 0.18332 0.7097 0.0
C3186 C 0.81168 0.18008 0.70338 0.0
C3187 C 0.80725 0.25511 0.79097 0.0
C3188 C 0.75062 0.26199 0.82577 0.0
C3189 C 0.7612 0.2534 0.84489 0.0
C3190 C 0.75269 0.22898 0.84908 0.0
C3191 C 0.73329 0.21305 0.83406 0.0
C3192 C 0.73113 0.24593 0.81101 0.0
C3193 C 0.72255 0.22157 0.81515 0.0
C3194 C 0.8551 0.28845 0.80907 0.0
C3195 C 0.76118 0.28637 0.81937 0.0
H3196 H 0.84023 0.32643 0.67857 0.0
H3197 H 0.81063 0.26791 0.61438 0.0
H3198 H 0.82727 0.24786 0.68357 0.0
H3199 H 0.81263 0.23532 0.63916 0.0
H3200 H 0.77641 0.26545 0.85625 0.0
H3201 H 0.72621 0.19424 0.83722 0.0
H3202 H 0.72286 0.25204 0.79594 0.0
H3203 H 0.70761 0.20923 0.80361 0.0
Eu3204 Eu 0.84294 0.8266 0.79387 0.0
C3205 C 0.75559 0.76358 0.72159 0.0
C3206 C 0.72176 0.77132 0.74125 0.0
C3207 C 0.71972 0.76051 0.69632 0.0
C3208 C 0.74534 0.77058 0.74294 0.0
C3209 C 0.74266 0.75801 0.69806 0.0
C3210 C 0.70928 0.76709 0.71787 0.0
C3211 C 0.77534 0.74611 0.67954 0.0
N3212 N 0.77775 0.76093 0.72382 0.0
C3213 C 0.7874 0.75145 0.70315 0.0
C3214 C 0.75295 0.74956 0.67694 0.0
Eu3215 Eu 0.79642 0.77045 0.76528 0.0
N3216 N 0.75769 0.77438 0.7654 0.0
C3217 C 0.74685 0.77607 0.78657 0.0
C3218 C 0.711 0.77472 0.76307 0.0
C3219 C 0.72342 0.77622 0.78572 0.0
H3220 H 0.80454 0.74826 0.70432 0.0
H3221 H 0.71489 0.77726 0.80249 0.0
H3222 H 0.69128 0.76795 0.71628 0.0
H3223 H 0.78332 0.73916 0.66333 0.0
H3224 H 0.75608 0.7768 0.80414 0.0
H3225 H 0.90129 0.86793 0.73088 0.0
H3226 H 0.69286 0.77498 0.76254 0.0
H3227 H 0.8618 0.8224 0.85191 0.0
H3228 H 0.86613 0.86133 0.75218 0.0
H3229 H 0.8958 0.81451 0.87372 0.0
H3230 H 0.70969 0.75662 0.6784 0.0
H3231 H 0.93476 0.85224 0.74446 0.0
H3232 H 0.95348 0.83364 0.77599 0.0
H3233 H 0.7436 0.74521 0.6586 0.0
H3234 H 0.95197 0.81883 0.81534 0.0
N3235 N 0.87743 0.83738 0.7742 0.0
C3236 C 0.87976 0.85241 0.75693 0.0
C3237 C 0.91889 0.8482 0.75309 0.0
C3238 C 0.91768 0.83627 0.77336 0.0
C3239 C 0.90003 0.857 0.74533 0.0
C3240 C 0.89652 0.83132 0.78389 0.0
H3241 H 0.93071 0.81211 0.85221 0.0
N3242 N 0.8758 0.82074 0.81697 0.0
C3243 C 0.89587 0.8161 0.85444 0.0
C3244 C 0.89566 0.82273 0.80594 0.0
C3245 C 0.87644 0.8201 0.84177 0.0
C3246 C 0.91551 0.81479 0.84224 0.0
C3247 C 0.91594 0.81919 0.81808 0.0
O3248 O 0.83569 0.84741 0.82943 0.0
O3249 O 0.80523 0.80859 0.78983 0.0
O3250 O 0.80083 0.79673 0.73714 0.0
O3251 O 0.83571 0.82657 0.75206 0.0
O3252 O 0.81383 0.84506 0.78419 0.0
O3253 O 0.86008 0.86623 0.80751 0.0
O3254 O 0.80697 0.73685 0.77293 0.0
O3255 O 0.83419 0.78645 0.77508 0.0
O3256 O 0.83633 0.7956 0.81752 0.0
O3257 O 0.79736 0.77948 0.80773 0.0
O3258 O 0.82446 0.7586 0.74313 0.0
O3259 O 0.77079 0.73658 0.76822 0.0
C3260 C 0.79688 0.82664 0.78575 0.0
C3261 C 0.83956 0.89147 0.83231 0.0
C3262 C 0.82134 0.92242 0.81811 0.0
C3263 C 0.82993 0.90055 0.81294 0.0
C3264 C 0.8229 0.93569 0.84274 0.0
C3265 C 0.84092 0.90476 0.85687 0.0
C3266 C 0.83271 0.92688 0.86203 0.0
C3267 C 0.81814 0.81555 0.73451 0.0
C3268 C 0.84897 0.86877 0.82714 0.0
C3269 C 0.93641 0.82196 0.80651 0.0
C3270 C 0.93728 0.83047 0.78416 0.0
C3271 C 0.84166 0.77428 0.75684 0.0
C3272 C 0.78161 0.69759 0.75612 0.0
C3273 C 0.79436 0.68137 0.76355 0.0
C3274 C 0.79094 0.65629 0.75059 0.0
C3275 C 0.77443 0.64742 0.72977 0.0
C3276 C 0.76523 0.68876 0.73518 0.0
C3277 C 0.76167 0.66369 0.72211 0.0
C3278 C 0.8162 0.78368 0.82335 0.0
C3279 C 0.78598 0.72341 0.77098 0.0
H3280 H 0.8294 0.89101 0.7938 0.0
H3281 H 0.81626 0.95264 0.84704 0.0
H3282 H 0.84849 0.89813 0.87201 0.0
H3283 H 0.83385 0.93714 0.881 0.0
H3284 H 0.8073 0.68849 0.77946 0.0
H3285 H 0.77131 0.62801 0.7196 0.0
H3286 H 0.75523 0.70111 0.72899 0.0
H3287 H 0.74898 0.65684 0.70605 0.0
Eu3288 Eu 0.54161 0.52885 0.51095 0.0
C3289 C 0.60589 0.62102 0.58046 0.0
C3290 C 0.60918 0.65396 0.55652 0.0
C3291 C 0.61485 0.66536 0.60158 0.0
C3292 C 0.6046 0.62805 0.55776 0.0
C3293 C 0.61191 0.63964 0.6026 0.0
C3294 C 0.61342 0.67251 0.57855 0.0
C3295 C 0.61459 0.60635 0.62474 0.0
N3296 N 0.60357 0.59608 0.58072 0.0
C3297 C 0.60858 0.58861 0.60234 0.0
C3298 C 0.61597 0.63196 0.62494 0.0
Eu3299 Eu 0.594 0.56699 0.54196 0.0
N3300 N 0.60133 0.6097 0.53687 0.0
C3301 C 0.60509 0.61612 0.51444 0.0
C3302 C 0.61076 0.66049 0.53324 0.0
C3303 C 0.60926 0.64149 0.51216 0.0
H3304 H 0.6077 0.56889 0.60243 0.0
H3305 H 0.61133 0.64635 0.49416 0.0
H3306 H 0.6167 0.69248 0.57797 0.0
H3307 H 0.61816 0.60026 0.64184 0.0
H3308 H 0.60415 0.60166 0.498 0.0
H3309 H 0.52463 0.45012 0.55978 0.0
H3310 H 0.61421 0.68015 0.53148 0.0
H3311 H 0.52748 0.52618 0.4504 0.0
H3312 H 0.53208 0.49462 0.55554 0.0
H3313 H 0.51792 0.49457 0.41107 0.0
H3314 H 0.61916 0.67991 0.61841 0.0
H3315 H 0.52101 0.41593 0.52264 0.0
H3316 H 0.5184 0.40311 0.47617 0.0
H3317 H 0.62076 0.64569 0.6423 0.0
H3318 H 0.51642 0.41526 0.43548 0.0
N3319 N 0.53394 0.48619 0.51647 0.0
C3320 C 0.53066 0.48004 0.53911 0.0
C3321 C 0.52442 0.43552 0.52067 0.0
C3322 C 0.52576 0.44177 0.49726 0.0
C3323 C 0.52637 0.45474 0.54164 0.0
C3324 C 0.53031 0.46761 0.49575 0.0
H3325 H 0.51563 0.44926 0.41104 0.0
N3326 N 0.53146 0.49925 0.47248 0.0
C3327 C 0.52118 0.48862 0.42832 0.0
C3328 C 0.52909 0.47438 0.47297 0.0
C3329 C 0.5266 0.50649 0.45069 0.0
C3330 C 0.52 0.4631 0.42837 0.0
C3331 C 0.52347 0.4556 0.45093 0.0
O3332 O 0.51161 0.54014 0.49595 0.0
O3333 O 0.56033 0.57025 0.52382 0.0
O3334 O 0.56789 0.57309 0.57136 0.0
O3335 O 0.53769 0.53905 0.55406 0.0
O3336 O 0.54523 0.55899 0.48767 0.0
O3337 O 0.5088 0.52086 0.52674 0.0
O3338 O 0.62406 0.55578 0.5569 0.0
O3339 O 0.57546 0.52558 0.52883 0.0
O3340 O 0.56732 0.52373 0.48072 0.0
O3341 O 0.59832 0.55646 0.49906 0.0
O3342 O 0.59013 0.53671 0.56513 0.0
O3343 O 0.62718 0.57655 0.52722 0.0
C3344 C 0.55634 0.57836 0.50395 0.0
C3345 C 0.47485 0.51679 0.50061 0.0
C3346 C 0.4349 0.51844 0.49204 0.0
C3347 C 0.45764 0.53038 0.50173 0.0
C3348 C 0.42936 0.49238 0.48154 0.0
C3349 C 0.46944 0.49085 0.48979 0.0
C3350 C 0.44666 0.47869 0.48033 0.0
C3351 C 0.54769 0.55778 0.57335 0.0
C3352 C 0.49813 0.53057 0.5111 0.0
C3353 C 0.52048 0.42994 0.45222 0.0
C3354 C 0.52162 0.42303 0.47538 0.0
C3355 C 0.57939 0.51732 0.54864 0.0
C3356 C 0.66063 0.58075 0.55401 0.0
C3357 C 0.67923 0.56968 0.54912 0.0
C3358 C 0.7014 0.58186 0.56046 0.0
C3359 C 0.70497 0.60547 0.57679 0.0
C3360 C 0.6642 0.60451 0.57004 0.0
C3361 C 0.68637 0.61682 0.5814 0.0
C3362 C 0.58794 0.53857 0.47925 0.0
C3363 C 0.63778 0.56647 0.54255 0.0
H3364 H 0.46193 0.55037 0.5105 0.0
H3365 H 0.41181 0.48276 0.47415 0.0
H3366 H 0.48267 0.48009 0.48881 0.0
H3367 H 0.4424 0.45865 0.47208 0.0
H3368 H 0.67637 0.55121 0.53682 0.0
H3369 H 0.72205 0.61507 0.58578 0.0
H3370 H 0.64999 0.61343 0.57384 0.0
H3371 H 0.68912 0.63509 0.59388 0.0
Eu3372 Eu 0.09561 0.55129 0.01604 0.0
C3373 C 0.01319 0.50624 0.07217 0.0
C3374 C 0.9939 0.46644 0.045 0.0
C3375 C 0.99238 0.47166 0.08961 0.0
C3376 C 1.00759 0.49135 0.04857 0.0
C3377 C 1.00537 0.49672 0.09295 0.0
C3378 C 0.98667 0.45654 0.06567 0.0
C3379 C 0.02268 0.53787 0.11862 0.0
N3380 N 0.02563 0.53041 0.07471 0.0
C3381 C 0.02998 0.54648 0.09745 0.0
C3382 C 0.01048 0.51281 0.11641 0.0
Eu3383 Eu 0.03823 0.54329 0.03811 0.0
N3384 N 0.01459 0.50162 0.02901 0.0
C3385 C 1.00722 0.4886 1.00528 0.0
C3386 C 0.9874 0.45248 0.02071 0.0
C3387 C 0.99385 0.46375 1.00076 0.0
H3388 H 0.03944 0.56586 0.09945 0.0
H3389 H 0.98858 0.4533 0.98188 0.0
H3390 H 0.97627 0.43739 0.06331 0.0
H3391 H 0.02648 0.55057 0.13663 0.0
H3392 H 0.01205 0.49705 0.98967 0.0
H3393 H 0.14593 0.63977 0.07425 0.0
H3394 H 0.97697 0.43326 0.01717 0.0
H3395 H 0.0937 0.53065 0.95447 0.0
H3396 H 0.12247 0.59589 0.06535 0.0
H3397 H 0.10626 0.54734 0.91772 0.0
H3398 H 0.98632 0.46394 0.10536 0.0
H3399 H 0.15659 0.66141 0.03971 0.0
H3400 H 0.15639 0.65904 0.99368 0.0
H3401 H 1.00478 0.50622 0.13283 0.0
H3402 H 0.14594 0.63376 0.95112 0.0
N3403 N 0.11902 0.59298 0.0262 0.0
C3404 C 0.12691 0.60511 0.05009 0.0
C3405 C 0.14617 0.64217 0.03569 0.0
C3406 C 0.13922 0.62906 0.01118 0.0
C3407 C 0.14026 0.62999 0.05523 0.0
C3408 C 0.12558 0.60409 1.00698 0.0
H3409 H 0.12764 0.59198 0.92266 0.0
N3410 N 0.10747 0.56561 0.97991 0.0
C3411 C 0.11012 0.55954 0.93599 0.0
C3412 C 0.11974 0.58991 0.98308 0.0
C3413 C 0.10307 0.55014 0.95686 0.0
C3414 C 0.12215 0.58476 0.93885 0.0
C3415 C 0.12731 0.60023 0.96263 0.0
O3416 O 0.11635 0.5245 1.0019 0.0
O3417 O 0.06476 0.52246 0.02277 0.0
O3418 O 0.06041 0.52984 0.06447 0.0
O3419 O 0.09599 0.55358 0.05769 0.0
O3420 O 0.07944 0.51319 0.99051 0.0
O3421 O 0.12682 0.54935 0.03786 0.0
O3422 O 0.01871 0.57204 0.04989 0.0
O3423 O 0.06929 0.57198 0.03158 0.0
O3424 O 0.07253 0.56476 0.99007 0.0
O3425 O 0.03855 0.53872 0.9966 0.0
O3426 O 0.05494 0.58106 0.06398 0.0
O3427 O 1.00692 0.54438 0.01587 0.0
C3428 C 0.06361 0.50484 1.00377 0.0
C3429 C 0.1562 0.53565 0.01577 0.0
C3430 C 0.19313 0.52307 0.01756 0.0
C3431 C 0.1697 0.51916 0.02199 0.0
C3432 C 0.20265 0.54329 1.00633 0.0
C3433 C 0.16612 0.5557 1.00466 0.0
C3434 C 0.1892 0.55942 0.99991 0.0
C3435 C 0.08264 0.53951 0.07056 0.0
C3436 C 0.1319 0.53191 0.02104 0.0
C3437 C 0.14013 0.62542 0.96661 0.0
C3438 C 0.14606 0.63982 0.99084 0.0
C3439 C 0.07087 0.58936 0.05082 0.0
C3440 C 0.97875 0.56176 0.03702 0.0
C3441 C 0.96643 0.57922 0.03064 0.0
C3442 C 0.94348 0.57757 0.03624 0.0
C3443 C 0.93308 0.55847 0.04833 0.0
C3444 C 0.96805 0.54285 0.04913 0.0
C3445 C 0.94532 0.54127 0.05475 0.0
C3446 C 0.05042 0.55411 0.98388 0.0
C3447 C 1.00277 0.56357 0.0312 0.0
H3448 H 0.16212 0.50362 0.03058 0.0
H3449 H 0.2205 0.5465 1.00236 0.0
H3450 H 0.15604 0.56848 0.99969 0.0
H3451 H 0.19673 0.5749 0.99125 0.0
H3452 H 0.97461 0.59393 0.02133 0.0
H3453 H 0.91545 0.55693 0.05284 0.0
H3454 H 0.97726 0.52936 0.05423 0.0
H3455 H 0.93716 0.52665 0.06413 0.0
C3456 C 0.04682 0.14643 0.01134 0.0
C3457 C 0.05018 0.15265 0.98767 0.0
C3458 C 0.05058 0.12328 0.01729 0.0
C3459 C 0.05769 0.10486 0.9998 0.0
H3460 H 0.04126 0.15964 0.02551 0.0
H3461 H 0.04732 0.11956 0.03551 0.0
S3462 S 0.06846 0.11075 0.93512 0.0
N3463 N 0.06092 0.13731 0.94675 0.0
N3464 N 0.06758 0.09474 0.95764 0.0
C3465 C 0.06094 0.11083 0.97619 0.0
C3466 C 0.05744 0.13432 0.97027 0.0
C3467 C 0.21634 0.80237 0.2238 0.0
C3468 C 0.21914 0.81338 0.20261 0.0
C3469 C 0.23534 0.79854 0.23818 0.0
C3470 C 0.25816 0.80489 0.23182 0.0
H3471 H 0.19925 0.79686 0.22954 0.0
H3472 H 0.23206 0.79018 0.25428 0.0
S3473 S 0.27541 0.83455 0.17844 0.0
N3474 N 0.24708 0.83083 0.17642 0.0
N3475 N 0.28234 0.82345 0.20297 0.0
C3476 C 0.26123 0.81591 0.21072 0.0
C3477 C 0.24195 0.82022 0.19634 0.0
C3478 C 0.5499 0.93595 0.47316 0.0
C3479 C 0.54832 0.92233 0.49251 0.0
C3480 C 0.55416 0.96269 0.4778 0.0
C3481 C 0.55716 0.97764 0.50207 0.0
H3482 H 0.54812 0.92582 0.45404 0.0
H3483 H 0.55577 0.97186 0.46203 0.0
S3484 S 0.55468 0.95198 0.55976 0.0
N3485 N 0.54966 0.92636 0.53733 0.0
N3486 N 0.55824 0.97643 0.54591 0.0
C3487 C 0.55514 0.96441 0.52171 0.0
C3488 C 0.55053 0.93694 0.51697 0.0
C3489 C 0.47636 0.30485 0.67202 0.0
C3490 C 0.4966 0.30899 0.68829 0.0
C3491 C 0.45427 0.29869 0.68002 0.0
C3492 C 0.4512 0.29638 0.70472 0.0
H3493 H 0.47749 0.3054 0.65258 0.0
H3494 H 0.43938 0.29502 0.66648 0.0
S3495 S 0.49819 0.3071 0.75547 0.0
N3496 N 0.51188 0.312 0.731 0.0
N3497 N 0.47036 0.29985 0.74575 0.0
C3498 C 0.47117 0.3014 0.72149 0.0
C3499 C 0.49379 0.3077 0.71335 0.0
C3500 C 0.02584 0.88007 0.57437 0.0
C3501 C 0.0362 0.85949 0.57457 0.0
C3502 C 0.02921 0.89424 0.55575 0.0
C3503 C 0.04273 0.88805 0.53648 0.0
H3504 H 0.01535 0.88549 0.58894 0.0
H3505 H 0.0212 0.91016 0.55638 0.0
S3506 S 0.07331 0.83576 0.52835 0.0
N3507 N 0.06032 0.83343 0.55375 0.0
N3508 N 0.06657 0.86013 0.51868 0.0
C3509 C 0.05298 0.86739 0.5363 0.0
C3510 C 0.04977 0.85312 0.5554 0.0
C3511 C 0.5041 0.82066 0.78997 0.0
C3512 C 0.51089 0.82742 0.81562 0.0
C3513 C 0.48386 0.82589 0.7801 0.0
C3514 C 0.46974 0.83767 0.79568 0.0
H3515 H 0.51496 0.81225 0.77744 0.0
H3516 H 0.47938 0.82105 0.76017 0.0
S3517 S 0.4796 0.85781 0.86426 0.0
N3518 N 0.50171 0.8455 0.85647 0.0
N3519 N 0.46357 0.85517 0.83798 0.0
C3520 C 0.47597 0.84363 0.82144 0.0
C3521 C 0.49662 0.83854 0.83141 0.0
C3522 C 0.5373 0.15094 0.06677 0.0
C3523 C 0.52709 0.14806 0.08872 0.0
C3524 C 0.54675 0.13185 0.05384 0.0
C3525 C 0.5464 0.1095 0.06261 0.0
H3526 H 0.53866 0.16836 0.06 0.0
H3527 H 0.55487 0.13488 0.03728 0.0
S3528 S 0.51956 0.09171 0.11762 0.0
N3529 N 0.51563 0.12045 0.11761 0.0
N3530 N 0.5336 0.08461 0.09332 0.0
C3531 C 0.53574 0.10611 0.08413 0.0
C3532 C 0.52598 0.12541 0.09718 0.0
C3533 C 0.24795 0.31514 0.33042 0.0
C3534 C 0.23148 0.32636 0.32038 0.0
C3535 C 0.26809 0.31343 0.31923 0.0
C3536 C 0.2724 0.32267 0.29752 0.0
H3537 H 0.24494 0.30685 0.34661 0.0
H3538 H 0.28026 0.30453 0.3275 0.0
S3539 S 0.23651 0.35647 0.26547 0.0
N3540 N 0.22199 0.34902 0.28869 0.0
N3541 N 0.26006 0.34545 0.26755 0.0
C3542 C 0.25682 0.33505 0.28792 0.0
C3543 C 0.2362 0.33682 0.29928 0.0
C3544 C 1.00107 0.06282 0.12301 0.0
C3545 C 0.01252 0.06289 0.14654 0.0
C3546 C 0.01172 0.05987 0.10006 0.0
C3547 C 0.035 0.05756 0.09873 0.0
H3548 H 0.98334 0.06464 0.12215 0.0
H3549 H 1.00154 0.05978 0.08309 0.0
S3550 S 0.07348 0.05673 0.15431 0.0
N3551 N 0.04923 0.06019 0.16602 0.0
N3552 N 0.06878 0.05531 0.1242 0.0
C3553 C 0.04665 0.0578 0.12212 0.0
C3554 C 0.03569 0.06024 0.14535 0.0
C3555 C 0.2852 0.73032 0.41705 0.0
C3556 C 0.27843 0.70392 0.41445 0.0
C3557 C 0.27693 0.74234 0.3994 0.0
C3558 C 0.26176 0.7283 0.3785 0.0
H3559 H 0.29597 0.74183 0.43346 0.0
H3560 H 0.28162 0.76287 0.40275 0.0
S3561 S 0.2419 0.65825 0.36157 0.0
N3562 N 0.25767 0.6638 0.38856 0.0
N3563 N 0.24258 0.68633 0.35484 0.0
C3564 C 0.25607 0.70172 0.37499 0.0
C3565 C 0.26431 0.68953 0.3931 0.0
C3566 C 0.61071 0.04656 0.63668 0.0
C3567 C 0.62653 0.03093 0.63244 0.0
C3568 C 0.5957 0.0488 0.61716 0.0
C3569 C 0.59613 0.03538 0.59306 0.0
H3570 H 0.61061 0.05788 0.65499 0.0
H3571 H 0.58464 0.06203 0.62067 0.0
S3572 S 0.63248 0.99046 0.57243 0.0
N3573 N 0.64055 1.00077 0.60246 0.0
N3574 N 0.61185 1.00469 0.56595 0.0
C3575 C 0.61072 0.01861 0.58879 0.0
C3576 C 0.62605 0.01638 0.60851 0.0
C3577 C 0.32139 0.31048 0.88545 0.0
C3578 C 0.32437 0.33542 0.89947 0.0
C3579 C 0.32016 0.30547 0.8591 0.0
C3580 C 0.3223 0.32529 0.84588 0.0
H3581 H 0.31914 0.29468 0.89483 0.0
H3582 H 0.31675 0.28599 0.84905 0.0
S3583 S 0.33338 0.39398 0.8739 0.0
N3584 N 0.3315 0.38007 0.89798 0.0
N3585 N 0.32938 0.37085 0.84914 0.0
C3586 C 0.32633 0.35025 0.85986 0.0
C3587 C 0.32742 0.35527 0.88641 0.0
C3588 C 0.03821 0.06451 0.42059 0.0
C3589 C 0.01415 0.06278 0.41435 0.0
C3590 C 0.04774 0.06135 0.44437 0.0
C3591 C 0.03388 0.05563 0.46367 0.0
H3592 H 0.0501 0.06913 0.40715 0.0
H3593 H 0.06626 0.06403 0.44778 0.0
S3594 S 0.96976 0.04572 0.45704 0.0
N3595 N 0.97691 0.05257 0.43022 0.0
N3596 N 0.99421 0.04688 0.47336 0.0
C3597 C 0.00987 0.05301 0.45727 0.0
C3598 C 1.00026 0.05636 0.43336 0.0
C3599 C 0.32347 0.76028 0.6559 0.0
C3600 C 0.30521 0.73915 0.64662 0.0
C3601 C 0.32427 0.77469 0.67982 0.0
C3602 C 0.30714 0.76817 0.69546 0.0
H3603 H 0.33775 0.76506 0.64507 0.0
H3604 H 0.33895 0.7903 0.68634 0.0
S3605 S 0.25319 0.71786 0.67773 0.0
N3606 N 0.26763 0.71499 0.6531 0.0
N3607 N 0.26953 0.74159 0.69843 0.0
C3608 C 0.28789 0.74827 0.68564 0.0
C3609 C 0.28688 0.73383 0.66114 0.0
C3610 C 0.64318 0.07394 0.86203 0.0
C3611 C 0.63805 0.058 0.83839 0.0
C3612 C 0.6258 0.07677 0.87752 0.0
C3613 C 0.60271 0.06384 0.86984 0.0
H3614 H 0.66079 0.08402 0.86873 0.0
H3615 H 0.63049 0.08903 0.89573 0.0
S3616 S 0.58024 0.02058 0.8093 0.0
N3617 N 0.60823 0.02989 0.80757 0.0
N3618 N 0.57556 0.03477 0.83707 0.0
C3619 C 0.59729 0.04816 0.84611 0.0
C3620 C 0.615 0.04527 0.83031 0.0
C3621 C 0.32348 0.3175 0.16427 0.0
C3622 C 0.31856 0.34078 0.16148 0.0
C3623 C 0.32239 0.30946 0.18712 0.0
C3624 C 0.31705 0.32459 0.20859 0.0
H3625 H 0.328 0.30515 0.14854 0.0
H3626 H 0.3261 0.29134 0.18803 0.0
S3627 S 0.3007 0.38606 0.21132 0.0
N3628 N 0.30655 0.37815 0.18236 0.0
N3629 N 0.30518 0.3632 0.22517 0.0
C3630 C 0.31169 0.34765 0.20609 0.0
C3631 C 0.31225 0.35566 0.18266 0.0
C3632 C 0.24363 0.03192 0.00887 0.0
C3633 C 0.24812 0.02088 0.02914 0.0
C3634 C 0.22776 0.04735 0.00957 0.0
C3635 C 0.21582 0.05216 0.03053 0.0
H3636 H 0.25258 0.02876 0.99243 0.0
H3637 H 0.22455 0.05524 0.99347 0.0
S3638 S 0.22137 0.02763 0.08837 0.0
N3639 N 0.23909 0.01536 0.07049 0.0
N3640 N 0.20989 0.04512 0.07223 0.0
C3641 C 0.22027 0.04134 0.05097 0.0
C3642 C 0.23629 0.02553 0.05018 0.0
C3643 C 0.6675 0.6204 0.02826 0.0
C3644 C 0.68046 0.61312 0.00874 0.0
C3645 C 0.64525 0.60639 0.02998 0.0
C3646 C 0.63457 0.58436 0.01218 0.0
H3647 H 0.67447 0.63735 0.04235 0.0
H3648 H 0.6364 0.61308 0.04558 0.0
S3649 S 0.66066 0.55716 0.95689 0.0
N3650 N 0.68086 0.58204 0.97116 0.0
N3651 N 0.63863 0.55644 0.97374 0.0
C3652 C 0.64713 0.57698 0.99228 0.0
C3653 C 0.67006 0.59117 0.99069 0.0
C3654 C 0.76442 0.38843 0.29351 0.0
C3655 C 0.7608 0.39762 0.27136 0.0
C3656 C 0.77547 0.3678 0.29499 0.0
C3657 C 0.78445 0.35411 0.27466 0.0
H3658 H 0.7581 0.39684 0.31029 0.0
H3659 H 0.77671 0.36221 0.31275 0.0
S3660 S 0.78075 0.36903 0.21155 0.0
N3661 N 0.76861 0.39009 0.22792 0.0
N3662 N 0.78821 0.35182 0.23083 0.0
C3663 C 0.78112 0.3628 0.25225 0.0
C3664 C 0.76985 0.38408 0.25064 0.0
C3665 C 0.97437 0.52481 0.52408 0.0
C3666 C 0.96149 0.49973 0.51685 0.0
C3667 C 0.99843 0.53028 0.52547 0.0
C3668 C 0.01026 0.51088 0.51909 0.0
H3669 H 0.96584 0.54016 0.52958 0.0
H3670 H 1.00778 0.54974 0.53216 0.0
S3671 S 0.9842 0.44234 0.49762 0.0
N3672 N 0.96196 0.45544 0.50221 0.0
N3673 N 1.00744 0.46584 0.50489 0.0
C3674 C 0.99754 0.4858 0.51139 0.0
C3675 C 0.97304 0.48021 0.51007 0.0
C3676 C 0.35734 0.16431 0.29194 0.0
C3677 C 0.35086 0.13956 0.29632 0.0
C3678 C 0.34336 0.17302 0.27584 0.0
C3679 C 0.32257 0.15716 0.26351 0.0
H3680 H 0.3739 0.17649 0.29996 0.0
H3681 H 0.34949 0.19172 0.27193 0.0
S3682 S 0.29629 0.0922 0.2712 0.0
N3683 N 0.32111 0.10031 0.28892 0.0
N3684 N 0.29479 0.11693 0.25885 0.0
C3685 C 0.31508 0.13315 0.26912 0.0
C3686 C 0.32921 0.12431 0.28557 0.0
C3687 C 0.41955 0.13206 0.53142 0.0
C3688 C 0.39663 0.12144 0.52064 0.0
C3689 C 0.43485 0.11669 0.53565 0.0
C3690 C 0.42777 0.09005 0.52948 0.0
H3691 H 0.42566 0.15246 0.53692 0.0
H3692 H 0.45206 0.1257 0.54463 0.0
S3693 S 0.37016 0.05262 0.4997 0.0
N3694 N 0.36802 0.08239 0.50329 0.0
N3695 N 0.39681 0.05376 0.51068 0.0
C3696 C 0.40522 0.07923 0.51794 0.0
C3697 C 0.38967 0.09481 0.51365 0.0
C3698 C 0.75486 0.68455 0.29206 0.0
C3699 C 0.76416 0.66366 0.28193 0.0
C3700 C 0.76601 0.71026 0.29208 0.0
C3701 C 0.78757 0.71703 0.28256 0.0
H3702 H 0.73841 0.68102 0.29965 0.0
H3703 H 0.7576 0.72507 0.29983 0.0
S3704 S 0.8199 0.67028 0.25379 0.0
N3705 N 0.79689 0.6524 0.26211 0.0
N3706 N 0.81732 0.69981 0.26211 0.0
C3707 C 0.79713 0.6964 0.27253 0.0
C3708 C 0.78566 0.6702 0.27221 0.0
C3709 C 0.84692 0.39746 0.78431 0.0
C3710 C 0.86599 0.4097 0.8019 0.0
C3711 C 0.83953 0.37111 0.77872 0.0
C3712 C 0.85054 0.35614 0.79098 0.0
H3713 H 0.83771 0.40828 0.77457 0.0
H3714 H 0.82529 0.36234 0.76444 0.0
S3715 S 0.90116 0.37804 0.83815 0.0
N3716 N 0.89608 0.40431 0.8311 0.0
N3717 N 0.88122 0.35458 0.82106 0.0
C3718 C 0.86935 0.3678 0.80871 0.0
C3719 C 0.87718 0.39469 0.81426 0.0
C3720 C 0.08938 0.94788 0.0431 0.0
C3721 C 0.08639 0.94189 0.06692 0.0
C3722 C 0.08555 0.971 0.03706 0.0
C3723 C 0.07884 0.9897 0.05462 0.0
H3724 H 0.09474 0.93453 0.02889 0.0
H3725 H 0.08855 0.97453 0.01871 0.0
S3726 S 0.0688 0.98424 0.11959 0.0
N3727 N 0.07611 0.95755 0.10794 0.0
N3728 N 0.06949 1.0001 0.09696 0.0
C3729 C 0.07586 0.98386 0.07835 0.0
C3730 C 0.07935 0.96038 0.08434 0.0
C3731 C 0.89273 0.27184 0.86028 0.0
C3732 C 0.91556 0.27969 0.85429 0.0
C3733 C 0.87338 0.27526 0.84611 0.0
C3734 C 0.87583 0.28614 0.82488 0.0
H3735 H 0.8898 0.26328 0.87631 0.0
H3736 H 0.8563 0.26884 0.85154 0.0
S3737 S 0.93151 0.30995 0.80094 0.0
N3738 N 0.93908 0.29904 0.82537 0.0
N3739 N 0.90311 0.30511 0.79898 0.0
C3740 C 0.89847 0.29396 0.81867 0.0
C3741 C 0.91815 0.29087 0.83326 0.0
C3742 C 0.59176 0.16149 0.58233 0.0
C3743 C 0.59182 0.17495 0.5629 0.0
C3744 C 0.58639 0.13467 0.57779 0.0
C3745 C 0.58125 0.11956 0.55356 0.0
H3746 H 0.5951 0.17177 0.60144 0.0
H3747 H 0.58586 0.12559 0.59363 0.0
S3748 S 0.58026 0.1449 0.49577 0.0
N3749 N 0.58715 0.17062 0.51808 0.0
N3750 N 0.57706 0.12049 0.50969 0.0
C3751 C 0.58185 0.13265 0.53384 0.0
C3752 C 0.58711 0.16012 0.53847 0.0
C3753 C 0.62838 0.76766 0.3294 0.0
C3754 C 0.63122 0.78201 0.35382 0.0
C3755 C 0.64616 0.77035 0.31377 0.0
C3756 C 0.66773 0.78738 0.32184 0.0
H3757 H 0.612 0.75475 0.32198 0.0
H3758 H 0.64284 0.75924 0.29497 0.0
S3759 S 0.68479 0.82801 0.38477 0.0
N3760 N 0.65792 0.81277 0.38588 0.0
N3761 N 0.69119 0.818 0.35642 0.0
C3762 C 0.67114 0.80117 0.34652 0.0
C3763 C 0.65294 0.79853 0.36245 0.0
C3764 C 0.0781 0.20668 0.45998 0.0
C3765 C 0.09677 0.22803 0.46496 0.0
C3766 C 0.07147 0.193 0.47843 0.0
C3767 C 0.08309 0.20051 0.50251 0.0
H3768 H 0.06823 0.20092 0.44187 0.0
H3769 H 0.05658 0.17713 0.47416 0.0
S3770 S 0.13376 0.25401 0.52467 0.0
N3771 N 0.12742 0.25521 0.4954 0.0
N3772 N 0.11476 0.22954 0.53008 0.0
C3773 C 0.10224 0.22119 0.50748 0.0
C3774 C 0.10917 0.23493 0.48867 0.0
C3775 C 0.62621 0.24652 0.25026 0.0
C3776 C 0.62643 0.26953 0.24265 0.0
C3777 C 0.64636 0.24149 0.26031 0.0
C3778 C 0.66757 0.25937 0.26347 0.0
H3779 H 0.61036 0.23199 0.24796 0.0
H3780 H 0.64538 0.22308 0.26493 0.0
S3781 S 0.67717 0.32346 0.24848 0.0
N3782 N 0.64948 0.31082 0.2398 0.0
N3783 N 0.68728 0.30188 0.25997 0.0
C3784 C 0.6679 0.28294 0.25696 0.0
C3785 C 0.64734 0.28795 0.24637 0.0
C3786 C 0.59347 0.95334 0.95415 0.0
C3787 C 0.61456 0.94885 0.96276 0.0
C3788 C 0.58485 0.97314 0.96695 0.0
C3789 C 0.597 0.98901 0.98883 0.0
H3790 H 0.58339 0.94118 0.93761 0.0
H3791 H 0.56839 0.9757 0.95982 0.0
S3792 S 0.65424 0.98626 0.01749 0.0
N3793 N 0.64807 0.96237 0.99331 0.0
N3794 N 0.63212 0.99981 0.01754 0.0
C3795 C 0.61842 0.98494 0.9973 0.0
C3796 C 0.62713 0.96475 0.98423 0.0
C3797 C 0.90486 0.7741 0.75527 0.0
C3798 C 0.90911 0.77915 0.73161 0.0
C3799 C 0.8831 0.77352 0.76391 0.0
C3800 C 0.86508 0.77817 0.74924 0.0
H3801 H 0.91848 0.77079 0.76724 0.0
H3802 H 0.88028 0.76917 0.78202 0.0
S3803 S 0.86568 0.78583 0.68385 0.0
N3804 N 0.8924 0.78481 0.69235 0.0
N3805 N 0.85159 0.78331 0.70849 0.0
C3806 C 0.8687 0.78159 0.72505 0.0
C3807 C 0.89075 0.78237 0.71632 0.0
C3808 C 0.10047 0.02398 0.90888 0.0
C3809 C 0.12469 0.03201 0.90758 0.0
C3810 C 0.08984 0.02635 0.93183 0.0
C3811 C 0.10235 0.03728 0.95563 0.0
H3812 H 0.08935 0.01532 0.89184 0.0
H3813 H 0.07133 0.01967 0.93068 0.0
S3814 S 0.16615 0.06294 0.96396 0.0
N3815 N 0.1606 0.05253 0.93363 0.0
N3816 N 0.1411 0.05685 0.97551 0.0
C3817 C 0.12654 0.04573 0.95462 0.0
C3818 C 0.13742 0.04312 0.93128 0.0
C3819 C 0.83524 0.33944 0.59639 0.0
C3820 C 0.82655 0.36062 0.60621 0.0
C3821 C 0.83383 0.31919 0.60855 0.0
C3822 C 0.8237 0.31949 0.6309 0.0
H3823 H 0.84325 0.33854 0.5792 0.0
H3824 H 0.84133 0.30357 0.60082 0.0
S3825 S 0.79753 0.36991 0.66381 0.0
N3826 N 0.80716 0.38047 0.63936 0.0
N3827 N 0.80386 0.34196 0.66186 0.0
C3828 C 0.81438 0.3402 0.64058 0.0
C3829 C 0.81595 0.36088 0.6283 0.0
C3830 C 0.50731 0.03776 0.42868 0.0
C3831 C 0.51476 0.05729 0.41602 0.0
C3832 C 0.52019 0.036 0.44983 0.0
C3833 C 0.54105 0.05372 0.45913 0.0
H3834 H 0.49104 0.02407 0.42253 0.0
H3835 H 0.51339 0.0208 0.45913 0.0
S3836 S 0.56895 0.10708 0.4309 0.0
N3837 N 0.54468 0.09374 0.41277 0.0
N3838 N 0.56936 0.09047 0.45288 0.0
C3839 C 0.54921 0.0728 0.44596 0.0
C3840 C 0.53587 0.07467 0.42436 0.0
C3841 C 0.80573 0.74217 0.16906 0.0
C3842 C 0.80767 0.76206 0.15603 0.0
C3843 C 0.80841 0.74685 0.19516 0.0
C3844 C 0.81247 0.77159 0.2097 0.0
H3845 H 0.80276 0.72274 0.15895 0.0
H3846 H 0.8074 0.73082 0.20413 0.0
S3847 S 0.81872 0.83053 0.18505 0.0
N3848 N 0.81381 0.8077 0.15987 0.0
N3849 N 0.8186 0.81639 0.20898 0.0
C3850 C 0.8142 0.79173 0.19704 0.0
C3851 C 0.81181 0.78699 0.17027 0.0
C3852 C 0.13548 0.04049 0.62074 0.0
C3853 C 0.12143 0.0324 0.63906 0.0
C3854 C 0.12638 0.04367 0.5971 0.0
C3855 C 0.10239 0.0397 0.58962 0.0
H3856 H 0.15404 0.04383 0.6243 0.0
H3857 H 0.13859 0.04924 0.58424 0.0
S3858 S 0.05693 0.01864 0.62956 0.0
N3859 N 0.08113 0.02091 0.647 0.0
N3860 N 0.06461 0.02657 0.60327 0.0
C3861 C 0.08795 0.03179 0.60762 0.0
C3862 C 0.09722 0.02832 0.63183 0.0
C3863 C 0.82311 0.37075 0.37403 0.0
C3864 C 0.82138 0.35934 0.39471 0.0
C3865 C 0.82428 0.35666 0.35062 0.0
C3866 C 0.82387 0.33063 0.34703 0.0
H3867 H 0.82368 0.3908 0.37603 0.0
H3868 H 0.82536 0.36636 0.33523 0.0
S3869 S 0.82028 0.29217 0.39568 0.0
N3870 N 0.81952 0.32086 0.41065 0.0
N3871 N 0.82211 0.29409 0.36626 0.0
C3872 C 0.82204 0.31891 0.3676 0.0
C3873 C 0.82068 0.33335 0.39157 0.0
C3874 C 0.49104 0.02295 0.18279 0.0
C3875 C 0.49748 0.03365 0.20808 0.0
C3876 C 0.50755 0.01753 0.16698 0.0
C3877 C 0.53106 0.02271 0.17591 0.0
H3878 H 0.47321 0.01928 0.17506 0.0
H3879 H 0.50193 1.00966 0.14749 0.0
S3880 S 0.55644 0.04884 0.24106 0.0
N3881 N 0.52855 0.04736 0.24183 0.0
N3882 N 0.55981 0.03817 0.21176 0.0
C3883 C 0.53761 0.03263 0.20131 0.0
C3884 C 0.52076 0.03795 0.21747 0.0
C3885 C 0.83313 0.76402 0.8842 0.0
C3886 C 0.81241 0.75999 0.8956 0.0
C3887 C 0.83423 0.77173 0.86112 0.0
C3888 C 0.81464 0.77564 0.84809 0.0
H3889 H 0.84877 0.76136 0.89328 0.0
H3890 H 0.85057 0.7742 0.85327 0.0
S3891 S 0.75585 0.76688 0.86914 0.0
N3892 N 0.77158 0.75986 0.89135 0.0
N3893 N 0.77369 0.77449 0.84856 0.0
C3894 C 0.79378 0.77147 0.85918 0.0
C3895 C 0.79267 0.76372 0.88272 0.0
C3896 C 0.89955 0.06202 0.98987 0.0
C3897 C 0.88294 0.05894 1.00676 0.0
C3898 C 0.91554 0.04677 0.98711 0.0
C3899 C 0.91537 0.0278 1.00102 0.0
H3900 H 0.90064 0.07683 0.97926 0.0
H3901 H 0.92842 0.05015 0.97431 0.0
S3902 S 0.87444 1.01122 0.04663 0.0
N3903 N 0.8664 0.03477 0.03663 0.0
N3904 N 0.89676 1.00623 0.03167 0.0
C3905 C 0.89838 0.02399 0.01739 0.0
C3906 C 0.88213 0.0396 0.02026 0.0
C3907 C 0.46767 0.47463 0.02337 0.0
C3908 C 0.45478 0.48206 0.0429 0.0
C3909 C 0.48986 0.48866 0.02141 0.0
C3910 C 0.50055 0.51086 0.03898 0.0
H3911 H 0.46065 0.45759 0.0094 0.0
H3912 H 0.49864 0.48187 1.00579 0.0
S3913 S 0.47468 0.53845 0.09428 0.0
N3914 N 0.4545 0.5134 0.08031 0.0
N3915 N 0.49659 0.53909 0.07727 0.0
C3916 C 0.48808 0.51836 0.05893 0.0
C3917 C 0.46522 0.50415 0.06077 0.0
C3918 C 0.36732 0.71077 0.79366 0.0
C3919 C 0.37495 0.69579 0.77286 0.0
C3920 C 0.35611 0.73153 0.79193 0.0
C3921 C 0.35136 0.73914 0.76913 0.0
H3922 H 0.37052 0.70687 0.81192 0.0
H3923 H 0.35167 0.7421 0.80886 0.0
S3924 S 0.36422 0.70544 0.70814 0.0
N3925 N 0.37379 0.69001 0.72792 0.0
N3926 N 0.35418 0.72796 0.72501 0.0
C3927 C 0.35818 0.7239 0.74828 0.0
C3928 C 0.36936 0.70284 0.74997 0.0
C3929 C 0.15949 0.56611 0.52462 0.0
C3930 C 0.17351 0.59045 0.53322 0.0
C3931 C 0.1355 0.56229 0.52231 0.0
C3932 C 0.12476 0.58268 0.52839 0.0
H3933 H 0.16713 0.55 0.51936 0.0
H3934 H 0.12543 0.54326 0.51534 0.0
S3935 S 0.1541 0.65019 0.55103 0.0
N3936 N 0.17535 0.63533 0.54761 0.0
N3937 N 0.12994 0.62807 0.54274 0.0
C3938 C 0.13864 0.60715 0.53673 0.0
C3939 C 0.16312 0.61102 0.53948 0.0
C3940 C 0.77625 0.92457 0.76801 0.0
C3941 C 0.78366 0.94928 0.76379 0.0
C3942 C 0.78927 0.91542 0.7847 0.0
C3943 C 0.80987 0.93086 0.7979 0.0
H3944 H 0.7598 0.91272 0.75922 0.0
H3945 H 0.78259 0.89669 0.7883 0.0
S3946 S 0.83792 0.99581 0.79176 0.0
N3947 N 0.81386 0.98822 0.77279 0.0
N3948 N 0.83822 0.97083 0.80415 0.0
C3949 C 0.81814 0.95493 0.7928 0.0
C3950 C 0.80507 0.96418 0.77567 0.0
C3951 C 0.71871 0.96509 0.51911 0.0
C3952 C 0.73993 0.97471 0.53413 0.0
C3953 C 0.7037 0.98088 0.51529 0.0
C3954 C 0.70953 1.00695 0.526 0.0
H3955 H 0.71377 0.94525 0.51005 0.0
H3956 H 0.68781 0.97281 0.50317 0.0
S3957 S 0.76248 0.04142 0.56754 0.0
N3958 N 0.76552 0.01195 0.56032 0.0
N3959 N 0.73742 0.04142 0.5531 0.0
C3960 C 0.73037 0.01664 0.54151 0.0
C3961 C 0.74551 1.00059 0.5456 0.0
C3962 C 0.34816 0.4208 0.77011 0.0
C3963 C 0.3725 0.42965 0.77221 0.0
C3964 C 0.33717 0.39512 0.77036 0.0
C3965 C 0.34968 0.3765 0.77325 0.0
H3966 H 0.33731 0.43382 0.76788 0.0
H3967 H 0.31857 0.38998 0.76847 0.0
S3968 S 0.41397 0.38935 0.78046 0.0
N3969 N 0.40871 0.41698 0.77783 0.0
N3970 N 0.38849 0.3697 0.77851 0.0
C3971 C 0.37408 0.38519 0.7756 0.0
C3972 C 0.38526 0.41124 0.77502 0.0
C3973 C 0.29558 0.68894 0.28182 0.0
C3974 C 0.27648 0.67904 0.26368 0.0
C3975 C 0.30424 0.71507 0.28963 0.0
C3976 C 0.29474 0.73216 0.27889 0.0
H3977 H 0.30401 0.67645 0.29004 0.0
H3978 H 0.31872 0.72197 0.30391 0.0
S3979 S 0.2435 0.71681 0.23266 0.0
N3980 N 0.24712 0.68898 0.23689 0.0
N3981 N 0.26452 0.73813 0.25071 0.0
C3982 C 0.27562 0.72283 0.261 0.0
C3983 C 0.26632 0.69622 0.25346 0.0
C3984 C 0.54565 0.64724 0.51188 0.0
C3985 C 0.54754 0.65275 0.48773 0.0
C3986 C 0.54949 0.6241 0.51787 0.0
C3987 C 0.55516 0.60495 0.49993 0.0
H3988 H 0.5412 0.661 0.52641 0.0
H3989 H 0.54742 0.62097 0.53651 0.0
S3990 S 0.562 0.60893 0.434 0.0
N3991 N 0.55544 0.63596 0.44594 0.0
N3992 N 0.56245 0.59359 0.45694 0.0
C3993 C 0.55712 0.61032 0.4759 0.0
C3994 C 0.55346 0.63373 0.46991 0.0
C3995 C 0.72496 0.32331 0.7285 0.0
C3996 C 0.72227 0.31634 0.70227 0.0
C3997 C 0.74394 0.31964 0.74307 0.0
C3998 C 0.76156 0.30903 0.7323 0.0
H3999 H 0.71193 0.33117 0.73799 0.0
H4000 H 0.74456 0.32494 0.76308 0.0
S4001 S 0.76373 0.2888 0.66424 0.0
N4002 N 0.73981 0.29923 0.6662 0.0
N4003 N 0.77499 0.29232 0.69312 0.0
C4004 C 0.75928 0.30242 0.70602 0.0
C4005 C 0.73989 0.30604 0.69122 0.0
C4006 C 0.05207 0.43629 0.0151 0.0
C4007 C 0.04531 0.42124 0.99085 0.0
C4008 C 0.05627 0.46328 0.01987 0.0
C4009 C 0.0543 0.47653 1.00053 0.0
H4010 H 0.05437 0.42715 0.03052 0.0
H4011 H 0.06211 0.47384 0.03862 0.0
S4012 S 0.03711 0.44676 0.93394 0.0
N4013 N 0.0366 0.42242 0.94751 0.0
N4014 N 0.0448 0.4723 0.95635 0.0
C4015 C 0.04725 0.4617 0.97644 0.0
C4016 C 0.04265 0.43443 0.97164 0.0
C4017 C 0.99048 0.82501 0.20817 0.0
C4018 C 1.00106 0.80503 0.19911 0.0
C4019 C 0.9722 0.82163 0.22326 0.0
C4020 C 0.96405 0.79826 0.2302 0.0
H4021 H 0.99655 0.84348 0.20376 0.0
H4022 H 0.96501 0.83768 0.23034 0.0
S4023 S 0.98547 0.73988 0.21126 0.0
N4024 N 1.00153 0.7609 0.19792 0.0
N4025 N 0.96756 0.75471 0.22635 0.0
C4026 C 0.97417 0.77806 0.22088 0.0
C4027 C 0.99253 0.78138 0.20533 0.0
C4028 C 0.55227 0.38185 0.08237 0.0
C4029 C 0.53518 0.35911 0.077 0.0
C4030 C 0.55804 0.39596 0.06413 0.0
C4031 C 0.54697 0.38788 0.03977 0.0
H4032 H 0.5612 0.3889 0.1009 0.0
H4033 H 0.57137 0.41334 0.06913 0.0
S4034 S 0.50104 0.32966 0.01609 0.0
N4035 N 0.50745 0.32889 0.04547 0.0
N4036 N 0.51791 0.3559 0.01127 0.0
C4037 C 0.52984 0.36519 0.0341 0.0
C4038 C 0.52397 0.35075 0.05271 0.0
C4039 C 0.99373 0.32476 0.30312 0.0
C4040 C 0.01164 0.34201 0.31935 0.0
C4041 C 0.97355 0.33197 0.29598 0.0
C4042 C 0.97073 0.35666 0.30477 0.0
H4043 H 0.99551 0.30575 0.29554 0.0
H4044 H 0.96024 0.3183 0.28316 0.0
S4045 S 0.01115 0.4078 0.35005 0.0
N4046 N 0.02423 0.38404 0.34585 0.0
N4047 N 0.98651 0.39763 0.33198 0.0
C4048 C 0.98817 0.3738 0.32154 0.0
C4049 C 1.00858 0.36645 0.32896 0.0
C4050 C 0.03538 0.64906 0.56952 0.0
C4051 C 0.02667 0.64724 0.5924 0.0
C4052 C 0.04403 0.62949 0.55634 0.0
C4053 C 0.04413 0.60742 0.56552 0.0
H4054 H 0.03617 0.66606 0.56212 0.0
H4055 H 0.05116 0.63192 0.53912 0.0
S4056 S 0.02209 0.59282 0.62387 0.0
N4057 N 0.01795 0.62141 0.62338 0.0
N4058 N 0.03407 0.58436 0.59831 0.0
C4059 C 0.03528 0.60521 0.58824 0.0
C4060 C 0.02651 0.62519 0.60172 0.0
C4061 C 0.75469 0.83108 0.83349 0.0
C4062 C 0.7354 0.83498 0.8202 0.0
C4063 C 0.77494 0.82971 0.82238 0.0
C4064 C 0.77651 0.83184 0.79748 0.0
H4065 H 0.75395 0.82847 0.85246 0.0
H4066 H 0.78919 0.82601 0.8331 0.0
S4067 S 0.73165 0.84381 0.75504 0.0
N4068 N 0.71963 0.84246 0.78119 0.0
N4069 N 0.758 0.83966 0.76029 0.0
C4070 C 0.75797 0.83715 0.78434 0.0
C4071 C 0.73727 0.83872 0.79571 0.0
C4072 C 0.5073 0.54429 0.62674 0.0
C4073 C 0.51362 0.56618 0.64643 0.0
C4074 C 0.5179 0.5419 0.60376 0.0
C4075 C 0.53602 0.56103 0.5984 0.0
H4076 H 0.49361 0.52864 0.62882 0.0
H4077 H 0.51178 0.52451 0.59001 0.0
S4078 S 0.55998 0.62254 0.64271 0.0
N4079 N 0.54032 0.60751 0.65791 0.0
N4080 N 0.55924 0.60327 0.61571 0.0
C4081 C 0.54252 0.58301 0.61782 0.0
C4082 C 0.53172 0.58549 0.64121 0.0
C4083 C 0.77586 0.22843 0.91424 0.0
C4084 C 0.7818 0.20482 0.91157 0.0
C4085 C 0.76696 0.23627 0.89378 0.0
C4086 C 0.76359 0.22075 0.86993 0.0
H4087 H 0.77761 0.24069 0.93241 0.0
H4088 H 0.762 0.2543 0.8968 0.0
S4089 S 0.77833 0.15827 0.85259 0.0
N4090 N 0.78492 0.16657 0.88301 0.0
N4091 N 0.76853 0.18167 0.84433 0.0
C4092 C 0.77034 0.19758 0.86677 0.0
C4093 C 0.77945 0.18956 0.88764 0.0
C4094 C 0.10875 0.54387 0.13488 0.0
C4095 C 0.12394 0.52757 0.13052 0.0
C4096 C 0.09389 0.54648 0.11546 0.0
C4097 C 0.09398 0.5328 0.09139 0.0
H4098 H 0.10905 0.5554 0.15318 0.0
H4099 H 0.08326 0.56016 0.11899 0.0
S4100 S 0.1291 0.48663 0.07058 0.0
N4101 N 0.13723 0.49673 0.10063 0.0
N4102 N 0.10896 0.50152 0.06413 0.0
C4103 C 0.10807 0.51552 0.087 0.0
C4104 C 0.12317 0.51285 0.10667 0.0
C4105 C 0.82518 0.85264 0.38642 0.0
C4106 C 0.82414 0.83326 0.4 0.0
C4107 C 0.82375 0.84752 0.36033 0.0
C4108 C 0.82127 0.82278 0.34628 0.0
H4109 H 0.82683 0.87205 0.39606 0.0
H4110 H 0.82413 0.8632 0.35097 0.0
S4111 S 0.81757 0.76496 0.37243 0.0
N4112 N 0.82088 0.78808 0.39718 0.0
N4113 N 0.81753 0.77846 0.34807 0.0
C4114 C 0.82058 0.80315 0.35949 0.0
C4115 C 0.82229 0.80841 0.38629 0.0
C4116 C 0.53803 0.56671 0.92032 0.0
C4117 C 0.51374 0.56106 0.91271 0.0
C4118 C 0.54772 0.56332 0.94394 0.0
C4119 C 0.53385 0.55429 0.96202 0.0
H4120 H 0.54989 0.57396 0.90786 0.0
H4121 H 0.56628 0.5687 0.94835 0.0
S4122 S 0.46951 0.5371 0.95304 0.0
N4123 N 0.47651 0.54596 0.92696 0.0
N4124 N 0.49414 0.54007 0.96987 0.0
C4125 C 0.50972 0.54861 0.95459 0.0
C4126 C 0.49993 0.55173 0.93066 0.0
C4127 C 0.79416 0.24123 0.1582 0.0
C4128 C 0.81408 0.23484 0.149 0.0
C4129 C 0.79513 0.25528 0.18241 0.0
C4130 C 0.81603 0.26323 0.19789 0.0
H4131 H 0.77783 0.23533 0.14662 0.0
H4132 H 0.77954 0.26002 0.18903 0.0
S4133 S 0.87191 0.2478 0.18352 0.0
N4134 N 0.85457 0.23547 0.15765 0.0
N4135 N 0.85621 0.26121 0.20328 0.0
C4136 C 0.83577 0.25621 0.18905 0.0
C4137 C 0.83485 0.24216 0.1645 0.0
C4138 C 0.14331 0.56009 0.37021 0.0
C4139 C 0.13909 0.56116 0.34519 0.0
C4140 C 0.12958 0.56938 0.3878 0.0
C4141 C 0.11136 0.58003 0.38077 0.0
H4142 H 0.15773 0.55286 0.37628 0.0
H4143 H 0.1338 0.56909 0.40713 0.0
S4144 S 0.09249 0.58492 0.3169 0.0
N4145 N 0.11506 0.57213 0.31381 0.0
N4146 N 0.08888 0.58924 0.34677 0.0
C4147 C 0.10653 0.5802 0.35556 0.0
C4148 C 0.12052 0.57082 0.33775 0.0
C4149 C 0.83994 0.84213 0.67809 0.0
C4150 C 0.81974 0.83978 0.66228 0.0
C4151 C 0.83916 0.8348 0.70129 0.0
C4152 C 0.81821 0.8245 0.71013 0.0
H4153 H 0.85669 0.84988 0.6726 0.0
H4154 H 0.85537 0.83646 0.71194 0.0
S4155 S 0.75998 0.81545 0.67696 0.0
N4156 N 0.77779 0.82661 0.65775 0.0
N4157 N 0.77647 0.81381 0.70147 0.0
C4158 C 0.7978 0.82247 0.69479 0.0
C4159 C 0.79853 0.82987 0.67102 0.0
C4160 C 0.74119 0.54691 0.52531 0.0
C4161 C 0.75247 0.5384 0.54406 0.0
C4162 C 0.7253 0.5619 0.53095 0.0
C4163 C 0.72034 0.56902 0.55553 0.0
H4164 H 0.74459 0.54185 0.50614 0.0
H4165 H 0.71653 0.56765 0.51596 0.0
S4166 S 0.74417 0.55062 0.61111 0.0
N4167 N 0.75685 0.53734 0.58804 0.0
N4168 N 0.72723 0.56604 0.5986 0.0
C4169 C 0.73159 0.56089 0.57447 0.0
C4170 C 0.74761 0.54542 0.56874 0.0
C4171 C 0.162 0.12114 0.50237 0.0
C4172 C 0.18176 0.113 0.50962 0.0
C4173 C 0.1396 0.10747 0.50451 0.0
C4174 C 0.13597 0.08483 0.51358 0.0
H4175 H 0.16389 0.13859 0.49557 0.0
H4176 H 0.12501 0.11476 0.49907 0.0
S4177 S 0.18189 0.05504 0.5346 0.0
N4178 N 0.19611 0.08052 0.52575 0.0
N4179 N 0.15429 0.05502 0.52993 0.0
C4180 C 0.15559 0.07631 0.52053 0.0
C4181 C 0.17836 0.09032 0.51854 0.0
C4182 C 0.26368 0.88832 0.79412 0.0
C4183 C 0.26084 0.89796 0.77211 0.0
C4184 C 0.27447 0.86754 0.79563 0.0
C4185 C 0.28386 0.85412 0.77547 0.0
H4186 H 0.25697 0.89656 0.81072 0.0
H4187 H 0.27526 0.86169 0.8133 0.0
S4188 S 0.28247 0.87056 0.71293 0.0
N4189 N 0.26991 0.89135 0.72909 0.0
N4190 N 0.28915 0.85282 0.73204 0.0
C4191 C 0.28139 0.86335 0.75323 0.0
C4192 C 0.27035 0.88476 0.75159 0.0
C4193 C 0.47538 0.9785 0.01268 0.0
C4194 C 0.46243 0.9971 0.01716 0.0
C4195 C 0.49951 0.98528 0.01453 0.0
C4196 C 0.51141 1.01085 0.02067 0.0
H4197 H 0.46678 0.95857 0.00823 0.0
H4198 H 0.50894 0.97043 0.01138 0.0
S4199 S 0.48522 0.06651 0.0357 0.0
N4200 N 0.46299 0.04188 0.02857 0.0
N4201 N 0.50829 0.05466 0.03262 0.0
C4202 C 0.49855 0.02956 0.02518 0.0
C4203 C 0.47402 0.02267 0.02311 0.0
C4204 C 0.82545 0.62959 0.7941 0.0
C4205 C 0.83941 0.61796 0.7783 0.0
C4206 C 0.80867 0.64047 0.78465 0.0
C4207 C 0.80539 0.64027 0.75909 0.0
H4208 H 0.82804 0.6311 0.81401 0.0
H4209 H 0.79876 0.64996 0.79757 0.0
S4210 S 0.83584 0.60968 0.70968 0.0
N4211 N 0.84736 0.6045 0.73567 0.0
N4212 N 0.81636 0.626 0.71796 0.0
C4213 C 0.81843 0.62759 0.74294 0.0
C4214 C 0.83541 0.61628 0.75256 0.0
C4215 C 0.91556 0.63381 0.04253 0.0
C4216 C 0.89846 0.62672 0.02202 0.0
C4217 C 0.93094 0.61848 0.04635 0.0
C4218 C 0.92997 0.59554 0.02973 0.0
H4219 H 0.91678 0.65114 0.05609 0.0
H4220 H 0.94316 0.62418 0.06287 0.0
S4221 S 0.88975 0.56857 0.97255 0.0
N4222 N 0.88233 0.59516 0.98442 0.0
N4223 N 0.91156 0.56684 0.99156 0.0
C4224 C 0.91375 0.58863 0.0087 0.0
C4225 C 0.89799 0.60412 1.00479 0.0
C4226 C 0.28644 0.17396 0.78475 0.0
C4227 C 0.26222 0.16431 0.7793 0.0
C4228 C 0.29753 0.19973 0.7848 0.0
C4229 C 0.28526 0.21787 0.7796 0.0
H4230 H 0.29716 0.16135 0.78872 0.0
H4231 H 0.31605 0.2054 0.78904 0.0
S4232 S 0.2212 0.20362 0.76599 0.0
N4233 N 0.2263 0.17629 0.7699 0.0
N4234 N 0.24667 0.22359 0.76977 0.0
C4235 C 0.26095 0.20853 0.77455 0.0
C4236 C 0.24968 0.18232 0.77443 0.0
C4237 C 0.36546 0.89857 0.29635 0.0
C4238 C 0.35452 0.91562 0.2869 0.0
C4239 C 0.35629 0.87241 0.29001 0.0
C4240 C 0.33599 0.86242 0.27386 0.0
H4241 H 0.38145 0.90538 0.30846 0.0
H4242 H 0.36531 0.85989 0.29747 0.0
S4243 S 0.3009 0.89805 0.24329 0.0
N4244 N 0.32188 0.92013 0.26062 0.0
N4245 N 0.30574 0.8707 0.24748 0.0
C4246 C 0.32524 0.87889 0.26361 0.0
C4247 C 0.33417 0.90559 0.27051 0.0
C4248 C 0.58623 0.46365 0.58285 0.0
C4249 C 0.58956 0.44327 0.56468 0.0
C4250 C 0.58228 0.48646 0.57693 0.0
C4251 C 0.58128 0.49084 0.55239 0.0
H4252 H 0.58661 0.46207 0.60214 0.0
H4253 H 0.58014 0.50115 0.59209 0.0
S4254 S 0.58904 0.4444 0.49714 0.0
N4255 N 0.59141 0.42959 0.52029 0.0
N4256 N 0.58439 0.47234 0.50955 0.0
C4257 C 0.58435 0.4707 0.53381 0.0
C4258 C 0.58826 0.44714 0.53981 0.0
C4259 C 0.39107 0.77221 0.35802 0.0
C4260 C 0.41407 0.78181 0.3536 0.0
C4261 C 0.37195 0.7762 0.34391 0.0
C4262 C 0.37483 0.78938 0.32423 0.0
H4263 H 0.38781 0.76187 0.3728 0.0
H4264 H 0.35471 0.7685 0.34823 0.0
S4265 S 0.43136 0.81812 0.30472 0.0
N4266 N 0.4384 0.80533 0.32805 0.0
N4267 N 0.40286 0.81196 0.30125 0.0
C4268 C 0.39774 0.79876 0.31946 0.0
C4269 C 0.41717 0.79524 0.33417 0.0
C4270 C 0.0827 0.6579 0.03942 0.0
C4271 C 0.08943 0.67295 0.06366 0.0
C4272 C 0.07833 0.63091 0.03469 0.0
C4273 C 0.08012 0.61768 0.05407 0.0
H4274 H 0.08055 0.66706 0.02397 0.0
H4275 H 0.07253 0.62034 0.01592 0.0
S4276 S 0.09723 0.64746 0.12067 0.0
N4277 N 0.09795 0.6718 0.10704 0.0
N4278 N 0.08945 0.62191 0.09828 0.0
C4279 C 0.08715 0.6325 0.07817 0.0
C4280 C 0.09191 0.65977 0.08292 0.0
C4281 C 0.13941 0.26853 0.8397 0.0
C4282 C 0.13441 0.28883 0.85654 0.0
C4283 C 0.15793 0.27236 0.825 0.0
C4284 C 0.17204 0.29667 0.82643 0.0
H4285 H 0.12874 0.24956 0.83766 0.0
H4286 H 0.16072 0.25636 0.81178 0.0
S4287 S 0.16631 0.35618 0.8671 0.0
N4288 N 0.14537 0.33416 0.87364 0.0
N4289 N 0.17983 0.34125 0.8459 0.0
C4290 C 0.16746 0.31701 0.84336 0.0
C4291 C 0.14879 0.31312 0.85846 0.0
C4292 C 0.61111 0.71892 0.97736 0.0
C4293 C 0.59773 0.73553 0.97145 0.0
C4294 C 0.60536 0.70476 0.99562 0.0
C4295 C 0.58607 0.70673 0.00877 0.0
H4296 H 0.62602 0.71664 0.96761 0.0
H4297 H 0.61616 0.69219 0.99953 0.0
S4298 S 0.54552 0.74763 1.00052 0.0
N4299 N 0.56458 0.75356 0.9806 0.0
N4300 N 0.55344 0.72633 0.01443 0.0
C4301 C 0.57258 0.7233 1.00312 0.0
C4302 C 0.57845 0.73778 0.98454 0.0
C4303 C 0.14404 0.77985 0.75194 0.0
C4304 C 0.12414 0.76094 0.742 0.0
C4305 C 0.16382 0.77357 0.76158 0.0
C4306 C 0.16438 0.74817 0.76162 0.0
H4307 H 0.14464 0.7995 0.75141 0.0
H4308 H 0.17895 0.78868 0.76862 0.0
S4309 S 0.11603 0.69185 0.73939 0.0
N4310 N 0.10548 0.71606 0.73457 0.0
N4311 N 0.14294 0.70414 0.75168 0.0
C4312 C 0.14427 0.72921 0.75258 0.0
C4313 C 0.1241 0.73562 0.74299 0.0
C4314 C 0.11997 0.47363 0.45517 0.0
C4315 C 0.11132 0.44879 0.45861 0.0
C4316 C 0.11112 0.49385 0.46694 0.0
C4317 C 0.09343 0.48963 0.48238 0.0
H4318 H 0.13383 0.47746 0.44358 0.0
H4319 H 0.11848 0.51287 0.4645 0.0
S4320 S 0.06293 0.42806 0.49497 0.0
N4321 N 0.08271 0.42105 0.47689 0.0
N4322 N 0.06623 0.45906 0.49895 0.0
C4323 C 0.08417 0.46492 0.48533 0.0
C4324 C 0.0931 0.44445 0.47345 0.0
C4325 C 0.40524 0.26454 0.25969 0.0
C4326 C 0.40631 0.26396 0.23406 0.0
C4327 C 0.38454 0.26512 0.2705 0.0
C4328 C 0.36462 0.26588 0.2561 0.0
H4329 H 0.42066 0.26577 0.2717 0.0
H4330 H 0.38444 0.26634 0.29035 0.0
S4331 S 0.35658 0.2572 0.18761 0.0
N4332 N 0.38417 0.25822 0.19406 0.0
N4333 N 0.34583 0.2609 0.21463 0.0
C4334 C 0.36492 0.263 0.23032 0.0
C4335 C 0.38568 0.26176 0.21924 0.0
C4336 C 0.59886 0.51865 0.40813 0.0
C4337 C 0.62231 0.53043 0.40623 0.0
C4338 C 0.58824 0.52095 0.43112 0.0
C4339 C 0.59989 0.53569 0.45429 0.0
H4340 H 0.58846 0.507 0.39158 0.0
H4341 H 0.57044 0.51103 0.43055 0.0
S4342 S 0.66128 0.57178 0.46077 0.0
N4343 N 0.65644 0.55829 0.43097 0.0
N4344 N 0.63694 0.5627 0.47282 0.0
C4345 C 0.62324 0.54781 0.45261 0.0
C4346 C 0.63417 0.54519 0.4293 0.0
C4347 C 0.35469 0.89709 0.15779 0.0
C4348 C 0.35429 0.88237 0.13392 0.0
C4349 C 0.36274 0.88954 0.17892 0.0
C4350 C 0.37058 0.86702 0.17681 0.0
H4351 H 0.34938 0.91491 0.16008 0.0
H4352 H 0.36283 0.90138 0.19702 0.0
S4353 S 0.37207 0.82135 0.11851 0.0
N4354 N 0.36127 0.84373 0.10943 0.0
N4355 N 0.37716 0.82995 0.14904 0.0
C4356 C 0.36985 0.85194 0.15306 0.0
C4357 C 0.36151 0.85951 0.13164 0.0
C4358 C 1.00285 0.54648 0.93341 0.0
C4359 C 0.01185 0.56477 0.91986 0.0
C4360 C 0.01573 0.54314 0.95376 0.0
C4361 C 0.0381 0.55821 0.96166 0.0
H4362 H 0.98571 0.53434 0.92801 0.0
H4363 H 1.0079 0.52844 0.96321 0.0
S4364 S 0.06898 0.6098 0.93293 0.0
N4365 N 0.04399 0.59861 0.91556 0.0
N4366 N 0.06837 0.59301 0.95486 0.0
C4367 C 0.04718 0.5771 0.9486 0.0
C4368 C 0.03395 0.58033 0.92751 0.0
C4369 C 0.30727 0.2399 0.66904 0.0
C4370 C 0.30962 0.25966 0.65578 0.0
C4371 C 0.3094 0.24477 0.69519 0.0
C4372 C 0.31348 0.2696 0.7095 0.0
H4373 H 0.30431 0.22041 0.65912 0.0
H4374 H 0.30796 0.22883 0.70435 0.0
S4375 S 0.3206 0.32828 0.68426 0.0
N4376 N 0.31599 0.30528 0.65925 0.0
N4377 N 0.31997 0.31433 0.70834 0.0
C4378 C 0.31564 0.28961 0.69661 0.0
C4379 C 0.3137 0.28467 0.66984 0.0
C4380 C 0.59677 0.52814 0.13024 0.0
C4381 C 0.62105 0.5336 0.13786 0.0
C4382 C 0.58713 0.53169 0.10666 0.0
C4383 C 0.60105 0.54071 0.08861 0.0
H4384 H 0.58486 0.52091 0.14268 0.0
H4385 H 0.56857 0.52641 0.10225 0.0
S4386 S 0.66539 0.55744 0.09759 0.0
N4387 N 0.65833 0.54852 0.12361 0.0
N4388 N 0.6408 0.55472 0.08079 0.0
C4389 C 0.62517 0.54622 0.09605 0.0
C4390 C 0.63491 0.54293 0.11994 0.0
C4391 C 0.32658 0.86545 0.87791 0.0
C4392 C 0.32514 0.85239 0.89752 0.0
C4393 C 0.32715 0.85288 0.85366 0.0
C4394 C 0.3262 0.82675 0.84809 0.0
H4395 H 0.32728 0.88561 0.88137 0.0
H4396 H 0.32798 0.86377 0.83917 0.0
S4397 S 0.32305 0.78409 0.89302 0.0
N4398 N 0.32317 0.81214 0.91013 0.0
N4399 N 0.32422 0.78823 0.86416 0.0
C4400 C 0.32467 0.81337 0.86751 0.0
C4401 C 0.32408 0.82626 0.89234 0.0
C4402 C 0.99637 0.51308 0.684 0.0
C4403 C 1.00288 0.52691 0.70843 0.0
C4404 C 0.01299 0.50865 0.668 0.0
C4405 C 0.0367 0.51799 0.67581 0.0
H4406 H 0.9783 0.50624 0.67698 0.0
H4407 H 1.00723 0.49835 0.64913 0.0
S4408 S 0.0627 0.55357 0.73859 0.0
N4409 N 0.03458 0.54815 0.7404 0.0
N4410 N 0.0659 0.54073 0.7098 0.0
C4411 C 0.04348 0.53107 0.70044 0.0
C4412 C 0.02653 0.5354 0.71685 0.0
C4413 C 0.29624 0.25672 0.37873 0.0
C4414 C 0.31615 0.25409 0.3923 0.0
C4415 C 0.297 0.26331 0.35512 0.0
C4416 C 0.31773 0.26783 0.34387 0.0
H4417 H 0.27976 0.2534 0.38629 0.0
H4418 H 0.28123 0.26539 0.34587 0.0
S4419 S 0.37484 0.26345 0.37093 0.0
N4420 N 0.35744 0.25694 0.39225 0.0
N4421 N 0.35858 0.26858 0.34796 0.0
C4422 C 0.33773 0.26525 0.35709 0.0
C4423 C 0.337 0.25852 0.38114 0.0
C4424 C 0.3824 0.54214 0.51142 0.0
C4425 C 0.3859 0.5655 0.50381 0.0
C4426 C 0.39775 0.5263 0.50644 0.0
C4427 C 0.41717 0.53349 0.49393 0.0
H4428 H 0.36777 0.53618 0.52141 0.0
H4429 H 0.39488 0.50877 0.51318 0.0
S4430 S 0.43379 0.59259 0.46986 0.0
N4431 N 0.40995 0.59495 0.48298 0.0
N4432 N 0.43874 0.56507 0.4734 0.0
C4433 C 0.42058 0.55658 0.48581 0.0
C4434 C 0.40495 0.57262 0.4908 0.0
C4435 C 0.9587 1.00412 0.53354 0.0
C4436 C 0.95534 0.9827 0.54457 0.0
C4437 C 0.98101 0.01826 0.53176 0.0
C4438 C 1.00087 1.01115 0.54039 0.0
H4439 H 0.94393 1.00991 0.52609 0.0
H4440 H 0.98271 0.03436 0.52283 0.0
S4441 S 1.00158 0.95707 0.57136 0.0
N4442 N 0.97386 0.95561 0.56488 0.0
N4443 N 0.01563 0.98174 0.56113 0.0
C4444 C 0.99773 0.99 0.55175 0.0
C4445 C 0.97504 0.97592 0.55396 0.0
C4446 C 0.87234 0.2059 0.25511 0.0
C4447 C 0.87601 0.19704 0.27747 0.0
C4448 C 0.86203 0.22705 0.25352 0.0
C4449 C 0.85358 0.24134 0.27383 0.0
H4450 H 0.87776 0.19658 0.23816 0.0
H4451 H 0.86109 0.23262 0.23579 0.0
S4452 S 0.8586 0.22836 0.33763 0.0
N4453 N 0.8698 0.20641 0.32132 0.0
N4454 N 0.85076 0.24489 0.3179 0.0
C4455 C 0.85683 0.23284 0.29636 0.0
C4456 C 0.86756 0.21127 0.29818 0.0
C4457 C 0.66278 0.07257 0.03013 0.0
C4458 C 0.67525 0.09785 0.03496 0.0
C4459 C 0.6387 0.06679 0.02792 0.0
C4460 C 0.62637 0.08599 0.03111 0.0
H4461 H 0.67162 0.05722 0.02658 0.0
H4462 H 0.6298 0.0472 0.02247 0.0
S4463 S 0.65133 0.15515 0.04667 0.0
N4464 N 0.67395 0.14233 0.04465 0.0
N4465 N 0.62839 0.13122 0.04086 0.0
C4466 C 0.63871 0.11133 0.03707 0.0
C4467 C 0.66326 0.1173 0.03909 0.0
C4468 C 0.27445 0.44625 0.28928 0.0
C4469 C 0.28144 0.45232 0.26675 0.0
C4470 C 0.28848 0.43674 0.30447 0.0
C4471 C 0.30994 0.43298 0.29767 0.0
H4472 H 0.2585 0.44993 0.29586 0.0
H4473 H 0.28273 0.43281 0.32192 0.0
S4474 S 0.33615 0.44529 0.2406 0.0
N4475 N 0.31096 0.453 0.23804 0.0
N4476 N 0.33757 0.43545 0.26706 0.0
C4477 C 0.31693 0.43819 0.27496 0.0
C4478 C 0.30263 0.44787 0.25941 0.0
C4479 C 0.21733 0.46454 0.01826 0.0
C4480 C 0.23878 0.4746 0.03274 0.0
C4481 C 0.2021 0.48006 0.01433 0.0
C4482 C 0.20795 0.50628 0.02439 0.0
H4483 H 0.21237 0.44456 0.00971 0.0
H4484 H 0.18603 0.47166 1.00261 0.0
S4485 S 0.26152 0.54187 0.06434 0.0
N4486 N 0.26464 0.5124 0.05772 0.0
N4487 N 0.23613 0.54139 0.0503 0.0
C4488 C 0.22904 0.51642 0.03937 0.0
C4489 C 0.24441 0.50065 0.04356 0.0
C4490 C 0.8808 0.90876 0.26707 0.0
C4491 C 0.86998 0.92939 0.27314 0.0
C4492 C 0.86961 0.88316 0.26739 0.0
C4493 C 0.84666 0.87614 0.27355 0.0
H4494 H 0.89841 0.91237 0.26238 0.0
H4495 H 0.87918 0.86863 0.26264 0.0
S4496 S 0.81007 0.92207 0.29149 0.0
N4497 N 0.83412 0.93995 0.28532 0.0
N4498 N 0.81408 0.89295 0.28696 0.0
C4499 C 0.83569 0.8965 0.2798 0.0
C4500 C 0.847 0.92257 0.27938 0.0
C4501 C 0.77288 0.18908 0.76526 0.0
C4502 C 0.78972 0.17462 0.764 0.0
C4503 C 0.77885 0.21518 0.77439 0.0
C4504 C 0.80184 0.22771 0.78232 0.0
H4505 H 0.75488 0.18016 0.75921 0.0
H4506 H 0.76543 0.22572 0.77491 0.0
S4507 S 0.85189 0.19854 0.7865 0.0
N4508 N 0.83011 0.17462 0.77367 0.0
N4509 N 0.84109 0.22402 0.79155 0.0
C4510 C 0.81865 0.21355 0.78277 0.0
C4511 C 0.81266 0.18687 0.77328 0.0
loop_
_geom_bond_atom_site_label_1
_geom_bond_atom_site_label_2
_geom_bond_distance
_geom_bond_site_symmetry_2
_ccdc_geom_bond_type
Li0 N17 1.990 . S
Li0 O60 1.956 . S
Li0 O61 1.970 . S
Li0 O62 1.961 . S
Li1 N25 1.990 . S
Li1 O60 1.970 . S
Li1 O61 1.956 . S
Li1 O63 1.961 . S
Li2 N47 1.990 . S
Li2 O60 1.961 . S
Li2 O62 1.956 . S
Li2 O63 1.970 . S
Li3 N53 1.990 . S
Li3 O61 1.961 . S
Li3 O62 1.970 . S
Li3 O63 1.956 . S
C4 C6 1.348 . S
C4 C7 1.356 . S
C4 O60 1.325 . S
N5 C8 1.314 . S
N5 C9 1.279 . S
C6 C4 1.348 . S
C6 C8 1.353 . S
C6 H64 0.929 . S
C7 C4 1.356 . S
C7 C9 1.358 . S
C7 H65 0.930 . S
C8 N5 1.314 . S
C8 C6 1.353 . S
C8 H66 0.930 . S
C9 N5 1.279 . S
C9 C7 1.358 . S
C9 H67 0.930 . S
C10 C13 1.348 . S
C10 C14 1.356 . S
C10 O61 1.325 . S
C11 N12 1.279 . S
C11 C14 1.358 . S
C11 H68 0.930 . S
N12 C11 1.279 . S
N12 C15 1.314 . S
C13 C10 1.348 . S
C13 C15 1.353 . S
C13 H69 0.929 . S
C14 C10 1.356 . S
C14 C11 1.358 . S
C14 H70 0.930 . S
C15 N12 1.314 . S
C15 C13 1.353 . S
C15 H71 0.930 . S
C16 N17 1.314 . S
C16 C21 1.353 . S
C16 H22 0.930 . S
N17 Li0 1.990 . S
N17 C16 1.314 . S
N17 C19 1.279 . S
C18 C19 1.358 . S
C18 C20 1.356 . S
C18 H72 0.930 . S
C19 N17 1.279 . S
C19 C18 1.358 . S
C19 H23 0.930 . S
C20 C18 1.356 . S
C20 C21 1.348 . S
C21 C16 1.353 . S
C21 C20 1.348 . S
C21 H73 0.929 . S
H22 C16 0.930 . S
H23 C19 0.930 . S
C24 N25 1.314 . S
C24 C26 1.353 . S
C24 H30 0.930 . S
N25 Li1 1.990 . S
N25 C24 1.314 . S
N25 C28 1.279 . S
C26 C24 1.353 . S
C26 C29 1.348 . S
C26 H74 0.929 . S
C27 C28 1.358 . S
C27 C29 1.356 . S
C27 H75 0.930 . S
C28 N25 1.279 . S
C28 C27 1.358 . S
C28 H31 0.930 . S
C29 C26 1.348 . S
C29 C27 1.356 . S
H30 C24 0.930 . S
H31 C28 0.930 . S
C32 C34 1.348 . S
C32 C35 1.356 . S
C32 O62 1.325 . S
N33 C36 1.314 . S
N33 C37 1.279 . S
C34 C32 1.348 . S
C34 C36 1.353 . S
C34 H76 0.929 . S
C35 C32 1.356 . S
C35 C37 1.358 . S
C35 H77 0.930 . S
C36 N33 1.314 . S
C36 C34 1.353 . S
C36 H78 0.930 . S
C37 N33 1.279 . S
C37 C35 1.358 . S
C37 H79 0.930 . S
C38 C39 1.348 . S
C38 C40 1.356 . S
C38 O63 1.325 . S
C39 C38 1.348 . S
C39 C41 1.353 . S
C39 H80 0.929 . S
C40 C38 1.356 . S
C40 C42 1.358 . S
C40 H81 0.930 . S
C41 C39 1.353 . S
C41 N43 1.314 . S
C41 H82 0.930 . S
C42 C40 1.358 . S
C42 N43 1.279 . S
C42 H83 0.930 . S
N43 C41 1.314 . S
N43 C42 1.279 . S
C44 C46 1.353 . S
C44 N47 1.314 . S
C44 H50 0.930 . S
C45 N47 1.279 . S
C45 C48 1.358 . S
C45 H51 0.930 . S
C46 C44 1.353 . S
C46 C49 1.348 . S
C46 H84 0.929 . S
N47 Li2 1.990 . S
N47 C44 1.314 . S
N47 C45 1.279 . S
C48 C45 1.358 . S
C48 C49 1.356 . S
C48 H85 0.930 . S
C49 C46 1.348 . S
C49 C48 1.356 . S
H50 C44 0.930 . S
H51 C45 0.930 . S
C52 N53 1.314 . S
C52 C54 1.353 . S
C52 H58 0.930 . S
N53 Li3 1.990 . S
N53 C52 1.314 . S
N53 C56 1.279 . S
C54 C52 1.353 . S
C54 C57 1.348 . S
C54 H86 0.929 . S
C55 C56 1.358 . S
C55 C57 1.356 . S
C55 H87 0.930 . S
C56 N53 1.279 . S
C56 C55 1.358 . S
C56 H59 0.930 . S
C57 C54 1.348 . S
C57 C55 1.356 . S
H58 C52 0.930 . S
H59 C56 0.930 . S
O60 Li0 1.956 . S
O60 Li1 1.970 . S
O60 Li2 1.961 . S
O60 C4 1.325 . S
O61 Li0 1.970 . S
O61 Li1 1.956 . S
O61 Li3 1.961 . S
O61 C10 1.325 . S
O62 Li0 1.961 . S
O62 Li2 1.956 . S
O62 Li3 1.970 . S
O62 C32 1.325 . S
O63 Li1 1.961 . S
O63 Li2 1.970 . S
O63 Li3 1.956 . S
O63 C38 1.325 . S
H64 C6 0.929 . S
H65 C7 0.930 . S
H66 C8 0.930 . S
H67 C9 0.930 . S
H68 C11 0.930 . S
H69 C13 0.929 . S
H70 C14 0.930 . S
H71 C15 0.930 . S
H72 C18 0.930 . S
H73 C21 0.929 . S
H74 C26 0.929 . S
H75 C27 0.930 . S
H76 C34 0.929 . S
H77 C35 0.930 . S
H78 C36 0.930 . S
H79 C37 0.930 . S
H80 C39 0.929 . S
H81 C40 0.930 . S
H82 C41 0.930 . S
H83 C42 0.930 . S
H84 C46 0.929 . S
H85 C48 0.930 . S
H86 C54 0.929 . S
H87 C55 0.930 . S
Li88 N105 1.990 . S
Li88 O148 1.956 . S
Li88 O149 1.970 . S
Li88 O150 1.961 1_455 S
Li89 N113 1.990 . S
Li89 O148 1.970 . S
Li89 O149 1.956 . S
Li89 O151 1.961 1_455 S
Li90 N135 1.990 . S
Li90 O148 1.961 1_655 S
Li90 O150 1.956 . S
Li90 O151 1.970 . S
Li91 N141 1.990 . S
Li91 O149 1.961 1_655 S
Li91 O150 1.970 . S
Li91 O151 1.956 . S
C92 C94 1.348 . S
C92 C95 1.356 . S
C92 O148 1.325 . S
N93 C96 1.314 . S
N93 C97 1.279 . S
C94 C92 1.348 . S
C94 C96 1.353 . S
C94 H152 0.929 . S
C95 C92 1.356 . S
C95 C97 1.358 . S
C95 H153 0.930 . S
C96 N93 1.314 . S
C96 C94 1.353 . S
C96 H154 0.930 . S
C97 N93 1.279 . S
C97 C95 1.358 . S
C97 H155 0.930 . S
C98 C101 1.348 . S
C98 C102 1.356 . S
C98 O149 1.325 . S
C99 N100 1.279 . S
C99 C102 1.358 . S
C99 H156 0.930 . S
N100 C99 1.279 . S
N100 C103 1.314 . S
C101 C98 1.348 . S
C101 C103 1.353 . S
C101 H157 0.929 . S
C102 C98 1.356 . S
C102 C99 1.358 . S
C102 H158 0.929 1_455 S
C103 N100 1.314 . S
C103 C101 1.353 . S
C103 H159 0.930 . S
C104 N105 1.314 1_655 S
C104 C109 1.353 . S
C104 H110 0.930 . S
N105 Li88 1.990 . S
N105 C104 1.314 1_455 S
N105 C107 1.279 . S
C106 C107 1.358 . S
C106 C108 1.356 . S
C106 H160 0.930 . S
C107 N105 1.279 . S
C107 C106 1.358 . S
C107 H111 0.930 . S
C108 C106 1.356 . S
C108 C109 1.348 1_455 S
C109 C104 1.353 . S
C109 C108 1.348 1_655 S
C109 H161 0.929 . S
H110 C104 0.930 . S
H111 C107 0.930 . S
C112 N113 1.314 . S
C112 C114 1.353 . S
C112 H118 0.930 . S
N113 Li89 1.990 . S
N113 C112 1.314 . S
N113 C116 1.279 . S
C114 C112 1.353 . S
C114 C117 1.348 . S
C114 H162 0.929 . S
C115 C116 1.358 . S
C115 C117 1.356 . S
C115 H163 0.930 . S
C116 N113 1.279 . S
C116 C115 1.358 . S
C116 H119 0.930 . S
C117 C114 1.348 . S
C117 C115 1.356 . S
H118 C112 0.930 . S
H119 C116 0.930 . S
C120 C122 1.348 . S
C120 C123 1.356 . S
C120 O150 1.325 . S
N121 C124 1.314 . S
N121 C125 1.279 . S
C122 C120 1.348 . S
C122 C124 1.353 . S
C122 H164 0.929 . S
C123 C120 1.356 . S
C123 C125 1.358 . S
C123 H165 0.930 . S
C124 N121 1.314 . S
C124 C122 1.353 . S
C124 H166 0.930 . S
C125 N121 1.279 . S
C125 C123 1.358 . S
C125 H167 0.930 . S
C126 C127 1.348 . S
C126 C128 1.356 1_655 S
C126 O151 1.325 . S
C127 C126 1.348 . S
C127 C129 1.353 . S
C127 H168 0.929 . S
C128 C126 1.356 1_455 S
C128 C130 1.358 . S
C128 H169 0.930 . S
C129 C127 1.353 . S
C129 N131 1.314 . S
C129 H170 0.930 . S
C130 C128 1.358 . S
C130 N131 1.279 1_455 S
C130 H171 0.930 . S
N131 C129 1.314 . S
N131 C130 1.279 1_655 S
C132 C134 1.353 . S
C132 N135 1.314 1_455 S
C132 H138 0.930 . S
C133 N135 1.279 . S
C133 C136 1.358 . S
C133 H139 0.930 . S
C134 C132 1.353 . S
C134 C137 1.348 1_455 S
C134 H172 0.929 . S
N135 Li90 1.990 . S
N135 C132 1.314 1_655 S
N135 C133 1.279 . S
C136 C133 1.358 . S
C136 C137 1.356 . S
C136 H173 0.930 . S
C137 C134 1.348 1_655 S
C137 C136 1.356 . S
H138 C132 0.930 . S
H139 C133 0.930 . S
C140 N141 1.314 . S
C140 C142 1.353 . S
C140 H146 0.930 . S
N141 Li91 1.990 . S
N141 C140 1.314 . S
N141 C144 1.279 . S
C142 C140 1.353 . S
C142 C145 1.348 . S
C142 H174 0.929 . S
C143 C144 1.358 . S
C143 C145 1.356 . S
C143 H175 0.930 . S
C144 N141 1.279 . S
C144 C143 1.358 . S
C144 H147 0.930 . S
C145 C142 1.348 . S
C145 C143 1.356 . S
H146 C140 0.930 . S
H147 C144 0.930 . S
O148 Li88 1.956 . S
O148 Li89 1.970 . S
O148 Li90 1.961 1_455 S
O148 C92 1.325 . S
O149 Li88 1.970 . S
O149 Li89 1.956 . S
O149 Li91 1.961 1_455 S
O149 C98 1.325 . S
O150 Li88 1.961 1_655 S
O150 Li90 1.956 . S
O150 Li91 1.970 . S
O150 C120 1.325 . S
O151 Li89 1.961 1_655 S
O151 Li90 1.970 . S
O151 Li91 1.956 . S
O151 C126 1.325 . S
H152 C94 0.929 . S
H153 C95 0.930 . S
H154 C96 0.930 . S
H155 C97 0.930 . S
H156 C99 0.930 . S
H157 C101 0.929 . S
H158 C102 0.929 1_655 S
H159 C103 0.930 . S
H160 C106 0.930 . S
H161 C109 0.929 . S
H162 C114 0.929 . S
H163 C115 0.930 . S
H164 C122 0.929 . S
H165 C123 0.930 . S
H166 C124 0.930 . S
H167 C125 0.930 . S
H168 C127 0.929 . S
H169 C128 0.930 . S
H170 C129 0.930 . S
H171 C130 0.930 . S
H172 C134 0.929 . S
H173 C136 0.930 . S
H174 C142 0.929 . S
H175 C143 0.930 . S
Li176 N193 1.990 . S
Li176 O236 1.956 . S
Li176 O237 1.970 . S
Li176 O238 1.961 . S
Li177 N201 1.990 . S
Li177 O236 1.970 . S
Li177 O237 1.956 . S
Li177 O239 1.961 . S
Li178 N223 1.990 . S
Li178 O236 1.961 . S
Li178 O238 1.956 . S
Li178 O239 1.970 . S
Li179 N229 1.990 . S
Li179 O237 1.961 . S
Li179 O238 1.970 . S
Li179 O239 1.956 . S
C180 C182 1.348 . S
C180 C183 1.356 . S
C180 O236 1.325 . S
N181 C184 1.314 . S
N181 C185 1.279 . S
C182 C180 1.348 . S
C182 C184 1.353 . S
C182 H240 0.929 . S
C183 C180 1.356 . S
C183 C185 1.358 . S
C183 H241 0.930 . S
C184 N181 1.314 . S
C184 C182 1.353 . S
C184 H242 0.930 . S
C185 N181 1.279 . S
C185 C183 1.358 . S
C185 H243 0.930 . S
C186 C189 1.348 . S
C186 C190 1.356 . S
C186 O237 1.325 . S
C187 N188 1.279 . S
C187 C190 1.358 . S
C187 H244 0.930 . S
N188 C187 1.279 . S
N188 C191 1.314 . S
C189 C186 1.348 . S
C189 C191 1.353 . S
C189 H245 0.929 . S
C190 C186 1.356 . S
C190 C187 1.358 . S
C190 H246 0.930 . S
C191 N188 1.314 . S
C191 C189 1.353 . S
C191 H247 0.930 . S
C192 N193 1.314 . S
C192 C197 1.353 . S
C192 H198 0.930 . S
N193 Li176 1.990 . S
N193 C192 1.314 . S
N193 C195 1.279 . S
C194 C195 1.358 . S
C194 C196 1.356 . S
C194 H248 0.930 . S
C195 N193 1.279 . S
C195 C194 1.358 . S
C195 H199 0.930 . S
C196 C194 1.356 . S
C196 C197 1.348 . S
C197 C192 1.353 . S
C197 C196 1.348 . S
C197 H249 0.929 . S
H198 C192 0.930 . S
H199 C195 0.930 . S
C200 N201 1.314 . S
C200 C202 1.353 . S
C200 H206 0.930 . S
N201 Li177 1.990 . S
N201 C200 1.314 . S
N201 C204 1.279 . S
C202 C200 1.353 . S
C202 C205 1.348 . S
C202 H250 0.929 . S
C203 C204 1.358 . S
C203 C205 1.356 . S
C203 H251 0.930 . S
C204 N201 1.279 . S
C204 C203 1.358 . S
C204 H207 0.930 . S
C205 C202 1.348 . S
C205 C203 1.356 . S
H206 C200 0.930 . S
H207 C204 0.930 . S
C208 C210 1.348 . S
C208 C211 1.356 . S
C208 O238 1.325 . S
N209 C212 1.314 . S
N209 C213 1.279 . S
C210 C208 1.348 . S
C210 C212 1.353 . S
C210 H252 0.929 . S
C211 C208 1.356 . S
C211 C213 1.358 . S
C211 H253 0.930 . S
C212 N209 1.314 . S
C212 C210 1.353 . S
C212 H254 0.930 . S
C213 N209 1.279 . S
C213 C211 1.358 . S
C213 H255 0.930 . S
C214 C215 1.348 . S
C214 C216 1.356 . S
C214 O239 1.325 . S
C215 C214 1.348 . S
C215 C217 1.353 . S
C215 H256 0.929 . S
C216 C214 1.356 . S
C216 C218 1.358 . S
C216 H257 0.930 . S
C217 C215 1.353 . S
C217 N219 1.314 . S
C217 H258 0.930 . S
C218 C216 1.358 . S
C218 N219 1.279 . S
C218 H259 0.930 . S
N219 C217 1.314 . S
N219 C218 1.279 . S
C220 C222 1.353 . S
C220 N223 1.314 . S
C220 H226 0.930 . S
C221 N223 1.279 . S
C221 C224 1.358 . S
C221 H227 0.930 . S
C222 C220 1.353 . S
C222 C225 1.348 . S
C222 H260 0.929 . S
N223 Li178 1.990 . S
N223 C220 1.314 . S
N223 C221 1.279 . S
C224 C221 1.358 . S
C224 C225 1.356 . S
C224 H261 0.930 . S
C225 C222 1.348 . S
C225 C224 1.356 . S
H226 C220 0.930 . S
H227 C221 0.930 . S
C228 N229 1.314 . S
C228 C230 1.353 . S
C228 H234 0.930 . S
N229 Li179 1.990 . S
N229 C228 1.314 . S
N229 C232 1.279 . S
C230 C228 1.353 . S
C230 C233 1.348 . S
C230 H262 0.929 . S
C231 C232 1.358 . S
C231 C233 1.356 . S
C231 H263 0.930 . S
C232 N229 1.279 . S
C232 C231 1.358 . S
C232 H235 0.930 . S
C233 C230 1.348 . S
C233 C231 1.356 . S
H234 C228 0.930 . S
H235 C232 0.930 . S
O236 Li176 1.956 . S
O236 Li177 1.970 . S
O236 Li178 1.961 . S
O236 C180 1.325 . S
O237 Li176 1.970 . S
O237 Li177 1.956 . S
O237 Li179 1.961 . S
O237 C186 1.325 . S
O238 Li176 1.961 . S
O238 Li178 1.956 . S
O238 Li179 1.970 . S
O238 C208 1.325 . S
O239 Li177 1.961 . S
O239 Li178 1.970 . S
O239 Li179 1.956 . S
O239 C214 1.325 . S
H240 C182 0.929 . S
H241 C183 0.930 . S
H242 C184 0.930 . S
H243 C185 0.930 . S
H244 C187 0.930 . S
H245 C189 0.929 . S
H246 C190 0.930 . S
H247 C191 0.930 . S
H248 C194 0.930 . S
H249 C197 0.929 . S
H250 C202 0.929 . S
H251 C203 0.930 . S
H252 C210 0.929 . S
H253 C211 0.930 . S
H254 C212 0.930 . S
H255 C213 0.930 . S
H256 C215 0.929 . S
H257 C216 0.930 . S
H258 C217 0.930 . S
H259 C218 0.930 . S
H260 C222 0.929 . S
H261 C224 0.930 . S
H262 C230 0.929 . S
H263 C231 0.930 . S
Li264 N281 1.990 . S
Li264 O324 1.956 . S
Li264 O325 1.970 . S
Li264 O326 1.961 . S
Li265 N289 1.990 . S
Li265 O324 1.970 . S
Li265 O325 1.956 . S
Li265 O327 1.961 . S
Li266 N311 1.990 . S
Li266 O324 1.961 . S
Li266 O326 1.956 . S
Li266 O327 1.970 . S
Li267 N317 1.990 . S
Li267 O325 1.961 . S
Li267 O326 1.970 . S
Li267 O327 1.956 . S
C268 C270 1.348 . S
C268 C271 1.356 . S
C268 O324 1.325 . S
N269 C272 1.314 . S
N269 C273 1.279 . S
C270 C268 1.348 . S
C270 C272 1.353 . S
C270 H328 0.929 . S
C271 C268 1.356 . S
C271 C273 1.358 . S
C271 H329 0.930 . S
C272 N269 1.314 . S
C272 C270 1.353 . S
C272 H330 0.930 . S
C273 N269 1.279 . S
C273 C271 1.358 . S
C273 H331 0.930 . S
C274 C277 1.348 . S
C274 C278 1.356 . S
C274 O325 1.325 . S
C275 N276 1.279 . S
C275 C278 1.358 . S
C275 H332 0.930 . S
N276 C275 1.279 . S
N276 C279 1.314 . S
C277 C274 1.348 . S
C277 C279 1.353 . S
C277 H333 0.929 . S
C278 C274 1.356 . S
C278 C275 1.358 . S
C278 H334 0.930 . S
C279 N276 1.314 . S
C279 C277 1.353 . S
C279 H335 0.930 . S
C280 N281 1.314 . S
C280 C285 1.353 . S
C280 H286 0.930 . S
N281 Li264 1.990 . S
N281 C280 1.314 . S
N281 C283 1.279 . S
C282 C283 1.358 . S
C282 C284 1.356 . S
C282 H336 0.930 . S
C283 N281 1.279 . S
C283 C282 1.358 . S
C283 H287 0.930 . S
C284 C282 1.356 . S
C284 C285 1.348 . S
C285 C280 1.353 . S
C285 C284 1.348 . S
C285 H337 0.929 . S
H286 C280 0.930 . S
H287 C283 0.930 . S
C288 N289 1.314 . S
C288 C290 1.353 . S
C288 H294 0.930 . S
N289 Li265 1.990 . S
N289 C288 1.314 . S
N289 C292 1.279 . S
C290 C288 1.353 . S
C290 C293 1.348 . S
C290 H338 0.929 . S
C291 C292 1.358 . S
C291 C293 1.356 . S
C291 H339 0.930 . S
C292 N289 1.279 . S
C292 C291 1.358 . S
C292 H295 0.930 . S
C293 C290 1.348 . S
C293 C291 1.356 . S
H294 C288 0.930 . S
H295 C292 0.930 . S
C296 C298 1.348 . S
C296 C299 1.356 . S
C296 O326 1.325 . S
N297 C300 1.314 . S
N297 C301 1.279 . S
C298 C296 1.348 . S
C298 C300 1.353 . S
C298 H340 0.929 . S
C299 C296 1.356 . S
C299 C301 1.358 . S
C299 H341 0.930 . S
C300 N297 1.314 . S
C300 C298 1.353 . S
C300 H342 0.930 . S
C301 N297 1.279 . S
C301 C299 1.358 . S
C301 H343 0.930 . S
C302 C303 1.348 . S
C302 C304 1.356 . S
C302 O327 1.325 . S
C303 C302 1.348 . S
C303 C305 1.353 . S
C303 H344 0.929 . S
C304 C302 1.356 . S
C304 C306 1.358 . S
C304 H345 0.930 . S
C305 C303 1.353 . S
C305 N307 1.314 . S
C305 H346 0.930 . S
C306 C304 1.358 . S
C306 N307 1.279 . S
C306 H347 0.930 . S
N307 C305 1.314 . S
N307 C306 1.279 . S
C308 C310 1.353 . S
C308 N311 1.314 . S
C308 H314 0.930 . S
C309 N311 1.279 . S
C309 C312 1.358 . S
C309 H315 0.930 . S
C310 C308 1.353 . S
C310 C313 1.348 . S
C310 H348 0.929 . S
N311 Li266 1.990 . S
N311 C308 1.314 . S
N311 C309 1.279 . S
C312 C309 1.358 . S
C312 C313 1.356 . S
C312 H349 0.930 . S
C313 C310 1.348 . S
C313 C312 1.356 . S
H314 C308 0.930 . S
H315 C309 0.930 . S
C316 N317 1.314 . S
C316 C318 1.353 . S
C316 H322 0.930 . S
N317 Li267 1.990 . S
N317 C316 1.314 . S
N317 C320 1.279 . S
C318 C316 1.353 . S
C318 C321 1.348 . S
C318 H350 0.929 . S
C319 C320 1.358 . S
C319 C321 1.356 . S
C319 H351 0.930 . S
C320 N317 1.279 . S
C320 C319 1.358 . S
C320 H323 0.930 . S
C321 C318 1.348 . S
C321 C319 1.356 . S
H322 C316 0.930 . S
H323 C320 0.930 . S
O324 Li264 1.956 . S
O324 Li265 1.970 . S
O324 Li266 1.961 . S
O324 C268 1.325 . S
O325 Li264 1.970 . S
O325 Li265 1.956 . S
O325 Li267 1.961 . S
O325 C274 1.325 . S
O326 Li264 1.961 . S
O326 Li266 1.956 . S
O326 Li267 1.970 . S
O326 C296 1.325 . S
O327 Li265 1.961 . S
O327 Li266 1.970 . S
O327 Li267 1.956 . S
O327 C302 1.325 . S
H328 C270 0.929 . S
H329 C271 0.930 . S
H330 C272 0.930 . S
H331 C273 0.930 . S
H332 C275 0.930 . S
H333 C277 0.929 . S
H334 C278 0.930 . S
H335 C279 0.930 . S
H336 C282 0.930 . S
H337 C285 0.929 . S
H338 C290 0.929 . S
H339 C291 0.930 . S
H340 C298 0.929 . S
H341 C299 0.930 . S
H342 C300 0.930 . S
H343 C301 0.930 . S
H344 C303 0.929 . S
H345 C304 0.930 . S
H346 C305 0.930 . S
H347 C306 0.930 . S
H348 C310 0.929 . S
H349 C312 0.930 . S
H350 C318 0.929 . S
H351 C319 0.930 . S
Li352 N369 1.990 . S
Li352 O412 1.956 . S
Li352 O413 1.970 . S
Li352 O414 1.961 . S
Li353 N377 1.990 . S
Li353 O412 1.970 . S
Li353 O413 1.956 . S
Li353 O415 1.961 . S
Li354 N399 1.990 . S
Li354 O412 1.961 . S
Li354 O414 1.956 . S
Li354 O415 1.970 . S
Li355 N405 1.990 . S
Li355 O413 1.961 . S
Li355 O414 1.970 . S
Li355 O415 1.956 . S
C356 C358 1.348 . S
C356 C359 1.356 . S
C356 O412 1.325 . S
N357 C360 1.314 . S
N357 C361 1.279 . S
C358 C356 1.348 . S
C358 C360 1.353 . S
C358 H416 0.929 . S
C359 C356 1.356 . S
C359 C361 1.358 . S
C359 H417 0.930 . S
C360 N357 1.314 . S
C360 C358 1.353 . S
C360 H418 0.930 . S
C361 N357 1.279 . S
C361 C359 1.358 . S
C361 H419 0.930 . S
C362 C365 1.348 . S
C362 C366 1.356 . S
C362 O413 1.325 . S
C363 N364 1.279 . S
C363 C366 1.358 . S
C363 H420 0.930 . S
N364 C363 1.279 . S
N364 C367 1.314 . S
C365 C362 1.348 . S
C365 C367 1.353 . S
C365 H421 0.929 . S
C366 C362 1.356 . S
C366 C363 1.358 . S
C366 H422 0.930 . S
C367 N364 1.314 . S
C367 C365 1.353 . S
C367 H423 0.930 . S
C368 N369 1.314 . S
C368 C373 1.353 . S
C368 H374 0.930 . S
N369 Li352 1.990 . S
N369 C368 1.314 . S
N369 C371 1.279 . S
C370 C371 1.358 . S
C370 C372 1.356 . S
C370 H424 0.930 . S
C371 N369 1.279 . S
C371 C370 1.358 . S
C371 H375 0.930 . S
C372 C370 1.356 . S
C372 C373 1.348 . S
C373 C368 1.353 . S
C373 C372 1.348 . S
C373 H425 0.929 . S
H374 C368 0.930 . S
H375 C371 0.930 . S
C376 N377 1.314 . S
C376 C378 1.353 . S
C376 H382 0.930 . S
N377 Li353 1.990 . S
N377 C376 1.314 . S
N377 C380 1.279 . S
C378 C376 1.353 . S
C378 C381 1.348 . S
C378 H426 0.929 . S
C379 C380 1.358 . S
C379 C381 1.356 . S
C379 H427 0.930 . S
C380 N377 1.279 . S
C380 C379 1.358 . S
C380 H383 0.930 . S
C381 C378 1.348 . S
C381 C379 1.356 . S
H382 C376 0.930 . S
H383 C380 0.930 . S
C384 C386 1.348 . S
C384 C387 1.356 . S
C384 O414 1.325 . S
N385 C388 1.314 . S
N385 C389 1.279 . S
C386 C384 1.348 . S
C386 C388 1.353 . S
C386 H428 0.929 . S
C387 C384 1.356 . S
C387 C389 1.358 . S
C387 H429 0.930 . S
C388 N385 1.314 . S
C388 C386 1.353 . S
C388 H430 0.930 1_455 S
C389 N385 1.279 . S
C389 C387 1.358 . S
C389 H431 0.930 . S
C390 C391 1.348 . S
C390 C392 1.356 . S
C390 O415 1.325 . S
C391 C390 1.348 . S
C391 C393 1.353 . S
C391 H432 0.929 . S
C392 C390 1.356 . S
C392 C394 1.358 . S
C392 H433 0.930 . S
C393 C391 1.353 . S
C393 N395 1.314 . S
C393 H434 0.930 . S
C394 C392 1.358 . S
C394 N395 1.279 . S
C394 H435 0.930 . S
N395 C393 1.314 . S
N395 C394 1.279 . S
C396 C398 1.353 . S
C396 N399 1.314 . S
C396 H402 0.930 . S
C397 N399 1.279 . S
C397 C400 1.358 . S
C397 H403 0.930 . S
C398 C396 1.353 . S
C398 C401 1.348 . S
C398 H436 0.929 . S
N399 Li354 1.990 . S
N399 C396 1.314 . S
N399 C397 1.279 . S
C400 C397 1.358 . S
C400 C401 1.356 . S
C400 H437 0.930 . S
C401 C398 1.348 . S
C401 C400 1.356 . S
H402 C396 0.930 . S
H403 C397 0.930 . S
C404 N405 1.314 . S
C404 C406 1.353 . S
C404 H410 0.930 . S
N405 Li355 1.990 . S
N405 C404 1.314 . S
N405 C408 1.279 . S
C406 C404 1.353 . S
C406 C409 1.348 . S
C406 H438 0.929 . S
C407 C408 1.358 . S
C407 C409 1.356 . S
C407 H439 0.930 . S
C408 N405 1.279 . S
C408 C407 1.358 . S
C408 H411 0.930 . S
C409 C406 1.348 . S
C409 C407 1.356 . S
H410 C404 0.930 . S
H411 C408 0.930 . S
O412 Li352 1.956 . S
O412 Li353 1.970 . S
O412 Li354 1.961 . S
O412 C356 1.325 . S
O413 Li352 1.970 . S
O413 Li353 1.956 . S
O413 Li355 1.961 . S
O413 C362 1.325 . S
O414 Li352 1.961 . S
O414 Li354 1.956 . S
O414 Li355 1.970 . S
O414 C384 1.325 . S
O415 Li353 1.961 . S
O415 Li354 1.970 . S
O415 Li355 1.956 . S
O415 C390 1.325 . S
H416 C358 0.929 . S
H417 C359 0.930 . S
H418 C360 0.930 . S
H419 C361 0.930 . S
H420 C363 0.930 . S
H421 C365 0.929 . S
H422 C366 0.930 . S
H423 C367 0.930 . S
H424 C370 0.930 . S
H425 C373 0.929 . S
H426 C378 0.929 . S
H427 C379 0.930 . S
H428 C386 0.929 . S
H429 C387 0.930 . S
H430 C388 0.930 1_655 S
H431 C389 0.930 . S
H432 C391 0.929 . S
H433 C392 0.930 . S
H434 C393 0.930 . S
H435 C394 0.930 . S
H436 C398 0.929 . S
H437 C400 0.930 . S
H438 C406 0.929 . S
H439 C407 0.930 . S
Li440 N457 1.990 . S
Li440 O500 1.956 . S
Li440 O501 1.970 . S
Li440 O502 1.961 . S
Li441 N465 1.990 . S
Li441 O500 1.970 . S
Li441 O501 1.956 . S
Li441 O503 1.961 . S
Li442 N487 1.990 . S
Li442 O500 1.961 . S
Li442 O502 1.956 . S
Li442 O503 1.970 . S
Li443 N493 1.990 . S
Li443 O501 1.961 . S
Li443 O502 1.970 . S
Li443 O503 1.956 . S
C444 C446 1.348 . S
C444 C447 1.356 . S
C444 O500 1.325 . S
N445 C448 1.314 . S
N445 C449 1.279 . S
C446 C444 1.348 . S
C446 C448 1.353 . S
C446 H504 0.929 . S
C447 C444 1.356 . S
C447 C449 1.358 . S
C447 H505 0.930 . S
C448 N445 1.314 . S
C448 C446 1.353 . S
C448 H506 0.930 . S
C449 N445 1.279 . S
C449 C447 1.358 . S
C449 H507 0.930 . S
C450 C453 1.348 . S
C450 C454 1.356 . S
C450 O501 1.325 . S
C451 N452 1.279 . S
C451 C454 1.358 . S
C451 H508 0.930 . S
N452 C451 1.279 . S
N452 C455 1.314 . S
C453 C450 1.348 . S
C453 C455 1.353 . S
C453 H509 0.929 . S
C454 C450 1.356 . S
C454 C451 1.358 . S
C454 H510 0.930 . S
C455 N452 1.314 . S
C455 C453 1.353 . S
C455 H511 0.930 . S
C456 N457 1.314 . S
C456 C461 1.353 . S
C456 H462 0.930 . S
N457 Li440 1.990 . S
N457 C456 1.314 . S
N457 C459 1.279 . S
C458 C459 1.358 . S
C458 C460 1.356 . S
C458 H512 0.930 . S
C459 N457 1.279 . S
C459 C458 1.358 . S
C459 H463 0.930 . S
C460 C458 1.356 . S
C460 C461 1.348 . S
C461 C456 1.353 . S
C461 C460 1.348 . S
C461 H513 0.929 . S
H462 C456 0.930 . S
H463 C459 0.930 . S
C464 N465 1.314 . S
C464 C466 1.353 . S
C464 H470 0.930 . S
N465 Li441 1.990 . S
N465 C464 1.314 . S
N465 C468 1.279 . S
C466 C464 1.353 . S
C466 C469 1.348 . S
C466 H514 0.929 . S
C467 C468 1.358 . S
C467 C469 1.356 . S
C467 H515 0.930 . S
C468 N465 1.279 . S
C468 C467 1.358 . S
C468 H471 0.930 . S
C469 C466 1.348 . S
C469 C467 1.356 . S
H470 C464 0.930 . S
H471 C468 0.930 . S
C472 C474 1.348 . S
C472 C475 1.356 . S
C472 O502 1.325 . S
N473 C476 1.314 . S
N473 C477 1.279 . S
C474 C472 1.348 . S
C474 C476 1.353 . S
C474 H516 0.929 . S
C475 C472 1.356 . S
C475 C477 1.358 . S
C475 H517 0.930 . S
C476 N473 1.314 . S
C476 C474 1.353 . S
C476 H518 0.930 . S
C477 N473 1.279 . S
C477 C475 1.358 . S
C477 H519 0.930 . S
C478 C479 1.348 . S
C478 C480 1.356 . S
C478 O503 1.325 . S
C479 C478 1.348 . S
C479 C481 1.353 . S
C479 H520 0.929 . S
C480 C478 1.356 . S
C480 C482 1.358 . S
C480 H521 0.930 . S
C481 C479 1.353 . S
C481 N483 1.314 . S
C481 H522 0.930 . S
C482 C480 1.358 . S
C482 N483 1.279 . S
C482 H523 0.930 . S
N483 C481 1.314 . S
N483 C482 1.279 . S
C484 C486 1.353 . S
C484 N487 1.314 . S
C484 H490 0.930 . S
C485 N487 1.279 . S
C485 C488 1.358 . S
C485 H491 0.930 . S
C486 C484 1.353 . S
C486 C489 1.348 . S
C486 H524 0.929 . S
N487 Li442 1.990 . S
N487 C484 1.314 . S
N487 C485 1.279 . S
C488 C485 1.358 . S
C488 C489 1.356 . S
C488 H525 0.930 . S
C489 C486 1.348 . S
C489 C488 1.356 . S
H490 C484 0.930 . S
H491 C485 0.930 . S
C492 N493 1.314 . S
C492 C494 1.353 . S
C492 H498 0.930 . S
N493 Li443 1.990 . S
N493 C492 1.314 . S
N493 C496 1.279 . S
C494 C492 1.353 . S
C494 C497 1.348 . S
C494 H526 0.929 . S
C495 C496 1.358 . S
C495 C497 1.356 . S
C495 H527 0.930 . S
C496 N493 1.279 . S
C496 C495 1.358 . S
C496 H499 0.930 . S
C497 C494 1.348 . S
C497 C495 1.356 . S
H498 C492 0.930 . S
H499 C496 0.930 . S
O500 Li440 1.956 . S
O500 Li441 1.970 . S
O500 Li442 1.961 . S
O500 C444 1.325 . S
O501 Li440 1.970 . S
O501 Li441 1.956 . S
O501 Li443 1.961 . S
O501 C450 1.325 . S
O502 Li440 1.961 . S
O502 Li442 1.956 . S
O502 Li443 1.970 . S
O502 C472 1.325 . S
O503 Li441 1.961 . S
O503 Li442 1.970 . S
O503 Li443 1.956 . S
O503 C478 1.325 . S
H504 C446 0.929 . S
H505 C447 0.930 . S
H506 C448 0.930 . S
H507 C449 0.930 . S
H508 C451 0.930 . S
H509 C453 0.929 . S
H510 C454 0.930 . S
H511 C455 0.930 . S
H512 C458 0.930 . S
H513 C461 0.929 . S
H514 C466 0.929 . S
H515 C467 0.930 . S
H516 C474 0.929 . S
H517 C475 0.930 . S
H518 C476 0.930 . S
H519 C477 0.930 . S
H520 C479 0.929 . S
H521 C480 0.930 . S
H522 C481 0.930 . S
H523 C482 0.930 . S
H524 C486 0.929 . S
H525 C488 0.930 . S
H526 C494 0.929 . S
H527 C495 0.930 . S
Li528 N545 1.990 . S
Li528 O588 1.956 . S
Li528 O589 1.970 . S
Li528 O590 1.961 . S
Li529 N553 1.990 . S
Li529 O588 1.970 . S
Li529 O589 1.956 . S
Li529 O591 1.961 . S
Li530 N575 1.990 . S
Li530 O588 1.961 . S
Li530 O590 1.956 . S
Li530 O591 1.970 . S
Li531 N581 1.990 . S
Li531 O589 1.961 . S
Li531 O590 1.970 . S
Li531 O591 1.956 . S
C532 C534 1.348 . S
C532 C535 1.356 . S
C532 O588 1.325 . S
N533 C536 1.314 . S
N533 C537 1.279 . S
C534 C532 1.348 . S
C534 C536 1.353 . S
C534 H592 0.929 . S
C535 C532 1.356 . S
C535 C537 1.358 . S
C535 H593 0.930 . S
C536 N533 1.314 . S
C536 C534 1.353 . S
C536 H594 0.930 . S
C537 N533 1.279 . S
C537 C535 1.358 . S
C537 H595 0.930 . S
C538 C541 1.348 . S
C538 C542 1.356 . S
C538 O589 1.325 . S
C539 N540 1.279 . S
C539 C542 1.358 . S
C539 H596 0.930 . S
N540 C539 1.279 . S
N540 C543 1.314 . S
C541 C538 1.348 . S
C541 C543 1.353 . S
C541 H597 0.929 . S
C542 C538 1.356 . S
C542 C539 1.358 . S
C542 H598 0.930 . S
C543 N540 1.314 . S
C543 C541 1.353 . S
C543 H599 0.930 . S
C544 N545 1.314 . S
C544 C549 1.353 . S
C544 H550 0.930 . S
N545 Li528 1.990 . S
N545 C544 1.314 . S
N545 C547 1.279 . S
C546 C547 1.358 . S
C546 C548 1.356 . S
C546 H600 0.930 . S
C547 N545 1.279 . S
C547 C546 1.358 . S
C547 H551 0.930 . S
C548 C546 1.356 . S
C548 C549 1.348 . S
C549 C544 1.353 . S
C549 C548 1.348 . S
C549 H601 0.929 . S
H550 C544 0.930 . S
H551 C547 0.930 . S
C552 N553 1.314 . S
C552 C554 1.353 . S
C552 H558 0.930 . S
N553 Li529 1.990 . S
N553 C552 1.314 . S
N553 C556 1.279 . S
C554 C552 1.353 . S
C554 C557 1.348 . S
C554 H602 0.929 . S
C555 C556 1.358 . S
C555 C557 1.356 . S
C555 H603 0.930 . S
C556 N553 1.279 . S
C556 C555 1.358 . S
C556 H559 0.930 . S
C557 C554 1.348 . S
C557 C555 1.356 . S
H558 C552 0.930 . S
H559 C556 0.930 . S
C560 C562 1.348 . S
C560 C563 1.356 . S
C560 O590 1.325 . S
N561 C564 1.314 . S
N561 C565 1.279 . S
C562 C560 1.348 . S
C562 C564 1.353 . S
C562 H604 0.929 . S
C563 C560 1.356 . S
C563 C565 1.358 . S
C563 H605 0.930 . S
C564 N561 1.314 . S
C564 C562 1.353 . S
C564 H606 0.930 . S
C565 N561 1.279 . S
C565 C563 1.358 . S
C565 H607 0.930 . S
C566 C567 1.348 . S
C566 C568 1.356 . S
C566 O591 1.325 . S
C567 C566 1.348 . S
C567 C569 1.353 . S
C567 H608 0.929 . S
C568 C566 1.356 . S
C568 C570 1.358 . S
C568 H609 0.930 . S
C569 C567 1.353 . S
C569 N571 1.314 . S
C569 H610 0.930 . S
C570 C568 1.358 . S
C570 N571 1.279 . S
C570 H611 0.930 . S
N571 C569 1.314 . S
N571 C570 1.279 . S
C572 C574 1.353 . S
C572 N575 1.314 . S
C572 H578 0.930 . S
C573 N575 1.279 . S
C573 C576 1.358 . S
C573 H579 0.930 . S
C574 C572 1.353 . S
C574 C577 1.348 . S
C574 H612 0.929 . S
N575 Li530 1.990 . S
N575 C572 1.314 . S
N575 C573 1.279 . S
C576 C573 1.358 . S
C576 C577 1.356 . S
C576 H613 0.930 . S
C577 C574 1.348 . S
C577 C576 1.356 . S
H578 C572 0.930 . S
H579 C573 0.930 . S
C580 N581 1.314 . S
C580 C582 1.353 . S
C580 H586 0.930 . S
N581 Li531 1.990 . S
N581 C580 1.314 . S
N581 C584 1.279 . S
C582 C580 1.353 . S
C582 C585 1.348 . S
C582 H614 0.929 . S
C583 C584 1.358 . S
C583 C585 1.356 . S
C583 H615 0.930 . S
C584 N581 1.279 . S
C584 C583 1.358 . S
C584 H587 0.930 . S
C585 C582 1.348 . S
C585 C583 1.356 . S
H586 C580 0.930 . S
H587 C584 0.930 . S
O588 Li528 1.956 . S
O588 Li529 1.970 . S
O588 Li530 1.961 . S
O588 C532 1.325 . S
O589 Li528 1.970 . S
O589 Li529 1.956 . S
O589 Li531 1.961 . S
O589 C538 1.325 . S
O590 Li528 1.961 . S
O590 Li530 1.956 . S
O590 Li531 1.970 . S
O590 C560 1.325 . S
O591 Li529 1.961 . S
O591 Li530 1.970 . S
O591 Li531 1.956 . S
O591 C566 1.325 . S
H592 C534 0.929 . S
H593 C535 0.930 . S
H594 C536 0.930 . S
H595 C537 0.930 . S
H596 C539 0.930 . S
H597 C541 0.929 . S
H598 C542 0.930 . S
H599 C543 0.930 . S
H600 C546 0.930 . S
H601 C549 0.929 . S
H602 C554 0.929 . S
H603 C555 0.930 . S
H604 C562 0.929 . S
H605 C563 0.930 . S
H606 C564 0.930 . S
H607 C565 0.930 . S
H608 C567 0.929 . S
H609 C568 0.930 . S
H610 C569 0.930 . S
H611 C570 0.930 . S
H612 C574 0.929 . S
H613 C576 0.930 . S
H614 C582 0.929 . S
H615 C583 0.930 . S
Li616 N633 1.990 . S
Li616 O676 1.930 1_455 S
Li616 O677 1.970 . S
Li616 O678 1.961 . S
Li617 N641 1.986 . S
Li617 O676 1.966 . S
Li617 O677 1.959 1_655 S
Li617 O679 1.964 1_655 S
Li618 N663 1.990 . S
Li618 O676 1.926 1_455 S
Li618 O678 1.956 . S
Li618 O679 1.970 . S
Li619 N669 1.990 . S
Li619 O677 1.961 . S
Li619 O678 1.970 . S
Li619 O679 1.956 . S
C620 C622 1.348 . S
C620 C623 1.356 . S
C620 O676 1.359 . S
N621 C624 1.269 1_554 S
N621 C625 1.293 . S
C622 C620 1.348 . S
C622 C624 1.353 . S
C622 H680 0.929 . S
C623 C620 1.356 . S
C623 C625 1.358 1_556 S
C623 H681 0.930 1_556 S
C624 N621 1.269 1_556 S
C624 C622 1.353 . S
C624 H682 0.930 . S
C625 N621 1.293 . S
C625 C623 1.358 1_554 S
C625 H683 0.930 . S
C626 C629 1.348 . S
C626 C630 1.356 . S
C626 O677 1.325 . S
C627 N628 1.279 . S
C627 C630 1.358 . S
C627 H684 0.930 . S
N628 C627 1.279 . S
N628 C631 1.314 . S
C629 C626 1.348 . S
C629 C631 1.353 . S
C629 H685 0.929 . S
C630 C626 1.356 . S
C630 C627 1.358 . S
C630 H686 0.930 . S
C631 N628 1.314 . S
C631 C629 1.353 . S
C631 H687 0.930 . S
C632 N633 1.314 . S
C632 C637 1.353 1_556 S
C632 H638 0.930 . S
N633 Li616 1.990 . S
N633 C632 1.314 . S
N633 C635 1.279 . S
C634 C635 1.358 1_554 S
C634 C636 1.356 . S
C634 H688 0.930 . S
C635 N633 1.279 . S
C635 C634 1.358 1_556 S
C635 H639 0.933 . S
C636 C634 1.356 . S
C636 C637 1.348 . S
C637 C632 1.353 1_554 S
C637 C636 1.348 . S
C637 H689 0.929 . S
H638 C632 0.930 . S
H639 C635 0.933 . S
C640 N641 1.314 . S
C640 C642 1.353 . S
C640 H646 0.930 . S
N641 Li617 1.986 . S
N641 C640 1.314 . S
N641 C644 1.279 . S
C642 C640 1.353 . S
C642 C645 1.348 . S
C642 H690 0.929 . S
C643 C644 1.358 . S
C643 C645 1.356 . S
C643 H691 0.930 . S
C644 N641 1.279 . S
C644 C643 1.358 . S
C644 H647 0.930 . S
C645 C642 1.348 . S
C645 C643 1.356 . S
H646 C640 0.930 . S
H647 C644 0.930 . S
C648 C650 1.348 . S
C648 C651 1.393 . S
C648 O678 1.325 . S
N649 C652 1.314 1_554 S
N649 C653 1.279 . S
C650 C648 1.348 . S
C650 C652 1.353 . S
C650 H692 0.929 . S
C651 C648 1.393 . S
C651 C653 1.338 1_556 S
C651 H693 0.914 1_556 S
C652 N649 1.314 1_556 S
C652 C650 1.353 . S
C652 H694 0.930 . S
C653 N649 1.279 . S
C653 C651 1.338 1_554 S
C653 H695 0.930 . S
C654 C655 1.348 . S
C654 C656 1.356 . S
C654 O679 1.325 . S
C655 C654 1.348 . S
C655 C657 1.353 . S
C655 H696 0.929 . S
C656 C654 1.356 . S
C656 C658 1.358 . S
C656 H697 0.930 . S
C657 C655 1.353 . S
C657 N659 1.314 . S
C657 H698 0.930 . S
C658 C656 1.358 . S
C658 N659 1.279 . S
C658 H699 0.930 . S
N659 C657 1.314 . S
N659 C658 1.279 . S
C660 C662 1.354 1_455 S
C660 N663 1.346 . S
C660 H666 0.893 1_455 S
C661 N663 1.279 . S
C661 C664 1.360 1_556 S
C661 H667 0.930 . S
C662 C660 1.354 1_655 S
C662 C665 1.344 1_656 S
C662 H700 0.929 . S
N663 Li618 1.990 . S
N663 C660 1.346 . S
N663 C661 1.279 . S
C664 C661 1.360 1_554 S
C664 C665 1.354 . S
C664 H701 0.928 . S
C665 C662 1.344 1_454 S
C665 C664 1.354 . S
H666 C660 0.893 1_655 S
H667 C661 0.930 . S
C668 N669 1.314 . S
C668 C670 1.353 . S
C668 H674 0.930 . S
N669 Li619 1.990 . S
N669 C668 1.314 . S
N669 C672 1.279 . S
C670 C668 1.353 . S
C670 C673 1.348 . S
C670 H702 0.929 . S
C671 C672 1.358 . S
C671 C673 1.356 . S
C671 H703 0.930 . S
C672 N669 1.279 . S
C672 C671 1.358 . S
C672 H675 0.930 . S
C673 C670 1.348 . S
C673 C671 1.356 . S
H674 C668 0.930 . S
H675 C672 0.930 . S
O676 Li616 1.930 1_655 S
O676 Li617 1.966 . S
O676 Li618 1.926 1_655 S
O676 C620 1.359 . S
O677 Li616 1.970 . S
O677 Li617 1.959 1_455 S
O677 Li619 1.961 . S
O677 C626 1.325 . S
O678 Li616 1.961 . S
O678 Li618 1.956 . S
O678 Li619 1.970 . S
O678 C648 1.325 . S
O679 Li617 1.964 1_455 S
O679 Li618 1.970 . S
O679 Li619 1.956 . S
O679 C654 1.325 . S
H680 C622 0.929 . S
H681 C623 0.930 1_554 S
H682 C624 0.930 . S
H683 C625 0.930 . S
H684 C627 0.930 . S
H685 C629 0.929 . S
H686 C630 0.930 . S
H687 C631 0.930 . S
H688 C634 0.930 . S
H689 C637 0.929 . S
H690 C642 0.929 . S
H691 C643 0.930 . S
H692 C650 0.929 . S
H693 C651 0.914 1_554 S
H694 C652 0.930 . S
H695 C653 0.930 . S
H696 C655 0.929 . S
H697 C656 0.930 . S
H698 C657 0.930 . S
H699 C658 0.930 . S
H700 C662 0.929 . S
H701 C664 0.928 . S
H702 C670 0.929 . S
H703 C671 0.930 . S
Li704 N721 1.990 . S
Li704 O764 1.956 1_545 S
Li704 O765 1.970 . S
Li704 O766 1.961 . S
Li705 N729 1.990 . S
Li705 O764 1.970 . S
Li705 O765 1.956 1_565 S
Li705 O767 1.961 1_565 S
Li706 N751 1.990 . S
Li706 O764 1.961 1_545 S
Li706 O766 1.956 . S
Li706 O767 1.970 . S
Li707 N757 1.990 . S
Li707 O765 1.961 . S
Li707 O766 1.970 . S
Li707 O767 1.956 . S
C708 C710 1.348 . S
C708 C711 1.356 . S
C708 O764 1.325 . S
N709 C712 1.314 . S
N709 C713 1.279 . S
C710 C708 1.348 . S
C710 C712 1.353 . S
C710 H768 0.929 . S
C711 C708 1.356 . S
C711 C713 1.358 . S
C711 H769 0.930 . S
C712 N709 1.314 . S
C712 C710 1.353 . S
C712 H770 0.930 . S
C713 N709 1.279 . S
C713 C711 1.358 . S
C713 H771 0.930 . S
C714 C717 1.348 . S
C714 C718 1.356 . S
C714 O765 1.325 . S
C715 N716 1.279 . S
C715 C718 1.358 . S
C715 H772 0.930 . S
N716 C715 1.279 . S
N716 C719 1.314 . S
C717 C714 1.348 . S
C717 C719 1.353 . S
C717 H773 0.929 . S
C718 C714 1.356 . S
C718 C715 1.358 . S
C718 H774 0.930 . S
C719 N716 1.314 . S
C719 C717 1.353 . S
C719 H775 0.930 . S
C720 N721 1.314 . S
C720 C725 1.353 . S
C720 H726 0.930 . S
N721 Li704 1.990 . S
N721 C720 1.314 . S
N721 C723 1.279 . S
C722 C723 1.358 . S
C722 C724 1.356 . S
C722 H776 0.930 . S
C723 N721 1.279 . S
C723 C722 1.358 . S
C723 H727 0.930 1_545 S
C724 C722 1.356 . S
C724 C725 1.348 . S
C725 C720 1.353 . S
C725 C724 1.348 . S
C725 H777 0.929 . S
H726 C720 0.930 . S
H727 C723 0.930 1_565 S
C728 N729 1.314 . S
C728 C730 1.353 . S
C728 H734 0.930 . S
N729 Li705 1.990 . S
N729 C728 1.314 . S
N729 C732 1.279 . S
C730 C728 1.353 . S
C730 C733 1.348 . S
C730 H778 0.929 . S
C731 C732 1.358 . S
C731 C733 1.356 . S
C731 H779 0.930 . S
C732 N729 1.279 . S
C732 C731 1.358 . S
C732 H735 0.930 . S
C733 C730 1.348 . S
C733 C731 1.356 . S
H734 C728 0.930 . S
H735 C732 0.930 . S
C736 C738 1.348 . S
C736 C739 1.356 . S
C736 O766 1.325 . S
N737 C740 1.314 . S
N737 C741 1.279 . S
C738 C736 1.348 . S
C738 C740 1.353 . S
C738 H780 0.929 . S
C739 C736 1.356 . S
C739 C741 1.358 . S
C739 H781 0.930 . S
C740 N737 1.314 . S
C740 C738 1.353 . S
C740 H782 0.930 . S
C741 N737 1.279 . S
C741 C739 1.358 . S
C741 H783 0.930 . S
C742 C743 1.348 . S
C742 C744 1.356 1_545 S
C742 O767 1.325 . S
C743 C742 1.348 . S
C743 C745 1.353 . S
C743 H784 0.929 . S
C744 C742 1.356 1_565 S
C744 C746 1.357 . S
C744 H785 0.931 . S
C745 C743 1.353 . S
C745 N747 1.316 . S
C745 H786 0.930 . S
C746 C744 1.357 . S
C746 N747 1.275 1_565 S
C746 H787 0.930 . S
N747 C745 1.316 . S
N747 C746 1.275 1_545 S
C748 C750 1.353 . S
C748 N751 1.314 1_565 S
C748 H754 0.930 . S
C749 N751 1.279 . S
C749 C752 1.358 . S
C749 H755 0.930 . S
C750 C748 1.353 . S
C750 C753 1.348 1_565 S
C750 H788 0.929 . S
N751 Li706 1.990 . S
N751 C748 1.314 1_545 S
N751 C749 1.279 . S
C752 C749 1.358 . S
C752 C753 1.356 . S
C752 H789 0.930 . S
C753 C750 1.348 1_545 S
C753 C752 1.356 . S
H754 C748 0.930 . S
H755 C749 0.930 . S
C756 N757 1.314 . S
C756 C758 1.353 . S
C756 H762 0.930 . S
N757 Li707 1.990 . S
N757 C756 1.314 . S
N757 C760 1.279 . S
C758 C756 1.353 . S
C758 C761 1.348 . S
C758 H790 0.929 . S
C759 C760 1.358 . S
C759 C761 1.356 . S
C759 H791 0.930 . S
C760 N757 1.279 . S
C760 C759 1.358 . S
C760 H763 0.930 . S
C761 C758 1.348 . S
C761 C759 1.356 . S
H762 C756 0.930 . S
H763 C760 0.930 . S
O764 Li704 1.956 1_565 S
O764 Li705 1.970 . S
O764 Li706 1.961 1_565 S
O764 C708 1.325 . S
O765 Li704 1.970 . S
O765 Li705 1.956 1_545 S
O765 Li707 1.961 . S
O765 C714 1.325 . S
O766 Li704 1.961 . S
O766 Li706 1.956 . S
O766 Li707 1.970 . S
O766 C736 1.325 . S
O767 Li705 1.961 1_545 S
O767 Li706 1.970 . S
O767 Li707 1.956 . S
O767 C742 1.325 . S
H768 C710 0.929 . S
H769 C711 0.930 . S
H770 C712 0.930 . S
H771 C713 0.930 . S
H772 C715 0.930 . S
H773 C717 0.929 . S
H774 C718 0.930 . S
H775 C719 0.930 . S
H776 C722 0.930 . S
H777 C725 0.929 . S
H778 C730 0.929 . S
H779 C731 0.930 . S
H780 C738 0.929 . S
H781 C739 0.930 . S
H782 C740 0.930 . S
H783 C741 0.930 . S
H784 C743 0.929 . S
H785 C744 0.931 . S
H786 C745 0.930 . S
H787 C746 0.930 . S
H788 C750 0.929 . S
H789 C752 0.930 . S
H790 C758 0.929 . S
H791 C759 0.930 . S
Li792 N809 1.990 . S
Li792 O852 1.956 . S
Li792 O853 1.970 . S
Li792 O854 1.961 . S
Li793 N817 1.990 . S
Li793 O852 1.970 . S
Li793 O853 1.956 . S
Li793 O855 1.961 . S
Li794 N839 1.990 . S
Li794 O852 1.961 . S
Li794 O854 1.956 . S
Li794 O855 1.970 . S
Li795 N845 1.990 . S
Li795 O853 1.961 . S
Li795 O854 1.970 . S
Li795 O855 1.956 . S
C796 C798 1.348 . S
C796 C799 1.356 . S
C796 O852 1.325 . S
N797 C800 1.314 . S
N797 C801 1.279 . S
C798 C796 1.348 . S
C798 C800 1.353 . S
C798 H856 0.929 . S
C799 C796 1.356 . S
C799 C801 1.358 . S
C799 H857 0.930 . S
C800 N797 1.314 . S
C800 C798 1.353 . S
C800 H858 0.930 . S
C801 N797 1.279 . S
C801 C799 1.358 . S
C801 H859 0.930 . S
C802 C805 1.348 . S
C802 C806 1.356 . S
C802 O853 1.325 . S
C803 N804 1.279 . S
C803 C806 1.358 . S
C803 H860 0.930 . S
N804 C803 1.279 . S
N804 C807 1.314 . S
C805 C802 1.348 . S
C805 C807 1.353 . S
C805 H861 0.929 . S
C806 C802 1.356 . S
C806 C803 1.358 . S
C806 H862 0.930 . S
C807 N804 1.314 . S
C807 C805 1.353 . S
C807 H863 0.930 . S
C808 N809 1.314 . S
C808 C813 1.353 . S
C808 H814 0.930 . S
N809 Li792 1.990 . S
N809 C808 1.314 . S
N809 C811 1.279 . S
C810 C811 1.358 . S
C810 C812 1.356 . S
C810 H864 0.930 . S
C811 N809 1.279 . S
C811 C810 1.358 . S
C811 H815 0.930 . S
C812 C810 1.356 . S
C812 C813 1.348 . S
C813 C808 1.353 . S
C813 C812 1.348 . S
C813 H865 0.929 . S
H814 C808 0.930 . S
H815 C811 0.930 . S
C816 N817 1.314 . S
C816 C818 1.353 . S
C816 H822 0.930 . S
N817 Li793 1.990 . S
N817 C816 1.314 . S
N817 C820 1.279 . S
C818 C816 1.353 . S
C818 C821 1.348 . S
C818 H866 0.929 . S
C819 C820 1.358 . S
C819 C821 1.356 . S
C819 H867 0.930 . S
C820 N817 1.279 . S
C820 C819 1.358 . S
C820 H823 0.930 . S
C821 C818 1.348 . S
C821 C819 1.356 . S
H822 C816 0.930 . S
H823 C820 0.930 . S
C824 C826 1.348 . S
C824 C827 1.356 . S
C824 O854 1.325 . S
N825 C828 1.314 . S
N825 C829 1.279 . S
C826 C824 1.348 . S
C826 C828 1.353 . S
C826 H868 0.929 . S
C827 C824 1.356 . S
C827 C829 1.358 . S
C827 H869 0.930 . S
C828 N825 1.314 . S
C828 C826 1.353 . S
C828 H870 0.930 . S
C829 N825 1.279 . S
C829 C827 1.358 . S
C829 H871 0.930 . S
C830 C831 1.348 . S
C830 C832 1.356 . S
C830 O855 1.325 . S
C831 C830 1.348 . S
C831 C833 1.353 . S
C831 H872 0.929 . S
C832 C830 1.356 . S
C832 C834 1.358 . S
C832 H873 0.930 . S
C833 C831 1.353 . S
C833 N835 1.314 . S
C833 H874 0.930 . S
C834 C832 1.358 . S
C834 N835 1.279 . S
C834 H875 0.930 . S
N835 C833 1.314 . S
N835 C834 1.279 . S
C836 C838 1.353 . S
C836 N839 1.314 . S
C836 H842 0.930 . S
C837 N839 1.279 . S
C837 C840 1.358 . S
C837 H843 0.930 . S
C838 C836 1.353 . S
C838 C841 1.348 . S
C838 H876 0.929 . S
N839 Li794 1.990 . S
N839 C836 1.314 . S
N839 C837 1.279 . S
C840 C837 1.358 . S
C840 C841 1.356 . S
C840 H877 0.930 . S
C841 C838 1.348 . S
C841 C840 1.356 . S
H842 C836 0.930 . S
H843 C837 0.930 . S
C844 N845 1.314 . S
C844 C846 1.353 . S
C844 H850 0.930 . S
N845 Li795 1.990 . S
N845 C844 1.314 . S
N845 C848 1.279 . S
C846 C844 1.353 . S
C846 C849 1.348 . S
C846 H878 0.929 . S
C847 C848 1.358 . S
C847 C849 1.356 . S
C847 H879 0.930 . S
C848 N845 1.279 . S
C848 C847 1.358 . S
C848 H851 0.930 . S
C849 C846 1.348 . S
C849 C847 1.356 . S
H850 C844 0.930 . S
H851 C848 0.930 . S
O852 Li792 1.956 . S
O852 Li793 1.970 . S
O852 Li794 1.961 . S
O852 C796 1.325 . S
O853 Li792 1.970 . S
O853 Li793 1.956 . S
O853 Li795 1.961 . S
O853 C802 1.325 . S
O854 Li792 1.961 . S
O854 Li794 1.956 . S
O854 Li795 1.970 . S
O854 C824 1.325 . S
O855 Li793 1.961 . S
O855 Li794 1.970 . S
O855 Li795 1.956 . S
O855 C830 1.325 . S
H856 C798 0.929 . S
H857 C799 0.930 . S
H858 C800 0.930 . S
H859 C801 0.930 . S
H860 C803 0.930 . S
H861 C805 0.929 . S
H862 C806 0.930 . S
H863 C807 0.930 . S
H864 C810 0.930 . S
H865 C813 0.929 . S
H866 C818 0.929 . S
H867 C819 0.930 . S
H868 C826 0.929 . S
H869 C827 0.930 . S
H870 C828 0.930 . S
H871 C829 0.930 . S
H872 C831 0.929 . S
H873 C832 0.930 . S
H874 C833 0.930 . S
H875 C834 0.930 . S
H876 C838 0.929 . S
H877 C840 0.930 . S
H878 C846 0.929 . S
H879 C847 0.930 . S
Li880 N897 1.990 . S
Li880 O940 1.956 . S
Li880 O941 1.970 . S
Li880 O942 1.977 . S
Li881 N905 1.990 . S
Li881 O940 1.966 . S
Li881 O941 1.982 . S
Li881 O943 1.938 1_545 S
Li882 N927 1.990 . S
Li882 O940 1.961 1_565 S
Li882 O942 1.935 1_565 S
Li882 O943 1.970 . S
Li883 N933 1.990 . S
Li883 O941 1.961 1_565 S
Li883 O942 1.972 1_565 S
Li883 O943 1.956 . S
C884 C886 1.348 . S
C884 C887 1.356 . S
C884 O940 1.325 . S
N885 C888 1.314 . S
N885 C889 1.279 . S
C886 C884 1.348 . S
C886 C888 1.353 . S
C886 H944 0.929 . S
C887 C884 1.356 . S
C887 C889 1.358 . S
C887 H945 0.930 . S
C888 N885 1.314 . S
C888 C886 1.353 . S
C888 H946 0.930 . S
C889 N885 1.279 . S
C889 C887 1.358 . S
C889 H947 0.930 . S
C890 C893 1.348 . S
C890 C894 1.356 . S
C890 O941 1.325 . S
C891 N892 1.279 . S
C891 C894 1.358 . S
C891 H948 0.930 . S
N892 C891 1.279 . S
N892 C895 1.314 . S
C893 C890 1.348 . S
C893 C895 1.353 . S
C893 H949 0.929 . S
C894 C890 1.356 . S
C894 C891 1.358 . S
C894 H950 0.930 . S
C895 N892 1.314 . S
C895 C893 1.353 . S
C895 H951 0.930 . S
C896 N897 1.314 . S
C896 C901 1.353 . S
C896 H902 0.930 . S
N897 Li880 1.990 . S
N897 C896 1.314 . S
N897 C899 1.279 . S
C898 C899 1.358 . S
C898 C900 1.356 . S
C898 H952 0.930 . S
C899 N897 1.279 . S
C899 C898 1.358 . S
C899 H903 0.930 . S
C900 C898 1.356 . S
C900 C901 1.348 . S
C901 C896 1.353 . S
C901 C900 1.348 . S
C901 H953 0.929 . S
H902 C896 0.930 . S
H903 C899 0.930 . S
C904 N905 1.281 1_565 S
C904 C906 1.353 . S
C904 H910 0.930 . S
N905 Li881 1.990 . S
N905 C904 1.281 1_545 S
N905 C908 1.311 . S
C906 C904 1.353 . S
C906 C909 1.334 1_565 S
C906 H954 0.929 . S
C907 C908 1.358 . S
C907 C909 1.371 . S
C907 H955 0.930 . S
C908 N905 1.311 . S
C908 C907 1.358 . S
C908 H911 0.930 . S
C909 C906 1.334 1_545 S
C909 C907 1.371 . S
H910 C904 0.930 . S
H911 C908 0.930 . S
C912 C914 1.348 1_545 S
C912 C915 1.356 . S
C912 O942 1.325 . S
N913 C916 1.314 . S
N913 C917 1.279 1_565 S
C914 C912 1.348 1_565 S
C914 C916 1.353 . S
C914 H956 0.929 . S
C915 C912 1.356 . S
C915 C917 1.358 . S
C915 H957 0.930 . S
C916 N913 1.314 . S
C916 C914 1.353 . S
C916 H958 0.930 . S
C917 N913 1.279 1_545 S
C917 C915 1.358 . S
C917 H959 0.930 . S
C918 C919 1.348 . S
C918 C920 1.356 . S
C918 O943 1.325 . S
C919 C918 1.348 . S
C919 C921 1.353 . S
C919 H960 0.929 . S
C920 C918 1.356 . S
C920 C922 1.358 . S
C920 H961 0.930 . S
C921 C919 1.353 . S
C921 N923 1.314 . S
C921 H962 0.930 . S
C922 C920 1.358 . S
C922 N923 1.279 . S
C922 H963 0.930 . S
N923 C921 1.314 . S
N923 C922 1.279 . S
C924 C926 1.353 . S
C924 N927 1.314 . S
C924 H930 0.930 . S
C925 N927 1.279 . S
C925 C928 1.358 . S
C925 H931 0.930 . S
C926 C924 1.353 . S
C926 C929 1.348 . S
C926 H964 0.929 . S
N927 Li882 1.990 . S
N927 C924 1.314 . S
N927 C925 1.279 . S
C928 C925 1.358 . S
C928 C929 1.356 . S
C928 H965 0.930 . S
C929 C926 1.348 . S
C929 C928 1.356 . S
H930 C924 0.930 . S
H931 C925 0.930 . S
C932 N933 1.314 1_545 S
C932 C934 1.353 . S
C932 H938 0.930 . S
N933 Li883 1.990 . S
N933 C932 1.314 1_565 S
N933 C936 1.279 . S
C934 C932 1.353 . S
C934 C937 1.348 1_545 S
C934 H966 0.929 . S
C935 C936 1.358 . S
C935 C937 1.356 . S
C935 H967 0.930 . S
C936 N933 1.279 . S
C936 C935 1.358 . S
C936 H939 0.930 . S
C937 C934 1.348 1_565 S
C937 C935 1.356 . S
H938 C932 0.930 . S
H939 C936 0.930 . S
O940 Li880 1.956 . S
O940 Li881 1.966 . S
O940 Li882 1.961 1_545 S
O940 C884 1.325 . S
O941 Li880 1.970 . S
O941 Li881 1.982 . S
O941 Li883 1.961 1_545 S
O941 C890 1.325 . S
O942 Li880 1.977 . S
O942 Li882 1.935 1_545 S
O942 Li883 1.972 1_545 S
O942 C912 1.325 . S
O943 Li881 1.938 1_565 S
O943 Li882 1.970 . S
O943 Li883 1.956 . S
O943 C918 1.325 . S
H944 C886 0.929 . S
H945 C887 0.930 . S
H946 C888 0.930 . S
H947 C889 0.930 . S
H948 C891 0.930 . S
H949 C893 0.929 . S
H950 C894 0.930 . S
H951 C895 0.930 . S
H952 C898 0.930 . S
H953 C901 0.929 . S
H954 C906 0.929 . S
H955 C907 0.930 . S
H956 C914 0.929 . S
H957 C915 0.930 . S
H958 C916 0.930 . S
H959 C917 0.930 . S
H960 C919 0.929 . S
H961 C920 0.930 . S
H962 C921 0.930 . S
H963 C922 0.930 . S
H964 C926 0.929 . S
H965 C928 0.930 . S
H966 C934 0.929 . S
H967 C935 0.930 . S
Li968 N985 1.990 . S
Li968 O1028 1.956 . S
Li968 O1029 1.970 . S
Li968 O1030 1.961 1_554 S
Li969 N993 1.990 . S
Li969 O1028 1.970 . S
Li969 O1029 1.956 . S
Li969 O1031 1.961 . S
Li970 N1015 1.990 . S
Li970 O1028 1.961 . S
Li970 O1030 1.956 1_554 S
Li970 O1031 1.970 . S
Li971 N1021 1.990 . S
Li971 O1029 1.961 1_556 S
Li971 O1030 1.970 . S
Li971 O1031 1.956 1_556 S
C972 C974 1.348 . S
C972 C975 1.356 . S
C972 O1028 1.325 . S
N973 C976 1.314 1_545 S
N973 C977 1.279 . S
C974 C972 1.348 . S
C974 C976 1.353 . S
C974 H1032 0.929 . S
C975 C972 1.356 . S
C975 C977 1.358 1_565 S
C975 H1033 0.930 1_565 S
C976 N973 1.314 1_565 S
C976 C974 1.353 . S
C976 H1034 0.930 . S
C977 N973 1.279 . S
C977 C975 1.358 1_545 S
C977 H1035 0.930 . S
C978 C981 1.348 . S
C978 C982 1.356 1_554 S
C978 O1029 1.325 . S
C979 N980 1.279 . S
C979 C982 1.358 . S
C979 H1036 0.930 . S
N980 C979 1.279 . S
N980 C983 1.314 1_556 S
C981 C978 1.348 . S
C981 C983 1.353 . S
C981 H1037 0.929 . S
C982 C978 1.356 1_556 S
C982 C979 1.358 . S
C982 H1038 0.930 . S
C983 N980 1.314 1_554 S
C983 C981 1.353 . S
C983 H1039 0.930 . S
C984 N985 1.314 1_556 S
C984 C989 1.353 . S
C984 H990 0.930 . S
N985 Li968 1.990 . S
N985 C984 1.314 1_554 S
N985 C987 1.279 . S
C986 C987 1.358 . S
C986 C988 1.356 . S
C986 H1040 0.930 1_565 S
C987 N985 1.279 . S
C987 C986 1.358 . S
C987 H991 0.930 . S
C988 C986 1.356 . S
C988 C989 1.348 1_554 S
C989 C984 1.353 . S
C989 C988 1.348 1_556 S
C989 H1041 0.929 . S
H990 C984 0.930 . S
H991 C987 0.930 . S
C992 N993 1.314 . S
C992 C994 1.353 . S
C992 H998 0.930 . S
N993 Li969 1.990 . S
N993 C992 1.314 . S
N993 C996 1.279 . S
C994 C992 1.353 . S
C994 C997 1.348 . S
C994 H1042 0.929 . S
C995 C996 1.358 . S
C995 C997 1.356 . S
C995 H1043 0.930 . S
C996 N993 1.279 . S
C996 C995 1.358 . S
C996 H999 0.930 . S
C997 C994 1.348 . S
C997 C995 1.356 . S
H998 C992 0.930 . S
H999 C996 0.930 . S
C1000 C1002 1.348 . S
C1000 C1003 1.356 . S
C1000 O1030 1.325 . S
N1001 C1004 1.314 . S
N1001 C1005 1.278 1_565 S
C1002 C1000 1.348 . S
C1002 C1004 1.353 . S
C1002 H1044 0.929 . S
C1003 C1000 1.356 . S
C1003 C1005 1.353 1_565 S
C1003 H1045 0.930 . S
C1004 N1001 1.314 . S
C1004 C1002 1.353 . S
C1004 H1046 0.930 . S
C1005 N1001 1.278 1_545 S
C1005 C1003 1.353 1_545 S
C1005 H1047 0.939 . S
C1006 C1007 1.356 . S
C1006 C1008 1.356 . S
C1006 O1031 1.325 . S
C1007 C1006 1.356 . S
C1007 C1009 1.356 1_554 S
C1007 H1048 0.921 1_554 S
C1008 C1006 1.356 . S
C1008 C1010 1.358 . S
C1008 H1049 0.930 . S
C1009 C1007 1.356 1_556 S
C1009 N1011 1.290 1_556 S
C1009 H1050 0.943 . S
C1010 C1008 1.358 . S
C1010 N1011 1.294 . S
C1010 H1051 0.930 . S
N1011 C1009 1.290 1_554 S
N1011 C1010 1.294 . S
C1012 C1014 1.335 1_565 S
C1012 N1015 1.314 . S
C1012 H1018 0.930 . S
C1013 N1015 1.279 1_556 S
C1013 C1016 1.363 1_566 S
C1013 H1019 0.930 . S
C1014 C1012 1.335 1_545 S
C1014 C1017 1.371 . S
C1014 H1052 0.927 . S
N1015 Li970 1.990 . S
N1015 C1012 1.314 . S
N1015 C1013 1.279 1_554 S
C1016 C1013 1.363 1_544 S
C1016 C1017 1.392 . S
C1016 H1053 0.889 1_554 S
C1017 C1014 1.371 . S
C1017 C1016 1.392 . S
H1018 C1012 0.930 . S
H1019 C1013 0.930 . S
C1020 N1021 1.314 . S
C1020 C1022 1.353 . S
C1020 H1026 0.930 . S
N1021 Li971 1.990 . S
N1021 C1020 1.314 . S
N1021 C1024 1.279 . S
C1022 C1020 1.353 . S
C1022 C1025 1.348 . S
C1022 H1054 0.929 . S
C1023 C1024 1.358 . S
C1023 C1025 1.356 . S
C1023 H1055 0.930 . S
C1024 N1021 1.279 . S
C1024 C1023 1.358 . S
C1024 H1027 0.930 . S
C1025 C1022 1.348 . S
C1025 C1023 1.356 . S
H1026 C1020 0.930 . S
H1027 C1024 0.930 . S
O1028 Li968 1.956 . S
O1028 Li969 1.970 . S
O1028 Li970 1.961 . S
O1028 C972 1.325 . S
O1029 Li968 1.970 . S
O1029 Li969 1.956 . S
O1029 Li971 1.961 1_554 S
O1029 C978 1.325 . S
O1030 Li968 1.961 1_556 S
O1030 Li970 1.956 1_556 S
O1030 Li971 1.970 . S
O1030 C1000 1.325 . S
O1031 Li969 1.961 . S
O1031 Li970 1.970 . S
O1031 Li971 1.956 1_554 S
O1031 C1006 1.325 . S
H1032 C974 0.929 . S
H1033 C975 0.930 1_545 S
H1034 C976 0.930 . S
H1035 C977 0.930 . S
H1036 C979 0.930 . S
H1037 C981 0.929 . S
H1038 C982 0.930 . S
H1039 C983 0.930 . S
H1040 C986 0.930 1_545 S
H1041 C989 0.929 . S
H1042 C994 0.929 . S
H1043 C995 0.930 . S
H1044 C1002 0.929 . S
H1045 C1003 0.930 . S
H1046 C1004 0.930 . S
H1047 C1005 0.939 . S
H1048 C1007 0.921 1_556 S
H1049 C1008 0.930 . S
H1050 C1009 0.943 . S
H1051 C1010 0.930 . S
H1052 C1014 0.927 . S
H1053 C1016 0.889 1_556 S
H1054 C1022 0.929 . S
H1055 C1023 0.930 . S
Li1056 N1073 1.990 . S
Li1056 O1116 1.956 . S
Li1056 O1117 1.970 . S
Li1056 O1118 1.961 . S
Li1057 N1081 1.990 . S
Li1057 O1116 1.970 . S
Li1057 O1117 1.956 . S
Li1057 O1119 1.961 . S
Li1058 N1103 1.990 . S
Li1058 O1116 1.961 . S
Li1058 O1118 1.956 . S
Li1058 O1119 1.970 . S
Li1059 N1109 1.990 1_554 S
Li1059 O1117 1.961 . S
Li1059 O1118 1.970 . S
Li1059 O1119 1.956 . S
C1060 C1062 1.348 . S
C1060 C1063 1.356 . S
C1060 O1116 1.325 . S
N1061 C1064 1.314 . S
N1061 C1065 1.279 . S
C1062 C1060 1.348 . S
C1062 C1064 1.353 . S
C1062 H1120 0.929 . S
C1063 C1060 1.356 . S
C1063 C1065 1.358 . S
C1063 H1121 0.930 . S
C1064 N1061 1.314 . S
C1064 C1062 1.353 . S
C1064 H1122 0.930 . S
C1065 N1061 1.279 . S
C1065 C1063 1.358 . S
C1065 H1123 0.930 . S
C1066 C1069 1.348 . S
C1066 C1070 1.356 . S
C1066 O1117 1.325 . S
C1067 N1068 1.279 . S
C1067 C1070 1.358 . S
C1067 H1124 0.930 . S
N1068 C1067 1.279 . S
N1068 C1071 1.314 . S
C1069 C1066 1.348 . S
C1069 C1071 1.353 . S
C1069 H1125 0.929 . S
C1070 C1066 1.356 . S
C1070 C1067 1.358 . S
C1070 H1126 0.930 . S
C1071 N1068 1.314 . S
C1071 C1069 1.353 . S
C1071 H1127 0.930 . S
C1072 N1073 1.314 . S
C1072 C1077 1.353 . S
C1072 H1078 0.930 . S
N1073 Li1056 1.990 . S
N1073 C1072 1.314 . S
N1073 C1075 1.279 . S
C1074 C1075 1.358 . S
C1074 C1076 1.356 . S
C1074 H1128 0.930 . S
C1075 N1073 1.279 . S
C1075 C1074 1.358 . S
C1075 H1079 0.930 . S
C1076 C1074 1.356 . S
C1076 C1077 1.348 . S
C1077 C1072 1.353 . S
C1077 C1076 1.348 . S
C1077 H1129 0.929 . S
H1078 C1072 0.930 . S
H1079 C1075 0.930 . S
C1080 N1081 1.314 . S
C1080 C1082 1.353 . S
C1080 H1086 0.930 . S
N1081 Li1057 1.990 . S
N1081 C1080 1.314 . S
N1081 C1084 1.279 . S
C1082 C1080 1.353 . S
C1082 C1085 1.348 . S
C1082 H1130 0.929 . S
C1083 C1084 1.358 . S
C1083 C1085 1.356 . S
C1083 H1131 0.930 . S
C1084 N1081 1.279 . S
C1084 C1083 1.358 . S
C1084 H1087 0.930 . S
C1085 C1082 1.348 . S
C1085 C1083 1.356 . S
H1086 C1080 0.930 . S
H1087 C1084 0.930 . S
C1088 C1090 1.348 . S
C1088 C1091 1.356 . S
C1088 O1118 1.325 1_556 S
N1089 C1092 1.314 . S
N1089 C1093 1.279 . S
C1090 C1088 1.348 . S
C1090 C1092 1.353 . S
C1090 H1132 0.929 . S
C1091 C1088 1.356 . S
C1091 C1093 1.392 . S
C1091 H1133 0.897 1_556 S
C1092 N1089 1.314 . S
C1092 C1090 1.353 . S
C1092 H1134 0.930 . S
C1093 N1089 1.279 . S
C1093 C1091 1.392 . S
C1093 H1135 0.930 . S
C1094 C1095 1.348 . S
C1094 C1096 1.356 . S
C1094 O1119 1.325 . S
C1095 C1094 1.348 . S
C1095 C1097 1.353 . S
C1095 H1136 0.929 . S
C1096 C1094 1.356 . S
C1096 C1098 1.358 . S
C1096 H1137 0.930 . S
C1097 C1095 1.353 . S
C1097 N1099 1.314 . S
C1097 H1138 0.930 . S
C1098 C1096 1.358 . S
C1098 N1099 1.279 . S
C1098 H1139 0.930 . S
N1099 C1097 1.314 . S
N1099 C1098 1.279 . S
C1100 C1102 1.353 . S
C1100 N1103 1.314 . S
C1100 H1106 0.930 . S
C1101 N1103 1.279 . S
C1101 C1104 1.358 . S
C1101 H1107 0.930 . S
C1102 C1100 1.353 . S
C1102 C1105 1.348 . S
C1102 H1140 0.929 . S
N1103 Li1058 1.990 . S
N1103 C1100 1.314 . S
N1103 C1101 1.279 . S
C1104 C1101 1.358 . S
C1104 C1105 1.356 . S
C1104 H1141 0.930 . S
C1105 C1102 1.348 . S
C1105 C1104 1.356 . S
H1106 C1100 0.930 . S
H1107 C1101 0.930 . S
C1108 N1109 1.314 . S
C1108 C1110 1.353 . S
C1108 H1114 0.930 . S
N1109 Li1059 1.990 1_556 S
N1109 C1108 1.314 . S
N1109 C1112 1.279 . S
C1110 C1108 1.353 . S
C1110 C1113 1.348 . S
C1110 H1142 0.929 . S
C1111 C1112 1.358 . S
C1111 C1113 1.356 . S
C1111 H1143 0.930 . S
C1112 N1109 1.279 . S
C1112 C1111 1.358 . S
C1112 H1115 0.930 . S
C1113 C1110 1.348 . S
C1113 C1111 1.356 . S
H1114 C1108 0.930 . S
H1115 C1112 0.930 . S
O1116 Li1056 1.956 . S
O1116 Li1057 1.970 . S
O1116 Li1058 1.961 . S
O1116 C1060 1.325 . S
O1117 Li1056 1.970 . S
O1117 Li1057 1.956 . S
O1117 Li1059 1.961 . S
O1117 C1066 1.325 . S
O1118 Li1056 1.961 . S
O1118 Li1058 1.956 . S
O1118 Li1059 1.970 . S
O1118 C1088 1.325 1_554 S
O1119 Li1057 1.961 . S
O1119 Li1058 1.970 . S
O1119 Li1059 1.956 . S
O1119 C1094 1.325 . S
H1120 C1062 0.929 . S
H1121 C1063 0.930 . S
H1122 C1064 0.930 . S
H1123 C1065 0.930 . S
H1124 C1067 0.930 . S
H1125 C1069 0.929 . S
H1126 C1070 0.930 . S
H1127 C1071 0.930 . S
H1128 C1074 0.930 . S
H1129 C1077 0.929 . S
H1130 C1082 0.929 . S
H1131 C1083 0.930 . S
H1132 C1090 0.929 . S
H1133 C1091 0.897 1_554 S
H1134 C1092 0.930 . S
H1135 C1093 0.930 . S
H1136 C1095 0.929 . S
H1137 C1096 0.930 . S
H1138 C1097 0.930 . S
H1139 C1098 0.930 . S
H1140 C1102 0.929 . S
H1141 C1104 0.930 . S
H1142 C1110 0.929 . S
H1143 C1111 0.930 . S
Li1144 N1161 1.990 . S
Li1144 O1204 1.956 . S
Li1144 O1205 1.970 . S
Li1144 O1206 1.961 . S
Li1145 N1169 1.990 . S
Li1145 O1204 1.970 . S
Li1145 O1205 1.956 . S
Li1145 O1207 1.961 1_554 S
Li1146 N1191 1.990 1_554 S
Li1146 O1204 1.961 . S
Li1146 O1206 1.956 . S
Li1146 O1207 1.970 1_554 S
Li1147 N1197 1.990 . S
Li1147 O1205 1.961 . S
Li1147 O1206 1.970 . S
Li1147 O1207 1.956 1_554 S
C1148 C1150 1.348 . S
C1148 C1151 1.356 . S
C1148 O1204 1.325 . S
N1149 C1152 1.314 . S
N1149 C1153 1.279 . S
C1150 C1148 1.348 . S
C1150 C1152 1.353 . S
C1150 H1208 0.929 . S
C1151 C1148 1.356 . S
C1151 C1153 1.358 . S
C1151 H1209 0.930 . S
C1152 N1149 1.314 . S
C1152 C1150 1.353 . S
C1152 H1210 0.930 . S
C1153 N1149 1.279 . S
C1153 C1151 1.358 . S
C1153 H1211 0.930 . S
C1154 C1157 1.348 . S
C1154 C1158 1.356 . S
C1154 O1205 1.325 . S
C1155 N1156 1.279 . S
C1155 C1158 1.358 . S
C1155 H1212 0.930 . S
N1156 C1155 1.279 . S
N1156 C1159 1.314 . S
C1157 C1154 1.348 . S
C1157 C1159 1.353 . S
C1157 H1213 0.929 . S
C1158 C1154 1.356 . S
C1158 C1155 1.358 . S
C1158 H1214 0.930 . S
C1159 N1156 1.314 . S
C1159 C1157 1.353 . S
C1159 H1215 0.930 . S
C1160 N1161 1.314 . S
C1160 C1165 1.353 . S
C1160 H1166 0.930 . S
N1161 Li1144 1.990 . S
N1161 C1160 1.314 . S
N1161 C1163 1.279 . S
C1162 C1163 1.358 . S
C1162 C1164 1.356 . S
C1162 H1216 0.930 . S
C1163 N1161 1.279 . S
C1163 C1162 1.358 . S
C1163 H1167 0.930 . S
C1164 C1162 1.356 . S
C1164 C1165 1.348 . S
C1165 C1160 1.353 . S
C1165 C1164 1.348 . S
C1165 H1217 0.929 . S
H1166 C1160 0.930 . S
H1167 C1163 0.930 . S
C1168 N1169 1.314 . S
C1168 C1170 1.353 . S
C1168 H1174 0.930 1_554 S
N1169 Li1145 1.990 . S
N1169 C1168 1.314 . S
N1169 C1172 1.279 . S
C1170 C1168 1.353 . S
C1170 C1173 1.348 . S
C1170 H1218 0.929 1_554 S
C1171 C1172 1.358 . S
C1171 C1173 1.356 . S
C1171 H1219 0.930 . S
C1172 N1169 1.279 . S
C1172 C1171 1.358 . S
C1172 H1175 0.930 . S
C1173 C1170 1.348 . S
C1173 C1171 1.356 . S
H1174 C1168 0.930 1_556 S
H1175 C1172 0.930 . S
C1176 C1178 1.348 . S
C1176 C1179 1.356 . S
C1176 O1206 1.325 . S
N1177 C1180 1.314 . S
N1177 C1181 1.279 . S
C1178 C1176 1.348 . S
C1178 C1180 1.353 . S
C1178 H1220 0.929 . S
C1179 C1176 1.356 . S
C1179 C1181 1.358 . S
C1179 H1221 0.930 . S
C1180 N1177 1.314 . S
C1180 C1178 1.353 . S
C1180 H1222 0.930 . S
C1181 N1177 1.279 . S
C1181 C1179 1.358 . S
C1181 H1223 0.930 . S
C1182 C1183 1.348 . S
C1182 C1184 1.356 . S
C1182 O1207 1.325 . S
C1183 C1182 1.348 . S
C1183 C1185 1.353 . S
C1183 H1224 0.929 . S
C1184 C1182 1.356 . S
C1184 C1186 1.358 . S
C1184 H1225 0.930 . S
C1185 C1183 1.353 . S
C1185 N1187 1.314 . S
C1185 H1226 0.930 . S
C1186 C1184 1.358 . S
C1186 N1187 1.279 . S
C1186 H1227 0.930 . S
N1187 C1185 1.314 . S
N1187 C1186 1.279 . S
C1188 C1190 1.353 . S
C1188 N1191 1.314 . S
C1188 H1194 0.930 . S
C1189 N1191 1.279 . S
C1189 C1192 1.358 . S
C1189 H1195 0.930 . S
C1190 C1188 1.353 . S
C1190 C1193 1.348 . S
C1190 H1228 0.929 . S
N1191 Li1146 1.990 1_556 S
N1191 C1188 1.314 . S
N1191 C1189 1.279 . S
C1192 C1189 1.358 . S
C1192 C1193 1.356 . S
C1192 H1229 0.930 . S
C1193 C1190 1.348 . S
C1193 C1192 1.356 . S
H1194 C1188 0.930 . S
H1195 C1189 0.930 . S
C1196 N1197 1.314 . S
C1196 C1198 1.353 . S
C1196 H1202 0.930 . S
N1197 Li1147 1.990 . S
N1197 C1196 1.314 . S
N1197 C1200 1.279 1_554 S
C1198 C1196 1.353 . S
C1198 C1201 1.348 . S
C1198 H1230 0.929 . S
C1199 C1200 1.358 . S
C1199 C1201 1.356 1_556 S
C1199 H1231 0.930 . S
C1200 N1197 1.279 1_556 S
C1200 C1199 1.358 . S
C1200 H1203 0.930 . S
C1201 C1198 1.348 . S
C1201 C1199 1.356 1_554 S
H1202 C1196 0.930 . S
H1203 C1200 0.930 . S
O1204 Li1144 1.956 . S
O1204 Li1145 1.970 . S
O1204 Li1146 1.961 . S
O1204 C1148 1.325 . S
O1205 Li1144 1.970 . S
O1205 Li1145 1.956 . S
O1205 Li1147 1.961 . S
O1205 C1154 1.325 . S
O1206 Li1144 1.961 . S
O1206 Li1146 1.956 . S
O1206 Li1147 1.970 . S
O1206 C1176 1.325 . S
O1207 Li1145 1.961 1_556 S
O1207 Li1146 1.970 1_556 S
O1207 Li1147 1.956 1_556 S
O1207 C1182 1.325 . S
H1208 C1150 0.929 . S
H1209 C1151 0.930 . S
H1210 C1152 0.930 . S
H1211 C1153 0.930 . S
H1212 C1155 0.930 . S
H1213 C1157 0.929 . S
H1214 C1158 0.930 . S
H1215 C1159 0.930 . S
H1216 C1162 0.930 . S
H1217 C1165 0.929 . S
H1218 C1170 0.929 1_556 S
H1219 C1171 0.930 . S
H1220 C1178 0.929 . S
H1221 C1179 0.930 . S
H1222 C1180 0.930 . S
H1223 C1181 0.930 . S
H1224 C1183 0.929 . S
H1225 C1184 0.930 . S
H1226 C1185 0.930 . S
H1227 C1186 0.930 . S
H1228 C1190 0.929 . S
H1229 C1192 0.930 . S
H1230 C1198 0.929 . S
H1231 C1199 0.930 . S
Li1232 N1249 1.990 . S
Li1232 O1292 1.956 . S
Li1232 O1293 1.970 . S
Li1232 O1294 1.961 . S
Li1233 N1257 1.990 . S
Li1233 O1292 1.970 . S
Li1233 O1293 1.956 . S
Li1233 O1295 1.961 . S
Li1234 N1279 1.990 . S
Li1234 O1292 1.961 . S
Li1234 O1294 1.956 . S
Li1234 O1295 1.970 . S
Li1235 N1285 1.990 . S
Li1235 O1293 1.961 . S
Li1235 O1294 1.970 . S
Li1235 O1295 1.956 . S
C1236 C1238 1.348 . S
C1236 C1239 1.356 . S
C1236 O1292 1.325 . S
N1237 C1240 1.314 . S
N1237 C1241 1.279 . S
C1238 C1236 1.348 . S
C1238 C1240 1.353 . S
C1238 H1296 0.929 . S
C1239 C1236 1.356 . S
C1239 C1241 1.358 . S
C1239 H1297 0.930 . S
C1240 N1237 1.314 . S
C1240 C1238 1.353 . S
C1240 H1298 0.930 . S
C1241 N1237 1.279 . S
C1241 C1239 1.358 . S
C1241 H1299 0.930 . S
C1242 C1245 1.348 . S
C1242 C1246 1.356 . S
C1242 O1293 1.325 . S
C1243 N1244 1.279 . S
C1243 C1246 1.358 . S
C1243 H1300 0.930 . S
N1244 C1243 1.279 . S
N1244 C1247 1.314 . S
C1245 C1242 1.348 . S
C1245 C1247 1.353 . S
C1245 H1301 0.929 . S
C1246 C1242 1.356 . S
C1246 C1243 1.358 . S
C1246 H1302 0.930 . S
C1247 N1244 1.314 . S
C1247 C1245 1.353 . S
C1247 H1303 0.930 . S
C1248 N1249 1.314 . S
C1248 C1253 1.353 . S
C1248 H1254 0.930 . S
N1249 Li1232 1.990 . S
N1249 C1248 1.314 . S
N1249 C1251 1.279 . S
C1250 C1251 1.358 . S
C1250 C1252 1.356 . S
C1250 H1304 0.930 . S
C1251 N1249 1.279 . S
C1251 C1250 1.358 . S
C1251 H1255 0.930 . S
C1252 C1250 1.356 . S
C1252 C1253 1.348 . S
C1253 C1248 1.353 . S
C1253 C1252 1.348 . S
C1253 H1305 0.929 . S
H1254 C1248 0.930 . S
H1255 C1251 0.930 . S
C1256 N1257 1.314 . S
C1256 C1258 1.353 . S
C1256 H1262 0.930 . S
N1257 Li1233 1.990 . S
N1257 C1256 1.314 . S
N1257 C1260 1.279 . S
C1258 C1256 1.353 . S
C1258 C1261 1.348 . S
C1258 H1306 0.929 . S
C1259 C1260 1.358 . S
C1259 C1261 1.356 . S
C1259 H1307 0.930 . S
C1260 N1257 1.279 . S
C1260 C1259 1.358 . S
C1260 H1263 0.930 . S
C1261 C1258 1.348 . S
C1261 C1259 1.356 . S
H1262 C1256 0.930 . S
H1263 C1260 0.930 . S
C1264 C1266 1.348 . S
C1264 C1267 1.356 . S
C1264 O1294 1.325 . S
N1265 C1268 1.314 . S
N1265 C1269 1.279 . S
C1266 C1264 1.348 . S
C1266 C1268 1.353 . S
C1266 H1308 0.929 . S
C1267 C1264 1.356 . S
C1267 C1269 1.358 . S
C1267 H1309 0.930 . S
C1268 N1265 1.314 . S
C1268 C1266 1.353 . S
C1268 H1310 0.930 . S
C1269 N1265 1.279 . S
C1269 C1267 1.358 . S
C1269 H1311 0.930 . S
C1270 C1271 1.348 . S
C1270 C1272 1.356 . S
C1270 O1295 1.325 . S
C1271 C1270 1.348 . S
C1271 C1273 1.353 . S
C1271 H1312 0.929 . S
C1272 C1270 1.356 . S
C1272 C1274 1.358 . S
C1272 H1313 0.930 . S
C1273 C1271 1.353 . S
C1273 N1275 1.314 . S
C1273 H1314 0.930 . S
C1274 C1272 1.358 . S
C1274 N1275 1.279 . S
C1274 H1315 0.930 . S
N1275 C1273 1.314 . S
N1275 C1274 1.279 . S
C1276 C1278 1.353 . S
C1276 N1279 1.314 . S
C1276 H1282 0.930 . S
C1277 N1279 1.279 . S
C1277 C1280 1.358 . S
C1277 H1283 0.930 . S
C1278 C1276 1.353 . S
C1278 C1281 1.348 . S
C1278 H1316 0.929 . S
N1279 Li1234 1.990 . S
N1279 C1276 1.314 . S
N1279 C1277 1.279 . S
C1280 C1277 1.358 . S
C1280 C1281 1.356 . S
C1280 H1317 0.930 . S
C1281 C1278 1.348 . S
C1281 C1280 1.356 . S
H1282 C1276 0.930 . S
H1283 C1277 0.930 . S
C1284 N1285 1.314 . S
C1284 C1286 1.353 . S
C1284 H1290 0.930 . S
N1285 Li1235 1.990 . S
N1285 C1284 1.314 . S
N1285 C1288 1.279 . S
C1286 C1284 1.353 . S
C1286 C1289 1.348 . S
C1286 H1318 0.929 . S
C1287 C1288 1.358 . S
C1287 C1289 1.356 . S
C1287 H1319 0.930 . S
C1288 N1285 1.279 . S
C1288 C1287 1.358 . S
C1288 H1291 0.930 . S
C1289 C1286 1.348 . S
C1289 C1287 1.356 . S
H1290 C1284 0.930 . S
H1291 C1288 0.930 . S
O1292 Li1232 1.956 . S
O1292 Li1233 1.970 . S
O1292 Li1234 1.961 . S
O1292 C1236 1.325 . S
O1293 Li1232 1.970 . S
O1293 Li1233 1.956 . S
O1293 Li1235 1.961 . S
O1293 C1242 1.325 . S
O1294 Li1232 1.961 . S
O1294 Li1234 1.956 . S
O1294 Li1235 1.970 . S
O1294 C1264 1.325 . S
O1295 Li1233 1.961 . S
O1295 Li1234 1.970 . S
O1295 Li1235 1.956 . S
O1295 C1270 1.325 . S
H1296 C1238 0.929 . S
H1297 C1239 0.930 . S
H1298 C1240 0.930 . S
H1299 C1241 0.930 . S
H1300 C1243 0.930 . S
H1301 C1245 0.929 . S
H1302 C1246 0.930 . S
H1303 C1247 0.930 . S
H1304 C1250 0.930 . S
H1305 C1253 0.929 . S
H1306 C1258 0.929 . S
H1307 C1259 0.930 . S
H1308 C1266 0.929 . S
H1309 C1267 0.930 . S
H1310 C1268 0.930 . S
H1311 C1269 0.930 . S
H1312 C1271 0.929 . S
H1313 C1272 0.930 . S
H1314 C1273 0.930 . S
H1315 C1274 0.930 . S
H1316 C1278 0.929 . S
H1317 C1280 0.930 . S
H1318 C1286 0.929 . S
H1319 C1287 0.930 . S
Li1320 N1337 1.990 . S
Li1320 O1380 1.956 . S
Li1320 O1381 1.970 . S
Li1320 O1382 1.961 . S
Li1321 N1345 1.990 . S
Li1321 O1380 1.970 . S
Li1321 O1381 1.956 . S
Li1321 O1383 1.961 . S
Li1322 N1367 1.990 . S
Li1322 O1380 1.961 . S
Li1322 O1382 1.956 . S
Li1322 O1383 1.970 . S
Li1323 N1373 1.990 . S
Li1323 O1381 1.961 . S
Li1323 O1382 1.970 . S
Li1323 O1383 1.956 . S
C1324 C1326 1.348 . S
C1324 C1327 1.356 . S
C1324 O1380 1.325 . S
N1325 C1328 1.314 . S
N1325 C1329 1.279 . S
C1326 C1324 1.348 . S
C1326 C1328 1.353 . S
C1326 H1384 0.929 . S
C1327 C1324 1.356 . S
C1327 C1329 1.358 . S
C1327 H1385 0.930 . S
C1328 N1325 1.314 . S
C1328 C1326 1.353 . S
C1328 H1386 0.930 . S
C1329 N1325 1.279 . S
C1329 C1327 1.358 . S
C1329 H1387 0.930 . S
C1330 C1333 1.348 . S
C1330 C1334 1.356 . S
C1330 O1381 1.325 . S
C1331 N1332 1.279 . S
C1331 C1334 1.358 . S
C1331 H1388 0.930 . S
N1332 C1331 1.279 . S
N1332 C1335 1.314 . S
C1333 C1330 1.348 . S
C1333 C1335 1.353 . S
C1333 H1389 0.929 . S
C1334 C1330 1.356 . S
C1334 C1331 1.358 . S
C1334 H1390 0.930 . S
C1335 N1332 1.314 . S
C1335 C1333 1.353 . S
C1335 H1391 0.930 . S
C1336 N1337 1.314 . S
C1336 C1341 1.353 . S
C1336 H1342 0.930 . S
N1337 Li1320 1.990 . S
N1337 C1336 1.314 . S
N1337 C1339 1.279 . S
C1338 C1339 1.358 . S
C1338 C1340 1.356 . S
C1338 H1392 0.930 . S
C1339 N1337 1.279 . S
C1339 C1338 1.358 . S
C1339 H1343 0.930 . S
C1340 C1338 1.356 . S
C1340 C1341 1.348 . S
C1341 C1336 1.353 . S
C1341 C1340 1.348 . S
C1341 H1393 0.929 . S
H1342 C1336 0.930 . S
H1343 C1339 0.930 . S
C1344 N1345 1.314 . S
C1344 C1346 1.353 . S
C1344 H1350 0.930 . S
N1345 Li1321 1.990 . S
N1345 C1344 1.314 . S
N1345 C1348 1.279 . S
C1346 C1344 1.353 . S
C1346 C1349 1.348 . S
C1346 H1394 0.929 . S
C1347 C1348 1.358 . S
C1347 C1349 1.356 . S
C1347 H1395 0.930 . S
C1348 N1345 1.279 . S
C1348 C1347 1.358 . S
C1348 H1351 0.930 . S
C1349 C1346 1.348 . S
C1349 C1347 1.356 . S
H1350 C1344 0.930 . S
H1351 C1348 0.930 . S
C1352 C1354 1.348 . S
C1352 C1355 1.356 . S
C1352 O1382 1.325 . S
N1353 C1356 1.314 . S
N1353 C1357 1.279 . S
C1354 C1352 1.348 . S
C1354 C1356 1.353 . S
C1354 H1396 0.929 . S
C1355 C1352 1.356 . S
C1355 C1357 1.358 . S
C1355 H1397 0.930 . S
C1356 N1353 1.314 . S
C1356 C1354 1.353 . S
C1356 H1398 0.930 . S
C1357 N1353 1.279 . S
C1357 C1355 1.358 . S
C1357 H1399 0.930 . S
C1358 C1359 1.348 . S
C1358 C1360 1.356 . S
C1358 O1383 1.325 . S
C1359 C1358 1.348 . S
C1359 C1361 1.353 . S
C1359 H1400 0.929 . S
C1360 C1358 1.356 . S
C1360 C1362 1.358 . S
C1360 H1401 0.930 . S
C1361 C1359 1.353 . S
C1361 N1363 1.314 . S
C1361 H1402 0.930 . S
C1362 C1360 1.358 . S
C1362 N1363 1.279 . S
C1362 H1403 0.930 . S
N1363 C1361 1.314 . S
N1363 C1362 1.279 . S
C1364 C1366 1.353 . S
C1364 N1367 1.314 . S
C1364 H1370 0.930 . S
C1365 N1367 1.279 . S
C1365 C1368 1.358 . S
C1365 H1371 0.930 . S
C1366 C1364 1.353 . S
C1366 C1369 1.348 . S
C1366 H1404 0.929 . S
N1367 Li1322 1.990 . S
N1367 C1364 1.314 . S
N1367 C1365 1.279 . S
C1368 C1365 1.358 . S
C1368 C1369 1.356 . S
C1368 H1405 0.930 . S
C1369 C1366 1.348 . S
C1369 C1368 1.356 . S
H1370 C1364 0.930 . S
H1371 C1365 0.930 . S
C1372 N1373 1.314 . S
C1372 C1374 1.353 . S
C1372 H1378 0.930 . S
N1373 Li1323 1.990 . S
N1373 C1372 1.314 . S
N1373 C1376 1.279 . S
C1374 C1372 1.353 . S
C1374 C1377 1.348 . S
C1374 H1406 0.929 . S
C1375 C1376 1.358 . S
C1375 C1377 1.356 . S
C1375 H1407 0.930 . S
C1376 N1373 1.279 . S
C1376 C1375 1.358 . S
C1376 H1379 0.930 . S
C1377 C1374 1.348 . S
C1377 C1375 1.356 . S
H1378 C1372 0.930 . S
H1379 C1376 0.930 . S
O1380 Li1320 1.956 . S
O1380 Li1321 1.970 . S
O1380 Li1322 1.961 . S
O1380 C1324 1.325 . S
O1381 Li1320 1.970 . S
O1381 Li1321 1.956 . S
O1381 Li1323 1.961 . S
O1381 C1330 1.325 . S
O1382 Li1320 1.961 . S
O1382 Li1322 1.956 . S
O1382 Li1323 1.970 . S
O1382 C1352 1.325 . S
O1383 Li1321 1.961 . S
O1383 Li1322 1.970 . S
O1383 Li1323 1.956 . S
O1383 C1358 1.325 . S
H1384 C1326 0.929 . S
H1385 C1327 0.930 . S
H1386 C1328 0.930 . S
H1387 C1329 0.930 . S
H1388 C1331 0.930 . S
H1389 C1333 0.929 . S
H1390 C1334 0.930 . S
H1391 C1335 0.930 . S
H1392 C1338 0.930 . S
H1393 C1341 0.929 . S
H1394 C1346 0.929 . S
H1395 C1347 0.930 . S
H1396 C1354 0.929 . S
H1397 C1355 0.930 . S
H1398 C1356 0.930 . S
H1399 C1357 0.930 . S
H1400 C1359 0.929 . S
H1401 C1360 0.930 . S
H1402 C1361 0.930 . S
H1403 C1362 0.930 . S
H1404 C1366 0.929 . S
H1405 C1368 0.930 . S
H1406 C1374 0.929 . S
H1407 C1375 0.930 . S
Li1408 N1425 1.990 . S
Li1408 O1468 1.956 . S
Li1408 O1469 1.970 . S
Li1408 O1470 1.961 . S
Li1409 N1433 1.990 . S
Li1409 O1468 1.970 . S
Li1409 O1469 1.956 . S
Li1409 O1471 1.961 . S
Li1410 N1455 1.990 . S
Li1410 O1468 1.961 . S
Li1410 O1470 1.956 . S
Li1410 O1471 1.970 . S
Li1411 N1461 1.990 . S
Li1411 O1469 1.961 . S
Li1411 O1470 1.970 . S
Li1411 O1471 1.956 . S
C1412 C1414 1.348 . S
C1412 C1415 1.356 . S
C1412 O1468 1.325 . S
N1413 C1416 1.304 1_455 S
N1413 C1417 1.281 1_565 S
C1414 C1412 1.348 . S
C1414 C1416 1.353 1_545 S
C1414 H1472 0.929 . S
C1415 C1412 1.356 . S
C1415 C1417 1.358 1_655 S
C1415 H1473 0.930 1_655 S
C1416 N1413 1.304 1_655 S
C1416 C1414 1.353 1_565 S
C1416 H1474 0.930 . S
C1417 N1413 1.281 1_545 S
C1417 C1415 1.358 1_455 S
C1417 H1475 0.930 . S
C1418 C1421 1.348 . S
C1418 C1422 1.356 . S
C1418 O1469 1.325 . S
C1419 N1420 1.279 . S
C1419 C1422 1.358 . S
C1419 H1476 0.930 . S
N1420 C1419 1.279 . S
N1420 C1423 1.314 . S
C1421 C1418 1.348 . S
C1421 C1423 1.353 . S
C1421 H1477 0.929 . S
C1422 C1418 1.356 . S
C1422 C1419 1.358 . S
C1422 H1478 0.930 . S
C1423 N1420 1.314 . S
C1423 C1421 1.353 . S
C1423 H1479 0.930 . S
C1424 N1425 1.314 . S
C1424 C1429 1.353 1_655 S
C1424 H1430 0.930 . S
N1425 Li1408 1.990 . S
N1425 C1424 1.314 . S
N1425 C1427 1.279 . S
C1426 C1427 1.358 1_455 S
C1426 C1428 1.356 . S
C1426 H1480 0.930 . S
C1427 N1425 1.279 . S
C1427 C1426 1.358 1_655 S
C1427 H1431 0.930 . S
C1428 C1426 1.356 . S
C1428 C1429 1.348 . S
C1429 C1424 1.353 1_455 S
C1429 C1428 1.348 . S
C1429 H1481 0.929 . S
H1430 C1424 0.930 . S
H1431 C1427 0.930 . S
C1432 N1433 1.314 1_565 S
C1432 C1434 1.353 . S
C1432 H1438 0.934 . S
N1433 Li1409 1.990 . S
N1433 C1432 1.314 1_545 S
N1433 C1436 1.279 . S
C1434 C1432 1.353 . S
C1434 C1437 1.348 . S
C1434 H1482 0.929 . S
C1435 C1436 1.358 1_565 S
C1435 C1437 1.356 . S
C1435 H1483 0.930 . S
C1436 N1433 1.279 . S
C1436 C1435 1.358 1_545 S
C1436 H1439 0.930 . S
C1437 C1434 1.348 . S
C1437 C1435 1.356 . S
H1438 C1432 0.934 . S
H1439 C1436 0.930 . S
C1440 C1442 1.348 . S
C1440 C1443 1.356 1_655 S
C1440 O1470 1.325 . S
N1441 C1444 1.314 1_455 S
N1441 C1445 1.279 . S
C1442 C1440 1.348 . S
C1442 C1444 1.353 . S
C1442 H1484 0.929 . S
C1443 C1440 1.356 1_455 S
C1443 C1445 1.358 . S
C1443 H1485 0.930 . S
C1444 N1441 1.314 1_655 S
C1444 C1442 1.353 . S
C1444 H1486 0.930 . S
C1445 N1441 1.279 . S
C1445 C1443 1.358 . S
C1445 H1487 0.930 . S
C1446 C1447 1.348 . S
C1446 C1448 1.356 . S
C1446 O1471 1.325 . S
C1447 C1446 1.348 . S
C1447 C1449 1.353 . S
C1447 H1488 0.929 . S
C1448 C1446 1.356 . S
C1448 C1450 1.358 . S
C1448 H1489 0.930 . S
C1449 C1447 1.353 . S
C1449 N1451 1.314 . S
C1449 H1490 0.930 . S
C1450 C1448 1.358 . S
C1450 N1451 1.279 . S
C1450 H1491 0.930 . S
N1451 C1449 1.314 . S
N1451 C1450 1.279 . S
C1452 C1454 1.353 . S
C1452 N1455 1.314 . S
C1452 H1458 0.930 . S
C1453 N1455 1.279 . S
C1453 C1456 1.358 1_655 S
C1453 H1459 0.930 . S
C1454 C1452 1.353 . S
C1454 C1457 1.348 1_655 S
C1454 H1492 0.929 . S
N1455 Li1410 1.990 . S
N1455 C1452 1.314 . S
N1455 C1453 1.279 . S
C1456 C1453 1.358 1_455 S
C1456 C1457 1.356 . S
C1456 H1493 0.930 . S
C1457 C1454 1.348 1_455 S
C1457 C1456 1.356 . S
H1458 C1452 0.930 . S
H1459 C1453 0.930 . S
C1460 N1461 1.314 . S
C1460 C1462 1.353 . S
C1460 H1466 0.930 . S
N1461 Li1411 1.990 . S
N1461 C1460 1.314 . S
N1461 C1464 1.279 . S
C1462 C1460 1.353 . S
C1462 C1465 1.348 . S
C1462 H1494 0.929 . S
C1463 C1464 1.358 . S
C1463 C1465 1.356 . S
C1463 H1495 0.930 . S
C1464 N1461 1.279 . S
C1464 C1463 1.358 . S
C1464 H1467 0.930 . S
C1465 C1462 1.348 . S
C1465 C1463 1.356 . S
H1466 C1460 0.930 . S
H1467 C1464 0.930 . S
O1468 Li1408 1.956 . S
O1468 Li1409 1.970 . S
O1468 Li1410 1.961 . S
O1468 C1412 1.325 . S
O1469 Li1408 1.970 . S
O1469 Li1409 1.956 . S
O1469 Li1411 1.961 . S
O1469 C1418 1.325 . S
O1470 Li1408 1.961 . S
O1470 Li1410 1.956 . S
O1470 Li1411 1.970 . S
O1470 C1440 1.325 . S
O1471 Li1409 1.961 . S
O1471 Li1410 1.970 . S
O1471 Li1411 1.956 . S
O1471 C1446 1.325 . S
H1472 C1414 0.929 . S
H1473 C1415 0.930 1_455 S
H1474 C1416 0.930 . S
H1475 C1417 0.930 . S
H1476 C1419 0.930 . S
H1477 C1421 0.929 . S
H1478 C1422 0.930 . S
H1479 C1423 0.930 . S
H1480 C1426 0.930 . S
H1481 C1429 0.929 . S
H1482 C1434 0.929 . S
H1483 C1435 0.930 . S
H1484 C1442 0.929 . S
H1485 C1443 0.930 . S
H1486 C1444 0.930 . S
H1487 C1445 0.930 . S
H1488 C1447 0.929 . S
H1489 C1448 0.930 . S
H1490 C1449 0.930 . S
H1491 C1450 0.930 . S
H1492 C1454 0.929 . S
H1493 C1456 0.930 . S
H1494 C1462 0.929 . S
H1495 C1463 0.930 . S
Li1496 N1513 1.990 . S
Li1496 O1556 1.956 . S
Li1496 O1557 1.970 . S
Li1496 O1558 1.961 . S
Li1497 N1521 1.990 . S
Li1497 O1556 1.970 . S
Li1497 O1557 1.956 . S
Li1497 O1559 1.961 . S
Li1498 N1543 1.990 . S
Li1498 O1556 1.961 . S
Li1498 O1558 1.956 . S
Li1498 O1559 1.970 . S
Li1499 N1549 1.990 . S
Li1499 O1557 1.961 . S
Li1499 O1558 1.970 . S
Li1499 O1559 1.956 . S
C1500 C1502 1.348 . S
C1500 C1503 1.356 . S
C1500 O1556 1.325 . S
N1501 C1504 1.314 . S
N1501 C1505 1.279 . S
C1502 C1500 1.348 . S
C1502 C1504 1.353 . S
C1502 H1560 0.929 . S
C1503 C1500 1.356 . S
C1503 C1505 1.358 . S
C1503 H1561 0.930 . S
C1504 N1501 1.314 . S
C1504 C1502 1.353 . S
C1504 H1562 0.930 . S
C1505 N1501 1.279 . S
C1505 C1503 1.358 . S
C1505 H1563 0.930 . S
C1506 C1509 1.348 . S
C1506 C1510 1.356 . S
C1506 O1557 1.325 . S
C1507 N1508 1.279 . S
C1507 C1510 1.358 . S
C1507 H1564 0.930 . S
N1508 C1507 1.279 . S
N1508 C1511 1.314 . S
C1509 C1506 1.348 . S
C1509 C1511 1.353 . S
C1509 H1565 0.929 . S
C1510 C1506 1.356 . S
C1510 C1507 1.358 . S
C1510 H1566 0.930 . S
C1511 N1508 1.314 . S
C1511 C1509 1.353 . S
C1511 H1567 0.930 . S
C1512 N1513 1.314 . S
C1512 C1517 1.353 . S
C1512 H1518 0.930 . S
N1513 Li1496 1.990 . S
N1513 C1512 1.314 . S
N1513 C1515 1.279 . S
C1514 C1515 1.358 . S
C1514 C1516 1.356 . S
C1514 H1568 0.930 . S
C1515 N1513 1.279 . S
C1515 C1514 1.358 . S
C1515 H1519 0.930 . S
C1516 C1514 1.356 . S
C1516 C1517 1.348 . S
C1517 C1512 1.353 . S
C1517 C1516 1.348 . S
C1517 H1569 0.929 . S
H1518 C1512 0.930 . S
H1519 C1515 0.930 . S
C1520 N1521 1.314 . S
C1520 C1522 1.353 . S
C1520 H1526 0.930 . S
N1521 Li1497 1.990 . S
N1521 C1520 1.314 . S
N1521 C1524 1.279 . S
C1522 C1520 1.353 . S
C1522 C1525 1.348 . S
C1522 H1570 0.929 . S
C1523 C1524 1.358 . S
C1523 C1525 1.356 . S
C1523 H1571 0.930 . S
C1524 N1521 1.279 . S
C1524 C1523 1.358 . S
C1524 H1527 0.930 . S
C1525 C1522 1.348 . S
C1525 C1523 1.356 . S
H1526 C1520 0.930 . S
H1527 C1524 0.930 . S
C1528 C1530 1.348 . S
C1528 C1531 1.356 . S
C1528 O1558 1.325 . S
N1529 C1532 1.314 . S
N1529 C1533 1.279 . S
C1530 C1528 1.348 . S
C1530 C1532 1.353 . S
C1530 H1572 0.929 . S
C1531 C1528 1.356 . S
C1531 C1533 1.358 . S
C1531 H1573 0.930 . S
C1532 N1529 1.314 . S
C1532 C1530 1.353 . S
C1532 H1574 0.930 . S
C1533 N1529 1.279 . S
C1533 C1531 1.358 . S
C1533 H1575 0.930 . S
C1534 C1535 1.348 . S
C1534 C1536 1.356 . S
C1534 O1559 1.325 . S
C1535 C1534 1.348 . S
C1535 C1537 1.353 . S
C1535 H1576 0.929 . S
C1536 C1534 1.356 . S
C1536 C1538 1.358 . S
C1536 H1577 0.930 . S
C1537 C1535 1.353 . S
C1537 N1539 1.314 . S
C1537 H1578 0.930 . S
C1538 C1536 1.358 . S
C1538 N1539 1.279 . S
C1538 H1579 0.930 . S
N1539 C1537 1.314 . S
N1539 C1538 1.279 . S
C1540 C1542 1.353 . S
C1540 N1543 1.314 . S
C1540 H1546 0.930 . S
C1541 N1543 1.279 . S
C1541 C1544 1.358 . S
C1541 H1547 0.930 . S
C1542 C1540 1.353 . S
C1542 C1545 1.348 . S
C1542 H1580 0.929 . S
N1543 Li1498 1.990 . S
N1543 C1540 1.314 . S
N1543 C1541 1.279 . S
C1544 C1541 1.358 . S
C1544 C1545 1.356 . S
C1544 H1581 0.930 . S
C1545 C1542 1.348 . S
C1545 C1544 1.356 . S
H1546 C1540 0.930 . S
H1547 C1541 0.930 . S
C1548 N1549 1.314 . S
C1548 C1550 1.353 . S
C1548 H1554 0.930 . S
N1549 Li1499 1.990 . S
N1549 C1548 1.314 . S
N1549 C1552 1.279 . S
C1550 C1548 1.353 . S
C1550 C1553 1.348 . S
C1550 H1582 0.929 . S
C1551 C1552 1.358 . S
C1551 C1553 1.356 . S
C1551 H1583 0.930 . S
C1552 N1549 1.279 . S
C1552 C1551 1.358 . S
C1552 H1555 0.930 . S
C1553 C1550 1.348 . S
C1553 C1551 1.356 . S
H1554 C1548 0.930 . S
H1555 C1552 0.930 . S
O1556 Li1496 1.956 . S
O1556 Li1497 1.970 . S
O1556 Li1498 1.961 . S
O1556 C1500 1.325 . S
O1557 Li1496 1.970 . S
O1557 Li1497 1.956 . S
O1557 Li1499 1.961 . S
O1557 C1506 1.325 . S
O1558 Li1496 1.961 . S
O1558 Li1498 1.956 . S
O1558 Li1499 1.970 . S
O1558 C1528 1.325 . S
O1559 Li1497 1.961 . S
O1559 Li1498 1.970 . S
O1559 Li1499 1.956 . S
O1559 C1534 1.325 . S
H1560 C1502 0.929 . S
H1561 C1503 0.930 . S
H1562 C1504 0.930 . S
H1563 C1505 0.930 . S
H1564 C1507 0.930 . S
H1565 C1509 0.929 . S
H1566 C1510 0.930 . S
H1567 C1511 0.930 . S
H1568 C1514 0.930 . S
H1569 C1517 0.929 . S
H1570 C1522 0.929 . S
H1571 C1523 0.930 . S
H1572 C1530 0.929 . S
H1573 C1531 0.930 . S
H1574 C1532 0.930 . S
H1575 C1533 0.930 . S
H1576 C1535 0.929 . S
H1577 C1536 0.930 . S
H1578 C1537 0.930 . S
H1579 C1538 0.930 . S
H1580 C1542 0.929 . S
H1581 C1544 0.930 . S
H1582 C1550 0.929 . S
H1583 C1551 0.930 . S
Li1584 N1601 1.990 . S
Li1584 O1644 1.956 . S
Li1584 O1645 1.970 . S
Li1584 O1646 1.961 . S
Li1585 N1609 1.990 . S
Li1585 O1644 1.970 . S
Li1585 O1645 1.956 . S
Li1585 O1647 1.961 . S
Li1586 N1631 1.990 . S
Li1586 O1644 1.961 . S
Li1586 O1646 1.956 . S
Li1586 O1647 1.970 . S
Li1587 N1637 1.990 . S
Li1587 O1645 1.961 . S
Li1587 O1646 1.970 . S
Li1587 O1647 1.956 . S
C1588 C1590 1.348 . S
C1588 C1591 1.356 . S
C1588 O1644 1.325 . S
N1589 C1592 1.314 . S
N1589 C1593 1.279 . S
C1590 C1588 1.348 . S
C1590 C1592 1.353 . S
C1590 H1648 0.929 . S
C1591 C1588 1.356 . S
C1591 C1593 1.358 . S
C1591 H1649 0.930 . S
C1592 N1589 1.314 . S
C1592 C1590 1.353 . S
C1592 H1650 0.930 . S
C1593 N1589 1.279 . S
C1593 C1591 1.358 . S
C1593 H1651 0.930 . S
C1594 C1597 1.348 . S
C1594 C1598 1.356 . S
C1594 O1645 1.325 . S
C1595 N1596 1.279 . S
C1595 C1598 1.358 . S
C1595 H1652 0.930 . S
N1596 C1595 1.279 . S
N1596 C1599 1.314 . S
C1597 C1594 1.348 . S
C1597 C1599 1.353 . S
C1597 H1653 0.929 . S
C1598 C1594 1.356 . S
C1598 C1595 1.358 . S
C1598 H1654 0.930 . S
C1599 N1596 1.314 . S
C1599 C1597 1.353 . S
C1599 H1655 0.930 . S
C1600 N1601 1.314 . S
C1600 C1605 1.353 . S
C1600 H1606 0.930 . S
N1601 Li1584 1.990 . S
N1601 C1600 1.314 . S
N1601 C1603 1.279 . S
C1602 C1603 1.358 . S
C1602 C1604 1.356 . S
C1602 H1656 0.930 . S
C1603 N1601 1.279 . S
C1603 C1602 1.358 . S
C1603 H1607 0.930 . S
C1604 C1602 1.356 . S
C1604 C1605 1.348 . S
C1605 C1600 1.353 . S
C1605 C1604 1.348 . S
C1605 H1657 0.929 . S
H1606 C1600 0.930 . S
H1607 C1603 0.930 . S
C1608 N1609 1.314 . S
C1608 C1610 1.353 . S
C1608 H1614 0.930 . S
N1609 Li1585 1.990 . S
N1609 C1608 1.314 . S
N1609 C1612 1.279 . S
C1610 C1608 1.353 . S
C1610 C1613 1.348 . S
C1610 H1658 0.929 . S
C1611 C1612 1.358 . S
C1611 C1613 1.356 . S
C1611 H1659 0.930 . S
C1612 N1609 1.279 . S
C1612 C1611 1.358 . S
C1612 H1615 0.930 . S
C1613 C1610 1.348 . S
C1613 C1611 1.356 . S
H1614 C1608 0.930 . S
H1615 C1612 0.930 . S
C1616 C1618 1.348 . S
C1616 C1619 1.356 . S
C1616 O1646 1.325 . S
N1617 C1620 1.314 . S
N1617 C1621 1.279 . S
C1618 C1616 1.348 . S
C1618 C1620 1.353 . S
C1618 H1660 0.929 . S
C1619 C1616 1.356 . S
C1619 C1621 1.358 . S
C1619 H1661 0.930 . S
C1620 N1617 1.314 . S
C1620 C1618 1.353 . S
C1620 H1662 0.930 . S
C1621 N1617 1.279 . S
C1621 C1619 1.358 . S
C1621 H1663 0.930 . S
C1622 C1623 1.348 . S
C1622 C1624 1.356 . S
C1622 O1647 1.325 . S
C1623 C1622 1.348 . S
C1623 C1625 1.353 . S
C1623 H1664 0.929 . S
C1624 C1622 1.356 . S
C1624 C1626 1.358 . S
C1624 H1665 0.930 . S
C1625 C1623 1.353 . S
C1625 N1627 1.314 . S
C1625 H1666 0.930 . S
C1626 C1624 1.358 . S
C1626 N1627 1.279 . S
C1626 H1667 0.930 . S
N1627 C1625 1.314 . S
N1627 C1626 1.279 . S
C1628 C1630 1.353 . S
C1628 N1631 1.314 . S
C1628 H1634 0.930 . S
C1629 N1631 1.279 . S
C1629 C1632 1.358 . S
C1629 H1635 0.930 . S
C1630 C1628 1.353 . S
C1630 C1633 1.348 . S
C1630 H1668 0.929 . S
N1631 Li1586 1.990 . S
N1631 C1628 1.314 . S
N1631 C1629 1.279 . S
C1632 C1629 1.358 . S
C1632 C1633 1.356 . S
C1632 H1669 0.930 . S
C1633 C1630 1.348 . S
C1633 C1632 1.356 . S
H1634 C1628 0.930 . S
H1635 C1629 0.930 . S
C1636 N1637 1.314 . S
C1636 C1638 1.353 . S
C1636 H1642 0.930 . S
N1637 Li1587 1.990 . S
N1637 C1636 1.314 . S
N1637 C1640 1.279 . S
C1638 C1636 1.353 . S
C1638 C1641 1.348 . S
C1638 H1670 0.929 . S
C1639 C1640 1.358 . S
C1639 C1641 1.356 . S
C1639 H1671 0.930 . S
C1640 N1637 1.279 . S
C1640 C1639 1.358 . S
C1640 H1643 0.930 . S
C1641 C1638 1.348 . S
C1641 C1639 1.356 . S
H1642 C1636 0.930 . S
H1643 C1640 0.930 . S
O1644 Li1584 1.956 . S
O1644 Li1585 1.970 . S
O1644 Li1586 1.961 . S
O1644 C1588 1.325 . S
O1645 Li1584 1.970 . S
O1645 Li1585 1.956 . S
O1645 Li1587 1.961 . S
O1645 C1594 1.325 . S
O1646 Li1584 1.961 . S
O1646 Li1586 1.956 . S
O1646 Li1587 1.970 . S
O1646 C1616 1.325 . S
O1647 Li1585 1.961 . S
O1647 Li1586 1.970 . S
O1647 Li1587 1.956 . S
O1647 C1622 1.325 . S
H1648 C1590 0.929 . S
H1649 C1591 0.930 . S
H1650 C1592 0.930 . S
H1651 C1593 0.930 . S
H1652 C1595 0.930 . S
H1653 C1597 0.929 . S
H1654 C1598 0.930 . S
H1655 C1599 0.930 . S
H1656 C1602 0.930 . S
H1657 C1605 0.929 . S
H1658 C1610 0.929 . S
H1659 C1611 0.930 . S
H1660 C1618 0.929 . S
H1661 C1619 0.930 . S
H1662 C1620 0.930 . S
H1663 C1621 0.930 . S
H1664 C1623 0.929 . S
H1665 C1624 0.930 . S
H1666 C1625 0.930 . S
H1667 C1626 0.930 . S
H1668 C1630 0.929 . S
H1669 C1632 0.930 . S
H1670 C1638 0.929 . S
H1671 C1639 0.930 . S
Li1672 N1689 1.990 . S
Li1672 O1732 1.956 . S
Li1672 O1733 1.970 . S
Li1672 O1734 1.961 . S
Li1673 N1697 1.990 . S
Li1673 O1732 1.970 . S
Li1673 O1733 1.956 . S
Li1673 O1735 1.961 . S
Li1674 N1719 1.990 . S
Li1674 O1732 1.961 . S
Li1674 O1734 1.956 . S
Li1674 O1735 1.970 . S
Li1675 N1725 1.990 . S
Li1675 O1733 1.961 . S
Li1675 O1734 1.970 . S
Li1675 O1735 1.956 . S
C1676 C1678 1.348 . S
C1676 C1679 1.356 . S
C1676 O1732 1.325 . S
N1677 C1680 1.314 . S
N1677 C1681 1.279 . S
C1678 C1676 1.348 . S
C1678 C1680 1.353 . S
C1678 H1736 0.929 . S
C1679 C1676 1.356 . S
C1679 C1681 1.358 . S
C1679 H1737 0.930 . S
C1680 N1677 1.314 . S
C1680 C1678 1.353 . S
C1680 H1738 0.930 . S
C1681 N1677 1.279 . S
C1681 C1679 1.358 . S
C1681 H1739 0.930 . S
C1682 C1685 1.348 . S
C1682 C1686 1.356 . S
C1682 O1733 1.325 . S
C1683 N1684 1.279 . S
C1683 C1686 1.358 . S
C1683 H1740 0.930 . S
N1684 C1683 1.279 . S
N1684 C1687 1.314 . S
C1685 C1682 1.348 . S
C1685 C1687 1.353 . S
C1685 H1741 0.929 . S
C1686 C1682 1.356 . S
C1686 C1683 1.358 . S
C1686 H1742 0.930 . S
C1687 N1684 1.314 . S
C1687 C1685 1.353 . S
C1687 H1743 0.930 . S
C1688 N1689 1.314 . S
C1688 C1693 1.353 . S
C1688 H1694 0.930 . S
N1689 Li1672 1.990 . S
N1689 C1688 1.314 . S
N1689 C1691 1.279 . S
C1690 C1691 1.358 . S
C1690 C1692 1.356 . S
C1690 H1744 0.930 . S
C1691 N1689 1.279 . S
C1691 C1690 1.358 . S
C1691 H1695 0.930 . S
C1692 C1690 1.356 . S
C1692 C1693 1.348 . S
C1693 C1688 1.353 . S
C1693 C1692 1.348 . S
C1693 H1745 0.929 . S
H1694 C1688 0.930 . S
H1695 C1691 0.930 . S
C1696 N1697 1.314 . S
C1696 C1698 1.353 . S
C1696 H1702 0.930 . S
N1697 Li1673 1.990 . S
N1697 C1696 1.314 . S
N1697 C1700 1.279 . S
C1698 C1696 1.353 . S
C1698 C1701 1.348 . S
C1698 H1746 0.929 . S
C1699 C1700 1.358 . S
C1699 C1701 1.356 . S
C1699 H1747 0.930 . S
C1700 N1697 1.279 . S
C1700 C1699 1.358 . S
C1700 H1703 0.930 . S
C1701 C1698 1.348 . S
C1701 C1699 1.356 . S
H1702 C1696 0.930 . S
H1703 C1700 0.930 . S
C1704 C1706 1.348 1_545 S
C1704 C1707 1.362 1_545 S
C1704 O1734 1.325 . S
N1705 C1708 1.314 . S
N1705 C1709 1.279 . S
C1706 C1704 1.348 1_565 S
C1706 C1708 1.353 . S
C1706 H1748 0.929 . S
C1707 C1704 1.362 1_565 S
C1707 C1709 1.392 . S
C1707 H1749 0.891 1_565 S
C1708 N1705 1.314 . S
C1708 C1706 1.353 . S
C1708 H1750 0.930 . S
C1709 N1705 1.279 . S
C1709 C1707 1.392 . S
C1709 H1751 0.930 . S
C1710 C1711 1.348 . S
C1710 C1712 1.356 . S
C1710 O1735 1.325 . S
C1711 C1710 1.348 . S
C1711 C1713 1.353 . S
C1711 H1752 0.929 . S
C1712 C1710 1.356 . S
C1712 C1714 1.358 . S
C1712 H1753 0.930 . S
C1713 C1711 1.353 . S
C1713 N1715 1.314 . S
C1713 H1754 0.930 . S
C1714 C1712 1.358 . S
C1714 N1715 1.279 . S
C1714 H1755 0.930 . S
N1715 C1713 1.314 . S
N1715 C1714 1.279 . S
C1716 C1718 1.353 . S
C1716 N1719 1.314 . S
C1716 H1722 0.930 . S
C1717 N1719 1.279 . S
C1717 C1720 1.358 . S
C1717 H1723 0.930 . S
C1718 C1716 1.353 . S
C1718 C1721 1.348 . S
C1718 H1756 0.929 . S
N1719 Li1674 1.990 . S
N1719 C1716 1.314 . S
N1719 C1717 1.279 . S
C1720 C1717 1.358 . S
C1720 C1721 1.356 . S
C1720 H1757 0.930 1_545 S
C1721 C1718 1.348 . S
C1721 C1720 1.356 . S
H1722 C1716 0.930 . S
H1723 C1717 0.930 . S
C1724 N1725 1.314 1_565 S
C1724 C1726 1.353 . S
C1724 H1730 0.929 . S
N1725 Li1675 1.990 . S
N1725 C1724 1.314 1_545 S
N1725 C1728 1.279 1_545 S
C1726 C1724 1.353 . S
C1726 C1729 1.348 . S
C1726 H1758 0.929 . S
C1727 C1728 1.358 . S
C1727 C1729 1.356 . S
C1727 H1759 0.930 . S
C1728 N1725 1.279 1_565 S
C1728 C1727 1.358 . S
C1728 H1731 0.930 1_565 S
C1729 C1726 1.348 . S
C1729 C1727 1.356 . S
H1730 C1724 0.929 . S
H1731 C1728 0.930 1_545 S
O1732 Li1672 1.956 . S
O1732 Li1673 1.970 . S
O1732 Li1674 1.961 . S
O1732 C1676 1.325 . S
O1733 Li1672 1.970 . S
O1733 Li1673 1.956 . S
O1733 Li1675 1.961 . S
O1733 C1682 1.325 . S
O1734 Li1672 1.961 . S
O1734 Li1674 1.956 . S
O1734 Li1675 1.970 . S
O1734 C1704 1.325 . S
O1735 Li1673 1.961 . S
O1735 Li1674 1.970 . S
O1735 Li1675 1.956 . S
O1735 C1710 1.325 . S
H1736 C1678 0.929 . S
H1737 C1679 0.930 . S
H1738 C1680 0.930 . S
H1739 C1681 0.930 . S
H1740 C1683 0.930 . S
H1741 C1685 0.929 . S
H1742 C1686 0.930 . S
H1743 C1687 0.930 . S
H1744 C1690 0.930 . S
H1745 C1693 0.929 . S
H1746 C1698 0.929 . S
H1747 C1699 0.930 . S
H1748 C1706 0.929 . S
H1749 C1707 0.891 1_545 S
H1750 C1708 0.930 . S
H1751 C1709 0.930 . S
H1752 C1711 0.929 . S
H1753 C1712 0.930 . S
H1754 C1713 0.930 . S
H1755 C1714 0.930 . S
H1756 C1718 0.929 . S
H1757 C1720 0.930 1_565 S
H1758 C1726 0.929 . S
H1759 C1727 0.930 . S
Li1760 N1777 1.990 . S
Li1760 O1820 1.956 . S
Li1760 O1821 1.970 . S
Li1760 O1822 1.961 . S
Li1761 N1785 1.989 . S
Li1761 O1820 1.975 1_556 S
Li1761 O1821 1.931 1_556 S
Li1761 O1823 1.986 . S
Li1762 N1807 1.990 . S
Li1762 O1820 1.961 1_556 S
Li1762 O1822 1.956 1_556 S
Li1762 O1823 1.970 . S
Li1763 N1813 1.990 . S
Li1763 O1821 1.961 1_556 S
Li1763 O1822 1.970 1_556 S
Li1763 O1823 1.956 . S
C1764 C1766 1.348 . S
C1764 C1767 1.356 . S
C1764 O1820 1.325 . S
N1765 C1768 1.314 . S
N1765 C1769 1.279 . S
C1766 C1764 1.348 . S
C1766 C1768 1.353 . S
C1766 H1824 0.929 . S
C1767 C1764 1.356 . S
C1767 C1769 1.358 . S
C1767 H1825 0.930 . S
C1768 N1765 1.314 . S
C1768 C1766 1.353 . S
C1768 H1826 0.930 . S
C1769 N1765 1.279 . S
C1769 C1767 1.358 . S
C1769 H1827 0.930 . S
C1770 C1773 1.348 . S
C1770 C1774 1.356 . S
C1770 O1821 1.325 . S
C1771 N1772 1.279 . S
C1771 C1774 1.358 . S
C1771 H1828 0.930 . S
N1772 C1771 1.279 . S
N1772 C1775 1.314 . S
C1773 C1770 1.348 . S
C1773 C1775 1.353 . S
C1773 H1829 0.929 . S
C1774 C1770 1.356 . S
C1774 C1771 1.358 . S
C1774 H1830 0.930 . S
C1775 N1772 1.314 . S
C1775 C1773 1.353 . S
C1775 H1831 0.930 . S
C1776 N1777 1.314 . S
C1776 C1781 1.353 . S
C1776 H1782 0.930 . S
N1777 Li1760 1.990 . S
N1777 C1776 1.314 . S
N1777 C1779 1.279 . S
C1778 C1779 1.358 . S
C1778 C1780 1.356 . S
C1778 H1832 0.930 . S
C1779 N1777 1.279 . S
C1779 C1778 1.358 . S
C1779 H1783 0.930 . S
C1780 C1778 1.356 . S
C1780 C1781 1.348 . S
C1781 C1776 1.353 . S
C1781 C1780 1.348 . S
C1781 H1833 0.929 . S
H1782 C1776 0.930 . S
H1783 C1779 0.930 . S
C1784 N1785 1.314 . S
C1784 C1786 1.353 . S
C1784 H1790 0.930 . S
N1785 Li1761 1.989 . S
N1785 C1784 1.314 . S
N1785 C1788 1.279 1_556 S
C1786 C1784 1.353 . S
C1786 C1789 1.348 . S
C1786 H1834 0.929 . S
C1787 C1788 1.358 . S
C1787 C1789 1.356 1_554 S
C1787 H1835 0.930 . S
C1788 N1785 1.279 1_554 S
C1788 C1787 1.358 . S
C1788 H1791 0.930 . S
C1789 C1786 1.348 . S
C1789 C1787 1.356 1_556 S
H1790 C1784 0.930 . S
H1791 C1788 0.930 . S
C1792 C1794 1.348 1_554 S
C1792 C1795 1.356 . S
C1792 O1822 1.325 . S
N1793 C1796 1.314 1_554 S
N1793 C1797 1.279 . S
C1794 C1792 1.348 1_556 S
C1794 C1796 1.353 . S
C1794 H1836 0.929 . S
C1795 C1792 1.356 . S
C1795 C1797 1.358 . S
C1795 H1837 0.930 . S
C1796 N1793 1.314 1_556 S
C1796 C1794 1.353 . S
C1796 H1838 0.930 . S
C1797 N1793 1.279 . S
C1797 C1795 1.358 . S
C1797 H1839 0.930 . S
C1798 C1799 1.348 . S
C1798 C1800 1.356 . S
C1798 O1823 1.325 . S
C1799 C1798 1.348 . S
C1799 C1801 1.353 . S
C1799 H1840 0.929 . S
C1800 C1798 1.356 . S
C1800 C1802 1.358 . S
C1800 H1841 0.930 . S
C1801 C1799 1.353 . S
C1801 N1803 1.314 . S
C1801 H1842 0.930 . S
C1802 C1800 1.358 . S
C1802 N1803 1.279 . S
C1802 H1843 0.930 . S
N1803 C1801 1.314 . S
N1803 C1802 1.279 . S
C1804 C1806 1.353 . S
C1804 N1807 1.314 . S
C1804 H1810 0.930 . S
C1805 N1807 1.279 . S
C1805 C1808 1.358 . S
C1805 H1811 0.930 . S
C1806 C1804 1.353 . S
C1806 C1809 1.348 . S
C1806 H1844 0.929 . S
N1807 Li1762 1.990 . S
N1807 C1804 1.314 . S
N1807 C1805 1.279 . S
C1808 C1805 1.358 . S
C1808 C1809 1.356 . S
C1808 H1845 0.930 . S
C1809 C1806 1.348 . S
C1809 C1808 1.356 . S
H1810 C1804 0.930 . S
H1811 C1805 0.930 . S
C1812 N1813 1.314 1_554 S
C1812 C1814 1.353 . S
C1812 H1818 0.930 . S
N1813 Li1763 1.990 . S
N1813 C1812 1.314 1_556 S
N1813 C1816 1.279 . S
C1814 C1812 1.353 . S
C1814 C1817 1.348 1_554 S
C1814 H1846 0.929 . S
C1815 C1816 1.358 . S
C1815 C1817 1.356 . S
C1815 H1847 0.930 . S
C1816 N1813 1.279 . S
C1816 C1815 1.358 . S
C1816 H1819 0.930 . S
C1817 C1814 1.348 1_556 S
C1817 C1815 1.356 . S
H1818 C1812 0.930 . S
H1819 C1816 0.930 . S
O1820 Li1760 1.956 . S
O1820 Li1761 1.975 1_554 S
O1820 Li1762 1.961 1_554 S
O1820 C1764 1.325 . S
O1821 Li1760 1.970 . S
O1821 Li1761 1.931 1_554 S
O1821 Li1763 1.961 1_554 S
O1821 C1770 1.325 . S
O1822 Li1760 1.961 . S
O1822 Li1762 1.956 1_554 S
O1822 Li1763 1.970 1_554 S
O1822 C1792 1.325 . S
O1823 Li1761 1.986 . S
O1823 Li1762 1.970 . S
O1823 Li1763 1.956 . S
O1823 C1798 1.325 . S
H1824 C1766 0.929 . S
H1825 C1767 0.930 . S
H1826 C1768 0.930 . S
H1827 C1769 0.930 . S
H1828 C1771 0.930 . S
H1829 C1773 0.929 . S
H1830 C1774 0.930 . S
H1831 C1775 0.930 . S
H1832 C1778 0.930 . S
H1833 C1781 0.929 . S
H1834 C1786 0.929 . S
H1835 C1787 0.930 . S
H1836 C1794 0.929 . S
H1837 C1795 0.930 . S
H1838 C1796 0.930 . S
H1839 C1797 0.930 . S
H1840 C1799 0.929 . S
H1841 C1800 0.930 . S
H1842 C1801 0.930 . S
H1843 C1802 0.930 . S
H1844 C1806 0.929 . S
H1845 C1808 0.930 . S
H1846 C1814 0.929 . S
H1847 C1815 0.930 . S
Li1848 N1865 1.990 . S
Li1848 O1908 1.956 . S
Li1848 O1909 1.970 . S
Li1848 O1910 1.961 . S
Li1849 N1873 1.990 . S
Li1849 O1908 1.970 . S
Li1849 O1909 1.956 . S
Li1849 O1911 1.961 . S
Li1850 N1895 1.990 . S
Li1850 O1908 1.961 . S
Li1850 O1910 1.956 . S
Li1850 O1911 1.970 . S
Li1851 N1901 1.990 . S
Li1851 O1909 1.961 . S
Li1851 O1910 1.970 . S
Li1851 O1911 1.956 . S
C1852 C1854 1.348 . S
C1852 C1855 1.356 . S
C1852 O1908 1.325 . S
N1853 C1856 1.314 . S
N1853 C1857 1.279 . S
C1854 C1852 1.348 . S
C1854 C1856 1.353 . S
C1854 H1912 0.929 . S
C1855 C1852 1.356 . S
C1855 C1857 1.358 . S
C1855 H1913 0.930 . S
C1856 N1853 1.314 . S
C1856 C1854 1.353 . S
C1856 H1914 0.930 . S
C1857 N1853 1.279 . S
C1857 C1855 1.358 . S
C1857 H1915 0.930 . S
C1858 C1861 1.348 . S
C1858 C1862 1.356 . S
C1858 O1909 1.325 . S
C1859 N1860 1.279 . S
C1859 C1862 1.358 . S
C1859 H1916 0.930 . S
N1860 C1859 1.279 . S
N1860 C1863 1.314 . S
C1861 C1858 1.348 . S
C1861 C1863 1.353 . S
C1861 H1917 0.929 . S
C1862 C1858 1.356 . S
C1862 C1859 1.358 . S
C1862 H1918 0.930 . S
C1863 N1860 1.314 . S
C1863 C1861 1.353 . S
C1863 H1919 0.930 . S
C1864 N1865 1.314 . S
C1864 C1869 1.353 . S
C1864 H1870 0.930 . S
N1865 Li1848 1.990 . S
N1865 C1864 1.314 . S
N1865 C1867 1.279 . S
C1866 C1867 1.358 . S
C1866 C1868 1.356 . S
C1866 H1920 0.930 . S
C1867 N1865 1.279 . S
C1867 C1866 1.358 . S
C1867 H1871 0.930 . S
C1868 C1866 1.356 . S
C1868 C1869 1.348 . S
C1869 C1864 1.353 . S
C1869 C1868 1.348 . S
C1869 H1921 0.929 . S
H1870 C1864 0.930 . S
H1871 C1867 0.930 . S
C1872 N1873 1.314 . S
C1872 C1874 1.353 . S
C1872 H1878 0.930 . S
N1873 Li1849 1.990 . S
N1873 C1872 1.314 . S
N1873 C1876 1.279 . S
C1874 C1872 1.353 . S
C1874 C1877 1.348 . S
C1874 H1922 0.929 . S
C1875 C1876 1.358 . S
C1875 C1877 1.356 . S
C1875 H1923 0.930 . S
C1876 N1873 1.279 . S
C1876 C1875 1.358 . S
C1876 H1879 0.930 . S
C1877 C1874 1.348 . S
C1877 C1875 1.356 . S
H1878 C1872 0.930 . S
H1879 C1876 0.930 . S
C1880 C1882 1.348 . S
C1880 C1883 1.356 . S
C1880 O1910 1.325 . S
N1881 C1884 1.314 . S
N1881 C1885 1.279 . S
C1882 C1880 1.348 . S
C1882 C1884 1.353 . S
C1882 H1924 0.929 . S
C1883 C1880 1.356 . S
C1883 C1885 1.358 . S
C1883 H1925 0.930 . S
C1884 N1881 1.314 . S
C1884 C1882 1.353 . S
C1884 H1926 0.930 . S
C1885 N1881 1.279 . S
C1885 C1883 1.358 . S
C1885 H1927 0.930 . S
C1886 C1887 1.348 . S
C1886 C1888 1.356 . S
C1886 O1911 1.325 . S
C1887 C1886 1.348 . S
C1887 C1889 1.353 . S
C1887 H1928 0.929 . S
C1888 C1886 1.356 . S
C1888 C1890 1.358 . S
C1888 H1929 0.930 . S
C1889 C1887 1.353 . S
C1889 N1891 1.314 . S
C1889 H1930 0.930 . S
C1890 C1888 1.358 . S
C1890 N1891 1.279 . S
C1890 H1931 0.930 1_655 S
N1891 C1889 1.314 . S
N1891 C1890 1.279 . S
C1892 C1894 1.353 . S
C1892 N1895 1.314 . S
C1892 H1898 0.930 . S
C1893 N1895 1.279 . S
C1893 C1896 1.358 . S
C1893 H1899 0.930 . S
C1894 C1892 1.353 . S
C1894 C1897 1.348 . S
C1894 H1932 0.929 . S
N1895 Li1850 1.990 . S
N1895 C1892 1.314 . S
N1895 C1893 1.279 . S
C1896 C1893 1.358 . S
C1896 C1897 1.356 . S
C1896 H1933 0.930 . S
C1897 C1894 1.348 . S
C1897 C1896 1.356 . S
H1898 C1892 0.930 . S
H1899 C1893 0.930 . S
C1900 N1901 1.314 . S
C1900 C1902 1.353 . S
C1900 H1906 0.930 . S
N1901 Li1851 1.990 . S
N1901 C1900 1.314 . S
N1901 C1904 1.279 . S
C1902 C1900 1.353 . S
C1902 C1905 1.348 . S
C1902 H1934 0.929 . S
C1903 C1904 1.358 . S
C1903 C1905 1.356 . S
C1903 H1935 0.930 . S
C1904 N1901 1.279 . S
C1904 C1903 1.358 . S
C1904 H1907 0.930 . S
C1905 C1902 1.348 . S
C1905 C1903 1.356 . S
H1906 C1900 0.930 . S
H1907 C1904 0.930 . S
O1908 Li1848 1.956 . S
O1908 Li1849 1.970 . S
O1908 Li1850 1.961 . S
O1908 C1852 1.325 . S
O1909 Li1848 1.970 . S
O1909 Li1849 1.956 . S
O1909 Li1851 1.961 . S
O1909 C1858 1.325 . S
O1910 Li1848 1.961 . S
O1910 Li1850 1.956 . S
O1910 Li1851 1.970 . S
O1910 C1880 1.325 . S
O1911 Li1849 1.961 . S
O1911 Li1850 1.970 . S
O1911 Li1851 1.956 . S
O1911 C1886 1.325 . S
H1912 C1854 0.929 . S
H1913 C1855 0.930 . S
H1914 C1856 0.930 . S
H1915 C1857 0.930 . S
H1916 C1859 0.930 . S
H1917 C1861 0.929 . S
H1918 C1862 0.930 . S
H1919 C1863 0.930 . S
H1920 C1866 0.930 . S
H1921 C1869 0.929 . S
H1922 C1874 0.929 . S
H1923 C1875 0.930 . S
H1924 C1882 0.929 . S
H1925 C1883 0.930 . S
H1926 C1884 0.930 . S
H1927 C1885 0.930 . S
H1928 C1887 0.929 . S
H1929 C1888 0.930 . S
H1930 C1889 0.930 . S
H1931 C1890 0.930 1_455 S
H1932 C1894 0.929 . S
H1933 C1896 0.930 . S
H1934 C1902 0.929 . S
H1935 C1903 0.930 . S
Li1936 N1953 1.990 . S
Li1936 O1996 1.956 . S
Li1936 O1997 1.970 . S
Li1936 O1998 1.961 . S
Li1937 N1961 1.990 . S
Li1937 O1996 1.970 . S
Li1937 O1997 1.956 . S
Li1937 O1999 1.961 . S
Li1938 N1983 1.990 . S
Li1938 O1996 1.961 . S
Li1938 O1998 1.956 . S
Li1938 O1999 1.970 . S
Li1939 N1989 1.990 . S
Li1939 O1997 1.961 . S
Li1939 O1998 1.970 . S
Li1939 O1999 1.956 . S
C1940 C1942 1.348 . S
C1940 C1943 1.356 . S
C1940 O1996 1.325 . S
N1941 C1944 1.314 . S
N1941 C1945 1.279 . S
C1942 C1940 1.348 . S
C1942 C1944 1.353 . S
C1942 H2000 0.929 . S
C1943 C1940 1.356 . S
C1943 C1945 1.358 . S
C1943 H2001 0.930 . S
C1944 N1941 1.314 . S
C1944 C1942 1.353 . S
C1944 H2002 0.930 . S
C1945 N1941 1.279 . S
C1945 C1943 1.358 . S
C1945 H2003 0.930 . S
C1946 C1949 1.348 . S
C1946 C1950 1.356 . S
C1946 O1997 1.325 . S
C1947 N1948 1.279 . S
C1947 C1950 1.358 . S
C1947 H2004 0.930 . S
N1948 C1947 1.279 . S
N1948 C1951 1.314 . S
C1949 C1946 1.348 . S
C1949 C1951 1.353 . S
C1949 H2005 0.929 . S
C1950 C1946 1.356 . S
C1950 C1947 1.358 . S
C1950 H2006 0.930 . S
C1951 N1948 1.314 . S
C1951 C1949 1.353 . S
C1951 H2007 0.930 . S
C1952 N1953 1.314 . S
C1952 C1957 1.353 . S
C1952 H1958 0.930 . S
N1953 Li1936 1.990 . S
N1953 C1952 1.314 . S
N1953 C1955 1.279 . S
C1954 C1955 1.358 . S
C1954 C1956 1.356 . S
C1954 H2008 0.930 . S
C1955 N1953 1.279 . S
C1955 C1954 1.358 . S
C1955 H1959 0.930 . S
C1956 C1954 1.356 . S
C1956 C1957 1.348 . S
C1957 C1952 1.353 . S
C1957 C1956 1.348 . S
C1957 H2009 0.929 . S
H1958 C1952 0.930 . S
H1959 C1955 0.930 . S
C1960 N1961 1.314 . S
C1960 C1962 1.353 . S
C1960 H1966 0.930 . S
N1961 Li1937 1.990 . S
N1961 C1960 1.314 . S
N1961 C1964 1.279 . S
C1962 C1960 1.353 . S
C1962 C1965 1.348 . S
C1962 H2010 0.929 . S
C1963 C1964 1.358 . S
C1963 C1965 1.356 . S
C1963 H2011 0.930 . S
C1964 N1961 1.279 . S
C1964 C1963 1.358 . S
C1964 H1967 0.930 . S
C1965 C1962 1.348 . S
C1965 C1963 1.356 . S
H1966 C1960 0.930 . S
H1967 C1964 0.930 . S
C1968 C1970 1.348 . S
C1968 C1971 1.356 . S
C1968 O1998 1.325 . S
N1969 C1972 1.314 . S
N1969 C1973 1.279 . S
C1970 C1968 1.348 . S
C1970 C1972 1.353 . S
C1970 H2012 0.929 . S
C1971 C1968 1.356 . S
C1971 C1973 1.358 . S
C1971 H2013 0.930 . S
C1972 N1969 1.314 . S
C1972 C1970 1.353 . S
C1972 H2014 0.930 . S
C1973 N1969 1.279 . S
C1973 C1971 1.358 . S
C1973 H2015 0.930 . S
C1974 C1975 1.348 . S
C1974 C1976 1.356 . S
C1974 O1999 1.325 . S
C1975 C1974 1.348 . S
C1975 C1977 1.353 . S
C1975 H2016 0.929 . S
C1976 C1974 1.356 . S
C1976 C1978 1.358 . S
C1976 H2017 0.930 . S
C1977 C1975 1.353 . S
C1977 N1979 1.314 . S
C1977 H2018 0.930 . S
C1978 C1976 1.358 . S
C1978 N1979 1.279 . S
C1978 H2019 0.930 . S
N1979 C1977 1.314 . S
N1979 C1978 1.279 . S
C1980 C1982 1.353 . S
C1980 N1983 1.314 . S
C1980 H1986 0.930 . S
C1981 N1983 1.279 . S
C1981 C1984 1.358 . S
C1981 H1987 0.930 . S
C1982 C1980 1.353 . S
C1982 C1985 1.348 . S
C1982 H2020 0.929 . S
N1983 Li1938 1.990 . S
N1983 C1980 1.314 . S
N1983 C1981 1.279 . S
C1984 C1981 1.358 . S
C1984 C1985 1.356 . S
C1984 H2021 0.930 . S
C1985 C1982 1.348 . S
C1985 C1984 1.356 . S
H1986 C1980 0.930 . S
H1987 C1981 0.930 . S
C1988 N1989 1.314 . S
C1988 C1990 1.353 . S
C1988 H1994 0.930 . S
N1989 Li1939 1.990 . S
N1989 C1988 1.314 . S
N1989 C1992 1.279 . S
C1990 C1988 1.353 . S
C1990 C1993 1.348 . S
C1990 H2022 0.929 . S
C1991 C1992 1.358 . S
C1991 C1993 1.356 . S
C1991 H2023 0.930 . S
C1992 N1989 1.279 . S
C1992 C1991 1.358 . S
C1992 H1995 0.930 . S
C1993 C1990 1.348 . S
C1993 C1991 1.356 . S
H1994 C1988 0.930 . S
H1995 C1992 0.930 . S
O1996 Li1936 1.956 . S
O1996 Li1937 1.970 . S
O1996 Li1938 1.961 . S
O1996 C1940 1.325 . S
O1997 Li1936 1.970 . S
O1997 Li1937 1.956 . S
O1997 Li1939 1.961 . S
O1997 C1946 1.325 . S
O1998 Li1936 1.961 . S
O1998 Li1938 1.956 . S
O1998 Li1939 1.970 . S
O1998 C1968 1.325 . S
O1999 Li1937 1.961 . S
O1999 Li1938 1.970 . S
O1999 Li1939 1.956 . S
O1999 C1974 1.325 . S
H2000 C1942 0.929 . S
H2001 C1943 0.930 . S
H2002 C1944 0.930 . S
H2003 C1945 0.930 . S
H2004 C1947 0.930 . S
H2005 C1949 0.929 . S
H2006 C1950 0.930 . S
H2007 C1951 0.930 . S
H2008 C1954 0.930 . S
H2009 C1957 0.929 . S
H2010 C1962 0.929 . S
H2011 C1963 0.930 . S
H2012 C1970 0.929 . S
H2013 C1971 0.930 . S
H2014 C1972 0.930 . S
H2015 C1973 0.930 . S
H2016 C1975 0.929 . S
H2017 C1976 0.930 . S
H2018 C1977 0.930 . S
H2019 C1978 0.930 . S
H2020 C1982 0.929 . S
H2021 C1984 0.930 . S
H2022 C1990 0.929 . S
H2023 C1991 0.930 . S
Li2024 N2041 1.990 . S
Li2024 O2084 1.956 . S
Li2024 O2085 1.970 . S
Li2024 O2086 1.961 . S
Li2025 N2049 1.990 . S
Li2025 O2084 1.970 . S
Li2025 O2085 1.956 . S
Li2025 O2087 1.961 . S
Li2026 N2071 1.990 . S
Li2026 O2084 1.961 . S
Li2026 O2086 1.956 . S
Li2026 O2087 1.970 . S
Li2027 N2077 1.990 . S
Li2027 O2085 1.961 . S
Li2027 O2086 1.970 . S
Li2027 O2087 1.956 . S
C2028 C2030 1.348 . S
C2028 C2031 1.356 . S
C2028 O2084 1.325 . S
N2029 C2032 1.314 . S
N2029 C2033 1.279 . S
C2030 C2028 1.348 . S
C2030 C2032 1.353 . S
C2030 H2088 0.929 . S
C2031 C2028 1.356 . S
C2031 C2033 1.358 . S
C2031 H2089 0.930 . S
C2032 N2029 1.314 . S
C2032 C2030 1.353 . S
C2032 H2090 0.930 . S
C2033 N2029 1.279 . S
C2033 C2031 1.358 . S
C2033 H2091 0.930 . S
C2034 C2037 1.348 . S
C2034 C2038 1.356 . S
C2034 O2085 1.325 . S
C2035 N2036 1.279 . S
C2035 C2038 1.358 . S
C2035 H2092 0.930 . S
N2036 C2035 1.279 . S
N2036 C2039 1.314 . S
C2037 C2034 1.348 . S
C2037 C2039 1.353 . S
C2037 H2093 0.929 . S
C2038 C2034 1.356 . S
C2038 C2035 1.358 . S
C2038 H2094 0.930 . S
C2039 N2036 1.314 . S
C2039 C2037 1.353 . S
C2039 H2095 0.930 . S
C2040 N2041 1.314 . S
C2040 C2045 1.353 . S
C2040 H2046 0.930 . S
N2041 Li2024 1.990 . S
N2041 C2040 1.314 . S
N2041 C2043 1.279 . S
C2042 C2043 1.358 . S
C2042 C2044 1.356 . S
C2042 H2096 0.930 . S
C2043 N2041 1.279 . S
C2043 C2042 1.358 . S
C2043 H2047 0.930 . S
C2044 C2042 1.356 . S
C2044 C2045 1.348 . S
C2045 C2040 1.353 . S
C2045 C2044 1.348 . S
C2045 H2097 0.929 . S
H2046 C2040 0.930 . S
H2047 C2043 0.930 . S
C2048 N2049 1.314 . S
C2048 C2050 1.353 . S
C2048 H2054 0.930 . S
N2049 Li2025 1.990 . S
N2049 C2048 1.314 . S
N2049 C2052 1.279 . S
C2050 C2048 1.353 . S
C2050 C2053 1.348 . S
C2050 H2098 0.929 . S
C2051 C2052 1.358 . S
C2051 C2053 1.356 . S
C2051 H2099 0.930 . S
C2052 N2049 1.279 . S
C2052 C2051 1.358 . S
C2052 H2055 0.930 . S
C2053 C2050 1.348 . S
C2053 C2051 1.356 . S
H2054 C2048 0.930 . S
H2055 C2052 0.930 . S
C2056 C2058 1.348 . S
C2056 C2059 1.356 . S
C2056 O2086 1.325 . S
N2057 C2060 1.314 . S
N2057 C2061 1.279 . S
C2058 C2056 1.348 . S
C2058 C2060 1.353 . S
C2058 H2100 0.929 . S
C2059 C2056 1.356 . S
C2059 C2061 1.358 . S
C2059 H2101 0.930 . S
C2060 N2057 1.314 . S
C2060 C2058 1.353 . S
C2060 H2102 0.930 . S
C2061 N2057 1.279 . S
C2061 C2059 1.358 . S
C2061 H2103 0.930 . S
C2062 C2063 1.348 . S
C2062 C2064 1.356 . S
C2062 O2087 1.325 . S
C2063 C2062 1.348 . S
C2063 C2065 1.353 . S
C2063 H2104 0.929 . S
C2064 C2062 1.356 . S
C2064 C2066 1.358 . S
C2064 H2105 0.930 . S
C2065 C2063 1.353 . S
C2065 N2067 1.314 . S
C2065 H2106 0.930 . S
C2066 C2064 1.358 . S
C2066 N2067 1.279 . S
C2066 H2107 0.930 . S
N2067 C2065 1.314 . S
N2067 C2066 1.279 . S
C2068 C2070 1.353 . S
C2068 N2071 1.314 . S
C2068 H2074 0.930 . S
C2069 N2071 1.279 . S
C2069 C2072 1.358 . S
C2069 H2075 0.930 . S
C2070 C2068 1.353 . S
C2070 C2073 1.348 . S
C2070 H2108 0.929 . S
N2071 Li2026 1.990 . S
N2071 C2068 1.314 . S
N2071 C2069 1.279 . S
C2072 C2069 1.358 . S
C2072 C2073 1.356 . S
C2072 H2109 0.930 . S
C2073 C2070 1.348 . S
C2073 C2072 1.356 . S
H2074 C2068 0.930 . S
H2075 C2069 0.930 . S
C2076 N2077 1.314 . S
C2076 C2078 1.353 . S
C2076 H2082 0.930 . S
N2077 Li2027 1.990 . S
N2077 C2076 1.314 . S
N2077 C2080 1.279 . S
C2078 C2076 1.353 . S
C2078 C2081 1.348 . S
C2078 H2110 0.929 . S
C2079 C2080 1.358 . S
C2079 C2081 1.356 . S
C2079 H2111 0.930 . S
C2080 N2077 1.279 . S
C2080 C2079 1.358 . S
C2080 H2083 0.930 . S
C2081 C2078 1.348 . S
C2081 C2079 1.356 . S
H2082 C2076 0.930 . S
H2083 C2080 0.930 . S
O2084 Li2024 1.956 . S
O2084 Li2025 1.970 . S
O2084 Li2026 1.961 . S
O2084 C2028 1.325 . S
O2085 Li2024 1.970 . S
O2085 Li2025 1.956 . S
O2085 Li2027 1.961 . S
O2085 C2034 1.325 . S
O2086 Li2024 1.961 . S
O2086 Li2026 1.956 . S
O2086 Li2027 1.970 . S
O2086 C2056 1.325 . S
O2087 Li2025 1.961 . S
O2087 Li2026 1.970 . S
O2087 Li2027 1.956 . S
O2087 C2062 1.325 . S
H2088 C2030 0.929 . S
H2089 C2031 0.930 . S
H2090 C2032 0.930 . S
H2091 C2033 0.930 . S
H2092 C2035 0.930 . S
H2093 C2037 0.929 . S
H2094 C2038 0.930 . S
H2095 C2039 0.930 . S
H2096 C2042 0.930 . S
H2097 C2045 0.929 . S
H2098 C2050 0.929 . S
H2099 C2051 0.930 . S
H2100 C2058 0.929 . S
H2101 C2059 0.930 . S
H2102 C2060 0.930 . S
H2103 C2061 0.930 . S
H2104 C2063 0.929 . S
H2105 C2064 0.930 . S
H2106 C2065 0.930 . S
H2107 C2066 0.930 . S
H2108 C2070 0.929 . S
H2109 C2072 0.930 . S
H2110 C2078 0.929 . S
H2111 C2079 0.930 . S
Eu2112 N2143 2.657 1_545 S
Eu2112 N2150 2.609 1_544 S
Eu2112 O2156 2.558 1_454 S
Eu2112 O2157 2.612 . S
Eu2112 O2159 2.339 . S
Eu2112 O2160 2.559 1_554 S
Eu2112 O2161 2.419 1_455 S
Eu2112 O2163 2.380 . S
Eu2112 O2164 2.432 1_554 S
Eu2112 C2176 2.848 1_454 S
C2113 C2116 1.429 . S
C2113 C2117 1.411 . S
C2113 N2120 1.377 . S
C2114 C2116 1.420 . S
C2114 C2118 1.423 . S
C2114 C2126 1.392 1_554 S
C2115 C2117 1.420 . S
C2115 C2118 1.351 . S
C2115 H2138 0.931 . S
C2116 C2113 1.429 . S
C2116 C2114 1.420 . S
C2116 N2124 1.362 . S
C2117 C2113 1.411 . S
C2117 C2115 1.420 . S
C2117 C2122 1.395 . S
C2118 C2114 1.423 . S
C2118 C2115 1.351 . S
C2118 H2130 0.930 . S
C2119 C2121 1.400 . S
C2119 C2122 1.386 . S
C2119 H2131 0.930 . S
N2120 C2113 1.377 . S
N2120 C2121 1.321 . S
N2120 Eu2123 2.609 . S
C2121 C2119 1.400 . S
C2121 N2120 1.321 . S
C2121 H2128 0.930 . S
C2122 C2117 1.395 . S
C2122 C2119 1.386 . S
C2122 H2141 0.930 . S
Eu2123 N2120 2.609 . S
Eu2123 N2124 2.657 . S
Eu2123 O2157 2.380 . S
Eu2123 O2158 2.432 . S
Eu2123 O2162 2.558 . S
Eu2123 O2163 2.612 . S
Eu2123 O2165 2.339 1_554 S
Eu2123 O2166 2.563 . S
Eu2123 O2167 2.419 . S
Eu2123 C2187 2.848 . S
N2124 C2116 1.362 . S
N2124 Eu2123 2.657 . S
N2124 C2125 1.334 1_554 S
C2125 N2124 1.334 1_556 S
C2125 C2127 1.413 . S
C2125 H2132 0.929 . S
C2126 C2114 1.392 1_556 S
C2126 C2127 1.367 . S
C2126 H2134 0.930 . S
C2127 C2125 1.413 . S
C2127 C2126 1.367 . S
C2127 H2129 0.930 . S
H2128 C2121 0.930 . S
H2129 C2127 0.930 . S
H2130 C2118 0.930 . S
H2131 C2119 0.930 . S
H2132 C2125 0.929 . S
H2133 C2147 0.930 . S
H2134 C2126 0.930 . S
H2135 C2153 0.930 . S
H2136 C2144 0.929 . S
H2137 C2151 0.930 . S
H2138 C2115 0.931 . S
H2139 C2145 0.930 . S
H2140 C2178 0.924 1_554 S
H2141 C2122 0.930 . S
H2142 C2177 0.931 . S
N2143 Eu2112 2.657 1_565 S
N2143 C2144 1.334 . S
N2143 C2148 1.357 1_455 S
C2144 H2136 0.929 . S
C2144 N2143 1.334 . S
C2144 C2147 1.413 . S
C2145 H2139 0.930 . S
C2145 C2146 1.392 . S
C2145 C2147 1.367 1_655 S
C2146 C2145 1.392 . S
C2146 C2148 1.426 . S
C2146 C2178 1.423 1_554 S
C2147 H2133 0.930 . S
C2147 C2144 1.413 . S
C2147 C2145 1.367 1_455 S
C2148 N2143 1.357 1_655 S
C2148 C2146 1.426 . S
C2148 C2152 1.428 1_554 S
H2149 C2154 0.930 . S
N2150 Eu2112 2.609 1_566 S
N2150 C2152 1.377 1_455 S
N2150 C2153 1.321 . S
C2151 H2137 0.930 . S
C2151 C2153 1.400 1_655 S
C2151 C2154 1.386 . S
C2152 C2148 1.428 1_556 S
C2152 N2150 1.377 1_655 S
C2152 C2155 1.411 . S
C2153 H2135 0.930 . S
C2153 N2150 1.321 . S
C2153 C2151 1.400 1_455 S
C2154 H2149 0.930 . S
C2154 C2151 1.386 . S
C2154 C2155 1.395 . S
C2155 C2152 1.411 . S
C2155 C2154 1.395 . S
C2155 C2177 1.420 . S
O2156 Eu2112 2.558 1_656 S
O2156 C2176 1.257 . S
O2157 Eu2112 2.612 . S
O2157 Eu2123 2.380 . S
O2157 C2168 1.276 . S
O2158 Eu2123 2.432 . S
O2158 C2175 1.264 . S
O2159 Eu2112 2.339 . S
O2159 C2175 1.254 . S
O2160 Eu2112 2.559 1_556 S
O2160 C2168 1.227 1_556 S
O2161 Eu2112 2.419 1_655 S
O2161 C2176 1.249 1_554 S
O2162 Eu2123 2.558 . S
O2162 C2187 1.257 . S
O2163 Eu2112 2.380 . S
O2163 Eu2123 2.612 . S
O2163 C2179 1.276 1_545 S
O2164 Eu2112 2.432 1_556 S
O2164 C2186 1.264 . S
O2165 Eu2123 2.339 1_556 S
O2165 C2186 1.254 . S
O2166 Eu2123 2.563 . S
O2166 C2179 1.235 1_545 S
O2167 Eu2123 2.419 . S
O2167 C2187 1.249 . S
C2168 O2157 1.276 . S
C2168 O2160 1.227 1_554 S
C2169 C2171 1.393 1_556 S
C2169 C2173 1.395 . S
C2169 C2176 1.492 . S
C2170 C2171 1.392 1_556 S
C2170 C2172 1.386 . S
C2171 C2169 1.393 1_554 S
C2171 C2170 1.392 1_554 S
C2171 H2188 0.930 . S
C2172 C2170 1.386 . S
C2172 C2174 1.395 . S
C2172 H2189 0.930 . S
C2173 C2169 1.395 . S
C2173 C2174 1.379 . S
C2173 H2190 0.930 . S
C2174 C2172 1.395 . S
C2174 C2173 1.379 . S
C2174 H2191 0.930 . S
C2175 O2158 1.264 . S
C2175 O2159 1.254 . S
C2176 Eu2112 2.848 1_656 S
C2176 O2156 1.257 . S
C2176 O2161 1.249 1_556 S
C2176 C2169 1.492 . S
C2177 H2142 0.931 . S
C2177 C2155 1.420 . S
C2177 C2178 1.351 . S
C2178 H2140 0.924 1_556 S
C2178 C2146 1.423 1_556 S
C2178 C2177 1.351 . S
C2179 O2163 1.276 1_565 S
C2179 O2166 1.235 1_565 S
C2180 C2181 1.393 . S
C2180 C2184 1.395 . S
C2180 C2187 1.492 . S
C2181 C2180 1.393 . S
C2181 C2182 1.392 . S
C2181 H2192 0.930 . S
C2182 C2181 1.392 . S
C2182 C2183 1.386 . S
C2183 C2182 1.386 . S
C2183 C2185 1.395 . S
C2183 H2193 0.930 . S
C2184 C2180 1.395 . S
C2184 C2185 1.379 . S
C2184 H2194 0.930 . S
C2185 C2183 1.395 . S
C2185 C2184 1.379 . S
C2185 H2195 0.930 . S
C2186 O2164 1.264 . S
C2186 O2165 1.254 . S
C2187 Eu2123 2.848 . S
C2187 O2162 1.257 . S
C2187 O2167 1.249 . S
C2187 C2180 1.492 . S
H2188 C2171 0.930 . S
H2189 C2172 0.930 . S
H2190 C2173 0.930 . S
H2191 C2174 0.930 . S
H2192 C2181 0.930 . S
H2193 C2183 0.930 . S
H2194 C2184 0.930 . S
H2195 C2185 0.930 . S
Eu2196 N2227 2.657 . S
Eu2196 N2234 2.609 . S
Eu2196 O2240 2.558 . S
Eu2196 O2241 2.612 . S
Eu2196 O2243 2.339 . S
Eu2196 O2244 2.563 . S
Eu2196 O2245 2.419 . S
Eu2196 O2247 2.380 . S
Eu2196 O2248 2.432 . S
Eu2196 C2260 2.848 . S
C2197 C2200 1.429 . S
C2197 C2201 1.411 . S
C2197 N2204 1.377 . S
C2198 C2200 1.420 . S
C2198 C2202 1.423 . S
C2198 C2210 1.392 . S
C2199 C2201 1.420 . S
C2199 C2202 1.351 . S
C2199 H2222 0.931 . S
C2200 C2197 1.429 . S
C2200 C2198 1.420 . S
C2200 N2208 1.362 . S
C2201 C2197 1.411 . S
C2201 C2199 1.420 . S
C2201 C2206 1.395 . S
C2202 C2198 1.423 . S
C2202 C2199 1.351 . S
C2202 H2214 0.930 . S
C2203 C2205 1.400 . S
C2203 C2206 1.386 . S
C2203 H2215 0.930 . S
N2204 C2197 1.377 . S
N2204 C2205 1.321 . S
N2204 Eu2207 2.609 . S
C2205 C2203 1.400 . S
C2205 N2204 1.321 . S
C2205 H2212 0.930 . S
C2206 C2201 1.395 . S
C2206 C2203 1.386 . S
C2206 H2225 0.930 . S
Eu2207 N2204 2.609 . S
Eu2207 N2208 2.657 . S
Eu2207 O2241 2.380 . S
Eu2207 O2242 2.432 . S
Eu2207 O2246 2.558 . S
Eu2207 O2247 2.612 . S
Eu2207 O2249 2.339 . S
Eu2207 O2250 2.563 . S
Eu2207 O2251 2.419 . S
Eu2207 C2271 2.848 . S
N2208 C2200 1.362 . S
N2208 Eu2207 2.657 . S
N2208 C2209 1.334 . S
C2209 N2208 1.334 . S
C2209 C2211 1.413 . S
C2209 H2216 0.929 . S
C2210 C2198 1.392 . S
C2210 C2211 1.367 . S
C2210 H2218 0.930 . S
C2211 C2209 1.413 . S
C2211 C2210 1.367 . S
C2211 H2213 0.930 . S
H2212 C2205 0.930 . S
H2213 C2211 0.930 . S
H2214 C2202 0.930 . S
H2215 C2203 0.930 . S
H2216 C2209 0.929 . S
H2217 C2231 0.930 . S
H2218 C2210 0.930 . S
H2219 C2237 0.930 . S
H2220 C2228 0.929 . S
H2221 C2235 0.930 . S
H2222 C2199 0.931 . S
H2223 C2229 0.930 . S
H2224 C2262 0.930 . S
H2225 C2206 0.930 . S
H2226 C2261 0.931 . S
N2227 Eu2196 2.657 . S
N2227 C2228 1.334 . S
N2227 C2232 1.362 . S
C2228 H2220 0.929 . S
C2228 N2227 1.334 . S
C2228 C2231 1.413 . S
C2229 H2223 0.930 . S
C2229 C2230 1.392 . S
C2229 C2231 1.367 . S
C2230 C2229 1.392 . S
C2230 C2232 1.420 . S
C2230 C2262 1.423 . S
C2231 H2217 0.930 . S
C2231 C2228 1.413 . S
C2231 C2229 1.367 . S
C2232 N2227 1.362 . S
C2232 C2230 1.420 . S
C2232 C2236 1.429 . S
H2233 C2238 0.930 . S
N2234 Eu2196 2.609 . S
N2234 C2236 1.377 . S
N2234 C2237 1.321 . S
C2235 H2221 0.930 . S
C2235 C2237 1.400 . S
C2235 C2238 1.386 . S
C2236 C2232 1.429 . S
C2236 N2234 1.377 . S
C2236 C2239 1.411 . S
C2237 H2219 0.930 . S
C2237 N2234 1.321 . S
C2237 C2235 1.400 . S
C2238 H2233 0.930 . S
C2238 C2235 1.386 . S
C2238 C2239 1.395 . S
C2239 C2236 1.411 . S
C2239 C2238 1.395 . S
C2239 C2261 1.420 . S
O2240 Eu2196 2.558 . S
O2240 C2260 1.257 . S
O2241 Eu2196 2.612 . S
O2241 Eu2207 2.380 . S
O2241 C2252 1.276 . S
O2242 Eu2207 2.432 . S
O2242 C2259 1.264 . S
O2243 Eu2196 2.339 . S
O2243 C2259 1.254 . S
O2244 Eu2196 2.563 . S
O2244 C2252 1.235 . S
O2245 Eu2196 2.419 . S
O2245 C2260 1.249 . S
O2246 Eu2207 2.558 . S
O2246 C2271 1.257 . S
O2247 Eu2196 2.380 . S
O2247 Eu2207 2.612 . S
O2247 C2263 1.276 . S
O2248 Eu2196 2.432 . S
O2248 C2270 1.264 . S
O2249 Eu2207 2.339 . S
O2249 C2270 1.254 . S
O2250 Eu2207 2.563 . S
O2250 C2263 1.235 . S
O2251 Eu2207 2.419 . S
O2251 C2271 1.249 . S
C2252 O2241 1.276 . S
C2252 O2244 1.235 . S
C2253 C2255 1.393 . S
C2253 C2257 1.395 . S
C2253 C2260 1.492 . S
C2254 C2255 1.392 . S
C2254 C2256 1.386 . S
C2255 C2253 1.393 . S
C2255 C2254 1.392 . S
C2255 H2272 0.930 . S
C2256 C2254 1.386 . S
C2256 C2258 1.395 . S
C2256 H2273 0.930 . S
C2257 C2253 1.395 . S
C2257 C2258 1.379 . S
C2257 H2274 0.930 . S
C2258 C2256 1.395 . S
C2258 C2257 1.379 . S
C2258 H2275 0.930 . S
C2259 O2242 1.264 . S
C2259 O2243 1.254 . S
C2260 Eu2196 2.848 . S
C2260 O2240 1.257 . S
C2260 O2245 1.249 . S
C2260 C2253 1.492 . S
C2261 H2226 0.931 . S
C2261 C2239 1.420 . S
C2261 C2262 1.351 . S
C2262 H2224 0.930 . S
C2262 C2230 1.423 . S
C2262 C2261 1.351 . S
C2263 O2247 1.276 . S
C2263 O2250 1.235 . S
C2264 C2265 1.393 . S
C2264 C2268 1.395 . S
C2264 C2271 1.492 . S
C2265 C2264 1.393 . S
C2265 C2266 1.392 . S
C2265 H2276 0.930 . S
C2266 C2265 1.392 . S
C2266 C2267 1.386 . S
C2267 C2266 1.386 . S
C2267 C2269 1.395 . S
C2267 H2277 0.930 . S
C2268 C2264 1.395 . S
C2268 C2269 1.379 . S
C2268 H2278 0.930 . S
C2269 C2267 1.395 . S
C2269 C2268 1.379 . S
C2269 H2279 0.930 . S
C2270 O2248 1.264 . S
C2270 O2249 1.254 . S
C2271 Eu2207 2.848 . S
C2271 O2246 1.257 . S
C2271 O2251 1.249 . S
C2271 C2264 1.492 . S
H2272 C2255 0.930 . S
H2273 C2256 0.930 . S
H2274 C2257 0.930 . S
H2275 C2258 0.930 . S
H2276 C2265 0.930 . S
H2277 C2267 0.930 . S
H2278 C2268 0.930 . S
H2279 C2269 0.930 . S
Eu2280 N2311 2.657 . S
Eu2280 N2318 2.609 . S
Eu2280 O2324 2.558 . S
Eu2280 O2325 2.612 . S
Eu2280 O2327 2.339 . S
Eu2280 O2328 2.563 1_545 S
Eu2280 O2329 2.419 . S
Eu2280 O2331 2.380 . S
Eu2280 O2332 2.432 . S
Eu2280 C2344 2.848 . S
C2281 C2284 1.429 . S
C2281 C2285 1.411 . S
C2281 N2288 1.377 1_565 S
C2282 C2284 1.420 . S
C2282 C2286 1.423 . S
C2282 C2294 1.392 . S
C2283 C2285 1.420 . S
C2283 C2286 1.351 . S
C2283 H2306 0.931 . S
C2284 C2281 1.429 . S
C2284 C2282 1.420 . S
C2284 N2292 1.362 . S
C2285 C2281 1.411 . S
C2285 C2283 1.420 . S
C2285 C2290 1.395 . S
C2286 C2282 1.423 . S
C2286 C2283 1.351 . S
C2286 H2298 0.930 . S
C2287 C2289 1.400 . S
C2287 C2290 1.386 1_545 S
C2287 H2299 0.930 . S
N2288 C2281 1.377 1_545 S
N2288 C2289 1.321 . S
N2288 Eu2291 2.609 . S
C2289 C2287 1.400 . S
C2289 N2288 1.321 . S
C2289 H2296 0.930 . S
C2290 C2285 1.395 . S
C2290 C2287 1.386 1_565 S
C2290 H2309 0.930 . S
Eu2291 N2288 2.609 . S
Eu2291 N2292 2.657 1_545 S
Eu2291 O2325 2.380 . S
Eu2291 O2326 2.432 . S
Eu2291 O2330 2.558 . S
Eu2291 O2331 2.612 . S
Eu2291 O2333 2.339 . S
Eu2291 O2334 2.563 . S
Eu2291 O2335 2.419 . S
Eu2291 C2355 2.848 . S
N2292 C2284 1.362 . S
N2292 Eu2291 2.657 1_565 S
N2292 C2293 1.334 . S
C2293 N2292 1.334 . S
C2293 C2295 1.413 . S
C2293 H2300 0.929 . S
C2294 C2282 1.392 . S
C2294 C2295 1.367 . S
C2294 H2302 0.930 . S
C2295 C2293 1.413 . S
C2295 C2294 1.367 . S
C2295 H2297 0.930 . S
H2296 C2289 0.930 . S
H2297 C2295 0.930 . S
H2298 C2286 0.930 . S
H2299 C2287 0.930 . S
H2300 C2293 0.929 . S
H2301 C2315 0.930 . S
H2302 C2294 0.930 . S
H2303 C2321 0.930 . S
H2304 C2312 0.929 . S
H2305 C2319 0.930 . S
H2306 C2283 0.931 . S
H2307 C2313 0.930 . S
H2308 C2346 0.930 . S
H2309 C2290 0.930 . S
H2310 C2345 0.931 . S
N2311 Eu2280 2.657 . S
N2311 C2312 1.334 . S
N2311 C2316 1.362 . S
C2312 H2304 0.929 . S
C2312 N2311 1.334 . S
C2312 C2315 1.413 . S
C2313 H2307 0.930 . S
C2313 C2314 1.392 . S
C2313 C2315 1.367 . S
C2314 C2313 1.392 . S
C2314 C2316 1.420 . S
C2314 C2346 1.423 . S
C2315 H2301 0.930 . S
C2315 C2312 1.413 . S
C2315 C2313 1.367 . S
C2316 N2311 1.362 . S
C2316 C2314 1.420 . S
C2316 C2320 1.429 . S
H2317 C2322 0.930 . S
N2318 Eu2280 2.609 . S
N2318 C2320 1.377 . S
N2318 C2321 1.321 . S
C2319 H2305 0.930 . S
C2319 C2321 1.400 . S
C2319 C2322 1.386 . S
C2320 C2316 1.429 . S
C2320 N2318 1.377 . S
C2320 C2323 1.411 . S
C2321 H2303 0.930 . S
C2321 N2318 1.321 . S
C2321 C2319 1.400 . S
C2322 H2317 0.930 . S
C2322 C2319 1.386 . S
C2322 C2323 1.395 . S
C2323 C2320 1.411 . S
C2323 C2322 1.395 . S
C2323 C2345 1.420 . S
O2324 Eu2280 2.558 . S
O2324 C2344 1.257 . S
O2325 Eu2280 2.612 . S
O2325 Eu2291 2.380 . S
O2325 C2336 1.276 1_545 S
O2326 Eu2291 2.432 . S
O2326 C2343 1.264 . S
O2327 Eu2280 2.339 . S
O2327 C2343 1.254 . S
O2328 Eu2280 2.563 1_565 S
O2328 C2336 1.235 . S
O2329 Eu2280 2.419 . S
O2329 C2344 1.249 . S
O2330 Eu2291 2.558 . S
O2330 C2355 1.257 . S
O2331 Eu2280 2.380 . S
O2331 Eu2291 2.612 . S
O2331 C2347 1.276 . S
O2332 Eu2280 2.432 . S
O2332 C2354 1.264 . S
O2333 Eu2291 2.339 . S
O2333 C2354 1.254 . S
O2334 Eu2291 2.563 . S
O2334 C2347 1.235 . S
O2335 Eu2291 2.419 . S
O2335 C2355 1.249 . S
C2336 O2325 1.276 1_565 S
C2336 O2328 1.235 . S
C2337 C2339 1.393 1_545 S
C2337 C2341 1.395 . S
C2337 C2344 1.492 . S
C2338 C2339 1.392 . S
C2338 C2340 1.386 . S
C2339 C2337 1.393 1_565 S
C2339 C2338 1.392 . S
C2339 H2356 0.930 . S
C2340 C2338 1.386 . S
C2340 C2342 1.395 . S
C2340 H2357 0.930 . S
C2341 C2337 1.395 . S
C2341 C2342 1.379 1_545 S
C2341 H2358 0.930 . S
C2342 C2340 1.395 . S
C2342 C2341 1.379 1_565 S
C2342 H2359 0.930 . S
C2343 O2326 1.264 . S
C2343 O2327 1.254 . S
C2344 Eu2280 2.848 . S
C2344 O2324 1.257 . S
C2344 O2329 1.249 . S
C2344 C2337 1.492 . S
C2345 H2310 0.931 . S
C2345 C2323 1.420 . S
C2345 C2346 1.351 . S
C2346 H2308 0.930 . S
C2346 C2314 1.423 . S
C2346 C2345 1.351 . S
C2347 O2331 1.276 . S
C2347 O2334 1.235 . S
C2348 C2349 1.393 . S
C2348 C2352 1.395 . S
C2348 C2355 1.492 . S
C2349 C2348 1.393 . S
C2349 C2350 1.392 . S
C2349 H2360 0.930 . S
C2350 C2349 1.392 . S
C2350 C2351 1.386 . S
C2351 C2350 1.386 . S
C2351 C2353 1.395 . S
C2351 H2361 0.930 . S
C2352 C2348 1.395 . S
C2352 C2353 1.379 . S
C2352 H2362 0.930 . S
C2353 C2351 1.395 . S
C2353 C2352 1.379 . S
C2353 H2363 0.930 . S
C2354 O2332 1.264 . S
C2354 O2333 1.254 . S
C2355 Eu2291 2.848 . S
C2355 O2330 1.257 . S
C2355 O2335 1.249 . S
C2355 C2348 1.492 . S
H2356 C2339 0.930 . S
H2357 C2340 0.930 . S
H2358 C2341 0.930 . S
H2359 C2342 0.930 . S
H2360 C2349 0.930 . S
H2361 C2351 0.930 . S
H2362 C2352 0.930 . S
H2363 C2353 0.930 . S
Eu2364 N2395 2.657 . S
Eu2364 N2402 2.609 . S
Eu2364 O2408 2.558 . S
Eu2364 O2409 2.612 . S
Eu2364 O2411 2.339 . S
Eu2364 O2412 2.563 . S
Eu2364 O2413 2.419 . S
Eu2364 O2415 2.380 . S
Eu2364 O2416 2.432 . S
Eu2364 C2428 2.848 . S
C2365 C2368 1.429 . S
C2365 C2369 1.411 . S
C2365 N2372 1.377 . S
C2366 C2368 1.420 . S
C2366 C2370 1.423 . S
C2366 C2378 1.392 . S
C2367 C2369 1.420 . S
C2367 C2370 1.351 . S
C2367 H2390 0.931 . S
C2368 C2365 1.429 . S
C2368 C2366 1.420 . S
C2368 N2376 1.362 . S
C2369 C2365 1.411 . S
C2369 C2367 1.420 . S
C2369 C2374 1.395 . S
C2370 C2366 1.423 . S
C2370 C2367 1.351 . S
C2370 H2382 0.930 . S
C2371 C2373 1.400 . S
C2371 C2374 1.386 . S
C2371 H2383 0.930 . S
N2372 C2365 1.377 . S
N2372 C2373 1.321 . S
N2372 Eu2375 2.609 . S
C2373 C2371 1.400 . S
C2373 N2372 1.321 . S
C2373 H2380 0.930 . S
C2374 C2369 1.395 . S
C2374 C2371 1.386 . S
C2374 H2393 0.930 . S
Eu2375 N2372 2.609 . S
Eu2375 N2376 2.657 . S
Eu2375 O2409 2.380 . S
Eu2375 O2410 2.432 . S
Eu2375 O2414 2.558 . S
Eu2375 O2415 2.612 . S
Eu2375 O2417 2.339 . S
Eu2375 O2418 2.563 . S
Eu2375 O2419 2.419 . S
Eu2375 C2439 2.848 . S
N2376 C2368 1.362 . S
N2376 Eu2375 2.657 . S
N2376 C2377 1.334 . S
C2377 N2376 1.334 . S
C2377 C2379 1.413 . S
C2377 H2384 0.929 . S
C2378 C2366 1.392 . S
C2378 C2379 1.367 . S
C2378 H2386 0.930 . S
C2379 C2377 1.413 . S
C2379 C2378 1.367 . S
C2379 H2381 0.930 . S
H2380 C2373 0.930 . S
H2381 C2379 0.930 . S
H2382 C2370 0.930 . S
H2383 C2371 0.930 . S
H2384 C2377 0.929 . S
H2385 C2399 0.930 . S
H2386 C2378 0.930 . S
H2387 C2405 0.930 . S
H2388 C2396 0.929 . S
H2389 C2403 0.930 . S
H2390 C2367 0.931 . S
H2391 C2397 0.930 . S
H2392 C2430 0.930 . S
H2393 C2374 0.930 . S
H2394 C2429 0.931 . S
N2395 Eu2364 2.657 . S
N2395 C2396 1.334 . S
N2395 C2400 1.362 . S
C2396 H2388 0.929 . S
C2396 N2395 1.334 . S
C2396 C2399 1.413 . S
C2397 H2391 0.930 . S
C2397 C2398 1.392 . S
C2397 C2399 1.367 . S
C2398 C2397 1.392 . S
C2398 C2400 1.420 . S
C2398 C2430 1.423 . S
C2399 H2385 0.930 . S
C2399 C2396 1.413 . S
C2399 C2397 1.367 . S
C2400 N2395 1.362 . S
C2400 C2398 1.420 . S
C2400 C2404 1.429 . S
H2401 C2406 0.930 . S
N2402 Eu2364 2.609 . S
N2402 C2404 1.377 . S
N2402 C2405 1.321 . S
C2403 H2389 0.930 . S
C2403 C2405 1.400 . S
C2403 C2406 1.386 . S
C2404 C2400 1.429 . S
C2404 N2402 1.377 . S
C2404 C2407 1.411 . S
C2405 H2387 0.930 . S
C2405 N2402 1.321 . S
C2405 C2403 1.400 . S
C2406 H2401 0.930 . S
C2406 C2403 1.386 . S
C2406 C2407 1.395 . S
C2407 C2404 1.411 . S
C2407 C2406 1.395 . S
C2407 C2429 1.420 . S
O2408 Eu2364 2.558 . S
O2408 C2428 1.257 . S
O2409 Eu2364 2.612 . S
O2409 Eu2375 2.380 . S
O2409 C2420 1.276 . S
O2410 Eu2375 2.432 . S
O2410 C2427 1.264 . S
O2411 Eu2364 2.339 . S
O2411 C2427 1.254 . S
O2412 Eu2364 2.563 . S
O2412 C2420 1.235 . S
O2413 Eu2364 2.419 . S
O2413 C2428 1.249 . S
O2414 Eu2375 2.558 . S
O2414 C2439 1.257 . S
O2415 Eu2364 2.380 . S
O2415 Eu2375 2.612 . S
O2415 C2431 1.276 . S
O2416 Eu2364 2.432 . S
O2416 C2438 1.264 . S
O2417 Eu2375 2.339 . S
O2417 C2438 1.254 . S
O2418 Eu2375 2.563 . S
O2418 C2431 1.235 . S
O2419 Eu2375 2.419 . S
O2419 C2439 1.249 . S
C2420 O2409 1.276 . S
C2420 O2412 1.235 . S
C2421 C2423 1.393 . S
C2421 C2425 1.395 . S
C2421 C2428 1.492 . S
C2422 C2423 1.392 . S
C2422 C2424 1.386 . S
C2423 C2421 1.393 . S
C2423 C2422 1.392 . S
C2423 H2440 0.930 . S
C2424 C2422 1.386 . S
C2424 C2426 1.395 . S
C2424 H2441 0.930 . S
C2425 C2421 1.395 . S
C2425 C2426 1.379 . S
C2425 H2442 0.930 . S
C2426 C2424 1.395 . S
C2426 C2425 1.379 . S
C2426 H2443 0.930 . S
C2427 O2410 1.264 . S
C2427 O2411 1.254 . S
C2428 Eu2364 2.848 . S
C2428 O2408 1.257 . S
C2428 O2413 1.249 . S
C2428 C2421 1.492 . S
C2429 H2394 0.931 . S
C2429 C2407 1.420 . S
C2429 C2430 1.351 . S
C2430 H2392 0.930 . S
C2430 C2398 1.423 . S
C2430 C2429 1.351 . S
C2431 O2415 1.276 . S
C2431 O2418 1.235 . S
C2432 C2433 1.393 . S
C2432 C2436 1.395 . S
C2432 C2439 1.492 . S
C2433 C2432 1.393 . S
C2433 C2434 1.392 . S
C2433 H2444 0.930 . S
C2434 C2433 1.392 . S
C2434 C2435 1.386 . S
C2435 C2434 1.386 . S
C2435 C2437 1.395 . S
C2435 H2445 0.930 . S
C2436 C2432 1.395 . S
C2436 C2437 1.379 . S
C2436 H2446 0.930 . S
C2437 C2435 1.395 . S
C2437 C2436 1.379 . S
C2437 H2447 0.930 . S
C2438 O2416 1.264 . S
C2438 O2417 1.254 . S
C2439 Eu2375 2.848 . S
C2439 O2414 1.257 . S
C2439 O2419 1.249 . S
C2439 C2432 1.492 . S
H2440 C2423 0.930 . S
H2441 C2424 0.930 . S
H2442 C2425 0.930 . S
H2443 C2426 0.930 . S
H2444 C2433 0.930 . S
H2445 C2435 0.930 . S
H2446 C2436 0.930 . S
H2447 C2437 0.930 . S
Eu2448 N2479 2.657 . S
Eu2448 N2486 2.609 . S
Eu2448 O2492 2.558 . S
Eu2448 O2493 2.612 . S
Eu2448 O2495 2.339 . S
Eu2448 O2496 2.563 . S
Eu2448 O2497 2.419 . S
Eu2448 O2499 2.380 . S
Eu2448 O2500 2.432 . S
Eu2448 C2512 2.848 . S
C2449 C2452 1.429 . S
C2449 C2453 1.411 . S
C2449 N2456 1.377 . S
C2450 C2452 1.420 . S
C2450 C2454 1.423 . S
C2450 C2462 1.392 . S
C2451 C2453 1.420 . S
C2451 C2454 1.351 . S
C2451 H2474 0.931 . S
C2452 C2449 1.429 . S
C2452 C2450 1.420 . S
C2452 N2460 1.362 . S
C2453 C2449 1.411 . S
C2453 C2451 1.420 . S
C2453 C2458 1.395 . S
C2454 C2450 1.423 . S
C2454 C2451 1.351 . S
C2454 H2466 0.930 . S
C2455 C2457 1.400 . S
C2455 C2458 1.386 . S
C2455 H2467 0.930 . S
N2456 C2449 1.377 . S
N2456 C2457 1.321 . S
N2456 Eu2459 2.609 1_565 S
C2457 C2455 1.400 . S
C2457 N2456 1.321 . S
C2457 H2464 0.930 . S
C2458 C2453 1.395 . S
C2458 C2455 1.386 . S
C2458 H2477 0.930 . S
Eu2459 N2456 2.609 1_545 S
Eu2459 N2460 2.657 1_545 S
Eu2459 O2493 2.380 . S
Eu2459 O2494 2.432 . S
Eu2459 O2498 2.558 1_545 S
Eu2459 O2499 2.612 . S
Eu2459 O2501 2.334 . S
Eu2459 O2502 2.563 . S
Eu2459 O2503 2.419 1_545 S
Eu2459 C2523 2.848 1_545 S
N2460 C2452 1.362 . S
N2460 Eu2459 2.657 1_565 S
N2460 C2461 1.334 . S
C2461 N2460 1.334 . S
C2461 C2463 1.424 . S
C2461 H2468 0.929 . S
C2462 C2450 1.392 . S
C2462 C2463 1.379 . S
C2462 H2470 0.929 . S
C2463 C2461 1.424 . S
C2463 C2462 1.379 . S
C2463 H2465 0.909 1_455 S
H2464 C2457 0.930 . S
H2465 C2463 0.909 1_655 S
H2466 C2454 0.930 . S
H2467 C2455 0.930 . S
H2468 C2461 0.929 . S
H2469 C2483 0.930 . S
H2470 C2462 0.929 . S
H2471 C2489 0.930 . S
H2472 C2480 0.929 . S
H2473 C2487 0.922 1_655 S
H2474 C2451 0.931 . S
H2475 C2481 0.930 . S
H2476 C2514 0.930 . S
H2477 C2458 0.930 . S
H2478 C2513 0.931 . S
N2479 Eu2448 2.657 . S
N2479 C2480 1.334 . S
N2479 C2484 1.362 . S
C2480 H2472 0.929 . S
C2480 N2479 1.334 . S
C2480 C2483 1.413 . S
C2481 H2475 0.930 . S
C2481 C2482 1.392 . S
C2481 C2483 1.367 . S
C2482 C2481 1.392 . S
C2482 C2484 1.420 . S
C2482 C2514 1.423 . S
C2483 H2469 0.930 . S
C2483 C2480 1.413 . S
C2483 C2481 1.367 . S
C2484 N2479 1.362 . S
C2484 C2482 1.420 . S
C2484 C2488 1.429 . S
H2485 C2490 0.930 . S
N2486 Eu2448 2.609 . S
N2486 C2488 1.377 . S
N2486 C2489 1.321 . S
C2487 H2473 0.922 1_455 S
C2487 C2489 1.404 . S
C2487 C2490 1.389 . S
C2488 C2484 1.429 . S
C2488 N2486 1.377 . S
C2488 C2491 1.411 . S
C2489 H2471 0.930 . S
C2489 N2486 1.321 . S
C2489 C2487 1.404 . S
C2490 H2485 0.930 . S
C2490 C2487 1.389 . S
C2490 C2491 1.395 . S
C2491 C2488 1.411 . S
C2491 C2490 1.395 . S
C2491 C2513 1.420 . S
O2492 Eu2448 2.558 . S
O2492 C2512 1.257 . S
O2493 Eu2448 2.612 . S
O2493 Eu2459 2.380 . S
O2493 C2504 1.276 . S
O2494 Eu2459 2.432 . S
O2494 C2511 1.264 . S
O2495 Eu2448 2.339 . S
O2495 C2511 1.254 . S
O2496 Eu2448 2.563 . S
O2496 C2504 1.235 . S
O2497 Eu2448 2.419 . S
O2497 C2512 1.249 . S
O2498 Eu2459 2.558 1_565 S
O2498 C2523 1.257 . S
O2499 Eu2448 2.380 . S
O2499 Eu2459 2.612 . S
O2499 C2515 1.276 . S
O2500 Eu2448 2.432 . S
O2500 C2522 1.264 . S
O2501 Eu2459 2.334 . S
O2501 C2522 1.274 . S
O2502 Eu2459 2.563 . S
O2502 C2515 1.235 . S
O2503 Eu2459 2.419 1_565 S
O2503 C2523 1.249 . S
C2504 O2493 1.276 . S
C2504 O2496 1.235 . S
C2505 C2507 1.393 . S
C2505 C2509 1.395 . S
C2505 C2512 1.492 . S
C2506 C2507 1.392 . S
C2506 C2508 1.386 . S
C2507 C2505 1.393 . S
C2507 C2506 1.392 . S
C2507 H2524 0.930 . S
C2508 C2506 1.386 . S
C2508 C2510 1.395 . S
C2508 H2525 0.930 . S
C2509 C2505 1.395 . S
C2509 C2510 1.379 . S
C2509 H2526 0.930 . S
C2510 C2508 1.395 . S
C2510 C2509 1.379 . S
C2510 H2527 0.930 . S
C2511 O2494 1.264 . S
C2511 O2495 1.254 . S
C2512 Eu2448 2.848 . S
C2512 O2492 1.257 . S
C2512 O2497 1.249 . S
C2512 C2505 1.492 . S
C2513 H2478 0.931 . S
C2513 C2491 1.420 . S
C2513 C2514 1.351 . S
C2514 H2476 0.930 . S
C2514 C2482 1.423 . S
C2514 C2513 1.351 . S
C2515 O2499 1.276 . S
C2515 O2502 1.235 . S
C2516 C2517 1.393 . S
C2516 C2520 1.395 . S
C2516 C2523 1.492 . S
C2517 C2516 1.393 . S
C2517 C2518 1.392 . S
C2517 H2528 0.930 . S
C2518 C2517 1.392 . S
C2518 C2519 1.386 . S
C2519 C2518 1.386 . S
C2519 C2521 1.395 . S
C2519 H2529 0.930 . S
C2520 C2516 1.395 . S
C2520 C2521 1.379 . S
C2520 H2530 0.930 . S
C2521 C2519 1.395 . S
C2521 C2520 1.379 . S
C2521 H2531 0.930 . S
C2522 O2500 1.264 . S
C2522 O2501 1.274 . S
C2523 Eu2459 2.848 1_565 S
C2523 O2498 1.257 . S
C2523 O2503 1.249 . S
C2523 C2516 1.492 . S
H2524 C2507 0.930 . S
H2525 C2508 0.930 . S
H2526 C2509 0.930 . S
H2527 C2510 0.930 . S
H2528 C2517 0.930 . S
H2529 C2519 0.930 . S
H2530 C2520 0.930 . S
H2531 C2521 0.930 . S
Eu2532 N2563 2.657 . S
Eu2532 N2570 2.609 . S
Eu2532 O2576 2.558 . S
Eu2532 O2577 2.612 . S
Eu2532 O2579 2.339 . S
Eu2532 O2580 2.563 . S
Eu2532 O2581 2.419 . S
Eu2532 O2583 2.380 . S
Eu2532 O2584 2.432 . S
Eu2532 C2596 2.848 . S
C2533 C2536 1.429 . S
C2533 C2537 1.411 . S
C2533 N2540 1.377 . S
C2534 C2536 1.420 . S
C2534 C2538 1.423 . S
C2534 C2546 1.392 . S
C2535 C2537 1.420 . S
C2535 C2538 1.351 . S
C2535 H2558 0.931 . S
C2536 C2533 1.429 . S
C2536 C2534 1.420 . S
C2536 N2544 1.362 . S
C2537 C2533 1.411 . S
C2537 C2535 1.420 . S
C2537 C2542 1.395 . S
C2538 C2534 1.423 . S
C2538 C2535 1.351 . S
C2538 H2550 0.930 . S
C2539 C2541 1.400 . S
C2539 C2542 1.386 . S
C2539 H2551 0.930 . S
N2540 C2533 1.377 . S
N2540 C2541 1.321 . S
N2540 Eu2543 2.609 . S
C2541 C2539 1.400 . S
C2541 N2540 1.321 . S
C2541 H2548 0.930 . S
C2542 C2537 1.395 . S
C2542 C2539 1.386 . S
C2542 H2561 0.930 . S
Eu2543 N2540 2.609 . S
Eu2543 N2544 2.657 . S
Eu2543 O2577 2.380 . S
Eu2543 O2578 2.432 . S
Eu2543 O2582 2.558 . S
Eu2543 O2583 2.612 . S
Eu2543 O2585 2.339 . S
Eu2543 O2586 2.563 . S
Eu2543 O2587 2.419 . S
Eu2543 C2607 2.848 . S
N2544 C2536 1.362 . S
N2544 Eu2543 2.657 . S
N2544 C2545 1.334 . S
C2545 N2544 1.334 . S
C2545 C2547 1.413 . S
C2545 H2552 0.929 . S
C2546 C2534 1.392 . S
C2546 C2547 1.367 . S
C2546 H2554 0.930 . S
C2547 C2545 1.413 . S
C2547 C2546 1.367 . S
C2547 H2549 0.930 . S
H2548 C2541 0.930 . S
H2549 C2547 0.930 . S
H2550 C2538 0.930 . S
H2551 C2539 0.930 . S
H2552 C2545 0.929 . S
H2553 C2567 0.930 . S
H2554 C2546 0.930 . S
H2555 C2573 0.930 . S
H2556 C2564 0.929 . S
H2557 C2571 0.930 . S
H2558 C2535 0.931 . S
H2559 C2565 0.930 . S
H2560 C2598 0.930 . S
H2561 C2542 0.930 . S
H2562 C2597 0.931 . S
N2563 Eu2532 2.657 . S
N2563 C2564 1.334 . S
N2563 C2568 1.362 . S
C2564 H2556 0.929 . S
C2564 N2563 1.334 . S
C2564 C2567 1.413 . S
C2565 H2559 0.930 . S
C2565 C2566 1.392 . S
C2565 C2567 1.367 . S
C2566 C2565 1.392 . S
C2566 C2568 1.420 . S
C2566 C2598 1.423 . S
C2567 H2553 0.930 . S
C2567 C2564 1.413 . S
C2567 C2565 1.367 . S
C2568 N2563 1.362 . S
C2568 C2566 1.420 . S
C2568 C2572 1.429 . S
H2569 C2574 0.930 . S
N2570 Eu2532 2.609 . S
N2570 C2572 1.377 . S
N2570 C2573 1.321 . S
C2571 H2557 0.930 . S
C2571 C2573 1.400 . S
C2571 C2574 1.386 . S
C2572 C2568 1.429 . S
C2572 N2570 1.377 . S
C2572 C2575 1.411 . S
C2573 H2555 0.930 . S
C2573 N2570 1.321 . S
C2573 C2571 1.400 . S
C2574 H2569 0.930 . S
C2574 C2571 1.386 . S
C2574 C2575 1.395 . S
C2575 C2572 1.411 . S
C2575 C2574 1.395 . S
C2575 C2597 1.420 . S
O2576 Eu2532 2.558 . S
O2576 C2596 1.257 . S
O2577 Eu2532 2.612 . S
O2577 Eu2543 2.380 . S
O2577 C2588 1.276 . S
O2578 Eu2543 2.432 . S
O2578 C2595 1.264 . S
O2579 Eu2532 2.339 . S
O2579 C2595 1.254 . S
O2580 Eu2532 2.563 . S
O2580 C2588 1.235 . S
O2581 Eu2532 2.419 . S
O2581 C2596 1.249 . S
O2582 Eu2543 2.558 . S
O2582 C2607 1.257 . S
O2583 Eu2532 2.380 . S
O2583 Eu2543 2.612 . S
O2583 C2599 1.276 . S
O2584 Eu2532 2.432 . S
O2584 C2606 1.264 . S
O2585 Eu2543 2.339 . S
O2585 C2606 1.254 . S
O2586 Eu2543 2.563 . S
O2586 C2599 1.235 . S
O2587 Eu2543 2.419 . S
O2587 C2607 1.249 . S
C2588 O2577 1.276 . S
C2588 O2580 1.235 . S
C2589 C2591 1.393 . S
C2589 C2593 1.395 . S
C2589 C2596 1.492 . S
C2590 C2591 1.392 . S
C2590 C2592 1.386 . S
C2591 C2589 1.393 . S
C2591 C2590 1.392 . S
C2591 H2608 0.930 . S
C2592 C2590 1.386 . S
C2592 C2594 1.395 . S
C2592 H2609 0.930 . S
C2593 C2589 1.395 . S
C2593 C2594 1.379 . S
C2593 H2610 0.930 . S
C2594 C2592 1.395 . S
C2594 C2593 1.379 . S
C2594 H2611 0.930 . S
C2595 O2578 1.264 . S
C2595 O2579 1.254 . S
C2596 Eu2532 2.848 . S
C2596 O2576 1.257 . S
C2596 O2581 1.249 . S
C2596 C2589 1.492 . S
C2597 H2562 0.931 . S
C2597 C2575 1.420 . S
C2597 C2598 1.351 . S
C2598 H2560 0.930 . S
C2598 C2566 1.423 . S
C2598 C2597 1.351 . S
C2599 O2583 1.276 . S
C2599 O2586 1.235 . S
C2600 C2601 1.393 . S
C2600 C2604 1.395 . S
C2600 C2607 1.492 . S
C2601 C2600 1.393 . S
C2601 C2602 1.392 . S
C2601 H2612 0.930 . S
C2602 C2601 1.392 . S
C2602 C2603 1.386 . S
C2603 C2602 1.386 . S
C2603 C2605 1.395 . S
C2603 H2613 0.930 . S
C2604 C2600 1.395 . S
C2604 C2605 1.379 . S
C2604 H2614 0.930 . S
C2605 C2603 1.395 . S
C2605 C2604 1.379 . S
C2605 H2615 0.930 . S
C2606 O2584 1.264 . S
C2606 O2585 1.254 . S
C2607 Eu2543 2.848 . S
C2607 O2582 1.257 . S
C2607 O2587 1.249 . S
C2607 C2600 1.492 . S
H2608 C2591 0.930 . S
H2609 C2592 0.930 . S
H2610 C2593 0.930 . S
H2611 C2594 0.930 . S
H2612 C2601 0.930 . S
H2613 C2603 0.930 . S
H2614 C2604 0.930 . S
H2615 C2605 0.930 . S
Eu2616 N2647 2.657 . S
Eu2616 N2654 2.609 . S
Eu2616 O2660 2.558 1_545 S
Eu2616 O2661 2.612 . S
Eu2616 O2663 2.339 . S
Eu2616 O2664 2.563 . S
Eu2616 O2665 2.419 . S
Eu2616 O2667 2.380 . S
Eu2616 O2668 2.432 1_545 S
Eu2616 C2680 2.848 . S
C2617 C2620 1.429 . S
C2617 C2621 1.411 . S
C2617 N2624 1.377 . S
C2618 C2620 1.420 . S
C2618 C2622 1.423 . S
C2618 C2630 1.392 1_545 S
C2619 C2621 1.420 . S
C2619 C2622 1.351 . S
C2619 H2642 0.931 . S
C2620 C2617 1.429 . S
C2620 C2618 1.420 . S
C2620 N2628 1.362 . S
C2621 C2617 1.411 . S
C2621 C2619 1.420 . S
C2621 C2626 1.395 . S
C2622 C2618 1.423 . S
C2622 C2619 1.351 . S
C2622 H2634 0.930 . S
C2623 C2625 1.400 . S
C2623 C2626 1.386 . S
C2623 H2635 0.930 . S
N2624 C2617 1.377 . S
N2624 C2625 1.321 . S
N2624 Eu2627 2.609 . S
C2625 C2623 1.400 . S
C2625 N2624 1.321 . S
C2625 H2632 0.930 . S
C2626 C2621 1.395 . S
C2626 C2623 1.386 . S
C2626 H2645 0.930 . S
Eu2627 N2624 2.609 . S
Eu2627 N2628 2.657 . S
Eu2627 O2661 2.380 1_556 S
Eu2627 O2662 2.432 1_556 S
Eu2627 O2666 2.558 . S
Eu2627 O2667 2.612 1_556 S
Eu2627 O2669 2.339 . S
Eu2627 O2670 2.563 . S
Eu2627 O2671 2.419 . S
Eu2627 C2691 2.848 . S
N2628 C2620 1.362 . S
N2628 Eu2627 2.657 . S
N2628 C2629 1.334 1_545 S
C2629 N2628 1.334 1_565 S
C2629 C2631 1.413 . S
C2629 H2636 0.929 . S
C2630 C2618 1.392 1_565 S
C2630 C2631 1.367 . S
C2630 H2638 0.930 . S
C2631 C2629 1.413 . S
C2631 C2630 1.367 . S
C2631 H2633 0.930 . S
H2632 C2625 0.930 . S
H2633 C2631 0.930 . S
H2634 C2622 0.930 . S
H2635 C2623 0.930 . S
H2636 C2629 0.929 . S
H2637 C2651 0.930 . S
H2638 C2630 0.930 . S
H2639 C2657 0.930 . S
H2640 C2648 0.929 . S
H2641 C2655 0.930 . S
H2642 C2619 0.931 . S
H2643 C2649 0.930 . S
H2644 C2682 0.930 . S
H2645 C2626 0.930 . S
H2646 C2681 0.931 . S
N2647 Eu2616 2.657 . S
N2647 C2648 1.334 . S
N2647 C2652 1.362 . S
C2648 H2640 0.929 . S
C2648 N2647 1.334 . S
C2648 C2651 1.413 . S
C2649 H2643 0.930 . S
C2649 C2650 1.392 . S
C2649 C2651 1.367 . S
C2650 C2649 1.392 . S
C2650 C2652 1.420 . S
C2650 C2682 1.423 . S
C2651 H2637 0.930 . S
C2651 C2648 1.413 . S
C2651 C2649 1.367 . S
C2652 N2647 1.362 . S
C2652 C2650 1.420 . S
C2652 C2656 1.429 . S
H2653 C2658 0.930 . S
N2654 Eu2616 2.609 . S
N2654 C2656 1.377 . S
N2654 C2657 1.321 1_545 S
C2655 H2641 0.930 . S
C2655 C2657 1.400 . S
C2655 C2658 1.386 . S
C2656 C2652 1.429 . S
C2656 N2654 1.377 . S
C2656 C2659 1.411 . S
C2657 H2639 0.930 . S
C2657 N2654 1.321 1_565 S
C2657 C2655 1.400 . S
C2658 H2653 0.930 . S
C2658 C2655 1.386 . S
C2658 C2659 1.395 1_565 S
C2659 C2656 1.411 . S
C2659 C2658 1.395 1_545 S
C2659 C2681 1.420 . S
O2660 Eu2616 2.558 1_565 S
O2660 C2680 1.257 1_565 S
O2661 Eu2616 2.612 . S
O2661 Eu2627 2.380 1_554 S
O2661 C2672 1.276 . S
O2662 Eu2627 2.432 1_554 S
O2662 C2679 1.264 . S
O2663 Eu2616 2.339 . S
O2663 C2679 1.254 . S
O2664 Eu2616 2.563 . S
O2664 C2672 1.235 . S
O2665 Eu2616 2.419 . S
O2665 C2680 1.249 . S
O2666 Eu2627 2.558 . S
O2666 C2691 1.257 . S
O2667 Eu2616 2.380 . S
O2667 Eu2627 2.612 1_554 S
O2667 C2683 1.276 . S
O2668 Eu2616 2.432 1_565 S
O2668 C2690 1.264 1_554 S
O2669 Eu2627 2.339 . S
O2669 C2690 1.254 1_545 S
O2670 Eu2627 2.563 . S
O2670 C2683 1.235 1_556 S
O2671 Eu2627 2.419 . S
O2671 C2691 1.249 . S
C2672 O2661 1.276 . S
C2672 O2664 1.235 . S
C2673 C2675 1.393 . S
C2673 C2677 1.395 1_545 S
C2673 C2680 1.492 . S
C2674 C2675 1.392 . S
C2674 C2676 1.386 1_545 S
C2675 C2673 1.393 . S
C2675 C2674 1.392 . S
C2675 H2692 0.930 . S
C2676 C2674 1.386 1_565 S
C2676 C2678 1.395 . S
C2676 H2693 0.930 . S
C2677 C2673 1.395 1_565 S
C2677 C2678 1.379 . S
C2677 H2694 0.930 . S
C2678 C2676 1.395 . S
C2678 C2677 1.379 . S
C2678 H2695 0.930 . S
C2679 O2662 1.264 . S
C2679 O2663 1.254 . S
C2680 Eu2616 2.848 . S
C2680 O2660 1.257 1_545 S
C2680 O2665 1.249 . S
C2680 C2673 1.492 . S
C2681 H2646 0.931 . S
C2681 C2659 1.420 . S
C2681 C2682 1.351 . S
C2682 H2644 0.930 . S
C2682 C2650 1.423 . S
C2682 C2681 1.351 . S
C2683 O2667 1.276 . S
C2683 O2670 1.235 1_554 S
C2684 C2685 1.393 . S
C2684 C2688 1.395 . S
C2684 C2691 1.492 . S
C2685 C2684 1.393 . S
C2685 C2686 1.392 . S
C2685 H2696 0.930 . S
C2686 C2685 1.392 . S
C2686 C2687 1.386 . S
C2687 C2686 1.386 . S
C2687 C2689 1.395 . S
C2687 H2697 0.930 . S
C2688 C2684 1.395 . S
C2688 C2689 1.379 . S
C2688 H2698 0.930 . S
C2689 C2687 1.395 . S
C2689 C2688 1.379 . S
C2689 H2699 0.930 . S
C2690 O2668 1.264 1_556 S
C2690 O2669 1.254 1_565 S
C2691 Eu2627 2.848 . S
C2691 O2666 1.257 . S
C2691 O2671 1.249 . S
C2691 C2684 1.492 . S
H2692 C2675 0.930 . S
H2693 C2676 0.930 . S
H2694 C2677 0.930 . S
H2695 C2678 0.930 . S
H2696 C2685 0.930 . S
H2697 C2687 0.930 . S
H2698 C2688 0.930 . S
H2699 C2689 0.930 . S
Eu2700 N2731 2.657 . S
Eu2700 N2738 2.609 . S
Eu2700 O2744 2.558 . S
Eu2700 O2745 2.612 . S
Eu2700 O2747 2.339 . S
Eu2700 O2748 2.563 . S
Eu2700 O2749 2.419 . S
Eu2700 O2751 2.380 . S
Eu2700 O2752 2.432 . S
Eu2700 C2764 2.848 . S
C2701 C2704 1.429 . S
C2701 C2705 1.411 . S
C2701 N2708 1.377 . S
C2702 C2704 1.420 . S
C2702 C2706 1.423 . S
C2702 C2714 1.392 . S
C2703 C2705 1.420 . S
C2703 C2706 1.351 . S
C2703 H2726 0.931 . S
C2704 C2701 1.429 . S
C2704 C2702 1.420 . S
C2704 N2712 1.362 . S
C2705 C2701 1.411 . S
C2705 C2703 1.420 . S
C2705 C2710 1.395 . S
C2706 C2702 1.423 . S
C2706 C2703 1.351 . S
C2706 H2718 0.930 . S
C2707 C2709 1.400 . S
C2707 C2710 1.386 . S
C2707 H2719 0.930 . S
N2708 C2701 1.377 . S
N2708 C2709 1.321 . S
N2708 Eu2711 2.609 . S
C2709 C2707 1.400 . S
C2709 N2708 1.321 . S
C2709 H2716 0.930 . S
C2710 C2705 1.395 . S
C2710 C2707 1.386 . S
C2710 H2729 0.930 . S
Eu2711 N2708 2.609 . S
Eu2711 N2712 2.657 . S
Eu2711 O2745 2.380 . S
Eu2711 O2746 2.432 . S
Eu2711 O2750 2.558 . S
Eu2711 O2751 2.612 . S
Eu2711 O2753 2.339 . S
Eu2711 O2754 2.563 . S
Eu2711 O2755 2.419 . S
Eu2711 C2775 2.848 . S
N2712 C2704 1.362 . S
N2712 Eu2711 2.657 . S
N2712 C2713 1.334 . S
C2713 N2712 1.334 . S
C2713 C2715 1.413 . S
C2713 H2720 0.929 . S
C2714 C2702 1.392 . S
C2714 C2715 1.367 . S
C2714 H2722 0.930 . S
C2715 C2713 1.413 . S
C2715 C2714 1.367 . S
C2715 H2717 0.930 . S
H2716 C2709 0.930 . S
H2717 C2715 0.930 . S
H2718 C2706 0.930 . S
H2719 C2707 0.930 . S
H2720 C2713 0.929 . S
H2721 C2735 0.930 . S
H2722 C2714 0.930 . S
H2723 C2741 0.930 . S
H2724 C2732 0.929 . S
H2725 C2739 0.930 . S
H2726 C2703 0.931 . S
H2727 C2733 0.930 . S
H2728 C2766 0.930 . S
H2729 C2710 0.930 . S
H2730 C2765 0.931 . S
N2731 Eu2700 2.657 . S
N2731 C2732 1.334 . S
N2731 C2736 1.362 . S
C2732 H2724 0.929 . S
C2732 N2731 1.334 . S
C2732 C2735 1.413 . S
C2733 H2727 0.930 . S
C2733 C2734 1.392 . S
C2733 C2735 1.367 . S
C2734 C2733 1.392 . S
C2734 C2736 1.420 . S
C2734 C2766 1.423 . S
C2735 H2721 0.930 . S
C2735 C2732 1.413 . S
C2735 C2733 1.367 . S
C2736 N2731 1.362 . S
C2736 C2734 1.420 . S
C2736 C2740 1.429 . S
H2737 C2742 0.930 . S
N2738 Eu2700 2.609 . S
N2738 C2740 1.377 . S
N2738 C2741 1.321 . S
C2739 H2725 0.930 . S
C2739 C2741 1.400 . S
C2739 C2742 1.386 . S
C2740 C2736 1.429 . S
C2740 N2738 1.377 . S
C2740 C2743 1.411 . S
C2741 H2723 0.930 . S
C2741 N2738 1.321 . S
C2741 C2739 1.400 . S
C2742 H2737 0.930 . S
C2742 C2739 1.386 . S
C2742 C2743 1.395 . S
C2743 C2740 1.411 . S
C2743 C2742 1.395 . S
C2743 C2765 1.420 . S
O2744 Eu2700 2.558 . S
O2744 C2764 1.257 . S
O2745 Eu2700 2.612 . S
O2745 Eu2711 2.380 . S
O2745 C2756 1.276 . S
O2746 Eu2711 2.432 . S
O2746 C2763 1.264 . S
O2747 Eu2700 2.339 . S
O2747 C2763 1.254 . S
O2748 Eu2700 2.563 . S
O2748 C2756 1.235 . S
O2749 Eu2700 2.419 . S
O2749 C2764 1.249 . S
O2750 Eu2711 2.558 . S
O2750 C2775 1.257 . S
O2751 Eu2700 2.380 . S
O2751 Eu2711 2.612 . S
O2751 C2767 1.276 . S
O2752 Eu2700 2.432 . S
O2752 C2774 1.264 . S
O2753 Eu2711 2.339 . S
O2753 C2774 1.254 . S
O2754 Eu2711 2.563 . S
O2754 C2767 1.235 . S
O2755 Eu2711 2.419 . S
O2755 C2775 1.249 . S
C2756 O2745 1.276 . S
C2756 O2748 1.235 . S
C2757 C2759 1.393 . S
C2757 C2761 1.395 . S
C2757 C2764 1.492 . S
C2758 C2759 1.392 . S
C2758 C2760 1.386 . S
C2759 C2757 1.393 . S
C2759 C2758 1.392 . S
C2759 H2776 0.930 . S
C2760 C2758 1.386 . S
C2760 C2762 1.395 . S
C2760 H2777 0.930 . S
C2761 C2757 1.395 . S
C2761 C2762 1.379 . S
C2761 H2778 0.930 . S
C2762 C2760 1.395 . S
C2762 C2761 1.379 . S
C2762 H2779 0.930 . S
C2763 O2746 1.264 . S
C2763 O2747 1.254 . S
C2764 Eu2700 2.848 . S
C2764 O2744 1.257 . S
C2764 O2749 1.249 . S
C2764 C2757 1.492 . S
C2765 H2730 0.931 . S
C2765 C2743 1.420 . S
C2765 C2766 1.351 . S
C2766 H2728 0.930 . S
C2766 C2734 1.423 . S
C2766 C2765 1.351 . S
C2767 O2751 1.276 . S
C2767 O2754 1.235 . S
C2768 C2769 1.393 . S
C2768 C2772 1.395 . S
C2768 C2775 1.492 . S
C2769 C2768 1.393 . S
C2769 C2770 1.392 . S
C2769 H2780 0.930 . S
C2770 C2769 1.392 . S
C2770 C2771 1.386 . S
C2771 C2770 1.386 . S
C2771 C2773 1.395 . S
C2771 H2781 0.930 . S
C2772 C2768 1.395 . S
C2772 C2773 1.379 . S
C2772 H2782 0.930 . S
C2773 C2771 1.395 . S
C2773 C2772 1.379 . S
C2773 H2783 0.930 . S
C2774 O2752 1.264 . S
C2774 O2753 1.254 . S
C2775 Eu2711 2.848 . S
C2775 O2750 1.257 . S
C2775 O2755 1.249 . S
C2775 C2768 1.492 . S
H2776 C2759 0.930 . S
H2777 C2760 0.930 . S
H2778 C2761 0.930 . S
H2779 C2762 0.930 . S
H2780 C2769 0.930 . S
H2781 C2771 0.930 . S
H2782 C2772 0.930 . S
H2783 C2773 0.930 . S
Eu2784 N2815 2.657 . S
Eu2784 N2822 2.609 . S
Eu2784 O2828 2.558 . S
Eu2784 O2829 2.612 1_554 S
Eu2784 O2831 2.339 . S
Eu2784 O2832 2.563 1_554 S
Eu2784 O2833 2.419 . S
Eu2784 O2835 2.380 . S
Eu2784 O2836 2.432 . S
Eu2784 C2848 2.848 . S
C2785 C2788 1.429 . S
C2785 C2789 1.411 . S
C2785 N2792 1.377 . S
C2786 C2788 1.420 . S
C2786 C2790 1.423 . S
C2786 C2798 1.392 . S
C2787 C2789 1.420 . S
C2787 C2790 1.351 . S
C2787 H2810 0.931 . S
C2788 C2785 1.429 . S
C2788 C2786 1.420 . S
C2788 N2796 1.362 . S
C2789 C2785 1.411 . S
C2789 C2787 1.420 . S
C2789 C2794 1.395 . S
C2790 C2786 1.423 . S
C2790 C2787 1.351 . S
C2790 H2802 0.930 . S
C2791 C2793 1.400 . S
C2791 C2794 1.386 . S
C2791 H2803 0.930 . S
N2792 C2785 1.377 . S
N2792 C2793 1.321 . S
N2792 Eu2795 2.609 1_556 S
C2793 C2791 1.400 . S
C2793 N2792 1.321 . S
C2793 H2800 0.930 . S
C2794 C2789 1.395 . S
C2794 C2791 1.386 . S
C2794 H2813 0.930 . S
Eu2795 N2792 2.609 1_554 S
Eu2795 N2796 2.657 1_554 S
Eu2795 O2829 2.380 1_554 S
Eu2795 O2830 2.432 . S
Eu2795 O2834 2.558 . S
Eu2795 O2835 2.612 . S
Eu2795 O2837 2.339 . S
Eu2795 O2838 2.563 . S
Eu2795 O2839 2.419 . S
Eu2795 C2859 2.848 . S
N2796 C2788 1.362 . S
N2796 Eu2795 2.657 1_556 S
N2796 C2797 1.334 . S
C2797 N2796 1.334 . S
C2797 C2799 1.413 . S
C2797 H2804 0.929 . S
C2798 C2786 1.392 . S
C2798 C2799 1.367 . S
C2798 H2806 0.930 . S
C2799 C2797 1.413 . S
C2799 C2798 1.367 . S
C2799 H2801 0.930 . S
H2800 C2793 0.930 . S
H2801 C2799 0.930 . S
H2802 C2790 0.930 . S
H2803 C2791 0.930 . S
H2804 C2797 0.929 . S
H2805 C2819 0.930 . S
H2806 C2798 0.930 . S
H2807 C2825 0.930 . S
H2808 C2816 0.929 . S
H2809 C2823 0.930 . S
H2810 C2787 0.931 . S
H2811 C2817 0.930 . S
H2812 C2850 0.930 . S
H2813 C2794 0.930 . S
H2814 C2849 0.931 . S
N2815 Eu2784 2.657 . S
N2815 C2816 1.334 . S
N2815 C2820 1.362 . S
C2816 H2808 0.929 . S
C2816 N2815 1.334 . S
C2816 C2819 1.413 . S
C2817 H2811 0.930 . S
C2817 C2818 1.392 . S
C2817 C2819 1.367 . S
C2818 C2817 1.392 . S
C2818 C2820 1.420 . S
C2818 C2850 1.423 . S
C2819 H2805 0.930 . S
C2819 C2816 1.413 . S
C2819 C2817 1.367 . S
C2820 N2815 1.362 . S
C2820 C2818 1.420 . S
C2820 C2824 1.429 . S
H2821 C2826 0.930 . S
N2822 Eu2784 2.609 . S
N2822 C2824 1.377 . S
N2822 C2825 1.321 . S
C2823 H2809 0.930 . S
C2823 C2825 1.400 . S
C2823 C2826 1.386 . S
C2824 C2820 1.429 . S
C2824 N2822 1.377 . S
C2824 C2827 1.411 . S
C2825 H2807 0.930 . S
C2825 N2822 1.321 . S
C2825 C2823 1.400 . S
C2826 H2821 0.930 . S
C2826 C2823 1.386 . S
C2826 C2827 1.395 . S
C2827 C2824 1.411 . S
C2827 C2826 1.395 . S
C2827 C2849 1.420 . S
O2828 Eu2784 2.558 . S
O2828 C2848 1.257 . S
O2829 Eu2784 2.612 1_556 S
O2829 Eu2795 2.380 1_556 S
O2829 C2840 1.276 . S
O2830 Eu2795 2.432 . S
O2830 C2847 1.264 . S
O2831 Eu2784 2.339 . S
O2831 C2847 1.254 . S
O2832 Eu2784 2.563 1_556 S
O2832 C2840 1.235 . S
O2833 Eu2784 2.419 . S
O2833 C2848 1.249 . S
O2834 Eu2795 2.558 . S
O2834 C2859 1.257 . S
O2835 Eu2784 2.380 . S
O2835 Eu2795 2.612 . S
O2835 C2851 1.276 . S
O2836 Eu2784 2.432 . S
O2836 C2858 1.264 . S
O2837 Eu2795 2.339 . S
O2837 C2858 1.254 . S
O2838 Eu2795 2.563 . S
O2838 C2851 1.235 . S
O2839 Eu2795 2.419 . S
O2839 C2859 1.249 . S
C2840 O2829 1.276 . S
C2840 O2832 1.235 . S
C2841 C2843 1.393 . S
C2841 C2845 1.395 . S
C2841 C2848 1.492 . S
C2842 C2843 1.392 1_556 S
C2842 C2844 1.386 1_556 S
C2843 C2841 1.393 . S
C2843 C2842 1.392 1_554 S
C2843 H2860 0.930 1_554 S
C2844 C2842 1.386 1_554 S
C2844 C2846 1.395 . S
C2844 H2861 0.929 1_554 S
C2845 C2841 1.395 . S
C2845 C2846 1.379 . S
C2845 H2862 0.930 . S
C2846 C2844 1.395 . S
C2846 C2845 1.379 . S
C2846 H2863 0.930 . S
C2847 O2830 1.264 . S
C2847 O2831 1.254 . S
C2848 Eu2784 2.848 . S
C2848 O2828 1.257 . S
C2848 O2833 1.249 . S
C2848 C2841 1.492 . S
C2849 H2814 0.931 . S
C2849 C2827 1.420 . S
C2849 C2850 1.351 . S
C2850 H2812 0.930 . S
C2850 C2818 1.423 . S
C2850 C2849 1.351 . S
C2851 O2835 1.276 . S
C2851 O2838 1.235 . S
C2852 C2853 1.393 . S
C2852 C2856 1.395 . S
C2852 C2859 1.492 . S
C2853 C2852 1.393 . S
C2853 C2854 1.392 . S
C2853 H2864 0.930 . S
C2854 C2853 1.392 . S
C2854 C2855 1.386 . S
C2855 C2854 1.386 . S
C2855 C2857 1.395 . S
C2855 H2865 0.930 . S
C2856 C2852 1.395 . S
C2856 C2857 1.379 . S
C2856 H2866 0.930 . S
C2857 C2855 1.395 . S
C2857 C2856 1.379 . S
C2857 H2867 0.930 . S
C2858 O2836 1.264 . S
C2858 O2837 1.254 . S
C2859 Eu2795 2.848 . S
C2859 O2834 1.257 . S
C2859 O2839 1.249 . S
C2859 C2852 1.492 . S
H2860 C2843 0.930 1_556 S
H2861 C2844 0.929 1_556 S
H2862 C2845 0.930 . S
H2863 C2846 0.930 . S
H2864 C2853 0.930 . S
H2865 C2855 0.930 . S
H2866 C2856 0.930 . S
H2867 C2857 0.930 . S
Eu2868 N2899 2.657 . S
Eu2868 N2906 2.609 . S
Eu2868 O2912 2.558 . S
Eu2868 O2913 2.612 . S
Eu2868 O2915 2.339 . S
Eu2868 O2916 2.563 . S
Eu2868 O2917 2.419 . S
Eu2868 O2919 2.380 . S
Eu2868 O2920 2.432 . S
Eu2868 C2932 2.848 . S
C2869 C2872 1.429 . S
C2869 C2873 1.411 . S
C2869 N2876 1.377 . S
C2870 C2872 1.420 . S
C2870 C2874 1.423 . S
C2870 C2882 1.392 . S
C2871 C2873 1.420 . S
C2871 C2874 1.351 . S
C2871 H2894 0.931 . S
C2872 C2869 1.429 . S
C2872 C2870 1.420 . S
C2872 N2880 1.362 . S
C2873 C2869 1.411 . S
C2873 C2871 1.420 . S
C2873 C2878 1.395 . S
C2874 C2870 1.423 . S
C2874 C2871 1.351 . S
C2874 H2886 0.930 . S
C2875 C2877 1.400 . S
C2875 C2878 1.386 . S
C2875 H2887 0.930 . S
N2876 C2869 1.377 . S
N2876 C2877 1.321 . S
N2876 Eu2879 2.609 . S
C2877 C2875 1.400 . S
C2877 N2876 1.321 . S
C2877 H2884 0.930 . S
C2878 C2873 1.395 . S
C2878 C2875 1.386 . S
C2878 H2897 0.930 . S
Eu2879 N2876 2.609 . S
Eu2879 N2880 2.657 . S
Eu2879 O2913 2.380 . S
Eu2879 O2914 2.432 . S
Eu2879 O2918 2.558 . S
Eu2879 O2919 2.612 . S
Eu2879 O2921 2.339 . S
Eu2879 O2922 2.563 . S
Eu2879 O2923 2.419 . S
Eu2879 C2943 2.848 . S
N2880 C2872 1.362 . S
N2880 Eu2879 2.657 . S
N2880 C2881 1.334 . S
C2881 N2880 1.334 . S
C2881 C2883 1.413 . S
C2881 H2888 0.929 . S
C2882 C2870 1.392 . S
C2882 C2883 1.367 . S
C2882 H2890 0.930 . S
C2883 C2881 1.413 . S
C2883 C2882 1.367 . S
C2883 H2885 0.930 . S
H2884 C2877 0.930 . S
H2885 C2883 0.930 . S
H2886 C2874 0.930 . S
H2887 C2875 0.930 . S
H2888 C2881 0.929 . S
H2889 C2903 0.930 . S
H2890 C2882 0.930 . S
H2891 C2909 0.930 . S
H2892 C2900 0.929 . S
H2893 C2907 0.930 . S
H2894 C2871 0.931 . S
H2895 C2901 0.930 . S
H2896 C2934 0.930 . S
H2897 C2878 0.930 . S
H2898 C2933 0.931 . S
N2899 Eu2868 2.657 . S
N2899 C2900 1.334 . S
N2899 C2904 1.362 . S
C2900 H2892 0.929 . S
C2900 N2899 1.334 . S
C2900 C2903 1.413 . S
C2901 H2895 0.930 . S
C2901 C2902 1.392 . S
C2901 C2903 1.367 . S
C2902 C2901 1.392 . S
C2902 C2904 1.420 . S
C2902 C2934 1.423 . S
C2903 H2889 0.930 . S
C2903 C2900 1.413 . S
C2903 C2901 1.367 . S
C2904 N2899 1.362 . S
C2904 C2902 1.420 . S
C2904 C2908 1.429 . S
H2905 C2910 0.930 . S
N2906 Eu2868 2.609 . S
N2906 C2908 1.377 . S
N2906 C2909 1.321 . S
C2907 H2893 0.930 . S
C2907 C2909 1.400 . S
C2907 C2910 1.386 . S
C2908 C2904 1.429 . S
C2908 N2906 1.377 . S
C2908 C2911 1.411 . S
C2909 H2891 0.930 . S
C2909 N2906 1.321 . S
C2909 C2907 1.400 . S
C2910 H2905 0.930 . S
C2910 C2907 1.386 . S
C2910 C2911 1.395 . S
C2911 C2908 1.411 . S
C2911 C2910 1.395 . S
C2911 C2933 1.420 . S
O2912 Eu2868 2.558 . S
O2912 C2932 1.257 . S
O2913 Eu2868 2.612 . S
O2913 Eu2879 2.380 . S
O2913 C2924 1.276 . S
O2914 Eu2879 2.432 . S
O2914 C2931 1.264 . S
O2915 Eu2868 2.339 . S
O2915 C2931 1.254 . S
O2916 Eu2868 2.563 . S
O2916 C2924 1.235 . S
O2917 Eu2868 2.419 . S
O2917 C2932 1.249 . S
O2918 Eu2879 2.558 . S
O2918 C2943 1.257 . S
O2919 Eu2868 2.380 . S
O2919 Eu2879 2.612 . S
O2919 C2935 1.276 . S
O2920 Eu2868 2.432 . S
O2920 C2942 1.264 . S
O2921 Eu2879 2.339 . S
O2921 C2942 1.254 . S
O2922 Eu2879 2.563 . S
O2922 C2935 1.235 . S
O2923 Eu2879 2.419 . S
O2923 C2943 1.249 . S
C2924 O2913 1.276 . S
C2924 O2916 1.235 . S
C2925 C2927 1.393 . S
C2925 C2929 1.395 . S
C2925 C2932 1.492 . S
C2926 C2927 1.392 . S
C2926 C2928 1.386 . S
C2927 C2925 1.393 . S
C2927 C2926 1.392 . S
C2927 H2944 0.930 . S
C2928 C2926 1.386 . S
C2928 C2930 1.395 . S
C2928 H2945 0.930 . S
C2929 C2925 1.395 . S
C2929 C2930 1.379 . S
C2929 H2946 0.930 . S
C2930 C2928 1.395 . S
C2930 C2929 1.379 . S
C2930 H2947 0.930 . S
C2931 O2914 1.264 . S
C2931 O2915 1.254 . S
C2932 Eu2868 2.848 . S
C2932 O2912 1.257 . S
C2932 O2917 1.249 . S
C2932 C2925 1.492 . S
C2933 H2898 0.931 . S
C2933 C2911 1.420 . S
C2933 C2934 1.351 . S
C2934 H2896 0.930 . S
C2934 C2902 1.423 . S
C2934 C2933 1.351 . S
C2935 O2919 1.276 . S
C2935 O2922 1.235 . S
C2936 C2937 1.393 . S
C2936 C2940 1.395 . S
C2936 C2943 1.492 . S
C2937 C2936 1.393 . S
C2937 C2938 1.392 . S
C2937 H2948 0.930 . S
C2938 C2937 1.392 . S
C2938 C2939 1.386 . S
C2939 C2938 1.386 . S
C2939 C2941 1.395 . S
C2939 H2949 0.930 . S
C2940 C2936 1.395 . S
C2940 C2941 1.379 . S
C2940 H2950 0.930 . S
C2941 C2939 1.395 . S
C2941 C2940 1.379 . S
C2941 H2951 0.930 . S
C2942 O2920 1.264 . S
C2942 O2921 1.254 . S
C2943 Eu2879 2.848 . S
C2943 O2918 1.257 . S
C2943 O2923 1.249 . S
C2943 C2936 1.492 . S
H2944 C2927 0.930 . S
H2945 C2928 0.930 . S
H2946 C2929 0.930 . S
H2947 C2930 0.930 . S
H2948 C2937 0.930 . S
H2949 C2939 0.930 . S
H2950 C2940 0.930 . S
H2951 C2941 0.930 . S
Eu2952 N2983 2.657 . S
Eu2952 N2990 2.609 . S
Eu2952 O2996 2.558 . S
Eu2952 O2997 2.612 . S
Eu2952 O2999 2.339 . S
Eu2952 O3000 2.563 . S
Eu2952 O3001 2.419 . S
Eu2952 O3003 2.380 . S
Eu2952 O3004 2.432 . S
Eu2952 C3016 2.848 . S
C2953 C2956 1.429 . S
C2953 C2957 1.411 1_455 S
C2953 N2960 1.377 . S
C2954 C2956 1.420 1_655 S
C2954 C2958 1.423 . S
C2954 C2966 1.392 . S
C2955 C2957 1.420 . S
C2955 C2958 1.351 . S
C2955 H2978 0.931 . S
C2956 C2953 1.429 . S
C2956 C2954 1.420 1_455 S
C2956 N2964 1.362 . S
C2957 C2953 1.411 1_655 S
C2957 C2955 1.420 . S
C2957 C2962 1.395 . S
C2958 C2954 1.423 . S
C2958 C2955 1.351 . S
C2958 H2970 0.930 . S
C2959 C2961 1.400 . S
C2959 C2962 1.386 1_455 S
C2959 H2971 0.930 . S
N2960 C2953 1.377 . S
N2960 C2961 1.321 . S
N2960 Eu2963 2.609 . S
C2961 C2959 1.400 . S
C2961 N2960 1.321 . S
C2961 H2968 0.930 . S
C2962 C2957 1.395 . S
C2962 C2959 1.386 1_655 S
C2962 H2981 0.930 . S
Eu2963 N2960 2.609 . S
Eu2963 N2964 2.657 . S
Eu2963 O2997 2.380 . S
Eu2963 O2998 2.432 . S
Eu2963 O3002 2.558 . S
Eu2963 O3003 2.612 . S
Eu2963 O3005 2.339 . S
Eu2963 O3006 2.563 . S
Eu2963 O3007 2.419 . S
Eu2963 C3027 2.848 . S
N2964 C2956 1.362 . S
N2964 Eu2963 2.657 . S
N2964 C2965 1.334 . S
C2965 N2964 1.334 . S
C2965 C2967 1.413 1_455 S
C2965 H2972 0.929 . S
C2966 C2954 1.392 . S
C2966 C2967 1.367 . S
C2966 H2974 0.930 . S
C2967 C2965 1.413 1_655 S
C2967 C2966 1.367 . S
C2967 H2969 0.930 . S
H2968 C2961 0.930 . S
H2969 C2967 0.930 . S
H2970 C2958 0.930 . S
H2971 C2959 0.930 . S
H2972 C2965 0.929 . S
H2973 C2987 0.930 . S
H2974 C2966 0.930 . S
H2975 C2993 0.930 . S
H2976 C2984 0.929 . S
H2977 C2991 0.930 . S
H2978 C2955 0.931 . S
H2979 C2985 0.930 . S
H2980 C3018 0.930 . S
H2981 C2962 0.930 . S
H2982 C3017 0.931 . S
N2983 Eu2952 2.657 . S
N2983 C2984 1.334 . S
N2983 C2988 1.362 . S
C2984 H2976 0.929 . S
C2984 N2983 1.334 . S
C2984 C2987 1.413 . S
C2985 H2979 0.930 . S
C2985 C2986 1.392 . S
C2985 C2987 1.367 . S
C2986 C2985 1.392 . S
C2986 C2988 1.420 . S
C2986 C3018 1.423 . S
C2987 H2973 0.930 . S
C2987 C2984 1.413 . S
C2987 C2985 1.367 . S
C2988 N2983 1.362 . S
C2988 C2986 1.420 . S
C2988 C2992 1.429 . S
H2989 C2994 0.930 . S
N2990 Eu2952 2.609 . S
N2990 C2992 1.377 . S
N2990 C2993 1.321 . S
C2991 H2977 0.930 . S
C2991 C2993 1.400 . S
C2991 C2994 1.386 . S
C2992 C2988 1.429 . S
C2992 N2990 1.377 . S
C2992 C2995 1.411 . S
C2993 H2975 0.930 . S
C2993 N2990 1.321 . S
C2993 C2991 1.400 . S
C2994 H2989 0.930 . S
C2994 C2991 1.386 . S
C2994 C2995 1.395 . S
C2995 C2992 1.411 . S
C2995 C2994 1.395 . S
C2995 C3017 1.420 . S
O2996 Eu2952 2.558 . S
O2996 C3016 1.257 . S
O2997 Eu2952 2.612 . S
O2997 Eu2963 2.380 . S
O2997 C3008 1.276 . S
O2998 Eu2963 2.432 . S
O2998 C3015 1.264 . S
O2999 Eu2952 2.339 . S
O2999 C3015 1.254 . S
O3000 Eu2952 2.563 . S
O3000 C3008 1.235 . S
O3001 Eu2952 2.419 . S
O3001 C3016 1.249 . S
O3002 Eu2963 2.558 . S
O3002 C3027 1.257 . S
O3003 Eu2952 2.380 . S
O3003 Eu2963 2.612 . S
O3003 C3019 1.276 . S
O3004 Eu2952 2.432 . S
O3004 C3026 1.264 . S
O3005 Eu2963 2.339 . S
O3005 C3026 1.254 . S
O3006 Eu2963 2.563 . S
O3006 C3019 1.235 . S
O3007 Eu2963 2.419 . S
O3007 C3027 1.249 . S
C3008 O2997 1.276 . S
C3008 O3000 1.235 . S
C3009 C3011 1.393 . S
C3009 C3013 1.395 . S
C3009 C3016 1.492 . S
C3010 C3011 1.392 . S
C3010 C3012 1.386 . S
C3011 C3009 1.393 . S
C3011 C3010 1.392 . S
C3011 H3028 0.930 . S
C3012 C3010 1.386 . S
C3012 C3014 1.395 . S
C3012 H3029 0.930 . S
C3013 C3009 1.395 . S
C3013 C3014 1.379 . S
C3013 H3030 0.930 . S
C3014 C3012 1.395 . S
C3014 C3013 1.379 . S
C3014 H3031 0.930 . S
C3015 O2998 1.264 . S
C3015 O2999 1.254 . S
C3016 Eu2952 2.848 . S
C3016 O2996 1.257 . S
C3016 O3001 1.249 . S
C3016 C3009 1.492 . S
C3017 H2982 0.931 . S
C3017 C2995 1.420 . S
C3017 C3018 1.351 . S
C3018 H2980 0.930 . S
C3018 C2986 1.423 . S
C3018 C3017 1.351 . S
C3019 O3003 1.276 . S
C3019 O3006 1.235 . S
C3020 C3021 1.393 . S
C3020 C3024 1.395 . S
C3020 C3027 1.492 . S
C3021 C3020 1.393 . S
C3021 C3022 1.392 . S
C3021 H3032 0.930 . S
C3022 C3021 1.392 . S
C3022 C3023 1.386 . S
C3023 C3022 1.386 . S
C3023 C3025 1.395 . S
C3023 H3033 0.930 . S
C3024 C3020 1.395 . S
C3024 C3025 1.379 . S
C3024 H3034 0.930 . S
C3025 C3023 1.395 . S
C3025 C3024 1.379 . S
C3025 H3035 0.930 . S
C3026 O3004 1.264 . S
C3026 O3005 1.254 . S
C3027 Eu2963 2.848 . S
C3027 O3002 1.257 . S
C3027 O3007 1.249 . S
C3027 C3020 1.492 . S
H3028 C3011 0.930 . S
H3029 C3012 0.930 . S
H3030 C3013 0.930 . S
H3031 C3014 0.930 . S
H3032 C3021 0.930 . S
H3033 C3023 0.930 . S
H3034 C3024 0.930 . S
H3035 C3025 0.930 . S
Eu3036 N3067 2.657 . S
Eu3036 N3074 2.609 . S
Eu3036 O3080 2.558 . S
Eu3036 O3081 2.612 . S
Eu3036 O3083 2.339 . S
Eu3036 O3084 2.563 . S
Eu3036 O3085 2.419 . S
Eu3036 O3087 2.380 . S
Eu3036 O3088 2.432 . S
Eu3036 C3100 2.848 . S
C3037 C3040 1.429 . S
C3037 C3041 1.411 . S
C3037 N3044 1.377 . S
C3038 C3040 1.420 . S
C3038 C3042 1.423 . S
C3038 C3050 1.392 . S
C3039 C3041 1.420 . S
C3039 C3042 1.351 . S
C3039 H3062 0.931 . S
C3040 C3037 1.429 . S
C3040 C3038 1.420 . S
C3040 N3048 1.362 . S
C3041 C3037 1.411 . S
C3041 C3039 1.420 . S
C3041 C3046 1.395 . S
C3042 C3038 1.423 . S
C3042 C3039 1.351 . S
C3042 H3054 0.930 . S
C3043 C3045 1.400 . S
C3043 C3046 1.386 . S
C3043 H3055 0.930 . S
N3044 C3037 1.377 . S
N3044 C3045 1.321 . S
N3044 Eu3047 2.609 . S
C3045 C3043 1.400 . S
C3045 N3044 1.321 . S
C3045 H3052 0.930 . S
C3046 C3041 1.395 . S
C3046 C3043 1.386 . S
C3046 H3065 0.930 . S
Eu3047 N3044 2.609 . S
Eu3047 N3048 2.657 . S
Eu3047 O3081 2.380 . S
Eu3047 O3082 2.432 . S
Eu3047 O3086 2.558 . S
Eu3047 O3087 2.612 . S
Eu3047 O3089 2.339 . S
Eu3047 O3090 2.563 . S
Eu3047 O3091 2.419 . S
Eu3047 C3111 2.848 . S
N3048 C3040 1.362 . S
N3048 Eu3047 2.657 . S
N3048 C3049 1.334 . S
C3049 N3048 1.334 . S
C3049 C3051 1.413 . S
C3049 H3056 0.929 . S
C3050 C3038 1.392 . S
C3050 C3051 1.367 . S
C3050 H3058 0.930 . S
C3051 C3049 1.413 . S
C3051 C3050 1.367 . S
C3051 H3053 0.930 . S
H3052 C3045 0.930 . S
H3053 C3051 0.930 . S
H3054 C3042 0.930 . S
H3055 C3043 0.930 . S
H3056 C3049 0.929 . S
H3057 C3071 0.930 . S
H3058 C3050 0.930 . S
H3059 C3077 0.930 . S
H3060 C3068 0.929 . S
H3061 C3075 0.930 . S
H3062 C3039 0.931 . S
H3063 C3069 0.930 . S
H3064 C3102 0.930 . S
H3065 C3046 0.930 . S
H3066 C3101 0.931 . S
N3067 Eu3036 2.657 . S
N3067 C3068 1.334 . S
N3067 C3072 1.362 . S
C3068 H3060 0.929 . S
C3068 N3067 1.334 . S
C3068 C3071 1.413 . S
C3069 H3063 0.930 . S
C3069 C3070 1.392 . S
C3069 C3071 1.367 . S
C3070 C3069 1.392 . S
C3070 C3072 1.420 . S
C3070 C3102 1.423 . S
C3071 H3057 0.930 . S
C3071 C3068 1.413 . S
C3071 C3069 1.367 . S
C3072 N3067 1.362 . S
C3072 C3070 1.420 . S
C3072 C3076 1.429 . S
H3073 C3078 0.930 . S
N3074 Eu3036 2.609 . S
N3074 C3076 1.377 . S
N3074 C3077 1.321 . S
C3075 H3061 0.930 . S
C3075 C3077 1.400 . S
C3075 C3078 1.386 . S
C3076 C3072 1.429 . S
C3076 N3074 1.377 . S
C3076 C3079 1.411 . S
C3077 H3059 0.930 . S
C3077 N3074 1.321 . S
C3077 C3075 1.400 . S
C3078 H3073 0.930 . S
C3078 C3075 1.386 . S
C3078 C3079 1.395 . S
C3079 C3076 1.411 . S
C3079 C3078 1.395 . S
C3079 C3101 1.420 . S
O3080 Eu3036 2.558 . S
O3080 C3100 1.257 . S
O3081 Eu3036 2.612 . S
O3081 Eu3047 2.380 . S
O3081 C3092 1.276 . S
O3082 Eu3047 2.432 . S
O3082 C3099 1.264 . S
O3083 Eu3036 2.339 . S
O3083 C3099 1.254 . S
O3084 Eu3036 2.563 . S
O3084 C3092 1.235 . S
O3085 Eu3036 2.419 . S
O3085 C3100 1.249 . S
O3086 Eu3047 2.558 . S
O3086 C3111 1.257 . S
O3087 Eu3036 2.380 . S
O3087 Eu3047 2.612 . S
O3087 C3103 1.276 . S
O3088 Eu3036 2.432 . S
O3088 C3110 1.264 . S
O3089 Eu3047 2.339 . S
O3089 C3110 1.254 . S
O3090 Eu3047 2.563 . S
O3090 C3103 1.235 . S
O3091 Eu3047 2.419 . S
O3091 C3111 1.249 . S
C3092 O3081 1.276 . S
C3092 O3084 1.235 . S
C3093 C3095 1.393 . S
C3093 C3097 1.395 . S
C3093 C3100 1.492 . S
C3094 C3095 1.392 . S
C3094 C3096 1.386 . S
C3095 C3093 1.393 . S
C3095 C3094 1.392 . S
C3095 H3112 0.930 . S
C3096 C3094 1.386 . S
C3096 C3098 1.395 . S
C3096 H3113 0.930 . S
C3097 C3093 1.395 . S
C3097 C3098 1.379 . S
C3097 H3114 0.930 . S
C3098 C3096 1.395 . S
C3098 C3097 1.379 . S
C3098 H3115 0.930 . S
C3099 O3082 1.264 . S
C3099 O3083 1.254 . S
C3100 Eu3036 2.848 . S
C3100 O3080 1.257 . S
C3100 O3085 1.249 . S
C3100 C3093 1.492 . S
C3101 H3066 0.931 . S
C3101 C3079 1.420 . S
C3101 C3102 1.351 . S
C3102 H3064 0.930 . S
C3102 C3070 1.423 . S
C3102 C3101 1.351 . S
C3103 O3087 1.276 . S
C3103 O3090 1.235 . S
C3104 C3105 1.393 . S
C3104 C3108 1.395 . S
C3104 C3111 1.492 . S
C3105 C3104 1.393 . S
C3105 C3106 1.392 . S
C3105 H3116 0.930 . S
C3106 C3105 1.392 . S
C3106 C3107 1.386 . S
C3107 C3106 1.386 . S
C3107 C3109 1.395 . S
C3107 H3117 0.930 . S
C3108 C3104 1.395 . S
C3108 C3109 1.379 . S
C3108 H3118 0.930 . S
C3109 C3107 1.395 . S
C3109 C3108 1.379 . S
C3109 H3119 0.930 . S
C3110 O3088 1.264 . S
C3110 O3089 1.254 . S
C3111 Eu3047 2.848 . S
C3111 O3086 1.257 . S
C3111 O3091 1.249 . S
C3111 C3104 1.492 . S
H3112 C3095 0.930 . S
H3113 C3096 0.930 . S
H3114 C3097 0.930 . S
H3115 C3098 0.930 . S
H3116 C3105 0.930 . S
H3117 C3107 0.930 . S
H3118 C3108 0.930 . S
H3119 C3109 0.930 . S
Eu3120 N3151 2.657 . S
Eu3120 N3158 2.609 . S
Eu3120 O3164 2.558 . S
Eu3120 O3165 2.612 . S
Eu3120 O3167 2.339 . S
Eu3120 O3168 2.563 . S
Eu3120 O3169 2.419 . S
Eu3120 O3171 2.380 . S
Eu3120 O3172 2.432 . S
Eu3120 C3184 2.848 . S
C3121 C3124 1.429 . S
C3121 C3125 1.411 . S
C3121 N3128 1.377 . S
C3122 C3124 1.420 . S
C3122 C3126 1.423 . S
C3122 C3134 1.392 . S
C3123 C3125 1.420 . S
C3123 C3126 1.351 . S
C3123 H3146 0.931 . S
C3124 C3121 1.429 . S
C3124 C3122 1.420 . S
C3124 N3132 1.362 . S
C3125 C3121 1.411 . S
C3125 C3123 1.420 . S
C3125 C3130 1.395 . S
C3126 C3122 1.423 . S
C3126 C3123 1.351 . S
C3126 H3138 0.930 . S
C3127 C3129 1.400 . S
C3127 C3130 1.386 . S
C3127 H3139 0.930 . S
N3128 C3121 1.377 . S
N3128 C3129 1.321 . S
N3128 Eu3131 2.609 . S
C3129 C3127 1.400 . S
C3129 N3128 1.321 . S
C3129 H3136 0.930 . S
C3130 C3125 1.395 . S
C3130 C3127 1.386 . S
C3130 H3149 0.930 . S
Eu3131 N3128 2.609 . S
Eu3131 N3132 2.657 . S
Eu3131 O3165 2.380 . S
Eu3131 O3166 2.432 . S
Eu3131 O3170 2.558 . S
Eu3131 O3171 2.612 . S
Eu3131 O3173 2.339 . S
Eu3131 O3174 2.563 . S
Eu3131 O3175 2.419 . S
Eu3131 C3195 2.848 . S
N3132 C3124 1.362 . S
N3132 Eu3131 2.657 . S
N3132 C3133 1.334 . S
C3133 N3132 1.334 . S
C3133 C3135 1.413 . S
C3133 H3140 0.929 . S
C3134 C3122 1.392 . S
C3134 C3135 1.367 . S
C3134 H3142 0.930 . S
C3135 C3133 1.413 . S
C3135 C3134 1.367 . S
C3135 H3137 0.930 . S
H3136 C3129 0.930 . S
H3137 C3135 0.930 . S
H3138 C3126 0.930 . S
H3139 C3127 0.930 . S
H3140 C3133 0.929 . S
H3141 C3155 0.930 . S
H3142 C3134 0.930 . S
H3143 C3161 0.930 . S
H3144 C3152 0.929 . S
H3145 C3159 0.930 . S
H3146 C3123 0.931 . S
H3147 C3153 0.930 . S
H3148 C3186 0.930 . S
H3149 C3130 0.930 . S
H3150 C3185 0.931 . S
N3151 Eu3120 2.657 . S
N3151 C3152 1.334 . S
N3151 C3156 1.362 . S
C3152 H3144 0.929 . S
C3152 N3151 1.334 . S
C3152 C3155 1.413 . S
C3153 H3147 0.930 . S
C3153 C3154 1.392 . S
C3153 C3155 1.367 . S
C3154 C3153 1.392 . S
C3154 C3156 1.420 . S
C3154 C3186 1.423 . S
C3155 H3141 0.930 . S
C3155 C3152 1.413 . S
C3155 C3153 1.367 . S
C3156 N3151 1.362 . S
C3156 C3154 1.420 . S
C3156 C3160 1.429 . S
H3157 C3162 0.930 . S
N3158 Eu3120 2.609 . S
N3158 C3160 1.377 . S
N3158 C3161 1.321 . S
C3159 H3145 0.930 . S
C3159 C3161 1.400 . S
C3159 C3162 1.386 . S
C3160 C3156 1.429 . S
C3160 N3158 1.377 . S
C3160 C3163 1.411 . S
C3161 H3143 0.930 . S
C3161 N3158 1.321 . S
C3161 C3159 1.400 . S
C3162 H3157 0.930 . S
C3162 C3159 1.386 . S
C3162 C3163 1.395 . S
C3163 C3160 1.411 . S
C3163 C3162 1.395 . S
C3163 C3185 1.420 . S
O3164 Eu3120 2.558 . S
O3164 C3184 1.257 . S
O3165 Eu3120 2.612 . S
O3165 Eu3131 2.380 . S
O3165 C3176 1.276 . S
O3166 Eu3131 2.432 . S
O3166 C3183 1.264 . S
O3167 Eu3120 2.339 . S
O3167 C3183 1.254 . S
O3168 Eu3120 2.563 . S
O3168 C3176 1.235 . S
O3169 Eu3120 2.419 . S
O3169 C3184 1.249 . S
O3170 Eu3131 2.558 . S
O3170 C3195 1.257 . S
O3171 Eu3120 2.380 . S
O3171 Eu3131 2.612 . S
O3171 C3187 1.276 . S
O3172 Eu3120 2.432 . S
O3172 C3194 1.264 . S
O3173 Eu3131 2.339 . S
O3173 C3194 1.254 . S
O3174 Eu3131 2.563 . S
O3174 C3187 1.235 . S
O3175 Eu3131 2.419 . S
O3175 C3195 1.249 . S
C3176 O3165 1.276 . S
C3176 O3168 1.235 . S
C3177 C3179 1.393 . S
C3177 C3181 1.395 . S
C3177 C3184 1.492 . S
C3178 C3179 1.392 . S
C3178 C3180 1.386 . S
C3179 C3177 1.393 . S
C3179 C3178 1.392 . S
C3179 H3196 0.930 . S
C3180 C3178 1.386 . S
C3180 C3182 1.395 . S
C3180 H3197 0.930 . S
C3181 C3177 1.395 . S
C3181 C3182 1.379 . S
C3181 H3198 0.930 . S
C3182 C3180 1.395 . S
C3182 C3181 1.379 . S
C3182 H3199 0.930 . S
C3183 O3166 1.264 . S
C3183 O3167 1.254 . S
C3184 Eu3120 2.848 . S
C3184 O3164 1.257 . S
C3184 O3169 1.249 . S
C3184 C3177 1.492 . S
C3185 H3150 0.931 . S
C3185 C3163 1.420 . S
C3185 C3186 1.351 . S
C3186 H3148 0.930 . S
C3186 C3154 1.423 . S
C3186 C3185 1.351 . S
C3187 O3171 1.276 . S
C3187 O3174 1.235 . S
C3188 C3189 1.393 . S
C3188 C3192 1.395 . S
C3188 C3195 1.492 . S
C3189 C3188 1.393 . S
C3189 C3190 1.392 . S
C3189 H3200 0.930 . S
C3190 C3189 1.392 . S
C3190 C3191 1.386 . S
C3191 C3190 1.386 . S
C3191 C3193 1.395 . S
C3191 H3201 0.930 . S
C3192 C3188 1.395 . S
C3192 C3193 1.379 . S
C3192 H3202 0.930 . S
C3193 C3191 1.395 . S
C3193 C3192 1.379 . S
C3193 H3203 0.930 . S
C3194 O3172 1.264 . S
C3194 O3173 1.254 . S
C3195 Eu3131 2.848 . S
C3195 O3170 1.257 . S
C3195 O3175 1.249 . S
C3195 C3188 1.492 . S
H3196 C3179 0.930 . S
H3197 C3180 0.930 . S
H3198 C3181 0.930 . S
H3199 C3182 0.930 . S
H3200 C3189 0.930 . S
H3201 C3191 0.930 . S
H3202 C3192 0.930 . S
H3203 C3193 0.930 . S
Eu3204 N3235 2.657 . S
Eu3204 N3242 2.609 . S
Eu3204 O3248 2.558 . S
Eu3204 O3249 2.612 . S
Eu3204 O3251 2.339 . S
Eu3204 O3252 2.563 . S
Eu3204 O3253 2.419 . S
Eu3204 O3255 2.380 . S
Eu3204 O3256 2.432 . S
Eu3204 C3268 2.848 . S
C3205 C3208 1.429 . S
C3205 C3209 1.411 . S
C3205 N3212 1.377 . S
C3206 C3208 1.420 . S
C3206 C3210 1.423 . S
C3206 C3218 1.392 . S
C3207 C3209 1.420 . S
C3207 C3210 1.351 . S
C3207 H3230 0.931 . S
C3208 C3205 1.429 . S
C3208 C3206 1.420 . S
C3208 N3216 1.362 . S
C3209 C3205 1.411 . S
C3209 C3207 1.420 . S
C3209 C3214 1.395 . S
C3210 C3206 1.423 . S
C3210 C3207 1.351 . S
C3210 H3222 0.930 . S
C3211 C3213 1.400 . S
C3211 C3214 1.386 . S
C3211 H3223 0.930 . S
N3212 C3205 1.377 . S
N3212 C3213 1.321 . S
N3212 Eu3215 2.609 . S
C3213 C3211 1.400 . S
C3213 N3212 1.321 . S
C3213 H3220 0.930 . S
C3214 C3209 1.395 . S
C3214 C3211 1.386 . S
C3214 H3233 0.930 . S
Eu3215 N3212 2.609 . S
Eu3215 N3216 2.657 . S
Eu3215 O3249 2.380 . S
Eu3215 O3250 2.432 . S
Eu3215 O3254 2.558 . S
Eu3215 O3255 2.612 . S
Eu3215 O3257 2.339 . S
Eu3215 O3258 2.563 . S
Eu3215 O3259 2.419 . S
Eu3215 C3279 2.848 . S
N3216 C3208 1.362 . S
N3216 Eu3215 2.657 . S
N3216 C3217 1.334 . S
C3217 N3216 1.334 . S
C3217 C3219 1.413 . S
C3217 H3224 0.929 . S
C3218 C3206 1.392 . S
C3218 C3219 1.367 . S
C3218 H3226 0.930 . S
C3219 C3217 1.413 . S
C3219 C3218 1.367 . S
C3219 H3221 0.930 . S
H3220 C3213 0.930 . S
H3221 C3219 0.930 . S
H3222 C3210 0.930 . S
H3223 C3211 0.930 . S
H3224 C3217 0.929 . S
H3225 C3239 0.930 . S
H3226 C3218 0.930 . S
H3227 C3245 0.930 . S
H3228 C3236 0.929 . S
H3229 C3243 0.930 . S
H3230 C3207 0.931 . S
H3231 C3237 0.930 . S
H3232 C3270 0.930 . S
H3233 C3214 0.930 . S
H3234 C3269 0.931 . S
N3235 Eu3204 2.657 . S
N3235 C3236 1.334 . S
N3235 C3240 1.362 . S
C3236 H3228 0.929 . S
C3236 N3235 1.334 . S
C3236 C3239 1.413 . S
C3237 H3231 0.930 . S
C3237 C3238 1.392 . S
C3237 C3239 1.367 . S
C3238 C3237 1.392 . S
C3238 C3240 1.420 . S
C3238 C3270 1.423 . S
C3239 H3225 0.930 . S
C3239 C3236 1.413 . S
C3239 C3237 1.367 . S
C3240 N3235 1.362 . S
C3240 C3238 1.420 . S
C3240 C3244 1.429 . S
H3241 C3246 0.930 . S
N3242 Eu3204 2.609 . S
N3242 C3244 1.377 . S
N3242 C3245 1.321 . S
C3243 H3229 0.930 . S
C3243 C3245 1.400 . S
C3243 C3246 1.386 . S
C3244 C3240 1.429 . S
C3244 N3242 1.377 . S
C3244 C3247 1.411 . S
C3245 H3227 0.930 . S
C3245 N3242 1.321 . S
C3245 C3243 1.400 . S
C3246 H3241 0.930 . S
C3246 C3243 1.386 . S
C3246 C3247 1.395 . S
C3247 C3244 1.411 . S
C3247 C3246 1.395 . S
C3247 C3269 1.420 . S
O3248 Eu3204 2.558 . S
O3248 C3268 1.257 . S
O3249 Eu3204 2.612 . S
O3249 Eu3215 2.380 . S
O3249 C3260 1.276 . S
O3250 Eu3215 2.432 . S
O3250 C3267 1.264 . S
O3251 Eu3204 2.339 . S
O3251 C3267 1.254 . S
O3252 Eu3204 2.563 . S
O3252 C3260 1.235 . S
O3253 Eu3204 2.419 . S
O3253 C3268 1.249 . S
O3254 Eu3215 2.558 . S
O3254 C3279 1.257 . S
O3255 Eu3204 2.380 . S
O3255 Eu3215 2.612 . S
O3255 C3271 1.276 . S
O3256 Eu3204 2.432 . S
O3256 C3278 1.264 . S
O3257 Eu3215 2.339 . S
O3257 C3278 1.254 . S
O3258 Eu3215 2.563 . S
O3258 C3271 1.235 . S
O3259 Eu3215 2.419 . S
O3259 C3279 1.249 . S
C3260 O3249 1.276 . S
C3260 O3252 1.235 . S
C3261 C3263 1.393 . S
C3261 C3265 1.395 . S
C3261 C3268 1.492 . S
C3262 C3263 1.392 . S
C3262 C3264 1.386 . S
C3263 C3261 1.393 . S
C3263 C3262 1.392 . S
C3263 H3280 0.930 . S
C3264 C3262 1.386 . S
C3264 C3266 1.395 . S
C3264 H3281 0.930 . S
C3265 C3261 1.395 . S
C3265 C3266 1.379 . S
C3265 H3282 0.930 . S
C3266 C3264 1.395 . S
C3266 C3265 1.379 . S
C3266 H3283 0.930 . S
C3267 O3250 1.264 . S
C3267 O3251 1.254 . S
C3268 Eu3204 2.848 . S
C3268 O3248 1.257 . S
C3268 O3253 1.249 . S
C3268 C3261 1.492 . S
C3269 H3234 0.931 . S
C3269 C3247 1.420 . S
C3269 C3270 1.351 . S
C3270 H3232 0.930 . S
C3270 C3238 1.423 . S
C3270 C3269 1.351 . S
C3271 O3255 1.276 . S
C3271 O3258 1.235 . S
C3272 C3273 1.393 . S
C3272 C3276 1.395 . S
C3272 C3279 1.492 . S
C3273 C3272 1.393 . S
C3273 C3274 1.392 . S
C3273 H3284 0.930 . S
C3274 C3273 1.392 . S
C3274 C3275 1.386 . S
C3275 C3274 1.386 . S
C3275 C3277 1.395 . S
C3275 H3285 0.930 . S
C3276 C3272 1.395 . S
C3276 C3277 1.379 . S
C3276 H3286 0.930 . S
C3277 C3275 1.395 . S
C3277 C3276 1.379 . S
C3277 H3287 0.930 . S
C3278 O3256 1.264 . S
C3278 O3257 1.254 . S
C3279 Eu3215 2.848 . S
C3279 O3254 1.257 . S
C3279 O3259 1.249 . S
C3279 C3272 1.492 . S
H3280 C3263 0.930 . S
H3281 C3264 0.930 . S
H3282 C3265 0.930 . S
H3283 C3266 0.930 . S
H3284 C3273 0.930 . S
H3285 C3275 0.930 . S
H3286 C3276 0.930 . S
H3287 C3277 0.930 . S
Eu3288 N3319 2.657 . S
Eu3288 N3326 2.609 . S
Eu3288 O3332 2.558 . S
Eu3288 O3333 2.612 . S
Eu3288 O3335 2.339 . S
Eu3288 O3336 2.563 . S
Eu3288 O3337 2.419 . S
Eu3288 O3339 2.380 . S
Eu3288 O3340 2.432 . S
Eu3288 C3352 2.848 . S
C3289 C3292 1.429 . S
C3289 C3293 1.411 . S
C3289 N3296 1.377 . S
C3290 C3292 1.420 . S
C3290 C3294 1.423 . S
C3290 C3302 1.392 . S
C3291 C3293 1.420 . S
C3291 C3294 1.351 . S
C3291 H3314 0.931 . S
C3292 C3289 1.429 . S
C3292 C3290 1.420 . S
C3292 N3300 1.362 . S
C3293 C3289 1.411 . S
C3293 C3291 1.420 . S
C3293 C3298 1.395 . S
C3294 C3290 1.423 . S
C3294 C3291 1.351 . S
C3294 H3306 0.930 . S
C3295 C3297 1.400 . S
C3295 C3298 1.386 . S
C3295 H3307 0.930 . S
N3296 C3289 1.377 . S
N3296 C3297 1.321 . S
N3296 Eu3299 2.609 . S
C3297 C3295 1.400 . S
C3297 N3296 1.321 . S
C3297 H3304 0.930 . S
C3298 C3293 1.395 . S
C3298 C3295 1.386 . S
C3298 H3317 0.930 . S
Eu3299 N3296 2.609 . S
Eu3299 N3300 2.657 . S
Eu3299 O3333 2.380 . S
Eu3299 O3334 2.432 . S
Eu3299 O3338 2.558 . S
Eu3299 O3339 2.612 . S
Eu3299 O3341 2.339 . S
Eu3299 O3342 2.563 . S
Eu3299 O3343 2.419 . S
Eu3299 C3363 2.848 . S
N3300 C3292 1.362 . S
N3300 Eu3299 2.657 . S
N3300 C3301 1.334 . S
C3301 N3300 1.334 . S
C3301 C3303 1.413 . S
C3301 H3308 0.929 . S
C3302 C3290 1.392 . S
C3302 C3303 1.367 . S
C3302 H3310 0.930 . S
C3303 C3301 1.413 . S
C3303 C3302 1.367 . S
C3303 H3305 0.930 . S
H3304 C3297 0.930 . S
H3305 C3303 0.930 . S
H3306 C3294 0.930 . S
H3307 C3295 0.930 . S
H3308 C3301 0.929 . S
H3309 C3323 0.930 . S
H3310 C3302 0.930 . S
H3311 C3329 0.930 . S
H3312 C3320 0.929 . S
H3313 C3327 0.930 . S
H3314 C3291 0.931 . S
H3315 C3321 0.930 . S
H3316 C3354 0.930 . S
H3317 C3298 0.930 . S
H3318 C3353 0.931 . S
N3319 Eu3288 2.657 . S
N3319 C3320 1.334 . S
N3319 C3324 1.362 . S
C3320 H3312 0.929 . S
C3320 N3319 1.334 . S
C3320 C3323 1.413 . S
C3321 H3315 0.930 . S
C3321 C3322 1.392 . S
C3321 C3323 1.367 . S
C3322 C3321 1.392 . S
C3322 C3324 1.420 . S
C3322 C3354 1.423 . S
C3323 H3309 0.930 . S
C3323 C3320 1.413 . S
C3323 C3321 1.367 . S
C3324 N3319 1.362 . S
C3324 C3322 1.420 . S
C3324 C3328 1.429 . S
H3325 C3330 0.930 . S
N3326 Eu3288 2.609 . S
N3326 C3328 1.377 . S
N3326 C3329 1.321 . S
C3327 H3313 0.930 . S
C3327 C3329 1.400 . S
C3327 C3330 1.386 . S
C3328 C3324 1.429 . S
C3328 N3326 1.377 . S
C3328 C3331 1.411 . S
C3329 H3311 0.930 . S
C3329 N3326 1.321 . S
C3329 C3327 1.400 . S
C3330 H3325 0.930 . S
C3330 C3327 1.386 . S
C3330 C3331 1.395 . S
C3331 C3328 1.411 . S
C3331 C3330 1.395 . S
C3331 C3353 1.420 . S
O3332 Eu3288 2.558 . S
O3332 C3352 1.257 . S
O3333 Eu3288 2.612 . S
O3333 Eu3299 2.380 . S
O3333 C3344 1.276 . S
O3334 Eu3299 2.432 . S
O3334 C3351 1.264 . S
O3335 Eu3288 2.339 . S
O3335 C3351 1.254 . S
O3336 Eu3288 2.563 . S
O3336 C3344 1.235 . S
O3337 Eu3288 2.419 . S
O3337 C3352 1.249 . S
O3338 Eu3299 2.558 . S
O3338 C3363 1.257 . S
O3339 Eu3288 2.380 . S
O3339 Eu3299 2.612 . S
O3339 C3355 1.276 . S
O3340 Eu3288 2.432 . S
O3340 C3362 1.264 . S
O3341 Eu3299 2.339 . S
O3341 C3362 1.254 . S
O3342 Eu3299 2.563 . S
O3342 C3355 1.235 . S
O3343 Eu3299 2.419 . S
O3343 C3363 1.249 . S
C3344 O3333 1.276 . S
C3344 O3336 1.235 . S
C3345 C3347 1.393 . S
C3345 C3349 1.395 . S
C3345 C3352 1.492 . S
C3346 C3347 1.392 . S
C3346 C3348 1.386 . S
C3347 C3345 1.393 . S
C3347 C3346 1.392 . S
C3347 H3364 0.930 . S
C3348 C3346 1.386 . S
C3348 C3350 1.395 . S
C3348 H3365 0.930 . S
C3349 C3345 1.395 . S
C3349 C3350 1.379 . S
C3349 H3366 0.930 . S
C3350 C3348 1.395 . S
C3350 C3349 1.379 . S
C3350 H3367 0.930 . S
C3351 O3334 1.264 . S
C3351 O3335 1.254 . S
C3352 Eu3288 2.848 . S
C3352 O3332 1.257 . S
C3352 O3337 1.249 . S
C3352 C3345 1.492 . S
C3353 H3318 0.931 . S
C3353 C3331 1.420 . S
C3353 C3354 1.351 . S
C3354 H3316 0.930 . S
C3354 C3322 1.423 . S
C3354 C3353 1.351 . S
C3355 O3339 1.276 . S
C3355 O3342 1.235 . S
C3356 C3357 1.393 . S
C3356 C3360 1.395 . S
C3356 C3363 1.492 . S
C3357 C3356 1.393 . S
C3357 C3358 1.392 . S
C3357 H3368 0.930 . S
C3358 C3357 1.392 . S
C3358 C3359 1.386 . S
C3359 C3358 1.386 . S
C3359 C3361 1.395 . S
C3359 H3369 0.930 . S
C3360 C3356 1.395 . S
C3360 C3361 1.379 . S
C3360 H3370 0.930 . S
C3361 C3359 1.395 . S
C3361 C3360 1.379 . S
C3361 H3371 0.930 . S
C3362 O3340 1.264 . S
C3362 O3341 1.254 . S
C3363 Eu3299 2.848 . S
C3363 O3338 1.257 . S
C3363 O3343 1.249 . S
C3363 C3356 1.492 . S
H3364 C3347 0.930 . S
H3365 C3348 0.930 . S
H3366 C3349 0.930 . S
H3367 C3350 0.930 . S
H3368 C3357 0.930 . S
H3369 C3359 0.930 . S
H3370 C3360 0.930 . S
H3371 C3361 0.930 . S
Eu3372 N3403 2.657 . S
Eu3372 N3410 2.609 1_554 S
Eu3372 O3416 2.558 1_554 S
Eu3372 O3417 2.612 . S
Eu3372 O3419 2.339 . S
Eu3372 O3420 2.563 1_554 S
Eu3372 O3421 2.419 . S
Eu3372 O3423 2.380 . S
Eu3372 O3424 2.432 1_554 S
Eu3372 C3436 2.848 1_554 S
C3373 C3376 1.429 . S
C3373 C3377 1.411 . S
C3373 N3380 1.377 1_655 S
C3374 C3376 1.420 . S
C3374 C3378 1.423 . S
C3374 C3386 1.392 1_554 S
C3375 C3377 1.420 . S
C3375 C3378 1.351 . S
C3375 H3398 0.931 . S
C3376 C3373 1.429 . S
C3376 C3374 1.420 . S
C3376 N3384 1.362 1_655 S
C3377 C3373 1.411 . S
C3377 C3375 1.420 . S
C3377 C3382 1.395 . S
C3378 C3374 1.423 . S
C3378 C3375 1.351 . S
C3378 H3390 0.930 . S
C3379 C3381 1.400 . S
C3379 C3382 1.386 1_455 S
C3379 H3391 0.930 . S
N3380 C3373 1.377 1_455 S
N3380 C3381 1.321 . S
N3380 Eu3383 2.609 . S
C3381 C3379 1.400 . S
C3381 N3380 1.321 . S
C3381 H3388 0.930 . S
C3382 C3377 1.395 . S
C3382 C3379 1.386 1_655 S
C3382 H3401 0.930 . S
Eu3383 N3380 2.609 . S
Eu3383 N3384 2.657 . S
Eu3383 O3417 2.380 . S
Eu3383 O3418 2.432 . S
Eu3383 O3422 2.558 . S
Eu3383 O3423 2.612 . S
Eu3383 O3425 2.339 1_554 S
Eu3383 O3426 2.563 . S
Eu3383 O3427 2.419 1_455 S
Eu3383 C3447 2.848 1_455 S
N3384 C3376 1.362 1_455 S
N3384 Eu3383 2.657 . S
N3384 C3385 1.334 1_454 S
C3385 N3384 1.334 1_656 S
C3385 C3387 1.413 . S
C3385 H3392 0.929 1_655 S
C3386 C3374 1.392 1_556 S
C3386 C3387 1.367 . S
C3386 H3394 0.930 . S
C3387 C3385 1.413 . S
C3387 C3386 1.367 . S
C3387 H3389 0.930 . S
H3388 C3381 0.930 . S
H3389 C3387 0.930 . S
H3390 C3378 0.930 . S
H3391 C3379 0.930 . S
H3392 C3385 0.929 1_455 S
H3393 C3407 0.930 . S
H3394 C3386 0.930 . S
H3395 C3413 0.930 . S
H3396 C3404 0.929 . S
H3397 C3411 0.930 . S
H3398 C3375 0.931 . S
H3399 C3405 0.930 . S
H3400 C3438 0.929 1_554 S
H3401 C3382 0.930 . S
H3402 C3437 0.931 . S
N3403 Eu3372 2.657 . S
N3403 C3404 1.334 . S
N3403 C3408 1.362 . S
C3404 H3396 0.929 . S
C3404 N3403 1.334 . S
C3404 C3407 1.413 . S
C3405 H3399 0.930 . S
C3405 C3406 1.392 . S
C3405 C3407 1.367 . S
C3406 C3405 1.392 . S
C3406 C3408 1.420 . S
C3406 C3438 1.418 1_554 S
C3407 H3393 0.930 . S
C3407 C3404 1.413 . S
C3407 C3405 1.367 . S
C3408 N3403 1.362 . S
C3408 C3406 1.420 . S
C3408 C3412 1.429 1_554 S
H3409 C3414 0.930 . S
N3410 Eu3372 2.609 1_556 S
N3410 C3412 1.377 . S
N3410 C3413 1.321 . S
C3411 H3397 0.930 . S
C3411 C3413 1.400 . S
C3411 C3414 1.386 . S
C3412 C3408 1.429 1_556 S
C3412 N3410 1.377 . S
C3412 C3415 1.411 . S
C3413 H3395 0.930 . S
C3413 N3410 1.321 . S
C3413 C3411 1.400 . S
C3414 H3409 0.930 . S
C3414 C3411 1.386 . S
C3414 C3415 1.395 . S
C3415 C3412 1.411 . S
C3415 C3414 1.395 . S
C3415 C3437 1.420 . S
O3416 Eu3372 2.558 1_556 S
O3416 C3436 1.257 . S
O3417 Eu3372 2.612 . S
O3417 Eu3383 2.380 . S
O3417 C3428 1.276 . S
O3418 Eu3383 2.432 . S
O3418 C3435 1.264 . S
O3419 Eu3372 2.339 . S
O3419 C3435 1.254 . S
O3420 Eu3372 2.563 1_556 S
O3420 C3428 1.235 1_556 S
O3421 Eu3372 2.419 . S
O3421 C3436 1.249 1_554 S
O3422 Eu3383 2.558 . S
O3422 C3447 1.257 1_455 S
O3423 Eu3372 2.380 . S
O3423 Eu3383 2.612 . S
O3423 C3439 1.276 . S
O3424 Eu3372 2.432 1_556 S
O3424 C3446 1.264 . S
O3425 Eu3383 2.339 1_556 S
O3425 C3446 1.254 . S
O3426 Eu3383 2.563 . S
O3426 C3439 1.235 . S
O3427 Eu3383 2.419 1_655 S
O3427 C3447 1.249 . S
C3428 O3417 1.276 . S
C3428 O3420 1.235 1_554 S
C3429 C3431 1.402 . S
C3429 C3433 1.395 . S
C3429 C3436 1.492 . S
C3430 C3431 1.394 . S
C3430 C3432 1.386 . S
C3431 C3429 1.402 . S
C3431 C3430 1.394 . S
C3431 H3448 0.919 1_556 S
C3432 C3430 1.386 . S
C3432 C3434 1.395 . S
C3432 H3449 0.930 . S
C3433 C3429 1.395 . S
C3433 C3434 1.379 . S
C3433 H3450 0.930 . S
C3434 C3432 1.395 . S
C3434 C3433 1.379 . S
C3434 H3451 0.930 . S
C3435 O3418 1.264 . S
C3435 O3419 1.254 . S
C3436 Eu3372 2.848 1_556 S
C3436 O3416 1.257 . S
C3436 O3421 1.249 1_556 S
C3436 C3429 1.492 . S
C3437 H3402 0.931 . S
C3437 C3415 1.420 . S
C3437 C3438 1.356 . S
C3438 H3400 0.929 1_556 S
C3438 C3406 1.418 1_556 S
C3438 C3437 1.356 . S
C3439 O3423 1.276 . S
C3439 O3426 1.235 . S
C3440 C3441 1.393 . S
C3440 C3444 1.395 . S
C3440 C3447 1.492 . S
C3441 C3440 1.393 . S
C3441 C3442 1.392 . S
C3441 H3452 0.930 . S
C3442 C3441 1.392 . S
C3442 C3443 1.386 . S
C3443 C3442 1.386 . S
C3443 C3445 1.395 . S
C3443 H3453 0.930 . S
C3444 C3440 1.395 . S
C3444 C3445 1.379 . S
C3444 H3454 0.930 . S
C3445 C3443 1.395 . S
C3445 C3444 1.379 . S
C3445 H3455 0.930 . S
C3446 O3424 1.264 . S
C3446 O3425 1.254 . S
C3447 Eu3383 2.848 1_655 S
C3447 O3422 1.257 1_655 S
C3447 O3427 1.249 . S
C3447 C3440 1.492 . S
H3448 C3431 0.919 1_554 S
H3449 C3432 0.930 . S
H3450 C3433 0.930 . S
H3451 C3434 0.930 . S
H3452 C3441 0.930 . S
H3453 C3443 0.930 . S
H3454 C3444 0.930 . S
H3455 C3445 0.930 . S
C3456 C3457 1.369 . S
C3456 C3458 1.419 . S
C3456 H3460 0.930 . S
C3457 C3456 1.369 . S
C3457 C3466 1.429 1_554 S
C3458 C3456 1.419 . S
C3458 C3459 1.363 . S
C3458 H3461 0.929 . S
C3459 C3458 1.363 . S
C3459 C3465 1.414 1_554 S
H3460 C3456 0.930 . S
H3461 C3458 0.929 . S
S3462 N3463 1.613 . S
S3462 N3464 1.610 . S
N3463 S3462 1.613 . S
N3463 C3466 1.350 . S
N3464 S3462 1.610 . S
N3464 C3465 1.363 . S
C3465 C3459 1.414 1_556 S
C3465 N3464 1.363 . S
C3465 C3466 1.439 . S
C3466 C3457 1.429 1_556 S
C3466 N3463 1.350 . S
C3466 C3465 1.439 . S
C3467 C3468 1.369 . S
C3467 C3469 1.419 . S
C3467 H3471 0.930 . S
C3468 C3467 1.369 . S
C3468 C3477 1.429 . S
C3469 C3467 1.419 . S
C3469 C3470 1.363 . S
C3469 H3472 0.929 . S
C3470 C3469 1.363 . S
C3470 C3476 1.428 . S
H3471 C3467 0.930 . S
H3472 C3469 0.929 . S
S3473 N3474 1.613 . S
S3473 N3475 1.610 . S
N3474 S3473 1.613 . S
N3474 C3477 1.350 . S
N3475 S3473 1.610 . S
N3475 C3476 1.351 . S
C3476 C3470 1.428 . S
C3476 N3475 1.351 . S
C3476 C3477 1.434 . S
C3477 C3468 1.429 . S
C3477 N3474 1.350 . S
C3477 C3476 1.434 . S
C3478 C3479 1.369 . S
C3478 C3480 1.419 . S
C3478 H3482 0.930 . S
C3479 C3478 1.369 . S
C3479 C3488 1.429 . S
C3480 C3478 1.419 . S
C3480 C3481 1.363 . S
C3480 H3483 0.929 . S
C3481 C3480 1.363 . S
C3481 C3487 1.428 . S
H3482 C3478 0.930 . S
H3483 C3480 0.929 . S
S3484 N3485 1.613 . S
S3484 N3486 1.610 . S
N3485 S3484 1.613 . S
N3485 C3488 1.350 . S
N3486 S3484 1.610 . S
N3486 C3487 1.351 . S
C3487 C3481 1.428 . S
C3487 N3486 1.351 . S
C3487 C3488 1.434 . S
C3488 C3479 1.429 . S
C3488 N3485 1.350 . S
C3488 C3487 1.434 . S
C3489 C3490 1.369 . S
C3489 C3491 1.419 . S
C3489 H3493 0.930 . S
C3490 C3489 1.369 . S
C3490 C3499 1.429 . S
C3491 C3489 1.419 . S
C3491 C3492 1.363 . S
C3491 H3494 0.929 . S
C3492 C3491 1.363 . S
C3492 C3498 1.428 . S
H3493 C3489 0.930 . S
H3494 C3491 0.929 . S
S3495 N3496 1.613 . S
S3495 N3497 1.610 . S
N3496 S3495 1.613 . S
N3496 C3499 1.350 . S
N3497 S3495 1.610 . S
N3497 C3498 1.351 . S
C3498 C3492 1.428 . S
C3498 N3497 1.351 . S
C3498 C3499 1.434 . S
C3499 C3490 1.429 . S
C3499 N3496 1.350 . S
C3499 C3498 1.434 . S
C3500 C3501 1.369 . S
C3500 C3502 1.419 . S
C3500 H3504 0.930 1_455 S
C3501 C3500 1.369 . S
C3501 C3510 1.429 . S
C3502 C3500 1.419 . S
C3502 C3503 1.363 . S
C3502 H3505 0.929 . S
C3503 C3502 1.363 . S
C3503 C3509 1.428 . S
H3504 C3500 0.930 1_655 S
H3505 C3502 0.929 . S
S3506 N3507 1.613 . S
S3506 N3508 1.610 . S
N3507 S3506 1.613 . S
N3507 C3510 1.350 . S
N3508 S3506 1.610 . S
N3508 C3509 1.351 . S
C3509 C3503 1.428 . S
C3509 N3508 1.351 . S
C3509 C3510 1.434 . S
C3510 C3501 1.429 . S
C3510 N3507 1.350 . S
C3510 C3509 1.434 . S
C3511 C3512 1.369 . S
C3511 C3513 1.419 . S
C3511 H3515 0.930 . S
C3512 C3511 1.369 . S
C3512 C3521 1.429 . S
C3513 C3511 1.419 . S
C3513 C3514 1.363 . S
C3513 H3516 0.929 . S
C3514 C3513 1.363 . S
C3514 C3520 1.428 . S
H3515 C3511 0.930 . S
H3516 C3513 0.929 . S
S3517 N3518 1.613 . S
S3517 N3519 1.610 . S
N3518 S3517 1.613 . S
N3518 C3521 1.350 . S
N3519 S3517 1.610 . S
N3519 C3520 1.351 . S
C3520 C3514 1.428 . S
C3520 N3519 1.351 . S
C3520 C3521 1.434 . S
C3521 C3512 1.429 . S
C3521 N3518 1.350 . S
C3521 C3520 1.434 . S
C3522 C3523 1.369 . S
C3522 C3524 1.419 . S
C3522 H3526 0.930 . S
C3523 C3522 1.369 . S
C3523 C3532 1.429 . S
C3524 C3522 1.419 . S
C3524 C3525 1.363 . S
C3524 H3527 0.929 . S
C3525 C3524 1.363 . S
C3525 C3531 1.428 . S
H3526 C3522 0.930 . S
H3527 C3524 0.929 . S
S3528 N3529 1.613 . S
S3528 N3530 1.610 . S
N3529 S3528 1.613 . S
N3529 C3532 1.350 . S
N3530 S3528 1.610 . S
N3530 C3531 1.351 . S
C3531 C3525 1.428 . S
C3531 N3530 1.351 . S
C3531 C3532 1.434 . S
C3532 C3523 1.429 . S
C3532 N3529 1.350 . S
C3532 C3531 1.434 . S
C3533 C3534 1.369 . S
C3533 C3535 1.419 . S
C3533 H3537 0.930 . S
C3534 C3533 1.369 . S
C3534 C3543 1.429 . S
C3535 C3533 1.419 . S
C3535 C3536 1.363 . S
C3535 H3538 0.929 . S
C3536 C3535 1.363 . S
C3536 C3542 1.428 . S
H3537 C3533 0.930 . S
H3538 C3535 0.929 . S
S3539 N3540 1.613 . S
S3539 N3541 1.610 . S
N3540 S3539 1.613 . S
N3540 C3543 1.350 . S
N3541 S3539 1.610 . S
N3541 C3542 1.351 . S
C3542 C3536 1.428 . S
C3542 N3541 1.351 . S
C3542 C3543 1.434 . S
C3543 C3534 1.429 . S
C3543 N3540 1.350 . S
C3543 C3542 1.434 . S
C3544 C3545 1.369 . S
C3544 C3546 1.419 . S
C3544 H3548 0.930 . S
C3545 C3544 1.369 . S
C3545 C3554 1.429 . S
C3546 C3544 1.419 . S
C3546 C3547 1.363 . S
C3546 H3549 0.929 . S
C3547 C3546 1.363 . S
C3547 C3553 1.428 . S
H3548 C3544 0.930 . S
H3549 C3546 0.929 . S
S3550 N3551 1.613 1_565 S
S3550 N3552 1.610 1_565 S
N3551 S3550 1.613 1_545 S
N3551 C3554 1.350 . S
N3552 S3550 1.610 1_545 S
N3552 C3553 1.351 . S
C3553 C3547 1.428 . S
C3553 N3552 1.351 . S
C3553 C3554 1.434 . S
C3554 C3545 1.429 . S
C3554 N3551 1.350 . S
C3554 C3553 1.434 . S
C3555 C3556 1.369 . S
C3555 C3557 1.419 . S
C3555 H3559 0.930 . S
C3556 C3555 1.369 . S
C3556 C3565 1.429 . S
C3557 C3555 1.419 . S
C3557 C3558 1.363 . S
C3557 H3560 0.929 . S
C3558 C3557 1.363 . S
C3558 C3564 1.428 . S
H3559 C3555 0.930 . S
H3560 C3557 0.929 . S
S3561 N3562 1.613 . S
S3561 N3563 1.610 . S
N3562 S3561 1.613 . S
N3562 C3565 1.350 . S
N3563 S3561 1.610 . S
N3563 C3564 1.351 . S
C3564 C3558 1.428 . S
C3564 N3563 1.351 . S
C3564 C3565 1.434 . S
C3565 C3556 1.429 . S
C3565 N3562 1.350 . S
C3565 C3564 1.434 . S
C3566 C3567 1.369 . S
C3566 C3568 1.419 . S
C3566 H3570 0.930 . S
C3567 C3566 1.369 . S
C3567 C3576 1.429 . S
C3568 C3566 1.419 . S
C3568 C3569 1.363 . S
C3568 H3571 0.929 . S
C3569 C3568 1.363 . S
C3569 C3575 1.428 . S
H3570 C3566 0.930 . S
H3571 C3568 0.929 . S
S3572 N3573 1.613 . S
S3572 N3574 1.610 . S
N3573 S3572 1.613 . S
N3573 C3576 1.350 . S
N3574 S3572 1.610 . S
N3574 C3575 1.351 . S
C3575 C3569 1.428 . S
C3575 N3574 1.351 . S
C3575 C3576 1.434 . S
C3576 C3567 1.429 . S
C3576 N3573 1.350 . S
C3576 C3575 1.434 . S
C3577 C3578 1.369 . S
C3577 C3579 1.419 . S
C3577 H3581 0.930 . S
C3578 C3577 1.369 . S
C3578 C3587 1.429 . S
C3579 C3577 1.419 . S
C3579 C3580 1.363 . S
C3579 H3582 0.929 . S
C3580 C3579 1.363 . S
C3580 C3586 1.428 . S
H3581 C3577 0.930 . S
H3582 C3579 0.929 . S
S3583 N3584 1.613 . S
S3583 N3585 1.610 . S
N3584 S3583 1.613 . S
N3584 C3587 1.350 . S
N3585 S3583 1.610 . S
N3585 C3586 1.351 . S
C3586 C3580 1.428 . S
C3586 N3585 1.351 . S
C3586 C3587 1.434 . S
C3587 C3578 1.429 . S
C3587 N3584 1.350 . S
C3587 C3586 1.434 . S
C3588 C3589 1.369 . S
C3588 C3590 1.419 . S
C3588 H3592 0.930 . S
C3589 C3588 1.369 . S
C3589 C3598 1.429 . S
C3590 C3588 1.419 . S
C3590 C3591 1.363 . S
C3590 H3593 0.929 . S
C3591 C3590 1.363 . S
C3591 C3597 1.428 . S
H3592 C3588 0.930 . S
H3593 C3590 0.929 . S
S3594 N3595 1.613 . S
S3594 N3596 1.610 . S
N3595 S3594 1.613 . S
N3595 C3598 1.350 . S
N3596 S3594 1.610 . S
N3596 C3597 1.351 . S
C3597 C3591 1.428 . S
C3597 N3596 1.351 . S
C3597 C3598 1.434 . S
C3598 C3589 1.429 . S
C3598 N3595 1.350 . S
C3598 C3597 1.434 . S
C3599 C3600 1.369 . S
C3599 C3601 1.419 . S
C3599 H3603 0.930 . S
C3600 C3599 1.369 . S
C3600 C3609 1.429 . S
C3601 C3599 1.419 . S
C3601 C3602 1.363 . S
C3601 H3604 0.929 . S
C3602 C3601 1.363 . S
C3602 C3608 1.428 . S
H3603 C3599 0.930 . S
H3604 C3601 0.929 . S
S3605 N3606 1.613 . S
S3605 N3607 1.610 . S
N3606 S3605 1.613 . S
N3606 C3609 1.350 . S
N3607 S3605 1.610 . S
N3607 C3608 1.351 . S
C3608 C3602 1.428 . S
C3608 N3607 1.351 . S
C3608 C3609 1.434 . S
C3609 C3600 1.429 . S
C3609 N3606 1.350 . S
C3609 C3608 1.434 . S
C3610 C3611 1.369 . S
C3610 C3612 1.419 . S
C3610 H3614 0.930 . S
C3611 C3610 1.369 . S
C3611 C3620 1.429 . S
C3612 C3610 1.419 . S
C3612 C3613 1.363 . S
C3612 H3615 0.929 . S
C3613 C3612 1.363 . S
C3613 C3619 1.428 . S
H3614 C3610 0.930 . S
H3615 C3612 0.929 . S
S3616 N3617 1.613 . S
S3616 N3618 1.610 . S
N3617 S3616 1.613 . S
N3617 C3620 1.350 . S
N3618 S3616 1.610 . S
N3618 C3619 1.351 . S
C3619 C3613 1.428 . S
C3619 N3618 1.351 . S
C3619 C3620 1.434 . S
C3620 C3611 1.429 . S
C3620 N3617 1.350 . S
C3620 C3619 1.434 . S
C3621 C3622 1.369 . S
C3621 C3623 1.419 . S
C3621 H3625 0.930 . S
C3622 C3621 1.369 . S
C3622 C3631 1.429 . S
C3623 C3621 1.419 . S
C3623 C3624 1.363 . S
C3623 H3626 0.929 . S
C3624 C3623 1.363 . S
C3624 C3630 1.428 . S
H3625 C3621 0.930 . S
H3626 C3623 0.929 . S
S3627 N3628 1.613 . S
S3627 N3629 1.610 . S
N3628 S3627 1.613 . S
N3628 C3631 1.350 . S
N3629 S3627 1.610 . S
N3629 C3630 1.351 . S
C3630 C3624 1.428 . S
C3630 N3629 1.351 . S
C3630 C3631 1.434 . S
C3631 C3622 1.429 . S
C3631 N3628 1.350 . S
C3631 C3630 1.434 . S
C3632 C3633 1.369 . S
C3632 C3634 1.419 . S
C3632 H3636 0.930 1_554 S
C3633 C3632 1.369 . S
C3633 C3642 1.429 1_545 S
C3634 C3632 1.419 . S
C3634 C3635 1.363 . S
C3634 H3637 0.929 . S
C3635 C3634 1.363 . S
C3635 C3641 1.428 1_545 S
H3636 C3632 0.930 1_556 S
H3637 C3634 0.929 . S
S3638 N3639 1.613 . S
S3638 N3640 1.610 . S
N3639 S3638 1.613 . S
N3639 C3642 1.350 . S
N3640 S3638 1.610 . S
N3640 C3641 1.351 . S
C3641 C3635 1.428 1_565 S
C3641 N3640 1.351 . S
C3641 C3642 1.434 . S
C3642 C3633 1.429 1_565 S
C3642 N3639 1.350 . S
C3642 C3641 1.434 . S
C3643 C3644 1.369 . S
C3643 C3645 1.416 1_556 S
C3643 H3647 0.930 . S
C3644 C3643 1.369 . S
C3644 C3653 1.429 . S
C3645 C3643 1.416 1_554 S
C3645 C3646 1.364 1_554 S
C3645 H3648 0.931 . S
C3646 C3645 1.364 1_556 S
C3646 C3652 1.428 . S
H3647 C3643 0.930 . S
H3648 C3645 0.931 . S
S3649 N3650 1.613 . S
S3649 N3651 1.610 . S
N3650 S3649 1.613 . S
N3650 C3653 1.350 . S
N3651 S3649 1.610 . S
N3651 C3652 1.351 . S
C3652 C3646 1.428 . S
C3652 N3651 1.351 . S
C3652 C3653 1.434 . S
C3653 C3644 1.429 . S
C3653 N3650 1.350 . S
C3653 C3652 1.434 . S
C3654 C3655 1.369 . S
C3654 C3656 1.419 . S
C3654 H3658 0.930 . S
C3655 C3654 1.369 . S
C3655 C3664 1.429 . S
C3656 C3654 1.419 . S
C3656 C3657 1.363 . S
C3656 H3659 0.929 . S
C3657 C3656 1.363 . S
C3657 C3663 1.428 . S
H3658 C3654 0.930 . S
H3659 C3656 0.929 . S
S3660 N3661 1.613 . S
S3660 N3662 1.610 . S
N3661 S3660 1.613 . S
N3661 C3664 1.350 . S
N3662 S3660 1.610 . S
N3662 C3663 1.351 . S
C3663 C3657 1.428 . S
C3663 N3662 1.351 . S
C3663 C3664 1.434 . S
C3664 C3655 1.429 . S
C3664 N3661 1.350 . S
C3664 C3663 1.434 . S
C3665 C3666 1.369 . S
C3665 C3667 1.419 1_655 S
C3665 H3669 0.930 . S
C3666 C3665 1.369 . S
C3666 C3675 1.429 . S
C3667 C3665 1.419 1_455 S
C3667 C3668 1.363 . S
C3667 H3670 0.929 . S
C3668 C3667 1.363 . S
C3668 C3674 1.428 1_455 S
H3669 C3665 0.930 . S
H3670 C3667 0.929 . S
S3671 N3672 1.613 . S
S3671 N3673 1.610 . S
N3672 S3671 1.613 . S
N3672 C3675 1.350 . S
N3673 S3671 1.610 . S
N3673 C3674 1.351 . S
C3674 C3668 1.428 1_655 S
C3674 N3673 1.351 . S
C3674 C3675 1.434 . S
C3675 C3666 1.429 . S
C3675 N3672 1.350 . S
C3675 C3674 1.434 . S
C3676 C3677 1.369 . S
C3676 C3678 1.419 . S
C3676 H3680 0.930 . S
C3677 C3676 1.369 . S
C3677 C3686 1.429 . S
C3678 C3676 1.419 . S
C3678 C3679 1.363 . S
C3678 H3681 0.929 . S
C3679 C3678 1.363 . S
C3679 C3685 1.428 . S
H3680 C3676 0.930 . S
H3681 C3678 0.929 . S
S3682 N3683 1.613 . S
S3682 N3684 1.610 . S
N3683 S3682 1.613 . S
N3683 C3686 1.350 . S
N3684 S3682 1.610 . S
N3684 C3685 1.351 . S
C3685 C3679 1.428 . S
C3685 N3684 1.351 . S
C3685 C3686 1.434 . S
C3686 C3677 1.429 . S
C3686 N3683 1.350 . S
C3686 C3685 1.434 . S
C3687 C3688 1.369 . S
C3687 C3689 1.419 . S
C3687 H3691 0.930 . S
C3688 C3687 1.369 . S
C3688 C3697 1.429 . S
C3689 C3687 1.419 . S
C3689 C3690 1.363 . S
C3689 H3692 0.929 . S
C3690 C3689 1.363 . S
C3690 C3696 1.428 . S
H3691 C3687 0.930 . S
H3692 C3689 0.929 . S
S3693 N3694 1.613 . S
S3693 N3695 1.610 . S
N3694 S3693 1.613 . S
N3694 C3697 1.350 . S
N3695 S3693 1.610 . S
N3695 C3696 1.351 . S
C3696 C3690 1.428 . S
C3696 N3695 1.351 . S
C3696 C3697 1.434 . S
C3697 C3688 1.429 . S
C3697 N3694 1.350 . S
C3697 C3696 1.434 . S
C3698 C3699 1.369 . S
C3698 C3700 1.419 . S
C3698 H3702 0.930 . S
C3699 C3698 1.369 . S
C3699 C3708 1.429 . S
C3700 C3698 1.419 . S
C3700 C3701 1.363 . S
C3700 H3703 0.929 . S
C3701 C3700 1.363 . S
C3701 C3707 1.428 . S
H3702 C3698 0.930 . S
H3703 C3700 0.929 . S
S3704 N3705 1.613 . S
S3704 N3706 1.610 . S
N3705 S3704 1.613 . S
N3705 C3708 1.350 . S
N3706 S3704 1.610 . S
N3706 C3707 1.351 . S
C3707 C3701 1.428 . S
C3707 N3706 1.351 . S
C3707 C3708 1.434 . S
C3708 C3699 1.429 . S
C3708 N3705 1.350 . S
C3708 C3707 1.434 . S
C3709 C3710 1.369 . S
C3709 C3711 1.419 . S
C3709 H3713 0.930 . S
C3710 C3709 1.369 . S
C3710 C3719 1.429 . S
C3711 C3709 1.419 . S
C3711 C3712 1.363 . S
C3711 H3714 0.929 . S
C3712 C3711 1.363 . S
C3712 C3718 1.428 . S
H3713 C3709 0.930 . S
H3714 C3711 0.929 . S
S3715 N3716 1.613 . S
S3715 N3717 1.610 . S
N3716 S3715 1.613 . S
N3716 C3719 1.350 . S
N3717 S3715 1.610 . S
N3717 C3718 1.351 . S
C3718 C3712 1.428 . S
C3718 N3717 1.351 . S
C3718 C3719 1.434 . S
C3719 C3710 1.429 . S
C3719 N3716 1.350 . S
C3719 C3718 1.434 . S
C3720 C3721 1.369 . S
C3720 C3722 1.419 . S
C3720 H3724 0.930 1_554 S
C3721 C3720 1.369 . S
C3721 C3730 1.429 . S
C3722 C3720 1.419 . S
C3722 C3723 1.363 . S
C3722 H3725 0.929 1_554 S
C3723 C3722 1.363 . S
C3723 C3729 1.428 . S
H3724 C3720 0.930 1_556 S
H3725 C3722 0.929 1_556 S
S3726 N3727 1.613 . S
S3726 N3728 1.610 . S
N3727 S3726 1.613 . S
N3727 C3730 1.350 . S
N3728 S3726 1.610 . S
N3728 C3729 1.351 . S
C3729 C3723 1.428 . S
C3729 N3728 1.351 . S
C3729 C3730 1.434 . S
C3730 C3721 1.429 . S
C3730 N3727 1.350 . S
C3730 C3729 1.434 . S
C3731 C3732 1.369 . S
C3731 C3733 1.419 . S
C3731 H3735 0.930 . S
C3732 C3731 1.369 . S
C3732 C3741 1.429 . S
C3733 C3731 1.419 . S
C3733 C3734 1.363 . S
C3733 H3736 0.929 . S
C3734 C3733 1.363 . S
C3734 C3740 1.428 . S
H3735 C3731 0.930 . S
H3736 C3733 0.929 . S
S3737 N3738 1.613 . S
S3737 N3739 1.610 . S
N3738 S3737 1.613 . S
N3738 C3741 1.350 . S
N3739 S3737 1.610 . S
N3739 C3740 1.351 . S
C3740 C3734 1.428 . S
C3740 N3739 1.351 . S
C3740 C3741 1.434 . S
C3741 C3732 1.429 . S
C3741 N3738 1.350 . S
C3741 C3740 1.434 . S
C3742 C3743 1.369 . S
C3742 C3744 1.419 . S
C3742 H3746 0.930 . S
C3743 C3742 1.369 . S
C3743 C3752 1.429 . S
C3744 C3742 1.419 . S
C3744 C3745 1.363 . S
C3744 H3747 0.929 . S
C3745 C3744 1.363 . S
C3745 C3751 1.428 . S
H3746 C3742 0.930 . S
H3747 C3744 0.929 . S
S3748 N3749 1.613 . S
S3748 N3750 1.610 . S
N3749 S3748 1.613 . S
N3749 C3752 1.350 . S
N3750 S3748 1.610 . S
N3750 C3751 1.351 . S
C3751 C3745 1.428 . S
C3751 N3750 1.351 . S
C3751 C3752 1.434 . S
C3752 C3743 1.429 . S
C3752 N3749 1.350 . S
C3752 C3751 1.434 . S
C3753 C3754 1.369 . S
C3753 C3755 1.419 . S
C3753 H3757 0.930 . S
C3754 C3753 1.369 . S
C3754 C3763 1.429 . S
C3755 C3753 1.419 . S
C3755 C3756 1.363 . S
C3755 H3758 0.929 . S
C3756 C3755 1.363 . S
C3756 C3762 1.428 . S
H3757 C3753 0.930 . S
H3758 C3755 0.929 . S
S3759 N3760 1.613 . S
S3759 N3761 1.610 . S
N3760 S3759 1.613 . S
N3760 C3763 1.350 . S
N3761 S3759 1.610 . S
N3761 C3762 1.351 . S
C3762 C3756 1.428 . S
C3762 N3761 1.351 . S
C3762 C3763 1.434 . S
C3763 C3754 1.429 . S
C3763 N3760 1.350 . S
C3763 C3762 1.434 . S
C3764 C3765 1.369 . S
C3764 C3766 1.419 . S
C3764 H3768 0.930 . S
C3765 C3764 1.369 . S
C3765 C3774 1.429 . S
C3766 C3764 1.419 . S
C3766 C3767 1.363 . S
C3766 H3769 0.929 . S
C3767 C3766 1.363 . S
C3767 C3773 1.428 . S
H3768 C3764 0.930 . S
H3769 C3766 0.929 . S
S3770 N3771 1.613 . S
S3770 N3772 1.610 . S
N3771 S3770 1.613 . S
N3771 C3774 1.350 . S
N3772 S3770 1.610 . S
N3772 C3773 1.351 . S
C3773 C3767 1.428 . S
C3773 N3772 1.351 . S
C3773 C3774 1.434 . S
C3774 C3765 1.429 . S
C3774 N3771 1.350 . S
C3774 C3773 1.434 . S
C3775 C3776 1.369 . S
C3775 C3777 1.419 . S
C3775 H3779 0.930 . S
C3776 C3775 1.369 . S
C3776 C3785 1.429 . S
C3777 C3775 1.419 . S
C3777 C3778 1.363 . S
C3777 H3780 0.929 . S
C3778 C3777 1.363 . S
C3778 C3784 1.428 . S
H3779 C3775 0.930 . S
H3780 C3777 0.929 . S
S3781 N3782 1.613 . S
S3781 N3783 1.610 . S
N3782 S3781 1.613 . S
N3782 C3785 1.350 . S
N3783 S3781 1.610 . S
N3783 C3784 1.351 . S
C3784 C3778 1.428 . S
C3784 N3783 1.351 . S
C3784 C3785 1.434 . S
C3785 C3776 1.429 . S
C3785 N3782 1.350 . S
C3785 C3784 1.434 . S
C3786 C3787 1.369 . S
C3786 C3788 1.419 . S
C3786 H3790 0.930 . S
C3787 C3786 1.369 . S
C3787 C3796 1.429 . S
C3788 C3786 1.419 . S
C3788 C3789 1.363 . S
C3788 H3791 0.929 . S
C3789 C3788 1.363 . S
C3789 C3795 1.428 1_556 S
H3790 C3786 0.930 . S
H3791 C3788 0.929 . S
S3792 N3793 1.613 . S
S3792 N3794 1.610 . S
N3793 S3792 1.613 . S
N3793 C3796 1.350 1_554 S
N3794 S3792 1.610 . S
N3794 C3795 1.351 . S
C3795 C3789 1.428 1_554 S
C3795 N3794 1.351 . S
C3795 C3796 1.434 1_554 S
C3796 C3787 1.429 . S
C3796 N3793 1.350 1_556 S
C3796 C3795 1.434 1_556 S
C3797 C3798 1.369 . S
C3797 C3799 1.419 . S
C3797 H3801 0.930 . S
C3798 C3797 1.369 . S
C3798 C3807 1.429 . S
C3799 C3797 1.419 . S
C3799 C3800 1.363 . S
C3799 H3802 0.929 . S
C3800 C3799 1.363 . S
C3800 C3806 1.428 . S
H3801 C3797 0.930 . S
H3802 C3799 0.929 . S
S3803 N3804 1.613 . S
S3803 N3805 1.610 . S
N3804 S3803 1.613 . S
N3804 C3807 1.350 . S
N3805 S3803 1.610 . S
N3805 C3806 1.351 . S
C3806 C3800 1.428 . S
C3806 N3805 1.351 . S
C3806 C3807 1.434 . S
C3807 C3798 1.429 . S
C3807 N3804 1.350 . S
C3807 C3806 1.434 . S
C3808 C3809 1.369 . S
C3808 C3810 1.419 . S
C3808 H3812 0.930 . S
C3809 C3808 1.369 . S
C3809 C3818 1.440 . S
C3810 C3808 1.419 . S
C3810 C3811 1.363 . S
C3810 H3813 0.929 . S
C3811 C3810 1.363 . S
C3811 C3817 1.428 . S
H3812 C3808 0.930 . S
H3813 C3810 0.929 . S
S3814 N3815 1.613 . S
S3814 N3816 1.609 . S
N3815 S3814 1.613 . S
N3815 C3818 1.337 1_565 S
N3816 S3814 1.609 . S
N3816 C3817 1.353 1_565 S
C3817 C3811 1.428 . S
C3817 N3816 1.353 1_545 S
C3817 C3818 1.434 . S
C3818 C3809 1.440 . S
C3818 N3815 1.337 1_545 S
C3818 C3817 1.434 . S
C3819 C3820 1.369 . S
C3819 C3821 1.419 . S
C3819 H3823 0.930 . S
C3820 C3819 1.369 . S
C3820 C3829 1.429 . S
C3821 C3819 1.419 . S
C3821 C3822 1.363 . S
C3821 H3824 0.929 . S
C3822 C3821 1.363 . S
C3822 C3828 1.428 . S
H3823 C3819 0.930 . S
H3824 C3821 0.929 . S
S3825 N3826 1.613 . S
S3825 N3827 1.610 . S
N3826 S3825 1.613 . S
N3826 C3829 1.350 . S
N3827 S3825 1.610 . S
N3827 C3828 1.351 . S
C3828 C3822 1.428 . S
C3828 N3827 1.351 . S
C3828 C3829 1.434 . S
C3829 C3820 1.429 . S
C3829 N3826 1.350 . S
C3829 C3828 1.434 . S
C3830 C3831 1.369 . S
C3830 C3832 1.419 . S
C3830 H3834 0.930 . S
C3831 C3830 1.369 . S
C3831 C3840 1.429 . S
C3832 C3830 1.419 . S
C3832 C3833 1.363 . S
C3832 H3835 0.929 . S
C3833 C3832 1.363 . S
C3833 C3839 1.428 . S
H3834 C3830 0.930 . S
H3835 C3832 0.929 . S
S3836 N3837 1.613 . S
S3836 N3838 1.610 . S
N3837 S3836 1.613 . S
N3837 C3840 1.350 . S
N3838 S3836 1.610 . S
N3838 C3839 1.351 . S
C3839 C3833 1.428 . S
C3839 N3838 1.351 . S
C3839 C3840 1.434 . S
C3840 C3831 1.429 . S
C3840 N3837 1.350 . S
C3840 C3839 1.434 . S
C3841 C3842 1.369 . S
C3841 C3843 1.419 . S
C3841 H3845 0.930 . S
C3842 C3841 1.369 . S
C3842 C3851 1.429 . S
C3843 C3841 1.419 . S
C3843 C3844 1.363 . S
C3843 H3846 0.929 . S
C3844 C3843 1.363 . S
C3844 C3850 1.428 . S
H3845 C3841 0.930 . S
H3846 C3843 0.929 . S
S3847 N3848 1.613 . S
S3847 N3849 1.610 . S
N3848 S3847 1.613 . S
N3848 C3851 1.350 . S
N3849 S3847 1.610 . S
N3849 C3850 1.351 . S
C3850 C3844 1.428 . S
C3850 N3849 1.351 . S
C3850 C3851 1.434 . S
C3851 C3842 1.429 . S
C3851 N3848 1.350 . S
C3851 C3850 1.434 . S
C3852 C3853 1.369 1_545 S
C3852 C3854 1.419 . S
C3852 H3856 0.940 . S
C3853 C3852 1.369 1_565 S
C3853 C3862 1.429 . S
C3854 C3852 1.419 . S
C3854 C3855 1.363 . S
C3854 H3857 0.929 . S
C3855 C3854 1.363 . S
C3855 C3861 1.428 . S
H3856 C3852 0.940 . S
H3857 C3854 0.929 . S
S3858 N3859 1.613 . S
S3858 N3860 1.610 1_565 S
N3859 S3858 1.613 . S
N3859 C3862 1.350 . S
N3860 S3858 1.610 1_545 S
N3860 C3861 1.351 . S
C3861 C3855 1.428 . S
C3861 N3860 1.351 . S
C3861 C3862 1.434 1_545 S
C3862 C3853 1.429 . S
C3862 N3859 1.350 . S
C3862 C3861 1.434 1_565 S
C3863 C3864 1.369 . S
C3863 C3865 1.419 . S
C3863 H3867 0.930 . S
C3864 C3863 1.369 . S
C3864 C3873 1.429 . S
C3865 C3863 1.419 . S
C3865 C3866 1.363 . S
C3865 H3868 0.929 . S
C3866 C3865 1.363 . S
C3866 C3872 1.428 . S
H3867 C3863 0.930 . S
H3868 C3865 0.929 . S
S3869 N3870 1.613 . S
S3869 N3871 1.610 . S
N3870 S3869 1.613 . S
N3870 C3873 1.350 . S
N3871 S3869 1.610 . S
N3871 C3872 1.351 . S
C3872 C3866 1.428 . S
C3872 N3871 1.351 . S
C3872 C3873 1.434 . S
C3873 C3864 1.429 . S
C3873 N3870 1.350 . S
C3873 C3872 1.434 . S
C3874 C3875 1.369 . S
C3874 C3876 1.419 . S
C3874 H3878 0.930 1_545 S
C3875 C3874 1.369 . S
C3875 C3884 1.429 . S
C3876 C3874 1.419 . S
C3876 C3877 1.363 . S
C3876 H3879 0.929 1_545 S
C3877 C3876 1.363 . S
C3877 C3883 1.428 . S
H3878 C3874 0.930 1_565 S
H3879 C3876 0.929 1_565 S
S3880 N3881 1.613 . S
S3880 N3882 1.610 . S
N3881 S3880 1.613 . S
N3881 C3884 1.350 . S
N3882 S3880 1.610 . S
N3882 C3883 1.351 . S
C3883 C3877 1.428 . S
C3883 N3882 1.351 . S
C3883 C3884 1.434 . S
C3884 C3875 1.429 . S
C3884 N3881 1.350 . S
C3884 C3883 1.434 . S
C3885 C3886 1.369 . S
C3885 C3887 1.419 . S
C3885 H3889 0.930 . S
C3886 C3885 1.369 . S
C3886 C3895 1.429 . S
C3887 C3885 1.419 . S
C3887 C3888 1.363 . S
C3887 H3890 0.929 . S
C3888 C3887 1.363 . S
C3888 C3894 1.428 . S
H3889 C3885 0.930 . S
H3890 C3887 0.929 . S
S3891 N3892 1.613 . S
S3891 N3893 1.610 . S
N3892 S3891 1.613 . S
N3892 C3895 1.350 . S
N3893 S3891 1.610 . S
N3893 C3894 1.351 . S
C3894 C3888 1.428 . S
C3894 N3893 1.351 . S
C3894 C3895 1.434 . S
C3895 C3886 1.429 . S
C3895 N3892 1.350 . S
C3895 C3894 1.434 . S
C3896 C3897 1.369 . S
C3896 C3898 1.419 . S
C3896 H3900 0.930 . S
C3897 C3896 1.369 . S
C3897 C3906 1.429 . S
C3898 C3896 1.419 . S
C3898 C3899 1.363 . S
C3898 H3901 0.929 . S
C3899 C3898 1.363 . S
C3899 C3905 1.428 . S
H3900 C3896 0.930 . S
H3901 C3898 0.929 . S
S3902 N3903 1.613 1_565 S
S3902 N3904 1.610 1_565 S
N3903 S3902 1.613 1_545 S
N3903 C3906 1.350 . S
N3904 S3902 1.610 1_545 S
N3904 C3905 1.351 . S
C3905 C3899 1.428 . S
C3905 N3904 1.351 . S
C3905 C3906 1.434 . S
C3906 C3897 1.429 . S
C3906 N3903 1.350 . S
C3906 C3905 1.434 . S
C3907 C3908 1.369 . S
C3907 C3909 1.419 . S
C3907 H3911 0.930 . S
C3908 C3907 1.369 . S
C3908 C3917 1.429 . S
C3909 C3907 1.419 . S
C3909 C3910 1.363 . S
C3909 H3912 0.929 . S
C3910 C3909 1.363 . S
C3910 C3916 1.428 . S
H3911 C3907 0.930 . S
H3912 C3909 0.929 . S
S3913 N3914 1.613 . S
S3913 N3915 1.610 . S
N3914 S3913 1.613 . S
N3914 C3917 1.350 . S
N3915 S3913 1.610 . S
N3915 C3916 1.351 . S
C3916 C3910 1.428 . S
C3916 N3915 1.351 . S
C3916 C3917 1.434 . S
C3917 C3908 1.429 . S
C3917 N3914 1.350 . S
C3917 C3916 1.434 . S
C3918 C3919 1.369 . S
C3918 C3920 1.419 . S
C3918 H3922 0.930 . S
C3919 C3918 1.369 . S
C3919 C3928 1.429 . S
C3920 C3918 1.419 . S
C3920 C3921 1.363 . S
C3920 H3923 0.929 . S
C3921 C3920 1.363 . S
C3921 C3927 1.428 . S
H3922 C3918 0.930 . S
H3923 C3920 0.929 . S
S3924 N3925 1.613 . S
S3924 N3926 1.610 . S
N3925 S3924 1.613 . S
N3925 C3928 1.350 . S
N3926 S3924 1.610 . S
N3926 C3927 1.351 . S
C3927 C3921 1.428 . S
C3927 N3926 1.351 . S
C3927 C3928 1.434 . S
C3928 C3919 1.429 . S
C3928 N3925 1.350 . S
C3928 C3927 1.434 . S
C3929 C3930 1.369 . S
C3929 C3931 1.419 . S
C3929 H3933 0.930 . S
C3930 C3929 1.369 . S
C3930 C3939 1.429 . S
C3931 C3929 1.419 . S
C3931 C3932 1.363 . S
C3931 H3934 0.929 . S
C3932 C3931 1.363 . S
C3932 C3938 1.428 . S
H3933 C3929 0.930 . S
H3934 C3931 0.929 . S
S3935 N3936 1.613 . S
S3935 N3937 1.610 . S
N3936 S3935 1.613 . S
N3936 C3939 1.350 . S
N3937 S3935 1.610 . S
N3937 C3938 1.351 . S
C3938 C3932 1.428 . S
C3938 N3937 1.351 . S
C3938 C3939 1.434 . S
C3939 C3930 1.429 . S
C3939 N3936 1.350 . S
C3939 C3938 1.434 . S
C3940 C3941 1.369 . S
C3940 C3942 1.419 . S
C3940 H3944 0.930 . S
C3941 C3940 1.369 . S
C3941 C3950 1.429 . S
C3942 C3940 1.419 . S
C3942 C3943 1.363 . S
C3942 H3945 0.929 . S
C3943 C3942 1.363 . S
C3943 C3949 1.428 . S
H3944 C3940 0.930 . S
H3945 C3942 0.929 . S
S3946 N3947 1.613 . S
S3946 N3948 1.610 . S
N3947 S3946 1.613 . S
N3947 C3950 1.350 . S
N3948 S3946 1.610 . S
N3948 C3949 1.351 . S
C3949 C3943 1.428 . S
C3949 N3948 1.351 . S
C3949 C3950 1.434 . S
C3950 C3941 1.429 . S
C3950 N3947 1.350 . S
C3950 C3949 1.434 . S
C3951 C3952 1.369 . S
C3951 C3953 1.419 . S
C3951 H3955 0.930 . S
C3952 C3951 1.369 . S
C3952 C3961 1.429 . S
C3953 C3951 1.419 . S
C3953 C3954 1.363 . S
C3953 H3956 0.929 . S
C3954 C3953 1.363 . S
C3954 C3960 1.428 . S
H3955 C3951 0.930 . S
H3956 C3953 0.929 . S
S3957 N3958 1.613 1_545 S
S3957 N3959 1.610 . S
N3958 S3957 1.613 1_565 S
N3958 C3961 1.350 . S
N3959 S3957 1.610 . S
N3959 C3960 1.351 1_545 S
C3960 C3954 1.428 . S
C3960 N3959 1.351 1_565 S
C3960 C3961 1.434 . S
C3961 C3952 1.429 . S
C3961 N3958 1.350 . S
C3961 C3960 1.434 . S
C3962 C3963 1.369 . S
C3962 C3964 1.419 . S
C3962 H3966 0.930 . S
C3963 C3962 1.369 . S
C3963 C3972 1.429 . S
C3964 C3962 1.419 . S
C3964 C3965 1.363 . S
C3964 H3967 0.929 . S
C3965 C3964 1.363 . S
C3965 C3971 1.428 . S
H3966 C3962 0.930 . S
H3967 C3964 0.929 . S
S3968 N3969 1.613 . S
S3968 N3970 1.610 . S
N3969 S3968 1.613 . S
N3969 C3972 1.350 . S
N3970 S3968 1.610 . S
N3970 C3971 1.351 . S
C3971 C3965 1.428 . S
C3971 N3970 1.351 . S
C3971 C3972 1.434 . S
C3972 C3963 1.429 . S
C3972 N3969 1.350 . S
C3972 C3971 1.434 . S
C3973 C3974 1.369 . S
C3973 C3975 1.419 . S
C3973 H3977 0.930 . S
C3974 C3973 1.369 . S
C3974 C3983 1.429 . S
C3975 C3973 1.419 . S
C3975 C3976 1.363 . S
C3975 H3978 0.929 . S
C3976 C3975 1.363 . S
C3976 C3982 1.428 . S
H3977 C3973 0.930 . S
H3978 C3975 0.929 . S
S3979 N3980 1.613 . S
S3979 N3981 1.610 . S
N3980 S3979 1.613 . S
N3980 C3983 1.350 . S
N3981 S3979 1.610 . S
N3981 C3982 1.351 . S
C3982 C3976 1.428 . S
C3982 N3981 1.351 . S
C3982 C3983 1.434 . S
C3983 C3974 1.429 . S
C3983 N3980 1.350 . S
C3983 C3982 1.434 . S
C3984 C3985 1.369 . S
C3984 C3986 1.419 . S
C3984 H3988 0.930 . S
C3985 C3984 1.369 . S
C3985 C3994 1.429 . S
C3986 C3984 1.419 . S
C3986 C3987 1.363 . S
C3986 H3989 0.929 . S
C3987 C3986 1.363 . S
C3987 C3993 1.428 . S
H3988 C3984 0.930 . S
H3989 C3986 0.929 . S
S3990 N3991 1.613 . S
S3990 N3992 1.610 . S
N3991 S3990 1.613 . S
N3991 C3994 1.350 . S
N3992 S3990 1.610 . S
N3992 C3993 1.351 . S
C3993 C3987 1.428 . S
C3993 N3992 1.351 . S
C3993 C3994 1.434 . S
C3994 C3985 1.429 . S
C3994 N3991 1.350 . S
C3994 C3993 1.434 . S
C3995 C3996 1.369 . S
C3995 C3997 1.419 . S
C3995 H3999 0.930 . S
C3996 C3995 1.369 . S
C3996 C4005 1.429 . S
C3997 C3995 1.419 . S
C3997 C3998 1.363 . S
C3997 H4000 0.929 . S
C3998 C3997 1.363 . S
C3998 C4004 1.428 . S
H3999 C3995 0.930 . S
H4000 C3997 0.929 . S
S4001 N4002 1.613 . S
S4001 N4003 1.610 . S
N4002 S4001 1.613 . S
N4002 C4005 1.350 . S
N4003 S4001 1.610 . S
N4003 C4004 1.351 . S
C4004 C3998 1.428 . S
C4004 N4003 1.351 . S
C4004 C4005 1.434 . S
C4005 C3996 1.429 . S
C4005 N4002 1.350 . S
C4005 C4004 1.434 . S
C4006 C4007 1.369 . S
C4006 C4008 1.419 . S
C4006 H4010 0.930 . S
C4007 C4006 1.369 . S
C4007 C4016 1.429 . S
C4008 C4006 1.419 . S
C4008 C4009 1.363 . S
C4008 H4011 0.929 . S
C4009 C4008 1.363 . S
C4009 C4015 1.428 . S
H4010 C4006 0.930 . S
H4011 C4008 0.929 . S
S4012 N4013 1.613 1_655 S
S4012 N4014 1.610 1_655 S
N4013 S4012 1.613 1_455 S
N4013 C4016 1.350 1_556 S
N4014 S4012 1.610 1_455 S
N4014 C4015 1.351 1_556 S
C4015 C4009 1.428 . S
C4015 N4014 1.351 1_554 S
C4015 C4016 1.434 . S
C4016 C4007 1.429 . S
C4016 N4013 1.350 1_554 S
C4016 C4015 1.434 . S
C4017 C4018 1.369 . S
C4017 C4019 1.419 . S
C4017 H4021 0.930 . S
C4018 C4017 1.369 . S
C4018 C4027 1.429 . S
C4019 C4017 1.419 . S
C4019 C4020 1.363 . S
C4019 H4022 0.929 . S
C4020 C4019 1.363 . S
C4020 C4026 1.428 . S
H4021 C4017 0.930 . S
H4022 C4019 0.929 . S
S4023 N4024 1.613 . S
S4023 N4025 1.610 . S
N4024 S4023 1.613 . S
N4024 C4027 1.350 . S
N4025 S4023 1.610 . S
N4025 C4026 1.351 . S
C4026 C4020 1.428 . S
C4026 N4025 1.351 . S
C4026 C4027 1.434 . S
C4027 C4018 1.429 . S
C4027 N4024 1.350 . S
C4027 C4026 1.434 . S
C4028 C4029 1.369 . S
C4028 C4030 1.419 . S
C4028 H4032 0.930 . S
C4029 C4028 1.369 . S
C4029 C4038 1.429 . S
C4030 C4028 1.419 . S
C4030 C4031 1.363 . S
C4030 H4033 0.929 . S
C4031 C4030 1.363 . S
C4031 C4037 1.428 . S
H4032 C4028 0.930 . S
H4033 C4030 0.929 . S
S4034 N4035 1.613 . S
S4034 N4036 1.610 . S
N4035 S4034 1.613 . S
N4035 C4038 1.350 . S
N4036 S4034 1.610 . S
N4036 C4037 1.351 . S
C4037 C4031 1.428 . S
C4037 N4036 1.351 . S
C4037 C4038 1.434 . S
C4038 C4029 1.429 . S
C4038 N4035 1.350 . S
C4038 C4037 1.434 . S
C4039 C4040 1.369 1_655 S
C4039 C4041 1.419 . S
C4039 H4043 0.930 . S
C4040 C4039 1.369 1_455 S
C4040 C4049 1.429 . S
C4041 C4039 1.419 . S
C4041 C4042 1.363 . S
C4041 H4044 0.929 . S
C4042 C4041 1.363 . S
C4042 C4048 1.428 . S
H4043 C4039 0.930 . S
H4044 C4041 0.929 . S
S4045 N4046 1.613 . S
S4045 N4047 1.610 1_455 S
N4046 S4045 1.613 . S
N4046 C4049 1.350 . S
N4047 S4045 1.610 1_655 S
N4047 C4048 1.351 . S
C4048 C4042 1.428 . S
C4048 N4047 1.351 . S
C4048 C4049 1.434 1_655 S
C4049 C4040 1.429 . S
C4049 N4046 1.350 . S
C4049 C4048 1.434 1_455 S
C4050 C4051 1.369 1_455 S
C4050 C4052 1.419 . S
C4050 H4054 0.930 . S
C4051 C4050 1.369 1_655 S
C4051 C4060 1.429 . S
C4052 C4050 1.419 . S
C4052 C4053 1.363 . S
C4052 H4055 0.929 . S
C4053 C4052 1.363 . S
C4053 C4059 1.428 . S
H4054 C4050 0.930 . S
H4055 C4052 0.929 . S
S4056 N4057 1.613 . S
S4056 N4058 1.610 1_655 S
N4057 S4056 1.613 . S
N4057 C4060 1.350 . S
N4058 S4056 1.610 1_455 S
N4058 C4059 1.351 . S
C4059 C4053 1.428 . S
C4059 N4058 1.351 . S
C4059 C4060 1.434 1_455 S
C4060 C4051 1.429 . S
C4060 N4057 1.350 . S
C4060 C4059 1.434 1_655 S
C4061 C4062 1.369 . S
C4061 C4063 1.419 . S
C4061 H4065 0.930 . S
C4062 C4061 1.369 . S
C4062 C4071 1.429 . S
C4063 C4061 1.419 . S
C4063 C4064 1.363 . S
C4063 H4066 0.929 . S
C4064 C4063 1.363 . S
C4064 C4070 1.428 . S
H4065 C4061 0.930 . S
H4066 C4063 0.929 . S
S4067 N4068 1.613 . S
S4067 N4069 1.610 . S
N4068 S4067 1.613 . S
N4068 C4071 1.350 . S
N4069 S4067 1.610 . S
N4069 C4070 1.351 . S
C4070 C4064 1.428 . S
C4070 N4069 1.351 . S
C4070 C4071 1.434 . S
C4071 C4062 1.429 . S
C4071 N4068 1.350 . S
C4071 C4070 1.434 . S
C4072 C4073 1.369 . S
C4072 C4074 1.419 . S
C4072 H4076 0.930 . S
C4073 C4072 1.369 . S
C4073 C4082 1.429 . S
C4074 C4072 1.419 . S
C4074 C4075 1.363 . S
C4074 H4077 0.929 . S
C4075 C4074 1.363 . S
C4075 C4081 1.428 . S
H4076 C4072 0.930 . S
H4077 C4074 0.929 . S
S4078 N4079 1.613 . S
S4078 N4080 1.610 . S
N4079 S4078 1.613 . S
N4079 C4082 1.350 . S
N4080 S4078 1.610 . S
N4080 C4081 1.351 . S
C4081 C4075 1.428 . S
C4081 N4080 1.351 . S
C4081 C4082 1.434 . S
C4082 C4073 1.429 . S
C4082 N4079 1.350 . S
C4082 C4081 1.434 . S
C4083 C4084 1.369 . S
C4083 C4085 1.419 . S
C4083 H4087 0.930 . S
C4084 C4083 1.369 . S
C4084 C4093 1.429 . S
C4085 C4083 1.419 . S
C4085 C4086 1.363 . S
C4085 H4088 0.929 . S
C4086 C4085 1.363 . S
C4086 C4092 1.428 . S
H4087 C4083 0.930 . S
H4088 C4085 0.929 . S
S4089 N4090 1.613 . S
S4089 N4091 1.610 . S
N4090 S4089 1.613 . S
N4090 C4093 1.350 . S
N4091 S4089 1.610 . S
N4091 C4092 1.351 . S
C4092 C4086 1.428 . S
C4092 N4091 1.351 . S
C4092 C4093 1.434 . S
C4093 C4084 1.429 . S
C4093 N4090 1.350 . S
C4093 C4092 1.434 . S
C4094 C4095 1.369 . S
C4094 C4096 1.419 . S
C4094 H4098 0.930 . S
C4095 C4094 1.369 . S
C4095 C4104 1.429 . S
C4096 C4094 1.419 . S
C4096 C4097 1.363 . S
C4096 H4099 0.929 . S
C4097 C4096 1.363 . S
C4097 C4103 1.428 . S
H4098 C4094 0.930 . S
H4099 C4096 0.929 . S
S4100 N4101 1.613 . S
S4100 N4102 1.610 . S
N4101 S4100 1.613 . S
N4101 C4104 1.350 . S
N4102 S4100 1.610 . S
N4102 C4103 1.351 . S
C4103 C4097 1.428 . S
C4103 N4102 1.351 . S
C4103 C4104 1.434 . S
C4104 C4095 1.429 . S
C4104 N4101 1.350 . S
C4104 C4103 1.434 . S
C4105 C4106 1.369 . S
C4105 C4107 1.419 . S
C4105 H4109 0.930 . S
C4106 C4105 1.369 . S
C4106 C4115 1.429 . S
C4107 C4105 1.419 . S
C4107 C4108 1.363 . S
C4107 H4110 0.929 . S
C4108 C4107 1.363 . S
C4108 C4114 1.428 . S
H4109 C4105 0.930 . S
H4110 C4107 0.929 . S
S4111 N4112 1.613 . S
S4111 N4113 1.610 . S
N4112 S4111 1.613 . S
N4112 C4115 1.350 . S
N4113 S4111 1.610 . S
N4113 C4114 1.351 . S
C4114 C4108 1.428 . S
C4114 N4113 1.351 . S
C4114 C4115 1.434 . S
C4115 C4106 1.429 . S
C4115 N4112 1.350 . S
C4115 C4114 1.434 . S
C4116 C4117 1.369 . S
C4116 C4118 1.419 . S
C4116 H4120 0.930 . S
C4117 C4116 1.369 . S
C4117 C4126 1.429 . S
C4118 C4116 1.419 . S
C4118 C4119 1.363 . S
C4118 H4121 0.929 . S
C4119 C4118 1.363 . S
C4119 C4125 1.428 . S
H4120 C4116 0.930 . S
H4121 C4118 0.929 . S
S4122 N4123 1.613 . S
S4122 N4124 1.610 . S
N4123 S4122 1.613 . S
N4123 C4126 1.350 . S
N4124 S4122 1.610 . S
N4124 C4125 1.351 . S
C4125 C4119 1.428 . S
C4125 N4124 1.351 . S
C4125 C4126 1.434 . S
C4126 C4117 1.429 . S
C4126 N4123 1.350 . S
C4126 C4125 1.434 . S
C4127 C4128 1.369 . S
C4127 C4129 1.419 . S
C4127 H4131 0.930 . S
C4128 C4127 1.369 . S
C4128 C4137 1.429 . S
C4129 C4127 1.419 . S
C4129 C4130 1.363 . S
C4129 H4132 0.929 . S
C4130 C4129 1.363 . S
C4130 C4136 1.428 . S
H4131 C4127 0.930 . S
H4132 C4129 0.929 . S
S4133 N4134 1.613 . S
S4133 N4135 1.610 . S
N4134 S4133 1.613 . S
N4134 C4137 1.350 . S
N4135 S4133 1.610 . S
N4135 C4136 1.351 . S
C4136 C4130 1.428 . S
C4136 N4135 1.351 . S
C4136 C4137 1.434 . S
C4137 C4128 1.429 . S
C4137 N4134 1.350 . S
C4137 C4136 1.434 . S
C4138 C4139 1.369 . S
C4138 C4140 1.419 . S
C4138 H4142 0.930 . S
C4139 C4138 1.369 . S
C4139 C4148 1.429 . S
C4140 C4138 1.419 . S
C4140 C4141 1.363 . S
C4140 H4143 0.929 . S
C4141 C4140 1.363 . S
C4141 C4147 1.428 . S
H4142 C4138 0.930 . S
H4143 C4140 0.929 . S
S4144 N4145 1.613 . S
S4144 N4146 1.610 . S
N4145 S4144 1.613 . S
N4145 C4148 1.350 . S
N4146 S4144 1.610 . S
N4146 C4147 1.351 . S
C4147 C4141 1.428 . S
C4147 N4146 1.351 . S
C4147 C4148 1.434 . S
C4148 C4139 1.429 . S
C4148 N4145 1.350 . S
C4148 C4147 1.434 . S
C4149 C4150 1.369 . S
C4149 C4151 1.419 . S
C4149 H4153 0.930 . S
C4150 C4149 1.369 . S
C4150 C4159 1.429 . S
C4151 C4149 1.419 . S
C4151 C4152 1.363 . S
C4151 H4154 0.929 . S
C4152 C4151 1.363 . S
C4152 C4158 1.428 . S
H4153 C4149 0.930 . S
H4154 C4151 0.929 . S
S4155 N4156 1.613 . S
S4155 N4157 1.610 . S
N4156 S4155 1.613 . S
N4156 C4159 1.350 . S
N4157 S4155 1.610 . S
N4157 C4158 1.351 . S
C4158 C4152 1.428 . S
C4158 N4157 1.351 . S
C4158 C4159 1.434 . S
C4159 C4150 1.429 . S
C4159 N4156 1.350 . S
C4159 C4158 1.434 . S
C4160 C4161 1.369 . S
C4160 C4162 1.419 . S
C4160 H4164 0.930 . S
C4161 C4160 1.369 . S
C4161 C4170 1.429 . S
C4162 C4160 1.419 . S
C4162 C4163 1.363 . S
C4162 H4165 0.929 . S
C4163 C4162 1.363 . S
C4163 C4169 1.428 . S
H4164 C4160 0.930 . S
H4165 C4162 0.929 . S
S4166 N4167 1.613 . S
S4166 N4168 1.610 . S
N4167 S4166 1.613 . S
N4167 C4170 1.350 . S
N4168 S4166 1.610 . S
N4168 C4169 1.351 . S
C4169 C4163 1.428 . S
C4169 N4168 1.351 . S
C4169 C4170 1.434 . S
C4170 C4161 1.429 . S
C4170 N4167 1.350 . S
C4170 C4169 1.434 . S
C4171 C4172 1.369 . S
C4171 C4173 1.419 . S
C4171 H4175 0.930 . S
C4172 C4171 1.369 . S
C4172 C4181 1.429 . S
C4173 C4171 1.419 . S
C4173 C4174 1.363 . S
C4173 H4176 0.929 . S
C4174 C4173 1.363 . S
C4174 C4180 1.428 . S
H4175 C4171 0.930 . S
H4176 C4173 0.929 . S
S4177 N4178 1.613 . S
S4177 N4179 1.610 . S
N4178 S4177 1.613 . S
N4178 C4181 1.350 . S
N4179 S4177 1.610 . S
N4179 C4180 1.351 . S
C4180 C4174 1.428 . S
C4180 N4179 1.351 . S
C4180 C4181 1.434 . S
C4181 C4172 1.429 . S
C4181 N4178 1.350 . S
C4181 C4180 1.434 . S
C4182 C4183 1.369 . S
C4182 C4184 1.419 . S
C4182 H4186 0.930 . S
C4183 C4182 1.369 . S
C4183 C4192 1.429 . S
C4184 C4182 1.419 . S
C4184 C4185 1.363 . S
C4184 H4187 0.929 . S
C4185 C4184 1.363 . S
C4185 C4191 1.428 . S
H4186 C4182 0.930 . S
H4187 C4184 0.929 . S
S4188 N4189 1.613 . S
S4188 N4190 1.610 . S
N4189 S4188 1.613 . S
N4189 C4192 1.350 . S
N4190 S4188 1.610 . S
N4190 C4191 1.351 . S
C4191 C4185 1.428 . S
C4191 N4190 1.351 . S
C4191 C4192 1.434 . S
C4192 C4183 1.429 . S
C4192 N4189 1.350 . S
C4192 C4191 1.434 . S
C4193 C4194 1.369 . S
C4193 C4195 1.413 1_545 S
C4193 H4197 0.930 1_545 S
C4194 C4193 1.369 . S
C4194 C4203 1.429 . S
C4195 C4193 1.413 1_565 S
C4195 C4196 1.353 1_565 S
C4195 H4198 0.946 . S
C4196 C4195 1.353 1_545 S
C4196 C4202 1.428 . S
H4197 C4193 0.930 1_565 S
H4198 C4195 0.946 . S
S4199 N4200 1.599 1_556 S
S4199 N4201 1.610 . S
N4200 S4199 1.599 1_554 S
N4200 C4203 1.364 . S
N4201 S4199 1.610 . S
N4201 C4202 1.351 1_556 S
C4202 C4196 1.428 . S
C4202 N4201 1.351 1_554 S
C4202 C4203 1.434 . S
C4203 C4194 1.429 . S
C4203 N4200 1.364 . S
C4203 C4202 1.434 . S
C4204 C4205 1.369 . S
C4204 C4206 1.419 . S
C4204 H4208 0.930 . S
C4205 C4204 1.369 . S
C4205 C4214 1.429 . S
C4206 C4204 1.419 . S
C4206 C4207 1.363 . S
C4206 H4209 0.929 . S
C4207 C4206 1.363 . S
C4207 C4213 1.428 . S
H4208 C4204 0.930 . S
H4209 C4206 0.929 . S
S4210 N4211 1.613 . S
S4210 N4212 1.610 . S
N4211 S4210 1.613 . S
N4211 C4214 1.350 . S
N4212 S4210 1.610 . S
N4212 C4213 1.351 . S
C4213 C4207 1.428 . S
C4213 N4212 1.351 . S
C4213 C4214 1.434 . S
C4214 C4205 1.429 . S
C4214 N4211 1.350 . S
C4214 C4213 1.434 . S
C4215 C4216 1.398 . S
C4215 C4217 1.419 . S
C4215 H4219 0.930 . S
C4216 C4215 1.398 . S
C4216 C4225 1.415 1_554 S
C4217 C4215 1.419 . S
C4217 C4218 1.363 . S
C4217 H4220 0.929 . S
C4218 C4217 1.363 . S
C4218 C4224 1.415 1_554 S
H4219 C4215 0.930 . S
H4220 C4217 0.929 . S
S4221 N4222 1.613 . S
S4221 N4223 1.610 . S
N4222 S4221 1.613 . S
N4222 C4225 1.350 . S
N4223 S4221 1.610 . S
N4223 C4224 1.359 . S
C4224 C4218 1.415 1_556 S
C4224 N4223 1.359 . S
C4224 C4225 1.441 . S
C4225 C4216 1.415 1_556 S
C4225 N4222 1.350 . S
C4225 C4224 1.441 . S
C4226 C4227 1.369 . S
C4226 C4228 1.419 . S
C4226 H4230 0.930 . S
C4227 C4226 1.369 . S
C4227 C4236 1.429 . S
C4228 C4226 1.419 . S
C4228 C4229 1.363 . S
C4228 H4231 0.929 . S
C4229 C4228 1.363 . S
C4229 C4235 1.428 . S
H4230 C4226 0.930 . S
H4231 C4228 0.929 . S
S4232 N4233 1.613 . S
S4232 N4234 1.610 . S
N4233 S4232 1.613 . S
N4233 C4236 1.350 . S
N4234 S4232 1.610 . S
N4234 C4235 1.351 . S
C4235 C4229 1.428 . S
C4235 N4234 1.351 . S
C4235 C4236 1.434 . S
C4236 C4227 1.429 . S
C4236 N4233 1.350 . S
C4236 C4235 1.434 . S
C4237 C4238 1.369 . S
C4237 C4239 1.419 . S
C4237 H4241 0.930 . S
C4238 C4237 1.369 . S
C4238 C4247 1.429 . S
C4239 C4237 1.419 . S
C4239 C4240 1.363 . S
C4239 H4242 0.929 . S
C4240 C4239 1.363 . S
C4240 C4246 1.428 . S
H4241 C4237 0.930 . S
H4242 C4239 0.929 . S
S4243 N4244 1.613 . S
S4243 N4245 1.610 . S
N4244 S4243 1.613 . S
N4244 C4247 1.350 . S
N4245 S4243 1.610 . S
N4245 C4246 1.351 . S
C4246 C4240 1.428 . S
C4246 N4245 1.351 . S
C4246 C4247 1.434 . S
C4247 C4238 1.429 . S
C4247 N4244 1.350 . S
C4247 C4246 1.434 . S
C4248 C4249 1.369 . S
C4248 C4250 1.419 . S
C4248 H4252 0.930 . S
C4249 C4248 1.369 . S
C4249 C4258 1.429 . S
C4250 C4248 1.419 . S
C4250 C4251 1.363 . S
C4250 H4253 0.929 . S
C4251 C4250 1.363 . S
C4251 C4257 1.428 . S
H4252 C4248 0.930 . S
H4253 C4250 0.929 . S
S4254 N4255 1.613 . S
S4254 N4256 1.610 . S
N4255 S4254 1.613 . S
N4255 C4258 1.350 . S
N4256 S4254 1.610 . S
N4256 C4257 1.351 . S
C4257 C4251 1.428 . S
C4257 N4256 1.351 . S
C4257 C4258 1.434 . S
C4258 C4249 1.429 . S
C4258 N4255 1.350 . S
C4258 C4257 1.434 . S
C4259 C4260 1.369 . S
C4259 C4261 1.419 . S
C4259 H4263 0.930 . S
C4260 C4259 1.369 . S
C4260 C4269 1.429 . S
C4261 C4259 1.419 . S
C4261 C4262 1.363 . S
C4261 H4264 0.929 . S
C4262 C4261 1.363 . S
C4262 C4268 1.428 . S
H4263 C4259 0.930 . S
H4264 C4261 0.929 . S
S4265 N4266 1.613 . S
S4265 N4267 1.610 . S
N4266 S4265 1.613 . S
N4266 C4269 1.350 . S
N4267 S4265 1.610 . S
N4267 C4268 1.351 . S
C4268 C4262 1.428 . S
C4268 N4267 1.351 . S
C4268 C4269 1.434 . S
C4269 C4260 1.429 . S
C4269 N4266 1.350 . S
C4269 C4268 1.434 . S
C4270 C4271 1.369 . S
C4270 C4272 1.419 . S
C4270 H4274 0.930 . S
C4271 C4270 1.369 . S
C4271 C4280 1.429 . S
C4272 C4270 1.419 . S
C4272 C4273 1.363 . S
C4272 H4275 0.929 . S
C4273 C4272 1.363 . S
C4273 C4279 1.428 . S
H4274 C4270 0.930 . S
H4275 C4272 0.929 . S
S4276 N4277 1.613 . S
S4276 N4278 1.610 . S
N4277 S4276 1.613 . S
N4277 C4280 1.350 . S
N4278 S4276 1.610 . S
N4278 C4279 1.351 . S
C4279 C4273 1.428 . S
C4279 N4278 1.351 . S
C4279 C4280 1.434 . S
C4280 C4271 1.429 . S
C4280 N4277 1.350 . S
C4280 C4279 1.434 . S
C4281 C4282 1.369 . S
C4281 C4283 1.419 . S
C4281 H4285 0.930 . S
C4282 C4281 1.369 . S
C4282 C4291 1.429 . S
C4283 C4281 1.419 . S
C4283 C4284 1.363 . S
C4283 H4286 0.929 . S
C4284 C4283 1.363 . S
C4284 C4290 1.428 . S
H4285 C4281 0.930 . S
H4286 C4283 0.929 . S
S4287 N4288 1.613 . S
S4287 N4289 1.610 . S
N4288 S4287 1.613 . S
N4288 C4291 1.350 . S
N4289 S4287 1.610 . S
N4289 C4290 1.351 . S
C4290 C4284 1.428 . S
C4290 N4289 1.351 . S
C4290 C4291 1.434 . S
C4291 C4282 1.429 . S
C4291 N4288 1.350 . S
C4291 C4290 1.434 . S
C4292 C4293 1.369 . S
C4292 C4294 1.419 . S
C4292 H4296 0.930 . S
C4293 C4292 1.369 . S
C4293 C4302 1.429 . S
C4294 C4292 1.419 . S
C4294 C4295 1.363 . S
C4294 H4297 0.929 . S
C4295 C4294 1.363 . S
C4295 C4301 1.428 . S
H4296 C4292 0.930 . S
H4297 C4294 0.929 . S
S4298 N4299 1.613 . S
S4298 N4300 1.610 . S
N4299 S4298 1.613 . S
N4299 C4302 1.350 . S
N4300 S4298 1.610 . S
N4300 C4301 1.351 . S
C4301 C4295 1.428 . S
C4301 N4300 1.351 . S
C4301 C4302 1.434 . S
C4302 C4293 1.429 . S
C4302 N4299 1.350 . S
C4302 C4301 1.434 . S
C4303 C4304 1.369 . S
C4303 C4305 1.419 . S
C4303 H4307 0.930 . S
C4304 C4303 1.369 . S
C4304 C4313 1.429 . S
C4305 C4303 1.419 . S
C4305 C4306 1.363 . S
C4305 H4308 0.929 . S
C4306 C4305 1.363 . S
C4306 C4312 1.428 . S
H4307 C4303 0.930 . S
H4308 C4305 0.929 . S
S4309 N4310 1.613 . S
S4309 N4311 1.610 . S
N4310 S4309 1.613 . S
N4310 C4313 1.350 . S
N4311 S4309 1.610 . S
N4311 C4312 1.351 . S
C4312 C4306 1.428 . S
C4312 N4311 1.351 . S
C4312 C4313 1.434 . S
C4313 C4304 1.429 . S
C4313 N4310 1.350 . S
C4313 C4312 1.434 . S
C4314 C4315 1.369 . S
C4314 C4316 1.419 . S
C4314 H4318 0.930 . S
C4315 C4314 1.369 . S
C4315 C4324 1.429 . S
C4316 C4314 1.419 . S
C4316 C4317 1.363 . S
C4316 H4319 0.929 . S
C4317 C4316 1.363 . S
C4317 C4323 1.428 . S
H4318 C4314 0.930 . S
H4319 C4316 0.929 . S
S4320 N4321 1.613 . S
S4320 N4322 1.610 . S
N4321 S4320 1.613 . S
N4321 C4324 1.350 . S
N4322 S4320 1.610 . S
N4322 C4323 1.351 . S
C4323 C4317 1.428 . S
C4323 N4322 1.351 . S
C4323 C4324 1.434 . S
C4324 C4315 1.429 . S
C4324 N4321 1.350 . S
C4324 C4323 1.434 . S
C4325 C4326 1.369 . S
C4325 C4327 1.419 . S
C4325 H4329 0.930 . S
C4326 C4325 1.369 . S
C4326 C4335 1.429 . S
C4327 C4325 1.419 . S
C4327 C4328 1.363 . S
C4327 H4330 0.929 . S
C4328 C4327 1.363 . S
C4328 C4334 1.428 . S
H4329 C4325 0.930 . S
H4330 C4327 0.929 . S
S4331 N4332 1.613 . S
S4331 N4333 1.610 . S
N4332 S4331 1.613 . S
N4332 C4335 1.350 . S
N4333 S4331 1.610 . S
N4333 C4334 1.351 . S
C4334 C4328 1.428 . S
C4334 N4333 1.351 . S
C4334 C4335 1.434 . S
C4335 C4326 1.429 . S
C4335 N4332 1.350 . S
C4335 C4334 1.434 . S
C4336 C4337 1.369 . S
C4336 C4338 1.419 . S
C4336 H4340 0.930 . S
C4337 C4336 1.369 . S
C4337 C4346 1.429 . S
C4338 C4336 1.419 . S
C4338 C4339 1.363 . S
C4338 H4341 0.929 . S
C4339 C4338 1.363 . S
C4339 C4345 1.428 . S
H4340 C4336 0.930 . S
H4341 C4338 0.929 . S
S4342 N4343 1.613 . S
S4342 N4344 1.610 . S
N4343 S4342 1.613 . S
N4343 C4346 1.350 . S
N4344 S4342 1.610 . S
N4344 C4345 1.351 . S
C4345 C4339 1.428 . S
C4345 N4344 1.351 . S
C4345 C4346 1.434 . S
C4346 C4337 1.429 . S
C4346 N4343 1.350 . S
C4346 C4345 1.434 . S
C4347 C4348 1.369 . S
C4347 C4349 1.419 . S
C4347 H4351 0.930 . S
C4348 C4347 1.369 . S
C4348 C4357 1.429 . S
C4349 C4347 1.419 . S
C4349 C4350 1.363 . S
C4349 H4352 0.929 . S
C4350 C4349 1.363 . S
C4350 C4356 1.428 . S
H4351 C4347 0.930 . S
H4352 C4349 0.929 . S
S4353 N4354 1.613 . S
S4353 N4355 1.610 . S
N4354 S4353 1.613 . S
N4354 C4357 1.350 . S
N4355 S4353 1.610 . S
N4355 C4356 1.351 . S
C4356 C4350 1.428 . S
C4356 N4355 1.351 . S
C4356 C4357 1.434 . S
C4357 C4348 1.429 . S
C4357 N4354 1.350 . S
C4357 C4356 1.434 . S
C4358 C4359 1.369 . S
C4358 C4360 1.419 1_655 S
C4358 H4362 0.930 . S
C4359 C4358 1.369 . S
C4359 C4368 1.429 1_655 S
C4360 C4358 1.419 1_455 S
C4360 C4361 1.363 . S
C4360 H4363 0.929 . S
C4361 C4360 1.363 . S
C4361 C4367 1.428 . S
H4362 C4358 0.930 . S
H4363 C4360 0.929 . S
S4364 N4365 1.613 . S
S4364 N4366 1.610 . S
N4365 S4364 1.613 . S
N4365 C4368 1.350 . S
N4366 S4364 1.610 . S
N4366 C4367 1.351 . S
C4367 C4361 1.428 . S
C4367 N4366 1.351 . S
C4367 C4368 1.434 . S
C4368 C4359 1.429 1_455 S
C4368 N4365 1.350 . S
C4368 C4367 1.434 . S
C4369 C4370 1.369 . S
C4369 C4371 1.419 . S
C4369 H4373 0.930 . S
C4370 C4369 1.369 . S
C4370 C4379 1.429 . S
C4371 C4369 1.419 . S
C4371 C4372 1.363 . S
C4371 H4374 0.929 . S
C4372 C4371 1.363 . S
C4372 C4378 1.428 . S
H4373 C4369 0.930 . S
H4374 C4371 0.929 . S
S4375 N4376 1.613 . S
S4375 N4377 1.610 . S
N4376 S4375 1.613 . S
N4376 C4379 1.350 . S
N4377 S4375 1.610 . S
N4377 C4378 1.351 . S
C4378 C4372 1.428 . S
C4378 N4377 1.351 . S
C4378 C4379 1.434 . S
C4379 C4370 1.429 . S
C4379 N4376 1.350 . S
C4379 C4378 1.434 . S
C4380 C4381 1.369 . S
C4380 C4382 1.419 . S
C4380 H4384 0.930 . S
C4381 C4380 1.369 . S
C4381 C4390 1.429 . S
C4382 C4380 1.419 . S
C4382 C4383 1.363 . S
C4382 H4385 0.929 . S
C4383 C4382 1.363 . S
C4383 C4389 1.428 . S
H4384 C4380 0.930 . S
H4385 C4382 0.929 . S
S4386 N4387 1.613 . S
S4386 N4388 1.610 . S
N4387 S4386 1.613 . S
N4387 C4390 1.350 . S
N4388 S4386 1.610 . S
N4388 C4389 1.351 . S
C4389 C4383 1.428 . S
C4389 N4388 1.351 . S
C4389 C4390 1.434 . S
C4390 C4381 1.429 . S
C4390 N4387 1.350 . S
C4390 C4389 1.434 . S
C4391 C4392 1.369 . S
C4391 C4393 1.419 . S
C4391 H4395 0.930 . S
C4392 C4391 1.369 . S
C4392 C4401 1.429 . S
C4393 C4391 1.419 . S
C4393 C4394 1.363 . S
C4393 H4396 0.929 . S
C4394 C4393 1.363 . S
C4394 C4400 1.428 . S
H4395 C4391 0.930 . S
H4396 C4393 0.929 . S
S4397 N4398 1.613 . S
S4397 N4399 1.610 . S
N4398 S4397 1.613 . S
N4398 C4401 1.350 . S
N4399 S4397 1.610 . S
N4399 C4400 1.351 . S
C4400 C4394 1.428 . S
C4400 N4399 1.351 . S
C4400 C4401 1.434 . S
C4401 C4392 1.429 . S
C4401 N4398 1.350 . S
C4401 C4400 1.434 . S
C4402 C4403 1.369 . S
C4402 C4404 1.419 . S
C4402 H4406 0.930 . S
C4403 C4402 1.369 . S
C4403 C4412 1.429 1_655 S
C4404 C4402 1.419 . S
C4404 C4405 1.353 1_655 S
C4404 H4407 0.929 . S
C4405 C4404 1.353 1_455 S
C4405 C4411 1.434 . S
H4406 C4402 0.930 . S
H4407 C4404 0.929 . S
S4408 N4409 1.613 . S
S4408 N4410 1.610 . S
N4409 S4408 1.613 . S
N4409 C4412 1.350 . S
N4410 S4408 1.610 . S
N4410 C4411 1.351 . S
C4411 C4405 1.434 . S
C4411 N4410 1.351 . S
C4411 C4412 1.434 . S
C4412 C4403 1.429 1_455 S
C4412 N4409 1.350 . S
C4412 C4411 1.434 . S
C4413 C4414 1.369 . S
C4413 C4415 1.419 . S
C4413 H4417 0.930 . S
C4414 C4413 1.369 . S
C4414 C4423 1.429 . S
C4415 C4413 1.419 . S
C4415 C4416 1.363 . S
C4415 H4418 0.929 . S
C4416 C4415 1.363 . S
C4416 C4422 1.428 . S
H4417 C4413 0.930 . S
H4418 C4415 0.929 . S
S4419 N4420 1.613 . S
S4419 N4421 1.610 . S
N4420 S4419 1.613 . S
N4420 C4423 1.350 . S
N4421 S4419 1.610 . S
N4421 C4422 1.351 . S
C4422 C4416 1.428 . S
C4422 N4421 1.351 . S
C4422 C4423 1.434 . S
C4423 C4414 1.429 . S
C4423 N4420 1.350 . S
C4423 C4422 1.434 . S
C4424 C4425 1.369 . S
C4424 C4426 1.419 . S
C4424 H4428 0.930 . S
C4425 C4424 1.369 . S
C4425 C4434 1.429 . S
C4426 C4424 1.419 . S
C4426 C4427 1.363 . S
C4426 H4429 0.929 . S
C4427 C4426 1.363 . S
C4427 C4433 1.428 . S
H4428 C4424 0.930 . S
H4429 C4426 0.929 . S
S4430 N4431 1.613 . S
S4430 N4432 1.610 . S
N4431 S4430 1.613 . S
N4431 C4434 1.350 . S
N4432 S4430 1.610 . S
N4432 C4433 1.351 . S
C4433 C4427 1.428 . S
C4433 N4432 1.351 . S
C4433 C4434 1.434 . S
C4434 C4425 1.429 . S
C4434 N4431 1.350 . S
C4434 C4433 1.434 . S
C4435 C4436 1.369 . S
C4435 C4437 1.419 . S
C4435 H4439 0.930 . S
C4436 C4435 1.369 . S
C4436 C4445 1.429 . S
C4437 C4435 1.419 . S
C4437 C4438 1.363 . S
C4437 H4440 0.929 1_565 S
C4438 C4437 1.363 . S
C4438 C4444 1.428 . S
H4439 C4435 0.930 . S
H4440 C4437 0.929 1_545 S
S4441 N4442 1.613 . S
S4441 N4443 1.610 1_655 S
N4442 S4441 1.613 . S
N4442 C4445 1.350 . S
N4443 S4441 1.610 1_455 S
N4443 C4444 1.351 1_455 S
C4444 C4438 1.428 . S
C4444 N4443 1.351 1_655 S
C4444 C4445 1.434 . S
C4445 C4436 1.429 . S
C4445 N4442 1.350 . S
C4445 C4444 1.434 . S
C4446 C4447 1.369 . S
C4446 C4448 1.419 . S
C4446 H4450 0.930 . S
C4447 C4446 1.369 . S
C4447 C4456 1.429 . S
C4448 C4446 1.419 . S
C4448 C4449 1.363 . S
C4448 H4451 0.929 . S
C4449 C4448 1.363 . S
C4449 C4455 1.428 . S
H4450 C4446 0.930 . S
H4451 C4448 0.929 . S
S4452 N4453 1.613 . S
S4452 N4454 1.610 . S
N4453 S4452 1.613 . S
N4453 C4456 1.350 . S
N4454 S4452 1.610 . S
N4454 C4455 1.351 . S
C4455 C4449 1.428 . S
C4455 N4454 1.351 . S
C4455 C4456 1.434 . S
C4456 C4447 1.429 . S
C4456 N4453 1.350 . S
C4456 C4455 1.434 . S
C4457 C4458 1.369 . S
C4457 C4459 1.419 . S
C4457 H4461 0.930 . S
C4458 C4457 1.369 . S
C4458 C4467 1.429 1_554 S
C4459 C4457 1.419 . S
C4459 C4460 1.363 . S
C4459 H4462 0.929 . S
C4460 C4459 1.363 . S
C4460 C4466 1.428 1_554 S
H4461 C4457 0.930 . S
H4462 C4459 0.929 . S
S4463 N4464 1.613 . S
S4463 N4465 1.610 . S
N4464 S4463 1.613 . S
N4464 C4467 1.350 . S
N4465 S4463 1.610 . S
N4465 C4466 1.351 . S
C4466 C4460 1.428 1_556 S
C4466 N4465 1.351 . S
C4466 C4467 1.434 . S
C4467 C4458 1.429 1_556 S
C4467 N4464 1.350 . S
C4467 C4466 1.434 . S
C4468 C4469 1.369 . S
C4468 C4470 1.419 . S
C4468 H4472 0.930 . S
C4469 C4468 1.369 . S
C4469 C4478 1.429 . S
C4470 C4468 1.419 . S
C4470 C4471 1.363 . S
C4470 H4473 0.929 . S
C4471 C4470 1.363 . S
C4471 C4477 1.428 . S
H4472 C4468 0.930 . S
H4473 C4470 0.929 . S
S4474 N4475 1.613 . S
S4474 N4476 1.610 . S
N4475 S4474 1.613 . S
N4475 C4478 1.350 . S
N4476 S4474 1.610 . S
N4476 C4477 1.351 . S
C4477 C4471 1.428 . S
C4477 N4476 1.351 . S
C4477 C4478 1.434 . S
C4478 C4469 1.429 . S
C4478 N4475 1.350 . S
C4478 C4477 1.434 . S
C4479 C4480 1.369 . S
C4479 C4481 1.419 . S
C4479 H4483 0.930 . S
C4480 C4479 1.369 . S
C4480 C4489 1.429 . S
C4481 C4479 1.419 . S
C4481 C4482 1.363 . S
C4481 H4484 0.929 . S
C4482 C4481 1.363 . S
C4482 C4488 1.428 . S
H4483 C4479 0.930 . S
H4484 C4481 0.929 . S
S4485 N4486 1.613 . S
S4485 N4487 1.610 . S
N4486 S4485 1.613 . S
N4486 C4489 1.350 . S
N4487 S4485 1.610 . S
N4487 C4488 1.351 . S
C4488 C4482 1.428 . S
C4488 N4487 1.351 . S
C4488 C4489 1.434 . S
C4489 C4480 1.429 . S
C4489 N4486 1.350 . S
C4489 C4488 1.434 . S
C4490 C4491 1.369 . S
C4490 C4492 1.419 . S
C4490 H4494 0.930 . S
C4491 C4490 1.369 . S
C4491 C4500 1.429 . S
C4492 C4490 1.419 . S
C4492 C4493 1.363 . S
C4492 H4495 0.929 . S
C4493 C4492 1.363 . S
C4493 C4499 1.428 . S
H4494 C4490 0.930 . S
H4495 C4492 0.929 . S
S4496 N4497 1.613 . S
S4496 N4498 1.610 . S
N4497 S4496 1.613 . S
N4497 C4500 1.350 . S
N4498 S4496 1.610 . S
N4498 C4499 1.351 . S
C4499 C4493 1.428 . S
C4499 N4498 1.351 . S
C4499 C4500 1.434 . S
C4500 C4491 1.429 . S
C4500 N4497 1.350 . S
C4500 C4499 1.434 . S
C4501 C4502 1.369 . S
C4501 C4503 1.419 . S
C4501 H4505 0.930 . S
C4502 C4501 1.369 . S
C4502 C4511 1.429 . S
C4503 C4501 1.419 . S
C4503 C4504 1.363 . S
C4503 H4506 0.929 . S
C4504 C4503 1.363 . S
C4504 C4510 1.428 . S
H4505 C4501 0.930 . S
H4506 C4503 0.929 . S
S4507 N4508 1.613 . S
S4507 N4509 1.610 . S
N4508 S4507 1.613 . S
N4508 C4511 1.350 . S
N4509 S4507 1.610 . S
N4509 C4510 1.351 . S
C4510 C4504 1.428 . S
C4510 N4509 1.351 . S
C4510 C4511 1.434 . S
C4511 C4502 1.429 . S
C4511 N4508 1.350 . S
C4511 C4510 1.434 . S
C3457 C665 1.939 . S
C3459 C2168 1.878 . S
C3468 C381 2.225 . S
C3470 C2259 2.237 . S
C3479 C460 1.814 . S
C3481 C2336 1.908 . S
C3492 C2434 1.423 . S
C3490 C585 1.551 . S
C3501 C108 1.584 . S
C3503 C2518 1.598 . S
C3514 C2590 1.027 . S
C3512 C196 1.160 . S
C3525 C2679 1.377 . S
C3523 C313 1.202 . S
C3534 C49 1.550 . S
C3536 C2756 1.385 . S
C3547 C2175 2.034 . S
C3545 C1457 2.131 . S
C3556 C1545 0.637 . S
C3558 C2266 0.664 . S
C3569 C2343 1.153 . S
C3567 C1721 1.186 . S
C3580 C2420 1.871 . S
C3578 C1113 1.836 . S
C3589 C1428 2.276 . S
C3591 C2504 2.137 . S
C3602 C2606 1.103 . S
C3600 C1516 1.170 . S
C3613 C2686 0.739 . S
C3611 C1692 0.752 . S
C3624 C2763 1.569 . S
C3622 C1085 1.716 . S
C3635 C2182 1.412 . S
C3633 C988 1.489 1_545 S
C3644 C1817 1.935 . S
C3646 C2847 1.889 1_556 S
C3657 C2935 2.183 . S
C3655 C2081 2.363 . S
C3668 C3008 0.682 . S
C3666 C1993 0.676 . S
C3677 C761 1.101 . S
C3679 C2770 1.211 . S
C3688 C821 1.512 . S
C3690 C2350 1.537 . S
C3699 C2053 2.295 . S
C3701 C3099 2.230 . S
C3712 C3176 0.750 . S
C3710 C1868 0.746 . S
C3723 C2179 1.874 . S
C3721 C372 1.938 . S
C3734 C3194 2.234 . S
C3732 C645 2.213 . S
C3743 C577 1.807 . S
C3745 C2347 1.899 . S
C3754 C497 1.550 . S
C3756 C3094 1.426 . S
C3767 C2506 1.600 . S
C3765 C57 1.594 . S
C3776 C293 1.165 . S
C3778 C2938 1.018 . S
C3789 C2690 1.371 . S
C3787 C205 1.203 . S
C3800 C3271 1.372 . S
C3798 C145 1.557 . S
C3811 C2186 2.037 . S
C3809 C909 2.126 . S
C3822 C3178 0.679 . S
C3820 C1956 0.635 . S
C3831 C724 1.184 . S
C3833 C2354 1.158 . S
C3842 C1780 1.841 . S
C3844 C3103 1.861 . S
C3853 C937 2.280 . S
C3855 C2515 2.133 . S
C3866 C2931 1.098 . S
C3864 C1985 1.167 . S
C3875 C753 0.747 . S
C3877 C2674 0.750 . S
C3886 C1809 1.717 . S
C3888 C3278 1.564 . S
C3897 C1173 1.496 . S
C3899 C2170 1.405 1_554 S
C3908 C1105 1.930 . S
C3910 C2858 1.890 . S
C3919 C1633 2.361 . S
C3921 C2588 2.177 . S
C3930 C1553 0.670 . S
C3932 C3019 0.671 . S
C3943 C3262 1.211 . S
C3941 C1729 1.124 . S
C3952 C1340 1.521 . S
C3954 C2338 1.537 . S
C3965 C2438 2.233 . S
C3963 C1604 2.290 . S
C3976 C2263 0.751 . S
C3974 C1252 0.749 . S
C3985 C489 1.936 . S
C3987 C3344 1.878 . S
C3998 C3183 2.234 . S
C3996 C557 2.221 . S
C4007 C636 1.808 . S
C4009 C3428 1.906 . S
C4018 C409 1.551 1_655 S
C4020 C3106 1.423 . S
C4029 C284 1.590 . S
C4031 C2854 1.601 . S
C4042 C2926 1.026 . S
C4040 C20 1.160 . S
C4053 C3015 1.375 . S
C4051 C137 1.217 . S
C4064 C3260 1.385 . S
C4062 C225 1.550 . S
C4075 C3351 2.039 . S
C4073 C1641 2.132 . S
C4084 C1193 0.637 . S
C4086 C3190 0.678 . S
C4097 C3435 1.155 . S
C4095 C1289 1.186 . S
C4108 C3092 1.874 . S
C4106 C1377 1.839 . S
C4119 C2840 2.143 . S
C4117 C1613 2.270 . S
C4128 C1164 1.169 . S
C4130 C2942 1.094 . S
C4141 C3022 0.740 . S
C4139 C1261 0.751 . S
C4150 C1349 1.719 . S
C4152 C3267 1.571 . S
C4163 C3358 1.407 . S
C4161 C1965 1.490 . S
C4172 C849 1.934 . S
C4174 C2511 1.890 . S
C4185 C2599 2.184 . S
C4183 C929 2.369 . S
C4196 C2672 0.684 . S
C4194 C1017 0.694 . S
C4207 C3274 1.211 . S
C4205 C1897 1.101 . S
C4216 C1789 1.512 1_554 S
C4218 C3442 1.537 . S
C4229 C2427 2.230 . S
C4227 C900 2.287 . S
C4240 C2252 0.759 . S
C4238 C733 0.759 . S
C4249 C548 1.942 . S
C4251 C3355 1.876 . S
C4262 C2270 2.234 . S
C4260 C469 2.213 . S
C4271 C401 1.804 . S
C4273 C3439 1.899 . S
C4282 C673 1.550 . S
C4284 C2422 1.420 . S
C4293 C233 1.588 . S
C4295 C2842 1.596 . S
C4306 C2602 1.008 . S
C4304 C117 1.168 . S
C4315 C29 1.189 . S
C4317 C3026 1.373 . S
C4326 C321 1.558 . S
C4328 C2767 1.370 . S
C4339 C3362 2.036 . S
C4337 C2044 2.126 . S
C4348 C997 0.635 . S
C4350 C2254 0.661 . S
C4361 C3446 1.156 . S
C4359 C1877 1.182 . S
C4370 C812 1.842 . S
C4372 C2431 1.866 . S
C4381 C2073 2.274 . S
C4383 C2851 2.137 . S
C4394 C2595 1.099 . S
C4392 C1025 1.167 . S
C4403 C1905 0.748 . S
C4405 C3010 0.755 . S
C4416 C2774 1.561 . S
C4414 C841 1.720 . S
C4427 C3346 1.410 . S
C4425 C1525 1.489 . S
C4438 C2522 1.893 1_665 S
C4436 C1369 1.930 . S
C4447 C1465 2.361 . S
C4449 C2924 2.176 . S
C4460 C2683 0.665 . S
C4458 C1201 0.675 . S
C4469 C1281 1.125 . S
C4471 C2758 1.212 . S
C4480 C1076 1.519 . S
C4482 C3430 1.536 1_554 S
C4493 C3110 2.228 . S
C4491 C1437 2.291 . S
C4504 C3187 0.752 . S
C4502 C1701 0.755 . S
