# Generated by pormake.
# Topology soc, (4,6)-cn, num edge types: 1
# Building blocks:
#     Node 0, Type 0, BuildingBlock: ESEHIV_clean_sbu_0, # of connection points: 4
#     Node 1, Type 0, BuildingBlock: ESEHIV_clean_sbu_0, # of connection points: 4
#     Node 2, Type 0, BuildingBlock: ESEHIV_clean_sbu_0, # of connection points: 4
#     Node 3, Type 0, BuildingBlock: ESEHIV_clean_sbu_0, # of connection points: 4
#     Node 4, Type 0, BuildingBlock: ESEHIV_clean_sbu_0, # of connection points: 4
#     Node 5, Type 0, BuildingBlock: ESEHIV_clean_sbu_0, # of connection points: 4
#     Node 6, Type 0, BuildingBlock: ESEHIV_clean_sbu_0, # of connection points: 4
#     Node 7, Type 0, BuildingBlock: ESEHIV_clean_sbu_0, # of connection points: 4
#     Node 8, Type 0, BuildingBlock: ESEHIV_clean_sbu_0, # of connection points: 4
#     Node 9, Type 0, BuildingBlock: ESEHIV_clean_sbu_0, # of connection points: 4
#     Node 10, Type 0, BuildingBlock: ESEHIV_clean_sbu_0, # of connection points: 4
#     Node 11, Type 0, BuildingBlock: ESEHIV_clean_sbu_0, # of connection points: 4
#     Node 12, Type 1, BuildingBlock: KUMBOL_clean_sbu_0, # of connection points: 6
#     Node 13, Type 1, BuildingBlock: KUMBOL_clean_sbu_0, # of connection points: 6
#     Node 14, Type 1, BuildingBlock: KUMBOL_clean_sbu_0, # of connection points: 6
#     Node 15, Type 1, BuildingBlock: KUMBOL_clean_sbu_0, # of connection points: 6
#     Node 16, Type 1, BuildingBlock: KUMBOL_clean_sbu_0, # of connection points: 6
#     Node 17, Type 1, BuildingBlock: KUMBOL_clean_sbu_0, # of connection points: 6
#     Node 18, Type 1, BuildingBlock: KUMBOL_clean_sbu_0, # of connection points: 6
#     Node 19, Type 1, BuildingBlock: KUMBOL_clean_sbu_0, # of connection points: 6
#     Edge 20, Type (0, 1), BuildingBlock: TEMPAE_clean_linker_10, # of connection points: 2
#     Edge 21, Type (0, 1), BuildingBlock: TEMPAE_clean_linker_10, # of connection points: 2
#     Edge 22, Type (0, 1), BuildingBlock: TEMPAE_clean_linker_10, # of connection points: 2
#     Edge 23, Type (0, 1), BuildingBlock: TEMPAE_clean_linker_10, # of connection points: 2
#     Edge 24, Type (0, 1), BuildingBlock: TEMPAE_clean_linker_10, # of connection points: 2
#     Edge 25, Type (0, 1), BuildingBlock: TEMPAE_clean_linker_10, # of connection points: 2
#     Edge 26, Type (0, 1), BuildingBlock: TEMPAE_clean_linker_10, # of connection points: 2
#     Edge 27, Type (0, 1), BuildingBlock: TEMPAE_clean_linker_10, # of connection points: 2
#     Edge 28, Type (0, 1), BuildingBlock: TEMPAE_clean_linker_10, # of connection points: 2
#     Edge 29, Type (0, 1), BuildingBlock: TEMPAE_clean_linker_10, # of connection points: 2
#     Edge 30, Type (0, 1), BuildingBlock: TEMPAE_clean_linker_10, # of connection points: 2
#     Edge 31, Type (0, 1), BuildingBlock: TEMPAE_clean_linker_10, # of connection points: 2
#     Edge 32, Type (0, 1), BuildingBlock: TEMPAE_clean_linker_10, # of connection points: 2
#     Edge 33, Type (0, 1), BuildingBlock: TEMPAE_clean_linker_10, # of connection points: 2
#     Edge 34, Type (0, 1), BuildingBlock: TEMPAE_clean_linker_10, # of connection points: 2
#     Edge 35, Type (0, 1), BuildingBlock: TEMPAE_clean_linker_10, # of connection points: 2
#     Edge 36, Type (0, 1), BuildingBlock: TEMPAE_clean_linker_10, # of connection points: 2
#     Edge 37, Type (0, 1), BuildingBlock: TEMPAE_clean_linker_10, # of connection points: 2
#     Edge 38, Type (0, 1), BuildingBlock: TEMPAE_clean_linker_10, # of connection points: 2
#     Edge 39, Type (0, 1), BuildingBlock: TEMPAE_clean_linker_10, # of connection points: 2
#     Edge 40, Type (0, 1), BuildingBlock: TEMPAE_clean_linker_10, # of connection points: 2
#     Edge 41, Type (0, 1), BuildingBlock: TEMPAE_clean_linker_10, # of connection points: 2
#     Edge 42, Type (0, 1), BuildingBlock: TEMPAE_clean_linker_10, # of connection points: 2
#     Edge 43, Type (0, 1), BuildingBlock: TEMPAE_clean_linker_10, # of connection points: 2
#     Edge 44, Type (0, 1), BuildingBlock: TEMPAE_clean_linker_10, # of connection points: 2
#     Edge 45, Type (0, 1), BuildingBlock: TEMPAE_clean_linker_10, # of connection points: 2
#     Edge 46, Type (0, 1), BuildingBlock: TEMPAE_clean_linker_10, # of connection points: 2
#     Edge 47, Type (0, 1), BuildingBlock: TEMPAE_clean_linker_10, # of connection points: 2
#     Edge 48, Type (0, 1), BuildingBlock: TEMPAE_clean_linker_10, # of connection points: 2
#     Edge 49, Type (0, 1), BuildingBlock: TEMPAE_clean_linker_10, # of connection points: 2
#     Edge 50, Type (0, 1), BuildingBlock: TEMPAE_clean_linker_10, # of connection points: 2
#     Edge 51, Type (0, 1), BuildingBlock: TEMPAE_clean_linker_10, # of connection points: 2
#     Edge 52, Type (0, 1), BuildingBlock: TEMPAE_clean_linker_10, # of connection points: 2
#     Edge 53, Type (0, 1), BuildingBlock: TEMPAE_clean_linker_10, # of connection points: 2
#     Edge 54, Type (0, 1), BuildingBlock: TEMPAE_clean_linker_10, # of connection points: 2
#     Edge 55, Type (0, 1), BuildingBlock: TEMPAE_clean_linker_10, # of connection points: 2
#     Edge 56, Type (0, 1), BuildingBlock: TEMPAE_clean_linker_10, # of connection points: 2
#     Edge 57, Type (0, 1), BuildingBlock: TEMPAE_clean_linker_10, # of connection points: 2
#     Edge 58, Type (0, 1), BuildingBlock: TEMPAE_clean_linker_10, # of connection points: 2
#     Edge 59, Type (0, 1), BuildingBlock: TEMPAE_clean_linker_10, # of connection points: 2
#     Edge 60, Type (0, 1), BuildingBlock: TEMPAE_clean_linker_10, # of connection points: 2
#     Edge 61, Type (0, 1), BuildingBlock: TEMPAE_clean_linker_10, # of connection points: 2
#     Edge 62, Type (0, 1), BuildingBlock: TEMPAE_clean_linker_10, # of connection points: 2
#     Edge 63, Type (0, 1), BuildingBlock: TEMPAE_clean_linker_10, # of connection points: 2
#     Edge 64, Type (0, 1), BuildingBlock: TEMPAE_clean_linker_10, # of connection points: 2
#     Edge 65, Type (0, 1), BuildingBlock: TEMPAE_clean_linker_10, # of connection points: 2
#     Edge 66, Type (0, 1), BuildingBlock: TEMPAE_clean_linker_10, # of connection points: 2
#     Edge 67, Type (0, 1), BuildingBlock: TEMPAE_clean_linker_10, # of connection points: 2
# Relax obj value: 0.067
# Max RMSD: 0.198
# Mean RMSD: 0.140
data_MOF--net-soc--node1-ESEHIV_clean_sbu_0--node2-KUMBOL_clean_sbu_0--edge1-TEMPAE_clean_linker_10
_symmetry_space_group_name_H-M    P1
_symmetry_Int_Tables_number       1
_symmetry_cell_setting            triclinic
loop_
_symmetry_equiv_pos_as_xyz
'x, y, z'
_cell_length_a     51.920704
_cell_length_b     50.30926
_cell_length_c     41.820347
_cell_angle_alpha  83.720612
_cell_angle_beta   82.22344
_cell_angle_gamma 72.702146
loop_
_atom_site_label
_atom_site_type_symbol
_atom_site_fract_x
_atom_site_fract_y
_atom_site_fract_z
_atom_type_partial_charge
Cu0 Cu 0.04009 0.05189 0.3419 0.0
N1 N 0.05113 0.07522 0.36592 0.0
N2 N 0.07357 0.10303 0.3801 0.0
C3 C 0.07539 0.08043 0.3642 0.0
C4 C 0.04741 0.11218 0.39249 0.0
C5 C 0.0337 0.09496 0.38385 0.0
O6 O 0.07004 0.02152 0.32439 0.0
C7 C 1.0144 0.1008 0.30341 0.0
O8 O 0.03437 0.11026 0.30858 0.0
H9 H 0.09353 0.06921 0.34993 0.0
H10 H 1.01209 0.09771 0.38848 0.0
N11 N 1.01787 0.03368 0.36851 0.0
N12 N 0.98863 0.00826 0.3812 0.0
C13 C 1.00461 0.01795 0.35742 0.0
C14 C 1.01032 0.03397 0.40054 0.0
C15 C 0.99226 0.0183 0.40845 0.0
C16 C 0.0923 0.02182 0.30758 0.0
O17 O 0.09693 0.04578 0.29736 0.0
H18 H 1.00668 0.0139 0.33219 0.0
H19 H 1.01702 0.04519 0.41684 0.0
O20 O 1.01576 0.0753 0.31157 0.0
H21 H 0.03867 0.13066 0.40576 0.0
H22 H 0.98204 0.01531 0.4323 0.0
Cu23 Cu 0.05825 0.0389 0.76234 0.0
N24 N 0.04656 0.01409 0.74196 0.0
N25 N 1.02209 0.98703 0.73134 0.0
C26 C 1.02147 0.011 0.7436 0.0
C27 C 0.04839 0.97471 0.72161 0.0
C28 C 0.0634 0.99142 0.7282 0.0
O29 O 0.02715 0.06787 0.78083 0.0
C30 C 0.106 0.01795 0.79558 0.0
O31 O 0.11112 0.04155 0.78479 0.0
H32 H 1.00347 0.02493 0.75549 0.0
H33 H 0.08529 0.98656 0.72506 0.0
N34 N 0.07815 0.05734 0.73215 0.0
N35 N 0.10084 0.08809 0.71303 0.0
C36 C 0.0825 0.08174 0.73627 0.0
C37 C 0.09377 0.04818 0.70492 0.0
C38 C 0.10791 0.06709 0.69312 0.0
C39 C 1.01384 0.08485 0.75979 0.0
O40 O 1.02084 0.08009 0.72909 0.0
H41 H 0.0741 0.09336 0.75744 0.0
H42 H 0.09583 0.0285 0.69526 0.0
O43 O 0.08306 0.01483 0.79209 0.0
H44 H 0.05623 0.95455 0.71155 0.0
H45 H 0.12311 0.06492 0.67237 0.0
Cu46 Cu 0.33472 0.05389 0.09994 0.0
N47 N 0.36001 0.02293 0.08206 0.0
N48 N 0.3718 0.98228 0.05908 0.0
C49 C 0.35471 0.00839 0.05982 0.0
C50 C 0.38902 0.98062 0.08119 0.0
C51 C 0.38166 1.00569 0.09538 0.0
O52 O 0.31315 0.03687 0.13372 0.0
C53 C 0.30768 0.10377 0.06267 0.0
O54 O 0.30391 0.11614 0.08969 0.0
H55 H 0.33667 0.01565 0.0473 0.0
H56 H 0.38974 0.01001 0.11613 0.0
N57 N 0.35211 0.07445 0.1198 0.0
N58 N 0.35872 0.106 0.14939 0.0
C59 C 0.34099 0.09294 0.14248 0.0
C60 C 0.37778 0.0756 0.11234 0.0
C61 C 0.38194 0.09491 0.13053 0.0
C62 C 0.30278 0.01804 0.12807 0.0
O63 O 0.2998 0.01531 0.09803 0.0
H64 H 0.31997 0.09754 0.15263 0.0
H65 H 0.39229 0.06366 0.09435 0.0
O66 O 0.31759 0.07727 0.0633 0.0
H67 H 0.40447 0.96196 0.08841 0.0
H68 H 0.40064 0.10045 0.12965 0.0
Cu69 Cu 0.06629 0.30475 0.10706 0.0
N70 N 0.07767 0.3216 0.06758 0.0
N71 N 0.10397 0.32596 0.02143 0.0
C72 C 0.10335 0.317 0.05313 0.0
C73 C 0.0778 0.3368 1.01579 0.0
C74 C 0.06164 0.33419 0.0443 0.0
O75 O 0.09354 0.30005 0.1377 0.0
C76 C 0.05955 0.26485 0.06771 0.0
O77 O 0.08156 0.26728 0.04957 0.0
H78 H 0.12107 0.30513 0.06479 0.0
H79 H 0.03975 0.33905 0.04725 0.0
N80 N 0.03362 0.32769 0.12619 0.0
N81 N 0.99209 0.3395 0.15359 0.0
C82 C 1.01218 0.31888 0.13968 0.0
C83 C 0.02691 0.35488 0.13167 0.0
C84 C 1.00133 0.36222 0.14861 0.0
C85 C 0.11616 0.28143 0.14059 0.0
O86 O 0.12326 0.26006 0.12256 0.0
H87 H 1.01173 0.29747 0.14029 0.0
H88 H 0.03989 0.36827 0.12437 0.0
O89 O 0.05498 0.27312 0.09631 0.0
H90 H 0.07088 0.34486 0.9924 0.0
H91 H 0.99042 0.38268 0.15666 0.0
Cu92 Cu 0.79107 0.02304 1.00529 0.0
N93 N 0.81276 0.04188 0.97915 0.0
N94 N 0.82079 0.07892 0.94997 0.0
C95 C 0.80209 0.06568 0.9617 0.0
C96 C 0.84434 0.0626 0.96035 0.0
C97 C 0.83928 0.03971 0.97852 0.0
O98 O 0.77045 0.05041 0.03615 0.0
C99 C 0.78648 0.99504 0.95468 0.0
O100 O 0.8122 0.99436 0.95029 0.0
H101 H 0.78052 0.07423 0.96001 0.0
H102 H 0.85348 0.02375 0.99201 0.0
N103 N 0.81082 0.99198 0.02877 0.0
N104 N 0.81698 0.95721 0.0674 0.0
C105 C 0.80008 0.98135 0.05635 0.0
C106 C 0.8355 0.97403 0.02185 0.0
C107 C 0.83945 0.95252 0.04589 0.0
C108 C 0.78473 0.05483 0.05654 0.0
O109 O 0.81025 0.0399 0.0562 0.0
H110 H 0.77994 0.99108 0.06771 0.0
H111 H 0.84915 0.97582 1.00032 0.0
O112 O 0.77139 0.00835 0.97794 0.0
H113 H 0.86353 0.06744 0.95633 0.0
H114 H 0.85693 0.93431 0.04667 0.0
Cu115 Cu 0.03494 0.76772 0.02283 0.0
N116 N 1.01805 0.75311 0.99455 0.0
N117 N 0.98749 0.75064 0.96259 0.0
C118 C 0.993 0.76499 0.9851 0.0
C119 C 1.01 0.72904 0.95755 0.0
C120 C 0.02884 0.7308 0.97693 0.0
O121 O 1.00543 0.78526 0.05695 0.0
C122 C 0.0793 0.79372 1.00006 0.0
O123 O 0.08204 0.7949 0.03056 0.0
H124 H 0.97925 0.78402 0.99423 0.0
H125 H 0.04939 0.7174 0.97694 0.0
N126 N 0.05936 0.73996 0.04649 0.0
N127 N 0.09156 0.72414 0.08031 0.0
C128 C 0.07126 0.74598 0.0703 0.0
C129 C 0.07178 0.71286 0.042 0.0
C130 C 0.09168 0.70307 0.06274 0.0
C131 C 0.99401 0.76734 0.07213 0.0
O132 O 1.00267 0.74181 0.0627 0.0
H133 H 0.06623 0.76675 0.07845 0.0
H134 H 0.06768 0.70125 0.02405 0.0
O135 O 0.05881 0.78699 0.99315 0.0
H136 H 1.01309 0.71376 0.94003 0.0
H137 H 0.10584 0.68238 0.06367 0.0
Cu138 Cu 0.54965 0.54096 0.8582 0.0
N139 N 0.5568 0.56344 0.88641 0.0
N140 N 0.57475 0.59374 0.90379 0.0
C141 C 0.5759 0.57701 0.88019 0.0
C142 C 0.55411 0.5905 0.92575 0.0
C143 C 0.54306 0.57179 0.91494 0.0
O144 O 0.5848 0.52121 0.83658 0.0
C145 C 0.49768 0.57256 0.84756 0.0
O146 O 0.49399 0.56249 0.87759 0.0
H147 H 0.5896 0.57549 0.85809 0.0
H148 H 0.52581 0.56528 0.92664 0.0
N149 N 0.53581 0.51342 0.88117 0.0
N150 N 0.51233 0.48218 0.89224 0.0
C151 C 0.52054 0.50008 0.86954 0.0
C152 C 0.5378 0.50347 0.91216 0.0
C153 C 0.52326 0.48427 0.91911 0.0
C154 C 0.5891 0.50077 0.81915 0.0
O155 O 0.56849 0.49525 0.80909 0.0
H156 H 0.51541 0.50385 0.84492 0.0
H157 H 0.54859 0.5101 0.92868 0.0
O158 O 0.52156 0.56557 0.83246 0.0
H159 H 0.54729 0.60107 0.94787 0.0
H160 H 0.52037 0.47342 0.94251 0.0
Cu161 Cu 0.55111 0.55789 0.26394 0.0
N162 N 0.53647 0.53927 0.23781 0.0
N163 N 0.51297 0.51238 0.22387 0.0
C164 C 0.52164 0.52152 0.24847 0.0
C165 C 0.52311 0.52456 0.19667 0.0
C166 C 0.53768 0.54102 0.20534 0.0
O167 O 0.5221 0.58265 0.29117 0.0
C168 C 0.59725 0.51478 0.26749 0.0
O169 O 0.59648 0.52079 0.23618 0.0
H170 H 0.51654 0.51624 0.27385 0.0
H171 H 0.54829 0.55344 0.18907 0.0
N172 N 0.56967 0.58117 0.23952 0.0
N173 N 0.59993 0.60541 0.22734 0.0
C174 C 0.59217 0.5857 0.24756 0.0
C175 C 0.5627 0.5988 0.21345 0.0
C176 C 0.5815 0.61362 0.20568 0.0
C177 C 0.49809 0.59143 0.28273 0.0
O178 O 0.49248 0.58146 0.25765 0.0
H179 H 0.60246 0.57489 0.26813 0.0
H180 H 0.54477 0.60136 0.20159 0.0
O181 O 0.57813 0.52909 0.2866 0.0
H182 H 0.52031 0.52171 0.17223 0.0
H183 H 0.58107 0.62987 0.18635 0.0
Cu184 Cu 0.82425 0.56717 0.60607 0.0
N185 N 0.8472 0.57483 0.57032 0.0
N186 N 0.86172 0.59619 0.52505 0.0
C187 C 0.84183 0.59768 0.54966 0.0
C188 C 0.8806 0.57167 0.53066 0.0
C189 C 0.87149 0.55843 0.55863 0.0
O190 O 0.80932 0.60052 0.63086 0.0
C191 C 0.79216 0.55438 0.56203 0.0
O192 O 0.79682 0.57548 0.54322 0.0
H193 H 0.82339 0.6148 0.5523 0.0
H194 H 0.88151 0.53798 0.56923 0.0
N195 N 0.84464 0.5387 0.63232 0.0
N196 N 0.85728 0.49712 0.65968 0.0
C197 C 0.83772 0.51549 0.64375 0.0
C198 C 0.8694 0.53515 0.64138 0.0
C199 C 0.87725 0.50948 0.65839 0.0
C200 C 0.82618 0.61352 0.63507 0.0
O201 O 0.85144 0.60409 0.62232 0.0
H202 H 0.81868 0.51218 0.6402 0.0
H203 H 0.88124 0.54976 0.63522 0.0
O204 O 0.79876 0.5506 0.59084 0.0
H205 H 0.89906 0.56347 0.515 0.0
H206 H 0.89647 0.50036 0.66816 0.0
Cu207 Cu 0.56577 0.80052 0.58742 0.0
N208 N 0.59507 0.77946 0.55911 0.0
N209 N 0.63041 0.77026 0.51966 0.0
C210 C 0.61113 0.79023 0.53614 0.0
C211 C 0.62616 0.74599 0.53311 0.0
C212 C 0.6046 0.75167 0.55719 0.0
O213 O 0.58274 0.81798 0.61518 0.0
C214 C 0.53192 0.81087 0.54167 0.0
O215 O 0.54307 0.78371 0.54291 0.0
H216 H 0.6084 0.81241 0.53142 0.0
H217 H 0.59648 0.73653 0.57226 0.0
N218 N 0.54388 0.78107 0.61548 0.0
N219 N 0.50791 0.77507 0.64955 0.0
C220 C 0.5173 0.79215 0.62654 0.0
C221 C 0.5513 0.75592 0.63195 0.0
C222 C 0.52938 0.75229 0.65296 0.0
C223 C 0.59994 0.80017 0.63169 0.0
O224 O 0.60389 0.77357 0.62824 0.0
H225 H 0.50543 0.81296 0.61898 0.0
H226 H 0.57149 0.74154 0.62977 0.0
O227 O 0.54002 0.82506 0.55959 0.0
H228 H 0.63799 0.72536 0.52644 0.0
H229 H 0.52936 0.73441 0.66989 0.0
Cu230 Cu 0.29104 0.52486 0.51231 0.0
N231 N 0.31007 0.54718 0.48534 0.0
N232 N 0.3165 0.58579 0.45691 0.0
C233 C 0.29834 0.57179 0.46927 0.0
C234 C 0.34061 0.56921 0.46541 0.0
C235 C 0.3366 0.54554 0.48289 0.0
O236 O 0.26923 0.55031 0.54438 0.0
C237 C 0.28748 0.49539 0.4621 0.0
O238 O 0.31248 0.49705 0.45622 0.0
H239 H 0.27665 0.58006 0.46845 0.0
H240 H 0.35176 0.52905 0.49445 0.0
N241 N 0.31273 0.49429 0.53618 0.0
N242 N 0.32263 0.45982 0.57569 0.0
C243 C 0.30408 0.48321 0.56506 0.0
C244 C 0.33765 0.47731 0.52802 0.0
C245 C 0.34384 0.45618 0.55229 0.0
C246 C 0.28435 0.5568 0.56208 0.0
O247 O 0.31068 0.54513 0.55735 0.0
H248 H 0.28428 0.49213 0.57773 0.0
H249 H 0.35009 0.47955 0.50554 0.0
O250 O 0.27238 0.508 0.48584 0.0
H251 H 0.35973 0.57416 0.46013 0.0
H252 H 0.36221 0.43892 0.55198 0.0
Cu253 Cu 0.52898 0.27356 0.53031 0.0
N254 N 0.55996 0.25253 0.5057 0.0
N255 N 0.60028 0.24346 0.47525 0.0
C256 C 0.5813 0.26203 0.49347 0.0
C257 C 0.59043 0.22133 0.47615 0.0
C258 C 0.56564 0.22698 0.49486 0.0
O259 O 0.54348 0.29859 0.55133 0.0
C260 C 0.49106 0.27152 0.49055 0.0
O261 O 0.50157 0.24519 0.50003 0.0
H262 H 0.58242 0.2826 0.49714 0.0
H263 H 0.55259 0.21349 0.49966 0.0
N264 N 0.51425 0.25208 0.56355 0.0
N265 N 0.48796 0.24192 0.6075 0.0
C266 C 0.4942 0.26236 0.58697 0.0
C267 C 0.52102 0.22417 0.56961 0.0
C268 C 0.50479 0.21786 0.59655 0.0
C269 C 0.5563 0.28735 0.57578 0.0
O270 O 0.55677 0.26167 0.5863 0.0
H271 H 0.48425 0.28444 0.5887 0.0
H272 H 0.5368 0.20939 0.55569 0.0
O273 O 0.50022 0.28964 0.5009 0.0
H274 H 0.60036 0.20236 0.46414 0.0
H275 H 0.50565 0.19716 0.60756 0.0
Gd276 Gd 0.31246 0.31997 0.28003 0.0
Gd277 Gd 0.27901 0.28638 0.34956 0.0
C278 C 0.23915 0.33763 0.43581 0.0
C279 C 0.2675 0.31358 0.47795 0.0
C280 C 0.27633 0.29625 0.42434 0.0
C281 C 0.25493 0.31792 0.41414 0.0
C282 C 0.28246 0.29341 0.45657 0.0
C283 C 0.24592 0.33569 0.46756 0.0
C284 C 0.2168 0.35839 0.42504 0.0
C285 C 0.21014 0.35852 0.39375 0.0
N286 N 0.24907 0.31927 0.38325 0.0
C287 C 0.22639 0.33845 0.37318 0.0
H288 H 0.22126 0.33893 0.34892 0.0
C289 C 0.30975 0.25379 0.41286 0.0
N290 N 0.29059 0.27737 0.40294 0.0
C291 C 0.31654 0.25001 0.44462 0.0
C292 C 0.3031 0.2701 0.46647 0.0
H293 H 0.32033 0.23838 0.39589 0.0
H294 H 0.23426 0.35084 0.48444 0.0
H295 H 0.37162 0.26935 0.28127 0.0
H296 H 0.20425 0.37404 0.44087 0.0
H297 H 0.19262 0.37419 0.38536 0.0
H298 H 0.27212 0.31197 0.50271 0.0
H299 H 0.26986 0.36619 0.23391 0.0
H300 H 0.39534 0.23989 0.18669 0.0
H301 H 0.40409 0.238 0.24363 0.0
H302 H 0.32511 0.29732 0.12506 0.0
H303 H 0.33221 0.23169 0.4522 0.0
H304 H 0.30846 0.26717 0.49103 0.0
H305 H 0.36491 0.26094 0.14303 0.0
H306 H 0.25945 0.37344 0.17699 0.0
N307 N 0.34396 0.28814 0.24643 0.0
C308 C 0.38064 0.25329 0.20329 0.0
C309 C 0.38578 0.25235 0.23534 0.0
C310 C 0.35705 0.27213 0.19276 0.0
C311 C 0.33903 0.28977 0.21511 0.0
C312 C 0.36727 0.27023 0.25663 0.0
N313 N 0.30119 0.32833 0.22657 0.0
C314 C 0.31675 0.31031 0.20493 0.0
C315 C 0.27553 0.35553 0.18456 0.0
C316 C 0.29048 0.33638 0.16231 0.0
C317 C 0.28147 0.35142 0.21669 0.0
C318 C 0.31174 0.31373 0.17221 0.0
H319 H 0.28596 0.33971 0.13739 0.0
O320 O 0.31557 0.36198 0.26654 0.0
O321 O 0.28931 0.32484 0.32846 0.0
O322 O 0.25018 0.30498 0.31049 0.0
O323 O 0.27741 0.30967 0.26227 0.0
O324 O 0.27857 0.35812 0.29543 0.0
O325 O 0.35099 0.32885 0.27936 0.0
O326 O 0.27608 0.24401 0.35766 0.0
O327 O 0.30236 0.28157 0.30119 0.0
O328 O 0.34154 0.30102 0.31886 0.0
O329 O 0.31499 0.29455 0.36719 0.0
O330 O 0.31303 0.24822 0.33447 0.0
O331 O 0.23944 0.27859 0.35611 0.0
C332 C 0.2743 0.34958 0.32534 0.0
C333 C 0.32877 0.29521 0.15024 0.0
C334 C 0.35145 0.27452 0.16046 0.0
C335 C 0.34165 0.35485 0.26859 0.0
C336 C 0.35851 0.36474 0.2414 0.0
C337 C 0.35793 0.35839 0.20974 0.0
C338 C 0.3759 0.38007 0.24715 0.0
C339 C 0.39285 0.3887 0.2214 0.0
C340 C 0.37455 0.36693 0.18417 0.0
C341 C 0.39194 0.38191 0.18989 0.0
C342 C 0.25431 0.30704 0.2783 0.0
C343 C 0.31772 0.25703 0.30472 0.0
C344 C 0.24963 0.25163 0.36082 0.0
C345 C 0.2364 0.23729 0.38782 0.0
C346 C 0.24277 0.23649 0.41947 0.0
C347 C 0.21821 0.22303 0.3816 0.0
C348 C 0.20693 0.20729 0.40674 0.0
C349 C 0.23185 0.22102 0.44443 0.0
C350 C 0.21438 0.2063 0.43816 0.0
C351 C 0.33796 0.29723 0.351 0.0
H352 H 0.34468 0.34687 0.20469 0.0
H353 H 0.37654 0.38491 0.27162 0.0
H354 H 0.37391 0.36194 0.15981 0.0
H355 H 0.40444 0.38856 0.16956 0.0
H356 H 0.25648 0.24742 0.42487 0.0
H357 H 0.21293 0.22432 0.35718 0.0
H358 H 0.23724 0.22014 0.46872 0.0
H359 H 0.20704 0.19382 0.45802 0.0
Gd360 Gd 0.77898 0.2873 0.28051 0.0
Gd361 Gd 0.80695 0.30902 0.3469 0.0
C362 C 0.88099 0.34195 0.32973 0.0
C363 C 0.9137 0.30652 0.35954 0.0
C364 C 0.86846 0.3022 0.35793 0.0
C365 C 0.86198 0.32665 0.33824 0.0
C366 C 0.89423 0.29211 0.3693 0.0
C367 C 0.90705 0.33146 0.3399 0.0
C368 C 0.87296 0.36776 0.31208 0.0
C369 C 0.84665 0.37766 0.3032 0.0
N370 N 0.83667 0.33619 0.32869 0.0
C371 C 0.82858 0.36168 0.31205 0.0
H372 H 0.80825 0.36978 0.30525 0.0
C373 C 0.85335 0.26699 0.39013 0.0
N374 N 0.84906 0.28906 0.36734 0.0
C375 C 0.87866 0.25602 0.40184 0.0
C376 C 0.89934 0.26839 0.39102 0.0
H377 H 0.83733 0.25747 0.39868 0.0
H378 H 0.92201 0.34277 0.33326 0.0
H379 H 0.78276 0.22425 0.31851 0.0
H380 H 0.88669 0.38051 0.30587 0.0
H381 H 0.8402 0.3977 0.28976 0.0
H382 H 0.93368 0.29897 0.3678 0.0
H383 H 0.74265 0.34375 0.23872 0.0
H384 H 0.70562 0.20951 0.3202 0.0
H385 H 0.75312 0.19352 0.33307 0.0
H386 H 0.6518 0.2937 0.26898 0.0
H387 H 0.88217 0.2381 0.41925 0.0
H388 H 0.91889 0.25997 0.40027 0.0
H389 H 0.6676 0.24744 0.29764 0.0
H390 H 0.69572 0.36291 0.22377 0.0
N391 N 0.75195 0.25776 0.29886 0.0
C392 C 0.71833 0.22335 0.31439 0.0
C393 C 0.7452 0.21416 0.3215 0.0
C394 C 0.70831 0.25004 0.29932 0.0
C395 C 0.72594 0.26691 0.29133 0.0
C396 C 0.76192 0.23164 0.31327 0.0
N397 N 0.73489 0.30817 0.26601 0.0
C398 C 0.7171 0.29292 0.27474 0.0
C399 C 0.70143 0.3433 0.23823 0.0
C400 C 0.6825 0.32852 0.24828 0.0
C401 C 0.72787 0.33249 0.24676 0.0
C402 C 0.69033 0.30279 0.26624 0.0
H403 H 0.66207 0.33684 0.24143 0.0
O404 O 0.78664 0.2907 0.2282 0.0
O405 O 0.81143 0.30283 0.29424 0.0
O406 O 0.77497 0.34506 0.32382 0.0
O407 O 0.74775 0.32356 0.3029 0.0
O408 O 0.79591 0.32049 0.25173 0.0
O409 O 0.78969 0.25003 0.25352 0.0
O410 O 0.79211 0.31039 0.39796 0.0
O411 O 0.77537 0.29212 0.33319 0.0
O412 O 0.81465 0.25172 0.29728 0.0
O413 O 0.83773 0.26932 0.33078 0.0
O414 O 0.79056 0.27565 0.37613 0.0
O415 O 0.79409 0.34855 0.36988 0.0
C416 C 0.8142 0.31959 0.27021 0.0
C417 C 0.67247 0.28641 0.27518 0.0
C418 C 0.68147 0.26006 0.2915 0.0
C419 C 0.78838 0.26452 0.22556 0.0
C420 C 0.77088 0.25899 0.20315 0.0
C421 C 0.74979 0.28096 0.19111 0.0
C422 C 0.77483 0.23178 0.19373 0.0
C423 C 0.75725 0.22675 0.1736 0.0
C424 C 0.73219 0.27588 0.17176 0.0
C425 C 0.73572 0.24895 0.16323 0.0
C426 C 0.75158 0.34546 0.31412 0.0
C427 C 0.77311 0.2751 0.35717 0.0
C428 C 0.79027 0.33675 0.39876 0.0
C429 C 0.80313 0.34431 0.42476 0.0
C430 C 0.82277 0.32371 0.44094 0.0
C431 C 0.79586 0.37211 0.43378 0.0
C432 C 0.80867 0.37911 0.45812 0.0
C433 C 0.83544 0.33056 0.46484 0.0
C434 C 0.82855 0.35799 0.47332 0.0
C435 C 0.8356 0.24955 0.31357 0.0
H436 H 0.74686 0.30222 0.1964 0.0
H437 H 0.79134 0.21466 0.20208 0.0
H438 H 0.71588 0.29299 0.16304 0.0
H439 H 0.72206 0.24553 0.14773 0.0
H440 H 0.82829 0.30216 0.43542 0.0
H441 H 0.78061 0.3882 0.42172 0.0
H442 H 0.85057 0.31446 0.47701 0.0
H443 H 0.83851 0.36264 0.49228 0.0
Gd444 Gd 0.81862 0.81077 0.32323 0.0
Gd445 Gd 0.8058 0.75862 0.2784 0.0
C446 C 0.85508 0.72468 0.18558 0.0
C447 C 0.82224 0.74175 0.14641 0.0
C448 C 0.80976 0.75327 0.20247 0.0
C449 C 0.83576 0.73887 0.20966 0.0
C450 C 0.80265 0.7547 0.17081 0.0
C451 C 0.84833 0.72657 0.15384 0.0
C452 C 0.88033 0.70827 0.19434 0.0
C453 C 0.88621 0.70707 0.22611 0.0
N454 N 0.84177 0.7375 0.24053 0.0
C455 C 0.86656 0.72177 0.24906 0.0
H456 H 0.87133 0.72018 0.27361 0.0
C457 C 0.76456 0.77707 0.22145 0.0
N458 N 0.79109 0.76497 0.22672 0.0
C459 C 0.75666 0.77942 0.19036 0.0
C460 C 0.77584 0.76841 0.16485 0.0
H461 H 0.74964 0.78542 0.24119 0.0
H462 H 0.86304 0.71604 0.13497 0.0
H463 H 0.75319 0.84906 0.32668 0.0
H464 H 0.89531 0.69617 0.17685 0.0
H465 H 0.90575 0.69451 0.23304 0.0
H466 H 0.8172 0.74271 0.12192 0.0
H467 H 0.87444 0.78845 0.36163 0.0
H468 H 0.72334 0.86159 0.42588 0.0
H469 H 0.71585 0.86882 0.36808 0.0
H470 H 0.80149 0.81791 0.48191 0.0
H471 H 0.73577 0.78956 0.18613 0.0
H472 H 0.76962 0.77003 0.14083 0.0
H473 H 0.75507 0.84142 0.46835 0.0
H474 H 0.88666 0.78282 0.41773 0.0
N475 N 0.78134 0.82961 0.36078 0.0
C476 C 0.73971 0.8524 0.40787 0.0
C477 C 0.73546 0.85671 0.37524 0.0
C478 C 0.7653 0.83719 0.4168 0.0
C479 C 0.78611 0.82622 0.39233 0.0
C480 C 0.75671 0.84542 0.35183 0.0
N481 N 0.83211 0.80436 0.37558 0.0
C482 C 0.81227 0.81321 0.39996 0.0
C483 C 0.86566 0.79127 0.41308 0.0
C484 C 0.84531 0.79895 0.43867 0.0
C485 C 0.85872 0.79451 0.38142 0.0
C486 C 0.81828 0.81048 0.43225 0.0
H487 H 0.85074 0.79648 0.46316 0.0
O488 O 0.848 0.83414 0.32247 0.0
O489 O 0.83151 0.78695 0.27906 0.0
O490 O 0.83583 0.73827 0.31494 0.0
O491 O 0.82795 0.77031 0.35378 0.0
O492 O 0.86214 0.79288 0.30048 0.0
O493 O 0.80681 0.85554 0.31207 0.0
O494 O 0.77487 0.73693 0.28217 0.0
O495 O 0.79324 0.7819 0.32308 0.0
O496 O 0.78995 0.8309 0.28482 0.0
O497 O 0.79946 0.79817 0.24657 0.0
O498 O 0.76245 0.77839 0.29963 0.0
O499 O 0.81634 0.71392 0.29021 0.0
C500 C 0.85697 0.78259 0.27599 0.0
C501 C 0.79733 0.82007 0.45691 0.0
C502 C 0.7709 0.83345 0.44918 0.0
C503 C 0.82979 0.85819 0.3186 0.0
C504 C 0.82808 0.87904 0.34183 0.0
C505 C 0.80497 0.8874 0.36424 0.0
C506 C 0.84972 0.89052 0.34205 0.0
C507 C 0.84831 0.91002 0.36459 0.0
C508 C 0.80374 0.90606 0.38701 0.0
C509 C 0.82523 0.91721 0.38735 0.0
C510 C 0.83734 0.74464 0.34439 0.0
C511 C 0.7677 0.78722 0.32507 0.0
C512 C 0.79247 0.7124 0.28541 0.0
C513 C 0.7918 0.69183 0.26305 0.0
C514 C 0.81483 0.67963 0.24203 0.0
C515 C 0.76763 0.68484 0.26201 0.0
C516 C 0.76634 0.66598 0.24008 0.0
C517 C 0.81362 0.66123 0.22005 0.0
C518 C 0.7896 0.65447 0.21897 0.0
C519 C 0.79057 0.82419 0.25486 0.0
H520 H 0.78773 0.87964 0.36427 0.0
H521 H 0.86734 0.88461 0.32438 0.0
H522 H 0.78598 0.91199 0.40442 0.0
H523 H 0.82376 0.93148 0.40557 0.0
H524 H 0.8338 0.68432 0.24237 0.0
H525 H 0.74995 0.69389 0.27852 0.0
H526 H 0.83139 0.65219 0.20373 0.0
H527 H 0.78918 0.64037 0.20137 0.0
Gd528 Gd 0.30789 0.826 0.34041 0.0
Gd529 Gd 0.29362 0.79318 0.27282 0.0
C530 C 0.26765 0.7138 0.29772 0.0
C531 C 0.30385 0.67974 0.26827 0.0
C532 C 0.30475 0.72799 0.26617 0.0
C533 C 0.28058 0.73458 0.28638 0.0
C534 C 0.31634 0.7006 0.25641 0.0
C535 C 0.27954 0.68635 0.28878 0.0
C536 C 0.24296 0.72128 0.31739 0.0
C537 C 0.23141 0.74903 0.32468 0.0
N538 N 0.26949 0.76134 0.29459 0.0
C539 C 0.24482 0.76898 0.31264 0.0
H540 H 0.23565 0.7903 0.31859 0.0
C541 C 0.33771 0.74388 0.23113 0.0
N542 N 0.31633 0.74857 0.25494 0.0
C543 C 0.35016 0.717 0.22112 0.0
C544 C 0.33968 0.69515 0.23421 0.0
H545 H 0.34565 0.76088 0.22074 0.0
H546 H 0.26986 0.67014 0.29716 0.0
H547 H 0.37078 0.81332 0.2973 0.0
H548 H 0.23247 0.7059 0.32669 0.0
H549 H 0.21216 0.75508 0.33957 0.0
H550 H 0.31254 0.65856 0.26119 0.0
H551 H 0.25821 0.8728 0.38216 0.0
H552 H 0.38853 0.89084 0.27353 0.0
H553 H 0.40144 0.83965 0.27144 0.0
H554 H 0.3115 0.95737 0.32303 0.0
H555 H 0.3677 0.7132 0.20319 0.0
H556 H 0.34923 0.67435 0.22625 0.0
H557 H 0.35515 0.93436 0.29315 0.0
H558 H 0.24268 0.92363 0.38732 0.0
N559 N 0.33977 0.8489 0.31444 0.0
C560 C 0.37476 0.87932 0.28517 0.0
C561 C 0.38212 0.85045 0.28398 0.0
C562 C 0.34983 0.89297 0.30157 0.0
C563 C 0.33248 0.87707 0.31614 0.0
C564 C 0.36446 0.83549 0.29897 0.0
N565 N 0.29162 0.87435 0.34712 0.0
C566 C 0.3077 0.89013 0.33276 0.0
C567 C 0.26079 0.9146 0.3715 0.0
C568 C 0.27591 0.93145 0.35479 0.0
C569 C 0.26945 0.88588 0.36815 0.0
C570 C 0.30005 0.91921 0.33586 0.0
H571 H 0.26934 0.95369 0.35766 0.0
O572 O 0.29877 0.82517 0.39244 0.0
O573 O 0.29996 0.78864 0.32501 0.0
O574 O 0.25487 0.82602 0.29066 0.0
O575 O 0.26488 0.849 0.33105 0.0
O576 O 0.28143 0.80129 0.36955 0.0
O577 O 0.34017 0.82075 0.37097 0.0
O578 O 0.29599 0.80465 0.2214 0.0
O579 O 0.30006 0.83131 0.28859 0.0
O580 O 0.34389 0.78775 0.3288 0.0
O581 O 0.3361 0.76907 0.28321 0.0
O582 O 0.32081 0.81738 0.24499 0.0
O583 O 0.25935 0.79644 0.24614 0.0
C584 C 0.28577 0.78199 0.34985 0.0
C585 C 0.31711 0.93504 0.321 0.0
C586 C 0.34197 0.92193 0.304 0.0
C587 C 0.32328 0.82443 0.39736 0.0
C588 C 0.32575 0.84437 0.41965 0.0
C589 C 0.30247 0.86284 0.4349 0.0
C590 C 0.35145 0.84381 0.42757 0.0
C591 C 0.35375 0.86117 0.45064 0.0
C592 C 0.3048 0.88064 0.45698 0.0
C593 C 0.33025 0.87971 0.46502 0.0
C594 C 0.24814 0.84556 0.31171 0.0
C595 C 0.31511 0.83726 0.26419 0.0
C596 C 0.27288 0.80046 0.21825 0.0
C597 C 0.27285 0.78281 0.19208 0.0
C598 C 0.29648 0.77289 0.17077 0.0
C599 C 0.24891 0.77673 0.18721 0.0
C600 C 0.24859 0.76138 0.16112 0.0
C601 C 0.29627 0.75722 0.14535 0.0
C602 C 0.27246 0.75163 0.14038 0.0
C603 C 0.35136 0.76976 0.30584 0.0
H604 H 0.28234 0.86329 0.43032 0.0
H605 H 0.36954 0.82911 0.41684 0.0
H606 H 0.28674 0.89477 0.46846 0.0
H607 H 0.3316 0.8932 0.48284 0.0
H608 H 0.31517 0.7774 0.17344 0.0
H609 H 0.23041 0.78458 0.20302 0.0
H610 H 0.31457 0.74969 0.12918 0.0
H611 H 0.27263 0.73972 0.12023 0.0
Gd612 Gd 0.28022 0.77881 0.79155 0.0
Gd613 Gd 0.30803 0.79814 0.85736 0.0
C614 C 0.32871 0.87977 0.86134 0.0
C615 C 0.37424 0.8697 0.83321 0.0
C616 C 0.35005 0.83441 0.84035 0.0
C617 C 0.32779 0.85287 0.85593 0.0
C618 C 0.37399 0.84225 0.83021 0.0
C619 C 0.35159 0.88847 0.84871 0.0
C620 C 0.30734 0.89646 0.88095 0.0
C621 C 0.28666 0.88558 0.8962 0.0
N622 N 0.3064 0.84349 0.86882 0.0
C623 C 0.28692 0.85861 0.89055 0.0
H624 H 0.27127 0.85009 0.90318 0.0
C625 C 0.37266 0.78753 0.82983 0.0
N626 N 0.34935 0.80786 0.83845 0.0
C627 C 0.39694 0.79419 0.8202 0.0
C628 C 0.39748 0.8218 0.81945 0.0
H629 H 0.37282 0.76607 0.8301 0.0
H630 H 0.35252 0.90917 0.85223 0.0
H631 H 0.28624 0.72076 0.84206 0.0
H632 H 0.30733 0.9172 0.88576 0.0
H633 H 0.27069 0.8978 0.91261 0.0
H634 H 0.3923 0.87621 0.82504 0.0
H635 H 0.23978 0.82943 0.74592 0.0
H636 H 0.20873 0.70565 0.86086 0.0
H637 H 0.25754 0.6918 0.86805 0.0
H638 H 0.15107 0.78202 0.80199 0.0
H639 H 0.41522 0.77787 0.81371 0.0
H640 H 0.41637 0.82687 0.81196 0.0
H641 H 0.16937 0.73915 0.83582 0.0
H642 H 0.19144 0.84648 0.73666 0.0
N643 N 0.2542 0.75099 0.82 0.0
C644 C 0.2213 0.71846 0.84918 0.0
C645 C 0.24883 0.71057 0.8533 0.0
C646 C 0.21027 0.74281 0.83013 0.0
C647 C 0.22745 0.75888 0.81557 0.0
C648 C 0.26509 0.72711 0.8384 0.0
N649 N 0.23429 0.79773 0.78199 0.0
C650 C 0.21715 0.78309 0.79639 0.0
C651 C 0.19829 0.82883 0.75381 0.0
C652 C 0.18007 0.81513 0.77007 0.0
C653 C 0.22557 0.81929 0.75936 0.0
C654 C 0.1895 0.79157 0.79103 0.0
H655 H 0.15898 0.82233 0.76544 0.0
O656 O 0.28856 0.78106 0.73939 0.0
O657 O 0.31695 0.78731 0.80575 0.0
O658 O 0.28192 0.83864 0.83449 0.0
O659 O 0.25785 0.82397 0.79967 0.0
O660 O 0.30265 0.80795 0.76376 0.0
O661 O 0.28227 0.7433 0.76428 0.0
O662 O 0.29948 0.77648 0.90393 0.0
O663 O 0.2758 0.78064 0.84512 0.0
O664 O 0.31589 0.74129 0.80342 0.0
O665 O 0.33224 0.75379 0.84699 0.0
O666 O 0.26423 0.81147 0.87809 0.0
O667 O 0.33492 0.79098 0.89492 0.0
C668 C 0.32228 0.80318 0.78154 0.0
C669 C 0.17234 0.77581 0.80583 0.0
C670 C 0.18274 0.75141 0.82513 0.0
C671 C 0.285 0.75698 0.73636 0.0
C672 C 0.26714 0.75618 0.71176 0.0
C673 C 0.25227 0.78109 0.69597 0.0
C674 C 0.26629 0.73046 0.70211 0.0
C675 C 0.25103 0.72984 0.67686 0.0
C676 C 0.23634 0.78048 0.67196 0.0
C677 C 0.2358 0.75505 0.6623 0.0
C678 C 0.26252 0.84342 0.81509 0.0
C679 C 0.25566 0.7954 0.86288 0.0
C680 C 0.31916 0.78102 0.9165 0.0
C681 C 0.31232 0.79328 0.94825 0.0
C682 C 0.29738 0.78141 0.97322 0.0
C683 C 0.32063 0.81643 0.95415 0.0
C684 C 0.31408 0.82757 0.98471 0.0
C685 C 0.29075 0.79238 1.00346 0.0
C686 C 0.29905 0.81521 1.00926 0.0
C687 C 0.33288 0.73571 0.82591 0.0
H688 H 0.25334 0.80117 0.70154 0.0
H689 H 0.2784 0.71106 0.71314 0.0
H690 H 0.22493 0.79981 0.66016 0.0
H691 H 0.22391 0.75503 0.64292 0.0
H692 H 0.29087 0.76357 0.96932 0.0
H693 H 0.33195 0.82595 0.93497 0.0
H694 H 0.27929 0.78301 0.0226 0.0
H695 H 0.29407 0.82287 0.0332 0.0
Gd696 Gd 0.31482 0.30158 0.84675 0.0
Gd697 Gd 0.28613 0.26615 0.79356 0.0
C698 C 0.34002 0.22179 0.70872 0.0
C699 C 0.31766 0.24766 0.6627 0.0
C700 C 0.2999 0.26105 0.71731 0.0
C701 C 0.32089 0.23999 0.72965 0.0
C702 C 0.29782 0.2648 0.68373 0.0
C703 C 0.33859 0.22608 0.67518 0.0
C704 C 0.35933 0.19912 0.72223 0.0
C705 C 0.35922 0.19493 0.75576 0.0
N706 N 0.32145 0.23598 0.76226 0.0
C707 C 0.33978 0.21341 0.77555 0.0
H708 H 0.33971 0.20968 0.80144 0.0
C709 C 0.25766 0.29514 0.72755 0.0
N710 N 0.2806 0.27674 0.73829 0.0
C711 C 0.25496 0.29994 0.69444 0.0
C712 C 0.27528 0.28493 0.67239 0.0
H713 H 0.24183 0.3066 0.74466 0.0
H714 H 0.35319 0.21241 0.65872 0.0
H715 H 0.27004 0.35927 0.81231 0.0
H716 H 0.37395 0.18429 0.70705 0.0
H717 H 0.37389 0.17726 0.7664 0.0
H718 H 0.31649 0.25034 0.63682 0.0
H719 H 0.33473 0.2658 0.91716 0.0
H720 H 0.21986 0.40581 0.88772 0.0
H721 H 0.23437 0.40003 0.82963 0.0
H722 H 0.2479 0.35129 0.9842 0.0
H723 H 0.23714 0.31507 0.68598 0.0
H724 H 0.27302 0.28848 0.64676 0.0
H725 H 0.22538 0.38778 0.94494 0.0
H726 H 0.31997 0.26686 0.97522 0.0
N727 N 0.27706 0.34057 0.86004 0.0
C728 C 0.23581 0.38745 0.88026 0.0
C729 C 0.24399 0.3843 0.84751 0.0
C730 C 0.2482 0.36683 0.90302 0.0
C731 C 0.26876 0.3431 0.89212 0.0
C732 C 0.26469 0.3608 0.83778 0.0
N733 N 0.30132 0.29998 0.90334 0.0
C734 C 0.28085 0.32205 0.91427 0.0
C735 C 0.30845 0.28224 0.95838 0.0
C736 C 0.28673 0.30402 0.96979 0.0
C737 C 0.31618 0.2812 0.92516 0.0
C738 C 0.27329 0.32476 0.94782 0.0
H739 H 0.2813 0.3053 0.99565 0.0
O740 O 0.35141 0.29999 0.86755 0.0
O741 O 0.32203 0.27883 0.80242 0.0
O742 O 0.30075 0.23566 0.83615 0.0
O743 O 0.31675 0.25881 0.87116 0.0
O744 O 0.35429 0.27029 0.82907 0.0
O745 O 0.33042 0.33772 0.84068 0.0
O746 O 0.24706 0.26064 0.78716 0.0
O747 O 0.2798 0.2871 0.8392 0.0
O748 O 0.31077 0.32691 0.79753 0.0
O749 O 0.29089 0.30549 0.76452 0.0
O750 O 0.24717 0.29748 0.81275 0.0
O751 O 0.27976 0.22524 0.80235 0.0
C752 C 0.34682 0.26543 0.80261 0.0
C753 C 0.25351 0.34869 0.95857 0.0
C754 C 0.24082 0.36953 0.93624 0.0
C755 C 0.35017 0.32594 0.85844 0.0
C756 C 0.35438 0.34289 0.88291 0.0
C757 C 0.34138 0.34214 0.91451 0.0
C758 C 0.37204 0.35966 0.87487 0.0
C759 C 0.37664 0.37542 0.89831 0.0
C760 C 0.34567 0.35774 0.9377 0.0
C761 C 0.36324 0.37419 0.92979 0.0
C762 C 0.3106 0.2368 0.86343 0.0
C763 C 0.25526 0.30104 0.83938 0.0
C764 C 0.25587 0.23351 0.79183 0.0
C765 C 0.2517 0.21721 0.76661 0.0
C766 C 0.27366 0.20389 0.74485 0.0
C767 C 0.22578 0.21468 0.76408 0.0
C768 C 0.22194 0.19988 0.73924 0.0
C769 C 0.26971 0.19013 0.71964 0.0
C770 C 0.24396 0.18828 0.71665 0.0
C771 C 0.30095 0.32573 0.76999 0.0
H772 H 0.32821 0.3293 0.92166 0.0
H773 H 0.38213 0.3604 0.85048 0.0
H774 H 0.3356 0.35677 0.96204 0.0
H775 H 0.36676 0.38547 0.94859 0.0
H776 H 0.29403 0.20361 0.74752 0.0
H777 H 0.20883 0.22383 0.78147 0.0
H778 H 0.2868 0.18028 0.70285 0.0
H779 H 0.24149 0.17658 0.69758 0.0
Gd780 Gd 0.82172 0.31086 0.8401 0.0
Gd781 Gd 0.79257 0.28643 0.77563 0.0
C782 C 0.7665 0.20674 0.79472 0.0
C783 C 0.79814 0.17635 0.75662 0.0
C784 C 0.79978 0.22392 0.75893 0.0
C785 C 0.77862 0.22817 0.78359 0.0
C786 C 0.80945 0.19811 0.74478 0.0
C787 C 0.7767 0.18067 0.78152 0.0
C788 C 0.74417 0.21233 0.81838 0.0
C789 C 0.73408 0.23893 0.82979 0.0
N790 N 0.76939 0.25351 0.79611 0.0
C791 C 0.74677 0.25951 0.81799 0.0
H792 H 0.73877 0.28 0.82697 0.0
C793 C 0.82937 0.24294 0.72171 0.0
N794 N 0.81041 0.2453 0.74817 0.0
C795 C 0.83963 0.21772 0.70694 0.0
C796 C 0.82988 0.19509 0.71877 0.0
H797 H 0.83719 0.26026 0.71258 0.0
H798 H 0.76783 0.16386 0.79001 0.0
H799 H 0.8807 0.31136 0.79694 0.0
H800 H 0.73423 0.19647 0.82748 0.0
H801 H 0.71655 0.24359 0.8477 0.0
H802 H 0.80549 0.15628 0.74628 0.0
H803 H 0.76929 0.34306 0.89173 0.0
H804 H 0.8944 0.38979 0.8058 0.0
H805 H 0.90974 0.3429 0.78493 0.0
H806 H 0.81401 0.43954 0.86902 0.0
H807 H 0.85511 0.21573 0.6865 0.0
H808 H 0.83789 0.17557 0.7073 0.0
H809 H 0.85773 0.42653 0.83496 0.0
H810 H 0.7506 0.3893 0.91433 0.0
N811 N 0.84869 0.34069 0.82293 0.0
C812 C 0.88119 0.3764 0.81024 0.0
C813 C 0.89005 0.34983 0.7987 0.0
C814 C 0.85569 0.38518 0.82799 0.0
C815 C 0.83986 0.3664 0.83457 0.0
C816 C 0.87352 0.33206 0.80548 0.0
N817 N 0.80174 0.35419 0.8622 0.0
C818 C 0.81549 0.37353 0.85433 0.0
C819 C 0.76877 0.38518 0.89737 0.0
C820 C 0.782 0.40575 0.88845 0.0
C821 C 0.77932 0.35911 0.88455 0.0
C822 C 0.80597 0.39988 0.86725 0.0
H823 H 0.77397 0.42581 0.89875 0.0
O824 O 0.82447 0.29811 0.89114 0.0
O825 O 0.80348 0.28006 0.82611 0.0
O826 O 0.76108 0.31666 0.80814 0.0
O827 O 0.78481 0.34442 0.82446 0.0
O828 O 0.7923 0.2915 0.87252 0.0
O829 O 0.86129 0.29527 0.85876 0.0
O830 O 0.78274 0.3129 0.73169 0.0
O831 O 0.81286 0.31585 0.7891 0.0
O832 O 0.85432 0.27691 0.81262 0.0
O833 O 0.83285 0.25496 0.78187 0.0
O834 O 0.82321 0.30352 0.7425 0.0
O835 O 0.7531 0.29412 0.75757 0.0
C836 C 0.79039 0.27469 0.85234 0.0
C837 C 0.82106 0.41914 0.85946 0.0
C838 C 0.84596 0.41173 0.84008 0.0
C839 C 0.85078 0.29367 0.88884 0.0
C840 C 0.86111 0.307 0.91253 0.0
C841 C 0.8451 0.33266 0.92389 0.0
C842 C 0.88669 0.29434 0.92427 0.0
C843 C 0.89605 0.30766 0.94667 0.0
C844 C 0.85417 0.34574 0.94587 0.0
C845 C 0.87932 0.33343 0.95718 0.0
C846 C 0.76217 0.34079 0.81694 0.0
C847 C 0.82745 0.31878 0.76305 0.0
C848 C 0.75954 0.30804 0.73117 0.0
C849 C 0.75443 0.29964 0.70011 0.0
C850 C 0.77646 0.28782 0.67759 0.0
C851 C 0.7277 0.3036 0.69242 0.0
C852 C 0.7233 0.29533 0.66274 0.0
C853 C 0.77221 0.27985 0.64835 0.0
C854 C 0.74596 0.28352 0.64096 0.0
C855 C 0.85415 0.25616 0.79537 0.0
H856 H 0.82532 0.34262 0.91613 0.0
H857 H 0.89926 0.2745 0.91583 0.0
H858 H 0.8415 0.36549 0.9544 0.0
H859 H 0.88554 0.34399 0.97469 0.0
H860 H 0.79711 0.28493 0.68237 0.0
H861 H 0.71052 0.31268 0.70955 0.0
H862 H 0.7894 0.27084 0.63123 0.0
H863 H 0.74337 0.27734 0.61786 0.0
Gd864 Gd 0.79991 0.82409 0.76701 0.0
Gd865 Gd 0.76117 0.7967 0.83671 0.0
C866 C 0.72938 0.85001 0.92309 0.0
C867 C 0.75574 0.82191 0.96507 0.0
C868 C 0.76146 0.80532 0.91139 0.0
C869 C 0.74256 0.82946 0.90125 0.0
C870 C 0.76766 0.80086 0.94367 0.0
C871 C 0.73665 0.84648 0.95477 0.0
C872 C 0.7087 0.87302 0.91273 0.0
C873 C 0.70095 0.87452 0.88173 0.0
N874 N 0.73585 0.83201 0.87057 0.0
C875 C 0.71455 0.85351 0.861 0.0
H876 H 0.70851 0.85505 0.83702 0.0
C877 C 0.78808 0.75957 0.9002 0.0
N878 N 0.77246 0.78541 0.89012 0.0
C879 C 0.79486 0.75412 0.93201 0.0
C880 C 0.78495 0.77501 0.95372 0.0
H881 H 0.796 0.74353 0.88331 0.0
H882 H 0.72703 0.86222 0.97177 0.0
H883 H 0.85313 0.76628 0.76776 0.0
H884 H 0.69809 0.88928 0.92874 0.0
H885 H 0.68461 0.89194 0.8737 0.0
H886 H 0.76054 0.81906 0.98987 0.0
H887 H 0.76045 0.87504 0.72198 0.0
H888 H 0.87377 0.73949 0.67187 0.0
H889 H 0.88234 0.73359 0.72924 0.0
H890 H 0.80783 0.80572 0.61141 0.0
H891 H 0.80782 0.7339 0.9397 0.0
H892 H 0.79023 0.77074 0.97833 0.0
H893 H 0.84468 0.76526 0.62854 0.0
H894 H 0.74951 0.88483 0.66529 0.0
N895 N 0.82737 0.79012 0.73292 0.0
C896 C 0.86038 0.75356 0.68885 0.0
C897 C 0.86544 0.75031 0.72116 0.0
C898 C 0.83846 0.77521 0.67866 0.0
C899 C 0.82234 0.79367 0.70147 0.0
C900 C 0.84876 0.76897 0.74295 0.0
N901 N 0.78813 0.83507 0.71383 0.0
C902 C 0.80183 0.81661 0.69172 0.0
C903 C 0.76415 0.8655 0.67244 0.0
C904 C 0.77707 0.84605 0.64972 0.0
C905 C 0.77037 0.85993 0.70444 0.0
C906 C 0.7966 0.82153 0.65905 0.0
H907 H 0.7724 0.85054 0.62487 0.0
O908 O 0.8073 0.8646 0.75847 0.0
O909 O 0.77801 0.83124 0.81594 0.0
O910 O 0.73364 0.82077 0.79817 0.0
O911 O 0.76198 0.82056 0.74985 0.0
O912 O 0.77033 0.86486 0.78243 0.0
O913 O 0.84129 0.82723 0.76093 0.0
O914 O 0.75124 0.75745 0.84819 0.0
O915 O 0.78356 0.7893 0.78805 0.0
O916 O 0.82773 0.79999 0.80508 0.0
O917 O 0.80036 0.79725 0.8538 0.0
O918 O 0.78927 0.75522 0.82066 0.0
O919 O 0.71928 0.79594 0.84071 0.0
C920 C 0.76563 0.85688 0.81246 0.0
C921 C 0.81169 0.80243 0.63658 0.0
C922 C 0.83269 0.7794 0.64632 0.0
C923 C 0.83362 0.85432 0.75545 0.0
C924 C 0.84835 0.86644 0.72791 0.0
C925 C 0.84244 0.86634 0.69622 0.0
C926 C 0.8675 0.87965 0.73354 0.0
C927 C 0.8803 0.89335 0.70774 0.0
C928 C 0.85495 0.87973 0.67057 0.0
C929 C 0.87351 0.89337 0.67622 0.0
C930 C 0.73776 0.82294 0.766 0.0
C931 C 0.79519 0.76346 0.79102 0.0
C932 C 0.72516 0.76931 0.84953 0.0
C933 C 0.70871 0.76106 0.87822 0.0
C934 C 0.70552 0.77381 0.90725 0.0
C935 C 0.69632 0.73997 0.87674 0.0
C936 C 0.68099 0.73146 0.90423 0.0
C937 C 0.69046 0.76543 0.93459 0.0
C938 C 0.6783 0.74437 0.93318 0.0
C939 C 0.82428 0.79571 0.83713 0.0
H940 H 0.82788 0.85636 0.69125 0.0
H941 H 0.87233 0.87919 0.75804 0.0
H942 H 0.84996 0.87987 0.64623 0.0
H943 H 0.88219 0.90427 0.65584 0.0
H944 H 0.71453 0.79027 0.90881 0.0
H945 H 0.69886 0.73002 0.85433 0.0
H946 H 0.6881 0.77539 0.9569 0.0
H947 H 0.66637 0.73851 0.9546 0.0
C948 C 0.08797 0.14586 0.37275 0.0
C949 C 0.09405 0.11699 0.38024 0.0
C950 C 0.10714 0.16022 0.37434 0.0
C951 C 0.13277 0.14546 0.38465 0.0
C952 C 0.13917 0.11614 0.39176 0.0
C953 C 0.11983 0.10218 0.38898 0.0
C954 C 0.09972 0.19129 0.36559 0.0
C955 C 0.16597 0.09971 0.40359 0.0
C956 C 0.19019 0.17979 0.37097 0.0
C957 C 0.18773 0.19172 0.40054 0.0
C958 C 0.17238 0.16489 0.3653 0.0
C959 C 0.15204 0.16105 0.39006 0.0
C960 C 0.14957 0.17276 0.41998 0.0
C961 C 0.16702 0.1883 0.42461 0.0
C962 C 0.17524 0.15336 0.33274 0.0
C963 C 0.12842 0.16889 0.44724 0.0
H964 H 0.06811 0.15719 0.36558 0.0
H965 H 0.12438 0.07987 0.39487 0.0
H966 H 0.09828 0.2025 0.38747 0.0
H967 H 0.11575 0.19652 0.34788 0.0
H968 H 0.08004 0.19915 0.35514 0.0
H969 H 0.16828 0.07694 0.40676 0.0
H970 H 0.18301 0.10333 0.38637 0.0
H971 H 0.16765 0.10696 0.42715 0.0
H972 H 0.20624 0.18177 0.35225 0.0
H973 H 0.16421 0.19793 0.44724 0.0
H974 H 0.15581 0.16151 0.32184 0.0
H975 H 0.17986 0.13031 0.33567 0.0
H976 H 0.19153 0.15888 0.31567 0.0
H977 H 0.10782 0.17908 0.43989 0.0
H978 H 0.13024 0.17782 0.4697 0.0
H979 H 0.1303 0.14635 0.45273 0.0
C980 C 0.96423 0.11234 0.30009 0.0
C981 C 0.98794 0.12093 0.29619 0.0
C982 C 0.93843 0.13191 0.29978 0.0
C983 C 0.9362 0.16079 0.29524 0.0
C984 C 0.9601 0.16948 0.28911 0.0
C985 C 0.98562 0.14949 0.28973 0.0
C986 C 0.91352 0.12171 0.30635 0.0
C987 C 0.95868 0.20004 0.28376 0.0
C988 C 0.86891 0.21449 0.27889 0.0
C989 C 0.85954 0.22476 0.30949 0.0
C990 C 0.89358 0.1933 0.27388 0.0
C991 C 0.90909 0.18199 0.30015 0.0
C992 C 0.89909 0.19163 0.33132 0.0
C993 C 0.87448 0.21283 0.33554 0.0
C994 C 0.90352 0.18376 0.24026 0.0
C995 C 0.91472 0.18005 0.36014 0.0
H996 H 0.96567 0.09038 0.30511 0.0
H997 H 1.00375 0.1564 0.28652 0.0
H998 H 0.903 0.12758 0.33057 0.0
H999 H 0.89906 0.13175 0.28835 0.0
H1000 H 0.91859 0.09869 0.30578 0.0
H1001 H 0.97892 0.20325 0.27595 0.0
H1002 H 0.94486 0.21056 0.26522 0.0
H1003 H 0.95029 0.2104 0.30656 0.0
H1004 H 0.85751 0.22383 0.25859 0.0
H1005 H 0.86691 0.22007 0.35933 0.0
H1006 H 0.90891 0.16068 0.24071 0.0
H1007 H 0.92218 0.18989 0.23113 0.0
H1008 H 0.88815 0.19296 0.22302 0.0
H1009 H 0.91897 0.15702 0.36314 0.0
H1010 H 0.90361 0.18896 0.38296 0.0
H1011 H 0.93455 0.18471 0.35612 0.0
C1012 C 0.9618 0.99134 0.34749 0.0
C1013 C 0.9705 0.99198 0.37774 0.0
C1014 C 0.94356 0.9764 0.34389 0.0
C1015 C 0.93335 0.96198 0.37126 0.0
C1016 C 0.94232 0.96207 0.40175 0.0
C1017 C 0.96085 0.97692 0.40458 0.0
C1018 C 0.93463 0.97672 0.31091 0.0
C1019 C 0.93177 0.94708 0.43158 0.0
C1020 C 0.86395 0.95168 0.37025 0.0
C1021 C 0.87044 0.92332 0.36458 0.0
C1022 C 0.88422 0.9644 0.37249 0.0
C1023 C 0.91181 0.94855 0.36844 0.0
C1024 C 0.91863 0.92011 0.36181 0.0
C1025 C 0.89785 0.90779 0.36007 0.0
C1026 C 0.87603 0.99478 0.37958 0.0
C1027 C 0.94785 0.90264 0.35695 0.0
H1028 H 0.96866 1.00309 0.32657 0.0
H1029 H 0.96767 0.9768 0.42795 0.0
H1030 H 0.93722 0.95512 0.30475 0.0
H1031 H 0.91275 0.98813 0.31113 0.0
H1032 H 0.94617 0.98689 0.2916 0.0
H1033 H 0.94169 0.94803 0.45318 0.0
H1034 H 0.90957 0.95655 0.43684 0.0
H1035 H 0.93507 0.92486 0.42739 0.0
H1036 H 0.84288 0.96405 0.37304 0.0
H1037 H 0.90308 0.88584 0.35591 0.0
H1038 H 0.88502 1.00693 0.3598 0.0
H1039 H 0.88397 0.99696 0.40219 0.0
H1040 H 0.85366 1.00412 0.3823 0.0
H1041 H 0.95917 0.91264 0.33726 0.0
H1042 H 0.9498 0.88114 0.35082 0.0
H1043 H 0.95765 0.9013 0.37928 0.0
C1044 C 0.14103 0.99451 0.29365 0.0
C1045 C 0.1139 0.99496 0.30295 0.0
C1046 C 0.16195 0.96915 0.29302 0.0
C1047 C 0.15562 0.94356 0.3015 0.0
C1048 C 0.12816 0.94383 0.3094 0.0
C1049 C 0.1077 0.96946 0.3102 0.0
C1050 C 0.19096 0.96979 0.28445 0.0
C1051 C 0.12044 0.91708 0.31816 0.0
C1052 C 0.21063 0.8762 0.28078 0.0
C1053 C 0.22198 0.86784 0.31017 0.0
C1054 C 0.18862 0.90044 0.27769 0.0
C1055 C 0.17781 0.91677 0.30457 0.0
C1056 C 0.18857 0.90776 0.33457 0.0
C1057 C 0.21027 0.88333 0.33704 0.0
C1058 C 0.17763 0.90911 0.24535 0.0
C1059 C 0.17781 0.92446 0.36388 0.0
H1060 H 0.14607 0.01403 0.28804 0.0
H1061 H 0.0868 0.96951 0.31718 0.0
H1062 H 0.20272 0.96095 0.30534 0.0
H1063 H 0.20058 0.95662 0.26403 0.0
H1064 H 0.19252 0.99126 0.27757 0.0
H1065 H 0.09811 0.92064 0.32094 0.0
H1066 H 0.12976 0.9021 0.29934 0.0
H1067 H 0.12834 0.90715 0.34126 0.0
H1068 H 0.2197 0.86453 0.25977 0.0
H1069 H 0.21845 0.87664 0.35998 0.0
H1070 H 0.18256 0.92848 0.23491 0.0
H1071 H 0.1552 0.91378 0.2483 0.0
H1072 H 0.18627 0.89276 0.22789 0.0
H1073 H 0.18072 0.94555 0.35867 0.0
H1074 H 0.18809 0.91436 0.38556 0.0
H1075 H 0.15571 0.92728 0.3696 0.0
C1076 C 0.155 0.99609 0.80385 0.0
C1077 C 0.12869 0.99343 0.80509 0.0
C1078 C 0.17754 0.97258 0.80747 0.0
C1079 C 0.1738 0.94564 0.8127 0.0
C1080 C 0.14718 0.94287 0.81563 0.0
C1081 C 0.12497 0.96676 0.81174 0.0
C1082 C 0.20553 0.9765 0.80429 0.0
C1083 C 0.14225 0.91456 0.82181 0.0
C1084 C 0.23175 0.88312 0.78479 0.0
C1085 C 0.2422 0.87121 0.81389 0.0
C1086 C 0.20977 0.9075 0.78403 0.0
C1087 C 0.19784 0.92029 0.81315 0.0
C1088 C 0.20869 0.90861 0.84255 0.0
C1089 C 0.23067 0.88418 0.84254 0.0
C1090 C 0.19894 0.91924 0.75211 0.0
C1091 C 0.1965 0.92127 0.87421 0.0
H1092 H 0.15822 0.01653 0.79879 0.0
H1093 H 0.10478 0.96439 0.81281 0.0
H1094 H 0.21627 0.96591 0.82544 0.0
H1095 H 0.21765 0.96678 0.78242 0.0
H1096 H 0.20491 0.99888 0.80234 0.0
H1097 H 0.12032 0.91596 0.8245 0.0
H1098 H 0.15258 0.90142 0.80154 0.0
H1099 H 0.15103 0.90376 0.84411 0.0
H1100 H 0.24061 0.87316 0.7626 0.0
H1101 H 0.2379 0.87448 0.86527 0.0
H1102 H 0.19912 0.94132 0.74731 0.0
H1103 H 0.17757 0.91893 0.75315 0.0
H1104 H 0.21093 0.90727 0.73156 0.0
H1105 H 0.19441 0.94397 0.87201 0.0
H1106 H 0.20888 0.9113 0.89432 0.0
H1107 H 0.17585 0.91879 0.88059 0.0
C1108 C 0.14207 0.10366 0.70492 0.0
C1109 C 0.11409 0.10936 0.71388 0.0
C1110 C 0.15596 0.12271 0.70944 0.0
C1111 C 0.14146 0.14832 0.72285 0.0
C1112 C 0.113 0.15477 0.73063 0.0
C1113 C 0.09967 0.13506 0.7263 0.0
C1114 C 0.18639 0.11489 0.70106 0.0
C1115 C 0.09678 0.18207 0.74431 0.0
C1116 C 0.18704 0.17693 0.76394 0.0
C1117 C 0.19613 0.19339 0.73832 0.0
C1118 C 0.16753 0.16366 0.76008 0.0
C1119 C 0.15665 0.1674 0.73005 0.0
C1120 C 0.16379 0.18631 0.7053 0.0
C1121 C 0.18375 0.19884 0.7096 0.0
C1122 C 0.16062 0.14352 0.787 0.0
C1123 C 0.15212 0.19147 0.67329 0.0
H1124 H 0.15335 0.08368 0.69578 0.0
H1125 H 0.07799 0.13956 0.733 0.0
H1126 H 0.19205 0.13105 0.6837 0.0
H1127 H 0.19639 0.11387 0.72319 0.0
H1128 H 0.19452 0.09442 0.69027 0.0
H1129 H 0.07457 0.18513 0.74583 0.0
H1130 H 0.10216 0.18267 0.76895 0.0
H1131 H 0.10174 0.19981 0.7292 0.0
H1132 H 0.19686 0.17252 0.78601 0.0
H1133 H 0.19083 0.21165 0.68982 0.0
H1134 H 0.1701 0.12182 0.77998 0.0
H1135 H 0.13839 0.14678 0.79121 0.0
H1136 H 0.16801 0.14566 0.81005 0.0
H1137 H 0.16176 0.17324 0.65869 0.0
H1138 H 0.15571 0.21033 0.65923 0.0
H1139 H 0.12998 0.19398 0.67696 0.0
C1140 C 0.98415 0.1322 0.74442 0.0
C1141 C 0.99192 0.11053 0.76849 0.0
C1142 C 0.96294 0.15643 0.75093 0.0
C1143 C 0.94871 0.15914 0.78228 0.0
C1144 C 0.95672 0.13763 0.80698 0.0
C1145 C 0.97841 0.11363 0.79986 0.0
C1146 C 0.9553 0.17885 0.72389 0.0
C1147 C 0.94185 0.13961 0.84062 0.0
C1148 C 0.90383 0.2324 0.80039 0.0
C1149 C 0.87863 0.23155 0.79264 0.0
C1150 C 0.92673 0.20877 0.79805 0.0
C1151 C 0.92429 0.18362 0.78815 0.0
C1152 C 0.89874 0.1825 0.78115 0.0
C1153 C 0.87641 0.2064 0.78328 0.0
C1154 C 0.95367 0.21092 0.80542 0.0
C1155 C 0.895 0.15617 0.77078 0.0
H1156 H 0.99465 0.13023 0.72018 0.0
H1157 H 0.9843 0.09702 0.81858 0.0
H1158 H 0.93458 0.18064 0.71813 0.0
H1159 H 0.95498 0.19938 0.73156 0.0
H1160 H 0.96954 0.17443 0.70149 0.0
H1161 H 0.95148 0.12199 0.85758 0.0
H1162 H 0.94113 0.15951 0.85033 0.0
H1163 H 0.92057 0.13967 0.83975 0.0
H1164 H 0.90578 0.25162 0.80784 0.0
H1165 H 0.85704 0.2052 0.77778 0.0
H1166 H 0.96818 0.20831 0.78313 0.0
H1167 H 0.96241 0.19395 0.82354 0.0
H1168 H 0.95189 0.2313 0.81475 0.0
H1169 H 0.87342 0.15817 0.76845 0.0
H1170 H 0.90258 0.13836 0.78849 0.0
H1171 H 0.907 0.15104 0.74708 0.0
C1172 C 1.00348 0.94701 0.74231 0.0
C1173 C 1.00006 0.97514 0.73184 0.0
C1174 C 0.98293 0.93443 0.74108 0.0
C1175 C 0.95864 0.95018 0.7282 0.0
C1176 C 0.95486 0.97883 0.71823 0.0
C1177 C 0.97554 0.99108 0.7206 0.0
C1178 C 0.98751 0.90407 0.75281 0.0
C1179 C 0.92953 0.99617 0.7037 0.0
C1180 C 0.92255 0.90819 0.69012 0.0
C1181 C 0.90043 0.90782 0.71341 0.0
C1182 C 0.94114 0.92249 0.69433 0.0
C1183 C 0.93819 0.93609 0.72305 0.0
C1184 C 0.91628 0.93545 0.74699 0.0
C1185 C 0.89749 0.92164 0.74173 0.0
C1186 C 0.96404 0.92294 0.668 0.0
C1187 C 0.91282 0.94916 0.77827 0.0
H1188 H 1.02238 0.93486 0.75141 0.0
H1189 H 0.97308 0.0128 0.71241 0.0
H1190 H 0.97004 0.9014 0.76998 0.0
H1191 H 0.98906 0.89151 0.73205 0.0
H1192 H 1.00632 0.89557 0.76497 0.0
H1193 H 0.92907 0.01845 0.69877 0.0
H1194 H 0.92837 0.98779 0.68063 0.0
H1195 H 0.91121 0.99493 0.72012 0.0
H1196 H 0.92556 0.89709 0.66851 0.0
H1197 H 0.88033 0.92197 0.75972 0.0
H1198 H 0.98379 0.91196 0.67724 0.0
H1199 H 0.9641 0.94479 0.66058 0.0
H1200 H 0.96252 0.91282 0.64628 0.0
H1201 H 0.93126 0.94028 0.791 0.0
H1202 H 0.89498 0.94636 0.79471 0.0
H1203 H 0.91036 0.97183 0.77317 0.0
C1204 C 0.33296 0.13149 0.19674 0.0
C1205 C 0.35357 0.12829 0.17075 0.0
C1206 C 0.32783 0.15315 0.21752 0.0
C1207 C 0.34366 0.17215 0.21235 0.0
C1208 C 0.36443 0.16902 0.18616 0.0
C1209 C 0.36904 0.14732 0.1657 0.0
C1210 C 0.30552 0.15559 0.24519 0.0
C1211 C 0.38157 0.18889 0.17934 0.0
C1212 C 0.31338 0.2416 0.25092 0.0
C1213 C 0.32649 0.23689 0.2791 0.0
C1214 C 0.31946 0.2212 0.22841 0.0
C1215 C 0.33864 0.19502 0.23458 0.0
C1216 C 0.35225 0.1903 0.26277 0.0
C1217 C 0.34596 0.21124 0.28468 0.0
C1218 C 0.30471 0.22745 0.19851 0.0
C1219 C 0.37299 0.16284 0.27022 0.0
H1220 H 0.32104 0.11684 0.20113 0.0
H1221 H 0.3846 0.14556 0.14537 0.0
H1222 H 0.31408 0.1538 0.26852 0.0
H1223 H 0.29038 0.17641 0.24311 0.0
H1224 H 0.29492 0.1393 0.24588 0.0
H1225 H 0.39883 0.18187 0.16043 0.0
H1226 H 0.36875 0.20967 0.17095 0.0
H1227 H 0.38971 0.19132 0.2017 0.0
H1228 H 0.29783 0.26095 0.24672 0.0
H1229 H 0.35593 0.20736 0.30661 0.0
H1230 H 0.29149 0.21359 0.19942 0.0
H1231 H 0.31945 0.2232 0.17655 0.0
H1232 H 0.29196 0.24949 0.19608 0.0
H1233 H 0.36321 0.14574 0.27341 0.0
H1234 H 0.38251 0.16281 0.29247 0.0
H1235 H 0.38917 0.15816 0.24967 0.0
C1236 C 0.95449 0.3538 0.19717 0.0
C1237 C 0.96669 0.3373 0.1712 0.0
C1238 C 0.92999 0.35166 0.21477 0.0
C1239 C 0.91711 0.33264 0.20624 0.0
C1240 C 0.9293 0.31598 0.17992 0.0
C1241 C 0.95395 0.3184 0.1629 0.0
C1242 C 0.91842 0.36923 0.24312 0.0
C1243 C 0.91617 0.29577 0.16951 0.0
C1244 C 0.86528 0.30724 0.26589 0.0
C1245 C 0.84053 0.32441 0.25608 0.0
C1246 C 0.89027 0.31033 0.25078 0.0
C1247 C 0.89069 0.33045 0.22431 0.0
C1248 C 0.86573 0.34788 0.21436 0.0
C1249 C 0.84104 0.34468 0.23037 0.0
C1250 C 0.91622 0.29171 0.26285 0.0
C1251 C 0.86513 0.36961 0.18635 0.0
H1252 H 0.96441 0.36806 0.20419 0.0
H1253 H 0.96308 0.30576 0.1427 0.0
H1254 H 0.89621 0.37868 0.24308 0.0
H1255 H 0.92203 0.35564 0.26576 0.0
H1256 H 0.92806 0.38618 0.24328 0.0
H1257 H 0.92815 0.28436 0.14856 0.0
H1258 H 0.91374 0.28032 0.18989 0.0
H1259 H 0.89558 0.30717 0.1628 0.0
H1260 H 0.86521 0.29108 0.28516 0.0
H1261 H 0.82201 0.35781 0.22241 0.0
H1262 H 0.92899 0.30453 0.26816 0.0
H1263 H 0.92799 0.27782 0.24382 0.0
H1264 H 0.91238 0.27856 0.28508 0.0
H1265 H 0.87609 0.38435 0.19122 0.0
H1266 H 0.84411 0.38169 0.18174 0.0
H1267 H 0.87572 0.35939 0.16408 0.0
C1268 C 0.83192 0.92162 0.11177 0.0
C1269 C 0.81102 0.93942 0.095 0.0
C1270 C 0.82619 0.90424 0.13867 0.0
C1271 C 0.79891 0.90478 0.14896 0.0
C1272 C 0.77773 0.92278 0.13226 0.0
C1273 C 0.78405 0.93979 0.10542 0.0
C1274 C 0.84931 0.88515 0.15595 0.0
C1275 C 0.74843 0.9237 0.1424 0.0
C1276 C 0.78991 0.83924 0.19621 0.0
C1277 C 0.787 0.84645 0.22828 0.0
C1278 C 0.79279 0.85839 0.17014 0.0
C1279 C 0.79271 0.88549 0.17624 0.0
C1280 C 0.78801 0.89357 0.20838 0.0
C1281 C 0.78506 0.87394 0.2341 0.0
C1282 C 0.79742 0.8491 0.13614 0.0
C1283 C 0.78762 0.92243 0.21568 0.0
H1284 H 0.85273 0.92147 0.10402 0.0
H1285 H 0.7678 0.953 0.09221 0.0
H1286 H 0.84655 0.88987 0.1817 0.0
H1287 H 0.84938 0.86311 0.15557 0.0
H1288 H 0.86938 0.88719 0.14485 0.0
H1289 H 0.73426 0.93986 0.12776 0.0
H1290 H 0.74553 0.9031 0.1398 0.0
H1291 H 0.74292 0.92802 0.16827 0.0
H1292 H 0.79142 0.81813 0.1913 0.0
H1293 H 0.78265 0.87981 0.25872 0.0
H1294 H 0.81801 0.84934 0.12503 0.0
H1295 H 0.78264 0.86374 0.12092 0.0
H1296 H 0.79555 0.82772 0.13553 0.0
H1297 H 0.80814 0.92518 0.20904 0.0
H1298 H 0.78145 0.92616 0.24168 0.0
H1299 H 0.77351 0.93854 0.201 0.0
C1300 C 0.1069 0.74739 0.12025 0.0
C1301 C 0.11209 0.72556 0.0998 0.0
C1302 C 0.12787 0.75246 0.13437 0.0
C1303 C 0.15466 0.73486 0.12864 0.0
C1304 C 0.15968 0.71137 0.11042 0.0
C1305 C 0.13841 0.7071 0.09605 0.0
C1306 C 0.12162 0.7778 0.15354 0.0
C1307 C 0.18788 0.69172 0.10433 0.0
C1308 C 0.21366 0.76554 0.12417 0.0
C1309 C 0.22331 0.75626 0.1543 0.0
C1310 C 0.19091 0.75929 0.11597 0.0
C1311 C 0.17782 0.74285 0.13824 0.0
C1312 C 0.1873 0.73372 0.16895 0.0
C1313 C 0.20985 0.7408 0.17676 0.0
C1314 C 0.18117 0.76995 0.08323 0.0
C1315 C 0.17419 0.71576 0.19307 0.0
H1316 H 0.08656 0.76131 0.12425 0.0
H1317 H 0.14288 0.69012 0.08049 0.0
H1318 H 0.13084 0.77224 0.17666 0.0
H1319 H 0.13057 0.79356 0.13953 0.0
H1320 H 0.09944 0.78751 0.15893 0.0
H1321 H 0.18776 0.67242 0.0938 0.0
H1322 H 0.20062 0.70233 0.08726 0.0
H1323 H 0.19758 0.6858 0.12714 0.0
H1324 H 0.22409 0.7776 0.10691 0.0
H1325 H 0.21755 0.73346 0.19995 0.0
H1326 H 0.15935 0.78183 0.08612 0.0
H1327 H 0.18325 0.7521 0.0687 0.0
H1328 H 0.19273 0.78367 0.06945 0.0
H1329 H 0.15207 0.72589 0.19764 0.0
H1330 H 0.18305 0.71164 0.21649 0.0
H1331 H 0.17682 0.6955 0.183 0.0
C1332 C 0.35625 0.9641 1.01499 0.0
C1333 C 0.36739 0.95947 0.04455 0.0
C1334 C 0.34882 0.94298 1.00239 0.0
C1335 C 0.35238 0.91665 0.01994 0.0
C1336 C 0.36436 0.91159 0.04933 0.0
C1337 C 0.37179 0.93301 0.06121 0.0
C1338 C 0.33627 0.94916 0.97088 0.0
C1339 C 0.36826 0.88393 0.069 0.0
C1340 C 0.30617 0.87252 1.01057 0.0
C1341 C 0.32332 0.85159 0.99149 0.0
C1342 C 0.31522 0.89407 0.01942 0.0
C1343 C 0.34205 0.89494 1.00875 0.0
C1344 C 0.35918 0.87448 0.98856 0.0
C1345 C 0.34964 0.85303 0.98022 0.0
C1346 C 0.29624 0.91554 0.04087 0.0
C1347 C 0.38786 0.87476 0.97658 0.0
H1348 H 0.35293 0.98447 1.00201 0.0
H1349 H 0.3799 0.92939 0.08434 0.0
H1350 H 0.34698 0.93285 0.95398 0.0
H1351 H 0.31481 0.94883 0.9754 0.0
H1352 H 0.33685 0.96985 0.95895 0.0
H1353 H 0.37937 0.88275 0.09027 0.0
H1354 H 0.34819 0.88068 0.07776 0.0
H1355 H 0.37961 0.86658 0.05374 0.0
H1356 H 0.28563 0.87193 0.01885 0.0
H1357 H 0.36313 0.83687 0.96572 0.0
H1358 H 0.29425 0.93686 0.02925 0.0
H1359 H 0.30469 0.91436 0.06415 0.0
H1360 H 0.27569 0.91253 0.04612 0.0
H1361 H 0.38799 0.8955 0.96452 0.0
H1362 H 0.39796 0.85855 0.9593 0.0
H1363 H 0.39996 0.87109 0.9974 0.0
C1364 C 0.1503 0.32872 1.00304 0.0
C1365 C 0.12737 0.32144 0.9976 0.0
C1366 C 0.17274 0.32575 0.97931 0.0
C1367 C 0.17264 0.31447 0.94967 0.0
C1368 C 0.14983 0.30598 0.94476 0.0
C1369 C 0.12731 0.31004 0.9685 0.0
C1370 C 0.19589 0.33596 0.98549 0.0
C1371 C 0.14915 0.29264 0.91437 0.0
C1372 C 0.21312 0.32952 0.87007 0.0
C1373 C 0.236 0.30619 0.86923 0.0
C1374 C 0.19348 0.33346 0.89721 0.0
C1375 C 0.19564 0.31252 0.92318 0.0
C1376 C 0.21881 0.28881 0.92235 0.0
C1377 C 0.23896 0.28627 0.89573 0.0
C1378 C 0.17012 0.35985 0.89778 0.0
C1379 C 0.22171 0.26541 0.9487 0.0
H1380 H 0.1502 0.33765 0.02551 0.0
H1381 H 0.10969 0.304 0.96454 0.0
H1382 H 0.21554 0.32039 0.97895 0.0
H1383 H 0.19521 0.35549 0.97009 0.0
H1384 H 0.19479 0.34042 1.01115 0.0
H1385 H 0.13125 0.28463 0.9157 0.0
H1386 H 0.14853 0.3081 0.89323 0.0
H1387 H 0.16785 0.2751 0.90999 0.0
H1388 H 0.21066 0.34479 0.84948 0.0
H1389 H 0.25639 0.26792 0.89492 0.0
H1390 H 0.16735 0.36917 0.92132 0.0
H1391 H 0.15109 0.35496 0.89513 0.0
H1392 H 0.1733 0.3756 0.87803 0.0
H1393 H 0.24099 0.2485 0.94451 0.0
H1394 H 0.2045 0.25636 0.95003 0.0
H1395 H 0.22097 0.27346 0.97254 0.0
C1396 C 0.79354 0.11679 0.91543 0.0
C1397 C 0.81524 0.10669 0.93439 0.0
C1398 C 0.78658 0.14437 0.90186 0.0
C1399 C 0.8018 0.16224 0.90723 0.0
C1400 C 0.82388 0.15215 0.9261 0.0
C1401 C 0.83034 0.12447 0.93947 0.0
C1402 C 0.76351 0.1541 0.88098 0.0
C1403 C 0.84077 0.17057 0.93204 0.0
C1404 C 0.80704 0.2231 0.84816 0.0
C1405 C 0.78998 0.24598 0.86424 0.0
C1406 C 0.80977 0.19571 0.86093 0.0
C1407 C 0.7959 0.19096 0.89144 0.0
C1408 C 0.77803 0.21381 0.90767 0.0
C1409 C 0.77526 0.24114 0.89381 0.0
C1410 C 0.82878 0.17209 0.84237 0.0
C1411 C 0.76275 0.20942 0.94021 0.0
H1412 H 0.78209 0.10298 0.91102 0.0
H1413 H 0.84686 0.11695 0.95445 0.0
H1414 H 0.74973 0.17462 0.88791 0.0
H1415 H 0.77185 0.15684 0.85538 0.0
H1416 H 0.75149 0.13896 0.88264 0.0
H1417 H 0.8565 0.15991 0.94842 0.0
H1418 H 0.85099 0.177 0.9087 0.0
H1419 H 0.82754 0.18985 0.9428 0.0
H1420 H 0.81897 0.22637 0.82587 0.0
H1421 H 0.76227 0.25877 0.90655 0.0
H1422 H 0.8209 0.15368 0.84466 0.0
H1423 H 0.84872 0.16557 0.85218 0.0
H1424 H 0.83209 0.17852 0.81625 0.0
H1425 H 0.7514 0.19409 0.93907 0.0
H1426 H 0.74826 0.22914 0.9486 0.0
H1427 H 0.77734 0.20066 0.95842 0.0
C1428 C 0.95429 0.73644 0.93623 0.0
C1429 C 0.96353 0.75762 0.94568 0.0
C1430 C 0.93155 0.74274 0.91886 0.0
C1431 C 0.91789 0.77094 0.9101 0.0
C1432 C 0.92714 0.79245 0.91956 0.0
C1433 C 0.94966 0.78554 0.93748 0.0
C1434 C 0.9221 0.71916 0.90994 0.0
C1435 C 0.91348 0.82275 0.91035 0.0
C1436 C 0.87473 0.78474 0.83953 0.0
C1437 C 0.84836 0.7895 0.85557 0.0
C1438 C 0.89745 0.7791 0.8569 0.0
C1439 C 0.89388 0.77785 0.89121 0.0
C1440 C 0.86732 0.78284 0.90749 0.0
C1441 C 0.84499 0.7889 0.88953 0.0
C1442 C 0.92533 0.77445 0.8385 0.0
C1443 C 0.86246 0.7815 0.94398 0.0
H1444 H 0.96474 0.71486 0.94278 0.0
H1445 H 0.95688 0.80199 0.94433 0.0
H1446 H 0.90061 0.72191 0.91989 0.0
H1447 H 0.92304 0.71946 0.88325 0.0
H1448 H 0.93453 0.6984 0.91915 0.0
H1449 H 0.92319 0.83699 0.91937 0.0
H1450 H 0.91418 0.82631 0.88363 0.0
H1451 H 0.89178 0.82834 0.92024 0.0
H1452 H 0.87769 0.7854 0.81333 0.0
H1453 H 0.82479 0.79335 0.90227 0.0
H1454 H 0.92465 0.77712 0.81188 0.0
H1455 H 0.93816 0.75307 0.84486 0.0
H1456 H 0.93534 0.78929 0.84545 0.0
H1457 H 0.8729 0.76027 0.95407 0.0
H1458 H 0.84054 0.78646 0.95296 0.0
H1459 H 0.87112 0.79634 0.95347 0.0
C1460 C 0.1572 0.26243 0.17167 0.0
C1461 C 0.13518 0.2849 0.16279 0.0
C1462 C 0.17579 0.26575 0.1916 0.0
C1463 C 0.17281 0.29235 0.20255 0.0
C1464 C 0.15058 0.31507 0.19374 0.0
C1465 C 0.13199 0.31103 0.17436 0.0
C1466 C 0.19877 0.24076 0.2008 0.0
C1467 C 0.1468 0.34391 0.20414 0.0
C1468 C 0.20904 0.29859 0.27453 0.0
C1469 C 0.23274 0.3045 0.25915 0.0
C1470 C 0.18956 0.29436 0.25657 0.0
C1471 C 0.19341 0.29662 0.22222 0.0
C1472 C 0.21713 0.30286 0.2066 0.0
C1473 C 0.23655 0.30625 0.22513 0.0
C1474 C 0.16504 0.287 0.2744 0.0
C1475 C 0.22216 0.30586 0.17015 0.0
H1476 H 0.1599 0.24212 0.16308 0.0
H1477 H 0.11525 0.32864 0.16756 0.0
H1478 H 0.21849 0.2442 0.19065 0.0
H1479 H 0.19867 0.23794 0.2275 0.0
H1480 H 0.19749 0.22122 0.1919 0.0
H1481 H 0.1284 0.35937 0.19563 0.0
H1482 H 0.14518 0.34343 0.23091 0.0
H1483 H 0.16477 0.35109 0.19446 0.0
H1484 H 0.20587 0.2967 0.30073 0.0
H1485 H 0.25494 0.30998 0.21273 0.0
H1486 H 0.16428 0.26673 0.26706 0.0
H1487 H 0.14623 0.30296 0.26791 0.0
H1488 H 0.16517 0.28549 0.30109 0.0
H1489 H 0.22403 0.28581 0.16005 0.0
H1490 H 0.2409 0.31209 0.16167 0.0
H1491 H 0.20471 0.32172 0.16018 0.0
C1492 C 0.10575 0.78537 0.94426 0.0
C1493 C 0.10234 0.79616 0.97471 0.0
C1494 C 0.12934 0.7843 0.92226 0.0
C1495 C 0.15025 0.79443 0.93045 0.0
C1496 C 0.14641 0.8062 0.9607 0.0
C1497 C 0.12284 0.80675 0.98231 0.0
C1498 C 0.13231 0.77139 0.89065 0.0
C1499 C 0.16759 0.81777 0.97065 0.0
C1500 C 0.2253 0.76933 0.89557 0.0
C1501 C 0.22819 0.79157 0.87339 0.0
C1502 C 0.1998 0.76909 0.9125 0.0
C1503 C 0.17646 0.79215 0.90824 0.0
C1504 C 0.17919 0.81424 0.88497 0.0
C1505 C 0.20491 0.81381 0.86827 0.0
C1506 C 0.19822 0.74473 0.93634 0.0
C1507 C 0.15537 0.83938 0.87912 0.0
H1508 H 0.0904 0.77678 0.93802 0.0
H1509 H 0.1207 0.81514 1.00563 0.0
H1510 H 0.13755 0.78557 0.87026 0.0
H1511 H 0.14916 0.75171 0.89071 0.0
H1512 H 0.11354 0.76661 0.88641 0.0
H1513 H 0.16118 0.82736 0.99421 0.0
H1514 H 0.18683 0.80084 0.97265 0.0
H1515 H 0.1719 0.83376 0.95193 0.0
H1516 H 0.24329 0.75268 0.90092 0.0
H1517 H 0.20703 0.83159 0.8521 0.0
H1518 H 0.18072 0.73737 0.93287 0.0
H1519 H 0.19501 0.75142 0.96134 0.0
H1520 H 0.21701 0.72698 0.93393 0.0
H1521 H 0.13654 0.83326 0.87914 0.0
H1522 H 0.15901 0.85116 0.85572 0.0
H1523 H 0.15203 0.85351 0.89884 0.0
C1524 C 0.29139 0.14974 0.03061 0.0
C1525 C 0.30491 0.12103 0.0312 0.0
C1526 C 0.2916 0.16715 1.00185 0.0
C1527 C 0.30599 0.15576 0.97284 0.0
C1528 C 0.31895 0.12664 0.97303 0.0
C1529 C 0.3181 0.10963 1.00208 0.0
C1530 C 0.27702 0.19794 1.00271 0.0
C1531 C 0.33469 0.11361 0.94281 0.0
C1532 C 0.2913 0.19977 0.8932 0.0
C1533 C 0.31158 0.21349 0.88885 0.0
C1534 C 0.28948 0.18058 0.92002 0.0
C1535 C 0.30863 0.17459 0.9429 0.0
C1536 C 0.32977 0.1876 0.93786 0.0
C1537 C 0.33088 0.20696 0.91108 0.0
C1538 C 0.26634 0.16766 0.92461 0.0
C1539 C 0.35085 0.18168 0.96129 0.0
H1540 H 0.28106 0.1588 0.05287 0.0
H1541 H 0.32879 0.08755 1.0022 0.0
H1542 H 0.29186 0.21018 0.99702 0.0
H1543 H 0.26265 0.2045 0.98403 0.0
H1544 H 0.26557 0.20333 0.02669 0.0
H1545 H 0.34231 0.09051 0.94638 0.0
H1546 H 0.3218 0.11912 0.92261 0.0
H1547 H 0.35227 0.122 0.93538 0.0
H1548 H 0.27603 0.20501 0.87643 0.0
H1549 H 0.34676 0.21724 0.9077 0.0
H1550 H 0.25253 0.17543 0.94639 0.0
H1551 H 0.27408 0.14465 0.9287 0.0
H1552 H 0.25442 0.1727 0.90347 0.0
H1553 H 0.34101 0.18912 0.9852 0.0
H1554 H 0.36696 0.19203 0.95286 0.0
H1555 H 0.36045 0.15886 0.96486 0.0
C1556 C 0.04118 0.25433 0.01935 0.0
C1557 C 0.03671 0.26167 0.05155 0.0
C1558 C 1.0194 0.25704 1.00123 0.0
C1559 C 0.99233 0.26759 1.01543 0.0
C1560 C 0.98768 0.27318 0.04858 0.0
C1561 C 1.00984 0.27004 0.06623 0.0
C1562 C 0.02546 0.25035 0.96621 0.0
C1563 C 0.95927 0.28448 0.06489 0.0
C1564 C 0.93911 0.31288 0.96251 0.0
C1565 C 0.92284 0.29549 0.95998 0.0
C1566 C 0.96198 0.30378 0.97974 0.0
C1567 C 0.96924 0.27634 0.99476 0.0
C1568 C 0.95379 0.25809 0.99087 0.0
C1569 C 0.93076 0.26788 0.97356 0.0
C1570 C 0.97779 0.32401 0.9829 0.0
C1571 C 0.96095 0.2286 1.00609 0.0
H1572 H 0.06177 0.24768 1.00769 0.0
H1573 H 1.00597 0.27579 0.09102 0.0
H1574 H 1.01226 0.23819 0.96039 0.0
H1575 H 1.02118 0.27005 0.95048 0.0
H1576 H 0.04701 0.23835 0.96021 0.0
H1577 H 0.95883 0.28392 0.09157 0.0
H1578 H 0.95071 0.30646 0.05558 0.0
H1579 H 0.94589 0.27244 0.0593 0.0
H1580 H 0.93341 0.33412 0.95171 0.0
H1581 H 0.91828 0.25432 0.97194 0.0
H1582 H 0.99951 0.31497 0.97425 0.0
H1583 H 0.97664 0.32792 1.00874 0.0
H1584 H 0.97004 0.34433 0.96898 0.0
H1585 H 0.98283 0.21797 1.00001 0.0
H1586 H 0.94885 0.21616 0.9981 0.0
H1587 H 0.95718 0.22896 0.03281 0.0
C1588 C 0.79233 0.97009 0.90483 0.0
C1589 C 0.77697 0.97816 0.93429 0.0
C1590 C 0.78673 0.95099 0.88673 0.0
C1591 C 0.76517 0.93943 0.89826 0.0
C1592 C 0.74883 0.94824 0.92738 0.0
C1593 C 0.75488 0.96761 0.94507 0.0
C1594 C 0.80463 0.94243 0.85575 0.0
C1595 C 0.72571 0.93638 0.94048 0.0
C1596 C 0.74582 0.90444 0.83274 0.0
C1597 C 0.76189 0.8768 0.83758 0.0
C1598 C 0.74502 0.92473 0.8538 0.0
C1599 C 0.76094 0.91728 0.88014 0.0
C1600 C 0.77612 0.88905 0.88602 0.0
C1601 C 0.77669 0.86929 0.86445 0.0
C1602 C 0.72844 0.95448 0.84667 0.0
C1603 C 0.79315 0.87992 0.91396 0.0
H1604 H 0.80933 0.97826 0.89616 0.0
H1605 H 0.74306 0.97355 0.96793 0.0
H1606 H 0.81561 0.91985 0.85824 0.0
H1607 H 0.7921 0.94575 0.8354 0.0
H1608 H 0.81982 0.95426 0.84941 0.0
H1609 H 0.71315 0.94747 0.96134 0.0
H1610 H 0.71251 0.93754 0.9213 0.0
H1611 H 0.73391 0.91401 0.94846 0.0
H1612 H 0.73447 0.91037 0.81187 0.0
H1613 H 0.78956 0.84817 0.86809 0.0
H1614 H 0.74222 0.9674 0.83735 0.0
H1615 H 0.71654 0.96338 0.86907 0.0
H1616 H 0.71429 0.95615 0.82835 0.0
H1617 H 0.81098 0.88819 0.90906 0.0
H1618 H 0.80054 0.85681 0.91788 0.0
H1619 H 0.78135 0.88844 0.93659 0.0
C1620 C 0.96236 0.79845 0.11522 0.0
C1621 C 0.97203 0.77303 0.10037 0.0
C1622 C 0.94244 0.80184 0.14271 0.0
C1623 C 0.932 0.77931 0.15602 0.0
C1624 C 0.94156 0.75394 0.14068 0.0
C1625 C 0.96094 0.75126 0.11335 0.0
C1626 C 0.93275 0.82945 0.15779 0.0
C1627 C 0.93113 0.72936 0.15282 0.0
C1628 C 0.90381 0.77315 0.2458 0.0
C1629 C 0.8756 0.78057 0.24474 0.0
C1630 C 0.92209 0.77329 0.21745 0.0
C1631 C 0.91224 0.78132 0.18671 0.0
C1632 C 0.8837 0.78893 0.18547 0.0
C1633 C 0.86586 0.78865 0.21431 0.0
C1634 C 0.95216 0.76427 0.22039 0.0
C1635 C 0.87189 0.79722 0.15361 0.0
H1636 H 0.97049 0.81555 0.10564 0.0
H1637 H 0.96763 0.73152 0.10226 0.0
H1638 H 0.91028 0.8373 0.15942 0.0
H1639 H 0.93847 0.82666 0.18282 0.0
H1640 H 0.94146 0.84543 0.14383 0.0
H1641 H 0.94353 0.70984 0.1418 0.0
H1642 H 0.9307 0.72572 0.1795 0.0
H1643 H 0.91013 0.73396 0.14647 0.0
H1644 H 0.91169 0.76717 0.26907 0.0
H1645 H 0.84424 0.79512 0.21291 0.0
H1646 H 0.96139 0.78073 0.20895 0.0
H1647 H 0.96203 0.74515 0.20733 0.0
H1648 H 0.95668 0.75983 0.24597 0.0
H1649 H 0.88015 0.81352 0.13974 0.0
H1650 H 0.84939 0.80513 0.15685 0.0
H1651 H 0.87775 0.77889 0.13886 0.0
C1652 C 0.28879 0.97467 0.14712 0.0
C1653 C 0.30022 0.99534 0.15348 0.0
C1654 C 0.29011 0.95064 0.16834 0.0
C1655 C 0.30345 0.94683 0.19666 0.0
C1656 C 0.31411 0.96812 0.20384 0.0
C1657 C 0.31219 0.99214 0.18238 0.0
C1658 C 0.27825 0.92872 0.15967 0.0
C1659 C 0.32843 0.96509 0.23363 0.0
C1660 C 0.29177 0.88899 0.25946 0.0
C1661 C 0.31395 0.8662 0.25062 0.0
C1662 C 0.28865 0.91566 0.24321 0.0
C1663 C 0.30799 0.91966 0.21711 0.0
C1664 C 0.33093 0.89687 0.20896 0.0
C1665 C 0.33351 0.87048 0.22563 0.0
C1666 C 0.26394 0.93916 0.253 0.0
C1667 C 0.35232 0.90007 0.18172 0.0
H1668 H 0.27949 0.97681 0.12493 0.0
H1669 H 0.32121 0.00783 0.18758 0.0
H1670 H 0.2948 0.90945 0.15418 0.0
H1671 H 0.26459 0.92322 0.18043 0.0
H1672 H 0.26666 0.93574 0.13831 0.0
H1673 H 0.33678 0.98279 0.23508 0.0
H1674 H 0.31401 0.96392 0.25548 0.0
H1675 H 0.34528 0.9454 0.23393 0.0
H1676 H 0.2763 0.88581 0.27836 0.0
H1677 H 0.35061 0.85291 0.21856 0.0
H1678 H 0.25009 0.94428 0.23378 0.0
H1679 H 0.26976 0.95823 0.25572 0.0
H1680 H 0.25273 0.93363 0.2761 0.0
H1681 H 0.34342 0.90439 0.15836 0.0
H1682 H 0.36996 0.88106 0.18011 0.0
H1683 H 0.35967 0.91805 0.18506 0.0
C1684 C 0.78601 0.07556 0.10736 0.0
C1685 C 0.77491 0.0782 0.07798 0.0
C1686 C 0.78168 0.09866 0.12554 0.0
C1687 C 0.76627 0.12529 0.1138 0.0
C1688 C 0.75394 0.12789 0.08486 0.0
C1689 C 0.75823 0.10421 0.06739 0.0
C1690 C 0.79474 0.09473 0.15653 0.0
C1691 C 0.73755 0.15594 0.07134 0.0
C1692 C 0.74145 0.18499 0.1697 0.0
C1693 C 0.76142 0.19892 0.16168 0.0
C1694 C 0.74299 0.16071 0.15483 0.0
C1695 C 0.76465 0.15056 0.1307 0.0
C1696 C 0.78506 0.16445 0.12284 0.0
C1697 C 0.78331 0.18833 0.13866 0.0
C1698 C 0.72121 0.14622 0.16452 0.0
C1699 C 0.80832 0.15459 0.09702 0.0
H1700 H 0.79892 0.05545 0.11565 0.0
H1701 H 0.74996 0.10643 0.04447 0.0
H1702 H 0.81108 0.10516 0.15323 0.0
H1703 H 0.77965 0.10456 0.17638 0.0
H1704 H 0.80369 0.07234 0.16404 0.0
H1705 H 0.72759 0.15418 0.05008 0.0
H1706 H 0.72174 0.16646 0.09014 0.0
H1707 H 0.75103 0.1695 0.06385 0.0
H1708 H 0.72435 0.19344 0.18727 0.0
H1709 H 0.79843 0.19946 0.13201 0.0
H1710 H 0.73052 0.12389 0.17187 0.0
H1711 H 0.70997 0.14692 0.14354 0.0
H1712 H 0.7065 0.15592 0.1848 0.0
H1713 H 0.82 0.13275 0.10345 0.0
H1714 H 0.82237 0.1678 0.09356 0.0
H1715 H 0.80033 0.15479 0.07365 0.0
C1716 C 0.58016 0.63769 0.91906 0.0
C1717 C 0.591 0.61249 0.90414 0.0
C1718 C 0.59544 0.65655 0.91863 0.0
C1719 C 0.62232 0.64999 0.90309 0.0
C1720 C 0.6335 0.62446 0.88828 0.0
C1721 C 0.61768 0.60606 0.8889 0.0
C1722 C 0.58273 0.68365 0.93452 0.0
C1723 C 0.66216 0.61659 0.87176 0.0
C1724 C 0.65235 0.71034 0.87711 0.0
C1725 C 0.66736 0.70956 0.90284 0.0
C1726 C 0.6379 0.69082 0.87662 0.0
C1727 C 0.63866 0.66992 0.90238 0.0
C1728 C 0.65436 0.66859 0.92798 0.0
C1729 C 0.66844 0.68848 0.92795 0.0
C1730 C 0.62129 0.69301 0.84897 0.0
C1731 C 0.65593 0.64644 0.95569 0.0
H1732 H 0.55946 0.64296 0.93047 0.0
H1733 H 0.62629 0.58648 0.8777 0.0
H1734 H 0.59499 0.68525 0.95361 0.0
H1735 H 0.58248 0.70155 0.9164 0.0
H1736 H 0.56162 0.6856 0.9456 0.0
H1737 H 0.66793 0.59584 0.86167 0.0
H1738 H 0.66442 0.63246 0.85181 0.0
H1739 H 0.67662 0.61623 0.88917 0.0
H1740 H 0.65124 0.72675 0.8578 0.0
H1741 H 0.68031 0.68757 0.94768 0.0
H1742 H 0.59951 0.69723 0.8583 0.0
H1743 H 0.62737 0.67295 0.83736 0.0
H1744 H 0.62358 0.70986 0.83027 0.0
H1745 H 0.63548 0.64883 0.96901 0.0
H1746 H 0.66998 0.64754 0.97299 0.0
H1747 H 0.66282 0.62539 0.94631 0.0
C1748 C 0.44807 0.59089 0.84425 0.0
C1749 C 0.4742 0.59326 0.83384 0.0
C1750 C 0.4248 0.6128 0.83817 0.0
C1751 C 0.42761 0.63803 0.82158 0.0
C1752 C 0.45389 0.63984 0.80894 0.0
C1753 C 0.47695 0.61732 0.8151 0.0
C1754 C 0.39731 0.60966 0.85176 0.0
C1755 C 0.45781 0.66632 0.79107 0.0
C1756 C 0.36276 0.69304 0.79869 0.0
C1757 C 0.35627 0.70988 0.82499 0.0
C1758 C 0.38617 0.6699 0.79677 0.0
C1759 C 0.40351 0.66339 0.82172 0.0
C1760 C 0.39701 0.68034 0.84826 0.0
C1761 C 0.37357 0.7032 0.84958 0.0
C1762 C 0.39237 0.65242 0.76806 0.0
C1763 C 0.41479 0.67425 0.87549 0.0
H1764 H 0.44583 0.57223 0.85856 0.0
H1765 H 0.49708 0.61935 0.80722 0.0
H1766 H 0.38918 0.62278 0.87257 0.0
H1767 H 0.38275 0.61694 0.83334 0.0
H1768 H 0.39827 0.58769 0.8602 0.0
H1769 H 0.47865 0.66304 0.77845 0.0
H1770 H 0.44297 0.67459 0.77308 0.0
H1771 H 0.45424 0.68248 0.80852 0.0
H1772 H 0.3498 0.69816 0.77932 0.0
H1773 H 0.36895 0.71602 0.86999 0.0
H1774 H 0.39296 0.63055 0.77634 0.0
H1775 H 0.4127 0.65203 0.75549 0.0
H1776 H 0.37712 0.66042 0.75046 0.0
H1777 H 0.41543 0.65341 0.88779 0.0
H1778 H 0.40747 0.69002 0.89378 0.0
H1779 H 0.43588 0.67372 0.86571 0.0
C1780 C 0.49248 0.44351 0.91175 0.0
C1781 C 0.49431 0.46576 0.88902 0.0
C1782 C 0.47385 0.42855 0.91013 0.0
C1783 C 0.45691 0.43562 0.88483 0.0
C1784 C 0.45932 0.45725 0.86106 0.0
C1785 C 0.47777 0.47221 0.8636 0.0
C1786 C 0.47172 0.40573 0.93612 0.0
C1787 C 0.44185 0.46514 0.83347 0.0
C1788 C 0.42138 0.38188 0.87319 0.0
C1789 C 0.39604 0.39241 0.89093 0.0
C1790 C 0.44108 0.39633 0.86974 0.0
C1791 C 0.43538 0.42167 0.88472 0.0
C1792 C 0.40944 0.43299 0.90139 0.0
C1793 C 0.39003 0.41837 0.904 0.0
C1794 C 0.46835 0.38392 0.8512 0.0
C1795 C 0.40255 0.45994 0.91775 0.0
H1796 H 0.50541 0.43785 0.93109 0.0
H1797 H 0.47861 0.48943 0.846 0.0
H1798 H 0.45118 0.41132 0.94971 0.0
H1799 H 0.47445 0.38589 0.92503 0.0
H1800 H 0.48699 0.40213 0.95353 0.0
H1801 H 0.44816 0.4804 0.81518 0.0
H1802 H 0.44273 0.44631 0.82132 0.0
H1803 H 0.42038 0.47448 0.84297 0.0
H1804 H 0.42625 0.36179 0.86314 0.0
H1805 H 0.37027 0.42697 0.91709 0.0
H1806 H 0.48413 0.37684 0.86818 0.0
H1807 H 0.47404 0.39989 0.83353 0.0
H1808 H 0.46854 0.36583 0.83804 0.0
H1809 H 0.41586 0.4574 0.93719 0.0
H1810 H 0.38108 0.4665 0.92859 0.0
H1811 H 0.40627 0.47692 0.90018 0.0
C1812 C 0.626 0.46463 0.78925 0.0
C1813 C 0.61619 0.47977 0.81674 0.0
C1814 C 0.65061 0.44298 0.78817 0.0
C1815 C 0.66509 0.43546 0.8158 0.0
C1816 C 0.65519 0.45076 0.84361 0.0
C1817 C 0.63119 0.47303 0.84349 0.0
C1818 C 0.66096 0.42798 0.75759 0.0
C1819 C 0.66932 0.44287 0.87402 0.0
C1820 C 0.71155 0.36087 0.82441 0.0
C1821 C 0.73736 0.36491 0.8175 0.0
C1822 C 0.68793 0.38366 0.82448 0.0
C1823 C 0.69009 0.41107 0.8161 0.0
C1824 C 0.71616 0.41515 0.80859 0.0
C1825 C 0.73944 0.39213 0.81009 0.0
C1826 C 0.66065 0.3784 0.83391 0.0
C1827 C 0.71949 0.44378 0.79846 0.0
H1828 H 0.61443 0.46974 0.76856 0.0
H1829 H 0.62344 0.48433 0.86505 0.0
H1830 H 0.68243 0.42749 0.75014 0.0
H1831 H 0.66033 0.40604 0.76202 0.0
H1832 H 0.64879 0.43802 0.73732 0.0
H1833 H 0.65903 0.45686 0.89359 0.0
H1834 H 0.66992 0.42111 0.88294 0.0
H1835 H 0.69062 0.4436 0.86884 0.0
H1836 H 0.70985 0.33989 0.83037 0.0
H1837 H 0.75931 0.39539 0.80456 0.0
H1838 H 0.64822 0.38486 0.81332 0.0
H1839 H 0.64951 0.39114 0.85422 0.0
H1840 H 0.66251 0.35609 0.84136 0.0
H1841 H 0.70784 0.45324 0.77763 0.0
H1842 H 0.74108 0.44318 0.7915 0.0
H1843 H 0.71122 0.45768 0.81851 0.0
C1844 C 0.62191 0.4837 0.31219 0.0
C1845 C 0.62007 0.49161 0.27915 0.0
C1846 C 0.64335 0.46105 0.32251 0.0
C1847 C 0.66326 0.44601 0.29923 0.0
C1848 C 0.66169 0.4543 0.26596 0.0
C1849 C 0.64025 0.47692 0.2564 0.0
C1850 C 0.64442 0.45284 0.3582 0.0
C1851 C 0.68233 0.43879 0.24026 0.0
C1852 C 0.7326 0.39756 0.31605 0.0
C1853 C 0.72855 0.37135 0.31497 0.0
C1854 C 0.71103 0.4222 0.31311 0.0
C1855 C 0.68491 0.42051 0.30895 0.0
C1856 C 0.68046 0.394 0.30983 0.0
C1857 C 0.70224 0.36984 0.31304 0.0
C1858 C 0.71657 0.45004 0.31257 0.0
C1859 C 0.6531 0.39105 0.30529 0.0
H1860 H 0.60649 0.49496 0.32994 0.0
H1861 H 0.63919 0.48283 0.2308 0.0
H1862 H 0.64152 0.43178 0.36372 0.0
H1863 H 0.66464 0.45166 0.36513 0.0
H1864 H 0.62859 0.46777 0.3733 0.0
H1865 H 0.67875 0.44849 0.21547 0.0
H1866 H 0.70309 0.43818 0.24469 0.0
H1867 H 0.68162 0.41688 0.24131 0.0
H1868 H 0.7528 0.3989 0.31786 0.0
H1869 H 0.69872 0.34966 0.31303 0.0
H1870 H 0.70058 0.46423 0.32823 0.0
H1871 H 0.71622 0.46005 0.28757 0.0
H1872 H 0.73664 0.44791 0.3207 0.0
H1873 H 0.63679 0.40477 0.32107 0.0
H1874 H 0.65216 0.36921 0.31062 0.0
H1875 H 0.64887 0.39762 0.27986 0.0
C1876 C 0.63596 0.62606 0.20142 0.0
C1877 C 0.62256 0.61603 0.2294 0.0
C1878 C 0.65866 0.63545 0.20305 0.0
C1879 C 0.66809 0.63495 0.23342 0.0
C1880 C 0.65426 0.62547 0.26182 0.0
C1881 C 0.63173 0.61609 0.25946 0.0
C1882 C 0.67295 0.64525 0.17218 0.0
C1883 C 0.66351 0.62483 0.29469 0.0
C1884 C 0.74224 0.63038 0.23529 0.0
C1885 C 0.74097 0.65815 0.23906 0.0
C1886 C 0.71872 0.62264 0.23329 0.0
C1887 C 0.69316 0.64309 0.23536 0.0
C1888 C 0.69163 0.67111 0.23952 0.0
C1889 C 0.71556 0.67832 0.24127 0.0
C1890 C 0.72123 0.59252 0.22896 0.0
C1891 C 0.66474 0.69349 0.24195 0.0
H1892 H 0.62912 0.62588 0.17813 0.0
H1893 H 0.62118 0.60891 0.28126 0.0
H1894 H 0.67443 0.66656 0.17411 0.0
H1895 H 0.69396 0.63131 0.16825 0.0
H1896 H 0.66238 0.64552 0.15071 0.0
H1897 H 0.64986 0.61799 0.31455 0.0
H1898 H 0.68427 0.61037 0.29551 0.0
H1899 H 0.66445 0.64584 0.29915 0.0
H1900 H 0.76172 0.61456 0.23412 0.0
H1901 H 0.71439 0.69986 0.24381 0.0
H1902 H 0.71253 0.59108 0.20662 0.0
H1903 H 0.70951 0.58396 0.24955 0.0
H1904 H 0.74264 0.57924 0.22736 0.0
H1905 H 0.65486 0.69528 0.21957 0.0
H1906 H 0.66696 0.71421 0.24559 0.0
H1907 H 0.65095 0.68773 0.26239 0.0
C1908 C 0.48546 0.63777 0.30669 0.0
C1909 C 0.47766 0.61586 0.29671 0.0
C1910 C 0.46619 0.66362 0.31276 0.0
C1911 C 0.43853 0.66737 0.3092 0.0
C1912 C 0.43041 0.64454 0.3015 0.0
C1913 C 0.45007 0.61917 0.29518 0.0
C1914 C 0.47571 0.68746 0.32064 0.0
C1915 C 0.40106 0.64728 0.29847 0.0
C1916 C 0.38181 0.73086 0.33738 0.0
C1917 C 0.37635 0.74637 0.30788 0.0
C1918 C 0.40261 0.70544 0.33854 0.0
C1919 C 0.41856 0.69572 0.30957 0.0
C1920 C 0.41389 0.71219 0.28001 0.0
C1921 C 0.39265 0.73712 0.2795 0.0
C1922 C 0.40634 0.68828 0.37039 0.0
C1923 C 0.4304 0.70277 0.24854 0.0
H1924 H 0.5068 0.63539 0.3076 0.0
H1925 H 0.44395 0.60217 0.28773 0.0
H1926 H 0.47407 0.70318 0.29964 0.0
H1927 H 0.46267 0.69801 0.34152 0.0
H1928 H 0.49711 0.68043 0.32628 0.0
H1929 H 0.38869 0.65351 0.32161 0.0
H1930 H 0.39331 0.66385 0.27945 0.0
H1931 H 0.39806 0.62751 0.29249 0.0
H1932 H 0.36877 0.73771 0.35925 0.0
H1933 H 0.38832 0.74909 0.25668 0.0
H1934 H 0.42814 0.68038 0.37413 0.0
H1935 H 0.39879 0.66987 0.37017 0.0
H1936 H 0.3951 0.70038 0.39118 0.0
H1937 H 0.4524 0.69675 0.25125 0.0
H1938 H 0.42609 0.71923 0.22839 0.0
H1939 H 0.42573 0.68409 0.24186 0.0
C1940 C 0.47785 0.49722 0.20269 0.0
C1941 C 0.4956 0.49437 0.22615 0.0
C1942 C 0.46094 0.4798 0.20438 0.0
C1943 C 0.46186 0.45881 0.23006 0.0
C1944 C 0.47956 0.45594 0.25401 0.0
C1945 C 0.49614 0.47382 0.25183 0.0
C1946 C 0.4422 0.48374 0.1785 0.0
C1947 C 0.48133 0.43368 0.28159 0.0
C1948 C 0.40176 0.42861 0.24483 0.0
C1949 C 0.41131 0.40504 0.22678 0.0
C1950 C 0.41827 0.4459 0.247 0.0
C1951 C 0.445 0.43929 0.23096 0.0
C1952 C 0.4551 0.41481 0.21394 0.0
C1953 C 0.43812 0.39807 0.21198 0.0
C1954 C 0.40672 0.47184 0.2653 0.0
C1955 C 0.48356 0.40679 0.19684 0.0
H1956 H 0.47697 0.51333 0.18312 0.0
H1957 H 0.50996 0.47133 0.26987 0.0
H1958 H 0.44756 0.46456 0.16524 0.0
H1959 H 0.42095 0.48725 0.18971 0.0
H1960 H 0.44323 0.50163 0.16078 0.0
H1961 H 0.4954 0.4348 0.29885 0.0
H1962 H 0.46096 0.43569 0.29497 0.0
H1963 H 0.48844 0.41273 0.27193 0.0
H1964 H 0.38101 0.43418 0.25615 0.0
H1965 H 0.44571 0.37963 0.19839 0.0
H1966 H 0.40487 0.49061 0.24816 0.0
H1967 H 0.42056 0.47265 0.28295 0.0
H1968 H 0.3864 0.47291 0.27846 0.0
H1969 H 0.48551 0.42266 0.17677 0.0
H1970 H 0.48898 0.38608 0.1867 0.0
H1971 H 0.49845 0.40629 0.21375 0.0
C1972 C 0.83624 0.65513 0.65184 0.0
C1973 C 0.81875 0.63821 0.65477 0.0
C1974 C 0.83185 0.67691 0.67204 0.0
C1975 C 0.80931 0.68226 0.69603 0.0
C1976 C 0.79094 0.66591 0.69843 0.0
C1977 C 0.79581 0.64413 0.67769 0.0
C1978 C 0.85158 0.69406 0.66777 0.0
C1979 C 0.76665 0.67082 0.72365 0.0
C1980 C 0.81605 0.71603 0.77083 0.0
C1981 C 0.80071 0.74382 0.76502 0.0
C1982 C 0.81893 0.69592 0.74866 0.0
C1983 C 0.80614 0.70367 0.71977 0.0
C1984 C 0.79097 0.73186 0.7135 0.0
C1985 C 0.78815 0.75143 0.73636 0.0
C1986 C 0.83556 0.66626 0.75629 0.0
C1987 C 0.7773 0.74134 0.68292 0.0
H1988 H 0.8538 0.65109 0.63387 0.0
H1989 H 0.78219 0.63118 0.68018 0.0
H1990 H 0.84096 0.71571 0.65929 0.0
H1991 H 0.85908 0.69475 0.69118 0.0
H1992 H 0.8693 0.68585 0.64985 0.0
H1993 H 0.75347 0.65748 0.72132 0.0
H1994 H 0.77358 0.66636 0.74816 0.0
H1995 H 0.75441 0.69303 0.72171 0.0
H1996 H 0.82551 0.70989 0.79311 0.0
H1997 H 0.77561 0.77254 0.73196 0.0
H1998 H 0.85271 0.66005 0.73708 0.0
H1999 H 0.82292 0.65187 0.75673 0.0
H2000 H 0.84387 0.66347 0.77995 0.0
H2001 H 0.76746 0.76424 0.68089 0.0
H2002 H 0.76166 0.73048 0.68235 0.0
H2003 H 0.79232 0.73578 0.66142 0.0
C2004 C 0.47969 0.77438 0.70238 0.0
C2005 C 0.48151 0.78055 0.66874 0.0
C2006 C 0.45438 0.77879 0.72157 0.0
C2007 C 0.42977 0.78892 0.70696 0.0
C2008 C 0.43155 0.79499 0.67279 0.0
C2009 C 0.45724 0.79123 0.65428 0.0
C2010 C 0.45412 0.77304 0.75768 0.0
C2011 C 0.40628 0.80475 0.65559 0.0
C2012 C 0.36585 0.77333 0.75384 0.0
C2013 C 0.35039 0.79949 0.76444 0.0
C2014 C 0.39136 0.76968 0.73514 0.0
C2015 C 0.40239 0.79258 0.72719 0.0
C2016 C 0.387 0.81896 0.73849 0.0
C2017 C 0.36101 0.82223 0.75609 0.0
C2018 C 0.40622 0.74129 0.72324 0.0
C2019 C 0.39812 0.84375 0.73235 0.0
H2020 H 0.49828 0.76643 0.71382 0.0
H2021 H 0.45841 0.79581 0.62829 0.0
H2022 H 0.44213 0.7583 0.76657 0.0
H2023 H 0.47485 0.76413 0.76527 0.0
H2024 H 0.44438 0.79285 0.76939 0.0
H2025 H 0.41095 0.8078 0.62896 0.0
H2026 H 0.39459 0.78925 0.66081 0.0
H2027 H 0.39302 0.82474 0.66464 0.0
H2028 H 0.35759 0.75575 0.75947 0.0
H2029 H 0.34914 0.84257 0.76384 0.0
H2030 H 0.42619 0.73325 0.73287 0.0
H2031 H 0.41014 0.74299 0.69644 0.0
H2032 H 0.39465 0.72584 0.73058 0.0
H2033 H 0.41871 0.83817 0.74037 0.0
H2034 H 0.38497 0.86202 0.74518 0.0
H2035 H 0.40006 0.84989 0.70605 0.0
C2036 C 0.29403 0.44261 0.62112 0.0
C2037 C 0.31978 0.44176 0.60481 0.0
C2038 C 0.29092 0.42477 0.64886 0.0
C2039 C 0.31405 0.40527 0.66078 0.0
C2040 C 0.34011 0.40439 0.64473 0.0
C2041 C 0.34267 0.42264 0.61715 0.0
C2042 C 0.26274 0.42643 0.6651 0.0
C2043 C 0.36534 0.38385 0.65644 0.0
C2044 C 0.30777 0.37217 0.74743 0.0
C2045 C 0.3039 0.34654 0.74243 0.0
C2046 C 0.31104 0.39151 0.7212 0.0
C2047 C 0.31084 0.38498 0.68908 0.0
C2048 C 0.3073 0.35898 0.68394 0.0
C2049 C 0.30377 0.34028 0.71054 0.0
C2050 C 0.31465 0.419 0.72785 0.0
C2051 C 0.30736 0.35078 0.65024 0.0
H2052 H 0.27608 0.45683 0.61191 0.0
H2053 H 0.36271 0.42187 0.60532 0.0
H2054 H 0.25817 0.40645 0.66353 0.0
H2055 H 0.26151 0.42962 0.69116 0.0
H2056 H 0.24691 0.44363 0.65395 0.0
H2057 H 0.38417 0.38609 0.64174 0.0
H2058 H 0.36656 0.38678 0.68204 0.0
H2059 H 0.3644 0.3622 0.6555 0.0
H2060 H 0.30802 0.37724 0.7719 0.0
H2061 H 0.3015 0.32037 0.70615 0.0
H2062 H 0.29827 0.43649 0.71819 0.0
H2063 H 0.3342 0.42123 0.71524 0.0
H2064 H 0.31433 0.42099 0.7541 0.0
H2065 H 0.29048 0.36581 0.63833 0.0
H2066 H 0.30519 0.32946 0.65029 0.0
H2067 H 0.32655 0.35154 0.63537 0.0
C2068 C 0.57629 0.2952 0.62334 0.0
C2069 C 0.57422 0.29999 0.58997 0.0
C2070 C 0.59812 0.2991 0.63692 0.0
C2071 C 0.61882 0.30759 0.61659 0.0
C2072 C 0.61576 0.3145 0.58316 0.0
C2073 C 0.5934 0.31073 0.57025 0.0
C2074 C 0.6002 0.29167 0.67263 0.0
C2075 C 0.63726 0.32356 0.56049 0.0
C2076 C 0.6749 0.32377 0.6555 0.0
C2077 C 0.69557 0.29838 0.6537 0.0
C2078 C 0.64984 0.3273 0.6434 0.0
C2079 C 0.64526 0.30487 0.62936 0.0
C2080 C 0.66587 0.27904 0.62829 0.0
C2081 C 0.69059 0.27615 0.64043 0.0
C2082 C 0.62847 0.35514 0.64506 0.0
C2083 C 0.66195 0.25436 0.61405 0.0
H2084 H 0.56159 0.28672 0.63866 0.0
H2085 H 0.59222 0.31395 0.54436 0.0
H2086 H 0.61606 0.2715 0.67607 0.0
H2087 H 0.60628 0.30767 0.68362 0.0
H2088 H 0.58075 0.2896 0.68584 0.0
H2089 H 0.63001 0.33244 0.53671 0.0
H2090 H 0.64387 0.33931 0.57128 0.0
H2091 H 0.65529 0.30528 0.5563 0.0
H2092 H 0.67864 0.34113 0.66541 0.0
H2093 H 0.70629 0.25636 0.63925 0.0
H2094 H 0.60923 0.35243 0.65808 0.0
H2095 H 0.6242 0.36411 0.62023 0.0
H2096 H 0.63478 0.37026 0.65744 0.0
H2097 H 0.6442 0.24861 0.62748 0.0
H2098 H 0.68001 0.23579 0.61483 0.0
H2099 H 0.65768 0.25994 0.5885 0.0
C2100 C 0.78782 0.50566 0.56476 0.0
C2101 C 0.78582 0.53161 0.54743 0.0
C2102 C 0.7875 0.48229 0.5493 0.0
C2103 C 0.78506 0.48481 0.51566 0.0
C2104 C 0.78102 0.51139 0.49858 0.0
C2105 C 0.78145 0.53441 0.51463 0.0
C2106 C 0.79168 0.45445 0.5686 0.0
C2107 C 0.77811 0.51517 0.46282 0.0
C2108 C 0.82259 0.41971 0.47161 0.0
C2109 C 0.80171 0.40805 0.46854 0.0
C2110 C 0.81724 0.44502 0.48596 0.0
C2111 C 0.79028 0.45919 0.49775 0.0
C2112 C 0.7689 0.44816 0.49347 0.0
C2113 C 0.77486 0.42274 0.47881 0.0
C2114 C 0.84067 0.45608 0.48953 0.0
C2115 C 0.7399 0.46258 0.50562 0.0
H2116 H 0.79114 0.50316 0.5901 0.0
H2117 H 0.77971 0.55434 0.50096 0.0
H2118 H 0.77699 0.44379 0.56341 0.0
H2119 H 0.81237 0.44082 0.56151 0.0
H2120 H 0.78948 0.45663 0.59506 0.0
H2121 H 0.77123 0.53756 0.45412 0.0
H2122 H 0.79799 0.50544 0.44918 0.0
H2123 H 0.7635 0.50463 0.45712 0.0
H2124 H 0.84335 0.40855 0.46345 0.0
H2125 H 0.75867 0.41371 0.47675 0.0
H2126 H 0.84267 0.45634 0.51557 0.0
H2127 H 0.83684 0.47788 0.47879 0.0
H2128 H 0.86024 0.44329 0.47773 0.0
H2129 H 0.7376 0.4615 0.53245 0.0
H2130 H 0.72538 0.45292 0.4977 0.0
H2131 H 0.73443 0.48499 0.49697 0.0
C2132 C 0.66342 0.75255 0.47198 0.0
C2133 C 0.65101 0.77377 0.49321 0.0
C2134 C 0.6833 0.75552 0.44624 0.0
C2135 C 0.69134 0.78041 0.441 0.0
C2136 C 0.67909 0.80184 0.46242 0.0
C2137 C 0.65926 0.79831 0.48807 0.0
C2138 C 0.69546 0.73204 0.42423 0.0
C2139 C 0.68702 0.8286 0.45832 0.0
C2140 C 0.75809 0.7772 0.38591 0.0
C2141 C 0.74875 0.78792 0.35578 0.0
C2142 C 0.73982 0.77557 0.41401 0.0
C2143 C 0.71133 0.78439 0.4121 0.0
C2144 C 0.7019 0.79564 0.38176 0.0
C2145 C 0.72059 0.79712 0.3542 0.0
C2146 C 0.75112 0.76368 0.44558 0.0
C2147 C 0.67194 0.80555 0.37817 0.0
H2148 H 0.65729 0.73359 0.47503 0.0
H2149 H 0.65038 0.81478 0.5043 0.0
H2150 H 0.69049 0.73937 0.39919 0.0
H2151 H 0.7179 0.72543 0.42351 0.0
H2152 H 0.68795 0.7136 0.43206 0.0
H2153 H 0.67467 0.84396 0.47562 0.0
H2154 H 0.70869 0.82396 0.46213 0.0
H2155 H 0.68471 0.83825 0.43332 0.0
H2156 H 0.77974 0.76949 0.38746 0.0
H2157 H 0.7131 0.80524 0.33105 0.0
H2158 H 0.7414 0.77808 0.46487 0.0
H2159 H 0.77346 0.75994 0.44378 0.0
H2160 H 0.74647 0.74361 0.45311 0.0
H2161 H 0.66316 0.78774 0.3835 0.0
H2162 H 0.66775 0.81498 0.35344 0.0
H2163 H 0.66134 0.82124 0.39583 0.0
C2164 C 0.29066 0.62331 0.41984 0.0
C2165 C 0.31103 0.61367 0.44077 0.0
C2166 C 0.28544 0.65026 0.40374 0.0
C2167 C 0.30056 0.66839 0.40905 0.0
C2168 C 0.32091 0.65885 0.43051 0.0
C2169 C 0.32604 0.63165 0.44578 0.0
C2170 C 0.26418 0.65908 0.3804 0.0
C2171 C 0.33715 0.67751 0.43761 0.0
C2172 C 0.30758 0.72986 0.34936 0.0
C2173 C 0.28778 0.75257 0.3629 0.0
C2174 C 0.31104 0.70235 0.36315 0.0
C2175 C 0.29524 0.69729 0.39231 0.0
C2176 C 0.27533 0.72018 0.40631 0.0
C2177 C 0.2717 0.74739 0.39132 0.0
C2178 C 0.33194 0.67875 0.34666 0.0
C2179 C 0.25848 0.71608 0.43778 0.0
H2180 H 0.27917 0.6095 0.41555 0.0
H2181 H 0.34153 0.62461 0.46223 0.0
H2182 H 0.24933 0.67929 0.38644 0.0
H2183 H 0.2741 0.6622 0.35568 0.0
H2184 H 0.25308 0.64333 0.38024 0.0
H2185 H 0.35166 0.66735 0.45559 0.0
H2186 H 0.34872 0.68337 0.41503 0.0
H2187 H 0.32328 0.69711 0.44701 0.0
H2188 H 0.32062 0.73351 0.32799 0.0
H2189 H 0.25666 0.76482 0.40235 0.0
H2190 H 0.32246 0.66259 0.34232 0.0
H2191 H 0.34814 0.6687 0.36254 0.0
H2192 H 0.34136 0.68596 0.32316 0.0
H2193 H 0.24736 0.70076 0.43556 0.0
H2194 H 0.24356 0.73586 0.44531 0.0
H2195 H 0.27195 0.70742 0.45717 0.0
C2196 C 0.46047 0.25681 0.45908 0.0
C2197 C 0.46885 0.27861 0.46875 0.0
C2198 C 0.43948 0.26188 0.43924 0.0
C2199 C 0.42615 0.28956 0.42829 0.0
C2200 C 0.43452 0.31181 0.43761 0.0
C2201 C 0.45573 0.3061 0.45773 0.0
C2202 C 0.43137 0.23741 0.43027 0.0
C2203 C 0.4209 0.34164 0.42649 0.0
C2204 C 0.38688 0.29471 0.35538 0.0
C2205 C 0.36049 0.29673 0.37024 0.0
C2206 C 0.40815 0.2937 0.37373 0.0
C2207 C 0.40309 0.29474 0.40787 0.0
C2208 C 0.37628 0.29775 0.4228 0.0
C2209 C 0.35546 0.29878 0.40391 0.0
C2210 C 0.43629 0.29062 0.35663 0.0
C2211 C 0.36966 0.29892 0.459 0.0
H2212 H 0.47027 0.23542 0.46722 0.0
H2213 H 0.46191 0.32314 0.46492 0.0
H2214 H 0.4098 0.2396 0.43932 0.0
H2215 H 0.43328 0.23706 0.40356 0.0
H2216 H 0.44396 0.21709 0.44036 0.0
H2217 H 0.43007 0.35655 0.43503 0.0
H2218 H 0.42231 0.34405 0.39967 0.0
H2219 H 0.39901 0.34725 0.43558 0.0
H2220 H 0.39109 0.29342 0.32941 0.0
H2221 H 0.33512 0.30112 0.41575 0.0
H2222 H 0.44984 0.26976 0.36361 0.0
H2223 H 0.44486 0.30644 0.36407 0.0
H2224 H 0.43648 0.29286 0.32988 0.0
H2225 H 0.37949 0.27833 0.47111 0.0
H2226 H 0.34747 0.30426 0.4665 0.0
H2227 H 0.37776 0.31455 0.46775 0.0
C2228 C 0.61733 0.83558 0.65425 0.0
C2229 C 0.61638 0.80806 0.65364 0.0
C2230 C 0.63481 0.84192 0.67348 0.0
C2231 C 0.65166 0.82025 0.69247 0.0
C2232 C 0.65003 0.79266 0.69266 0.0
C2233 C 0.63248 0.78697 0.67341 0.0
C2234 C 0.63591 0.87161 0.67271 0.0
C2235 C 0.66759 0.76881 0.71239 0.0
C2236 C 0.71996 0.82202 0.7135 0.0
C2237 C 0.71477 0.82587 0.74679 0.0
C2238 C 0.69928 0.82187 0.69519 0.0
C2239 C 0.67251 0.82552 0.71041 0.0
C2240 C 0.66681 0.83059 0.74371 0.0
C2241 C 0.688 0.83062 0.76153 0.0
C2242 C 0.70653 0.81609 0.65991 0.0
C2243 C 0.63858 0.83463 0.76089 0.0
H2244 H 0.60497 0.85201 0.63914 0.0
H2245 H 0.63181 0.76564 0.67348 0.0
H2246 H 0.63349 0.87815 0.6977 0.0
H2247 H 0.65604 0.87304 0.66117 0.0
H2248 H 0.61996 0.88642 0.65908 0.0
H2249 H 0.66291 0.74881 0.71118 0.0
H2250 H 0.68929 0.76593 0.70345 0.0
H2251 H 0.66482 0.77362 0.7381 0.0
H2252 H 0.74052 0.81792 0.70175 0.0
H2253 H 0.68368 0.83368 0.78717 0.0
H2254 H 0.69201 0.8313 0.64486 0.0
H2255 H 0.70521 0.79497 0.65658 0.0
H2256 H 0.7274 0.81702 0.65083 0.0
H2257 H 0.63665 0.84202 0.78542 0.0
H2258 H 0.63349 0.81453 0.76336 0.0
H2259 H 0.62344 0.84986 0.7466 0.0
C2260 C 0.63667 0.23278 0.42959 0.0
C2261 C 0.62518 0.24701 0.45751 0.0
C2262 C 0.66067 0.23619 0.41189 0.0
C2263 C 0.67367 0.2544 0.42209 0.0
C2264 C 0.66225 0.26876 0.45034 0.0
C2265 C 0.63821 0.26493 0.46763 0.0
C2266 C 0.6717 0.22074 0.38181 0.0
C2267 C 0.67548 0.28816 0.4624 0.0
C2268 C 0.74876 0.24611 0.39473 0.0
C2269 C 0.74765 0.26815 0.37085 0.0
C2270 C 0.72492 0.24101 0.41105 0.0
C2271 C 0.6992 0.25841 0.40339 0.0
C2272 C 0.69799 0.28029 0.37871 0.0
C2273 C 0.72215 0.28518 0.36324 0.0
C2274 C 0.72726 0.21739 0.43705 0.0
C2275 C 0.67116 0.29906 0.36916 0.0
H2276 H 0.62661 0.21929 0.42115 0.0
H2277 H 0.6298 0.27577 0.48936 0.0
H2278 H 0.66864 0.2359 0.36037 0.0
H2279 H 0.6938 0.21044 0.3817 0.0
H2280 H 0.66143 0.20469 0.37944 0.0
H2281 H 0.66425 0.29758 0.48491 0.0
H2282 H 0.69656 0.27664 0.46722 0.0
H2283 H 0.67668 0.30521 0.44356 0.0
H2284 H 0.76838 0.23311 0.40108 0.0
H2285 H 0.7209 0.30277 0.3457 0.0
H2286 H 0.71613 0.20301 0.43157 0.0
H2287 H 0.71779 0.2258 0.46065 0.0
H2288 H 0.74869 0.20526 0.43951 0.0
H2289 H 0.65841 0.28637 0.36344 0.0
H2290 H 0.6737 0.31363 0.3478 0.0
H2291 H 0.66001 0.31148 0.3897 0.0
C2292 C 0.837 0.62912 0.4842 0.0
C2293 C 0.86144 0.61566 0.49723 0.0
C2294 C 0.83603 0.64878 0.45768 0.0
C2295 C 0.86007 0.65537 0.44413 0.0
C2296 C 0.88494 0.6415 0.45681 0.0
C2297 C 0.88536 0.62157 0.48315 0.0
C2298 C 0.80915 0.66287 0.44457 0.0
C2299 C 0.91085 0.64837 0.44324 0.0
C2300 C 0.85589 0.69382 0.36101 0.0
C2301 C 0.84712 0.72169 0.36905 0.0
C2302 C 0.86147 0.67182 0.38513 0.0
C2303 C 0.85856 0.67793 0.41789 0.0
C2304 C 0.85126 0.70598 0.42592 0.0
C2305 C 0.84534 0.72748 0.40148 0.0
C2306 C 0.86887 0.64214 0.37573 0.0
C2307 C 0.84813 0.7134 0.46056 0.0
H2308 H 0.81861 0.6241 0.49472 0.0
H2309 H 0.90421 0.6112 0.49339 0.0
H2310 H 0.80306 0.68554 0.44805 0.0
H2311 H 0.81104 0.66063 0.41818 0.0
H2312 H 0.79272 0.65412 0.45662 0.0
H2313 H 0.92873 0.63463 0.45466 0.0
H2314 H 0.91455 0.64637 0.41674 0.0
H2315 H 0.90891 0.67037 0.44719 0.0
H2316 H 0.85735 0.68909 0.33605 0.0
H2317 H 0.83816 0.74881 0.40816 0.0
H2318 H 0.85185 0.63317 0.38449 0.0
H2319 H 0.8869 0.62903 0.38729 0.0
H2320 H 0.87317 0.64079 0.3491 0.0
H2321 H 0.84595 0.73588 0.46223 0.0
H2322 H 0.86586 0.70078 0.47299 0.0
H2323 H 0.82983 0.70863 0.47381 0.0
C2324 C 0.49949 0.8052 0.50617 0.0
C2325 C 0.50811 0.82297 0.52323 0.0
C2326 C 0.47505 0.81439 0.49222 0.0
C2327 C 0.4589 0.84235 0.49467 0.0
C2328 C 0.46824 0.861 0.51 0.0
C2329 C 0.49268 0.85102 0.52442 0.0
C2330 C 0.46579 0.79363 0.47654 0.0
C2331 C 0.45189 0.89115 0.51231 0.0
C2332 C 0.40206 0.86256 0.4402 0.0
C2333 C 0.38031 0.85844 0.46187 0.0
C2334 C 0.42744 0.85928 0.45094 0.0
C2335 C 0.43123 0.85083 0.48385 0.0
C2336 C 0.40907 0.84717 0.50587 0.0
C2337 C 0.38381 0.85134 0.49465 0.0
C2338 C 0.45036 0.86407 0.42692 0.0
C2339 C 0.41235 0.83745 0.54096 0.0
H2340 H 0.51132 0.78353 0.50477 0.0
H2341 H 0.49926 0.86493 0.53736 0.0
H2342 H 0.44695 0.79066 0.49045 0.0
H2343 H 0.46098 0.80161 0.45162 0.0
H2344 H 0.4813 0.77297 0.47537 0.0
H2345 H 0.46367 0.90381 0.5205 0.0
H2346 H 0.44495 0.90039 0.48852 0.0
H2347 H 0.43353 0.89248 0.52976 0.0
H2348 H 0.39918 0.86834 0.4149 0.0
H2349 H 0.36694 0.84808 0.51133 0.0
H2350 H 0.46569 0.84381 0.42221 0.0
H2351 H 0.46066 0.87724 0.43691 0.0
H2352 H 0.4432 0.87426 0.40352 0.0
H2353 H 0.42667 0.81612 0.5426 0.0
H2354 H 0.3928 0.83701 0.55525 0.0
H2355 H 0.42111 0.85129 0.55219 0.0
C2356 C 0.25764 0.46521 0.45461 0.0
C2357 C 0.27896 0.47673 0.44293 0.0
C2358 C 0.25243 0.44464 0.43798 0.0
C2359 C 0.26881 0.43554 0.40897 0.0
C2360 C 0.28964 0.44795 0.39658 0.0
C2361 C 0.2944 0.46824 0.41362 0.0
C2362 C 0.23009 0.4319 0.45201 0.0
C2363 C 0.30762 0.43909 0.36575 0.0
C2364 C 0.28317 0.36389 0.37768 0.0
C2365 C 0.26859 0.36992 0.35061 0.0
C2366 C 0.28156 0.38451 0.39859 0.0
C2367 C 0.26545 0.41225 0.39191 0.0
C2368 C 0.24947 0.41816 0.36566 0.0
C2369 C 0.2513 0.39697 0.3453 0.0
C2370 C 0.29876 0.37691 0.42642 0.0
C2371 C 0.23185 0.4473 0.35769 0.0
H2372 H 0.24571 0.47144 0.47732 0.0
H2373 H 0.31082 0.47708 0.40421 0.0
H2374 H 0.21651 0.43265 0.43338 0.0
H2375 H 0.239 0.40957 0.45972 0.0
H2376 H 0.21777 0.44268 0.47319 0.0
H2377 H 0.32218 0.45156 0.35863 0.0
H2378 H 0.31931 0.41676 0.36893 0.0
H2379 H 0.29508 0.44125 0.34562 0.0
H2380 H 0.29691 0.34337 0.38188 0.0
H2381 H 0.24006 0.40186 0.32434 0.0
H2382 H 0.2872 0.38653 0.44859 0.0
H2383 H 0.31665 0.38499 0.42024 0.0
H2384 H 0.30613 0.35394 0.43181 0.0
H2385 H 0.21999 0.45662 0.3799 0.0
H2386 H 0.21761 0.44763 0.33997 0.0
H2387 H 0.2449 0.46069 0.34722 0.0
C2388 C 0.45404 0.22454 0.64415 0.0
C2389 C 0.46764 0.24493 0.63525 0.0
C2390 C 0.43434 0.22693 0.67111 0.0
C2391 C 0.42802 0.25024 0.68997 0.0
C2392 C 0.44183 0.27086 0.68122 0.0
C2393 C 0.46129 0.26807 0.65387 0.0
C2394 C 0.41964 0.20493 0.67855 0.0
C2395 C 0.43621 0.29577 0.70093 0.0
C2396 C 0.36027 0.27253 0.7426 0.0
C2397 C 0.36692 0.25994 0.77319 0.0
C2398 C 0.37961 0.26882 0.71522 0.0
C2399 C 0.40684 0.2532 0.71861 0.0
C2400 C 0.41387 0.24077 0.74953 0.0
C2401 C 0.39383 0.24413 0.77632 0.0
C2402 C 0.37084 0.28193 0.68274 0.0
C2403 C 0.44269 0.22427 0.75442 0.0
H2404 H 0.45845 0.20689 0.62957 0.0
H2405 H 0.47193 0.28375 0.64738 0.0
H2406 H 0.39881 0.21384 0.67148 0.0
H2407 H 0.42973 0.18607 0.66507 0.0
H2408 H 0.41803 0.19856 0.70481 0.0
H2409 H 0.44957 0.30922 0.69191 0.0
H2410 H 0.41479 0.30854 0.7003 0.0
H2411 H 0.43916 0.28868 0.72661 0.0
H2412 H 0.33989 0.28527 0.73984 0.0
H2413 H 0.39932 0.2347 0.79994 0.0
H2414 H 0.34841 0.28972 0.6833 0.0
H2415 H 0.37868 0.26664 0.664 0.0
H2416 H 0.3793 0.29975 0.67528 0.0
H2417 H 0.44939 0.20626 0.73911 0.0
H2418 H 0.445 0.21633 0.78003 0.0
H2419 H 0.45643 0.23755 0.74674 0.0
C2420 C 0.87235 0.45757 0.69991 0.0
C2421 C 0.85681 0.46994 0.67442 0.0
C2422 C 0.87106 0.43176 0.71545 0.0
C2423 C 0.85345 0.41818 0.70567 0.0
C2424 C 0.83827 0.43019 0.67936 0.0
C2425 C 0.84026 0.45579 0.66395 0.0
C2426 C 0.88762 0.41993 0.74329 0.0
C2427 C 0.8194 0.41631 0.66791 0.0
C2428 C 0.8583 0.3417 0.72749 0.0
C2429 C 0.83667 0.3436 0.7519 0.0
C2430 C 0.86508 0.36573 0.71339 0.0
C2431 C 0.84957 0.39223 0.72372 0.0
C2432 C 0.82836 0.39408 0.74923 0.0
C2433 C 0.82188 0.36979 0.76256 0.0
C2434 C 0.88811 0.3629 0.68661 0.0
C2435 C 0.81162 0.42182 0.76146 0.0
H2436 H 0.885 0.4684 0.70841 0.0
H2437 H 0.82871 0.46473 0.64372 0.0
H2438 H 0.87457 0.42592 0.76614 0.0
H2439 H 0.89517 0.39684 0.74392 0.0
H2440 H 0.90526 0.42836 0.74208 0.0
H2441 H 0.80988 0.42779 0.64628 0.0
H2442 H 0.83062 0.39466 0.66192 0.0
H2443 H 0.80307 0.415 0.68757 0.0
H2444 H 0.86953 0.32144 0.71896 0.0
H2445 H 0.80468 0.37151 0.78064 0.0
H2446 H 0.90228 0.3742 0.69183 0.0
H2447 H 0.88 0.37252 0.66352 0.0
H2448 H 0.89964 0.34074 0.68332 0.0
H2449 H 0.82501 0.4341 0.76643 0.0
H2450 H 0.79818 0.41933 0.78394 0.0
H2451 H 0.79883 0.43405 0.74264 0.0
C2452 C 0.2483 0.59824 0.58487 0.0
C2453 C 0.27414 0.57901 0.58514 0.0
C2454 C 0.24099 0.62183 0.60318 0.0
C2455 C 0.26009 0.62632 0.62172 0.0
C2456 C 0.28547 0.60599 0.6236 0.0
C2457 C 0.29203 0.58257 0.60558 0.0
C2458 C 0.21345 0.64272 0.60122 0.0
C2459 C 0.30663 0.60993 0.6427 0.0
C2460 C 0.26176 0.69999 0.63047 0.0
C2461 C 0.25267 0.70333 0.66328 0.0
C2462 C 0.26348 0.67534 0.61653 0.0
C2463 C 0.25537 0.65361 0.63572 0.0
C2464 C 0.24544 0.65718 0.66875 0.0
C2465 C 0.24455 0.68192 0.6823 0.0
C2466 C 0.27484 0.67224 0.58147 0.0
C2467 C 0.23607 0.63476 0.68978 0.0
H2468 H 0.2343 0.59557 0.56931 0.0
H2469 H 0.31191 0.56761 0.60642 0.0
H2470 H 0.20422 0.64952 0.62558 0.0
H2471 H 0.21565 0.6615 0.58586 0.0
H2472 H 0.19942 0.63406 0.59063 0.0
H2473 H 0.32444 0.59113 0.64385 0.0
H2474 H 0.31381 0.62779 0.63127 0.0
H2475 H 0.29782 0.61492 0.66774 0.0
H2476 H 0.26808 0.71658 0.61583 0.0
H2477 H 0.23721 0.68471 0.70759 0.0
H2478 H 0.26024 0.66725 0.56775 0.0
H2479 H 0.29378 0.65466 0.57974 0.0
H2480 H 0.27947 0.69143 0.56967 0.0
H2481 H 0.22141 0.62818 0.67775 0.0
H2482 H 0.22635 0.64185 0.71391 0.0
H2483 H 0.2536 0.6161 0.69332 0.0
loop_
_geom_bond_atom_site_label_1
_geom_bond_atom_site_label_2
_geom_bond_distance
_geom_bond_site_symmetry_2
_ccdc_geom_bond_type
Cu0 N1 1.999 . S
Cu0 O6 1.974 . S
Cu0 N11 1.985 . S
Cu0 O20 1.959 1_455 S
N1 Cu0 1.999 . S
N1 C3 1.263 . S
N1 C5 1.389 . S
N2 C3 1.358 . S
N2 C4 1.400 . S
C3 N1 1.263 . S
C3 N2 1.358 . S
C3 H9 0.930 . S
C4 N2 1.400 . S
C4 C5 1.351 . S
C4 H21 0.930 . S
C5 N1 1.389 . S
C5 C4 1.351 . S
C5 H10 0.930 . S
O6 Cu0 1.974 . S
O6 C16 1.282 1_545 S
C7 O8 1.261 . S
C7 O20 1.251 . S
O8 C7 1.261 . S
H9 C3 0.930 . S
H10 C5 0.930 . S
N11 Cu0 1.985 . S
N11 C13 1.335 1_455 S
N11 C14 1.390 1_545 S
N12 C13 1.345 1_565 S
N12 C15 1.336 . S
C13 N11 1.335 1_655 S
C13 N12 1.345 1_545 S
C13 H18 0.930 . S
C14 N11 1.390 1_565 S
C14 C15 1.346 1_455 S
C14 H19 0.930 . S
C15 N12 1.336 . S
C15 C14 1.346 1_655 S
C15 H22 0.929 . S
C16 O6 1.282 1_565 S
C16 O17 1.216 1_565 S
O17 C16 1.216 1_545 S
H18 C13 0.930 . S
H19 C14 0.930 . S
O20 Cu0 1.959 1_655 S
O20 C7 1.251 . S
H21 C4 0.930 . S
H22 C15 0.929 . S
Cu23 N24 1.999 . S
Cu23 O29 1.974 1_455 S
Cu23 N34 1.985 . S
Cu23 O43 1.959 . S
N24 Cu23 1.999 . S
N24 C26 1.263 1_455 S
N24 C28 1.389 1_545 S
N25 C26 1.358 1_565 S
N25 C27 1.400 . S
C26 N24 1.263 1_655 S
C26 N25 1.358 1_545 S
C26 H32 0.930 . S
C27 N25 1.400 . S
C27 C28 1.351 1_655 S
C27 H44 0.930 . S
C28 N24 1.389 1_565 S
C28 C27 1.351 1_455 S
C28 H33 0.930 . S
O29 Cu23 1.974 1_655 S
O29 C39 1.282 . S
C30 O31 1.261 . S
C30 O43 1.251 . S
O31 C30 1.261 . S
H32 C26 0.930 . S
H33 C28 0.930 . S
N34 Cu23 1.985 . S
N34 C36 1.335 . S
N34 C37 1.390 . S
N35 C36 1.345 . S
N35 C38 1.336 . S
C36 N34 1.335 . S
C36 N35 1.345 . S
C36 H41 0.930 . S
C37 N34 1.390 . S
C37 C38 1.346 . S
C37 H42 0.930 . S
C38 N35 1.336 . S
C38 C37 1.346 . S
C38 H45 0.929 . S
C39 O29 1.282 . S
C39 O40 1.216 . S
O40 C39 1.216 . S
H41 C36 0.930 . S
H42 C37 0.930 . S
O43 Cu23 1.959 . S
O43 C30 1.251 . S
H44 C27 0.930 . S
H45 C38 0.929 . S
Cu46 N47 1.999 . S
Cu46 O52 1.974 . S
Cu46 N57 1.985 . S
Cu46 O66 1.959 . S
N47 Cu46 1.999 . S
N47 C49 1.263 . S
N47 C51 1.389 . S
N48 C49 1.358 . S
N48 C50 1.400 . S
C49 N47 1.263 . S
C49 N48 1.358 . S
C49 H55 0.930 . S
C50 N48 1.400 . S
C50 C51 1.351 . S
C50 H67 0.930 1_554 S
C51 N47 1.389 . S
C51 C50 1.351 . S
C51 H56 0.930 . S
O52 Cu46 1.974 . S
O52 C62 1.282 . S
C53 O54 1.261 . S
C53 O66 1.251 . S
O54 C53 1.261 . S
H55 C49 0.930 . S
H56 C51 0.930 . S
N57 Cu46 1.985 . S
N57 C59 1.335 . S
N57 C60 1.390 . S
N58 C59 1.345 . S
N58 C61 1.336 . S
C59 N57 1.335 . S
C59 N58 1.345 . S
C59 H64 0.930 . S
C60 N57 1.390 . S
C60 C61 1.346 . S
C60 H65 0.930 . S
C61 N58 1.336 . S
C61 C60 1.346 . S
C61 H68 0.929 . S
C62 O52 1.282 . S
C62 O63 1.216 . S
O63 C62 1.216 . S
H64 C59 0.930 . S
H65 C60 0.930 . S
O66 Cu46 1.959 . S
O66 C53 1.251 . S
H67 C50 0.930 1_556 S
H68 C61 0.929 . S
Cu69 N70 1.999 . S
Cu69 O75 1.974 . S
Cu69 N80 1.985 . S
Cu69 O89 1.959 . S
N70 Cu69 1.999 . S
N70 C72 1.263 . S
N70 C74 1.389 . S
N71 C72 1.358 . S
N71 C73 1.400 1_554 S
C72 N70 1.263 . S
C72 N71 1.358 . S
C72 H78 0.930 . S
C73 N71 1.400 1_556 S
C73 C74 1.351 1_556 S
C73 H90 0.930 . S
C74 N70 1.389 . S
C74 C73 1.351 1_554 S
C74 H79 0.930 . S
O75 Cu69 1.974 . S
O75 C85 1.282 . S
C76 O77 1.261 . S
C76 O89 1.251 . S
O77 C76 1.261 . S
H78 C72 0.930 . S
H79 C74 0.930 . S
N80 Cu69 1.985 . S
N80 C82 1.335 1_455 S
N80 C83 1.390 . S
N81 C82 1.345 . S
N81 C84 1.336 1_655 S
C82 N80 1.335 1_655 S
C82 N81 1.345 . S
C82 H87 0.930 . S
C83 N80 1.390 . S
C83 C84 1.346 . S
C83 H88 0.930 . S
C84 N81 1.336 1_455 S
C84 C83 1.346 . S
C84 H91 0.929 . S
C85 O75 1.282 . S
C85 O86 1.216 . S
O86 C85 1.216 . S
H87 C82 0.930 . S
H88 C83 0.930 . S
O89 Cu69 1.959 . S
O89 C76 1.251 . S
H90 C73 0.930 . S
H91 C84 0.929 . S
Cu92 N93 1.999 1_554 S
Cu92 O98 1.974 . S
Cu92 N103 1.985 1_545 S
Cu92 O112 1.959 1_544 S
N93 Cu92 1.999 1_556 S
N93 C95 1.263 . S
N93 C97 1.389 . S
N94 C95 1.358 . S
N94 C96 1.400 . S
C95 N93 1.263 . S
C95 N94 1.358 . S
C95 H101 0.930 . S
C96 N94 1.400 . S
C96 C97 1.351 . S
C96 H113 0.930 . S
C97 N93 1.389 . S
C97 C96 1.351 . S
C97 H102 0.930 . S
O98 Cu92 1.974 . S
O98 C108 1.282 . S
C99 O100 1.261 . S
C99 O112 1.251 . S
O100 C99 1.261 . S
H101 C95 0.930 . S
H102 C97 0.930 . S
N103 Cu92 1.985 1_565 S
N103 C105 1.335 . S
N103 C106 1.390 . S
N104 C105 1.345 . S
N104 C107 1.336 . S
C105 N103 1.335 . S
C105 N104 1.345 . S
C105 H110 0.930 . S
C106 N103 1.390 . S
C106 C107 1.346 . S
C106 H111 0.930 . S
C107 N104 1.336 . S
C107 C106 1.346 . S
C107 H114 0.929 . S
C108 O98 1.282 . S
C108 O109 1.216 . S
O109 C108 1.216 . S
H110 C105 0.930 . S
H111 C106 0.930 . S
O112 Cu92 1.959 1_566 S
O112 C99 1.251 . S
H113 C96 0.930 . S
H114 C107 0.929 . S
Cu115 N116 1.999 1_454 S
Cu115 O121 1.974 1_455 S
Cu115 N126 1.985 . S
Cu115 O135 1.959 1_554 S
N116 Cu115 1.999 1_656 S
N116 C118 1.263 . S
N116 C120 1.389 . S
N117 C118 1.358 . S
N117 C119 1.400 . S
C118 N116 1.263 . S
C118 N117 1.358 . S
C118 H124 0.930 . S
C119 N117 1.400 . S
C119 C120 1.351 . S
C119 H136 0.930 . S
C120 N116 1.389 . S
C120 C119 1.351 . S
C120 H125 0.930 1_655 S
O121 Cu115 1.974 1_655 S
O121 C131 1.282 . S
C122 O123 1.261 . S
C122 O135 1.251 . S
O123 C122 1.261 . S
H124 C118 0.930 . S
H125 C120 0.930 1_455 S
N126 Cu115 1.985 . S
N126 C128 1.335 . S
N126 C129 1.390 . S
N127 C128 1.345 . S
N127 C130 1.336 . S
C128 N126 1.335 . S
C128 N127 1.345 . S
C128 H133 0.930 . S
C129 N126 1.390 . S
C129 C130 1.346 . S
C129 H134 0.930 1_455 S
C130 N127 1.336 . S
C130 C129 1.346 . S
C130 H137 0.929 . S
C131 O121 1.282 . S
C131 O132 1.216 . S
O132 C131 1.216 . S
H133 C128 0.930 . S
H134 C129 0.930 1_655 S
O135 Cu115 1.959 1_556 S
O135 C122 1.251 . S
H136 C119 0.930 . S
H137 C130 0.929 . S
Cu138 N139 1.999 . S
Cu138 O144 1.974 . S
Cu138 N149 1.985 . S
Cu138 O158 1.959 . S
N139 Cu138 1.999 . S
N139 C141 1.263 . S
N139 C143 1.389 . S
N140 C141 1.358 . S
N140 C142 1.400 . S
C141 N139 1.263 . S
C141 N140 1.358 . S
C141 H147 0.930 . S
C142 N140 1.400 . S
C142 C143 1.351 . S
C142 H159 0.930 . S
C143 N139 1.389 . S
C143 C142 1.351 . S
C143 H148 0.930 . S
O144 Cu138 1.974 . S
O144 C154 1.282 . S
C145 O146 1.261 . S
C145 O158 1.251 . S
O146 C145 1.261 . S
H147 C141 0.930 . S
H148 C143 0.930 . S
N149 Cu138 1.985 . S
N149 C151 1.335 . S
N149 C152 1.390 . S
N150 C151 1.345 . S
N150 C153 1.336 . S
C151 N149 1.335 . S
C151 N150 1.345 . S
C151 H156 0.930 . S
C152 N149 1.390 . S
C152 C153 1.346 . S
C152 H157 0.930 . S
C153 N150 1.336 . S
C153 C152 1.346 . S
C153 H160 0.929 . S
C154 O144 1.282 . S
C154 O155 1.216 . S
O155 C154 1.216 . S
H156 C151 0.930 . S
H157 C152 0.930 . S
O158 Cu138 1.959 . S
O158 C145 1.251 . S
H159 C142 0.930 . S
H160 C153 0.929 . S
Cu161 N162 1.999 . S
Cu161 O167 1.974 . S
Cu161 N172 1.985 . S
Cu161 O181 1.959 . S
N162 Cu161 1.999 . S
N162 C164 1.263 . S
N162 C166 1.389 . S
N163 C164 1.358 . S
N163 C165 1.400 . S
C164 N162 1.263 . S
C164 N163 1.358 . S
C164 H170 0.930 . S
C165 N163 1.400 . S
C165 C166 1.351 . S
C165 H182 0.930 . S
C166 N162 1.389 . S
C166 C165 1.351 . S
C166 H171 0.930 . S
O167 Cu161 1.974 . S
O167 C177 1.282 . S
C168 O169 1.261 . S
C168 O181 1.251 . S
O169 C168 1.261 . S
H170 C164 0.930 . S
H171 C166 0.930 . S
N172 Cu161 1.985 . S
N172 C174 1.335 . S
N172 C175 1.390 . S
N173 C174 1.345 . S
N173 C176 1.336 . S
C174 N172 1.335 . S
C174 N173 1.345 . S
C174 H179 0.930 . S
C175 N172 1.390 . S
C175 C176 1.346 . S
C175 H180 0.930 . S
C176 N173 1.336 . S
C176 C175 1.346 . S
C176 H183 0.929 . S
C177 O167 1.282 . S
C177 O178 1.216 . S
O178 C177 1.216 . S
H179 C174 0.930 . S
H180 C175 0.930 . S
O181 Cu161 1.959 . S
O181 C168 1.251 . S
H182 C165 0.930 . S
H183 C176 0.929 . S
Cu184 N185 1.999 . S
Cu184 O190 1.974 . S
Cu184 N195 1.985 . S
Cu184 O204 1.959 . S
N185 Cu184 1.999 . S
N185 C187 1.263 . S
N185 C189 1.389 . S
N186 C187 1.358 . S
N186 C188 1.400 . S
C187 N185 1.263 . S
C187 N186 1.358 . S
C187 H193 0.930 . S
C188 N186 1.400 . S
C188 C189 1.351 . S
C188 H205 0.930 . S
C189 N185 1.389 . S
C189 C188 1.351 . S
C189 H194 0.930 . S
O190 Cu184 1.974 . S
O190 C200 1.282 . S
C191 O192 1.261 . S
C191 O204 1.251 . S
O192 C191 1.261 . S
H193 C187 0.930 . S
H194 C189 0.930 . S
N195 Cu184 1.985 . S
N195 C197 1.335 . S
N195 C198 1.390 . S
N196 C197 1.345 . S
N196 C199 1.336 . S
C197 N195 1.335 . S
C197 N196 1.345 . S
C197 H202 0.930 . S
C198 N195 1.390 . S
C198 C199 1.346 . S
C198 H203 0.930 . S
C199 N196 1.336 . S
C199 C198 1.346 . S
C199 H206 0.929 . S
C200 O190 1.282 . S
C200 O201 1.216 . S
O201 C200 1.216 . S
H202 C197 0.930 . S
H203 C198 0.930 . S
O204 Cu184 1.959 . S
O204 C191 1.251 . S
H205 C188 0.930 . S
H206 C199 0.929 . S
Cu207 N208 1.999 . S
Cu207 O213 1.974 . S
Cu207 N218 1.985 . S
Cu207 O227 1.959 . S
N208 Cu207 1.999 . S
N208 C210 1.263 . S
N208 C212 1.389 . S
N209 C210 1.358 . S
N209 C211 1.400 . S
C210 N208 1.263 . S
C210 N209 1.358 . S
C210 H216 0.930 . S
C211 N209 1.400 . S
C211 C212 1.351 . S
C211 H228 0.930 . S
C212 N208 1.389 . S
C212 C211 1.351 . S
C212 H217 0.930 . S
O213 Cu207 1.974 . S
O213 C223 1.282 . S
C214 O215 1.261 . S
C214 O227 1.251 . S
O215 C214 1.261 . S
H216 C210 0.930 . S
H217 C212 0.930 . S
N218 Cu207 1.985 . S
N218 C220 1.335 . S
N218 C221 1.390 . S
N219 C220 1.345 . S
N219 C222 1.336 . S
C220 N218 1.335 . S
C220 N219 1.345 . S
C220 H225 0.930 . S
C221 N218 1.390 . S
C221 C222 1.346 . S
C221 H226 0.930 . S
C222 N219 1.336 . S
C222 C221 1.346 . S
C222 H229 0.929 . S
C223 O213 1.282 . S
C223 O224 1.216 . S
O224 C223 1.216 . S
H225 C220 0.930 . S
H226 C221 0.930 . S
O227 Cu207 1.959 . S
O227 C214 1.251 . S
H228 C211 0.930 . S
H229 C222 0.929 . S
Cu230 N231 1.999 . S
Cu230 O236 1.974 . S
Cu230 N241 1.985 . S
Cu230 O250 1.959 . S
N231 Cu230 1.999 . S
N231 C233 1.263 . S
N231 C235 1.389 . S
N232 C233 1.358 . S
N232 C234 1.400 . S
C233 N231 1.263 . S
C233 N232 1.358 . S
C233 H239 0.930 . S
C234 N232 1.400 . S
C234 C235 1.351 . S
C234 H251 0.930 . S
C235 N231 1.389 . S
C235 C234 1.351 . S
C235 H240 0.930 . S
O236 Cu230 1.974 . S
O236 C246 1.282 . S
C237 O238 1.261 . S
C237 O250 1.251 . S
O238 C237 1.261 . S
H239 C233 0.930 . S
H240 C235 0.930 . S
N241 Cu230 1.985 . S
N241 C243 1.335 . S
N241 C244 1.390 . S
N242 C243 1.345 . S
N242 C245 1.336 . S
C243 N241 1.335 . S
C243 N242 1.345 . S
C243 H248 0.930 . S
C244 N241 1.390 . S
C244 C245 1.346 . S
C244 H249 0.930 . S
C245 N242 1.336 . S
C245 C244 1.346 . S
C245 H252 0.929 . S
C246 O236 1.282 . S
C246 O247 1.216 . S
O247 C246 1.216 . S
H248 C243 0.930 . S
H249 C244 0.930 . S
O250 Cu230 1.959 . S
O250 C237 1.251 . S
H251 C234 0.930 . S
H252 C245 0.929 . S
Cu253 N254 1.999 . S
Cu253 O259 1.974 . S
Cu253 N264 1.985 . S
Cu253 O273 1.959 . S
N254 Cu253 1.999 . S
N254 C256 1.263 . S
N254 C258 1.389 . S
N255 C256 1.358 . S
N255 C257 1.400 . S
C256 N254 1.263 . S
C256 N255 1.358 . S
C256 H262 0.930 . S
C257 N255 1.400 . S
C257 C258 1.351 . S
C257 H274 0.930 . S
C258 N254 1.389 . S
C258 C257 1.351 . S
C258 H263 0.930 . S
O259 Cu253 1.974 . S
O259 C269 1.282 . S
C260 O261 1.261 . S
C260 O273 1.251 . S
O261 C260 1.261 . S
H262 C256 0.930 . S
H263 C258 0.930 . S
N264 Cu253 1.985 . S
N264 C266 1.335 . S
N264 C267 1.390 . S
N265 C266 1.345 . S
N265 C268 1.336 . S
C266 N264 1.335 . S
C266 N265 1.345 . S
C266 H271 0.930 . S
C267 N264 1.390 . S
C267 C268 1.346 . S
C267 H272 0.930 . S
C268 N265 1.336 . S
C268 C267 1.346 . S
C268 H275 0.929 . S
C269 O259 1.282 . S
C269 O270 1.216 . S
O270 C269 1.216 . S
H271 C266 0.930 . S
H272 C267 0.930 . S
O273 Cu253 1.959 . S
O273 C260 1.251 . S
H274 C257 0.930 . S
H275 C268 0.929 . S
Gd276 N307 2.661 . S
Gd276 N313 2.601 . S
Gd276 O320 2.545 . S
Gd276 O321 2.606 . S
Gd276 O323 2.429 . S
Gd276 O324 2.545 . S
Gd276 O325 2.412 . S
Gd276 O327 2.362 . S
Gd276 O328 2.324 . S
Gd276 C335 2.828 . S
Gd277 N286 2.661 . S
Gd277 N290 2.601 . S
Gd277 O321 2.362 . S
Gd277 O322 2.324 . S
Gd277 O326 2.545 . S
Gd277 O327 2.606 . S
Gd277 O329 2.429 . S
Gd277 O330 2.545 . S
Gd277 O331 2.412 . S
Gd277 C344 2.828 . S
C278 C281 1.417 . S
C278 C283 1.431 . S
C278 C284 1.412 . S
C279 C282 1.437 . S
C279 C283 1.317 . S
C279 H298 0.929 . S
C280 C281 1.426 . S
C280 C282 1.413 . S
C280 N290 1.359 . S
C281 C278 1.417 . S
C281 C280 1.426 . S
C281 N286 1.350 . S
C282 C279 1.437 . S
C282 C280 1.413 . S
C282 C292 1.391 . S
C283 C278 1.431 . S
C283 C279 1.317 . S
C283 H294 0.930 . S
C284 C278 1.412 . S
C284 C285 1.355 . S
C284 H296 0.930 . S
C285 C284 1.355 . S
C285 C287 1.402 . S
C285 H297 0.930 . S
N286 Gd277 2.661 . S
N286 C281 1.350 . S
N286 C287 1.307 . S
C287 C285 1.402 . S
C287 N286 1.307 . S
C287 H288 0.930 . S
H288 C287 0.930 . S
C289 N290 1.334 . S
C289 C291 1.394 . S
C289 H293 0.930 . S
N290 Gd277 2.601 . S
N290 C280 1.359 . S
N290 C289 1.334 . S
C291 C289 1.394 . S
C291 C292 1.359 . S
C291 H303 0.930 . S
C292 C282 1.391 . S
C292 C291 1.359 . S
C292 H304 0.929 . S
H293 C289 0.930 . S
H294 C283 0.930 . S
H295 C312 0.930 . S
H296 C284 0.930 . S
H297 C285 0.930 . S
H298 C279 0.929 . S
H299 C317 0.930 . S
H300 C308 0.930 . S
H301 C309 0.930 . S
H302 C333 0.929 . S
H303 C291 0.930 . S
H304 C292 0.929 . S
H305 C334 0.930 . S
H306 C315 0.930 . S
N307 Gd276 2.661 . S
N307 C311 1.350 . S
N307 C312 1.307 . S
C308 H300 0.930 . S
C308 C309 1.355 . S
C308 C310 1.412 . S
C309 H301 0.930 . S
C309 C308 1.355 . S
C309 C312 1.402 . S
C310 C308 1.412 . S
C310 C311 1.417 . S
C310 C334 1.431 . S
C311 N307 1.350 . S
C311 C310 1.417 . S
C311 C314 1.426 . S
C312 H295 0.930 . S
C312 N307 1.307 . S
C312 C309 1.402 . S
N313 Gd276 2.601 . S
N313 C314 1.359 . S
N313 C317 1.334 . S
C314 C311 1.426 . S
C314 N313 1.359 . S
C314 C318 1.413 . S
C315 H306 0.930 . S
C315 C316 1.359 . S
C315 C317 1.394 . S
C316 C315 1.359 . S
C316 C318 1.391 . S
C316 H319 0.929 . S
C317 H299 0.930 . S
C317 N313 1.334 . S
C317 C315 1.394 . S
C318 C314 1.413 . S
C318 C316 1.391 . S
C318 C333 1.437 . S
H319 C316 0.929 . S
O320 Gd276 2.545 . S
O320 C335 1.258 . S
O321 Gd276 2.606 . S
O321 Gd277 2.362 . S
O321 C332 1.284 . S
O322 Gd277 2.324 . S
O322 C342 1.254 . S
O323 Gd276 2.429 . S
O323 C342 1.268 . S
O324 Gd276 2.545 . S
O324 C332 1.250 . S
O325 Gd276 2.412 . S
O325 C335 1.252 . S
O326 Gd277 2.545 . S
O326 C344 1.258 . S
O327 Gd276 2.362 . S
O327 Gd277 2.606 . S
O327 C343 1.284 . S
O328 Gd276 2.324 . S
O328 C351 1.254 . S
O329 Gd277 2.429 . S
O329 C351 1.268 . S
O330 Gd277 2.545 . S
O330 C343 1.250 . S
O331 Gd277 2.412 . S
O331 C344 1.252 . S
C332 O321 1.284 . S
C332 O324 1.250 . S
C333 H302 0.929 . S
C333 C318 1.437 . S
C333 C334 1.317 . S
C334 H305 0.930 . S
C334 C310 1.431 . S
C334 C333 1.317 . S
C335 Gd276 2.828 . S
C335 O320 1.258 . S
C335 O325 1.252 . S
C335 C336 1.497 . S
C336 C335 1.497 . S
C336 C337 1.395 . S
C336 C338 1.380 . S
C337 C336 1.395 . S
C337 C340 1.398 . S
C337 H352 0.930 . S
C338 C336 1.380 . S
C338 C339 1.391 . S
C338 H353 0.930 . S
C339 C338 1.391 . S
C339 C341 1.387 . S
C340 C337 1.398 . S
C340 C341 1.380 . S
C340 H354 0.930 . S
C341 C339 1.387 . S
C341 C340 1.380 . S
C341 H355 0.930 . S
C342 O322 1.254 . S
C342 O323 1.268 . S
C343 O327 1.284 . S
C343 O330 1.250 . S
C344 Gd277 2.828 . S
C344 O326 1.258 . S
C344 O331 1.252 . S
C344 C345 1.497 . S
C345 C344 1.497 . S
C345 C346 1.395 . S
C345 C347 1.380 . S
C346 C345 1.395 . S
C346 C349 1.398 . S
C346 H356 0.930 . S
C347 C345 1.380 . S
C347 C348 1.391 . S
C347 H357 0.930 . S
C348 C347 1.391 . S
C348 C350 1.387 . S
C349 C346 1.398 . S
C349 C350 1.380 . S
C349 H358 0.930 . S
C350 C348 1.387 . S
C350 C349 1.380 . S
C350 H359 0.930 . S
C351 O328 1.254 . S
C351 O329 1.268 . S
H352 C337 0.930 . S
H353 C338 0.930 . S
H354 C340 0.930 . S
H355 C341 0.930 . S
H356 C346 0.930 . S
H357 C347 0.930 . S
H358 C349 0.930 . S
H359 C350 0.930 . S
Gd360 N391 2.661 . S
Gd360 N397 2.601 . S
Gd360 O404 2.545 . S
Gd360 O405 2.606 . S
Gd360 O407 2.429 . S
Gd360 O408 2.545 . S
Gd360 O409 2.412 . S
Gd360 O411 2.362 . S
Gd360 O412 2.324 . S
Gd360 C419 2.828 . S
Gd361 N370 2.661 . S
Gd361 N374 2.601 . S
Gd361 O405 2.362 . S
Gd361 O406 2.324 . S
Gd361 O410 2.545 . S
Gd361 O411 2.606 . S
Gd361 O413 2.429 . S
Gd361 O414 2.545 . S
Gd361 O415 2.412 . S
Gd361 C428 2.828 . S
C362 C365 1.417 . S
C362 C367 1.431 . S
C362 C368 1.412 . S
C363 C366 1.437 . S
C363 C367 1.317 . S
C363 H382 0.929 . S
C364 C365 1.426 . S
C364 C366 1.413 . S
C364 N374 1.359 . S
C365 C362 1.417 . S
C365 C364 1.426 . S
C365 N370 1.350 . S
C366 C363 1.437 . S
C366 C364 1.413 . S
C366 C376 1.391 . S
C367 C362 1.431 . S
C367 C363 1.317 . S
C367 H378 0.930 . S
C368 C362 1.412 . S
C368 C369 1.355 . S
C368 H380 0.930 . S
C369 C368 1.355 . S
C369 C371 1.402 . S
C369 H381 0.930 . S
N370 Gd361 2.661 . S
N370 C365 1.350 . S
N370 C371 1.307 . S
C371 C369 1.402 . S
C371 N370 1.307 . S
C371 H372 0.930 . S
H372 C371 0.930 . S
C373 N374 1.334 . S
C373 C375 1.394 . S
C373 H377 0.930 . S
N374 Gd361 2.601 . S
N374 C364 1.359 . S
N374 C373 1.334 . S
C375 C373 1.394 . S
C375 C376 1.359 . S
C375 H387 0.930 . S
C376 C366 1.391 . S
C376 C375 1.359 . S
C376 H388 0.929 . S
H377 C373 0.930 . S
H378 C367 0.930 . S
H379 C396 0.930 . S
H380 C368 0.930 . S
H381 C369 0.930 . S
H382 C363 0.929 . S
H383 C401 0.930 . S
H384 C392 0.930 . S
H385 C393 0.930 . S
H386 C417 0.929 . S
H387 C375 0.930 . S
H388 C376 0.929 . S
H389 C418 0.930 . S
H390 C399 0.930 . S
N391 Gd360 2.661 . S
N391 C395 1.350 . S
N391 C396 1.307 . S
C392 H384 0.930 . S
C392 C393 1.355 . S
C392 C394 1.412 . S
C393 H385 0.930 . S
C393 C392 1.355 . S
C393 C396 1.402 . S
C394 C392 1.412 . S
C394 C395 1.417 . S
C394 C418 1.431 . S
C395 N391 1.350 . S
C395 C394 1.417 . S
C395 C398 1.426 . S
C396 H379 0.930 . S
C396 N391 1.307 . S
C396 C393 1.402 . S
N397 Gd360 2.601 . S
N397 C398 1.359 . S
N397 C401 1.334 . S
C398 C395 1.426 . S
C398 N397 1.359 . S
C398 C402 1.413 . S
C399 H390 0.930 . S
C399 C400 1.359 . S
C399 C401 1.394 . S
C400 C399 1.359 . S
C400 C402 1.391 . S
C400 H403 0.929 . S
C401 H383 0.930 . S
C401 N397 1.334 . S
C401 C399 1.394 . S
C402 C398 1.413 . S
C402 C400 1.391 . S
C402 C417 1.437 . S
H403 C400 0.929 . S
O404 Gd360 2.545 . S
O404 C419 1.258 . S
O405 Gd360 2.606 . S
O405 Gd361 2.362 . S
O405 C416 1.284 . S
O406 Gd361 2.324 . S
O406 C426 1.254 . S
O407 Gd360 2.429 . S
O407 C426 1.268 . S
O408 Gd360 2.545 . S
O408 C416 1.250 . S
O409 Gd360 2.412 . S
O409 C419 1.252 . S
O410 Gd361 2.545 . S
O410 C428 1.258 . S
O411 Gd360 2.362 . S
O411 Gd361 2.606 . S
O411 C427 1.284 . S
O412 Gd360 2.324 . S
O412 C435 1.254 . S
O413 Gd361 2.429 . S
O413 C435 1.268 . S
O414 Gd361 2.545 . S
O414 C427 1.250 . S
O415 Gd361 2.412 . S
O415 C428 1.252 . S
C416 O405 1.284 . S
C416 O408 1.250 . S
C417 H386 0.929 . S
C417 C402 1.437 . S
C417 C418 1.317 . S
C418 H389 0.930 . S
C418 C394 1.431 . S
C418 C417 1.317 . S
C419 Gd360 2.828 . S
C419 O404 1.258 . S
C419 O409 1.252 . S
C419 C420 1.497 . S
C420 C419 1.497 . S
C420 C421 1.395 . S
C420 C422 1.380 . S
C421 C420 1.395 . S
C421 C424 1.398 . S
C421 H436 0.930 . S
C422 C420 1.380 . S
C422 C423 1.391 . S
C422 H437 0.930 . S
C423 C422 1.391 . S
C423 C425 1.387 . S
C424 C421 1.398 . S
C424 C425 1.380 . S
C424 H438 0.930 . S
C425 C423 1.387 . S
C425 C424 1.380 . S
C425 H439 0.930 . S
C426 O406 1.254 . S
C426 O407 1.268 . S
C427 O411 1.284 . S
C427 O414 1.250 . S
C428 Gd361 2.828 . S
C428 O410 1.258 . S
C428 O415 1.252 . S
C428 C429 1.497 . S
C429 C428 1.497 . S
C429 C430 1.395 . S
C429 C431 1.380 . S
C430 C429 1.395 . S
C430 C433 1.398 . S
C430 H440 0.930 . S
C431 C429 1.380 . S
C431 C432 1.391 . S
C431 H441 0.930 . S
C432 C431 1.391 . S
C432 C434 1.387 . S
C433 C430 1.398 . S
C433 C434 1.380 . S
C433 H442 0.930 . S
C434 C432 1.387 . S
C434 C433 1.380 . S
C434 H443 0.930 . S
C435 O412 1.254 . S
C435 O413 1.268 . S
H436 C421 0.930 . S
H437 C422 0.930 . S
H438 C424 0.930 . S
H439 C425 0.930 . S
H440 C430 0.930 . S
H441 C431 0.930 . S
H442 C433 0.930 . S
H443 C434 0.930 . S
Gd444 N475 2.661 . S
Gd444 N481 2.601 . S
Gd444 O488 2.545 . S
Gd444 O489 2.606 . S
Gd444 O491 2.429 . S
Gd444 O492 2.545 . S
Gd444 O493 2.412 . S
Gd444 O495 2.362 . S
Gd444 O496 2.324 . S
Gd444 C503 2.828 . S
Gd445 N454 2.661 . S
Gd445 N458 2.601 . S
Gd445 O489 2.362 . S
Gd445 O490 2.324 . S
Gd445 O494 2.545 . S
Gd445 O495 2.606 . S
Gd445 O497 2.429 . S
Gd445 O498 2.545 . S
Gd445 O499 2.412 . S
Gd445 C512 2.828 . S
C446 C449 1.417 . S
C446 C451 1.431 . S
C446 C452 1.412 . S
C447 C450 1.437 . S
C447 C451 1.317 . S
C447 H466 0.929 . S
C448 C449 1.426 . S
C448 C450 1.413 . S
C448 N458 1.359 . S
C449 C446 1.417 . S
C449 C448 1.426 . S
C449 N454 1.350 . S
C450 C447 1.437 . S
C450 C448 1.413 . S
C450 C460 1.391 . S
C451 C446 1.431 . S
C451 C447 1.317 . S
C451 H462 0.930 . S
C452 C446 1.412 . S
C452 C453 1.355 . S
C452 H464 0.930 . S
C453 C452 1.355 . S
C453 C455 1.402 . S
C453 H465 0.930 . S
N454 Gd445 2.661 . S
N454 C449 1.350 . S
N454 C455 1.307 . S
C455 C453 1.402 . S
C455 N454 1.307 . S
C455 H456 0.930 . S
H456 C455 0.930 . S
C457 N458 1.334 . S
C457 C459 1.394 . S
C457 H461 0.930 . S
N458 Gd445 2.601 . S
N458 C448 1.359 . S
N458 C457 1.334 . S
C459 C457 1.394 . S
C459 C460 1.359 . S
C459 H471 0.930 . S
C460 C450 1.391 . S
C460 C459 1.359 . S
C460 H472 0.929 . S
H461 C457 0.930 . S
H462 C451 0.930 . S
H463 C480 0.930 . S
H464 C452 0.930 . S
H465 C453 0.930 . S
H466 C447 0.929 . S
H467 C485 0.930 . S
H468 C476 0.930 . S
H469 C477 0.930 . S
H470 C501 0.929 . S
H471 C459 0.930 . S
H472 C460 0.929 . S
H473 C502 0.930 . S
H474 C483 0.930 . S
N475 Gd444 2.661 . S
N475 C479 1.350 . S
N475 C480 1.307 . S
C476 H468 0.930 . S
C476 C477 1.355 . S
C476 C478 1.412 . S
C477 H469 0.930 . S
C477 C476 1.355 . S
C477 C480 1.402 . S
C478 C476 1.412 . S
C478 C479 1.417 . S
C478 C502 1.431 . S
C479 N475 1.350 . S
C479 C478 1.417 . S
C479 C482 1.426 . S
C480 H463 0.930 . S
C480 N475 1.307 . S
C480 C477 1.402 . S
N481 Gd444 2.601 . S
N481 C482 1.359 . S
N481 C485 1.334 . S
C482 C479 1.426 . S
C482 N481 1.359 . S
C482 C486 1.413 . S
C483 H474 0.930 . S
C483 C484 1.359 . S
C483 C485 1.394 . S
C484 C483 1.359 . S
C484 C486 1.391 . S
C484 H487 0.929 . S
C485 H467 0.930 . S
C485 N481 1.334 . S
C485 C483 1.394 . S
C486 C482 1.413 . S
C486 C484 1.391 . S
C486 C501 1.437 . S
H487 C484 0.929 . S
O488 Gd444 2.545 . S
O488 C503 1.258 . S
O489 Gd444 2.606 . S
O489 Gd445 2.362 . S
O489 C500 1.284 . S
O490 Gd445 2.324 . S
O490 C510 1.254 . S
O491 Gd444 2.429 . S
O491 C510 1.268 . S
O492 Gd444 2.545 . S
O492 C500 1.250 . S
O493 Gd444 2.412 . S
O493 C503 1.252 . S
O494 Gd445 2.545 . S
O494 C512 1.258 . S
O495 Gd444 2.362 . S
O495 Gd445 2.606 . S
O495 C511 1.284 . S
O496 Gd444 2.324 . S
O496 C519 1.254 . S
O497 Gd445 2.429 . S
O497 C519 1.268 . S
O498 Gd445 2.545 . S
O498 C511 1.250 . S
O499 Gd445 2.412 . S
O499 C512 1.252 . S
C500 O489 1.284 . S
C500 O492 1.250 . S
C501 H470 0.929 . S
C501 C486 1.437 . S
C501 C502 1.317 . S
C502 H473 0.930 . S
C502 C478 1.431 . S
C502 C501 1.317 . S
C503 Gd444 2.828 . S
C503 O488 1.258 . S
C503 O493 1.252 . S
C503 C504 1.497 . S
C504 C503 1.497 . S
C504 C505 1.395 . S
C504 C506 1.380 . S
C505 C504 1.395 . S
C505 C508 1.398 . S
C505 H520 0.930 . S
C506 C504 1.380 . S
C506 C507 1.391 . S
C506 H521 0.930 . S
C507 C506 1.391 . S
C507 C509 1.387 . S
C508 C505 1.398 . S
C508 C509 1.380 . S
C508 H522 0.930 . S
C509 C507 1.387 . S
C509 C508 1.380 . S
C509 H523 0.930 . S
C510 O490 1.254 . S
C510 O491 1.268 . S
C511 O495 1.284 . S
C511 O498 1.250 . S
C512 Gd445 2.828 . S
C512 O494 1.258 . S
C512 O499 1.252 . S
C512 C513 1.497 . S
C513 C512 1.497 . S
C513 C514 1.395 . S
C513 C515 1.380 . S
C514 C513 1.395 . S
C514 C517 1.398 . S
C514 H524 0.930 . S
C515 C513 1.380 . S
C515 C516 1.391 . S
C515 H525 0.930 . S
C516 C515 1.391 . S
C516 C518 1.387 . S
C517 C514 1.398 . S
C517 C518 1.380 . S
C517 H526 0.930 . S
C518 C516 1.387 . S
C518 C517 1.380 . S
C518 H527 0.930 . S
C519 O496 1.254 . S
C519 O497 1.268 . S
H520 C505 0.930 . S
H521 C506 0.930 . S
H522 C508 0.930 . S
H523 C509 0.930 . S
H524 C514 0.930 . S
H525 C515 0.930 . S
H526 C517 0.930 . S
H527 C518 0.930 . S
Gd528 N559 2.661 . S
Gd528 N565 2.601 . S
Gd528 O572 2.545 . S
Gd528 O573 2.606 . S
Gd528 O575 2.429 . S
Gd528 O576 2.545 . S
Gd528 O577 2.412 . S
Gd528 O579 2.362 . S
Gd528 O580 2.324 . S
Gd528 C587 2.828 . S
Gd529 N538 2.661 . S
Gd529 N542 2.601 . S
Gd529 O573 2.362 . S
Gd529 O574 2.324 . S
Gd529 O578 2.545 . S
Gd529 O579 2.606 . S
Gd529 O581 2.429 . S
Gd529 O582 2.545 . S
Gd529 O583 2.412 . S
Gd529 C596 2.828 . S
C530 C533 1.417 . S
C530 C535 1.431 . S
C530 C536 1.412 . S
C531 C534 1.437 . S
C531 C535 1.317 . S
C531 H550 0.929 . S
C532 C533 1.426 . S
C532 C534 1.413 . S
C532 N542 1.359 . S
C533 C530 1.417 . S
C533 C532 1.426 . S
C533 N538 1.350 . S
C534 C531 1.437 . S
C534 C532 1.413 . S
C534 C544 1.391 . S
C535 C530 1.431 . S
C535 C531 1.317 . S
C535 H546 0.930 . S
C536 C530 1.412 . S
C536 C537 1.355 . S
C536 H548 0.930 . S
C537 C536 1.355 . S
C537 C539 1.402 . S
C537 H549 0.930 . S
N538 Gd529 2.661 . S
N538 C533 1.350 . S
N538 C539 1.307 . S
C539 C537 1.402 . S
C539 N538 1.307 . S
C539 H540 0.930 . S
H540 C539 0.930 . S
C541 N542 1.334 . S
C541 C543 1.394 . S
C541 H545 0.930 . S
N542 Gd529 2.601 . S
N542 C532 1.359 . S
N542 C541 1.334 . S
C543 C541 1.394 . S
C543 C544 1.359 . S
C543 H555 0.930 . S
C544 C534 1.391 . S
C544 C543 1.359 . S
C544 H556 0.929 . S
H545 C541 0.930 . S
H546 C535 0.930 . S
H547 C564 0.930 . S
H548 C536 0.930 . S
H549 C537 0.930 . S
H550 C531 0.929 . S
H551 C569 0.930 . S
H552 C560 0.930 . S
H553 C561 0.930 . S
H554 C585 0.929 . S
H555 C543 0.930 . S
H556 C544 0.929 . S
H557 C586 0.930 . S
H558 C567 0.930 . S
N559 Gd528 2.661 . S
N559 C563 1.350 . S
N559 C564 1.307 . S
C560 H552 0.930 . S
C560 C561 1.355 . S
C560 C562 1.412 . S
C561 H553 0.930 . S
C561 C560 1.355 . S
C561 C564 1.402 . S
C562 C560 1.412 . S
C562 C563 1.417 . S
C562 C586 1.431 . S
C563 N559 1.350 . S
C563 C562 1.417 . S
C563 C566 1.426 . S
C564 H547 0.930 . S
C564 N559 1.307 . S
C564 C561 1.402 . S
N565 Gd528 2.601 . S
N565 C566 1.359 . S
N565 C569 1.334 . S
C566 C563 1.426 . S
C566 N565 1.359 . S
C566 C570 1.413 . S
C567 H558 0.930 . S
C567 C568 1.359 . S
C567 C569 1.394 . S
C568 C567 1.359 . S
C568 C570 1.391 . S
C568 H571 0.929 . S
C569 H551 0.930 . S
C569 N565 1.334 . S
C569 C567 1.394 . S
C570 C566 1.413 . S
C570 C568 1.391 . S
C570 C585 1.437 . S
H571 C568 0.929 . S
O572 Gd528 2.545 . S
O572 C587 1.258 . S
O573 Gd528 2.606 . S
O573 Gd529 2.362 . S
O573 C584 1.284 . S
O574 Gd529 2.324 . S
O574 C594 1.254 . S
O575 Gd528 2.429 . S
O575 C594 1.268 . S
O576 Gd528 2.545 . S
O576 C584 1.250 . S
O577 Gd528 2.412 . S
O577 C587 1.252 . S
O578 Gd529 2.545 . S
O578 C596 1.258 . S
O579 Gd528 2.362 . S
O579 Gd529 2.606 . S
O579 C595 1.284 . S
O580 Gd528 2.324 . S
O580 C603 1.254 . S
O581 Gd529 2.429 . S
O581 C603 1.268 . S
O582 Gd529 2.545 . S
O582 C595 1.250 . S
O583 Gd529 2.412 . S
O583 C596 1.252 . S
C584 O573 1.284 . S
C584 O576 1.250 . S
C585 H554 0.929 . S
C585 C570 1.437 . S
C585 C586 1.317 . S
C586 H557 0.930 . S
C586 C562 1.431 . S
C586 C585 1.317 . S
C587 Gd528 2.828 . S
C587 O572 1.258 . S
C587 O577 1.252 . S
C587 C588 1.497 . S
C588 C587 1.497 . S
C588 C589 1.395 . S
C588 C590 1.380 . S
C589 C588 1.395 . S
C589 C592 1.398 . S
C589 H604 0.930 . S
C590 C588 1.380 . S
C590 C591 1.391 . S
C590 H605 0.930 . S
C591 C590 1.391 . S
C591 C593 1.387 . S
C592 C589 1.398 . S
C592 C593 1.380 . S
C592 H606 0.930 . S
C593 C591 1.387 . S
C593 C592 1.380 . S
C593 H607 0.930 . S
C594 O574 1.254 . S
C594 O575 1.268 . S
C595 O579 1.284 . S
C595 O582 1.250 . S
C596 Gd529 2.828 . S
C596 O578 1.258 . S
C596 O583 1.252 . S
C596 C597 1.497 . S
C597 C596 1.497 . S
C597 C598 1.395 . S
C597 C599 1.380 . S
C598 C597 1.395 . S
C598 C601 1.398 . S
C598 H608 0.930 . S
C599 C597 1.380 . S
C599 C600 1.391 . S
C599 H609 0.930 . S
C600 C599 1.391 . S
C600 C602 1.387 . S
C601 C598 1.398 . S
C601 C602 1.380 . S
C601 H610 0.930 . S
C602 C600 1.387 . S
C602 C601 1.380 . S
C602 H611 0.930 . S
C603 O580 1.254 . S
C603 O581 1.268 . S
H604 C589 0.930 . S
H605 C590 0.930 . S
H606 C592 0.930 . S
H607 C593 0.930 . S
H608 C598 0.930 . S
H609 C599 0.930 . S
H610 C601 0.930 . S
H611 C602 0.930 . S
Gd612 N643 2.661 . S
Gd612 N649 2.601 . S
Gd612 O656 2.545 . S
Gd612 O657 2.606 . S
Gd612 O659 2.429 . S
Gd612 O660 2.545 . S
Gd612 O661 2.412 . S
Gd612 O663 2.362 . S
Gd612 O664 2.324 . S
Gd612 C671 2.828 . S
Gd613 N622 2.661 . S
Gd613 N626 2.601 . S
Gd613 O657 2.362 . S
Gd613 O658 2.324 . S
Gd613 O662 2.545 . S
Gd613 O663 2.606 . S
Gd613 O665 2.429 . S
Gd613 O666 2.545 . S
Gd613 O667 2.412 . S
Gd613 C680 2.828 . S
C614 C617 1.417 . S
C614 C619 1.431 . S
C614 C620 1.412 . S
C615 C618 1.437 . S
C615 C619 1.317 . S
C615 H634 0.929 . S
C616 C617 1.426 . S
C616 C618 1.413 . S
C616 N626 1.359 . S
C617 C614 1.417 . S
C617 C616 1.426 . S
C617 N622 1.350 . S
C618 C615 1.437 . S
C618 C616 1.413 . S
C618 C628 1.391 . S
C619 C614 1.431 . S
C619 C615 1.317 . S
C619 H630 0.930 . S
C620 C614 1.412 . S
C620 C621 1.355 . S
C620 H632 0.930 . S
C621 C620 1.355 . S
C621 C623 1.402 . S
C621 H633 0.930 . S
N622 Gd613 2.661 . S
N622 C617 1.350 . S
N622 C623 1.307 . S
C623 C621 1.402 . S
C623 N622 1.307 . S
C623 H624 0.930 . S
H624 C623 0.930 . S
C625 N626 1.334 . S
C625 C627 1.394 . S
C625 H629 0.930 . S
N626 Gd613 2.601 . S
N626 C616 1.359 . S
N626 C625 1.334 . S
C627 C625 1.394 . S
C627 C628 1.359 . S
C627 H639 0.930 . S
C628 C618 1.391 . S
C628 C627 1.359 . S
C628 H640 0.929 . S
H629 C625 0.930 . S
H630 C619 0.930 . S
H631 C648 0.930 . S
H632 C620 0.930 . S
H633 C621 0.930 . S
H634 C615 0.929 . S
H635 C653 0.930 . S
H636 C644 0.930 . S
H637 C645 0.930 . S
H638 C669 0.929 . S
H639 C627 0.930 . S
H640 C628 0.929 . S
H641 C670 0.930 . S
H642 C651 0.930 . S
N643 Gd612 2.661 . S
N643 C647 1.350 . S
N643 C648 1.307 . S
C644 H636 0.930 . S
C644 C645 1.355 . S
C644 C646 1.412 . S
C645 H637 0.930 . S
C645 C644 1.355 . S
C645 C648 1.402 . S
C646 C644 1.412 . S
C646 C647 1.417 . S
C646 C670 1.431 . S
C647 N643 1.350 . S
C647 C646 1.417 . S
C647 C650 1.426 . S
C648 H631 0.930 . S
C648 N643 1.307 . S
C648 C645 1.402 . S
N649 Gd612 2.601 . S
N649 C650 1.359 . S
N649 C653 1.334 . S
C650 C647 1.426 . S
C650 N649 1.359 . S
C650 C654 1.413 . S
C651 H642 0.930 . S
C651 C652 1.359 . S
C651 C653 1.394 . S
C652 C651 1.359 . S
C652 C654 1.391 . S
C652 H655 0.929 . S
C653 H635 0.930 . S
C653 N649 1.334 . S
C653 C651 1.394 . S
C654 C650 1.413 . S
C654 C652 1.391 . S
C654 C669 1.437 . S
H655 C652 0.929 . S
O656 Gd612 2.545 . S
O656 C671 1.258 . S
O657 Gd612 2.606 . S
O657 Gd613 2.362 . S
O657 C668 1.284 . S
O658 Gd613 2.324 . S
O658 C678 1.254 . S
O659 Gd612 2.429 . S
O659 C678 1.268 . S
O660 Gd612 2.545 . S
O660 C668 1.250 . S
O661 Gd612 2.412 . S
O661 C671 1.252 . S
O662 Gd613 2.545 . S
O662 C680 1.258 . S
O663 Gd612 2.362 . S
O663 Gd613 2.606 . S
O663 C679 1.284 . S
O664 Gd612 2.324 . S
O664 C687 1.254 . S
O665 Gd613 2.429 . S
O665 C687 1.268 . S
O666 Gd613 2.545 . S
O666 C679 1.250 . S
O667 Gd613 2.412 . S
O667 C680 1.252 . S
C668 O657 1.284 . S
C668 O660 1.250 . S
C669 H638 0.929 . S
C669 C654 1.437 . S
C669 C670 1.317 . S
C670 H641 0.930 . S
C670 C646 1.431 . S
C670 C669 1.317 . S
C671 Gd612 2.828 . S
C671 O656 1.258 . S
C671 O661 1.252 . S
C671 C672 1.497 . S
C672 C671 1.497 . S
C672 C673 1.395 . S
C672 C674 1.380 . S
C673 C672 1.395 . S
C673 C676 1.398 . S
C673 H688 0.930 . S
C674 C672 1.380 . S
C674 C675 1.391 . S
C674 H689 0.930 . S
C675 C674 1.391 . S
C675 C677 1.387 . S
C676 C673 1.398 . S
C676 C677 1.380 . S
C676 H690 0.930 . S
C677 C675 1.387 . S
C677 C676 1.380 . S
C677 H691 0.930 . S
C678 O658 1.254 . S
C678 O659 1.268 . S
C679 O663 1.284 . S
C679 O666 1.250 . S
C680 Gd613 2.828 . S
C680 O662 1.258 . S
C680 O667 1.252 . S
C680 C681 1.497 . S
C681 C680 1.497 . S
C681 C682 1.395 . S
C681 C683 1.380 . S
C682 C681 1.395 . S
C682 C685 1.398 . S
C682 H692 0.930 . S
C683 C681 1.380 . S
C683 C684 1.391 . S
C683 H693 0.930 . S
C684 C683 1.391 . S
C684 C686 1.387 . S
C685 C682 1.398 . S
C685 C686 1.380 . S
C685 H694 0.930 . S
C686 C684 1.387 . S
C686 C685 1.380 . S
C686 H695 0.930 . S
C687 O664 1.254 . S
C687 O665 1.268 . S
H688 C673 0.930 . S
H689 C674 0.930 . S
H690 C676 0.930 . S
H691 C677 0.930 . S
H692 C682 0.930 . S
H693 C683 0.930 . S
H694 C685 0.930 . S
H695 C686 0.930 . S
Gd696 N727 2.661 . S
Gd696 N733 2.601 . S
Gd696 O740 2.545 . S
Gd696 O741 2.606 . S
Gd696 O743 2.429 . S
Gd696 O744 2.545 . S
Gd696 O745 2.412 . S
Gd696 O747 2.362 . S
Gd696 O748 2.324 . S
Gd696 C755 2.828 . S
Gd697 N706 2.661 . S
Gd697 N710 2.601 . S
Gd697 O741 2.362 . S
Gd697 O742 2.324 . S
Gd697 O746 2.545 . S
Gd697 O747 2.606 . S
Gd697 O749 2.429 . S
Gd697 O750 2.545 . S
Gd697 O751 2.412 . S
Gd697 C764 2.828 . S
C698 C701 1.417 . S
C698 C703 1.431 . S
C698 C704 1.412 . S
C699 C702 1.437 . S
C699 C703 1.317 . S
C699 H718 0.929 . S
C700 C701 1.426 . S
C700 C702 1.413 . S
C700 N710 1.359 . S
C701 C698 1.417 . S
C701 C700 1.426 . S
C701 N706 1.350 . S
C702 C699 1.437 . S
C702 C700 1.413 . S
C702 C712 1.391 . S
C703 C698 1.431 . S
C703 C699 1.317 . S
C703 H714 0.930 . S
C704 C698 1.412 . S
C704 C705 1.355 . S
C704 H716 0.930 . S
C705 C704 1.355 . S
C705 C707 1.402 . S
C705 H717 0.930 . S
N706 Gd697 2.661 . S
N706 C701 1.350 . S
N706 C707 1.307 . S
C707 C705 1.402 . S
C707 N706 1.307 . S
C707 H708 0.930 . S
H708 C707 0.930 . S
C709 N710 1.334 . S
C709 C711 1.394 . S
C709 H713 0.930 . S
N710 Gd697 2.601 . S
N710 C700 1.359 . S
N710 C709 1.334 . S
C711 C709 1.394 . S
C711 C712 1.359 . S
C711 H723 0.930 . S
C712 C702 1.391 . S
C712 C711 1.359 . S
C712 H724 0.929 . S
H713 C709 0.930 . S
H714 C703 0.930 . S
H715 C732 0.930 . S
H716 C704 0.930 . S
H717 C705 0.930 . S
H718 C699 0.929 . S
H719 C737 0.930 . S
H720 C728 0.930 . S
H721 C729 0.930 . S
H722 C753 0.929 . S
H723 C711 0.930 . S
H724 C712 0.929 . S
H725 C754 0.930 . S
H726 C735 0.930 . S
N727 Gd696 2.661 . S
N727 C731 1.350 . S
N727 C732 1.307 . S
C728 H720 0.930 . S
C728 C729 1.355 . S
C728 C730 1.412 . S
C729 H721 0.930 . S
C729 C728 1.355 . S
C729 C732 1.402 . S
C730 C728 1.412 . S
C730 C731 1.417 . S
C730 C754 1.431 . S
C731 N727 1.350 . S
C731 C730 1.417 . S
C731 C734 1.426 . S
C732 H715 0.930 . S
C732 N727 1.307 . S
C732 C729 1.402 . S
N733 Gd696 2.601 . S
N733 C734 1.359 . S
N733 C737 1.334 . S
C734 C731 1.426 . S
C734 N733 1.359 . S
C734 C738 1.413 . S
C735 H726 0.930 . S
C735 C736 1.359 . S
C735 C737 1.394 . S
C736 C735 1.359 . S
C736 C738 1.391 . S
C736 H739 0.929 . S
C737 H719 0.930 . S
C737 N733 1.334 . S
C737 C735 1.394 . S
C738 C734 1.413 . S
C738 C736 1.391 . S
C738 C753 1.437 . S
H739 C736 0.929 . S
O740 Gd696 2.545 . S
O740 C755 1.258 . S
O741 Gd696 2.606 . S
O741 Gd697 2.362 . S
O741 C752 1.284 . S
O742 Gd697 2.324 . S
O742 C762 1.254 . S
O743 Gd696 2.429 . S
O743 C762 1.268 . S
O744 Gd696 2.545 . S
O744 C752 1.250 . S
O745 Gd696 2.412 . S
O745 C755 1.252 . S
O746 Gd697 2.545 . S
O746 C764 1.258 . S
O747 Gd696 2.362 . S
O747 Gd697 2.606 . S
O747 C763 1.284 . S
O748 Gd696 2.324 . S
O748 C771 1.254 . S
O749 Gd697 2.429 . S
O749 C771 1.268 . S
O750 Gd697 2.545 . S
O750 C763 1.250 . S
O751 Gd697 2.412 . S
O751 C764 1.252 . S
C752 O741 1.284 . S
C752 O744 1.250 . S
C753 H722 0.929 . S
C753 C738 1.437 . S
C753 C754 1.317 . S
C754 H725 0.930 . S
C754 C730 1.431 . S
C754 C753 1.317 . S
C755 Gd696 2.828 . S
C755 O740 1.258 . S
C755 O745 1.252 . S
C755 C756 1.497 . S
C756 C755 1.497 . S
C756 C757 1.395 . S
C756 C758 1.380 . S
C757 C756 1.395 . S
C757 C760 1.398 . S
C757 H772 0.930 . S
C758 C756 1.380 . S
C758 C759 1.391 . S
C758 H773 0.930 . S
C759 C758 1.391 . S
C759 C761 1.387 . S
C760 C757 1.398 . S
C760 C761 1.380 . S
C760 H774 0.930 . S
C761 C759 1.387 . S
C761 C760 1.380 . S
C761 H775 0.930 . S
C762 O742 1.254 . S
C762 O743 1.268 . S
C763 O747 1.284 . S
C763 O750 1.250 . S
C764 Gd697 2.828 . S
C764 O746 1.258 . S
C764 O751 1.252 . S
C764 C765 1.497 . S
C765 C764 1.497 . S
C765 C766 1.395 . S
C765 C767 1.380 . S
C766 C765 1.395 . S
C766 C769 1.398 . S
C766 H776 0.930 . S
C767 C765 1.380 . S
C767 C768 1.391 . S
C767 H777 0.930 . S
C768 C767 1.391 . S
C768 C770 1.387 . S
C769 C766 1.398 . S
C769 C770 1.380 . S
C769 H778 0.930 . S
C770 C768 1.387 . S
C770 C769 1.380 . S
C770 H779 0.930 . S
C771 O748 1.254 . S
C771 O749 1.268 . S
H772 C757 0.930 . S
H773 C758 0.930 . S
H774 C760 0.930 . S
H775 C761 0.930 . S
H776 C766 0.930 . S
H777 C767 0.930 . S
H778 C769 0.930 . S
H779 C770 0.930 . S
Gd780 N811 2.661 . S
Gd780 N817 2.601 . S
Gd780 O824 2.545 . S
Gd780 O825 2.606 . S
Gd780 O827 2.429 . S
Gd780 O828 2.545 . S
Gd780 O829 2.412 . S
Gd780 O831 2.362 . S
Gd780 O832 2.324 . S
Gd780 C839 2.828 . S
Gd781 N790 2.661 . S
Gd781 N794 2.601 . S
Gd781 O825 2.362 . S
Gd781 O826 2.324 . S
Gd781 O830 2.545 . S
Gd781 O831 2.606 . S
Gd781 O833 2.429 . S
Gd781 O834 2.545 . S
Gd781 O835 2.412 . S
Gd781 C848 2.828 . S
C782 C785 1.417 . S
C782 C787 1.431 . S
C782 C788 1.412 . S
C783 C786 1.437 . S
C783 C787 1.317 . S
C783 H802 0.929 . S
C784 C785 1.426 . S
C784 C786 1.413 . S
C784 N794 1.359 . S
C785 C782 1.417 . S
C785 C784 1.426 . S
C785 N790 1.350 . S
C786 C783 1.437 . S
C786 C784 1.413 . S
C786 C796 1.391 . S
C787 C782 1.431 . S
C787 C783 1.317 . S
C787 H798 0.930 . S
C788 C782 1.412 . S
C788 C789 1.355 . S
C788 H800 0.930 . S
C789 C788 1.355 . S
C789 C791 1.402 . S
C789 H801 0.930 . S
N790 Gd781 2.661 . S
N790 C785 1.350 . S
N790 C791 1.307 . S
C791 C789 1.402 . S
C791 N790 1.307 . S
C791 H792 0.930 . S
H792 C791 0.930 . S
C793 N794 1.334 . S
C793 C795 1.394 . S
C793 H797 0.930 . S
N794 Gd781 2.601 . S
N794 C784 1.359 . S
N794 C793 1.334 . S
C795 C793 1.394 . S
C795 C796 1.359 . S
C795 H807 0.930 . S
C796 C786 1.391 . S
C796 C795 1.359 . S
C796 H808 0.929 . S
H797 C793 0.930 . S
H798 C787 0.930 . S
H799 C816 0.930 . S
H800 C788 0.930 . S
H801 C789 0.930 . S
H802 C783 0.929 . S
H803 C821 0.930 . S
H804 C812 0.930 . S
H805 C813 0.930 . S
H806 C837 0.929 . S
H807 C795 0.930 . S
H808 C796 0.929 . S
H809 C838 0.930 . S
H810 C819 0.930 . S
N811 Gd780 2.661 . S
N811 C815 1.350 . S
N811 C816 1.307 . S
C812 H804 0.930 . S
C812 C813 1.355 . S
C812 C814 1.412 . S
C813 H805 0.930 . S
C813 C812 1.355 . S
C813 C816 1.402 . S
C814 C812 1.412 . S
C814 C815 1.417 . S
C814 C838 1.431 . S
C815 N811 1.350 . S
C815 C814 1.417 . S
C815 C818 1.426 . S
C816 H799 0.930 . S
C816 N811 1.307 . S
C816 C813 1.402 . S
N817 Gd780 2.601 . S
N817 C818 1.359 . S
N817 C821 1.334 . S
C818 C815 1.426 . S
C818 N817 1.359 . S
C818 C822 1.413 . S
C819 H810 0.930 . S
C819 C820 1.359 . S
C819 C821 1.394 . S
C820 C819 1.359 . S
C820 C822 1.391 . S
C820 H823 0.929 . S
C821 H803 0.930 . S
C821 N817 1.334 . S
C821 C819 1.394 . S
C822 C818 1.413 . S
C822 C820 1.391 . S
C822 C837 1.437 . S
H823 C820 0.929 . S
O824 Gd780 2.545 . S
O824 C839 1.258 . S
O825 Gd780 2.606 . S
O825 Gd781 2.362 . S
O825 C836 1.284 . S
O826 Gd781 2.324 . S
O826 C846 1.254 . S
O827 Gd780 2.429 . S
O827 C846 1.268 . S
O828 Gd780 2.545 . S
O828 C836 1.250 . S
O829 Gd780 2.412 . S
O829 C839 1.252 . S
O830 Gd781 2.545 . S
O830 C848 1.258 . S
O831 Gd780 2.362 . S
O831 Gd781 2.606 . S
O831 C847 1.284 . S
O832 Gd780 2.324 . S
O832 C855 1.254 . S
O833 Gd781 2.429 . S
O833 C855 1.268 . S
O834 Gd781 2.545 . S
O834 C847 1.250 . S
O835 Gd781 2.412 . S
O835 C848 1.252 . S
C836 O825 1.284 . S
C836 O828 1.250 . S
C837 H806 0.929 . S
C837 C822 1.437 . S
C837 C838 1.317 . S
C838 H809 0.930 . S
C838 C814 1.431 . S
C838 C837 1.317 . S
C839 Gd780 2.828 . S
C839 O824 1.258 . S
C839 O829 1.252 . S
C839 C840 1.497 . S
C840 C839 1.497 . S
C840 C841 1.395 . S
C840 C842 1.380 . S
C841 C840 1.395 . S
C841 C844 1.398 . S
C841 H856 0.930 . S
C842 C840 1.380 . S
C842 C843 1.391 . S
C842 H857 0.930 . S
C843 C842 1.391 . S
C843 C845 1.387 . S
C844 C841 1.398 . S
C844 C845 1.380 . S
C844 H858 0.930 . S
C845 C843 1.387 . S
C845 C844 1.380 . S
C845 H859 0.930 . S
C846 O826 1.254 . S
C846 O827 1.268 . S
C847 O831 1.284 . S
C847 O834 1.250 . S
C848 Gd781 2.828 . S
C848 O830 1.258 . S
C848 O835 1.252 . S
C848 C849 1.497 . S
C849 C848 1.497 . S
C849 C850 1.395 . S
C849 C851 1.380 . S
C850 C849 1.395 . S
C850 C853 1.398 . S
C850 H860 0.930 . S
C851 C849 1.380 . S
C851 C852 1.391 . S
C851 H861 0.930 . S
C852 C851 1.391 . S
C852 C854 1.387 . S
C853 C850 1.398 . S
C853 C854 1.380 . S
C853 H862 0.930 . S
C854 C852 1.387 . S
C854 C853 1.380 . S
C854 H863 0.930 . S
C855 O832 1.254 . S
C855 O833 1.268 . S
H856 C841 0.930 . S
H857 C842 0.930 . S
H858 C844 0.930 . S
H859 C845 0.930 . S
H860 C850 0.930 . S
H861 C851 0.930 . S
H862 C853 0.930 . S
H863 C854 0.930 . S
Gd864 N895 2.661 . S
Gd864 N901 2.601 . S
Gd864 O908 2.545 . S
Gd864 O909 2.606 . S
Gd864 O911 2.429 . S
Gd864 O912 2.545 . S
Gd864 O913 2.412 . S
Gd864 O915 2.362 . S
Gd864 O916 2.324 . S
Gd864 C923 2.828 . S
Gd865 N874 2.661 . S
Gd865 N878 2.601 . S
Gd865 O909 2.362 . S
Gd865 O910 2.324 . S
Gd865 O914 2.545 . S
Gd865 O915 2.606 . S
Gd865 O917 2.429 . S
Gd865 O918 2.545 . S
Gd865 O919 2.412 . S
Gd865 C932 2.828 . S
C866 C869 1.417 . S
C866 C871 1.431 . S
C866 C872 1.412 . S
C867 C870 1.437 . S
C867 C871 1.317 . S
C867 H886 0.929 . S
C868 C869 1.426 . S
C868 C870 1.413 . S
C868 N878 1.359 . S
C869 C866 1.417 . S
C869 C868 1.426 . S
C869 N874 1.350 . S
C870 C867 1.437 . S
C870 C868 1.413 . S
C870 C880 1.391 . S
C871 C866 1.431 . S
C871 C867 1.317 . S
C871 H882 0.930 . S
C872 C866 1.412 . S
C872 C873 1.355 . S
C872 H884 0.930 . S
C873 C872 1.355 . S
C873 C875 1.402 . S
C873 H885 0.930 . S
N874 Gd865 2.661 . S
N874 C869 1.350 . S
N874 C875 1.307 . S
C875 C873 1.402 . S
C875 N874 1.307 . S
C875 H876 0.930 . S
H876 C875 0.930 . S
C877 N878 1.334 . S
C877 C879 1.394 . S
C877 H881 0.930 . S
N878 Gd865 2.601 . S
N878 C868 1.359 . S
N878 C877 1.334 . S
C879 C877 1.394 . S
C879 C880 1.359 . S
C879 H891 0.930 . S
C880 C870 1.391 . S
C880 C879 1.359 . S
C880 H892 0.929 . S
H881 C877 0.930 . S
H882 C871 0.930 . S
H883 C900 0.930 . S
H884 C872 0.930 . S
H885 C873 0.930 . S
H886 C867 0.929 . S
H887 C905 0.930 . S
H888 C896 0.930 . S
H889 C897 0.930 . S
H890 C921 0.929 . S
H891 C879 0.930 . S
H892 C880 0.929 . S
H893 C922 0.930 . S
H894 C903 0.930 . S
N895 Gd864 2.661 . S
N895 C899 1.350 . S
N895 C900 1.307 . S
C896 H888 0.930 . S
C896 C897 1.355 . S
C896 C898 1.412 . S
C897 H889 0.930 . S
C897 C896 1.355 . S
C897 C900 1.402 . S
C898 C896 1.412 . S
C898 C899 1.417 . S
C898 C922 1.431 . S
C899 N895 1.350 . S
C899 C898 1.417 . S
C899 C902 1.426 . S
C900 H883 0.930 . S
C900 N895 1.307 . S
C900 C897 1.402 . S
N901 Gd864 2.601 . S
N901 C902 1.359 . S
N901 C905 1.334 . S
C902 C899 1.426 . S
C902 N901 1.359 . S
C902 C906 1.413 . S
C903 H894 0.930 . S
C903 C904 1.359 . S
C903 C905 1.394 . S
C904 C903 1.359 . S
C904 C906 1.391 . S
C904 H907 0.929 . S
C905 H887 0.930 . S
C905 N901 1.334 . S
C905 C903 1.394 . S
C906 C902 1.413 . S
C906 C904 1.391 . S
C906 C921 1.437 . S
H907 C904 0.929 . S
O908 Gd864 2.545 . S
O908 C923 1.258 . S
O909 Gd864 2.606 . S
O909 Gd865 2.362 . S
O909 C920 1.284 . S
O910 Gd865 2.324 . S
O910 C930 1.254 . S
O911 Gd864 2.429 . S
O911 C930 1.268 . S
O912 Gd864 2.545 . S
O912 C920 1.250 . S
O913 Gd864 2.412 . S
O913 C923 1.252 . S
O914 Gd865 2.545 . S
O914 C932 1.258 . S
O915 Gd864 2.362 . S
O915 Gd865 2.606 . S
O915 C931 1.284 . S
O916 Gd864 2.324 . S
O916 C939 1.254 . S
O917 Gd865 2.429 . S
O917 C939 1.268 . S
O918 Gd865 2.545 . S
O918 C931 1.250 . S
O919 Gd865 2.412 . S
O919 C932 1.252 . S
C920 O909 1.284 . S
C920 O912 1.250 . S
C921 H890 0.929 . S
C921 C906 1.437 . S
C921 C922 1.317 . S
C922 H893 0.930 . S
C922 C898 1.431 . S
C922 C921 1.317 . S
C923 Gd864 2.828 . S
C923 O908 1.258 . S
C923 O913 1.252 . S
C923 C924 1.497 . S
C924 C923 1.497 . S
C924 C925 1.395 . S
C924 C926 1.380 . S
C925 C924 1.395 . S
C925 C928 1.398 . S
C925 H940 0.930 . S
C926 C924 1.380 . S
C926 C927 1.391 . S
C926 H941 0.930 . S
C927 C926 1.391 . S
C927 C929 1.387 . S
C928 C925 1.398 . S
C928 C929 1.380 . S
C928 H942 0.930 . S
C929 C927 1.387 . S
C929 C928 1.380 . S
C929 H943 0.930 . S
C930 O910 1.254 . S
C930 O911 1.268 . S
C931 O915 1.284 . S
C931 O918 1.250 . S
C932 Gd865 2.828 . S
C932 O914 1.258 . S
C932 O919 1.252 . S
C932 C933 1.497 . S
C933 C932 1.497 . S
C933 C934 1.395 . S
C933 C935 1.380 . S
C934 C933 1.395 . S
C934 C937 1.398 . S
C934 H944 0.930 . S
C935 C933 1.380 . S
C935 C936 1.391 . S
C935 H945 0.930 . S
C936 C935 1.391 . S
C936 C938 1.387 . S
C937 C934 1.398 . S
C937 C938 1.380 . S
C937 H946 0.930 . S
C938 C936 1.387 . S
C938 C937 1.380 . S
C938 H947 0.930 . S
C939 O916 1.254 . S
C939 O917 1.268 . S
H940 C925 0.930 . S
H941 C926 0.930 . S
H942 C928 0.930 . S
H943 C929 0.930 . S
H944 C934 0.930 . S
H945 C935 0.930 . S
H946 C937 0.930 . S
H947 C938 0.930 . S
C948 C949 1.391 . S
C948 C950 1.394 . S
C948 H964 0.931 . S
C949 C948 1.391 . S
C949 C953 1.376 . S
C950 C948 1.394 . S
C950 C951 1.369 . S
C950 C954 1.531 . S
C951 C950 1.369 . S
C951 C952 1.410 . S
C951 C959 1.503 . S
C952 C951 1.410 . S
C952 C953 1.392 . S
C952 C955 1.511 . S
C953 C949 1.376 . S
C953 C952 1.392 . S
C953 H965 0.929 . S
C954 C950 1.531 . S
C954 H966 0.960 . S
C954 H967 0.962 . S
C954 H968 0.960 . S
C955 C952 1.511 . S
C955 H969 0.961 . S
C955 H970 0.961 . S
C955 H971 0.961 . S
C956 C957 1.370 . S
C956 C958 1.363 . S
C956 H972 0.931 . S
C957 C956 1.370 . S
C957 C961 1.408 . S
C958 C956 1.363 . S
C958 C959 1.370 . S
C958 C962 1.524 . S
C959 C951 1.503 . S
C959 C958 1.370 . S
C959 C960 1.403 . S
C960 C959 1.403 . S
C960 C961 1.404 . S
C960 C963 1.539 . S
C961 C957 1.408 . S
C961 C960 1.404 . S
C961 H973 0.930 . S
C962 C958 1.524 . S
C962 H974 0.956 . S
C962 H975 0.961 . S
C962 H976 0.961 . S
C963 C960 1.539 . S
C963 H977 0.958 . S
C963 H978 0.961 . S
C963 H979 0.960 . S
H964 C948 0.931 . S
H965 C953 0.929 . S
H966 C954 0.960 . S
H967 C954 0.962 . S
H968 C954 0.960 . S
H969 C955 0.961 . S
H970 C955 0.961 . S
H971 C955 0.961 . S
H972 C956 0.931 . S
H973 C961 0.930 . S
H974 C962 0.956 . S
H975 C962 0.961 . S
H976 C962 0.961 . S
H977 C963 0.958 . S
H978 C963 0.961 . S
H979 C963 0.960 . S
C980 C981 1.391 . S
C980 C982 1.394 . S
C980 H996 0.931 . S
C981 C980 1.391 . S
C981 C985 1.376 . S
C982 C980 1.394 . S
C982 C983 1.369 . S
C982 C986 1.531 . S
C983 C982 1.369 . S
C983 C984 1.410 . S
C983 C991 1.503 . S
C984 C983 1.410 . S
C984 C985 1.392 . S
C984 C987 1.511 . S
C985 C981 1.376 . S
C985 C984 1.392 . S
C985 H997 0.929 . S
C986 C982 1.531 . S
C986 H998 0.960 . S
C986 H999 0.962 . S
C986 H1000 0.960 . S
C987 C984 1.511 . S
C987 H1001 0.961 . S
C987 H1002 0.961 . S
C987 H1003 0.961 . S
C988 C989 1.370 . S
C988 C990 1.363 . S
C988 H1004 0.931 . S
C989 C988 1.370 . S
C989 C993 1.408 . S
C990 C988 1.363 . S
C990 C991 1.370 . S
C990 C994 1.524 . S
C991 C983 1.503 . S
C991 C990 1.370 . S
C991 C992 1.403 . S
C992 C991 1.403 . S
C992 C993 1.404 . S
C992 C995 1.539 . S
C993 C989 1.408 . S
C993 C992 1.404 . S
C993 H1005 0.930 . S
C994 C990 1.524 . S
C994 H1006 0.956 . S
C994 H1007 0.961 . S
C994 H1008 0.961 . S
C995 C992 1.539 . S
C995 H1009 0.958 . S
C995 H1010 0.961 . S
C995 H1011 0.960 . S
H996 C980 0.931 . S
H997 C985 0.929 . S
H998 C986 0.960 . S
H999 C986 0.962 . S
H1000 C986 0.960 . S
H1001 C987 0.961 . S
H1002 C987 0.961 . S
H1003 C987 0.961 . S
H1004 C988 0.931 . S
H1005 C993 0.930 . S
H1006 C994 0.956 . S
H1007 C994 0.961 . S
H1008 C994 0.961 . S
H1009 C995 0.958 . S
H1010 C995 0.961 . S
H1011 C995 0.960 . S
C1012 C1013 1.391 . S
C1012 C1014 1.394 . S
C1012 H1028 0.931 . S
C1013 C1012 1.391 . S
C1013 C1017 1.376 . S
C1014 C1012 1.394 . S
C1014 C1015 1.369 . S
C1014 C1018 1.531 . S
C1015 C1014 1.369 . S
C1015 C1016 1.410 . S
C1015 C1023 1.503 . S
C1016 C1015 1.410 . S
C1016 C1017 1.392 . S
C1016 C1019 1.511 . S
C1017 C1013 1.376 . S
C1017 C1016 1.392 . S
C1017 H1029 0.929 . S
C1018 C1014 1.531 . S
C1018 H1030 0.960 . S
C1018 H1031 0.962 . S
C1018 H1032 0.960 . S
C1019 C1016 1.511 . S
C1019 H1033 0.961 . S
C1019 H1034 0.961 . S
C1019 H1035 0.961 . S
C1020 C1021 1.370 . S
C1020 C1022 1.363 . S
C1020 H1036 0.931 . S
C1021 C1020 1.370 . S
C1021 C1025 1.408 . S
C1022 C1020 1.363 . S
C1022 C1023 1.370 . S
C1022 C1026 1.524 . S
C1023 C1015 1.503 . S
C1023 C1022 1.370 . S
C1023 C1024 1.403 . S
C1024 C1023 1.403 . S
C1024 C1025 1.404 . S
C1024 C1027 1.539 . S
C1025 C1021 1.408 . S
C1025 C1024 1.404 . S
C1025 H1037 0.930 . S
C1026 C1022 1.524 . S
C1026 H1038 0.956 . S
C1026 H1039 0.961 . S
C1026 H1040 0.961 . S
C1027 C1024 1.539 . S
C1027 H1041 0.958 . S
C1027 H1042 0.961 . S
C1027 H1043 0.960 . S
H1028 C1012 0.931 . S
H1029 C1017 0.929 . S
H1030 C1018 0.960 . S
H1031 C1018 0.962 . S
H1032 C1018 0.960 . S
H1033 C1019 0.961 . S
H1034 C1019 0.961 . S
H1035 C1019 0.961 . S
H1036 C1020 0.931 . S
H1037 C1025 0.930 . S
H1038 C1026 0.956 . S
H1039 C1026 0.961 . S
H1040 C1026 0.961 . S
H1041 C1027 0.958 . S
H1042 C1027 0.961 . S
H1043 C1027 0.960 . S
C1044 C1045 1.391 . S
C1044 C1046 1.394 . S
C1044 H1060 0.931 . S
C1045 C1044 1.391 . S
C1045 C1049 1.376 . S
C1046 C1044 1.394 . S
C1046 C1047 1.369 . S
C1046 C1050 1.531 . S
C1047 C1046 1.369 . S
C1047 C1048 1.410 . S
C1047 C1055 1.503 . S
C1048 C1047 1.410 . S
C1048 C1049 1.392 . S
C1048 C1051 1.511 . S
C1049 C1045 1.376 . S
C1049 C1048 1.392 . S
C1049 H1061 0.929 . S
C1050 C1046 1.531 . S
C1050 H1062 0.960 . S
C1050 H1063 0.962 . S
C1050 H1064 0.960 . S
C1051 C1048 1.511 . S
C1051 H1065 0.961 . S
C1051 H1066 0.961 . S
C1051 H1067 0.961 . S
C1052 C1053 1.370 . S
C1052 C1054 1.363 . S
C1052 H1068 0.931 . S
C1053 C1052 1.370 . S
C1053 C1057 1.408 . S
C1054 C1052 1.363 . S
C1054 C1055 1.370 . S
C1054 C1058 1.524 . S
C1055 C1047 1.503 . S
C1055 C1054 1.370 . S
C1055 C1056 1.403 . S
C1056 C1055 1.403 . S
C1056 C1057 1.404 . S
C1056 C1059 1.539 . S
C1057 C1053 1.408 . S
C1057 C1056 1.404 . S
C1057 H1069 0.930 . S
C1058 C1054 1.524 . S
C1058 H1070 0.956 . S
C1058 H1071 0.961 . S
C1058 H1072 0.961 . S
C1059 C1056 1.539 . S
C1059 H1073 0.958 . S
C1059 H1074 0.961 . S
C1059 H1075 0.960 . S
H1060 C1044 0.931 . S
H1061 C1049 0.929 . S
H1062 C1050 0.960 . S
H1063 C1050 0.962 . S
H1064 C1050 0.960 . S
H1065 C1051 0.961 . S
H1066 C1051 0.961 . S
H1067 C1051 0.961 . S
H1068 C1052 0.931 . S
H1069 C1057 0.930 . S
H1070 C1058 0.956 . S
H1071 C1058 0.961 . S
H1072 C1058 0.961 . S
H1073 C1059 0.958 . S
H1074 C1059 0.961 . S
H1075 C1059 0.960 . S
C1076 C1077 1.391 . S
C1076 C1078 1.394 . S
C1076 H1092 0.931 . S
C1077 C1076 1.391 . S
C1077 C1081 1.376 . S
C1078 C1076 1.394 . S
C1078 C1079 1.369 . S
C1078 C1082 1.531 . S
C1079 C1078 1.369 . S
C1079 C1080 1.410 . S
C1079 C1087 1.503 . S
C1080 C1079 1.410 . S
C1080 C1081 1.392 . S
C1080 C1083 1.511 . S
C1081 C1077 1.376 . S
C1081 C1080 1.392 . S
C1081 H1093 0.929 . S
C1082 C1078 1.531 . S
C1082 H1094 0.960 . S
C1082 H1095 0.962 . S
C1082 H1096 0.960 . S
C1083 C1080 1.511 . S
C1083 H1097 0.961 . S
C1083 H1098 0.961 . S
C1083 H1099 0.961 . S
C1084 C1085 1.370 . S
C1084 C1086 1.363 . S
C1084 H1100 0.931 . S
C1085 C1084 1.370 . S
C1085 C1089 1.408 . S
C1086 C1084 1.363 . S
C1086 C1087 1.370 . S
C1086 C1090 1.524 . S
C1087 C1079 1.503 . S
C1087 C1086 1.370 . S
C1087 C1088 1.403 . S
C1088 C1087 1.403 . S
C1088 C1089 1.404 . S
C1088 C1091 1.539 . S
C1089 C1085 1.408 . S
C1089 C1088 1.404 . S
C1089 H1101 0.930 . S
C1090 C1086 1.524 . S
C1090 H1102 0.956 . S
C1090 H1103 0.961 . S
C1090 H1104 0.961 . S
C1091 C1088 1.539 . S
C1091 H1105 0.958 . S
C1091 H1106 0.961 . S
C1091 H1107 0.960 . S
H1092 C1076 0.931 . S
H1093 C1081 0.929 . S
H1094 C1082 0.960 . S
H1095 C1082 0.962 . S
H1096 C1082 0.960 . S
H1097 C1083 0.961 . S
H1098 C1083 0.961 . S
H1099 C1083 0.961 . S
H1100 C1084 0.931 . S
H1101 C1089 0.930 . S
H1102 C1090 0.956 . S
H1103 C1090 0.961 . S
H1104 C1090 0.961 . S
H1105 C1091 0.958 . S
H1106 C1091 0.961 . S
H1107 C1091 0.960 . S
C1108 C1109 1.391 . S
C1108 C1110 1.394 . S
C1108 H1124 0.931 . S
C1109 C1108 1.391 . S
C1109 C1113 1.376 . S
C1110 C1108 1.394 . S
C1110 C1111 1.369 . S
C1110 C1114 1.531 . S
C1111 C1110 1.369 . S
C1111 C1112 1.410 . S
C1111 C1119 1.503 . S
C1112 C1111 1.410 . S
C1112 C1113 1.392 . S
C1112 C1115 1.511 . S
C1113 C1109 1.376 . S
C1113 C1112 1.392 . S
C1113 H1125 0.929 . S
C1114 C1110 1.531 . S
C1114 H1126 0.960 . S
C1114 H1127 0.962 . S
C1114 H1128 0.960 . S
C1115 C1112 1.511 . S
C1115 H1129 0.961 . S
C1115 H1130 0.961 . S
C1115 H1131 0.961 . S
C1116 C1117 1.370 . S
C1116 C1118 1.363 . S
C1116 H1132 0.931 . S
C1117 C1116 1.370 . S
C1117 C1121 1.408 . S
C1118 C1116 1.363 . S
C1118 C1119 1.370 . S
C1118 C1122 1.524 . S
C1119 C1111 1.503 . S
C1119 C1118 1.370 . S
C1119 C1120 1.403 . S
C1120 C1119 1.403 . S
C1120 C1121 1.404 . S
C1120 C1123 1.539 . S
C1121 C1117 1.408 . S
C1121 C1120 1.404 . S
C1121 H1133 0.930 . S
C1122 C1118 1.524 . S
C1122 H1134 0.956 . S
C1122 H1135 0.961 . S
C1122 H1136 0.961 . S
C1123 C1120 1.539 . S
C1123 H1137 0.958 . S
C1123 H1138 0.961 . S
C1123 H1139 0.960 . S
H1124 C1108 0.931 . S
H1125 C1113 0.929 . S
H1126 C1114 0.960 . S
H1127 C1114 0.962 . S
H1128 C1114 0.960 . S
H1129 C1115 0.961 . S
H1130 C1115 0.961 . S
H1131 C1115 0.961 . S
H1132 C1116 0.931 . S
H1133 C1121 0.930 . S
H1134 C1122 0.956 . S
H1135 C1122 0.961 . S
H1136 C1122 0.961 . S
H1137 C1123 0.958 . S
H1138 C1123 0.961 . S
H1139 C1123 0.960 . S
C1140 C1141 1.391 . S
C1140 C1142 1.394 . S
C1140 H1156 0.931 . S
C1141 C1140 1.391 . S
C1141 C1145 1.376 . S
C1142 C1140 1.394 . S
C1142 C1143 1.369 . S
C1142 C1146 1.531 . S
C1143 C1142 1.369 . S
C1143 C1144 1.410 . S
C1143 C1151 1.503 . S
C1144 C1143 1.410 . S
C1144 C1145 1.392 . S
C1144 C1147 1.511 . S
C1145 C1141 1.376 . S
C1145 C1144 1.392 . S
C1145 H1157 0.929 . S
C1146 C1142 1.531 . S
C1146 H1158 0.960 . S
C1146 H1159 0.962 . S
C1146 H1160 0.960 . S
C1147 C1144 1.511 . S
C1147 H1161 0.961 . S
C1147 H1162 0.961 . S
C1147 H1163 0.961 . S
C1148 C1149 1.370 . S
C1148 C1150 1.363 . S
C1148 H1164 0.931 . S
C1149 C1148 1.370 . S
C1149 C1153 1.408 . S
C1150 C1148 1.363 . S
C1150 C1151 1.370 . S
C1150 C1154 1.524 . S
C1151 C1143 1.503 . S
C1151 C1150 1.370 . S
C1151 C1152 1.403 . S
C1152 C1151 1.403 . S
C1152 C1153 1.404 . S
C1152 C1155 1.539 . S
C1153 C1149 1.408 . S
C1153 C1152 1.404 . S
C1153 H1165 0.930 . S
C1154 C1150 1.524 . S
C1154 H1166 0.956 . S
C1154 H1167 0.961 . S
C1154 H1168 0.961 . S
C1155 C1152 1.539 . S
C1155 H1169 0.958 . S
C1155 H1170 0.961 . S
C1155 H1171 0.960 . S
H1156 C1140 0.931 . S
H1157 C1145 0.929 . S
H1158 C1146 0.960 . S
H1159 C1146 0.962 . S
H1160 C1146 0.960 . S
H1161 C1147 0.961 . S
H1162 C1147 0.961 . S
H1163 C1147 0.961 . S
H1164 C1148 0.931 . S
H1165 C1153 0.930 . S
H1166 C1154 0.956 . S
H1167 C1154 0.961 . S
H1168 C1154 0.961 . S
H1169 C1155 0.958 . S
H1170 C1155 0.961 . S
H1171 C1155 0.960 . S
C1172 C1173 1.391 . S
C1172 C1174 1.394 . S
C1172 H1188 0.931 . S
C1173 C1172 1.391 . S
C1173 C1177 1.383 . S
C1174 C1172 1.394 . S
C1174 C1175 1.369 . S
C1174 C1178 1.531 . S
C1175 C1174 1.369 . S
C1175 C1176 1.410 . S
C1175 C1183 1.503 . S
C1176 C1175 1.410 . S
C1176 C1177 1.423 . S
C1176 C1179 1.511 . S
C1177 C1173 1.383 . S
C1177 C1176 1.423 . S
C1177 H1189 0.892 1_565 S
C1178 C1174 1.531 . S
C1178 H1190 0.960 . S
C1178 H1191 0.962 . S
C1178 H1192 0.960 . S
C1179 C1176 1.511 . S
C1179 H1193 0.961 1_565 S
C1179 H1194 0.961 . S
C1179 H1195 0.961 1_565 S
C1180 C1181 1.370 . S
C1180 C1182 1.363 . S
C1180 H1196 0.931 . S
C1181 C1180 1.370 . S
C1181 C1185 1.408 . S
C1182 C1180 1.363 . S
C1182 C1183 1.370 . S
C1182 C1186 1.524 . S
C1183 C1175 1.503 . S
C1183 C1182 1.370 . S
C1183 C1184 1.403 . S
C1184 C1183 1.403 . S
C1184 C1185 1.404 . S
C1184 C1187 1.539 . S
C1185 C1181 1.408 . S
C1185 C1184 1.404 . S
C1185 H1197 0.930 . S
C1186 C1182 1.524 . S
C1186 H1198 0.956 . S
C1186 H1199 0.961 . S
C1186 H1200 0.961 . S
C1187 C1184 1.539 . S
C1187 H1201 0.958 . S
C1187 H1202 0.961 . S
C1187 H1203 0.960 . S
H1188 C1172 0.931 . S
H1189 C1177 0.892 1_545 S
H1190 C1178 0.960 . S
H1191 C1178 0.962 . S
H1192 C1178 0.960 . S
H1193 C1179 0.961 1_545 S
H1194 C1179 0.961 . S
H1195 C1179 0.961 1_545 S
H1196 C1180 0.931 . S
H1197 C1185 0.930 . S
H1198 C1186 0.956 . S
H1199 C1186 0.961 . S
H1200 C1186 0.961 . S
H1201 C1187 0.958 . S
H1202 C1187 0.961 . S
H1203 C1187 0.960 . S
C1204 C1205 1.391 . S
C1204 C1206 1.394 . S
C1204 H1220 0.931 . S
C1205 C1204 1.391 . S
C1205 C1209 1.376 . S
C1206 C1204 1.394 . S
C1206 C1207 1.369 . S
C1206 C1210 1.531 . S
C1207 C1206 1.369 . S
C1207 C1208 1.410 . S
C1207 C1215 1.503 . S
C1208 C1207 1.410 . S
C1208 C1209 1.392 . S
C1208 C1211 1.511 . S
C1209 C1205 1.376 . S
C1209 C1208 1.392 . S
C1209 H1221 0.929 . S
C1210 C1206 1.531 . S
C1210 H1222 0.960 . S
C1210 H1223 0.962 . S
C1210 H1224 0.960 . S
C1211 C1208 1.511 . S
C1211 H1225 0.961 . S
C1211 H1226 0.961 . S
C1211 H1227 0.961 . S
C1212 C1213 1.370 . S
C1212 C1214 1.363 . S
C1212 H1228 0.931 . S
C1213 C1212 1.370 . S
C1213 C1217 1.408 . S
C1214 C1212 1.363 . S
C1214 C1215 1.370 . S
C1214 C1218 1.524 . S
C1215 C1207 1.503 . S
C1215 C1214 1.370 . S
C1215 C1216 1.403 . S
C1216 C1215 1.403 . S
C1216 C1217 1.404 . S
C1216 C1219 1.539 . S
C1217 C1213 1.408 . S
C1217 C1216 1.404 . S
C1217 H1229 0.930 . S
C1218 C1214 1.524 . S
C1218 H1230 0.956 . S
C1218 H1231 0.961 . S
C1218 H1232 0.961 . S
C1219 C1216 1.539 . S
C1219 H1233 0.958 . S
C1219 H1234 0.961 . S
C1219 H1235 0.960 . S
H1220 C1204 0.931 . S
H1221 C1209 0.929 . S
H1222 C1210 0.960 . S
H1223 C1210 0.962 . S
H1224 C1210 0.960 . S
H1225 C1211 0.961 . S
H1226 C1211 0.961 . S
H1227 C1211 0.961 . S
H1228 C1212 0.931 . S
H1229 C1217 0.930 . S
H1230 C1218 0.956 . S
H1231 C1218 0.961 . S
H1232 C1218 0.961 . S
H1233 C1219 0.958 . S
H1234 C1219 0.961 . S
H1235 C1219 0.960 . S
C1236 C1237 1.391 . S
C1236 C1238 1.394 . S
C1236 H1252 0.931 . S
C1237 C1236 1.391 . S
C1237 C1241 1.376 . S
C1238 C1236 1.394 . S
C1238 C1239 1.369 . S
C1238 C1242 1.531 . S
C1239 C1238 1.369 . S
C1239 C1240 1.410 . S
C1239 C1247 1.503 . S
C1240 C1239 1.410 . S
C1240 C1241 1.392 . S
C1240 C1243 1.511 . S
C1241 C1237 1.376 . S
C1241 C1240 1.392 . S
C1241 H1253 0.929 . S
C1242 C1238 1.531 . S
C1242 H1254 0.960 . S
C1242 H1255 0.962 . S
C1242 H1256 0.960 . S
C1243 C1240 1.511 . S
C1243 H1257 0.961 . S
C1243 H1258 0.961 . S
C1243 H1259 0.961 . S
C1244 C1245 1.370 . S
C1244 C1246 1.363 . S
C1244 H1260 0.931 . S
C1245 C1244 1.370 . S
C1245 C1249 1.408 . S
C1246 C1244 1.363 . S
C1246 C1247 1.370 . S
C1246 C1250 1.524 . S
C1247 C1239 1.503 . S
C1247 C1246 1.370 . S
C1247 C1248 1.403 . S
C1248 C1247 1.403 . S
C1248 C1249 1.404 . S
C1248 C1251 1.539 . S
C1249 C1245 1.408 . S
C1249 C1248 1.404 . S
C1249 H1261 0.930 . S
C1250 C1246 1.524 . S
C1250 H1262 0.956 . S
C1250 H1263 0.961 . S
C1250 H1264 0.961 . S
C1251 C1248 1.539 . S
C1251 H1265 0.958 . S
C1251 H1266 0.961 . S
C1251 H1267 0.960 . S
H1252 C1236 0.931 . S
H1253 C1241 0.929 . S
H1254 C1242 0.960 . S
H1255 C1242 0.962 . S
H1256 C1242 0.960 . S
H1257 C1243 0.961 . S
H1258 C1243 0.961 . S
H1259 C1243 0.961 . S
H1260 C1244 0.931 . S
H1261 C1249 0.930 . S
H1262 C1250 0.956 . S
H1263 C1250 0.961 . S
H1264 C1250 0.961 . S
H1265 C1251 0.958 . S
H1266 C1251 0.961 . S
H1267 C1251 0.960 . S
C1268 C1269 1.391 . S
C1268 C1270 1.394 . S
C1268 H1284 0.931 . S
C1269 C1268 1.391 . S
C1269 C1273 1.376 . S
C1270 C1268 1.394 . S
C1270 C1271 1.369 . S
C1270 C1274 1.531 . S
C1271 C1270 1.369 . S
C1271 C1272 1.410 . S
C1271 C1279 1.503 . S
C1272 C1271 1.410 . S
C1272 C1273 1.392 . S
C1272 C1275 1.511 . S
C1273 C1269 1.376 . S
C1273 C1272 1.392 . S
C1273 H1285 0.929 . S
C1274 C1270 1.531 . S
C1274 H1286 0.960 . S
C1274 H1287 0.962 . S
C1274 H1288 0.960 . S
C1275 C1272 1.511 . S
C1275 H1289 0.961 . S
C1275 H1290 0.961 . S
C1275 H1291 0.961 . S
C1276 C1277 1.370 . S
C1276 C1278 1.363 . S
C1276 H1292 0.931 . S
C1277 C1276 1.370 . S
C1277 C1281 1.408 . S
C1278 C1276 1.363 . S
C1278 C1279 1.370 . S
C1278 C1282 1.524 . S
C1279 C1271 1.503 . S
C1279 C1278 1.370 . S
C1279 C1280 1.403 . S
C1280 C1279 1.403 . S
C1280 C1281 1.404 . S
C1280 C1283 1.539 . S
C1281 C1277 1.408 . S
C1281 C1280 1.404 . S
C1281 H1293 0.930 . S
C1282 C1278 1.524 . S
C1282 H1294 0.956 . S
C1282 H1295 0.961 . S
C1282 H1296 0.961 . S
C1283 C1280 1.539 . S
C1283 H1297 0.958 . S
C1283 H1298 0.961 . S
C1283 H1299 0.960 . S
H1284 C1268 0.931 . S
H1285 C1273 0.929 . S
H1286 C1274 0.960 . S
H1287 C1274 0.962 . S
H1288 C1274 0.960 . S
H1289 C1275 0.961 . S
H1290 C1275 0.961 . S
H1291 C1275 0.961 . S
H1292 C1276 0.931 . S
H1293 C1281 0.930 . S
H1294 C1282 0.956 . S
H1295 C1282 0.961 . S
H1296 C1282 0.961 . S
H1297 C1283 0.958 . S
H1298 C1283 0.961 . S
H1299 C1283 0.960 . S
C1300 C1301 1.391 . S
C1300 C1302 1.394 . S
C1300 H1316 0.931 . S
C1301 C1300 1.391 . S
C1301 C1305 1.376 . S
C1302 C1300 1.394 . S
C1302 C1303 1.369 . S
C1302 C1306 1.531 . S
C1303 C1302 1.369 . S
C1303 C1304 1.410 . S
C1303 C1311 1.503 . S
C1304 C1303 1.410 . S
C1304 C1305 1.392 . S
C1304 C1307 1.511 . S
C1305 C1301 1.376 . S
C1305 C1304 1.392 . S
C1305 H1317 0.929 . S
C1306 C1302 1.531 . S
C1306 H1318 0.960 . S
C1306 H1319 0.962 . S
C1306 H1320 0.960 . S
C1307 C1304 1.511 . S
C1307 H1321 0.961 . S
C1307 H1322 0.961 . S
C1307 H1323 0.961 . S
C1308 C1309 1.370 . S
C1308 C1310 1.363 . S
C1308 H1324 0.931 . S
C1309 C1308 1.370 . S
C1309 C1313 1.408 . S
C1310 C1308 1.363 . S
C1310 C1311 1.370 . S
C1310 C1314 1.524 . S
C1311 C1303 1.503 . S
C1311 C1310 1.370 . S
C1311 C1312 1.403 . S
C1312 C1311 1.403 . S
C1312 C1313 1.404 . S
C1312 C1315 1.539 . S
C1313 C1309 1.408 . S
C1313 C1312 1.404 . S
C1313 H1325 0.930 . S
C1314 C1310 1.524 . S
C1314 H1326 0.956 . S
C1314 H1327 0.961 . S
C1314 H1328 0.961 . S
C1315 C1312 1.539 . S
C1315 H1329 0.958 . S
C1315 H1330 0.961 . S
C1315 H1331 0.960 . S
H1316 C1300 0.931 . S
H1317 C1305 0.929 . S
H1318 C1306 0.960 . S
H1319 C1306 0.962 . S
H1320 C1306 0.960 . S
H1321 C1307 0.961 . S
H1322 C1307 0.961 . S
H1323 C1307 0.961 . S
H1324 C1308 0.931 . S
H1325 C1313 0.930 . S
H1326 C1314 0.956 . S
H1327 C1314 0.961 . S
H1328 C1314 0.961 . S
H1329 C1315 0.958 . S
H1330 C1315 0.961 . S
H1331 C1315 0.960 . S
C1332 C1333 1.393 . S
C1332 C1334 1.392 1_544 S
C1332 H1348 0.931 . S
C1333 C1332 1.393 . S
C1333 C1337 1.376 1_545 S
C1334 C1332 1.392 1_566 S
C1334 C1335 1.369 . S
C1334 C1338 1.531 . S
C1335 C1334 1.369 . S
C1335 C1336 1.410 . S
C1335 C1343 1.503 . S
C1336 C1335 1.410 . S
C1336 C1337 1.392 1_556 S
C1336 C1339 1.511 . S
C1337 C1333 1.376 1_565 S
C1337 C1336 1.392 1_554 S
C1337 H1349 0.929 . S
C1338 C1334 1.531 . S
C1338 H1350 0.960 . S
C1338 H1351 0.962 . S
C1338 H1352 0.960 1_565 S
C1339 C1336 1.511 . S
C1339 H1353 0.961 1_556 S
C1339 H1354 0.961 . S
C1339 H1355 0.961 . S
C1340 C1341 1.370 . S
C1340 C1342 1.363 . S
C1340 H1356 0.931 . S
C1341 C1340 1.370 . S
C1341 C1345 1.408 . S
C1342 C1340 1.363 . S
C1342 C1343 1.370 . S
C1342 C1346 1.524 1_556 S
C1343 C1335 1.503 . S
C1343 C1342 1.370 . S
C1343 C1344 1.403 . S
C1344 C1343 1.403 . S
C1344 C1345 1.404 . S
C1344 C1347 1.539 . S
C1345 C1341 1.408 . S
C1345 C1344 1.404 . S
C1345 H1357 0.930 . S
C1346 C1342 1.524 1_554 S
C1346 H1358 0.956 . S
C1346 H1359 0.961 . S
C1346 H1360 0.961 . S
C1347 C1344 1.539 . S
C1347 H1361 0.958 . S
C1347 H1362 0.961 . S
C1347 H1363 0.960 . S
H1348 C1332 0.931 . S
H1349 C1337 0.929 . S
H1350 C1338 0.960 . S
H1351 C1338 0.962 . S
H1352 C1338 0.960 1_545 S
H1353 C1339 0.961 1_554 S
H1354 C1339 0.961 . S
H1355 C1339 0.961 . S
H1356 C1340 0.931 . S
H1357 C1345 0.930 . S
H1358 C1346 0.956 . S
H1359 C1346 0.961 . S
H1360 C1346 0.961 . S
H1361 C1347 0.958 . S
H1362 C1347 0.961 . S
H1363 C1347 0.960 . S
C1364 C1365 1.391 . S
C1364 C1366 1.394 . S
C1364 H1380 0.931 1_556 S
C1365 C1364 1.391 . S
C1365 C1369 1.376 . S
C1366 C1364 1.394 . S
C1366 C1367 1.369 . S
C1366 C1370 1.531 . S
C1367 C1366 1.369 . S
C1367 C1368 1.410 . S
C1367 C1375 1.503 . S
C1368 C1367 1.410 . S
C1368 C1369 1.392 . S
C1368 C1371 1.511 . S
C1369 C1365 1.376 . S
C1369 C1368 1.392 . S
C1369 H1381 0.929 . S
C1370 C1366 1.531 . S
C1370 H1382 0.960 . S
C1370 H1383 0.962 . S
C1370 H1384 0.960 . S
C1371 C1368 1.511 . S
C1371 H1385 0.961 . S
C1371 H1386 0.961 . S
C1371 H1387 0.961 . S
C1372 C1373 1.370 . S
C1372 C1374 1.363 . S
C1372 H1388 0.931 . S
C1373 C1372 1.370 . S
C1373 C1377 1.408 . S
C1374 C1372 1.363 . S
C1374 C1375 1.370 . S
C1374 C1378 1.524 . S
C1375 C1367 1.503 . S
C1375 C1374 1.370 . S
C1375 C1376 1.403 . S
C1376 C1375 1.403 . S
C1376 C1377 1.404 . S
C1376 C1379 1.539 . S
C1377 C1373 1.408 . S
C1377 C1376 1.404 . S
C1377 H1389 0.930 . S
C1378 C1374 1.524 . S
C1378 H1390 0.956 . S
C1378 H1391 0.961 . S
C1378 H1392 0.961 . S
C1379 C1376 1.539 . S
C1379 H1393 0.958 . S
C1379 H1394 0.961 . S
C1379 H1395 0.960 . S
H1380 C1364 0.931 1_554 S
H1381 C1369 0.929 . S
H1382 C1370 0.960 . S
H1383 C1370 0.962 . S
H1384 C1370 0.960 . S
H1385 C1371 0.961 . S
H1386 C1371 0.961 . S
H1387 C1371 0.961 . S
H1388 C1372 0.931 . S
H1389 C1377 0.930 . S
H1390 C1378 0.956 . S
H1391 C1378 0.961 . S
H1392 C1378 0.961 . S
H1393 C1379 0.958 . S
H1394 C1379 0.961 . S
H1395 C1379 0.960 . S
C1396 C1397 1.391 . S
C1396 C1398 1.394 . S
C1396 H1412 0.931 . S
C1397 C1396 1.391 . S
C1397 C1401 1.376 . S
C1398 C1396 1.394 . S
C1398 C1399 1.369 . S
C1398 C1402 1.531 . S
C1399 C1398 1.369 . S
C1399 C1400 1.410 . S
C1399 C1407 1.503 . S
C1400 C1399 1.410 . S
C1400 C1401 1.392 . S
C1400 C1403 1.511 . S
C1401 C1397 1.376 . S
C1401 C1400 1.392 . S
C1401 H1413 0.929 . S
C1402 C1398 1.531 . S
C1402 H1414 0.960 . S
C1402 H1415 0.962 . S
C1402 H1416 0.960 . S
C1403 C1400 1.511 . S
C1403 H1417 0.961 . S
C1403 H1418 0.961 . S
C1403 H1419 0.961 . S
C1404 C1405 1.370 . S
C1404 C1406 1.363 . S
C1404 H1420 0.931 . S
C1405 C1404 1.370 . S
C1405 C1409 1.408 . S
C1406 C1404 1.363 . S
C1406 C1407 1.370 . S
C1406 C1410 1.524 . S
C1407 C1399 1.503 . S
C1407 C1406 1.370 . S
C1407 C1408 1.403 . S
C1408 C1407 1.403 . S
C1408 C1409 1.404 . S
C1408 C1411 1.539 . S
C1409 C1405 1.408 . S
C1409 C1408 1.404 . S
C1409 H1421 0.930 . S
C1410 C1406 1.524 . S
C1410 H1422 0.956 . S
C1410 H1423 0.961 . S
C1410 H1424 0.961 . S
C1411 C1408 1.539 . S
C1411 H1425 0.958 . S
C1411 H1426 0.961 . S
C1411 H1427 0.960 . S
H1412 C1396 0.931 . S
H1413 C1401 0.929 . S
H1414 C1402 0.960 . S
H1415 C1402 0.962 . S
H1416 C1402 0.960 . S
H1417 C1403 0.961 . S
H1418 C1403 0.961 . S
H1419 C1403 0.961 . S
H1420 C1404 0.931 . S
H1421 C1409 0.930 . S
H1422 C1410 0.956 . S
H1423 C1410 0.961 . S
H1424 C1410 0.961 . S
H1425 C1411 0.958 . S
H1426 C1411 0.961 . S
H1427 C1411 0.960 . S
C1428 C1429 1.391 . S
C1428 C1430 1.394 . S
C1428 H1444 0.931 . S
C1429 C1428 1.391 . S
C1429 C1433 1.376 . S
C1430 C1428 1.394 . S
C1430 C1431 1.369 . S
C1430 C1434 1.531 . S
C1431 C1430 1.369 . S
C1431 C1432 1.410 . S
C1431 C1439 1.503 . S
C1432 C1431 1.410 . S
C1432 C1433 1.392 . S
C1432 C1435 1.511 . S
C1433 C1429 1.376 . S
C1433 C1432 1.392 . S
C1433 H1445 0.929 . S
C1434 C1430 1.531 . S
C1434 H1446 0.960 . S
C1434 H1447 0.962 . S
C1434 H1448 0.960 . S
C1435 C1432 1.511 . S
C1435 H1449 0.961 . S
C1435 H1450 0.961 . S
C1435 H1451 0.961 . S
C1436 C1437 1.370 . S
C1436 C1438 1.363 . S
C1436 H1452 0.931 . S
C1437 C1436 1.370 . S
C1437 C1441 1.408 . S
C1438 C1436 1.363 . S
C1438 C1439 1.370 . S
C1438 C1442 1.524 . S
C1439 C1431 1.503 . S
C1439 C1438 1.370 . S
C1439 C1440 1.403 . S
C1440 C1439 1.403 . S
C1440 C1441 1.404 . S
C1440 C1443 1.539 . S
C1441 C1437 1.408 . S
C1441 C1440 1.404 . S
C1441 H1453 0.930 . S
C1442 C1438 1.524 . S
C1442 H1454 0.956 . S
C1442 H1455 0.961 . S
C1442 H1456 0.961 . S
C1443 C1440 1.539 . S
C1443 H1457 0.958 . S
C1443 H1458 0.961 . S
C1443 H1459 0.960 . S
H1444 C1428 0.931 . S
H1445 C1433 0.929 . S
H1446 C1434 0.960 . S
H1447 C1434 0.962 . S
H1448 C1434 0.960 . S
H1449 C1435 0.961 . S
H1450 C1435 0.961 . S
H1451 C1435 0.961 . S
H1452 C1436 0.931 . S
H1453 C1441 0.930 . S
H1454 C1442 0.956 . S
H1455 C1442 0.961 . S
H1456 C1442 0.961 . S
H1457 C1443 0.958 . S
H1458 C1443 0.961 . S
H1459 C1443 0.960 . S
C1460 C1461 1.391 . S
C1460 C1462 1.394 . S
C1460 H1476 0.931 . S
C1461 C1460 1.391 . S
C1461 C1465 1.376 . S
C1462 C1460 1.394 . S
C1462 C1463 1.369 . S
C1462 C1466 1.531 . S
C1463 C1462 1.369 . S
C1463 C1464 1.410 . S
C1463 C1471 1.503 . S
C1464 C1463 1.410 . S
C1464 C1465 1.392 . S
C1464 C1467 1.511 . S
C1465 C1461 1.376 . S
C1465 C1464 1.392 . S
C1465 H1477 0.929 . S
C1466 C1462 1.531 . S
C1466 H1478 0.960 . S
C1466 H1479 0.962 . S
C1466 H1480 0.960 . S
C1467 C1464 1.511 . S
C1467 H1481 0.961 . S
C1467 H1482 0.961 . S
C1467 H1483 0.961 . S
C1468 C1469 1.370 . S
C1468 C1470 1.363 . S
C1468 H1484 0.931 . S
C1469 C1468 1.370 . S
C1469 C1473 1.408 . S
C1470 C1468 1.363 . S
C1470 C1471 1.370 . S
C1470 C1474 1.524 . S
C1471 C1463 1.503 . S
C1471 C1470 1.370 . S
C1471 C1472 1.403 . S
C1472 C1471 1.403 . S
C1472 C1473 1.404 . S
C1472 C1475 1.539 . S
C1473 C1469 1.408 . S
C1473 C1472 1.404 . S
C1473 H1485 0.930 . S
C1474 C1470 1.524 . S
C1474 H1486 0.956 . S
C1474 H1487 0.961 . S
C1474 H1488 0.961 . S
C1475 C1472 1.539 . S
C1475 H1489 0.958 . S
C1475 H1490 0.961 . S
C1475 H1491 0.960 . S
H1476 C1460 0.931 . S
H1477 C1465 0.929 . S
H1478 C1466 0.960 . S
H1479 C1466 0.962 . S
H1480 C1466 0.960 . S
H1481 C1467 0.961 . S
H1482 C1467 0.961 . S
H1483 C1467 0.961 . S
H1484 C1468 0.931 . S
H1485 C1473 0.930 . S
H1486 C1474 0.956 . S
H1487 C1474 0.961 . S
H1488 C1474 0.961 . S
H1489 C1475 0.958 . S
H1490 C1475 0.961 . S
H1491 C1475 0.960 . S
C1492 C1493 1.391 . S
C1492 C1494 1.394 . S
C1492 H1508 0.931 . S
C1493 C1492 1.391 . S
C1493 C1497 1.376 . S
C1494 C1492 1.394 . S
C1494 C1495 1.369 . S
C1494 C1498 1.531 . S
C1495 C1494 1.369 . S
C1495 C1496 1.410 . S
C1495 C1503 1.503 . S
C1496 C1495 1.410 . S
C1496 C1497 1.392 . S
C1496 C1499 1.511 . S
C1497 C1493 1.376 . S
C1497 C1496 1.392 . S
C1497 H1509 0.929 . S
C1498 C1494 1.531 . S
C1498 H1510 0.960 . S
C1498 H1511 0.962 . S
C1498 H1512 0.960 . S
C1499 C1496 1.511 . S
C1499 H1513 0.961 . S
C1499 H1514 0.961 . S
C1499 H1515 0.961 . S
C1500 C1501 1.370 . S
C1500 C1502 1.363 . S
C1500 H1516 0.931 . S
C1501 C1500 1.370 . S
C1501 C1505 1.408 . S
C1502 C1500 1.363 . S
C1502 C1503 1.370 . S
C1502 C1506 1.524 . S
C1503 C1495 1.503 . S
C1503 C1502 1.370 . S
C1503 C1504 1.403 . S
C1504 C1503 1.403 . S
C1504 C1505 1.404 . S
C1504 C1507 1.539 . S
C1505 C1501 1.408 . S
C1505 C1504 1.404 . S
C1505 H1517 0.930 . S
C1506 C1502 1.524 . S
C1506 H1518 0.956 . S
C1506 H1519 0.961 . S
C1506 H1520 0.961 . S
C1507 C1504 1.539 . S
C1507 H1521 0.958 . S
C1507 H1522 0.961 . S
C1507 H1523 0.960 . S
H1508 C1492 0.931 . S
H1509 C1497 0.929 . S
H1510 C1498 0.960 . S
H1511 C1498 0.962 . S
H1512 C1498 0.960 . S
H1513 C1499 0.961 . S
H1514 C1499 0.961 . S
H1515 C1499 0.961 . S
H1516 C1500 0.931 . S
H1517 C1505 0.930 . S
H1518 C1506 0.956 . S
H1519 C1506 0.961 . S
H1520 C1506 0.961 . S
H1521 C1507 0.958 . S
H1522 C1507 0.961 . S
H1523 C1507 0.960 . S
C1524 C1525 1.391 . S
C1524 C1526 1.394 1_554 S
C1524 H1540 0.931 . S
C1525 C1524 1.391 . S
C1525 C1529 1.376 . S
C1526 C1524 1.394 1_556 S
C1526 C1527 1.369 . S
C1526 C1530 1.531 . S
C1527 C1526 1.369 . S
C1527 C1528 1.410 . S
C1527 C1535 1.503 . S
C1528 C1527 1.410 . S
C1528 C1529 1.392 1_556 S
C1528 C1531 1.511 . S
C1529 C1525 1.376 . S
C1529 C1528 1.392 1_554 S
C1529 H1541 0.929 . S
C1530 C1526 1.531 . S
C1530 H1542 0.960 . S
C1530 H1543 0.962 . S
C1530 H1544 0.960 . S
C1531 C1528 1.511 . S
C1531 H1545 0.961 . S
C1531 H1546 0.961 . S
C1531 H1547 0.961 . S
C1532 C1533 1.370 . S
C1532 C1534 1.363 . S
C1532 H1548 0.931 . S
C1533 C1532 1.370 . S
C1533 C1537 1.408 . S
C1534 C1532 1.363 . S
C1534 C1535 1.370 . S
C1534 C1538 1.524 . S
C1535 C1527 1.503 . S
C1535 C1534 1.370 . S
C1535 C1536 1.403 . S
C1536 C1535 1.403 . S
C1536 C1537 1.404 . S
C1536 C1539 1.539 . S
C1537 C1533 1.408 . S
C1537 C1536 1.404 . S
C1537 H1549 0.930 . S
C1538 C1534 1.524 . S
C1538 H1550 0.956 . S
C1538 H1551 0.961 . S
C1538 H1552 0.961 . S
C1539 C1536 1.539 . S
C1539 H1553 0.958 . S
C1539 H1554 0.961 . S
C1539 H1555 0.960 . S
H1540 C1524 0.931 . S
H1541 C1529 0.929 . S
H1542 C1530 0.960 . S
H1543 C1530 0.962 . S
H1544 C1530 0.960 . S
H1545 C1531 0.961 . S
H1546 C1531 0.961 . S
H1547 C1531 0.961 . S
H1548 C1532 0.931 . S
H1549 C1537 0.930 . S
H1550 C1538 0.956 . S
H1551 C1538 0.961 . S
H1552 C1538 0.961 . S
H1553 C1539 0.958 . S
H1554 C1539 0.961 . S
H1555 C1539 0.960 . S
C1556 C1557 1.391 . S
C1556 C1558 1.394 1_554 S
C1556 H1572 0.931 1_655 S
C1557 C1556 1.391 . S
C1557 C1561 1.376 . S
C1558 C1556 1.394 1_556 S
C1558 C1559 1.369 . S
C1558 C1562 1.531 . S
C1559 C1558 1.369 . S
C1559 C1560 1.410 1_556 S
C1559 C1567 1.503 . S
C1560 C1559 1.410 1_554 S
C1560 C1561 1.392 . S
C1560 C1563 1.511 1_554 S
C1561 C1557 1.376 . S
C1561 C1560 1.392 . S
C1561 H1573 0.929 . S
C1562 C1558 1.531 . S
C1562 H1574 0.960 . S
C1562 H1575 0.962 . S
C1562 H1576 0.960 . S
C1563 C1560 1.511 1_556 S
C1563 H1577 0.961 . S
C1563 H1578 0.961 . S
C1563 H1579 0.961 1_556 S
C1564 C1565 1.370 . S
C1564 C1566 1.363 . S
C1564 H1580 0.931 . S
C1565 C1564 1.370 . S
C1565 C1569 1.408 . S
C1566 C1564 1.363 . S
C1566 C1567 1.370 . S
C1566 C1570 1.524 . S
C1567 C1559 1.503 . S
C1567 C1566 1.370 . S
C1567 C1568 1.403 . S
C1568 C1567 1.403 . S
C1568 C1569 1.404 . S
C1568 C1571 1.539 1_556 S
C1569 C1565 1.408 . S
C1569 C1568 1.404 . S
C1569 H1581 0.930 . S
C1570 C1566 1.524 . S
C1570 H1582 0.956 . S
C1570 H1583 0.961 . S
C1570 H1584 0.961 . S
C1571 C1568 1.539 1_554 S
C1571 H1585 0.958 . S
C1571 H1586 0.961 . S
C1571 H1587 0.960 . S
H1572 C1556 0.931 1_455 S
H1573 C1561 0.929 . S
H1574 C1562 0.960 . S
H1575 C1562 0.962 . S
H1576 C1562 0.960 . S
H1577 C1563 0.961 . S
H1578 C1563 0.961 . S
H1579 C1563 0.961 1_554 S
H1580 C1564 0.931 . S
H1581 C1569 0.930 . S
H1582 C1570 0.956 . S
H1583 C1570 0.961 . S
H1584 C1570 0.961 . S
H1585 C1571 0.958 . S
H1586 C1571 0.961 . S
H1587 C1571 0.960 . S
C1588 C1589 1.391 . S
C1588 C1590 1.394 . S
C1588 H1604 0.931 . S
C1589 C1588 1.391 . S
C1589 C1593 1.376 . S
C1590 C1588 1.394 . S
C1590 C1591 1.369 . S
C1590 C1594 1.531 . S
C1591 C1590 1.369 . S
C1591 C1592 1.410 . S
C1591 C1599 1.503 . S
C1592 C1591 1.410 . S
C1592 C1593 1.392 . S
C1592 C1595 1.511 . S
C1593 C1589 1.376 . S
C1593 C1592 1.392 . S
C1593 H1605 0.929 . S
C1594 C1590 1.531 . S
C1594 H1606 0.960 . S
C1594 H1607 0.962 . S
C1594 H1608 0.960 . S
C1595 C1592 1.511 . S
C1595 H1609 0.961 . S
C1595 H1610 0.961 . S
C1595 H1611 0.961 . S
C1596 C1597 1.370 . S
C1596 C1598 1.363 . S
C1596 H1612 0.931 . S
C1597 C1596 1.370 . S
C1597 C1601 1.408 . S
C1598 C1596 1.363 . S
C1598 C1599 1.370 . S
C1598 C1602 1.524 . S
C1599 C1591 1.503 . S
C1599 C1598 1.370 . S
C1599 C1600 1.403 . S
C1600 C1599 1.403 . S
C1600 C1601 1.404 . S
C1600 C1603 1.539 . S
C1601 C1597 1.408 . S
C1601 C1600 1.404 . S
C1601 H1613 0.930 . S
C1602 C1598 1.524 . S
C1602 H1614 0.956 . S
C1602 H1615 0.961 . S
C1602 H1616 0.961 . S
C1603 C1600 1.539 . S
C1603 H1617 0.958 . S
C1603 H1618 0.961 . S
C1603 H1619 0.960 . S
H1604 C1588 0.931 . S
H1605 C1593 0.929 . S
H1606 C1594 0.960 . S
H1607 C1594 0.962 . S
H1608 C1594 0.960 . S
H1609 C1595 0.961 . S
H1610 C1595 0.961 . S
H1611 C1595 0.961 . S
H1612 C1596 0.931 . S
H1613 C1601 0.930 . S
H1614 C1602 0.956 . S
H1615 C1602 0.961 . S
H1616 C1602 0.961 . S
H1617 C1603 0.958 . S
H1618 C1603 0.961 . S
H1619 C1603 0.960 . S
C1620 C1621 1.391 . S
C1620 C1622 1.394 . S
C1620 H1636 0.931 . S
C1621 C1620 1.391 . S
C1621 C1625 1.376 . S
C1622 C1620 1.394 . S
C1622 C1623 1.369 . S
C1622 C1626 1.531 . S
C1623 C1622 1.369 . S
C1623 C1624 1.410 . S
C1623 C1631 1.503 . S
C1624 C1623 1.410 . S
C1624 C1625 1.392 . S
C1624 C1627 1.511 . S
C1625 C1621 1.376 . S
C1625 C1624 1.392 . S
C1625 H1637 0.929 . S
C1626 C1622 1.531 . S
C1626 H1638 0.960 . S
C1626 H1639 0.962 . S
C1626 H1640 0.960 . S
C1627 C1624 1.511 . S
C1627 H1641 0.961 . S
C1627 H1642 0.961 . S
C1627 H1643 0.961 . S
C1628 C1629 1.370 . S
C1628 C1630 1.363 . S
C1628 H1644 0.931 . S
C1629 C1628 1.370 . S
C1629 C1633 1.408 . S
C1630 C1628 1.363 . S
C1630 C1631 1.370 . S
C1630 C1634 1.524 . S
C1631 C1623 1.503 . S
C1631 C1630 1.370 . S
C1631 C1632 1.403 . S
C1632 C1631 1.403 . S
C1632 C1633 1.404 . S
C1632 C1635 1.539 . S
C1633 C1629 1.408 . S
C1633 C1632 1.404 . S
C1633 H1645 0.930 . S
C1634 C1630 1.524 . S
C1634 H1646 0.956 . S
C1634 H1647 0.961 . S
C1634 H1648 0.961 . S
C1635 C1632 1.539 . S
C1635 H1649 0.958 . S
C1635 H1650 0.961 . S
C1635 H1651 0.960 . S
H1636 C1620 0.931 . S
H1637 C1625 0.929 . S
H1638 C1626 0.960 . S
H1639 C1626 0.962 . S
H1640 C1626 0.960 . S
H1641 C1627 0.961 . S
H1642 C1627 0.961 . S
H1643 C1627 0.961 . S
H1644 C1628 0.931 . S
H1645 C1633 0.930 . S
H1646 C1634 0.956 . S
H1647 C1634 0.961 . S
H1648 C1634 0.961 . S
H1649 C1635 0.958 . S
H1650 C1635 0.961 . S
H1651 C1635 0.960 . S
C1652 C1653 1.414 . S
C1652 C1654 1.394 . S
C1652 H1668 0.931 . S
C1653 C1652 1.414 . S
C1653 C1657 1.381 . S
C1654 C1652 1.394 . S
C1654 C1655 1.369 . S
C1654 C1658 1.531 . S
C1655 C1654 1.369 . S
C1655 C1656 1.410 . S
C1655 C1663 1.503 . S
C1656 C1655 1.410 . S
C1656 C1657 1.392 . S
C1656 C1659 1.511 . S
C1657 C1653 1.381 . S
C1657 C1656 1.392 . S
C1657 H1669 0.929 . S
C1658 C1654 1.531 . S
C1658 H1670 0.960 . S
C1658 H1671 0.962 . S
C1658 H1672 0.960 . S
C1659 C1656 1.511 . S
C1659 H1673 0.961 . S
C1659 H1674 0.961 . S
C1659 H1675 0.961 . S
C1660 C1661 1.370 . S
C1660 C1662 1.363 . S
C1660 H1676 0.931 . S
C1661 C1660 1.370 . S
C1661 C1665 1.408 . S
C1662 C1660 1.363 . S
C1662 C1663 1.370 . S
C1662 C1666 1.524 . S
C1663 C1655 1.503 . S
C1663 C1662 1.370 . S
C1663 C1664 1.403 . S
C1664 C1663 1.403 . S
C1664 C1665 1.404 . S
C1664 C1667 1.539 . S
C1665 C1661 1.408 . S
C1665 C1664 1.404 . S
C1665 H1677 0.930 . S
C1666 C1662 1.524 . S
C1666 H1678 0.956 . S
C1666 H1679 0.961 . S
C1666 H1680 0.961 . S
C1667 C1664 1.539 . S
C1667 H1681 0.958 . S
C1667 H1682 0.961 . S
C1667 H1683 0.960 . S
H1668 C1652 0.931 . S
H1669 C1657 0.929 . S
H1670 C1658 0.960 . S
H1671 C1658 0.962 . S
H1672 C1658 0.960 . S
H1673 C1659 0.961 . S
H1674 C1659 0.961 . S
H1675 C1659 0.961 . S
H1676 C1660 0.931 . S
H1677 C1665 0.930 . S
H1678 C1666 0.956 . S
H1679 C1666 0.961 . S
H1680 C1666 0.961 . S
H1681 C1667 0.958 . S
H1682 C1667 0.961 . S
H1683 C1667 0.960 . S
C1684 C1685 1.391 . S
C1684 C1686 1.394 . S
C1684 H1700 0.931 . S
C1685 C1684 1.391 . S
C1685 C1689 1.376 . S
C1686 C1684 1.394 . S
C1686 C1687 1.369 . S
C1686 C1690 1.531 . S
C1687 C1686 1.369 . S
C1687 C1688 1.410 . S
C1687 C1695 1.503 . S
C1688 C1687 1.410 . S
C1688 C1689 1.392 . S
C1688 C1691 1.511 . S
C1689 C1685 1.376 . S
C1689 C1688 1.392 . S
C1689 H1701 0.929 . S
C1690 C1686 1.531 . S
C1690 H1702 0.960 . S
C1690 H1703 0.962 . S
C1690 H1704 0.960 . S
C1691 C1688 1.511 . S
C1691 H1705 0.961 . S
C1691 H1706 0.961 . S
C1691 H1707 0.961 . S
C1692 C1693 1.370 . S
C1692 C1694 1.363 . S
C1692 H1708 0.931 . S
C1693 C1692 1.370 . S
C1693 C1697 1.408 . S
C1694 C1692 1.363 . S
C1694 C1695 1.370 . S
C1694 C1698 1.524 . S
C1695 C1687 1.503 . S
C1695 C1694 1.370 . S
C1695 C1696 1.403 . S
C1696 C1695 1.403 . S
C1696 C1697 1.404 . S
C1696 C1699 1.539 . S
C1697 C1693 1.408 . S
C1697 C1696 1.404 . S
C1697 H1709 0.930 . S
C1698 C1694 1.524 . S
C1698 H1710 0.956 . S
C1698 H1711 0.961 . S
C1698 H1712 0.961 . S
C1699 C1696 1.539 . S
C1699 H1713 0.958 . S
C1699 H1714 0.961 . S
C1699 H1715 0.960 . S
H1700 C1684 0.931 . S
H1701 C1689 0.929 . S
H1702 C1690 0.960 . S
H1703 C1690 0.962 . S
H1704 C1690 0.960 . S
H1705 C1691 0.961 . S
H1706 C1691 0.961 . S
H1707 C1691 0.961 . S
H1708 C1692 0.931 . S
H1709 C1697 0.930 . S
H1710 C1698 0.956 . S
H1711 C1698 0.961 . S
H1712 C1698 0.961 . S
H1713 C1699 0.958 . S
H1714 C1699 0.961 . S
H1715 C1699 0.960 . S
C1716 C1717 1.391 . S
C1716 C1718 1.394 . S
C1716 H1732 0.931 . S
C1717 C1716 1.391 . S
C1717 C1721 1.376 . S
C1718 C1716 1.394 . S
C1718 C1719 1.369 . S
C1718 C1722 1.531 . S
C1719 C1718 1.369 . S
C1719 C1720 1.410 . S
C1719 C1727 1.503 . S
C1720 C1719 1.410 . S
C1720 C1721 1.392 . S
C1720 C1723 1.511 . S
C1721 C1717 1.376 . S
C1721 C1720 1.392 . S
C1721 H1733 0.929 . S
C1722 C1718 1.531 . S
C1722 H1734 0.960 . S
C1722 H1735 0.962 . S
C1722 H1736 0.960 . S
C1723 C1720 1.511 . S
C1723 H1737 0.961 . S
C1723 H1738 0.961 . S
C1723 H1739 0.961 . S
C1724 C1725 1.370 . S
C1724 C1726 1.363 . S
C1724 H1740 0.931 . S
C1725 C1724 1.370 . S
C1725 C1729 1.408 . S
C1726 C1724 1.363 . S
C1726 C1727 1.370 . S
C1726 C1730 1.524 . S
C1727 C1719 1.503 . S
C1727 C1726 1.370 . S
C1727 C1728 1.403 . S
C1728 C1727 1.403 . S
C1728 C1729 1.404 . S
C1728 C1731 1.539 . S
C1729 C1725 1.408 . S
C1729 C1728 1.404 . S
C1729 H1741 0.930 . S
C1730 C1726 1.524 . S
C1730 H1742 0.956 . S
C1730 H1743 0.961 . S
C1730 H1744 0.961 . S
C1731 C1728 1.539 . S
C1731 H1745 0.958 . S
C1731 H1746 0.961 . S
C1731 H1747 0.960 . S
H1732 C1716 0.931 . S
H1733 C1721 0.929 . S
H1734 C1722 0.960 . S
H1735 C1722 0.962 . S
H1736 C1722 0.960 . S
H1737 C1723 0.961 . S
H1738 C1723 0.961 . S
H1739 C1723 0.961 . S
H1740 C1724 0.931 . S
H1741 C1729 0.930 . S
H1742 C1730 0.956 . S
H1743 C1730 0.961 . S
H1744 C1730 0.961 . S
H1745 C1731 0.958 . S
H1746 C1731 0.961 . S
H1747 C1731 0.960 . S
C1748 C1749 1.391 . S
C1748 C1750 1.394 . S
C1748 H1764 0.931 . S
C1749 C1748 1.391 . S
C1749 C1753 1.376 . S
C1750 C1748 1.394 . S
C1750 C1751 1.369 . S
C1750 C1754 1.531 . S
C1751 C1750 1.369 . S
C1751 C1752 1.410 . S
C1751 C1759 1.503 . S
C1752 C1751 1.410 . S
C1752 C1753 1.392 . S
C1752 C1755 1.511 . S
C1753 C1749 1.376 . S
C1753 C1752 1.392 . S
C1753 H1765 0.929 . S
C1754 C1750 1.531 . S
C1754 H1766 0.960 . S
C1754 H1767 0.962 . S
C1754 H1768 0.960 . S
C1755 C1752 1.511 . S
C1755 H1769 0.961 . S
C1755 H1770 0.961 . S
C1755 H1771 0.961 . S
C1756 C1757 1.370 . S
C1756 C1758 1.363 . S
C1756 H1772 0.931 . S
C1757 C1756 1.370 . S
C1757 C1761 1.408 . S
C1758 C1756 1.363 . S
C1758 C1759 1.370 . S
C1758 C1762 1.524 . S
C1759 C1751 1.503 . S
C1759 C1758 1.370 . S
C1759 C1760 1.403 . S
C1760 C1759 1.403 . S
C1760 C1761 1.404 . S
C1760 C1763 1.539 . S
C1761 C1757 1.408 . S
C1761 C1760 1.404 . S
C1761 H1773 0.930 . S
C1762 C1758 1.524 . S
C1762 H1774 0.956 . S
C1762 H1775 0.961 . S
C1762 H1776 0.961 . S
C1763 C1760 1.539 . S
C1763 H1777 0.958 . S
C1763 H1778 0.961 . S
C1763 H1779 0.960 . S
H1764 C1748 0.931 . S
H1765 C1753 0.929 . S
H1766 C1754 0.960 . S
H1767 C1754 0.962 . S
H1768 C1754 0.960 . S
H1769 C1755 0.961 . S
H1770 C1755 0.961 . S
H1771 C1755 0.961 . S
H1772 C1756 0.931 . S
H1773 C1761 0.930 . S
H1774 C1762 0.956 . S
H1775 C1762 0.961 . S
H1776 C1762 0.961 . S
H1777 C1763 0.958 . S
H1778 C1763 0.961 . S
H1779 C1763 0.960 . S
C1780 C1781 1.391 . S
C1780 C1782 1.394 . S
C1780 H1796 0.931 . S
C1781 C1780 1.391 . S
C1781 C1785 1.376 . S
C1782 C1780 1.394 . S
C1782 C1783 1.369 . S
C1782 C1786 1.531 . S
C1783 C1782 1.369 . S
C1783 C1784 1.410 . S
C1783 C1791 1.503 . S
C1784 C1783 1.410 . S
C1784 C1785 1.392 . S
C1784 C1787 1.511 . S
C1785 C1781 1.376 . S
C1785 C1784 1.392 . S
C1785 H1797 0.929 . S
C1786 C1782 1.531 . S
C1786 H1798 0.960 . S
C1786 H1799 0.962 . S
C1786 H1800 0.960 . S
C1787 C1784 1.511 . S
C1787 H1801 0.961 . S
C1787 H1802 0.961 . S
C1787 H1803 0.961 . S
C1788 C1789 1.370 . S
C1788 C1790 1.363 . S
C1788 H1804 0.931 . S
C1789 C1788 1.370 . S
C1789 C1793 1.408 . S
C1790 C1788 1.363 . S
C1790 C1791 1.370 . S
C1790 C1794 1.524 . S
C1791 C1783 1.503 . S
C1791 C1790 1.370 . S
C1791 C1792 1.403 . S
C1792 C1791 1.403 . S
C1792 C1793 1.404 . S
C1792 C1795 1.539 . S
C1793 C1789 1.408 . S
C1793 C1792 1.404 . S
C1793 H1805 0.930 . S
C1794 C1790 1.524 . S
C1794 H1806 0.956 . S
C1794 H1807 0.961 . S
C1794 H1808 0.961 . S
C1795 C1792 1.539 . S
C1795 H1809 0.958 . S
C1795 H1810 0.961 . S
C1795 H1811 0.960 . S
H1796 C1780 0.931 . S
H1797 C1785 0.929 . S
H1798 C1786 0.960 . S
H1799 C1786 0.962 . S
H1800 C1786 0.960 . S
H1801 C1787 0.961 . S
H1802 C1787 0.961 . S
H1803 C1787 0.961 . S
H1804 C1788 0.931 . S
H1805 C1793 0.930 . S
H1806 C1794 0.956 . S
H1807 C1794 0.961 . S
H1808 C1794 0.961 . S
H1809 C1795 0.958 . S
H1810 C1795 0.961 . S
H1811 C1795 0.960 . S
C1812 C1813 1.391 . S
C1812 C1814 1.394 . S
C1812 H1828 0.931 . S
C1813 C1812 1.391 . S
C1813 C1817 1.376 . S
C1814 C1812 1.394 . S
C1814 C1815 1.369 . S
C1814 C1818 1.531 . S
C1815 C1814 1.369 . S
C1815 C1816 1.410 . S
C1815 C1823 1.503 . S
C1816 C1815 1.410 . S
C1816 C1817 1.392 . S
C1816 C1819 1.511 . S
C1817 C1813 1.376 . S
C1817 C1816 1.392 . S
C1817 H1829 0.929 . S
C1818 C1814 1.531 . S
C1818 H1830 0.960 . S
C1818 H1831 0.962 . S
C1818 H1832 0.960 . S
C1819 C1816 1.511 . S
C1819 H1833 0.961 . S
C1819 H1834 0.961 . S
C1819 H1835 0.961 . S
C1820 C1821 1.370 . S
C1820 C1822 1.363 . S
C1820 H1836 0.931 . S
C1821 C1820 1.370 . S
C1821 C1825 1.408 . S
C1822 C1820 1.363 . S
C1822 C1823 1.370 . S
C1822 C1826 1.524 . S
C1823 C1815 1.503 . S
C1823 C1822 1.370 . S
C1823 C1824 1.403 . S
C1824 C1823 1.403 . S
C1824 C1825 1.404 . S
C1824 C1827 1.539 . S
C1825 C1821 1.408 . S
C1825 C1824 1.404 . S
C1825 H1837 0.930 . S
C1826 C1822 1.524 . S
C1826 H1838 0.956 . S
C1826 H1839 0.961 . S
C1826 H1840 0.961 . S
C1827 C1824 1.539 . S
C1827 H1841 0.958 . S
C1827 H1842 0.961 . S
C1827 H1843 0.960 . S
H1828 C1812 0.931 . S
H1829 C1817 0.929 . S
H1830 C1818 0.960 . S
H1831 C1818 0.962 . S
H1832 C1818 0.960 . S
H1833 C1819 0.961 . S
H1834 C1819 0.961 . S
H1835 C1819 0.961 . S
H1836 C1820 0.931 . S
H1837 C1825 0.930 . S
H1838 C1826 0.956 . S
H1839 C1826 0.961 . S
H1840 C1826 0.961 . S
H1841 C1827 0.958 . S
H1842 C1827 0.961 . S
H1843 C1827 0.960 . S
C1844 C1845 1.391 . S
C1844 C1846 1.394 . S
C1844 H1860 0.931 . S
C1845 C1844 1.391 . S
C1845 C1849 1.376 . S
C1846 C1844 1.394 . S
C1846 C1847 1.369 . S
C1846 C1850 1.531 . S
C1847 C1846 1.369 . S
C1847 C1848 1.410 . S
C1847 C1855 1.503 . S
C1848 C1847 1.410 . S
C1848 C1849 1.392 . S
C1848 C1851 1.511 . S
C1849 C1845 1.376 . S
C1849 C1848 1.392 . S
C1849 H1861 0.929 . S
C1850 C1846 1.531 . S
C1850 H1862 0.960 . S
C1850 H1863 0.962 . S
C1850 H1864 0.960 . S
C1851 C1848 1.511 . S
C1851 H1865 0.961 . S
C1851 H1866 0.961 . S
C1851 H1867 0.961 . S
C1852 C1853 1.370 . S
C1852 C1854 1.363 . S
C1852 H1868 0.931 . S
C1853 C1852 1.370 . S
C1853 C1857 1.408 . S
C1854 C1852 1.363 . S
C1854 C1855 1.370 . S
C1854 C1858 1.524 . S
C1855 C1847 1.503 . S
C1855 C1854 1.370 . S
C1855 C1856 1.403 . S
C1856 C1855 1.403 . S
C1856 C1857 1.404 . S
C1856 C1859 1.539 . S
C1857 C1853 1.408 . S
C1857 C1856 1.404 . S
C1857 H1869 0.930 . S
C1858 C1854 1.524 . S
C1858 H1870 0.956 . S
C1858 H1871 0.961 . S
C1858 H1872 0.961 . S
C1859 C1856 1.539 . S
C1859 H1873 0.958 . S
C1859 H1874 0.961 . S
C1859 H1875 0.960 . S
H1860 C1844 0.931 . S
H1861 C1849 0.929 . S
H1862 C1850 0.960 . S
H1863 C1850 0.962 . S
H1864 C1850 0.960 . S
H1865 C1851 0.961 . S
H1866 C1851 0.961 . S
H1867 C1851 0.961 . S
H1868 C1852 0.931 . S
H1869 C1857 0.930 . S
H1870 C1858 0.956 . S
H1871 C1858 0.961 . S
H1872 C1858 0.961 . S
H1873 C1859 0.958 . S
H1874 C1859 0.961 . S
H1875 C1859 0.960 . S
C1876 C1877 1.391 . S
C1876 C1878 1.394 . S
C1876 H1892 0.931 . S
C1877 C1876 1.391 . S
C1877 C1881 1.376 . S
C1878 C1876 1.394 . S
C1878 C1879 1.369 . S
C1878 C1882 1.531 . S
C1879 C1878 1.369 . S
C1879 C1880 1.410 . S
C1879 C1887 1.503 . S
C1880 C1879 1.410 . S
C1880 C1881 1.392 . S
C1880 C1883 1.511 . S
C1881 C1877 1.376 . S
C1881 C1880 1.392 . S
C1881 H1893 0.929 . S
C1882 C1878 1.531 . S
C1882 H1894 0.960 . S
C1882 H1895 0.962 . S
C1882 H1896 0.960 . S
C1883 C1880 1.511 . S
C1883 H1897 0.961 . S
C1883 H1898 0.961 . S
C1883 H1899 0.961 . S
C1884 C1885 1.370 . S
C1884 C1886 1.363 . S
C1884 H1900 0.931 . S
C1885 C1884 1.370 . S
C1885 C1889 1.408 . S
C1886 C1884 1.363 . S
C1886 C1887 1.370 . S
C1886 C1890 1.524 . S
C1887 C1879 1.503 . S
C1887 C1886 1.370 . S
C1887 C1888 1.403 . S
C1888 C1887 1.403 . S
C1888 C1889 1.404 . S
C1888 C1891 1.539 . S
C1889 C1885 1.408 . S
C1889 C1888 1.404 . S
C1889 H1901 0.930 . S
C1890 C1886 1.524 . S
C1890 H1902 0.956 . S
C1890 H1903 0.961 . S
C1890 H1904 0.961 . S
C1891 C1888 1.539 . S
C1891 H1905 0.958 . S
C1891 H1906 0.961 . S
C1891 H1907 0.960 . S
H1892 C1876 0.931 . S
H1893 C1881 0.929 . S
H1894 C1882 0.960 . S
H1895 C1882 0.962 . S
H1896 C1882 0.960 . S
H1897 C1883 0.961 . S
H1898 C1883 0.961 . S
H1899 C1883 0.961 . S
H1900 C1884 0.931 . S
H1901 C1889 0.930 . S
H1902 C1890 0.956 . S
H1903 C1890 0.961 . S
H1904 C1890 0.961 . S
H1905 C1891 0.958 . S
H1906 C1891 0.961 . S
H1907 C1891 0.960 . S
C1908 C1909 1.391 . S
C1908 C1910 1.394 . S
C1908 H1924 0.931 . S
C1909 C1908 1.391 . S
C1909 C1913 1.376 . S
C1910 C1908 1.394 . S
C1910 C1911 1.369 . S
C1910 C1914 1.531 . S
C1911 C1910 1.369 . S
C1911 C1912 1.410 . S
C1911 C1919 1.503 . S
C1912 C1911 1.410 . S
C1912 C1913 1.392 . S
C1912 C1915 1.511 . S
C1913 C1909 1.376 . S
C1913 C1912 1.392 . S
C1913 H1925 0.929 . S
C1914 C1910 1.531 . S
C1914 H1926 0.960 . S
C1914 H1927 0.962 . S
C1914 H1928 0.960 . S
C1915 C1912 1.511 . S
C1915 H1929 0.961 . S
C1915 H1930 0.961 . S
C1915 H1931 0.961 . S
C1916 C1917 1.370 . S
C1916 C1918 1.363 . S
C1916 H1932 0.931 . S
C1917 C1916 1.370 . S
C1917 C1921 1.408 . S
C1918 C1916 1.363 . S
C1918 C1919 1.370 . S
C1918 C1922 1.524 . S
C1919 C1911 1.503 . S
C1919 C1918 1.370 . S
C1919 C1920 1.403 . S
C1920 C1919 1.403 . S
C1920 C1921 1.404 . S
C1920 C1923 1.539 . S
C1921 C1917 1.408 . S
C1921 C1920 1.404 . S
C1921 H1933 0.930 . S
C1922 C1918 1.524 . S
C1922 H1934 0.956 . S
C1922 H1935 0.961 . S
C1922 H1936 0.961 . S
C1923 C1920 1.539 . S
C1923 H1937 0.958 . S
C1923 H1938 0.961 . S
C1923 H1939 0.960 . S
H1924 C1908 0.931 . S
H1925 C1913 0.929 . S
H1926 C1914 0.960 . S
H1927 C1914 0.962 . S
H1928 C1914 0.960 . S
H1929 C1915 0.961 . S
H1930 C1915 0.961 . S
H1931 C1915 0.961 . S
H1932 C1916 0.931 . S
H1933 C1921 0.930 . S
H1934 C1922 0.956 . S
H1935 C1922 0.961 . S
H1936 C1922 0.961 . S
H1937 C1923 0.958 . S
H1938 C1923 0.961 . S
H1939 C1923 0.960 . S
C1940 C1941 1.391 . S
C1940 C1942 1.394 . S
C1940 H1956 0.931 . S
C1941 C1940 1.391 . S
C1941 C1945 1.376 . S
C1942 C1940 1.394 . S
C1942 C1943 1.369 . S
C1942 C1946 1.531 . S
C1943 C1942 1.369 . S
C1943 C1944 1.410 . S
C1943 C1951 1.503 . S
C1944 C1943 1.410 . S
C1944 C1945 1.392 . S
C1944 C1947 1.511 . S
C1945 C1941 1.376 . S
C1945 C1944 1.392 . S
C1945 H1957 0.929 . S
C1946 C1942 1.531 . S
C1946 H1958 0.960 . S
C1946 H1959 0.962 . S
C1946 H1960 0.960 . S
C1947 C1944 1.511 . S
C1947 H1961 0.961 . S
C1947 H1962 0.961 . S
C1947 H1963 0.961 . S
C1948 C1949 1.370 . S
C1948 C1950 1.363 . S
C1948 H1964 0.931 . S
C1949 C1948 1.370 . S
C1949 C1953 1.408 . S
C1950 C1948 1.363 . S
C1950 C1951 1.370 . S
C1950 C1954 1.524 . S
C1951 C1943 1.503 . S
C1951 C1950 1.370 . S
C1951 C1952 1.403 . S
C1952 C1951 1.403 . S
C1952 C1953 1.404 . S
C1952 C1955 1.539 . S
C1953 C1949 1.408 . S
C1953 C1952 1.404 . S
C1953 H1965 0.930 . S
C1954 C1950 1.524 . S
C1954 H1966 0.956 . S
C1954 H1967 0.961 . S
C1954 H1968 0.961 . S
C1955 C1952 1.539 . S
C1955 H1969 0.958 . S
C1955 H1970 0.961 . S
C1955 H1971 0.960 . S
H1956 C1940 0.931 . S
H1957 C1945 0.929 . S
H1958 C1946 0.960 . S
H1959 C1946 0.962 . S
H1960 C1946 0.960 . S
H1961 C1947 0.961 . S
H1962 C1947 0.961 . S
H1963 C1947 0.961 . S
H1964 C1948 0.931 . S
H1965 C1953 0.930 . S
H1966 C1954 0.956 . S
H1967 C1954 0.961 . S
H1968 C1954 0.961 . S
H1969 C1955 0.958 . S
H1970 C1955 0.961 . S
H1971 C1955 0.960 . S
C1972 C1973 1.391 . S
C1972 C1974 1.394 . S
C1972 H1988 0.931 . S
C1973 C1972 1.391 . S
C1973 C1977 1.376 . S
C1974 C1972 1.394 . S
C1974 C1975 1.369 . S
C1974 C1978 1.531 . S
C1975 C1974 1.369 . S
C1975 C1976 1.410 . S
C1975 C1983 1.503 . S
C1976 C1975 1.410 . S
C1976 C1977 1.392 . S
C1976 C1979 1.511 . S
C1977 C1973 1.376 . S
C1977 C1976 1.392 . S
C1977 H1989 0.929 . S
C1978 C1974 1.531 . S
C1978 H1990 0.960 . S
C1978 H1991 0.962 . S
C1978 H1992 0.960 . S
C1979 C1976 1.511 . S
C1979 H1993 0.961 . S
C1979 H1994 0.961 . S
C1979 H1995 0.961 . S
C1980 C1981 1.370 . S
C1980 C1982 1.363 . S
C1980 H1996 0.931 . S
C1981 C1980 1.370 . S
C1981 C1985 1.408 . S
C1982 C1980 1.363 . S
C1982 C1983 1.370 . S
C1982 C1986 1.524 . S
C1983 C1975 1.503 . S
C1983 C1982 1.370 . S
C1983 C1984 1.403 . S
C1984 C1983 1.403 . S
C1984 C1985 1.404 . S
C1984 C1987 1.539 . S
C1985 C1981 1.408 . S
C1985 C1984 1.404 . S
C1985 H1997 0.930 . S
C1986 C1982 1.524 . S
C1986 H1998 0.956 . S
C1986 H1999 0.961 . S
C1986 H2000 0.961 . S
C1987 C1984 1.539 . S
C1987 H2001 0.958 . S
C1987 H2002 0.961 . S
C1987 H2003 0.960 . S
H1988 C1972 0.931 . S
H1989 C1977 0.929 . S
H1990 C1978 0.960 . S
H1991 C1978 0.962 . S
H1992 C1978 0.960 . S
H1993 C1979 0.961 . S
H1994 C1979 0.961 . S
H1995 C1979 0.961 . S
H1996 C1980 0.931 . S
H1997 C1985 0.930 . S
H1998 C1986 0.956 . S
H1999 C1986 0.961 . S
H2000 C1986 0.961 . S
H2001 C1987 0.958 . S
H2002 C1987 0.961 . S
H2003 C1987 0.960 . S
C2004 C2005 1.391 . S
C2004 C2006 1.394 . S
C2004 H2020 0.931 . S
C2005 C2004 1.391 . S
C2005 C2009 1.376 . S
C2006 C2004 1.394 . S
C2006 C2007 1.369 . S
C2006 C2010 1.531 . S
C2007 C2006 1.369 . S
C2007 C2008 1.410 . S
C2007 C2015 1.503 . S
C2008 C2007 1.410 . S
C2008 C2009 1.392 . S
C2008 C2011 1.511 . S
C2009 C2005 1.376 . S
C2009 C2008 1.392 . S
C2009 H2021 0.929 . S
C2010 C2006 1.531 . S
C2010 H2022 0.960 . S
C2010 H2023 0.962 . S
C2010 H2024 0.960 . S
C2011 C2008 1.511 . S
C2011 H2025 0.961 . S
C2011 H2026 0.961 . S
C2011 H2027 0.961 . S
C2012 C2013 1.370 . S
C2012 C2014 1.363 . S
C2012 H2028 0.931 . S
C2013 C2012 1.370 . S
C2013 C2017 1.408 . S
C2014 C2012 1.363 . S
C2014 C2015 1.370 . S
C2014 C2018 1.524 . S
C2015 C2007 1.503 . S
C2015 C2014 1.370 . S
C2015 C2016 1.403 . S
C2016 C2015 1.403 . S
C2016 C2017 1.404 . S
C2016 C2019 1.539 . S
C2017 C2013 1.408 . S
C2017 C2016 1.404 . S
C2017 H2029 0.930 . S
C2018 C2014 1.524 . S
C2018 H2030 0.956 . S
C2018 H2031 0.961 . S
C2018 H2032 0.961 . S
C2019 C2016 1.539 . S
C2019 H2033 0.958 . S
C2019 H2034 0.961 . S
C2019 H2035 0.960 . S
H2020 C2004 0.931 . S
H2021 C2009 0.929 . S
H2022 C2010 0.960 . S
H2023 C2010 0.962 . S
H2024 C2010 0.960 . S
H2025 C2011 0.961 . S
H2026 C2011 0.961 . S
H2027 C2011 0.961 . S
H2028 C2012 0.931 . S
H2029 C2017 0.930 . S
H2030 C2018 0.956 . S
H2031 C2018 0.961 . S
H2032 C2018 0.961 . S
H2033 C2019 0.958 . S
H2034 C2019 0.961 . S
H2035 C2019 0.960 . S
C2036 C2037 1.391 . S
C2036 C2038 1.394 . S
C2036 H2052 0.931 . S
C2037 C2036 1.391 . S
C2037 C2041 1.376 . S
C2038 C2036 1.394 . S
C2038 C2039 1.369 . S
C2038 C2042 1.531 . S
C2039 C2038 1.369 . S
C2039 C2040 1.410 . S
C2039 C2047 1.503 . S
C2040 C2039 1.410 . S
C2040 C2041 1.392 . S
C2040 C2043 1.511 . S
C2041 C2037 1.376 . S
C2041 C2040 1.392 . S
C2041 H2053 0.929 . S
C2042 C2038 1.531 . S
C2042 H2054 0.960 . S
C2042 H2055 0.962 . S
C2042 H2056 0.960 . S
C2043 C2040 1.511 . S
C2043 H2057 0.961 . S
C2043 H2058 0.961 . S
C2043 H2059 0.961 . S
C2044 C2045 1.370 . S
C2044 C2046 1.363 . S
C2044 H2060 0.931 . S
C2045 C2044 1.370 . S
C2045 C2049 1.408 . S
C2046 C2044 1.363 . S
C2046 C2047 1.370 . S
C2046 C2050 1.524 . S
C2047 C2039 1.503 . S
C2047 C2046 1.370 . S
C2047 C2048 1.403 . S
C2048 C2047 1.403 . S
C2048 C2049 1.404 . S
C2048 C2051 1.539 . S
C2049 C2045 1.408 . S
C2049 C2048 1.404 . S
C2049 H2061 0.930 . S
C2050 C2046 1.524 . S
C2050 H2062 0.956 . S
C2050 H2063 0.961 . S
C2050 H2064 0.961 . S
C2051 C2048 1.539 . S
C2051 H2065 0.958 . S
C2051 H2066 0.961 . S
C2051 H2067 0.960 . S
H2052 C2036 0.931 . S
H2053 C2041 0.929 . S
H2054 C2042 0.960 . S
H2055 C2042 0.962 . S
H2056 C2042 0.960 . S
H2057 C2043 0.961 . S
H2058 C2043 0.961 . S
H2059 C2043 0.961 . S
H2060 C2044 0.931 . S
H2061 C2049 0.930 . S
H2062 C2050 0.956 . S
H2063 C2050 0.961 . S
H2064 C2050 0.961 . S
H2065 C2051 0.958 . S
H2066 C2051 0.961 . S
H2067 C2051 0.960 . S
C2068 C2069 1.391 . S
C2068 C2070 1.394 . S
C2068 H2084 0.931 . S
C2069 C2068 1.391 . S
C2069 C2073 1.376 . S
C2070 C2068 1.394 . S
C2070 C2071 1.369 . S
C2070 C2074 1.531 . S
C2071 C2070 1.369 . S
C2071 C2072 1.410 . S
C2071 C2079 1.503 . S
C2072 C2071 1.410 . S
C2072 C2073 1.392 . S
C2072 C2075 1.511 . S
C2073 C2069 1.376 . S
C2073 C2072 1.392 . S
C2073 H2085 0.929 . S
C2074 C2070 1.531 . S
C2074 H2086 0.960 . S
C2074 H2087 0.962 . S
C2074 H2088 0.960 . S
C2075 C2072 1.511 . S
C2075 H2089 0.961 . S
C2075 H2090 0.961 . S
C2075 H2091 0.961 . S
C2076 C2077 1.370 . S
C2076 C2078 1.363 . S
C2076 H2092 0.931 . S
C2077 C2076 1.370 . S
C2077 C2081 1.408 . S
C2078 C2076 1.363 . S
C2078 C2079 1.370 . S
C2078 C2082 1.524 . S
C2079 C2071 1.503 . S
C2079 C2078 1.370 . S
C2079 C2080 1.403 . S
C2080 C2079 1.403 . S
C2080 C2081 1.404 . S
C2080 C2083 1.539 . S
C2081 C2077 1.408 . S
C2081 C2080 1.404 . S
C2081 H2093 0.930 . S
C2082 C2078 1.524 . S
C2082 H2094 0.956 . S
C2082 H2095 0.961 . S
C2082 H2096 0.961 . S
C2083 C2080 1.539 . S
C2083 H2097 0.958 . S
C2083 H2098 0.961 . S
C2083 H2099 0.960 . S
H2084 C2068 0.931 . S
H2085 C2073 0.929 . S
H2086 C2074 0.960 . S
H2087 C2074 0.962 . S
H2088 C2074 0.960 . S
H2089 C2075 0.961 . S
H2090 C2075 0.961 . S
H2091 C2075 0.961 . S
H2092 C2076 0.931 . S
H2093 C2081 0.930 . S
H2094 C2082 0.956 . S
H2095 C2082 0.961 . S
H2096 C2082 0.961 . S
H2097 C2083 0.958 . S
H2098 C2083 0.961 . S
H2099 C2083 0.960 . S
C2100 C2101 1.391 . S
C2100 C2102 1.394 . S
C2100 H2116 0.931 . S
C2101 C2100 1.391 . S
C2101 C2105 1.376 . S
C2102 C2100 1.394 . S
C2102 C2103 1.369 . S
C2102 C2106 1.531 . S
C2103 C2102 1.369 . S
C2103 C2104 1.410 . S
C2103 C2111 1.503 . S
C2104 C2103 1.410 . S
C2104 C2105 1.392 . S
C2104 C2107 1.511 . S
C2105 C2101 1.376 . S
C2105 C2104 1.392 . S
C2105 H2117 0.929 . S
C2106 C2102 1.531 . S
C2106 H2118 0.960 . S
C2106 H2119 0.962 . S
C2106 H2120 0.960 . S
C2107 C2104 1.511 . S
C2107 H2121 0.961 . S
C2107 H2122 0.961 . S
C2107 H2123 0.961 . S
C2108 C2109 1.370 . S
C2108 C2110 1.363 . S
C2108 H2124 0.931 . S
C2109 C2108 1.370 . S
C2109 C2113 1.408 . S
C2110 C2108 1.363 . S
C2110 C2111 1.370 . S
C2110 C2114 1.524 . S
C2111 C2103 1.503 . S
C2111 C2110 1.370 . S
C2111 C2112 1.403 . S
C2112 C2111 1.403 . S
C2112 C2113 1.404 . S
C2112 C2115 1.539 . S
C2113 C2109 1.408 . S
C2113 C2112 1.404 . S
C2113 H2125 0.930 . S
C2114 C2110 1.524 . S
C2114 H2126 0.956 . S
C2114 H2127 0.961 . S
C2114 H2128 0.961 . S
C2115 C2112 1.539 . S
C2115 H2129 0.958 . S
C2115 H2130 0.961 . S
C2115 H2131 0.960 . S
H2116 C2100 0.931 . S
H2117 C2105 0.929 . S
H2118 C2106 0.960 . S
H2119 C2106 0.962 . S
H2120 C2106 0.960 . S
H2121 C2107 0.961 . S
H2122 C2107 0.961 . S
H2123 C2107 0.961 . S
H2124 C2108 0.931 . S
H2125 C2113 0.930 . S
H2126 C2114 0.956 . S
H2127 C2114 0.961 . S
H2128 C2114 0.961 . S
H2129 C2115 0.958 . S
H2130 C2115 0.961 . S
H2131 C2115 0.960 . S
C2132 C2133 1.391 . S
C2132 C2134 1.394 . S
C2132 H2148 0.931 . S
C2133 C2132 1.391 . S
C2133 C2137 1.376 . S
C2134 C2132 1.394 . S
C2134 C2135 1.369 . S
C2134 C2138 1.531 . S
C2135 C2134 1.369 . S
C2135 C2136 1.410 . S
C2135 C2143 1.503 . S
C2136 C2135 1.410 . S
C2136 C2137 1.392 . S
C2136 C2139 1.511 . S
C2137 C2133 1.376 . S
C2137 C2136 1.392 . S
C2137 H2149 0.929 . S
C2138 C2134 1.531 . S
C2138 H2150 0.960 . S
C2138 H2151 0.962 . S
C2138 H2152 0.960 . S
C2139 C2136 1.511 . S
C2139 H2153 0.961 . S
C2139 H2154 0.961 . S
C2139 H2155 0.961 . S
C2140 C2141 1.370 . S
C2140 C2142 1.363 . S
C2140 H2156 0.931 . S
C2141 C2140 1.370 . S
C2141 C2145 1.408 . S
C2142 C2140 1.363 . S
C2142 C2143 1.370 . S
C2142 C2146 1.524 . S
C2143 C2135 1.503 . S
C2143 C2142 1.370 . S
C2143 C2144 1.403 . S
C2144 C2143 1.403 . S
C2144 C2145 1.404 . S
C2144 C2147 1.539 . S
C2145 C2141 1.408 . S
C2145 C2144 1.404 . S
C2145 H2157 0.930 . S
C2146 C2142 1.524 . S
C2146 H2158 0.956 . S
C2146 H2159 0.961 . S
C2146 H2160 0.961 . S
C2147 C2144 1.539 . S
C2147 H2161 0.958 . S
C2147 H2162 0.961 . S
C2147 H2163 0.960 . S
H2148 C2132 0.931 . S
H2149 C2137 0.929 . S
H2150 C2138 0.960 . S
H2151 C2138 0.962 . S
H2152 C2138 0.960 . S
H2153 C2139 0.961 . S
H2154 C2139 0.961 . S
H2155 C2139 0.961 . S
H2156 C2140 0.931 . S
H2157 C2145 0.930 . S
H2158 C2146 0.956 . S
H2159 C2146 0.961 . S
H2160 C2146 0.961 . S
H2161 C2147 0.958 . S
H2162 C2147 0.961 . S
H2163 C2147 0.960 . S
C2164 C2165 1.391 . S
C2164 C2166 1.394 . S
C2164 H2180 0.931 . S
C2165 C2164 1.391 . S
C2165 C2169 1.376 . S
C2166 C2164 1.394 . S
C2166 C2167 1.369 . S
C2166 C2170 1.531 . S
C2167 C2166 1.369 . S
C2167 C2168 1.410 . S
C2167 C2175 1.503 . S
C2168 C2167 1.410 . S
C2168 C2169 1.392 . S
C2168 C2171 1.511 . S
C2169 C2165 1.376 . S
C2169 C2168 1.392 . S
C2169 H2181 0.929 . S
C2170 C2166 1.531 . S
C2170 H2182 0.960 . S
C2170 H2183 0.962 . S
C2170 H2184 0.960 . S
C2171 C2168 1.511 . S
C2171 H2185 0.961 . S
C2171 H2186 0.961 . S
C2171 H2187 0.961 . S
C2172 C2173 1.370 . S
C2172 C2174 1.363 . S
C2172 H2188 0.931 . S
C2173 C2172 1.370 . S
C2173 C2177 1.408 . S
C2174 C2172 1.363 . S
C2174 C2175 1.370 . S
C2174 C2178 1.524 . S
C2175 C2167 1.503 . S
C2175 C2174 1.370 . S
C2175 C2176 1.403 . S
C2176 C2175 1.403 . S
C2176 C2177 1.404 . S
C2176 C2179 1.539 . S
C2177 C2173 1.408 . S
C2177 C2176 1.404 . S
C2177 H2189 0.930 . S
C2178 C2174 1.524 . S
C2178 H2190 0.956 . S
C2178 H2191 0.961 . S
C2178 H2192 0.961 . S
C2179 C2176 1.539 . S
C2179 H2193 0.958 . S
C2179 H2194 0.961 . S
C2179 H2195 0.960 . S
H2180 C2164 0.931 . S
H2181 C2169 0.929 . S
H2182 C2170 0.960 . S
H2183 C2170 0.962 . S
H2184 C2170 0.960 . S
H2185 C2171 0.961 . S
H2186 C2171 0.961 . S
H2187 C2171 0.961 . S
H2188 C2172 0.931 . S
H2189 C2177 0.930 . S
H2190 C2178 0.956 . S
H2191 C2178 0.961 . S
H2192 C2178 0.961 . S
H2193 C2179 0.958 . S
H2194 C2179 0.961 . S
H2195 C2179 0.960 . S
C2196 C2197 1.391 . S
C2196 C2198 1.394 . S
C2196 H2212 0.931 . S
C2197 C2196 1.391 . S
C2197 C2201 1.376 . S
C2198 C2196 1.394 . S
C2198 C2199 1.369 . S
C2198 C2202 1.531 . S
C2199 C2198 1.369 . S
C2199 C2200 1.410 . S
C2199 C2207 1.503 . S
C2200 C2199 1.410 . S
C2200 C2201 1.392 . S
C2200 C2203 1.511 . S
C2201 C2197 1.376 . S
C2201 C2200 1.392 . S
C2201 H2213 0.929 . S
C2202 C2198 1.531 . S
C2202 H2214 0.960 . S
C2202 H2215 0.962 . S
C2202 H2216 0.960 . S
C2203 C2200 1.511 . S
C2203 H2217 0.961 . S
C2203 H2218 0.961 . S
C2203 H2219 0.961 . S
C2204 C2205 1.370 . S
C2204 C2206 1.363 . S
C2204 H2220 0.931 . S
C2205 C2204 1.370 . S
C2205 C2209 1.408 . S
C2206 C2204 1.363 . S
C2206 C2207 1.370 . S
C2206 C2210 1.524 . S
C2207 C2199 1.503 . S
C2207 C2206 1.370 . S
C2207 C2208 1.403 . S
C2208 C2207 1.403 . S
C2208 C2209 1.404 . S
C2208 C2211 1.539 . S
C2209 C2205 1.408 . S
C2209 C2208 1.404 . S
C2209 H2221 0.930 . S
C2210 C2206 1.524 . S
C2210 H2222 0.956 . S
C2210 H2223 0.961 . S
C2210 H2224 0.961 . S
C2211 C2208 1.539 . S
C2211 H2225 0.958 . S
C2211 H2226 0.961 . S
C2211 H2227 0.960 . S
H2212 C2196 0.931 . S
H2213 C2201 0.929 . S
H2214 C2202 0.960 . S
H2215 C2202 0.962 . S
H2216 C2202 0.960 . S
H2217 C2203 0.961 . S
H2218 C2203 0.961 . S
H2219 C2203 0.961 . S
H2220 C2204 0.931 . S
H2221 C2209 0.930 . S
H2222 C2210 0.956 . S
H2223 C2210 0.961 . S
H2224 C2210 0.961 . S
H2225 C2211 0.958 . S
H2226 C2211 0.961 . S
H2227 C2211 0.960 . S
C2228 C2229 1.391 . S
C2228 C2230 1.394 . S
C2228 H2244 0.931 . S
C2229 C2228 1.391 . S
C2229 C2233 1.376 . S
C2230 C2228 1.394 . S
C2230 C2231 1.369 . S
C2230 C2234 1.531 . S
C2231 C2230 1.369 . S
C2231 C2232 1.410 . S
C2231 C2239 1.503 . S
C2232 C2231 1.410 . S
C2232 C2233 1.392 . S
C2232 C2235 1.511 . S
C2233 C2229 1.376 . S
C2233 C2232 1.392 . S
C2233 H2245 0.929 . S
C2234 C2230 1.531 . S
C2234 H2246 0.960 . S
C2234 H2247 0.962 . S
C2234 H2248 0.960 . S
C2235 C2232 1.511 . S
C2235 H2249 0.961 . S
C2235 H2250 0.961 . S
C2235 H2251 0.961 . S
C2236 C2237 1.370 . S
C2236 C2238 1.363 . S
C2236 H2252 0.931 . S
C2237 C2236 1.370 . S
C2237 C2241 1.408 . S
C2238 C2236 1.363 . S
C2238 C2239 1.370 . S
C2238 C2242 1.524 . S
C2239 C2231 1.503 . S
C2239 C2238 1.370 . S
C2239 C2240 1.403 . S
C2240 C2239 1.403 . S
C2240 C2241 1.404 . S
C2240 C2243 1.539 . S
C2241 C2237 1.408 . S
C2241 C2240 1.404 . S
C2241 H2253 0.930 . S
C2242 C2238 1.524 . S
C2242 H2254 0.956 . S
C2242 H2255 0.961 . S
C2242 H2256 0.961 . S
C2243 C2240 1.539 . S
C2243 H2257 0.958 . S
C2243 H2258 0.961 . S
C2243 H2259 0.960 . S
H2244 C2228 0.931 . S
H2245 C2233 0.929 . S
H2246 C2234 0.960 . S
H2247 C2234 0.962 . S
H2248 C2234 0.960 . S
H2249 C2235 0.961 . S
H2250 C2235 0.961 . S
H2251 C2235 0.961 . S
H2252 C2236 0.931 . S
H2253 C2241 0.930 . S
H2254 C2242 0.956 . S
H2255 C2242 0.961 . S
H2256 C2242 0.961 . S
H2257 C2243 0.958 . S
H2258 C2243 0.961 . S
H2259 C2243 0.960 . S
C2260 C2261 1.391 . S
C2260 C2262 1.394 . S
C2260 H2276 0.931 . S
C2261 C2260 1.391 . S
C2261 C2265 1.376 . S
C2262 C2260 1.394 . S
C2262 C2263 1.369 . S
C2262 C2266 1.531 . S
C2263 C2262 1.369 . S
C2263 C2264 1.410 . S
C2263 C2271 1.503 . S
C2264 C2263 1.410 . S
C2264 C2265 1.392 . S
C2264 C2267 1.511 . S
C2265 C2261 1.376 . S
C2265 C2264 1.392 . S
C2265 H2277 0.929 . S
C2266 C2262 1.531 . S
C2266 H2278 0.960 . S
C2266 H2279 0.962 . S
C2266 H2280 0.960 . S
C2267 C2264 1.511 . S
C2267 H2281 0.961 . S
C2267 H2282 0.961 . S
C2267 H2283 0.961 . S
C2268 C2269 1.370 . S
C2268 C2270 1.363 . S
C2268 H2284 0.931 . S
C2269 C2268 1.370 . S
C2269 C2273 1.408 . S
C2270 C2268 1.363 . S
C2270 C2271 1.370 . S
C2270 C2274 1.524 . S
C2271 C2263 1.503 . S
C2271 C2270 1.370 . S
C2271 C2272 1.403 . S
C2272 C2271 1.403 . S
C2272 C2273 1.404 . S
C2272 C2275 1.539 . S
C2273 C2269 1.408 . S
C2273 C2272 1.404 . S
C2273 H2285 0.930 . S
C2274 C2270 1.524 . S
C2274 H2286 0.956 . S
C2274 H2287 0.961 . S
C2274 H2288 0.961 . S
C2275 C2272 1.539 . S
C2275 H2289 0.958 . S
C2275 H2290 0.961 . S
C2275 H2291 0.960 . S
H2276 C2260 0.931 . S
H2277 C2265 0.929 . S
H2278 C2266 0.960 . S
H2279 C2266 0.962 . S
H2280 C2266 0.960 . S
H2281 C2267 0.961 . S
H2282 C2267 0.961 . S
H2283 C2267 0.961 . S
H2284 C2268 0.931 . S
H2285 C2273 0.930 . S
H2286 C2274 0.956 . S
H2287 C2274 0.961 . S
H2288 C2274 0.961 . S
H2289 C2275 0.958 . S
H2290 C2275 0.961 . S
H2291 C2275 0.960 . S
C2292 C2293 1.391 . S
C2292 C2294 1.394 . S
C2292 H2308 0.931 . S
C2293 C2292 1.391 . S
C2293 C2297 1.376 . S
C2294 C2292 1.394 . S
C2294 C2295 1.369 . S
C2294 C2298 1.531 . S
C2295 C2294 1.369 . S
C2295 C2296 1.410 . S
C2295 C2303 1.503 . S
C2296 C2295 1.410 . S
C2296 C2297 1.392 . S
C2296 C2299 1.511 . S
C2297 C2293 1.376 . S
C2297 C2296 1.392 . S
C2297 H2309 0.929 . S
C2298 C2294 1.531 . S
C2298 H2310 0.960 . S
C2298 H2311 0.962 . S
C2298 H2312 0.960 . S
C2299 C2296 1.511 . S
C2299 H2313 0.961 . S
C2299 H2314 0.961 . S
C2299 H2315 0.961 . S
C2300 C2301 1.370 . S
C2300 C2302 1.363 . S
C2300 H2316 0.931 . S
C2301 C2300 1.370 . S
C2301 C2305 1.408 . S
C2302 C2300 1.363 . S
C2302 C2303 1.370 . S
C2302 C2306 1.524 . S
C2303 C2295 1.503 . S
C2303 C2302 1.370 . S
C2303 C2304 1.403 . S
C2304 C2303 1.403 . S
C2304 C2305 1.404 . S
C2304 C2307 1.539 . S
C2305 C2301 1.408 . S
C2305 C2304 1.404 . S
C2305 H2317 0.930 . S
C2306 C2302 1.524 . S
C2306 H2318 0.956 . S
C2306 H2319 0.961 . S
C2306 H2320 0.961 . S
C2307 C2304 1.539 . S
C2307 H2321 0.958 . S
C2307 H2322 0.961 . S
C2307 H2323 0.960 . S
H2308 C2292 0.931 . S
H2309 C2297 0.929 . S
H2310 C2298 0.960 . S
H2311 C2298 0.962 . S
H2312 C2298 0.960 . S
H2313 C2299 0.961 . S
H2314 C2299 0.961 . S
H2315 C2299 0.961 . S
H2316 C2300 0.931 . S
H2317 C2305 0.930 . S
H2318 C2306 0.956 . S
H2319 C2306 0.961 . S
H2320 C2306 0.961 . S
H2321 C2307 0.958 . S
H2322 C2307 0.961 . S
H2323 C2307 0.960 . S
C2324 C2325 1.391 . S
C2324 C2326 1.394 . S
C2324 H2340 0.931 . S
C2325 C2324 1.391 . S
C2325 C2329 1.376 . S
C2326 C2324 1.394 . S
C2326 C2327 1.369 . S
C2326 C2330 1.531 . S
C2327 C2326 1.369 . S
C2327 C2328 1.410 . S
C2327 C2335 1.503 . S
C2328 C2327 1.410 . S
C2328 C2329 1.392 . S
C2328 C2331 1.511 . S
C2329 C2325 1.376 . S
C2329 C2328 1.392 . S
C2329 H2341 0.929 . S
C2330 C2326 1.531 . S
C2330 H2342 0.960 . S
C2330 H2343 0.962 . S
C2330 H2344 0.960 . S
C2331 C2328 1.511 . S
C2331 H2345 0.961 . S
C2331 H2346 0.961 . S
C2331 H2347 0.961 . S
C2332 C2333 1.370 . S
C2332 C2334 1.363 . S
C2332 H2348 0.931 . S
C2333 C2332 1.370 . S
C2333 C2337 1.408 . S
C2334 C2332 1.363 . S
C2334 C2335 1.370 . S
C2334 C2338 1.524 . S
C2335 C2327 1.503 . S
C2335 C2334 1.370 . S
C2335 C2336 1.403 . S
C2336 C2335 1.403 . S
C2336 C2337 1.404 . S
C2336 C2339 1.539 . S
C2337 C2333 1.408 . S
C2337 C2336 1.404 . S
C2337 H2349 0.930 . S
C2338 C2334 1.524 . S
C2338 H2350 0.956 . S
C2338 H2351 0.961 . S
C2338 H2352 0.961 . S
C2339 C2336 1.539 . S
C2339 H2353 0.958 . S
C2339 H2354 0.961 . S
C2339 H2355 0.960 . S
H2340 C2324 0.931 . S
H2341 C2329 0.929 . S
H2342 C2330 0.960 . S
H2343 C2330 0.962 . S
H2344 C2330 0.960 . S
H2345 C2331 0.961 . S
H2346 C2331 0.961 . S
H2347 C2331 0.961 . S
H2348 C2332 0.931 . S
H2349 C2337 0.930 . S
H2350 C2338 0.956 . S
H2351 C2338 0.961 . S
H2352 C2338 0.961 . S
H2353 C2339 0.958 . S
H2354 C2339 0.961 . S
H2355 C2339 0.960 . S
C2356 C2357 1.391 . S
C2356 C2358 1.394 . S
C2356 H2372 0.931 . S
C2357 C2356 1.391 . S
C2357 C2361 1.376 . S
C2358 C2356 1.394 . S
C2358 C2359 1.369 . S
C2358 C2362 1.531 . S
C2359 C2358 1.369 . S
C2359 C2360 1.410 . S
C2359 C2367 1.503 . S
C2360 C2359 1.410 . S
C2360 C2361 1.392 . S
C2360 C2363 1.511 . S
C2361 C2357 1.376 . S
C2361 C2360 1.392 . S
C2361 H2373 0.929 . S
C2362 C2358 1.531 . S
C2362 H2374 0.960 . S
C2362 H2375 0.962 . S
C2362 H2376 0.960 . S
C2363 C2360 1.511 . S
C2363 H2377 0.961 . S
C2363 H2378 0.961 . S
C2363 H2379 0.961 . S
C2364 C2365 1.370 . S
C2364 C2366 1.363 . S
C2364 H2380 0.931 . S
C2365 C2364 1.370 . S
C2365 C2369 1.408 . S
C2366 C2364 1.363 . S
C2366 C2367 1.370 . S
C2366 C2370 1.524 . S
C2367 C2359 1.503 . S
C2367 C2366 1.370 . S
C2367 C2368 1.403 . S
C2368 C2367 1.403 . S
C2368 C2369 1.404 . S
C2368 C2371 1.539 . S
C2369 C2365 1.408 . S
C2369 C2368 1.404 . S
C2369 H2381 0.930 . S
C2370 C2366 1.524 . S
C2370 H2382 0.956 . S
C2370 H2383 0.961 . S
C2370 H2384 0.961 . S
C2371 C2368 1.539 . S
C2371 H2385 0.958 . S
C2371 H2386 0.961 . S
C2371 H2387 0.960 . S
H2372 C2356 0.931 . S
H2373 C2361 0.929 . S
H2374 C2362 0.960 . S
H2375 C2362 0.962 . S
H2376 C2362 0.960 . S
H2377 C2363 0.961 . S
H2378 C2363 0.961 . S
H2379 C2363 0.961 . S
H2380 C2364 0.931 . S
H2381 C2369 0.930 . S
H2382 C2370 0.956 . S
H2383 C2370 0.961 . S
H2384 C2370 0.961 . S
H2385 C2371 0.958 . S
H2386 C2371 0.961 . S
H2387 C2371 0.960 . S
C2388 C2389 1.391 . S
C2388 C2390 1.394 . S
C2388 H2404 0.931 . S
C2389 C2388 1.391 . S
C2389 C2393 1.376 . S
C2390 C2388 1.394 . S
C2390 C2391 1.369 . S
C2390 C2394 1.531 . S
C2391 C2390 1.369 . S
C2391 C2392 1.410 . S
C2391 C2399 1.503 . S
C2392 C2391 1.410 . S
C2392 C2393 1.392 . S
C2392 C2395 1.511 . S
C2393 C2389 1.376 . S
C2393 C2392 1.392 . S
C2393 H2405 0.929 . S
C2394 C2390 1.531 . S
C2394 H2406 0.960 . S
C2394 H2407 0.962 . S
C2394 H2408 0.960 . S
C2395 C2392 1.511 . S
C2395 H2409 0.961 . S
C2395 H2410 0.961 . S
C2395 H2411 0.961 . S
C2396 C2397 1.370 . S
C2396 C2398 1.363 . S
C2396 H2412 0.931 . S
C2397 C2396 1.370 . S
C2397 C2401 1.408 . S
C2398 C2396 1.363 . S
C2398 C2399 1.370 . S
C2398 C2402 1.524 . S
C2399 C2391 1.503 . S
C2399 C2398 1.370 . S
C2399 C2400 1.403 . S
C2400 C2399 1.403 . S
C2400 C2401 1.404 . S
C2400 C2403 1.539 . S
C2401 C2397 1.408 . S
C2401 C2400 1.404 . S
C2401 H2413 0.930 . S
C2402 C2398 1.524 . S
C2402 H2414 0.956 . S
C2402 H2415 0.961 . S
C2402 H2416 0.961 . S
C2403 C2400 1.539 . S
C2403 H2417 0.958 . S
C2403 H2418 0.961 . S
C2403 H2419 0.960 . S
H2404 C2388 0.931 . S
H2405 C2393 0.929 . S
H2406 C2394 0.960 . S
H2407 C2394 0.962 . S
H2408 C2394 0.960 . S
H2409 C2395 0.961 . S
H2410 C2395 0.961 . S
H2411 C2395 0.961 . S
H2412 C2396 0.931 . S
H2413 C2401 0.930 . S
H2414 C2402 0.956 . S
H2415 C2402 0.961 . S
H2416 C2402 0.961 . S
H2417 C2403 0.958 . S
H2418 C2403 0.961 . S
H2419 C2403 0.960 . S
C2420 C2421 1.391 . S
C2420 C2422 1.394 . S
C2420 H2436 0.931 . S
C2421 C2420 1.391 . S
C2421 C2425 1.376 . S
C2422 C2420 1.394 . S
C2422 C2423 1.369 . S
C2422 C2426 1.531 . S
C2423 C2422 1.369 . S
C2423 C2424 1.410 . S
C2423 C2431 1.503 . S
C2424 C2423 1.410 . S
C2424 C2425 1.392 . S
C2424 C2427 1.511 . S
C2425 C2421 1.376 . S
C2425 C2424 1.392 . S
C2425 H2437 0.929 . S
C2426 C2422 1.531 . S
C2426 H2438 0.960 . S
C2426 H2439 0.962 . S
C2426 H2440 0.960 . S
C2427 C2424 1.511 . S
C2427 H2441 0.961 . S
C2427 H2442 0.961 . S
C2427 H2443 0.961 . S
C2428 C2429 1.370 . S
C2428 C2430 1.363 . S
C2428 H2444 0.931 . S
C2429 C2428 1.370 . S
C2429 C2433 1.408 . S
C2430 C2428 1.363 . S
C2430 C2431 1.370 . S
C2430 C2434 1.524 . S
C2431 C2423 1.503 . S
C2431 C2430 1.370 . S
C2431 C2432 1.403 . S
C2432 C2431 1.403 . S
C2432 C2433 1.404 . S
C2432 C2435 1.539 . S
C2433 C2429 1.408 . S
C2433 C2432 1.404 . S
C2433 H2445 0.930 . S
C2434 C2430 1.524 . S
C2434 H2446 0.956 . S
C2434 H2447 0.961 . S
C2434 H2448 0.961 . S
C2435 C2432 1.539 . S
C2435 H2449 0.958 . S
C2435 H2450 0.961 . S
C2435 H2451 0.960 . S
H2436 C2420 0.931 . S
H2437 C2425 0.929 . S
H2438 C2426 0.960 . S
H2439 C2426 0.962 . S
H2440 C2426 0.960 . S
H2441 C2427 0.961 . S
H2442 C2427 0.961 . S
H2443 C2427 0.961 . S
H2444 C2428 0.931 . S
H2445 C2433 0.930 . S
H2446 C2434 0.956 . S
H2447 C2434 0.961 . S
H2448 C2434 0.961 . S
H2449 C2435 0.958 . S
H2450 C2435 0.961 . S
H2451 C2435 0.960 . S
C2452 C2453 1.391 . S
C2452 C2454 1.394 . S
C2452 H2468 0.931 . S
C2453 C2452 1.391 . S
C2453 C2457 1.376 . S
C2454 C2452 1.394 . S
C2454 C2455 1.369 . S
C2454 C2458 1.531 . S
C2455 C2454 1.369 . S
C2455 C2456 1.410 . S
C2455 C2463 1.503 . S
C2456 C2455 1.410 . S
C2456 C2457 1.392 . S
C2456 C2459 1.511 . S
C2457 C2453 1.376 . S
C2457 C2456 1.392 . S
C2457 H2469 0.929 . S
C2458 C2454 1.531 . S
C2458 H2470 0.960 . S
C2458 H2471 0.962 . S
C2458 H2472 0.960 . S
C2459 C2456 1.511 . S
C2459 H2473 0.961 . S
C2459 H2474 0.961 . S
C2459 H2475 0.961 . S
C2460 C2461 1.370 . S
C2460 C2462 1.363 . S
C2460 H2476 0.931 . S
C2461 C2460 1.370 . S
C2461 C2465 1.408 . S
C2462 C2460 1.363 . S
C2462 C2463 1.370 . S
C2462 C2466 1.524 . S
C2463 C2455 1.503 . S
C2463 C2462 1.370 . S
C2463 C2464 1.403 . S
C2464 C2463 1.403 . S
C2464 C2465 1.404 . S
C2464 C2467 1.539 . S
C2465 C2461 1.408 . S
C2465 C2464 1.404 . S
C2465 H2477 0.930 . S
C2466 C2462 1.524 . S
C2466 H2478 0.956 . S
C2466 H2479 0.961 . S
C2466 H2480 0.961 . S
C2467 C2464 1.539 . S
C2467 H2481 0.958 . S
C2467 H2482 0.961 . S
C2467 H2483 0.960 . S
H2468 C2452 0.931 . S
H2469 C2457 0.929 . S
H2470 C2458 0.960 . S
H2471 C2458 0.962 . S
H2472 C2458 0.960 . S
H2473 C2459 0.961 . S
H2474 C2459 0.961 . S
H2475 C2459 0.961 . S
H2476 C2460 0.931 . S
H2477 C2465 0.930 . S
H2478 C2466 0.956 . S
H2479 C2466 0.961 . S
H2480 C2466 0.961 . S
H2481 C2467 0.958 . S
H2482 C2467 0.961 . S
H2483 C2467 0.960 . S
C957 C348 1.183 . S
C949 N2 1.322 . S
C989 C435 2.142 . S
C981 C7 2.151 . S
C1021 C507 1.201 . S
C1013 N12 1.333 . S
C1045 C16 1.944 . S
C1053 C594 1.955 . S
C1085 C678 2.185 . S
C1077 C30 2.178 1_565 S
C1117 C768 1.056 . S
C1109 N35 1.230 . S
C1141 C39 2.042 . S
C1149 C855 2.032 . S
C1181 C927 1.165 . S
C1173 N25 1.176 . S
C1213 C343 1.086 . S
C1205 N58 1.077 . S
C1237 N81 1.867 . S
C1245 C416 1.867 . S
C1277 C519 1.175 . S
C1269 N104 1.074 . S
C1301 N127 1.167 . S
C1309 C600 0.929 . S
C1341 C684 0.768 . S
C1333 N48 0.817 . S
C1373 C763 1.441 . S
C1365 N71 1.406 1_556 S
C1397 N94 1.432 . S
C1405 C836 1.418 . S
C1437 C939 1.534 . S
C1429 N117 1.481 . S
C1461 C85 2.110 . S
C1469 C342 2.118 . S
C1493 C122 2.373 . S
C1501 C679 2.342 . S
C1525 C53 1.761 . S
C1533 C762 1.800 . S
C1565 C843 1.226 . S
C1557 C76 1.485 1_655 S
C1597 C920 1.731 . S
C1589 C99 1.837 . S
C1629 C500 1.904 . S
C1621 C131 1.929 . S
C1661 C595 1.901 . S
C1653 C62 1.908 1_565 S
C1685 C108 1.174 . S
C1693 C423 0.977 . S
C1725 C936 1.194 . S
C1717 N140 1.393 . S
C1749 C145 2.148 . S
C1757 C687 2.134 . S
C1789 C759 1.100 . S
C1781 N150 1.286 . S
C1813 C154 1.930 . S
C1821 C846 1.964 . S
C1853 C426 2.178 . S
C1845 C168 2.181 . S
C1877 N173 1.112 . S
C1885 C516 1.018 . S
C1917 C603 2.023 . S
C1909 C177 2.048 . S
C1949 C339 1.136 . S
C1941 N163 1.246 . S
C1981 C931 1.520 . S
C1973 C200 1.586 . S
C2013 C668 2.163 . S
C2005 N219 2.161 . S
C2037 N242 1.393 . S
C2045 C771 1.460 . S
C2077 C852 1.141 . S
C2069 C269 1.467 . S
C2109 C432 0.972 . S
C2101 C191 1.128 . S
C2133 N209 1.647 . S
C2141 C511 1.722 . S
C2165 N232 1.697 . S
C2173 C584 1.744 . S
C2197 C260 2.023 . S
C2205 C351 2.016 . S
C2229 C223 1.786 . S
C2237 C930 1.794 . S
C2261 N255 1.950 . S
C2269 C427 1.949 . S
C2293 N186 1.383 . S
C2301 C510 1.404 . S
C2333 C591 0.979 . S
C2325 C214 1.163 . S
C2365 C332 1.407 . S
C2357 C237 1.496 . S
C2397 C752 1.514 . S
C2389 N265 1.438 . S
C2429 C847 1.526 . S
C2421 N196 1.508 . S
C2461 C675 0.833 . S
C2453 C246 0.833 . S
