# Generated by pormake.
# Topology gar, (4,6)-cn, num edge types: 1
# Building blocks:
#     Node 0, Type 0, BuildingBlock: GALJAG_clean_sbu_0, # of connection points: 4
#     Node 1, Type 0, BuildingBlock: GALJAG_clean_sbu_0, # of connection points: 4
#     Node 2, Type 0, BuildingBlock: GALJAG_clean_sbu_0, # of connection points: 4
#     Node 3, Type 0, BuildingBlock: GALJAG_clean_sbu_0, # of connection points: 4
#     Node 4, Type 0, BuildingBlock: GALJAG_clean_sbu_0, # of connection points: 4
#     Node 5, Type 0, BuildingBlock: GALJAG_clean_sbu_0, # of connection points: 4
#     Node 6, Type 0, BuildingBlock: GALJAG_clean_sbu_0, # of connection points: 4
#     Node 7, Type 0, BuildingBlock: GALJAG_clean_sbu_0, # of connection points: 4
#     Node 8, Type 0, BuildingBlock: GALJAG_clean_sbu_0, # of connection points: 4
#     Node 9, Type 0, BuildingBlock: GALJAG_clean_sbu_0, # of connection points: 4
#     Node 10, Type 0, BuildingBlock: GALJAG_clean_sbu_0, # of connection points: 4
#     Node 11, Type 0, BuildingBlock: GALJAG_clean_sbu_0, # of connection points: 4
#     Node 12, Type 0, BuildingBlock: GALJAG_clean_sbu_0, # of connection points: 4
#     Node 13, Type 0, BuildingBlock: GALJAG_clean_sbu_0, # of connection points: 4
#     Node 14, Type 0, BuildingBlock: GALJAG_clean_sbu_0, # of connection points: 4
#     Node 15, Type 0, BuildingBlock: GALJAG_clean_sbu_0, # of connection points: 4
#     Node 16, Type 0, BuildingBlock: GALJAG_clean_sbu_0, # of connection points: 4
#     Node 17, Type 0, BuildingBlock: GALJAG_clean_sbu_0, # of connection points: 4
#     Node 18, Type 0, BuildingBlock: GALJAG_clean_sbu_0, # of connection points: 4
#     Node 19, Type 0, BuildingBlock: GALJAG_clean_sbu_0, # of connection points: 4
#     Node 20, Type 0, BuildingBlock: GALJAG_clean_sbu_0, # of connection points: 4
#     Node 21, Type 0, BuildingBlock: GALJAG_clean_sbu_0, # of connection points: 4
#     Node 22, Type 0, BuildingBlock: GALJAG_clean_sbu_0, # of connection points: 4
#     Node 23, Type 0, BuildingBlock: GALJAG_clean_sbu_0, # of connection points: 4
#     Node 24, Type 1, BuildingBlock: MIFKUJ_clean_sbu_0, # of connection points: 6
#     Node 25, Type 1, BuildingBlock: MIFKUJ_clean_sbu_0, # of connection points: 6
#     Node 26, Type 1, BuildingBlock: MIFKUJ_clean_sbu_0, # of connection points: 6
#     Node 27, Type 1, BuildingBlock: MIFKUJ_clean_sbu_0, # of connection points: 6
#     Node 28, Type 1, BuildingBlock: MIFKUJ_clean_sbu_0, # of connection points: 6
#     Node 29, Type 1, BuildingBlock: MIFKUJ_clean_sbu_0, # of connection points: 6
#     Node 30, Type 1, BuildingBlock: MIFKUJ_clean_sbu_0, # of connection points: 6
#     Node 31, Type 1, BuildingBlock: MIFKUJ_clean_sbu_0, # of connection points: 6
#     Node 32, Type 1, BuildingBlock: MIFKUJ_clean_sbu_0, # of connection points: 6
#     Node 33, Type 1, BuildingBlock: MIFKUJ_clean_sbu_0, # of connection points: 6
#     Node 34, Type 1, BuildingBlock: MIFKUJ_clean_sbu_0, # of connection points: 6
#     Node 35, Type 1, BuildingBlock: MIFKUJ_clean_sbu_0, # of connection points: 6
#     Node 36, Type 1, BuildingBlock: MIFKUJ_clean_sbu_0, # of connection points: 6
#     Node 37, Type 1, BuildingBlock: MIFKUJ_clean_sbu_0, # of connection points: 6
#     Node 38, Type 1, BuildingBlock: MIFKUJ_clean_sbu_0, # of connection points: 6
#     Node 39, Type 1, BuildingBlock: MIFKUJ_clean_sbu_0, # of connection points: 6
#     Edge 40, Type (0, 1), BuildingBlock: TEMPAE_clean_linker_10, # of connection points: 2
#     Edge 41, Type (0, 1), BuildingBlock: TEMPAE_clean_linker_10, # of connection points: 2
#     Edge 42, Type (0, 1), BuildingBlock: TEMPAE_clean_linker_10, # of connection points: 2
#     Edge 43, Type (0, 1), BuildingBlock: TEMPAE_clean_linker_10, # of connection points: 2
#     Edge 44, Type (0, 1), BuildingBlock: TEMPAE_clean_linker_10, # of connection points: 2
#     Edge 45, Type (0, 1), BuildingBlock: TEMPAE_clean_linker_10, # of connection points: 2
#     Edge 46, Type (0, 1), BuildingBlock: TEMPAE_clean_linker_10, # of connection points: 2
#     Edge 47, Type (0, 1), BuildingBlock: TEMPAE_clean_linker_10, # of connection points: 2
#     Edge 48, Type (0, 1), BuildingBlock: TEMPAE_clean_linker_10, # of connection points: 2
#     Edge 49, Type (0, 1), BuildingBlock: TEMPAE_clean_linker_10, # of connection points: 2
#     Edge 50, Type (0, 1), BuildingBlock: TEMPAE_clean_linker_10, # of connection points: 2
#     Edge 51, Type (0, 1), BuildingBlock: TEMPAE_clean_linker_10, # of connection points: 2
#     Edge 52, Type (0, 1), BuildingBlock: TEMPAE_clean_linker_10, # of connection points: 2
#     Edge 53, Type (0, 1), BuildingBlock: TEMPAE_clean_linker_10, # of connection points: 2
#     Edge 54, Type (0, 1), BuildingBlock: TEMPAE_clean_linker_10, # of connection points: 2
#     Edge 55, Type (0, 1), BuildingBlock: TEMPAE_clean_linker_10, # of connection points: 2
#     Edge 56, Type (0, 1), BuildingBlock: TEMPAE_clean_linker_10, # of connection points: 2
#     Edge 57, Type (0, 1), BuildingBlock: TEMPAE_clean_linker_10, # of connection points: 2
#     Edge 58, Type (0, 1), BuildingBlock: TEMPAE_clean_linker_10, # of connection points: 2
#     Edge 59, Type (0, 1), BuildingBlock: TEMPAE_clean_linker_10, # of connection points: 2
#     Edge 60, Type (0, 1), BuildingBlock: TEMPAE_clean_linker_10, # of connection points: 2
#     Edge 61, Type (0, 1), BuildingBlock: TEMPAE_clean_linker_10, # of connection points: 2
#     Edge 62, Type (0, 1), BuildingBlock: TEMPAE_clean_linker_10, # of connection points: 2
#     Edge 63, Type (0, 1), BuildingBlock: TEMPAE_clean_linker_10, # of connection points: 2
#     Edge 64, Type (0, 1), BuildingBlock: TEMPAE_clean_linker_10, # of connection points: 2
#     Edge 65, Type (0, 1), BuildingBlock: TEMPAE_clean_linker_10, # of connection points: 2
#     Edge 66, Type (0, 1), BuildingBlock: TEMPAE_clean_linker_10, # of connection points: 2
#     Edge 67, Type (0, 1), BuildingBlock: TEMPAE_clean_linker_10, # of connection points: 2
#     Edge 68, Type (0, 1), BuildingBlock: TEMPAE_clean_linker_10, # of connection points: 2
#     Edge 69, Type (0, 1), BuildingBlock: TEMPAE_clean_linker_10, # of connection points: 2
#     Edge 70, Type (0, 1), BuildingBlock: TEMPAE_clean_linker_10, # of connection points: 2
#     Edge 71, Type (0, 1), BuildingBlock: TEMPAE_clean_linker_10, # of connection points: 2
#     Edge 72, Type (0, 1), BuildingBlock: TEMPAE_clean_linker_10, # of connection points: 2
#     Edge 73, Type (0, 1), BuildingBlock: TEMPAE_clean_linker_10, # of connection points: 2
#     Edge 74, Type (0, 1), BuildingBlock: TEMPAE_clean_linker_10, # of connection points: 2
#     Edge 75, Type (0, 1), BuildingBlock: TEMPAE_clean_linker_10, # of connection points: 2
#     Edge 76, Type (0, 1), BuildingBlock: TEMPAE_clean_linker_10, # of connection points: 2
#     Edge 77, Type (0, 1), BuildingBlock: TEMPAE_clean_linker_10, # of connection points: 2
#     Edge 78, Type (0, 1), BuildingBlock: TEMPAE_clean_linker_10, # of connection points: 2
#     Edge 79, Type (0, 1), BuildingBlock: TEMPAE_clean_linker_10, # of connection points: 2
#     Edge 80, Type (0, 1), BuildingBlock: TEMPAE_clean_linker_10, # of connection points: 2
#     Edge 81, Type (0, 1), BuildingBlock: TEMPAE_clean_linker_10, # of connection points: 2
#     Edge 82, Type (0, 1), BuildingBlock: TEMPAE_clean_linker_10, # of connection points: 2
#     Edge 83, Type (0, 1), BuildingBlock: TEMPAE_clean_linker_10, # of connection points: 2
#     Edge 84, Type (0, 1), BuildingBlock: TEMPAE_clean_linker_10, # of connection points: 2
#     Edge 85, Type (0, 1), BuildingBlock: TEMPAE_clean_linker_10, # of connection points: 2
#     Edge 86, Type (0, 1), BuildingBlock: TEMPAE_clean_linker_10, # of connection points: 2
#     Edge 87, Type (0, 1), BuildingBlock: TEMPAE_clean_linker_10, # of connection points: 2
#     Edge 88, Type (0, 1), BuildingBlock: TEMPAE_clean_linker_10, # of connection points: 2
#     Edge 89, Type (0, 1), BuildingBlock: TEMPAE_clean_linker_10, # of connection points: 2
#     Edge 90, Type (0, 1), BuildingBlock: TEMPAE_clean_linker_10, # of connection points: 2
#     Edge 91, Type (0, 1), BuildingBlock: TEMPAE_clean_linker_10, # of connection points: 2
#     Edge 92, Type (0, 1), BuildingBlock: TEMPAE_clean_linker_10, # of connection points: 2
#     Edge 93, Type (0, 1), BuildingBlock: TEMPAE_clean_linker_10, # of connection points: 2
#     Edge 94, Type (0, 1), BuildingBlock: TEMPAE_clean_linker_10, # of connection points: 2
#     Edge 95, Type (0, 1), BuildingBlock: TEMPAE_clean_linker_10, # of connection points: 2
#     Edge 96, Type (0, 1), BuildingBlock: TEMPAE_clean_linker_10, # of connection points: 2
#     Edge 97, Type (0, 1), BuildingBlock: TEMPAE_clean_linker_10, # of connection points: 2
#     Edge 98, Type (0, 1), BuildingBlock: TEMPAE_clean_linker_10, # of connection points: 2
#     Edge 99, Type (0, 1), BuildingBlock: TEMPAE_clean_linker_10, # of connection points: 2
#     Edge 100, Type (0, 1), BuildingBlock: TEMPAE_clean_linker_10, # of connection points: 2
#     Edge 101, Type (0, 1), BuildingBlock: TEMPAE_clean_linker_10, # of connection points: 2
#     Edge 102, Type (0, 1), BuildingBlock: TEMPAE_clean_linker_10, # of connection points: 2
#     Edge 103, Type (0, 1), BuildingBlock: TEMPAE_clean_linker_10, # of connection points: 2
#     Edge 104, Type (0, 1), BuildingBlock: TEMPAE_clean_linker_10, # of connection points: 2
#     Edge 105, Type (0, 1), BuildingBlock: TEMPAE_clean_linker_10, # of connection points: 2
#     Edge 106, Type (0, 1), BuildingBlock: TEMPAE_clean_linker_10, # of connection points: 2
#     Edge 107, Type (0, 1), BuildingBlock: TEMPAE_clean_linker_10, # of connection points: 2
#     Edge 108, Type (0, 1), BuildingBlock: TEMPAE_clean_linker_10, # of connection points: 2
#     Edge 109, Type (0, 1), BuildingBlock: TEMPAE_clean_linker_10, # of connection points: 2
#     Edge 110, Type (0, 1), BuildingBlock: TEMPAE_clean_linker_10, # of connection points: 2
#     Edge 111, Type (0, 1), BuildingBlock: TEMPAE_clean_linker_10, # of connection points: 2
#     Edge 112, Type (0, 1), BuildingBlock: TEMPAE_clean_linker_10, # of connection points: 2
#     Edge 113, Type (0, 1), BuildingBlock: TEMPAE_clean_linker_10, # of connection points: 2
#     Edge 114, Type (0, 1), BuildingBlock: TEMPAE_clean_linker_10, # of connection points: 2
#     Edge 115, Type (0, 1), BuildingBlock: TEMPAE_clean_linker_10, # of connection points: 2
#     Edge 116, Type (0, 1), BuildingBlock: TEMPAE_clean_linker_10, # of connection points: 2
#     Edge 117, Type (0, 1), BuildingBlock: TEMPAE_clean_linker_10, # of connection points: 2
#     Edge 118, Type (0, 1), BuildingBlock: TEMPAE_clean_linker_10, # of connection points: 2
#     Edge 119, Type (0, 1), BuildingBlock: TEMPAE_clean_linker_10, # of connection points: 2
#     Edge 120, Type (0, 1), BuildingBlock: TEMPAE_clean_linker_10, # of connection points: 2
#     Edge 121, Type (0, 1), BuildingBlock: TEMPAE_clean_linker_10, # of connection points: 2
#     Edge 122, Type (0, 1), BuildingBlock: TEMPAE_clean_linker_10, # of connection points: 2
#     Edge 123, Type (0, 1), BuildingBlock: TEMPAE_clean_linker_10, # of connection points: 2
#     Edge 124, Type (0, 1), BuildingBlock: TEMPAE_clean_linker_10, # of connection points: 2
#     Edge 125, Type (0, 1), BuildingBlock: TEMPAE_clean_linker_10, # of connection points: 2
#     Edge 126, Type (0, 1), BuildingBlock: TEMPAE_clean_linker_10, # of connection points: 2
#     Edge 127, Type (0, 1), BuildingBlock: TEMPAE_clean_linker_10, # of connection points: 2
#     Edge 128, Type (0, 1), BuildingBlock: TEMPAE_clean_linker_10, # of connection points: 2
#     Edge 129, Type (0, 1), BuildingBlock: TEMPAE_clean_linker_10, # of connection points: 2
#     Edge 130, Type (0, 1), BuildingBlock: TEMPAE_clean_linker_10, # of connection points: 2
#     Edge 131, Type (0, 1), BuildingBlock: TEMPAE_clean_linker_10, # of connection points: 2
#     Edge 132, Type (0, 1), BuildingBlock: TEMPAE_clean_linker_10, # of connection points: 2
#     Edge 133, Type (0, 1), BuildingBlock: TEMPAE_clean_linker_10, # of connection points: 2
#     Edge 134, Type (0, 1), BuildingBlock: TEMPAE_clean_linker_10, # of connection points: 2
#     Edge 135, Type (0, 1), BuildingBlock: TEMPAE_clean_linker_10, # of connection points: 2
# Relax obj value: 0.119
# Max RMSD: 0.277
# Mean RMSD: 0.153
data_MOF--net-gar--node1-GALJAG_clean_sbu_0--node2-MIFKUJ_clean_sbu_0--edge1-TEMPAE_clean_linker_10
_symmetry_space_group_name_H-M    P1
_symmetry_Int_Tables_number       1
_symmetry_cell_setting            triclinic
loop_
_symmetry_equiv_pos_as_xyz
'x, y, z'
_cell_length_a     57.064542
_cell_length_b     57.083815
_cell_length_c     54.764899
_cell_angle_alpha  94.485034
_cell_angle_beta   94.529826
_cell_angle_gamma 98.752875
loop_
_atom_site_label
_atom_site_type_symbol
_atom_site_fract_x
_atom_site_fract_y
_atom_site_fract_z
_atom_type_partial_charge
In0 In 0.03914 0.27652 0.40448 0.0
O1 O 0.05396 0.26275 0.36947 0.0
O2 O 0.07831 0.28311 0.39727 0.0
C3 C 0.00146 0.28103 0.37324 0.0
C4 C 0.03321 0.23893 0.43175 0.0
C5 C 0.04399 0.31626 0.43568 0.0
O6 O 0.00814 0.26128 0.37609 0.0
O7 O 0.014 0.29856 0.38585 0.0
O8 O 0.03141 0.29699 0.43964 0.0
O9 O 0.05452 0.31527 0.41629 0.0
C10 C 0.07523 0.27185 0.37622 0.0
O11 O 0.05349 0.24999 0.42867 0.0
O12 O 0.01606 0.24701 0.42135 0.0
In13 In 0.0098 0.75252 0.65034 0.0
O14 O 0.03184 0.78328 0.63406 0.0
O15 O 0.99427 0.77923 0.62737 0.0
C16 C 0.00506 0.71441 0.61717 0.0
C17 C 0.0488 0.75015 0.68113 0.0
C18 C 0.97094 0.75182 0.67573 0.0
O19 O 0.01394 0.73501 0.61237 0.0
O20 O 0.99868 0.71314 0.63866 0.0
O21 O 0.98988 0.76622 0.682 0.0
O22 O 0.97175 0.73791 0.65693 0.0
C23 C 0.01419 0.791 0.6242 0.0
O24 O 0.03732 0.76731 0.68273 0.0
O25 O 0.04021 0.73392 0.66454 0.0
In26 In 0.53845 0.77305 0.90398 0.0
O27 O 0.55346 0.77407 0.8666 0.0
O28 O 0.57523 0.76453 0.89618 0.0
C29 C 0.49681 0.77541 0.87821 0.0
C30 C 0.53228 0.73537 0.9311 0.0
C31 C 0.54714 0.81476 0.93231 0.0
O32 O 0.50864 0.75882 0.87388 0.0
O33 O 0.50592 0.79067 0.89557 0.0
O34 O 0.53348 0.79676 0.93768 0.0
O35 O 0.55701 0.81163 0.91271 0.0
C36 C 0.57284 0.76764 0.87363 0.0
O37 O 0.54906 0.75255 0.9362 0.0
O38 O 0.51876 0.73707 0.91222 0.0
In39 In 0.50467 0.25242 0.14055 0.0
O40 O 0.48561 0.22533 0.10938 0.0
O41 O 0.5124 0.21477 0.13331 0.0
C42 C 0.51045 0.29075 0.11422 0.0
C43 C 0.46609 0.24959 0.16651 0.0
C44 C 0.54779 0.25894 0.16619 0.0
O45 O 0.51162 0.27002 0.10522 0.0
O46 O 0.5064 0.2922 0.13654 0.0
O47 O 0.5298 0.26516 0.17536 0.0
O48 O 0.54396 0.24985 0.14424 0.0
C49 C 0.49765 0.20932 0.11464 0.0
O50 O 0.48528 0.24326 0.17452 0.0
O51 O 0.46637 0.25704 0.14546 0.0
In52 In 0.03335 0.77736 0.14866 0.0
O53 O 0.01703 0.75009 0.1166 0.0
O54 O 0.051 0.7468 0.13322 0.0
C55 C 0.03215 0.81498 0.12159 0.0
C56 C 0.99633 0.77205 0.1767 0.0
C57 C 0.07136 0.78262 0.18233 0.0
O58 O 0.04953 0.80375 0.12278 0.0
O59 O 0.01535 0.80712 0.13382 0.0
O60 O 0.05532 0.76454 0.17993 0.0
O61 O 0.06806 0.79829 0.16794 0.0
C62 C 0.03411 0.73846 0.11722 0.0
O63 O 0.01361 0.78888 0.18113 0.0
O64 O 0.99778 0.7579 0.15821 0.0
In65 In 0.51359 0.7536 0.40252 0.0
O66 O 0.53048 0.74968 0.36618 0.0
O67 O 0.55355 0.75891 0.39903 0.0
C68 C 0.47041 0.74975 0.37689 0.0
C69 C 0.51662 0.71558 0.42888 0.0
C70 C 0.51583 0.79768 0.42566 0.0
O71 O 0.48927 0.7486 0.36658 0.0
O72 O 0.47331 0.75249 0.40007 0.0
O73 O 0.50438 0.77939 0.43316 0.0
O74 O 0.52614 0.79378 0.4066 0.0
C75 C 0.55164 0.75477 0.37592 0.0
O76 O 0.50438 0.714 0.40847 0.0
O77 O 0.52738 0.7362 0.43593 0.0
In78 In 0.5297 0.27308 0.65158 0.0
O79 O 0.51222 0.24431 0.62142 0.0
O80 O 0.54625 0.24102 0.63799 0.0
C81 C 0.52737 0.31175 0.62626 0.0
C82 C 0.49226 0.26744 0.6789 0.0
C83 C 0.5695 0.27922 0.6829 0.0
O84 O 0.53915 0.29572 0.6198 0.0
O85 O 0.51691 0.30826 0.64534 0.0
O86 O 0.55144 0.26405 0.68515 0.0
O87 O 0.56754 0.29135 0.66474 0.0
C88 C 0.52897 0.23225 0.62258 0.0
O89 O 0.51163 0.28076 0.68632 0.0
O90 O 0.4918 0.25687 0.65771 0.0
In91 In 0.0136 0.25817 0.90112 0.0
O92 O 0.02634 0.24009 0.93453 0.0
O93 O 0.00532 0.21833 0.90518 0.0
C94 C 0.01463 0.29939 0.92952 0.0
C95 C 0.0505 0.25777 0.87301 0.0
C96 C 0.97215 0.2573 0.87343 0.0
O97 O 0.99883 0.28154 0.93042 0.0
O98 O 0.02979 0.29633 0.91459 0.0
O99 O 0.99117 0.27046 0.86969 0.0
O100 O 0.97411 0.24453 0.89107 0.0
C101 C 0.0166 0.21945 0.92607 0.0
O102 O 0.02912 0.25208 0.86415 0.0
O103 O 0.05315 0.2632 0.89591 0.0
In104 In 0.40318 0.02928 0.28314 0.0
O105 O 0.41509 0.00552 0.25275 0.0
O106 O 0.42727 0.04265 0.25409 0.0
C107 C 0.43174 0.04328 0.32506 0.0
C108 C 0.37406 0.06008 0.26974 0.0
C109 C 0.37771 0.98801 0.29353 0.0
O110 O 0.43967 0.03947 0.30453 0.0
O111 O 0.40934 0.04074 0.32434 0.0
O112 O 0.36816 0.00558 0.28783 0.0
O113 O 0.40013 0.99138 0.29436 0.0
C114 C 0.42727 0.02225 0.24344 0.0
O115 O 0.37165 0.03896 0.26014 0.0
O116 O 0.39139 0.06584 0.286 0.0
In117 In 0.26905 0.13849 0.50576 0.0
O118 O 0.2539 0.16293 0.53362 0.0
O119 O 0.28933 0.157 0.54154 0.0
C120 C 0.27173 0.16556 0.46687 0.0
C121 C 0.30491 0.11237 0.50801 0.0
C122 C 0.22787 0.10723 0.50344 0.0
O123 O 0.26026 0.17003 0.48493 0.0
O124 O 0.28181 0.14752 0.46837 0.0
O125 O 0.23566 0.11608 0.48467 0.0
O126 O 0.24101 0.11384 0.52313 0.0
C127 C 0.27241 0.16695 0.54844 0.0
O128 O 0.28334 0.10304 0.50323 0.0
O129 O 0.30834 0.1348 0.51147 0.0
In130 In 0.14703 0.01979 0.79175 0.0
O131 O 0.12025 0.00207 0.75978 0.0
O132 O 0.13424 0.03853 0.75898 0.0
C133 C 0.12106 0.01482 0.83106 0.0
C134 C 0.17195 0.98313 0.78757 0.0
C135 C 0.17703 0.06165 0.79656 0.0
O136 O 0.11344 0.02262 0.81157 0.0
O137 O 0.14172 0.00965 0.83075 0.0
O138 O 0.17985 0.04412 0.78216 0.0
O139 O 0.15921 0.05795 0.80885 0.0
C140 C 0.12079 0.02046 0.74837 0.0
O141 O 0.18038 0.00277 0.79956 0.0
O142 O 0.15103 0.98201 0.77772 0.0
In143 In 0.25368 0.88315 0.01039 0.0
O144 O 0.23749 0.85898 0.03837 0.0
O145 O 0.27498 0.86427 0.03701 0.0
C146 C 0.24426 0.85439 0.96812 0.0
C147 C 0.2238 0.91397 0.02218 0.0
C148 C 0.29556 0.91036 0.00506 0.0
O149 O 0.25491 0.84868 0.98726 0.0
O150 O 0.23781 0.87459 0.97036 0.0
O151 O 0.28113 0.90155 0.98682 0.0
O152 O 0.2886 0.90574 0.02568 0.0
C153 C 0.25735 0.85448 0.04696 0.0
O154 O 0.24599 0.91855 0.0273 0.0
O155 O 0.21643 0.89363 0.01111 0.0
In156 In 0.26806 0.38988 0.04224 0.0
O157 O 0.26648 0.35324 0.05709 0.0
O158 O 0.26193 0.38207 0.082 0.0
C159 C 0.26767 0.36606 0.9973 0.0
C160 C 0.23116 0.41466 0.04258 0.0
C161 C 0.31014 0.41992 0.04629 0.0
O162 O 0.28535 0.36874 0.01317 0.0
O163 O 0.25023 0.37515 0.00419 0.0
O164 O 0.29336 0.42099 0.0302 0.0
O165 O 0.30561 0.40392 0.06065 0.0
C166 C 0.26294 0.36016 0.0787 0.0
O167 O 0.25224 0.424 0.05012 0.0
O168 O 0.22869 0.39281 0.03539 0.0
In169 In 0.78212 0.13315 0.03862 0.0
O170 O 0.803 0.11092 0.01466 0.0
O171 O 0.80918 0.1105 0.05322 0.0
C172 C 0.73862 0.10693 0.03908 0.0
C173 C 0.79523 0.164 0.07903 0.0
C174 C 0.77688 0.16226 0.00277 0.0
O175 O 0.75294 0.10222 0.02367 0.0
O176 O 0.74645 0.12451 0.05444 0.0
O177 O 0.75945 0.15194 0.01272 0.0
O178 O 0.79692 0.15797 0.011 0.0
C179 C 0.81421 0.10324 0.03224 0.0
O180 O 0.80026 0.16901 0.05785 0.0
O181 O 0.78443 0.14313 0.07994 0.0
In182 In 0.14906 0.50097 0.26577 0.0
O183 O 0.18434 0.48674 0.26983 0.0
O184 O 0.15253 0.46192 0.26885 0.0
C185 C 0.17602 0.5442 0.26583 0.0
C186 C 0.11851 0.48988 0.22483 0.0
C187 C 0.12167 0.50704 0.30282 0.0
O188 O 0.17348 0.53357 0.28501 0.0
O189 O 0.16536 0.5328 0.24644 0.0
O190 O 0.12113 0.51846 0.28406 0.0
O191 O 0.13664 0.49285 0.30335 0.0
C192 C 0.17498 0.46538 0.27064 0.0
O193 O 0.11193 0.49306 0.24604 0.0
O194 O 0.14077 0.49155 0.2241 0.0
In195 In 0.76933 0.89302 0.54226 0.0
O196 O 0.76506 0.85631 0.55732 0.0
O197 O 0.76297 0.88607 0.58212 0.0
C198 C 0.76968 0.86859 0.49781 0.0
C199 C 0.73235 0.91771 0.54241 0.0
C200 C 0.81203 0.92215 0.54591 0.0
O201 O 0.78597 0.86931 0.51495 0.0
O202 O 0.75323 0.87998 0.50317 0.0
O203 O 0.79512 0.92385 0.5302 0.0
O204 O 0.80726 0.90608 0.56012 0.0
C205 C 0.76223 0.86386 0.57894 0.0
O206 O 0.75299 0.92652 0.55196 0.0
O207 O 0.7304 0.89651 0.53305 0.0
In208 In 0.89534 0.01645 0.25254 0.0
O209 O 0.93206 0.01709 0.23787 0.0
O210 O 0.90434 0.02574 0.21406 0.0
C211 C 0.92093 0.01425 0.29564 0.0
C212 C 0.87049 0.05325 0.25443 0.0
C213 C 0.86362 0.97565 0.24814 0.0
O214 O 0.91812 0.03374 0.28723 0.0
O215 O 0.91116 0.9959 0.28209 0.0
O216 O 0.86324 0.99256 0.26428 0.0
O217 O 0.87984 0.97941 0.23387 0.0
C218 C 0.92587 0.02324 0.21706 0.0
O219 O 0.86628 0.03645 0.23755 0.0
O220 O 0.88712 0.05143 0.2704 0.0
In221 In 0.28329 0.63714 0.52969 0.0
O222 O 0.29952 0.60749 0.51024 0.0
O223 O 0.31618 0.62261 0.54499 0.0
C224 C 0.24099 0.60824 0.52612 0.0
C225 C 0.29149 0.66724 0.57069 0.0
C226 C 0.2806 0.66943 0.4967 0.0
O227 O 0.25083 0.61524 0.5076 0.0
O228 O 0.25268 0.61548 0.54652 0.0
O229 O 0.26572 0.66567 0.5123 0.0
O230 O 0.29683 0.65668 0.49749 0.0
C231 C 0.31605 0.60758 0.52687 0.0
O232 O 0.3043 0.66954 0.55297 0.0
O233 O 0.27524 0.64931 0.56799 0.0
In234 In 0.39498 0.51461 0.75307 0.0
O235 O 0.36071 0.53012 0.7574 0.0
O236 O 0.39238 0.55446 0.75582 0.0
C237 C 0.36986 0.47024 0.74287 0.0
C238 C 0.42223 0.51871 0.7147 0.0
C239 C 0.41592 0.51639 0.79957 0.0
O240 O 0.36056 0.48881 0.74132 0.0
O241 O 0.39207 0.47403 0.7486 0.0
O242 O 0.42517 0.52826 0.78334 0.0
O243 O 0.39608 0.5039 0.79246 0.0
C244 C 0.3703 0.55156 0.75796 0.0
O245 O 0.42974 0.5133 0.73544 0.0
O246 O 0.40072 0.52173 0.71305 0.0
In247 In 0.64822 0.0051 0.76271 0.0
O248 O 0.68292 0.98963 0.76207 0.0
O249 O 0.65415 0.96988 0.77737 0.0
C250 C 0.67388 0.04906 0.76401 0.0
C251 C 0.62018 0.98972 0.72066 0.0
C252 C 0.6188 0.01602 0.79629 0.0
O253 O 0.66794 0.03598 0.74418 0.0
O254 O 0.66724 0.03984 0.78295 0.0
O255 O 0.61437 0.0181 0.77367 0.0
O256 O 0.638 0.00839 0.80188 0.0
C257 C 0.67544 0.97137 0.77236 0.0
O258 O 0.61439 0.98431 0.74148 0.0
O259 O 0.64044 0.00222 0.72097 0.0
In260 In 0.76611 0.63514 0.00303 0.0
O261 O 0.78277 0.60267 0.01357 0.0
O262 O 0.80393 0.62905 0.99624 0.0
C263 C 0.72294 0.60748 0.99629 0.0
C264 C 0.76779 0.66089 0.04747 0.0
C265 C 0.76774 0.65943 0.96234 0.0
O266 O 0.74199 0.59913 0.00063 0.0
O267 O 0.72577 0.62973 0.99487 0.0
O268 O 0.77456 0.66924 0.98366 0.0
O269 O 0.76009 0.63744 0.96144 0.0
C270 C 0.8026 0.60955 0.00574 0.0
O271 O 0.78545 0.66128 0.03508 0.0
O272 O 0.74931 0.64777 0.03746 0.0
In273 In 0.90001 0.53171 0.78275 0.0
O274 O 0.87194 0.55353 0.79514 0.0
O275 O 0.88444 0.55865 0.76026 0.0
C276 C 0.87004 0.49094 0.78615 0.0
C277 C 0.9277 0.52907 0.74555 0.0
C278 C 0.93323 0.53964 0.82142 0.0
O279 O 0.87349 0.49957 0.76602 0.0
O280 O 0.88177 0.50284 0.80469 0.0
O281 O 0.93142 0.52207 0.80556 0.0
O282 O 0.91824 0.55345 0.8178 0.0
C283 C 0.87051 0.56393 0.77576 0.0
O284 O 0.93028 0.54706 0.76108 0.0
O285 O 0.91111 0.51259 0.74878 0.0
In286 In 0.76212 0.38564 0.50773 0.0
O287 O 0.75093 0.35488 0.53076 0.0
O288 O 0.7794 0.38167 0.54584 0.0
C289 C 0.75159 0.3589 0.46416 0.0
C290 C 0.72962 0.41288 0.52085 0.0
C291 C 0.80423 0.41038 0.49888 0.0
O292 O 0.76352 0.35278 0.48221 0.0
O293 O 0.74445 0.37861 0.46805 0.0
O294 O 0.78537 0.4194 0.49841 0.0
O295 O 0.80173 0.38886 0.50339 0.0
C296 C 0.76635 0.36234 0.54852 0.0
O297 O 0.75166 0.42051 0.52271 0.0
O298 O 0.72384 0.39142 0.51218 0.0
In299 In 0.64363 0.52297 0.29031 0.0
O300 O 0.67808 0.50915 0.30193 0.0
O301 O 0.64788 0.48392 0.28776 0.0
C302 C 0.67217 0.56527 0.29091 0.0
C303 C 0.62041 0.52066 0.24485 0.0
C304 C 0.61622 0.51885 0.32841 0.0
O305 O 0.67772 0.54607 0.28182 0.0
O306 O 0.65216 0.56311 0.29954 0.0
O307 O 0.60984 0.50787 0.30752 0.0
O308 O 0.63636 0.53174 0.33012 0.0
C309 C 0.66955 0.48758 0.29585 0.0
O310 O 0.61764 0.5358 0.26195 0.0
O311 O 0.63471 0.50687 0.2507 0.0
Zn312 Zn 0.05637 0.02017 0.04221 0.0
Zn313 Zn 0.00744 0.022 0.01814 0.0
C314 C 0.04806 0.97911 0.06614 0.0
O315 O 0.05848 0.99534 0.08357 0.0
C316 C 0.0195 0.06304 0.99426 0.0
O317 O 0.01022 0.04717 0.97605 0.0
O318 O 0.09103 0.02147 0.05373 0.0
O319 O 0.05543 0.02704 0.00666 0.0
O320 O 0.02262 0.00261 0.99306 0.0
C321 C 0.10748 0.0271 0.03992 0.0
O322 O 0.10264 0.03775 0.02015 0.0
O323 O 0.044 0.98536 0.04461 0.0
C324 C 0.96576 0.03872 0.02212 0.0
O325 O 0.98114 0.05157 0.03891 0.0
O326 O 0.97242 0.02197 0.00898 0.0
O327 O 0.00824 0.01292 0.05284 0.0
O328 O 0.03972 0.03902 0.06659 0.0
O329 O 0.02139 0.0567 0.01601 0.0
C330 C 0.04305 0.0134 0.98936 0.0
C331 C 0.0199 0.02695 0.07024 0.0
Zn332 Zn 0.26351 0.7633 0.30408 0.0
Zn333 Zn 0.27947 0.77411 0.25539 0.0
C334 C 0.23451 0.71931 0.28956 0.0
O335 O 0.21949 0.73126 0.3001 0.0
C336 C 0.28887 0.82169 0.28945 0.0
O337 O 0.27769 0.8129 0.30755 0.0
O338 O 0.25669 0.75929 0.33877 0.0
O339 O 0.29922 0.77354 0.30529 0.0
O340 O 0.30203 0.75369 0.26991 0.0
C341 C 0.2693 0.77033 0.3575 0.0
O342 O 0.28674 0.78742 0.35448 0.0
O343 O 0.25561 0.72972 0.28808 0.0
C344 C 0.2725 0.79294 0.21188 0.0
O345 O 0.26094 0.80449 0.22741 0.0
O346 O 0.28353 0.77674 0.21947 0.0
O347 O 0.24416 0.76348 0.25407 0.0
O348 O 0.23954 0.78222 0.28924 0.0
O349 O 0.29026 0.80854 0.26991 0.0
C350 C 0.31104 0.76199 0.29135 0.0
C351 C 0.23148 0.77453 0.26739 0.0
Zn352 Zn 0.4916 0.01663 0.53005 0.0
Zn353 Zn 0.54336 0.0107 0.52485 0.0
C354 C 0.50116 0.06014 0.55923 0.0
O355 O 0.48769 0.04675 0.5728 0.0
C356 C 0.53062 0.96744 0.49429 0.0
O357 O 0.54075 0.98108 0.47861 0.0
O358 O 0.45628 0.01861 0.52923 0.0
O359 O 0.49807 0.00694 0.49554 0.0
O360 O 0.53276 0.03029 0.49794 0.0
C361 C 0.44855 0.02963 0.5117 0.0
O362 O 0.46309 0.03678 0.49537 0.0
O363 O 0.50655 0.05088 0.53898 0.0
C364 C 0.58448 0.99437 0.54144 0.0
O365 O 0.56822 0.98474 0.55492 0.0
O366 O 0.57862 0.00859 0.52606 0.0
O367 O 0.53686 0.02086 0.5593 0.0
O368 O 0.50246 0.99707 0.55694 0.0
O369 O 0.52866 0.97624 0.51594 0.0
C370 C 0.51323 0.02103 0.48573 0.0
C371 C 0.52176 0.00687 0.56925 0.0
Zn372 Zn 0.29473 0.26312 0.76931 0.0
Zn373 Zn 0.24517 0.27326 0.77548 0.0
C374 C 0.28378 0.23421 0.72435 0.0
O375 O 0.29141 0.21916 0.73888 0.0
C376 C 0.25782 0.3023 0.82032 0.0
O377 O 0.25049 0.31766 0.806 0.0
O378 O 0.32943 0.26061 0.76864 0.0
O379 O 0.29384 0.29771 0.77946 0.0
O380 O 0.26139 0.29829 0.75525 0.0
C381 C 0.33972 0.27519 0.75496 0.0
O382 O 0.32746 0.29018 0.7448 0.0
O383 O 0.28258 0.2552 0.73331 0.0
C384 C 0.19953 0.25872 0.78813 0.0
O385 O 0.21156 0.2426 0.79624 0.0
O386 O 0.21021 0.2753 0.77687 0.0
O387 O 0.24619 0.23886 0.76486 0.0
O388 O 0.27851 0.23765 0.78885 0.0
O389 O 0.25803 0.28112 0.81128 0.0
C390 C 0.28164 0.30859 0.76509 0.0
C391 C 0.2584 0.22741 0.77862 0.0
Zn392 Zn 0.02781 0.98876 0.52838 0.0
Zn393 Zn 0.01314 0.03545 0.51541 0.0
C394 C 0.05795 0.0047 0.57089 0.0
O395 O 0.07155 0.99411 0.5568 0.0
C396 C 0.98235 0.0202 0.47263 0.0
O397 O 0.96827 0.02964 0.48708 0.0
O398 O 0.03164 0.955 0.53412 0.0
O399 O 0.99266 0.98646 0.51862 0.0
O400 O 0.98967 0.02077 0.53804 0.0
C401 C 0.02134 0.94817 0.5527 0.0
O402 O 0.00944 0.9627 0.56455 0.0
O403 O 0.03695 0.00627 0.56222 0.0
C404 C 0.01921 0.07728 0.49313 0.0
O405 O 0.03047 0.06313 0.47994 0.0
O406 O 0.00925 0.06953 0.51155 0.0
O407 O 0.04844 0.0377 0.52351 0.0
O408 O 0.05201 0.00258 0.50612 0.0
O409 O 0.00352 0.01914 0.48113 0.0
C410 C 0.98045 0.9995 0.53047 0.0
C411 C 0.06068 0.02432 0.51218 0.0
Zn412 Zn 0.26652 0.79573 0.7599 0.0
Zn413 Zn 0.28682 0.74217 0.77648 0.0
C414 C 0.22198 0.78226 0.73505 0.0
O415 O 0.23349 0.79626 0.72049 0.0
C416 C 0.33477 0.76889 0.78961 0.0
O417 O 0.33055 0.7807 0.77053 0.0
O418 O 0.26224 0.83031 0.76202 0.0
O419 O 0.28253 0.78983 0.7923 0.0
O420 O 0.263 0.75469 0.79725 0.0
C421 C 0.24922 0.83596 0.77866 0.0
O422 O 0.24097 0.81969 0.79283 0.0
O423 O 0.23308 0.7778 0.75475 0.0
C424 C 0.29195 0.69585 0.7906 0.0
O425 O 0.29873 0.70811 0.81197 0.0
O426 O 0.28363 0.70635 0.77301 0.0
O427 O 0.2899 0.7524 0.74257 0.0
O428 O 0.28272 0.78683 0.73017 0.0
O429 O 0.31872 0.75278 0.79526 0.0
C430 C 0.26912 0.77656 0.80472 0.0
C431 C 0.2896 0.76686 0.72611 0.0
Zn432 Zn 0.52015 0.02241 0.98602 0.0
Zn433 Zn 0.50898 0.00653 0.03475 0.0
C434 C 0.56371 0.05318 0.00219 0.0
O435 O 0.55212 0.06861 0.99194 0.0
C436 C 0.46781 0.97434 0.01521 0.0
O437 O 0.48008 0.95979 0.02614 0.0
O438 O 0.52329 0.02585 0.95035 0.0
O439 O 0.512 0.98692 0.9863 0.0
O440 O 0.53234 0.98664 0.02187 0.0
C441 C 0.52372 0.0435 0.93758 0.0
O442 O 0.52059 0.06425 0.94778 0.0
O443 O 0.5533 0.03193 0.00259 0.0
C444 C 0.4841 0.00637 0.0761 0.0
O445 O 0.47049 0.01542 0.06009 0.0
O446 O 0.50328 4e-05 0.06956 0.0
O447 O 0.5168 0.04187 0.03679 0.0
O448 O 0.49959 0.04514 9e-05 0.0
O449 O 0.47702 0.99606 0.01532 0.0
C450 C 0.52525 0.9768 0.00042 0.0
C451 C 0.50539 0.05337 0.02236 0.0
Zn452 Zn 0.26552 0.22745 0.25547 0.0
Zn453 Zn 0.26642 0.27807 0.27528 0.0
C454 C 0.30892 0.22762 0.23625 0.0
O455 O 0.29361 0.21521 0.21913 0.0
C456 C 0.22311 0.27114 0.29405 0.0
O457 O 0.23786 0.28222 0.31241 0.0
O458 O 0.26152 0.19203 0.24511 0.0
O459 O 0.25591 0.2308 0.29023 0.0
O460 O 0.28133 0.26293 0.30375 0.0
C461 C 0.2628 0.17758 0.26151 0.0
O462 O 0.26098 0.18499 0.28446 0.0
O463 O 0.30128 0.23665 0.25548 0.0
C464 C 0.25662 0.32225 0.26527 0.0
O465 O 0.24865 0.30844 0.2451 0.0
O466 O 0.26722 0.31346 0.28286 0.0
O467 O 0.27932 0.27441 0.24219 0.0
O468 O 0.25081 0.245 0.22866 0.0
O469 O 0.231 0.26619 0.27351 0.0
C470 C 0.26905 0.24331 0.30784 0.0
C471 C 0.265 0.26344 0.22461 0.0
Zn472 Zn 0.52346 0.48694 0.02435 0.0
Zn473 Zn 0.51291 0.53618 0.02017 0.0
C474 C 0.5535 0.49996 0.0686 0.0
O475 O 0.5686 0.49213 0.05428 0.0
C476 C 0.48389 0.53167 0.97653 0.0
O477 O 0.47285 0.54384 0.99205 0.0
O478 O 0.52802 0.4527 0.02579 0.0
O479 O 0.48846 0.48734 0.01598 0.0
O480 O 0.48743 0.51995 0.03975 0.0
C481 C 0.51096 0.4354 0.02132 0.0
O482 O 0.49012 0.43942 0.0122 0.0
O483 O 0.53219 0.50004 0.05986 0.0
C484 C 0.52642 0.58012 0.00496 0.0
O485 O 0.53892 0.56595 0.99348 0.0
O486 O 0.5124 0.5715 0.02014 0.0
O487 O 0.54759 0.53464 0.02912 0.0
O488 O 0.54754 0.50338 0.00328 0.0
O489 O 0.50287 0.52444 0.98442 0.0
C490 C 0.47709 0.4998 0.0296 0.0
C491 C 0.55831 0.52301 0.01409 0.0
Zn492 Zn 0.76367 0.30516 0.25684 0.0
Zn493 Zn 0.79302 0.24939 0.27476 0.0
C494 C 0.71803 0.30099 0.23531 0.0
O495 O 0.73018 0.31781 0.22421 0.0
C496 C 0.84132 0.276 0.28324 0.0
O497 O 0.8369 0.28385 0.26171 0.0
O498 O 0.7647 0.34059 0.26358 0.0
O499 O 0.78034 0.29206 0.28522 0.0
O500 O 0.77001 0.25759 0.29881 0.0
C501 C 0.75184 0.34579 0.28052 0.0
O502 O 0.74062 0.32852 0.29172 0.0
O503 O 0.72898 0.29112 0.25174 0.0
C504 C 0.80955 0.20899 0.25602 0.0
O505 O 0.82481 0.22647 0.24947 0.0
O506 O 0.79203 0.21409 0.2672 0.0
O507 O 0.78928 0.26596 0.24374 0.0
O508 O 0.77721 0.29539 0.22527 0.0
O509 O 0.82536 0.26182 0.29188 0.0
C510 C 0.7685 0.27958 0.29962 0.0
C511 C 0.78677 0.27665 0.22444 0.0
Zn512 Zn 0.02028 0.52202 0.49176 0.0
Zn513 Zn 0.01795 0.51468 0.54286 0.0
C514 C 0.06638 0.54882 0.49729 0.0
O515 O 0.05448 0.56316 0.48554 0.0
C516 C 0.97126 0.48994 0.53807 0.0
O517 O 0.98147 0.47921 0.55538 0.0
O518 O 0.02044 0.52615 0.45589 0.0
O519 O 0.00983 0.48724 0.4957 0.0
O520 O 0.0341 0.48824 0.52914 0.0
C521 C 0.01528 0.50931 0.43886 0.0
O522 O 0.00532 0.48824 0.44413 0.0
O523 O 0.05529 0.52919 0.50277 0.0
C524 C 0.00354 0.52946 0.58723 0.0
O525 O 0.99451 0.54266 0.57149 0.0
O526 O 0.01639 0.51461 0.57947 0.0
O527 O 0.03146 0.54833 0.53837 0.0
O528 O 0.00453 0.54812 0.5077 0.0
O529 O 0.98353 0.50693 0.52882 0.0
C530 C 0.02305 0.47685 0.50965 0.0
C531 C 0.01761 0.55933 0.52606 0.0
Zn532 Zn 0.79717 0.76258 0.26652 0.0
Zn533 Zn 0.74724 0.77445 0.2775 0.0
C534 C 0.78826 0.73212 0.22339 0.0
O535 O 0.79939 0.72007 0.2388 0.0
C536 C 0.76309 0.80297 0.32208 0.0
O537 O 0.75657 0.81894 0.30807 0.0
O538 O 0.83207 0.76053 0.26517 0.0
O539 O 0.79672 0.79735 0.27544 0.0
O540 O 0.76162 0.80041 0.25751 0.0
C541 C 0.8411 0.77398 0.24972 0.0
O542 O 0.82759 0.78729 0.23849 0.0
O543 O 0.78382 0.75245 0.23114 0.0
C544 C 0.70211 0.75857 0.29172 0.0
O545 O 0.71434 0.742 0.29826 0.0
O546 O 0.71236 0.7757 0.28088 0.0
O547 O 0.74863 0.74066 0.2648 0.0
O548 O 0.78149 0.73819 0.28747 0.0
O549 O 0.76168 0.78157 0.31287 0.0
C550 C 0.7832 0.8094 0.26401 0.0
C551 C 0.76115 0.72852 0.27737 0.0
Zn552 Zn 0.76321 0.26624 0.80632 0.0
Zn553 Zn 0.77669 0.27871 0.757 0.0
C554 C 0.73671 0.22185 0.78749 0.0
O555 O 0.72024 0.23183 0.79782 0.0
C556 C 0.77319 0.32921 0.77607 0.0
O557 O 0.75044 0.32586 0.76843 0.0
O558 O 0.75874 0.25936 0.84129 0.0
O559 O 0.79768 0.28057 0.80665 0.0
O560 O 0.80163 0.26084 0.77158 0.0
C561 C 0.76946 0.24248 0.84753 0.0
O562 O 0.78252 0.23303 0.83195 0.0
O563 O 0.75763 0.23342 0.788 0.0
C564 C 0.76485 0.29302 0.71101 0.0
O565 O 0.74756 0.29826 0.72382 0.0
O566 O 0.78088 0.28282 0.72121 0.0
O567 O 0.74203 0.26547 0.75744 0.0
O568 O 0.73735 0.28372 0.79305 0.0
O569 O 0.78511 0.31225 0.77333 0.0
C570 C 0.81047 0.27002 0.79287 0.0
C571 C 0.72889 0.27518 0.77147 0.0
Zn572 Zn 0.76624 0.73229 0.75291 0.0
Zn573 Zn 0.76023 0.78056 0.77831 0.0
C574 C 0.80869 0.74599 0.73146 0.0
O575 O 0.7938 0.73887 0.71183 0.0
C576 C 0.70918 0.75031 0.77323 0.0
O577 O 0.7147 0.73014 0.76403 0.0
O578 O 0.7666 0.69917 0.73858 0.0
O579 O 0.75987 0.72932 0.78836 0.0
O580 O 0.77626 0.76506 0.80535 0.0
C581 C 0.7584 0.68093 0.74891 0.0
O582 O 0.74293 0.68276 0.76519 0.0
O583 O 0.80098 0.74574 0.7526 0.0
C584 C 0.74664 0.82294 0.77146 0.0
O585 O 0.73656 0.80802 0.75278 0.0
O586 O 0.76035 0.81549 0.78758 0.0
O587 O 0.77244 0.78055 0.74475 0.0
O588 O 0.74685 0.74949 0.72935 0.0
O589 O 0.72514 0.76852 0.77817 0.0
C590 C 0.76935 0.74304 0.80708 0.0
C591 C 0.75868 0.7697 0.72675 0.0
Zn592 Zn 0.55057 0.51304 0.53783 0.0
Zn593 Zn 0.5017 0.5194 0.51418 0.0
C594 C 0.54468 0.47331 0.56368 0.0
O595 O 0.557 0.49009 0.57945 0.0
C596 C 0.50901 0.57045 0.52196 0.0
O597 O 0.49032 0.56615 0.53445 0.0
O598 O 0.58589 0.51484 0.54761 0.0
O599 O 0.54976 0.51851 0.50149 0.0
O600 O 0.5138 0.50053 0.48712 0.0
C601 C 0.59351 0.4998 0.53309 0.0
O602 O 0.57845 0.48674 0.51621 0.0
O603 O 0.53792 0.47867 0.54242 0.0
C604 C 0.45042 0.51378 0.51611 0.0
O605 O 0.45395 0.49897 0.53271 0.0
O606 O 0.46776 0.52257 0.50473 0.0
O607 O 0.50239 0.50795 0.54785 0.0
O608 O 0.53453 0.53283 0.56221 0.0
O609 O 0.5186 0.55306 0.51388 0.0
C610 C 0.53532 0.50791 0.48377 0.0
C611 C 0.5143 0.52133 0.56556 0.0
Zn612 Zn 0.99394 0.52152 0.03132 0.0
Zn613 Zn 0.04495 0.51252 0.02304 0.0
C614 C 0.00419 0.56618 0.05751 0.0
O615 O 0.99113 0.55353 0.07202 0.0
C616 C 0.02957 0.46839 0.99595 0.0
O617 O 0.04028 0.48081 0.97966 0.0
O618 O 0.9587 0.52343 0.03243 0.0
O619 O 0.99836 0.50952 0.99685 0.0
O620 O 0.03381 0.53037 0.99502 0.0
C621 C 0.94833 0.53024 0.0134 0.0
O622 O 0.96024 0.53369 0.99409 0.0
O623 O 0.00913 0.55595 0.03754 0.0
C624 C 0.08625 0.49609 0.03948 0.0
O625 O 0.07101 0.48889 0.05515 0.0
O626 O 0.07966 0.50856 0.02268 0.0
O627 O 0.04101 0.52626 0.05698 0.0
O628 O 0.00647 0.50388 0.05903 0.0
O629 O 0.02832 0.47838 0.01728 0.0
C630 C 0.01318 0.52171 0.98482 0.0
C631 C 0.02677 0.51365 0.06922 0.0
C632 C 0.03759 0.19805 0.95704 0.0
C633 C 0.01852 0.19816 0.93929 0.0
C634 C 0.04026 0.17738 0.96864 0.0
C635 C 0.02311 0.15661 0.96275 0.0
C636 C 0.00339 0.15695 0.94543 0.0
C637 C 0.00152 0.17763 0.93366 0.0
C638 C 0.06179 0.17751 0.98657 0.0
C639 C 0.98441 0.13535 0.93903 0.0
C640 C 0.03568 0.09395 0.96813 0.0
C641 C 0.02478 0.08813 0.98933 0.0
C642 C 0.03689 0.11686 0.96031 0.0
C643 C 0.02616 0.13404 0.97359 0.0
C644 C 0.01611 0.12852 0.99571 0.0
C645 C 0.01582 0.10561 0.00351 0.0
C646 C 0.04836 0.12218 0.93702 0.0
C647 C 0.00402 0.14612 0.01008 0.0
H648 H 0.05082 0.21391 0.96131 0.0
H649 H 0.98666 0.17776 0.92008 0.0
H650 H 0.0562 0.17173 0.00439 0.0
H651 H 0.07284 0.16464 0.9793 0.0
H652 H 0.07296 0.19537 0.98994 0.0
H653 H 0.96934 0.13911 0.92661 0.0
H654 H 0.99222 0.12074 0.92984 0.0
H655 H 0.97734 0.12888 0.95601 0.0
H656 H 0.04261 0.08032 0.95722 0.0
H657 H 0.00706 0.10089 0.01972 0.0
H658 H 0.06037 0.13958 0.93973 0.0
H659 H 0.03439 0.12338 0.92209 0.0
H660 H 0.05875 0.10819 0.93091 0.0
H661 H 0.01544 0.16383 0.01301 0.0
H662 H 0.99962 0.14017 0.02825 0.0
H663 H 0.98726 0.14835 0.99943 0.0
C664 C 0.11125 0.80407 0.2002 0.0
C665 C 0.09321 0.78429 0.19919 0.0
C666 C 0.13323 0.80451 0.21384 0.0
C667 C 0.13721 0.78466 0.22665 0.0
C668 C 0.11859 0.76522 0.22675 0.0
C669 C 0.09678 0.76529 0.21304 0.0
C670 C 0.15262 0.82562 0.2134 0.0
C671 C 0.12214 0.7437 0.24014 0.0
C672 C 0.19981 0.77007 0.23259 0.0
C673 C 0.20743 0.77768 0.25732 0.0
C674 C 0.17713 0.77252 0.22243 0.0
C675 C 0.16157 0.78286 0.23733 0.0
C676 C 0.16916 0.79086 0.26224 0.0
C677 C 0.19206 0.78817 0.27197 0.0
C678 C 0.16976 0.76379 0.19575 0.0
C679 C 0.15303 0.80205 0.2786 0.0
H680 H 0.10852 0.81888 0.18965 0.0
H681 H 0.08285 0.75 0.21243 0.0
H682 H 0.16094 0.83171 0.23227 0.0
H683 H 0.16679 0.82033 0.20239 0.0
H684 H 0.14581 0.84078 0.20524 0.0
H685 H 0.10522 0.73129 0.24063 0.0
H686 H 0.13483 0.73394 0.23081 0.0
H687 H 0.12998 0.74921 0.25929 0.0
H688 H 0.2116 0.76209 0.22105 0.0
H689 H 0.19784 0.79416 0.29107 0.0
H690 H 0.16472 0.77857 0.18552 0.0
H691 H 0.1539 0.74969 0.19438 0.0
H692 H 0.18414 0.75649 0.18661 0.0
H693 H 0.14724 0.81761 0.27033 0.0
H694 H 0.16185 0.80798 0.29735 0.0
H695 H 0.13675 0.78911 0.2802 0.0
C696 C 0.49955 0.82674 0.45357 0.0
C697 C 0.51686 0.8218 0.43796 0.0
C698 C 0.49982 0.8499 0.46446 0.0
C699 C 0.51815 0.86834 0.46008 0.0
C700 C 0.53604 0.86324 0.44487 0.0
C701 C 0.53499 0.84009 0.43374 0.0
C702 C 0.48016 0.85478 0.4801 0.0
C703 C 0.55621 0.88229 0.44018 0.0
C704 C 0.51179 0.93358 0.46455 0.0
C705 C 0.52421 0.94177 0.4874 0.0
C706 C 0.50827 0.90935 0.45616 0.0
C707 C 0.51836 0.8932 0.47057 0.0
C708 C 0.5304 0.90138 0.49403 0.0
C709 C 0.53283 0.9256 0.50236 0.0
C710 C 0.49463 0.90122 0.43144 0.0
C711 C 0.54205 0.88491 0.5096 0.0
H712 H 0.48544 0.81261 0.45675 0.0
H713 H 0.54849 0.83626 0.42182 0.0
H714 H 0.48777 0.86289 0.49864 0.0
H715 H 0.47011 0.86776 0.47167 0.0
H716 H 0.46751 0.83838 0.48218 0.0
H717 H 0.56953 0.87505 0.42928 0.0
H718 H 0.54907 0.89616 0.43006 0.0
H719 H 0.56537 0.89113 0.45789 0.0
H720 H 0.50514 0.94623 0.45307 0.0
H721 H 0.54275 0.93214 0.51991 0.0
H722 H 0.48121 0.88525 0.43283 0.0
H723 H 0.50704 0.89616 0.41809 0.0
H724 H 0.48542 0.91533 0.42405 0.0
H725 H 0.52926 0.86866 0.51171 0.0
H726 H 0.54901 0.89359 0.52817 0.0
H727 H 0.55708 0.87913 0.50031 0.0
C728 C 0.44926 0.25329 0.6827 0.0
C729 C 0.47133 0.26556 0.69325 0.0
C730 C 0.42871 0.25342 0.69511 0.0
C731 C 0.43035 0.26599 0.71868 0.0
C732 C 0.45279 0.27736 0.72995 0.0
C733 C 0.47304 0.27709 0.71703 0.0
C734 C 0.40506 0.24115 0.68244 0.0
C735 C 0.45526 0.29073 0.75515 0.0
C736 C 0.37497 0.29095 0.73377 0.0
C737 C 0.36409 0.27393 0.74818 0.0
C738 C 0.39687 0.28888 0.72469 0.0
C739 C 0.40827 0.26935 0.73023 0.0
C740 C 0.39792 0.25262 0.74563 0.0
C741 C 0.37587 0.25509 0.75444 0.0
C742 C 0.40735 0.30716 0.70838 0.0
C743 C 0.40972 0.23169 0.75207 0.0
H744 H 0.44788 0.24426 0.66435 0.0
H745 H 0.49012 0.28644 0.72534 0.0
H746 H 0.39556 0.22923 0.69478 0.0
H747 H 0.39366 0.25465 0.67806 0.0
H748 H 0.40709 0.2305 0.6651 0.0
H749 H 0.47419 0.29615 0.7625 0.0
H750 H 0.44686 0.30697 0.75419 0.0
H751 H 0.44588 0.27967 0.76827 0.0
H752 H 0.36607 0.30568 0.729 0.0
H753 H 0.36756 0.24189 0.76559 0.0
H754 H 0.40816 0.29849 0.68967 0.0
H755 H 0.42583 0.31488 0.71567 0.0
H756 H 0.39678 0.32188 0.7068 0.0
H757 H 0.40972 0.21949 0.73528 0.0
H758 H 0.40051 0.22153 0.766 0.0
H759 H 0.42858 0.2378 0.75924 0.0
C760 C 0.99645 0.82008 0.59965 0.0
C761 C 0.01665 0.81257 0.61077 0.0
C762 C 0.99836 0.84137 0.58826 0.0
C763 C 0.021 0.85553 0.58813 0.0
C764 C 0.04154 0.84764 0.59864 0.0
C765 C 0.03913 0.8262 0.6098 0.0
C766 C 0.97605 0.84915 0.57715 0.0
C767 C 0.06595 0.86233 0.59903 0.0
C768 C 0.02655 0.90541 0.54572 0.0
C769 C 0.02292 0.9247 0.56163 0.0
C770 C 0.02629 0.88272 0.55411 0.0
C771 C 0.02279 0.87953 0.57904 0.0
C772 C 0.02004 0.89921 0.59533 0.0
C773 C 0.01992 0.92148 0.58636 0.0
C774 C 0.02906 0.86207 0.5362 0.0
C775 C 0.01675 0.89667 0.62216 0.0
H776 H 0.97906 0.80954 0.60024 0.0
H777 H 0.05481 0.82043 0.61833 0.0
H778 H 0.97271 0.86541 0.58791 0.0
H779 H 0.97828 0.85371 0.55806 0.0
H780 H 0.96014 0.8352 0.57688 0.0
H781 H 0.0803 0.85279 0.60604 0.0
H782 H 0.06941 0.86725 0.5803 0.0
H783 H 0.06681 0.87914 0.61095 0.0
H784 H 0.02882 0.90789 0.52657 0.0
H785 H 0.01744 0.93646 0.5988 0.0
H786 H 0.0125 0.84879 0.53418 0.0
H787 H 0.04372 0.853 0.5433 0.0
H788 H 0.03279 0.86772 0.51775 0.0
H789 H -0.00014 0.88465 0.62383 0.0
H790 H 0.01628 0.91403 0.63266 0.0
H791 H 0.03143 0.88853 0.63079 0.0
C792 C 0.46555 0.76066 0.84373 0.0
C793 C 0.47386 0.77666 0.8644 0.0
C794 C 0.44335 0.7611 0.83101 0.0
C795 C 0.42911 0.77781 0.83934 0.0
C796 C 0.43764 0.79434 0.85988 0.0
C797 C 0.46 0.79363 0.87213 0.0
C798 C 0.43488 0.74331 0.80903 0.0
C799 C 0.42286 0.81231 0.86935 0.0
C800 C 0.37752 0.78813 0.79553 0.0
C801 C 0.35858 0.77272 0.80334 0.0
C802 C 0.40058 0.79037 0.80738 0.0
C803 C 0.40468 0.77691 0.82748 0.0
C804 C 0.38551 0.76186 0.83587 0.0
C805 C 0.3627 0.75995 0.8237 0.0
C806 C 0.42065 0.8066 0.79799 0.0
C807 C 0.38918 0.74731 0.85734 0.0
H808 H 0.47632 0.74763 0.83761 0.0
H809 H 0.4664 0.80606 0.8881 0.0
H810 H 0.41887 0.7311 0.81306 0.0
H811 H 0.42965 0.75262 0.79291 0.0
H812 H 0.44871 0.73251 0.80401 0.0
H813 H 0.43265 0.82482 0.88463 0.0
H814 H 0.41723 0.82273 0.85429 0.0
H815 H 0.40644 0.80292 0.87604 0.0
H816 H 0.37446 0.79806 0.77982 0.0
H817 H 0.34815 0.74807 0.82992 0.0
H818 H 0.43383 0.79596 0.79099 0.0
H819 H 0.43007 0.81942 0.81318 0.0
H820 H 0.41428 0.81674 0.78297 0.0
H821 H 0.40132 0.73447 0.85285 0.0
H822 H 0.37221 0.73724 0.8622 0.0
H823 H 0.39773 0.75907 0.87373 0.0
C824 C 0.4758 0.17765 0.0832 0.0
C825 C 0.49612 0.1867 0.09919 0.0
C826 C 0.47455 0.15611 0.06847 0.0
C827 C 0.49434 0.14383 0.06934 0.0
C828 C 0.51509 0.15329 0.08504 0.0
C829 C 0.51558 0.17443 0.10001 0.0
C830 C 0.45191 0.1462 0.05247 0.0
C831 C 0.53675 0.14099 0.08621 0.0
C832 C 0.49052 0.0775 0.05546 0.0
C833 C 0.49894 0.07601 0.03215 0.0
C834 C 0.48707 0.09933 0.06691 0.0
C835 C 0.49315 0.12033 0.05515 0.0
C836 C 0.50081 0.11882 0.03114 0.0
C837 C 0.50327 0.0965 0.0197 0.0
C838 C 0.47823 0.10002 0.0922 0.0
C839 C 0.50804 0.14087 0.01828 0.0
H840 H 0.46074 0.18717 0.08258 0.0
H841 H 0.53143 0.18157 0.11213 0.0
H842 H 0.4558 0.14292 0.03309 0.0
H843 H 0.44413 0.12881 0.05851 0.0
H844 H 0.43844 0.15832 0.05322 0.0
H845 H 0.55208 0.15168 0.09788 0.0
H846 H 0.53241 0.12356 0.09381 0.0
H847 H 0.54224 0.13745 0.06745 0.0
H848 H 0.48715 0.06161 0.06504 0.0
H849 H 0.50999 0.09527 0.00174 0.0
H850 H 0.4641 0.11134 0.09327 0.0
H851 H 0.49308 0.10793 0.10612 0.0
H852 H 0.47105 0.08197 0.09714 0.0
H853 H 0.4943 0.15266 0.01903 0.0
H854 H 0.51097 0.13654 0.99874 0.0
H855 H 0.5248 0.15104 0.02786 0.0
C856 C 0.11753 0.28294 0.36776 0.0
C857 C 0.09495 0.2697 0.3607 0.0
C858 C 0.13655 0.28116 0.3534 0.0
C859 C 0.13297 0.26552 0.33156 0.0
C860 C 0.11017 0.25218 0.32423 0.0
C861 C 0.09135 0.25452 0.33886 0.0
C862 C 0.16056 0.29588 0.36176 0.0
C863 C 0.10577 0.23522 0.30119 0.0
C864 C 0.18178 0.27937 0.28946 0.0
C865 C 0.19796 0.26509 0.29796 0.0
C866 C 0.15954 0.27848 0.29893 0.0
C867 C 0.15352 0.2628 0.31711 0.0
C868 C 0.16912 0.24692 0.32408 0.0
C869 C 0.19137 0.24852 0.31465 0.0
C870 C 0.14354 0.29587 0.2912 0.0
C871 C 0.16326 0.22968 0.34309 0.0
H872 H 0.12036 0.2948 0.38455 0.0
H873 H 0.07389 0.24425 0.33334 0.0
H874 H 0.17384 0.284 0.36555 0.0
H875 H 0.16683 0.30686 0.347 0.0
H876 H 0.16011 0.30786 0.37864 0.0
H877 H 0.08682 0.22674 0.2976 0.0
H878 H 0.11098 0.24474 0.28507 0.0
H879 H 0.11697 0.22104 0.30284 0.0
H880 H 0.18726 0.2925 0.27689 0.0
H881 H 0.20418 0.23774 0.32136 0.0
H882 H 0.14435 0.31023 0.30627 0.0
H883 H 0.12476 0.28698 0.28773 0.0
H884 H 0.14897 0.30416 0.27439 0.0
H885 H 0.16488 0.23962 0.36155 0.0
H886 H 0.17541 0.21622 0.34362 0.0
H887 H 0.14465 0.22033 0.33935 0.0
C888 C 0.93406 0.03302 0.17459 0.0
C889 C 0.94228 0.02668 0.19757 0.0
C890 C 0.94895 0.03502 0.15541 0.0
C891 C 0.97265 0.03056 0.15931 0.0
C892 C 0.98132 0.02501 0.18276 0.0
C893 C 0.966 0.02312 0.20163 0.0
C894 C 0.93902 0.041 0.13068 0.0
C895 C 0.00646 0.02014 0.18762 0.0
C896 C 0.99688 0.00716 0.10151 0.0
C897 C 0.01062 0.02767 0.09463 0.0
C898 C 0.98539 0.00768 0.12315 0.0
C899 C 0.98738 0.02936 0.13814 0.0
C900 C 0.00203 0.04995 0.13183 0.0
C901 C 0.0137 0.04881 0.11015 0.0
C902 C 0.97032 0.98519 0.12939 0.0
C903 C 0.00447 0.07339 0.14731 0.0
H904 H 0.91578 0.03595 0.17139 0.0
H905 H 0.97249 0.01836 0.21942 0.0
H906 H 0.95096 0.056 0.1242 0.0
H907 H 0.93802 0.02546 0.11692 0.0
H908 H 0.92093 0.04588 0.13122 0.0
H909 H 0.01118 0.01838 0.20739 0.0
H910 H 0.0085 0.0034 0.17685 0.0
H911 H 0.01933 0.03463 0.18155 0.0
H912 H 0.99476 0.9907 0.08967 0.0
H913 H 0.02426 0.06469 0.10477 0.0
H914 H 0.9513 0.98743 0.12805 0.0
H915 H 0.97525 0.98161 0.14859 0.0
H916 H 0.97224 0.96943 0.11692 0.0
H917 H 0.9872 0.0801 0.14604 0.0
H918 H 0.0183 0.08707 0.1413 0.0
H919 H 0.00903 0.07103 0.16694 0.0
C920 C 0.26358 0.70401 0.48186 0.0
C921 C 0.27891 0.68721 0.47882 0.0
C922 C 0.26115 0.72053 0.46455 0.0
C923 C 0.27406 0.71987 0.44357 0.0
C924 C 0.2899 0.70321 0.44067 0.0
C925 C 0.29228 0.68718 0.45847 0.0
C926 C 0.24442 0.73831 0.46842 0.0
C927 C 0.30377 0.7018 0.41835 0.0
C928 C 0.25112 0.73971 0.38333 0.0
C929 C 0.26748 0.76036 0.38151 0.0
C930 C 0.25226 0.72701 0.40412 0.0
C931 C 0.26995 0.73538 0.4237 0.0
C932 C 0.28519 0.75726 0.4229 0.0
C933 C 0.28385 0.76949 0.4017 0.0
C934 C 0.23568 0.70371 0.40425 0.0
C935 C 0.30391 0.76698 0.44373 0.0
H936 H 0.25338 0.7042 0.49774 0.0
H937 H 0.30414 0.6742 0.45612 0.0
H938 H 0.25364 0.75658 0.46663 0.0
H939 H 0.22918 0.73448 0.45406 0.0
H940 H 0.23737 0.73789 0.48675 0.0
H941 H 0.31582 0.68827 0.41924 0.0
H942 H 0.29126 0.69721 0.40149 0.0
H943 H 0.31458 0.71934 0.41653 0.0
H944 H 0.23821 0.73264 0.36793 0.0
H945 H 0.2964 0.78556 0.40053 0.0
H946 H 0.22709 0.70302 0.42171 0.0
H947 H 0.24604 0.68878 0.40297 0.0
H948 H 0.22155 0.70083 0.38867 0.0
H949 H 0.29629 0.76591 0.46171 0.0
H950 H 0.31172 0.78577 0.44201 0.0
H951 H 0.31845 0.7561 0.4438 0.0
C952 C 0.6115 0.98865 0.67523 0.0
C953 C 0.60339 0.98478 0.69827 0.0
C954 C 0.5954 0.98805 0.6544 0.0
C955 C 0.57061 0.98395 0.65684 0.0
C956 C 0.56234 0.97846 0.67973 0.0
C957 C 0.57888 0.97877 0.70019 0.0
C958 C 0.60496 0.99338 0.63016 0.0
C959 C 0.53608 0.97401 0.68305 0.0
C960 C 0.53784 0.01779 0.61244 0.0
C961 C 0.52883 -4e-05 0.59364 0.0
C962 C 0.54994 0.01239 0.634 0.0
C963 C 0.55377 0.98869 0.63637 0.0
C964 C 0.54357 0.97039 0.61792 0.0
C965 C 0.53091 0.97625 0.59679 0.0
C966 C 0.56002 0.03236 0.65347 0.0
C967 C 0.54768 0.94503 0.61947 0.0
H968 H 0.63045 0.99306 0.67364 0.0
H969 H 0.57253 0.97573 0.718 0.0
H970 H 0.59507 0.9809 0.61497 0.0
H971 H 0.60246 0.01165 0.62617 0.0
H972 H 0.62422 0.99217 0.63029 0.0
H973 H 0.53252 0.96674 0.70087 0.0
H974 H 0.52892 0.991 0.68248 0.0
H975 H 0.52623 0.96145 0.66789 0.0
H976 H 0.53626 0.03614 0.60978 0.0
H977 H 0.52431 0.96259 0.58191 0.0
H978 H 0.5797 0.0359 0.65363 0.0
H979 H 0.55576 0.0273 0.67196 0.0
H980 H 0.55304 0.0491 0.65019 0.0
H981 H 0.56612 0.94362 0.61514 0.0
H982 H 0.53515 0.93241 0.60625 0.0
H983 H 0.54581 0.93958 0.63831 0.0
C984 C 0.24744 0.35205 0.95549 0.0
C985 C 0.26762 0.35407 0.97232 0.0
C986 C 0.24741 0.34193 0.9313 0.0
C987 C 0.2681 0.33365 0.92371 0.0
C988 C 0.28835 0.33511 0.94079 0.0
C989 C 0.28787 0.34531 0.96493 0.0
C990 C 0.22541 0.34064 0.91369 0.0
C991 C 0.31073 0.3265 0.93338 0.0
C992 C 0.25879 0.29293 0.86421 0.0
C993 C 0.2637 0.30937 0.84686 0.0
C994 C 0.26099 0.30038 0.88949 0.0
C995 C 0.26875 0.32474 0.89751 0.0
C996 C 0.27517 0.34109 0.88009 0.0
C997 C 0.27229 0.33325 0.85496 0.0
C998 C 0.25371 0.28246 0.90744 0.0
C999 C 0.28403 0.3671 0.88788 0.0
H1000 H 0.23171 0.35873 0.9611 0.0
H1001 H 0.30351 0.34679 0.97788 0.0
H1002 H 0.2295 0.35197 0.89853 0.0
H1003 H 0.21961 0.32213 0.90529 0.0
H1004 H 0.21038 0.34665 0.92283 0.0
H1005 H 0.32439 0.32751 0.94921 0.0
H1006 H 0.30654 0.30783 0.92505 0.0
H1007 H 0.31843 0.33745 0.91921 0.0
H1008 H 0.25201 0.27447 0.85795 0.0
H1009 H 0.27634 0.34594 0.84155 0.0
H1010 H 0.23718 0.28631 0.91521 0.0
H1011 H 0.26765 0.28382 0.92302 0.0
H1012 H 0.25039 0.26391 0.89863 0.0
H1013 H 0.26938 0.37551 0.89511 0.0
H1014 H 0.29063 0.37692 0.8724 0.0
H1015 H 0.29862 0.36909 0.90289 0.0
C1016 C 0.93451 0.99094 0.32938 0.0
C1017 C 0.9333 0.01302 0.32017 0.0
C1018 C 0.94418 0.98958 0.35352 0.0
C1019 C 0.95276 0.01081 0.36878 0.0
C1020 C 0.9525 0.03313 0.35921 0.0
C1021 C 0.94276 0.03396 0.33501 0.0
C1022 C 0.94427 0.96546 0.36302 0.0
C1023 C 0.96158 0.05618 0.37487 0.0
C1024 C 0.95051 0.01305 0.43784 0.0
C1025 C 0.97457 0.01427 0.44617 0.0
C1026 C 0.94307 0.01084 0.41265 0.0
C1027 C 0.96013 0.00993 0.39532 0.0
C1028 C 0.98428 0.00994 0.40357 0.0
C1029 C 0.99123 0.01206 0.42895 0.0
C1030 C 0.91709 0.01063 0.40461 0.0
C1031 C 0.00296 0.00891 0.38565 0.0
H1032 H 0.92731 0.97468 0.31794 0.0
H1033 H 0.94197 0.05107 0.32796 0.0
H1034 H 0.96213 0.96421 0.37193 0.0
H1035 H 0.93147 0.96298 0.37718 0.0
H1036 H 0.93927 0.95073 0.34816 0.0
H1037 H 0.96175 0.07194 0.36416 0.0
H1038 H 0.95012 0.05813 0.39012 0.0
H1039 H 0.9799 0.05606 0.38327 0.0
H1040 H 0.93751 0.01453 0.45105 0.0
H1041 H 0.00987 0.01302 0.43527 0.0
H1042 H 0.91033 0.99525 0.39092 0.0
H1043 H 0.91502 0.02703 0.39559 0.0
H1044 H 0.90586 0.00967 0.42029 0.0
H1045 H 0.99706 0.9942 0.37097 0.0
H1046 H 0.02036 0.00639 0.39482 0.0
H1047 H 0.00557 0.02573 0.37662 0.0
C1048 C 0.27832 0.68197 0.61044 0.0
C1049 C 0.29429 0.68482 0.59236 0.0
C1050 C 0.28005 0.69872 0.63082 0.0
C1051 C 0.29829 0.7188 0.63324 0.0
C1052 C 0.31441 0.72191 0.61498 0.0
C1053 C 0.31221 0.70483 0.59467 0.0
C1054 C 0.26249 0.69474 0.64993 0.0
C1055 C 0.33409 0.74306 0.61705 0.0
C1056 C 0.28552 0.76621 0.68028 0.0
C1057 C 0.29643 0.75918 0.70172 0.0
C1058 C 0.2876 0.75447 0.65721 0.0
C1059 C 0.301 0.73553 0.65578 0.0
C1060 C 0.31395 0.7301 0.67713 0.0
C1061 C 0.31144 0.74196 0.69986 0.0
C1062 C 0.27368 0.76088 0.63479 0.0
C1063 C 0.32866 0.71022 0.67641 0.0
H1064 H 0.26435 0.66661 0.60865 0.0
H1065 H 0.32451 0.70715 0.58062 0.0
H1066 H 0.27206 0.69261 0.66786 0.0
H1067 H 0.25332 0.71043 0.6526 0.0
H1068 H 0.24882 0.6787 0.64478 0.0
H1069 H 0.34431 0.74357 0.6006 0.0
H1070 H 0.32661 0.75983 0.61954 0.0
H1071 H 0.34657 0.74248 0.63351 0.0
H1072 H 0.27394 0.77956 0.68168 0.0
H1073 H 0.32023 0.73678 0.71643 0.0
H1074 H 0.2576 0.74723 0.62996 0.0
H1075 H 0.28441 0.76114 0.61875 0.0
H1076 H 0.26788 0.77849 0.63802 0.0
H1077 H 0.31662 0.69283 0.67392 0.0
H1078 H 0.34049 0.71078 0.69363 0.0
H1079 H 0.33974 0.71107 0.66066 0.0
C1080 C 0.57929 0.02462 0.80789 0.0
C1081 C 0.6029 0.02219 0.81489 0.0
C1082 C 0.56381 0.02953 0.82563 0.0
C1083 C 0.57234 0.0324 0.85083 0.0
C1084 C 0.59639 0.03068 0.85788 0.0
C1085 C 0.61133 0.0254 0.83982 0.0
C1086 C 0.5382 0.03092 0.81749 0.0
C1087 C 0.60622 0.03383 0.88458 0.0
C1088 C 0.54152 0.06108 0.9014 0.0
C1089 C 0.53193 0.04104 0.91271 0.0
C1090 C 0.55355 0.05856 0.88016 0.0
C1091 C 0.55593 0.03549 0.87013 0.0
C1092 C 0.54474 0.01522 0.88043 0.0
C1093 C 0.53285 0.01825 0.90156 0.0
C1094 C 0.56513 0.08057 0.86952 0.0
C1095 C 0.54673 0.9903 0.87023 0.0
H1096 H 0.57275 0.0221 0.78858 0.0
H1097 H 0.62965 0.02375 0.84524 0.0
H1098 H 0.52633 0.01611 0.82437 0.0
H1099 H 0.53329 0.04778 0.82545 0.0
H1100 H 0.53478 0.02983 0.79714 0.0
H1101 H 0.62566 0.03338 0.88684 0.0
H1102 H 0.60287 0.05103 0.89339 0.0
H1103 H 0.59703 0.01948 0.89459 0.0
H1104 H 0.54082 0.07874 0.90987 0.0
H1105 H 0.5252 0.00265 0.91002 0.0
H1106 H 0.56141 0.07887 0.84921 0.0
H1107 H 0.58473 0.0827 0.87368 0.0
H1108 H 0.55892 0.0969 0.8772 0.0
H1109 H 0.54234 0.98809 0.85 0.0
H1110 H 0.53482 0.97652 0.8786 0.0
H1111 H 0.56534 0.98713 0.87389 0.0
C1112 C 0.2555 0.35231 0.12202 0.0
C1113 C 0.2609 0.34405 0.09866 0.0
C1114 C 0.25464 0.33755 0.14141 0.0
C1115 C 0.25948 0.31399 0.13739 0.0
C1116 C 0.26439 0.30539 0.11369 0.0
C1117 C 0.26496 0.32049 0.09459 0.0
C1118 C 0.24915 0.34737 0.16637 0.0
C1119 C 0.26984 0.28048 0.1087 0.0
C1120 C 0.28404 0.28844 0.19415 0.0
C1121 C 0.26389 0.27384 0.2007 0.0
C1122 C 0.28299 0.30091 0.17314 0.0
C1123 C 0.26113 0.29907 0.15845 0.0
C1124 C 0.24084 0.2838 0.16454 0.0
C1125 C 0.24252 0.27117 0.18554 0.0
C1126 C 0.30516 0.31664 0.16712 0.0
C1127 C 0.21717 0.28154 0.14947 0.0
H1128 H 0.25222 0.37046 0.12526 0.0
H1129 H 0.26911 0.31397 0.07657 0.0
H1130 H 0.23431 0.33538 0.17306 0.0
H1131 H 0.2649 0.3483 0.17986 0.0
H1132 H 0.24424 0.36545 0.16605 0.0
H1133 H 0.27184 0.27598 0.08895 0.0
H1134 H 0.2866 0.27868 0.11962 0.0
H1135 H 0.2555 0.2673 0.11455 0.0
H1136 H 0.30066 0.29042 0.20575 0.0
H1137 H 0.22685 0.26006 0.19067 0.0
H1138 H 0.3025 0.33553 0.16889 0.0
H1139 H 0.30872 0.31223 0.14781 0.0
H1140 H 0.3211 0.31483 0.17942 0.0
H1141 H 0.2106 0.29888 0.15088 0.0
H1142 H 0.20353 0.2678 0.15567 0.0
H1143 H 0.21919 0.27696 0.12977 0.0
C1144 C 0.18369 0.92663 0.01997 0.0
C1145 C 0.20799 0.93147 0.02802 0.0
C1146 C 0.16884 0.9437 0.02425 0.0
C1147 C 0.17855 0.96608 0.03697 0.0
C1148 C 0.20294 0.97081 0.04573 0.0
C1149 C 0.21739 0.95346 0.04108 0.0
C1150 C 0.14288 0.93799 0.01464 0.0
C1151 C 0.21385 0.99436 0.05956 0.0
C1152 C 0.14386 0.0157 0.02281 0.0
C1153 C 0.12899 0.01551 0.04204 0.0
C1154 C 0.16088 0.00043 0.02155 0.0
C1155 C 0.16327 0.9848 0.04009 0.0
C1156 C 0.14963 0.98583 0.06053 0.0
C1157 C 0.13261 0.00116 0.06125 0.0
C1158 C 0.17515 -9e-05 0.99948 0.0
C1159 C 0.1519 0.96967 0.08085 0.0
H1160 H 0.17635 0.90964 0.00992 0.0
H1161 H 0.23617 0.95726 0.04746 0.0
H1162 H 0.13149 0.94027 0.02989 0.0
H1163 H 0.13882 0.95054 0.001 0.0
H1164 H 0.13798 0.91953 0.00575 0.0
H1165 H 0.23275 0.99469 0.06644 0.0
H1166 H 0.21295 0.00889 0.04736 0.0
H1167 H 0.20365 0.99822 0.07543 0.0
H1168 H 0.14128 0.02676 0.00792 0.0
H1169 H 0.12131 0.00098 0.07626 0.0
H1170 H 0.16955 0.98271 0.98809 0.0
H1171 H 0.19437 0.0012 0.00541 0.0
H1172 H 0.17272 0.01458 0.98781 0.0
H1173 H 0.14429 0.9511 0.07378 0.0
H1174 H 0.14241 0.97482 0.09688 0.0
H1175 H 0.1709 0.9699 0.08715 0.0
C1176 C 0.69665 0.56918 0.0012 0.0
C1177 C 0.69909 0.59272 0.99491 0.0
C1178 C 0.67405 0.55583 0.00259 0.0
C1179 C 0.65342 0.56622 0.99735 0.0
C1180 C 0.65578 0.58959 0.98984 0.0
C1181 C 0.67859 0.6026 0.98883 0.0
C1182 C 0.67231 0.53105 0.01084 0.0
C1183 C 0.63422 0.60122 0.98383 0.0
C1184 C 0.59216 0.52764 0.98741 0.0
C1185 C 0.58319 0.53228 0.01008 0.0
C1186 C 0.61514 0.53835 0.98298 0.0
C1187 C 0.62954 0.55359 0.00187 0.0
C1188 C 0.62082 0.55753 0.02509 0.0
C1189 C 0.59768 0.54704 0.02881 0.0
C1190 C 0.6237 0.53399 0.9579 0.0
C1191 C 0.63573 0.57324 0.0459 0.0
H1192 H 0.71243 0.56144 0.00592 0.0
H1193 H 0.68035 0.62074 0.98382 0.0
H1194 H 0.66528 0.53082 0.02916 0.0
H1195 H 0.65967 0.51828 0.99793 0.0
H1196 H 0.68983 0.52479 0.01217 0.0
H1197 H 0.63895 0.61851 0.97601 0.0
H1198 H 0.62117 0.58931 0.97051 0.0
H1199 H 0.62527 0.60439 0.00077 0.0
H1200 H 0.58091 0.51636 0.97286 0.0
H1201 H 0.59087 0.55047 0.04645 0.0
H1202 H 0.64109 0.52755 0.95959 0.0
H1203 H 0.6265 0.55095 0.94913 0.0
H1204 H 0.61084 0.52079 0.9456 0.0
H1205 H 0.65322 0.56727 0.0493 0.0
H1206 H 0.6269 0.5732 0.06328 0.0
H1207 H 0.63924 0.59181 0.04084 0.0
C1208 C 0.70866 0.47329 0.30315 0.0
C1209 C 0.68407 0.46825 0.29637 0.0
C1210 C 0.72279 0.45517 0.30199 0.0
C1211 C 0.71203 0.43157 0.29386 0.0
C1212 C 0.68714 0.42635 0.28742 0.0
C1213 C 0.67348 0.44476 0.28876 0.0
C1214 C 0.74922 0.46128 0.30927 0.0
C1215 C 0.67496 0.40135 0.27882 0.0
C1216 C 0.74563 0.38508 0.26632 0.0
C1217 C 0.74631 0.37002 0.28527 0.0
C1218 C 0.73566 0.40603 0.26933 0.0
C1219 C 0.72656 0.4121 0.29191 0.0
C1220 C 0.72902 0.39789 0.31172 0.0
C1221 C 0.73867 0.37688 0.30806 0.0
C1222 C 0.73332 0.42071 0.24776 0.0
C1223 C 0.71993 0.40383 0.33624 0.0
H1224 H 0.71693 0.49144 0.30901 0.0
H1225 H 0.65448 0.44077 0.28351 0.0
H1226 H 0.75438 0.45047 0.32419 0.0
H1227 H 0.75919 0.45685 0.2934 0.0
H1228 H 0.75478 0.48043 0.31565 0.0
H1229 H 0.65546 0.4003 0.27448 0.0
H1230 H 0.68265 0.39473 0.26212 0.0
H1231 H 0.67802 0.38923 0.29321 0.0
H1232 H 0.75144 0.37972 0.24865 0.0
H1233 H 0.73944 0.36533 0.3228 0.0
H1234 H 0.73947 0.43986 0.25356 0.0
H1235 H 0.7143 0.41872 0.24064 0.0
H1236 H 0.74363 0.41518 0.23253 0.0
H1237 H 0.72329 0.42329 0.34151 0.0
H1238 H 0.72833 0.39482 0.35108 0.0
H1239 H 0.7004 0.39782 0.33495 0.0
C1240 C 0.84734 0.41293 0.49325 0.0
C1241 C 0.82785 0.42447 0.4973 0.0
C1242 C 0.87056 0.42562 0.49595 0.0
C1243 C 0.87431 0.45033 0.50339 0.0
C1244 C 0.85455 0.46234 0.5058 0.0
C1245 C 0.83146 0.44925 0.5025 0.0
C1246 C 0.89115 0.41226 0.49263 0.0
C1247 C 0.85782 0.48862 0.51389 0.0
C1248 C 0.93086 0.47048 0.54525 0.0
C1249 C 0.94604 0.48178 0.52939 0.0
C1250 C 0.9072 0.46105 0.53716 0.0
C1251 C 0.89866 0.46251 0.51243 0.0
C1252 C 0.91377 0.47439 0.49642 0.0
C1253 C 0.93733 0.48413 0.5052 0.0
C1254 C 0.89152 0.44894 0.55498 0.0
C1255 C 0.90537 0.47596 0.46986 0.0
H1256 H 0.84453 0.39379 0.48891 0.0
H1257 H 0.81638 0.45822 0.50561 0.0
H1258 H 0.90441 0.42215 0.48187 0.0
H1259 H 0.90026 0.41049 0.51091 0.0
H1260 H 0.88521 0.39414 0.48318 0.0
H1261 H 0.84094 0.49593 0.51116 0.0
H1262 H 0.86423 0.49158 0.53372 0.0
H1263 H 0.87144 0.49873 0.5037 0.0
H1264 H 0.93753 0.46889 0.56404 0.0
H1265 H 0.94916 0.49277 0.4929 0.0
H1266 H 0.88666 0.4297 0.54888 0.0
H1267 H 0.87475 0.45651 0.55535 0.0
H1268 H 0.90041 0.45084 0.57399 0.0
H1269 H 0.90233 0.45792 0.4599 0.0
H1270 H 0.9185 0.48769 0.46049 0.0
H1271 H 0.88815 0.48276 0.46848 0.0
C1272 C 0.33551 0.06747 0.24924 0.0
C1273 C 0.35704 0.07625 0.2635 0.0
C1274 C 0.3182 0.0821 0.24507 0.0
C1275 C 0.32266 0.10608 0.25525 0.0
C1276 C 0.34484 0.11531 0.26865 0.0
C1277 C 0.36171 0.10023 0.27274 0.0
C1278 C 0.2948 0.07165 0.23068 0.0
C1279 C 0.35041 0.14092 0.27948 0.0
C1280 C 0.28666 0.15337 0.23618 0.0
C1281 C 0.27336 0.15579 0.25647 0.0
C1282 C 0.3019 0.13627 0.23471 0.0
C1283 C 0.30358 0.12112 0.25382 0.0
C1284 C 0.28863 0.12213 0.27319 0.0
C1285 C 0.27374 0.1395 0.27431 0.0
C1286 C 0.31753 0.13575 0.21375 0.0
C1287 C 0.28967 0.10609 0.29379 0.0
H1288 H 0.33184 0.04893 0.24201 0.0
H1289 H 0.37841 0.10713 0.28357 0.0
H1290 H 0.28035 0.07065 0.24316 0.0
H1291 H 0.29034 0.08323 0.21621 0.0
H1292 H 0.29505 0.05349 0.22188 0.0
H1293 H 0.36908 0.14575 0.28784 0.0
H1294 H 0.3474 0.15305 0.26508 0.0
H1295 H 0.3383 0.14399 0.29387 0.0
H1296 H 0.2865 0.16589 0.22231 0.0
H1297 H 0.26338 0.14117 0.28994 0.0
H1298 H 0.31776 0.11718 0.20623 0.0
H1299 H 0.33609 0.14365 0.22061 0.0
H1300 H 0.31159 0.14598 0.19862 0.0
H1301 H 0.28852 0.0873 0.28626 0.0
H1302 H 0.27513 0.10732 0.30594 0.0
H1303 H 0.30697 0.11114 0.30513 0.0
C1304 C 0.32017 0.07342 0.50414 0.0
C1305 C 0.32464 0.09823 0.50943 0.0
C1306 C 0.33887 0.05995 0.50495 0.0
C1307 C 0.36257 0.07158 0.51127 0.0
C1308 C 0.3671 0.09658 0.51702 0.0
C1309 C 0.3481 0.10959 0.51599 0.0
C1310 C 0.33333 0.03337 0.49857 0.0
C1311 C 0.3921 0.10967 0.5239 0.0
C1312 C 0.41248 0.03822 0.53209 0.0
C1313 C 0.42478 0.03714 0.51096 0.0
C1314 C 0.39165 0.04863 0.53226 0.0
C1315 C 0.38286 0.05793 0.51073 0.0
C1316 C 0.39454 0.05571 0.48901 0.0
C1317 C 0.41538 0.04546 0.48943 0.0
C1318 C 0.37972 0.0507 0.5558 0.0
C1319 C 0.38566 0.06514 0.46558 0.0
H1320 H 0.30207 0.06452 0.4991 0.0
H1321 H 0.35168 0.12874 0.52019 0.0
H1322 H 0.34199 0.02844 0.48189 0.0
H1323 H 0.34066 0.024 0.51371 0.0
H1324 H 0.31389 0.02689 0.4951 0.0
H1325 H 0.39251 0.12898 0.5289 0.0
H1326 H 0.40055 0.10196 0.53968 0.0
H1327 H 0.40306 0.10758 0.50826 0.0
H1328 H 0.41969 0.03192 0.54882 0.0
H1329 H 0.42469 0.04453 0.47295 0.0
H1330 H 0.36037 0.04396 0.55232 0.0
H1331 H 0.38173 0.06971 0.56291 0.0
H1332 H 0.38744 0.04074 0.57024 0.0
H1333 H 0.36635 0.05862 0.4611 0.0
H1334 H 0.39526 0.05983 0.4497 0.0
H1335 H 0.38807 0.08486 0.46811 0.0
C1336 C 0.67999 0.60942 0.30012 0.0
C1337 C 0.68767 0.58851 0.29106 0.0
C1338 C 0.69395 0.63174 0.29922 0.0
C1339 C 0.71613 0.63313 0.28905 0.0
C1340 C 0.72432 0.61202 0.2806 0.0
C1341 C 0.70996 0.58993 0.28168 0.0
C1342 C 0.68459 0.65388 0.30838 0.0
C1343 C 0.74786 0.61282 0.26964 0.0
C1344 C 0.7353 0.69071 0.26108 0.0
C1345 C 0.75178 0.70333 0.27962 0.0
C1346 C 0.72431 0.66749 0.26357 0.0
C1347 C 0.72964 0.65676 0.28533 0.0
C1348 C 0.74681 0.66914 0.30384 0.0
C1349 C 0.75789 0.6923 0.30066 0.0
C1350 C 0.70641 0.65474 0.24321 0.0
C1351 C 0.75277 0.65831 0.32737 0.0
H1352 H 0.66282 0.60841 0.30748 0.0
H1353 H 0.71603 0.57378 0.27479 0.0
H1354 H 0.69809 0.66523 0.32171 0.0
H1355 H 0.68105 0.6645 0.29276 0.0
H1356 H 0.66787 0.64968 0.31738 0.0
H1357 H 0.75255 0.59479 0.26579 0.0
H1358 H 0.74706 0.62141 0.25217 0.0
H1359 H 0.76232 0.62371 0.28224 0.0
H1360 H 0.73077 0.69913 0.24466 0.0
H1361 H 0.77055 0.70212 0.31505 0.0
H1362 H 0.68846 0.65174 0.24995 0.0
H1363 H 0.71098 0.63703 0.23752 0.0
H1364 H 0.70553 0.66495 0.22679 0.0
H1365 H 0.73691 0.65603 0.33797 0.0
H1366 H 0.76772 0.66951 0.33912 0.0
H1367 H 0.75753 0.64039 0.32323 0.0
C1368 C 0.84445 0.45425 0.7661 0.0
C1369 C 0.85402 0.46838 0.78768 0.0
C1370 C 0.83013 0.4322 0.76709 0.0
C1371 C 0.82504 0.42425 0.79023 0.0
C1372 C 0.83405 0.43877 0.81209 0.0
C1373 C 0.84861 0.46066 0.81056 0.0
C1374 C 0.82103 0.4171 0.74335 0.0
C1375 C 0.8287 0.43096 0.83705 0.0
C1376 C 0.7738 0.37298 0.7852 0.0
C1377 C 0.786 0.35344 0.78407 0.0
C1378 C 0.78629 0.39632 0.78892 0.0
C1379 C 0.81149 0.40008 0.79128 0.0
C1380 C 0.82383 0.3804 0.79178 0.0
C1381 C 0.81092 0.35731 0.78835 0.0
C1382 C 0.77255 0.41693 0.78883 0.0
C1383 C 0.85071 0.38365 0.79415 0.0
H1384 H 0.84858 0.46018 0.74838 0.0
H1385 H 0.85588 0.47165 0.82728 0.0
H1386 H 0.82828 0.40011 0.74298 0.0
H1387 H 0.80135 0.41257 0.74212 0.0
H1388 H 0.82611 0.42617 0.72688 0.0
H1389 H 0.83546 0.44513 0.85212 0.0
H1390 H 0.80922 0.42583 0.83764 0.0
H1391 H 0.837 0.41503 0.8405 0.0
H1392 H 0.75453 0.37013 0.78221 0.0
H1393 H 0.82052 0.34231 0.78779 0.0
H1394 H 0.77437 0.42536 0.77136 0.0
H1395 H 0.77983 0.43069 0.80408 0.0
H1396 H 0.75331 0.41118 0.79056 0.0
H1397 H 0.85746 0.39078 0.77731 0.0
H1398 H 0.85751 0.36668 0.79667 0.0
H1399 H 0.85818 0.39673 0.80993 0.0
C1400 C 0.01156 0.84724 0.10609 0.0
C1401 C 0.03216 0.83669 0.10855 0.0
C1402 C 0.01199 0.86925 0.09622 0.0
C1403 C 0.03362 0.88107 0.08895 0.0
C1404 C 0.05418 0.86993 0.09028 0.0
C1405 C 0.05316 0.84779 0.09996 0.0
C1406 C 0.98963 0.8804 0.09479 0.0
C1407 C 0.07762 0.88203 0.08285 0.0
C1408 C 0.03546 0.93558 0.05284 0.0
C1409 C 0.04244 0.95403 0.07166 0.0
C1410 C 0.03196 0.91165 0.05815 0.0
C1411 C 0.03555 0.90617 0.08282 0.0
C1412 C 0.04189 0.92479 0.10191 0.0
C1413 C 0.04522 0.94844 0.0961 0.0
C1414 C 0.02501 0.89225 0.03737 0.0
C1415 C 0.04579 0.91973 0.12848 0.0
H1416 H 0.99521 0.83861 0.11251 0.0
H1417 H 0.06911 0.83966 0.10176 0.0
H1418 H 0.99167 0.89589 0.10878 0.0
H1419 H 0.98655 0.88709 0.07651 0.0
H1420 H 0.97368 0.86768 0.09809 0.0
H1421 H 0.09128 0.87009 0.08277 0.0
H1422 H 0.07518 0.88828 0.06428 0.0
H1423 H 0.08445 0.89792 0.09589 0.0
H1424 H 0.03325 0.9398 0.03392 0.0
H1425 H 0.0504 0.96258 0.11079 0.0
H1426 H 0.00905 0.87993 0.04132 0.0
H1427 H 0.03963 0.88162 0.03564 0.0
H1428 H 0.0212 0.89948 0.01948 0.0
H1429 H 0.02965 0.90877 0.13402 0.0
H1430 H 0.05004 0.93627 0.14117 0.0
H1431 H 0.06066 0.90938 0.13075 0.0
C1432 C 0.92852 0.24289 0.86434 0.0
C1433 C 0.9492 0.25744 0.85893 0.0
C1434 C 0.90633 0.24392 0.85181 0.0
C1435 C 0.9048 0.25991 0.83345 0.0
C1436 C 0.92573 0.27411 0.82737 0.0
C1437 C 0.9477 0.2727 0.84019 0.0
C1438 C 0.88441 0.22849 0.85881 0.0
C1439 C 0.92481 0.29139 0.80794 0.0
C1440 C 0.84778 0.25193 0.79051 0.0
C1441 C 0.83512 0.26811 0.80218 0.0
C1442 C 0.87064 0.24919 0.8003 0.0
C1443 C 0.88108 0.26313 0.82208 0.0
C1444 C 0.86859 0.27988 0.83357 0.0
C1445 C 0.84576 0.28208 0.82354 0.0
C1446 C 0.8834 0.23106 0.78765 0.0
C1447 C 0.87917 0.29523 0.85671 0.0
H1448 H 0.92958 0.231 0.87873 0.0
H1449 H 0.96365 0.28392 0.83588 0.0
H1450 H 0.8725 0.23987 0.86719 0.0
H1451 H 0.87428 0.21831 0.8422 0.0
H1452 H 0.88884 0.21575 0.87213 0.0
H1453 H 0.94284 0.29981 0.8041 0.0
H1454 H 0.91525 0.2822 0.79057 0.0
H1455 H 0.91475 0.30562 0.81407 0.0
H1456 H 0.83962 0.24102 0.77405 0.0
H1457 H 0.83617 0.29476 0.83259 0.0
H1458 H 0.88639 0.21721 0.80017 0.0
H1459 H 0.90115 0.23968 0.78327 0.0
H1460 H 0.87322 0.22225 0.77039 0.0
H1461 H 0.88228 0.28382 0.87176 0.0
H1462 H 0.86747 0.30798 0.86286 0.0
H1463 H 0.89668 0.30544 0.85364 0.0
C1464 C 0.50623 0.19778 0.59538 0.0
C1465 C 0.52754 0.20868 0.60881 0.0
C1466 C 0.50358 0.17415 0.585 0.0
C1467 C 0.52275 0.16122 0.58803 0.0
C1468 C 0.54478 0.17262 0.60029 0.0
C1469 C 0.54688 0.19622 0.61063 0.0
C1470 C 0.4798 0.16262 0.57204 0.0
C1471 C 0.56571 0.15952 0.60367 0.0
C1472 C 0.50514 0.09482 0.59066 0.0
C1473 C 0.5085 0.0858 0.56687 0.0
C1474 C 0.51026 0.11927 0.59787 0.0
C1475 C 0.51887 0.13517 0.58083 0.0
C1476 C 0.52288 0.12616 0.55695 0.0
C1477 C 0.5177 0.10152 0.55025 0.0
C1478 C 0.50592 0.12814 0.62359 0.0
C1479 C 0.53204 0.14259 0.53832 0.0
H1480 H 0.49125 0.20736 0.59385 0.0
H1481 H 0.56346 0.20464 0.62085 0.0
H1482 H 0.48222 0.15355 0.55396 0.0
H1483 H 0.47127 0.14887 0.58318 0.0
H1484 H 0.46753 0.1757 0.56908 0.0
H1485 H 0.58233 0.17166 0.61089 0.0
H1486 H 0.56186 0.14588 0.6168 0.0
H1487 H 0.56873 0.15008 0.58599 0.0
H1488 H 0.49821 0.08276 0.60365 0.0
H1489 H 0.52029 0.09465 0.53181 0.0
H1490 H 0.49212 0.13988 0.62271 0.0
H1491 H 0.52243 0.1389 0.63307 0.0
H1492 H 0.49997 0.11338 0.63486 0.0
H1493 H 0.51875 0.15423 0.53367 0.0
H1494 H 0.53564 0.13268 0.5211 0.0
H1495 H 0.54865 0.15435 0.54615 0.0
C1496 C 0.59562 0.76181 0.37342 0.0
C1497 C 0.57258 0.75613 0.36145 0.0
C1498 C 0.61572 0.76297 0.3601 0.0
C1499 C 0.61273 0.75835 0.33416 0.0
C1500 C 0.5895 0.75298 0.32192 0.0
C1501 C 0.56967 0.75191 0.33573 0.0
C1502 C 0.6402 0.76875 0.37387 0.0
C1503 C 0.5856 0.74798 0.2943 0.0
C1504 C 0.66739 0.77886 0.30114 0.0
C1505 C 0.67774 0.75811 0.29931 0.0
C1506 C 0.64567 0.77904 0.3116 0.0
C1507 C 0.63403 0.75792 0.32018 0.0
C1508 C 0.6438 0.73665 0.31712 0.0
C1509 C 0.66556 0.73704 0.30682 0.0
C1510 C 0.63581 0.80207 0.31456 0.0
C1511 C 0.63185 0.71369 0.32575 0.0
H1512 H 0.59799 0.76518 0.39328 0.0
H1513 H 0.55189 0.74763 0.32637 0.0
H1514 H 0.64989 0.75345 0.37108 0.0
H1515 H 0.6507 0.78423 0.36658 0.0
H1516 H 0.63947 0.77286 0.39393 0.0
H1517 H 0.56644 0.74532 0.28747 0.0
H1518 H 0.59517 0.76289 0.28533 0.0
H1519 H 0.59301 0.73176 0.28852 0.0
H1520 H 0.67675 0.79521 0.29542 0.0
H1521 H 0.67334 0.72086 0.30522 0.0
H1522 H 0.63695 0.80834 0.33438 0.0
H1523 H 0.61673 0.79929 0.30752 0.0
H1524 H 0.64565 0.81626 0.3048 0.0
H1525 H 0.6322 0.71551 0.3461 0.0
H1526 H 0.64072 0.69833 0.32019 0.0
H1527 H 0.61291 0.70975 0.31823 0.0
C1528 C 0.04945 0.20854 0.45568 0.0
C1529 C 0.02978 0.21728 0.44501 0.0
C1530 C 0.04658 0.18671 0.46608 0.0
C1531 C 0.02351 0.1733 0.46566 0.0
C1532 C 0.00348 0.18258 0.45595 0.0
C1533 C 0.00686 0.20451 0.44577 0.0
C1534 C 0.06837 0.17744 0.4764 0.0
C1535 C 0.97861 0.16877 0.45508 0.0
C1536 C 0.02163 0.10658 0.46194 0.0
C1537 C 0.01847 0.10163 0.48623 0.0
C1538 C 0.02257 0.12972 0.45493 0.0
C1539 C 0.0207 0.1485 0.47277 0.0
C1540 C 0.017 0.14358 0.49726 0.0
C1541 C 0.01571 0.12007 0.50368 0.0
C1542 C 0.02605 0.13413 0.42851 0.0
C1543 C 0.01512 0.16322 0.51677 0.0
H1544 H 0.06719 0.21842 0.45527 0.0
H1545 H 0.99157 0.21125 0.43763 0.0
H1546 H 0.06574 0.17149 0.49494 0.0
H1547 H 0.07128 0.16177 0.46439 0.0
H1548 H 0.08466 0.19106 0.47774 0.0
H1549 H 0.96479 0.17956 0.44949 0.0
H1550 H 0.97681 0.15282 0.44171 0.0
H1551 H 0.97514 0.16243 0.47328 0.0
H1552 H 0.02348 0.09229 0.44832 0.0
H1553 H 0.01334 0.11626 0.52249 0.0
H1554 H 0.04329 0.14586 0.42761 0.0
H1555 H 0.0118 0.1434 0.42082 0.0
H1556 H 0.02593 0.11738 0.41668 0.0
H1557 H 0.03216 0.17578 0.51969 0.0
H1558 H 0.011 0.15629 0.5346 0.0
H1559 H 0.00108 0.17351 0.51068 0.0
C1560 C 0.57635 0.27562 0.20265 0.0
C1561 C 0.57167 0.26237 0.17967 0.0
C1562 C 0.59954 0.28047 0.21451 0.0
C1563 C 0.61832 0.27178 0.20308 0.0
C1564 C 0.61341 0.25738 0.18048 0.0
C1565 C 0.59015 0.25292 0.16901 0.0
C1566 C 0.60413 0.29586 0.23862 0.0
C1567 C 0.63292 0.24764 0.16778 0.0
C1568 C 0.68037 0.30735 0.21262 0.0
C1569 C 0.69221 0.29393 0.22845 0.0
C1570 C 0.65615 0.30066 0.20488 0.0
C1571 C 0.64343 0.27994 0.21308 0.0
C1572 C 0.65508 0.26656 0.22954 0.0
C1573 C 0.67941 0.27376 0.2371 0.0
C1574 C 0.64435 0.31547 0.18739 0.0
C1575 C 0.64204 0.24434 0.23859 0.0
H1576 H 0.56207 0.28282 0.21101 0.0
H1577 H 0.58656 0.24241 0.15137 0.0
H1578 H 0.61492 0.28757 0.25225 0.0
H1579 H 0.6145 0.31337 0.2358 0.0
H1580 H 0.58735 0.29892 0.24643 0.0
H1581 H 0.62578 0.23482 0.15163 0.0
H1582 H 0.64511 0.26251 0.1614 0.0
H1583 H 0.64364 0.23862 0.18077 0.0
H1584 H 0.69008 0.32308 0.20603 0.0
H1585 H 0.68848 0.26334 0.24939 0.0
H1586 H 0.62836 0.32095 0.19501 0.0
H1587 H 0.63831 0.30472 0.16963 0.0
H1588 H 0.65648 0.33171 0.18373 0.0
H1589 H 0.62559 0.24814 0.24655 0.0
H1590 H 0.65319 0.23693 0.25268 0.0
H1591 H 0.63655 0.23056 0.2229 0.0
C1592 C 0.53385 0.84125 0.96491 0.0
C1593 C 0.54884 0.83828 0.9462 0.0
C1594 C 0.53232 0.86395 0.97577 0.0
C1595 C 0.54635 0.88411 0.96792 0.0
C1596 C 0.56271 0.88109 0.95022 0.0
C1597 C 0.56366 0.85816 0.93943 0.0
C1598 C 0.51451 0.86643 0.99443 0.0
C1599 C 0.5782 0.90217 0.94167 0.0
C1600 C 0.51939 0.94076 0.97052 0.0
C1601 C 0.53112 0.95327 0.99221 0.0
C1602 C 0.52443 0.91838 0.96234 0.0
C1603 C 0.5418 0.9083 0.97608 0.0
C1604 C 0.55398 0.92093 0.99783 0.0
C1605 C 0.54839 0.94326 0.00574 0.0
C1606 C 0.51087 0.90536 0.93917 0.0
C1607 C 0.57277 0.91079 0.01276 0.0
H1608 H 0.52239 0.82593 0.97027 0.0
H1609 H 0.57538 0.85591 0.92508 0.0
H1610 H 0.523 0.87804 0.01093 0.0
H1611 H 0.49987 0.875 0.98636 0.0
H1612 H 0.50667 0.84897 0.00029 0.0
H1613 H 0.59214 0.89667 0.93041 0.0
H1614 H 0.56701 0.91232 0.93041 0.0
H1615 H 0.58695 0.91439 0.95765 0.0
H1616 H 0.50599 0.94834 0.95998 0.0
H1617 H 0.55762 0.95293 0.02244 0.0
H1618 H 0.50085 0.88815 0.94342 0.0
H1619 H 0.52345 0.90127 0.9256 0.0
H1620 H 0.49809 0.9158 0.93051 0.0
H1621 H 0.56471 0.89399 0.01979 0.0
H1622 H 0.58132 0.9233 0.02864 0.0
H1623 H 0.58673 0.90639 0.00098 0.0
C1624 C 0.92961 0.73366 0.68185 0.0
C1625 C 0.94907 0.75177 0.68846 0.0
C1626 C 0.90798 0.73412 0.69216 0.0
C1627 C 0.90569 0.7533 0.70934 0.0
C1628 C 0.92553 0.77124 0.71676 0.0
C1629 C 0.94708 0.77022 0.70626 0.0
C1630 C 0.88732 0.71448 0.68396 0.0
C1631 C 0.92369 0.79198 0.73499 0.0
C1632 C 0.8418 0.76351 0.70862 0.0
C1633 C 0.83425 0.75164 0.72869 0.0
C1634 C 0.86559 0.7658 0.70326 0.0
C1635 C 0.88196 0.75526 0.71791 0.0
C1636 C 0.87461 0.74419 0.73892 0.0
C1637 C 0.8508 0.74278 0.74426 0.0
C1638 C 0.87281 0.77821 0.68102 0.0
C1639 C 0.89138 0.73233 0.75469 0.0
H1640 H 0.93113 0.71926 0.66823 0.0
H1641 H 0.96213 0.78424 0.71144 0.0
H1642 H 0.87969 0.70683 0.70016 0.0
H1643 H 0.87303 0.72185 0.67361 0.0
H1644 H 0.89259 0.69992 0.67197 0.0
H1645 H 0.94124 0.80326 0.74049 0.0
H1646 H 0.91145 0.80318 0.72674 0.0
H1647 H 0.91607 0.78555 0.75172 0.0
H1648 H 0.82892 0.77044 0.69669 0.0
H1649 H 0.84479 0.73336 0.75964 0.0
H1650 H 0.87606 0.76487 0.66635 0.0
H1651 H 0.88963 0.79089 0.6857 0.0
H1652 H 0.85889 0.78807 0.67358 0.0
H1653 H 0.89501 0.71601 0.74426 0.0
H1654 H 0.88387 0.72723 0.77198 0.0
H1655 H 0.90868 0.74423 0.75939 0.0
C1656 C 0.11651 0.00294 0.87357 0.0
C1657 C 0.10726 0.01247 0.85275 0.0
C1658 C 0.10425 0.00165 0.89478 0.0
C1659 C 0.08225 0.01021 0.8952 0.0
C1660 C 0.0725 0.01929 0.874 0.0
C1661 C 0.08512 0.02027 0.85299 0.0
C1662 C 0.11524 0.99184 0.91701 0.0
C1663 C 0.04918 0.02873 0.87382 0.0
C1664 C 0.04422 0.99316 0.94717 0.0
C1665 C 0.0515 0.01281 0.96452 0.0
C1666 C 0.05374 0.99217 0.92424 0.0
C1667 C 0.07055 0.01145 0.91851 0.0
C1668 C 0.07717 0.0317 0.93565 0.0
C1669 C 0.06773 0.03203 0.95848 0.0
C1670 C 0.04639 0.97023 0.90646 0.0
C1671 C 0.09468 0.05285 0.93015 0.0
H1672 H 0.13356 0.99677 0.87346 0.0
H1673 H 0.07786 0.02761 0.83691 0.0
H1674 H 0.12004 0.00619 0.93224 0.0
H1675 H 0.10223 0.97776 0.92355 0.0
H1676 H 0.13152 0.98428 0.91309 0.0
H1677 H 0.04317 0.03355 0.85535 0.0
H1678 H 0.03513 0.01531 0.87979 0.0
H1679 H 0.05111 0.04477 0.88709 0.0
H1680 H 0.03168 0.97829 0.95181 0.0
H1681 H 0.07315 0.04745 0.97169 0.0
H1682 H 0.06204 0.96124 0.90373 0.0
H1683 H 0.03993 0.97523 0.88825 0.0
H1684 H 0.03219 0.95737 0.91308 0.0
H1685 H 0.11239 0.04747 0.92829 0.0
H1686 H 0.09669 0.06782 0.94478 0.0
H1687 H 0.08887 0.05931 0.91243 0.0
C1688 C 0.78443 0.36011 0.59108 0.0
C1689 C 0.76863 0.34973 0.57089 0.0
C1690 C 0.78561 0.34915 0.61308 0.0
C1691 C 0.77073 0.32722 0.61481 0.0
C1692 C 0.75556 0.31612 0.59409 0.0
C1693 C 0.75461 0.32758 0.57238 0.0
C1694 C 0.80189 0.36162 0.63484 0.0
C1695 C 0.73957 0.29265 0.5952 0.0
C1696 C 0.78274 0.29351 0.67054 0.0
C1697 C 0.76614 0.30067 0.68593 0.0
C1698 C 0.78421 0.30162 0.64702 0.0
C1699 C 0.76896 0.31745 0.63903 0.0
C1700 C 0.7521 0.32456 0.65447 0.0
C1701 C 0.7508 0.31597 0.67762 0.0
C1702 C 0.80217 0.29345 0.63084 0.0
C1703 C 0.73566 0.34161 0.64675 0.0
H1704 H 0.79541 0.37718 0.58995 0.0
H1705 H 0.74253 0.31939 0.55672 0.0
H1706 H 0.79105 0.36757 0.64938 0.0
H1707 H 0.81294 0.34923 0.64283 0.0
H1708 H 0.81386 0.3774 0.62983 0.0
H1709 H 0.73097 0.28507 0.57679 0.0
H1710 H 0.74984 0.27957 0.60308 0.0
H1711 H 0.72541 0.29521 0.60746 0.0
H1712 H 0.79457 0.28163 0.67685 0.0
H1713 H 0.73796 0.32168 0.68941 0.0
H1714 H 0.81521 0.30896 0.62711 0.0
H1715 H 0.79311 0.28527 0.61284 0.0
H1716 H 0.81201 0.28033 0.63934 0.0
H1717 H 0.74629 0.35876 0.64319 0.0
H1718 H 0.72344 0.34522 0.66091 0.0
H1719 H 0.7248 0.33427 0.62938 0.0
C1720 C 0.47157 0.0458 0.34832 0.0
C1721 C 0.44725 0.0472 0.34837 0.0
C1722 C 0.48564 0.04499 0.37033 0.0
C1723 C 0.4751 0.04569 0.39285 0.0
C1724 C 0.45104 0.04906 0.39316 0.0
C1725 C 0.43736 0.04971 0.37086 0.0
C1726 C 0.51125 0.04147 0.36927 0.0
C1727 C 0.43922 0.05022 0.41685 0.0
C1728 C 0.49418 0.00948 0.44353 0.0
C1729 C 0.50711 0.02709 0.4607 0.0
C1730 C 0.48477 0.01524 0.42082 0.0
C1731 C 0.48789 0.03933 0.41545 0.0
C1732 C 0.50176 0.0571 0.43236 0.0
C1733 C 0.51146 0.0507 0.45481 0.0
C1734 C 0.47054 0.99565 0.40308 0.0
C1735 C 0.50518 0.08298 0.4274 0.0
H1736 H 0.47936 0.04403 0.33097 0.0
H1737 H 0.41861 0.05101 0.37101 0.0
H1738 H 0.52298 0.05327 0.3838 0.0
H1739 H 0.51286 0.02284 0.37262 0.0
H1740 H 0.51774 0.045 0.3511 0.0
H1741 H 0.42164 0.05625 0.41435 0.0
H1742 H 0.4365 0.03231 0.42372 0.0
H1743 H 0.4507 0.06247 0.43123 0.0
H1744 H 0.49095 0.9912 0.44815 0.0
H1745 H 0.52122 0.06433 0.46832 0.0
H1746 H 0.47706 0.99641 0.38455 0.0
H1747 H 0.45158 0.99809 0.40129 0.0
H1748 H 0.47154 0.97768 0.40918 0.0
H1749 H 0.51053 0.0851 0.40856 0.0
H1750 H 0.5188 0.09409 0.44083 0.0
H1751 H 0.48806 0.0898 0.42855 0.0
C1752 C 0.74954 0.67 0.08646 0.0
C1753 C 0.76889 0.67379 0.07218 0.0
C1754 C 0.75095 0.68069 0.11062 0.0
C1755 C 0.77216 0.69564 0.12069 0.0
C1756 C 0.79142 0.70024 0.10602 0.0
C1757 C 0.78959 0.68918 0.08196 0.0
C1758 C 0.73008 0.67522 0.1257 0.0
C1759 C 0.81431 0.71617 0.11603 0.0
C1760 C 0.7728 0.73583 0.17979 0.0
C1761 C 0.78263 0.72253 0.19729 0.0
C1762 C 0.7689 0.72719 0.15478 0.0
C1763 C 0.77503 0.70478 0.14717 0.0
C1764 C 0.7845 0.69112 0.16485 0.0
C1765 C 0.78814 0.70013 0.18963 0.0
C1766 C 0.75866 0.7422 0.13645 0.0
C1767 C 0.79122 0.66712 0.15754 0.0
H1768 H 0.73347 0.65813 0.07898 0.0
H1769 H 0.80455 0.69228 0.07096 0.0
H1770 H 0.73511 0.66483 0.14103 0.0
H1771 H 0.72515 0.69194 0.134 0.0
H1772 H 0.71421 0.66485 0.11459 0.0
H1773 H 0.82683 0.71947 0.10169 0.0
H1774 H 0.81051 0.73352 0.12398 0.0
H1775 H 0.82322 0.70784 0.13106 0.0
H1776 H 0.76849 0.75315 0.18555 0.0
H1777 H 0.79567 0.68965 0.20299 0.0
H1778 H 0.7425 0.73187 0.12587 0.0
H1779 H 0.77176 0.74714 0.12306 0.0
H1780 H 0.75392 0.75876 0.14544 0.0
H1781 H 0.77564 0.65512 0.14771 0.0
H1782 H 0.79778 0.65845 0.17364 0.0
H1783 H 0.80536 0.66915 0.14472 0.0
C1784 C 0.09603 0.99917 0.71124 0.0
C1785 C 0.1081 0.02048 0.72375 0.0
C1786 C 0.08608 0.99849 0.68687 0.0
C1787 C 0.08817 0.01968 0.6748 0.0
C1788 C 0.09932 0.04145 0.68775 0.0
C1789 C 0.10924 0.04158 0.71207 0.0
C1790 C 0.07436 0.9749 0.67367 0.0
C1791 C 0.10172 0.06443 0.67559 0.0
C1792 C 0.08969 0.01054 0.60572 0.0
C1793 C 0.06608 0.01155 0.59717 0.0
C1794 C 0.09724 0.01393 0.63089 0.0
C1795 C 0.08079 0.01851 0.648 0.0
C1796 C 0.05719 0.02064 0.63946 0.0
C1797 C 0.05009 0.01712 0.61409 0.0
C1798 C 0.12261 0.01164 0.63921 0.0
C1799 C 0.03922 0.0257 0.65716 0.0
H1800 H 0.09504 0.98282 0.72021 0.0
H1801 H 0.11843 0.05814 0.72171 0.0
H1802 H 0.05645 0.97637 0.66505 0.0
H1803 H 0.08512 0.96977 0.6587 0.0
H1804 H 0.0725 0.96045 0.68619 0.0
H1805 H 0.10845 0.08016 0.68891 0.0
H1806 H 0.11425 0.06379 0.66114 0.0
H1807 H 0.08431 0.06683 0.66644 0.0
H1808 H 0.10222 0.00643 0.59276 0.0
H1809 H 0.0318 0.01792 0.60761 0.0
H1810 H 0.12273 0.99612 0.65021 0.0
H1811 H 0.13121 0.02768 0.65122 0.0
H1812 H 0.13348 0.00925 0.62351 0.0
H1813 H 0.0351 0.01028 0.6681 0.0
H1814 H 0.02235 0.02908 0.64753 0.0
H1815 H 0.04664 0.04136 0.67028 0.0
C1816 C 0.73302 0.3506 0.42067 0.0
C1817 C 0.74829 0.34498 0.4399 0.0
C1818 C 0.73188 0.33887 0.39695 0.0
C1819 C 0.74669 0.32153 0.3924 0.0
C1820 C 0.76133 0.3151 0.41206 0.0
C1821 C 0.76177 0.32675 0.43559 0.0
C1822 C 0.71542 0.34552 0.3766 0.0
C1823 C 0.77772 0.29699 0.40796 0.0
C1824 C 0.74239 0.2795 0.33433 0.0
C1825 C 0.76032 0.29134 0.32163 0.0
C1826 C 0.73652 0.2898 0.35675 0.0
C1827 C 0.74931 0.31215 0.36684 0.0
C1828 C 0.76681 0.32451 0.35357 0.0
C1829 C 0.77207 0.31397 0.33116 0.0
C1830 C 0.71739 0.27635 0.37011 0.0
C1831 C 0.78094 0.34834 0.36367 0.0
H1832 H 0.72234 0.36448 0.42405 0.0
H1833 H 0.77356 0.32228 0.45041 0.0
H1834 H 0.7258 0.35217 0.3616 0.0
H1835 H 0.70283 0.32951 0.3686 0.0
H1836 H 0.70506 0.35938 0.38311 0.0
H1837 H 0.78674 0.29285 0.42546 0.0
H1838 H 0.76765 0.28023 0.39836 0.0
H1839 H 0.79154 0.30391 0.39604 0.0
H1840 H 0.73328 0.26201 0.32696 0.0
H1841 H 0.78609 0.32313 0.3215 0.0
H1842 H 0.70531 0.28839 0.37693 0.0
H1843 H 0.72569 0.26921 0.38635 0.0
H1844 H 0.70666 0.26124 0.35818 0.0
H1845 H 0.76878 0.36109 0.36837 0.0
H1846 H 0.793 0.35616 0.35043 0.0
H1847 H 0.79183 0.34625 0.38083 0.0
C1848 C 0.43881 0.99517 0.21009 0.0
C1849 C 0.43958 0.01831 0.22115 0.0
C1850 C 0.44844 0.99127 0.18763 0.0
C1851 C 0.45896 0.011 0.176 0.0
C1852 C 0.46087 0.03431 0.18772 0.0
C1853 C 0.45115 0.03768 0.21021 0.0
C1854 C 0.44618 0.96616 0.17573 0.0
C1855 C 0.47202 0.05579 0.17588 0.0
C1856 C 0.49446 0.00306 0.1209 0.0
C1857 C 0.47754 0.00517 0.10153 0.0
C1858 C 0.48859 0.00436 0.14536 0.0
C1859 C 0.46527 0.00764 0.15035 0.0
C1860 C 0.44793 0.00882 0.13073 0.0
C1861 C 0.45431 0.00764 0.10659 0.0
C1862 C 0.5075 0.00305 0.16588 0.0
C1863 C 0.42278 0.01204 0.13526 0.0
H1864 H 0.43006 0.98011 0.21861 0.0
H1865 H 0.45192 0.05558 0.21881 0.0
H1866 H 0.43299 0.96372 0.15937 0.0
H1867 H 0.46341 0.96278 0.16928 0.0
H1868 H 0.44031 0.95268 0.18848 0.0
H1869 H 0.47432 0.07237 0.18847 0.0
H1870 H 0.48965 0.05315 0.16994 0.0
H1871 H 0.46058 0.05818 0.1592 0.0
H1872 H 0.51245 0.00119 0.11704 0.0
H1873 H 0.44109 0.00903 0.09165 0.0
H1874 H 0.50088 0.98955 0.17827 0.0
H1875 H 0.51176 0.02045 0.1771 0.0
H1876 H 0.52415 0.99854 0.15884 0.0
H1877 H 0.41479 0.99796 0.14634 0.0
H1878 H 0.41117 0.01144 0.11789 0.0
H1879 H 0.42298 0.02942 0.14593 0.0
C1880 C 0.75147 0.66582 0.92017 0.0
C1881 C 0.76866 0.67261 0.94018 0.0
C1882 C 0.75193 0.67835 0.89909 0.0
C1883 C 0.77058 0.69752 0.89761 0.0
C1884 C 0.78821 0.70416 0.91768 0.0
C1885 C 0.78676 0.69191 0.93894 0.0
C1886 C 0.73234 0.67119 0.87847 0.0
C1887 C 0.80885 0.72389 0.91649 0.0
C1888 C 0.78185 0.71227 0.83264 0.0
C1889 C 0.77164 0.73295 0.83092 0.0
C1890 C 0.78253 0.70113 0.85458 0.0
C1891 C 0.77176 0.71033 0.87492 0.0
C1892 C 0.76139 0.73127 0.87319 0.0
C1893 C 0.76186 0.74261 0.8513 0.0
C1894 C 0.79446 0.67932 0.85585 0.0
C1895 C 0.74892 0.74112 0.89407 0.0
H1896 H 0.73736 0.651 0.92123 0.0
H1897 H 0.80017 0.69702 0.95437 0.0
H1898 H 0.7239 0.68683 0.87409 0.0
H1899 H 0.73987 0.6648 0.8616 0.0
H1900 H 0.71835 0.6569 0.88313 0.0
H1901 H 0.82139 0.72648 0.93341 0.0
H1902 H 0.81877 0.7198 0.90046 0.0
H1903 H 0.80222 0.74087 0.91381 0.0
H1904 H 0.78934 0.70482 0.81674 0.0
H1905 H 0.7536 0.75839 0.84971 0.0
H1906 H 0.78102 0.66352 0.85775 0.0
H1907 H 0.80756 0.68156 0.87227 0.0
H1908 H 0.80375 0.67571 0.8392 0.0
H1909 H 0.73388 0.72761 0.89801 0.0
H1910 H 0.74188 0.75761 0.88986 0.0
H1911 H 0.7613 0.74509 0.91105 0.0
C1912 C 0.83942 0.08313 0.00471 0.0
C1913 C 0.83294 0.08842 0.02847 0.0
C1914 C 0.85912 0.0717 0.00104 0.0
C1915 C 0.87256 0.06536 0.02162 0.0
C1916 C 0.86515 0.06925 0.04549 0.0
C1917 C 0.84544 0.08082 0.04864 0.0
C1918 C 0.86646 0.06791 0.97532 0.0
C1919 C 0.87891 0.06254 0.06789 0.0
C1920 C 0.92146 0.0274 0.01456 0.0
C1921 C 0.94173 0.04491 0.01853 0.0
C1922 C 0.89857 0.03371 0.01487 0.0
C1923 C 0.89617 0.05805 0.01875 0.0
C1924 C 0.91667 0.07576 0.02134 0.0
C1925 C 0.93918 0.06894 0.02145 0.0
C1926 C 0.87711 0.01436 0.01225 0.0
C1927 C 0.91494 0.10195 0.02496 0.0
H1928 H 0.82969 0.08881 0.98901 0.0
H1929 H 0.84037 0.08466 0.06701 0.0
H1930 H 0.88278 0.08068 0.97334 0.0
H1931 H 0.87078 0.04972 0.97177 0.0
H1932 H 0.85236 0.0706 0.9611 0.0
H1933 H 0.86918 0.06391 0.0846 0.0
H1934 H 0.8827 0.0441 0.06477 0.0
H1935 H 0.89628 0.07455 0.07139 0.0
H1936 H 0.92353 0.0088 0.01247 0.0
H1937 H 0.95494 0.08248 0.02426 0.0
H1938 H 0.86332 0.01833 0.99843 0.0
H1939 H 0.86912 0.01358 0.03005 0.0
H1940 H 0.88175 0.99661 0.00676 0.0
H1941 H 0.90251 0.10675 0.01026 0.0
H1942 H 0.93249 0.11344 0.02486 0.0
H1943 H 0.90773 0.1059 0.04279 0.0
C1944 C 0.35292 0.43084 0.06284 0.0
C1945 C 0.33375 0.43506 0.04704 0.0
C1946 C 0.37597 0.44335 0.06184 0.0
C1947 C 0.37991 0.46057 0.04471 0.0
C1948 C 0.3604 0.46572 0.02957 0.0
C1949 C 0.33757 0.45285 0.03086 0.0
C1950 C 0.3963 0.43726 0.07824 0.0
C1951 C 0.36381 0.48403 0.01117 0.0
C1952 C 0.43951 0.50217 0.0503 0.0
C1953 C 0.45197 0.49052 0.03327 0.0
C1954 C 0.41596 0.49276 0.05421 0.0
C1955 C 0.40467 0.47125 0.04076 0.0
C1956 C 0.4171 0.45961 0.02337 0.0
C1957 C 0.44049 0.4694 0.01981 0.0
C1958 C 0.40322 0.5057 0.07283 0.0
C1959 C 0.40576 0.43666 0.00859 0.0
H1960 H 0.35008 0.41715 0.07543 0.0
H1961 H 0.3228 0.4563 0.0187 0.0
H1962 H 0.40827 0.42844 0.06686 0.0
H1963 H 0.40702 0.45368 0.08792 0.0
H1964 H 0.39 0.42518 0.09215 0.0
H1965 H 0.34658 0.48776 0.00269 0.0
H1966 H 0.37427 0.50092 0.02008 0.0
H1967 H 0.37402 0.47754 0.99632 0.0
H1968 H 0.44822 0.51849 0.06077 0.0
H1969 H 0.44981 0.46036 0.00641 0.0
H1970 H 0.39835 0.49407 0.08756 0.0
H1971 H 0.38642 0.50996 0.06395 0.0
H1972 H 0.41427 0.52248 0.0814 0.0
H1973 H 0.40054 0.42281 0.02114 0.0
H1974 H 0.41787 0.42985 0.9958 0.0
H1975 H 0.38932 0.43938 0.9977 0.0
C1976 C 0.36824 0.59515 0.76159 0.0
C1977 C 0.35683 0.5716 0.76151 0.0
C1978 C 0.35585 0.61433 0.76575 0.0
C1979 C 0.33147 0.60986 0.77002 0.0
C1980 C 0.31978 0.58609 0.76965 0.0
C1981 C 0.33259 0.56725 0.76537 0.0
C1982 C 0.36895 0.63942 0.76589 0.0
C1983 C 0.29384 0.5806 0.77417 0.0
C1984 C 0.30907 0.66091 0.8049 0.0
C1985 C 0.2986 0.67189 0.78573 0.0
C1986 C 0.319 0.64017 0.80012 0.0
C1987 C 0.31851 0.63014 0.77557 0.0
C1988 C 0.30693 0.64043 0.75626 0.0
C1989 C 0.29705 0.66114 0.76157 0.0
C1990 C 0.331 0.62963 0.82126 0.0
C1991 C 0.30599 0.63026 0.72985 0.0
H1992 H 0.38695 0.59863 0.75857 0.0
H1993 H 0.32366 0.54907 0.76533 0.0
H1994 H 0.35973 0.64913 0.75227 0.0
H1995 H 0.36894 0.64916 0.78423 0.0
H1996 H 0.38769 0.63987 0.76154 0.0
H1997 H 0.28717 0.56116 0.77251 0.0
H1998 H 0.29124 0.58815 0.79287 0.0
H1999 H 0.28285 0.58905 0.76088 0.0
H2000 H 0.31027 0.669 0.82362 0.0
H2001 H 0.28902 0.66947 0.74661 0.0
H2002 H 0.35043 0.63156 0.81952 0.0
H2003 H 0.32418 0.61032 0.8208 0.0
H2004 H 0.32821 0.63839 0.83941 0.0
H2005 H 0.32424 0.63245 0.7238 0.0
H2006 H 0.29464 0.63911 0.71725 0.0
H2007 H 0.29905 0.61091 0.72808 0.0
C2008 C 0.20618 0.58376 0.50117 0.0
C2009 C 0.2167 0.59466 0.52404 0.0
C2010 C 0.18208 0.57357 0.4981 0.0
C2011 C 0.16815 0.57474 0.5183 0.0
C2012 C 0.17899 0.58464 0.54174 0.0
C2013 C 0.20325 0.59434 0.54437 0.0
C2014 C 0.17123 0.56277 0.47292 0.0
C2015 C 0.16466 0.58639 0.56365 0.0
C2016 C 0.10338 0.57873 0.50151 0.0
C2017 C 0.09225 0.55548 0.50379 0.0
C2018 C 0.12802 0.58529 0.50675 0.0
C2019 C 0.1419 0.56811 0.5142 0.0
C2020 C 0.13076 0.54467 0.51688 0.0
C2021 C 0.10598 0.53865 0.51175 0.0
C2022 C 0.13925 0.61056 0.50393 0.0
C2023 C 0.14506 0.52587 0.52459 0.0
H2024 H 0.21663 0.58379 0.48547 0.0
H2025 H 0.21137 0.60279 0.56208 0.0
H2026 H 0.16042 0.5451 0.47418 0.0
H2027 H 0.15914 0.57434 0.46512 0.0
H2028 H 0.18497 0.56065 0.45998 0.0
H2029 H 0.17616 0.59209 0.58107 0.0
H2030 H 0.15242 0.59952 0.5609 0.0
H2031 H 0.15353 0.56904 0.56553 0.0
H2032 H 0.09284 0.59186 0.49555 0.0
H2033 H 0.09744 0.52063 0.5135 0.0
H2034 H 0.15169 0.61065 0.48935 0.0
H2035 H 0.14978 0.61854 0.52129 0.0
H2036 H 0.12581 0.62201 0.49905 0.0
H2037 H 0.15751 0.5226 0.51061 0.0
H2038 H 0.13357 0.50877 0.52683 0.0
H2039 H 0.15599 0.53211 0.54221 0.0
C2040 C 0.68151 0.93399 0.79086 0.0
C2041 C 0.69002 0.95273 0.77722 0.0
C2042 C 0.6939 0.9148 0.79341 0.0
C2043 C 0.71515 0.9143 0.78181 0.0
C2044 C 0.72464 0.93393 0.76941 0.0
C2045 C 0.71195 0.95299 0.7673 0.0
C2046 C 0.68329 0.89427 0.80695 0.0
C2047 C 0.74724 0.93402 0.75679 0.0
C2048 C 0.74971 0.86368 0.79384 0.0
C2049 C 0.74029 0.8471 0.77392 0.0
C2050 C 0.74223 0.88606 0.79647 0.0
C2051 C 0.72485 0.89167 0.77889 0.0
C2052 C 0.71572 0.87514 0.75854 0.0
C2053 C 0.72363 0.85318 0.75626 0.0
C2054 C 0.75251 0.90346 0.81821 0.0
C2055 C 0.69706 0.88034 0.7394 0.0
H2056 H 0.66473 0.93392 0.79889 0.0
H2057 H 0.7187 0.96758 0.75693 0.0
H2058 H 0.67585 0.87887 0.79348 0.0
H2059 H 0.69715 0.88851 0.81942 0.0
H2060 H 0.66879 0.8989 0.81791 0.0
H2061 H 0.75425 0.95197 0.75148 0.0
H2062 H 0.76118 0.92789 0.76885 0.0
H2063 H 0.74362 0.9215 0.73989 0.0
H2064 H 0.76264 0.85909 0.80749 0.0
H2065 H 0.71628 0.84055 0.74073 0.0
H2066 H 0.73829 0.90646 0.83023 0.0
H2067 H 0.75962 0.92091 0.81189 0.0
H2068 H 0.76699 0.89704 0.82931 0.0
H2069 H 0.68067 0.88299 0.74817 0.0
H2070 H 0.69229 0.86576 0.72436 0.0
H2071 H 0.70355 0.89701 0.73119 0.0
C2072 C 0.69054 0.9215 0.52809 0.0
C2073 C 0.712 0.93105 0.54206 0.0
C2074 C 0.67089 0.93361 0.52778 0.0
C2075 C 0.67262 0.95573 0.542 0.0
C2076 C 0.69433 0.9656 0.55596 0.0
C2077 C 0.71382 0.95319 0.55573 0.0
C2078 C 0.64811 0.9225 0.51256 0.0
C2079 C 0.69679 0.98899 0.57156 0.0
C2080 C 0.62478 0.99335 0.52604 0.0
C2081 C 0.60821 0.98667 0.54282 0.0
C2082 C 0.64624 0.98402 0.52601 0.0
C2083 C 0.65124 0.96773 0.54323 0.0
C2084 C 0.63497 0.96168 0.5608 0.0
C2085 C 0.61368 0.97112 0.56029 0.0
C2086 C 0.66317 0.99091 0.50701 0.0
C2087 C 0.6396 0.94452 0.57959 0.0
H2088 H 0.68907 0.90447 0.51737 0.0
H2089 H 0.73036 0.96064 0.56658 0.0
H2090 H 0.6337 0.9184 0.52477 0.0
H2091 H 0.64239 0.9352 0.49985 0.0
H2092 H 0.65005 0.90582 0.50156 0.0
H2093 H 0.71514 0.99476 0.5805 0.0
H2094 H 0.69196 0.00307 0.56016 0.0
H2095 H 0.68429 0.98736 0.58609 0.0
H2096 H 0.62069 0.00532 0.51246 0.0
H2097 H 0.601 0.96577 0.57332 0.0
H2098 H 0.66413 0.97508 0.49424 0.0
H2099 H 0.68138 0.99726 0.51601 0.0
H2100 H 0.65757 0.00505 0.49611 0.0
H2101 H 0.63925 0.92653 0.57015 0.0
H2102 H 0.62617 0.94326 0.59326 0.0
H2103 H 0.65753 0.95006 0.58955 0.0
C2104 C 0.36666 0.42591 0.74113 0.0
C2105 C 0.35552 0.44617 0.74111 0.0
C2106 C 0.35347 0.40326 0.74261 0.0
C2107 C 0.32863 0.40091 0.74456 0.0
C2108 C 0.31716 0.42118 0.74359 0.0
C2109 C 0.33073 0.44354 0.74167 0.0
C2110 C 0.3663 0.382 0.74311 0.0
C2111 C 0.29079 0.41949 0.74595 0.0
C2112 C 0.29129 0.33906 0.73559 0.0
C2113 C 0.2915 0.33285 0.75983 0.0
C2114 C 0.3033 0.3612 0.73025 0.0
C2115 C 0.31506 0.37766 0.74972 0.0
C2116 C 0.31442 0.37171 0.77432 0.0
C2117 C 0.30301 0.34919 0.77903 0.0
C2118 C 0.30415 0.36661 0.70377 0.0
C2119 C 0.32615 0.38896 0.79568 0.0
H2120 H 0.3858 0.42783 0.7406 0.0
H2121 H 0.32201 0.45914 0.74174 0.0
H2122 H 0.36632 0.37545 0.76165 0.0
H2123 H 0.35694 0.36724 0.72981 0.0
H2124 H 0.38504 0.38635 0.73867 0.0
H2125 H 0.28428 0.43652 0.74299 0.0
H2126 H 0.2806 0.40531 0.73252 0.0
H2127 H 0.28691 0.41459 0.7646 0.0
H2128 H 0.28268 0.32618 0.72075 0.0
H2129 H 0.30309 0.3443 0.79777 0.0
H2130 H 0.32287 0.36891 0.69904 0.0
H2131 H 0.29749 0.38357 0.70101 0.0
H2132 H 0.29345 0.35226 0.69084 0.0
H2133 H 0.34569 0.39224 0.79466 0.0
H2134 H 0.32252 0.38224 0.81373 0.0
H2135 H 0.31977 0.40632 0.79478 0.0
C2136 C 0.18874 0.58099 0.24518 0.0
C2137 C 0.1887 0.56885 0.26647 0.0
C2138 C 0.19816 0.60529 0.24625 0.0
C2139 C 0.20772 0.61764 0.26915 0.0
C2140 C 0.20885 0.60513 0.29044 0.0
C2141 C 0.19932 0.58088 0.28883 0.0
C2142 C 0.19678 0.61799 0.22314 0.0
C2143 C 0.21899 0.61764 0.3152 0.0
C2144 C 0.24431 0.67958 0.2747 0.0
C2145 C 0.2274 0.69367 0.28164 0.0
C2146 C 0.23802 0.65481 0.26963 0.0
C2147 C 0.21429 0.64398 0.27153 0.0
C2148 C 0.19696 0.65826 0.27746 0.0
C2149 C 0.20373 0.68291 0.28245 0.0
C2150 C 0.25695 0.64015 0.26323 0.0
C2151 C 0.17142 0.64741 0.27952 0.0
H2152 H 0.18063 0.57173 0.22781 0.0
H2153 H 0.19947 0.57153 0.30532 0.0
H2154 H 0.18343 0.63018 0.2244 0.0
H2155 H 0.21415 0.62902 0.22106 0.0
H2156 H 0.19159 0.60539 0.2064 0.0
H2157 H 0.22047 0.60501 0.32946 0.0
H2158 H 0.23688 0.62795 0.31384 0.0
H2159 H 0.20738 0.63046 0.32133 0.0
H2160 H 0.26264 0.68779 0.27396 0.0
H2161 H 0.1905 0.69369 0.28757 0.0
H2162 H 0.25071 0.62783 0.24652 0.0
H2163 H 0.26055 0.62909 0.27846 0.0
H2164 H 0.2739 0.65141 0.26004 0.0
H2165 H 0.1641 0.63598 0.26249 0.0
H2166 H 0.15984 0.66111 0.28278 0.0
H2167 H 0.17061 0.63591 0.29496 0.0
C2168 C 0.50195 0.67382 0.43759 0.0
C2169 C 0.5179 0.69508 0.44361 0.0
C2170 C 0.50244 0.65448 0.45185 0.0
C2171 C 0.51951 0.65632 0.47244 0.0
C2172 C 0.53591 0.67762 0.47838 0.0
C2173 C 0.5348 0.69682 0.46399 0.0
C2174 C 0.4845 0.63214 0.44502 0.0
C2175 C 0.55453 0.68016 0.5 0.0
C2176 C 0.50321 0.61283 0.51971 0.0
C2177 C 0.51513 0.59405 0.51248 0.0
C2178 C 0.50543 0.63376 0.50762 0.0
C2179 C 0.51987 0.63593 0.48779 0.0
C2180 C 0.53308 0.61765 0.48139 0.0
C2181 C 0.53062 0.59696 0.49387 0.0
C2182 C 0.49122 0.65294 0.51517 0.0
C2183 C 0.54873 0.6193 0.46041 0.0
H2184 H 0.4888 0.67243 0.42192 0.0
H2185 H 0.54724 0.7132 0.46865 0.0
H2186 H 0.49383 0.61669 0.44148 0.0
H2187 H 0.47353 0.62839 0.46054 0.0
H2188 H 0.47244 0.63354 0.42844 0.0
H2189 H 0.56632 0.6977 0.50183 0.0
H2190 H 0.54578 0.67801 0.51725 0.0
H2191 H 0.56567 0.66592 0.49801 0.0
H2192 H 0.49131 0.61081 0.53414 0.0
H2193 H 0.53996 0.58258 0.48814 0.0
H2194 H 0.477 0.65379 0.50036 0.0
H2195 H 0.50276 0.6706 0.51777 0.0
H2196 H 0.48278 0.64965 0.53244 0.0
H2197 H 0.53747 0.61825 0.44277 0.0
H2198 H 0.55965 0.60477 0.45937 0.0
H2199 H 0.56079 0.63665 0.46233 0.0
C2200 C 0.61216 0.29662 0.69466 0.0
C2201 C 0.5916 0.28158 0.6995 0.0
C2202 C 0.63383 0.29724 0.70891 0.0
C2203 C 0.63487 0.2825 0.72849 0.0
C2204 C 0.61389 0.26819 0.73423 0.0
C2205 C 0.59249 0.26786 0.71961 0.0
C2206 C 0.65587 0.31269 0.70218 0.0
C2207 C 0.61427 0.25228 0.75498 0.0
C2208 C 0.69373 0.26104 0.74143 0.0
C2209 C 0.70408 0.27614 0.76216 0.0
C2210 C 0.67104 0.26265 0.73071 0.0
C2211 C 0.65833 0.27989 0.74089 0.0
C2212 C 0.66834 0.2948 0.76223 0.0
C2213 C 0.69116 0.29269 0.77272 0.0
C2214 C 0.66092 0.24623 0.70811 0.0
C2215 C 0.65525 0.31337 0.77354 0.0
H2216 H 0.61153 0.30734 0.6792 0.0
H2217 H 0.57658 0.25633 0.72356 0.0
H2218 H 0.66541 0.32349 0.71873 0.0
H2219 H 0.66821 0.30125 0.69474 0.0
H2220 H 0.65165 0.32485 0.68816 0.0
H2221 H 0.59606 0.24443 0.75887 0.0
H2222 H 0.62421 0.23758 0.75012 0.0
H2223 H 0.62364 0.26237 0.77201 0.0
H2224 H 0.70352 0.24801 0.73333 0.0
H2225 H 0.69914 0.30444 0.78869 0.0
H2226 H 0.65816 0.25683 0.69229 0.0
H2227 H 0.64332 0.23625 0.71121 0.0
H2228 H 0.67277 0.23323 0.70307 0.0
H2229 H 0.65295 0.32685 0.76038 0.0
H2230 H 0.66485 0.32258 0.79092 0.0
H2231 H 0.63719 0.30508 0.77736 0.0
C2232 C 0.99451 0.32795 0.95419 0.0
C2233 C 0.01492 0.32249 0.94377 0.0
C2234 C 0.99404 0.35083 0.9655 0.0
C2235 C 0.01458 0.36842 0.96664 0.0
C2236 C 0.03558 0.36255 0.95725 0.0
C2237 C 0.03542 0.33973 0.94575 0.0
C2238 C 0.97128 0.35649 0.97511 0.0
C2239 C 0.05798 0.38068 0.95844 0.0
C2240 C 0.01305 0.43422 0.96561 0.0
C2241 C 0.02137 0.44274 0.98988 0.0
C2242 C 0.00889 0.40977 0.95828 0.0
C2243 C 0.01381 0.39354 0.97554 0.0
C2244 C 0.02091 0.40199 0.00046 0.0
C2245 C 0.02437 0.42658 0.00741 0.0
C2246 C 0.00074 0.40148 0.93168 0.0
C2247 C 0.0266 0.3853 0.01933 0.0
H2248 H 0.97861 0.31464 0.95264 0.0
H2249 H 0.0513 0.33549 0.93791 0.0
H2250 H 0.97488 0.36559 0.99398 0.0
H2251 H 0.9636 0.36884 0.96327 0.0
H2252 H 0.95783 0.34027 0.97537 0.0
H2253 H 0.07335 0.37268 0.95231 0.0
H2254 H 0.05493 0.39498 0.94653 0.0
H2255 H 0.06272 0.38911 0.97749 0.0
H2256 H 0.0105 0.44677 0.95213 0.0
H2257 H 0.03094 0.43323 0.02618 0.0
H2258 H 0.98598 0.38622 0.93034 0.0
H2259 H 0.01565 0.39532 0.92251 0.0
H2260 H 0.99465 0.41587 0.92149 0.0
H2261 H 0.01263 0.36934 0.01793 0.0
H2262 H 0.0284 0.39405 0.03838 0.0
H2263 H 0.04364 0.37909 0.01581 0.0
C2264 C 0.97518 0.7852 0.21234 0.0
C2265 C 0.9754 0.76987 0.1911 0.0
C2266 C 0.9546 0.78476 0.22485 0.0
C2267 C 0.93372 0.7688 0.2157 0.0
C2268 C 0.93419 0.75257 0.19489 0.0
C2269 C 0.95508 0.75323 0.1829 0.0
C2270 C 0.95486 0.80215 0.24714 0.0
C2271 C 0.91224 0.7354 0.18445 0.0
C2272 C 0.88003 0.75834 0.25285 0.0
C2273 C 0.86556 0.77355 0.24267 0.0
C2274 C 0.90261 0.75696 0.24474 0.0
C2275 C 0.91071 0.771 0.22594 0.0
C2276 C 0.89636 0.78673 0.21603 0.0
C2277 C 0.87407 0.78788 0.22458 0.0
C2278 C 0.91757 0.74018 0.25588 0.0
C2279 C 0.90428 0.80194 0.19588 0.0
H2280 H 0.99093 0.79795 0.21887 0.0
H2281 H 0.95519 0.74128 0.16654 0.0
H2282 H 0.94385 0.8159 0.24252 0.0
H2283 H 0.94699 0.79293 0.26237 0.0
H2284 H 0.97316 0.81121 0.25372 0.0
H2285 H 0.91614 0.7225 0.16964 0.0
H2286 H 0.90432 0.72537 0.19913 0.0
H2287 H 0.89866 0.74548 0.17674 0.0
H2288 H 0.87358 0.74724 0.26686 0.0
H2289 H 0.86308 0.79976 0.21665 0.0
H2290 H 0.93559 0.74984 0.26252 0.0
H2291 H 0.91986 0.72597 0.24166 0.0
H2292 H 0.90945 0.73172 0.27145 0.0
H2293 H 0.92166 0.81327 0.20191 0.0
H2294 H 0.89122 0.81364 0.19055 0.0
H2295 H 0.90681 0.79039 0.17935 0.0
C2296 C 0.50816 0.33349 0.10951 0.0
C2297 C 0.51291 0.31151 0.0996 0.0
C2298 C 0.50929 0.35307 0.09544 0.0
C2299 C 0.51552 0.35062 0.07095 0.0
C2300 C 0.52095 0.32864 0.06106 0.0
C2301 C 0.51947 0.30929 0.07548 0.0
C2302 C 0.50329 0.37622 0.10662 0.0
C2303 C 0.52793 0.32547 0.03513 0.0
C2304 C 0.49333 0.39424 0.02941 0.0
C2305 C 0.51327 0.41215 0.03074 0.0
C2306 C 0.49411 0.37366 0.04168 0.0
C2307 C 0.51538 0.37088 0.05549 0.0
C2308 C 0.53596 0.38826 0.0558 0.0
C2309 C 0.53466 0.40872 0.04344 0.0
C2310 C 0.47179 0.35549 0.04088 0.0
C2311 C 0.55902 0.38581 0.07017 0.0
H2312 H 0.50311 0.33529 0.12816 0.0
H2313 H 0.52329 0.29234 0.0678 0.0
H2314 H 0.51828 0.39088 0.10569 0.0
H2315 H 0.48751 0.38079 0.09597 0.0
H2316 H 0.49942 0.37536 0.12612 0.0
H2317 H 0.53287 0.30764 0.03066 0.0
H2318 H 0.51292 0.32779 0.02186 0.0
H2319 H 0.54321 0.33927 0.03246 0.0
H2320 H 0.47675 0.39669 0.01961 0.0
H2321 H 0.55019 0.42243 0.04452 0.0
H2322 H 0.46547 0.35509 0.05952 0.0
H2323 H 0.47559 0.33745 0.0353 0.0
H2324 H 0.45722 0.35946 0.02795 0.0
H2325 H 0.55682 0.38748 0.09014 0.0
H2326 H 0.57398 0.3996 0.06651 0.0
H2327 H 0.56383 0.36798 0.06559 0.0
C2328 C 0.97068 0.30469 0.35859 0.0
C2329 C 0.97979 0.2832 0.35763 0.0
C2330 C 0.94884 0.30631 0.34568 0.0
C2331 C 0.93603 0.28599 0.33139 0.0
C2332 C 0.94567 0.26456 0.32953 0.0
C2333 C 0.96742 0.2634 0.34278 0.0
C2334 C 0.93902 0.3294 0.34817 0.0
C2335 C 0.93258 0.24257 0.31429 0.0
C2336 C 0.8689 0.27661 0.3209 0.0
C2337 C 0.86539 0.28144 0.2963 0.0
C2338 C 0.89184 0.27912 0.33289 0.0
C2339 C 0.91173 0.28642 0.31986 0.0
C2340 C 0.90829 0.29233 0.29535 0.0
C2341 C 0.88507 0.28988 0.28386 0.0
C2342 C 0.8948 0.27297 0.35918 0.0
C2343 C 0.92912 0.30011 0.28091 0.0
H2344 H 0.98022 0.32005 0.37008 0.0
H2345 H 0.9745 0.2468 0.34189 0.0
H2346 H 0.93366 0.33477 0.32978 0.0
H2347 H 0.92284 0.32695 0.35827 0.0
H2348 H 0.9521 0.34408 0.35822 0.0
H2349 H 0.94332 0.22791 0.3133 0.0
H2350 H 0.9158 0.23616 0.32236 0.0
H2351 H 0.92767 0.24682 0.29531 0.0
H2352 H 0.8537 0.27035 0.33067 0.0
H2353 H 0.88243 0.29363 0.26483 0.0
H2354 H 0.90658 0.28763 0.37072 0.0
H2355 H 0.90339 0.25683 0.35991 0.0
H2356 H 0.87751 0.26954 0.36731 0.0
H2357 H 0.94175 0.3147 0.2916 0.0
H2358 H 0.92341 0.30625 0.26295 0.0
H2359 H 0.93893 0.28501 0.27742 0.0
C2360 C 0.99154 0.67118 0.60517 0.0
C2361 C 0.00354 0.69314 0.59963 0.0
C2362 C 0.99202 0.6503 0.59009 0.0
C2363 C 0.00497 0.65144 0.56909 0.0
C2364 C 0.01609 0.67374 0.5627 0.0
C2365 C 0.01517 0.69439 0.57805 0.0
C2366 C 0.97979 0.62686 0.59742 0.0
C2367 C 0.03013 0.67562 0.54051 0.0
C2368 C 0.03176 0.59612 0.5539 0.0
C2369 C 0.01554 0.58402 0.53481 0.0
C2370 C 0.02893 0.61846 0.56454 0.0
C2371 C 0.0094 0.62906 0.55587 0.0
C2372 C 0.99351 0.61747 0.53588 0.0
C2373 C 0.99678 0.59501 0.52553 0.0
C2374 C 0.04635 0.63027 0.58578 0.0
C2375 C 0.97255 0.62834 0.52612 0.0
H2376 H 0.98231 0.67019 0.62171 0.0
H2377 H 0.02439 0.71137 0.57366 0.0
H2378 H 0.96862 0.61659 0.58147 0.0
H2379 H 0.99336 0.616 0.60347 0.0
H2380 H 0.96838 0.6293 0.61265 0.0
H2381 H 0.03502 0.69436 0.53627 0.0
H2382 H 0.04673 0.66803 0.54396 0.0
H2383 H 0.01983 0.66521 0.52413 0.0
H2384 H 0.04645 0.58785 0.56102 0.0
H2385 H 0.98421 0.58575 0.51075 0.0
H2386 H 0.03703 0.63149 0.60275 0.0
H2387 H 0.05366 0.64867 0.58213 0.0
H2388 H 0.06141 0.62035 0.58925 0.0
H2389 H 0.95956 0.62853 0.54015 0.0
H2390 H 0.96336 0.61833 0.50894 0.0
H2391 H 0.9784 0.64708 0.52247 0.0
C2392 C 0.6135 0.75955 0.86584 0.0
C2393 C 0.591 0.76359 0.85666 0.0
C2394 C 0.63101 0.756 0.84996 0.0
C2395 C 0.62575 0.75622 0.82426 0.0
C2396 C 0.60285 0.75969 0.81484 0.0
C2397 C 0.58577 0.7635 0.83119 0.0
C2398 C 0.65533 0.75261 0.86073 0.0
C2399 C 0.59653 0.75978 0.78755 0.0
C2400 C 0.67983 0.77375 0.79014 0.0
C2401 C 0.68555 0.7515 0.78218 0.0
C2402 C 0.65978 0.77552 0.80289 0.0
C2403 C 0.64487 0.75453 0.80758 0.0
C2404 C 0.64952 0.73206 0.79807 0.0
C2405 C 0.66991 0.73079 0.78548 0.0
C2406 C 0.65546 0.79985 0.81266 0.0
C2407 C 0.63373 0.70932 0.80235 0.0
H2408 H 0.61758 0.75954 0.88552 0.0
H2409 H 0.5683 0.76639 0.824 0.0
H2410 H 0.66007 0.73581 0.85241 0.0
H2411 H 0.66893 0.76739 0.85637 0.0
H2412 H 0.65629 0.7521 0.88102 0.0
H2413 H 0.57744 0.76095 0.78309 0.0
H2414 H 0.60749 0.77513 0.78053 0.0
H2415 H 0.60058 0.74339 0.7776 0.0
H2416 H 0.69164 0.78989 0.78735 0.0
H2417 H 0.67416 0.71355 0.77931 0.0
H2418 H 0.65811 0.80159 0.83305 0.0
H2419 H 0.63684 0.80217 0.80741 0.0
H2420 H 0.66765 0.81445 0.80576 0.0
H2421 H 0.63608 0.70611 0.82205 0.0
H2422 H 0.63791 0.69368 0.79112 0.0
H2423 H 0.61472 0.71079 0.79796 0.0
C2424 C 0.46124 0.51738 0.69719 0.0
C2425 C 0.43752 0.52125 0.69411 0.0
C2426 C 0.47582 0.51896 0.6777 0.0
C2427 C 0.46648 0.52458 0.65455 0.0
C2428 C 0.44274 0.52915 0.65151 0.0
C2429 C 0.42853 0.52739 0.67133 0.0
C2430 C 0.50097 0.51385 0.68165 0.0
C2431 C 0.43212 0.53523 0.62711 0.0
C2432 C 0.50763 0.5431 0.6054 0.0
C2433 C 0.50466 0.52202 0.58979 0.0
C2434 C 0.49561 0.5442 0.62686 0.0
C2435 C 0.48073 0.52363 0.63293 0.0
C2436 C 0.47868 0.50205 0.61775 0.0
C2437 C 0.49047 0.50159 0.59629 0.0
C2438 C 0.49808 0.56756 0.6425 0.0
C2439 C 0.46343 0.47957 0.62374 0.0
H2440 H 0.46835 0.51275 0.7148 0.0
H2441 H 0.41027 0.53054 0.66887 0.0
H2442 H 0.50274 0.49743 0.67017 0.0
H2443 H 0.51372 0.52856 0.6758 0.0
H2444 H 0.5061 0.51144 0.70118 0.0
H2445 H 0.41405 0.54 0.62825 0.0
H2446 H 0.44378 0.55033 0.62048 0.0
H2447 H 0.43087 0.5198 0.61317 0.0
H2448 H 0.51845 0.55894 0.60026 0.0
H2449 H 0.48834 0.48519 0.58433 0.0
H2450 H 0.50327 0.56515 0.66199 0.0
H2451 H 0.48066 0.57398 0.64188 0.0
H2452 H 0.51148 0.58147 0.6362 0.0
H2453 H 0.46855 0.47561 0.64276 0.0
H2454 H 0.46499 0.46394 0.6109 0.0
H2455 H 0.44448 0.48206 0.6228 0.0
C2456 C 0.79408 0.18826 0.97204 0.0
C2457 C 0.77401 0.17734 0.98239 0.0
C2458 C 0.79166 0.20099 0.95137 0.0
C2459 C 0.76861 0.20274 0.94078 0.0
C2460 C 0.74829 0.19262 0.95179 0.0
C2461 C 0.75124 0.18002 0.97253 0.0
C2462 C 0.81377 0.21163 0.94019 0.0
C2463 C 0.72344 0.19407 0.94097 0.0
C2464 C 0.76543 0.24701 0.89273 0.0
C2465 C 0.76664 0.23245 0.87122 0.0
C2466 C 0.76536 0.23751 0.91565 0.0
C2467 C 0.76594 0.21288 0.91676 0.0
C2468 C 0.76578 0.19797 0.89483 0.0
C2469 C 0.76644 0.20801 0.87237 0.0
C2470 C 0.7658 0.25394 0.9387 0.0
C2471 C 0.7658 0.17153 0.89514 0.0
H2472 H 0.81172 0.18636 0.97971 0.0
H2473 H 0.73567 0.17168 0.98056 0.0
H2474 H 0.81463 0.20196 0.92198 0.0
H2475 H 0.81315 0.23052 0.93716 0.0
H2476 H 0.83031 0.21066 0.95194 0.0
H2477 H 0.70969 0.18765 0.95323 0.0
H2478 H 0.72185 0.21264 0.93737 0.0
H2479 H 0.71967 0.18306 0.92307 0.0
H2480 H 0.76563 0.26593 0.89174 0.0
H2481 H 0.76702 0.19672 0.85561 0.0
H2482 H 0.78326 0.25528 0.94962 0.0
H2483 H 0.7519 0.24671 0.95037 0.0
H2484 H 0.76303 0.27212 0.93456 0.0
H2485 H 0.78287 0.16839 0.90448 0.0
H2486 H 0.76353 0.1622 0.87633 0.0
H2487 H 0.75128 0.16348 0.90567 0.0
C2488 C 0.07887 0.49358 0.20454 0.0
C2489 C 0.10162 0.48752 0.20263 0.0
C2490 C 0.06384 0.49531 0.18349 0.0
C2491 C 0.07159 0.4904 0.16001 0.0
C2492 C 0.0938 0.48251 0.15801 0.0
C2493 C 0.10871 0.48142 0.1794 0.0
C2494 C 0.0405 0.50418 0.18641 0.0
C2495 C 0.10245 0.47661 0.13327 0.0
C2496 C 0.02867 0.48617 0.10245 0.0
C2497 C 0.03552 0.50847 0.09391 0.0
C2498 C 0.03999 0.48 0.12423 0.0
C2499 C 0.0582 0.49673 0.13778 0.0
C2500 C 0.06428 0.51966 0.12975 0.0
C2501 C 0.053 0.52516 0.10781 0.0
C2502 C 0.03327 0.45531 0.13211 0.0
C2503 C 0.08327 0.53819 0.14392 0.0
H2504 H 0.0733 0.49831 0.2225 0.0
H2505 H 0.1262 0.47652 0.17791 0.0
H2506 H 0.04182 0.52257 0.1808 0.0
H2507 H 0.02586 0.49298 0.1743 0.0
H2508 H 0.03574 0.50437 0.20569 0.0
H2509 H 0.11842 0.46769 0.13496 0.0
H2510 H 0.08822 0.46488 0.1211 0.0
H2511 H 0.10711 0.49319 0.12421 0.0
H2512 H 0.01534 0.47316 0.09152 0.0
H2513 H 0.05822 0.54245 0.10123 0.0
H2514 H 0.02938 0.45622 0.15166 0.0
H2515 H 0.04848 0.44543 0.13059 0.0
H2516 H 0.01752 0.44509 0.12069 0.0
H2517 H 0.07934 0.54081 0.16337 0.0
H2518 H 0.08475 0.55563 0.13599 0.0
H2519 H 0.10079 0.53202 0.14388 0.0
C2520 C 0.78973 0.84539 0.46719 0.0
C2521 C 0.77012 0.85612 0.47313 0.0
C2522 C 0.79078 0.83468 0.44337 0.0
C2523 C 0.77173 0.83464 0.42514 0.0
C2524 C 0.75163 0.8449 0.43128 0.0
C2525 C 0.75109 0.85555 0.45516 0.0
C2526 C 0.81255 0.82401 0.43751 0.0
C2527 C 0.73087 0.84514 0.41243 0.0
C2528 C 0.77937 0.83302 0.35697 0.0
C2529 C 0.76904 0.80961 0.34869 0.0
C2530 C 0.78183 0.84093 0.38208 0.0
C2531 C 0.77317 0.8252 0.39925 0.0
C2532 C 0.76374 0.80119 0.39109 0.0
C2533 C 0.76202 0.79359 0.36586 0.0
C2534 C 0.79252 0.8665 0.39003 0.0
C2535 C 0.75404 0.78395 0.40875 0.0
H2536 H 0.80449 0.84576 0.48103 0.0
H2537 H 0.73585 0.86373 0.45965 0.0
H2538 H 0.80727 0.80542 0.42917 0.0
H2539 H 0.82201 0.83422 0.42381 0.0
H2540 H 0.82511 0.82408 0.45409 0.0
H2541 H 0.71601 0.85258 0.42051 0.0
H2542 H 0.73681 0.85599 0.39746 0.0
H2543 H 0.72404 0.82682 0.40399 0.0
H2544 H 0.78498 0.84537 0.3437 0.0
H2545 H 0.75385 0.77552 0.35945 0.0
H2546 H 0.80614 0.86747 0.40585 0.0
H2547 H 0.77842 0.8764 0.39616 0.0
H2548 H 0.8009 0.87557 0.37493 0.0
H2549 H 0.76693 0.78454 0.42512 0.0
H2550 H 0.74987 0.76537 0.40005 0.0
H2551 H 0.73749 0.78914 0.41531 0.0
C2552 C 0.44924 0.53162 0.83209 0.0
C2553 C 0.42729 0.51709 0.8249 0.0
C2554 C 0.45979 0.53297 0.85632 0.0
C2555 C 0.4481 0.51946 0.87371 0.0
C2556 C 0.42623 0.50433 0.86637 0.0
C2557 C 0.41607 0.50335 0.84206 0.0
C2558 C 0.48308 0.54939 0.86348 0.0
C2559 C 0.41322 0.48965 0.88438 0.0
C2560 C 0.48254 0.51115 0.93405 0.0
C2561 C 0.47503 0.52821 0.95018 0.0
C2562 C 0.47391 0.508 0.90904 0.0
C2563 C 0.45775 0.52254 0.9 0.0
C2564 C 0.45042 0.53998 0.91619 0.0
C2565 C 0.459 0.54247 0.94108 0.0
C2566 C 0.48191 0.48905 0.89233 0.0
C2567 C 0.43347 0.55607 0.90724 0.0
H2568 H 0.45803 0.5422 0.81886 0.0
H2569 H 0.39916 0.492 0.83657 0.0
H2570 H 0.48037 0.56386 0.87719 0.0
H2571 H 0.49631 0.53954 0.87226 0.0
H2572 H 0.49062 0.55752 0.84745 0.0
H2573 H 0.39727 0.47754 0.87536 0.0
H2574 H 0.42527 0.47885 0.8936 0.0
H2575 H 0.40745 0.5016 0.8989 0.0
H2576 H 0.49491 0.50007 0.94103 0.0
H2577 H 0.45331 0.55588 0.95338 0.0
H2578 H 0.49052 0.49717 0.87688 0.0
H2579 H 0.46625 0.47604 0.88421 0.0
H2580 H 0.49464 0.47932 0.90218 0.0
H2581 H 0.44088 0.566 0.89223 0.0
H2582 H 0.42997 0.56911 0.92212 0.0
H2583 H 0.41627 0.54526 0.89958 0.0
C2584 C 0.78928 0.17655 0.1224 0.0
C2585 C 0.79917 0.18194 0.10051 0.0
C2586 C 0.79009 0.19416 0.14191 0.0
C2587 C 0.80131 0.21767 0.13957 0.0
C2588 C 0.81237 0.22297 0.11798 0.0
C2589 C 0.81103 0.20504 0.0986 0.0
C2590 C 0.7781 0.18777 0.16467 0.0
C2591 C 0.82499 0.24769 0.1151 0.0
C2592 C 0.77753 0.26402 0.1798 0.0
C2593 C 0.79324 0.26599 0.20107 0.0
C2594 C 0.78073 0.24933 0.15895 0.0
C2595 C 0.80033 0.23673 0.15939 0.0
C2596 C 0.81733 0.24037 0.18013 0.0
C2597 C 0.81347 0.25487 0.20081 0.0
C2598 C 0.7621 0.2458 0.13726 0.0
C2599 C 0.83875 0.22775 0.18118 0.0
H2600 H 0.78011 0.15873 0.12398 0.0
H2601 H 0.81879 0.20926 0.08172 0.0
H2602 H 0.79102 0.19219 0.18122 0.0
H2603 H 0.76355 0.19837 0.16713 0.0
H2604 H 0.77049 0.16858 0.16373 0.0
H2605 H 0.83458 0.24834 0.09822 0.0
H2606 H 0.81187 0.26015 0.11414 0.0
H2607 H 0.83792 0.25417 0.1313 0.0
H2608 H 0.76184 0.2726 0.18007 0.0
H2609 H 0.82591 0.25695 0.21709 0.0
H2610 H 0.75198 0.22747 0.13609 0.0
H2611 H 0.7706 0.24776 0.11985 0.0
H2612 H 0.74934 0.25862 0.13876 0.0
H2613 H 0.83305 0.2088 0.18416 0.0
H2614 H 0.85231 0.23577 0.19641 0.0
H2615 H 0.84712 0.22818 0.16358 0.0
C2616 C 0.10818 0.49911 0.34404 0.0
C2617 C 0.10494 0.50912 0.32174 0.0
C2618 C 0.09186 0.50033 0.36176 0.0
C2619 C 0.07166 0.51148 0.35679 0.0
C2620 C 0.06828 0.52158 0.33427 0.0
C2621 C 0.08509 0.52044 0.31706 0.0
C2622 C 0.09623 0.48972 0.3858 0.0
C2623 C 0.04682 0.53334 0.32825 0.0
C2624 C 0.02182 0.49332 0.39655 0.0
C2625 C 0.02614 0.51193 0.4154 0.0
C2626 C 0.03562 0.49362 0.37644 0.0
C2627 C 0.05434 0.51279 0.37547 0.0
C2628 C 0.05777 0.53233 0.39361 0.0
C2629 C 0.04346 0.53177 0.41324 0.0
C2630 C 0.03107 0.47276 0.35704 0.0
C2631 C 0.07766 0.55303 0.39331 0.0
H2632 H 0.12353 0.49038 0.34768 0.0
H2633 H 0.08245 0.52804 0.29972 0.0
H2634 H 0.09713 0.50355 0.4014 0.0
H2635 H 0.08123 0.47547 0.38807 0.0
H2636 H 0.11302 0.48207 0.38695 0.0
H2637 H 0.04673 0.54014 0.30979 0.0
H2638 H 0.03027 0.52046 0.32888 0.0
H2639 H 0.04639 0.54841 0.3422 0.0
H2640 H 0.00833 0.47804 0.39801 0.0
H2641 H 0.04691 0.5463 0.42768 0.0
H2642 H 0.04582 0.4622 0.35876 0.0
H2643 H 0.03058 0.47906 0.33837 0.0
H2644 H 0.01407 0.46087 0.35874 0.0
H2645 H 0.09506 0.54691 0.3969 0.0
H2646 H 0.07651 0.56779 0.40743 0.0
H2647 H 0.07741 0.56004 0.37499 0.0
C2648 C 0.76232 0.82424 0.59561 0.0
C2649 C 0.7591 0.84811 0.5991 0.0
C2650 C 0.76086 0.80952 0.61503 0.0
C2651 C 0.7558 0.81884 0.63843 0.0
C2652 C 0.75169 0.84269 0.6418 0.0
C2653 C 0.75353 0.85707 0.62214 0.0
C2654 C 0.76561 0.78429 0.61076 0.0
C2655 C 0.74601 0.85324 0.66638 0.0
C2656 C 0.73698 0.77752 0.68732 0.0
C2657 C 0.75806 0.78016 0.70292 0.0
C2658 C 0.73597 0.78972 0.66598 0.0
C2659 C 0.75669 0.80437 0.65991 0.0
C2660 C 0.77827 0.80612 0.67509 0.0
C2661 C 0.77858 0.79428 0.69655 0.0
C2662 C 0.71257 0.78769 0.65047 0.0
C2663 C 0.80093 0.82102 0.66904 0.0
H2664 H 0.7666 0.8172 0.57784 0.0
H2665 H 0.75086 0.87546 0.62491 0.0
H2666 H 0.78212 0.78226 0.62198 0.0
H2667 H 0.75087 0.77164 0.61673 0.0
H2668 H 0.76771 0.77925 0.59114 0.0
H2669 H 0.74134 0.87136 0.66544 0.0
H2670 H 0.73096 0.84163 0.67319 0.0
H2671 H 0.76161 0.85433 0.6801 0.0
H2672 H 0.72106 0.76674 0.69235 0.0
H2673 H 0.79497 0.79618 0.70851 0.0
H2674 H 0.71478 0.78244 0.63096 0.0
H2675 H 0.7065 0.80528 0.65115 0.0
H2676 H 0.69848 0.77452 0.65683 0.0
H2677 H 0.80453 0.81613 0.64985 0.0
H2678 H 0.81659 0.81884 0.68156 0.0
H2679 H 0.79891 0.84009 0.67047 0.0
C2680 C 0.68791 0.41845 0.52718 0.0
C2681 C 0.712 0.42819 0.52751 0.0
C2682 C 0.67076 0.43303 0.53172 0.0
C2683 C 0.67787 0.45797 0.53644 0.0
C2684 C 0.70229 0.46779 0.53786 0.0
C2685 C 0.7191 0.45274 0.53343 0.0
C2686 C 0.64489 0.42183 0.53032 0.0
C2687 C 0.71054 0.49427 0.54281 0.0
C2688 C 0.62894 0.49063 0.51384 0.0
C2689 C 0.61813 0.49511 0.5354 0.0
C2690 C 0.64958 0.4802 0.51428 0.0
C2691 C 0.65939 0.47371 0.53685 0.0
C2692 C 0.64953 0.47984 0.559 0.0
C2693 C 0.62894 0.49065 0.55803 0.0
C2694 C 0.6597 0.47439 0.49027 0.0
C2695 C 0.65949 0.47322 0.58341 0.0
H2696 H 0.68238 0.39945 0.52288 0.0
H2697 H 0.73775 0.46035 0.53385 0.0
H2698 H 0.63665 0.42802 0.54683 0.0
H2699 H 0.63504 0.42737 0.51402 0.0
H2700 H 0.64257 0.40207 0.52885 0.0
H2701 H 0.7302 0.49873 0.54648 0.0
H2702 H 0.7049 0.50328 0.52661 0.0
H2703 H 0.70221 0.50157 0.55875 0.0
H2704 H 0.62047 0.49416 0.49635 0.0
H2705 H 0.62032 0.49387 0.57465 0.0
H2706 H 0.65619 0.45485 0.48544 0.0
H2707 H 0.67928 0.48006 0.49201 0.0
H2708 H 0.65173 0.48308 0.4749 0.0
H2709 H 0.65425 0.45382 0.58447 0.0
H2710 H 0.6527 0.48284 0.59911 0.0
H2711 H 0.67922 0.47709 0.58529 0.0
C2712 C 0.19058 0.0843 0.48051 0.0
C2713 C 0.2046 0.0915 0.50281 0.0
C2714 C 0.16763 0.07106 0.48005 0.0
C2715 C 0.15844 0.06506 0.50243 0.0
C2716 C 0.17289 0.07153 0.5249 0.0
C2717 C 0.1958 0.08461 0.5248 0.0
C2718 C 0.15284 0.06436 0.45572 0.0
C2719 C 0.16377 0.06558 0.54918 0.0
C2720 C 0.09204 0.05888 0.50812 0.0
C2721 C 0.08535 0.03415 0.50762 0.0
C2722 C 0.11557 0.06902 0.5056 0.0
C2723 C 0.13303 0.05411 0.50275 0.0
C2724 C 0.12632 0.02907 0.50157 0.0
C2725 C 0.10248 0.01934 0.50388 0.0
C2726 C 0.12186 0.0958 0.50668 0.0
C2727 C 0.14445 0.01261 0.49864 0.0
H2728 H 0.19733 0.08946 0.46344 0.0
H2729 H 0.20655 0.09006 0.5421 0.0
H2730 H 0.1452 0.04517 0.45391 0.0
H2731 H 0.13773 0.07449 0.45482 0.0
H2732 H 0.16337 0.06814 0.43986 0.0
H2733 H 0.17784 0.07018 0.56476 0.0
H2734 H 0.14896 0.07551 0.55288 0.0
H2735 H 0.15658 0.04634 0.54849 0.0
H2736 H 0.07884 0.07043 0.51072 0.0
H2737 H 0.09742 0.00022 0.50355 0.0
H2738 H 0.13092 0.10101 0.49029 0.0
H2739 H 0.13442 0.10245 0.52313 0.0
H2740 H 0.10594 0.10478 0.50758 0.0
H2741 H 0.15451 0.01668 0.48256 0.0
H2742 H 0.13611 0.99358 0.49624 0.0
H2743 H 0.15751 0.01542 0.51513 0.0
C2744 C 0.17432 0.94099 0.77333 0.0
C2745 C 0.18526 0.96285 0.78561 0.0
C2746 C 0.18634 0.9213 0.77201 0.0
C2747 C 0.20992 0.92355 0.78317 0.0
C2748 C 0.22124 0.94571 0.7952 0.0
C2749 C 0.20874 0.9651 0.79632 0.0
C2750 C 0.17361 0.89794 0.7591 0.0
C2751 C 0.24638 0.94881 0.80723 0.0
C2752 C 0.22899 0.86587 0.80081 0.0
C2753 C 0.24149 0.85959 0.78087 0.0
C2754 C 0.21933 0.88704 0.80218 0.0
C2755 C 0.22221 0.90234 0.78314 0.0
C2756 C 0.2356 0.89658 0.76344 0.0
C2757 C 0.24513 0.87525 0.76255 0.0
C2758 C 0.20531 0.89259 0.82359 0.0
C2759 C 0.2391 0.9125 0.74284 0.0
H2760 H 0.15618 0.93914 0.76499 0.0
H2761 H 0.21731 0.98199 0.80577 0.0
H2762 H 0.18417 0.89162 0.74449 0.0
H2763 H 0.17178 0.88421 0.77239 0.0
H2764 H 0.15559 0.89936 0.75065 0.0
H2765 H 0.25304 0.96747 0.81479 0.0
H2766 H 0.24718 0.9371 0.82242 0.0
H2767 H 0.25852 0.94339 0.79375 0.0
H2768 H 0.22628 0.85397 0.81518 0.0
H2769 H 0.25477 0.87052 0.7471 0.0
H2770 H 0.18643 0.89245 0.81684 0.0
H2771 H 0.21229 0.91065 0.8326 0.0
H2772 H 0.20591 0.87956 0.83759 0.0
H2773 H 0.2217 0.91277 0.73237 0.0
H2774 H 0.25148 0.90647 0.7299 0.0
H2775 H 0.24618 0.93105 0.75041 0.0
C2776 C 0.32816 0.9255 0.97957 0.0
C2777 C 0.31948 0.92351 0.00269 0.0
C2778 C 0.35189 0.93559 0.97757 0.0
C2779 C 0.36713 0.94373 0.9992 0.0
C2780 C 0.35806 0.94282 0.02249 0.0
C2781 C 0.33434 0.93273 0.02394 0.0
C2782 C 0.36092 0.93651 0.95244 0.0
C2783 C 0.37371 0.95144 0.04601 0.0
C2784 C 0.43315 0.94202 0.00458 0.0
C2785 C 0.44254 0.9663 0.00636 0.0
C2786 C 0.40857 0.93427 0.00038 0.0
C2787 C 0.39304 0.95125 0.99803 0.0
C2788 C 0.40253 0.97564 0.99797 0.0
C2789 C 0.42724 0.9829 0.0021 0.0
C2790 C 0.39915 0.90806 0.00029 0.0
C2791 C 0.38654 0.99424 0.99535 0.0
H2792 H 0.31667 0.91847 0.9631 0.0
H2793 H 0.32765 0.9314 0.04184 0.0
H2794 H 0.37119 0.95432 0.95059 0.0
H2795 H 0.37315 0.92332 0.95 0.0
H2796 H 0.3462 0.93249 0.93746 0.0
H2797 H 0.3635 0.95095 0.06247 0.0
H2798 H 0.38775 0.9401 0.04841 0.0
H2799 H 0.38278 0.96993 0.04512 0.0
H2800 H 0.44493 0.92909 0.00751 0.0
H2801 H 0.43441 0.00171 0.00333 0.0
H2802 H 0.38569 0.90206 0.98442 0.0
H2803 H 0.39023 0.90488 0.01729 0.0
H2804 H 0.41353 0.89698 0.99943 0.0
H2805 H 0.37209 0.98835 0.98039 0.0
H2806 H 0.39657 0.01162 0.99152 0.0
H2807 H 0.37804 0.99692 0.01267 0.0
C2808 C 0.83886 0.58635 0.78948 0.0
C2809 C 0.85326 0.58026 0.77117 0.0
C2810 C 0.82227 0.6017 0.78525 0.0
C2811 C 0.81994 0.61096 0.7621 0.0
C2812 C 0.83418 0.60456 0.74342 0.0
C2813 C 0.85077 0.58935 0.74823 0.0
C2814 C 0.80763 0.60844 0.80573 0.0
C2815 C 0.83214 0.61407 0.7185 0.0
C2816 C 0.76458 0.6384 0.74624 0.0
C2817 C 0.77368 0.66261 0.75099 0.0
C2818 C 0.77958 0.62124 0.74924 0.0
C2819 C 0.80385 0.62866 0.75801 0.0
C2820 C 0.81289 0.65318 0.76315 0.0
C2821 C 0.79774 0.66985 0.75928 0.0
C2822 C 0.76955 0.59524 0.74303 0.0
C2823 C 0.83846 0.66184 0.77315 0.0
H2824 H 0.84069 0.57928 0.80721 0.0
H2825 H 0.86177 0.58456 0.73397 0.0
H2826 H 0.81176 0.62792 0.81089 0.0
H2827 H 0.78838 0.60421 0.79942 0.0
H2828 H 0.81102 0.59908 0.82237 0.0
H2829 H 0.84338 0.60615 0.70548 0.0
H2830 H 0.81335 0.61041 0.71043 0.0
H2831 H 0.83765 0.63367 0.72047 0.0
H2832 H 0.7459 0.63297 0.73997 0.0
H2833 H 0.80457 0.68867 0.7634 0.0
H2834 H 0.77109 0.58551 0.75969 0.0
H2835 H 0.77999 0.58725 0.72925 0.0
H2836 H 0.75056 0.59249 0.73558 0.0
H2837 H 0.84217 0.65432 0.79087 0.0
H2838 H 0.84258 0.68157 0.77622 0.0
H2839 H 0.85071 0.65561 0.76024 0.0
C2840 C 0.8191 0.57196 0.01177 0.0
C2841 C 0.82284 0.5962 0.00796 0.0
C2842 C 0.83824 0.55911 0.01351 0.0
C2843 C 0.8617 0.57094 0.01198 0.0
C2844 C 0.86558 0.59556 0.0087 0.0
C2845 C 0.84608 0.60781 0.00643 0.0
C2846 C 0.83333 0.5328 0.01648 0.0
C2847 C 0.89034 0.60897 0.00744 0.0
C2848 C 0.916 0.54514 0.03568 0.0
C2849 C 0.92445 0.53732 0.01361 0.0
C2850 C 0.89511 0.55545 0.03554 0.0
C2851 C 0.88221 0.55757 0.01282 0.0
C2852 C 0.88999 0.54844 0.99061 0.0
C2853 C 0.91111 0.53864 0.99127 0.0
C2854 C 0.88761 0.56527 0.05958 0.0
C2855 C 0.87656 0.54992 0.96603 0.0
H2856 H 0.80113 0.56292 0.01291 0.0
H2857 H 0.84907 0.62661 0.00371 0.0
H2858 H 0.83918 0.52269 0.00055 0.0
H2859 H 0.84368 0.52877 0.03321 0.0
H2860 H 0.81415 0.52633 0.01784 0.0
H2861 H 0.89044 0.62832 0.00622 0.0
H2862 H 0.90202 0.6066 0.02395 0.0
H2863 H 0.8982 0.60174 0.99114 0.0
H2864 H 0.92636 0.54435 0.05298 0.0
H2865 H 0.9175 0.53249 0.97416 0.0
H2866 H 0.86855 0.5586 0.06116 0.0
H2867 H 0.88968 0.58496 0.06018 0.0
H2868 H 0.89836 0.5605 0.07572 0.0
H2869 H 0.8574 0.54282 0.96645 0.0
H2870 H 0.88361 0.53991 0.95077 0.0
H2871 H 0.87788 0.5688 0.96203 0.0
C2872 C 0.18656 0.10491 0.81127 0.0
C2873 C 0.1922 0.0852 0.79735 0.0
C2874 C 0.1992 0.12783 0.81 0.0
C2875 C 0.21794 0.13106 0.79451 0.0
C2876 C 0.22443 0.11106 0.78133 0.0
C2877 C 0.21145 0.08836 0.78288 0.0
C2878 C 0.19173 0.14873 0.82433 0.0
C2879 C 0.24432 0.11376 0.76463 0.0
C2880 C 0.2288 0.19051 0.76757 0.0
C2881 C 0.24898 0.20242 0.7823 0.0
C2882 C 0.21878 0.16723 0.77121 0.0
C2883 C 0.22908 0.15551 0.79017 0.0
C2884 C 0.24963 0.16728 0.80496 0.0
C2885 C 0.25941 0.19061 0.80079 0.0
C2886 C 0.19698 0.15526 0.7549 0.0
C2887 C 0.26102 0.15535 0.8254 0.0
H2888 H 0.17174 0.10257 0.82253 0.0
H2889 H 0.21596 0.07316 0.77217 0.0
H2890 H 0.20742 0.15989 0.83492 0.0
H2891 H 0.18389 0.16008 0.8114 0.0
H2892 H 0.17838 0.14302 0.83727 0.0
H2893 H 0.24868 0.09631 0.75758 0.0
H2894 H 0.23906 0.12332 0.7487 0.0
H2895 H 0.26061 0.12458 0.77449 0.0
H2896 H 0.22068 0.19943 0.75314 0.0
H2897 H 0.27496 0.19973 0.81228 0.0
H2898 H 0.18189 0.15081 0.7662 0.0
H2899 H 0.20046 0.13832 0.74561 0.0
H2900 H 0.19149 0.16664 0.74062 0.0
H2901 H 0.24814 0.1512 0.83922 0.0
H2902 H 0.27729 0.16665 0.83481 0.0
H2903 H 0.2658 0.13823 0.81801 0.0
C2904 C 0.33894 0.96069 0.29166 0.0
C2905 C 0.36373 0.96475 0.29704 0.0
C2906 C 0.32572 0.93796 0.29231 0.0
C2907 C 0.3376 0.91894 0.29865 0.0
C2908 C 0.36247 0.92321 0.30522 0.0
C2909 C 0.37527 0.94608 0.30425 0.0
C2910 C 0.29922 0.93406 0.28511 0.0
C2911 C 0.37573 0.90341 0.31227 0.0
C2912 C 0.30189 0.86107 0.31411 0.0
C2913 C 0.30066 0.84681 0.29184 0.0
C2914 C 0.3137 0.88471 0.31661 0.0
C2915 C 0.32442 0.89424 0.29634 0.0
C2916 C 0.32295 0.88003 0.27374 0.0
C2917 C 0.31112 0.85651 0.27178 0.0
C2918 C 0.31495 0.89938 0.34097 0.0
C2919 C 0.33407 0.8896 0.25165 0.0
H2920 H 0.32994 0.97509 0.2861 0.0
H2921 H 0.39442 0.94919 0.30857 0.0
H2922 H 0.29513 0.92254 0.26754 0.0
H2923 H 0.28949 0.92473 0.29921 0.0
H2924 H 0.29239 0.95103 0.28273 0.0
H2925 H 0.39463 0.91009 0.31897 0.0
H2926 H 0.36701 0.89382 0.32683 0.0
H2927 H 0.37525 0.89032 0.29609 0.0
H2928 H 0.29387 0.85371 0.3297 0.0
H2929 H 0.31016 0.84568 0.25445 0.0
H2930 H 0.30736 0.91589 0.33842 0.0
H2931 H 0.33381 0.90485 0.34843 0.0
H2932 H 0.3052 0.88952 0.35476 0.0
H2933 H 0.32683 0.9058 0.24691 0.0
H2934 H 0.33083 0.87639 0.23525 0.0
H2935 H 0.35358 0.89479 0.25604 0.0
C2936 C 0.51274 0.35027 0.62131 0.0
C2937 C 0.52677 0.33352 0.61342 0.0
C2938 C 0.51355 0.37202 0.61091 0.0
C2939 C 0.52887 0.37718 0.59227 0.0
C2940 C 0.54226 0.35989 0.58343 0.0
C2941 C 0.54102 0.3382 0.59411 0.0
C2942 C 0.49892 0.38996 0.62076 0.0
C2943 C 0.55884 0.36478 0.56363 0.0
C2944 C 0.52306 0.43127 0.55703 0.0
C2945 C 0.54037 0.44858 0.57043 0.0
C2946 C 0.51907 0.40782 0.56381 0.0
C2947 C 0.53296 0.40162 0.5842 0.0
C2948 C 0.55067 0.419 0.59751 0.0
C2949 C 0.55402 0.44225 0.59057 0.0
C2950 C 0.49986 0.38979 0.5494 0.0
C2951 C 0.56605 0.41307 0.6192 0.0
H2952 H 0.50154 0.34666 0.63611 0.0
H2953 H 0.55181 0.32525 0.58787 0.0
H2954 H 0.51089 0.40527 0.63111 0.0
H2955 H 0.48904 0.39699 0.60543 0.0
H2956 H 0.48598 0.38225 0.63324 0.0
H2957 H 0.56601 0.34864 0.55697 0.0
H2958 H 0.54954 0.3716 0.54777 0.0
H2959 H 0.57402 0.37875 0.57095 0.0
H2960 H 0.51245 0.43612 0.54149 0.0
H2961 H 0.56761 0.45548 0.60086 0.0
H2962 H 0.48626 0.38315 0.56167 0.0
H2963 H 0.50755 0.37423 0.54214 0.0
H2964 H 0.49092 0.39733 0.53376 0.0
H2965 H 0.55475 0.40711 0.63382 0.0
H2966 H 0.57949 0.42849 0.62712 0.0
H2967 H 0.57549 0.3982 0.61353 0.0
C2968 C 0.42684 0.7515 0.37549 0.0
C2969 C 0.44696 0.74904 0.36297 0.0
C2970 C 0.40474 0.75225 0.36261 0.0
C2971 C 0.40272 0.75057 0.33657 0.0
C2972 C 0.42284 0.74753 0.32381 0.0
C2973 C 0.44473 0.74678 0.33717 0.0
C2974 C 0.38368 0.75538 0.37691 0.0
C2975 C 0.4214 0.74575 0.29606 0.0
C2976 C 0.34036 0.73595 0.30346 0.0
C2977 C 0.33516 0.75875 0.3003 0.0
C2978 C 0.36246 0.73292 0.31501 0.0
C2979 C 0.37982 0.75318 0.32283 0.0
C2980 C 0.37486 0.77619 0.31864 0.0
C2981 C 0.35237 0.77871 0.30782 0.0
C2982 C 0.36682 0.70819 0.31976 0.0
C2983 C 0.39306 0.79819 0.32614 0.0
H2984 H 0.42843 0.75322 0.39543 0.0
H2985 H 0.46022 0.74484 0.32739 0.0
H2986 H 0.37787 0.77263 0.37359 0.0
H2987 H 0.36844 0.74114 0.37055 0.0
H2988 H 0.38785 0.755 0.39702 0.0
H2989 H 0.43837 0.74237 0.2889 0.0
H2990 H 0.40699 0.73122 0.28822 0.0
H2991 H 0.41693 0.76254 0.28941 0.0
H2992 H 0.32677 0.7206 0.29792 0.0
H2993 H 0.34814 0.79632 0.30537 0.0
H2994 H 0.36904 0.70679 0.33989 0.0
H2995 H 0.38353 0.70458 0.31225 0.0
H2996 H 0.35196 0.69425 0.31152 0.0
H2997 H 0.39659 0.80058 0.34646 0.0
H2998 H 0.38708 0.81452 0.3198 0.0
H2999 H 0.41016 0.7962 0.31848 0.0
C3000 C 0.01264 0.7053 0.08746 0.0
C3001 C 0.03318 0.71535 0.10269 0.0
C3002 C 0.00985 0.6817 0.07696 0.0
C3003 C 0.02803 0.66791 0.08186 0.0
C3004 C 0.04953 0.67856 0.09569 0.0
C3005 C 0.05185 0.70218 0.10596 0.0
C3006 C 0.98672 0.67104 0.06216 0.0
C3007 C 0.06941 0.66452 0.10117 0.0
C3008 C 0.0069 0.60241 0.08664 0.0
C3009 C 0.01171 0.59203 0.06391 0.0
C3010 C 0.01247 0.62702 0.09273 0.0
C3011 C 0.02315 0.6417 0.07567 0.0
C3012 C 0.02853 0.63134 0.05286 0.0
C3013 C 0.02276 0.60657 0.04723 0.0
C3014 C 0.00653 0.63734 0.11732 0.0
C3015 C 0.03996 0.64646 0.03426 0.0
H3016 H 0.99823 0.71546 0.08472 0.0
H3017 H 0.06786 0.70994 0.11756 0.0
H3018 H 0.99014 0.66093 0.04502 0.0
H3019 H 0.97619 0.65834 0.07302 0.0
H3020 H 0.97582 0.68482 0.05723 0.0
H3021 H 0.08614 0.67618 0.10894 0.0
H3022 H 0.06402 0.65167 0.11468 0.0
H3023 H 0.07299 0.6541 0.0843 0.0
H3024 H 0.99848 0.59132 0.09969 0.0
H3025 H 0.02651 0.59865 0.02962 0.0
H3026 H 0.99366 0.64984 0.11449 0.0
H3027 H 0.02281 0.64762 0.12775 0.0
H3028 H 0.99872 0.62341 0.12871 0.0
H3029 H 0.02783 0.65868 0.02798 0.0
H3030 H 0.04415 0.63556 0.01795 0.0
H3031 H 0.05662 0.65766 0.04282 0.0
C3032 C 0.06731 0.25417 0.83221 0.0
C3033 C 0.07091 0.2585 0.8579 0.0
C3034 C 0.08672 0.25489 0.81785 0.0
C3035 C 0.1102 0.25992 0.82952 0.0
C3036 C 0.11388 0.26457 0.85543 0.0
C3037 C 0.0942 0.26384 0.86928 0.0
C3038 C 0.08214 0.24993 0.79027 0.0
C3039 C 0.13864 0.26988 0.86861 0.0
C3040 C 0.16222 0.23756 0.80186 0.0
C3041 C 0.17489 0.25855 0.7947 0.0
C3042 C 0.1404 0.2375 0.8119 0.0
C3043 C 0.13107 0.25902 0.81503 0.0
C3044 C 0.14309 0.28 0.80653 0.0
C3045 C 0.16488 0.2795 0.79633 0.0
C3046 C 0.12807 0.21469 0.8205 0.0
C3047 C 0.13367 0.30327 0.80956 0.0
H3048 H 0.04932 0.25018 0.82332 0.0
H3049 H 0.09709 0.26726 0.88912 0.0
H3050 H 0.09169 0.26472 0.78111 0.0
H3051 H 0.08913 0.23354 0.78419 0.0
H3052 H 0.06288 0.24759 0.78392 0.0
H3053 H 0.13844 0.27398 0.88875 0.0
H3054 H 0.14796 0.25435 0.86546 0.0
H3055 H 0.14919 0.28522 0.86115 0.0
H3056 H 0.16977 0.22124 0.80037 0.0
H3057 H 0.17465 0.29577 0.79086 0.0
H3058 H 0.109 0.21127 0.81339 0.0
H3059 H 0.12886 0.21635 0.84089 0.0
H3060 H 0.13639 0.19907 0.81452 0.0
H3061 H 0.11447 0.30076 0.80306 0.0
H3062 H 0.14344 0.31716 0.79938 0.0
H3063 H 0.13546 0.30979 0.82935 0.0
C3064 C 0.51206 0.69463 0.9372 0.0
C3065 C 0.5292 0.71451 0.94552 0.0
C3066 C 0.51028 0.6739 0.94952 0.0
C3067 C 0.52592 0.67316 0.97074 0.0
C3068 C 0.54241 0.69362 0.97996 0.0
C3069 C 0.54394 0.71406 0.96714 0.0
C3070 C 0.49258 0.65237 0.93901 0.0
C3071 C 0.55923 0.69355 0.00265 0.0
C3072 C 0.51258 0.61992 0.00796 0.0
C3073 C 0.52735 0.60478 0.99817 0.0
C3074 C 0.51235 0.64264 -0.00024 0.0
C3075 C 0.52707 0.65014 0.98128 0.0
C3076 C 0.54244 0.63514 0.97187 0.0
C3077 C 0.54248 0.61275 0.98052 0.0
C3078 C 0.49597 0.65836 0.0104 0.0
C3079 C 0.55836 0.6424 0.95205 0.0
H3080 H 0.50053 0.69497 0.92056 0.0
H3081 H 0.55707 0.72949 0.97377 0.0
H3082 H 0.50225 0.63826 0.93175 0.0
H3083 H 0.48198 0.64499 0.95357 0.0
H3084 H 0.48019 0.65656 0.92387 0.0
H3085 H 0.56876 0.71167 0.0092 0.0
H3086 H 0.54942 0.68614 0.01774 0.0
H3087 H 0.57265 0.68198 0.99853 0.0
H3088 H 0.50089 0.61388 0.02164 0.0
H3089 H 0.55407 0.60125 0.97292 0.0
H3090 H 0.48209 0.66089 0.99591 0.0
H3091 H 0.50608 0.67622 0.01691 0.0
H3092 H 0.48705 0.65071 0.02595 0.0
H3093 H 0.54733 0.64509 0.9352 0.0
H3094 H 0.56975 0.62889 0.94722 0.0
H3095 H 0.57006 0.65955 0.95813 0.0
C3096 C 0.08219 0.77031 0.71136 0.0
C3097 C 0.07213 0.75054 0.69507 0.0
C3098 C 0.10604 0.77303 0.72109 0.0
C3099 C 0.12008 0.75557 0.7143 0.0
C3100 C 0.10944 0.73466 0.69947 0.0
C3101 C 0.08555 0.73239 0.69002 0.0
C3102 C 0.11667 0.79551 0.73703 0.0
C3103 C 0.12375 0.71557 0.69194 0.0
C3104 C 0.18462 0.77931 0.70752 0.0
C3105 C 0.19617 0.77375 0.72936 0.0
C3106 C 0.15994 0.77312 0.70234 0.0
C3107 C 0.1464 0.76095 0.71939 0.0
C3108 C 0.15796 0.75469 0.74121 0.0
C3109 C 0.18278 0.76121 0.74597 0.0
C3110 C 0.14831 0.7801 0.67881 0.0
C3111 C 0.14407 0.74161 0.75971 0.0
H3112 H 0.07182 0.7843 0.71549 0.0
H3113 H 0.07779 0.71695 0.67759 0.0
H3114 H 0.12764 0.79133 0.75327 0.0
H3115 H 0.12855 0.80717 0.72634 0.0
H3116 H 0.10278 0.80556 0.7435 0.0
H3117 H 0.11218 0.69892 0.6838 0.0
H3118 H 0.13575 0.72205 0.67808 0.0
H3119 H 0.13508 0.71142 0.70793 0.0
H3120 H 0.19481 0.78892 0.69452 0.0
H3121 H 0.1916 0.75686 0.7629 0.0
H3122 H 0.13558 0.79236 0.68318 0.0
H3123 H 0.13805 0.76412 0.66787 0.0
H3124 H 0.16148 0.78903 0.66725 0.0
H3125 H 0.13188 0.75293 0.76762 0.0
H3126 H 0.15587 0.73671 0.77496 0.0
H3127 H 0.13289 0.72518 0.75058 0.0
C3128 C 0.0576 0.35991 0.44486 0.0
C3129 C 0.04422 0.33883 0.45092 0.0
C3130 C 0.05553 0.38198 0.45693 0.0
C3131 C 0.03966 0.38294 0.47546 0.0
C3132 C 0.02706 0.3616 0.48255 0.0
C3133 C 0.02951 0.33975 0.47018 0.0
C3134 C 0.06933 0.40435 0.4489 0.0
C3135 C 0.01 0.36193 0.50224 0.0
C3136 C 0.04384 0.44161 0.51476 0.0
C3137 C 0.02631 0.45214 0.50228 0.0
C3138 C 0.04811 0.41882 0.5066 0.0
C3139 C 0.03449 0.40635 0.48553 0.0
C3140 C 0.01634 0.41662 0.4733 0.0
C3141 C 0.01246 0.43936 0.48183 0.0
C3142 C 0.06758 0.40837 0.5201 0.0
C3143 C 0.00136 0.40386 0.4508 0.0
H3144 H 0.06909 0.35928 0.43005 0.0
H3145 H 0.01917 0.32349 0.47497 0.0
H3146 H 0.05684 0.41468 0.43962 0.0
H3147 H 0.07874 0.41584 0.46509 0.0
H3148 H 0.08261 0.40044 0.436 0.0
H3149 H 0.00362 0.3438 0.50749 0.0
H3150 H 0.01858 0.37323 0.51891 0.0
H3151 H 0.99434 0.36976 0.49548 0.0
H3152 H 0.0546 0.45138 0.53058 0.0
H3153 H 0.99874 0.44725 0.47219 0.0
H3154 H 0.08183 0.4062 0.50784 0.0
H3155 H 0.06048 0.39042 0.52527 0.0
H3156 H 0.0756 0.41972 0.53699 0.0
H3157 H 0.01288 0.40099 0.4358 0.0
H3158 H 0.98737 0.41395 0.44399 0.0
H3159 H 0.99264 0.38608 0.45499 0.0
C3160 C 0.42345 0.25338 0.16931 0.0
C3161 C 0.4448 0.24815 0.18038 0.0
C3162 C 0.40271 0.25115 0.18161 0.0
C3163 C 0.40337 0.24362 0.20566 0.0
C3164 C 0.42506 0.23907 0.21728 0.0
C3165 C 0.44555 0.24131 0.20444 0.0
C3166 C 0.3799 0.25606 0.16851 0.0
C3167 C 0.42645 0.2312 0.24296 0.0
C3168 C 0.34911 0.25279 0.23905 0.0
C3169 C 0.33438 0.23092 0.23239 0.0
C3170 C 0.37228 0.25692 0.23155 0.0
C3171 C 0.3808 0.23859 0.2175 0.0
C3172 C 0.36646 0.21596 0.21235 0.0
C3173 C 0.34334 0.21249 0.21968 0.0
C3174 C 0.38701 0.2813 0.23731 0.0
C3175 C 0.37496 0.19579 0.19782 0.0
H3176 H 0.42278 0.25877 0.15075 0.0
H3177 H 0.46208 0.23743 0.21314 0.0
H3178 H 0.3668 0.23939 0.16535 0.0
H3179 H 0.37192 0.26903 0.18006 0.0
H3180 H 0.38272 0.26317 0.15048 0.0
H3181 H 0.44504 0.23053 0.25024 0.0
H3182 H 0.41872 0.24343 0.25564 0.0
H3183 H 0.41582 0.21322 0.24293 0.0
H3184 H 0.34206 0.26704 0.24882 0.0
H3185 H 0.33197 0.19545 0.21484 0.0
H3186 H 0.38804 0.2905 0.22022 0.0
H3187 H 0.40548 0.27988 0.24429 0.0
H3188 H 0.37928 0.29246 0.25111 0.0
H3189 H 0.37644 0.20012 0.17854 0.0
H3190 H 0.36266 0.17869 0.19764 0.0
H3191 H 0.3929 0.19337 0.20555 0.0
C3192 C 0.58431 0.49648 0.35017 0.0
C3193 C 0.6015 0.51666 0.34933 0.0
C3194 C 0.57128 0.4936 0.37075 0.0
C3195 C 0.57516 0.51164 0.39057 0.0
C3196 C 0.59183 0.5325 0.38929 0.0
C3197 C 0.60505 0.53459 0.36883 0.0
C3198 C 0.55412 0.47086 0.37173 0.0
C3199 C 0.59611 0.55238 0.40979 0.0
C3200 C 0.53113 0.51386 0.43907 0.0
C3201 C 0.54364 0.50597 0.45903 0.0
C3202 C 0.54089 0.51535 0.41634 0.0
C3203 C 0.56327 0.50808 0.41349 0.0
C3204 C 0.57526 0.49887 0.43331 0.0
C3205 C 0.56548 0.49836 0.45594 0.0
C3206 C 0.52791 0.5259 0.39587 0.0
C3207 C 0.59886 0.49037 0.43093 0.0
H3208 H 0.58162 0.48256 0.33511 0.0
H3209 H 0.61819 0.55032 0.36807 0.0
H3210 H 0.5605 0.46095 0.38691 0.0
H3211 H 0.53633 0.47491 0.37572 0.0
H3212 H 0.55217 0.45915 0.35427 0.0
H3213 H 0.60794 0.56832 0.4049 0.0
H3214 H 0.57896 0.55768 0.41443 0.0
H3215 H 0.60445 0.54616 0.42657 0.0
H3216 H 0.51437 0.52007 0.44163 0.0
H3217 H 0.57513 0.49221 0.47133 0.0
H3218 H 0.5261 0.51405 0.37856 0.0
H3219 H 0.5384 0.54315 0.3924 0.0
H3220 H 0.50992 0.52899 0.40034 0.0
H3221 H 0.59784 0.47791 0.41414 0.0
H3222 H 0.60447 0.48127 0.44711 0.0
H3223 H 0.61284 0.50574 0.42909 0.0
C3224 C 0.24029 0.82842 0.07794 0.0
C3225 C 0.2602 0.84032 0.0681 0.0
C3226 C 0.24289 0.81719 0.09968 0.0
C3227 C 0.26589 0.8183 0.11196 0.0
C3228 C 0.28612 0.82914 0.10133 0.0
C3229 C 0.28303 0.8399 0.07943 0.0
C3230 C 0.22092 0.80542 0.11027 0.0
C3231 C 0.31091 0.83095 0.11398 0.0
C3232 C 0.26857 0.82212 0.18133 0.0
C3233 C 0.27235 0.79922 0.18631 0.0
C3234 C 0.26682 0.82853 0.15723 0.0
C3235 C 0.26847 0.81148 0.13752 0.0
C3236 C 0.27254 0.78834 0.14238 0.0
C3237 C 0.27467 0.78252 0.16686 0.0
C3238 C 0.263 0.85357 0.15289 0.0
C3239 C 0.27406 0.76966 0.12175 0.0
H3240 H 0.22263 0.82847 0.06906 0.0
H3241 H 0.29851 0.84897 0.0718 0.0
H3242 H 0.2236 0.78782 0.11629 0.0
H3243 H 0.21748 0.81657 0.12671 0.0
H3244 H 0.20492 0.80294 0.09683 0.0
H3245 H 0.32487 0.83719 0.10189 0.0
H3246 H 0.3129 0.8437 0.13067 0.0
H3247 H 0.31399 0.81349 0.12004 0.0
H3248 H 0.26699 0.83514 0.19638 0.0
H3249 H 0.27742 0.76475 0.17073 0.0
H3250 H 0.24575 0.85309 0.14185 0.0
H3251 H 0.27721 0.86208 0.14227 0.0
H3252 H 0.26297 0.86488 0.17034 0.0
H3253 H 0.25694 0.76588 0.10998 0.0
H3254 H 0.27804 0.75277 0.12864 0.0
H3255 H 0.28806 0.77628 0.1099 0.0
C3256 C 0.9461 0.55594 0.86477 0.0
C3257 C 0.95017 0.54236 0.84356 0.0
C3258 C 0.95962 0.55521 0.88715 0.0
C3259 C 0.9778 0.54085 0.88808 0.0
C3260 C 0.98326 0.52875 0.86623 0.0
C3261 C 0.96921 0.52948 0.84423 0.0
C3262 C 0.95314 0.56821 0.91012 0.0
C3263 C 0.00273 0.51355 0.86642 0.0
C3264 C 0.01776 0.54446 0.94766 0.0
C3265 C 0.00585 0.52567 0.95922 0.0
C3266 C 0.00912 0.54951 0.92421 0.0
C3267 C 0.98823 0.53536 0.91223 0.0
C3268 C 0.97666 0.51592 0.92355 0.0
C3269 C 0.98563 0.51131 0.94686 0.0
C3270 C 0.02191 0.57033 0.91259 0.0
C3271 C 0.9544 0.50028 0.91132 0.0
H3272 H 0.93141 0.56595 0.86425 0.0
H3273 H 0.97257 0.51921 0.82773 0.0
H3274 H 0.94421 0.55512 0.92174 0.0
H3275 H 0.96935 0.57793 0.92112 0.0
H3276 H 0.94093 0.58105 0.90583 0.0
H3277 H 0.00728 0.50858 0.84756 0.0
H3278 H 0.01904 0.52298 0.87748 0.0
H3279 H 0.99679 0.49698 0.87505 0.0
H3280 H 0.03336 0.55563 0.95722 0.0
H3281 H 0.97648 0.49661 0.9556 0.0
H3282 H 0.01029 0.58416 0.91098 0.0
H3283 H 0.02581 0.56462 0.8937 0.0
H3284 H 0.03886 0.57845 0.92345 0.0
H3285 H 0.94002 0.51111 0.90832 0.0
H3286 H 0.94789 0.48557 0.92244 0.0
H3287 H 0.95786 0.49243 0.89303 0.0
C3288 C 0.29443 0.18367 0.58881 0.0
C3289 C 0.27364 0.18073 0.5727 0.0
C3290 C 0.29519 0.19468 0.61276 0.0
C3291 C 0.27464 0.2029 0.62082 0.0
C3292 C 0.2539 0.20086 0.6043 0.0
C3293 C 0.25365 0.18979 0.58041 0.0
C3294 C 0.31771 0.19665 0.62976 0.0
C3295 C 0.23166 0.20942 0.61218 0.0
C3296 C 0.2708 0.20304 0.68963 0.0
C3297 C 0.2786 0.22704 0.69775 0.0
C3298 C 0.26833 0.1952 0.66452 0.0
C3299 C 0.27435 0.2117 0.64712 0.0
C3300 C 0.28153 0.23613 0.65517 0.0
C3301 C 0.28334 0.24357 0.68045 0.0
C3302 C 0.2601 0.16909 0.6567 0.0
C3303 C 0.28842 0.2542 0.63725 0.0
H3304 H 0.30997 0.1768 0.58294 0.0
H3305 H 0.23755 0.18764 0.568 0.0
H3306 H 0.32311 0.2152 0.63819 0.0
H3307 H 0.31445 0.18513 0.64494 0.0
H3308 H 0.3327 0.19123 0.62009 0.0
H3309 H 0.21784 0.20859 0.59653 0.0
H3310 H 0.22413 0.19824 0.62625 0.0
H3311 H 0.23592 0.228 0.62075 0.0
H3312 H 0.26695 0.19027 0.70301 0.0
H3313 H 0.28957 0.26212 0.68674 0.0
H3314 H 0.27483 0.16122 0.64892 0.0
H3315 H 0.24512 0.16678 0.64207 0.0
H3316 H 0.25425 0.15897 0.67226 0.0
H3317 H 0.30496 0.25063 0.62931 0.0
H3318 H 0.29154 0.27272 0.64613 0.0
H3319 H 0.27435 0.2527 0.62178 0.0
C3320 C 0.5979 0.53829 0.2117 0.0
C3321 C 0.60833 0.51923 0.2198 0.0
C3322 C 0.58757 0.53742 0.18741 0.0
C3323 C 0.58733 0.51684 0.17112 0.0
C3324 C 0.59724 0.49731 0.17949 0.0
C3325 C 0.60781 0.49884 0.20366 0.0
C3326 C 0.57754 0.55873 0.17899 0.0
C3327 C 0.59701 0.47489 0.16281 0.0
C3328 C 0.54534 0.50268 0.11273 0.0
C3329 C 0.56114 0.50729 0.09475 0.0
C3330 C 0.5534 0.50656 0.13784 0.0
C3331 C 0.57765 0.51584 0.14498 0.0
C3332 C 0.59326 0.52197 0.12681 0.0
C3333 C 0.58489 0.51729 0.10188 0.0
C3334 C 0.53632 0.49937 0.15663 0.0
C3335 C 0.61908 0.53248 0.13366 0.0
H3336 H 0.59837 0.55412 0.22415 0.0
H3337 H 0.61572 0.48401 0.20992 0.0
H3338 H 0.58773 0.56614 0.16415 0.0
H3339 H 0.55878 0.55336 0.17119 0.0
H3340 H 0.57826 0.57299 0.19418 0.0
H3341 H 0.60414 0.46078 0.17262 0.0
H3342 H 0.57859 0.46781 0.1548 0.0
H3343 H 0.60791 0.47895 0.14732 0.0
H3344 H 0.52699 0.49483 0.10717 0.0
H3345 H 0.59703 0.52111 0.08792 0.0
H3346 H 0.53718 0.51397 0.17143 0.0
H3347 H 0.54149 0.48378 0.16536 0.0
H3348 H 0.51764 0.49456 0.14829 0.0
H3349 H 0.62064 0.54748 0.14816 0.0
H3350 H 0.62801 0.53901 0.11761 0.0
H3351 H 0.62873 0.51879 0.14122 0.0
C3352 C 0.25389 0.81993 0.9423 0.0
C3353 C 0.24212 0.83972 0.94437 0.0
C3354 C 0.25532 0.80787 0.91933 0.0
C3355 C 0.24438 0.81559 0.89796 0.0
C3356 C 0.23104 0.83452 0.90011 0.0
C3357 C 0.23021 0.84652 0.92334 0.0
C3358 C 0.27002 0.788 0.91779 0.0
C3359 C 0.21882 0.84298 0.87774 0.0
C3360 C 0.2755 0.80744 0.84017 0.0
C3361 C 0.26213 0.78644 0.82827 0.0
C3362 C 0.26965 0.81721 0.86267 0.0
C3363 C 0.24964 0.80595 0.87337 0.0
C3364 C 0.23566 0.78506 0.86118 0.0
C3365 C 0.24224 0.77536 0.83882 0.0
C3366 C 0.28525 0.83932 0.87524 0.0
C3367 C 0.21389 0.77293 0.87182 0.0
H3368 H 0.26307 0.81455 0.95852 0.0
H3369 H 0.22093 0.86171 0.92489 0.0
H3370 H 0.25995 0.77215 0.90649 0.0
H3371 H 0.28632 0.79387 0.90867 0.0
H3372 H 0.27546 0.78267 0.93622 0.0
H3373 H 0.2062 0.85518 0.8828 0.0
H3374 H 0.23235 0.8526 0.86708 0.0
H3375 H 0.20899 0.82765 0.86547 0.0
H3376 H 0.29092 0.81606 0.83209 0.0
H3377 H 0.23171 0.75928 0.8295 0.0
H3378 H 0.29287 0.83554 0.89352 0.0
H3379 H 0.27451 0.85373 0.87834 0.0
H3380 H 0.30013 0.84591 0.86437 0.0
H3381 H 0.21917 0.76628 0.88961 0.0
H3382 H 0.20409 0.75772 0.85932 0.0
H3383 H 0.20166 0.78587 0.87561 0.0
C3384 C 0.96311 0.54407 0.72392 0.0
C3385 C 0.94224 0.52774 0.72457 0.0
C3386 C 0.97618 0.54388 0.70327 0.0
C3387 C 0.96783 0.52728 0.68271 0.0
C3388 C 0.94721 0.51023 0.68366 0.0
C3389 C 0.93477 0.51054 0.7047 0.0
C3390 C 0.99836 0.56202 0.70307 0.0
C3391 C 0.93754 0.49247 0.66195 0.0
C3392 C 0.97968 0.54471 0.61917 0.0
C3393 C 0.99643 0.53031 0.61259 0.0
C3394 C 0.97071 0.54428 0.64219 0.0
C3395 C 0.97897 0.52934 0.65925 0.0
C3396 C 0.99667 0.51553 0.65321 0.0
C3397 C 0.00511 0.51605 0.62981 0.0
C3398 C 0.95168 0.55912 0.64782 0.0
C3399 C 0.00617 0.49975 0.67119 0.0
H3400 H 0.96906 0.55722 0.7394 0.0
H3401 H 0.91865 0.49786 0.70519 0.0
H3402 H 0.01317 0.5533 0.69671 0.0
H3403 H 0.99497 0.57527 0.68998 0.0
H3404 H 0.00409 0.57162 0.72151 0.0
H3405 H 0.9223 0.47937 0.66629 0.0
H3406 H 0.93149 0.50202 0.64633 0.0
H3407 H 0.95168 0.48268 0.65576 0.0
H3408 H 0.97294 0.55589 0.60603 0.0
H3409 H 0.01816 0.50498 0.62486 0.0
H3410 H 0.95718 0.57082 0.6651 0.0
H3411 H 0.93497 0.54729 0.65061 0.0
H3412 H 0.94783 0.57043 0.63285 0.0
H3413 H 0.01182 0.50997 0.68932 0.0
H3414 H 0.02151 0.49199 0.66463 0.0
H3415 H 0.9919 0.48499 0.67407 0.0
C3416 C 0.2582 0.19736 0.44267 0.0
C3417 C 0.27274 0.17983 0.44537 0.0
C3418 C 0.25799 0.20998 0.42162 0.0
C3419 C 0.27281 0.20505 0.40292 0.0
C3420 C 0.28811 0.18793 0.40597 0.0
C3421 C 0.28782 0.17548 0.4271 0.0
C3422 C 0.24133 0.22798 0.41901 0.0
C3423 C 0.30421 0.18218 0.3865 0.0
C3424 C 0.25364 0.21428 0.3369 0.0
C3425 C 0.26919 0.23488 0.33285 0.0
C3426 C 0.25442 0.2047 0.35968 0.0
C3427 C 0.27088 0.21618 0.37923 0.0
C3428 C 0.28597 0.23754 0.37567 0.0
C3429 C 0.28502 0.24661 0.35247 0.0
C3430 C 0.23802 0.18188 0.36259 0.0
C3431 C 0.30347 0.25049 0.3962 0.0
H3432 H 0.24652 0.20082 0.45675 0.0
H3433 H 0.29922 0.16207 0.42915 0.0
H3434 H 0.25117 0.24515 0.41447 0.0
H3435 H 0.22742 0.22159 0.40363 0.0
H3436 H 0.23243 0.23118 0.43601 0.0
H3437 H 0.31622 0.16967 0.39242 0.0
H3438 H 0.29329 0.17404 0.36942 0.0
H3439 H 0.31523 0.19871 0.3819 0.0
H3440 H 0.24096 0.20531 0.32208 0.0
H3441 H 0.29696 0.26263 0.3496 0.0
H3442 H 0.22722 0.18445 0.37827 0.0
H3443 H 0.24869 0.16773 0.36674 0.0
H3444 H 0.22577 0.17555 0.3458 0.0
H3445 H 0.29419 0.25398 0.41285 0.0
H3446 H 0.31278 0.26769 0.39104 0.0
H3447 H 0.31698 0.23919 0.4012 0.0
C3448 C 0.33148 0.57352 0.50572 0.0
C3449 C 0.33407 0.59168 0.52496 0.0
C3450 C 0.34885 0.55877 0.5032 0.0
C3451 C 0.36935 0.56249 0.52018 0.0
C3452 C 0.37189 0.5806 0.53985 0.0
C3453 C 0.35413 0.59491 0.54208 0.0
C3454 C 0.34545 0.53947 0.48216 0.0
C3455 C 0.39364 0.58522 0.55822 0.0
C3456 C 0.40909 0.51546 0.5276 0.0
C3457 C 0.42811 0.52401 0.51429 0.0
C3458 C 0.38933 0.52728 0.52892 0.0
C3459 C 0.38874 0.54824 0.51681 0.0
C3460 C 0.40742 0.5564 0.50254 0.0
C3461 C 0.4268 0.54409 0.50131 0.0
C3462 C 0.36957 0.51793 0.54408 0.0
C3463 C 0.40753 0.57879 0.48953 0.0
H3464 H 0.31591 0.57089 0.49252 0.0
H3465 H 0.35618 0.60895 0.55697 0.0
H3466 H 0.35963 0.54317 0.46961 0.0
H3467 H 0.34702 0.52203 0.48924 0.0
H3468 H 0.32788 0.53802 0.47138 0.0
H3469 H 0.39259 0.5996 0.57279 0.0
H3470 H 0.39587 0.56878 0.56708 0.0
H3471 H 0.4098 0.59034 0.54861 0.0
H3472 H 0.40996 0.49993 0.53764 0.0
H3473 H 0.44143 0.55089 0.49102 0.0
H3474 H 0.35203 0.51644 0.5333 0.0
H3475 H 0.36948 0.53058 0.5605 0.0
H3476 H 0.3716 0.50024 0.55036 0.0
H3477 H 0.39077 0.57772 0.47748 0.0
H3478 H 0.42279 0.58205 0.47817 0.0
H3479 H 0.40852 0.59434 0.50328 0.0
C3480 C 0.8548 0.93237 0.56267 0.0
C3481 C 0.83599 0.9366 0.54639 0.0
C3482 C 0.8781 0.94428 0.56169 0.0
C3483 C 0.8827 0.96084 0.54402 0.0
C3484 C 0.86359 0.96589 0.52822 0.0
C3485 C 0.84047 0.95369 0.52958 0.0
C3486 C 0.89796 0.93839 0.57887 0.0
C3487 C 0.86772 0.98343 0.50914 0.0
C3488 C 0.94235 0.00235 0.54995 0.0
C3489 C 0.95534 0.99009 0.53397 0.0
C3490 C 0.91868 0.99309 0.55349 0.0
C3491 C 0.9077 0.9712 0.54056 0.0
C3492 C 0.92067 0.95892 0.52424 0.0
C3493 C 0.9443 0.96843 0.52124 0.0
C3494 C 0.90546 0.00661 0.57117 0.0
C3495 C 0.90961 0.93563 0.50992 0.0
H3496 H 0.85146 0.91922 0.57575 0.0
H3497 H 0.826 0.95711 0.517 0.0
H3498 H 0.91012 0.92916 0.56814 0.0
H3499 H 0.90863 0.95493 0.58836 0.0
H3500 H 0.89119 0.92674 0.59295 0.0
H3501 H 0.85078 0.9869 0.49974 0.0
H3502 H 0.87796 0.00056 0.51775 0.0
H3503 H 0.87847 0.9764 0.49508 0.0
H3504 H 0.95077 0.01905 0.5599 0.0
H3505 H 0.9541 0.95887 0.50874 0.0
H3506 H 0.8999 0.99539 0.58601 0.0
H3507 H 0.88903 0.01086 0.56147 0.0
H3508 H 0.91644 0.02345 0.57967 0.0
H3509 H 0.90406 0.9222 0.52278 0.0
H3510 H 0.92201 0.92848 0.49772 0.0
H3511 H 0.89339 0.93807 0.49846 0.0
C3512 C 0.86225 0.09137 0.27491 0.0
C3513 C 0.85779 0.07397 0.25487 0.0
C3514 C 0.85179 0.11206 0.27481 0.0
C3515 C 0.8366 0.11547 0.25409 0.0
C3516 C 0.83134 0.09756 0.2342 0.0
C3517 C 0.84197 0.07696 0.23485 0.0
C3518 C 0.85776 0.1307 0.29644 0.0
C3519 C 0.81525 0.10058 0.21181 0.0
C3520 C 0.80012 0.16556 0.26228 0.0
C3521 C 0.81469 0.18433 0.25315 0.0
C3522 C 0.80654 0.14272 0.26194 0.0
C3523 C 0.82809 0.1387 0.2524 0.0
C3524 C 0.84237 0.15737 0.24233 0.0
C3525 C 0.83543 0.17988 0.2427 0.0
C3526 C 0.79074 0.12314 0.27255 0.0
C3527 C 0.86552 0.15385 0.23205 0.0
H3528 H 0.87434 0.08905 0.29051 0.0
H3529 H 0.83842 0.06352 0.21934 0.0
H3530 H 0.86812 0.14703 0.29057 0.0
H3531 H 0.84122 0.13566 0.30326 0.0
H3532 H 0.86835 0.12453 0.31188 0.0
H3533 H 0.81119 0.08414 0.19897 0.0
H3534 H 0.79827 0.10559 0.21737 0.0
H3535 H 0.8239 0.11523 0.20182 0.0
H3536 H 0.78401 0.16884 0.27028 0.0
H3537 H 0.84674 0.19421 0.23544 0.0
H3538 H 0.80009 0.11814 0.28943 0.0
H3539 H 0.78682 0.10702 0.2593 0.0
H3540 H 0.77365 0.12857 0.2773 0.0
H3541 H 0.87819 0.14968 0.24691 0.0
H3542 H 0.87396 0.16986 0.22382 0.0
H3543 H 0.86248 0.13854 0.21777 0.0
C3544 C 0.70433 0.07886 0.01708 0.0
C3545 C 0.71376 0.09472 0.03754 0.0
C3546 C 0.67987 0.07007 0.01344 0.0
C3547 C 0.66462 0.0772 0.0308 0.0
C3548 C 0.6743 0.09191 0.05232 0.0
C3549 C 0.69879 0.1006 0.05539 0.0
C3550 C 0.67019 0.05441 0.99023 0.0
C3551 C 0.65864 0.0996 0.07142 0.0
C3552 C 0.60191 0.0814 0.00535 0.0
C3553 C 0.58913 0.05992 0.01117 0.0
C3554 C 0.62643 0.08732 0.01196 0.0
C3555 C 0.63841 0.07151 0.02501 0.0
C3556 C 0.6255 0.05015 0.03169 0.0
C3557 C 0.60098 0.04451 0.02453 0.0
C3558 C 0.63964 0.11022 0.00437 0.0
C3559 C 0.63764 0.03308 0.04594 0.0
H3560 H 0.71586 0.07421 0.00328 0.0
H3561 H 0.70606 0.11271 0.07136 0.0
H3562 H 0.65823 0.0384 0.99462 0.0
H3563 H 0.65947 0.06432 0.97814 0.0
H3564 H 0.68457 0.04861 0.97984 0.0
H3565 H 0.6692 0.10831 0.08852 0.0
H3566 H 0.64779 0.11238 0.06387 0.0
H3567 H 0.64613 0.08411 0.07614 0.0
H3568 H 0.59288 0.09336 0.99499 0.0
H3569 H 0.59114 0.02793 0.0292 0.0
H3570 H 0.65331 0.10619 0.99203 0.0
H3571 H 0.64906 0.12135 0.02077 0.0
H3572 H 0.6276 0.12075 0.99466 0.0
H3573 H 0.65062 0.02569 0.03471 0.0
H3574 H 0.62479 0.01807 0.05116 0.0
H3575 H 0.64778 0.04256 0.0629 0.0
C3576 C 0.1778 0.42251 0.27397 0.0
C3577 C 0.18916 0.44592 0.27296 0.0
C3578 C 0.19092 0.40367 0.27489 0.0
C3579 C 0.21601 0.40838 0.27472 0.0
C3580 C 0.22765 0.43208 0.27451 0.0
C3581 C 0.21407 0.4506 0.27363 0.0
C3582 C 0.17785 0.37861 0.27516 0.0
C3583 C 0.25435 0.43778 0.27435 0.0
C3584 C 0.24875 0.35776 0.29142 0.0
C3585 C 0.25005 0.34629 0.26809 0.0
C3586 C 0.23857 0.37867 0.29394 0.0
C3587 C 0.22966 0.38823 0.27263 0.0
C3588 C 0.23222 0.37742 0.24906 0.0
C3589 C 0.24236 0.3566 0.24709 0.0
C3590 C 0.2362 0.38976 0.31937 0.0
C3591 C 0.22313 0.38713 0.22586 0.0
H3592 H 0.15857 0.41882 0.27362 0.0
H3593 H 0.22296 0.4687 0.27298 0.0
H3594 H 0.17995 0.36794 0.25788 0.0
H3595 H 0.18555 0.36989 0.29062 0.0
H3596 H 0.15853 0.37815 0.27695 0.0
H3597 H 0.26085 0.45726 0.27635 0.0
H3598 H 0.2633 0.42959 0.28947 0.0
H3599 H 0.25976 0.43012 0.25682 0.0
H3600 H 0.25457 0.34979 0.3077 0.0
H3601 H 0.24353 0.34791 0.22899 0.0
H3602 H 0.21717 0.3871 0.323 0.0
H3603 H 0.24249 0.40923 0.32076 0.0
H3604 H 0.24639 0.38187 0.33387 0.0
H3605 H 0.20345 0.38549 0.2249 0.0
H3606 H 0.22797 0.37758 0.209 0.0
H3607 H 0.23038 0.40631 0.22604 0.0
C3608 C 0.18841 0.41726 0.0312 0.0
C3609 C 0.21101 0.42825 0.04168 0.0
C3610 C 0.16907 0.4298 0.03014 0.0
C3611 C 0.17234 0.45391 0.03992 0.0
C3612 C 0.19518 0.46519 0.05029 0.0
C3613 C 0.21427 0.45224 0.051 0.0
C3614 C 0.14499 0.41709 0.01899 0.0
C3615 C 0.19935 0.49082 0.061 0.0
C3616 C 0.12393 0.4898 0.02074 0.0
C3617 C 0.10958 0.48759 0.04035 0.0
C3618 C 0.14481 0.47947 0.0206 0.0
C3619 C 0.15149 0.46675 0.04056 0.0
C3620 C 0.13746 0.46516 0.06072 0.0
C3621 C 0.11676 0.47563 0.0604 0.0
C3622 C 0.15927 0.48145 0.99873 0.0
C3623 C 0.144 0.45189 0.08243 0.0
H3624 H 0.18579 0.39877 0.02386 0.0
H3625 H 0.23171 0.46086 0.05905 0.0
H3626 H 0.13216 0.4162 0.03322 0.0
H3627 H 0.138 0.42711 0.00423 0.0
H3628 H 0.14566 0.39868 0.01114 0.0
H3629 H 0.21838 0.49734 0.06729 0.0
H3630 H 0.1934 0.50237 0.04715 0.0
H3631 H 0.18865 0.49274 0.07688 0.0
H3632 H 0.11848 0.49895 0.00517 0.0
H3633 H 0.10591 0.47399 0.07573 0.0
H3634 H 0.15866 0.46353 0.98902 0.0
H3635 H 0.17821 0.48845 0.00487 0.0
H3636 H 0.15261 0.49324 0.98548 0.0
H3637 H 0.14603 0.43342 0.07613 0.0
H3638 H 0.13044 0.45109 0.09592 0.0
H3639 H 0.16136 0.46073 0.09188 0.0
C3640 C 0.84695 0.9351 0.22786 0.0
C3641 C 0.84774 0.95256 0.24751 0.0
C3642 C 0.83391 0.91223 0.22841 0.0
C3643 C 0.82175 0.90665 0.2493 0.0
C3644 C 0.82166 0.92454 0.2687 0.0
C3645 C 0.83453 0.94734 0.26748 0.0
C3646 C 0.83414 0.89372 0.20722 0.0
C3647 C 0.80919 0.91923 0.29143 0.0
C3648 C 0.77818 0.84888 0.2485 0.0
C3649 C 0.79268 0.83424 0.25969 0.0
C3650 C 0.7874 0.87248 0.24467 0.0
C3651 C 0.8116 0.88155 0.25226 0.0
C3652 C 0.82631 0.86676 0.26335 0.0
C3653 C 0.8167 0.84335 0.26688 0.0
C3654 C 0.77126 0.88773 0.23266 0.0
C3655 C 0.85222 0.87573 0.27175 0.0
H3656 H 0.85699 0.93912 0.2123 0.0
H3657 H 0.83508 0.96078 0.28273 0.0
H3658 H 0.84494 0.88022 0.21314 0.0
H3659 H 0.81584 0.8843 0.20141 0.0
H3660 H 0.84176 0.90163 0.19111 0.0
H3661 H 0.80889 0.93558 0.30375 0.0
H3662 H 0.79061 0.91028 0.2863 0.0
H3663 H 0.81846 0.90689 0.30186 0.0
H3664 H 0.75963 0.84196 0.24283 0.0
H3665 H 0.82813 0.83219 0.27542 0.0
H3666 H 0.77893 0.89467 0.21616 0.0
H3667 H 0.76982 0.90334 0.24553 0.0
H3668 H 0.75309 0.87779 0.22708 0.0
H3669 H 0.86183 0.88188 0.25601 0.0
H3670 H 0.86126 0.86187 0.2799 0.0
H3671 H 0.85372 0.89121 0.28568 0.0
C3672 C 0.69824 0.08203 0.74526 0.0
C3673 C 0.68626 0.07376 0.76506 0.0
C3674 C 0.70914 0.10589 0.74597 0.0
C3675 C 0.70749 0.12177 0.76673 0.0
C3676 C 0.69561 0.11336 0.78684 0.0
C3677 C 0.68534 0.08941 0.78583 0.0
C3678 C 0.72201 0.11422 0.72441 0.0
C3679 C 0.69317 0.12981 0.80918 0.0
C3680 C 0.74715 0.18114 0.78362 0.0
C3681 C 0.73129 0.19675 0.77785 0.0
C3682 C 0.74019 0.15646 0.77872 0.0
C3683 C 0.71708 0.14748 0.7673 0.0
C3684 C 0.70182 0.1634 0.7596 0.0
C3685 C 0.709 0.18791 0.76534 0.0
C3686 C 0.7568 0.14005 0.78753 0.0
C3687 C 0.67725 0.15455 0.74692 0.0
H3688 H 0.69906 0.06987 0.72924 0.0
H3689 H 0.67594 0.08307 0.80109 0.0
H3690 H 0.71276 0.12754 0.71558 0.0
H3691 H 0.74038 0.12311 0.73081 0.0
H3692 H 0.72297 0.09933 0.71038 0.0
H3693 H 0.68401 0.12026 0.82354 0.0
H3694 H 0.71098 0.13884 0.81733 0.0
H3695 H 0.68287 0.14385 0.80369 0.0
H3696 H 0.76434 0.1881 0.7935 0.0
H3697 H 0.69688 0.20015 0.76074 0.0
H3698 H 0.75741 0.12542 0.77314 0.0
H3699 H 0.75011 0.13182 0.80387 0.0
H3700 H 0.77517 0.14964 0.79276 0.0
H3701 H 0.67791 0.14047 0.73194 0.0
H3702 H 0.66909 0.16909 0.73904 0.0
H3703 H 0.66554 0.14658 0.76034 0.0
loop_
_geom_bond_atom_site_label_1
_geom_bond_atom_site_label_2
_geom_bond_distance
_geom_bond_site_symmetry_2
_ccdc_geom_bond_type
In0 O1 2.294 . S
In0 O2 2.326 . S
In0 O6 2.267 1_455 S
In0 O7 2.326 1_455 S
In0 O8 2.266 . S
In0 O9 2.326 . S
In0 O11 2.294 . S
In0 O12 2.326 . S
O1 In0 2.294 . S
O1 C10 1.240 . S
O2 In0 2.326 . S
O2 C10 1.252 . S
C3 O6 1.251 . S
C3 O7 1.260 . S
C4 O11 1.240 . S
C4 O12 1.252 . S
C5 O8 1.252 . S
C5 O9 1.260 . S
O6 In0 2.267 1_655 S
O6 C3 1.251 . S
O7 In0 2.326 1_655 S
O7 C3 1.260 . S
O8 In0 2.266 . S
O8 C5 1.252 . S
O9 In0 2.326 . S
O9 C5 1.260 . S
C10 O1 1.240 . S
C10 O2 1.252 . S
O11 In0 2.294 . S
O11 C4 1.240 . S
O12 In0 2.326 . S
O12 C4 1.252 . S
In13 O14 2.294 . S
In13 O15 2.326 . S
In13 O19 2.266 . S
In13 O20 2.326 . S
In13 O21 2.266 1_455 S
In13 O22 2.326 1_455 S
In13 O24 2.294 . S
In13 O25 2.326 . S
O14 In13 2.294 . S
O14 C23 1.240 . S
O15 In13 2.326 . S
O15 C23 1.252 . S
C16 O19 1.252 . S
C16 O20 1.260 . S
C17 O24 1.240 . S
C17 O25 1.252 . S
C18 O21 1.252 . S
C18 O22 1.260 . S
O19 In13 2.266 . S
O19 C16 1.252 . S
O20 In13 2.326 . S
O20 C16 1.260 . S
O21 In13 2.266 1_655 S
O21 C18 1.252 . S
O22 In13 2.326 1_655 S
O22 C18 1.260 . S
C23 O14 1.240 . S
C23 O15 1.252 . S
O24 In13 2.294 . S
O24 C17 1.240 . S
O25 In13 2.326 . S
O25 C17 1.252 . S
In26 O27 2.294 . S
In26 O28 2.326 . S
In26 O32 2.266 . S
In26 O33 2.326 . S
In26 O34 2.266 . S
In26 O35 2.326 . S
In26 O37 2.294 . S
In26 O38 2.326 . S
O27 In26 2.294 . S
O27 C36 1.240 . S
O28 In26 2.326 . S
O28 C36 1.252 . S
C29 O32 1.252 . S
C29 O33 1.260 . S
C30 O37 1.240 . S
C30 O38 1.252 . S
C31 O34 1.252 . S
C31 O35 1.260 . S
O32 In26 2.266 . S
O32 C29 1.252 . S
O33 In26 2.326 . S
O33 C29 1.260 . S
O34 In26 2.266 . S
O34 C31 1.252 . S
O35 In26 2.326 . S
O35 C31 1.260 . S
C36 O27 1.240 . S
C36 O28 1.252 . S
O37 In26 2.294 . S
O37 C30 1.240 . S
O38 In26 2.326 . S
O38 C30 1.252 . S
In39 O40 2.294 . S
In39 O41 2.326 . S
In39 O45 2.266 . S
In39 O46 2.326 . S
In39 O47 2.266 . S
In39 O48 2.326 . S
In39 O50 2.294 . S
In39 O51 2.326 . S
O40 In39 2.294 . S
O40 C49 1.240 . S
O41 In39 2.326 . S
O41 C49 1.252 . S
C42 O45 1.252 . S
C42 O46 1.260 . S
C43 O50 1.240 . S
C43 O51 1.252 . S
C44 O47 1.252 . S
C44 O48 1.260 . S
O45 In39 2.266 . S
O45 C42 1.252 . S
O46 In39 2.326 . S
O46 C42 1.260 . S
O47 In39 2.266 . S
O47 C44 1.252 . S
O48 In39 2.326 . S
O48 C44 1.260 . S
C49 O40 1.240 . S
C49 O41 1.252 . S
O50 In39 2.294 . S
O50 C43 1.240 . S
O51 In39 2.326 . S
O51 C43 1.252 . S
In52 O53 2.294 . S
In52 O54 2.326 . S
In52 O58 2.266 . S
In52 O59 2.326 . S
In52 O60 2.266 . S
In52 O61 2.326 . S
In52 O63 2.294 . S
In52 O64 2.326 1_455 S
O53 In52 2.294 . S
O53 C62 1.240 . S
O54 In52 2.326 . S
O54 C62 1.252 . S
C55 O58 1.252 . S
C55 O59 1.260 . S
C56 O63 1.240 1_655 S
C56 O64 1.252 . S
C57 O60 1.252 . S
C57 O61 1.260 . S
O58 In52 2.266 . S
O58 C55 1.252 . S
O59 In52 2.326 . S
O59 C55 1.260 . S
O60 In52 2.266 . S
O60 C57 1.252 . S
O61 In52 2.326 . S
O61 C57 1.260 . S
C62 O53 1.240 . S
C62 O54 1.252 . S
O63 In52 2.294 . S
O63 C56 1.240 1_455 S
O64 In52 2.326 1_655 S
O64 C56 1.252 . S
In65 O66 2.294 . S
In65 O67 2.326 . S
In65 O71 2.266 . S
In65 O72 2.326 . S
In65 O73 2.266 . S
In65 O74 2.326 . S
In65 O76 2.294 . S
In65 O77 2.326 . S
O66 In65 2.294 . S
O66 C75 1.240 . S
O67 In65 2.326 . S
O67 C75 1.252 . S
C68 O71 1.252 . S
C68 O72 1.260 . S
C69 O76 1.240 . S
C69 O77 1.252 . S
C70 O73 1.252 . S
C70 O74 1.260 . S
O71 In65 2.266 . S
O71 C68 1.252 . S
O72 In65 2.326 . S
O72 C68 1.260 . S
O73 In65 2.266 . S
O73 C70 1.252 . S
O74 In65 2.326 . S
O74 C70 1.260 . S
C75 O66 1.240 . S
C75 O67 1.252 . S
O76 In65 2.294 . S
O76 C69 1.240 . S
O77 In65 2.326 . S
O77 C69 1.252 . S
In78 O79 2.294 . S
In78 O80 2.326 . S
In78 O84 2.266 . S
In78 O85 2.326 . S
In78 O86 2.266 . S
In78 O87 2.326 . S
In78 O89 2.294 . S
In78 O90 2.326 . S
O79 In78 2.294 . S
O79 C88 1.240 . S
O80 In78 2.326 . S
O80 C88 1.252 . S
C81 O84 1.252 . S
C81 O85 1.260 . S
C82 O89 1.240 . S
C82 O90 1.252 . S
C83 O86 1.252 . S
C83 O87 1.260 . S
O84 In78 2.266 . S
O84 C81 1.252 . S
O85 In78 2.326 . S
O85 C81 1.260 . S
O86 In78 2.266 . S
O86 C83 1.252 . S
O87 In78 2.326 . S
O87 C83 1.260 . S
C88 O79 1.240 . S
C88 O80 1.252 . S
O89 In78 2.294 . S
O89 C82 1.240 . S
O90 In78 2.326 . S
O90 C82 1.252 . S
In91 O92 2.294 . S
In91 O93 2.326 . S
In91 O97 2.266 . S
In91 O98 2.326 . S
In91 O99 2.266 1_455 S
In91 O100 2.326 1_455 S
In91 O102 2.294 . S
In91 O103 2.326 . S
O92 In91 2.294 . S
O92 C101 1.240 . S
O93 In91 2.326 . S
O93 C101 1.252 . S
C94 O97 1.252 . S
C94 O98 1.260 . S
C95 O102 1.240 . S
C95 O103 1.252 . S
C96 O99 1.252 . S
C96 O100 1.260 . S
O97 In91 2.266 . S
O97 C94 1.252 . S
O98 In91 2.326 . S
O98 C94 1.260 . S
O99 In91 2.266 1_655 S
O99 C96 1.252 . S
O100 In91 2.326 1_655 S
O100 C96 1.260 . S
C101 O92 1.240 . S
C101 O93 1.252 . S
O102 In91 2.294 . S
O102 C95 1.240 . S
O103 In91 2.326 . S
O103 C95 1.252 . S
In104 O105 2.294 . S
In104 O106 2.326 . S
In104 O110 2.266 . S
In104 O111 2.326 . S
In104 O112 2.266 1_545 S
In104 O113 2.326 1_545 S
In104 O115 2.294 . S
In104 O116 2.326 . S
O105 In104 2.294 . S
O105 C114 1.240 . S
O106 In104 2.326 . S
O106 C114 1.252 . S
C107 O110 1.252 . S
C107 O111 1.260 . S
C108 O115 1.240 . S
C108 O116 1.252 . S
C109 O112 1.252 . S
C109 O113 1.260 . S
O110 In104 2.266 . S
O110 C107 1.252 . S
O111 In104 2.326 . S
O111 C107 1.260 . S
O112 In104 2.266 1_565 S
O112 C109 1.252 . S
O113 In104 2.326 1_565 S
O113 C109 1.260 . S
C114 O105 1.240 . S
C114 O106 1.252 . S
O115 In104 2.294 . S
O115 C108 1.240 . S
O116 In104 2.326 . S
O116 C108 1.252 . S
In117 O118 2.294 . S
In117 O119 2.326 . S
In117 O123 2.266 . S
In117 O124 2.326 . S
In117 O125 2.266 . S
In117 O126 2.326 . S
In117 O128 2.294 . S
In117 O129 2.326 . S
O118 In117 2.294 . S
O118 C127 1.240 . S
O119 In117 2.326 . S
O119 C127 1.252 . S
C120 O123 1.252 . S
C120 O124 1.260 . S
C121 O128 1.240 . S
C121 O129 1.252 . S
C122 O125 1.252 . S
C122 O126 1.260 . S
O123 In117 2.266 . S
O123 C120 1.252 . S
O124 In117 2.326 . S
O124 C120 1.260 . S
O125 In117 2.266 . S
O125 C122 1.252 . S
O126 In117 2.326 . S
O126 C122 1.260 . S
C127 O118 1.240 . S
C127 O119 1.252 . S
O128 In117 2.294 . S
O128 C121 1.240 . S
O129 In117 2.326 . S
O129 C121 1.252 . S
In130 O131 2.294 . S
In130 O132 2.326 . S
In130 O136 2.266 . S
In130 O137 2.326 . S
In130 O138 2.266 . S
In130 O139 2.326 . S
In130 O141 2.294 1_545 S
In130 O142 2.326 1_545 S
O131 In130 2.294 . S
O131 C140 1.240 . S
O132 In130 2.326 . S
O132 C140 1.252 . S
C133 O136 1.252 . S
C133 O137 1.260 . S
C134 O141 1.240 . S
C134 O142 1.252 . S
C135 O138 1.252 . S
C135 O139 1.260 . S
O136 In130 2.266 . S
O136 C133 1.252 . S
O137 In130 2.326 . S
O137 C133 1.260 . S
O138 In130 2.266 . S
O138 C135 1.252 . S
O139 In130 2.326 . S
O139 C135 1.260 . S
C140 O131 1.240 . S
C140 O132 1.252 . S
O141 In130 2.294 1_565 S
O141 C134 1.240 . S
O142 In130 2.326 1_565 S
O142 C134 1.252 . S
In143 O144 2.294 . S
In143 O145 2.326 . S
In143 O149 2.266 1_554 S
In143 O150 2.326 1_554 S
In143 O151 2.266 . S
In143 O152 2.326 . S
In143 O154 2.294 . S
In143 O155 2.326 . S
O144 In143 2.294 . S
O144 C153 1.240 . S
O145 In143 2.326 . S
O145 C153 1.252 . S
C146 O149 1.252 . S
C146 O150 1.260 . S
C147 O154 1.240 . S
C147 O155 1.252 . S
C148 O151 1.252 . S
C148 O152 1.260 . S
O149 In143 2.266 1_556 S
O149 C146 1.252 . S
O150 In143 2.326 1_556 S
O150 C146 1.260 . S
O151 In143 2.266 . S
O151 C148 1.252 . S
O152 In143 2.326 . S
O152 C148 1.260 . S
C153 O144 1.240 . S
C153 O145 1.252 . S
O154 In143 2.294 . S
O154 C147 1.240 . S
O155 In143 2.326 . S
O155 C147 1.252 . S
In156 O157 2.294 . S
In156 O158 2.326 . S
In156 O162 2.266 . S
In156 O163 2.326 . S
In156 O164 2.266 . S
In156 O165 2.326 . S
In156 O167 2.294 . S
In156 O168 2.326 . S
O157 In156 2.294 . S
O157 C166 1.240 . S
O158 In156 2.326 . S
O158 C166 1.252 . S
C159 O162 1.252 1_556 S
C159 O163 1.260 1_556 S
C160 O167 1.240 . S
C160 O168 1.252 . S
C161 O164 1.252 . S
C161 O165 1.260 . S
O162 In156 2.266 . S
O162 C159 1.252 1_554 S
O163 In156 2.326 . S
O163 C159 1.260 1_554 S
O164 In156 2.266 . S
O164 C161 1.252 . S
O165 In156 2.326 . S
O165 C161 1.260 . S
C166 O157 1.240 . S
C166 O158 1.252 . S
O167 In156 2.294 . S
O167 C160 1.240 . S
O168 In156 2.326 . S
O168 C160 1.252 . S
In169 O170 2.294 . S
In169 O171 2.326 . S
In169 O175 2.266 . S
In169 O176 2.326 . S
In169 O177 2.266 . S
In169 O178 2.326 1_554 S
In169 O180 2.294 . S
In169 O181 2.326 . S
O170 In169 2.294 . S
O170 C179 1.240 . S
O171 In169 2.326 . S
O171 C179 1.252 . S
C172 O175 1.252 . S
C172 O176 1.260 . S
C173 O180 1.240 . S
C173 O181 1.252 . S
C174 O177 1.252 1_556 S
C174 O178 1.260 . S
O175 In169 2.266 . S
O175 C172 1.252 . S
O176 In169 2.326 . S
O176 C172 1.260 . S
O177 In169 2.266 . S
O177 C174 1.252 1_554 S
O178 In169 2.326 1_556 S
O178 C174 1.260 . S
C179 O170 1.240 . S
C179 O171 1.252 . S
O180 In169 2.294 . S
O180 C173 1.240 . S
O181 In169 2.326 . S
O181 C173 1.252 . S
In182 O183 2.294 . S
In182 O184 2.326 . S
In182 O188 2.266 . S
In182 O189 2.326 . S
In182 O190 2.266 . S
In182 O191 2.326 . S
In182 O193 2.294 . S
In182 O194 2.326 . S
O183 In182 2.294 . S
O183 C192 1.240 . S
O184 In182 2.326 . S
O184 C192 1.252 . S
C185 O188 1.252 . S
C185 O189 1.260 . S
C186 O193 1.240 . S
C186 O194 1.252 . S
C187 O190 1.252 . S
C187 O191 1.260 . S
O188 In182 2.266 . S
O188 C185 1.252 . S
O189 In182 2.326 . S
O189 C185 1.260 . S
O190 In182 2.266 . S
O190 C187 1.252 . S
O191 In182 2.326 . S
O191 C187 1.260 . S
C192 O183 1.240 . S
C192 O184 1.252 . S
O193 In182 2.294 . S
O193 C186 1.240 . S
O194 In182 2.326 . S
O194 C186 1.252 . S
In195 O196 2.294 . S
In195 O197 2.326 . S
In195 O201 2.266 . S
In195 O202 2.326 . S
In195 O203 2.266 . S
In195 O204 2.326 . S
In195 O206 2.294 . S
In195 O207 2.326 . S
O196 In195 2.294 . S
O196 C205 1.240 . S
O197 In195 2.326 . S
O197 C205 1.252 . S
C198 O201 1.252 . S
C198 O202 1.260 . S
C199 O206 1.240 . S
C199 O207 1.252 . S
C200 O203 1.252 . S
C200 O204 1.260 . S
O201 In195 2.266 . S
O201 C198 1.252 . S
O202 In195 2.326 . S
O202 C198 1.260 . S
O203 In195 2.266 . S
O203 C200 1.252 . S
O204 In195 2.326 . S
O204 C200 1.260 . S
C205 O196 1.240 . S
C205 O197 1.252 . S
O206 In195 2.294 . S
O206 C199 1.240 . S
O207 In195 2.326 . S
O207 C199 1.252 . S
In208 O209 2.294 . S
In208 O210 2.326 . S
In208 O214 2.266 . S
In208 O215 2.326 . S
In208 O216 2.266 1_545 S
In208 O217 2.326 1_545 S
In208 O219 2.294 . S
In208 O220 2.326 . S
O209 In208 2.294 . S
O209 C218 1.240 . S
O210 In208 2.326 . S
O210 C218 1.252 . S
C211 O214 1.252 . S
C211 O215 1.260 . S
C212 O219 1.240 . S
C212 O220 1.252 . S
C213 O216 1.252 . S
C213 O217 1.260 . S
O214 In208 2.266 . S
O214 C211 1.252 . S
O215 In208 2.326 . S
O215 C211 1.260 . S
O216 In208 2.266 1_565 S
O216 C213 1.252 . S
O217 In208 2.326 1_565 S
O217 C213 1.260 . S
C218 O209 1.240 . S
C218 O210 1.252 . S
O219 In208 2.294 . S
O219 C212 1.240 . S
O220 In208 2.326 . S
O220 C212 1.252 . S
In221 O222 2.294 . S
In221 O223 2.326 . S
In221 O227 2.266 . S
In221 O228 2.326 . S
In221 O229 2.266 . S
In221 O230 2.326 . S
In221 O232 2.294 . S
In221 O233 2.326 . S
O222 In221 2.294 . S
O222 C231 1.240 . S
O223 In221 2.326 . S
O223 C231 1.252 . S
C224 O227 1.252 . S
C224 O228 1.260 . S
C225 O232 1.240 . S
C225 O233 1.252 . S
C226 O229 1.252 . S
C226 O230 1.260 . S
O227 In221 2.266 . S
O227 C224 1.252 . S
O228 In221 2.326 . S
O228 C224 1.260 . S
O229 In221 2.266 . S
O229 C226 1.252 . S
O230 In221 2.326 . S
O230 C226 1.260 . S
C231 O222 1.240 . S
C231 O223 1.252 . S
O232 In221 2.294 . S
O232 C225 1.240 . S
O233 In221 2.326 . S
O233 C225 1.252 . S
In234 O235 2.294 . S
In234 O236 2.326 . S
In234 O240 2.266 . S
In234 O241 2.326 . S
In234 O242 2.266 . S
In234 O243 2.326 . S
In234 O245 2.294 . S
In234 O246 2.326 . S
O235 In234 2.294 . S
O235 C244 1.240 . S
O236 In234 2.326 . S
O236 C244 1.252 . S
C237 O240 1.252 . S
C237 O241 1.260 . S
C238 O245 1.240 . S
C238 O246 1.252 . S
C239 O242 1.252 . S
C239 O243 1.260 . S
O240 In234 2.266 . S
O240 C237 1.252 . S
O241 In234 2.326 . S
O241 C237 1.260 . S
O242 In234 2.266 . S
O242 C239 1.252 . S
O243 In234 2.326 . S
O243 C239 1.260 . S
C244 O235 1.240 . S
C244 O236 1.252 . S
O245 In234 2.294 . S
O245 C238 1.240 . S
O246 In234 2.326 . S
O246 C238 1.252 . S
In247 O248 2.294 1_545 S
In247 O249 2.326 1_545 S
In247 O253 2.266 . S
In247 O254 2.326 . S
In247 O255 2.266 . S
In247 O256 2.326 . S
In247 O258 2.294 1_545 S
In247 O259 2.327 . S
O248 In247 2.294 1_565 S
O248 C257 1.240 . S
O249 In247 2.326 1_565 S
O249 C257 1.252 . S
C250 O253 1.252 . S
C250 O254 1.260 . S
C251 O258 1.240 . S
C251 O259 1.252 1_565 S
C252 O255 1.252 . S
C252 O256 1.260 . S
O253 In247 2.266 . S
O253 C250 1.252 . S
O254 In247 2.326 . S
O254 C250 1.260 . S
O255 In247 2.266 . S
O255 C252 1.252 . S
O256 In247 2.326 . S
O256 C252 1.260 . S
C257 O248 1.240 . S
C257 O249 1.252 . S
O258 In247 2.294 1_565 S
O258 C251 1.240 . S
O259 In247 2.327 . S
O259 C251 1.252 1_545 S
In260 O261 2.294 . S
In260 O262 2.326 . S
In260 O266 2.266 1_554 S
In260 O267 2.325 1_554 S
In260 O268 2.264 1_554 S
In260 O269 2.322 1_554 S
In260 O271 2.296 . S
In260 O272 2.330 . S
O261 In260 2.294 . S
O261 C270 1.240 . S
O262 In260 2.326 . S
O262 C270 1.252 . S
C263 O266 1.252 . S
C263 O267 1.260 . S
C264 O271 1.240 . S
C264 O272 1.252 . S
C265 O268 1.252 . S
C265 O269 1.260 . S
O266 In260 2.266 1_556 S
O266 C263 1.252 . S
O267 In260 2.325 1_556 S
O267 C263 1.260 . S
O268 In260 2.264 1_556 S
O268 C265 1.252 . S
O269 In260 2.322 1_556 S
O269 C265 1.260 . S
C270 O261 1.240 . S
C270 O262 1.252 . S
O271 In260 2.296 . S
O271 C264 1.240 . S
O272 In260 2.330 . S
O272 C264 1.252 . S
In273 O274 2.294 . S
In273 O275 2.326 . S
In273 O279 2.266 . S
In273 O280 2.326 . S
In273 O281 2.266 . S
In273 O282 2.326 . S
In273 O284 2.294 . S
In273 O285 2.326 . S
O274 In273 2.294 . S
O274 C283 1.240 . S
O275 In273 2.326 . S
O275 C283 1.252 . S
C276 O279 1.252 . S
C276 O280 1.260 . S
C277 O284 1.240 . S
C277 O285 1.252 . S
C278 O281 1.252 . S
C278 O282 1.260 . S
O279 In273 2.266 . S
O279 C276 1.252 . S
O280 In273 2.326 . S
O280 C276 1.260 . S
O281 In273 2.266 . S
O281 C278 1.252 . S
O282 In273 2.326 . S
O282 C278 1.260 . S
C283 O274 1.240 . S
C283 O275 1.252 . S
O284 In273 2.294 . S
O284 C277 1.240 . S
O285 In273 2.326 . S
O285 C277 1.252 . S
In286 O287 2.294 . S
In286 O288 2.326 . S
In286 O292 2.266 . S
In286 O293 2.326 . S
In286 O294 2.266 . S
In286 O295 2.326 . S
In286 O297 2.294 . S
In286 O298 2.326 . S
O287 In286 2.294 . S
O287 C296 1.240 . S
O288 In286 2.326 . S
O288 C296 1.252 . S
C289 O292 1.252 . S
C289 O293 1.260 . S
C290 O297 1.240 . S
C290 O298 1.252 . S
C291 O294 1.252 . S
C291 O295 1.260 . S
O292 In286 2.266 . S
O292 C289 1.252 . S
O293 In286 2.326 . S
O293 C289 1.260 . S
O294 In286 2.266 . S
O294 C291 1.252 . S
O295 In286 2.326 . S
O295 C291 1.260 . S
C296 O287 1.240 . S
C296 O288 1.252 . S
O297 In286 2.294 . S
O297 C290 1.240 . S
O298 In286 2.326 . S
O298 C290 1.252 . S
In299 O300 2.294 . S
In299 O301 2.326 . S
In299 O305 2.266 . S
In299 O306 2.326 . S
In299 O307 2.266 . S
In299 O308 2.326 . S
In299 O310 2.294 . S
In299 O311 2.326 . S
O300 In299 2.294 . S
O300 C309 1.240 . S
O301 In299 2.326 . S
O301 C309 1.252 . S
C302 O305 1.252 . S
C302 O306 1.260 . S
C303 O310 1.240 . S
C303 O311 1.252 . S
C304 O307 1.252 . S
C304 O308 1.260 . S
O305 In299 2.266 . S
O305 C302 1.252 . S
O306 In299 2.326 . S
O306 C302 1.260 . S
O307 In299 2.266 . S
O307 C304 1.252 . S
O308 In299 2.326 . S
O308 C304 1.260 . S
C309 O300 1.240 . S
C309 O301 1.252 . S
O310 In299 2.294 . S
O310 C303 1.240 . S
O311 In299 2.326 . S
O311 C303 1.252 . S
Zn312 O318 1.969 . S
Zn312 O319 1.965 . S
Zn312 O323 2.024 1_545 S
Zn312 O328 1.969 . S
Zn313 O320 1.986 . S
Zn313 O326 1.969 1_455 S
Zn313 O327 1.965 . S
Zn313 O329 2.024 . S
C314 O315 1.229 . S
C314 O323 1.058 . S
O315 C314 1.229 . S
C316 O317 1.229 . S
C316 O329 1.058 . S
O317 C316 1.229 . S
O318 Zn312 1.969 . S
O318 C321 1.267 . S
O319 Zn312 1.965 . S
O319 C330 1.260 . S
O320 Zn313 1.986 . S
O320 C330 1.260 . S
C321 O318 1.267 . S
C321 O322 1.228 1_545 S
O322 C321 1.228 1_565 S
O323 Zn312 2.024 1_565 S
O323 C314 1.058 . S
C324 O325 1.228 . S
C324 O326 1.267 . S
O325 C324 1.228 . S
O326 Zn313 1.969 1_655 S
O326 C324 1.267 . S
O327 Zn313 1.965 . S
O327 C331 1.260 . S
O328 Zn312 1.969 . S
O328 C331 1.258 . S
O329 Zn313 2.024 . S
O329 C316 1.058 . S
C330 O319 1.260 . S
C330 O320 1.260 . S
C331 O327 1.260 . S
C331 O328 1.258 . S
Zn332 O338 1.969 . S
Zn332 O339 1.965 . S
Zn332 O343 2.024 . S
Zn332 O348 1.969 . S
Zn333 O340 1.969 . S
Zn333 O346 1.969 . S
Zn333 O347 1.965 . S
Zn333 O349 2.024 . S
C334 O335 1.229 . S
C334 O343 1.058 . S
O335 C334 1.229 . S
C336 O337 1.229 . S
C336 O349 1.058 . S
O337 C336 1.229 . S
O338 Zn332 1.969 . S
O338 C341 1.267 . S
O339 Zn332 1.965 . S
O339 C350 1.260 . S
O340 Zn333 1.969 . S
O340 C350 1.258 . S
C341 O338 1.267 . S
C341 O342 1.228 . S
O342 C341 1.228 . S
O343 Zn332 2.024 . S
O343 C334 1.058 . S
C344 O345 1.228 . S
C344 O346 1.267 . S
O345 C344 1.228 . S
O346 Zn333 1.969 . S
O346 C344 1.267 . S
O347 Zn333 1.965 . S
O347 C351 1.260 . S
O348 Zn332 1.969 . S
O348 C351 1.258 . S
O349 Zn333 2.024 . S
O349 C336 1.058 . S
C350 O339 1.260 . S
C350 O340 1.258 . S
C351 O347 1.260 . S
C351 O348 1.258 . S
Zn352 O358 1.969 . S
Zn352 O359 1.965 . S
Zn352 O363 2.024 . S
Zn352 O368 1.969 . S
Zn353 O360 1.969 . S
Zn353 O366 1.969 . S
Zn353 O367 1.960 1_565 S
Zn353 O369 2.024 . S
C354 O355 1.229 . S
C354 O363 1.058 . S
O355 C354 1.229 . S
C356 O357 1.229 . S
C356 O369 1.058 . S
O357 C356 1.229 . S
O358 Zn352 1.969 . S
O358 C361 1.267 . S
O359 Zn352 1.965 . S
O359 C370 1.260 . S
O360 Zn353 1.969 . S
O360 C370 1.258 1_565 S
C361 O358 1.267 . S
C361 O362 1.228 . S
O362 C361 1.228 . S
O363 Zn352 2.024 . S
O363 C354 1.058 . S
C364 O365 1.228 . S
C364 O366 1.267 . S
O365 C364 1.228 . S
O366 Zn353 1.969 . S
O366 C364 1.267 . S
O367 Zn353 1.960 1_545 S
O367 C371 1.261 . S
O368 Zn352 1.969 . S
O368 C371 1.258 . S
O369 Zn353 2.024 . S
O369 C356 1.058 . S
C370 O359 1.260 . S
C370 O360 1.258 1_545 S
C371 O367 1.261 . S
C371 O368 1.258 . S
Zn372 O378 1.969 . S
Zn372 O379 1.965 . S
Zn372 O383 2.024 . S
Zn372 O388 1.969 . S
Zn373 O380 1.969 . S
Zn373 O386 1.969 . S
Zn373 O387 1.965 . S
Zn373 O389 2.024 . S
C374 O375 1.229 . S
C374 O383 1.058 . S
O375 C374 1.229 . S
C376 O377 1.229 . S
C376 O389 1.058 . S
O377 C376 1.229 . S
O378 Zn372 1.969 . S
O378 C381 1.267 . S
O379 Zn372 1.965 . S
O379 C390 1.260 . S
O380 Zn373 1.969 . S
O380 C390 1.258 . S
C381 O378 1.267 . S
C381 O382 1.228 . S
O382 C381 1.228 . S
O383 Zn372 2.024 . S
O383 C374 1.058 . S
C384 O385 1.228 . S
C384 O386 1.267 . S
O385 C384 1.228 . S
O386 Zn373 1.969 . S
O386 C384 1.267 . S
O387 Zn373 1.965 . S
O387 C391 1.260 . S
O388 Zn372 1.969 . S
O388 C391 1.258 . S
O389 Zn373 2.024 . S
O389 C376 1.058 . S
C390 O379 1.260 . S
C390 O380 1.258 . S
C391 O387 1.260 . S
C391 O388 1.258 . S
Zn392 O398 1.969 . S
Zn392 O399 1.965 . S
Zn392 O403 2.024 1_565 S
Zn392 O408 1.969 1_565 S
Zn393 O400 1.969 1_455 S
Zn393 O406 1.969 . S
Zn393 O407 1.965 . S
Zn393 O409 2.024 . S
C394 O395 1.229 1_545 S
C394 O403 1.058 . S
O395 C394 1.229 1_565 S
C396 O397 1.229 1_455 S
C396 O409 1.058 . S
O397 C396 1.229 1_655 S
O398 Zn392 1.969 . S
O398 C401 1.267 . S
O399 Zn392 1.965 . S
O399 C410 1.260 1_455 S
O400 Zn393 1.969 1_655 S
O400 C410 1.258 1_545 S
C401 O398 1.267 . S
C401 O402 1.228 . S
O402 C401 1.228 . S
O403 Zn392 2.024 1_545 S
O403 C394 1.058 . S
C404 O405 1.228 . S
C404 O406 1.267 . S
O405 C404 1.228 . S
O406 Zn393 1.969 . S
O406 C404 1.267 . S
O407 Zn393 1.965 . S
O407 C411 1.260 . S
O408 Zn392 1.969 1_545 S
O408 C411 1.258 . S
O409 Zn393 2.024 . S
O409 C396 1.058 . S
C410 O399 1.260 1_655 S
C410 O400 1.258 1_565 S
C411 O407 1.260 . S
C411 O408 1.258 . S
Zn412 O418 1.969 . S
Zn412 O419 1.965 . S
Zn412 O423 2.024 . S
Zn412 O428 1.969 . S
Zn413 O420 1.969 . S
Zn413 O426 1.969 . S
Zn413 O427 1.965 . S
Zn413 O429 2.024 . S
C414 O415 1.229 . S
C414 O423 1.058 . S
O415 C414 1.229 . S
C416 O417 1.229 . S
C416 O429 1.058 . S
O417 C416 1.229 . S
O418 Zn412 1.969 . S
O418 C421 1.267 . S
O419 Zn412 1.965 . S
O419 C430 1.260 . S
O420 Zn413 1.969 . S
O420 C430 1.258 . S
C421 O418 1.267 . S
C421 O422 1.228 . S
O422 C421 1.228 . S
O423 Zn412 2.024 . S
O423 C414 1.058 . S
C424 O425 1.228 . S
C424 O426 1.267 . S
O425 C424 1.228 . S
O426 Zn413 1.969 . S
O426 C424 1.267 . S
O427 Zn413 1.965 . S
O427 C431 1.260 . S
O428 Zn412 1.969 . S
O428 C431 1.258 . S
O429 Zn413 2.024 . S
O429 C416 1.058 . S
C430 O419 1.260 . S
C430 O420 1.258 . S
C431 O427 1.260 . S
C431 O428 1.258 . S
Zn432 O438 1.969 . S
Zn432 O439 1.965 . S
Zn432 O443 2.024 1_556 S
Zn432 O448 1.969 1_556 S
Zn433 O440 1.969 1_545 S
Zn433 O446 1.969 . S
Zn433 O447 1.965 . S
Zn433 O449 2.024 . S
C434 O435 1.229 1_554 S
C434 O443 1.058 . S
O435 C434 1.229 1_556 S
C436 O437 1.245 . S
C436 O449 1.043 1_565 S
O437 C436 1.245 . S
O438 Zn432 1.969 . S
O438 C441 1.267 . S
O439 Zn432 1.965 . S
O439 C450 1.260 1_545 S
O440 Zn433 1.969 1_565 S
O440 C450 1.258 1_554 S
C441 O438 1.267 . S
C441 O442 1.228 . S
O442 C441 1.228 . S
O443 Zn432 2.024 1_554 S
O443 C434 1.058 . S
C444 O445 1.228 . S
C444 O446 1.267 . S
O445 C444 1.228 . S
O446 Zn433 1.969 . S
O446 C444 1.267 . S
O447 Zn433 1.965 . S
O447 C451 1.260 . S
O448 Zn432 1.969 1_554 S
O448 C451 1.258 . S
O449 Zn433 2.024 . S
O449 C436 1.043 1_545 S
C450 O439 1.260 1_565 S
C450 O440 1.258 1_556 S
C451 O447 1.260 . S
C451 O448 1.258 . S
Zn452 O458 1.969 . S
Zn452 O459 1.965 . S
Zn452 O463 2.024 . S
Zn452 O468 1.969 . S
Zn453 O460 1.969 . S
Zn453 O466 1.969 . S
Zn453 O467 1.965 . S
Zn453 O469 2.024 . S
C454 O455 1.229 . S
C454 O463 1.058 . S
O455 C454 1.229 . S
C456 O457 1.229 . S
C456 O469 1.058 . S
O457 C456 1.229 . S
O458 Zn452 1.969 . S
O458 C461 1.267 . S
O459 Zn452 1.965 . S
O459 C470 1.260 . S
O460 Zn453 1.969 . S
O460 C470 1.258 . S
C461 O458 1.267 . S
C461 O462 1.228 . S
O462 C461 1.228 . S
O463 Zn452 2.024 . S
O463 C454 1.058 . S
C464 O465 1.228 . S
C464 O466 1.267 . S
O465 C464 1.228 . S
O466 Zn453 1.969 . S
O466 C464 1.267 . S
O467 Zn453 1.965 . S
O467 C471 1.260 . S
O468 Zn452 1.969 . S
O468 C471 1.258 . S
O469 Zn453 2.024 . S
O469 C456 1.058 . S
C470 O459 1.260 . S
C470 O460 1.258 . S
C471 O467 1.260 . S
C471 O468 1.258 . S
Zn472 O478 1.969 . S
Zn472 O479 1.965 . S
Zn472 O483 2.024 . S
Zn472 O488 1.969 . S
Zn473 O480 1.969 1_556 S
Zn473 O486 1.969 . S
Zn473 O487 1.965 1_556 S
Zn473 O489 2.024 . S
C474 O475 1.229 . S
C474 O483 1.058 . S
O475 C474 1.229 . S
C476 O477 1.229 . S
C476 O489 1.058 . S
O477 C476 1.229 . S
O478 Zn472 1.969 . S
O478 C481 1.267 . S
O479 Zn472 1.965 . S
O479 C490 1.260 . S
O480 Zn473 1.969 1_554 S
O480 C490 1.258 . S
C481 O478 1.267 . S
C481 O482 1.228 . S
O482 C481 1.228 . S
O483 Zn472 2.024 . S
O483 C474 1.058 . S
C484 O485 1.228 . S
C484 O486 1.267 . S
O485 C484 1.228 . S
O486 Zn473 1.969 . S
O486 C484 1.267 . S
O487 Zn473 1.965 1_554 S
O487 C491 1.260 . S
O488 Zn472 1.969 . S
O488 C491 1.258 . S
O489 Zn473 2.024 . S
O489 C476 1.058 . S
C490 O479 1.260 . S
C490 O480 1.258 . S
C491 O487 1.260 . S
C491 O488 1.258 . S
Zn492 O498 1.969 . S
Zn492 O499 1.965 . S
Zn492 O503 2.024 . S
Zn492 O508 1.969 . S
Zn493 O500 1.969 . S
Zn493 O506 1.969 . S
Zn493 O507 1.965 . S
Zn493 O509 2.024 . S
C494 O495 1.229 . S
C494 O503 1.058 . S
O495 C494 1.229 . S
C496 O497 1.229 . S
C496 O509 1.058 . S
O497 C496 1.229 . S
O498 Zn492 1.969 . S
O498 C501 1.267 . S
O499 Zn492 1.965 . S
O499 C510 1.260 . S
O500 Zn493 1.969 . S
O500 C510 1.258 . S
C501 O498 1.267 . S
C501 O502 1.228 . S
O502 C501 1.228 . S
O503 Zn492 2.024 . S
O503 C494 1.058 . S
C504 O505 1.228 . S
C504 O506 1.267 . S
O505 C504 1.228 . S
O506 Zn493 1.969 . S
O506 C504 1.267 . S
O507 Zn493 1.965 . S
O507 C511 1.260 . S
O508 Zn492 1.969 . S
O508 C511 1.258 . S
O509 Zn493 2.024 . S
O509 C496 1.058 . S
C510 O499 1.260 . S
C510 O500 1.258 . S
C511 O507 1.260 . S
C511 O508 1.258 . S
Zn512 O518 1.969 . S
Zn512 O519 1.965 . S
Zn512 O523 2.024 . S
Zn512 O528 1.969 . S
Zn513 O520 1.969 . S
Zn513 O526 1.969 . S
Zn513 O527 1.965 1_655 S
Zn513 O529 2.024 . S
C514 O515 1.229 . S
C514 O523 1.058 . S
O515 C514 1.229 . S
C516 O517 1.229 . S
C516 O529 1.058 . S
O517 C516 1.229 . S
O518 Zn512 1.969 . S
O518 C521 1.267 . S
O519 Zn512 1.965 . S
O519 C530 1.260 . S
O520 Zn513 1.969 . S
O520 C530 1.258 1_655 S
C521 O518 1.267 . S
C521 O522 1.228 . S
O522 C521 1.228 . S
O523 Zn512 2.024 . S
O523 C514 1.058 . S
C524 O525 1.228 . S
C524 O526 1.267 . S
O525 C524 1.228 . S
O526 Zn513 1.969 . S
O526 C524 1.267 . S
O527 Zn513 1.965 1_455 S
O527 C531 1.260 . S
O528 Zn512 1.969 . S
O528 C531 1.258 . S
O529 Zn513 2.024 . S
O529 C516 1.058 . S
C530 O519 1.260 . S
C530 O520 1.258 1_455 S
C531 O527 1.260 . S
C531 O528 1.258 . S
Zn532 O538 1.969 . S
Zn532 O539 1.965 . S
Zn532 O543 2.024 . S
Zn532 O548 1.969 . S
Zn533 O540 1.969 . S
Zn533 O546 1.969 . S
Zn533 O547 1.965 . S
Zn533 O549 2.024 . S
C534 O535 1.229 . S
C534 O543 1.058 . S
O535 C534 1.229 . S
C536 O537 1.229 . S
C536 O549 1.058 . S
O537 C536 1.229 . S
O538 Zn532 1.969 . S
O538 C541 1.267 . S
O539 Zn532 1.965 . S
O539 C550 1.260 . S
O540 Zn533 1.969 . S
O540 C550 1.258 . S
C541 O538 1.267 . S
C541 O542 1.228 . S
O542 C541 1.228 . S
O543 Zn532 2.024 . S
O543 C534 1.058 . S
C544 O545 1.228 . S
C544 O546 1.267 . S
O545 C544 1.228 . S
O546 Zn533 1.969 . S
O546 C544 1.267 . S
O547 Zn533 1.965 . S
O547 C551 1.260 . S
O548 Zn532 1.969 . S
O548 C551 1.258 . S
O549 Zn533 2.024 . S
O549 C536 1.058 . S
C550 O539 1.260 . S
C550 O540 1.258 . S
C551 O547 1.260 . S
C551 O548 1.258 . S
Zn552 O558 1.969 . S
Zn552 O559 1.965 . S
Zn552 O563 2.024 . S
Zn552 O568 1.969 . S
Zn553 O560 1.969 . S
Zn553 O566 1.969 . S
Zn553 O567 1.965 . S
Zn553 O569 2.024 . S
C554 O555 1.229 . S
C554 O563 1.058 . S
O555 C554 1.229 . S
C556 O557 1.229 . S
C556 O569 1.058 . S
O557 C556 1.229 . S
O558 Zn552 1.969 . S
O558 C561 1.267 . S
O559 Zn552 1.965 . S
O559 C570 1.260 . S
O560 Zn553 1.969 . S
O560 C570 1.258 . S
C561 O558 1.267 . S
C561 O562 1.228 . S
O562 C561 1.228 . S
O563 Zn552 2.024 . S
O563 C554 1.058 . S
C564 O565 1.228 . S
C564 O566 1.267 . S
O565 C564 1.228 . S
O566 Zn553 1.969 . S
O566 C564 1.267 . S
O567 Zn553 1.965 . S
O567 C571 1.260 . S
O568 Zn552 1.969 . S
O568 C571 1.258 . S
O569 Zn553 2.024 . S
O569 C556 1.058 . S
C570 O559 1.260 . S
C570 O560 1.258 . S
C571 O567 1.260 . S
C571 O568 1.258 . S
Zn572 O578 1.969 . S
Zn572 O579 1.965 . S
Zn572 O583 2.024 . S
Zn572 O588 1.969 . S
Zn573 O580 1.969 . S
Zn573 O586 1.969 . S
Zn573 O587 1.965 . S
Zn573 O589 2.024 . S
C574 O575 1.229 . S
C574 O583 1.058 . S
O575 C574 1.229 . S
C576 O577 1.229 . S
C576 O589 1.058 . S
O577 C576 1.229 . S
O578 Zn572 1.969 . S
O578 C581 1.267 . S
O579 Zn572 1.965 . S
O579 C590 1.260 . S
O580 Zn573 1.969 . S
O580 C590 1.258 . S
C581 O578 1.267 . S
C581 O582 1.228 . S
O582 C581 1.228 . S
O583 Zn572 2.024 . S
O583 C574 1.058 . S
C584 O585 1.228 . S
C584 O586 1.267 . S
O585 C584 1.228 . S
O586 Zn573 1.969 . S
O586 C584 1.267 . S
O587 Zn573 1.965 . S
O587 C591 1.260 . S
O588 Zn572 1.969 . S
O588 C591 1.258 . S
O589 Zn573 2.024 . S
O589 C576 1.058 . S
C590 O579 1.260 . S
C590 O580 1.258 . S
C591 O587 1.260 . S
C591 O588 1.258 . S
Zn592 O598 1.969 . S
Zn592 O599 1.965 . S
Zn592 O603 2.024 . S
Zn592 O608 1.969 . S
Zn593 O600 1.969 . S
Zn593 O606 1.969 . S
Zn593 O607 1.965 . S
Zn593 O609 2.024 . S
C594 O595 1.229 . S
C594 O603 1.058 . S
O595 C594 1.229 . S
C596 O597 1.229 . S
C596 O609 1.058 . S
O597 C596 1.229 . S
O598 Zn592 1.969 . S
O598 C601 1.267 . S
O599 Zn592 1.965 . S
O599 C610 1.260 . S
O600 Zn593 1.969 . S
O600 C610 1.258 . S
C601 O598 1.267 . S
C601 O602 1.228 . S
O602 C601 1.228 . S
O603 Zn592 2.024 . S
O603 C594 1.058 . S
C604 O605 1.228 . S
C604 O606 1.267 . S
O605 C604 1.228 . S
O606 Zn593 1.969 . S
O606 C604 1.267 . S
O607 Zn593 1.965 . S
O607 C611 1.260 . S
O608 Zn592 1.969 . S
O608 C611 1.258 . S
O609 Zn593 2.024 . S
O609 C596 1.058 . S
C610 O599 1.260 . S
C610 O600 1.258 . S
C611 O607 1.260 . S
C611 O608 1.258 . S
Zn612 O618 1.969 . S
Zn612 O619 1.965 . S
Zn612 O623 2.024 1_655 S
Zn612 O628 1.969 1_655 S
Zn613 O620 1.969 1_554 S
Zn613 O626 1.969 . S
Zn613 O627 1.965 . S
Zn613 O629 2.024 . S
C614 O615 1.229 1_455 S
C614 O623 1.058 . S
O615 C614 1.229 1_655 S
C616 O617 1.229 1_554 S
C616 O629 1.058 . S
O617 C616 1.229 1_556 S
O618 Zn612 1.969 . S
O618 C621 1.267 . S
O619 Zn612 1.965 . S
O619 C630 1.260 1_554 S
O620 Zn613 1.969 1_556 S
O620 C630 1.258 1_455 S
C621 O618 1.267 . S
C621 O622 1.228 . S
O622 C621 1.228 . S
O623 Zn612 2.024 1_455 S
O623 C614 1.058 . S
C624 O625 1.228 . S
C624 O626 1.267 . S
O625 C624 1.228 . S
O626 Zn613 1.969 . S
O626 C624 1.267 . S
O627 Zn613 1.965 . S
O627 C631 1.260 . S
O628 Zn612 1.969 1_455 S
O628 C631 1.258 . S
O629 Zn613 2.024 . S
O629 C616 1.058 . S
C630 O619 1.260 1_556 S
C630 O620 1.258 1_655 S
C631 O627 1.260 . S
C631 O628 1.258 . S
C632 C633 1.391 . S
C632 C634 1.394 . S
C632 H648 0.931 . S
C633 C632 1.391 . S
C633 C637 1.376 1_455 S
C634 C632 1.394 . S
C634 C635 1.369 . S
C634 C638 1.531 . S
C635 C634 1.369 . S
C635 C636 1.410 1_455 S
C635 C643 1.503 . S
C636 C635 1.410 1_655 S
C636 C637 1.392 . S
C636 C639 1.511 . S
C637 C633 1.376 1_655 S
C637 C636 1.392 . S
C637 H649 0.929 . S
C638 C634 1.531 . S
C638 H650 0.960 . S
C638 H651 0.962 . S
C638 H652 0.960 . S
C639 C636 1.511 . S
C639 H653 0.961 . S
C639 H654 0.961 . S
C639 H655 0.961 . S
C640 C641 1.370 1_556 S
C640 C642 1.363 . S
C640 H656 0.931 . S
C641 C640 1.370 1_554 S
C641 C645 1.408 . S
C642 C640 1.363 . S
C642 C643 1.370 . S
C642 C646 1.524 . S
C643 C635 1.503 . S
C643 C642 1.370 . S
C643 C644 1.403 1_556 S
C644 C643 1.403 1_554 S
C644 C645 1.404 . S
C644 C647 1.539 . S
C645 C641 1.408 . S
C645 C644 1.404 . S
C645 H657 0.930 . S
C646 C642 1.524 . S
C646 H658 0.956 . S
C646 H659 0.961 . S
C646 H660 0.961 . S
C647 C644 1.539 . S
C647 H661 0.958 . S
C647 H662 0.961 . S
C647 H663 0.960 . S
H648 C632 0.931 . S
H649 C637 0.929 . S
H650 C638 0.960 . S
H651 C638 0.962 . S
H652 C638 0.960 . S
H653 C639 0.961 . S
H654 C639 0.961 . S
H655 C639 0.961 . S
H656 C640 0.931 . S
H657 C645 0.930 . S
H658 C646 0.956 . S
H659 C646 0.961 . S
H660 C646 0.961 . S
H661 C647 0.958 . S
H662 C647 0.961 . S
H663 C647 0.960 . S
C664 C665 1.391 . S
C664 C666 1.394 . S
C664 H680 0.931 . S
C665 C664 1.391 . S
C665 C669 1.376 . S
C666 C664 1.394 . S
C666 C667 1.369 . S
C666 C670 1.531 . S
C667 C666 1.369 . S
C667 C668 1.410 . S
C667 C675 1.503 . S
C668 C667 1.410 . S
C668 C669 1.392 . S
C668 C671 1.511 . S
C669 C665 1.376 . S
C669 C668 1.392 . S
C669 H681 0.929 . S
C670 C666 1.531 . S
C670 H682 0.960 . S
C670 H683 0.962 . S
C670 H684 0.960 . S
C671 C668 1.511 . S
C671 H685 0.961 . S
C671 H686 0.961 . S
C671 H687 0.961 . S
C672 C673 1.370 . S
C672 C674 1.363 . S
C672 H688 0.931 . S
C673 C672 1.370 . S
C673 C677 1.408 . S
C674 C672 1.363 . S
C674 C675 1.370 . S
C674 C678 1.524 . S
C675 C667 1.503 . S
C675 C674 1.370 . S
C675 C676 1.403 . S
C676 C675 1.403 . S
C676 C677 1.404 . S
C676 C679 1.539 . S
C677 C673 1.408 . S
C677 C676 1.404 . S
C677 H689 0.930 . S
C678 C674 1.524 . S
C678 H690 0.956 . S
C678 H691 0.961 . S
C678 H692 0.961 . S
C679 C676 1.539 . S
C679 H693 0.958 . S
C679 H694 0.961 . S
C679 H695 0.960 . S
H680 C664 0.931 . S
H681 C669 0.929 . S
H682 C670 0.960 . S
H683 C670 0.962 . S
H684 C670 0.960 . S
H685 C671 0.961 . S
H686 C671 0.961 . S
H687 C671 0.961 . S
H688 C672 0.931 . S
H689 C677 0.930 . S
H690 C678 0.956 . S
H691 C678 0.961 . S
H692 C678 0.961 . S
H693 C679 0.958 . S
H694 C679 0.961 . S
H695 C679 0.960 . S
C696 C697 1.391 . S
C696 C698 1.394 . S
C696 H712 0.931 . S
C697 C696 1.391 . S
C697 C701 1.376 . S
C698 C696 1.394 . S
C698 C699 1.369 . S
C698 C702 1.531 . S
C699 C698 1.369 . S
C699 C700 1.410 . S
C699 C707 1.503 . S
C700 C699 1.410 . S
C700 C701 1.392 . S
C700 C703 1.511 . S
C701 C697 1.376 . S
C701 C700 1.392 . S
C701 H713 0.929 . S
C702 C698 1.531 . S
C702 H714 0.960 . S
C702 H715 0.962 . S
C702 H716 0.960 . S
C703 C700 1.511 . S
C703 H717 0.961 . S
C703 H718 0.961 . S
C703 H719 0.961 . S
C704 C705 1.370 . S
C704 C706 1.363 . S
C704 H720 0.931 . S
C705 C704 1.370 . S
C705 C709 1.408 . S
C706 C704 1.363 . S
C706 C707 1.370 . S
C706 C710 1.524 . S
C707 C699 1.503 . S
C707 C706 1.370 . S
C707 C708 1.403 . S
C708 C707 1.403 . S
C708 C709 1.404 . S
C708 C711 1.539 . S
C709 C705 1.408 . S
C709 C708 1.404 . S
C709 H721 0.930 . S
C710 C706 1.524 . S
C710 H722 0.956 . S
C710 H723 0.961 . S
C710 H724 0.961 . S
C711 C708 1.539 . S
C711 H725 0.958 . S
C711 H726 0.961 . S
C711 H727 0.960 . S
H712 C696 0.931 . S
H713 C701 0.929 . S
H714 C702 0.960 . S
H715 C702 0.962 . S
H716 C702 0.960 . S
H717 C703 0.961 . S
H718 C703 0.961 . S
H719 C703 0.961 . S
H720 C704 0.931 . S
H721 C709 0.930 . S
H722 C710 0.956 . S
H723 C710 0.961 . S
H724 C710 0.961 . S
H725 C711 0.958 . S
H726 C711 0.961 . S
H727 C711 0.960 . S
C728 C729 1.391 . S
C728 C730 1.394 . S
C728 H744 0.931 . S
C729 C728 1.391 . S
C729 C733 1.376 . S
C730 C728 1.394 . S
C730 C731 1.369 . S
C730 C734 1.531 . S
C731 C730 1.369 . S
C731 C732 1.410 . S
C731 C739 1.503 . S
C732 C731 1.410 . S
C732 C733 1.392 . S
C732 C735 1.511 . S
C733 C729 1.376 . S
C733 C732 1.392 . S
C733 H745 0.929 . S
C734 C730 1.531 . S
C734 H746 0.960 . S
C734 H747 0.962 . S
C734 H748 0.960 . S
C735 C732 1.511 . S
C735 H749 0.961 . S
C735 H750 0.961 . S
C735 H751 0.961 . S
C736 C737 1.370 . S
C736 C738 1.363 . S
C736 H752 0.931 . S
C737 C736 1.370 . S
C737 C741 1.408 . S
C738 C736 1.363 . S
C738 C739 1.370 . S
C738 C742 1.524 . S
C739 C731 1.503 . S
C739 C738 1.370 . S
C739 C740 1.403 . S
C740 C739 1.403 . S
C740 C741 1.404 . S
C740 C743 1.539 . S
C741 C737 1.408 . S
C741 C740 1.404 . S
C741 H753 0.930 . S
C742 C738 1.524 . S
C742 H754 0.956 . S
C742 H755 0.961 . S
C742 H756 0.961 . S
C743 C740 1.539 . S
C743 H757 0.958 . S
C743 H758 0.961 . S
C743 H759 0.960 . S
H744 C728 0.931 . S
H745 C733 0.929 . S
H746 C734 0.960 . S
H747 C734 0.962 . S
H748 C734 0.960 . S
H749 C735 0.961 . S
H750 C735 0.961 . S
H751 C735 0.961 . S
H752 C736 0.931 . S
H753 C741 0.930 . S
H754 C742 0.956 . S
H755 C742 0.961 . S
H756 C742 0.961 . S
H757 C743 0.958 . S
H758 C743 0.961 . S
H759 C743 0.960 . S
C760 C761 1.391 . S
C760 C762 1.394 . S
C760 H776 0.931 1_455 S
C761 C760 1.391 . S
C761 C765 1.376 . S
C762 C760 1.394 . S
C762 C763 1.369 . S
C762 C766 1.531 1_455 S
C763 C762 1.369 . S
C763 C764 1.410 . S
C763 C771 1.503 . S
C764 C763 1.410 . S
C764 C765 1.392 . S
C764 C767 1.511 . S
C765 C761 1.376 . S
C765 C764 1.392 . S
C765 H777 0.929 . S
C766 C762 1.531 1_655 S
C766 H778 0.960 . S
C766 H779 0.962 . S
C766 H780 0.960 . S
C767 C764 1.511 . S
C767 H781 0.961 . S
C767 H782 0.961 . S
C767 H783 0.961 . S
C768 C769 1.370 . S
C768 C770 1.363 . S
C768 H784 0.931 . S
C769 C768 1.370 . S
C769 C773 1.408 . S
C770 C768 1.363 . S
C770 C771 1.370 . S
C770 C774 1.524 . S
C771 C763 1.503 . S
C771 C770 1.370 . S
C771 C772 1.403 . S
C772 C771 1.403 . S
C772 C773 1.404 . S
C772 C775 1.539 . S
C773 C769 1.408 . S
C773 C772 1.404 . S
C773 H785 0.930 . S
C774 C770 1.524 . S
C774 H786 0.956 . S
C774 H787 0.961 . S
C774 H788 0.961 . S
C775 C772 1.539 . S
C775 H789 0.958 . S
C775 H790 0.961 . S
C775 H791 0.960 . S
H776 C760 0.931 1_655 S
H777 C765 0.929 . S
H778 C766 0.960 . S
H779 C766 0.962 . S
H780 C766 0.960 . S
H781 C767 0.961 . S
H782 C767 0.961 . S
H783 C767 0.961 . S
H784 C768 0.931 . S
H785 C773 0.930 . S
H786 C774 0.956 . S
H787 C774 0.961 . S
H788 C774 0.961 . S
H789 C775 0.958 . S
H790 C775 0.961 . S
H791 C775 0.960 . S
C792 C793 1.391 . S
C792 C794 1.394 . S
C792 H808 0.931 . S
C793 C792 1.391 . S
C793 C797 1.376 . S
C794 C792 1.394 . S
C794 C795 1.369 . S
C794 C798 1.531 . S
C795 C794 1.369 . S
C795 C796 1.410 . S
C795 C803 1.503 . S
C796 C795 1.410 . S
C796 C797 1.392 . S
C796 C799 1.511 . S
C797 C793 1.376 . S
C797 C796 1.392 . S
C797 H809 0.929 . S
C798 C794 1.531 . S
C798 H810 0.960 . S
C798 H811 0.962 . S
C798 H812 0.960 . S
C799 C796 1.511 . S
C799 H813 0.961 . S
C799 H814 0.961 . S
C799 H815 0.961 . S
C800 C801 1.370 . S
C800 C802 1.363 . S
C800 H816 0.931 . S
C801 C800 1.370 . S
C801 C805 1.408 . S
C802 C800 1.363 . S
C802 C803 1.370 . S
C802 C806 1.524 . S
C803 C795 1.503 . S
C803 C802 1.370 . S
C803 C804 1.403 . S
C804 C803 1.403 . S
C804 C805 1.404 . S
C804 C807 1.539 . S
C805 C801 1.408 . S
C805 C804 1.404 . S
C805 H817 0.930 . S
C806 C802 1.524 . S
C806 H818 0.956 . S
C806 H819 0.961 . S
C806 H820 0.961 . S
C807 C804 1.539 . S
C807 H821 0.958 . S
C807 H822 0.961 . S
C807 H823 0.960 . S
H808 C792 0.931 . S
H809 C797 0.929 . S
H810 C798 0.960 . S
H811 C798 0.962 . S
H812 C798 0.960 . S
H813 C799 0.961 . S
H814 C799 0.961 . S
H815 C799 0.961 . S
H816 C800 0.931 . S
H817 C805 0.930 . S
H818 C806 0.956 . S
H819 C806 0.961 . S
H820 C806 0.961 . S
H821 C807 0.958 . S
H822 C807 0.961 . S
H823 C807 0.960 . S
C824 C825 1.391 . S
C824 C826 1.394 . S
C824 H840 0.931 . S
C825 C824 1.391 . S
C825 C829 1.376 . S
C826 C824 1.394 . S
C826 C827 1.369 . S
C826 C830 1.531 . S
C827 C826 1.369 . S
C827 C828 1.410 . S
C827 C835 1.503 . S
C828 C827 1.410 . S
C828 C829 1.392 . S
C828 C831 1.511 . S
C829 C825 1.376 . S
C829 C828 1.392 . S
C829 H841 0.929 . S
C830 C826 1.531 . S
C830 H842 0.960 . S
C830 H843 0.962 . S
C830 H844 0.960 . S
C831 C828 1.511 . S
C831 H845 0.961 . S
C831 H846 0.961 . S
C831 H847 0.961 . S
C832 C833 1.370 . S
C832 C834 1.363 . S
C832 H848 0.931 . S
C833 C832 1.370 . S
C833 C837 1.408 . S
C834 C832 1.363 . S
C834 C835 1.370 . S
C834 C838 1.524 . S
C835 C827 1.503 . S
C835 C834 1.370 . S
C835 C836 1.403 . S
C836 C835 1.403 . S
C836 C837 1.404 . S
C836 C839 1.539 . S
C837 C833 1.408 . S
C837 C836 1.404 . S
C837 H849 0.930 . S
C838 C834 1.524 . S
C838 H850 0.956 . S
C838 H851 0.961 . S
C838 H852 0.961 . S
C839 C836 1.539 . S
C839 H853 0.958 . S
C839 H854 0.961 . S
C839 H855 0.960 . S
H840 C824 0.931 . S
H841 C829 0.929 . S
H842 C830 0.960 . S
H843 C830 0.962 . S
H844 C830 0.960 . S
H845 C831 0.961 . S
H846 C831 0.961 . S
H847 C831 0.961 . S
H848 C832 0.931 . S
H849 C837 0.930 . S
H850 C838 0.956 . S
H851 C838 0.961 . S
H852 C838 0.961 . S
H853 C839 0.958 . S
H854 C839 0.961 . S
H855 C839 0.960 . S
C856 C857 1.391 . S
C856 C858 1.394 . S
C856 H872 0.931 . S
C857 C856 1.391 . S
C857 C861 1.376 . S
C858 C856 1.394 . S
C858 C859 1.369 . S
C858 C862 1.531 . S
C859 C858 1.369 . S
C859 C860 1.410 . S
C859 C867 1.503 . S
C860 C859 1.410 . S
C860 C861 1.392 . S
C860 C863 1.511 . S
C861 C857 1.376 . S
C861 C860 1.392 . S
C861 H873 0.929 . S
C862 C858 1.531 . S
C862 H874 0.960 . S
C862 H875 0.962 . S
C862 H876 0.960 . S
C863 C860 1.511 . S
C863 H877 0.961 . S
C863 H878 0.961 . S
C863 H879 0.961 . S
C864 C865 1.370 . S
C864 C866 1.363 . S
C864 H880 0.931 . S
C865 C864 1.370 . S
C865 C869 1.408 . S
C866 C864 1.363 . S
C866 C867 1.370 . S
C866 C870 1.524 . S
C867 C859 1.503 . S
C867 C866 1.370 . S
C867 C868 1.403 . S
C868 C867 1.403 . S
C868 C869 1.404 . S
C868 C871 1.539 . S
C869 C865 1.408 . S
C869 C868 1.404 . S
C869 H881 0.930 . S
C870 C866 1.524 . S
C870 H882 0.956 . S
C870 H883 0.961 . S
C870 H884 0.961 . S
C871 C868 1.539 . S
C871 H885 0.958 . S
C871 H886 0.961 . S
C871 H887 0.960 . S
H872 C856 0.931 . S
H873 C861 0.929 . S
H874 C862 0.960 . S
H875 C862 0.962 . S
H876 C862 0.960 . S
H877 C863 0.961 . S
H878 C863 0.961 . S
H879 C863 0.961 . S
H880 C864 0.931 . S
H881 C869 0.930 . S
H882 C870 0.956 . S
H883 C870 0.961 . S
H884 C870 0.961 . S
H885 C871 0.958 . S
H886 C871 0.961 . S
H887 C871 0.960 . S
C888 C889 1.391 . S
C888 C890 1.394 . S
C888 H904 0.931 . S
C889 C888 1.391 . S
C889 C893 1.376 . S
C890 C888 1.394 . S
C890 C891 1.369 . S
C890 C894 1.531 . S
C891 C890 1.369 . S
C891 C892 1.410 . S
C891 C899 1.503 . S
C892 C891 1.410 . S
C892 C893 1.392 . S
C892 C895 1.537 . S
C893 C889 1.376 . S
C893 C892 1.392 . S
C893 H905 0.929 . S
C894 C890 1.531 . S
C894 H906 0.960 . S
C894 H907 0.962 . S
C894 H908 0.960 . S
C895 C892 1.537 . S
C895 H909 0.957 1_655 S
C895 H910 0.947 1_655 S
C895 H911 0.953 1_655 S
C896 C897 1.390 . S
C896 C898 1.334 1_455 S
C896 H912 0.943 . S
C897 C896 1.390 . S
C897 C901 1.408 . S
C898 C896 1.334 1_655 S
C898 C899 1.370 . S
C898 C902 1.524 1_545 S
C899 C891 1.503 . S
C899 C898 1.370 . S
C899 C900 1.403 . S
C900 C899 1.403 . S
C900 C901 1.404 1_655 S
C900 C903 1.539 . S
C901 C897 1.408 . S
C901 C900 1.404 1_455 S
C901 H913 0.930 . S
C902 C898 1.524 1_565 S
C902 H914 0.956 . S
C902 H915 0.961 . S
C902 H916 0.961 . S
C903 C900 1.539 . S
C903 H917 0.958 . S
C903 H918 0.961 1_655 S
C903 H919 0.960 . S
H904 C888 0.931 . S
H905 C893 0.929 . S
H906 C894 0.960 . S
H907 C894 0.962 . S
H908 C894 0.960 . S
H909 C895 0.957 1_455 S
H910 C895 0.947 1_455 S
H911 C895 0.953 1_455 S
H912 C896 0.943 . S
H913 C901 0.930 . S
H914 C902 0.956 . S
H915 C902 0.961 . S
H916 C902 0.961 . S
H917 C903 0.958 . S
H918 C903 0.961 1_455 S
H919 C903 0.960 . S
C920 C921 1.391 . S
C920 C922 1.394 . S
C920 H936 0.931 . S
C921 C920 1.391 . S
C921 C925 1.376 . S
C922 C920 1.394 . S
C922 C923 1.369 . S
C922 C926 1.531 . S
C923 C922 1.369 . S
C923 C924 1.410 . S
C923 C931 1.503 . S
C924 C923 1.410 . S
C924 C925 1.392 . S
C924 C927 1.511 . S
C925 C921 1.376 . S
C925 C924 1.392 . S
C925 H937 0.929 . S
C926 C922 1.531 . S
C926 H938 0.960 . S
C926 H939 0.962 . S
C926 H940 0.960 . S
C927 C924 1.511 . S
C927 H941 0.961 . S
C927 H942 0.961 . S
C927 H943 0.961 . S
C928 C929 1.370 . S
C928 C930 1.363 . S
C928 H944 0.931 . S
C929 C928 1.370 . S
C929 C933 1.408 . S
C930 C928 1.363 . S
C930 C931 1.370 . S
C930 C934 1.524 . S
C931 C923 1.503 . S
C931 C930 1.370 . S
C931 C932 1.403 . S
C932 C931 1.403 . S
C932 C933 1.404 . S
C932 C935 1.539 . S
C933 C929 1.408 . S
C933 C932 1.404 . S
C933 H945 0.930 . S
C934 C930 1.524 . S
C934 H946 0.956 . S
C934 H947 0.961 . S
C934 H948 0.961 . S
C935 C932 1.539 . S
C935 H949 0.958 . S
C935 H950 0.961 . S
C935 H951 0.960 . S
H936 C920 0.931 . S
H937 C925 0.929 . S
H938 C926 0.960 . S
H939 C926 0.962 . S
H940 C926 0.960 . S
H941 C927 0.961 . S
H942 C927 0.961 . S
H943 C927 0.961 . S
H944 C928 0.931 . S
H945 C933 0.930 . S
H946 C934 0.956 . S
H947 C934 0.961 . S
H948 C934 0.961 . S
H949 C935 0.958 . S
H950 C935 0.961 . S
H951 C935 0.960 . S
C952 C953 1.391 . S
C952 C954 1.394 . S
C952 H968 0.931 . S
C953 C952 1.391 . S
C953 C957 1.376 . S
C954 C952 1.394 . S
C954 C955 1.369 . S
C954 C958 1.531 . S
C955 C954 1.369 . S
C955 C956 1.410 . S
C955 C963 1.503 . S
C956 C955 1.410 . S
C956 C957 1.392 . S
C956 C959 1.511 . S
C957 C953 1.376 . S
C957 C956 1.392 . S
C957 H969 0.929 . S
C958 C954 1.531 . S
C958 H970 0.960 . S
C958 H971 0.962 1_565 S
C958 H972 0.960 . S
C959 C956 1.511 . S
C959 H973 0.961 . S
C959 H974 0.961 . S
C959 H975 0.961 . S
C960 C961 1.370 1_545 S
C960 C962 1.363 . S
C960 H976 0.931 . S
C961 C960 1.370 1_565 S
C961 C965 1.408 . S
C962 C960 1.363 . S
C962 C963 1.370 1_545 S
C962 C966 1.524 . S
C963 C955 1.503 . S
C963 C962 1.370 1_565 S
C963 C964 1.403 . S
C964 C963 1.403 . S
C964 C965 1.404 . S
C964 C967 1.539 . S
C965 C961 1.408 . S
C965 C964 1.404 . S
C965 H977 0.930 . S
C966 C962 1.524 . S
C966 H978 0.956 . S
C966 H979 0.961 . S
C966 H980 0.961 . S
C967 C964 1.539 . S
C967 H981 0.958 . S
C967 H982 0.961 . S
C967 H983 0.960 . S
H968 C952 0.931 . S
H969 C957 0.929 . S
H970 C958 0.960 . S
H971 C958 0.962 1_545 S
H972 C958 0.960 . S
H973 C959 0.961 . S
H974 C959 0.961 . S
H975 C959 0.961 . S
H976 C960 0.931 . S
H977 C965 0.930 . S
H978 C966 0.956 . S
H979 C966 0.961 . S
H980 C966 0.961 . S
H981 C967 0.958 . S
H982 C967 0.961 . S
H983 C967 0.960 . S
C984 C985 1.391 . S
C984 C986 1.394 . S
C984 H1000 0.931 . S
C985 C984 1.391 . S
C985 C989 1.376 . S
C986 C984 1.394 . S
C986 C987 1.369 . S
C986 C990 1.531 . S
C987 C986 1.369 . S
C987 C988 1.410 . S
C987 C995 1.503 . S
C988 C987 1.410 . S
C988 C989 1.392 . S
C988 C991 1.511 . S
C989 C985 1.376 . S
C989 C988 1.392 . S
C989 H1001 0.929 . S
C990 C986 1.531 . S
C990 H1002 0.960 . S
C990 H1003 0.962 . S
C990 H1004 0.960 . S
C991 C988 1.511 . S
C991 H1005 0.961 . S
C991 H1006 0.961 . S
C991 H1007 0.961 . S
C992 C993 1.370 . S
C992 C994 1.363 . S
C992 H1008 0.931 . S
C993 C992 1.370 . S
C993 C997 1.408 . S
C994 C992 1.363 . S
C994 C995 1.370 . S
C994 C998 1.524 . S
C995 C987 1.503 . S
C995 C994 1.370 . S
C995 C996 1.403 . S
C996 C995 1.403 . S
C996 C997 1.404 . S
C996 C999 1.539 . S
C997 C993 1.408 . S
C997 C996 1.404 . S
C997 H1009 0.930 . S
C998 C994 1.524 . S
C998 H1010 0.956 . S
C998 H1011 0.961 . S
C998 H1012 0.961 . S
C999 C996 1.539 . S
C999 H1013 0.958 . S
C999 H1014 0.961 . S
C999 H1015 0.960 . S
H1000 C984 0.931 . S
H1001 C989 0.929 . S
H1002 C990 0.960 . S
H1003 C990 0.962 . S
H1004 C990 0.960 . S
H1005 C991 0.961 . S
H1006 C991 0.961 . S
H1007 C991 0.961 . S
H1008 C992 0.931 . S
H1009 C997 0.930 . S
H1010 C998 0.956 . S
H1011 C998 0.961 . S
H1012 C998 0.961 . S
H1013 C999 0.958 . S
H1014 C999 0.961 . S
H1015 C999 0.960 . S
C1016 C1017 1.391 1_565 S
C1016 C1018 1.394 . S
C1016 H1032 0.931 . S
C1017 C1016 1.391 1_545 S
C1017 C1021 1.376 . S
C1018 C1016 1.394 . S
C1018 C1019 1.369 1_565 S
C1018 C1022 1.531 . S
C1019 C1018 1.369 1_545 S
C1019 C1020 1.410 . S
C1019 C1027 1.503 . S
C1020 C1019 1.410 . S
C1020 C1021 1.392 . S
C1020 C1023 1.511 . S
C1021 C1017 1.376 . S
C1021 C1020 1.392 . S
C1021 H1033 0.929 . S
C1022 C1018 1.531 . S
C1022 H1034 0.960 . S
C1022 H1035 0.962 . S
C1022 H1036 0.960 . S
C1023 C1020 1.511 . S
C1023 H1037 0.961 . S
C1023 H1038 0.961 . S
C1023 H1039 0.961 . S
C1024 C1025 1.365 . S
C1024 C1026 1.363 . S
C1024 H1040 0.931 . S
C1025 C1024 1.365 . S
C1025 C1029 1.411 1_655 S
C1026 C1024 1.363 . S
C1026 C1027 1.370 . S
C1026 C1030 1.524 . S
C1027 C1019 1.503 . S
C1027 C1026 1.370 . S
C1027 C1028 1.403 . S
C1028 C1027 1.403 . S
C1028 C1029 1.404 1_655 S
C1028 C1031 1.539 1_655 S
C1029 C1025 1.411 1_455 S
C1029 C1028 1.404 1_455 S
C1029 H1041 0.930 . S
C1030 C1026 1.524 . S
C1030 H1042 0.956 1_545 S
C1030 H1043 0.961 . S
C1030 H1044 0.961 . S
C1031 C1028 1.539 1_455 S
C1031 H1045 0.958 1_545 S
C1031 H1046 0.961 . S
C1031 H1047 0.960 . S
H1032 C1016 0.931 . S
H1033 C1021 0.929 . S
H1034 C1022 0.960 . S
H1035 C1022 0.962 . S
H1036 C1022 0.960 . S
H1037 C1023 0.961 . S
H1038 C1023 0.961 . S
H1039 C1023 0.961 . S
H1040 C1024 0.931 . S
H1041 C1029 0.930 . S
H1042 C1030 0.956 1_565 S
H1043 C1030 0.961 . S
H1044 C1030 0.961 . S
H1045 C1031 0.958 1_565 S
H1046 C1031 0.961 . S
H1047 C1031 0.960 . S
C1048 C1049 1.391 . S
C1048 C1050 1.394 . S
C1048 H1064 0.931 . S
C1049 C1048 1.391 . S
C1049 C1053 1.376 . S
C1050 C1048 1.394 . S
C1050 C1051 1.369 . S
C1050 C1054 1.531 . S
C1051 C1050 1.369 . S
C1051 C1052 1.410 . S
C1051 C1059 1.503 . S
C1052 C1051 1.410 . S
C1052 C1053 1.392 . S
C1052 C1055 1.511 . S
C1053 C1049 1.376 . S
C1053 C1052 1.392 . S
C1053 H1065 0.929 . S
C1054 C1050 1.531 . S
C1054 H1066 0.960 . S
C1054 H1067 0.962 . S
C1054 H1068 0.960 . S
C1055 C1052 1.511 . S
C1055 H1069 0.961 . S
C1055 H1070 0.961 . S
C1055 H1071 0.961 . S
C1056 C1057 1.370 . S
C1056 C1058 1.363 . S
C1056 H1072 0.931 . S
C1057 C1056 1.370 . S
C1057 C1061 1.408 . S
C1058 C1056 1.363 . S
C1058 C1059 1.370 . S
C1058 C1062 1.524 . S
C1059 C1051 1.503 . S
C1059 C1058 1.370 . S
C1059 C1060 1.403 . S
C1060 C1059 1.403 . S
C1060 C1061 1.404 . S
C1060 C1063 1.539 . S
C1061 C1057 1.408 . S
C1061 C1060 1.404 . S
C1061 H1073 0.930 . S
C1062 C1058 1.524 . S
C1062 H1074 0.956 . S
C1062 H1075 0.961 . S
C1062 H1076 0.961 . S
C1063 C1060 1.539 . S
C1063 H1077 0.958 . S
C1063 H1078 0.961 . S
C1063 H1079 0.960 . S
H1064 C1048 0.931 . S
H1065 C1053 0.929 . S
H1066 C1054 0.960 . S
H1067 C1054 0.962 . S
H1068 C1054 0.960 . S
H1069 C1055 0.961 . S
H1070 C1055 0.961 . S
H1071 C1055 0.961 . S
H1072 C1056 0.931 . S
H1073 C1061 0.930 . S
H1074 C1062 0.956 . S
H1075 C1062 0.961 . S
H1076 C1062 0.961 . S
H1077 C1063 0.958 . S
H1078 C1063 0.961 . S
H1079 C1063 0.960 . S
C1080 C1081 1.384 1_565 S
C1080 C1082 1.390 1_565 S
C1080 H1096 0.942 . S
C1081 C1080 1.384 1_545 S
C1081 C1085 1.376 . S
C1082 C1080 1.390 1_545 S
C1082 C1083 1.369 . S
C1082 C1086 1.531 1_545 S
C1083 C1082 1.369 . S
C1083 C1084 1.410 . S
C1083 C1091 1.503 . S
C1084 C1083 1.410 . S
C1084 C1085 1.392 . S
C1084 C1087 1.511 . S
C1085 C1081 1.376 . S
C1085 C1084 1.392 . S
C1085 H1097 0.929 . S
C1086 C1082 1.531 1_565 S
C1086 H1098 0.960 . S
C1086 H1099 0.962 1_565 S
C1086 H1100 0.960 . S
C1087 C1084 1.511 . S
C1087 H1101 0.961 . S
C1087 H1102 0.961 . S
C1087 H1103 0.961 . S
C1088 C1089 1.370 . S
C1088 C1090 1.363 . S
C1088 H1104 0.931 . S
C1089 C1088 1.370 . S
C1089 C1093 1.408 . S
C1090 C1088 1.363 . S
C1090 C1091 1.370 . S
C1090 C1094 1.524 . S
C1091 C1083 1.503 . S
C1091 C1090 1.370 . S
C1091 C1092 1.403 . S
C1092 C1091 1.403 . S
C1092 C1093 1.404 . S
C1092 C1095 1.539 1_545 S
C1093 C1089 1.408 . S
C1093 C1092 1.404 . S
C1093 H1105 0.930 . S
C1094 C1090 1.524 . S
C1094 H1106 0.956 . S
C1094 H1107 0.961 . S
C1094 H1108 0.961 . S
C1095 C1092 1.539 1_565 S
C1095 H1109 0.958 . S
C1095 H1110 0.961 . S
C1095 H1111 0.960 . S
H1096 C1080 0.942 . S
H1097 C1085 0.929 . S
H1098 C1086 0.960 . S
H1099 C1086 0.962 1_545 S
H1100 C1086 0.960 . S
H1101 C1087 0.961 . S
H1102 C1087 0.961 . S
H1103 C1087 0.961 . S
H1104 C1088 0.931 . S
H1105 C1093 0.930 . S
H1106 C1094 0.956 . S
H1107 C1094 0.961 . S
H1108 C1094 0.961 . S
H1109 C1095 0.958 . S
H1110 C1095 0.961 . S
H1111 C1095 0.960 . S
C1112 C1113 1.391 . S
C1112 C1114 1.394 . S
C1112 H1128 0.931 . S
C1113 C1112 1.391 . S
C1113 C1117 1.376 . S
C1114 C1112 1.394 . S
C1114 C1115 1.369 . S
C1114 C1118 1.531 . S
C1115 C1114 1.369 . S
C1115 C1116 1.410 . S
C1115 C1123 1.503 . S
C1116 C1115 1.410 . S
C1116 C1117 1.392 . S
C1116 C1119 1.511 . S
C1117 C1113 1.376 . S
C1117 C1116 1.392 . S
C1117 H1129 0.929 . S
C1118 C1114 1.531 . S
C1118 H1130 0.960 . S
C1118 H1131 0.962 . S
C1118 H1132 0.960 . S
C1119 C1116 1.511 . S
C1119 H1133 0.961 . S
C1119 H1134 0.961 . S
C1119 H1135 0.961 . S
C1120 C1121 1.370 . S
C1120 C1122 1.363 . S
C1120 H1136 0.931 . S
C1121 C1120 1.370 . S
C1121 C1125 1.408 . S
C1122 C1120 1.363 . S
C1122 C1123 1.370 . S
C1122 C1126 1.524 . S
C1123 C1115 1.503 . S
C1123 C1122 1.370 . S
C1123 C1124 1.403 . S
C1124 C1123 1.403 . S
C1124 C1125 1.404 . S
C1124 C1127 1.539 . S
C1125 C1121 1.408 . S
C1125 C1124 1.404 . S
C1125 H1137 0.930 . S
C1126 C1122 1.524 . S
C1126 H1138 0.956 . S
C1126 H1139 0.961 . S
C1126 H1140 0.961 . S
C1127 C1124 1.539 . S
C1127 H1141 0.958 . S
C1127 H1142 0.961 . S
C1127 H1143 0.960 . S
H1128 C1112 0.931 . S
H1129 C1117 0.929 . S
H1130 C1118 0.960 . S
H1131 C1118 0.962 . S
H1132 C1118 0.960 . S
H1133 C1119 0.961 . S
H1134 C1119 0.961 . S
H1135 C1119 0.961 . S
H1136 C1120 0.931 . S
H1137 C1125 0.930 . S
H1138 C1126 0.956 . S
H1139 C1126 0.961 . S
H1140 C1126 0.961 . S
H1141 C1127 0.958 . S
H1142 C1127 0.961 . S
H1143 C1127 0.960 . S
C1144 C1145 1.391 . S
C1144 C1146 1.394 . S
C1144 H1160 0.931 . S
C1145 C1144 1.391 . S
C1145 C1149 1.376 . S
C1146 C1144 1.394 . S
C1146 C1147 1.369 . S
C1146 C1150 1.531 . S
C1147 C1146 1.369 . S
C1147 C1148 1.410 . S
C1147 C1155 1.503 . S
C1148 C1147 1.410 . S
C1148 C1149 1.392 . S
C1148 C1151 1.511 . S
C1149 C1145 1.376 . S
C1149 C1148 1.392 . S
C1149 H1161 0.929 . S
C1150 C1146 1.531 . S
C1150 H1162 0.960 . S
C1150 H1163 0.962 . S
C1150 H1164 0.960 . S
C1151 C1148 1.511 . S
C1151 H1165 0.961 . S
C1151 H1166 0.961 . S
C1151 H1167 0.961 . S
C1152 C1153 1.370 . S
C1152 C1154 1.363 . S
C1152 H1168 0.923 1_565 S
C1153 C1152 1.370 . S
C1153 C1157 1.408 . S
C1154 C1152 1.363 . S
C1154 C1155 1.370 . S
C1154 C1158 1.524 . S
C1155 C1147 1.503 . S
C1155 C1154 1.370 . S
C1155 C1156 1.403 . S
C1156 C1155 1.403 . S
C1156 C1157 1.404 . S
C1156 C1159 1.539 . S
C1157 C1153 1.408 . S
C1157 C1156 1.404 . S
C1157 H1169 0.930 . S
C1158 C1154 1.524 . S
C1158 H1170 0.956 1_554 S
C1158 H1171 0.961 . S
C1158 H1172 0.961 1_554 S
C1159 C1156 1.539 . S
C1159 H1173 0.958 . S
C1159 H1174 0.961 . S
C1159 H1175 0.960 . S
H1160 C1144 0.931 . S
H1161 C1149 0.929 . S
H1162 C1150 0.960 . S
H1163 C1150 0.962 . S
H1164 C1150 0.960 . S
H1165 C1151 0.961 . S
H1166 C1151 0.961 . S
H1167 C1151 0.961 . S
H1168 C1152 0.923 1_545 S
H1169 C1157 0.930 . S
H1170 C1158 0.956 1_556 S
H1171 C1158 0.961 . S
H1172 C1158 0.961 1_556 S
H1173 C1159 0.958 . S
H1174 C1159 0.961 . S
H1175 C1159 0.960 . S
C1176 C1177 1.391 . S
C1176 C1178 1.394 . S
C1176 H1192 0.931 . S
C1177 C1176 1.391 . S
C1177 C1181 1.376 . S
C1178 C1176 1.394 . S
C1178 C1179 1.369 1_556 S
C1178 C1182 1.531 . S
C1179 C1178 1.369 1_554 S
C1179 C1180 1.410 . S
C1179 C1187 1.503 . S
C1180 C1179 1.410 . S
C1180 C1181 1.392 1_554 S
C1180 C1183 1.511 . S
C1181 C1177 1.376 . S
C1181 C1180 1.392 1_556 S
C1181 H1193 0.929 . S
C1182 C1178 1.531 . S
C1182 H1194 0.960 1_556 S
C1182 H1195 0.962 . S
C1182 H1196 0.960 1_556 S
C1183 C1180 1.511 . S
C1183 H1197 0.952 1_554 S
C1183 H1198 0.972 . S
C1183 H1199 0.961 . S
C1184 C1185 1.370 1_556 S
C1184 C1186 1.363 . S
C1184 H1200 0.931 . S
C1185 C1184 1.370 1_554 S
C1185 C1189 1.408 . S
C1186 C1184 1.363 . S
C1186 C1187 1.370 1_556 S
C1186 C1190 1.524 . S
C1187 C1179 1.503 . S
C1187 C1186 1.370 1_554 S
C1187 C1188 1.403 . S
C1188 C1187 1.403 . S
C1188 C1189 1.404 . S
C1188 C1191 1.539 . S
C1189 C1185 1.408 . S
C1189 C1188 1.404 . S
C1189 H1201 0.930 . S
C1190 C1186 1.524 . S
C1190 H1202 0.956 . S
C1190 H1203 0.961 . S
C1190 H1204 0.961 . S
C1191 C1188 1.539 . S
C1191 H1205 0.958 . S
C1191 H1206 0.961 . S
C1191 H1207 0.960 . S
H1192 C1176 0.931 . S
H1193 C1181 0.929 . S
H1194 C1182 0.960 1_554 S
H1195 C1182 0.962 . S
H1196 C1182 0.960 1_554 S
H1197 C1183 0.952 1_556 S
H1198 C1183 0.972 . S
H1199 C1183 0.961 . S
H1200 C1184 0.931 . S
H1201 C1189 0.930 . S
H1202 C1190 0.956 . S
H1203 C1190 0.961 . S
H1204 C1190 0.961 . S
H1205 C1191 0.958 . S
H1206 C1191 0.961 . S
H1207 C1191 0.960 . S
C1208 C1209 1.391 . S
C1208 C1210 1.394 . S
C1208 H1224 0.931 . S
C1209 C1208 1.391 . S
C1209 C1213 1.376 . S
C1210 C1208 1.394 . S
C1210 C1211 1.369 . S
C1210 C1214 1.531 . S
C1211 C1210 1.369 . S
C1211 C1212 1.410 . S
C1211 C1219 1.503 . S
C1212 C1211 1.410 . S
C1212 C1213 1.392 . S
C1212 C1215 1.511 . S
C1213 C1209 1.376 . S
C1213 C1212 1.392 . S
C1213 H1225 0.929 . S
C1214 C1210 1.531 . S
C1214 H1226 0.960 . S
C1214 H1227 0.962 . S
C1214 H1228 0.960 . S
C1215 C1212 1.511 . S
C1215 H1229 0.961 . S
C1215 H1230 0.961 . S
C1215 H1231 0.961 . S
C1216 C1217 1.370 . S
C1216 C1218 1.363 . S
C1216 H1232 0.931 . S
C1217 C1216 1.370 . S
C1217 C1221 1.408 . S
C1218 C1216 1.363 . S
C1218 C1219 1.370 . S
C1218 C1222 1.524 . S
C1219 C1211 1.503 . S
C1219 C1218 1.370 . S
C1219 C1220 1.403 . S
C1220 C1219 1.403 . S
C1220 C1221 1.404 . S
C1220 C1223 1.539 . S
C1221 C1217 1.408 . S
C1221 C1220 1.404 . S
C1221 H1233 0.930 . S
C1222 C1218 1.524 . S
C1222 H1234 0.956 . S
C1222 H1235 0.961 . S
C1222 H1236 0.961 . S
C1223 C1220 1.539 . S
C1223 H1237 0.958 . S
C1223 H1238 0.961 . S
C1223 H1239 0.960 . S
H1224 C1208 0.931 . S
H1225 C1213 0.929 . S
H1226 C1214 0.960 . S
H1227 C1214 0.962 . S
H1228 C1214 0.960 . S
H1229 C1215 0.961 . S
H1230 C1215 0.961 . S
H1231 C1215 0.961 . S
H1232 C1216 0.931 . S
H1233 C1221 0.930 . S
H1234 C1222 0.956 . S
H1235 C1222 0.961 . S
H1236 C1222 0.961 . S
H1237 C1223 0.958 . S
H1238 C1223 0.961 . S
H1239 C1223 0.960 . S
C1240 C1241 1.391 . S
C1240 C1242 1.394 . S
C1240 H1256 0.931 . S
C1241 C1240 1.391 . S
C1241 C1245 1.376 . S
C1242 C1240 1.394 . S
C1242 C1243 1.369 . S
C1242 C1246 1.531 . S
C1243 C1242 1.369 . S
C1243 C1244 1.410 . S
C1243 C1251 1.503 . S
C1244 C1243 1.410 . S
C1244 C1245 1.392 . S
C1244 C1247 1.511 . S
C1245 C1241 1.376 . S
C1245 C1244 1.392 . S
C1245 H1257 0.929 . S
C1246 C1242 1.531 . S
C1246 H1258 0.960 . S
C1246 H1259 0.962 . S
C1246 H1260 0.960 . S
C1247 C1244 1.511 . S
C1247 H1261 0.961 . S
C1247 H1262 0.961 . S
C1247 H1263 0.961 . S
C1248 C1249 1.370 . S
C1248 C1250 1.363 . S
C1248 H1264 0.931 . S
C1249 C1248 1.370 . S
C1249 C1253 1.408 . S
C1250 C1248 1.363 . S
C1250 C1251 1.370 . S
C1250 C1254 1.524 . S
C1251 C1243 1.503 . S
C1251 C1250 1.370 . S
C1251 C1252 1.403 . S
C1252 C1251 1.403 . S
C1252 C1253 1.404 . S
C1252 C1255 1.539 . S
C1253 C1249 1.408 . S
C1253 C1252 1.404 . S
C1253 H1265 0.930 . S
C1254 C1250 1.524 . S
C1254 H1266 0.956 . S
C1254 H1267 0.961 . S
C1254 H1268 0.961 . S
C1255 C1252 1.539 . S
C1255 H1269 0.958 . S
C1255 H1270 0.961 . S
C1255 H1271 0.960 . S
H1256 C1240 0.931 . S
H1257 C1245 0.929 . S
H1258 C1246 0.960 . S
H1259 C1246 0.962 . S
H1260 C1246 0.960 . S
H1261 C1247 0.961 . S
H1262 C1247 0.961 . S
H1263 C1247 0.961 . S
H1264 C1248 0.931 . S
H1265 C1253 0.930 . S
H1266 C1254 0.956 . S
H1267 C1254 0.961 . S
H1268 C1254 0.961 . S
H1269 C1255 0.958 . S
H1270 C1255 0.961 . S
H1271 C1255 0.960 . S
C1272 C1273 1.391 . S
C1272 C1274 1.394 . S
C1272 H1288 0.931 . S
C1273 C1272 1.391 . S
C1273 C1277 1.376 . S
C1274 C1272 1.394 . S
C1274 C1275 1.369 . S
C1274 C1278 1.531 . S
C1275 C1274 1.369 . S
C1275 C1276 1.410 . S
C1275 C1283 1.503 . S
C1276 C1275 1.410 . S
C1276 C1277 1.392 . S
C1276 C1279 1.511 . S
C1277 C1273 1.376 . S
C1277 C1276 1.392 . S
C1277 H1289 0.929 . S
C1278 C1274 1.531 . S
C1278 H1290 0.960 . S
C1278 H1291 0.962 . S
C1278 H1292 0.960 . S
C1279 C1276 1.511 . S
C1279 H1293 0.961 . S
C1279 H1294 0.961 . S
C1279 H1295 0.961 . S
C1280 C1281 1.370 . S
C1280 C1282 1.363 . S
C1280 H1296 0.931 . S
C1281 C1280 1.370 . S
C1281 C1285 1.408 . S
C1282 C1280 1.363 . S
C1282 C1283 1.370 . S
C1282 C1286 1.524 . S
C1283 C1275 1.503 . S
C1283 C1282 1.370 . S
C1283 C1284 1.403 . S
C1284 C1283 1.403 . S
C1284 C1285 1.404 . S
C1284 C1287 1.539 . S
C1285 C1281 1.408 . S
C1285 C1284 1.404 . S
C1285 H1297 0.930 . S
C1286 C1282 1.524 . S
C1286 H1298 0.956 . S
C1286 H1299 0.961 . S
C1286 H1300 0.961 . S
C1287 C1284 1.539 . S
C1287 H1301 0.958 . S
C1287 H1302 0.961 . S
C1287 H1303 0.960 . S
H1288 C1272 0.931 . S
H1289 C1277 0.929 . S
H1290 C1278 0.960 . S
H1291 C1278 0.962 . S
H1292 C1278 0.960 . S
H1293 C1279 0.961 . S
H1294 C1279 0.961 . S
H1295 C1279 0.961 . S
H1296 C1280 0.931 . S
H1297 C1285 0.930 . S
H1298 C1286 0.956 . S
H1299 C1286 0.961 . S
H1300 C1286 0.961 . S
H1301 C1287 0.958 . S
H1302 C1287 0.961 . S
H1303 C1287 0.960 . S
C1304 C1305 1.391 . S
C1304 C1306 1.394 . S
C1304 H1320 0.931 . S
C1305 C1304 1.391 . S
C1305 C1309 1.376 . S
C1306 C1304 1.394 . S
C1306 C1307 1.369 . S
C1306 C1310 1.531 . S
C1307 C1306 1.369 . S
C1307 C1308 1.410 . S
C1307 C1315 1.503 . S
C1308 C1307 1.410 . S
C1308 C1309 1.392 . S
C1308 C1311 1.511 . S
C1309 C1305 1.376 . S
C1309 C1308 1.392 . S
C1309 H1321 0.929 . S
C1310 C1306 1.531 . S
C1310 H1322 0.960 . S
C1310 H1323 0.962 . S
C1310 H1324 0.960 . S
C1311 C1308 1.511 . S
C1311 H1325 0.961 . S
C1311 H1326 0.961 . S
C1311 H1327 0.961 . S
C1312 C1313 1.370 . S
C1312 C1314 1.363 . S
C1312 H1328 0.931 . S
C1313 C1312 1.370 . S
C1313 C1317 1.408 . S
C1314 C1312 1.363 . S
C1314 C1315 1.370 . S
C1314 C1318 1.524 . S
C1315 C1307 1.503 . S
C1315 C1314 1.370 . S
C1315 C1316 1.403 . S
C1316 C1315 1.403 . S
C1316 C1317 1.404 . S
C1316 C1319 1.539 . S
C1317 C1313 1.408 . S
C1317 C1316 1.404 . S
C1317 H1329 0.930 . S
C1318 C1314 1.524 . S
C1318 H1330 0.956 . S
C1318 H1331 0.961 . S
C1318 H1332 0.961 . S
C1319 C1316 1.539 . S
C1319 H1333 0.958 . S
C1319 H1334 0.961 . S
C1319 H1335 0.960 . S
H1320 C1304 0.931 . S
H1321 C1309 0.929 . S
H1322 C1310 0.960 . S
H1323 C1310 0.962 . S
H1324 C1310 0.960 . S
H1325 C1311 0.961 . S
H1326 C1311 0.961 . S
H1327 C1311 0.961 . S
H1328 C1312 0.931 . S
H1329 C1317 0.930 . S
H1330 C1318 0.956 . S
H1331 C1318 0.961 . S
H1332 C1318 0.961 . S
H1333 C1319 0.958 . S
H1334 C1319 0.961 . S
H1335 C1319 0.960 . S
C1336 C1337 1.391 . S
C1336 C1338 1.394 . S
C1336 H1352 0.931 . S
C1337 C1336 1.391 . S
C1337 C1341 1.376 . S
C1338 C1336 1.394 . S
C1338 C1339 1.369 . S
C1338 C1342 1.531 . S
C1339 C1338 1.369 . S
C1339 C1340 1.410 . S
C1339 C1347 1.503 . S
C1340 C1339 1.410 . S
C1340 C1341 1.392 . S
C1340 C1343 1.511 . S
C1341 C1337 1.376 . S
C1341 C1340 1.392 . S
C1341 H1353 0.929 . S
C1342 C1338 1.531 . S
C1342 H1354 0.960 . S
C1342 H1355 0.962 . S
C1342 H1356 0.960 . S
C1343 C1340 1.511 . S
C1343 H1357 0.961 . S
C1343 H1358 0.961 . S
C1343 H1359 0.961 . S
C1344 C1345 1.370 . S
C1344 C1346 1.363 . S
C1344 H1360 0.931 . S
C1345 C1344 1.370 . S
C1345 C1349 1.408 . S
C1346 C1344 1.363 . S
C1346 C1347 1.370 . S
C1346 C1350 1.524 . S
C1347 C1339 1.503 . S
C1347 C1346 1.370 . S
C1347 C1348 1.403 . S
C1348 C1347 1.403 . S
C1348 C1349 1.404 . S
C1348 C1351 1.539 . S
C1349 C1345 1.408 . S
C1349 C1348 1.404 . S
C1349 H1361 0.930 . S
C1350 C1346 1.524 . S
C1350 H1362 0.956 . S
C1350 H1363 0.961 . S
C1350 H1364 0.961 . S
C1351 C1348 1.539 . S
C1351 H1365 0.958 . S
C1351 H1366 0.961 . S
C1351 H1367 0.960 . S
H1352 C1336 0.931 . S
H1353 C1341 0.929 . S
H1354 C1342 0.960 . S
H1355 C1342 0.962 . S
H1356 C1342 0.960 . S
H1357 C1343 0.961 . S
H1358 C1343 0.961 . S
H1359 C1343 0.961 . S
H1360 C1344 0.931 . S
H1361 C1349 0.930 . S
H1362 C1350 0.956 . S
H1363 C1350 0.961 . S
H1364 C1350 0.961 . S
H1365 C1351 0.958 . S
H1366 C1351 0.961 . S
H1367 C1351 0.960 . S
C1368 C1369 1.391 . S
C1368 C1370 1.394 . S
C1368 H1384 0.931 . S
C1369 C1368 1.391 . S
C1369 C1373 1.376 . S
C1370 C1368 1.394 . S
C1370 C1371 1.369 . S
C1370 C1374 1.531 . S
C1371 C1370 1.369 . S
C1371 C1372 1.410 . S
C1371 C1379 1.503 . S
C1372 C1371 1.410 . S
C1372 C1373 1.392 . S
C1372 C1375 1.511 . S
C1373 C1369 1.376 . S
C1373 C1372 1.392 . S
C1373 H1385 0.929 . S
C1374 C1370 1.531 . S
C1374 H1386 0.960 . S
C1374 H1387 0.962 . S
C1374 H1388 0.960 . S
C1375 C1372 1.511 . S
C1375 H1389 0.961 . S
C1375 H1390 0.961 . S
C1375 H1391 0.961 . S
C1376 C1377 1.370 . S
C1376 C1378 1.363 . S
C1376 H1392 0.931 . S
C1377 C1376 1.370 . S
C1377 C1381 1.408 . S
C1378 C1376 1.363 . S
C1378 C1379 1.370 . S
C1378 C1382 1.524 . S
C1379 C1371 1.503 . S
C1379 C1378 1.370 . S
C1379 C1380 1.403 . S
C1380 C1379 1.403 . S
C1380 C1381 1.404 . S
C1380 C1383 1.539 . S
C1381 C1377 1.408 . S
C1381 C1380 1.404 . S
C1381 H1393 0.930 . S
C1382 C1378 1.524 . S
C1382 H1394 0.956 . S
C1382 H1395 0.961 . S
C1382 H1396 0.961 . S
C1383 C1380 1.539 . S
C1383 H1397 0.958 . S
C1383 H1398 0.961 . S
C1383 H1399 0.960 . S
H1384 C1368 0.931 . S
H1385 C1373 0.929 . S
H1386 C1374 0.960 . S
H1387 C1374 0.962 . S
H1388 C1374 0.960 . S
H1389 C1375 0.961 . S
H1390 C1375 0.961 . S
H1391 C1375 0.961 . S
H1392 C1376 0.931 . S
H1393 C1381 0.930 . S
H1394 C1382 0.956 . S
H1395 C1382 0.961 . S
H1396 C1382 0.961 . S
H1397 C1383 0.958 . S
H1398 C1383 0.961 . S
H1399 C1383 0.960 . S
C1400 C1401 1.391 . S
C1400 C1402 1.394 . S
C1400 H1416 0.931 . S
C1401 C1400 1.391 . S
C1401 C1405 1.376 . S
C1402 C1400 1.394 . S
C1402 C1403 1.369 . S
C1402 C1406 1.531 1_455 S
C1403 C1402 1.369 . S
C1403 C1404 1.410 . S
C1403 C1411 1.503 . S
C1404 C1403 1.410 . S
C1404 C1405 1.392 . S
C1404 C1407 1.511 . S
C1405 C1401 1.376 . S
C1405 C1404 1.392 . S
C1405 H1417 0.929 . S
C1406 C1402 1.531 1_655 S
C1406 H1418 0.960 . S
C1406 H1419 0.962 . S
C1406 H1420 0.960 . S
C1407 C1404 1.511 . S
C1407 H1421 0.961 . S
C1407 H1422 0.961 . S
C1407 H1423 0.961 . S
C1408 C1409 1.370 . S
C1408 C1410 1.363 . S
C1408 H1424 0.931 . S
C1409 C1408 1.370 . S
C1409 C1413 1.408 . S
C1410 C1408 1.363 . S
C1410 C1411 1.370 . S
C1410 C1414 1.524 . S
C1411 C1403 1.503 . S
C1411 C1410 1.370 . S
C1411 C1412 1.403 . S
C1412 C1411 1.403 . S
C1412 C1413 1.404 . S
C1412 C1415 1.539 . S
C1413 C1409 1.408 . S
C1413 C1412 1.404 . S
C1413 H1425 0.930 . S
C1414 C1410 1.524 . S
C1414 H1426 0.956 . S
C1414 H1427 0.961 . S
C1414 H1428 0.961 . S
C1415 C1412 1.539 . S
C1415 H1429 0.958 . S
C1415 H1430 0.961 . S
C1415 H1431 0.960 . S
H1416 C1400 0.931 . S
H1417 C1405 0.929 . S
H1418 C1406 0.960 . S
H1419 C1406 0.962 . S
H1420 C1406 0.960 . S
H1421 C1407 0.961 . S
H1422 C1407 0.961 . S
H1423 C1407 0.961 . S
H1424 C1408 0.931 . S
H1425 C1413 0.930 . S
H1426 C1414 0.956 . S
H1427 C1414 0.961 . S
H1428 C1414 0.961 . S
H1429 C1415 0.958 . S
H1430 C1415 0.961 . S
H1431 C1415 0.960 . S
C1432 C1433 1.391 . S
C1432 C1434 1.394 . S
C1432 H1448 0.931 . S
C1433 C1432 1.391 . S
C1433 C1437 1.376 . S
C1434 C1432 1.394 . S
C1434 C1435 1.369 . S
C1434 C1438 1.531 . S
C1435 C1434 1.369 . S
C1435 C1436 1.410 . S
C1435 C1443 1.503 . S
C1436 C1435 1.410 . S
C1436 C1437 1.392 . S
C1436 C1439 1.511 . S
C1437 C1433 1.376 . S
C1437 C1436 1.392 . S
C1437 H1449 0.929 . S
C1438 C1434 1.531 . S
C1438 H1450 0.960 . S
C1438 H1451 0.962 . S
C1438 H1452 0.960 . S
C1439 C1436 1.511 . S
C1439 H1453 0.961 . S
C1439 H1454 0.961 . S
C1439 H1455 0.961 . S
C1440 C1441 1.370 . S
C1440 C1442 1.363 . S
C1440 H1456 0.931 . S
C1441 C1440 1.370 . S
C1441 C1445 1.408 . S
C1442 C1440 1.363 . S
C1442 C1443 1.370 . S
C1442 C1446 1.524 . S
C1443 C1435 1.503 . S
C1443 C1442 1.370 . S
C1443 C1444 1.403 . S
C1444 C1443 1.403 . S
C1444 C1445 1.404 . S
C1444 C1447 1.539 . S
C1445 C1441 1.408 . S
C1445 C1444 1.404 . S
C1445 H1457 0.930 . S
C1446 C1442 1.524 . S
C1446 H1458 0.956 . S
C1446 H1459 0.961 . S
C1446 H1460 0.961 . S
C1447 C1444 1.539 . S
C1447 H1461 0.958 . S
C1447 H1462 0.961 . S
C1447 H1463 0.960 . S
H1448 C1432 0.931 . S
H1449 C1437 0.929 . S
H1450 C1438 0.960 . S
H1451 C1438 0.962 . S
H1452 C1438 0.960 . S
H1453 C1439 0.961 . S
H1454 C1439 0.961 . S
H1455 C1439 0.961 . S
H1456 C1440 0.931 . S
H1457 C1445 0.930 . S
H1458 C1446 0.956 . S
H1459 C1446 0.961 . S
H1460 C1446 0.961 . S
H1461 C1447 0.958 . S
H1462 C1447 0.961 . S
H1463 C1447 0.960 . S
C1464 C1465 1.391 . S
C1464 C1466 1.394 . S
C1464 H1480 0.931 . S
C1465 C1464 1.391 . S
C1465 C1469 1.376 . S
C1466 C1464 1.394 . S
C1466 C1467 1.369 . S
C1466 C1470 1.531 . S
C1467 C1466 1.369 . S
C1467 C1468 1.410 . S
C1467 C1475 1.503 . S
C1468 C1467 1.410 . S
C1468 C1469 1.392 . S
C1468 C1471 1.511 . S
C1469 C1465 1.376 . S
C1469 C1468 1.392 . S
C1469 H1481 0.929 . S
C1470 C1466 1.531 . S
C1470 H1482 0.960 . S
C1470 H1483 0.962 . S
C1470 H1484 0.960 . S
C1471 C1468 1.511 . S
C1471 H1485 0.961 . S
C1471 H1486 0.961 . S
C1471 H1487 0.961 . S
C1472 C1473 1.370 . S
C1472 C1474 1.363 . S
C1472 H1488 0.931 . S
C1473 C1472 1.370 . S
C1473 C1477 1.408 . S
C1474 C1472 1.363 . S
C1474 C1475 1.370 . S
C1474 C1478 1.524 . S
C1475 C1467 1.503 . S
C1475 C1474 1.370 . S
C1475 C1476 1.403 . S
C1476 C1475 1.403 . S
C1476 C1477 1.404 . S
C1476 C1479 1.539 . S
C1477 C1473 1.408 . S
C1477 C1476 1.404 . S
C1477 H1489 0.930 . S
C1478 C1474 1.524 . S
C1478 H1490 0.956 . S
C1478 H1491 0.961 . S
C1478 H1492 0.961 . S
C1479 C1476 1.539 . S
C1479 H1493 0.958 . S
C1479 H1494 0.961 . S
C1479 H1495 0.960 . S
H1480 C1464 0.931 . S
H1481 C1469 0.929 . S
H1482 C1470 0.960 . S
H1483 C1470 0.962 . S
H1484 C1470 0.960 . S
H1485 C1471 0.961 . S
H1486 C1471 0.961 . S
H1487 C1471 0.961 . S
H1488 C1472 0.931 . S
H1489 C1477 0.930 . S
H1490 C1478 0.956 . S
H1491 C1478 0.961 . S
H1492 C1478 0.961 . S
H1493 C1479 0.958 . S
H1494 C1479 0.961 . S
H1495 C1479 0.960 . S
C1496 C1497 1.391 . S
C1496 C1498 1.394 . S
C1496 H1512 0.931 . S
C1497 C1496 1.391 . S
C1497 C1501 1.376 . S
C1498 C1496 1.394 . S
C1498 C1499 1.369 . S
C1498 C1502 1.531 . S
C1499 C1498 1.369 . S
C1499 C1500 1.410 . S
C1499 C1507 1.503 . S
C1500 C1499 1.410 . S
C1500 C1501 1.392 . S
C1500 C1503 1.511 . S
C1501 C1497 1.376 . S
C1501 C1500 1.392 . S
C1501 H1513 0.929 . S
C1502 C1498 1.531 . S
C1502 H1514 0.960 . S
C1502 H1515 0.962 . S
C1502 H1516 0.960 . S
C1503 C1500 1.511 . S
C1503 H1517 0.961 . S
C1503 H1518 0.961 . S
C1503 H1519 0.961 . S
C1504 C1505 1.370 . S
C1504 C1506 1.363 . S
C1504 H1520 0.931 . S
C1505 C1504 1.370 . S
C1505 C1509 1.408 . S
C1506 C1504 1.363 . S
C1506 C1507 1.370 . S
C1506 C1510 1.524 . S
C1507 C1499 1.503 . S
C1507 C1506 1.370 . S
C1507 C1508 1.403 . S
C1508 C1507 1.403 . S
C1508 C1509 1.404 . S
C1508 C1511 1.539 . S
C1509 C1505 1.408 . S
C1509 C1508 1.404 . S
C1509 H1521 0.930 . S
C1510 C1506 1.524 . S
C1510 H1522 0.956 . S
C1510 H1523 0.961 . S
C1510 H1524 0.961 . S
C1511 C1508 1.539 . S
C1511 H1525 0.958 . S
C1511 H1526 0.961 . S
C1511 H1527 0.960 . S
H1512 C1496 0.931 . S
H1513 C1501 0.929 . S
H1514 C1502 0.960 . S
H1515 C1502 0.962 . S
H1516 C1502 0.960 . S
H1517 C1503 0.961 . S
H1518 C1503 0.961 . S
H1519 C1503 0.961 . S
H1520 C1504 0.931 . S
H1521 C1509 0.930 . S
H1522 C1510 0.956 . S
H1523 C1510 0.961 . S
H1524 C1510 0.961 . S
H1525 C1511 0.958 . S
H1526 C1511 0.961 . S
H1527 C1511 0.960 . S
C1528 C1529 1.391 . S
C1528 C1530 1.394 . S
C1528 H1544 0.931 . S
C1529 C1528 1.391 . S
C1529 C1533 1.376 . S
C1530 C1528 1.394 . S
C1530 C1531 1.369 . S
C1530 C1534 1.531 . S
C1531 C1530 1.369 . S
C1531 C1532 1.410 . S
C1531 C1539 1.503 . S
C1532 C1531 1.410 . S
C1532 C1533 1.392 . S
C1532 C1535 1.511 1_455 S
C1533 C1529 1.376 . S
C1533 C1532 1.392 . S
C1533 H1545 0.940 . S
C1534 C1530 1.531 . S
C1534 H1546 0.960 . S
C1534 H1547 0.962 . S
C1534 H1548 0.960 . S
C1535 C1532 1.511 1_655 S
C1535 H1549 0.961 . S
C1535 H1550 0.961 . S
C1535 H1551 0.961 . S
C1536 C1537 1.370 . S
C1536 C1538 1.363 . S
C1536 H1552 0.933 . S
C1537 C1536 1.370 . S
C1537 C1541 1.408 . S
C1538 C1536 1.363 . S
C1538 C1539 1.370 . S
C1538 C1542 1.512 1_455 S
C1539 C1531 1.503 . S
C1539 C1538 1.370 . S
C1539 C1540 1.403 . S
C1540 C1539 1.403 . S
C1540 C1541 1.404 . S
C1540 C1543 1.539 . S
C1541 C1537 1.408 . S
C1541 C1540 1.404 . S
C1541 H1553 0.930 . S
C1542 C1538 1.512 1_655 S
C1542 H1554 0.932 1_655 S
C1542 H1555 0.984 . S
C1542 H1556 0.975 . S
C1543 C1540 1.539 . S
C1543 H1557 0.958 . S
C1543 H1558 0.961 . S
C1543 H1559 0.960 . S
H1544 C1528 0.931 . S
H1545 C1533 0.940 . S
H1546 C1534 0.960 . S
H1547 C1534 0.962 . S
H1548 C1534 0.960 . S
H1549 C1535 0.961 . S
H1550 C1535 0.961 . S
H1551 C1535 0.961 . S
H1552 C1536 0.933 . S
H1553 C1541 0.930 . S
H1554 C1542 0.932 1_455 S
H1555 C1542 0.984 . S
H1556 C1542 0.975 . S
H1557 C1543 0.958 . S
H1558 C1543 0.961 . S
H1559 C1543 0.960 . S
C1560 C1561 1.391 . S
C1560 C1562 1.394 . S
C1560 H1576 0.931 . S
C1561 C1560 1.391 . S
C1561 C1565 1.376 . S
C1562 C1560 1.394 . S
C1562 C1563 1.369 . S
C1562 C1566 1.531 . S
C1563 C1562 1.369 . S
C1563 C1564 1.410 . S
C1563 C1571 1.503 . S
C1564 C1563 1.410 . S
C1564 C1565 1.392 . S
C1564 C1567 1.511 . S
C1565 C1561 1.376 . S
C1565 C1564 1.392 . S
C1565 H1577 0.929 . S
C1566 C1562 1.531 . S
C1566 H1578 0.960 . S
C1566 H1579 0.962 . S
C1566 H1580 0.960 . S
C1567 C1564 1.511 . S
C1567 H1581 0.961 . S
C1567 H1582 0.961 . S
C1567 H1583 0.961 . S
C1568 C1569 1.370 . S
C1568 C1570 1.363 . S
C1568 H1584 0.931 . S
C1569 C1568 1.370 . S
C1569 C1573 1.408 . S
C1570 C1568 1.363 . S
C1570 C1571 1.370 . S
C1570 C1574 1.524 . S
C1571 C1563 1.503 . S
C1571 C1570 1.370 . S
C1571 C1572 1.403 . S
C1572 C1571 1.403 . S
C1572 C1573 1.404 . S
C1572 C1575 1.539 . S
C1573 C1569 1.408 . S
C1573 C1572 1.404 . S
C1573 H1585 0.930 . S
C1574 C1570 1.524 . S
C1574 H1586 0.956 . S
C1574 H1587 0.961 . S
C1574 H1588 0.961 . S
C1575 C1572 1.539 . S
C1575 H1589 0.958 . S
C1575 H1590 0.961 . S
C1575 H1591 0.960 . S
H1576 C1560 0.931 . S
H1577 C1565 0.929 . S
H1578 C1566 0.960 . S
H1579 C1566 0.962 . S
H1580 C1566 0.960 . S
H1581 C1567 0.961 . S
H1582 C1567 0.961 . S
H1583 C1567 0.961 . S
H1584 C1568 0.931 . S
H1585 C1573 0.930 . S
H1586 C1574 0.956 . S
H1587 C1574 0.961 . S
H1588 C1574 0.961 . S
H1589 C1575 0.958 . S
H1590 C1575 0.961 . S
H1591 C1575 0.960 . S
C1592 C1593 1.391 . S
C1592 C1594 1.394 . S
C1592 H1608 0.931 . S
C1593 C1592 1.391 . S
C1593 C1597 1.376 . S
C1594 C1592 1.394 . S
C1594 C1595 1.369 . S
C1594 C1598 1.531 . S
C1595 C1594 1.369 . S
C1595 C1596 1.410 . S
C1595 C1603 1.503 . S
C1596 C1595 1.410 . S
C1596 C1597 1.392 . S
C1596 C1599 1.511 . S
C1597 C1593 1.376 . S
C1597 C1596 1.392 . S
C1597 H1609 0.929 . S
C1598 C1594 1.531 . S
C1598 H1610 0.960 . S
C1598 H1611 0.962 . S
C1598 H1612 0.960 . S
C1599 C1596 1.511 . S
C1599 H1613 0.961 . S
C1599 H1614 0.961 . S
C1599 H1615 0.961 . S
C1600 C1601 1.370 . S
C1600 C1602 1.363 . S
C1600 H1616 0.931 . S
C1601 C1600 1.370 . S
C1601 C1605 1.408 1_556 S
C1602 C1600 1.363 . S
C1602 C1603 1.370 . S
C1602 C1606 1.524 . S
C1603 C1595 1.503 . S
C1603 C1602 1.370 . S
C1603 C1604 1.403 . S
C1604 C1603 1.403 . S
C1604 C1605 1.404 1_556 S
C1604 C1607 1.539 1_556 S
C1605 C1601 1.408 1_554 S
C1605 C1604 1.404 1_554 S
C1605 H1617 0.930 . S
C1606 C1602 1.524 . S
C1606 H1618 0.956 . S
C1606 H1619 0.961 . S
C1606 H1620 0.961 . S
C1607 C1604 1.539 1_554 S
C1607 H1621 0.958 . S
C1607 H1622 0.961 . S
C1607 H1623 0.960 1_554 S
H1608 C1592 0.931 . S
H1609 C1597 0.929 . S
H1610 C1598 0.960 . S
H1611 C1598 0.962 . S
H1612 C1598 0.960 . S
H1613 C1599 0.961 . S
H1614 C1599 0.961 . S
H1615 C1599 0.961 . S
H1616 C1600 0.931 . S
H1617 C1605 0.930 . S
H1618 C1606 0.956 . S
H1619 C1606 0.961 . S
H1620 C1606 0.961 . S
H1621 C1607 0.958 . S
H1622 C1607 0.961 . S
H1623 C1607 0.960 1_556 S
C1624 C1625 1.391 . S
C1624 C1626 1.394 . S
C1624 H1640 0.931 . S
C1625 C1624 1.391 . S
C1625 C1629 1.376 . S
C1626 C1624 1.394 . S
C1626 C1627 1.369 . S
C1626 C1630 1.531 . S
C1627 C1626 1.369 . S
C1627 C1628 1.410 . S
C1627 C1635 1.503 . S
C1628 C1627 1.410 . S
C1628 C1629 1.392 . S
C1628 C1631 1.511 . S
C1629 C1625 1.376 . S
C1629 C1628 1.392 . S
C1629 H1641 0.929 . S
C1630 C1626 1.531 . S
C1630 H1642 0.960 . S
C1630 H1643 0.962 . S
C1630 H1644 0.960 . S
C1631 C1628 1.511 . S
C1631 H1645 0.961 . S
C1631 H1646 0.961 . S
C1631 H1647 0.961 . S
C1632 C1633 1.370 . S
C1632 C1634 1.363 . S
C1632 H1648 0.931 . S
C1633 C1632 1.370 . S
C1633 C1637 1.408 . S
C1634 C1632 1.363 . S
C1634 C1635 1.370 . S
C1634 C1638 1.524 . S
C1635 C1627 1.503 . S
C1635 C1634 1.370 . S
C1635 C1636 1.403 . S
C1636 C1635 1.403 . S
C1636 C1637 1.404 . S
C1636 C1639 1.539 . S
C1637 C1633 1.408 . S
C1637 C1636 1.404 . S
C1637 H1649 0.930 . S
C1638 C1634 1.524 . S
C1638 H1650 0.956 . S
C1638 H1651 0.961 . S
C1638 H1652 0.961 . S
C1639 C1636 1.539 . S
C1639 H1653 0.958 . S
C1639 H1654 0.961 . S
C1639 H1655 0.960 . S
H1640 C1624 0.931 . S
H1641 C1629 0.929 . S
H1642 C1630 0.960 . S
H1643 C1630 0.962 . S
H1644 C1630 0.960 . S
H1645 C1631 0.961 . S
H1646 C1631 0.961 . S
H1647 C1631 0.961 . S
H1648 C1632 0.931 . S
H1649 C1637 0.930 . S
H1650 C1638 0.956 . S
H1651 C1638 0.961 . S
H1652 C1638 0.961 . S
H1653 C1639 0.958 . S
H1654 C1639 0.961 . S
H1655 C1639 0.960 . S
C1656 C1657 1.391 . S
C1656 C1658 1.394 . S
C1656 H1672 0.931 . S
C1657 C1656 1.391 . S
C1657 C1661 1.376 . S
C1658 C1656 1.394 . S
C1658 C1659 1.369 . S
C1658 C1662 1.531 . S
C1659 C1658 1.369 . S
C1659 C1660 1.410 . S
C1659 C1667 1.503 . S
C1660 C1659 1.410 . S
C1660 C1661 1.392 . S
C1660 C1663 1.511 . S
C1661 C1657 1.376 . S
C1661 C1660 1.392 . S
C1661 H1673 0.929 . S
C1662 C1658 1.531 . S
C1662 H1674 0.960 . S
C1662 H1675 0.962 . S
C1662 H1676 0.960 . S
C1663 C1660 1.511 . S
C1663 H1677 0.961 . S
C1663 H1678 0.961 . S
C1663 H1679 0.961 . S
C1664 C1665 1.370 . S
C1664 C1666 1.363 . S
C1664 H1680 0.931 1_545 S
C1665 C1664 1.370 . S
C1665 C1669 1.408 . S
C1666 C1664 1.363 . S
C1666 C1667 1.370 . S
C1666 C1670 1.524 1_545 S
C1667 C1659 1.503 . S
C1667 C1666 1.370 . S
C1667 C1668 1.403 . S
C1668 C1667 1.403 . S
C1668 C1669 1.404 . S
C1668 C1671 1.539 . S
C1669 C1665 1.408 . S
C1669 C1668 1.404 . S
C1669 H1681 0.930 . S
C1670 C1666 1.524 1_565 S
C1670 H1682 0.956 . S
C1670 H1683 0.961 . S
C1670 H1684 0.961 . S
C1671 C1668 1.539 . S
C1671 H1685 0.958 . S
C1671 H1686 0.961 . S
C1671 H1687 0.960 . S
H1672 C1656 0.931 . S
H1673 C1661 0.929 . S
H1674 C1662 0.960 . S
H1675 C1662 0.962 . S
H1676 C1662 0.960 . S
H1677 C1663 0.961 . S
H1678 C1663 0.961 . S
H1679 C1663 0.961 . S
H1680 C1664 0.931 1_565 S
H1681 C1669 0.930 . S
H1682 C1670 0.956 . S
H1683 C1670 0.961 . S
H1684 C1670 0.961 . S
H1685 C1671 0.958 . S
H1686 C1671 0.961 . S
H1687 C1671 0.960 . S
C1688 C1689 1.391 . S
C1688 C1690 1.394 . S
C1688 H1704 0.931 . S
C1689 C1688 1.391 . S
C1689 C1693 1.376 . S
C1690 C1688 1.394 . S
C1690 C1691 1.369 . S
C1690 C1694 1.531 . S
C1691 C1690 1.369 . S
C1691 C1692 1.410 . S
C1691 C1699 1.503 . S
C1692 C1691 1.410 . S
C1692 C1693 1.392 . S
C1692 C1695 1.511 . S
C1693 C1689 1.376 . S
C1693 C1692 1.392 . S
C1693 H1705 0.929 . S
C1694 C1690 1.531 . S
C1694 H1706 0.960 . S
C1694 H1707 0.962 . S
C1694 H1708 0.960 . S
C1695 C1692 1.511 . S
C1695 H1709 0.961 . S
C1695 H1710 0.961 . S
C1695 H1711 0.961 . S
C1696 C1697 1.370 . S
C1696 C1698 1.363 . S
C1696 H1712 0.931 . S
C1697 C1696 1.370 . S
C1697 C1701 1.408 . S
C1698 C1696 1.363 . S
C1698 C1699 1.370 . S
C1698 C1702 1.524 . S
C1699 C1691 1.503 . S
C1699 C1698 1.370 . S
C1699 C1700 1.403 . S
C1700 C1699 1.403 . S
C1700 C1701 1.404 . S
C1700 C1703 1.539 . S
C1701 C1697 1.408 . S
C1701 C1700 1.404 . S
C1701 H1713 0.930 . S
C1702 C1698 1.524 . S
C1702 H1714 0.956 . S
C1702 H1715 0.961 . S
C1702 H1716 0.961 . S
C1703 C1700 1.539 . S
C1703 H1717 0.958 . S
C1703 H1718 0.961 . S
C1703 H1719 0.960 . S
H1704 C1688 0.931 . S
H1705 C1693 0.929 . S
H1706 C1694 0.960 . S
H1707 C1694 0.962 . S
H1708 C1694 0.960 . S
H1709 C1695 0.961 . S
H1710 C1695 0.961 . S
H1711 C1695 0.961 . S
H1712 C1696 0.931 . S
H1713 C1701 0.930 . S
H1714 C1702 0.956 . S
H1715 C1702 0.961 . S
H1716 C1702 0.961 . S
H1717 C1703 0.958 . S
H1718 C1703 0.961 . S
H1719 C1703 0.960 . S
C1720 C1721 1.391 . S
C1720 C1722 1.394 . S
C1720 H1736 0.931 . S
C1721 C1720 1.391 . S
C1721 C1725 1.376 . S
C1722 C1720 1.394 . S
C1722 C1723 1.369 . S
C1722 C1726 1.531 . S
C1723 C1722 1.369 . S
C1723 C1724 1.410 . S
C1723 C1731 1.503 . S
C1724 C1723 1.410 . S
C1724 C1725 1.392 . S
C1724 C1727 1.511 1_545 S
C1725 C1721 1.376 . S
C1725 C1724 1.392 . S
C1725 H1737 0.929 . S
C1726 C1722 1.531 . S
C1726 H1738 0.960 . S
C1726 H1739 0.962 . S
C1726 H1740 0.960 . S
C1727 C1724 1.511 1_565 S
C1727 H1741 0.961 . S
C1727 H1742 0.961 . S
C1727 H1743 0.961 1_565 S
C1728 C1729 1.370 . S
C1728 C1730 1.363 . S
C1728 H1744 0.931 1_545 S
C1729 C1728 1.370 . S
C1729 C1733 1.408 . S
C1730 C1728 1.363 . S
C1730 C1731 1.370 . S
C1730 C1734 1.524 1_545 S
C1731 C1723 1.503 . S
C1731 C1730 1.370 . S
C1731 C1732 1.403 . S
C1732 C1731 1.403 . S
C1732 C1733 1.404 . S
C1732 C1735 1.539 . S
C1733 C1729 1.408 . S
C1733 C1732 1.404 . S
C1733 H1745 0.930 . S
C1734 C1730 1.524 1_565 S
C1734 H1746 0.956 . S
C1734 H1747 0.961 . S
C1734 H1748 0.961 . S
C1735 C1732 1.539 . S
C1735 H1749 0.958 . S
C1735 H1750 0.961 . S
C1735 H1751 0.960 . S
H1736 C1720 0.931 . S
H1737 C1725 0.929 . S
H1738 C1726 0.960 . S
H1739 C1726 0.962 . S
H1740 C1726 0.960 . S
H1741 C1727 0.961 . S
H1742 C1727 0.961 . S
H1743 C1727 0.961 1_545 S
H1744 C1728 0.931 1_565 S
H1745 C1733 0.930 . S
H1746 C1734 0.956 . S
H1747 C1734 0.961 . S
H1748 C1734 0.961 . S
H1749 C1735 0.958 . S
H1750 C1735 0.961 . S
H1751 C1735 0.960 . S
C1752 C1753 1.391 . S
C1752 C1754 1.394 . S
C1752 H1768 0.931 . S
C1753 C1752 1.391 . S
C1753 C1757 1.376 . S
C1754 C1752 1.394 . S
C1754 C1755 1.369 . S
C1754 C1758 1.531 . S
C1755 C1754 1.369 . S
C1755 C1756 1.410 . S
C1755 C1763 1.503 . S
C1756 C1755 1.410 . S
C1756 C1757 1.392 . S
C1756 C1759 1.511 . S
C1757 C1753 1.376 . S
C1757 C1756 1.392 . S
C1757 H1769 0.929 . S
C1758 C1754 1.531 . S
C1758 H1770 0.960 . S
C1758 H1771 0.962 . S
C1758 H1772 0.960 . S
C1759 C1756 1.511 . S
C1759 H1773 0.961 . S
C1759 H1774 0.961 . S
C1759 H1775 0.961 . S
C1760 C1761 1.370 . S
C1760 C1762 1.363 . S
C1760 H1776 0.931 . S
C1761 C1760 1.370 . S
C1761 C1765 1.408 . S
C1762 C1760 1.363 . S
C1762 C1763 1.370 . S
C1762 C1766 1.524 . S
C1763 C1755 1.503 . S
C1763 C1762 1.370 . S
C1763 C1764 1.403 . S
C1764 C1763 1.403 . S
C1764 C1765 1.404 . S
C1764 C1767 1.539 . S
C1765 C1761 1.408 . S
C1765 C1764 1.404 . S
C1765 H1777 0.930 . S
C1766 C1762 1.524 . S
C1766 H1778 0.956 . S
C1766 H1779 0.961 . S
C1766 H1780 0.961 . S
C1767 C1764 1.539 . S
C1767 H1781 0.958 . S
C1767 H1782 0.961 . S
C1767 H1783 0.960 . S
H1768 C1752 0.931 . S
H1769 C1757 0.929 . S
H1770 C1758 0.960 . S
H1771 C1758 0.962 . S
H1772 C1758 0.960 . S
H1773 C1759 0.961 . S
H1774 C1759 0.961 . S
H1775 C1759 0.961 . S
H1776 C1760 0.931 . S
H1777 C1765 0.930 . S
H1778 C1766 0.956 . S
H1779 C1766 0.961 . S
H1780 C1766 0.961 . S
H1781 C1767 0.958 . S
H1782 C1767 0.961 . S
H1783 C1767 0.960 . S
C1784 C1785 1.391 1_565 S
C1784 C1786 1.394 . S
C1784 H1800 0.931 . S
C1785 C1784 1.391 1_545 S
C1785 C1789 1.376 . S
C1786 C1784 1.394 . S
C1786 C1787 1.369 1_565 S
C1786 C1790 1.531 . S
C1787 C1786 1.369 1_545 S
C1787 C1788 1.410 . S
C1787 C1795 1.503 . S
C1788 C1787 1.410 . S
C1788 C1789 1.392 . S
C1788 C1791 1.511 . S
C1789 C1785 1.376 . S
C1789 C1788 1.392 . S
C1789 H1801 0.929 . S
C1790 C1786 1.531 . S
C1790 H1802 0.960 . S
C1790 H1803 0.962 . S
C1790 H1804 0.960 . S
C1791 C1788 1.511 . S
C1791 H1805 0.961 . S
C1791 H1806 0.961 . S
C1791 H1807 0.961 . S
C1792 C1793 1.370 . S
C1792 C1794 1.363 . S
C1792 H1808 0.931 . S
C1793 C1792 1.370 . S
C1793 C1797 1.408 . S
C1794 C1792 1.363 . S
C1794 C1795 1.370 . S
C1794 C1798 1.524 . S
C1795 C1787 1.503 . S
C1795 C1794 1.370 . S
C1795 C1796 1.403 . S
C1796 C1795 1.403 . S
C1796 C1797 1.404 . S
C1796 C1799 1.539 . S
C1797 C1793 1.408 . S
C1797 C1796 1.404 . S
C1797 H1809 0.930 . S
C1798 C1794 1.524 . S
C1798 H1810 0.956 1_545 S
C1798 H1811 0.961 . S
C1798 H1812 0.961 . S
C1799 C1796 1.539 . S
C1799 H1813 0.958 1_545 S
C1799 H1814 0.961 . S
C1799 H1815 0.960 . S
H1800 C1784 0.931 . S
H1801 C1789 0.929 . S
H1802 C1790 0.960 . S
H1803 C1790 0.962 . S
H1804 C1790 0.960 . S
H1805 C1791 0.961 . S
H1806 C1791 0.961 . S
H1807 C1791 0.961 . S
H1808 C1792 0.931 . S
H1809 C1797 0.930 . S
H1810 C1798 0.956 1_565 S
H1811 C1798 0.961 . S
H1812 C1798 0.961 . S
H1813 C1799 0.958 1_565 S
H1814 C1799 0.961 . S
H1815 C1799 0.960 . S
C1816 C1817 1.391 . S
C1816 C1818 1.394 . S
C1816 H1832 0.931 . S
C1817 C1816 1.391 . S
C1817 C1821 1.376 . S
C1818 C1816 1.394 . S
C1818 C1819 1.369 . S
C1818 C1822 1.531 . S
C1819 C1818 1.369 . S
C1819 C1820 1.410 . S
C1819 C1827 1.503 . S
C1820 C1819 1.410 . S
C1820 C1821 1.392 . S
C1820 C1823 1.511 . S
C1821 C1817 1.376 . S
C1821 C1820 1.392 . S
C1821 H1833 0.929 . S
C1822 C1818 1.531 . S
C1822 H1834 0.960 . S
C1822 H1835 0.962 . S
C1822 H1836 0.960 . S
C1823 C1820 1.511 . S
C1823 H1837 0.961 . S
C1823 H1838 0.961 . S
C1823 H1839 0.961 . S
C1824 C1825 1.370 . S
C1824 C1826 1.363 . S
C1824 H1840 0.931 . S
C1825 C1824 1.370 . S
C1825 C1829 1.408 . S
C1826 C1824 1.363 . S
C1826 C1827 1.370 . S
C1826 C1830 1.524 . S
C1827 C1819 1.503 . S
C1827 C1826 1.370 . S
C1827 C1828 1.403 . S
C1828 C1827 1.403 . S
C1828 C1829 1.404 . S
C1828 C1831 1.539 . S
C1829 C1825 1.408 . S
C1829 C1828 1.404 . S
C1829 H1841 0.930 . S
C1830 C1826 1.524 . S
C1830 H1842 0.956 . S
C1830 H1843 0.961 . S
C1830 H1844 0.961 . S
C1831 C1828 1.539 . S
C1831 H1845 0.958 . S
C1831 H1846 0.961 . S
C1831 H1847 0.960 . S
H1832 C1816 0.931 . S
H1833 C1821 0.929 . S
H1834 C1822 0.960 . S
H1835 C1822 0.962 . S
H1836 C1822 0.960 . S
H1837 C1823 0.961 . S
H1838 C1823 0.961 . S
H1839 C1823 0.961 . S
H1840 C1824 0.931 . S
H1841 C1829 0.930 . S
H1842 C1830 0.956 . S
H1843 C1830 0.961 . S
H1844 C1830 0.961 . S
H1845 C1831 0.958 . S
H1846 C1831 0.961 . S
H1847 C1831 0.960 . S
C1848 C1849 1.391 . S
C1848 C1850 1.394 . S
C1848 H1864 0.931 1_545 S
C1849 C1848 1.391 . S
C1849 C1853 1.376 . S
C1850 C1848 1.394 . S
C1850 C1851 1.369 . S
C1850 C1854 1.531 1_545 S
C1851 C1850 1.369 . S
C1851 C1852 1.410 . S
C1851 C1859 1.503 . S
C1852 C1851 1.410 . S
C1852 C1853 1.392 . S
C1852 C1855 1.511 . S
C1853 C1849 1.376 . S
C1853 C1852 1.392 . S
C1853 H1865 0.929 . S
C1854 C1850 1.531 1_565 S
C1854 H1866 0.960 . S
C1854 H1867 0.962 . S
C1854 H1868 0.960 . S
C1855 C1852 1.511 . S
C1855 H1869 0.961 . S
C1855 H1870 0.961 . S
C1855 H1871 0.961 . S
C1856 C1857 1.370 . S
C1856 C1858 1.363 . S
C1856 H1872 0.931 . S
C1857 C1856 1.370 . S
C1857 C1861 1.408 . S
C1858 C1856 1.363 . S
C1858 C1859 1.370 . S
C1858 C1862 1.524 . S
C1859 C1851 1.503 . S
C1859 C1858 1.370 . S
C1859 C1860 1.403 . S
C1860 C1859 1.403 . S
C1860 C1861 1.404 . S
C1860 C1863 1.539 . S
C1861 C1857 1.408 . S
C1861 C1860 1.404 . S
C1861 H1873 0.930 . S
C1862 C1858 1.524 . S
C1862 H1874 0.956 . S
C1862 H1875 0.961 . S
C1862 H1876 0.961 . S
C1863 C1860 1.539 . S
C1863 H1877 0.958 1_545 S
C1863 H1878 0.961 . S
C1863 H1879 0.960 . S
H1864 C1848 0.931 1_565 S
H1865 C1853 0.929 . S
H1866 C1854 0.960 . S
H1867 C1854 0.962 . S
H1868 C1854 0.960 . S
H1869 C1855 0.961 . S
H1870 C1855 0.961 . S
H1871 C1855 0.961 . S
H1872 C1856 0.931 . S
H1873 C1861 0.930 . S
H1874 C1862 0.956 . S
H1875 C1862 0.961 . S
H1876 C1862 0.961 . S
H1877 C1863 0.958 1_565 S
H1878 C1863 0.961 . S
H1879 C1863 0.960 . S
C1880 C1881 1.391 . S
C1880 C1882 1.394 . S
C1880 H1896 0.931 . S
C1881 C1880 1.391 . S
C1881 C1885 1.376 . S
C1882 C1880 1.394 . S
C1882 C1883 1.369 . S
C1882 C1886 1.531 . S
C1883 C1882 1.369 . S
C1883 C1884 1.410 . S
C1883 C1891 1.503 . S
C1884 C1883 1.410 . S
C1884 C1885 1.392 . S
C1884 C1887 1.511 . S
C1885 C1881 1.376 . S
C1885 C1884 1.392 . S
C1885 H1897 0.929 . S
C1886 C1882 1.531 . S
C1886 H1898 0.960 . S
C1886 H1899 0.962 . S
C1886 H1900 0.960 . S
C1887 C1884 1.511 . S
C1887 H1901 0.961 . S
C1887 H1902 0.961 . S
C1887 H1903 0.961 . S
C1888 C1889 1.370 . S
C1888 C1890 1.363 . S
C1888 H1904 0.931 . S
C1889 C1888 1.370 . S
C1889 C1893 1.408 . S
C1890 C1888 1.363 . S
C1890 C1891 1.370 . S
C1890 C1894 1.524 . S
C1891 C1883 1.503 . S
C1891 C1890 1.370 . S
C1891 C1892 1.403 . S
C1892 C1891 1.403 . S
C1892 C1893 1.404 . S
C1892 C1895 1.539 . S
C1893 C1889 1.408 . S
C1893 C1892 1.404 . S
C1893 H1905 0.930 . S
C1894 C1890 1.524 . S
C1894 H1906 0.956 . S
C1894 H1907 0.961 . S
C1894 H1908 0.961 . S
C1895 C1892 1.539 . S
C1895 H1909 0.958 . S
C1895 H1910 0.961 . S
C1895 H1911 0.960 . S
H1896 C1880 0.931 . S
H1897 C1885 0.929 . S
H1898 C1886 0.960 . S
H1899 C1886 0.962 . S
H1900 C1886 0.960 . S
H1901 C1887 0.961 . S
H1902 C1887 0.961 . S
H1903 C1887 0.961 . S
H1904 C1888 0.931 . S
H1905 C1893 0.930 . S
H1906 C1894 0.956 . S
H1907 C1894 0.961 . S
H1908 C1894 0.961 . S
H1909 C1895 0.958 . S
H1910 C1895 0.961 . S
H1911 C1895 0.960 . S
C1912 C1913 1.391 . S
C1912 C1914 1.394 . S
C1912 H1928 0.931 1_554 S
C1913 C1912 1.391 . S
C1913 C1917 1.376 . S
C1914 C1912 1.394 . S
C1914 C1915 1.369 . S
C1914 C1918 1.531 1_554 S
C1915 C1914 1.369 . S
C1915 C1916 1.410 . S
C1915 C1923 1.503 . S
C1916 C1915 1.410 . S
C1916 C1917 1.392 . S
C1916 C1919 1.511 . S
C1917 C1913 1.376 . S
C1917 C1916 1.392 . S
C1917 H1929 0.929 . S
C1918 C1914 1.531 1_556 S
C1918 H1930 0.960 . S
C1918 H1931 0.962 . S
C1918 H1932 0.960 . S
C1919 C1916 1.511 . S
C1919 H1933 0.961 . S
C1919 H1934 0.961 . S
C1919 H1935 0.961 . S
C1920 C1921 1.370 . S
C1920 C1922 1.363 . S
C1920 H1936 0.931 . S
C1921 C1920 1.370 . S
C1921 C1925 1.408 . S
C1922 C1920 1.363 . S
C1922 C1923 1.370 . S
C1922 C1926 1.524 . S
C1923 C1915 1.503 . S
C1923 C1922 1.370 . S
C1923 C1924 1.403 . S
C1924 C1923 1.403 . S
C1924 C1925 1.404 . S
C1924 C1927 1.539 . S
C1925 C1921 1.408 . S
C1925 C1924 1.404 . S
C1925 H1937 0.930 . S
C1926 C1922 1.524 . S
C1926 H1938 0.956 . S
C1926 H1939 0.961 . S
C1926 H1940 0.961 . S
C1927 C1924 1.539 . S
C1927 H1941 0.958 1_554 S
C1927 H1942 0.961 . S
C1927 H1943 0.960 . S
H1928 C1912 0.931 1_556 S
H1929 C1917 0.929 . S
H1930 C1918 0.960 . S
H1931 C1918 0.962 . S
H1932 C1918 0.960 . S
H1933 C1919 0.961 . S
H1934 C1919 0.961 . S
H1935 C1919 0.961 . S
H1936 C1920 0.931 . S
H1937 C1925 0.930 . S
H1938 C1926 0.956 . S
H1939 C1926 0.961 . S
H1940 C1926 0.961 . S
H1941 C1927 0.958 1_556 S
H1942 C1927 0.961 . S
H1943 C1927 0.960 . S
C1944 C1945 1.391 . S
C1944 C1946 1.394 . S
C1944 H1960 0.931 . S
C1945 C1944 1.391 . S
C1945 C1949 1.376 . S
C1946 C1944 1.394 . S
C1946 C1947 1.369 . S
C1946 C1950 1.531 . S
C1947 C1946 1.369 . S
C1947 C1948 1.410 . S
C1947 C1955 1.503 . S
C1948 C1947 1.410 . S
C1948 C1949 1.392 . S
C1948 C1951 1.511 . S
C1949 C1945 1.376 . S
C1949 C1948 1.392 . S
C1949 H1961 0.929 . S
C1950 C1946 1.531 . S
C1950 H1962 0.960 . S
C1950 H1963 0.962 . S
C1950 H1964 0.960 . S
C1951 C1948 1.511 . S
C1951 H1965 0.961 . S
C1951 H1966 0.961 . S
C1951 H1967 0.961 1_554 S
C1952 C1953 1.370 . S
C1952 C1954 1.363 . S
C1952 H1968 0.931 . S
C1953 C1952 1.370 . S
C1953 C1957 1.408 . S
C1954 C1952 1.363 . S
C1954 C1955 1.370 . S
C1954 C1958 1.524 . S
C1955 C1947 1.503 . S
C1955 C1954 1.370 . S
C1955 C1956 1.403 . S
C1956 C1955 1.403 . S
C1956 C1957 1.404 . S
C1956 C1959 1.539 1_554 S
C1957 C1953 1.408 . S
C1957 C1956 1.404 . S
C1957 H1969 0.930 1_554 S
C1958 C1954 1.524 . S
C1958 H1970 0.956 . S
C1958 H1971 0.961 . S
C1958 H1972 0.961 . S
C1959 C1956 1.539 1_556 S
C1959 H1973 0.958 . S
C1959 H1974 0.961 . S
C1959 H1975 0.960 . S
H1960 C1944 0.931 . S
H1961 C1949 0.929 . S
H1962 C1950 0.960 . S
H1963 C1950 0.962 . S
H1964 C1950 0.960 . S
H1965 C1951 0.961 . S
H1966 C1951 0.961 . S
H1967 C1951 0.961 1_556 S
H1968 C1952 0.931 . S
H1969 C1957 0.930 1_556 S
H1970 C1958 0.956 . S
H1971 C1958 0.961 . S
H1972 C1958 0.961 . S
H1973 C1959 0.958 . S
H1974 C1959 0.961 . S
H1975 C1959 0.960 . S
C1976 C1977 1.391 . S
C1976 C1978 1.394 . S
C1976 H1992 0.931 . S
C1977 C1976 1.391 . S
C1977 C1981 1.376 . S
C1978 C1976 1.394 . S
C1978 C1979 1.369 . S
C1978 C1982 1.531 . S
C1979 C1978 1.369 . S
C1979 C1980 1.410 . S
C1979 C1987 1.503 . S
C1980 C1979 1.410 . S
C1980 C1981 1.392 . S
C1980 C1983 1.511 . S
C1981 C1977 1.376 . S
C1981 C1980 1.392 . S
C1981 H1993 0.929 . S
C1982 C1978 1.531 . S
C1982 H1994 0.960 . S
C1982 H1995 0.962 . S
C1982 H1996 0.960 . S
C1983 C1980 1.511 . S
C1983 H1997 0.961 . S
C1983 H1998 0.961 . S
C1983 H1999 0.961 . S
C1984 C1985 1.370 . S
C1984 C1986 1.363 . S
C1984 H2000 0.931 . S
C1985 C1984 1.370 . S
C1985 C1989 1.408 . S
C1986 C1984 1.363 . S
C1986 C1987 1.370 . S
C1986 C1990 1.524 . S
C1987 C1979 1.503 . S
C1987 C1986 1.370 . S
C1987 C1988 1.403 . S
C1988 C1987 1.403 . S
C1988 C1989 1.404 . S
C1988 C1991 1.539 . S
C1989 C1985 1.408 . S
C1989 C1988 1.404 . S
C1989 H2001 0.930 . S
C1990 C1986 1.524 . S
C1990 H2002 0.956 . S
C1990 H2003 0.961 . S
C1990 H2004 0.961 . S
C1991 C1988 1.539 . S
C1991 H2005 0.958 . S
C1991 H2006 0.961 . S
C1991 H2007 0.960 . S
H1992 C1976 0.931 . S
H1993 C1981 0.929 . S
H1994 C1982 0.960 . S
H1995 C1982 0.962 . S
H1996 C1982 0.960 . S
H1997 C1983 0.961 . S
H1998 C1983 0.961 . S
H1999 C1983 0.961 . S
H2000 C1984 0.931 . S
H2001 C1989 0.930 . S
H2002 C1990 0.956 . S
H2003 C1990 0.961 . S
H2004 C1990 0.961 . S
H2005 C1991 0.958 . S
H2006 C1991 0.961 . S
H2007 C1991 0.960 . S
C2008 C2009 1.391 . S
C2008 C2010 1.394 . S
C2008 H2024 0.931 . S
C2009 C2008 1.391 . S
C2009 C2013 1.376 . S
C2010 C2008 1.394 . S
C2010 C2011 1.369 . S
C2010 C2014 1.531 . S
C2011 C2010 1.369 . S
C2011 C2012 1.410 . S
C2011 C2019 1.503 . S
C2012 C2011 1.410 . S
C2012 C2013 1.392 . S
C2012 C2015 1.511 . S
C2013 C2009 1.376 . S
C2013 C2012 1.392 . S
C2013 H2025 0.929 . S
C2014 C2010 1.531 . S
C2014 H2026 0.960 . S
C2014 H2027 0.962 . S
C2014 H2028 0.960 . S
C2015 C2012 1.511 . S
C2015 H2029 0.961 . S
C2015 H2030 0.961 . S
C2015 H2031 0.961 . S
C2016 C2017 1.370 . S
C2016 C2018 1.363 . S
C2016 H2032 0.931 . S
C2017 C2016 1.370 . S
C2017 C2021 1.408 . S
C2018 C2016 1.363 . S
C2018 C2019 1.370 . S
C2018 C2022 1.524 . S
C2019 C2011 1.503 . S
C2019 C2018 1.370 . S
C2019 C2020 1.403 . S
C2020 C2019 1.403 . S
C2020 C2021 1.404 . S
C2020 C2023 1.539 . S
C2021 C2017 1.408 . S
C2021 C2020 1.404 . S
C2021 H2033 0.930 . S
C2022 C2018 1.524 . S
C2022 H2034 0.956 . S
C2022 H2035 0.961 . S
C2022 H2036 0.961 . S
C2023 C2020 1.539 . S
C2023 H2037 0.958 . S
C2023 H2038 0.961 . S
C2023 H2039 0.960 . S
H2024 C2008 0.931 . S
H2025 C2013 0.929 . S
H2026 C2014 0.960 . S
H2027 C2014 0.962 . S
H2028 C2014 0.960 . S
H2029 C2015 0.961 . S
H2030 C2015 0.961 . S
H2031 C2015 0.961 . S
H2032 C2016 0.931 . S
H2033 C2021 0.930 . S
H2034 C2022 0.956 . S
H2035 C2022 0.961 . S
H2036 C2022 0.961 . S
H2037 C2023 0.958 . S
H2038 C2023 0.961 . S
H2039 C2023 0.960 . S
C2040 C2041 1.391 . S
C2040 C2042 1.394 . S
C2040 H2056 0.931 . S
C2041 C2040 1.391 . S
C2041 C2045 1.376 . S
C2042 C2040 1.394 . S
C2042 C2043 1.369 . S
C2042 C2046 1.531 . S
C2043 C2042 1.369 . S
C2043 C2044 1.410 . S
C2043 C2051 1.503 . S
C2044 C2043 1.410 . S
C2044 C2045 1.392 . S
C2044 C2047 1.511 . S
C2045 C2041 1.376 . S
C2045 C2044 1.392 . S
C2045 H2057 0.929 . S
C2046 C2042 1.531 . S
C2046 H2058 0.960 . S
C2046 H2059 0.962 . S
C2046 H2060 0.960 . S
C2047 C2044 1.511 . S
C2047 H2061 0.961 . S
C2047 H2062 0.961 . S
C2047 H2063 0.961 . S
C2048 C2049 1.370 . S
C2048 C2050 1.363 . S
C2048 H2064 0.931 . S
C2049 C2048 1.370 . S
C2049 C2053 1.408 . S
C2050 C2048 1.363 . S
C2050 C2051 1.370 . S
C2050 C2054 1.524 . S
C2051 C2043 1.503 . S
C2051 C2050 1.370 . S
C2051 C2052 1.403 . S
C2052 C2051 1.403 . S
C2052 C2053 1.404 . S
C2052 C2055 1.539 . S
C2053 C2049 1.408 . S
C2053 C2052 1.404 . S
C2053 H2065 0.930 . S
C2054 C2050 1.524 . S
C2054 H2066 0.956 . S
C2054 H2067 0.961 . S
C2054 H2068 0.961 . S
C2055 C2052 1.539 . S
C2055 H2069 0.958 . S
C2055 H2070 0.961 . S
C2055 H2071 0.960 . S
H2056 C2040 0.931 . S
H2057 C2045 0.929 . S
H2058 C2046 0.960 . S
H2059 C2046 0.962 . S
H2060 C2046 0.960 . S
H2061 C2047 0.961 . S
H2062 C2047 0.961 . S
H2063 C2047 0.961 . S
H2064 C2048 0.931 . S
H2065 C2053 0.930 . S
H2066 C2054 0.956 . S
H2067 C2054 0.961 . S
H2068 C2054 0.961 . S
H2069 C2055 0.958 . S
H2070 C2055 0.961 . S
H2071 C2055 0.960 . S
C2072 C2073 1.391 . S
C2072 C2074 1.394 . S
C2072 H2088 0.931 . S
C2073 C2072 1.391 . S
C2073 C2077 1.376 . S
C2074 C2072 1.394 . S
C2074 C2075 1.369 . S
C2074 C2078 1.531 . S
C2075 C2074 1.369 . S
C2075 C2076 1.410 . S
C2075 C2083 1.503 . S
C2076 C2075 1.410 . S
C2076 C2077 1.392 . S
C2076 C2079 1.511 . S
C2077 C2073 1.376 . S
C2077 C2076 1.392 . S
C2077 H2089 0.929 . S
C2078 C2074 1.531 . S
C2078 H2090 0.960 . S
C2078 H2091 0.962 . S
C2078 H2092 0.960 . S
C2079 C2076 1.511 . S
C2079 H2093 0.961 . S
C2079 H2094 0.961 . S
C2079 H2095 0.961 . S
C2080 C2081 1.370 . S
C2080 C2082 1.363 . S
C2080 H2096 0.931 . S
C2081 C2080 1.370 . S
C2081 C2085 1.408 . S
C2082 C2080 1.363 . S
C2082 C2083 1.370 . S
C2082 C2086 1.524 . S
C2083 C2075 1.503 . S
C2083 C2082 1.370 . S
C2083 C2084 1.403 . S
C2084 C2083 1.403 . S
C2084 C2085 1.404 . S
C2084 C2087 1.539 . S
C2085 C2081 1.408 . S
C2085 C2084 1.404 . S
C2085 H2097 0.930 . S
C2086 C2082 1.524 . S
C2086 H2098 0.956 . S
C2086 H2099 0.961 . S
C2086 H2100 0.961 . S
C2087 C2084 1.539 . S
C2087 H2101 0.958 . S
C2087 H2102 0.961 . S
C2087 H2103 0.960 . S
H2088 C2072 0.931 . S
H2089 C2077 0.929 . S
H2090 C2078 0.960 . S
H2091 C2078 0.962 . S
H2092 C2078 0.960 . S
H2093 C2079 0.961 . S
H2094 C2079 0.961 . S
H2095 C2079 0.961 . S
H2096 C2080 0.931 . S
H2097 C2085 0.930 . S
H2098 C2086 0.956 . S
H2099 C2086 0.961 . S
H2100 C2086 0.961 . S
H2101 C2087 0.958 . S
H2102 C2087 0.961 . S
H2103 C2087 0.960 . S
C2104 C2105 1.391 . S
C2104 C2106 1.394 . S
C2104 H2120 0.931 . S
C2105 C2104 1.391 . S
C2105 C2109 1.376 . S
C2106 C2104 1.394 . S
C2106 C2107 1.369 . S
C2106 C2110 1.531 . S
C2107 C2106 1.369 . S
C2107 C2108 1.410 . S
C2107 C2115 1.503 . S
C2108 C2107 1.410 . S
C2108 C2109 1.392 . S
C2108 C2111 1.511 . S
C2109 C2105 1.376 . S
C2109 C2108 1.392 . S
C2109 H2121 0.929 . S
C2110 C2106 1.531 . S
C2110 H2122 0.960 . S
C2110 H2123 0.962 . S
C2110 H2124 0.960 . S
C2111 C2108 1.511 . S
C2111 H2125 0.961 . S
C2111 H2126 0.961 . S
C2111 H2127 0.961 . S
C2112 C2113 1.370 . S
C2112 C2114 1.363 . S
C2112 H2128 0.931 . S
C2113 C2112 1.370 . S
C2113 C2117 1.408 . S
C2114 C2112 1.363 . S
C2114 C2115 1.370 . S
C2114 C2118 1.524 . S
C2115 C2107 1.503 . S
C2115 C2114 1.370 . S
C2115 C2116 1.403 . S
C2116 C2115 1.403 . S
C2116 C2117 1.404 . S
C2116 C2119 1.539 . S
C2117 C2113 1.408 . S
C2117 C2116 1.404 . S
C2117 H2129 0.930 . S
C2118 C2114 1.524 . S
C2118 H2130 0.956 . S
C2118 H2131 0.961 . S
C2118 H2132 0.961 . S
C2119 C2116 1.539 . S
C2119 H2133 0.958 . S
C2119 H2134 0.961 . S
C2119 H2135 0.960 . S
H2120 C2104 0.931 . S
H2121 C2109 0.929 . S
H2122 C2110 0.960 . S
H2123 C2110 0.962 . S
H2124 C2110 0.960 . S
H2125 C2111 0.961 . S
H2126 C2111 0.961 . S
H2127 C2111 0.961 . S
H2128 C2112 0.931 . S
H2129 C2117 0.930 . S
H2130 C2118 0.956 . S
H2131 C2118 0.961 . S
H2132 C2118 0.961 . S
H2133 C2119 0.958 . S
H2134 C2119 0.961 . S
H2135 C2119 0.960 . S
C2136 C2137 1.391 . S
C2136 C2138 1.394 . S
C2136 H2152 0.931 . S
C2137 C2136 1.391 . S
C2137 C2141 1.376 . S
C2138 C2136 1.394 . S
C2138 C2139 1.369 . S
C2138 C2142 1.531 . S
C2139 C2138 1.369 . S
C2139 C2140 1.410 . S
C2139 C2147 1.503 . S
C2140 C2139 1.410 . S
C2140 C2141 1.392 . S
C2140 C2143 1.511 . S
C2141 C2137 1.376 . S
C2141 C2140 1.392 . S
C2141 H2153 0.929 . S
C2142 C2138 1.531 . S
C2142 H2154 0.960 . S
C2142 H2155 0.962 . S
C2142 H2156 0.960 . S
C2143 C2140 1.511 . S
C2143 H2157 0.961 . S
C2143 H2158 0.961 . S
C2143 H2159 0.961 . S
C2144 C2145 1.370 . S
C2144 C2146 1.363 . S
C2144 H2160 0.931 . S
C2145 C2144 1.370 . S
C2145 C2149 1.408 . S
C2146 C2144 1.363 . S
C2146 C2147 1.370 . S
C2146 C2150 1.524 . S
C2147 C2139 1.503 . S
C2147 C2146 1.370 . S
C2147 C2148 1.403 . S
C2148 C2147 1.403 . S
C2148 C2149 1.404 . S
C2148 C2151 1.539 . S
C2149 C2145 1.408 . S
C2149 C2148 1.404 . S
C2149 H2161 0.930 . S
C2150 C2146 1.524 . S
C2150 H2162 0.956 . S
C2150 H2163 0.961 . S
C2150 H2164 0.961 . S
C2151 C2148 1.539 . S
C2151 H2165 0.958 . S
C2151 H2166 0.961 . S
C2151 H2167 0.960 . S
H2152 C2136 0.931 . S
H2153 C2141 0.929 . S
H2154 C2142 0.960 . S
H2155 C2142 0.962 . S
H2156 C2142 0.960 . S
H2157 C2143 0.961 . S
H2158 C2143 0.961 . S
H2159 C2143 0.961 . S
H2160 C2144 0.931 . S
H2161 C2149 0.930 . S
H2162 C2150 0.956 . S
H2163 C2150 0.961 . S
H2164 C2150 0.961 . S
H2165 C2151 0.958 . S
H2166 C2151 0.961 . S
H2167 C2151 0.960 . S
C2168 C2169 1.391 . S
C2168 C2170 1.394 . S
C2168 H2184 0.931 . S
C2169 C2168 1.391 . S
C2169 C2173 1.376 . S
C2170 C2168 1.394 . S
C2170 C2171 1.369 . S
C2170 C2174 1.531 . S
C2171 C2170 1.369 . S
C2171 C2172 1.410 . S
C2171 C2179 1.503 . S
C2172 C2171 1.410 . S
C2172 C2173 1.392 . S
C2172 C2175 1.511 . S
C2173 C2169 1.376 . S
C2173 C2172 1.392 . S
C2173 H2185 0.929 . S
C2174 C2170 1.531 . S
C2174 H2186 0.960 . S
C2174 H2187 0.962 . S
C2174 H2188 0.960 . S
C2175 C2172 1.511 . S
C2175 H2189 0.961 . S
C2175 H2190 0.961 . S
C2175 H2191 0.961 . S
C2176 C2177 1.370 . S
C2176 C2178 1.363 . S
C2176 H2192 0.931 . S
C2177 C2176 1.370 . S
C2177 C2181 1.408 . S
C2178 C2176 1.363 . S
C2178 C2179 1.370 . S
C2178 C2182 1.524 . S
C2179 C2171 1.503 . S
C2179 C2178 1.370 . S
C2179 C2180 1.403 . S
C2180 C2179 1.403 . S
C2180 C2181 1.404 . S
C2180 C2183 1.539 . S
C2181 C2177 1.408 . S
C2181 C2180 1.404 . S
C2181 H2193 0.930 . S
C2182 C2178 1.524 . S
C2182 H2194 0.956 . S
C2182 H2195 0.961 . S
C2182 H2196 0.961 . S
C2183 C2180 1.539 . S
C2183 H2197 0.958 . S
C2183 H2198 0.961 . S
C2183 H2199 0.960 . S
H2184 C2168 0.931 . S
H2185 C2173 0.929 . S
H2186 C2174 0.960 . S
H2187 C2174 0.962 . S
H2188 C2174 0.960 . S
H2189 C2175 0.961 . S
H2190 C2175 0.961 . S
H2191 C2175 0.961 . S
H2192 C2176 0.931 . S
H2193 C2181 0.930 . S
H2194 C2182 0.956 . S
H2195 C2182 0.961 . S
H2196 C2182 0.961 . S
H2197 C2183 0.958 . S
H2198 C2183 0.961 . S
H2199 C2183 0.960 . S
C2200 C2201 1.391 . S
C2200 C2202 1.394 . S
C2200 H2216 0.931 . S
C2201 C2200 1.391 . S
C2201 C2205 1.376 . S
C2202 C2200 1.394 . S
C2202 C2203 1.369 . S
C2202 C2206 1.531 . S
C2203 C2202 1.369 . S
C2203 C2204 1.410 . S
C2203 C2211 1.503 . S
C2204 C2203 1.410 . S
C2204 C2205 1.392 . S
C2204 C2207 1.511 . S
C2205 C2201 1.376 . S
C2205 C2204 1.392 . S
C2205 H2217 0.929 . S
C2206 C2202 1.531 . S
C2206 H2218 0.960 . S
C2206 H2219 0.962 . S
C2206 H2220 0.960 . S
C2207 C2204 1.511 . S
C2207 H2221 0.961 . S
C2207 H2222 0.961 . S
C2207 H2223 0.961 . S
C2208 C2209 1.370 . S
C2208 C2210 1.363 . S
C2208 H2224 0.931 . S
C2209 C2208 1.370 . S
C2209 C2213 1.408 . S
C2210 C2208 1.363 . S
C2210 C2211 1.370 . S
C2210 C2214 1.524 . S
C2211 C2203 1.503 . S
C2211 C2210 1.370 . S
C2211 C2212 1.403 . S
C2212 C2211 1.403 . S
C2212 C2213 1.404 . S
C2212 C2215 1.539 . S
C2213 C2209 1.408 . S
C2213 C2212 1.404 . S
C2213 H2225 0.930 . S
C2214 C2210 1.524 . S
C2214 H2226 0.956 . S
C2214 H2227 0.961 . S
C2214 H2228 0.961 . S
C2215 C2212 1.539 . S
C2215 H2229 0.958 . S
C2215 H2230 0.961 . S
C2215 H2231 0.960 . S
H2216 C2200 0.931 . S
H2217 C2205 0.929 . S
H2218 C2206 0.960 . S
H2219 C2206 0.962 . S
H2220 C2206 0.960 . S
H2221 C2207 0.961 . S
H2222 C2207 0.961 . S
H2223 C2207 0.961 . S
H2224 C2208 0.931 . S
H2225 C2213 0.930 . S
H2226 C2214 0.956 . S
H2227 C2214 0.961 . S
H2228 C2214 0.961 . S
H2229 C2215 0.958 . S
H2230 C2215 0.961 . S
H2231 C2215 0.960 . S
C2232 C2233 1.391 1_655 S
C2232 C2234 1.394 . S
C2232 H2248 0.931 . S
C2233 C2232 1.391 1_455 S
C2233 C2237 1.376 . S
C2234 C2232 1.394 . S
C2234 C2235 1.369 1_655 S
C2234 C2238 1.531 . S
C2235 C2234 1.369 1_455 S
C2235 C2236 1.410 . S
C2235 C2243 1.503 . S
C2236 C2235 1.410 . S
C2236 C2237 1.392 . S
C2236 C2239 1.511 . S
C2237 C2233 1.376 . S
C2237 C2236 1.392 . S
C2237 H2249 0.929 . S
C2238 C2234 1.531 . S
C2238 H2250 0.960 . S
C2238 H2251 0.962 . S
C2238 H2252 0.960 . S
C2239 C2236 1.511 . S
C2239 H2253 0.961 . S
C2239 H2254 0.961 . S
C2239 H2255 0.961 . S
C2240 C2241 1.370 1_656 S
C2240 C2242 1.363 . S
C2240 H2256 0.931 . S
C2241 C2240 1.370 1_454 S
C2241 C2245 1.408 . S
C2242 C2240 1.363 . S
C2242 C2243 1.370 1_655 S
C2242 C2246 1.524 . S
C2243 C2235 1.503 . S
C2243 C2242 1.370 1_455 S
C2243 C2244 1.403 1_556 S
C2244 C2243 1.403 1_554 S
C2244 C2245 1.404 . S
C2244 C2247 1.539 . S
C2245 C2241 1.408 . S
C2245 C2244 1.404 . S
C2245 H2257 0.930 . S
C2246 C2242 1.524 . S
C2246 H2258 0.956 . S
C2246 H2259 0.961 . S
C2246 H2260 0.961 . S
C2247 C2244 1.539 . S
C2247 H2261 0.958 . S
C2247 H2262 0.961 . S
C2247 H2263 0.937 1_554 S
H2248 C2232 0.931 . S
H2249 C2237 0.929 . S
H2250 C2238 0.960 . S
H2251 C2238 0.962 . S
H2252 C2238 0.960 . S
H2253 C2239 0.961 . S
H2254 C2239 0.961 . S
H2255 C2239 0.961 . S
H2256 C2240 0.931 . S
H2257 C2245 0.930 . S
H2258 C2246 0.956 . S
H2259 C2246 0.961 . S
H2260 C2246 0.961 . S
H2261 C2247 0.958 . S
H2262 C2247 0.961 . S
H2263 C2247 0.937 1_556 S
C2264 C2265 1.391 . S
C2264 C2266 1.394 . S
C2264 H2280 0.931 . S
C2265 C2264 1.391 . S
C2265 C2269 1.376 . S
C2266 C2264 1.394 . S
C2266 C2267 1.369 . S
C2266 C2270 1.531 . S
C2267 C2266 1.369 . S
C2267 C2268 1.410 . S
C2267 C2275 1.503 . S
C2268 C2267 1.410 . S
C2268 C2269 1.392 . S
C2268 C2271 1.511 . S
C2269 C2265 1.376 . S
C2269 C2268 1.392 . S
C2269 H2281 0.929 . S
C2270 C2266 1.531 . S
C2270 H2282 0.960 . S
C2270 H2283 0.962 . S
C2270 H2284 0.960 . S
C2271 C2268 1.511 . S
C2271 H2285 0.961 . S
C2271 H2286 0.961 . S
C2271 H2287 0.961 . S
C2272 C2273 1.370 . S
C2272 C2274 1.363 . S
C2272 H2288 0.931 . S
C2273 C2272 1.370 . S
C2273 C2277 1.408 . S
C2274 C2272 1.363 . S
C2274 C2275 1.370 . S
C2274 C2278 1.524 . S
C2275 C2267 1.503 . S
C2275 C2274 1.370 . S
C2275 C2276 1.403 . S
C2276 C2275 1.403 . S
C2276 C2277 1.404 . S
C2276 C2279 1.539 . S
C2277 C2273 1.408 . S
C2277 C2276 1.404 . S
C2277 H2289 0.930 . S
C2278 C2274 1.524 . S
C2278 H2290 0.956 . S
C2278 H2291 0.961 . S
C2278 H2292 0.961 . S
C2279 C2276 1.539 . S
C2279 H2293 0.958 . S
C2279 H2294 0.961 . S
C2279 H2295 0.960 . S
H2280 C2264 0.931 . S
H2281 C2269 0.929 . S
H2282 C2270 0.960 . S
H2283 C2270 0.962 . S
H2284 C2270 0.960 . S
H2285 C2271 0.961 . S
H2286 C2271 0.961 . S
H2287 C2271 0.961 . S
H2288 C2272 0.931 . S
H2289 C2277 0.930 . S
H2290 C2278 0.956 . S
H2291 C2278 0.961 . S
H2292 C2278 0.961 . S
H2293 C2279 0.958 . S
H2294 C2279 0.961 . S
H2295 C2279 0.960 . S
C2296 C2297 1.391 . S
C2296 C2298 1.394 . S
C2296 H2312 0.931 . S
C2297 C2296 1.391 . S
C2297 C2301 1.376 . S
C2298 C2296 1.394 . S
C2298 C2299 1.369 . S
C2298 C2302 1.531 . S
C2299 C2298 1.369 . S
C2299 C2300 1.410 . S
C2299 C2307 1.503 . S
C2300 C2299 1.410 . S
C2300 C2301 1.392 . S
C2300 C2303 1.511 . S
C2301 C2297 1.376 . S
C2301 C2300 1.392 . S
C2301 H2313 0.929 . S
C2302 C2298 1.531 . S
C2302 H2314 0.960 . S
C2302 H2315 0.962 . S
C2302 H2316 0.960 . S
C2303 C2300 1.511 . S
C2303 H2317 0.961 . S
C2303 H2318 0.961 . S
C2303 H2319 0.961 . S
C2304 C2305 1.370 . S
C2304 C2306 1.363 . S
C2304 H2320 0.931 . S
C2305 C2304 1.370 . S
C2305 C2309 1.408 . S
C2306 C2304 1.363 . S
C2306 C2307 1.370 . S
C2306 C2310 1.524 . S
C2307 C2299 1.503 . S
C2307 C2306 1.370 . S
C2307 C2308 1.403 . S
C2308 C2307 1.403 . S
C2308 C2309 1.404 . S
C2308 C2311 1.539 . S
C2309 C2305 1.408 . S
C2309 C2308 1.404 . S
C2309 H2321 0.930 . S
C2310 C2306 1.524 . S
C2310 H2322 0.956 . S
C2310 H2323 0.961 . S
C2310 H2324 0.961 . S
C2311 C2308 1.539 . S
C2311 H2325 0.958 . S
C2311 H2326 0.961 . S
C2311 H2327 0.960 . S
H2312 C2296 0.931 . S
H2313 C2301 0.929 . S
H2314 C2302 0.960 . S
H2315 C2302 0.962 . S
H2316 C2302 0.960 . S
H2317 C2303 0.961 . S
H2318 C2303 0.961 . S
H2319 C2303 0.961 . S
H2320 C2304 0.931 . S
H2321 C2309 0.930 . S
H2322 C2310 0.956 . S
H2323 C2310 0.961 . S
H2324 C2310 0.961 . S
H2325 C2311 0.958 . S
H2326 C2311 0.961 . S
H2327 C2311 0.960 . S
C2328 C2329 1.391 . S
C2328 C2330 1.394 . S
C2328 H2344 0.931 . S
C2329 C2328 1.391 . S
C2329 C2333 1.376 . S
C2330 C2328 1.394 . S
C2330 C2331 1.369 . S
C2330 C2334 1.531 . S
C2331 C2330 1.369 . S
C2331 C2332 1.410 . S
C2331 C2339 1.503 . S
C2332 C2331 1.410 . S
C2332 C2333 1.392 . S
C2332 C2335 1.511 . S
C2333 C2329 1.376 . S
C2333 C2332 1.392 . S
C2333 H2345 0.929 . S
C2334 C2330 1.531 . S
C2334 H2346 0.960 . S
C2334 H2347 0.962 . S
C2334 H2348 0.960 . S
C2335 C2332 1.511 . S
C2335 H2349 0.961 . S
C2335 H2350 0.961 . S
C2335 H2351 0.961 . S
C2336 C2337 1.370 . S
C2336 C2338 1.363 . S
C2336 H2352 0.931 . S
C2337 C2336 1.370 . S
C2337 C2341 1.408 . S
C2338 C2336 1.363 . S
C2338 C2339 1.370 . S
C2338 C2342 1.524 . S
C2339 C2331 1.503 . S
C2339 C2338 1.370 . S
C2339 C2340 1.403 . S
C2340 C2339 1.403 . S
C2340 C2341 1.404 . S
C2340 C2343 1.539 . S
C2341 C2337 1.408 . S
C2341 C2340 1.404 . S
C2341 H2353 0.930 . S
C2342 C2338 1.524 . S
C2342 H2354 0.956 . S
C2342 H2355 0.961 . S
C2342 H2356 0.961 . S
C2343 C2340 1.539 . S
C2343 H2357 0.958 . S
C2343 H2358 0.961 . S
C2343 H2359 0.960 . S
H2344 C2328 0.931 . S
H2345 C2333 0.929 . S
H2346 C2334 0.960 . S
H2347 C2334 0.962 . S
H2348 C2334 0.960 . S
H2349 C2335 0.961 . S
H2350 C2335 0.961 . S
H2351 C2335 0.961 . S
H2352 C2336 0.931 . S
H2353 C2341 0.930 . S
H2354 C2342 0.956 . S
H2355 C2342 0.961 . S
H2356 C2342 0.961 . S
H2357 C2343 0.958 . S
H2358 C2343 0.961 . S
H2359 C2343 0.960 . S
C2360 C2361 1.391 1_655 S
C2360 C2362 1.394 . S
C2360 H2376 0.931 . S
C2361 C2360 1.391 1_455 S
C2361 C2365 1.376 . S
C2362 C2360 1.394 . S
C2362 C2363 1.336 1_655 S
C2362 C2366 1.531 . S
C2363 C2362 1.336 1_455 S
C2363 C2364 1.436 . S
C2363 C2371 1.511 . S
C2364 C2363 1.436 . S
C2364 C2365 1.392 . S
C2364 C2367 1.511 . S
C2365 C2361 1.376 . S
C2365 C2364 1.392 . S
C2365 H2377 0.929 . S
C2366 C2362 1.531 . S
C2366 H2378 0.960 . S
C2366 H2379 0.962 . S
C2366 H2380 0.960 . S
C2367 C2364 1.511 . S
C2367 H2381 0.961 . S
C2367 H2382 0.961 . S
C2367 H2383 0.961 . S
C2368 C2369 1.370 . S
C2368 C2370 1.363 . S
C2368 H2384 0.931 . S
C2369 C2368 1.370 . S
C2369 C2373 1.408 1_455 S
C2370 C2368 1.363 . S
C2370 C2371 1.370 . S
C2370 C2374 1.524 . S
C2371 C2363 1.511 . S
C2371 C2370 1.370 . S
C2371 C2372 1.403 1_455 S
C2372 C2371 1.403 1_655 S
C2372 C2373 1.404 . S
C2372 C2375 1.539 . S
C2373 C2369 1.408 1_655 S
C2373 C2372 1.404 . S
C2373 H2385 0.930 . S
C2374 C2370 1.524 . S
C2374 H2386 0.956 . S
C2374 H2387 0.961 . S
C2374 H2388 0.961 . S
C2375 C2372 1.539 . S
C2375 H2389 0.958 . S
C2375 H2390 0.961 . S
C2375 H2391 0.960 . S
H2376 C2360 0.931 . S
H2377 C2365 0.929 . S
H2378 C2366 0.960 . S
H2379 C2366 0.962 . S
H2380 C2366 0.960 . S
H2381 C2367 0.961 . S
H2382 C2367 0.961 . S
H2383 C2367 0.961 . S
H2384 C2368 0.931 . S
H2385 C2373 0.930 . S
H2386 C2374 0.956 . S
H2387 C2374 0.961 . S
H2388 C2374 0.961 . S
H2389 C2375 0.958 . S
H2390 C2375 0.961 . S
H2391 C2375 0.960 . S
C2392 C2393 1.391 . S
C2392 C2394 1.394 . S
C2392 H2408 0.931 . S
C2393 C2392 1.391 . S
C2393 C2397 1.376 . S
C2394 C2392 1.394 . S
C2394 C2395 1.369 . S
C2394 C2398 1.531 . S
C2395 C2394 1.369 . S
C2395 C2396 1.410 . S
C2395 C2403 1.503 . S
C2396 C2395 1.410 . S
C2396 C2397 1.392 . S
C2396 C2399 1.511 . S
C2397 C2393 1.376 . S
C2397 C2396 1.392 . S
C2397 H2409 0.929 . S
C2398 C2394 1.531 . S
C2398 H2410 0.960 . S
C2398 H2411 0.962 . S
C2398 H2412 0.960 . S
C2399 C2396 1.511 . S
C2399 H2413 0.961 . S
C2399 H2414 0.961 . S
C2399 H2415 0.961 . S
C2400 C2401 1.370 . S
C2400 C2402 1.363 . S
C2400 H2416 0.931 . S
C2401 C2400 1.370 . S
C2401 C2405 1.408 . S
C2402 C2400 1.363 . S
C2402 C2403 1.370 . S
C2402 C2406 1.524 . S
C2403 C2395 1.503 . S
C2403 C2402 1.370 . S
C2403 C2404 1.403 . S
C2404 C2403 1.403 . S
C2404 C2405 1.404 . S
C2404 C2407 1.539 . S
C2405 C2401 1.408 . S
C2405 C2404 1.404 . S
C2405 H2417 0.930 . S
C2406 C2402 1.524 . S
C2406 H2418 0.956 . S
C2406 H2419 0.961 . S
C2406 H2420 0.961 . S
C2407 C2404 1.539 . S
C2407 H2421 0.958 . S
C2407 H2422 0.961 . S
C2407 H2423 0.960 . S
H2408 C2392 0.931 . S
H2409 C2397 0.929 . S
H2410 C2398 0.960 . S
H2411 C2398 0.962 . S
H2412 C2398 0.960 . S
H2413 C2399 0.961 . S
H2414 C2399 0.961 . S
H2415 C2399 0.961 . S
H2416 C2400 0.931 . S
H2417 C2405 0.930 . S
H2418 C2406 0.956 . S
H2419 C2406 0.961 . S
H2420 C2406 0.961 . S
H2421 C2407 0.958 . S
H2422 C2407 0.961 . S
H2423 C2407 0.960 . S
C2424 C2425 1.391 . S
C2424 C2426 1.394 . S
C2424 H2440 0.931 . S
C2425 C2424 1.391 . S
C2425 C2429 1.376 . S
C2426 C2424 1.394 . S
C2426 C2427 1.369 . S
C2426 C2430 1.531 . S
C2427 C2426 1.369 . S
C2427 C2428 1.410 . S
C2427 C2435 1.503 . S
C2428 C2427 1.410 . S
C2428 C2429 1.392 . S
C2428 C2431 1.511 . S
C2429 C2425 1.376 . S
C2429 C2428 1.392 . S
C2429 H2441 0.929 . S
C2430 C2426 1.531 . S
C2430 H2442 0.960 . S
C2430 H2443 0.962 . S
C2430 H2444 0.960 . S
C2431 C2428 1.511 . S
C2431 H2445 0.961 . S
C2431 H2446 0.961 . S
C2431 H2447 0.961 . S
C2432 C2433 1.370 . S
C2432 C2434 1.363 . S
C2432 H2448 0.931 . S
C2433 C2432 1.370 . S
C2433 C2437 1.408 . S
C2434 C2432 1.363 . S
C2434 C2435 1.370 . S
C2434 C2438 1.524 . S
C2435 C2427 1.503 . S
C2435 C2434 1.370 . S
C2435 C2436 1.403 . S
C2436 C2435 1.403 . S
C2436 C2437 1.404 . S
C2436 C2439 1.539 . S
C2437 C2433 1.408 . S
C2437 C2436 1.404 . S
C2437 H2449 0.930 . S
C2438 C2434 1.524 . S
C2438 H2450 0.956 . S
C2438 H2451 0.961 . S
C2438 H2452 0.961 . S
C2439 C2436 1.539 . S
C2439 H2453 0.958 . S
C2439 H2454 0.961 . S
C2439 H2455 0.960 . S
H2440 C2424 0.931 . S
H2441 C2429 0.929 . S
H2442 C2430 0.960 . S
H2443 C2430 0.962 . S
H2444 C2430 0.960 . S
H2445 C2431 0.961 . S
H2446 C2431 0.961 . S
H2447 C2431 0.961 . S
H2448 C2432 0.931 . S
H2449 C2437 0.930 . S
H2450 C2438 0.956 . S
H2451 C2438 0.961 . S
H2452 C2438 0.961 . S
H2453 C2439 0.958 . S
H2454 C2439 0.961 . S
H2455 C2439 0.960 . S
C2456 C2457 1.391 . S
C2456 C2458 1.394 . S
C2456 H2472 0.931 . S
C2457 C2456 1.391 . S
C2457 C2461 1.376 . S
C2458 C2456 1.394 . S
C2458 C2459 1.369 . S
C2458 C2462 1.531 . S
C2459 C2458 1.369 . S
C2459 C2460 1.410 . S
C2459 C2467 1.503 . S
C2460 C2459 1.410 . S
C2460 C2461 1.392 . S
C2460 C2463 1.511 . S
C2461 C2457 1.376 . S
C2461 C2460 1.392 . S
C2461 H2473 0.929 . S
C2462 C2458 1.531 . S
C2462 H2474 0.960 . S
C2462 H2475 0.962 . S
C2462 H2476 0.960 . S
C2463 C2460 1.511 . S
C2463 H2477 0.961 . S
C2463 H2478 0.961 . S
C2463 H2479 0.961 . S
C2464 C2465 1.370 . S
C2464 C2466 1.363 . S
C2464 H2480 0.931 . S
C2465 C2464 1.370 . S
C2465 C2469 1.408 . S
C2466 C2464 1.363 . S
C2466 C2467 1.370 . S
C2466 C2470 1.524 . S
C2467 C2459 1.503 . S
C2467 C2466 1.370 . S
C2467 C2468 1.403 . S
C2468 C2467 1.403 . S
C2468 C2469 1.404 . S
C2468 C2471 1.539 . S
C2469 C2465 1.408 . S
C2469 C2468 1.404 . S
C2469 H2481 0.930 . S
C2470 C2466 1.524 . S
C2470 H2482 0.956 . S
C2470 H2483 0.961 . S
C2470 H2484 0.961 . S
C2471 C2468 1.539 . S
C2471 H2485 0.958 . S
C2471 H2486 0.961 . S
C2471 H2487 0.960 . S
H2472 C2456 0.931 . S
H2473 C2461 0.929 . S
H2474 C2462 0.960 . S
H2475 C2462 0.962 . S
H2476 C2462 0.960 . S
H2477 C2463 0.961 . S
H2478 C2463 0.961 . S
H2479 C2463 0.961 . S
H2480 C2464 0.931 . S
H2481 C2469 0.930 . S
H2482 C2470 0.956 . S
H2483 C2470 0.961 . S
H2484 C2470 0.961 . S
H2485 C2471 0.958 . S
H2486 C2471 0.961 . S
H2487 C2471 0.960 . S
C2488 C2489 1.391 . S
C2488 C2490 1.394 . S
C2488 H2504 0.931 . S
C2489 C2488 1.391 . S
C2489 C2493 1.376 . S
C2490 C2488 1.394 . S
C2490 C2491 1.369 . S
C2490 C2494 1.531 . S
C2491 C2490 1.369 . S
C2491 C2492 1.410 . S
C2491 C2499 1.503 . S
C2492 C2491 1.410 . S
C2492 C2493 1.392 . S
C2492 C2495 1.511 . S
C2493 C2489 1.376 . S
C2493 C2492 1.392 . S
C2493 H2505 0.929 . S
C2494 C2490 1.531 . S
C2494 H2506 0.960 . S
C2494 H2507 0.962 . S
C2494 H2508 0.960 . S
C2495 C2492 1.511 . S
C2495 H2509 0.961 . S
C2495 H2510 0.961 . S
C2495 H2511 0.961 . S
C2496 C2497 1.370 . S
C2496 C2498 1.363 . S
C2496 H2512 0.931 . S
C2497 C2496 1.370 . S
C2497 C2501 1.408 . S
C2498 C2496 1.363 . S
C2498 C2499 1.370 . S
C2498 C2502 1.524 . S
C2499 C2491 1.503 . S
C2499 C2498 1.370 . S
C2499 C2500 1.403 . S
C2500 C2499 1.403 . S
C2500 C2501 1.404 . S
C2500 C2503 1.539 . S
C2501 C2497 1.408 . S
C2501 C2500 1.404 . S
C2501 H2513 0.930 . S
C2502 C2498 1.524 . S
C2502 H2514 0.956 . S
C2502 H2515 0.961 . S
C2502 H2516 0.961 . S
C2503 C2500 1.539 . S
C2503 H2517 0.958 . S
C2503 H2518 0.961 . S
C2503 H2519 0.960 . S
H2504 C2488 0.931 . S
H2505 C2493 0.929 . S
H2506 C2494 0.960 . S
H2507 C2494 0.962 . S
H2508 C2494 0.960 . S
H2509 C2495 0.961 . S
H2510 C2495 0.961 . S
H2511 C2495 0.961 . S
H2512 C2496 0.931 . S
H2513 C2501 0.930 . S
H2514 C2502 0.956 . S
H2515 C2502 0.961 . S
H2516 C2502 0.961 . S
H2517 C2503 0.958 . S
H2518 C2503 0.961 . S
H2519 C2503 0.960 . S
C2520 C2521 1.391 . S
C2520 C2522 1.394 . S
C2520 H2536 0.931 . S
C2521 C2520 1.391 . S
C2521 C2525 1.376 . S
C2522 C2520 1.394 . S
C2522 C2523 1.369 . S
C2522 C2526 1.531 . S
C2523 C2522 1.369 . S
C2523 C2524 1.410 . S
C2523 C2531 1.503 . S
C2524 C2523 1.410 . S
C2524 C2525 1.392 . S
C2524 C2527 1.511 . S
C2525 C2521 1.376 . S
C2525 C2524 1.392 . S
C2525 H2537 0.929 . S
C2526 C2522 1.531 . S
C2526 H2538 0.960 . S
C2526 H2539 0.962 . S
C2526 H2540 0.960 . S
C2527 C2524 1.511 . S
C2527 H2541 0.961 . S
C2527 H2542 0.961 . S
C2527 H2543 0.961 . S
C2528 C2529 1.370 . S
C2528 C2530 1.363 . S
C2528 H2544 0.931 . S
C2529 C2528 1.370 . S
C2529 C2533 1.408 . S
C2530 C2528 1.363 . S
C2530 C2531 1.370 . S
C2530 C2534 1.524 . S
C2531 C2523 1.503 . S
C2531 C2530 1.370 . S
C2531 C2532 1.403 . S
C2532 C2531 1.403 . S
C2532 C2533 1.404 . S
C2532 C2535 1.539 . S
C2533 C2529 1.408 . S
C2533 C2532 1.404 . S
C2533 H2545 0.930 . S
C2534 C2530 1.524 . S
C2534 H2546 0.956 . S
C2534 H2547 0.961 . S
C2534 H2548 0.961 . S
C2535 C2532 1.539 . S
C2535 H2549 0.958 . S
C2535 H2550 0.961 . S
C2535 H2551 0.960 . S
H2536 C2520 0.931 . S
H2537 C2525 0.929 . S
H2538 C2526 0.960 . S
H2539 C2526 0.962 . S
H2540 C2526 0.960 . S
H2541 C2527 0.961 . S
H2542 C2527 0.961 . S
H2543 C2527 0.961 . S
H2544 C2528 0.931 . S
H2545 C2533 0.930 . S
H2546 C2534 0.956 . S
H2547 C2534 0.961 . S
H2548 C2534 0.961 . S
H2549 C2535 0.958 . S
H2550 C2535 0.961 . S
H2551 C2535 0.960 . S
C2552 C2553 1.391 . S
C2552 C2554 1.394 . S
C2552 H2568 0.931 . S
C2553 C2552 1.391 . S
C2553 C2557 1.376 . S
C2554 C2552 1.394 . S
C2554 C2555 1.369 . S
C2554 C2558 1.531 . S
C2555 C2554 1.369 . S
C2555 C2556 1.410 . S
C2555 C2563 1.503 . S
C2556 C2555 1.410 . S
C2556 C2557 1.392 . S
C2556 C2559 1.511 . S
C2557 C2553 1.376 . S
C2557 C2556 1.392 . S
C2557 H2569 0.929 . S
C2558 C2554 1.531 . S
C2558 H2570 0.960 . S
C2558 H2571 0.962 . S
C2558 H2572 0.960 . S
C2559 C2556 1.511 . S
C2559 H2573 0.961 . S
C2559 H2574 0.961 . S
C2559 H2575 0.961 . S
C2560 C2561 1.370 . S
C2560 C2562 1.363 . S
C2560 H2576 0.931 . S
C2561 C2560 1.370 . S
C2561 C2565 1.408 . S
C2562 C2560 1.363 . S
C2562 C2563 1.370 . S
C2562 C2566 1.524 . S
C2563 C2555 1.503 . S
C2563 C2562 1.370 . S
C2563 C2564 1.403 . S
C2564 C2563 1.403 . S
C2564 C2565 1.404 . S
C2564 C2567 1.539 . S
C2565 C2561 1.408 . S
C2565 C2564 1.404 . S
C2565 H2577 0.930 . S
C2566 C2562 1.524 . S
C2566 H2578 0.956 . S
C2566 H2579 0.961 . S
C2566 H2580 0.961 . S
C2567 C2564 1.539 . S
C2567 H2581 0.958 . S
C2567 H2582 0.961 . S
C2567 H2583 0.960 . S
H2568 C2552 0.931 . S
H2569 C2557 0.929 . S
H2570 C2558 0.960 . S
H2571 C2558 0.962 . S
H2572 C2558 0.960 . S
H2573 C2559 0.961 . S
H2574 C2559 0.961 . S
H2575 C2559 0.961 . S
H2576 C2560 0.931 . S
H2577 C2565 0.930 . S
H2578 C2566 0.956 . S
H2579 C2566 0.961 . S
H2580 C2566 0.961 . S
H2581 C2567 0.958 . S
H2582 C2567 0.961 . S
H2583 C2567 0.960 . S
C2584 C2585 1.391 . S
C2584 C2586 1.394 . S
C2584 H2600 0.931 . S
C2585 C2584 1.391 . S
C2585 C2589 1.376 . S
C2586 C2584 1.394 . S
C2586 C2587 1.369 . S
C2586 C2590 1.531 . S
C2587 C2586 1.369 . S
C2587 C2588 1.410 . S
C2587 C2595 1.503 . S
C2588 C2587 1.410 . S
C2588 C2589 1.392 . S
C2588 C2591 1.511 . S
C2589 C2585 1.376 . S
C2589 C2588 1.392 . S
C2589 H2601 0.929 . S
C2590 C2586 1.531 . S
C2590 H2602 0.960 . S
C2590 H2603 0.962 . S
C2590 H2604 0.960 . S
C2591 C2588 1.511 . S
C2591 H2605 0.961 . S
C2591 H2606 0.961 . S
C2591 H2607 0.961 . S
C2592 C2593 1.370 . S
C2592 C2594 1.363 . S
C2592 H2608 0.931 . S
C2593 C2592 1.370 . S
C2593 C2597 1.408 . S
C2594 C2592 1.363 . S
C2594 C2595 1.370 . S
C2594 C2598 1.524 . S
C2595 C2587 1.503 . S
C2595 C2594 1.370 . S
C2595 C2596 1.403 . S
C2596 C2595 1.403 . S
C2596 C2597 1.404 . S
C2596 C2599 1.539 . S
C2597 C2593 1.408 . S
C2597 C2596 1.404 . S
C2597 H2609 0.930 . S
C2598 C2594 1.524 . S
C2598 H2610 0.956 . S
C2598 H2611 0.961 . S
C2598 H2612 0.961 . S
C2599 C2596 1.539 . S
C2599 H2613 0.958 . S
C2599 H2614 0.961 . S
C2599 H2615 0.960 . S
H2600 C2584 0.931 . S
H2601 C2589 0.929 . S
H2602 C2590 0.960 . S
H2603 C2590 0.962 . S
H2604 C2590 0.960 . S
H2605 C2591 0.961 . S
H2606 C2591 0.961 . S
H2607 C2591 0.961 . S
H2608 C2592 0.931 . S
H2609 C2597 0.930 . S
H2610 C2598 0.956 . S
H2611 C2598 0.961 . S
H2612 C2598 0.961 . S
H2613 C2599 0.958 . S
H2614 C2599 0.961 . S
H2615 C2599 0.960 . S
C2616 C2617 1.391 . S
C2616 C2618 1.394 . S
C2616 H2632 0.931 . S
C2617 C2616 1.391 . S
C2617 C2621 1.376 . S
C2618 C2616 1.394 . S
C2618 C2619 1.369 . S
C2618 C2622 1.531 . S
C2619 C2618 1.369 . S
C2619 C2620 1.410 . S
C2619 C2627 1.503 . S
C2620 C2619 1.410 . S
C2620 C2621 1.392 . S
C2620 C2623 1.511 . S
C2621 C2617 1.376 . S
C2621 C2620 1.392 . S
C2621 H2633 0.929 . S
C2622 C2618 1.531 . S
C2622 H2634 0.960 . S
C2622 H2635 0.962 . S
C2622 H2636 0.960 . S
C2623 C2620 1.511 . S
C2623 H2637 0.961 . S
C2623 H2638 0.961 . S
C2623 H2639 0.961 . S
C2624 C2625 1.370 . S
C2624 C2626 1.363 . S
C2624 H2640 0.931 . S
C2625 C2624 1.370 . S
C2625 C2629 1.408 . S
C2626 C2624 1.363 . S
C2626 C2627 1.370 . S
C2626 C2630 1.524 . S
C2627 C2619 1.503 . S
C2627 C2626 1.370 . S
C2627 C2628 1.403 . S
C2628 C2627 1.403 . S
C2628 C2629 1.404 . S
C2628 C2631 1.539 . S
C2629 C2625 1.408 . S
C2629 C2628 1.404 . S
C2629 H2641 0.930 . S
C2630 C2626 1.524 . S
C2630 H2642 0.956 . S
C2630 H2643 0.961 . S
C2630 H2644 0.961 . S
C2631 C2628 1.539 . S
C2631 H2645 0.958 . S
C2631 H2646 0.961 . S
C2631 H2647 0.960 . S
H2632 C2616 0.931 . S
H2633 C2621 0.929 . S
H2634 C2622 0.960 . S
H2635 C2622 0.962 . S
H2636 C2622 0.960 . S
H2637 C2623 0.961 . S
H2638 C2623 0.961 . S
H2639 C2623 0.961 . S
H2640 C2624 0.931 . S
H2641 C2629 0.930 . S
H2642 C2630 0.956 . S
H2643 C2630 0.961 . S
H2644 C2630 0.961 . S
H2645 C2631 0.958 . S
H2646 C2631 0.961 . S
H2647 C2631 0.960 . S
C2648 C2649 1.391 . S
C2648 C2650 1.394 . S
C2648 H2664 0.931 . S
C2649 C2648 1.391 . S
C2649 C2653 1.376 . S
C2650 C2648 1.394 . S
C2650 C2651 1.369 . S
C2650 C2654 1.531 . S
C2651 C2650 1.369 . S
C2651 C2652 1.410 . S
C2651 C2659 1.503 . S
C2652 C2651 1.410 . S
C2652 C2653 1.392 . S
C2652 C2655 1.511 . S
C2653 C2649 1.376 . S
C2653 C2652 1.392 . S
C2653 H2665 0.929 . S
C2654 C2650 1.531 . S
C2654 H2666 0.960 . S
C2654 H2667 0.962 . S
C2654 H2668 0.960 . S
C2655 C2652 1.511 . S
C2655 H2669 0.961 . S
C2655 H2670 0.961 . S
C2655 H2671 0.961 . S
C2656 C2657 1.370 . S
C2656 C2658 1.363 . S
C2656 H2672 0.931 . S
C2657 C2656 1.370 . S
C2657 C2661 1.408 . S
C2658 C2656 1.363 . S
C2658 C2659 1.370 . S
C2658 C2662 1.524 . S
C2659 C2651 1.503 . S
C2659 C2658 1.370 . S
C2659 C2660 1.403 . S
C2660 C2659 1.403 . S
C2660 C2661 1.404 . S
C2660 C2663 1.539 . S
C2661 C2657 1.408 . S
C2661 C2660 1.404 . S
C2661 H2673 0.930 . S
C2662 C2658 1.524 . S
C2662 H2674 0.956 . S
C2662 H2675 0.961 . S
C2662 H2676 0.961 . S
C2663 C2660 1.539 . S
C2663 H2677 0.958 . S
C2663 H2678 0.961 . S
C2663 H2679 0.960 . S
H2664 C2648 0.931 . S
H2665 C2653 0.929 . S
H2666 C2654 0.960 . S
H2667 C2654 0.962 . S
H2668 C2654 0.960 . S
H2669 C2655 0.961 . S
H2670 C2655 0.961 . S
H2671 C2655 0.961 . S
H2672 C2656 0.931 . S
H2673 C2661 0.930 . S
H2674 C2662 0.956 . S
H2675 C2662 0.961 . S
H2676 C2662 0.961 . S
H2677 C2663 0.958 . S
H2678 C2663 0.961 . S
H2679 C2663 0.960 . S
C2680 C2681 1.391 . S
C2680 C2682 1.394 . S
C2680 H2696 0.931 . S
C2681 C2680 1.391 . S
C2681 C2685 1.376 . S
C2682 C2680 1.394 . S
C2682 C2683 1.369 . S
C2682 C2686 1.531 . S
C2683 C2682 1.369 . S
C2683 C2684 1.410 . S
C2683 C2691 1.503 . S
C2684 C2683 1.410 . S
C2684 C2685 1.392 . S
C2684 C2687 1.511 . S
C2685 C2681 1.376 . S
C2685 C2684 1.392 . S
C2685 H2697 0.929 . S
C2686 C2682 1.531 . S
C2686 H2698 0.960 . S
C2686 H2699 0.962 . S
C2686 H2700 0.960 . S
C2687 C2684 1.511 . S
C2687 H2701 0.961 . S
C2687 H2702 0.961 . S
C2687 H2703 0.961 . S
C2688 C2689 1.370 . S
C2688 C2690 1.363 . S
C2688 H2704 0.931 . S
C2689 C2688 1.370 . S
C2689 C2693 1.408 . S
C2690 C2688 1.363 . S
C2690 C2691 1.370 . S
C2690 C2694 1.524 . S
C2691 C2683 1.503 . S
C2691 C2690 1.370 . S
C2691 C2692 1.403 . S
C2692 C2691 1.403 . S
C2692 C2693 1.404 . S
C2692 C2695 1.539 . S
C2693 C2689 1.408 . S
C2693 C2692 1.404 . S
C2693 H2705 0.930 . S
C2694 C2690 1.524 . S
C2694 H2706 0.956 . S
C2694 H2707 0.961 . S
C2694 H2708 0.961 . S
C2695 C2692 1.539 . S
C2695 H2709 0.958 . S
C2695 H2710 0.961 . S
C2695 H2711 0.960 . S
H2696 C2680 0.931 . S
H2697 C2685 0.929 . S
H2698 C2686 0.960 . S
H2699 C2686 0.962 . S
H2700 C2686 0.960 . S
H2701 C2687 0.961 . S
H2702 C2687 0.961 . S
H2703 C2687 0.961 . S
H2704 C2688 0.931 . S
H2705 C2693 0.930 . S
H2706 C2694 0.956 . S
H2707 C2694 0.961 . S
H2708 C2694 0.961 . S
H2709 C2695 0.958 . S
H2710 C2695 0.961 . S
H2711 C2695 0.960 . S
C2712 C2713 1.391 . S
C2712 C2714 1.394 . S
C2712 H2728 0.931 . S
C2713 C2712 1.391 . S
C2713 C2717 1.376 . S
C2714 C2712 1.394 . S
C2714 C2715 1.369 . S
C2714 C2718 1.531 . S
C2715 C2714 1.369 . S
C2715 C2716 1.410 . S
C2715 C2723 1.503 . S
C2716 C2715 1.410 . S
C2716 C2717 1.392 . S
C2716 C2719 1.511 . S
C2717 C2713 1.376 . S
C2717 C2716 1.392 . S
C2717 H2729 0.929 . S
C2718 C2714 1.531 . S
C2718 H2730 0.960 . S
C2718 H2731 0.962 . S
C2718 H2732 0.960 . S
C2719 C2716 1.511 . S
C2719 H2733 0.961 . S
C2719 H2734 0.961 . S
C2719 H2735 0.961 . S
C2720 C2721 1.370 . S
C2720 C2722 1.363 . S
C2720 H2736 0.931 . S
C2721 C2720 1.370 . S
C2721 C2725 1.408 . S
C2722 C2720 1.363 . S
C2722 C2723 1.370 . S
C2722 C2726 1.524 . S
C2723 C2715 1.503 . S
C2723 C2722 1.370 . S
C2723 C2724 1.403 . S
C2724 C2723 1.403 . S
C2724 C2725 1.404 . S
C2724 C2727 1.539 . S
C2725 C2721 1.408 . S
C2725 C2724 1.404 . S
C2725 H2737 0.930 . S
C2726 C2722 1.524 . S
C2726 H2738 0.956 . S
C2726 H2739 0.961 . S
C2726 H2740 0.961 . S
C2727 C2724 1.539 . S
C2727 H2741 0.958 . S
C2727 H2742 0.961 . S
C2727 H2743 0.960 . S
H2728 C2712 0.931 . S
H2729 C2717 0.929 . S
H2730 C2718 0.960 . S
H2731 C2718 0.962 . S
H2732 C2718 0.960 . S
H2733 C2719 0.961 . S
H2734 C2719 0.961 . S
H2735 C2719 0.961 . S
H2736 C2720 0.931 . S
H2737 C2725 0.930 . S
H2738 C2726 0.956 . S
H2739 C2726 0.961 . S
H2740 C2726 0.961 . S
H2741 C2727 0.958 . S
H2742 C2727 0.961 . S
H2743 C2727 0.960 . S
C2744 C2745 1.391 . S
C2744 C2746 1.394 . S
C2744 H2760 0.931 . S
C2745 C2744 1.391 . S
C2745 C2749 1.376 . S
C2746 C2744 1.394 . S
C2746 C2747 1.369 . S
C2746 C2750 1.531 . S
C2747 C2746 1.369 . S
C2747 C2748 1.410 . S
C2747 C2755 1.503 . S
C2748 C2747 1.410 . S
C2748 C2749 1.392 . S
C2748 C2751 1.511 . S
C2749 C2745 1.376 . S
C2749 C2748 1.392 . S
C2749 H2761 0.929 . S
C2750 C2746 1.531 . S
C2750 H2762 0.960 . S
C2750 H2763 0.962 . S
C2750 H2764 0.960 . S
C2751 C2748 1.511 . S
C2751 H2765 0.961 . S
C2751 H2766 0.961 . S
C2751 H2767 0.961 . S
C2752 C2753 1.370 . S
C2752 C2754 1.363 . S
C2752 H2768 0.931 . S
C2753 C2752 1.370 . S
C2753 C2757 1.408 . S
C2754 C2752 1.363 . S
C2754 C2755 1.370 . S
C2754 C2758 1.524 . S
C2755 C2747 1.503 . S
C2755 C2754 1.370 . S
C2755 C2756 1.403 . S
C2756 C2755 1.403 . S
C2756 C2757 1.404 . S
C2756 C2759 1.539 . S
C2757 C2753 1.408 . S
C2757 C2756 1.404 . S
C2757 H2769 0.930 . S
C2758 C2754 1.524 . S
C2758 H2770 0.956 . S
C2758 H2771 0.961 . S
C2758 H2772 0.961 . S
C2759 C2756 1.539 . S
C2759 H2773 0.958 . S
C2759 H2774 0.961 . S
C2759 H2775 0.960 . S
H2760 C2744 0.931 . S
H2761 C2749 0.929 . S
H2762 C2750 0.960 . S
H2763 C2750 0.962 . S
H2764 C2750 0.960 . S
H2765 C2751 0.961 . S
H2766 C2751 0.961 . S
H2767 C2751 0.961 . S
H2768 C2752 0.931 . S
H2769 C2757 0.930 . S
H2770 C2758 0.956 . S
H2771 C2758 0.961 . S
H2772 C2758 0.961 . S
H2773 C2759 0.958 . S
H2774 C2759 0.961 . S
H2775 C2759 0.960 . S
C2776 C2777 1.391 1_556 S
C2776 C2778 1.394 . S
C2776 H2792 0.931 . S
C2777 C2776 1.391 1_554 S
C2777 C2781 1.376 . S
C2778 C2776 1.394 . S
C2778 C2779 1.369 1_556 S
C2778 C2782 1.531 . S
C2779 C2778 1.369 1_554 S
C2779 C2780 1.410 . S
C2779 C2787 1.503 . S
C2780 C2779 1.410 . S
C2780 C2781 1.392 . S
C2780 C2783 1.511 . S
C2781 C2777 1.376 . S
C2781 C2780 1.392 . S
C2781 H2793 0.929 . S
C2782 C2778 1.531 . S
C2782 H2794 0.960 . S
C2782 H2795 0.962 . S
C2782 H2796 0.960 . S
C2783 C2780 1.511 . S
C2783 H2797 0.961 . S
C2783 H2798 0.961 . S
C2783 H2799 0.961 . S
C2784 C2785 1.370 . S
C2784 C2786 1.363 . S
C2784 H2800 0.931 . S
C2785 C2784 1.370 . S
C2785 C2789 1.408 1_565 S
C2786 C2784 1.363 . S
C2786 C2787 1.370 . S
C2786 C2790 1.524 . S
C2787 C2779 1.503 . S
C2787 C2786 1.370 . S
C2787 C2788 1.403 . S
C2788 C2787 1.403 . S
C2788 C2789 1.404 1_565 S
C2788 C2791 1.539 1_565 S
C2789 C2785 1.408 1_545 S
C2789 C2788 1.404 1_545 S
C2789 H2801 0.930 . S
C2790 C2786 1.524 . S
C2790 H2802 0.956 1_554 S
C2790 H2803 0.961 . S
C2790 H2804 0.961 . S
C2791 C2788 1.539 1_545 S
C2791 H2805 0.958 . S
C2791 H2806 0.961 . S
C2791 H2807 0.960 1_545 S
H2792 C2776 0.931 . S
H2793 C2781 0.929 . S
H2794 C2782 0.960 . S
H2795 C2782 0.962 . S
H2796 C2782 0.960 . S
H2797 C2783 0.961 . S
H2798 C2783 0.961 . S
H2799 C2783 0.961 . S
H2800 C2784 0.931 . S
H2801 C2789 0.930 . S
H2802 C2790 0.956 1_556 S
H2803 C2790 0.961 . S
H2804 C2790 0.961 . S
H2805 C2791 0.958 . S
H2806 C2791 0.961 . S
H2807 C2791 0.960 1_565 S
C2808 C2809 1.391 . S
C2808 C2810 1.394 . S
C2808 H2824 0.931 . S
C2809 C2808 1.391 . S
C2809 C2813 1.376 . S
C2810 C2808 1.394 . S
C2810 C2811 1.369 . S
C2810 C2814 1.531 . S
C2811 C2810 1.369 . S
C2811 C2812 1.410 . S
C2811 C2819 1.503 . S
C2812 C2811 1.410 . S
C2812 C2813 1.392 . S
C2812 C2815 1.511 . S
C2813 C2809 1.376 . S
C2813 C2812 1.392 . S
C2813 H2825 0.929 . S
C2814 C2810 1.531 . S
C2814 H2826 0.960 . S
C2814 H2827 0.962 . S
C2814 H2828 0.960 . S
C2815 C2812 1.511 . S
C2815 H2829 0.961 . S
C2815 H2830 0.961 . S
C2815 H2831 0.961 . S
C2816 C2817 1.370 . S
C2816 C2818 1.363 . S
C2816 H2832 0.931 . S
C2817 C2816 1.370 . S
C2817 C2821 1.408 . S
C2818 C2816 1.363 . S
C2818 C2819 1.370 . S
C2818 C2822 1.524 . S
C2819 C2811 1.503 . S
C2819 C2818 1.370 . S
C2819 C2820 1.403 . S
C2820 C2819 1.403 . S
C2820 C2821 1.404 . S
C2820 C2823 1.539 . S
C2821 C2817 1.408 . S
C2821 C2820 1.404 . S
C2821 H2833 0.930 . S
C2822 C2818 1.524 . S
C2822 H2834 0.956 . S
C2822 H2835 0.961 . S
C2822 H2836 0.961 . S
C2823 C2820 1.539 . S
C2823 H2837 0.958 . S
C2823 H2838 0.961 . S
C2823 H2839 0.960 . S
H2824 C2808 0.931 . S
H2825 C2813 0.929 . S
H2826 C2814 0.960 . S
H2827 C2814 0.962 . S
H2828 C2814 0.960 . S
H2829 C2815 0.961 . S
H2830 C2815 0.961 . S
H2831 C2815 0.961 . S
H2832 C2816 0.931 . S
H2833 C2821 0.930 . S
H2834 C2822 0.956 . S
H2835 C2822 0.961 . S
H2836 C2822 0.961 . S
H2837 C2823 0.958 . S
H2838 C2823 0.961 . S
H2839 C2823 0.960 . S
C2840 C2841 1.391 . S
C2840 C2842 1.394 . S
C2840 H2856 0.931 . S
C2841 C2840 1.391 . S
C2841 C2845 1.376 . S
C2842 C2840 1.394 . S
C2842 C2843 1.369 . S
C2842 C2846 1.531 . S
C2843 C2842 1.369 . S
C2843 C2844 1.410 . S
C2843 C2851 1.503 . S
C2844 C2843 1.410 . S
C2844 C2845 1.392 . S
C2844 C2847 1.511 . S
C2845 C2841 1.376 . S
C2845 C2844 1.392 . S
C2845 H2857 0.929 . S
C2846 C2842 1.531 . S
C2846 H2858 0.960 . S
C2846 H2859 0.962 . S
C2846 H2860 0.960 . S
C2847 C2844 1.511 . S
C2847 H2861 0.961 . S
C2847 H2862 0.961 . S
C2847 H2863 0.961 1_554 S
C2848 C2849 1.370 . S
C2848 C2850 1.363 . S
C2848 H2864 0.931 . S
C2849 C2848 1.370 . S
C2849 C2853 1.408 . S
C2850 C2848 1.363 . S
C2850 C2851 1.370 . S
C2850 C2854 1.524 . S
C2851 C2843 1.503 . S
C2851 C2850 1.370 . S
C2851 C2852 1.403 . S
C2852 C2851 1.403 . S
C2852 C2853 1.404 . S
C2852 C2855 1.539 1_554 S
C2853 C2849 1.408 . S
C2853 C2852 1.404 . S
C2853 H2865 0.930 . S
C2854 C2850 1.524 . S
C2854 H2866 0.956 . S
C2854 H2867 0.961 . S
C2854 H2868 0.961 . S
C2855 C2852 1.539 1_556 S
C2855 H2869 0.958 . S
C2855 H2870 0.961 . S
C2855 H2871 0.960 . S
H2856 C2840 0.931 . S
H2857 C2845 0.929 . S
H2858 C2846 0.960 . S
H2859 C2846 0.962 . S
H2860 C2846 0.960 . S
H2861 C2847 0.961 . S
H2862 C2847 0.961 . S
H2863 C2847 0.961 1_556 S
H2864 C2848 0.931 . S
H2865 C2853 0.930 . S
H2866 C2854 0.956 . S
H2867 C2854 0.961 . S
H2868 C2854 0.961 . S
H2869 C2855 0.958 . S
H2870 C2855 0.961 . S
H2871 C2855 0.960 . S
C2872 C2873 1.391 . S
C2872 C2874 1.394 . S
C2872 H2888 0.931 . S
C2873 C2872 1.391 . S
C2873 C2877 1.376 . S
C2874 C2872 1.394 . S
C2874 C2875 1.369 . S
C2874 C2878 1.531 . S
C2875 C2874 1.369 . S
C2875 C2876 1.410 . S
C2875 C2883 1.503 . S
C2876 C2875 1.410 . S
C2876 C2877 1.392 . S
C2876 C2879 1.511 . S
C2877 C2873 1.376 . S
C2877 C2876 1.392 . S
C2877 H2889 0.929 . S
C2878 C2874 1.531 . S
C2878 H2890 0.960 . S
C2878 H2891 0.962 . S
C2878 H2892 0.960 . S
C2879 C2876 1.511 . S
C2879 H2893 0.961 . S
C2879 H2894 0.961 . S
C2879 H2895 0.961 . S
C2880 C2881 1.370 . S
C2880 C2882 1.363 . S
C2880 H2896 0.931 . S
C2881 C2880 1.370 . S
C2881 C2885 1.408 . S
C2882 C2880 1.363 . S
C2882 C2883 1.370 . S
C2882 C2886 1.524 . S
C2883 C2875 1.503 . S
C2883 C2882 1.370 . S
C2883 C2884 1.403 . S
C2884 C2883 1.403 . S
C2884 C2885 1.404 . S
C2884 C2887 1.539 . S
C2885 C2881 1.408 . S
C2885 C2884 1.404 . S
C2885 H2897 0.930 . S
C2886 C2882 1.524 . S
C2886 H2898 0.956 . S
C2886 H2899 0.961 . S
C2886 H2900 0.961 . S
C2887 C2884 1.539 . S
C2887 H2901 0.958 . S
C2887 H2902 0.961 . S
C2887 H2903 0.960 . S
H2888 C2872 0.931 . S
H2889 C2877 0.929 . S
H2890 C2878 0.960 . S
H2891 C2878 0.962 . S
H2892 C2878 0.960 . S
H2893 C2879 0.961 . S
H2894 C2879 0.961 . S
H2895 C2879 0.961 . S
H2896 C2880 0.931 . S
H2897 C2885 0.930 . S
H2898 C2886 0.956 . S
H2899 C2886 0.961 . S
H2900 C2886 0.961 . S
H2901 C2887 0.958 . S
H2902 C2887 0.961 . S
H2903 C2887 0.960 . S
C2904 C2905 1.391 . S
C2904 C2906 1.394 . S
C2904 H2920 0.931 . S
C2905 C2904 1.391 . S
C2905 C2909 1.376 . S
C2906 C2904 1.394 . S
C2906 C2907 1.369 . S
C2906 C2910 1.531 . S
C2907 C2906 1.369 . S
C2907 C2908 1.410 . S
C2907 C2915 1.503 . S
C2908 C2907 1.410 . S
C2908 C2909 1.392 . S
C2908 C2911 1.511 . S
C2909 C2905 1.376 . S
C2909 C2908 1.392 . S
C2909 H2921 0.929 . S
C2910 C2906 1.531 . S
C2910 H2922 0.960 . S
C2910 H2923 0.962 . S
C2910 H2924 0.960 . S
C2911 C2908 1.511 . S
C2911 H2925 0.961 . S
C2911 H2926 0.961 . S
C2911 H2927 0.961 . S
C2912 C2913 1.370 . S
C2912 C2914 1.363 . S
C2912 H2928 0.931 . S
C2913 C2912 1.370 . S
C2913 C2917 1.408 . S
C2914 C2912 1.363 . S
C2914 C2915 1.370 . S
C2914 C2918 1.524 . S
C2915 C2907 1.503 . S
C2915 C2914 1.370 . S
C2915 C2916 1.403 . S
C2916 C2915 1.403 . S
C2916 C2917 1.404 . S
C2916 C2919 1.539 . S
C2917 C2913 1.408 . S
C2917 C2916 1.404 . S
C2917 H2929 0.930 . S
C2918 C2914 1.524 . S
C2918 H2930 0.956 . S
C2918 H2931 0.961 . S
C2918 H2932 0.961 . S
C2919 C2916 1.539 . S
C2919 H2933 0.958 . S
C2919 H2934 0.961 . S
C2919 H2935 0.960 . S
H2920 C2904 0.931 . S
H2921 C2909 0.929 . S
H2922 C2910 0.960 . S
H2923 C2910 0.962 . S
H2924 C2910 0.960 . S
H2925 C2911 0.961 . S
H2926 C2911 0.961 . S
H2927 C2911 0.961 . S
H2928 C2912 0.931 . S
H2929 C2917 0.930 . S
H2930 C2918 0.956 . S
H2931 C2918 0.961 . S
H2932 C2918 0.961 . S
H2933 C2919 0.958 . S
H2934 C2919 0.961 . S
H2935 C2919 0.960 . S
C2936 C2937 1.391 . S
C2936 C2938 1.394 . S
C2936 H2952 0.931 . S
C2937 C2936 1.391 . S
C2937 C2941 1.376 . S
C2938 C2936 1.394 . S
C2938 C2939 1.369 . S
C2938 C2942 1.531 . S
C2939 C2938 1.369 . S
C2939 C2940 1.410 . S
C2939 C2947 1.503 . S
C2940 C2939 1.410 . S
C2940 C2941 1.392 . S
C2940 C2943 1.511 . S
C2941 C2937 1.376 . S
C2941 C2940 1.392 . S
C2941 H2953 0.929 . S
C2942 C2938 1.531 . S
C2942 H2954 0.960 . S
C2942 H2955 0.962 . S
C2942 H2956 0.960 . S
C2943 C2940 1.511 . S
C2943 H2957 0.961 . S
C2943 H2958 0.961 . S
C2943 H2959 0.961 . S
C2944 C2945 1.370 . S
C2944 C2946 1.363 . S
C2944 H2960 0.931 . S
C2945 C2944 1.370 . S
C2945 C2949 1.408 . S
C2946 C2944 1.363 . S
C2946 C2947 1.370 . S
C2946 C2950 1.524 . S
C2947 C2939 1.503 . S
C2947 C2946 1.370 . S
C2947 C2948 1.403 . S
C2948 C2947 1.403 . S
C2948 C2949 1.404 . S
C2948 C2951 1.539 . S
C2949 C2945 1.408 . S
C2949 C2948 1.404 . S
C2949 H2961 0.930 . S
C2950 C2946 1.524 . S
C2950 H2962 0.956 . S
C2950 H2963 0.961 . S
C2950 H2964 0.961 . S
C2951 C2948 1.539 . S
C2951 H2965 0.958 . S
C2951 H2966 0.961 . S
C2951 H2967 0.960 . S
H2952 C2936 0.931 . S
H2953 C2941 0.929 . S
H2954 C2942 0.960 . S
H2955 C2942 0.962 . S
H2956 C2942 0.960 . S
H2957 C2943 0.961 . S
H2958 C2943 0.961 . S
H2959 C2943 0.961 . S
H2960 C2944 0.931 . S
H2961 C2949 0.930 . S
H2962 C2950 0.956 . S
H2963 C2950 0.961 . S
H2964 C2950 0.961 . S
H2965 C2951 0.958 . S
H2966 C2951 0.961 . S
H2967 C2951 0.960 . S
C2968 C2969 1.391 . S
C2968 C2970 1.394 . S
C2968 H2984 0.931 . S
C2969 C2968 1.391 . S
C2969 C2973 1.376 . S
C2970 C2968 1.394 . S
C2970 C2971 1.369 . S
C2970 C2974 1.531 . S
C2971 C2970 1.369 . S
C2971 C2972 1.410 . S
C2971 C2979 1.503 . S
C2972 C2971 1.410 . S
C2972 C2973 1.392 . S
C2972 C2975 1.511 . S
C2973 C2969 1.376 . S
C2973 C2972 1.392 . S
C2973 H2985 0.929 . S
C2974 C2970 1.531 . S
C2974 H2986 0.960 . S
C2974 H2987 0.962 . S
C2974 H2988 0.960 . S
C2975 C2972 1.511 . S
C2975 H2989 0.961 . S
C2975 H2990 0.961 . S
C2975 H2991 0.961 . S
C2976 C2977 1.370 . S
C2976 C2978 1.363 . S
C2976 H2992 0.931 . S
C2977 C2976 1.370 . S
C2977 C2981 1.408 . S
C2978 C2976 1.363 . S
C2978 C2979 1.370 . S
C2978 C2982 1.524 . S
C2979 C2971 1.503 . S
C2979 C2978 1.370 . S
C2979 C2980 1.403 . S
C2980 C2979 1.403 . S
C2980 C2981 1.404 . S
C2980 C2983 1.539 . S
C2981 C2977 1.408 . S
C2981 C2980 1.404 . S
C2981 H2993 0.930 . S
C2982 C2978 1.524 . S
C2982 H2994 0.956 . S
C2982 H2995 0.961 . S
C2982 H2996 0.961 . S
C2983 C2980 1.539 . S
C2983 H2997 0.958 . S
C2983 H2998 0.961 . S
C2983 H2999 0.960 . S
H2984 C2968 0.931 . S
H2985 C2973 0.929 . S
H2986 C2974 0.960 . S
H2987 C2974 0.962 . S
H2988 C2974 0.960 . S
H2989 C2975 0.961 . S
H2990 C2975 0.961 . S
H2991 C2975 0.961 . S
H2992 C2976 0.931 . S
H2993 C2981 0.930 . S
H2994 C2982 0.956 . S
H2995 C2982 0.961 . S
H2996 C2982 0.961 . S
H2997 C2983 0.958 . S
H2998 C2983 0.961 . S
H2999 C2983 0.960 . S
C3000 C3001 1.391 . S
C3000 C3002 1.394 . S
C3000 H3016 0.931 1_455 S
C3001 C3000 1.391 . S
C3001 C3005 1.376 . S
C3002 C3000 1.394 . S
C3002 C3003 1.369 . S
C3002 C3006 1.531 1_455 S
C3003 C3002 1.369 . S
C3003 C3004 1.410 . S
C3003 C3011 1.503 . S
C3004 C3003 1.410 . S
C3004 C3005 1.392 . S
C3004 C3007 1.511 . S
C3005 C3001 1.376 . S
C3005 C3004 1.392 . S
C3005 H3017 0.929 . S
C3006 C3002 1.531 1_655 S
C3006 H3018 0.960 . S
C3006 H3019 0.962 . S
C3006 H3020 0.960 . S
C3007 C3004 1.511 . S
C3007 H3021 0.961 . S
C3007 H3022 0.961 . S
C3007 H3023 0.961 . S
C3008 C3009 1.370 . S
C3008 C3010 1.363 . S
C3008 H3024 0.931 1_455 S
C3009 C3008 1.370 . S
C3009 C3013 1.408 . S
C3010 C3008 1.363 . S
C3010 C3011 1.370 . S
C3010 C3014 1.526 . S
C3011 C3003 1.503 . S
C3011 C3010 1.370 . S
C3011 C3012 1.403 . S
C3012 C3011 1.403 . S
C3012 C3013 1.404 . S
C3012 C3015 1.539 . S
C3013 C3009 1.408 . S
C3013 C3012 1.404 . S
C3013 H3025 0.930 . S
C3014 C3010 1.526 . S
C3014 H3026 0.953 1_455 S
C3014 H3027 0.963 . S
C3014 H3028 0.960 1_455 S
C3015 C3012 1.539 . S
C3015 H3029 0.958 . S
C3015 H3030 0.961 . S
C3015 H3031 0.960 . S
H3016 C3000 0.931 1_655 S
H3017 C3005 0.929 . S
H3018 C3006 0.960 . S
H3019 C3006 0.962 . S
H3020 C3006 0.960 . S
H3021 C3007 0.961 . S
H3022 C3007 0.961 . S
H3023 C3007 0.961 . S
H3024 C3008 0.931 1_655 S
H3025 C3013 0.930 . S
H3026 C3014 0.953 1_655 S
H3027 C3014 0.963 . S
H3028 C3014 0.960 1_655 S
H3029 C3015 0.958 . S
H3030 C3015 0.961 . S
H3031 C3015 0.960 . S
C3032 C3033 1.391 . S
C3032 C3034 1.394 . S
C3032 H3048 0.931 . S
C3033 C3032 1.391 . S
C3033 C3037 1.376 . S
C3034 C3032 1.394 . S
C3034 C3035 1.369 . S
C3034 C3038 1.531 . S
C3035 C3034 1.369 . S
C3035 C3036 1.410 . S
C3035 C3043 1.503 . S
C3036 C3035 1.410 . S
C3036 C3037 1.392 . S
C3036 C3039 1.511 . S
C3037 C3033 1.376 . S
C3037 C3036 1.392 . S
C3037 H3049 0.929 . S
C3038 C3034 1.531 . S
C3038 H3050 0.960 . S
C3038 H3051 0.962 . S
C3038 H3052 0.960 . S
C3039 C3036 1.511 . S
C3039 H3053 0.961 . S
C3039 H3054 0.961 . S
C3039 H3055 0.961 . S
C3040 C3041 1.370 . S
C3040 C3042 1.363 . S
C3040 H3056 0.931 . S
C3041 C3040 1.370 . S
C3041 C3045 1.408 . S
C3042 C3040 1.363 . S
C3042 C3043 1.370 . S
C3042 C3046 1.524 . S
C3043 C3035 1.503 . S
C3043 C3042 1.370 . S
C3043 C3044 1.403 . S
C3044 C3043 1.403 . S
C3044 C3045 1.404 . S
C3044 C3047 1.539 . S
C3045 C3041 1.408 . S
C3045 C3044 1.404 . S
C3045 H3057 0.930 . S
C3046 C3042 1.524 . S
C3046 H3058 0.956 . S
C3046 H3059 0.961 . S
C3046 H3060 0.961 . S
C3047 C3044 1.539 . S
C3047 H3061 0.958 . S
C3047 H3062 0.961 . S
C3047 H3063 0.960 . S
H3048 C3032 0.931 . S
H3049 C3037 0.929 . S
H3050 C3038 0.960 . S
H3051 C3038 0.962 . S
H3052 C3038 0.960 . S
H3053 C3039 0.961 . S
H3054 C3039 0.961 . S
H3055 C3039 0.961 . S
H3056 C3040 0.931 . S
H3057 C3045 0.930 . S
H3058 C3046 0.956 . S
H3059 C3046 0.961 . S
H3060 C3046 0.961 . S
H3061 C3047 0.958 . S
H3062 C3047 0.961 . S
H3063 C3047 0.960 . S
C3064 C3065 1.391 . S
C3064 C3066 1.394 . S
C3064 H3080 0.931 . S
C3065 C3064 1.391 . S
C3065 C3069 1.376 . S
C3066 C3064 1.394 . S
C3066 C3067 1.369 . S
C3066 C3070 1.531 . S
C3067 C3066 1.369 . S
C3067 C3068 1.410 . S
C3067 C3075 1.503 . S
C3068 C3067 1.410 . S
C3068 C3069 1.392 . S
C3068 C3071 1.511 . S
C3069 C3065 1.376 . S
C3069 C3068 1.392 . S
C3069 H3081 0.929 . S
C3070 C3066 1.531 . S
C3070 H3082 0.960 . S
C3070 H3083 0.962 . S
C3070 H3084 0.960 . S
C3071 C3068 1.511 . S
C3071 H3085 0.961 . S
C3071 H3086 0.961 . S
C3071 H3087 0.961 . S
C3072 C3073 1.370 . S
C3072 C3074 1.363 . S
C3072 H3088 0.931 1_556 S
C3073 C3072 1.370 . S
C3073 C3077 1.408 . S
C3074 C3072 1.363 . S
C3074 C3075 1.370 . S
C3074 C3078 1.524 . S
C3075 C3067 1.503 . S
C3075 C3074 1.370 . S
C3075 C3076 1.403 . S
C3076 C3075 1.403 . S
C3076 C3077 1.404 . S
C3076 C3079 1.539 . S
C3077 C3073 1.408 . S
C3077 C3076 1.404 . S
C3077 H3089 0.930 . S
C3078 C3074 1.524 . S
C3078 H3090 0.956 . S
C3078 H3091 0.961 . S
C3078 H3092 0.961 1_556 S
C3079 C3076 1.539 . S
C3079 H3093 0.958 . S
C3079 H3094 0.961 . S
C3079 H3095 0.960 . S
H3080 C3064 0.931 . S
H3081 C3069 0.929 . S
H3082 C3070 0.960 . S
H3083 C3070 0.962 . S
H3084 C3070 0.960 . S
H3085 C3071 0.961 . S
H3086 C3071 0.961 . S
H3087 C3071 0.961 . S
H3088 C3072 0.931 1_554 S
H3089 C3077 0.930 . S
H3090 C3078 0.956 . S
H3091 C3078 0.961 . S
H3092 C3078 0.961 1_554 S
H3093 C3079 0.958 . S
H3094 C3079 0.961 . S
H3095 C3079 0.960 . S
C3096 C3097 1.391 . S
C3096 C3098 1.394 . S
C3096 H3112 0.931 . S
C3097 C3096 1.391 . S
C3097 C3101 1.376 . S
C3098 C3096 1.394 . S
C3098 C3099 1.369 . S
C3098 C3102 1.531 . S
C3099 C3098 1.369 . S
C3099 C3100 1.410 . S
C3099 C3107 1.503 . S
C3100 C3099 1.410 . S
C3100 C3101 1.392 . S
C3100 C3103 1.511 . S
C3101 C3097 1.376 . S
C3101 C3100 1.392 . S
C3101 H3113 0.929 . S
C3102 C3098 1.531 . S
C3102 H3114 0.960 . S
C3102 H3115 0.962 . S
C3102 H3116 0.960 . S
C3103 C3100 1.511 . S
C3103 H3117 0.961 . S
C3103 H3118 0.961 . S
C3103 H3119 0.961 . S
C3104 C3105 1.370 . S
C3104 C3106 1.363 . S
C3104 H3120 0.931 . S
C3105 C3104 1.370 . S
C3105 C3109 1.408 . S
C3106 C3104 1.363 . S
C3106 C3107 1.370 . S
C3106 C3110 1.524 . S
C3107 C3099 1.503 . S
C3107 C3106 1.370 . S
C3107 C3108 1.403 . S
C3108 C3107 1.403 . S
C3108 C3109 1.404 . S
C3108 C3111 1.539 . S
C3109 C3105 1.408 . S
C3109 C3108 1.404 . S
C3109 H3121 0.930 . S
C3110 C3106 1.524 . S
C3110 H3122 0.956 . S
C3110 H3123 0.961 . S
C3110 H3124 0.961 . S
C3111 C3108 1.539 . S
C3111 H3125 0.958 . S
C3111 H3126 0.961 . S
C3111 H3127 0.960 . S
H3112 C3096 0.931 . S
H3113 C3101 0.929 . S
H3114 C3102 0.960 . S
H3115 C3102 0.962 . S
H3116 C3102 0.960 . S
H3117 C3103 0.961 . S
H3118 C3103 0.961 . S
H3119 C3103 0.961 . S
H3120 C3104 0.931 . S
H3121 C3109 0.930 . S
H3122 C3110 0.956 . S
H3123 C3110 0.961 . S
H3124 C3110 0.961 . S
H3125 C3111 0.958 . S
H3126 C3111 0.961 . S
H3127 C3111 0.960 . S
C3128 C3129 1.391 . S
C3128 C3130 1.394 . S
C3128 H3144 0.931 . S
C3129 C3128 1.391 . S
C3129 C3133 1.376 . S
C3130 C3128 1.394 . S
C3130 C3131 1.369 . S
C3130 C3134 1.531 . S
C3131 C3130 1.369 . S
C3131 C3132 1.410 . S
C3131 C3139 1.503 . S
C3132 C3131 1.410 . S
C3132 C3133 1.392 . S
C3132 C3135 1.511 1_455 S
C3133 C3129 1.376 . S
C3133 C3132 1.392 . S
C3133 H3145 0.926 . S
C3134 C3130 1.531 . S
C3134 H3146 0.960 . S
C3134 H3147 0.962 . S
C3134 H3148 0.960 . S
C3135 C3132 1.511 1_655 S
C3135 H3149 0.961 . S
C3135 H3150 0.961 . S
C3135 H3151 0.961 . S
C3136 C3137 1.370 . S
C3136 C3138 1.363 . S
C3136 H3152 0.931 . S
C3137 C3136 1.370 . S
C3137 C3141 1.408 . S
C3138 C3136 1.363 . S
C3138 C3139 1.370 . S
C3138 C3142 1.524 . S
C3139 C3131 1.503 . S
C3139 C3138 1.370 . S
C3139 C3140 1.403 . S
C3140 C3139 1.403 . S
C3140 C3141 1.404 . S
C3140 C3143 1.539 1_455 S
C3141 C3137 1.408 . S
C3141 C3140 1.404 . S
C3141 H3153 0.930 1_455 S
C3142 C3138 1.524 . S
C3142 H3154 0.956 . S
C3142 H3155 0.961 . S
C3142 H3156 0.961 . S
C3143 C3140 1.539 1_655 S
C3143 H3157 0.958 . S
C3143 H3158 0.961 . S
C3143 H3159 0.960 . S
H3144 C3128 0.931 . S
H3145 C3133 0.926 . S
H3146 C3134 0.960 . S
H3147 C3134 0.962 . S
H3148 C3134 0.960 . S
H3149 C3135 0.961 . S
H3150 C3135 0.961 . S
H3151 C3135 0.961 . S
H3152 C3136 0.931 . S
H3153 C3141 0.930 1_655 S
H3154 C3142 0.956 . S
H3155 C3142 0.961 . S
H3156 C3142 0.961 . S
H3157 C3143 0.958 . S
H3158 C3143 0.961 . S
H3159 C3143 0.960 . S
C3160 C3161 1.391 . S
C3160 C3162 1.394 . S
C3160 H3176 0.931 . S
C3161 C3160 1.391 . S
C3161 C3165 1.376 . S
C3162 C3160 1.394 . S
C3162 C3163 1.369 . S
C3162 C3166 1.531 . S
C3163 C3162 1.369 . S
C3163 C3164 1.410 . S
C3163 C3171 1.503 . S
C3164 C3163 1.410 . S
C3164 C3165 1.392 . S
C3164 C3167 1.511 . S
C3165 C3161 1.376 . S
C3165 C3164 1.392 . S
C3165 H3177 0.929 . S
C3166 C3162 1.531 . S
C3166 H3178 0.960 . S
C3166 H3179 0.962 . S
C3166 H3180 0.960 . S
C3167 C3164 1.511 . S
C3167 H3181 0.961 . S
C3167 H3182 0.961 . S
C3167 H3183 0.961 . S
C3168 C3169 1.370 . S
C3168 C3170 1.363 . S
C3168 H3184 0.931 . S
C3169 C3168 1.370 . S
C3169 C3173 1.408 . S
C3170 C3168 1.363 . S
C3170 C3171 1.370 . S
C3170 C3174 1.524 . S
C3171 C3163 1.503 . S
C3171 C3170 1.370 . S
C3171 C3172 1.403 . S
C3172 C3171 1.403 . S
C3172 C3173 1.404 . S
C3172 C3175 1.539 . S
C3173 C3169 1.408 . S
C3173 C3172 1.404 . S
C3173 H3185 0.930 . S
C3174 C3170 1.524 . S
C3174 H3186 0.956 . S
C3174 H3187 0.961 . S
C3174 H3188 0.961 . S
C3175 C3172 1.539 . S
C3175 H3189 0.958 . S
C3175 H3190 0.961 . S
C3175 H3191 0.960 . S
H3176 C3160 0.931 . S
H3177 C3165 0.929 . S
H3178 C3166 0.960 . S
H3179 C3166 0.962 . S
H3180 C3166 0.960 . S
H3181 C3167 0.961 . S
H3182 C3167 0.961 . S
H3183 C3167 0.961 . S
H3184 C3168 0.931 . S
H3185 C3173 0.930 . S
H3186 C3174 0.956 . S
H3187 C3174 0.961 . S
H3188 C3174 0.961 . S
H3189 C3175 0.958 . S
H3190 C3175 0.961 . S
H3191 C3175 0.960 . S
C3192 C3193 1.391 . S
C3192 C3194 1.394 . S
C3192 H3208 0.931 . S
C3193 C3192 1.391 . S
C3193 C3197 1.376 . S
C3194 C3192 1.394 . S
C3194 C3195 1.369 . S
C3194 C3198 1.531 . S
C3195 C3194 1.369 . S
C3195 C3196 1.410 . S
C3195 C3203 1.503 . S
C3196 C3195 1.410 . S
C3196 C3197 1.392 . S
C3196 C3199 1.511 . S
C3197 C3193 1.376 . S
C3197 C3196 1.392 . S
C3197 H3209 0.929 . S
C3198 C3194 1.531 . S
C3198 H3210 0.960 . S
C3198 H3211 0.962 . S
C3198 H3212 0.960 . S
C3199 C3196 1.511 . S
C3199 H3213 0.961 . S
C3199 H3214 0.961 . S
C3199 H3215 0.961 . S
C3200 C3201 1.370 . S
C3200 C3202 1.363 . S
C3200 H3216 0.931 . S
C3201 C3200 1.370 . S
C3201 C3205 1.408 . S
C3202 C3200 1.363 . S
C3202 C3203 1.370 . S
C3202 C3206 1.524 . S
C3203 C3195 1.503 . S
C3203 C3202 1.370 . S
C3203 C3204 1.403 . S
C3204 C3203 1.403 . S
C3204 C3205 1.404 . S
C3204 C3207 1.539 . S
C3205 C3201 1.408 . S
C3205 C3204 1.404 . S
C3205 H3217 0.930 . S
C3206 C3202 1.524 . S
C3206 H3218 0.956 . S
C3206 H3219 0.961 . S
C3206 H3220 0.961 . S
C3207 C3204 1.539 . S
C3207 H3221 0.958 . S
C3207 H3222 0.961 . S
C3207 H3223 0.960 . S
H3208 C3192 0.931 . S
H3209 C3197 0.929 . S
H3210 C3198 0.960 . S
H3211 C3198 0.962 . S
H3212 C3198 0.960 . S
H3213 C3199 0.961 . S
H3214 C3199 0.961 . S
H3215 C3199 0.961 . S
H3216 C3200 0.931 . S
H3217 C3205 0.930 . S
H3218 C3206 0.956 . S
H3219 C3206 0.961 . S
H3220 C3206 0.961 . S
H3221 C3207 0.958 . S
H3222 C3207 0.961 . S
H3223 C3207 0.960 . S
C3224 C3225 1.391 . S
C3224 C3226 1.394 . S
C3224 H3240 0.931 . S
C3225 C3224 1.391 . S
C3225 C3229 1.376 . S
C3226 C3224 1.394 . S
C3226 C3227 1.369 . S
C3226 C3230 1.531 . S
C3227 C3226 1.369 . S
C3227 C3228 1.410 . S
C3227 C3235 1.503 . S
C3228 C3227 1.410 . S
C3228 C3229 1.392 . S
C3228 C3231 1.511 . S
C3229 C3225 1.376 . S
C3229 C3228 1.392 . S
C3229 H3241 0.929 . S
C3230 C3226 1.531 . S
C3230 H3242 0.960 . S
C3230 H3243 0.962 . S
C3230 H3244 0.960 . S
C3231 C3228 1.511 . S
C3231 H3245 0.961 . S
C3231 H3246 0.961 . S
C3231 H3247 0.961 . S
C3232 C3233 1.370 . S
C3232 C3234 1.363 . S
C3232 H3248 0.931 . S
C3233 C3232 1.370 . S
C3233 C3237 1.408 . S
C3234 C3232 1.363 . S
C3234 C3235 1.370 . S
C3234 C3238 1.524 . S
C3235 C3227 1.503 . S
C3235 C3234 1.370 . S
C3235 C3236 1.403 . S
C3236 C3235 1.403 . S
C3236 C3237 1.404 . S
C3236 C3239 1.539 . S
C3237 C3233 1.408 . S
C3237 C3236 1.404 . S
C3237 H3249 0.930 . S
C3238 C3234 1.524 . S
C3238 H3250 0.956 . S
C3238 H3251 0.961 . S
C3238 H3252 0.961 . S
C3239 C3236 1.539 . S
C3239 H3253 0.958 . S
C3239 H3254 0.961 . S
C3239 H3255 0.960 . S
H3240 C3224 0.931 . S
H3241 C3229 0.929 . S
H3242 C3230 0.960 . S
H3243 C3230 0.962 . S
H3244 C3230 0.960 . S
H3245 C3231 0.961 . S
H3246 C3231 0.961 . S
H3247 C3231 0.961 . S
H3248 C3232 0.931 . S
H3249 C3237 0.930 . S
H3250 C3238 0.956 . S
H3251 C3238 0.961 . S
H3252 C3238 0.961 . S
H3253 C3239 0.958 . S
H3254 C3239 0.961 . S
H3255 C3239 0.960 . S
C3256 C3257 1.391 . S
C3256 C3258 1.394 . S
C3256 H3272 0.931 . S
C3257 C3256 1.391 . S
C3257 C3261 1.376 . S
C3258 C3256 1.394 . S
C3258 C3259 1.369 . S
C3258 C3262 1.531 . S
C3259 C3258 1.369 . S
C3259 C3260 1.410 . S
C3259 C3267 1.503 . S
C3260 C3259 1.410 . S
C3260 C3261 1.392 . S
C3260 C3263 1.511 . S
C3261 C3257 1.376 . S
C3261 C3260 1.392 . S
C3261 H3273 0.929 . S
C3262 C3258 1.531 . S
C3262 H3274 0.960 . S
C3262 H3275 0.962 . S
C3262 H3276 0.960 . S
C3263 C3260 1.511 . S
C3263 H3277 0.961 1_655 S
C3263 H3278 0.961 1_655 S
C3263 H3279 0.961 . S
C3264 C3265 1.370 . S
C3264 C3266 1.363 . S
C3264 H3280 0.931 . S
C3265 C3264 1.370 . S
C3265 C3269 1.408 . S
C3266 C3264 1.363 . S
C3266 C3267 1.370 . S
C3266 C3270 1.524 . S
C3267 C3259 1.503 . S
C3267 C3266 1.370 . S
C3267 C3268 1.403 . S
C3268 C3267 1.403 . S
C3268 C3269 1.404 . S
C3268 C3271 1.539 . S
C3269 C3265 1.408 . S
C3269 C3268 1.404 . S
C3269 H3281 0.930 . S
C3270 C3266 1.524 . S
C3270 H3282 0.956 . S
C3270 H3283 0.961 . S
C3270 H3284 0.961 . S
C3271 C3268 1.539 . S
C3271 H3285 0.958 . S
C3271 H3286 0.961 . S
C3271 H3287 0.960 . S
H3272 C3256 0.931 . S
H3273 C3261 0.929 . S
H3274 C3262 0.960 . S
H3275 C3262 0.962 . S
H3276 C3262 0.960 . S
H3277 C3263 0.961 1_455 S
H3278 C3263 0.961 1_455 S
H3279 C3263 0.961 . S
H3280 C3264 0.931 . S
H3281 C3269 0.930 . S
H3282 C3270 0.956 . S
H3283 C3270 0.961 . S
H3284 C3270 0.961 . S
H3285 C3271 0.958 . S
H3286 C3271 0.961 . S
H3287 C3271 0.960 . S
C3288 C3289 1.391 . S
C3288 C3290 1.394 . S
C3288 H3304 0.931 . S
C3289 C3288 1.391 . S
C3289 C3293 1.376 . S
C3290 C3288 1.394 . S
C3290 C3291 1.369 . S
C3290 C3294 1.531 . S
C3291 C3290 1.369 . S
C3291 C3292 1.410 . S
C3291 C3299 1.503 . S
C3292 C3291 1.410 . S
C3292 C3293 1.392 . S
C3292 C3295 1.511 . S
C3293 C3289 1.376 . S
C3293 C3292 1.392 . S
C3293 H3305 0.929 . S
C3294 C3290 1.531 . S
C3294 H3306 0.960 . S
C3294 H3307 0.962 . S
C3294 H3308 0.960 . S
C3295 C3292 1.511 . S
C3295 H3309 0.961 . S
C3295 H3310 0.961 . S
C3295 H3311 0.961 . S
C3296 C3297 1.370 . S
C3296 C3298 1.363 . S
C3296 H3312 0.931 . S
C3297 C3296 1.370 . S
C3297 C3301 1.408 . S
C3298 C3296 1.363 . S
C3298 C3299 1.370 . S
C3298 C3302 1.524 . S
C3299 C3291 1.503 . S
C3299 C3298 1.370 . S
C3299 C3300 1.403 . S
C3300 C3299 1.403 . S
C3300 C3301 1.404 . S
C3300 C3303 1.539 . S
C3301 C3297 1.408 . S
C3301 C3300 1.404 . S
C3301 H3313 0.930 . S
C3302 C3298 1.524 . S
C3302 H3314 0.956 . S
C3302 H3315 0.961 . S
C3302 H3316 0.961 . S
C3303 C3300 1.539 . S
C3303 H3317 0.958 . S
C3303 H3318 0.961 . S
C3303 H3319 0.960 . S
H3304 C3288 0.931 . S
H3305 C3293 0.929 . S
H3306 C3294 0.960 . S
H3307 C3294 0.962 . S
H3308 C3294 0.960 . S
H3309 C3295 0.961 . S
H3310 C3295 0.961 . S
H3311 C3295 0.961 . S
H3312 C3296 0.931 . S
H3313 C3301 0.930 . S
H3314 C3302 0.956 . S
H3315 C3302 0.961 . S
H3316 C3302 0.961 . S
H3317 C3303 0.958 . S
H3318 C3303 0.961 . S
H3319 C3303 0.960 . S
C3320 C3321 1.391 . S
C3320 C3322 1.394 . S
C3320 H3336 0.931 . S
C3321 C3320 1.391 . S
C3321 C3325 1.376 . S
C3322 C3320 1.394 . S
C3322 C3323 1.369 . S
C3322 C3326 1.531 . S
C3323 C3322 1.369 . S
C3323 C3324 1.410 . S
C3323 C3331 1.503 . S
C3324 C3323 1.410 . S
C3324 C3325 1.392 . S
C3324 C3327 1.511 . S
C3325 C3321 1.376 . S
C3325 C3324 1.392 . S
C3325 H3337 0.929 . S
C3326 C3322 1.531 . S
C3326 H3338 0.960 . S
C3326 H3339 0.962 . S
C3326 H3340 0.960 . S
C3327 C3324 1.511 . S
C3327 H3341 0.961 . S
C3327 H3342 0.961 . S
C3327 H3343 0.961 . S
C3328 C3329 1.370 . S
C3328 C3330 1.363 . S
C3328 H3344 0.931 . S
C3329 C3328 1.370 . S
C3329 C3333 1.408 . S
C3330 C3328 1.363 . S
C3330 C3331 1.370 . S
C3330 C3334 1.524 . S
C3331 C3323 1.503 . S
C3331 C3330 1.370 . S
C3331 C3332 1.403 . S
C3332 C3331 1.403 . S
C3332 C3333 1.404 . S
C3332 C3335 1.539 . S
C3333 C3329 1.408 . S
C3333 C3332 1.404 . S
C3333 H3345 0.930 . S
C3334 C3330 1.524 . S
C3334 H3346 0.956 . S
C3334 H3347 0.961 . S
C3334 H3348 0.961 . S
C3335 C3332 1.539 . S
C3335 H3349 0.958 . S
C3335 H3350 0.961 . S
C3335 H3351 0.960 . S
H3336 C3320 0.931 . S
H3337 C3325 0.929 . S
H3338 C3326 0.960 . S
H3339 C3326 0.962 . S
H3340 C3326 0.960 . S
H3341 C3327 0.961 . S
H3342 C3327 0.961 . S
H3343 C3327 0.961 . S
H3344 C3328 0.931 . S
H3345 C3333 0.930 . S
H3346 C3334 0.956 . S
H3347 C3334 0.961 . S
H3348 C3334 0.961 . S
H3349 C3335 0.958 . S
H3350 C3335 0.961 . S
H3351 C3335 0.960 . S
C3352 C3353 1.391 . S
C3352 C3354 1.394 . S
C3352 H3368 0.931 . S
C3353 C3352 1.391 . S
C3353 C3357 1.376 . S
C3354 C3352 1.394 . S
C3354 C3355 1.369 . S
C3354 C3358 1.531 . S
C3355 C3354 1.369 . S
C3355 C3356 1.410 . S
C3355 C3363 1.503 . S
C3356 C3355 1.410 . S
C3356 C3357 1.392 . S
C3356 C3359 1.511 . S
C3357 C3353 1.376 . S
C3357 C3356 1.392 . S
C3357 H3369 0.929 . S
C3358 C3354 1.531 . S
C3358 H3370 0.960 . S
C3358 H3371 0.962 . S
C3358 H3372 0.960 . S
C3359 C3356 1.511 . S
C3359 H3373 0.961 . S
C3359 H3374 0.961 . S
C3359 H3375 0.961 . S
C3360 C3361 1.370 . S
C3360 C3362 1.363 . S
C3360 H3376 0.931 . S
C3361 C3360 1.370 . S
C3361 C3365 1.408 . S
C3362 C3360 1.363 . S
C3362 C3363 1.370 . S
C3362 C3366 1.524 . S
C3363 C3355 1.503 . S
C3363 C3362 1.370 . S
C3363 C3364 1.403 . S
C3364 C3363 1.403 . S
C3364 C3365 1.404 . S
C3364 C3367 1.539 . S
C3365 C3361 1.408 . S
C3365 C3364 1.404 . S
C3365 H3377 0.930 . S
C3366 C3362 1.524 . S
C3366 H3378 0.956 . S
C3366 H3379 0.961 . S
C3366 H3380 0.961 . S
C3367 C3364 1.539 . S
C3367 H3381 0.958 . S
C3367 H3382 0.961 . S
C3367 H3383 0.960 . S
H3368 C3352 0.931 . S
H3369 C3357 0.929 . S
H3370 C3358 0.960 . S
H3371 C3358 0.962 . S
H3372 C3358 0.960 . S
H3373 C3359 0.961 . S
H3374 C3359 0.961 . S
H3375 C3359 0.961 . S
H3376 C3360 0.931 . S
H3377 C3365 0.930 . S
H3378 C3366 0.956 . S
H3379 C3366 0.961 . S
H3380 C3366 0.961 . S
H3381 C3367 0.958 . S
H3382 C3367 0.961 . S
H3383 C3367 0.960 . S
C3384 C3385 1.391 . S
C3384 C3386 1.394 . S
C3384 H3400 0.931 . S
C3385 C3384 1.391 . S
C3385 C3389 1.376 . S
C3386 C3384 1.394 . S
C3386 C3387 1.369 . S
C3386 C3390 1.531 . S
C3387 C3386 1.369 . S
C3387 C3388 1.410 . S
C3387 C3395 1.503 . S
C3388 C3387 1.410 . S
C3388 C3389 1.392 . S
C3388 C3391 1.511 . S
C3389 C3385 1.376 . S
C3389 C3388 1.392 . S
C3389 H3401 0.929 . S
C3390 C3386 1.531 . S
C3390 H3402 0.960 . S
C3390 H3403 0.962 . S
C3390 H3404 0.960 . S
C3391 C3388 1.511 . S
C3391 H3405 0.961 . S
C3391 H3406 0.961 . S
C3391 H3407 0.961 . S
C3392 C3393 1.370 . S
C3392 C3394 1.363 . S
C3392 H3408 0.931 . S
C3393 C3392 1.370 . S
C3393 C3397 1.408 . S
C3394 C3392 1.363 . S
C3394 C3395 1.370 . S
C3394 C3398 1.524 . S
C3395 C3387 1.503 . S
C3395 C3394 1.370 . S
C3395 C3396 1.403 . S
C3396 C3395 1.403 . S
C3396 C3397 1.404 . S
C3396 C3399 1.539 . S
C3397 C3393 1.408 . S
C3397 C3396 1.404 . S
C3397 H3409 0.930 . S
C3398 C3394 1.524 . S
C3398 H3410 0.956 . S
C3398 H3411 0.961 . S
C3398 H3412 0.961 . S
C3399 C3396 1.539 . S
C3399 H3413 0.935 1_655 S
C3399 H3414 0.961 . S
C3399 H3415 0.960 . S
H3400 C3384 0.931 . S
H3401 C3389 0.929 . S
H3402 C3390 0.960 . S
H3403 C3390 0.962 . S
H3404 C3390 0.960 . S
H3405 C3391 0.961 . S
H3406 C3391 0.961 . S
H3407 C3391 0.961 . S
H3408 C3392 0.931 . S
H3409 C3397 0.930 . S
H3410 C3398 0.956 . S
H3411 C3398 0.961 . S
H3412 C3398 0.961 . S
H3413 C3399 0.935 1_455 S
H3414 C3399 0.961 . S
H3415 C3399 0.960 . S
C3416 C3417 1.391 . S
C3416 C3418 1.394 . S
C3416 H3432 0.931 . S
C3417 C3416 1.391 . S
C3417 C3421 1.376 . S
C3418 C3416 1.394 . S
C3418 C3419 1.369 . S
C3418 C3422 1.531 . S
C3419 C3418 1.369 . S
C3419 C3420 1.410 . S
C3419 C3427 1.503 . S
C3420 C3419 1.410 . S
C3420 C3421 1.392 . S
C3420 C3423 1.511 . S
C3421 C3417 1.376 . S
C3421 C3420 1.392 . S
C3421 H3433 0.929 . S
C3422 C3418 1.531 . S
C3422 H3434 0.960 . S
C3422 H3435 0.962 . S
C3422 H3436 0.960 . S
C3423 C3420 1.511 . S
C3423 H3437 0.961 . S
C3423 H3438 0.961 . S
C3423 H3439 0.961 . S
C3424 C3425 1.370 . S
C3424 C3426 1.363 . S
C3424 H3440 0.931 . S
C3425 C3424 1.370 . S
C3425 C3429 1.408 . S
C3426 C3424 1.363 . S
C3426 C3427 1.370 . S
C3426 C3430 1.524 . S
C3427 C3419 1.503 . S
C3427 C3426 1.370 . S
C3427 C3428 1.403 . S
C3428 C3427 1.403 . S
C3428 C3429 1.404 . S
C3428 C3431 1.539 . S
C3429 C3425 1.408 . S
C3429 C3428 1.404 . S
C3429 H3441 0.930 . S
C3430 C3426 1.524 . S
C3430 H3442 0.956 . S
C3430 H3443 0.961 . S
C3430 H3444 0.961 . S
C3431 C3428 1.539 . S
C3431 H3445 0.958 . S
C3431 H3446 0.961 . S
C3431 H3447 0.960 . S
H3432 C3416 0.931 . S
H3433 C3421 0.929 . S
H3434 C3422 0.960 . S
H3435 C3422 0.962 . S
H3436 C3422 0.960 . S
H3437 C3423 0.961 . S
H3438 C3423 0.961 . S
H3439 C3423 0.961 . S
H3440 C3424 0.931 . S
H3441 C3429 0.930 . S
H3442 C3430 0.956 . S
H3443 C3430 0.961 . S
H3444 C3430 0.961 . S
H3445 C3431 0.958 . S
H3446 C3431 0.961 . S
H3447 C3431 0.960 . S
C3448 C3449 1.391 . S
C3448 C3450 1.394 . S
C3448 H3464 0.931 . S
C3449 C3448 1.391 . S
C3449 C3453 1.376 . S
C3450 C3448 1.394 . S
C3450 C3451 1.369 . S
C3450 C3454 1.531 . S
C3451 C3450 1.369 . S
C3451 C3452 1.410 . S
C3451 C3459 1.503 . S
C3452 C3451 1.410 . S
C3452 C3453 1.392 . S
C3452 C3455 1.511 . S
C3453 C3449 1.376 . S
C3453 C3452 1.392 . S
C3453 H3465 0.929 . S
C3454 C3450 1.531 . S
C3454 H3466 0.960 . S
C3454 H3467 0.962 . S
C3454 H3468 0.960 . S
C3455 C3452 1.511 . S
C3455 H3469 0.961 . S
C3455 H3470 0.961 . S
C3455 H3471 0.961 . S
C3456 C3457 1.370 . S
C3456 C3458 1.363 . S
C3456 H3472 0.931 . S
C3457 C3456 1.370 . S
C3457 C3461 1.408 . S
C3458 C3456 1.363 . S
C3458 C3459 1.370 . S
C3458 C3462 1.524 . S
C3459 C3451 1.503 . S
C3459 C3458 1.370 . S
C3459 C3460 1.403 . S
C3460 C3459 1.403 . S
C3460 C3461 1.404 . S
C3460 C3463 1.539 . S
C3461 C3457 1.408 . S
C3461 C3460 1.404 . S
C3461 H3473 0.930 . S
C3462 C3458 1.524 . S
C3462 H3474 0.956 . S
C3462 H3475 0.961 . S
C3462 H3476 0.961 . S
C3463 C3460 1.539 . S
C3463 H3477 0.958 . S
C3463 H3478 0.961 . S
C3463 H3479 0.960 . S
H3464 C3448 0.931 . S
H3465 C3453 0.929 . S
H3466 C3454 0.960 . S
H3467 C3454 0.962 . S
H3468 C3454 0.960 . S
H3469 C3455 0.961 . S
H3470 C3455 0.961 . S
H3471 C3455 0.961 . S
H3472 C3456 0.931 . S
H3473 C3461 0.930 . S
H3474 C3462 0.956 . S
H3475 C3462 0.961 . S
H3476 C3462 0.961 . S
H3477 C3463 0.958 . S
H3478 C3463 0.961 . S
H3479 C3463 0.960 . S
C3480 C3481 1.391 . S
C3480 C3482 1.394 . S
C3480 H3496 0.931 . S
C3481 C3480 1.391 . S
C3481 C3485 1.376 . S
C3482 C3480 1.394 . S
C3482 C3483 1.369 . S
C3482 C3486 1.531 . S
C3483 C3482 1.369 . S
C3483 C3484 1.410 . S
C3483 C3491 1.503 . S
C3484 C3483 1.410 . S
C3484 C3485 1.392 . S
C3484 C3487 1.511 . S
C3485 C3481 1.376 . S
C3485 C3484 1.392 . S
C3485 H3497 0.929 . S
C3486 C3482 1.531 . S
C3486 H3498 0.960 . S
C3486 H3499 0.962 . S
C3486 H3500 0.960 . S
C3487 C3484 1.511 . S
C3487 H3501 0.961 . S
C3487 H3502 0.961 . S
C3487 H3503 0.961 . S
C3488 C3489 1.370 . S
C3488 C3490 1.363 . S
C3488 H3504 0.931 . S
C3489 C3488 1.370 . S
C3489 C3493 1.408 . S
C3490 C3488 1.363 . S
C3490 C3491 1.370 . S
C3490 C3494 1.524 . S
C3491 C3483 1.503 . S
C3491 C3490 1.370 . S
C3491 C3492 1.403 . S
C3492 C3491 1.403 . S
C3492 C3493 1.404 . S
C3492 C3495 1.539 . S
C3493 C3489 1.408 . S
C3493 C3492 1.404 . S
C3493 H3505 0.930 . S
C3494 C3490 1.524 . S
C3494 H3506 0.956 . S
C3494 H3507 0.961 . S
C3494 H3508 0.961 . S
C3495 C3492 1.539 . S
C3495 H3509 0.958 . S
C3495 H3510 0.961 . S
C3495 H3511 0.960 . S
H3496 C3480 0.931 . S
H3497 C3485 0.929 . S
H3498 C3486 0.960 . S
H3499 C3486 0.962 . S
H3500 C3486 0.960 . S
H3501 C3487 0.961 . S
H3502 C3487 0.961 . S
H3503 C3487 0.961 . S
H3504 C3488 0.931 . S
H3505 C3493 0.930 . S
H3506 C3494 0.956 . S
H3507 C3494 0.961 . S
H3508 C3494 0.961 . S
H3509 C3495 0.958 . S
H3510 C3495 0.961 . S
H3511 C3495 0.960 . S
C3512 C3513 1.391 . S
C3512 C3514 1.394 . S
C3512 H3528 0.931 . S
C3513 C3512 1.391 . S
C3513 C3517 1.376 . S
C3514 C3512 1.394 . S
C3514 C3515 1.369 . S
C3514 C3518 1.531 . S
C3515 C3514 1.369 . S
C3515 C3516 1.410 . S
C3515 C3523 1.503 . S
C3516 C3515 1.410 . S
C3516 C3517 1.392 . S
C3516 C3519 1.511 . S
C3517 C3513 1.376 . S
C3517 C3516 1.392 . S
C3517 H3529 0.929 . S
C3518 C3514 1.531 . S
C3518 H3530 0.960 . S
C3518 H3531 0.962 . S
C3518 H3532 0.960 . S
C3519 C3516 1.511 . S
C3519 H3533 0.961 . S
C3519 H3534 0.961 . S
C3519 H3535 0.961 . S
C3520 C3521 1.370 . S
C3520 C3522 1.363 . S
C3520 H3536 0.931 . S
C3521 C3520 1.370 . S
C3521 C3525 1.408 . S
C3522 C3520 1.363 . S
C3522 C3523 1.370 . S
C3522 C3526 1.524 . S
C3523 C3515 1.503 . S
C3523 C3522 1.370 . S
C3523 C3524 1.403 . S
C3524 C3523 1.403 . S
C3524 C3525 1.404 . S
C3524 C3527 1.539 . S
C3525 C3521 1.408 . S
C3525 C3524 1.404 . S
C3525 H3537 0.930 . S
C3526 C3522 1.524 . S
C3526 H3538 0.956 . S
C3526 H3539 0.961 . S
C3526 H3540 0.961 . S
C3527 C3524 1.539 . S
C3527 H3541 0.958 . S
C3527 H3542 0.961 . S
C3527 H3543 0.960 . S
H3528 C3512 0.931 . S
H3529 C3517 0.929 . S
H3530 C3518 0.960 . S
H3531 C3518 0.962 . S
H3532 C3518 0.960 . S
H3533 C3519 0.961 . S
H3534 C3519 0.961 . S
H3535 C3519 0.961 . S
H3536 C3520 0.931 . S
H3537 C3525 0.930 . S
H3538 C3526 0.956 . S
H3539 C3526 0.961 . S
H3540 C3526 0.961 . S
H3541 C3527 0.958 . S
H3542 C3527 0.961 . S
H3543 C3527 0.960 . S
C3544 C3545 1.391 . S
C3544 C3546 1.394 . S
C3544 H3560 0.931 . S
C3545 C3544 1.391 . S
C3545 C3549 1.376 . S
C3546 C3544 1.394 . S
C3546 C3547 1.369 . S
C3546 C3550 1.526 1_554 S
C3547 C3546 1.369 . S
C3547 C3548 1.410 . S
C3547 C3555 1.503 . S
C3548 C3547 1.410 . S
C3548 C3549 1.392 . S
C3548 C3551 1.511 . S
C3549 C3545 1.376 . S
C3549 C3548 1.392 . S
C3549 H3561 0.929 . S
C3550 C3546 1.526 1_556 S
C3550 H3562 0.950 1_556 S
C3550 H3563 0.977 . S
C3550 H3564 0.960 1_556 S
C3551 C3548 1.511 . S
C3551 H3565 0.961 . S
C3551 H3566 0.961 . S
C3551 H3567 0.961 . S
C3552 C3553 1.370 1_556 S
C3552 C3554 1.363 . S
C3552 H3568 0.931 . S
C3553 C3552 1.370 1_554 S
C3553 C3557 1.408 . S
C3554 C3552 1.363 . S
C3554 C3555 1.370 1_556 S
C3554 C3558 1.524 . S
C3555 C3547 1.503 . S
C3555 C3554 1.370 1_554 S
C3555 C3556 1.403 . S
C3556 C3555 1.403 . S
C3556 C3557 1.404 . S
C3556 C3559 1.539 . S
C3557 C3553 1.408 . S
C3557 C3556 1.404 . S
C3557 H3569 0.930 . S
C3558 C3554 1.524 . S
C3558 H3570 0.956 . S
C3558 H3571 0.961 . S
C3558 H3572 0.961 . S
C3559 C3556 1.539 . S
C3559 H3573 0.958 . S
C3559 H3574 0.961 . S
C3559 H3575 0.960 . S
H3560 C3544 0.931 . S
H3561 C3549 0.929 . S
H3562 C3550 0.950 1_554 S
H3563 C3550 0.977 . S
H3564 C3550 0.960 1_554 S
H3565 C3551 0.961 . S
H3566 C3551 0.961 . S
H3567 C3551 0.961 . S
H3568 C3552 0.931 . S
H3569 C3557 0.930 . S
H3570 C3558 0.956 . S
H3571 C3558 0.961 . S
H3572 C3558 0.961 . S
H3573 C3559 0.958 . S
H3574 C3559 0.961 . S
H3575 C3559 0.960 . S
C3576 C3577 1.391 . S
C3576 C3578 1.394 . S
C3576 H3592 0.931 . S
C3577 C3576 1.391 . S
C3577 C3581 1.376 . S
C3578 C3576 1.394 . S
C3578 C3579 1.369 . S
C3578 C3582 1.531 . S
C3579 C3578 1.369 . S
C3579 C3580 1.410 . S
C3579 C3587 1.503 . S
C3580 C3579 1.410 . S
C3580 C3581 1.392 . S
C3580 C3583 1.511 . S
C3581 C3577 1.376 . S
C3581 C3580 1.392 . S
C3581 H3593 0.929 . S
C3582 C3578 1.531 . S
C3582 H3594 0.960 . S
C3582 H3595 0.962 . S
C3582 H3596 0.960 . S
C3583 C3580 1.511 . S
C3583 H3597 0.961 . S
C3583 H3598 0.961 . S
C3583 H3599 0.961 . S
C3584 C3585 1.370 . S
C3584 C3586 1.363 . S
C3584 H3600 0.931 . S
C3585 C3584 1.370 . S
C3585 C3589 1.408 . S
C3586 C3584 1.363 . S
C3586 C3587 1.370 . S
C3586 C3590 1.524 . S
C3587 C3579 1.503 . S
C3587 C3586 1.370 . S
C3587 C3588 1.403 . S
C3588 C3587 1.403 . S
C3588 C3589 1.404 . S
C3588 C3591 1.539 . S
C3589 C3585 1.408 . S
C3589 C3588 1.404 . S
C3589 H3601 0.930 . S
C3590 C3586 1.524 . S
C3590 H3602 0.956 . S
C3590 H3603 0.961 . S
C3590 H3604 0.961 . S
C3591 C3588 1.539 . S
C3591 H3605 0.958 . S
C3591 H3606 0.961 . S
C3591 H3607 0.960 . S
H3592 C3576 0.931 . S
H3593 C3581 0.929 . S
H3594 C3582 0.960 . S
H3595 C3582 0.962 . S
H3596 C3582 0.960 . S
H3597 C3583 0.961 . S
H3598 C3583 0.961 . S
H3599 C3583 0.961 . S
H3600 C3584 0.931 . S
H3601 C3589 0.930 . S
H3602 C3590 0.956 . S
H3603 C3590 0.961 . S
H3604 C3590 0.961 . S
H3605 C3591 0.958 . S
H3606 C3591 0.961 . S
H3607 C3591 0.960 . S
C3608 C3609 1.391 . S
C3608 C3610 1.394 . S
C3608 H3624 0.931 . S
C3609 C3608 1.391 . S
C3609 C3613 1.376 . S
C3610 C3608 1.394 . S
C3610 C3611 1.369 . S
C3610 C3614 1.531 . S
C3611 C3610 1.369 . S
C3611 C3612 1.410 . S
C3611 C3619 1.503 . S
C3612 C3611 1.410 . S
C3612 C3613 1.392 . S
C3612 C3615 1.511 . S
C3613 C3609 1.376 . S
C3613 C3612 1.392 . S
C3613 H3625 0.929 . S
C3614 C3610 1.531 . S
C3614 H3626 0.960 . S
C3614 H3627 0.962 . S
C3614 H3628 0.960 . S
C3615 C3612 1.511 . S
C3615 H3629 0.961 . S
C3615 H3630 0.961 . S
C3615 H3631 0.961 . S
C3616 C3617 1.370 . S
C3616 C3618 1.363 . S
C3616 H3632 0.931 1_554 S
C3617 C3616 1.370 . S
C3617 C3621 1.408 . S
C3618 C3616 1.363 . S
C3618 C3619 1.370 . S
C3618 C3622 1.524 1_554 S
C3619 C3611 1.503 . S
C3619 C3618 1.370 . S
C3619 C3620 1.403 . S
C3620 C3619 1.403 . S
C3620 C3621 1.404 . S
C3620 C3623 1.539 . S
C3621 C3617 1.408 . S
C3621 C3620 1.404 . S
C3621 H3633 0.930 . S
C3622 C3618 1.524 1_556 S
C3622 H3634 0.956 . S
C3622 H3635 0.961 . S
C3622 H3636 0.961 . S
C3623 C3620 1.539 . S
C3623 H3637 0.958 . S
C3623 H3638 0.961 . S
C3623 H3639 0.960 . S
H3624 C3608 0.931 . S
H3625 C3613 0.929 . S
H3626 C3614 0.960 . S
H3627 C3614 0.962 . S
H3628 C3614 0.960 . S
H3629 C3615 0.961 . S
H3630 C3615 0.961 . S
H3631 C3615 0.961 . S
H3632 C3616 0.931 1_556 S
H3633 C3621 0.930 . S
H3634 C3622 0.956 . S
H3635 C3622 0.961 . S
H3636 C3622 0.961 . S
H3637 C3623 0.958 . S
H3638 C3623 0.961 . S
H3639 C3623 0.960 . S
C3640 C3641 1.391 . S
C3640 C3642 1.394 . S
C3640 H3656 0.931 . S
C3641 C3640 1.391 . S
C3641 C3645 1.376 . S
C3642 C3640 1.394 . S
C3642 C3643 1.369 . S
C3642 C3646 1.531 . S
C3643 C3642 1.369 . S
C3643 C3644 1.410 . S
C3643 C3651 1.503 . S
C3644 C3643 1.410 . S
C3644 C3645 1.392 . S
C3644 C3647 1.511 . S
C3645 C3641 1.376 . S
C3645 C3644 1.392 . S
C3645 H3657 0.929 . S
C3646 C3642 1.531 . S
C3646 H3658 0.960 . S
C3646 H3659 0.962 . S
C3646 H3660 0.960 . S
C3647 C3644 1.511 . S
C3647 H3661 0.961 . S
C3647 H3662 0.961 . S
C3647 H3663 0.961 . S
C3648 C3649 1.370 . S
C3648 C3650 1.363 . S
C3648 H3664 0.931 . S
C3649 C3648 1.370 . S
C3649 C3653 1.408 . S
C3650 C3648 1.363 . S
C3650 C3651 1.370 . S
C3650 C3654 1.524 . S
C3651 C3643 1.503 . S
C3651 C3650 1.370 . S
C3651 C3652 1.403 . S
C3652 C3651 1.403 . S
C3652 C3653 1.404 . S
C3652 C3655 1.539 . S
C3653 C3649 1.408 . S
C3653 C3652 1.404 . S
C3653 H3665 0.930 . S
C3654 C3650 1.524 . S
C3654 H3666 0.956 . S
C3654 H3667 0.961 . S
C3654 H3668 0.961 . S
C3655 C3652 1.539 . S
C3655 H3669 0.958 . S
C3655 H3670 0.961 . S
C3655 H3671 0.960 . S
H3656 C3640 0.931 . S
H3657 C3645 0.929 . S
H3658 C3646 0.960 . S
H3659 C3646 0.962 . S
H3660 C3646 0.960 . S
H3661 C3647 0.961 . S
H3662 C3647 0.961 . S
H3663 C3647 0.961 . S
H3664 C3648 0.931 . S
H3665 C3653 0.930 . S
H3666 C3654 0.956 . S
H3667 C3654 0.961 . S
H3668 C3654 0.961 . S
H3669 C3655 0.958 . S
H3670 C3655 0.961 . S
H3671 C3655 0.960 . S
C3672 C3673 1.391 . S
C3672 C3674 1.394 . S
C3672 H3688 0.931 . S
C3673 C3672 1.391 . S
C3673 C3677 1.376 . S
C3674 C3672 1.394 . S
C3674 C3675 1.369 . S
C3674 C3678 1.531 . S
C3675 C3674 1.369 . S
C3675 C3676 1.410 . S
C3675 C3683 1.503 . S
C3676 C3675 1.410 . S
C3676 C3677 1.392 . S
C3676 C3679 1.511 . S
C3677 C3673 1.376 . S
C3677 C3676 1.392 . S
C3677 H3689 0.929 . S
C3678 C3674 1.531 . S
C3678 H3690 0.960 . S
C3678 H3691 0.962 . S
C3678 H3692 0.960 . S
C3679 C3676 1.511 . S
C3679 H3693 0.961 . S
C3679 H3694 0.961 . S
C3679 H3695 0.961 . S
C3680 C3681 1.370 . S
C3680 C3682 1.363 . S
C3680 H3696 0.931 . S
C3681 C3680 1.370 . S
C3681 C3685 1.408 . S
C3682 C3680 1.363 . S
C3682 C3683 1.370 . S
C3682 C3686 1.524 . S
C3683 C3675 1.503 . S
C3683 C3682 1.370 . S
C3683 C3684 1.403 . S
C3684 C3683 1.403 . S
C3684 C3685 1.404 . S
C3684 C3687 1.539 . S
C3685 C3681 1.408 . S
C3685 C3684 1.404 . S
C3685 H3697 0.930 . S
C3686 C3682 1.524 . S
C3686 H3698 0.956 . S
C3686 H3699 0.961 . S
C3686 H3700 0.961 . S
C3687 C3684 1.539 . S
C3687 H3701 0.958 . S
C3687 H3702 0.961 . S
C3687 H3703 0.960 . S
H3688 C3672 0.931 . S
H3689 C3677 0.929 . S
H3690 C3678 0.960 . S
H3691 C3678 0.962 . S
H3692 C3678 0.960 . S
H3693 C3679 0.961 . S
H3694 C3679 0.961 . S
H3695 C3679 0.961 . S
H3696 C3680 0.931 . S
H3697 C3685 0.930 . S
H3698 C3686 0.956 . S
H3699 C3686 0.961 . S
H3700 C3686 0.961 . S
H3701 C3687 0.958 . S
H3702 C3687 0.961 . S
H3703 C3687 0.960 . S
C633 C101 1.407 . S
C641 C316 1.226 . S
C665 C57 1.446 . S
C673 C351 1.425 . S
C697 C70 1.007 . S
C705 C356 0.911 . S
C737 C381 1.346 . S
C729 C82 1.416 . S
C761 C23 1.436 . S
C769 C401 1.314 . S
C801 C416 0.896 . S
C793 C29 1.030 . S
C833 C451 1.408 . S
C825 C49 1.431 . S
C857 C10 1.425 . S
C865 C456 1.232 . S
C897 C331 1.505 . S
C889 C218 1.562 . S
C921 C226 0.984 . S
C929 C341 0.932 . S
C961 C371 1.398 1_565 S
C953 C251 1.434 . S
C993 C376 1.056 . S
C985 C159 1.144 . S
C1017 C211 1.127 . S
C1025 C396 1.053 1_655 S
C1057 C431 1.383 . S
C1049 C225 1.442 . S
C1089 C441 0.898 . S
C1081 C252 1.010 . S
C1121 C471 1.504 . S
C1113 C166 1.560 . S
C1153 C321 1.319 1_565 S
C1145 C147 1.468 . S
C1177 C263 1.672 . S
C1185 C491 1.647 . S
C1217 C501 1.394 . S
C1209 C309 1.539 . S
C1249 C516 0.961 . S
C1241 C291 1.000 . S
C1273 C108 1.476 . S
C1281 C461 1.301 . S
C1305 C121 1.544 . S
C1313 C361 1.393 . S
C1337 C302 1.698 . S
C1345 C551 1.670 . S
C1377 C556 0.913 . S
C1369 C276 1.033 . S
C1409 C314 1.356 . S
C1401 C55 1.519 . S
C1441 C570 1.650 . S
C1433 C96 1.686 . S
C1465 C88 1.248 . S
C1473 C354 1.166 . S
C1497 C75 1.643 . S
C1505 C544 1.566 . S
C1537 C404 1.574 . S
C1529 C4 1.640 . S
C1561 C44 1.248 . S
C1569 C494 1.187 . S
C1601 C450 1.665 . S
C1593 C31 1.689 . S
C1633 C574 1.360 . S
C1625 C18 1.524 . S
C1665 C330 1.677 1_556 S
C1657 C133 1.750 . S
C1697 C564 1.143 . S
C1689 C296 1.227 . S
C1721 C107 1.635 . S
C1729 C370 1.602 . S
C1753 C264 1.401 . S
C1761 C534 1.265 . S
C1785 C140 1.391 . S
C1793 C394 1.304 . S
C1825 C510 1.593 . S
C1817 C289 1.631 . S
C1849 C114 1.222 . S
C1857 C444 1.149 . S
C1881 C265 1.744 . S
C1889 C590 1.692 . S
C1913 C179 1.549 . S
C1921 C324 1.424 . S
C1945 C161 1.924 . S
C1953 C490 1.891 . S
C1977 C244 1.718 . S
C1985 C424 1.613 . S
C2009 C224 1.233 . S
C2017 C514 1.180 . S
C2049 C584 1.420 . S
C2041 C257 1.555 . S
C2073 C199 1.716 . S
C2081 C364 1.602 . S
C2113 C390 1.893 . S
C2105 C237 1.922 . S
C2145 C334 1.143 . S
C2137 C185 1.243 . S
C2169 C69 1.449 . S
C2177 C596 1.199 . S
C2209 C571 1.430 . S
C2201 C83 1.457 . S
C2233 C94 0.999 . S
C2241 C616 0.926 . S
C2265 C56 1.435 . S
C2273 C541 1.309 . S
C2297 C42 1.442 . S
C2305 C481 1.331 . S
C2337 C496 0.959 . S
C2329 C3 0.997 . S
C2369 C531 1.425 . S
C2361 C16 1.446 . S
C2401 C576 1.245 . S
C2393 C36 1.406 . S
C2433 C611 1.474 . S
C2425 C238 1.569 . S
C2457 C174 1.004 . S
C2465 C561 0.912 . S
C2497 C631 1.373 . S
C2489 C186 1.434 . S
C2529 C536 1.025 . S
C2521 C198 1.137 . S
C2561 C476 1.011 . S
C2553 C239 1.154 . S
C2585 C173 1.439 . S
C2593 C511 1.395 . S
C2625 C521 0.929 . S
C2617 C187 0.992 . S
C2649 C205 1.568 . S
C2657 C591 1.474 . S
C2689 C601 1.328 . S
C2681 C290 1.455 . S
C2713 C122 1.672 . S
C2721 C411 1.657 . S
C2753 C421 1.427 . S
C2745 C134 1.517 . S
C2785 C436 0.943 . S
C2777 C148 0.986 . S
C2817 C581 1.281 . S
C2809 C283 1.495 . S
C2841 C270 1.540 . S
C2849 C621 1.395 . S
C2881 C391 1.669 . S
C2873 C135 1.695 . S
C2913 C336 0.895 . S
C2905 C109 1.026 . S
C2937 C81 1.529 . S
C2945 C594 1.347 . S
C2977 C350 1.654 . S
C2969 C68 1.684 . S
C3001 C62 1.244 . S
C3009 C614 1.179 . S
C3033 C95 1.637 . S
C3041 C384 1.560 . S
C3065 C30 1.643 . S
C3073 C484 1.552 . S
C3105 C414 1.179 . S
C3097 C17 1.242 . S
C3129 C5 1.687 . S
C3137 C530 1.649 . S
C3161 C43 1.517 . S
C3169 C454 1.349 . S
C3201 C610 1.690 . S
C3193 C304 1.746 . S
C3225 C153 1.213 . S
C3233 C344 1.180 . S
C3265 C630 1.591 . S
C3257 C278 1.626 . S
C3289 C127 1.398 . S
C3297 C374 1.286 . S
C3321 C303 1.385 . S
C3329 C474 1.285 . S
C3361 C430 1.608 . S
C3353 C146 1.633 . S
C3385 C277 1.206 . S
C3393 C524 1.181 . S
C3425 C470 1.692 . S
C3417 C120 1.739 . S
C3457 C604 1.429 . S
C3449 C231 1.545 . S
C3489 C410 1.890 . S
C3481 C200 1.923 . S
C3513 C212 1.715 . S
C3521 C504 1.607 . S
C3553 C434 1.179 . S
C3545 C172 1.231 . S
C3577 C192 1.549 . S
C3585 C464 1.430 . S
C3609 C160 1.718 . S
C3617 C624 1.609 . S
C3649 C550 1.899 . S
C3641 C213 1.932 . S
C3681 C554 1.156 . S
C3673 C250 1.239 . S
