# Generated by pormake.
# Topology soc, (4,6)-cn, num edge types: 1
# Building blocks:
#     Node 0, Type 0, BuildingBlock: ESEHIV_clean_sbu_0, # of connection points: 4
#     Node 1, Type 0, BuildingBlock: ESEHIV_clean_sbu_0, # of connection points: 4
#     Node 2, Type 0, BuildingBlock: ESEHIV_clean_sbu_0, # of connection points: 4
#     Node 3, Type 0, BuildingBlock: ESEHIV_clean_sbu_0, # of connection points: 4
#     Node 4, Type 0, BuildingBlock: ESEHIV_clean_sbu_0, # of connection points: 4
#     Node 5, Type 0, BuildingBlock: ESEHIV_clean_sbu_0, # of connection points: 4
#     Node 6, Type 0, BuildingBlock: ESEHIV_clean_sbu_0, # of connection points: 4
#     Node 7, Type 0, BuildingBlock: ESEHIV_clean_sbu_0, # of connection points: 4
#     Node 8, Type 0, BuildingBlock: ESEHIV_clean_sbu_0, # of connection points: 4
#     Node 9, Type 0, BuildingBlock: ESEHIV_clean_sbu_0, # of connection points: 4
#     Node 10, Type 0, BuildingBlock: ESEHIV_clean_sbu_0, # of connection points: 4
#     Node 11, Type 0, BuildingBlock: ESEHIV_clean_sbu_0, # of connection points: 4
#     Node 12, Type 1, BuildingBlock: KUMBUR_clean_sbu_0, # of connection points: 6
#     Node 13, Type 1, BuildingBlock: KUMBUR_clean_sbu_0, # of connection points: 6
#     Node 14, Type 1, BuildingBlock: KUMBUR_clean_sbu_0, # of connection points: 6
#     Node 15, Type 1, BuildingBlock: KUMBUR_clean_sbu_0, # of connection points: 6
#     Node 16, Type 1, BuildingBlock: KUMBUR_clean_sbu_0, # of connection points: 6
#     Node 17, Type 1, BuildingBlock: KUMBUR_clean_sbu_0, # of connection points: 6
#     Node 18, Type 1, BuildingBlock: KUMBUR_clean_sbu_0, # of connection points: 6
#     Node 19, Type 1, BuildingBlock: KUMBUR_clean_sbu_0, # of connection points: 6
#     Edge 20, Type (0, 1), BuildingBlock: MIFKUJ_clean_linker_0, # of connection points: 2
#     Edge 21, Type (0, 1), BuildingBlock: MIFKUJ_clean_linker_0, # of connection points: 2
#     Edge 22, Type (0, 1), BuildingBlock: MIFKUJ_clean_linker_0, # of connection points: 2
#     Edge 23, Type (0, 1), BuildingBlock: MIFKUJ_clean_linker_0, # of connection points: 2
#     Edge 24, Type (0, 1), BuildingBlock: MIFKUJ_clean_linker_0, # of connection points: 2
#     Edge 25, Type (0, 1), BuildingBlock: MIFKUJ_clean_linker_0, # of connection points: 2
#     Edge 26, Type (0, 1), BuildingBlock: MIFKUJ_clean_linker_0, # of connection points: 2
#     Edge 27, Type (0, 1), BuildingBlock: MIFKUJ_clean_linker_0, # of connection points: 2
#     Edge 28, Type (0, 1), BuildingBlock: MIFKUJ_clean_linker_0, # of connection points: 2
#     Edge 29, Type (0, 1), BuildingBlock: MIFKUJ_clean_linker_0, # of connection points: 2
#     Edge 30, Type (0, 1), BuildingBlock: MIFKUJ_clean_linker_0, # of connection points: 2
#     Edge 31, Type (0, 1), BuildingBlock: MIFKUJ_clean_linker_0, # of connection points: 2
#     Edge 32, Type (0, 1), BuildingBlock: MIFKUJ_clean_linker_0, # of connection points: 2
#     Edge 33, Type (0, 1), BuildingBlock: MIFKUJ_clean_linker_0, # of connection points: 2
#     Edge 34, Type (0, 1), BuildingBlock: MIFKUJ_clean_linker_0, # of connection points: 2
#     Edge 35, Type (0, 1), BuildingBlock: MIFKUJ_clean_linker_0, # of connection points: 2
#     Edge 36, Type (0, 1), BuildingBlock: MIFKUJ_clean_linker_0, # of connection points: 2
#     Edge 37, Type (0, 1), BuildingBlock: MIFKUJ_clean_linker_0, # of connection points: 2
#     Edge 38, Type (0, 1), BuildingBlock: MIFKUJ_clean_linker_0, # of connection points: 2
#     Edge 39, Type (0, 1), BuildingBlock: MIFKUJ_clean_linker_0, # of connection points: 2
#     Edge 40, Type (0, 1), BuildingBlock: MIFKUJ_clean_linker_0, # of connection points: 2
#     Edge 41, Type (0, 1), BuildingBlock: MIFKUJ_clean_linker_0, # of connection points: 2
#     Edge 42, Type (0, 1), BuildingBlock: MIFKUJ_clean_linker_0, # of connection points: 2
#     Edge 43, Type (0, 1), BuildingBlock: MIFKUJ_clean_linker_0, # of connection points: 2
#     Edge 44, Type (0, 1), BuildingBlock: MIFKUJ_clean_linker_0, # of connection points: 2
#     Edge 45, Type (0, 1), BuildingBlock: MIFKUJ_clean_linker_0, # of connection points: 2
#     Edge 46, Type (0, 1), BuildingBlock: MIFKUJ_clean_linker_0, # of connection points: 2
#     Edge 47, Type (0, 1), BuildingBlock: MIFKUJ_clean_linker_0, # of connection points: 2
#     Edge 48, Type (0, 1), BuildingBlock: MIFKUJ_clean_linker_0, # of connection points: 2
#     Edge 49, Type (0, 1), BuildingBlock: MIFKUJ_clean_linker_0, # of connection points: 2
#     Edge 50, Type (0, 1), BuildingBlock: MIFKUJ_clean_linker_0, # of connection points: 2
#     Edge 51, Type (0, 1), BuildingBlock: MIFKUJ_clean_linker_0, # of connection points: 2
#     Edge 52, Type (0, 1), BuildingBlock: MIFKUJ_clean_linker_0, # of connection points: 2
#     Edge 53, Type (0, 1), BuildingBlock: MIFKUJ_clean_linker_0, # of connection points: 2
#     Edge 54, Type (0, 1), BuildingBlock: MIFKUJ_clean_linker_0, # of connection points: 2
#     Edge 55, Type (0, 1), BuildingBlock: MIFKUJ_clean_linker_0, # of connection points: 2
#     Edge 56, Type (0, 1), BuildingBlock: MIFKUJ_clean_linker_0, # of connection points: 2
#     Edge 57, Type (0, 1), BuildingBlock: MIFKUJ_clean_linker_0, # of connection points: 2
#     Edge 58, Type (0, 1), BuildingBlock: MIFKUJ_clean_linker_0, # of connection points: 2
#     Edge 59, Type (0, 1), BuildingBlock: MIFKUJ_clean_linker_0, # of connection points: 2
#     Edge 60, Type (0, 1), BuildingBlock: MIFKUJ_clean_linker_0, # of connection points: 2
#     Edge 61, Type (0, 1), BuildingBlock: MIFKUJ_clean_linker_0, # of connection points: 2
#     Edge 62, Type (0, 1), BuildingBlock: MIFKUJ_clean_linker_0, # of connection points: 2
#     Edge 63, Type (0, 1), BuildingBlock: MIFKUJ_clean_linker_0, # of connection points: 2
#     Edge 64, Type (0, 1), BuildingBlock: MIFKUJ_clean_linker_0, # of connection points: 2
#     Edge 65, Type (0, 1), BuildingBlock: MIFKUJ_clean_linker_0, # of connection points: 2
#     Edge 66, Type (0, 1), BuildingBlock: MIFKUJ_clean_linker_0, # of connection points: 2
#     Edge 67, Type (0, 1), BuildingBlock: MIFKUJ_clean_linker_0, # of connection points: 2
# Relax obj value: 0.053
# Max RMSD: 0.165
# Mean RMSD: 0.130
data_MOF--net-soc--node1-ESEHIV_clean_sbu_0--node2-KUMBUR_clean_sbu_0--edge1-MIFKUJ_clean_linker_0
_symmetry_space_group_name_H-M    P1
_symmetry_Int_Tables_number       1
_symmetry_cell_setting            triclinic
loop_
_symmetry_equiv_pos_as_xyz
'x, y, z'
_cell_length_a     65.319187
_cell_length_b     62.450976
_cell_length_c     53.877048
_cell_angle_alpha  85.365824
_cell_angle_beta   84.363313
_cell_angle_gamma 76.50289
loop_
_atom_site_label
_atom_site_type_symbol
_atom_site_fract_x
_atom_site_fract_y
_atom_site_fract_z
_atom_type_partial_charge
Cu0 Cu 0.03456 0.0372 0.31284 0.0
N1 N 0.0469 0.05399 0.33188 0.0
N2 N 0.0666 0.07678 0.34115 0.0
C3 C 0.06063 0.06641 0.32292 0.0
C4 C 0.05613 0.07055 0.36239 0.0
C5 C 0.04402 0.05656 0.35662 0.0
O6 O 0.05798 0.01598 0.29542 0.0
C7 C 1.00089 0.07301 0.30619 0.0
O8 O 1.00282 0.0727 0.33025 0.0
H9 H 0.06584 0.06803 0.30331 0.0
H10 H 0.0337 0.04899 0.36956 0.0
N11 N 1.01889 0.01983 0.3328 0.0
N12 N 0.99584 0.99824 0.34178 0.0
C13 C 1.00255 0.01306 0.32517 0.0
C14 C 0.02274 0.00897 0.35506 0.0
C15 C 1.00847 0.99575 0.36072 0.0
C16 C 0.07286 0.00609 0.30897 0.0
O17 O 0.07166 0.01119 0.33231 0.0
H18 H 0.9962 0.01846 0.30733 0.0
H19 H 0.03564 0.00972 0.36583 0.0
O20 O 1.01373 0.05847 0.29327 0.0
H21 H 0.05722 0.07554 0.38089 0.0
H22 H 1.00822 0.9843 0.37688 0.0
Cu23 Cu 0.03898 0.0258 0.76253 0.0
N24 N 0.02874 0.00835 0.74212 0.0
N25 N 1.00975 0.98563 0.73088 0.0
C26 C 1.0115 0.99991 0.74772 0.0
C27 C 0.02656 0.98518 0.71403 0.0
C28 C 0.03826 0.99907 0.72107 0.0
O29 O 1.01415 0.04596 0.77894 0.0
C30 C 0.07794 0.99708 0.77085 0.0
O31 O 0.08187 0.00478 0.74794 0.0
H32 H 1.00103 1.00339 0.76449 0.0
H33 H 0.05312 1.00152 0.71199 0.0
N34 N 0.05392 0.04491 0.74426 0.0
N35 N 0.07494 0.06871 0.73736 0.0
C36 C 0.06444 0.05757 0.75469 0.0
C37 C 0.05764 0.04841 0.7194 0.0
C38 C 0.07079 0.06296 0.71509 0.0
C39 C 1.00171 0.05729 0.76325 0.0
O40 O 1.00635 0.05355 0.73947 0.0
H41 H 0.065 0.05796 0.77467 0.0
H42 H 0.05151 0.04072 0.70539 0.0
O43 O 0.05973 1.0044 0.78227 0.0
H44 H 0.03038 0.97523 0.69794 0.0
H45 H 0.07689 0.0688 0.69704 0.0
Cu46 Cu 0.27457 0.05564 0.07769 0.0
N47 N 0.25188 0.05192 0.06125 0.0
N48 N 0.23367 0.03589 0.0384 0.0
C49 C 0.24913 0.03272 0.05405 0.0
C50 C 0.22648 0.05792 0.03543 0.0
C51 C 0.23769 0.06778 0.0497 0.0
O52 O 0.28786 0.02661 0.09327 0.0
C53 C 0.28665 0.09026 0.04727 0.0
O54 O 0.27181 0.10198 0.06206 0.0
H55 H 0.2594 0.01685 0.05849 0.0
H56 H 0.23652 0.08529 0.05033 0.0
N57 N 0.26447 0.07492 0.10335 0.0
N58 N 0.26321 0.09924 0.13203 0.0
C59 C 0.2758 0.08455 0.11682 0.0
C60 C 0.2441 0.08356 0.11058 0.0
C61 C 0.24327 0.09864 0.12817 0.0
C62 C 0.2753 0.01764 0.10807 0.0
O63 O 0.25554 0.0285 0.11166 0.0
H64 H 0.29286 0.08169 0.11455 0.0
H65 H 0.23076 0.07963 0.10305 0.0
O66 O 0.29169 0.0693 0.05148 0.0
H67 H 0.21475 0.06624 0.0229 0.0
H68 H 0.22909 0.10865 0.13713 0.0
Cu69 Cu 0.05608 0.29 0.07742 0.0
N70 N 0.07024 0.30693 0.05381 0.0
N71 N 0.09301 0.31352 0.02133 0.0
C72 C 0.08216 0.29903 0.03307 0.0
C73 C 0.08731 0.33144 0.03514 0.0
C74 C 0.07342 0.32731 0.05511 0.0
O75 O 0.07704 0.27609 0.10193 0.0
C76 C 0.03066 0.26092 0.06103 0.0
O77 O 0.02578 0.25517 0.08446 0.0
H78 H 0.08346 0.28253 0.02731 0.0
H79 H 0.06687 0.33803 0.07011 0.0
N80 N 0.03304 0.30697 0.09713 0.0
N81 N 1.00292 0.31428 0.12258 0.0
C82 C 1.0129 0.30431 0.10181 0.0
C83 C 0.03552 0.31945 0.11534 0.0
C84 C 1.01717 0.32392 0.13095 0.0
C85 C 0.09711 0.2727 0.09718 0.0
O86 O 0.10481 0.27364 0.07379 0.0
H87 H 1.00611 0.29401 0.09141 0.0
H88 H 0.05029 0.32351 0.11829 0.0
O89 O 0.0445 0.2724 0.05589 0.0
H90 H 0.09351 0.34614 0.03183 0.0
H91 H 1.01485 0.33269 0.14791 0.0
Cu92 Cu 0.8019 0.00728 0.99686 0.0
N93 N 0.81876 0.02376 0.97761 0.0
N94 N 0.82648 0.05394 0.95735 0.0
C95 C 0.81221 0.04559 0.97254 0.0
C96 C 0.84272 0.03654 0.95259 0.0
C97 C 0.83792 0.0179 0.96517 0.0
O98 O 0.78363 0.02845 0.01892 0.0
C99 C 0.8003 0.97676 0.96357 0.0
O100 O 0.82049 0.97233 0.96713 0.0
H101 H 0.79683 0.05499 0.97921 0.0
H102 H 0.84752 1.00129 0.96478 0.0
N103 N 0.81691 0.98517 0.01797 0.0
N104 N 0.82155 0.9608 0.05071 0.0
C105 C 0.80769 0.97652 0.03853 0.0
C106 C 0.83743 0.97459 0.01708 0.0
C107 C 0.84031 0.95933 0.03724 0.0
C108 C 0.79347 0.03414 0.03573 0.0
O109 O 0.81373 0.02536 0.03666 0.0
H110 H 0.79099 0.9815 0.04423 0.0
H111 H 0.84942 0.97761 1.0028 0.0
O112 O 0.788 0.99277 0.97467 0.0
H113 H 0.85696 0.03714 0.94072 0.0
H114 H 0.855 0.94818 0.04174 0.0
Cu115 Cu 0.0255 0.758 0.00953 0.0
N116 N 1.01191 0.74519 0.98724 0.0
N117 N 0.98847 0.74162 0.96084 0.0
C118 C 0.99352 0.7546 0.97714 0.0
C119 C 1.00432 0.72333 0.96075 0.0
C120 C 1.01866 0.72554 0.97705 0.0
O121 O 1.00284 0.77311 0.0348 0.0
C122 C 0.06313 0.75936 0.9782 0.0
O123 O 0.064 0.7381 0.98102 0.0
H124 H 0.98426 0.77087 0.98132 0.0
H125 H 0.03309 0.71372 0.98104 0.0
N126 N 0.04295 0.73738 0.02983 0.0
N127 N 0.06902 0.72627 0.05521 0.0
C128 C 0.05942 0.74239 0.03929 0.0
C129 C 0.0418 0.71734 0.04031 0.0
C130 C 0.05795 0.71042 0.05608 0.0
C131 C 0.98914 0.7622 0.04441 0.0
O132 O 0.98989 0.74288 0.03597 0.0
H133 H 0.06379 0.75806 0.03517 0.0
H134 H 0.02985 0.70865 0.03721 0.0
O135 O 0.04683 0.77256 0.98863 0.0
H136 H 1.00542 0.70925 0.94982 0.0
H137 H 0.06119 0.69505 0.06735 0.0
Cu138 Cu 0.5417 0.52737 0.81712 0.0
N139 N 0.55249 0.54363 0.83817 0.0
N140 N 0.57058 0.5668 0.85027 0.0
C141 C 0.56579 0.55694 0.83086 0.0
C142 C 0.55979 0.55936 0.87055 0.0
C143 C 0.54862 0.54514 0.86302 0.0
O144 O 0.56685 0.50981 0.79824 0.0
C145 C 0.50261 0.55707 0.81311 0.0
O146 O 0.5008 0.54997 0.83666 0.0
H147 H 0.5719 0.55919 0.81166 0.0
H148 H 0.53822 0.53671 0.87479 0.0
N149 N 0.52874 0.50681 0.83583 0.0
N150 N 0.50848 0.48242 0.84485 0.0
C151 C 0.51188 0.49988 0.8299 0.0
C152 C 0.53626 0.4933 0.85523 0.0
C153 C 0.52377 0.47825 0.86087 0.0
C154 C 0.56797 0.49004 0.79252 0.0
O155 O 0.5505 0.48285 0.79408 0.0
H156 H 0.50307 0.50668 0.81396 0.0
H157 H 0.55038 0.49375 0.86391 0.0
O158 O 0.51962 0.54912 0.79968 0.0
H159 H 0.5596 0.56419 0.88943 0.0
H160 H 0.52607 0.46498 0.87526 0.0
Cu161 Cu 0.53983 0.54133 0.2693 0.0
N162 N 0.52759 0.52362 0.25145 0.0
N163 N 0.50822 0.50031 0.24291 0.0
C164 C 0.51321 0.512 0.26057 0.0
C165 C 0.51994 0.50481 0.22191 0.0
C166 C 0.53183 0.51917 0.22722 0.0
O167 O 0.51719 0.56169 0.28863 0.0
C168 C 0.57797 0.51118 0.27169 0.0
O169 O 0.57677 0.51589 0.24759 0.0
H170 H 0.50678 0.5119 0.27987 0.0
H171 H 0.5429 0.52581 0.21436 0.0
N172 N 0.55276 0.56017 0.24776 0.0
N173 N 0.57429 0.58268 0.23513 0.0
C174 C 0.57008 0.56695 0.25225 0.0
C175 C 0.54567 0.57207 0.22711 0.0
C176 C 0.55894 0.58601 0.21926 0.0
C177 C 0.50044 0.57015 0.27752 0.0
O178 O 0.49876 0.56348 0.25548 0.0
H179 H 0.57886 0.56117 0.26845 0.0
H180 H 0.53147 0.5712 0.21884 0.0
O181 O 0.5627 0.5208 0.28661 0.0
H182 H 0.51976 0.4984 0.20388 0.0
H183 H 0.55726 0.59786 0.20337 0.0
Cu184 Cu 0.80366 0.55533 0.57854 0.0
N185 N 0.82167 0.57159 0.56109 0.0
N186 N 0.83349 0.59417 0.53189 0.0
C187 C 0.82144 0.57929 0.537 0.0
C188 C 0.84142 0.59617 0.55351 0.0
C189 C 0.8342 0.5821 0.57149 0.0
O190 O 0.78681 0.57529 0.60304 0.0
C191 C 0.79927 0.53319 0.53829 0.0
O192 O 0.81991 0.52995 0.53803 0.0
H193 H 0.81139 0.57544 0.52399 0.0
H194 H 0.83673 0.5807 0.59115 0.0
N195 N 0.81919 0.52994 0.59458 0.0
N196 N 0.82649 0.497 0.61533 0.0
C197 C 0.81154 0.51263 0.60451 0.0
C198 C 0.83975 0.52503 0.59897 0.0
C199 C 0.84427 0.50475 0.61194 0.0
C200 C 0.7936 0.5753 0.62447 0.0
O201 O 0.81001 0.55991 0.63067 0.0
H202 H 0.7952 0.51177 0.60425 0.0
H203 H 0.8506 0.53555 0.59336 0.0
O204 O 0.78779 0.54495 0.55498 0.0
H205 H 0.85091 0.60773 0.55631 0.0
H206 H 0.85947 0.49629 0.61822 0.0
Cu207 Cu 0.55596 0.78452 0.56015 0.0
N208 N 0.57875 0.76874 0.53803 0.0
N209 N 0.60604 0.76264 0.50771 0.0
C210 C 0.5913 0.77792 0.52055 0.0
C211 C 0.60257 0.74311 0.51778 0.0
C212 C 0.58603 0.74687 0.53622 0.0
O213 O 0.56989 0.79885 0.58284 0.0
C214 C 0.53076 0.79188 0.52247 0.0
O215 O 0.53831 0.77044 0.52411 0.0
H216 H 0.58947 0.79555 0.51719 0.0
H217 H 0.57994 0.73438 0.5477 0.0
N218 N 0.53725 0.76877 0.58024 0.0
N219 N 0.50769 0.76333 0.60379 0.0
C220 C 0.52034 0.77762 0.59625 0.0
C221 C 0.53508 0.74812 0.57786 0.0
C222 C 0.51714 0.74478 0.59213 0.0
C223 C 0.58579 0.78611 0.59252 0.0
O224 O 0.59068 0.76521 0.5875 0.0
H225 H 0.5167 0.79465 0.60112 0.0
H226 H 0.54515 0.73657 0.56551 0.0
O227 O 0.53695 0.80354 0.53737 0.0
H228 H 0.6116 0.72704 0.51258 0.0
H229 H 0.51124 0.72988 0.59335 0.0
Cu230 Cu 0.28491 0.51341 0.50497 0.0
N231 N 0.29932 0.53238 0.48477 0.0
N232 N 0.30396 0.5635 0.46299 0.0
C233 C 0.28992 0.5526 0.47519 0.0
C234 C 0.32299 0.54951 0.46514 0.0
C235 C 0.3201 0.53048 0.47857 0.0
O236 O 0.26769 0.53251 0.52949 0.0
C237 C 0.27042 0.49985 0.46143 0.0
O238 O 0.28005 0.51402 0.44877 0.0
H239 H 0.27306 0.55933 0.47767 0.0
H240 H 0.3324 0.51646 0.48371 0.0
N241 N 0.30186 0.48998 0.52328 0.0
N242 N 0.30925 0.46236 0.55293 0.0
C243 C 0.29456 0.47969 0.54414 0.0
C244 C 0.32187 0.47868 0.51841 0.0
C245 C 0.3265 0.46181 0.53666 0.0
C246 C 0.27867 0.53803 0.54513 0.0
O247 O 0.29915 0.52975 0.54359 0.0
H248 H 0.27847 0.48463 0.55218 0.0
H249 H 0.33223 0.48197 0.5024 0.0
O250 O 0.26924 0.49884 0.48523 0.0
H251 H 0.33801 0.55268 0.45745 0.0
H252 H 0.34146 0.44998 0.53752 0.0
Cu253 Cu 0.51654 0.27778 0.51336 0.0
N254 N 0.53927 0.26117 0.49321 0.0
N255 N 0.56963 0.25305 0.46834 0.0
C256 C 0.55678 0.26794 0.48331 0.0
C257 C 0.55971 0.23624 0.46902 0.0
C258 C 0.54111 0.24128 0.48423 0.0
O259 O 0.5302 0.29608 0.53173 0.0
C260 C 0.48123 0.28083 0.48575 0.0
O261 O 0.48328 0.26065 0.49577 0.0
H262 H 0.5597 0.28382 0.4865 0.0
H263 H 0.52958 0.23127 0.48816 0.0
N264 N 0.5038 0.26098 0.5388 0.0
N265 N 0.48303 0.25347 0.57275 0.0
C266 C 0.48685 0.26889 0.55483 0.0
C267 C 0.51071 0.23975 0.54678 0.0
C268 C 0.49807 0.23514 0.56771 0.0
C269 C 0.54328 0.2844 0.54648 0.0
O270 O 0.54601 0.26286 0.54735 0.0
H271 H 0.47803 0.28589 0.55398 0.0
H272 H 0.52447 0.22861 0.53852 0.0
O273 O 0.4941 0.29225 0.4909 0.0
H274 H 0.56542 0.22128 0.4592 0.0
H275 H 0.49996 0.21956 0.57858 0.0
Tb276 Tb 0.27051 0.27857 0.31842 0.0
C277 C 0.29837 0.30566 0.21081 0.0
C278 C 0.33025 0.2784 0.19985 0.0
C279 C 0.3091 0.29866 0.16718 0.0
C280 C 0.3157 0.28993 0.21797 0.0
C281 C 0.29488 0.31033 0.18533 0.0
C282 C 0.32691 0.28296 0.17444 0.0
C283 C 0.26524 0.33975 0.19742 0.0
N284 N 0.28569 0.31741 0.22879 0.0
C285 C 0.26971 0.3349 0.22238 0.0
C286 C 0.2778 0.32731 0.17881 0.0
Tb287 Tb 0.29494 0.30898 0.26895 0.0
N288 N 0.31891 0.28681 0.24262 0.0
C289 C 0.33677 0.27261 0.25033 0.0
C290 C 0.34809 0.26323 0.20776 0.0
C291 C 0.35136 0.26033 0.23313 0.0
H292 H 0.26009 0.34479 0.23663 0.0
H293 H 0.36527 0.24886 0.23943 0.0
H294 H 0.33834 0.27493 0.16025 0.0
H295 H 0.25228 0.35325 0.19254 0.0
H296 H 0.33981 0.27039 0.26978 0.0
H297 H 0.20206 0.33963 0.35125 0.0
H298 H 0.35963 0.254 0.19444 0.0
H299 H 0.30512 0.24094 0.34937 0.0
H300 H 0.22536 0.31679 0.32006 0.0
H301 H 0.31463 0.23232 0.39279 0.0
H302 H 0.30686 0.30215 0.14748 0.0
H303 H 0.21052 0.33568 0.39539 0.0
H304 H 0.23418 0.31595 0.42827 0.0
H305 H 0.27455 0.33136 0.15944 0.0
H306 H 0.2649 0.28679 0.4396 0.0
N307 N 0.24734 0.30025 0.34597 0.0
C308 C 0.22933 0.31476 0.3392 0.0
C309 C 0.22085 0.32555 0.38175 0.0
C310 C 0.23871 0.3099 0.38882 0.0
C311 C 0.21602 0.32781 0.35686 0.0
C312 C 0.25167 0.29725 0.37029 0.0
H313 H 0.29497 0.25539 0.42651 0.0
N314 N 0.28053 0.26899 0.35818 0.0
C315 C 0.30184 0.2462 0.38849 0.0
C316 C 0.26892 0.28107 0.37663 0.0
C317 C 0.29635 0.2511 0.36389 0.0
C318 C 0.29069 0.25925 0.40746 0.0
C319 C 0.27378 0.27675 0.40172 0.0
O320 O 0.26897 0.24517 0.32187 0.0
O321 O 0.28778 0.27803 0.28227 0.0
O322 O 0.26858 0.29971 0.25346 0.0
O323 O 0.24788 0.29328 0.28986 0.0
O324 O 0.29621 0.25122 0.30567 0.0
O325 O 0.2407 0.27084 0.31923 0.0
O326 O 0.2961 0.34247 0.26366 0.0
O327 O 0.27756 0.30962 0.30495 0.0
O328 O 0.29681 0.2877 0.33421 0.0
O329 O 0.31734 0.2952 0.29805 0.0
O330 O 0.26918 0.33635 0.28125 0.0
O331 O 0.32435 0.31737 0.26919 0.0
C332 C 0.29979 0.25908 0.28329 0.0
C333 C 0.23731 0.23758 0.34178 0.0
C334 C 0.21163 0.21474 0.35342 0.0
C335 C 0.2221 0.22682 0.33515 0.0
C336 C 0.21677 0.21359 0.37835 0.0
C337 C 0.24196 0.23625 0.36679 0.0
C338 C 0.23174 0.22433 0.38492 0.0
C339 C 0.2506 0.29641 0.2651 0.0
C340 C 0.24843 0.2497 0.32236 0.0
C341 C 0.26134 0.28971 0.42022 0.0
C342 C 0.24384 0.30629 0.41378 0.0
C343 C 0.26553 0.32858 0.30364 0.0
C344 C 0.32837 0.34942 0.24458 0.0
C345 C 0.34398 0.3598 0.25088 0.0
C346 C 0.35567 0.37007 0.23208 0.0
C347 C 0.35142 0.36988 0.20701 0.0
C348 C 0.3243 0.34977 0.21945 0.0
C349 C 0.33581 0.35986 0.20082 0.0
C350 C 0.31465 0.29151 0.32274 0.0
C351 C 0.31655 0.3383 0.26433 0.0
H352 H 0.21837 0.22802 0.31585 0.0
H353 H 0.20946 0.20408 0.39281 0.0
H354 H 0.25361 0.24418 0.37235 0.0
H355 H 0.23557 0.22326 0.40415 0.0
H356 H 0.34717 0.35966 0.27027 0.0
H357 H 0.35995 0.37785 0.19219 0.0
H358 H 0.31218 0.34243 0.21413 0.0
H359 H 0.33253 0.36001 0.18148 0.0
Tb360 Tb 0.79534 0.29646 0.31497 0.0
C361 C 0.72358 0.28372 0.25959 0.0
C362 C 0.71207 0.2522 0.28045 0.0
C363 C 0.68719 0.28089 0.25859 0.0
C364 C 0.72795 0.26399 0.27387 0.0
C365 C 0.70321 0.29231 0.25159 0.0
C366 C 0.69162 0.26086 0.27294 0.0
C367 C 0.71632 0.32218 0.22916 0.0
N368 N 0.73948 0.29428 0.25313 0.0
C369 C 0.73635 0.31291 0.23729 0.0
C370 C 0.69965 0.31192 0.23647 0.0
Tb371 Tb 0.77169 0.27662 0.26658 0.0
N372 N 0.74785 0.25616 0.28095 0.0
C373 C 0.75314 0.23619 0.29391 0.0
C374 C 0.71732 0.2319 0.29402 0.0
C375 C 0.73794 0.22386 0.30078 0.0
H376 H 0.74924 0.32078 0.23139 0.0
H377 H 0.74223 0.2081 0.31109 0.0
H378 H 0.67918 0.25208 0.27793 0.0
H379 H 0.71379 0.33714 0.21713 0.0
H380 H 0.76908 0.22972 0.29903 0.0
H381 H 0.82832 0.36155 0.26661 0.0
H382 H 0.70565 0.22217 0.299 0.0
H383 H 0.81517 0.25567 0.35557 0.0
H384 H 0.80026 0.34188 0.28029 0.0
H385 H 0.84917 0.24033 0.37336 0.0
H386 H 0.6714 0.28725 0.25271 0.0
H387 H 0.86435 0.3472 0.28013 0.0
H388 H 0.88912 0.31875 0.30544 0.0
H389 H 0.68419 0.31907 0.23 0.0
H390 H 0.89485 0.2857 0.33439 0.0
N391 N 0.8202 0.31609 0.30096 0.0
C392 C 0.81586 0.33533 0.2864 0.0
C393 C 0.85207 0.33845 0.28624 0.0
C394 C 0.85619 0.3193 0.30204 0.0
C395 C 0.83175 0.34659 0.27857 0.0
C396 C 0.83967 0.3085 0.30931 0.0
H397 H 0.88005 0.25634 0.35992 0.0
N398 N 0.82648 0.28027 0.332 0.0
C399 C 0.84775 0.25411 0.35966 0.0
C400 C 0.84295 0.28993 0.32537 0.0
C401 C 0.82842 0.26295 0.3496 0.0
C402 C 0.86509 0.26326 0.35209 0.0
C403 C 0.86277 0.28156 0.33494 0.0
O404 O 0.78705 0.29969 0.35345 0.0
O405 O 0.76989 0.28252 0.30569 0.0
O406 O 0.7493 0.30517 0.28223 0.0
O407 O 0.77231 0.32355 0.29658 0.0
O408 O 0.78101 0.27278 0.33926 0.0
O409 O 0.78613 0.32845 0.32828 0.0
O410 O 0.7781 0.27602 0.2276 0.0
O411 O 0.79766 0.28956 0.27597 0.0
O412 O 0.81793 0.26697 0.30219 0.0
O413 O 0.79682 0.24936 0.28216 0.0
O414 O 0.7862 0.30037 0.24267 0.0
O415 O 0.77751 0.24595 0.24993 0.0
C416 C 0.76689 0.27066 0.32524 0.0
C417 C 0.79555 0.33077 0.36906 0.0
C418 C 0.79763 0.36165 0.3932 0.0
C419 C 0.78676 0.35211 0.37731 0.0
C420 C 0.81721 0.3496 0.40081 0.0
C421 C 0.81494 0.31897 0.37746 0.0
C422 C 0.82571 0.32838 0.39308 0.0
C423 C 0.75341 0.32327 0.28976 0.0
C424 C 0.78462 0.32109 0.35155 0.0
C425 C 0.87945 0.29194 0.32739 0.0
C426 C 0.87618 0.31077 0.31093 0.0
C427 C 0.80095 0.3013 0.25643 0.0
C428 C 0.76502 0.249 0.20936 0.0
C429 C 0.77098 0.22865 0.19782 0.0
C430 C 0.75829 0.22364 0.18019 0.0
C431 C 0.73916 0.23863 0.17549 0.0
C432 C 0.74645 0.264 0.20284 0.0
C433 C 0.73341 0.25867 0.1866 0.0
C434 C 0.81477 0.24944 0.2921 0.0
C435 C 0.77839 0.25506 0.22731 0.0
H436 H 0.77173 0.36135 0.37114 0.0
H437 H 0.8258 0.35651 0.41314 0.0
H438 H 0.8218 0.30241 0.37215 0.0
H439 H 0.84068 0.31914 0.39931 0.0
H440 H 0.78565 0.2172 0.20189 0.0
H441 H 0.72868 0.23501 0.16283 0.0
H442 H 0.74201 0.28011 0.20982 0.0
H443 H 0.71896 0.27034 0.18225 0.0
Tb444 Tb 0.79098 0.75653 0.26414 0.0
C445 C 0.80841 0.798 0.35481 0.0
C446 C 0.77368 0.81864 0.36928 0.0
C447 C 0.80018 0.80498 0.39886 0.0
C448 C 0.78809 0.80905 0.34976 0.0
C449 C 0.81487 0.79661 0.37923 0.0
C450 C 0.77959 0.81588 0.39391 0.0
C451 C 0.85056 0.7812 0.36271 0.0
N452 N 0.8224 0.79045 0.33539 0.0
C453 C 0.84349 0.78299 0.33883 0.0
C454 C 0.83617 0.78789 0.38301 0.0
Tb455 Tb 0.80907 0.79471 0.29709 0.0
N456 N 0.78303 0.81195 0.32558 0.0
C457 C 0.76437 0.82595 0.31973 0.0
C458 C 0.75411 0.83164 0.36339 0.0
C459 C 0.74957 0.83555 0.3385 0.0
H460 H 0.85481 0.7781 0.32316 0.0
H461 H 0.73471 0.84614 0.33364 0.0
H462 H 0.76861 0.82292 0.40912 0.0
H463 H 0.86715 0.77493 0.36539 0.0
H464 H 0.76021 0.82971 0.30081 0.0
H465 H 0.86565 0.70205 0.2362 0.0
H466 H 0.74279 0.83949 0.37784 0.0
H467 H 0.74958 0.77982 0.23241 0.0
H468 H 0.83787 0.72108 0.26621 0.0
H469 H 0.74108 0.78489 0.18826 0.0
H470 H 0.80478 0.80381 0.41779 0.0
H471 H 0.86133 0.70754 0.19087 0.0
H472 H 0.83853 0.7246 0.15622 0.0
H473 H 0.84179 0.78713 0.40136 0.0
H474 H 0.80466 0.74714 0.14316 0.0
N475 N 0.81797 0.7378 0.23824 0.0
C476 C 0.83562 0.72365 0.24654 0.0
C477 C 0.84901 0.71596 0.20398 0.0
C478 C 0.83044 0.72954 0.19566 0.0
C479 C 0.85149 0.7128 0.22955 0.0
C480 C 0.81495 0.7402 0.2135 0.0
H481 H 0.76815 0.76952 0.15499 0.0
N482 N 0.78129 0.76227 0.22401 0.0
C483 C 0.75661 0.77594 0.19302 0.0
C484 C 0.79596 0.75285 0.20613 0.0
C485 C 0.76144 0.77298 0.21797 0.0
C486 C 0.77195 0.76725 0.17429 0.0
C487 C 0.79182 0.75527 0.18076 0.0
O488 O 0.76373 0.74397 0.26331 0.0
O489 O 0.78543 0.77488 0.29801 0.0
O490 O 0.81839 0.76315 0.3183 0.0
O491 O 0.80856 0.73798 0.29465 0.0
O492 O 0.75982 0.77422 0.27982 0.0
O493 O 0.79357 0.72265 0.27222 0.0
O494 O 0.81654 0.81863 0.2701 0.0
O495 O 0.81534 0.77483 0.26498 0.0
O496 O 0.78959 0.78701 0.24114 0.0
O497 O 0.7846 0.81151 0.27222 0.0
O498 O 0.8407 0.77684 0.28243 0.0
O499 O 0.82244 0.82002 0.30798 0.0
C500 C 0.76537 0.78057 0.29976 0.0
C501 C 0.77116 0.70737 0.25028 0.0
C502 C 0.74928 0.68418 0.23712 0.0
C503 C 0.75186 0.70075 0.252 0.0
C504 C 0.76595 0.67478 0.22 0.0
C505 C 0.78766 0.69757 0.23314 0.0
C506 C 0.78495 0.68156 0.21795 0.0
C507 C 0.81712 0.74302 0.314 0.0
C508 C 0.77419 0.72366 0.26722 0.0
C509 C 0.80746 0.74533 0.16279 0.0
C510 C 0.82674 0.73249 0.17023 0.0
C511 C 0.83537 0.76909 0.2632 0.0
C512 C 0.84678 0.83128 0.27717 0.0
C513 C 0.85483 0.84691 0.28832 0.0
C514 C 0.87466 0.85111 0.27948 0.0
C515 C 0.88671 0.83873 0.26022 0.0
C516 C 0.85892 0.81971 0.25742 0.0
C517 C 0.87889 0.8231 0.2494 0.0
C518 C 0.78374 0.80727 0.2487 0.0
C519 C 0.82538 0.82795 0.28534 0.0
H520 H 0.73915 0.70795 0.26544 0.0
H521 H 0.76427 0.66214 0.20821 0.0
H522 H 0.8028 0.70191 0.23169 0.0
H523 H 0.79776 0.67414 0.2048 0.0
H524 H 0.84531 0.85639 0.30306 0.0
H525 H 0.9022 0.84123 0.25343 0.0
H526 H 0.85291 0.80824 0.2479 0.0
H527 H 0.88825 0.81374 0.23453 0.0
Tb528 Tb 0.28343 0.78084 0.26327 0.0
C529 C 0.29077 0.85293 0.3299 0.0
C530 C 0.32017 0.86746 0.31053 0.0
C531 C 0.29343 0.88984 0.33817 0.0
C532 C 0.30921 0.85036 0.31432 0.0
C533 C 0.2827 0.87267 0.34209 0.0
C534 C 0.31208 0.88728 0.32235 0.0
C535 C 0.25492 0.85637 0.36261 0.0
N536 N 0.28117 0.83574 0.33381 0.0
C537 C 0.26374 0.83697 0.35048 0.0
C538 C 0.2644 0.87433 0.35835 0.0
Tb539 Tb 0.29845 0.80408 0.31527 0.0
N540 N 0.31698 0.83068 0.30398 0.0
C541 C 0.33626 0.82667 0.29064 0.0
C542 C 0.33935 0.86383 0.29574 0.0
C543 C 0.34754 0.84325 0.28599 0.0
H544 H 0.25647 0.82307 0.35422 0.0
H545 H 0.36261 0.84009 0.27503 0.0
H546 H 0.32029 0.9006 0.31968 0.0
H547 H 0.24095 0.85737 0.37545 0.0
H548 H 0.343 0.81068 0.28343 0.0
H549 H 0.2196 0.74405 0.30275 0.0
H550 H 0.34823 0.87657 0.29232 0.0
H551 H 0.32531 0.76267 0.22361 0.0
H552 H 0.23937 0.77338 0.29579 0.0
H553 H 0.34105 0.72872 0.20207 0.0
H554 H 0.2875 0.90513 0.34739 0.0
H555 H 0.23342 0.70856 0.28318 0.0
H556 H 0.26209 0.68449 0.25659 0.0
H557 H 0.25768 0.88925 0.36801 0.0
H558 H 0.29545 0.67998 0.23008 0.0
N559 N 0.26506 0.75408 0.27401 0.0
C560 C 0.24601 0.75768 0.28786 0.0
C561 C 0.24262 0.72101 0.28088 0.0
C562 C 0.26197 0.71749 0.26643 0.0
C563 C 0.23467 0.74112 0.29176 0.0
C564 C 0.27289 0.73462 0.26316 0.0
H565 H 0.32505 0.69633 0.20966 0.0
N566 N 0.30089 0.74957 0.24409 0.0
C567 C 0.32724 0.72938 0.21508 0.0
C568 C 0.29143 0.73226 0.24775 0.0
C569 C 0.31823 0.74865 0.22733 0.0
C570 C 0.31813 0.71117 0.21938 0.0
C571 C 0.29981 0.71257 0.23557 0.0
O572 O 0.28238 0.79509 0.2267 0.0
O573 O 0.29398 0.80782 0.27611 0.0
O574 O 0.27054 0.82754 0.30213 0.0
O575 O 0.25577 0.80427 0.28129 0.0
O576 O 0.30735 0.79683 0.243 0.0
O577 O 0.25543 0.78438 0.24501 0.0
O578 O 0.29881 0.79323 0.35316 0.0
O579 O 0.2879 0.77688 0.30264 0.0
O580 O 0.31153 0.75756 0.27552 0.0
O581 O 0.32606 0.77988 0.29815 0.0
O582 O 0.27488 0.78799 0.33598 0.0
O583 O 0.32726 0.79842 0.33216 0.0
C584 C 0.3066 0.81197 0.25811 0.0
C585 C 0.26307 0.77898 0.20146 0.0
C586 C 0.24274 0.76503 0.17316 0.0
C587 C 0.24367 0.77548 0.19517 0.0
C588 C 0.26144 0.75751 0.15805 0.0
C589 C 0.28144 0.77158 0.18561 0.0
C590 C 0.28062 0.76071 0.16431 0.0
C591 C 0.25437 0.82317 0.29196 0.0
C592 C 0.26416 0.79093 0.22386 0.0
C593 C 0.28931 0.69522 0.23933 0.0
C594 C 0.27034 0.69775 0.25455 0.0
C595 C 0.27552 0.7728 0.32098 0.0
C596 C 0.32173 0.80864 0.3743 0.0
C597 C 0.3423 0.81056 0.37809 0.0
C598 C 0.34558 0.8237 0.39684 0.0
C599 C 0.32798 0.83498 0.41156 0.0
C600 C 0.30458 0.81973 0.38982 0.0
C601 C 0.3077 0.83296 0.40805 0.0
C602 C 0.3274 0.76135 0.28675 0.0
C603 C 0.31815 0.79515 0.35434 0.0
H604 H 0.22931 0.78141 0.2069 0.0
H605 H 0.26118 0.74919 0.14122 0.0
H606 H 0.29654 0.77434 0.18944 0.0
H607 H 0.29489 0.75499 0.15241 0.0
H608 H 0.35566 0.80191 0.36644 0.0
H609 H 0.32993 0.84489 0.42637 0.0
H610 H 0.28866 0.81815 0.38807 0.0
H611 H 0.29434 0.84146 0.41976 0.0
Tb612 Tb 0.29404 0.78648 0.81064 0.0
C613 C 0.23253 0.73432 0.78298 0.0
C614 C 0.24189 0.70199 0.81081 0.0
C615 C 0.20939 0.70869 0.79023 0.0
C616 C 0.2469 0.72087 0.79768 0.0
C617 C 0.21339 0.72864 0.77938 0.0
C618 C 0.22344 0.69555 0.80633 0.0
C619 C 0.20353 0.76286 0.75481 0.0
N620 N 0.23717 0.75325 0.77255 0.0
C621 C 0.22288 0.76752 0.75849 0.0
C622 C 0.19889 0.74315 0.76497 0.0
Tb623 Tb 0.27161 0.75619 0.77251 0.0
N624 N 0.26483 0.72744 0.80085 0.0
C625 C 0.27612 0.71787 0.82079 0.0
C626 C 0.25505 0.6907 0.82878 0.0
C627 C 0.27182 0.69917 0.8344 0.0
H628 H 0.22664 0.78217 0.74897 0.0
H629 H 0.2813 0.69152 0.8495 0.0
H630 H 0.21964 0.68077 0.81567 0.0
H631 H 0.19248 0.77418 0.74348 0.0
H632 H 0.28823 0.72469 0.82708 0.0
H633 H 0.33278 0.84159 0.75166 0.0
H634 H 0.25169 0.67625 0.8394 0.0
H635 H 0.3097 0.75347 0.86016 0.0
H636 H 0.3031 0.82503 0.76792 0.0
H637 H 0.34242 0.73984 0.88144 0.0
H638 H 0.19523 0.70359 0.78682 0.0
H639 H 0.36797 0.8275 0.76759 0.0
H640 H 0.39017 0.80279 0.79861 0.0
H641 H 0.18411 0.73932 0.76157 0.0
H642 H 0.39276 0.77519 0.8342 0.0
N643 N 0.32127 0.80118 0.79244 0.0
C644 C 0.31834 0.81856 0.77503 0.0
C645 C 0.35501 0.82001 0.77469 0.0
C646 C 0.35765 0.80302 0.79345 0.0
C647 C 0.33515 0.82809 0.76576 0.0
C648 C 0.34027 0.79384 0.80202 0.0
H649 H 0.37505 0.75164 0.86515 0.0
N650 N 0.32395 0.77173 0.83102 0.0
C651 C 0.34242 0.75072 0.86475 0.0
C652 C 0.34163 0.77873 0.82225 0.0
C653 C 0.32389 0.75852 0.85263 0.0
C654 C 0.36084 0.75732 0.85545 0.0
C655 C 0.3605 0.77182 0.83423 0.0
O656 O 0.28528 0.79797 0.84686 0.0
O657 O 0.26669 0.77312 0.80619 0.0
O658 O 0.25036 0.78919 0.77786 0.0
O659 O 0.27332 0.81024 0.78588 0.0
O660 O 0.27658 0.76965 0.84068 0.0
O661 O 0.28646 0.82066 0.81509 0.0
O662 O 0.26573 0.77096 0.73662 0.0
O663 O 0.29357 0.77788 0.77244 0.0
O664 O 0.31653 0.75392 0.80584 0.0
O665 O 0.30017 0.73199 0.78427 0.0
O666 O 0.30233 0.75123 0.75077 0.0
O667 O 0.26759 0.73608 0.74472 0.0
C668 C 0.26198 0.76629 0.82822 0.0
C669 C 0.2929 0.83221 0.85352 0.0
C670 C 0.28875 0.86208 0.88134 0.0
C671 C 0.27991 0.84782 0.86904 0.0
C672 C 0.31063 0.86044 0.87832 0.0
C673 C 0.31476 0.83068 0.85095 0.0
C674 C 0.32357 0.84467 0.86333 0.0
C675 C 0.25465 0.80877 0.77947 0.0
C676 C 0.28326 0.81856 0.83921 0.0
C677 C 0.37813 0.78023 0.82519 0.0
C678 C 0.37668 0.79587 0.80488 0.0
C679 C 0.30812 0.76848 0.75628 0.0
C680 C 0.27738 0.74713 0.70312 0.0
C681 C 0.27179 0.73169 0.68906 0.0
C682 C 0.28276 0.72594 0.66591 0.0
C683 C 0.29944 0.73589 0.65687 0.0
C684 C 0.29382 0.75726 0.69356 0.0
C685 C 0.30481 0.75157 0.67058 0.0
C686 C 0.31607 0.73486 0.7966 0.0
C687 C 0.26564 0.75222 0.72753 0.0
H688 H 0.26297 0.84924 0.87107 0.0
H689 H 0.31768 0.87132 0.88768 0.0
H690 H 0.32502 0.81893 0.83921 0.0
H691 H 0.34046 0.84342 0.86111 0.0
H692 H 0.25913 0.72382 0.69642 0.0
H693 H 0.30817 0.73171 0.63909 0.0
H694 H 0.29822 0.7695 0.70377 0.0
H695 H 0.31756 0.75931 0.66338 0.0
Tb696 Tb 0.27971 0.25815 0.77961 0.0
C697 C 0.29498 0.29529 0.87566 0.0
C698 C 0.26323 0.32315 0.88536 0.0
C699 C 0.28496 0.30524 0.91858 0.0
C700 C 0.27717 0.31 0.86796 0.0
C701 C 0.2992 0.2928 0.90102 0.0
C702 C 0.26695 0.32031 0.91078 0.0
C703 C 0.33225 0.26758 0.88937 0.0
N704 N 0.30881 0.28432 0.85799 0.0
C705 C 0.3276 0.27102 0.86437 0.0
C706 C 0.31793 0.27844 0.90781 0.0
Tb707 Tb 0.30031 0.29202 0.81751 0.0
N708 N 0.27474 0.31306 0.84309 0.0
C709 C 0.25952 0.33015 0.83426 0.0
C710 C 0.24679 0.33973 0.8765 0.0
C711 C 0.24522 0.34356 0.85081 0.0
H712 H 0.33882 0.2627 0.85019 0.0
H713 H 0.23295 0.35678 0.8437 0.0
H714 H 0.25636 0.33018 0.92444 0.0
H715 H 0.34693 0.25671 0.89438 0.0
H716 H 0.2581 0.33338 0.81447 0.0
H717 H 0.34903 0.19766 0.74871 0.0
H718 H 0.23577 0.35021 0.88924 0.0
H719 H 0.23816 0.28372 0.74939 0.0
H720 H 0.32355 0.21866 0.77963 0.0
H721 H 0.22867 0.2905 0.70576 0.0
H722 H 0.28791 0.30358 0.93816 0.0
H723 H 0.34431 0.2053 0.70355 0.0
H724 H 0.32347 0.22721 0.66958 0.0
H725 H 0.3217 0.27598 0.92713 0.0
H726 H 0.29059 0.25276 0.6578 0.0
N727 N 0.30529 0.23906 0.75235 0.0
C728 C 0.32157 0.22256 0.76001 0.0
C729 C 0.3336 0.21515 0.71705 0.0
C730 C 0.31653 0.2315 0.7093 0.0
C731 C 0.3361 0.2106 0.74251 0.0
C732 C 0.3023 0.24307 0.72766 0.0
H733 H 0.25484 0.27601 0.67124 0.0
N734 N 0.26958 0.2659 0.7397 0.0
C735 C 0.24426 0.28113 0.7098 0.0
C736 C 0.28369 0.25693 0.72108 0.0
C737 C 0.2497 0.27723 0.73452 0.0
C738 C 0.2591 0.27301 0.69035 0.0
C739 C 0.27897 0.26035 0.6959 0.0
O740 O 0.25126 0.24734 0.78053 0.0
O741 O 0.27423 0.27779 0.81176 0.0
O742 O 0.29541 0.26308 0.84097 0.0
O743 O 0.29682 0.23816 0.8106 0.0
O744 O 0.24896 0.2788 0.79303 0.0
O745 O 0.28049 0.22444 0.78755 0.0
O746 O 0.32913 0.30151 0.81952 0.0
O747 O 0.30585 0.27269 0.78507 0.0
O748 O 0.28209 0.28799 0.75607 0.0
O749 O 0.285 0.31228 0.78575 0.0
O750 O 0.33089 0.2707 0.80494 0.0
O751 O 0.30139 0.32498 0.80805 0.0
C752 C 0.25465 0.28607 0.81227 0.0
C753 C 0.25602 0.21131 0.7666 0.0
C754 C 0.23418 0.18716 0.75503 0.0
C755 C 0.23831 0.20182 0.77166 0.0
C756 C 0.24748 0.18312 0.73289 0.0
C757 C 0.26952 0.20578 0.74505 0.0
C758 C 0.26507 0.19219 0.72812 0.0
C759 C 0.29754 0.24269 0.8342 0.0
C760 C 0.26066 0.22662 0.78382 0.0
C761 C 0.29382 0.2502 0.67729 0.0
C762 C 0.31255 0.23569 0.684 0.0
C763 C 0.32545 0.26444 0.78493 0.0
C764 C 0.32499 0.33878 0.82954 0.0
C765 C 0.34351 0.34687 0.82458 0.0
C766 C 0.34654 0.36404 0.83826 0.0
C767 C 0.33132 0.3725 0.85739 0.0
C768 C 0.30992 0.3478 0.84857 0.0
C769 C 0.31319 0.36431 0.86257 0.0
C770 C 0.2826 0.3079 0.76257 0.0
C771 C 0.32083 0.3222 0.81373 0.0
H772 H 0.22819 0.20539 0.78869 0.0
H773 H 0.2444 0.17274 0.71918 0.0
H774 H 0.2837 0.21168 0.74129 0.0
H775 H 0.27546 0.18848 0.71133 0.0
H776 H 0.3551 0.34042 0.80962 0.0
H777 H 0.33342 0.38562 0.86821 0.0
H778 H 0.29533 0.34258 0.85231 0.0
H779 H 0.30142 0.37109 0.87717 0.0
Tb780 Tb 0.77843 0.26734 0.77131 0.0
C781 C 0.80457 0.34648 0.80775 0.0
C782 C 0.83033 0.35492 0.77531 0.0
C783 C 0.80846 0.38423 0.79967 0.0
C784 C 0.82009 0.33964 0.78897 0.0
C785 C 0.79899 0.36872 0.81388 0.0
C786 C 0.82409 0.37734 0.78037 0.0
C787 C 0.77697 0.3581 0.84926 0.0
N788 N 0.79603 0.33094 0.82121 0.0
C789 C 0.78314 0.33621 0.84252 0.0
C790 C 0.78468 0.3745 0.83466 0.0
Tb791 Tb 0.80699 0.29564 0.80858 0.0
N792 N 0.82561 0.31785 0.78467 0.0
C793 C 0.84229 0.31003 0.7679 0.0
C794 C 0.84671 0.34714 0.75725 0.0
C795 C 0.85289 0.32456 0.75378 0.0
H796 H 0.77709 0.32358 0.85379 0.0
H797 H 0.86574 0.31833 0.7401 0.0
H798 H 0.83158 0.38938 0.76986 0.0
H799 H 0.76629 0.36231 0.86571 0.0
H800 H 0.84719 0.29268 0.76477 0.0
H801 H 0.72502 0.24113 0.8444 0.0
H802 H 0.85489 0.35835 0.74622 0.0
H803 H 0.80334 0.24117 0.7222 0.0
H804 H 0.74009 0.26808 0.81715 0.0
H805 H 0.8144 0.20276 0.70927 0.0
H806 H 0.80422 0.40146 0.80387 0.0
H807 H 0.73827 0.20116 0.83903 0.0
H808 H 0.76161 0.17097 0.81405 0.0
H809 H 0.77998 0.39141 0.84001 0.0
H810 H 0.7862 0.1604 0.77706 0.0
N811 N 0.76223 0.24374 0.79669 0.0
C812 C 0.74602 0.25076 0.81437 0.0
C813 C 0.74497 0.21294 0.82695 0.0
C814 C 0.76053 0.20594 0.80772 0.0
C815 C 0.73741 0.23549 0.82997 0.0
C816 C 0.76878 0.22197 0.79266 0.0
H817 H 0.8056 0.17226 0.73739 0.0
N818 N 0.78895 0.23234 0.75752 0.0
C819 C 0.80564 0.20624 0.72716 0.0
C820 C 0.78276 0.21601 0.77229 0.0
C821 C 0.7993 0.22796 0.73449 0.0
C822 C 0.80073 0.18905 0.74314 0.0
C823 C 0.7887 0.19388 0.76579 0.0
O824 O 0.76887 0.27308 0.73449 0.0
O825 O 0.7943 0.29359 0.77355 0.0
O826 O 0.77659 0.3184 0.80164 0.0
O827 O 0.75659 0.29421 0.79177 0.0
O828 O 0.79654 0.28066 0.7397 0.0
O829 O 0.7459 0.27669 0.7659 0.0
O830 O 0.81422 0.2916 0.84632 0.0
O831 O 0.79183 0.26895 0.80605 0.0
O832 O 0.81011 0.24569 0.77347 0.0
O833 O 0.82933 0.26793 0.79008 0.0
O834 O 0.7877 0.28282 0.83939 0.0
O835 O 0.83891 0.28557 0.81667 0.0
C836 C 0.80173 0.29558 0.75124 0.0
C837 C 0.73579 0.2651 0.72905 0.0
C838 C 0.70664 0.26497 0.70331 0.0
C839 C 0.71938 0.27661 0.71424 0.0
C840 C 0.71101 0.24183 0.7069 0.0
C841 C 0.73935 0.24208 0.73238 0.0
C842 C 0.7272 0.23056 0.72126 0.0
C843 C 0.75831 0.31405 0.79742 0.0
C844 C 0.74879 0.27691 0.74164 0.0
C845 C 0.78157 0.17757 0.78149 0.0
C846 C 0.76754 0.18359 0.80251 0.0
C847 C 0.7841 0.26681 0.82819 0.0
C848 C 0.84757 0.29789 0.85401 0.0
C849 C 0.86355 0.28593 0.86915 0.0
C850 C 0.87628 0.29713 0.88073 0.0
C851 C 0.87252 0.32022 0.87728 0.0
C852 C 0.84435 0.32091 0.85117 0.0
C853 C 0.85666 0.33196 0.86272 0.0
C854 C 0.82796 0.24951 0.78013 0.0
C855 C 0.8346 0.28651 0.84076 0.0
H856 H 0.71624 0.29443 0.71178 0.0
H857 H 0.70182 0.23238 0.69853 0.0
H858 H 0.75144 0.23291 0.74373 0.0
H859 H 0.73025 0.21276 0.72395 0.0
H860 H 0.86634 0.26812 0.87147 0.0
H861 H 0.88185 0.32927 0.88607 0.0
H862 H 0.83234 0.33044 0.83996 0.0
H863 H 0.85393 0.34975 0.86031 0.0
Tb864 Tb 0.75937 0.78191 0.81021 0.0
C865 C 0.793 0.79247 0.70124 0.0
C866 C 0.81498 0.75641 0.69341 0.0
C867 C 0.79707 0.77898 0.65958 0.0
C868 C 0.80584 0.77314 0.70985 0.0
C869 C 0.78884 0.79594 0.67589 0.0
C870 C 0.81011 0.75921 0.66835 0.0
C871 C 0.77013 0.83314 0.68443 0.0
N872 N 0.78539 0.80835 0.71763 0.0
C873 C 0.77474 0.82887 0.70942 0.0
C874 C 0.77697 0.8165 0.66764 0.0
Tb875 Tb 0.79269 0.79952 0.75847 0.0
N876 N 0.81023 0.77125 0.73412 0.0
C877 C 0.8251 0.75362 0.74263 0.0
C878 C 0.82917 0.7377 0.70249 0.0
C879 C 0.83452 0.73648 0.7271 0.0
H880 H 0.76922 0.84176 0.72231 0.0
H881 H 0.84581 0.72229 0.73419 0.0
H882 H 0.81677 0.74644 0.65548 0.0
H883 H 0.76126 0.84922 0.67815 0.0
H884 H 0.82935 0.7522 0.76161 0.0
H885 H 0.70474 0.8584 0.83367 0.0
H886 H 0.83648 0.72442 0.69051 0.0
H887 H 0.78362 0.74042 0.84688 0.0
H888 H 0.72184 0.82835 0.80657 0.0
H889 H 0.79214 0.73393 0.89092 0.0
H890 H 0.79387 0.78119 0.64007 0.0
H891 H 0.71447 0.85733 0.87706 0.0
H892 H 0.73501 0.8364 0.91207 0.0
H893 H 0.7734 0.81985 0.6483 0.0
H894 H 0.7588 0.80236 0.92778 0.0
N895 N 0.74151 0.81029 0.83409 0.0
C896 C 0.7262 0.82742 0.82548 0.0
C897 C 0.72201 0.84398 0.86526 0.0
C898 C 0.73673 0.82576 0.87444 0.0
C899 C 0.71643 0.8446 0.84081 0.0
C900 C 0.74612 0.80892 0.85825 0.0
H901 H 0.78 0.76384 0.92011 0.0
N902 N 0.76713 0.77381 0.85099 0.0
C903 C 0.78303 0.74982 0.88442 0.0
C904 C 0.75938 0.78992 0.86707 0.0
C905 C 0.77807 0.75351 0.85952 0.0
C906 C 0.77616 0.76675 0.90083 0.0
C907 C 0.76384 0.787 0.89233 0.0
O908 O 0.74979 0.75189 0.81744 0.0
O909 O 0.77669 0.77466 0.77469 0.0
O910 O 0.76297 0.79879 0.74345 0.0
O911 O 0.74002 0.79958 0.77973 0.0
O912 O 0.77818 0.74918 0.80074 0.0
O913 O 0.72694 0.78251 0.81174 0.0
O914 O 0.80316 0.82907 0.75164 0.0
O915 O 0.775 0.80682 0.79367 0.0
O916 O 0.78915 0.78302 0.82493 0.0
O917 O 0.81177 0.7807 0.78841 0.0
O918 O 0.77411 0.83243 0.7681 0.0
O919 O 0.82516 0.79814 0.75862 0.0
C920 C 0.78381 0.75418 0.77788 0.0
C921 C 0.71603 0.75452 0.83845 0.0
C922 C 0.69347 0.72976 0.85583 0.0
C923 C 0.70654 0.73685 0.83597 0.0
C924 C 0.69008 0.7408 0.87819 0.0
C925 C 0.71242 0.76519 0.8609 0.0
C926 C 0.69951 0.75833 0.88064 0.0
C927 C 0.74372 0.80119 0.75493 0.0
C928 C 0.72981 0.76139 0.81752 0.0
C929 C 0.7554 0.80415 0.90834 0.0
C930 C 0.74186 0.82352 0.8994 0.0
C931 C 0.76793 0.82731 0.79072 0.0
C932 C 0.8378 0.82543 0.73275 0.0
C933 C 0.8505 0.83984 0.73734 0.0
C934 C 0.86509 0.84566 0.71841 0.0
C935 C 0.86642 0.83711 0.69476 0.0
C936 C 0.83957 0.81702 0.70909 0.0
C937 C 0.85375 0.82293 0.6902 0.0
C938 C 0.80833 0.77967 0.81319 0.0
C939 C 0.82295 0.81918 0.75282 0.0
H940 H 0.70952 0.72854 0.81866 0.0
H941 H 0.67983 0.73614 0.89369 0.0
H942 H 0.71946 0.77886 0.86316 0.0
H943 H 0.69671 0.76671 0.89789 0.0
H944 H 0.8493 0.84612 0.75572 0.0
H945 H 0.87717 0.84154 0.67966 0.0
H946 H 0.83009 0.80585 0.70524 0.0
H947 H 0.85495 0.81644 0.67194 0.0
H948 H 0.06871 0.10774 0.37292 0.0
H949 H 0.09304 0.13218 0.36906 0.0
H950 H 0.12096 0.10492 0.29928 0.0
H951 H 0.09716 0.07963 0.30354 0.0
H952 H 0.15097 0.10953 0.32649 0.0
H953 H 0.0876 0.15663 0.30067 0.0
H954 H 0.04957 0.17418 0.30281 0.0
H955 H 0.05476 0.20331 0.37076 0.0
H956 H 0.09278 0.18567 0.36924 0.0
H957 H 0.21205 0.19181 0.31162 0.0
H958 H 0.1868 0.17045 0.30291 0.0
H959 H 0.15024 0.189 0.37214 0.0
H960 H 0.17462 0.21123 0.38024 0.0
H961 H 0.12471 0.18966 0.33748 0.0
H962 H 0.18815 0.13779 0.36447 0.0
H963 H 0.22628 0.12051 0.36047 0.0
H964 H 0.22069 0.10095 0.28728 0.0
H965 H 0.18261 0.1184 0.29072 0.0
C966 C 0.08009 0.10672 0.35682 0.0
C967 C 0.08085 0.0916 0.33855 0.0
C968 C 0.09388 0.12097 0.35448 0.0
C969 C 0.10866 0.12071 0.33365 0.0
C970 C 0.10962 0.10556 0.31544 0.0
C971 C 0.09584 0.0912 0.31782 0.0
C972 C 0.12332 0.13597 0.33137 0.0
C973 C 0.1452 0.12712 0.32845 0.0
C974 C 0.11589 0.15895 0.33396 0.0
C975 C 0.09303 0.16968 0.33493 0.0
C976 C 0.08061 0.16665 0.31617 0.0
C977 C 0.05905 0.17664 0.31726 0.0
C978 C 0.04975 0.18982 0.33693 0.0
C979 C 0.06199 0.19309 0.35554 0.0
C980 C 0.08355 0.18312 0.35455 0.0
C981 C 0.19843 0.19167 0.32476 0.0
C982 C 0.19558 0.20303 0.34683 0.0
C983 C 0.18411 0.17922 0.31989 0.0
C984 C 0.1668 0.17768 0.33712 0.0
C985 C 0.16351 0.18974 0.35861 0.0
C986 C 0.17765 0.20229 0.36337 0.0
C987 C 0.15233 0.16311 0.33353 0.0
C988 C 0.13046 0.17211 0.33525 0.0
C989 C 0.15978 0.14033 0.3296 0.0
C990 C 0.18261 0.12959 0.32775 0.0
C991 C 0.1951 0.12991 0.34748 0.0
C992 C 0.2167 0.12009 0.3453 0.0
C993 C 0.22593 0.10972 0.32358 0.0
C994 C 0.21356 0.10906 0.30405 0.0
C995 C 0.19197 0.1189 0.30611 0.0
H996 H 0.24265 0.10215 0.32192 0.0
H997 H 0.03306 0.19754 0.33774 0.0
H998 H 0.96753 0.06853 0.28092 0.0
H999 H 0.93511 0.09702 0.27428 0.0
H1000 H 0.96316 0.14534 0.3024 0.0
H1001 H 0.9949 0.11684 0.30986 0.0
H1002 H 0.92711 0.14808 0.32554 0.0
H1003 H 0.95097 0.14459 0.23823 0.0
H1004 H 0.96279 0.12665 0.19855 0.0
H1005 H 0.90447 0.10576 0.2007 0.0
H1006 H 0.8924 0.12335 0.24058 0.0
H1007 H 0.85587 0.24782 0.29962 0.0
H1008 H 0.88602 0.21673 0.29792 0.0
H1009 H 0.84665 0.17511 0.27838 0.0
H1010 H 0.81588 0.20671 0.27989 0.0
H1011 H 0.88566 0.16629 0.25131 0.0
H1012 H 0.86169 0.17177 0.3381 0.0
H1013 H 0.85057 0.18986 0.37782 0.0
H1014 H 0.91031 0.20779 0.37588 0.0
H1015 H 0.92171 0.19001 0.33603 0.0
C1016 C 0.96697 0.08541 0.28482 0.0
C1017 C 0.98389 0.09052 0.29555 0.0
C1018 C 0.94835 0.10175 0.28115 0.0
C1019 C 0.94643 0.12357 0.28785 0.0
C1020 C 0.96394 0.12875 0.29721 0.0
C1021 C 0.98226 0.11246 0.30122 0.0
C1022 C 0.92587 0.14065 0.28742 0.0
C1023 C 0.91832 0.15218 0.30908 0.0
C1024 C 0.91365 0.14569 0.26644 0.0
C1025 C 0.9209 0.13505 0.24254 0.0
C1026 C 0.94075 0.136 0.23036 0.0
C1027 C 0.94747 0.12593 0.2078 0.0
C1028 C 0.93442 0.11501 0.19715 0.0
C1029 C 0.91458 0.11419 0.209 0.0
C1030 C 0.90778 0.12422 0.23157 0.0
C1031 C 0.85333 0.2321 0.29521 0.0
C1032 C 0.8331 0.22985 0.29047 0.0
C1033 C 0.87078 0.2142 0.29419 0.0
C1034 C 0.86871 0.19328 0.28857 0.0
C1035 C 0.84872 0.19099 0.28297 0.0
C1036 C 0.83109 0.20908 0.28393 0.0
C1037 C 0.88748 0.17405 0.28912 0.0
C1038 C 0.89456 0.16208 0.26767 0.0
C1039 C 0.89946 0.16864 0.31023 0.0
C1040 C 0.89252 0.17961 0.33403 0.0
C1041 C 0.8724 0.17969 0.34607 0.0
C1042 C 0.86607 0.18983 0.36864 0.0
C1043 C 0.87977 0.19986 0.37942 0.0
C1044 C 0.89976 0.19991 0.36757 0.0
C1045 C 0.90617 0.18978 0.34501 0.0
H1046 H 0.87486 0.20767 0.39692 0.0
H1047 H 0.93965 0.10723 0.17968 0.0
H1048 H 0.97374 0.97807 0.37815 0.0
H1049 H 0.94881 0.95543 0.37239 0.0
H1050 H 0.9575 0.96756 0.29255 0.0
H1051 H 0.98243 0.98993 0.29806 0.0
H1052 H 0.91646 0.97023 0.30733 0.0
H1053 H 0.98316 0.91958 0.32189 0.0
H1054 H 1.01395 0.90311 0.34574 0.0
H1055 H 0.97289 0.88557 0.40733 0.0
H1056 H 0.94181 0.90222 0.38394 0.0
H1057 H 0.89232 0.88203 0.25277 0.0
H1058 H 0.90839 0.90922 0.26844 0.0
H1059 H 0.89121 0.8879 0.3442 0.0
H1060 H 0.8754 0.86008 0.32847 0.0
H1061 H 0.93218 0.89147 0.33788 0.0
H1062 H 0.86566 0.93721 0.31958 0.0
H1063 H 0.83563 0.95228 0.2941 0.0
H1064 H 0.87646 0.97859 0.23863 0.0
H1065 H 0.90684 0.96332 0.26353 0.0
C1066 C 0.97039 0.97589 0.35936 0.0
C1067 C 0.98023 0.98584 0.3386 0.0
C1068 C 0.95607 0.96298 0.35611 0.0
C1069 C 0.95139 0.95963 0.33201 0.0
C1070 C 0.96076 0.96998 0.31133 0.0
C1071 C 0.97503 0.98287 0.31455 0.0
C1072 C 0.93737 0.94477 0.32805 0.0
C1073 C 0.91993 0.95299 0.31394 0.0
C1074 C 0.94151 0.92241 0.33726 0.0
C1075 C 0.96017 0.91238 0.35131 0.0
C1076 C 0.98069 0.91238 0.3406 0.0
C1077 C 0.99819 0.90298 0.35402 0.0
C1078 C 0.99537 0.89336 0.37807 0.0
C1079 C 0.97504 0.89307 0.38872 0.0
C1080 C 0.95748 0.90247 0.3754 0.0
C1081 C 0.89193 0.88311 0.27279 0.0
C1082 C 0.88274 0.86879 0.2894 0.0
C1083 C 0.90095 0.89882 0.28173 0.0
C1084 C 0.90085 0.90077 0.30751 0.0
C1085 C 0.8914 0.88674 0.32423 0.0
C1086 C 0.88227 0.87097 0.31524 0.0
C1087 C 0.91157 0.91681 0.31666 0.0
C1088 C 0.92841 0.90881 0.33171 0.0
C1089 C 0.90691 0.93936 0.30823 0.0
C1090 C 0.88858 0.949 0.2934 0.0
C1091 C 0.86828 0.9461 0.30188 0.0
C1092 C 0.85118 0.95468 0.28754 0.0
C1093 C 0.85414 0.96636 0.26475 0.0
C1094 C 0.87419 0.96954 0.25629 0.0
C1095 C 0.89136 0.96094 0.27053 0.0
H1096 H 0.84089 0.97297 0.25366 0.0
H1097 H 1.00894 0.88609 0.38842 0.0
H1098 H 0.11237 0.99743 0.32405 0.0
H1099 H 0.14167 0.96613 0.31524 0.0
H1100 H 0.10463 0.94264 0.26604 0.0
H1101 H 0.07492 0.97448 0.27476 0.0
H1102 H 0.12469 0.90925 0.30104 0.0
H1103 H 0.14533 0.96264 0.24078 0.0
H1104 H 0.15272 0.99861 0.22554 0.0
H1105 H 0.20028 0.99045 0.27736 0.0
H1106 H 0.19293 0.95461 0.2932 0.0
H1107 H 0.21664 0.82229 0.2731 0.0
H1108 H 0.18507 0.8524 0.27026 0.0
H1109 H 0.21562 0.89455 0.30589 0.0
H1110 H 0.24729 0.86524 0.30741 0.0
H1111 H 0.19679 0.91759 0.27132 0.0
H1112 H 0.1741 0.8679 0.33563 0.0
H1113 H 0.16709 0.83239 0.35333 0.0
H1114 H 0.12406 0.83402 0.29748 0.0
H1115 H 0.13101 0.86945 0.27927 0.0
C1116 C 0.11049 0.98584 0.31099 0.0
C1117 C 0.09128 0.9886 0.29999 0.0
C1118 C 0.12733 0.96788 0.30596 0.0
C1119 C 0.12553 0.95192 0.28991 0.0
C1120 C 0.10648 0.95472 0.27847 0.0
C1121 C 0.08958 0.97304 0.28325 0.0
C1122 C 0.14344 0.93214 0.28611 0.0
C1123 C 0.14039 0.91101 0.29404 0.0
C1124 C 0.16412 0.93435 0.27764 0.0
C1125 C 0.16848 0.95598 0.26827 0.0
C1126 C 0.15724 0.9686 0.24907 0.0
C1127 C 0.16144 0.98896 0.24031 0.0
C1128 C 0.17693 0.99683 0.25051 0.0
C1129 C 0.18826 0.98435 0.2695 0.0
C1130 C 0.18408 0.96402 0.27837 0.0
C1131 C 0.21659 0.83794 0.28043 0.0
C1132 C 0.23455 0.841 0.29096 0.0
C1133 C 0.1984 0.8552 0.27894 0.0
C1134 C 0.19755 0.87589 0.28827 0.0
C1135 C 0.21556 0.8789 0.2986 0.0
C1136 C 0.23375 0.86185 0.29977 0.0
C1137 C 0.17833 0.89468 0.28697 0.0
C1138 C 0.18111 0.9157 0.27807 0.0
C1139 C 0.15752 0.89239 0.29495 0.0
C1140 C 0.15326 0.87118 0.30592 0.0
C1141 C 0.16325 0.86061 0.32703 0.0
C1142 C 0.15928 0.84051 0.33716 0.0
C1143 C 0.14519 0.83092 0.32649 0.0
C1144 C 0.135 0.84145 0.3057 0.0
C1145 C 0.13894 0.86154 0.29547 0.0
H1146 H 0.14213 0.81536 0.33436 0.0
H1147 H 0.18018 0.01258 0.24367 0.0
H1148 H 0.07577 0.95468 0.78667 0.0
H1149 H 0.10586 0.92313 0.79157 0.0
H1150 H 0.14835 0.96728 0.78186 0.0
H1151 H 0.1184 0.99846 0.77575 0.0
H1152 H 0.16377 0.93663 0.75388 0.0
H1153 H 0.13778 0.93522 0.83994 0.0
H1154 H 0.11172 0.93435 0.87617 0.0
H1155 H 0.10229 0.87269 0.85516 0.0
H1156 H 0.1281 0.87332 0.81863 0.0
H1157 H 0.25634 0.8525 0.78073 0.0
H1158 H 0.2267 0.88493 0.78285 0.0
H1159 H 0.18298 0.84329 0.77985 0.0
H1160 H 0.21227 0.81103 0.77783 0.0
H1161 H 0.16907 0.87277 0.81572 0.0
H1162 H 0.19535 0.87568 0.72886 0.0
H1163 H 0.22255 0.87691 0.69395 0.0
H1164 H 0.23266 0.93695 0.71885 0.0
H1165 H 0.20571 0.93592 0.75412 0.0
C1166 C 0.09146 0.95767 0.78655 0.0
C1167 C 0.09465 0.97914 0.78136 0.0
C1168 C 0.10879 0.93956 0.78923 0.0
C1169 C 0.12969 0.94254 0.7872 0.0
C1170 C 0.1326 0.96424 0.78338 0.0
C1171 C 0.11539 0.98219 0.78024 0.0
C1172 C 0.14857 0.92321 0.78692 0.0
C1173 C 0.16498 0.92292 0.76779 0.0
C1174 C 0.15032 0.90483 0.80454 0.0
C1175 C 0.13471 0.90445 0.8264 0.0
C1176 C 0.13001 0.92157 0.84293 0.0
C1177 C 0.11531 0.9211 0.86354 0.0
C1178 C 0.10531 0.90351 0.86792 0.0
C1179 C 0.11002 0.88632 0.85172 0.0
C1180 C 0.1247 0.88672 0.83107 0.0
C1181 C 0.24045 0.85024 0.78026 0.0
C1182 C 0.23691 0.82897 0.7788 0.0
C1183 C 0.22345 0.86886 0.7815 0.0
C1184 C 0.20244 0.86672 0.78142 0.0
C1185 C 0.19892 0.84553 0.77998 0.0
C1186 C 0.21586 0.82699 0.77856 0.0
C1187 C 0.18409 0.88641 0.78284 0.0
C1188 C 0.16781 0.88666 0.80205 0.0
C1189 C 0.18256 0.90491 0.76552 0.0
C1190 C 0.19868 0.90559 0.74426 0.0
C1191 C 0.20349 0.88905 0.72699 0.0
C1192 C 0.21884 0.88973 0.70713 0.0
C1193 C 0.22937 0.90696 0.70423 0.0
C1194 C 0.22452 0.92359 0.72115 0.0
C1195 C 0.2092 0.92298 0.74106 0.0
H1196 H 0.24125 0.90746 0.68883 0.0
H1197 H 0.09394 0.90317 0.88389 0.0
H1198 H 0.1121 0.07092 0.71166 0.0
H1199 H 0.13673 0.09293 0.72094 0.0
H1200 H 0.09377 0.11999 0.78245 0.0
H1201 H 0.06929 0.09755 0.77359 0.0
H1202 H 0.11507 0.15104 0.74223 0.0
H1203 H 0.12748 0.08884 0.80358 0.0
H1204 H 0.134 0.04908 0.81589 0.0
H1205 H 0.19066 0.03724 0.76648 0.0
H1206 H 0.18426 0.07691 0.75355 0.0
H1207 H 0.1937 0.20292 0.77659 0.0
H1208 H 0.16426 0.18429 0.78089 0.0
H1209 H 0.20513 0.12712 0.74812 0.0
H1210 H 0.23464 0.14471 0.74583 0.0
H1211 H 0.18104 0.11291 0.78034 0.0
H1212 H 0.16861 0.17098 0.71455 0.0
H1213 H 0.16284 0.20939 0.69681 0.0
H1214 H 0.10801 0.2279 0.74811 0.0
H1215 H 0.11361 0.18962 0.76634 0.0
C1216 C 0.10785 0.08172 0.72699 0.0
C1217 C 0.08883 0.08255 0.74193 0.0
C1218 C 0.12191 0.0942 0.73232 0.0
C1219 C 0.11703 0.10803 0.75237 0.0
C1220 C 0.09778 0.10941 0.7669 0.0
C1221 C 0.08391 0.09655 0.7619 0.0
C1222 C 0.13246 0.12043 0.75847 0.0
C1223 C 0.12934 0.1429 0.751 0.0
C1224 C 0.15122 0.10959 0.76936 0.0
C1225 C 0.15528 0.08581 0.77743 0.0
C1226 C 0.14122 0.07773 0.79518 0.0
C1227 C 0.14491 0.05522 0.8023 0.0
C1228 C 0.1627 0.04063 0.79193 0.0
C1229 C 0.17687 0.04855 0.77448 0.0
C1230 C 0.17323 0.07105 0.76726 0.0
C1231 C 0.19648 0.18621 0.77083 0.0
C1232 C 0.21649 0.17557 0.76029 0.0
C1233 C 0.17955 0.17565 0.77297 0.0
C1234 C 0.18221 0.15445 0.76417 0.0
C1235 C 0.20244 0.14349 0.75488 0.0
C1236 C 0.21934 0.15378 0.75324 0.0
C1237 C 0.16411 0.14368 0.76351 0.0
C1238 C 0.16667 0.12136 0.77197 0.0
C1239 C 0.14506 0.15457 0.75294 0.0
C1240 C 0.14168 0.17754 0.742 0.0
C1241 C 0.15541 0.18329 0.72214 0.0
C1242 C 0.15216 0.20502 0.71199 0.0
C1243 C 0.13511 0.22109 0.72138 0.0
C1244 C 0.12124 0.21544 0.7409 0.0
C1245 C 0.12444 0.19374 0.75114 0.0
H1246 H 0.13262 0.23791 0.7135 0.0
H1247 H 0.16552 0.02321 0.79745 0.0
H1248 H 0.99208 0.08164 0.80582 0.0
H1249 H 0.96308 0.11451 0.8124 0.0
H1250 H 0.94006 0.10642 0.74223 0.0
H1251 H 0.9686 0.07419 0.73561 0.0
H1252 H 0.94296 0.14736 0.74377 0.0
H1253 H 0.91473 0.09553 0.80018 0.0
H1254 H 0.91355 0.06894 0.8364 0.0
H1255 H 0.91686 0.11844 0.8858 0.0
H1256 H 0.91845 0.14522 0.84981 0.0
H1257 H 0.84053 0.21796 0.74563 0.0
H1258 H 0.87017 0.18575 0.74636 0.0
H1259 H 0.88874 0.20652 0.81346 0.0
H1260 H 0.85874 0.23862 0.81303 0.0
H1261 H 0.88967 0.16107 0.81619 0.0
H1262 H 0.91662 0.21335 0.75999 0.0
H1263 H 0.91613 0.24027 0.72384 0.0
H1264 H 0.91465 0.19009 0.6745 0.0
H1265 H 0.91481 0.16292 0.71041 0.0
C1266 C 0.98059 0.08669 0.79207 0.0
C1267 C 0.98285 0.07526 0.7701 0.0
C1268 C 0.96401 0.10554 0.7958 0.0
C1269 C 0.94931 0.11322 0.7777 0.0
C1270 C 0.95119 0.10118 0.75638 0.0
C1271 C 0.96761 0.08259 0.75266 0.0
C1272 C 0.93254 0.13426 0.7798 0.0
C1273 C 0.93129 0.15021 0.75964 0.0
C1274 C 0.91748 0.13854 0.80069 0.0
C1275 C 0.91704 0.12228 0.82225 0.0
C1276 C 0.9155 0.10066 0.81873 0.0
C1277 C 0.91469 0.08557 0.83923 0.0
C1278 C 0.91522 0.09197 0.86338 0.0
C1279 C 0.91653 0.11348 0.86708 0.0
C1280 C 0.9174 0.12862 0.84663 0.0
C1281 C 0.85079 0.21565 0.76061 0.0
C1282 C 0.84714 0.23095 0.77921 0.0
C1283 C 0.86789 0.19725 0.76095 0.0
C1284 C 0.88183 0.19358 0.77998 0.0
C1285 C 0.87824 0.20885 0.79862 0.0
C1286 C 0.86121 0.22739 0.79815 0.0
C1287 C 0.90015 0.17393 0.78016 0.0
C1288 C 0.90162 0.15831 0.80062 0.0
C1289 C 0.91548 0.1699 0.75959 0.0
C1290 C 0.91555 0.18614 0.73792 0.0
C1291 C 0.91603 0.20809 0.74145 0.0
C1292 C 0.91584 0.22339 0.721 0.0
C1293 C 0.91531 0.2169 0.69689 0.0
C1294 C 0.91504 0.19509 0.69318 0.0
C1295 C 0.9152 0.17973 0.71358 0.0
H1296 H 0.91516 0.22877 0.68108 0.0
H1297 H 0.91454 0.08028 0.87923 0.0
H1298 H 1.01472 0.94573 0.71166 0.0
H1299 H 0.98837 0.92376 0.7121 0.0
H1300 H 0.94288 0.97311 0.75246 0.0
H1301 H 0.96937 0.99528 0.75217 0.0
H1302 H 0.9401 0.93221 0.7708 0.0
H1303 H 0.94047 0.96964 0.69016 0.0
H1304 H 0.95604 0.98261 0.64982 0.0
H1305 H 0.98056 0.91561 0.63027 0.0
H1306 H 0.96538 0.90221 0.67065 0.0
H1307 H 0.8549 0.88391 0.74351 0.0
H1308 H 0.8777 0.90922 0.74823 0.0
H1309 H 0.92965 0.86599 0.70852 0.0
H1310 H 0.90704 0.8408 0.70373 0.0
H1311 H 0.92595 0.90737 0.69031 0.0
H1312 H 0.92613 0.8704 0.77295 0.0
H1313 H 0.90895 0.85846 0.81281 0.0
H1314 H 0.88144 0.92601 0.82806 0.0
H1315 H 0.89821 0.93836 0.78811 0.0
C1316 C 0.99909 0.95208 0.72046 0.0
C1317 C 0.99414 0.97246 0.73162 0.0
C1318 C 0.984 0.93942 0.72077 0.0
C1319 C 0.96348 0.9469 0.73196 0.0
C1320 C 0.95858 0.96699 0.74367 0.0
C1321 C 0.97375 0.97965 0.74349 0.0
C1322 C 0.94719 0.93383 0.73087 0.0
C1323 C 0.93678 0.92704 0.75317 0.0
C1324 C 0.94285 0.92695 0.70791 0.0
C1325 C 0.95192 0.93493 0.68353 0.0
C1326 C 0.94931 0.95767 0.67733 0.0
C1327 C 0.95804 0.9651 0.65445 0.0
C1328 C 0.96932 0.94994 0.63752 0.0
C1329 C 0.97184 0.92733 0.64341 0.0
C1330 C 0.96315 0.91981 0.66629 0.0
C1331 C 0.87126 0.87968 0.73609 0.0
C1332 C 0.87909 0.86042 0.72305 0.0
C1333 C 0.88428 0.89418 0.73878 0.0
C1334 C 0.90545 0.88954 0.72874 0.0
C1335 C 0.91336 0.87006 0.71626 0.0
C1336 C 0.90038 0.85567 0.71348 0.0
C1337 C 0.91934 0.90517 0.73027 0.0
C1338 C 0.92922 0.91258 0.70796 0.0
C1339 C 0.92299 0.91271 0.75319 0.0
C1340 C 0.91328 0.9053 0.77744 0.0
C1341 C 0.91632 0.88271 0.78474 0.0
C1342 C 0.90666 0.87586 0.80735 0.0
C1343 C 0.89409 0.89147 0.82293 0.0
C1344 C 0.89117 0.91395 0.81596 0.0
C1345 C 0.90077 0.92088 0.79335 0.0
H1346 H 0.88664 0.88615 0.84044 0.0
H1347 H 0.97607 0.95573 0.61981 0.0
H1348 H 0.29742 0.09063 0.15894 0.0
H1349 H 0.3085 0.11646 0.18414 0.0
H1350 H 0.25473 0.16734 0.16406 0.0
H1351 H 0.24347 0.14159 0.13931 0.0
H1352 H 0.29657 0.17848 0.15638 0.0
H1353 H 0.25029 0.14905 0.2185 0.0
H1354 H 0.23753 0.11961 0.24433 0.0
H1355 H 0.29775 0.09822 0.27493 0.0
H1356 H 0.31093 0.12742 0.24905 0.0
H1357 H 0.28294 0.26442 0.23743 0.0
H1358 H 0.28337 0.23598 0.20947 0.0
H1359 H 0.3266 0.18948 0.25427 0.0
H1360 H 0.32573 0.21824 0.28297 0.0
H1361 H 0.29487 0.17302 0.24884 0.0
H1362 H 0.341 0.20344 0.18903 0.0
H1363 H 0.35595 0.22924 0.15957 0.0
H1364 H 0.29794 0.24775 0.12383 0.0
H1365 H 0.28275 0.22187 0.15284 0.0
C1366 C 0.28799 0.10731 0.16002 0.0
C1367 C 0.26958 0.11411 0.14724 0.0
C1368 C 0.29425 0.12198 0.17446 0.0
C1369 C 0.28239 0.14376 0.17596 0.0
C1370 C 0.26405 0.15058 0.16317 0.0
C1371 C 0.25759 0.13584 0.14916 0.0
C1372 C 0.28942 0.1598 0.19004 0.0
C1373 C 0.29611 0.17744 0.17663 0.0
C1374 C 0.28945 0.15792 0.21633 0.0
C1375 C 0.28169 0.14017 0.23156 0.0
C1376 C 0.26089 0.13788 0.2305 0.0
C1377 C 0.25355 0.1213 0.24522 0.0
C1378 C 0.26685 0.10699 0.26118 0.0
C1379 C 0.28749 0.10928 0.26251 0.0
C1380 C 0.29489 0.12584 0.24783 0.0
C1381 C 0.29306 0.2485 0.2411 0.0
C1382 C 0.30425 0.24376 0.26263 0.0
C1383 C 0.2934 0.23206 0.22483 0.0
C1384 C 0.30507 0.21044 0.22957 0.0
C1385 C 0.31741 0.20599 0.25016 0.0
C1386 C 0.31699 0.22248 0.2665 0.0
C1387 C 0.30196 0.19214 0.21523 0.0
C1388 C 0.29583 0.17402 0.22858 0.0
C1389 C 0.30253 0.19352 0.18881 0.0
C1390 C 0.31073 0.21078 0.17316 0.0
C1391 C 0.33135 0.21323 0.1751 0.0
C1392 C 0.33993 0.22769 0.15832 0.0
C1393 C 0.32796 0.23997 0.13972 0.0
C1394 C 0.30725 0.23811 0.13812 0.0
C1395 C 0.29867 0.22349 0.15467 0.0
H1396 H 0.33469 0.25104 0.12661 0.0
H1397 H 0.26116 0.09416 0.27256 0.0
H1398 H 0.96599 0.31553 0.10238 0.0
H1399 H 0.93175 0.31328 0.12504 0.0
H1400 H 0.96034 0.30509 0.19493 0.0
H1401 H 0.99422 0.308 0.17252 0.0
H1402 H 0.93199 0.27362 0.18612 0.0
H1403 H 0.93413 0.35111 0.186 0.0
H1404 H 0.93789 0.38679 0.16518 0.0
H1405 H 0.88576 0.38788 0.12197 0.0
H1406 H 0.8819 0.35201 0.14231 0.0
H1407 H 0.84133 0.28164 0.27053 0.0
H1408 H 0.87508 0.28519 0.24968 0.0
H1409 H 0.84287 0.32635 0.19061 0.0
H1410 H 0.80893 0.32523 0.21357 0.0
H1411 H 0.87391 0.34062 0.19276 0.0
H1412 H 0.87016 0.2651 0.18987 0.0
H1413 H 0.8653 0.2287 0.20737 0.0
H1414 H 0.91851 0.22174 0.25064 0.0
H1415 H 0.92357 0.25823 0.23359 0.0
C1416 C 0.96494 0.3132 0.12256 0.0
C1417 C 0.98284 0.31213 0.13561 0.0
C1418 C 0.94537 0.31193 0.13552 0.0
C1419 C 0.94337 0.30899 0.16179 0.0
C1420 C 0.96138 0.30733 0.17474 0.0
C1421 C 0.98075 0.30915 0.16188 0.0
C1422 C 0.92249 0.30827 0.17589 0.0
C1423 C 0.91931 0.28828 0.18775 0.0
C1424 C 0.90565 0.32719 0.17753 0.0
C1425 C 0.9079 0.34878 0.16545 0.0
C1426 C 0.92361 0.35886 0.17188 0.0
C1427 C 0.92573 0.37914 0.16021 0.0
C1428 C 0.91212 0.38957 0.14221 0.0
C1429 C 0.89632 0.37977 0.13589 0.0
C1430 C 0.89415 0.35947 0.14749 0.0
C1431 C 0.84128 0.29211 0.25367 0.0
C1432 C 0.82214 0.30372 0.24438 0.0
C1433 C 0.86085 0.29364 0.24114 0.0
C1434 C 0.86203 0.3055 0.21782 0.0
C1435 C 0.84284 0.31705 0.20846 0.0
C1436 C 0.82328 0.31631 0.22161 0.0
C1437 C 0.88301 0.30579 0.20311 0.0
C1438 C 0.88634 0.32576 0.19112 0.0
C1439 C 0.89978 0.28665 0.20077 0.0
C1440 C 0.89716 0.26446 0.21056 0.0
C1441 C 0.88081 0.25582 0.20314 0.0
C1442 C 0.87801 0.23519 0.21299 0.0
C1443 C 0.89159 0.22293 0.23009 0.0
C1444 C 0.90803 0.23126 0.23736 0.0
C1445 C 0.91089 0.2519 0.22758 0.0
H1446 H 0.88941 0.20697 0.23766 0.0
H1447 H 0.91378 0.40527 0.13319 0.0
H1448 H 0.83793 0.91757 0.06161 0.0
H1449 H 0.82705 0.895 0.09773 0.0
H1450 H 0.78338 0.95247 0.12604 0.0
H1451 H 0.79409 0.97502 0.08988 0.0
H1452 H 0.80872 0.92327 0.16289 0.0
H1453 H 0.7623 0.92219 0.09922 0.0
H1454 H 0.75422 0.91745 0.05652 0.0
H1455 H 0.78936 0.85014 0.06122 0.0
H1456 H 0.79794 0.8546 0.10383 0.0
H1457 H 0.76773 0.85157 0.25475 0.0
H1458 H 0.76846 0.88193 0.22304 0.0
H1459 H 0.79699 0.83466 0.16823 0.0
H1460 H 0.79445 0.80475 0.1988 0.0
H1461 H 0.77331 0.86447 0.14598 0.0
H1462 H 0.82262 0.86494 0.20722 0.0
H1463 H 0.83657 0.87009 0.2464 0.0
H1464 H 0.7997 0.93663 0.24667 0.0
H1465 H 0.786 0.93212 0.20678 0.0
C1466 C 0.82625 0.92539 0.07574 0.0
C1467 C 0.81672 0.94795 0.07294 0.0
C1468 C 0.81998 0.91252 0.09623 0.0
C1469 C 0.8043 0.92211 0.11435 0.0
C1470 C 0.79545 0.94481 0.11219 0.0
C1471 C 0.80148 0.9576 0.09151 0.0
C1472 C 0.79652 0.90816 0.13493 0.0
C1473 C 0.80065 0.91059 0.15944 0.0
C1474 C 0.78624 0.89159 0.13013 0.0
C1475 C 0.78089 0.88879 0.10463 0.0
C1476 C 0.76844 0.90643 0.09107 0.0
C1477 C 0.76375 0.90379 0.0669 0.0
C1478 C 0.7713 0.88352 0.05614 0.0
C1479 C 0.78353 0.86584 0.06957 0.0
C1480 C 0.78829 0.86841 0.09374 0.0
C1481 C 0.77369 0.84776 0.23576 0.0
C1482 C 0.78121 0.82573 0.2294 0.0
C1483 C 0.77435 0.86512 0.21771 0.0
C1484 C 0.78327 0.86072 0.19327 0.0
C1485 C 0.78998 0.83867 0.18684 0.0
C1486 C 0.78864 0.82145 0.20452 0.0
C1487 C 0.78644 0.87861 0.17427 0.0
C1488 C 0.78118 0.8772 0.14984 0.0
C1489 C 0.79603 0.89587 0.17921 0.0
C1490 C 0.80321 0.89812 0.20398 0.0
C1491 C 0.81746 0.88066 0.21556 0.0
C1492 C 0.82532 0.88346 0.23796 0.0
C1493 C 0.8189 0.90358 0.24923 0.0
C1494 C 0.80462 0.92101 0.23799 0.0
C1495 C 0.79688 0.91837 0.2154 0.0
H1496 H 0.82507 0.90568 0.26658 0.0
H1497 H 0.76766 0.8815 0.03743 0.0
H1498 H 0.10032 0.74709 0.03995 0.0
H1499 H 0.12881 0.75117 0.0638 0.0
H1500 H 0.10723 0.71093 0.1251 0.0
H1501 H 0.07803 0.7073 0.10134 0.0
H1502 H 0.1167 0.74816 0.14108 0.0
H1503 H 0.15137 0.68968 0.08916 0.0
H1504 H 0.16115 0.67111 0.04962 0.0
H1505 H 0.19088 0.72293 0.01888 0.0
H1506 H 0.18096 0.74206 0.0581 0.0
H1507 H 0.21299 0.74545 0.19929 0.0
H1508 H 0.18236 0.73653 0.18277 0.0
H1509 H 0.19662 0.7697 0.11198 0.0
H1510 H 0.22727 0.77809 0.12821 0.0
H1511 H 0.19095 0.73087 0.10445 0.0
H1512 H 0.15363 0.79112 0.15408 0.0
H1513 H 0.14306 0.81087 0.19279 0.0
H1514 H 0.11808 0.75685 0.22715 0.0
H1515 H 0.12876 0.73664 0.18873 0.0
C1516 C 0.10154 0.73914 0.05853 0.0
C1517 C 0.08682 0.72695 0.06879 0.0
C1518 C 0.11797 0.74134 0.07209 0.0
C1519 C 0.1203 0.73122 0.09619 0.0
C1520 C 0.10576 0.71885 0.10651 0.0
C1521 C 0.08923 0.71661 0.09285 0.0
C1522 C 0.13783 0.73399 0.1104 0.0
C1523 C 0.13301 0.74398 0.13335 0.0
C1524 C 0.15906 0.72891 0.10011 0.0
C1525 C 0.16533 0.71734 0.07657 0.0
C1526 C 0.15989 0.69719 0.07393 0.0
C1527 C 0.16545 0.68657 0.05156 0.0
C1528 C 0.17658 0.69587 0.03173 0.0
C1529 C 0.18223 0.71579 0.03425 0.0
C1530 C 0.17667 0.7265 0.05656 0.0
C1531 C 0.20927 0.75113 0.18037 0.0
C1532 C 0.2225 0.76235 0.16496 0.0
C1533 C 0.19181 0.74603 0.17092 0.0
C1534 C 0.18717 0.75237 0.14604 0.0
C1535 C 0.19994 0.7644 0.13111 0.0
C1536 C 0.21741 0.76928 0.14042 0.0
C1537 C 0.1698 0.74569 0.13483 0.0
C1538 C 0.17469 0.73484 0.11241 0.0
C1539 C 0.14867 0.75012 0.14557 0.0
C1540 C 0.14223 0.76226 0.16864 0.0
C1541 C 0.14605 0.78337 0.16997 0.0
C1542 C 0.14001 0.79467 0.19184 0.0
C1543 C 0.12997 0.78509 0.21244 0.0
C1544 C 0.1259 0.76423 0.21119 0.0
C1545 C 0.13193 0.75285 0.18937 0.0
H1546 H 0.1253 0.79387 0.22936 0.0
H1547 H 0.18087 0.68763 0.01443 0.0
H1548 H 0.22768 0.99602 0.05559 0.0
H1549 H 0.22704 0.9653 0.03029 0.0
H1550 H 0.23135 0.00728 0.96319 0.0
H1551 H 0.23081 0.03823 0.98863 0.0
H1552 H 0.20983 0.97754 0.95548 0.0
H1553 H 0.27639 0.97594 0.98824 0.0
H1554 H 0.29767 0.97787 0.02302 0.0
H1555 H 0.2812 0.91966 0.05922 0.0
H1556 H 0.25965 0.91753 0.0247 0.0
H1557 H 0.28101 0.90637 0.87215 0.0
H1558 H 0.26251 0.93481 0.90049 0.0
H1559 H 0.24911 0.88426 0.95488 0.0
H1560 H 0.26723 0.85575 0.92617 0.0
H1561 H 0.2708 0.91533 0.97189 0.0
H1562 H 0.20923 0.91456 0.93101 0.0
H1563 H 0.18852 0.91549 0.89491 0.0
H1564 H 0.19772 0.98012 0.87118 0.0
H1565 H 0.21877 0.97946 0.90694 0.0
C1566 C 0.22787 0.99873 0.03546 0.0
C1567 C 0.22947 0.0193 0.02396 0.0
C1568 C 0.22756 0.98123 0.02102 0.0
C1569 C 0.22973 0.98382 0.9948 0.0
C1570 C 0.22972 0.00485 0.98336 0.0
C1571 C 0.22946 0.02251 0.99787 0.0
C1572 C 0.23488 0.96425 0.97944 0.0
C1573 C 0.22315 0.96394 0.95903 0.0
C1574 C 0.25219 0.94639 0.98417 0.0
C1575 C 0.2663 0.94667 1.00403 0.0
C1576 C 0.27738 0.96351 1.00359 0.0
C1577 C 0.28945 0.96468 0.02326 0.0
C1578 C 0.29073 0.94895 0.04336 0.0
C1579 C 0.28018 0.93185 0.04365 0.0
C1580 C 0.26806 0.93062 0.02401 0.0
C1581 C 0.27368 0.90144 0.88994 0.0
C1582 C 0.27537 0.87903 0.89709 0.0
C1583 C 0.26312 0.91762 0.90605 0.0
C1584 C 0.25439 0.91159 0.92969 0.0
C1585 C 0.25565 0.88919 0.93664 0.0
C1586 C 0.2659 0.87299 0.92029 0.0
C1587 C 0.24583 0.92868 0.94784 0.0
C1588 C 0.25714 0.92863 0.96867 0.0
C1589 C 0.22845 0.94637 0.9431 0.0
C1590 C 0.21572 0.94689 0.92159 0.0
C1591 C 0.207 0.9289 0.91799 0.0
C1592 C 0.19516 0.9294 0.8976 0.0
C1593 C 0.19183 0.94784 0.88074 0.0
C1594 C 0.20031 0.96584 0.88426 0.0
C1595 C 0.21217 0.96543 0.9046 0.0
H1596 H 0.18266 0.94819 0.86497 0.0
H1597 H 0.29987 0.95008 0.0587 0.0
H1598 H 0.1057 0.34461 0.98881 0.0
H1599 H 0.13312 0.33868 0.95411 0.0
H1600 H 0.14391 0.26842 0.97034 0.0
H1601 H 0.11683 0.27425 0.00541 0.0
H1602 H 0.18074 0.27979 0.96094 0.0
H1603 H 0.11715 0.29388 0.91977 0.0
H1604 H 0.08175 0.31438 0.90904 0.0
H1605 H 0.10712 0.36987 0.8805 0.0
H1606 H 0.14264 0.3498 0.89137 0.0
H1607 H 0.25266 0.25607 0.85186 0.0
H1608 H 0.22507 0.2575 0.88574 0.0
H1609 H 0.19599 0.32396 0.85963 0.0
H1610 H 0.22104 0.32009 0.82285 0.0
H1611 H 0.16701 0.31174 0.87545 0.0
H1612 H 0.23229 0.29588 0.92326 0.0
H1613 H 0.26618 0.27195 0.93545 0.0
H1614 H 0.23668 0.21728 0.95099 0.0
H1615 H 0.20278 0.24067 0.93927 0.0
C1616 C 0.1139 0.32787 0.98512 0.0
C1617 C 0.10881 0.30995 1.00009 0.0
C1618 C 0.12955 0.32447 0.96503 0.0
C1619 C 0.14063 0.30304 0.95923 0.0
C1620 C 0.13567 0.28513 0.97422 0.0
C1621 C 0.11995 0.2885 0.99424 0.0
C1622 C 0.1575 0.29935 0.93781 0.0
C1623 C 0.17779 0.28686 0.9422 0.0
C1624 C 0.15384 0.30833 0.91324 0.0
C1625 C 0.13251 0.32041 0.90661 0.0
C1626 C 0.11515 0.31052 0.91138 0.0
C1627 C 0.09507 0.32205 0.90524 0.0
C1628 C 0.09218 0.34344 0.89415 0.0
C1629 C 0.10937 0.35332 0.88912 0.0
C1630 C 0.12949 0.34186 0.89525 0.0
C1631 C 0.24053 0.27111 0.85368 0.0
C1632 C 0.23984 0.28856 0.83538 0.0
C1633 C 0.2247 0.27216 0.87358 0.0
C1634 C 0.20843 0.29138 0.87692 0.0
C1635 C 0.20798 0.30877 0.85832 0.0
C1636 C 0.22274 0.30688 0.83736 0.0
C1637 C 0.19126 0.29333 0.89854 0.0
C1638 C 0.17055 0.30523 0.89418 0.0
C1639 C 0.19458 0.28373 0.92321 0.0
C1640 C 0.21509 0.26998 0.93028 0.0
C1641 C 0.23311 0.27876 0.9293 0.0
C1642 C 0.25229 0.26531 0.93613 0.0
C1643 C 0.25358 0.2432 0.94399 0.0
C1644 C 0.23571 0.23442 0.94505 0.0
C1645 C 0.2165 0.24775 0.93839 0.0
H1646 H 0.26842 0.2329 0.94934 0.0
H1647 H 0.07662 0.35234 0.88941 0.0
H1648 H 0.80216 0.09067 0.97777 0.0
H1649 H 0.79452 0.12805 0.9584 0.0
H1650 H 0.83703 0.106 0.89441 0.0
H1651 H 0.84457 0.06841 0.91354 0.0
H1652 H 0.84078 0.14628 0.90843 0.0
H1653 H 0.78476 0.11196 0.89216 0.0
H1654 H 0.75621 0.0924 0.90403 0.0
H1655 H 0.723 0.14561 0.94869 0.0
H1656 H 0.75152 0.16536 0.93734 0.0
H1657 H 0.8081 0.22661 0.81496 0.0
H1658 H 0.81387 0.19201 0.83964 0.0
H1659 H 0.77069 0.22285 0.89903 0.0
H1660 H 0.76452 0.25806 0.87369 0.0
H1661 H 0.76651 0.18003 0.89095 0.0
H1662 H 0.82052 0.21645 0.90337 0.0
H1663 H 0.84855 0.23647 0.89075 0.0
H1664 H 0.88595 0.17985 0.85462 0.0
H1665 H 0.85778 0.15969 0.8661 0.0
C1666 C 0.80986 0.0937 0.95954 0.0
C1667 C 0.82374 0.0764 0.94704 0.0
C1668 C 0.80552 0.11513 0.94854 0.0
C1669 C 0.81493 0.11974 0.92478 0.0
C1670 C 0.82955 0.10278 0.91274 0.0
C1671 C 0.8339 0.08129 0.92374 0.0
C1672 C 0.80884 0.14199 0.91202 0.0
C1673 C 0.82459 0.1536 0.90442 0.0
C1674 C 0.78759 0.15179 0.90743 0.0
C1675 C 0.77037 0.14002 0.91411 0.0
C1676 C 0.77145 0.11941 0.90466 0.0
C1677 C 0.75526 0.1083 0.91127 0.0
C1678 C 0.73783 0.11772 0.92716 0.0
C1679 C 0.73653 0.13831 0.93642 0.0
C1680 C 0.75269 0.14948 0.92989 0.0
C1681 C 0.79945 0.22616 0.83293 0.0
C1682 C 0.78558 0.24511 0.84211 0.0
C1683 C 0.80291 0.20626 0.84719 0.0
C1684 C 0.79294 0.20492 0.8713 0.0
C1685 C 0.77857 0.22358 0.88044 0.0
C1686 C 0.77508 0.24363 0.86602 0.0
C1687 C 0.79849 0.18418 0.88709 0.0
C1688 C 0.78267 0.17284 0.89521 0.0
C1689 C 0.81968 0.17468 0.89222 0.0
C1690 C 0.83686 0.18661 0.88539 0.0
C1691 C 0.83459 0.20832 0.89244 0.0
C1692 C 0.8505 0.21972 0.88544 0.0
C1693 C 0.86895 0.20948 0.8717 0.0
C1694 C 0.87155 0.18779 0.86504 0.0
C1695 C 0.85559 0.17638 0.87176 0.0
H1696 H 0.88126 0.21832 0.86633 0.0
H1697 H 0.72532 0.1091 0.93226 0.0
H1698 H 0.98647 0.72801 0.91474 0.0
H1699 H 0.95568 0.73538 0.8902 0.0
H1700 H 0.91815 0.7731 0.949 0.0
H1701 H 0.94902 0.76579 0.97366 0.0
H1702 H 0.89759 0.74347 0.93058 0.0
H1703 H 0.93334 0.79982 0.89809 0.0
H1704 H 0.96345 0.81502 0.87981 0.0
H1705 H 0.96892 0.7769 0.81564 0.0
H1706 H 0.93901 0.76122 0.83371 0.0
H1707 H 0.80848 0.78857 0.86211 0.0
H1708 H 0.83861 0.78323 0.88707 0.0
H1709 H 0.88028 0.75578 0.82463 0.0
H1710 H 0.85014 0.76204 0.79914 0.0
H1711 H 0.89861 0.78083 0.84578 0.0
H1712 H 0.86383 0.7234 0.87834 0.0
H1713 H 0.83322 0.70863 0.89578 0.0
H1714 H 0.82595 0.74809 0.95912 0.0
H1715 H 0.8564 0.76327 0.94192 0.0
C1716 C 0.97166 0.73781 0.92251 0.0
C1717 C 0.97026 0.7463 0.94621 0.0
C1718 C 0.95407 0.74214 0.90837 0.0
C1719 C 0.93454 0.7549 0.91763 0.0
C1720 C 0.93301 0.76324 0.94139 0.0
C1721 C 0.95072 0.75918 0.95542 0.0
C1722 C 0.91577 0.75935 0.90254 0.0
C1723 C 0.89771 0.75189 0.91217 0.0
C1724 C 0.916 0.76988 0.87824 0.0
C1725 C 0.93408 0.77916 0.86739 0.0
C1726 C 0.9411 0.79451 0.8802 0.0
C1727 C 0.9581 0.80325 0.86984 0.0
C1728 C 0.96813 0.79689 0.84661 0.0
C1729 C 0.96115 0.78179 0.83366 0.0
C1730 C 0.94417 0.77298 0.84394 0.0
C1731 C 0.82401 0.78123 0.85367 0.0
C1732 C 0.82678 0.77551 0.82861 0.0
C1733 C 0.84133 0.7781 0.86807 0.0
C1734 C 0.86187 0.76862 0.85807 0.0
C1735 C 0.86468 0.76305 0.83296 0.0
C1736 C 0.84738 0.76654 0.81838 0.0
C1737 C 0.8804 0.76474 0.87365 0.0
C1738 C 0.89844 0.77233 0.86414 0.0
C1739 C 0.8802 0.75418 0.898 0.0
C1740 C 0.8623 0.74458 0.90875 0.0
C1741 C 0.85567 0.72896 0.89596 0.0
C1742 C 0.83835 0.72052 0.9058 0.0
C1743 C 0.82762 0.72745 0.92852 0.0
C1744 C 0.83427 0.74274 0.94152 0.0
C1745 C 0.85159 0.75124 0.93176 0.0
H1746 H 0.81416 0.72096 0.93606 0.0
H1747 H 0.98127 0.80369 0.83862 0.0
H1748 H 0.08731 0.27958 0.14764 0.0
H1749 H 0.11162 0.28195 0.17881 0.0
H1750 H 0.16433 0.26625 0.12348 0.0
H1751 H 0.14034 0.26343 0.09262 0.0
H1752 H 0.17598 0.24636 0.16605 0.0
H1753 H 0.14093 0.32066 0.14089 0.0
H1754 H 0.11017 0.35149 0.13454 0.0
H1755 H 0.09114 0.34808 0.21308 0.0
H1756 H 0.12165 0.31701 0.21984 0.0
H1757 H 0.25324 0.29121 0.21465 0.0
H1758 H 0.22599 0.28563 0.1895 0.0
H1759 H 0.18134 0.29172 0.25437 0.0
H1760 H 0.20875 0.29694 0.27995 0.0
H1761 H 0.16413 0.31528 0.21051 0.0
H1762 H 0.20096 0.24311 0.23612 0.0
H1763 H 0.2318 0.21244 0.2425 0.0
H1764 H 0.24753 0.21168 0.16329 0.0
H1765 H 0.21708 0.24278 0.1564 0.0
C1766 C 0.10411 0.27626 0.14222 0.0
C1767 C 0.11172 0.27133 0.11745 0.0
C1768 C 0.11805 0.27784 0.16005 0.0
C1769 C 0.13998 0.27469 0.15359 0.0
C1770 C 0.14761 0.26886 0.12916 0.0
C1771 C 0.13374 0.26726 0.11141 0.0
C1772 C 0.15502 0.27807 0.17173 0.0
C1773 C 0.17341 0.26155 0.17554 0.0
C1774 C 0.15169 0.29762 0.18481 0.0
C1775 C 0.13343 0.31636 0.18082 0.0
C1776 C 0.1301 0.32639 0.15677 0.0
C1777 C 0.11272 0.34391 0.15311 0.0
C1778 C 0.09867 0.35169 0.17339 0.0
C1779 C 0.10201 0.342 0.19739 0.0
C1780 C 0.11935 0.32444 0.20115 0.0
C1781 C 0.23762 0.29155 0.22368 0.0
C1782 C 0.23333 0.29458 0.24949 0.0
C1783 C 0.22201 0.28823 0.20919 0.0
C1784 C 0.20152 0.2881 0.21994 0.0
C1785 C 0.19697 0.29173 0.24554 0.0
C1786 C 0.21271 0.29469 0.26019 0.0
C1787 C 0.18514 0.28373 0.20444 0.0
C1788 C 0.16658 0.30006 0.20112 0.0
C1789 C 0.18834 0.26403 0.19176 0.0
C1790 C 0.20683 0.24546 0.19576 0.0
C1791 C 0.21114 0.23661 0.22005 0.0
C1792 C 0.22854 0.21914 0.22377 0.0
C1793 C 0.24163 0.21019 0.20332 0.0
C1794 C 0.23741 0.21872 0.17911 0.0
C1795 C 0.22007 0.23628 0.17528 0.0
H1796 H 0.25494 0.19657 0.20625 0.0
H1797 H 0.08522 0.36526 0.17051 0.0
H1798 H 0.10407 0.74227 0.9868 0.0
H1799 H 0.13607 0.74625 0.96114 0.0
H1800 H 0.09854 0.79408 0.91186 0.0
H1801 H 0.06615 0.79008 0.93793 0.0
H1802 H 0.12734 0.76369 0.88493 0.0
H1803 H 0.13255 0.8084 0.95103 0.0
H1804 H 0.13276 0.81701 0.99485 0.0
H1805 H 0.18635 0.76308 1.00431 0.0
H1806 H 0.1862 0.75381 0.96068 0.0
H1807 H 0.22145 0.78248 0.81191 0.0
H1808 H 0.18738 0.78389 0.83581 0.0
H1809 H 0.21938 0.74708 0.89749 0.0
H1810 H 0.25341 0.74643 0.87379 0.0
H1811 H 0.19176 0.77578 0.91763 0.0
H1812 H 0.1757 0.72273 0.86281 0.0
H1813 H 0.17073 0.70721 0.82379 0.0
H1814 H 0.13935 0.77153 0.7954 0.0
H1815 H 0.14307 0.78714 0.83503 0.0
C1816 C 0.10257 0.75415 0.97089 0.0
C1817 C 0.08234 0.76618 0.96493 0.0
C1818 C 0.12105 0.75639 0.95605 0.0
C1819 C 0.12019 0.77062 0.93433 0.0
C1820 C 0.09998 0.78302 0.92847 0.0
C1821 C 0.08136 0.78097 0.94362 0.0
C1822 C 0.14022 0.77144 0.91739 0.0
C1823 C 0.14124 0.76686 0.89208 0.0
C1824 C 0.15897 0.77466 0.92642 0.0
C1825 C 0.15926 0.78032 0.9526 0.0
C1826 C 0.14428 0.79826 0.9625 0.0
C1827 C 0.14439 0.80325 0.98732 0.0
C1828 C 0.1595 0.79053 1.00239 0.0
C1829 C 0.1746 0.77284 0.99264 0.0
C1830 C 0.17452 0.76773 0.96786 0.0
C1831 C 0.2213 0.7742 0.83027 0.0
C1832 C 0.24052 0.76414 0.84057 0.0
C1833 C 0.20153 0.77494 0.84416 0.0
C1834 C 0.20013 0.76544 0.86889 0.0
C1835 C 0.21943 0.75479 0.87875 0.0
C1836 C 0.2391 0.75425 0.86498 0.0
C1837 C 0.1791 0.76763 0.88505 0.0
C1838 C 0.17785 0.77283 0.91031 0.0
C1839 C 0.16022 0.76457 0.87619 0.0
C1840 C 0.16008 0.75611 0.85149 0.0
C1841 C 0.16803 0.73357 0.84806 0.0
C1842 C 0.16519 0.72473 0.826 0.0
C1843 C 0.15494 0.73841 0.80698 0.0
C1844 C 0.14735 0.76097 0.8101 0.0
C1845 C 0.14962 0.76978 0.83245 0.0
H1846 H 0.15278 0.73151 0.7899 0.0
H1847 H 0.15956 0.79441 0.02159 0.0
H1848 H 0.29361 0.13147 0.04316 0.0
H1849 H 0.29924 0.15388 1.00499 0.0
H1850 H 0.30192 0.0984 0.96108 0.0
H1851 H 0.29695 0.07553 0.99968 0.0
H1852 H 0.3288 0.12438 0.93948 0.0
H1853 H 0.25517 0.13704 0.96898 0.0
H1854 H 0.22485 0.14501 1.00062 0.0
H1855 H 0.23978 0.2065 0.0131 0.0
H1856 H 0.27039 0.1987 0.98182 0.0
H1857 H 0.3035 0.19773 0.82987 0.0
H1858 H 0.3046 0.16881 0.86375 0.0
H1859 H 0.29725 0.21774 0.91799 0.0
H1860 H 0.295 0.24654 0.88471 0.0
H1861 H 0.27175 0.19213 0.93196 0.0
H1862 H 0.34545 0.17976 0.9025 0.0
H1863 H 0.37589 0.17192 0.87105 0.0
H1864 H 0.36139 0.11025 0.85845 0.0
H1865 H 0.33067 0.11788 0.88961 0.0
C1866 C 0.29595 0.12384 0.02543 0.0
C1867 C 0.29479 0.10173 0.02446 0.0
C1868 C 0.29901 0.13674 1.00355 0.0
C1869 C 0.30042 0.1281 0.97999 0.0
C1870 C 0.30074 0.10555 0.97897 0.0
C1871 C 0.29799 0.09244 1.00105 0.0
C1872 C 0.29981 0.14319 0.95685 0.0
C1873 C 0.31618 0.13904 0.93765 0.0
C1874 C 0.28349 0.1625 0.9544 0.0
C1875 C 0.26504 0.16729 0.97309 0.0
C1876 C 0.25201 0.15222 0.97855 0.0
C1877 C 0.23479 0.15669 0.99643 0.0
C1878 C 0.23039 0.17625 0.00886 0.0
C1879 C 0.24321 0.19136 1.00346 0.0
C1880 C 0.26048 0.18692 0.98566 0.0
C1881 C 0.3022 0.20231 0.84902 0.0
C1882 C 0.29943 0.22457 0.85437 0.0
C1883 C 0.30295 0.1857 0.86843 0.0
C1884 C 0.30115 0.19095 0.89362 0.0
C1885 C 0.29857 0.21313 0.89885 0.0
C1886 C 0.29757 0.22966 0.87961 0.0
C1887 C 0.30107 0.17378 0.91477 0.0
C1888 C 0.2844 0.17748 0.93363 0.0
C1889 C 0.31713 0.15415 0.9168 0.0
C1890 C 0.33564 0.1495 0.89818 0.0
C1891 C 0.34866 0.16461 0.89289 0.0
C1892 C 0.36597 0.16019 0.87514 0.0
C1893 C 0.37053 0.14063 0.86271 0.0
C1894 C 0.35781 0.12542 0.86806 0.0
C1895 C 0.34046 0.12977 0.88577 0.0
H1896 H 0.38394 0.13724 0.84897 0.0
H1897 H 0.21704 0.17969 0.02268 0.0
H1898 H 0.99575 0.24272 0.06561 0.0
H1899 H 0.9707 0.24379 0.03429 0.0
H1900 H 1.00926 0.2749 0.98004 0.0
H1901 H 0.03424 0.27403 0.0112 0.0
H1902 H 0.96926 0.29719 0.98101 0.0
H1903 H 1.0047 0.22084 0.97637 0.0
H1904 H 1.0182 0.18267 0.99286 0.0
H1905 H 0.95515 0.1778 0.01927 0.0
H1906 H 0.9413 0.21607 1.00323 0.0
H1907 H 0.91758 0.29902 0.87372 0.0
H1908 H 0.9446 0.28756 0.90344 0.0
H1909 H 0.90133 0.25911 0.9539 0.0
H1910 H 0.87421 0.27028 0.92368 0.0
H1911 H 0.94235 0.23465 0.95631 0.0
H1912 H 0.90682 0.31045 0.96142 0.0
H1913 H 0.89281 0.34858 0.94514 0.0
H1914 H 0.95559 0.35467 0.91911 0.0
H1915 H 0.96995 0.31642 0.93486 0.0
C1916 C 0.99915 0.2494 0.04688 0.0
C1917 C 1.01713 0.25829 0.04108 0.0
C1918 C 0.98476 0.25 0.02891 0.0
C1919 C 0.98797 0.25943 1.00463 0.0
C1920 C 1.00628 0.26761 0.99859 0.0
C1921 C 0.02067 0.26698 0.01648 0.0
C1922 C 0.97173 0.26215 0.986 0.0
C1923 C 0.96367 0.2834 0.97539 0.0
C1924 C 0.96371 0.2444 0.97916 0.0
C1925 C 0.97199 0.22141 0.98883 0.0
C1926 C 0.99373 0.2117 0.98589 0.0
C1927 C 1.00144 0.19003 0.99511 0.0
C1928 C 0.98755 0.17784 0.00717 0.0
C1929 C 0.9659 0.18728 0.00996 0.0
C1930 C 0.95811 0.20895 1.00079 0.0
C1931 C 0.91398 0.28982 0.89088 0.0
C1932 C 0.89372 0.28562 0.89638 0.0
C1933 C 0.92941 0.2834 0.90798 0.0
C1934 C 0.92494 0.27292 0.9313 0.0
C1935 C 0.9052 0.26728 0.93615 0.0
C1936 C 0.88971 0.27358 0.91883 0.0
C1937 C 0.94029 0.2696 0.95104 0.0
C1938 C 0.94803 0.24837 0.96195 0.0
C1939 C 0.94799 0.28739 0.95836 0.0
C1940 C 0.93944 0.3105 0.94913 0.0
C1941 C 0.91763 0.31987 0.95208 0.0
C1942 C 0.90962 0.3415 0.94295 0.0
C1943 C 0.92329 0.35402 0.93105 0.0
C1944 C 0.94501 0.34494 0.92831 0.0
C1945 C 0.9531 0.32329 0.93734 0.0
H1946 H 0.91707 0.37077 0.924 0.0
H1947 H 0.99355 0.16106 0.01429 0.0
H1948 H 0.76408 0.98611 0.93813 0.0
H1949 H 0.75442 0.96278 0.90853 0.0
H1950 H 0.80975 0.9119 0.92371 0.0
H1951 H 0.81968 0.93514 0.95225 0.0
H1952 H 0.80811 0.9171 0.87654 0.0
H1953 H 0.75746 0.90891 0.94573 0.0
H1954 H 0.72817 0.92144 0.97753 0.0
H1955 H 0.68767 0.95058 0.9198 0.0
H1956 H 0.71682 0.93846 0.88764 0.0
H1957 H 0.78892 0.82139 0.83324 0.0
H1958 H 0.78972 0.84881 0.86249 0.0
H1959 H 0.74582 0.89742 0.82083 0.0
H1960 H 0.74496 0.86967 0.7912 0.0
H1961 H 0.73906 0.89661 0.87773 0.0
H1962 H 0.79151 0.90092 0.80856 0.0
H1963 H 0.8216 0.88561 0.77889 0.0
H1964 H 0.85974 0.8605 0.83992 0.0
H1965 H 0.82979 0.87541 0.86999 0.0
C1966 C 0.77402 0.96986 0.93524 0.0
C1967 C 0.79273 0.96257 0.94737 0.0
C1968 C 0.76848 0.9565 0.91837 0.0
C1969 C 0.78137 0.93549 0.91375 0.0
C1970 C 0.79964 0.92807 0.92659 0.0
C1971 C 0.80528 0.94143 0.94302 0.0
C1972 C 0.7767 0.9213 0.89497 0.0
C1973 C 0.79301 0.91259 0.87701 0.0
C1974 C 0.75689 0.91565 0.89502 0.0
C1975 C 0.73939 0.92304 0.9143 0.0
C1976 C 0.74236 0.91817 0.93983 0.0
C1977 C 0.72578 0.92516 0.95791 0.0
C1978 C 0.70609 0.93687 0.9507 0.0
C1979 C 0.70294 0.94156 0.92537 0.0
C1980 C 0.71948 0.93463 0.9072 0.0
C1981 C 0.77893 0.83762 0.83061 0.0
C1982 C 0.76645 0.84316 0.81022 0.0
C1983 C 0.77954 0.8534 0.84729 0.0
C1984 C 0.76782 0.87514 0.84384 0.0
C1985 C 0.75487 0.88068 0.82391 0.0
C1986 C 0.75444 0.86488 0.807 0.0
C1987 C 0.7706 0.89227 0.85996 0.0
C1988 C 0.754 0.90146 0.87725 0.0
C1989 C 0.79027 0.89812 0.85965 0.0
C1990 C 0.80833 0.88916 0.84155 0.0
C1991 C 0.80625 0.89198 0.81567 0.0
C1992 C 0.82331 0.88342 0.79877 0.0
C1993 C 0.84258 0.87213 0.80752 0.0
C1994 C 0.84482 0.86931 0.83317 0.0
C1995 C 0.82781 0.87783 0.85015 0.0
H1996 H 0.8558 0.86559 0.79442 0.0
H1997 H 0.69327 0.94226 0.96473 0.0
H1998 H 0.99505 0.76788 0.09333 0.0
H1999 H 0.96864 0.77001 0.12957 0.0
H2000 H 0.91989 0.77282 0.08027 0.0
H2001 H 0.9463 0.77015 0.04427 0.0
H2002 H 0.90566 0.80142 0.1194 0.0
H2003 H 0.94022 0.72533 0.11028 0.0
H2004 H 0.97087 0.69372 0.10682 0.0
H2005 H 0.98771 0.70466 0.17904 0.0
H2006 H 0.95732 0.73656 0.18277 0.0
H2007 H 0.8261 0.78144 0.21381 0.0
H2008 H 0.85057 0.78106 0.17641 0.0
H2009 H 0.90302 0.75636 0.22163 0.0
H2010 H 0.87829 0.75488 0.25847 0.0
H2011 H 0.91529 0.73874 0.18297 0.0
H2012 H 0.88636 0.81705 0.19018 0.0
H2013 H 0.85935 0.85184 0.19318 0.0
H2014 H 0.83414 0.83912 0.12656 0.0
H2015 H 0.86132 0.80431 0.1231 0.0
C2016 C 0.9786 0.76973 0.09014 0.0
C2017 C 0.97281 0.76952 0.06565 0.0
C2018 C 0.96345 0.77061 0.11099 0.0
C2019 C 0.94201 0.77145 0.10801 0.0
C2020 C 0.93613 0.77226 0.08342 0.0
C2021 C 0.9513 0.77094 0.0627 0.0
C2022 C 0.92593 0.77044 0.13029 0.0
C2023 C 0.90772 0.78758 0.13315 0.0
C2024 C 0.92845 0.75272 0.14881 0.0
C2025 C 0.94663 0.73347 0.14668 0.0
C2026 C 0.95056 0.72111 0.12533 0.0
C2027 C 0.96787 0.70312 0.12334 0.0
C2028 C 0.98126 0.69722 0.14267 0.0
C2029 C 0.97734 0.70927 0.16406 0.0
C2030 C 0.96008 0.7273 0.16613 0.0
C2031 C 0.84278 0.77529 0.21569 0.0
C2032 C 0.84995 0.76747 0.23932 0.0
C2033 C 0.85704 0.77564 0.19417 0.0
C2034 C 0.87919 0.76915 0.19556 0.0
C2035 C 0.88626 0.76139 0.21931 0.0
C2036 C 0.87198 0.76054 0.24064 0.0
C2037 C 0.89499 0.7701 0.1727 0.0
C2038 C 0.91315 0.75277 0.16947 0.0
C2039 C 0.89261 0.78786 0.15404 0.0
C2040 C 0.8756 0.80801 0.15666 0.0
C2041 C 0.87485 0.82156 0.17643 0.0
C2042 C 0.85959 0.84132 0.1781 0.0
C2043 C 0.84493 0.84764 0.16012 0.0
C2044 C 0.84549 0.83417 0.14047 0.0
C2045 C 0.86087 0.81448 0.13859 0.0
H2046 H 0.83327 0.86304 0.16124 0.0
H2047 H 0.99465 0.68329 0.14109 0.0
H2048 H 0.3156 0.99344 0.11742 0.0
H2049 H 0.32462 0.95865 0.14326 0.0
H2050 H 0.25867 0.95702 0.15383 0.0
H2051 H 0.24968 0.99148 0.12883 0.0
H2052 H 0.27435 0.95088 0.19688 0.0
H2053 H 0.2971 0.91872 0.11598 0.0
H2054 H 0.31857 0.91369 0.07561 0.0
H2055 H 0.37539 0.90176 0.11334 0.0
H2056 H 0.35431 0.90629 0.15397 0.0
H2057 H 0.27177 0.84507 0.25192 0.0
H2058 H 0.2693 0.87958 0.22709 0.0
H2059 H 0.33724 0.865 0.21303 0.0
H2060 H 0.33924 0.829 0.23561 0.0
H2061 H 0.32453 0.88143 0.17396 0.0
H2062 H 0.30076 0.90867 0.25614 0.0
H2063 H 0.27858 0.91376 0.29596 0.0
H2064 H 0.22316 0.93688 0.25619 0.0
H2065 H 0.24476 0.9318 0.2162 0.0
C2066 C 0.30311 0.98547 0.12505 0.0
C2067 C 0.28189 0.99546 0.12125 0.0
C2068 C 0.30827 0.96552 0.13978 0.0
C2069 C 0.29233 0.95508 0.15071 0.0
C2070 C 0.27131 0.9647 0.14597 0.0
C2071 C 0.26618 0.98453 0.13156 0.0
C2072 C 0.29683 0.93501 0.16838 0.0
C2073 C 0.28524 0.93561 0.1918 0.0
C2074 C 0.31157 0.91528 0.16235 0.0
C2075 C 0.32415 0.9131 0.13793 0.0
C2076 C 0.31417 0.91521 0.11562 0.0
C2077 C 0.32625 0.91239 0.09272 0.0
C2078 C 0.34829 0.90765 0.09189 0.0
C2079 C 0.35832 0.90552 0.11399 0.0
C2080 C 0.34632 0.9081 0.13697 0.0
C2081 C 0.28624 0.84951 0.24427 0.0
C2082 C 0.30583 0.83471 0.24691 0.0
C2083 C 0.28486 0.86948 0.22997 0.0
C2084 C 0.30313 0.87581 0.2187 0.0
C2085 C 0.32279 0.86097 0.22156 0.0
C2086 C 0.32403 0.84046 0.23487 0.0
C2087 C 0.3016 0.89696 0.20257 0.0
C2088 C 0.31381 0.89666 0.17942 0.0
C2089 C 0.28738 0.9171 0.20891 0.0
C2090 C 0.2744 0.91968 0.23314 0.0
C2091 C 0.28381 0.91462 0.2559 0.0
C2092 C 0.27131 0.91743 0.27853 0.0
C2093 C 0.24945 0.92528 0.27869 0.0
C2094 C 0.24002 0.93053 0.25616 0.0
C2095 C 0.25238 0.92776 0.23349 0.0
H2096 H 0.23985 0.92745 0.29625 0.0
H2097 H 0.35759 0.90552 0.07413 0.0
H2098 H 0.76638 0.07382 0.02516 0.0
H2099 H 0.75811 0.10585 0.0512 0.0
H2100 H 0.79141 0.06598 0.11026 0.0
H2101 H 0.79977 0.03423 0.08436 0.0
H2102 H 0.75535 0.09628 0.12834 0.0
H2103 H 0.81737 0.09439 0.07035 0.0
H2104 H 0.83628 0.09301 0.02836 0.0
H2105 H 0.79413 0.15331 1.0049 0.0
H2106 H 0.77477 0.15488 0.0467 0.0
H2107 H 0.77546 0.18077 0.1969 0.0
H2108 H 0.78117 0.14746 0.17341 0.0
H2109 H 0.75982 0.18773 0.10788 0.0
H2110 H 0.75545 0.22074 0.13059 0.0
H2111 H 0.78937 0.15655 0.09321 0.0
H2112 H 0.72712 0.15957 0.1499 0.0
H2113 H 0.7067 0.16124 0.19099 0.0
H2114 H 0.7466 0.09992 0.21578 0.0
H2115 H 0.76743 0.09803 0.17492 0.0
C2116 C 0.77124 0.07178 0.04402 0.0
C2117 C 0.78366 0.05163 0.05283 0.0
C2118 C 0.7667 0.09008 0.05879 0.0
C2119 C 0.7744 0.08833 0.08256 0.0
C2120 C 0.78534 0.06772 0.09202 0.0
C2121 C 0.7901 0.04961 0.07721 0.0
C2122 C 0.77312 0.10818 0.09661 0.0
C2123 C 0.76285 0.10944 0.12076 0.0
C2124 C 0.78274 0.12543 0.0866 0.0
C2125 C 0.79453 0.12465 0.06158 0.0
C2126 C 0.81206 0.10728 0.0562 0.0
C2127 C 0.82286 0.10647 0.03244 0.0
C2128 C 0.81641 0.12307 0.01399 0.0
C2129 C 0.79912 0.14048 0.01923 0.0
C2130 C 0.78823 0.14135 0.04295 0.0
C2131 C 0.77244 0.18247 0.17735 0.0
C2132 C 0.76459 0.20339 0.16579 0.0
C2133 C 0.77542 0.16341 0.164 0.0
C2134 C 0.77035 0.16495 0.13898 0.0
C2135 C 0.76367 0.18594 0.12715 0.0
C2136 C 0.76099 0.20486 0.1403 0.0
C2137 C 0.77131 0.14497 0.12504 0.0
C2138 C 0.78168 0.14356 0.10088 0.0
C2139 C 0.76152 0.12774 0.13494 0.0
C2140 C 0.74896 0.12879 0.15946 0.0
C2141 C 0.73162 0.14652 0.16418 0.0
C2142 C 0.71996 0.14749 0.18741 0.0
C2143 C 0.72538 0.13072 0.20601 0.0
C2144 C 0.74244 0.11291 0.20137 0.0
C2145 C 0.75417 0.11188 0.17818 0.0
H2146 H 0.71634 0.13151 0.22399 0.0
H2147 H 0.82486 0.12247 0.99565 0.0
H2148 H 0.59247 0.57444 0.88763 0.0
H2149 H 0.61437 0.60132 0.88673 0.0
H2150 H 0.60135 0.62133 0.81031 0.0
H2151 H 0.57942 0.59439 0.81107 0.0
H2152 H 0.6423 0.6185 0.81638 0.0
H2153 H 0.57598 0.65271 0.85829 0.0
H2154 H 0.54552 0.65536 0.88971 0.0
H2155 H 0.58682 0.64812 0.94863 0.0
H2156 H 0.61758 0.64512 0.91756 0.0
H2157 H 0.67559 0.7204 0.81501 0.0
H2158 H 0.65638 0.69153 0.81226 0.0
H2159 H 0.66829 0.66842 0.88825 0.0
H2160 H 0.68772 0.69701 0.89107 0.0
H2161 H 0.6273 0.67362 0.88099 0.0
H2162 H 0.69349 0.63569 0.83994 0.0
H2163 H 0.7244 0.63228 0.80916 0.0
H2164 H 0.68351 0.64777 0.74932 0.0
H2165 H 0.65231 0.65076 0.77985 0.0
C2166 C 0.59413 0.58463 0.87067 0.0
C2167 C 0.58401 0.58231 0.84949 0.0
C2168 C 0.60671 0.6 0.87016 0.0
C2169 C 0.6093 0.61362 0.84856 0.0
C2170 C 0.59961 0.61103 0.8272 0.0
C2171 C 0.58709 0.59557 0.82765 0.0
C2172 C 0.62182 0.63077 0.84848 0.0
C2173 C 0.63881 0.63073 0.83031 0.0
C2174 C 0.61758 0.64657 0.86686 0.0
C2175 C 0.5991 0.64849 0.8856 0.0
C2176 C 0.57858 0.65152 0.87795 0.0
C2177 C 0.56127 0.65312 0.8957 0.0
C2178 C 0.56424 0.65186 0.92115 0.0
C2179 C 0.58454 0.64906 0.92891 0.0
C2180 C 0.60192 0.64744 0.91124 0.0
C2181 C 0.67447 0.70895 0.83101 0.0
C2182 C 0.68309 0.71121 0.85335 0.0
C2183 C 0.66344 0.69243 0.82941 0.0
C2184 C 0.66088 0.67775 0.85005 0.0
C2185 C 0.66991 0.67964 0.87214 0.0
C2186 C 0.68095 0.69608 0.87374 0.0
C2187 C 0.64793 0.66114 0.84916 0.0
C2188 C 0.63077 0.66137 0.86707 0.0
C2189 C 0.65201 0.64557 0.83057 0.0
C2190 C 0.67062 0.64364 0.81214 0.0
C2191 C 0.69111 0.63844 0.82021 0.0
C2192 C 0.70867 0.63655 0.80281 0.0
C2193 C 0.70594 0.64005 0.77728 0.0
C2194 C 0.68561 0.64513 0.7691 0.0
C2195 C 0.66798 0.64678 0.78643 0.0
H2196 H 0.71957 0.63873 0.76386 0.0
H2197 H 0.55081 0.65309 0.93487 0.0
H2198 H 0.46148 0.55522 0.81504 0.0
H2199 H 0.43083 0.5857 0.80837 0.0
H2200 H 0.4724 0.6295 0.78639 0.0
H2201 H 0.50326 0.59865 0.79231 0.0
H2202 H 0.43878 0.64397 0.82661 0.0
H2203 H 0.44715 0.61913 0.74332 0.0
H2204 H 0.45119 0.59163 0.71178 0.0
H2205 H 0.39152 0.57756 0.73947 0.0
H2206 H 0.38726 0.60475 0.77144 0.0
H2207 H 0.35675 0.73752 0.8017 0.0
H2208 H 0.38861 0.70829 0.80085 0.0
H2209 H 0.3515 0.66044 0.79468 0.0
H2210 H 0.3195 0.69019 0.79387 0.0
H2211 H 0.38437 0.64831 0.76722 0.0
H2212 H 0.37564 0.67011 0.8514 0.0
H2213 H 0.37071 0.6958 0.88507 0.0
H2214 H 0.42953 0.71292 0.85962 0.0
H2215 H 0.43471 0.68751 0.82561 0.0
C2216 C 0.46411 0.57118 0.80798 0.0
C2217 C 0.48481 0.5744 0.80367 0.0
C2218 C 0.44655 0.58866 0.80432 0.0
C2219 C 0.44918 0.61001 0.7969 0.0
C2220 C 0.4699 0.6132 0.79206 0.0
C2221 C 0.48755 0.59552 0.79514 0.0
C2222 C 0.43027 0.62901 0.79578 0.0
C2223 C 0.42704 0.64516 0.81334 0.0
C2224 C 0.41448 0.63017 0.77915 0.0
C2225 C 0.41699 0.61383 0.75994 0.0
C2226 C 0.43498 0.61002 0.74284 0.0
C2227 C 0.43729 0.59452 0.72485 0.0
C2228 C 0.42165 0.58281 0.72366 0.0
C2229 C 0.40363 0.58662 0.74043 0.0
C2230 C 0.40126 0.60209 0.75848 0.0
C2231 C 0.3552 0.72078 0.80064 0.0
C2232 C 0.33533 0.71634 0.79821 0.0
C2233 C 0.37363 0.70389 0.80012 0.0
C2234 C 0.3728 0.68174 0.79831 0.0
C2235 C 0.35288 0.67723 0.79612 0.0
C2236 C 0.33446 0.6943 0.79585 0.0
C2237 C 0.39261 0.66346 0.79826 0.0
C2238 C 0.39603 0.64732 0.78052 0.0
C2239 C 0.40839 0.66202 0.81514 0.0
C2240 C 0.40545 0.67707 0.8358 0.0
C2241 C 0.38747 0.67943 0.85291 0.0
C2242 C 0.38465 0.69392 0.87207 0.0
C2243 C 0.39981 0.70596 0.87449 0.0
C2244 C 0.41782 0.70355 0.85775 0.0
C2245 C 0.42072 0.6891 0.83854 0.0
H2246 H 0.3976 0.71716 0.88935 0.0
H2247 H 0.42346 0.57082 0.70972 0.0
H2248 H 0.51243 0.4385 0.85534 0.0
H2249 H 0.48609 0.41709 0.85113 0.0
H2250 H 0.44305 0.47613 0.82493 0.0
H2251 H 0.46931 0.49765 0.82922 0.0
H2252 H 0.42443 0.45123 0.86179 0.0
H2253 H 0.46771 0.43992 0.78429 0.0
H2254 H 0.50115 0.42922 0.75808 0.0
H2255 H 0.51107 0.3634 0.79203 0.0
H2256 H 0.47782 0.3738 0.81873 0.0
H2257 H 0.34588 0.40648 0.82289 0.0
H2258 H 0.37508 0.42516 0.82039 0.0
H2259 H 0.41768 0.36339 0.83976 0.0
H2260 H 0.38839 0.3445 0.84148 0.0
H2261 H 0.43746 0.38855 0.80681 0.0
H2262 H 0.39527 0.39898 0.8844 0.0
H2263 H 0.3623 0.40887 0.91164 0.0
H2264 H 0.35127 0.47535 0.87954 0.0
H2265 H 0.38402 0.46576 0.85179 0.0
C2266 C 0.49731 0.44694 0.84884 0.0
C2267 C 0.49292 0.46979 0.84265 0.0
C2268 C 0.48235 0.43465 0.84623 0.0
C2269 C 0.46267 0.44498 0.83753 0.0
C2270 C 0.45817 0.46782 0.83158 0.0
C2271 C 0.4732 0.48007 0.83393 0.0
C2272 C 0.44656 0.43211 0.83521 0.0
C2273 C 0.42717 0.43772 0.84951 0.0
C2274 C 0.45042 0.41402 0.8198 0.0
C2275 C 0.47038 0.40771 0.8037 0.0
C2276 C 0.47711 0.42322 0.78633 0.0
C2277 C 0.49602 0.41719 0.77135 0.0
C2278 C 0.50826 0.39566 0.77344 0.0
C2279 C 0.50159 0.38008 0.79046 0.0
C2280 C 0.4827 0.38603 0.80551 0.0
C2281 C 0.36159 0.39684 0.82606 0.0
C2282 C 0.36495 0.37413 0.83249 0.0
C2283 C 0.37823 0.40752 0.82479 0.0
C2284 C 0.39848 0.39579 0.83052 0.0
C2285 C 0.40217 0.3728 0.83542 0.0
C2286 C 0.38549 0.36202 0.83636 0.0
C2287 C 0.4152 0.40788 0.83315 0.0
C2288 C 0.43472 0.40207 0.81906 0.0
C2289 C 0.41159 0.42569 0.84898 0.0
C2290 C 0.39201 0.43159 0.86586 0.0
C2291 C 0.38575 0.41567 0.88303 0.0
C2292 C 0.3671 0.42122 0.89857 0.0
C2293 C 0.35468 0.44271 0.89728 0.0
C2294 C 0.3609 0.45871 0.88049 0.0
C2295 C 0.37951 0.45322 0.86486 0.0
H2296 H 0.34024 0.44698 0.90933 0.0
H2297 H 0.52289 0.39102 0.76182 0.0
H2298 H 0.60839 0.49559 0.7967 0.0
H2299 H 0.64144 0.46702 0.79587 0.0
H2300 H 0.60769 0.41895 0.77931 0.0
H2301 H 0.57485 0.44718 0.78017 0.0
H2302 H 0.63152 0.40313 0.8165 0.0
H2303 H 0.64255 0.43906 0.73576 0.0
H2304 H 0.64628 0.46986 0.70533 0.0
H2305 H 0.69869 0.47951 0.74189 0.0
H2306 H 0.69505 0.44899 0.7728 0.0
H2307 H 0.71734 0.31227 0.79147 0.0
H2308 H 0.68636 0.34277 0.78887 0.0
H2309 H 0.72411 0.38868 0.80053 0.0
H2310 H 0.75537 0.35835 0.80202 0.0
H2311 H 0.6988 0.40638 0.76669 0.0
H2312 H 0.68771 0.37133 0.84772 0.0
H2313 H 0.68462 0.34032 0.87814 0.0
H2314 H 0.63278 0.32932 0.84156 0.0
H2315 H 0.63573 0.3601 0.81071 0.0
C2316 C 0.60807 0.47904 0.79241 0.0
C2317 C 0.58879 0.47383 0.78851 0.0
C2318 C 0.62704 0.46264 0.79196 0.0
C2319 C 0.62724 0.44063 0.78756 0.0
C2320 C 0.60812 0.43565 0.7829 0.0
C2321 C 0.58925 0.45196 0.78328 0.0
C2322 C 0.64691 0.42247 0.7891 0.0
C2323 C 0.64613 0.4038 0.80533 0.0
C2324 C 0.66633 0.42337 0.77518 0.0
C2325 C 0.66832 0.44194 0.75683 0.0
C2326 C 0.65471 0.44792 0.7375 0.0
C2327 C 0.65684 0.4653 0.72012 0.0
C2328 C 0.67266 0.4767 0.72174 0.0
C2329 C 0.6864 0.47071 0.74071 0.0
C2330 C 0.68431 0.45338 0.75816 0.0
C2331 C 0.71912 0.32881 0.79367 0.0
C2332 C 0.73899 0.3326 0.79747 0.0
C2333 C 0.70124 0.34634 0.79228 0.0
C2334 C 0.70256 0.36822 0.79501 0.0
C2335 C 0.72244 0.37207 0.79854 0.0
C2336 C 0.74036 0.35455 0.79971 0.0
C2337 C 0.68333 0.38701 0.79397 0.0
C2338 C 0.6842 0.40577 0.7779 0.0
C2339 C 0.66398 0.3863 0.80815 0.0
C2340 C 0.66206 0.3679 0.82678 0.0
C2341 C 0.67573 0.36221 0.84608 0.0
C2342 C 0.674 0.34469 0.86341 0.0
C2343 C 0.65855 0.33282 0.86175 0.0
C2344 C 0.64476 0.33851 0.8428 0.0
C2345 C 0.64644 0.356 0.82541 0.0
H2346 H 0.65724 0.31926 0.87518 0.0
H2347 H 0.6743 0.49012 0.70824 0.0
H2348 H 0.61637 0.50047 0.24625 0.0
H2349 H 0.64591 0.46984 0.25487 0.0
H2350 H 0.61254 0.45274 0.32388 0.0
H2351 H 0.58248 0.48393 0.31532 0.0
H2352 H 0.65808 0.44627 0.32664 0.0
H2353 H 0.60989 0.42532 0.27681 0.0
H2354 H 0.58725 0.42947 0.2419 0.0
H2355 H 0.64138 0.42735 0.18924 0.0
H2356 H 0.6643 0.42354 0.22386 0.0
H2357 H 0.71126 0.32569 0.28808 0.0
H2358 H 0.68209 0.35788 0.29032 0.0
H2359 H 0.72552 0.39889 0.29831 0.0
H2360 H 0.75511 0.36632 0.29628 0.0
H2361 H 0.67296 0.39242 0.26063 0.0
H2362 H 0.69848 0.44503 0.33091 0.0
H2363 H 0.71979 0.4394 0.36726 0.0
H2364 H 0.70863 0.37438 0.38245 0.0
H2365 H 0.68685 0.37977 0.3466 0.0
C2366 C 0.61529 0.49045 0.2635 0.0
C2367 C 0.59685 0.49456 0.27994 0.0
C2368 C 0.63231 0.47289 0.26841 0.0
C2369 C 0.63144 0.45869 0.28982 0.0
C2370 C 0.61361 0.46344 0.30719 0.0
C2371 C 0.59643 0.48127 0.3023 0.0
C2372 C 0.64832 0.43795 0.29234 0.0
C2373 C 0.66133 0.43444 0.31228 0.0
C2374 C 0.65248 0.42227 0.27382 0.0
C2375 C 0.63878 0.42433 0.25294 0.0
C2376 C 0.61694 0.4259 0.25779 0.0
C2377 C 0.60406 0.42817 0.23805 0.0
C2378 C 0.61287 0.42872 0.21337 0.0
C2379 C 0.63458 0.42694 0.20837 0.0
C2380 C 0.64752 0.42471 0.22805 0.0
C2381 C 0.71479 0.3415 0.2902 0.0
C2382 C 0.73573 0.34332 0.29165 0.0
C2383 C 0.69794 0.36001 0.29157 0.0
C2384 C 0.70139 0.38099 0.29456 0.0
C2385 C 0.72228 0.38291 0.29632 0.0
C2386 C 0.73924 0.36426 0.29502 0.0
C2387 C 0.68312 0.40071 0.29475 0.0
C2388 C 0.6698 0.40411 0.27515 0.0
C2389 C 0.67857 0.41596 0.31384 0.0
C2390 C 0.69123 0.41273 0.33584 0.0
C2391 C 0.70048 0.42957 0.34207 0.0
C2392 C 0.71266 0.42642 0.36258 0.0
C2393 C 0.71567 0.4065 0.37705 0.0
C2394 C 0.70637 0.38976 0.37116 0.0
C2395 C 0.6941 0.39286 0.35074 0.0
H2396 H 0.72515 0.40409 0.39286 0.0
H2397 H 0.60287 0.43048 0.19811 0.0
H2398 H 0.61348 0.56629 0.24993 0.0
H2399 H 0.64125 0.58629 0.2516 0.0
H2400 H 0.60032 0.64577 0.22265 0.0
H2401 H 0.57268 0.62554 0.22031 0.0
H2402 H 0.63807 0.64332 0.20164 0.0
H2403 H 0.61018 0.63686 0.28602 0.0
H2404 H 0.59825 0.61832 0.32506 0.0
H2405 H 0.66093 0.57833 0.33067 0.0
H2406 H 0.67318 0.59642 0.29146 0.0
H2407 H 0.70856 0.70805 0.23447 0.0
H2408 H 0.67648 0.69356 0.23568 0.0
H2409 H 0.71383 0.62736 0.24711 0.0
H2410 H 0.7458 0.64168 0.24555 0.0
H2411 H 0.67521 0.6374 0.27882 0.0
H2412 H 0.70124 0.64341 0.19141 0.0
H2413 H 0.71207 0.66373 0.1531 0.0
H2414 H 0.65064 0.70755 0.15507 0.0
H2415 H 0.63954 0.68766 0.19364 0.0
C2416 C 0.61041 0.58364 0.24398 0.0
C2417 C 0.59087 0.59438 0.23514 0.0
C2418 C 0.62625 0.59511 0.24503 0.0
C2419 C 0.62276 0.61772 0.2378 0.0
C2420 C 0.6034 0.62838 0.22844 0.0
C2421 C 0.58762 0.6168 0.22705 0.0
C2422 C 0.63944 0.63006 0.23982 0.0
C2423 C 0.64588 0.64232 0.2187 0.0
C2424 C 0.64981 0.62877 0.262 0.0
C2425 C 0.64255 0.61789 0.28568 0.0
C2426 C 0.62139 0.62401 0.29548 0.0
C2427 C 0.61457 0.61359 0.31766 0.0
C2428 C 0.62881 0.59712 0.33031 0.0
C2429 C 0.64991 0.59108 0.32084 0.0
C2430 C 0.65681 0.60143 0.29865 0.0
C2431 C 0.70981 0.69044 0.23749 0.0
C2432 C 0.72961 0.67594 0.23979 0.0
C2433 C 0.69155 0.6822 0.23808 0.0
C2434 C 0.69284 0.65938 0.24136 0.0
C2435 C 0.71251 0.645 0.24456 0.0
C2436 C 0.73074 0.65318 0.24356 0.0
C2437 C 0.67394 0.6502 0.24059 0.0
C2438 C 0.66712 0.63856 0.26194 0.0
C2439 C 0.66301 0.65236 0.21879 0.0
C2440 C 0.66965 0.66423 0.19556 0.0
C2441 C 0.69011 0.65751 0.18381 0.0
C2442 C 0.69628 0.66892 0.16202 0.0
C2443 C 0.68208 0.68697 0.1517 0.0
C2444 C 0.66164 0.6936 0.16311 0.0
C2445 C 0.6554 0.68226 0.18493 0.0
H2446 H 0.68688 0.69578 0.13483 0.0
H2447 H 0.6235 0.58908 0.34748 0.0
H2448 H 0.50448 0.60769 0.29851 0.0
H2449 H 0.47686 0.64177 0.30354 0.0
H2450 H 0.43085 0.60874 0.28189 0.0
H2451 H 0.4584 0.57528 0.27602 0.0
H2452 H 0.42809 0.64491 0.25519 0.0
H2453 H 0.43258 0.62645 0.34387 0.0
H2454 H 0.45074 0.61795 0.38272 0.0
H2455 H 0.46857 0.68026 0.37339 0.0
H2456 H 0.45074 0.68902 0.3343 0.0
H2457 H 0.33115 0.71819 0.27778 0.0
H2458 H 0.36176 0.68774 0.27999 0.0
H2459 H 0.39867 0.73155 0.3004 0.0
H2460 H 0.36737 0.76244 0.29918 0.0
H2461 H 0.40919 0.6932 0.32649 0.0
H2462 H 0.40348 0.71245 0.23922 0.0
H2463 H 0.38569 0.72115 0.20012 0.0
H2464 H 0.37081 0.6574 0.20646 0.0
H2465 H 0.38837 0.64837 0.2457 0.0
C2466 C 0.48832 0.60758 0.29564 0.0
C2467 C 0.48358 0.58874 0.28705 0.0
C2468 C 0.4725 0.62712 0.29841 0.0
C2469 C 0.45158 0.62806 0.29302 0.0
C2470 C 0.44677 0.60872 0.28596 0.0
C2471 C 0.46254 0.58945 0.28282 0.0
C2472 C 0.43496 0.64927 0.29251 0.0
C2473 C 0.42386 0.65525 0.27099 0.0
C2474 C 0.42985 0.66353 0.31254 0.0
C2475 C 0.44053 0.65827 0.33603 0.0
C2476 C 0.44052 0.63826 0.35 0.0
C2477 C 0.45073 0.63341 0.37208 0.0
C2478 C 0.46086 0.64852 0.38048 0.0
C2479 C 0.46075 0.66855 0.36684 0.0
C2480 C 0.45058 0.67347 0.34474 0.0
C2481 C 0.34573 0.72159 0.28262 0.0
C2482 C 0.34674 0.74303 0.28794 0.0
C2483 C 0.36338 0.704 0.28381 0.0
C2484 C 0.38287 0.70723 0.28973 0.0
C2485 C 0.38393 0.72853 0.29559 0.0
C2486 C 0.36603 0.74624 0.29477 0.0
C2487 C 0.4019 0.68826 0.28954 0.0
C2488 C 0.41353 0.68284 0.31072 0.0
C2489 C 0.40763 0.67444 0.26916 0.0
C2490 C 0.39718 0.67977 0.24545 0.0
C2491 C 0.39635 0.70032 0.23232 0.0
C2492 C 0.38635 0.70528 0.21011 0.0
C2493 C 0.37718 0.68981 0.20079 0.0
C2494 C 0.37798 0.66934 0.21367 0.0
C2495 C 0.388 0.66427 0.23586 0.0
H2496 H 0.3694 0.6937 0.18362 0.0
H2497 H 0.46875 0.64474 0.39758 0.0
H2498 H 0.51005 0.46439 0.21712 0.0
H2499 H 0.48406 0.4417 0.21964 0.0
H2500 H 0.44667 0.48114 0.27724 0.0
H2501 H 0.47287 0.50387 0.27493 0.0
H2502 H 0.44639 0.4379 0.28728 0.0
H2503 H 0.43327 0.48992 0.21749 0.0
H2504 H 0.44213 0.51037 0.17836 0.0
H2505 H 0.46152 0.44977 0.14115 0.0
H2506 H 0.45306 0.42891 0.18017 0.0
H2507 H 0.35293 0.39978 0.2678 0.0
H2508 H 0.37872 0.42153 0.27376 0.0
H2509 H 0.42125 0.38732 0.21585 0.0
H2510 H 0.39547 0.36595 0.2096 0.0
H2511 H 0.41679 0.43031 0.20794 0.0
H2512 H 0.42888 0.37842 0.27956 0.0
H2513 H 0.41703 0.35965 0.31848 0.0
H2514 H 0.39727 0.42167 0.35274 0.0
H2515 H 0.40851 0.44091 0.31379 0.0
C2516 C 0.4963 0.46829 0.2303 0.0
C2517 C 0.49342 0.48614 0.24558 0.0
C2518 C 0.48145 0.45525 0.23179 0.0
C2519 C 0.46317 0.45992 0.24833 0.0
C2520 C 0.46061 0.47722 0.26431 0.0
C2521 C 0.4756 0.49021 0.26296 0.0
C2522 C 0.44642 0.44735 0.24791 0.0
C2523 C 0.43973 0.43643 0.27 0.0
C2524 C 0.43771 0.44534 0.22538 0.0
C2525 C 0.4427 0.45784 0.20182 0.0
C2526 C 0.43956 0.48094 0.20101 0.0
C2527 C 0.44449 0.49261 0.17884 0.0
C2528 C 0.45242 0.48137 0.1573 0.0
C2529 C 0.45539 0.45845 0.15786 0.0
C2530 C 0.45052 0.4467 0.17999 0.0
C2531 C 0.36795 0.39667 0.25668 0.0
C2532 C 0.37214 0.38127 0.23813 0.0
C2533 C 0.38268 0.40911 0.26008 0.0
C2534 C 0.40199 0.40608 0.24525 0.0
C2535 C 0.40644 0.3901 0.22739 0.0
C2536 C 0.3917 0.37787 0.22385 0.0
C2537 C 0.41718 0.42026 0.24712 0.0
C2538 C 0.42346 0.43168 0.22525 0.0
C2539 C 0.42528 0.42283 0.26989 0.0
C2540 C 0.41932 0.41114 0.29363 0.0
C2541 C 0.42189 0.38808 0.29533 0.0
C2542 C 0.41525 0.37736 0.31739 0.0
C2543 C 0.4063 0.38948 0.33802 0.0
C2544 C 0.40413 0.41232 0.33671 0.0
C2545 C 0.41062 0.42314 0.31463 0.0
H2546 H 0.4011 0.38115 0.35506 0.0
H2547 H 0.45623 0.49043 0.14015 0.0
H2548 H 0.76851 0.61635 0.61294 0.0
H2549 H 0.76192 0.64901 0.63766 0.0
H2550 H 0.79608 0.60981 0.69651 0.0
H2551 H 0.80216 0.5773 0.67243 0.0
H2552 H 0.76397 0.63852 0.71634 0.0
H2553 H 0.8193 0.6411 0.64965 0.0
H2554 H 0.83345 0.64201 0.6055 0.0
H2555 H 0.78738 0.70188 0.59031 0.0
H2556 H 0.77273 0.70111 0.63431 0.0
H2557 H 0.8037 0.71106 0.78058 0.0
H2558 H 0.80183 0.68261 0.75267 0.0
H2559 H 0.76396 0.73192 0.70506 0.0
H2560 H 0.76563 0.76021 0.73295 0.0
H2561 H 0.79272 0.70142 0.67778 0.0
H2562 H 0.74045 0.701 0.74594 0.0
H2563 H 0.72661 0.70017 0.79008 0.0
H2564 H 0.76766 0.63651 0.80304 0.0
H2565 H 0.78166 0.63693 0.75881 0.0
C2566 C 0.77416 0.61462 0.6314 0.0
C2567 C 0.78604 0.59424 0.6406 0.0
C2568 C 0.77055 0.63334 0.64543 0.0
C2569 C 0.7789 0.63201 0.66878 0.0
C2570 C 0.78956 0.61136 0.67855 0.0
C2571 C 0.79309 0.59274 0.66466 0.0
C2572 C 0.77794 0.65205 0.68257 0.0
C2573 C 0.77035 0.6522 0.70789 0.0
C2574 C 0.78576 0.67027 0.6715 0.0
C2575 C 0.79476 0.6709 0.64517 0.0
C2576 C 0.8121 0.65437 0.63685 0.0
C2577 C 0.82022 0.65487 0.61186 0.0
C2578 C 0.81128 0.67195 0.59509 0.0
C2579 C 0.79426 0.68863 0.60331 0.0
C2580 C 0.78603 0.68817 0.62826 0.0
C2581 C 0.79525 0.71584 0.76394 0.0
C2582 C 0.78508 0.73795 0.75883 0.0
C2583 C 0.79411 0.69959 0.74807 0.0
C2584 C 0.78247 0.70507 0.72695 0.0
C2585 C 0.77297 0.72727 0.72126 0.0
C2586 C 0.77406 0.74352 0.7372 0.0
C2587 C 0.77941 0.68744 0.71165 0.0
C2588 C 0.78613 0.68784 0.6861 0.0
C2589 C 0.77086 0.66967 0.72252 0.0
C2590 C 0.76216 0.66908 0.74904 0.0
C2591 C 0.74652 0.68684 0.75817 0.0
C2592 C 0.73866 0.68645 0.78323 0.0
C2593 C 0.74637 0.66839 0.79942 0.0
C2594 C 0.76177 0.65055 0.79049 0.0
C2595 C 0.76959 0.65081 0.76538 0.0
H2596 H 0.74029 0.66814 0.81885 0.0
H2597 H 0.81757 0.6723 0.57575 0.0
H2598 H 0.47289 0.74802 0.59729 0.0
H2599 H 0.43982 0.75199 0.62418 0.0
H2600 H 0.46324 0.79003 0.67342 0.0
H2601 H 0.49632 0.78654 0.64602 0.0
H2602 H 0.44452 0.75567 0.69932 0.0
H2603 H 0.42531 0.81678 0.63973 0.0
H2604 H 0.42116 0.8352 0.59781 0.0
H2605 H 0.38129 0.79302 0.58202 0.0
H2606 H 0.38528 0.77426 0.62397 0.0
H2607 H 0.31888 0.80439 0.72813 0.0
H2608 H 0.35313 0.80645 0.70588 0.0
H2609 H 0.37834 0.73906 0.73101 0.0
H2610 H 0.34517 0.73807 0.75436 0.0
H2611 H 0.37431 0.79063 0.66957 0.0
H2612 H 0.42222 0.71959 0.72193 0.0
H2613 H 0.42913 0.70204 0.76399 0.0
H2614 H 0.41591 0.76575 0.79411 0.0
H2615 H 0.40726 0.78366 0.7526 0.0
C2616 C 0.47105 0.75735 0.61376 0.0
C2617 C 0.48753 0.76693 0.6193 0.0
C2618 C 0.45196 0.75968 0.6292 0.0
C2619 C 0.44867 0.77131 0.65113 0.0
C2620 C 0.46511 0.78093 0.65676 0.0
C2621 C 0.48408 0.77904 0.64094 0.0
C2622 C 0.42837 0.77296 0.66821 0.0
C2623 C 0.4292 0.76345 0.69277 0.0
C2624 C 0.40807 0.78294 0.66014 0.0
C2625 C 0.40575 0.79399 0.63488 0.0
C2626 C 0.4158 0.8113 0.62724 0.0
C2627 C 0.41343 0.82185 0.60348 0.0
C2628 C 0.40103 0.81524 0.58717 0.0
C2629 C 0.39091 0.79811 0.59465 0.0
C2630 C 0.39318 0.78754 0.61845 0.0
C2631 C 0.3323 0.79071 0.73067 0.0
C2632 C 0.32971 0.7721 0.74626 0.0
C2633 C 0.35195 0.79156 0.71715 0.0
C2634 C 0.36955 0.77328 0.71739 0.0
C2635 C 0.36636 0.75423 0.73167 0.0
C2636 C 0.34701 0.7537 0.74556 0.0
C2637 C 0.39023 0.77335 0.70109 0.0
C2638 C 0.38954 0.78303 0.67643 0.0
C2639 C 0.41071 0.76338 0.70903 0.0
C2640 C 0.41382 0.75288 0.73435 0.0
C2641 C 0.42038 0.72981 0.73768 0.0
C2642 C 0.42437 0.71982 0.76143 0.0
C2643 C 0.42256 0.73282 0.78179 0.0
C2644 C 0.41656 0.75578 0.77847 0.0
C2645 C 0.41185 0.76584 0.75492 0.0
H2646 H 0.42602 0.72515 0.80009 0.0
H2647 H 0.39921 0.82345 0.56877 0.0
H2648 H 0.27647 0.46646 0.58944 0.0
H2649 H 0.27195 0.44072 0.62471 0.0
H2650 H 0.33187 0.3982 0.60222 0.0
H2651 H 0.33615 0.42327 0.56614 0.0
H2652 H 0.30555 0.37375 0.61599 0.0
H2653 H 0.32457 0.43257 0.6529 0.0
H2654 H 0.32224 0.47108 0.6624 0.0
H2655 H 0.25938 0.47544 0.69685 0.0
H2656 H 0.26124 0.43703 0.68725 0.0
H2657 H 0.30341 0.3414 0.76065 0.0
H2658 H 0.30857 0.36722 0.72538 0.0
H2659 H 0.26857 0.34039 0.68322 0.0
H2660 H 0.26436 0.31391 0.71799 0.0
H2661 H 0.28685 0.39923 0.70185 0.0
H2662 H 0.27741 0.34499 0.6253 0.0
H2663 H 0.28465 0.30577 0.61582 0.0
H2664 H 0.33743 0.29119 0.66075 0.0
H2665 H 0.33009 0.3302 0.67124 0.0
C2666 C 0.28871 0.45163 0.59165 0.0
C2667 C 0.30673 0.44724 0.57448 0.0
C2668 C 0.28616 0.43692 0.61219 0.0
C2669 C 0.30168 0.41753 0.61651 0.0
C2670 C 0.31963 0.41301 0.59945 0.0
C2671 C 0.32213 0.42761 0.57877 0.0
C2672 C 0.29911 0.40186 0.63859 0.0
C2673 C 0.30149 0.37939 0.63475 0.0
C2674 C 0.29414 0.40891 0.66328 0.0
C2675 C 0.29297 0.43199 0.66914 0.0
C2676 C 0.3102 0.44179 0.66234 0.0
C2677 C 0.30897 0.46359 0.66777 0.0
C2678 C 0.29065 0.47572 0.68016 0.0
C2679 C 0.27355 0.46604 0.68722 0.0
C2680 C 0.27468 0.44425 0.68181 0.0
C2681 C 0.29553 0.34111 0.74397 0.0
C2682 C 0.28341 0.32545 0.74225 0.0
C2683 C 0.29858 0.35588 0.72366 0.0
C2684 C 0.28942 0.3556 0.70114 0.0
C2685 C 0.27655 0.34058 0.69985 0.0
C2686 C 0.27389 0.32551 0.71996 0.0
C2687 C 0.29316 0.3711 0.67926 0.0
C2688 C 0.29095 0.39357 0.68311 0.0
C2689 C 0.29889 0.36397 0.65467 0.0
C2690 C 0.30309 0.34042 0.64917 0.0
C2691 C 0.29047 0.33336 0.63329 0.0
C2692 C 0.29451 0.31116 0.6279 0.0
C2693 C 0.31136 0.29596 0.63795 0.0
C2694 C 0.32415 0.30292 0.65346 0.0
C2695 C 0.32 0.32504 0.65924 0.0
H2696 H 0.3146 0.27883 0.63357 0.0
H2697 H 0.28973 0.49259 0.68435 0.0
H2698 H 0.56763 0.31522 0.53499 0.0
H2699 H 0.59423 0.32235 0.56085 0.0
H2700 H 0.57398 0.2798 0.62063 0.0
H2701 H 0.5477 0.27283 0.5951 0.0
H2702 H 0.5838 0.31434 0.63942 0.0
H2703 H 0.61574 0.2611 0.57695 0.0
H2704 H 0.62444 0.25057 0.53333 0.0
H2705 H 0.658 0.30227 0.51786 0.0
H2706 H 0.64923 0.3133 0.56133 0.0
H2707 H 0.66666 0.25854 0.70933 0.0
H2708 H 0.63822 0.27157 0.68195 0.0
H2709 H 0.67651 0.30945 0.63592 0.0
H2710 H 0.70549 0.2959 0.66338 0.0
H2711 H 0.65837 0.287 0.60709 0.0
H2712 H 0.63241 0.33538 0.67209 0.0
H2713 H 0.62309 0.3466 0.71534 0.0
H2714 H 0.57795 0.30585 0.72588 0.0
H2715 H 0.58721 0.29411 0.68281 0.0
C2716 C 0.56843 0.30807 0.55397 0.0
C2717 C 0.55547 0.29362 0.56311 0.0
C2718 C 0.58381 0.31191 0.56865 0.0
C2719 C 0.58639 0.30138 0.5927 0.0
C2720 C 0.57242 0.28816 0.60226 0.0
C2721 C 0.55733 0.2842 0.58762 0.0
C2722 C 0.60445 0.30231 0.60747 0.0
C2723 C 0.6001 0.3084 0.63233 0.0
C2724 C 0.62585 0.29523 0.59813 0.0
C2725 C 0.63164 0.28817 0.57227 0.0
C2726 C 0.62491 0.27027 0.5642 0.0
C2727 C 0.62984 0.26422 0.53952 0.0
C2728 C 0.6417 0.27579 0.52281 0.0
C2729 C 0.64877 0.29336 0.53081 0.0
C2730 C 0.64383 0.29951 0.55546 0.0
C2731 C 0.66898 0.26989 0.69357 0.0
C2732 C 0.6884 0.27615 0.68858 0.0
C2733 C 0.6526 0.27746 0.67793 0.0
C2734 C 0.65497 0.29171 0.65683 0.0
C2735 C 0.67418 0.29852 0.65207 0.0
C2736 C 0.69068 0.29095 0.66791 0.0
C2737 C 0.63767 0.2983 0.6394 0.0
C2738 C 0.64214 0.29352 0.61408 0.0
C2739 C 0.61634 0.3067 0.64829 0.0
C2740 C 0.61059 0.31379 0.67421 0.0
C2741 C 0.62059 0.3287 0.68367 0.0
C2742 C 0.6153 0.33517 0.70816 0.0
C2743 C 0.59996 0.32693 0.72336 0.0
C2744 C 0.58983 0.31223 0.71408 0.0
C2745 C 0.59507 0.30569 0.68961 0.0
H2746 H 0.59589 0.33195 0.74231 0.0
H2747 H 0.64546 0.27112 0.50369 0.0
H2748 H 0.76117 0.52077 0.54271 0.0
H2749 H 0.7499 0.49686 0.51514 0.0
H2750 H 0.80637 0.49604 0.46611 0.0
H2751 H 0.81755 0.51972 0.49327 0.0
H2752 H 0.77273 0.49775 0.43959 0.0
H2753 H 0.80455 0.45603 0.51214 0.0
H2754 H 0.80633 0.44727 0.55747 0.0
H2755 H 0.74443 0.43388 0.56287 0.0
H2756 H 0.74217 0.44292 0.51759 0.0
H2757 H 0.81676 0.39606 0.3889 0.0
H2758 H 0.80587 0.43038 0.41035 0.0
H2759 H 0.74851 0.41174 0.44086 0.0
H2760 H 0.75946 0.37716 0.41913 0.0
H2761 H 0.77088 0.42295 0.4771 0.0
H2762 H 0.74452 0.45574 0.40072 0.0
H2763 H 0.74468 0.46405 0.35517 0.0
H2764 H 0.79763 0.49362 0.35635 0.0
H2765 H 0.79803 0.48525 0.40182 0.0
C2766 C 0.77088 0.51586 0.52575 0.0
C2767 C 0.79033 0.52193 0.52026 0.0
C2768 C 0.7645 0.50213 0.51008 0.0
C2769 C 0.77741 0.49446 0.48866 0.0
C2770 C 0.79613 0.50172 0.48247 0.0
C2771 C 0.80257 0.51517 0.49813 0.0
C2772 C 0.77287 0.47731 0.47372 0.0
C2773 C 0.77219 0.48142 0.44776 0.0
C2774 C 0.77159 0.45615 0.48447 0.0
C2775 C 0.77307 0.45043 0.51158 0.0
C2776 C 0.79127 0.45137 0.52303 0.0
C2777 C 0.79237 0.44634 0.54871 0.0
C2778 C 0.77547 0.44009 0.56306 0.0
C2779 C 0.75748 0.43878 0.55174 0.0
C2780 C 0.75627 0.44386 0.52608 0.0
C2781 C 0.80159 0.39953 0.39971 0.0
C2782 C 0.78895 0.38399 0.4024 0.0
C2783 C 0.79533 0.41917 0.41191 0.0
C2784 C 0.77632 0.42371 0.42718 0.0
C2785 C 0.76321 0.40861 0.42913 0.0
C2786 C 0.76939 0.38897 0.41661 0.0
C2787 C 0.77156 0.44316 0.44279 0.0
C2788 C 0.77062 0.43946 0.46891 0.0
C2789 C 0.77153 0.46465 0.43214 0.0
C2790 C 0.77133 0.4698 0.40474 0.0
C2791 C 0.75629 0.46389 0.39126 0.0
C2792 C 0.75627 0.46862 0.36545 0.0
C2793 C 0.77116 0.47932 0.35289 0.0
C2794 C 0.78609 0.48534 0.36611 0.0
C2795 C 0.7862 0.48065 0.39192 0.0
H2796 H 0.77111 0.48297 0.33291 0.0
H2797 H 0.77635 0.43622 0.58293 0.0
H2798 H 0.62573 0.73407 0.47219 0.0
H2799 H 0.65319 0.73867 0.43953 0.0
H2800 H 0.65145 0.80311 0.46401 0.0
H2801 H 0.62352 0.79868 0.4967 0.0
H2802 H 0.65654 0.80632 0.41655 0.0
H2803 H 0.69338 0.75386 0.47517 0.0
H2804 H 0.70113 0.71986 0.50258 0.0
H2805 H 0.70861 0.68063 0.43901 0.0
H2806 H 0.70062 0.7144 0.41125 0.0
H2807 H 0.7739 0.76784 0.34951 0.0
H2808 H 0.7483 0.76751 0.38622 0.0
H2809 H 0.69723 0.79319 0.3393 0.0
H2810 H 0.72267 0.79475 0.30336 0.0
H2811 H 0.72056 0.74672 0.40126 0.0
H2812 H 0.65271 0.81629 0.36668 0.0
H2813 H 0.64723 0.85288 0.34399 0.0
H2814 H 0.70553 0.86187 0.36718 0.0
H2815 H 0.7114 0.8252 0.38985 0.0
C2816 C 0.6312 0.74921 0.47095 0.0
C2817 C 0.62221 0.76588 0.48766 0.0
C2818 C 0.64717 0.75182 0.45206 0.0
C2819 C 0.65515 0.77109 0.44916 0.0
C2820 C 0.64592 0.78797 0.46552 0.0
C2821 C 0.62977 0.78543 0.48438 0.0
C2822 C 0.6727 0.77369 0.42895 0.0
C2823 C 0.67048 0.79318 0.41334 0.0
C2824 C 0.69147 0.75701 0.42454 0.0
C2825 C 0.6962 0.73667 0.44117 0.0
C2826 C 0.69652 0.73798 0.46706 0.0
C2827 C 0.70098 0.71875 0.48265 0.0
C2828 C 0.70531 0.6981 0.47255 0.0
C2829 C 0.70523 0.69664 0.44682 0.0
C2830 C 0.70075 0.71582 0.43114 0.0
C2831 C 0.75724 0.77407 0.3472 0.0
C2832 C 0.75053 0.7819 0.32336 0.0
C2833 C 0.74243 0.77362 0.36827 0.0
C2834 C 0.72038 0.78072 0.36622 0.0
C2835 C 0.71387 0.78832 0.34224 0.0
C2836 C 0.72859 0.78903 0.32139 0.0
C2837 C 0.70419 0.77918 0.38849 0.0
C2838 C 0.70663 0.75986 0.40446 0.0
C2839 C 0.68585 0.79622 0.39365 0.0
C2840 C 0.68263 0.81797 0.37964 0.0
C2841 C 0.66438 0.82606 0.36684 0.0
C2842 C 0.66124 0.84676 0.35395 0.0
C2843 C 0.67612 0.85961 0.35399 0.0
C2844 C 0.69416 0.85178 0.36694 0.0
C2845 C 0.69746 0.83101 0.37969 0.0
H2846 H 0.67362 0.87567 0.34408 0.0
H2847 H 0.70877 0.68324 0.48465 0.0
H2848 H 0.33068 0.59134 0.45292 0.0
H2849 H 0.32404 0.62692 0.42912 0.0
H2850 H 0.26059 0.6214 0.42047 0.0
H2851 H 0.26733 0.58551 0.44364 0.0
H2852 H 0.27784 0.63355 0.37715 0.0
H2853 H 0.2704 0.66187 0.46025 0.0
H2854 H 0.28168 0.66549 0.50194 0.0
H2855 H 0.33877 0.68161 0.46782 0.0
H2856 H 0.3277 0.67842 0.426 0.0
H2857 H 0.25149 0.76287 0.36227 0.0
H2858 H 0.25399 0.72726 0.38575 0.0
H2859 H 0.2996 0.69589 0.32885 0.0
H2860 H 0.29761 0.7315 0.30574 0.0
H2861 H 0.2906 0.70262 0.40526 0.0
H2862 H 0.29596 0.64576 0.32697 0.0
H2863 H 0.27939 0.64136 0.28896 0.0
H2864 H 0.22079 0.68216 0.31759 0.0
H2865 H 0.23724 0.6873 0.35535 0.0
C2866 C 0.31531 0.59761 0.44595 0.0
C2867 C 0.29962 0.58528 0.45017 0.0
C2868 C 0.31143 0.6182 0.43254 0.0
C2869 C 0.29173 0.62712 0.42302 0.0
C2870 C 0.27594 0.61501 0.42755 0.0
C2871 C 0.27978 0.59445 0.441 0.0
C2872 C 0.28791 0.64836 0.40719 0.0
C2873 C 0.28071 0.64859 0.3834 0.0
C2874 C 0.29149 0.66821 0.41504 0.0
C2875 C 0.29836 0.66962 0.44011 0.0
C2876 C 0.28544 0.66596 0.46172 0.0
C2877 C 0.29175 0.668 0.48532 0.0
C2878 C 0.31099 0.67353 0.48751 0.0
C2879 C 0.3239 0.67723 0.4661 0.0
C2880 C 0.31758 0.67542 0.44245 0.0
C2881 C 0.26176 0.74833 0.35446 0.0
C2882 C 0.27426 0.75025 0.33192 0.0
C2883 C 0.26323 0.72795 0.36799 0.0
C2884 C 0.27701 0.70877 0.3592 0.0
C2885 C 0.2887 0.71034 0.33603 0.0
C2886 C 0.28749 0.73085 0.32268 0.0
C2887 C 0.2805 0.68773 0.37532 0.0
C2888 C 0.28783 0.68751 0.39905 0.0
C2889 C 0.27693 0.66792 0.36754 0.0
C2890 C 0.26784 0.66705 0.34374 0.0
C2891 C 0.27963 0.65403 0.32491 0.0
C2892 C 0.27027 0.65139 0.30346 0.0
C2893 C 0.24902 0.66139 0.30093 0.0
C2894 C 0.23724 0.67442 0.31959 0.0
C2895 C 0.24664 0.67744 0.34085 0.0
H2896 H 0.24171 0.65912 0.28446 0.0
H2897 H 0.31584 0.67507 0.5058 0.0
H2898 H 0.48409 0.294 0.43575 0.0
H2899 H 0.45637 0.29848 0.40682 0.0
H2900 H 0.41142 0.28999 0.46899 0.0
H2901 H 0.4394 0.28423 0.49743 0.0
H2902 H 0.40603 0.26634 0.4366 0.0
H2903 H 0.41081 0.34288 0.4291 0.0
H2904 H 0.42964 0.37306 0.42149 0.0
H2905 H 0.45288 0.35091 0.34844 0.0
H2906 H 0.43402 0.32072 0.35554 0.0
H2907 H 0.31263 0.29359 0.37367 0.0
H2908 H 0.34063 0.29527 0.39968 0.0
H2909 H 0.38437 0.29414 0.33421 0.0
H2910 H 0.35615 0.29276 0.30784 0.0
H2911 H 0.39112 0.32253 0.36632 0.0
H2912 H 0.38403 0.24725 0.37374 0.0
H2913 H 0.36449 0.21769 0.38181 0.0
H2914 H 0.34539 0.23793 0.45647 0.0
H2915 H 0.36459 0.2678 0.44875 0.0
C2916 C 0.46813 0.2938 0.44324 0.0
C2917 C 0.46386 0.28921 0.46897 0.0
C2918 C 0.45216 0.29634 0.42665 0.0
C2919 C 0.4314 0.29481 0.43544 0.0
C2920 C 0.42711 0.29119 0.46138 0.0
C2921 C 0.44311 0.28816 0.47779 0.0
C2922 C 0.41454 0.29525 0.41787 0.0
C2923 C 0.40265 0.27894 0.42155 0.0
C2924 C 0.41023 0.31108 0.39747 0.0
C2925 C 0.42117 0.32947 0.39293 0.0
C2926 C 0.41996 0.34445 0.41143 0.0
C2927 C 0.4306 0.36158 0.40719 0.0
C2928 C 0.44249 0.36386 0.38452 0.0
C2929 C 0.44369 0.34909 0.366 0.0
C2930 C 0.43293 0.33206 0.37006 0.0
C2931 C 0.32821 0.29347 0.36468 0.0
C2932 C 0.33208 0.29254 0.33853 0.0
C2933 C 0.34431 0.29449 0.37969 0.0
C2934 C 0.36493 0.29438 0.36915 0.0
C2935 C 0.36873 0.29411 0.34297 0.0
C2936 C 0.35254 0.2932 0.32787 0.0
C2937 C 0.38247 0.29394 0.38556 0.0
C2938 C 0.39452 0.31008 0.38153 0.0
C2939 C 0.38688 0.27803 0.4058 0.0
C2940 C 0.37564 0.25984 0.41061 0.0
C2941 C 0.37559 0.24545 0.39185 0.0
C2942 C 0.36459 0.22863 0.39637 0.0
C2943 C 0.35373 0.22593 0.41965 0.0
C2944 C 0.35384 0.24003 0.43846 0.0
C2945 C 0.3648 0.25688 0.43404 0.0
H2946 H 0.34521 0.21291 0.4231 0.0
H2947 H 0.45073 0.37712 0.38127 0.0
H2948 H 0.57559 0.81112 0.63389 0.0
H2949 H 0.60029 0.81716 0.66289 0.0
H2950 H 0.65281 0.78465 0.61408 0.0
H2951 H 0.62822 0.77768 0.58615 0.0
H2952 H 0.65961 0.76853 0.6571 0.0
H2953 H 0.63846 0.84361 0.62444 0.0
H2954 H 0.61354 0.87871 0.61405 0.0
H2955 H 0.59188 0.88474 0.69159 0.0
H2956 H 0.61651 0.84952 0.70241 0.0
H2957 H 0.7457 0.79595 0.70477 0.0
H2958 H 0.71689 0.79729 0.67891 0.0
H2959 H 0.6718 0.8131 0.74242 0.0
H2960 H 0.70081 0.81187 0.76875 0.0
H2961 H 0.65934 0.83797 0.69586 0.0
H2962 H 0.68261 0.76251 0.72726 0.0
H2963 H 0.7091 0.72828 0.73609 0.0
H2964 H 0.72883 0.7244 0.65783 0.0
H2965 H 0.70243 0.75877 0.64855 0.0
C2966 C 0.59243 0.80575 0.62919 0.0
C2967 C 0.6 0.79403 0.60771 0.0
C2968 C 0.60661 0.80918 0.64578 0.0
C2969 C 0.62864 0.8014 0.64086 0.0
C2970 C 0.63602 0.79066 0.61867 0.0
C2971 C 0.62193 0.78683 0.60253 0.0
C2972 C 0.64411 0.80295 0.6592 0.0
C2973 C 0.65957 0.78388 0.66522 0.0
C2974 C 0.64399 0.82268 0.67066 0.0
C2975 C 0.62915 0.84381 0.66419 0.0
C2976 C 0.62826 0.85233 0.63925 0.0
C2977 C 0.61421 0.87226 0.63329 0.0
C2978 C 0.60108 0.88391 0.65214 0.0
C2979 C 0.60202 0.87567 0.677 0.0
C2980 C 0.61603 0.85574 0.68306 0.0
C2981 C 0.72971 0.80011 0.71333 0.0
C2982 C 0.72571 0.80389 0.73898 0.0
C2983 C 0.71318 0.80074 0.69844 0.0
C2984 C 0.69213 0.80516 0.70868 0.0
C2985 C 0.68791 0.80968 0.73406 0.0
C2986 C 0.70454 0.8089 0.74912 0.0
C2987 C 0.67487 0.80378 0.69299 0.0
C2988 C 0.65915 0.82273 0.68765 0.0
C2989 C 0.67488 0.78405 0.68177 0.0
C2990 C 0.69063 0.76327 0.68724 0.0
C2991 C 0.69267 0.75442 0.71195 0.0
C2992 C 0.70767 0.73497 0.71702 0.0
C2993 C 0.72068 0.72415 0.69752 0.0
C2994 C 0.71871 0.73278 0.6729 0.0
C2995 C 0.7037 0.75222 0.66772 0.0
H2996 H 0.73227 0.70907 0.70144 0.0
H2997 H 0.59022 0.89934 0.64748 0.0
H2998 H 0.59737 0.27766 0.47758 0.0
H2999 H 0.63052 0.2803 0.45322 0.0
H3000 H 0.61995 0.23538 0.4017 0.0
H3001 H 0.58705 0.23258 0.42596 0.0
H3002 H 0.65933 0.22444 0.41024 0.0
H3003 H 0.61233 0.29338 0.38817 0.0
H3004 H 0.58745 0.32892 0.39609 0.0
H3005 H 0.63501 0.35058 0.4306 0.0
H3006 H 0.6601 0.31504 0.42316 0.0
H3007 H 0.72575 0.2917 0.31489 0.0
H3008 H 0.69277 0.28706 0.33753 0.0
H3009 H 0.72795 0.23855 0.38837 0.0
H3010 H 0.76086 0.24201 0.36438 0.0
H3011 H 0.67581 0.29608 0.37991 0.0
H3012 H 0.70169 0.20722 0.42016 0.0
H3013 H 0.72389 0.17111 0.40859 0.0
H3014 H 0.71418 0.18878 0.33126 0.0
H3015 H 0.69211 0.22515 0.34247 0.0
C3016 C 0.60198 0.26847 0.46096 0.0
C3017 C 0.5893 0.2549 0.45388 0.0
C3018 C 0.62104 0.27 0.44695 0.0
C3019 C 0.6279 0.25822 0.42526 0.0
C3020 C 0.61528 0.24462 0.4183 0.0
C3021 C 0.59634 0.24299 0.43232 0.0
C3022 C 0.64819 0.25973 0.40987 0.0
C3023 C 0.66288 0.24017 0.4037 0.0
C3024 C 0.65305 0.28011 0.40086 0.0
C3025 C 0.63801 0.30147 0.40534 0.0
C3026 C 0.61743 0.30566 0.39762 0.0
C3027 C 0.6033 0.32582 0.40199 0.0
C3028 C 0.60962 0.34198 0.4139 0.0
C3029 C 0.63012 0.33803 0.42141 0.0
C3030 C 0.6443 0.3179 0.41711 0.0
C3031 C 0.72653 0.27941 0.33019 0.0
C3032 C 0.74616 0.26666 0.33706 0.0
C3033 C 0.70749 0.27699 0.34357 0.0
C3034 C 0.70741 0.26214 0.36474 0.0
C3035 C 0.72709 0.24959 0.37176 0.0
C3036 C 0.74607 0.2517 0.35805 0.0
C3037 C 0.68699 0.26074 0.38009 0.0
C3038 C 0.67231 0.28034 0.38643 0.0
C3039 C 0.68193 0.24039 0.38892 0.0
C3040 C 0.69557 0.21892 0.38205 0.0
C3041 C 0.70441 0.20341 0.40068 0.0
C3042 C 0.71699 0.18296 0.3942 0.0
C3043 C 0.72059 0.17775 0.36917 0.0
C3044 C 0.7116 0.19298 0.35059 0.0
C3045 C 0.69917 0.21354 0.35696 0.0
H3046 H 0.73025 0.16187 0.36418 0.0
H3047 H 0.59866 0.35757 0.41726 0.0
H3048 H 0.82195 0.63833 0.52788 0.0
H3049 H 0.82112 0.66204 0.48936 0.0
H3050 H 0.84749 0.60466 0.44698 0.0
H3051 H 0.8466 0.58097 0.48556 0.0
H3052 H 0.84672 0.67317 0.45794 0.0
H3053 H 0.83453 0.61214 0.38777 0.0
H3054 H 0.81755 0.5808 0.38721 0.0
H3055 H 0.77514 0.60449 0.45022 0.0
H3056 H 0.79168 0.6361 0.45095 0.0
H3057 H 0.85262 0.73112 0.3398 0.0
H3058 H 0.85883 0.70359 0.37505 0.0
H3059 H 0.79691 0.69114 0.37072 0.0
H3060 H 0.79178 0.71691 0.3343 0.0
H3061 H 0.81812 0.65579 0.38206 0.0
H3062 H 0.81168 0.72503 0.41865 0.0
H3063 H 0.81917 0.76057 0.42696 0.0
H3064 H 0.88347 0.72832 0.43849 0.0
H3065 H 0.87625 0.6925 0.43058 0.0
C3066 C 0.82751 0.63094 0.51024 0.0
C3067 C 0.83428 0.60799 0.50942 0.0
C3068 C 0.82713 0.64442 0.48823 0.0
C3069 C 0.834 0.63523 0.46501 0.0
C3070 C 0.84152 0.61222 0.46442 0.0
C3071 C 0.84121 0.59868 0.4864 0.0
C3072 C 0.83316 0.64985 0.44162 0.0
C3073 C 0.84041 0.66934 0.44137 0.0
C3074 C 0.82465 0.64521 0.41999 0.0
C3075 C 0.81454 0.62631 0.4196 0.0
C3076 C 0.82155 0.61067 0.40146 0.0
C3077 C 0.812 0.59286 0.40112 0.0
C3078 C 0.79534 0.5906 0.41874 0.0
C3079 C 0.78811 0.6062 0.43666 0.0
C3080 C 0.79758 0.62405 0.43706 0.0
C3081 C 0.84059 0.72213 0.34627 0.0
C3082 C 0.82189 0.7258 0.33425 0.0
C3083 C 0.84397 0.70663 0.36664 0.0
C3084 C 0.82821 0.69536 0.37609 0.0
C3085 C 0.80951 0.69923 0.36386 0.0
C3086 C 0.80653 0.71401 0.343 0.0
C3087 C 0.83085 0.67969 0.39868 0.0
C3088 C 0.82434 0.65973 0.39863 0.0
C3089 C 0.83872 0.68459 0.42065 0.0
C3090 C 0.8435 0.7062 0.42374 0.0
C3091 C 0.82747 0.72558 0.42268 0.0
C3092 C 0.83164 0.74574 0.42745 0.0
C3093 C 0.85181 0.74672 0.43317 0.0
C3094 C 0.86787 0.72754 0.43404 0.0
C3095 C 0.86373 0.7073 0.42951 0.0
H3096 H 0.85499 0.76231 0.43705 0.0
H3097 H 0.78798 0.57679 0.41845 0.0
H3098 H 0.50809 0.83508 0.51427 0.0
H3099 H 0.47928 0.84793 0.48652 0.0
H3100 H 0.48749 0.78151 0.46388 0.0
H3101 H 0.51629 0.769 0.49022 0.0
H3102 H 0.47954 0.808 0.42531 0.0
H3103 H 0.44932 0.80664 0.51243 0.0
H3104 H 0.44477 0.81925 0.55527 0.0
H3105 H 0.42133 0.88596 0.52721 0.0
H3106 H 0.42617 0.87378 0.48414 0.0
H3107 H 0.3809 0.79007 0.39962 0.0
H3108 H 0.41466 0.79141 0.4147 0.0
H3109 H 0.39274 0.86146 0.42231 0.0
H3110 H 0.35898 0.86024 0.40711 0.0
H3111 H 0.40853 0.8418 0.46412 0.0
H3112 H 0.43225 0.84149 0.3778 0.0
H3113 H 0.43716 0.82893 0.33495 0.0
H3114 H 0.47252 0.76556 0.36096 0.0
H3115 H 0.46758 0.77762 0.40405 0.0
C3116 C 0.50387 0.82337 0.50308 0.0
C3117 C 0.51441 0.80099 0.5047 0.0
C3118 C 0.48734 0.83067 0.48731 0.0
C3119 C 0.48093 0.81563 0.47328 0.0
C3120 C 0.49204 0.79353 0.47435 0.0
C3121 C 0.50853 0.78635 0.4897 0.0
C3122 C 0.46204 0.82196 0.45848 0.0
C3123 C 0.46401 0.81538 0.43383 0.0
C3124 C 0.44179 0.83223 0.46916 0.0
C3125 C 0.43836 0.83936 0.49509 0.0
C3126 C 0.44328 0.82401 0.51541 0.0
C3127 C 0.44067 0.83108 0.53972 0.0
C3128 C 0.43283 0.85341 0.54394 0.0
C3129 C 0.42747 0.86869 0.52389 0.0
C3130 C 0.43016 0.86172 0.49954 0.0
C3131 C 0.38345 0.80586 0.40388 0.0
C3132 C 0.36718 0.82501 0.4023 0.0
C3133 C 0.40277 0.80662 0.41257 0.0
C3134 C 0.40631 0.82657 0.41964 0.0
C3135 C 0.39038 0.84586 0.41711 0.0
C3136 C 0.37108 0.84512 0.40844 0.0
C3137 C 0.42595 0.82691 0.43138 0.0
C3138 C 0.42409 0.83479 0.45539 0.0
C3139 C 0.44628 0.81773 0.42014 0.0
C3140 C 0.44943 0.81044 0.39421 0.0
C3141 C 0.44096 0.82482 0.37442 0.0
C3142 C 0.44376 0.8178 0.35008 0.0
C3143 C 0.45512 0.79646 0.34524 0.0
C3144 C 0.46373 0.7821 0.36474 0.0
C3145 C 0.46096 0.78903 0.38912 0.0
H3146 H 0.45727 0.79105 0.32638 0.0
H3147 H 0.43091 0.85892 0.56273 0.0
H3148 H 0.26138 0.50166 0.41271 0.0
H3149 H 0.25629 0.47136 0.38941 0.0
H3150 H 0.26264 0.42825 0.45617 0.0
H3151 H 0.26708 0.45858 0.4798 0.0
H3152 H 0.2916 0.41569 0.40567 0.0
H3153 H 0.21978 0.43603 0.44432 0.0
H3154 H 0.18627 0.46263 0.45481 0.0
H3155 H 0.17864 0.47894 0.37679 0.0
H3156 H 0.21229 0.45266 0.36585 0.0
H3157 H 0.27998 0.32282 0.35083 0.0
H3158 H 0.27537 0.35011 0.38154 0.0
H3159 H 0.23823 0.39831 0.33203 0.0
H3160 H 0.24091 0.37002 0.30227 0.0
H3161 H 0.22421 0.40792 0.37618 0.0
H3162 H 0.29436 0.39134 0.33564 0.0
H3163 H 0.32817 0.36676 0.32154 0.0
H3164 H 0.34043 0.34647 0.39774 0.0
H3165 H 0.30654 0.37077 0.4123 0.0
C3166 C 0.26129 0.48585 0.42253 0.0
C3167 C 0.26454 0.48255 0.44812 0.0
C3168 C 0.25843 0.46857 0.4092 0.0
C3169 C 0.25917 0.4476 0.42109 0.0
C3170 C 0.26201 0.44434 0.4467 0.0
C3171 C 0.26439 0.46173 0.46018 0.0
C3172 C 0.25805 0.42887 0.40643 0.0
C3173 C 0.27686 0.41371 0.39953 0.0
C3174 C 0.23891 0.42685 0.39774 0.0
C3175 C 0.21867 0.44258 0.40429 0.0
C3176 C 0.21107 0.44547 0.42941 0.0
C3177 C 0.19203 0.46044 0.43543 0.0
C3178 C 0.18037 0.47252 0.41648 0.0
C3179 C 0.1877 0.4696 0.39145 0.0
C3180 C 0.20675 0.45466 0.38533 0.0
C3181 C 0.27009 0.33882 0.34679 0.0
C3182 C 0.26051 0.34398 0.32416 0.0
C3183 C 0.26781 0.35471 0.36428 0.0
C3184 C 0.25706 0.3766 0.35886 0.0
C3185 C 0.24673 0.38162 0.33671 0.0
C3186 C 0.24834 0.36544 0.31964 0.0
C3187 C 0.25782 0.39446 0.37532 0.0
C3188 C 0.239 0.40963 0.38243 0.0
C3189 C 0.2771 0.39683 0.38368 0.0
C3190 C 0.29784 0.38278 0.37505 0.0
C3191 C 0.30426 0.38162 0.34939 0.0
C3192 C 0.32342 0.36773 0.34132 0.0
C3193 C 0.33643 0.35506 0.35875 0.0
C3194 C 0.33033 0.35631 0.38428 0.0
C3195 C 0.31116 0.37017 0.39246 0.0
H3196 H 0.35125 0.34431 0.35246 0.0
H3197 H 0.16562 0.4841 0.42118 0.0
H3198 H 0.44169 0.27485 0.57288 0.0
H3199 H 0.41457 0.27696 0.60809 0.0
H3200 H 0.46187 0.24106 0.65604 0.0
H3201 H 0.48844 0.23776 0.62046 0.0
H3202 H 0.43104 0.22567 0.66778 0.0
H3203 H 0.43534 0.30156 0.6555 0.0
H3204 H 0.43404 0.33778 0.63297 0.0
H3205 H 0.36955 0.34243 0.61873 0.0
H3206 H 0.3706 0.30607 0.64076 0.0
H3207 H 0.36712 0.24389 0.78292 0.0
H3208 H 0.39375 0.24237 0.74756 0.0
H3209 H 0.34566 0.27699 0.70015 0.0
H3210 H 0.31953 0.28018 0.73588 0.0
H3211 H 0.37667 0.29309 0.68806 0.0
H3212 H 0.37664 0.21366 0.69236 0.0
H3213 H 0.37816 0.17712 0.71474 0.0
H3214 H 0.43578 0.18056 0.74469 0.0
H3215 H 0.43443 0.21701 0.72246 0.0
C3216 C 0.44623 0.26756 0.59102 0.0
C3217 C 0.46721 0.2561 0.59385 0.0
C3218 C 0.43072 0.2689 0.61132 0.0
C3219 C 0.43593 0.25949 0.63526 0.0
C3220 C 0.4571 0.24842 0.63801 0.0
C3221 C 0.4724 0.24656 0.61761 0.0
C3222 C 0.41946 0.2601 0.65716 0.0
C3223 C 0.41944 0.24063 0.67229 0.0
C3224 C 0.40365 0.27926 0.66318 0.0
C3225 C 0.40314 0.30097 0.64955 0.0
C3226 C 0.42096 0.31021 0.64735 0.0
C3227 C 0.42025 0.33078 0.63469 0.0
C3228 C 0.40175 0.34237 0.62435 0.0
C3229 C 0.3839 0.33342 0.62667 0.0
C3230 C 0.38454 0.31283 0.63924 0.0
C3231 C 0.36218 0.25093 0.76483 0.0
C3232 C 0.34091 0.26152 0.76225 0.0
C3233 C 0.37746 0.24982 0.74438 0.0
C3234 C 0.37193 0.25895 0.72049 0.0
C3235 C 0.35062 0.26958 0.71802 0.0
C3236 C 0.33545 0.27114 0.73859 0.0
C3237 C 0.38835 0.25869 0.69856 0.0
C3238 C 0.38835 0.27821 0.68347 0.0
C3239 C 0.40432 0.23969 0.69266 0.0
C3240 C 0.40508 0.21811 0.70635 0.0
C3241 C 0.38935 0.20666 0.70411 0.0
C3242 C 0.39029 0.18597 0.71659 0.0
C3243 C 0.40694 0.17664 0.73134 0.0
C3244 C 0.42281 0.18786 0.7334 0.0
C3245 C 0.422 0.20848 0.7208 0.0
H3246 H 0.40761 0.16065 0.74103 0.0
H3247 H 0.40123 0.35831 0.6146 0.0
H3248 H 0.84647 0.47635 0.65524 0.0
H3249 H 0.84171 0.44201 0.67767 0.0
H3250 H 0.79592 0.43695 0.62717 0.0
H3251 H 0.80034 0.4716 0.60502 0.0
H3252 H 0.78233 0.42664 0.67278 0.0
H3253 H 0.84747 0.40506 0.62263 0.0
H3254 H 0.88361 0.40661 0.60574 0.0
H3255 H 0.90497 0.39312 0.67948 0.0
H3256 H 0.86888 0.39177 0.69686 0.0
H3257 H 0.82535 0.2998 0.70777 0.0
H3258 H 0.82837 0.33381 0.68318 0.0
H3259 H 0.78768 0.372 0.73973 0.0
H3260 H 0.7828 0.33827 0.7624 0.0
H3261 H 0.84408 0.36538 0.68893 0.0
H3262 H 0.76349 0.42182 0.71862 0.0
H3263 H 0.72728 0.41872 0.73343 0.0
H3264 H 0.73585 0.35961 0.69432 0.0
H3265 H 0.772 0.36255 0.67897 0.0
C3266 C 0.83551 0.46782 0.64883 0.0
C3267 C 0.82384 0.47661 0.62833 0.0
C3268 C 0.83279 0.44819 0.66165 0.0
C3269 C 0.81866 0.43668 0.65393 0.0
C3270 C 0.80688 0.44552 0.63353 0.0
C3271 C 0.80941 0.46532 0.62089 0.0
C3272 C 0.81615 0.41548 0.66718 0.0
C3273 C 0.79582 0.41318 0.6762 0.0
C3274 C 0.83369 0.3978 0.67146 0.0
C3275 C 0.85543 0.39852 0.66107 0.0
C3276 C 0.85984 0.40258 0.63526 0.0
C3277 C 0.88032 0.4034 0.6256 0.0
C3278 C 0.89657 0.40002 0.64154 0.0
C3279 C 0.89237 0.39576 0.66716 0.0
C3280 C 0.87191 0.39495 0.67693 0.0
C3281 C 0.81701 0.31552 0.71479 0.0
C3282 C 0.80452 0.31634 0.73757 0.0
C3283 C 0.81879 0.33497 0.70081 0.0
C3284 C 0.80811 0.35566 0.70936 0.0
C3285 C 0.79567 0.3564 0.73219 0.0
C3286 C 0.79332 0.33696 0.74565 0.0
C3287 C 0.81021 0.37635 0.6945 0.0
C3288 C 0.83051 0.37868 0.68533 0.0
C3289 C 0.79255 0.39382 0.68956 0.0
C3290 C 0.77052 0.39234 0.69779 0.0
C3291 C 0.75759 0.40827 0.71301 0.0
C3292 C 0.73709 0.40651 0.72156 0.0
C3293 C 0.7293 0.38893 0.71491 0.0
C3294 C 0.74193 0.37318 0.69952 0.0
C3295 C 0.76242 0.37489 0.69088 0.0
H3296 H 0.71346 0.38755 0.72164 0.0
H3297 H 0.91241 0.40066 0.63402 0.0
H3298 H 0.24191 0.57028 0.5431 0.0
H3299 H 0.23267 0.60387 0.56648 0.0
H3300 H 0.28723 0.5794 0.60845 0.0
H3301 H 0.29601 0.54588 0.58598 0.0
H3302 H 0.257 0.60319 0.63698 0.0
H3303 H 0.29037 0.61119 0.55255 0.0
H3304 H 0.29069 0.60712 0.50729 0.0
H3305 H 0.23057 0.65308 0.50553 0.0
H3306 H 0.22979 0.65718 0.55087 0.0
H3307 H 0.30938 0.68989 0.64615 0.0
H3308 H 0.29992 0.66018 0.62591 0.0
H3309 H 0.23428 0.69399 0.6333 0.0
H3310 H 0.24359 0.72365 0.65406 0.0
H3311 H 0.26148 0.66908 0.58043 0.0
H3312 H 0.2322 0.66231 0.66842 0.0
H3313 H 0.23568 0.66297 0.71353 0.0
H3314 H 0.29283 0.61239 0.7074 0.0
H3315 H 0.28985 0.61174 0.66215 0.0
C3316 C 0.25147 0.57182 0.55789 0.0
C3317 C 0.26989 0.55569 0.56241 0.0
C3318 C 0.24627 0.59105 0.57113 0.0
C3319 C 0.25956 0.59438 0.5888 0.0
C3320 C 0.27679 0.57732 0.59484 0.0
C3321 C 0.28188 0.55818 0.58181 0.0
C3322 C 0.2576 0.61633 0.59873 0.0
C3323 C 0.2576 0.61766 0.62461 0.0
C3324 C 0.25861 0.63524 0.58262 0.0
C3325 C 0.25993 0.63436 0.55508 0.0
C3326 C 0.27727 0.62049 0.54246 0.0
C3327 C 0.27748 0.61807 0.51685 0.0
C3328 C 0.26054 0.62964 0.50362 0.0
C3329 C 0.24358 0.64399 0.51587 0.0
C3330 C 0.24326 0.64641 0.5415 0.0
C3331 C 0.29298 0.69116 0.64311 0.0
C3332 C 0.2772 0.709 0.65174 0.0
C3333 C 0.28761 0.67422 0.63157 0.0
C3334 C 0.26644 0.675 0.62812 0.0
C3335 C 0.2507 0.6932 0.63577 0.0
C3336 C 0.25603 0.70999 0.64772 0.0
C3337 C 0.26087 0.65575 0.61857 0.0
C3338 C 0.2599 0.65486 0.59279 0.0
C3339 C 0.25933 0.6371 0.63468 0.0
C3340 C 0.2609 0.63713 0.66192 0.0
C3341 C 0.24559 0.65147 0.67668 0.0
C3342 C 0.24746 0.65182 0.70227 0.0
C3343 C 0.2645 0.63777 0.71332 0.0
C3344 C 0.27966 0.62328 0.69882 0.0
C3345 C 0.27788 0.62291 0.67321 0.0
H3346 H 0.26592 0.63806 0.73313 0.0
H3347 H 0.26066 0.62763 0.48384 0.0
loop_
_geom_bond_atom_site_label_1
_geom_bond_atom_site_label_2
_geom_bond_distance
_geom_bond_site_symmetry_2
_ccdc_geom_bond_type
Cu0 N1 1.999 . S
Cu0 O6 1.988 . S
Cu0 N11 1.986 . S
Cu0 O20 1.959 1_455 S
N1 Cu0 1.999 . S
N1 C3 1.263 . S
N1 C5 1.389 . S
N2 C3 1.358 . S
N2 C4 1.400 . S
C3 N1 1.263 . S
C3 N2 1.358 . S
C3 H9 0.930 . S
C4 N2 1.400 . S
C4 C5 1.351 . S
C4 H21 0.930 . S
C5 N1 1.389 . S
C5 C4 1.351 . S
C5 H10 0.930 . S
O6 Cu0 1.988 . S
O6 C16 1.275 1_545 S
C7 O8 1.261 . S
C7 O20 1.251 . S
O8 C7 1.261 . S
H9 C3 0.930 . S
H10 C5 0.930 . S
N11 Cu0 1.986 . S
N11 C13 1.344 1_455 S
N11 C14 1.388 1_545 S
N12 C13 1.297 1_565 S
N12 C15 1.336 . S
C13 N11 1.344 1_655 S
C13 N12 1.297 1_545 S
C13 H18 0.965 . S
C14 N11 1.388 1_565 S
C14 C15 1.346 1_455 S
C14 H19 0.930 . S
C15 N12 1.336 . S
C15 C14 1.346 1_655 S
C15 H22 0.929 . S
C16 O6 1.275 1_565 S
C16 O17 1.215 1_565 S
O17 C16 1.215 1_545 S
H18 C13 0.965 . S
H19 C14 0.930 . S
O20 Cu0 1.959 1_655 S
O20 C7 1.251 . S
H21 C4 0.930 . S
H22 C15 0.929 . S
Cu23 N24 1.999 . S
Cu23 O29 1.974 1_455 S
Cu23 N34 1.985 . S
Cu23 O43 1.959 . S
N24 Cu23 1.999 . S
N24 C26 1.263 1_455 S
N24 C28 1.389 1_545 S
N25 C26 1.358 1_565 S
N25 C27 1.400 . S
C26 N24 1.263 1_655 S
C26 N25 1.358 1_545 S
C26 H32 0.930 . S
C27 N25 1.400 . S
C27 C28 1.351 1_655 S
C27 H44 0.930 . S
C28 N24 1.389 1_565 S
C28 C27 1.351 1_455 S
C28 H33 0.930 . S
O29 Cu23 1.974 1_655 S
O29 C39 1.282 . S
C30 O31 1.261 . S
C30 O43 1.251 . S
O31 C30 1.261 . S
H32 C26 0.930 . S
H33 C28 0.930 . S
N34 Cu23 1.985 . S
N34 C36 1.335 . S
N34 C37 1.390 . S
N35 C36 1.345 . S
N35 C38 1.336 . S
C36 N34 1.335 . S
C36 N35 1.345 . S
C36 H41 0.930 . S
C37 N34 1.390 . S
C37 C38 1.346 . S
C37 H42 0.930 . S
C38 N35 1.336 . S
C38 C37 1.346 . S
C38 H45 0.929 . S
C39 O29 1.282 . S
C39 O40 1.216 . S
O40 C39 1.216 . S
H41 C36 0.930 . S
H42 C37 0.930 . S
O43 Cu23 1.959 . S
O43 C30 1.251 . S
H44 C27 0.930 . S
H45 C38 0.929 . S
Cu46 N47 1.999 . S
Cu46 O52 1.974 . S
Cu46 N57 1.985 . S
Cu46 O66 1.959 . S
N47 Cu46 1.999 . S
N47 C49 1.263 . S
N47 C51 1.389 . S
N48 C49 1.358 . S
N48 C50 1.400 . S
C49 N47 1.263 . S
C49 N48 1.358 . S
C49 H55 0.930 . S
C50 N48 1.400 . S
C50 C51 1.351 . S
C50 H67 0.930 1_554 S
C51 N47 1.389 . S
C51 C50 1.351 . S
C51 H56 0.930 . S
O52 Cu46 1.974 . S
O52 C62 1.282 . S
C53 O54 1.261 . S
C53 O66 1.251 . S
O54 C53 1.261 . S
H55 C49 0.930 . S
H56 C51 0.930 . S
N57 Cu46 1.985 . S
N57 C59 1.335 . S
N57 C60 1.390 . S
N58 C59 1.345 . S
N58 C61 1.336 . S
C59 N57 1.335 . S
C59 N58 1.345 . S
C59 H64 0.930 . S
C60 N57 1.390 . S
C60 C61 1.346 . S
C60 H65 0.930 . S
C61 N58 1.336 . S
C61 C60 1.346 . S
C61 H68 0.929 . S
C62 O52 1.282 . S
C62 O63 1.216 . S
O63 C62 1.216 . S
H64 C59 0.930 . S
H65 C60 0.930 . S
O66 Cu46 1.959 . S
O66 C53 1.251 . S
H67 C50 0.930 1_556 S
H68 C61 0.929 . S
Cu69 N70 1.999 . S
Cu69 O75 1.974 . S
Cu69 N80 1.985 . S
Cu69 O89 1.959 . S
N70 Cu69 1.999 . S
N70 C72 1.263 . S
N70 C74 1.389 . S
N71 C72 1.358 . S
N71 C73 1.400 1_554 S
C72 N70 1.263 . S
C72 N71 1.358 . S
C72 H78 0.930 . S
C73 N71 1.400 1_556 S
C73 C74 1.351 1_556 S
C73 H90 0.930 . S
C74 N70 1.389 . S
C74 C73 1.351 1_554 S
C74 H79 0.930 . S
O75 Cu69 1.974 . S
O75 C85 1.282 . S
C76 O77 1.261 . S
C76 O89 1.251 . S
O77 C76 1.261 . S
H78 C72 0.930 . S
H79 C74 0.930 . S
N80 Cu69 1.985 . S
N80 C82 1.335 1_455 S
N80 C83 1.390 . S
N81 C82 1.345 . S
N81 C84 1.336 1_655 S
C82 N80 1.335 1_655 S
C82 N81 1.345 . S
C82 H87 0.930 . S
C83 N80 1.390 . S
C83 C84 1.346 . S
C83 H88 0.930 . S
C84 N81 1.336 1_455 S
C84 C83 1.346 . S
C84 H91 0.929 . S
C85 O75 1.282 . S
C85 O86 1.216 . S
O86 C85 1.216 . S
H87 C82 0.930 . S
H88 C83 0.930 . S
O89 Cu69 1.959 . S
O89 C76 1.251 . S
H90 C73 0.930 . S
H91 C84 0.929 . S
Cu92 N93 1.999 1_554 S
Cu92 O98 1.974 . S
Cu92 N103 1.985 1_545 S
Cu92 O112 1.959 1_544 S
N93 Cu92 1.999 1_556 S
N93 C95 1.263 . S
N93 C97 1.389 . S
N94 C95 1.358 . S
N94 C96 1.400 . S
C95 N93 1.263 . S
C95 N94 1.358 . S
C95 H101 0.930 . S
C96 N94 1.400 . S
C96 C97 1.351 . S
C96 H113 0.930 . S
C97 N93 1.389 . S
C97 C96 1.351 . S
C97 H102 0.930 . S
O98 Cu92 1.974 . S
O98 C108 1.282 . S
C99 O100 1.261 . S
C99 O112 1.251 . S
O100 C99 1.261 . S
H101 C95 0.930 . S
H102 C97 0.930 . S
N103 Cu92 1.985 1_565 S
N103 C105 1.335 . S
N103 C106 1.390 . S
N104 C105 1.345 . S
N104 C107 1.336 . S
C105 N103 1.335 . S
C105 N104 1.345 . S
C105 H110 0.930 . S
C106 N103 1.390 . S
C106 C107 1.346 . S
C106 H111 0.930 . S
C107 N104 1.336 . S
C107 C106 1.346 . S
C107 H114 0.929 . S
C108 O98 1.282 . S
C108 O109 1.216 . S
O109 C108 1.216 . S
H110 C105 0.930 . S
H111 C106 0.930 . S
O112 Cu92 1.959 1_566 S
O112 C99 1.251 . S
H113 C96 0.930 . S
H114 C107 0.929 . S
Cu115 N116 1.999 1_454 S
Cu115 O121 1.974 1_455 S
Cu115 N126 1.985 . S
Cu115 O135 1.959 1_554 S
N116 Cu115 1.999 1_656 S
N116 C118 1.263 . S
N116 C120 1.389 . S
N117 C118 1.358 . S
N117 C119 1.400 . S
C118 N116 1.263 . S
C118 N117 1.358 . S
C118 H124 0.930 . S
C119 N117 1.400 . S
C119 C120 1.351 . S
C119 H136 0.930 . S
C120 N116 1.389 . S
C120 C119 1.351 . S
C120 H125 0.930 1_655 S
O121 Cu115 1.974 1_655 S
O121 C131 1.282 . S
C122 O123 1.261 . S
C122 O135 1.251 . S
O123 C122 1.261 . S
H124 C118 0.930 . S
H125 C120 0.930 1_455 S
N126 Cu115 1.985 . S
N126 C128 1.335 . S
N126 C129 1.390 . S
N127 C128 1.345 . S
N127 C130 1.336 . S
C128 N126 1.335 . S
C128 N127 1.345 . S
C128 H133 0.930 . S
C129 N126 1.390 . S
C129 C130 1.346 . S
C129 H134 0.911 1_455 S
C130 N127 1.336 . S
C130 C129 1.346 . S
C130 H137 0.929 . S
C131 O121 1.282 . S
C131 O132 1.216 . S
O132 C131 1.216 . S
H133 C128 0.930 . S
H134 C129 0.911 1_655 S
O135 Cu115 1.959 1_556 S
O135 C122 1.251 . S
H136 C119 0.930 . S
H137 C130 0.929 . S
Cu138 N139 1.999 . S
Cu138 O144 1.974 . S
Cu138 N149 1.985 . S
Cu138 O158 1.959 . S
N139 Cu138 1.999 . S
N139 C141 1.263 . S
N139 C143 1.389 . S
N140 C141 1.358 . S
N140 C142 1.400 . S
C141 N139 1.263 . S
C141 N140 1.358 . S
C141 H147 0.930 . S
C142 N140 1.400 . S
C142 C143 1.351 . S
C142 H159 0.930 . S
C143 N139 1.389 . S
C143 C142 1.351 . S
C143 H148 0.930 . S
O144 Cu138 1.974 . S
O144 C154 1.282 . S
C145 O146 1.261 . S
C145 O158 1.251 . S
O146 C145 1.261 . S
H147 C141 0.930 . S
H148 C143 0.930 . S
N149 Cu138 1.985 . S
N149 C151 1.335 . S
N149 C152 1.390 . S
N150 C151 1.345 . S
N150 C153 1.336 . S
C151 N149 1.335 . S
C151 N150 1.345 . S
C151 H156 0.930 . S
C152 N149 1.390 . S
C152 C153 1.346 . S
C152 H157 0.930 . S
C153 N150 1.336 . S
C153 C152 1.346 . S
C153 H160 0.929 . S
C154 O144 1.282 . S
C154 O155 1.216 . S
O155 C154 1.216 . S
H156 C151 0.930 . S
H157 C152 0.930 . S
O158 Cu138 1.959 . S
O158 C145 1.251 . S
H159 C142 0.930 . S
H160 C153 0.929 . S
Cu161 N162 1.999 . S
Cu161 O167 1.974 . S
Cu161 N172 1.985 . S
Cu161 O181 1.959 . S
N162 Cu161 1.999 . S
N162 C164 1.263 . S
N162 C166 1.389 . S
N163 C164 1.358 . S
N163 C165 1.400 . S
C164 N162 1.263 . S
C164 N163 1.358 . S
C164 H170 0.930 . S
C165 N163 1.400 . S
C165 C166 1.351 . S
C165 H182 0.930 . S
C166 N162 1.389 . S
C166 C165 1.351 . S
C166 H171 0.930 . S
O167 Cu161 1.974 . S
O167 C177 1.282 . S
C168 O169 1.261 . S
C168 O181 1.251 . S
O169 C168 1.261 . S
H170 C164 0.930 . S
H171 C166 0.930 . S
N172 Cu161 1.985 . S
N172 C174 1.335 . S
N172 C175 1.390 . S
N173 C174 1.345 . S
N173 C176 1.336 . S
C174 N172 1.335 . S
C174 N173 1.345 . S
C174 H179 0.930 . S
C175 N172 1.390 . S
C175 C176 1.346 . S
C175 H180 0.930 . S
C176 N173 1.336 . S
C176 C175 1.346 . S
C176 H183 0.929 . S
C177 O167 1.282 . S
C177 O178 1.216 . S
O178 C177 1.216 . S
H179 C174 0.930 . S
H180 C175 0.930 . S
O181 Cu161 1.959 . S
O181 C168 1.251 . S
H182 C165 0.930 . S
H183 C176 0.929 . S
Cu184 N185 1.999 . S
Cu184 O190 1.974 . S
Cu184 N195 1.985 . S
Cu184 O204 1.959 . S
N185 Cu184 1.999 . S
N185 C187 1.263 . S
N185 C189 1.389 . S
N186 C187 1.358 . S
N186 C188 1.400 . S
C187 N185 1.263 . S
C187 N186 1.358 . S
C187 H193 0.930 . S
C188 N186 1.400 . S
C188 C189 1.351 . S
C188 H205 0.930 . S
C189 N185 1.389 . S
C189 C188 1.351 . S
C189 H194 0.930 . S
O190 Cu184 1.974 . S
O190 C200 1.282 . S
C191 O192 1.261 . S
C191 O204 1.251 . S
O192 C191 1.261 . S
H193 C187 0.930 . S
H194 C189 0.930 . S
N195 Cu184 1.985 . S
N195 C197 1.335 . S
N195 C198 1.390 . S
N196 C197 1.345 . S
N196 C199 1.336 . S
C197 N195 1.335 . S
C197 N196 1.345 . S
C197 H202 0.930 . S
C198 N195 1.390 . S
C198 C199 1.346 . S
C198 H203 0.930 . S
C199 N196 1.336 . S
C199 C198 1.346 . S
C199 H206 0.929 . S
C200 O190 1.282 . S
C200 O201 1.216 . S
O201 C200 1.216 . S
H202 C197 0.930 . S
H203 C198 0.930 . S
O204 Cu184 1.959 . S
O204 C191 1.251 . S
H205 C188 0.930 . S
H206 C199 0.929 . S
Cu207 N208 1.999 . S
Cu207 O213 1.974 . S
Cu207 N218 1.985 . S
Cu207 O227 1.959 . S
N208 Cu207 1.999 . S
N208 C210 1.263 . S
N208 C212 1.389 . S
N209 C210 1.358 . S
N209 C211 1.400 . S
C210 N208 1.263 . S
C210 N209 1.358 . S
C210 H216 0.930 . S
C211 N209 1.400 . S
C211 C212 1.351 . S
C211 H228 0.930 . S
C212 N208 1.389 . S
C212 C211 1.351 . S
C212 H217 0.930 . S
O213 Cu207 1.974 . S
O213 C223 1.282 . S
C214 O215 1.261 . S
C214 O227 1.251 . S
O215 C214 1.261 . S
H216 C210 0.930 . S
H217 C212 0.930 . S
N218 Cu207 1.985 . S
N218 C220 1.335 . S
N218 C221 1.390 . S
N219 C220 1.345 . S
N219 C222 1.336 . S
C220 N218 1.335 . S
C220 N219 1.345 . S
C220 H225 0.930 . S
C221 N218 1.390 . S
C221 C222 1.346 . S
C221 H226 0.930 . S
C222 N219 1.336 . S
C222 C221 1.346 . S
C222 H229 0.929 . S
C223 O213 1.282 . S
C223 O224 1.216 . S
O224 C223 1.216 . S
H225 C220 0.930 . S
H226 C221 0.930 . S
O227 Cu207 1.959 . S
O227 C214 1.251 . S
H228 C211 0.930 . S
H229 C222 0.929 . S
Cu230 N231 1.999 . S
Cu230 O236 1.974 . S
Cu230 N241 1.985 . S
Cu230 O250 1.959 . S
N231 Cu230 1.999 . S
N231 C233 1.263 . S
N231 C235 1.389 . S
N232 C233 1.358 . S
N232 C234 1.400 . S
C233 N231 1.263 . S
C233 N232 1.358 . S
C233 H239 0.930 . S
C234 N232 1.400 . S
C234 C235 1.351 . S
C234 H251 0.930 . S
C235 N231 1.389 . S
C235 C234 1.351 . S
C235 H240 0.930 . S
O236 Cu230 1.974 . S
O236 C246 1.282 . S
C237 O238 1.261 . S
C237 O250 1.251 . S
O238 C237 1.261 . S
H239 C233 0.930 . S
H240 C235 0.930 . S
N241 Cu230 1.985 . S
N241 C243 1.335 . S
N241 C244 1.390 . S
N242 C243 1.345 . S
N242 C245 1.336 . S
C243 N241 1.335 . S
C243 N242 1.345 . S
C243 H248 0.930 . S
C244 N241 1.390 . S
C244 C245 1.346 . S
C244 H249 0.930 . S
C245 N242 1.336 . S
C245 C244 1.346 . S
C245 H252 0.929 . S
C246 O236 1.282 . S
C246 O247 1.216 . S
O247 C246 1.216 . S
H248 C243 0.930 . S
H249 C244 0.930 . S
O250 Cu230 1.959 . S
O250 C237 1.251 . S
H251 C234 0.930 . S
H252 C245 0.929 . S
Cu253 N254 1.999 . S
Cu253 O259 1.974 . S
Cu253 N264 1.985 . S
Cu253 O273 1.959 . S
N254 Cu253 1.999 . S
N254 C256 1.263 . S
N254 C258 1.389 . S
N255 C256 1.358 . S
N255 C257 1.400 . S
C256 N254 1.263 . S
C256 N255 1.358 . S
C256 H262 0.930 . S
C257 N255 1.400 . S
C257 C258 1.351 . S
C257 H274 0.930 . S
C258 N254 1.389 . S
C258 C257 1.351 . S
C258 H263 0.930 . S
O259 Cu253 1.974 . S
O259 C269 1.282 . S
C260 O261 1.261 . S
C260 O273 1.251 . S
O261 C260 1.261 . S
H262 C256 0.930 . S
H263 C258 0.930 . S
N264 Cu253 1.985 . S
N264 C266 1.335 . S
N264 C267 1.390 . S
N265 C266 1.345 . S
N265 C268 1.336 . S
C266 N264 1.335 . S
C266 N265 1.345 . S
C266 H271 0.930 . S
C267 N264 1.390 . S
C267 C268 1.346 . S
C267 H272 0.930 . S
C268 N265 1.336 . S
C268 C267 1.346 . S
C268 H275 0.929 . S
C269 O259 1.282 . S
C269 O270 1.216 . S
O270 C269 1.216 . S
H271 C266 0.930 . S
H272 C267 0.930 . S
O273 Cu253 1.959 . S
O273 C260 1.251 . S
H274 C257 0.930 . S
H275 C268 0.929 . S
Tb276 N307 2.660 . S
Tb276 N314 2.600 . S
Tb276 O320 2.546 . S
Tb276 O321 2.610 . S
Tb276 O323 2.320 . S
Tb276 O324 2.552 . S
Tb276 O325 2.413 . S
Tb276 O327 2.362 . S
Tb276 O328 2.421 . S
Tb276 C340 2.833 . S
C277 C280 1.432 . S
C277 C281 1.414 . S
C277 N284 1.359 . S
C278 C280 1.417 . S
C278 C282 1.432 . S
C278 C290 1.410 . S
C279 C281 1.444 . S
C279 C282 1.317 . S
C279 H302 0.929 . S
C280 C277 1.432 . S
C280 C278 1.417 . S
C280 N288 1.360 . S
C281 C277 1.414 . S
C281 C279 1.444 . S
C281 C286 1.385 . S
C282 C278 1.432 . S
C282 C279 1.317 . S
C282 H294 0.930 . S
C283 C285 1.392 . S
C283 C286 1.370 . S
C283 H295 0.931 . S
N284 C277 1.359 . S
N284 C285 1.327 . S
N284 Tb287 2.600 . S
C285 C283 1.392 . S
C285 N284 1.327 . S
C285 H292 0.930 . S
C286 C281 1.385 . S
C286 C283 1.370 . S
C286 H305 0.930 . S
Tb287 N284 2.600 . S
Tb287 N288 2.660 . S
Tb287 O321 2.362 . S
Tb287 O322 2.421 . S
Tb287 O326 2.546 . S
Tb287 O327 2.610 . S
Tb287 O329 2.320 . S
Tb287 O330 2.552 . S
Tb287 O331 2.413 . S
Tb287 C351 2.833 . S
N288 C280 1.360 . S
N288 Tb287 2.660 . S
N288 C289 1.305 . S
C289 N288 1.305 . S
C289 C291 1.407 . S
C289 H296 0.930 . S
C290 C278 1.410 . S
C290 C291 1.345 . S
C290 H298 0.930 . S
C291 C289 1.407 . S
C291 C290 1.345 . S
C291 H293 0.930 . S
H292 C285 0.930 . S
H293 C291 0.930 . S
H294 C282 0.930 . S
H295 C283 0.931 . S
H296 C289 0.930 . S
H297 C311 0.930 . S
H298 C290 0.930 . S
H299 C317 0.930 . S
H300 C308 0.930 . S
H301 C315 0.931 . S
H302 C279 0.929 . S
H303 C309 0.930 . S
H304 C342 0.930 . S
H305 C286 0.930 . S
H306 C341 0.929 . S
N307 Tb276 2.660 . S
N307 C308 1.305 . S
N307 C312 1.360 . S
C308 H300 0.930 . S
C308 N307 1.305 . S
C308 C311 1.407 . S
C309 H303 0.930 . S
C309 C310 1.410 . S
C309 C311 1.345 . S
C310 C309 1.410 . S
C310 C312 1.417 . S
C310 C342 1.432 . S
C311 H297 0.930 . S
C311 C308 1.407 . S
C311 C309 1.345 . S
C312 N307 1.360 . S
C312 C310 1.417 . S
C312 C316 1.432 . S
H313 C318 0.930 . S
N314 Tb276 2.600 . S
N314 C316 1.359 . S
N314 C317 1.327 . S
C315 H301 0.931 . S
C315 C317 1.392 . S
C315 C318 1.370 . S
C316 C312 1.432 . S
C316 N314 1.359 . S
C316 C319 1.414 . S
C317 H299 0.930 . S
C317 N314 1.327 . S
C317 C315 1.392 . S
C318 H313 0.930 . S
C318 C315 1.370 . S
C318 C319 1.385 . S
C319 C316 1.414 . S
C319 C318 1.385 . S
C319 C341 1.444 . S
O320 Tb276 2.546 . S
O320 C340 1.251 . S
O321 Tb276 2.610 . S
O321 Tb287 2.362 . S
O321 C332 1.283 . S
O322 Tb287 2.421 . S
O322 C339 1.262 . S
O323 Tb276 2.320 . S
O323 C339 1.260 . S
O324 Tb276 2.552 . S
O324 C332 1.243 . S
O325 Tb276 2.413 . S
O325 C340 1.256 . S
O326 Tb287 2.546 . S
O326 C351 1.251 . S
O327 Tb276 2.362 . S
O327 Tb287 2.610 . S
O327 C343 1.283 . S
O328 Tb276 2.421 . S
O328 C350 1.262 . S
O329 Tb287 2.320 . S
O329 C350 1.260 . S
O330 Tb287 2.552 . S
O330 C343 1.243 . S
O331 Tb287 2.413 . S
O331 C351 1.256 . S
C332 O321 1.283 . S
C332 O324 1.243 . S
C333 C335 1.382 . S
C333 C337 1.393 . S
C333 C340 1.500 . S
C334 C335 1.400 . S
C334 C336 1.384 . S
C335 C333 1.382 . S
C335 C334 1.400 . S
C335 H352 0.930 . S
C336 C334 1.384 . S
C336 C338 1.392 . S
C336 H353 0.931 . S
C337 C333 1.393 . S
C337 C338 1.401 . S
C337 H354 0.930 . S
C338 C336 1.392 . S
C338 C337 1.401 . S
C338 H355 0.930 . S
C339 O322 1.262 . S
C339 O323 1.260 . S
C340 Tb276 2.833 . S
C340 O320 1.251 . S
C340 O325 1.256 . S
C340 C333 1.500 . S
C341 H306 0.929 . S
C341 C319 1.444 . S
C341 C342 1.317 . S
C342 H304 0.930 . S
C342 C310 1.432 . S
C342 C341 1.317 . S
C343 O327 1.283 . S
C343 O330 1.243 . S
C344 C345 1.382 . S
C344 C348 1.393 . S
C344 C351 1.500 . S
C345 C344 1.382 . S
C345 C346 1.400 . S
C345 H356 0.930 . S
C346 C345 1.400 . S
C346 C347 1.384 . S
C347 C346 1.384 . S
C347 C349 1.392 . S
C347 H357 0.931 . S
C348 C344 1.393 . S
C348 C349 1.401 . S
C348 H358 0.930 . S
C349 C347 1.392 . S
C349 C348 1.401 . S
C349 H359 0.930 . S
C350 O328 1.262 . S
C350 O329 1.260 . S
C351 Tb287 2.833 . S
C351 O326 1.251 . S
C351 O331 1.256 . S
C351 C344 1.500 . S
H352 C335 0.930 . S
H353 C336 0.931 . S
H354 C337 0.930 . S
H355 C338 0.930 . S
H356 C345 0.930 . S
H357 C347 0.931 . S
H358 C348 0.930 . S
H359 C349 0.930 . S
Tb360 N391 2.660 . S
Tb360 N398 2.600 . S
Tb360 O404 2.546 . S
Tb360 O405 2.610 . S
Tb360 O407 2.320 . S
Tb360 O408 2.552 . S
Tb360 O409 2.413 . S
Tb360 O411 2.362 . S
Tb360 O412 2.421 . S
Tb360 C424 2.833 . S
C361 C364 1.432 . S
C361 C365 1.414 . S
C361 N368 1.359 . S
C362 C364 1.417 . S
C362 C366 1.432 . S
C362 C374 1.410 . S
C363 C365 1.444 . S
C363 C366 1.317 . S
C363 H386 0.929 . S
C364 C361 1.432 . S
C364 C362 1.417 . S
C364 N372 1.360 . S
C365 C361 1.414 . S
C365 C363 1.444 . S
C365 C370 1.385 . S
C366 C362 1.432 . S
C366 C363 1.317 . S
C366 H378 0.930 . S
C367 C369 1.392 . S
C367 C370 1.370 . S
C367 H379 0.931 . S
N368 C361 1.359 . S
N368 C369 1.327 . S
N368 Tb371 2.600 . S
C369 C367 1.392 . S
C369 N368 1.327 . S
C369 H376 0.930 . S
C370 C365 1.385 . S
C370 C367 1.370 . S
C370 H389 0.930 . S
Tb371 N368 2.600 . S
Tb371 N372 2.660 . S
Tb371 O405 2.362 . S
Tb371 O406 2.421 . S
Tb371 O410 2.546 . S
Tb371 O411 2.610 . S
Tb371 O413 2.320 . S
Tb371 O414 2.552 . S
Tb371 O415 2.413 . S
Tb371 C435 2.833 . S
N372 C364 1.360 . S
N372 Tb371 2.660 . S
N372 C373 1.305 . S
C373 N372 1.305 . S
C373 C375 1.407 . S
C373 H380 0.930 . S
C374 C362 1.410 . S
C374 C375 1.345 . S
C374 H382 0.930 . S
C375 C373 1.407 . S
C375 C374 1.345 . S
C375 H377 0.930 . S
H376 C369 0.930 . S
H377 C375 0.930 . S
H378 C366 0.930 . S
H379 C367 0.931 . S
H380 C373 0.930 . S
H381 C395 0.930 . S
H382 C374 0.930 . S
H383 C401 0.930 . S
H384 C392 0.930 . S
H385 C399 0.931 . S
H386 C363 0.929 . S
H387 C393 0.930 . S
H388 C426 0.930 . S
H389 C370 0.930 . S
H390 C425 0.929 . S
N391 Tb360 2.660 . S
N391 C392 1.305 . S
N391 C396 1.360 . S
C392 H384 0.930 . S
C392 N391 1.305 . S
C392 C395 1.407 . S
C393 H387 0.930 . S
C393 C394 1.410 . S
C393 C395 1.345 . S
C394 C393 1.410 . S
C394 C396 1.417 . S
C394 C426 1.432 . S
C395 H381 0.930 . S
C395 C392 1.407 . S
C395 C393 1.345 . S
C396 N391 1.360 . S
C396 C394 1.417 . S
C396 C400 1.432 . S
H397 C402 0.930 . S
N398 Tb360 2.600 . S
N398 C400 1.359 . S
N398 C401 1.327 . S
C399 H385 0.931 . S
C399 C401 1.392 . S
C399 C402 1.370 . S
C400 C396 1.432 . S
C400 N398 1.359 . S
C400 C403 1.414 . S
C401 H383 0.930 . S
C401 N398 1.327 . S
C401 C399 1.392 . S
C402 H397 0.930 . S
C402 C399 1.370 . S
C402 C403 1.385 . S
C403 C400 1.414 . S
C403 C402 1.385 . S
C403 C425 1.444 . S
O404 Tb360 2.546 . S
O404 C424 1.251 . S
O405 Tb360 2.610 . S
O405 Tb371 2.362 . S
O405 C416 1.283 . S
O406 Tb371 2.421 . S
O406 C423 1.262 . S
O407 Tb360 2.320 . S
O407 C423 1.260 . S
O408 Tb360 2.552 . S
O408 C416 1.243 . S
O409 Tb360 2.413 . S
O409 C424 1.256 . S
O410 Tb371 2.546 . S
O410 C435 1.251 . S
O411 Tb360 2.362 . S
O411 Tb371 2.610 . S
O411 C427 1.283 . S
O412 Tb360 2.421 . S
O412 C434 1.262 . S
O413 Tb371 2.320 . S
O413 C434 1.260 . S
O414 Tb371 2.552 . S
O414 C427 1.243 . S
O415 Tb371 2.413 . S
O415 C435 1.256 . S
C416 O405 1.283 . S
C416 O408 1.243 . S
C417 C419 1.382 . S
C417 C421 1.393 . S
C417 C424 1.500 . S
C418 C419 1.400 . S
C418 C420 1.384 . S
C419 C417 1.382 . S
C419 C418 1.400 . S
C419 H436 0.930 . S
C420 C418 1.384 . S
C420 C422 1.392 . S
C420 H437 0.931 . S
C421 C417 1.393 . S
C421 C422 1.401 . S
C421 H438 0.930 . S
C422 C420 1.392 . S
C422 C421 1.401 . S
C422 H439 0.930 . S
C423 O406 1.262 . S
C423 O407 1.260 . S
C424 Tb360 2.833 . S
C424 O404 1.251 . S
C424 O409 1.256 . S
C424 C417 1.500 . S
C425 H390 0.929 . S
C425 C403 1.444 . S
C425 C426 1.317 . S
C426 H388 0.930 . S
C426 C394 1.432 . S
C426 C425 1.317 . S
C427 O411 1.283 . S
C427 O414 1.243 . S
C428 C429 1.382 . S
C428 C432 1.393 . S
C428 C435 1.500 . S
C429 C428 1.382 . S
C429 C430 1.400 . S
C429 H440 0.930 . S
C430 C429 1.400 . S
C430 C431 1.384 . S
C431 C430 1.384 . S
C431 C433 1.392 . S
C431 H441 0.931 . S
C432 C428 1.393 . S
C432 C433 1.401 . S
C432 H442 0.930 . S
C433 C431 1.392 . S
C433 C432 1.401 . S
C433 H443 0.930 . S
C434 O412 1.262 . S
C434 O413 1.260 . S
C435 Tb371 2.833 . S
C435 O410 1.251 . S
C435 O415 1.256 . S
C435 C428 1.500 . S
H436 C419 0.930 . S
H437 C420 0.931 . S
H438 C421 0.930 . S
H439 C422 0.930 . S
H440 C429 0.930 . S
H441 C431 0.931 . S
H442 C432 0.930 . S
H443 C433 0.930 . S
Tb444 N475 2.660 . S
Tb444 N482 2.600 . S
Tb444 O488 2.546 . S
Tb444 O489 2.610 . S
Tb444 O491 2.320 . S
Tb444 O492 2.552 . S
Tb444 O493 2.413 . S
Tb444 O495 2.362 . S
Tb444 O496 2.421 . S
Tb444 C508 2.833 . S
C445 C448 1.432 . S
C445 C449 1.414 . S
C445 N452 1.359 . S
C446 C448 1.417 . S
C446 C450 1.432 . S
C446 C458 1.410 . S
C447 C449 1.444 . S
C447 C450 1.317 . S
C447 H470 0.929 . S
C448 C445 1.432 . S
C448 C446 1.417 . S
C448 N456 1.360 . S
C449 C445 1.414 . S
C449 C447 1.444 . S
C449 C454 1.385 . S
C450 C446 1.432 . S
C450 C447 1.317 . S
C450 H462 0.930 . S
C451 C453 1.392 . S
C451 C454 1.370 . S
C451 H463 0.931 . S
N452 C445 1.359 . S
N452 C453 1.327 . S
N452 Tb455 2.600 . S
C453 C451 1.392 . S
C453 N452 1.327 . S
C453 H460 0.930 . S
C454 C449 1.385 . S
C454 C451 1.370 . S
C454 H473 0.930 . S
Tb455 N452 2.600 . S
Tb455 N456 2.660 . S
Tb455 O489 2.362 . S
Tb455 O490 2.421 . S
Tb455 O494 2.546 . S
Tb455 O495 2.610 . S
Tb455 O497 2.320 . S
Tb455 O498 2.552 . S
Tb455 O499 2.413 . S
Tb455 C519 2.833 . S
N456 C448 1.360 . S
N456 Tb455 2.660 . S
N456 C457 1.305 . S
C457 N456 1.305 . S
C457 C459 1.407 . S
C457 H464 0.930 . S
C458 C446 1.410 . S
C458 C459 1.345 . S
C458 H466 0.930 . S
C459 C457 1.407 . S
C459 C458 1.345 . S
C459 H461 0.930 . S
H460 C453 0.930 . S
H461 C459 0.930 . S
H462 C450 0.930 . S
H463 C451 0.931 . S
H464 C457 0.930 . S
H465 C479 0.930 . S
H466 C458 0.930 . S
H467 C485 0.930 . S
H468 C476 0.930 . S
H469 C483 0.931 . S
H470 C447 0.929 . S
H471 C477 0.930 . S
H472 C510 0.930 . S
H473 C454 0.930 . S
H474 C509 0.929 . S
N475 Tb444 2.660 . S
N475 C476 1.305 . S
N475 C480 1.360 . S
C476 H468 0.930 . S
C476 N475 1.305 . S
C476 C479 1.407 . S
C477 H471 0.930 . S
C477 C478 1.410 . S
C477 C479 1.345 . S
C478 C477 1.410 . S
C478 C480 1.417 . S
C478 C510 1.432 . S
C479 H465 0.930 . S
C479 C476 1.407 . S
C479 C477 1.345 . S
C480 N475 1.360 . S
C480 C478 1.417 . S
C480 C484 1.432 . S
H481 C486 0.930 . S
N482 Tb444 2.600 . S
N482 C484 1.359 . S
N482 C485 1.327 . S
C483 H469 0.931 . S
C483 C485 1.392 . S
C483 C486 1.370 . S
C484 C480 1.432 . S
C484 N482 1.359 . S
C484 C487 1.414 . S
C485 H467 0.930 . S
C485 N482 1.327 . S
C485 C483 1.392 . S
C486 H481 0.930 . S
C486 C483 1.370 . S
C486 C487 1.385 . S
C487 C484 1.414 . S
C487 C486 1.385 . S
C487 C509 1.444 . S
O488 Tb444 2.546 . S
O488 C508 1.251 . S
O489 Tb444 2.610 . S
O489 Tb455 2.362 . S
O489 C500 1.283 . S
O490 Tb455 2.421 . S
O490 C507 1.262 . S
O491 Tb444 2.320 . S
O491 C507 1.260 . S
O492 Tb444 2.552 . S
O492 C500 1.243 . S
O493 Tb444 2.413 . S
O493 C508 1.256 . S
O494 Tb455 2.546 . S
O494 C519 1.251 . S
O495 Tb444 2.362 . S
O495 Tb455 2.610 . S
O495 C511 1.283 . S
O496 Tb444 2.421 . S
O496 C518 1.262 . S
O497 Tb455 2.320 . S
O497 C518 1.260 . S
O498 Tb455 2.552 . S
O498 C511 1.243 . S
O499 Tb455 2.413 . S
O499 C519 1.256 . S
C500 O489 1.283 . S
C500 O492 1.243 . S
C501 C503 1.382 . S
C501 C505 1.393 . S
C501 C508 1.500 . S
C502 C503 1.400 . S
C502 C504 1.384 . S
C503 C501 1.382 . S
C503 C502 1.400 . S
C503 H520 0.930 . S
C504 C502 1.384 . S
C504 C506 1.392 . S
C504 H521 0.931 . S
C505 C501 1.393 . S
C505 C506 1.401 . S
C505 H522 0.930 . S
C506 C504 1.392 . S
C506 C505 1.401 . S
C506 H523 0.930 . S
C507 O490 1.262 . S
C507 O491 1.260 . S
C508 Tb444 2.833 . S
C508 O488 1.251 . S
C508 O493 1.256 . S
C508 C501 1.500 . S
C509 H474 0.929 . S
C509 C487 1.444 . S
C509 C510 1.317 . S
C510 H472 0.930 . S
C510 C478 1.432 . S
C510 C509 1.317 . S
C511 O495 1.283 . S
C511 O498 1.243 . S
C512 C513 1.382 . S
C512 C516 1.393 . S
C512 C519 1.500 . S
C513 C512 1.382 . S
C513 C514 1.400 . S
C513 H524 0.930 . S
C514 C513 1.400 . S
C514 C515 1.384 . S
C515 C514 1.384 . S
C515 C517 1.392 . S
C515 H525 0.931 . S
C516 C512 1.393 . S
C516 C517 1.401 . S
C516 H526 0.930 . S
C517 C515 1.392 . S
C517 C516 1.401 . S
C517 H527 0.930 . S
C518 O496 1.262 . S
C518 O497 1.260 . S
C519 Tb455 2.833 . S
C519 O494 1.251 . S
C519 O499 1.256 . S
C519 C512 1.500 . S
H520 C503 0.930 . S
H521 C504 0.931 . S
H522 C505 0.930 . S
H523 C506 0.930 . S
H524 C513 0.930 . S
H525 C515 0.931 . S
H526 C516 0.930 . S
H527 C517 0.930 . S
Tb528 N559 2.660 . S
Tb528 N566 2.600 . S
Tb528 O572 2.546 . S
Tb528 O573 2.610 . S
Tb528 O575 2.320 . S
Tb528 O576 2.552 . S
Tb528 O577 2.413 . S
Tb528 O579 2.362 . S
Tb528 O580 2.421 . S
Tb528 C592 2.833 . S
C529 C532 1.432 . S
C529 C533 1.414 . S
C529 N536 1.359 . S
C530 C532 1.417 . S
C530 C534 1.432 . S
C530 C542 1.410 . S
C531 C533 1.444 . S
C531 C534 1.317 . S
C531 H554 0.929 . S
C532 C529 1.432 . S
C532 C530 1.417 . S
C532 N540 1.360 . S
C533 C529 1.414 . S
C533 C531 1.444 . S
C533 C538 1.385 . S
C534 C530 1.432 . S
C534 C531 1.317 . S
C534 H546 0.930 . S
C535 C537 1.392 . S
C535 C538 1.370 . S
C535 H547 0.931 . S
N536 C529 1.359 . S
N536 C537 1.327 . S
N536 Tb539 2.600 . S
C537 C535 1.392 . S
C537 N536 1.327 . S
C537 H544 0.930 . S
C538 C533 1.385 . S
C538 C535 1.370 . S
C538 H557 0.930 . S
Tb539 N536 2.600 . S
Tb539 N540 2.660 . S
Tb539 O573 2.362 . S
Tb539 O574 2.421 . S
Tb539 O578 2.546 . S
Tb539 O579 2.610 . S
Tb539 O581 2.320 . S
Tb539 O582 2.552 . S
Tb539 O583 2.413 . S
Tb539 C603 2.833 . S
N540 C532 1.360 . S
N540 Tb539 2.660 . S
N540 C541 1.305 . S
C541 N540 1.305 . S
C541 C543 1.407 . S
C541 H548 0.930 . S
C542 C530 1.410 . S
C542 C543 1.345 . S
C542 H550 0.930 . S
C543 C541 1.407 . S
C543 C542 1.345 . S
C543 H545 0.930 . S
H544 C537 0.930 . S
H545 C543 0.930 . S
H546 C534 0.930 . S
H547 C535 0.931 . S
H548 C541 0.930 . S
H549 C563 0.930 . S
H550 C542 0.930 . S
H551 C569 0.930 . S
H552 C560 0.930 . S
H553 C567 0.931 . S
H554 C531 0.929 . S
H555 C561 0.930 . S
H556 C594 0.930 . S
H557 C538 0.930 . S
H558 C593 0.929 . S
N559 Tb528 2.660 . S
N559 C560 1.305 . S
N559 C564 1.360 . S
C560 H552 0.930 . S
C560 N559 1.305 . S
C560 C563 1.407 . S
C561 H555 0.930 . S
C561 C562 1.410 . S
C561 C563 1.345 . S
C562 C561 1.410 . S
C562 C564 1.417 . S
C562 C594 1.432 . S
C563 H549 0.930 . S
C563 C560 1.407 . S
C563 C561 1.345 . S
C564 N559 1.360 . S
C564 C562 1.417 . S
C564 C568 1.432 . S
H565 C570 0.930 . S
N566 Tb528 2.600 . S
N566 C568 1.359 . S
N566 C569 1.327 . S
C567 H553 0.931 . S
C567 C569 1.392 . S
C567 C570 1.370 . S
C568 C564 1.432 . S
C568 N566 1.359 . S
C568 C571 1.414 . S
C569 H551 0.930 . S
C569 N566 1.327 . S
C569 C567 1.392 . S
C570 H565 0.930 . S
C570 C567 1.370 . S
C570 C571 1.385 . S
C571 C568 1.414 . S
C571 C570 1.385 . S
C571 C593 1.444 . S
O572 Tb528 2.546 . S
O572 C592 1.251 . S
O573 Tb528 2.610 . S
O573 Tb539 2.362 . S
O573 C584 1.283 . S
O574 Tb539 2.421 . S
O574 C591 1.262 . S
O575 Tb528 2.320 . S
O575 C591 1.260 . S
O576 Tb528 2.552 . S
O576 C584 1.243 . S
O577 Tb528 2.413 . S
O577 C592 1.256 . S
O578 Tb539 2.546 . S
O578 C603 1.251 . S
O579 Tb528 2.362 . S
O579 Tb539 2.610 . S
O579 C595 1.283 . S
O580 Tb528 2.421 . S
O580 C602 1.262 . S
O581 Tb539 2.320 . S
O581 C602 1.260 . S
O582 Tb539 2.552 . S
O582 C595 1.243 . S
O583 Tb539 2.413 . S
O583 C603 1.256 . S
C584 O573 1.283 . S
C584 O576 1.243 . S
C585 C587 1.382 . S
C585 C589 1.393 . S
C585 C592 1.500 . S
C586 C587 1.400 . S
C586 C588 1.384 . S
C587 C585 1.382 . S
C587 C586 1.400 . S
C587 H604 0.930 . S
C588 C586 1.384 . S
C588 C590 1.392 . S
C588 H605 0.931 . S
C589 C585 1.393 . S
C589 C590 1.401 . S
C589 H606 0.930 . S
C590 C588 1.392 . S
C590 C589 1.401 . S
C590 H607 0.930 . S
C591 O574 1.262 . S
C591 O575 1.260 . S
C592 Tb528 2.833 . S
C592 O572 1.251 . S
C592 O577 1.256 . S
C592 C585 1.500 . S
C593 H558 0.929 . S
C593 C571 1.444 . S
C593 C594 1.317 . S
C594 H556 0.930 . S
C594 C562 1.432 . S
C594 C593 1.317 . S
C595 O579 1.283 . S
C595 O582 1.243 . S
C596 C597 1.382 . S
C596 C600 1.393 . S
C596 C603 1.500 . S
C597 C596 1.382 . S
C597 C598 1.400 . S
C597 H608 0.930 . S
C598 C597 1.400 . S
C598 C599 1.384 . S
C599 C598 1.384 . S
C599 C601 1.392 . S
C599 H609 0.931 . S
C600 C596 1.393 . S
C600 C601 1.401 . S
C600 H610 0.930 . S
C601 C599 1.392 . S
C601 C600 1.401 . S
C601 H611 0.930 . S
C602 O580 1.262 . S
C602 O581 1.260 . S
C603 Tb539 2.833 . S
C603 O578 1.251 . S
C603 O583 1.256 . S
C603 C596 1.500 . S
H604 C587 0.930 . S
H605 C588 0.931 . S
H606 C589 0.930 . S
H607 C590 0.930 . S
H608 C597 0.930 . S
H609 C599 0.931 . S
H610 C600 0.930 . S
H611 C601 0.930 . S
Tb612 N643 2.660 . S
Tb612 N650 2.600 . S
Tb612 O656 2.546 . S
Tb612 O657 2.610 . S
Tb612 O659 2.320 . S
Tb612 O660 2.552 . S
Tb612 O661 2.413 . S
Tb612 O663 2.362 . S
Tb612 O664 2.421 . S
Tb612 C676 2.833 . S
C613 C616 1.432 . S
C613 C617 1.414 . S
C613 N620 1.359 . S
C614 C616 1.417 . S
C614 C618 1.432 . S
C614 C626 1.410 . S
C615 C617 1.444 . S
C615 C618 1.317 . S
C615 H638 0.929 . S
C616 C613 1.432 . S
C616 C614 1.417 . S
C616 N624 1.360 . S
C617 C613 1.414 . S
C617 C615 1.444 . S
C617 C622 1.385 . S
C618 C614 1.432 . S
C618 C615 1.317 . S
C618 H630 0.930 . S
C619 C621 1.392 . S
C619 C622 1.370 . S
C619 H631 0.931 . S
N620 C613 1.359 . S
N620 C621 1.327 . S
N620 Tb623 2.600 . S
C621 C619 1.392 . S
C621 N620 1.327 . S
C621 H628 0.930 . S
C622 C617 1.385 . S
C622 C619 1.370 . S
C622 H641 0.930 . S
Tb623 N620 2.600 . S
Tb623 N624 2.660 . S
Tb623 O657 2.362 . S
Tb623 O658 2.421 . S
Tb623 O662 2.546 . S
Tb623 O663 2.610 . S
Tb623 O665 2.320 . S
Tb623 O666 2.552 . S
Tb623 O667 2.413 . S
Tb623 C687 2.833 . S
N624 C616 1.360 . S
N624 Tb623 2.660 . S
N624 C625 1.305 . S
C625 N624 1.305 . S
C625 C627 1.407 . S
C625 H632 0.930 . S
C626 C614 1.410 . S
C626 C627 1.345 . S
C626 H634 0.930 . S
C627 C625 1.407 . S
C627 C626 1.345 . S
C627 H629 0.930 . S
H628 C621 0.930 . S
H629 C627 0.930 . S
H630 C618 0.930 . S
H631 C619 0.931 . S
H632 C625 0.930 . S
H633 C647 0.930 . S
H634 C626 0.930 . S
H635 C653 0.930 . S
H636 C644 0.930 . S
H637 C651 0.931 . S
H638 C615 0.929 . S
H639 C645 0.930 . S
H640 C678 0.930 . S
H641 C622 0.930 . S
H642 C677 0.929 . S
N643 Tb612 2.660 . S
N643 C644 1.305 . S
N643 C648 1.360 . S
C644 H636 0.930 . S
C644 N643 1.305 . S
C644 C647 1.407 . S
C645 H639 0.930 . S
C645 C646 1.410 . S
C645 C647 1.345 . S
C646 C645 1.410 . S
C646 C648 1.417 . S
C646 C678 1.432 . S
C647 H633 0.930 . S
C647 C644 1.407 . S
C647 C645 1.345 . S
C648 N643 1.360 . S
C648 C646 1.417 . S
C648 C652 1.432 . S
H649 C654 0.930 . S
N650 Tb612 2.600 . S
N650 C652 1.359 . S
N650 C653 1.327 . S
C651 H637 0.931 . S
C651 C653 1.392 . S
C651 C654 1.370 . S
C652 C648 1.432 . S
C652 N650 1.359 . S
C652 C655 1.414 . S
C653 H635 0.930 . S
C653 N650 1.327 . S
C653 C651 1.392 . S
C654 H649 0.930 . S
C654 C651 1.370 . S
C654 C655 1.385 . S
C655 C652 1.414 . S
C655 C654 1.385 . S
C655 C677 1.444 . S
O656 Tb612 2.546 . S
O656 C676 1.251 . S
O657 Tb612 2.610 . S
O657 Tb623 2.362 . S
O657 C668 1.283 . S
O658 Tb623 2.421 . S
O658 C675 1.262 . S
O659 Tb612 2.320 . S
O659 C675 1.260 . S
O660 Tb612 2.552 . S
O660 C668 1.243 . S
O661 Tb612 2.413 . S
O661 C676 1.256 . S
O662 Tb623 2.546 . S
O662 C687 1.251 . S
O663 Tb612 2.362 . S
O663 Tb623 2.610 . S
O663 C679 1.283 . S
O664 Tb612 2.421 . S
O664 C686 1.262 . S
O665 Tb623 2.320 . S
O665 C686 1.260 . S
O666 Tb623 2.552 . S
O666 C679 1.243 . S
O667 Tb623 2.413 . S
O667 C687 1.256 . S
C668 O657 1.283 . S
C668 O660 1.243 . S
C669 C671 1.382 . S
C669 C673 1.393 . S
C669 C676 1.500 . S
C670 C671 1.400 . S
C670 C672 1.384 . S
C671 C669 1.382 . S
C671 C670 1.400 . S
C671 H688 0.930 . S
C672 C670 1.384 . S
C672 C674 1.392 . S
C672 H689 0.931 . S
C673 C669 1.393 . S
C673 C674 1.401 . S
C673 H690 0.930 . S
C674 C672 1.392 . S
C674 C673 1.401 . S
C674 H691 0.930 . S
C675 O658 1.262 . S
C675 O659 1.260 . S
C676 Tb612 2.833 . S
C676 O656 1.251 . S
C676 O661 1.256 . S
C676 C669 1.500 . S
C677 H642 0.929 . S
C677 C655 1.444 . S
C677 C678 1.317 . S
C678 H640 0.930 . S
C678 C646 1.432 . S
C678 C677 1.317 . S
C679 O663 1.283 . S
C679 O666 1.243 . S
C680 C681 1.382 . S
C680 C684 1.393 . S
C680 C687 1.500 . S
C681 C680 1.382 . S
C681 C682 1.400 . S
C681 H692 0.930 . S
C682 C681 1.400 . S
C682 C683 1.384 . S
C683 C682 1.384 . S
C683 C685 1.392 . S
C683 H693 0.931 . S
C684 C680 1.393 . S
C684 C685 1.401 . S
C684 H694 0.930 . S
C685 C683 1.392 . S
C685 C684 1.401 . S
C685 H695 0.930 . S
C686 O664 1.262 . S
C686 O665 1.260 . S
C687 Tb623 2.833 . S
C687 O662 1.251 . S
C687 O667 1.256 . S
C687 C680 1.500 . S
H688 C671 0.930 . S
H689 C672 0.931 . S
H690 C673 0.930 . S
H691 C674 0.930 . S
H692 C681 0.930 . S
H693 C683 0.931 . S
H694 C684 0.930 . S
H695 C685 0.930 . S
Tb696 N727 2.660 . S
Tb696 N734 2.600 . S
Tb696 O740 2.546 . S
Tb696 O741 2.610 . S
Tb696 O743 2.320 . S
Tb696 O744 2.552 . S
Tb696 O745 2.413 . S
Tb696 O747 2.362 . S
Tb696 O748 2.421 . S
Tb696 C760 2.833 . S
C697 C700 1.432 . S
C697 C701 1.414 . S
C697 N704 1.359 . S
C698 C700 1.417 . S
C698 C702 1.432 . S
C698 C710 1.410 . S
C699 C701 1.444 . S
C699 C702 1.317 . S
C699 H722 0.929 . S
C700 C697 1.432 . S
C700 C698 1.417 . S
C700 N708 1.360 . S
C701 C697 1.414 . S
C701 C699 1.444 . S
C701 C706 1.385 . S
C702 C698 1.432 . S
C702 C699 1.317 . S
C702 H714 0.930 . S
C703 C705 1.392 . S
C703 C706 1.370 . S
C703 H715 0.931 . S
N704 C697 1.359 . S
N704 C705 1.327 . S
N704 Tb707 2.600 . S
C705 C703 1.392 . S
C705 N704 1.327 . S
C705 H712 0.930 . S
C706 C701 1.385 . S
C706 C703 1.370 . S
C706 H725 0.930 . S
Tb707 N704 2.600 . S
Tb707 N708 2.660 . S
Tb707 O741 2.362 . S
Tb707 O742 2.421 . S
Tb707 O746 2.546 . S
Tb707 O747 2.610 . S
Tb707 O749 2.320 . S
Tb707 O750 2.552 . S
Tb707 O751 2.413 . S
Tb707 C771 2.833 . S
N708 C700 1.360 . S
N708 Tb707 2.660 . S
N708 C709 1.305 . S
C709 N708 1.305 . S
C709 C711 1.407 . S
C709 H716 0.930 . S
C710 C698 1.410 . S
C710 C711 1.345 . S
C710 H718 0.930 . S
C711 C709 1.407 . S
C711 C710 1.345 . S
C711 H713 0.930 . S
H712 C705 0.930 . S
H713 C711 0.930 . S
H714 C702 0.930 . S
H715 C703 0.931 . S
H716 C709 0.930 . S
H717 C731 0.930 . S
H718 C710 0.930 . S
H719 C737 0.930 . S
H720 C728 0.930 . S
H721 C735 0.931 . S
H722 C699 0.929 . S
H723 C729 0.930 . S
H724 C762 0.930 . S
H725 C706 0.930 . S
H726 C761 0.929 . S
N727 Tb696 2.660 . S
N727 C728 1.305 . S
N727 C732 1.360 . S
C728 H720 0.930 . S
C728 N727 1.305 . S
C728 C731 1.407 . S
C729 H723 0.930 . S
C729 C730 1.410 . S
C729 C731 1.345 . S
C730 C729 1.410 . S
C730 C732 1.417 . S
C730 C762 1.432 . S
C731 H717 0.930 . S
C731 C728 1.407 . S
C731 C729 1.345 . S
C732 N727 1.360 . S
C732 C730 1.417 . S
C732 C736 1.432 . S
H733 C738 0.930 . S
N734 Tb696 2.600 . S
N734 C736 1.359 . S
N734 C737 1.327 . S
C735 H721 0.931 . S
C735 C737 1.392 . S
C735 C738 1.370 . S
C736 C732 1.432 . S
C736 N734 1.359 . S
C736 C739 1.414 . S
C737 H719 0.930 . S
C737 N734 1.327 . S
C737 C735 1.392 . S
C738 H733 0.930 . S
C738 C735 1.370 . S
C738 C739 1.385 . S
C739 C736 1.414 . S
C739 C738 1.385 . S
C739 C761 1.444 . S
O740 Tb696 2.546 . S
O740 C760 1.251 . S
O741 Tb696 2.610 . S
O741 Tb707 2.362 . S
O741 C752 1.283 . S
O742 Tb707 2.421 . S
O742 C759 1.262 . S
O743 Tb696 2.320 . S
O743 C759 1.260 . S
O744 Tb696 2.552 . S
O744 C752 1.243 . S
O745 Tb696 2.413 . S
O745 C760 1.256 . S
O746 Tb707 2.546 . S
O746 C771 1.251 . S
O747 Tb696 2.362 . S
O747 Tb707 2.610 . S
O747 C763 1.283 . S
O748 Tb696 2.421 . S
O748 C770 1.262 . S
O749 Tb707 2.320 . S
O749 C770 1.260 . S
O750 Tb707 2.552 . S
O750 C763 1.243 . S
O751 Tb707 2.413 . S
O751 C771 1.256 . S
C752 O741 1.283 . S
C752 O744 1.243 . S
C753 C755 1.382 . S
C753 C757 1.393 . S
C753 C760 1.500 . S
C754 C755 1.400 . S
C754 C756 1.384 . S
C755 C753 1.382 . S
C755 C754 1.400 . S
C755 H772 0.930 . S
C756 C754 1.384 . S
C756 C758 1.392 . S
C756 H773 0.931 . S
C757 C753 1.393 . S
C757 C758 1.401 . S
C757 H774 0.930 . S
C758 C756 1.392 . S
C758 C757 1.401 . S
C758 H775 0.930 . S
C759 O742 1.262 . S
C759 O743 1.260 . S
C760 Tb696 2.833 . S
C760 O740 1.251 . S
C760 O745 1.256 . S
C760 C753 1.500 . S
C761 H726 0.929 . S
C761 C739 1.444 . S
C761 C762 1.317 . S
C762 H724 0.930 . S
C762 C730 1.432 . S
C762 C761 1.317 . S
C763 O747 1.283 . S
C763 O750 1.243 . S
C764 C765 1.382 . S
C764 C768 1.393 . S
C764 C771 1.500 . S
C765 C764 1.382 . S
C765 C766 1.400 . S
C765 H776 0.930 . S
C766 C765 1.400 . S
C766 C767 1.384 . S
C767 C766 1.384 . S
C767 C769 1.392 . S
C767 H777 0.931 . S
C768 C764 1.393 . S
C768 C769 1.401 . S
C768 H778 0.930 . S
C769 C767 1.392 . S
C769 C768 1.401 . S
C769 H779 0.930 . S
C770 O748 1.262 . S
C770 O749 1.260 . S
C771 Tb707 2.833 . S
C771 O746 1.251 . S
C771 O751 1.256 . S
C771 C764 1.500 . S
H772 C755 0.930 . S
H773 C756 0.931 . S
H774 C757 0.930 . S
H775 C758 0.930 . S
H776 C765 0.930 . S
H777 C767 0.931 . S
H778 C768 0.930 . S
H779 C769 0.930 . S
Tb780 N811 2.660 . S
Tb780 N818 2.600 . S
Tb780 O824 2.546 . S
Tb780 O825 2.610 . S
Tb780 O827 2.320 . S
Tb780 O828 2.552 . S
Tb780 O829 2.413 . S
Tb780 O831 2.362 . S
Tb780 O832 2.421 . S
Tb780 C844 2.833 . S
C781 C784 1.432 . S
C781 C785 1.414 . S
C781 N788 1.359 . S
C782 C784 1.417 . S
C782 C786 1.432 . S
C782 C794 1.410 . S
C783 C785 1.444 . S
C783 C786 1.317 . S
C783 H806 0.929 . S
C784 C781 1.432 . S
C784 C782 1.417 . S
C784 N792 1.360 . S
C785 C781 1.414 . S
C785 C783 1.444 . S
C785 C790 1.385 . S
C786 C782 1.432 . S
C786 C783 1.317 . S
C786 H798 0.930 . S
C787 C789 1.392 . S
C787 C790 1.370 . S
C787 H799 0.931 . S
N788 C781 1.359 . S
N788 C789 1.327 . S
N788 Tb791 2.600 . S
C789 C787 1.392 . S
C789 N788 1.327 . S
C789 H796 0.930 . S
C790 C785 1.385 . S
C790 C787 1.370 . S
C790 H809 0.930 . S
Tb791 N788 2.600 . S
Tb791 N792 2.660 . S
Tb791 O825 2.362 . S
Tb791 O826 2.421 . S
Tb791 O830 2.546 . S
Tb791 O831 2.610 . S
Tb791 O833 2.320 . S
Tb791 O834 2.552 . S
Tb791 O835 2.413 . S
Tb791 C855 2.833 . S
N792 C784 1.360 . S
N792 Tb791 2.660 . S
N792 C793 1.305 . S
C793 N792 1.305 . S
C793 C795 1.407 . S
C793 H800 0.930 . S
C794 C782 1.410 . S
C794 C795 1.345 . S
C794 H802 0.930 . S
C795 C793 1.407 . S
C795 C794 1.345 . S
C795 H797 0.930 . S
H796 C789 0.930 . S
H797 C795 0.930 . S
H798 C786 0.930 . S
H799 C787 0.931 . S
H800 C793 0.930 . S
H801 C815 0.930 . S
H802 C794 0.930 . S
H803 C821 0.930 . S
H804 C812 0.930 . S
H805 C819 0.931 . S
H806 C783 0.929 . S
H807 C813 0.930 . S
H808 C846 0.930 . S
H809 C790 0.930 . S
H810 C845 0.929 . S
N811 Tb780 2.660 . S
N811 C812 1.305 . S
N811 C816 1.360 . S
C812 H804 0.930 . S
C812 N811 1.305 . S
C812 C815 1.407 . S
C813 H807 0.930 . S
C813 C814 1.410 . S
C813 C815 1.345 . S
C814 C813 1.410 . S
C814 C816 1.417 . S
C814 C846 1.432 . S
C815 H801 0.930 . S
C815 C812 1.407 . S
C815 C813 1.345 . S
C816 N811 1.360 . S
C816 C814 1.417 . S
C816 C820 1.432 . S
H817 C822 0.930 . S
N818 Tb780 2.600 . S
N818 C820 1.359 . S
N818 C821 1.327 . S
C819 H805 0.931 . S
C819 C821 1.392 . S
C819 C822 1.370 . S
C820 C816 1.432 . S
C820 N818 1.359 . S
C820 C823 1.414 . S
C821 H803 0.930 . S
C821 N818 1.327 . S
C821 C819 1.392 . S
C822 H817 0.930 . S
C822 C819 1.370 . S
C822 C823 1.385 . S
C823 C820 1.414 . S
C823 C822 1.385 . S
C823 C845 1.444 . S
O824 Tb780 2.546 . S
O824 C844 1.251 . S
O825 Tb780 2.610 . S
O825 Tb791 2.362 . S
O825 C836 1.283 . S
O826 Tb791 2.421 . S
O826 C843 1.262 . S
O827 Tb780 2.320 . S
O827 C843 1.260 . S
O828 Tb780 2.552 . S
O828 C836 1.243 . S
O829 Tb780 2.413 . S
O829 C844 1.256 . S
O830 Tb791 2.546 . S
O830 C855 1.251 . S
O831 Tb780 2.362 . S
O831 Tb791 2.610 . S
O831 C847 1.283 . S
O832 Tb780 2.421 . S
O832 C854 1.262 . S
O833 Tb791 2.320 . S
O833 C854 1.260 . S
O834 Tb791 2.552 . S
O834 C847 1.243 . S
O835 Tb791 2.413 . S
O835 C855 1.256 . S
C836 O825 1.283 . S
C836 O828 1.243 . S
C837 C839 1.382 . S
C837 C841 1.393 . S
C837 C844 1.500 . S
C838 C839 1.400 . S
C838 C840 1.384 . S
C839 C837 1.382 . S
C839 C838 1.400 . S
C839 H856 0.930 . S
C840 C838 1.384 . S
C840 C842 1.392 . S
C840 H857 0.931 . S
C841 C837 1.393 . S
C841 C842 1.401 . S
C841 H858 0.930 . S
C842 C840 1.392 . S
C842 C841 1.401 . S
C842 H859 0.930 . S
C843 O826 1.262 . S
C843 O827 1.260 . S
C844 Tb780 2.833 . S
C844 O824 1.251 . S
C844 O829 1.256 . S
C844 C837 1.500 . S
C845 H810 0.929 . S
C845 C823 1.444 . S
C845 C846 1.317 . S
C846 H808 0.930 . S
C846 C814 1.432 . S
C846 C845 1.317 . S
C847 O831 1.283 . S
C847 O834 1.243 . S
C848 C849 1.382 . S
C848 C852 1.393 . S
C848 C855 1.500 . S
C849 C848 1.382 . S
C849 C850 1.400 . S
C849 H860 0.930 . S
C850 C849 1.400 . S
C850 C851 1.384 . S
C851 C850 1.384 . S
C851 C853 1.392 . S
C851 H861 0.931 . S
C852 C848 1.393 . S
C852 C853 1.401 . S
C852 H862 0.930 . S
C853 C851 1.392 . S
C853 C852 1.401 . S
C853 H863 0.930 . S
C854 O832 1.262 . S
C854 O833 1.260 . S
C855 Tb791 2.833 . S
C855 O830 1.251 . S
C855 O835 1.256 . S
C855 C848 1.500 . S
H856 C839 0.930 . S
H857 C840 0.931 . S
H858 C841 0.930 . S
H859 C842 0.930 . S
H860 C849 0.930 . S
H861 C851 0.931 . S
H862 C852 0.930 . S
H863 C853 0.930 . S
Tb864 N895 2.660 . S
Tb864 N902 2.600 . S
Tb864 O908 2.546 . S
Tb864 O909 2.610 . S
Tb864 O911 2.320 . S
Tb864 O912 2.552 . S
Tb864 O913 2.413 . S
Tb864 O915 2.362 . S
Tb864 O916 2.421 . S
Tb864 C928 2.833 . S
C865 C868 1.432 . S
C865 C869 1.414 . S
C865 N872 1.359 . S
C866 C868 1.417 . S
C866 C870 1.432 . S
C866 C878 1.410 . S
C867 C869 1.444 . S
C867 C870 1.317 . S
C867 H890 0.929 . S
C868 C865 1.432 . S
C868 C866 1.417 . S
C868 N876 1.360 . S
C869 C865 1.414 . S
C869 C867 1.444 . S
C869 C874 1.385 . S
C870 C866 1.432 . S
C870 C867 1.317 . S
C870 H882 0.930 . S
C871 C873 1.392 . S
C871 C874 1.370 . S
C871 H883 0.931 . S
N872 C865 1.359 . S
N872 C873 1.327 . S
N872 Tb875 2.600 . S
C873 C871 1.392 . S
C873 N872 1.327 . S
C873 H880 0.930 . S
C874 C869 1.385 . S
C874 C871 1.370 . S
C874 H893 0.930 . S
Tb875 N872 2.600 . S
Tb875 N876 2.660 . S
Tb875 O909 2.362 . S
Tb875 O910 2.421 . S
Tb875 O914 2.546 . S
Tb875 O915 2.610 . S
Tb875 O917 2.320 . S
Tb875 O918 2.552 . S
Tb875 O919 2.413 . S
Tb875 C939 2.833 . S
N876 C868 1.360 . S
N876 Tb875 2.660 . S
N876 C877 1.305 . S
C877 N876 1.305 . S
C877 C879 1.407 . S
C877 H884 0.930 . S
C878 C866 1.410 . S
C878 C879 1.345 . S
C878 H886 0.930 . S
C879 C877 1.407 . S
C879 C878 1.345 . S
C879 H881 0.930 . S
H880 C873 0.930 . S
H881 C879 0.930 . S
H882 C870 0.930 . S
H883 C871 0.931 . S
H884 C877 0.930 . S
H885 C899 0.930 . S
H886 C878 0.930 . S
H887 C905 0.930 . S
H888 C896 0.930 . S
H889 C903 0.931 . S
H890 C867 0.929 . S
H891 C897 0.930 . S
H892 C930 0.930 . S
H893 C874 0.930 . S
H894 C929 0.929 . S
N895 Tb864 2.660 . S
N895 C896 1.305 . S
N895 C900 1.360 . S
C896 H888 0.930 . S
C896 N895 1.305 . S
C896 C899 1.407 . S
C897 H891 0.930 . S
C897 C898 1.410 . S
C897 C899 1.345 . S
C898 C897 1.410 . S
C898 C900 1.417 . S
C898 C930 1.432 . S
C899 H885 0.930 . S
C899 C896 1.407 . S
C899 C897 1.345 . S
C900 N895 1.360 . S
C900 C898 1.417 . S
C900 C904 1.432 . S
H901 C906 0.930 . S
N902 Tb864 2.600 . S
N902 C904 1.359 . S
N902 C905 1.327 . S
C903 H889 0.931 . S
C903 C905 1.392 . S
C903 C906 1.370 . S
C904 C900 1.432 . S
C904 N902 1.359 . S
C904 C907 1.414 . S
C905 H887 0.930 . S
C905 N902 1.327 . S
C905 C903 1.392 . S
C906 H901 0.930 . S
C906 C903 1.370 . S
C906 C907 1.385 . S
C907 C904 1.414 . S
C907 C906 1.385 . S
C907 C929 1.444 . S
O908 Tb864 2.546 . S
O908 C928 1.251 . S
O909 Tb864 2.610 . S
O909 Tb875 2.362 . S
O909 C920 1.283 . S
O910 Tb875 2.421 . S
O910 C927 1.262 . S
O911 Tb864 2.320 . S
O911 C927 1.260 . S
O912 Tb864 2.552 . S
O912 C920 1.243 . S
O913 Tb864 2.413 . S
O913 C928 1.256 . S
O914 Tb875 2.546 . S
O914 C939 1.251 . S
O915 Tb864 2.362 . S
O915 Tb875 2.610 . S
O915 C931 1.283 . S
O916 Tb864 2.421 . S
O916 C938 1.262 . S
O917 Tb875 2.320 . S
O917 C938 1.260 . S
O918 Tb875 2.552 . S
O918 C931 1.243 . S
O919 Tb875 2.413 . S
O919 C939 1.256 . S
C920 O909 1.283 . S
C920 O912 1.243 . S
C921 C923 1.382 . S
C921 C925 1.393 . S
C921 C928 1.500 . S
C922 C923 1.400 . S
C922 C924 1.384 . S
C923 C921 1.382 . S
C923 C922 1.400 . S
C923 H940 0.930 . S
C924 C922 1.384 . S
C924 C926 1.392 . S
C924 H941 0.931 . S
C925 C921 1.393 . S
C925 C926 1.401 . S
C925 H942 0.930 . S
C926 C924 1.392 . S
C926 C925 1.401 . S
C926 H943 0.930 . S
C927 O910 1.262 . S
C927 O911 1.260 . S
C928 Tb864 2.833 . S
C928 O908 1.251 . S
C928 O913 1.256 . S
C928 C921 1.500 . S
C929 H894 0.929 . S
C929 C907 1.444 . S
C929 C930 1.317 . S
C930 H892 0.930 . S
C930 C898 1.432 . S
C930 C929 1.317 . S
C931 O915 1.283 . S
C931 O918 1.243 . S
C932 C933 1.382 . S
C932 C936 1.393 . S
C932 C939 1.500 . S
C933 C932 1.382 . S
C933 C934 1.400 . S
C933 H944 0.930 . S
C934 C933 1.400 . S
C934 C935 1.384 . S
C935 C934 1.384 . S
C935 C937 1.392 . S
C935 H945 0.931 . S
C936 C932 1.393 . S
C936 C937 1.401 . S
C936 H946 0.930 . S
C937 C935 1.392 . S
C937 C936 1.401 . S
C937 H947 0.930 . S
C938 O916 1.262 . S
C938 O917 1.260 . S
C939 Tb875 2.833 . S
C939 O914 1.251 . S
C939 O919 1.256 . S
C939 C932 1.500 . S
H940 C923 0.930 . S
H941 C924 0.931 . S
H942 C925 0.930 . S
H943 C926 0.930 . S
H944 C933 0.930 . S
H945 C935 0.931 . S
H946 C936 0.930 . S
H947 C937 0.930 . S
H948 C966 0.951 . S
H949 C968 0.951 . S
H950 C970 0.950 . S
H951 C971 0.950 . S
H952 C973 0.950 . S
H953 C976 0.950 . S
H954 C977 0.950 . S
H955 C979 0.950 . S
H956 C980 0.950 . S
H957 C981 0.951 . S
H958 C983 0.951 . S
H959 C985 0.950 . S
H960 C986 0.950 . S
H961 C988 0.950 . S
H962 C991 0.950 . S
H963 C992 0.950 . S
H964 C994 0.950 . S
H965 C995 0.950 . S
C966 H948 0.951 . S
C966 C967 1.366 . S
C966 C968 1.388 . S
C967 C966 1.366 . S
C967 C971 1.385 . S
C968 H949 0.951 . S
C968 C966 1.388 . S
C968 C969 1.366 . S
C969 C968 1.366 . S
C969 C970 1.414 . S
C969 C972 1.499 . S
C970 H950 0.950 . S
C970 C969 1.414 . S
C970 C971 1.374 . S
C971 H951 0.950 . S
C971 C967 1.385 . S
C971 C970 1.374 . S
C972 C969 1.499 . S
C972 C973 1.373 . S
C972 C974 1.389 . S
C973 H952 0.950 . S
C973 C972 1.373 . S
C973 C989 1.377 . S
C974 C972 1.389 . S
C974 C975 1.524 . S
C974 C988 1.377 . S
C975 C974 1.524 . S
C975 C976 1.397 . S
C975 C980 1.363 . S
C976 H953 0.950 . S
C976 C975 1.397 . S
C976 C977 1.334 . S
C977 H954 0.950 . S
C977 C976 1.334 . S
C977 C978 1.287 . S
C978 C977 1.287 . S
C978 C979 1.524 . S
C978 H997 0.913 . S
C979 H955 0.950 . S
C979 C978 1.524 . S
C979 C980 1.415 . S
C980 H956 0.950 . S
C980 C975 1.363 . S
C980 C979 1.415 . S
C981 H957 0.951 . S
C981 C982 1.366 . S
C981 C983 1.388 . S
C982 C981 1.366 . S
C982 C986 1.385 . S
C983 H958 0.951 . S
C983 C981 1.388 . S
C983 C984 1.366 . S
C984 C983 1.366 . S
C984 C985 1.414 . S
C984 C987 1.499 . S
C985 H959 0.950 . S
C985 C984 1.414 . S
C985 C986 1.374 . S
C986 H960 0.950 . S
C986 C982 1.385 . S
C986 C985 1.374 . S
C987 C984 1.499 . S
C987 C988 1.373 . S
C987 C989 1.389 . S
C988 H961 0.950 . S
C988 C974 1.377 . S
C988 C987 1.373 . S
C989 C973 1.377 . S
C989 C987 1.389 . S
C989 C990 1.524 . S
C990 C989 1.524 . S
C990 C991 1.397 . S
C990 C995 1.363 . S
C991 H962 0.950 . S
C991 C990 1.397 . S
C991 C992 1.334 . S
C992 H963 0.950 . S
C992 C991 1.334 . S
C992 C993 1.287 . S
C993 C992 1.287 . S
C993 C994 1.524 . S
C993 H996 0.999 . S
C994 H964 0.950 . S
C994 C993 1.524 . S
C994 C995 1.415 . S
C995 H965 0.950 . S
C995 C990 1.363 . S
C995 C994 1.415 . S
H996 C993 0.999 . S
H997 C978 0.913 . S
H998 C1016 0.951 . S
H999 C1018 0.951 . S
H1000 C1020 0.950 . S
H1001 C1021 0.950 . S
H1002 C1023 0.950 . S
H1003 C1026 0.950 . S
H1004 C1027 0.950 . S
H1005 C1029 0.950 . S
H1006 C1030 0.950 . S
H1007 C1031 0.951 . S
H1008 C1033 0.951 . S
H1009 C1035 0.950 . S
H1010 C1036 0.950 . S
H1011 C1038 0.950 . S
H1012 C1041 0.950 . S
H1013 C1042 0.950 . S
H1014 C1044 0.950 . S
H1015 C1045 0.950 . S
C1016 H998 0.951 . S
C1016 C1017 1.366 . S
C1016 C1018 1.388 . S
C1017 C1016 1.366 . S
C1017 C1021 1.385 . S
C1018 H999 0.951 . S
C1018 C1016 1.388 . S
C1018 C1019 1.366 . S
C1019 C1018 1.366 . S
C1019 C1020 1.414 . S
C1019 C1022 1.499 . S
C1020 H1000 0.950 . S
C1020 C1019 1.414 . S
C1020 C1021 1.374 . S
C1021 H1001 0.950 . S
C1021 C1017 1.385 . S
C1021 C1020 1.374 . S
C1022 C1019 1.499 . S
C1022 C1023 1.373 . S
C1022 C1024 1.389 . S
C1023 H1002 0.950 . S
C1023 C1022 1.373 . S
C1023 C1039 1.377 . S
C1024 C1022 1.389 . S
C1024 C1025 1.524 . S
C1024 C1038 1.377 . S
C1025 C1024 1.524 . S
C1025 C1026 1.397 . S
C1025 C1030 1.363 . S
C1026 H1003 0.950 . S
C1026 C1025 1.397 . S
C1026 C1027 1.334 . S
C1027 H1004 0.950 . S
C1027 C1026 1.334 . S
C1027 C1028 1.287 . S
C1028 C1027 1.287 . S
C1028 C1029 1.524 . S
C1028 H1047 0.913 . S
C1029 H1005 0.950 . S
C1029 C1028 1.524 . S
C1029 C1030 1.415 . S
C1030 H1006 0.950 . S
C1030 C1025 1.363 . S
C1030 C1029 1.415 . S
C1031 H1007 0.951 . S
C1031 C1032 1.366 . S
C1031 C1033 1.388 . S
C1032 C1031 1.366 . S
C1032 C1036 1.385 . S
C1033 H1008 0.951 . S
C1033 C1031 1.388 . S
C1033 C1034 1.366 . S
C1034 C1033 1.366 . S
C1034 C1035 1.414 . S
C1034 C1037 1.499 . S
C1035 H1009 0.950 . S
C1035 C1034 1.414 . S
C1035 C1036 1.374 . S
C1036 H1010 0.950 . S
C1036 C1032 1.385 . S
C1036 C1035 1.374 . S
C1037 C1034 1.499 . S
C1037 C1038 1.373 . S
C1037 C1039 1.389 . S
C1038 H1011 0.950 . S
C1038 C1024 1.377 . S
C1038 C1037 1.373 . S
C1039 C1023 1.377 . S
C1039 C1037 1.389 . S
C1039 C1040 1.524 . S
C1040 C1039 1.524 . S
C1040 C1041 1.397 . S
C1040 C1045 1.363 . S
C1041 H1012 0.950 . S
C1041 C1040 1.397 . S
C1041 C1042 1.334 . S
C1042 H1013 0.950 . S
C1042 C1041 1.334 . S
C1042 C1043 1.287 . S
C1043 C1042 1.287 . S
C1043 C1044 1.524 . S
C1043 H1046 0.999 . S
C1044 H1014 0.950 . S
C1044 C1043 1.524 . S
C1044 C1045 1.415 . S
C1045 H1015 0.950 . S
C1045 C1040 1.363 . S
C1045 C1044 1.415 . S
H1046 C1043 0.999 . S
H1047 C1028 0.913 . S
H1048 C1066 0.951 . S
H1049 C1068 0.951 . S
H1050 C1070 0.950 . S
H1051 C1071 0.950 . S
H1052 C1073 0.950 . S
H1053 C1076 0.950 . S
H1054 C1077 0.950 . S
H1055 C1079 0.950 . S
H1056 C1080 0.950 . S
H1057 C1081 0.951 . S
H1058 C1083 0.951 . S
H1059 C1085 0.950 . S
H1060 C1086 0.950 . S
H1061 C1088 0.950 . S
H1062 C1091 0.950 . S
H1063 C1092 0.950 . S
H1064 C1094 0.950 . S
H1065 C1095 0.950 . S
C1066 H1048 0.951 . S
C1066 C1067 1.366 . S
C1066 C1068 1.388 . S
C1067 C1066 1.366 . S
C1067 C1071 1.385 . S
C1068 H1049 0.951 . S
C1068 C1066 1.388 . S
C1068 C1069 1.366 . S
C1069 C1068 1.366 . S
C1069 C1070 1.414 . S
C1069 C1072 1.499 . S
C1070 H1050 0.950 . S
C1070 C1069 1.414 . S
C1070 C1071 1.374 . S
C1071 H1051 0.950 . S
C1071 C1067 1.385 . S
C1071 C1070 1.374 . S
C1072 C1069 1.499 . S
C1072 C1073 1.373 . S
C1072 C1074 1.389 . S
C1073 H1052 0.950 . S
C1073 C1072 1.373 . S
C1073 C1089 1.377 . S
C1074 C1072 1.389 . S
C1074 C1075 1.524 . S
C1074 C1088 1.377 . S
C1075 C1074 1.524 . S
C1075 C1076 1.397 . S
C1075 C1080 1.363 . S
C1076 H1053 0.950 . S
C1076 C1075 1.397 . S
C1076 C1077 1.334 . S
C1077 H1054 0.950 . S
C1077 C1076 1.334 . S
C1077 C1078 1.287 . S
C1078 C1077 1.287 . S
C1078 C1079 1.524 . S
C1078 H1097 0.913 . S
C1079 H1055 0.950 . S
C1079 C1078 1.524 . S
C1079 C1080 1.415 . S
C1080 H1056 0.950 . S
C1080 C1075 1.363 . S
C1080 C1079 1.415 . S
C1081 H1057 0.951 . S
C1081 C1082 1.366 . S
C1081 C1083 1.388 . S
C1082 C1081 1.366 . S
C1082 C1086 1.385 . S
C1083 H1058 0.951 . S
C1083 C1081 1.388 . S
C1083 C1084 1.366 . S
C1084 C1083 1.366 . S
C1084 C1085 1.414 . S
C1084 C1087 1.499 . S
C1085 H1059 0.950 . S
C1085 C1084 1.414 . S
C1085 C1086 1.374 . S
C1086 H1060 0.950 . S
C1086 C1082 1.385 . S
C1086 C1085 1.374 . S
C1087 C1084 1.499 . S
C1087 C1088 1.373 . S
C1087 C1089 1.389 . S
C1088 H1061 0.950 . S
C1088 C1074 1.377 . S
C1088 C1087 1.373 . S
C1089 C1073 1.377 . S
C1089 C1087 1.389 . S
C1089 C1090 1.524 . S
C1090 C1089 1.524 . S
C1090 C1091 1.397 . S
C1090 C1095 1.363 . S
C1091 H1062 0.950 . S
C1091 C1090 1.397 . S
C1091 C1092 1.334 . S
C1092 H1063 0.950 . S
C1092 C1091 1.334 . S
C1092 C1093 1.287 . S
C1093 C1092 1.287 . S
C1093 C1094 1.524 . S
C1093 H1096 0.999 . S
C1094 H1064 0.950 . S
C1094 C1093 1.524 . S
C1094 C1095 1.415 . S
C1095 H1065 0.950 . S
C1095 C1090 1.363 . S
C1095 C1094 1.415 . S
H1096 C1093 0.999 . S
H1097 C1078 0.913 . S
H1098 C1116 0.951 . S
H1099 C1118 0.951 . S
H1100 C1120 0.950 . S
H1101 C1121 0.950 . S
H1102 C1123 0.950 . S
H1103 C1126 0.950 . S
H1104 C1127 0.950 . S
H1105 C1129 0.950 . S
H1106 C1130 0.950 . S
H1107 C1131 0.951 . S
H1108 C1133 0.951 . S
H1109 C1135 0.950 . S
H1110 C1136 0.950 . S
H1111 C1138 0.950 . S
H1112 C1141 0.950 . S
H1113 C1142 0.950 . S
H1114 C1144 0.950 . S
H1115 C1145 0.950 . S
C1116 H1098 0.951 . S
C1116 C1117 1.366 . S
C1116 C1118 1.388 . S
C1117 C1116 1.366 . S
C1117 C1121 1.385 . S
C1118 H1099 0.951 . S
C1118 C1116 1.388 . S
C1118 C1119 1.366 . S
C1119 C1118 1.366 . S
C1119 C1120 1.414 . S
C1119 C1122 1.499 . S
C1120 H1100 0.950 . S
C1120 C1119 1.414 . S
C1120 C1121 1.374 . S
C1121 H1101 0.950 . S
C1121 C1117 1.385 . S
C1121 C1120 1.374 . S
C1122 C1119 1.499 . S
C1122 C1123 1.373 . S
C1122 C1124 1.389 . S
C1123 H1102 0.950 . S
C1123 C1122 1.373 . S
C1123 C1139 1.377 . S
C1124 C1122 1.389 . S
C1124 C1125 1.524 . S
C1124 C1138 1.377 . S
C1125 C1124 1.524 . S
C1125 C1126 1.397 . S
C1125 C1130 1.363 . S
C1126 H1103 0.950 . S
C1126 C1125 1.397 . S
C1126 C1127 1.334 . S
C1127 H1104 0.950 . S
C1127 C1126 1.334 . S
C1127 C1128 1.287 . S
C1128 C1127 1.287 . S
C1128 C1129 1.524 . S
C1128 H1147 0.913 . S
C1129 H1105 0.950 . S
C1129 C1128 1.524 . S
C1129 C1130 1.415 . S
C1130 H1106 0.950 . S
C1130 C1125 1.363 . S
C1130 C1129 1.415 . S
C1131 H1107 0.951 . S
C1131 C1132 1.366 . S
C1131 C1133 1.388 . S
C1132 C1131 1.366 . S
C1132 C1136 1.385 . S
C1133 H1108 0.951 . S
C1133 C1131 1.388 . S
C1133 C1134 1.366 . S
C1134 C1133 1.366 . S
C1134 C1135 1.414 . S
C1134 C1137 1.499 . S
C1135 H1109 0.950 . S
C1135 C1134 1.414 . S
C1135 C1136 1.374 . S
C1136 H1110 0.950 . S
C1136 C1132 1.385 . S
C1136 C1135 1.374 . S
C1137 C1134 1.499 . S
C1137 C1138 1.373 . S
C1137 C1139 1.389 . S
C1138 H1111 0.950 . S
C1138 C1124 1.377 . S
C1138 C1137 1.373 . S
C1139 C1123 1.377 . S
C1139 C1137 1.389 . S
C1139 C1140 1.524 . S
C1140 C1139 1.524 . S
C1140 C1141 1.397 . S
C1140 C1145 1.363 . S
C1141 H1112 0.950 . S
C1141 C1140 1.397 . S
C1141 C1142 1.334 . S
C1142 H1113 0.950 . S
C1142 C1141 1.334 . S
C1142 C1143 1.287 . S
C1143 C1142 1.287 . S
C1143 C1144 1.524 . S
C1143 H1146 0.999 . S
C1144 H1114 0.950 . S
C1144 C1143 1.524 . S
C1144 C1145 1.415 . S
C1145 H1115 0.950 . S
C1145 C1140 1.363 . S
C1145 C1144 1.415 . S
H1146 C1143 0.999 . S
H1147 C1128 0.913 . S
H1148 C1166 0.951 . S
H1149 C1168 0.951 . S
H1150 C1170 0.950 . S
H1151 C1171 0.950 . S
H1152 C1173 0.950 . S
H1153 C1176 0.950 . S
H1154 C1177 0.950 . S
H1155 C1179 0.950 . S
H1156 C1180 0.950 . S
H1157 C1181 0.951 . S
H1158 C1183 0.951 . S
H1159 C1185 0.950 . S
H1160 C1186 0.950 . S
H1161 C1188 0.950 . S
H1162 C1191 0.950 . S
H1163 C1192 0.950 . S
H1164 C1194 0.950 . S
H1165 C1195 0.950 . S
C1166 H1148 0.951 . S
C1166 C1167 1.366 . S
C1166 C1168 1.388 . S
C1167 C1166 1.366 . S
C1167 C1171 1.385 . S
C1168 H1149 0.951 . S
C1168 C1166 1.388 . S
C1168 C1169 1.366 . S
C1169 C1168 1.366 . S
C1169 C1170 1.414 . S
C1169 C1172 1.499 . S
C1170 H1150 0.950 . S
C1170 C1169 1.414 . S
C1170 C1171 1.374 . S
C1171 H1151 0.950 . S
C1171 C1167 1.385 . S
C1171 C1170 1.374 . S
C1172 C1169 1.499 . S
C1172 C1173 1.373 . S
C1172 C1174 1.389 . S
C1173 H1152 0.950 . S
C1173 C1172 1.373 . S
C1173 C1189 1.377 . S
C1174 C1172 1.389 . S
C1174 C1175 1.524 . S
C1174 C1188 1.377 . S
C1175 C1174 1.524 . S
C1175 C1176 1.397 . S
C1175 C1180 1.363 . S
C1176 H1153 0.950 . S
C1176 C1175 1.397 . S
C1176 C1177 1.334 . S
C1177 H1154 0.950 . S
C1177 C1176 1.334 . S
C1177 C1178 1.287 . S
C1178 C1177 1.287 . S
C1178 C1179 1.524 . S
C1178 H1197 0.913 . S
C1179 H1155 0.950 . S
C1179 C1178 1.524 . S
C1179 C1180 1.415 . S
C1180 H1156 0.950 . S
C1180 C1175 1.363 . S
C1180 C1179 1.415 . S
C1181 H1157 0.951 . S
C1181 C1182 1.366 . S
C1181 C1183 1.388 . S
C1182 C1181 1.366 . S
C1182 C1186 1.385 . S
C1183 H1158 0.951 . S
C1183 C1181 1.388 . S
C1183 C1184 1.366 . S
C1184 C1183 1.366 . S
C1184 C1185 1.414 . S
C1184 C1187 1.499 . S
C1185 H1159 0.950 . S
C1185 C1184 1.414 . S
C1185 C1186 1.374 . S
C1186 H1160 0.950 . S
C1186 C1182 1.385 . S
C1186 C1185 1.374 . S
C1187 C1184 1.499 . S
C1187 C1188 1.373 . S
C1187 C1189 1.389 . S
C1188 H1161 0.950 . S
C1188 C1174 1.377 . S
C1188 C1187 1.373 . S
C1189 C1173 1.377 . S
C1189 C1187 1.389 . S
C1189 C1190 1.524 . S
C1190 C1189 1.524 . S
C1190 C1191 1.397 . S
C1190 C1195 1.363 . S
C1191 H1162 0.950 . S
C1191 C1190 1.397 . S
C1191 C1192 1.334 . S
C1192 H1163 0.950 . S
C1192 C1191 1.334 . S
C1192 C1193 1.287 . S
C1193 C1192 1.287 . S
C1193 C1194 1.524 . S
C1193 H1196 0.999 . S
C1194 H1164 0.950 . S
C1194 C1193 1.524 . S
C1194 C1195 1.415 . S
C1195 H1165 0.950 . S
C1195 C1190 1.363 . S
C1195 C1194 1.415 . S
H1196 C1193 0.999 . S
H1197 C1178 0.913 . S
H1198 C1216 0.951 . S
H1199 C1218 0.951 . S
H1200 C1220 0.950 . S
H1201 C1221 0.950 . S
H1202 C1223 0.950 . S
H1203 C1226 0.950 . S
H1204 C1227 0.950 . S
H1205 C1229 0.950 . S
H1206 C1230 0.950 . S
H1207 C1231 0.951 . S
H1208 C1233 0.951 . S
H1209 C1235 0.950 . S
H1210 C1236 0.950 . S
H1211 C1238 0.950 . S
H1212 C1241 0.950 . S
H1213 C1242 0.950 . S
H1214 C1244 0.950 . S
H1215 C1245 0.950 . S
C1216 H1198 0.951 . S
C1216 C1217 1.366 . S
C1216 C1218 1.388 . S
C1217 C1216 1.366 . S
C1217 C1221 1.385 . S
C1218 H1199 0.951 . S
C1218 C1216 1.388 . S
C1218 C1219 1.366 . S
C1219 C1218 1.366 . S
C1219 C1220 1.414 . S
C1219 C1222 1.499 . S
C1220 H1200 0.950 . S
C1220 C1219 1.414 . S
C1220 C1221 1.374 . S
C1221 H1201 0.950 . S
C1221 C1217 1.385 . S
C1221 C1220 1.374 . S
C1222 C1219 1.499 . S
C1222 C1223 1.373 . S
C1222 C1224 1.389 . S
C1223 H1202 0.950 . S
C1223 C1222 1.373 . S
C1223 C1239 1.377 . S
C1224 C1222 1.389 . S
C1224 C1225 1.524 . S
C1224 C1238 1.377 . S
C1225 C1224 1.524 . S
C1225 C1226 1.397 . S
C1225 C1230 1.363 . S
C1226 H1203 0.950 . S
C1226 C1225 1.397 . S
C1226 C1227 1.334 . S
C1227 H1204 0.950 . S
C1227 C1226 1.334 . S
C1227 C1228 1.287 . S
C1228 C1227 1.287 . S
C1228 C1229 1.524 . S
C1228 H1247 0.913 . S
C1229 H1205 0.950 . S
C1229 C1228 1.524 . S
C1229 C1230 1.415 . S
C1230 H1206 0.950 . S
C1230 C1225 1.363 . S
C1230 C1229 1.415 . S
C1231 H1207 0.951 . S
C1231 C1232 1.366 . S
C1231 C1233 1.388 . S
C1232 C1231 1.366 . S
C1232 C1236 1.385 . S
C1233 H1208 0.951 . S
C1233 C1231 1.388 . S
C1233 C1234 1.366 . S
C1234 C1233 1.366 . S
C1234 C1235 1.414 . S
C1234 C1237 1.499 . S
C1235 H1209 0.950 . S
C1235 C1234 1.414 . S
C1235 C1236 1.374 . S
C1236 H1210 0.950 . S
C1236 C1232 1.385 . S
C1236 C1235 1.374 . S
C1237 C1234 1.499 . S
C1237 C1238 1.373 . S
C1237 C1239 1.389 . S
C1238 H1211 0.950 . S
C1238 C1224 1.377 . S
C1238 C1237 1.373 . S
C1239 C1223 1.377 . S
C1239 C1237 1.389 . S
C1239 C1240 1.524 . S
C1240 C1239 1.524 . S
C1240 C1241 1.397 . S
C1240 C1245 1.363 . S
C1241 H1212 0.950 . S
C1241 C1240 1.397 . S
C1241 C1242 1.334 . S
C1242 H1213 0.950 . S
C1242 C1241 1.334 . S
C1242 C1243 1.287 . S
C1243 C1242 1.287 . S
C1243 C1244 1.524 . S
C1243 H1246 0.999 . S
C1244 H1214 0.950 . S
C1244 C1243 1.524 . S
C1244 C1245 1.415 . S
C1245 H1215 0.950 . S
C1245 C1240 1.363 . S
C1245 C1244 1.415 . S
H1246 C1243 0.999 . S
H1247 C1228 0.913 . S
H1248 C1266 0.951 . S
H1249 C1268 0.951 . S
H1250 C1270 0.950 . S
H1251 C1271 0.950 . S
H1252 C1273 0.950 . S
H1253 C1276 0.950 . S
H1254 C1277 0.950 . S
H1255 C1279 0.950 . S
H1256 C1280 0.950 . S
H1257 C1281 0.951 . S
H1258 C1283 0.951 . S
H1259 C1285 0.950 . S
H1260 C1286 0.950 . S
H1261 C1288 0.950 . S
H1262 C1291 0.950 . S
H1263 C1292 0.950 . S
H1264 C1294 0.950 . S
H1265 C1295 0.950 . S
C1266 H1248 0.951 . S
C1266 C1267 1.366 . S
C1266 C1268 1.388 . S
C1267 C1266 1.366 . S
C1267 C1271 1.385 . S
C1268 H1249 0.951 . S
C1268 C1266 1.388 . S
C1268 C1269 1.366 . S
C1269 C1268 1.366 . S
C1269 C1270 1.414 . S
C1269 C1272 1.499 . S
C1270 H1250 0.950 . S
C1270 C1269 1.414 . S
C1270 C1271 1.374 . S
C1271 H1251 0.950 . S
C1271 C1267 1.385 . S
C1271 C1270 1.374 . S
C1272 C1269 1.499 . S
C1272 C1273 1.373 . S
C1272 C1274 1.389 . S
C1273 H1252 0.950 . S
C1273 C1272 1.373 . S
C1273 C1289 1.377 . S
C1274 C1272 1.389 . S
C1274 C1275 1.524 . S
C1274 C1288 1.377 . S
C1275 C1274 1.524 . S
C1275 C1276 1.397 . S
C1275 C1280 1.363 . S
C1276 H1253 0.950 . S
C1276 C1275 1.397 . S
C1276 C1277 1.334 . S
C1277 H1254 0.950 . S
C1277 C1276 1.334 . S
C1277 C1278 1.287 . S
C1278 C1277 1.287 . S
C1278 C1279 1.524 . S
C1278 H1297 0.913 . S
C1279 H1255 0.950 . S
C1279 C1278 1.524 . S
C1279 C1280 1.415 . S
C1280 H1256 0.950 . S
C1280 C1275 1.363 . S
C1280 C1279 1.415 . S
C1281 H1257 0.951 . S
C1281 C1282 1.366 . S
C1281 C1283 1.388 . S
C1282 C1281 1.366 . S
C1282 C1286 1.385 . S
C1283 H1258 0.951 . S
C1283 C1281 1.388 . S
C1283 C1284 1.366 . S
C1284 C1283 1.366 . S
C1284 C1285 1.414 . S
C1284 C1287 1.499 . S
C1285 H1259 0.950 . S
C1285 C1284 1.414 . S
C1285 C1286 1.374 . S
C1286 H1260 0.950 . S
C1286 C1282 1.385 . S
C1286 C1285 1.374 . S
C1287 C1284 1.499 . S
C1287 C1288 1.373 . S
C1287 C1289 1.389 . S
C1288 H1261 0.950 . S
C1288 C1274 1.377 . S
C1288 C1287 1.373 . S
C1289 C1273 1.377 . S
C1289 C1287 1.389 . S
C1289 C1290 1.524 . S
C1290 C1289 1.524 . S
C1290 C1291 1.397 . S
C1290 C1295 1.363 . S
C1291 H1262 0.950 . S
C1291 C1290 1.397 . S
C1291 C1292 1.334 . S
C1292 H1263 0.950 . S
C1292 C1291 1.334 . S
C1292 C1293 1.287 . S
C1293 C1292 1.287 . S
C1293 C1294 1.524 . S
C1293 H1296 0.999 . S
C1294 H1264 0.950 . S
C1294 C1293 1.524 . S
C1294 C1295 1.415 . S
C1295 H1265 0.950 . S
C1295 C1290 1.363 . S
C1295 C1294 1.415 . S
H1296 C1293 0.999 . S
H1297 C1278 0.913 . S
H1298 C1316 0.951 . S
H1299 C1318 0.951 . S
H1300 C1320 0.950 . S
H1301 C1321 0.950 1_545 S
H1302 C1323 0.950 . S
H1303 C1326 0.950 . S
H1304 C1327 0.950 . S
H1305 C1329 0.950 . S
H1306 C1330 0.950 . S
H1307 C1331 0.951 . S
H1308 C1333 0.951 . S
H1309 C1335 0.950 . S
H1310 C1336 0.950 . S
H1311 C1338 0.950 . S
H1312 C1341 0.950 . S
H1313 C1342 0.950 . S
H1314 C1344 0.950 . S
H1315 C1345 0.950 . S
C1316 H1298 0.951 . S
C1316 C1317 1.366 . S
C1316 C1318 1.388 . S
C1317 C1316 1.366 . S
C1317 C1321 1.385 . S
C1318 H1299 0.951 . S
C1318 C1316 1.388 . S
C1318 C1319 1.366 . S
C1319 C1318 1.366 . S
C1319 C1320 1.414 . S
C1319 C1322 1.499 . S
C1320 H1300 0.950 . S
C1320 C1319 1.414 . S
C1320 C1321 1.374 . S
C1321 H1301 0.950 1_565 S
C1321 C1317 1.385 . S
C1321 C1320 1.374 . S
C1322 C1319 1.499 . S
C1322 C1323 1.373 . S
C1322 C1324 1.389 . S
C1323 H1302 0.950 . S
C1323 C1322 1.373 . S
C1323 C1339 1.377 . S
C1324 C1322 1.389 . S
C1324 C1325 1.524 . S
C1324 C1338 1.377 . S
C1325 C1324 1.524 . S
C1325 C1326 1.397 . S
C1325 C1330 1.363 . S
C1326 H1303 0.950 . S
C1326 C1325 1.397 . S
C1326 C1327 1.334 . S
C1327 H1304 0.950 . S
C1327 C1326 1.334 . S
C1327 C1328 1.287 . S
C1328 C1327 1.287 . S
C1328 C1329 1.524 . S
C1328 H1347 0.913 . S
C1329 H1305 0.950 . S
C1329 C1328 1.524 . S
C1329 C1330 1.415 . S
C1330 H1306 0.950 . S
C1330 C1325 1.363 . S
C1330 C1329 1.415 . S
C1331 H1307 0.951 . S
C1331 C1332 1.366 . S
C1331 C1333 1.388 . S
C1332 C1331 1.366 . S
C1332 C1336 1.385 . S
C1333 H1308 0.951 . S
C1333 C1331 1.388 . S
C1333 C1334 1.366 . S
C1334 C1333 1.366 . S
C1334 C1335 1.414 . S
C1334 C1337 1.499 . S
C1335 H1309 0.950 . S
C1335 C1334 1.414 . S
C1335 C1336 1.374 . S
C1336 H1310 0.950 . S
C1336 C1332 1.385 . S
C1336 C1335 1.374 . S
C1337 C1334 1.499 . S
C1337 C1338 1.373 . S
C1337 C1339 1.389 . S
C1338 H1311 0.950 . S
C1338 C1324 1.377 . S
C1338 C1337 1.373 . S
C1339 C1323 1.377 . S
C1339 C1337 1.389 . S
C1339 C1340 1.524 . S
C1340 C1339 1.524 . S
C1340 C1341 1.397 . S
C1340 C1345 1.363 . S
C1341 H1312 0.950 . S
C1341 C1340 1.397 . S
C1341 C1342 1.334 . S
C1342 H1313 0.950 . S
C1342 C1341 1.334 . S
C1342 C1343 1.287 . S
C1343 C1342 1.287 . S
C1343 C1344 1.524 . S
C1343 H1346 0.999 . S
C1344 H1314 0.950 . S
C1344 C1343 1.524 . S
C1344 C1345 1.415 . S
C1345 H1315 0.950 . S
C1345 C1340 1.363 . S
C1345 C1344 1.415 . S
H1346 C1343 0.999 . S
H1347 C1328 0.913 . S
H1348 C1366 0.951 . S
H1349 C1368 0.951 . S
H1350 C1370 0.950 . S
H1351 C1371 0.950 . S
H1352 C1373 0.950 . S
H1353 C1376 0.950 . S
H1354 C1377 0.950 . S
H1355 C1379 0.950 . S
H1356 C1380 0.950 . S
H1357 C1381 0.951 . S
H1358 C1383 0.951 . S
H1359 C1385 0.950 . S
H1360 C1386 0.950 . S
H1361 C1388 0.950 . S
H1362 C1391 0.950 . S
H1363 C1392 0.950 . S
H1364 C1394 0.950 . S
H1365 C1395 0.950 . S
C1366 H1348 0.951 . S
C1366 C1367 1.366 . S
C1366 C1368 1.388 . S
C1367 C1366 1.366 . S
C1367 C1371 1.385 . S
C1368 H1349 0.951 . S
C1368 C1366 1.388 . S
C1368 C1369 1.366 . S
C1369 C1368 1.366 . S
C1369 C1370 1.414 . S
C1369 C1372 1.499 . S
C1370 H1350 0.950 . S
C1370 C1369 1.414 . S
C1370 C1371 1.374 . S
C1371 H1351 0.950 . S
C1371 C1367 1.385 . S
C1371 C1370 1.374 . S
C1372 C1369 1.499 . S
C1372 C1373 1.373 . S
C1372 C1374 1.389 . S
C1373 H1352 0.950 . S
C1373 C1372 1.373 . S
C1373 C1389 1.377 . S
C1374 C1372 1.389 . S
C1374 C1375 1.524 . S
C1374 C1388 1.377 . S
C1375 C1374 1.524 . S
C1375 C1376 1.397 . S
C1375 C1380 1.363 . S
C1376 H1353 0.950 . S
C1376 C1375 1.397 . S
C1376 C1377 1.334 . S
C1377 H1354 0.950 . S
C1377 C1376 1.334 . S
C1377 C1378 1.287 . S
C1378 C1377 1.287 . S
C1378 C1379 1.524 . S
C1378 H1397 0.913 . S
C1379 H1355 0.950 . S
C1379 C1378 1.524 . S
C1379 C1380 1.415 . S
C1380 H1356 0.950 . S
C1380 C1375 1.363 . S
C1380 C1379 1.415 . S
C1381 H1357 0.951 . S
C1381 C1382 1.366 . S
C1381 C1383 1.388 . S
C1382 C1381 1.366 . S
C1382 C1386 1.385 . S
C1383 H1358 0.951 . S
C1383 C1381 1.388 . S
C1383 C1384 1.366 . S
C1384 C1383 1.366 . S
C1384 C1385 1.414 . S
C1384 C1387 1.499 . S
C1385 H1359 0.950 . S
C1385 C1384 1.414 . S
C1385 C1386 1.374 . S
C1386 H1360 0.950 . S
C1386 C1382 1.385 . S
C1386 C1385 1.374 . S
C1387 C1384 1.499 . S
C1387 C1388 1.373 . S
C1387 C1389 1.389 . S
C1388 H1361 0.950 . S
C1388 C1374 1.377 . S
C1388 C1387 1.373 . S
C1389 C1373 1.377 . S
C1389 C1387 1.389 . S
C1389 C1390 1.524 . S
C1390 C1389 1.524 . S
C1390 C1391 1.397 . S
C1390 C1395 1.363 . S
C1391 H1362 0.950 . S
C1391 C1390 1.397 . S
C1391 C1392 1.334 . S
C1392 H1363 0.950 . S
C1392 C1391 1.334 . S
C1392 C1393 1.287 . S
C1393 C1392 1.287 . S
C1393 C1394 1.524 . S
C1393 H1396 0.999 . S
C1394 H1364 0.950 . S
C1394 C1393 1.524 . S
C1394 C1395 1.415 . S
C1395 H1365 0.950 . S
C1395 C1390 1.363 . S
C1395 C1394 1.415 . S
H1396 C1393 0.999 . S
H1397 C1378 0.913 . S
H1398 C1416 0.951 . S
H1399 C1418 0.951 . S
H1400 C1420 0.950 . S
H1401 C1421 0.950 . S
H1402 C1423 0.950 . S
H1403 C1426 0.950 . S
H1404 C1427 0.950 . S
H1405 C1429 0.950 . S
H1406 C1430 0.950 . S
H1407 C1431 0.951 . S
H1408 C1433 0.951 . S
H1409 C1435 0.950 . S
H1410 C1436 0.950 . S
H1411 C1438 0.950 . S
H1412 C1441 0.950 . S
H1413 C1442 0.950 . S
H1414 C1444 0.950 . S
H1415 C1445 0.950 . S
C1416 H1398 0.951 . S
C1416 C1417 1.366 . S
C1416 C1418 1.388 . S
C1417 C1416 1.366 . S
C1417 C1421 1.385 . S
C1418 H1399 0.951 . S
C1418 C1416 1.388 . S
C1418 C1419 1.366 . S
C1419 C1418 1.366 . S
C1419 C1420 1.414 . S
C1419 C1422 1.499 . S
C1420 H1400 0.950 . S
C1420 C1419 1.414 . S
C1420 C1421 1.374 . S
C1421 H1401 0.950 . S
C1421 C1417 1.385 . S
C1421 C1420 1.374 . S
C1422 C1419 1.499 . S
C1422 C1423 1.373 . S
C1422 C1424 1.389 . S
C1423 H1402 0.950 . S
C1423 C1422 1.373 . S
C1423 C1439 1.377 . S
C1424 C1422 1.389 . S
C1424 C1425 1.524 . S
C1424 C1438 1.377 . S
C1425 C1424 1.524 . S
C1425 C1426 1.397 . S
C1425 C1430 1.363 . S
C1426 H1403 0.950 . S
C1426 C1425 1.397 . S
C1426 C1427 1.334 . S
C1427 H1404 0.950 . S
C1427 C1426 1.334 . S
C1427 C1428 1.287 . S
C1428 C1427 1.287 . S
C1428 C1429 1.524 . S
C1428 H1447 0.913 . S
C1429 H1405 0.950 . S
C1429 C1428 1.524 . S
C1429 C1430 1.415 . S
C1430 H1406 0.950 . S
C1430 C1425 1.363 . S
C1430 C1429 1.415 . S
C1431 H1407 0.951 . S
C1431 C1432 1.366 . S
C1431 C1433 1.388 . S
C1432 C1431 1.366 . S
C1432 C1436 1.385 . S
C1433 H1408 0.951 . S
C1433 C1431 1.388 . S
C1433 C1434 1.366 . S
C1434 C1433 1.366 . S
C1434 C1435 1.414 . S
C1434 C1437 1.499 . S
C1435 H1409 0.950 . S
C1435 C1434 1.414 . S
C1435 C1436 1.374 . S
C1436 H1410 0.950 . S
C1436 C1432 1.385 . S
C1436 C1435 1.374 . S
C1437 C1434 1.499 . S
C1437 C1438 1.373 . S
C1437 C1439 1.389 . S
C1438 H1411 0.950 . S
C1438 C1424 1.377 . S
C1438 C1437 1.373 . S
C1439 C1423 1.377 . S
C1439 C1437 1.389 . S
C1439 C1440 1.524 . S
C1440 C1439 1.524 . S
C1440 C1441 1.397 . S
C1440 C1445 1.363 . S
C1441 H1412 0.950 . S
C1441 C1440 1.397 . S
C1441 C1442 1.334 . S
C1442 H1413 0.950 . S
C1442 C1441 1.334 . S
C1442 C1443 1.287 . S
C1443 C1442 1.287 . S
C1443 C1444 1.524 . S
C1443 H1446 0.999 . S
C1444 H1414 0.950 . S
C1444 C1443 1.524 . S
C1444 C1445 1.415 . S
C1445 H1415 0.950 . S
C1445 C1440 1.363 . S
C1445 C1444 1.415 . S
H1446 C1443 0.999 . S
H1447 C1428 0.913 . S
H1448 C1466 0.951 . S
H1449 C1468 0.951 . S
H1450 C1470 0.950 . S
H1451 C1471 0.950 . S
H1452 C1473 0.950 . S
H1453 C1476 0.950 . S
H1454 C1477 0.950 . S
H1455 C1479 0.950 . S
H1456 C1480 0.950 . S
H1457 C1481 0.951 . S
H1458 C1483 0.951 . S
H1459 C1485 0.950 . S
H1460 C1486 0.950 . S
H1461 C1488 0.950 . S
H1462 C1491 0.950 . S
H1463 C1492 0.950 . S
H1464 C1494 0.950 . S
H1465 C1495 0.950 . S
C1466 H1448 0.951 . S
C1466 C1467 1.366 . S
C1466 C1468 1.388 . S
C1467 C1466 1.366 . S
C1467 C1471 1.385 . S
C1468 H1449 0.951 . S
C1468 C1466 1.388 . S
C1468 C1469 1.366 . S
C1469 C1468 1.366 . S
C1469 C1470 1.414 . S
C1469 C1472 1.499 . S
C1470 H1450 0.950 . S
C1470 C1469 1.414 . S
C1470 C1471 1.374 . S
C1471 H1451 0.950 . S
C1471 C1467 1.385 . S
C1471 C1470 1.374 . S
C1472 C1469 1.499 . S
C1472 C1473 1.373 . S
C1472 C1474 1.389 . S
C1473 H1452 0.950 . S
C1473 C1472 1.373 . S
C1473 C1489 1.377 . S
C1474 C1472 1.389 . S
C1474 C1475 1.524 . S
C1474 C1488 1.377 . S
C1475 C1474 1.524 . S
C1475 C1476 1.397 . S
C1475 C1480 1.363 . S
C1476 H1453 0.950 . S
C1476 C1475 1.397 . S
C1476 C1477 1.334 . S
C1477 H1454 0.950 . S
C1477 C1476 1.334 . S
C1477 C1478 1.287 . S
C1478 C1477 1.287 . S
C1478 C1479 1.524 . S
C1478 H1497 0.913 . S
C1479 H1455 0.950 . S
C1479 C1478 1.524 . S
C1479 C1480 1.415 . S
C1480 H1456 0.950 . S
C1480 C1475 1.363 . S
C1480 C1479 1.415 . S
C1481 H1457 0.951 . S
C1481 C1482 1.366 . S
C1481 C1483 1.388 . S
C1482 C1481 1.366 . S
C1482 C1486 1.385 . S
C1483 H1458 0.951 . S
C1483 C1481 1.388 . S
C1483 C1484 1.366 . S
C1484 C1483 1.366 . S
C1484 C1485 1.414 . S
C1484 C1487 1.499 . S
C1485 H1459 0.950 . S
C1485 C1484 1.414 . S
C1485 C1486 1.374 . S
C1486 H1460 0.950 . S
C1486 C1482 1.385 . S
C1486 C1485 1.374 . S
C1487 C1484 1.499 . S
C1487 C1488 1.373 . S
C1487 C1489 1.389 . S
C1488 H1461 0.950 . S
C1488 C1474 1.377 . S
C1488 C1487 1.373 . S
C1489 C1473 1.377 . S
C1489 C1487 1.389 . S
C1489 C1490 1.524 . S
C1490 C1489 1.524 . S
C1490 C1491 1.397 . S
C1490 C1495 1.363 . S
C1491 H1462 0.950 . S
C1491 C1490 1.397 . S
C1491 C1492 1.334 . S
C1492 H1463 0.950 . S
C1492 C1491 1.334 . S
C1492 C1493 1.287 . S
C1493 C1492 1.287 . S
C1493 C1494 1.524 . S
C1493 H1496 0.999 . S
C1494 H1464 0.950 . S
C1494 C1493 1.524 . S
C1494 C1495 1.415 . S
C1495 H1465 0.950 . S
C1495 C1490 1.363 . S
C1495 C1494 1.415 . S
H1496 C1493 0.999 . S
H1497 C1478 0.913 . S
H1498 C1516 0.951 . S
H1499 C1518 0.951 . S
H1500 C1520 0.950 . S
H1501 C1521 0.950 . S
H1502 C1523 0.950 . S
H1503 C1526 0.950 . S
H1504 C1527 0.950 . S
H1505 C1529 0.950 . S
H1506 C1530 0.950 . S
H1507 C1531 0.951 . S
H1508 C1533 0.951 . S
H1509 C1535 0.950 . S
H1510 C1536 0.950 . S
H1511 C1538 0.950 . S
H1512 C1541 0.950 . S
H1513 C1542 0.950 . S
H1514 C1544 0.950 . S
H1515 C1545 0.950 . S
C1516 H1498 0.951 . S
C1516 C1517 1.366 . S
C1516 C1518 1.388 . S
C1517 C1516 1.366 . S
C1517 C1521 1.385 . S
C1518 H1499 0.951 . S
C1518 C1516 1.388 . S
C1518 C1519 1.366 . S
C1519 C1518 1.366 . S
C1519 C1520 1.414 . S
C1519 C1522 1.499 . S
C1520 H1500 0.950 . S
C1520 C1519 1.414 . S
C1520 C1521 1.374 . S
C1521 H1501 0.950 . S
C1521 C1517 1.385 . S
C1521 C1520 1.374 . S
C1522 C1519 1.499 . S
C1522 C1523 1.373 . S
C1522 C1524 1.389 . S
C1523 H1502 0.950 . S
C1523 C1522 1.373 . S
C1523 C1539 1.377 . S
C1524 C1522 1.389 . S
C1524 C1525 1.524 . S
C1524 C1538 1.377 . S
C1525 C1524 1.524 . S
C1525 C1526 1.397 . S
C1525 C1530 1.363 . S
C1526 H1503 0.950 . S
C1526 C1525 1.397 . S
C1526 C1527 1.334 . S
C1527 H1504 0.950 . S
C1527 C1526 1.334 . S
C1527 C1528 1.287 . S
C1528 C1527 1.287 . S
C1528 C1529 1.524 . S
C1528 H1547 0.913 . S
C1529 H1505 0.950 . S
C1529 C1528 1.524 . S
C1529 C1530 1.415 . S
C1530 H1506 0.950 . S
C1530 C1525 1.363 . S
C1530 C1529 1.415 . S
C1531 H1507 0.951 . S
C1531 C1532 1.366 . S
C1531 C1533 1.388 . S
C1532 C1531 1.366 . S
C1532 C1536 1.385 . S
C1533 H1508 0.951 . S
C1533 C1531 1.388 . S
C1533 C1534 1.366 . S
C1534 C1533 1.366 . S
C1534 C1535 1.414 . S
C1534 C1537 1.499 . S
C1535 H1509 0.950 . S
C1535 C1534 1.414 . S
C1535 C1536 1.374 . S
C1536 H1510 0.950 . S
C1536 C1532 1.385 . S
C1536 C1535 1.374 . S
C1537 C1534 1.499 . S
C1537 C1538 1.373 . S
C1537 C1539 1.389 . S
C1538 H1511 0.950 . S
C1538 C1524 1.377 . S
C1538 C1537 1.373 . S
C1539 C1523 1.377 . S
C1539 C1537 1.389 . S
C1539 C1540 1.524 . S
C1540 C1539 1.524 . S
C1540 C1541 1.397 . S
C1540 C1545 1.363 . S
C1541 H1512 0.950 . S
C1541 C1540 1.397 . S
C1541 C1542 1.334 . S
C1542 H1513 0.950 . S
C1542 C1541 1.334 . S
C1542 C1543 1.287 . S
C1543 C1542 1.287 . S
C1543 C1544 1.524 . S
C1543 H1546 0.999 . S
C1544 H1514 0.950 . S
C1544 C1543 1.524 . S
C1544 C1545 1.415 . S
C1545 H1515 0.950 . S
C1545 C1540 1.363 . S
C1545 C1544 1.415 . S
H1546 C1543 0.999 . S
H1547 C1528 0.913 . S
H1548 C1566 0.951 . S
H1549 C1568 0.951 . S
H1550 C1570 0.950 . S
H1551 C1571 0.950 . S
H1552 C1573 0.950 . S
H1553 C1576 0.950 . S
H1554 C1577 0.950 . S
H1555 C1579 0.950 . S
H1556 C1580 0.950 . S
H1557 C1581 0.951 . S
H1558 C1583 0.951 . S
H1559 C1585 0.950 . S
H1560 C1586 0.950 . S
H1561 C1588 0.950 . S
H1562 C1591 0.950 . S
H1563 C1592 0.950 . S
H1564 C1594 0.950 . S
H1565 C1595 0.950 . S
C1566 H1548 0.951 . S
C1566 C1567 1.366 . S
C1566 C1568 1.388 . S
C1567 C1566 1.366 . S
C1567 C1571 1.385 1_564 S
C1568 H1549 0.951 . S
C1568 C1566 1.388 . S
C1568 C1569 1.366 1_554 S
C1569 C1568 1.366 1_556 S
C1569 C1570 1.414 . S
C1569 C1572 1.499 . S
C1570 H1550 0.950 . S
C1570 C1569 1.414 . S
C1570 C1571 1.374 1_565 S
C1571 H1551 0.950 . S
C1571 C1567 1.385 1_546 S
C1571 C1570 1.374 1_545 S
C1572 C1569 1.499 . S
C1572 C1573 1.373 . S
C1572 C1574 1.389 . S
C1573 H1552 0.950 . S
C1573 C1572 1.373 . S
C1573 C1589 1.377 . S
C1574 C1572 1.389 . S
C1574 C1575 1.524 . S
C1574 C1588 1.377 . S
C1575 C1574 1.524 . S
C1575 C1576 1.397 . S
C1575 C1580 1.363 1_556 S
C1576 H1553 0.950 . S
C1576 C1575 1.397 . S
C1576 C1577 1.334 1_556 S
C1577 H1554 0.950 . S
C1577 C1576 1.334 1_554 S
C1577 C1578 1.287 . S
C1578 C1577 1.287 . S
C1578 C1579 1.524 . S
C1578 H1597 0.913 . S
C1579 H1555 0.950 . S
C1579 C1578 1.524 . S
C1579 C1580 1.415 . S
C1580 H1556 0.950 . S
C1580 C1575 1.363 1_554 S
C1580 C1579 1.415 . S
C1581 H1557 0.951 . S
C1581 C1582 1.366 . S
C1581 C1583 1.388 . S
C1582 C1581 1.366 . S
C1582 C1586 1.385 . S
C1583 H1558 0.951 . S
C1583 C1581 1.388 . S
C1583 C1584 1.366 . S
C1584 C1583 1.366 . S
C1584 C1585 1.414 . S
C1584 C1587 1.499 . S
C1585 H1559 0.950 . S
C1585 C1584 1.414 . S
C1585 C1586 1.374 . S
C1586 H1560 0.950 . S
C1586 C1582 1.385 . S
C1586 C1585 1.374 . S
C1587 C1584 1.499 . S
C1587 C1588 1.373 . S
C1587 C1589 1.389 . S
C1588 H1561 0.950 . S
C1588 C1574 1.377 . S
C1588 C1587 1.373 . S
C1589 C1573 1.377 . S
C1589 C1587 1.389 . S
C1589 C1590 1.524 . S
C1590 C1589 1.524 . S
C1590 C1591 1.397 . S
C1590 C1595 1.363 . S
C1591 H1562 0.950 . S
C1591 C1590 1.397 . S
C1591 C1592 1.334 . S
C1592 H1563 0.950 . S
C1592 C1591 1.334 . S
C1592 C1593 1.287 . S
C1593 C1592 1.287 . S
C1593 C1594 1.524 . S
C1593 H1596 0.999 . S
C1594 H1564 0.950 . S
C1594 C1593 1.524 . S
C1594 C1595 1.415 . S
C1595 H1565 0.950 . S
C1595 C1590 1.363 . S
C1595 C1594 1.415 . S
H1596 C1593 0.999 . S
H1597 C1578 0.913 . S
H1598 C1616 0.951 1_554 S
H1599 C1618 0.951 . S
H1600 C1620 0.950 . S
H1601 C1621 0.950 . S
H1602 C1623 0.950 . S
H1603 C1626 0.950 . S
H1604 C1627 0.950 . S
H1605 C1629 0.950 . S
H1606 C1630 0.950 . S
H1607 C1631 0.951 . S
H1608 C1633 0.951 . S
H1609 C1635 0.950 . S
H1610 C1636 0.950 . S
H1611 C1638 0.950 . S
H1612 C1641 0.950 . S
H1613 C1642 0.950 . S
H1614 C1644 0.950 . S
H1615 C1645 0.950 . S
C1616 H1598 0.951 1_556 S
C1616 C1617 1.366 . S
C1616 C1618 1.388 . S
C1617 C1616 1.366 . S
C1617 C1621 1.385 . S
C1618 H1599 0.951 . S
C1618 C1616 1.388 . S
C1618 C1619 1.366 . S
C1619 C1618 1.366 . S
C1619 C1620 1.414 . S
C1619 C1622 1.499 . S
C1620 H1600 0.950 . S
C1620 C1619 1.414 . S
C1620 C1621 1.374 . S
C1621 H1601 0.950 . S
C1621 C1617 1.385 . S
C1621 C1620 1.374 . S
C1622 C1619 1.499 . S
C1622 C1623 1.373 . S
C1622 C1624 1.389 . S
C1623 H1602 0.950 . S
C1623 C1622 1.373 . S
C1623 C1639 1.377 . S
C1624 C1622 1.389 . S
C1624 C1625 1.524 . S
C1624 C1638 1.377 . S
C1625 C1624 1.524 . S
C1625 C1626 1.397 . S
C1625 C1630 1.363 . S
C1626 H1603 0.950 . S
C1626 C1625 1.397 . S
C1626 C1627 1.334 . S
C1627 H1604 0.950 . S
C1627 C1626 1.334 . S
C1627 C1628 1.287 . S
C1628 C1627 1.287 . S
C1628 C1629 1.524 . S
C1628 H1647 0.913 . S
C1629 H1605 0.950 . S
C1629 C1628 1.524 . S
C1629 C1630 1.415 . S
C1630 H1606 0.950 . S
C1630 C1625 1.363 . S
C1630 C1629 1.415 . S
C1631 H1607 0.951 . S
C1631 C1632 1.366 . S
C1631 C1633 1.388 . S
C1632 C1631 1.366 . S
C1632 C1636 1.385 . S
C1633 H1608 0.951 . S
C1633 C1631 1.388 . S
C1633 C1634 1.366 . S
C1634 C1633 1.366 . S
C1634 C1635 1.414 . S
C1634 C1637 1.499 . S
C1635 H1609 0.950 . S
C1635 C1634 1.414 . S
C1635 C1636 1.374 . S
C1636 H1610 0.950 . S
C1636 C1632 1.385 . S
C1636 C1635 1.374 . S
C1637 C1634 1.499 . S
C1637 C1638 1.373 . S
C1637 C1639 1.389 . S
C1638 H1611 0.950 . S
C1638 C1624 1.377 . S
C1638 C1637 1.373 . S
C1639 C1623 1.377 . S
C1639 C1637 1.389 . S
C1639 C1640 1.524 . S
C1640 C1639 1.524 . S
C1640 C1641 1.397 . S
C1640 C1645 1.363 . S
C1641 H1612 0.950 . S
C1641 C1640 1.397 . S
C1641 C1642 1.334 . S
C1642 H1613 0.950 . S
C1642 C1641 1.334 . S
C1642 C1643 1.287 . S
C1643 C1642 1.287 . S
C1643 C1644 1.524 . S
C1643 H1646 0.999 . S
C1644 H1614 0.950 . S
C1644 C1643 1.524 . S
C1644 C1645 1.415 . S
C1645 H1615 0.950 . S
C1645 C1640 1.363 . S
C1645 C1644 1.415 . S
H1646 C1643 0.999 . S
H1647 C1628 0.913 . S
H1648 C1666 0.951 . S
H1649 C1668 0.951 . S
H1650 C1670 0.950 . S
H1651 C1671 0.950 . S
H1652 C1673 0.950 . S
H1653 C1676 0.950 . S
H1654 C1677 0.950 . S
H1655 C1679 0.950 . S
H1656 C1680 0.950 . S
H1657 C1681 0.951 . S
H1658 C1683 0.951 . S
H1659 C1685 0.950 . S
H1660 C1686 0.950 . S
H1661 C1688 0.950 . S
H1662 C1691 0.950 . S
H1663 C1692 0.950 . S
H1664 C1694 0.950 . S
H1665 C1695 0.950 . S
C1666 H1648 0.951 . S
C1666 C1667 1.366 . S
C1666 C1668 1.388 . S
C1667 C1666 1.366 . S
C1667 C1671 1.385 . S
C1668 H1649 0.951 . S
C1668 C1666 1.388 . S
C1668 C1669 1.366 . S
C1669 C1668 1.366 . S
C1669 C1670 1.414 . S
C1669 C1672 1.499 . S
C1670 H1650 0.950 . S
C1670 C1669 1.414 . S
C1670 C1671 1.374 . S
C1671 H1651 0.950 . S
C1671 C1667 1.385 . S
C1671 C1670 1.374 . S
C1672 C1669 1.499 . S
C1672 C1673 1.373 . S
C1672 C1674 1.389 . S
C1673 H1652 0.950 . S
C1673 C1672 1.373 . S
C1673 C1689 1.377 . S
C1674 C1672 1.389 . S
C1674 C1675 1.524 . S
C1674 C1688 1.377 . S
C1675 C1674 1.524 . S
C1675 C1676 1.397 . S
C1675 C1680 1.363 . S
C1676 H1653 0.950 . S
C1676 C1675 1.397 . S
C1676 C1677 1.334 . S
C1677 H1654 0.950 . S
C1677 C1676 1.334 . S
C1677 C1678 1.287 . S
C1678 C1677 1.287 . S
C1678 C1679 1.524 . S
C1678 H1697 0.913 . S
C1679 H1655 0.950 . S
C1679 C1678 1.524 . S
C1679 C1680 1.415 . S
C1680 H1656 0.950 . S
C1680 C1675 1.363 . S
C1680 C1679 1.415 . S
C1681 H1657 0.951 . S
C1681 C1682 1.366 . S
C1681 C1683 1.388 . S
C1682 C1681 1.366 . S
C1682 C1686 1.385 . S
C1683 H1658 0.951 . S
C1683 C1681 1.388 . S
C1683 C1684 1.366 . S
C1684 C1683 1.366 . S
C1684 C1685 1.414 . S
C1684 C1687 1.499 . S
C1685 H1659 0.950 . S
C1685 C1684 1.414 . S
C1685 C1686 1.374 . S
C1686 H1660 0.950 . S
C1686 C1682 1.385 . S
C1686 C1685 1.374 . S
C1687 C1684 1.499 . S
C1687 C1688 1.373 . S
C1687 C1689 1.389 . S
C1688 H1661 0.950 . S
C1688 C1674 1.377 . S
C1688 C1687 1.373 . S
C1689 C1673 1.377 . S
C1689 C1687 1.389 . S
C1689 C1690 1.524 . S
C1690 C1689 1.524 . S
C1690 C1691 1.397 . S
C1690 C1695 1.363 . S
C1691 H1662 0.950 . S
C1691 C1690 1.397 . S
C1691 C1692 1.334 . S
C1692 H1663 0.950 . S
C1692 C1691 1.334 . S
C1692 C1693 1.287 . S
C1693 C1692 1.287 . S
C1693 C1694 1.524 . S
C1693 H1696 0.999 . S
C1694 H1664 0.950 . S
C1694 C1693 1.524 . S
C1694 C1695 1.415 . S
C1695 H1665 0.950 . S
C1695 C1690 1.363 . S
C1695 C1694 1.415 . S
H1696 C1693 0.999 . S
H1697 C1678 0.913 . S
H1698 C1716 0.951 . S
H1699 C1718 0.951 . S
H1700 C1720 0.950 . S
H1701 C1721 0.950 . S
H1702 C1723 0.950 . S
H1703 C1726 0.950 . S
H1704 C1727 0.950 . S
H1705 C1729 0.950 . S
H1706 C1730 0.950 . S
H1707 C1731 0.951 . S
H1708 C1733 0.951 . S
H1709 C1735 0.950 . S
H1710 C1736 0.950 . S
H1711 C1738 0.950 . S
H1712 C1741 0.950 . S
H1713 C1742 0.950 . S
H1714 C1744 0.950 . S
H1715 C1745 0.950 . S
C1716 H1698 0.951 . S
C1716 C1717 1.366 . S
C1716 C1718 1.388 . S
C1717 C1716 1.366 . S
C1717 C1721 1.385 . S
C1718 H1699 0.951 . S
C1718 C1716 1.388 . S
C1718 C1719 1.366 . S
C1719 C1718 1.366 . S
C1719 C1720 1.414 . S
C1719 C1722 1.499 . S
C1720 H1700 0.950 . S
C1720 C1719 1.414 . S
C1720 C1721 1.374 . S
C1721 H1701 0.950 . S
C1721 C1717 1.385 . S
C1721 C1720 1.374 . S
C1722 C1719 1.499 . S
C1722 C1723 1.373 . S
C1722 C1724 1.389 . S
C1723 H1702 0.950 . S
C1723 C1722 1.373 . S
C1723 C1739 1.377 . S
C1724 C1722 1.389 . S
C1724 C1725 1.524 . S
C1724 C1738 1.377 . S
C1725 C1724 1.524 . S
C1725 C1726 1.397 . S
C1725 C1730 1.363 . S
C1726 H1703 0.950 . S
C1726 C1725 1.397 . S
C1726 C1727 1.334 . S
C1727 H1704 0.950 . S
C1727 C1726 1.334 . S
C1727 C1728 1.287 . S
C1728 C1727 1.287 . S
C1728 C1729 1.524 . S
C1728 H1747 0.913 . S
C1729 H1705 0.950 . S
C1729 C1728 1.524 . S
C1729 C1730 1.415 . S
C1730 H1706 0.950 . S
C1730 C1725 1.363 . S
C1730 C1729 1.415 . S
C1731 H1707 0.951 . S
C1731 C1732 1.366 . S
C1731 C1733 1.388 . S
C1732 C1731 1.366 . S
C1732 C1736 1.385 . S
C1733 H1708 0.951 . S
C1733 C1731 1.388 . S
C1733 C1734 1.366 . S
C1734 C1733 1.366 . S
C1734 C1735 1.414 . S
C1734 C1737 1.499 . S
C1735 H1709 0.950 . S
C1735 C1734 1.414 . S
C1735 C1736 1.374 . S
C1736 H1710 0.950 . S
C1736 C1732 1.385 . S
C1736 C1735 1.374 . S
C1737 C1734 1.499 . S
C1737 C1738 1.373 . S
C1737 C1739 1.389 . S
C1738 H1711 0.950 . S
C1738 C1724 1.377 . S
C1738 C1737 1.373 . S
C1739 C1723 1.377 . S
C1739 C1737 1.389 . S
C1739 C1740 1.524 . S
C1740 C1739 1.524 . S
C1740 C1741 1.397 . S
C1740 C1745 1.363 . S
C1741 H1712 0.950 . S
C1741 C1740 1.397 . S
C1741 C1742 1.334 . S
C1742 H1713 0.950 . S
C1742 C1741 1.334 . S
C1742 C1743 1.287 . S
C1743 C1742 1.287 . S
C1743 C1744 1.524 . S
C1743 H1746 0.999 . S
C1744 H1714 0.950 . S
C1744 C1743 1.524 . S
C1744 C1745 1.415 . S
C1745 H1715 0.950 . S
C1745 C1740 1.363 . S
C1745 C1744 1.415 . S
H1746 C1743 0.999 . S
H1747 C1728 0.913 . S
H1748 C1766 0.951 . S
H1749 C1768 0.951 . S
H1750 C1770 0.950 . S
H1751 C1771 0.950 . S
H1752 C1773 0.950 . S
H1753 C1776 0.950 . S
H1754 C1777 0.950 . S
H1755 C1779 0.950 . S
H1756 C1780 0.950 . S
H1757 C1781 0.951 . S
H1758 C1783 0.951 . S
H1759 C1785 0.950 . S
H1760 C1786 0.950 . S
H1761 C1788 0.950 . S
H1762 C1791 0.950 . S
H1763 C1792 0.950 . S
H1764 C1794 0.950 . S
H1765 C1795 0.950 . S
C1766 H1748 0.951 . S
C1766 C1767 1.366 . S
C1766 C1768 1.388 . S
C1767 C1766 1.366 . S
C1767 C1771 1.385 . S
C1768 H1749 0.951 . S
C1768 C1766 1.388 . S
C1768 C1769 1.366 . S
C1769 C1768 1.366 . S
C1769 C1770 1.414 . S
C1769 C1772 1.499 . S
C1770 H1750 0.950 . S
C1770 C1769 1.414 . S
C1770 C1771 1.374 . S
C1771 H1751 0.950 . S
C1771 C1767 1.385 . S
C1771 C1770 1.374 . S
C1772 C1769 1.499 . S
C1772 C1773 1.373 . S
C1772 C1774 1.389 . S
C1773 H1752 0.950 . S
C1773 C1772 1.373 . S
C1773 C1789 1.377 . S
C1774 C1772 1.389 . S
C1774 C1775 1.524 . S
C1774 C1788 1.377 . S
C1775 C1774 1.524 . S
C1775 C1776 1.397 . S
C1775 C1780 1.363 . S
C1776 H1753 0.950 . S
C1776 C1775 1.397 . S
C1776 C1777 1.334 . S
C1777 H1754 0.950 . S
C1777 C1776 1.334 . S
C1777 C1778 1.287 . S
C1778 C1777 1.287 . S
C1778 C1779 1.524 . S
C1778 H1797 0.913 . S
C1779 H1755 0.950 . S
C1779 C1778 1.524 . S
C1779 C1780 1.415 . S
C1780 H1756 0.950 . S
C1780 C1775 1.363 . S
C1780 C1779 1.415 . S
C1781 H1757 0.951 . S
C1781 C1782 1.366 . S
C1781 C1783 1.388 . S
C1782 C1781 1.366 . S
C1782 C1786 1.385 . S
C1783 H1758 0.951 . S
C1783 C1781 1.388 . S
C1783 C1784 1.366 . S
C1784 C1783 1.366 . S
C1784 C1785 1.414 . S
C1784 C1787 1.499 . S
C1785 H1759 0.950 . S
C1785 C1784 1.414 . S
C1785 C1786 1.374 . S
C1786 H1760 0.950 . S
C1786 C1782 1.385 . S
C1786 C1785 1.374 . S
C1787 C1784 1.499 . S
C1787 C1788 1.373 . S
C1787 C1789 1.389 . S
C1788 H1761 0.950 . S
C1788 C1774 1.377 . S
C1788 C1787 1.373 . S
C1789 C1773 1.377 . S
C1789 C1787 1.389 . S
C1789 C1790 1.524 . S
C1790 C1789 1.524 . S
C1790 C1791 1.397 . S
C1790 C1795 1.363 . S
C1791 H1762 0.950 . S
C1791 C1790 1.397 . S
C1791 C1792 1.334 . S
C1792 H1763 0.950 . S
C1792 C1791 1.334 . S
C1792 C1793 1.287 . S
C1793 C1792 1.287 . S
C1793 C1794 1.524 . S
C1793 H1796 0.999 . S
C1794 H1764 0.950 . S
C1794 C1793 1.524 . S
C1794 C1795 1.415 . S
C1795 H1765 0.950 . S
C1795 C1790 1.363 . S
C1795 C1794 1.415 . S
H1796 C1793 0.999 . S
H1797 C1778 0.913 . S
H1798 C1816 0.951 . S
H1799 C1818 0.951 . S
H1800 C1820 0.950 . S
H1801 C1821 0.950 . S
H1802 C1823 0.950 . S
H1803 C1826 0.950 . S
H1804 C1827 0.950 . S
H1805 C1829 0.950 . S
H1806 C1830 0.950 . S
H1807 C1831 0.951 . S
H1808 C1833 0.951 . S
H1809 C1835 0.950 . S
H1810 C1836 0.950 . S
H1811 C1838 0.950 . S
H1812 C1841 0.950 . S
H1813 C1842 0.950 . S
H1814 C1844 0.950 . S
H1815 C1845 0.950 . S
C1816 H1798 0.951 . S
C1816 C1817 1.366 . S
C1816 C1818 1.388 . S
C1817 C1816 1.366 . S
C1817 C1821 1.385 . S
C1818 H1799 0.951 . S
C1818 C1816 1.388 . S
C1818 C1819 1.366 . S
C1819 C1818 1.366 . S
C1819 C1820 1.414 . S
C1819 C1822 1.499 . S
C1820 H1800 0.950 . S
C1820 C1819 1.414 . S
C1820 C1821 1.374 . S
C1821 H1801 0.950 . S
C1821 C1817 1.385 . S
C1821 C1820 1.374 . S
C1822 C1819 1.499 . S
C1822 C1823 1.373 . S
C1822 C1824 1.389 . S
C1823 H1802 0.950 . S
C1823 C1822 1.373 . S
C1823 C1839 1.377 . S
C1824 C1822 1.389 . S
C1824 C1825 1.524 . S
C1824 C1838 1.377 . S
C1825 C1824 1.524 . S
C1825 C1826 1.397 . S
C1825 C1830 1.363 . S
C1826 H1803 0.950 . S
C1826 C1825 1.397 . S
C1826 C1827 1.334 . S
C1827 H1804 0.950 . S
C1827 C1826 1.334 . S
C1827 C1828 1.287 . S
C1828 C1827 1.287 . S
C1828 C1829 1.524 . S
C1828 H1847 0.913 . S
C1829 H1805 0.950 . S
C1829 C1828 1.524 . S
C1829 C1830 1.415 . S
C1830 H1806 0.950 . S
C1830 C1825 1.363 . S
C1830 C1829 1.415 . S
C1831 H1807 0.951 . S
C1831 C1832 1.366 . S
C1831 C1833 1.388 . S
C1832 C1831 1.366 . S
C1832 C1836 1.385 . S
C1833 H1808 0.951 . S
C1833 C1831 1.388 . S
C1833 C1834 1.366 . S
C1834 C1833 1.366 . S
C1834 C1835 1.414 . S
C1834 C1837 1.499 . S
C1835 H1809 0.950 . S
C1835 C1834 1.414 . S
C1835 C1836 1.374 . S
C1836 H1810 0.950 . S
C1836 C1832 1.385 . S
C1836 C1835 1.374 . S
C1837 C1834 1.499 . S
C1837 C1838 1.373 . S
C1837 C1839 1.389 . S
C1838 H1811 0.950 . S
C1838 C1824 1.377 . S
C1838 C1837 1.373 . S
C1839 C1823 1.377 . S
C1839 C1837 1.389 . S
C1839 C1840 1.524 . S
C1840 C1839 1.524 . S
C1840 C1841 1.397 . S
C1840 C1845 1.363 . S
C1841 H1812 0.950 . S
C1841 C1840 1.397 . S
C1841 C1842 1.334 . S
C1842 H1813 0.950 . S
C1842 C1841 1.334 . S
C1842 C1843 1.287 . S
C1843 C1842 1.287 . S
C1843 C1844 1.524 . S
C1843 H1846 0.999 . S
C1844 H1814 0.950 . S
C1844 C1843 1.524 . S
C1844 C1845 1.415 . S
C1845 H1815 0.950 . S
C1845 C1840 1.363 . S
C1845 C1844 1.415 . S
H1846 C1843 0.999 . S
H1847 C1828 0.913 . S
H1848 C1866 0.951 . S
H1849 C1868 0.944 1_554 S
H1850 C1870 0.950 . S
H1851 C1871 0.950 . S
H1852 C1873 0.950 . S
H1853 C1876 0.950 . S
H1854 C1877 0.950 . S
H1855 C1879 0.950 . S
H1856 C1880 0.950 . S
H1857 C1881 0.951 . S
H1858 C1883 0.951 . S
H1859 C1885 0.950 . S
H1860 C1886 0.950 . S
H1861 C1888 0.950 . S
H1862 C1891 0.950 . S
H1863 C1892 0.950 . S
H1864 C1894 0.950 . S
H1865 C1895 0.950 . S
C1866 H1848 0.951 . S
C1866 C1867 1.366 . S
C1866 C1868 1.388 1_554 S
C1867 C1866 1.366 . S
C1867 C1871 1.385 1_554 S
C1868 H1849 0.944 1_556 S
C1868 C1866 1.388 1_556 S
C1868 C1869 1.366 . S
C1869 C1868 1.366 . S
C1869 C1870 1.414 . S
C1869 C1872 1.499 . S
C1870 H1850 0.950 . S
C1870 C1869 1.414 . S
C1870 C1871 1.374 . S
C1871 H1851 0.950 . S
C1871 C1867 1.385 1_556 S
C1871 C1870 1.374 . S
C1872 C1869 1.499 . S
C1872 C1873 1.373 . S
C1872 C1874 1.389 . S
C1873 H1852 0.950 . S
C1873 C1872 1.373 . S
C1873 C1889 1.377 . S
C1874 C1872 1.389 . S
C1874 C1875 1.524 . S
C1874 C1888 1.377 . S
C1875 C1874 1.524 . S
C1875 C1876 1.397 . S
C1875 C1880 1.363 . S
C1876 H1853 0.950 . S
C1876 C1875 1.397 . S
C1876 C1877 1.334 . S
C1877 H1854 0.950 . S
C1877 C1876 1.334 . S
C1877 C1878 1.287 . S
C1878 C1877 1.287 . S
C1878 C1879 1.524 . S
C1878 H1897 0.913 . S
C1879 H1855 0.950 . S
C1879 C1878 1.524 . S
C1879 C1880 1.415 . S
C1880 H1856 0.950 . S
C1880 C1875 1.363 . S
C1880 C1879 1.415 . S
C1881 H1857 0.951 . S
C1881 C1882 1.366 . S
C1881 C1883 1.388 . S
C1882 C1881 1.366 . S
C1882 C1886 1.385 . S
C1883 H1858 0.951 . S
C1883 C1881 1.388 . S
C1883 C1884 1.366 . S
C1884 C1883 1.366 . S
C1884 C1885 1.414 . S
C1884 C1887 1.499 . S
C1885 H1859 0.950 . S
C1885 C1884 1.414 . S
C1885 C1886 1.374 . S
C1886 H1860 0.950 . S
C1886 C1882 1.385 . S
C1886 C1885 1.374 . S
C1887 C1884 1.499 . S
C1887 C1888 1.373 . S
C1887 C1889 1.389 . S
C1888 H1861 0.950 . S
C1888 C1874 1.377 . S
C1888 C1887 1.373 . S
C1889 C1873 1.377 . S
C1889 C1887 1.389 . S
C1889 C1890 1.524 . S
C1890 C1889 1.524 . S
C1890 C1891 1.397 . S
C1890 C1895 1.363 . S
C1891 H1862 0.950 . S
C1891 C1890 1.397 . S
C1891 C1892 1.334 . S
C1892 H1863 0.950 . S
C1892 C1891 1.334 . S
C1892 C1893 1.287 . S
C1893 C1892 1.287 . S
C1893 C1894 1.524 . S
C1893 H1896 0.999 . S
C1894 H1864 0.950 . S
C1894 C1893 1.524 . S
C1894 C1895 1.415 . S
C1895 H1865 0.950 . S
C1895 C1890 1.363 . S
C1895 C1894 1.415 . S
H1896 C1893 0.999 . S
H1897 C1878 0.913 . S
H1898 C1916 0.951 . S
H1899 C1918 0.951 . S
H1900 C1920 0.950 . S
H1901 C1921 0.950 1_455 S
H1902 C1923 0.950 . S
H1903 C1926 0.950 . S
H1904 C1927 0.925 1_455 S
H1905 C1929 0.952 . S
H1906 C1930 0.950 . S
H1907 C1931 0.951 . S
H1908 C1933 0.951 . S
H1909 C1935 0.950 . S
H1910 C1936 0.950 . S
H1911 C1938 0.950 . S
H1912 C1941 0.950 . S
H1913 C1942 0.950 . S
H1914 C1944 0.950 . S
H1915 C1945 0.950 . S
C1916 H1898 0.951 . S
C1916 C1917 1.366 . S
C1916 C1918 1.388 . S
C1917 C1916 1.366 . S
C1917 C1921 1.385 1_554 S
C1918 H1899 0.951 . S
C1918 C1916 1.388 . S
C1918 C1919 1.366 1_554 S
C1919 C1918 1.366 1_556 S
C1919 C1920 1.414 . S
C1919 C1922 1.499 . S
C1920 H1900 0.950 . S
C1920 C1919 1.414 . S
C1920 C1921 1.374 . S
C1921 H1901 0.950 1_655 S
C1921 C1917 1.385 1_556 S
C1921 C1920 1.374 . S
C1922 C1919 1.499 . S
C1922 C1923 1.373 . S
C1922 C1924 1.389 . S
C1923 H1902 0.950 . S
C1923 C1922 1.373 . S
C1923 C1939 1.377 . S
C1924 C1922 1.389 . S
C1924 C1925 1.524 . S
C1924 C1938 1.377 . S
C1925 C1924 1.524 . S
C1925 C1926 1.397 . S
C1925 C1930 1.363 . S
C1926 H1903 0.950 . S
C1926 C1925 1.397 . S
C1926 C1927 1.334 . S
C1927 H1904 0.925 1_655 S
C1927 C1926 1.334 . S
C1927 C1928 1.287 . S
C1928 C1927 1.287 . S
C1928 C1929 1.523 1_556 S
C1928 H1947 0.913 . S
C1929 H1905 0.952 . S
C1929 C1928 1.523 1_554 S
C1929 C1930 1.413 1_554 S
C1930 H1906 0.950 . S
C1930 C1925 1.363 . S
C1930 C1929 1.413 1_556 S
C1931 H1907 0.951 . S
C1931 C1932 1.366 . S
C1931 C1933 1.388 . S
C1932 C1931 1.366 . S
C1932 C1936 1.385 . S
C1933 H1908 0.951 . S
C1933 C1931 1.388 . S
C1933 C1934 1.366 . S
C1934 C1933 1.366 . S
C1934 C1935 1.414 . S
C1934 C1937 1.499 . S
C1935 H1909 0.950 . S
C1935 C1934 1.414 . S
C1935 C1936 1.374 . S
C1936 H1910 0.950 . S
C1936 C1932 1.385 . S
C1936 C1935 1.374 . S
C1937 C1934 1.499 . S
C1937 C1938 1.373 . S
C1937 C1939 1.389 . S
C1938 H1911 0.950 . S
C1938 C1924 1.377 . S
C1938 C1937 1.373 . S
C1939 C1923 1.377 . S
C1939 C1937 1.389 . S
C1939 C1940 1.524 . S
C1940 C1939 1.524 . S
C1940 C1941 1.397 . S
C1940 C1945 1.363 . S
C1941 H1912 0.950 . S
C1941 C1940 1.397 . S
C1941 C1942 1.334 . S
C1942 H1913 0.950 . S
C1942 C1941 1.334 . S
C1942 C1943 1.287 . S
C1943 C1942 1.287 . S
C1943 C1944 1.524 . S
C1943 H1946 0.999 . S
C1944 H1914 0.950 . S
C1944 C1943 1.524 . S
C1944 C1945 1.415 . S
C1945 H1915 0.950 . S
C1945 C1940 1.363 . S
C1945 C1944 1.415 . S
H1946 C1943 0.999 . S
H1947 C1928 0.913 . S
H1948 C1966 0.951 . S
H1949 C1968 0.951 . S
H1950 C1970 0.950 . S
H1951 C1971 0.950 . S
H1952 C1973 0.950 . S
H1953 C1976 0.950 . S
H1954 C1977 0.950 . S
H1955 C1979 0.950 . S
H1956 C1980 0.950 . S
H1957 C1981 0.951 . S
H1958 C1983 0.951 . S
H1959 C1985 0.950 . S
H1960 C1986 0.950 . S
H1961 C1988 0.950 . S
H1962 C1991 0.950 . S
H1963 C1992 0.950 . S
H1964 C1994 0.950 . S
H1965 C1995 0.950 . S
C1966 H1948 0.951 . S
C1966 C1967 1.366 . S
C1966 C1968 1.388 . S
C1967 C1966 1.366 . S
C1967 C1971 1.385 . S
C1968 H1949 0.951 . S
C1968 C1966 1.388 . S
C1968 C1969 1.366 . S
C1969 C1968 1.366 . S
C1969 C1970 1.414 . S
C1969 C1972 1.499 . S
C1970 H1950 0.950 . S
C1970 C1969 1.414 . S
C1970 C1971 1.374 . S
C1971 H1951 0.950 . S
C1971 C1967 1.385 . S
C1971 C1970 1.374 . S
C1972 C1969 1.499 . S
C1972 C1973 1.373 . S
C1972 C1974 1.389 . S
C1973 H1952 0.950 . S
C1973 C1972 1.373 . S
C1973 C1989 1.377 . S
C1974 C1972 1.389 . S
C1974 C1975 1.524 . S
C1974 C1988 1.377 . S
C1975 C1974 1.524 . S
C1975 C1976 1.397 . S
C1975 C1980 1.363 . S
C1976 H1953 0.950 . S
C1976 C1975 1.397 . S
C1976 C1977 1.334 . S
C1977 H1954 0.950 . S
C1977 C1976 1.334 . S
C1977 C1978 1.287 . S
C1978 C1977 1.287 . S
C1978 C1979 1.524 . S
C1978 H1997 0.913 . S
C1979 H1955 0.950 . S
C1979 C1978 1.524 . S
C1979 C1980 1.415 . S
C1980 H1956 0.950 . S
C1980 C1975 1.363 . S
C1980 C1979 1.415 . S
C1981 H1957 0.951 . S
C1981 C1982 1.366 . S
C1981 C1983 1.388 . S
C1982 C1981 1.366 . S
C1982 C1986 1.385 . S
C1983 H1958 0.951 . S
C1983 C1981 1.388 . S
C1983 C1984 1.366 . S
C1984 C1983 1.366 . S
C1984 C1985 1.414 . S
C1984 C1987 1.499 . S
C1985 H1959 0.950 . S
C1985 C1984 1.414 . S
C1985 C1986 1.374 . S
C1986 H1960 0.950 . S
C1986 C1982 1.385 . S
C1986 C1985 1.374 . S
C1987 C1984 1.499 . S
C1987 C1988 1.373 . S
C1987 C1989 1.389 . S
C1988 H1961 0.950 . S
C1988 C1974 1.377 . S
C1988 C1987 1.373 . S
C1989 C1973 1.377 . S
C1989 C1987 1.389 . S
C1989 C1990 1.524 . S
C1990 C1989 1.524 . S
C1990 C1991 1.397 . S
C1990 C1995 1.363 . S
C1991 H1962 0.950 . S
C1991 C1990 1.397 . S
C1991 C1992 1.334 . S
C1992 H1963 0.950 . S
C1992 C1991 1.334 . S
C1992 C1993 1.287 . S
C1993 C1992 1.287 . S
C1993 C1994 1.524 . S
C1993 H1996 0.999 . S
C1994 H1964 0.950 . S
C1994 C1993 1.524 . S
C1994 C1995 1.415 . S
C1995 H1965 0.950 . S
C1995 C1990 1.363 . S
C1995 C1994 1.415 . S
H1996 C1993 0.999 . S
H1997 C1978 0.913 . S
H1998 C2016 0.951 . S
H1999 C2018 0.951 . S
H2000 C2020 0.950 . S
H2001 C2021 0.950 . S
H2002 C2023 0.950 . S
H2003 C2026 0.950 . S
H2004 C2027 0.950 . S
H2005 C2029 0.950 . S
H2006 C2030 0.950 . S
H2007 C2031 0.951 . S
H2008 C2033 0.951 . S
H2009 C2035 0.950 . S
H2010 C2036 0.950 . S
H2011 C2038 0.950 . S
H2012 C2041 0.950 . S
H2013 C2042 0.950 . S
H2014 C2044 0.950 . S
H2015 C2045 0.950 . S
C2016 H1998 0.951 . S
C2016 C2017 1.366 . S
C2016 C2018 1.388 . S
C2017 C2016 1.366 . S
C2017 C2021 1.385 . S
C2018 H1999 0.951 . S
C2018 C2016 1.388 . S
C2018 C2019 1.366 . S
C2019 C2018 1.366 . S
C2019 C2020 1.414 . S
C2019 C2022 1.499 . S
C2020 H2000 0.950 . S
C2020 C2019 1.414 . S
C2020 C2021 1.374 . S
C2021 H2001 0.950 . S
C2021 C2017 1.385 . S
C2021 C2020 1.374 . S
C2022 C2019 1.499 . S
C2022 C2023 1.373 . S
C2022 C2024 1.389 . S
C2023 H2002 0.950 . S
C2023 C2022 1.373 . S
C2023 C2039 1.377 . S
C2024 C2022 1.389 . S
C2024 C2025 1.524 . S
C2024 C2038 1.377 . S
C2025 C2024 1.524 . S
C2025 C2026 1.397 . S
C2025 C2030 1.363 . S
C2026 H2003 0.950 . S
C2026 C2025 1.397 . S
C2026 C2027 1.334 . S
C2027 H2004 0.950 . S
C2027 C2026 1.334 . S
C2027 C2028 1.287 . S
C2028 C2027 1.287 . S
C2028 C2029 1.524 . S
C2028 H2047 0.913 . S
C2029 H2005 0.950 . S
C2029 C2028 1.524 . S
C2029 C2030 1.415 . S
C2030 H2006 0.950 . S
C2030 C2025 1.363 . S
C2030 C2029 1.415 . S
C2031 H2007 0.951 . S
C2031 C2032 1.366 . S
C2031 C2033 1.388 . S
C2032 C2031 1.366 . S
C2032 C2036 1.385 . S
C2033 H2008 0.951 . S
C2033 C2031 1.388 . S
C2033 C2034 1.366 . S
C2034 C2033 1.366 . S
C2034 C2035 1.414 . S
C2034 C2037 1.499 . S
C2035 H2009 0.950 . S
C2035 C2034 1.414 . S
C2035 C2036 1.374 . S
C2036 H2010 0.950 . S
C2036 C2032 1.385 . S
C2036 C2035 1.374 . S
C2037 C2034 1.499 . S
C2037 C2038 1.373 . S
C2037 C2039 1.389 . S
C2038 H2011 0.950 . S
C2038 C2024 1.377 . S
C2038 C2037 1.373 . S
C2039 C2023 1.377 . S
C2039 C2037 1.389 . S
C2039 C2040 1.524 . S
C2040 C2039 1.524 . S
C2040 C2041 1.397 . S
C2040 C2045 1.363 . S
C2041 H2012 0.950 . S
C2041 C2040 1.397 . S
C2041 C2042 1.334 . S
C2042 H2013 0.950 . S
C2042 C2041 1.334 . S
C2042 C2043 1.287 . S
C2043 C2042 1.287 . S
C2043 C2044 1.524 . S
C2043 H2046 0.999 . S
C2044 H2014 0.950 . S
C2044 C2043 1.524 . S
C2044 C2045 1.415 . S
C2045 H2015 0.950 . S
C2045 C2040 1.363 . S
C2045 C2044 1.415 . S
H2046 C2043 0.999 . S
H2047 C2028 0.913 . S
H2048 C2066 0.951 1_545 S
H2049 C2068 0.951 . S
H2050 C2070 0.950 . S
H2051 C2071 0.950 . S
H2052 C2073 0.950 . S
H2053 C2076 0.950 . S
H2054 C2077 0.950 . S
H2055 C2079 0.950 . S
H2056 C2080 0.950 . S
H2057 C2081 0.951 . S
H2058 C2083 0.951 . S
H2059 C2085 0.950 . S
H2060 C2086 0.950 . S
H2061 C2088 0.950 . S
H2062 C2091 0.950 . S
H2063 C2092 0.950 . S
H2064 C2094 0.950 . S
H2065 C2095 0.950 . S
C2066 H2048 0.951 1_565 S
C2066 C2067 1.366 . S
C2066 C2068 1.388 . S
C2067 C2066 1.366 . S
C2067 C2071 1.393 . S
C2068 H2049 0.951 . S
C2068 C2066 1.388 . S
C2068 C2069 1.366 . S
C2069 C2068 1.366 . S
C2069 C2070 1.414 . S
C2069 C2072 1.499 . S
C2070 H2050 0.950 . S
C2070 C2069 1.414 . S
C2070 C2071 1.374 . S
C2071 H2051 0.950 . S
C2071 C2067 1.393 . S
C2071 C2070 1.374 . S
C2072 C2069 1.499 . S
C2072 C2073 1.373 . S
C2072 C2074 1.389 . S
C2073 H2052 0.950 . S
C2073 C2072 1.373 . S
C2073 C2089 1.377 . S
C2074 C2072 1.389 . S
C2074 C2075 1.524 . S
C2074 C2088 1.377 . S
C2075 C2074 1.524 . S
C2075 C2076 1.397 . S
C2075 C2080 1.363 . S
C2076 H2053 0.950 . S
C2076 C2075 1.397 . S
C2076 C2077 1.334 . S
C2077 H2054 0.950 . S
C2077 C2076 1.334 . S
C2077 C2078 1.287 . S
C2078 C2077 1.287 . S
C2078 C2079 1.524 . S
C2078 H2097 0.913 . S
C2079 H2055 0.950 . S
C2079 C2078 1.524 . S
C2079 C2080 1.415 . S
C2080 H2056 0.950 . S
C2080 C2075 1.363 . S
C2080 C2079 1.415 . S
C2081 H2057 0.951 . S
C2081 C2082 1.366 . S
C2081 C2083 1.388 . S
C2082 C2081 1.366 . S
C2082 C2086 1.385 . S
C2083 H2058 0.951 . S
C2083 C2081 1.388 . S
C2083 C2084 1.366 . S
C2084 C2083 1.366 . S
C2084 C2085 1.414 . S
C2084 C2087 1.499 . S
C2085 H2059 0.950 . S
C2085 C2084 1.414 . S
C2085 C2086 1.374 . S
C2086 H2060 0.950 . S
C2086 C2082 1.385 . S
C2086 C2085 1.374 . S
C2087 C2084 1.499 . S
C2087 C2088 1.373 . S
C2087 C2089 1.389 . S
C2088 H2061 0.950 . S
C2088 C2074 1.377 . S
C2088 C2087 1.373 . S
C2089 C2073 1.377 . S
C2089 C2087 1.389 . S
C2089 C2090 1.524 . S
C2090 C2089 1.524 . S
C2090 C2091 1.397 . S
C2090 C2095 1.363 . S
C2091 H2062 0.950 . S
C2091 C2090 1.397 . S
C2091 C2092 1.334 . S
C2092 H2063 0.950 . S
C2092 C2091 1.334 . S
C2092 C2093 1.287 . S
C2093 C2092 1.287 . S
C2093 C2094 1.524 . S
C2093 H2096 0.999 . S
C2094 H2064 0.950 . S
C2094 C2093 1.524 . S
C2094 C2095 1.415 . S
C2095 H2065 0.950 . S
C2095 C2090 1.363 . S
C2095 C2094 1.415 . S
H2096 C2093 0.999 . S
H2097 C2078 0.913 . S
H2098 C2116 0.951 . S
H2099 C2118 0.951 . S
H2100 C2120 0.950 . S
H2101 C2121 0.950 . S
H2102 C2123 0.950 . S
H2103 C2126 0.950 . S
H2104 C2127 0.950 . S
H2105 C2129 0.950 . S
H2106 C2130 0.950 . S
H2107 C2131 0.951 . S
H2108 C2133 0.951 . S
H2109 C2135 0.950 . S
H2110 C2136 0.950 . S
H2111 C2138 0.950 . S
H2112 C2141 0.950 . S
H2113 C2142 0.950 . S
H2114 C2144 0.950 . S
H2115 C2145 0.950 . S
C2116 H2098 0.951 . S
C2116 C2117 1.366 . S
C2116 C2118 1.388 . S
C2117 C2116 1.366 . S
C2117 C2121 1.385 . S
C2118 H2099 0.951 . S
C2118 C2116 1.388 . S
C2118 C2119 1.366 . S
C2119 C2118 1.366 . S
C2119 C2120 1.414 . S
C2119 C2122 1.499 . S
C2120 H2100 0.950 . S
C2120 C2119 1.414 . S
C2120 C2121 1.374 . S
C2121 H2101 0.950 . S
C2121 C2117 1.385 . S
C2121 C2120 1.374 . S
C2122 C2119 1.499 . S
C2122 C2123 1.373 . S
C2122 C2124 1.389 . S
C2123 H2102 0.950 . S
C2123 C2122 1.373 . S
C2123 C2139 1.377 . S
C2124 C2122 1.389 . S
C2124 C2125 1.524 . S
C2124 C2138 1.377 . S
C2125 C2124 1.524 . S
C2125 C2126 1.397 . S
C2125 C2130 1.363 . S
C2126 H2103 0.950 . S
C2126 C2125 1.397 . S
C2126 C2127 1.334 . S
C2127 H2104 0.950 . S
C2127 C2126 1.334 . S
C2127 C2128 1.287 . S
C2128 C2127 1.287 . S
C2128 C2129 1.524 . S
C2128 H2147 0.913 1_554 S
C2129 H2105 0.950 . S
C2129 C2128 1.524 . S
C2129 C2130 1.415 . S
C2130 H2106 0.950 . S
C2130 C2125 1.363 . S
C2130 C2129 1.415 . S
C2131 H2107 0.951 . S
C2131 C2132 1.366 . S
C2131 C2133 1.388 . S
C2132 C2131 1.366 . S
C2132 C2136 1.385 . S
C2133 H2108 0.951 . S
C2133 C2131 1.388 . S
C2133 C2134 1.366 . S
C2134 C2133 1.366 . S
C2134 C2135 1.414 . S
C2134 C2137 1.499 . S
C2135 H2109 0.950 . S
C2135 C2134 1.414 . S
C2135 C2136 1.374 . S
C2136 H2110 0.950 . S
C2136 C2132 1.385 . S
C2136 C2135 1.374 . S
C2137 C2134 1.499 . S
C2137 C2138 1.373 . S
C2137 C2139 1.389 . S
C2138 H2111 0.950 . S
C2138 C2124 1.377 . S
C2138 C2137 1.373 . S
C2139 C2123 1.377 . S
C2139 C2137 1.389 . S
C2139 C2140 1.524 . S
C2140 C2139 1.524 . S
C2140 C2141 1.397 . S
C2140 C2145 1.363 . S
C2141 H2112 0.950 . S
C2141 C2140 1.397 . S
C2141 C2142 1.334 . S
C2142 H2113 0.950 . S
C2142 C2141 1.334 . S
C2142 C2143 1.287 . S
C2143 C2142 1.287 . S
C2143 C2144 1.524 . S
C2143 H2146 0.999 . S
C2144 H2114 0.950 . S
C2144 C2143 1.524 . S
C2144 C2145 1.415 . S
C2145 H2115 0.950 . S
C2145 C2140 1.363 . S
C2145 C2144 1.415 . S
H2146 C2143 0.999 . S
H2147 C2128 0.913 1_556 S
H2148 C2166 0.951 . S
H2149 C2168 0.951 . S
H2150 C2170 0.950 . S
H2151 C2171 0.950 . S
H2152 C2173 0.950 . S
H2153 C2176 0.950 . S
H2154 C2177 0.950 . S
H2155 C2179 0.950 . S
H2156 C2180 0.950 . S
H2157 C2181 0.951 . S
H2158 C2183 0.951 . S
H2159 C2185 0.950 . S
H2160 C2186 0.950 . S
H2161 C2188 0.950 . S
H2162 C2191 0.950 . S
H2163 C2192 0.950 . S
H2164 C2194 0.950 . S
H2165 C2195 0.950 . S
C2166 H2148 0.951 . S
C2166 C2167 1.366 . S
C2166 C2168 1.388 . S
C2167 C2166 1.366 . S
C2167 C2171 1.385 . S
C2168 H2149 0.951 . S
C2168 C2166 1.388 . S
C2168 C2169 1.366 . S
C2169 C2168 1.366 . S
C2169 C2170 1.414 . S
C2169 C2172 1.499 . S
C2170 H2150 0.950 . S
C2170 C2169 1.414 . S
C2170 C2171 1.374 . S
C2171 H2151 0.950 . S
C2171 C2167 1.385 . S
C2171 C2170 1.374 . S
C2172 C2169 1.499 . S
C2172 C2173 1.373 . S
C2172 C2174 1.389 . S
C2173 H2152 0.950 . S
C2173 C2172 1.373 . S
C2173 C2189 1.377 . S
C2174 C2172 1.389 . S
C2174 C2175 1.524 . S
C2174 C2188 1.377 . S
C2175 C2174 1.524 . S
C2175 C2176 1.397 . S
C2175 C2180 1.363 . S
C2176 H2153 0.950 . S
C2176 C2175 1.397 . S
C2176 C2177 1.334 . S
C2177 H2154 0.950 . S
C2177 C2176 1.334 . S
C2177 C2178 1.287 . S
C2178 C2177 1.287 . S
C2178 C2179 1.524 . S
C2178 H2197 0.913 . S
C2179 H2155 0.950 . S
C2179 C2178 1.524 . S
C2179 C2180 1.415 . S
C2180 H2156 0.950 . S
C2180 C2175 1.363 . S
C2180 C2179 1.415 . S
C2181 H2157 0.951 . S
C2181 C2182 1.366 . S
C2181 C2183 1.388 . S
C2182 C2181 1.366 . S
C2182 C2186 1.385 . S
C2183 H2158 0.951 . S
C2183 C2181 1.388 . S
C2183 C2184 1.366 . S
C2184 C2183 1.366 . S
C2184 C2185 1.414 . S
C2184 C2187 1.499 . S
C2185 H2159 0.950 . S
C2185 C2184 1.414 . S
C2185 C2186 1.374 . S
C2186 H2160 0.950 . S
C2186 C2182 1.385 . S
C2186 C2185 1.374 . S
C2187 C2184 1.499 . S
C2187 C2188 1.373 . S
C2187 C2189 1.389 . S
C2188 H2161 0.950 . S
C2188 C2174 1.377 . S
C2188 C2187 1.373 . S
C2189 C2173 1.377 . S
C2189 C2187 1.389 . S
C2189 C2190 1.524 . S
C2190 C2189 1.524 . S
C2190 C2191 1.397 . S
C2190 C2195 1.363 . S
C2191 H2162 0.950 . S
C2191 C2190 1.397 . S
C2191 C2192 1.334 . S
C2192 H2163 0.950 . S
C2192 C2191 1.334 . S
C2192 C2193 1.287 . S
C2193 C2192 1.287 . S
C2193 C2194 1.524 . S
C2193 H2196 0.999 . S
C2194 H2164 0.950 . S
C2194 C2193 1.524 . S
C2194 C2195 1.415 . S
C2195 H2165 0.950 . S
C2195 C2190 1.363 . S
C2195 C2194 1.415 . S
H2196 C2193 0.999 . S
H2197 C2178 0.913 . S
H2198 C2216 0.951 . S
H2199 C2218 0.951 . S
H2200 C2220 0.950 . S
H2201 C2221 0.950 . S
H2202 C2223 0.950 . S
H2203 C2226 0.950 . S
H2204 C2227 0.950 . S
H2205 C2229 0.950 . S
H2206 C2230 0.950 . S
H2207 C2231 0.951 . S
H2208 C2233 0.951 . S
H2209 C2235 0.950 . S
H2210 C2236 0.950 . S
H2211 C2238 0.950 . S
H2212 C2241 0.950 . S
H2213 C2242 0.950 . S
H2214 C2244 0.950 . S
H2215 C2245 0.950 . S
C2216 H2198 0.951 . S
C2216 C2217 1.366 . S
C2216 C2218 1.388 . S
C2217 C2216 1.366 . S
C2217 C2221 1.385 . S
C2218 H2199 0.951 . S
C2218 C2216 1.388 . S
C2218 C2219 1.366 . S
C2219 C2218 1.366 . S
C2219 C2220 1.414 . S
C2219 C2222 1.499 . S
C2220 H2200 0.950 . S
C2220 C2219 1.414 . S
C2220 C2221 1.374 . S
C2221 H2201 0.950 . S
C2221 C2217 1.385 . S
C2221 C2220 1.374 . S
C2222 C2219 1.499 . S
C2222 C2223 1.373 . S
C2222 C2224 1.389 . S
C2223 H2202 0.950 . S
C2223 C2222 1.373 . S
C2223 C2239 1.377 . S
C2224 C2222 1.389 . S
C2224 C2225 1.524 . S
C2224 C2238 1.377 . S
C2225 C2224 1.524 . S
C2225 C2226 1.397 . S
C2225 C2230 1.363 . S
C2226 H2203 0.950 . S
C2226 C2225 1.397 . S
C2226 C2227 1.334 . S
C2227 H2204 0.950 . S
C2227 C2226 1.334 . S
C2227 C2228 1.287 . S
C2228 C2227 1.287 . S
C2228 C2229 1.524 . S
C2228 H2247 0.913 . S
C2229 H2205 0.950 . S
C2229 C2228 1.524 . S
C2229 C2230 1.415 . S
C2230 H2206 0.950 . S
C2230 C2225 1.363 . S
C2230 C2229 1.415 . S
C2231 H2207 0.951 . S
C2231 C2232 1.366 . S
C2231 C2233 1.388 . S
C2232 C2231 1.366 . S
C2232 C2236 1.385 . S
C2233 H2208 0.951 . S
C2233 C2231 1.388 . S
C2233 C2234 1.366 . S
C2234 C2233 1.366 . S
C2234 C2235 1.414 . S
C2234 C2237 1.499 . S
C2235 H2209 0.950 . S
C2235 C2234 1.414 . S
C2235 C2236 1.374 . S
C2236 H2210 0.950 . S
C2236 C2232 1.385 . S
C2236 C2235 1.374 . S
C2237 C2234 1.499 . S
C2237 C2238 1.373 . S
C2237 C2239 1.389 . S
C2238 H2211 0.950 . S
C2238 C2224 1.377 . S
C2238 C2237 1.373 . S
C2239 C2223 1.377 . S
C2239 C2237 1.389 . S
C2239 C2240 1.524 . S
C2240 C2239 1.524 . S
C2240 C2241 1.397 . S
C2240 C2245 1.363 . S
C2241 H2212 0.950 . S
C2241 C2240 1.397 . S
C2241 C2242 1.334 . S
C2242 H2213 0.950 . S
C2242 C2241 1.334 . S
C2242 C2243 1.287 . S
C2243 C2242 1.287 . S
C2243 C2244 1.524 . S
C2243 H2246 0.999 . S
C2244 H2214 0.950 . S
C2244 C2243 1.524 . S
C2244 C2245 1.415 . S
C2245 H2215 0.950 . S
C2245 C2240 1.363 . S
C2245 C2244 1.415 . S
H2246 C2243 0.999 . S
H2247 C2228 0.913 . S
H2248 C2266 0.951 . S
H2249 C2268 0.951 . S
H2250 C2270 0.950 . S
H2251 C2271 0.950 . S
H2252 C2273 0.950 . S
H2253 C2276 0.950 . S
H2254 C2277 0.950 . S
H2255 C2279 0.950 . S
H2256 C2280 0.950 . S
H2257 C2281 0.951 . S
H2258 C2283 0.951 . S
H2259 C2285 0.950 . S
H2260 C2286 0.950 . S
H2261 C2288 0.950 . S
H2262 C2291 0.950 . S
H2263 C2292 0.950 . S
H2264 C2294 0.950 . S
H2265 C2295 0.950 . S
C2266 H2248 0.951 . S
C2266 C2267 1.366 . S
C2266 C2268 1.388 . S
C2267 C2266 1.366 . S
C2267 C2271 1.385 . S
C2268 H2249 0.951 . S
C2268 C2266 1.388 . S
C2268 C2269 1.366 . S
C2269 C2268 1.366 . S
C2269 C2270 1.414 . S
C2269 C2272 1.499 . S
C2270 H2250 0.950 . S
C2270 C2269 1.414 . S
C2270 C2271 1.374 . S
C2271 H2251 0.950 . S
C2271 C2267 1.385 . S
C2271 C2270 1.374 . S
C2272 C2269 1.499 . S
C2272 C2273 1.373 . S
C2272 C2274 1.389 . S
C2273 H2252 0.950 . S
C2273 C2272 1.373 . S
C2273 C2289 1.377 . S
C2274 C2272 1.389 . S
C2274 C2275 1.524 . S
C2274 C2288 1.377 . S
C2275 C2274 1.524 . S
C2275 C2276 1.397 . S
C2275 C2280 1.363 . S
C2276 H2253 0.950 . S
C2276 C2275 1.397 . S
C2276 C2277 1.334 . S
C2277 H2254 0.950 . S
C2277 C2276 1.334 . S
C2277 C2278 1.287 . S
C2278 C2277 1.287 . S
C2278 C2279 1.524 . S
C2278 H2297 0.913 . S
C2279 H2255 0.950 . S
C2279 C2278 1.524 . S
C2279 C2280 1.415 . S
C2280 H2256 0.950 . S
C2280 C2275 1.363 . S
C2280 C2279 1.415 . S
C2281 H2257 0.951 . S
C2281 C2282 1.366 . S
C2281 C2283 1.388 . S
C2282 C2281 1.366 . S
C2282 C2286 1.385 . S
C2283 H2258 0.951 . S
C2283 C2281 1.388 . S
C2283 C2284 1.366 . S
C2284 C2283 1.366 . S
C2284 C2285 1.414 . S
C2284 C2287 1.499 . S
C2285 H2259 0.950 . S
C2285 C2284 1.414 . S
C2285 C2286 1.374 . S
C2286 H2260 0.950 . S
C2286 C2282 1.385 . S
C2286 C2285 1.374 . S
C2287 C2284 1.499 . S
C2287 C2288 1.373 . S
C2287 C2289 1.389 . S
C2288 H2261 0.950 . S
C2288 C2274 1.377 . S
C2288 C2287 1.373 . S
C2289 C2273 1.377 . S
C2289 C2287 1.389 . S
C2289 C2290 1.524 . S
C2290 C2289 1.524 . S
C2290 C2291 1.397 . S
C2290 C2295 1.363 . S
C2291 H2262 0.950 . S
C2291 C2290 1.397 . S
C2291 C2292 1.334 . S
C2292 H2263 0.950 . S
C2292 C2291 1.334 . S
C2292 C2293 1.287 . S
C2293 C2292 1.287 . S
C2293 C2294 1.524 . S
C2293 H2296 0.999 . S
C2294 H2264 0.950 . S
C2294 C2293 1.524 . S
C2294 C2295 1.415 . S
C2295 H2265 0.950 . S
C2295 C2290 1.363 . S
C2295 C2294 1.415 . S
H2296 C2293 0.999 . S
H2297 C2278 0.913 . S
H2298 C2316 0.951 . S
H2299 C2318 0.951 . S
H2300 C2320 0.950 . S
H2301 C2321 0.950 . S
H2302 C2323 0.950 . S
H2303 C2326 0.950 . S
H2304 C2327 0.950 . S
H2305 C2329 0.950 . S
H2306 C2330 0.950 . S
H2307 C2331 0.951 . S
H2308 C2333 0.951 . S
H2309 C2335 0.950 . S
H2310 C2336 0.950 . S
H2311 C2338 0.950 . S
H2312 C2341 0.950 . S
H2313 C2342 0.950 . S
H2314 C2344 0.950 . S
H2315 C2345 0.950 . S
C2316 H2298 0.951 . S
C2316 C2317 1.366 . S
C2316 C2318 1.388 . S
C2317 C2316 1.366 . S
C2317 C2321 1.385 . S
C2318 H2299 0.951 . S
C2318 C2316 1.388 . S
C2318 C2319 1.366 . S
C2319 C2318 1.366 . S
C2319 C2320 1.414 . S
C2319 C2322 1.499 . S
C2320 H2300 0.950 . S
C2320 C2319 1.414 . S
C2320 C2321 1.374 . S
C2321 H2301 0.950 . S
C2321 C2317 1.385 . S
C2321 C2320 1.374 . S
C2322 C2319 1.499 . S
C2322 C2323 1.373 . S
C2322 C2324 1.389 . S
C2323 H2302 0.950 . S
C2323 C2322 1.373 . S
C2323 C2339 1.377 . S
C2324 C2322 1.389 . S
C2324 C2325 1.524 . S
C2324 C2338 1.377 . S
C2325 C2324 1.524 . S
C2325 C2326 1.397 . S
C2325 C2330 1.363 . S
C2326 H2303 0.950 . S
C2326 C2325 1.397 . S
C2326 C2327 1.334 . S
C2327 H2304 0.950 . S
C2327 C2326 1.334 . S
C2327 C2328 1.287 . S
C2328 C2327 1.287 . S
C2328 C2329 1.524 . S
C2328 H2347 0.913 . S
C2329 H2305 0.950 . S
C2329 C2328 1.524 . S
C2329 C2330 1.415 . S
C2330 H2306 0.950 . S
C2330 C2325 1.363 . S
C2330 C2329 1.415 . S
C2331 H2307 0.951 . S
C2331 C2332 1.366 . S
C2331 C2333 1.388 . S
C2332 C2331 1.366 . S
C2332 C2336 1.385 . S
C2333 H2308 0.951 . S
C2333 C2331 1.388 . S
C2333 C2334 1.366 . S
C2334 C2333 1.366 . S
C2334 C2335 1.414 . S
C2334 C2337 1.499 . S
C2335 H2309 0.950 . S
C2335 C2334 1.414 . S
C2335 C2336 1.374 . S
C2336 H2310 0.950 . S
C2336 C2332 1.385 . S
C2336 C2335 1.374 . S
C2337 C2334 1.499 . S
C2337 C2338 1.373 . S
C2337 C2339 1.389 . S
C2338 H2311 0.950 . S
C2338 C2324 1.377 . S
C2338 C2337 1.373 . S
C2339 C2323 1.377 . S
C2339 C2337 1.389 . S
C2339 C2340 1.524 . S
C2340 C2339 1.524 . S
C2340 C2341 1.397 . S
C2340 C2345 1.363 . S
C2341 H2312 0.950 . S
C2341 C2340 1.397 . S
C2341 C2342 1.334 . S
C2342 H2313 0.950 . S
C2342 C2341 1.334 . S
C2342 C2343 1.287 . S
C2343 C2342 1.287 . S
C2343 C2344 1.524 . S
C2343 H2346 0.999 . S
C2344 H2314 0.950 . S
C2344 C2343 1.524 . S
C2344 C2345 1.415 . S
C2345 H2315 0.950 . S
C2345 C2340 1.363 . S
C2345 C2344 1.415 . S
H2346 C2343 0.999 . S
H2347 C2328 0.913 . S
H2348 C2366 0.951 . S
H2349 C2368 0.951 . S
H2350 C2370 0.950 . S
H2351 C2371 0.950 . S
H2352 C2373 0.950 . S
H2353 C2376 0.950 . S
H2354 C2377 0.950 . S
H2355 C2379 0.950 . S
H2356 C2380 0.950 . S
H2357 C2381 0.951 . S
H2358 C2383 0.951 . S
H2359 C2385 0.950 . S
H2360 C2386 0.950 . S
H2361 C2388 0.950 . S
H2362 C2391 0.950 . S
H2363 C2392 0.950 . S
H2364 C2394 0.950 . S
H2365 C2395 0.950 . S
C2366 H2348 0.951 . S
C2366 C2367 1.366 . S
C2366 C2368 1.388 . S
C2367 C2366 1.366 . S
C2367 C2371 1.385 . S
C2368 H2349 0.951 . S
C2368 C2366 1.388 . S
C2368 C2369 1.366 . S
C2369 C2368 1.366 . S
C2369 C2370 1.414 . S
C2369 C2372 1.499 . S
C2370 H2350 0.950 . S
C2370 C2369 1.414 . S
C2370 C2371 1.374 . S
C2371 H2351 0.950 . S
C2371 C2367 1.385 . S
C2371 C2370 1.374 . S
C2372 C2369 1.499 . S
C2372 C2373 1.373 . S
C2372 C2374 1.389 . S
C2373 H2352 0.950 . S
C2373 C2372 1.373 . S
C2373 C2389 1.377 . S
C2374 C2372 1.389 . S
C2374 C2375 1.524 . S
C2374 C2388 1.377 . S
C2375 C2374 1.524 . S
C2375 C2376 1.397 . S
C2375 C2380 1.363 . S
C2376 H2353 0.950 . S
C2376 C2375 1.397 . S
C2376 C2377 1.334 . S
C2377 H2354 0.950 . S
C2377 C2376 1.334 . S
C2377 C2378 1.287 . S
C2378 C2377 1.287 . S
C2378 C2379 1.524 . S
C2378 H2397 0.913 . S
C2379 H2355 0.950 . S
C2379 C2378 1.524 . S
C2379 C2380 1.415 . S
C2380 H2356 0.950 . S
C2380 C2375 1.363 . S
C2380 C2379 1.415 . S
C2381 H2357 0.951 . S
C2381 C2382 1.366 . S
C2381 C2383 1.388 . S
C2382 C2381 1.366 . S
C2382 C2386 1.385 . S
C2383 H2358 0.951 . S
C2383 C2381 1.388 . S
C2383 C2384 1.366 . S
C2384 C2383 1.366 . S
C2384 C2385 1.414 . S
C2384 C2387 1.499 . S
C2385 H2359 0.950 . S
C2385 C2384 1.414 . S
C2385 C2386 1.374 . S
C2386 H2360 0.950 . S
C2386 C2382 1.385 . S
C2386 C2385 1.374 . S
C2387 C2384 1.499 . S
C2387 C2388 1.373 . S
C2387 C2389 1.389 . S
C2388 H2361 0.950 . S
C2388 C2374 1.377 . S
C2388 C2387 1.373 . S
C2389 C2373 1.377 . S
C2389 C2387 1.389 . S
C2389 C2390 1.524 . S
C2390 C2389 1.524 . S
C2390 C2391 1.397 . S
C2390 C2395 1.363 . S
C2391 H2362 0.950 . S
C2391 C2390 1.397 . S
C2391 C2392 1.334 . S
C2392 H2363 0.950 . S
C2392 C2391 1.334 . S
C2392 C2393 1.287 . S
C2393 C2392 1.287 . S
C2393 C2394 1.524 . S
C2393 H2396 0.999 . S
C2394 H2364 0.950 . S
C2394 C2393 1.524 . S
C2394 C2395 1.415 . S
C2395 H2365 0.950 . S
C2395 C2390 1.363 . S
C2395 C2394 1.415 . S
H2396 C2393 0.999 . S
H2397 C2378 0.913 . S
H2398 C2416 0.951 . S
H2399 C2418 0.951 . S
H2400 C2420 0.950 . S
H2401 C2421 0.950 . S
H2402 C2423 0.950 . S
H2403 C2426 0.950 . S
H2404 C2427 0.950 . S
H2405 C2429 0.950 . S
H2406 C2430 0.950 . S
H2407 C2431 0.951 . S
H2408 C2433 0.951 . S
H2409 C2435 0.950 . S
H2410 C2436 0.950 . S
H2411 C2438 0.950 . S
H2412 C2441 0.950 . S
H2413 C2442 0.950 . S
H2414 C2444 0.950 . S
H2415 C2445 0.950 . S
C2416 H2398 0.951 . S
C2416 C2417 1.366 . S
C2416 C2418 1.388 . S
C2417 C2416 1.366 . S
C2417 C2421 1.385 . S
C2418 H2399 0.951 . S
C2418 C2416 1.388 . S
C2418 C2419 1.366 . S
C2419 C2418 1.366 . S
C2419 C2420 1.414 . S
C2419 C2422 1.499 . S
C2420 H2400 0.950 . S
C2420 C2419 1.414 . S
C2420 C2421 1.374 . S
C2421 H2401 0.950 . S
C2421 C2417 1.385 . S
C2421 C2420 1.374 . S
C2422 C2419 1.499 . S
C2422 C2423 1.373 . S
C2422 C2424 1.389 . S
C2423 H2402 0.950 . S
C2423 C2422 1.373 . S
C2423 C2439 1.377 . S
C2424 C2422 1.389 . S
C2424 C2425 1.524 . S
C2424 C2438 1.377 . S
C2425 C2424 1.524 . S
C2425 C2426 1.397 . S
C2425 C2430 1.363 . S
C2426 H2403 0.950 . S
C2426 C2425 1.397 . S
C2426 C2427 1.334 . S
C2427 H2404 0.950 . S
C2427 C2426 1.334 . S
C2427 C2428 1.287 . S
C2428 C2427 1.287 . S
C2428 C2429 1.524 . S
C2428 H2447 0.913 . S
C2429 H2405 0.950 . S
C2429 C2428 1.524 . S
C2429 C2430 1.415 . S
C2430 H2406 0.950 . S
C2430 C2425 1.363 . S
C2430 C2429 1.415 . S
C2431 H2407 0.951 . S
C2431 C2432 1.366 . S
C2431 C2433 1.388 . S
C2432 C2431 1.366 . S
C2432 C2436 1.385 . S
C2433 H2408 0.951 . S
C2433 C2431 1.388 . S
C2433 C2434 1.366 . S
C2434 C2433 1.366 . S
C2434 C2435 1.414 . S
C2434 C2437 1.499 . S
C2435 H2409 0.950 . S
C2435 C2434 1.414 . S
C2435 C2436 1.374 . S
C2436 H2410 0.950 . S
C2436 C2432 1.385 . S
C2436 C2435 1.374 . S
C2437 C2434 1.499 . S
C2437 C2438 1.373 . S
C2437 C2439 1.389 . S
C2438 H2411 0.950 . S
C2438 C2424 1.377 . S
C2438 C2437 1.373 . S
C2439 C2423 1.377 . S
C2439 C2437 1.389 . S
C2439 C2440 1.524 . S
C2440 C2439 1.524 . S
C2440 C2441 1.397 . S
C2440 C2445 1.363 . S
C2441 H2412 0.950 . S
C2441 C2440 1.397 . S
C2441 C2442 1.334 . S
C2442 H2413 0.950 . S
C2442 C2441 1.334 . S
C2442 C2443 1.287 . S
C2443 C2442 1.287 . S
C2443 C2444 1.524 . S
C2443 H2446 0.999 . S
C2444 H2414 0.950 . S
C2444 C2443 1.524 . S
C2444 C2445 1.415 . S
C2445 H2415 0.950 . S
C2445 C2440 1.363 . S
C2445 C2444 1.415 . S
H2446 C2443 0.999 . S
H2447 C2428 0.913 . S
H2448 C2466 0.951 . S
H2449 C2468 0.951 . S
H2450 C2470 0.950 . S
H2451 C2471 0.950 . S
H2452 C2473 0.950 . S
H2453 C2476 0.950 . S
H2454 C2477 0.950 . S
H2455 C2479 0.950 . S
H2456 C2480 0.950 . S
H2457 C2481 0.951 . S
H2458 C2483 0.951 . S
H2459 C2485 0.950 . S
H2460 C2486 0.950 . S
H2461 C2488 0.950 . S
H2462 C2491 0.950 . S
H2463 C2492 0.950 . S
H2464 C2494 0.950 . S
H2465 C2495 0.950 . S
C2466 H2448 0.951 . S
C2466 C2467 1.366 . S
C2466 C2468 1.388 . S
C2467 C2466 1.366 . S
C2467 C2471 1.385 . S
C2468 H2449 0.951 . S
C2468 C2466 1.388 . S
C2468 C2469 1.366 . S
C2469 C2468 1.366 . S
C2469 C2470 1.414 . S
C2469 C2472 1.499 . S
C2470 H2450 0.950 . S
C2470 C2469 1.414 . S
C2470 C2471 1.374 . S
C2471 H2451 0.950 . S
C2471 C2467 1.385 . S
C2471 C2470 1.374 . S
C2472 C2469 1.499 . S
C2472 C2473 1.373 . S
C2472 C2474 1.389 . S
C2473 H2452 0.950 . S
C2473 C2472 1.373 . S
C2473 C2489 1.377 . S
C2474 C2472 1.389 . S
C2474 C2475 1.524 . S
C2474 C2488 1.377 . S
C2475 C2474 1.524 . S
C2475 C2476 1.397 . S
C2475 C2480 1.363 . S
C2476 H2453 0.950 . S
C2476 C2475 1.397 . S
C2476 C2477 1.334 . S
C2477 H2454 0.950 . S
C2477 C2476 1.334 . S
C2477 C2478 1.287 . S
C2478 C2477 1.287 . S
C2478 C2479 1.524 . S
C2478 H2497 0.913 . S
C2479 H2455 0.950 . S
C2479 C2478 1.524 . S
C2479 C2480 1.415 . S
C2480 H2456 0.950 . S
C2480 C2475 1.363 . S
C2480 C2479 1.415 . S
C2481 H2457 0.951 . S
C2481 C2482 1.366 . S
C2481 C2483 1.388 . S
C2482 C2481 1.366 . S
C2482 C2486 1.385 . S
C2483 H2458 0.951 . S
C2483 C2481 1.388 . S
C2483 C2484 1.366 . S
C2484 C2483 1.366 . S
C2484 C2485 1.414 . S
C2484 C2487 1.499 . S
C2485 H2459 0.950 . S
C2485 C2484 1.414 . S
C2485 C2486 1.374 . S
C2486 H2460 0.950 . S
C2486 C2482 1.385 . S
C2486 C2485 1.374 . S
C2487 C2484 1.499 . S
C2487 C2488 1.373 . S
C2487 C2489 1.389 . S
C2488 H2461 0.950 . S
C2488 C2474 1.377 . S
C2488 C2487 1.373 . S
C2489 C2473 1.377 . S
C2489 C2487 1.389 . S
C2489 C2490 1.524 . S
C2490 C2489 1.524 . S
C2490 C2491 1.397 . S
C2490 C2495 1.363 . S
C2491 H2462 0.950 . S
C2491 C2490 1.397 . S
C2491 C2492 1.334 . S
C2492 H2463 0.950 . S
C2492 C2491 1.334 . S
C2492 C2493 1.287 . S
C2493 C2492 1.287 . S
C2493 C2494 1.524 . S
C2493 H2496 0.999 . S
C2494 H2464 0.950 . S
C2494 C2493 1.524 . S
C2494 C2495 1.415 . S
C2495 H2465 0.950 . S
C2495 C2490 1.363 . S
C2495 C2494 1.415 . S
H2496 C2493 0.999 . S
H2497 C2478 0.913 . S
H2498 C2516 0.951 . S
H2499 C2518 0.951 . S
H2500 C2520 0.950 . S
H2501 C2521 0.950 . S
H2502 C2523 0.950 . S
H2503 C2526 0.950 . S
H2504 C2527 0.950 . S
H2505 C2529 0.950 . S
H2506 C2530 0.950 . S
H2507 C2531 0.951 . S
H2508 C2533 0.951 . S
H2509 C2535 0.950 . S
H2510 C2536 0.950 . S
H2511 C2538 0.950 . S
H2512 C2541 0.950 . S
H2513 C2542 0.950 . S
H2514 C2544 0.950 . S
H2515 C2545 0.950 . S
C2516 H2498 0.951 . S
C2516 C2517 1.366 . S
C2516 C2518 1.388 . S
C2517 C2516 1.366 . S
C2517 C2521 1.385 . S
C2518 H2499 0.951 . S
C2518 C2516 1.388 . S
C2518 C2519 1.366 . S
C2519 C2518 1.366 . S
C2519 C2520 1.414 . S
C2519 C2522 1.499 . S
C2520 H2500 0.950 . S
C2520 C2519 1.414 . S
C2520 C2521 1.374 . S
C2521 H2501 0.950 . S
C2521 C2517 1.385 . S
C2521 C2520 1.374 . S
C2522 C2519 1.499 . S
C2522 C2523 1.373 . S
C2522 C2524 1.389 . S
C2523 H2502 0.950 . S
C2523 C2522 1.373 . S
C2523 C2539 1.377 . S
C2524 C2522 1.389 . S
C2524 C2525 1.524 . S
C2524 C2538 1.377 . S
C2525 C2524 1.524 . S
C2525 C2526 1.397 . S
C2525 C2530 1.363 . S
C2526 H2503 0.950 . S
C2526 C2525 1.397 . S
C2526 C2527 1.334 . S
C2527 H2504 0.950 . S
C2527 C2526 1.334 . S
C2527 C2528 1.287 . S
C2528 C2527 1.287 . S
C2528 C2529 1.524 . S
C2528 H2547 0.913 . S
C2529 H2505 0.950 . S
C2529 C2528 1.524 . S
C2529 C2530 1.415 . S
C2530 H2506 0.950 . S
C2530 C2525 1.363 . S
C2530 C2529 1.415 . S
C2531 H2507 0.951 . S
C2531 C2532 1.366 . S
C2531 C2533 1.388 . S
C2532 C2531 1.366 . S
C2532 C2536 1.385 . S
C2533 H2508 0.951 . S
C2533 C2531 1.388 . S
C2533 C2534 1.366 . S
C2534 C2533 1.366 . S
C2534 C2535 1.414 . S
C2534 C2537 1.499 . S
C2535 H2509 0.950 . S
C2535 C2534 1.414 . S
C2535 C2536 1.374 . S
C2536 H2510 0.950 . S
C2536 C2532 1.385 . S
C2536 C2535 1.374 . S
C2537 C2534 1.499 . S
C2537 C2538 1.373 . S
C2537 C2539 1.389 . S
C2538 H2511 0.950 . S
C2538 C2524 1.377 . S
C2538 C2537 1.373 . S
C2539 C2523 1.377 . S
C2539 C2537 1.389 . S
C2539 C2540 1.524 . S
C2540 C2539 1.524 . S
C2540 C2541 1.397 . S
C2540 C2545 1.363 . S
C2541 H2512 0.950 . S
C2541 C2540 1.397 . S
C2541 C2542 1.334 . S
C2542 H2513 0.950 . S
C2542 C2541 1.334 . S
C2542 C2543 1.287 . S
C2543 C2542 1.287 . S
C2543 C2544 1.524 . S
C2543 H2546 0.999 . S
C2544 H2514 0.950 . S
C2544 C2543 1.524 . S
C2544 C2545 1.415 . S
C2545 H2515 0.950 . S
C2545 C2540 1.363 . S
C2545 C2544 1.415 . S
H2546 C2543 0.999 . S
H2547 C2528 0.913 . S
H2548 C2566 0.951 . S
H2549 C2568 0.951 . S
H2550 C2570 0.950 . S
H2551 C2571 0.950 . S
H2552 C2573 0.950 . S
H2553 C2576 0.950 . S
H2554 C2577 0.950 . S
H2555 C2579 0.950 . S
H2556 C2580 0.950 . S
H2557 C2581 0.951 . S
H2558 C2583 0.951 . S
H2559 C2585 0.950 . S
H2560 C2586 0.950 . S
H2561 C2588 0.950 . S
H2562 C2591 0.950 . S
H2563 C2592 0.950 . S
H2564 C2594 0.950 . S
H2565 C2595 0.950 . S
C2566 H2548 0.951 . S
C2566 C2567 1.366 . S
C2566 C2568 1.388 . S
C2567 C2566 1.366 . S
C2567 C2571 1.385 . S
C2568 H2549 0.951 . S
C2568 C2566 1.388 . S
C2568 C2569 1.366 . S
C2569 C2568 1.366 . S
C2569 C2570 1.414 . S
C2569 C2572 1.499 . S
C2570 H2550 0.950 . S
C2570 C2569 1.414 . S
C2570 C2571 1.374 . S
C2571 H2551 0.950 . S
C2571 C2567 1.385 . S
C2571 C2570 1.374 . S
C2572 C2569 1.499 . S
C2572 C2573 1.373 . S
C2572 C2574 1.389 . S
C2573 H2552 0.950 . S
C2573 C2572 1.373 . S
C2573 C2589 1.377 . S
C2574 C2572 1.389 . S
C2574 C2575 1.524 . S
C2574 C2588 1.377 . S
C2575 C2574 1.524 . S
C2575 C2576 1.397 . S
C2575 C2580 1.363 . S
C2576 H2553 0.950 . S
C2576 C2575 1.397 . S
C2576 C2577 1.334 . S
C2577 H2554 0.950 . S
C2577 C2576 1.334 . S
C2577 C2578 1.287 . S
C2578 C2577 1.287 . S
C2578 C2579 1.524 . S
C2578 H2597 0.913 . S
C2579 H2555 0.950 . S
C2579 C2578 1.524 . S
C2579 C2580 1.415 . S
C2580 H2556 0.950 . S
C2580 C2575 1.363 . S
C2580 C2579 1.415 . S
C2581 H2557 0.951 . S
C2581 C2582 1.366 . S
C2581 C2583 1.388 . S
C2582 C2581 1.366 . S
C2582 C2586 1.385 . S
C2583 H2558 0.951 . S
C2583 C2581 1.388 . S
C2583 C2584 1.366 . S
C2584 C2583 1.366 . S
C2584 C2585 1.414 . S
C2584 C2587 1.499 . S
C2585 H2559 0.950 . S
C2585 C2584 1.414 . S
C2585 C2586 1.374 . S
C2586 H2560 0.950 . S
C2586 C2582 1.385 . S
C2586 C2585 1.374 . S
C2587 C2584 1.499 . S
C2587 C2588 1.373 . S
C2587 C2589 1.389 . S
C2588 H2561 0.950 . S
C2588 C2574 1.377 . S
C2588 C2587 1.373 . S
C2589 C2573 1.377 . S
C2589 C2587 1.389 . S
C2589 C2590 1.524 . S
C2590 C2589 1.524 . S
C2590 C2591 1.397 . S
C2590 C2595 1.363 . S
C2591 H2562 0.950 . S
C2591 C2590 1.397 . S
C2591 C2592 1.334 . S
C2592 H2563 0.950 . S
C2592 C2591 1.334 . S
C2592 C2593 1.287 . S
C2593 C2592 1.287 . S
C2593 C2594 1.524 . S
C2593 H2596 0.999 . S
C2594 H2564 0.950 . S
C2594 C2593 1.524 . S
C2594 C2595 1.415 . S
C2595 H2565 0.950 . S
C2595 C2590 1.363 . S
C2595 C2594 1.415 . S
H2596 C2593 0.999 . S
H2597 C2578 0.913 . S
H2598 C2616 0.951 . S
H2599 C2618 0.951 . S
H2600 C2620 0.950 . S
H2601 C2621 0.950 . S
H2602 C2623 0.950 . S
H2603 C2626 0.950 . S
H2604 C2627 0.950 . S
H2605 C2629 0.950 . S
H2606 C2630 0.950 . S
H2607 C2631 0.951 . S
H2608 C2633 0.951 . S
H2609 C2635 0.950 . S
H2610 C2636 0.950 . S
H2611 C2638 0.950 . S
H2612 C2641 0.950 . S
H2613 C2642 0.950 . S
H2614 C2644 0.950 . S
H2615 C2645 0.950 . S
C2616 H2598 0.951 . S
C2616 C2617 1.366 . S
C2616 C2618 1.388 . S
C2617 C2616 1.366 . S
C2617 C2621 1.385 . S
C2618 H2599 0.951 . S
C2618 C2616 1.388 . S
C2618 C2619 1.366 . S
C2619 C2618 1.366 . S
C2619 C2620 1.414 . S
C2619 C2622 1.499 . S
C2620 H2600 0.950 . S
C2620 C2619 1.414 . S
C2620 C2621 1.374 . S
C2621 H2601 0.950 . S
C2621 C2617 1.385 . S
C2621 C2620 1.374 . S
C2622 C2619 1.499 . S
C2622 C2623 1.373 . S
C2622 C2624 1.389 . S
C2623 H2602 0.950 . S
C2623 C2622 1.373 . S
C2623 C2639 1.377 . S
C2624 C2622 1.389 . S
C2624 C2625 1.524 . S
C2624 C2638 1.377 . S
C2625 C2624 1.524 . S
C2625 C2626 1.397 . S
C2625 C2630 1.363 . S
C2626 H2603 0.950 . S
C2626 C2625 1.397 . S
C2626 C2627 1.334 . S
C2627 H2604 0.950 . S
C2627 C2626 1.334 . S
C2627 C2628 1.287 . S
C2628 C2627 1.287 . S
C2628 C2629 1.524 . S
C2628 H2647 0.913 . S
C2629 H2605 0.950 . S
C2629 C2628 1.524 . S
C2629 C2630 1.415 . S
C2630 H2606 0.950 . S
C2630 C2625 1.363 . S
C2630 C2629 1.415 . S
C2631 H2607 0.951 . S
C2631 C2632 1.366 . S
C2631 C2633 1.388 . S
C2632 C2631 1.366 . S
C2632 C2636 1.385 . S
C2633 H2608 0.951 . S
C2633 C2631 1.388 . S
C2633 C2634 1.366 . S
C2634 C2633 1.366 . S
C2634 C2635 1.414 . S
C2634 C2637 1.499 . S
C2635 H2609 0.950 . S
C2635 C2634 1.414 . S
C2635 C2636 1.374 . S
C2636 H2610 0.950 . S
C2636 C2632 1.385 . S
C2636 C2635 1.374 . S
C2637 C2634 1.499 . S
C2637 C2638 1.373 . S
C2637 C2639 1.389 . S
C2638 H2611 0.950 . S
C2638 C2624 1.377 . S
C2638 C2637 1.373 . S
C2639 C2623 1.377 . S
C2639 C2637 1.389 . S
C2639 C2640 1.524 . S
C2640 C2639 1.524 . S
C2640 C2641 1.397 . S
C2640 C2645 1.363 . S
C2641 H2612 0.950 . S
C2641 C2640 1.397 . S
C2641 C2642 1.334 . S
C2642 H2613 0.950 . S
C2642 C2641 1.334 . S
C2642 C2643 1.287 . S
C2643 C2642 1.287 . S
C2643 C2644 1.524 . S
C2643 H2646 0.999 . S
C2644 H2614 0.950 . S
C2644 C2643 1.524 . S
C2644 C2645 1.415 . S
C2645 H2615 0.950 . S
C2645 C2640 1.363 . S
C2645 C2644 1.415 . S
H2646 C2643 0.999 . S
H2647 C2628 0.913 . S
H2648 C2666 0.951 . S
H2649 C2668 0.951 . S
H2650 C2670 0.950 . S
H2651 C2671 0.950 . S
H2652 C2673 0.950 . S
H2653 C2676 0.950 . S
H2654 C2677 0.950 . S
H2655 C2679 0.950 . S
H2656 C2680 0.950 . S
H2657 C2681 0.951 . S
H2658 C2683 0.951 . S
H2659 C2685 0.950 . S
H2660 C2686 0.950 . S
H2661 C2688 0.950 . S
H2662 C2691 0.950 . S
H2663 C2692 0.950 . S
H2664 C2694 0.950 . S
H2665 C2695 0.950 . S
C2666 H2648 0.951 . S
C2666 C2667 1.366 . S
C2666 C2668 1.388 . S
C2667 C2666 1.366 . S
C2667 C2671 1.385 . S
C2668 H2649 0.951 . S
C2668 C2666 1.388 . S
C2668 C2669 1.366 . S
C2669 C2668 1.366 . S
C2669 C2670 1.414 . S
C2669 C2672 1.499 . S
C2670 H2650 0.950 . S
C2670 C2669 1.414 . S
C2670 C2671 1.374 . S
C2671 H2651 0.950 . S
C2671 C2667 1.385 . S
C2671 C2670 1.374 . S
C2672 C2669 1.499 . S
C2672 C2673 1.373 . S
C2672 C2674 1.389 . S
C2673 H2652 0.950 . S
C2673 C2672 1.373 . S
C2673 C2689 1.377 . S
C2674 C2672 1.389 . S
C2674 C2675 1.524 . S
C2674 C2688 1.377 . S
C2675 C2674 1.524 . S
C2675 C2676 1.397 . S
C2675 C2680 1.363 . S
C2676 H2653 0.950 . S
C2676 C2675 1.397 . S
C2676 C2677 1.334 . S
C2677 H2654 0.950 . S
C2677 C2676 1.334 . S
C2677 C2678 1.287 . S
C2678 C2677 1.287 . S
C2678 C2679 1.524 . S
C2678 H2697 0.913 . S
C2679 H2655 0.950 . S
C2679 C2678 1.524 . S
C2679 C2680 1.415 . S
C2680 H2656 0.950 . S
C2680 C2675 1.363 . S
C2680 C2679 1.415 . S
C2681 H2657 0.951 . S
C2681 C2682 1.366 . S
C2681 C2683 1.388 . S
C2682 C2681 1.366 . S
C2682 C2686 1.385 . S
C2683 H2658 0.951 . S
C2683 C2681 1.388 . S
C2683 C2684 1.366 . S
C2684 C2683 1.366 . S
C2684 C2685 1.414 . S
C2684 C2687 1.499 . S
C2685 H2659 0.950 . S
C2685 C2684 1.414 . S
C2685 C2686 1.374 . S
C2686 H2660 0.950 . S
C2686 C2682 1.385 . S
C2686 C2685 1.374 . S
C2687 C2684 1.499 . S
C2687 C2688 1.373 . S
C2687 C2689 1.389 . S
C2688 H2661 0.950 . S
C2688 C2674 1.377 . S
C2688 C2687 1.373 . S
C2689 C2673 1.377 . S
C2689 C2687 1.389 . S
C2689 C2690 1.524 . S
C2690 C2689 1.524 . S
C2690 C2691 1.397 . S
C2690 C2695 1.363 . S
C2691 H2662 0.950 . S
C2691 C2690 1.397 . S
C2691 C2692 1.334 . S
C2692 H2663 0.950 . S
C2692 C2691 1.334 . S
C2692 C2693 1.287 . S
C2693 C2692 1.287 . S
C2693 C2694 1.524 . S
C2693 H2696 0.999 . S
C2694 H2664 0.950 . S
C2694 C2693 1.524 . S
C2694 C2695 1.415 . S
C2695 H2665 0.950 . S
C2695 C2690 1.363 . S
C2695 C2694 1.415 . S
H2696 C2693 0.999 . S
H2697 C2678 0.913 . S
H2698 C2716 0.951 . S
H2699 C2718 0.951 . S
H2700 C2720 0.950 . S
H2701 C2721 0.950 . S
H2702 C2723 0.950 . S
H2703 C2726 0.950 . S
H2704 C2727 0.950 . S
H2705 C2729 0.950 . S
H2706 C2730 0.950 . S
H2707 C2731 0.951 . S
H2708 C2733 0.951 . S
H2709 C2735 0.950 . S
H2710 C2736 0.950 . S
H2711 C2738 0.950 . S
H2712 C2741 0.950 . S
H2713 C2742 0.950 . S
H2714 C2744 0.950 . S
H2715 C2745 0.950 . S
C2716 H2698 0.951 . S
C2716 C2717 1.366 . S
C2716 C2718 1.388 . S
C2717 C2716 1.366 . S
C2717 C2721 1.385 . S
C2718 H2699 0.951 . S
C2718 C2716 1.388 . S
C2718 C2719 1.366 . S
C2719 C2718 1.366 . S
C2719 C2720 1.414 . S
C2719 C2722 1.499 . S
C2720 H2700 0.950 . S
C2720 C2719 1.414 . S
C2720 C2721 1.374 . S
C2721 H2701 0.950 . S
C2721 C2717 1.385 . S
C2721 C2720 1.374 . S
C2722 C2719 1.499 . S
C2722 C2723 1.373 . S
C2722 C2724 1.389 . S
C2723 H2702 0.950 . S
C2723 C2722 1.373 . S
C2723 C2739 1.377 . S
C2724 C2722 1.389 . S
C2724 C2725 1.524 . S
C2724 C2738 1.377 . S
C2725 C2724 1.524 . S
C2725 C2726 1.397 . S
C2725 C2730 1.363 . S
C2726 H2703 0.950 . S
C2726 C2725 1.397 . S
C2726 C2727 1.334 . S
C2727 H2704 0.950 . S
C2727 C2726 1.334 . S
C2727 C2728 1.287 . S
C2728 C2727 1.287 . S
C2728 C2729 1.524 . S
C2728 H2747 0.913 . S
C2729 H2705 0.950 . S
C2729 C2728 1.524 . S
C2729 C2730 1.415 . S
C2730 H2706 0.950 . S
C2730 C2725 1.363 . S
C2730 C2729 1.415 . S
C2731 H2707 0.951 . S
C2731 C2732 1.366 . S
C2731 C2733 1.388 . S
C2732 C2731 1.366 . S
C2732 C2736 1.385 . S
C2733 H2708 0.951 . S
C2733 C2731 1.388 . S
C2733 C2734 1.366 . S
C2734 C2733 1.366 . S
C2734 C2735 1.414 . S
C2734 C2737 1.499 . S
C2735 H2709 0.950 . S
C2735 C2734 1.414 . S
C2735 C2736 1.374 . S
C2736 H2710 0.950 . S
C2736 C2732 1.385 . S
C2736 C2735 1.374 . S
C2737 C2734 1.499 . S
C2737 C2738 1.373 . S
C2737 C2739 1.389 . S
C2738 H2711 0.950 . S
C2738 C2724 1.377 . S
C2738 C2737 1.373 . S
C2739 C2723 1.377 . S
C2739 C2737 1.389 . S
C2739 C2740 1.524 . S
C2740 C2739 1.524 . S
C2740 C2741 1.397 . S
C2740 C2745 1.363 . S
C2741 H2712 0.950 . S
C2741 C2740 1.397 . S
C2741 C2742 1.334 . S
C2742 H2713 0.950 . S
C2742 C2741 1.334 . S
C2742 C2743 1.287 . S
C2743 C2742 1.287 . S
C2743 C2744 1.524 . S
C2743 H2746 0.999 . S
C2744 H2714 0.950 . S
C2744 C2743 1.524 . S
C2744 C2745 1.415 . S
C2745 H2715 0.950 . S
C2745 C2740 1.363 . S
C2745 C2744 1.415 . S
H2746 C2743 0.999 . S
H2747 C2728 0.913 . S
H2748 C2766 0.951 . S
H2749 C2768 0.951 . S
H2750 C2770 0.950 . S
H2751 C2771 0.950 . S
H2752 C2773 0.950 . S
H2753 C2776 0.950 . S
H2754 C2777 0.950 . S
H2755 C2779 0.950 . S
H2756 C2780 0.950 . S
H2757 C2781 0.951 . S
H2758 C2783 0.951 . S
H2759 C2785 0.950 . S
H2760 C2786 0.950 . S
H2761 C2788 0.950 . S
H2762 C2791 0.950 . S
H2763 C2792 0.950 . S
H2764 C2794 0.950 . S
H2765 C2795 0.950 . S
C2766 H2748 0.951 . S
C2766 C2767 1.366 . S
C2766 C2768 1.388 . S
C2767 C2766 1.366 . S
C2767 C2771 1.385 . S
C2768 H2749 0.951 . S
C2768 C2766 1.388 . S
C2768 C2769 1.366 . S
C2769 C2768 1.366 . S
C2769 C2770 1.414 . S
C2769 C2772 1.499 . S
C2770 H2750 0.950 . S
C2770 C2769 1.414 . S
C2770 C2771 1.374 . S
C2771 H2751 0.950 . S
C2771 C2767 1.385 . S
C2771 C2770 1.374 . S
C2772 C2769 1.499 . S
C2772 C2773 1.373 . S
C2772 C2774 1.389 . S
C2773 H2752 0.950 . S
C2773 C2772 1.373 . S
C2773 C2789 1.377 . S
C2774 C2772 1.389 . S
C2774 C2775 1.524 . S
C2774 C2788 1.377 . S
C2775 C2774 1.524 . S
C2775 C2776 1.397 . S
C2775 C2780 1.363 . S
C2776 H2753 0.950 . S
C2776 C2775 1.397 . S
C2776 C2777 1.334 . S
C2777 H2754 0.950 . S
C2777 C2776 1.334 . S
C2777 C2778 1.287 . S
C2778 C2777 1.287 . S
C2778 C2779 1.524 . S
C2778 H2797 0.913 . S
C2779 H2755 0.950 . S
C2779 C2778 1.524 . S
C2779 C2780 1.415 . S
C2780 H2756 0.950 . S
C2780 C2775 1.363 . S
C2780 C2779 1.415 . S
C2781 H2757 0.951 . S
C2781 C2782 1.366 . S
C2781 C2783 1.388 . S
C2782 C2781 1.366 . S
C2782 C2786 1.385 . S
C2783 H2758 0.951 . S
C2783 C2781 1.388 . S
C2783 C2784 1.366 . S
C2784 C2783 1.366 . S
C2784 C2785 1.414 . S
C2784 C2787 1.499 . S
C2785 H2759 0.950 . S
C2785 C2784 1.414 . S
C2785 C2786 1.374 . S
C2786 H2760 0.950 . S
C2786 C2782 1.385 . S
C2786 C2785 1.374 . S
C2787 C2784 1.499 . S
C2787 C2788 1.373 . S
C2787 C2789 1.389 . S
C2788 H2761 0.950 . S
C2788 C2774 1.377 . S
C2788 C2787 1.373 . S
C2789 C2773 1.377 . S
C2789 C2787 1.389 . S
C2789 C2790 1.524 . S
C2790 C2789 1.524 . S
C2790 C2791 1.397 . S
C2790 C2795 1.363 . S
C2791 H2762 0.950 . S
C2791 C2790 1.397 . S
C2791 C2792 1.334 . S
C2792 H2763 0.950 . S
C2792 C2791 1.334 . S
C2792 C2793 1.287 . S
C2793 C2792 1.287 . S
C2793 C2794 1.524 . S
C2793 H2796 0.999 . S
C2794 H2764 0.950 . S
C2794 C2793 1.524 . S
C2794 C2795 1.415 . S
C2795 H2765 0.950 . S
C2795 C2790 1.363 . S
C2795 C2794 1.415 . S
H2796 C2793 0.999 . S
H2797 C2778 0.913 . S
H2798 C2816 0.951 . S
H2799 C2818 0.951 . S
H2800 C2820 0.950 . S
H2801 C2821 0.950 . S
H2802 C2823 0.950 . S
H2803 C2826 0.950 . S
H2804 C2827 0.950 . S
H2805 C2829 0.950 . S
H2806 C2830 0.950 . S
H2807 C2831 0.951 . S
H2808 C2833 0.951 . S
H2809 C2835 0.950 . S
H2810 C2836 0.950 . S
H2811 C2838 0.950 . S
H2812 C2841 0.950 . S
H2813 C2842 0.950 . S
H2814 C2844 0.950 . S
H2815 C2845 0.950 . S
C2816 H2798 0.951 . S
C2816 C2817 1.366 . S
C2816 C2818 1.388 . S
C2817 C2816 1.366 . S
C2817 C2821 1.385 . S
C2818 H2799 0.951 . S
C2818 C2816 1.388 . S
C2818 C2819 1.366 . S
C2819 C2818 1.366 . S
C2819 C2820 1.414 . S
C2819 C2822 1.499 . S
C2820 H2800 0.950 . S
C2820 C2819 1.414 . S
C2820 C2821 1.374 . S
C2821 H2801 0.950 . S
C2821 C2817 1.385 . S
C2821 C2820 1.374 . S
C2822 C2819 1.499 . S
C2822 C2823 1.373 . S
C2822 C2824 1.389 . S
C2823 H2802 0.950 . S
C2823 C2822 1.373 . S
C2823 C2839 1.377 . S
C2824 C2822 1.389 . S
C2824 C2825 1.524 . S
C2824 C2838 1.377 . S
C2825 C2824 1.524 . S
C2825 C2826 1.397 . S
C2825 C2830 1.363 . S
C2826 H2803 0.950 . S
C2826 C2825 1.397 . S
C2826 C2827 1.334 . S
C2827 H2804 0.950 . S
C2827 C2826 1.334 . S
C2827 C2828 1.287 . S
C2828 C2827 1.287 . S
C2828 C2829 1.524 . S
C2828 H2847 0.913 . S
C2829 H2805 0.950 . S
C2829 C2828 1.524 . S
C2829 C2830 1.415 . S
C2830 H2806 0.950 . S
C2830 C2825 1.363 . S
C2830 C2829 1.415 . S
C2831 H2807 0.951 . S
C2831 C2832 1.366 . S
C2831 C2833 1.388 . S
C2832 C2831 1.366 . S
C2832 C2836 1.385 . S
C2833 H2808 0.951 . S
C2833 C2831 1.388 . S
C2833 C2834 1.366 . S
C2834 C2833 1.366 . S
C2834 C2835 1.414 . S
C2834 C2837 1.499 . S
C2835 H2809 0.950 . S
C2835 C2834 1.414 . S
C2835 C2836 1.374 . S
C2836 H2810 0.950 . S
C2836 C2832 1.385 . S
C2836 C2835 1.374 . S
C2837 C2834 1.499 . S
C2837 C2838 1.373 . S
C2837 C2839 1.389 . S
C2838 H2811 0.950 . S
C2838 C2824 1.377 . S
C2838 C2837 1.373 . S
C2839 C2823 1.377 . S
C2839 C2837 1.389 . S
C2839 C2840 1.524 . S
C2840 C2839 1.524 . S
C2840 C2841 1.397 . S
C2840 C2845 1.363 . S
C2841 H2812 0.950 . S
C2841 C2840 1.397 . S
C2841 C2842 1.334 . S
C2842 H2813 0.950 . S
C2842 C2841 1.334 . S
C2842 C2843 1.287 . S
C2843 C2842 1.287 . S
C2843 C2844 1.524 . S
C2843 H2846 0.999 . S
C2844 H2814 0.950 . S
C2844 C2843 1.524 . S
C2844 C2845 1.415 . S
C2845 H2815 0.950 . S
C2845 C2840 1.363 . S
C2845 C2844 1.415 . S
H2846 C2843 0.999 . S
H2847 C2828 0.913 . S
H2848 C2866 0.951 . S
H2849 C2868 0.951 . S
H2850 C2870 0.950 . S
H2851 C2871 0.950 . S
H2852 C2873 0.950 . S
H2853 C2876 0.950 . S
H2854 C2877 0.950 . S
H2855 C2879 0.950 . S
H2856 C2880 0.950 . S
H2857 C2881 0.951 . S
H2858 C2883 0.951 . S
H2859 C2885 0.950 . S
H2860 C2886 0.950 . S
H2861 C2888 0.950 . S
H2862 C2891 0.950 . S
H2863 C2892 0.950 . S
H2864 C2894 0.950 . S
H2865 C2895 0.950 . S
C2866 H2848 0.951 . S
C2866 C2867 1.366 . S
C2866 C2868 1.388 . S
C2867 C2866 1.366 . S
C2867 C2871 1.385 . S
C2868 H2849 0.951 . S
C2868 C2866 1.388 . S
C2868 C2869 1.366 . S
C2869 C2868 1.366 . S
C2869 C2870 1.414 . S
C2869 C2872 1.499 . S
C2870 H2850 0.950 . S
C2870 C2869 1.414 . S
C2870 C2871 1.374 . S
C2871 H2851 0.950 . S
C2871 C2867 1.385 . S
C2871 C2870 1.374 . S
C2872 C2869 1.499 . S
C2872 C2873 1.373 . S
C2872 C2874 1.389 . S
C2873 H2852 0.950 . S
C2873 C2872 1.373 . S
C2873 C2889 1.377 . S
C2874 C2872 1.389 . S
C2874 C2875 1.524 . S
C2874 C2888 1.377 . S
C2875 C2874 1.524 . S
C2875 C2876 1.397 . S
C2875 C2880 1.363 . S
C2876 H2853 0.950 . S
C2876 C2875 1.397 . S
C2876 C2877 1.334 . S
C2877 H2854 0.950 . S
C2877 C2876 1.334 . S
C2877 C2878 1.287 . S
C2878 C2877 1.287 . S
C2878 C2879 1.524 . S
C2878 H2897 0.913 . S
C2879 H2855 0.950 . S
C2879 C2878 1.524 . S
C2879 C2880 1.415 . S
C2880 H2856 0.950 . S
C2880 C2875 1.363 . S
C2880 C2879 1.415 . S
C2881 H2857 0.951 . S
C2881 C2882 1.366 . S
C2881 C2883 1.388 . S
C2882 C2881 1.366 . S
C2882 C2886 1.385 . S
C2883 H2858 0.951 . S
C2883 C2881 1.388 . S
C2883 C2884 1.366 . S
C2884 C2883 1.366 . S
C2884 C2885 1.414 . S
C2884 C2887 1.499 . S
C2885 H2859 0.950 . S
C2885 C2884 1.414 . S
C2885 C2886 1.374 . S
C2886 H2860 0.950 . S
C2886 C2882 1.385 . S
C2886 C2885 1.374 . S
C2887 C2884 1.499 . S
C2887 C2888 1.373 . S
C2887 C2889 1.389 . S
C2888 H2861 0.950 . S
C2888 C2874 1.377 . S
C2888 C2887 1.373 . S
C2889 C2873 1.377 . S
C2889 C2887 1.389 . S
C2889 C2890 1.524 . S
C2890 C2889 1.524 . S
C2890 C2891 1.397 . S
C2890 C2895 1.363 . S
C2891 H2862 0.950 . S
C2891 C2890 1.397 . S
C2891 C2892 1.334 . S
C2892 H2863 0.950 . S
C2892 C2891 1.334 . S
C2892 C2893 1.287 . S
C2893 C2892 1.287 . S
C2893 C2894 1.524 . S
C2893 H2896 0.999 . S
C2894 H2864 0.950 . S
C2894 C2893 1.524 . S
C2894 C2895 1.415 . S
C2895 H2865 0.950 . S
C2895 C2890 1.363 . S
C2895 C2894 1.415 . S
H2896 C2893 0.999 . S
H2897 C2878 0.913 . S
H2898 C2916 0.951 . S
H2899 C2918 0.951 . S
H2900 C2920 0.950 . S
H2901 C2921 0.950 . S
H2902 C2923 0.950 . S
H2903 C2926 0.950 . S
H2904 C2927 0.950 . S
H2905 C2929 0.950 . S
H2906 C2930 0.950 . S
H2907 C2931 0.951 . S
H2908 C2933 0.951 . S
H2909 C2935 0.950 . S
H2910 C2936 0.950 . S
H2911 C2938 0.950 . S
H2912 C2941 0.950 . S
H2913 C2942 0.950 . S
H2914 C2944 0.950 . S
H2915 C2945 0.950 . S
C2916 H2898 0.951 . S
C2916 C2917 1.366 . S
C2916 C2918 1.388 . S
C2917 C2916 1.366 . S
C2917 C2921 1.385 . S
C2918 H2899 0.951 . S
C2918 C2916 1.388 . S
C2918 C2919 1.366 . S
C2919 C2918 1.366 . S
C2919 C2920 1.414 . S
C2919 C2922 1.499 . S
C2920 H2900 0.950 . S
C2920 C2919 1.414 . S
C2920 C2921 1.374 . S
C2921 H2901 0.950 . S
C2921 C2917 1.385 . S
C2921 C2920 1.374 . S
C2922 C2919 1.499 . S
C2922 C2923 1.373 . S
C2922 C2924 1.389 . S
C2923 H2902 0.950 . S
C2923 C2922 1.373 . S
C2923 C2939 1.377 . S
C2924 C2922 1.389 . S
C2924 C2925 1.524 . S
C2924 C2938 1.377 . S
C2925 C2924 1.524 . S
C2925 C2926 1.397 . S
C2925 C2930 1.363 . S
C2926 H2903 0.950 . S
C2926 C2925 1.397 . S
C2926 C2927 1.334 . S
C2927 H2904 0.950 . S
C2927 C2926 1.334 . S
C2927 C2928 1.287 . S
C2928 C2927 1.287 . S
C2928 C2929 1.524 . S
C2928 H2947 0.913 . S
C2929 H2905 0.950 . S
C2929 C2928 1.524 . S
C2929 C2930 1.415 . S
C2930 H2906 0.950 . S
C2930 C2925 1.363 . S
C2930 C2929 1.415 . S
C2931 H2907 0.951 . S
C2931 C2932 1.366 . S
C2931 C2933 1.388 . S
C2932 C2931 1.366 . S
C2932 C2936 1.385 . S
C2933 H2908 0.951 . S
C2933 C2931 1.388 . S
C2933 C2934 1.366 . S
C2934 C2933 1.366 . S
C2934 C2935 1.414 . S
C2934 C2937 1.499 . S
C2935 H2909 0.950 . S
C2935 C2934 1.414 . S
C2935 C2936 1.374 . S
C2936 H2910 0.950 . S
C2936 C2932 1.385 . S
C2936 C2935 1.374 . S
C2937 C2934 1.499 . S
C2937 C2938 1.373 . S
C2937 C2939 1.389 . S
C2938 H2911 0.950 . S
C2938 C2924 1.377 . S
C2938 C2937 1.373 . S
C2939 C2923 1.377 . S
C2939 C2937 1.389 . S
C2939 C2940 1.524 . S
C2940 C2939 1.524 . S
C2940 C2941 1.397 . S
C2940 C2945 1.363 . S
C2941 H2912 0.950 . S
C2941 C2940 1.397 . S
C2941 C2942 1.334 . S
C2942 H2913 0.950 . S
C2942 C2941 1.334 . S
C2942 C2943 1.287 . S
C2943 C2942 1.287 . S
C2943 C2944 1.524 . S
C2943 H2946 0.999 . S
C2944 H2914 0.950 . S
C2944 C2943 1.524 . S
C2944 C2945 1.415 . S
C2945 H2915 0.950 . S
C2945 C2940 1.363 . S
C2945 C2944 1.415 . S
H2946 C2943 0.999 . S
H2947 C2928 0.913 . S
H2948 C2966 0.951 . S
H2949 C2968 0.951 . S
H2950 C2970 0.950 . S
H2951 C2971 0.950 . S
H2952 C2973 0.950 . S
H2953 C2976 0.950 . S
H2954 C2977 0.950 . S
H2955 C2979 0.950 . S
H2956 C2980 0.950 . S
H2957 C2981 0.951 . S
H2958 C2983 0.951 . S
H2959 C2985 0.950 . S
H2960 C2986 0.950 . S
H2961 C2988 0.950 . S
H2962 C2991 0.950 . S
H2963 C2992 0.950 . S
H2964 C2994 0.950 . S
H2965 C2995 0.950 . S
C2966 H2948 0.951 . S
C2966 C2967 1.366 . S
C2966 C2968 1.388 . S
C2967 C2966 1.366 . S
C2967 C2971 1.385 . S
C2968 H2949 0.951 . S
C2968 C2966 1.388 . S
C2968 C2969 1.366 . S
C2969 C2968 1.366 . S
C2969 C2970 1.414 . S
C2969 C2972 1.499 . S
C2970 H2950 0.950 . S
C2970 C2969 1.414 . S
C2970 C2971 1.374 . S
C2971 H2951 0.950 . S
C2971 C2967 1.385 . S
C2971 C2970 1.374 . S
C2972 C2969 1.499 . S
C2972 C2973 1.373 . S
C2972 C2974 1.389 . S
C2973 H2952 0.950 . S
C2973 C2972 1.373 . S
C2973 C2989 1.377 . S
C2974 C2972 1.389 . S
C2974 C2975 1.524 . S
C2974 C2988 1.377 . S
C2975 C2974 1.524 . S
C2975 C2976 1.397 . S
C2975 C2980 1.363 . S
C2976 H2953 0.950 . S
C2976 C2975 1.397 . S
C2976 C2977 1.334 . S
C2977 H2954 0.950 . S
C2977 C2976 1.334 . S
C2977 C2978 1.287 . S
C2978 C2977 1.287 . S
C2978 C2979 1.524 . S
C2978 H2997 0.913 . S
C2979 H2955 0.950 . S
C2979 C2978 1.524 . S
C2979 C2980 1.415 . S
C2980 H2956 0.950 . S
C2980 C2975 1.363 . S
C2980 C2979 1.415 . S
C2981 H2957 0.951 . S
C2981 C2982 1.366 . S
C2981 C2983 1.388 . S
C2982 C2981 1.366 . S
C2982 C2986 1.385 . S
C2983 H2958 0.951 . S
C2983 C2981 1.388 . S
C2983 C2984 1.366 . S
C2984 C2983 1.366 . S
C2984 C2985 1.414 . S
C2984 C2987 1.499 . S
C2985 H2959 0.950 . S
C2985 C2984 1.414 . S
C2985 C2986 1.374 . S
C2986 H2960 0.950 . S
C2986 C2982 1.385 . S
C2986 C2985 1.374 . S
C2987 C2984 1.499 . S
C2987 C2988 1.373 . S
C2987 C2989 1.389 . S
C2988 H2961 0.950 . S
C2988 C2974 1.377 . S
C2988 C2987 1.373 . S
C2989 C2973 1.377 . S
C2989 C2987 1.389 . S
C2989 C2990 1.524 . S
C2990 C2989 1.524 . S
C2990 C2991 1.397 . S
C2990 C2995 1.363 . S
C2991 H2962 0.950 . S
C2991 C2990 1.397 . S
C2991 C2992 1.334 . S
C2992 H2963 0.950 . S
C2992 C2991 1.334 . S
C2992 C2993 1.287 . S
C2993 C2992 1.287 . S
C2993 C2994 1.524 . S
C2993 H2996 0.999 . S
C2994 H2964 0.950 . S
C2994 C2993 1.524 . S
C2994 C2995 1.415 . S
C2995 H2965 0.950 . S
C2995 C2990 1.363 . S
C2995 C2994 1.415 . S
H2996 C2993 0.999 . S
H2997 C2978 0.913 . S
H2998 C3016 0.951 . S
H2999 C3018 0.951 . S
H3000 C3020 0.950 . S
H3001 C3021 0.950 . S
H3002 C3023 0.950 . S
H3003 C3026 0.950 . S
H3004 C3027 0.950 . S
H3005 C3029 0.950 . S
H3006 C3030 0.950 . S
H3007 C3031 0.951 . S
H3008 C3033 0.951 . S
H3009 C3035 0.950 . S
H3010 C3036 0.950 . S
H3011 C3038 0.950 . S
H3012 C3041 0.950 . S
H3013 C3042 0.950 . S
H3014 C3044 0.950 . S
H3015 C3045 0.950 . S
C3016 H2998 0.951 . S
C3016 C3017 1.366 . S
C3016 C3018 1.388 . S
C3017 C3016 1.366 . S
C3017 C3021 1.385 . S
C3018 H2999 0.951 . S
C3018 C3016 1.388 . S
C3018 C3019 1.366 . S
C3019 C3018 1.366 . S
C3019 C3020 1.414 . S
C3019 C3022 1.499 . S
C3020 H3000 0.950 . S
C3020 C3019 1.414 . S
C3020 C3021 1.374 . S
C3021 H3001 0.950 . S
C3021 C3017 1.385 . S
C3021 C3020 1.374 . S
C3022 C3019 1.499 . S
C3022 C3023 1.373 . S
C3022 C3024 1.389 . S
C3023 H3002 0.950 . S
C3023 C3022 1.373 . S
C3023 C3039 1.377 . S
C3024 C3022 1.389 . S
C3024 C3025 1.524 . S
C3024 C3038 1.377 . S
C3025 C3024 1.524 . S
C3025 C3026 1.397 . S
C3025 C3030 1.363 . S
C3026 H3003 0.950 . S
C3026 C3025 1.397 . S
C3026 C3027 1.334 . S
C3027 H3004 0.950 . S
C3027 C3026 1.334 . S
C3027 C3028 1.287 . S
C3028 C3027 1.287 . S
C3028 C3029 1.524 . S
C3028 H3047 0.913 . S
C3029 H3005 0.950 . S
C3029 C3028 1.524 . S
C3029 C3030 1.415 . S
C3030 H3006 0.950 . S
C3030 C3025 1.363 . S
C3030 C3029 1.415 . S
C3031 H3007 0.951 . S
C3031 C3032 1.366 . S
C3031 C3033 1.388 . S
C3032 C3031 1.366 . S
C3032 C3036 1.385 . S
C3033 H3008 0.951 . S
C3033 C3031 1.388 . S
C3033 C3034 1.366 . S
C3034 C3033 1.366 . S
C3034 C3035 1.414 . S
C3034 C3037 1.499 . S
C3035 H3009 0.950 . S
C3035 C3034 1.414 . S
C3035 C3036 1.374 . S
C3036 H3010 0.950 . S
C3036 C3032 1.385 . S
C3036 C3035 1.374 . S
C3037 C3034 1.499 . S
C3037 C3038 1.373 . S
C3037 C3039 1.389 . S
C3038 H3011 0.950 . S
C3038 C3024 1.377 . S
C3038 C3037 1.373 . S
C3039 C3023 1.377 . S
C3039 C3037 1.389 . S
C3039 C3040 1.524 . S
C3040 C3039 1.524 . S
C3040 C3041 1.397 . S
C3040 C3045 1.363 . S
C3041 H3012 0.950 . S
C3041 C3040 1.397 . S
C3041 C3042 1.334 . S
C3042 H3013 0.950 . S
C3042 C3041 1.334 . S
C3042 C3043 1.287 . S
C3043 C3042 1.287 . S
C3043 C3044 1.524 . S
C3043 H3046 0.999 . S
C3044 H3014 0.950 . S
C3044 C3043 1.524 . S
C3044 C3045 1.415 . S
C3045 H3015 0.950 . S
C3045 C3040 1.363 . S
C3045 C3044 1.415 . S
H3046 C3043 0.999 . S
H3047 C3028 0.913 . S
H3048 C3066 0.951 . S
H3049 C3068 0.951 . S
H3050 C3070 0.950 . S
H3051 C3071 0.950 . S
H3052 C3073 0.950 . S
H3053 C3076 0.950 . S
H3054 C3077 0.950 . S
H3055 C3079 0.950 . S
H3056 C3080 0.950 . S
H3057 C3081 0.951 . S
H3058 C3083 0.951 . S
H3059 C3085 0.950 . S
H3060 C3086 0.950 . S
H3061 C3088 0.950 . S
H3062 C3091 0.950 . S
H3063 C3092 0.950 . S
H3064 C3094 0.950 . S
H3065 C3095 0.950 . S
C3066 H3048 0.951 . S
C3066 C3067 1.366 . S
C3066 C3068 1.388 . S
C3067 C3066 1.366 . S
C3067 C3071 1.385 . S
C3068 H3049 0.951 . S
C3068 C3066 1.388 . S
C3068 C3069 1.366 . S
C3069 C3068 1.366 . S
C3069 C3070 1.414 . S
C3069 C3072 1.499 . S
C3070 H3050 0.950 . S
C3070 C3069 1.414 . S
C3070 C3071 1.374 . S
C3071 H3051 0.950 . S
C3071 C3067 1.385 . S
C3071 C3070 1.374 . S
C3072 C3069 1.499 . S
C3072 C3073 1.373 . S
C3072 C3074 1.389 . S
C3073 H3052 0.950 . S
C3073 C3072 1.373 . S
C3073 C3089 1.377 . S
C3074 C3072 1.389 . S
C3074 C3075 1.524 . S
C3074 C3088 1.377 . S
C3075 C3074 1.524 . S
C3075 C3076 1.397 . S
C3075 C3080 1.363 . S
C3076 H3053 0.950 . S
C3076 C3075 1.397 . S
C3076 C3077 1.334 . S
C3077 H3054 0.950 . S
C3077 C3076 1.334 . S
C3077 C3078 1.287 . S
C3078 C3077 1.287 . S
C3078 C3079 1.524 . S
C3078 H3097 0.913 . S
C3079 H3055 0.950 . S
C3079 C3078 1.524 . S
C3079 C3080 1.415 . S
C3080 H3056 0.950 . S
C3080 C3075 1.363 . S
C3080 C3079 1.415 . S
C3081 H3057 0.951 . S
C3081 C3082 1.366 . S
C3081 C3083 1.388 . S
C3082 C3081 1.366 . S
C3082 C3086 1.385 . S
C3083 H3058 0.951 . S
C3083 C3081 1.388 . S
C3083 C3084 1.366 . S
C3084 C3083 1.366 . S
C3084 C3085 1.414 . S
C3084 C3087 1.499 . S
C3085 H3059 0.950 . S
C3085 C3084 1.414 . S
C3085 C3086 1.374 . S
C3086 H3060 0.950 . S
C3086 C3082 1.385 . S
C3086 C3085 1.374 . S
C3087 C3084 1.499 . S
C3087 C3088 1.373 . S
C3087 C3089 1.389 . S
C3088 H3061 0.950 . S
C3088 C3074 1.377 . S
C3088 C3087 1.373 . S
C3089 C3073 1.377 . S
C3089 C3087 1.389 . S
C3089 C3090 1.524 . S
C3090 C3089 1.524 . S
C3090 C3091 1.397 . S
C3090 C3095 1.363 . S
C3091 H3062 0.950 . S
C3091 C3090 1.397 . S
C3091 C3092 1.334 . S
C3092 H3063 0.950 . S
C3092 C3091 1.334 . S
C3092 C3093 1.287 . S
C3093 C3092 1.287 . S
C3093 C3094 1.524 . S
C3093 H3096 0.999 . S
C3094 H3064 0.950 . S
C3094 C3093 1.524 . S
C3094 C3095 1.415 . S
C3095 H3065 0.950 . S
C3095 C3090 1.363 . S
C3095 C3094 1.415 . S
H3096 C3093 0.999 . S
H3097 C3078 0.913 . S
H3098 C3116 0.951 . S
H3099 C3118 0.951 . S
H3100 C3120 0.950 . S
H3101 C3121 0.950 . S
H3102 C3123 0.950 . S
H3103 C3126 0.950 . S
H3104 C3127 0.950 . S
H3105 C3129 0.950 . S
H3106 C3130 0.950 . S
H3107 C3131 0.951 . S
H3108 C3133 0.951 . S
H3109 C3135 0.950 . S
H3110 C3136 0.950 . S
H3111 C3138 0.950 . S
H3112 C3141 0.950 . S
H3113 C3142 0.950 . S
H3114 C3144 0.950 . S
H3115 C3145 0.950 . S
C3116 H3098 0.951 . S
C3116 C3117 1.366 . S
C3116 C3118 1.388 . S
C3117 C3116 1.366 . S
C3117 C3121 1.385 . S
C3118 H3099 0.951 . S
C3118 C3116 1.388 . S
C3118 C3119 1.366 . S
C3119 C3118 1.366 . S
C3119 C3120 1.414 . S
C3119 C3122 1.499 . S
C3120 H3100 0.950 . S
C3120 C3119 1.414 . S
C3120 C3121 1.374 . S
C3121 H3101 0.950 . S
C3121 C3117 1.385 . S
C3121 C3120 1.374 . S
C3122 C3119 1.499 . S
C3122 C3123 1.373 . S
C3122 C3124 1.389 . S
C3123 H3102 0.950 . S
C3123 C3122 1.373 . S
C3123 C3139 1.377 . S
C3124 C3122 1.389 . S
C3124 C3125 1.524 . S
C3124 C3138 1.377 . S
C3125 C3124 1.524 . S
C3125 C3126 1.397 . S
C3125 C3130 1.363 . S
C3126 H3103 0.950 . S
C3126 C3125 1.397 . S
C3126 C3127 1.334 . S
C3127 H3104 0.950 . S
C3127 C3126 1.334 . S
C3127 C3128 1.287 . S
C3128 C3127 1.287 . S
C3128 C3129 1.524 . S
C3128 H3147 0.913 . S
C3129 H3105 0.950 . S
C3129 C3128 1.524 . S
C3129 C3130 1.415 . S
C3130 H3106 0.950 . S
C3130 C3125 1.363 . S
C3130 C3129 1.415 . S
C3131 H3107 0.951 . S
C3131 C3132 1.366 . S
C3131 C3133 1.388 . S
C3132 C3131 1.366 . S
C3132 C3136 1.385 . S
C3133 H3108 0.951 . S
C3133 C3131 1.388 . S
C3133 C3134 1.366 . S
C3134 C3133 1.366 . S
C3134 C3135 1.414 . S
C3134 C3137 1.499 . S
C3135 H3109 0.950 . S
C3135 C3134 1.414 . S
C3135 C3136 1.374 . S
C3136 H3110 0.950 . S
C3136 C3132 1.385 . S
C3136 C3135 1.374 . S
C3137 C3134 1.499 . S
C3137 C3138 1.373 . S
C3137 C3139 1.389 . S
C3138 H3111 0.950 . S
C3138 C3124 1.377 . S
C3138 C3137 1.373 . S
C3139 C3123 1.377 . S
C3139 C3137 1.389 . S
C3139 C3140 1.524 . S
C3140 C3139 1.524 . S
C3140 C3141 1.397 . S
C3140 C3145 1.363 . S
C3141 H3112 0.950 . S
C3141 C3140 1.397 . S
C3141 C3142 1.334 . S
C3142 H3113 0.950 . S
C3142 C3141 1.334 . S
C3142 C3143 1.287 . S
C3143 C3142 1.287 . S
C3143 C3144 1.524 . S
C3143 H3146 0.999 . S
C3144 H3114 0.950 . S
C3144 C3143 1.524 . S
C3144 C3145 1.415 . S
C3145 H3115 0.950 . S
C3145 C3140 1.363 . S
C3145 C3144 1.415 . S
H3146 C3143 0.999 . S
H3147 C3128 0.913 . S
H3148 C3166 0.951 . S
H3149 C3168 0.951 . S
H3150 C3170 0.950 . S
H3151 C3171 0.950 . S
H3152 C3173 0.950 . S
H3153 C3176 0.950 . S
H3154 C3177 0.950 . S
H3155 C3179 0.950 . S
H3156 C3180 0.950 . S
H3157 C3181 0.951 . S
H3158 C3183 0.951 . S
H3159 C3185 0.950 . S
H3160 C3186 0.950 . S
H3161 C3188 0.950 . S
H3162 C3191 0.950 . S
H3163 C3192 0.950 . S
H3164 C3194 0.950 . S
H3165 C3195 0.950 . S
C3166 H3148 0.951 . S
C3166 C3167 1.366 . S
C3166 C3168 1.388 . S
C3167 C3166 1.366 . S
C3167 C3171 1.385 . S
C3168 H3149 0.951 . S
C3168 C3166 1.388 . S
C3168 C3169 1.366 . S
C3169 C3168 1.366 . S
C3169 C3170 1.414 . S
C3169 C3172 1.499 . S
C3170 H3150 0.950 . S
C3170 C3169 1.414 . S
C3170 C3171 1.374 . S
C3171 H3151 0.950 . S
C3171 C3167 1.385 . S
C3171 C3170 1.374 . S
C3172 C3169 1.499 . S
C3172 C3173 1.373 . S
C3172 C3174 1.389 . S
C3173 H3152 0.950 . S
C3173 C3172 1.373 . S
C3173 C3189 1.377 . S
C3174 C3172 1.389 . S
C3174 C3175 1.524 . S
C3174 C3188 1.377 . S
C3175 C3174 1.524 . S
C3175 C3176 1.397 . S
C3175 C3180 1.363 . S
C3176 H3153 0.950 . S
C3176 C3175 1.397 . S
C3176 C3177 1.334 . S
C3177 H3154 0.950 . S
C3177 C3176 1.334 . S
C3177 C3178 1.287 . S
C3178 C3177 1.287 . S
C3178 C3179 1.524 . S
C3178 H3197 0.913 . S
C3179 H3155 0.950 . S
C3179 C3178 1.524 . S
C3179 C3180 1.415 . S
C3180 H3156 0.950 . S
C3180 C3175 1.363 . S
C3180 C3179 1.415 . S
C3181 H3157 0.951 . S
C3181 C3182 1.366 . S
C3181 C3183 1.388 . S
C3182 C3181 1.366 . S
C3182 C3186 1.385 . S
C3183 H3158 0.951 . S
C3183 C3181 1.388 . S
C3183 C3184 1.366 . S
C3184 C3183 1.366 . S
C3184 C3185 1.414 . S
C3184 C3187 1.499 . S
C3185 H3159 0.950 . S
C3185 C3184 1.414 . S
C3185 C3186 1.374 . S
C3186 H3160 0.950 . S
C3186 C3182 1.385 . S
C3186 C3185 1.374 . S
C3187 C3184 1.499 . S
C3187 C3188 1.373 . S
C3187 C3189 1.389 . S
C3188 H3161 0.950 . S
C3188 C3174 1.377 . S
C3188 C3187 1.373 . S
C3189 C3173 1.377 . S
C3189 C3187 1.389 . S
C3189 C3190 1.524 . S
C3190 C3189 1.524 . S
C3190 C3191 1.397 . S
C3190 C3195 1.363 . S
C3191 H3162 0.950 . S
C3191 C3190 1.397 . S
C3191 C3192 1.334 . S
C3192 H3163 0.950 . S
C3192 C3191 1.334 . S
C3192 C3193 1.287 . S
C3193 C3192 1.287 . S
C3193 C3194 1.524 . S
C3193 H3196 0.999 . S
C3194 H3164 0.950 . S
C3194 C3193 1.524 . S
C3194 C3195 1.415 . S
C3195 H3165 0.950 . S
C3195 C3190 1.363 . S
C3195 C3194 1.415 . S
H3196 C3193 0.999 . S
H3197 C3178 0.913 . S
H3198 C3216 0.951 . S
H3199 C3218 0.951 . S
H3200 C3220 0.950 . S
H3201 C3221 0.950 . S
H3202 C3223 0.950 . S
H3203 C3226 0.950 . S
H3204 C3227 0.950 . S
H3205 C3229 0.950 . S
H3206 C3230 0.950 . S
H3207 C3231 0.951 . S
H3208 C3233 0.951 . S
H3209 C3235 0.950 . S
H3210 C3236 0.950 . S
H3211 C3238 0.950 . S
H3212 C3241 0.950 . S
H3213 C3242 0.950 . S
H3214 C3244 0.950 . S
H3215 C3245 0.950 . S
C3216 H3198 0.951 . S
C3216 C3217 1.366 . S
C3216 C3218 1.388 . S
C3217 C3216 1.366 . S
C3217 C3221 1.385 . S
C3218 H3199 0.951 . S
C3218 C3216 1.388 . S
C3218 C3219 1.366 . S
C3219 C3218 1.366 . S
C3219 C3220 1.414 . S
C3219 C3222 1.499 . S
C3220 H3200 0.950 . S
C3220 C3219 1.414 . S
C3220 C3221 1.374 . S
C3221 H3201 0.950 . S
C3221 C3217 1.385 . S
C3221 C3220 1.374 . S
C3222 C3219 1.499 . S
C3222 C3223 1.373 . S
C3222 C3224 1.389 . S
C3223 H3202 0.950 . S
C3223 C3222 1.373 . S
C3223 C3239 1.377 . S
C3224 C3222 1.389 . S
C3224 C3225 1.524 . S
C3224 C3238 1.377 . S
C3225 C3224 1.524 . S
C3225 C3226 1.397 . S
C3225 C3230 1.363 . S
C3226 H3203 0.950 . S
C3226 C3225 1.397 . S
C3226 C3227 1.334 . S
C3227 H3204 0.950 . S
C3227 C3226 1.334 . S
C3227 C3228 1.287 . S
C3228 C3227 1.287 . S
C3228 C3229 1.524 . S
C3228 H3247 0.913 . S
C3229 H3205 0.950 . S
C3229 C3228 1.524 . S
C3229 C3230 1.415 . S
C3230 H3206 0.950 . S
C3230 C3225 1.363 . S
C3230 C3229 1.415 . S
C3231 H3207 0.951 . S
C3231 C3232 1.366 . S
C3231 C3233 1.388 . S
C3232 C3231 1.366 . S
C3232 C3236 1.385 . S
C3233 H3208 0.951 . S
C3233 C3231 1.388 . S
C3233 C3234 1.366 . S
C3234 C3233 1.366 . S
C3234 C3235 1.414 . S
C3234 C3237 1.499 . S
C3235 H3209 0.950 . S
C3235 C3234 1.414 . S
C3235 C3236 1.374 . S
C3236 H3210 0.950 . S
C3236 C3232 1.385 . S
C3236 C3235 1.374 . S
C3237 C3234 1.499 . S
C3237 C3238 1.373 . S
C3237 C3239 1.389 . S
C3238 H3211 0.950 . S
C3238 C3224 1.377 . S
C3238 C3237 1.373 . S
C3239 C3223 1.377 . S
C3239 C3237 1.389 . S
C3239 C3240 1.524 . S
C3240 C3239 1.524 . S
C3240 C3241 1.397 . S
C3240 C3245 1.363 . S
C3241 H3212 0.950 . S
C3241 C3240 1.397 . S
C3241 C3242 1.334 . S
C3242 H3213 0.950 . S
C3242 C3241 1.334 . S
C3242 C3243 1.287 . S
C3243 C3242 1.287 . S
C3243 C3244 1.524 . S
C3243 H3246 0.999 . S
C3244 H3214 0.950 . S
C3244 C3243 1.524 . S
C3244 C3245 1.415 . S
C3245 H3215 0.950 . S
C3245 C3240 1.363 . S
C3245 C3244 1.415 . S
H3246 C3243 0.999 . S
H3247 C3228 0.913 . S
H3248 C3266 0.951 . S
H3249 C3268 0.951 . S
H3250 C3270 0.950 . S
H3251 C3271 0.950 . S
H3252 C3273 0.950 . S
H3253 C3276 0.950 . S
H3254 C3277 0.950 . S
H3255 C3279 0.950 . S
H3256 C3280 0.950 . S
H3257 C3281 0.951 . S
H3258 C3283 0.951 . S
H3259 C3285 0.950 . S
H3260 C3286 0.950 . S
H3261 C3288 0.950 . S
H3262 C3291 0.950 . S
H3263 C3292 0.950 . S
H3264 C3294 0.950 . S
H3265 C3295 0.950 . S
C3266 H3248 0.951 . S
C3266 C3267 1.366 . S
C3266 C3268 1.388 . S
C3267 C3266 1.366 . S
C3267 C3271 1.385 . S
C3268 H3249 0.951 . S
C3268 C3266 1.388 . S
C3268 C3269 1.366 . S
C3269 C3268 1.366 . S
C3269 C3270 1.414 . S
C3269 C3272 1.499 . S
C3270 H3250 0.950 . S
C3270 C3269 1.414 . S
C3270 C3271 1.374 . S
C3271 H3251 0.950 . S
C3271 C3267 1.385 . S
C3271 C3270 1.374 . S
C3272 C3269 1.499 . S
C3272 C3273 1.373 . S
C3272 C3274 1.389 . S
C3273 H3252 0.950 . S
C3273 C3272 1.373 . S
C3273 C3289 1.377 . S
C3274 C3272 1.389 . S
C3274 C3275 1.524 . S
C3274 C3288 1.377 . S
C3275 C3274 1.524 . S
C3275 C3276 1.397 . S
C3275 C3280 1.363 . S
C3276 H3253 0.950 . S
C3276 C3275 1.397 . S
C3276 C3277 1.334 . S
C3277 H3254 0.950 . S
C3277 C3276 1.334 . S
C3277 C3278 1.287 . S
C3278 C3277 1.287 . S
C3278 C3279 1.524 . S
C3278 H3297 0.913 . S
C3279 H3255 0.950 . S
C3279 C3278 1.524 . S
C3279 C3280 1.415 . S
C3280 H3256 0.950 . S
C3280 C3275 1.363 . S
C3280 C3279 1.415 . S
C3281 H3257 0.951 . S
C3281 C3282 1.366 . S
C3281 C3283 1.388 . S
C3282 C3281 1.366 . S
C3282 C3286 1.385 . S
C3283 H3258 0.951 . S
C3283 C3281 1.388 . S
C3283 C3284 1.366 . S
C3284 C3283 1.366 . S
C3284 C3285 1.414 . S
C3284 C3287 1.499 . S
C3285 H3259 0.950 . S
C3285 C3284 1.414 . S
C3285 C3286 1.374 . S
C3286 H3260 0.950 . S
C3286 C3282 1.385 . S
C3286 C3285 1.374 . S
C3287 C3284 1.499 . S
C3287 C3288 1.373 . S
C3287 C3289 1.389 . S
C3288 H3261 0.950 . S
C3288 C3274 1.377 . S
C3288 C3287 1.373 . S
C3289 C3273 1.377 . S
C3289 C3287 1.389 . S
C3289 C3290 1.524 . S
C3290 C3289 1.524 . S
C3290 C3291 1.397 . S
C3290 C3295 1.363 . S
C3291 H3262 0.950 . S
C3291 C3290 1.397 . S
C3291 C3292 1.334 . S
C3292 H3263 0.950 . S
C3292 C3291 1.334 . S
C3292 C3293 1.287 . S
C3293 C3292 1.287 . S
C3293 C3294 1.524 . S
C3293 H3296 0.999 . S
C3294 H3264 0.950 . S
C3294 C3293 1.524 . S
C3294 C3295 1.415 . S
C3295 H3265 0.950 . S
C3295 C3290 1.363 . S
C3295 C3294 1.415 . S
H3296 C3293 0.999 . S
H3297 C3278 0.913 . S
H3298 C3316 0.951 . S
H3299 C3318 0.951 . S
H3300 C3320 0.950 . S
H3301 C3321 0.950 . S
H3302 C3323 0.950 . S
H3303 C3326 0.950 . S
H3304 C3327 0.950 . S
H3305 C3329 0.950 . S
H3306 C3330 0.950 . S
H3307 C3331 0.951 . S
H3308 C3333 0.951 . S
H3309 C3335 0.950 . S
H3310 C3336 0.950 . S
H3311 C3338 0.950 . S
H3312 C3341 0.950 . S
H3313 C3342 0.950 . S
H3314 C3344 0.950 . S
H3315 C3345 0.950 . S
C3316 H3298 0.951 . S
C3316 C3317 1.366 . S
C3316 C3318 1.388 . S
C3317 C3316 1.366 . S
C3317 C3321 1.385 . S
C3318 H3299 0.951 . S
C3318 C3316 1.388 . S
C3318 C3319 1.366 . S
C3319 C3318 1.366 . S
C3319 C3320 1.414 . S
C3319 C3322 1.499 . S
C3320 H3300 0.950 . S
C3320 C3319 1.414 . S
C3320 C3321 1.374 . S
C3321 H3301 0.950 . S
C3321 C3317 1.385 . S
C3321 C3320 1.374 . S
C3322 C3319 1.499 . S
C3322 C3323 1.373 . S
C3322 C3324 1.389 . S
C3323 H3302 0.950 . S
C3323 C3322 1.373 . S
C3323 C3339 1.377 . S
C3324 C3322 1.389 . S
C3324 C3325 1.524 . S
C3324 C3338 1.377 . S
C3325 C3324 1.524 . S
C3325 C3326 1.397 . S
C3325 C3330 1.363 . S
C3326 H3303 0.950 . S
C3326 C3325 1.397 . S
C3326 C3327 1.334 . S
C3327 H3304 0.950 . S
C3327 C3326 1.334 . S
C3327 C3328 1.287 . S
C3328 C3327 1.287 . S
C3328 C3329 1.524 . S
C3328 H3347 0.913 . S
C3329 H3305 0.950 . S
C3329 C3328 1.524 . S
C3329 C3330 1.415 . S
C3330 H3306 0.950 . S
C3330 C3325 1.363 . S
C3330 C3329 1.415 . S
C3331 H3307 0.951 . S
C3331 C3332 1.366 . S
C3331 C3333 1.388 . S
C3332 C3331 1.366 . S
C3332 C3336 1.385 . S
C3333 H3308 0.951 . S
C3333 C3331 1.388 . S
C3333 C3334 1.366 . S
C3334 C3333 1.366 . S
C3334 C3335 1.414 . S
C3334 C3337 1.499 . S
C3335 H3309 0.950 . S
C3335 C3334 1.414 . S
C3335 C3336 1.374 . S
C3336 H3310 0.950 . S
C3336 C3332 1.385 . S
C3336 C3335 1.374 . S
C3337 C3334 1.499 . S
C3337 C3338 1.373 . S
C3337 C3339 1.389 . S
C3338 H3311 0.950 . S
C3338 C3324 1.377 . S
C3338 C3337 1.373 . S
C3339 C3323 1.377 . S
C3339 C3337 1.389 . S
C3339 C3340 1.524 . S
C3340 C3339 1.524 . S
C3340 C3341 1.397 . S
C3340 C3345 1.363 . S
C3341 H3312 0.950 . S
C3341 C3340 1.397 . S
C3341 C3342 1.334 . S
C3342 H3313 0.950 . S
C3342 C3341 1.334 . S
C3342 C3343 1.287 . S
C3343 C3342 1.287 . S
C3343 C3344 1.524 . S
C3343 H3346 0.999 . S
C3344 H3314 0.950 . S
C3344 C3343 1.524 . S
C3344 C3345 1.415 . S
C3345 H3315 0.950 . S
C3345 C3340 1.363 . S
C3345 C3344 1.415 . S
H3346 C3343 0.999 . S
H3347 C3328 0.913 . S
C982 C334 1.271 . S
C967 N2 1.412 . S
C1032 C434 2.258 . S
C1017 C7 2.267 . S
C1082 C514 1.212 . S
C1067 N12 1.383 . S
C1117 C16 2.018 . S
C1132 C591 2.042 . S
C1182 C675 2.279 . S
C1167 C30 2.292 1_565 S
C1232 C754 1.102 . S
C1217 N35 1.270 . S
C1267 C39 2.098 . S
C1282 C854 2.084 . S
C1332 C934 1.198 . S
C1317 N25 1.275 . S
C1382 C332 0.997 . S
C1367 N58 1.010 . S
C1417 N81 1.791 . S
C1432 C427 1.792 . S
C1482 C518 1.058 . S
C1467 N104 1.021 . S
C1517 N127 1.077 . S
C1532 C586 0.925 . S
C1582 C670 0.727 . S
C1567 N48 0.683 1_565 S
C1632 C752 1.462 . S
C1617 N71 1.442 1_556 S
C1667 N94 1.223 . S
C1682 C847 1.225 . S
C1732 C938 1.557 . S
C1717 N117 1.532 . S
C1767 C85 2.068 . S
C1782 C339 2.075 . S
C1817 C122 2.308 . S
C1832 C668 2.262 . S
C1867 C53 1.626 . S
C1882 C759 1.652 . S
C1932 C850 1.219 . S
C1917 C76 1.455 1_655 S
C1982 C931 1.592 . S
C1967 C99 1.667 . S
C2032 C511 1.889 . S
C2017 C131 1.919 . S
C2082 C584 1.690 . S
C2067 C62 1.724 1_565 S
C2117 C108 1.022 . S
C2132 C430 0.899 . S
C2182 C922 1.289 . S
C2167 N140 1.458 . S
C2217 C145 2.259 . S
C2232 C686 2.250 . S
C2282 C766 1.154 . S
C2267 N150 1.293 . S
C2317 C154 2.018 . S
C2332 C843 2.042 . S
C2382 C423 2.275 . S
C2367 C168 2.288 . S
C2417 N173 1.179 . S
C2432 C502 1.046 . S
C2482 C602 2.085 . S
C2467 C177 2.100 . S
C2532 C346 1.217 . S
C2517 N163 1.312 . S
C2582 C920 1.420 . S
C2567 C200 1.462 . S
C2632 C679 2.098 . S
C2617 N219 2.097 . S
C2667 N242 1.276 . S
C2682 C770 1.339 . S
C2732 C838 1.148 . S
C2717 C269 1.398 . S
C2782 C418 0.854 . S
C2767 C191 0.969 . S
C2817 N209 1.707 . S
C2832 C500 1.728 . S
C2867 N232 1.537 . S
C2882 C595 1.547 . S
C2917 C260 2.039 . S
C2932 C350 2.029 . S
C2967 C223 1.755 . S
C2982 C927 1.761 . S
C3017 N255 1.879 . S
C3032 C416 1.872 . S
C3067 N186 1.193 . S
C3082 C507 1.237 . S
C3132 C598 0.970 . S
C3117 C214 1.127 . S
C3182 C343 1.285 . S
C3167 C237 1.340 . S
C3232 C763 1.472 . S
C3217 N265 1.446 . S
C3282 C836 1.317 . S
C3267 N196 1.319 . S
C3332 C682 0.727 . S
C3317 C246 0.699 . S
