# Generated by pormake.
# Topology iac, (4,6)-cn, num edge types: 1
# Building blocks:
#     Node 0, Type 0, BuildingBlock: UXUYUI_clean_sbu_0, # of connection points: 4
#     Node 1, Type 0, BuildingBlock: UXUYUI_clean_sbu_0, # of connection points: 4
#     Node 2, Type 0, BuildingBlock: UXUYUI_clean_sbu_0, # of connection points: 4
#     Node 3, Type 0, BuildingBlock: UXUYUI_clean_sbu_0, # of connection points: 4
#     Node 4, Type 0, BuildingBlock: UXUYUI_clean_sbu_0, # of connection points: 4
#     Node 5, Type 0, BuildingBlock: UXUYUI_clean_sbu_0, # of connection points: 4
#     Node 6, Type 0, BuildingBlock: UXUYUI_clean_sbu_0, # of connection points: 4
#     Node 7, Type 0, BuildingBlock: UXUYUI_clean_sbu_0, # of connection points: 4
#     Node 8, Type 0, BuildingBlock: UXUYUI_clean_sbu_0, # of connection points: 4
#     Node 9, Type 0, BuildingBlock: UXUYUI_clean_sbu_0, # of connection points: 4
#     Node 10, Type 0, BuildingBlock: UXUYUI_clean_sbu_0, # of connection points: 4
#     Node 11, Type 0, BuildingBlock: UXUYUI_clean_sbu_0, # of connection points: 4
#     Node 12, Type 0, BuildingBlock: UXUYUI_clean_sbu_0, # of connection points: 4
#     Node 13, Type 0, BuildingBlock: UXUYUI_clean_sbu_0, # of connection points: 4
#     Node 14, Type 0, BuildingBlock: UXUYUI_clean_sbu_0, # of connection points: 4
#     Node 15, Type 0, BuildingBlock: UXUYUI_clean_sbu_0, # of connection points: 4
#     Node 16, Type 0, BuildingBlock: UXUYUI_clean_sbu_0, # of connection points: 4
#     Node 17, Type 0, BuildingBlock: UXUYUI_clean_sbu_0, # of connection points: 4
#     Node 18, Type 0, BuildingBlock: UXUYUI_clean_sbu_0, # of connection points: 4
#     Node 19, Type 0, BuildingBlock: UXUYUI_clean_sbu_0, # of connection points: 4
#     Node 20, Type 0, BuildingBlock: UXUYUI_clean_sbu_0, # of connection points: 4
#     Node 21, Type 0, BuildingBlock: UXUYUI_clean_sbu_0, # of connection points: 4
#     Node 22, Type 0, BuildingBlock: UXUYUI_clean_sbu_0, # of connection points: 4
#     Node 23, Type 0, BuildingBlock: UXUYUI_clean_sbu_0, # of connection points: 4
#     Node 24, Type 1, BuildingBlock: JUFBIX_clean_sbu_0, # of connection points: 6
#     Node 25, Type 1, BuildingBlock: JUFBIX_clean_sbu_0, # of connection points: 6
#     Node 26, Type 1, BuildingBlock: JUFBIX_clean_sbu_0, # of connection points: 6
#     Node 27, Type 1, BuildingBlock: JUFBIX_clean_sbu_0, # of connection points: 6
#     Node 28, Type 1, BuildingBlock: JUFBIX_clean_sbu_0, # of connection points: 6
#     Node 29, Type 1, BuildingBlock: JUFBIX_clean_sbu_0, # of connection points: 6
#     Node 30, Type 1, BuildingBlock: JUFBIX_clean_sbu_0, # of connection points: 6
#     Node 31, Type 1, BuildingBlock: JUFBIX_clean_sbu_0, # of connection points: 6
#     Node 32, Type 1, BuildingBlock: JUFBIX_clean_sbu_0, # of connection points: 6
#     Node 33, Type 1, BuildingBlock: JUFBIX_clean_sbu_0, # of connection points: 6
#     Node 34, Type 1, BuildingBlock: JUFBIX_clean_sbu_0, # of connection points: 6
#     Node 35, Type 1, BuildingBlock: JUFBIX_clean_sbu_0, # of connection points: 6
#     Node 36, Type 1, BuildingBlock: JUFBIX_clean_sbu_0, # of connection points: 6
#     Node 37, Type 1, BuildingBlock: JUFBIX_clean_sbu_0, # of connection points: 6
#     Node 38, Type 1, BuildingBlock: JUFBIX_clean_sbu_0, # of connection points: 6
#     Node 39, Type 1, BuildingBlock: JUFBIX_clean_sbu_0, # of connection points: 6
#     Edge 40, Type (0, 1), BuildingBlock: AJUNOK_clean_linker_0, # of connection points: 2
#     Edge 41, Type (0, 1), BuildingBlock: AJUNOK_clean_linker_0, # of connection points: 2
#     Edge 42, Type (0, 1), BuildingBlock: AJUNOK_clean_linker_0, # of connection points: 2
#     Edge 43, Type (0, 1), BuildingBlock: AJUNOK_clean_linker_0, # of connection points: 2
#     Edge 44, Type (0, 1), BuildingBlock: AJUNOK_clean_linker_0, # of connection points: 2
#     Edge 45, Type (0, 1), BuildingBlock: AJUNOK_clean_linker_0, # of connection points: 2
#     Edge 46, Type (0, 1), BuildingBlock: AJUNOK_clean_linker_0, # of connection points: 2
#     Edge 47, Type (0, 1), BuildingBlock: AJUNOK_clean_linker_0, # of connection points: 2
#     Edge 48, Type (0, 1), BuildingBlock: AJUNOK_clean_linker_0, # of connection points: 2
#     Edge 49, Type (0, 1), BuildingBlock: AJUNOK_clean_linker_0, # of connection points: 2
#     Edge 50, Type (0, 1), BuildingBlock: AJUNOK_clean_linker_0, # of connection points: 2
#     Edge 51, Type (0, 1), BuildingBlock: AJUNOK_clean_linker_0, # of connection points: 2
#     Edge 52, Type (0, 1), BuildingBlock: AJUNOK_clean_linker_0, # of connection points: 2
#     Edge 53, Type (0, 1), BuildingBlock: AJUNOK_clean_linker_0, # of connection points: 2
#     Edge 54, Type (0, 1), BuildingBlock: AJUNOK_clean_linker_0, # of connection points: 2
#     Edge 55, Type (0, 1), BuildingBlock: AJUNOK_clean_linker_0, # of connection points: 2
#     Edge 56, Type (0, 1), BuildingBlock: AJUNOK_clean_linker_0, # of connection points: 2
#     Edge 57, Type (0, 1), BuildingBlock: AJUNOK_clean_linker_0, # of connection points: 2
#     Edge 58, Type (0, 1), BuildingBlock: AJUNOK_clean_linker_0, # of connection points: 2
#     Edge 59, Type (0, 1), BuildingBlock: AJUNOK_clean_linker_0, # of connection points: 2
#     Edge 60, Type (0, 1), BuildingBlock: AJUNOK_clean_linker_0, # of connection points: 2
#     Edge 61, Type (0, 1), BuildingBlock: AJUNOK_clean_linker_0, # of connection points: 2
#     Edge 62, Type (0, 1), BuildingBlock: AJUNOK_clean_linker_0, # of connection points: 2
#     Edge 63, Type (0, 1), BuildingBlock: AJUNOK_clean_linker_0, # of connection points: 2
#     Edge 64, Type (0, 1), BuildingBlock: AJUNOK_clean_linker_0, # of connection points: 2
#     Edge 65, Type (0, 1), BuildingBlock: AJUNOK_clean_linker_0, # of connection points: 2
#     Edge 66, Type (0, 1), BuildingBlock: AJUNOK_clean_linker_0, # of connection points: 2
#     Edge 67, Type (0, 1), BuildingBlock: AJUNOK_clean_linker_0, # of connection points: 2
#     Edge 68, Type (0, 1), BuildingBlock: AJUNOK_clean_linker_0, # of connection points: 2
#     Edge 69, Type (0, 1), BuildingBlock: AJUNOK_clean_linker_0, # of connection points: 2
#     Edge 70, Type (0, 1), BuildingBlock: AJUNOK_clean_linker_0, # of connection points: 2
#     Edge 71, Type (0, 1), BuildingBlock: AJUNOK_clean_linker_0, # of connection points: 2
#     Edge 72, Type (0, 1), BuildingBlock: AJUNOK_clean_linker_0, # of connection points: 2
#     Edge 73, Type (0, 1), BuildingBlock: AJUNOK_clean_linker_0, # of connection points: 2
#     Edge 74, Type (0, 1), BuildingBlock: AJUNOK_clean_linker_0, # of connection points: 2
#     Edge 75, Type (0, 1), BuildingBlock: AJUNOK_clean_linker_0, # of connection points: 2
#     Edge 76, Type (0, 1), BuildingBlock: AJUNOK_clean_linker_0, # of connection points: 2
#     Edge 77, Type (0, 1), BuildingBlock: AJUNOK_clean_linker_0, # of connection points: 2
#     Edge 78, Type (0, 1), BuildingBlock: AJUNOK_clean_linker_0, # of connection points: 2
#     Edge 79, Type (0, 1), BuildingBlock: AJUNOK_clean_linker_0, # of connection points: 2
#     Edge 80, Type (0, 1), BuildingBlock: AJUNOK_clean_linker_0, # of connection points: 2
#     Edge 81, Type (0, 1), BuildingBlock: AJUNOK_clean_linker_0, # of connection points: 2
#     Edge 82, Type (0, 1), BuildingBlock: AJUNOK_clean_linker_0, # of connection points: 2
#     Edge 83, Type (0, 1), BuildingBlock: AJUNOK_clean_linker_0, # of connection points: 2
#     Edge 84, Type (0, 1), BuildingBlock: AJUNOK_clean_linker_0, # of connection points: 2
#     Edge 85, Type (0, 1), BuildingBlock: AJUNOK_clean_linker_0, # of connection points: 2
#     Edge 86, Type (0, 1), BuildingBlock: AJUNOK_clean_linker_0, # of connection points: 2
#     Edge 87, Type (0, 1), BuildingBlock: AJUNOK_clean_linker_0, # of connection points: 2
#     Edge 88, Type (0, 1), BuildingBlock: AJUNOK_clean_linker_0, # of connection points: 2
#     Edge 89, Type (0, 1), BuildingBlock: AJUNOK_clean_linker_0, # of connection points: 2
#     Edge 90, Type (0, 1), BuildingBlock: AJUNOK_clean_linker_0, # of connection points: 2
#     Edge 91, Type (0, 1), BuildingBlock: AJUNOK_clean_linker_0, # of connection points: 2
#     Edge 92, Type (0, 1), BuildingBlock: AJUNOK_clean_linker_0, # of connection points: 2
#     Edge 93, Type (0, 1), BuildingBlock: AJUNOK_clean_linker_0, # of connection points: 2
#     Edge 94, Type (0, 1), BuildingBlock: AJUNOK_clean_linker_0, # of connection points: 2
#     Edge 95, Type (0, 1), BuildingBlock: AJUNOK_clean_linker_0, # of connection points: 2
#     Edge 96, Type (0, 1), BuildingBlock: AJUNOK_clean_linker_0, # of connection points: 2
#     Edge 97, Type (0, 1), BuildingBlock: AJUNOK_clean_linker_0, # of connection points: 2
#     Edge 98, Type (0, 1), BuildingBlock: AJUNOK_clean_linker_0, # of connection points: 2
#     Edge 99, Type (0, 1), BuildingBlock: AJUNOK_clean_linker_0, # of connection points: 2
#     Edge 100, Type (0, 1), BuildingBlock: AJUNOK_clean_linker_0, # of connection points: 2
#     Edge 101, Type (0, 1), BuildingBlock: AJUNOK_clean_linker_0, # of connection points: 2
#     Edge 102, Type (0, 1), BuildingBlock: AJUNOK_clean_linker_0, # of connection points: 2
#     Edge 103, Type (0, 1), BuildingBlock: AJUNOK_clean_linker_0, # of connection points: 2
#     Edge 104, Type (0, 1), BuildingBlock: AJUNOK_clean_linker_0, # of connection points: 2
#     Edge 105, Type (0, 1), BuildingBlock: AJUNOK_clean_linker_0, # of connection points: 2
#     Edge 106, Type (0, 1), BuildingBlock: AJUNOK_clean_linker_0, # of connection points: 2
#     Edge 107, Type (0, 1), BuildingBlock: AJUNOK_clean_linker_0, # of connection points: 2
#     Edge 108, Type (0, 1), BuildingBlock: AJUNOK_clean_linker_0, # of connection points: 2
#     Edge 109, Type (0, 1), BuildingBlock: AJUNOK_clean_linker_0, # of connection points: 2
#     Edge 110, Type (0, 1), BuildingBlock: AJUNOK_clean_linker_0, # of connection points: 2
#     Edge 111, Type (0, 1), BuildingBlock: AJUNOK_clean_linker_0, # of connection points: 2
#     Edge 112, Type (0, 1), BuildingBlock: AJUNOK_clean_linker_0, # of connection points: 2
#     Edge 113, Type (0, 1), BuildingBlock: AJUNOK_clean_linker_0, # of connection points: 2
#     Edge 114, Type (0, 1), BuildingBlock: AJUNOK_clean_linker_0, # of connection points: 2
#     Edge 115, Type (0, 1), BuildingBlock: AJUNOK_clean_linker_0, # of connection points: 2
#     Edge 116, Type (0, 1), BuildingBlock: AJUNOK_clean_linker_0, # of connection points: 2
#     Edge 117, Type (0, 1), BuildingBlock: AJUNOK_clean_linker_0, # of connection points: 2
#     Edge 118, Type (0, 1), BuildingBlock: AJUNOK_clean_linker_0, # of connection points: 2
#     Edge 119, Type (0, 1), BuildingBlock: AJUNOK_clean_linker_0, # of connection points: 2
#     Edge 120, Type (0, 1), BuildingBlock: AJUNOK_clean_linker_0, # of connection points: 2
#     Edge 121, Type (0, 1), BuildingBlock: AJUNOK_clean_linker_0, # of connection points: 2
#     Edge 122, Type (0, 1), BuildingBlock: AJUNOK_clean_linker_0, # of connection points: 2
#     Edge 123, Type (0, 1), BuildingBlock: AJUNOK_clean_linker_0, # of connection points: 2
#     Edge 124, Type (0, 1), BuildingBlock: AJUNOK_clean_linker_0, # of connection points: 2
#     Edge 125, Type (0, 1), BuildingBlock: AJUNOK_clean_linker_0, # of connection points: 2
#     Edge 126, Type (0, 1), BuildingBlock: AJUNOK_clean_linker_0, # of connection points: 2
#     Edge 127, Type (0, 1), BuildingBlock: AJUNOK_clean_linker_0, # of connection points: 2
#     Edge 128, Type (0, 1), BuildingBlock: AJUNOK_clean_linker_0, # of connection points: 2
#     Edge 129, Type (0, 1), BuildingBlock: AJUNOK_clean_linker_0, # of connection points: 2
#     Edge 130, Type (0, 1), BuildingBlock: AJUNOK_clean_linker_0, # of connection points: 2
#     Edge 131, Type (0, 1), BuildingBlock: AJUNOK_clean_linker_0, # of connection points: 2
#     Edge 132, Type (0, 1), BuildingBlock: AJUNOK_clean_linker_0, # of connection points: 2
#     Edge 133, Type (0, 1), BuildingBlock: AJUNOK_clean_linker_0, # of connection points: 2
#     Edge 134, Type (0, 1), BuildingBlock: AJUNOK_clean_linker_0, # of connection points: 2
#     Edge 135, Type (0, 1), BuildingBlock: AJUNOK_clean_linker_0, # of connection points: 2
# Relax obj value: 0.271
# Max RMSD: 0.234
# Mean RMSD: 0.175
data_MOF--net-iac--node1-UXUYUI_clean_sbu_0--node2-JUFBIX_clean_sbu_0--edge1-AJUNOK_clean_linker_0
_symmetry_space_group_name_H-M    P1
_symmetry_Int_Tables_number       1
_symmetry_cell_setting            triclinic
loop_
_symmetry_equiv_pos_as_xyz
'x, y, z'
_cell_length_a     53.031266
_cell_length_b     54.16886
_cell_length_c     53.680294
_cell_angle_alpha  89.071917
_cell_angle_beta   87.923049
_cell_angle_gamma 88.373946
loop_
_atom_site_label
_atom_site_type_symbol
_atom_site_fract_x
_atom_site_fract_y
_atom_site_fract_z
_atom_type_partial_charge
Li0 Li 0.03841 0.305 0.13284 0.0
Li1 Li 0.06092 0.28152 0.16839 0.0
Li2 Li 0.03645 0.25673 0.13586 0.0
Li3 Li 0.01141 0.28266 0.16777 0.0
C4 C 0.08227 0.28138 0.11034 0.0
N5 N 0.11305 0.28739 0.06816 0.0
C6 C 0.10819 0.28435 0.11252 0.0
C7 C 0.07203 0.2814 0.08674 0.0
C8 C 0.12344 0.28737 0.09097 0.0
C9 C 0.08789 0.28447 0.06563 0.0
C10 C 0.04464 0.33165 0.17961 0.0
C11 C 0.04213 0.36396 0.21005 0.0
N12 N 0.0623 0.37479 0.19847 0.0
C13 C 0.06529 0.34312 0.16799 0.0
C14 C 0.03289 0.34216 0.20077 0.0
C15 C 0.07396 0.36491 0.17781 0.0
C16 C 0.01776 0.35193 0.11263 0.0
N17 N 0.03926 0.33742 0.11283 0.0
C18 C 0.06149 0.36967 0.09008 0.0
C19 C 0.06088 0.34597 0.10154 0.0
C20 C 0.0397 0.3853 0.09003 0.0
C21 C 0.01753 0.37568 0.10127 0.0
H22 H 1.00071 0.34528 0.12181 0.0
H23 H 0.07802 0.33471 0.10189 0.0
C24 C 0.09607 0.26619 0.20889 0.0
N25 N 0.09257 0.28209 0.18921 0.0
C26 C 0.11793 0.26677 0.22313 0.0
C27 C 0.13331 0.29938 0.19646 0.0
C28 C 0.11096 0.29848 0.18298 0.0
C29 C 0.13738 0.28331 0.21698 0.0
H30 H 0.08206 0.25272 0.21369 0.0
H31 H 0.10862 0.3108 0.16717 0.0
C32 C 0.99721 0.27446 0.1096 0.0
N33 N 0.97533 0.25702 0.06761 0.0
C34 C 0.98313 0.25302 0.11105 0.0
C35 C 0.99991 0.28718 0.08684 0.0
C36 C 0.97231 0.24444 0.08961 0.0
C37 C 0.98875 0.27804 0.06582 0.0
C38 C 0.0328 0.24551 0.19774 0.0
C39 C 0.03045 0.22035 0.20322 0.0
C40 C 0.03216 0.26245 0.21713 0.0
C41 C 0.02736 0.21258 0.22806 0.0
C42 C 0.02902 0.25395 0.24172 0.0
N43 N 0.02669 0.2294 0.24664 0.0
C44 C 0.04532 0.21806 0.09577 0.0
C45 C 0.0213 0.20517 0.13112 0.0
C46 C 0.04304 0.19462 0.08481 0.0
N47 N 0.03448 0.22317 0.11866 0.0
C48 C 0.01871 0.18148 0.12093 0.0
C49 C 0.02947 0.1757 0.09726 0.0
H50 H 0.05585 0.2321 0.08581 0.0
H51 H 0.01233 0.20925 0.14903 0.0
C52 C 0.95741 0.2776 0.17483 0.0
N53 N 0.97818 0.28455 0.18692 0.0
C54 C 0.93331 0.27819 0.1867 0.0
C55 C 0.95179 0.29339 0.22351 0.0
C56 C 0.9756 0.29251 0.21091 0.0
C57 C 0.93004 0.28622 0.21145 0.0
H58 H 0.95942 0.27165 0.15577 0.0
H59 H 0.99196 0.29818 0.22049 0.0
O60 O 0.06697 0.27886 0.13124 0.0
O61 O 0.03579 0.31041 0.17013 0.0
O62 O 0.00838 0.28292 0.13028 0.0
O63 O 0.03545 0.25362 0.17354 0.0
H64 H 0.11647 0.28423 0.13063 0.0
H65 H 0.05206 0.2791 0.08474 0.0
H66 H 0.14352 0.2897 0.09237 0.0
H67 H 0.08019 0.28456 0.04724 0.0
H68 H 0.03323 0.37229 0.22643 0.0
H69 H 0.07454 0.33523 0.15159 0.0
H70 H 0.01679 0.33361 0.20991 0.0
H71 H 0.08996 0.37395 0.169 0.0
H72 H 0.07902 0.37566 0.08131 0.0
H73 H 1.00019 0.38673 0.10195 0.0
H74 H 0.1193 0.25436 0.23904 0.0
H75 H 0.14752 0.31237 0.19048 0.0
H76 H 0.98085 0.24292 0.1285 0.0
H77 H 0.01063 0.30387 0.08538 0.0
H78 H 0.96156 0.22775 0.09044 0.0
H79 H 0.99079 0.28764 0.04806 0.0
H80 H 0.03114 0.20693 0.1885 0.0
H81 H 0.03437 0.28193 0.21323 0.0
H82 H 0.02552 0.19316 0.23258 0.0
H83 H 0.02851 0.26688 0.2569 0.0
H84 H 0.05222 0.19129 0.0668 0.0
H85 H 0.00791 0.16791 0.1314 0.0
H86 H 0.91728 0.27266 0.1764 0.0
H87 H 0.95056 0.29927 0.2427 0.0
Li88 Li 0.0138 0.77697 0.40497 0.0
Li89 Li 0.03772 0.79064 0.43853 0.0
Li90 Li 0.05884 0.7734 0.3989 0.0
Li91 Li 0.03655 0.74791 0.42898 0.0
C92 C 0.02535 0.822 0.39082 0.0
N93 N 0.99778 0.85702 0.36457 0.0
C94 C 0.00932 0.83884 0.40352 0.0
C95 C 0.02756 0.82309 0.36481 0.0
C96 C 0.9955 0.85638 0.38989 0.0
C97 C 0.0134 0.8409 0.35187 0.0
C98 C 0.98693 0.75577 0.44522 0.0
C99 C 0.95105 0.74406 0.47127 0.0
N100 N 0.94442 0.72797 0.45362 0.0
C101 C 0.97969 0.73916 0.42733 0.0
C102 C 0.97243 0.7583 0.46735 0.0
C103 C 0.95818 0.72527 0.43192 0.0
C104 C 0.98197 0.7815 0.36364 0.0
N105 N 0.98378 0.78528 0.38844 0.0
C106 C 0.94319 0.80543 0.39045 0.0
C107 C 0.96503 0.79707 0.40194 0.0
C108 C 0.9408 0.80147 0.36491 0.0
C109 C 0.96048 0.78942 0.35144 0.0
H110 H 0.99732 0.7729 0.35314 0.0
H111 H 0.96732 0.80048 0.4215 0.0
C112 C 0.05073 0.8357 0.45746 0.0
N113 N 0.03851 0.81454 0.46301 0.0
C114 C 0.04717 0.85601 0.47287 0.0
C115 C 0.01971 0.83177 0.50006 0.0
C116 C 0.02385 0.81189 0.48412 0.0
C117 C 0.03081 0.85435 0.49396 0.0
H118 H 0.06199 0.83721 0.44033 0.0
H119 H 0.01431 0.79479 0.48781 0.0
C120 C 0.03095 0.73621 0.37131 0.0
N121 N 0.02568 0.71066 0.32769 0.0
C122 C 0.02068 0.7127 0.37202 0.0
C123 C 0.03876 0.74659 0.34838 0.0
C124 C 0.0181 0.70013 0.34978 0.0
C125 C 0.03587 0.73343 0.32655 0.0
C126 C 0.07955 0.75261 0.45106 0.0
C127 C 0.09869 0.73621 0.44263 0.0
C128 C 0.07253 0.75306 0.47639 0.0
C129 C 0.11026 0.72022 0.45971 0.0
C130 C 0.08456 0.73678 0.49288 0.0
N131 N 0.10299 0.7208 0.48426 0.0
C132 C 0.09444 0.79418 0.36473 0.0
C133 C 0.09522 0.75052 0.3698 0.0
C134 C 0.11355 0.79259 0.34624 0.0
N135 N 0.08583 0.77326 0.37595 0.0
C136 C 0.11404 0.74805 0.35129 0.0
C137 C 0.12344 0.76925 0.33932 0.0
H138 H 0.08643 0.81197 0.3701 0.0
H139 H 0.08766 0.73429 0.379 0.0
C140 C 0.02903 0.71111 0.46573 0.0
N141 N 0.0388 0.7161 0.44254 0.0
C142 C 0.03278 0.68779 0.47639 0.0
C143 C 0.05664 0.67542 0.43909 0.0
C144 C 0.05238 0.69896 0.42914 0.0
C145 C 0.04692 0.66977 0.46305 0.0
H146 H 0.01878 0.72536 0.47608 0.0
H147 H 0.06036 0.70383 0.41095 0.0
O148 O 0.03851 0.80427 0.4038 0.0
O149 O 0.00803 0.76957 0.44129 0.0
O150 O 0.03435 0.74841 0.39307 0.0
O151 O 0.06736 0.7678 0.43453 0.0
H152 H 0.00728 0.83813 0.42364 0.0
H153 H 0.03981 0.81013 0.35471 0.0
H154 H 0.98287 0.86941 0.39945 0.0
H155 H 0.01475 0.84184 0.33172 0.0
H156 H 0.93971 0.74582 0.48834 0.0
H157 H 0.99035 0.73714 0.41 0.0
H158 H 0.97763 0.7711 0.48141 0.0
H159 H 0.95239 0.71237 0.41819 0.0
H160 H 0.92852 0.8151 0.4013 0.0
H161 H 0.95921 0.78605 0.33169 0.0
H162 H 0.05608 0.87319 0.46771 0.0
H163 H 0.00677 0.82997 0.51602 0.0
H164 H 0.01484 0.70416 0.38958 0.0
H165 H 0.04661 0.76478 0.34735 0.0
H166 H 0.01014 0.68195 0.35009 0.0
H167 H 0.04171 0.74133 0.3087 0.0
H168 H 0.10435 0.73564 0.42308 0.0
H169 H 0.05766 0.76558 0.48318 0.0
H170 H 0.12496 0.70728 0.45343 0.0
H171 H 0.07916 0.73675 0.51251 0.0
H172 H 0.12086 0.80938 0.33788 0.0
H173 H 0.12127 0.72978 0.34644 0.0
H174 H 0.0246 0.68384 0.49475 0.0
H175 H 0.06762 0.66189 0.42836 0.0
Li176 Li 0.55931 0.78273 0.66837 0.0
Li177 Li 0.53616 0.80708 0.63448 0.0
Li178 Li 0.51176 0.78296 0.66825 0.0
Li179 Li 0.53506 0.75721 0.63579 0.0
C180 C 0.5462 0.82716 0.68634 0.0
N181 N 0.57167 0.85763 0.71695 0.0
C182 C 0.56499 0.84232 0.6763 0.0
C183 C 0.54024 0.82755 0.7119 0.0
C184 C 0.57769 0.85758 0.6921 0.0
C185 C 0.55335 0.84308 0.72707 0.0
C186 C 0.5749 0.78064 0.60693 0.0
C187 C 0.56929 0.7781 0.56269 0.0
N188 N 0.59464 0.77997 0.55862 0.0
C189 C 0.60089 0.78249 0.60235 0.0
C190 C 0.55894 0.7784 0.58699 0.0
C191 C 0.6105 0.78213 0.57777 0.0
C192 C 0.59327 0.77279 0.7111 0.0
N193 N 0.59119 0.78383 0.68817 0.0
C194 C 0.63401 0.79772 0.69051 0.0
C195 C 0.61122 0.79613 0.67789 0.0
C196 C 0.6367 0.78677 0.71435 0.0
C197 C 0.61573 0.77401 0.72441 0.0
H198 H 0.57752 0.76292 0.71924 0.0
H199 H 0.6096 0.80478 0.6597 0.0
C200 C 0.5175 0.85656 0.62015 0.0
N201 N 0.53674 0.83985 0.61522 0.0
C202 C 0.51718 0.88036 0.60898 0.0
C203 C 0.55689 0.87031 0.58815 0.0
C204 C 0.55634 0.84653 0.59952 0.0
C205 C 0.53704 0.88777 0.59259 0.0
H206 H 0.50248 0.85166 0.6333 0.0
H207 H 0.57193 0.83361 0.59605 0.0
C208 C 0.52724 0.74091 0.69322 0.0
N209 N 0.50847 0.71473 0.73406 0.0
C210 C 0.51941 0.71671 0.69052 0.0
C211 C 0.52552 0.75181 0.71665 0.0
C212 C 0.50999 0.70377 0.71142 0.0
C213 C 0.51597 0.73827 0.73708 0.0
C214 C 0.48195 0.78094 0.62949 0.0
C215 C 0.47115 0.75779 0.63258 0.0
C216 C 0.46642 0.8019 0.62612 0.0
C217 C 0.44492 0.75604 0.63236 0.0
C218 C 0.44027 0.79939 0.62604 0.0
N219 N 0.43015 0.7767 0.62916 0.0
C220 C 0.46734 0.80619 0.69391 0.0
C221 C 0.46621 0.76271 0.693 0.0
C222 C 0.44283 0.80745 0.70512 0.0
N223 N 0.47859 0.78402 0.6878 0.0
C224 C 0.44186 0.76313 0.7043 0.0
C225 C 0.42939 0.78573 0.71012 0.0
H226 H 0.47709 0.82305 0.68943 0.0
H227 H 0.4748 0.74521 0.68764 0.0
C228 C 0.5491 0.70497 0.62575 0.0
N229 N 0.53431 0.7243 0.61761 0.0
C230 C 0.54754 0.68112 0.61561 0.0
C231 C 0.51597 0.69699 0.58824 0.0
C232 C 0.51816 0.72059 0.59884 0.0
C233 C 0.53044 0.67645 0.59678 0.0
H234 H 0.56193 0.70787 0.64057 0.0
H235 H 0.50643 0.73585 0.59233 0.0
O236 O 0.53412 0.81156 0.6713 0.0
O237 O 0.56514 0.78108 0.63084 0.0
O238 O 0.53623 0.75398 0.67296 0.0
O239 O 0.50753 0.78308 0.63049 0.0
H240 H 0.56995 0.84206 0.65657 0.0
H241 H 0.52566 0.81597 0.71991 0.0
H242 H 0.5924 0.8693 0.68462 0.0
H243 H 0.54899 0.84355 0.74691 0.0
H244 H 0.55717 0.7764 0.54706 0.0
H245 H 0.61349 0.78418 0.6176 0.0
H246 H 0.53878 0.77695 0.59021 0.0
H247 H 0.63058 0.78356 0.57392 0.0
H248 H 0.64956 0.80716 0.68133 0.0
H249 H 0.61654 0.7652 0.74262 0.0
H250 H 0.50173 0.89311 0.61373 0.0
H251 H 0.57275 0.87494 0.57585 0.0
H252 H 0.52039 0.70807 0.67248 0.0
H253 H 0.53128 0.7706 0.71897 0.0
H254 H 0.50381 0.68504 0.70961 0.0
H255 H 0.51446 0.7465 0.75532 0.0
H256 H 0.48285 0.74143 0.6357 0.0
H257 H 0.47444 0.81994 0.62372 0.0
H258 H 0.4363 0.73827 0.63496 0.0
H259 H 0.42802 0.81548 0.62356 0.0
H260 H 0.4342 0.82537 0.70914 0.0
H261 H 0.43283 0.74576 0.70823 0.0
H262 H 0.55987 0.6665 0.62251 0.0
H263 H 0.5025 0.69479 0.57381 0.0
Li264 Li 0.52494 0.27667 0.9046 0.0
Li265 Li 0.54692 0.28767 0.94129 0.0
Li266 Li 0.56999 0.27452 0.90332 0.0
Li267 Li 0.54725 0.24567 0.92929 0.0
C268 C 0.53571 0.32305 0.89659 0.0
N269 N 0.50768 0.35988 0.87333 0.0
C270 C 0.51975 0.33885 0.91069 0.0
C271 C 0.53755 0.3261 0.87069 0.0
C272 C 0.50573 0.35735 0.89857 0.0
C273 C 0.52317 0.34478 0.85927 0.0
C274 C 0.50269 0.25007 0.95185 0.0
C275 C 0.49418 0.22312 0.98719 0.0
N276 N 0.47344 0.215 0.97597 0.0
C277 C 0.48126 0.24151 0.9407 0.0
C278 C 0.50917 0.2409 0.97534 0.0
C279 C 0.46671 0.22377 0.9532 0.0
C280 C 0.49459 0.27828 0.86236 0.0
N281 N 0.49596 0.28453 0.88666 0.0
C282 C 0.45531 0.30442 0.88628 0.0
C283 C 0.4769 0.29719 0.89881 0.0
C284 C 0.45354 0.29854 0.86108 0.0
C285 C 0.47339 0.28521 0.84908 0.0
H286 H 0.50987 0.26793 0.85332 0.0
H287 H 0.4786 0.30178 0.9182 0.0
C288 C 0.55891 0.33093 0.96528 0.0
N289 N 0.54483 0.31041 0.9675 0.0
C290 C 0.55337 0.35104 0.98057 0.0
C291 C 0.52004 0.32787 1.00114 0.0
C292 C 0.52618 0.30821 0.98539 0.0
C293 C 0.53312 0.34989 0.9981 0.0
H294 H 0.57317 0.33233 0.95045 0.0
H295 H 0.51487 0.29196 0.98626 0.0
C296 C 0.5573 0.23815 0.8723 0.0
N297 N 0.58105 0.21649 0.83114 0.0
C298 C 0.56586 0.21352 0.8735 0.0
C299 C 0.56067 0.25169 0.85008 0.0
C300 C 0.57784 0.20292 0.8525 0.0
C301 C 0.57278 0.24044 0.82952 0.0
C302 C 0.59151 0.27434 0.95534 0.0
C303 C 0.61072 0.29026 0.94781 0.0
C304 C 0.58725 0.269 0.98068 0.0
C305 C 0.62532 0.3007 0.96584 0.0
C306 C 0.60223 0.27984 0.99813 0.0
N307 N 0.62079 0.29534 0.99041 0.0
C308 C 0.60645 0.29724 0.87099 0.0
C309 C 0.61329 0.25491 0.8814 0.0
C310 C 0.62793 0.29684 0.85521 0.0
N311 N 0.59956 0.27635 0.88342 0.0
C312 C 0.63419 0.25339 0.86509 0.0
C313 C 0.64197 0.2746 0.85195 0.0
H314 H 0.59525 0.3141 0.87328 0.0
H315 H 0.60744 0.23874 0.8919 0.0
C316 C 0.53075 0.19675 0.93508 0.0
N317 N 0.54892 0.21282 0.94043 0.0
C318 C 0.532 0.17265 0.94447 0.0
C319 C 0.57167 0.18172 0.96283 0.0
C320 C 0.56942 0.20571 0.95346 0.0
C321 C 0.55241 0.16514 0.959 0.0
H322 H 0.51512 0.20279 0.9239 0.0
H323 H 0.58394 0.21874 0.95673 0.0
O324 O 0.54912 0.30443 0.90804 0.0
O325 O 0.51731 0.26727 0.93982 0.0
O326 O 0.54581 0.24892 0.89281 0.0
O327 O 0.57674 0.2642 0.93804 0.0
H328 H 0.51787 0.33663 0.93072 0.0
H329 H 0.54977 0.31402 0.8595 0.0
H330 H 0.49319 0.36962 0.90923 0.0
H331 H 0.52427 0.34724 0.83923 0.0
H332 H 0.49908 0.21572 0.00528 0.0
H333 H 0.47603 0.2483 0.92249 0.0
H334 H 0.52581 0.24719 0.98415 0.0
H335 H 0.45013 0.2169 0.94475 0.0
H336 H 0.44024 0.31459 0.89608 0.0
H337 H 0.47232 0.27988 0.82979 0.0
H338 H 0.56376 0.36785 0.97772 0.0
H339 H 0.50404 0.32655 0.01417 0.0
H340 H 0.56348 0.20274 0.8905 0.0
H341 H 0.55448 0.27085 0.84888 0.0
H342 H 0.58464 0.18392 0.85321 0.0
H343 H 0.57572 0.25079 0.8123 0.0
H344 H 0.61421 0.29467 0.9283 0.0
H345 H 0.57241 0.25675 0.98679 0.0
H346 H 0.6402 0.31312 0.96031 0.0
H347 H 0.59908 0.27596 0.01781 0.0
H348 H 0.63348 0.31371 0.84569 0.0
H349 H 0.64378 0.23566 0.86258 0.0
H350 H 0.51685 0.16028 0.94106 0.0
H351 H 0.58805 0.17632 0.97332 0.0
Li352 Li 0.1347 0.0101 0.32746 0.0
Li353 Li 0.16879 0.03396 0.30926 0.0
Li354 Li 0.14211 0.01045 0.28348 0.0
Li355 Li 0.17282 0.99049 0.3102 0.0
C356 C 0.11388 0.05296 0.31581 0.0
N357 N 0.07681 0.08013 0.34157 0.0
C358 C 0.12023 0.07354 0.32942 0.0
C359 C 0.08862 0.04629 0.31524 0.0
C360 C 0.10122 0.08703 0.3423 0.0
C361 C 0.07018 0.06022 0.32842 0.0
C362 C 0.18326 0.99939 0.35595 0.0
C363 C 0.22333 0.98452 0.37102 0.0
N364 N 0.21101 0.9711 0.38905 0.0
C365 C 0.17101 0.98544 0.37463 0.0
C366 C 0.20965 0.99897 0.35414 0.0
C367 C 0.18537 0.97127 0.39118 0.0
C368 C 0.08994 0.9953 0.35493 0.0
N369 N 0.11039 0.00994 0.35381 0.0
C370 C 0.09732 0.02948 0.39164 0.0
C371 C 0.11451 0.02655 0.37175 0.0
C372 C 0.07573 0.01509 0.39312 0.0
C373 C 0.07221 0.99752 0.37474 0.0
H374 H 0.08736 0.98208 0.34045 0.0
H375 H 0.13115 0.03765 0.37042 0.0
C376 C 0.18089 0.08181 0.29403 0.0
N377 N 0.18587 0.06368 0.31108 0.0
C378 C 0.19313 0.10417 0.29486 0.0
C379 C 0.21517 0.0887 0.33088 0.0
C380 C 0.2025 0.06666 0.32935 0.0
C381 C 0.21036 0.10778 0.31358 0.0
H382 H 0.16728 0.07889 0.27991 0.0
H383 H 0.20583 0.05198 0.34277 0.0
C384 C 0.12591 0.96585 0.29039 0.0
N385 N 0.10343 0.93595 0.25689 0.0
C386 C 0.14018 0.94749 0.27785 0.0
C387 C 0.1002 0.96895 0.28593 0.0
C388 C 0.12845 0.93254 0.26103 0.0
C389 C 0.0892 0.9537 0.26886 0.0
C390 C 0.19573 0.0268 0.26827 0.0
C391 C 0.18813 0.03953 0.24683 0.0
C392 C 0.21998 0.02999 0.27687 0.0
C393 C 0.2049 0.05536 0.23442 0.0
C394 C 0.23617 0.04604 0.26398 0.0
N395 N 0.22836 0.05829 0.2432 0.0
C396 C 0.10512 0.0227 0.24896 0.0
C397 C 0.13732 0.99477 0.23415 0.0
C398 C 0.09255 0.02107 0.22675 0.0
N399 N 0.12679 0.00931 0.25236 0.0
C400 C 0.12548 0.99275 0.21152 0.0
C401 C 0.10263 0.00573 0.2079 0.0
H402 H 0.09749 0.03447 0.26354 0.0
H403 H 0.15473 0.98452 0.23739 0.0
C404 C 0.18621 0.9434 0.32711 0.0
N405 N 0.19461 0.96277 0.31306 0.0
C406 C 0.19886 0.92058 0.3257 0.0
C407 C 0.22952 0.93867 0.29683 0.0
C408 C 0.21621 0.96115 0.29871 0.0
C409 C 0.22015 0.91798 0.30965 0.0
H410 H 0.16867 0.94524 0.33792 0.0
H411 H 0.22208 0.97674 0.28737 0.0
O412 O 0.13231 0.03913 0.30356 0.0
O413 O 0.16954 0.01318 0.33937 0.0
O414 O 0.13714 0.98103 0.30656 0.0
O415 O 0.17942 0.01155 0.28093 0.0
H416 H 0.13964 0.0789 0.33035 0.0
H417 H 0.08335 0.03013 0.30527 0.0
H418 H 0.1059 0.10292 0.353 0.0
H419 H 0.05062 0.05509 0.32835 0.0
H420 H 0.24374 0.98391 0.36974 0.0
H421 H 0.15063 0.98532 0.37621 0.0
H422 H 0.21947 0.00936 0.33961 0.0
H423 H 0.17613 0.96033 0.40568 0.0
H424 H 0.10106 0.04265 0.40593 0.0
H425 H 0.05594 0.98586 0.37564 0.0
H426 H 0.1889 0.11859 0.28131 0.0
H427 H 0.22863 0.09079 0.34536 0.0
H428 H 0.16014 0.94497 0.2808 0.0
H429 H 0.08896 0.98329 0.29518 0.0
H430 H 0.13927 0.91831 0.25116 0.0
H431 H 0.06938 0.95605 0.26505 0.0
H432 H 0.16939 0.03745 0.23999 0.0
H433 H 0.22608 0.02053 0.2936 0.0
H434 H 0.19923 0.06542 0.21788 0.0
H435 H 0.2549 0.04884 0.27055 0.0
H436 H 0.07517 0.03168 0.22431 0.0
H437 H 0.13375 0.98082 0.19723 0.0
H438 H 0.19096 0.90471 0.33536 0.0
H439 H 0.24559 0.93695 0.28386 0.0
Li440 Li 0.25053 0.90554 0.52685 0.0
Li441 Li 0.27111 0.87828 0.55594 0.0
Li442 Li 0.29536 0.90396 0.52707 0.0
Li443 Li 0.27396 0.86851 0.513 0.0
C444 C 0.28556 0.9319 0.56513 0.0
N445 N 0.31597 0.96615 0.58582 0.0
C446 C 0.29887 0.92579 0.58649 0.0
C447 C 0.28767 0.95546 0.55435 0.0
C448 C 0.31412 0.94338 0.59668 0.0
C449 C 0.30319 0.97249 0.56505 0.0
C450 C 0.22738 0.85871 0.55062 0.0
C451 C 0.21593 0.82226 0.5743 0.0
N452 N 0.19726 0.83555 0.58641 0.0
C453 C 0.208 0.872 0.5632 0.0
C454 C 0.23131 0.83361 0.55607 0.0
C455 C 0.19299 0.85995 0.58125 0.0
C456 C 0.20276 0.91898 0.50867 0.0
N457 N 0.22155 0.92585 0.52342 0.0
C458 C 0.1972 0.96078 0.53773 0.0
C459 C 0.2193 0.94633 0.53766 0.0
C460 C 0.17725 0.95385 0.52318 0.0
C461 C 0.18032 0.93297 0.50809 0.0
H462 H 0.20501 0.90232 0.49788 0.0
H463 H 0.23429 0.95098 0.54965 0.0
C464 C 0.27873 0.84444 0.59572 0.0
N465 N 0.26754 0.86621 0.58887 0.0
C466 C 0.27491 0.83521 0.61986 0.0
C467 C 0.2487 0.87135 0.62957 0.0
C468 C 0.25283 0.87977 0.60514 0.0
C469 C 0.25962 0.8487 0.63698 0.0
H470 H 0.29046 0.83421 0.58243 0.0
H471 H 0.24419 0.89704 0.59901 0.0
C472 C 0.26082 0.91347 0.47968 0.0
N473 N 0.232 0.93634 0.44362 0.0
C474 C 0.24895 0.89937 0.46217 0.0
C475 C 0.25802 0.93922 0.4788 0.0
C476 C 0.2345 0.91128 0.44408 0.0
C477 C 0.24335 0.95042 0.46046 0.0
C478 C 0.3176 0.85046 0.52799 0.0
C479 C 0.34029 0.85589 0.51527 0.0
C480 C 0.31065 0.82586 0.53108 0.0
C481 C 0.35558 0.83659 0.50572 0.0
C482 C 0.32643 0.8071 0.52122 0.0
N483 N 0.34839 0.81281 0.50885 0.0
C484 C 0.34319 0.92082 0.53841 0.0
C485 C 0.32585 0.93775 0.50152 0.0
C486 C 0.36426 0.93545 0.53519 0.0
N487 N 0.32443 0.92255 0.52185 0.0
C488 C 0.34653 0.95272 0.49757 0.0
C489 C 0.36584 0.95186 0.51472 0.0
H490 H 0.34163 0.90818 0.55417 0.0
H491 H 0.31084 0.93838 0.48847 0.0
C492 C 0.26112 0.82551 0.48585 0.0
N493 N 0.27711 0.84445 0.48819 0.0
C494 C 0.26336 0.81052 0.46487 0.0
C495 C 0.299 0.83433 0.45007 0.0
C496 C 0.29599 0.84885 0.47108 0.0
C497 C 0.28205 0.81547 0.44644 0.0
H498 H 0.24608 0.82272 0.49966 0.0
H499 H 0.30809 0.86432 0.47335 0.0
O500 O 0.27097 0.91476 0.55452 0.0
O501 O 0.24277 0.87034 0.53343 0.0
O502 O 0.27496 0.90217 0.49767 0.0
O503 O 0.30222 0.86913 0.53723 0.0
H504 H 0.29776 0.90758 0.59493 0.0
H505 H 0.27781 0.96041 0.53761 0.0
H506 H 0.3246 0.93887 0.61313 0.0
H507 H 0.30516 0.9907 0.55677 0.0
H508 H 0.2189 0.8029 0.57888 0.0
H509 H 0.20479 0.89147 0.55933 0.0
H510 H 0.2463 0.8231 0.54659 0.0
H511 H 0.17802 0.87003 0.59125 0.0
H512 H 0.19535 0.97662 0.54979 0.0
H513 H 0.16535 0.92727 0.49643 0.0
H514 H 0.28399 0.81785 0.62522 0.0
H515 H 0.23693 0.88221 0.64244 0.0
H516 H 0.25068 0.87945 0.46259 0.0
H517 H 0.26675 0.95043 0.4924 0.0
H518 H 0.2252 0.90059 0.43044 0.0
H519 H 0.24091 0.97031 0.45968 0.0
H520 H 0.34594 0.87478 0.51255 0.0
H521 H 0.293 0.82132 0.54054 0.0
H522 H 0.37313 0.84054 0.49575 0.0
H523 H 0.32118 0.78801 0.5233 0.0
H524 H 0.37914 0.93394 0.54847 0.0
H525 H 0.34724 0.96512 0.48154 0.0
H526 H 0.24989 0.79617 0.46242 0.0
H527 H 0.31368 0.83851 0.43621 0.0
Li528 Li 0.37555 0.03309 0.76293 0.0
Li529 Li 0.41345 0.04353 0.78336 0.0
Li530 Li 0.38736 0.07513 0.76365 0.0
Li531 Li 0.4126 0.04667 0.73959 0.0
C532 C 0.36587 0.06941 0.80831 0.0
N533 N 0.34145 0.10295 0.83977 0.0
C534 C 0.37769 0.07742 0.82947 0.0
C535 C 0.34158 0.07837 0.80322 0.0
C536 C 0.36502 0.09438 0.84515 0.0
C537 C 0.32958 0.09537 0.81931 0.0
C538 C 0.42099 0.99729 0.77164 0.0
C539 C 0.45902 0.97558 0.78389 0.0
N540 N 0.44488 0.95983 0.79814 0.0
C541 C 0.40683 0.98084 0.78636 0.0
C542 C 0.4473 0.9946 0.77031 0.0
C543 C 0.41926 0.96202 0.79962 0.0
C544 C 0.35122 0.99103 0.74907 0.0
N545 N 0.34939 0.01061 0.76457 0.0
C546 C 0.3171 0.99161 0.78946 0.0
C547 C 0.33226 0.01168 0.78397 0.0
C548 C 0.32004 0.97036 0.77496 0.0
C549 C 0.33644 0.97056 0.75387 0.0
H550 H 0.3656 0.99049 0.73427 0.0
H551 H 0.33168 0.02726 0.79628 0.0
C552 C 0.45664 0.04117 0.81331 0.0
N553 N 0.43215 0.03501 0.81128 0.0
C554 C 0.46947 0.0345 0.83473 0.0
C555 C 0.43162 0.01517 0.85117 0.0
C556 C 0.41959 0.02214 0.8295 0.0
C557 C 0.4567 0.02171 0.85404 0.0
H558 H 0.46605 0.05149 0.7985 0.0
H559 H 0.40011 0.01753 0.8272 0.0
C560 C 0.35877 0.04841 0.72041 0.0
N561 N 0.32124 0.03021 0.69205 0.0
C562 C 0.36499 0.03276 0.70054 0.0
C563 C 0.33349 0.05492 0.72579 0.0
C564 C 0.34573 0.02373 0.68643 0.0
C565 C 0.31478 0.04548 0.71126 0.0
C566 C 0.44356 0.08217 0.7493 0.0
C567 C 0.44003 0.10553 0.7383 0.0
C568 C 0.46656 0.06929 0.74551 0.0
C569 C 0.4595 0.11547 0.72342 0.0
C570 C 0.48554 0.07984 0.73045 0.0
N571 N 0.48164 0.10252 0.7198 0.0
C572 C 0.37982 0.12373 0.78175 0.0
C573 C 0.3632 0.11523 0.74242 0.0
C574 C 0.36974 0.14773 0.78082 0.0
N575 N 0.37554 0.10789 0.76311 0.0
C576 C 0.35323 0.13912 0.74049 0.0
C577 C 0.35575 0.15536 0.76023 0.0
H578 H 0.39063 0.11759 0.79748 0.0
H579 H 0.361 0.1025 0.72744 0.0
C580 C 0.44715 0.02739 0.70268 0.0
N581 N 0.43026 0.04565 0.70916 0.0
C582 C 0.46053 0.0289 0.67993 0.0
C583 C 0.43852 0.06774 0.67123 0.0
C584 C 0.42549 0.06538 0.69398 0.0
C585 C 0.45622 0.04932 0.66404 0.0
H586 H 0.45031 0.01188 0.71519 0.0
H587 H 0.41186 0.07953 0.69987 0.0
O588 O 0.37797 0.05287 0.79268 0.0
O589 O 0.40922 0.01617 0.75893 0.0
O590 O 0.37728 0.05721 0.73467 0.0
O591 O 0.42452 0.07189 0.7635 0.0
H592 H 0.39653 0.07081 0.83364 0.0
H593 H 0.33222 0.07247 0.78685 0.0
H594 H 0.37397 0.10079 0.86154 0.0
H595 H 0.31086 0.10258 0.8155 0.0
H596 H 0.47937 0.97341 0.78317 0.0
H597 H 0.38649 0.98275 0.78791 0.0
H598 H 0.45858 0.00729 0.75922 0.0
H599 H 0.40854 0.94925 0.81119 0.0
H600 H 0.30448 0.99201 0.80579 0.0
H601 H 0.33934 0.95432 0.74249 0.0
H602 H 0.48883 0.03989 0.83654 0.0
H603 H 0.42136 0.0051 0.86569 0.0
H604 H 0.38443 0.0274 0.6962 0.0
H605 H 0.32838 0.06702 0.74111 0.0
H606 H 0.35025 0.01151 0.67107 0.0
H607 H 0.29513 0.05027 0.71527 0.0
H608 H 0.42239 0.11579 0.74102 0.0
H609 H 0.46956 0.05111 0.75368 0.0
H610 H 0.45697 0.13346 0.71468 0.0
H611 H 0.50332 0.06995 0.72714 0.0
H612 H 0.37219 0.15992 0.7963 0.0
H613 H 0.34326 0.14469 0.72397 0.0
H614 H 0.47401 0.01431 0.67475 0.0
H615 H 0.43507 0.08391 0.65958 0.0
Li616 Li 0.27574 0.17646 0.05909 0.0
Li617 Li 0.29955 0.1433 0.03442 0.0
Li618 Li 0.27473 0.1782 0.01092 0.0
Li619 Li 0.25065 0.14386 0.03372 0.0
C620 C 0.3184 0.19789 0.04333 0.0
N621 N 0.34581 0.23395 0.06493 0.0
C622 C 0.34083 0.19156 0.05505 0.0
C623 C 0.30997 0.22255 0.04246 0.0
C624 C 0.35441 0.21006 0.0659 0.0
C625 C 0.32407 0.24051 0.05353 0.0
C626 C 0.27707 0.11818 0.07697 0.0
C627 C 0.26986 0.07483 0.0844 0.0
N628 N 0.28285 0.07569 0.10574 0.0
C629 C 0.29002 0.11868 0.09916 0.0
C630 C 0.26663 0.09612 0.0697 0.0
C631 C 0.29289 0.097 0.11336 0.0
C632 C 0.26067 0.21176 0.10034 0.0
N633 N 0.27822 0.19457 0.09198 0.0
C634 C 0.30081 0.19902 0.13004 0.0
C635 C 0.29825 0.18851 0.10639 0.0
C636 C 0.28287 0.21653 0.13935 0.0
C637 C 0.26278 0.22309 0.12378 0.0
H638 H 0.24481 0.21663 0.08897 0.0
H639 H 0.31242 0.1753 0.09961 0.0
C640 C 0.34243 0.1154 0.01183 0.0
N641 N 0.33176 0.1233 0.0339 0.0
C642 C 0.36592 0.10256 0.01098 0.0
C643 C 0.36757 0.10636 0.05549 0.0
C644 C 0.34401 0.11902 0.05551 0.0
C645 C 0.379 0.09783 0.03302 0.0
H646 H 0.33294 0.11945 0.99467 0.0
H647 H 0.33582 0.12594 0.07283 0.0
C648 C 0.23022 0.1983 0.02544 0.0
N649 N 0.20021 0.23302 1.00147 0.0
C650 C 0.21199 0.19078 0.00923 0.0
C651 C 0.23312 0.22344 0.02959 0.0
C652 C 0.19703 0.20863 0.99725 0.0
C653 C 0.21777 0.24072 0.01726 0.0
C654 C 0.27605 0.1202 0.99175 0.0
C655 C 0.26962 0.12108 0.96671 0.0
C656 C 0.2825 0.0975 0.00286 0.0
C657 C 0.26921 0.09915 0.9534 0.0
C658 C 0.28191 0.07598 0.98892 0.0
N659 N 0.27528 0.07724 0.96469 0.0
C660 C 0.2902 0.21708 0.9733 0.0
C661 C 0.25755 0.1917 0.96129 0.0
C662 C 0.29014 0.22954 0.9499 0.0
N663 N 0.27404 0.1984 0.97873 0.0
C664 C 0.25718 0.20333 0.93759 0.0
C665 C 0.27348 0.22282 0.93134 0.0
H666 H 0.30348 0.22225 0.98698 0.0
H667 H 0.24482 0.17686 0.96556 0.0
C668 C 0.20499 0.1194 0.05403 0.0
N669 N 0.21896 0.1239 0.03266 0.0
C670 C 0.18264 0.10583 0.0537 0.0
C671 C 0.18892 0.10159 0.00941 0.0
C672 C 0.21109 0.11531 0.01055 0.0
C673 C 0.17418 0.09641 0.03117 0.0
H674 H 0.21109 0.1265 0.07148 0.0
H675 H 0.22186 0.11923 0.99357 0.0
O676 O 0.30448 0.17998 0.03322 0.0
O677 O 0.27381 0.13931 0.06292 0.0
O678 O 0.24546 0.18112 0.03682 0.0
O679 O 0.27651 0.14148 0.00515 0.0
H680 H 0.34759 0.17255 0.05592 0.0
H681 H 0.29263 0.22772 0.03348 0.0
H682 H 0.37175 0.20543 0.07513 0.0
H683 H 0.31772 0.25966 0.05309 0.0
H684 H 0.26196 0.05764 0.07889 0.0
H685 H 0.2979 0.13556 0.10537 0.0
H686 H 0.25603 0.09538 0.05293 0.0
H687 H 0.30304 0.09714 0.13047 0.0
H688 H 0.31693 0.1936 0.14089 0.0
H689 H 0.24844 0.2365 0.12991 0.0
H690 H 0.37408 0.09704 0.99308 0.0
H691 H 0.3768 0.10334 0.07299 0.0
H692 H 0.20962 0.17138 0.00575 0.0
H693 H 0.2471 0.22953 0.04215 0.0
H694 H 0.18294 0.20309 0.98454 0.0
H695 H 0.21984 0.26025 0.02023 0.0
H696 H 0.26497 0.13845 0.95761 0.0
H697 H 0.28838 0.09653 0.02189 0.0
H698 H 0.26412 0.09957 0.93406 0.0
H699 H 0.28686 0.05831 0.99733 0.0
H700 H 0.30313 0.24437 0.94644 0.0
H701 H 0.24453 0.19647 0.92411 0.0
H702 H 0.17184 0.10322 0.07098 0.0
H703 H 0.18348 0.09496 0.99152 0.0
Li704 Li 0.74311 0.41059 0.03326 0.0
Li705 Li 0.76385 0.38366 0.06256 0.0
Li706 Li 0.78898 0.40915 0.03377 0.0
Li707 Li 0.76552 0.37409 0.02003 0.0
C708 C 0.75304 0.43724 0.07513 0.0
N709 N 0.72758 0.47208 0.10435 0.0
C710 C 0.73415 0.43006 0.09236 0.0
C711 C 0.75923 0.46213 0.07305 0.0
C712 C 0.72141 0.44795 0.10687 0.0
C713 C 0.74608 0.47946 0.08792 0.0
C714 C 0.72105 0.35891 0.0315 0.0
C715 C 0.71064 0.31639 0.02561 0.0
N716 N 0.6933 0.32379 0.00878 0.0
C717 C 0.70309 0.3661 0.01418 0.0
C718 C 0.72483 0.33387 0.03733 0.0
C719 C 0.68926 0.34806 0.00289 0.0
C720 C 0.70898 0.44879 0.01433 0.0
N721 N 0.71318 0.42994 0.03084 0.0
C722 C 0.6717 0.43507 0.04895 0.0
C723 C 0.69505 0.42283 0.04778 0.0
C724 C 0.66694 0.45464 0.0323 0.0
C725 C 0.68582 0.46162 0.01486 0.0
H726 H 0.72326 0.45388 1.00063 0.0
H727 H 0.69877 0.40754 0.06042 0.0
C728 C 0.77846 0.37747 0.11213 0.0
N729 N 0.76102 0.37164 0.09544 0.0
C730 C 0.77662 0.36814 0.13643 0.0
C731 C 0.73781 0.34873 0.12629 0.0
C732 C 0.74068 0.35803 0.10208 0.0
C733 C 0.75631 0.3532 0.14357 0.0
H734 H 0.79398 0.38904 0.10642 0.0
H735 H 0.72665 0.35448 0.08859 0.0
C736 C 0.76782 0.42851 0.98976 0.0
N737 N 0.77077 0.47048 0.95993 0.0
C738 C 0.76422 0.42714 0.96416 0.0
C739 C 0.77306 0.45122 1.00014 0.0
C740 C 0.76569 0.44858 0.94941 0.0
C741 C 0.77448 0.47222 0.98477 0.0
C742 C 0.80799 0.36044 0.05887 0.0
C743 C 0.82946 0.37041 0.06869 0.0
C744 C 0.80033 0.33702 0.0668 0.0
C745 C 0.84273 0.35689 0.0866 0.0
C746 C 0.81406 0.32413 0.0848 0.0
N747 N 0.83479 0.33425 0.09425 0.0
C748 C 0.8279 0.44035 0.04637 0.0
C749 C 0.83001 0.42468 0.00521 0.0
C750 C 0.84989 0.45336 0.04163 0.0
N751 N 0.81858 0.42644 0.0282 0.0
C752 C 0.85174 0.43771 0.99954 0.0
C753 C 0.8618 0.4521 0.01794 0.0
H754 H 0.81829 0.4412 0.06447 0.0
H755 H 0.82207 0.41329 0.99128 0.0
C756 C 0.75411 0.35538 0.97485 0.0
N757 N 0.76728 0.34995 0.99551 0.0
C758 C 0.75778 0.34114 0.9537 0.0
C759 C 0.78792 0.3154 0.97581 0.0
C760 C 0.78368 0.33026 0.99662 0.0
C761 C 0.77518 0.32112 0.9539 0.0
H762 H 0.74171 0.37156 0.97445 0.0
H763 H 0.79433 0.32683 0.01317 0.0
O764 O 0.76568 0.42002 0.06062 0.0
O765 O 0.73505 0.37626 0.04253 0.0
O766 O 0.76711 0.4075 0.00428 0.0
O767 O 0.79456 0.37353 0.04157 0.0
H768 H 0.72909 0.41093 0.09432 0.0
H769 H 0.77413 0.46804 0.06022 0.0
H770 H 0.7066 0.44264 0.12011 0.0
H771 H 0.75063 0.49878 0.08643 0.0
H772 H 0.71343 0.29694 0.02988 0.0
H773 H 0.70008 0.38537 0.00923 0.0
H774 H 0.73868 0.32797 0.05065 0.0
H775 H 0.67538 0.35335 0.98937 0.0
H776 H 0.6576 0.42943 0.06285 0.0
H777 H 0.68256 0.47659 1.00164 0.0
H778 H 0.79123 0.37203 0.14928 0.0
H779 H 0.72146 0.33795 0.13136 0.0
H780 H 0.76041 0.40968 0.95573 0.0
H781 H 0.77581 0.45264 0.01986 0.0
H782 H 0.76289 0.44778 0.92958 0.0
H783 H 0.77847 0.4899 0.9926 0.0
H784 H 0.83573 0.38844 0.06267 0.0
H785 H 0.78375 0.32905 0.05939 0.0
H786 H 0.8593 0.36443 0.09447 0.0
H787 H 0.8082 0.3061 0.09129 0.0
H788 H 0.85748 0.46433 0.05615 0.0
H789 H 0.8608 0.43634 0.98117 0.0
H790 H 0.74817 0.34661 0.93694 0.0
H791 H 0.80161 0.3002 0.9765 0.0
Li792 Li 0.91371 0.54449 0.28184 0.0
Li793 Li 0.87508 0.53122 0.26458 0.0
Li794 Li 0.91017 0.544 0.238 0.0
Li795 Li 0.88538 0.5735 0.26136 0.0
C796 C 0.92208 0.49758 0.27348 0.0
N797 N 0.94846 0.46309 0.30163 0.0
C798 C 0.90913 0.4812 0.28939 0.0
C799 C 0.94846 0.49633 0.27184 0.0
C800 C 0.92281 0.4639 0.30344 0.0
C801 C 0.96145 0.47881 0.28626 0.0
C802 C 0.86725 0.57096 0.30739 0.0
C803 C 0.83118 0.59688 0.31916 0.0
N804 N 0.84475 0.60703 0.33721 0.0
C805 C 0.88083 0.5816 0.3261 0.0
C806 C 0.84219 0.57856 0.30394 0.0
C807 C 0.86911 0.59981 0.34098 0.0
C808 C 0.95852 0.54543 0.3098 0.0
N809 N 0.93409 0.53861 0.30931 0.0
C810 C 0.9362 0.52006 0.34971 0.0
C811 C 0.92277 0.52628 0.32868 0.0
C812 C 0.9615 0.52666 0.35075 0.0
C813 C 0.97275 0.53952 0.33055 0.0
H814 H 0.96691 0.5554 0.29417 0.0
H815 H 0.90327 0.52117 0.32763 0.0
C816 C 0.85129 0.48797 0.25437 0.0
N817 N 0.84987 0.508 0.26927 0.0
C818 C 0.83665 0.46765 0.26013 0.0
C819 C 0.81859 0.48946 0.29585 0.0
C820 C 0.83357 0.50944 0.28934 0.0
C821 C 0.8208 0.46798 0.28162 0.0
H822 H 0.86506 0.48715 0.23903 0.0
H823 H 0.83331 0.52543 0.30111 0.0
C824 C 0.94008 0.58112 0.24238 0.0
N825 N 0.97469 0.59977 0.20775 0.0
C826 C 0.9339 0.60211 0.22812 0.0
C827 C 0.96397 0.56977 0.23918 0.0
C828 C 0.95164 0.61124 0.2107 0.0
C829 C 0.98116 0.57942 0.22152 0.0
C830 C 0.85478 0.54292 0.22263 0.0
C831 C 0.85975 0.52648 0.20314 0.0
C832 C 0.8298 0.54858 0.23016 0.0
C833 C 0.8396 0.51586 0.19158 0.0
C834 C 0.81018 0.53755 0.21816 0.0
N835 N 0.81545 0.52155 0.19928 0.0
C836 C 0.94624 0.52487 0.20248 0.0
C837 C 0.9186 0.55741 0.18928 0.0
C838 C 0.9597 0.52585 0.17975 0.0
N839 N 0.92651 0.5409 0.20685 0.0
C840 C 0.93134 0.55889 0.16627 0.0
C841 C 0.95242 0.54334 0.16163 0.0
H842 H 0.95196 0.51193 0.21685 0.0
H843 H 0.90288 0.56999 0.19354 0.0
C844 C 0.8804 0.62322 0.27558 0.0
N845 N 0.87267 0.60594 0.25971 0.0
C846 C 0.87062 0.6473 0.27411 0.0
C847 C 0.84649 0.6355 0.23897 0.0
C848 C 0.85647 0.61163 0.24135 0.0
C849 C 0.85332 0.65355 0.25569 0.0
H850 H 0.89393 0.61821 0.2895 0.0
H851 H 0.85131 0.59765 0.22851 0.0
O852 O 0.90907 0.51508 0.26 0.0
O853 O 0.87844 0.55326 0.29246 0.0
O854 O 0.92268 0.57145 0.259 0.0
O855 O 0.87423 0.55326 0.23445 0.0
H856 H 0.88877 0.48202 0.2912 0.0
H857 H 0.95884 0.5091 0.25999 0.0
H858 H 0.91302 0.4512 0.31591 0.0
H859 H 0.98186 0.47781 0.28534 0.0
H860 H 0.81186 0.60305 0.31659 0.0
H861 H 0.90028 0.57606 0.32896 0.0
H862 H 0.83145 0.57059 0.28948 0.0
H863 H 0.87942 0.60828 0.35547 0.0
H864 H 0.92697 0.51013 0.365 0.0
H865 H 0.99212 0.54529 0.33101 0.0
H866 H 0.83905 0.45122 0.24896 0.0
H867 H 0.80643 0.49027 0.31249 0.0
H868 H 0.9155 0.6111 0.23022 0.0
H869 H 0.96898 0.55334 0.24979 0.0
H870 H 0.94705 0.62736 0.19943 0.0
H871 H 0.99958 0.57064 0.21864 0.0
H872 H 0.87895 0.52169 0.1972 0.0
H873 H 0.82562 0.5612 0.24526 0.0
H874 H 0.84317 0.50302 0.17655 0.0
H875 H 0.79077 0.54167 0.22387 0.0
H876 H 0.97576 0.51338 0.17644 0.0
H877 H 0.92534 0.57254 0.15258 0.0
H878 H 0.87598 0.66065 0.28761 0.0
H879 H 0.83336 0.63976 0.2244 0.0
Li880 Li 0.77642 0.67679 0.55449 0.0
Li881 Li 0.80095 0.64481 0.52833 0.0
Li882 Li 0.77458 0.67904 0.50704 0.0
Li883 Li 0.75108 0.64496 0.52953 0.0
C884 C 0.81937 0.69721 0.54064 0.0
N885 N 0.84744 0.72911 0.56725 0.0
C886 C 0.83667 0.68789 0.55768 0.0
C887 C 0.8164 0.72271 0.53702 0.0
C888 C 0.85067 0.70434 0.57098 0.0
C889 C 0.83077 0.73854 0.55068 0.0
C890 C 0.77489 0.61578 0.56623 0.0
C891 C 0.77449 0.57207 0.55853 0.0
N892 N 0.77182 0.56762 0.58349 0.0
C893 C 0.77206 0.61081 0.59178 0.0
C894 C 0.77606 0.5963 0.54943 0.0
C895 C 0.77058 0.58632 0.60014 0.0
C896 C 0.76853 0.71717 0.59218 0.0
N897 N 0.77884 0.69419 0.58781 0.0
C898 C 0.79412 0.69296 0.62988 0.0
C899 C 0.79149 0.68214 0.60634 0.0
C900 C 0.78389 0.71675 0.63493 0.0
C901 C 0.77079 0.72869 0.61546 0.0
H902 H 0.75838 0.72672 0.57765 0.0
H903 H 0.79979 0.66399 0.60285 0.0
C904 C 0.84963 0.62749 0.50688 0.0
N905 N 0.83354 0.62516 0.52715 0.0
C906 C 0.87331 0.61497 0.50589 0.0
C907 C 0.8641 0.59806 0.5468 0.0
C908 C 0.84056 0.61083 0.547 0.0
C909 C 0.88098 0.59985 0.52601 0.0
H910 H 0.84436 0.63955 0.49159 0.0
H911 H 0.82811 0.60955 0.56333 0.0
C912 C 0.72983 0.7004 0.52629 0.0
N913 N 0.69751 0.73846 0.51194 0.0
C914 C 0.70554 0.69532 0.51889 0.0
C915 C 0.7377 0.72479 0.52644 0.0
C916 C 0.68947 0.71484 0.5117 0.0
C917 C 0.72108 0.74379 0.51909 0.0
C918 C 0.77165 0.64139 0.47578 0.0
C919 C 0.74726 0.64588 0.46743 0.0
C920 C 0.79159 0.63731 0.45848 0.0
C921 C 0.74322 0.64623 0.44185 0.0
C922 C 0.7868 0.63784 0.43305 0.0
N923 N 0.76292 0.64228 0.42533 0.0
C924 C 0.79573 0.70413 0.46178 0.0
C925 C 0.75127 0.70597 0.46431 0.0
C926 C 0.79575 0.71538 0.43779 0.0
N927 N 0.77367 0.69935 0.47467 0.0
C928 C 0.75045 0.71729 0.44048 0.0
C929 C 0.77286 0.72182 0.42639 0.0
H930 H 0.81347 0.69852 0.46977 0.0
H931 H 0.73375 0.70173 0.47406 0.0
C932 C 0.70078 0.62797 0.54658 0.0
N933 N 0.72006 0.62414 0.52941 0.0
C934 C 0.67838 0.6145 0.54595 0.0
C935 C 0.69569 0.59308 0.51009 0.0
C936 C 0.71788 0.60668 0.5116 0.0
C937 C 0.67528 0.59695 0.52726 0.0
H938 H 0.70259 0.64179 0.56069 0.0
H939 H 0.73333 0.60339 0.49825 0.0
O940 O 0.80481 0.68145 0.52818 0.0
O941 O 0.7762 0.63963 0.55767 0.0
O942 O 0.74584 0.68154 0.53325 0.0
O943 O 0.77606 0.64187 0.50073 0.0
H944 H 0.83901 0.66818 0.56081 0.0
H945 H 0.80307 0.73016 0.52387 0.0
H946 H 0.86403 0.69741 0.58435 0.0
H947 H 0.82863 0.75833 0.54815 0.0
H948 H 0.77539 0.5568 0.54576 0.0
H949 H 0.77099 0.62572 0.60499 0.0
H950 H 0.77818 0.59984 0.52958 0.0
H951 H 0.76842 0.58218 0.61987 0.0
H952 H 0.80447 0.68282 0.64394 0.0
H953 H 0.76192 0.74672 0.61823 0.0
H954 H 0.88578 0.6177 0.48973 0.0
H955 H 0.86902 0.58683 0.56287 0.0
H956 H 0.69924 0.67651 0.51856 0.0
H957 H 0.75651 0.72897 0.53193 0.0
H958 H 0.67064 0.71121 0.50588 0.0
H959 H 0.72693 0.76276 0.51902 0.0
H960 H 0.73168 0.64957 0.48056 0.0
H961 H 0.81058 0.63389 0.46459 0.0
H962 H 0.72447 0.64987 0.43513 0.0
H963 H 0.80207 0.6348 0.41944 0.0
H964 H 0.81362 0.71829 0.42793 0.0
H965 H 0.73224 0.72231 0.43315 0.0
H966 H 0.66334 0.61824 0.55966 0.0
H967 H 0.69461 0.57948 0.49563 0.0
Li968 Li 0.65342 0.54315 0.80201 0.0
Li969 Li 0.62449 0.51347 0.8251 0.0
Li970 Li 0.65885 0.49932 0.79812 0.0
Li971 Li 0.62309 0.51881 0.78119 0.0
C972 C 0.67876 0.50524 0.8416 0.0
N973 N 0.71461 0.47683 0.86588 0.0
C974 C 0.6713 0.4872 0.85903 0.0
C975 C 0.70443 0.50902 0.83669 0.0
C976 C 0.68972 0.47299 0.87108 0.0
C977 C 0.72227 0.4944 0.8491 0.0
C978 C 0.59455 0.55523 0.79781 0.0
C979 C 0.54921 0.55705 0.79547 0.0
N980 N 0.55108 0.57576 0.77835 0.0
C981 C 0.59603 0.57456 0.78031 0.0
C982 C 0.57096 0.54645 0.80555 0.0
C983 C 0.57384 0.58466 0.77064 0.0
C984 C 0.66926 0.5896 0.78461 0.0
N985 N 0.66952 0.57328 0.80407 0.0
C986 C 0.69704 0.59833 0.8262 0.0
C987 C 0.68274 0.57729 0.82475 0.0
C988 C 0.69755 0.61535 0.8062 0.0
C989 C 0.68307 0.61106 0.78539 0.0
H990 H 0.65884 0.58562 0.76827 0.0
H991 H 0.68265 0.5638 0.83982 0.0
C992 C 0.5845 0.49496 0.85529 0.0
N993 N 0.60481 0.50975 0.85409 0.0
C994 C 0.5681 0.49548 0.87623 0.0
C995 C 0.59443 0.52593 0.89413 0.0
C996 C 0.61019 0.52486 0.87294 0.0
C997 C 0.57289 0.51144 0.89573 0.0
H998 H 0.58057 0.48355 0.83963 0.0
H999 H 0.62638 0.53656 0.87111 0.0
C1000 C 0.67918 0.52769 0.75565 0.0
N1001 N 0.72082 0.5346 0.72406 0.0
C1002 C 0.67856 0.52111 0.73061 0.0
C1003 C 0.70101 0.53785 0.76459 0.0
C1004 C 0.69981 0.5247 0.71496 0.0
C1005 C 0.72184 0.5412 0.74833 0.0
C1006 C 0.62121 0.46786 0.78486 0.0
C1007 C 0.6337 0.46753 0.76148 0.0
C1008 C 0.60611 0.44814 0.79229 0.0
C1009 C 0.63083 0.44748 0.74589 0.0
C1010 C 0.60372 0.42841 0.77617 0.0
N1011 N 0.61602 0.4285 0.75349 0.0
C1012 C 0.67729 0.45184 0.80852 0.0
C1013 C 0.70464 0.4737 0.78072 0.0
C1014 C 0.69319 0.43096 0.80725 0.0
N1015 N 0.68309 0.4726 0.79518 0.0
C1016 C 0.72101 0.45321 0.7788 0.0
C1017 C 0.71522 0.4315 0.79203 0.0
H1018 H 0.66005 0.45142 0.8199 0.0
H1019 H 0.70916 0.49018 0.77038 0.0
C1020 C 0.6071 0.53168 0.73376 0.0
N1021 N 0.6006 0.51928 0.75506 0.0
C1022 C 0.59215 0.53037 0.7131 0.0
C1023 C 0.56336 0.50472 0.73728 0.0
C1024 C 0.57896 0.50646 0.75747 0.0
C1025 C 0.57037 0.51619 0.71456 0.0
H1026 H 0.62428 0.54199 0.73265 0.0
H1027 H 0.57421 0.49708 0.77488 0.0
O1028 O 0.66099 0.51892 0.82919 0.0
O1029 O 0.6161 0.54463 0.80696 0.0
O1030 O 0.65821 0.52488 0.77098 0.0
O1031 O 0.62349 0.48733 0.8005 0.0
H1032 H 0.6515 0.48397 0.86298 0.0
H1033 H 0.71053 0.52295 0.82331 0.0
H1034 H 0.68423 0.45884 0.88449 0.0
H1035 H 0.74221 0.497 0.84537 0.0
H1036 H 0.53083 0.55034 0.80118 0.0
H1037 H 0.61411 0.5815 0.77404 0.0
H1038 H 0.56947 0.53144 0.81898 0.0
H1039 H 0.57471 0.59952 0.75696 0.0
H1040 H 0.70805 0.60097 0.8425 0.0
H1041 H 0.68256 0.62403 0.76984 0.0
H1042 H 0.55154 0.48421 0.87685 0.0
H1043 H 0.59884 0.5382 0.90901 0.0
H1044 H 0.66185 0.51329 0.72331 0.0
H1045 H 0.70212 0.54266 0.78393 0.0
H1046 H 0.69958 0.51964 0.69555 0.0
H1047 H 0.73886 0.54894 0.75504 0.0
H1048 H 0.64548 0.48253 0.75538 0.0
H1049 H 0.59632 0.44808 0.81034 0.0
H1050 H 0.64038 0.44702 0.72774 0.0
H1051 H 0.59208 0.41304 0.78168 0.0
H1052 H 0.68788 0.41431 0.81735 0.0
H1053 H 0.73784 0.45417 0.7668 0.0
H1054 H 0.59822 0.53936 0.69582 0.0
H1055 H 0.54648 0.49396 0.73915 0.0
Li1056 Li 1.00319 0.78644 0.89016 0.0
Li1057 Li 0.02669 0.80998 0.92344 0.0
Li1058 Li 0.05205 0.78404 0.88957 0.0
Li1059 Li 0.02797 0.76126 0.92477 0.0
C1060 C 0.0214 0.82808 0.86594 0.0
N1061 N 0.0065 0.85653 0.82561 0.0
C1062 C 0.00739 0.85002 0.8697 0.0
C1063 C 0.02805 0.82073 0.8417 0.0
C1064 C 0.99997 0.86412 0.84906 0.0
C1065 C 0.02029 0.83533 0.82155 0.0
C1066 C 0.98226 0.79414 0.94682 0.0
C1067 C 0.97055 0.796 0.99058 0.0
N1068 N 0.95092 0.81166 0.98518 0.0
C1069 C 0.9619 0.81011 0.94166 0.0
C1070 C 0.98659 0.7869 0.97143 0.0
C1071 C 0.9463 0.81883 0.96133 0.0
C1072 C 0.96453 0.76503 0.85906 0.0
N1073 N 0.97159 0.7864 0.86966 0.0
C1074 C 0.9345 0.80721 0.85335 0.0
C1075 C 0.95679 0.80727 0.86703 0.0
C1076 C 0.92684 0.78547 0.84193 0.0
C1077 C 0.94238 0.76417 0.84521 0.0
H1078 H 0.976 0.7484 0.86143 0.0
H1079 H 0.96199 0.82407 0.87587 0.0
C1080 C 0.04928 0.84956 0.95282 0.0
N1081 N 0.0276 0.84273 0.94207 0.0
C1082 C 0.05119 0.87303 0.96379 0.0
C1083 C 0.00852 0.88259 0.95278 0.0
C1084 C 0.00734 0.8589 0.94219 0.0
C1085 C 0.0308 0.89035 0.96359 0.0
H1086 H 0.06551 0.83701 0.95245 0.0
H1087 H 0.99021 0.85372 0.93356 0.0
C1088 C 0.03515 0.74162 0.86851 0.0
N1089 N 0.052 0.71157 0.82991 0.0
C1090 C 0.04849 0.71959 0.87354 0.0
C1091 C 0.03014 0.74823 0.84388 0.0
C1092 C 0.05692 0.70469 0.85377 0.0
C1093 C 0.03887 0.73283 0.82461 0.0
C1094 C 0.07033 0.77915 0.94668 0.0
C1095 C 0.0937 0.76689 0.94321 0.0
C1096 C 0.06128 0.7847 0.97076 0.0
C1097 C 0.10757 0.76015 0.96401 0.0
C1098 C 0.07573 0.77768 0.99108 0.0
N1099 N 0.09837 0.76563 0.98731 0.0
C1100 C 0.09299 0.80357 0.85724 0.0
C1101 C 0.09928 0.76174 0.86897 0.0
C1102 C 0.11656 0.80351 0.84419 0.0
N1103 N 0.08461 0.78285 0.86932 0.0
C1104 C 0.12292 0.76085 0.85608 0.0
C1105 C 0.13206 0.78193 0.84334 0.0
H1106 H 0.08154 0.8204 0.858 0.0
H1107 H 0.09297 0.7456 0.87922 0.0
C1108 C 0.00694 0.71957 0.9551 0.0
N1109 N 0.02867 0.72883 0.94473 0.0
C1110 C 0.00674 0.69602 0.96693 0.0
C1111 C 0.05128 0.69156 0.95785 0.0
C1112 C 0.05065 0.71516 0.94617 0.0
C1113 C 0.02905 0.68122 0.96821 0.0
H1114 H 0.98949 0.73028 0.95386 0.0
H1115 H 0.06778 0.7222 0.93758 0.0
O1116 O 0.02854 0.81386 0.8859 0.0
O1117 O 0.99784 0.78556 0.92785 0.0
O1118 O 0.02701 0.7566 0.8876 0.0
O1119 O 0.05633 0.78562 0.9266 0.0
H1120 H 1.00211 0.856 0.88832 0.0
H1121 H 0.03919 0.80398 0.83849 0.0
H1122 H 0.98899 0.88107 0.85168 0.0
H1123 H 0.02526 0.82982 0.80268 0.0
H1124 H 0.9737 0.7906 0.00973 0.0
H1125 H 0.9583 0.81585 0.9227 0.0
H1126 H 1.00213 0.77433 0.97568 0.0
H1127 H 0.93053 0.8313 0.95764 0.0
H1128 H 0.92306 0.82403 0.85228 0.0
H1129 H 0.93758 0.74688 0.83699 0.0
H1130 H 0.06884 0.87783 0.97174 0.0
H1131 H 0.99197 0.89473 0.95247 0.0
H1132 H 0.05246 0.71415 0.8925 0.0
H1133 H 0.01951 0.76503 0.83969 0.0
H1134 H 0.06741 0.68766 0.85738 0.0
H1135 H 0.03517 0.73776 0.80545 0.0
H1136 H 0.10096 0.7625 0.92466 0.0
H1137 H 0.04333 0.79439 0.97371 0.0
H1138 H 0.12565 0.75056 0.96162 0.0
H1139 H 0.06894 0.78181 0.00984 0.0
H1140 H 0.1226 0.82029 0.83482 0.0
H1141 H 0.13426 0.74394 0.85673 0.0
H1142 H 0.98912 0.68952 0.97503 0.0
H1143 H 0.06901 0.68116 0.95807 0.0
Li1144 Li 0.01598 0.32019 0.63138 0.0
Li1145 Li 0.03292 0.29281 0.66197 0.0
Li1146 Li 0.02178 0.27758 0.6228 0.0
Li1147 Li 0.98992 0.2912 0.65222 0.0
C1148 C 0.0683 0.31641 0.63162 0.0
N1149 N 0.10879 0.34668 0.63705 0.0
C1150 C 0.06566 0.33743 0.64637 0.0
C1151 C 0.09152 0.31087 0.61956 0.0
C1152 C 0.08635 0.35248 0.6489 0.0
C1153 C 0.11176 0.32637 0.62255 0.0
C1154 C 1.00027 0.32053 0.69209 0.0
C1155 C 0.99318 0.30129 0.73249 0.0
N1156 N 0.98636 0.32369 0.74208 0.0
C1157 C 0.99322 0.34335 0.70235 0.0
C1158 C 1.00029 0.29931 0.70728 0.0
C1159 C 0.98624 0.34457 0.72766 0.0
C1160 C 0.99706 0.36804 0.62738 0.0
N1161 N 0.01497 0.35211 0.61775 0.0
C1162 C 0.02827 0.38187 0.58736 0.0
C1163 C 0.03062 0.35851 0.59829 0.0
C1164 C 0.00975 0.39859 0.59673 0.0
C1165 C 0.99423 0.39171 0.61718 0.0
H1166 H 0.9848 0.36217 0.64276 0.0
H1167 H 0.04469 0.34539 0.5911 0.0
C1168 C 0.06695 0.26455 0.688 0.0
N1169 N 0.05693 0.28784 0.68644 0.0
C1170 C 0.08673 0.25929 0.70373 0.0
C1171 C 0.0853 0.30212 0.71609 0.0
C1172 C 0.06519 0.30646 0.70043 0.0
C1173 C 0.09637 0.27835 0.71753 0.0
H1174 H 0.06014 0.25028 0.67632 0.0
H1175 H 0.05677 0.3248 0.69879 0.0
C1176 C 0.99011 0.30392 0.59114 0.0
N1177 N 0.98693 0.31512 0.54092 0.0
C1178 C 0.96657 0.30816 0.58074 0.0
C1179 C 0.01204 0.30535 0.57599 0.0
C1180 C 0.96536 0.31379 0.55531 0.0
C1181 C 0.01004 0.31105 0.55065 0.0
C1182 C 1.00158 0.24109 0.65319 0.0
C1183 C 0.98148 0.23997 0.63711 0.0
C1184 C 0.00934 0.21982 0.66622 0.0
C1185 C 0.96956 0.21757 0.6343 0.0
C1186 C 0.99693 0.19776 0.6629 0.0
N1187 N 0.97747 0.1971 0.64713 0.0
C1188 C 0.05752 0.24696 0.60152 0.0
C1189 C 0.01762 0.2426 0.58363 0.0
C1190 C 0.06775 0.22743 0.58766 0.0
N1191 N 0.03283 0.25377 0.5996 0.0
C1192 C 0.02706 0.22278 0.56949 0.0
C1193 C 0.05222 0.21461 0.57208 0.0
H1194 H 0.06898 0.2561 0.61462 0.0
H1195 H 0.99799 0.2484 0.58266 0.0
C1196 C 0.941 0.30728 0.65821 0.0
N1197 N 0.9571 0.28893 0.66568 0.0
C1198 C 0.91717 0.31 0.6697 0.0
C1199 C 0.9269 0.27452 0.69603 0.0
C1200 C 0.95059 0.2725 0.68402 0.0
C1201 C 0.91005 0.29364 0.68902 0.0
H1202 H 0.94714 0.32039 0.64398 0.0
H1203 H 0.96409 0.25847 0.68996 0.0
O1204 O 0.04839 0.30126 0.62877 0.0
O1205 O 0.00695 0.3192 0.66726 0.0
O1206 O 0.99141 0.29855 0.61607 0.0
O1207 O 0.01384 0.26271 0.65621 0.0
H1208 H 0.0479 0.34215 0.65583 0.0
H1209 H 0.09388 0.29475 0.60796 0.0
H1210 H 0.08457 0.36876 0.6603 0.0
H1211 H 0.12984 0.32227 0.61333 0.0
H1212 H 0.99308 0.28501 0.74444 0.0
H1213 H 0.99312 0.35995 0.69086 0.0
H1214 H 0.00567 0.28146 0.69977 0.0
H1215 H 0.98072 0.36211 0.73584 0.0
H1216 H 0.04079 0.38688 0.5718 0.0
H1217 H 0.97982 0.40431 0.6248 0.0
H1218 H 0.09523 0.24087 0.70416 0.0
H1219 H 0.09256 0.31721 0.72646 0.0
H1220 H 0.94942 0.30713 0.59224 0.0
H1221 H 0.03044 0.30219 0.58364 0.0
H1222 H 0.94726 0.31713 0.54703 0.0
H1223 H 0.02686 0.31226 0.53873 0.0
H1224 H 0.97506 0.25613 0.62688 0.0
H1225 H 0.02481 0.22034 0.67878 0.0
H1226 H 0.95401 0.21645 0.6219 0.0
H1227 H 1.00278 0.18117 0.67285 0.0
H1228 H 0.08729 0.2217 0.58992 0.0
H1229 H 0.01455 0.2131 0.55774 0.0
H1230 H 0.90483 0.32524 0.66418 0.0
H1231 H 0.92194 0.26161 0.71091 0.0
Li1232 Li 0.5044 0.28673 0.39037 0.0
Li1233 Li 0.52782 0.31097 0.4227 0.0
Li1234 Li 0.55296 0.28389 0.38987 0.0
Li1235 Li 0.52872 0.26229 0.42518 0.0
C1236 C 0.52202 0.32587 0.36418 0.0
N1237 N 0.50503 0.34959 0.32182 0.0
C1238 C 0.51072 0.34943 0.36577 0.0
C1239 C 0.52473 0.31436 0.3411 0.0
C1240 C 0.50225 0.36113 0.34412 0.0
C1241 C 0.516 0.32666 0.31988 0.0
C1242 C 0.48555 0.29607 0.44818 0.0
C1243 C 0.48064 0.30125 0.49261 0.0
N1244 N 0.45942 0.31541 0.48913 0.0
C1245 C 0.46369 0.3106 0.44501 0.0
C1246 C 0.49411 0.29127 0.47213 0.0
C1247 C 0.45074 0.32024 0.46597 0.0
C1248 C 0.4663 0.26532 0.35931 0.0
N1249 N 0.47288 0.28671 0.37012 0.0
C1250 C 0.43516 0.30687 0.35443 0.0
C1251 C 0.45767 0.30734 0.36776 0.0
C1252 C 0.4277 0.28492 0.34332 0.0
C1253 C 0.4441 0.26409 0.34571 0.0
H1254 H 0.47815 0.24891 0.36144 0.0
H1255 H 0.46273 0.32422 0.37658 0.0
C1256 C 0.55044 0.3517 0.45021 0.0
N1257 N 0.52869 0.34432 0.44001 0.0
C1258 C 0.55217 0.37541 0.46063 0.0
C1259 C 0.50935 0.38432 0.44969 0.0
C1260 C 0.50831 0.36034 0.43972 0.0
C1261 C 0.53159 0.39247 0.46027 0.0
H1262 H 0.56685 0.33938 0.44984 0.0
H1263 H 0.49122 0.35477 0.43126 0.0
C1264 C 0.53968 0.23886 0.37379 0.0
N1265 N 0.5638 0.20306 0.34479 0.0
C1266 C 0.55835 0.22338 0.38385 0.0
C1267 C 0.53329 0.23617 0.34896 0.0
C1268 C 0.57033 0.20539 0.36889 0.0
C1269 C 0.54569 0.21794 0.33461 0.0
C1270 C 0.57273 0.27832 0.44513 0.0
C1271 C 0.59138 0.26019 0.43993 0.0
C1272 C 0.57006 0.28794 0.46911 0.0
C1273 C 0.60711 0.252 0.45886 0.0
C1274 C 0.58622 0.27932 0.48752 0.0
N1275 N 0.60424 0.26166 0.48206 0.0
C1276 C 0.60631 0.29034 0.38203 0.0
C1277 C 0.58854 0.27395 0.34639 0.0
C1278 C 0.63043 0.28978 0.37024 0.0
N1279 N 0.58579 0.28241 0.37019 0.0
C1280 C 0.61242 0.27308 0.33386 0.0
C1281 C 0.63389 0.28129 0.34566 0.0
H1282 H 0.60403 0.29718 0.4008 0.0
H1283 H 0.57223 0.26801 0.33689 0.0
C1284 C 0.51812 0.21009 0.43463 0.0
N1285 N 0.52876 0.22986 0.44526 0.0
C1286 C 0.51894 0.18639 0.44605 0.0
C1287 C 0.5413 0.20323 0.47965 0.0
C1288 C 0.53987 0.22669 0.46771 0.0
C1289 C 0.53102 0.18238 0.46879 0.0
H1290 H 0.50927 0.21254 0.41689 0.0
H1291 H 0.54788 0.24226 0.47649 0.0
O1292 O 0.52984 0.31383 0.38521 0.0
O1293 O 0.49877 0.28688 0.42791 0.0
O1294 O 0.52793 0.25672 0.3881 0.0
O1295 O 0.5571 0.28653 0.42687 0.0
H1296 H 0.50839 0.35851 0.38354 0.0
H1297 H 0.53323 0.29602 0.33965 0.0
H1298 H 0.49341 0.37935 0.34505 0.0
H1299 H 0.51787 0.31795 0.30189 0.0
H1300 H 0.48707 0.29775 0.51128 0.0
H1301 H 0.4569 0.31452 0.42654 0.0
H1302 H 0.51104 0.28005 0.47484 0.0
H1303 H 0.43382 0.33159 0.46382 0.0
H1304 H 0.42337 0.32347 0.3534 0.0
H1305 H 0.43992 0.24683 0.33709 0.0
H1306 H 0.56983 0.38057 0.46832 0.0
H1307 H 0.49272 0.39635 0.44916 0.0
H1308 H 0.56357 0.22526 0.403 0.0
H1309 H 0.51918 0.24826 0.34074 0.0
H1310 H 0.58483 0.19329 0.37644 0.0
H1311 H 0.54101 0.2157 0.31535 0.0
H1312 H 0.59368 0.25252 0.42148 0.0
H1313 H 0.55548 0.30171 0.47355 0.0
H1314 H 0.62161 0.23796 0.45512 0.0
H1315 H 0.58434 0.28656 0.50617 0.0
H1316 H 0.6463 0.29585 0.38046 0.0
H1317 H 0.61395 0.2665 0.31491 0.0
H1318 H 0.51066 0.17116 0.43676 0.0
H1319 H 0.55027 0.20154 0.49742 0.0
Li1320 Li 0.50854 0.81908 0.13452 0.0
Li1321 Li 0.52526 0.7881 0.16056 0.0
Li1322 Li 0.50872 0.7772 0.12122 0.0
Li1323 Li 0.48036 0.79247 0.15704 0.0
C1324 C 0.56011 0.81003 0.12835 0.0
N1325 N 0.60475 0.83454 0.13266 0.0
C1326 C 0.56188 0.82856 0.146 0.0
C1327 C 0.58113 0.80394 0.11296 0.0
C1328 C 0.58457 0.84075 0.14786 0.0
C1329 C 0.6035 0.81655 0.11541 0.0
C1330 C 0.50155 0.82198 0.19533 0.0
C1331 C 0.48924 0.81169 0.23786 0.0
N1332 N 0.49848 0.83341 0.24536 0.0
C1333 C 0.5108 0.84427 0.20345 0.0
C1334 C 0.4906 0.80559 0.21265 0.0
C1335 C 0.50914 0.84968 0.22883 0.0
C1336 C 0.49718 0.86946 0.1357 0.0
N1337 N 0.51029 0.85163 0.1228 0.0
C1338 C 0.52132 0.88005 0.09029 0.0
C1339 C 0.52259 0.85642 0.10073 0.0
C1340 C 0.50727 0.89868 0.10282 0.0
C1341 C 0.49552 0.89343 0.12601 0.0
H1342 H 0.48733 0.86482 0.15307 0.0
H1343 H 0.53266 0.84167 0.0909 0.0
C1344 C 0.57006 0.7637 0.16875 0.0
N1345 N 0.55254 0.77839 0.18082 0.0
C1346 C 0.59202 0.75609 0.18035 0.0
C1347 C 0.57776 0.77899 0.21674 0.0
C1348 C 0.55583 0.78591 0.2045 0.0
C1349 C 0.59633 0.76427 0.20441 0.0
H1350 H 0.56716 0.75829 0.1498 0.0
H1351 H 0.54198 0.79778 0.21376 0.0
C1352 C 0.47229 0.81703 0.10252 0.0
N1353 N 0.45851 0.85086 0.06607 0.0
C1354 C 0.45405 0.8355 0.10791 0.0
C1355 C 0.48331 0.81558 0.07853 0.0
C1356 C 0.44742 0.85249 0.08925 0.0
C1357 C 0.47612 0.8329 0.06036 0.0
C1358 C 0.51088 0.7408 0.16596 0.0
C1359 C 0.52771 0.72492 0.15292 0.0
C1360 C 0.50376 0.73511 0.19067 0.0
C1361 C 0.53742 0.70385 0.16494 0.0
C1362 C 0.51389 0.71386 0.20204 0.0
N1363 N 0.53039 0.69881 0.18906 0.0
C1364 C 0.53311 0.75539 0.07976 0.0
C1365 C 0.4969 0.73511 0.09627 0.0
C1366 C 0.54008 0.73491 0.06542 0.0
N1367 N 0.51244 0.7546 0.09543 0.0
C1368 C 0.50321 0.71423 0.08237 0.0
C1369 C 0.5256 0.7137 0.06761 0.0
H1370 H 0.54513 0.77116 0.0798 0.0
H1371 H 0.48086 0.73501 0.1093 0.0
C1372 C 0.43605 0.81254 0.17743 0.0
N1373 N 0.44852 0.79081 0.1726 0.0
C1374 C 0.41239 0.8126 0.18951 0.0
C1375 C 0.41516 0.76789 0.19158 0.0
C1376 C 0.43868 0.76869 0.17921 0.0
C1377 C 0.4019 0.79008 0.19686 0.0
H1378 H 0.44467 0.82979 0.1721 0.0
H1379 H 0.44917 0.75177 0.17499 0.0
O1380 O 0.53826 0.79737 0.12647 0.0
O1381 O 0.50283 0.81666 0.17048 0.0
O1382 O 0.47971 0.80076 0.12076 0.0
O1383 O 0.50108 0.76152 0.15445 0.0
H1384 H 0.546 0.83347 0.15821 0.0
H1385 H 0.58025 0.78948 0.09939 0.0
H1386 H 0.58616 0.85511 0.16144 0.0
H1387 H 0.61991 0.81198 0.10363 0.0
H1388 H 0.48087 0.79913 0.25145 0.0
H1389 H 0.5192 0.85726 0.19029 0.0
H1390 H 0.48336 0.78832 0.20676 0.0
H1391 H 0.51628 0.86683 0.23537 0.0
H1392 H 0.53094 0.8837 0.07252 0.0
H1393 H 0.48459 0.90748 0.13608 0.0
H1394 H 0.60569 0.74433 0.17041 0.0
H1395 H 0.58055 0.78576 0.23529 0.0
H1396 H 0.44537 0.8369 0.12639 0.0
H1397 H 0.49753 0.80147 0.07408 0.0
H1398 H 0.43351 0.86703 0.09321 0.0
H1399 H 0.48464 0.83213 0.04176 0.0
H1400 H 0.5336 0.72899 0.13385 0.0
H1401 H 0.49045 0.74684 0.20098 0.0
H1402 H 0.5506 0.69154 0.1551 0.0
H1403 H 0.50858 0.70929 0.22117 0.0
H1404 H 0.5576 0.73491 0.05438 0.0
H1405 H 0.49171 0.69806 0.08445 0.0
H1406 H 0.40257 0.83 0.19344 0.0
H1407 H 0.40734 0.75021 0.19683 0.0
Li1408 Li 0.91407 0.06469 0.77852 0.0
Li1409 Li 0.89162 0.03973 0.75034 0.0
Li1410 Li 0.92597 0.06471 0.73329 0.0
Li1411 Li 0.88615 0.08208 0.7476 0.0
C1412 C 0.95168 0.03024 0.76349 0.0
N1413 N 1.00071 0.01673 0.77446 0.0
C1414 C 0.9592 0.00532 0.7642 0.0
C1415 C 0.96908 0.0483 0.76836 0.0
C1416 C 0.98408 0.99886 0.76978 0.0
C1417 C 0.99378 0.0411 0.77387 0.0
C1418 C 0.85857 0.04664 0.78604 0.0
C1419 C 0.81861 0.0274 0.781 0.0
N1420 N 0.82139 0.01514 0.80308 0.0
C1421 C 0.86084 0.03411 0.80885 0.0
C1422 C 0.83711 0.04351 0.77214 0.0
C1423 C 0.84191 0.01819 0.81708 0.0
C1424 C 0.93881 0.08716 0.81714 0.0
N1425 N 0.9282 0.06601 0.80998 0.0
C1426 C 0.94188 0.04466 0.84646 0.0
C1427 C 0.92957 0.04493 0.82397 0.0
C1428 C 0.95335 0.06614 0.85419 0.0
C1429 C 0.95152 0.08767 0.83937 0.0
H1430 H 0.93806 0.10341 0.80523 0.0
H1431 H 0.92157 0.02821 0.81735 0.0
C1432 C 0.86128 0.00428 0.7295 0.0
N1433 N 0.8773 0.00865 0.74799 0.0
C1434 C 0.84957 0.98164 0.7286 0.0
C1435 C 0.87178 0.96832 0.76531 0.0
C1436 C 0.88299 0.99125 0.76554 0.0
C1437 C 0.8546 0.96349 0.74684 0.0
H1438 H 0.8573 0.0185 0.71576 0.0
H1439 H 0.89598 0.99537 0.77989 0.0
C1440 C 0.91854 0.118 0.75314 0.0
N1441 N 0.91225 0.16863 0.74821 0.0
C1442 C 0.92808 0.13024 0.73185 0.0
C1443 C 0.90592 0.13152 0.77199 0.0
C1444 C 0.92471 0.15585 0.72972 0.0
C1445 C 0.90286 0.1571 0.76911 0.0
C1446 C 0.88171 0.072 0.69991 0.0
C1447 C 0.89662 0.08519 0.6826 0.0
C1448 C 0.85559 0.07163 0.69727 0.0
C1449 C 0.8851 0.09793 0.66303 0.0
C1450 C 0.84479 0.08467 0.67749 0.0
N1451 N 0.85965 0.09744 0.66092 0.0
C1452 C 0.95273 0.04505 0.69392 0.0
C1453 C 0.97433 0.07764 0.71211 0.0
C1454 C 0.97257 0.04108 0.67675 0.0
N1455 N 0.95384 0.06323 0.71087 0.0
C1456 C 0.99479 0.07423 0.69524 0.0
C1457 C 0.99389 0.05583 0.67718 0.0
H1458 H 0.93626 0.03373 0.69376 0.0
H1459 H 0.97486 0.09157 0.72627 0.0
C1460 C 0.84245 0.10941 0.76044 0.0
N1461 N 0.86175 0.10833 0.7431 0.0
C1462 C 0.82542 0.12939 0.76079 0.0
C1463 C 0.848 0.14681 0.72507 0.0
C1464 C 0.86443 0.12622 0.72518 0.0
C1465 C 0.82854 0.14877 0.74343 0.0
H1466 H 0.84088 0.09535 0.7748 0.0
H1467 H 0.88007 0.12523 0.71179 0.0
O1468 O 0.9273 0.03675 0.75822 0.0
O1469 O 0.87724 0.06182 0.77729 0.0
O1470 O 0.92146 0.09292 0.75547 0.0
O1471 O 0.89266 0.05927 0.71912 0.0
H1472 H 0.94592 0.99112 0.76051 0.0
H1473 H 0.9636 0.06768 0.76794 0.0
H1474 H 0.99017 0.97964 0.77041 0.0
H1475 H 0.00743 0.05488 0.77769 0.0
H1476 H 0.80208 0.02459 0.77027 0.0
H1477 H 0.87703 0.03662 0.82007 0.0
H1478 H 0.83499 0.05312 0.7545 0.0
H1479 H 0.84353 0.00824 0.83462 0.0
H1480 H 0.94256 0.0278 0.85757 0.0
H1481 H 0.96037 0.1045 0.8446 0.0
H1482 H 0.83641 0.97851 0.71409 0.0
H1483 H 0.8765 0.95454 0.77935 0.0
H1484 H 0.93768 0.12004 0.71698 0.0
H1485 H 0.89822 0.12228 0.78848 0.0
H1486 H 0.93189 0.16555 0.71329 0.0
H1487 H 0.89294 0.16777 0.78344 0.0
H1488 H 0.91683 0.08583 0.68436 0.0
H1489 H 0.84373 0.06159 0.71048 0.0
H1490 H 0.8964 0.10829 0.64958 0.0
H1491 H 0.82459 0.08467 0.67532 0.0
H1492 H 0.971 0.02694 0.66288 0.0
H1493 H 0.01105 0.08578 0.69627 0.0
H1494 H 0.81066 0.13027 0.77526 0.0
H1495 H 0.85146 0.16166 0.71174 0.0
Li1496 Li 0.80486 0.1943 0.52895 0.0
Li1497 Li 0.83181 0.15828 0.52442 0.0
Li1498 Li 0.81096 0.17751 0.48914 0.0
Li1499 Li 0.78588 0.15501 0.52013 0.0
C1500 C 0.84959 0.21209 0.51529 0.0
N1501 N 0.87453 0.2543 0.52686 0.0
C1502 C 0.87126 0.21043 0.52938 0.0
C1503 C 0.84087 0.2352 0.50674 0.0
C1504 C 0.88353 0.23199 0.53513 0.0
C1505 C 0.85367 0.25632 0.51289 0.0
C1506 C 0.80995 0.17007 0.57398 0.0
C1507 C 0.79602 0.17872 0.61636 0.0
N1508 N 0.82006 0.18406 0.6219 0.0
C1509 C 0.83452 0.17559 0.58018 0.0
C1510 C 0.79054 0.17161 0.59229 0.0
C1511 C 0.83926 0.18263 0.60446 0.0
C1512 C 0.77271 0.23149 0.54697 0.0
N1513 N 0.79708 0.22303 0.54758 0.0
C1514 C 0.80453 0.248 0.58251 0.0
C1515 C 0.8133 0.23172 0.56417 0.0
C1516 C 0.77898 0.25533 0.58348 0.0
C1517 C 0.76319 0.24795 0.56486 0.0
H1518 H 0.76008 0.22394 0.53391 0.0
H1519 H 0.83246 0.22453 0.56453 0.0
C1520 C 0.88088 0.14333 0.51594 0.0
N1521 N 0.86124 0.14065 0.53257 0.0
C1522 C 0.90328 0.12994 0.51909 0.0
C1523 C 0.88474 0.11121 0.55647 0.0
C1524 C 0.86262 0.12507 0.5526 0.0
C1525 C 0.90526 0.1135 0.53941 0.0
H1526 H 0.8789 0.15565 0.50002 0.0
H1527 H 0.84648 0.12317 0.56532 0.0
C1528 C 0.76422 0.19655 0.48669 0.0
N1529 N 0.73607 0.21413 0.44755 0.0
C1530 C 0.7457 0.18198 0.47698 0.0
C1531 C 0.76814 0.22021 0.47678 0.0
C1532 C 0.73171 0.19119 0.45714 0.0
C1533 C 0.75383 0.22871 0.45688 0.0
C1534 C 0.81615 0.11665 0.49996 0.0
C1535 C 0.82341 0.10233 0.47936 0.0
C1536 C 0.81219 0.10524 0.52327 0.0
C1537 C 0.82652 0.07677 0.48241 0.0
C1538 C 0.81552 0.07964 0.52556 0.0
N1539 N 0.82255 0.06606 0.50526 0.0
C1540 C 0.83347 0.20169 0.44857 0.0
C1541 C 0.79879 0.17758 0.43823 0.0
C1542 C 0.83463 0.21207 0.42473 0.0
N1543 N 0.81506 0.18565 0.4551 0.0
C1544 C 0.79906 0.18774 0.41419 0.0
C1545 C 0.81651 0.20597 0.40767 0.0
H1546 H 0.84663 0.2072 0.46215 0.0
H1547 H 0.78475 0.16433 0.44386 0.0
C1548 C 0.74189 0.14488 0.5461 0.0
N1549 N 0.757 0.13623 0.52707 0.0
C1550 C 0.72021 0.13247 0.55358 0.0
C1551 C 0.72943 0.10299 0.52089 0.0
C1552 C 0.75115 0.11588 0.51421 0.0
C1553 C 0.71366 0.11135 0.54079 0.0
H1554 H 0.74664 0.16159 0.55532 0.0
H1555 H 0.76318 0.10975 0.49871 0.0
O1556 O 0.83738 0.19117 0.50935 0.0
O1557 O 0.80491 0.16328 0.55019 0.0
O1558 O 0.77832 0.18776 0.50592 0.0
O1559 O 0.81341 0.14173 0.49723 0.0
H1560 H 0.87856 0.19272 0.53584 0.0
H1561 H 0.82434 0.2368 0.49558 0.0
H1562 H 0.90023 0.23099 0.54613 0.0
H1563 H 0.84701 0.27432 0.50654 0.0
H1564 H 0.78114 0.18002 0.63065 0.0
H1565 H 0.84975 0.1749 0.56633 0.0
H1566 H 0.77141 0.16737 0.58808 0.0
H1567 H 0.85818 0.18708 0.60939 0.0
H1568 H 0.81699 0.25313 0.59701 0.0
H1569 H 0.74325 0.25294 0.56556 0.0
H1570 H 0.9187 0.13192 0.50546 0.0
H1571 H 0.88578 0.09881 0.57245 0.0
H1572 H 0.74234 0.16368 0.4845 0.0
H1573 H 0.78219 0.23182 0.48426 0.0
H1574 H 0.71743 0.18006 0.44932 0.0
H1575 H 0.75684 0.24688 0.44885 0.0
H1576 H 0.82663 0.11091 0.46121 0.0
H1577 H 0.80658 0.11598 0.53944 0.0
H1578 H 0.83213 0.06546 0.46662 0.0
H1579 H 0.81251 0.07058 0.54348 0.0
H1580 H 0.84881 0.22555 0.42002 0.0
H1581 H 0.7849 0.18249 0.40139 0.0
H1582 H 0.70876 0.13933 0.56922 0.0
H1583 H 0.72479 0.08692 0.5104 0.0
Li1584 Li 0.65411 0.02956 0.31973 0.0
Li1585 Li 0.68792 0.04011 0.29285 0.0
Li1586 Li 0.64544 0.03174 0.27629 0.0
Li1587 Li 0.67335 0.99861 0.29429 0.0
C1588 C 0.6417 0.07644 0.31124 0.0
N1589 N 0.61422 0.11132 0.33874 0.0
C1590 C 0.65152 0.08603 0.33277 0.0
C1591 C 0.61786 0.08462 0.30373 0.0
C1592 C 0.63734 0.10362 0.34642 0.0
C1593 C 0.60428 0.10227 0.31786 0.0
C1594 C 0.71236 0.0192 0.32956 0.0
C1595 C 0.75682 0.00849 0.32844 0.0
N1596 N 0.76028 0.02501 0.34674 0.0
C1597 C 0.71629 0.03585 0.34857 0.0
C1598 C 0.73272 0.00522 0.31958 0.0
C1599 C 0.74068 0.03861 0.35691 0.0
C1600 C 0.65168 0.01948 0.37016 0.0
N1601 N 0.63917 0.03183 0.35192 0.0
C1602 C 0.60352 0.0391 0.37927 0.0
C1603 C 0.61558 0.04171 0.35602 0.0
C1604 C 0.61581 0.02589 0.39817 0.0
C1605 C 0.64033 0.01642 0.39369 0.0
H1606 H 0.67 0.01098 0.36615 0.0
H1607 H 0.60565 0.05058 0.34098 0.0
C1608 C 0.72865 0.0594 0.26455 0.0
N1609 N 0.71566 0.06051 0.28682 0.0
C1610 C 0.74549 0.07779 0.25763 0.0
C1611 C 0.73608 0.09733 0.29722 0.0
C1612 C 0.71954 0.07857 0.30336 0.0
C1613 C 0.74864 0.09749 0.27377 0.0
H1614 H 0.72474 0.04521 0.25147 0.0
H1615 H 0.70861 0.07933 0.32065 0.0
C1616 C 0.61677 0.99801 0.31399 0.0
N1617 N 0.57625 0.9849 0.34469 0.0
C1618 C 0.61986 0.97992 0.33258 0.0
C1619 C 0.59303 0.00925 0.31083 0.0
C1620 C 0.59916 0.97363 0.34799 0.0
C1621 C 0.57278 1.00238 0.32657 0.0
C1622 C 0.68956 0.00462 0.24581 0.0
C1623 C 0.6751 0.99888 0.22552 0.0
C1624 C 0.71417 0.99488 0.24722 0.0
C1625 C 0.6854 0.98319 0.20717 0.0
C1626 C 0.72377 0.97922 0.22853 0.0
N1627 N 0.7093 0.97374 0.20907 0.0
C1628 C 0.62394 0.06162 0.23977 0.0
C1629 C 0.60798 0.02112 0.2436 0.0
C1630 C 0.60897 0.06679 0.21947 0.0
N1631 N 0.62315 0.0391 0.2512 0.0
C1632 C 0.59305 0.02533 0.22309 0.0
C1633 C 0.59371 0.04832 0.21082 0.0
H1634 H 0.63662 0.0753 0.24611 0.0
H1635 H 0.60823 0.00326 0.25292 0.0
C1636 C 0.68881 0.95619 0.3174 0.0
N1637 N 0.68165 0.96493 0.29481 0.0
C1638 C 0.69602 0.93153 0.32044 0.0
C1639 C 0.6873 0.92506 0.27711 0.0
C1640 C 0.67975 0.94983 0.27505 0.0
C1641 C 0.6962 0.91593 0.29988 0.0
H1642 H 0.6891 0.96848 0.33304 0.0
H1643 H 0.6728 0.95701 0.25766 0.0
O1644 O 0.65539 0.05938 0.29743 0.0
O1645 O 0.68862 0.01638 0.32104 0.0
O1646 O 0.63693 0.00482 0.29908 0.0
O1647 O 0.6798 0.02 0.26393 0.0
H1648 H 0.66961 0.07958 0.33924 0.0
H1649 H 0.60973 0.07726 0.28735 0.0
H1650 H 0.64466 0.11105 0.3632 0.0
H1651 H 0.5858 0.10869 0.31228 0.0
H1652 H 0.77277 0.99785 0.32081 0.0
H1653 H 0.70069 0.0467 0.35662 0.0
H1654 H 0.72994 0.99188 0.30524 0.0
H1655 H 0.74402 0.05158 0.37147 0.0
H1656 H 0.58464 0.04689 0.38233 0.0
H1657 H 0.65021 0.00603 0.40793 0.0
H1658 H 0.75471 0.07746 0.2393 0.0
H1659 H 0.73739 0.11256 0.30991 0.0
H1660 H 0.63812 0.97109 0.33531 0.0
H1661 H 0.59036 0.02341 0.29665 0.0
H1662 H 0.60132 0.95985 0.36263 0.0
H1663 H 0.55433 0.01106 0.32448 0.0
H1664 H 0.65615 0.00644 0.22393 0.0
H1665 H 0.72575 0.99938 0.26257 0.0
H1666 H 0.67438 0.97853 0.19143 0.0
H1667 H 0.74274 0.97147 0.22947 0.0
H1668 H 0.61005 0.08456 0.20999 0.0
H1669 H 0.58158 0.01071 0.21651 0.0
H1670 H 0.70201 0.92488 0.33849 0.0
H1671 H 0.68701 0.91343 0.2609 0.0
Li1672 Li 0.75706 0.92579 0.02749 0.0
Li1673 Li 0.78121 0.89076 0.05007 0.0
Li1674 Li 0.80577 0.9257 0.02539 0.0
Li1675 Li 0.78299 0.89343 1.00087 0.0
C1676 C 0.77343 0.94693 0.06968 0.0
N1677 N 0.75594 0.98624 0.09816 0.0
C1678 C 0.76304 0.94277 0.09363 0.0
C1679 C 0.77494 0.97103 0.0602 0.0
C1680 C 0.7543 0.96291 0.10775 0.0
C1681 C 0.76598 0.99067 0.0749 0.0
C1682 C 0.73801 0.86962 0.0298 0.0
C1683 C 0.72951 0.82635 0.02621 0.0
N1684 N 0.70709 0.83005 0.0389 0.0
C1685 C 0.71489 0.87302 0.04278 0.0
C1686 C 0.74543 0.84612 0.02144 0.0
C1687 C 0.69953 0.85276 0.04722 0.0
C1688 C 0.71488 0.95561 0.00825 0.0
N1689 N 0.72422 0.94484 0.02925 0.0
C1690 C 0.68623 0.95736 0.05238 0.0
C1691 C 0.71023 0.94552 0.05108 0.0
C1692 C 0.67612 0.96884 0.03104 0.0
C1693 C 0.69099 0.96773 0.00875 0.0
H1694 H 0.72578 0.95446 0.99087 0.0
H1695 H 0.71738 0.93627 0.06747 0.0
C1696 C 0.7956 0.87907 0.10112 0.0
N1697 N 0.78073 0.87115 0.08277 0.0
C1698 C 0.795 0.86789 0.12512 0.0
C1699 C 0.76407 0.8401 0.11137 0.0
C1700 C 0.76529 0.85175 0.08762 0.0
C1701 C 0.77878 0.84824 0.13087 0.0
H1702 H 0.80769 0.89454 0.09735 0.0
H1703 H 0.75356 0.84528 0.07324 0.0
C1704 C 0.79138 0.94826 0.98237 0.0
N1705 N 0.81315 0.98398 0.95197 0.0
C1706 C 0.81263 0.94234 0.96728 0.0
C1707 C 0.78125 0.97236 0.98212 0.0
C1708 C 0.82337 0.96066 0.95202 0.0
C1709 C 0.7925 0.99015 0.96656 0.0
C1710 C 0.82611 0.86921 0.01667 0.0
C1711 C 0.84714 0.87362 1.00096 0.0
C1712 C 0.82009 0.845 0.02334 0.0
C1713 C 0.86176 0.85359 0.99198 0.0
C1714 C 0.83517 0.82547 0.01395 0.0
N1715 N 0.85551 0.83014 0.99859 0.0
C1716 C 0.85901 0.9336 0.03424 0.0
C1717 C 0.83847 0.97013 0.0202 0.0
C1718 C 0.88193 0.94602 0.03586 0.0
N1719 N 0.83763 0.9456 0.0265 0.0
C1720 C 0.86109 0.98322 0.02139 0.0
C1721 C 0.88338 0.97134 0.02956 0.0
H1722 H 0.85834 0.91421 0.03928 0.0
H1723 H 0.82156 0.97979 0.01435 0.0
C1724 C 0.75949 0.86681 0.96036 0.0
N1725 N 0.78196 0.87556 0.96761 0.0
C1726 C 0.75726 0.85567 0.93692 0.0
C1727 C 0.80106 0.86316 0.92783 0.0
C1728 C 0.80257 0.87383 0.95161 0.0
C1729 C 0.77819 0.85368 0.92002 0.0
H1730 H 0.74295 0.86881 0.9726 0.0
H1731 H 0.82029 0.88108 0.95699 0.0
O1732 O 0.78161 0.92747 0.05537 0.0
O1733 O 0.75331 0.88919 0.02531 0.0
O1734 O 0.78083 0.93065 0.99766 0.0
O1735 O 0.81146 0.88853 0.0255 0.0
H1736 H 0.76155 0.92419 0.10114 0.0
H1737 H 0.7827 0.97448 0.0416 0.0
H1738 H 0.74615 0.96 0.12629 0.0
H1739 H 0.76695 0.00943 0.06778 0.0
H1740 H 0.73501 0.80806 0.01985 0.0
H1741 H 0.70891 0.89108 0.04941 0.0
H1742 H 0.7633 0.84318 0.01141 0.0
H1743 H 0.68159 0.8551 0.05728 0.0
H1744 H 0.67542 0.95685 0.06986 0.0
H1745 H 0.68422 0.97614 0.99173 0.0
H1746 H 0.80674 0.87505 0.13925 0.0
H1747 H 0.7517 0.82469 0.11434 0.0
H1748 H 0.82093 0.92389 0.9676 0.0
H1749 H 0.76505 0.97736 0.99399 0.0
H1750 H 0.83987 0.95635 0.94029 0.0
H1751 H 0.78489 0.00889 0.96618 0.0
H1752 H 0.85199 0.89229 0.99561 0.0
H1753 H 0.80395 0.84134 0.03563 0.0
H1754 H 0.87804 0.85669 0.97971 0.0
H1755 H 0.83072 0.80661 0.01889 0.0
H1756 H 0.89849 0.93569 0.04177 0.0
H1757 H 0.86098 1.00266 0.01637 0.0
H1758 H 0.73903 0.84922 0.93184 0.0
H1759 H 0.81779 0.8622 0.91568 0.0
Li1760 Li 0.29738 0.69739 0.02667 0.0
Li1761 Li 0.32409 0.66199 0.02134 0.0
Li1762 Li 0.30739 0.6818 0.98576 0.0
Li1763 Li 0.2796 0.65786 0.01637 0.0
C1764 C 0.34785 0.70773 0.02308 0.0
N1765 N 0.38194 0.73119 0.05173 0.0
C1766 C 0.34991 0.70144 0.0483 0.0
C1767 C 0.36316 0.72596 0.01245 0.0
C1768 C 0.36724 0.71349 0.06246 0.0
C1769 C 0.38027 0.7376 0.02724 0.0
C1770 C 0.29446 0.65573 0.06919 0.0
C1771 C 0.28447 0.62045 0.09535 0.0
N1772 N 0.28879 0.63388 0.11588 0.0
C1773 C 0.29861 0.66924 0.09057 0.0
C1774 C 0.28715 0.63118 0.0716 0.0
C1775 C 0.29574 0.65784 0.11399 0.0
C1776 C 0.26688 0.72008 0.06052 0.0
N1777 N 0.28751 0.72488 0.04579 0.0
C1778 C 0.28928 0.7656 0.06181 0.0
C1779 C 0.29862 0.7472 0.04569 0.0
C1780 C 0.26822 0.76082 0.07761 0.0
C1781 C 0.25688 0.73781 0.07664 0.0
H1782 H 0.25852 0.70215 0.06005 0.0
H1783 H 0.31486 0.75056 0.03348 0.0
C1784 C 0.37487 0.64923 0.01799 0.0
N1785 N 0.35331 0.64423 0.03131 0.0
C1786 C 0.39646 0.63449 0.021 0.0
C1787 C 0.37349 0.61017 0.05197 0.0
C1788 C 0.35232 0.62543 0.04837 0.0
C1789 C 0.39568 0.61439 0.03778 0.0
H1790 H 0.3749 0.66395 0.00414 0.0
H1791 H 0.3349 0.62148 0.05832 0.0
C1792 C 0.26067 0.71275 0.99759 0.0
N1793 N 0.2356 0.75799 0.99404 0.0
C1794 C 0.23565 0.71543 0.00642 0.0
C1795 C 0.27293 0.73303 0.98687 0.0
C1796 C 0.2233 0.73848 0.00449 0.0
C1797 C 0.25992 0.75576 0.98525 0.0
C1798 C 0.32352 0.62647 0.98844 0.0
C1799 C 0.34305 0.62904 0.97049 0.0
C1800 C 0.32123 0.60424 1.0018 0.0
C1801 C 0.36025 0.60937 0.96645 0.0
C1802 C 0.33883 0.58502 0.99723 0.0
N1803 N 0.35783 0.58797 0.97982 0.0
C1804 C 0.33288 0.70277 0.94441 0.0
C1805 C 0.29219 0.68765 0.93732 0.0
C1806 C 0.33444 0.71285 0.92036 0.0
N1807 N 0.31176 0.69096 0.95239 0.0
C1808 C 0.29296 0.69736 0.91317 0.0
C1809 C 0.314 0.71069 0.90474 0.0
H1810 H 0.34806 0.70509 0.95701 0.0
H1811 H 0.27559 0.67836 0.94449 0.0
C1812 C 0.23363 0.64884 0.03859 0.0
N1813 N 0.25109 0.63906 0.02219 0.0
C1814 C 0.21236 0.63568 0.04565 0.0
C1815 C 0.22759 0.60251 0.01885 0.0
C1816 C 0.24855 0.61646 0.01213 0.0
C1817 C 0.20934 0.61219 0.03587 0.0
H1818 H 0.23651 0.66672 0.04647 0.0
H1819 H 0.26288 0.60923 0.99916 0.0
O1820 O 0.33089 0.6964 0.00874 0.0
O1821 O 0.29651 0.66686 0.04614 0.0
O1822 O 0.27338 0.69058 1.00008 0.0
O1823 O 0.30696 0.64578 0.99314 0.0
H1824 H 0.33841 0.68733 0.05685 0.0
H1825 H 0.36176 0.73113 0.99298 0.0
H1826 H 0.36902 0.70877 0.08199 0.0
H1827 H 0.3922 0.75176 0.01924 0.0
H1828 H 0.27897 0.60143 0.09747 0.0
H1829 H 0.30392 0.68837 0.08911 0.0
H1830 H 0.28392 0.62039 0.05531 0.0
H1831 H 0.29896 0.66806 0.13068 0.0
H1832 H 0.29866 0.78308 0.06236 0.0
H1833 H 0.24116 0.73308 0.0891 0.0
H1834 H 0.41328 0.63814 0.00964 0.0
H1835 H 0.3724 0.59496 0.06528 0.0
H1836 H 0.22592 0.69993 0.01483 0.0
H1837 H 0.2924 0.73134 0.98022 0.0
H1838 H 0.20397 0.74086 0.01134 0.0
H1839 H 0.26921 0.77165 0.97712 0.0
H1840 H 0.34509 0.64617 0.96003 0.0
H1841 H 0.30631 0.60202 0.01588 0.0
H1842 H 0.37559 0.61116 0.95276 0.0
H1843 H 0.33747 0.5678 0.00762 0.0
H1844 H 0.35104 0.72283 0.91429 0.0
H1845 H 0.27679 0.69555 0.90163 0.0
H1846 H 0.19859 0.6436 0.05885 0.0
H1847 H 0.22554 0.58452 0.01075 0.0
Li1848 Li 0.18222 0.5378 0.78668 0.0
Li1849 Li 0.15177 0.52777 0.8176 0.0
Li1850 Li 0.16698 0.49725 0.79032 0.0
Li1851 Li 0.1398 0.53062 0.77559 0.0
C1852 C 0.21082 0.5053 0.81455 0.0
N1853 N 0.25951 0.48563 0.81411 0.0
C1854 C 0.22214 0.49877 0.83692 0.0
C1855 C 0.22432 0.50187 0.79195 0.0
C1856 C 0.24675 0.48886 0.83631 0.0
C1857 C 0.24889 0.49188 0.79212 0.0
C1858 C 0.15752 0.57825 0.80851 0.0
C1859 C 0.15527 0.62247 0.81328 0.0
N1860 N 0.17043 0.62022 0.83314 0.0
C1861 C 0.17309 0.57639 0.82897 0.0
C1862 C 0.14855 0.60147 0.80057 0.0
C1863 C 0.17941 0.59782 0.84115 0.0
C1864 C 0.20878 0.56772 0.75436 0.0
N1865 N 0.20907 0.55801 0.77781 0.0
C1866 C 0.24022 0.58593 0.78946 0.0
C1867 C 0.22508 0.56586 0.79502 0.0
C1868 C 0.23874 0.59754 0.76601 0.0
C1869 C 0.22383 0.58758 0.74789 0.0
H1870 H 0.19539 0.5613 0.74137 0.0
H1871 H 0.22459 0.55788 0.81362 0.0
C1872 C 0.14854 0.51317 0.86667 0.0
N1873 N 0.14018 0.5309 0.85055 0.0
C1874 C 0.13748 0.5112 0.89047 0.0
C1875 C 0.10999 0.54626 0.88063 0.0
C1876 C 0.12178 0.54772 0.85711 0.0
C1877 C 0.1175 0.52743 0.89723 0.0
H1878 H 0.16289 0.49981 0.86053 0.0
H1879 H 0.11538 0.56135 0.84363 0.0
C1880 C 0.16564 0.50467 0.73847 0.0
N1881 N 0.1529 0.48009 0.69618 0.0
C1882 C 0.14751 0.4864 0.74001 0.0
C1883 C 0.17728 0.51041 0.7154 0.0
C1884 C 0.14135 0.47418 0.71843 0.0
C1885 C 0.17058 0.49778 0.69424 0.0
C1886 C 0.10887 0.50393 0.81299 0.0
C1887 C 0.10334 0.48416 0.82915 0.0
C1888 C 0.09168 0.52388 0.81123 0.0
C1889 C 0.08071 0.48472 0.84332 0.0
C1890 C 0.06923 0.52371 0.82566 0.0
N1891 N 0.06426 0.5043 0.84128 0.0
C1892 C 0.17097 0.45087 0.81073 0.0
C1893 C 0.19245 0.45493 0.77131 0.0
C1894 C 0.18133 0.42724 0.81408 0.0
N1895 N 0.17678 0.46409 0.78969 0.0
C1896 C 0.20341 0.43148 0.77398 0.0
C1897 C 0.19809 0.41766 0.79574 0.0
H1898 H 0.15943 0.45926 0.82545 0.0
H1899 H 0.19751 0.46628 0.75527 0.0
C1900 C 0.12115 0.5617 0.73979 0.0
N1901 N 0.11623 0.54029 0.75225 0.0
C1902 C 0.10748 0.56846 0.71903 0.0
C1903 C 0.08323 0.53146 0.72512 0.0
C1904 C 0.0974 0.52541 0.74582 0.0
C1905 C 0.08888 0.5528 0.71109 0.0
H1906 H 0.13653 0.57286 0.7453 0.0
H1907 H 0.09431 0.50828 0.75596 0.0
O1908 O 0.18654 0.51463 0.81506 0.0
O1909 O 0.15109 0.55761 0.79606 0.0
O1910 O 0.17161 0.51745 0.75916 0.0
O1911 O 0.13123 0.50403 0.79939 0.0
H1912 H 0.21195 0.50129 0.85458 0.0
H1913 H 0.21598 0.50671 0.77441 0.0
H1914 H 0.25571 0.4837 0.85349 0.0
H1915 H 0.2595 0.48906 0.77476 0.0
H1916 H 0.14848 0.64056 0.80732 0.0
H1917 H 0.18037 0.55864 0.83533 0.0
H1918 H 0.13652 0.60323 0.78474 0.0
H1919 H 0.19148 0.59665 0.85696 0.0
H1920 H 0.25136 0.59355 0.80386 0.0
H1921 H 0.22201 0.59652 0.72982 0.0
H1922 H 0.14351 0.49644 0.90295 0.0
H1923 H 0.09463 0.55909 0.88554 0.0
H1924 H 0.1382 0.4817 0.75761 0.0
H1925 H 0.19129 0.52455 0.71384 0.0
H1926 H 0.12734 0.46004 0.71937 0.0
H1927 H 0.17941 0.50209 0.67627 0.0
H1928 H 0.11635 0.46856 0.83082 0.0
H1929 H 0.09584 0.53959 0.79926 0.0
H1930 H 0.07623 0.46959 0.85597 0.0
H1931 H 0.05584 0.5391 0.82458 0.0
H1932 H 0.17731 0.41707 0.83125 0.0
H1933 H 0.21647 0.42449 0.75962 0.0
H1934 H 0.1121 0.58514 0.70864 0.0
H1935 H 0.06908 0.51894 0.71929 0.0
Li1936 Li 0.25825 0.42565 0.53104 0.0
Li1937 Li 0.28207 0.39193 0.55442 0.0
Li1938 Li 0.30688 0.42621 0.52886 0.0
Li1939 Li 0.28365 0.39314 0.50529 0.0
C1940 C 0.27224 0.44886 0.57102 0.0
N1941 N 0.24994 0.48928 0.59458 0.0
C1942 C 0.25757 0.44565 0.59292 0.0
C1943 C 0.27555 0.47258 0.56106 0.0
C1944 C 0.24646 0.46634 0.60457 0.0
C1945 C 0.26413 0.49279 0.57326 0.0
C1946 C 0.24171 0.36788 0.53618 0.0
C1947 C 0.23677 0.32401 0.53227 0.0
N1948 N 0.21702 0.32506 0.54914 0.0
C1949 C 0.22136 0.36854 0.55346 0.0
C1950 C 0.24952 0.34545 0.5255 0.0
C1951 C 0.20913 0.34669 0.55979 0.0
C1952 C 0.21883 0.45989 0.51251 0.0
N1953 N 0.22553 0.44506 0.53209 0.0
C1954 C 0.18517 0.45412 0.55269 0.0
C1955 C 0.20908 0.44208 0.55196 0.0
C1956 C 0.17771 0.46967 0.5328 0.0
C1957 C 0.19511 0.47236 0.5125 0.0
H1958 H 0.23173 0.46181 0.49659 0.0
H1959 H 0.21428 0.42994 0.56722 0.0
C1960 C 0.29058 0.38538 0.60746 0.0
N1961 N 0.28215 0.37294 0.58761 0.0
C1962 C 0.29056 0.37466 0.63161 0.0
C1963 C 0.27348 0.338 0.61515 0.0
C1964 C 0.27376 0.34947 0.59123 0.0
C1965 C 0.28207 0.35047 0.636 0.0
H1966 H 0.29718 0.40396 0.60467 0.0
H1967 H 0.26722 0.33942 0.57562 0.0
C1968 C 0.29477 0.44207 0.48194 0.0
N1969 N 0.32104 0.4658 0.44363 0.0
C1970 C 0.31439 0.42967 0.46883 0.0
C1971 C 0.28855 0.46657 0.47565 0.0
C1972 C 0.32742 0.44197 0.44949 0.0
C1973 C 0.30205 0.47824 0.4562 0.0
C1974 C 0.32759 0.36958 0.52271 0.0
C1975 C 0.34856 0.37342 0.50674 0.0
C1976 C 0.32246 0.34577 0.5315 0.0
C1977 C 0.36401 0.35322 0.49965 0.0
C1978 C 0.33838 0.32606 0.524 0.0
N1979 N 0.35863 0.33017 0.50835 0.0
C1980 C 0.35988 0.43473 0.5383 0.0
C1981 C 0.33992 0.46992 0.52058 0.0
C1982 C 0.38277 0.44729 0.53944 0.0
N1983 N 0.3388 0.44603 0.52905 0.0
C1984 C 0.3625 0.48316 0.52136 0.0
C1985 C 0.38449 0.47207 0.53117 0.0
H1986 H 0.35901 0.41578 0.54488 0.0
H1987 H 0.32325 0.47895 0.51332 0.0
C1988 C 0.26884 0.38663 0.45382 0.0
N1989 N 0.2826 0.37527 0.47199 0.0
C1990 C 0.26689 0.37606 0.43007 0.0
C1991 C 0.29316 0.34194 0.44351 0.0
C1992 C 0.29477 0.35323 0.46698 0.0
C1993 C 0.27891 0.35318 0.42445 0.0
H1994 H 0.25924 0.4041 0.45771 0.0
H1995 H 0.30578 0.34417 0.48116 0.0
O1996 O 0.28272 0.42884 0.55892 0.0
O1997 O 0.25399 0.38904 0.52981 0.0
O1998 O 0.2821 0.43047 0.50121 0.0
O1999 O 0.31221 0.38906 0.52983 0.0
H2000 H 0.2545 0.42737 0.60066 0.0
H2001 H 0.28658 0.4753 0.54394 0.0
H2002 H 0.23498 0.46414 0.62149 0.0
H2003 H 0.26646 0.51126 0.56573 0.0
H2004 H 0.24264 0.30651 0.52418 0.0
H2005 H 0.21515 0.38571 0.56199 0.0
H2006 H 0.26536 0.34458 0.51227 0.0
H2007 H 0.19338 0.34691 0.57318 0.0
H2008 H 0.17242 0.45067 0.56847 0.0
H2009 H 0.19044 0.48402 0.49667 0.0
H2010 H 0.29677 0.38557 0.64682 0.0
H2011 H 0.26681 0.31935 0.61721 0.0
H2012 H 0.31956 0.41077 0.4736 0.0
H2013 H 0.27367 0.47657 0.48586 0.0
H2014 H 0.34265 0.43258 0.43918 0.0
H2015 H 0.29749 0.49722 0.45116 0.0
H2016 H 0.35287 0.39179 0.49992 0.0
H2017 H 0.3063 0.34253 0.54388 0.0
H2018 H 0.38028 0.35588 0.48726 0.0
H2019 H 0.3346 0.3075 0.53058 0.0
H2020 H 0.39911 0.43743 0.54652 0.0
H2021 H 0.36257 0.50213 0.51471 0.0
H2022 H 0.25564 0.38564 0.41631 0.0
H2023 H 0.30335 0.32463 0.44026 0.0
Li2024 Li 0.40727 0.56897 0.28314 0.0
Li2025 Li 0.38683 0.53975 0.25748 0.0
Li2026 Li 0.42183 0.56367 0.24102 0.0
Li2027 Li 0.38045 0.58257 0.24969 0.0
C2028 C 0.43595 0.528 0.2859 0.0
N2029 N 0.46293 0.50762 0.32463 0.0
C2030 C 0.42687 0.50751 0.2992 0.0
C2031 C 0.45888 0.53799 0.29216 0.0
C2032 C 0.44078 0.49748 0.31873 0.0
C2033 C 0.47218 0.52749 0.31187 0.0
C2034 C 0.35018 0.57671 0.28919 0.0
C2035 C 0.30633 0.58913 0.28613 0.0
N2036 N 0.3088 0.60524 0.305 0.0
C2037 C 0.35224 0.5933 0.30865 0.0
C2038 C 0.32699 0.57447 0.27793 0.0
C2039 C 0.33111 0.60757 0.31635 0.0
C2040 C 0.43334 0.59397 0.31888 0.0
N2041 N 0.41799 0.5748 0.3154 0.0
C2042 C 0.42499 0.55894 0.35628 0.0
C2043 C 0.41262 0.55812 0.33386 0.0
C2044 C 0.4426 0.57734 0.3596 0.0
C2045 C 0.44581 0.59572 0.34111 0.0
H2046 H 0.43674 0.60726 0.30401 0.0
H2047 H 0.4 0.54329 0.33054 0.0
C2048 C 0.3861 0.4896 0.24662 0.0
N2049 N 0.37242 0.50852 0.25718 0.0
C2050 C 0.37554 0.4665 0.24471 0.0
C2051 C 0.33739 0.48267 0.26539 0.0
C2052 C 0.34868 0.50548 0.26685 0.0
C2053 C 0.35077 0.46302 0.25388 0.0
H2054 H 0.40509 0.49263 0.23941 0.0
H2055 H 0.33843 0.52082 0.27541 0.0
C2056 C 0.43035 0.61076 0.24674 0.0
N2057 N 0.46436 0.64125 0.2222 0.0
C2058 C 0.42213 0.6276 0.22856 0.0
C2059 C 0.45586 0.60952 0.25252 0.0
C2060 C 0.43962 0.64285 0.21636 0.0
C2061 C 0.47276 0.62504 0.23987 0.0
C2062 C 0.38172 0.54002 0.2093 0.0
C2063 C 0.39937 0.52619 0.19498 0.0
C2064 C 0.35607 0.53493 0.20838 0.0
C2065 C 0.39105 0.50733 0.18011 0.0
C2066 C 0.34853 0.51586 0.19335 0.0
N2067 N 0.36603 0.50257 0.17965 0.0
C2068 C 0.46963 0.54668 0.22297 0.0
C2069 C 0.44882 0.57656 0.19757 0.0
C2070 C 0.48899 0.54365 0.20492 0.0
N2071 N 0.45 0.56271 0.21881 0.0
C2072 C 0.46785 0.57433 0.17917 0.0
C2073 C 0.48794 0.55734 0.18258 0.0
H2074 H 0.46968 0.5354 0.23973 0.0
H2075 H 0.43251 0.58848 0.19447 0.0
C2076 C 0.35729 0.62779 0.25529 0.0
N2077 N 0.35717 0.60763 0.24065 0.0
C2078 C 0.33893 0.64631 0.2529 0.0
C2079 C 0.32137 0.62375 0.21932 0.0
C2080 C 0.34014 0.60542 0.2225 0.0
C2081 C 0.32045 0.64409 0.23513 0.0
H2082 H 0.37119 0.62896 0.26945 0.0
H2083 H 0.34065 0.58917 0.21108 0.0
O2084 O 0.42237 0.53836 0.26702 0.0
O2085 O 0.37083 0.56305 0.28093 0.0
O2086 O 0.41356 0.59551 0.25876 0.0
O2087 O 0.38953 0.55816 0.22444 0.0
H2088 H 0.40913 0.4996 0.29471 0.0
H2089 H 0.46612 0.55392 0.28216 0.0
H2090 H 0.43391 0.48171 0.32927 0.0
H2091 H 0.48979 0.5352 0.31708 0.0
H2092 H 0.28837 0.5878 0.27739 0.0
H2093 H 0.37002 0.59536 0.31753 0.0
H2094 H 0.32512 0.56196 0.26265 0.0
H2095 H 0.33247 0.62059 0.33128 0.0
H2096 H 0.42191 0.54454 0.37021 0.0
H2097 H 0.4586 0.61069 0.34342 0.0
H2098 H 0.38657 0.45155 0.23618 0.0
H2099 H 0.31826 0.48053 0.27273 0.0
H2100 H 0.40253 0.62873 0.22367 0.0
H2101 H 0.4626 0.5965 0.26642 0.0
H2102 H 0.43354 0.65589 0.20218 0.0
H2103 H 0.49257 0.62416 0.24405 0.0
H2104 H 0.4193 0.52978 0.19552 0.0
H2105 H 0.34219 0.54522 0.21959 0.0
H2106 H 0.40451 0.4964 0.16904 0.0
H2107 H 0.32878 0.51154 0.19267 0.0
H2108 H 0.504 0.53006 0.20787 0.0
H2109 H 0.466 0.58457 0.1618 0.0
H2110 H 0.33878 0.662 0.26519 0.0
H2111 H 0.30734 0.6217 0.2054 0.0
Co2112 Co 0.02596 0.042 0.01244 0.0
C2113 C 0.02184 0.07556 0.05293 0.0
Co2114 Co 0.03253 0.02417 0.0484 0.0
C2115 C 0.00833 0.05076 0.96297 0.0
C2116 C 0.02904 0.081 0.97617 0.0
N2117 N 0.02125 0.05816 0.98253 0.0
N2118 N 0.00761 0.06819 0.94484 0.0
C2119 C 0.02042 0.08733 0.95303 0.0
H2120 H 0.9989 0.03332 0.96238 0.0
H2121 H 0.0399 0.0925 0.98783 0.0
C2122 C 0.03658 0.99076 0.00766 0.0
N2123 N 0.03723 0.00813 0.07838 0.0
C2124 C 0.05127 0.01502 0.09735 0.0
C2125 C 0.02728 0.98648 0.08591 0.0
N2126 N 0.0503 0.99862 0.11649 0.0
C2127 C 0.03529 0.98058 0.10938 0.0
C2128 C 0.98175 0.02134 0.03347 0.0
O2129 O 0.03242 0.01068 0.99525 0.0
O2130 O 0.03874 0.99261 0.03116 0.0
O2131 O 0.99685 0.01649 0.05094 0.0
O2132 O 0.99019 0.03382 0.01476 0.0
O2133 O 0.02643 0.0559 0.06565 0.0
H2134 H 0.01515 0.97559 0.07492 0.0
H2135 H 0.06186 0.03182 0.09723 0.0
O2136 O 0.01937 0.07317 0.02958 0.0
O2137 O 0.06166 0.0502 0.01013 0.0
O2138 O 0.06815 0.03191 0.0459 0.0
C2139 C 0.07665 0.04487 0.0276 0.0
H2140 H 0.02315 0.10463 0.94303 0.0
H2141 H 0.03087 0.96411 0.12016 0.0
Co2142 Co 0.26672 0.77272 0.27971 0.0
C2143 C 0.26456 0.73284 0.24855 0.0
Co2144 Co 0.25051 0.78176 0.24344 0.0
C2145 C 0.27037 0.77471 0.33196 0.0
C2146 C 0.29934 0.75058 0.31666 0.0
N2147 N 0.279 0.76459 0.31048 0.0
N2148 N 0.28494 0.76845 0.35116 0.0
C2149 C 0.30307 0.75296 0.34183 0.0
H2150 H 0.25434 0.78751 0.33324 0.0
H2151 H 0.31144 0.74045 0.30352 0.0
C2152 C 0.25204 0.82153 0.27486 0.0
N2153 N 0.23815 0.7907 0.21293 0.0
C2154 C 0.24956 0.78599 0.19069 0.0
C2155 C 0.21778 0.8051 0.20772 0.0
N2156 N 0.23738 0.79701 0.17175 0.0
C2157 C 0.21722 0.809 0.1823 0.0
C2158 C 0.21487 0.76868 0.27869 0.0
O2159 O 0.26298 0.80627 0.28928 0.0
O2160 O 0.24546 0.81453 0.25372 0.0
O2161 O 0.21749 0.77471 0.25581 0.0
O2162 O 0.23409 0.76686 0.29201 0.0
O2163 O 0.2556 0.74849 0.23311 0.0
H2164 H 0.20453 0.81272 0.22152 0.0
H2165 H 0.26662 0.77467 0.18842 0.0
O2166 O 0.27019 0.73971 0.27011 0.0
O2167 O 0.29949 0.77841 0.26732 0.0
O2168 O 0.28373 0.78888 0.23142 0.0
C2169 C 0.30278 0.78547 0.24486 0.0
H2170 H 0.31877 0.74533 0.35206 0.0
H2171 H 0.20344 0.82019 0.1725 0.0
Co2172 Co 0.52005 0.03235 0.52236 0.0
C2173 C 0.53605 0.08124 0.51453 0.0
Co2174 Co 0.55514 0.03883 0.54118 0.0
C2175 C 0.4711 0.014 0.5164 0.0
C2176 C 0.48432 0.0329 0.48334 0.0
N2177 N 0.49073 0.02655 0.50672 0.0
N2178 N 0.4526 0.01223 0.50008 0.0
C2179 C 0.46084 0.02394 0.47914 0.0
H2180 H 0.47082 0.00557 0.53482 0.0
H2181 H 0.49614 0.043 0.47012 0.0
C2182 C 0.53847 0.9898 0.5487 0.0
N2183 N 0.58474 0.0446 0.55681 0.0
C2184 C 0.60307 0.05973 0.5486 0.0
C2185 C 0.59341 0.03414 0.57797 0.0
N2186 N 0.62274 0.05911 0.56372 0.0
C2187 C 0.61703 0.04291 0.58214 0.0
C2188 C 0.51263 0.0482 0.57044 0.0
O2189 O 0.52095 0.99828 0.53505 0.0
O2190 O 0.5561 0.00436 0.55354 0.0
O2191 O 0.53655 0.04822 0.57007 0.0
O2192 O 0.50144 0.04211 0.55109 0.0
O2193 O 0.55376 0.07337 0.5284 0.0
H2194 H 0.58337 0.0208 0.58947 0.0
H2195 H 0.60238 0.07051 0.53148 0.0
O2196 O 0.51891 0.06621 0.50976 0.0
O2197 O 0.53874 0.02264 0.49369 0.0
O2198 O 0.5738 0.02944 0.5124 0.0
C2199 C 0.56264 0.02302 0.49316 0.0
H2200 H 0.45071 0.02567 0.46202 0.0
H2201 H 0.62902 0.03789 0.59742 0.0
Co2202 Co 0.29552 0.29618 0.78788 0.0
C2203 C 0.27958 0.30531 0.73839 0.0
Co2204 Co 0.26023 0.27832 0.78027 0.0
C2205 C 0.34423 0.30268 0.80702 0.0
C2206 C 0.33166 0.3347 0.78661 0.0
N2207 N 0.32487 0.31179 0.79389 0.0
N2208 N 0.36288 0.3189 0.80824 0.0
C2209 C 0.35513 0.33914 0.79545 0.0
H2210 H 0.34468 0.2844 0.8155 0.0
H2211 H 0.32014 0.34742 0.77585 0.0
C2212 C 0.2761 0.26922 0.82966 0.0
N2213 N 0.23072 0.26292 0.77431 0.0
C2214 C 0.2099 0.27364 0.76488 0.0
C2215 C 0.22484 0.23913 0.77853 0.0
N2216 N 0.19114 0.25762 0.76303 0.0
C2217 C 0.20051 0.23575 0.77143 0.0
C2218 C 0.30258 0.24929 0.76995 0.0
O2219 O 0.29424 0.28275 0.82212 0.0
O2220 O 0.25902 0.265 0.81428 0.0
O2221 O 0.27872 0.25035 0.76959 0.0
O2222 O 0.31421 0.26782 0.77732 0.0
O2223 O 0.26137 0.29185 0.74598 0.0
H2224 H 0.23747 0.22514 0.78612 0.0
H2225 H 0.20852 0.293 0.75962 0.0
O2226 O 0.2967 0.30933 0.75378 0.0
O2227 O 0.27687 0.32456 0.79839 0.0
O2228 O 0.24178 0.30628 0.79099 0.0
C2229 C 0.25297 0.32508 0.79811 0.0
H2230 H 0.36535 0.35609 0.79322 0.0
H2231 H 0.19085 0.21842 0.77178 0.0
Co2232 Co 0.03081 0.01567 0.54108 0.0
C2233 C 0.04408 0.03846 0.58435 0.0
Co2234 Co 0.05085 0.05023 0.53454 0.0
C2235 C 0.02001 0.96599 0.53288 0.0
C2236 C 0.99999 0.97837 0.56585 0.0
N2237 N 0.0155 0.98603 0.54693 0.0
N2238 N 0.00818 0.94612 0.54215 0.0
C2239 C 0.99553 0.95358 0.563 0.0
H2240 H 0.03261 0.96567 0.51654 0.0
H2241 H 0.9929 0.98988 0.58097 0.0
C2242 C 0.03685 0.02809 0.49134 0.0
N2243 N 0.06648 0.07967 0.52831 0.0
C2244 C 0.06221 0.10041 0.54136 0.0
C2245 C 0.08272 0.08611 0.50949 0.0
N2246 N 0.07514 0.11944 0.53167 0.0
C2247 C 0.08792 0.11082 0.5114 0.0
C2248 C 0.08284 0.00976 0.53509 0.0
O2249 O 0.02794 0.01177 0.50611 0.0
O2250 O 0.04758 0.04645 0.50014 0.0
O2251 O 0.08251 0.03312 0.53258 0.0
O2252 O 0.06226 0.99893 0.53941 0.0
O2253 O 0.05377 0.05421 0.56938 0.0
H2254 H 0.08983 0.07379 0.49503 0.0
H2255 H 0.04903 0.10184 0.55713 0.0
O2256 O 0.03371 0.01975 0.57567 0.0
O2257 O 0.99933 0.03246 0.54274 0.0
O2258 O 0.01914 0.06707 0.53643 0.0
C2259 C 0.99865 0.0558 0.54035 0.0
H2260 H 0.98408 0.94198 0.5752 0.0
H2261 H 0.09991 0.12162 0.49893 0.0
Co2262 Co 0.28226 0.80277 0.78278 0.0
C2263 C 0.23396 0.78279 0.79357 0.0
Co2264 Co 0.27698 0.76722 0.7654 0.0
C2265 C 0.29241 0.85393 0.78723 0.0
C2266 C 0.27857 0.8382 0.82173 0.0
N2267 N 0.2853 0.83253 0.79798 0.0
N2268 N 0.29028 0.8728 0.80325 0.0
C2269 C 0.28163 0.86305 0.82504 0.0
H2270 H 0.29872 0.85571 0.76789 0.0
H2271 H 0.27115 0.82526 0.8355 0.0
C2272 C 0.32518 0.78698 0.75455 0.0
N2273 N 0.27362 0.73749 0.75027 0.0
C2274 C 0.26679 0.71631 0.76161 0.0
C2275 C 0.27783 0.73176 0.72608 0.0
N2276 N 0.26626 0.69754 0.74552 0.0
C2277 C 0.27333 0.70711 0.72311 0.0
C2278 C 0.26293 0.80668 0.73569 0.0
O2279 O 0.3168 0.80429 0.76872 0.0
O2280 O 0.31068 0.76919 0.75073 0.0
O2281 O 0.26404 0.78335 0.73735 0.0
O2282 O 0.27003 0.81922 0.75381 0.0
O2283 O 0.24297 0.76521 0.78016 0.0
H2284 H 0.28388 0.74464 0.71161 0.0
H2285 H 0.26289 0.71465 0.78147 0.0
O2286 O 0.24794 0.80114 0.79677 0.0
O2287 O 0.29452 0.78639 0.81142 0.0
O2288 O 0.29009 0.7509 0.79361 0.0
C2289 C 0.29657 0.76303 0.81221 0.0
H2290 H 0.27701 0.87326 0.84184 0.0
H2291 H 0.2749 0.69707 0.70582 0.0
Co2292 Co 0.52417 0.02353 0.01402 0.0
C2293 C 0.57295 0.0144 0.03194 0.0
Co2294 Co 0.52968 0.04122 0.04962 0.0
C2295 C 0.50702 0.01821 0.96514 0.0
C2296 C 0.52584 0.98501 0.97751 0.0
N2297 N 0.51927 0.0082 0.98448 0.0
N2298 N 0.50524 1.00216 0.94647 0.0
C2299 C 0.51728 0.98127 0.95396 0.0
H2300 H 0.49963 0.03704 0.96479 0.0
H2301 H 0.53583 0.97163 0.98896 0.0
C2302 C 0.48098 0.05039 0.03194 0.0
N2303 N 0.53429 0.05695 0.07897 0.0
C2304 C 0.54435 0.04724 0.09966 0.0
C2305 C 0.52899 0.08083 0.08424 0.0
N2306 N 0.54569 0.06409 0.11772 0.0
C2307 C 0.53618 0.08534 0.10805 0.0
C2308 C 0.54185 0.07044 0.00858 0.0
O2309 O 0.48944 0.0366 0.01435 0.0
O2310 O 0.49564 0.05487 0.04944 0.0
O2311 O 0.54119 0.06912 0.03215 0.0
O2312 O 0.53508 0.05206 0.99638 0.0
O2313 O 0.56401 0.02759 0.04982 0.0
H2314 H 0.52089 0.0942 0.07142 0.0
H2315 H 0.55072 0.02814 0.10136 0.0
O2316 O 0.55868 0.0105 0.0139 0.0
O2317 O 0.51336 0.99521 0.03148 0.0
O2318 O 0.51815 0.01302 0.06722 0.0
C2319 C 0.51209 0.99431 0.0551 0.0
H2320 H 0.51919 0.9644 0.94343 0.0
H2321 H 0.53533 0.10308 0.11706 0.0
Co2322 Co 0.27858 0.26689 0.29071 0.0
C2323 C 0.329 0.28229 0.29361 0.0
Co2324 Co 0.28466 0.30263 0.27274 0.0
C2325 C 0.26062 0.21809 0.3007 0.0
C2326 C 0.28321 0.23104 0.32978 0.0
N2327 N 0.27403 0.23747 0.3074 0.0
N2328 N 0.26084 0.19996 0.31817 0.0
C2329 C 0.27515 0.20792 0.33644 0.0
H2330 H 0.25053 0.21745 0.28356 0.0
H2331 H 0.29492 0.24251 0.34062 0.0
C2332 C 0.23429 0.2867 0.26977 0.0
N2333 N 0.28936 0.33213 0.25618 0.0
C2334 C 0.30324 0.35116 0.26297 0.0
C2335 C 0.27969 0.33918 0.2342 0.0
N2336 N 0.30276 0.36975 0.246 0.0
C2337 C 0.28785 0.36239 0.22791 0.0
C2338 C 0.28935 0.26197 0.23934 0.0
O2339 O 0.24313 0.26852 0.28242 0.0
O2340 O 0.24882 0.30465 0.26494 0.0
O2341 O 0.29098 0.28533 0.24115 0.0
O2342 O 0.28548 0.24956 0.25945 0.0
O2343 O 0.32071 0.30058 0.2807 0.0
H2344 H 0.26741 0.32817 0.22349 0.0
H2345 H 0.31369 0.35128 0.27992 0.0
O2346 O 0.31382 0.26504 0.29879 0.0
O2347 O 0.27161 0.28415 0.32201 0.0
O2348 O 0.27824 0.31996 0.30436 0.0
C2349 C 0.27368 0.30738 0.32425 0.0
H2350 H 0.27965 0.19769 0.35327 0.0
H2351 H 0.28277 0.37318 0.21161 0.0
Co2352 Co 0.5183 0.51258 0.04198 0.0
C2353 C 0.52901 0.53521 0.08597 0.0
Co2354 Co 0.53863 0.54717 0.03654 0.0
C2355 C 0.51111 0.46238 0.03335 0.0
C2356 C 0.48682 0.47382 0.06386 0.0
N2357 N 0.50378 0.48228 0.04663 0.0
N2358 N 0.49975 0.44179 0.04145 0.0
C2359 C 0.48436 0.4487 0.06075 0.0
H2360 H 0.52553 0.4627 0.01861 0.0
H2361 H 0.47745 0.485 0.07812 0.0
C2362 C 0.52813 0.52468 0.99256 0.0
N2363 N 0.55349 0.57718 0.03157 0.0
C2364 C 0.54604 0.59805 0.04321 0.0
C2365 C 0.5716 0.58408 0.01476 0.0
N2366 N 0.55843 0.61779 0.03427 0.0
C2367 C 0.57464 0.60923 0.01634 0.0
C2368 C 0.57103 0.50792 0.03911 0.0
O2369 O 0.51798 0.50866 0.00686 0.0
O2370 O 0.53782 0.54337 1.00191 0.0
O2371 O 0.57047 0.53122 0.0365 0.0
O2372 O 0.55047 0.49672 0.04229 0.0
O2373 O 0.53934 0.55096 0.07144 0.0
H2374 H 0.5814 0.57177 1.00177 0.0
H2375 H 0.53093 0.59894 0.05731 0.0
O2376 O 0.51885 0.51663 0.07677 0.0
O2377 O 0.48617 0.52867 0.04167 0.0
O2378 O 0.50668 0.56304 0.03652 0.0
C2379 C 0.48594 0.55203 0.03921 0.0
H2380 H 0.47242 0.43654 0.07181 0.0
H2381 H 0.58754 0.62031 0.00513 0.0
Co2382 Co 0.78447 0.30081 0.28694 0.0
C2383 C 0.73596 0.2808 0.29658 0.0
Co2384 Co 0.77924 0.2653 0.26937 0.0
C2385 C 0.79369 0.35201 0.29275 0.0
C2386 C 0.77949 0.3354 0.32668 0.0
N2387 N 0.7868 0.33028 0.30292 0.0
N2388 N 0.79086 0.37052 0.30913 0.0
C2389 C 0.78201 0.36023 0.33057 0.0
H2390 H 0.80029 0.35429 0.27355 0.0
H2391 H 0.77195 0.3221 0.34001 0.0
C2392 C 0.82773 0.28579 0.2598 0.0
N2393 N 0.77708 0.2358 0.25325 0.0
C2394 C 0.77287 0.21347 0.26363 0.0
C2395 C 0.78281 0.23136 0.22898 0.0
N2396 N 0.77617 0.19529 0.24695 0.0
C2397 C 0.78199 0.20638 0.22499 0.0
C2398 C 0.76589 0.30529 0.2398 0.0
O2399 O 0.81883 0.30303 0.27371 0.0
O2400 O 0.81355 0.2678 0.25571 0.0
O2401 O 0.76702 0.28195 0.24126 0.0
O2402 O 0.77263 0.31767 0.25816 0.0
O2403 O 0.74462 0.26293 0.28326 0.0
H2404 H 0.78821 0.24526 0.21527 0.0
H2405 H 0.76782 0.21056 0.28316 0.0
O2406 O 0.7504 0.29868 0.3 0.0
O2407 O 0.79627 0.28396 0.31553 0.0
O2408 O 0.79154 0.24856 0.29765 0.0
C2409 C 0.79784 0.26057 0.31638 0.0
H2410 H 0.77686 0.37006 0.34748 0.0
H2411 H 0.7861 0.19701 0.20758 0.0
Co2412 Co 0.02716 0.52573 0.5109 0.0
C2413 C 0.07518 0.51658 0.53105 0.0
Co2414 Co 0.03081 0.54229 0.54746 0.0
C2415 C 0.01297 0.52144 0.46074 0.0
C2416 C 0.03236 0.48856 0.47308 0.0
N2417 N 0.02437 0.51122 0.48051 0.0
N2418 N 0.0134 0.50613 0.44124 0.0
C2419 C 0.02557 0.48534 0.44882 0.0
H2420 H 1.00429 0.53978 0.46072 0.0
H2421 H 0.04202 0.4751 0.48471 0.0
C2422 C 0.98275 0.55143 0.52728 0.0
N2423 N 0.03321 0.5574 0.57769 0.0
C2424 C 0.04621 0.54961 0.59753 0.0
C2425 C 0.02181 0.57894 0.58473 0.0
N2426 N 0.04318 0.56535 0.61659 0.0
C2427 C 0.02777 0.58377 0.60884 0.0
C2428 C 0.04418 0.57291 0.50788 0.0
O2429 O 0.99243 0.5387 0.50942 0.0
O2430 O 0.99627 0.5548 0.54593 0.0
O2431 O 0.04216 0.57124 0.53143 0.0
O2432 O 0.03868 0.5546 0.49492 0.0
O2433 O 0.06553 0.52949 0.54884 0.0
H2434 H 0.00998 0.59047 0.57306 0.0
H2435 H 0.05751 0.53265 0.59812 0.0
O2436 O 0.06165 0.51293 0.5124 0.0
O2437 O 0.01568 0.49689 0.52691 0.0
O2438 O 0.01948 0.51322 0.56357 0.0
C2439 C 0.01391 0.49497 0.55047 0.0
H2440 H 0.02847 0.46875 0.43801 0.0
H2441 H 0.02172 0.59968 0.61969 0.0
Co2442 Co 0.7905 0.79359 0.28184 0.0
C2443 C 0.7746 0.8026 0.23269 0.0
Co2444 Co 0.75572 0.77473 0.2744 0.0
C2445 C 0.83673 0.80307 0.30409 0.0
C2446 C 0.82421 0.83426 0.28241 0.0
N2447 N 0.81852 0.81082 0.28885 0.0
N2448 N 0.85327 0.82083 0.30795 0.0
C2449 C 0.84584 0.84044 0.29408 0.0
H2450 H 0.8377 0.78475 0.31243 0.0
H2451 H 0.81295 0.84628 0.27067 0.0
C2452 C 0.77177 0.76577 0.32368 0.0
N2453 N 0.72744 0.75751 0.26769 0.0
C2454 C 0.70813 0.7652 0.25367 0.0
C2455 C 0.72134 0.73467 0.27589 0.0
N2456 N 0.69029 0.7481 0.25278 0.0
C2457 C 0.69828 0.72891 0.2669 0.0
C2458 C 0.79997 0.74745 0.2643 0.0
O2459 O 0.78907 0.78026 0.31615 0.0
O2460 O 0.75492 0.76088 0.30831 0.0
O2461 O 0.77606 0.74765 0.26362 0.0
O2462 O 0.81078 0.76637 0.27182 0.0
O2463 O 0.75669 0.78884 0.2404 0.0
H2464 H 0.73291 0.72297 0.28766 0.0
H2465 H 0.70693 0.7832 0.24466 0.0
O2466 O 0.79197 0.80676 0.24775 0.0
O2467 O 0.77036 0.82065 0.29191 0.0
O2468 O 0.73532 0.80188 0.28524 0.0
C2469 C 0.74647 0.82082 0.29227 0.0
H2470 H 0.85492 0.85809 0.29311 0.0
H2471 H 0.68826 0.71197 0.27023 0.0
Co2472 Co 0.78342 0.29003 0.78392 0.0
C2473 C 0.78301 0.24571 0.75933 0.0
Co2474 Co 0.76277 0.29217 0.74921 0.0
C2475 C 0.78803 0.29527 0.83577 0.0
C2476 C 0.81986 0.27483 0.82049 0.0
N2477 N 0.79858 0.28725 0.81413 0.0
N2478 N 0.80134 0.28787 0.85552 0.0
C2479 C 0.82169 0.27531 0.84606 0.0
H2480 H 0.7706 0.30613 0.83695 0.0
H2481 H 0.83267 0.26533 0.80749 0.0
C2482 C 0.76325 0.3364 0.774 0.0
N2483 N 0.74752 0.29485 0.71913 0.0
C2484 C 0.75672 0.28414 0.69823 0.0
C2485 C 0.72708 0.30829 0.71209 0.0
N2486 N 0.74309 0.29027 0.67836 0.0
C2487 C 0.72433 0.30554 0.68679 0.0
C2488 C 0.73193 0.28041 0.78853 0.0
O2489 O 0.77584 0.32391 0.78969 0.0
O2490 O 0.75621 0.32605 0.7545 0.0
O2491 O 0.73163 0.28491 0.76529 0.0
O2492 O 0.75247 0.28158 0.79974 0.0
O2493 O 0.76961 0.25781 0.74399 0.0
H2494 H 0.71525 0.31962 0.72443 0.0
H2495 H 0.77369 0.27254 0.69741 0.0
O2496 O 0.79079 0.25652 0.77824 0.0
O2497 O 0.81436 0.29807 0.76784 0.0
O2498 O 0.79397 0.29937 0.73312 0.0
C2499 C 0.81452 0.30076 0.74429 0.0
H2500 H 0.83633 0.26647 0.85688 0.0
H2501 H 0.70975 0.31392 0.67558 0.0
Co2502 Co 0.77862 0.7681 0.78622 0.0
C2503 C 0.82937 0.78291 0.78988 0.0
Co2504 Co 0.78569 0.80365 0.76829 0.0
C2505 C 0.75951 0.71982 0.79446 0.0
C2506 C 0.78017 0.73174 0.82542 0.0
N2507 N 0.77298 0.73864 0.80242 0.0
N2508 N 0.75792 0.70149 0.81161 0.0
C2509 C 0.77072 0.70889 0.83122 0.0
H2510 H 0.75024 0.71999 0.77681 0.0
H2511 H 0.79108 0.74286 0.8374 0.0
C2512 C 0.73493 0.78916 0.7648 0.0
N2513 N 0.79113 0.83313 0.75203 0.0
C2514 C 0.80455 0.85216 0.7596 0.0
C2515 C 0.7825 0.84025 0.72962 0.0
N2516 N 0.80457 0.87092 0.74282 0.0
C2517 C 0.79086 0.86349 0.72384 0.0
C2518 C 0.79025 0.76323 0.73474 0.0
O2519 O 0.7431 0.77053 0.77725 0.0
O2520 O 0.75021 0.8065 0.76011 0.0
O2521 O 0.79221 0.7865 0.73681 0.0
O2522 O 0.7858 0.75077 0.75473 0.0
O2523 O 0.82123 0.80096 0.77658 0.0
H2524 H 0.7709 0.82921 0.71821 0.0
H2525 H 0.81451 0.85202 0.77685 0.0
O2526 O 0.8141 0.76565 0.7952 0.0
O2527 O 0.77129 0.78533 0.81756 0.0
O2528 O 0.77926 0.82087 0.79984 0.0
C2529 C 0.77389 0.80852 0.81967 0.0
H2530 H 0.77282 0.69861 0.84852 0.0
H2531 H 0.78702 0.8742 0.70714 0.0
Co2532 Co 0.52635 0.54372 0.51066 0.0
C2533 C 0.52362 0.57642 0.55193 0.0
Co2534 Co 0.53402 0.52519 0.54601 0.0
C2535 C 0.50404 0.55559 0.46375 0.0
C2536 C 0.53203 0.58125 0.47323 0.0
N2537 N 0.52055 0.56053 0.48136 0.0
N2538 N 0.50499 0.57229 0.44492 0.0
C2539 C 0.52254 0.58848 0.45073 0.0
H2540 H 0.49164 0.54003 0.46464 0.0
H2541 H 0.54618 0.59069 0.4832 0.0
C2542 C 0.53668 0.49272 0.50443 0.0
N2543 N 0.54045 0.50846 0.57524 0.0
C2544 C 0.53181 0.51369 0.59853 0.0
C2545 C 0.55686 0.48923 0.57796 0.0
N2546 N 0.54237 0.49861 0.61572 0.0
C2547 C 0.55813 0.48318 0.6028 0.0
C2548 C 0.48284 0.5225 0.53304 0.0
O2549 O 0.53174 0.51276 0.49252 0.0
O2550 O 0.53977 0.49426 0.52779 0.0
O2551 O 0.49863 0.51692 0.54973 0.0
O2552 O 0.49055 0.53571 0.51452 0.0
O2553 O 0.52823 0.55639 0.564 0.0
H2554 H 0.56833 0.48104 0.56303 0.0
H2555 H 0.51902 0.52904 0.60295 0.0
O2556 O 0.52085 0.57478 0.52853 0.0
O2557 O 0.5621 0.55144 0.50698 0.0
O2558 O 0.56949 0.53346 0.54265 0.0
C2559 C 0.57755 0.54622 0.52404 0.0
H2560 H 0.52765 0.60463 0.43975 0.0
H2561 H 0.57126 0.46991 0.61083 0.0
Co2562 Co 0.0182 0.52928 0.02015 0.0
C2563 C 0.03207 0.57914 0.01258 0.0
Co2564 Co 0.05266 0.53752 0.03897 0.0
C2565 C 0.97055 0.50859 0.01425 0.0
C2566 C 0.98259 0.52776 0.98094 0.0
N2567 N 0.98932 0.52217 0.0044 0.0
N2568 N 0.95254 0.50493 0.99781 0.0
C2569 C 0.9598 0.5172 0.97685 0.0
H2570 H 0.97013 0.50164 0.03327 0.0
H2571 H 0.9937 0.53846 0.96761 0.0
C2572 C 0.03858 0.48762 0.04644 0.0
N2573 N 0.08167 0.54434 0.05471 0.0
C2574 C 0.10037 0.55828 0.04529 0.0
C2575 C 0.08952 0.53621 0.07711 0.0
N2576 N 0.11968 0.5591 0.06076 0.0
C2577 C 0.11308 0.54527 0.08088 0.0
C2578 C 0.00986 0.54458 0.06845 0.0
O2579 O 0.02067 0.49497 0.03267 0.0
O2580 O 0.05517 0.50328 0.05126 0.0
O2581 O 0.03367 0.54603 0.06783 0.0
O2582 O 0.999 0.53803 0.04906 0.0
O2583 O 0.04999 0.57201 0.02651 0.0
H2584 H 0.07887 0.52438 0.08978 0.0
H2585 H 0.10009 0.5673 0.02715 0.0
O2586 O 0.01568 0.5633 0.0077 0.0
O2587 O 0.03731 0.52061 0.99138 0.0
O2588 O 0.0719 0.52896 0.01005 0.0
C2589 C 0.06109 0.52227 0.9907 0.0
H2590 H 0.94965 0.518 0.9597 0.0
H2591 H 0.12431 0.5422 0.09713 0.0
C2592 C 0.02947 0.12825 0.10017 0.0
C2593 C 0.02651 0.15027 0.08585 0.0
C2594 C 0.02738 0.10444 0.08974 0.0
C2595 C 0.02188 0.1012 0.06442 0.0
H2596 H 0.03404 0.12935 0.11961 0.0
H2597 H 0.03052 0.0884 0.10164 0.0
S2598 S 0.01019 0.15266 0.01905 0.0
N2599 N 0.01627 0.16685 0.04505 0.0
N2600 N 0.01229 0.12282 0.02567 0.0
C2601 C 0.01821 0.12312 0.05008 0.0
C2602 C 0.02054 0.1473 0.06065 0.0
C2603 C 0.1662 0.75243 0.32815 0.0
C2604 C 0.14511 0.76698 0.32145 0.0
C2605 C 0.18819 0.7519 0.31318 0.0
C2606 C 0.18992 0.76587 0.29093 0.0
H2607 H 0.16617 0.74225 0.3457 0.0
H2608 H 0.20434 0.74122 0.31963 0.0
S2609 S 0.13909 0.80499 0.26378 0.0
N2610 N 0.1264 0.79403 0.29012 0.0
N2611 N 0.16818 0.79328 0.26191 0.0
C2612 C 0.16854 0.77942 0.28323 0.0
C2613 C 0.14604 0.78002 0.29859 0.0
C2614 C 0.55897 0.92812 0.58078 0.0
C2615 C 0.53723 0.91357 0.58075 0.0
C2616 C 0.55924 0.95248 0.57056 0.0
C2617 C 0.53793 0.96355 0.55929 0.0
H2618 H 0.57589 0.92079 0.58925 0.0
H2619 H 0.57642 0.96271 0.57149 0.0
S2620 S 0.47637 0.93323 0.55321 0.0
N2621 N 0.49391 0.91224 0.56771 0.0
N2622 N 0.49444 0.95731 0.5485 0.0
C2623 C 0.51619 0.94903 0.5588 0.0
C2624 C 0.51583 0.92438 0.56948 0.0
C2625 C 0.40692 0.29827 0.85781 0.0
C2626 C 0.4305 0.30523 0.84769 0.0
C2627 C 0.38488 0.30311 0.8449 0.0
C2628 C 0.38565 0.3153 0.82159 0.0
H2629 H 0.40558 0.2885 0.87556 0.0
H2630 H 0.36707 0.29724 0.85318 0.0
S2631 S 0.44263 0.33805 0.78752 0.0
N2632 N 0.45339 0.32554 0.81345 0.0
N2633 N 0.41177 0.33452 0.78903 0.0
C2634 C 0.40903 0.32283 0.8115 0.0
C2635 C 0.43154 0.31775 0.82458 0.0
C2636 C 0.01463 0.89771 0.49385 0.0
C2637 C 0.02308 0.87694 0.50752 0.0
C2638 C 0.00841 0.91989 0.50564 0.0
C2639 C 0.01024 0.92209 0.53151 0.0
H2640 H 0.01318 0.89691 0.47379 0.0
H2641 H 1.00277 0.93575 0.4944 0.0
S2642 S 0.03075 0.87311 0.57583 0.0
N2643 N 0.03235 0.85966 0.54838 0.0
N2644 N 0.02052 0.90177 0.57062 0.0
C2645 C 0.01772 0.90129 0.5456 0.0
C2646 C 0.02418 0.87858 0.53355 0.0
C2647 C 0.39504 0.8023 0.74062 0.0
C2648 C 0.40249 0.78651 0.7208 0.0
C2649 C 0.37016 0.80264 0.75122 0.0
C2650 C 0.35144 0.78717 0.74257 0.0
H2651 H 0.40871 0.81422 0.74838 0.0
H2652 H 0.36569 0.81488 0.76661 0.0
S2653 S 0.36006 0.74445 0.68918 0.0
N2654 N 0.38804 0.7566 0.69161 0.0
N2655 N 0.34198 0.75682 0.7116 0.0
C2656 C 0.35848 0.77179 0.72233 0.0
C2657 C 0.3837 0.77156 0.71149 0.0
C2658 C 0.54736 0.1195 0.95792 0.0
C2659 C 0.55269 0.14065 0.97138 0.0
C2660 C 0.54509 0.09652 0.96991 0.0
C2661 C 0.54799 0.09394 0.99579 0.0
H2662 H 0.54443 0.12084 0.93807 0.0
H2663 H 0.54018 0.08087 0.95892 0.0
S2664 S 0.56324 0.14372 0.0392 0.0
N2665 N 0.5614 0.15763 0.01173 0.0
N2666 N 0.55794 0.11438 0.03423 0.0
C2667 C 0.5544 0.11483 0.00925 0.0
C2668 C 0.55654 0.13821 0.99706 0.0
C2669 C 0.17364 0.3063 0.23581 0.0
C2670 C 0.16164 0.2838 0.23151 0.0
C2671 C 0.19653 0.30719 0.24861 0.0
C2672 C 0.20864 0.28569 0.25819 0.0
H2673 H 0.16528 0.32355 0.22924 0.0
H2674 H 0.2049 0.32499 0.25088 0.0
S2675 S 0.18659 0.22173 0.2509 0.0
N2676 N 0.16508 0.23916 0.23703 0.0
N2677 N 0.20703 0.24098 0.26159 0.0
C2678 C 0.19685 0.26309 0.25419 0.0
C2679 C 0.17376 0.26211 0.24083 0.0
C2680 C 0.10122 0.00885 0.16156 0.0
C2681 C 0.08914 0.00321 0.18459 0.0
C2682 C 0.08833 0.00744 0.13933 0.0
C2683 C 0.06316 0.99995 0.13945 0.0
H2684 H 0.12058 0.01475 0.16079 0.0
H2685 H 0.09815 0.012 0.1219 0.0
S2686 S 0.02339 0.98291 0.19494 0.0
N2687 N 0.05086 0.98965 0.20629 0.0
N2688 N 0.02664 0.98697 0.16444 0.0
C2689 C 0.05101 0.99403 0.16235 0.0
C2690 C 0.06401 0.9957 0.18497 0.0
C2691 C 0.28552 0.77747 0.42036 0.0
C2692 C 0.28224 0.80323 0.42213 0.0
C2693 C 0.28672 0.76608 0.39701 0.0
C2694 C 0.28421 0.78015 0.37496 0.0
H2695 H 0.28755 0.76618 0.43705 0.0
H2696 H 0.28933 0.74621 0.39612 0.0
S2697 S 0.27527 0.84822 0.36988 0.0
N2698 N 0.27624 0.84239 0.40011 0.0
N2699 N 0.27889 0.82114 0.35637 0.0
C2700 C 0.28087 0.80591 0.37662 0.0
C2701 C 0.27975 0.81741 0.40021 0.0
C2702 C 0.49669 0.04843 0.63932 0.0
C2703 C 0.4703 0.05139 0.64005 0.0
C2704 C 0.51042 0.04884 0.61666 0.0
C2705 C 0.49816 0.05199 0.59398 0.0
H2706 H 0.50674 0.04542 0.65638 0.0
H2707 H 0.53067 0.04564 0.61693 0.0
S2708 S 0.42946 0.06266 0.58619 0.0
N2709 N 0.43244 0.05902 0.61655 0.0
N2710 N 0.45832 0.06 0.57376 0.0
C2711 C 0.47185 0.05604 0.59456 0.0
C2712 C 0.45788 0.0557 0.61767 0.0
C2713 C 0.29635 0.24318 0.89368 0.0
C2714 C 0.27358 0.2355 0.90565 0.0
C2715 C 0.297 0.25432 0.86955 0.0
C2716 C 0.27496 0.25816 0.85582 0.0
H2717 H 0.31407 0.24015 0.9028 0.0
H2718 H 0.3151 0.2595 0.86138 0.0
S2719 S 0.20998 0.24411 0.87899 0.0
N2720 N 0.22796 0.23497 0.90204 0.0
N2721 N 0.22941 0.25465 0.85685 0.0
C2722 C 0.25204 0.25102 0.86763 0.0
C2723 C 0.25129 0.24006 0.89234 0.0
C2724 C 0.05409 0.99712 0.43087 0.0
C2725 C 0.05831 0.01761 0.41502 0.0
C2726 C 0.04428 1.00035 0.45524 0.0
C2727 C 0.03869 0.02417 0.46432 0.0
H2728 H 0.06047 0.9788 0.42523 0.0
H2729 H 0.04338 0.98439 0.46765 0.0
S2730 S 0.04075 0.08293 0.42809 0.0
N2731 N 0.05173 0.06177 0.40839 0.0
N2732 N 0.03377 0.06793 0.45436 0.0
C2733 C 0.04013 0.04439 0.44771 0.0
C2734 C 0.04985 0.04108 0.42295 0.0
C2735 C 0.26322 0.85349 0.68277 0.0
C2736 C 0.25594 0.83932 0.66271 0.0
C2737 C 0.26374 0.84333 0.70691 0.0
C2738 C 0.25696 0.81871 0.71166 0.0
H2739 H 0.26988 0.87204 0.67956 0.0
H2740 H 0.27089 0.85441 0.72159 0.0
S2741 S 0.23205 0.77574 0.66585 0.0
N2742 N 0.23867 0.80089 0.6494 0.0
N2743 N 0.23939 0.78167 0.69474 0.0
C2744 C 0.24767 0.80512 0.69198 0.0
C2745 C 0.24728 0.81545 0.66747 0.0
C2746 C 0.49179 0.00285 0.87836 0.0
C2747 C 0.4689 0.01651 0.8778 0.0
C2748 C 0.50338 0.99775 0.90099 0.0
C2749 C 0.49258 0.00651 0.92359 0.0
H2750 H 0.50065 0.99597 0.86125 0.0
H2751 H 0.52112 0.98735 0.90081 0.0
S2752 S 0.43277 0.04316 0.93175 0.0
N2753 N 0.43592 0.03882 0.90143 0.0
N2754 N 0.45745 0.02897 0.944 0.0
C2755 C 0.46963 0.0201 0.92317 0.0
C2756 C 0.45784 0.02517 0.90023 0.0
C2757 C 0.28377 0.25356 0.16827 0.0
C2758 C 0.28514 0.22773 0.16499 0.0
C2759 C 0.286 0.26434 0.19199 0.0
C2760 C 0.28926 0.24989 0.21393 0.0
H2761 H 0.28113 0.26566 0.15226 0.0
H2762 H 0.28461 0.28427 0.19317 0.0
S2763 S 0.29305 0.18123 0.21601 0.0
N2764 N 0.28966 0.18799 0.18618 0.0
N2765 N 0.29325 0.20795 0.23038 0.0
C2766 C 0.29048 0.224 0.21091 0.0
C2767 C 0.28861 0.21306 0.18668 0.0
C2768 C 0.13311 0.08616 0.01058 0.0
C2769 C 0.14997 0.082 0.03014 0.0
C2770 C 0.1101 0.07362 0.00953 0.0
C2771 C 0.10257 0.05608 0.02791 0.0
H2772 H 0.13739 0.09977 0.99616 0.0
H2773 H 0.09783 0.07821 0.99434 0.0
S2774 S 0.14045 0.03663 0.08219 0.0
N2775 N 0.15782 0.05758 0.06761 0.0
N2776 N 0.11483 0.03452 0.06586 0.0
C2777 C 0.1195 0.05128 0.04727 0.0
C2778 C 0.14296 0.06405 0.04834 0.0
C2779 C 0.64124 0.49361 0.03567 0.0
C2780 C 0.64233 0.46783 0.03335 0.0
C2781 C 0.61804 0.50643 0.0377 0.0
C2782 C 0.5952 0.49386 0.03746 0.0
H2783 H 0.65844 0.50388 0.03631 0.0
H2784 H 0.61806 0.52631 0.0396 0.0
S2785 S 0.58822 0.42633 0.02982 0.0
N2786 N 0.619 0.4302 0.02955 0.0
N2787 N 0.57525 0.45414 0.03354 0.0
C2788 C 0.59613 0.46802 0.03476 0.0
C2789 C 0.61975 0.45503 0.03266 0.0
C2790 C 0.79625 0.4305 0.27417 0.0
C2791 C 0.80951 0.4448 0.2906 0.0
C2792 C 0.78934 0.4065 0.28077 0.0
C2793 C 0.79549 0.39606 0.30399 0.0
H2794 H 0.79196 0.43762 0.25578 0.0
H2795 H 0.77963 0.3958 0.26741 0.0
S2796 S 0.82996 0.42591 0.35362 0.0
N2797 N 0.8283 0.44702 0.33116 0.0
N2798 N 0.81514 0.40181 0.34355 0.0
C2799 C 0.80788 0.41047 0.32095 0.0
C2800 C 0.81495 0.43491 0.31425 0.0
C2801 C 0.92174 0.58733 0.54695 0.0
C2802 C 0.90667 0.58684 0.52583 0.0
C2803 C 0.94597 0.5758 0.5472 0.0
C2804 C 0.95645 0.56291 0.52643 0.0
H2805 H 0.91495 0.59714 0.5634 0.0
H2806 H 0.95663 0.57716 0.56394 0.0
S2807 S 0.92444 0.55491 0.46672 0.0
N2808 N 0.90391 0.57148 0.48376 0.0
N2809 N 0.94914 0.54999 0.48418 0.0
C2810 C 0.94145 0.56197 0.50527 0.0
C2811 C 0.91678 0.57387 0.50498 0.0
C2812 C 0.23534 0.14165 0.29384 0.0
C2813 C 0.22311 0.1315 0.31514 0.0
C2814 C 0.24762 0.16409 0.29495 0.0
C2815 C 0.24812 0.17702 0.3174 0.0
H2816 H 0.23565 0.13202 0.27629 0.0
H2817 H 0.25711 0.17124 0.27826 0.0
S2818 S 0.2168 0.15949 0.3777 0.0
N2819 N 0.21078 0.13678 0.35884 0.0
N2820 N 0.23398 0.17902 0.36091 0.0
C2821 C 0.2356 0.16729 0.3387 0.0
C2822 C 0.22306 0.1445 0.33757 0.0
C2823 C 0.40068 0.9691 0.48793 0.0
C2824 C 0.38758 0.96806 0.51115 0.0
C2825 C 0.42158 0.98406 0.48424 0.0
C2826 C 0.43005 0.99842 0.50366 0.0
H2827 H 0.39502 0.95789 0.47267 0.0
H2828 H 0.43162 0.98387 0.46632 0.0
S2829 S 0.40062 0.00411 0.56711 0.0
N2830 N 0.38333 0.98391 0.55323 0.0
N2831 N 0.42272 0.01209 0.54629 0.0
C2832 C 0.41669 0.99805 0.52674 0.0
C2833 C 0.39543 0.98284 0.5305 0.0
C2834 C 0.81433 0.67981 0.25412 0.0
C2835 C 0.84074 0.67815 0.25516 0.0
C2836 C 0.80146 0.70253 0.2559 0.0
C2837 C 0.81451 0.72445 0.25896 0.0
H2838 H 0.80339 0.6633 0.25288 0.0
H2839 H 0.78103 0.70267 0.25584 0.0
S2840 S 0.88407 0.73025 0.25982 0.0
N2841 N 0.8798 0.70035 0.25706 0.0
N2842 N 0.85556 0.74333 0.26088 0.0
C2843 C 0.84106 0.7232 0.2589 0.0
C2844 C 0.85419 0.69997 0.25696 0.0
C2845 C 0.73512 0.40029 0.76363 0.0
C2846 C 0.73068 0.40876 0.78803 0.0
C2847 C 0.7468 0.37725 0.75925 0.0
C2848 C 0.7547 0.36201 0.7791 0.0
H2849 H 0.72846 0.41103 0.74786 0.0
H2850 H 0.74894 0.37105 0.74018 0.0
S2851 S 0.7495 0.37694 0.84638 0.0
N2852 N 0.73655 0.40117 0.8322 0.0
N2853 N 0.75876 0.35776 0.82404 0.0
C2854 C 0.75159 0.37087 0.80355 0.0
C2855 C 0.73943 0.39426 0.80801 0.0
C2856 C 0.04372 0.92001 0.99751 0.0
C2857 C 0.03288 0.91624 0.97421 0.0
C2858 C 0.0452 0.94388 0.00793 0.0
C2859 C 0.03645 0.96551 0.99543 0.0
H2860 H 0.05066 0.90425 0.00815 0.0
H2861 H 0.05319 0.94534 0.02611 0.0
S2862 S 0.00726 0.96636 0.93341 0.0
N2863 N 0.01382 0.93682 0.93874 0.0
N2864 N 0.01677 0.98111 0.9579 0.0
C2865 C 0.02603 0.96203 0.97188 0.0
C2866 C 0.02419 0.93771 0.96147 0.0
C2867 C 0.88463 0.29796 0.7287 0.0
C2868 C 0.88555 0.2971 0.70254 0.0
C2869 C 0.86159 0.30044 0.74205 0.0
C2870 C 0.83863 0.30207 0.7297 0.0
H2871 H 0.90186 0.2965 0.73894 0.0
H2872 H 0.8618 0.30035 0.76223 0.0
S2873 S 0.83114 0.30134 0.66108 0.0
N2874 N 0.86188 0.29849 0.66462 0.0
N2875 N 0.81847 0.30354 0.68952 0.0
C2876 C 0.83943 0.30201 0.7034 0.0
C2877 C 0.86291 0.29941 0.68986 0.0
C2878 C 0.51166 0.14135 0.48244 0.0
C2879 C 0.53274 0.15676 0.48094 0.0
C2880 C 0.51289 0.11736 0.49341 0.0
C2881 C 0.53528 0.10733 0.50357 0.0
H2882 H 0.49386 0.14793 0.4752 0.0
H2883 H 0.49599 0.10659 0.49396 0.0
S2884 S 0.59672 0.13873 0.50205 0.0
N2885 N 0.57732 0.15915 0.48915 0.0
N2886 N 0.57957 0.11462 0.50979 0.0
C2887 C 0.5566 0.12241 0.5019 0.0
C2888 C 0.55535 0.14684 0.49067 0.0
C2889 C 0.62118 0.74983 0.24085 0.0
C2890 C 0.62068 0.75868 0.21608 0.0
C2891 C 0.64411 0.7456 0.25256 0.0
C2892 C 0.66714 0.75045 0.23997 0.0
H2893 H 0.60373 0.74628 0.25125 0.0
H2894 H 0.64388 0.73921 0.27179 0.0
S2895 S 0.67625 0.77231 0.17467 0.0
N2896 N 0.64534 0.77133 0.17915 0.0
N2897 N 0.68837 0.76311 0.20128 0.0
C2898 C 0.66696 0.75873 0.21512 0.0
C2899 C 0.64373 0.76289 0.20312 0.0
C2900 C 0.05888 0.18683 0.53548 0.0
C2901 C 0.06129 0.1911 0.56105 0.0
C2902 C 0.06515 0.16362 0.52542 0.0
C2903 C 0.07356 0.14409 0.54078 0.0
H2904 H 0.05156 0.20132 0.52336 0.0
H2905 H 0.06215 0.16051 0.50589 0.0
S2906 S 0.08403 0.14598 0.60848 0.0
N2907 N 0.0735 0.17407 0.60123 0.0
N2908 N 0.08515 0.13056 0.58217 0.0
C2909 C 0.07684 0.14837 0.56609 0.0
C2910 C 0.07072 0.17189 0.57629 0.0
C2911 C 0.66931 0.26098 0.31894 0.0
C2912 C 0.65959 0.28155 0.33244 0.0
C2913 C 0.69374 0.26078 0.30728 0.0
C2914 C 0.70961 0.28123 0.30841 0.0
H2915 H 0.65813 0.24464 0.31778 0.0
H2916 H 0.70032 0.24435 0.29752 0.0
S2917 S 0.6923 0.34066 0.33944 0.0
N2918 N 0.66737 0.32353 0.34466 0.0
N2919 N 0.71275 0.32326 0.32325 0.0
C2920 C 0.69977 0.30213 0.32137 0.0
C2921 C 0.67502 0.30227 0.3332 0.0
C2922 C 0.51236 0.94412 0.10469 0.0
C2923 C 0.50497 0.92351 0.09154 0.0
C2924 C 0.51321 0.96743 0.09316 0.0
C2925 C 0.50666 0.9708 0.06813 0.0
H2926 H 0.51863 0.94199 0.12362 0.0
H2927 H 0.52022 0.9826 0.10359 0.0
S2928 S 0.48196 0.92312 0.02721 0.0
N2929 N 0.48806 0.90821 0.05347 0.0
N2930 N 0.48959 0.95203 0.0316 0.0
C2931 C 0.49758 0.95055 0.05538 0.0
C2932 C 0.49678 0.92687 0.06714 0.0
C2933 C 0.88626 0.76465 0.83015 0.0
C2934 C 0.90263 0.78477 0.8274 0.0
C2935 C 0.86323 0.76391 0.81756 0.0
C2936 C 0.85524 0.78315 0.80128 0.0
H2937 H 0.89093 0.74949 0.84269 0.0
H2938 H 0.85136 0.7482 0.82105 0.0
S2939 S 0.89171 0.8394 0.78587 0.0
N2940 N 0.90943 0.82391 0.80575 0.0
N2941 N 0.86656 0.82265 0.78253 0.0
C2942 C 0.8717 0.80312 0.79789 0.0
C2943 C 0.89512 0.80391 0.81078 0.0
C2944 C 0.96353 0.08566 0.89431 0.0
C2945 C 0.96745 0.06617 0.87746 0.0
C2946 C 0.97688 0.08629 0.91628 0.0
C2947 C 0.99429 0.06732 0.92222 0.0
H2948 H 0.94992 0.10043 0.89058 0.0
H2949 H 0.97336 0.10148 0.92893 0.0
S2950 S 0.01324 0.01354 0.88359 0.0
N2951 N 0.99147 0.02842 0.86748 0.0
N2952 N 0.01591 0.02938 0.90936 0.0
C2953 C 0.99859 0.04789 0.90559 0.0
C2954 C 0.9853 0.04736 0.88305 0.0
C2955 C 0.76649 0.24885 0.62752 0.0
C2956 C 0.7678 0.26493 0.60683 0.0
C2957 C 0.75697 0.25707 0.6505 0.0
C2958 C 0.74862 0.28168 0.65364 0.0
H2959 H 0.77321 0.22984 0.62597 0.0
H2960 H 0.75667 0.24425 0.66617 0.0
S2961 S 0.74729 0.33074 0.60476 0.0
N2962 N 0.75905 0.30609 0.5902 0.0
N2963 N 0.74153 0.32193 0.634 0.0
C2964 C 0.74899 0.29779 0.63286 0.0
C2965 C 0.75858 0.2893 0.60925 0.0
C2966 C 0.61487 0.02868 0.44426 0.0
C2967 C 0.60301 0.02197 0.42254 0.0
C2968 C 0.6021 0.02748 0.4674 0.0
C2969 C 0.57705 0.01956 0.46951 0.0
H2970 H 0.63373 0.03592 0.44321 0.0
H2971 H 0.61156 0.03397 0.48351 0.0
S2972 S 0.5394 0.9961 0.41841 0.0
N2973 N 0.5663 0.00428 0.40465 0.0
N2974 N 0.54199 1.00214 0.44825 0.0
C2975 C 0.56563 0.01124 0.44807 0.0
C2976 C 0.57868 0.01247 0.42452 0.0
C2977 C 0.79926 0.83136 0.17038 0.0
C2978 C 0.77725 0.83649 0.15687 0.0
C2979 C 0.79825 0.8205 0.19461 0.0
C2980 C 0.7752 0.81397 0.20666 0.0
H2981 H 0.81758 0.83555 0.16206 0.0
H2982 H 0.81581 0.81696 0.20389 0.0
S2983 S 0.71179 0.82639 0.18126 0.0
N2984 N 0.73142 0.83612 0.15888 0.0
N2985 N 0.72962 0.81541 0.2037 0.0
C2986 C 0.75303 0.81939 0.19361 0.0
C2987 C 0.75403 0.83065 0.16903 0.0
C2988 C 0.0223 0.02884 0.65079 0.0
C2989 C 0.01382 0.05277 0.6574 0.0
C2990 C 0.03491 0.02454 0.62788 0.0
C2991 C 0.03971 0.04406 0.61097 0.0
H2992 H 0.0174 0.01311 0.66253 0.0
H2993 H 0.03912 0.00561 0.62257 0.0
S2994 S 0.02506 0.11058 0.62131 0.0
N2995 N 0.01377 0.09653 0.64666 0.0
N2996 N 0.0382 0.08855 0.6039 0.0
C2997 C 0.03401 0.06836 0.61865 0.0
C2998 C 0.02084 0.07271 0.64186 0.0
C2999 C 0.81194 0.20803 0.36156 0.0
C3000 C 0.81417 0.22024 0.3842 0.0
C3001 C 0.80757 0.22133 0.33951 0.0
C3002 C 0.80513 0.2473 0.33938 0.0
H3003 H 0.81325 0.18804 0.36096 0.0
H3004 H 0.80555 0.2111 0.32257 0.0
S3005 S 0.80931 0.28786 0.39412 0.0
N3006 N 0.81351 0.25959 0.40541 0.0
N3007 N 0.80569 0.2847 0.36396 0.0
C3008 C 0.80791 0.25974 0.36189 0.0
C3009 C 0.8123 0.24617 0.38431 0.0
C3010 C 0.58872 0.0391 0.16641 0.0
C3011 C 0.58046 0.05223 0.18758 0.0
C3012 C 0.57725 0.04313 0.14367 0.0
C3013 C 0.55696 0.06026 0.14145 0.0
H3014 H 0.60447 0.02596 0.16736 0.0
H3015 H 0.58466 0.03308 0.12763 0.0
S3016 S 0.52743 0.09794 0.19236 0.0
N3017 N 0.5507 0.08233 0.20561 0.0
N3018 N 0.52827 0.08942 0.16293 0.0
C3019 C 0.54826 0.07318 0.16276 0.0
C3020 C 0.56023 0.06926 0.18586 0.0
C3021 C 0.7857 0.85408 0.87261 0.0
C3022 C 0.77613 0.84218 0.89446 0.0
C3023 C 0.78408 0.84362 0.84865 0.0
C3024 C 0.77319 0.82043 0.84519 0.0
H3025 H 0.79446 0.87181 0.87398 0.0
H3026 H 0.79202 0.85363 0.83273 0.0
S3027 S 0.74576 0.78114 0.8962 0.0
N3028 N 0.75542 0.8056 0.91074 0.0
N3029 N 0.75275 0.78593 0.86632 0.0
C3030 C 0.76357 0.80834 0.86692 0.0
C3031 C 0.76491 0.81916 0.89125 0.0
C3032 C 0.91662 1.00101 0.01211 0.0
C3033 C 0.90785 0.98512 0.0315 0.0
C3034 C 0.93995 0.01311 0.01314 0.0
C3035 C 0.95571 0.01024 0.03376 0.0
H3036 H 0.90566 0.00365 0.99559 0.0
H3037 H 0.94589 0.02446 0.99732 0.0
S3038 S 0.94058 0.97251 0.09065 0.0
N3039 N 0.91638 0.9686 0.07277 0.0
N3040 N 0.95966 0.99105 0.07478 0.0
C3041 C 0.94673 0.995 0.05362 0.0
C3042 C 0.9231 0.98257 0.05247 0.0
C3043 C 0.44161 0.60765 0.04326 0.0
C3044 C 0.41792 0.59767 0.03978 0.0
C3045 C 0.46334 0.59257 0.04339 0.0
C3046 C 0.46222 0.5669 0.04001 0.0
H3047 H 0.44338 0.62734 0.04571 0.0
H3048 H 0.4812 0.60123 0.04603 0.0
S3049 S 0.40449 0.5318 0.02995 0.0
N3050 N 0.3943 0.56075 0.03274 0.0
N3051 N 0.43533 0.53212 0.03325 0.0
C3052 C 0.43853 0.55658 0.03695 0.0
C3053 C 0.41632 0.57204 0.03676 0.0
C3054 C 0.26567 0.62831 0.74353 0.0
C3055 C 0.24757 0.62276 0.76232 0.0
C3056 C 0.27188 0.65285 0.73823 0.0
C3057 C 0.25982 0.67247 0.7513 0.0
H3058 H 0.27485 0.61363 0.73279 0.0
H3059 H 0.28617 0.6565 0.72384 0.0
S3060 S 0.20917 0.66713 0.80053 0.0
N3061 N 0.21684 0.63836 0.79319 0.0
N3062 N 0.22766 0.68451 0.78266 0.0
C3063 C 0.24136 0.66698 0.76987 0.0
C3064 C 0.23542 0.64207 0.77551 0.0
C3065 C 0.13747 0.48289 0.51113 0.0
C3066 C 0.15181 0.48232 0.53281 0.0
C3067 C 0.11303 0.494 0.51077 0.0
C3068 C 0.10161 0.50538 0.532 0.0
H3069 H 0.145 0.47424 0.49429 0.0
H3070 H 0.10297 0.49355 0.49358 0.0
S3071 S 0.13112 0.5097 0.59348 0.0
N3072 N 0.15267 0.49487 0.57602 0.0
N3073 N 0.10704 0.51543 0.57542 0.0
C3074 C 0.11582 0.50518 0.55375 0.0
C3075 C 0.14069 0.49375 0.55414 0.0
C3076 C 0.84155 0.92648 0.72407 0.0
C3077 C 0.84196 0.93958 0.74643 0.0
C3078 C 0.82931 0.90402 0.72306 0.0
C3079 C 0.81716 0.89388 0.74438 0.0
H3080 H 0.85092 0.93355 0.70727 0.0
H3081 H 0.82957 0.89435 0.70555 0.0
S3082 S 0.81125 0.92178 0.807 0.0
N3083 N 0.82814 0.94146 0.79009 0.0
N3084 N 0.80523 0.89904 0.78816 0.0
C3085 C 0.81729 0.90684 0.76682 0.0
C3086 C 0.82967 0.92976 0.76785 0.0
C3087 C 0.69084 0.07243 0.55092 0.0
C3088 C 0.69025 0.09831 0.54787 0.0
C3089 C 0.66877 0.05969 0.55705 0.0
C3090 C 0.64548 0.07242 0.55995 0.0
H3091 H 0.70846 0.06198 0.54854 0.0
H3092 H 0.66972 0.03974 0.55883 0.0
S3093 S 0.6338 0.13995 0.55546 0.0
N3094 N 0.66435 0.13616 0.54913 0.0
N3095 N 0.623 0.11196 0.56066 0.0
C3096 C 0.64464 0.09818 0.55745 0.0
C3097 C 0.66702 0.11121 0.55144 0.0
C3098 C 0.23794 0.39324 0.79929 0.0
C3099 C 0.21147 0.39401 0.79985 0.0
C3100 C 0.25133 0.37075 0.80062 0.0
C3101 C 0.2386 0.34833 0.80222 0.0
H3102 H 0.24835 0.41012 0.79711 0.0
H3103 H 0.27175 0.37096 0.79901 0.0
S3104 S 0.16916 0.34097 0.8068 0.0
N3105 N 0.17285 0.37108 0.80411 0.0
N3106 N 0.19794 0.32848 0.80653 0.0
C3107 C 0.21203 0.34902 0.80424 0.0
C3108 C 0.19845 0.372 0.80306 0.0
C3109 C 0.28513 0.66683 0.25627 0.0
C3110 C 0.29999 0.66292 0.23445 0.0
C3111 C 0.27124 0.68885 0.25962 0.0
C3112 C 0.2717 0.70755 0.24119 0.0
H3113 H 0.28593 0.65365 0.27166 0.0
H3114 H 0.26167 0.69203 0.27752 0.0
S3115 S 0.3046 0.70449 0.17917 0.0
N3116 N 0.31206 0.67791 0.19298 0.0
N3117 N 0.28558 0.71952 0.19913 0.0
C3118 C 0.28427 0.70275 0.2182 0.0
C3119 C 0.2986 0.68029 0.21486 0.0
C3120 C 0.52475 0.64737 0.5602 0.0
C3121 C 0.52783 0.65064 0.586 0.0
C3122 C 0.52284 0.62365 0.54965 0.0
C3123 C 0.52379 0.60164 0.56422 0.0
H3124 H 0.52435 0.66332 0.54778 0.0
H3125 H 0.52104 0.62262 0.52966 0.0
S3126 S 0.52951 0.59942 0.63308 0.0
N3127 N 0.53005 0.6292 0.62606 0.0
N3128 N 0.52692 0.58515 0.60638 0.0
C3129 C 0.52633 0.60462 0.59012 0.0
C3130 C 0.52825 0.6288 0.60089 0.0
C3131 C 0.66422 0.28649 0.81186 0.0
C3132 C 0.66461 0.27373 0.83492 0.0
C3133 C 0.68582 0.28751 0.79618 0.0
C3134 C 0.70852 0.27583 0.80307 0.0
H3135 H 0.64718 0.29607 0.806 0.0
H3136 H 0.68498 0.29836 0.77907 0.0
S3137 S 0.71882 0.23703 0.8595 0.0
N3138 N 0.68937 0.24746 0.86279 0.0
N3139 N 0.72962 0.24878 0.83278 0.0
C3140 C 0.70888 0.26184 0.82529 0.0
C3141 C 0.68699 0.2609 0.84135 0.0
C3142 C 0.02023 0.42055 0.06391 0.0
C3143 C 0.04005 0.41137 0.07873 0.0
C3144 C 0.02008 0.44478 0.05341 0.0
C3145 C 0.03961 0.46143 0.05728 0.0
H3146 H 1.00468 0.4088 0.06015 0.0
H3147 H 1.00432 0.45055 0.04223 0.0
S3148 S 0.09541 0.44743 0.09571 0.0
N3149 N 0.07941 0.42171 0.09734 0.0
N3150 N 0.07919 0.46667 0.07781 0.0
C3151 C 0.05945 0.45255 0.07223 0.0
C3152 C 0.05966 0.42783 0.08281 0.0
C3153 C 0.91939 0.82231 0.3294 0.0
C3154 C 0.91766 0.80917 0.3522 0.0
C3155 C 0.89796 0.82721 0.3155 0.0
C3156 C 0.87429 0.81889 0.3239 0.0
H3157 H 0.93753 0.82828 0.32199 0.0
H3158 H 0.90007 0.83651 0.29757 0.0
S3159 S 0.85934 0.78582 0.38338 0.0
N3160 N 0.89018 0.78926 0.38324 0.0
N3161 N 0.84981 0.79902 0.3573 0.0
C3162 C 0.87211 0.80688 0.34723 0.0
C3163 C 0.89385 0.8019 0.36138 0.0
C3164 C 0.5176 0.39335 0.99502 0.0
C3165 C 0.52329 0.37268 0.01012 0.0
C3166 C 0.50857 0.41543 0.00546 0.0
C3167 C 0.50496 0.41773 0.03138 0.0
H3168 H 0.52024 0.39249 0.97493 0.0
H3169 H 0.50485 0.43107 0.9932 0.0
S3170 S 0.51673 0.36891 0.07901 0.0
N3171 N 0.52414 0.3555 0.05219 0.0
N3172 N 0.50743 0.39748 0.07196 0.0
C3173 C 0.50988 0.39704 0.04671 0.0
C3174 C 0.51902 0.37438 0.03602 0.0
C3175 C 0.8879 0.26672 0.22193 0.0
C3176 C 0.9042 0.28661 0.22444 0.0
C3177 C 0.86356 0.26662 0.23348 0.0
C3178 C 0.85407 0.28646 0.24815 0.0
H3179 H 0.89408 0.25085 0.21106 0.0
H3180 H 0.85206 0.25074 0.23079 0.0
S3181 S 0.8885 0.34372 0.25992 0.0
N3182 N 0.9085 0.32719 0.24226 0.0
N3183 N 0.86312 0.32694 0.26402 0.0
C3184 C 0.87012 0.30655 0.25078 0.0
C3185 C 0.89498 0.30662 0.239 0.0
C3186 C 0.04371 0.6243 0.45981 0.0
C3187 C 0.05032 0.64474 0.47367 0.0
C3188 C 0.04335 0.6007 0.47063 0.0
C3189 C 0.04951 0.59683 0.4957 0.0
H3190 H 0.03752 0.62674 0.44089 0.0
H3191 H 0.03688 0.58569 0.45962 0.0
S3192 S 0.07239 0.64385 0.5384 0.0
N3193 N 0.06638 0.65935 0.51245 0.0
N3194 N 0.06549 0.61492 0.53306 0.0
C3195 C 0.0579 0.61689 0.50918 0.0
C3196 C 0.05831 0.64091 0.4981 0.0
C3197 C 0.67113 0.7675 0.74143 0.0
C3198 C 0.66115 0.78823 0.72833 0.0
C3199 C 0.69435 0.76815 0.7537 0.0
C3200 C 0.70896 0.7896 0.75367 0.0
H3201 H 0.66123 0.75029 0.74169 0.0
H3202 H 0.7012 0.75141 0.7628 0.0
S3203 S 0.69049 0.84983 0.72437 0.0
N3204 N 0.66726 0.83156 0.71798 0.0
N3205 N 0.71059 0.83266 0.74039 0.0
C3206 C 0.69887 0.81067 0.74125 0.0
C3207 C 0.67521 0.81002 0.72881 0.0
C3208 C 0.55127 0.53123 0.67523 0.0
C3209 C 0.55695 0.51149 0.69158 0.0
C3210 C 0.54433 0.5269 0.65086 0.0
C3211 C 0.54293 0.5027 0.64203 0.0
H3212 H 0.5537 0.55012 0.68085 0.0
H3213 H 0.54204 0.54257 0.63833 0.0
S3214 S 0.55201 0.44477 0.6786 0.0
N3215 N 0.55802 0.46691 0.69814 0.0
N3216 N 0.54427 0.45891 0.65236 0.0
C3217 C 0.54628 0.48289 0.65886 0.0
C3218 C 0.55343 0.48725 0.68367 0.0
C3219 C 0.80719 0.30603 0.92206 0.0
C3220 C 0.78178 0.30825 0.93043 0.0
C3221 C 0.81359 0.2982 0.89784 0.0
C3222 C 0.79478 0.29252 0.88125 0.0
H3223 H 0.82213 0.31171 0.93377 0.0
H3224 H 0.83324 0.29789 0.89162 0.0
S3225 S 0.72579 0.29169 0.89565 0.0
N3226 N 0.73802 0.30133 0.92147 0.0
N3227 N 0.74995 0.28678 0.87591 0.0
C3228 C 0.76944 0.29312 0.89001 0.0
C3229 C 0.76297 0.30093 0.91464 0.0
C3230 C 0.95513 0.5432 0.11537 0.0
C3231 C 0.96706 0.54569 0.13804 0.0
C3232 C 0.969 0.544 0.09277 0.0
C3233 C 0.99524 0.54749 0.09215 0.0
H3234 H 0.93509 0.53986 0.11517 0.0
H3235 H 0.95917 0.54111 0.07576 0.0
S3236 S 0.03447 0.55796 0.14679 0.0
N3237 N 0.00577 0.55387 0.15882 0.0
N3238 N 0.03213 0.55553 0.11635 0.0
C3239 C 0.0071 0.55126 0.11479 0.0
C3240 C 0.99294 0.55025 0.13777 0.0
C3241 C 0.78934 0.75112 0.39189 0.0
C3242 C 0.77232 0.73277 0.40003 0.0
C3243 C 0.78894 0.76166 0.36753 0.0
C3244 C 0.77158 0.75443 0.34981 0.0
H3245 H 0.80296 0.7577 0.4046 0.0
H3246 H 0.80238 0.77574 0.36258 0.0
S3247 S 0.72416 0.70573 0.36064 0.0
N3248 N 0.73848 0.7069 0.38737 0.0
N3249 N 0.73749 0.72673 0.34228 0.0
C3250 C 0.75467 0.73588 0.3576 0.0
C3251 C 0.7551 0.72512 0.38238 0.0
C3252 C 0.54795 0.53716 0.92604 0.0
C3253 C 0.55572 0.51355 0.91783 0.0
C3254 C 0.53666 0.54041 0.94968 0.0
C3255 C 0.53258 0.52014 0.96581 0.0
H3256 H 0.55201 0.55338 0.91467 0.0
H3257 H 0.53256 0.55906 0.95595 0.0
S3258 S 0.54647 0.45419 0.95175 0.0
N3259 N 0.55633 0.46937 0.92647 0.0
N3260 N 0.53458 0.4754 0.97092 0.0
C3261 C 0.53803 0.49622 0.95691 0.0
C3262 C 0.54978 0.49293 0.93285 0.0
C3263 C 0.76017 0.35491 0.18977 0.0
C3264 C 0.75536 0.34123 0.16851 0.0
C3265 C 0.7622 0.34334 0.21314 0.0
C3266 C 0.75953 0.31766 0.21602 0.0
H3267 H 0.76298 0.37461 0.18823 0.0
H3268 H 0.76683 0.35449 0.22882 0.0
S3269 S 0.74519 0.27383 0.16622 0.0
N3270 N 0.7471 0.30089 0.15185 0.0
N3271 N 0.75 0.2792 0.1958 0.0
C3272 C 0.75341 0.304 0.19506 0.0
C3273 C 0.75157 0.31576 0.17128 0.0
C3274 C 0.96473 0.52812 0.39671 0.0
C3275 C 0.97547 0.52111 0.3735 0.0
C3276 C 0.97726 0.52303 0.41868 0.0
C3277 C 1.00089 0.51062 0.41829 0.0
H3278 H 0.94657 0.5378 0.39787 0.0
H3279 H 0.96829 0.52863 0.43618 0.0
S3280 S 0.03696 0.48819 0.36233 0.0
N3281 N 0.0109 0.50092 0.35129 0.0
N3282 N 0.03467 0.49152 0.39288 0.0
C3283 C 0.01182 0.50337 0.39525 0.0
C3284 C 0.99909 0.50867 0.37276 0.0
C3285 C 0.78343 0.7151 0.6828 0.0
C3286 C 0.78666 0.72876 0.66025 0.0
C3287 C 0.78522 0.72606 0.70653 0.0
C3288 C 0.7906 0.7513 0.70917 0.0
H3289 H 0.77886 0.69577 0.68219 0.0
H3290 H 0.7819 0.71462 0.723 0.0
S3291 S 0.80283 0.79511 0.65623 0.0
N3292 N 0.79707 0.7689 0.64253 0.0
N3293 N 0.80029 0.7893 0.68649 0.0
C3294 C 0.7945 0.76502 0.68675 0.0
C3295 C 0.79256 0.75388 0.66262 0.0
C3296 C 0.63987 0.5714 0.54694 0.0
C3297 C 0.65095 0.58302 0.52567 0.0
C3298 C 0.6169 0.55876 0.54598 0.0
C3299 C 0.60347 0.5574 0.52377 0.0
H3300 H 0.64908 0.57205 0.5646 0.0
H3301 H 0.60927 0.55055 0.56307 0.0
S3302 S 0.6239 0.58502 0.46273 0.0
N3303 N 0.6464 0.59221 0.4816 0.0
N3304 N 0.60343 0.56904 0.47985 0.0
C3305 C 0.61441 0.56887 0.50233 0.0
C3306 C 0.63798 0.58144 0.50325 0.0
C3307 C 0.15215 0.99351 0.52308 0.0
C3308 C 0.15287 0.96761 0.52514 0.0
C3309 C 0.12943 0.00703 0.52639 0.0
C3310 C 0.10666 0.9951 0.53204 0.0
H3311 H 0.16931 0.0034 0.51887 0.0
H3312 H 0.12979 0.02696 0.52453 0.0
S3313 S 0.09876 0.92738 0.54007 0.0
N3314 N 0.12919 0.93047 0.53366 0.0
N3315 N 0.08638 0.95567 0.53968 0.0
C3316 C 0.10718 0.9691 0.53412 0.0
C3317 C 0.13031 0.9554 0.53069 0.0
C3318 C 0.29638 0.93228 0.76733 0.0
C3319 C 0.30936 0.94684 0.78375 0.0
C3320 C 0.28947 0.90832 0.77416 0.0
C3321 C 0.29543 0.89815 0.79758 0.0
H3322 H 0.29212 0.93925 0.74887 0.0
H3323 H 0.27978 0.89749 0.7609 0.0
S3324 S 0.32987 0.92853 0.84692 0.0
N3325 N 0.32815 0.94943 0.82427 0.0
N3326 N 0.31513 0.9043 0.83705 0.0
C3327 C 0.30786 0.91273 0.81437 0.0
C3328 C 0.31487 0.93712 0.80745 0.0
C3329 C 0.42442 0.09435 0.04642 0.0
C3330 C 0.40474 0.08504 0.03258 0.0
C3331 C 0.44872 0.083 0.04616 0.0
C3332 C 0.45472 0.06178 0.03196 0.0
H3333 H 0.42114 0.11084 0.05734 0.0
H3334 H 0.46306 0.09119 0.05699 0.0
S3335 S 0.40949 0.02828 0.99455 0.0
N3336 N 0.39268 0.05202 0.00571 0.0
N3337 N 0.4382 0.03103 0.00491 0.0
C3338 C 0.43516 0.05202 0.01833 0.0
C3339 C 0.41032 0.06352 0.01871 0.0
C3340 C 0.71299 0.65151 0.8289 0.0
C3341 C 0.71335 0.63735 0.80713 0.0
C3342 C 0.72794 0.67225 0.83038 0.0
C3343 C 0.74352 0.67964 0.81009 0.0
H3344 H 0.70085 0.6467 0.8448 0.0
H3345 H 0.72692 0.68292 0.84729 0.0
S3346 S 0.75295 0.64793 0.74973 0.0
N3347 N 0.73193 0.63132 0.76545 0.0
N3348 N 0.75956 0.67079 0.76818 0.0
C3349 C 0.74432 0.66558 0.78836 0.0
C3350 C 0.72933 0.64431 0.78689 0.0
C3351 C 0.88509 0.48621 0.99698 0.0
C3352 C 0.88519 0.46518 0.01258 0.0
C3353 C 0.90732 0.49895 0.99185 0.0
C3354 C 0.93022 0.49088 1.00207 0.0
H3355 H 0.86767 0.49298 0.98903 0.0
H3356 H 0.90651 0.5155 0.98029 0.0
S3357 S 0.9404 0.43491 0.04169 0.0
N3358 N 0.9098 0.43579 0.03688 0.0
N3359 N 0.95189 0.45917 0.02664 0.0
C3360 C 0.93055 0.46928 0.017 0.0
C3361 C 0.90791 0.45655 0.02242 0.0
C3362 C 0.35529 0.20093 0.76617 0.0
C3363 C 0.34252 0.17962 0.76007 0.0
C3364 C 0.34244 0.22374 0.76817 0.0
C3365 C 0.31637 0.22594 0.76424 0.0
H3366 H 0.37525 0.19987 0.76983 0.0
H3367 H 0.35289 0.23956 0.77363 0.0
S3368 S 0.27459 0.17551 0.7469 0.0
N3369 N 0.30264 0.162 0.74965 0.0
N3370 N 0.27853 0.20493 0.75268 0.0
C3371 C 0.30361 0.20485 0.75717 0.0
C3372 C 0.31668 0.18165 0.75529 0.0
C3373 C 0.25142 0.88248 0.30862 0.0
C3374 C 0.22836 0.89327 0.30148 0.0
C3375 C 0.25915 0.85905 0.29998 0.0
C3376 C 0.24428 0.84626 0.28354 0.0
H3377 H 0.26336 0.89214 0.32095 0.0
H3378 H 0.27694 0.85103 0.30591 0.0
S3379 S 0.18201 0.86689 0.26013 0.0
N3380 N 0.19059 0.88965 0.27776 0.0
N3381 N 0.2051 0.84588 0.26126 0.0
C3382 C 0.22118 0.85704 0.27641 0.0
C3383 C 0.21322 0.88055 0.28546 0.0
C3384 C 0.54403 0.42216 0.49414 0.0
C3385 C 0.53341 0.41839 0.47076 0.0
C3386 C 0.54539 0.44601 0.50455 0.0
C3387 C 0.53667 0.46761 0.492 0.0
H3388 H 0.55091 0.40642 0.50486 0.0
H3389 H 0.55325 0.44745 0.5228 0.0
S3390 S 0.50838 0.46851 0.42956 0.0
N3391 N 0.51478 0.43893 0.43502 0.0
N3392 N 0.51751 0.48325 0.45422 0.0
C3393 C 0.52651 0.46416 0.46834 0.0
C3394 C 0.52482 0.43983 0.4579 0.0
C3395 C 0.35595 0.80074 0.19881 0.0
C3396 C 0.37709 0.78974 0.20998 0.0
C3397 C 0.33199 0.7997 0.21049 0.0
C3398 C 0.32849 0.78795 0.23388 0.0
H3399 H 0.35788 0.8097 0.18067 0.0
H3400 H 0.31609 0.80796 0.20097 0.0
S3401 S 0.37848 0.75749 0.27129 0.0
N3402 N 0.39352 0.76759 0.24582 0.0
N3403 N 0.34855 0.76572 0.26809 0.0
C3404 C 0.34973 0.77745 0.24551 0.0
C3405 C 0.37404 0.77829 0.23344 0.0
C3406 C 0.04879 0.64675 0.99526 0.0
C3407 C 0.02921 0.65521 0.97975 0.0
C3408 C 0.04944 0.62256 0.00592 0.0
C3409 C 0.03064 0.60527 1.00158 0.0
H3410 H 0.06378 0.65904 0.99943 0.0
H3411 H 0.065 0.61736 0.01761 0.0
S3412 S 0.97581 0.61721 0.96127 0.0
N3413 N 0.99095 0.64343 0.95996 0.0
N3414 N 0.99202 0.59864 0.97983 0.0
C3415 C 0.01104 0.61344 0.98595 0.0
C3416 C 0.01035 0.63808 0.97518 0.0
C3417 C 0.1414 0.28667 0.72329 0.0
C3418 C 0.11975 0.27395 0.73097 0.0
C3419 C 0.16458 0.28121 0.73391 0.0
C3420 C 0.16687 0.263 0.75277 0.0
H3421 H 0.14057 0.30039 0.70839 0.0
H3422 H 0.18094 0.29093 0.72681 0.0
S3423 S 0.11485 0.22616 0.78084 0.0
N3424 N 0.10136 0.24331 0.75906 0.0
N3425 N 0.14488 0.23354 0.77988 0.0
C3426 C 0.14508 0.25065 0.76111 0.0
C3427 C 0.1215 0.25603 0.75 0.0
C3428 C 0.53938 0.67038 0.07535 0.0
C3429 C 0.53578 0.68992 0.05824 0.0
C3430 C 0.5481 0.64722 0.06737 0.0
C3431 C 0.55342 0.64271 0.04202 0.0
H3432 H 0.53522 0.67297 0.09507 0.0
H3433 H 0.55024 0.6325 0.08106 0.0
S3434 S 0.54781 0.68806 0.98993 0.0
N3435 N 0.53904 0.70382 0.01504 0.0
N3436 N 0.55508 0.65979 0.99984 0.0
C3437 C 0.55074 0.66231 0.02476 0.0
C3438 C 0.54196 0.68607 0.03295 0.0
C3439 C 0.17435 0.8014 0.83286 0.0
C3440 C 0.15781 0.78174 0.83005 0.0
C3441 C 0.19863 0.80153 0.82108 0.0
C3442 C 0.20773 0.78207 0.80566 0.0
H3443 H 0.16866 0.81675 0.84466 0.0
H3444 H 0.21042 0.81709 0.82423 0.0
S3445 S 0.17146 0.72679 0.79069 0.0
N3446 N 0.15213 0.74269 0.8096 0.0
N3447 N 0.19745 0.74283 0.78771 0.0
C3448 C 0.19126 0.76242 0.80242 0.0
C3449 C 0.16652 0.76227 0.8145 0.0
C3450 C 0.00998 0.44434 0.59959 0.0
C3451 C 0.00701 0.42328 0.58525 0.0
C3452 C 0.01076 0.46779 0.58835 0.0
C3453 C 0.00849 0.47087 0.56242 0.0
H3454 H 0.0129 0.44255 0.61942 0.0
H3455 H 0.01429 0.48342 0.59995 0.0
S3456 S 0.99641 0.42141 0.51751 0.0
N3457 N 0.99901 0.40685 0.54459 0.0
N3458 N 1.0002 0.4509 0.52323 0.0
C3459 C 1.00375 0.44997 0.5482 0.0
C3460 C 1.00313 0.42614 0.55967 0.0
C3461 C 0.39443 0.30298 0.31403 0.0
C3462 C 0.40288 0.2836 0.32995 0.0
C3463 C 0.37116 0.30217 0.3018 0.0
C3464 C 0.35496 0.28196 0.30484 0.0
H3465 H 0.40595 0.319 0.3109 0.0
H3466 H 0.36566 0.31778 0.29015 0.0
S3467 S 0.36735 0.22677 0.3453 0.0
N3468 N 0.3922 0.24391 0.3486 0.0
N3469 N 0.34938 0.2421 0.32555 0.0
C3470 C 0.36326 0.26244 0.32064 0.0
C3471 C 0.38685 0.26331 0.33313 0.0
C3472 C 0.44824 0.57225 0.40548 0.0
C3473 C 0.45883 0.57632 0.3814 0.0
C3474 C 0.4635 0.57064 0.42621 0.0
C3475 C 0.48972 0.57325 0.4235 0.0
H3476 H 0.42803 0.57051 0.40831 0.0
H3477 H 0.45477 0.56776 0.44454 0.0
S3478 S 0.52699 0.58138 0.36446 0.0
N3479 N 0.49742 0.58079 0.35592 0.0
N3480 N 0.52588 0.57842 0.39514 0.0
C3481 C 0.50059 0.57688 0.39961 0.0
C3482 C 0.48517 0.57825 0.37848 0.0
C3483 C 0.278 0.78444 0.11502 0.0
C3484 C 0.26016 0.77769 0.09787 0.0
C3485 C 0.27028 0.79287 0.13862 0.0
C3486 C 0.24452 0.79479 0.14581 0.0
H3487 H 0.29798 0.78108 0.1111 0.0
H3488 H 0.28457 0.79635 0.15195 0.0
S3489 S 0.19059 0.78418 0.10566 0.0
N3490 N 0.21584 0.77746 0.08788 0.0
N3491 N 0.20126 0.79273 0.13263 0.0
C3492 C 0.22655 0.79072 0.12786 0.0
C3493 C 0.23442 0.78228 0.10375 0.0
C3494 C 0.11556 0.5252 0.94354 0.0
C3495 C 0.10337 0.52371 0.9209 0.0
C3496 C 0.10188 0.52341 0.96622 0.0
C3497 C 0.07565 0.51983 0.9669 0.0
H3498 H 0.13559 0.52863 0.94367 0.0
H3499 H 0.11184 0.5257 0.98327 0.0
S3500 S 0.03597 0.51139 0.91217 0.0
N3501 N 0.06451 0.5162 0.90012 0.0
N3502 N 0.0386 0.51247 0.94268 0.0
C3503 C 0.06362 0.51682 0.94422 0.0
C3504 C 0.07754 0.51892 0.92121 0.0
C3505 C 0.26148 0.32459 0.67128 0.0
C3506 C 0.28205 0.33853 0.66199 0.0
C3507 C 0.26083 0.31393 0.69565 0.0
C3508 C 0.28077 0.31648 0.71215 0.0
H3509 H 0.24541 0.32222 0.65976 0.0
H3510 H 0.24436 0.30373 0.70164 0.0
S3511 S 0.34009 0.34945 0.69669 0.0
N3512 N 0.32365 0.35286 0.67127 0.0
N3513 N 0.32234 0.33339 0.71655 0.0
C3514 C 0.30164 0.33001 0.70293 0.0
C3515 C 0.3023 0.34084 0.67816 0.0
C3516 C 0.5058 0.52676 0.15249 0.0
C3517 C 0.50494 0.5511 0.16116 0.0
C3518 C 0.51575 0.52135 0.12869 0.0
C3519 C 0.52526 0.5401 0.11283 0.0
H3520 H 0.49687 0.51215 0.16331 0.0
H3521 H 0.51443 0.50264 0.12211 0.0
S3522 S 0.53174 0.60595 0.12913 0.0
N3523 N 0.51764 0.59337 0.15394 0.0
N3524 N 0.53666 0.58334 0.1091 0.0
C3525 C 0.52691 0.56405 0.12238 0.0
C3526 C 0.51659 0.56954 0.14659 0.0
C3527 C 0.3069 0.71128 0.85915 0.0
C3528 C 0.31336 0.72389 0.88054 0.0
C3529 C 0.30266 0.72402 0.83678 0.0
C3530 C 0.30447 0.74989 0.83508 0.0
H3531 H 0.30444 0.69148 0.85993 0.0
H3532 H 0.297 0.71354 0.821 0.0
S3533 S 0.32219 0.79125 0.88573 0.0
N3534 N 0.3224 0.76338 0.89862 0.0
N3535 N 0.31462 0.78747 0.8565 0.0
C3536 C 0.31198 0.76259 0.85614 0.0
C3537 C 0.31638 0.74955 0.87889 0.0
C3538 C 0.05087 0.55848 0.68529 0.0
C3539 C 0.07727 0.5573 0.68691 0.0
C3540 C 0.03972 0.56169 0.66216 0.0
C3541 C 0.05471 0.56323 0.64014 0.0
H3542 H 0.03885 0.55689 0.70196 0.0
H3543 H 0.01934 0.56244 0.66133 0.0
S3544 S 0.12441 0.56174 0.63443 0.0
N3545 N 0.11801 0.55838 0.66461 0.0
N3546 N 0.09682 0.56412 0.62114 0.0
C3547 C 0.08099 0.56224 0.64151 0.0
C3548 C 0.09236 0.55936 0.66496 0.0
C3549 C 0.27881 0.35536 0.37663 0.0
C3550 C 0.27661 0.3413 0.39903 0.0
C3551 C 0.27732 0.34454 0.3528 0.0
C3552 C 0.2732 0.31906 0.34994 0.0
H3553 H 0.28231 0.37492 0.37745 0.0
H3554 H 0.27978 0.3563 0.33643 0.0
S3555 S 0.26417 0.27409 0.40249 0.0
N3556 N 0.26872 0.30046 0.41642 0.0
N3557 N 0.26589 0.28035 0.37229 0.0
C3558 C 0.27035 0.30492 0.37223 0.0
C3559 C 0.27207 0.31591 0.39645 0.0
C3560 C 0.41782 0.50107 0.51252 0.0
C3561 C 0.40894 0.48605 0.5326 0.0
C3562 C 0.44109 0.51333 0.51309 0.0
C3563 C 0.45678 0.51142 0.53384 0.0
H3564 H 0.407 0.50288 0.49584 0.0
H3565 H 0.4471 0.52395 0.49678 0.0
S3566 S 0.44134 0.47654 0.59245 0.0
N3567 N 0.41723 0.4717 0.57472 0.0
N3568 N 0.46054 0.49426 0.57573 0.0
C3569 C 0.44772 0.4971 0.55435 0.0
C3570 C 0.42407 0.48459 0.55375 0.0
C3571 C 0.952 0.10986 0.54071 0.0
C3572 C 0.92857 0.09841 0.54206 0.0
C3573 C 0.97453 0.09589 0.54068 0.0
C3574 C 0.97444 0.06991 0.54187 0.0
H3575 H 0.95291 0.1298 0.53933 0.0
H3576 H 0.99212 0.1056 0.53933 0.0
S3577 S 0.91771 0.03116 0.54617 0.0
N3578 N 0.90633 0.05982 0.54501 0.0
N3579 N 0.94872 0.03332 0.54517 0.0
C3580 C 0.95103 0.05824 0.54388 0.0
C3581 C 0.92807 0.07255 0.54394 0.0
C3582 C 0.75333 0.13113 0.24205 0.0
C3583 C 0.76083 0.12025 0.2647 0.0
C3584 C 0.75965 0.15534 0.23563 0.0
C3585 C 0.77347 0.16942 0.25174 0.0
H3586 H 0.74103 0.12155 0.23001 0.0
H3587 H 0.75235 0.16363 0.21877 0.0
S3588 S 0.80172 0.14797 0.31068 0.0
N3589 N 0.78591 0.12414 0.30141 0.0
N3590 N 0.79761 0.16988 0.28932 0.0
C3591 C 0.78278 0.15817 0.27341 0.0
C3592 C 0.77651 0.13349 0.27989 0.0
C3593 C 0.63333 0.97745 0.01223 0.0
C3594 C 0.65001 0.98105 0.03169 0.0
C3595 C 0.60875 0.98826 0.01248 0.0
C3596 C 0.59946 0.00337 0.03216 0.0
H3597 H 0.63914 0.9658 0.99674 0.0
H3598 H 0.59687 0.98457 0.99705 0.0
S3599 S 0.63571 0.01983 0.08726 0.0
N3600 N 0.65547 1.00181 0.07088 0.0
N3601 N 0.60954 0.02172 0.07151 0.0
C3602 C 0.616 0.00732 0.05166 0.0
C3603 C 0.64107 0.99629 0.05141 0.0
C3604 C 0.32755 0.42746 0.27248 0.0
C3605 C 0.33881 0.43898 0.25142 0.0
C3606 C 0.31597 0.40472 0.27057 0.0
C3607 C 0.31503 0.39292 0.24751 0.0
H3608 H 0.32784 0.436 0.29057 0.0
H3609 H 0.30735 0.39648 0.28718 0.0
S3610 S 0.34187 0.41549 0.18688 0.0
N3611 N 0.34828 0.43713 0.20683 0.0
N3612 N 0.32677 0.39413 0.20332 0.0
C3613 C 0.32626 0.40424 0.22633 0.0
C3614 C 0.33815 0.42733 0.22828 0.0
C3615 C 0.16276 0.6092 0.03959 0.0
C3616 C 0.18673 0.59827 0.04302 0.0
C3617 C 0.14092 0.59636 0.04587 0.0
C3618 C 0.14236 0.57237 0.05612 0.0
H3619 H 0.16091 0.62764 0.03162 0.0
H3620 H 0.12273 0.6052 0.04266 0.0
S3621 S 0.20061 0.5359 0.06932 0.0
N3622 N 0.2108 0.56238 0.05767 0.0
N3623 N 0.16947 0.53819 0.0696 0.0
C3624 C 0.16618 0.56138 0.06006 0.0
C3625 C 0.18847 0.57435 0.0534 0.0
C3626 C 0.69541 0.87072 0.29178 0.0
C3627 C 0.70769 0.89091 0.30148 0.0
C3628 C 0.70751 0.84748 0.29029 0.0
C3629 C 0.73232 0.84383 0.29828 0.0
H3630 H 0.67663 0.87309 0.28465 0.0
H3631 H 0.69782 0.83266 0.2817 0.0
S3632 S 0.77187 0.89047 0.32684 0.0
N3633 N 0.74545 0.90559 0.32025 0.0
N3634 N 0.76795 0.86182 0.31813 0.0
C3635 C 0.74423 0.86359 0.30928 0.0
C3636 C 0.73197 0.88719 0.3107 0.0
C3637 C 0.8124 0.18261 0.7708 0.0
C3638 C 0.81403 0.17225 0.74694 0.0
C3639 C 0.80124 0.20591 0.77467 0.0
C3640 C 0.79126 0.21986 0.75484 0.0
H3641 H 0.82073 0.17308 0.78652 0.0
H3642 H 0.80114 0.21331 0.79331 0.0
S3643 S 0.7892 0.20029 0.689 0.0
N3644 N 0.80343 0.17691 0.7034 0.0
N3645 N 0.78254 0.2211 0.7106 0.0
C3646 C 0.79182 0.20936 0.731 0.0
C3647 C 0.8033 0.18551 0.72705 0.0
loop_
_geom_bond_atom_site_label_1
_geom_bond_atom_site_label_2
_geom_bond_distance
_geom_bond_site_symmetry_2
_ccdc_geom_bond_type
Li0 N17 1.990 . S
Li0 O60 1.956 . S
Li0 O61 1.970 . S
Li0 O62 1.968 . S
Li1 N25 1.990 . S
Li1 O60 1.970 . S
Li1 O61 1.956 . S
Li1 O63 1.961 . S
Li2 N47 1.990 . S
Li2 O60 1.961 . S
Li2 O62 1.962 . S
Li2 O63 1.970 . S
Li3 N53 1.990 1_455 S
Li3 O61 1.961 . S
Li3 O62 1.971 . S
Li3 O63 1.956 . S
C4 C6 1.348 . S
C4 C7 1.356 . S
C4 O60 1.325 . S
N5 C8 1.314 . S
N5 C9 1.279 . S
C6 C4 1.348 . S
C6 C8 1.353 . S
C6 H64 0.929 . S
C7 C4 1.356 . S
C7 C9 1.358 . S
C7 H65 0.930 . S
C8 N5 1.314 . S
C8 C6 1.353 . S
C8 H66 0.930 . S
C9 N5 1.279 . S
C9 C7 1.358 . S
C9 H67 0.930 . S
C10 C13 1.348 . S
C10 C14 1.356 . S
C10 O61 1.325 . S
C11 N12 1.279 . S
C11 C14 1.358 . S
C11 H68 0.930 . S
N12 C11 1.279 . S
N12 C15 1.314 . S
C13 C10 1.348 . S
C13 C15 1.353 . S
C13 H69 0.929 . S
C14 C10 1.356 . S
C14 C11 1.358 . S
C14 H70 0.930 . S
C15 N12 1.314 . S
C15 C13 1.353 . S
C15 H71 0.930 . S
C16 N17 1.314 . S
C16 C21 1.353 . S
C16 H22 0.930 1_455 S
N17 Li0 1.990 . S
N17 C16 1.314 . S
N17 C19 1.279 . S
C18 C19 1.358 . S
C18 C20 1.356 . S
C18 H72 0.930 . S
C19 N17 1.279 . S
C19 C18 1.358 . S
C19 H23 0.930 . S
C20 C18 1.356 . S
C20 C21 1.348 . S
C21 C16 1.353 . S
C21 C20 1.348 . S
C21 H73 0.929 1_455 S
H22 C16 0.930 1_655 S
H23 C19 0.930 . S
C24 N25 1.314 . S
C24 C26 1.353 . S
C24 H30 0.930 . S
N25 Li1 1.990 . S
N25 C24 1.314 . S
N25 C28 1.279 . S
C26 C24 1.353 . S
C26 C29 1.348 . S
C26 H74 0.929 . S
C27 C28 1.358 . S
C27 C29 1.356 . S
C27 H75 0.930 . S
C28 N25 1.279 . S
C28 C27 1.358 . S
C28 H31 0.930 . S
C29 C26 1.348 . S
C29 C27 1.356 . S
H30 C24 0.930 . S
H31 C28 0.930 . S
C32 C34 1.348 . S
C32 C35 1.356 . S
C32 O62 1.318 1_655 S
N33 C36 1.314 . S
N33 C37 1.279 . S
C34 C32 1.348 . S
C34 C36 1.353 . S
C34 H76 0.929 . S
C35 C32 1.356 . S
C35 C37 1.358 . S
C35 H77 0.930 . S
C36 N33 1.314 . S
C36 C34 1.353 . S
C36 H78 0.930 . S
C37 N33 1.279 . S
C37 C35 1.358 . S
C37 H79 0.930 . S
C38 C39 1.348 . S
C38 C40 1.356 . S
C38 O63 1.325 . S
C39 C38 1.348 . S
C39 C41 1.353 . S
C39 H80 0.929 . S
C40 C38 1.356 . S
C40 C42 1.358 . S
C40 H81 0.930 . S
C41 C39 1.353 . S
C41 N43 1.314 . S
C41 H82 0.930 . S
C42 C40 1.358 . S
C42 N43 1.279 . S
C42 H83 0.930 . S
N43 C41 1.314 . S
N43 C42 1.279 . S
C44 C46 1.353 . S
C44 N47 1.314 . S
C44 H50 0.930 . S
C45 N47 1.279 . S
C45 C48 1.358 . S
C45 H51 0.930 1_455 S
C46 C44 1.353 . S
C46 C49 1.348 . S
C46 H84 0.929 . S
N47 Li2 1.990 . S
N47 C44 1.314 . S
N47 C45 1.279 . S
C48 C45 1.358 . S
C48 C49 1.356 . S
C48 H85 0.930 1_455 S
C49 C46 1.348 . S
C49 C48 1.356 . S
H50 C44 0.930 . S
H51 C45 0.930 1_655 S
C52 N53 1.314 . S
C52 C54 1.353 . S
C52 H58 0.930 . S
N53 Li3 1.990 1_655 S
N53 C52 1.314 . S
N53 C56 1.279 . S
C54 C52 1.353 . S
C54 C57 1.348 . S
C54 H86 0.929 . S
C55 C56 1.358 . S
C55 C57 1.356 . S
C55 H87 0.930 . S
C56 N53 1.279 . S
C56 C55 1.358 . S
C56 H59 0.930 . S
C57 C54 1.348 . S
C57 C55 1.356 . S
H58 C52 0.930 . S
H59 C56 0.930 . S
O60 Li0 1.956 . S
O60 Li1 1.970 . S
O60 Li2 1.961 . S
O60 C4 1.325 . S
O61 Li0 1.970 . S
O61 Li1 1.956 . S
O61 Li3 1.961 . S
O61 C10 1.325 . S
O62 Li0 1.968 . S
O62 Li2 1.962 . S
O62 Li3 1.971 . S
O62 C32 1.318 1_455 S
O63 Li1 1.961 . S
O63 Li2 1.970 . S
O63 Li3 1.956 . S
O63 C38 1.325 . S
H64 C6 0.929 . S
H65 C7 0.930 . S
H66 C8 0.930 . S
H67 C9 0.930 . S
H68 C11 0.930 . S
H69 C13 0.929 . S
H70 C14 0.930 . S
H71 C15 0.930 . S
H72 C18 0.930 . S
H73 C21 0.929 1_655 S
H74 C26 0.929 . S
H75 C27 0.930 . S
H76 C34 0.929 . S
H77 C35 0.930 . S
H78 C36 0.930 . S
H79 C37 0.930 . S
H80 C39 0.929 . S
H81 C40 0.930 . S
H82 C41 0.930 . S
H83 C42 0.930 . S
H84 C46 0.929 . S
H85 C48 0.930 1_655 S
H86 C54 0.929 . S
H87 C55 0.930 . S
Li88 N105 1.990 1_455 S
Li88 O148 1.956 . S
Li88 O149 1.970 . S
Li88 O150 1.961 . S
Li89 N113 1.990 . S
Li89 O148 1.970 . S
Li89 O149 1.956 . S
Li89 O151 1.961 . S
Li90 N135 1.990 . S
Li90 O148 1.961 . S
Li90 O150 1.956 . S
Li90 O151 1.970 . S
Li91 N141 1.990 . S
Li91 O149 1.961 . S
Li91 O150 1.970 . S
Li91 O151 1.956 . S
C92 C94 1.348 . S
C92 C95 1.356 . S
C92 O148 1.325 . S
N93 C96 1.314 . S
N93 C97 1.279 . S
C94 C92 1.348 . S
C94 C96 1.353 . S
C94 H152 0.929 . S
C95 C92 1.356 . S
C95 C97 1.358 . S
C95 H153 0.930 . S
C96 N93 1.314 . S
C96 C94 1.353 . S
C96 H154 0.930 . S
C97 N93 1.279 . S
C97 C95 1.358 . S
C97 H155 0.930 . S
C98 C101 1.348 1_455 S
C98 C102 1.356 . S
C98 O149 1.325 . S
C99 N100 1.279 . S
C99 C102 1.358 1_655 S
C99 H156 0.930 . S
N100 C99 1.279 . S
N100 C103 1.314 . S
C101 C98 1.348 1_655 S
C101 C103 1.353 . S
C101 H157 0.929 . S
C102 C98 1.356 . S
C102 C99 1.358 1_455 S
C102 H158 0.930 . S
C103 N100 1.314 . S
C103 C101 1.353 . S
C103 H159 0.930 . S
C104 N105 1.314 . S
C104 C109 1.353 . S
C104 H110 0.930 . S
N105 Li88 1.990 1_655 S
N105 C104 1.314 . S
N105 C107 1.279 . S
C106 C107 1.358 . S
C106 C108 1.356 . S
C106 H160 0.930 . S
C107 N105 1.279 . S
C107 C106 1.358 . S
C107 H111 0.930 . S
C108 C106 1.356 . S
C108 C109 1.348 . S
C109 C104 1.353 . S
C109 C108 1.348 . S
C109 H161 0.929 . S
H110 C104 0.930 . S
H111 C107 0.930 . S
C112 N113 1.314 . S
C112 C114 1.353 . S
C112 H118 0.930 . S
N113 Li89 1.990 . S
N113 C112 1.314 . S
N113 C116 1.279 . S
C114 C112 1.353 . S
C114 C117 1.348 . S
C114 H162 0.929 . S
C115 C116 1.358 . S
C115 C117 1.356 . S
C115 H163 0.930 . S
C116 N113 1.279 . S
C116 C115 1.358 . S
C116 H119 0.930 . S
C117 C114 1.348 . S
C117 C115 1.356 . S
H118 C112 0.930 . S
H119 C116 0.930 . S
C120 C122 1.348 . S
C120 C123 1.356 . S
C120 O150 1.325 . S
N121 C124 1.314 . S
N121 C125 1.279 . S
C122 C120 1.348 . S
C122 C124 1.353 . S
C122 H164 0.929 . S
C123 C120 1.356 . S
C123 C125 1.358 . S
C123 H165 0.930 . S
C124 N121 1.314 . S
C124 C122 1.353 . S
C124 H166 0.930 . S
C125 N121 1.279 . S
C125 C123 1.358 . S
C125 H167 0.930 . S
C126 C127 1.348 . S
C126 C128 1.356 . S
C126 O151 1.325 . S
C127 C126 1.348 . S
C127 C129 1.353 . S
C127 H168 0.929 . S
C128 C126 1.356 . S
C128 C130 1.358 . S
C128 H169 0.930 . S
C129 C127 1.353 . S
C129 N131 1.314 . S
C129 H170 0.930 . S
C130 C128 1.358 . S
C130 N131 1.279 . S
C130 H171 0.930 . S
N131 C129 1.314 . S
N131 C130 1.279 . S
C132 C134 1.353 . S
C132 N135 1.314 . S
C132 H138 0.930 . S
C133 N135 1.279 . S
C133 C136 1.358 . S
C133 H139 0.930 . S
C134 C132 1.353 . S
C134 C137 1.348 . S
C134 H172 0.929 . S
N135 Li90 1.990 . S
N135 C132 1.314 . S
N135 C133 1.279 . S
C136 C133 1.358 . S
C136 C137 1.356 . S
C136 H173 0.930 . S
C137 C134 1.348 . S
C137 C136 1.356 . S
H138 C132 0.930 . S
H139 C133 0.930 . S
C140 N141 1.314 . S
C140 C142 1.353 . S
C140 H146 0.930 . S
N141 Li91 1.990 . S
N141 C140 1.314 . S
N141 C144 1.279 . S
C142 C140 1.353 . S
C142 C145 1.348 . S
C142 H174 0.929 . S
C143 C144 1.358 . S
C143 C145 1.356 . S
C143 H175 0.930 . S
C144 N141 1.279 . S
C144 C143 1.358 . S
C144 H147 0.930 . S
C145 C142 1.348 . S
C145 C143 1.356 . S
H146 C140 0.930 . S
H147 C144 0.930 . S
O148 Li88 1.956 . S
O148 Li89 1.970 . S
O148 Li90 1.961 . S
O148 C92 1.325 . S
O149 Li88 1.970 . S
O149 Li89 1.956 . S
O149 Li91 1.961 . S
O149 C98 1.325 . S
O150 Li88 1.961 . S
O150 Li90 1.956 . S
O150 Li91 1.970 . S
O150 C120 1.325 . S
O151 Li89 1.961 . S
O151 Li90 1.970 . S
O151 Li91 1.956 . S
O151 C126 1.325 . S
H152 C94 0.929 . S
H153 C95 0.930 . S
H154 C96 0.930 . S
H155 C97 0.930 . S
H156 C99 0.930 . S
H157 C101 0.929 . S
H158 C102 0.930 . S
H159 C103 0.930 . S
H160 C106 0.930 . S
H161 C109 0.929 . S
H162 C114 0.929 . S
H163 C115 0.930 . S
H164 C122 0.929 . S
H165 C123 0.930 . S
H166 C124 0.930 . S
H167 C125 0.930 . S
H168 C127 0.929 . S
H169 C128 0.930 . S
H170 C129 0.930 . S
H171 C130 0.930 . S
H172 C134 0.929 . S
H173 C136 0.930 . S
H174 C142 0.929 . S
H175 C143 0.930 . S
Li176 N193 1.990 . S
Li176 O236 1.956 . S
Li176 O237 1.970 . S
Li176 O238 1.961 . S
Li177 N201 1.990 . S
Li177 O236 1.970 . S
Li177 O237 1.956 . S
Li177 O239 1.961 . S
Li178 N223 1.990 . S
Li178 O236 1.961 . S
Li178 O238 1.956 . S
Li178 O239 1.970 . S
Li179 N229 1.990 . S
Li179 O237 1.961 . S
Li179 O238 1.970 . S
Li179 O239 1.956 . S
C180 C182 1.348 . S
C180 C183 1.356 . S
C180 O236 1.325 . S
N181 C184 1.314 . S
N181 C185 1.279 . S
C182 C180 1.348 . S
C182 C184 1.353 . S
C182 H240 0.929 . S
C183 C180 1.356 . S
C183 C185 1.358 . S
C183 H241 0.930 . S
C184 N181 1.314 . S
C184 C182 1.353 . S
C184 H242 0.930 . S
C185 N181 1.279 . S
C185 C183 1.358 . S
C185 H243 0.930 . S
C186 C189 1.348 . S
C186 C190 1.356 . S
C186 O237 1.325 . S
C187 N188 1.279 . S
C187 C190 1.358 . S
C187 H244 0.930 . S
N188 C187 1.279 . S
N188 C191 1.314 . S
C189 C186 1.348 . S
C189 C191 1.353 . S
C189 H245 0.929 . S
C190 C186 1.356 . S
C190 C187 1.358 . S
C190 H246 0.930 . S
C191 N188 1.314 . S
C191 C189 1.353 . S
C191 H247 0.930 . S
C192 N193 1.314 . S
C192 C197 1.353 . S
C192 H198 0.930 . S
N193 Li176 1.990 . S
N193 C192 1.314 . S
N193 C195 1.279 . S
C194 C195 1.358 . S
C194 C196 1.356 . S
C194 H248 0.930 . S
C195 N193 1.279 . S
C195 C194 1.358 . S
C195 H199 0.930 . S
C196 C194 1.356 . S
C196 C197 1.348 . S
C197 C192 1.353 . S
C197 C196 1.348 . S
C197 H249 0.929 . S
H198 C192 0.930 . S
H199 C195 0.930 . S
C200 N201 1.314 . S
C200 C202 1.353 . S
C200 H206 0.930 . S
N201 Li177 1.990 . S
N201 C200 1.314 . S
N201 C204 1.279 . S
C202 C200 1.353 . S
C202 C205 1.348 . S
C202 H250 0.929 . S
C203 C204 1.358 . S
C203 C205 1.356 . S
C203 H251 0.930 . S
C204 N201 1.279 . S
C204 C203 1.358 . S
C204 H207 0.930 . S
C205 C202 1.348 . S
C205 C203 1.356 . S
H206 C200 0.930 . S
H207 C204 0.930 . S
C208 C210 1.348 . S
C208 C211 1.356 . S
C208 O238 1.325 . S
N209 C212 1.314 . S
N209 C213 1.279 . S
C210 C208 1.348 . S
C210 C212 1.353 . S
C210 H252 0.929 . S
C211 C208 1.356 . S
C211 C213 1.358 . S
C211 H253 0.930 . S
C212 N209 1.314 . S
C212 C210 1.353 . S
C212 H254 0.930 . S
C213 N209 1.279 . S
C213 C211 1.358 . S
C213 H255 0.930 . S
C214 C215 1.348 . S
C214 C216 1.356 . S
C214 O239 1.325 . S
C215 C214 1.348 . S
C215 C217 1.353 . S
C215 H256 0.929 . S
C216 C214 1.356 . S
C216 C218 1.358 . S
C216 H257 0.930 . S
C217 C215 1.353 . S
C217 N219 1.314 . S
C217 H258 0.930 . S
C218 C216 1.358 . S
C218 N219 1.279 . S
C218 H259 0.930 . S
N219 C217 1.314 . S
N219 C218 1.279 . S
C220 C222 1.353 . S
C220 N223 1.314 . S
C220 H226 0.930 . S
C221 N223 1.279 . S
C221 C224 1.358 . S
C221 H227 0.930 . S
C222 C220 1.353 . S
C222 C225 1.348 . S
C222 H260 0.929 . S
N223 Li178 1.990 . S
N223 C220 1.314 . S
N223 C221 1.279 . S
C224 C221 1.358 . S
C224 C225 1.356 . S
C224 H261 0.930 . S
C225 C222 1.348 . S
C225 C224 1.356 . S
H226 C220 0.930 . S
H227 C221 0.930 . S
C228 N229 1.314 . S
C228 C230 1.353 . S
C228 H234 0.930 . S
N229 Li179 1.990 . S
N229 C228 1.314 . S
N229 C232 1.279 . S
C230 C228 1.353 . S
C230 C233 1.348 . S
C230 H262 0.929 . S
C231 C232 1.358 . S
C231 C233 1.356 . S
C231 H263 0.930 . S
C232 N229 1.279 . S
C232 C231 1.358 . S
C232 H235 0.930 . S
C233 C230 1.348 . S
C233 C231 1.356 . S
H234 C228 0.930 . S
H235 C232 0.930 . S
O236 Li176 1.956 . S
O236 Li177 1.970 . S
O236 Li178 1.961 . S
O236 C180 1.325 . S
O237 Li176 1.970 . S
O237 Li177 1.956 . S
O237 Li179 1.961 . S
O237 C186 1.325 . S
O238 Li176 1.961 . S
O238 Li178 1.956 . S
O238 Li179 1.970 . S
O238 C208 1.325 . S
O239 Li177 1.961 . S
O239 Li178 1.970 . S
O239 Li179 1.956 . S
O239 C214 1.325 . S
H240 C182 0.929 . S
H241 C183 0.930 . S
H242 C184 0.930 . S
H243 C185 0.930 . S
H244 C187 0.930 . S
H245 C189 0.929 . S
H246 C190 0.930 . S
H247 C191 0.930 . S
H248 C194 0.930 . S
H249 C197 0.929 . S
H250 C202 0.929 . S
H251 C203 0.930 . S
H252 C210 0.929 . S
H253 C211 0.930 . S
H254 C212 0.930 . S
H255 C213 0.930 . S
H256 C215 0.929 . S
H257 C216 0.930 . S
H258 C217 0.930 . S
H259 C218 0.930 . S
H260 C222 0.929 . S
H261 C224 0.930 . S
H262 C230 0.929 . S
H263 C231 0.930 . S
Li264 N281 1.990 . S
Li264 O324 1.956 . S
Li264 O325 1.970 . S
Li264 O326 1.961 . S
Li265 N289 1.990 . S
Li265 O324 1.970 . S
Li265 O325 1.956 . S
Li265 O327 1.961 . S
Li266 N311 1.990 . S
Li266 O324 1.961 . S
Li266 O326 1.956 . S
Li266 O327 1.970 . S
Li267 N317 1.990 . S
Li267 O325 1.961 . S
Li267 O326 1.970 . S
Li267 O327 1.956 . S
C268 C270 1.348 . S
C268 C271 1.356 . S
C268 O324 1.325 . S
N269 C272 1.314 . S
N269 C273 1.279 . S
C270 C268 1.348 . S
C270 C272 1.353 . S
C270 H328 0.929 . S
C271 C268 1.356 . S
C271 C273 1.358 . S
C271 H329 0.930 . S
C272 N269 1.314 . S
C272 C270 1.353 . S
C272 H330 0.930 . S
C273 N269 1.279 . S
C273 C271 1.358 . S
C273 H331 0.930 . S
C274 C277 1.348 . S
C274 C278 1.356 . S
C274 O325 1.325 . S
C275 N276 1.279 . S
C275 C278 1.358 . S
C275 H332 0.930 . S
N276 C275 1.279 . S
N276 C279 1.314 . S
C277 C274 1.348 . S
C277 C279 1.353 . S
C277 H333 0.929 . S
C278 C274 1.356 . S
C278 C275 1.358 . S
C278 H334 0.930 . S
C279 N276 1.314 . S
C279 C277 1.353 . S
C279 H335 0.930 . S
C280 N281 1.314 . S
C280 C285 1.353 . S
C280 H286 0.930 . S
N281 Li264 1.990 . S
N281 C280 1.314 . S
N281 C283 1.279 . S
C282 C283 1.358 . S
C282 C284 1.356 . S
C282 H336 0.930 . S
C283 N281 1.279 . S
C283 C282 1.358 . S
C283 H287 0.930 . S
C284 C282 1.356 . S
C284 C285 1.348 . S
C285 C280 1.353 . S
C285 C284 1.348 . S
C285 H337 0.929 . S
H286 C280 0.930 . S
H287 C283 0.930 . S
C288 N289 1.314 . S
C288 C290 1.353 . S
C288 H294 0.930 . S
N289 Li265 1.990 . S
N289 C288 1.314 . S
N289 C292 1.279 . S
C290 C288 1.353 . S
C290 C293 1.348 . S
C290 H338 0.929 . S
C291 C292 1.358 . S
C291 C293 1.356 . S
C291 H339 0.930 . S
C292 N289 1.279 . S
C292 C291 1.358 . S
C292 H295 0.930 . S
C293 C290 1.348 . S
C293 C291 1.356 . S
H294 C288 0.930 . S
H295 C292 0.930 . S
C296 C298 1.348 . S
C296 C299 1.356 . S
C296 O326 1.325 . S
N297 C300 1.314 . S
N297 C301 1.279 . S
C298 C296 1.348 . S
C298 C300 1.353 . S
C298 H340 0.929 . S
C299 C296 1.356 . S
C299 C301 1.358 . S
C299 H341 0.930 . S
C300 N297 1.314 . S
C300 C298 1.353 . S
C300 H342 0.930 . S
C301 N297 1.279 . S
C301 C299 1.358 . S
C301 H343 0.930 . S
C302 C303 1.348 . S
C302 C304 1.356 . S
C302 O327 1.325 . S
C303 C302 1.348 . S
C303 C305 1.353 . S
C303 H344 0.929 . S
C304 C302 1.356 . S
C304 C306 1.358 . S
C304 H345 0.930 . S
C305 C303 1.353 . S
C305 N307 1.314 . S
C305 H346 0.930 . S
C306 C304 1.358 . S
C306 N307 1.279 . S
C306 H347 0.930 . S
N307 C305 1.314 . S
N307 C306 1.279 . S
C308 C310 1.353 . S
C308 N311 1.314 . S
C308 H314 0.930 . S
C309 N311 1.279 . S
C309 C312 1.358 . S
C309 H315 0.930 . S
C310 C308 1.353 . S
C310 C313 1.348 . S
C310 H348 0.929 . S
N311 Li266 1.990 . S
N311 C308 1.314 . S
N311 C309 1.279 . S
C312 C309 1.358 . S
C312 C313 1.356 . S
C312 H349 0.930 . S
C313 C310 1.348 . S
C313 C312 1.356 . S
H314 C308 0.930 . S
H315 C309 0.930 . S
C316 N317 1.314 . S
C316 C318 1.353 . S
C316 H322 0.930 . S
N317 Li267 1.990 . S
N317 C316 1.314 . S
N317 C320 1.279 . S
C318 C316 1.353 . S
C318 C321 1.348 . S
C318 H350 0.929 . S
C319 C320 1.358 . S
C319 C321 1.356 . S
C319 H351 0.930 . S
C320 N317 1.279 . S
C320 C319 1.358 . S
C320 H323 0.930 . S
C321 C318 1.348 . S
C321 C319 1.356 . S
H322 C316 0.930 . S
H323 C320 0.930 . S
O324 Li264 1.956 . S
O324 Li265 1.970 . S
O324 Li266 1.961 . S
O324 C268 1.325 . S
O325 Li264 1.970 . S
O325 Li265 1.956 . S
O325 Li267 1.961 . S
O325 C274 1.325 . S
O326 Li264 1.961 . S
O326 Li266 1.956 . S
O326 Li267 1.970 . S
O326 C296 1.325 . S
O327 Li265 1.961 . S
O327 Li266 1.970 . S
O327 Li267 1.956 . S
O327 C302 1.325 . S
H328 C270 0.929 . S
H329 C271 0.930 . S
H330 C272 0.930 . S
H331 C273 0.930 . S
H332 C275 0.930 . S
H333 C277 0.929 . S
H334 C278 0.930 . S
H335 C279 0.930 . S
H336 C282 0.930 . S
H337 C285 0.929 . S
H338 C290 0.929 . S
H339 C291 0.930 . S
H340 C298 0.929 . S
H341 C299 0.930 . S
H342 C300 0.930 . S
H343 C301 0.930 . S
H344 C303 0.929 . S
H345 C304 0.930 . S
H346 C305 0.930 . S
H347 C306 0.930 . S
H348 C310 0.929 . S
H349 C312 0.930 . S
H350 C318 0.929 . S
H351 C319 0.930 . S
Li352 N369 1.990 . S
Li352 O412 1.956 . S
Li352 O413 1.970 . S
Li352 O414 1.961 1_545 S
Li353 N377 1.990 . S
Li353 O412 1.970 . S
Li353 O413 1.956 . S
Li353 O415 1.961 . S
Li354 N399 1.990 . S
Li354 O412 1.961 . S
Li354 O414 1.956 1_545 S
Li354 O415 1.970 . S
Li355 N405 1.990 . S
Li355 O413 1.961 1_565 S
Li355 O414 1.970 . S
Li355 O415 1.956 1_565 S
C356 C358 1.348 . S
C356 C359 1.356 . S
C356 O412 1.325 . S
N357 C360 1.314 . S
N357 C361 1.279 . S
C358 C356 1.348 . S
C358 C360 1.353 . S
C358 H416 0.929 . S
C359 C356 1.356 . S
C359 C361 1.358 . S
C359 H417 0.930 . S
C360 N357 1.314 . S
C360 C358 1.353 . S
C360 H418 0.930 . S
C361 N357 1.279 . S
C361 C359 1.358 . S
C361 H419 0.930 . S
C362 C365 1.348 . S
C362 C366 1.356 . S
C362 O413 1.325 . S
C363 N364 1.279 . S
C363 C366 1.358 . S
C363 H420 0.930 1_545 S
N364 C363 1.279 . S
N364 C367 1.314 . S
C365 C362 1.348 . S
C365 C367 1.353 . S
C365 H421 0.929 . S
C366 C362 1.356 . S
C366 C363 1.358 . S
C366 H422 0.930 1_545 S
C367 N364 1.314 . S
C367 C365 1.353 . S
C367 H423 0.930 . S
C368 N369 1.314 1_565 S
C368 C373 1.353 . S
C368 H374 0.930 . S
N369 Li352 1.990 . S
N369 C368 1.314 1_545 S
N369 C371 1.279 . S
C370 C371 1.358 . S
C370 C372 1.356 . S
C370 H424 0.930 . S
C371 N369 1.279 . S
C371 C370 1.358 . S
C371 H375 0.930 . S
C372 C370 1.356 . S
C372 C373 1.348 1_545 S
C373 C368 1.353 . S
C373 C372 1.348 1_565 S
C373 H425 0.929 . S
H374 C368 0.930 . S
H375 C371 0.930 . S
C376 N377 1.314 . S
C376 C378 1.353 . S
C376 H382 0.930 . S
N377 Li353 1.990 . S
N377 C376 1.314 . S
N377 C380 1.279 . S
C378 C376 1.353 . S
C378 C381 1.348 . S
C378 H426 0.929 . S
C379 C380 1.358 . S
C379 C381 1.356 . S
C379 H427 0.930 . S
C380 N377 1.279 . S
C380 C379 1.358 . S
C380 H383 0.930 . S
C381 C378 1.348 . S
C381 C379 1.356 . S
H382 C376 0.930 . S
H383 C380 0.930 . S
C384 C386 1.348 . S
C384 C387 1.356 . S
C384 O414 1.325 . S
N385 C388 1.314 . S
N385 C389 1.279 . S
C386 C384 1.348 . S
C386 C388 1.353 . S
C386 H428 0.929 . S
C387 C384 1.356 . S
C387 C389 1.358 . S
C387 H429 0.930 . S
C388 N385 1.314 . S
C388 C386 1.353 . S
C388 H430 0.930 . S
C389 N385 1.279 . S
C389 C387 1.358 . S
C389 H431 0.930 . S
C390 C391 1.357 . S
C390 C392 1.356 . S
C390 O415 1.325 . S
C391 C390 1.357 . S
C391 C393 1.353 . S
C391 H432 0.921 1_545 S
C392 C390 1.356 . S
C392 C394 1.358 . S
C392 H433 0.930 . S
C393 C391 1.353 . S
C393 N395 1.319 . S
C393 H434 0.924 1_545 S
C394 C392 1.358 . S
C394 N395 1.279 . S
C394 H435 0.930 . S
N395 C393 1.319 . S
N395 C394 1.279 . S
C396 C398 1.353 . S
C396 N399 1.314 . S
C396 H402 0.930 . S
C397 N399 1.279 1_565 S
C397 C400 1.358 . S
C397 H403 0.930 . S
C398 C396 1.353 . S
C398 C401 1.348 . S
C398 H436 0.929 . S
N399 Li354 1.990 . S
N399 C396 1.314 . S
N399 C397 1.279 1_545 S
C400 C397 1.358 . S
C400 C401 1.356 1_565 S
C400 H437 0.930 . S
C401 C398 1.348 . S
C401 C400 1.356 1_545 S
H402 C396 0.930 . S
H403 C397 0.930 . S
C404 N405 1.314 . S
C404 C406 1.353 . S
C404 H410 0.930 . S
N405 Li355 1.990 . S
N405 C404 1.314 . S
N405 C408 1.279 . S
C406 C404 1.353 . S
C406 C409 1.348 . S
C406 H438 0.929 . S
C407 C408 1.358 . S
C407 C409 1.356 . S
C407 H439 0.930 . S
C408 N405 1.279 . S
C408 C407 1.358 . S
C408 H411 0.930 . S
C409 C406 1.348 . S
C409 C407 1.356 . S
H410 C404 0.930 . S
H411 C408 0.930 . S
O412 Li352 1.956 . S
O412 Li353 1.970 . S
O412 Li354 1.961 . S
O412 C356 1.325 . S
O413 Li352 1.970 . S
O413 Li353 1.956 . S
O413 Li355 1.961 1_545 S
O413 C362 1.325 . S
O414 Li352 1.961 1_565 S
O414 Li354 1.956 1_565 S
O414 Li355 1.970 . S
O414 C384 1.325 . S
O415 Li353 1.961 . S
O415 Li354 1.970 . S
O415 Li355 1.956 1_545 S
O415 C390 1.325 . S
H416 C358 0.929 . S
H417 C359 0.930 . S
H418 C360 0.930 . S
H419 C361 0.930 . S
H420 C363 0.930 1_565 S
H421 C365 0.929 . S
H422 C366 0.930 1_565 S
H423 C367 0.930 . S
H424 C370 0.930 . S
H425 C373 0.929 . S
H426 C378 0.929 . S
H427 C379 0.930 . S
H428 C386 0.929 . S
H429 C387 0.930 . S
H430 C388 0.930 . S
H431 C389 0.930 . S
H432 C391 0.921 1_565 S
H433 C392 0.930 . S
H434 C393 0.924 1_565 S
H435 C394 0.930 . S
H436 C398 0.929 . S
H437 C400 0.930 . S
H438 C406 0.929 . S
H439 C407 0.930 . S
Li440 N457 1.990 . S
Li440 O500 1.956 . S
Li440 O501 1.970 . S
Li440 O502 1.961 . S
Li441 N465 1.990 . S
Li441 O500 1.970 . S
Li441 O501 1.956 . S
Li441 O503 1.961 . S
Li442 N487 1.990 . S
Li442 O500 1.961 . S
Li442 O502 1.956 . S
Li442 O503 1.970 . S
Li443 N493 1.990 . S
Li443 O501 1.961 . S
Li443 O502 1.970 . S
Li443 O503 1.956 . S
C444 C446 1.348 . S
C444 C447 1.356 . S
C444 O500 1.325 . S
N445 C448 1.314 . S
N445 C449 1.279 . S
C446 C444 1.348 . S
C446 C448 1.353 . S
C446 H504 0.929 . S
C447 C444 1.356 . S
C447 C449 1.358 . S
C447 H505 0.930 . S
C448 N445 1.314 . S
C448 C446 1.353 . S
C448 H506 0.930 . S
C449 N445 1.279 . S
C449 C447 1.358 . S
C449 H507 0.930 . S
C450 C453 1.348 . S
C450 C454 1.356 . S
C450 O501 1.325 . S
C451 N452 1.279 . S
C451 C454 1.358 . S
C451 H508 0.930 . S
N452 C451 1.279 . S
N452 C455 1.314 . S
C453 C450 1.348 . S
C453 C455 1.353 . S
C453 H509 0.929 . S
C454 C450 1.356 . S
C454 C451 1.358 . S
C454 H510 0.930 . S
C455 N452 1.314 . S
C455 C453 1.353 . S
C455 H511 0.930 . S
C456 N457 1.314 . S
C456 C461 1.353 . S
C456 H462 0.930 . S
N457 Li440 1.990 . S
N457 C456 1.314 . S
N457 C459 1.279 . S
C458 C459 1.358 . S
C458 C460 1.356 . S
C458 H512 0.930 . S
C459 N457 1.279 . S
C459 C458 1.358 . S
C459 H463 0.930 . S
C460 C458 1.356 . S
C460 C461 1.348 . S
C461 C456 1.353 . S
C461 C460 1.348 . S
C461 H513 0.929 . S
H462 C456 0.930 . S
H463 C459 0.930 . S
C464 N465 1.314 . S
C464 C466 1.353 . S
C464 H470 0.930 . S
N465 Li441 1.990 . S
N465 C464 1.314 . S
N465 C468 1.279 . S
C466 C464 1.353 . S
C466 C469 1.348 . S
C466 H514 0.929 . S
C467 C468 1.358 . S
C467 C469 1.356 . S
C467 H515 0.930 . S
C468 N465 1.279 . S
C468 C467 1.358 . S
C468 H471 0.930 . S
C469 C466 1.348 . S
C469 C467 1.356 . S
H470 C464 0.930 . S
H471 C468 0.930 . S
C472 C474 1.348 . S
C472 C475 1.356 . S
C472 O502 1.325 . S
N473 C476 1.314 . S
N473 C477 1.279 . S
C474 C472 1.348 . S
C474 C476 1.353 . S
C474 H516 0.929 . S
C475 C472 1.356 . S
C475 C477 1.358 . S
C475 H517 0.930 . S
C476 N473 1.314 . S
C476 C474 1.353 . S
C476 H518 0.930 . S
C477 N473 1.279 . S
C477 C475 1.358 . S
C477 H519 0.930 . S
C478 C479 1.348 . S
C478 C480 1.356 . S
C478 O503 1.325 . S
C479 C478 1.348 . S
C479 C481 1.353 . S
C479 H520 0.929 . S
C480 C478 1.356 . S
C480 C482 1.358 . S
C480 H521 0.930 . S
C481 C479 1.353 . S
C481 N483 1.314 . S
C481 H522 0.930 . S
C482 C480 1.358 . S
C482 N483 1.279 . S
C482 H523 0.930 . S
N483 C481 1.314 . S
N483 C482 1.279 . S
C484 C486 1.353 . S
C484 N487 1.314 . S
C484 H490 0.930 . S
C485 N487 1.279 . S
C485 C488 1.358 . S
C485 H491 0.930 . S
C486 C484 1.353 . S
C486 C489 1.348 . S
C486 H524 0.929 . S
N487 Li442 1.990 . S
N487 C484 1.314 . S
N487 C485 1.279 . S
C488 C485 1.358 . S
C488 C489 1.356 . S
C488 H525 0.930 . S
C489 C486 1.348 . S
C489 C488 1.356 . S
H490 C484 0.930 . S
H491 C485 0.930 . S
C492 N493 1.314 . S
C492 C494 1.353 . S
C492 H498 0.930 . S
N493 Li443 1.990 . S
N493 C492 1.314 . S
N493 C496 1.279 . S
C494 C492 1.353 . S
C494 C497 1.348 . S
C494 H526 0.929 . S
C495 C496 1.358 . S
C495 C497 1.356 . S
C495 H527 0.930 . S
C496 N493 1.279 . S
C496 C495 1.358 . S
C496 H499 0.930 . S
C497 C494 1.348 . S
C497 C495 1.356 . S
H498 C492 0.930 . S
H499 C496 0.930 . S
O500 Li440 1.956 . S
O500 Li441 1.970 . S
O500 Li442 1.961 . S
O500 C444 1.325 . S
O501 Li440 1.970 . S
O501 Li441 1.956 . S
O501 Li443 1.961 . S
O501 C450 1.325 . S
O502 Li440 1.961 . S
O502 Li442 1.956 . S
O502 Li443 1.970 . S
O502 C472 1.325 . S
O503 Li441 1.961 . S
O503 Li442 1.970 . S
O503 Li443 1.956 . S
O503 C478 1.325 . S
H504 C446 0.929 . S
H505 C447 0.930 . S
H506 C448 0.930 . S
H507 C449 0.930 . S
H508 C451 0.930 . S
H509 C453 0.929 . S
H510 C454 0.930 . S
H511 C455 0.930 . S
H512 C458 0.930 . S
H513 C461 0.929 . S
H514 C466 0.929 . S
H515 C467 0.930 . S
H516 C474 0.929 . S
H517 C475 0.930 . S
H518 C476 0.930 . S
H519 C477 0.930 . S
H520 C479 0.929 . S
H521 C480 0.930 . S
H522 C481 0.930 . S
H523 C482 0.930 . S
H524 C486 0.929 . S
H525 C488 0.930 . S
H526 C494 0.929 . S
H527 C495 0.930 . S
Li528 N545 1.990 . S
Li528 O588 1.956 . S
Li528 O589 1.970 . S
Li528 O590 1.961 . S
Li529 N553 1.990 . S
Li529 O588 1.970 . S
Li529 O589 1.956 . S
Li529 O591 1.961 . S
Li530 N575 1.990 . S
Li530 O588 1.961 . S
Li530 O590 1.956 . S
Li530 O591 1.970 . S
Li531 N581 1.990 . S
Li531 O589 1.961 . S
Li531 O590 1.970 . S
Li531 O591 1.956 . S
C532 C534 1.348 . S
C532 C535 1.356 . S
C532 O588 1.325 . S
N533 C536 1.314 . S
N533 C537 1.279 . S
C534 C532 1.348 . S
C534 C536 1.353 . S
C534 H592 0.929 . S
C535 C532 1.356 . S
C535 C537 1.358 . S
C535 H593 0.930 . S
C536 N533 1.314 . S
C536 C534 1.353 . S
C536 H594 0.930 . S
C537 N533 1.279 . S
C537 C535 1.358 . S
C537 H595 0.930 . S
C538 C541 1.348 1_545 S
C538 C542 1.356 . S
C538 O589 1.325 . S
C539 N540 1.279 . S
C539 C542 1.358 1_565 S
C539 H596 0.930 . S
N540 C539 1.279 . S
N540 C543 1.314 . S
C541 C538 1.348 1_565 S
C541 C543 1.353 . S
C541 H597 0.929 . S
C542 C538 1.356 . S
C542 C539 1.358 1_545 S
C542 H598 0.930 . S
C543 N540 1.314 . S
C543 C541 1.353 . S
C543 H599 0.930 . S
C544 N545 1.314 1_565 S
C544 C549 1.353 . S
C544 H550 0.930 . S
N545 Li528 1.990 . S
N545 C544 1.314 1_545 S
N545 C547 1.279 1_545 S
C546 C547 1.358 . S
C546 C548 1.356 . S
C546 H600 0.930 . S
C547 N545 1.279 1_565 S
C547 C546 1.358 . S
C547 H551 0.930 1_565 S
C548 C546 1.356 . S
C548 C549 1.348 . S
C549 C544 1.353 . S
C549 C548 1.348 . S
C549 H601 0.929 . S
H550 C544 0.930 . S
H551 C547 0.930 1_545 S
C552 N553 1.314 . S
C552 C554 1.353 . S
C552 H558 0.930 . S
N553 Li529 1.990 . S
N553 C552 1.314 . S
N553 C556 1.279 . S
C554 C552 1.353 . S
C554 C557 1.348 . S
C554 H602 0.929 . S
C555 C556 1.358 . S
C555 C557 1.356 . S
C555 H603 0.930 . S
C556 N553 1.279 . S
C556 C555 1.358 . S
C556 H559 0.930 . S
C557 C554 1.348 . S
C557 C555 1.356 . S
H558 C552 0.930 . S
H559 C556 0.930 . S
C560 C562 1.348 . S
C560 C563 1.356 . S
C560 O590 1.325 . S
N561 C564 1.314 . S
N561 C565 1.279 . S
C562 C560 1.348 . S
C562 C564 1.353 . S
C562 H604 0.929 . S
C563 C560 1.356 . S
C563 C565 1.358 . S
C563 H605 0.930 . S
C564 N561 1.314 . S
C564 C562 1.353 . S
C564 H606 0.930 . S
C565 N561 1.279 . S
C565 C563 1.358 . S
C565 H607 0.930 . S
C566 C567 1.348 . S
C566 C568 1.356 . S
C566 O591 1.325 . S
C567 C566 1.348 . S
C567 C569 1.353 . S
C567 H608 0.929 . S
C568 C566 1.356 . S
C568 C570 1.358 . S
C568 H609 0.930 . S
C569 C567 1.353 . S
C569 N571 1.314 . S
C569 H610 0.930 . S
C570 C568 1.358 . S
C570 N571 1.279 . S
C570 H611 0.930 . S
N571 C569 1.314 . S
N571 C570 1.279 . S
C572 C574 1.353 . S
C572 N575 1.314 . S
C572 H578 0.930 . S
C573 N575 1.279 . S
C573 C576 1.358 . S
C573 H579 0.930 . S
C574 C572 1.353 . S
C574 C577 1.348 . S
C574 H612 0.929 . S
N575 Li530 1.990 . S
N575 C572 1.314 . S
N575 C573 1.279 . S
C576 C573 1.358 . S
C576 C577 1.356 . S
C576 H613 0.930 . S
C577 C574 1.348 . S
C577 C576 1.356 . S
H578 C572 0.930 . S
H579 C573 0.930 . S
C580 N581 1.314 . S
C580 C582 1.353 . S
C580 H586 0.930 . S
N581 Li531 1.990 . S
N581 C580 1.314 . S
N581 C584 1.279 . S
C582 C580 1.353 . S
C582 C585 1.348 . S
C582 H614 0.929 . S
C583 C584 1.358 . S
C583 C585 1.356 . S
C583 H615 0.930 . S
C584 N581 1.279 . S
C584 C583 1.358 . S
C584 H587 0.930 . S
C585 C582 1.348 . S
C585 C583 1.356 . S
H586 C580 0.930 . S
H587 C584 0.930 . S
O588 Li528 1.956 . S
O588 Li529 1.970 . S
O588 Li530 1.961 . S
O588 C532 1.325 . S
O589 Li528 1.970 . S
O589 Li529 1.956 . S
O589 Li531 1.961 . S
O589 C538 1.325 . S
O590 Li528 1.961 . S
O590 Li530 1.956 . S
O590 Li531 1.970 . S
O590 C560 1.325 . S
O591 Li529 1.961 . S
O591 Li530 1.970 . S
O591 Li531 1.956 . S
O591 C566 1.325 . S
H592 C534 0.929 . S
H593 C535 0.930 . S
H594 C536 0.930 . S
H595 C537 0.930 . S
H596 C539 0.930 . S
H597 C541 0.929 . S
H598 C542 0.930 . S
H599 C543 0.930 . S
H600 C546 0.930 . S
H601 C549 0.929 . S
H602 C554 0.929 . S
H603 C555 0.930 . S
H604 C562 0.929 . S
H605 C563 0.930 . S
H606 C564 0.930 . S
H607 C565 0.930 . S
H608 C567 0.929 . S
H609 C568 0.930 . S
H610 C569 0.930 . S
H611 C570 0.930 . S
H612 C574 0.929 . S
H613 C576 0.930 . S
H614 C582 0.929 . S
H615 C583 0.930 . S
Li616 N633 1.990 . S
Li616 O676 1.956 . S
Li616 O677 1.970 . S
Li616 O678 1.961 . S
Li617 N641 1.990 . S
Li617 O676 1.970 . S
Li617 O677 1.956 . S
Li617 O679 1.961 . S
Li618 N663 1.990 1_554 S
Li618 O676 1.961 . S
Li618 O678 1.956 . S
Li618 O679 1.970 . S
Li619 N669 1.990 . S
Li619 O677 1.961 . S
Li619 O678 1.970 . S
Li619 O679 1.956 . S
C620 C622 1.348 . S
C620 C623 1.356 . S
C620 O676 1.325 . S
N621 C624 1.314 . S
N621 C625 1.279 . S
C622 C620 1.348 . S
C622 C624 1.353 . S
C622 H680 0.929 . S
C623 C620 1.356 . S
C623 C625 1.358 . S
C623 H681 0.930 . S
C624 N621 1.314 . S
C624 C622 1.353 . S
C624 H682 0.930 . S
C625 N621 1.279 . S
C625 C623 1.358 . S
C625 H683 0.930 . S
C626 C629 1.348 . S
C626 C630 1.356 . S
C626 O677 1.325 . S
C627 N628 1.279 . S
C627 C630 1.358 . S
C627 H684 0.930 . S
N628 C627 1.279 . S
N628 C631 1.314 . S
C629 C626 1.348 . S
C629 C631 1.353 . S
C629 H685 0.929 . S
C630 C626 1.356 . S
C630 C627 1.358 . S
C630 H686 0.930 . S
C631 N628 1.314 . S
C631 C629 1.353 . S
C631 H687 0.930 . S
C632 N633 1.314 . S
C632 C637 1.353 . S
C632 H638 0.930 . S
N633 Li616 1.990 . S
N633 C632 1.314 . S
N633 C635 1.279 . S
C634 C635 1.358 . S
C634 C636 1.356 . S
C634 H688 0.930 . S
C635 N633 1.279 . S
C635 C634 1.358 . S
C635 H639 0.930 . S
C636 C634 1.356 . S
C636 C637 1.348 . S
C637 C632 1.353 . S
C637 C636 1.348 . S
C637 H689 0.929 . S
H638 C632 0.930 . S
H639 C635 0.930 . S
C640 N641 1.314 . S
C640 C642 1.353 . S
C640 H646 0.930 1_554 S
N641 Li617 1.990 . S
N641 C640 1.314 . S
N641 C644 1.279 . S
C642 C640 1.353 . S
C642 C645 1.348 . S
C642 H690 0.929 1_554 S
C643 C644 1.358 . S
C643 C645 1.356 . S
C643 H691 0.930 . S
C644 N641 1.279 . S
C644 C643 1.358 . S
C644 H647 0.930 . S
C645 C642 1.348 . S
C645 C643 1.356 . S
H646 C640 0.930 1_556 S
H647 C644 0.930 . S
C648 C650 1.348 . S
C648 C651 1.356 . S
C648 O678 1.325 . S
N649 C652 1.314 . S
N649 C653 1.279 . S
C650 C648 1.348 . S
C650 C652 1.353 . S
C650 H692 0.929 . S
C651 C648 1.356 . S
C651 C653 1.358 . S
C651 H693 0.930 . S
C652 N649 1.314 . S
C652 C650 1.353 . S
C652 H694 0.930 . S
C653 N649 1.279 . S
C653 C651 1.358 . S
C653 H695 0.930 . S
C654 C655 1.348 . S
C654 C656 1.356 . S
C654 O679 1.325 1_556 S
C655 C654 1.348 . S
C655 C657 1.353 . S
C655 H696 0.929 . S
C656 C654 1.356 . S
C656 C658 1.358 . S
C656 H697 0.911 1_556 S
C657 C655 1.353 . S
C657 N659 1.314 . S
C657 H698 0.930 . S
C658 C656 1.358 . S
C658 N659 1.279 . S
C658 H699 0.930 . S
N659 C657 1.314 . S
N659 C658 1.279 . S
C660 C662 1.353 . S
C660 N663 1.314 . S
C660 H666 0.930 . S
C661 N663 1.279 . S
C661 C664 1.358 . S
C661 H667 0.930 . S
C662 C660 1.353 . S
C662 C665 1.348 . S
C662 H700 0.929 . S
N663 Li618 1.990 1_556 S
N663 C660 1.314 . S
N663 C661 1.279 . S
C664 C661 1.358 . S
C664 C665 1.356 . S
C664 H701 0.930 . S
C665 C662 1.348 . S
C665 C664 1.356 . S
H666 C660 0.930 . S
H667 C661 0.930 . S
C668 N669 1.314 . S
C668 C670 1.353 . S
C668 H674 0.930 . S
N669 Li619 1.990 . S
N669 C668 1.314 . S
N669 C672 1.279 . S
C670 C668 1.353 . S
C670 C673 1.348 . S
C670 H702 0.929 . S
C671 C672 1.358 . S
C671 C673 1.356 . S
C671 H703 0.930 1_554 S
C672 N669 1.279 . S
C672 C671 1.358 . S
C672 H675 0.930 1_554 S
C673 C670 1.348 . S
C673 C671 1.356 . S
H674 C668 0.930 . S
H675 C672 0.930 1_556 S
O676 Li616 1.956 . S
O676 Li617 1.970 . S
O676 Li618 1.961 . S
O676 C620 1.325 . S
O677 Li616 1.970 . S
O677 Li617 1.956 . S
O677 Li619 1.961 . S
O677 C626 1.325 . S
O678 Li616 1.961 . S
O678 Li618 1.956 . S
O678 Li619 1.970 . S
O678 C648 1.325 . S
O679 Li617 1.961 . S
O679 Li618 1.970 . S
O679 Li619 1.956 . S
O679 C654 1.325 1_554 S
H680 C622 0.929 . S
H681 C623 0.930 . S
H682 C624 0.930 . S
H683 C625 0.930 . S
H684 C627 0.930 . S
H685 C629 0.929 . S
H686 C630 0.930 . S
H687 C631 0.930 . S
H688 C634 0.930 . S
H689 C637 0.929 . S
H690 C642 0.929 1_556 S
H691 C643 0.930 . S
H692 C650 0.929 . S
H693 C651 0.930 . S
H694 C652 0.930 . S
H695 C653 0.930 . S
H696 C655 0.929 . S
H697 C656 0.911 1_554 S
H698 C657 0.930 . S
H699 C658 0.930 . S
H700 C662 0.929 . S
H701 C664 0.930 . S
H702 C670 0.929 . S
H703 C671 0.930 1_556 S
Li704 N721 1.990 . S
Li704 O764 1.956 . S
Li704 O765 1.970 . S
Li704 O766 1.961 . S
Li705 N729 1.990 . S
Li705 O764 1.970 . S
Li705 O765 1.956 . S
Li705 O767 1.961 . S
Li706 N751 1.990 . S
Li706 O764 1.961 . S
Li706 O766 1.956 . S
Li706 O767 1.970 . S
Li707 N757 1.988 . S
Li707 O765 1.961 . S
Li707 O766 1.970 . S
Li707 O767 1.956 . S
C708 C710 1.348 . S
C708 C711 1.356 . S
C708 O764 1.325 . S
N709 C712 1.314 . S
N709 C713 1.279 . S
C710 C708 1.348 . S
C710 C712 1.353 . S
C710 H768 0.929 . S
C711 C708 1.356 . S
C711 C713 1.358 . S
C711 H769 0.930 . S
C712 N709 1.314 . S
C712 C710 1.353 . S
C712 H770 0.930 . S
C713 N709 1.279 . S
C713 C711 1.358 . S
C713 H771 0.930 . S
C714 C717 1.348 . S
C714 C718 1.356 . S
C714 O765 1.325 . S
C715 N716 1.279 . S
C715 C718 1.358 . S
C715 H772 0.930 . S
N716 C715 1.279 . S
N716 C719 1.314 . S
C717 C714 1.348 . S
C717 C719 1.353 . S
C717 H773 0.929 . S
C718 C714 1.356 . S
C718 C715 1.358 . S
C718 H774 0.930 . S
C719 N716 1.314 . S
C719 C717 1.353 . S
C719 H775 0.930 . S
C720 N721 1.314 . S
C720 C725 1.353 . S
C720 H726 0.930 . S
N721 Li704 1.990 . S
N721 C720 1.314 . S
N721 C723 1.279 . S
C722 C723 1.358 . S
C722 C724 1.356 . S
C722 H776 0.930 . S
C723 N721 1.279 . S
C723 C722 1.358 . S
C723 H727 0.930 . S
C724 C722 1.356 . S
C724 C725 1.348 . S
C725 C720 1.353 . S
C725 C724 1.348 . S
C725 H777 0.929 . S
H726 C720 0.930 . S
H727 C723 0.930 . S
C728 N729 1.314 . S
C728 C730 1.353 . S
C728 H734 0.930 . S
N729 Li705 1.990 . S
N729 C728 1.314 . S
N729 C732 1.279 . S
C730 C728 1.353 . S
C730 C733 1.348 . S
C730 H778 0.929 . S
C731 C732 1.358 . S
C731 C733 1.356 . S
C731 H779 0.930 . S
C732 N729 1.279 . S
C732 C731 1.358 . S
C732 H735 0.930 . S
C733 C730 1.348 . S
C733 C731 1.356 . S
H734 C728 0.930 . S
H735 C732 0.930 . S
C736 C738 1.348 1_554 S
C736 C739 1.356 . S
C736 O766 1.325 . S
N737 C740 1.314 . S
N737 C741 1.279 . S
C738 C736 1.348 1_556 S
C738 C740 1.353 . S
C738 H780 0.929 . S
C739 C736 1.356 . S
C739 C741 1.358 1_554 S
C739 H781 0.930 . S
C740 N737 1.314 . S
C740 C738 1.353 . S
C740 H782 0.930 . S
C741 N737 1.279 . S
C741 C739 1.358 1_556 S
C741 H783 0.930 . S
C742 C743 1.348 . S
C742 C744 1.356 . S
C742 O767 1.325 . S
C743 C742 1.348 . S
C743 C745 1.353 . S
C743 H784 0.929 . S
C744 C742 1.356 . S
C744 C746 1.358 . S
C744 H785 0.930 . S
C745 C743 1.353 . S
C745 N747 1.314 . S
C745 H786 0.930 . S
C746 C744 1.358 . S
C746 N747 1.279 . S
C746 H787 0.930 . S
N747 C745 1.314 . S
N747 C746 1.279 . S
C748 C750 1.353 . S
C748 N751 1.314 . S
C748 H754 0.930 . S
C749 N751 1.279 . S
C749 C752 1.358 . S
C749 H755 0.930 . S
C750 C748 1.353 . S
C750 C753 1.348 . S
C750 H788 0.929 . S
N751 Li706 1.990 . S
N751 C748 1.314 . S
N751 C749 1.279 . S
C752 C749 1.358 . S
C752 C753 1.356 . S
C752 H789 0.930 . S
C753 C750 1.348 . S
C753 C752 1.356 . S
H754 C748 0.930 . S
H755 C749 0.930 . S
C756 N757 1.316 1_556 S
C756 C758 1.353 . S
C756 H762 0.930 . S
N757 Li707 1.988 . S
N757 C756 1.316 1_554 S
N757 C760 1.280 1_554 S
C758 C756 1.353 . S
C758 C761 1.348 . S
C758 H790 0.929 . S
C759 C760 1.358 . S
C759 C761 1.356 . S
C759 H791 0.930 . S
C760 N757 1.280 1_556 S
C760 C759 1.358 . S
C760 H763 0.944 . S
C761 C758 1.348 . S
C761 C759 1.356 . S
H762 C756 0.930 . S
H763 C760 0.944 . S
O764 Li704 1.956 . S
O764 Li705 1.970 . S
O764 Li706 1.961 . S
O764 C708 1.325 . S
O765 Li704 1.970 . S
O765 Li705 1.956 . S
O765 Li707 1.961 . S
O765 C714 1.325 . S
O766 Li704 1.961 . S
O766 Li706 1.956 . S
O766 Li707 1.970 . S
O766 C736 1.325 . S
O767 Li705 1.961 . S
O767 Li706 1.970 . S
O767 Li707 1.956 . S
O767 C742 1.325 . S
H768 C710 0.929 . S
H769 C711 0.930 . S
H770 C712 0.930 . S
H771 C713 0.930 . S
H772 C715 0.930 . S
H773 C717 0.929 . S
H774 C718 0.930 . S
H775 C719 0.930 . S
H776 C722 0.930 . S
H777 C725 0.929 . S
H778 C730 0.929 . S
H779 C731 0.930 . S
H780 C738 0.929 . S
H781 C739 0.930 . S
H782 C740 0.930 . S
H783 C741 0.930 . S
H784 C743 0.929 . S
H785 C744 0.930 . S
H786 C745 0.930 . S
H787 C746 0.930 . S
H788 C750 0.929 . S
H789 C752 0.930 . S
H790 C758 0.929 . S
H791 C759 0.930 . S
Li792 N809 1.990 . S
Li792 O852 1.956 . S
Li792 O853 1.970 . S
Li792 O854 1.961 . S
Li793 N817 1.990 . S
Li793 O852 1.970 . S
Li793 O853 1.956 . S
Li793 O855 1.961 . S
Li794 N839 1.990 . S
Li794 O852 1.961 . S
Li794 O854 1.956 . S
Li794 O855 1.970 . S
Li795 N845 1.990 . S
Li795 O853 1.961 . S
Li795 O854 1.970 . S
Li795 O855 1.956 . S
C796 C798 1.348 . S
C796 C799 1.356 . S
C796 O852 1.325 . S
N797 C800 1.314 . S
N797 C801 1.279 . S
C798 C796 1.348 . S
C798 C800 1.353 . S
C798 H856 0.929 . S
C799 C796 1.356 . S
C799 C801 1.358 . S
C799 H857 0.930 . S
C800 N797 1.314 . S
C800 C798 1.353 . S
C800 H858 0.930 . S
C801 N797 1.279 . S
C801 C799 1.358 . S
C801 H859 0.930 . S
C802 C805 1.348 . S
C802 C806 1.356 . S
C802 O853 1.325 . S
C803 N804 1.279 . S
C803 C806 1.358 . S
C803 H860 0.930 . S
N804 C803 1.279 . S
N804 C807 1.314 . S
C805 C802 1.348 . S
C805 C807 1.353 . S
C805 H861 0.929 . S
C806 C802 1.356 . S
C806 C803 1.358 . S
C806 H862 0.930 . S
C807 N804 1.314 . S
C807 C805 1.353 . S
C807 H863 0.930 . S
C808 N809 1.314 . S
C808 C813 1.353 . S
C808 H814 0.930 . S
N809 Li792 1.990 . S
N809 C808 1.314 . S
N809 C811 1.279 . S
C810 C811 1.358 . S
C810 C812 1.356 . S
C810 H864 0.930 . S
C811 N809 1.279 . S
C811 C810 1.358 . S
C811 H815 0.930 . S
C812 C810 1.356 . S
C812 C813 1.348 . S
C813 C808 1.353 . S
C813 C812 1.348 . S
C813 H865 0.929 . S
H814 C808 0.930 . S
H815 C811 0.930 . S
C816 N817 1.314 . S
C816 C818 1.353 . S
C816 H822 0.930 . S
N817 Li793 1.990 . S
N817 C816 1.314 . S
N817 C820 1.279 . S
C818 C816 1.353 . S
C818 C821 1.348 . S
C818 H866 0.929 . S
C819 C820 1.358 . S
C819 C821 1.356 . S
C819 H867 0.930 . S
C820 N817 1.279 . S
C820 C819 1.358 . S
C820 H823 0.930 . S
C821 C818 1.348 . S
C821 C819 1.356 . S
H822 C816 0.930 . S
H823 C820 0.930 . S
C824 C826 1.348 . S
C824 C827 1.356 . S
C824 O854 1.325 . S
N825 C828 1.314 . S
N825 C829 1.279 . S
C826 C824 1.348 . S
C826 C828 1.353 . S
C826 H868 0.929 . S
C827 C824 1.356 . S
C827 C829 1.358 . S
C827 H869 0.930 . S
C828 N825 1.314 . S
C828 C826 1.353 . S
C828 H870 0.930 . S
C829 N825 1.279 . S
C829 C827 1.358 . S
C829 H871 0.930 . S
C830 C831 1.348 . S
C830 C832 1.356 . S
C830 O855 1.325 . S
C831 C830 1.348 . S
C831 C833 1.353 . S
C831 H872 0.929 . S
C832 C830 1.356 . S
C832 C834 1.358 . S
C832 H873 0.930 . S
C833 C831 1.353 . S
C833 N835 1.314 . S
C833 H874 0.930 . S
C834 C832 1.358 . S
C834 N835 1.279 . S
C834 H875 0.930 . S
N835 C833 1.314 . S
N835 C834 1.279 . S
C836 C838 1.353 . S
C836 N839 1.314 . S
C836 H842 0.930 . S
C837 N839 1.279 . S
C837 C840 1.358 . S
C837 H843 0.930 . S
C838 C836 1.353 . S
C838 C841 1.348 . S
C838 H876 0.929 . S
N839 Li794 1.990 . S
N839 C836 1.314 . S
N839 C837 1.279 . S
C840 C837 1.358 . S
C840 C841 1.356 . S
C840 H877 0.930 . S
C841 C838 1.348 . S
C841 C840 1.356 . S
H842 C836 0.930 . S
H843 C837 0.930 . S
C844 N845 1.314 . S
C844 C846 1.353 . S
C844 H850 0.930 . S
N845 Li795 1.990 . S
N845 C844 1.314 . S
N845 C848 1.279 . S
C846 C844 1.353 . S
C846 C849 1.348 . S
C846 H878 0.929 . S
C847 C848 1.358 . S
C847 C849 1.356 . S
C847 H879 0.930 . S
C848 N845 1.279 . S
C848 C847 1.358 . S
C848 H851 0.930 . S
C849 C846 1.348 . S
C849 C847 1.356 . S
H850 C844 0.930 . S
H851 C848 0.930 . S
O852 Li792 1.956 . S
O852 Li793 1.970 . S
O852 Li794 1.961 . S
O852 C796 1.325 . S
O853 Li792 1.970 . S
O853 Li793 1.956 . S
O853 Li795 1.961 . S
O853 C802 1.325 . S
O854 Li792 1.961 . S
O854 Li794 1.956 . S
O854 Li795 1.970 . S
O854 C824 1.325 . S
O855 Li793 1.961 . S
O855 Li794 1.970 . S
O855 Li795 1.956 . S
O855 C830 1.325 . S
H856 C798 0.929 . S
H857 C799 0.930 . S
H858 C800 0.930 . S
H859 C801 0.930 . S
H860 C803 0.930 . S
H861 C805 0.929 . S
H862 C806 0.930 . S
H863 C807 0.930 . S
H864 C810 0.930 . S
H865 C813 0.929 . S
H866 C818 0.929 . S
H867 C819 0.930 . S
H868 C826 0.929 . S
H869 C827 0.930 . S
H870 C828 0.930 . S
H871 C829 0.930 . S
H872 C831 0.929 . S
H873 C832 0.930 . S
H874 C833 0.930 . S
H875 C834 0.930 . S
H876 C838 0.929 . S
H877 C840 0.930 . S
H878 C846 0.929 . S
H879 C847 0.930 . S
Li880 N897 1.990 . S
Li880 O940 1.956 . S
Li880 O941 1.970 . S
Li880 O942 1.961 . S
Li881 N905 1.990 . S
Li881 O940 1.970 . S
Li881 O941 1.956 . S
Li881 O943 1.961 . S
Li882 N927 1.990 . S
Li882 O940 1.961 . S
Li882 O942 1.956 . S
Li882 O943 1.970 . S
Li883 N933 1.990 . S
Li883 O941 1.961 . S
Li883 O942 1.970 . S
Li883 O943 1.956 . S
C884 C886 1.348 . S
C884 C887 1.356 . S
C884 O940 1.325 . S
N885 C888 1.314 . S
N885 C889 1.279 . S
C886 C884 1.348 . S
C886 C888 1.353 . S
C886 H944 0.929 . S
C887 C884 1.356 . S
C887 C889 1.358 . S
C887 H945 0.930 . S
C888 N885 1.314 . S
C888 C886 1.353 . S
C888 H946 0.930 . S
C889 N885 1.279 . S
C889 C887 1.358 . S
C889 H947 0.930 . S
C890 C893 1.348 . S
C890 C894 1.356 . S
C890 O941 1.325 . S
C891 N892 1.279 . S
C891 C894 1.358 . S
C891 H948 0.930 . S
N892 C891 1.279 . S
N892 C895 1.314 . S
C893 C890 1.348 . S
C893 C895 1.353 . S
C893 H949 0.929 . S
C894 C890 1.356 . S
C894 C891 1.358 . S
C894 H950 0.930 . S
C895 N892 1.314 . S
C895 C893 1.353 . S
C895 H951 0.930 . S
C896 N897 1.314 . S
C896 C901 1.353 . S
C896 H902 0.930 . S
N897 Li880 1.990 . S
N897 C896 1.314 . S
N897 C899 1.279 . S
C898 C899 1.358 . S
C898 C900 1.356 . S
C898 H952 0.930 . S
C899 N897 1.279 . S
C899 C898 1.358 . S
C899 H903 0.930 . S
C900 C898 1.356 . S
C900 C901 1.348 . S
C901 C896 1.353 . S
C901 C900 1.348 . S
C901 H953 0.929 . S
H902 C896 0.930 . S
H903 C899 0.930 . S
C904 N905 1.314 . S
C904 C906 1.353 . S
C904 H910 0.930 . S
N905 Li881 1.990 . S
N905 C904 1.314 . S
N905 C908 1.279 . S
C906 C904 1.353 . S
C906 C909 1.348 . S
C906 H954 0.929 . S
C907 C908 1.358 . S
C907 C909 1.356 . S
C907 H955 0.930 . S
C908 N905 1.279 . S
C908 C907 1.358 . S
C908 H911 0.930 . S
C909 C906 1.348 . S
C909 C907 1.356 . S
H910 C904 0.930 . S
H911 C908 0.930 . S
C912 C914 1.348 . S
C912 C915 1.356 . S
C912 O942 1.325 . S
N913 C916 1.314 . S
N913 C917 1.279 . S
C914 C912 1.348 . S
C914 C916 1.353 . S
C914 H956 0.929 . S
C915 C912 1.356 . S
C915 C917 1.358 . S
C915 H957 0.930 . S
C916 N913 1.314 . S
C916 C914 1.353 . S
C916 H958 0.930 . S
C917 N913 1.279 . S
C917 C915 1.358 . S
C917 H959 0.930 . S
C918 C919 1.348 . S
C918 C920 1.356 . S
C918 O943 1.325 . S
C919 C918 1.348 . S
C919 C921 1.353 . S
C919 H960 0.929 . S
C920 C918 1.356 . S
C920 C922 1.358 . S
C920 H961 0.930 . S
C921 C919 1.353 . S
C921 N923 1.314 . S
C921 H962 0.930 . S
C922 C920 1.358 . S
C922 N923 1.279 . S
C922 H963 0.930 . S
N923 C921 1.314 . S
N923 C922 1.279 . S
C924 C926 1.353 . S
C924 N927 1.314 . S
C924 H930 0.930 . S
C925 N927 1.279 . S
C925 C928 1.358 . S
C925 H931 0.930 . S
C926 C924 1.353 . S
C926 C929 1.348 . S
C926 H964 0.929 . S
N927 Li882 1.990 . S
N927 C924 1.314 . S
N927 C925 1.279 . S
C928 C925 1.358 . S
C928 C929 1.356 . S
C928 H965 0.930 . S
C929 C926 1.348 . S
C929 C928 1.356 . S
H930 C924 0.930 . S
H931 C925 0.930 . S
C932 N933 1.314 . S
C932 C934 1.353 . S
C932 H938 0.930 . S
N933 Li883 1.990 . S
N933 C932 1.314 . S
N933 C936 1.279 . S
C934 C932 1.353 . S
C934 C937 1.348 . S
C934 H966 0.929 . S
C935 C936 1.358 . S
C935 C937 1.356 . S
C935 H967 0.930 . S
C936 N933 1.279 . S
C936 C935 1.358 . S
C936 H939 0.930 . S
C937 C934 1.348 . S
C937 C935 1.356 . S
H938 C932 0.930 . S
H939 C936 0.930 . S
O940 Li880 1.956 . S
O940 Li881 1.970 . S
O940 Li882 1.961 . S
O940 C884 1.325 . S
O941 Li880 1.970 . S
O941 Li881 1.956 . S
O941 Li883 1.961 . S
O941 C890 1.325 . S
O942 Li880 1.961 . S
O942 Li882 1.956 . S
O942 Li883 1.970 . S
O942 C912 1.325 . S
O943 Li881 1.961 . S
O943 Li882 1.970 . S
O943 Li883 1.956 . S
O943 C918 1.325 . S
H944 C886 0.929 . S
H945 C887 0.930 . S
H946 C888 0.930 . S
H947 C889 0.930 . S
H948 C891 0.930 . S
H949 C893 0.929 . S
H950 C894 0.930 . S
H951 C895 0.930 . S
H952 C898 0.930 . S
H953 C901 0.929 . S
H954 C906 0.929 . S
H955 C907 0.930 . S
H956 C914 0.929 . S
H957 C915 0.930 . S
H958 C916 0.930 . S
H959 C917 0.930 . S
H960 C919 0.929 . S
H961 C920 0.930 . S
H962 C921 0.930 . S
H963 C922 0.930 . S
H964 C926 0.929 . S
H965 C928 0.930 . S
H966 C934 0.929 . S
H967 C935 0.930 . S
Li968 N985 1.990 . S
Li968 O1028 1.956 . S
Li968 O1029 1.970 . S
Li968 O1030 1.961 . S
Li969 N993 1.990 . S
Li969 O1028 1.970 . S
Li969 O1029 1.956 . S
Li969 O1031 1.961 . S
Li970 N1015 1.990 . S
Li970 O1028 1.961 . S
Li970 O1030 1.956 . S
Li970 O1031 1.970 . S
Li971 N1021 1.990 . S
Li971 O1029 1.961 . S
Li971 O1030 1.970 . S
Li971 O1031 1.956 . S
C972 C974 1.348 . S
C972 C975 1.356 . S
C972 O1028 1.325 . S
N973 C976 1.314 . S
N973 C977 1.279 . S
C974 C972 1.348 . S
C974 C976 1.353 . S
C974 H1032 0.929 . S
C975 C972 1.356 . S
C975 C977 1.358 . S
C975 H1033 0.930 . S
C976 N973 1.314 . S
C976 C974 1.353 . S
C976 H1034 0.930 . S
C977 N973 1.279 . S
C977 C975 1.358 . S
C977 H1035 0.930 . S
C978 C981 1.348 . S
C978 C982 1.356 . S
C978 O1029 1.325 . S
C979 N980 1.279 . S
C979 C982 1.358 . S
C979 H1036 0.930 . S
N980 C979 1.279 . S
N980 C983 1.314 . S
C981 C978 1.348 . S
C981 C983 1.353 . S
C981 H1037 0.929 . S
C982 C978 1.356 . S
C982 C979 1.358 . S
C982 H1038 0.930 . S
C983 N980 1.314 . S
C983 C981 1.353 . S
C983 H1039 0.930 . S
C984 N985 1.314 . S
C984 C989 1.353 . S
C984 H990 0.930 . S
N985 Li968 1.990 . S
N985 C984 1.314 . S
N985 C987 1.279 . S
C986 C987 1.358 . S
C986 C988 1.356 . S
C986 H1040 0.930 . S
C987 N985 1.279 . S
C987 C986 1.358 . S
C987 H991 0.930 . S
C988 C986 1.356 . S
C988 C989 1.348 . S
C989 C984 1.353 . S
C989 C988 1.348 . S
C989 H1041 0.929 . S
H990 C984 0.930 . S
H991 C987 0.930 . S
C992 N993 1.314 . S
C992 C994 1.353 . S
C992 H998 0.930 . S
N993 Li969 1.990 . S
N993 C992 1.314 . S
N993 C996 1.279 . S
C994 C992 1.353 . S
C994 C997 1.348 . S
C994 H1042 0.929 . S
C995 C996 1.358 . S
C995 C997 1.356 . S
C995 H1043 0.930 . S
C996 N993 1.279 . S
C996 C995 1.358 . S
C996 H999 0.930 . S
C997 C994 1.348 . S
C997 C995 1.356 . S
H998 C992 0.930 . S
H999 C996 0.930 . S
C1000 C1002 1.348 . S
C1000 C1003 1.356 . S
C1000 O1030 1.325 . S
N1001 C1004 1.314 . S
N1001 C1005 1.279 . S
C1002 C1000 1.348 . S
C1002 C1004 1.353 . S
C1002 H1044 0.929 . S
C1003 C1000 1.356 . S
C1003 C1005 1.358 . S
C1003 H1045 0.930 . S
C1004 N1001 1.314 . S
C1004 C1002 1.353 . S
C1004 H1046 0.930 . S
C1005 N1001 1.279 . S
C1005 C1003 1.358 . S
C1005 H1047 0.930 . S
C1006 C1007 1.348 . S
C1006 C1008 1.356 . S
C1006 O1031 1.325 . S
C1007 C1006 1.348 . S
C1007 C1009 1.353 . S
C1007 H1048 0.929 . S
C1008 C1006 1.356 . S
C1008 C1010 1.358 . S
C1008 H1049 0.930 . S
C1009 C1007 1.353 . S
C1009 N1011 1.314 . S
C1009 H1050 0.930 . S
C1010 C1008 1.358 . S
C1010 N1011 1.279 . S
C1010 H1051 0.930 . S
N1011 C1009 1.314 . S
N1011 C1010 1.279 . S
C1012 C1014 1.353 . S
C1012 N1015 1.314 . S
C1012 H1018 0.930 . S
C1013 N1015 1.279 . S
C1013 C1016 1.358 . S
C1013 H1019 0.930 . S
C1014 C1012 1.353 . S
C1014 C1017 1.348 . S
C1014 H1052 0.929 . S
N1015 Li970 1.990 . S
N1015 C1012 1.314 . S
N1015 C1013 1.279 . S
C1016 C1013 1.358 . S
C1016 C1017 1.356 . S
C1016 H1053 0.930 . S
C1017 C1014 1.348 . S
C1017 C1016 1.356 . S
H1018 C1012 0.930 . S
H1019 C1013 0.930 . S
C1020 N1021 1.314 . S
C1020 C1022 1.353 . S
C1020 H1026 0.930 . S
N1021 Li971 1.990 . S
N1021 C1020 1.314 . S
N1021 C1024 1.279 . S
C1022 C1020 1.353 . S
C1022 C1025 1.348 . S
C1022 H1054 0.929 . S
C1023 C1024 1.358 . S
C1023 C1025 1.356 . S
C1023 H1055 0.930 . S
C1024 N1021 1.279 . S
C1024 C1023 1.358 . S
C1024 H1027 0.930 . S
C1025 C1022 1.348 . S
C1025 C1023 1.356 . S
H1026 C1020 0.930 . S
H1027 C1024 0.930 . S
O1028 Li968 1.956 . S
O1028 Li969 1.970 . S
O1028 Li970 1.961 . S
O1028 C972 1.325 . S
O1029 Li968 1.970 . S
O1029 Li969 1.956 . S
O1029 Li971 1.961 . S
O1029 C978 1.325 . S
O1030 Li968 1.961 . S
O1030 Li970 1.956 . S
O1030 Li971 1.970 . S
O1030 C1000 1.325 . S
O1031 Li969 1.961 . S
O1031 Li970 1.970 . S
O1031 Li971 1.956 . S
O1031 C1006 1.325 . S
H1032 C974 0.929 . S
H1033 C975 0.930 . S
H1034 C976 0.930 . S
H1035 C977 0.930 . S
H1036 C979 0.930 . S
H1037 C981 0.929 . S
H1038 C982 0.930 . S
H1039 C983 0.930 . S
H1040 C986 0.930 . S
H1041 C989 0.929 . S
H1042 C994 0.929 . S
H1043 C995 0.930 . S
H1044 C1002 0.929 . S
H1045 C1003 0.930 . S
H1046 C1004 0.930 . S
H1047 C1005 0.930 . S
H1048 C1007 0.929 . S
H1049 C1008 0.930 . S
H1050 C1009 0.930 . S
H1051 C1010 0.930 . S
H1052 C1014 0.929 . S
H1053 C1016 0.930 . S
H1054 C1022 0.929 . S
H1055 C1023 0.930 . S
Li1056 N1073 1.990 . S
Li1056 O1116 1.956 1_655 S
Li1056 O1117 1.970 . S
Li1056 O1118 1.961 1_655 S
Li1057 N1081 1.990 . S
Li1057 O1116 1.970 . S
Li1057 O1117 1.956 1_455 S
Li1057 O1119 1.961 . S
Li1058 N1103 1.990 . S
Li1058 O1116 1.961 . S
Li1058 O1118 1.956 . S
Li1058 O1119 1.970 . S
Li1059 N1109 1.990 . S
Li1059 O1117 1.961 1_455 S
Li1059 O1118 1.970 . S
Li1059 O1119 1.956 . S
C1060 C1062 1.348 . S
C1060 C1063 1.356 . S
C1060 O1116 1.325 . S
N1061 C1064 1.314 . S
N1061 C1065 1.279 . S
C1062 C1060 1.348 . S
C1062 C1064 1.353 . S
C1062 H1120 0.929 . S
C1063 C1060 1.356 . S
C1063 C1065 1.358 . S
C1063 H1121 0.930 . S
C1064 N1061 1.314 . S
C1064 C1062 1.353 . S
C1064 H1122 0.930 . S
C1065 N1061 1.279 . S
C1065 C1063 1.358 . S
C1065 H1123 0.930 . S
C1066 C1069 1.348 . S
C1066 C1070 1.356 . S
C1066 O1117 1.325 . S
C1067 N1068 1.279 . S
C1067 C1070 1.358 . S
C1067 H1124 0.930 . S
N1068 C1067 1.279 . S
N1068 C1071 1.314 . S
C1069 C1066 1.348 . S
C1069 C1071 1.353 . S
C1069 H1125 0.929 . S
C1070 C1066 1.356 . S
C1070 C1067 1.358 . S
C1070 H1126 0.930 . S
C1071 N1068 1.314 . S
C1071 C1069 1.353 . S
C1071 H1127 0.930 . S
C1072 N1073 1.314 . S
C1072 C1077 1.353 . S
C1072 H1078 0.930 . S
N1073 Li1056 1.990 . S
N1073 C1072 1.314 . S
N1073 C1075 1.279 . S
C1074 C1075 1.358 . S
C1074 C1076 1.356 . S
C1074 H1128 0.930 . S
C1075 N1073 1.279 . S
C1075 C1074 1.358 . S
C1075 H1079 0.930 . S
C1076 C1074 1.356 . S
C1076 C1077 1.348 . S
C1077 C1072 1.353 . S
C1077 C1076 1.348 . S
C1077 H1129 0.929 . S
H1078 C1072 0.930 . S
H1079 C1075 0.930 . S
C1080 N1081 1.314 . S
C1080 C1082 1.353 . S
C1080 H1086 0.930 . S
N1081 Li1057 1.990 . S
N1081 C1080 1.314 . S
N1081 C1084 1.277 . S
C1082 C1080 1.353 . S
C1082 C1085 1.348 . S
C1082 H1130 0.929 . S
C1083 C1084 1.358 1_655 S
C1083 C1085 1.356 1_655 S
C1083 H1131 0.930 . S
C1084 N1081 1.277 . S
C1084 C1083 1.358 1_455 S
C1084 H1087 0.933 1_455 S
C1085 C1082 1.348 . S
C1085 C1083 1.356 1_455 S
H1086 C1080 0.930 . S
H1087 C1084 0.933 1_655 S
C1088 C1090 1.348 . S
C1088 C1091 1.356 . S
C1088 O1118 1.325 . S
N1089 C1092 1.314 . S
N1089 C1093 1.279 . S
C1090 C1088 1.348 . S
C1090 C1092 1.353 . S
C1090 H1132 0.929 . S
C1091 C1088 1.356 . S
C1091 C1093 1.358 . S
C1091 H1133 0.930 . S
C1092 N1089 1.314 . S
C1092 C1090 1.353 . S
C1092 H1134 0.930 . S
C1093 N1089 1.279 . S
C1093 C1091 1.358 . S
C1093 H1135 0.930 . S
C1094 C1095 1.348 . S
C1094 C1096 1.356 . S
C1094 O1119 1.325 . S
C1095 C1094 1.348 . S
C1095 C1097 1.353 . S
C1095 H1136 0.929 . S
C1096 C1094 1.356 . S
C1096 C1098 1.358 . S
C1096 H1137 0.930 . S
C1097 C1095 1.353 . S
C1097 N1099 1.314 . S
C1097 H1138 0.930 . S
C1098 C1096 1.358 . S
C1098 N1099 1.279 . S
C1098 H1139 0.930 . S
N1099 C1097 1.314 . S
N1099 C1098 1.279 . S
C1100 C1102 1.353 . S
C1100 N1103 1.314 . S
C1100 H1106 0.930 . S
C1101 N1103 1.279 . S
C1101 C1104 1.358 . S
C1101 H1107 0.930 . S
C1102 C1100 1.353 . S
C1102 C1105 1.348 . S
C1102 H1140 0.929 . S
N1103 Li1058 1.990 . S
N1103 C1100 1.314 . S
N1103 C1101 1.279 . S
C1104 C1101 1.358 . S
C1104 C1105 1.356 . S
C1104 H1141 0.930 . S
C1105 C1102 1.348 . S
C1105 C1104 1.356 . S
H1106 C1100 0.930 . S
H1107 C1101 0.930 . S
C1108 N1109 1.314 . S
C1108 C1110 1.353 . S
C1108 H1114 0.930 1_455 S
N1109 Li1059 1.990 . S
N1109 C1108 1.314 . S
N1109 C1112 1.279 . S
C1110 C1108 1.353 . S
C1110 C1113 1.348 . S
C1110 H1142 0.929 1_455 S
C1111 C1112 1.358 . S
C1111 C1113 1.356 . S
C1111 H1143 0.930 . S
C1112 N1109 1.279 . S
C1112 C1111 1.358 . S
C1112 H1115 0.930 . S
C1113 C1110 1.348 . S
C1113 C1111 1.356 . S
H1114 C1108 0.930 1_655 S
H1115 C1112 0.930 . S
O1116 Li1056 1.956 1_455 S
O1116 Li1057 1.970 . S
O1116 Li1058 1.961 . S
O1116 C1060 1.325 . S
O1117 Li1056 1.970 . S
O1117 Li1057 1.956 1_655 S
O1117 Li1059 1.961 1_655 S
O1117 C1066 1.325 . S
O1118 Li1056 1.961 1_455 S
O1118 Li1058 1.956 . S
O1118 Li1059 1.970 . S
O1118 C1088 1.325 . S
O1119 Li1057 1.961 . S
O1119 Li1058 1.970 . S
O1119 Li1059 1.956 . S
O1119 C1094 1.325 . S
H1120 C1062 0.929 . S
H1121 C1063 0.930 . S
H1122 C1064 0.930 . S
H1123 C1065 0.930 . S
H1124 C1067 0.930 . S
H1125 C1069 0.929 . S
H1126 C1070 0.930 . S
H1127 C1071 0.930 . S
H1128 C1074 0.930 . S
H1129 C1077 0.929 . S
H1130 C1082 0.929 . S
H1131 C1083 0.930 . S
H1132 C1090 0.929 . S
H1133 C1091 0.930 . S
H1134 C1092 0.930 . S
H1135 C1093 0.930 . S
H1136 C1095 0.929 . S
H1137 C1096 0.930 . S
H1138 C1097 0.930 . S
H1139 C1098 0.930 . S
H1140 C1102 0.929 . S
H1141 C1104 0.930 . S
H1142 C1110 0.929 1_655 S
H1143 C1111 0.930 . S
Li1144 N1161 1.991 . S
Li1144 O1204 1.986 . S
Li1144 O1205 1.970 1_455 S
Li1144 O1206 1.929 1_455 S
Li1145 N1169 1.990 . S
Li1145 O1204 1.970 . S
Li1145 O1205 1.956 1_455 S
Li1145 O1207 1.985 . S
Li1146 N1191 1.992 . S
Li1146 O1204 1.968 . S
Li1146 O1206 1.949 1_455 S
Li1146 O1207 1.969 . S
Li1147 N1197 1.990 . S
Li1147 O1205 1.961 . S
Li1147 O1206 1.970 . S
Li1147 O1207 1.932 1_655 S
C1148 C1150 1.348 . S
C1148 C1151 1.356 . S
C1148 O1204 1.325 . S
N1149 C1152 1.314 . S
N1149 C1153 1.279 . S
C1150 C1148 1.348 . S
C1150 C1152 1.353 . S
C1150 H1208 0.929 . S
C1151 C1148 1.356 . S
C1151 C1153 1.358 . S
C1151 H1209 0.930 . S
C1152 N1149 1.314 . S
C1152 C1150 1.353 . S
C1152 H1210 0.930 . S
C1153 N1149 1.279 . S
C1153 C1151 1.358 . S
C1153 H1211 0.930 . S
C1154 C1157 1.348 1_655 S
C1154 C1158 1.356 . S
C1154 O1205 1.325 . S
C1155 N1156 1.279 . S
C1155 C1158 1.358 . S
C1155 H1212 0.930 . S
N1156 C1155 1.279 . S
N1156 C1159 1.314 1_655 S
C1157 C1154 1.348 1_455 S
C1157 C1159 1.353 . S
C1157 H1213 0.929 . S
C1158 C1154 1.356 . S
C1158 C1155 1.358 . S
C1158 H1214 0.930 . S
C1159 N1156 1.314 1_455 S
C1159 C1157 1.353 . S
C1159 H1215 0.930 . S
C1160 N1161 1.314 1_655 S
C1160 C1165 1.353 . S
C1160 H1166 0.930 . S
N1161 Li1144 1.991 . S
N1161 C1160 1.314 1_455 S
N1161 C1163 1.279 . S
C1162 C1163 1.358 . S
C1162 C1164 1.369 . S
C1162 H1216 0.930 . S
C1163 N1161 1.279 . S
C1163 C1162 1.358 . S
C1163 H1167 0.930 . S
C1164 C1162 1.369 . S
C1164 C1165 1.335 1_455 S
C1165 C1160 1.353 . S
C1165 C1164 1.335 1_655 S
C1165 H1217 0.929 . S
H1166 C1160 0.930 . S
H1167 C1163 0.930 . S
C1168 N1169 1.314 . S
C1168 C1170 1.353 . S
C1168 H1174 0.930 . S
N1169 Li1145 1.990 . S
N1169 C1168 1.314 . S
N1169 C1172 1.279 . S
C1170 C1168 1.353 . S
C1170 C1173 1.348 . S
C1170 H1218 0.929 . S
C1171 C1172 1.358 . S
C1171 C1173 1.356 . S
C1171 H1219 0.930 . S
C1172 N1169 1.279 . S
C1172 C1171 1.358 . S
C1172 H1175 0.930 . S
C1173 C1170 1.348 . S
C1173 C1171 1.356 . S
H1174 C1168 0.930 . S
H1175 C1172 0.930 . S
C1176 C1178 1.348 . S
C1176 C1179 1.356 . S
C1176 O1206 1.325 . S
N1177 C1180 1.314 . S
N1177 C1181 1.279 . S
C1178 C1176 1.348 . S
C1178 C1180 1.353 . S
C1178 H1220 0.929 . S
C1179 C1176 1.356 . S
C1179 C1181 1.358 . S
C1179 H1221 0.930 . S
C1180 N1177 1.314 . S
C1180 C1178 1.353 . S
C1180 H1222 0.930 . S
C1181 N1177 1.279 . S
C1181 C1179 1.358 . S
C1181 H1223 0.930 . S
C1182 C1183 1.348 1_455 S
C1182 C1184 1.356 . S
C1182 O1207 1.324 . S
C1183 C1182 1.348 1_655 S
C1183 C1185 1.353 . S
C1183 H1224 0.929 . S
C1184 C1182 1.356 . S
C1184 C1186 1.358 . S
C1184 H1225 0.930 . S
C1185 C1183 1.353 . S
C1185 N1187 1.314 . S
C1185 H1226 0.930 . S
C1186 C1184 1.358 . S
C1186 N1187 1.279 1_455 S
C1186 H1227 0.930 . S
N1187 C1185 1.314 . S
N1187 C1186 1.279 1_655 S
C1188 C1190 1.353 . S
C1188 N1191 1.350 . S
C1188 H1194 0.930 . S
C1189 N1191 1.243 1_655 S
C1189 C1192 1.358 . S
C1189 H1195 0.930 . S
C1190 C1188 1.353 . S
C1190 C1193 1.348 . S
C1190 H1228 0.929 . S
N1191 Li1146 1.992 . S
N1191 C1188 1.350 . S
N1191 C1189 1.243 1_455 S
C1192 C1189 1.358 . S
C1192 C1193 1.356 1_655 S
C1192 H1229 0.930 . S
C1193 C1190 1.348 . S
C1193 C1192 1.356 1_455 S
H1194 C1188 0.930 . S
H1195 C1189 0.930 . S
C1196 N1197 1.314 . S
C1196 C1198 1.353 . S
C1196 H1202 0.930 . S
N1197 Li1147 1.990 . S
N1197 C1196 1.314 . S
N1197 C1200 1.279 . S
C1198 C1196 1.353 . S
C1198 C1201 1.348 . S
C1198 H1230 0.929 . S
C1199 C1200 1.358 . S
C1199 C1201 1.356 . S
C1199 H1231 0.930 . S
C1200 N1197 1.279 . S
C1200 C1199 1.358 . S
C1200 H1203 0.930 . S
C1201 C1198 1.348 . S
C1201 C1199 1.356 . S
H1202 C1196 0.930 . S
H1203 C1200 0.930 . S
O1204 Li1144 1.986 . S
O1204 Li1145 1.970 . S
O1204 Li1146 1.968 . S
O1204 C1148 1.325 . S
O1205 Li1144 1.970 1_655 S
O1205 Li1145 1.956 1_655 S
O1205 Li1147 1.961 . S
O1205 C1154 1.325 . S
O1206 Li1144 1.929 1_655 S
O1206 Li1146 1.949 1_655 S
O1206 Li1147 1.970 . S
O1206 C1176 1.325 . S
O1207 Li1145 1.985 . S
O1207 Li1146 1.969 . S
O1207 Li1147 1.932 1_455 S
O1207 C1182 1.324 . S
H1208 C1150 0.929 . S
H1209 C1151 0.930 . S
H1210 C1152 0.930 . S
H1211 C1153 0.930 . S
H1212 C1155 0.930 . S
H1213 C1157 0.929 . S
H1214 C1158 0.930 . S
H1215 C1159 0.930 . S
H1216 C1162 0.930 . S
H1217 C1165 0.929 . S
H1218 C1170 0.929 . S
H1219 C1171 0.930 . S
H1220 C1178 0.929 . S
H1221 C1179 0.930 . S
H1222 C1180 0.930 . S
H1223 C1181 0.930 . S
H1224 C1183 0.929 . S
H1225 C1184 0.930 . S
H1226 C1185 0.930 . S
H1227 C1186 0.930 . S
H1228 C1190 0.929 . S
H1229 C1192 0.930 . S
H1230 C1198 0.929 . S
H1231 C1199 0.930 . S
Li1232 N1249 1.990 . S
Li1232 O1292 1.956 . S
Li1232 O1293 1.970 . S
Li1232 O1294 1.961 . S
Li1233 N1257 1.990 . S
Li1233 O1292 1.970 . S
Li1233 O1293 1.956 . S
Li1233 O1295 1.961 . S
Li1234 N1279 1.990 . S
Li1234 O1292 1.961 . S
Li1234 O1294 1.956 . S
Li1234 O1295 1.970 . S
Li1235 N1285 1.990 . S
Li1235 O1293 1.961 . S
Li1235 O1294 1.970 . S
Li1235 O1295 1.956 . S
C1236 C1238 1.348 . S
C1236 C1239 1.356 . S
C1236 O1292 1.325 . S
N1237 C1240 1.314 . S
N1237 C1241 1.279 . S
C1238 C1236 1.348 . S
C1238 C1240 1.353 . S
C1238 H1296 0.929 . S
C1239 C1236 1.356 . S
C1239 C1241 1.358 . S
C1239 H1297 0.930 . S
C1240 N1237 1.314 . S
C1240 C1238 1.353 . S
C1240 H1298 0.930 . S
C1241 N1237 1.279 . S
C1241 C1239 1.358 . S
C1241 H1299 0.930 . S
C1242 C1245 1.348 . S
C1242 C1246 1.356 . S
C1242 O1293 1.325 . S
C1243 N1244 1.279 . S
C1243 C1246 1.358 . S
C1243 H1300 0.930 . S
N1244 C1243 1.279 . S
N1244 C1247 1.314 . S
C1245 C1242 1.348 . S
C1245 C1247 1.353 . S
C1245 H1301 0.929 . S
C1246 C1242 1.356 . S
C1246 C1243 1.358 . S
C1246 H1302 0.930 . S
C1247 N1244 1.314 . S
C1247 C1245 1.353 . S
C1247 H1303 0.930 . S
C1248 N1249 1.314 . S
C1248 C1253 1.353 . S
C1248 H1254 0.930 . S
N1249 Li1232 1.990 . S
N1249 C1248 1.314 . S
N1249 C1251 1.279 . S
C1250 C1251 1.358 . S
C1250 C1252 1.356 . S
C1250 H1304 0.930 . S
C1251 N1249 1.279 . S
C1251 C1250 1.358 . S
C1251 H1255 0.930 . S
C1252 C1250 1.356 . S
C1252 C1253 1.348 . S
C1253 C1248 1.353 . S
C1253 C1252 1.348 . S
C1253 H1305 0.929 . S
H1254 C1248 0.930 . S
H1255 C1251 0.930 . S
C1256 N1257 1.314 . S
C1256 C1258 1.353 . S
C1256 H1262 0.930 . S
N1257 Li1233 1.990 . S
N1257 C1256 1.314 . S
N1257 C1260 1.279 . S
C1258 C1256 1.353 . S
C1258 C1261 1.348 . S
C1258 H1306 0.929 . S
C1259 C1260 1.358 . S
C1259 C1261 1.356 . S
C1259 H1307 0.930 . S
C1260 N1257 1.279 . S
C1260 C1259 1.358 . S
C1260 H1263 0.930 . S
C1261 C1258 1.348 . S
C1261 C1259 1.356 . S
H1262 C1256 0.930 . S
H1263 C1260 0.930 . S
C1264 C1266 1.348 . S
C1264 C1267 1.356 . S
C1264 O1294 1.325 . S
N1265 C1268 1.314 . S
N1265 C1269 1.279 . S
C1266 C1264 1.348 . S
C1266 C1268 1.353 . S
C1266 H1308 0.929 . S
C1267 C1264 1.356 . S
C1267 C1269 1.358 . S
C1267 H1309 0.930 . S
C1268 N1265 1.314 . S
C1268 C1266 1.353 . S
C1268 H1310 0.930 . S
C1269 N1265 1.279 . S
C1269 C1267 1.358 . S
C1269 H1311 0.930 . S
C1270 C1271 1.348 . S
C1270 C1272 1.356 . S
C1270 O1295 1.325 . S
C1271 C1270 1.348 . S
C1271 C1273 1.353 . S
C1271 H1312 0.929 . S
C1272 C1270 1.356 . S
C1272 C1274 1.358 . S
C1272 H1313 0.930 . S
C1273 C1271 1.353 . S
C1273 N1275 1.314 . S
C1273 H1314 0.930 . S
C1274 C1272 1.358 . S
C1274 N1275 1.279 . S
C1274 H1315 0.930 . S
N1275 C1273 1.314 . S
N1275 C1274 1.279 . S
C1276 C1278 1.353 . S
C1276 N1279 1.314 . S
C1276 H1282 0.930 . S
C1277 N1279 1.279 . S
C1277 C1280 1.358 . S
C1277 H1283 0.930 . S
C1278 C1276 1.353 . S
C1278 C1281 1.348 . S
C1278 H1316 0.929 . S
N1279 Li1234 1.990 . S
N1279 C1276 1.314 . S
N1279 C1277 1.279 . S
C1280 C1277 1.358 . S
C1280 C1281 1.356 . S
C1280 H1317 0.930 . S
C1281 C1278 1.348 . S
C1281 C1280 1.356 . S
H1282 C1276 0.930 . S
H1283 C1277 0.930 . S
C1284 N1285 1.314 . S
C1284 C1286 1.353 . S
C1284 H1290 0.930 . S
N1285 Li1235 1.990 . S
N1285 C1284 1.314 . S
N1285 C1288 1.279 . S
C1286 C1284 1.353 . S
C1286 C1289 1.348 . S
C1286 H1318 0.929 . S
C1287 C1288 1.358 . S
C1287 C1289 1.356 . S
C1287 H1319 0.930 . S
C1288 N1285 1.279 . S
C1288 C1287 1.358 . S
C1288 H1291 0.930 . S
C1289 C1286 1.348 . S
C1289 C1287 1.356 . S
H1290 C1284 0.930 . S
H1291 C1288 0.930 . S
O1292 Li1232 1.956 . S
O1292 Li1233 1.970 . S
O1292 Li1234 1.961 . S
O1292 C1236 1.325 . S
O1293 Li1232 1.970 . S
O1293 Li1233 1.956 . S
O1293 Li1235 1.961 . S
O1293 C1242 1.325 . S
O1294 Li1232 1.961 . S
O1294 Li1234 1.956 . S
O1294 Li1235 1.970 . S
O1294 C1264 1.325 . S
O1295 Li1233 1.961 . S
O1295 Li1234 1.970 . S
O1295 Li1235 1.956 . S
O1295 C1270 1.325 . S
H1296 C1238 0.929 . S
H1297 C1239 0.930 . S
H1298 C1240 0.930 . S
H1299 C1241 0.930 . S
H1300 C1243 0.930 . S
H1301 C1245 0.929 . S
H1302 C1246 0.930 . S
H1303 C1247 0.930 . S
H1304 C1250 0.930 . S
H1305 C1253 0.929 . S
H1306 C1258 0.929 . S
H1307 C1259 0.930 . S
H1308 C1266 0.929 . S
H1309 C1267 0.930 . S
H1310 C1268 0.930 . S
H1311 C1269 0.930 . S
H1312 C1271 0.929 . S
H1313 C1272 0.930 . S
H1314 C1273 0.930 . S
H1315 C1274 0.930 . S
H1316 C1278 0.929 . S
H1317 C1280 0.930 . S
H1318 C1286 0.929 . S
H1319 C1287 0.930 . S
Li1320 N1337 1.990 . S
Li1320 O1380 1.956 . S
Li1320 O1381 1.970 . S
Li1320 O1382 1.961 . S
Li1321 N1345 1.990 . S
Li1321 O1380 1.970 . S
Li1321 O1381 1.956 . S
Li1321 O1383 1.961 . S
Li1322 N1367 1.990 . S
Li1322 O1380 1.961 . S
Li1322 O1382 1.956 . S
Li1322 O1383 1.970 . S
Li1323 N1373 1.990 . S
Li1323 O1381 1.961 . S
Li1323 O1382 1.970 . S
Li1323 O1383 1.956 . S
C1324 C1326 1.348 . S
C1324 C1327 1.356 . S
C1324 O1380 1.325 . S
N1325 C1328 1.314 . S
N1325 C1329 1.279 . S
C1326 C1324 1.348 . S
C1326 C1328 1.353 . S
C1326 H1384 0.929 . S
C1327 C1324 1.356 . S
C1327 C1329 1.358 . S
C1327 H1385 0.930 . S
C1328 N1325 1.314 . S
C1328 C1326 1.353 . S
C1328 H1386 0.930 . S
C1329 N1325 1.279 . S
C1329 C1327 1.358 . S
C1329 H1387 0.930 . S
C1330 C1333 1.348 . S
C1330 C1334 1.356 . S
C1330 O1381 1.325 . S
C1331 N1332 1.279 . S
C1331 C1334 1.358 . S
C1331 H1388 0.930 . S
N1332 C1331 1.279 . S
N1332 C1335 1.314 . S
C1333 C1330 1.348 . S
C1333 C1335 1.353 . S
C1333 H1389 0.929 . S
C1334 C1330 1.356 . S
C1334 C1331 1.358 . S
C1334 H1390 0.930 . S
C1335 N1332 1.314 . S
C1335 C1333 1.353 . S
C1335 H1391 0.930 . S
C1336 N1337 1.314 . S
C1336 C1341 1.353 . S
C1336 H1342 0.930 . S
N1337 Li1320 1.990 . S
N1337 C1336 1.314 . S
N1337 C1339 1.279 . S
C1338 C1339 1.358 . S
C1338 C1340 1.356 . S
C1338 H1392 0.930 . S
C1339 N1337 1.279 . S
C1339 C1338 1.358 . S
C1339 H1343 0.930 . S
C1340 C1338 1.356 . S
C1340 C1341 1.348 . S
C1341 C1336 1.353 . S
C1341 C1340 1.348 . S
C1341 H1393 0.929 . S
H1342 C1336 0.930 . S
H1343 C1339 0.930 . S
C1344 N1345 1.314 . S
C1344 C1346 1.353 . S
C1344 H1350 0.930 . S
N1345 Li1321 1.990 . S
N1345 C1344 1.314 . S
N1345 C1348 1.279 . S
C1346 C1344 1.353 . S
C1346 C1349 1.348 . S
C1346 H1394 0.929 . S
C1347 C1348 1.358 . S
C1347 C1349 1.356 . S
C1347 H1395 0.930 . S
C1348 N1345 1.279 . S
C1348 C1347 1.358 . S
C1348 H1351 0.930 . S
C1349 C1346 1.348 . S
C1349 C1347 1.356 . S
H1350 C1344 0.930 . S
H1351 C1348 0.930 . S
C1352 C1354 1.348 . S
C1352 C1355 1.356 . S
C1352 O1382 1.325 . S
N1353 C1356 1.314 . S
N1353 C1357 1.279 . S
C1354 C1352 1.348 . S
C1354 C1356 1.353 . S
C1354 H1396 0.929 . S
C1355 C1352 1.356 . S
C1355 C1357 1.358 . S
C1355 H1397 0.930 . S
C1356 N1353 1.314 . S
C1356 C1354 1.353 . S
C1356 H1398 0.930 . S
C1357 N1353 1.279 . S
C1357 C1355 1.358 . S
C1357 H1399 0.930 . S
C1358 C1359 1.348 . S
C1358 C1360 1.356 . S
C1358 O1383 1.325 . S
C1359 C1358 1.348 . S
C1359 C1361 1.353 . S
C1359 H1400 0.929 . S
C1360 C1358 1.356 . S
C1360 C1362 1.358 . S
C1360 H1401 0.930 . S
C1361 C1359 1.353 . S
C1361 N1363 1.314 . S
C1361 H1402 0.930 . S
C1362 C1360 1.358 . S
C1362 N1363 1.279 . S
C1362 H1403 0.930 . S
N1363 C1361 1.314 . S
N1363 C1362 1.279 . S
C1364 C1366 1.353 . S
C1364 N1367 1.314 . S
C1364 H1370 0.930 . S
C1365 N1367 1.279 . S
C1365 C1368 1.358 . S
C1365 H1371 0.930 . S
C1366 C1364 1.353 . S
C1366 C1369 1.348 . S
C1366 H1404 0.929 . S
N1367 Li1322 1.990 . S
N1367 C1364 1.314 . S
N1367 C1365 1.279 . S
C1368 C1365 1.358 . S
C1368 C1369 1.356 . S
C1368 H1405 0.930 . S
C1369 C1366 1.348 . S
C1369 C1368 1.356 . S
H1370 C1364 0.930 . S
H1371 C1365 0.930 . S
C1372 N1373 1.314 . S
C1372 C1374 1.353 . S
C1372 H1378 0.930 . S
N1373 Li1323 1.990 . S
N1373 C1372 1.314 . S
N1373 C1376 1.279 . S
C1374 C1372 1.353 . S
C1374 C1377 1.348 . S
C1374 H1406 0.929 . S
C1375 C1376 1.358 . S
C1375 C1377 1.356 . S
C1375 H1407 0.930 . S
C1376 N1373 1.279 . S
C1376 C1375 1.358 . S
C1376 H1379 0.930 . S
C1377 C1374 1.348 . S
C1377 C1375 1.356 . S
H1378 C1372 0.930 . S
H1379 C1376 0.930 . S
O1380 Li1320 1.956 . S
O1380 Li1321 1.970 . S
O1380 Li1322 1.961 . S
O1380 C1324 1.325 . S
O1381 Li1320 1.970 . S
O1381 Li1321 1.956 . S
O1381 Li1323 1.961 . S
O1381 C1330 1.325 . S
O1382 Li1320 1.961 . S
O1382 Li1322 1.956 . S
O1382 Li1323 1.970 . S
O1382 C1352 1.325 . S
O1383 Li1321 1.961 . S
O1383 Li1322 1.970 . S
O1383 Li1323 1.956 . S
O1383 C1358 1.325 . S
H1384 C1326 0.929 . S
H1385 C1327 0.930 . S
H1386 C1328 0.930 . S
H1387 C1329 0.930 . S
H1388 C1331 0.930 . S
H1389 C1333 0.929 . S
H1390 C1334 0.930 . S
H1391 C1335 0.930 . S
H1392 C1338 0.930 . S
H1393 C1341 0.929 . S
H1394 C1346 0.929 . S
H1395 C1347 0.930 . S
H1396 C1354 0.929 . S
H1397 C1355 0.930 . S
H1398 C1356 0.930 . S
H1399 C1357 0.930 . S
H1400 C1359 0.929 . S
H1401 C1360 0.930 . S
H1402 C1361 0.930 . S
H1403 C1362 0.930 . S
H1404 C1366 0.929 . S
H1405 C1368 0.930 . S
H1406 C1374 0.929 . S
H1407 C1375 0.930 . S
Li1408 N1425 1.990 . S
Li1408 O1468 1.956 . S
Li1408 O1469 1.970 . S
Li1408 O1470 1.961 . S
Li1409 N1433 1.990 . S
Li1409 O1468 1.970 . S
Li1409 O1469 1.956 . S
Li1409 O1471 1.961 . S
Li1410 N1455 1.990 . S
Li1410 O1468 1.961 . S
Li1410 O1470 1.956 . S
Li1410 O1471 1.970 . S
Li1411 N1461 1.990 . S
Li1411 O1469 1.961 . S
Li1411 O1470 1.970 . S
Li1411 O1471 1.956 . S
C1412 C1414 1.348 1_545 S
C1412 C1415 1.356 . S
C1412 O1468 1.325 . S
N1413 C1416 1.314 . S
N1413 C1417 1.279 . S
C1414 C1412 1.348 1_565 S
C1414 C1416 1.353 . S
C1414 H1472 0.929 . S
C1415 C1412 1.356 . S
C1415 C1417 1.358 1_545 S
C1415 H1473 0.930 . S
C1416 N1413 1.314 . S
C1416 C1414 1.353 . S
C1416 H1474 0.930 . S
C1417 N1413 1.279 . S
C1417 C1415 1.358 1_565 S
C1417 H1475 0.930 . S
C1418 C1421 1.348 . S
C1418 C1422 1.356 . S
C1418 O1469 1.325 . S
C1419 N1420 1.279 . S
C1419 C1422 1.358 . S
C1419 H1476 0.930 . S
N1420 C1419 1.279 . S
N1420 C1423 1.314 . S
C1421 C1418 1.348 . S
C1421 C1423 1.353 . S
C1421 H1477 0.929 . S
C1422 C1418 1.356 . S
C1422 C1419 1.358 . S
C1422 H1478 0.930 . S
C1423 N1420 1.314 . S
C1423 C1421 1.353 . S
C1423 H1479 0.930 . S
C1424 N1425 1.314 . S
C1424 C1429 1.353 . S
C1424 H1430 0.930 . S
N1425 Li1408 1.990 . S
N1425 C1424 1.314 . S
N1425 C1427 1.279 . S
C1426 C1427 1.358 . S
C1426 C1428 1.356 . S
C1426 H1480 0.930 . S
C1427 N1425 1.279 . S
C1427 C1426 1.358 . S
C1427 H1431 0.930 . S
C1428 C1426 1.356 . S
C1428 C1429 1.348 . S
C1429 C1424 1.353 . S
C1429 C1428 1.348 . S
C1429 H1481 0.929 . S
H1430 C1424 0.930 . S
H1431 C1427 0.930 . S
C1432 N1433 1.314 1_565 S
C1432 C1434 1.353 . S
C1432 H1438 0.930 . S
N1433 Li1409 1.990 . S
N1433 C1432 1.314 1_545 S
N1433 C1436 1.279 1_545 S
C1434 C1432 1.353 . S
C1434 C1437 1.348 . S
C1434 H1482 0.929 . S
C1435 C1436 1.358 . S
C1435 C1437 1.356 . S
C1435 H1483 0.930 . S
C1436 N1433 1.279 1_565 S
C1436 C1435 1.358 . S
C1436 H1439 0.930 1_565 S
C1437 C1434 1.348 . S
C1437 C1435 1.356 . S
H1438 C1432 0.930 . S
H1439 C1436 0.930 1_545 S
C1440 C1442 1.348 . S
C1440 C1443 1.356 . S
C1440 O1470 1.325 . S
N1441 C1444 1.314 . S
N1441 C1445 1.279 . S
C1442 C1440 1.348 . S
C1442 C1444 1.353 . S
C1442 H1484 0.929 . S
C1443 C1440 1.356 . S
C1443 C1445 1.358 . S
C1443 H1485 0.930 . S
C1444 N1441 1.314 . S
C1444 C1442 1.353 . S
C1444 H1486 0.930 . S
C1445 N1441 1.279 . S
C1445 C1443 1.358 . S
C1445 H1487 0.930 . S
C1446 C1447 1.348 . S
C1446 C1448 1.356 . S
C1446 O1471 1.325 . S
C1447 C1446 1.348 . S
C1447 C1449 1.353 . S
C1447 H1488 0.929 . S
C1448 C1446 1.356 . S
C1448 C1450 1.358 . S
C1448 H1489 0.930 . S
C1449 C1447 1.353 . S
C1449 N1451 1.314 . S
C1449 H1490 0.930 . S
C1450 C1448 1.358 . S
C1450 N1451 1.279 . S
C1450 H1491 0.930 . S
N1451 C1449 1.314 . S
N1451 C1450 1.279 . S
C1452 C1454 1.353 . S
C1452 N1455 1.314 . S
C1452 H1458 0.930 . S
C1453 N1455 1.279 . S
C1453 C1456 1.358 . S
C1453 H1459 0.930 . S
C1454 C1452 1.353 . S
C1454 C1457 1.348 . S
C1454 H1492 0.929 . S
N1455 Li1410 1.990 . S
N1455 C1452 1.314 . S
N1455 C1453 1.279 . S
C1456 C1453 1.358 . S
C1456 C1457 1.356 . S
C1456 H1493 0.930 . S
C1457 C1454 1.348 . S
C1457 C1456 1.356 . S
H1458 C1452 0.930 . S
H1459 C1453 0.930 . S
C1460 N1461 1.314 . S
C1460 C1462 1.353 . S
C1460 H1466 0.930 . S
N1461 Li1411 1.990 . S
N1461 C1460 1.314 . S
N1461 C1464 1.279 . S
C1462 C1460 1.353 . S
C1462 C1465 1.348 . S
C1462 H1494 0.929 . S
C1463 C1464 1.358 . S
C1463 C1465 1.356 . S
C1463 H1495 0.930 . S
C1464 N1461 1.279 . S
C1464 C1463 1.358 . S
C1464 H1467 0.930 . S
C1465 C1462 1.348 . S
C1465 C1463 1.356 . S
H1466 C1460 0.930 . S
H1467 C1464 0.930 . S
O1468 Li1408 1.956 . S
O1468 Li1409 1.970 . S
O1468 Li1410 1.961 . S
O1468 C1412 1.325 . S
O1469 Li1408 1.970 . S
O1469 Li1409 1.956 . S
O1469 Li1411 1.961 . S
O1469 C1418 1.325 . S
O1470 Li1408 1.961 . S
O1470 Li1410 1.956 . S
O1470 Li1411 1.970 . S
O1470 C1440 1.325 . S
O1471 Li1409 1.961 . S
O1471 Li1410 1.970 . S
O1471 Li1411 1.956 . S
O1471 C1446 1.325 . S
H1472 C1414 0.929 . S
H1473 C1415 0.930 . S
H1474 C1416 0.930 . S
H1475 C1417 0.930 . S
H1476 C1419 0.930 . S
H1477 C1421 0.929 . S
H1478 C1422 0.930 . S
H1479 C1423 0.930 . S
H1480 C1426 0.930 . S
H1481 C1429 0.929 . S
H1482 C1434 0.929 . S
H1483 C1435 0.930 . S
H1484 C1442 0.929 . S
H1485 C1443 0.930 . S
H1486 C1444 0.930 . S
H1487 C1445 0.930 . S
H1488 C1447 0.929 . S
H1489 C1448 0.930 . S
H1490 C1449 0.930 . S
H1491 C1450 0.930 . S
H1492 C1454 0.929 . S
H1493 C1456 0.930 . S
H1494 C1462 0.929 . S
H1495 C1463 0.930 . S
Li1496 N1513 1.990 . S
Li1496 O1556 1.956 . S
Li1496 O1557 1.970 . S
Li1496 O1558 1.961 . S
Li1497 N1521 1.990 . S
Li1497 O1556 1.970 . S
Li1497 O1557 1.956 . S
Li1497 O1559 1.961 . S
Li1498 N1543 1.990 . S
Li1498 O1556 1.961 . S
Li1498 O1558 1.956 . S
Li1498 O1559 1.970 . S
Li1499 N1549 1.990 . S
Li1499 O1557 1.961 . S
Li1499 O1558 1.970 . S
Li1499 O1559 1.956 . S
C1500 C1502 1.348 . S
C1500 C1503 1.356 . S
C1500 O1556 1.325 . S
N1501 C1504 1.314 . S
N1501 C1505 1.279 . S
C1502 C1500 1.348 . S
C1502 C1504 1.353 . S
C1502 H1560 0.929 . S
C1503 C1500 1.356 . S
C1503 C1505 1.358 . S
C1503 H1561 0.930 . S
C1504 N1501 1.314 . S
C1504 C1502 1.353 . S
C1504 H1562 0.930 . S
C1505 N1501 1.279 . S
C1505 C1503 1.358 . S
C1505 H1563 0.930 . S
C1506 C1509 1.348 . S
C1506 C1510 1.356 . S
C1506 O1557 1.325 . S
C1507 N1508 1.279 . S
C1507 C1510 1.358 . S
C1507 H1564 0.930 . S
N1508 C1507 1.279 . S
N1508 C1511 1.314 . S
C1509 C1506 1.348 . S
C1509 C1511 1.353 . S
C1509 H1565 0.929 . S
C1510 C1506 1.356 . S
C1510 C1507 1.358 . S
C1510 H1566 0.930 . S
C1511 N1508 1.314 . S
C1511 C1509 1.353 . S
C1511 H1567 0.930 . S
C1512 N1513 1.314 . S
C1512 C1517 1.353 . S
C1512 H1518 0.930 . S
N1513 Li1496 1.990 . S
N1513 C1512 1.314 . S
N1513 C1515 1.279 . S
C1514 C1515 1.358 . S
C1514 C1516 1.356 . S
C1514 H1568 0.930 . S
C1515 N1513 1.279 . S
C1515 C1514 1.358 . S
C1515 H1519 0.930 . S
C1516 C1514 1.356 . S
C1516 C1517 1.348 . S
C1517 C1512 1.353 . S
C1517 C1516 1.348 . S
C1517 H1569 0.929 . S
H1518 C1512 0.930 . S
H1519 C1515 0.930 . S
C1520 N1521 1.314 . S
C1520 C1522 1.353 . S
C1520 H1526 0.930 . S
N1521 Li1497 1.990 . S
N1521 C1520 1.314 . S
N1521 C1524 1.279 . S
C1522 C1520 1.353 . S
C1522 C1525 1.348 . S
C1522 H1570 0.929 . S
C1523 C1524 1.358 . S
C1523 C1525 1.356 . S
C1523 H1571 0.930 . S
C1524 N1521 1.279 . S
C1524 C1523 1.358 . S
C1524 H1527 0.930 . S
C1525 C1522 1.348 . S
C1525 C1523 1.356 . S
H1526 C1520 0.930 . S
H1527 C1524 0.930 . S
C1528 C1530 1.348 . S
C1528 C1531 1.356 . S
C1528 O1558 1.325 . S
N1529 C1532 1.314 . S
N1529 C1533 1.279 . S
C1530 C1528 1.348 . S
C1530 C1532 1.353 . S
C1530 H1572 0.929 . S
C1531 C1528 1.356 . S
C1531 C1533 1.358 . S
C1531 H1573 0.930 . S
C1532 N1529 1.314 . S
C1532 C1530 1.353 . S
C1532 H1574 0.930 . S
C1533 N1529 1.279 . S
C1533 C1531 1.358 . S
C1533 H1575 0.930 . S
C1534 C1535 1.348 . S
C1534 C1536 1.356 . S
C1534 O1559 1.325 . S
C1535 C1534 1.348 . S
C1535 C1537 1.353 . S
C1535 H1576 0.929 . S
C1536 C1534 1.356 . S
C1536 C1538 1.358 . S
C1536 H1577 0.930 . S
C1537 C1535 1.353 . S
C1537 N1539 1.314 . S
C1537 H1578 0.930 . S
C1538 C1536 1.358 . S
C1538 N1539 1.279 . S
C1538 H1579 0.930 . S
N1539 C1537 1.314 . S
N1539 C1538 1.279 . S
C1540 C1542 1.353 . S
C1540 N1543 1.314 . S
C1540 H1546 0.930 . S
C1541 N1543 1.279 . S
C1541 C1544 1.358 . S
C1541 H1547 0.930 . S
C1542 C1540 1.353 . S
C1542 C1545 1.348 . S
C1542 H1580 0.929 . S
N1543 Li1498 1.990 . S
N1543 C1540 1.314 . S
N1543 C1541 1.279 . S
C1544 C1541 1.358 . S
C1544 C1545 1.356 . S
C1544 H1581 0.930 . S
C1545 C1542 1.348 . S
C1545 C1544 1.356 . S
H1546 C1540 0.930 . S
H1547 C1541 0.930 . S
C1548 N1549 1.314 . S
C1548 C1550 1.353 . S
C1548 H1554 0.930 . S
N1549 Li1499 1.990 . S
N1549 C1548 1.314 . S
N1549 C1552 1.279 . S
C1550 C1548 1.353 . S
C1550 C1553 1.348 . S
C1550 H1582 0.929 . S
C1551 C1552 1.358 . S
C1551 C1553 1.356 . S
C1551 H1583 0.930 . S
C1552 N1549 1.279 . S
C1552 C1551 1.358 . S
C1552 H1555 0.930 . S
C1553 C1550 1.348 . S
C1553 C1551 1.356 . S
H1554 C1548 0.930 . S
H1555 C1552 0.930 . S
O1556 Li1496 1.956 . S
O1556 Li1497 1.970 . S
O1556 Li1498 1.961 . S
O1556 C1500 1.325 . S
O1557 Li1496 1.970 . S
O1557 Li1497 1.956 . S
O1557 Li1499 1.961 . S
O1557 C1506 1.325 . S
O1558 Li1496 1.961 . S
O1558 Li1498 1.956 . S
O1558 Li1499 1.970 . S
O1558 C1528 1.325 . S
O1559 Li1497 1.961 . S
O1559 Li1498 1.970 . S
O1559 Li1499 1.956 . S
O1559 C1534 1.325 . S
H1560 C1502 0.929 . S
H1561 C1503 0.930 . S
H1562 C1504 0.930 . S
H1563 C1505 0.930 . S
H1564 C1507 0.930 . S
H1565 C1509 0.929 . S
H1566 C1510 0.930 . S
H1567 C1511 0.930 . S
H1568 C1514 0.930 . S
H1569 C1517 0.929 . S
H1570 C1522 0.929 . S
H1571 C1523 0.930 . S
H1572 C1530 0.929 . S
H1573 C1531 0.930 . S
H1574 C1532 0.930 . S
H1575 C1533 0.930 . S
H1576 C1535 0.929 . S
H1577 C1536 0.930 . S
H1578 C1537 0.930 . S
H1579 C1538 0.930 . S
H1580 C1542 0.929 . S
H1581 C1544 0.930 . S
H1582 C1550 0.929 . S
H1583 C1551 0.930 . S
Li1584 N1601 1.990 . S
Li1584 O1644 1.956 . S
Li1584 O1645 1.970 . S
Li1584 O1646 1.961 1_545 S
Li1585 N1609 1.990 . S
Li1585 O1644 1.970 . S
Li1585 O1645 1.956 . S
Li1585 O1647 1.961 . S
Li1586 N1631 1.990 . S
Li1586 O1644 1.961 . S
Li1586 O1646 1.956 1_545 S
Li1586 O1647 1.970 . S
Li1587 N1637 1.990 . S
Li1587 O1645 1.961 1_565 S
Li1587 O1646 1.970 . S
Li1587 O1647 1.956 1_565 S
C1588 C1590 1.348 . S
C1588 C1591 1.356 . S
C1588 O1644 1.325 . S
N1589 C1592 1.314 . S
N1589 C1593 1.279 . S
C1590 C1588 1.348 . S
C1590 C1592 1.353 . S
C1590 H1648 0.929 . S
C1591 C1588 1.356 . S
C1591 C1593 1.358 . S
C1591 H1649 0.930 . S
C1592 N1589 1.314 . S
C1592 C1590 1.353 . S
C1592 H1650 0.930 . S
C1593 N1589 1.279 . S
C1593 C1591 1.358 . S
C1593 H1651 0.930 . S
C1594 C1597 1.348 . S
C1594 C1598 1.356 . S
C1594 O1645 1.325 . S
C1595 N1596 1.279 . S
C1595 C1598 1.358 . S
C1595 H1652 0.930 1_545 S
N1596 C1595 1.279 . S
N1596 C1599 1.314 . S
C1597 C1594 1.348 . S
C1597 C1599 1.353 . S
C1597 H1653 0.929 . S
C1598 C1594 1.356 . S
C1598 C1595 1.358 . S
C1598 H1654 0.930 1_545 S
C1599 N1596 1.314 . S
C1599 C1597 1.353 . S
C1599 H1655 0.930 . S
C1600 N1601 1.314 1_565 S
C1600 C1605 1.353 . S
C1600 H1606 0.930 . S
N1601 Li1584 1.990 . S
N1601 C1600 1.314 1_545 S
N1601 C1603 1.279 . S
C1602 C1603 1.358 . S
C1602 C1604 1.356 . S
C1602 H1656 0.930 . S
C1603 N1601 1.279 . S
C1603 C1602 1.358 . S
C1603 H1607 0.930 . S
C1604 C1602 1.356 . S
C1604 C1605 1.348 1_545 S
C1605 C1600 1.353 . S
C1605 C1604 1.348 1_565 S
C1605 H1657 0.929 . S
H1606 C1600 0.930 . S
H1607 C1603 0.930 . S
C1608 N1609 1.314 . S
C1608 C1610 1.353 . S
C1608 H1614 0.930 . S
N1609 Li1585 1.990 . S
N1609 C1608 1.314 . S
N1609 C1612 1.279 . S
C1610 C1608 1.353 . S
C1610 C1613 1.348 . S
C1610 H1658 0.929 . S
C1611 C1612 1.358 . S
C1611 C1613 1.356 . S
C1611 H1659 0.930 . S
C1612 N1609 1.279 . S
C1612 C1611 1.358 . S
C1612 H1615 0.930 . S
C1613 C1610 1.348 . S
C1613 C1611 1.356 . S
H1614 C1608 0.930 . S
H1615 C1612 0.930 . S
C1616 C1618 1.348 . S
C1616 C1619 1.356 . S
C1616 O1646 1.325 . S
N1617 C1620 1.314 . S
N1617 C1621 1.279 . S
C1618 C1616 1.348 . S
C1618 C1620 1.353 . S
C1618 H1660 0.929 . S
C1619 C1616 1.356 . S
C1619 C1621 1.358 . S
C1619 H1661 0.930 . S
C1620 N1617 1.314 . S
C1620 C1618 1.353 . S
C1620 H1662 0.930 . S
C1621 N1617 1.279 . S
C1621 C1619 1.358 . S
C1621 H1663 0.930 . S
C1622 C1623 1.357 . S
C1622 C1624 1.356 . S
C1622 O1647 1.325 . S
C1623 C1622 1.357 . S
C1623 C1625 1.353 . S
C1623 H1664 0.920 1_545 S
C1624 C1622 1.356 . S
C1624 C1626 1.358 . S
C1624 H1665 0.930 . S
C1625 C1623 1.353 . S
C1625 N1627 1.320 . S
C1625 H1666 0.924 1_545 S
C1626 C1624 1.358 . S
C1626 N1627 1.279 . S
C1626 H1667 0.930 . S
N1627 C1625 1.320 . S
N1627 C1626 1.279 . S
C1628 C1630 1.353 . S
C1628 N1631 1.314 . S
C1628 H1634 0.930 . S
C1629 N1631 1.279 1_565 S
C1629 C1632 1.358 . S
C1629 H1635 0.930 . S
C1630 C1628 1.353 . S
C1630 C1633 1.348 . S
C1630 H1668 0.929 . S
N1631 Li1586 1.990 . S
N1631 C1628 1.314 . S
N1631 C1629 1.279 1_545 S
C1632 C1629 1.358 . S
C1632 C1633 1.356 1_565 S
C1632 H1669 0.930 . S
C1633 C1630 1.348 . S
C1633 C1632 1.356 1_545 S
H1634 C1628 0.930 . S
H1635 C1629 0.930 . S
C1636 N1637 1.314 . S
C1636 C1638 1.353 . S
C1636 H1642 0.930 . S
N1637 Li1587 1.990 . S
N1637 C1636 1.314 . S
N1637 C1640 1.279 . S
C1638 C1636 1.353 . S
C1638 C1641 1.348 . S
C1638 H1670 0.929 . S
C1639 C1640 1.358 . S
C1639 C1641 1.356 . S
C1639 H1671 0.930 . S
C1640 N1637 1.279 . S
C1640 C1639 1.358 . S
C1640 H1643 0.930 . S
C1641 C1638 1.348 . S
C1641 C1639 1.356 . S
H1642 C1636 0.930 . S
H1643 C1640 0.930 . S
O1644 Li1584 1.956 . S
O1644 Li1585 1.970 . S
O1644 Li1586 1.961 . S
O1644 C1588 1.325 . S
O1645 Li1584 1.970 . S
O1645 Li1585 1.956 . S
O1645 Li1587 1.961 1_545 S
O1645 C1594 1.325 . S
O1646 Li1584 1.961 1_565 S
O1646 Li1586 1.956 1_565 S
O1646 Li1587 1.970 . S
O1646 C1616 1.325 . S
O1647 Li1585 1.961 . S
O1647 Li1586 1.970 . S
O1647 Li1587 1.956 1_545 S
O1647 C1622 1.325 . S
H1648 C1590 0.929 . S
H1649 C1591 0.930 . S
H1650 C1592 0.930 . S
H1651 C1593 0.930 . S
H1652 C1595 0.930 1_565 S
H1653 C1597 0.929 . S
H1654 C1598 0.930 1_565 S
H1655 C1599 0.930 . S
H1656 C1602 0.930 . S
H1657 C1605 0.929 . S
H1658 C1610 0.929 . S
H1659 C1611 0.930 . S
H1660 C1618 0.929 . S
H1661 C1619 0.930 . S
H1662 C1620 0.930 . S
H1663 C1621 0.930 . S
H1664 C1623 0.920 1_565 S
H1665 C1624 0.930 . S
H1666 C1625 0.924 1_565 S
H1667 C1626 0.930 . S
H1668 C1630 0.929 . S
H1669 C1632 0.930 . S
H1670 C1638 0.929 . S
H1671 C1639 0.930 . S
Li1672 N1689 1.990 . S
Li1672 O1732 1.956 . S
Li1672 O1733 1.970 . S
Li1672 O1734 1.961 1_554 S
Li1673 N1697 1.990 . S
Li1673 O1732 1.970 . S
Li1673 O1733 1.956 . S
Li1673 O1735 1.961 . S
Li1674 N1719 1.990 . S
Li1674 O1732 1.961 . S
Li1674 O1734 1.956 1_554 S
Li1674 O1735 1.970 . S
Li1675 N1725 1.990 . S
Li1675 O1733 1.961 1_556 S
Li1675 O1734 1.970 . S
Li1675 O1735 1.956 1_556 S
C1676 C1678 1.348 . S
C1676 C1679 1.356 . S
C1676 O1732 1.325 . S
N1677 C1680 1.314 . S
N1677 C1681 1.279 . S
C1678 C1676 1.348 . S
C1678 C1680 1.353 . S
C1678 H1736 0.929 . S
C1679 C1676 1.356 . S
C1679 C1681 1.358 . S
C1679 H1737 0.930 . S
C1680 N1677 1.314 . S
C1680 C1678 1.353 . S
C1680 H1738 0.930 . S
C1681 N1677 1.279 . S
C1681 C1679 1.358 . S
C1681 H1739 0.930 . S
C1682 C1685 1.348 . S
C1682 C1686 1.356 . S
C1682 O1733 1.325 . S
C1683 N1684 1.279 . S
C1683 C1686 1.358 . S
C1683 H1740 0.930 . S
N1684 C1683 1.279 . S
N1684 C1687 1.314 . S
C1685 C1682 1.348 . S
C1685 C1687 1.353 . S
C1685 H1741 0.929 . S
C1686 C1682 1.356 . S
C1686 C1683 1.358 . S
C1686 H1742 0.930 . S
C1687 N1684 1.314 . S
C1687 C1685 1.353 . S
C1687 H1743 0.930 . S
C1688 N1689 1.314 . S
C1688 C1693 1.353 . S
C1688 H1694 0.930 1_554 S
N1689 Li1672 1.990 . S
N1689 C1688 1.314 . S
N1689 C1691 1.279 . S
C1690 C1691 1.358 . S
C1690 C1692 1.356 . S
C1690 H1744 0.930 . S
C1691 N1689 1.279 . S
C1691 C1690 1.358 . S
C1691 H1695 0.930 . S
C1692 C1690 1.356 . S
C1692 C1693 1.348 . S
C1693 C1688 1.353 . S
C1693 C1692 1.348 . S
C1693 H1745 0.929 1_554 S
H1694 C1688 0.930 1_556 S
H1695 C1691 0.930 . S
C1696 N1697 1.314 . S
C1696 C1698 1.353 . S
C1696 H1702 0.930 . S
N1697 Li1673 1.990 . S
N1697 C1696 1.314 . S
N1697 C1700 1.279 . S
C1698 C1696 1.353 . S
C1698 C1701 1.348 . S
C1698 H1746 0.929 . S
C1699 C1700 1.358 . S
C1699 C1701 1.356 . S
C1699 H1747 0.930 . S
C1700 N1697 1.279 . S
C1700 C1699 1.358 . S
C1700 H1703 0.930 . S
C1701 C1698 1.348 . S
C1701 C1699 1.356 . S
H1702 C1696 0.930 . S
H1703 C1700 0.930 . S
C1704 C1706 1.348 . S
C1704 C1707 1.356 . S
C1704 O1734 1.325 . S
N1705 C1708 1.314 . S
N1705 C1709 1.279 . S
C1706 C1704 1.348 . S
C1706 C1708 1.353 . S
C1706 H1748 0.929 . S
C1707 C1704 1.356 . S
C1707 C1709 1.358 . S
C1707 H1749 0.930 . S
C1708 N1705 1.314 . S
C1708 C1706 1.353 . S
C1708 H1750 0.930 . S
C1709 N1705 1.279 . S
C1709 C1707 1.358 . S
C1709 H1751 0.930 . S
C1710 C1711 1.348 . S
C1710 C1712 1.356 . S
C1710 O1735 1.325 . S
C1711 C1710 1.348 . S
C1711 C1713 1.353 . S
C1711 H1752 0.929 . S
C1712 C1710 1.356 . S
C1712 C1714 1.358 . S
C1712 H1753 0.930 . S
C1713 C1711 1.353 . S
C1713 N1715 1.314 . S
C1713 H1754 0.930 . S
C1714 C1712 1.358 . S
C1714 N1715 1.279 . S
C1714 H1755 0.930 . S
N1715 C1713 1.314 . S
N1715 C1714 1.279 . S
C1716 C1718 1.353 . S
C1716 N1719 1.314 . S
C1716 H1722 0.930 . S
C1717 N1719 1.279 . S
C1717 C1720 1.359 1_554 S
C1717 H1723 0.930 1_554 S
C1718 C1716 1.353 . S
C1718 C1721 1.348 . S
C1718 H1756 0.929 . S
N1719 Li1674 1.990 . S
N1719 C1716 1.314 . S
N1719 C1717 1.279 . S
C1720 C1717 1.359 1_556 S
C1720 C1721 1.359 1_556 S
C1720 H1757 0.926 . S
C1721 C1718 1.348 . S
C1721 C1720 1.359 1_554 S
H1722 C1716 0.930 . S
H1723 C1717 0.930 1_556 S
C1724 N1725 1.314 . S
C1724 C1726 1.353 . S
C1724 H1730 0.930 . S
N1725 Li1675 1.990 . S
N1725 C1724 1.314 . S
N1725 C1728 1.279 . S
C1726 C1724 1.353 . S
C1726 C1729 1.348 . S
C1726 H1758 0.929 . S
C1727 C1728 1.358 . S
C1727 C1729 1.356 . S
C1727 H1759 0.930 . S
C1728 N1725 1.279 . S
C1728 C1727 1.358 . S
C1728 H1731 0.930 . S
C1729 C1726 1.348 . S
C1729 C1727 1.356 . S
H1730 C1724 0.930 . S
H1731 C1728 0.930 . S
O1732 Li1672 1.956 . S
O1732 Li1673 1.970 . S
O1732 Li1674 1.961 . S
O1732 C1676 1.325 . S
O1733 Li1672 1.970 . S
O1733 Li1673 1.956 . S
O1733 Li1675 1.961 1_554 S
O1733 C1682 1.325 . S
O1734 Li1672 1.961 1_556 S
O1734 Li1674 1.956 1_556 S
O1734 Li1675 1.970 . S
O1734 C1704 1.325 . S
O1735 Li1673 1.961 . S
O1735 Li1674 1.970 . S
O1735 Li1675 1.956 1_554 S
O1735 C1710 1.325 . S
H1736 C1678 0.929 . S
H1737 C1679 0.930 . S
H1738 C1680 0.930 . S
H1739 C1681 0.930 . S
H1740 C1683 0.930 . S
H1741 C1685 0.929 . S
H1742 C1686 0.930 . S
H1743 C1687 0.930 . S
H1744 C1690 0.930 . S
H1745 C1693 0.929 1_556 S
H1746 C1698 0.929 . S
H1747 C1699 0.930 . S
H1748 C1706 0.929 . S
H1749 C1707 0.930 . S
H1750 C1708 0.930 . S
H1751 C1709 0.930 . S
H1752 C1711 0.929 . S
H1753 C1712 0.930 . S
H1754 C1713 0.930 . S
H1755 C1714 0.930 . S
H1756 C1718 0.929 . S
H1757 C1720 0.926 . S
H1758 C1726 0.929 . S
H1759 C1727 0.930 . S
Li1760 N1777 1.990 . S
Li1760 O1820 1.956 1_554 S
Li1760 O1821 1.970 . S
Li1760 O1822 1.961 . S
Li1761 N1785 1.990 . S
Li1761 O1820 1.970 1_554 S
Li1761 O1821 1.971 . S
Li1761 O1823 1.944 1_554 S
Li1762 N1807 1.990 . S
Li1762 O1820 1.961 . S
Li1762 O1822 1.956 1_556 S
Li1762 O1823 1.970 . S
Li1763 N1813 1.991 . S
Li1763 O1821 1.961 . S
Li1763 O1822 1.970 . S
Li1763 O1823 1.956 1_554 S
C1764 C1766 1.348 1_556 S
C1764 C1767 1.356 . S
C1764 O1820 1.325 . S
N1765 C1768 1.309 1_556 S
N1765 C1769 1.286 . S
C1766 C1764 1.348 1_554 S
C1766 C1768 1.353 . S
C1766 H1824 0.929 . S
C1767 C1764 1.356 . S
C1767 C1769 1.358 . S
C1767 H1825 0.930 . S
C1768 N1765 1.309 1_554 S
C1768 C1766 1.353 . S
C1768 H1826 0.930 . S
C1769 N1765 1.286 . S
C1769 C1767 1.358 . S
C1769 H1827 0.930 . S
C1770 C1773 1.348 . S
C1770 C1774 1.356 . S
C1770 O1821 1.325 . S
C1771 N1772 1.279 . S
C1771 C1774 1.358 . S
C1771 H1828 0.930 . S
N1772 C1771 1.279 . S
N1772 C1775 1.314 . S
C1773 C1770 1.348 . S
C1773 C1775 1.353 . S
C1773 H1829 0.929 . S
C1774 C1770 1.356 . S
C1774 C1771 1.358 . S
C1774 H1830 0.930 . S
C1775 N1772 1.314 . S
C1775 C1773 1.353 . S
C1775 H1831 0.930 . S
C1776 N1777 1.314 . S
C1776 C1781 1.353 . S
C1776 H1782 0.930 . S
N1777 Li1760 1.990 . S
N1777 C1776 1.314 . S
N1777 C1779 1.279 . S
C1778 C1779 1.358 . S
C1778 C1780 1.356 . S
C1778 H1832 0.930 . S
C1779 N1777 1.279 . S
C1779 C1778 1.358 . S
C1779 H1783 0.930 . S
C1780 C1778 1.356 . S
C1780 C1781 1.348 . S
C1781 C1776 1.353 . S
C1781 C1780 1.348 . S
C1781 H1833 0.929 . S
H1782 C1776 0.930 . S
H1783 C1779 0.930 . S
C1784 N1785 1.295 1_556 S
C1784 C1786 1.353 . S
C1784 H1790 0.930 . S
N1785 Li1761 1.990 . S
N1785 C1784 1.295 1_554 S
N1785 C1788 1.299 . S
C1786 C1784 1.353 . S
C1786 C1789 1.348 . S
C1786 H1834 0.929 . S
C1787 C1788 1.358 . S
C1787 C1789 1.356 1_554 S
C1787 H1835 0.930 . S
C1788 N1785 1.299 . S
C1788 C1787 1.358 . S
C1788 H1791 0.930 . S
C1789 C1786 1.348 . S
C1789 C1787 1.356 1_556 S
H1790 C1784 0.930 . S
H1791 C1788 0.930 . S
C1792 C1794 1.337 1_554 S
C1792 C1795 1.363 . S
C1792 O1822 1.327 . S
N1793 C1796 1.321 . S
N1793 C1797 1.272 1_556 S
C1794 C1792 1.337 1_556 S
C1794 C1796 1.353 . S
C1794 H1836 0.929 . S
C1795 C1792 1.363 . S
C1795 C1797 1.358 . S
C1795 H1837 0.930 . S
C1796 N1793 1.321 . S
C1796 C1794 1.353 . S
C1796 H1838 0.930 . S
C1797 N1793 1.272 1_554 S
C1797 C1795 1.358 . S
C1797 H1839 0.930 . S
C1798 C1799 1.348 . S
C1798 C1800 1.356 . S
C1798 O1823 1.325 . S
C1799 C1798 1.348 . S
C1799 C1801 1.353 . S
C1799 H1840 0.929 . S
C1800 C1798 1.356 . S
C1800 C1802 1.358 . S
C1800 H1841 0.930 . S
C1801 C1799 1.353 . S
C1801 N1803 1.314 . S
C1801 H1842 0.930 . S
C1802 C1800 1.358 . S
C1802 N1803 1.279 . S
C1802 H1843 0.930 . S
N1803 C1801 1.314 . S
N1803 C1802 1.279 . S
C1804 C1806 1.353 . S
C1804 N1807 1.314 . S
C1804 H1810 0.930 . S
C1805 N1807 1.279 . S
C1805 C1808 1.358 . S
C1805 H1811 0.930 . S
C1806 C1804 1.353 . S
C1806 C1809 1.348 . S
C1806 H1844 0.929 . S
N1807 Li1762 1.990 . S
N1807 C1804 1.314 . S
N1807 C1805 1.279 . S
C1808 C1805 1.358 . S
C1808 C1809 1.356 . S
C1808 H1845 0.930 . S
C1809 C1806 1.348 . S
C1809 C1808 1.356 . S
H1810 C1804 0.930 . S
H1811 C1805 0.930 . S
C1812 N1813 1.334 . S
C1812 C1814 1.353 . S
C1812 H1818 0.930 . S
N1813 Li1763 1.991 . S
N1813 C1812 1.334 . S
N1813 C1816 1.260 1_554 S
C1814 C1812 1.353 . S
C1814 C1817 1.348 . S
C1814 H1846 0.929 . S
C1815 C1816 1.358 . S
C1815 C1817 1.356 1_556 S
C1815 H1847 0.930 . S
C1816 N1813 1.260 1_556 S
C1816 C1815 1.358 . S
C1816 H1819 0.930 . S
C1817 C1814 1.348 . S
C1817 C1815 1.356 1_554 S
H1818 C1812 0.930 . S
H1819 C1816 0.930 . S
O1820 Li1760 1.956 1_556 S
O1820 Li1761 1.970 1_556 S
O1820 Li1762 1.961 . S
O1820 C1764 1.325 . S
O1821 Li1760 1.970 . S
O1821 Li1761 1.971 . S
O1821 Li1763 1.961 . S
O1821 C1770 1.325 . S
O1822 Li1760 1.961 . S
O1822 Li1762 1.956 1_554 S
O1822 Li1763 1.970 . S
O1822 C1792 1.327 . S
O1823 Li1761 1.944 1_556 S
O1823 Li1762 1.970 . S
O1823 Li1763 1.956 1_556 S
O1823 C1798 1.325 . S
H1824 C1766 0.929 . S
H1825 C1767 0.930 . S
H1826 C1768 0.930 . S
H1827 C1769 0.930 . S
H1828 C1771 0.930 . S
H1829 C1773 0.929 . S
H1830 C1774 0.930 . S
H1831 C1775 0.930 . S
H1832 C1778 0.930 . S
H1833 C1781 0.929 . S
H1834 C1786 0.929 . S
H1835 C1787 0.930 . S
H1836 C1794 0.929 . S
H1837 C1795 0.930 . S
H1838 C1796 0.930 . S
H1839 C1797 0.930 . S
H1840 C1799 0.929 . S
H1841 C1800 0.930 . S
H1842 C1801 0.930 . S
H1843 C1802 0.930 . S
H1844 C1806 0.929 . S
H1845 C1808 0.930 . S
H1846 C1814 0.929 . S
H1847 C1815 0.930 . S
Li1848 N1865 1.990 . S
Li1848 O1908 1.956 . S
Li1848 O1909 1.970 . S
Li1848 O1910 1.961 . S
Li1849 N1873 1.990 . S
Li1849 O1908 1.970 . S
Li1849 O1909 1.956 . S
Li1849 O1911 1.961 . S
Li1850 N1895 1.990 . S
Li1850 O1908 1.961 . S
Li1850 O1910 1.956 . S
Li1850 O1911 1.970 . S
Li1851 N1901 1.990 . S
Li1851 O1909 1.961 . S
Li1851 O1910 1.970 . S
Li1851 O1911 1.956 . S
C1852 C1854 1.348 . S
C1852 C1855 1.356 . S
C1852 O1908 1.325 . S
N1853 C1856 1.314 . S
N1853 C1857 1.279 . S
C1854 C1852 1.348 . S
C1854 C1856 1.353 . S
C1854 H1912 0.929 . S
C1855 C1852 1.356 . S
C1855 C1857 1.358 . S
C1855 H1913 0.930 . S
C1856 N1853 1.314 . S
C1856 C1854 1.353 . S
C1856 H1914 0.930 . S
C1857 N1853 1.279 . S
C1857 C1855 1.358 . S
C1857 H1915 0.930 . S
C1858 C1861 1.348 . S
C1858 C1862 1.356 . S
C1858 O1909 1.325 . S
C1859 N1860 1.279 . S
C1859 C1862 1.358 . S
C1859 H1916 0.930 . S
N1860 C1859 1.279 . S
N1860 C1863 1.314 . S
C1861 C1858 1.348 . S
C1861 C1863 1.353 . S
C1861 H1917 0.929 . S
C1862 C1858 1.356 . S
C1862 C1859 1.358 . S
C1862 H1918 0.930 . S
C1863 N1860 1.314 . S
C1863 C1861 1.353 . S
C1863 H1919 0.930 . S
C1864 N1865 1.314 . S
C1864 C1869 1.353 . S
C1864 H1870 0.930 . S
N1865 Li1848 1.990 . S
N1865 C1864 1.314 . S
N1865 C1867 1.279 . S
C1866 C1867 1.358 . S
C1866 C1868 1.356 . S
C1866 H1920 0.930 . S
C1867 N1865 1.279 . S
C1867 C1866 1.358 . S
C1867 H1871 0.930 . S
C1868 C1866 1.356 . S
C1868 C1869 1.348 . S
C1869 C1864 1.353 . S
C1869 C1868 1.348 . S
C1869 H1921 0.929 . S
H1870 C1864 0.930 . S
H1871 C1867 0.930 . S
C1872 N1873 1.314 . S
C1872 C1874 1.353 . S
C1872 H1878 0.930 . S
N1873 Li1849 1.990 . S
N1873 C1872 1.314 . S
N1873 C1876 1.279 . S
C1874 C1872 1.353 . S
C1874 C1877 1.348 . S
C1874 H1922 0.929 . S
C1875 C1876 1.358 . S
C1875 C1877 1.356 . S
C1875 H1923 0.930 . S
C1876 N1873 1.279 . S
C1876 C1875 1.358 . S
C1876 H1879 0.930 . S
C1877 C1874 1.348 . S
C1877 C1875 1.356 . S
H1878 C1872 0.930 . S
H1879 C1876 0.930 . S
C1880 C1882 1.348 . S
C1880 C1883 1.356 . S
C1880 O1910 1.325 . S
N1881 C1884 1.314 . S
N1881 C1885 1.279 . S
C1882 C1880 1.348 . S
C1882 C1884 1.353 . S
C1882 H1924 0.929 . S
C1883 C1880 1.356 . S
C1883 C1885 1.358 . S
C1883 H1925 0.930 . S
C1884 N1881 1.314 . S
C1884 C1882 1.353 . S
C1884 H1926 0.930 . S
C1885 N1881 1.279 . S
C1885 C1883 1.358 . S
C1885 H1927 0.930 . S
C1886 C1887 1.348 . S
C1886 C1888 1.356 . S
C1886 O1911 1.325 . S
C1887 C1886 1.348 . S
C1887 C1889 1.353 . S
C1887 H1928 0.929 . S
C1888 C1886 1.356 . S
C1888 C1890 1.358 . S
C1888 H1929 0.930 . S
C1889 C1887 1.353 . S
C1889 N1891 1.314 . S
C1889 H1930 0.930 . S
C1890 C1888 1.358 . S
C1890 N1891 1.279 . S
C1890 H1931 0.930 . S
N1891 C1889 1.314 . S
N1891 C1890 1.279 . S
C1892 C1894 1.353 . S
C1892 N1895 1.314 . S
C1892 H1898 0.930 . S
C1893 N1895 1.279 . S
C1893 C1896 1.358 . S
C1893 H1899 0.930 . S
C1894 C1892 1.353 . S
C1894 C1897 1.348 . S
C1894 H1932 0.929 . S
N1895 Li1850 1.990 . S
N1895 C1892 1.314 . S
N1895 C1893 1.279 . S
C1896 C1893 1.358 . S
C1896 C1897 1.356 . S
C1896 H1933 0.930 . S
C1897 C1894 1.348 . S
C1897 C1896 1.356 . S
H1898 C1892 0.930 . S
H1899 C1893 0.930 . S
C1900 N1901 1.314 . S
C1900 C1902 1.353 . S
C1900 H1906 0.930 . S
N1901 Li1851 1.990 . S
N1901 C1900 1.314 . S
N1901 C1904 1.279 . S
C1902 C1900 1.353 . S
C1902 C1905 1.348 . S
C1902 H1934 0.929 . S
C1903 C1904 1.358 . S
C1903 C1905 1.356 . S
C1903 H1935 0.930 . S
C1904 N1901 1.279 . S
C1904 C1903 1.358 . S
C1904 H1907 0.930 . S
C1905 C1902 1.348 . S
C1905 C1903 1.356 . S
H1906 C1900 0.930 . S
H1907 C1904 0.930 . S
O1908 Li1848 1.956 . S
O1908 Li1849 1.970 . S
O1908 Li1850 1.961 . S
O1908 C1852 1.325 . S
O1909 Li1848 1.970 . S
O1909 Li1849 1.956 . S
O1909 Li1851 1.961 . S
O1909 C1858 1.325 . S
O1910 Li1848 1.961 . S
O1910 Li1850 1.956 . S
O1910 Li1851 1.970 . S
O1910 C1880 1.325 . S
O1911 Li1849 1.961 . S
O1911 Li1850 1.970 . S
O1911 Li1851 1.956 . S
O1911 C1886 1.325 . S
H1912 C1854 0.929 . S
H1913 C1855 0.930 . S
H1914 C1856 0.930 . S
H1915 C1857 0.930 . S
H1916 C1859 0.930 . S
H1917 C1861 0.929 . S
H1918 C1862 0.930 . S
H1919 C1863 0.930 . S
H1920 C1866 0.930 . S
H1921 C1869 0.929 . S
H1922 C1874 0.929 . S
H1923 C1875 0.930 . S
H1924 C1882 0.929 . S
H1925 C1883 0.930 . S
H1926 C1884 0.930 . S
H1927 C1885 0.930 . S
H1928 C1887 0.929 . S
H1929 C1888 0.930 . S
H1930 C1889 0.930 . S
H1931 C1890 0.930 . S
H1932 C1894 0.929 . S
H1933 C1896 0.930 . S
H1934 C1902 0.929 . S
H1935 C1903 0.930 . S
Li1936 N1953 1.990 . S
Li1936 O1996 1.956 . S
Li1936 O1997 1.970 . S
Li1936 O1998 1.961 . S
Li1937 N1961 1.990 . S
Li1937 O1996 1.970 . S
Li1937 O1997 1.956 . S
Li1937 O1999 1.961 . S
Li1938 N1983 1.990 . S
Li1938 O1996 1.961 . S
Li1938 O1998 1.956 . S
Li1938 O1999 1.970 . S
Li1939 N1989 1.990 . S
Li1939 O1997 1.961 . S
Li1939 O1998 1.970 . S
Li1939 O1999 1.956 . S
C1940 C1942 1.348 . S
C1940 C1943 1.356 . S
C1940 O1996 1.325 . S
N1941 C1944 1.314 . S
N1941 C1945 1.279 . S
C1942 C1940 1.348 . S
C1942 C1944 1.353 . S
C1942 H2000 0.929 . S
C1943 C1940 1.356 . S
C1943 C1945 1.358 . S
C1943 H2001 0.930 . S
C1944 N1941 1.314 . S
C1944 C1942 1.353 . S
C1944 H2002 0.930 . S
C1945 N1941 1.279 . S
C1945 C1943 1.358 . S
C1945 H2003 0.930 . S
C1946 C1949 1.348 . S
C1946 C1950 1.356 . S
C1946 O1997 1.325 . S
C1947 N1948 1.279 . S
C1947 C1950 1.358 . S
C1947 H2004 0.930 . S
N1948 C1947 1.279 . S
N1948 C1951 1.314 . S
C1949 C1946 1.348 . S
C1949 C1951 1.353 . S
C1949 H2005 0.929 . S
C1950 C1946 1.356 . S
C1950 C1947 1.358 . S
C1950 H2006 0.930 . S
C1951 N1948 1.314 . S
C1951 C1949 1.353 . S
C1951 H2007 0.930 . S
C1952 N1953 1.314 . S
C1952 C1957 1.353 . S
C1952 H1958 0.930 . S
N1953 Li1936 1.990 . S
N1953 C1952 1.314 . S
N1953 C1955 1.279 . S
C1954 C1955 1.358 . S
C1954 C1956 1.356 . S
C1954 H2008 0.930 . S
C1955 N1953 1.279 . S
C1955 C1954 1.358 . S
C1955 H1959 0.930 . S
C1956 C1954 1.356 . S
C1956 C1957 1.348 . S
C1957 C1952 1.353 . S
C1957 C1956 1.348 . S
C1957 H2009 0.929 . S
H1958 C1952 0.930 . S
H1959 C1955 0.930 . S
C1960 N1961 1.314 . S
C1960 C1962 1.353 . S
C1960 H1966 0.930 . S
N1961 Li1937 1.990 . S
N1961 C1960 1.314 . S
N1961 C1964 1.279 . S
C1962 C1960 1.353 . S
C1962 C1965 1.348 . S
C1962 H2010 0.929 . S
C1963 C1964 1.358 . S
C1963 C1965 1.356 . S
C1963 H2011 0.930 . S
C1964 N1961 1.279 . S
C1964 C1963 1.358 . S
C1964 H1967 0.930 . S
C1965 C1962 1.348 . S
C1965 C1963 1.356 . S
H1966 C1960 0.930 . S
H1967 C1964 0.930 . S
C1968 C1970 1.348 . S
C1968 C1971 1.356 . S
C1968 O1998 1.325 . S
N1969 C1972 1.314 . S
N1969 C1973 1.279 . S
C1970 C1968 1.348 . S
C1970 C1972 1.353 . S
C1970 H2012 0.929 . S
C1971 C1968 1.356 . S
C1971 C1973 1.358 . S
C1971 H2013 0.930 . S
C1972 N1969 1.314 . S
C1972 C1970 1.353 . S
C1972 H2014 0.930 . S
C1973 N1969 1.279 . S
C1973 C1971 1.358 . S
C1973 H2015 0.930 . S
C1974 C1975 1.348 . S
C1974 C1976 1.356 . S
C1974 O1999 1.325 . S
C1975 C1974 1.348 . S
C1975 C1977 1.353 . S
C1975 H2016 0.929 . S
C1976 C1974 1.356 . S
C1976 C1978 1.358 . S
C1976 H2017 0.930 . S
C1977 C1975 1.353 . S
C1977 N1979 1.314 . S
C1977 H2018 0.930 . S
C1978 C1976 1.358 . S
C1978 N1979 1.279 . S
C1978 H2019 0.930 . S
N1979 C1977 1.314 . S
N1979 C1978 1.279 . S
C1980 C1982 1.353 . S
C1980 N1983 1.314 . S
C1980 H1986 0.930 . S
C1981 N1983 1.279 . S
C1981 C1984 1.358 . S
C1981 H1987 0.930 . S
C1982 C1980 1.353 . S
C1982 C1985 1.348 . S
C1982 H2020 0.929 . S
N1983 Li1938 1.990 . S
N1983 C1980 1.314 . S
N1983 C1981 1.279 . S
C1984 C1981 1.358 . S
C1984 C1985 1.356 . S
C1984 H2021 0.930 . S
C1985 C1982 1.348 . S
C1985 C1984 1.356 . S
H1986 C1980 0.930 . S
H1987 C1981 0.930 . S
C1988 N1989 1.314 . S
C1988 C1990 1.353 . S
C1988 H1994 0.930 . S
N1989 Li1939 1.990 . S
N1989 C1988 1.314 . S
N1989 C1992 1.279 . S
C1990 C1988 1.353 . S
C1990 C1993 1.348 . S
C1990 H2022 0.929 . S
C1991 C1992 1.358 . S
C1991 C1993 1.356 . S
C1991 H2023 0.930 . S
C1992 N1989 1.279 . S
C1992 C1991 1.358 . S
C1992 H1995 0.930 . S
C1993 C1990 1.348 . S
C1993 C1991 1.356 . S
H1994 C1988 0.930 . S
H1995 C1992 0.930 . S
O1996 Li1936 1.956 . S
O1996 Li1937 1.970 . S
O1996 Li1938 1.961 . S
O1996 C1940 1.325 . S
O1997 Li1936 1.970 . S
O1997 Li1937 1.956 . S
O1997 Li1939 1.961 . S
O1997 C1946 1.325 . S
O1998 Li1936 1.961 . S
O1998 Li1938 1.956 . S
O1998 Li1939 1.970 . S
O1998 C1968 1.325 . S
O1999 Li1937 1.961 . S
O1999 Li1938 1.970 . S
O1999 Li1939 1.956 . S
O1999 C1974 1.325 . S
H2000 C1942 0.929 . S
H2001 C1943 0.930 . S
H2002 C1944 0.930 . S
H2003 C1945 0.930 . S
H2004 C1947 0.930 . S
H2005 C1949 0.929 . S
H2006 C1950 0.930 . S
H2007 C1951 0.930 . S
H2008 C1954 0.930 . S
H2009 C1957 0.929 . S
H2010 C1962 0.929 . S
H2011 C1963 0.930 . S
H2012 C1970 0.929 . S
H2013 C1971 0.930 . S
H2014 C1972 0.930 . S
H2015 C1973 0.930 . S
H2016 C1975 0.929 . S
H2017 C1976 0.930 . S
H2018 C1977 0.930 . S
H2019 C1978 0.930 . S
H2020 C1982 0.929 . S
H2021 C1984 0.930 . S
H2022 C1990 0.929 . S
H2023 C1991 0.930 . S
Li2024 N2041 1.990 . S
Li2024 O2084 1.956 . S
Li2024 O2085 1.970 . S
Li2024 O2086 1.961 . S
Li2025 N2049 1.990 . S
Li2025 O2084 1.970 . S
Li2025 O2085 1.956 . S
Li2025 O2087 1.961 . S
Li2026 N2071 1.990 . S
Li2026 O2084 1.961 . S
Li2026 O2086 1.956 . S
Li2026 O2087 1.970 . S
Li2027 N2077 1.990 . S
Li2027 O2085 1.961 . S
Li2027 O2086 1.970 . S
Li2027 O2087 1.956 . S
C2028 C2030 1.348 . S
C2028 C2031 1.356 . S
C2028 O2084 1.325 . S
N2029 C2032 1.314 . S
N2029 C2033 1.279 . S
C2030 C2028 1.348 . S
C2030 C2032 1.353 . S
C2030 H2088 0.929 . S
C2031 C2028 1.356 . S
C2031 C2033 1.358 . S
C2031 H2089 0.930 . S
C2032 N2029 1.314 . S
C2032 C2030 1.353 . S
C2032 H2090 0.930 . S
C2033 N2029 1.279 . S
C2033 C2031 1.358 . S
C2033 H2091 0.930 . S
C2034 C2037 1.348 . S
C2034 C2038 1.356 . S
C2034 O2085 1.325 . S
C2035 N2036 1.279 . S
C2035 C2038 1.358 . S
C2035 H2092 0.930 . S
N2036 C2035 1.279 . S
N2036 C2039 1.314 . S
C2037 C2034 1.348 . S
C2037 C2039 1.353 . S
C2037 H2093 0.929 . S
C2038 C2034 1.356 . S
C2038 C2035 1.358 . S
C2038 H2094 0.930 . S
C2039 N2036 1.314 . S
C2039 C2037 1.353 . S
C2039 H2095 0.930 . S
C2040 N2041 1.314 . S
C2040 C2045 1.353 . S
C2040 H2046 0.930 . S
N2041 Li2024 1.990 . S
N2041 C2040 1.314 . S
N2041 C2043 1.279 . S
C2042 C2043 1.358 . S
C2042 C2044 1.356 . S
C2042 H2096 0.930 . S
C2043 N2041 1.279 . S
C2043 C2042 1.358 . S
C2043 H2047 0.930 . S
C2044 C2042 1.356 . S
C2044 C2045 1.348 . S
C2045 C2040 1.353 . S
C2045 C2044 1.348 . S
C2045 H2097 0.929 . S
H2046 C2040 0.930 . S
H2047 C2043 0.930 . S
C2048 N2049 1.314 . S
C2048 C2050 1.353 . S
C2048 H2054 0.930 . S
N2049 Li2025 1.990 . S
N2049 C2048 1.314 . S
N2049 C2052 1.279 . S
C2050 C2048 1.353 . S
C2050 C2053 1.348 . S
C2050 H2098 0.929 . S
C2051 C2052 1.358 . S
C2051 C2053 1.356 . S
C2051 H2099 0.930 . S
C2052 N2049 1.279 . S
C2052 C2051 1.358 . S
C2052 H2055 0.930 . S
C2053 C2050 1.348 . S
C2053 C2051 1.356 . S
H2054 C2048 0.930 . S
H2055 C2052 0.930 . S
C2056 C2058 1.348 . S
C2056 C2059 1.356 . S
C2056 O2086 1.325 . S
N2057 C2060 1.314 . S
N2057 C2061 1.279 . S
C2058 C2056 1.348 . S
C2058 C2060 1.353 . S
C2058 H2100 0.929 . S
C2059 C2056 1.356 . S
C2059 C2061 1.358 . S
C2059 H2101 0.930 . S
C2060 N2057 1.314 . S
C2060 C2058 1.353 . S
C2060 H2102 0.930 . S
C2061 N2057 1.279 . S
C2061 C2059 1.358 . S
C2061 H2103 0.930 . S
C2062 C2063 1.348 . S
C2062 C2064 1.356 . S
C2062 O2087 1.325 . S
C2063 C2062 1.348 . S
C2063 C2065 1.353 . S
C2063 H2104 0.929 . S
C2064 C2062 1.356 . S
C2064 C2066 1.358 . S
C2064 H2105 0.930 . S
C2065 C2063 1.353 . S
C2065 N2067 1.314 . S
C2065 H2106 0.930 . S
C2066 C2064 1.358 . S
C2066 N2067 1.279 . S
C2066 H2107 0.930 . S
N2067 C2065 1.314 . S
N2067 C2066 1.279 . S
C2068 C2070 1.353 . S
C2068 N2071 1.314 . S
C2068 H2074 0.930 . S
C2069 N2071 1.279 . S
C2069 C2072 1.358 . S
C2069 H2075 0.930 . S
C2070 C2068 1.353 . S
C2070 C2073 1.348 . S
C2070 H2108 0.929 . S
N2071 Li2026 1.990 . S
N2071 C2068 1.314 . S
N2071 C2069 1.279 . S
C2072 C2069 1.358 . S
C2072 C2073 1.356 . S
C2072 H2109 0.930 . S
C2073 C2070 1.348 . S
C2073 C2072 1.356 . S
H2074 C2068 0.930 . S
H2075 C2069 0.930 . S
C2076 N2077 1.314 . S
C2076 C2078 1.353 . S
C2076 H2082 0.930 . S
N2077 Li2027 1.990 . S
N2077 C2076 1.314 . S
N2077 C2080 1.279 . S
C2078 C2076 1.353 . S
C2078 C2081 1.348 . S
C2078 H2110 0.929 . S
C2079 C2080 1.358 . S
C2079 C2081 1.356 . S
C2079 H2111 0.930 . S
C2080 N2077 1.279 . S
C2080 C2079 1.358 . S
C2080 H2083 0.930 . S
C2081 C2078 1.348 . S
C2081 C2079 1.356 . S
H2082 C2076 0.930 . S
H2083 C2080 0.930 . S
O2084 Li2024 1.956 . S
O2084 Li2025 1.970 . S
O2084 Li2026 1.961 . S
O2084 C2028 1.325 . S
O2085 Li2024 1.970 . S
O2085 Li2025 1.956 . S
O2085 Li2027 1.961 . S
O2085 C2034 1.325 . S
O2086 Li2024 1.961 . S
O2086 Li2026 1.956 . S
O2086 Li2027 1.970 . S
O2086 C2056 1.325 . S
O2087 Li2025 1.961 . S
O2087 Li2026 1.970 . S
O2087 Li2027 1.956 . S
O2087 C2062 1.325 . S
H2088 C2030 0.929 . S
H2089 C2031 0.930 . S
H2090 C2032 0.930 . S
H2091 C2033 0.930 . S
H2092 C2035 0.930 . S
H2093 C2037 0.929 . S
H2094 C2038 0.930 . S
H2095 C2039 0.930 . S
H2096 C2042 0.930 . S
H2097 C2045 0.929 . S
H2098 C2050 0.929 . S
H2099 C2051 0.930 . S
H2100 C2058 0.929 . S
H2101 C2059 0.930 . S
H2102 C2060 0.930 . S
H2103 C2061 0.930 . S
H2104 C2063 0.929 . S
H2105 C2064 0.930 . S
H2106 C2065 0.930 . S
H2107 C2066 0.930 . S
H2108 C2070 0.929 . S
H2109 C2072 0.930 . S
H2110 C2078 0.929 . S
H2111 C2079 0.930 . S
Co2112 N2117 2.029 1_554 S
Co2112 O2129 2.010 1_554 S
Co2112 O2132 2.072 1_455 S
Co2112 O2136 2.138 . S
Co2112 O2137 2.020 . S
C2113 O2133 1.259 . S
C2113 O2136 1.258 . S
Co2114 N2123 2.057 . S
Co2114 O2130 2.117 1_545 S
Co2114 O2131 2.020 1_455 S
Co2114 O2133 2.021 . S
Co2114 O2138 2.062 . S
C2115 N2117 1.315 1_655 S
C2115 N2118 1.349 . S
C2115 H2120 0.930 1_655 S
C2116 N2117 1.375 1_655 S
C2116 C2119 1.350 . S
C2116 H2121 0.930 . S
N2117 Co2112 2.029 1_556 S
N2117 C2115 1.315 1_455 S
N2117 C2116 1.375 1_455 S
N2118 C2115 1.349 . S
N2118 C2119 1.373 . S
C2119 C2116 1.350 . S
C2119 N2118 1.373 . S
C2119 H2140 0.931 . S
H2120 C2115 0.930 1_455 S
H2121 C2116 0.930 . S
C2122 O2129 1.259 1_564 S
C2122 O2130 1.258 . S
N2123 Co2114 2.057 . S
N2123 C2124 1.316 . S
N2123 C2125 1.375 1_545 S
C2124 N2123 1.316 . S
C2124 N2126 1.347 . S
C2124 H2135 0.931 . S
C2125 N2123 1.375 1_565 S
C2125 C2127 1.350 . S
C2125 H2134 0.930 . S
N2126 C2124 1.347 . S
N2126 C2127 1.373 1_545 S
C2127 C2125 1.350 . S
C2127 N2126 1.373 1_565 S
C2127 H2141 0.931 . S
C2128 O2131 1.256 . S
C2128 O2132 1.255 . S
O2129 Co2112 2.010 1_556 S
O2129 C2122 1.259 1_546 S
O2130 Co2114 2.117 1_565 S
O2130 C2122 1.258 . S
O2131 Co2114 2.020 1_655 S
O2131 C2128 1.256 . S
O2132 Co2112 2.072 1_655 S
O2132 C2128 1.255 . S
O2133 C2113 1.259 . S
O2133 Co2114 2.021 . S
H2134 C2125 0.930 . S
H2135 C2124 0.931 . S
O2136 Co2112 2.138 . S
O2136 C2113 1.258 . S
O2137 Co2112 2.020 . S
O2137 C2139 1.269 . S
O2138 Co2114 2.062 . S
O2138 C2139 1.255 . S
C2139 O2137 1.269 . S
C2139 O2138 1.255 . S
H2140 C2119 0.931 . S
H2141 C2127 0.931 . S
Co2142 N2147 2.057 . S
Co2142 O2159 2.021 . S
Co2142 O2162 2.062 . S
Co2142 O2166 2.117 . S
Co2142 O2167 2.020 . S
C2143 O2163 1.259 . S
C2143 O2166 1.258 . S
Co2144 N2153 2.057 . S
Co2144 O2160 2.117 . S
Co2144 O2161 2.020 . S
Co2144 O2163 2.021 . S
Co2144 O2168 2.062 . S
C2145 N2147 1.316 . S
C2145 N2148 1.347 . S
C2145 H2150 0.931 . S
C2146 N2147 1.375 . S
C2146 C2149 1.350 . S
C2146 H2151 0.930 . S
N2147 Co2142 2.057 . S
N2147 C2145 1.316 . S
N2147 C2146 1.375 . S
N2148 C2145 1.347 . S
N2148 C2149 1.373 . S
C2149 C2146 1.350 . S
C2149 N2148 1.373 . S
C2149 H2170 0.931 . S
H2150 C2145 0.931 . S
H2151 C2146 0.930 . S
C2152 O2159 1.259 . S
C2152 O2160 1.258 . S
N2153 Co2144 2.057 . S
N2153 C2154 1.316 . S
N2153 C2155 1.375 . S
C2154 N2153 1.316 . S
C2154 N2156 1.347 . S
C2154 H2165 0.931 . S
C2155 N2153 1.375 . S
C2155 C2157 1.350 . S
C2155 H2164 0.930 . S
N2156 C2154 1.347 . S
N2156 C2157 1.373 . S
C2157 C2155 1.350 . S
C2157 N2156 1.373 . S
C2157 H2171 0.931 . S
C2158 O2161 1.256 . S
C2158 O2162 1.255 . S
O2159 Co2142 2.021 . S
O2159 C2152 1.259 . S
O2160 Co2144 2.117 . S
O2160 C2152 1.258 . S
O2161 Co2144 2.020 . S
O2161 C2158 1.256 . S
O2162 Co2142 2.062 . S
O2162 C2158 1.255 . S
O2163 C2143 1.259 . S
O2163 Co2144 2.021 . S
H2164 C2155 0.930 . S
H2165 C2154 0.931 . S
O2166 Co2142 2.117 . S
O2166 C2143 1.258 . S
O2167 Co2142 2.020 . S
O2167 C2169 1.256 . S
O2168 Co2144 2.062 . S
O2168 C2169 1.255 . S
C2169 O2167 1.256 . S
C2169 O2168 1.255 . S
H2170 C2149 0.931 . S
H2171 C2157 0.931 . S
Co2172 N2177 2.057 . S
Co2172 O2189 2.021 1_545 S
Co2172 O2192 2.062 . S
Co2172 O2196 2.117 . S
Co2172 O2197 2.020 . S
C2173 O2193 1.259 . S
C2173 O2196 1.258 . S
Co2174 N2183 2.057 . S
Co2174 O2190 2.117 . S
Co2174 O2191 2.020 . S
Co2174 O2193 2.021 . S
Co2174 O2198 2.062 . S
C2175 N2177 1.289 1_565 S
C2175 N2178 1.342 1_565 S
C2175 H2180 0.960 . S
C2176 N2177 1.375 . S
C2176 C2179 1.350 . S
C2176 H2181 0.930 . S
N2177 Co2172 2.057 . S
N2177 C2175 1.289 1_545 S
N2177 C2176 1.375 . S
N2178 C2175 1.342 1_545 S
N2178 C2179 1.373 . S
C2179 C2176 1.350 . S
C2179 N2178 1.373 . S
C2179 H2200 0.931 . S
H2180 C2175 0.960 . S
H2181 C2176 0.930 . S
C2182 O2189 1.259 . S
C2182 O2190 1.258 1_565 S
N2183 Co2174 2.057 . S
N2183 C2184 1.316 . S
N2183 C2185 1.375 . S
C2184 N2183 1.316 . S
C2184 N2186 1.347 . S
C2184 H2195 0.931 . S
C2185 N2183 1.375 . S
C2185 C2187 1.350 . S
C2185 H2194 0.930 . S
N2186 C2184 1.347 . S
N2186 C2187 1.373 . S
C2187 C2185 1.350 . S
C2187 N2186 1.373 . S
C2187 H2201 0.931 . S
C2188 O2191 1.256 . S
C2188 O2192 1.255 . S
O2189 Co2172 2.021 1_565 S
O2189 C2182 1.259 . S
O2190 Co2174 2.117 . S
O2190 C2182 1.258 1_545 S
O2191 Co2174 2.020 . S
O2191 C2188 1.256 . S
O2192 Co2172 2.062 . S
O2192 C2188 1.255 . S
O2193 C2173 1.259 . S
O2193 Co2174 2.021 . S
H2194 C2185 0.930 . S
H2195 C2184 0.931 . S
O2196 Co2172 2.117 . S
O2196 C2173 1.258 . S
O2197 Co2172 2.020 . S
O2197 C2199 1.256 . S
O2198 Co2174 2.062 . S
O2198 C2199 1.255 . S
C2199 O2197 1.256 . S
C2199 O2198 1.255 . S
H2200 C2179 0.931 . S
H2201 C2187 0.931 . S
Co2202 N2207 2.057 . S
Co2202 O2219 2.021 . S
Co2202 O2222 2.062 . S
Co2202 O2226 2.117 . S
Co2202 O2227 2.020 . S
C2203 O2223 1.259 . S
C2203 O2226 1.258 . S
Co2204 N2213 2.057 . S
Co2204 O2220 2.117 . S
Co2204 O2221 2.020 . S
Co2204 O2223 2.021 . S
Co2204 O2228 2.062 . S
C2205 N2207 1.316 . S
C2205 N2208 1.347 . S
C2205 H2210 0.931 . S
C2206 N2207 1.375 . S
C2206 C2209 1.350 . S
C2206 H2211 0.930 . S
N2207 Co2202 2.057 . S
N2207 C2205 1.316 . S
N2207 C2206 1.375 . S
N2208 C2205 1.347 . S
N2208 C2209 1.373 . S
C2209 C2206 1.350 . S
C2209 N2208 1.373 . S
C2209 H2230 0.931 . S
H2210 C2205 0.931 . S
H2211 C2206 0.930 . S
C2212 O2219 1.259 . S
C2212 O2220 1.258 . S
N2213 Co2204 2.057 . S
N2213 C2214 1.316 . S
N2213 C2215 1.375 . S
C2214 N2213 1.316 . S
C2214 N2216 1.347 . S
C2214 H2225 0.931 . S
C2215 N2213 1.375 . S
C2215 C2217 1.350 . S
C2215 H2224 0.930 . S
N2216 C2214 1.347 . S
N2216 C2217 1.373 . S
C2217 C2215 1.350 . S
C2217 N2216 1.373 . S
C2217 H2231 0.931 . S
C2218 O2221 1.256 . S
C2218 O2222 1.255 . S
O2219 Co2202 2.021 . S
O2219 C2212 1.259 . S
O2220 Co2204 2.117 . S
O2220 C2212 1.258 . S
O2221 Co2204 2.020 . S
O2221 C2218 1.256 . S
O2222 Co2202 2.062 . S
O2222 C2218 1.255 . S
O2223 C2203 1.259 . S
O2223 Co2204 2.021 . S
H2224 C2215 0.930 . S
H2225 C2214 0.931 . S
O2226 Co2202 2.117 . S
O2226 C2203 1.258 . S
O2227 Co2202 2.020 . S
O2227 C2229 1.256 . S
O2228 Co2204 2.062 . S
O2228 C2229 1.255 . S
C2229 O2227 1.256 . S
C2229 O2228 1.255 . S
H2230 C2209 0.931 . S
H2231 C2217 0.931 . S
Co2232 N2237 2.057 1_545 S
Co2232 O2249 2.021 . S
Co2232 O2252 2.059 1_545 S
Co2232 O2256 2.117 . S
Co2232 O2257 2.020 1_455 S
C2233 O2253 1.259 . S
C2233 O2256 1.258 . S
Co2234 N2243 2.057 . S
Co2234 O2250 2.117 . S
Co2234 O2251 2.020 . S
Co2234 O2253 2.021 . S
Co2234 O2258 2.062 1_455 S
C2235 N2237 1.316 . S
C2235 N2238 1.347 . S
C2235 H2240 0.931 . S
C2236 N2237 1.375 1_655 S
C2236 C2239 1.350 . S
C2236 H2241 0.930 . S
N2237 Co2232 2.057 1_565 S
N2237 C2235 1.316 . S
N2237 C2236 1.375 1_455 S
N2238 C2235 1.347 . S
N2238 C2239 1.373 1_455 S
C2239 C2236 1.350 . S
C2239 N2238 1.373 1_655 S
C2239 H2260 0.931 . S
H2240 C2235 0.931 . S
H2241 C2236 0.930 . S
C2242 O2249 1.259 . S
C2242 O2250 1.258 . S
N2243 Co2234 2.057 . S
N2243 C2244 1.316 . S
N2243 C2245 1.375 . S
C2244 N2243 1.316 . S
C2244 N2246 1.347 . S
C2244 H2255 0.931 . S
C2245 N2243 1.375 . S
C2245 C2247 1.350 . S
C2245 H2254 0.930 . S
N2246 C2244 1.347 . S
N2246 C2247 1.373 . S
C2247 C2245 1.350 . S
C2247 N2246 1.373 . S
C2247 H2261 0.931 . S
C2248 O2251 1.256 . S
C2248 O2252 1.246 1_545 S
O2249 Co2232 2.021 . S
O2249 C2242 1.259 . S
O2250 Co2234 2.117 . S
O2250 C2242 1.258 . S
O2251 Co2234 2.020 . S
O2251 C2248 1.256 . S
O2252 Co2232 2.059 1_565 S
O2252 C2248 1.246 1_565 S
O2253 C2233 1.259 . S
O2253 Co2234 2.021 . S
H2254 C2245 0.930 . S
H2255 C2244 0.931 . S
O2256 Co2232 2.117 . S
O2256 C2233 1.258 . S
O2257 Co2232 2.020 1_655 S
O2257 C2259 1.256 . S
O2258 Co2234 2.062 1_655 S
O2258 C2259 1.255 . S
C2259 O2257 1.256 . S
C2259 O2258 1.255 . S
H2260 C2239 0.931 . S
H2261 C2247 0.931 . S
Co2262 N2267 2.057 . S
Co2262 O2279 2.021 . S
Co2262 O2282 2.062 . S
Co2262 O2286 2.117 . S
Co2262 O2287 2.020 . S
C2263 O2283 1.259 . S
C2263 O2286 1.258 . S
Co2264 N2273 2.057 . S
Co2264 O2280 2.117 . S
Co2264 O2281 2.020 . S
Co2264 O2283 2.021 . S
Co2264 O2288 2.062 . S
C2265 N2267 1.316 . S
C2265 N2268 1.347 . S
C2265 H2270 0.931 . S
C2266 N2267 1.375 . S
C2266 C2269 1.350 . S
C2266 H2271 0.930 . S
N2267 Co2262 2.057 . S
N2267 C2265 1.316 . S
N2267 C2266 1.375 . S
N2268 C2265 1.347 . S
N2268 C2269 1.373 . S
C2269 C2266 1.350 . S
C2269 N2268 1.373 . S
C2269 H2290 0.931 . S
H2270 C2265 0.931 . S
H2271 C2266 0.930 . S
C2272 O2279 1.259 . S
C2272 O2280 1.258 . S
N2273 Co2264 2.057 . S
N2273 C2274 1.316 . S
N2273 C2275 1.375 . S
C2274 N2273 1.316 . S
C2274 N2276 1.347 . S
C2274 H2285 0.931 . S
C2275 N2273 1.375 . S
C2275 C2277 1.350 . S
C2275 H2284 0.930 . S
N2276 C2274 1.347 . S
N2276 C2277 1.373 . S
C2277 C2275 1.350 . S
C2277 N2276 1.373 . S
C2277 H2291 0.931 . S
C2278 O2281 1.256 . S
C2278 O2282 1.255 . S
O2279 Co2262 2.021 . S
O2279 C2272 1.259 . S
O2280 Co2264 2.117 . S
O2280 C2272 1.258 . S
O2281 Co2264 2.020 . S
O2281 C2278 1.256 . S
O2282 Co2262 2.062 . S
O2282 C2278 1.255 . S
O2283 C2263 1.259 . S
O2283 Co2264 2.021 . S
H2284 C2275 0.930 . S
H2285 C2274 0.931 . S
O2286 Co2262 2.117 . S
O2286 C2263 1.258 . S
O2287 Co2262 2.020 . S
O2287 C2289 1.256 . S
O2288 Co2264 2.062 . S
O2288 C2289 1.255 . S
C2289 O2287 1.256 . S
C2289 O2288 1.255 . S
H2290 C2269 0.931 . S
H2291 C2277 0.931 . S
Co2292 N2297 2.057 1_554 S
Co2292 O2309 2.021 . S
Co2292 O2312 2.062 1_554 S
Co2292 O2316 2.117 . S
Co2292 O2317 2.020 1_545 S
C2293 O2313 1.259 . S
C2293 O2316 1.258 . S
Co2294 N2303 2.057 . S
Co2294 O2310 2.117 . S
Co2294 O2311 2.020 . S
Co2294 O2313 2.021 . S
Co2294 O2318 2.062 . S
C2295 N2297 1.316 . S
C2295 N2298 1.347 . S
C2295 H2300 0.931 . S
C2296 N2297 1.375 . S
C2296 C2299 1.350 . S
C2296 H2301 0.930 1_545 S
N2297 Co2292 2.057 1_556 S
N2297 C2295 1.316 . S
N2297 C2296 1.375 . S
N2298 C2295 1.347 . S
N2298 C2299 1.373 . S
C2299 C2296 1.350 . S
C2299 N2298 1.373 . S
C2299 H2320 0.931 1_545 S
H2300 C2295 0.931 . S
H2301 C2296 0.930 1_565 S
C2302 O2309 1.259 . S
C2302 O2310 1.258 . S
N2303 Co2294 2.057 . S
N2303 C2304 1.316 . S
N2303 C2305 1.375 . S
C2304 N2303 1.316 . S
C2304 N2306 1.347 . S
C2304 H2315 0.931 . S
C2305 N2303 1.375 . S
C2305 C2307 1.350 . S
C2305 H2314 0.930 . S
N2306 C2304 1.347 . S
N2306 C2307 1.373 . S
C2307 C2305 1.350 . S
C2307 N2306 1.373 . S
C2307 H2321 0.931 . S
C2308 O2311 1.256 . S
C2308 O2312 1.255 1_554 S
O2309 Co2292 2.021 . S
O2309 C2302 1.259 . S
O2310 Co2294 2.117 . S
O2310 C2302 1.258 . S
O2311 Co2294 2.020 . S
O2311 C2308 1.256 . S
O2312 Co2292 2.062 1_556 S
O2312 C2308 1.255 1_556 S
O2313 C2293 1.259 . S
O2313 Co2294 2.021 . S
H2314 C2305 0.930 . S
H2315 C2304 0.931 . S
O2316 Co2292 2.117 . S
O2316 C2293 1.258 . S
O2317 Co2292 2.020 1_565 S
O2317 C2319 1.256 . S
O2318 Co2294 2.062 . S
O2318 C2319 1.255 1_545 S
C2319 O2317 1.256 . S
C2319 O2318 1.255 1_565 S
H2320 C2299 0.931 1_565 S
H2321 C2307 0.931 . S
Co2322 N2327 2.057 . S
Co2322 O2339 2.021 . S
Co2322 O2342 2.062 . S
Co2322 O2346 2.117 . S
Co2322 O2347 2.020 . S
C2323 O2343 1.259 . S
C2323 O2346 1.258 . S
Co2324 N2333 2.057 . S
Co2324 O2340 2.117 . S
Co2324 O2341 2.020 . S
Co2324 O2343 2.021 . S
Co2324 O2348 2.062 . S
C2325 N2327 1.316 . S
C2325 N2328 1.347 . S
C2325 H2330 0.931 . S
C2326 N2327 1.375 . S
C2326 C2329 1.350 . S
C2326 H2331 0.930 . S
N2327 Co2322 2.057 . S
N2327 C2325 1.316 . S
N2327 C2326 1.375 . S
N2328 C2325 1.347 . S
N2328 C2329 1.373 . S
C2329 C2326 1.350 . S
C2329 N2328 1.373 . S
C2329 H2350 0.931 . S
H2330 C2325 0.931 . S
H2331 C2326 0.930 . S
C2332 O2339 1.259 . S
C2332 O2340 1.258 . S
N2333 Co2324 2.057 . S
N2333 C2334 1.316 . S
N2333 C2335 1.375 . S
C2334 N2333 1.316 . S
C2334 N2336 1.347 . S
C2334 H2345 0.931 . S
C2335 N2333 1.375 . S
C2335 C2337 1.350 . S
C2335 H2344 0.930 . S
N2336 C2334 1.347 . S
N2336 C2337 1.373 . S
C2337 C2335 1.350 . S
C2337 N2336 1.373 . S
C2337 H2351 0.931 . S
C2338 O2341 1.256 . S
C2338 O2342 1.255 . S
O2339 Co2322 2.021 . S
O2339 C2332 1.259 . S
O2340 Co2324 2.117 . S
O2340 C2332 1.258 . S
O2341 Co2324 2.020 . S
O2341 C2338 1.256 . S
O2342 Co2322 2.062 . S
O2342 C2338 1.255 . S
O2343 C2323 1.259 . S
O2343 Co2324 2.021 . S
H2344 C2335 0.930 . S
H2345 C2334 0.931 . S
O2346 Co2322 2.117 . S
O2346 C2323 1.258 . S
O2347 Co2322 2.020 . S
O2347 C2349 1.256 . S
O2348 Co2324 2.062 . S
O2348 C2349 1.255 . S
C2349 O2347 1.256 . S
C2349 O2348 1.255 . S
H2350 C2329 0.931 . S
H2351 C2337 0.931 . S
Co2352 N2357 2.057 . S
Co2352 O2369 2.021 1_554 S
Co2352 O2372 2.062 . S
Co2352 O2376 2.117 . S
Co2352 O2377 2.020 . S
C2353 O2373 1.259 . S
C2353 O2376 1.258 . S
Co2354 N2363 2.057 . S
Co2354 O2370 2.078 1_554 S
Co2354 O2371 2.020 . S
Co2354 O2373 2.021 . S
Co2354 O2378 2.062 . S
C2355 N2357 1.316 1_556 S
C2355 N2358 1.339 1_556 S
C2355 H2360 0.931 . S
C2356 N2357 1.375 . S
C2356 C2359 1.350 . S
C2356 H2361 0.930 . S
N2357 Co2352 2.057 . S
N2357 C2355 1.316 1_554 S
N2357 C2356 1.375 . S
N2358 C2355 1.339 1_554 S
N2358 C2359 1.413 . S
C2359 C2356 1.350 . S
C2359 N2358 1.413 . S
C2359 H2380 0.931 . S
H2360 C2355 0.931 . S
H2361 C2356 0.930 . S
C2362 O2369 1.259 . S
C2362 O2370 1.289 . S
N2363 Co2354 2.057 . S
N2363 C2364 1.316 . S
N2363 C2365 1.375 . S
C2364 N2363 1.316 . S
C2364 N2366 1.347 . S
C2364 H2375 0.931 . S
C2365 N2363 1.375 . S
C2365 C2367 1.350 . S
C2365 H2374 0.930 . S
N2366 C2364 1.347 . S
N2366 C2367 1.373 . S
C2367 C2365 1.350 . S
C2367 N2366 1.373 . S
C2367 H2381 0.931 . S
C2368 O2371 1.256 . S
C2368 O2372 1.255 . S
O2369 Co2352 2.021 1_556 S
O2369 C2362 1.259 . S
O2370 Co2354 2.078 1_556 S
O2370 C2362 1.289 . S
O2371 Co2354 2.020 . S
O2371 C2368 1.256 . S
O2372 Co2352 2.062 . S
O2372 C2368 1.255 . S
O2373 C2353 1.259 . S
O2373 Co2354 2.021 . S
H2374 C2365 0.930 . S
H2375 C2364 0.931 . S
O2376 Co2352 2.117 . S
O2376 C2353 1.258 . S
O2377 Co2352 2.020 . S
O2377 C2379 1.256 . S
O2378 Co2354 2.062 . S
O2378 C2379 1.255 . S
C2379 O2377 1.256 . S
C2379 O2378 1.255 . S
H2380 C2359 0.931 . S
H2381 C2367 0.931 . S
Co2382 N2387 2.057 . S
Co2382 O2399 2.021 . S
Co2382 O2402 2.062 . S
Co2382 O2406 2.117 . S
Co2382 O2407 2.020 . S
C2383 O2403 1.259 . S
C2383 O2406 1.258 . S
Co2384 N2393 2.057 . S
Co2384 O2400 2.117 . S
Co2384 O2401 2.020 . S
Co2384 O2403 2.021 . S
Co2384 O2408 2.062 . S
C2385 N2387 1.316 . S
C2385 N2388 1.347 . S
C2385 H2390 0.931 . S
C2386 N2387 1.375 . S
C2386 C2389 1.350 . S
C2386 H2391 0.930 . S
N2387 Co2382 2.057 . S
N2387 C2385 1.316 . S
N2387 C2386 1.375 . S
N2388 C2385 1.347 . S
N2388 C2389 1.373 . S
C2389 C2386 1.350 . S
C2389 N2388 1.373 . S
C2389 H2410 0.931 . S
H2390 C2385 0.931 . S
H2391 C2386 0.930 . S
C2392 O2399 1.259 . S
C2392 O2400 1.258 . S
N2393 Co2384 2.057 . S
N2393 C2394 1.316 . S
N2393 C2395 1.375 . S
C2394 N2393 1.316 . S
C2394 N2396 1.347 . S
C2394 H2405 0.931 . S
C2395 N2393 1.375 . S
C2395 C2397 1.350 . S
C2395 H2404 0.930 . S
N2396 C2394 1.347 . S
N2396 C2397 1.373 . S
C2397 C2395 1.350 . S
C2397 N2396 1.373 . S
C2397 H2411 0.931 . S
C2398 O2401 1.256 . S
C2398 O2402 1.255 . S
O2399 Co2382 2.021 . S
O2399 C2392 1.259 . S
O2400 Co2384 2.117 . S
O2400 C2392 1.258 . S
O2401 Co2384 2.020 . S
O2401 C2398 1.256 . S
O2402 Co2382 2.062 . S
O2402 C2398 1.255 . S
O2403 C2383 1.259 . S
O2403 Co2384 2.021 . S
H2404 C2395 0.930 . S
H2405 C2394 0.931 . S
O2406 Co2382 2.117 . S
O2406 C2383 1.258 . S
O2407 Co2382 2.020 . S
O2407 C2409 1.256 . S
O2408 Co2384 2.062 . S
O2408 C2409 1.255 . S
C2409 O2407 1.256 . S
C2409 O2408 1.255 . S
H2410 C2389 0.931 . S
H2411 C2397 0.931 . S
Co2412 N2417 2.057 . S
Co2412 O2429 2.021 1_455 S
Co2412 O2432 2.062 . S
Co2412 O2436 2.117 . S
Co2412 O2437 2.020 . S
C2413 O2433 1.259 . S
C2413 O2436 1.258 . S
Co2414 N2423 2.057 . S
Co2414 O2430 2.117 1_455 S
Co2414 O2431 2.020 . S
Co2414 O2433 2.021 . S
Co2414 O2438 2.062 . S
C2415 N2417 1.316 1_655 S
C2415 N2418 1.347 . S
C2415 H2420 0.931 . S
C2416 N2417 1.375 . S
C2416 C2419 1.350 . S
C2416 H2421 0.930 . S
N2417 Co2412 2.057 . S
N2417 C2415 1.316 1_455 S
N2417 C2416 1.375 . S
N2418 C2415 1.347 . S
N2418 C2419 1.373 1_655 S
C2419 C2416 1.350 . S
C2419 N2418 1.373 1_455 S
C2419 H2440 0.931 . S
H2420 C2415 0.931 . S
H2421 C2416 0.930 . S
C2422 O2429 1.259 . S
C2422 O2430 1.258 . S
N2423 Co2414 2.057 . S
N2423 C2424 1.316 . S
N2423 C2425 1.375 . S
C2424 N2423 1.316 . S
C2424 N2426 1.347 . S
C2424 H2435 0.931 . S
C2425 N2423 1.375 . S
C2425 C2427 1.350 . S
C2425 H2434 0.930 . S
N2426 C2424 1.347 . S
N2426 C2427 1.373 . S
C2427 C2425 1.350 . S
C2427 N2426 1.373 . S
C2427 H2441 0.931 . S
C2428 O2431 1.256 . S
C2428 O2432 1.255 . S
O2429 Co2412 2.021 1_655 S
O2429 C2422 1.259 . S
O2430 Co2414 2.117 1_655 S
O2430 C2422 1.258 . S
O2431 Co2414 2.020 . S
O2431 C2428 1.256 . S
O2432 Co2412 2.062 . S
O2432 C2428 1.255 . S
O2433 C2413 1.259 . S
O2433 Co2414 2.021 . S
H2434 C2425 0.930 . S
H2435 C2424 0.931 . S
O2436 Co2412 2.117 . S
O2436 C2413 1.258 . S
O2437 Co2412 2.020 . S
O2437 C2439 1.256 . S
O2438 Co2414 2.062 . S
O2438 C2439 1.255 . S
C2439 O2437 1.256 . S
C2439 O2438 1.255 . S
H2440 C2419 0.931 . S
H2441 C2427 0.931 . S
Co2442 N2447 2.057 . S
Co2442 O2459 2.021 . S
Co2442 O2462 2.062 . S
Co2442 O2466 2.117 . S
Co2442 O2467 2.020 . S
C2443 O2463 1.259 . S
C2443 O2466 1.258 . S
Co2444 N2453 2.057 . S
Co2444 O2460 2.117 . S
Co2444 O2461 2.020 . S
Co2444 O2463 2.021 . S
Co2444 O2468 2.062 . S
C2445 N2447 1.316 . S
C2445 N2448 1.347 . S
C2445 H2450 0.931 . S
C2446 N2447 1.375 . S
C2446 C2449 1.350 . S
C2446 H2451 0.930 . S
N2447 Co2442 2.057 . S
N2447 C2445 1.316 . S
N2447 C2446 1.375 . S
N2448 C2445 1.347 . S
N2448 C2449 1.373 . S
C2449 C2446 1.350 . S
C2449 N2448 1.373 . S
C2449 H2470 0.931 . S
H2450 C2445 0.931 . S
H2451 C2446 0.930 . S
C2452 O2459 1.259 . S
C2452 O2460 1.258 . S
N2453 Co2444 2.057 . S
N2453 C2454 1.316 . S
N2453 C2455 1.375 . S
C2454 N2453 1.316 . S
C2454 N2456 1.347 . S
C2454 H2465 0.931 . S
C2455 N2453 1.375 . S
C2455 C2457 1.350 . S
C2455 H2464 0.930 . S
N2456 C2454 1.347 . S
N2456 C2457 1.373 . S
C2457 C2455 1.350 . S
C2457 N2456 1.373 . S
C2457 H2471 0.931 . S
C2458 O2461 1.256 . S
C2458 O2462 1.255 . S
O2459 Co2442 2.021 . S
O2459 C2452 1.259 . S
O2460 Co2444 2.117 . S
O2460 C2452 1.258 . S
O2461 Co2444 2.020 . S
O2461 C2458 1.256 . S
O2462 Co2442 2.062 . S
O2462 C2458 1.255 . S
O2463 C2443 1.259 . S
O2463 Co2444 2.021 . S
H2464 C2455 0.930 . S
H2465 C2454 0.931 . S
O2466 Co2442 2.117 . S
O2466 C2443 1.258 . S
O2467 Co2442 2.020 . S
O2467 C2469 1.256 . S
O2468 Co2444 2.062 . S
O2468 C2469 1.255 . S
C2469 O2467 1.256 . S
C2469 O2468 1.255 . S
H2470 C2449 0.931 . S
H2471 C2457 0.931 . S
Co2472 N2477 2.057 . S
Co2472 O2489 2.021 . S
Co2472 O2492 2.062 . S
Co2472 O2496 2.117 . S
Co2472 O2497 2.020 . S
C2473 O2493 1.259 . S
C2473 O2496 1.258 . S
Co2474 N2483 2.057 . S
Co2474 O2490 2.117 . S
Co2474 O2491 2.020 . S
Co2474 O2493 2.021 . S
Co2474 O2498 2.062 . S
C2475 N2477 1.316 . S
C2475 N2478 1.347 . S
C2475 H2480 0.931 . S
C2476 N2477 1.375 . S
C2476 C2479 1.350 . S
C2476 H2481 0.930 . S
N2477 Co2472 2.057 . S
N2477 C2475 1.316 . S
N2477 C2476 1.375 . S
N2478 C2475 1.347 . S
N2478 C2479 1.373 . S
C2479 C2476 1.350 . S
C2479 N2478 1.373 . S
C2479 H2500 0.931 . S
H2480 C2475 0.931 . S
H2481 C2476 0.930 . S
C2482 O2489 1.259 . S
C2482 O2490 1.258 . S
N2483 Co2474 2.057 . S
N2483 C2484 1.316 . S
N2483 C2485 1.375 . S
C2484 N2483 1.316 . S
C2484 N2486 1.347 . S
C2484 H2495 0.931 . S
C2485 N2483 1.375 . S
C2485 C2487 1.350 . S
C2485 H2494 0.930 . S
N2486 C2484 1.347 . S
N2486 C2487 1.373 . S
C2487 C2485 1.350 . S
C2487 N2486 1.373 . S
C2487 H2501 0.931 . S
C2488 O2491 1.256 . S
C2488 O2492 1.255 . S
O2489 Co2472 2.021 . S
O2489 C2482 1.259 . S
O2490 Co2474 2.117 . S
O2490 C2482 1.258 . S
O2491 Co2474 2.020 . S
O2491 C2488 1.256 . S
O2492 Co2472 2.062 . S
O2492 C2488 1.255 . S
O2493 C2473 1.259 . S
O2493 Co2474 2.021 . S
H2494 C2485 0.930 . S
H2495 C2484 0.931 . S
O2496 Co2472 2.117 . S
O2496 C2473 1.258 . S
O2497 Co2472 2.020 . S
O2497 C2499 1.256 . S
O2498 Co2474 2.062 . S
O2498 C2499 1.255 . S
C2499 O2497 1.256 . S
C2499 O2498 1.255 . S
H2500 C2479 0.931 . S
H2501 C2487 0.931 . S
Co2502 N2507 2.057 . S
Co2502 O2519 2.021 . S
Co2502 O2522 2.062 . S
Co2502 O2526 2.117 . S
Co2502 O2527 2.020 . S
C2503 O2523 1.259 . S
C2503 O2526 1.258 . S
Co2504 N2513 2.057 . S
Co2504 O2520 2.117 . S
Co2504 O2521 2.020 . S
Co2504 O2523 2.021 . S
Co2504 O2528 2.062 . S
C2505 N2507 1.316 . S
C2505 N2508 1.347 . S
C2505 H2510 0.931 . S
C2506 N2507 1.375 . S
C2506 C2509 1.350 . S
C2506 H2511 0.930 . S
N2507 Co2502 2.057 . S
N2507 C2505 1.316 . S
N2507 C2506 1.375 . S
N2508 C2505 1.347 . S
N2508 C2509 1.373 . S
C2509 C2506 1.350 . S
C2509 N2508 1.373 . S
C2509 H2530 0.931 . S
H2510 C2505 0.931 . S
H2511 C2506 0.930 . S
C2512 O2519 1.259 . S
C2512 O2520 1.258 . S
N2513 Co2504 2.057 . S
N2513 C2514 1.316 . S
N2513 C2515 1.375 . S
C2514 N2513 1.316 . S
C2514 N2516 1.347 . S
C2514 H2525 0.931 . S
C2515 N2513 1.375 . S
C2515 C2517 1.350 . S
C2515 H2524 0.930 . S
N2516 C2514 1.347 . S
N2516 C2517 1.373 . S
C2517 C2515 1.350 . S
C2517 N2516 1.373 . S
C2517 H2531 0.931 . S
C2518 O2521 1.256 . S
C2518 O2522 1.255 . S
O2519 Co2502 2.021 . S
O2519 C2512 1.259 . S
O2520 Co2504 2.117 . S
O2520 C2512 1.258 . S
O2521 Co2504 2.020 . S
O2521 C2518 1.256 . S
O2522 Co2502 2.062 . S
O2522 C2518 1.255 . S
O2523 C2503 1.259 . S
O2523 Co2504 2.021 . S
H2524 C2515 0.930 . S
H2525 C2514 0.931 . S
O2526 Co2502 2.117 . S
O2526 C2503 1.258 . S
O2527 Co2502 2.020 . S
O2527 C2529 1.256 . S
O2528 Co2504 2.062 . S
O2528 C2529 1.255 . S
C2529 O2527 1.256 . S
C2529 O2528 1.255 . S
H2530 C2509 0.931 . S
H2531 C2517 0.931 . S
Co2532 N2537 2.057 . S
Co2532 O2549 2.021 . S
Co2532 O2552 2.062 . S
Co2532 O2556 2.117 . S
Co2532 O2557 2.020 . S
C2533 O2553 1.259 . S
C2533 O2556 1.258 . S
Co2534 N2543 2.057 . S
Co2534 O2550 2.117 . S
Co2534 O2551 2.020 . S
Co2534 O2553 2.021 . S
Co2534 O2558 2.062 . S
C2535 N2537 1.316 . S
C2535 N2538 1.347 . S
C2535 H2540 0.931 . S
C2536 N2537 1.375 . S
C2536 C2539 1.350 . S
C2536 H2541 0.930 . S
N2537 Co2532 2.057 . S
N2537 C2535 1.316 . S
N2537 C2536 1.375 . S
N2538 C2535 1.347 . S
N2538 C2539 1.373 . S
C2539 C2536 1.350 . S
C2539 N2538 1.373 . S
C2539 H2560 0.931 . S
H2540 C2535 0.931 . S
H2541 C2536 0.930 . S
C2542 O2549 1.259 . S
C2542 O2550 1.258 . S
N2543 Co2534 2.057 . S
N2543 C2544 1.316 . S
N2543 C2545 1.375 . S
C2544 N2543 1.316 . S
C2544 N2546 1.347 . S
C2544 H2555 0.931 . S
C2545 N2543 1.375 . S
C2545 C2547 1.350 . S
C2545 H2554 0.930 . S
N2546 C2544 1.347 . S
N2546 C2547 1.373 . S
C2547 C2545 1.350 . S
C2547 N2546 1.373 . S
C2547 H2561 0.931 . S
C2548 O2551 1.256 . S
C2548 O2552 1.255 . S
O2549 Co2532 2.021 . S
O2549 C2542 1.259 . S
O2550 Co2534 2.117 . S
O2550 C2542 1.258 . S
O2551 Co2534 2.020 . S
O2551 C2548 1.256 . S
O2552 Co2532 2.062 . S
O2552 C2548 1.255 . S
O2553 C2533 1.259 . S
O2553 Co2534 2.021 . S
H2554 C2545 0.930 . S
H2555 C2544 0.931 . S
O2556 Co2532 2.117 . S
O2556 C2533 1.258 . S
O2557 Co2532 2.020 . S
O2557 C2559 1.256 . S
O2558 Co2534 2.062 . S
O2558 C2559 1.255 . S
C2559 O2557 1.256 . S
C2559 O2558 1.255 . S
H2560 C2539 0.931 . S
H2561 C2547 0.931 . S
Co2562 N2567 2.057 1_455 S
Co2562 O2579 2.021 . S
Co2562 O2582 2.062 1_455 S
Co2562 O2586 2.117 . S
Co2562 O2587 2.020 1_554 S
C2563 O2583 1.259 . S
C2563 O2586 1.258 . S
Co2564 N2573 2.057 . S
Co2564 O2580 2.117 . S
Co2564 O2581 2.020 . S
Co2564 O2583 2.021 . S
Co2564 O2588 2.062 1_554 S
C2565 N2567 1.316 . S
C2565 N2568 1.347 . S
C2565 H2570 0.931 . S
C2566 N2567 1.375 1_556 S
C2566 C2569 1.350 . S
C2566 H2571 0.930 . S
N2567 Co2562 2.057 1_655 S
N2567 C2565 1.316 . S
N2567 C2566 1.375 1_554 S
N2568 C2565 1.347 . S
N2568 C2569 1.373 1_554 S
C2569 C2566 1.350 . S
C2569 N2568 1.373 1_556 S
C2569 H2590 0.931 . S
H2570 C2565 0.931 . S
H2571 C2566 0.930 . S
C2572 O2579 1.259 . S
C2572 O2580 1.258 . S
N2573 Co2564 2.057 . S
N2573 C2574 1.316 . S
N2573 C2575 1.375 . S
C2574 N2573 1.316 . S
C2574 N2576 1.347 . S
C2574 H2585 0.931 . S
C2575 N2573 1.375 . S
C2575 C2577 1.350 . S
C2575 H2584 0.930 . S
N2576 C2574 1.347 . S
N2576 C2577 1.373 . S
C2577 C2575 1.350 . S
C2577 N2576 1.373 . S
C2577 H2591 0.931 . S
C2578 O2581 1.256 . S
C2578 O2582 1.255 1_455 S
O2579 Co2562 2.021 . S
O2579 C2572 1.259 . S
O2580 Co2564 2.117 . S
O2580 C2572 1.258 . S
O2581 Co2564 2.020 . S
O2581 C2578 1.256 . S
O2582 Co2562 2.062 1_655 S
O2582 C2578 1.255 1_655 S
O2583 C2563 1.259 . S
O2583 Co2564 2.021 . S
H2584 C2575 0.930 . S
H2585 C2574 0.931 . S
O2586 Co2562 2.117 . S
O2586 C2563 1.258 . S
O2587 Co2562 2.020 1_556 S
O2587 C2589 1.256 . S
O2588 Co2564 2.062 1_556 S
O2588 C2589 1.255 . S
C2589 O2587 1.256 . S
C2589 O2588 1.255 . S
H2590 C2569 0.931 . S
H2591 C2577 0.931 . S
C2592 C2593 1.369 . S
C2592 C2594 1.419 . S
C2592 H2596 0.930 1_455 S
C2593 C2592 1.369 . S
C2593 C2602 1.429 . S
C2594 C2592 1.419 . S
C2594 C2595 1.363 . S
C2594 H2597 0.929 1_455 S
C2595 C2594 1.363 . S
C2595 C2601 1.428 . S
H2596 C2592 0.930 1_655 S
H2597 C2594 0.929 1_655 S
S2598 N2599 1.613 . S
S2598 N2600 1.610 . S
N2599 S2598 1.613 . S
N2599 C2602 1.350 . S
N2600 S2598 1.610 . S
N2600 C2601 1.351 . S
C2601 C2595 1.428 . S
C2601 N2600 1.351 . S
C2601 C2602 1.434 . S
C2602 C2593 1.429 . S
C2602 N2599 1.350 . S
C2602 C2601 1.434 . S
C2603 C2604 1.369 . S
C2603 C2605 1.419 . S
C2603 H2607 0.930 . S
C2604 C2603 1.369 . S
C2604 C2613 1.429 . S
C2605 C2603 1.419 . S
C2605 C2606 1.363 . S
C2605 H2608 0.929 . S
C2606 C2605 1.363 . S
C2606 C2612 1.428 . S
H2607 C2603 0.930 . S
H2608 C2605 0.929 . S
S2609 N2610 1.613 . S
S2609 N2611 1.610 . S
N2610 S2609 1.613 . S
N2610 C2613 1.350 . S
N2611 S2609 1.610 . S
N2611 C2612 1.351 . S
C2612 C2606 1.428 . S
C2612 N2611 1.351 . S
C2612 C2613 1.434 . S
C2613 C2604 1.429 . S
C2613 N2610 1.350 . S
C2613 C2612 1.434 . S
C2614 C2615 1.369 . S
C2614 C2616 1.419 . S
C2614 H2618 0.930 . S
C2615 C2614 1.369 . S
C2615 C2624 1.429 . S
C2616 C2614 1.419 . S
C2616 C2617 1.363 . S
C2616 H2619 0.929 . S
C2617 C2616 1.363 . S
C2617 C2623 1.428 . S
H2618 C2614 0.930 . S
H2619 C2616 0.929 . S
S2620 N2621 1.613 . S
S2620 N2622 1.610 . S
N2621 S2620 1.613 . S
N2621 C2624 1.350 . S
N2622 S2620 1.610 . S
N2622 C2623 1.351 . S
C2623 C2617 1.428 . S
C2623 N2622 1.351 . S
C2623 C2624 1.434 . S
C2624 C2615 1.429 . S
C2624 N2621 1.350 . S
C2624 C2623 1.434 . S
C2625 C2626 1.369 . S
C2625 C2627 1.419 . S
C2625 H2629 0.930 . S
C2626 C2625 1.369 . S
C2626 C2635 1.429 . S
C2627 C2625 1.419 . S
C2627 C2628 1.363 . S
C2627 H2630 0.929 . S
C2628 C2627 1.363 . S
C2628 C2634 1.428 . S
H2629 C2625 0.930 . S
H2630 C2627 0.929 . S
S2631 N2632 1.613 . S
S2631 N2633 1.610 . S
N2632 S2631 1.613 . S
N2632 C2635 1.350 . S
N2633 S2631 1.610 . S
N2633 C2634 1.351 . S
C2634 C2628 1.428 . S
C2634 N2633 1.351 . S
C2634 C2635 1.434 . S
C2635 C2626 1.429 . S
C2635 N2632 1.350 . S
C2635 C2634 1.434 . S
C2636 C2637 1.369 . S
C2636 C2638 1.419 . S
C2636 H2640 0.930 . S
C2637 C2636 1.369 . S
C2637 C2646 1.429 . S
C2638 C2636 1.419 . S
C2638 C2639 1.363 . S
C2638 H2641 0.929 . S
C2639 C2638 1.363 . S
C2639 C2645 1.428 . S
H2640 C2636 0.930 . S
H2641 C2638 0.929 . S
S2642 N2643 1.613 . S
S2642 N2644 1.610 1_455 S
N2643 S2642 1.613 . S
N2643 C2646 1.350 . S
N2644 S2642 1.610 1_655 S
N2644 C2645 1.351 1_655 S
C2645 C2639 1.428 . S
C2645 N2644 1.351 1_455 S
C2645 C2646 1.434 . S
C2646 C2637 1.429 . S
C2646 N2643 1.350 . S
C2646 C2645 1.434 . S
C2647 C2648 1.369 . S
C2647 C2649 1.419 . S
C2647 H2651 0.930 . S
C2648 C2647 1.369 . S
C2648 C2657 1.429 . S
C2649 C2647 1.419 . S
C2649 C2650 1.363 . S
C2649 H2652 0.929 . S
C2650 C2649 1.363 . S
C2650 C2656 1.428 . S
H2651 C2647 0.930 . S
H2652 C2649 0.929 . S
S2653 N2654 1.613 . S
S2653 N2655 1.610 . S
N2654 S2653 1.613 . S
N2654 C2657 1.350 . S
N2655 S2653 1.610 . S
N2655 C2656 1.351 . S
C2656 C2650 1.428 . S
C2656 N2655 1.351 . S
C2656 C2657 1.434 . S
C2657 C2648 1.429 . S
C2657 N2654 1.350 . S
C2657 C2656 1.434 . S
C2658 C2659 1.369 . S
C2658 C2660 1.419 . S
C2658 H2662 0.930 . S
C2659 C2658 1.369 . S
C2659 C2668 1.429 . S
C2660 C2658 1.419 . S
C2660 C2661 1.360 1_556 S
C2660 H2663 0.929 . S
C2661 C2660 1.360 1_554 S
C2661 C2667 1.427 1_554 S
H2662 C2658 0.930 . S
H2663 C2660 0.929 . S
S2664 N2665 1.624 . S
S2664 N2666 1.604 1_556 S
N2665 S2664 1.624 . S
N2665 C2668 1.350 . S
N2666 S2664 1.604 1_554 S
N2666 C2667 1.351 1_554 S
C2667 C2661 1.427 1_556 S
C2667 N2666 1.351 1_556 S
C2667 C2668 1.434 . S
C2668 C2659 1.429 . S
C2668 N2665 1.350 . S
C2668 C2667 1.434 . S
C2669 C2670 1.369 . S
C2669 C2671 1.419 . S
C2669 H2673 0.930 . S
C2670 C2669 1.369 . S
C2670 C2679 1.429 . S
C2671 C2669 1.419 . S
C2671 C2672 1.363 . S
C2671 H2674 0.929 . S
C2672 C2671 1.363 . S
C2672 C2678 1.428 . S
H2673 C2669 0.930 . S
H2674 C2671 0.929 . S
S2675 N2676 1.613 . S
S2675 N2677 1.610 . S
N2676 S2675 1.613 . S
N2676 C2679 1.350 . S
N2677 S2675 1.610 . S
N2677 C2678 1.351 . S
C2678 C2672 1.428 . S
C2678 N2677 1.351 . S
C2678 C2679 1.434 . S
C2679 C2670 1.429 . S
C2679 N2676 1.350 . S
C2679 C2678 1.434 . S
C2680 C2681 1.369 . S
C2680 C2682 1.419 . S
C2680 H2684 0.930 . S
C2681 C2680 1.369 . S
C2681 C2690 1.429 1_545 S
C2682 C2680 1.419 . S
C2682 C2683 1.363 . S
C2682 H2685 0.929 . S
C2683 C2682 1.363 . S
C2683 C2689 1.428 1_545 S
H2684 C2680 0.930 . S
H2685 C2682 0.929 . S
S2686 N2687 1.613 . S
S2686 N2688 1.610 . S
N2687 S2686 1.613 . S
N2687 C2690 1.350 . S
N2688 S2686 1.610 . S
N2688 C2689 1.351 . S
C2689 C2683 1.428 1_565 S
C2689 N2688 1.351 . S
C2689 C2690 1.434 . S
C2690 C2681 1.429 1_565 S
C2690 N2687 1.350 . S
C2690 C2689 1.434 . S
C2691 C2692 1.369 . S
C2691 C2693 1.419 . S
C2691 H2695 0.930 . S
C2692 C2691 1.369 . S
C2692 C2701 1.429 . S
C2693 C2691 1.419 . S
C2693 C2694 1.363 . S
C2693 H2696 0.929 . S
C2694 C2693 1.363 . S
C2694 C2700 1.428 . S
H2695 C2691 0.930 . S
H2696 C2693 0.929 . S
S2697 N2698 1.613 . S
S2697 N2699 1.610 . S
N2698 S2697 1.613 . S
N2698 C2701 1.350 . S
N2699 S2697 1.610 . S
N2699 C2700 1.351 . S
C2700 C2694 1.428 . S
C2700 N2699 1.351 . S
C2700 C2701 1.434 . S
C2701 C2692 1.429 . S
C2701 N2698 1.350 . S
C2701 C2700 1.434 . S
C2702 C2703 1.369 . S
C2702 C2704 1.419 . S
C2702 H2706 0.930 . S
C2703 C2702 1.369 . S
C2703 C2712 1.429 . S
C2704 C2702 1.419 . S
C2704 C2705 1.363 . S
C2704 H2707 0.929 . S
C2705 C2704 1.363 . S
C2705 C2711 1.428 . S
H2706 C2702 0.930 . S
H2707 C2704 0.929 . S
S2708 N2709 1.613 . S
S2708 N2710 1.610 . S
N2709 S2708 1.613 . S
N2709 C2712 1.350 . S
N2710 S2708 1.610 . S
N2710 C2711 1.351 . S
C2711 C2705 1.428 . S
C2711 N2710 1.351 . S
C2711 C2712 1.434 . S
C2712 C2703 1.429 . S
C2712 N2709 1.350 . S
C2712 C2711 1.434 . S
C2713 C2714 1.369 . S
C2713 C2715 1.419 . S
C2713 H2717 0.930 . S
C2714 C2713 1.369 . S
C2714 C2723 1.429 . S
C2715 C2713 1.419 . S
C2715 C2716 1.363 . S
C2715 H2718 0.929 . S
C2716 C2715 1.363 . S
C2716 C2722 1.428 . S
H2717 C2713 0.930 . S
H2718 C2715 0.929 . S
S2719 N2720 1.613 . S
S2719 N2721 1.610 . S
N2720 S2719 1.613 . S
N2720 C2723 1.350 . S
N2721 S2719 1.610 . S
N2721 C2722 1.351 . S
C2722 C2716 1.428 . S
C2722 N2721 1.351 . S
C2722 C2723 1.434 . S
C2723 C2714 1.429 . S
C2723 N2720 1.350 . S
C2723 C2722 1.434 . S
C2724 C2725 1.369 . S
C2724 C2726 1.419 . S
C2724 H2728 0.930 1_545 S
C2725 C2724 1.369 . S
C2725 C2734 1.429 . S
C2726 C2724 1.419 . S
C2726 C2727 1.363 . S
C2726 H2729 0.929 . S
C2727 C2726 1.363 . S
C2727 C2733 1.428 . S
H2728 C2724 0.930 1_565 S
H2729 C2726 0.929 . S
S2730 N2731 1.613 . S
S2730 N2732 1.610 . S
N2731 S2730 1.613 . S
N2731 C2734 1.350 . S
N2732 S2730 1.610 . S
N2732 C2733 1.351 . S
C2733 C2727 1.428 . S
C2733 N2732 1.351 . S
C2733 C2734 1.434 . S
C2734 C2725 1.429 . S
C2734 N2731 1.350 . S
C2734 C2733 1.434 . S
C2735 C2736 1.369 . S
C2735 C2737 1.419 . S
C2735 H2739 0.930 . S
C2736 C2735 1.369 . S
C2736 C2745 1.429 . S
C2737 C2735 1.419 . S
C2737 C2738 1.363 . S
C2737 H2740 0.929 . S
C2738 C2737 1.363 . S
C2738 C2744 1.428 . S
H2739 C2735 0.930 . S
H2740 C2737 0.929 . S
S2741 N2742 1.613 . S
S2741 N2743 1.610 . S
N2742 S2741 1.613 . S
N2742 C2745 1.350 . S
N2743 S2741 1.610 . S
N2743 C2744 1.351 . S
C2744 C2738 1.428 . S
C2744 N2743 1.351 . S
C2744 C2745 1.434 . S
C2745 C2736 1.429 . S
C2745 N2742 1.350 . S
C2745 C2744 1.434 . S
C2746 C2747 1.369 . S
C2746 C2748 1.419 . S
C2746 H2750 0.930 . S
C2747 C2746 1.369 . S
C2747 C2756 1.429 . S
C2748 C2746 1.419 . S
C2748 C2749 1.363 . S
C2748 H2751 0.929 . S
C2749 C2748 1.363 . S
C2749 C2755 1.428 . S
H2750 C2746 0.930 . S
H2751 C2748 0.929 . S
S2752 N2753 1.613 . S
S2752 N2754 1.610 . S
N2753 S2752 1.613 . S
N2753 C2756 1.350 . S
N2754 S2752 1.610 . S
N2754 C2755 1.351 . S
C2755 C2749 1.428 . S
C2755 N2754 1.351 . S
C2755 C2756 1.434 . S
C2756 C2747 1.429 . S
C2756 N2753 1.350 . S
C2756 C2755 1.434 . S
C2757 C2758 1.369 . S
C2757 C2759 1.419 . S
C2757 H2761 0.930 . S
C2758 C2757 1.369 . S
C2758 C2767 1.429 . S
C2759 C2757 1.419 . S
C2759 C2760 1.363 . S
C2759 H2762 0.929 . S
C2760 C2759 1.363 . S
C2760 C2766 1.428 . S
H2761 C2757 0.930 . S
H2762 C2759 0.929 . S
S2763 N2764 1.613 . S
S2763 N2765 1.610 . S
N2764 S2763 1.613 . S
N2764 C2767 1.350 . S
N2765 S2763 1.610 . S
N2765 C2766 1.351 . S
C2766 C2760 1.428 . S
C2766 N2765 1.351 . S
C2766 C2767 1.434 . S
C2767 C2758 1.429 . S
C2767 N2764 1.350 . S
C2767 C2766 1.434 . S
C2768 C2769 1.369 . S
C2768 C2770 1.419 . S
C2768 H2772 0.930 1_554 S
C2769 C2768 1.369 . S
C2769 C2778 1.429 . S
C2770 C2768 1.419 . S
C2770 C2771 1.363 . S
C2770 H2773 0.929 1_554 S
C2771 C2770 1.363 . S
C2771 C2777 1.428 . S
H2772 C2768 0.930 1_556 S
H2773 C2770 0.929 1_556 S
S2774 N2775 1.613 . S
S2774 N2776 1.610 . S
N2775 S2774 1.613 . S
N2775 C2778 1.350 . S
N2776 S2774 1.610 . S
N2776 C2777 1.351 . S
C2777 C2771 1.428 . S
C2777 N2776 1.351 . S
C2777 C2778 1.434 . S
C2778 C2769 1.429 . S
C2778 N2775 1.350 . S
C2778 C2777 1.434 . S
C2779 C2780 1.369 . S
C2779 C2781 1.419 . S
C2779 H2783 0.930 . S
C2780 C2779 1.369 . S
C2780 C2789 1.429 . S
C2781 C2779 1.419 . S
C2781 C2782 1.363 . S
C2781 H2784 0.929 . S
C2782 C2781 1.363 . S
C2782 C2788 1.428 . S
H2783 C2779 0.930 . S
H2784 C2781 0.929 . S
S2785 N2786 1.613 . S
S2785 N2787 1.610 . S
N2786 S2785 1.613 . S
N2786 C2789 1.350 . S
N2787 S2785 1.610 . S
N2787 C2788 1.351 . S
C2788 C2782 1.428 . S
C2788 N2787 1.351 . S
C2788 C2789 1.434 . S
C2789 C2780 1.429 . S
C2789 N2786 1.350 . S
C2789 C2788 1.434 . S
C2790 C2791 1.369 . S
C2790 C2792 1.419 . S
C2790 H2794 0.930 . S
C2791 C2790 1.369 . S
C2791 C2800 1.429 . S
C2792 C2790 1.419 . S
C2792 C2793 1.363 . S
C2792 H2795 0.929 . S
C2793 C2792 1.363 . S
C2793 C2799 1.428 . S
H2794 C2790 0.930 . S
H2795 C2792 0.929 . S
S2796 N2797 1.613 . S
S2796 N2798 1.610 . S
N2797 S2796 1.613 . S
N2797 C2800 1.350 . S
N2798 S2796 1.610 . S
N2798 C2799 1.351 . S
C2799 C2793 1.428 . S
C2799 N2798 1.351 . S
C2799 C2800 1.434 . S
C2800 C2791 1.429 . S
C2800 N2797 1.350 . S
C2800 C2799 1.434 . S
C2801 C2802 1.369 . S
C2801 C2803 1.419 . S
C2801 H2805 0.930 . S
C2802 C2801 1.369 . S
C2802 C2811 1.429 . S
C2803 C2801 1.419 . S
C2803 C2804 1.363 . S
C2803 H2806 0.929 . S
C2804 C2803 1.363 . S
C2804 C2810 1.428 . S
H2805 C2801 0.930 . S
H2806 C2803 0.929 . S
S2807 N2808 1.613 . S
S2807 N2809 1.610 . S
N2808 S2807 1.613 . S
N2808 C2811 1.350 . S
N2809 S2807 1.610 . S
N2809 C2810 1.351 . S
C2810 C2804 1.428 . S
C2810 N2809 1.351 . S
C2810 C2811 1.434 . S
C2811 C2802 1.429 . S
C2811 N2808 1.350 . S
C2811 C2810 1.434 . S
C2812 C2813 1.369 . S
C2812 C2814 1.419 . S
C2812 H2816 0.930 . S
C2813 C2812 1.369 . S
C2813 C2822 1.429 . S
C2814 C2812 1.419 . S
C2814 C2815 1.363 . S
C2814 H2817 0.929 . S
C2815 C2814 1.363 . S
C2815 C2821 1.428 . S
H2816 C2812 0.930 . S
H2817 C2814 0.929 . S
S2818 N2819 1.613 . S
S2818 N2820 1.610 . S
N2819 S2818 1.613 . S
N2819 C2822 1.350 . S
N2820 S2818 1.610 . S
N2820 C2821 1.351 . S
C2821 C2815 1.428 . S
C2821 N2820 1.351 . S
C2821 C2822 1.434 . S
C2822 C2813 1.429 . S
C2822 N2819 1.350 . S
C2822 C2821 1.434 . S
C2823 C2824 1.369 . S
C2823 C2825 1.419 . S
C2823 H2827 0.930 . S
C2824 C2823 1.369 . S
C2824 C2833 1.429 1_565 S
C2825 C2823 1.419 . S
C2825 C2826 1.363 . S
C2825 H2828 0.929 . S
C2826 C2825 1.363 . S
C2826 C2832 1.428 1_565 S
H2827 C2823 0.930 . S
H2828 C2825 0.929 . S
S2829 N2830 1.613 . S
S2829 N2831 1.610 . S
N2830 S2829 1.613 . S
N2830 C2833 1.350 . S
N2831 S2829 1.610 . S
N2831 C2832 1.351 . S
C2832 C2826 1.428 1_545 S
C2832 N2831 1.351 . S
C2832 C2833 1.434 . S
C2833 C2824 1.429 1_545 S
C2833 N2830 1.350 . S
C2833 C2832 1.434 . S
C2834 C2835 1.369 . S
C2834 C2836 1.419 . S
C2834 H2838 0.930 . S
C2835 C2834 1.369 . S
C2835 C2844 1.429 . S
C2836 C2834 1.419 . S
C2836 C2837 1.363 . S
C2836 H2839 0.929 . S
C2837 C2836 1.363 . S
C2837 C2843 1.428 . S
H2838 C2834 0.930 . S
H2839 C2836 0.929 . S
S2840 N2841 1.613 . S
S2840 N2842 1.610 . S
N2841 S2840 1.613 . S
N2841 C2844 1.350 . S
N2842 S2840 1.610 . S
N2842 C2843 1.351 . S
C2843 C2837 1.428 . S
C2843 N2842 1.351 . S
C2843 C2844 1.434 . S
C2844 C2835 1.429 . S
C2844 N2841 1.350 . S
C2844 C2843 1.434 . S
C2845 C2846 1.369 . S
C2845 C2847 1.419 . S
C2845 H2849 0.930 . S
C2846 C2845 1.369 . S
C2846 C2855 1.429 . S
C2847 C2845 1.419 . S
C2847 C2848 1.363 . S
C2847 H2850 0.929 . S
C2848 C2847 1.363 . S
C2848 C2854 1.428 . S
H2849 C2845 0.930 . S
H2850 C2847 0.929 . S
S2851 N2852 1.613 . S
S2851 N2853 1.610 . S
N2852 S2851 1.613 . S
N2852 C2855 1.350 . S
N2853 S2851 1.610 . S
N2853 C2854 1.351 . S
C2854 C2848 1.428 . S
C2854 N2853 1.351 . S
C2854 C2855 1.434 . S
C2855 C2846 1.429 . S
C2855 N2852 1.350 . S
C2855 C2854 1.434 . S
C2856 C2857 1.369 . S
C2856 C2858 1.419 1_556 S
C2856 H2860 0.923 1_556 S
C2857 C2856 1.369 . S
C2857 C2866 1.429 . S
C2858 C2856 1.419 1_554 S
C2858 C2859 1.363 1_554 S
C2858 H2861 0.929 . S
C2859 C2858 1.363 1_556 S
C2859 C2865 1.428 . S
H2860 C2856 0.923 1_554 S
H2861 C2858 0.929 . S
S2862 N2863 1.613 . S
S2862 N2864 1.610 . S
N2863 S2862 1.613 . S
N2863 C2866 1.350 1_655 S
N2864 S2862 1.610 . S
N2864 C2865 1.351 1_655 S
C2865 C2859 1.428 . S
C2865 N2864 1.351 1_455 S
C2865 C2866 1.434 . S
C2866 C2857 1.429 . S
C2866 N2863 1.350 1_455 S
C2866 C2865 1.434 . S
C2867 C2868 1.369 . S
C2867 C2869 1.419 . S
C2867 H2871 0.930 . S
C2868 C2867 1.369 . S
C2868 C2877 1.429 . S
C2869 C2867 1.419 . S
C2869 C2870 1.363 . S
C2869 H2872 0.929 . S
C2870 C2869 1.363 . S
C2870 C2876 1.428 . S
H2871 C2867 0.930 . S
H2872 C2869 0.929 . S
S2873 N2874 1.613 . S
S2873 N2875 1.610 . S
N2874 S2873 1.613 . S
N2874 C2877 1.350 . S
N2875 S2873 1.610 . S
N2875 C2876 1.351 . S
C2876 C2870 1.428 . S
C2876 N2875 1.351 . S
C2876 C2877 1.434 . S
C2877 C2868 1.429 . S
C2877 N2874 1.350 . S
C2877 C2876 1.434 . S
C2878 C2879 1.369 . S
C2878 C2880 1.419 . S
C2878 H2882 0.930 . S
C2879 C2878 1.369 . S
C2879 C2888 1.429 . S
C2880 C2878 1.419 . S
C2880 C2881 1.363 . S
C2880 H2883 0.929 . S
C2881 C2880 1.363 . S
C2881 C2887 1.428 . S
H2882 C2878 0.930 . S
H2883 C2880 0.929 . S
S2884 N2885 1.613 . S
S2884 N2886 1.610 . S
N2885 S2884 1.613 . S
N2885 C2888 1.350 . S
N2886 S2884 1.610 . S
N2886 C2887 1.351 . S
C2887 C2881 1.428 . S
C2887 N2886 1.351 . S
C2887 C2888 1.434 . S
C2888 C2879 1.429 . S
C2888 N2885 1.350 . S
C2888 C2887 1.434 . S
C2889 C2890 1.369 . S
C2889 C2891 1.419 . S
C2889 H2893 0.930 . S
C2890 C2889 1.369 . S
C2890 C2899 1.429 . S
C2891 C2889 1.419 . S
C2891 C2892 1.363 . S
C2891 H2894 0.929 . S
C2892 C2891 1.363 . S
C2892 C2898 1.428 . S
H2893 C2889 0.930 . S
H2894 C2891 0.929 . S
S2895 N2896 1.613 . S
S2895 N2897 1.610 . S
N2896 S2895 1.613 . S
N2896 C2899 1.350 . S
N2897 S2895 1.610 . S
N2897 C2898 1.351 . S
C2898 C2892 1.428 . S
C2898 N2897 1.351 . S
C2898 C2899 1.434 . S
C2899 C2890 1.429 . S
C2899 N2896 1.350 . S
C2899 C2898 1.434 . S
C2900 C2901 1.369 . S
C2900 C2902 1.419 . S
C2900 H2904 0.930 1_455 S
C2901 C2900 1.369 . S
C2901 C2910 1.429 . S
C2902 C2900 1.419 . S
C2902 C2903 1.363 . S
C2902 H2905 0.929 . S
C2903 C2902 1.363 . S
C2903 C2909 1.428 . S
H2904 C2900 0.930 1_655 S
H2905 C2902 0.929 . S
S2906 N2907 1.613 . S
S2906 N2908 1.610 . S
N2907 S2906 1.613 . S
N2907 C2910 1.350 . S
N2908 S2906 1.610 . S
N2908 C2909 1.351 . S
C2909 C2903 1.428 . S
C2909 N2908 1.351 . S
C2909 C2910 1.434 . S
C2910 C2901 1.429 . S
C2910 N2907 1.350 . S
C2910 C2909 1.434 . S
C2911 C2912 1.369 . S
C2911 C2913 1.419 . S
C2911 H2915 0.930 . S
C2912 C2911 1.369 . S
C2912 C2921 1.429 . S
C2913 C2911 1.419 . S
C2913 C2914 1.363 . S
C2913 H2916 0.929 . S
C2914 C2913 1.363 . S
C2914 C2920 1.428 . S
H2915 C2911 0.930 . S
H2916 C2913 0.929 . S
S2917 N2918 1.613 . S
S2917 N2919 1.610 . S
N2918 S2917 1.613 . S
N2918 C2921 1.350 . S
N2919 S2917 1.610 . S
N2919 C2920 1.351 . S
C2920 C2914 1.428 . S
C2920 N2919 1.351 . S
C2920 C2921 1.434 . S
C2921 C2912 1.429 . S
C2921 N2918 1.350 . S
C2921 C2920 1.434 . S
C2922 C2923 1.369 . S
C2922 C2924 1.419 . S
C2922 H2926 0.930 . S
C2923 C2922 1.369 . S
C2923 C2932 1.429 . S
C2924 C2922 1.419 . S
C2924 C2925 1.363 . S
C2924 H2927 0.929 . S
C2925 C2924 1.363 . S
C2925 C2931 1.428 . S
H2926 C2922 0.930 . S
H2927 C2924 0.929 . S
S2928 N2929 1.613 . S
S2928 N2930 1.610 . S
N2929 S2928 1.613 . S
N2929 C2932 1.350 . S
N2930 S2928 1.610 . S
N2930 C2931 1.351 . S
C2931 C2925 1.428 . S
C2931 N2930 1.351 . S
C2931 C2932 1.434 . S
C2932 C2923 1.429 . S
C2932 N2929 1.350 . S
C2932 C2931 1.434 . S
C2933 C2934 1.369 . S
C2933 C2935 1.419 . S
C2933 H2937 0.930 . S
C2934 C2933 1.369 . S
C2934 C2943 1.429 . S
C2935 C2933 1.419 . S
C2935 C2936 1.363 . S
C2935 H2938 0.929 . S
C2936 C2935 1.363 . S
C2936 C2942 1.428 . S
H2937 C2933 0.930 . S
H2938 C2935 0.929 . S
S2939 N2940 1.613 . S
S2939 N2941 1.610 . S
N2940 S2939 1.613 . S
N2940 C2943 1.350 . S
N2941 S2939 1.610 . S
N2941 C2942 1.351 . S
C2942 C2936 1.428 . S
C2942 N2941 1.351 . S
C2942 C2943 1.434 . S
C2943 C2934 1.429 . S
C2943 N2940 1.350 . S
C2943 C2942 1.434 . S
C2944 C2945 1.369 . S
C2944 C2946 1.419 . S
C2944 H2948 0.930 . S
C2945 C2944 1.369 . S
C2945 C2954 1.429 . S
C2946 C2944 1.419 . S
C2946 C2947 1.363 . S
C2946 H2949 0.929 . S
C2947 C2946 1.363 . S
C2947 C2953 1.428 . S
H2948 C2944 0.930 . S
H2949 C2946 0.929 . S
S2950 N2951 1.613 . S
S2950 N2952 1.610 . S
N2951 S2950 1.613 . S
N2951 C2954 1.350 1_455 S
N2952 S2950 1.610 . S
N2952 C2953 1.351 1_455 S
C2953 C2947 1.428 . S
C2953 N2952 1.351 1_655 S
C2953 C2954 1.434 . S
C2954 C2945 1.429 . S
C2954 N2951 1.350 1_655 S
C2954 C2953 1.434 . S
C2955 C2956 1.369 . S
C2955 C2957 1.419 . S
C2955 H2959 0.930 . S
C2956 C2955 1.369 . S
C2956 C2965 1.429 . S
C2957 C2955 1.419 . S
C2957 C2958 1.363 . S
C2957 H2960 0.929 . S
C2958 C2957 1.363 . S
C2958 C2964 1.428 . S
H2959 C2955 0.930 . S
H2960 C2957 0.929 . S
S2961 N2962 1.613 . S
S2961 N2963 1.610 . S
N2962 S2961 1.613 . S
N2962 C2965 1.350 . S
N2963 S2961 1.610 . S
N2963 C2964 1.351 . S
C2964 C2958 1.428 . S
C2964 N2963 1.351 . S
C2964 C2965 1.434 . S
C2965 C2956 1.429 . S
C2965 N2962 1.350 . S
C2965 C2964 1.434 . S
C2966 C2967 1.369 . S
C2966 C2968 1.419 . S
C2966 H2970 0.930 . S
C2967 C2966 1.369 . S
C2967 C2976 1.429 1_545 S
C2968 C2966 1.419 . S
C2968 C2969 1.363 . S
C2968 H2971 0.929 . S
C2969 C2968 1.363 . S
C2969 C2975 1.428 1_545 S
H2970 C2966 0.930 . S
H2971 C2968 0.929 . S
S2972 N2973 1.613 . S
S2972 N2974 1.610 . S
N2973 S2972 1.613 . S
N2973 C2976 1.350 . S
N2974 S2972 1.610 . S
N2974 C2975 1.351 . S
C2975 C2969 1.428 1_565 S
C2975 N2974 1.351 . S
C2975 C2976 1.434 . S
C2976 C2967 1.429 1_565 S
C2976 N2973 1.350 . S
C2976 C2975 1.434 . S
C2977 C2978 1.369 . S
C2977 C2979 1.419 . S
C2977 H2981 0.930 . S
C2978 C2977 1.369 . S
C2978 C2987 1.429 . S
C2979 C2977 1.419 . S
C2979 C2980 1.363 . S
C2979 H2982 0.929 . S
C2980 C2979 1.363 . S
C2980 C2986 1.428 . S
H2981 C2977 0.930 . S
H2982 C2979 0.929 . S
S2983 N2984 1.613 . S
S2983 N2985 1.610 . S
N2984 S2983 1.613 . S
N2984 C2987 1.350 . S
N2985 S2983 1.610 . S
N2985 C2986 1.351 . S
C2986 C2980 1.428 . S
C2986 N2985 1.351 . S
C2986 C2987 1.434 . S
C2987 C2978 1.429 . S
C2987 N2984 1.350 . S
C2987 C2986 1.434 . S
C2988 C2989 1.369 . S
C2988 C2990 1.419 1_655 S
C2988 H2992 0.912 1_655 S
C2989 C2988 1.369 . S
C2989 C2998 1.429 . S
C2990 C2988 1.419 1_455 S
C2990 C2991 1.363 1_455 S
C2990 H2993 0.929 . S
C2991 C2990 1.363 1_655 S
C2991 C2997 1.428 . S
H2992 C2988 0.912 1_455 S
H2993 C2990 0.929 . S
S2994 N2995 1.613 . S
S2994 N2996 1.610 . S
N2995 S2994 1.613 . S
N2995 C2998 1.350 . S
N2996 S2994 1.610 . S
N2996 C2997 1.351 . S
C2997 C2991 1.428 . S
C2997 N2996 1.351 . S
C2997 C2998 1.434 . S
C2998 C2989 1.429 . S
C2998 N2995 1.350 . S
C2998 C2997 1.434 . S
C2999 C3000 1.369 . S
C2999 C3001 1.419 . S
C2999 H3003 0.930 . S
C3000 C2999 1.369 . S
C3000 C3009 1.429 . S
C3001 C2999 1.419 . S
C3001 C3002 1.363 . S
C3001 H3004 0.929 . S
C3002 C3001 1.363 . S
C3002 C3008 1.428 . S
H3003 C2999 0.930 . S
H3004 C3001 0.929 . S
S3005 N3006 1.613 . S
S3005 N3007 1.610 . S
N3006 S3005 1.613 . S
N3006 C3009 1.350 . S
N3007 S3005 1.610 . S
N3007 C3008 1.351 . S
C3008 C3002 1.428 . S
C3008 N3007 1.351 . S
C3008 C3009 1.434 . S
C3009 C3000 1.429 . S
C3009 N3006 1.350 . S
C3009 C3008 1.434 . S
C3010 C3011 1.369 . S
C3010 C3012 1.419 . S
C3010 H3014 0.930 1_545 S
C3011 C3010 1.369 . S
C3011 C3020 1.429 . S
C3012 C3010 1.419 . S
C3012 C3013 1.363 . S
C3012 H3015 0.929 . S
C3013 C3012 1.363 . S
C3013 C3019 1.428 . S
H3014 C3010 0.930 1_565 S
H3015 C3012 0.929 . S
S3016 N3017 1.613 . S
S3016 N3018 1.610 . S
N3017 S3016 1.613 . S
N3017 C3020 1.350 . S
N3018 S3016 1.610 . S
N3018 C3019 1.351 . S
C3019 C3013 1.428 . S
C3019 N3018 1.351 . S
C3019 C3020 1.434 . S
C3020 C3011 1.429 . S
C3020 N3017 1.350 . S
C3020 C3019 1.434 . S
C3021 C3022 1.369 . S
C3021 C3023 1.419 . S
C3021 H3025 0.930 . S
C3022 C3021 1.369 . S
C3022 C3031 1.429 . S
C3023 C3021 1.419 . S
C3023 C3024 1.363 . S
C3023 H3026 0.929 . S
C3024 C3023 1.363 . S
C3024 C3030 1.428 . S
H3025 C3021 0.930 . S
H3026 C3023 0.929 . S
S3027 N3028 1.613 . S
S3027 N3029 1.610 . S
N3028 S3027 1.613 . S
N3028 C3031 1.350 . S
N3029 S3027 1.610 . S
N3029 C3030 1.351 . S
C3030 C3024 1.428 . S
C3030 N3029 1.351 . S
C3030 C3031 1.434 . S
C3031 C3022 1.429 . S
C3031 N3028 1.350 . S
C3031 C3030 1.434 . S
C3032 C3033 1.369 . S
C3032 C3034 1.419 . S
C3032 H3036 0.930 1_554 S
C3033 C3032 1.369 . S
C3033 C3042 1.429 1_565 S
C3034 C3032 1.419 . S
C3034 C3035 1.363 1_565 S
C3034 H3037 0.929 . S
C3035 C3034 1.363 1_545 S
C3035 C3041 1.428 . S
H3036 C3032 0.930 1_556 S
H3037 C3034 0.929 . S
S3038 N3039 1.613 . S
S3038 N3040 1.610 . S
N3039 S3038 1.613 . S
N3039 C3042 1.350 . S
N3040 S3038 1.610 . S
N3040 C3041 1.351 . S
C3041 C3035 1.428 . S
C3041 N3040 1.351 . S
C3041 C3042 1.434 . S
C3042 C3033 1.429 1_545 S
C3042 N3039 1.350 . S
C3042 C3041 1.434 . S
C3043 C3044 1.366 1_554 S
C3043 C3045 1.419 . S
C3043 H3047 0.929 1_554 S
C3044 C3043 1.366 1_556 S
C3044 C3053 1.426 1_556 S
C3045 C3043 1.419 . S
C3045 C3046 1.363 . S
C3045 H3048 0.929 . S
C3046 C3045 1.363 . S
C3046 C3052 1.428 . S
H3047 C3043 0.929 1_556 S
H3048 C3045 0.929 . S
S3049 N3050 1.613 . S
S3049 N3051 1.610 . S
N3050 S3049 1.613 . S
N3050 C3053 1.350 . S
N3051 S3049 1.610 . S
N3051 C3052 1.351 . S
C3052 C3046 1.428 . S
C3052 N3051 1.351 . S
C3052 C3053 1.434 . S
C3053 C3044 1.426 1_554 S
C3053 N3050 1.350 . S
C3053 C3052 1.434 . S
C3054 C3055 1.369 . S
C3054 C3056 1.419 . S
C3054 H3058 0.930 . S
C3055 C3054 1.369 . S
C3055 C3064 1.429 . S
C3056 C3054 1.419 . S
C3056 C3057 1.363 . S
C3056 H3059 0.929 . S
C3057 C3056 1.363 . S
C3057 C3063 1.428 . S
H3058 C3054 0.930 . S
H3059 C3056 0.929 . S
S3060 N3061 1.613 . S
S3060 N3062 1.610 . S
N3061 S3060 1.613 . S
N3061 C3064 1.350 . S
N3062 S3060 1.610 . S
N3062 C3063 1.351 . S
C3063 C3057 1.428 . S
C3063 N3062 1.351 . S
C3063 C3064 1.434 . S
C3064 C3055 1.429 . S
C3064 N3061 1.350 . S
C3064 C3063 1.434 . S
C3065 C3066 1.369 . S
C3065 C3067 1.419 . S
C3065 H3069 0.930 . S
C3066 C3065 1.369 . S
C3066 C3075 1.429 . S
C3067 C3065 1.419 . S
C3067 C3068 1.363 . S
C3067 H3070 0.929 . S
C3068 C3067 1.363 . S
C3068 C3074 1.428 . S
H3069 C3065 0.930 . S
H3070 C3067 0.929 . S
S3071 N3072 1.613 . S
S3071 N3073 1.610 . S
N3072 S3071 1.613 . S
N3072 C3075 1.350 . S
N3073 S3071 1.610 . S
N3073 C3074 1.351 . S
C3074 C3068 1.428 . S
C3074 N3073 1.351 . S
C3074 C3075 1.434 . S
C3075 C3066 1.429 . S
C3075 N3072 1.350 . S
C3075 C3074 1.434 . S
C3076 C3077 1.369 . S
C3076 C3078 1.419 . S
C3076 H3080 0.930 . S
C3077 C3076 1.369 . S
C3077 C3086 1.429 . S
C3078 C3076 1.419 . S
C3078 C3079 1.363 . S
C3078 H3081 0.929 . S
C3079 C3078 1.363 . S
C3079 C3085 1.428 . S
H3080 C3076 0.930 . S
H3081 C3078 0.929 . S
S3082 N3083 1.613 . S
S3082 N3084 1.610 . S
N3083 S3082 1.613 . S
N3083 C3086 1.350 . S
N3084 S3082 1.610 . S
N3084 C3085 1.351 . S
C3085 C3079 1.428 . S
C3085 N3084 1.351 . S
C3085 C3086 1.434 . S
C3086 C3077 1.429 . S
C3086 N3083 1.350 . S
C3086 C3085 1.434 . S
C3087 C3088 1.369 . S
C3087 C3089 1.419 . S
C3087 H3091 0.930 . S
C3088 C3087 1.369 . S
C3088 C3097 1.429 . S
C3089 C3087 1.419 . S
C3089 C3090 1.363 . S
C3089 H3092 0.929 . S
C3090 C3089 1.363 . S
C3090 C3096 1.428 . S
H3091 C3087 0.930 . S
H3092 C3089 0.929 . S
S3093 N3094 1.613 . S
S3093 N3095 1.610 . S
N3094 S3093 1.613 . S
N3094 C3097 1.350 . S
N3095 S3093 1.610 . S
N3095 C3096 1.351 . S
C3096 C3090 1.428 . S
C3096 N3095 1.351 . S
C3096 C3097 1.434 . S
C3097 C3088 1.429 . S
C3097 N3094 1.350 . S
C3097 C3096 1.434 . S
C3098 C3099 1.369 . S
C3098 C3100 1.419 . S
C3098 H3102 0.930 . S
C3099 C3098 1.369 . S
C3099 C3108 1.429 . S
C3100 C3098 1.419 . S
C3100 C3101 1.363 . S
C3100 H3103 0.929 . S
C3101 C3100 1.363 . S
C3101 C3107 1.428 . S
H3102 C3098 0.930 . S
H3103 C3100 0.929 . S
S3104 N3105 1.613 . S
S3104 N3106 1.610 . S
N3105 S3104 1.613 . S
N3105 C3108 1.350 . S
N3106 S3104 1.610 . S
N3106 C3107 1.351 . S
C3107 C3101 1.428 . S
C3107 N3106 1.351 . S
C3107 C3108 1.434 . S
C3108 C3099 1.429 . S
C3108 N3105 1.350 . S
C3108 C3107 1.434 . S
C3109 C3110 1.369 . S
C3109 C3111 1.419 . S
C3109 H3113 0.930 . S
C3110 C3109 1.369 . S
C3110 C3119 1.429 . S
C3111 C3109 1.419 . S
C3111 C3112 1.363 . S
C3111 H3114 0.929 . S
C3112 C3111 1.363 . S
C3112 C3118 1.428 . S
H3113 C3109 0.930 . S
H3114 C3111 0.929 . S
S3115 N3116 1.613 . S
S3115 N3117 1.610 . S
N3116 S3115 1.613 . S
N3116 C3119 1.350 . S
N3117 S3115 1.610 . S
N3117 C3118 1.351 . S
C3118 C3112 1.428 . S
C3118 N3117 1.351 . S
C3118 C3119 1.434 . S
C3119 C3110 1.429 . S
C3119 N3116 1.350 . S
C3119 C3118 1.434 . S
C3120 C3121 1.369 . S
C3120 C3122 1.419 . S
C3120 H3124 0.930 . S
C3121 C3120 1.369 . S
C3121 C3130 1.429 . S
C3122 C3120 1.419 . S
C3122 C3123 1.363 . S
C3122 H3125 0.929 . S
C3123 C3122 1.363 . S
C3123 C3129 1.428 . S
H3124 C3120 0.930 . S
H3125 C3122 0.929 . S
S3126 N3127 1.613 . S
S3126 N3128 1.610 . S
N3127 S3126 1.613 . S
N3127 C3130 1.350 . S
N3128 S3126 1.610 . S
N3128 C3129 1.351 . S
C3129 C3123 1.428 . S
C3129 N3128 1.351 . S
C3129 C3130 1.434 . S
C3130 C3121 1.429 . S
C3130 N3127 1.350 . S
C3130 C3129 1.434 . S
C3131 C3132 1.369 . S
C3131 C3133 1.419 . S
C3131 H3135 0.930 . S
C3132 C3131 1.369 . S
C3132 C3141 1.429 . S
C3133 C3131 1.419 . S
C3133 C3134 1.363 . S
C3133 H3136 0.929 . S
C3134 C3133 1.363 . S
C3134 C3140 1.428 . S
H3135 C3131 0.930 . S
H3136 C3133 0.929 . S
S3137 N3138 1.613 . S
S3137 N3139 1.610 . S
N3138 S3137 1.613 . S
N3138 C3141 1.350 . S
N3139 S3137 1.610 . S
N3139 C3140 1.351 . S
C3140 C3134 1.428 . S
C3140 N3139 1.351 . S
C3140 C3141 1.434 . S
C3141 C3132 1.429 . S
C3141 N3138 1.350 . S
C3141 C3140 1.434 . S
C3142 C3143 1.369 . S
C3142 C3144 1.419 . S
C3142 H3146 0.930 . S
C3143 C3142 1.369 . S
C3143 C3152 1.429 . S
C3144 C3142 1.419 . S
C3144 C3145 1.363 . S
C3144 H3147 0.929 . S
C3145 C3144 1.363 . S
C3145 C3151 1.428 . S
H3146 C3142 0.930 . S
H3147 C3144 0.929 . S
S3148 N3149 1.613 . S
S3148 N3150 1.610 . S
N3149 S3148 1.613 . S
N3149 C3152 1.350 . S
N3150 S3148 1.610 . S
N3150 C3151 1.351 . S
C3151 C3145 1.428 . S
C3151 N3150 1.351 . S
C3151 C3152 1.434 . S
C3152 C3143 1.429 . S
C3152 N3149 1.350 . S
C3152 C3151 1.434 . S
C3153 C3154 1.369 . S
C3153 C3155 1.419 . S
C3153 H3157 0.930 . S
C3154 C3153 1.369 . S
C3154 C3163 1.429 . S
C3155 C3153 1.419 . S
C3155 C3156 1.363 . S
C3155 H3158 0.929 . S
C3156 C3155 1.363 . S
C3156 C3162 1.428 . S
H3157 C3153 0.930 . S
H3158 C3155 0.929 . S
S3159 N3160 1.613 . S
S3159 N3161 1.610 . S
N3160 S3159 1.613 . S
N3160 C3163 1.350 . S
N3161 S3159 1.610 . S
N3161 C3162 1.351 . S
C3162 C3156 1.428 . S
C3162 N3161 1.351 . S
C3162 C3163 1.434 . S
C3163 C3154 1.429 . S
C3163 N3160 1.350 . S
C3163 C3162 1.434 . S
C3164 C3165 1.369 . S
C3164 C3166 1.419 . S
C3164 H3168 0.930 . S
C3165 C3164 1.369 . S
C3165 C3174 1.429 1_556 S
C3166 C3164 1.419 . S
C3166 C3167 1.363 . S
C3166 H3169 0.929 . S
C3167 C3166 1.363 . S
C3167 C3173 1.428 1_556 S
H3168 C3164 0.930 . S
H3169 C3166 0.929 . S
S3170 N3171 1.613 . S
S3170 N3172 1.610 . S
N3171 S3170 1.613 . S
N3171 C3174 1.350 . S
N3172 S3170 1.610 . S
N3172 C3173 1.351 . S
C3173 C3167 1.428 1_554 S
C3173 N3172 1.351 . S
C3173 C3174 1.434 . S
C3174 C3165 1.429 1_554 S
C3174 N3171 1.350 . S
C3174 C3173 1.434 . S
C3175 C3176 1.369 . S
C3175 C3177 1.419 . S
C3175 H3179 0.930 . S
C3176 C3175 1.369 . S
C3176 C3185 1.429 . S
C3177 C3175 1.419 . S
C3177 C3178 1.363 . S
C3177 H3180 0.929 . S
C3178 C3177 1.363 . S
C3178 C3184 1.428 . S
H3179 C3175 0.930 . S
H3180 C3177 0.929 . S
S3181 N3182 1.613 . S
S3181 N3183 1.610 . S
N3182 S3181 1.613 . S
N3182 C3185 1.350 . S
N3183 S3181 1.610 . S
N3183 C3184 1.351 . S
C3184 C3178 1.428 . S
C3184 N3183 1.351 . S
C3184 C3185 1.434 . S
C3185 C3176 1.429 . S
C3185 N3182 1.350 . S
C3185 C3184 1.434 . S
C3186 C3187 1.369 . S
C3186 C3188 1.419 . S
C3186 H3190 0.930 . S
C3187 C3186 1.369 . S
C3187 C3196 1.429 . S
C3188 C3186 1.419 . S
C3188 C3189 1.363 . S
C3188 H3191 0.929 . S
C3189 C3188 1.363 . S
C3189 C3195 1.428 . S
H3190 C3186 0.930 . S
H3191 C3188 0.929 . S
S3192 N3193 1.613 . S
S3192 N3194 1.610 . S
N3193 S3192 1.613 . S
N3193 C3196 1.350 . S
N3194 S3192 1.610 . S
N3194 C3195 1.351 . S
C3195 C3189 1.428 . S
C3195 N3194 1.351 . S
C3195 C3196 1.434 . S
C3196 C3187 1.429 . S
C3196 N3193 1.350 . S
C3196 C3195 1.434 . S
C3197 C3198 1.369 . S
C3197 C3199 1.419 . S
C3197 H3201 0.930 . S
C3198 C3197 1.369 . S
C3198 C3207 1.429 . S
C3199 C3197 1.419 . S
C3199 C3200 1.363 . S
C3199 H3202 0.929 . S
C3200 C3199 1.363 . S
C3200 C3206 1.428 . S
H3201 C3197 0.930 . S
H3202 C3199 0.929 . S
S3203 N3204 1.613 . S
S3203 N3205 1.610 . S
N3204 S3203 1.613 . S
N3204 C3207 1.350 . S
N3205 S3203 1.610 . S
N3205 C3206 1.351 . S
C3206 C3200 1.428 . S
C3206 N3205 1.351 . S
C3206 C3207 1.434 . S
C3207 C3198 1.429 . S
C3207 N3204 1.350 . S
C3207 C3206 1.434 . S
C3208 C3209 1.369 . S
C3208 C3210 1.419 . S
C3208 H3212 0.930 . S
C3209 C3208 1.369 . S
C3209 C3218 1.429 . S
C3210 C3208 1.419 . S
C3210 C3211 1.363 . S
C3210 H3213 0.929 . S
C3211 C3210 1.363 . S
C3211 C3217 1.428 . S
H3212 C3208 0.930 . S
H3213 C3210 0.929 . S
S3214 N3215 1.613 . S
S3214 N3216 1.610 . S
N3215 S3214 1.613 . S
N3215 C3218 1.350 . S
N3216 S3214 1.610 . S
N3216 C3217 1.351 . S
C3217 C3211 1.428 . S
C3217 N3216 1.351 . S
C3217 C3218 1.434 . S
C3218 C3209 1.429 . S
C3218 N3215 1.350 . S
C3218 C3217 1.434 . S
C3219 C3220 1.369 . S
C3219 C3221 1.419 . S
C3219 H3223 0.930 . S
C3220 C3219 1.369 . S
C3220 C3229 1.429 . S
C3221 C3219 1.419 . S
C3221 C3222 1.363 . S
C3221 H3224 0.929 . S
C3222 C3221 1.363 . S
C3222 C3228 1.428 . S
H3223 C3219 0.930 . S
H3224 C3221 0.929 . S
S3225 N3226 1.613 . S
S3225 N3227 1.610 . S
N3226 S3225 1.613 . S
N3226 C3229 1.350 . S
N3227 S3225 1.610 . S
N3227 C3228 1.351 . S
C3228 C3222 1.428 . S
C3228 N3227 1.351 . S
C3228 C3229 1.434 . S
C3229 C3220 1.429 . S
C3229 N3226 1.350 . S
C3229 C3228 1.434 . S
C3230 C3231 1.369 . S
C3230 C3232 1.419 . S
C3230 H3234 0.930 . S
C3231 C3230 1.369 . S
C3231 C3240 1.429 . S
C3232 C3230 1.419 . S
C3232 C3233 1.363 . S
C3232 H3235 0.929 . S
C3233 C3232 1.363 . S
C3233 C3239 1.428 1_655 S
H3234 C3230 0.930 . S
H3235 C3232 0.929 . S
S3236 N3237 1.613 . S
S3236 N3238 1.610 . S
N3237 S3236 1.613 . S
N3237 C3240 1.350 1_455 S
N3238 S3236 1.610 . S
N3238 C3239 1.351 . S
C3239 C3233 1.428 1_455 S
C3239 N3238 1.351 . S
C3239 C3240 1.434 1_455 S
C3240 C3231 1.429 . S
C3240 N3237 1.350 1_655 S
C3240 C3239 1.434 1_655 S
C3241 C3242 1.369 . S
C3241 C3243 1.419 . S
C3241 H3245 0.930 . S
C3242 C3241 1.369 . S
C3242 C3251 1.429 . S
C3243 C3241 1.419 . S
C3243 C3244 1.363 . S
C3243 H3246 0.929 . S
C3244 C3243 1.363 . S
C3244 C3250 1.428 . S
H3245 C3241 0.930 . S
H3246 C3243 0.929 . S
S3247 N3248 1.613 . S
S3247 N3249 1.610 . S
N3248 S3247 1.613 . S
N3248 C3251 1.350 . S
N3249 S3247 1.610 . S
N3249 C3250 1.351 . S
C3250 C3244 1.428 . S
C3250 N3249 1.351 . S
C3250 C3251 1.434 . S
C3251 C3242 1.429 . S
C3251 N3248 1.350 . S
C3251 C3250 1.434 . S
C3252 C3253 1.369 . S
C3252 C3254 1.419 . S
C3252 H3256 0.930 . S
C3253 C3252 1.369 . S
C3253 C3262 1.429 . S
C3254 C3252 1.419 . S
C3254 C3255 1.363 . S
C3254 H3257 0.929 . S
C3255 C3254 1.363 . S
C3255 C3261 1.428 . S
H3256 C3252 0.930 . S
H3257 C3254 0.929 . S
S3258 N3259 1.613 . S
S3258 N3260 1.610 . S
N3259 S3258 1.613 . S
N3259 C3262 1.350 . S
N3260 S3258 1.610 . S
N3260 C3261 1.351 . S
C3261 C3255 1.428 . S
C3261 N3260 1.351 . S
C3261 C3262 1.434 . S
C3262 C3253 1.429 . S
C3262 N3259 1.350 . S
C3262 C3261 1.434 . S
C3263 C3264 1.369 . S
C3263 C3265 1.419 . S
C3263 H3267 0.930 . S
C3264 C3263 1.369 . S
C3264 C3273 1.429 . S
C3265 C3263 1.419 . S
C3265 C3266 1.363 . S
C3265 H3268 0.929 . S
C3266 C3265 1.363 . S
C3266 C3272 1.428 . S
H3267 C3263 0.930 . S
H3268 C3265 0.929 . S
S3269 N3270 1.613 . S
S3269 N3271 1.610 . S
N3270 S3269 1.613 . S
N3270 C3273 1.350 . S
N3271 S3269 1.610 . S
N3271 C3272 1.351 . S
C3272 C3266 1.428 . S
C3272 N3271 1.351 . S
C3272 C3273 1.434 . S
C3273 C3264 1.429 . S
C3273 N3270 1.350 . S
C3273 C3272 1.434 . S
C3274 C3275 1.369 . S
C3274 C3276 1.419 . S
C3274 H3278 0.930 . S
C3275 C3274 1.369 . S
C3275 C3284 1.429 . S
C3276 C3274 1.419 . S
C3276 C3277 1.363 . S
C3276 H3279 0.929 . S
C3277 C3276 1.363 . S
C3277 C3283 1.428 . S
H3278 C3274 0.930 . S
H3279 C3276 0.929 . S
S3280 N3281 1.613 1_455 S
S3280 N3282 1.610 . S
N3281 S3280 1.613 1_655 S
N3281 C3284 1.350 . S
N3282 S3280 1.610 . S
N3282 C3283 1.351 1_455 S
C3283 C3277 1.428 . S
C3283 N3282 1.351 1_655 S
C3283 C3284 1.434 . S
C3284 C3275 1.429 . S
C3284 N3281 1.350 . S
C3284 C3283 1.434 . S
C3285 C3286 1.369 . S
C3285 C3287 1.419 . S
C3285 H3289 0.930 . S
C3286 C3285 1.369 . S
C3286 C3295 1.429 . S
C3287 C3285 1.419 . S
C3287 C3288 1.363 . S
C3287 H3290 0.929 . S
C3288 C3287 1.363 . S
C3288 C3294 1.428 . S
H3289 C3285 0.930 . S
H3290 C3287 0.929 . S
S3291 N3292 1.613 . S
S3291 N3293 1.610 . S
N3292 S3291 1.613 . S
N3292 C3295 1.350 . S
N3293 S3291 1.610 . S
N3293 C3294 1.351 . S
C3294 C3288 1.428 . S
C3294 N3293 1.351 . S
C3294 C3295 1.434 . S
C3295 C3286 1.429 . S
C3295 N3292 1.350 . S
C3295 C3294 1.434 . S
C3296 C3297 1.369 . S
C3296 C3298 1.419 . S
C3296 H3300 0.930 . S
C3297 C3296 1.369 . S
C3297 C3306 1.429 . S
C3298 C3296 1.419 . S
C3298 C3299 1.363 . S
C3298 H3301 0.929 . S
C3299 C3298 1.363 . S
C3299 C3305 1.428 . S
H3300 C3296 0.930 . S
H3301 C3298 0.929 . S
S3302 N3303 1.613 . S
S3302 N3304 1.610 . S
N3303 S3302 1.613 . S
N3303 C3306 1.350 . S
N3304 S3302 1.610 . S
N3304 C3305 1.351 . S
C3305 C3299 1.428 . S
C3305 N3304 1.351 . S
C3305 C3306 1.434 . S
C3306 C3297 1.429 . S
C3306 N3303 1.350 . S
C3306 C3305 1.434 . S
C3307 C3308 1.369 1_545 S
C3307 C3309 1.419 . S
C3307 H3311 0.930 . S
C3308 C3307 1.369 1_565 S
C3308 C3317 1.429 . S
C3309 C3307 1.419 . S
C3309 C3310 1.363 . S
C3309 H3312 0.929 . S
C3310 C3309 1.363 . S
C3310 C3316 1.428 1_545 S
H3311 C3307 0.930 . S
H3312 C3309 0.929 . S
S3313 N3314 1.613 . S
S3313 N3315 1.610 . S
N3314 S3313 1.613 . S
N3314 C3317 1.350 . S
N3315 S3313 1.610 . S
N3315 C3316 1.351 . S
C3316 C3310 1.428 1_565 S
C3316 N3315 1.351 . S
C3316 C3317 1.434 . S
C3317 C3308 1.429 . S
C3317 N3314 1.350 . S
C3317 C3316 1.434 . S
C3318 C3319 1.369 . S
C3318 C3320 1.419 . S
C3318 H3322 0.930 . S
C3319 C3318 1.369 . S
C3319 C3328 1.429 . S
C3320 C3318 1.419 . S
C3320 C3321 1.363 . S
C3320 H3323 0.929 . S
C3321 C3320 1.363 . S
C3321 C3327 1.428 . S
H3322 C3318 0.930 . S
H3323 C3320 0.929 . S
S3324 N3325 1.613 . S
S3324 N3326 1.610 . S
N3325 S3324 1.613 . S
N3325 C3328 1.350 . S
N3326 S3324 1.610 . S
N3326 C3327 1.351 . S
C3327 C3321 1.428 . S
C3327 N3326 1.351 . S
C3327 C3328 1.434 . S
C3328 C3319 1.429 . S
C3328 N3325 1.350 . S
C3328 C3327 1.434 . S
C3329 C3330 1.369 . S
C3329 C3331 1.419 . S
C3329 H3333 0.930 . S
C3330 C3329 1.369 . S
C3330 C3339 1.429 . S
C3331 C3329 1.419 . S
C3331 C3332 1.363 . S
C3331 H3334 0.929 . S
C3332 C3331 1.363 . S
C3332 C3338 1.428 . S
H3333 C3329 0.930 . S
H3334 C3331 0.929 . S
S3335 N3336 1.613 . S
S3335 N3337 1.598 1_556 S
N3336 S3335 1.613 . S
N3336 C3339 1.350 1_556 S
N3337 S3335 1.598 1_554 S
N3337 C3338 1.364 . S
C3338 C3332 1.428 . S
C3338 N3337 1.364 . S
C3338 C3339 1.434 . S
C3339 C3330 1.429 . S
C3339 N3336 1.350 1_554 S
C3339 C3338 1.434 . S
C3340 C3341 1.369 . S
C3340 C3342 1.419 . S
C3340 H3344 0.930 . S
C3341 C3340 1.369 . S
C3341 C3350 1.429 . S
C3342 C3340 1.419 . S
C3342 C3343 1.363 . S
C3342 H3345 0.929 . S
C3343 C3342 1.363 . S
C3343 C3349 1.428 . S
H3344 C3340 0.930 . S
H3345 C3342 0.929 . S
S3346 N3347 1.613 . S
S3346 N3348 1.610 . S
N3347 S3346 1.613 . S
N3347 C3350 1.350 . S
N3348 S3346 1.610 . S
N3348 C3349 1.351 . S
C3349 C3343 1.428 . S
C3349 N3348 1.351 . S
C3349 C3350 1.434 . S
C3350 C3341 1.429 . S
C3350 N3347 1.350 . S
C3350 C3349 1.434 . S
C3351 C3352 1.369 . S
C3351 C3353 1.419 . S
C3351 H3355 0.930 . S
C3352 C3351 1.369 . S
C3352 C3361 1.429 . S
C3353 C3351 1.419 . S
C3353 C3354 1.363 . S
C3353 H3356 0.929 . S
C3354 C3353 1.363 . S
C3354 C3360 1.428 . S
H3355 C3351 0.930 . S
H3356 C3353 0.929 . S
S3357 N3358 1.613 . S
S3357 N3359 1.610 . S
N3358 S3357 1.613 . S
N3358 C3361 1.350 . S
N3359 S3357 1.610 . S
N3359 C3360 1.351 . S
C3360 C3354 1.428 . S
C3360 N3359 1.351 . S
C3360 C3361 1.434 . S
C3361 C3352 1.429 . S
C3361 N3358 1.350 . S
C3361 C3360 1.434 . S
C3362 C3363 1.369 . S
C3362 C3364 1.419 . S
C3362 H3366 0.930 . S
C3363 C3362 1.369 . S
C3363 C3372 1.429 . S
C3364 C3362 1.419 . S
C3364 C3365 1.363 . S
C3364 H3367 0.929 . S
C3365 C3364 1.363 . S
C3365 C3371 1.428 . S
H3366 C3362 0.930 . S
H3367 C3364 0.929 . S
S3368 N3369 1.613 . S
S3368 N3370 1.610 . S
N3369 S3368 1.613 . S
N3369 C3372 1.350 . S
N3370 S3368 1.610 . S
N3370 C3371 1.351 . S
C3371 C3365 1.428 . S
C3371 N3370 1.351 . S
C3371 C3372 1.434 . S
C3372 C3363 1.429 . S
C3372 N3369 1.350 . S
C3372 C3371 1.434 . S
C3373 C3374 1.369 . S
C3373 C3375 1.419 . S
C3373 H3377 0.930 . S
C3374 C3373 1.369 . S
C3374 C3383 1.429 . S
C3375 C3373 1.419 . S
C3375 C3376 1.363 . S
C3375 H3378 0.929 . S
C3376 C3375 1.363 . S
C3376 C3382 1.428 . S
H3377 C3373 0.930 . S
H3378 C3375 0.929 . S
S3379 N3380 1.613 . S
S3379 N3381 1.610 . S
N3380 S3379 1.613 . S
N3380 C3383 1.350 . S
N3381 S3379 1.610 . S
N3381 C3382 1.351 . S
C3382 C3376 1.428 . S
C3382 N3381 1.351 . S
C3382 C3383 1.434 . S
C3383 C3374 1.429 . S
C3383 N3380 1.350 . S
C3383 C3382 1.434 . S
C3384 C3385 1.369 . S
C3384 C3386 1.419 . S
C3384 H3388 0.930 . S
C3385 C3384 1.369 . S
C3385 C3394 1.429 . S
C3386 C3384 1.419 . S
C3386 C3387 1.363 . S
C3386 H3389 0.929 . S
C3387 C3386 1.363 . S
C3387 C3393 1.428 . S
H3388 C3384 0.930 . S
H3389 C3386 0.929 . S
S3390 N3391 1.613 . S
S3390 N3392 1.610 . S
N3391 S3390 1.613 . S
N3391 C3394 1.350 . S
N3392 S3390 1.610 . S
N3392 C3393 1.351 . S
C3393 C3387 1.428 . S
C3393 N3392 1.351 . S
C3393 C3394 1.434 . S
C3394 C3385 1.429 . S
C3394 N3391 1.350 . S
C3394 C3393 1.434 . S
C3395 C3396 1.369 . S
C3395 C3397 1.419 . S
C3395 H3399 0.930 . S
C3396 C3395 1.369 . S
C3396 C3405 1.429 . S
C3397 C3395 1.419 . S
C3397 C3398 1.363 . S
C3397 H3400 0.929 . S
C3398 C3397 1.363 . S
C3398 C3404 1.428 . S
H3399 C3395 0.930 . S
H3400 C3397 0.929 . S
S3401 N3402 1.613 . S
S3401 N3403 1.610 . S
N3402 S3401 1.613 . S
N3402 C3405 1.350 . S
N3403 S3401 1.610 . S
N3403 C3404 1.351 . S
C3404 C3398 1.428 . S
C3404 N3403 1.351 . S
C3404 C3405 1.434 . S
C3405 C3396 1.429 . S
C3405 N3402 1.350 . S
C3405 C3404 1.434 . S
C3406 C3407 1.369 1_554 S
C3406 C3408 1.419 . S
C3406 H3410 0.930 . S
C3407 C3406 1.369 1_556 S
C3407 C3416 1.429 . S
C3408 C3406 1.419 . S
C3408 C3409 1.363 1_554 S
C3408 H3411 0.929 . S
C3409 C3408 1.363 1_556 S
C3409 C3415 1.428 . S
H3410 C3406 0.930 . S
H3411 C3408 0.929 . S
S3412 N3413 1.613 . S
S3412 N3414 1.610 . S
N3413 S3412 1.613 . S
N3413 C3416 1.350 . S
N3414 S3412 1.610 . S
N3414 C3415 1.351 . S
C3415 C3409 1.428 . S
C3415 N3414 1.351 . S
C3415 C3416 1.434 . S
C3416 C3407 1.429 . S
C3416 N3413 1.350 . S
C3416 C3415 1.434 . S
C3417 C3418 1.369 . S
C3417 C3419 1.419 . S
C3417 H3421 0.930 . S
C3418 C3417 1.369 . S
C3418 C3427 1.429 . S
C3419 C3417 1.419 . S
C3419 C3420 1.363 . S
C3419 H3422 0.929 . S
C3420 C3419 1.363 . S
C3420 C3426 1.428 . S
H3421 C3417 0.930 . S
H3422 C3419 0.929 . S
S3423 N3424 1.613 . S
S3423 N3425 1.610 . S
N3424 S3423 1.613 . S
N3424 C3427 1.350 . S
N3425 S3423 1.610 . S
N3425 C3426 1.351 . S
C3426 C3420 1.428 . S
C3426 N3425 1.351 . S
C3426 C3427 1.434 . S
C3427 C3418 1.429 . S
C3427 N3424 1.350 . S
C3427 C3426 1.434 . S
C3428 C3429 1.369 . S
C3428 C3430 1.419 . S
C3428 H3432 0.930 . S
C3429 C3428 1.369 . S
C3429 C3438 1.429 . S
C3430 C3428 1.419 . S
C3430 C3431 1.363 . S
C3430 H3433 0.929 . S
C3431 C3430 1.363 . S
C3431 C3437 1.428 . S
H3432 C3428 0.930 . S
H3433 C3430 0.929 . S
S3434 N3435 1.613 . S
S3434 N3436 1.610 . S
N3435 S3434 1.613 . S
N3435 C3438 1.350 . S
N3436 S3434 1.610 . S
N3436 C3437 1.351 . S
C3437 C3431 1.428 . S
C3437 N3436 1.351 . S
C3437 C3438 1.434 . S
C3438 C3429 1.429 . S
C3438 N3435 1.350 . S
C3438 C3437 1.434 . S
C3439 C3440 1.369 . S
C3439 C3441 1.419 . S
C3439 H3443 0.930 . S
C3440 C3439 1.369 . S
C3440 C3449 1.429 . S
C3441 C3439 1.419 . S
C3441 C3442 1.363 . S
C3441 H3444 0.929 . S
C3442 C3441 1.363 . S
C3442 C3448 1.428 . S
H3443 C3439 0.930 . S
H3444 C3441 0.929 . S
S3445 N3446 1.613 . S
S3445 N3447 1.610 . S
N3446 S3445 1.613 . S
N3446 C3449 1.350 . S
N3447 S3445 1.610 . S
N3447 C3448 1.351 . S
C3448 C3442 1.428 . S
C3448 N3447 1.351 . S
C3448 C3449 1.434 . S
C3449 C3440 1.429 . S
C3449 N3446 1.350 . S
C3449 C3448 1.434 . S
C3450 C3451 1.369 . S
C3450 C3452 1.419 . S
C3450 H3454 0.930 . S
C3451 C3450 1.369 . S
C3451 C3460 1.429 . S
C3452 C3450 1.419 . S
C3452 C3453 1.363 . S
C3452 H3455 0.929 . S
C3453 C3452 1.363 . S
C3453 C3459 1.428 . S
H3454 C3450 0.930 . S
H3455 C3452 0.929 . S
S3456 N3457 1.613 . S
S3456 N3458 1.610 . S
N3457 S3456 1.613 . S
N3457 C3460 1.350 . S
N3458 S3456 1.610 . S
N3458 C3459 1.351 . S
C3459 C3453 1.428 . S
C3459 N3458 1.351 . S
C3459 C3460 1.434 . S
C3460 C3451 1.429 . S
C3460 N3457 1.350 . S
C3460 C3459 1.434 . S
C3461 C3462 1.369 . S
C3461 C3463 1.419 . S
C3461 H3465 0.930 . S
C3462 C3461 1.369 . S
C3462 C3471 1.429 . S
C3463 C3461 1.419 . S
C3463 C3464 1.363 . S
C3463 H3466 0.929 . S
C3464 C3463 1.363 . S
C3464 C3470 1.428 . S
H3465 C3461 0.930 . S
H3466 C3463 0.929 . S
S3467 N3468 1.613 . S
S3467 N3469 1.610 . S
N3468 S3467 1.613 . S
N3468 C3471 1.350 . S
N3469 S3467 1.610 . S
N3469 C3470 1.351 . S
C3470 C3464 1.428 . S
C3470 N3469 1.351 . S
C3470 C3471 1.434 . S
C3471 C3462 1.429 . S
C3471 N3468 1.350 . S
C3471 C3470 1.434 . S
C3472 C3473 1.369 . S
C3472 C3474 1.419 . S
C3472 H3476 0.930 . S
C3473 C3472 1.369 . S
C3473 C3482 1.429 . S
C3474 C3472 1.419 . S
C3474 C3475 1.363 . S
C3474 H3477 0.929 . S
C3475 C3474 1.363 . S
C3475 C3481 1.428 . S
H3476 C3472 0.930 . S
H3477 C3474 0.929 . S
S3478 N3479 1.613 . S
S3478 N3480 1.610 . S
N3479 S3478 1.613 . S
N3479 C3482 1.350 . S
N3480 S3478 1.610 . S
N3480 C3481 1.351 . S
C3481 C3475 1.428 . S
C3481 N3480 1.351 . S
C3481 C3482 1.434 . S
C3482 C3473 1.429 . S
C3482 N3479 1.350 . S
C3482 C3481 1.434 . S
C3483 C3484 1.369 . S
C3483 C3485 1.419 . S
C3483 H3487 0.930 . S
C3484 C3483 1.369 . S
C3484 C3493 1.429 . S
C3485 C3483 1.419 . S
C3485 C3486 1.363 . S
C3485 H3488 0.929 . S
C3486 C3485 1.363 . S
C3486 C3492 1.428 . S
H3487 C3483 0.930 . S
H3488 C3485 0.929 . S
S3489 N3490 1.613 . S
S3489 N3491 1.610 . S
N3490 S3489 1.613 . S
N3490 C3493 1.350 . S
N3491 S3489 1.610 . S
N3491 C3492 1.351 . S
C3492 C3486 1.428 . S
C3492 N3491 1.351 . S
C3492 C3493 1.434 . S
C3493 C3484 1.429 . S
C3493 N3490 1.350 . S
C3493 C3492 1.434 . S
C3494 C3495 1.369 . S
C3494 C3496 1.419 . S
C3494 H3498 0.930 . S
C3495 C3494 1.369 . S
C3495 C3504 1.429 . S
C3496 C3494 1.419 . S
C3496 C3497 1.363 . S
C3496 H3499 0.929 . S
C3497 C3496 1.363 . S
C3497 C3503 1.428 . S
H3498 C3494 0.930 . S
H3499 C3496 0.929 . S
S3500 N3501 1.613 . S
S3500 N3502 1.610 . S
N3501 S3500 1.613 . S
N3501 C3504 1.350 . S
N3502 S3500 1.610 . S
N3502 C3503 1.351 . S
C3503 C3497 1.428 . S
C3503 N3502 1.351 . S
C3503 C3504 1.434 . S
C3504 C3495 1.429 . S
C3504 N3501 1.350 . S
C3504 C3503 1.434 . S
C3505 C3506 1.369 . S
C3505 C3507 1.419 . S
C3505 H3509 0.930 . S
C3506 C3505 1.369 . S
C3506 C3515 1.429 . S
C3507 C3505 1.419 . S
C3507 C3508 1.363 . S
C3507 H3510 0.929 . S
C3508 C3507 1.363 . S
C3508 C3514 1.428 . S
H3509 C3505 0.930 . S
H3510 C3507 0.929 . S
S3511 N3512 1.613 . S
S3511 N3513 1.610 . S
N3512 S3511 1.613 . S
N3512 C3515 1.350 . S
N3513 S3511 1.610 . S
N3513 C3514 1.351 . S
C3514 C3508 1.428 . S
C3514 N3513 1.351 . S
C3514 C3515 1.434 . S
C3515 C3506 1.429 . S
C3515 N3512 1.350 . S
C3515 C3514 1.434 . S
C3516 C3517 1.369 . S
C3516 C3518 1.419 . S
C3516 H3520 0.930 . S
C3517 C3516 1.369 . S
C3517 C3526 1.429 . S
C3518 C3516 1.419 . S
C3518 C3519 1.363 . S
C3518 H3521 0.929 . S
C3519 C3518 1.363 . S
C3519 C3525 1.428 . S
H3520 C3516 0.930 . S
H3521 C3518 0.929 . S
S3522 N3523 1.613 . S
S3522 N3524 1.610 . S
N3523 S3522 1.613 . S
N3523 C3526 1.350 . S
N3524 S3522 1.610 . S
N3524 C3525 1.351 . S
C3525 C3519 1.428 . S
C3525 N3524 1.351 . S
C3525 C3526 1.434 . S
C3526 C3517 1.429 . S
C3526 N3523 1.350 . S
C3526 C3525 1.434 . S
C3527 C3528 1.369 . S
C3527 C3529 1.419 . S
C3527 H3531 0.930 . S
C3528 C3527 1.369 . S
C3528 C3537 1.429 . S
C3529 C3527 1.419 . S
C3529 C3530 1.363 . S
C3529 H3532 0.929 . S
C3530 C3529 1.363 . S
C3530 C3536 1.428 . S
H3531 C3527 0.930 . S
H3532 C3529 0.929 . S
S3533 N3534 1.613 . S
S3533 N3535 1.610 . S
N3534 S3533 1.613 . S
N3534 C3537 1.350 . S
N3535 S3533 1.610 . S
N3535 C3536 1.351 . S
C3536 C3530 1.428 . S
C3536 N3535 1.351 . S
C3536 C3537 1.434 . S
C3537 C3528 1.429 . S
C3537 N3534 1.350 . S
C3537 C3536 1.434 . S
C3538 C3539 1.369 . S
C3538 C3540 1.419 . S
C3538 H3542 0.930 . S
C3539 C3538 1.369 . S
C3539 C3548 1.429 . S
C3540 C3538 1.419 . S
C3540 C3541 1.363 . S
C3540 H3543 0.929 . S
C3541 C3540 1.363 . S
C3541 C3547 1.428 . S
H3542 C3538 0.930 . S
H3543 C3540 0.929 . S
S3544 N3545 1.613 . S
S3544 N3546 1.610 . S
N3545 S3544 1.613 . S
N3545 C3548 1.350 . S
N3546 S3544 1.610 . S
N3546 C3547 1.351 . S
C3547 C3541 1.428 . S
C3547 N3546 1.351 . S
C3547 C3548 1.434 . S
C3548 C3539 1.429 . S
C3548 N3545 1.350 . S
C3548 C3547 1.434 . S
C3549 C3550 1.369 . S
C3549 C3551 1.419 . S
C3549 H3553 0.930 . S
C3550 C3549 1.369 . S
C3550 C3559 1.429 . S
C3551 C3549 1.419 . S
C3551 C3552 1.363 . S
C3551 H3554 0.929 . S
C3552 C3551 1.363 . S
C3552 C3558 1.428 . S
H3553 C3549 0.930 . S
H3554 C3551 0.929 . S
S3555 N3556 1.613 . S
S3555 N3557 1.610 . S
N3556 S3555 1.613 . S
N3556 C3559 1.350 . S
N3557 S3555 1.610 . S
N3557 C3558 1.351 . S
C3558 C3552 1.428 . S
C3558 N3557 1.351 . S
C3558 C3559 1.434 . S
C3559 C3550 1.429 . S
C3559 N3556 1.350 . S
C3559 C3558 1.434 . S
C3560 C3561 1.369 . S
C3560 C3562 1.419 . S
C3560 H3564 0.930 . S
C3561 C3560 1.369 . S
C3561 C3570 1.429 . S
C3562 C3560 1.419 . S
C3562 C3563 1.363 . S
C3562 H3565 0.929 . S
C3563 C3562 1.363 . S
C3563 C3569 1.428 . S
H3564 C3560 0.930 . S
H3565 C3562 0.929 . S
S3566 N3567 1.613 . S
S3566 N3568 1.610 . S
N3567 S3566 1.613 . S
N3567 C3570 1.350 . S
N3568 S3566 1.610 . S
N3568 C3569 1.351 . S
C3569 C3563 1.428 . S
C3569 N3568 1.351 . S
C3569 C3570 1.434 . S
C3570 C3561 1.429 . S
C3570 N3567 1.350 . S
C3570 C3569 1.434 . S
C3571 C3572 1.369 . S
C3571 C3573 1.419 . S
C3571 H3575 0.930 . S
C3572 C3571 1.369 . S
C3572 C3581 1.429 . S
C3573 C3571 1.419 . S
C3573 C3574 1.363 . S
C3573 H3576 0.929 . S
C3574 C3573 1.363 . S
C3574 C3580 1.428 . S
H3575 C3571 0.930 . S
H3576 C3573 0.929 . S
S3577 N3578 1.613 . S
S3577 N3579 1.610 . S
N3578 S3577 1.613 . S
N3578 C3581 1.350 . S
N3579 S3577 1.610 . S
N3579 C3580 1.351 . S
C3580 C3574 1.428 . S
C3580 N3579 1.351 . S
C3580 C3581 1.434 . S
C3581 C3572 1.429 . S
C3581 N3578 1.350 . S
C3581 C3580 1.434 . S
C3582 C3583 1.369 . S
C3582 C3584 1.419 . S
C3582 H3586 0.930 . S
C3583 C3582 1.369 . S
C3583 C3592 1.429 . S
C3584 C3582 1.419 . S
C3584 C3585 1.363 . S
C3584 H3587 0.929 . S
C3585 C3584 1.363 . S
C3585 C3591 1.428 . S
H3586 C3582 0.930 . S
H3587 C3584 0.929 . S
S3588 N3589 1.613 . S
S3588 N3590 1.610 . S
N3589 S3588 1.613 . S
N3589 C3592 1.350 . S
N3590 S3588 1.610 . S
N3590 C3591 1.351 . S
C3591 C3585 1.428 . S
C3591 N3590 1.351 . S
C3591 C3592 1.434 . S
C3592 C3583 1.429 . S
C3592 N3589 1.350 . S
C3592 C3591 1.434 . S
C3593 C3594 1.378 . S
C3593 C3595 1.417 1_554 S
C3593 H3597 0.922 1_554 S
C3594 C3593 1.378 . S
C3594 C3603 1.422 1_565 S
C3595 C3593 1.417 1_556 S
C3595 C3596 1.363 1_566 S
C3595 H3598 0.929 . S
C3596 C3595 1.363 1_544 S
C3596 C3602 1.428 . S
H3597 C3593 0.922 1_556 S
H3598 C3595 0.929 . S
S3599 N3600 1.613 . S
S3599 N3601 1.610 . S
N3600 S3599 1.613 . S
N3600 C3603 1.353 . S
N3601 S3599 1.610 . S
N3601 C3602 1.351 . S
C3602 C3596 1.428 . S
C3602 N3601 1.351 . S
C3602 C3603 1.438 . S
C3603 C3594 1.422 1_545 S
C3603 N3600 1.353 . S
C3603 C3602 1.438 . S
C3604 C3605 1.369 . S
C3604 C3606 1.419 . S
C3604 H3608 0.930 . S
C3605 C3604 1.369 . S
C3605 C3614 1.429 . S
C3606 C3604 1.419 . S
C3606 C3607 1.363 . S
C3606 H3609 0.929 . S
C3607 C3606 1.363 . S
C3607 C3613 1.428 . S
H3608 C3604 0.930 . S
H3609 C3606 0.929 . S
S3610 N3611 1.613 . S
S3610 N3612 1.610 . S
N3611 S3610 1.613 . S
N3611 C3614 1.350 . S
N3612 S3610 1.610 . S
N3612 C3613 1.351 . S
C3613 C3607 1.428 . S
C3613 N3612 1.351 . S
C3613 C3614 1.434 . S
C3614 C3605 1.429 . S
C3614 N3611 1.350 . S
C3614 C3613 1.434 . S
C3615 C3616 1.369 . S
C3615 C3617 1.419 . S
C3615 H3619 0.930 . S
C3616 C3615 1.369 . S
C3616 C3625 1.429 . S
C3617 C3615 1.419 . S
C3617 C3618 1.363 . S
C3617 H3620 0.929 . S
C3618 C3617 1.363 . S
C3618 C3624 1.428 . S
H3619 C3615 0.930 . S
H3620 C3617 0.929 . S
S3621 N3622 1.613 . S
S3621 N3623 1.610 . S
N3622 S3621 1.613 . S
N3622 C3625 1.350 . S
N3623 S3621 1.610 . S
N3623 C3624 1.351 . S
C3624 C3618 1.428 . S
C3624 N3623 1.351 . S
C3624 C3625 1.434 . S
C3625 C3616 1.429 . S
C3625 N3622 1.350 . S
C3625 C3624 1.434 . S
C3626 C3627 1.369 . S
C3626 C3628 1.419 . S
C3626 H3630 0.930 . S
C3627 C3626 1.369 . S
C3627 C3636 1.429 . S
C3628 C3626 1.419 . S
C3628 C3629 1.363 . S
C3628 H3631 0.929 . S
C3629 C3628 1.363 . S
C3629 C3635 1.428 . S
H3630 C3626 0.930 . S
H3631 C3628 0.929 . S
S3632 N3633 1.613 . S
S3632 N3634 1.610 . S
N3633 S3632 1.613 . S
N3633 C3636 1.350 . S
N3634 S3632 1.610 . S
N3634 C3635 1.351 . S
C3635 C3629 1.428 . S
C3635 N3634 1.351 . S
C3635 C3636 1.434 . S
C3636 C3627 1.429 . S
C3636 N3633 1.350 . S
C3636 C3635 1.434 . S
C3637 C3638 1.369 . S
C3637 C3639 1.419 . S
C3637 H3641 0.930 . S
C3638 C3637 1.369 . S
C3638 C3647 1.429 . S
C3639 C3637 1.419 . S
C3639 C3640 1.363 . S
C3639 H3642 0.929 . S
C3640 C3639 1.363 . S
C3640 C3646 1.428 . S
H3641 C3637 0.930 . S
H3642 C3639 0.929 . S
S3643 N3644 1.613 . S
S3643 N3645 1.610 . S
N3644 S3643 1.613 . S
N3644 C3647 1.350 . S
N3645 S3643 1.610 . S
N3645 C3646 1.351 . S
C3646 C3640 1.428 . S
C3646 N3645 1.351 . S
C3646 C3647 1.434 . S
C3647 C3638 1.429 . S
C3647 N3644 1.350 . S
C3647 C3646 1.434 . S
C2595 C2113 1.791 . S
C2593 C49 1.802 . S
C2604 C137 0.961 . S
C2606 C2158 0.962 . S
C2615 C205 1.685 . S
C2617 C2182 1.653 . S
C2628 N2208 1.125 . S
C2626 C284 1.096 . S
C2637 C117 1.140 . S
C2639 N2238 1.170 . S
C2650 C2272 1.577 . S
C2648 C225 1.604 . S
C2661 C2308 1.106 . S
C2659 C321 1.096 . S
C2670 C29 1.740 . S
C2672 C2332 1.703 . S
C2681 C401 0.981 . S
C2683 N2126 0.987 . S
C2692 C497 1.156 . S
C2694 N2148 1.177 . S
C2705 C2188 0.983 . S
C2703 C585 0.978 . S
C2716 C2212 1.730 . S
C2714 C665 1.762 . S
C2725 C372 1.224 . S
C2727 C2242 1.187 . S
C2738 C2278 1.046 . S
C2736 C469 1.041 . S
C2749 N2298 1.173 . S
C2747 C557 1.145 . S
C2760 C2338 1.708 . S
C2758 C636 1.725 . S
C2771 C2139 1.655 . S
C2769 C673 1.664 . S
C2782 C2368 0.958 . S
C2780 C724 0.950 . S
C2791 C821 1.163 . S
C2793 N2388 1.200 . S
C2804 C2422 1.569 . S
C2802 C909 1.604 . S
C2813 C381 0.975 . S
C2815 N2328 0.981 . S
C2826 N2178 1.152 1_565 S
C2824 C489 1.135 . S
C2835 C849 1.036 . S
C2837 C2458 1.043 . S
C2848 C2482 1.084 . S
C2846 C1017 1.120 . S
C2857 C1085 1.803 . S
C2859 C2122 1.793 1_556 S
C2870 C2499 0.967 . S
C2868 C1201 0.965 . S
C2879 C1289 1.684 . S
C2881 C2173 1.658 . S
C2890 C1349 1.097 . S
C2892 N2456 1.128 . S
C2903 N2246 1.174 . S
C2901 C1193 1.139 . S
C2914 C2383 1.578 . S
C2912 C1281 1.610 . S
C2925 C2319 1.106 . S
C2923 C1340 1.101 . S
C2936 C2503 1.705 . S
C2934 C1076 1.746 . S
C2947 N2118 0.988 . S
C2945 C1428 0.987 . S
C2956 C1516 1.159 . S
C2958 N2486 1.177 . S
C2969 C2199 0.986 . S
C2967 C1604 0.984 . S
C2978 C1701 1.764 . S
C2980 C2443 1.730 . S
C2989 C1457 1.231 . S
C2991 C2233 1.183 1_655 S
C3000 C1545 1.039 . S
C3002 C2409 1.049 . S
C3013 N2306 1.170 . S
C3011 C1633 1.152 . S
C3022 C1729 1.733 . S
C3024 C2529 1.709 . S
C3033 C1721 1.667 . S
C3035 C2128 1.660 . S
C3044 C1789 0.960 . S
C3046 C2379 0.960 . S
C3055 C1868 1.170 . S
C3057 N2276 1.199 . S
C3066 C1956 1.606 . S
C3068 C2413 1.572 . S
C3079 N2516 0.980 . S
C3077 C1437 0.981 . S
C3090 N2186 1.158 . S
C3088 C1553 1.131 . S
C3101 C2229 1.048 . S
C3099 C1897 1.038 . S
C3112 C2143 1.079 . S
C3110 C2081 1.126 . S
C3121 C233 1.799 . S
C3123 C2533 1.790 . S
C3134 C2488 0.963 . S
C3132 C313 0.956 . S
C3145 C2572 1.656 . S
C3143 C20 1.680 . S
C3154 C108 1.106 . S
C3156 N2448 1.122 . S
C3165 C293 1.140 . S
C3167 N2358 1.153 1_556 S
C3178 C2392 1.573 . S
C3176 C57 1.607 . S
C3189 C2428 1.102 . S
C3187 C145 1.099 . S
C3200 C2512 1.708 . S
C3198 C196 1.739 . S
C3211 N2546 0.988 . S
C3209 C1025 0.978 . S
C3220 C761 1.157 . S
C3222 N2478 1.176 . S
C3231 C841 0.979 . S
C3233 C2578 0.982 1_655 S
C3244 C2452 1.730 . S
C3242 C929 1.760 . S
C3255 C2362 1.177 . S
C3253 C997 1.233 . S
C3264 C733 1.041 . S
C3266 C2398 1.045 . S
C3277 N2418 1.174 . S
C3275 C812 1.141 . S
C3286 C900 1.729 . S
C3288 C2518 1.705 . S
C3299 C2559 1.657 . S
C3297 C937 1.660 . S
C3310 C2248 0.958 . S
C3308 C460 0.950 . S
C3321 N2268 1.200 . S
C3319 C548 1.163 . S
C3330 C645 1.605 . S
C3332 C2302 1.569 . S
C3343 N2508 0.975 . S
C3341 C988 0.985 . S
C3352 C753 1.133 . S
C3354 N2568 1.155 . S
C3365 C2218 1.045 . S
C3363 C577 1.040 . S
C3376 C2152 1.078 . S
C3374 C409 1.123 . S
C3385 C1261 1.803 . S
C3387 C2542 1.793 . S
C3398 C2169 0.964 . S
C3396 C1377 0.959 . S
C3409 C2563 1.659 1_556 S
C3407 C1113 1.683 . S
C3418 C1173 1.105 . S
C3420 N2216 1.118 . S
C3429 C1369 1.151 . S
C3431 N2366 1.168 . S
C3440 C1105 1.612 . S
C3442 C2263 1.573 . S
C3451 C1164 1.101 . S
C3453 C2439 1.104 . S
C3462 C1252 1.742 . S
C3464 C2323 1.710 . S
C3475 N2538 0.987 . S
C3473 C2044 0.988 . S
C3484 C1780 1.152 . S
C3486 N2156 1.177 . S
C3497 C2589 0.985 . S
C3495 C1877 0.981 . S
C3506 C1965 1.768 . S
C3508 C2203 1.730 . S
C3517 C2073 1.235 . S
C3519 C2353 1.182 . S
C3530 C2289 1.049 . S
C3528 C1809 1.045 . S
C3539 C1905 1.144 . S
C3541 N2426 1.175 . S
C3552 C2349 1.706 . S
C3550 C1993 1.734 . S
C3563 C2548 1.659 . S
C3561 C1985 1.668 . S
C3574 C2259 0.961 . S
C3572 C1525 0.957 . S
C3583 C1613 1.180 . S
C3585 N2396 1.193 . S
C3596 C2293 1.572 . S
C3594 C1692 1.606 . S
C3607 N2336 0.978 . S
C3605 C2053 0.982 . S
C3616 C1817 1.140 . S
C3618 N2576 1.150 . S
C3629 C2469 1.047 . S
C3627 C1641 1.045 . S
C3640 C2473 1.078 . S
C3638 C1465 1.130 . S
