# Generated by pormake.
# Topology apo, (3,6)-cn, num edge types: 1
# Building blocks:
#     Node 0, Type 0, BuildingBlock: OLANEW_clean_sbu_2, # of connection points: 3
#     Node 1, Type 0, BuildingBlock: OLANEW_clean_sbu_2, # of connection points: 3
#     Node 2, Type 0, BuildingBlock: OLANEW_clean_sbu_2, # of connection points: 3
#     Node 3, Type 0, BuildingBlock: OLANEW_clean_sbu_2, # of connection points: 3
#     Node 4, Type 0, BuildingBlock: OLANEW_clean_sbu_2, # of connection points: 3
#     Node 5, Type 0, BuildingBlock: OLANEW_clean_sbu_2, # of connection points: 3
#     Node 6, Type 0, BuildingBlock: OLANEW_clean_sbu_2, # of connection points: 3
#     Node 7, Type 0, BuildingBlock: OLANEW_clean_sbu_2, # of connection points: 3
#     Node 8, Type 1, BuildingBlock: KUMBOL_clean_sbu_1, # of connection points: 6
#     Node 9, Type 1, BuildingBlock: KUMBOL_clean_sbu_1, # of connection points: 6
#     Node 10, Type 1, BuildingBlock: KUMBOL_clean_sbu_1, # of connection points: 6
#     Node 11, Type 1, BuildingBlock: KUMBOL_clean_sbu_1, # of connection points: 6
#     Edge 12, Type (0, 1), BuildingBlock: XIVTED_clean_linker_0, # of connection points: 2
#     Edge 13, Type (0, 1), BuildingBlock: XIVTED_clean_linker_0, # of connection points: 2
#     Edge 14, Type (0, 1), BuildingBlock: XIVTED_clean_linker_0, # of connection points: 2
#     Edge 15, Type (0, 1), BuildingBlock: XIVTED_clean_linker_0, # of connection points: 2
#     Edge 16, Type (0, 1), BuildingBlock: XIVTED_clean_linker_0, # of connection points: 2
#     Edge 17, Type (0, 1), BuildingBlock: XIVTED_clean_linker_0, # of connection points: 2
#     Edge 18, Type (0, 1), BuildingBlock: XIVTED_clean_linker_0, # of connection points: 2
#     Edge 19, Type (0, 1), BuildingBlock: XIVTED_clean_linker_0, # of connection points: 2
#     Edge 20, Type (0, 1), BuildingBlock: XIVTED_clean_linker_0, # of connection points: 2
#     Edge 21, Type (0, 1), BuildingBlock: XIVTED_clean_linker_0, # of connection points: 2
#     Edge 22, Type (0, 1), BuildingBlock: XIVTED_clean_linker_0, # of connection points: 2
#     Edge 23, Type (0, 1), BuildingBlock: XIVTED_clean_linker_0, # of connection points: 2
#     Edge 24, Type (0, 1), BuildingBlock: XIVTED_clean_linker_0, # of connection points: 2
#     Edge 25, Type (0, 1), BuildingBlock: XIVTED_clean_linker_0, # of connection points: 2
#     Edge 26, Type (0, 1), BuildingBlock: XIVTED_clean_linker_0, # of connection points: 2
#     Edge 27, Type (0, 1), BuildingBlock: XIVTED_clean_linker_0, # of connection points: 2
#     Edge 28, Type (0, 1), BuildingBlock: XIVTED_clean_linker_0, # of connection points: 2
#     Edge 29, Type (0, 1), BuildingBlock: XIVTED_clean_linker_0, # of connection points: 2
#     Edge 30, Type (0, 1), BuildingBlock: XIVTED_clean_linker_0, # of connection points: 2
#     Edge 31, Type (0, 1), BuildingBlock: XIVTED_clean_linker_0, # of connection points: 2
#     Edge 32, Type (0, 1), BuildingBlock: XIVTED_clean_linker_0, # of connection points: 2
#     Edge 33, Type (0, 1), BuildingBlock: XIVTED_clean_linker_0, # of connection points: 2
#     Edge 34, Type (0, 1), BuildingBlock: XIVTED_clean_linker_0, # of connection points: 2
#     Edge 35, Type (0, 1), BuildingBlock: XIVTED_clean_linker_0, # of connection points: 2
# Relax obj value: 0.030
# Max RMSD: 0.224
# Mean RMSD: 0.134
data_MOF--net-apo--node1-OLANEW_clean_sbu_2--node2-KUMBOL_clean_sbu_1--edge1-XIVTED_clean_linker_0
_symmetry_space_group_name_H-M    P1
_symmetry_Int_Tables_number       1
_symmetry_cell_setting            triclinic
loop_
_symmetry_equiv_pos_as_xyz
'x, y, z'
_cell_length_a     28.791318
_cell_length_b     44.781013
_cell_length_c     56.170556
_cell_angle_alpha  88.730163
_cell_angle_beta   89.989761
_cell_angle_gamma 90.198266
loop_
_atom_site_label
_atom_site_type_symbol
_atom_site_fract_x
_atom_site_fract_y
_atom_site_fract_z
_atom_type_partial_charge
O0 O 0.33558 0.40068 0.36272 0.0
Cd1 Cd 0.30421 0.35837 0.38598 0.0
O2 O 0.32375 0.43129 0.39221 0.0
Cd3 Cd 0.30712 0.39709 0.41912 0.0
O4 O 0.32363 0.38283 0.45547 0.0
C5 C 0.29772 0.38997 0.47274 0.0
O6 O 0.25832 0.40368 0.46822 0.0
C7 C 0.33638 0.42695 0.37088 0.0
C8 C 0.25525 0.31848 0.3578 0.0
O9 O 0.23617 0.34231 0.3653 0.0
O10 O 0.29762 0.31343 0.36357 0.0
O11 O 0.27061 0.1225 0.93707 0.0
Cd12 Cd 0.29568 0.11611 0.89573 0.0
O13 O 0.19773 0.12787 0.92605 0.0
Cd14 Cd 0.20876 0.11896 0.88849 0.0
O15 O 0.18906 0.08994 0.8595 0.0
C16 C 0.20483 0.06347 0.85979 0.0
O17 O 0.23525 0.05569 0.87621 0.0
C18 C 0.22825 0.12687 0.9424 0.0
C19 C 0.34289 0.16474 0.87504 0.0
O20 O 0.2984 0.16344 0.87499 0.0
O21 O 0.36514 0.14329 0.88529 0.0
O22 O 0.85595 0.11407 0.63176 0.0
Cd23 Cd 0.83939 0.16192 0.61172 0.0
O24 O 0.88355 0.09261 0.59982 0.0
Cd25 Cd 0.86915 0.12882 0.57424 0.0
O26 O 0.8651 0.14757 0.53804 0.0
C27 C 0.86434 0.12867 0.52148 0.0
O28 O 0.86509 0.10007 0.52724 0.0
C29 C 0.87438 0.09167 0.62197 0.0
C30 C 0.77977 0.19718 0.63844 0.0
O31 O 0.76435 0.18205 0.62101 0.0
O32 O 0.8232 0.19565 0.64327 0.0
O33 O 0.68689 0.33943 0.06537 0.0
Cd34 Cd 0.69152 0.34769 0.10813 0.0
O35 O 0.73133 0.37744 0.05464 0.0
Cd36 Cd 0.73054 0.39543 0.0904 0.0
O37 O 0.70588 0.42595 0.11736 0.0
C38 C 0.67448 0.44405 0.11044 0.0
O39 O 0.65975 0.44289 0.08834 0.0
C40 C 0.70784 0.3545 0.04918 0.0
C41 C 0.76215 0.31325 0.12857 0.0
O42 O 0.72222 0.30194 0.12416 0.0
O43 O 0.76878 0.34098 0.1235 0.0
O44 O 0.6954 0.59813 0.6308 0.0
Cd45 Cd 0.72037 0.6391 0.60417 0.0
O46 O 0.72216 0.56404 0.6068 0.0
Cd47 Cd 0.73606 0.59482 0.57704 0.0
O48 O 0.71982 0.60371 0.53965 0.0
C49 C 0.6771 0.60163 0.5342 0.0
O50 O 0.64671 0.59657 0.55129 0.0
C51 C 0.70324 0.57087 0.62638 0.0
C52 C 0.77113 0.68216 0.62834 0.0
O53 O 0.72722 0.68495 0.62528 0.0
O54 O 0.79096 0.65907 0.61996 0.0
O55 O 0.84343 0.90323 0.13558 0.0
Cd56 Cd 0.81018 0.86311 0.11192 0.0
O57 O 0.81974 0.9375 0.10968 0.0
Cd58 Cd 0.79744 0.90644 0.08246 0.0
O59 O 0.79286 0.89127 0.04581 0.0
C60 C 0.83053 0.88742 0.03448 0.0
O61 O 0.87017 0.89094 0.04569 0.0
C62 C 0.83923 0.93058 0.12935 0.0
C63 C 0.75424 0.82341 0.13832 0.0
O64 O 0.79765 0.81839 0.13537 0.0
O65 O 0.7373 0.84738 0.129 0.0
O66 O 0.24771 0.92342 0.36 0.0
Cd67 Cd 0.28956 0.88894 0.38672 0.0
O68 O 0.2264 0.95044 0.39035 0.0
Cd69 Cd 0.25144 0.92082 0.41886 0.0
O70 O 0.24987 0.90411 0.45565 0.0
C71 C 0.21273 0.90957 0.46698 0.0
O72 O 0.17895 0.92365 0.45576 0.0
C73 C 0.22756 0.94634 0.36803 0.0
C74 C 0.33573 0.84382 0.3629 0.0
O75 O 0.29548 0.83921 0.37206 0.0
O76 O 0.35398 0.86979 0.36485 0.0
O77 O 0.27747 0.58052 0.86126 0.0
Cd78 Cd 0.22952 0.61345 0.88546 0.0
O79 O 0.30152 0.55765 0.89403 0.0
Cd80 Cd 0.2687 0.58681 0.91945 0.0
O81 O 0.26649 0.60505 0.95497 0.0
C82 C 0.30566 0.6064 0.9653 0.0
O83 O 0.34292 0.59824 0.95362 0.0
C84 C 0.30113 0.55996 0.87144 0.0
C85 C 0.18398 0.65948 0.86081 0.0
O86 O 0.22303 0.66417 0.87106 0.0
O87 O 0.16705 0.63298 0.86182 0.0
C88 C 0.89383 0.09376 0.2451 0.0
C89 C 0.90607 0.04641 0.26575 0.0
C90 C 0.91973 0.07615 0.26067 0.0
C91 C 0.86735 0.03437 0.25407 0.0
C92 C 0.85371 0.08229 0.23417 0.0
C93 C 0.84115 0.0523 0.23835 0.0
N94 N 0.9076 0.1224 0.24092 0.0
C95 C 0.88086 0.14163 0.22768 0.0
C96 C 0.82727 0.10144 0.21954 0.0
C97 C 0.84059 0.13135 0.21654 0.0
Gd98 Gd 0.08533 0.13968 0.2136 0.0
Gd99 Gd 0.9761 0.13777 0.25956 0.0
N100 N 0.95671 0.08859 0.27181 0.0
C101 C 0.93087 0.02998 0.28296 0.0
C102 C 0.97844 0.07346 0.28999 0.0
C103 C 0.96666 0.04376 0.29544 0.0
H104 H 0.00447 0.08429 0.3006 0.0
H105 H 0.98477 0.03167 0.30949 0.0
H106 H 0.08014 0.20972 0.19282 0.0
H107 H 0.89121 0.16473 0.22543 0.0
H108 H 0.12316 0.25741 0.19719 0.0
H109 H 0.92153 0.00706 0.28737 0.0
H110 H 0.85666 0.01146 0.25754 0.0
H111 H 0.15874 0.08568 0.23328 0.0
H112 H 0.7962 0.09348 0.2108 0.0
H113 H 0.81995 0.14644 0.20562 0.0
H114 H 0.25044 0.23149 0.24899 0.0
H115 H 0.81081 0.04292 0.22986 0.0
H116 H 0.27143 0.12782 0.26921 0.0
H117 H 0.23003 0.08193 0.25743 0.0
N118 N 0.15653 0.13315 0.23377 0.0
C119 C 0.18069 0.15847 0.23843 0.0
C120 C 0.17516 0.10586 0.23928 0.0
C121 C 0.23945 0.12959 0.25912 0.0
C122 C 0.21615 0.10364 0.25255 0.0
C123 C 0.22251 0.15744 0.25148 0.0
H124 H 0.27866 0.18377 0.26603 0.0
N125 N 0.12516 0.18531 0.21593 0.0
C126 C 0.16501 0.18531 0.22882 0.0
C127 C 0.17463 0.23817 0.22076 0.0
C128 C 0.19039 0.21188 0.23201 0.0
C129 C 0.11093 0.21042 0.20381 0.0
C130 C 0.1351 0.23733 0.20631 0.0
O131 O 0.97059 0.12046 0.22204 0.0
O132 O 0.04033 0.09829 0.21479 0.0
O133 O 0.07692 0.14544 0.17542 0.0
O134 O 0.13852 0.12417 0.18936 0.0
O135 O 0.04353 0.11654 0.27196 0.0
O136 O 0.07767 0.09853 0.23785 0.0
O137 O 0.07015 0.17693 0.23909 0.0
O138 O 0.04522 0.1538 0.27333 0.0
O139 O 0.93862 0.13822 0.29347 0.0
O140 O 0.94371 0.17871 0.27096 0.0
O141 O 0.01913 0.16201 0.20057 0.0
O142 O 0.98177 0.17807 0.23469 0.0
C143 C 0.99481 0.09823 0.21381 0.0
C144 C 0.0706 0.09747 0.26106 0.0
C145 C 0.11115 0.10887 0.15202 0.0
C146 C 0.12259 0.09466 0.11079 0.0
C147 C 0.08231 0.06117 0.13862 0.0
C148 C 0.08813 0.08172 0.15672 0.0
C149 C 0.09917 0.06761 0.11573 0.0
C150 C 0.12868 0.11515 0.12914 0.0
C151 C 0.11508 0.13153 0.17037 0.0
C152 C 0.2308 0.21123 0.24602 0.0
C153 C 0.24679 0.18407 0.25577 0.0
H154 H 0.19315 0.25906 0.22276 0.0
C155 C 0.07124 0.1738 0.2623 0.0
C156 C 0.98955 0.17947 0.21156 0.0
C157 C 0.90028 0.18307 0.30774 0.0
C158 C 0.87199 0.19008 0.34828 0.0
C159 C 0.85087 0.22525 0.3165 0.0
C160 C 0.87677 0.20904 0.30028 0.0
C161 C 0.84846 0.21592 0.34033 0.0
C162 C 0.89762 0.1736 0.33173 0.0
C163 C 0.92801 0.16629 0.29053 0.0
H164 H 0.06437 0.04028 0.14229 0.0
H165 H 0.07435 0.07657 0.17427 0.0
H166 H 0.09416 0.0514 0.10193 0.0
H167 H 0.14586 0.13635 0.12547 0.0
H168 H 0.8326 0.24515 0.31057 0.0
H169 H 0.8782 0.21674 0.28187 0.0
H170 H 0.82782 0.22881 0.3525 0.0
H171 H 0.91652 0.15389 0.33761 0.0
C172 C 0.67614 0.40253 0.75743 0.0
C173 C 0.67635 0.45549 0.76578 0.0
C174 C 0.6555 0.42702 0.76768 0.0
C175 C 0.71731 0.45922 0.75245 0.0
C176 C 0.71859 0.4059 0.7451 0.0
C177 C 0.73835 0.43448 0.74209 0.0
N178 N 0.6564 0.37516 0.76094 0.0
C179 C 0.68033 0.35006 0.75525 0.0
C180 C 0.74082 0.3803 0.73702 0.0
C181 C 0.7221 0.3522 0.7426 0.0
Gd182 Gd 0.47848 0.36677 0.73313 0.0
Gd183 Gd 0.58388 0.37447 0.78043 0.0
N184 N 0.61536 0.42281 0.78 0.0
C185 C 0.65567 0.47923 0.77762 0.0
C186 C 0.59627 0.44543 0.79259 0.0
C187 C 0.61582 0.47407 0.79136 0.0
H188 H 0.56553 0.44141 0.80323 0.0
H189 H 0.60011 0.49214 0.80095 0.0
H190 H 0.51614 0.31312 0.69616 0.0
H191 H 0.66786 0.32833 0.76089 0.0
H192 H 0.50411 0.25928 0.69063 0.0
H193 H 0.67062 0.50146 0.77661 0.0
H194 H 0.73353 0.481 0.75048 0.0
H195 H 0.3871 0.39089 0.76311 0.0
H196 H 0.77347 0.38191 0.72748 0.0
H197 H 0.74025 0.33217 0.73757 0.0
H198 H 0.37467 0.23495 0.74134 0.0
H199 H 0.77064 0.43754 0.73242 0.0
H200 H 0.2996 0.31583 0.78046 0.0
H201 H 0.3162 0.37003 0.7823 0.0
N202 N 0.41022 0.34883 0.75112 0.0
C203 C 0.40055 0.31937 0.7488 0.0
C204 C 0.37988 0.36725 0.76227 0.0
C205 C 0.33053 0.3249 0.77197 0.0
C206 C 0.3398 0.35551 0.77307 0.0
C207 C 0.36083 0.30644 0.75952 0.0
H208 H 0.32241 0.26528 0.7656 0.0
N209 N 0.46652 0.31613 0.72405 0.0
C210 C 0.43014 0.30237 0.73522 0.0
C211 C 0.44873 0.25596 0.71635 0.0
C212 C 0.42056 0.27184 0.7319 0.0
C213 C 0.49122 0.3014 0.70723 0.0
C214 C 0.48361 0.27098 0.70359 0.0
O215 O 0.56531 0.41192 0.7545 0.0
O216 O 0.54618 0.3873 0.72084 0.0
O217 O 0.44332 0.36335 0.69901 0.0
O218 O 0.44159 0.40476 0.71794 0.0
O219 O 0.51541 0.39499 0.79146 0.0
O220 O 0.4749 0.40713 0.7566 0.0
O221 O 0.47196 0.35036 0.7714 0.0
O222 O 0.54368 0.33128 0.779 0.0
O223 O 0.57139 0.3726 0.8186 0.0
O224 O 0.63997 0.36406 0.80494 0.0
O225 O 0.54934 0.3498 0.722 0.0
O226 O 0.58443 0.33365 0.75699 0.0
C227 C 0.56632 0.40973 0.73133 0.0
C228 C 0.48374 0.41052 0.77947 0.0
C229 C 0.44697 0.40777 0.67599 0.0
C230 C 0.44072 0.41447 0.63289 0.0
C231 C 0.49774 0.44289 0.65499 0.0
C232 C 0.4829 0.4291 0.67618 0.0
C233 C 0.47698 0.43557 0.63343 0.0
C234 C 0.42574 0.40074 0.65432 0.0
C235 C 0.43302 0.39159 0.69798 0.0
C236 C 0.38225 0.25845 0.74347 0.0
C237 C 0.3524 0.27574 0.75722 0.0
H238 H 0.44254 0.23247 0.7133 0.0
C239 C 0.49853 0.33014 0.78159 0.0
C240 C 0.57872 0.33237 0.73373 0.0
C241 C 0.6171 0.33717 0.83923 0.0
C242 C 0.63446 0.31512 0.87831 0.0
C243 C 0.61252 0.28349 0.84542 0.0
C244 C 0.60858 0.30861 0.83042 0.0
C245 C 0.62541 0.28663 0.86922 0.0
C246 C 0.62993 0.34036 0.86309 0.0
C247 C 0.61332 0.36372 0.8236 0.0
H248 H 0.52554 0.45922 0.65528 0.0
H249 H 0.49972 0.43497 0.69265 0.0
H250 H 0.48893 0.44663 0.6172 0.0
H251 H 0.39838 0.38404 0.65409 0.0
H252 H 0.6059 0.26149 0.83854 0.0
H253 H 0.59923 0.30578 0.81195 0.0
H254 H 0.62899 0.26675 0.88038 0.0
H255 H 0.63597 0.36255 0.86981 0.0
C256 C 0.84664 0.8386 0.74197 0.0
C257 C 0.84519 0.78709 0.75624 0.0
C258 C 0.86626 0.81561 0.75564 0.0
C259 C 0.80569 0.78174 0.74227 0.0
C260 C 0.80633 0.8335 0.72837 0.0
C261 C 0.78626 0.80489 0.72842 0.0
N262 N 0.86781 0.8658 0.74143 0.0
C263 C 0.84959 0.88917 0.72856 0.0
C264 C 0.78779 0.85723 0.71481 0.0
C265 C 0.80941 0.88521 0.715 0.0
Gd266 Gd 0.05454 0.86378 0.72794 0.0
Gd267 Gd 0.93418 0.87053 0.76513 0.0
N268 N 0.90479 0.82135 0.76892 0.0
C269 C 0.8636 0.76497 0.77142 0.0
C270 C 0.91957 0.80072 0.78553 0.0
C271 C 0.90031 0.77203 0.78649 0.0
H272 H 0.9452 0.80632 0.79867 0.0
H273 H 0.91312 0.75558 0.79926 0.0
H274 H 0.0519 0.93542 0.70675 0.0
H275 H 0.86623 0.91082 0.72877 0.0
H276 H 0.09587 0.98185 0.71165 0.0
H277 H 0.84843 0.74279 0.77239 0.0
H278 H 0.78941 0.75989 0.74237 0.0
H279 H 0.11514 0.81043 0.75622 0.0
H280 H 0.75688 0.85418 0.70413 0.0
H281 H 0.7952 0.90371 0.70467 0.0
H282 H 0.2247 0.95314 0.76102 0.0
H283 H 0.75559 0.80045 0.71788 0.0
H284 H 0.23606 0.85056 0.78648 0.0
H285 H 0.18691 0.80598 0.78016 0.0
N286 N 0.12255 0.85716 0.7502 0.0
C287 C 0.14965 0.88179 0.75285 0.0
C288 C 0.13577 0.8301 0.75944 0.0
C289 C 0.2044 0.85266 0.77616 0.0
C290 C 0.17667 0.82746 0.77271 0.0
C291 C 0.19118 0.88024 0.7661 0.0
H292 H 0.2499 0.90543 0.7792 0.0
N293 N 0.0945 0.90964 0.73025 0.0
C294 C 0.13525 0.90877 0.74259 0.0
C295 C 0.14733 0.96145 0.73449 0.0
C296 C 0.16238 0.93477 0.74531 0.0
C297 C 0.08133 0.9352 0.71847 0.0
C298 C 0.10696 0.96155 0.72076 0.0
O299 O 0.933 0.8557 0.72668 0.0
O300 O 0.99961 0.82853 0.72281 0.0
O301 O 0.06964 0.87061 0.69022 0.0
O302 O 0.10258 0.83458 0.71009 0.0
O303 O 0.99397 0.84404 0.78159 0.0
O304 O 0.02824 0.82361 0.74861 0.0
O305 O 0.05698 0.88151 0.76536 0.0
O306 O 0.98821 0.90632 0.77109 0.0
O307 O 0.9118 0.86925 0.80269 0.0
O308 O 0.88063 0.90038 0.77688 0.0
O309 O 0.99821 0.89388 0.71228 0.0
O310 O 0.95578 0.91162 0.74415 0.0
C311 C 0.95568 0.83314 0.71788 0.0
C312 C 0.01946 0.82335 0.77156 0.0
C313 C 0.14612 0.85787 0.67911 0.0
C314 C 0.19135 0.86961 0.64326 0.0
C315 C 0.22852 0.86891 0.68216 0.0
C316 C 0.18638 0.86121 0.69294 0.0
C317 C 0.23111 0.8731 0.6575 0.0
C318 C 0.14884 0.86206 0.65431 0.0
C319 C 0.10118 0.8498 0.69011 0.0
C320 C 0.2036 0.93334 0.75865 0.0
C321 C 0.21798 0.90616 0.76899 0.0
H322 H 0.16713 0.98191 0.7362 0.0
C323 C 0.03337 0.90389 0.77378 0.0
C324 C 0.97022 0.9136 0.72193 0.0
C325 C 0.84978 0.90227 0.81681 0.0
C326 C 0.82054 0.90376 0.85765 0.0
C327 C 0.78568 0.93499 0.82658 0.0
C328 C 0.81644 0.92366 0.80994 0.0
C329 C 0.7876 0.92516 0.85025 0.0
C330 C 0.85183 0.89245 0.84078 0.0
C331 C 0.88122 0.89013 0.79863 0.0
H332 H 0.25932 0.87159 0.69296 0.0
H333 H 0.18549 0.85771 0.71202 0.0
H334 H 0.26416 0.87938 0.64962 0.0
H335 H 0.11791 0.85894 0.64363 0.0
H336 H 0.76025 0.95152 0.8211 0.0
H337 H 0.81393 0.93162 0.79163 0.0
H338 H 0.76369 0.93468 0.86287 0.0
H339 H 0.87717 0.87582 0.84622 0.0
C340 C 0.65443 0.67113 0.26491 0.0
C341 C 0.64633 0.71377 0.29027 0.0
C342 C 0.62946 0.68644 0.28169 0.0
C343 C 0.68715 0.72626 0.28052 0.0
C344 C 0.69699 0.6825 0.25619 0.0
C345 C 0.7125 0.71062 0.26352 0.0
N346 N 0.63847 0.64407 0.25826 0.0
C347 C 0.66512 0.62588 0.24471 0.0
C348 C 0.72338 0.66476 0.24108 0.0
C349 C 0.70778 0.63607 0.23569 0.0
Gd350 Gd 0.45494 0.64018 0.22895 0.0
Gd351 Gd 0.56584 0.62904 0.27307 0.0
N352 N 0.59093 0.67327 0.29114 0.0
C353 C 0.62286 0.72696 0.30915 0.0
C354 C 0.57066 0.68458 0.31096 0.0
C355 C 0.58542 0.71196 0.31986 0.0
H356 H 0.54291 0.67257 0.31995 0.0
H357 H 0.56828 0.72129 0.33514 0.0
H358 H 0.44452 0.57576 0.20143 0.0
H359 H 0.65271 0.60383 0.24042 0.0
H360 H 0.39534 0.53018 0.20354 0.0
H361 H 0.63462 0.74797 0.31625 0.0
H362 H 0.70034 0.74743 0.28666 0.0
H363 H 0.3952 0.69228 0.25942 0.0
H364 H 0.75634 0.67264 0.23403 0.0
H365 H 0.72839 0.62191 0.22447 0.0
H366 H 0.28652 0.54983 0.26617 0.0
H367 H 0.74478 0.71999 0.25677 0.0
H368 H 0.28764 0.64775 0.29889 0.0
H369 H 0.33215 0.6937 0.28892 0.0
N370 N 0.39183 0.64514 0.2555 0.0
C371 C 0.36503 0.62035 0.25904 0.0
C372 C 0.37841 0.67167 0.26481 0.0
C373 C 0.31651 0.64679 0.28656 0.0
C374 C 0.34165 0.67273 0.28105 0.0
C375 C 0.32705 0.62037 0.27491 0.0
H376 H 0.27073 0.59399 0.29018 0.0
N377 N 0.40956 0.5966 0.22986 0.0
C378 C 0.37354 0.59552 0.24545 0.0
C379 C 0.35335 0.54613 0.23237 0.0
C380 C 0.34492 0.57002 0.24745 0.0
C381 C 0.41677 0.57403 0.21436 0.0
C382 C 0.38906 0.54832 0.21554 0.0
O383 O 0.57773 0.64904 0.23619 0.0
O384 O 0.51141 0.67553 0.22692 0.0
O385 O 0.44695 0.63883 0.19035 0.0
O386 O 0.40237 0.66682 0.21106 0.0
O387 O 0.50202 0.6541 0.28502 0.0
O388 O 0.47541 0.67917 0.25178 0.0
O389 O 0.46816 0.59804 0.25103 0.0
O390 O 0.49354 0.61812 0.28518 0.0
O391 O 0.6044 0.61818 0.30538 0.0
O392 O 0.58293 0.58306 0.28208 0.0
O393 O 0.51432 0.6153 0.21221 0.0
O394 O 0.55909 0.59539 0.24353 0.0
C395 C 0.55674 0.67196 0.22602 0.0
C396 C 0.48557 0.67838 0.27459 0.0
C397 C 0.36859 0.64311 0.17833 0.0
C398 C 0.32808 0.63111 0.14157 0.0
C399 C 0.29213 0.62005 0.17996 0.0
C400 C 0.33067 0.63182 0.19152 0.0
C401 C 0.29075 0.61963 0.15515 0.0
C402 C 0.36709 0.64275 0.15338 0.0
C403 C 0.40974 0.65523 0.19041 0.0
C404 C 0.30857 0.56938 0.26412 0.0
C405 C 0.2997 0.59449 0.27786 0.0
H406 H 0.33208 0.52613 0.23333 0.0
C407 C 0.47069 0.59729 0.27428 0.0
C408 C 0.5444 0.5958 0.22116 0.0
C409 C 0.5816 0.57223 0.32362 0.0
C410 C 0.57659 0.56461 0.3668 0.0
C411 C 0.53352 0.53228 0.34042 0.0
C412 C 0.55133 0.54786 0.32064 0.0
C413 C 0.54586 0.54061 0.36336 0.0
C414 C 0.59441 0.58024 0.34678 0.0
C415 C 0.59975 0.58952 0.30284 0.0
H416 H 0.26323 0.6112 0.19026 0.0
H417 H 0.33062 0.6322 0.21075 0.0
H418 H 0.26066 0.61 0.14663 0.0
H419 H 0.39606 0.6519 0.14324 0.0
H420 H 0.51008 0.51365 0.33795 0.0
H421 H 0.5411 0.54089 0.30306 0.0
H422 H 0.53195 0.52794 0.37841 0.0
H423 H 0.61768 0.599 0.34923 0.0
H424 H 0.18811 0.9993 0.37967 0.0
H425 H 0.10368 0.04283 0.24771 0.0
H426 H 0.21616 0.94404 0.31932 0.0
H427 H 0.09314 0.10052 0.30796 0.0
H428 H 0.14334 0.0056 0.27314 0.0
H429 H 0.15108 0.03568 0.35327 0.0
C430 C 0.18652 0.99477 0.36083 0.0
C431 C 0.20534 0.96849 0.35174 0.0
C432 C 0.13239 0.02644 0.28074 0.0
C433 C 0.16265 0.01036 0.32122 0.0
C434 C 0.10989 0.04768 0.26624 0.0
C435 C 0.09507 0.07475 0.27578 0.0
C436 C 0.13984 0.03234 0.30491 0.0
C437 C 0.10361 0.07985 0.29992 0.0
C438 C 0.16536 0.01566 0.34571 0.0
C439 C 0.20217 0.964 0.3271 0.0
N440 N 0.1253 0.05886 0.31362 0.0
N441 N 0.18111 0.98472 0.31268 0.0
H442 H 0.35818 0.51603 0.88853 0.0
H443 H 0.42207 0.45165 0.76108 0.0
H444 H 0.3065 0.55476 0.82264 0.0
H445 H 0.484 0.42123 0.82729 0.0
H446 H 0.37781 0.48864 0.78292 0.0
H447 H 0.40259 0.48033 0.86599 0.0
C448 C 0.35614 0.51708 0.86927 0.0
C449 C 0.32843 0.5385 0.85748 0.0
C450 C 0.40116 0.47389 0.79263 0.0
C451 C 0.37956 0.49737 0.83144 0.0
C452 C 0.42641 0.45269 0.78019 0.0
C453 C 0.45686 0.4332 0.79235 0.0
C454 C 0.40618 0.47554 0.81742 0.0
C455 C 0.46105 0.43574 0.81712 0.0
C456 C 0.38166 0.49663 0.85639 0.0
C457 C 0.32737 0.53866 0.83248 0.0
N458 N 0.43596 0.45644 0.82879 0.0
N459 N 0.35252 0.51834 0.82027 0.0
H460 H 0.70936 0.5105 0.62075 0.0
H461 H 0.57559 0.46859 0.74188 0.0
H462 H 0.66137 0.57632 0.67005 0.0
H463 H 0.60615 0.4051 0.68751 0.0
H464 H 0.61298 0.50783 0.71763 0.0
H465 H 0.6783 0.47114 0.64692 0.0
C466 C 0.69258 0.51672 0.63717 0.0
C467 C 0.68778 0.54684 0.64313 0.0
C468 C 0.61161 0.48532 0.711 0.0
C469 C 0.65189 0.50172 0.67317 0.0
C470 C 0.59056 0.46291 0.72489 0.0
C471 C 0.58831 0.43359 0.71675 0.0
C472 C 0.63038 0.47834 0.68874 0.0
C473 C 0.60723 0.42748 0.6944 0.0
C474 C 0.67469 0.49418 0.65207 0.0
C475 C 0.66574 0.55343 0.66468 0.0
N476 N 0.62757 0.44968 0.68118 0.0
N477 N 0.64847 0.53105 0.67889 0.0
H478 H 0.90103 0.92519 0.16648 0.0
H479 H 0.91602 0.10131 0.18713 0.0
H480 H 0.82295 0.99056 0.12563 0.0
H481 H 0.01909 0.03938 0.21356 0.0
H482 H 0.87499 0.05999 0.16852 0.0
H483 H 0.93791 0.96583 0.18819 0.0
C484 C 0.89131 0.94803 0.16223 0.0
C485 C 0.85903 0.95448 0.14411 0.0
C486 C 0.90659 0.05539 0.17836 0.0
C487 C 0.90108 0.00098 0.16883 0.0
C488 C 0.92984 0.07893 0.18906 0.0
C489 C 0.97072 0.07361 0.20195 0.0
C490 C 0.92436 0.02629 0.18061 0.0
C491 C 0.98769 0.04433 0.20365 0.0
C492 C 0.91256 0.9712 0.17453 0.0
C493 C 0.84786 0.98452 0.13933 0.0
N494 N 0.96431 0.02168 0.19316 0.0
N495 N 0.86885 0.00661 0.15158 0.0
H496 H 0.91496 0.04026 0.60679 0.0
H497 H 0.92383 0.96322 0.73664 0.0
H498 H 0.86162 0.08144 0.66994 0.0
H499 H 0.98078 0.92329 0.67378 0.0
H500 H 0.89875 0.00597 0.71234 0.0
H501 H 0.93703 0.99659 0.63086 0.0
C502 C 0.90773 0.04012 0.62572 0.0
C503 C 0.88645 0.06466 0.63635 0.0
C504 C 0.91669 0.98786 0.70384 0.0
C505 C 0.91182 0.01459 0.66407 0.0
C506 C 0.93102 0.96337 0.71771 0.0
C507 C 0.95458 0.93957 0.70726 0.0
C508 C 0.9259 0.98865 0.67929 0.0
C509 C 0.96291 0.94114 0.68264 0.0
C510 C 0.92042 0.01514 0.63946 0.0
C511 C 0.87798 0.0631 0.66097 0.0
N512 N 0.94863 0.96526 0.66951 0.0
N513 N 0.89077 0.03852 0.67399 0.0
H514 H 0.6081 0.48601 0.10058 0.0
H515 H 0.60888 0.55247 0.23166 0.0
H516 H 0.69609 0.4528 0.15742 0.0
H517 H 0.52414 0.58725 0.174 0.0
H518 H 0.64042 0.51547 0.20496 0.0
H519 H 0.57626 0.52276 0.12744 0.0
C520 C 0.62075 0.48641 0.11873 0.0
C521 C 0.65488 0.46627 0.12674 0.0
C522 C 0.61495 0.53121 0.19815 0.0
C523 C 0.61845 0.50841 0.15766 0.0
C524 C 0.59685 0.55241 0.21339 0.0
C525 C 0.56379 0.57318 0.2051 0.0
C526 C 0.59988 0.53062 0.1744 0.0
C527 C 0.54961 0.57181 0.18123 0.0
C528 C 0.60252 0.50745 0.13407 0.0
C529 C 0.66986 0.46789 0.15046 0.0
N530 N 0.56772 0.55091 0.16674 0.0
N531 N 0.65155 0.4886 0.16508 0.0
H532 H 0.34728 0.48494 0.38409 0.0
H533 H 0.45151 0.54122 0.25883 0.0
H534 H 0.36545 0.42725 0.32421 0.0
H535 H 0.44435 0.5959 0.32095 0.0
H536 H 0.41652 0.49985 0.2817 0.0
H537 H 0.37908 0.5264 0.36044 0.0
C538 C 0.35775 0.48097 0.36591 0.0
C539 C 0.35372 0.45247 0.35615 0.0
C540 C 0.42255 0.52089 0.29034 0.0
C541 C 0.39035 0.50008 0.32892 0.0
C542 C 0.44229 0.54454 0.27727 0.0
C543 C 0.45044 0.57203 0.288 0.0
C544 C 0.41093 0.52478 0.31435 0.0
C545 C 0.43864 0.57502 0.31203 0.0
C546 C 0.37604 0.50471 0.35243 0.0
C547 C 0.36795 0.4488 0.33249 0.0
N548 N 0.41937 0.55169 0.32439 0.0
N549 N 0.38568 0.47233 0.31968 0.0
H550 H 0.23025 0.00493 0.85593 0.0
H551 H 0.01207 0.96309 0.77472 0.0
H552 H 0.13226 0.06983 0.82849 0.0
H553 H 0.1128 0.89885 0.8001 0.0
H554 H 0.05694 0.00282 0.79329 0.0
H555 H 0.19021 0.96624 0.83377 0.0
C556 C 0.20057 0.01112 0.84508 0.0
C557 C 0.18438 0.04065 0.84424 0.0
C558 C 0.0693 0.98005 0.7948 0.0
C559 C 0.13799 0.99635 0.81903 0.0
C560 C 0.04348 0.95737 0.78439 0.0
C561 C 0.05882 0.92773 0.78595 0.0
C562 C 0.11053 0.97296 0.80703 0.0
C563 C 0.10002 0.9215 0.79837 0.0
C564 C 0.17763 0.98898 0.83247 0.0
C565 C 0.14587 0.04735 0.82976 0.0
N566 N 0.12443 0.94393 0.80848 0.0
N567 N 0.12376 0.02533 0.8179 0.0
H568 H 0.13958 0.12975 0.95946 0.0
H569 H 0.20815 0.11599 0.09711 0.0
H570 H 0.28228 0.12513 0.98293 0.0
H571 H 0.07493 0.09004 0.06904 0.0
H572 H 0.23477 0.12763 0.05637 0.0
H573 H 0.11426 0.12442 0.00071 0.0
C574 C 0.16571 0.12797 0.97329 0.0
C575 C 0.21322 0.12763 0.96763 0.0
C576 C 0.19973 0.11941 0.05918 0.0
C577 C 0.18418 0.12138 0.01505 0.0
C578 C 0.18451 0.11287 0.08236 0.0
C579 C 0.13938 0.10189 0.08637 0.0
C580 C 0.16931 0.11539 0.03997 0.0
C581 C 0.11016 0.09811 0.06669 0.0
C582 C 0.15112 0.12475 0.99686 0.0
C583 C 0.24531 0.12534 0.98643 0.0
N584 N 0.12557 0.10495 0.04437 0.0
N585 N 0.2302 0.12217 0.00933 0.0
H586 H 0.25197 0.40239 0.51418 0.0
H587 H 0.48395 0.4014 0.59113 0.0
H588 H 0.38403 0.37216 0.48758 0.0
H589 H 0.34803 0.40979 0.62255 0.0
H590 H 0.44754 0.3907 0.55294 0.0
H591 H 0.28551 0.40451 0.55413 0.0
C592 C 0.28783 0.39585 0.51677 0.0
C593 C 0.31534 0.38736 0.49744 0.0
C594 C 0.42562 0.39466 0.56821 0.0
C595 C 0.35404 0.39011 0.54303 0.0
C596 C 0.4464 0.40097 0.58995 0.0
C597 C 0.41893 0.40667 0.60995 0.0
C598 C 0.37696 0.39441 0.56634 0.0
C599 C 0.37043 0.40541 0.60755 0.0
C600 C 0.30696 0.39708 0.53959 0.0
C601 C 0.36155 0.379 0.5019 0.0
N602 N 0.35095 0.39969 0.58607 0.0
N603 N 0.37957 0.38094 0.52415 0.0
H604 H 0.74761 0.38137 0.00978 0.0
H605 H 0.60069 0.28518 0.91785 0.0
H606 H 0.65549 0.30924 0.03093 0.0
H607 H 0.70017 0.35293 0.89637 0.0
H608 H 0.62269 0.29233 0.95932 0.0
H609 H 0.73314 0.36998 0.9681 0.0
C610 C 0.7246 0.363 0.00569 0.0
C611 C 0.70251 0.34636 0.02392 0.0
C612 C 0.63985 0.30556 0.94553 0.0
C613 C 0.68555 0.33332 0.97619 0.0
C614 C 0.62745 0.30139 0.92182 0.0
C615 C 0.64842 0.31859 0.90357 0.0
C616 C 0.67341 0.32715 0.95111 0.0
C617 C 0.68246 0.33954 0.90986 0.0
C618 C 0.71632 0.35652 0.98187 0.0
C619 C 0.67315 0.32275 0.0175 0.0
N620 N 0.69375 0.3433 0.93309 0.0
N621 N 0.66531 0.31708 0.99419 0.0
H622 H 0.86639 0.18588 0.5028 0.0
H623 H 0.86383 0.13326 0.3673 0.0
H624 H 0.86165 0.09357 0.4823 0.0
H625 H 0.87618 0.22539 0.38754 0.0
H626 H 0.86134 0.11839 0.40939 0.0
H627 H 0.86763 0.20098 0.46068 0.0
C628 C 0.8655 0.16879 0.48947 0.0
C629 C 0.86397 0.13841 0.49612 0.0
C630 C 0.86456 0.14187 0.40463 0.0
C631 C 0.86545 0.15552 0.44787 0.0
C632 C 0.86625 0.15036 0.38058 0.0
C633 C 0.87022 0.18063 0.37382 0.0
C634 C 0.86686 0.16378 0.42213 0.0
C635 C 0.87246 0.20183 0.39187 0.0
C636 C 0.86627 0.17742 0.46541 0.0
C637 C 0.86289 0.11725 0.47804 0.0
N638 N 0.87078 0.193 0.41516 0.0
N639 N 0.86368 0.1262 0.45478 0.0
H640 H 0.90491 0.88232 0.00444 0.0
H641 H 0.74776 0.88963 0.88717 0.0
H642 H 0.75496 0.88205 0.00513 0.0
H643 H 0.8973 0.89607 0.88615 0.0
H644 H 0.75039 0.87993 0.93007 0.0
H645 H 0.90332 0.88035 0.96102 0.0
C646 C 0.87162 0.88153 0.9955 0.0
C647 C 0.82998 0.8827 0.00847 0.0
C648 C 0.7827 0.8832 0.92047 0.0
C649 C 0.82797 0.88056 0.95869 0.0
C650 C 0.78121 0.88884 0.89598 0.0
C651 C 0.82235 0.89409 0.8831 0.0
C652 C 0.82565 0.8829 0.9323 0.0
C653 C 0.86475 0.89214 0.89536 0.0
C654 C 0.87076 0.88045 0.97068 0.0
C655 C 0.78793 0.88143 0.99588 0.0
N656 N 0.86529 0.88702 0.91933 0.0
N657 N 0.78801 0.88069 0.9717 0.0
H658 H 0.73129 0.6066 0.49405 0.0
H659 H 0.52117 0.56873 0.40625 0.0
H660 H 0.58899 0.59535 0.5169 0.0
H661 H 0.66309 0.58015 0.38294 0.0
H662 H 0.54483 0.58131 0.44657 0.0
H663 H 0.70633 0.60061 0.45281 0.0
C664 C 0.69475 0.60316 0.4904 0.0
C665 C 0.66224 0.60124 0.509 0.0
C666 C 0.5708 0.5812 0.43263 0.0
C667 C 0.63349 0.59414 0.46186 0.0
C668 C 0.55735 0.57382 0.40963 0.0
C669 C 0.59024 0.57321 0.39121 0.0
C670 C 0.61757 0.58791 0.43733 0.0
C671 C 0.63649 0.58057 0.39654 0.0
C672 C 0.68053 0.59966 0.46684 0.0
C673 C 0.61534 0.59681 0.50317 0.0
N674 N 0.64882 0.58745 0.41913 0.0
N675 N 0.60244 0.59321 0.48015 0.0
H676 H 0.2357 0.6232 0.99532 0.0
H677 H 0.39842 0.61799 0.11059 0.0
H678 H 0.38349 0.60741 0.99307 0.0
H679 H 0.25379 0.64304 0.11233 0.0
H680 H 0.39402 0.61564 0.0673 0.0
H681 H 0.24185 0.6322 0.03798 0.0
C682 C 0.26948 0.62184 0.00375 0.0
C683 C 0.30909 0.61433 0.99064 0.0
C684 C 0.36328 0.6218 0.07713 0.0
C685 C 0.31633 0.62441 0.03944 0.0
C686 C 0.36584 0.62329 0.10187 0.0
C687 C 0.32637 0.63061 0.11516 0.0
C688 C 0.3209 0.62753 0.06555 0.0
C689 C 0.2849 0.63679 0.10286 0.0
C690 C 0.27297 0.62696 0.02811 0.0
C691 C 0.35198 0.61298 0.00248 0.0
N692 N 0.2832 0.63499 0.07877 0.0
N693 N 0.3544 0.61775 0.02622 0.0
H694 H 0.13884 0.91997 0.49612 0.0
H695 H 0.26053 0.85163 0.6132 0.0
H696 H 0.27606 0.88137 0.49628 0.0
H697 H 0.12877 0.89735 0.61337 0.0
H698 H 0.26532 0.85991 0.57012 0.0
H699 H 0.13273 0.90897 0.5387 0.0
C700 C 0.16767 0.90907 0.50508 0.0
C701 C 0.20813 0.9017 0.4926 0.0
C702 C 0.23533 0.86808 0.57958 0.0
C703 C 0.20135 0.88906 0.5415 0.0
C704 C 0.23268 0.86352 0.60421 0.0
C705 C 0.19425 0.8739 0.61698 0.0
C706 C 0.19927 0.88312 0.56757 0.0
C707 C 0.1588 0.88865 0.60427 0.0
C708 C 0.16416 0.90283 0.52944 0.0
C709 C 0.24428 0.88753 0.5052 0.0
N710 N 0.16223 0.89287 0.58031 0.0
N711 N 0.24007 0.88174 0.52897 0.0
H712 H 0.17735 0.32968 0.33142 0.0
H713 H 0.12583 0.16076 0.30065 0.0
H714 H 0.27317 0.25932 0.35071 0.0
H715 H 0.07973 0.23385 0.25549 0.0
H716 H 0.17301 0.19601 0.32344 0.0
H717 H 0.13346 0.29426 0.3075 0.0
C718 C 0.18911 0.30677 0.33064 0.0
C719 C 0.22894 0.29739 0.34304 0.0
C720 C 0.15257 0.20427 0.30853 0.0
C721 C 0.17863 0.25679 0.31602 0.0
C722 C 0.12549 0.18429 0.29571 0.0
C723 C 0.09895 0.19463 0.27635 0.0
C724 C 0.15196 0.2348 0.30224 0.0
C725 C 0.09988 0.22515 0.27035 0.0
C726 C 0.1642 0.28665 0.31692 0.0
C727 C 0.24274 0.26747 0.34133 0.0
N728 N 0.12567 0.24427 0.2834 0.0
N729 N 0.21735 0.24812 0.32824 0.0
H730 H 0.43605 0.1697 0.86542 0.0
H731 H 0.41505 0.33207 0.80433 0.0
H732 H 0.30636 0.21685 0.85702 0.0
H733 H 0.53397 0.27536 0.7946 0.0
H734 H 0.37772 0.29232 0.82787 0.0
H735 H 0.47566 0.21058 0.84387 0.0
C736 C 0.41594 0.18871 0.85918 0.0
C737 C 0.36777 0.18982 0.86299 0.0
C738 C 0.412 0.28853 0.82062 0.0
C739 C 0.41291 0.23663 0.83839 0.0
C740 C 0.43322 0.31116 0.80706 0.0
C741 C 0.47728 0.3068 0.79713 0.0
C742 C 0.43534 0.26143 0.82468 0.0
C743 C 0.49992 0.27963 0.80192 0.0
C744 C 0.43856 0.21196 0.8468 0.0
C745 C 0.34349 0.21498 0.85443 0.0
N746 N 0.47865 0.25791 0.81534 0.0
N747 N 0.36632 0.23737 0.84257 0.0
H748 H 0.69839 0.2232 0.62417 0.0
H749 H 0.62581 0.28294 0.75039 0.0
H750 H 0.79015 0.21409 0.6846 0.0
H751 H 0.59619 0.33337 0.6858 0.0
H752 H 0.67489 0.24944 0.72737 0.0
H753 H 0.64815 0.2557 0.64755 0.0
C754 C 0.70776 0.22789 0.64239 0.0
C755 C 0.74851 0.21608 0.65248 0.0
C756 C 0.65749 0.26786 0.71834 0.0
C757 C 0.69102 0.25261 0.67927 0.0
C758 C 0.62964 0.28702 0.73141 0.0
C759 C 0.6072 0.31121 0.72006 0.0
C760 C 0.66179 0.2724 0.69365 0.0
C761 C 0.61268 0.31499 0.69531 0.0
C762 C 0.67927 0.24648 0.65563 0.0
C763 C 0.75918 0.22293 0.67613 0.0
N764 N 0.63916 0.29567 0.6829 0.0
N765 N 0.73038 0.24057 0.68883 0.0
H766 H 0.83575 0.33161 0.1554 0.0
H767 H 0.95523 0.17201 0.16681 0.0
H768 H 0.77299 0.25289 0.12608 0.0
H769 H 0.95924 0.23449 0.22413 0.0
H770 H 0.90214 0.20561 0.14495 0.0
H771 H 0.89533 0.29993 0.17435 0.0
C772 C 0.83475 0.30772 0.15281 0.0
C773 C 0.7993 0.29476 0.13932 0.0
C774 C 0.91508 0.21199 0.16222 0.0
C775 C 0.86748 0.25875 0.16044 0.0
C776 C 0.94552 0.19302 0.17458 0.0
C777 C 0.96145 0.2006 0.19725 0.0
C778 C 0.90154 0.23894 0.17241 0.0
C779 C 0.94746 0.22786 0.20671 0.0
C780 C 0.86856 0.28973 0.16365 0.0
C781 C 0.79952 0.26369 0.13653 0.0
N782 N 0.91841 0.24618 0.19419 0.0
N783 N 0.83326 0.24672 0.14691 0.0
H784 H 0.74275 0.73751 0.64216 0.0
H785 H 0.97535 0.77405 0.71306 0.0
H786 H 0.86105 0.67853 0.64387 0.0
H787 H 0.87902 0.84228 0.68997 0.0
H788 H 0.93063 0.73724 0.69098 0.0
H789 H 0.78839 0.7747 0.66341 0.0
C790 C 0.7783 0.73237 0.647 0.0
C791 C 0.79816 0.70489 0.64119 0.0
C792 C 0.91932 0.76028 0.69071 0.0
C793 C 0.8504 0.74726 0.66554 0.0
C794 C 0.9449 0.7813 0.70323 0.0
C795 C 0.93043 0.81115 0.70356 0.0
C796 C 0.87892 0.76917 0.67852 0.0
C797 C 0.89069 0.81933 0.69058 0.0
C798 C 0.80434 0.75365 0.65904 0.0
C799 C 0.84438 0.69945 0.64791 0.0
N800 N 0.86605 0.79841 0.67872 0.0
N801 N 0.86887 0.7204 0.65981 0.0
H802 H 0.66302 0.82975 0.1514 0.0
H803 H 0.64097 0.66349 0.20506 0.0
H804 H 0.77746 0.76783 0.15561 0.0
H805 H 0.53635 0.73056 0.21553 0.0
H806 H 0.6896 0.70072 0.18472 0.0
H807 H 0.61414 0.79312 0.17268 0.0
C808 C 0.67791 0.80849 0.15683 0.0
C809 C 0.72444 0.80185 0.1517 0.0
C810 C 0.65611 0.7074 0.19152 0.0
C811 C 0.66859 0.75979 0.17591 0.0
C812 C 0.6285 0.68617 0.20334 0.0
C813 C 0.58507 0.69408 0.21249 0.0
C814 C 0.63987 0.73675 0.18843 0.0
C815 C 0.56972 0.72353 0.20879 0.0
C816 C 0.64998 0.78761 0.169 0.0
C817 C 0.74183 0.77395 0.15919 0.0
N818 N 0.59712 0.74384 0.19706 0.0
N819 N 0.71387 0.75394 0.17082 0.0
H820 H 0.40783 0.84948 0.33138 0.0
H821 H 0.44795 0.67446 0.31916 0.0
H822 H 0.32018 0.78359 0.36637 0.0
H823 H 0.48363 0.73774 0.26307 0.0
H824 H 0.41333 0.71509 0.34167 0.0
H825 H 0.4479 0.80931 0.31079 0.0
C826 C 0.39714 0.82657 0.3348 0.0
C827 C 0.3605 0.81984 0.35051 0.0
C828 C 0.42904 0.72007 0.32451 0.0
C829 C 0.40654 0.77394 0.32734 0.0
C830 C 0.44909 0.69701 0.31179 0.0
C831 C 0.46859 0.70291 0.28929 0.0
C832 C 0.42931 0.74924 0.31482 0.0
C833 C 0.46871 0.73238 0.28035 0.0
C834 C 0.41992 0.80373 0.32301 0.0
C835 C 0.34803 0.78977 0.35426 0.0
N836 N 0.44945 0.75453 0.29318 0.0
N837 N 0.37119 0.76789 0.34285 0.0
H838 H 0.19682 0.71981 0.86508 0.0
H839 H 0.02708 0.76533 0.7595 0.0
H840 H 0.11343 0.65493 0.82857 0.0
H841 H 0.05677 0.8257 0.81629 0.0
H842 H 0.06562 0.72517 0.7821 0.0
H843 H 0.15342 0.75992 0.8447 0.0
C844 C 0.1695 0.71401 0.85274 0.0
C845 C 0.15873 0.68399 0.84846 0.0
C846 C 0.06337 0.74712 0.78972 0.0
C847 C 0.10936 0.72964 0.82512 0.0
C848 C 0.04151 0.76999 0.77684 0.0
C849 C 0.03879 0.79869 0.78616 0.0
C850 C 0.08359 0.75319 0.81183 0.0
C851 C 0.05789 0.80371 0.80868 0.0
C852 C 0.1446 0.73688 0.84128 0.0
C853 C 0.12283 0.67775 0.83242 0.0
N854 N 0.08012 0.78121 0.82068 0.0
N855 N 0.09968 0.70037 0.82118 0.0
loop_
_geom_bond_atom_site_label_1
_geom_bond_atom_site_label_2
_geom_bond_distance
_geom_bond_site_symmetry_2
_ccdc_geom_bond_type
O0 Cd1 2.300 . S
O0 C7 1.275 . S
Cd1 O0 2.300 . S
Cd1 O9 2.381 . S
Cd1 O10 2.378 . S
O2 Cd3 2.385 . S
O2 C7 1.255 . S
Cd3 O2 2.385 . S
Cd3 O4 2.317 . S
O4 Cd3 2.317 . S
O4 C5 1.232 . S
C5 O4 1.232 . S
C5 O6 1.218 . S
O6 C5 1.218 . S
C7 O0 1.275 . S
C7 O2 1.255 . S
C8 O9 1.258 . S
C8 O10 1.256 . S
O9 Cd1 2.381 . S
O9 C8 1.258 . S
O10 Cd1 2.378 . S
O10 C8 1.256 . S
O11 Cd12 2.300 . S
O11 C18 1.275 . S
Cd12 O11 2.300 . S
Cd12 O20 2.381 . S
Cd12 O21 2.378 . S
O13 Cd14 2.385 . S
O13 C18 1.255 . S
Cd14 O13 2.385 . S
Cd14 O15 2.317 . S
O15 Cd14 2.317 . S
O15 C16 1.232 . S
C16 O15 1.232 . S
C16 O17 1.218 . S
O17 C16 1.218 . S
C18 O11 1.275 . S
C18 O13 1.255 . S
C19 O20 1.258 . S
C19 O21 1.256 . S
O20 Cd12 2.381 . S
O20 C19 1.258 . S
O21 Cd12 2.378 . S
O21 C19 1.256 . S
O22 Cd23 2.300 . S
O22 C29 1.275 . S
Cd23 O22 2.300 . S
Cd23 O31 2.381 . S
Cd23 O32 2.378 . S
O24 Cd25 2.385 . S
O24 C29 1.255 . S
Cd25 O24 2.385 . S
Cd25 O26 2.317 . S
O26 Cd25 2.317 . S
O26 C27 1.232 . S
C27 O26 1.232 . S
C27 O28 1.218 . S
O28 C27 1.218 . S
C29 O22 1.275 . S
C29 O24 1.255 . S
C30 O31 1.258 . S
C30 O32 1.256 . S
O31 Cd23 2.381 . S
O31 C30 1.258 . S
O32 Cd23 2.378 . S
O32 C30 1.256 . S
O33 Cd34 2.300 . S
O33 C40 1.275 . S
Cd34 O33 2.300 . S
Cd34 O42 2.381 . S
Cd34 O43 2.378 . S
O35 Cd36 2.385 . S
O35 C40 1.255 . S
Cd36 O35 2.385 . S
Cd36 O37 2.317 . S
O37 Cd36 2.317 . S
O37 C38 1.232 . S
C38 O37 1.232 . S
C38 O39 1.218 . S
O39 C38 1.218 . S
C40 O33 1.275 . S
C40 O35 1.255 . S
C41 O42 1.258 . S
C41 O43 1.256 . S
O42 Cd34 2.381 . S
O42 C41 1.258 . S
O43 Cd34 2.378 . S
O43 C41 1.256 . S
O44 Cd45 2.300 . S
O44 C51 1.275 . S
Cd45 O44 2.300 . S
Cd45 O53 2.381 . S
Cd45 O54 2.378 . S
O46 Cd47 2.385 . S
O46 C51 1.255 . S
Cd47 O46 2.385 . S
Cd47 O48 2.317 . S
O48 Cd47 2.317 . S
O48 C49 1.232 . S
C49 O48 1.232 . S
C49 O50 1.218 . S
O50 C49 1.218 . S
C51 O44 1.275 . S
C51 O46 1.255 . S
C52 O53 1.258 . S
C52 O54 1.256 . S
O53 Cd45 2.381 . S
O53 C52 1.258 . S
O54 Cd45 2.378 . S
O54 C52 1.256 . S
O55 Cd56 2.300 . S
O55 C62 1.275 . S
Cd56 O55 2.300 . S
Cd56 O64 2.381 . S
Cd56 O65 2.378 . S
O57 Cd58 2.385 . S
O57 C62 1.255 . S
Cd58 O57 2.385 . S
Cd58 O59 2.317 . S
O59 Cd58 2.317 . S
O59 C60 1.232 . S
C60 O59 1.232 . S
C60 O61 1.218 . S
O61 C60 1.218 . S
C62 O55 1.275 . S
C62 O57 1.255 . S
C63 O64 1.258 . S
C63 O65 1.256 . S
O64 Cd56 2.381 . S
O64 C63 1.258 . S
O65 Cd56 2.378 . S
O65 C63 1.256 . S
O66 Cd67 2.300 . S
O66 C73 1.275 . S
Cd67 O66 2.300 . S
Cd67 O75 2.381 . S
Cd67 O76 2.378 . S
O68 Cd69 2.385 . S
O68 C73 1.255 . S
Cd69 O68 2.385 . S
Cd69 O70 2.317 . S
O70 Cd69 2.317 . S
O70 C71 1.232 . S
C71 O70 1.232 . S
C71 O72 1.218 . S
O72 C71 1.218 . S
C73 O66 1.275 . S
C73 O68 1.255 . S
C74 O75 1.258 . S
C74 O76 1.256 . S
O75 Cd67 2.381 . S
O75 C74 1.258 . S
O76 Cd67 2.378 . S
O76 C74 1.256 . S
O77 Cd78 2.300 . S
O77 C84 1.275 . S
Cd78 O77 2.300 . S
Cd78 O86 2.381 . S
Cd78 O87 2.378 . S
O79 Cd80 2.385 . S
O79 C84 1.255 . S
Cd80 O79 2.385 . S
Cd80 O81 2.317 . S
O81 Cd80 2.317 . S
O81 C82 1.232 . S
C82 O81 1.232 . S
C82 O83 1.218 . S
O83 C82 1.218 . S
C84 O77 1.275 . S
C84 O79 1.255 . S
C85 O86 1.258 . S
C85 O87 1.256 . S
O86 Cd78 2.381 . S
O86 C85 1.258 . S
O87 Cd78 2.378 . S
O87 C85 1.256 . S
C88 C90 1.422 . S
C88 C92 1.415 . S
C88 N94 1.369 . S
C89 C90 1.421 . S
C89 C91 1.417 . S
C89 C101 1.422 . S
C90 C88 1.422 . S
C90 C89 1.421 . S
C90 N100 1.359 . S
C91 C89 1.417 . S
C91 C93 1.329 . S
C91 H110 0.930 . S
C92 C88 1.415 . S
C92 C93 1.437 . S
C92 C96 1.413 . S
C93 C91 1.329 . S
C93 C92 1.437 . S
C93 H115 0.929 . S
N94 C88 1.369 . S
N94 C95 1.338 . S
N94 Gd99 2.622 . S
C95 N94 1.338 . S
C95 C97 1.378 . S
C95 H107 0.929 . S
C96 C92 1.413 . S
C96 C97 1.348 . S
C96 H112 0.931 . S
C97 C95 1.378 . S
C97 C96 1.348 . S
C97 H113 0.930 . S
Gd98 N118 2.622 . S
Gd98 N125 2.570 . S
Gd98 O132 2.353 . S
Gd98 O133 2.468 . S
Gd98 O134 2.427 . S
Gd98 O136 2.388 . S
Gd98 O137 2.386 . S
Gd98 O141 2.307 . S
Gd98 C151 2.805 . S
Gd99 N94 2.622 . S
Gd99 N100 2.570 . S
Gd99 O131 2.386 . S
Gd99 O135 2.307 1_655 S
Gd99 O138 2.353 1_655 S
Gd99 O139 2.468 . S
Gd99 O140 2.427 . S
Gd99 O142 2.388 . S
Gd99 C163 2.805 . S
N100 C90 1.359 . S
N100 Gd99 2.570 . S
N100 C102 1.343 . S
C101 C89 1.422 . S
C101 C103 1.321 . S
C101 H109 0.931 1_545 S
C102 N100 1.343 . S
C102 C103 1.390 . S
C102 H104 0.931 . S
C103 C101 1.321 . S
C103 C102 1.390 . S
C103 H105 0.930 1_545 S
H104 C102 0.931 . S
H105 C103 0.930 1_565 S
H106 C129 0.931 . S
H107 C95 0.929 . S
H108 C130 0.930 . S
H109 C101 0.931 1_565 S
H110 C91 0.930 . S
H111 C120 0.929 . S
H112 C96 0.931 . S
H113 C97 0.930 . S
H114 C152 0.930 . S
H115 C93 0.929 . S
H116 C121 0.931 . S
H117 C122 0.930 . S
N118 Gd98 2.622 . S
N118 C119 1.369 . S
N118 C120 1.338 . S
C119 N118 1.369 . S
C119 C123 1.415 . S
C119 C126 1.422 . S
C120 H111 0.929 . S
C120 N118 1.338 . S
C120 C122 1.378 . S
C121 H116 0.931 . S
C121 C122 1.348 . S
C121 C123 1.413 . S
C122 H117 0.930 . S
C122 C120 1.378 . S
C122 C121 1.348 . S
C123 C119 1.415 . S
C123 C121 1.413 . S
C123 C153 1.437 . S
H124 C153 0.929 . S
N125 Gd98 2.570 . S
N125 C126 1.359 . S
N125 C129 1.343 . S
C126 C119 1.422 . S
C126 N125 1.359 . S
C126 C128 1.421 . S
C127 C128 1.422 . S
C127 C130 1.321 . S
C127 H154 0.931 . S
C128 C126 1.421 . S
C128 C127 1.422 . S
C128 C152 1.417 . S
C129 H106 0.931 . S
C129 N125 1.343 . S
C129 C130 1.390 . S
C130 H108 0.930 . S
C130 C127 1.321 . S
C130 C129 1.390 . S
O131 Gd99 2.386 . S
O131 C143 1.265 . S
O132 Gd98 2.353 . S
O132 C143 1.242 1_455 S
O133 Gd98 2.468 . S
O133 C151 1.263 . S
O134 Gd98 2.427 . S
O134 C151 1.252 . S
O135 Gd99 2.307 1_455 S
O135 C144 1.261 . S
O136 Gd98 2.388 . S
O136 C144 1.252 . S
O137 Gd98 2.386 . S
O137 C155 1.265 . S
O138 Gd99 2.353 1_455 S
O138 C155 1.242 . S
O139 Gd99 2.468 . S
O139 C163 1.263 . S
O140 Gd99 2.427 . S
O140 C163 1.252 . S
O141 Gd98 2.307 . S
O141 C156 1.261 1_455 S
O142 Gd99 2.388 . S
O142 C156 1.252 . S
C143 O131 1.265 . S
C143 O132 1.242 1_655 S
C144 O135 1.261 . S
C144 O136 1.252 . S
C145 C148 1.394 . S
C145 C150 1.370 . S
C145 C151 1.500 . S
C146 C149 1.383 . S
C146 C150 1.395 . S
C147 C148 1.396 . S
C147 C149 1.365 . S
C147 H164 0.929 . S
C148 C145 1.394 . S
C148 C147 1.396 . S
C148 H165 0.930 . S
C149 C146 1.383 . S
C149 C147 1.365 . S
C149 H166 0.931 . S
C150 C145 1.370 . S
C150 C146 1.395 . S
C150 H167 0.930 . S
C151 Gd98 2.805 . S
C151 O133 1.263 . S
C151 O134 1.252 . S
C151 C145 1.500 . S
C152 H114 0.930 . S
C152 C128 1.417 . S
C152 C153 1.329 . S
C153 C123 1.437 . S
C153 H124 0.929 . S
C153 C152 1.329 . S
H154 C127 0.931 . S
C155 O137 1.265 . S
C155 O138 1.242 . S
C156 O141 1.261 1_655 S
C156 O142 1.252 . S
C157 C160 1.394 . S
C157 C162 1.370 . S
C157 C163 1.500 . S
C158 C161 1.383 . S
C158 C162 1.395 . S
C159 C160 1.396 . S
C159 C161 1.365 . S
C159 H168 0.929 . S
C160 C157 1.394 . S
C160 C159 1.396 . S
C160 H169 0.930 . S
C161 C158 1.383 . S
C161 C159 1.365 . S
C161 H170 0.931 . S
C162 C157 1.370 . S
C162 C158 1.395 . S
C162 H171 0.930 . S
C163 Gd99 2.805 . S
C163 O139 1.263 . S
C163 O140 1.252 . S
C163 C157 1.500 . S
H164 C147 0.929 . S
H165 C148 0.930 . S
H166 C149 0.931 . S
H167 C150 0.930 . S
H168 C159 0.929 . S
H169 C160 0.930 . S
H170 C161 0.931 . S
H171 C162 0.930 . S
C172 C174 1.422 . S
C172 C176 1.415 . S
C172 N178 1.369 . S
C173 C174 1.421 . S
C173 C175 1.417 . S
C173 C185 1.422 . S
C174 C172 1.422 . S
C174 C173 1.421 . S
C174 N184 1.359 . S
C175 C173 1.417 . S
C175 C177 1.329 . S
C175 H194 0.930 . S
C176 C172 1.415 . S
C176 C177 1.437 . S
C176 C180 1.413 . S
C177 C175 1.329 . S
C177 C176 1.437 . S
C177 H199 0.929 . S
N178 C172 1.369 . S
N178 C179 1.338 . S
N178 Gd183 2.622 . S
C179 N178 1.338 . S
C179 C181 1.378 . S
C179 H191 0.929 . S
C180 C176 1.413 . S
C180 C181 1.348 . S
C180 H196 0.931 . S
C181 C179 1.378 . S
C181 C180 1.348 . S
C181 H197 0.930 . S
Gd182 N202 2.622 . S
Gd182 N209 2.570 . S
Gd182 O216 2.353 . S
Gd182 O217 2.468 . S
Gd182 O218 2.427 . S
Gd182 O220 2.388 . S
Gd182 O221 2.386 . S
Gd182 O225 2.307 . S
Gd182 C235 2.805 . S
Gd183 N178 2.622 . S
Gd183 N184 2.570 . S
Gd183 O215 2.386 . S
Gd183 O219 2.307 . S
Gd183 O222 2.353 . S
Gd183 O223 2.468 . S
Gd183 O224 2.427 . S
Gd183 O226 2.388 . S
Gd183 C247 2.805 . S
N184 C174 1.359 . S
N184 Gd183 2.570 . S
N184 C186 1.343 . S
C185 C173 1.422 . S
C185 C187 1.321 . S
C185 H193 0.931 . S
C186 N184 1.343 . S
C186 C187 1.390 . S
C186 H188 0.931 . S
C187 C185 1.321 . S
C187 C186 1.390 . S
C187 H189 0.930 . S
H188 C186 0.931 . S
H189 C187 0.930 . S
H190 C213 0.931 . S
H191 C179 0.929 . S
H192 C214 0.930 . S
H193 C185 0.931 . S
H194 C175 0.930 . S
H195 C204 0.929 . S
H196 C180 0.931 . S
H197 C181 0.930 . S
H198 C236 0.930 . S
H199 C177 0.929 . S
H200 C205 0.931 . S
H201 C206 0.930 . S
N202 Gd182 2.622 . S
N202 C203 1.369 . S
N202 C204 1.338 . S
C203 N202 1.369 . S
C203 C207 1.415 . S
C203 C210 1.422 . S
C204 H195 0.929 . S
C204 N202 1.338 . S
C204 C206 1.378 . S
C205 H200 0.931 . S
C205 C206 1.348 . S
C205 C207 1.413 . S
C206 H201 0.930 . S
C206 C204 1.378 . S
C206 C205 1.348 . S
C207 C203 1.415 . S
C207 C205 1.413 . S
C207 C237 1.437 . S
H208 C237 0.929 . S
N209 Gd182 2.570 . S
N209 C210 1.359 . S
N209 C213 1.343 . S
C210 C203 1.422 . S
C210 N209 1.359 . S
C210 C212 1.421 . S
C211 C212 1.422 . S
C211 C214 1.321 . S
C211 H238 0.931 . S
C212 C210 1.421 . S
C212 C211 1.422 . S
C212 C236 1.417 . S
C213 H190 0.931 . S
C213 N209 1.343 . S
C213 C214 1.390 . S
C214 H192 0.930 . S
C214 C211 1.321 . S
C214 C213 1.390 . S
O215 Gd183 2.386 . S
O215 C227 1.265 . S
O216 Gd182 2.353 . S
O216 C227 1.242 . S
O217 Gd182 2.468 . S
O217 C235 1.263 . S
O218 Gd182 2.427 . S
O218 C235 1.252 . S
O219 Gd183 2.307 . S
O219 C228 1.261 . S
O220 Gd182 2.388 . S
O220 C228 1.252 . S
O221 Gd182 2.386 . S
O221 C239 1.265 . S
O222 Gd183 2.353 . S
O222 C239 1.242 . S
O223 Gd183 2.468 . S
O223 C247 1.263 . S
O224 Gd183 2.427 . S
O224 C247 1.252 . S
O225 Gd182 2.307 . S
O225 C240 1.261 . S
O226 Gd183 2.388 . S
O226 C240 1.252 . S
C227 O215 1.265 . S
C227 O216 1.242 . S
C228 O219 1.261 . S
C228 O220 1.252 . S
C229 C232 1.394 . S
C229 C234 1.370 . S
C229 C235 1.500 . S
C230 C233 1.383 . S
C230 C234 1.395 . S
C231 C232 1.396 . S
C231 C233 1.365 . S
C231 H248 0.929 . S
C232 C229 1.394 . S
C232 C231 1.396 . S
C232 H249 0.930 . S
C233 C230 1.383 . S
C233 C231 1.365 . S
C233 H250 0.931 . S
C234 C229 1.370 . S
C234 C230 1.395 . S
C234 H251 0.930 . S
C235 Gd182 2.805 . S
C235 O217 1.263 . S
C235 O218 1.252 . S
C235 C229 1.500 . S
C236 H198 0.930 . S
C236 C212 1.417 . S
C236 C237 1.329 . S
C237 C207 1.437 . S
C237 H208 0.929 . S
C237 C236 1.329 . S
H238 C211 0.931 . S
C239 O221 1.265 . S
C239 O222 1.242 . S
C240 O225 1.261 . S
C240 O226 1.252 . S
C241 C244 1.394 . S
C241 C246 1.370 . S
C241 C247 1.500 . S
C242 C245 1.383 . S
C242 C246 1.395 . S
C243 C244 1.396 . S
C243 C245 1.365 . S
C243 H252 0.929 . S
C244 C241 1.394 . S
C244 C243 1.396 . S
C244 H253 0.930 . S
C245 C242 1.383 . S
C245 C243 1.365 . S
C245 H254 0.931 . S
C246 C241 1.370 . S
C246 C242 1.395 . S
C246 H255 0.930 . S
C247 Gd183 2.805 . S
C247 O223 1.263 . S
C247 O224 1.252 . S
C247 C241 1.500 . S
H248 C231 0.929 . S
H249 C232 0.930 . S
H250 C233 0.931 . S
H251 C234 0.930 . S
H252 C243 0.929 . S
H253 C244 0.930 . S
H254 C245 0.931 . S
H255 C246 0.930 . S
C256 C258 1.422 . S
C256 C260 1.415 . S
C256 N262 1.369 . S
C257 C258 1.421 . S
C257 C259 1.417 . S
C257 C269 1.422 . S
C258 C256 1.422 . S
C258 C257 1.421 . S
C258 N268 1.359 . S
C259 C257 1.417 . S
C259 C261 1.329 . S
C259 H278 0.930 . S
C260 C256 1.415 . S
C260 C261 1.437 . S
C260 C264 1.413 . S
C261 C259 1.329 . S
C261 C260 1.437 . S
C261 H283 0.929 . S
N262 C256 1.369 . S
N262 C263 1.338 . S
N262 Gd267 2.622 . S
C263 N262 1.338 . S
C263 C265 1.378 . S
C263 H275 0.929 . S
C264 C260 1.413 . S
C264 C265 1.348 . S
C264 H280 0.931 . S
C265 C263 1.378 . S
C265 C264 1.348 . S
C265 H281 0.930 . S
Gd266 N286 2.622 . S
Gd266 N293 2.570 . S
Gd266 O300 2.360 . S
Gd266 O301 2.468 . S
Gd266 O302 2.427 . S
Gd266 O304 2.388 . S
Gd266 O305 2.386 . S
Gd266 O309 2.307 . S
Gd266 C319 2.805 . S
Gd267 N262 2.622 . S
Gd267 N268 2.570 . S
Gd267 O299 2.386 . S
Gd267 O303 2.307 1_655 S
Gd267 O306 2.353 1_655 S
Gd267 O307 2.468 . S
Gd267 O308 2.427 . S
Gd267 O310 2.388 . S
Gd267 C331 2.805 . S
N268 C258 1.359 . S
N268 Gd267 2.570 . S
N268 C270 1.343 . S
C269 C257 1.422 . S
C269 C271 1.321 . S
C269 H277 0.931 . S
C270 N268 1.343 . S
C270 C271 1.390 . S
C270 H272 0.931 . S
C271 C269 1.321 . S
C271 C270 1.390 . S
C271 H273 0.930 . S
H272 C270 0.931 . S
H273 C271 0.930 . S
H274 C297 0.931 . S
H275 C263 0.929 . S
H276 C298 0.930 1_545 S
H277 C269 0.931 . S
H278 C259 0.930 . S
H279 C288 0.929 . S
H280 C264 0.931 . S
H281 C265 0.930 . S
H282 C320 0.930 . S
H283 C261 0.929 . S
H284 C289 0.931 . S
H285 C290 0.930 . S
N286 Gd266 2.622 . S
N286 C287 1.369 . S
N286 C288 1.338 . S
C287 N286 1.369 . S
C287 C291 1.415 . S
C287 C294 1.422 . S
C288 H279 0.929 . S
C288 N286 1.338 . S
C288 C290 1.378 . S
C289 H284 0.931 . S
C289 C290 1.348 . S
C289 C291 1.413 . S
C290 H285 0.930 . S
C290 C288 1.378 . S
C290 C289 1.348 . S
C291 C287 1.415 . S
C291 C289 1.413 . S
C291 C321 1.437 . S
H292 C321 0.929 . S
N293 Gd266 2.570 . S
N293 C294 1.359 . S
N293 C297 1.343 . S
C294 C287 1.422 . S
C294 N293 1.359 . S
C294 C296 1.421 . S
C295 C296 1.422 . S
C295 C298 1.321 . S
C295 H322 0.931 1_565 S
C296 C294 1.421 . S
C296 C295 1.422 . S
C296 C320 1.417 . S
C297 H274 0.931 . S
C297 N293 1.343 . S
C297 C298 1.390 . S
C298 H276 0.930 1_565 S
C298 C295 1.321 . S
C298 C297 1.390 . S
O299 Gd267 2.386 . S
O299 C311 1.265 . S
O300 Gd266 2.360 . S
O300 C311 1.233 1_455 S
O301 Gd266 2.468 . S
O301 C319 1.263 . S
O302 Gd266 2.427 . S
O302 C319 1.252 . S
O303 Gd267 2.307 1_455 S
O303 C312 1.261 . S
O304 Gd266 2.388 . S
O304 C312 1.252 . S
O305 Gd266 2.386 . S
O305 C323 1.265 . S
O306 Gd267 2.353 1_455 S
O306 C323 1.242 . S
O307 Gd267 2.468 . S
O307 C331 1.263 . S
O308 Gd267 2.427 . S
O308 C331 1.252 . S
O309 Gd266 2.307 . S
O309 C324 1.261 1_455 S
O310 Gd267 2.388 . S
O310 C324 1.252 . S
C311 O299 1.265 . S
C311 O300 1.233 1_655 S
C312 O303 1.261 . S
C312 O304 1.252 . S
C313 C316 1.394 . S
C313 C318 1.370 . S
C313 C319 1.500 . S
C314 C317 1.383 . S
C314 C318 1.395 . S
C315 C316 1.396 . S
C315 C317 1.365 . S
C315 H332 0.929 . S
C316 C313 1.394 . S
C316 C315 1.396 . S
C316 H333 0.930 . S
C317 C314 1.383 . S
C317 C315 1.365 . S
C317 H334 0.931 . S
C318 C313 1.370 . S
C318 C314 1.395 . S
C318 H335 0.930 . S
C319 Gd266 2.805 . S
C319 O301 1.263 . S
C319 O302 1.252 . S
C319 C313 1.500 . S
C320 H282 0.930 . S
C320 C296 1.417 . S
C320 C321 1.329 . S
C321 C291 1.437 . S
C321 H292 0.929 . S
C321 C320 1.329 . S
H322 C295 0.931 1_545 S
C323 O305 1.265 . S
C323 O306 1.242 . S
C324 O309 1.261 1_655 S
C324 O310 1.252 . S
C325 C328 1.394 . S
C325 C330 1.370 . S
C325 C331 1.500 . S
C326 C329 1.383 . S
C326 C330 1.395 . S
C327 C328 1.396 . S
C327 C329 1.365 . S
C327 H336 0.929 . S
C328 C325 1.394 . S
C328 C327 1.396 . S
C328 H337 0.930 . S
C329 C326 1.383 . S
C329 C327 1.365 . S
C329 H338 0.931 . S
C330 C325 1.370 . S
C330 C326 1.395 . S
C330 H339 0.930 . S
C331 Gd267 2.805 . S
C331 O307 1.263 . S
C331 O308 1.252 . S
C331 C325 1.500 . S
H332 C315 0.929 . S
H333 C316 0.930 . S
H334 C317 0.931 . S
H335 C318 0.930 . S
H336 C327 0.929 . S
H337 C328 0.930 . S
H338 C329 0.931 . S
H339 C330 0.930 . S
C340 C342 1.422 . S
C340 C344 1.415 . S
C340 N346 1.369 . S
C341 C342 1.421 . S
C341 C343 1.417 . S
C341 C353 1.422 . S
C342 C340 1.422 . S
C342 C341 1.421 . S
C342 N352 1.359 . S
C343 C341 1.417 . S
C343 C345 1.329 . S
C343 H362 0.930 . S
C344 C340 1.415 . S
C344 C345 1.437 . S
C344 C348 1.413 . S
C345 C343 1.329 . S
C345 C344 1.437 . S
C345 H367 0.929 . S
N346 C340 1.369 . S
N346 C347 1.338 . S
N346 Gd351 2.622 . S
C347 N346 1.338 . S
C347 C349 1.378 . S
C347 H359 0.929 . S
C348 C344 1.413 . S
C348 C349 1.348 . S
C348 H364 0.931 . S
C349 C347 1.378 . S
C349 C348 1.348 . S
C349 H365 0.930 . S
Gd350 N370 2.622 . S
Gd350 N377 2.570 . S
Gd350 O384 2.353 . S
Gd350 O385 2.468 . S
Gd350 O386 2.427 . S
Gd350 O388 2.388 . S
Gd350 O389 2.386 . S
Gd350 O393 2.307 . S
Gd350 C403 2.805 . S
Gd351 N346 2.622 . S
Gd351 N352 2.570 . S
Gd351 O383 2.386 . S
Gd351 O387 2.307 . S
Gd351 O390 2.353 . S
Gd351 O391 2.468 . S
Gd351 O392 2.427 . S
Gd351 O394 2.388 . S
Gd351 C415 2.805 . S
N352 C342 1.359 . S
N352 Gd351 2.570 . S
N352 C354 1.343 . S
C353 C341 1.422 . S
C353 C355 1.321 . S
C353 H361 0.931 . S
C354 N352 1.343 . S
C354 C355 1.390 . S
C354 H356 0.931 . S
C355 C353 1.321 . S
C355 C354 1.390 . S
C355 H357 0.930 . S
H356 C354 0.931 . S
H357 C355 0.930 . S
H358 C381 0.931 . S
H359 C347 0.929 . S
H360 C382 0.930 . S
H361 C353 0.931 . S
H362 C343 0.930 . S
H363 C372 0.929 . S
H364 C348 0.931 . S
H365 C349 0.930 . S
H366 C404 0.930 . S
H367 C345 0.929 . S
H368 C373 0.931 . S
H369 C374 0.930 . S
N370 Gd350 2.622 . S
N370 C371 1.369 . S
N370 C372 1.338 . S
C371 N370 1.369 . S
C371 C375 1.415 . S
C371 C378 1.422 . S
C372 H363 0.929 . S
C372 N370 1.338 . S
C372 C374 1.378 . S
C373 H368 0.931 . S
C373 C374 1.348 . S
C373 C375 1.413 . S
C374 H369 0.930 . S
C374 C372 1.378 . S
C374 C373 1.348 . S
C375 C371 1.415 . S
C375 C373 1.413 . S
C375 C405 1.437 . S
H376 C405 0.929 . S
N377 Gd350 2.570 . S
N377 C378 1.359 . S
N377 C381 1.343 . S
C378 C371 1.422 . S
C378 N377 1.359 . S
C378 C380 1.421 . S
C379 C380 1.422 . S
C379 C382 1.321 . S
C379 H406 0.931 . S
C380 C378 1.421 . S
C380 C379 1.422 . S
C380 C404 1.417 . S
C381 H358 0.931 . S
C381 N377 1.343 . S
C381 C382 1.390 . S
C382 H360 0.930 . S
C382 C379 1.321 . S
C382 C381 1.390 . S
O383 Gd351 2.386 . S
O383 C395 1.265 . S
O384 Gd350 2.353 . S
O384 C395 1.242 . S
O385 Gd350 2.468 . S
O385 C403 1.263 . S
O386 Gd350 2.427 . S
O386 C403 1.252 . S
O387 Gd351 2.307 . S
O387 C396 1.261 . S
O388 Gd350 2.388 . S
O388 C396 1.252 . S
O389 Gd350 2.386 . S
O389 C407 1.265 . S
O390 Gd351 2.353 . S
O390 C407 1.242 . S
O391 Gd351 2.468 . S
O391 C415 1.263 . S
O392 Gd351 2.427 . S
O392 C415 1.252 . S
O393 Gd350 2.307 . S
O393 C408 1.261 . S
O394 Gd351 2.388 . S
O394 C408 1.252 . S
C395 O383 1.265 . S
C395 O384 1.242 . S
C396 O387 1.261 . S
C396 O388 1.252 . S
C397 C400 1.394 . S
C397 C402 1.370 . S
C397 C403 1.500 . S
C398 C401 1.383 . S
C398 C402 1.395 . S
C399 C400 1.396 . S
C399 C401 1.365 . S
C399 H416 0.929 . S
C400 C397 1.394 . S
C400 C399 1.396 . S
C400 H417 0.930 . S
C401 C398 1.383 . S
C401 C399 1.365 . S
C401 H418 0.931 . S
C402 C397 1.370 . S
C402 C398 1.395 . S
C402 H419 0.930 . S
C403 Gd350 2.805 . S
C403 O385 1.263 . S
C403 O386 1.252 . S
C403 C397 1.500 . S
C404 H366 0.930 . S
C404 C380 1.417 . S
C404 C405 1.329 . S
C405 C375 1.437 . S
C405 H376 0.929 . S
C405 C404 1.329 . S
H406 C379 0.931 . S
C407 O389 1.265 . S
C407 O390 1.242 . S
C408 O393 1.261 . S
C408 O394 1.252 . S
C409 C412 1.394 . S
C409 C414 1.370 . S
C409 C415 1.500 . S
C410 C413 1.383 . S
C410 C414 1.395 . S
C411 C412 1.396 . S
C411 C413 1.365 . S
C411 H420 0.929 . S
C412 C409 1.394 . S
C412 C411 1.396 . S
C412 H421 0.930 . S
C413 C410 1.383 . S
C413 C411 1.365 . S
C413 H422 0.931 . S
C414 C409 1.370 . S
C414 C410 1.395 . S
C414 H423 0.930 . S
C415 Gd351 2.805 . S
C415 O391 1.263 . S
C415 O392 1.252 . S
C415 C409 1.500 . S
H416 C399 0.929 . S
H417 C400 0.930 . S
H418 C401 0.931 . S
H419 C402 0.930 . S
H420 C411 0.929 . S
H421 C412 0.930 . S
H422 C413 0.931 . S
H423 C414 0.930 . S
H424 C430 0.930 . S
H425 C434 0.930 . S
H426 C439 0.929 . S
H427 C437 0.929 . S
H428 C432 0.929 . S
H429 C438 0.929 . S
C430 H424 0.930 . S
C430 C431 1.367 . S
C430 C438 1.378 . S
C431 C430 1.367 . S
C431 C439 1.433 . S
C432 H428 0.929 . S
C432 C434 1.378 1_565 S
C432 C436 1.350 . S
C433 C436 1.463 . S
C433 C438 1.350 . S
C433 N441 1.427 . S
C434 H425 0.930 . S
C434 C432 1.378 1_545 S
C434 C435 1.367 . S
C435 C434 1.367 . S
C435 C437 1.433 . S
C436 C432 1.350 . S
C436 C433 1.463 . S
C436 N440 1.427 1_565 S
C437 H427 0.929 . S
C437 C435 1.433 . S
C437 N440 1.384 . S
C438 H429 0.929 . S
C438 C430 1.378 . S
C438 C433 1.350 . S
C439 H426 0.929 . S
C439 C431 1.433 . S
C439 N441 1.384 . S
N440 C436 1.427 1_545 S
N440 C437 1.384 . S
N441 C433 1.427 . S
N441 C439 1.384 . S
H442 C448 0.930 . S
H443 C452 0.930 . S
H444 C457 0.929 . S
H445 C455 0.929 . S
H446 C450 0.929 . S
H447 C456 0.929 . S
C448 H442 0.930 . S
C448 C449 1.367 . S
C448 C456 1.378 . S
C449 C448 1.367 . S
C449 C457 1.433 . S
C450 H446 0.929 . S
C450 C452 1.378 . S
C450 C454 1.350 . S
C451 C454 1.463 . S
C451 C456 1.350 . S
C451 N459 1.427 . S
C452 H443 0.930 . S
C452 C450 1.378 . S
C452 C453 1.367 . S
C453 C452 1.367 . S
C453 C455 1.433 . S
C454 C450 1.350 . S
C454 C451 1.463 . S
C454 N458 1.427 . S
C455 H445 0.929 . S
C455 C453 1.433 . S
C455 N458 1.384 . S
C456 H447 0.929 . S
C456 C448 1.378 . S
C456 C451 1.350 . S
C457 H444 0.929 . S
C457 C449 1.433 . S
C457 N459 1.384 . S
N458 C454 1.427 . S
N458 C455 1.384 . S
N459 C451 1.427 . S
N459 C457 1.384 . S
H460 C466 0.930 . S
H461 C470 0.930 . S
H462 C475 0.929 . S
H463 C473 0.929 . S
H464 C468 0.929 . S
H465 C474 0.929 . S
C466 H460 0.930 . S
C466 C467 1.367 . S
C466 C474 1.378 . S
C467 C466 1.367 . S
C467 C475 1.433 . S
C468 H464 0.929 . S
C468 C470 1.378 . S
C468 C472 1.350 . S
C469 C472 1.463 . S
C469 C474 1.350 . S
C469 N477 1.427 . S
C470 H461 0.930 . S
C470 C468 1.378 . S
C470 C471 1.367 . S
C471 C470 1.367 . S
C471 C473 1.433 . S
C472 C468 1.350 . S
C472 C469 1.463 . S
C472 N476 1.427 . S
C473 H463 0.929 . S
C473 C471 1.433 . S
C473 N476 1.384 . S
C474 H465 0.929 . S
C474 C466 1.378 . S
C474 C469 1.350 . S
C475 H462 0.929 . S
C475 C467 1.433 . S
C475 N477 1.384 . S
N476 C472 1.427 . S
N476 C473 1.384 . S
N477 C469 1.427 . S
N477 C475 1.384 . S
H478 C484 0.930 . S
H479 C488 0.930 . S
H480 C493 0.929 . S
H481 C491 0.929 1_455 S
H482 C486 0.929 . S
H483 C492 0.929 . S
C484 H478 0.930 . S
C484 C485 1.367 . S
C484 C492 1.378 . S
C485 C484 1.367 . S
C485 C493 1.433 . S
C486 H482 0.929 . S
C486 C488 1.378 . S
C486 C490 1.350 1_545 S
C487 C490 1.463 . S
C487 C492 1.350 . S
C487 N495 1.427 . S
C488 H479 0.930 . S
C488 C486 1.378 . S
C488 C489 1.367 . S
C489 C488 1.367 . S
C489 C491 1.433 . S
C490 C486 1.350 1_565 S
C490 C487 1.463 . S
C490 N494 1.426 1_565 S
C491 H481 0.929 1_655 S
C491 C489 1.433 . S
C491 N494 1.393 . S
C492 H483 0.929 . S
C492 C484 1.378 . S
C492 C487 1.350 . S
C493 H480 0.929 . S
C493 C485 1.433 . S
C493 N495 1.384 . S
N494 C490 1.426 1_545 S
N494 C491 1.393 . S
N495 C487 1.427 . S
N495 C493 1.384 . S
H496 C502 0.930 . S
H497 C506 0.930 . S
H498 C511 0.929 . S
H499 C509 0.929 . S
H500 C504 0.929 . S
H501 C510 0.929 . S
C502 H496 0.930 . S
C502 C503 1.367 . S
C502 C510 1.378 . S
C503 C502 1.367 . S
C503 C511 1.433 . S
C504 H500 0.929 . S
C504 C506 1.378 1_545 S
C504 C508 1.350 . S
C505 C508 1.463 . S
C505 C510 1.350 . S
C505 N513 1.427 . S
C506 H497 0.930 . S
C506 C504 1.378 1_565 S
C506 C507 1.367 . S
C507 C506 1.367 . S
C507 C509 1.433 . S
C508 C504 1.350 . S
C508 C505 1.463 . S
C508 N512 1.427 1_545 S
C509 H499 0.929 . S
C509 C507 1.433 . S
C509 N512 1.384 . S
C510 H501 0.929 . S
C510 C502 1.378 . S
C510 C505 1.350 . S
C511 H498 0.929 . S
C511 C503 1.433 . S
C511 N513 1.384 . S
N512 C508 1.427 1_565 S
N512 C509 1.384 . S
N513 C505 1.427 . S
N513 C511 1.384 . S
H514 C520 0.930 . S
H515 C524 0.930 . S
H516 C529 0.929 . S
H517 C527 0.929 . S
H518 C522 0.929 . S
H519 C528 0.929 . S
C520 H514 0.930 . S
C520 C521 1.367 . S
C520 C528 1.378 . S
C521 C520 1.367 . S
C521 C529 1.433 . S
C522 H518 0.929 . S
C522 C524 1.378 . S
C522 C526 1.350 . S
C523 C526 1.463 . S
C523 C528 1.350 . S
C523 N531 1.427 . S
C524 H515 0.930 . S
C524 C522 1.378 . S
C524 C525 1.367 . S
C525 C524 1.367 . S
C525 C527 1.433 . S
C526 C522 1.350 . S
C526 C523 1.463 . S
C526 N530 1.427 . S
C527 H517 0.929 . S
C527 C525 1.433 . S
C527 N530 1.384 . S
C528 H519 0.929 . S
C528 C520 1.378 . S
C528 C523 1.350 . S
C529 H516 0.929 . S
C529 C521 1.433 . S
C529 N531 1.384 . S
N530 C526 1.427 . S
N530 C527 1.384 . S
N531 C523 1.427 . S
N531 C529 1.384 . S
H532 C538 0.930 . S
H533 C542 0.930 . S
H534 C547 0.929 . S
H535 C545 0.929 . S
H536 C540 0.929 . S
H537 C546 0.929 . S
C538 H532 0.930 . S
C538 C539 1.367 . S
C538 C546 1.378 . S
C539 C538 1.367 . S
C539 C547 1.433 . S
C540 H536 0.929 . S
C540 C542 1.378 . S
C540 C544 1.350 . S
C541 C544 1.463 . S
C541 C546 1.350 . S
C541 N549 1.427 . S
C542 H533 0.930 . S
C542 C540 1.378 . S
C542 C543 1.367 . S
C543 C542 1.367 . S
C543 C545 1.433 . S
C544 C540 1.350 . S
C544 C541 1.463 . S
C544 N548 1.427 . S
C545 H535 0.929 . S
C545 C543 1.433 . S
C545 N548 1.384 . S
C546 H537 0.929 . S
C546 C538 1.378 . S
C546 C541 1.350 . S
C547 H534 0.929 . S
C547 C539 1.433 . S
C547 N549 1.384 . S
N548 C544 1.427 . S
N548 C545 1.384 . S
N549 C541 1.427 . S
N549 C547 1.384 . S
H550 C556 0.930 . S
H551 C560 0.941 . S
H552 C565 0.929 . S
H553 C563 0.929 . S
H554 C558 0.929 . S
H555 C564 0.936 . S
C556 H550 0.930 . S
C556 C557 1.367 . S
C556 C564 1.373 1_545 S
C557 C556 1.367 . S
C557 C565 1.433 . S
C558 H554 0.929 . S
C558 C560 1.378 1_545 S
C558 C562 1.350 1_545 S
C559 C562 1.463 1_545 S
C559 C564 1.347 1_545 S
C559 N567 1.427 . S
C560 H551 0.941 . S
C560 C558 1.378 1_565 S
C560 C561 1.367 . S
C561 C560 1.367 . S
C561 C563 1.433 . S
C562 C558 1.350 1_565 S
C562 C559 1.463 1_565 S
C562 N566 1.427 . S
C563 H553 0.929 . S
C563 C561 1.433 . S
C563 N566 1.384 . S
C564 H555 0.936 . S
C564 C556 1.373 1_565 S
C564 C559 1.347 1_565 S
C565 H552 0.929 . S
C565 C557 1.433 . S
C565 N567 1.384 . S
N566 C562 1.427 . S
N566 C563 1.384 . S
N567 C559 1.427 . S
N567 C565 1.384 . S
H568 C574 0.930 . S
H569 C578 0.930 . S
H570 C583 0.929 . S
H571 C581 0.929 . S
H572 C576 0.929 . S
H573 C582 0.929 . S
C574 H568 0.930 . S
C574 C575 1.367 . S
C574 C582 1.378 . S
C575 C574 1.367 . S
C575 C583 1.433 . S
C576 H572 0.929 . S
C576 C578 1.378 . S
C576 C580 1.350 . S
C577 C580 1.463 . S
C577 C582 1.350 1_554 S
C577 N585 1.427 . S
C578 H569 0.930 . S
C578 C576 1.378 . S
C578 C579 1.367 . S
C579 C578 1.367 . S
C579 C581 1.433 . S
C580 C576 1.350 . S
C580 C577 1.463 . S
C580 N584 1.427 . S
C581 H571 0.929 . S
C581 C579 1.433 . S
C581 N584 1.384 . S
C582 H573 0.929 . S
C582 C574 1.378 . S
C582 C577 1.350 1_556 S
C583 H570 0.929 . S
C583 C575 1.433 . S
C583 N585 1.384 1_556 S
N584 C580 1.427 . S
N584 C581 1.384 . S
N585 C577 1.427 . S
N585 C583 1.384 1_554 S
H586 C592 0.930 . S
H587 C596 0.930 . S
H588 C601 0.929 . S
H589 C599 0.929 . S
H590 C594 0.929 . S
H591 C600 0.929 . S
C592 H586 0.930 . S
C592 C593 1.367 . S
C592 C600 1.378 . S
C593 C592 1.367 . S
C593 C601 1.433 . S
C594 H590 0.929 . S
C594 C596 1.378 . S
C594 C598 1.350 . S
C595 C598 1.463 . S
C595 C600 1.350 . S
C595 N603 1.427 . S
C596 H587 0.930 . S
C596 C594 1.378 . S
C596 C597 1.367 . S
C597 C596 1.367 . S
C597 C599 1.433 . S
C598 C594 1.350 . S
C598 C595 1.463 . S
C598 N602 1.427 . S
C599 H589 0.929 . S
C599 C597 1.433 . S
C599 N602 1.384 . S
C600 H591 0.929 . S
C600 C592 1.378 . S
C600 C595 1.350 . S
C601 H588 0.929 . S
C601 C593 1.433 . S
C601 N603 1.384 . S
N602 C598 1.427 . S
N602 C599 1.384 . S
N603 C595 1.427 . S
N603 C601 1.384 . S
H604 C610 0.930 . S
H605 C614 0.930 . S
H606 C619 0.929 . S
H607 C617 0.929 . S
H608 C612 0.929 . S
H609 C618 0.929 . S
C610 H604 0.930 . S
C610 C611 1.367 . S
C610 C618 1.378 1_554 S
C611 C610 1.367 . S
C611 C619 1.433 . S
C612 H608 0.929 . S
C612 C614 1.378 . S
C612 C616 1.350 . S
C613 C616 1.463 . S
C613 C618 1.350 . S
C613 N621 1.427 1_556 S
C614 H605 0.930 . S
C614 C612 1.378 . S
C614 C615 1.367 . S
C615 C614 1.367 . S
C615 C617 1.433 . S
C616 C612 1.350 . S
C616 C613 1.463 . S
C616 N620 1.427 . S
C617 H607 0.929 . S
C617 C615 1.433 . S
C617 N620 1.384 . S
C618 H609 0.929 . S
C618 C610 1.378 1_556 S
C618 C613 1.350 . S
C619 H606 0.929 . S
C619 C611 1.433 . S
C619 N621 1.384 . S
N620 C616 1.427 . S
N620 C617 1.384 . S
N621 C613 1.427 1_554 S
N621 C619 1.384 . S
H622 C628 0.930 . S
H623 C632 0.930 . S
H624 C637 0.929 . S
H625 C635 0.929 . S
H626 C630 0.929 . S
H627 C636 0.929 . S
C628 H622 0.930 . S
C628 C629 1.367 . S
C628 C636 1.378 . S
C629 C628 1.367 . S
C629 C637 1.433 . S
C630 H626 0.929 . S
C630 C632 1.378 . S
C630 C634 1.350 . S
C631 C634 1.463 . S
C631 C636 1.350 . S
C631 N639 1.427 . S
C632 H623 0.930 . S
C632 C630 1.378 . S
C632 C633 1.367 . S
C633 C632 1.367 . S
C633 C635 1.433 . S
C634 C630 1.350 . S
C634 C631 1.463 . S
C634 N638 1.427 . S
C635 H625 0.929 . S
C635 C633 1.433 . S
C635 N638 1.384 . S
C636 H627 0.929 . S
C636 C628 1.378 . S
C636 C631 1.350 . S
C637 H624 0.929 . S
C637 C629 1.433 . S
C637 N639 1.384 . S
N638 C634 1.427 . S
N638 C635 1.384 . S
N639 C631 1.427 . S
N639 C637 1.384 . S
H640 C646 0.930 . S
H641 C650 0.930 . S
H642 C655 0.929 . S
H643 C653 0.929 . S
H644 C648 0.929 . S
H645 C654 0.929 . S
C646 H640 0.930 . S
C646 C647 1.367 . S
C646 C654 1.378 1_554 S
C647 C646 1.367 . S
C647 C655 1.433 . S
C648 H644 0.929 . S
C648 C650 1.378 . S
C648 C652 1.350 . S
C649 C652 1.463 . S
C649 C654 1.350 . S
C649 N657 1.427 . S
C650 H641 0.930 . S
C650 C648 1.378 . S
C650 C651 1.367 . S
C651 C650 1.367 . S
C651 C653 1.433 . S
C652 C648 1.350 . S
C652 C649 1.463 . S
C652 N656 1.427 . S
C653 H643 0.929 . S
C653 C651 1.433 . S
C653 N656 1.384 . S
C654 H645 0.929 . S
C654 C646 1.378 1_556 S
C654 C649 1.350 . S
C655 H642 0.929 . S
C655 C647 1.433 . S
C655 N657 1.384 1_554 S
N656 C652 1.427 . S
N656 C653 1.384 . S
N657 C649 1.427 . S
N657 C655 1.384 1_556 S
H658 C664 0.930 . S
H659 C668 0.930 . S
H660 C673 0.929 . S
H661 C671 0.929 . S
H662 C666 0.929 . S
H663 C672 0.929 . S
C664 H658 0.930 . S
C664 C665 1.367 . S
C664 C672 1.378 . S
C665 C664 1.367 . S
C665 C673 1.433 . S
C666 H662 0.929 . S
C666 C668 1.378 . S
C666 C670 1.350 . S
C667 C670 1.463 . S
C667 C672 1.350 . S
C667 N675 1.427 . S
C668 H659 0.930 . S
C668 C666 1.378 . S
C668 C669 1.367 . S
C669 C668 1.367 . S
C669 C671 1.433 . S
C670 C666 1.350 . S
C670 C667 1.463 . S
C670 N674 1.427 . S
C671 H661 0.929 . S
C671 C669 1.433 . S
C671 N674 1.384 . S
C672 H663 0.929 . S
C672 C664 1.378 . S
C672 C667 1.350 . S
C673 H660 0.929 . S
C673 C665 1.433 . S
C673 N675 1.384 . S
N674 C670 1.427 . S
N674 C671 1.384 . S
N675 C667 1.427 . S
N675 C673 1.384 . S
H676 C682 0.930 . S
H677 C686 0.930 . S
H678 C691 0.929 . S
H679 C689 0.929 . S
H680 C684 0.929 . S
H681 C690 0.929 . S
C682 H676 0.930 . S
C682 C683 1.367 . S
C682 C690 1.378 1_556 S
C683 C682 1.367 . S
C683 C691 1.433 . S
C684 H680 0.929 . S
C684 C686 1.378 . S
C684 C688 1.350 . S
C685 C688 1.463 . S
C685 C690 1.350 . S
C685 N693 1.427 . S
C686 H677 0.930 . S
C686 C684 1.378 . S
C686 C687 1.367 . S
C687 C686 1.367 . S
C687 C689 1.433 . S
C688 C684 1.350 . S
C688 C685 1.463 . S
C688 N692 1.427 . S
C689 H679 0.929 . S
C689 C687 1.433 . S
C689 N692 1.384 . S
C690 H681 0.929 . S
C690 C682 1.378 1_554 S
C690 C685 1.350 . S
C691 H678 0.929 . S
C691 C683 1.433 . S
C691 N693 1.384 1_556 S
N692 C688 1.427 . S
N692 C689 1.384 . S
N693 C685 1.427 . S
N693 C691 1.384 1_554 S
H694 C700 0.930 . S
H695 C704 0.930 . S
H696 C709 0.929 . S
H697 C707 0.929 . S
H698 C702 0.929 . S
H699 C708 0.929 . S
C700 H694 0.930 . S
C700 C701 1.367 . S
C700 C708 1.378 . S
C701 C700 1.367 . S
C701 C709 1.433 . S
C702 H698 0.929 . S
C702 C704 1.378 . S
C702 C706 1.350 . S
C703 C706 1.463 . S
C703 C708 1.350 . S
C703 N711 1.427 . S
C704 H695 0.930 . S
C704 C702 1.378 . S
C704 C705 1.367 . S
C705 C704 1.367 . S
C705 C707 1.433 . S
C706 C702 1.350 . S
C706 C703 1.463 . S
C706 N710 1.427 . S
C707 H697 0.929 . S
C707 C705 1.433 . S
C707 N710 1.384 . S
C708 H699 0.929 . S
C708 C700 1.378 . S
C708 C703 1.350 . S
C709 H696 0.929 . S
C709 C701 1.433 . S
C709 N711 1.384 . S
N710 C706 1.427 . S
N710 C707 1.384 . S
N711 C703 1.427 . S
N711 C709 1.384 . S
H712 C718 0.930 . S
H713 C722 0.930 . S
H714 C727 0.929 . S
H715 C725 0.929 . S
H716 C720 0.929 . S
H717 C726 0.929 . S
C718 H712 0.930 . S
C718 C719 1.367 . S
C718 C726 1.378 . S
C719 C718 1.367 . S
C719 C727 1.433 . S
C720 H716 0.929 . S
C720 C722 1.378 . S
C720 C724 1.350 . S
C721 C724 1.463 . S
C721 C726 1.350 . S
C721 N729 1.427 . S
C722 H713 0.930 . S
C722 C720 1.378 . S
C722 C723 1.367 . S
C723 C722 1.367 . S
C723 C725 1.433 . S
C724 C720 1.350 . S
C724 C721 1.463 . S
C724 N728 1.427 . S
C725 H715 0.929 . S
C725 C723 1.433 . S
C725 N728 1.384 . S
C726 H717 0.929 . S
C726 C718 1.378 . S
C726 C721 1.350 . S
C727 H714 0.929 . S
C727 C719 1.433 . S
C727 N729 1.384 . S
N728 C724 1.427 . S
N728 C725 1.384 . S
N729 C721 1.427 . S
N729 C727 1.384 . S
H730 C736 0.930 . S
H731 C740 0.930 . S
H732 C745 0.929 . S
H733 C743 0.929 . S
H734 C738 0.929 . S
H735 C744 0.929 . S
C736 H730 0.930 . S
C736 C737 1.367 . S
C736 C744 1.378 . S
C737 C736 1.367 . S
C737 C745 1.433 . S
C738 H734 0.929 . S
C738 C740 1.378 . S
C738 C742 1.350 . S
C739 C742 1.463 . S
C739 C744 1.350 . S
C739 N747 1.427 . S
C740 H731 0.930 . S
C740 C738 1.378 . S
C740 C741 1.367 . S
C741 C740 1.367 . S
C741 C743 1.433 . S
C742 C738 1.350 . S
C742 C739 1.463 . S
C742 N746 1.427 . S
C743 H733 0.929 . S
C743 C741 1.433 . S
C743 N746 1.384 . S
C744 H735 0.929 . S
C744 C736 1.378 . S
C744 C739 1.350 . S
C745 H732 0.929 . S
C745 C737 1.433 . S
C745 N747 1.384 . S
N746 C742 1.427 . S
N746 C743 1.384 . S
N747 C739 1.427 . S
N747 C745 1.384 . S
H748 C754 0.930 . S
H749 C758 0.930 . S
H750 C763 0.929 . S
H751 C761 0.929 . S
H752 C756 0.929 . S
H753 C762 0.929 . S
C754 H748 0.930 . S
C754 C755 1.367 . S
C754 C762 1.378 . S
C755 C754 1.367 . S
C755 C763 1.433 . S
C756 H752 0.929 . S
C756 C758 1.378 . S
C756 C760 1.350 . S
C757 C760 1.463 . S
C757 C762 1.350 . S
C757 N765 1.427 . S
C758 H749 0.930 . S
C758 C756 1.378 . S
C758 C759 1.367 . S
C759 C758 1.367 . S
C759 C761 1.433 . S
C760 C756 1.350 . S
C760 C757 1.463 . S
C760 N764 1.427 . S
C761 H751 0.929 . S
C761 C759 1.433 . S
C761 N764 1.384 . S
C762 H753 0.929 . S
C762 C754 1.378 . S
C762 C757 1.350 . S
C763 H750 0.929 . S
C763 C755 1.433 . S
C763 N765 1.384 . S
N764 C760 1.427 . S
N764 C761 1.384 . S
N765 C757 1.427 . S
N765 C763 1.384 . S
H766 C772 0.930 . S
H767 C776 0.930 . S
H768 C781 0.929 . S
H769 C779 0.929 . S
H770 C774 0.929 . S
H771 C780 0.929 . S
C772 H766 0.930 . S
C772 C773 1.367 . S
C772 C780 1.378 . S
C773 C772 1.367 . S
C773 C781 1.433 . S
C774 H770 0.929 . S
C774 C776 1.378 . S
C774 C778 1.350 . S
C775 C778 1.463 . S
C775 C780 1.350 . S
C775 N783 1.427 . S
C776 H767 0.930 . S
C776 C774 1.378 . S
C776 C777 1.367 . S
C777 C776 1.367 . S
C777 C779 1.433 . S
C778 C774 1.350 . S
C778 C775 1.463 . S
C778 N782 1.427 . S
C779 H769 0.929 . S
C779 C777 1.433 . S
C779 N782 1.384 . S
C780 H771 0.929 . S
C780 C772 1.378 . S
C780 C775 1.350 . S
C781 H768 0.929 . S
C781 C773 1.433 . S
C781 N783 1.384 . S
N782 C778 1.427 . S
N782 C779 1.384 . S
N783 C775 1.427 . S
N783 C781 1.384 . S
H784 C790 0.930 . S
H785 C794 0.930 . S
H786 C799 0.929 . S
H787 C797 0.929 . S
H788 C792 0.929 . S
H789 C798 0.929 . S
C790 H784 0.930 . S
C790 C791 1.367 . S
C790 C798 1.378 . S
C791 C790 1.367 . S
C791 C799 1.433 . S
C792 H788 0.929 . S
C792 C794 1.378 . S
C792 C796 1.350 . S
C793 C796 1.463 . S
C793 C798 1.350 . S
C793 N801 1.427 . S
C794 H785 0.930 . S
C794 C792 1.378 . S
C794 C795 1.367 . S
C795 C794 1.367 . S
C795 C797 1.433 . S
C796 C792 1.350 . S
C796 C793 1.463 . S
C796 N800 1.427 . S
C797 H787 0.929 . S
C797 C795 1.433 . S
C797 N800 1.384 . S
C798 H789 0.929 . S
C798 C790 1.378 . S
C798 C793 1.350 . S
C799 H786 0.929 . S
C799 C791 1.433 . S
C799 N801 1.384 . S
N800 C796 1.427 . S
N800 C797 1.384 . S
N801 C793 1.427 . S
N801 C799 1.384 . S
H802 C808 0.930 . S
H803 C812 0.930 . S
H804 C817 0.929 . S
H805 C815 0.929 . S
H806 C810 0.929 . S
H807 C816 0.929 . S
C808 H802 0.930 . S
C808 C809 1.367 . S
C808 C816 1.378 . S
C809 C808 1.367 . S
C809 C817 1.433 . S
C810 H806 0.929 . S
C810 C812 1.378 . S
C810 C814 1.350 . S
C811 C814 1.463 . S
C811 C816 1.350 . S
C811 N819 1.427 . S
C812 H803 0.930 . S
C812 C810 1.378 . S
C812 C813 1.367 . S
C813 C812 1.367 . S
C813 C815 1.433 . S
C814 C810 1.350 . S
C814 C811 1.463 . S
C814 N818 1.427 . S
C815 H805 0.929 . S
C815 C813 1.433 . S
C815 N818 1.384 . S
C816 H807 0.929 . S
C816 C808 1.378 . S
C816 C811 1.350 . S
C817 H804 0.929 . S
C817 C809 1.433 . S
C817 N819 1.384 . S
N818 C814 1.427 . S
N818 C815 1.384 . S
N819 C811 1.427 . S
N819 C817 1.384 . S
H820 C826 0.930 . S
H821 C830 0.930 . S
H822 C835 0.929 . S
H823 C833 0.929 . S
H824 C828 0.929 . S
H825 C834 0.929 . S
C826 H820 0.930 . S
C826 C827 1.367 . S
C826 C834 1.378 . S
C827 C826 1.367 . S
C827 C835 1.433 . S
C828 H824 0.929 . S
C828 C830 1.378 . S
C828 C832 1.350 . S
C829 C832 1.463 . S
C829 C834 1.350 . S
C829 N837 1.427 . S
C830 H821 0.930 . S
C830 C828 1.378 . S
C830 C831 1.367 . S
C831 C830 1.367 . S
C831 C833 1.433 . S
C832 C828 1.350 . S
C832 C829 1.463 . S
C832 N836 1.427 . S
C833 H823 0.929 . S
C833 C831 1.433 . S
C833 N836 1.384 . S
C834 H825 0.929 . S
C834 C826 1.378 . S
C834 C829 1.350 . S
C835 H822 0.929 . S
C835 C827 1.433 . S
C835 N837 1.384 . S
N836 C832 1.427 . S
N836 C833 1.384 . S
N837 C829 1.427 . S
N837 C835 1.384 . S
H838 C844 0.930 . S
H839 C848 0.930 . S
H840 C853 0.929 . S
H841 C851 0.929 . S
H842 C846 0.929 . S
H843 C852 0.929 . S
C844 H838 0.930 . S
C844 C845 1.367 . S
C844 C852 1.378 . S
C845 C844 1.367 . S
C845 C853 1.433 . S
C846 H842 0.929 . S
C846 C848 1.378 . S
C846 C850 1.350 . S
C847 C850 1.463 . S
C847 C852 1.350 . S
C847 N855 1.427 . S
C848 H839 0.930 . S
C848 C846 1.378 . S
C848 C849 1.367 . S
C849 C848 1.367 . S
C849 C851 1.433 . S
C850 C846 1.350 . S
C850 C847 1.463 . S
C850 N854 1.427 . S
C851 H841 0.929 . S
C851 C849 1.433 . S
C851 N854 1.384 . S
C852 H843 0.929 . S
C852 C844 1.378 . S
C852 C847 1.350 . S
C853 H840 0.929 . S
C853 C845 1.433 . S
C853 N855 1.384 . S
N854 C850 1.427 . S
N854 C851 1.384 . S
N855 C847 1.427 . S
N855 C853 1.384 . S
C431 C73 1.614 . S
C435 C144 1.643 . S
C453 C228 1.749 . S
C449 C84 1.742 . S
C471 C227 1.648 . S
C467 C51 1.604 . S
C485 C62 1.738 . S
C489 C143 1.763 . S
C507 C324 1.644 . S
C503 C29 1.599 . S
C525 C408 1.590 . S
C521 C38 1.471 . S
C539 C7 1.581 . S
C543 C407 1.653 . S
C557 C16 1.478 . S
C561 C323 1.595 . S
C579 C146 1.488 . S
C575 C18 1.662 . S
C597 C230 1.520 . S
C593 C5 1.435 . S
C615 C242 1.455 . S
C611 C40 1.662 . S
C633 C158 1.484 . S
C629 C27 1.438 . S
C651 C326 1.332 . S
C647 C60 1.348 . S
C665 C49 1.369 . S
C669 C410 1.363 . S
C687 C398 1.340 . S
C683 C82 1.361 . S
C701 C71 1.365 . S
C705 C314 1.331 . S
C723 C155 1.660 . S
C719 C8 1.638 . S
C741 C239 1.562 . S
C737 C19 1.558 . S
C755 C30 1.641 . S
C759 C240 1.633 . S
C777 C156 1.539 . S
C773 C41 1.543 . S
C795 C311 1.426 . S
C791 C52 1.425 . S
C809 C63 1.552 . S
C813 C395 1.551 . S
C827 C74 1.412 . S
C831 C396 1.390 . S
C845 C85 1.543 . S
C849 C312 1.507 . S
