# Generated by pormake.
# Topology bcu-b, (8,8)-cn, num edge types: 1
# Building blocks:
#     Node 0, Type 0, BuildingBlock: VETTIZ_charged_sbu_0, # of connection points: 8
#     Node 1, Type 1, BuildingBlock: VETTIZ_charged_sbu_0, # of connection points: 8
#     Edge 2, Type (0, 1), BuildingBlock: TEMPAE_clean_linker_10, # of connection points: 2
#     Edge 3, Type (0, 1), BuildingBlock: TEMPAE_clean_linker_10, # of connection points: 2
#     Edge 4, Type (0, 1), BuildingBlock: TEMPAE_clean_linker_10, # of connection points: 2
#     Edge 5, Type (0, 1), BuildingBlock: TEMPAE_clean_linker_10, # of connection points: 2
#     Edge 6, Type (0, 1), BuildingBlock: TEMPAE_clean_linker_10, # of connection points: 2
#     Edge 7, Type (0, 1), BuildingBlock: TEMPAE_clean_linker_10, # of connection points: 2
#     Edge 8, Type (0, 1), BuildingBlock: TEMPAE_clean_linker_10, # of connection points: 2
#     Edge 9, Type (0, 1), BuildingBlock: TEMPAE_clean_linker_10, # of connection points: 2
# Relax obj value: 0.000
# Max RMSD: 0.009
# Mean RMSD: 0.009
data_MOF--net-bcu-b--node1-VETTIZ_charged_sbu_0--node2-VETTIZ_charged_sbu_0--edge1-TEMPAE_clean_linker_10
_symmetry_space_group_name_H-M    P1
_symmetry_Int_Tables_number       1
_symmetry_cell_setting            triclinic
loop_
_symmetry_equiv_pos_as_xyz
'x, y, z'
_cell_length_a     19.330843
_cell_length_b     20.660232
_cell_length_c     19.32625
_cell_angle_alpha  89.85075
_cell_angle_beta   89.952999
_cell_angle_gamma 89.874953
loop_
_atom_site_label
_atom_site_type_symbol
_atom_site_fract_x
_atom_site_fract_y
_atom_site_fract_z
_atom_type_partial_charge
Fe0 Fe 1.02347 0.91937 0.02604 0.0
O1 O 0.07156 0.99082 0.07581 0.0
Fe2 Fe 0.97307 0.99276 0.87263 0.0
Fe3 Fe 0.07832 0.99501 0.17675 0.0
O4 O 0.97869 0.99169 0.97392 0.0
O5 O 0.97903 -0.00165 0.9737 0.0
O6 O 0.07171 -0.00273 0.07572 0.0
Fe7 Fe 0.0279 0.06979 1.023 0.0
C8 C 0.94709 0.9135 0.16095 0.0
O9 O 0.07969 0.85269 0.08785 0.0
O10 O 0.14375 0.91811 0.16026 0.0
O11 O 0.10921 0.06721 0.95376 0.0
O12 O 0.05055 0.05945 0.85489 0.0
O13 O 0.04429 0.91953 0.8589 0.0
O14 O 0.10451 0.91604 0.95675 0.0
O15 O 0.14733 0.0686 0.15816 0.0
O16 O 0.0873 0.1352 0.08298 0.0
C17 C 0.09965 0.90714 0.8919 0.0
O18 O 0.97379 0.13662 0.95915 0.0
O19 O 0.90946 0.07097 0.88714 0.0
O20 O 0.9426 0.92053 0.09569 0.0
O21 O 1.00224 0.92667 0.19403 0.0
C22 C 0.13085 0.86308 0.13061 0.0
C23 C 0.13706 0.12366 0.12721 0.0
C24 C 0.95114 0.0818 0.15768 0.0
O25 O 1.00541 0.06678 0.19149 0.0
O26 O 0.94687 0.07478 0.09239 0.0
C27 C 0.10526 0.07332 0.88834 0.0
O28 O 0.90296 0.92053 0.89201 0.0
O29 O 0.96429 0.85376 0.9659 0.0
C30 C 0.92559 0.1269 0.91287 0.0
C31 C 0.91363 0.86542 0.92271 0.0
Fe32 Fe 0.52332 0.57012 0.52467 0.0
O33 O 0.47338 0.49756 0.57129 0.0
Fe34 Fe 0.67739 0.49832 0.47444 0.0
Fe35 Fe 0.37228 0.49309 0.57716 0.0
O36 O 0.57614 0.49893 0.4792 0.0
O37 O 0.57614 0.49237 0.47913 0.0
O38 O 0.47331 0.49099 0.57108 0.0
Fe39 Fe 0.52558 0.41964 0.52509 0.0
C40 C 0.41794 0.62382 0.63241 0.0
O41 O 0.45425 0.56987 0.44334 0.0
O42 O 0.35576 0.56327 0.50282 0.0
O43 O 0.58845 0.35432 0.46864 0.0
O44 O 0.6637 0.42105 0.40907 0.0
O45 O 0.65847 0.57145 0.40493 0.0
O46 O 0.5837 0.63692 0.46666 0.0
O47 O 0.35779 0.4231 0.50233 0.0
O48 O 0.45685 0.41789 0.4435 0.0
C49 C 0.62745 0.62629 0.41616 0.0
O50 O 0.59345 0.41886 0.60678 0.0
O51 O 0.69435 0.43161 0.5524 0.0
O52 O 0.46076 0.63539 0.58147 0.0
O53 O 0.38846 0.56843 0.64436 0.0
C54 C 0.38899 0.57678 0.44778 0.0
C55 C 0.39171 0.40983 0.4476 0.0
C56 C 0.42118 0.36295 0.63257 0.0
O57 O 0.39036 0.41775 0.64437 0.0
O58 O 0.46489 0.35264 0.58206 0.0
C59 C 0.63338 0.36587 0.41955 0.0
O60 O 0.6902 0.57082 0.54653 0.0
O61 O 0.59201 0.57265 0.6063 0.0
C62 C 0.65917 0.41669 0.60589 0.0
C63 C 0.65676 0.58248 0.60183 0.0
C64 C 0.15922 0.24154 0.15215 0.0
C65 C 0.1825 0.1772 0.15054 0.0
C66 C 0.19593 0.28894 0.18944 0.0
C67 C 0.25655 0.27115 0.22626 0.0
C68 C 0.2833 0.20772 0.21936 0.0
C69 C 0.24633 0.16187 0.1812 0.0
C70 C 0.16709 0.35671 0.19352 0.0
C71 C 0.34768 0.18635 0.25749 0.0
C72 C 0.37885 0.38474 0.32103 0.0
C73 C 0.35448 0.37929 0.38921 0.0
C74 C 0.3447 0.35352 0.26617 0.0
C75 C 0.28619 0.31441 0.28029 0.0
C76 C 0.26038 0.31043 0.34881 0.0
C77 C 0.29432 0.34347 0.40213 0.0
C78 C 0.37264 0.36071 0.19365 0.0
C79 C 0.19887 0.26853 0.36664 0.0
H80 H 0.11024 0.25399 0.12826 0.0
H81 H 0.26557 0.11258 0.17894 0.0
H82 H 0.14046 0.36329 0.2439 0.0
H83 H 0.20919 0.39304 0.19047 0.0
H84 H 0.1292 0.36641 0.15154 0.0
H85 H 0.3651 0.13728 0.24167 0.0
H86 H 0.39055 0.22087 0.24836 0.0
H87 H 0.33717 0.18562 0.31397 0.0
H88 H 0.4247 0.4133 0.31058 0.0
H89 H 0.27516 0.33906 0.45468 0.0
H90 H 0.32987 0.36658 0.15586 0.0
H91 H 0.4018 0.31643 0.17934 0.0
H92 H 0.40806 0.40279 0.18902 0.0
H93 H 0.15395 0.28173 0.33382 0.0
H94 H 0.1834 0.27302 0.4218 0.0
H95 H 0.21146 0.21704 0.35611 0.0
C96 C 0.8248 0.1068 0.17265 0.0
C97 C 0.89333 0.1126 0.19561 0.0
C98 C 0.7703 0.13749 0.20817 0.0
C99 C 0.78518 0.17643 0.26654 0.0
C100 C 0.85415 0.18089 0.29078 0.0
C101 C 0.90711 0.14835 0.25554 0.0
C102 C 0.6973 0.12984 0.18192 0.0
C103 C 0.87275 0.22273 0.35202 0.0
C104 C 0.68579 0.32827 0.30929 0.0
C105 C 0.65684 0.31258 0.37384 0.0
C106 C 0.7233 0.28268 0.27113 0.0
C107 C 0.73135 0.21921 0.29752 0.0
C108 C 0.69623 0.20107 0.35905 0.0
C109 C 0.65946 0.24821 0.39688 0.0
C110 C 0.75962 0.30438 0.20581 0.0
C111 C 0.70163 0.13321 0.38754 0.0
H112 H 0.81379 0.07822 0.12701 0.0
H113 H 0.95997 0.15296 0.27355 0.0
H114 H 0.66055 0.12359 0.22555 0.0
H115 H 0.68178 0.17408 0.1532 0.0
H116 H 0.69247 0.08782 0.1465 0.0
H117 H 0.9283 0.21867 0.36612 0.0
H118 H 0.86118 0.27417 0.33989 0.0
H119 H 0.84118 0.20907 0.39769 0.0
H120 H 0.68256 0.3776 0.29024 0.0
H121 H 0.63675 0.23555 0.44639 0.0
H122 H 0.74982 0.26992 0.16308 0.0
H123 H 0.81631 0.30537 0.21484 0.0
H124 H 0.74287 0.35341 0.18892 0.0
H125 H 0.6979 0.09702 0.34538 0.0
H126 H 0.66067 0.12323 0.42647 0.0
H127 H 0.75268 0.12673 0.41284 0.0
C128 C 0.82042 0.89004 0.17572 0.0
C129 C 0.88878 0.88372 0.19919 0.0
C130 C 0.76562 0.85898 0.21039 0.0
C131 C 0.77999 0.81906 0.26839 0.0
C132 C 0.84872 0.81432 0.2934 0.0
C133 C 0.90199 0.84731 0.25904 0.0
C134 C 0.69291 0.86709 0.18338 0.0
C135 C 0.86681 0.77149 0.35428 0.0
C136 C 0.65264 0.74447 0.39561 0.0
C137 C 0.65047 0.68059 0.37132 0.0
C138 C 0.68983 0.79238 0.35924 0.0
C139 C 0.72602 0.77552 0.29796 0.0
C140 C 0.7185 0.71264 0.27025 0.0
C141 C 0.6804 0.66631 0.30689 0.0
C142 C 0.6945 0.85961 0.38906 0.0
C143 C 0.75594 0.69226 0.20514 0.0
H144 H 0.80979 0.91905 0.1301 0.0
H145 H 0.9547 0.84222 0.27744 0.0
H146 H 0.67812 0.82355 0.15343 0.0
H147 H 0.65552 0.87217 0.22665 0.0
H148 H 0.68822 0.90996 0.14886 0.0
H149 H 0.92211 0.77552 0.36925 0.0
H150 H 0.83445 0.78417 0.39968 0.0
H151 H 0.85592 0.72023 0.34121 0.0
H152 H 0.62929 0.7561 0.44507 0.0
H153 H 0.67767 0.61739 0.28689 0.0
H154 H 0.69139 0.89669 0.34752 0.0
H155 H 0.74506 0.86549 0.41539 0.0
H156 H 0.65281 0.86883 0.42743 0.0
H157 H 0.74641 0.72747 0.16282 0.0
H158 H 0.73988 0.64349 0.18726 0.0
H159 H 0.81251 0.69134 0.21496 0.0
C160 C 0.15028 0.74502 0.15711 0.0
C161 C 0.17549 0.80851 0.15302 0.0
C162 C 0.18731 0.69698 0.1935 0.0
C163 C 0.25023 0.71335 0.22681 0.0
C164 C 0.27876 0.77567 0.21695 0.0
C165 C 0.24132 0.82218 0.17981 0.0
C166 C 0.15656 0.63027 0.20069 0.0
C167 C 0.34571 0.79542 0.25118 0.0
C168 C 0.29225 0.64474 0.40354 0.0
C169 C 0.35077 0.60681 0.38972 0.0
C170 C 0.25734 0.6773 0.35033 0.0
C171 C 0.28039 0.67051 0.2811 0.0
C172 C 0.33707 0.62918 0.26628 0.0
C173 C 0.37244 0.59862 0.32102 0.0
C174 C 0.19797 0.72174 0.36886 0.0
C175 C 0.3619 0.61888 0.1931 0.0
H176 H 0.09976 0.73389 0.136 0.0
H177 H 0.26197 0.87078 0.17537 0.0
H178 H 0.19733 0.59254 0.19674 0.0
H179 H 0.13204 0.62544 0.25236 0.0
H180 H 0.11653 0.62111 0.16071 0.0
H181 H 0.36405 0.84348 0.23302 0.0
H182 H 0.33809 0.79767 0.30807 0.0
H183 H 0.3868 0.75918 0.24098 0.0
H184 H 0.27531 0.6512 0.45659 0.0
H185 H 0.41701 0.56835 0.31007 0.0
H186 H 0.15133 0.70905 0.33846 0.0
H187 H 0.21174 0.77244 0.35572 0.0
H188 H 0.18465 0.71946 0.42475 0.0
H189 H 0.31763 0.61514 0.15681 0.0
H190 H 0.39412 0.57448 0.18862 0.0
H191 H 0.39371 0.6608 0.17667 0.0
C192 C 0.14415 0.83927 0.79543 0.0
C193 C 0.15772 0.87678 0.85413 0.0
C194 C 0.1975 0.80704 0.76055 0.0
C195 C 0.26658 0.81362 0.78392 0.0
C196 C 0.28115 0.85436 0.84091 0.0
C197 C 0.2263 0.88473 0.87613 0.0
C198 C 0.17931 0.76331 0.7007 0.0
C199 C 0.35419 0.86427 0.86614 0.0
C200 C 0.36799 0.66269 0.74326 0.0
C201 C 0.39517 0.67752 0.67775 0.0
C202 C 0.3307 0.70857 0.78121 0.0
C203 C 0.32104 0.77134 0.75347 0.0
C204 C 0.35467 0.7888 0.69093 0.0
C205 C 0.39128 0.74142 0.65342 0.0
C206 C 0.29611 0.68773 0.84777 0.0
C207 C 0.34753 0.85597 0.66099 0.0
H208 H 0.09122 0.83306 0.77818 0.0
H209 H 0.23707 0.9147 0.9208 0.0
H210 H 0.20996 0.7766 0.65428 0.0
H211 H 0.19237 0.71246 0.71406 0.0
H212 H 0.12351 0.76575 0.68718 0.0
H213 H 0.35847 0.90787 0.8994 0.0
H214 H 0.37066 0.82159 0.89695 0.0
H215 H 0.39058 0.8692 0.822 0.0
H216 H 0.37227 0.61374 0.76322 0.0
H217 H 0.41269 0.75341 0.60314 0.0
H218 H 0.23932 0.68522 0.83976 0.0
H219 H 0.30574 0.72349 0.8893 0.0
H220 H 0.31445 0.63954 0.86572 0.0
H221 H 0.29599 0.86107 0.63633 0.0
H222 H 0.3877 0.86583 0.62122 0.0
H223 H 0.35118 0.89308 0.70224 0.0
C224 C 0.15012 0.13905 0.78995 0.0
C225 C 0.16352 0.10311 0.85008 0.0
C226 C 0.20311 0.17229 0.75552 0.0
C227 C 0.2718 0.1683 0.78074 0.0
C228 C 0.28644 0.12876 0.83898 0.0
C229 C 0.23186 0.09745 0.87375 0.0
C230 C 0.18468 0.21471 0.69439 0.0
C231 C 0.35915 0.12138 0.86621 0.0
C232 C 0.39772 0.24444 0.65328 0.0
C233 C 0.39869 0.30842 0.67737 0.0
C234 C 0.36157 0.19601 0.6899 0.0
C235 C 0.32522 0.21243 0.75122 0.0
C236 C 0.33164 0.27549 0.77875 0.0
C237 C 0.36871 0.32236 0.74186 0.0
C238 C 0.35814 0.12861 0.66034 0.0
C239 C 0.29405 0.29539 0.84395 0.0
H240 H 0.0974 0.14364 0.7714 0.0
H241 H 0.24262 0.0688 0.9196 0.0
H242 H 0.19492 0.26613 0.70728 0.0
H243 H 0.21731 0.2022 0.64913 0.0
H244 H 0.12948 0.21005 0.67928 0.0
H245 H 0.3644 0.07791 0.8998 0.0
H246 H 0.39694 0.11777 0.82313 0.0
H247 H 0.37284 0.16453 0.89731 0.0
H248 H 0.42125 0.23305 0.60385 0.0
H249 H 0.37064 0.37135 0.76178 0.0
H250 H 0.30768 0.1218 0.6341 0.0
H251 H 0.36201 0.09174 0.70203 0.0
H252 H 0.39995 0.11997 0.62196 0.0
H253 H 0.23744 0.29533 0.83434 0.0
H254 H 0.30924 0.34447 0.86164 0.0
H255 H 0.30443 0.26045 0.88631 0.0
C256 C 0.87106 0.23839 0.91483 0.0
C257 C 0.89137 0.18264 0.87891 0.0
C258 C 0.83325 0.28771 0.88092 0.0
C259 C 0.81624 0.2807 0.80987 0.0
C260 C 0.83938 0.22558 0.77325 0.0
C261 C 0.87652 0.17764 0.8081 0.0
C262 C 0.80981 0.34606 0.92143 0.0
C263 C 0.82356 0.21617 0.69726 0.0
C264 C 0.66306 0.3494 0.71375 0.0
C265 C 0.69618 0.39147 0.66738 0.0
C266 C 0.70053 0.31756 0.76598 0.0
C267 C 0.77254 0.32876 0.77241 0.0
C268 C 0.80448 0.37635 0.73042 0.0
C269 C 0.76608 0.40666 0.67789 0.0
C270 C 0.66433 0.26727 0.80962 0.0
C271 C 0.88064 0.39109 0.7367 0.0
H272 H 0.88267 0.24243 0.96951 0.0
H273 H 0.8936 0.13535 0.7796 0.0
H274 H 0.82007 0.39124 0.89203 0.0
H275 H 0.75316 0.34329 0.93009 0.0
H276 H 0.83578 0.34909 0.97258 0.0
H277 H 0.84622 0.17075 0.67643 0.0
H278 H 0.76676 0.21475 0.6892 0.0
H279 H 0.8441 0.25738 0.66667 0.0
H280 H 0.6088 0.33808 0.70653 0.0
H281 H 0.79151 0.44063 0.64344 0.0
H282 H 0.68054 0.27091 0.86449 0.0
H283 H 0.67888 0.21829 0.79105 0.0
H284 H 0.60714 0.27203 0.80676 0.0
H285 H 0.89673 0.39244 0.79177 0.0
H286 H 0.89399 0.43803 0.71194 0.0
H287 H 0.91089 0.35234 0.71088 0.0
C288 C 0.80337 0.82756 0.87076 0.0
C289 C 0.86782 0.81201 0.89995 0.0
C290 C 0.7659 0.78215 0.83253 0.0
C291 C 0.79277 0.71892 0.82418 0.0
C292 C 0.854 0.70077 0.85976 0.0
C293 C 0.89123 0.74777 0.89708 0.0
C294 C 0.70099 0.80397 0.79558 0.0
C295 C 0.883 0.63315 0.85413 0.0
C296 C 0.67002 0.60646 0.72856 0.0
C297 C 0.69386 0.61293 0.6603 0.0
C298 C 0.70446 0.63707 0.78364 0.0
C299 C 0.7627 0.67654 0.76966 0.0
C300 C 0.78788 0.68169 0.70099 0.0
C301 C 0.75367 0.64927 0.64745 0.0
C302 C 0.67731 0.62869 0.85632 0.0
C303 C 0.84904 0.72411 0.68334 0.0
H304 H 0.78407 0.87678 0.87405 0.0
H305 H 0.9407 0.73517 0.91986 0.0
H306 H 0.71097 0.80603 0.73904 0.0
H307 H 0.65841 0.76902 0.80419 0.0
H308 H 0.68343 0.85256 0.81282 0.0
H309 H 0.92111 0.62281 0.89573 0.0
H310 H 0.84104 0.59663 0.85661 0.0
H311 H 0.90943 0.62757 0.80351 0.0
H312 H 0.62445 0.5775 0.73893 0.0
H313 H 0.77244 0.65444 0.59484 0.0
H314 H 0.65006 0.67343 0.8726 0.0
H315 H 0.72051 0.62048 0.89312 0.0
H316 H 0.6405 0.58762 0.86027 0.0
H317 H 0.83649 0.77533 0.69528 0.0
H318 H 0.86377 0.72083 0.62788 0.0
H319 H 0.89443 0.71031 0.71521 0.0
loop_
_geom_bond_atom_site_label_1
_geom_bond_atom_site_label_2
_geom_bond_distance
_geom_bond_site_symmetry_2
_ccdc_geom_bond_type
Fe0 O1 1.886 . S
Fe0 O4 1.715 1_554 S
Fe0 O9 2.077 . S
Fe0 O14 1.935 1_554 S
Fe0 O20 2.077 1_455 S
Fe0 O29 1.935 1_454 S
O1 Fe0 1.886 . S
O1 Fe3 1.715 1_565 S
Fe2 O4 1.886 . S
Fe2 O5 1.715 1_565 S
Fe2 O12 1.935 1_565 S
Fe2 O13 2.077 . S
Fe2 O19 1.935 1_465 S
Fe2 O28 2.077 1_455 S
Fe3 O1 1.715 1_545 S
Fe3 O6 1.886 . S
Fe3 O10 1.935 1_545 S
Fe3 O15 2.077 . S
Fe3 O21 1.935 1_445 S
Fe3 O25 2.077 1_455 S
O4 Fe0 1.715 1_556 S
O4 Fe2 1.886 . S
O5 Fe2 1.715 1_545 S
O5 Fe7 1.886 . S
O6 Fe3 1.886 . S
O6 Fe7 1.715 1_554 S
Fe7 O5 1.886 . S
Fe7 O6 1.715 1_556 S
Fe7 O11 2.077 . S
Fe7 O16 1.935 1_556 S
Fe7 O18 2.077 1_455 S
Fe7 O26 1.935 1_456 S
C8 O20 1.381 . S
C8 O21 1.421 . S
O9 Fe0 2.077 . S
O9 C22 1.381 . S
O10 Fe3 1.935 1_565 S
O10 C22 1.421 . S
O11 Fe7 2.077 . S
O11 C27 1.381 . S
O12 Fe2 1.935 1_545 S
O12 C27 1.421 . S
O13 Fe2 2.077 . S
O13 C17 1.381 . S
O14 Fe0 1.935 1_556 S
O14 C17 1.421 . S
O15 Fe3 2.077 . S
O15 C23 1.381 . S
O16 Fe7 1.935 1_554 S
O16 C23 1.421 . S
C17 O13 1.381 . S
C17 O14 1.421 . S
O18 Fe7 2.077 1_655 S
O18 C30 1.381 . S
O19 Fe2 1.935 1_645 S
O19 C30 1.421 . S
O20 Fe0 2.077 1_655 S
O20 C8 1.381 . S
O21 Fe3 1.935 1_665 S
O21 C8 1.421 . S
C22 O9 1.381 . S
C22 O10 1.421 . S
C23 O15 1.381 . S
C23 O16 1.421 . S
C24 O25 1.381 . S
C24 O26 1.421 . S
O25 Fe3 2.077 1_655 S
O25 C24 1.381 . S
O26 Fe7 1.935 1_654 S
O26 C24 1.421 . S
C27 O11 1.381 . S
C27 O12 1.421 . S
O28 Fe2 2.077 1_655 S
O28 C31 1.381 . S
O29 Fe0 1.935 1_656 S
O29 C31 1.421 . S
C30 O18 1.381 . S
C30 O19 1.421 . S
C31 O28 1.381 . S
C31 O29 1.421 . S
Fe32 O33 1.886 . S
Fe32 O36 1.715 . S
Fe32 O41 2.077 . S
Fe32 O46 1.935 . S
Fe32 O52 2.077 . S
Fe32 O61 1.935 . S
O33 Fe32 1.886 . S
O33 Fe35 1.715 . S
Fe34 O36 1.886 . S
Fe34 O37 1.715 . S
Fe34 O44 1.935 . S
Fe34 O45 2.077 . S
Fe34 O51 1.935 . S
Fe34 O60 2.077 . S
Fe35 O33 1.715 . S
Fe35 O38 1.886 . S
Fe35 O42 1.935 . S
Fe35 O47 2.077 . S
Fe35 O53 1.935 . S
Fe35 O57 2.077 . S
O36 Fe32 1.715 . S
O36 Fe34 1.886 . S
O37 Fe34 1.715 . S
O37 Fe39 1.886 . S
O38 Fe35 1.886 . S
O38 Fe39 1.715 . S
Fe39 O37 1.886 . S
Fe39 O38 1.715 . S
Fe39 O43 2.077 . S
Fe39 O48 1.935 . S
Fe39 O50 2.077 . S
Fe39 O58 1.935 . S
C40 O52 1.381 . S
C40 O53 1.421 . S
O41 Fe32 2.077 . S
O41 C54 1.381 . S
O42 Fe35 1.935 . S
O42 C54 1.421 . S
O43 Fe39 2.077 . S
O43 C59 1.381 . S
O44 Fe34 1.935 . S
O44 C59 1.421 . S
O45 Fe34 2.077 . S
O45 C49 1.381 . S
O46 Fe32 1.935 . S
O46 C49 1.421 . S
O47 Fe35 2.077 . S
O47 C55 1.381 . S
O48 Fe39 1.935 . S
O48 C55 1.421 . S
C49 O45 1.381 . S
C49 O46 1.421 . S
O50 Fe39 2.077 . S
O50 C62 1.381 . S
O51 Fe34 1.935 . S
O51 C62 1.421 . S
O52 Fe32 2.077 . S
O52 C40 1.381 . S
O53 Fe35 1.935 . S
O53 C40 1.421 . S
C54 O41 1.381 . S
C54 O42 1.421 . S
C55 O47 1.381 . S
C55 O48 1.421 . S
C56 O57 1.381 . S
C56 O58 1.421 . S
O57 Fe35 2.077 . S
O57 C56 1.381 . S
O58 Fe39 1.935 . S
O58 C56 1.421 . S
C59 O43 1.381 . S
C59 O44 1.421 . S
O60 Fe34 2.077 . S
O60 C63 1.381 . S
O61 Fe32 1.935 . S
O61 C63 1.421 . S
C62 O50 1.381 . S
C62 O51 1.421 . S
C63 O60 1.381 . S
C63 O61 1.421 . S
C64 C65 1.391 . S
C64 C66 1.394 . S
C64 H80 0.931 . S
C65 C64 1.391 . S
C65 C69 1.376 . S
C66 C64 1.394 . S
C66 C67 1.369 . S
C66 C70 1.531 . S
C67 C66 1.369 . S
C67 C68 1.410 . S
C67 C75 1.503 . S
C68 C67 1.410 . S
C68 C69 1.392 . S
C68 C71 1.511 . S
C69 C65 1.376 . S
C69 C68 1.392 . S
C69 H81 0.929 . S
C70 C66 1.531 . S
C70 H82 0.960 . S
C70 H83 0.962 . S
C70 H84 0.960 . S
C71 C68 1.511 . S
C71 H85 0.961 . S
C71 H86 0.961 . S
C71 H87 0.961 . S
C72 C73 1.370 . S
C72 C74 1.363 . S
C72 H88 0.931 . S
C73 C72 1.370 . S
C73 C77 1.408 . S
C74 C72 1.363 . S
C74 C75 1.370 . S
C74 C78 1.524 . S
C75 C67 1.503 . S
C75 C74 1.370 . S
C75 C76 1.403 . S
C76 C75 1.403 . S
C76 C77 1.404 . S
C76 C79 1.539 . S
C77 C73 1.408 . S
C77 C76 1.404 . S
C77 H89 0.930 . S
C78 C74 1.524 . S
C78 H90 0.956 . S
C78 H91 0.961 . S
C78 H92 0.961 . S
C79 C76 1.539 . S
C79 H93 0.958 . S
C79 H94 0.961 . S
C79 H95 0.960 . S
H80 C64 0.931 . S
H81 C69 0.929 . S
H82 C70 0.960 . S
H83 C70 0.962 . S
H84 C70 0.960 . S
H85 C71 0.961 . S
H86 C71 0.961 . S
H87 C71 0.961 . S
H88 C72 0.931 . S
H89 C77 0.930 . S
H90 C78 0.956 . S
H91 C78 0.961 . S
H92 C78 0.961 . S
H93 C79 0.958 . S
H94 C79 0.961 . S
H95 C79 0.960 . S
C96 C97 1.391 . S
C96 C98 1.394 . S
C96 H112 0.931 . S
C97 C96 1.391 . S
C97 C101 1.376 . S
C98 C96 1.394 . S
C98 C99 1.369 . S
C98 C102 1.531 . S
C99 C98 1.369 . S
C99 C100 1.410 . S
C99 C107 1.503 . S
C100 C99 1.410 . S
C100 C101 1.392 . S
C100 C103 1.511 . S
C101 C97 1.376 . S
C101 C100 1.392 . S
C101 H113 0.929 . S
C102 C98 1.531 . S
C102 H114 0.960 . S
C102 H115 0.962 . S
C102 H116 0.960 . S
C103 C100 1.511 . S
C103 H117 0.961 . S
C103 H118 0.961 . S
C103 H119 0.961 . S
C104 C105 1.370 . S
C104 C106 1.363 . S
C104 H120 0.931 . S
C105 C104 1.370 . S
C105 C109 1.408 . S
C106 C104 1.363 . S
C106 C107 1.370 . S
C106 C110 1.524 . S
C107 C99 1.503 . S
C107 C106 1.370 . S
C107 C108 1.403 . S
C108 C107 1.403 . S
C108 C109 1.404 . S
C108 C111 1.539 . S
C109 C105 1.408 . S
C109 C108 1.404 . S
C109 H121 0.930 . S
C110 C106 1.524 . S
C110 H122 0.956 . S
C110 H123 0.961 . S
C110 H124 0.961 . S
C111 C108 1.539 . S
C111 H125 0.958 . S
C111 H126 0.961 . S
C111 H127 0.960 . S
H112 C96 0.931 . S
H113 C101 0.929 . S
H114 C102 0.960 . S
H115 C102 0.962 . S
H116 C102 0.960 . S
H117 C103 0.961 . S
H118 C103 0.961 . S
H119 C103 0.961 . S
H120 C104 0.931 . S
H121 C109 0.930 . S
H122 C110 0.956 . S
H123 C110 0.961 . S
H124 C110 0.961 . S
H125 C111 0.958 . S
H126 C111 0.961 . S
H127 C111 0.960 . S
C128 C129 1.391 . S
C128 C130 1.394 . S
C128 H144 0.931 . S
C129 C128 1.391 . S
C129 C133 1.376 . S
C130 C128 1.394 . S
C130 C131 1.369 . S
C130 C134 1.531 . S
C131 C130 1.369 . S
C131 C132 1.410 . S
C131 C139 1.503 . S
C132 C131 1.410 . S
C132 C133 1.392 . S
C132 C135 1.511 . S
C133 C129 1.376 . S
C133 C132 1.392 . S
C133 H145 0.929 . S
C134 C130 1.531 . S
C134 H146 0.960 . S
C134 H147 0.962 . S
C134 H148 0.960 . S
C135 C132 1.511 . S
C135 H149 0.961 . S
C135 H150 0.961 . S
C135 H151 0.961 . S
C136 C137 1.370 . S
C136 C138 1.363 . S
C136 H152 0.931 . S
C137 C136 1.370 . S
C137 C141 1.408 . S
C138 C136 1.363 . S
C138 C139 1.370 . S
C138 C142 1.524 . S
C139 C131 1.503 . S
C139 C138 1.370 . S
C139 C140 1.403 . S
C140 C139 1.403 . S
C140 C141 1.404 . S
C140 C143 1.539 . S
C141 C137 1.408 . S
C141 C140 1.404 . S
C141 H153 0.930 . S
C142 C138 1.524 . S
C142 H154 0.956 . S
C142 H155 0.961 . S
C142 H156 0.961 . S
C143 C140 1.539 . S
C143 H157 0.958 . S
C143 H158 0.961 . S
C143 H159 0.960 . S
H144 C128 0.931 . S
H145 C133 0.929 . S
H146 C134 0.960 . S
H147 C134 0.962 . S
H148 C134 0.960 . S
H149 C135 0.961 . S
H150 C135 0.961 . S
H151 C135 0.961 . S
H152 C136 0.931 . S
H153 C141 0.930 . S
H154 C142 0.956 . S
H155 C142 0.961 . S
H156 C142 0.961 . S
H157 C143 0.958 . S
H158 C143 0.961 . S
H159 C143 0.960 . S
C160 C161 1.391 . S
C160 C162 1.394 . S
C160 H176 0.931 . S
C161 C160 1.391 . S
C161 C165 1.376 . S
C162 C160 1.394 . S
C162 C163 1.369 . S
C162 C166 1.531 . S
C163 C162 1.369 . S
C163 C164 1.410 . S
C163 C171 1.503 . S
C164 C163 1.410 . S
C164 C165 1.392 . S
C164 C167 1.511 . S
C165 C161 1.376 . S
C165 C164 1.392 . S
C165 H177 0.929 . S
C166 C162 1.531 . S
C166 H178 0.960 . S
C166 H179 0.962 . S
C166 H180 0.960 . S
C167 C164 1.511 . S
C167 H181 0.961 . S
C167 H182 0.961 . S
C167 H183 0.961 . S
C168 C169 1.370 . S
C168 C170 1.363 . S
C168 H184 0.931 . S
C169 C168 1.370 . S
C169 C173 1.408 . S
C170 C168 1.363 . S
C170 C171 1.370 . S
C170 C174 1.524 . S
C171 C163 1.503 . S
C171 C170 1.370 . S
C171 C172 1.403 . S
C172 C171 1.403 . S
C172 C173 1.404 . S
C172 C175 1.539 . S
C173 C169 1.408 . S
C173 C172 1.404 . S
C173 H185 0.930 . S
C174 C170 1.524 . S
C174 H186 0.956 . S
C174 H187 0.961 . S
C174 H188 0.961 . S
C175 C172 1.539 . S
C175 H189 0.958 . S
C175 H190 0.961 . S
C175 H191 0.960 . S
H176 C160 0.931 . S
H177 C165 0.929 . S
H178 C166 0.960 . S
H179 C166 0.962 . S
H180 C166 0.960 . S
H181 C167 0.961 . S
H182 C167 0.961 . S
H183 C167 0.961 . S
H184 C168 0.931 . S
H185 C173 0.930 . S
H186 C174 0.956 . S
H187 C174 0.961 . S
H188 C174 0.961 . S
H189 C175 0.958 . S
H190 C175 0.961 . S
H191 C175 0.960 . S
C192 C193 1.391 . S
C192 C194 1.394 . S
C192 H208 0.931 . S
C193 C192 1.391 . S
C193 C197 1.376 . S
C194 C192 1.394 . S
C194 C195 1.369 . S
C194 C198 1.531 . S
C195 C194 1.369 . S
C195 C196 1.410 . S
C195 C203 1.503 . S
C196 C195 1.410 . S
C196 C197 1.392 . S
C196 C199 1.511 . S
C197 C193 1.376 . S
C197 C196 1.392 . S
C197 H209 0.929 . S
C198 C194 1.531 . S
C198 H210 0.960 . S
C198 H211 0.962 . S
C198 H212 0.960 . S
C199 C196 1.511 . S
C199 H213 0.961 . S
C199 H214 0.961 . S
C199 H215 0.961 . S
C200 C201 1.370 . S
C200 C202 1.363 . S
C200 H216 0.931 . S
C201 C200 1.370 . S
C201 C205 1.408 . S
C202 C200 1.363 . S
C202 C203 1.370 . S
C202 C206 1.524 . S
C203 C195 1.503 . S
C203 C202 1.370 . S
C203 C204 1.403 . S
C204 C203 1.403 . S
C204 C205 1.404 . S
C204 C207 1.539 . S
C205 C201 1.408 . S
C205 C204 1.404 . S
C205 H217 0.930 . S
C206 C202 1.524 . S
C206 H218 0.956 . S
C206 H219 0.961 . S
C206 H220 0.961 . S
C207 C204 1.539 . S
C207 H221 0.958 . S
C207 H222 0.961 . S
C207 H223 0.960 . S
H208 C192 0.931 . S
H209 C197 0.929 . S
H210 C198 0.960 . S
H211 C198 0.962 . S
H212 C198 0.960 . S
H213 C199 0.961 . S
H214 C199 0.961 . S
H215 C199 0.961 . S
H216 C200 0.931 . S
H217 C205 0.930 . S
H218 C206 0.956 . S
H219 C206 0.961 . S
H220 C206 0.961 . S
H221 C207 0.958 . S
H222 C207 0.961 . S
H223 C207 0.960 . S
C224 C225 1.391 . S
C224 C226 1.394 . S
C224 H240 0.931 . S
C225 C224 1.391 . S
C225 C229 1.376 . S
C226 C224 1.394 . S
C226 C227 1.369 . S
C226 C230 1.531 . S
C227 C226 1.369 . S
C227 C228 1.410 . S
C227 C235 1.503 . S
C228 C227 1.410 . S
C228 C229 1.392 . S
C228 C231 1.511 . S
C229 C225 1.376 . S
C229 C228 1.392 . S
C229 H241 0.929 . S
C230 C226 1.531 . S
C230 H242 0.960 . S
C230 H243 0.962 . S
C230 H244 0.960 . S
C231 C228 1.511 . S
C231 H245 0.961 . S
C231 H246 0.961 . S
C231 H247 0.961 . S
C232 C233 1.370 . S
C232 C234 1.363 . S
C232 H248 0.931 . S
C233 C232 1.370 . S
C233 C237 1.408 . S
C234 C232 1.363 . S
C234 C235 1.370 . S
C234 C238 1.524 . S
C235 C227 1.503 . S
C235 C234 1.370 . S
C235 C236 1.403 . S
C236 C235 1.403 . S
C236 C237 1.404 . S
C236 C239 1.539 . S
C237 C233 1.408 . S
C237 C236 1.404 . S
C237 H249 0.930 . S
C238 C234 1.524 . S
C238 H250 0.956 . S
C238 H251 0.961 . S
C238 H252 0.961 . S
C239 C236 1.539 . S
C239 H253 0.958 . S
C239 H254 0.961 . S
C239 H255 0.960 . S
H240 C224 0.931 . S
H241 C229 0.929 . S
H242 C230 0.960 . S
H243 C230 0.962 . S
H244 C230 0.960 . S
H245 C231 0.961 . S
H246 C231 0.961 . S
H247 C231 0.961 . S
H248 C232 0.931 . S
H249 C237 0.930 . S
H250 C238 0.956 . S
H251 C238 0.961 . S
H252 C238 0.961 . S
H253 C239 0.958 . S
H254 C239 0.961 . S
H255 C239 0.960 . S
C256 C257 1.391 . S
C256 C258 1.394 . S
C256 H272 0.931 . S
C257 C256 1.391 . S
C257 C261 1.376 . S
C258 C256 1.394 . S
C258 C259 1.369 . S
C258 C262 1.531 . S
C259 C258 1.369 . S
C259 C260 1.410 . S
C259 C267 1.503 . S
C260 C259 1.410 . S
C260 C261 1.392 . S
C260 C263 1.511 . S
C261 C257 1.376 . S
C261 C260 1.392 . S
C261 H273 0.929 . S
C262 C258 1.531 . S
C262 H274 0.960 . S
C262 H275 0.962 . S
C262 H276 0.960 . S
C263 C260 1.511 . S
C263 H277 0.961 . S
C263 H278 0.961 . S
C263 H279 0.961 . S
C264 C265 1.370 . S
C264 C266 1.363 . S
C264 H280 0.931 . S
C265 C264 1.370 . S
C265 C269 1.408 . S
C266 C264 1.363 . S
C266 C267 1.370 . S
C266 C270 1.524 . S
C267 C259 1.503 . S
C267 C266 1.370 . S
C267 C268 1.403 . S
C268 C267 1.403 . S
C268 C269 1.404 . S
C268 C271 1.539 . S
C269 C265 1.408 . S
C269 C268 1.404 . S
C269 H281 0.930 . S
C270 C266 1.524 . S
C270 H282 0.956 . S
C270 H283 0.961 . S
C270 H284 0.961 . S
C271 C268 1.539 . S
C271 H285 0.958 . S
C271 H286 0.961 . S
C271 H287 0.960 . S
H272 C256 0.931 . S
H273 C261 0.929 . S
H274 C262 0.960 . S
H275 C262 0.962 . S
H276 C262 0.960 . S
H277 C263 0.961 . S
H278 C263 0.961 . S
H279 C263 0.961 . S
H280 C264 0.931 . S
H281 C269 0.930 . S
H282 C270 0.956 . S
H283 C270 0.961 . S
H284 C270 0.961 . S
H285 C271 0.958 . S
H286 C271 0.961 . S
H287 C271 0.960 . S
C288 C289 1.391 . S
C288 C290 1.394 . S
C288 H304 0.931 . S
C289 C288 1.391 . S
C289 C293 1.376 . S
C290 C288 1.394 . S
C290 C291 1.369 . S
C290 C294 1.531 . S
C291 C290 1.369 . S
C291 C292 1.410 . S
C291 C299 1.503 . S
C292 C291 1.410 . S
C292 C293 1.392 . S
C292 C295 1.511 . S
C293 C289 1.376 . S
C293 C292 1.392 . S
C293 H305 0.929 . S
C294 C290 1.531 . S
C294 H306 0.960 . S
C294 H307 0.962 . S
C294 H308 0.960 . S
C295 C292 1.511 . S
C295 H309 0.961 . S
C295 H310 0.961 . S
C295 H311 0.961 . S
C296 C297 1.370 . S
C296 C298 1.363 . S
C296 H312 0.931 . S
C297 C296 1.370 . S
C297 C301 1.408 . S
C298 C296 1.363 . S
C298 C299 1.370 . S
C298 C302 1.524 . S
C299 C291 1.503 . S
C299 C298 1.370 . S
C299 C300 1.403 . S
C300 C299 1.403 . S
C300 C301 1.404 . S
C300 C303 1.539 . S
C301 C297 1.408 . S
C301 C300 1.404 . S
C301 H313 0.930 . S
C302 C298 1.524 . S
C302 H314 0.956 . S
C302 H315 0.961 . S
C302 H316 0.961 . S
C303 C300 1.539 . S
C303 H317 0.958 . S
C303 H318 0.961 . S
C303 H319 0.960 . S
H304 C288 0.931 . S
H305 C293 0.929 . S
H306 C294 0.960 . S
H307 C294 0.962 . S
H308 C294 0.960 . S
H309 C295 0.961 . S
H310 C295 0.961 . S
H311 C295 0.961 . S
H312 C296 0.931 . S
H313 C301 0.930 . S
H314 C302 0.956 . S
H315 C302 0.961 . S
H316 C302 0.961 . S
H317 C303 0.958 . S
H318 C303 0.961 . S
H319 C303 0.960 . S
C65 C23 1.428 . S
C73 C55 1.436 . S
C97 C24 1.449 . S
C105 C59 1.438 . S
C129 C8 1.437 . S
C137 C49 1.458 . S
C161 C22 1.458 . S
C169 C54 1.461 . S
C193 C17 1.455 . S
C201 C40 1.445 . S
C233 C56 1.463 . S
C225 C27 1.460 . S
C257 C30 1.434 . S
C265 C62 1.453 . S
C297 C63 1.443 . S
C289 C31 1.428 . S
