# Generated by pormake.
# Topology pto, (3,4)-cn, num edge types: 1
# Building blocks:
#     Node 0, Type 0, BuildingBlock: OLANEW_clean_sbu_2, # of connection points: 3
#     Node 1, Type 0, BuildingBlock: OLANEW_clean_sbu_2, # of connection points: 3
#     Node 2, Type 0, BuildingBlock: OLANEW_clean_sbu_2, # of connection points: 3
#     Node 3, Type 0, BuildingBlock: OLANEW_clean_sbu_2, # of connection points: 3
#     Node 4, Type 0, BuildingBlock: OLANEW_clean_sbu_2, # of connection points: 3
#     Node 5, Type 0, BuildingBlock: OLANEW_clean_sbu_2, # of connection points: 3
#     Node 6, Type 0, BuildingBlock: OLANEW_clean_sbu_2, # of connection points: 3
#     Node 7, Type 0, BuildingBlock: OLANEW_clean_sbu_2, # of connection points: 3
#     Node 8, Type 1, BuildingBlock: KOZSID_clean_sbu_0, # of connection points: 4
#     Node 9, Type 1, BuildingBlock: KOZSID_clean_sbu_0, # of connection points: 4
#     Node 10, Type 1, BuildingBlock: KOZSID_clean_sbu_0, # of connection points: 4
#     Node 11, Type 1, BuildingBlock: KOZSID_clean_sbu_0, # of connection points: 4
#     Node 12, Type 1, BuildingBlock: KOZSID_clean_sbu_0, # of connection points: 4
#     Node 13, Type 1, BuildingBlock: KOZSID_clean_sbu_0, # of connection points: 4
#     Edge 14, Type (0, 1), BuildingBlock: TEMPAE_clean_linker_10, # of connection points: 2
#     Edge 15, Type (0, 1), BuildingBlock: TEMPAE_clean_linker_10, # of connection points: 2
#     Edge 16, Type (0, 1), BuildingBlock: TEMPAE_clean_linker_10, # of connection points: 2
#     Edge 17, Type (0, 1), BuildingBlock: TEMPAE_clean_linker_10, # of connection points: 2
#     Edge 18, Type (0, 1), BuildingBlock: TEMPAE_clean_linker_10, # of connection points: 2
#     Edge 19, Type (0, 1), BuildingBlock: TEMPAE_clean_linker_10, # of connection points: 2
#     Edge 20, Type (0, 1), BuildingBlock: TEMPAE_clean_linker_10, # of connection points: 2
#     Edge 21, Type (0, 1), BuildingBlock: TEMPAE_clean_linker_10, # of connection points: 2
#     Edge 22, Type (0, 1), BuildingBlock: TEMPAE_clean_linker_10, # of connection points: 2
#     Edge 23, Type (0, 1), BuildingBlock: TEMPAE_clean_linker_10, # of connection points: 2
#     Edge 24, Type (0, 1), BuildingBlock: TEMPAE_clean_linker_10, # of connection points: 2
#     Edge 25, Type (0, 1), BuildingBlock: TEMPAE_clean_linker_10, # of connection points: 2
#     Edge 26, Type (0, 1), BuildingBlock: TEMPAE_clean_linker_10, # of connection points: 2
#     Edge 27, Type (0, 1), BuildingBlock: TEMPAE_clean_linker_10, # of connection points: 2
#     Edge 28, Type (0, 1), BuildingBlock: TEMPAE_clean_linker_10, # of connection points: 2
#     Edge 29, Type (0, 1), BuildingBlock: TEMPAE_clean_linker_10, # of connection points: 2
#     Edge 30, Type (0, 1), BuildingBlock: TEMPAE_clean_linker_10, # of connection points: 2
#     Edge 31, Type (0, 1), BuildingBlock: TEMPAE_clean_linker_10, # of connection points: 2
#     Edge 32, Type (0, 1), BuildingBlock: TEMPAE_clean_linker_10, # of connection points: 2
#     Edge 33, Type (0, 1), BuildingBlock: TEMPAE_clean_linker_10, # of connection points: 2
#     Edge 34, Type (0, 1), BuildingBlock: TEMPAE_clean_linker_10, # of connection points: 2
#     Edge 35, Type (0, 1), BuildingBlock: TEMPAE_clean_linker_10, # of connection points: 2
#     Edge 36, Type (0, 1), BuildingBlock: TEMPAE_clean_linker_10, # of connection points: 2
#     Edge 37, Type (0, 1), BuildingBlock: TEMPAE_clean_linker_10, # of connection points: 2
# Relax obj value: 0.008
# Max RMSD: 0.121
# Mean RMSD: 0.052
data_MOF--net-pto--node1-OLANEW_clean_sbu_2--node2-KOZSID_clean_sbu_0--edge1-TEMPAE_clean_linker_10
_symmetry_space_group_name_H-M    P1
_symmetry_Int_Tables_number       1
_symmetry_cell_setting            triclinic
loop_
_symmetry_equiv_pos_as_xyz
'x, y, z'
_cell_length_a     40.011275
_cell_length_b     56.226473
_cell_length_c     47.531342
_cell_angle_alpha  90.714594
_cell_angle_beta   87.072966
_cell_angle_gamma 108.48661
loop_
_atom_site_label
_atom_site_type_symbol
_atom_site_fract_x
_atom_site_fract_y
_atom_site_fract_z
_atom_type_partial_charge
O0 O 0.39277 0.34611 0.32121 0.0
Cd1 Cd 0.3803 0.34593 0.37218 0.0
O2 O 0.36155 0.37137 0.31658 0.0
Cd3 Cd 0.33352 0.39322 0.29536 0.0
O4 O 0.29836 0.41517 0.28783 0.0
C5 C 0.27209 0.40708 0.27241 0.0
O6 O 0.26669 0.38536 0.25977 0.0
C7 C 0.38036 0.35897 0.30537 0.0
C8 C 0.38555 0.30333 0.39881 0.0
O9 O 0.35654 0.3035 0.38869 0.0
O10 O 0.4122 0.3233 0.39619 0.0
O11 O 0.27697 0.88302 0.81577 0.0
Cd12 Cd 0.23303 0.89093 0.78637 0.0
O13 O 0.31206 0.87607 0.78171 0.0
Cd14 Cd 0.27025 0.86775 0.75201 0.0
O15 O 0.22861 0.83614 0.73562 0.0
C16 C 0.21349 0.81937 0.75391 0.0
O17 O 0.2226 0.8233 0.78016 0.0
C18 C 0.30576 0.8794 0.80768 0.0
C19 C 0.26221 0.9316 0.74979 0.0
O20 O 0.25716 0.93507 0.77613 0.0
O21 O 0.25342 0.90903 0.74069 0.0
O22 O 0.79895 0.80076 0.33594 0.0
Cd23 Cd 0.7807 0.76737 0.30069 0.0
O24 O 0.7461 0.79005 0.35714 0.0
Cd25 Cd 0.72227 0.76308 0.32478 0.0
O26 O 0.69516 0.75643 0.28535 0.0
C27 C 0.68325 0.77387 0.27844 0.0
O28 O 0.68764 0.79318 0.29534 0.0
C29 C 0.77813 0.80405 0.35568 0.0
C30 C 0.81731 0.73242 0.29927 0.0
O31 O 0.82801 0.75238 0.28413 0.0
O32 O 0.78966 0.72923 0.31553 0.0
O33 O 0.80068 0.32499 0.71765 0.0
Cd34 Cd 0.76008 0.28324 0.72966 0.0
O35 O 0.80456 0.33642 0.76214 0.0
Cd36 Cd 0.76382 0.30408 0.78074 0.0
O37 O 0.72366 0.2977 0.81522 0.0
C38 C 0.72855 0.31634 0.83173 0.0
O39 O 0.75642 0.33612 0.82684 0.0
C40 C 0.81378 0.34123 0.7363 0.0
C41 C 0.77196 0.24551 0.69559 0.0
O42 O 0.751 0.25729 0.68846 0.0
O43 O 0.78747 0.25168 0.71877 0.0
O44 O 0.75463 0.81914 0.67928 0.0
Cd45 Cd 0.7386 0.784 0.71259 0.0
O46 O 0.69984 0.8118 0.66747 0.0
Cd47 Cd 0.67885 0.78428 0.70111 0.0
O48 O 0.65991 0.77544 0.74482 0.0
C49 C 0.67335 0.79256 0.76245 0.0
O50 O 0.69785 0.81304 0.75332 0.0
C51 C 0.73241 0.82438 0.66431 0.0
C52 C 0.77927 0.75209 0.70437 0.0
O53 O 0.75122 0.74884 0.6909 0.0
O54 O 0.7882 0.77056 0.72151 0.0
O55 O 0.91332 0.29378 0.27148 0.0
Cd56 Cd 0.89582 0.24845 0.26321 0.0
O57 O 0.85761 0.29154 0.27132 0.0
Cd58 Cd 0.81553 0.30815 0.26718 0.0
O59 O 0.77092 0.31597 0.24911 0.0
C60 C 0.77656 0.33125 0.22859 0.0
O61 O 0.8093 0.34296 0.21984 0.0
C62 C 0.88983 0.30461 0.27273 0.0
C63 C 0.88483 0.21735 0.31047 0.0
O64 O 0.91544 0.22598 0.29797 0.0
O65 O 0.85968 0.22407 0.30112 0.0
O66 O 0.23004 0.35619 0.81674 0.0
Cd67 Cd 0.19097 0.35289 0.77785 0.0
O68 O 0.25894 0.33868 0.78747 0.0
Cd69 Cd 0.29609 0.31932 0.7728 0.0
O70 O 0.31673 0.29473 0.74611 0.0
C71 C 0.29754 0.27201 0.74385 0.0
O72 O 0.26731 0.26427 0.75852 0.0
C73 C 0.25538 0.34742 0.81184 0.0
C74 C 0.17213 0.39553 0.76728 0.0
O75 O 0.15392 0.37874 0.78489 0.0
O76 O 0.19979 0.39242 0.75512 0.0
O77 O 0.483 0.84718 0.30525 0.0
Cd78 Cd 0.47021 0.84808 0.35596 0.0
O79 O 0.43891 0.81228 0.30645 0.0
Cd80 Cd 0.39707 0.77938 0.29221 0.0
O81 O 0.35003 0.74641 0.29088 0.0
C82 C 0.33869 0.73527 0.26817 0.0
O83 O 0.35594 0.74367 0.24417 0.0
C84 C 0.46306 0.82862 0.29222 0.0
C85 C 0.46069 0.89278 0.37479 0.0
O86 O 0.49041 0.88894 0.3767 0.0
O87 O 0.43565 0.87566 0.36364 0.0
C88 C 0.08462 0.59045 0.29998 0.0
C89 C 0.09569 0.60157 0.32558 0.0
C90 C 0.06827 0.59185 0.34507 0.0
C91 C 0.04205 0.57541 0.33036 0.0
N92 N 0.05155 0.57412 0.30294 0.0
Co93 Co 0.02169 0.55335 0.27416 0.0
N94 N 0.99069 0.53121 0.30321 0.0
C95 C 0.98685 0.53681 0.33051 0.0
C96 C 0.96347 0.51716 0.34539 0.0
C97 C 0.95215 0.49818 0.32612 0.0
C98 C 0.96941 0.50738 0.30058 0.0
N99 N 0.99159 0.53247 0.24556 0.0
C100 C 0.97089 0.50824 0.2476 0.0
C101 C 0.95646 0.49986 0.22193 0.0
C102 C 0.96818 0.51983 0.20359 0.0
C103 C 0.98939 0.53917 0.21883 0.0
N104 N 0.05251 0.57561 0.24495 0.0
C105 C 0.04407 0.57812 0.21834 0.0
C106 C 0.07088 0.59517 0.203 0.0
C107 C 0.09758 0.604 0.22122 0.0
C108 C 0.08548 0.59183 0.24679 0.0
N109 N 0.05163 0.53185 0.27209 0.0
C110 C 0.09622 0.50219 0.26931 0.0
C111 C 0.08529 0.51035 0.24469 0.0
C112 C 0.06301 0.52512 0.24653 0.0
C113 C 0.08387 0.50894 0.29535 0.0
C114 C 0.06166 0.52374 0.29627 0.0
N115 N 0.99189 0.57507 0.27635 0.0
C116 C 0.93451 0.58053 0.28039 0.0
C117 C 0.95004 0.6066 0.28229 0.0
C118 C 0.98689 0.6165 0.28051 0.0
C119 C 0.00723 0.6005 0.27748 0.0
C120 C 0.9559 0.56509 0.27749 0.0
H121 H 0.0355 0.60881 0.27633 0.0
H122 H 0.94336 0.54506 0.27654 0.0
H123 H 0.05515 0.53123 0.22726 0.0
H124 H 0.0529 0.52886 0.3166 0.0
C125 C 0.01095 0.55814 0.34207 0.0
C126 C 0.10458 0.59743 0.2729 0.0
C127 C 0.96438 0.4936 0.27393 0.0
C128 C 0.01376 0.56113 0.20743 0.0
H129 H 0.12074 0.61545 0.32966 0.0
H130 H 0.06797 0.59575 0.36742 0.0
H131 H 0.95692 0.5162 0.36781 0.0
H132 H 0.93365 0.47968 0.33035 0.0
H133 H 0.93996 0.48131 0.21649 0.0
H134 H 0.96375 0.51966 0.1813 0.0
H135 H 0.07152 0.5999 0.18093 0.0
H136 H 0.12292 0.6179 0.2163 0.0
H137 H 0.09377 0.50532 0.2241 0.0
H138 H 0.09192 0.50333 0.31495 0.0
H139 H 0.90609 0.57209 0.28174 0.0
H140 H 1.00002 0.63654 0.28133 0.0
C141 C 0.0444 0.63098 0.73784 0.0
C142 C 0.05007 0.64163 0.76441 0.0
C143 C 0.02786 0.6249 0.78291 0.0
C144 C 0.01003 0.60508 0.76668 0.0
N145 N 0.01994 0.6079 0.73894 0.0
Co146 Co 0.99967 0.58425 0.70765 0.0
N147 N 0.96581 0.56014 0.73473 0.0
C148 C 0.96242 0.56265 0.763 0.0
C149 C 0.93868 0.54223 0.77614 0.0
C150 C 0.9267 0.52541 0.75513 0.0
C151 C 0.94384 0.53666 0.73026 0.0
N152 N 0.97886 0.56084 0.67632 0.0
C153 C 0.95528 0.53743 0.67749 0.0
C154 C 0.94856 0.52715 0.65088 0.0
C155 C 0.96927 0.54452 0.63219 0.0
C156 C 0.98727 0.56432 0.64842 0.0
N157 N 0.03413 0.60803 0.68066 0.0
C158 C 0.03807 0.60512 0.65251 0.0
C159 C 0.06338 0.62484 0.63951 0.0
C160 C 0.07613 0.64149 0.66053 0.0
C161 C 0.05777 0.63089 0.68524 0.0
N162 N 0.03422 0.56612 0.71278 0.0
C163 C 0.07566 0.53475 0.72061 0.0
C164 C 0.06922 0.54114 0.69356 0.0
C165 C 0.04888 0.55696 0.69015 0.0
C166 C 0.06251 0.54533 0.74358 0.0
C167 C 0.04211 0.56085 0.73923 0.0
N168 N 0.96495 0.60231 0.70262 0.0
C169 C 0.9382 0.62554 0.67338 0.0
C170 C 0.91958 0.6313 0.69675 0.0
C171 C 0.9234 0.62173 0.72293 0.0
C172 C 0.94583 0.60736 0.72533 0.0
C173 C 0.96047 0.61107 0.67674 0.0
H174 H 0.94768 0.60098 0.74593 0.0
H175 H 0.97409 0.6075 0.65816 0.0
H176 H 0.04467 0.56104 0.66903 0.0
H177 H 0.03218 0.56774 0.75767 0.0
C178 C 0.98343 0.58378 0.77678 0.0
C179 C 0.06211 0.64388 0.71218 0.0
C180 C 0.94031 0.5237 0.70329 0.0
C181 C 0.01533 0.58485 0.63856 0.0
H182 H 0.06804 0.6598 0.76979 0.0
H183 H 0.02466 0.62711 0.80545 0.0
H184 H 0.93185 0.53954 0.79847 0.0
H185 H 0.90831 0.50668 0.75797 0.0
H186 H 0.93136 0.50867 0.64567 0.0
H187 H 0.97216 0.54244 0.60961 0.0
H188 H 0.07073 0.62725 0.61724 0.0
H189 H 0.09595 0.6597 0.65784 0.0
H190 H 0.07949 0.53375 0.6751 0.0
H191 H 0.0667 0.54088 0.76496 0.0
H192 H 0.93571 0.63219 0.65254 0.0
H193 H 0.90991 0.62586 0.74178 0.0
C194 C 0.40074 0.07597 0.59226 0.0
C195 C 0.42966 0.07564 0.60705 0.0
C196 C 0.4592 0.08743 0.59038 0.0
C197 C 0.44688 0.09463 0.56655 0.0
N198 N 0.41143 0.08829 0.56745 0.0
Co199 Co 0.38289 0.09628 0.53835 0.0
N200 N 0.42428 0.12263 0.52164 0.0
C201 C 0.45835 0.12494 0.5248 0.0
C202 C 0.48092 0.1456 0.51092 0.0
C203 C 0.45954 0.15683 0.49834 0.0
C204 C 0.42508 0.14231 0.5053 0.0
N205 N 0.35446 0.10433 0.50934 0.0
C206 C 0.36111 0.12565 0.49427 0.0
C207 C 0.33432 0.12393 0.47617 0.0
C208 C 0.31009 0.1005 0.48025 0.0
C209 C 0.32348 0.08932 0.50051 0.0
N210 N 0.3414 0.06977 0.55458 0.0
C211 C 0.31184 0.05801 0.54113 0.0
C212 C 0.2883 0.03936 0.55707 0.0
C213 C 0.3042 0.03931 0.58195 0.0
C214 C 0.33668 0.05815 0.57988 0.0
N215 N 0.37242 0.12095 0.56351 0.0
C216 C 0.35746 0.15515 0.60133 0.0
C217 C 0.33065 0.13866 0.58611 0.0
C218 C 0.33867 0.12167 0.56737 0.0
C219 C 0.39198 0.15446 0.59677 0.0
C220 C 0.3989 0.13732 0.57776 0.0
N221 N 0.39345 0.07146 0.5133 0.0
C222 C 0.4078 0.05829 0.4671 0.0
C223 C 0.40719 0.03501 0.4779 0.0
C224 C 0.40002 0.03068 0.5069 0.0
C225 C 0.3929 0.04891 0.52405 0.0
C226 C 0.40114 0.0763 0.48517 0.0
H227 H 0.38692 0.04465 0.54612 0.0
H228 H 0.40194 0.09407 0.47635 0.0
H229 H 0.31753 0.1089 0.55622 0.0
H230 H 0.4257 0.13718 0.57479 0.0
C231 C 0.46749 0.11097 0.54561 0.0
C232 C 0.36363 0.06281 0.60102 0.0
C233 C 0.39351 0.14693 0.49565 0.0
C234 C 0.30512 0.06738 0.51552 0.0
H235 H 0.42957 0.06767 0.62766 0.0
H236 H 0.48642 0.09124 0.59561 0.0
H237 H 0.50941 0.15252 0.51124 0.0
H238 H 0.46826 0.17382 0.48582 0.0
H239 H 0.33252 0.13808 0.46163 0.0
H240 H 0.285 0.09302 0.47056 0.0
H241 H 0.26235 0.0276 0.55159 0.0
H242 H 0.29332 0.02649 0.59933 0.0
H243 H 0.30356 0.13847 0.58914 0.0
H244 H 0.41357 0.16713 0.60776 0.0
H245 H 0.4129 0.06252 0.44484 0.0
H246 H 0.40014 0.01336 0.51654 0.0
C247 C 0.51016 0.84372 0.06506 0.0
C248 C 0.52181 0.86784 0.0757 0.0
C249 C 0.5485 0.88132 0.05756 0.0
C250 C 0.55151 0.86466 0.03699 0.0
N251 N 0.52768 0.84157 0.04055 0.0
Co252 Co 0.52401 0.81091 0.01748 0.0
N253 N 0.5688 0.8286 0.9952 0.0
C254 C 0.58979 0.85256 0.99839 0.0
C255 C 0.61851 0.85947 0.97974 0.0
C256 C 0.6155 0.83879 0.96347 0.0
C257 C 0.58492 0.82043 0.97314 0.0
N258 N 0.51997 0.78027 0.99417 0.0
C259 C 0.54037 0.77695 0.97178 0.0
C260 C 0.52748 0.75301 0.96067 0.0
C261 C 0.49753 0.74086 0.97638 0.0
C262 C 0.49385 0.75799 0.99607 0.0
N263 N 0.47977 0.7931 0.04041 0.0
C264 C 0.4582 0.76936 0.03708 0.0
C265 C 0.43194 0.76169 0.05784 0.0
C266 C 0.43779 0.78142 0.07602 0.0
C267 C 0.46729 0.80003 0.06512 0.0
N268 N 0.49625 0.82205 0.98975 0.0
C269 C 0.45764 0.8374 0.94942 0.0
C270 C 0.44446 0.81384 0.96232 0.0
C271 C 0.4641 0.80656 0.98201 0.0
C272 C 0.49043 0.85319 0.95725 0.0
C273 C 0.50892 0.84531 0.97739 0.0
N274 N 0.55143 0.79996 0.04522 0.0
C275 C 0.55535 0.76908 0.07868 0.0
C276 C 0.58288 0.78692 0.09162 0.0
C277 C 0.59584 0.81092 0.07984 0.0
C278 C 0.57992 0.81697 0.05677 0.0
C279 C 0.54037 0.77589 0.05541 0.0
H280 H 0.59019 0.83582 0.04935 0.0
H281 H 0.51914 0.76163 0.04656 0.0
H282 H 0.45261 0.78825 0.99053 0.0
H283 H 0.53351 0.8584 0.98233 0.0
C284 C 0.58024 0.86868 0.01757 0.0
C285 C 0.48496 0.82284 0.08023 0.0
C286 C 0.57107 0.79619 0.95949 0.0
C287 C 0.4659 0.75387 0.01623 0.0
H288 H 0.51311 0.87453 0.09531 0.0
H289 H 0.5654 0.90042 0.06022 0.0
H290 H 0.6386 0.87762 0.97763 0.0
H291 H 0.63322 0.83757 0.94592 0.0
H292 H 0.53829 0.74533 0.94274 0.0
H293 H 0.48016 0.72193 0.97347 0.0
H294 H 0.41225 0.74341 0.06037 0.0
H295 H 0.42309 0.7816 0.09571 0.0
H296 H 0.4189 0.80098 0.95749 0.0
H297 H 0.50221 0.8715 0.94766 0.0
H298 H 0.54501 0.75008 0.08674 0.0
H299 H 0.61713 0.82538 0.08917 0.0
C300 C 0.8281 0.00683 0.56037 0.0
C301 C 0.85546 0.00459 0.57579 0.0
C302 C 0.88524 0.02282 0.56609 0.0
C303 C 0.87433 0.0351 0.54545 0.0
N304 N 0.83925 0.02612 0.54178 0.0
Co305 Co 0.81225 0.03737 0.51319 0.0
N306 N 0.8568 0.06067 0.49509 0.0
C307 C 0.89019 0.064 0.50252 0.0
C308 C 0.91539 0.0811 0.48604 0.0
C309 C 0.89705 0.0893 0.46704 0.0
C310 C 0.86153 0.07679 0.47318 0.0
N311 N 0.78509 0.04903 0.48499 0.0
C312 C 0.79658 0.0667 0.46446 0.0
C313 C 0.76869 0.07 0.4505 0.0
C314 C 0.73853 0.0539 0.46265 0.0
C315 C 0.74959 0.04183 0.48334 0.0
N316 N 0.7678 0.01345 0.53076 0.0
C317 C 0.73435 0.00983 0.52337 0.0
C318 C 0.70966 0.99072 0.53784 0.0
C319 C 0.72855 0.98111 0.55501 0.0
C320 C 0.76375 0.99506 0.55001 0.0
N321 N 0.8082 0.06461 0.53907 0.0
C322 C 0.80245 0.10388 0.57468 0.0
C323 C 0.77264 0.08689 0.56347 0.0
C324 C 0.77609 0.06764 0.54589 0.0
C325 C 0.83519 0.1008 0.5679 0.0
C326 C 0.83744 0.08118 0.55031 0.0
N327 N 0.81615 0.01011 0.48765 0.0
C328 C 0.78822 0.97497 0.45794 0.0
C329 C 0.81809 0.96716 0.45734 0.0
C330 C 0.84754 0.98182 0.47119 0.0
C331 C 0.84614 0.00322 0.48587 0.0
C332 C 0.78784 0.99634 0.47303 0.0
H333 H 0.86936 0.01362 0.49613 0.0
H334 H 0.764 0.00096 0.4732 0.0
H335 H 0.75232 0.05562 0.53796 0.0
H336 H 0.86317 0.07993 0.54609 0.0
C337 C 0.89685 0.05217 0.52631 0.0
C338 C 0.79259 0.98911 0.56251 0.0
C339 C 0.83335 0.08142 0.45809 0.0
C340 C 0.72731 0.02351 0.50138 0.0
H341 H 0.8542 0.99056 0.59155 0.0
H342 H 0.91196 0.02578 0.57218 0.0
H343 H 0.94368 0.08728 0.48802 0.0
H344 H 0.90847 0.10324 0.45078 0.0
H345 H 0.76995 0.08294 0.43351 0.0
H346 H 0.7117 0.05145 0.45722 0.0
H347 H 0.68147 0.98393 0.53536 0.0
H348 H 0.71778 0.96513 0.56894 0.0
H349 H 0.74669 0.08867 0.56781 0.0
H350 H 0.85905 0.11333 0.57634 0.0
H351 H 0.76469 0.96419 0.44759 0.0
H352 H 0.87153 0.97677 0.47082 0.0
C353 C 0.46862 0.3725 0.08215 0.0
C354 C 0.47088 0.39706 0.08862 0.0
C355 C 0.4942 0.41187 0.06907 0.0
C356 C 0.50464 0.39555 0.05178 0.0
N357 N 0.48902 0.37121 0.05892 0.0
Co358 Co 0.49644 0.34131 0.03963 0.0
N359 N 0.53671 0.36304 0.01527 0.0
C360 C 0.54989 0.38838 0.01571 0.0
C361 C 0.57872 0.39805 0.99764 0.0
C362 C 0.58446 0.37768 0.98499 0.0
C363 C 0.55843 0.35667 0.99592 0.0
N364 N 0.50283 0.31139 0.01954 0.0
C365 C 0.52661 0.30993 0.99878 0.0
C366 C 0.52056 0.28542 0.98967 0.0
C367 C 0.49209 0.27088 0.00537 0.0
C368 C 0.48228 0.28725 0.02295 0.0
N369 N 0.45761 0.31957 0.06525 0.0
C370 C 0.44446 0.29424 0.06502 0.0
C371 C 0.42036 0.28439 0.08673 0.0
C372 C 0.41853 0.30458 0.10216 0.0
C373 C 0.44146 0.32572 0.08871 0.0
N374 N 0.46203 0.34283 0.0112 0.0
C375 C 0.41552 0.34392 0.9686 0.0
C376 C 0.40802 0.32361 0.98718 0.0
C377 C 0.43139 0.32341 0.008 0.0
C378 C 0.44638 0.36389 0.97218 0.0
C379 C 0.46876 0.36308 0.99348 0.0
N380 N 0.53065 0.33983 0.06763 0.0
C381 C 0.55647 0.31588 0.09651 0.0
C382 C 0.58041 0.33786 0.10661 0.0
C383 C 0.57862 0.36083 0.09711 0.0
C384 C 0.55376 0.36139 0.07778 0.0
C385 C 0.53194 0.31728 0.07722 0.0
H386 H 0.55385 0.37947 0.07112 0.0
H387 H 0.51427 0.29991 0.07023 0.0
H388 H 0.42394 0.3072 0.02107 0.0
H389 H 0.4915 0.37908 0.99482 0.0
C390 C 0.53328 0.40253 0.03218 0.0
C391 C 0.44836 0.35115 0.09957 0.0
C392 C 0.55507 0.33113 0.9869 0.0
C393 C 0.45608 0.28029 0.04454 0.0
H394 H 0.45795 0.40359 0.10624 0.0
H395 H 0.50393 0.43216 0.06854 0.0
H396 H 0.59359 0.41759 0.99392 0.0
H397 H 0.6053 0.37825 0.96931 0.0
H398 H 0.53529 0.27872 0.97345 0.0
H399 H 0.48037 0.25071 0.00445 0.0
H400 H 0.40654 0.26481 0.09125 0.0
H401 H 0.40265 0.30367 0.12146 0.0
H402 H 0.38408 0.30786 0.98583 0.0
H403 H 0.45379 0.38003 0.95826 0.0
H404 H 0.5565 0.29764 0.10356 0.0
H405 H 0.59683 0.37836 0.10407 0.0
C406 C 0.25059 0.44312 0.28596 0.0
C407 C 0.2468 0.4213 0.27006 0.0
C408 C 0.22597 0.45614 0.285 0.0
C409 C 0.19691 0.44723 0.26761 0.0
C410 C 0.19322 0.42547 0.25115 0.0
C411 C 0.21816 0.41273 0.25262 0.0
C412 C 0.23079 0.47925 0.30292 0.0
C413 C 0.16271 0.41549 0.23221 0.0
C414 C 0.11634 0.46722 0.2866 0.0
C415 C 0.12106 0.4873 0.26795 0.0
C416 C 0.14054 0.45378 0.28643 0.0
C417 C 0.17013 0.46051 0.26706 0.0
C418 C 0.17467 0.48041 0.24779 0.0
C419 C 0.15014 0.4936 0.2485 0.0
C420 C 0.13473 0.43264 0.30728 0.0
C421 C 0.20584 0.48811 0.22679 0.0
H422 H 0.27259 0.4499 0.29952 0.0
H423 H 0.21503 0.39593 0.24021 0.0
H424 H 0.23208 0.49554 0.28948 0.0
H425 H 0.20778 0.47632 0.31805 0.0
H426 H 0.25512 0.48398 0.31495 0.0
H427 H 0.16413 0.39874 0.22019 0.0
H428 H 0.13743 0.41037 0.24497 0.0
H429 H 0.16225 0.43022 0.21706 0.0
H430 H 0.09365 0.46199 0.30137 0.0
H431 H 0.15423 0.50928 0.23426 0.0
H432 H 0.15713 0.43698 0.32138 0.0
H433 H 0.13378 0.41506 0.29602 0.0
H434 H 0.1099 0.42933 0.32043 0.0
H435 H 0.23068 0.49488 0.23809 0.0
H436 H 0.20466 0.50319 0.21237 0.0
H437 H 0.20705 0.47174 0.214 0.0
C438 C 0.17294 0.77657 0.76631 0.0
C439 C 0.1885 0.79492 0.74569 0.0
C440 C 0.15138 0.7526 0.75895 0.0
C441 C 0.14513 0.74678 0.73025 0.0
C442 C 0.15992 0.76539 0.70935 0.0
C443 C 0.18147 0.78927 0.71731 0.0
C444 C 0.136 0.73329 0.78189 0.0
C445 C 0.15365 0.75987 0.67855 0.0
C446 C 0.12042 0.67742 0.71331 0.0
C447 C 0.08364 0.67065 0.71365 0.0
C448 C 0.14093 0.70243 0.71754 0.0
C449 C 0.12406 0.72091 0.72229 0.0
C450 C 0.08686 0.71415 0.72166 0.0
C451 C 0.06704 0.689 0.71741 0.0
C452 C 0.1805 0.70887 0.71809 0.0
C453 C 0.06791 0.73328 0.7266 0.0
H454 H 0.17809 0.78076 0.78829 0.0
H455 H 0.19335 0.80334 0.70125 0.0
H456 H 0.10689 0.72581 0.78083 0.0
H457 H 0.14631 0.71726 0.77877 0.0
H458 H 0.1424 0.74107 0.80327 0.0
H459 H 0.16551 0.77672 0.66505 0.0
H460 H 0.16514 0.7451 0.67152 0.0
H461 H 0.12493 0.75254 0.67529 0.0
H462 H 0.13298 0.66301 0.71052 0.0
H463 H 0.03847 0.68349 0.71773 0.0
H464 H 0.18907 0.71484 0.73961 0.0
H465 H 0.1937 0.72479 0.70364 0.0
H466 H 0.18963 0.69274 0.71194 0.0
H467 H 0.07094 0.74008 0.74863 0.0
H468 H 0.0393 0.72544 0.7229 0.0
H469 H 0.07971 0.74976 0.7126 0.0
C470 C 0.86488 0.71647 0.27843 0.0
C471 C 0.83593 0.71339 0.29757 0.0
C472 C 0.88238 0.69842 0.27617 0.0
C473 C 0.87075 0.67678 0.29353 0.0
C474 C 0.84157 0.67355 0.31291 0.0
C475 C 0.82448 0.69187 0.31467 0.0
C476 C 0.91338 0.70254 0.25522 0.0
C477 C 0.8285 0.65078 0.33186 0.0
C478 C 0.89875 0.62059 0.27022 0.0
C479 C 0.92829 0.62359 0.28624 0.0
C480 C 0.87938 0.63752 0.27269 0.0
C481 C 0.8897 0.65783 0.29175 0.0
C482 C 0.91893 0.66054 0.30849 0.0
C483 C 0.93787 0.64343 0.3055 0.0
C484 C 0.84843 0.63404 0.25442 0.0
C485 C 0.93059 0.68179 0.32923 0.0
H486 H 0.87386 0.73299 0.26507 0.0
H487 H 0.80211 0.68931 0.3295 0.0
H488 H 0.9374 0.70335 0.26637 0.0
H489 H 0.90838 0.68658 0.24033 0.0
H490 H 0.91874 0.72015 0.24292 0.0
H491 H 0.80528 0.65094 0.34562 0.0
H492 H 0.82114 0.63346 0.31899 0.0
H493 H 0.84986 0.64985 0.34538 0.0
H494 H 0.89139 0.6054 0.25516 0.0
H495 H 0.96034 0.64561 0.31827 0.0
H496 H 0.85379 0.65036 0.24004 0.0
H497 H 0.82443 0.63318 0.26767 0.0
H498 H 0.84289 0.61671 0.24155 0.0
H499 H 0.93876 0.7 0.31787 0.0
H500 H 0.95299 0.68068 0.34146 0.0
H501 H 0.90831 0.68165 0.34418 0.0
C502 C 0.84374 0.37418 0.69987 0.0
C503 C 0.83759 0.36658 0.72821 0.0
C504 C 0.86283 0.39912 0.69251 0.0
C505 C 0.87596 0.4168 0.714 0.0
C506 C 0.87122 0.40896 0.7425 0.0
C507 C 0.85219 0.38398 0.74924 0.0
C508 C 0.86768 0.40678 0.66188 0.0
C509 C 0.88492 0.42721 0.76606 0.0
C510 C 0.94473 0.4805 0.70104 0.0
C511 C 0.92363 0.49616 0.70252 0.0
C512 C 0.92948 0.45437 0.70328 0.0
C513 C 0.89235 0.44389 0.7072 0.0
C514 C 0.87096 0.45975 0.7074 0.0
C515 C 0.88694 0.48577 0.70501 0.0
C516 C 0.95316 0.43813 0.7028 0.0
C517 C 0.83132 0.44935 0.71159 0.0
H518 H 0.83266 0.36087 0.68347 0.0
H519 H 0.84787 0.3783 0.77119 0.0
H520 H 0.85199 0.41941 0.65791 0.0
H521 H 0.89573 0.41739 0.65649 0.0
H522 H 0.85919 0.39039 0.64762 0.0
H523 H 0.8808 0.41782 0.78696 0.0
H524 H 0.91351 0.43715 0.76221 0.0
H525 H 0.87128 0.4416 0.76677 0.0
H526 H 0.97319 0.48879 0.69905 0.0
H527 H 0.87088 0.49812 0.70606 0.0
H528 H 0.94358 0.42224 0.68806 0.0
H529 H 0.95258 0.43004 0.72407 0.0
H530 H 0.98095 0.44884 0.69649 0.0
H531 H 0.82053 0.43404 0.69638 0.0
H532 H 0.81839 0.46395 0.709 0.0
H533 H 0.82423 0.44124 0.73307 0.0
C534 C 0.419 0.28148 0.42642 0.0
C535 C 0.38809 0.28079 0.41326 0.0
C536 C 0.42155 0.26031 0.44041 0.0
C537 C 0.3926 0.23789 0.44111 0.0
C538 C 0.36139 0.23705 0.4278 0.0
C539 C 0.35948 0.25852 0.41411 0.0
C540 C 0.45519 0.26194 0.45449 0.0
C541 C 0.33001 0.21343 0.42797 0.0
C542 C 0.40763 0.1756 0.45405 0.0
C543 C 0.39574 0.17099 0.48225 0.0
C544 C 0.40735 0.19756 0.4405 0.0
C545 C 0.39488 0.2152 0.45563 0.0
C546 C 0.38342 0.21068 0.48436 0.0
C547 C 0.38382 0.18848 0.4973 0.0
C548 C 0.41958 0.20161 0.40985 0.0
C549 C 0.3701 0.22905 0.50123 0.0
H550 H 0.4412 0.29863 0.42593 0.0
H551 H 0.33552 0.2578 0.40397 0.0
H552 H 0.44942 0.25754 0.47726 0.0
H553 H 0.46666 0.24784 0.44532 0.0
H554 H 0.47522 0.2808 0.45219 0.0
H555 H 0.30776 0.21583 0.41652 0.0
H556 H 0.33783 0.19787 0.41809 0.0
H557 H 0.3206 0.20771 0.44997 0.0
H558 H 0.41647 0.16175 0.44252 0.0
H559 H 0.37442 0.18459 0.5191 0.0
H560 H 0.44078 0.21986 0.40702 0.0
H561 H 0.3974 0.20231 0.39715 0.0
H562 H 0.42964 0.18651 0.40142 0.0
H563 H 0.39017 0.24793 0.50035 0.0
H564 H 0.36369 0.22329 0.52365 0.0
H565 H 0.34603 0.23072 0.49199 0.0
C566 C 0.36535 0.87865 0.82055 0.0
C567 C 0.33049 0.87697 0.82873 0.0
C568 C 0.38803 0.87421 0.83997 0.0
C569 C 0.37525 0.86741 0.86803 0.0
C570 C 0.34036 0.86626 0.87655 0.0
C571 C 0.31852 0.87131 0.85686 0.0
C572 C 0.42535 0.87619 0.8303 0.0
C573 C 0.32558 0.85867 0.90615 0.0
C574 C 0.41728 0.82787 0.90908 0.0
C575 C 0.43737 0.84537 0.92798 0.0
C576 C 0.39712 0.83485 0.88941 0.0
C577 C 0.3976 0.86009 0.88811 0.0
C578 C 0.41848 0.87802 0.90655 0.0
C579 C 0.4378 0.87041 0.92646 0.0
C580 C 0.37486 0.81509 0.87029 0.0
C581 C 0.42005 0.90519 0.90548 0.0
H582 H 0.37482 0.88319 0.79888 0.0
H583 H 0.29155 0.86983 0.8633 0.0
H584 H 0.44431 0.88848 0.84471 0.0
H585 H 0.42883 0.85741 0.83092 0.0
H586 H 0.43211 0.88376 0.80853 0.0
H587 H 0.29836 0.8596 0.9097 0.0
H588 H 0.32516 0.8392 0.91034 0.0
H589 H 0.34266 0.87096 0.92169 0.0
H590 H 0.41733 0.80862 0.90957 0.0
H591 H 0.45277 0.88406 0.94115 0.0
H592 H 0.38276 0.82032 0.84794 0.0
H593 H 0.34671 0.81389 0.87354 0.0
H594 H 0.37727 0.79626 0.87409 0.0
H595 H 0.42739 0.91263 0.88373 0.0
H596 H 0.43935 0.91709 0.91997 0.0
H597 H 0.39367 0.90682 0.91127 0.0
C598 C 0.76611 0.8297 0.396 0.0
C599 C 0.78965 0.82589 0.37484 0.0
C600 C 0.77405 0.85219 0.4112 0.0
C601 C 0.80636 0.87139 0.40515 0.0
C602 C 0.83122 0.86707 0.38513 0.0
C603 C 0.82258 0.84436 0.3702 0.0
C604 C 0.74689 0.85597 0.43252 0.0
C605 C 0.8661 0.88699 0.3783 0.0
C606 C 0.80307 0.93752 0.41672 0.0
C607 C 0.81788 0.94346 0.44302 0.0
C608 C 0.80013 0.91441 0.40387 0.0
C609 C 0.8123 0.89674 0.41764 0.0
C610 C 0.82823 0.9029 0.44382 0.0
C611 C 0.83083 0.92621 0.45621 0.0
C612 C 0.78307 0.90863 0.37589 0.0
C613 C 0.84147 0.88457 0.45915 0.0
H614 H 0.74072 0.81549 0.39995 0.0
H615 H 0.84103 0.84159 0.35399 0.0
H616 H 0.75919 0.863 0.45265 0.0
H617 H 0.73598 0.87031 0.42457 0.0
H618 H 0.72472 0.83841 0.4368 0.0
H619 H 0.88421 0.87967 0.36493 0.0
H620 H 0.86149 0.90269 0.36692 0.0
H621 H 0.87924 0.89477 0.39791 0.0
H622 H 0.79347 0.95092 0.40627 0.0
H623 H 0.84195 0.93059 0.4767 0.0
H624 H 0.75854 0.89241 0.37826 0.0
H625 H 0.80097 0.90333 0.36023 0.0
H626 H 0.77634 0.92478 0.36742 0.0
H627 H 0.8189 0.86794 0.46573 0.0
H628 H 0.85567 0.89294 0.47817 0.0
H629 H 0.85942 0.87784 0.44496 0.0
C630 C 0.70894 0.33768 0.87271 0.0
C631 C 0.70293 0.31654 0.85532 0.0
C632 C 0.68452 0.33889 0.89446 0.0
C633 C 0.65326 0.31842 0.89902 0.0
C634 C 0.64721 0.29682 0.88188 0.0
C635 C 0.67213 0.29613 0.86019 0.0
C636 C 0.69194 0.36226 0.91228 0.0
C637 C 0.61419 0.27462 0.88621 0.0
C638 C 0.6051 0.31602 0.97045 0.0
C639 C 0.57933 0.32685 0.96419 0.0
C640 C 0.62882 0.3125 0.94926 0.0
C641 C 0.62659 0.32009 0.92129 0.0
C642 C 0.60003 0.33061 0.91488 0.0
C643 C 0.57663 0.33383 0.93648 0.0
C644 C 0.65671 0.30119 0.9569 0.0
C645 C 0.59684 0.33899 0.88536 0.0
H646 H 0.73267 0.35353 0.86918 0.0
H647 H 0.6673 0.27972 0.84688 0.0
H648 H 0.671 0.37105 0.90996 0.0
H649 H 0.69156 0.35736 0.93485 0.0
H650 H 0.71786 0.37631 0.9064 0.0
H651 H 0.61401 0.2589 0.87177 0.0
H652 H 0.61164 0.26777 0.90825 0.0
H653 H 0.59065 0.28038 0.88268 0.0
H654 H 0.60688 0.31061 0.992 0.0
H655 H 0.55643 0.34208 0.93184 0.0
H656 H 0.68326 0.31517 0.95327 0.0
H657 H 0.65563 0.28487 0.94321 0.0
H658 H 0.65361 0.295 0.97925 0.0
H659 H 0.62107 0.35437 0.87874 0.0
H660 H 0.57375 0.34574 0.88368 0.0
H661 H 0.59434 0.32331 0.87038 0.0
C662 C 0.26777 0.95135 0.70246 0.0
C663 C 0.27784 0.95295 0.73038 0.0
C664 C 0.28268 0.97128 0.68354 0.0
C665 C 0.30926 0.99294 0.69252 0.0
C666 C 0.3196 0.99461 0.72071 0.0
C667 C 0.30328 0.97473 0.73948 0.0
C668 C 0.27017 0.96907 0.65388 0.0
C669 C 0.3486 0.01703 0.73078 0.0
C670 C 0.36787 0.02796 0.6314 0.0
C671 C 0.35438 0.04776 0.62744 0.0
C672 C 0.35513 0.01104 0.65384 0.0
C673 C 0.32701 0.01326 0.67189 0.0
C674 C 0.31382 0.03357 0.66836 0.0
C675 C 0.32803 0.05079 0.64633 0.0
C676 C 0.37056 0.99004 0.6573 0.0
C677 C 0.28314 0.03615 0.68656 0.0
H678 H 0.24786 0.93458 0.6955 0.0
H679 H 0.31124 0.97586 0.76105 0.0
H680 H 0.26246 0.9857 0.64852 0.0
H681 H 0.29191 0.96851 0.63871 0.0
H682 H 0.24732 0.95193 0.65096 0.0
H683 H 0.35305 0.01568 0.7535 0.0
H684 H 0.37357 0.0187 0.71846 0.0
H685 H 0.34215 0.0345 0.72721 0.0
H686 H 0.38744 0.0251 0.61628 0.0
H687 H 0.31718 0.06584 0.64283 0.0
H688 H 0.35133 0.97204 0.65092 0.0
H689 H 0.37596 0.98816 0.67969 0.0
H690 H 0.39543 0.99308 0.64427 0.0
H691 H 0.25899 0.0205 0.68203 0.0
H692 H 0.2781 0.05415 0.68276 0.0
H693 H 0.2879 0.0349 0.70918 0.0
C694 C 0.65452 0.79324 0.24388 0.0
C695 C 0.66609 0.7732 0.25141 0.0
C696 C 0.6397 0.79366 0.21787 0.0
C697 C 0.63625 0.77351 0.19891 0.0
C698 C 0.64708 0.75294 0.2066 0.0
C699 C 0.66195 0.75304 0.23277 0.0
C700 C 0.6284 0.81593 0.21045 0.0
C701 C 0.64353 0.73105 0.18696 0.0
C702 C 0.57346 0.76888 0.14032 0.0
C703 C 0.59676 0.78116 0.11814 0.0
C704 C 0.58599 0.76554 0.16654 0.0
C705 C 0.62268 0.77465 0.17059 0.0
C706 C 0.64639 0.78635 0.14799 0.0
C707 C 0.63313 0.78948 0.12203 0.0
C708 C 0.55987 0.75312 0.19019 0.0
C709 C 0.68569 0.79638 0.1515 0.0
H710 H 0.65748 0.80886 0.25817 0.0
H711 H 0.67071 0.73745 0.23846 0.0
H712 H 0.64377 0.82543 0.19138 0.0
H713 H 0.60017 0.80962 0.20542 0.0
H714 H 0.63219 0.82983 0.22779 0.0
H715 H 0.65162 0.71597 0.19661 0.0
H716 H 0.61581 0.72307 0.18081 0.0
H717 H 0.66009 0.73754 0.16738 0.0
H718 H 0.54528 0.76278 0.13753 0.0
H719 H 0.65122 0.79877 0.10484 0.0
H720 H 0.56029 0.7669 0.20719 0.0
H721 H 0.56732 0.73761 0.19945 0.0
H722 H 0.5325 0.74554 0.18305 0.0
H723 H 0.69157 0.81172 0.16723 0.0
H724 H 0.70067 0.80375 0.13143 0.0
H725 H 0.69531 0.78143 0.15959 0.0
C726 C 0.76141 0.21919 0.652 0.0
C727 C 0.77772 0.22519 0.67775 0.0
C728 C 0.7661 0.1997 0.63513 0.0
C729 C 0.78753 0.1858 0.64425 0.0
C730 C 0.80424 0.19185 0.67012 0.0
C731 C 0.79918 0.21149 0.68654 0.0
C732 C 0.74791 0.19386 0.60763 0.0
C733 C 0.82722 0.17742 0.68058 0.0
C734 C 0.7719 0.12053 0.61388 0.0
C735 C 0.79929 0.12475 0.59304 0.0
C736 C 0.76798 0.14018 0.63086 0.0
C737 C 0.79199 0.16468 0.62688 0.0
C738 C 0.81989 0.16904 0.60606 0.0
C739 C 0.82324 0.14902 0.58942 0.0
C740 C 0.73802 0.13474 0.65295 0.0
C741 C 0.84591 0.19491 0.6011 0.0
H742 H 0.74483 0.22969 0.64501 0.0
H743 H 0.81187 0.21597 0.7064 0.0
H744 H 0.76766 0.1952 0.58997 0.0
H745 H 0.7296 0.17434 0.60804 0.0
H746 H 0.73271 0.20675 0.60328 0.0
H747 H 0.83871 0.18467 0.70097 0.0
H748 H 0.81154 0.15734 0.68328 0.0
H749 H 0.84906 0.17841 0.66482 0.0
H750 H 0.7536 0.10177 0.61704 0.0
H751 H 0.84421 0.15247 0.57314 0.0
H752 H 0.72048 0.14594 0.64861 0.0
H753 H 0.74853 0.14033 0.67403 0.0
H754 H 0.72199 0.11458 0.65369 0.0
H755 H 0.83183 0.20796 0.59476 0.0
H756 H 0.86655 0.19507 0.58449 0.0
H757 H 0.85898 0.20226 0.62088 0.0
C758 C 0.39139 0.38035 0.25825 0.0
C759 C 0.38763 0.35897 0.27455 0.0
C760 C 0.40039 0.38081 0.22923 0.0
C761 C 0.40554 0.35933 0.21629 0.0
C762 C 0.4012 0.33757 0.23262 0.0
C763 C 0.39259 0.33774 0.26158 0.0
C764 C 0.40533 0.40448 0.21259 0.0
C765 C 0.40606 0.31418 0.21956 0.0
C766 C 0.4015 0.34991 0.13708 0.0
C767 C 0.43725 0.35523 0.12902 0.0
C768 C 0.39075 0.35181 0.16538 0.0
C769 C 0.41651 0.35965 0.18585 0.0
C770 C 0.4528 0.3662 0.17745 0.0
C771 C 0.46272 0.36381 0.14908 0.0
C772 C 0.35185 0.34453 0.17351 0.0
C773 C 0.48109 0.37494 0.19854 0.0
H774 H 0.38856 0.39704 0.26832 0.0
H775 H 0.3897 0.32117 0.27413 0.0
H776 H 0.43312 0.41206 0.20433 0.0
H777 H 0.38849 0.40034 0.19417 0.0
H778 H 0.39881 0.41917 0.2255 0.0
H779 H 0.40019 0.29849 0.23493 0.0
H780 H 0.38859 0.30801 0.20167 0.0
H781 H 0.43363 0.31824 0.21103 0.0
H782 H 0.38196 0.34358 0.12132 0.0
H783 H 0.4904 0.36808 0.1426 0.0
H784 H 0.34593 0.35982 0.18563 0.0
H785 H 0.3442 0.32772 0.18736 0.0
H786 H 0.33532 0.34026 0.15486 0.0
H787 H 0.47717 0.39065 0.2112 0.0
H788 H 0.50803 0.38122 0.18826 0.0
H789 H 0.47929 0.35944 0.21335 0.0
C790 C 0.82808 0.73649 0.71835 0.0
C791 C 0.80029 0.73469 0.70076 0.0
C792 C 0.84732 0.71952 0.71602 0.0
C793 C 0.83876 0.70038 0.69544 0.0
C794 C 0.81121 0.69876 0.67723 0.0
C795 C 0.7922 0.71587 0.68018 0.0
C796 C 0.87637 0.72176 0.73596 0.0
C797 C 0.80156 0.67876 0.65487 0.0
C798 C 0.90896 0.66951 0.67742 0.0
C799 C 0.8973 0.64786 0.69432 0.0
C800 C 0.88959 0.6864 0.67686 0.0
C801 C 0.85795 0.68162 0.69374 0.0
C802 C 0.84549 0.65944 0.71016 0.0
C803 C 0.86522 0.64279 0.71014 0.0
C804 C 0.90359 0.70977 0.65892 0.0
C805 C 0.81186 0.65365 0.72843 0.0
H806 H 0.83449 0.75094 0.73432 0.0
H807 H 0.77086 0.71441 0.66643 0.0
H808 H 0.87005 0.70443 0.74884 0.0
H809 H 0.90159 0.7238 0.72389 0.0
H810 H 0.88025 0.73802 0.75037 0.0
H811 H 0.7805 0.68071 0.6416 0.0
H812 H 0.82511 0.67962 0.64106 0.0
H813 H 0.79232 0.65994 0.66491 0.0
H814 H 0.93388 0.67372 0.66535 0.0
H815 H 0.85569 0.62588 0.72285 0.0
H816 H 0.91109 0.72654 0.67265 0.0
H817 H 0.88282 0.71162 0.64531 0.0
H818 H 0.92702 0.70975 0.64534 0.0
H819 H 0.81469 0.66831 0.7448 0.0
H820 H 0.80505 0.63511 0.73904 0.0
H821 H 0.78958 0.65387 0.71559 0.0
C822 C 0.92502 0.34647 0.25356 0.0
C823 C 0.90016 0.33216 0.27358 0.0
C824 C 0.93465 0.37275 0.25357 0.0
C825 C 0.92018 0.38495 0.2749 0.0
C826 C 0.89557 0.37048 0.29557 0.0
C827 C 0.88524 0.34417 0.29426 0.0
C828 C 0.95988 0.38743 0.23053 0.0
C829 C 0.88063 0.38277 0.31928 0.0
C830 C 0.97252 0.45321 0.28753 0.0
C831 C 0.9524 0.46573 0.2743 0.0
C832 C 0.96183 0.42691 0.2886 0.0
C833 C 0.93076 0.41284 0.27542 0.0
C834 C 0.91016 0.42545 0.26227 0.0
C835 C 0.92072 0.45177 0.26262 0.0
C836 C 0.98379 0.41422 0.30382 0.0
C837 C 0.87734 0.41119 0.24738 0.0
H838 H 0.93625 0.33704 0.23744 0.0
H839 H 0.86614 0.33296 0.30981 0.0
H840 H 0.94765 0.39963 0.21952 0.0
H841 H 0.98418 0.39984 0.23973 0.0
H842 H 0.96743 0.37504 0.21478 0.0
H843 H 0.86322 0.36885 0.33445 0.0
H844 H 0.90242 0.3958 0.33082 0.0
H845 H 0.86522 0.39405 0.31071 0.0
H846 H 0.99668 0.46407 0.29708 0.0
H847 H 0.90413 0.4614 0.25378 0.0
H848 H 0.99498 0.40323 0.2887 0.0
H849 H 0.96698 0.40087 0.31976 0.0
H850 H 0.00587 0.42787 0.31453 0.0
H851 H 0.8838 0.39874 0.23116 0.0
H852 H 0.86528 0.42386 0.23702 0.0
H853 H 0.85747 0.39904 0.26257 0.0
C854 C 0.1799 0.43504 0.74015 0.0
C855 C 0.16082 0.4174 0.7605 0.0
C856 C 0.16845 0.45516 0.7326 0.0
C857 C 0.1372 0.45769 0.74574 0.0
C858 C 0.11813 0.44016 0.76657 0.0
C859 C 0.13016 0.42024 0.77369 0.0
C860 C 0.18949 0.4735 0.71032 0.0
C861 C 0.08471 0.44226 0.7811 0.0
C862 C 0.11899 0.51999 0.74588 0.0
C863 C 0.09417 0.51611 0.7251 0.0
C864 C 0.13407 0.50143 0.75223 0.0
C865 C 0.12399 0.47842 0.73749 0.0
C866 C 0.09978 0.4747 0.71587 0.0
C867 C 0.08518 0.49361 0.70992 0.0
C868 C 0.15995 0.50616 0.77531 0.0
C869 C 0.08829 0.45038 0.69973 0.0
H870 H 0.20361 0.43298 0.72983 0.0
H871 H 0.11526 0.40672 0.78944 0.0
H872 H 0.17301 0.47305 0.69212 0.0
H873 H 0.1972 0.49286 0.71878 0.0
H874 H 0.21371 0.46931 0.70268 0.0
H875 H 0.07331 0.42734 0.79719 0.0
H876 H 0.0901 0.46078 0.79151 0.0
H877 H 0.06471 0.44101 0.76534 0.0
H878 H 0.1263 0.53748 0.75746 0.0
H879 H 0.06566 0.49037 0.69409 0.0
H880 H 0.18461 0.50275 0.76744 0.0
H881 H 0.14859 0.49291 0.79301 0.0
H882 H 0.16667 0.5256 0.78354 0.0
H883 H 0.11165 0.44591 0.69061 0.0
H884 H 0.07092 0.45104 0.68244 0.0
H885 H 0.07377 0.43483 0.71426 0.0
C886 C 0.28774 0.7046 0.29463 0.0
C887 C 0.30573 0.71361 0.26884 0.0
C888 C 0.2558 0.68478 0.29561 0.0
C889 C 0.2414 0.6737 0.27021 0.0
C890 C 0.25972 0.68236 0.24414 0.0
C891 C 0.29169 0.7022 0.24377 0.0
C892 C 0.23706 0.67605 0.32383 0.0
C893 C 0.24514 0.67102 0.21661 0.0
C894 C 0.17026 0.60991 0.27358 0.0
C895 C 0.13973 0.61679 0.27238 0.0
C896 C 0.20369 0.62824 0.27283 0.0
C897 C 0.20632 0.65392 0.27087 0.0
C898 C 0.17529 0.66083 0.26978 0.0
C899 C 0.14231 0.64213 0.27063 0.0
C900 C 0.23614 0.62018 0.27414 0.0
C901 C 0.17692 0.68795 0.26772 0.0
H902 H 0.29842 0.71321 0.31413 0.0
H903 H 0.30541 0.70898 0.22375 0.0
H904 H 0.21118 0.67944 0.32502 0.0
H905 H 0.23176 0.65557 0.32631 0.0
H906 H 0.25256 0.68582 0.3417 0.0
H907 H 0.26332 0.67913 0.19824 0.0
H908 H 0.24005 0.65045 0.21692 0.0
H909 H 0.21953 0.67419 0.2137 0.0
H910 H 0.1679 0.5902 0.27502 0.0
H911 H 0.11841 0.64722 0.26982 0.0
H912 H 0.25117 0.62875 0.29269 0.0
H913 H 0.25377 0.62693 0.25514 0.0
H914 H 0.22956 0.59948 0.27557 0.0
H915 H 0.19009 0.69851 0.28612 0.0
H916 H 0.15033 0.69011 0.26689 0.0
H917 H 0.19288 0.69667 0.24855 0.0
C918 C 0.77871 0.8626 0.64448 0.0
C919 C 0.7438 0.84641 0.64514 0.0
C920 C 0.78869 0.8852 0.62921 0.0
C921 C 0.76317 0.89172 0.61421 0.0
C922 C 0.72836 0.8749 0.61363 0.0
C923 C 0.71909 0.85246 0.62911 0.0
C924 C 0.82611 0.90262 0.63022 0.0
C925 C 0.70047 0.88112 0.59771 0.0
C926 C 0.77392 0.96064 0.60414 0.0
C927 C 0.78614 0.96439 0.57598 0.0
C928 C 0.76677 0.9371 0.61692 0.0
C929 C 0.77202 0.91695 0.60102 0.0
C930 C 0.78482 0.92087 0.57255 0.0
C931 C 0.79177 0.94466 0.56033 0.0
C932 C 0.7532 0.9337 0.64732 0.0
C933 C 0.79072 0.8999 0.55493 0.0
H934 H 0.79803 0.85808 0.65671 0.0
H935 H 0.69211 0.84003 0.62931 0.0
H936 H 0.83731 0.90847 0.60863 0.0
H937 H 0.8263 0.91986 0.64194 0.0
H938 H 0.8435 0.89385 0.64068 0.0
H939 H 0.6755 0.86518 0.59745 0.0
H940 H 0.69469 0.89745 0.60762 0.0
H941 H 0.71012 0.88645 0.57566 0.0
H942 H 0.76971 0.97613 0.61601 0.0
H943 H 0.80128 0.94784 0.53848 0.0
H944 H 0.77084 0.92676 0.65988 0.0
H945 H 0.72666 0.9194 0.64887 0.0
H946 H 0.75133 0.9514 0.65686 0.0
H947 H 0.80905 0.89193 0.56527 0.0
H948 H 0.80175 0.90625 0.53337 0.0
H949 H 0.7654 0.88454 0.55316 0.0
C950 C 0.75321 0.34996 0.18956 0.0
C951 C 0.74674 0.33405 0.21311 0.0
C952 C 0.72554 0.35131 0.17331 0.0
C953 C 0.6905 0.33642 0.18078 0.0
C954 C 0.68363 0.32091 0.20502 0.0
C955 C 0.71183 0.31991 0.2209 0.0
C956 C 0.73392 0.36817 0.14768 0.0
C957 C 0.64662 0.30481 0.21371 0.0
C958 C 0.61586 0.35366 0.14901 0.0
C959 C 0.60763 0.3369 0.12635 0.0
C960 C 0.64247 0.35354 0.16713 0.0
C961 C 0.66131 0.33625 0.16248 0.0
C962 C 0.65281 0.31907 0.13989 0.0
C963 C 0.6261 0.31961 0.12211 0.0
C964 C 0.65065 0.37206 0.19108 0.0
C965 C 0.67234 0.30038 0.13419 0.0
H966 H 0.78006 0.36103 0.18342 0.0
H967 H 0.70653 0.30761 0.2391 0.0
H968 H 0.72685 0.35668 0.12842 0.0
H969 H 0.71797 0.38113 0.14878 0.0
H970 H 0.76228 0.37945 0.14551 0.0
H971 H 0.64546 0.29488 0.23398 0.0
H972 H 0.62888 0.31648 0.21583 0.0
H973 H 0.63623 0.29066 0.19719 0.0
H974 H 0.60138 0.36685 0.15265 0.0
H975 H 0.62024 0.30683 0.10444 0.0
H976 H 0.67838 0.38451 0.1885 0.0
H977 H 0.64798 0.36198 0.2114 0.0
H978 H 0.63302 0.38388 0.19224 0.0
H979 H 0.70074 0.31043 0.12946 0.0
H980 H 0.6619 0.28786 0.11622 0.0
H981 H 0.67044 0.28864 0.15316 0.0
C982 C 0.33775 0.26386 0.70536 0.0
C983 C 0.30789 0.25489 0.72378 0.0
C984 C 0.34671 0.24803 0.68533 0.0
C985 C 0.32543 0.22261 0.68379 0.0
C986 C 0.2956 0.21336 0.70261 0.0
C987 C 0.28715 0.22962 0.72231 0.0
C988 C 0.3787 0.25857 0.66559 0.0
C989 C 0.2724 0.18633 0.70174 0.0
C990 C 0.3272 0.1865 0.61589 0.0
C991 C 0.34949 0.17267 0.62226 0.0
C992 C 0.31944 0.20304 0.63561 0.0
C993 C 0.33417 0.20568 0.6624 0.0
C994 C 0.35674 0.19179 0.66893 0.0
C995 C 0.36418 0.17549 0.64876 0.0
C996 C 0.29544 0.21766 0.62782 0.0
C997 C 0.37274 0.19395 0.69732 0.0
H998 H 0.35389 0.28337 0.7063 0.0
H999 H 0.26409 0.2225 0.73649 0.0
H1000 H 0.3974 0.24783 0.66769 0.0
H1001 H 0.37066 0.25662 0.64346 0.0
H1002 H 0.39272 0.27867 0.66971 0.0
H1003 H 0.25058 0.18195 0.71821 0.0
H1004 H 0.26084 0.18208 0.68082 0.0
H1005 H 0.28837 0.1737 0.70469 0.0
H1006 H 0.31612 0.18458 0.59532 0.0
H1007 H 0.38107 0.1646 0.65392 0.0
H1008 H 0.30922 0.23806 0.62988 0.0
H1009 H 0.27179 0.21288 0.6425 0.0
H1010 H 0.28666 0.21381 0.60595 0.0
H1011 H 0.38833 0.21373 0.70136 0.0
H1012 H 0.39018 0.18214 0.69891 0.0
H1013 H 0.3515 0.18821 0.71418 0.0
C1014 C 0.48312 0.8489 0.24528 0.0
C1015 C 0.4673 0.82701 0.26119 0.0
C1016 C 0.48697 0.84804 0.21582 0.0
C1017 C 0.47471 0.82471 0.20191 0.0
C1018 C 0.45941 0.80246 0.21786 0.0
C1019 C 0.45611 0.80387 0.24735 0.0
C1020 C 0.50383 0.87213 0.19956 0.0
C1021 C 0.4463 0.77721 0.20376 0.0
C1022 C 0.45221 0.82626 0.12545 0.0
C1023 C 0.48209 0.82322 0.11138 0.0
C1024 C 0.4493 0.82646 0.15499 0.0
C1025 C 0.47713 0.82375 0.17062 0.0
C1026 C 0.50749 0.82076 0.15632 0.0
C1027 C 0.50955 0.82049 0.12677 0.0
C1028 C 0.41651 0.82963 0.16947 0.0
C1029 C 0.53772 0.81779 0.17215 0.0
H1030 H 0.49209 0.86684 0.25586 0.0
H1031 H 0.44531 0.78679 0.25951 0.0
H1032 H 0.52676 0.87072 0.1863 0.0
H1033 H 0.48469 0.87538 0.1852 0.0
H1034 H 0.51292 0.88864 0.2136 0.0
H1035 H 0.43487 0.76171 0.21917 0.0
H1036 H 0.42586 0.77721 0.18883 0.0
H1037 H 0.46829 0.77341 0.19134 0.0
H1038 H 0.43117 0.82846 0.11329 0.0
H1039 H 0.53258 0.81808 0.11561 0.0
H1040 H 0.42368 0.84686 0.18249 0.0
H1041 H 0.40382 0.81357 0.18387 0.0
H1042 H 0.397 0.83096 0.15425 0.0
H1043 H 0.54661 0.8331 0.18771 0.0
H1044 H 0.56063 0.81787 0.15787 0.0
H1045 H 0.52882 0.79985 0.18404 0.0
C1046 C 0.84432 0.18897 0.34668 0.0
C1047 C 0.87833 0.19919 0.33408 0.0
C1048 C 0.83725 0.17044 0.36767 0.0
C1049 C 0.86485 0.16191 0.37631 0.0
C1050 C 0.8994 0.17255 0.36418 0.0
C1051 C 0.90572 0.19106 0.34321 0.0
C1052 C 0.80008 0.15958 0.38018 0.0
C1053 C 0.92952 0.16399 0.37289 0.0
C1054 C 0.85213 0.12701 0.44606 0.0
C1055 C 0.842 0.10205 0.43709 0.0
C1056 C 0.85984 0.14675 0.4265 0.0
C1057 C 0.8573 0.14126 0.39736 0.0
C1058 C 0.84726 0.11597 0.38829 0.0
C1059 C 0.83975 0.09663 0.40833 0.0
C1060 C 0.87048 0.17343 0.43699 0.0
C1061 C 0.84426 0.10934 0.35744 0.0
H1062 H 0.82299 0.19514 0.33979 0.0
H1063 H 0.93209 0.19885 0.33363 0.0
H1064 H 0.78981 0.13927 0.37537 0.0
H1065 H 0.79989 0.16144 0.40344 0.0
H1066 H 0.78188 0.1689 0.37195 0.0
H1067 H 0.95511 0.17487 0.36229 0.0
H1068 H 0.932 0.16582 0.39602 0.0
H1069 H 0.92411 0.14387 0.36769 0.0
H1070 H 0.85379 0.131 0.46842 0.0
H1071 H 0.83193 0.07722 0.40161 0.0
H1072 H 0.85142 0.18269 0.4304 0.0
H1073 H 0.89674 0.18422 0.42749 0.0
H1074 H 0.8716 0.1745 0.4603 0.0
H1075 H 0.82445 0.11663 0.3483 0.0
H1076 H 0.83642 0.08878 0.3539 0.0
H1077 H 0.86986 0.11834 0.34583 0.0
C1078 C 0.26587 0.34343 0.86258 0.0
C1079 C 0.27898 0.34654 0.83448 0.0
C1080 C 0.28772 0.34251 0.88445 0.0
C1081 C 0.32374 0.34533 0.87813 0.0
C1082 C 0.33721 0.34876 0.84979 0.0
C1083 C 0.31458 0.34916 0.82827 0.0
C1084 C 0.27221 0.33843 0.91432 0.0
C1085 C 0.37562 0.35235 0.84227 0.0
C1086 C 0.38646 0.36671 0.93757 0.0
C1087 C 0.39167 0.34422 0.94555 0.0
C1088 C 0.36482 0.36739 0.91545 0.0
C1089 C 0.34736 0.34496 0.90123 0.0
C1090 C 0.35213 0.32216 0.90931 0.0
C1091 C 0.37443 0.32209 0.93118 0.0
C1092 C 0.36065 0.39214 0.90729 0.0
C1093 C 0.33366 0.2978 0.89486 0.0
H1094 H 0.23831 0.34135 0.86742 0.0
H1095 H 0.32499 0.35219 0.80666 0.0
H1096 H 0.27639 0.32158 0.92343 0.0
H1097 H 0.28581 0.35464 0.92758 0.0
H1098 H 0.2435 0.33595 0.9156 0.0
H1099 H 0.38192 0.35474 0.81923 0.0
H1100 H 0.39243 0.36912 0.85318 0.0
H1101 H 0.38272 0.33599 0.84955 0.0
H1102 H 0.39906 0.38386 0.94878 0.0
H1103 H 0.37867 0.30469 0.93675 0.0
H1104 H 0.33263 0.39126 0.91044 0.0
H1105 H 0.3682 0.39602 0.88461 0.0
H1106 H 0.37702 0.40802 0.91977 0.0
H1107 H 0.30469 0.29412 0.89654 0.0
H1108 H 0.33959 0.28159 0.90402 0.0
H1109 H 0.34172 0.29913 0.87211 0.0
C1110 C 0.4278 0.92394 0.37672 0.0
C1111 C 0.4549 0.91578 0.38632 0.0
C1112 C 0.42061 0.94482 0.38882 0.0
C1113 C 0.44033 0.95734 0.41159 0.0
C1114 C 0.46819 0.94946 0.42098 0.0
C1115 C 0.47543 0.92897 0.40796 0.0
C1116 C 0.39136 0.9531 0.37771 0.0
C1117 C 0.48931 0.96194 0.4456 0.0
C1118 C 0.4391 0.02161 0.43662 0.0
C1119 C 0.41409 0.01526 0.4594 0.0
C1120 C 0.44704 0.00296 0.42017 0.0
C1121 C 0.43019 0.97739 0.42706 0.0
C1122 C 0.40446 0.97084 0.44961 0.0
C1123 C 0.39635 0.9898 0.46517 0.0
C1124 C 0.47399 0.01064 0.39582 0.0
C1125 C 0.38613 0.94379 0.45785 0.0
H1126 H 0.41209 0.91392 0.3598 0.0
H1127 H 0.49629 0.92264 0.41554 0.0
H1128 H 0.36921 0.94945 0.39378 0.0
H1129 H 0.40084 0.97358 0.37347 0.0
H1130 H 0.38112 0.94314 0.35806 0.0
H1131 H 0.51096 0.9542 0.4496 0.0
H1132 H 0.50088 0.98241 0.4418 0.0
H1133 H 0.47167 0.95936 0.46489 0.0
H1134 H 0.45321 0.04115 0.43203 0.0
H1135 H 0.37622 0.98458 0.48211 0.0
H1136 H 0.46321 0.00045 0.37647 0.0
H1137 H 0.49775 0.00553 0.40045 0.0
H1138 H 0.48218 0.03112 0.39155 0.0
H1139 H 0.3721 0.93323 0.4398 0.0
H1140 H 0.3668 0.94187 0.47599 0.0
H1141 H 0.40595 0.93486 0.46355 0.0
C1142 C 0.67312 0.81065 0.81071 0.0
C1143 C 0.65986 0.79057 0.79225 0.0
C1144 C 0.65898 0.81003 0.8384 0.0
C1145 C 0.63098 0.78877 0.84795 0.0
C1146 C 0.61818 0.76809 0.82975 0.0
C1147 C 0.63274 0.76925 0.80206 0.0
C1148 C 0.67332 0.83247 0.85717 0.0
C1149 C 0.58849 0.74505 0.83928 0.0
C1150 C 0.6125 0.78235 0.9272 0.0
C1151 C 0.58504 0.79263 0.93088 0.0
C1152 C 0.62719 0.78031 0.90016 0.0
C1153 C 0.614 0.78886 0.8765 0.0
C1154 C 0.58566 0.79879 0.88027 0.0
C1155 C 0.57152 0.80057 0.90751 0.0
C1156 C 0.65734 0.76962 0.89696 0.0
C1157 C 0.57089 0.80814 0.85563 0.0
H1158 H 0.69412 0.82717 0.80337 0.0
H1159 H 0.62243 0.75362 0.78797 0.0
H1160 H 0.65235 0.84099 0.86269 0.0
H1161 H 0.68157 0.82658 0.87716 0.0
H1162 H 0.69623 0.84704 0.84699 0.0
H1163 H 0.58309 0.72995 0.82322 0.0
H1164 H 0.59486 0.73764 0.85914 0.0
H1165 H 0.56406 0.75005 0.84374 0.0
H1166 H 0.62279 0.77631 0.94552 0.0
H1167 H 0.55024 0.80855 0.91069 0.0
H1168 H 0.68149 0.7843 0.88876 0.0
H1169 H 0.65123 0.75412 0.88145 0.0
H1170 H 0.66306 0.76244 0.91723 0.0
H1171 H 0.59158 0.82421 0.84546 0.0
H1172 H 0.54781 0.81426 0.86205 0.0
H1173 H 0.56276 0.7932 0.83957 0.0
loop_
_geom_bond_atom_site_label_1
_geom_bond_atom_site_label_2
_geom_bond_distance
_geom_bond_site_symmetry_2
_ccdc_geom_bond_type
O0 Cd1 2.300 . S
O0 C7 1.275 . S
Cd1 O0 2.300 . S
Cd1 O9 2.381 . S
Cd1 O10 2.378 . S
O2 Cd3 2.385 . S
O2 C7 1.255 . S
Cd3 O2 2.385 . S
Cd3 O4 2.317 . S
O4 Cd3 2.317 . S
O4 C5 1.232 . S
C5 O4 1.232 . S
C5 O6 1.218 . S
O6 C5 1.218 . S
C7 O0 1.275 . S
C7 O2 1.255 . S
C8 O9 1.258 . S
C8 O10 1.256 . S
O9 Cd1 2.381 . S
O9 C8 1.258 . S
O10 Cd1 2.378 . S
O10 C8 1.256 . S
O11 Cd12 2.300 . S
O11 C18 1.275 . S
Cd12 O11 2.300 . S
Cd12 O20 2.381 . S
Cd12 O21 2.378 . S
O13 Cd14 2.385 . S
O13 C18 1.255 . S
Cd14 O13 2.385 . S
Cd14 O15 2.317 . S
O15 Cd14 2.317 . S
O15 C16 1.232 . S
C16 O15 1.232 . S
C16 O17 1.218 . S
O17 C16 1.218 . S
C18 O11 1.275 . S
C18 O13 1.255 . S
C19 O20 1.258 . S
C19 O21 1.256 . S
O20 Cd12 2.381 . S
O20 C19 1.258 . S
O21 Cd12 2.378 . S
O21 C19 1.256 . S
O22 Cd23 2.300 . S
O22 C29 1.275 . S
Cd23 O22 2.300 . S
Cd23 O31 2.381 . S
Cd23 O32 2.378 . S
O24 Cd25 2.385 . S
O24 C29 1.255 . S
Cd25 O24 2.385 . S
Cd25 O26 2.317 . S
O26 Cd25 2.317 . S
O26 C27 1.232 . S
C27 O26 1.232 . S
C27 O28 1.218 . S
O28 C27 1.218 . S
C29 O22 1.275 . S
C29 O24 1.255 . S
C30 O31 1.258 . S
C30 O32 1.256 . S
O31 Cd23 2.381 . S
O31 C30 1.258 . S
O32 Cd23 2.378 . S
O32 C30 1.256 . S
O33 Cd34 2.300 . S
O33 C40 1.275 . S
Cd34 O33 2.300 . S
Cd34 O42 2.381 . S
Cd34 O43 2.378 . S
O35 Cd36 2.385 . S
O35 C40 1.255 . S
Cd36 O35 2.385 . S
Cd36 O37 2.317 . S
O37 Cd36 2.317 . S
O37 C38 1.232 . S
C38 O37 1.232 . S
C38 O39 1.218 . S
O39 C38 1.218 . S
C40 O33 1.275 . S
C40 O35 1.255 . S
C41 O42 1.258 . S
C41 O43 1.256 . S
O42 Cd34 2.381 . S
O42 C41 1.258 . S
O43 Cd34 2.378 . S
O43 C41 1.256 . S
O44 Cd45 2.300 . S
O44 C51 1.275 . S
Cd45 O44 2.300 . S
Cd45 O53 2.381 . S
Cd45 O54 2.378 . S
O46 Cd47 2.385 . S
O46 C51 1.255 . S
Cd47 O46 2.385 . S
Cd47 O48 2.317 . S
O48 Cd47 2.317 . S
O48 C49 1.232 . S
C49 O48 1.232 . S
C49 O50 1.218 . S
O50 C49 1.218 . S
C51 O44 1.275 . S
C51 O46 1.255 . S
C52 O53 1.258 . S
C52 O54 1.256 . S
O53 Cd45 2.381 . S
O53 C52 1.258 . S
O54 Cd45 2.378 . S
O54 C52 1.256 . S
O55 Cd56 2.300 . S
O55 C62 1.275 . S
Cd56 O55 2.300 . S
Cd56 O64 2.381 . S
Cd56 O65 2.378 . S
O57 Cd58 2.385 . S
O57 C62 1.255 . S
Cd58 O57 2.385 . S
Cd58 O59 2.317 . S
O59 Cd58 2.317 . S
O59 C60 1.232 . S
C60 O59 1.232 . S
C60 O61 1.218 . S
O61 C60 1.218 . S
C62 O55 1.275 . S
C62 O57 1.255 . S
C63 O64 1.258 . S
C63 O65 1.256 . S
O64 Cd56 2.381 . S
O64 C63 1.258 . S
O65 Cd56 2.378 . S
O65 C63 1.256 . S
O66 Cd67 2.300 . S
O66 C73 1.275 . S
Cd67 O66 2.300 . S
Cd67 O75 2.381 . S
Cd67 O76 2.378 . S
O68 Cd69 2.385 . S
O68 C73 1.255 . S
Cd69 O68 2.385 . S
Cd69 O70 2.317 . S
O70 Cd69 2.317 . S
O70 C71 1.232 . S
C71 O70 1.232 . S
C71 O72 1.218 . S
O72 C71 1.218 . S
C73 O66 1.275 . S
C73 O68 1.255 . S
C74 O75 1.258 . S
C74 O76 1.256 . S
O75 Cd67 2.381 . S
O75 C74 1.258 . S
O76 Cd67 2.378 . S
O76 C74 1.256 . S
O77 Cd78 2.300 . S
O77 C84 1.275 . S
Cd78 O77 2.300 . S
Cd78 O86 2.381 . S
Cd78 O87 2.378 . S
O79 Cd80 2.385 . S
O79 C84 1.255 . S
Cd80 O79 2.385 . S
Cd80 O81 2.317 . S
O81 Cd80 2.317 . S
O81 C82 1.232 . S
C82 O81 1.232 . S
C82 O83 1.218 . S
O83 C82 1.218 . S
C84 O77 1.275 . S
C84 O79 1.255 . S
C85 O86 1.258 . S
C85 O87 1.256 . S
O86 Cd78 2.381 . S
O86 C85 1.258 . S
O87 Cd78 2.378 . S
O87 C85 1.256 . S
C88 C89 1.443 . S
C88 N92 1.376 . S
C88 C126 1.389 . S
C89 C88 1.443 . S
C89 C90 1.340 . S
C89 H129 0.951 . S
C90 C89 1.340 . S
C90 C91 1.439 . S
C90 H130 0.950 . S
C91 C90 1.439 . S
C91 N92 1.374 . S
C91 C125 1.395 . S
N92 C88 1.376 . S
N92 C91 1.374 . S
N92 Co93 2.008 . S
Co93 N92 2.008 . S
Co93 N94 1.995 . S
Co93 N99 2.008 . S
Co93 N104 1.995 . S
Co93 N109 2.282 . S
Co93 N115 2.282 . S
N94 Co93 1.995 . S
N94 C95 1.376 . S
N94 C98 1.383 . S
C95 N94 1.376 . S
C95 C96 1.446 . S
C95 C125 1.391 . S
C96 C95 1.446 . S
C96 C97 1.339 1_455 S
C96 H131 0.949 1_455 S
C97 C96 1.339 1_655 S
C97 C98 1.439 1_655 S
C97 H132 0.950 . S
C98 N94 1.383 . S
C98 C97 1.439 1_455 S
C98 C127 1.392 . S
N99 Co93 2.008 . S
N99 C100 1.376 . S
N99 C103 1.374 . S
C100 N99 1.376 . S
C100 C101 1.443 . S
C100 C127 1.389 . S
C101 C100 1.443 . S
C101 C102 1.340 . S
C101 H133 0.947 1_455 S
C102 C101 1.340 . S
C102 C103 1.439 . S
C102 H134 0.950 . S
C103 N99 1.374 . S
C103 C102 1.439 . S
C103 C128 1.395 . S
N104 Co93 1.995 . S
N104 C105 1.376 . S
N104 C108 1.383 . S
C105 N104 1.376 . S
C105 C106 1.446 . S
C105 C128 1.391 . S
C106 C105 1.446 . S
C106 C107 1.339 . S
C106 H135 0.949 . S
C107 C106 1.339 . S
C107 C108 1.439 . S
C107 H136 0.950 . S
C108 N104 1.383 . S
C108 C107 1.439 . S
C108 C126 1.392 . S
N109 Co93 2.282 . S
N109 C112 1.332 . S
N109 C114 1.332 . S
C110 C111 1.386 . S
C110 C113 1.388 . S
C111 C110 1.386 . S
C111 C112 1.382 . S
C111 H137 0.950 . S
C112 N109 1.332 . S
C112 C111 1.382 . S
C112 H123 0.952 . S
C113 C110 1.388 . S
C113 C114 1.382 . S
C113 H138 0.950 . S
C114 N109 1.332 . S
C114 C113 1.382 . S
C114 H124 0.948 . S
N115 Co93 2.282 . S
N115 C119 1.347 . S
N115 C120 1.332 . S
C116 C117 1.384 1_455 S
C116 C120 1.388 . S
C116 H139 0.954 . S
C117 C116 1.384 1_655 S
C117 C118 1.386 . S
C118 C117 1.386 . S
C118 C119 1.361 1_655 S
C118 H140 0.950 . S
C119 N115 1.347 . S
C119 C118 1.361 1_455 S
C119 H121 0.952 . S
C120 N115 1.332 . S
C120 C116 1.388 . S
C120 H122 0.948 . S
H121 C119 0.952 . S
H122 C120 0.948 . S
H123 C112 0.952 . S
H124 C114 0.948 . S
C125 C91 1.395 . S
C125 C95 1.391 . S
C126 C88 1.389 . S
C126 C108 1.392 . S
C127 C98 1.392 . S
C127 C100 1.389 . S
C128 C103 1.395 . S
C128 C105 1.391 . S
H129 C89 0.951 . S
H130 C90 0.950 . S
H131 C96 0.949 1_655 S
H132 C97 0.950 . S
H133 C101 0.947 1_655 S
H134 C102 0.950 . S
H135 C106 0.949 . S
H136 C107 0.950 . S
H137 C111 0.950 . S
H138 C113 0.950 . S
H139 C116 0.954 . S
H140 C118 0.950 . S
C141 C142 1.443 . S
C141 N145 1.376 . S
C141 C179 1.389 . S
C142 C141 1.443 . S
C142 C143 1.340 . S
C142 H182 0.951 . S
C143 C142 1.340 . S
C143 C144 1.439 . S
C143 H183 0.950 . S
C144 C143 1.439 . S
C144 N145 1.374 . S
C144 C178 1.395 1_455 S
N145 C141 1.376 . S
N145 C144 1.374 . S
N145 Co146 2.008 . S
Co146 N145 2.008 . S
Co146 N147 1.995 1_455 S
Co146 N152 2.008 1_455 S
Co146 N157 1.995 . S
Co146 N162 2.282 . S
Co146 N168 2.282 1_455 S
N147 Co146 1.995 1_655 S
N147 C148 1.376 . S
N147 C151 1.383 . S
C148 N147 1.376 . S
C148 C149 1.446 . S
C148 C178 1.391 . S
C149 C148 1.446 . S
C149 C150 1.339 . S
C149 H184 0.949 . S
C150 C149 1.339 . S
C150 C151 1.439 . S
C150 H185 0.950 . S
C151 N147 1.383 . S
C151 C150 1.439 . S
C151 C180 1.392 . S
N152 Co146 2.008 1_655 S
N152 C153 1.376 . S
N152 C156 1.374 . S
C153 N152 1.376 . S
C153 C154 1.443 . S
C153 C180 1.389 . S
C154 C153 1.443 . S
C154 C155 1.340 . S
C154 H186 0.951 . S
C155 C154 1.340 . S
C155 C156 1.439 . S
C155 H187 0.950 . S
C156 N152 1.374 . S
C156 C155 1.439 . S
C156 C181 1.395 1_655 S
N157 Co146 1.995 . S
N157 C158 1.376 . S
N157 C161 1.383 . S
C158 N157 1.376 . S
C158 C159 1.446 . S
C158 C181 1.391 . S
C159 C158 1.446 . S
C159 C160 1.339 . S
C159 H188 0.949 . S
C160 C159 1.339 . S
C160 C161 1.439 . S
C160 H189 0.950 . S
C161 N157 1.383 . S
C161 C160 1.439 . S
C161 C179 1.392 . S
N162 Co146 2.282 . S
N162 C165 1.332 . S
N162 C167 1.332 . S
C163 C164 1.386 . S
C163 C166 1.388 . S
C164 C163 1.386 . S
C164 C165 1.382 . S
C164 H190 0.950 . S
C165 N162 1.332 . S
C165 C164 1.382 . S
C165 H176 0.952 . S
C166 C163 1.388 . S
C166 C167 1.382 . S
C166 H191 0.950 . S
C167 N162 1.332 . S
C167 C166 1.382 . S
C167 H177 0.948 . S
N168 Co146 2.282 1_655 S
N168 C172 1.332 . S
N168 C173 1.332 . S
C169 C170 1.388 . S
C169 C173 1.382 . S
C169 H192 0.950 . S
C170 C169 1.388 . S
C170 C171 1.386 . S
C171 C170 1.386 . S
C171 C172 1.382 . S
C171 H193 0.950 . S
C172 N168 1.332 . S
C172 C171 1.382 . S
C172 H174 0.952 . S
C173 N168 1.332 . S
C173 C169 1.382 . S
C173 H175 0.948 . S
H174 C172 0.952 . S
H175 C173 0.948 . S
H176 C165 0.952 . S
H177 C167 0.948 . S
C178 C144 1.395 1_655 S
C178 C148 1.391 . S
C179 C141 1.389 . S
C179 C161 1.392 . S
C180 C151 1.392 . S
C180 C153 1.389 . S
C181 C156 1.395 1_455 S
C181 C158 1.391 . S
H182 C142 0.951 . S
H183 C143 0.950 . S
H184 C149 0.949 . S
H185 C150 0.950 . S
H186 C154 0.951 . S
H187 C155 0.950 . S
H188 C159 0.949 . S
H189 C160 0.950 . S
H190 C164 0.950 . S
H191 C166 0.950 . S
H192 C169 0.950 . S
H193 C171 0.950 . S
C194 C195 1.443 . S
C194 N198 1.376 . S
C194 C232 1.389 . S
C195 C194 1.443 . S
C195 C196 1.340 . S
C195 H235 0.951 . S
C196 C195 1.340 . S
C196 C197 1.439 . S
C196 H236 0.950 . S
C197 C196 1.439 . S
C197 N198 1.374 . S
C197 C231 1.395 . S
N198 C194 1.376 . S
N198 C197 1.374 . S
N198 Co199 2.008 . S
Co199 N198 2.008 . S
Co199 N200 1.995 . S
Co199 N205 2.008 . S
Co199 N210 1.995 . S
Co199 N215 2.282 . S
Co199 N221 2.282 . S
N200 Co199 1.995 . S
N200 C201 1.376 . S
N200 C204 1.383 . S
C201 N200 1.376 . S
C201 C202 1.446 . S
C201 C231 1.391 . S
C202 C201 1.446 . S
C202 C203 1.339 . S
C202 H237 0.949 . S
C203 C202 1.339 . S
C203 C204 1.439 . S
C203 H238 0.950 . S
C204 N200 1.383 . S
C204 C203 1.439 . S
C204 C233 1.392 . S
N205 Co199 2.008 . S
N205 C206 1.376 . S
N205 C209 1.374 . S
C206 N205 1.376 . S
C206 C207 1.443 . S
C206 C233 1.389 . S
C207 C206 1.443 . S
C207 C208 1.340 . S
C207 H239 0.951 . S
C208 C207 1.340 . S
C208 C209 1.439 . S
C208 H240 0.950 . S
C209 N205 1.374 . S
C209 C208 1.439 . S
C209 C234 1.395 . S
N210 Co199 1.995 . S
N210 C211 1.376 . S
N210 C214 1.383 . S
C211 N210 1.376 . S
C211 C212 1.446 . S
C211 C234 1.391 . S
C212 C211 1.446 . S
C212 C213 1.339 . S
C212 H241 0.949 . S
C213 C212 1.339 . S
C213 C214 1.439 . S
C213 H242 0.950 . S
C214 N210 1.383 . S
C214 C213 1.439 . S
C214 C232 1.392 . S
N215 Co199 2.282 . S
N215 C218 1.332 . S
N215 C220 1.332 . S
C216 C217 1.386 . S
C216 C219 1.388 . S
C217 C216 1.386 . S
C217 C218 1.382 . S
C217 H243 0.950 . S
C218 N215 1.332 . S
C218 C217 1.382 . S
C218 H229 0.952 . S
C219 C216 1.388 . S
C219 C220 1.382 . S
C219 H244 0.950 . S
C220 N215 1.332 . S
C220 C219 1.382 . S
C220 H230 0.948 . S
N221 Co199 2.282 . S
N221 C225 1.332 . S
N221 C226 1.332 . S
C222 C223 1.388 . S
C222 C226 1.382 . S
C222 H245 0.950 . S
C223 C222 1.388 . S
C223 C224 1.386 . S
C224 C223 1.386 . S
C224 C225 1.382 . S
C224 H246 0.950 . S
C225 N221 1.332 . S
C225 C224 1.382 . S
C225 H227 0.952 . S
C226 N221 1.332 . S
C226 C222 1.382 . S
C226 H228 0.948 . S
H227 C225 0.952 . S
H228 C226 0.948 . S
H229 C218 0.952 . S
H230 C220 0.948 . S
C231 C197 1.395 . S
C231 C201 1.391 . S
C232 C194 1.389 . S
C232 C214 1.392 . S
C233 C204 1.392 . S
C233 C206 1.389 . S
C234 C209 1.395 . S
C234 C211 1.391 . S
H235 C195 0.951 . S
H236 C196 0.950 . S
H237 C202 0.949 . S
H238 C203 0.950 . S
H239 C207 0.951 . S
H240 C208 0.950 . S
H241 C212 0.949 . S
H242 C213 0.950 . S
H243 C217 0.950 . S
H244 C219 0.950 . S
H245 C222 0.950 . S
H246 C224 0.950 . S
C247 C248 1.443 . S
C247 N251 1.376 . S
C247 C285 1.389 . S
C248 C247 1.443 . S
C248 C249 1.340 . S
C248 H288 0.951 . S
C249 C248 1.340 . S
C249 C250 1.439 . S
C249 H289 0.950 . S
C250 C249 1.439 . S
C250 N251 1.374 . S
C250 C284 1.395 . S
N251 C247 1.376 . S
N251 C250 1.374 . S
N251 Co252 2.008 . S
Co252 N251 2.008 . S
Co252 N253 1.995 1_554 S
Co252 N258 2.008 1_554 S
Co252 N263 1.995 . S
Co252 N268 2.282 1_554 S
Co252 N274 2.282 . S
N253 Co252 1.995 1_556 S
N253 C254 1.372 1_556 S
N253 C257 1.383 . S
C254 N253 1.372 1_554 S
C254 C255 1.425 1_554 S
C254 C284 1.413 . S
C255 C254 1.425 1_556 S
C255 C256 1.339 . S
C255 H290 0.949 . S
C256 C255 1.339 . S
C256 C257 1.439 . S
C256 H291 0.950 . S
C257 N253 1.383 . S
C257 C256 1.439 . S
C257 C286 1.392 . S
N258 Co252 2.008 1_556 S
N258 C259 1.376 . S
N258 C262 1.374 . S
C259 N258 1.376 . S
C259 C260 1.443 . S
C259 C286 1.389 . S
C260 C259 1.443 . S
C260 C261 1.340 . S
C260 H292 0.951 . S
C261 C260 1.340 . S
C261 C262 1.439 . S
C261 H293 0.950 . S
C262 N258 1.374 . S
C262 C261 1.439 . S
C262 C287 1.395 1_556 S
N263 Co252 1.995 . S
N263 C264 1.376 . S
N263 C267 1.383 . S
C264 N263 1.376 . S
C264 C265 1.446 . S
C264 C287 1.391 . S
C265 C264 1.446 . S
C265 C266 1.339 . S
C265 H294 0.949 . S
C266 C265 1.339 . S
C266 C267 1.439 . S
C266 H295 0.950 . S
C267 N263 1.383 . S
C267 C266 1.439 . S
C267 C285 1.392 . S
N268 Co252 2.282 1_556 S
N268 C271 1.332 . S
N268 C273 1.332 . S
C269 C270 1.386 . S
C269 C272 1.388 . S
C270 C269 1.386 . S
C270 C271 1.382 . S
C270 H296 0.950 . S
C271 N268 1.332 . S
C271 C270 1.382 . S
C271 H282 0.952 . S
C272 C269 1.388 . S
C272 C273 1.382 . S
C272 H297 0.950 . S
C273 N268 1.332 . S
C273 C272 1.382 . S
C273 H283 0.948 . S
N274 Co252 2.282 . S
N274 C278 1.332 . S
N274 C279 1.332 . S
C275 C276 1.388 . S
C275 C279 1.382 . S
C275 H298 0.950 . S
C276 C275 1.388 . S
C276 C277 1.386 . S
C277 C276 1.386 . S
C277 C278 1.382 . S
C277 H299 0.950 . S
C278 N274 1.332 . S
C278 C277 1.382 . S
C278 H280 0.952 . S
C279 N274 1.332 . S
C279 C275 1.382 . S
C279 H281 0.948 . S
H280 C278 0.952 . S
H281 C279 0.948 . S
H282 C271 0.952 . S
H283 C273 0.948 . S
C284 C250 1.395 . S
C284 C254 1.413 . S
C285 C247 1.389 . S
C285 C267 1.392 . S
C286 C257 1.392 . S
C286 C259 1.389 . S
C287 C262 1.395 1_554 S
C287 C264 1.391 . S
H288 C248 0.951 . S
H289 C249 0.950 . S
H290 C255 0.949 . S
H291 C256 0.950 . S
H292 C260 0.951 . S
H293 C261 0.950 . S
H294 C265 0.949 . S
H295 C266 0.950 . S
H296 C270 0.950 . S
H297 C272 0.950 . S
H298 C275 0.950 . S
H299 C277 0.950 . S
C300 C301 1.443 . S
C300 N304 1.376 1_565 S
C300 C338 1.389 . S
C301 C300 1.443 . S
C301 C302 1.360 . S
C301 H341 0.951 . S
C302 C301 1.360 . S
C302 C303 1.408 1_565 S
C302 H342 0.971 1_565 S
C303 C302 1.408 1_545 S
C303 N304 1.374 . S
C303 C337 1.395 . S
N304 C300 1.376 1_545 S
N304 C303 1.374 . S
N304 Co305 2.008 . S
Co305 N304 2.008 . S
Co305 N306 1.995 . S
Co305 N311 2.008 . S
Co305 N316 1.995 1_545 S
Co305 N321 2.282 . S
Co305 N327 2.282 1_545 S
N306 Co305 1.995 . S
N306 C307 1.376 . S
N306 C310 1.383 . S
C307 N306 1.376 . S
C307 C308 1.446 . S
C307 C337 1.391 . S
C308 C307 1.446 . S
C308 C309 1.339 . S
C308 H343 0.949 . S
C309 C308 1.339 . S
C309 C310 1.439 . S
C309 H344 0.950 . S
C310 N306 1.383 . S
C310 C309 1.439 . S
C310 C339 1.392 . S
N311 Co305 2.008 . S
N311 C312 1.376 . S
N311 C315 1.374 . S
C312 N311 1.376 . S
C312 C313 1.443 . S
C312 C339 1.389 . S
C313 C312 1.443 . S
C313 C314 1.340 . S
C313 H345 0.951 . S
C314 C313 1.340 . S
C314 C315 1.439 . S
C314 H346 0.950 . S
C315 N311 1.374 . S
C315 C314 1.439 . S
C315 C340 1.395 . S
N316 Co305 1.995 1_565 S
N316 C317 1.376 . S
N316 C320 1.383 . S
C317 N316 1.376 . S
C317 C318 1.446 . S
C317 C340 1.391 1_565 S
C318 C317 1.446 . S
C318 C319 1.339 . S
C318 H347 0.949 . S
C319 C318 1.339 . S
C319 C320 1.439 . S
C319 H348 0.950 . S
C320 N316 1.383 . S
C320 C319 1.439 . S
C320 C338 1.392 . S
N321 Co305 2.282 . S
N321 C324 1.332 . S
N321 C326 1.332 . S
C322 C323 1.386 . S
C322 C325 1.388 . S
C323 C322 1.386 . S
C323 C324 1.382 . S
C323 H349 0.950 . S
C324 N321 1.332 . S
C324 C323 1.382 . S
C324 H335 0.952 . S
C325 C322 1.388 . S
C325 C326 1.382 . S
C325 H350 0.950 . S
C326 N321 1.332 . S
C326 C325 1.382 . S
C326 H336 0.948 . S
N327 Co305 2.282 1_565 S
N327 C331 1.332 . S
N327 C332 1.332 . S
C328 C329 1.388 . S
C328 C332 1.382 . S
C328 H351 0.950 . S
C329 C328 1.388 . S
C329 C330 1.386 . S
C330 C329 1.386 . S
C330 C331 1.382 . S
C330 H352 0.950 . S
C331 N327 1.332 . S
C331 C330 1.382 . S
C331 H333 0.952 1_565 S
C332 N327 1.332 . S
C332 C328 1.382 . S
C332 H334 0.948 . S
H333 C331 0.952 1_545 S
H334 C332 0.948 . S
H335 C324 0.952 . S
H336 C326 0.948 . S
C337 C303 1.395 . S
C337 C307 1.391 . S
C338 C300 1.389 . S
C338 C320 1.392 . S
C339 C310 1.392 . S
C339 C312 1.389 . S
C340 C315 1.395 . S
C340 C317 1.391 1_545 S
H341 C301 0.951 . S
H342 C302 0.971 1_545 S
H343 C308 0.949 . S
H344 C309 0.950 . S
H345 C313 0.951 . S
H346 C314 0.950 . S
H347 C318 0.949 . S
H348 C319 0.950 . S
H349 C323 0.950 . S
H350 C325 0.950 . S
H351 C328 0.950 . S
H352 C330 0.950 . S
C353 C354 1.443 . S
C353 N357 1.376 . S
C353 C391 1.389 . S
C354 C353 1.443 . S
C354 C355 1.340 . S
C354 H394 0.951 . S
C355 C354 1.340 . S
C355 C356 1.439 . S
C355 H395 0.950 . S
C356 C355 1.439 . S
C356 N357 1.374 . S
C356 C390 1.395 . S
N357 C353 1.376 . S
N357 C356 1.374 . S
N357 Co358 2.008 . S
Co358 N357 2.008 . S
Co358 N359 1.995 . S
Co358 N364 2.008 . S
Co358 N369 1.995 . S
Co358 N374 2.282 1_554 S
Co358 N380 2.282 . S
N359 Co358 1.995 . S
N359 C360 1.376 . S
N359 C363 1.383 1_554 S
C360 N359 1.376 . S
C360 C361 1.446 1_554 S
C360 C390 1.391 . S
C361 C360 1.446 1_556 S
C361 C362 1.339 . S
C361 H396 0.949 . S
C362 C361 1.339 . S
C362 C363 1.439 . S
C362 H397 0.950 . S
C363 N359 1.383 1_556 S
C363 C362 1.439 . S
C363 C392 1.392 . S
N364 Co358 2.008 . S
N364 C365 1.376 1_554 S
N364 C368 1.374 . S
C365 N364 1.376 1_556 S
C365 C366 1.443 . S
C365 C392 1.389 . S
C366 C365 1.443 . S
C366 C367 1.340 . S
C366 H398 0.951 . S
C367 C366 1.340 . S
C367 C368 1.439 1_556 S
C367 H399 0.950 . S
C368 N364 1.374 . S
C368 C367 1.439 1_554 S
C368 C393 1.395 . S
N369 Co358 1.995 . S
N369 C370 1.376 . S
N369 C373 1.383 . S
C370 N369 1.376 . S
C370 C371 1.446 . S
C370 C393 1.391 . S
C371 C370 1.446 . S
C371 C372 1.339 . S
C371 H400 0.949 . S
C372 C371 1.339 . S
C372 C373 1.439 . S
C372 H401 0.950 . S
C373 N369 1.383 . S
C373 C372 1.439 . S
C373 C391 1.392 . S
N374 Co358 2.282 1_556 S
N374 C377 1.332 . S
N374 C379 1.332 . S
C375 C376 1.386 . S
C375 C378 1.388 . S
C376 C375 1.386 . S
C376 C377 1.382 . S
C376 H402 0.950 . S
C377 N374 1.332 . S
C377 C376 1.382 . S
C377 H388 0.952 1_556 S
C378 C375 1.388 . S
C378 C379 1.382 . S
C378 H403 0.950 . S
C379 N374 1.332 . S
C379 C378 1.382 . S
C379 H389 0.948 . S
N380 Co358 2.282 . S
N380 C384 1.332 . S
N380 C385 1.332 . S
C381 C382 1.388 . S
C381 C385 1.382 . S
C381 H404 0.950 . S
C382 C381 1.388 . S
C382 C383 1.386 . S
C383 C382 1.386 . S
C383 C384 1.382 . S
C383 H405 0.950 . S
C384 N380 1.332 . S
C384 C383 1.382 . S
C384 H386 0.952 . S
C385 N380 1.332 . S
C385 C381 1.382 . S
C385 H387 0.948 . S
H386 C384 0.952 . S
H387 C385 0.948 . S
H388 C377 0.952 1_554 S
H389 C379 0.948 . S
C390 C356 1.395 . S
C390 C360 1.391 . S
C391 C353 1.389 . S
C391 C373 1.392 . S
C392 C363 1.392 . S
C392 C365 1.389 . S
C393 C368 1.395 . S
C393 C370 1.391 . S
H394 C354 0.951 . S
H395 C355 0.950 . S
H396 C361 0.949 . S
H397 C362 0.950 . S
H398 C366 0.951 . S
H399 C367 0.950 . S
H400 C371 0.949 . S
H401 C372 0.950 . S
H402 C376 0.950 . S
H403 C378 0.950 . S
H404 C381 0.950 . S
H405 C383 0.950 . S
C406 C407 1.391 . S
C406 C408 1.394 . S
C406 H422 0.931 . S
C407 C406 1.391 . S
C407 C411 1.376 . S
C408 C406 1.394 . S
C408 C409 1.369 . S
C408 C412 1.531 . S
C409 C408 1.369 . S
C409 C410 1.410 . S
C409 C417 1.503 . S
C410 C409 1.410 . S
C410 C411 1.392 . S
C410 C413 1.511 . S
C411 C407 1.376 . S
C411 C410 1.392 . S
C411 H423 0.929 . S
C412 C408 1.531 . S
C412 H424 0.960 . S
C412 H425 0.962 . S
C412 H426 0.960 . S
C413 C410 1.511 . S
C413 H427 0.961 . S
C413 H428 0.961 . S
C413 H429 0.961 . S
C414 C415 1.370 . S
C414 C416 1.363 . S
C414 H430 0.931 . S
C415 C414 1.370 . S
C415 C419 1.408 . S
C416 C414 1.363 . S
C416 C417 1.370 . S
C416 C420 1.524 . S
C417 C409 1.503 . S
C417 C416 1.370 . S
C417 C418 1.403 . S
C418 C417 1.403 . S
C418 C419 1.404 . S
C418 C421 1.539 . S
C419 C415 1.408 . S
C419 C418 1.404 . S
C419 H431 0.930 . S
C420 C416 1.524 . S
C420 H432 0.956 . S
C420 H433 0.961 . S
C420 H434 0.961 . S
C421 C418 1.539 . S
C421 H435 0.958 . S
C421 H436 0.961 . S
C421 H437 0.960 . S
H422 C406 0.931 . S
H423 C411 0.929 . S
H424 C412 0.960 . S
H425 C412 0.962 . S
H426 C412 0.960 . S
H427 C413 0.961 . S
H428 C413 0.961 . S
H429 C413 0.961 . S
H430 C414 0.931 . S
H431 C419 0.930 . S
H432 C420 0.956 . S
H433 C420 0.961 . S
H434 C420 0.961 . S
H435 C421 0.958 . S
H436 C421 0.961 . S
H437 C421 0.960 . S
C438 C439 1.391 . S
C438 C440 1.394 . S
C438 H454 0.931 . S
C439 C438 1.391 . S
C439 C443 1.376 . S
C440 C438 1.394 . S
C440 C441 1.369 . S
C440 C444 1.531 . S
C441 C440 1.369 . S
C441 C442 1.410 . S
C441 C449 1.503 . S
C442 C441 1.410 . S
C442 C443 1.392 . S
C442 C445 1.511 . S
C443 C439 1.376 . S
C443 C442 1.392 . S
C443 H455 0.929 . S
C444 C440 1.531 . S
C444 H456 0.960 . S
C444 H457 0.962 . S
C444 H458 0.960 . S
C445 C442 1.511 . S
C445 H459 0.961 . S
C445 H460 0.961 . S
C445 H461 0.961 . S
C446 C447 1.370 . S
C446 C448 1.363 . S
C446 H462 0.931 . S
C447 C446 1.370 . S
C447 C451 1.408 . S
C448 C446 1.363 . S
C448 C449 1.370 . S
C448 C452 1.524 . S
C449 C441 1.503 . S
C449 C448 1.370 . S
C449 C450 1.403 . S
C450 C449 1.403 . S
C450 C451 1.404 . S
C450 C453 1.539 . S
C451 C447 1.408 . S
C451 C450 1.404 . S
C451 H463 0.930 . S
C452 C448 1.524 . S
C452 H464 0.956 . S
C452 H465 0.961 . S
C452 H466 0.961 . S
C453 C450 1.539 . S
C453 H467 0.958 . S
C453 H468 0.961 . S
C453 H469 0.960 . S
H454 C438 0.931 . S
H455 C443 0.929 . S
H456 C444 0.960 . S
H457 C444 0.962 . S
H458 C444 0.960 . S
H459 C445 0.961 . S
H460 C445 0.961 . S
H461 C445 0.961 . S
H462 C446 0.931 . S
H463 C451 0.930 . S
H464 C452 0.956 . S
H465 C452 0.961 . S
H466 C452 0.961 . S
H467 C453 0.958 . S
H468 C453 0.961 . S
H469 C453 0.960 . S
C470 C471 1.391 . S
C470 C472 1.394 . S
C470 H486 0.931 . S
C471 C470 1.391 . S
C471 C475 1.376 . S
C472 C470 1.394 . S
C472 C473 1.369 . S
C472 C476 1.531 . S
C473 C472 1.369 . S
C473 C474 1.410 . S
C473 C481 1.503 . S
C474 C473 1.410 . S
C474 C475 1.392 . S
C474 C477 1.511 . S
C475 C471 1.376 . S
C475 C474 1.392 . S
C475 H487 0.929 . S
C476 C472 1.531 . S
C476 H488 0.960 . S
C476 H489 0.962 . S
C476 H490 0.960 . S
C477 C474 1.511 . S
C477 H491 0.961 . S
C477 H492 0.961 . S
C477 H493 0.961 . S
C478 C479 1.370 . S
C478 C480 1.363 . S
C478 H494 0.931 . S
C479 C478 1.370 . S
C479 C483 1.408 . S
C480 C478 1.363 . S
C480 C481 1.370 . S
C480 C484 1.524 . S
C481 C473 1.503 . S
C481 C480 1.370 . S
C481 C482 1.403 . S
C482 C481 1.403 . S
C482 C483 1.404 . S
C482 C485 1.539 . S
C483 C479 1.408 . S
C483 C482 1.404 . S
C483 H495 0.930 . S
C484 C480 1.524 . S
C484 H496 0.956 . S
C484 H497 0.961 . S
C484 H498 0.961 . S
C485 C482 1.539 . S
C485 H499 0.958 . S
C485 H500 0.961 . S
C485 H501 0.960 . S
H486 C470 0.931 . S
H487 C475 0.929 . S
H488 C476 0.960 . S
H489 C476 0.962 . S
H490 C476 0.960 . S
H491 C477 0.961 . S
H492 C477 0.961 . S
H493 C477 0.961 . S
H494 C478 0.931 . S
H495 C483 0.930 . S
H496 C484 0.956 . S
H497 C484 0.961 . S
H498 C484 0.961 . S
H499 C485 0.958 . S
H500 C485 0.961 . S
H501 C485 0.960 . S
C502 C503 1.391 . S
C502 C504 1.394 . S
C502 H518 0.931 . S
C503 C502 1.391 . S
C503 C507 1.376 . S
C504 C502 1.394 . S
C504 C505 1.369 . S
C504 C508 1.531 . S
C505 C504 1.369 . S
C505 C506 1.410 . S
C505 C513 1.503 . S
C506 C505 1.410 . S
C506 C507 1.392 . S
C506 C509 1.511 . S
C507 C503 1.376 . S
C507 C506 1.392 . S
C507 H519 0.929 . S
C508 C504 1.531 . S
C508 H520 0.960 . S
C508 H521 0.962 . S
C508 H522 0.960 . S
C509 C506 1.511 . S
C509 H523 0.961 . S
C509 H524 0.961 . S
C509 H525 0.961 . S
C510 C511 1.370 . S
C510 C512 1.363 . S
C510 H526 0.931 . S
C511 C510 1.370 . S
C511 C515 1.408 . S
C512 C510 1.363 . S
C512 C513 1.370 . S
C512 C516 1.524 . S
C513 C505 1.503 . S
C513 C512 1.370 . S
C513 C514 1.403 . S
C514 C513 1.403 . S
C514 C515 1.404 . S
C514 C517 1.539 . S
C515 C511 1.408 . S
C515 C514 1.404 . S
C515 H527 0.930 . S
C516 C512 1.524 . S
C516 H528 0.956 . S
C516 H529 0.961 . S
C516 H530 0.961 . S
C517 C514 1.539 . S
C517 H531 0.958 . S
C517 H532 0.961 . S
C517 H533 0.960 . S
H518 C502 0.931 . S
H519 C507 0.929 . S
H520 C508 0.960 . S
H521 C508 0.962 . S
H522 C508 0.960 . S
H523 C509 0.961 . S
H524 C509 0.961 . S
H525 C509 0.961 . S
H526 C510 0.931 . S
H527 C515 0.930 . S
H528 C516 0.956 . S
H529 C516 0.961 . S
H530 C516 0.961 . S
H531 C517 0.958 . S
H532 C517 0.961 . S
H533 C517 0.960 . S
C534 C535 1.391 . S
C534 C536 1.394 . S
C534 H550 0.931 . S
C535 C534 1.391 . S
C535 C539 1.376 . S
C536 C534 1.394 . S
C536 C537 1.369 . S
C536 C540 1.531 . S
C537 C536 1.369 . S
C537 C538 1.410 . S
C537 C545 1.503 . S
C538 C537 1.410 . S
C538 C539 1.392 . S
C538 C541 1.511 . S
C539 C535 1.376 . S
C539 C538 1.392 . S
C539 H551 0.929 . S
C540 C536 1.531 . S
C540 H552 0.960 . S
C540 H553 0.962 . S
C540 H554 0.960 . S
C541 C538 1.511 . S
C541 H555 0.961 . S
C541 H556 0.961 . S
C541 H557 0.961 . S
C542 C543 1.370 . S
C542 C544 1.363 . S
C542 H558 0.931 . S
C543 C542 1.370 . S
C543 C547 1.408 . S
C544 C542 1.363 . S
C544 C545 1.370 . S
C544 C548 1.524 . S
C545 C537 1.503 . S
C545 C544 1.370 . S
C545 C546 1.403 . S
C546 C545 1.403 . S
C546 C547 1.404 . S
C546 C549 1.539 . S
C547 C543 1.408 . S
C547 C546 1.404 . S
C547 H559 0.930 . S
C548 C544 1.524 . S
C548 H560 0.956 . S
C548 H561 0.961 . S
C548 H562 0.961 . S
C549 C546 1.539 . S
C549 H563 0.958 . S
C549 H564 0.961 . S
C549 H565 0.960 . S
H550 C534 0.931 . S
H551 C539 0.929 . S
H552 C540 0.960 . S
H553 C540 0.962 . S
H554 C540 0.960 . S
H555 C541 0.961 . S
H556 C541 0.961 . S
H557 C541 0.961 . S
H558 C542 0.931 . S
H559 C547 0.930 . S
H560 C548 0.956 . S
H561 C548 0.961 . S
H562 C548 0.961 . S
H563 C549 0.958 . S
H564 C549 0.961 . S
H565 C549 0.960 . S
C566 C567 1.391 . S
C566 C568 1.394 . S
C566 H582 0.931 . S
C567 C566 1.391 . S
C567 C571 1.376 . S
C568 C566 1.394 . S
C568 C569 1.369 . S
C568 C572 1.531 . S
C569 C568 1.369 . S
C569 C570 1.410 . S
C569 C577 1.503 . S
C570 C569 1.410 . S
C570 C571 1.392 . S
C570 C573 1.511 . S
C571 C567 1.376 . S
C571 C570 1.392 . S
C571 H583 0.929 . S
C572 C568 1.531 . S
C572 H584 0.960 . S
C572 H585 0.962 . S
C572 H586 0.960 . S
C573 C570 1.511 . S
C573 H587 0.961 . S
C573 H588 0.961 . S
C573 H589 0.961 . S
C574 C575 1.370 . S
C574 C576 1.363 . S
C574 H590 0.931 . S
C575 C574 1.370 . S
C575 C579 1.408 . S
C576 C574 1.363 . S
C576 C577 1.370 . S
C576 C580 1.524 . S
C577 C569 1.503 . S
C577 C576 1.370 . S
C577 C578 1.403 . S
C578 C577 1.403 . S
C578 C579 1.404 . S
C578 C581 1.539 . S
C579 C575 1.408 . S
C579 C578 1.404 . S
C579 H591 0.930 . S
C580 C576 1.524 . S
C580 H592 0.956 . S
C580 H593 0.961 . S
C580 H594 0.961 . S
C581 C578 1.539 . S
C581 H595 0.958 . S
C581 H596 0.961 . S
C581 H597 0.960 . S
H582 C566 0.931 . S
H583 C571 0.929 . S
H584 C572 0.960 . S
H585 C572 0.962 . S
H586 C572 0.960 . S
H587 C573 0.961 . S
H588 C573 0.961 . S
H589 C573 0.961 . S
H590 C574 0.931 . S
H591 C579 0.930 . S
H592 C580 0.956 . S
H593 C580 0.961 . S
H594 C580 0.961 . S
H595 C581 0.958 . S
H596 C581 0.961 . S
H597 C581 0.960 . S
C598 C599 1.391 . S
C598 C600 1.394 . S
C598 H614 0.931 . S
C599 C598 1.391 . S
C599 C603 1.376 . S
C600 C598 1.394 . S
C600 C601 1.369 . S
C600 C604 1.531 . S
C601 C600 1.369 . S
C601 C602 1.410 . S
C601 C609 1.503 . S
C602 C601 1.410 . S
C602 C603 1.392 . S
C602 C605 1.511 . S
C603 C599 1.376 . S
C603 C602 1.392 . S
C603 H615 0.929 . S
C604 C600 1.531 . S
C604 H616 0.960 . S
C604 H617 0.962 . S
C604 H618 0.960 . S
C605 C602 1.511 . S
C605 H619 0.961 . S
C605 H620 0.961 . S
C605 H621 0.961 . S
C606 C607 1.370 . S
C606 C608 1.363 . S
C606 H622 0.931 . S
C607 C606 1.370 . S
C607 C611 1.408 . S
C608 C606 1.363 . S
C608 C609 1.370 . S
C608 C612 1.524 . S
C609 C601 1.503 . S
C609 C608 1.370 . S
C609 C610 1.403 . S
C610 C609 1.403 . S
C610 C611 1.404 . S
C610 C613 1.539 . S
C611 C607 1.408 . S
C611 C610 1.404 . S
C611 H623 0.930 . S
C612 C608 1.524 . S
C612 H624 0.956 . S
C612 H625 0.961 . S
C612 H626 0.961 . S
C613 C610 1.539 . S
C613 H627 0.958 . S
C613 H628 0.961 . S
C613 H629 0.960 . S
H614 C598 0.931 . S
H615 C603 0.929 . S
H616 C604 0.960 . S
H617 C604 0.962 . S
H618 C604 0.960 . S
H619 C605 0.961 . S
H620 C605 0.961 . S
H621 C605 0.961 . S
H622 C606 0.931 . S
H623 C611 0.930 . S
H624 C612 0.956 . S
H625 C612 0.961 . S
H626 C612 0.961 . S
H627 C613 0.958 . S
H628 C613 0.961 . S
H629 C613 0.960 . S
C630 C631 1.391 . S
C630 C632 1.394 . S
C630 H646 0.931 . S
C631 C630 1.391 . S
C631 C635 1.376 . S
C632 C630 1.394 . S
C632 C633 1.369 . S
C632 C636 1.531 . S
C633 C632 1.369 . S
C633 C634 1.410 . S
C633 C641 1.503 . S
C634 C633 1.410 . S
C634 C635 1.392 . S
C634 C637 1.511 . S
C635 C631 1.376 . S
C635 C634 1.392 . S
C635 H647 0.929 . S
C636 C632 1.531 . S
C636 H648 0.960 . S
C636 H649 0.962 . S
C636 H650 0.960 . S
C637 C634 1.511 . S
C637 H651 0.961 . S
C637 H652 0.961 . S
C637 H653 0.961 . S
C638 C639 1.370 . S
C638 C640 1.363 . S
C638 H654 0.931 . S
C639 C638 1.370 . S
C639 C643 1.408 . S
C640 C638 1.363 . S
C640 C641 1.370 . S
C640 C644 1.524 . S
C641 C633 1.503 . S
C641 C640 1.370 . S
C641 C642 1.403 . S
C642 C641 1.403 . S
C642 C643 1.404 . S
C642 C645 1.539 . S
C643 C639 1.408 . S
C643 C642 1.404 . S
C643 H655 0.930 . S
C644 C640 1.524 . S
C644 H656 0.956 . S
C644 H657 0.961 . S
C644 H658 0.961 . S
C645 C642 1.539 . S
C645 H659 0.958 . S
C645 H660 0.961 . S
C645 H661 0.960 . S
H646 C630 0.931 . S
H647 C635 0.929 . S
H648 C636 0.960 . S
H649 C636 0.962 . S
H650 C636 0.960 . S
H651 C637 0.961 . S
H652 C637 0.961 . S
H653 C637 0.961 . S
H654 C638 0.931 . S
H655 C643 0.930 . S
H656 C644 0.956 . S
H657 C644 0.961 . S
H658 C644 0.961 . S
H659 C645 0.958 . S
H660 C645 0.961 . S
H661 C645 0.960 . S
C662 C663 1.391 . S
C662 C664 1.394 . S
C662 H678 0.931 . S
C663 C662 1.391 . S
C663 C667 1.376 . S
C664 C662 1.394 . S
C664 C665 1.369 . S
C664 C668 1.531 . S
C665 C664 1.369 . S
C665 C666 1.410 . S
C665 C673 1.503 1_565 S
C666 C665 1.410 . S
C666 C667 1.392 . S
C666 C669 1.511 1_565 S
C667 C663 1.376 . S
C667 C666 1.392 . S
C667 H679 0.929 . S
C668 C664 1.531 . S
C668 H680 0.960 . S
C668 H681 0.962 . S
C668 H682 0.960 . S
C669 C666 1.511 1_545 S
C669 H683 0.958 . S
C669 H684 0.961 . S
C669 H685 0.961 . S
C670 C671 1.370 . S
C670 C672 1.363 . S
C670 H686 0.931 . S
C671 C670 1.370 . S
C671 C675 1.408 . S
C672 C670 1.363 . S
C672 C673 1.370 . S
C672 C676 1.524 1_545 S
C673 C665 1.503 1_545 S
C673 C672 1.370 . S
C673 C674 1.403 . S
C674 C673 1.403 . S
C674 C675 1.404 . S
C674 C677 1.539 . S
C675 C671 1.408 . S
C675 C674 1.404 . S
C675 H687 0.930 . S
C676 C672 1.524 1_565 S
C676 H688 0.956 . S
C676 H689 0.961 . S
C676 H690 0.961 . S
C677 C674 1.539 . S
C677 H691 0.958 . S
C677 H692 0.961 . S
C677 H693 0.960 . S
H678 C662 0.931 . S
H679 C667 0.929 . S
H680 C668 0.960 . S
H681 C668 0.962 . S
H682 C668 0.960 . S
H683 C669 0.958 . S
H684 C669 0.961 . S
H685 C669 0.961 . S
H686 C670 0.931 . S
H687 C675 0.930 . S
H688 C676 0.956 . S
H689 C676 0.961 . S
H690 C676 0.961 . S
H691 C677 0.958 . S
H692 C677 0.961 . S
H693 C677 0.960 . S
C694 C695 1.391 . S
C694 C696 1.394 . S
C694 H710 0.931 . S
C695 C694 1.391 . S
C695 C699 1.376 . S
C696 C694 1.394 . S
C696 C697 1.369 . S
C696 C700 1.531 . S
C697 C696 1.369 . S
C697 C698 1.410 . S
C697 C705 1.503 . S
C698 C697 1.410 . S
C698 C699 1.392 . S
C698 C701 1.511 . S
C699 C695 1.376 . S
C699 C698 1.392 . S
C699 H711 0.929 . S
C700 C696 1.531 . S
C700 H712 0.960 . S
C700 H713 0.962 . S
C700 H714 0.960 . S
C701 C698 1.511 . S
C701 H715 0.961 . S
C701 H716 0.961 . S
C701 H717 0.961 . S
C702 C703 1.370 . S
C702 C704 1.363 . S
C702 H718 0.931 . S
C703 C702 1.370 . S
C703 C707 1.408 . S
C704 C702 1.363 . S
C704 C705 1.370 . S
C704 C708 1.524 . S
C705 C697 1.503 . S
C705 C704 1.370 . S
C705 C706 1.403 . S
C706 C705 1.403 . S
C706 C707 1.404 . S
C706 C709 1.539 . S
C707 C703 1.408 . S
C707 C706 1.404 . S
C707 H719 0.930 . S
C708 C704 1.524 . S
C708 H720 0.956 . S
C708 H721 0.961 . S
C708 H722 0.961 . S
C709 C706 1.539 . S
C709 H723 0.958 . S
C709 H724 0.961 . S
C709 H725 0.960 . S
H710 C694 0.931 . S
H711 C699 0.929 . S
H712 C700 0.960 . S
H713 C700 0.962 . S
H714 C700 0.960 . S
H715 C701 0.961 . S
H716 C701 0.961 . S
H717 C701 0.961 . S
H718 C702 0.931 . S
H719 C707 0.930 . S
H720 C708 0.956 . S
H721 C708 0.961 . S
H722 C708 0.961 . S
H723 C709 0.958 . S
H724 C709 0.961 . S
H725 C709 0.960 . S
C726 C727 1.391 . S
C726 C728 1.394 . S
C726 H742 0.931 . S
C727 C726 1.391 . S
C727 C731 1.376 . S
C728 C726 1.394 . S
C728 C729 1.369 . S
C728 C732 1.531 . S
C729 C728 1.369 . S
C729 C730 1.410 . S
C729 C737 1.503 . S
C730 C729 1.410 . S
C730 C731 1.392 . S
C730 C733 1.511 . S
C731 C727 1.376 . S
C731 C730 1.392 . S
C731 H743 0.929 . S
C732 C728 1.531 . S
C732 H744 0.960 . S
C732 H745 0.962 . S
C732 H746 0.960 . S
C733 C730 1.511 . S
C733 H747 0.961 . S
C733 H748 0.961 . S
C733 H749 0.961 . S
C734 C735 1.370 . S
C734 C736 1.363 . S
C734 H750 0.931 . S
C735 C734 1.370 . S
C735 C739 1.408 . S
C736 C734 1.363 . S
C736 C737 1.370 . S
C736 C740 1.524 . S
C737 C729 1.503 . S
C737 C736 1.370 . S
C737 C738 1.403 . S
C738 C737 1.403 . S
C738 C739 1.404 . S
C738 C741 1.539 . S
C739 C735 1.408 . S
C739 C738 1.404 . S
C739 H751 0.930 . S
C740 C736 1.524 . S
C740 H752 0.956 . S
C740 H753 0.961 . S
C740 H754 0.961 . S
C741 C738 1.539 . S
C741 H755 0.958 . S
C741 H756 0.961 . S
C741 H757 0.960 . S
H742 C726 0.931 . S
H743 C731 0.929 . S
H744 C732 0.960 . S
H745 C732 0.962 . S
H746 C732 0.960 . S
H747 C733 0.961 . S
H748 C733 0.961 . S
H749 C733 0.961 . S
H750 C734 0.931 . S
H751 C739 0.930 . S
H752 C740 0.956 . S
H753 C740 0.961 . S
H754 C740 0.961 . S
H755 C741 0.958 . S
H756 C741 0.961 . S
H757 C741 0.960 . S
C758 C759 1.391 . S
C758 C760 1.394 . S
C758 H774 0.931 . S
C759 C758 1.391 . S
C759 C763 1.376 . S
C760 C758 1.394 . S
C760 C761 1.369 . S
C760 C764 1.531 . S
C761 C760 1.369 . S
C761 C762 1.410 . S
C761 C769 1.503 . S
C762 C761 1.410 . S
C762 C763 1.392 . S
C762 C765 1.511 . S
C763 C759 1.376 . S
C763 C762 1.392 . S
C763 H775 0.929 . S
C764 C760 1.531 . S
C764 H776 0.960 . S
C764 H777 0.962 . S
C764 H778 0.960 . S
C765 C762 1.511 . S
C765 H779 0.961 . S
C765 H780 0.961 . S
C765 H781 0.961 . S
C766 C767 1.370 . S
C766 C768 1.363 . S
C766 H782 0.931 . S
C767 C766 1.370 . S
C767 C771 1.408 . S
C768 C766 1.363 . S
C768 C769 1.370 . S
C768 C772 1.524 . S
C769 C761 1.503 . S
C769 C768 1.370 . S
C769 C770 1.403 . S
C770 C769 1.403 . S
C770 C771 1.404 . S
C770 C773 1.539 . S
C771 C767 1.408 . S
C771 C770 1.404 . S
C771 H783 0.930 . S
C772 C768 1.524 . S
C772 H784 0.956 . S
C772 H785 0.961 . S
C772 H786 0.961 . S
C773 C770 1.539 . S
C773 H787 0.958 . S
C773 H788 0.961 . S
C773 H789 0.960 . S
H774 C758 0.931 . S
H775 C763 0.929 . S
H776 C764 0.960 . S
H777 C764 0.962 . S
H778 C764 0.960 . S
H779 C765 0.961 . S
H780 C765 0.961 . S
H781 C765 0.961 . S
H782 C766 0.931 . S
H783 C771 0.930 . S
H784 C772 0.956 . S
H785 C772 0.961 . S
H786 C772 0.961 . S
H787 C773 0.958 . S
H788 C773 0.961 . S
H789 C773 0.960 . S
C790 C791 1.391 . S
C790 C792 1.394 . S
C790 H806 0.931 . S
C791 C790 1.391 . S
C791 C795 1.376 . S
C792 C790 1.394 . S
C792 C793 1.369 . S
C792 C796 1.531 . S
C793 C792 1.369 . S
C793 C794 1.410 . S
C793 C801 1.503 . S
C794 C793 1.410 . S
C794 C795 1.392 . S
C794 C797 1.511 . S
C795 C791 1.376 . S
C795 C794 1.392 . S
C795 H807 0.929 . S
C796 C792 1.531 . S
C796 H808 0.960 . S
C796 H809 0.962 . S
C796 H810 0.960 . S
C797 C794 1.511 . S
C797 H811 0.961 . S
C797 H812 0.961 . S
C797 H813 0.961 . S
C798 C799 1.370 . S
C798 C800 1.363 . S
C798 H814 0.931 . S
C799 C798 1.370 . S
C799 C803 1.408 . S
C800 C798 1.363 . S
C800 C801 1.370 . S
C800 C804 1.524 . S
C801 C793 1.503 . S
C801 C800 1.370 . S
C801 C802 1.403 . S
C802 C801 1.403 . S
C802 C803 1.404 . S
C802 C805 1.539 . S
C803 C799 1.408 . S
C803 C802 1.404 . S
C803 H815 0.930 . S
C804 C800 1.524 . S
C804 H816 0.956 . S
C804 H817 0.961 . S
C804 H818 0.961 . S
C805 C802 1.539 . S
C805 H819 0.958 . S
C805 H820 0.961 . S
C805 H821 0.960 . S
H806 C790 0.931 . S
H807 C795 0.929 . S
H808 C796 0.960 . S
H809 C796 0.962 . S
H810 C796 0.960 . S
H811 C797 0.961 . S
H812 C797 0.961 . S
H813 C797 0.961 . S
H814 C798 0.931 . S
H815 C803 0.930 . S
H816 C804 0.956 . S
H817 C804 0.961 . S
H818 C804 0.961 . S
H819 C805 0.958 . S
H820 C805 0.961 . S
H821 C805 0.960 . S
C822 C823 1.391 . S
C822 C824 1.394 . S
C822 H838 0.931 . S
C823 C822 1.391 . S
C823 C827 1.376 . S
C824 C822 1.394 . S
C824 C825 1.369 . S
C824 C828 1.531 . S
C825 C824 1.369 . S
C825 C826 1.410 . S
C825 C833 1.503 . S
C826 C825 1.410 . S
C826 C827 1.392 . S
C826 C829 1.511 . S
C827 C823 1.376 . S
C827 C826 1.392 . S
C827 H839 0.929 . S
C828 C824 1.531 . S
C828 H840 0.960 . S
C828 H841 0.962 . S
C828 H842 0.960 . S
C829 C826 1.511 . S
C829 H843 0.961 . S
C829 H844 0.961 . S
C829 H845 0.961 . S
C830 C831 1.370 . S
C830 C832 1.363 . S
C830 H846 0.931 1_655 S
C831 C830 1.370 . S
C831 C835 1.408 . S
C832 C830 1.363 . S
C832 C833 1.370 . S
C832 C836 1.524 . S
C833 C825 1.503 . S
C833 C832 1.370 . S
C833 C834 1.403 . S
C834 C833 1.403 . S
C834 C835 1.404 . S
C834 C837 1.539 . S
C835 C831 1.408 . S
C835 C834 1.404 . S
C835 H847 0.930 . S
C836 C832 1.524 . S
C836 H848 0.956 . S
C836 H849 0.961 . S
C836 H850 0.961 . S
C837 C834 1.539 . S
C837 H851 0.958 . S
C837 H852 0.961 . S
C837 H853 0.960 . S
H838 C822 0.931 . S
H839 C827 0.929 . S
H840 C828 0.960 . S
H841 C828 0.962 . S
H842 C828 0.960 . S
H843 C829 0.961 . S
H844 C829 0.961 . S
H845 C829 0.961 . S
H846 C830 0.931 1_455 S
H847 C835 0.930 . S
H848 C836 0.956 . S
H849 C836 0.961 . S
H850 C836 0.961 . S
H851 C837 0.958 . S
H852 C837 0.961 . S
H853 C837 0.960 . S
C854 C855 1.391 . S
C854 C856 1.394 . S
C854 H870 0.931 . S
C855 C854 1.391 . S
C855 C859 1.376 . S
C856 C854 1.394 . S
C856 C857 1.369 . S
C856 C860 1.531 . S
C857 C856 1.369 . S
C857 C858 1.410 . S
C857 C865 1.503 . S
C858 C857 1.410 . S
C858 C859 1.392 . S
C858 C861 1.511 . S
C859 C855 1.376 . S
C859 C858 1.392 . S
C859 H871 0.929 . S
C860 C856 1.531 . S
C860 H872 0.960 . S
C860 H873 0.962 . S
C860 H874 0.960 . S
C861 C858 1.511 . S
C861 H875 0.961 . S
C861 H876 0.961 . S
C861 H877 0.961 . S
C862 C863 1.370 . S
C862 C864 1.363 . S
C862 H878 0.931 . S
C863 C862 1.370 . S
C863 C867 1.408 . S
C864 C862 1.363 . S
C864 C865 1.370 . S
C864 C868 1.524 . S
C865 C857 1.503 . S
C865 C864 1.370 . S
C865 C866 1.403 . S
C866 C865 1.403 . S
C866 C867 1.404 . S
C866 C869 1.539 . S
C867 C863 1.408 . S
C867 C866 1.404 . S
C867 H879 0.930 . S
C868 C864 1.524 . S
C868 H880 0.956 . S
C868 H881 0.961 . S
C868 H882 0.961 . S
C869 C866 1.539 . S
C869 H883 0.958 . S
C869 H884 0.961 . S
C869 H885 0.960 . S
H870 C854 0.931 . S
H871 C859 0.929 . S
H872 C860 0.960 . S
H873 C860 0.962 . S
H874 C860 0.960 . S
H875 C861 0.961 . S
H876 C861 0.961 . S
H877 C861 0.961 . S
H878 C862 0.931 . S
H879 C867 0.930 . S
H880 C868 0.956 . S
H881 C868 0.961 . S
H882 C868 0.961 . S
H883 C869 0.958 . S
H884 C869 0.961 . S
H885 C869 0.960 . S
C886 C887 1.391 . S
C886 C888 1.394 . S
C886 H902 0.931 . S
C887 C886 1.391 . S
C887 C891 1.376 . S
C888 C886 1.394 . S
C888 C889 1.369 . S
C888 C892 1.531 . S
C889 C888 1.369 . S
C889 C890 1.410 . S
C889 C897 1.503 . S
C890 C889 1.410 . S
C890 C891 1.392 . S
C890 C893 1.511 . S
C891 C887 1.376 . S
C891 C890 1.392 . S
C891 H903 0.929 . S
C892 C888 1.531 . S
C892 H904 0.960 . S
C892 H905 0.962 . S
C892 H906 0.960 . S
C893 C890 1.511 . S
C893 H907 0.961 . S
C893 H908 0.961 . S
C893 H909 0.961 . S
C894 C895 1.370 . S
C894 C896 1.363 . S
C894 H910 0.931 . S
C895 C894 1.370 . S
C895 C899 1.408 . S
C896 C894 1.363 . S
C896 C897 1.370 . S
C896 C900 1.524 . S
C897 C889 1.503 . S
C897 C896 1.370 . S
C897 C898 1.403 . S
C898 C897 1.403 . S
C898 C899 1.404 . S
C898 C901 1.539 . S
C899 C895 1.408 . S
C899 C898 1.404 . S
C899 H911 0.930 . S
C900 C896 1.524 . S
C900 H912 0.956 . S
C900 H913 0.961 . S
C900 H914 0.961 . S
C901 C898 1.539 . S
C901 H915 0.958 . S
C901 H916 0.961 . S
C901 H917 0.960 . S
H902 C886 0.931 . S
H903 C891 0.929 . S
H904 C892 0.960 . S
H905 C892 0.962 . S
H906 C892 0.960 . S
H907 C893 0.961 . S
H908 C893 0.961 . S
H909 C893 0.961 . S
H910 C894 0.931 . S
H911 C899 0.930 . S
H912 C900 0.956 . S
H913 C900 0.961 . S
H914 C900 0.961 . S
H915 C901 0.958 . S
H916 C901 0.961 . S
H917 C901 0.960 . S
C918 C919 1.391 . S
C918 C920 1.394 . S
C918 H934 0.931 . S
C919 C918 1.391 . S
C919 C923 1.376 . S
C920 C918 1.394 . S
C920 C921 1.369 . S
C920 C924 1.531 . S
C921 C920 1.369 . S
C921 C922 1.410 . S
C921 C929 1.503 . S
C922 C921 1.410 . S
C922 C923 1.392 . S
C922 C925 1.511 . S
C923 C919 1.376 . S
C923 C922 1.392 . S
C923 H935 0.929 . S
C924 C920 1.531 . S
C924 H936 0.960 . S
C924 H937 0.962 . S
C924 H938 0.960 . S
C925 C922 1.511 . S
C925 H939 0.961 . S
C925 H940 0.961 . S
C925 H941 0.961 . S
C926 C927 1.370 . S
C926 C928 1.363 . S
C926 H942 0.931 . S
C927 C926 1.370 . S
C927 C931 1.408 . S
C928 C926 1.363 . S
C928 C929 1.370 . S
C928 C932 1.524 . S
C929 C921 1.503 . S
C929 C928 1.370 . S
C929 C930 1.403 . S
C930 C929 1.403 . S
C930 C931 1.404 . S
C930 C933 1.539 . S
C931 C927 1.408 . S
C931 C930 1.404 . S
C931 H943 0.930 . S
C932 C928 1.524 . S
C932 H944 0.956 . S
C932 H945 0.961 . S
C932 H946 0.961 . S
C933 C930 1.539 . S
C933 H947 0.958 . S
C933 H948 0.961 . S
C933 H949 0.960 . S
H934 C918 0.931 . S
H935 C923 0.929 . S
H936 C924 0.960 . S
H937 C924 0.962 . S
H938 C924 0.960 . S
H939 C925 0.961 . S
H940 C925 0.961 . S
H941 C925 0.961 . S
H942 C926 0.931 . S
H943 C931 0.930 . S
H944 C932 0.956 . S
H945 C932 0.961 . S
H946 C932 0.961 . S
H947 C933 0.958 . S
H948 C933 0.961 . S
H949 C933 0.960 . S
C950 C951 1.391 . S
C950 C952 1.394 . S
C950 H966 0.931 . S
C951 C950 1.391 . S
C951 C955 1.376 . S
C952 C950 1.394 . S
C952 C953 1.369 . S
C952 C956 1.531 . S
C953 C952 1.369 . S
C953 C954 1.410 . S
C953 C961 1.503 . S
C954 C953 1.410 . S
C954 C955 1.392 . S
C954 C957 1.511 . S
C955 C951 1.376 . S
C955 C954 1.392 . S
C955 H967 0.929 . S
C956 C952 1.531 . S
C956 H968 0.960 . S
C956 H969 0.962 . S
C956 H970 0.960 . S
C957 C954 1.511 . S
C957 H971 0.961 . S
C957 H972 0.961 . S
C957 H973 0.961 . S
C958 C959 1.370 . S
C958 C960 1.363 . S
C958 H974 0.931 . S
C959 C958 1.370 . S
C959 C963 1.408 . S
C960 C958 1.363 . S
C960 C961 1.370 . S
C960 C964 1.524 . S
C961 C953 1.503 . S
C961 C960 1.370 . S
C961 C962 1.403 . S
C962 C961 1.403 . S
C962 C963 1.404 . S
C962 C965 1.539 . S
C963 C959 1.408 . S
C963 C962 1.404 . S
C963 H975 0.930 . S
C964 C960 1.524 . S
C964 H976 0.956 . S
C964 H977 0.961 . S
C964 H978 0.961 . S
C965 C962 1.539 . S
C965 H979 0.958 . S
C965 H980 0.961 . S
C965 H981 0.960 . S
H966 C950 0.931 . S
H967 C955 0.929 . S
H968 C956 0.960 . S
H969 C956 0.962 . S
H970 C956 0.960 . S
H971 C957 0.961 . S
H972 C957 0.961 . S
H973 C957 0.961 . S
H974 C958 0.931 . S
H975 C963 0.930 . S
H976 C964 0.956 . S
H977 C964 0.961 . S
H978 C964 0.961 . S
H979 C965 0.958 . S
H980 C965 0.961 . S
H981 C965 0.960 . S
C982 C983 1.391 . S
C982 C984 1.394 . S
C982 H998 0.931 . S
C983 C982 1.391 . S
C983 C987 1.376 . S
C984 C982 1.394 . S
C984 C985 1.369 . S
C984 C988 1.531 . S
C985 C984 1.369 . S
C985 C986 1.410 . S
C985 C993 1.503 . S
C986 C985 1.410 . S
C986 C987 1.392 . S
C986 C989 1.511 . S
C987 C983 1.376 . S
C987 C986 1.392 . S
C987 H999 0.929 . S
C988 C984 1.531 . S
C988 H1000 0.960 . S
C988 H1001 0.962 . S
C988 H1002 0.960 . S
C989 C986 1.511 . S
C989 H1003 0.961 . S
C989 H1004 0.961 . S
C989 H1005 0.961 . S
C990 C991 1.370 . S
C990 C992 1.363 . S
C990 H1006 0.931 . S
C991 C990 1.370 . S
C991 C995 1.408 . S
C992 C990 1.363 . S
C992 C993 1.370 . S
C992 C996 1.524 . S
C993 C985 1.503 . S
C993 C992 1.370 . S
C993 C994 1.403 . S
C994 C993 1.403 . S
C994 C995 1.404 . S
C994 C997 1.539 . S
C995 C991 1.408 . S
C995 C994 1.404 . S
C995 H1007 0.930 . S
C996 C992 1.524 . S
C996 H1008 0.956 . S
C996 H1009 0.961 . S
C996 H1010 0.961 . S
C997 C994 1.539 . S
C997 H1011 0.958 . S
C997 H1012 0.961 . S
C997 H1013 0.960 . S
H998 C982 0.931 . S
H999 C987 0.929 . S
H1000 C988 0.960 . S
H1001 C988 0.962 . S
H1002 C988 0.960 . S
H1003 C989 0.961 . S
H1004 C989 0.961 . S
H1005 C989 0.961 . S
H1006 C990 0.931 . S
H1007 C995 0.930 . S
H1008 C996 0.956 . S
H1009 C996 0.961 . S
H1010 C996 0.961 . S
H1011 C997 0.958 . S
H1012 C997 0.961 . S
H1013 C997 0.960 . S
C1014 C1015 1.391 . S
C1014 C1016 1.394 . S
C1014 H1030 0.931 . S
C1015 C1014 1.391 . S
C1015 C1019 1.376 . S
C1016 C1014 1.394 . S
C1016 C1017 1.369 . S
C1016 C1020 1.531 . S
C1017 C1016 1.369 . S
C1017 C1018 1.410 . S
C1017 C1025 1.503 . S
C1018 C1017 1.410 . S
C1018 C1019 1.392 . S
C1018 C1021 1.511 . S
C1019 C1015 1.376 . S
C1019 C1018 1.392 . S
C1019 H1031 0.929 . S
C1020 C1016 1.531 . S
C1020 H1032 0.960 . S
C1020 H1033 0.962 . S
C1020 H1034 0.960 . S
C1021 C1018 1.511 . S
C1021 H1035 0.961 . S
C1021 H1036 0.961 . S
C1021 H1037 0.961 . S
C1022 C1023 1.370 . S
C1022 C1024 1.363 . S
C1022 H1038 0.931 . S
C1023 C1022 1.370 . S
C1023 C1027 1.408 . S
C1024 C1022 1.363 . S
C1024 C1025 1.370 . S
C1024 C1028 1.524 . S
C1025 C1017 1.503 . S
C1025 C1024 1.370 . S
C1025 C1026 1.403 . S
C1026 C1025 1.403 . S
C1026 C1027 1.404 . S
C1026 C1029 1.539 . S
C1027 C1023 1.408 . S
C1027 C1026 1.404 . S
C1027 H1039 0.930 . S
C1028 C1024 1.524 . S
C1028 H1040 0.956 . S
C1028 H1041 0.961 . S
C1028 H1042 0.961 . S
C1029 C1026 1.539 . S
C1029 H1043 0.958 . S
C1029 H1044 0.961 . S
C1029 H1045 0.960 . S
H1030 C1014 0.931 . S
H1031 C1019 0.929 . S
H1032 C1020 0.960 . S
H1033 C1020 0.962 . S
H1034 C1020 0.960 . S
H1035 C1021 0.961 . S
H1036 C1021 0.961 . S
H1037 C1021 0.961 . S
H1038 C1022 0.931 . S
H1039 C1027 0.930 . S
H1040 C1028 0.956 . S
H1041 C1028 0.961 . S
H1042 C1028 0.961 . S
H1043 C1029 0.958 . S
H1044 C1029 0.961 . S
H1045 C1029 0.960 . S
C1046 C1047 1.391 . S
C1046 C1048 1.394 . S
C1046 H1062 0.931 . S
C1047 C1046 1.391 . S
C1047 C1051 1.376 . S
C1048 C1046 1.394 . S
C1048 C1049 1.369 . S
C1048 C1052 1.531 . S
C1049 C1048 1.369 . S
C1049 C1050 1.410 . S
C1049 C1057 1.503 . S
C1050 C1049 1.410 . S
C1050 C1051 1.392 . S
C1050 C1053 1.511 . S
C1051 C1047 1.376 . S
C1051 C1050 1.392 . S
C1051 H1063 0.929 . S
C1052 C1048 1.531 . S
C1052 H1064 0.960 . S
C1052 H1065 0.962 . S
C1052 H1066 0.960 . S
C1053 C1050 1.511 . S
C1053 H1067 0.961 . S
C1053 H1068 0.961 . S
C1053 H1069 0.961 . S
C1054 C1055 1.370 . S
C1054 C1056 1.363 . S
C1054 H1070 0.931 . S
C1055 C1054 1.370 . S
C1055 C1059 1.408 . S
C1056 C1054 1.363 . S
C1056 C1057 1.370 . S
C1056 C1060 1.524 . S
C1057 C1049 1.503 . S
C1057 C1056 1.370 . S
C1057 C1058 1.403 . S
C1058 C1057 1.403 . S
C1058 C1059 1.404 . S
C1058 C1061 1.539 . S
C1059 C1055 1.408 . S
C1059 C1058 1.404 . S
C1059 H1071 0.930 . S
C1060 C1056 1.524 . S
C1060 H1072 0.956 . S
C1060 H1073 0.961 . S
C1060 H1074 0.961 . S
C1061 C1058 1.539 . S
C1061 H1075 0.958 . S
C1061 H1076 0.961 . S
C1061 H1077 0.960 . S
H1062 C1046 0.931 . S
H1063 C1051 0.929 . S
H1064 C1052 0.960 . S
H1065 C1052 0.962 . S
H1066 C1052 0.960 . S
H1067 C1053 0.961 . S
H1068 C1053 0.961 . S
H1069 C1053 0.961 . S
H1070 C1054 0.931 . S
H1071 C1059 0.930 . S
H1072 C1060 0.956 . S
H1073 C1060 0.961 . S
H1074 C1060 0.961 . S
H1075 C1061 0.958 . S
H1076 C1061 0.961 . S
H1077 C1061 0.960 . S
C1078 C1079 1.391 . S
C1078 C1080 1.394 . S
C1078 H1094 0.931 . S
C1079 C1078 1.391 . S
C1079 C1083 1.376 . S
C1080 C1078 1.394 . S
C1080 C1081 1.369 . S
C1080 C1084 1.531 . S
C1081 C1080 1.369 . S
C1081 C1082 1.410 . S
C1081 C1089 1.503 . S
C1082 C1081 1.410 . S
C1082 C1083 1.392 . S
C1082 C1085 1.511 . S
C1083 C1079 1.376 . S
C1083 C1082 1.392 . S
C1083 H1095 0.929 . S
C1084 C1080 1.531 . S
C1084 H1096 0.960 . S
C1084 H1097 0.962 . S
C1084 H1098 0.960 . S
C1085 C1082 1.511 . S
C1085 H1099 0.961 . S
C1085 H1100 0.961 . S
C1085 H1101 0.961 . S
C1086 C1087 1.370 . S
C1086 C1088 1.363 . S
C1086 H1102 0.931 . S
C1087 C1086 1.370 . S
C1087 C1091 1.408 . S
C1088 C1086 1.363 . S
C1088 C1089 1.370 . S
C1088 C1092 1.524 . S
C1089 C1081 1.503 . S
C1089 C1088 1.370 . S
C1089 C1090 1.403 . S
C1090 C1089 1.403 . S
C1090 C1091 1.404 . S
C1090 C1093 1.539 . S
C1091 C1087 1.408 . S
C1091 C1090 1.404 . S
C1091 H1103 0.930 . S
C1092 C1088 1.524 . S
C1092 H1104 0.956 . S
C1092 H1105 0.961 . S
C1092 H1106 0.961 . S
C1093 C1090 1.539 . S
C1093 H1107 0.958 . S
C1093 H1108 0.961 . S
C1093 H1109 0.960 . S
H1094 C1078 0.931 . S
H1095 C1083 0.929 . S
H1096 C1084 0.960 . S
H1097 C1084 0.962 . S
H1098 C1084 0.960 . S
H1099 C1085 0.961 . S
H1100 C1085 0.961 . S
H1101 C1085 0.961 . S
H1102 C1086 0.931 . S
H1103 C1091 0.930 . S
H1104 C1092 0.956 . S
H1105 C1092 0.961 . S
H1106 C1092 0.961 . S
H1107 C1093 0.958 . S
H1108 C1093 0.961 . S
H1109 C1093 0.960 . S
C1110 C1111 1.391 . S
C1110 C1112 1.394 . S
C1110 H1126 0.931 . S
C1111 C1110 1.391 . S
C1111 C1115 1.376 . S
C1112 C1110 1.394 . S
C1112 C1113 1.369 . S
C1112 C1116 1.531 . S
C1113 C1112 1.369 . S
C1113 C1114 1.410 . S
C1113 C1121 1.503 . S
C1114 C1113 1.410 . S
C1114 C1115 1.392 . S
C1114 C1117 1.511 . S
C1115 C1111 1.376 . S
C1115 C1114 1.392 . S
C1115 H1127 0.929 . S
C1116 C1112 1.531 . S
C1116 H1128 0.960 . S
C1116 H1129 0.962 . S
C1116 H1130 0.960 . S
C1117 C1114 1.511 . S
C1117 H1131 0.961 . S
C1117 H1132 0.961 . S
C1117 H1133 0.961 . S
C1118 C1119 1.370 . S
C1118 C1120 1.363 1_545 S
C1118 H1134 0.931 . S
C1119 C1118 1.370 . S
C1119 C1123 1.408 . S
C1120 C1118 1.363 1_565 S
C1120 C1121 1.370 . S
C1120 C1124 1.524 . S
C1121 C1113 1.503 . S
C1121 C1120 1.370 . S
C1121 C1122 1.403 . S
C1122 C1121 1.403 . S
C1122 C1123 1.404 1_565 S
C1122 C1125 1.539 . S
C1123 C1119 1.408 . S
C1123 C1122 1.404 1_545 S
C1123 H1135 0.930 . S
C1124 C1120 1.524 . S
C1124 H1136 0.956 . S
C1124 H1137 0.961 . S
C1124 H1138 0.961 . S
C1125 C1122 1.539 . S
C1125 H1139 0.958 . S
C1125 H1140 0.961 . S
C1125 H1141 0.960 . S
H1126 C1110 0.931 . S
H1127 C1115 0.929 . S
H1128 C1116 0.960 . S
H1129 C1116 0.962 . S
H1130 C1116 0.960 . S
H1131 C1117 0.961 . S
H1132 C1117 0.961 . S
H1133 C1117 0.961 . S
H1134 C1118 0.931 . S
H1135 C1123 0.930 . S
H1136 C1124 0.956 . S
H1137 C1124 0.961 . S
H1138 C1124 0.961 . S
H1139 C1125 0.958 . S
H1140 C1125 0.961 . S
H1141 C1125 0.960 . S
C1142 C1143 1.391 . S
C1142 C1144 1.394 . S
C1142 H1158 0.931 . S
C1143 C1142 1.391 . S
C1143 C1147 1.376 . S
C1144 C1142 1.394 . S
C1144 C1145 1.369 . S
C1144 C1148 1.531 . S
C1145 C1144 1.369 . S
C1145 C1146 1.410 . S
C1145 C1153 1.503 . S
C1146 C1145 1.410 . S
C1146 C1147 1.392 . S
C1146 C1149 1.511 . S
C1147 C1143 1.376 . S
C1147 C1146 1.392 . S
C1147 H1159 0.929 . S
C1148 C1144 1.531 . S
C1148 H1160 0.960 . S
C1148 H1161 0.962 . S
C1148 H1162 0.960 . S
C1149 C1146 1.511 . S
C1149 H1163 0.961 . S
C1149 H1164 0.961 . S
C1149 H1165 0.961 . S
C1150 C1151 1.370 . S
C1150 C1152 1.363 . S
C1150 H1166 0.931 . S
C1151 C1150 1.370 . S
C1151 C1155 1.408 . S
C1152 C1150 1.363 . S
C1152 C1153 1.370 . S
C1152 C1156 1.524 . S
C1153 C1145 1.503 . S
C1153 C1152 1.370 . S
C1153 C1154 1.403 . S
C1154 C1153 1.403 . S
C1154 C1155 1.404 . S
C1154 C1157 1.539 . S
C1155 C1151 1.408 . S
C1155 C1154 1.404 . S
C1155 H1167 0.930 . S
C1156 C1152 1.524 . S
C1156 H1168 0.956 . S
C1156 H1169 0.961 . S
C1156 H1170 0.961 . S
C1157 C1154 1.539 . S
C1157 H1171 0.958 . S
C1157 H1172 0.961 . S
C1157 H1173 0.960 . S
H1158 C1142 0.931 . S
H1159 C1147 0.929 . S
H1160 C1148 0.960 . S
H1161 C1148 0.962 . S
H1162 C1148 0.960 . S
H1163 C1149 0.961 . S
H1164 C1149 0.961 . S
H1165 C1149 0.961 . S
H1166 C1150 0.931 . S
H1167 C1155 0.930 . S
H1168 C1156 0.956 . S
H1169 C1156 0.961 . S
H1170 C1156 0.961 . S
H1171 C1157 0.958 . S
H1172 C1157 0.961 . S
H1173 C1157 0.960 . S
C415 C110 1.542 . S
C407 C5 1.361 . S
C447 C179 1.478 . S
C439 C16 1.288 . S
C479 C117 1.696 . S
C471 C30 1.690 . S
C511 C180 1.614 . S
C503 C40 1.583 . S
C543 C233 1.458 . S
C535 C8 1.449 . S
C575 C269 1.492 . S
C567 C18 1.439 . S
C599 C29 1.704 . S
C607 C329 1.751 . S
C639 C392 1.550 . S
C631 C38 1.341 . S
C671 C232 1.412 . S
C663 C19 1.425 . S
C695 C27 1.519 . S
C703 C276 1.634 . S
C735 C322 1.597 . S
C727 C41 1.569 . S
C767 C391 1.537 . S
C759 C7 1.486 . S
C791 C52 1.537 . S
C799 C170 1.567 . S
C831 C127 1.601 1_655 S
C823 C62 1.566 . S
C855 C74 1.381 . S
C863 C163 1.396 . S
C887 C82 1.147 . S
C895 C126 1.404 . S
C927 C338 1.804 . S
C919 C51 1.721 . S
C959 C382 1.589 . S
C951 C60 1.398 . S
C991 C216 1.513 . S
C983 C71 1.249 . S
C1015 C84 1.461 . S
C1023 C285 1.482 . S
C1055 C339 1.678 . S
C1047 C63 1.668 . S
C1087 C375 1.492 . S
C1079 C73 1.464 . S
C1119 C223 1.524 . S
C1111 C85 1.539 . S
C1143 C49 1.407 . S
C1151 C286 1.660 . S
