# Generated by pormake.
# Topology ibd, (4,6)-cn, num edge types: 1
# Building blocks:
#     Node 0, Type 0, BuildingBlock: CEKHIL_clean_sbu_0, # of connection points: 4
#     Node 1, Type 0, BuildingBlock: CEKHIL_clean_sbu_0, # of connection points: 4
#     Node 2, Type 0, BuildingBlock: CEKHIL_clean_sbu_0, # of connection points: 4
#     Node 3, Type 0, BuildingBlock: CEKHIL_clean_sbu_0, # of connection points: 4
#     Node 4, Type 0, BuildingBlock: CEKHIL_clean_sbu_0, # of connection points: 4
#     Node 5, Type 0, BuildingBlock: CEKHIL_clean_sbu_0, # of connection points: 4
#     Node 6, Type 0, BuildingBlock: CEKHIL_clean_sbu_0, # of connection points: 4
#     Node 7, Type 0, BuildingBlock: CEKHIL_clean_sbu_0, # of connection points: 4
#     Node 8, Type 0, BuildingBlock: CEKHIL_clean_sbu_0, # of connection points: 4
#     Node 9, Type 0, BuildingBlock: CEKHIL_clean_sbu_0, # of connection points: 4
#     Node 10, Type 0, BuildingBlock: CEKHIL_clean_sbu_0, # of connection points: 4
#     Node 11, Type 0, BuildingBlock: CEKHIL_clean_sbu_0, # of connection points: 4
#     Node 12, Type 0, BuildingBlock: CEKHIL_clean_sbu_0, # of connection points: 4
#     Node 13, Type 0, BuildingBlock: CEKHIL_clean_sbu_0, # of connection points: 4
#     Node 14, Type 0, BuildingBlock: CEKHIL_clean_sbu_0, # of connection points: 4
#     Node 15, Type 0, BuildingBlock: CEKHIL_clean_sbu_0, # of connection points: 4
#     Node 16, Type 0, BuildingBlock: CEKHIL_clean_sbu_0, # of connection points: 4
#     Node 17, Type 0, BuildingBlock: CEKHIL_clean_sbu_0, # of connection points: 4
#     Node 18, Type 0, BuildingBlock: CEKHIL_clean_sbu_0, # of connection points: 4
#     Node 19, Type 0, BuildingBlock: CEKHIL_clean_sbu_0, # of connection points: 4
#     Node 20, Type 0, BuildingBlock: CEKHIL_clean_sbu_0, # of connection points: 4
#     Node 21, Type 0, BuildingBlock: CEKHIL_clean_sbu_0, # of connection points: 4
#     Node 22, Type 0, BuildingBlock: CEKHIL_clean_sbu_0, # of connection points: 4
#     Node 23, Type 0, BuildingBlock: CEKHIL_clean_sbu_0, # of connection points: 4
#     Node 24, Type 1, BuildingBlock: OJICUG_clean_sbu_0, # of connection points: 6
#     Node 25, Type 1, BuildingBlock: OJICUG_clean_sbu_0, # of connection points: 6
#     Node 26, Type 1, BuildingBlock: OJICUG_clean_sbu_0, # of connection points: 6
#     Node 27, Type 1, BuildingBlock: OJICUG_clean_sbu_0, # of connection points: 6
#     Node 28, Type 1, BuildingBlock: OJICUG_clean_sbu_0, # of connection points: 6
#     Node 29, Type 1, BuildingBlock: OJICUG_clean_sbu_0, # of connection points: 6
#     Node 30, Type 1, BuildingBlock: OJICUG_clean_sbu_0, # of connection points: 6
#     Node 31, Type 1, BuildingBlock: OJICUG_clean_sbu_0, # of connection points: 6
#     Node 32, Type 1, BuildingBlock: OJICUG_clean_sbu_0, # of connection points: 6
#     Node 33, Type 1, BuildingBlock: OJICUG_clean_sbu_0, # of connection points: 6
#     Node 34, Type 1, BuildingBlock: OJICUG_clean_sbu_0, # of connection points: 6
#     Node 35, Type 1, BuildingBlock: OJICUG_clean_sbu_0, # of connection points: 6
#     Node 36, Type 1, BuildingBlock: OJICUG_clean_sbu_0, # of connection points: 6
#     Node 37, Type 1, BuildingBlock: OJICUG_clean_sbu_0, # of connection points: 6
#     Node 38, Type 1, BuildingBlock: OJICUG_clean_sbu_0, # of connection points: 6
#     Node 39, Type 1, BuildingBlock: OJICUG_clean_sbu_0, # of connection points: 6
#     Edge 40, Type (0, 1), BuildingBlock: UVAHIK_clean_linker_0, # of connection points: 2
#     Edge 41, Type (0, 1), BuildingBlock: UVAHIK_clean_linker_0, # of connection points: 2
#     Edge 42, Type (0, 1), BuildingBlock: UVAHIK_clean_linker_0, # of connection points: 2
#     Edge 43, Type (0, 1), BuildingBlock: UVAHIK_clean_linker_0, # of connection points: 2
#     Edge 44, Type (0, 1), BuildingBlock: UVAHIK_clean_linker_0, # of connection points: 2
#     Edge 45, Type (0, 1), BuildingBlock: UVAHIK_clean_linker_0, # of connection points: 2
#     Edge 46, Type (0, 1), BuildingBlock: UVAHIK_clean_linker_0, # of connection points: 2
#     Edge 47, Type (0, 1), BuildingBlock: UVAHIK_clean_linker_0, # of connection points: 2
#     Edge 48, Type (0, 1), BuildingBlock: UVAHIK_clean_linker_0, # of connection points: 2
#     Edge 49, Type (0, 1), BuildingBlock: UVAHIK_clean_linker_0, # of connection points: 2
#     Edge 50, Type (0, 1), BuildingBlock: UVAHIK_clean_linker_0, # of connection points: 2
#     Edge 51, Type (0, 1), BuildingBlock: UVAHIK_clean_linker_0, # of connection points: 2
#     Edge 52, Type (0, 1), BuildingBlock: UVAHIK_clean_linker_0, # of connection points: 2
#     Edge 53, Type (0, 1), BuildingBlock: UVAHIK_clean_linker_0, # of connection points: 2
#     Edge 54, Type (0, 1), BuildingBlock: UVAHIK_clean_linker_0, # of connection points: 2
#     Edge 55, Type (0, 1), BuildingBlock: UVAHIK_clean_linker_0, # of connection points: 2
#     Edge 56, Type (0, 1), BuildingBlock: UVAHIK_clean_linker_0, # of connection points: 2
#     Edge 57, Type (0, 1), BuildingBlock: UVAHIK_clean_linker_0, # of connection points: 2
#     Edge 58, Type (0, 1), BuildingBlock: UVAHIK_clean_linker_0, # of connection points: 2
#     Edge 59, Type (0, 1), BuildingBlock: UVAHIK_clean_linker_0, # of connection points: 2
#     Edge 60, Type (0, 1), BuildingBlock: UVAHIK_clean_linker_0, # of connection points: 2
#     Edge 61, Type (0, 1), BuildingBlock: UVAHIK_clean_linker_0, # of connection points: 2
#     Edge 62, Type (0, 1), BuildingBlock: UVAHIK_clean_linker_0, # of connection points: 2
#     Edge 63, Type (0, 1), BuildingBlock: UVAHIK_clean_linker_0, # of connection points: 2
#     Edge 64, Type (0, 1), BuildingBlock: UVAHIK_clean_linker_0, # of connection points: 2
#     Edge 65, Type (0, 1), BuildingBlock: UVAHIK_clean_linker_0, # of connection points: 2
#     Edge 66, Type (0, 1), BuildingBlock: UVAHIK_clean_linker_0, # of connection points: 2
#     Edge 67, Type (0, 1), BuildingBlock: UVAHIK_clean_linker_0, # of connection points: 2
#     Edge 68, Type (0, 1), BuildingBlock: UVAHIK_clean_linker_0, # of connection points: 2
#     Edge 69, Type (0, 1), BuildingBlock: UVAHIK_clean_linker_0, # of connection points: 2
#     Edge 70, Type (0, 1), BuildingBlock: UVAHIK_clean_linker_0, # of connection points: 2
#     Edge 71, Type (0, 1), BuildingBlock: UVAHIK_clean_linker_0, # of connection points: 2
#     Edge 72, Type (0, 1), BuildingBlock: UVAHIK_clean_linker_0, # of connection points: 2
#     Edge 73, Type (0, 1), BuildingBlock: UVAHIK_clean_linker_0, # of connection points: 2
#     Edge 74, Type (0, 1), BuildingBlock: UVAHIK_clean_linker_0, # of connection points: 2
#     Edge 75, Type (0, 1), BuildingBlock: UVAHIK_clean_linker_0, # of connection points: 2
#     Edge 76, Type (0, 1), BuildingBlock: UVAHIK_clean_linker_0, # of connection points: 2
#     Edge 77, Type (0, 1), BuildingBlock: UVAHIK_clean_linker_0, # of connection points: 2
#     Edge 78, Type (0, 1), BuildingBlock: UVAHIK_clean_linker_0, # of connection points: 2
#     Edge 79, Type (0, 1), BuildingBlock: UVAHIK_clean_linker_0, # of connection points: 2
#     Edge 80, Type (0, 1), BuildingBlock: UVAHIK_clean_linker_0, # of connection points: 2
#     Edge 81, Type (0, 1), BuildingBlock: UVAHIK_clean_linker_0, # of connection points: 2
#     Edge 82, Type (0, 1), BuildingBlock: UVAHIK_clean_linker_0, # of connection points: 2
#     Edge 83, Type (0, 1), BuildingBlock: UVAHIK_clean_linker_0, # of connection points: 2
#     Edge 84, Type (0, 1), BuildingBlock: UVAHIK_clean_linker_0, # of connection points: 2
#     Edge 85, Type (0, 1), BuildingBlock: UVAHIK_clean_linker_0, # of connection points: 2
#     Edge 86, Type (0, 1), BuildingBlock: UVAHIK_clean_linker_0, # of connection points: 2
#     Edge 87, Type (0, 1), BuildingBlock: UVAHIK_clean_linker_0, # of connection points: 2
#     Edge 88, Type (0, 1), BuildingBlock: UVAHIK_clean_linker_0, # of connection points: 2
#     Edge 89, Type (0, 1), BuildingBlock: UVAHIK_clean_linker_0, # of connection points: 2
#     Edge 90, Type (0, 1), BuildingBlock: UVAHIK_clean_linker_0, # of connection points: 2
#     Edge 91, Type (0, 1), BuildingBlock: UVAHIK_clean_linker_0, # of connection points: 2
#     Edge 92, Type (0, 1), BuildingBlock: UVAHIK_clean_linker_0, # of connection points: 2
#     Edge 93, Type (0, 1), BuildingBlock: UVAHIK_clean_linker_0, # of connection points: 2
#     Edge 94, Type (0, 1), BuildingBlock: UVAHIK_clean_linker_0, # of connection points: 2
#     Edge 95, Type (0, 1), BuildingBlock: UVAHIK_clean_linker_0, # of connection points: 2
#     Edge 96, Type (0, 1), BuildingBlock: UVAHIK_clean_linker_0, # of connection points: 2
#     Edge 97, Type (0, 1), BuildingBlock: UVAHIK_clean_linker_0, # of connection points: 2
#     Edge 98, Type (0, 1), BuildingBlock: UVAHIK_clean_linker_0, # of connection points: 2
#     Edge 99, Type (0, 1), BuildingBlock: UVAHIK_clean_linker_0, # of connection points: 2
#     Edge 100, Type (0, 1), BuildingBlock: UVAHIK_clean_linker_0, # of connection points: 2
#     Edge 101, Type (0, 1), BuildingBlock: UVAHIK_clean_linker_0, # of connection points: 2
#     Edge 102, Type (0, 1), BuildingBlock: UVAHIK_clean_linker_0, # of connection points: 2
#     Edge 103, Type (0, 1), BuildingBlock: UVAHIK_clean_linker_0, # of connection points: 2
#     Edge 104, Type (0, 1), BuildingBlock: UVAHIK_clean_linker_0, # of connection points: 2
#     Edge 105, Type (0, 1), BuildingBlock: UVAHIK_clean_linker_0, # of connection points: 2
#     Edge 106, Type (0, 1), BuildingBlock: UVAHIK_clean_linker_0, # of connection points: 2
#     Edge 107, Type (0, 1), BuildingBlock: UVAHIK_clean_linker_0, # of connection points: 2
#     Edge 108, Type (0, 1), BuildingBlock: UVAHIK_clean_linker_0, # of connection points: 2
#     Edge 109, Type (0, 1), BuildingBlock: UVAHIK_clean_linker_0, # of connection points: 2
#     Edge 110, Type (0, 1), BuildingBlock: UVAHIK_clean_linker_0, # of connection points: 2
#     Edge 111, Type (0, 1), BuildingBlock: UVAHIK_clean_linker_0, # of connection points: 2
#     Edge 112, Type (0, 1), BuildingBlock: UVAHIK_clean_linker_0, # of connection points: 2
#     Edge 113, Type (0, 1), BuildingBlock: UVAHIK_clean_linker_0, # of connection points: 2
#     Edge 114, Type (0, 1), BuildingBlock: UVAHIK_clean_linker_0, # of connection points: 2
#     Edge 115, Type (0, 1), BuildingBlock: UVAHIK_clean_linker_0, # of connection points: 2
#     Edge 116, Type (0, 1), BuildingBlock: UVAHIK_clean_linker_0, # of connection points: 2
#     Edge 117, Type (0, 1), BuildingBlock: UVAHIK_clean_linker_0, # of connection points: 2
#     Edge 118, Type (0, 1), BuildingBlock: UVAHIK_clean_linker_0, # of connection points: 2
#     Edge 119, Type (0, 1), BuildingBlock: UVAHIK_clean_linker_0, # of connection points: 2
#     Edge 120, Type (0, 1), BuildingBlock: UVAHIK_clean_linker_0, # of connection points: 2
#     Edge 121, Type (0, 1), BuildingBlock: UVAHIK_clean_linker_0, # of connection points: 2
#     Edge 122, Type (0, 1), BuildingBlock: UVAHIK_clean_linker_0, # of connection points: 2
#     Edge 123, Type (0, 1), BuildingBlock: UVAHIK_clean_linker_0, # of connection points: 2
#     Edge 124, Type (0, 1), BuildingBlock: UVAHIK_clean_linker_0, # of connection points: 2
#     Edge 125, Type (0, 1), BuildingBlock: UVAHIK_clean_linker_0, # of connection points: 2
#     Edge 126, Type (0, 1), BuildingBlock: UVAHIK_clean_linker_0, # of connection points: 2
#     Edge 127, Type (0, 1), BuildingBlock: UVAHIK_clean_linker_0, # of connection points: 2
#     Edge 128, Type (0, 1), BuildingBlock: UVAHIK_clean_linker_0, # of connection points: 2
#     Edge 129, Type (0, 1), BuildingBlock: UVAHIK_clean_linker_0, # of connection points: 2
#     Edge 130, Type (0, 1), BuildingBlock: UVAHIK_clean_linker_0, # of connection points: 2
#     Edge 131, Type (0, 1), BuildingBlock: UVAHIK_clean_linker_0, # of connection points: 2
#     Edge 132, Type (0, 1), BuildingBlock: UVAHIK_clean_linker_0, # of connection points: 2
#     Edge 133, Type (0, 1), BuildingBlock: UVAHIK_clean_linker_0, # of connection points: 2
#     Edge 134, Type (0, 1), BuildingBlock: UVAHIK_clean_linker_0, # of connection points: 2
#     Edge 135, Type (0, 1), BuildingBlock: UVAHIK_clean_linker_0, # of connection points: 2
# Relax obj value: 0.370
# Max RMSD: 0.284
# Mean RMSD: 0.280
data_MOF--net-ibd--node1-CEKHIL_clean_sbu_0--node2-OJICUG_clean_sbu_0--edge1-UVAHIK_clean_linker_0
_symmetry_space_group_name_H-M    P1
_symmetry_Int_Tables_number       1
_symmetry_cell_setting            triclinic
loop_
_symmetry_equiv_pos_as_xyz
'x, y, z'
_cell_length_a     62.163335
_cell_length_b     62.131916
_cell_length_c     62.111702
_cell_angle_alpha  90.238382
_cell_angle_beta   90.243578
_cell_angle_gamma 90.74314
loop_
_atom_site_label
_atom_site_type_symbol
_atom_site_fract_x
_atom_site_fract_y
_atom_site_fract_z
_atom_type_partial_charge
Co0 Co 0.98251 0.3043 0.37731 0.0
O1 O 0.96874 0.31791 0.35319 0.0
O2 O 0.95626 0.2892 0.37053 0.0
C3 C 0.99085 0.33428 0.39598 0.0
O4 O 0.99071 0.28578 0.40265 0.0
Co5 Co 0.03021 0.31066 0.39054 0.0
O6 O 0.02329 0.29324 0.41645 0.0
C7 C 0.01891 0.28462 0.3521 0.0
C8 C 0.95401 0.30293 0.35503 0.0
C9 C 0.00544 0.28298 0.41686 0.0
O10 O -0.00114 0.2855 0.35692 0.0
O11 O 0.03371 0.29466 0.36263 0.0
O12 O 0.97155 0.32597 0.39706 0.0
O13 O 0.00378 0.32524 0.38259 0.0
Co14 Co 0.00536 0.74423 0.62089 0.0
O15 O 0.99024 0.73563 0.64653 0.0
O16 O 0.00253 0.76858 0.63977 0.0
C17 C 0.98311 0.72807 0.59722 0.0
O18 O 0.02024 0.75976 0.59636 0.0
Co19 Co 0.02583 0.7116 0.5893 0.0
O20 O 0.02507 0.73639 0.56921 0.0
C21 C 0.04663 0.72082 0.63118 0.0
C22 C 0.99202 0.75567 0.65248 0.0
C23 C 0.02431 0.75555 0.57654 0.0
O24 O 0.03363 0.73644 0.63442 0.0
O25 O 0.04516 0.70803 0.61499 0.0
O26 O 0.97821 0.74664 0.60543 0.0
O27 O 7e-05 0.71911 0.60503 0.0
Co28 Co 0.54397 0.75924 0.87379 0.0
O29 O 0.54355 0.76686 0.84377 0.0
O30 O 0.52007 0.74511 0.85983 0.0
C31 C 0.5492 0.79261 0.88667 0.0
O32 O 0.53763 0.74852 0.90377 0.0
Co33 Co 0.58314 0.76533 0.90385 0.0
O34 O 0.56367 0.75662 0.92769 0.0
C35 C 0.58342 0.7314 0.87068 0.0
C36 C 0.52614 0.75505 0.8425 0.0
C37 C 0.54505 0.74914 0.92306 0.0
O38 O 0.56322 0.73431 0.86741 0.0
O39 O 0.59479 0.7434 0.88322 0.0
O40 O 0.53003 0.786 0.88117 0.0
O41 O 0.5648 0.77956 0.88277 0.0
Co42 Co 0.52388 0.24113 0.11882 0.0
O43 O 0.49987 0.2382 0.13818 0.0
O44 O 0.51894 0.26816 0.13327 0.0
C45 C 0.50786 0.22396 0.09094 0.0
O46 O 0.54857 0.25112 0.09976 0.0
Co47 Co 0.54781 0.20208 0.09929 0.0
O48 O 0.56112 0.22372 0.07999 0.0
C49 C 0.55576 0.21498 0.14461 0.0
C50 C 0.50293 0.25845 0.14267 0.0
C51 C 0.56053 0.24368 0.08468 0.0
O52 O 0.54451 0.23207 0.14215 0.0
O53 O 0.55757 0.20051 0.13001 0.0
O54 O 0.50392 0.24414 0.09463 0.0
O55 O 0.52004 0.21464 0.10483 0.0
Co56 Co 0.01578 0.73702 0.12952 0.0
O57 O 0.01828 0.75353 0.1034 0.0
O58 O 0.98759 0.74432 0.11909 0.0
C59 C 0.04143 0.7555 0.14777 0.0
O60 O 0.00617 0.72093 0.15625 0.0
Co61 Co 0.05333 0.7109 0.14939 0.0
O62 O 0.03335 0.70455 0.17324 0.0
C63 C 0.02758 0.69284 0.11299 0.0
C64 C -0.0026 0.75433 0.10357 0.0
C65 C 0.01359 0.70943 0.17168 0.0
O66 O 0.01525 0.70931 0.11266 0.0
O67 O 0.0439 0.69117 0.1255 0.0
O68 O 0.02196 0.76282 0.14659 0.0
O69 O 0.04503 0.73811 0.13706 0.0
Co70 Co 0.45878 0.73504 0.3594 0.0
O71 O 0.43648 0.74169 0.37963 0.0
O72 O 0.46334 0.76369 0.37041 0.0
C73 C 0.43654 0.72065 0.33458 0.0
O74 O 0.48386 0.73508 0.3387 0.0
Co75 Co 0.46967 0.68917 0.34436 0.0
O76 O 0.48982 0.70286 0.32371 0.0
C77 C 0.48239 0.70377 0.38791 0.0
C78 C 0.44599 0.76036 0.38155 0.0
C79 C 0.49396 0.7229 0.32551 0.0
O80 O 0.47697 0.72305 0.38314 0.0
O81 O 0.47927 0.68771 0.37524 0.0
O82 O 0.43932 0.74139 0.33583 0.0
O83 O 0.44637 0.70933 0.34891 0.0
Co84 Co 0.49894 0.23635 0.62214 0.0
O85 O 0.50524 0.24645 0.59355 0.0
O86 O 0.47306 0.23613 0.60518 0.0
C87 C 0.51746 0.26252 0.63939 0.0
O88 O 0.48537 0.22625 0.64989 0.0
Co89 Co 0.53343 0.22174 0.65483 0.0
O90 O 0.5096 0.22032 0.67594 0.0
C91 C 0.52088 0.19327 0.61851 0.0
C92 C 0.48476 0.24404 0.58977 0.0
C93 C 0.49022 0.22154 0.66938 0.0
O94 O 0.50543 0.20591 0.61346 0.0
O95 O 0.53472 0.19764 0.63328 0.0
O96 O 0.49803 0.26595 0.63251 0.0
O97 O 0.52547 0.24405 0.63459 0.0
Co98 Co 0.95676 0.21639 0.87961 0.0
O99 O 0.95363 0.21709 0.9105 0.0
O100 O 0.97461 0.2389 0.89141 0.0
C101 C 0.92178 0.21327 0.87081 0.0
O102 O 0.96403 0.22193 0.8485 0.0
Co103 Co 0.944 0.17762 0.85061 0.0
O104 O 0.95244 0.19608 0.82584 0.0
C105 C 0.98236 0.17523 0.87822 0.0
C106 C 0.96742 0.23306 0.9101 0.0
C107 C 0.96154 0.21422 0.82946 0.0
O108 O 0.9809 0.19546 0.88228 0.0
O109 O 0.96809 0.16456 0.86759 0.0
O110 O 0.93002 0.23201 0.87585 0.0
O111 O 0.93433 0.19704 0.87327 0.0
Co112 Co 0.36397 0.04173 0.23263 0.0
O113 O 0.3883 0.04387 0.21341 0.0
O114 O 0.37309 0.0135 0.22477 0.0
C115 C 0.34337 0.06627 0.21639 0.0
O116 O 0.33909 0.03203 0.2511 0.0
Co117 Co 0.34691 0.07867 0.2613 0.0
O118 O 0.32406 0.05819 0.27063 0.0
C119 C 0.38629 0.05553 0.27398 0.0
C120 C 0.38756 0.02292 0.213 0.0
C121 C 0.32498 0.03866 0.26447 0.0
O122 O 0.38359 0.04203 0.25842 0.0
O123 O 0.37444 0.07202 0.2767 0.0
O124 O 0.3444 0.04678 0.20882 0.0
O125 O 0.35598 0.07081 0.23242 0.0
Co126 Co 0.26054 0.12394 0.52843 0.0
O127 O 0.26413 0.0973 0.54351 0.0
O128 O 0.28723 0.11104 0.52001 0.0
C129 C 0.25062 0.14268 0.55769 0.0
O130 O 0.26335 0.15095 0.51039 0.0
Co131 Co 0.21737 0.1483 0.52574 0.0
O132 O 0.23417 0.17173 0.51189 0.0
C133 C 0.22443 0.10967 0.49857 0.0
C134 C 0.28253 0.09601 0.53376 0.0
C135 C 0.25328 0.16823 0.5056 0.0
O136 O 0.24426 0.10877 0.50459 0.0
O137 O 0.21106 0.12313 0.50634 0.0
O138 O 0.2709 0.13973 0.55379 0.0
O139 O 0.23723 0.13354 0.54452 0.0
Co140 Co 0.12727 -0.00233 0.73021 0.0
O141 O 0.15674 -0.00018 0.72099 0.0
O142 O 0.14249 0.97228 0.73877 0.0
C143 C 0.11235 0.00885 0.69928 0.0
O144 O 0.09796 0.98897 0.74178 0.0
Co145 Co 0.09751 0.03728 0.73306 0.0
O146 O 0.07439 0.01593 0.73936 0.0
C147 C 0.131 0.03092 0.7661 0.0
C148 C 0.15927 0.9811 0.72983 0.0
C149 C 0.07892 -0.0035 0.74382 0.0
O150 O 0.13504 0.01224 0.75818 0.0
O151 O 0.1178 0.044 0.75745 0.0
O152 O 0.11801 0.98887 0.70131 0.0
O153 O 0.11736 0.02147 0.7151 0.0
Co154 Co 0.21071 0.87867 0.01224 0.0
O155 O 0.20529 0.85594 0.03265 0.0
O156 O 0.2375 0.86718 0.02166 0.0
C157 C 0.18829 0.90224 0.02718 0.0
O158 O 0.22354 0.90145 0.99282 0.0
Co159 Co 0.17654 0.89746 0.98174 0.0
O160 O 0.19939 0.91724 0.97135 0.0
C161 C 0.19654 0.85581 0.97118 0.0
C162 C 0.22613 0.85484 0.03413 0.0
C163 C 0.21852 0.91505 0.97824 0.0
O164 O 0.20907 0.85763 0.98761 0.0
O165 O 0.18175 0.86929 0.96683 0.0
O166 O 0.2075 0.89968 0.0349 0.0
O167 O 0.18247 0.88965 0.01148 0.0
Co168 Co 0.2719 0.37747 0.00185 0.0
O169 O 0.29132 0.35375 0.00085 0.0
O170 O 0.25962 0.35474 0.98435 0.0
C171 C 0.29658 0.40329 0.9957 0.0
O172 O 0.24788 0.39901 -0.00173 0.0
Co173 Co 0.27557 0.41306 0.03661 0.0
O174 O 0.25526 0.42871 0.01777 0.0
C175 C 0.25581 0.37138 0.04781 0.0
C176 C 0.27713 0.34429 0.9885 0.0
C177 C 0.24404 0.41855 0.00375 0.0
O178 O 0.25796 0.36515 0.0282 0.0
O179 O 0.26239 0.38972 0.05484 0.0
O180 O 0.28821 0.39246 0.97973 0.0
O181 O 0.29116 0.39705 0.0148 0.0
Co182 Co 0.71609 0.11008 0.00076 0.0
O183 O 0.72539 0.08175 0.00873 0.0
O184 O 0.71401 0.09114 0.97628 0.0
C185 C 0.74385 0.12776 0.01622 0.0
O186 O 0.70678 0.13728 0.98559 0.0
Co187 Co 0.70505 0.14597 0.03364 0.0
O188 O 0.70637 0.16533 0.00843 0.0
C189 C 0.67397 0.11036 0.02526 0.0
C190 C 0.72229 0.07657 0.98864 0.0
C191 C 0.70535 0.15753 0.98946 0.0
O192 O 0.68572 0.10314 0.00985 0.0
O193 O 0.67958 0.12626 0.0373 0.0
O194 O 0.74599 0.11909 -0.00271 0.0
O195 O 0.7257 0.12423 0.0257 0.0
Co196 Co 0.13135 0.50309 0.21621 0.0
O197 O 0.16067 0.49529 0.21067 0.0
O198 O 0.14937 0.51244 0.23978 0.0
C199 C 0.11631 0.47114 0.20767 0.0
O200 O 0.10292 0.51269 0.22844 0.0
Co201 Co 0.09607 0.50309 0.18057 0.0
O202 O 0.07593 0.50625 0.20506 0.0
C203 C 0.12764 0.53887 0.18323 0.0
C204 C 0.16502 0.50322 0.22962 0.0
C205 C 0.08281 0.51184 0.22364 0.0
O206 O 0.13525 0.53137 0.20095 0.0
O207 O 0.11338 0.52907 0.17179 0.0
O208 O 0.12521 0.47414 0.2264 0.0
O209 O 0.11873 0.48666 0.19405 0.0
Co210 Co 0.78692 0.86846 0.49979 0.0
O211 O 0.8061 0.84569 0.49153 0.0
O212 O 0.77549 0.85382 0.47508 0.0
C213 C 0.81179 0.89455 0.50457 0.0
O214 O 0.76332 0.8903 0.50184 0.0
Co215 Co 0.78678 0.89122 0.54402 0.0
O216 O 0.76448 0.9104 0.53182 0.0
C217 C 0.76898 0.8472 0.54005 0.0
C218 C 0.79236 0.8418 0.47605 0.0
C219 C 0.75631 0.90569 0.51354 0.0
O220 O 0.77109 0.84818 0.51949 0.0
O221 O 0.77555 0.86211 0.55285 0.0
O222 O 0.8049 0.88968 0.48533 0.0
O223 O 0.80487 0.8824 0.52001 0.0
Co224 Co 0.87377 0.9738 0.23519 0.0
O225 O 0.90094 0.96041 0.22962 0.0
O226 O 0.8937 0.98109 0.25783 0.0
C227 C 0.85285 0.94495 0.22801 0.0
O228 O 0.84826 0.98964 0.24719 0.0
Co229 Co 0.83896 0.97969 0.19992 0.0
O230 O 0.8209 0.99114 0.22358 0.0
C231 C 0.87792 0.00694 0.19966 0.0
C232 C 0.90744 0.96938 0.2475 0.0
C233 C 0.829 0.99489 0.24212 0.0
O234 O 0.88302 -0.00017 0.21839 0.0
O235 O 0.86208 -0.00053 0.18859 0.0
O236 O 0.86214 0.94693 0.24672 0.0
O237 O 0.85794 0.95933 0.21389 0.0
Co238 Co 0.23906 0.60699 0.52767 0.0
O239 O 0.25396 0.5801 0.53107 0.0
O240 O 0.24246 0.59341 0.50011 0.0
C241 C 0.26105 0.62696 0.54868 0.0
O242 O 0.22477 0.63404 0.51682 0.0
Co243 Co 0.2181 0.63263 0.565 0.0
O244 O 0.21619 0.65631 0.54389 0.0
C245 C 0.19567 0.59448 0.54645 0.0
C246 C 0.25277 0.57845 0.5102 0.0
C247 C 0.21823 0.65227 0.5239 0.0
O248 O 0.21038 0.59225 0.53209 0.0
O249 O 0.19647 0.60874 0.56137 0.0
O250 O 0.26639 0.62254 0.52895 0.0
O251 O 0.24367 0.61776 0.55557 0.0
Co252 Co 0.37555 0.46927 0.75537 0.0
O253 O 0.40208 0.45486 0.76157 0.0
O254 O 0.38909 0.48237 0.78013 0.0
C255 C 0.35506 0.43957 0.75042 0.0
O256 O 0.34889 0.48752 0.75519 0.0
Co257 Co 0.35131 0.46538 0.71176 0.0
O258 O 0.32753 0.48011 0.72686 0.0
C259 C 0.3886 0.49515 0.71583 0.0
C260 C 0.40396 0.46808 0.77779 0.0
C261 C 0.33125 0.48972 0.74467 0.0
O262 O 0.39056 0.49033 0.73587 0.0
O263 O 0.37479 0.48612 0.70326 0.0
O264 O 0.35942 0.44648 0.76975 0.0
O265 O 0.36482 0.4495 0.73495 0.0
Co266 Co 0.63791 0.0046 0.71679 0.0
O267 O 0.66752 -0.0042 0.7157 0.0
O268 O 0.65083 0.00747 0.74486 0.0
C269 C 0.62467 0.97624 0.69816 0.0
O270 O 0.6079 0.01376 0.72523 0.0
Co271 Co 0.60992 0.01454 0.67661 0.0
O272 O 0.58547 0.0155 0.69693 0.0
C273 C 0.64292 0.04598 0.69168 0.0
C274 C 0.66801 -0.00055 0.73634 0.0
C275 C 0.58908 0.01637 0.71711 0.0
O276 O 0.64613 0.03506 0.70897 0.0
O277 O 0.63061 0.03953 0.67631 0.0
O278 O 0.62892 0.97446 0.71857 0.0
O279 O 0.62976 0.99443 0.68948 0.0
Co280 Co 0.76119 0.62301 0.05034 0.0
O281 O 0.76926 0.60002 0.06935 0.0
O282 O 0.78892 0.61234 0.04222 0.0
C283 C 0.74945 0.64582 0.07574 0.0
O284 O 0.75946 0.64664 0.02808 0.0
Co285 Co 0.71435 0.63925 0.04566 0.0
O286 O 0.72667 0.66133 0.02601 0.0
C287 C 0.72649 0.59784 0.02625 0.0
C288 C 0.78682 0.59893 0.05809 0.0
C289 C 0.74633 0.66045 0.0204 0.0
O290 O 0.74649 0.60187 0.03023 0.0
O291 O 0.71122 0.60969 0.033 0.0
O292 O 0.76994 0.64457 0.0718 0.0
O293 O 0.73722 0.63216 0.0657 0.0
Co294 Co 0.88277 0.53323 0.73188 0.0
O295 O 0.91253 0.53699 0.72378 0.0
O296 O 0.89779 0.50714 0.73698 0.0
C297 C 0.86827 0.54807 0.70246 0.0
O298 O 0.85352 0.52188 0.74057 0.0
Co299 Co 0.8506 0.5699 0.73953 0.0
O300 O 0.82828 0.54686 0.736 0.0
C301 C 0.88197 0.55902 0.77358 0.0
C302 C 0.91452 0.51682 0.72895 0.0
C303 C 0.83378 0.52747 0.73922 0.0
O304 O 0.88879 0.54332 0.76203 0.0
O305 O 0.86769 0.57221 0.76706 0.0
O306 O 0.87512 0.5284 0.7019 0.0
O307 O 0.87223 0.5587 0.72003 0.0
Co308 Co 0.71826 0.37841 0.52961 0.0
O309 O 0.71442 0.35348 0.5478 0.0
O310 O 0.74515 0.37117 0.5425 0.0
C311 C 0.68919 0.39602 0.54114 0.0
O312 O 0.7295 0.40456 0.51383 0.0
Co313 Co 0.68678 0.39402 0.49463 0.0
O314 O 0.70573 0.41974 0.49167 0.0
C315 C 0.71338 0.35555 0.48685 0.0
C316 C 0.7349 0.35558 0.55196 0.0
C317 C 0.72407 0.41952 0.50082 0.0
O318 O 0.72413 0.35924 0.50424 0.0
O319 O 0.69716 0.36668 0.48107 0.0
O320 O 0.70702 0.39678 0.55217 0.0
O321 O 0.6891 0.38391 0.52418 0.0
Co322 Co 0.61865 0.49437 0.19665 0.0
O323 O 0.64201 0.49357 0.17656 0.0
O324 O 0.63338 0.46745 0.19935 0.0
C325 C 0.59453 0.50683 0.17306 0.0
O326 O 0.59551 0.48868 0.21889 0.0
Co327 Co 0.59539 0.53659 0.20893 0.0
O328 O 0.57493 0.51755 0.2245 0.0
C329 C 0.63733 0.52641 0.22892 0.0
C330 C 0.64558 0.47437 0.18382 0.0
C331 C 0.57943 0.4979 0.22781 0.0
O332 O 0.63763 0.50804 0.21927 0.0
O333 O 0.62272 0.54042 0.22581 0.0
O334 O 0.59849 0.48636 0.17376 0.0
O335 O 0.60603 0.51905 0.18553 0.0
Sc336 Sc 0.08009 0.17251 0.10744 0.0
Sc337 Sc 0.10291 0.13368 0.14187 0.0
Sc338 Sc 0.12939 0.14833 0.09432 0.0
O339 O 0.10408 0.15153 0.11457 0.0
C340 C 0.09089 0.15269 0.06108 0.0
C341 C 0.05406 0.13208 0.12514 0.0
C342 C 0.11989 0.09971 0.10768 0.0
C343 C 0.08459 0.1783 0.1584 0.0
C344 C 0.12253 0.19915 0.09536 0.0
C345 C 0.15258 0.14635 0.14012 0.0
O346 O 0.07872 0.16276 0.07397 0.0
O347 O 0.06978 0.12528 0.13626 0.0
O348 O 0.12748 0.11381 0.09495 0.0
O349 O 0.07796 0.18436 0.14003 0.0
O350 O 0.1335 0.18243 0.09165 0.0
O351 O 0.13599 0.14014 0.15035 0.0
O352 O 0.10294 0.19834 0.10126 0.0
O353 O 0.09447 0.16081 0.16136 0.0
O354 O 0.15248 0.14974 0.11999 0.0
O355 O 0.0551 0.14891 0.11358 0.0
O356 O 0.10953 0.14654 0.06631 0.0
O357 O 0.11098 0.1044 0.12542 0.0
Sc358 Sc 0.15995 0.87855 0.39645 0.0
Sc359 Sc 0.12191 0.8522 0.36342 0.0
Sc360 Sc 0.15397 0.89389 0.34276 0.0
O361 O 0.14518 0.87486 0.36756 0.0
C362 C 0.15529 0.92658 0.38289 0.0
C363 C 0.11139 0.86801 0.41041 0.0
C364 C 0.1035 0.89286 0.33781 0.0
C365 C 0.15717 0.82799 0.39199 0.0
C366 C 0.19882 0.88565 0.36359 0.0
C367 C 0.14551 0.84901 0.31866 0.0
O368 O 0.15323 0.91219 0.39722 0.0
O369 O 0.10521 0.86154 0.39198 0.0
O370 O 0.12137 0.90299 0.33679 0.0
O371 O 0.16749 0.84495 0.39759 0.0
O372 O 0.18701 0.88576 0.34688 0.0
O373 O 0.13593 0.84015 0.33437 0.0
O374 O 0.19124 0.88527 0.38257 0.0
O375 O 0.13985 0.82832 0.38095 0.0
O376 O 0.15158 0.8686 0.31903 0.0
O377 O 0.13082 0.87318 0.41455 0.0
O378 O 0.15774 0.92216 0.36303 0.0
O379 O 0.10163 0.87402 0.3457 0.0
Sc380 Sc 0.40654 0.83922 0.62027 0.0
Sc381 Sc 0.36072 0.8705 0.61224 0.0
Sc382 Sc 0.39922 0.88597 0.65156 0.0
O383 O 0.38883 0.86526 0.6281 0.0
C384 C 0.40936 0.83967 0.67139 0.0
C385 C 0.35847 0.82016 0.6184 0.0
C386 C 0.3487 0.88536 0.66002 0.0
C387 C 0.39105 0.8545 0.57422 0.0
C388 C 0.44359 0.87381 0.62919 0.0
C389 C 0.38223 0.91738 0.61485 0.0
O390 O 0.40964 0.83019 0.65325 0.0
O391 O 0.34904 0.83808 0.61668 0.0
O392 O 0.36798 0.88833 0.66633 0.0
O393 O 0.40507 0.84617 0.58645 0.0
O394 O 0.4318 0.8865 0.63987 0.0
O395 O 0.36994 0.90325 0.60623 0.0
O396 O 0.43678 0.85609 0.62142 0.0
O397 O 0.37379 0.86264 0.58123 0.0
O398 O 0.39334 0.91391 0.63173 0.0
O399 O 0.37879 0.81847 0.61875 0.0
O400 O 0.40625 0.85983 0.67347 0.0
O401 O 0.34395 0.87916 0.64107 0.0
Sc402 Sc 0.36414 0.08211 0.84892 0.0
Sc403 Sc 0.39009 0.12792 0.8701 0.0
Sc404 Sc 0.35459 0.09779 0.90234 0.0
O405 O 0.3697 0.10259 0.87383 0.0
C406 C 0.31755 0.08677 0.86788 0.0
C407 C 0.36787 0.12699 0.82423 0.0
C408 C 0.35111 0.14825 0.8966 0.0
C409 C 0.41445 0.08948 0.84611 0.0
C410 C 0.36483 0.05012 0.88934 0.0
C411 C 0.40084 0.11493 0.91816 0.0
O412 O 0.33004 0.08569 0.85177 0.0
O413 O 0.3761 0.13709 0.84007 0.0
O414 O 0.34367 0.13039 0.90338 0.0
O415 O 0.39789 0.07735 0.84432 0.0
O416 O 0.36412 0.06472 0.90369 0.0
O417 O 0.40644 0.12218 0.89993 0.0
O418 O 0.36345 0.05418 0.86934 0.0
O419 O 0.41388 0.10842 0.85405 0.0
O420 O 0.38249 0.10633 0.92148 0.0
O421 O 0.36389 0.10691 0.82468 0.0
O422 O 0.32434 0.08908 0.88712 0.0
O423 O 0.36817 0.14982 0.8854 0.0
Sc424 Sc 0.66833 0.3759 0.87488 0.0
Sc425 Sc 0.61413 0.36068 0.86834 0.0
Sc426 Sc 0.63299 0.40863 0.84523 0.0
O427 O 0.63853 0.38176 0.86279 0.0
C428 C 0.66367 0.42623 0.88299 0.0
C429 C 0.63694 0.36265 0.91378 0.0
C430 C 0.58911 0.40536 0.87045 0.0
C431 C 0.65395 0.32873 0.86248 0.0
C432 C 0.67917 0.39516 0.82845 0.0
C433 C 0.60745 0.37158 0.81913 0.0
O434 O 0.67118 0.40787 0.88746 0.0
O435 O 0.62 0.36169 0.90226 0.0
O436 O 0.6041 0.41649 0.86209 0.0
O437 O 0.66851 0.34317 0.86379 0.0
O438 O 0.66104 0.404 0.82624 0.0
O439 O 0.60681 0.35848 0.83479 0.0
O440 O 0.68455 0.38503 0.84538 0.0
O441 O 0.63411 0.33278 0.8649 0.0
O442 O 0.6153 0.39059 0.82075 0.0
O443 O 0.65561 0.36611 0.90597 0.0
O444 O 0.65024 0.42926 0.86779 0.0
O445 O 0.59021 0.3851 0.87264 0.0
Sc446 Sc 0.90131 0.32546 0.12751 0.0
Sc447 Sc 0.87481 0.37103 0.14685 0.0
Sc448 Sc 0.87271 0.35843 0.09163 0.0
O449 O 0.88298 0.35168 0.12193 0.0
C450 C 0.92103 0.34293 0.08376 0.0
C451 C 0.92336 0.36122 0.1579 0.0
C452 C 0.88218 0.40551 0.10918 0.0
C453 C 0.87119 0.32438 0.16833 0.0
C454 C 0.86798 0.30742 0.09248 0.0
C455 C 0.83126 0.36802 0.12033 0.0
O456 O 0.92281 0.33335 0.1017 0.0
O457 O 0.90766 0.37415 0.15763 0.0
O458 O 0.88189 0.39187 0.09388 0.0
O459 O 0.88163 0.31466 0.1538 0.0
O460 O 0.86215 0.32579 0.0859 0.0
O461 O 0.84149 0.36923 0.13806 0.0
O462 O 0.88232 0.30498 0.10684 0.0
O463 O 0.86884 0.34466 0.1684 0.0
O464 O 0.84042 0.36551 0.1022 0.0
O465 O 0.92265 0.34287 0.1488 0.0
O466 O 0.90378 0.35203 0.07777 0.0
O467 O 0.87911 0.40024 0.12869 0.0
Sc468 Sc 0.86945 0.57781 0.35222 0.0
Sc469 Sc 0.88422 0.63198 0.35699 0.0
Sc470 Sc 0.84427 0.61072 0.39011 0.0
O471 O 0.86597 0.60679 0.36652 0.0
C472 C 0.81916 0.58029 0.35643 0.0
C473 C 0.87389 0.61072 0.31274 0.0
C474 C 0.83949 0.65489 0.36663 0.0
C475 C 0.91725 0.59273 0.35411 0.0
C476 C 0.86109 0.56463 0.40131 0.0
C477 C 0.88526 0.63798 0.40703 0.0
O478 O 0.83568 0.57533 0.34557 0.0
O479 O 0.87385 0.62755 0.32441 0.0
O480 O 0.83078 0.63857 0.37535 0.0
O481 O 0.90338 0.57811 0.35808 0.0
O482 O 0.85543 0.58326 0.4073 0.0
O483 O 0.89529 0.63803 0.38921 0.0
O484 O 0.8651 0.56006 0.38176 0.0
O485 O 0.91219 0.61233 0.35139 0.0
O486 O 0.8663 0.63023 0.4091 0.0
O487 O 0.87456 0.59181 0.32059 0.0
O488 O 0.82005 0.59168 0.37351 0.0
O489 O 0.8591 0.65527 0.36096 0.0
Sc490 Sc 0.89017 0.84446 0.87977 0.0
Sc491 Sc 0.84821 0.8724 0.90328 0.0
Sc492 Sc 0.87132 0.89106 0.85666 0.0
O493 O 0.86987 0.86911 0.87994 0.0
C494 C 0.91946 0.88494 0.86501 0.0
C495 C 0.88949 0.85502 0.9288 0.0
C496 C 0.859 0.91983 0.89758 0.0
C497 C 0.84555 0.823 0.89572 0.0
C498 C 0.8823 0.84769 0.83113 0.0
C499 C 0.82258 0.88626 0.86042 0.0
O500 O 0.91668 0.86464 0.86754 0.0
O501 O 0.86971 0.86024 0.92811 0.0
O502 O 0.86049 0.91723 0.87728 0.0
O503 O 0.86565 0.82184 0.89157 0.0
O504 O 0.88188 0.86816 0.83241 0.0
O505 O 0.82408 0.88516 0.88094 0.0
O506 O 0.88101 0.8358 0.84765 0.0
O507 O 0.83586 0.8408 0.8974 0.0
O508 O 0.83874 0.88419 0.84815 0.0
O509 O 0.90049 0.85163 0.91195 0.0
O510 O 0.90392 0.89805 0.86505 0.0
O511 O 0.85987 0.90409 0.91044 0.0
Sc512 Sc 0.86565 0.14286 0.59472 0.0
Sc513 Sc 0.90564 0.16042 0.63151 0.0
Sc514 Sc 0.87733 0.11181 0.64047 0.0
O515 O 0.88295 0.13832 0.62215 0.0
C516 C 0.82995 0.12486 0.62706 0.0
C517 C 0.86699 0.18963 0.61591 0.0
C518 C 0.88326 0.14848 0.67601 0.0
C519 C 0.91253 0.15952 0.58079 0.0
C520 C 0.87422 0.09254 0.59265 0.0
C521 C 0.9284 0.11558 0.64105 0.0
O522 O 0.83541 0.13484 0.61007 0.0
O523 O 0.8843 0.18724 0.62655 0.0
O524 O 0.87661 0.12992 0.67021 0.0
O525 O 0.89376 0.1523 0.57632 0.0
O526 O 0.87678 0.09073 0.61288 0.0
O527 O 0.92928 0.13573 0.63741 0.0
O528 O 0.87028 0.11039 0.5836 0.0
O529 O 0.91885 0.16316 0.59992 0.0
O530 O 0.91082 0.10522 0.64313 0.0
O531 O 0.8589 0.17525 0.60367 0.0
O532 O 0.84335 0.11569 0.63931 0.0
O533 O 0.89437 0.16068 0.66397 0.0
Sc534 Sc 0.63102 0.08662 0.36711 0.0
Sc535 Sc 0.65233 0.10486 0.41644 0.0
Sc536 Sc 0.60762 0.13016 0.39392 0.0
O537 O 0.6304 0.10727 0.39238 0.0
C538 C 0.62019 0.13193 0.34486 0.0
C539 C 0.68058 0.09528 0.37459 0.0
C540 C 0.64987 0.15498 0.41136 0.0
C541 C 0.64014 0.05625 0.40748 0.0
C542 C 0.5811 0.08977 0.37487 0.0
C543 C 0.60879 0.11406 0.44183 0.0
O544 O 0.62515 0.11209 0.34398 0.0
O545 O 0.6788 0.09832 0.39477 0.0
O546 O 0.63005 0.15444 0.40603 0.0
O547 O 0.6368 0.05873 0.38739 0.0
O548 O 0.58228 0.1089 0.38222 0.0
O549 O 0.62889 0.11044 0.44161 0.0
O550 O 0.59754 0.07912 0.36968 0.0
O551 O 0.64501 0.07161 0.42015 0.0
O552 O 0.59851 0.12035 0.42541 0.0
O553 O 0.66452 0.09221 0.36225 0.0
O554 O 0.61468 0.14121 0.36219 0.0
O555 O 0.66086 0.13817 0.41429 0.0
Sc556 Sc 0.63441 0.88646 0.10859 0.0
Sc557 Sc 0.58544 0.85952 0.11882 0.0
Sc558 Sc 0.60613 0.89767 0.15608 0.0
O559 O 0.60862 0.88119 0.12783 0.0
C560 C 0.65614 0.88758 0.155 0.0
C561 C 0.62869 0.83552 0.10603 0.0
C562 C 0.59039 0.85075 0.16932 0.0
C563 C 0.59681 0.88203 0.07399 0.0
C564 C 0.62176 0.93385 0.12355 0.0
C565 C 0.55769 0.89726 0.13837 0.0
O566 O 0.65664 0.88399 0.1349 0.0
O567 O 0.60902 0.83521 0.11166 0.0
O568 O 0.59966 0.86858 0.17387 0.0
O569 O 0.61513 0.88903 0.08004 0.0
O570 O 0.61186 0.92811 0.14049 0.0
O571 O 0.55969 0.88158 0.12535 0.0
O572 O 0.63164 0.92068 0.11155 0.0
O573 O 0.5847 0.87066 0.086 0.0
O574 O 0.57267 0.90371 0.15087 0.0
O575 O 0.63942 0.85285 0.10353 0.0
O576 O 0.63944 0.89389 0.16472 0.0
O577 O 0.58352 0.84603 0.15056 0.0
Sc578 Sc 0.34028 0.64353 0.074 0.0
Sc579 Sc 0.37518 0.65415 0.11766 0.0
Sc580 Sc 0.34876 0.60382 0.11349 0.0
O581 O 0.35477 0.63381 0.10169 0.0
C582 C 0.30229 0.61923 0.09846 0.0
C583 C 0.33814 0.68562 0.10372 0.0
C584 C 0.35006 0.63167 0.15637 0.0
C585 C 0.38766 0.66302 0.06878 0.0
C586 C 0.35098 0.59483 0.06285 0.0
C587 C 0.39912 0.60913 0.12087 0.0
O588 O 0.30901 0.63288 0.08477 0.0
O589 O 0.35354 0.68068 0.11611 0.0
O590 O 0.34462 0.61465 0.14627 0.0
O591 O 0.37022 0.6555 0.06081 0.0
O592 O 0.35232 0.58917 0.08242 0.0
O593 O 0.39899 0.62959 0.12093 0.0
O594 O 0.34625 0.61381 0.05718 0.0
O595 O 0.39129 0.66413 0.08888 0.0
O596 O 0.3822 0.59764 0.11872 0.0
O597 O 0.33228 0.67418 0.08768 0.0
O598 O 0.31478 0.60741 0.10937 0.0
O599 O 0.36106 0.64681 0.14811 0.0
Sc600 Sc 0.10759 0.59009 0.85349 0.0
Sc601 Sc 0.13984 0.60747 0.89743 0.0
Sc602 Sc 0.09838 0.64015 0.87825 0.0
O603 O 0.11531 0.61252 0.87636 0.0
C604 C 0.10295 0.6343 0.82773 0.0
C605 C 0.15896 0.59102 0.85279 0.0
C606 C 0.14576 0.65755 0.88806 0.0
C607 C 0.11909 0.56033 0.89323 0.0
C608 C 0.06142 0.60515 0.86926 0.0
C609 C 0.10339 0.62657 0.9274 0.0
O610 O 0.10495 0.61398 0.82842 0.0
O611 O 0.16133 0.59864 0.87175 0.0
O612 O 0.12669 0.65988 0.88123 0.0
O613 O 0.10985 0.56316 0.87522 0.0
O614 O 0.06803 0.62359 0.87545 0.0
O615 O 0.12002 0.61519 0.92469 0.0
O616 O 0.07377 0.59127 0.86091 0.0
O617 O 0.13038 0.57468 0.90265 0.0
O618 O 0.09467 0.63716 0.91233 0.0
O619 O 0.14065 0.58687 0.84442 0.0
O620 O 0.10038 0.64576 0.84444 0.0
O621 O 0.15266 0.63983 0.89527 0.0
Sc622 Sc 0.13716 0.36401 0.61814 0.0
Sc623 Sc 0.09131 0.33316 0.63122 0.0
Sc624 Sc 0.10789 0.37615 0.66495 0.0
O625 O 0.11214 0.35768 0.63821 0.0
C626 C 0.15846 0.37118 0.66489 0.0
C627 C 0.13743 0.31313 0.62198 0.0
C628 C 0.09327 0.32993 0.6823 0.0
C629 C 0.10034 0.352 0.5844 0.0
C630 C 0.12085 0.41068 0.62926 0.0
C631 C 0.06048 0.37081 0.64582 0.0
O632 O 0.15937 0.36881 0.64455 0.0
O633 O 0.11759 0.3112 0.62676 0.0
O634 O 0.09989 0.34914 0.68546 0.0
O635 O 0.11833 0.36059 0.58921 0.0
O636 O 0.11418 0.40596 0.64799 0.0
O637 O 0.06348 0.35324 0.63573 0.0
O638 O 0.12917 0.39718 0.61655 0.0
O639 O 0.08929 0.34128 0.59781 0.0
O640 O 0.07482 0.38051 0.65693 0.0
O641 O 0.14656 0.33102 0.61779 0.0
O642 O 0.14085 0.37329 0.67494 0.0
O643 O 0.08989 0.32219 0.66367 0.0
Sc644 Sc 0.59914 0.65103 0.63455 0.0
Sc645 Sc 0.61265 0.59739 0.6469 0.0
Sc646 Sc 0.62741 0.61926 0.59715 0.0
O647 O 0.61312 0.62263 0.62624 0.0
C648 C 0.58656 0.64677 0.58477 0.0
C649 C 0.56518 0.61607 0.65094 0.0
C650 C 0.60413 0.57362 0.60213 0.0
C651 C 0.6203 0.63648 0.67928 0.0
C652 C 0.64184 0.66704 0.61122 0.0
C653 C 0.66009 0.59484 0.62776 0.0
O654 O 0.58451 0.65544 0.60322 0.0
O655 O 0.57919 0.60154 0.65323 0.0
O656 O 0.61302 0.58819 0.59086 0.0
O657 O 0.61203 0.65041 0.6669 0.0
O658 O 0.6433 0.65005 0.59985 0.0
O659 O 0.64619 0.59068 0.64218 0.0
O660 O 0.62713 0.66967 0.62516 0.0
O661 O 0.62198 0.61683 0.67403 0.0
O662 O 0.65568 0.60514 0.61072 0.0
O663 O 0.56968 0.63498 0.6444 0.0
O664 O 0.6008 0.63294 0.5806 0.0
O665 O 0.60287 0.57476 0.62248 0.0
Sc666 Sc 0.35184 0.37411 0.38555 0.0
Sc667 Sc 0.37867 0.39882 0.3434 0.0
Sc668 Sc 0.3971 0.35072 0.36403 0.0
O669 O 0.37584 0.37453 0.36423 0.0
C670 C 0.39134 0.35573 0.41291 0.0
C671 C 0.36457 0.42224 0.38728 0.0
C672 C 0.42672 0.39219 0.35446 0.0
C673 C 0.32936 0.39352 0.34339 0.0
C674 C 0.35231 0.32611 0.37387 0.0
C675 C 0.3914 0.3574 0.315 0.0
O676 O 0.37127 0.35913 0.41055 0.0
O677 O 0.36794 0.42271 0.36699 0.0
O678 O 0.424 0.37185 0.35573 0.0
O679 O 0.3292 0.38926 0.36347 0.0
O680 O 0.37281 0.32659 0.37249 0.0
O681 O 0.38957 0.37775 0.31736 0.0
O682 O 0.34123 0.34315 0.37444 0.0
O683 O 0.34649 0.39375 0.33237 0.0
O684 O 0.3909 0.34449 0.33081 0.0
O685 O 0.36183 0.40482 0.39757 0.0
O686 O 0.40435 0.35607 0.39722 0.0
O687 O 0.41108 0.40509 0.35339 0.0
C688 C 0.0463 0.26456 0.33092 0.0
C689 C 0.02518 0.27207 0.33298 0.0
C690 C 0.05262 0.25389 0.31222 0.0
C691 C 0.04193 0.25159 0.2552 0.0
H692 H 0.07018 0.19635 0.25638 0.0
C693 C 0.061 0.20421 0.17769 0.0
C694 C 0.07942 0.19139 0.17749 0.0
C695 C 0.05474 0.21461 0.19658 0.0
C696 C 0.06268 0.21196 0.25576 0.0
H697 H 0.99403 0.27408 0.31726 0.0
H698 H 0.00531 0.25579 0.28432 0.0
H699 H 0.0582 0.21266 0.28996 0.0
H700 H 0.10643 0.18033 0.19646 0.0
H701 H 0.0961 0.19922 0.22914 0.0
H702 H 0.04693 0.2514 0.2212 0.0
C703 C 0.01684 0.25808 0.29728 0.0
C704 C 0.05568 0.22117 0.27498 0.0
C705 C 0.01039 0.2684 0.31614 0.0
C706 C 0.092 0.18992 0.19624 0.0
C707 C 0.08596 0.20061 0.21501 0.0
C708 C 0.04923 0.24257 0.236 0.0
C709 C 0.03804 0.25091 0.29513 0.0
C710 C 0.04518 0.241 0.27482 0.0
C711 C 0.06699 0.21268 0.21557 0.0
C712 C 0.05965 0.2226 0.23603 0.0
H713 H 0.058 0.26707 0.34369 0.0
H714 H 0.06908 0.24853 0.31085 0.0
H715 H 0.03409 0.26706 0.25478 0.0
H716 H 0.05089 0.20547 0.16351 0.0
H717 H 0.03989 0.22352 0.19644 0.0
C718 C 0.02534 0.77098 0.53951 0.0
C719 C 0.02839 0.77366 0.56178 0.0
C720 C 0.0293 0.78806 0.5255 0.0
C721 C 0.06438 0.83355 0.51955 0.0
H722 H 0.02775 0.84708 0.47089 0.0
C723 C 0.10055 0.87744 0.44806 0.0
C724 C 0.09583 0.86729 0.42832 0.0
C725 C 0.08771 0.87352 0.46607 0.0
C726 C 0.03818 0.84353 0.48438 0.0
H727 H 0.03758 0.79639 0.58692 0.0
H728 H 0.04523 0.82607 0.56221 0.0
H729 H 0.0138 0.82448 0.49987 0.0
H730 H 0.07291 0.84654 0.4115 0.0
H731 H 0.05122 0.83898 0.44283 0.0
H732 H 0.08935 0.85083 0.50353 0.0
C733 C 0.03947 0.81083 0.55574 0.0
C734 C 0.03013 0.83069 0.50098 0.0
C735 C 0.03515 0.79385 0.56981 0.0
C736 C 0.07709 0.85453 0.42651 0.0
C737 C 0.06447 0.85034 0.44455 0.0
C738 C 0.07255 0.84606 0.50281 0.0
C739 C 0.03668 0.80802 0.53348 0.0
C740 C 0.04344 0.82498 0.51829 0.0
C741 C 0.07013 0.85906 0.46477 0.0
C742 C 0.05984 0.85046 0.48458 0.0
H743 H 0.01992 0.75568 0.53288 0.0
H744 H 0.02731 0.78543 0.50835 0.0
H745 H 0.07498 0.82925 0.53269 0.0
H746 H 0.11465 0.88773 0.44984 0.0
H747 H 0.09219 0.881 0.48124 0.0
C748 C 0.51975 0.76461 0.80405 0.0
C749 C 0.51234 0.75521 0.82318 0.0
C750 C 0.50553 0.76822 0.78704 0.0
C751 C 0.45013 0.78199 0.77883 0.0
H752 H 0.46337 0.77466 0.71832 0.0
C753 C 0.41592 0.80409 0.68862 0.0
C754 C 0.41434 0.8266 0.69059 0.0
C755 C 0.42377 0.79184 0.70558 0.0
C756 C 0.45926 0.77655 0.73515 0.0
H757 H 0.48459 0.74097 0.83907 0.0
H758 H 0.45969 0.74767 0.80939 0.0
H759 H 0.48607 0.75783 0.74547 0.0
H760 H 0.41817 0.85362 0.71258 0.0
H761 H 0.43196 0.8321 0.7423 0.0
H762 H 0.42387 0.80153 0.76851 0.0
C763 C 0.47647 0.7522 0.80762 0.0
C764 C 0.47232 0.76703 0.75063 0.0
C765 C 0.49076 0.7483 0.82452 0.0
C766 C 0.41931 0.83636 0.71048 0.0
C767 C 0.42711 0.82403 0.72753 0.0
C768 C 0.43721 0.79176 0.76333 0.0
C769 C 0.48364 0.76273 0.78899 0.0
C770 C 0.46812 0.77003 0.7726 0.0
C771 C 0.4301 0.80178 0.72493 0.0
C772 C 0.44192 0.78945 0.74137 0.0
H773 H 0.53631 0.77002 0.80257 0.0
H774 H 0.51142 0.77646 0.77285 0.0
H775 H 0.44668 0.78469 0.7957 0.0
H776 H 0.41186 0.79595 0.67366 0.0
H777 H 0.42559 0.77466 0.70332 0.0
C778 C 0.50535 0.19074 0.06845 0.0
C779 C 0.49894 0.21201 0.07231 0.0
C780 C 0.49612 0.17872 0.05171 0.0
C781 C 0.44724 0.1747 0.01891 0.0
H782 H 0.48171 0.13836 0.98204 0.0
C783 C 0.43564 0.12877 0.93362 0.0
C784 C 0.41515 0.11946 0.9368 0.0
C785 C 0.44735 0.13723 0.95098 0.0
C786 C 0.4719 0.14841 0.99224 0.0
H787 H 0.47818 0.23756 0.06145 0.0
H788 H 0.46198 0.21648 0.03205 0.0
H789 H 0.49925 0.16059 0.00972 0.0
H790 H 0.39176 0.11011 0.961 0.0
H791 H 0.41232 0.12479 0.99129 0.0
H792 H 0.41993 0.16287 0.00124 0.0
C793 C 0.47405 0.2091 0.04213 0.0
C794 C 0.48191 0.16105 0.00813 0.0
C795 C 0.4834 0.2212 0.05884 0.0
C796 C 0.4074 0.11731 0.95793 0.0
C797 C 0.41908 0.12587 0.97528 0.0
C798 C 0.43723 0.16199 0.00314 0.0
C799 C 0.48021 0.18767 0.03854 0.0
C800 C 0.46968 0.17442 0.02153 0.0
C801 C 0.4388 0.13659 0.97187 0.0
C802 C 0.44945 0.14879 0.98957 0.0
H803 H 0.51729 0.18319 0.07856 0.0
H804 H 0.50104 0.1622 0.04947 0.0
H805 H 0.43738 0.18464 0.02918 0.0
H806 H 0.44219 0.13055 0.91759 0.0
H807 H 0.4625 0.14541 0.94785 0.0
C808 C 0.05395 0.78383 0.1738 0.0
C809 C 0.05836 0.7657 0.16113 0.0
C810 C 0.06999 0.793 0.18684 0.0
C811 C 0.11937 0.77878 0.21528 0.0
H812 H 0.1216 0.84019 0.22647 0.0
C813 C 0.13914 0.81561 0.29685 0.0
C814 C 0.1472 0.83681 0.29825 0.0
C815 C 0.13612 0.80577 0.27684 0.0
C816 C 0.12166 0.82305 0.22324 0.0
H817 H 0.08315 0.74333 0.15156 0.0
H818 H 0.11113 0.75941 0.17428 0.0
H819 H 0.10013 0.82637 0.19655 0.0
H820 H 0.16097 0.86325 0.27989 0.0
H821 H 0.15579 0.84593 0.24494 0.0
H822 H 0.14044 0.77543 0.24238 0.0
C823 C 0.09525 0.76638 0.17434 0.0
C824 C 0.10907 0.81512 0.20628 0.0
C825 C 0.07922 0.75721 0.16133 0.0
C826 C 0.15433 0.84705 0.27937 0.0
C827 C 0.15132 0.83717 0.25933 0.0
C828 C 0.132 0.78672 0.23225 0.0
C829 C 0.09075 0.78424 0.1874 0.0
C830 C 0.10709 0.79286 0.20269 0.0
C831 C 0.14118 0.81687 0.25782 0.0
C832 C 0.13255 0.80886 0.23696 0.0
H833 H 0.03803 0.79071 0.17393 0.0
H834 H 0.06592 0.80655 0.19699 0.0
H835 H 0.11819 0.76153 0.21292 0.0
H836 H 0.13378 0.8071 0.31108 0.0
H837 H 0.12821 0.79014 0.27629 0.0
C838 C 0.41549 0.77804 0.4 0.0
C839 C 0.43762 0.77692 0.39606 0.0
C840 C 0.40762 0.79287 0.41482 0.0
C841 C 0.42433 0.83867 0.45124 0.0
H842 H 0.37981 0.81407 0.48747 0.0
C843 C 0.4153 0.85116 0.54244 0.0
C844 C 0.39451 0.85379 0.55076 0.0
C845 C 0.41832 0.84823 0.52039 0.0
C846 C 0.39193 0.82139 0.47726 0.0
H847 H 0.4689 0.79065 0.40375 0.0
H848 H 0.45549 0.81551 0.43074 0.0
H849 H 0.3891 0.79614 0.45421 0.0
H850 H 0.36072 0.85664 0.54242 0.0
H851 H 0.36603 0.85074 0.50388 0.0
H852 H 0.42823 0.86292 0.47573 0.0
C853 C 0.44396 0.80569 0.42189 0.0
C854 C 0.39726 0.81117 0.45807 0.0
C855 C 0.45173 0.79127 0.40658 0.0
C856 C 0.37693 0.85455 0.53648 0.0
C857 C 0.37992 0.85123 0.51447 0.0
C858 C 0.41928 0.84865 0.47075 0.0
C859 C 0.42181 0.80637 0.42655 0.0
C860 C 0.41394 0.81931 0.44506 0.0
C861 C 0.40058 0.84755 0.50635 0.0
C862 C 0.40339 0.83976 0.48411 0.0
H863 H 0.40428 0.76736 0.3917 0.0
H864 H 0.39043 0.79334 0.41745 0.0
H865 H 0.43688 0.84575 0.4414 0.0
H866 H 0.42918 0.85077 0.55304 0.0
H867 H 0.43438 0.8452 0.51449 0.0
C868 C 0.45104 0.21978 0.67833 0.0
C869 C 0.4725 0.2154 0.68398 0.0
C870 C 0.43404 0.21153 0.69053 0.0
C871 C 0.42168 0.1661 0.72525 0.0
H872 H 0.37433 0.19981 0.74697 0.0
C873 C 0.36531 0.12717 0.78401 0.0
C874 C 0.36619 0.1386 0.80358 0.0
C875 C 0.37048 0.13751 0.76475 0.0
C876 C 0.38728 0.19014 0.74072 0.0
H877 H 0.49295 0.19981 0.70745 0.0
H878 H 0.46324 0.18538 0.72871 0.0
H879 H 0.40133 0.21676 0.72364 0.0
H880 H 0.36961 0.17042 0.81787 0.0
H881 H 0.37892 0.18826 0.78448 0.0
H882 H 0.40853 0.13979 0.74294 0.0
C883 C 0.45963 0.19501 0.71469 0.0
C884 C 0.40269 0.19983 0.72742 0.0
C885 C 0.47663 0.20343 0.70263 0.0
C886 C 0.36932 0.16105 0.80311 0.0
C887 C 0.37446 0.17136 0.78388 0.0
C888 C 0.40628 0.15641 0.73834 0.0
C889 C 0.43822 0.19858 0.70845 0.0
C890 C 0.42043 0.18804 0.72027 0.0
C891 C 0.37654 0.15939 0.76479 0.0
C892 C 0.38931 0.16849 0.74684 0.0
H893 H 0.44733 0.2291 0.66412 0.0
H894 H 0.41766 0.21455 0.68547 0.0
H895 H 0.43501 0.15657 0.71957 0.0
H896 H 0.36257 0.10992 0.78375 0.0
H897 H 0.37147 0.128 0.75013 0.0
C898 C 0.01853 0.17528 0.89557 0.0
C899 C 0.00056 0.16365 0.88786 0.0
C900 C 0.03356 0.16541 0.90879 0.0
C901 C 0.03093 0.12608 0.95054 0.0
H902 H 0.08937 0.14645 0.96043 0.0
C903 C 0.09676 0.13745 0.02418 0.0
C904 C 0.08302 0.14725 0.03919 0.0
C905 C 0.08942 0.13221 0.00354 0.0
C906 C 0.07324 0.14016 0.9578 0.0
H907 H 0.98555 0.13197 0.88582 0.0
H908 H 0.01183 0.11473 0.90926 0.0
H909 H 0.07371 0.14872 0.92445 0.0
H910 H 0.05061 0.15872 0.04435 0.0
H911 H 0.0379 0.14982 0.00825 0.0
H912 H 0.03006 0.1186 0.98411 0.0
C913 C 0.01412 0.13154 0.90518 0.0
C914 C 0.06426 0.14154 0.93722 0.0
C915 C -0.00089 0.14142 0.89177 0.0
C916 C 0.06166 0.15131 0.03319 0.0
C917 C 0.0543 0.14595 0.01259 0.0
C918 C 0.0399 0.12473 0.97109 0.0
C919 C 0.03087 0.14372 0.91466 0.0
C920 C 0.04262 0.13566 0.93371 0.0
C921 C 0.06814 0.13649 -0.00248 0.0
C922 C 0.06069 0.13287 0.97513 0.0
H923 H 0.0203 0.19237 0.8925 0.0
H924 H 0.0462 0.17532 0.91589 0.0
H925 H 0.0142 0.12145 0.94841 0.0
H926 H 0.1133 0.13396 0.02829 0.0
H927 H 0.1004 0.12489 0.99224 0.0
C928 C 0.31442 0.07637 0.19068 0.0
C929 C 0.32725 0.08157 0.20863 0.0
C930 C 0.29835 0.09028 0.18396 0.0
C931 C 0.26182 0.13026 0.20475 0.0
H932 H 0.24859 0.13716 0.14415 0.0
C933 C 0.19061 0.15968 0.14225 0.0
C934 C 0.1733 0.14846 0.15168 0.0
C935 C 0.21111 0.1589 0.15138 0.0
C936 C 0.25221 0.1359 0.16116 0.0
H937 H 0.33381 0.10564 0.2333 0.0
H938 H 0.30543 0.12991 0.2216 0.0
H939 H 0.28268 0.1217 0.15479 0.0
H940 H 0.1635 0.12914 0.17903 0.0
H941 H 0.19937 0.12723 0.19463 0.0
H942 H 0.23099 0.14386 0.21109 0.0
C943 C 0.30785 0.11505 0.21281 0.0
C944 C 0.27166 0.12679 0.16722 0.0
C945 C 0.32407 0.10119 0.21945 0.0
C946 C 0.17655 0.13784 0.17131 0.0
C947 C 0.19711 0.1369 0.18035 0.0
C948 C 0.2423 0.13939 0.19868 0.0
C949 C 0.29472 0.10962 0.19511 0.0
C950 C 0.27627 0.1231 0.18901 0.0
C951 C 0.21475 0.14672 0.17001 0.0
C952 C 0.23697 0.14154 0.17679 0.0
H953 H 0.31654 0.06139 0.18202 0.0
H954 H 0.28825 0.08551 0.17046 0.0
H955 H 0.26498 0.12759 0.22169 0.0
H956 H 0.1885 0.16842 0.12734 0.0
H957 H 0.2243 0.16702 0.14331 0.0
C958 C 0.22866 0.07683 0.47538 0.0
C959 C 0.21634 0.09445 0.48195 0.0
C960 C 0.2203 0.0619 0.46058 0.0
C961 C 0.20213 0.0372 0.42217 0.0
H962 H 0.14385 0.01737 0.43348 0.0
C963 C 0.16511 0.96523 0.37625 0.0
C964 C 0.15674 0.94929 0.38998 0.0
C965 C 0.16943 0.98597 0.38405 0.0
C966 C 0.16008 0.02285 0.43003 0.0
H967 H 0.18596 0.11078 0.47728 0.0
H968 H 0.17157 0.08487 0.45143 0.0
H969 H 0.15864 0.0479 0.4536 0.0
H970 H 0.14487 0.94303 0.42221 0.0
H971 H 0.15248 0.97904 0.43577 0.0
H972 H 0.20393 0.01138 0.3994 0.0
C973 C 0.1875 0.08237 0.45801 0.0
C974 C 0.16851 0.04044 0.44142 0.0
C975 C 0.1958 0.09722 0.47283 0.0
C976 C 0.1515 0.95487 0.41125 0.0
C977 C 0.1557 0.97559 0.41899 0.0
C978 C 0.19369 0.0196 0.41076 0.0
C979 C 0.1995 0.06436 0.452 0.0
C980 C 0.18982 0.04744 0.43801 0.0
C981 C 0.16528 0.99117 0.40565 0.0
C982 C 0.17279 0.01189 0.41502 0.0
H983 H 0.24453 0.07423 0.48208 0.0
H984 H 0.22984 0.04803 0.45645 0.0
H985 H 0.21849 0.04244 0.41899 0.0
H986 H 0.16925 0.96148 0.35974 0.0
H987 H 0.17659 -0.00224 0.37336 0.0
C988 C 0.18304 0.95051 0.74006 0.0
C989 C 0.18029 0.97029 0.7296 0.0
C990 C 0.20271 0.9399 0.73899 0.0
C991 C 0.26019 0.94751 0.72366 0.0
H992 H 0.25651 0.88691 0.70879 0.0
C993 C 0.30949 0.88545 0.6688 0.0
C994 C 0.3308 0.89054 0.67477 0.0
C995 C 0.29231 0.89251 0.68119 0.0
C996 C 0.25783 0.9038 0.71305 0.0
H997 H 0.19611 0.99479 0.71033 0.0
H998 H 0.23016 0.97614 0.70803 0.0
H999 H 0.22422 0.90573 0.71973 0.0
H1000 H 0.35076 0.90599 0.69925 0.0
H1001 H 0.32059 0.9183 0.72098 0.0
H1002 H 0.29353 0.94591 0.71559 0.0
C1003 C 0.21733 0.96893 0.71741 0.0
C1004 C 0.23935 0.91456 0.71955 0.0
C1005 C 0.19772 0.97954 0.71854 0.0
C1006 C 0.33454 0.9019 0.6941 0.0
C1007 C 0.31727 0.90904 0.70651 0.0
C1008 C 0.27865 0.93678 0.71708 0.0
C1009 C 0.22 0.94886 0.72739 0.0
C1010 C 0.24018 0.93672 0.72418 0.0
C1011 C 0.29596 0.90484 0.69989 0.0
C1012 C 0.27751 0.91499 0.71095 0.0
H1013 H 0.16994 0.94307 0.74888 0.0
H1014 H 0.20431 0.92458 0.74705 0.0
H1015 H 0.26144 0.96449 0.72755 0.0
H1016 H 0.30598 0.8766 0.65412 0.0
H1017 H 0.27612 0.88921 0.67544 0.0
C1018 C 0.23615 0.92874 0.94508 0.0
C1019 C 0.23624 0.92654 0.96753 0.0
C1020 C 0.25439 0.93651 0.93447 0.0
C1021 C 0.31305 0.9487 0.94333 0.0
H1022 H 0.30466 0.98535 0.89378 0.0
C1023 C 0.36244 0.02231 0.91826 0.0
C1024 C 0.36306 0.02741 0.89623 0.0
C1025 C 0.35344 0.0028 0.925 0.0
C1026 C 0.30737 0.97469 0.90727 0.0
H1027 H 0.25498 0.93125 -0.00335 0.0
H1028 H 0.28624 0.94642 0.97843 0.0
H1029 H 0.27396 0.96741 0.9097 0.0
H1030 H 0.35838 0.01448 0.86395 0.0
H1031 H 0.34229 0.98068 0.87583 0.0
H1032 H 0.34643 0.95792 0.94177 0.0
C1033 C 0.2726 0.9412 0.96877 0.0
C1034 C 0.28969 0.96437 0.91647 0.0
C1035 C 0.25456 0.93288 0.97929 0.0
C1036 C 0.35764 0.01131 0.88107 0.0
C1037 C 0.34849 0.99189 0.88782 0.0
C1038 C 0.33072 0.95948 0.93436 0.0
C1039 C 0.27291 0.94279 0.94617 0.0
C1040 C 0.29217 0.95168 0.93498 0.0
C1041 C 0.3449 0.98822 0.90979 0.0
C1042 C 0.3279 0.97293 0.91653 0.0
H1043 H 0.22235 0.92348 0.93562 0.0
H1044 H 0.25406 0.93712 0.91706 0.0
H1045 H 0.31571 0.93855 0.95719 0.0
H1046 H 0.36695 0.03416 0.93036 0.0
H1047 H 0.35096 0.00027 0.94206 0.0
C1048 C 0.30855 0.00199 0.26466 0.0
C1049 C 0.31128 0.02213 0.27474 0.0
C1050 C 0.29929 0.9848 0.2757 0.0
C1051 C 0.29055 0.96455 0.33036 0.0
H1052 H 0.24934 0.92654 0.30202 0.0
C1053 C 0.23066 0.90823 0.37266 0.0
C1054 C 0.22158 0.89137 0.3604 0.0
C1055 C 0.24766 0.92048 0.36433 0.0
C1056 C 0.26129 0.93659 0.31005 0.0
H1057 H 0.30557 0.04035 0.30398 0.0
H1058 H 0.28896 0.01016 0.32328 0.0
H1059 H 0.26398 0.95708 0.28268 0.0
H1060 H 0.22536 0.87148 0.33202 0.0
H1061 H 0.25579 0.89212 0.318 0.0
H1062 H 0.28738 0.94416 0.35798 0.0
C1063 C 0.29437 0.00771 0.3069 0.0
C1064 C 0.2695 0.95427 0.29898 0.0
C1065 C 0.30355 0.02504 0.29576 0.0
C1066 C 0.23194 0.88465 0.34158 0.0
C1067 C 0.2492 0.89661 0.33347 0.0
C1068 C 0.28232 0.94674 0.34149 0.0
C1069 C 0.29258 0.98733 0.29709 0.0
C1070 C 0.28403 0.96856 0.30906 0.0
C1071 C 0.2559 0.91574 0.34383 0.0
C1072 C 0.26742 0.93268 0.3315 0.0
H1073 H 0.31431 -0.00073 0.24845 0.0
H1074 H 0.29818 0.96928 0.26773 0.0
H1075 H 0.30203 0.97514 0.33839 0.0
H1076 H 0.22294 0.91372 0.38726 0.0
H1077 H 0.25254 0.935 0.37284 0.0
C1078 C 0.31916 0.07983 0.53127 0.0
C1079 C 0.29825 0.07951 0.53983 0.0
C1080 C 0.33467 0.06561 0.53892 0.0
C1081 C 0.34667 0.03184 0.58613 0.0
H1082 H 0.37985 -0.00272 0.54656 0.0
C1083 C 0.3894 0.95727 0.61665 0.0
C1084 C 0.38283 0.93894 0.60489 0.0
C1085 C 0.38679 0.97783 0.60795 0.0
C1086 C 0.3709 0.007 0.55784 0.0
H1087 H 0.27698 0.06363 0.56254 0.0
H1088 H 0.30382 0.03872 0.57559 0.0
H1089 H 0.35845 0.02694 0.53277 0.0
H1090 H 0.37048 0.92766 0.57405 0.0
H1091 H 0.36565 0.96318 0.55916 0.0
H1092 H 0.35777 0.01111 0.61098 0.0
C1093 C 0.30843 0.05024 0.56334 0.0
C1094 C 0.35875 0.02404 0.54995 0.0
C1095 C 0.29297 0.06435 0.55569 0.0
C1096 C 0.37531 0.94147 0.5837 0.0
C1097 C 0.37283 0.9619 0.57501 0.0
C1098 C 0.35876 0.01483 0.594 0.0
C1099 C 0.32953 0.05095 0.55532 0.0
C1100 C 0.34571 0.03593 0.56392 0.0
C1101 C 0.37776 0.98034 0.58731 0.0
C1102 C 0.37017 0.00158 0.5798 0.0
H1103 H 0.3237 0.09141 0.51905 0.0
H1104 H 0.35079 0.06643 0.53239 0.0
H1105 H 0.33716 0.04111 0.59732 0.0
H1106 H 0.39547 0.95582 0.63294 0.0
H1107 H 0.39097 0.99177 0.61771 0.0
C1108 C 0.15862 0.02475 0.79475 0.0
C1109 C 0.14301 0.03806 0.78553 0.0
C1110 C 0.17198 0.0325 0.81119 0.0
C1111 C 0.19629 0.08332 0.82709 0.0
H1112 H 0.2247 0.04724 0.86902 0.0
C1113 C 0.27973 0.08089 0.88089 0.0
C1114 C 0.29411 0.0853 0.86398 0.0
C1115 C 0.25767 0.07865 0.8768 0.0
C1116 C 0.21667 0.05774 0.85776 0.0
H1117 H 0.12793 0.06935 0.7877 0.0
H1118 H 0.15135 0.08283 0.81643 0.0
H1119 H 0.19029 0.0356 0.8535 0.0
H1120 H 0.29652 0.09158 0.82971 0.0
H1121 H 0.25825 0.08765 0.82265 0.0
H1122 H 0.22311 0.10496 0.8306 0.0
C1123 C 0.15341 0.06651 0.81067 0.0
C1124 C 0.19708 0.051 0.84874 0.0
C1125 C 0.14002 0.05876 0.7942 0.0
C1126 C 0.28593 0.08805 0.84308 0.0
C1127 C 0.26395 0.08605 0.83907 0.0
C1128 C 0.21584 0.09003 0.83608 0.0
C1129 C 0.17002 0.05372 0.8188 0.0
C1130 C 0.18726 0.06322 0.83253 0.0
C1131 C 0.24962 0.08112 0.85581 0.0
C1132 C 0.22672 0.07678 0.85066 0.0
H1133 H 0.16125 0.00865 0.78863 0.0
H1134 H 0.18476 0.02228 0.81691 0.0
H1135 H 0.1892 0.09311 0.81461 0.0
H1136 H 0.28555 0.07869 0.89718 0.0
H1137 H 0.24694 0.07481 0.88997 0.0
C1138 C 0.17325 0.91979 0.05938 0.0
C1139 C 0.17375 0.91777 0.03693 0.0
C1140 C 0.16144 0.93606 0.06901 0.0
C1141 C 0.12358 0.98112 0.05765 0.0
H1142 H 0.15518 0.00798 0.10483 0.0
C1143 C 0.12279 0.07126 0.07942 0.0
C1144 C 0.12101 0.07689 0.10127 0.0
C1145 C 0.12419 0.04972 0.07327 0.0
C1146 C 0.14595 0.00045 0.09194 0.0
H1147 H 0.1618 0.93022 0.00677 0.0
H1148 H 0.1422 0.95975 0.02342 0.0
H1149 H 0.16683 0.97366 0.0908 0.0
H1150 H 0.11875 0.06441 0.13377 0.0
H1151 H 0.12198 0.02665 0.12295 0.0
H1152 H 0.10375 0.00914 0.05802 0.0
C1153 C 0.15021 0.94837 0.03378 0.0
C1154 C 0.15253 0.98067 0.0839 0.0
C1155 C 0.16154 0.93159 0.02417 0.0
C1156 C 0.1202 0.06053 0.11682 0.0
C1157 C 0.12199 0.03899 0.11067 0.0
C1158 C 0.11726 0.00118 0.06548 0.0
C1159 C 0.15055 0.95117 0.05632 0.0
C1160 C 0.14169 0.97089 0.06639 0.0
C1161 C 0.12416 0.03347 0.08886 0.0
C1162 C 0.12866 0.01112 0.08244 0.0
H1163 H 0.18231 0.90896 0.06949 0.0
H1164 H 0.16149 0.93721 0.08641 0.0
H1165 H 0.11459 0.9739 0.04446 0.0
H1166 H 0.12319 0.08351 0.06706 0.0
H1167 H 0.12611 0.04583 0.05637 0.0
C1168 C 0.22896 0.36466 0.07699 0.0
C1169 C 0.24426 0.35678 0.06245 0.0
C1170 C 0.2154 0.35035 0.08803 0.0
C1171 C 0.20822 0.29352 0.10328 0.0
H1172 H 0.14846 0.29973 0.08637 0.0
C1173 C 0.15516 0.22108 0.08665 0.0
C1174 C 0.13399 0.22017 0.0945 0.0
C1175 C 0.16731 0.23996 0.08817 0.0
C1176 C 0.16496 0.298 0.09171 0.0
H1177 H 0.25853 0.32807 0.04911 0.0
H1178 H 0.23542 0.30316 0.06878 0.0
H1179 H 0.1738 0.32978 0.08141 0.0
H1180 H 0.10871 0.23883 0.10934 0.0
H1181 H 0.13011 0.27225 0.11163 0.0
H1182 H 0.19975 0.26143 0.11251 0.0
C1183 C 0.23368 0.32028 0.07156 0.0
C1184 C 0.17943 0.31519 0.08893 0.0
C1185 C 0.24681 0.3345 0.0602 0.0
C1186 C 0.12496 0.23899 0.10311 0.0
C1187 C 0.1372 0.25807 0.10453 0.0
C1188 C 0.1938 0.27644 0.10613 0.0
C1189 C 0.21743 0.32804 0.08506 0.0
C1190 C 0.20138 0.31267 0.09371 0.0
C1191 C 0.15866 0.25851 0.09752 0.0
C1192 C 0.1723 0.27814 0.09932 0.0
H1193 H 0.22664 0.38181 0.07884 0.0
H1194 H 0.20295 0.35667 0.09833 0.0
H1195 H 0.22503 0.29131 0.10731 0.0
H1196 H 0.16262 0.20703 0.07968 0.0
H1197 H 0.1836 0.24001 0.08203 0.0
C1198 C 0.69425 0.19319 0.97495 0.0
C1199 C 0.70143 0.17217 0.97122 0.0
C1200 C 0.68931 0.20658 0.95773 0.0
C1201 C 0.69949 0.21765 0.90135 0.0
H1202 H 0.64524 0.24748 0.9053 0.0
C1203 C 0.64481 0.28941 0.86107 0.0
C1204 C 0.66049 0.3059 0.86188 0.0
C1205 C 0.65001 0.26847 0.86703 0.0
C1206 C 0.66022 0.23895 0.90358 0.0
H1207 H 0.70993 0.14903 0.94645 0.0
H1208 H 0.70148 0.17274 0.9163 0.0
H1209 H 0.65414 0.22049 0.93191 0.0
H1210 H 0.69458 0.31266 0.86644 0.0
H1211 H 0.70349 0.27635 0.87725 0.0
H1212 H 0.70591 0.23689 0.87343 0.0
C1213 C 0.69952 0.17863 0.9326 0.0
C1214 C 0.66543 0.22371 0.91903 0.0
C1215 C 0.70424 0.16509 0.94986 0.0
C1216 C 0.68201 0.30043 0.86598 0.0
C1217 C 0.68718 0.27951 0.87206 0.0
C1218 C 0.69435 0.23312 0.8859 0.0
C1219 C 0.69164 0.19934 0.93643 0.0
C1220 C 0.68534 0.2134 0.91843 0.0
C1221 C 0.67094 0.2637 0.874 0.0
C1222 C 0.67487 0.24432 0.8872 0.0
H1223 H 0.692 0.19918 0.99118 0.0
H1224 H 0.68356 0.22264 0.96107 0.0
H1225 H 0.71493 0.20981 0.90056 0.0
H1226 H 0.62816 0.29296 0.85747 0.0
H1227 H 0.63728 0.25643 0.86784 0.0
C1228 C 0.09365 0.44064 0.22104 0.0
C1229 C 0.10065 0.45357 0.20388 0.0
C1230 C 0.07651 0.42618 0.21818 0.0
C1231 C 0.02952 0.41373 0.21054 0.0
H1232 H 0.02085 0.37874 0.15931 0.0
C1233 C 0.9463 0.38885 0.17702 0.0
C1234 C 0.9439 0.36816 0.16803 0.0
C1235 C 0.96637 0.39606 0.18447 0.0
C1236 C 0.02315 0.38818 0.17386 0.0
H1237 H 0.0963 0.46057 0.16999 0.0
H1238 H 0.06643 0.43522 0.16495 0.0
H1239 H 0.05576 0.39606 0.16581 0.0
H1240 H 0.96052 0.33838 0.16096 0.0
H1241 H -0.00458 0.35106 0.17391 0.0
H1242 H -0.0033 0.40638 0.21825 0.0
C1243 C 0.07413 0.43628 0.1806 0.0
C1244 C 0.04305 0.39819 0.17747 0.0
C1245 C 0.09114 0.45087 0.18351 0.0
C1246 C 0.96178 0.3545 0.16758 0.0
C1247 C 0.98182 0.36174 0.17494 0.0
C1248 C 0.00956 0.40385 0.20684 0.0
C1249 C 0.06628 0.42426 0.19806 0.0
C1250 C 0.04628 0.41137 0.19563 0.0
C1251 C 0.9844 0.38273 0.18302 0.0
C1252 C 0.00608 0.39131 0.18827 0.0
H1253 H 0.10078 0.44234 0.23692 0.0
H1254 H 0.07086 0.41692 0.23182 0.0
H1255 H 0.03154 0.42399 0.22456 0.0
H1256 H 0.93286 0.39976 0.17768 0.0
H1257 H 0.96796 0.4124 0.19048 0.0
C1258 C 0.78311 0.82389 0.44122 0.0
C1259 C 0.79523 0.82426 0.46039 0.0
C1260 C 0.78475 0.80672 0.42681 0.0
C1261 C 0.79622 0.74992 0.42576 0.0
H1262 H 0.80889 0.75682 0.36502 0.0
C1263 C 0.83794 0.69476 0.36153 0.0
C1264 C 0.8274 0.67525 0.36649 0.0
C1265 C 0.82887 0.71434 0.36743 0.0
C1266 C 0.80505 0.75473 0.38189 0.0
H1267 H 0.81884 0.80727 0.47939 0.0
H1268 H 0.82142 0.77695 0.45429 0.0
H1269 H 0.80483 0.78876 0.38802 0.0
H1270 H 0.7976 0.66112 0.37836 0.0
H1271 H 0.78187 0.69532 0.38862 0.0
H1272 H 0.79699 0.71608 0.42004 0.0
C1273 C 0.81072 0.79003 0.45047 0.0
C1274 C 0.80276 0.77292 0.39499 0.0
C1275 C 0.80933 0.80737 0.46473 0.0
C1276 C 0.8064 0.67583 0.37479 0.0
C1277 C 0.79735 0.6954 0.38068 0.0
C1278 C 0.7982 0.73182 0.41268 0.0
C1279 C 0.79828 0.78949 0.43151 0.0
C1280 C 0.79892 0.77057 0.41714 0.0
C1281 C 0.80911 0.71468 0.37829 0.0
C1282 C 0.80312 0.73402 0.39073 0.0
H1283 H 0.77218 0.83679 0.43743 0.0
H1284 H 0.77499 0.80659 0.41231 0.0
H1285 H 0.79298 0.74776 0.44275 0.0
H1286 H 0.85399 0.69493 0.35481 0.0
H1287 H 0.83826 0.72898 0.36531 0.0
C1288 C 0.90437 0.03716 0.20389 0.0
C1289 C 0.8915 0.02416 0.19036 0.0
C1290 C 0.91904 0.05181 0.19518 0.0
C1291 C 0.93754 0.07835 0.14493 0.0
H1292 H 0.99308 0.07412 0.17313 0.0
C1293 C 0.03376 0.09812 0.13193 0.0
C1294 C 0.03353 0.12007 0.12672 0.0
C1295 C 0.01473 0.08723 0.13682 0.0
C1296 C 0.97773 0.07536 0.16494 0.0
H1297 H 0.88291 0.01721 0.15714 0.0
H1298 H 0.90914 0.04238 0.14187 0.0
H1299 H 0.96237 0.05513 0.18795 0.0
H1300 H 0.01312 0.14752 0.12102 0.0
H1301 H 0.97963 0.12844 0.13011 0.0
H1302 H 0.95344 0.09826 0.12152 0.0
C1303 C 0.90763 0.04148 0.15921 0.0
C1304 C 0.96001 0.06476 0.17365 0.0
C1305 C 0.89271 0.02697 0.16795 0.0
C1306 C 0.01372 0.13059 0.12505 0.0
C1307 C 0.99458 0.11968 0.1302 0.0
C1308 C 0.95542 0.08905 0.13615 0.0
C1309 C 0.92142 0.05353 0.17276 0.0
C1310 C 0.93972 0.06603 0.16376 0.0
C1311 C 0.99506 0.09811 0.1369 0.0
C1312 C 0.97574 0.08739 0.14597 0.0
H1313 H 0.90346 0.03568 0.22123 0.0
H1314 H 0.92904 0.06129 0.20604 0.0
H1315 H 0.92206 0.0797 0.13701 0.0
H1316 H 0.04877 0.0895 0.1329 0.0
H1317 H 0.01551 0.07043 0.14133 0.0
C1318 C 0.26383 0.65049 0.58124 0.0
C1319 C 0.2719 0.64418 0.56111 0.0
C1320 C 0.2729 0.66807 0.59219 0.0
C1321 C 0.32126 0.70277 0.59495 0.0
H1322 H 0.28217 0.7466 0.61513 0.0
C1323 C 0.32528 0.79867 0.60941 0.0
C1324 C 0.3456 0.80012 0.61928 0.0
C1325 C 0.31481 0.77872 0.60741 0.0
C1326 C 0.29326 0.73446 0.60965 0.0
H1327 H 0.29621 0.65072 0.53699 0.0
H1328 H 0.31205 0.68141 0.5561 0.0
H1329 H 0.26775 0.7125 0.60112 0.0
H1330 H 0.36991 0.78243 0.63676 0.0
H1331 H 0.35144 0.74779 0.63367 0.0
H1332 H 0.34671 0.72492 0.60243 0.0
C1333 C 0.29879 0.67273 0.56347 0.0
C1334 C 0.28504 0.71489 0.60183 0.0
C1335 C 0.28966 0.65524 0.55247 0.0
C1336 C 0.35446 0.78167 0.62862 0.0
C1337 C 0.34391 0.76184 0.62684 0.0
C1338 C 0.32946 0.72225 0.60279 0.0
C1339 C 0.29029 0.6795 0.58327 0.0
C1340 C 0.29897 0.69909 0.59395 0.0
C1341 C 0.32442 0.76 0.61545 0.0
C1342 C 0.31554 0.73847 0.60981 0.0
H1343 H 0.25022 0.64217 0.58835 0.0
H1344 H 0.2662 0.67282 0.60754 0.0
H1345 H 0.33236 0.69076 0.5892 0.0
H1346 H 0.31808 0.81268 0.60213 0.0
H1347 H 0.29984 0.7778 0.59845 0.0
C1348 C 0.07416 0.52286 0.26136 0.0
C1349 C 0.06725 0.51868 0.24013 0.0
C1350 C 0.05988 0.53084 0.27662 0.0
C1351 C 0.0107 0.56198 0.28019 0.0
H1352 H 0.00716 0.54027 0.33857 0.0
C1353 C 0.9541 0.60085 0.34002 0.0
C1354 C 0.93945 0.58609 0.34912 0.0
C1355 C 0.973 0.59365 0.33051 0.0
C1356 C 0.0081 0.54655 0.32235 0.0
H1357 H 0.03971 0.51883 0.21852 0.0
H1358 H 0.01481 0.53277 0.24523 0.0
H1359 H 0.03246 0.52422 0.3132 0.0
H1360 H 0.93438 0.5525 0.35753 0.0
H1361 H 0.96725 0.54001 0.34082 0.0
H1362 H 0.98603 0.58387 0.28898 0.0
C1363 C 0.03136 0.5301 0.24992 0.0
C1364 C 0.02258 0.53743 0.30789 0.0
C1365 C 0.04559 0.522 0.23468 0.0
C1366 C 0.94516 0.56429 0.35042 0.0
C1367 C 0.96409 0.55712 0.34094 0.0
C1368 C -0.00363 0.57116 0.29463 0.0
C1369 C 0.03847 0.5349 0.27093 0.0
C1370 C 0.02374 0.54487 0.28659 0.0
C1371 C 0.97764 0.57159 0.33001 0.0
C1372 C 0.99473 0.56338 0.31578 0.0
H1373 H 0.0907 0.52034 0.26615 0.0
H1374 H 0.06578 0.53446 0.29268 0.0
H1375 H 0.0115 0.56822 0.26394 0.0
H1376 H 0.95036 0.6178 0.33896 0.0
H1377 H 0.98343 0.60521 0.32255 0.0
C1378 C 0.42748 0.48358 0.80689 0.0
C1379 C 0.42145 0.46607 0.79368 0.0
C1380 C 0.44365 0.48131 0.82243 0.0
C1381 C 0.46962 0.44309 0.85703 0.0
H1382 H 0.52425 0.47103 0.84478 0.0
C1383 C 0.54925 0.40376 0.87464 0.0
C1384 C 0.5684 0.41598 0.87471 0.0
C1385 C 0.52941 0.41386 0.87298 0.0
C1386 C 0.50905 0.46357 0.84909 0.0
H1387 H 0.42715 0.43245 0.78653 0.0
H1388 H 0.45501 0.42838 0.81404 0.0
H1389 H 0.49221 0.48171 0.82522 0.0
H1390 H 0.58171 0.44839 0.87615 0.0
H1391 H 0.54699 0.46608 0.87417 0.0
H1392 H 0.4863 0.42466 0.88062 0.0
C1393 C 0.44735 0.44384 0.81223 0.0
C1394 C 0.49072 0.46966 0.83771 0.0
C1395 C 0.43161 0.44624 0.79639 0.0
C1396 C 0.56721 0.43853 0.87564 0.0
C1397 C 0.5473 0.44867 0.87437 0.0
C1398 C 0.48785 0.43731 0.86877 0.0
C1399 C 0.45349 0.46134 0.82531 0.0
C1400 C 0.47116 0.45873 0.84089 0.0
C1401 C 0.52825 0.43644 0.87172 0.0
C1402 C 0.50806 0.44662 0.86408 0.0
H1403 H 0.41985 0.49905 0.80509 0.0
H1404 H 0.44837 0.49503 0.83226 0.0
H1405 H 0.45454 0.43464 0.85983 0.0
H1406 H 0.54958 0.38634 0.87401 0.0
H1407 H 0.51524 0.40376 0.87087 0.0
C1408 C 0.96941 0.74973 0.68521 0.0
C1409 C 0.98089 0.76384 0.67172 0.0
C1410 C 0.95698 0.75777 0.70205 0.0
C1411 C 0.92835 0.80639 0.71837 0.0
H1412 H 0.9302 0.78193 0.77564 0.0
C1413 C 0.89586 0.84981 0.7933 0.0
C1414 C 0.88751 0.83743 0.81029 0.0
C1415 C 0.90433 0.83983 0.77509 0.0
C1416 C 0.92914 0.7887 0.75963 0.0
H1417 H 0.98896 0.79736 0.66572 0.0
H1418 H 0.96732 0.81135 0.69514 0.0
H1419 H 0.95187 0.76632 0.7471 0.0
H1420 H 0.87992 0.8049 0.82067 0.0
H1421 H 0.89427 0.78754 0.78867 0.0
H1422 H 0.90569 0.82881 0.73085 0.0
C1423 C 0.96771 0.79411 0.69252 0.0
C1424 C 0.94166 0.7798 0.74333 0.0
C1425 C 0.98025 0.78607 0.6758 0.0
C1426 C 0.88649 0.81491 0.808 0.0
C1427 C 0.89484 0.80494 0.78972 0.0
C1428 C 0.91572 0.81521 0.73463 0.0
C1429 C 0.9557 0.78007 0.70559 0.0
C1430 C 0.94164 0.78877 0.72263 0.0
C1431 C 0.9045 0.81725 0.77339 0.0
C1432 C 0.91621 0.80667 0.75554 0.0
H1433 H 0.9696 0.73251 0.68245 0.0
H1434 H 0.94785 0.74659 0.71188 0.0
H1435 H 0.92773 0.81337 0.70243 0.0
H1436 H 0.89694 0.86719 0.79454 0.0
H1437 H 0.91178 0.84981 0.76289 0.0
C1438 C 0.01544 0.26378 0.45113 0.0
C1439 C 0.00133 0.26658 0.43363 0.0
C1440 C 0.01091 0.24824 0.46684 0.0
C1441 C 0.97707 0.19957 0.47694 0.0
H1442 H 0.97786 0.2189 0.53633 0.0
C1443 C 0.92012 0.16631 0.5417 0.0
C1444 C 0.92741 0.1653 0.56311 0.0
C1445 C 0.93353 0.17452 0.5256 0.0
C1446 C 0.97795 0.21302 0.51989 0.0
H1447 H 0.97164 0.2549 0.41877 0.0
H1448 H 0.96381 0.22832 0.44599 0.0
H1449 H 0.99412 0.24142 0.50867 0.0
H1450 H 0.95511 0.17055 0.58405 0.0
H1451 H 0.97838 0.18475 0.55597 0.0
H1452 H 0.96003 0.1716 0.48806 0.0
C1453 C 0.97848 0.23782 0.44753 0.0
C1454 C 0.9873 0.22594 0.50404 0.0
C1455 C 0.98289 0.25331 0.43202 0.0
C1456 C 0.94881 0.17143 0.56779 0.0
C1457 C 0.96219 0.17961 0.55172 0.0
C1458 C 0.96767 0.18668 0.49277 0.0
C1459 C 0.99234 0.23514 0.46517 0.0
C1460 C 0.98628 0.21969 0.48231 0.0
C1461 C 0.9545 0.18182 0.53059 0.0
C1462 C 0.96741 0.1936 0.51431 0.0
H1463 H 0.02981 0.27369 0.45282 0.0
H1464 H 0.02189 0.2465 0.48029 0.0
H1465 H 0.97642 0.19414 0.46035 0.0
H1466 H 0.90378 0.16167 0.53751 0.0
H1467 H 0.92707 0.17617 0.50948 0.0
C1468 C 0.56515 0.22601 0.18259 0.0
C1469 C 0.56711 0.21149 0.1653 0.0
C1470 C 0.57512 0.22182 0.20235 0.0
C1471 C 0.61593 0.18693 0.22846 0.0
H1472 H 0.57939 0.19254 0.27852 0.0
C1473 C 0.62387 0.13514 0.30471 0.0
C1474 C 0.61976 0.14473 0.32478 0.0
C1475 C 0.62143 0.14688 0.28572 0.0
C1476 C 0.58999 0.19123 0.26479 0.0
H1477 H 0.58174 0.18155 0.1551 0.0
H1478 H 0.59856 0.17416 0.1894 0.0
H1479 H 0.56775 0.20729 0.24425 0.0
H1480 H 0.61108 0.17465 0.34063 0.0
H1481 H 0.60679 0.19494 0.30755 0.0
H1482 H 0.63769 0.16995 0.24893 0.0
C1483 C 0.58966 0.18893 0.1877 0.0
C1484 C 0.58334 0.19975 0.24514 0.0
C1485 C 0.57977 0.19309 0.16803 0.0
C1486 C 0.61413 0.16661 0.32546 0.0
C1487 C 0.61163 0.17828 0.30651 0.0
C1488 C 0.62252 0.1783 0.2481 0.0
C1489 C 0.58725 0.20308 0.20519 0.0
C1490 C 0.59595 0.19717 0.22662 0.0
C1491 C 0.61478 0.16842 0.28644 0.0
C1492 C 0.60935 0.17991 0.26632 0.0
H1493 H 0.55565 0.2404 0.181 0.0
H1494 H 0.57313 0.23314 0.21548 0.0
H1495 H 0.62621 0.18506 0.21456 0.0
H1496 H 0.62833 0.11838 0.30357 0.0
H1497 H 0.62381 0.13881 0.27044 0.0
C1498 C 0.53656 0.82047 0.91235 0.0
C1499 C 0.55269 0.81266 0.89882 0.0
C1500 C 0.54089 0.83774 0.9262 0.0
C1501 C 0.58802 0.8616 0.9536 0.0
H1502 H 0.54372 0.89422 0.98233 0.0
C1503 C 0.60431 0.89549 0.03676 0.0
C1504 C 0.58994 0.88609 0.05154 0.0
C1505 C 0.59916 0.89612 0.01488 0.0
C1506 C 0.55633 0.88549 0.97424 0.0
H1507 H 0.58515 0.8179 0.88733 0.0
H1508 H 0.59244 0.84885 0.91063 0.0
H1509 H 0.53609 0.87764 0.94732 0.0
H1510 H 0.55796 0.87218 0.05524 0.0
H1511 H 0.54913 0.87308 0.01707 0.0
H1512 H 0.608 0.86883 0.98072 0.0
C1513 C 0.57677 0.84109 0.91141 0.0
C1514 C 0.55196 0.87584 0.95429 0.0
C1515 C 0.57262 0.82343 0.898 0.0
C1516 C 0.56955 0.87918 0.04425 0.0
C1517 C 0.56436 0.87995 0.02239 0.0
C1518 C 0.59248 0.87152 0.97327 0.0
C1519 C 0.56131 0.84784 0.92643 0.0
C1520 C 0.56739 0.86278 0.9443 0.0
C1521 C 0.5795 0.88754 0.00741 0.0
C1522 C 0.57636 0.88262 0.98429 0.0
H1523 H 0.52103 0.8124 0.91321 0.0
H1524 H 0.52861 0.84217 0.93763 0.0
H1525 H 0.60032 0.85155 0.9467 0.0
H1526 H 0.62003 0.90131 0.04185 0.0
H1527 H 0.61103 0.90223 0.00365 0.0
C1528 C 0.89326 0.2289 0.84732 0.0
C1529 C 0.90205 0.21103 0.85775 0.0
C1530 C 0.87889 0.22585 0.83016 0.0
C1531 C 0.85217 0.1832 0.79589 0.0
H1532 H 0.883 0.21308 0.75067 0.0
C1533 C 0.87282 0.14418 0.71478 0.0
C1534 C 0.8762 0.15737 0.69681 0.0
C1535 C 0.86713 0.15329 0.73457 0.0
C1536 C 0.87367 0.20487 0.76289 0.0
H1537 H 0.9003 0.17632 0.86088 0.0
H1538 H 0.87583 0.17096 0.83087 0.0
H1539 H 0.88602 0.22592 0.78715 0.0
H1540 H 0.87427 0.19002 0.68476 0.0
H1541 H 0.86374 0.20575 0.71893 0.0
H1542 H 0.84091 0.16132 0.77143 0.0
C1543 C 0.87981 0.18731 0.83566 0.0
C1544 C 0.87534 0.21236 0.78398 0.0
C1545 C 0.89409 0.19036 0.85277 0.0
C1546 C 0.87243 0.17955 0.69857 0.0
C1547 C 0.86633 0.18856 0.71813 0.0
C1548 C 0.85045 0.17569 0.77468 0.0
C1549 C 0.87327 0.20492 0.82321 0.0
C1550 C 0.86554 0.20099 0.80088 0.0
C1551 C 0.86431 0.17569 0.73657 0.0
C1552 C 0.86204 0.18588 0.75811 0.0
H1553 H 0.89886 0.24506 0.85109 0.0
H1554 H 0.8737 0.23977 0.82117 0.0
H1555 H 0.84415 0.17429 0.80855 0.0
H1556 H 0.8754 0.127 0.71374 0.0
H1557 H 0.86594 0.1429 0.74848 0.0
C1558 C 0.54362 0.16294 0.60584 0.0
C1559 C 0.52375 0.17345 0.60567 0.0
C1560 C 0.54778 0.14664 0.591 0.0
C1561 C 0.53119 0.13413 0.53615 0.0
H1562 H 0.57751 0.09316 0.54071 0.0
C1563 C 0.57411 0.10729 0.46069 0.0
C1564 C 0.59649 0.11072 0.46183 0.0
C1565 C 0.56189 0.10609 0.47938 0.0
C1566 C 0.56442 0.10441 0.53922 0.0
H1567 H 0.4917 0.17326 0.59171 0.0
H1568 H 0.49876 0.14437 0.56614 0.0
H1569 H 0.56004 0.10627 0.57335 0.0
H1570 H 0.62383 0.11395 0.48342 0.0
H1571 H 0.60231 0.11267 0.51623 0.0
H1572 H 0.53612 0.13318 0.50227 0.0
C1573 C 0.51142 0.14928 0.57721 0.0
C1574 C 0.55442 0.11192 0.55788 0.0
C1575 C 0.50737 0.16584 0.59185 0.0
C1576 C 0.60659 0.11151 0.48208 0.0
C1577 C 0.59428 0.11054 0.50085 0.0
C1578 C 0.54103 0.12654 0.51759 0.0
C1579 C 0.53205 0.14031 0.57583 0.0
C1580 C 0.53843 0.12771 0.55657 0.0
C1581 C 0.57172 0.10854 0.49964 0.0
C1582 C 0.55841 0.11238 0.51897 0.0
H1583 H 0.55654 0.16825 0.61643 0.0
H1584 H 0.56389 0.14027 0.5904 0.0
H1585 H 0.51916 0.14645 0.5344 0.0
H1586 H 0.56592 0.10603 0.44529 0.0
H1587 H 0.5446 0.10412 0.47796 0.0
C1588 C 0.52509 0.72036 0.29984 0.0
C1589 C 0.51088 0.7329 0.31201 0.0
C1590 C 0.5406 0.73023 0.28675 0.0
C1591 C 0.55898 0.75524 0.24894 0.0
H1592 H 0.58036 0.81264 0.26246 0.0
C1593 C 0.5723 0.81781 0.18376 0.0
C1594 C 0.58743 0.83458 0.18648 0.0
C1595 C 0.56901 0.80269 0.19994 0.0
C1596 C 0.57503 0.79646 0.25845 0.0
H1597 H 0.50209 0.76564 0.32022 0.0
H1598 H 0.5283 0.78264 0.29708 0.0
H1599 H 0.56479 0.79065 0.29071 0.0
H1600 H 0.61169 0.84811 0.20798 0.0
H1601 H 0.60625 0.82135 0.23619 0.0
H1602 H 0.56941 0.76097 0.21671 0.0
C1603 C 0.52808 0.76524 0.298 0.0
C1604 C 0.56578 0.78393 0.27463 0.0
C1605 C 0.51279 0.75543 0.31114 0.0
C1606 C 0.59967 0.83554 0.20555 0.0
C1607 C 0.59656 0.8202 0.2217 0.0
C1608 C 0.56857 0.76763 0.23282 0.0
C1609 C 0.54207 0.75282 0.28548 0.0
C1610 C 0.55656 0.76367 0.26981 0.0
C1611 C 0.58097 0.80374 0.21919 0.0
C1612 C 0.57562 0.78883 0.23712 0.0
H1613 H 0.52418 0.70295 0.30033 0.0
H1614 H 0.55126 0.72018 0.27748 0.0
H1615 H 0.5522 0.73967 0.24461 0.0
H1616 H 0.56254 0.81663 0.1693 0.0
H1617 H 0.55648 0.79064 0.19758 0.0
C1618 C 0.96309 0.76947 0.08925 0.0
C1619 C 0.98539 0.76672 0.08731 0.0
C1620 C 0.95185 0.78177 0.07425 0.0
C1621 C 0.95985 0.8231 0.0319 0.0
H1622 H 0.9046 0.80204 0.01091 0.0
C1623 C 0.92225 0.84867 0.95133 0.0
C1624 C 0.89979 0.85082 0.9499 0.0
C1625 C 0.93188 0.84183 0.9704 0.0
C1626 C 0.91982 0.80837 0.01689 0.0
H1627 H 0.01341 0.77457 0.06805 0.0
H1628 H 0.99377 0.7956 0.04163 0.0
H1629 H 0.92301 0.78268 0.03943 0.0
H1630 H 0.86997 0.84854 0.96782 0.0
H1631 H 0.88688 0.83647 0.00119 0.0
H1632 H 0.9569 0.84841 0.00879 0.0
C1633 C 0.98499 0.78866 0.05498 0.0
C1634 C 0.93041 0.79725 0.03323 0.0
C1635 C -0.00377 0.77643 0.07002 0.0
C1636 C 0.8873 0.84701 0.96835 0.0
C1637 C 0.89695 0.83996 0.98741 0.0
C1638 C 0.9493 0.83416 0.01549 0.0
C1639 C 0.96267 0.79154 0.05694 0.0
C1640 C 0.95072 0.80426 0.04068 0.0
C1641 C 0.91929 0.83684 0.98847 0.0
C1642 C 0.92934 0.82671 0.00757 0.0
H1643 H 0.9543 0.7623 0.10249 0.0
H1644 H 0.93472 0.78385 0.07638 0.0
H1645 H 0.97525 0.82921 0.03758 0.0
H1646 H 0.93239 0.85162 0.93748 0.0
H1647 H 0.94911 0.83944 0.97063 0.0
C1648 C 0.70178 0.9786 0.74105 0.0
C1649 C 0.68572 0.99153 0.75 0.0
C1650 C 0.71588 0.96741 0.75436 0.0
C1651 C 0.73777 0.96331 0.80938 0.0
H1652 H 0.74348 0.90299 0.79434 0.0
C1653 C 0.7876 0.90591 0.86197 0.0
C1654 C 0.80235 0.8935 0.85033 0.0
C1655 C 0.77097 0.91651 0.85126 0.0
C1656 C 0.74214 0.91981 0.79872 0.0
H1657 H 0.67287 0.00414 0.77986 0.0
H1658 H 0.6977 0.98474 0.80309 0.0
H1659 H 0.72126 0.92613 0.77209 0.0
H1660 H 0.81025 0.88117 0.81864 0.0
H1661 H 0.78147 0.89955 0.80009 0.0
H1662 H 0.75907 0.95711 0.83574 0.0
C1663 C 0.69926 0.98315 0.7858 0.0
C1664 C 0.72949 0.93308 0.78592 0.0
C1665 C 0.68505 0.99425 0.77248 0.0
C1666 C 0.79922 0.89069 0.82807 0.0
C1667 C 0.78261 0.90117 0.81742 0.0
C1668 C 0.75057 0.95005 0.82213 0.0
C1669 C 0.71431 0.96903 0.77688 0.0
C1670 C 0.72742 0.95503 0.79092 0.0
C1671 C 0.7687 0.91475 0.82876 0.0
C1672 C 0.75315 0.92821 0.81676 0.0
H1673 H 0.70278 0.97623 0.7238 0.0
H1674 H 0.72764 0.95698 0.74704 0.0
H1675 H 0.73648 0.98018 0.81359 0.0
H1676 H 0.78963 0.90845 0.87912 0.0
H1677 H 0.76029 0.92659 0.86049 0.0
C1678 C 0.82797 0.92967 0.49286 0.0
C1679 C 0.82479 0.91411 0.50892 0.0
C1680 C 0.83875 0.949 0.49765 0.0
C1681 C 0.87406 0.97592 0.53791 0.0
H1682 H 0.84152 0.0269 0.5241 0.0
C1683 C 0.87802 0.05263 0.5889 0.0
C1684 C 0.87498 0.07279 0.57923 0.0
C1685 C 0.87684 0.03379 0.57665 0.0
C1686 C 0.85116 0.01295 0.52767 0.0
H1687 H 0.8312 0.90605 0.54225 0.0
H1688 H 0.85001 0.9397 0.55059 0.0
H1689 H 0.83066 0.99231 0.50879 0.0
H1690 H 0.86954 0.08896 0.5488 0.0
H1691 H 0.86764 0.05598 0.5274 0.0
H1692 H 0.89416 -0.00354 0.55735 0.0
C1693 C 0.84428 0.93699 0.5343 0.0
C1694 C 0.84489 0.9931 0.5189 0.0
C1695 C 0.83334 0.9178 0.52957 0.0
C1696 C 0.87172 0.0737 0.55682 0.0
C1697 C 0.87058 0.0548 0.54455 0.0
C1698 C 0.88041 -0.00421 0.54658 0.0
C1699 C 0.84674 0.95296 0.51851 0.0
C1700 C 0.85583 0.9743 0.52454 0.0
C1701 C 0.87267 0.03461 0.55442 0.0
C1702 C 0.86855 0.01439 0.54218 0.0
H1703 H 0.82159 0.92721 0.47677 0.0
H1704 H 0.84053 0.96101 0.48517 0.0
H1705 H 0.88298 0.9617 0.54224 0.0
H1706 H 0.88066 0.05128 0.60608 0.0
H1707 H 0.87823 0.01852 0.58485 0.0
C1708 C 0.79881 0.01936 0.25185 0.0
C1709 C 0.81649 0.007 0.25819 0.0
C1710 C 0.78831 0.03233 0.26679 0.0
C1711 C 0.7771 0.03813 0.32393 0.0
H1712 H 0.76161 0.09625 0.30809 0.0
C1713 C 0.71967 0.08599 0.37681 0.0
C1714 C 0.70208 0.09349 0.36485 0.0
C1715 C 0.73858 0.08001 0.36633 0.0
C1716 C 0.7659 0.08009 0.3128 0.0
H1717 H 0.83658 -0.00196 0.28533 0.0
H1718 H 0.81791 0.02042 0.31144 0.0
H1719 H 0.78412 0.0751 0.28406 0.0
H1720 H 0.69123 0.10282 0.33303 0.0
H1721 H 0.72383 0.09232 0.31486 0.0
H1722 H 0.75794 0.04256 0.35203 0.0
C1723 C 0.81238 0.02021 0.29488 0.0
C1724 C 0.7787 0.06799 0.29902 0.0
C1725 C 0.82305 0.00744 0.2799 0.0
C1726 C 0.70443 0.09678 0.34263 0.0
C1727 C 0.72326 0.09095 0.33223 0.0
C1728 C 0.76412 0.05016 0.33763 0.0
C1729 C 0.79511 0.033 0.28839 0.0
C1730 C 0.78384 0.04668 0.30415 0.0
C1731 C 0.7402 0.08164 0.34379 0.0
C1732 C 0.75777 0.071 0.33185 0.0
H1733 H 0.7934 0.01943 0.23524 0.0
H1734 H 0.77477 0.04178 0.26147 0.0
H1735 H 0.78082 0.02172 0.32825 0.0
H1736 H 0.71833 0.08342 0.394 0.0
H1737 H 0.75152 0.07319 0.3757 0.0
C1738 C 0.64976 0.07802 0.02215 0.0
C1739 C 0.65405 0.09846 0.03099 0.0
C1740 C 0.63418 0.06462 0.03133 0.0
C1741 C 0.61645 0.05488 0.08548 0.0
H1742 H 0.59201 0.00417 0.05777 0.0
C1743 C 0.60779 0.97157 0.1274 0.0
C1744 C 0.61922 0.95609 0.11558 0.0
C1745 C 0.60317 0.9916 0.1183 0.0
C1746 C 0.59836 0.01841 0.06581 0.0
H1747 H 0.64315 0.12211 0.05427 0.0
H1748 H 0.61598 0.09863 0.07024 0.0
H1749 H 0.59717 0.03709 0.03698 0.0
H1750 H 0.63502 0.9498 0.08505 0.0
H1751 H 0.62699 0.9844 0.06947 0.0
H1752 H 0.61905 0.03567 0.11389 0.0
C1753 C 0.62502 0.09279 0.05659 0.0
C1754 C 0.60134 0.03721 0.05393 0.0
C1755 C 0.64065 0.1062 0.04744 0.0
C1756 C 0.62622 0.96124 0.09471 0.0
C1757 C 0.62133 0.98097 0.08559 0.0
C1758 C 0.61334 0.03611 0.09739 0.0
C1759 C 0.62255 0.07143 0.04947 0.0
C1760 C 0.61187 0.0551 0.06326 0.0
C1761 C 0.60954 -0.00379 0.09714 0.0
C1762 C 0.60568 0.01735 0.08721 0.0
H1763 H 0.65956 0.07166 0.00929 0.0
H1764 H 0.63277 0.04823 0.02543 0.0
H1765 H 0.6246 0.06836 0.09322 0.0
H1766 H 0.60207 0.96809 0.14348 0.0
H1767 H 0.59434 0.0033 0.1276 0.0
C1768 C 0.65893 0.07367 0.66753 0.0
C1769 C 0.65512 0.06625 0.6885 0.0
C1770 C 0.67321 0.0907 0.66394 0.0
C1771 C 0.72131 0.11298 0.6906 0.0
H1772 H 0.72762 0.13792 0.63382 0.0
C1773 C 0.79999 0.10846 0.64776 0.0
C1774 C 0.80732 0.12481 0.63402 0.0
C1775 C 0.77961 0.10935 0.65675 0.0
C1776 C 0.72607 0.13157 0.64996 0.0
H1777 H 0.66107 0.07256 0.72235 0.0
H1778 H 0.68534 0.10307 0.7162 0.0
H1779 H 0.69193 0.12824 0.6469 0.0
H1780 H 0.7989 0.1548 0.61855 0.0
H1781 H 0.76284 0.15636 0.63444 0.0
H1782 H 0.75537 0.11644 0.69371 0.0
C1783 C 0.67813 0.09505 0.7024 0.0
C1784 C 0.70562 0.12571 0.65738 0.0
C1785 C 0.66419 0.07759 0.70597 0.0
C1786 C 0.79354 0.14186 0.62896 0.0
C1787 C 0.77302 0.14284 0.63816 0.0
C1788 C 0.74159 0.11931 0.68341 0.0
C1789 C 0.68378 0.10106 0.68127 0.0
C1790 C 0.70324 0.11465 0.67703 0.0
C1791 C 0.76604 0.12676 0.65249 0.0
C1792 C 0.74436 0.12698 0.66236 0.0
H1793 H 0.65205 0.06539 0.6537 0.0
H1794 H 0.67711 0.09447 0.64741 0.0
H1795 H 0.72039 0.10485 0.70595 0.0
H1796 H 0.81014 0.09499 0.65177 0.0
H1797 H 0.77446 0.09624 0.66703 0.0
C1798 C 0.733 0.91671 0.48298 0.0
C1799 C 0.73797 0.91797 0.50505 0.0
C1800 C 0.71565 0.92782 0.47452 0.0
C1801 C 0.67355 0.94601 0.46022 0.0
H1802 H 0.66819 0.00519 0.479 0.0
C1803 C 0.63167 0.0324 0.43815 0.0
C1804 C 0.63938 0.03466 0.41704 0.0
C1805 C 0.63598 0.01392 0.44989 0.0
C1806 C 0.66905 0.98855 0.47384 0.0
H1807 H 0.7283 0.93152 0.53567 0.0
H1808 H 0.69756 0.95083 0.52087 0.0
H1809 H 0.69134 0.98126 0.49888 0.0
H1810 H 0.6555 0.01867 0.39077 0.0
H1811 H 0.66348 0.98627 0.4115 0.0
H1812 H 0.65233 0.95401 0.4342 0.0
C1813 C 0.70738 0.94144 0.51008 0.0
C1814 C 0.68235 0.97478 0.4853 0.0
C1815 C 0.72499 0.93043 0.51856 0.0
C1816 C 0.64943 0.01724 0.40703 0.0
C1817 C 0.65393 -0.00129 0.4189 0.0
C1818 C 0.66043 0.95991 0.44858 0.0
C1819 C 0.70261 0.94034 0.4879 0.0
C1820 C 0.68537 0.95356 0.4782 0.0
C1821 C 0.64828 -0.00252 0.4408 0.0
C1822 C 0.65857 0.98148 0.45495 0.0
H1823 H 0.74276 0.90738 0.47206 0.0
H1824 H 0.7129 0.92705 0.4573 0.0
H1825 H 0.6751 0.92957 0.45463 0.0
H1826 H 0.62353 0.04556 0.44606 0.0
H1827 H 0.63107 0.01318 0.46659 0.0
C1828 C 0.82755 0.91562 0.23998 0.0
C1829 C 0.83596 0.92868 0.22355 0.0
C1830 C 0.80999 0.90186 0.23581 0.0
C1831 C 0.77603 0.87974 0.19093 0.0
H1832 H 0.72903 0.8885 0.23065 0.0
C1833 C 0.68985 0.86738 0.16164 0.0
C1834 C 0.67586 0.88392 0.16756 0.0
C1835 C 0.70922 0.86463 0.17266 0.0
C1836 C 0.74197 0.88587 0.21937 0.0
H1837 H 0.83354 0.93674 0.1897 0.0
H1838 H 0.80296 0.91334 0.18255 0.0
H1839 H 0.76547 0.89852 0.24139 0.0
H1840 H 0.67053 0.90994 0.1901 0.0
H1841 H 0.70488 0.9062 0.20845 0.0
H1842 H 0.75255 0.86925 0.16808 0.0
C1843 C 0.8099 0.91329 0.19857 0.0
C1844 C 0.76295 0.89128 0.22568 0.0
C1845 C 0.82731 0.92697 0.20273 0.0
C1846 C 0.68111 0.89711 0.18522 0.0
C1847 C 0.70074 0.89473 0.19589 0.0
C1848 C 0.75506 0.87471 0.18448 0.0
C1849 C 0.8007 0.90092 0.21513 0.0
C1850 C 0.78002 0.88942 0.21105 0.0
C1851 C 0.7153 0.87876 0.18943 0.0
C1852 C 0.73762 0.87882 0.19821 0.0
H1853 H 0.83404 0.91654 0.25617 0.0
H1854 H 0.80334 0.89242 0.24887 0.0
H1855 H 0.78895 0.87754 0.17951 0.0
H1856 H 0.68588 0.85666 0.14836 0.0
H1857 H 0.71969 0.8518 0.16758 0.0
C1858 C 0.74375 0.04312 0.99251 0.0
C1859 C 0.73167 0.05688 0.97942 0.0
C1860 C 0.75701 0.02768 0.98326 0.0
C1861 C 0.7874 0.01941 0.93356 0.0
H1862 H 0.79831 0.9631 0.95755 0.0
C1863 C 0.8395 0.95442 0.89273 0.0
C1864 C 0.8509 0.94039 0.90619 0.0
C1865 C 0.82656 0.97038 0.9016 0.0
C1866 C 0.79569 0.97894 0.95088 0.0
H1867 H 0.72246 0.06396 0.94649 0.0
H1868 H 0.74537 0.03676 0.93039 0.0
H1869 H 0.7699 0.98509 0.97268 0.0
H1870 H 0.85969 0.93373 0.93931 0.0
H1871 H 0.83753 0.96189 0.95471 0.0
H1872 H 0.81321 0.01321 0.91174 0.0
C1873 C 0.745 0.03829 0.94776 0.0
C1874 C 0.77931 0.99146 0.95947 0.0
C1875 C 0.73171 0.0537 0.95701 0.0
C1876 C 0.85084 0.94408 0.92853 0.0
C1877 C 0.838 0.96007 0.93737 0.0
C1878 C 0.80379 0.00688 0.92496 0.0
C1879 C 0.75842 0.0257 0.96075 0.0
C1880 C 0.775 0.01184 0.95093 0.0
C1881 C 0.82492 0.97267 0.92406 0.0
C1882 C 0.80817 0.98653 0.93359 0.0
H1883 H 0.74403 0.04515 0.00984 0.0
H1884 H 0.76714 0.01822 0.99372 0.0
H1885 H 0.78474 0.03524 0.9269 0.0
H1886 H 0.83915 0.952 0.87545 0.0
H1887 H 0.81671 0.97986 0.8909 0.0
C1888 C 0.74192 0.68161 0.98648 0.0
C1889 C 0.75463 0.67554 0.0041 0.0
C1890 C 0.75063 0.69458 0.97023 0.0
C1891 C 0.76867 0.73161 0.94402 0.0
H1892 H 0.83031 0.73151 0.93492 0.0
C1893 C 0.81297 0.80502 0.911 0.0
C1894 C 0.83313 0.8032 0.90101 0.0
C1895 C 0.80212 0.78691 0.91866 0.0
C1896 C 0.81301 0.73154 0.93676 0.0
H1897 H 0.786 0.67877 0.01911 0.0
H1898 H 0.80077 0.70243 0.99178 0.0
H1899 H 0.81393 0.70421 0.95739 0.0
H1900 H 0.85697 0.78061 0.88992 0.0
H1901 H 0.83753 0.74866 0.90257 0.0
H1902 H 0.76762 0.75833 0.92258 0.0
C1903 C 0.78447 0.69642 0.98965 0.0
C1904 C 0.80361 0.71608 0.95013 0.0
C1905 C 0.77594 0.68307 0.00554 0.0
C1906 C 0.84159 0.78259 0.89776 0.0
C1907 C 0.83048 0.7643 0.90515 0.0
C1908 C 0.77799 0.74674 0.93021 0.0
C1909 C 0.77208 0.70214 0.97157 0.0
C1910 C 0.78146 0.71648 0.95473 0.0
C1911 C 0.81085 0.76629 0.91624 0.0
C1912 C 0.80043 0.74755 0.92717 0.0
H1913 H 0.72549 0.67578 0.98491 0.0
H1914 H 0.74061 0.69835 0.9565 0.0
H1915 H 0.75156 0.73253 0.94699 0.0
H1916 H 0.8059 0.82061 0.9139 0.0
H1917 H 0.78735 0.78936 0.92746 0.0
C1918 C 0.25666 0.84794 0.05883 0.0
C1919 C 0.23664 0.84146 0.05036 0.0
C1920 C 0.26712 0.83526 0.07395 0.0
C1921 C 0.26076 0.78556 0.10744 0.0
H1922 H 0.32104 0.77907 0.09336 0.0
C1923 C 0.30443 0.70657 0.10219 0.0
C1924 C 0.32616 0.70536 0.1082 0.0
C1925 C 0.29336 0.72574 0.10463 0.0
C1926 C 0.3044 0.78105 0.09801 0.0
H1927 H 0.21137 0.81722 0.05142 0.0
H1928 H 0.23023 0.79417 0.07673 0.0
H1929 H 0.30144 0.80901 0.0787 0.0
H1930 H 0.35304 0.72267 0.12278 0.0
H1931 H 0.33378 0.75671 0.12621 0.0
H1932 H 0.26358 0.75613 0.12507 0.0
C1933 C 0.2376 0.80942 0.07242 0.0
C1934 C 0.29306 0.79827 0.08959 0.0
C1935 C 0.22688 0.82244 0.05769 0.0
C1936 C 0.33633 0.7233 0.11785 0.0
C1937 C 0.32534 0.74267 0.11992 0.0
C1938 C 0.27207 0.7681 0.11559 0.0
C1939 C 0.25805 0.8155 0.08044 0.0
C1940 C 0.27086 0.80018 0.09337 0.0
C1941 C 0.30393 0.74414 0.11282 0.0
C1942 C 0.29372 0.76523 0.1101 0.0
H1943 H 0.26426 0.86287 0.05377 0.0
H1944 H 0.28255 0.84074 0.08015 0.0
H1945 H 0.24384 0.78692 0.11121 0.0
H1946 H 0.29611 0.69283 0.09507 0.0
H1947 H 0.27695 0.72653 0.09878 0.0
C1948 C 0.90678 0.54759 0.80298 0.0
C1949 C 0.89168 0.56228 0.79515 0.0
C1950 C 0.91811 0.55188 0.82193 0.0
C1951 C 0.93921 0.599 0.84916 0.0
H1952 H 0.96882 0.55512 0.88163 0.0
C1953 C 0.02404 0.61512 0.88018 0.0
C1954 C 0.0383 0.59981 0.87179 0.0
C1955 C 0.00198 0.61072 0.88098 0.0
C1956 C 0.96051 0.56764 0.87296 0.0
H1957 H 0.87507 0.59199 0.80229 0.0
H1958 H 0.89502 0.59952 0.83547 0.0
H1959 H 0.93419 0.5466 0.8647 0.0
H1960 H 0.04067 0.56729 0.8592 0.0
H1961 H 0.00224 0.55983 0.86018 0.0
H1962 H 0.96605 0.6196 0.85615 0.0
C1963 C 0.89828 0.58483 0.82669 0.0
C1964 C 0.94071 0.56278 0.86327 0.0
C1965 C 0.8869 0.58053 0.80765 0.0
C1966 C 0.03015 0.57955 0.86548 0.0
C1967 C 0.00811 0.57515 0.86635 0.0
C1968 C 0.95889 0.60388 0.85895 0.0
C1969 C 0.91462 0.57097 0.83356 0.0
C1970 C 0.93066 0.57796 0.84999 0.0
C1971 C 0.99374 0.59092 0.8735 0.0
C1972 C 0.97038 0.58782 0.8697 0.0
H1973 H 0.91064 0.53318 0.79399 0.0
H1974 H 0.93073 0.54093 0.82653 0.0
H1975 H 0.93196 0.61111 0.83907 0.0
H1976 H 0.0298 0.63079 0.88553 0.0
H1977 H 0.99128 0.62311 0.8867 0.0
C1978 C 0.25719 0.16844 0.58836 0.0
C1979 C 0.24292 0.15646 0.57529 0.0
C1980 C 0.24922 0.18288 0.60366 0.0
C1981 C 0.2276 0.22425 0.61704 0.0
H1982 H 0.16912 0.21793 0.63769 0.0
C1983 C 0.169 0.2925 0.60949 0.0
C1984 C 0.15114 0.29408 0.62304 0.0
C1985 C 0.18308 0.27538 0.61153 0.0
C1986 C 0.18563 0.22012 0.63261 0.0
H1987 H 0.2093 0.14898 0.56892 0.0
H1988 H 0.19553 0.17431 0.59466 0.0
H1989 H 0.18995 0.18617 0.63006 0.0
H1990 H 0.13423 0.27955 0.64985 0.0
H1991 H 0.15922 0.24985 0.65393 0.0
H1992 H 0.22339 0.25819 0.61978 0.0
C1993 C 0.2128 0.17252 0.5937 0.0
C1994 C 0.19753 0.20182 0.62799 0.0
C1995 C 0.22072 0.15818 0.57858 0.0
C1996 C 0.14768 0.27838 0.63888 0.0
C1997 C 0.16206 0.26145 0.64127 0.0
C1998 C 0.21591 0.24256 0.62221 0.0
C1999 C 0.22689 0.18551 0.60605 0.0
C2000 C 0.21795 0.20374 0.61848 0.0
C2001 C 0.17993 0.25968 0.62755 0.0
C2002 C 0.19422 0.24071 0.62842 0.0
H2003 H 0.27442 0.16717 0.58631 0.0
H2004 H 0.26051 0.19249 0.61307 0.0
H2005 H 0.2434 0.22641 0.61005 0.0
H2006 H 0.172 0.30444 0.59715 0.0
H2007 H 0.19618 0.27428 0.60016 0.0
C2008 C 0.04332 0.99157 0.76195 0.0
C2009 C 0.06215 0.98256 0.75362 0.0
C2010 C 0.02875 0.97895 0.77357 0.0
C2011 C 0.02561 0.92845 0.805 0.0
H2012 H 0.96465 0.94078 0.80392 0.0
C2013 C 0.95541 0.88034 0.84735 0.0
C2014 C 0.9406 0.89355 0.85803 0.0
C2015 C 0.97249 0.88957 0.83577 0.0
C2016 C 0.98167 0.93723 0.80442 0.0
H2017 H 0.07986 0.95289 0.74995 0.0
H2018 H 0.05407 0.93073 0.76968 0.0
H2019 H 0.98863 0.95925 0.77903 0.0
H2020 H 0.93347 0.92652 0.86692 0.0
H2021 H 0.96305 0.94242 0.84671 0.0
H2022 H 0.01823 0.90602 0.83028 0.0
C2023 C 0.05089 0.94771 0.7678 0.0
C2024 C -0.00457 0.94785 0.79022 0.0
C2025 C 0.06559 0.9604 0.75634 0.0
C2026 C 0.94438 0.91591 0.85859 0.0
C2027 C 0.96126 0.92505 0.84698 0.0
C2028 C 0.01171 0.91756 0.81905 0.0
C2029 C 0.0325 0.95692 0.77693 0.0
C2030 C 0.01765 0.94398 0.79063 0.0
C2031 C 0.97485 0.91205 0.83471 0.0
C2032 C 0.98971 0.92225 0.81916 0.0
H2033 H 0.0402 0.0086 0.76027 0.0
H2034 H 0.01494 0.98672 0.78059 0.0
H2035 H 0.04266 0.9252 0.80593 0.0
H2036 H 0.95292 0.86307 0.84658 0.0
H2037 H 0.98288 0.87924 0.82646 0.0
C2038 C 0.70956 0.33344 0.45333 0.0
C2039 C 0.71822 0.33608 0.47414 0.0
C2040 C 0.70943 0.31327 0.44338 0.0
C2041 C 0.70108 0.2597 0.46135 0.0
H2042 H 0.70582 0.24334 0.40121 0.0
C2043 C 0.6489 0.19378 0.42198 0.0
C2044 C 0.66064 0.17598 0.41489 0.0
C2045 C 0.65951 0.21305 0.42719 0.0
C2046 C 0.70459 0.24775 0.41805 0.0
H2047 H 0.73573 0.32026 0.49979 0.0
H2048 H 0.73511 0.28493 0.48247 0.0
H2049 H 0.72156 0.27776 0.41375 0.0
H2050 H 0.69243 0.16466 0.40648 0.0
H2051 H 0.71087 0.19874 0.41511 0.0
H2052 H 0.68312 0.2304 0.46546 0.0
C2053 C 0.72839 0.29848 0.47397 0.0
C2054 C 0.71358 0.26729 0.4252 0.0
C2055 C 0.72875 0.31871 0.48383 0.0
C2056 C 0.68303 0.17811 0.41212 0.0
C2057 C 0.69356 0.19754 0.4169 0.0
C2058 C 0.69178 0.24048 0.45414 0.0
C2059 C 0.71777 0.29541 0.45416 0.0
C2060 C 0.71165 0.27351 0.44688 0.0
C2061 C 0.68191 0.21494 0.42491 0.0
C2062 C 0.69316 0.23456 0.43242 0.0
H2063 H 0.70164 0.34663 0.44531 0.0
H2064 H 0.70113 0.31132 0.42811 0.0
H2065 H 0.69903 0.26428 0.47806 0.0
H2066 H 0.63167 0.19257 0.42428 0.0
H2067 H 0.6503 0.22641 0.43335 0.0
C2068 C 0.93504 0.48287 0.72957 0.0
C2069 C 0.93315 0.50412 0.72227 0.0
C2070 C 0.9486 0.4686 0.71911 0.0
C2071 C 0.99284 0.4637 0.68039 0.0
H2072 H 0.96538 0.4085 0.66801 0.0
C2073 C 0.03836 0.40082 0.6335 0.0
C2074 C 0.03969 0.38131 0.64464 0.0
C2075 C 0.02216 0.41532 0.6384 0.0
C2076 C 0.97322 0.42384 0.6713 0.0
H2077 H 0.94541 0.52773 0.69966 0.0
H2078 H 0.9693 0.50272 0.68137 0.0
H2079 H 0.94595 0.43576 0.68823 0.0
H2080 H 0.02465 0.36065 0.66824 0.0
H2081 H -0.00378 0.38596 0.67697 0.0
H2082 H 0.02029 0.45167 0.66394 0.0
C2083 C 0.96016 0.49709 0.6951 0.0
C2084 C 0.96219 0.43938 0.683 0.0
C2085 C 0.94658 0.51142 0.70563 0.0
C2086 C 0.02356 0.37549 0.65922 0.0
C2087 C 0.00738 0.39004 0.66423 0.0
C2088 C 0.00388 0.44816 0.66871 0.0
C2089 C 0.96052 0.47532 0.70115 0.0
C2090 C 0.97206 0.45929 0.68801 0.0
C2091 C 0.00731 0.41059 0.65475 0.0
C2092 C 0.99431 0.42794 0.66434 0.0
H2093 H 0.92505 0.47688 0.74254 0.0
H2094 H 0.94909 0.45206 0.72452 0.0
H2095 H 0.00084 0.47887 0.68407 0.0
H2096 H 0.0509 0.40562 0.62237 0.0
H2097 H 0.02223 0.43086 0.63055 0.0
C2098 C 0.57693 0.53774 0.15578 0.0
C2099 C 0.57664 0.51575 0.1607 0.0
C2100 C 0.55887 0.5473 0.14692 0.0
C2101 C 0.50522 0.53754 0.12272 0.0
H2102 H 0.4915 0.58964 0.15421 0.0
C2103 C 0.42087 0.57561 0.12379 0.0
C2104 C 0.41997 0.5982 0.12284 0.0
C2105 C 0.4406 0.56534 0.12559 0.0
C2106 C 0.49524 0.57531 0.14502 0.0
H2107 H 0.55802 0.48607 0.159 0.0
H2108 H 0.52593 0.50299 0.144 0.0
H2109 H 0.52527 0.57181 0.16118 0.0
H2110 H 0.43918 0.62766 0.12248 0.0
H2111 H 0.47355 0.60969 0.12557 0.0
H2112 H 0.47473 0.54098 0.10692 0.0
C2113 C 0.54025 0.51276 0.14671 0.0
C2114 C 0.5146 0.56511 0.14898 0.0
C2115 C 0.55853 0.5031 0.15535 0.0
C2116 C 0.43925 0.61026 0.12341 0.0
C2117 C 0.45895 0.59998 0.12518 0.0
C2118 C 0.48573 0.5478 0.11876 0.0
C2119 C 0.54005 0.5351 0.14316 0.0
C2120 C 0.51981 0.54614 0.1379 0.0
C2121 C 0.4598 0.57745 0.12649 0.0
C2122 C 0.48059 0.56676 0.12993 0.0
H2123 H 0.5909 0.54774 0.15941 0.0
H2124 H 0.55933 0.56445 0.14383 0.0
H2125 H 0.50889 0.52298 0.11391 0.0
H2126 H 0.40632 0.56582 0.12333 0.0
H2127 H 0.4408 0.54795 0.12683 0.0
C2128 C 0.6168 0.71414 0.85649 0.0
C2129 C 0.59422 0.71446 0.85805 0.0
C2130 C 0.62675 0.7006 0.84163 0.0
C2131 C 0.63783 0.6879 0.79571 0.0
H2132 H 0.61438 0.63272 0.77719 0.0
C2133 C 0.62578 0.66471 0.70778 0.0
C2134 C 0.62691 0.64306 0.70131 0.0
C2135 C 0.62932 0.6705 0.72925 0.0
C2136 C 0.62154 0.64789 0.78231 0.0
H2137 H 0.56457 0.69938 0.8467 0.0
H2138 H 0.58185 0.676 0.82083 0.0
H2139 H 0.60629 0.64621 0.81311 0.0
H2140 H 0.63424 0.61073 0.71212 0.0
H2141 H 0.64026 0.62094 0.74962 0.0
H2142 H 0.65225 0.69003 0.76455 0.0
C2143 C 0.59191 0.68614 0.83103 0.0
C2144 C 0.61675 0.65569 0.80283 0.0
C2145 C 0.58197 0.69973 0.84574 0.0
C2146 C 0.63299 0.62754 0.71656 0.0
C2147 C 0.63643 0.63334 0.73807 0.0
C2148 C 0.6426 0.68012 0.77519 0.0
C2149 C 0.61433 0.68701 0.82823 0.0
C2150 C 0.62398 0.67623 0.80932 0.0
C2151 C 0.63404 0.65479 0.74474 0.0
C2152 C 0.63364 0.66052 0.76792 0.0
H2153 H 0.62674 0.72515 0.86587 0.0
H2154 H 0.64408 0.70143 0.83996 0.0
H2155 H 0.64362 0.70382 0.80021 0.0
H2156 H 0.62133 0.67711 0.69646 0.0
H2157 H 0.62712 0.68715 0.7339 0.0
C2158 C 0.58413 0.25225 0.0532 0.0
C2159 C 0.57412 0.25891 0.0723 0.0
C2160 C 0.59605 0.26684 0.04091 0.0
C2161 C 0.60027 0.32482 0.03013 0.0
H2162 H 0.64691 0.306 0.99364 0.0
C2163 C 0.65232 0.35184 0.94962 0.0
C2164 C 0.63463 0.35808 0.93703 0.0
C2165 C 0.64924 0.34433 0.97063 0.0
C2166 C 0.63426 0.31179 0.00402 0.0
H2167 H 0.56964 0.28598 0.09395 0.0
H2168 H 0.59075 0.31137 0.07265 0.0
H2169 H 0.63441 0.28294 0.02268 0.0
H2170 H 0.60013 0.36306 0.93726 0.0
H2171 H 0.59475 0.34978 0.97338 0.0
H2172 H 0.59998 0.35356 0.01132 0.0
C2173 C 0.58901 0.29494 0.06696 0.0
C2174 C 0.62686 0.29839 0.02048 0.0
C2175 C 0.57692 0.28037 0.07918 0.0
C2176 C 0.61409 0.35812 0.94639 0.0
C2177 C 0.61104 0.35071 0.96729 0.0
C2178 C 0.6078 0.33828 0.01379 0.0
C2179 C 0.59844 0.28844 0.04749 0.0
C2180 C 0.60913 0.30432 0.03308 0.0
C2181 C 0.62844 0.34308 0.97944 0.0
C2182 C 0.62419 0.33148 -0.0001 0.0
H2183 H 0.58227 0.23587 0.04738 0.0
H2184 H 0.6027 0.26132 0.02581 0.0
H2185 H 0.58661 0.32997 0.03949 0.0
H2186 H 0.66838 0.35176 0.94293 0.0
H2187 H 0.66301 0.33882 0.9797 0.0
C2188 C 0.9194 0.28577 0.34285 0.0
C2189 C 0.93664 0.30017 0.33904 0.0
C2190 C 0.90436 0.28116 0.3266 0.0
C2191 C 0.87104 0.29121 0.28767 0.0
H2192 H 0.89881 0.26988 0.23621 0.0
C2193 C 0.85606 0.32309 0.2055 0.0
C2194 C 0.86398 0.31211 0.18742 0.0
C2195 C 0.85518 0.31296 0.22546 0.0
C2196 C 0.89036 0.27512 0.25046 0.0
H2197 H 0.9513 0.32152 0.31562 0.0
H2198 H 0.92524 0.31316 0.2872 0.0
H2199 H 0.91815 0.27004 0.27011 0.0
H2200 H 0.87326 0.2808 0.17523 0.0
H2201 H 0.87142 0.26303 0.21008 0.0
H2202 H 0.84375 0.29781 0.26767 0.0
C2203 C 0.92338 0.30557 0.30277 0.0
C2204 C 0.90162 0.27539 0.26986 0.0
C2205 C 0.93817 0.31043 0.31904 0.0
C2206 C 0.86778 0.28992 0.18901 0.0
C2207 C 0.86668 0.27971 0.20898 0.0
C2208 C 0.8597 0.29102 0.26815 0.0
C2209 C 0.90665 0.29064 0.30633 0.0
C2210 C 0.89249 0.28458 0.28823 0.0
C2211 C 0.86207 0.29162 0.22768 0.0
C2212 C 0.86983 0.2843 0.24906 0.0
H2213 H 0.91783 0.27768 0.35819 0.0
H2214 H 0.89148 0.26965 0.32959 0.0
H2215 H 0.86372 0.29823 0.30181 0.0
H2216 H 0.85243 0.34008 0.20476 0.0
H2217 H 0.85139 0.32269 0.2394 0.0
C2218 C 0.978 0.69917 0.56976 0.0
C2219 C 0.97221 0.71935 0.57795 0.0
C2220 C 0.96867 0.69131 0.55081 0.0
C2221 C 0.92163 0.69719 0.51544 0.0
H2222 H 0.95753 0.66753 0.4742 0.0
C2223 C 0.91554 0.6589 0.42429 0.0
C2224 C 0.8958 0.64775 0.42614 0.0
C2225 C 0.92509 0.66861 0.44232 0.0
C2226 C 0.94734 0.67596 0.48545 0.0
H2227 H 0.95206 0.74713 0.57294 0.0
H2228 H 0.93582 0.73345 0.53965 0.0
H2229 H 0.97375 0.68317 0.50656 0.0
H2230 H 0.87082 0.6378 0.44848 0.0
H2231 H 0.88764 0.65443 0.47986 0.0
H2232 H 0.89528 0.69023 0.4942 0.0
C2233 C 0.94741 0.7236 0.54801 0.0
C2234 C 0.95658 0.68469 0.50409 0.0
C2235 C 0.95671 0.73145 0.56703 0.0
C2236 C 0.88595 0.64637 0.44642 0.0
C2237 C 0.89551 0.65603 0.46441 0.0
C2238 C 0.91241 0.68848 0.4968 0.0
C2239 C 0.95341 0.70351 0.53964 0.0
C2240 C 0.94377 0.69517 0.51939 0.0
C2241 C 0.91511 0.66734 0.46254 0.0
C2242 C 0.92512 0.67756 0.48174 0.0
H2243 H 0.98984 0.68945 0.5779 0.0
H2244 H 0.97332 0.67559 0.54498 0.0
H2245 H 0.91134 0.70507 0.52699 0.0
H2246 H 0.92353 0.66035 0.40889 0.0
H2247 H 0.94012 0.67739 0.44036 0.0
C2248 C 0.55148 0.27555 0.65647 0.0
C2249 C 0.52934 0.27809 0.65299 0.0
C2250 C 0.5626 0.28915 0.67065 0.0
C2251 C 0.55845 0.33911 0.7037 0.0
H2252 H 0.59444 0.30716 0.74307 0.0
C2253 C 0.60154 0.3763 0.77927 0.0
C2254 C 0.59925 0.36386 0.79803 0.0
C2255 C 0.5948 0.36808 0.75929 0.0
C2256 C 0.5845 0.31633 0.73217 0.0
H2257 H 0.50162 0.2974 0.66069 0.0
H2258 H 0.52087 0.32073 0.68618 0.0
H2259 H 0.57964 0.28929 0.71145 0.0
H2260 H 0.58737 0.33331 0.81051 0.0
H2261 H 0.57565 0.31924 0.77597 0.0
H2262 H 0.56261 0.36589 0.72533 0.0
C2263 C 0.52977 0.30854 0.67762 0.0
C2264 C 0.57621 0.30618 0.71387 0.0
C2265 C 0.51868 0.29507 0.66318 0.0
C2266 C 0.58962 0.34331 0.79644 0.0
C2267 C 0.583 0.33514 0.77659 0.0
C2268 C 0.56678 0.34931 0.72211 0.0
C2269 C 0.55174 0.30537 0.68191 0.0
C2270 C 0.56268 0.31727 0.69968 0.0
C2271 C 0.5858 0.34727 0.75778 0.0
C2272 C 0.57936 0.33778 0.73681 0.0
H2273 H 0.56017 0.26281 0.6485 0.0
H2274 H 0.57962 0.28658 0.67324 0.0
H2275 H 0.5483 0.34816 0.69289 0.0
H2276 H 0.60887 0.3922 0.77995 0.0
H2277 H 0.5971 0.37774 0.74499 0.0
C2278 C 0.98923 0.2617 0.92866 0.0
C2279 C 0.97414 0.24469 0.92981 0.0
C2280 C 0.99403 0.2742 0.94684 0.0
C2281 C 0.98579 0.27753 0.00612 0.0
H2282 H 0.9786 0.33841 0.99514 0.0
C2283 C 0.95795 0.33055 0.07396 0.0
C2284 C 0.93875 0.3408 0.06809 0.0
C2285 C 0.97223 0.32355 0.05819 0.0
C2286 C 0.98092 0.32151 -0.00149 0.0
H2287 H 0.95318 0.22663 0.95109 0.0
H2288 H 0.96116 0.24861 0.98269 0.0
H2289 H 0.98467 0.31392 0.96518 0.0
H2290 H 0.92098 0.35427 0.04129 0.0
H2291 H 0.94539 0.34166 0.01393 0.0
H2292 H 0.98005 0.28472 0.03915 0.0
C2293 C 0.96956 0.25219 0.96786 0.0
C2294 C 0.9846 0.30746 0.98135 0.0
C2295 C 0.9648 0.23969 0.9497 0.0
C2296 C 0.93543 0.34614 0.04638 0.0
C2297 C 0.94962 0.33903 0.03063 0.0
C2298 C 0.98197 0.29153 0.02324 0.0
C2299 C 0.98384 0.26991 0.96652 0.0
C2300 C 0.98585 0.28516 0.98488 0.0
C2301 C 0.96751 0.32657 0.03627 0.0
C2302 C 0.97825 0.3135 0.01947 0.0
H2303 H -0.00309 0.26579 0.91357 0.0
H2304 H 0.00527 0.28757 0.94535 0.0
H2305 H 0.98724 0.2605 0.00938 0.0
H2306 H 0.96127 0.32664 0.09062 0.0
H2307 H 0.98617 0.31448 0.06308 0.0
C2308 C 0.00286 0.67843 0.19471 0.0
C2309 C -0.00201 0.69861 0.18598 0.0
C2310 C 0.98699 0.66617 0.20489 0.0
C2311 C 0.92737 0.66137 0.21036 0.0
H2312 H 0.94268 0.62534 0.2587 0.0
C2313 C 0.87348 0.63369 0.27999 0.0
C2314 C 0.87809 0.61382 0.2896 0.0
C2315 C 0.88422 0.64008 0.26136 0.0
C2316 C 0.93822 0.63493 0.24489 0.0
H2317 H 0.973 0.72227 0.18201 0.0
H2318 H 0.94556 0.70145 0.201 0.0
H2319 H 0.97042 0.64618 0.24079 0.0
H2320 H 0.89497 0.58374 0.28552 0.0
H2321 H 0.91392 0.59508 0.2531 0.0
H2322 H 0.89473 0.65104 0.21581 0.0
C2323 C 0.96139 0.69464 0.19916 0.0
C2324 C 0.95415 0.64697 0.23461 0.0
C2325 C 0.97719 0.70674 0.18856 0.0
C2326 C 0.89122 0.59922 0.27859 0.0
C2327 C 0.90216 0.60573 0.26009 0.0
C2328 C 0.91132 0.64957 0.22097 0.0
C2329 C 0.96596 0.67397 0.20702 0.0
C2330 C 0.94894 0.66056 0.21737 0.0
C2331 C 0.89982 0.62675 0.25224 0.0
C2332 C 0.91662 0.6364 0.23845 0.0
H2333 H 0.01865 0.67155 0.19266 0.0
H2334 H 0.99112 0.65023 0.2104 0.0
H2335 H 0.9228 0.67126 0.19683 0.0
H2336 H 0.86317 0.64513 0.28799 0.0
H2337 H 0.88206 0.65634 0.25557 0.0
C2338 C 0.49311 0.71601 0.42502 0.0
C2339 C 0.49278 0.69995 0.40897 0.0
C2340 C 0.50283 0.71222 0.44495 0.0
C2341 C 0.54333 0.67841 0.47045 0.0
H2342 H 0.51343 0.69001 0.5239 0.0
C2343 C 0.57065 0.64033 0.5485 0.0
C2344 C 0.57264 0.65356 0.5668 0.0
C2345 C 0.55995 0.64752 0.53025 0.0
C2346 C 0.52206 0.68697 0.50911 0.0
H2347 H 0.50245 0.66735 0.40129 0.0
H2348 H 0.51941 0.66085 0.43595 0.0
H2349 H 0.49713 0.7004 0.48952 0.0
H2350 H 0.56395 0.68428 0.58078 0.0
H2351 H 0.54521 0.697 0.54852 0.0
H2352 H 0.56814 0.66488 0.48978 0.0
C2353 C 0.51224 0.67638 0.43307 0.0
C2354 C 0.51276 0.6929 0.48949 0.0
C2355 C 0.5024 0.68008 0.41326 0.0
C2356 C 0.56268 0.67375 0.56688 0.0
C2357 C 0.55198 0.68102 0.54846 0.0
C2358 C 0.5526 0.67257 0.48996 0.0
C2359 C 0.51257 0.6924 0.44908 0.0
C2360 C 0.52313 0.6882 0.46998 0.0
C2361 C 0.55108 0.66817 0.52979 0.0
C2362 C 0.54183 0.67628 0.50944 0.0
H2363 H 0.48578 0.73148 0.42225 0.0
H2364 H 0.50297 0.72486 0.45702 0.0
H2365 H 0.55186 0.67503 0.45567 0.0
H2366 H 0.57781 0.62452 0.54806 0.0
H2367 H 0.55898 0.63702 0.5163 0.0
C2368 C 0.84186 0.54098 0.67286 0.0
C2369 C 0.85203 0.55558 0.68704 0.0
C2370 C 0.82324 0.54687 0.66184 0.0
C2371 C 0.78515 0.56543 0.63699 0.0
H2372 H 0.74587 0.59167 0.67744 0.0
C2373 C 0.69854 0.59286 0.61597 0.0
C2374 C 0.68262 0.5884 0.63144 0.0
C2375 C 0.72011 0.58856 0.62029 0.0
C2376 C 0.75663 0.58427 0.66599 0.0
H2377 H 0.8523 0.58841 0.69902 0.0
H2378 H 0.81996 0.59878 0.67953 0.0
H2379 H 0.78316 0.58655 0.68777 0.0
H2380 H 0.67682 0.57491 0.66313 0.0
H2381 H 0.71444 0.5674 0.67056 0.0
H2382 H 0.75819 0.5627 0.61544 0.0
C2383 C 0.82602 0.58265 0.67735 0.0
C2384 C 0.77807 0.58165 0.67176 0.0
C2385 C 0.84455 0.57674 0.68844 0.0
C2386 C 0.68865 0.57873 0.65093 0.0
C2387 C 0.71021 0.57452 0.65524 0.0
C2388 C 0.76362 0.56818 0.63115 0.0
C2389 C 0.81463 0.56745 0.66479 0.0
C2390 C 0.79252 0.57204 0.65742 0.0
C2391 C 0.72617 0.57982 0.64016 0.0
C2392 C 0.74912 0.57734 0.64576 0.0
H2393 H 0.84737 0.52457 0.67141 0.0
H2394 H 0.81476 0.53481 0.6523 0.0
H2395 H 0.79598 0.55798 0.62565 0.0
H2396 H 0.69445 0.60019 0.60073 0.0
H2397 H 0.73213 0.59284 0.60842 0.0
C2398 C 0.69921 0.57182 0.01146 0.0
C2399 C 0.72063 0.57937 0.01226 0.0
C2400 C 0.69316 0.55543 -0.00277 0.0
C2401 C 0.68895 0.51185 0.97506 0.0
H2402 H 0.70603 0.5153 0.91512 0.0
C2403 C 0.68035 0.44062 0.91676 0.0
C2404 C 0.67045 0.44457 0.89678 0.0
C2405 C 0.68629 0.4576 0.93031 0.0
C2406 C 0.70108 0.51426 0.93179 0.0
H2407 H 0.75253 0.57547 -0.00114 0.0
H2408 H 0.74181 0.54674 0.97382 0.0
H2409 H 0.71725 0.54377 0.94039 0.0
H2410 H 0.6594 0.46952 0.87521 0.0
H2411 H 0.67018 0.4994 0.899 0.0
H2412 H 0.67294 0.48232 0.96657 0.0
C2413 C 0.72979 0.55366 0.98424 0.0
C2414 C 0.70765 0.53037 0.94624 0.0
C2415 C 0.73593 0.56994 -0.00131 0.0
C2416 C 0.66693 0.46597 0.89052 0.0
C2417 C 0.67317 0.48303 0.90404 0.0
C2418 C 0.68262 0.49566 0.9607 0.0
C2419 C 0.70832 0.54635 0.98334 0.0
C2420 C 0.70165 0.52927 0.968 0.0
C2421 C 0.68269 0.47893 0.92414 0.0
C2422 C 0.68869 0.49667 0.93897 0.0
H2423 H 0.68702 0.57871 0.02172 0.0
H2424 H 0.67648 0.55014 -0.00324 0.0
H2425 H 0.68418 0.5106 0.99176 0.0
H2426 H 0.68326 0.42436 0.92216 0.0
H2427 H 0.69382 0.45403 0.94563 0.0
C2428 C 0.67003 0.4656 0.15349 0.0
C2429 C 0.66199 0.46063 0.17398 0.0
C2430 C 0.6851 0.45235 0.14372 0.0
C2431 C 0.71041 0.3984 0.14767 0.0
H2432 H 0.75715 0.42717 0.11774 0.0
C2433 C 0.79641 0.36727 0.13998 0.0
C2434 C 0.80784 0.37141 0.12095 0.0
C2435 C 0.77522 0.37398 0.14213 0.0
C2436 C 0.74397 0.41882 0.12561 0.0
H2437 H 0.66329 0.438 0.20038 0.0
H2438 H 0.69041 0.41535 0.1838 0.0
H2439 H 0.72713 0.44805 0.13072 0.0
H2440 H 0.80561 0.3843 0.08863 0.0
H2441 H 0.76855 0.39649 0.0926 0.0
H2442 H 0.72826 0.36935 0.14367 0.0
C2443 C 0.6846 0.42908 0.17491 0.0
C2444 C 0.72672 0.43079 0.13309 0.0
C2445 C 0.66924 0.44217 0.18454 0.0
C2446 C 0.79719 0.38097 0.10351 0.0
C2447 C 0.77605 0.38798 0.10578 0.0
C2448 C 0.72786 0.38646 0.14042 0.0
C2449 C 0.69274 0.43404 0.15438 0.0
C2450 C 0.70993 0.42082 0.14462 0.0
C2451 C 0.76517 0.38519 0.12538 0.0
C2452 C 0.74498 0.39667 0.1297 0.0
H2453 H 0.66447 0.47959 0.14484 0.0
H2454 H 0.69069 0.45647 0.12775 0.0
H2455 H 0.69752 0.39012 0.15607 0.0
H2456 H 0.80416 0.35969 0.15359 0.0
H2457 H 0.76724 0.37173 0.15744 0.0
C2458 C 0.73781 0.44928 0.47722 0.0
C2459 C 0.74074 0.43559 0.49489 0.0
C2460 C 0.75487 0.46204 0.4698 0.0
C2461 C 0.80837 0.48454 0.48411 0.0
H2462 H 0.81491 0.48603 0.4221 0.0
C2463 C 0.85179 0.55123 0.438 0.0
C2464 C 0.85918 0.54693 0.41707 0.0
C2465 C 0.84347 0.53466 0.45067 0.0
C2466 C 0.81369 0.48542 0.43948 0.0
H2467 H 0.76351 0.42561 0.51946 0.0
H2468 H 0.79314 0.44774 0.50639 0.0
H2469 H 0.78625 0.46446 0.43773 0.0
H2470 H 0.86703 0.52146 0.3945 0.0
H2471 H 0.85286 0.49249 0.41684 0.0
H2472 H 0.83582 0.50571 0.48576 0.0
C2473 C 0.77772 0.4486 0.49827 0.0
C2474 C 0.79694 0.4734 0.4484 0.0
C2475 C 0.76071 0.43585 0.50568 0.0
C2476 C 0.86095 0.5254 0.41033 0.0
C2477 C 0.85274 0.50879 0.42309 0.0
C2478 C 0.82519 0.49662 0.47515 0.0
C2479 C 0.77515 0.46138 0.47991 0.0
C2480 C 0.79375 0.47326 0.47075 0.0
C2481 C 0.84257 0.51347 0.44271 0.0
C2482 C 0.82772 0.49758 0.45269 0.0
H2483 H 0.72263 0.44956 0.46862 0.0
H2484 H 0.7523 0.47214 0.45587 0.0
H2485 H 0.80635 0.48466 0.50142 0.0
H2486 H 0.85062 0.56759 0.44392 0.0
H2487 H 0.83591 0.53885 0.46576 0.0
C2488 C 0.79647 0.51254 0.73363 0.0
C2489 C 0.81721 0.51061 0.74237 0.0
C2490 C 0.78116 0.4961 0.73653 0.0
C2491 C 0.77517 0.43923 0.756 0.0
H2492 H 0.71775 0.45776 0.77054 0.0
C2493 C 0.71731 0.39789 0.81559 0.0
C2494 C 0.69514 0.39904 0.81129 0.0
C2495 C 0.73214 0.40661 0.80105 0.0
C2496 C 0.73359 0.45223 0.76609 0.0
H2497 H 0.83821 0.49011 0.76099 0.0
H2498 H 0.81146 0.46217 0.76692 0.0
H2499 H 0.74356 0.48377 0.75678 0.0
H2500 H 0.67131 0.40757 0.78721 0.0
H2501 H 0.69719 0.42287 0.76208 0.0
H2502 H 0.76535 0.40792 0.76699 0.0
C2503 C 0.80706 0.47582 0.75713 0.0
C2504 C 0.74842 0.46716 0.75812 0.0
C2505 C 0.82238 0.492 0.75394 0.0
C2506 C 0.68826 0.40691 0.79123 0.0
C2507 C 0.70304 0.41563 0.77679 0.0
C2508 C 0.76039 0.42435 0.76434 0.0
C2509 C 0.78623 0.47762 0.74852 0.0
C2510 C 0.76959 0.46101 0.75357 0.0
C2511 C 0.72498 0.41653 0.78207 0.0
C2512 C 0.73963 0.43087 0.76992 0.0
H2513 H 0.79218 0.52659 0.72436 0.0
H2514 H 0.76536 0.49792 0.72942 0.0
H2515 H 0.79118 0.4338 0.75213 0.0
H2516 H 0.72311 0.3918 0.83083 0.0
H2517 H 0.74901 0.40714 0.80549 0.0
C2518 C 0.80376 0.57231 0.08271 0.0
C2519 C 0.80339 0.58281 0.06275 0.0
C2520 C 0.81887 0.55639 0.0868 0.0
C2521 C 0.84792 0.51471 0.05988 0.0
H2522 H 0.87952 0.51059 0.11363 0.0
C2523 C 0.88772 0.43547 0.08266 0.0
C2524 C 0.88334 0.42871 0.10379 0.0
C2525 C 0.88473 0.45692 0.07671 0.0
C2526 C 0.87078 0.51144 0.09855 0.0
H2527 H 0.81869 0.58517 0.03151 0.0
H2528 H 0.84475 0.55677 0.03849 0.0
H2529 H 0.86038 0.54359 0.10509 0.0
H2530 H 0.874 0.43962 0.13562 0.0
H2531 H 0.86814 0.47652 0.12519 0.0
H2532 H 0.8568 0.4822 0.05388 0.0
C2533 C 0.83351 0.56112 0.05101 0.0
C2534 C 0.85992 0.53037 0.09366 0.0
C2535 C 0.81863 0.57734 0.04706 0.0
C2536 C 0.87747 0.44419 0.11918 0.0
C2537 C 0.87424 0.46552 0.11318 0.0
C2538 C 0.85847 0.49566 0.06491 0.0
C2539 C 0.83366 0.55043 0.07088 0.0
C2540 C 0.84792 0.53193 0.07456 0.0
C2541 C 0.87706 0.47201 0.09169 0.0
C2542 C 0.86948 0.49352 0.08463 0.0
H2543 H 0.79225 0.57626 0.09511 0.0
H2544 H 0.8185 0.5482 0.10216 0.0
H2545 H 0.83864 0.51547 0.0451 0.0
H2546 H 0.89258 0.42403 0.07046 0.0
H2547 H 0.8876 0.46145 0.06014 0.0
C2548 C 0.67246 0.51856 0.24687 0.0
C2549 C 0.65403 0.53128 0.24525 0.0
C2550 C 0.68789 0.52289 0.26274 0.0
C2551 C 0.70787 0.56657 0.29787 0.0
H2552 H 0.73963 0.5203 0.32445 0.0
C2553 C 0.77902 0.58286 0.35547 0.0
C2554 C 0.79793 0.57273 0.34865 0.0
C2555 C 0.7591 0.57659 0.3469 0.0
C2556 C 0.73077 0.53334 0.31722 0.0
H2557 H 0.63708 0.55825 0.25933 0.0
H2558 H 0.66383 0.56555 0.28714 0.0
H2559 H 0.70872 0.51178 0.3014 0.0
H2560 H 0.81069 0.54738 0.32843 0.0
H2561 H 0.77592 0.53644 0.31357 0.0
H2562 H 0.73017 0.58809 0.31345 0.0
C2563 C 0.66658 0.55251 0.2759 0.0
C2564 C 0.7132 0.5285 0.30395 0.0
C2565 C 0.65125 0.5483 0.25994 0.0
C2566 C 0.79644 0.55564 0.33383 0.0
C2567 C 0.77652 0.54921 0.3255 0.0
C2568 C 0.72532 0.57141 0.31129 0.0
C2569 C 0.6851 0.53991 0.27743 0.0
C2570 C 0.70198 0.54505 0.29362 0.0
C2571 C 0.75776 0.5599 0.33164 0.0
C2572 C 0.73728 0.55481 0.32056 0.0
H2573 H 0.67509 0.50536 0.23578 0.0
H2574 H 0.70219 0.51315 0.26321 0.0
H2575 H 0.6997 0.5797 0.29002 0.0
H2576 H 0.77967 0.59605 0.36692 0.0
H2577 H 0.7448 0.585 0.35191 0.0
C2578 C 0.67087 0.42196 0.56541 0.0
C2579 C 0.67027 0.40871 0.5471 0.0
C2580 C 0.65327 0.43461 0.57058 0.0
C2581 C 0.60921 0.46235 0.5447 0.0
H2582 H 0.59914 0.47902 0.60393 0.0
C2583 C 0.60464 0.54814 0.57098 0.0
C2584 C 0.59689 0.55348 0.59148 0.0
C2585 C 0.60209 0.52726 0.56301 0.0
C2586 C 0.60103 0.47434 0.58724 0.0
H2587 H 0.65052 0.3976 0.52026 0.0
H2588 H 0.61971 0.41988 0.52932 0.0
H2589 H 0.6175 0.44577 0.59628 0.0
H2590 H 0.57751 0.54218 0.61823 0.0
H2591 H 0.57267 0.50579 0.60407 0.0
H2592 H 0.59335 0.49132 0.53567 0.0
C2593 C 0.63384 0.42053 0.53958 0.0
C2594 C 0.61189 0.45535 0.5829 0.0
C2595 C 0.65148 0.40783 0.5344 0.0
C2596 C 0.58423 0.53833 0.60264 0.0
C2597 C 0.58143 0.51748 0.59452 0.0
C2598 C 0.5981 0.48127 0.54903 0.0
C2599 C 0.63467 0.43426 0.55758 0.0
C2600 C 0.61746 0.45002 0.56168 0.0
C2601 C 0.59155 0.51134 0.57528 0.0
C2602 C 0.59536 0.48827 0.57039 0.0
H2603 H 0.6851 0.42291 0.57551 0.0
H2604 H 0.65464 0.44535 0.58431 0.0
H2605 H 0.61302 0.45854 0.52813 0.0
H2606 H 0.61421 0.55953 0.56182 0.0
H2607 H 0.61019 0.52324 0.54816 0.0
C2608 C 0.75575 0.80913 0.53712 0.0
C2609 C 0.75796 0.82815 0.54926 0.0
C2610 C 0.74458 0.79141 0.54539 0.0
C2611 C 0.72246 0.76808 0.59586 0.0
H2612 H 0.68651 0.73584 0.55565 0.0
C2613 C 0.65721 0.70392 0.61927 0.0
C2614 C 0.65735 0.68482 0.60702 0.0
C2615 C 0.67077 0.72123 0.6139 0.0
C2616 C 0.6966 0.7446 0.56703 0.0
H2617 H 0.75043 0.8434 0.57976 0.0
H2618 H 0.73037 0.81268 0.59395 0.0
H2619 H 0.70748 0.76648 0.54292 0.0
H2620 H 0.67263 0.66869 0.58008 0.0
H2621 H 0.69592 0.69886 0.57073 0.0
H2622 H 0.7109 0.74626 0.62006 0.0
C2623 C 0.73766 0.81128 0.57821 0.0
C2624 C 0.70872 0.7621 0.55974 0.0
C2625 C 0.74908 0.82894 0.57003 0.0
C2626 C 0.67189 0.68317 0.5898 0.0
C2627 C 0.68523 0.70047 0.58436 0.0
C2628 C 0.71009 0.75064 0.60321 0.0
C2629 C 0.73508 0.79237 0.56589 0.0
C2630 C 0.72198 0.77394 0.57398 0.0
C2631 C 0.68451 0.71979 0.59608 0.0
C2632 C 0.69724 0.73864 0.58878 0.0
H2633 H 0.76265 0.8079 0.52118 0.0
H2634 H 0.74337 0.77695 0.53566 0.0
H2635 H 0.73264 0.77671 0.60723 0.0
H2636 H 0.64632 0.7057 0.63271 0.0
H2637 H 0.66994 0.73601 0.62316 0.0
C2638 C 0.20106 0.68727 0.51451 0.0
C2639 C 0.21237 0.66891 0.50807 0.0
C2640 C 0.19509 0.70266 0.49939 0.0
C2641 C 0.20926 0.72451 0.44682 0.0
H2642 H 0.15157 0.74753 0.44832 0.0
C2643 C 0.15143 0.7887 0.39925 0.0
C2644 C 0.16489 0.80706 0.39999 0.0
C2645 C 0.15764 0.76968 0.40927 0.0
C2646 C 0.16765 0.74105 0.4475 0.0
H2647 H 0.22658 0.65249 0.48076 0.0
H2648 H 0.21626 0.67953 0.45445 0.0
H2649 H 0.16131 0.71861 0.47282 0.0
H2650 H 0.19605 0.81938 0.41059 0.0
H2651 H 0.20683 0.78618 0.42802 0.0
H2652 H 0.21569 0.74729 0.42178 0.0
C2653 C 0.212 0.68191 0.47118 0.0
C2654 C 0.17327 0.72469 0.46168 0.0
C2655 C 0.2178 0.66641 0.48625 0.0
C2656 C 0.18521 0.8056 0.40987 0.0
C2657 C 0.19148 0.78653 0.41973 0.0
C2658 C 0.20368 0.74102 0.43276 0.0
C2659 C 0.20048 0.70009 0.4776 0.0
C2660 C 0.19421 0.71649 0.46167 0.0
C2661 C 0.17751 0.7686 0.42002 0.0
C2662 C 0.1829 0.74962 0.43317 0.0
H2663 H 0.19664 0.68969 0.53118 0.0
H2664 H 0.18644 0.7167 0.50479 0.0
H2665 H 0.22553 0.71848 0.44655 0.0
H2666 H 0.13571 0.78923 0.39168 0.0
H2667 H 0.14669 0.75598 0.40908 0.0
C2668 C 0.61055 0.93854 0.69417 0.0
C2669 C 0.61278 0.95948 0.68604 0.0
C2670 C 0.59795 0.92321 0.68321 0.0
C2671 C 0.56553 0.91486 0.63236 0.0
H2672 H 0.52795 0.883 0.67073 0.0
C2673 C 0.47393 0.90038 0.62731 0.0
C2674 C 0.46671 0.87889 0.62759 0.0
C2675 C 0.49585 0.9052 0.629 0.0
C2676 C 0.53863 0.89142 0.65979 0.0
H2677 H 0.60451 0.98058 0.65965 0.0
H2678 H 0.58163 0.95461 0.64135 0.0
H2679 H 0.56008 0.9005 0.68512 0.0
H2680 H 0.47665 0.84556 0.62894 0.0
H2681 H 0.51505 0.85419 0.63294 0.0
H2682 H 0.54238 0.90749 0.60755 0.0
C2683 C 0.59005 0.94949 0.65569 0.0
C2684 C 0.55716 0.90141 0.66796 0.0
C2685 C 0.60298 0.96459 0.66638 0.0
C2686 C 0.48184 0.86227 0.62855 0.0
C2687 C 0.50373 0.86713 0.63081 0.0
C2688 C 0.54666 0.90531 0.62432 0.0
C2689 C 0.58697 0.92871 0.66415 0.0
C2690 C 0.57037 0.91405 0.65454 0.0
C2691 C 0.51076 0.88863 0.63145 0.0
C2692 C 0.53281 0.89416 0.63818 0.0
H2693 H 0.61829 0.93409 0.70913 0.0
H2694 H 0.59639 0.90725 0.68999 0.0
H2695 H 0.57567 0.92385 0.62138 0.0
H2696 H 0.46258 0.91344 0.62652 0.0
H2697 H 0.50104 0.9219 0.62974 0.0
C2698 C 0.29982 0.31179 0.98493 0.0
C2699 C 0.28132 0.32302 0.97894 0.0
C2700 C 0.30497 0.29256 0.9747 0.0
C2701 C 0.28373 0.2481 0.94134 0.0
H2702 H 0.34379 0.2427 0.9258 0.0
C2703 C 0.34575 0.18796 0.89328 0.0
C2704 C 0.33975 0.16818 0.9025 0.0
C2705 C 0.33612 0.20699 0.89999 0.0
C2706 C 0.3269 0.24404 0.92972 0.0
H2707 H 0.25317 0.32255 0.95817 0.0
H2708 H 0.26234 0.28885 0.94006 0.0
H2709 H 0.33169 0.2754 0.94318 0.0
H2710 H 0.31812 0.15276 0.92527 0.0
H2711 H 0.3017 0.18604 0.93729 0.0
H2712 H 0.27904 0.21661 0.92774 0.0
C2713 C 0.27277 0.29494 0.95276 0.0
C2714 C 0.32003 0.26267 0.93997 0.0
C2715 C 0.26758 0.31423 0.96306 0.0
C2716 C 0.32323 0.16774 0.91791 0.0
C2717 C 0.31367 0.1868 0.92469 0.0
C2718 C 0.29064 0.22936 0.93106 0.0
C2719 C 0.29178 0.28419 0.95818 0.0
C2720 C 0.29847 0.26476 0.94621 0.0
C2721 C 0.32037 0.20667 0.91615 0.0
C2722 C 0.31237 0.22707 0.92537 0.0
H2723 H 0.31058 0.31802 -0.00271 0.0
H2724 H 0.31946 0.28435 0.97956 0.0
H2725 H 0.26701 0.24931 0.94598 0.0
H2726 H 0.35816 0.18885 0.88111 0.0
H2727 H 0.34132 0.22202 0.89281 0.0
C2728 C 0.39837 0.52106 0.68648 0.0
C2729 C 0.40229 0.51271 0.70713 0.0
C2730 C 0.41102 0.53793 0.67846 0.0
C2731 C 0.45056 0.5603 0.66051 0.0
H2732 H 0.47676 0.60347 0.69795 0.0
C2733 C 0.53656 0.58797 0.65184 0.0
C2734 C 0.54254 0.60969 0.6545 0.0
C2735 C 0.51546 0.58124 0.65517 0.0
C2736 C 0.46922 0.59188 0.68714 0.0
H2737 H 0.42239 0.51585 0.73567 0.0
H2738 H 0.44479 0.54475 0.72145 0.0
H2739 H 0.44596 0.58228 0.71068 0.0
H2740 H 0.53101 0.64153 0.66241 0.0
H2741 H 0.49372 0.62943 0.66901 0.0
H2742 H 0.47435 0.56928 0.63734 0.0
C2743 C 0.43162 0.53863 0.71163 0.0
C2744 C 0.4518 0.57956 0.6945 0.0
C2745 C 0.41894 0.52183 0.71968 0.0
C2746 C 0.5268 0.62468 0.66031 0.0
C2747 C 0.50556 0.6178 0.66405 0.0
C2748 C 0.46792 0.5726 0.65319 0.0
C2749 C 0.42792 0.54677 0.69088 0.0
C2750 C 0.44297 0.56294 0.68163 0.0
C2751 C 0.49978 0.59599 0.66146 0.0
C2752 C 0.47807 0.58773 0.66682 0.0
H2753 H 0.38549 0.51463 0.67647 0.0
H2754 H 0.40765 0.54396 0.66248 0.0
H2755 H 0.44417 0.54766 0.65016 0.0
H2756 H 0.54822 0.57604 0.64711 0.0
H2757 H 0.51155 0.56427 0.65343 0.0
C2758 C 0.77756 0.14985 0.01304 0.0
C2759 C 0.7598 0.14301 0.02523 0.0
C2760 C 0.79135 0.166 0.02092 0.0
C2761 C 0.78967 0.21242 0.05679 0.0
H2762 H 0.85177 0.21353 0.05096 0.0
C2763 C 0.86496 0.26738 0.08859 0.0
C2764 C 0.85736 0.28797 0.08343 0.0
C2765 C 0.85437 0.24897 0.08087 0.0
C2766 C 0.83444 0.21335 0.05274 0.0
H2767 H 0.74327 0.14655 0.05571 0.0
H2768 H 0.76737 0.17461 0.06947 0.0
H2769 H 0.83126 0.18138 0.03987 0.0
H2770 H 0.833 0.30534 0.06564 0.0
H2771 H 0.81453 0.27313 0.05222 0.0
H2772 H 0.79272 0.24423 0.06971 0.0
C2773 C 0.77041 0.16783 0.05369 0.0
C2774 C 0.82274 0.19507 0.04629 0.0
C2775 C 0.75667 0.15175 0.04583 0.0
C2776 C 0.83923 0.28974 0.07 0.0
C2777 C 0.82859 0.27132 0.06239 0.0
C2778 C 0.80131 0.23068 0.06308 0.0
C2779 C 0.78753 0.17551 0.04108 0.0
C2780 C 0.80025 0.19446 0.04831 0.0
C2781 C 0.83592 0.25079 0.06795 0.0
C2782 C 0.82378 0.23135 0.06106 0.0
H2783 H 0.78039 0.14328 -0.00287 0.0
H2784 H 0.8044 0.1717 0.01085 0.0
H2785 H 0.77231 0.21249 0.05826 0.0
H2786 H 0.87895 0.26543 0.09882 0.0
H2787 H 0.86025 0.23331 0.08551 0.0
C2788 C 0.55165 0.02937 0.72371 0.0
C2789 C 0.57131 0.02189 0.73183 0.0
C2790 C 0.53562 0.03629 0.73773 0.0
C2791 C 0.51644 0.03239 0.79342 0.0
H2792 H 0.48853 0.08631 0.78039 0.0
C2793 C 0.43715 0.05961 0.83213 0.0
C2794 C 0.43496 0.08152 0.8373 0.0
C2795 C 0.4555 0.05235 0.82165 0.0
C2796 C 0.49635 0.07136 0.78437 0.0
H2797 H 0.58922 0.01506 0.76108 0.0
H2798 H 0.56118 0.02705 0.78544 0.0
H2799 H 0.51664 0.07304 0.75666 0.0
H2800 H 0.45077 0.11286 0.83636 0.0
H2801 H 0.48284 0.10012 0.81789 0.0
H2802 H 0.496 0.03066 0.82107 0.0
C2803 C 0.55822 0.02759 0.76826 0.0
C2804 C 0.51222 0.06363 0.77064 0.0
C2805 C 0.5743 0.02082 0.75426 0.0
C2806 C 0.45193 0.09588 0.83256 0.0
C2807 C 0.47023 0.08863 0.82189 0.0
C2808 C 0.50043 0.04004 0.80707 0.0
C2809 C 0.53886 0.0357 0.76012 0.0
C2810 C 0.52229 0.04399 0.77493 0.0
C2811 C 0.47198 0.06687 0.81597 0.0
C2812 C 0.49013 0.05952 0.80258 0.0
H2813 H 0.54879 0.03037 0.70653 0.0
H2814 H 0.5207 0.04218 0.73104 0.0
H2815 H 0.52391 0.01717 0.79707 0.0
H2816 H 0.42444 0.04808 0.83569 0.0
H2817 H 0.45635 0.03552 0.81717 0.0
C2818 C 0.94391 0.95322 0.24472 0.0
C2819 C 0.9292 0.96579 0.25616 0.0
C2820 C 0.96394 0.94855 0.25367 0.0
C2821 C 0.98987 0.94238 0.30598 0.0
H2822 H 0.04234 0.94038 0.27249 0.0
C2823 C 0.08571 0.92316 0.31836 0.0
C2824 C 0.08404 0.90343 0.32932 0.0
C2825 C 0.0674 0.93295 0.31003 0.0
C2826 C 0.02786 0.94107 0.2821 0.0
H2827 H 0.92418 0.98405 0.28554 0.0
H2828 H 0.95918 0.97583 0.30115 0.0
H2829 H 0.00962 0.95466 0.25629 0.0
H2830 H 0.06172 0.87871 0.34035 0.0
H2831 H 0.02983 0.89581 0.32577 0.0
H2832 H 0.00802 0.92858 0.3317 0.0
C2833 C 0.95513 0.96943 0.28538 0.0
C2834 C 0.00913 0.94906 0.27278 0.0
C2835 C 0.93514 0.97419 0.2764 0.0
C2836 C 0.06362 0.89387 0.33198 0.0
C2837 C 0.04531 0.90373 0.32376 0.0
C2838 C 0.00856 0.93427 0.31524 0.0
C2839 C 0.96958 0.95629 0.27424 0.0
C2840 C 0.98989 0.94954 0.28455 0.0
C2841 C 0.04704 0.9233 0.31263 0.0
C2842 C 0.02765 0.93327 0.3033 0.0
H2843 H 0.9398 0.94659 0.22906 0.0
H2844 H 0.9747 0.93821 0.2448 0.0
H2845 H 0.97524 0.94238 0.31538 0.0
H2846 H 0.10118 0.93101 0.31604 0.0
H2847 H 0.06915 0.94813 0.30167 0.0
C2848 C 0.46692 0.26311 0.15949 0.0
C2849 C 0.48834 0.27006 0.1572 0.0
C2850 C 0.45292 0.27418 0.17302 0.0
C2851 C 0.43018 0.29081 0.21223 0.0
H2852 H 0.43938 0.35105 0.22635 0.0
C2853 C 0.40114 0.32627 0.29158 0.0
C2854 C 0.39643 0.34827 0.2935 0.0
C2855 C 0.40857 0.31778 0.27226 0.0
C2856 C 0.43621 0.33433 0.22234 0.0
H2857 H 0.51203 0.29395 0.16716 0.0
H2858 H 0.48815 0.31248 0.19186 0.0
H2859 H 0.45941 0.33497 0.19705 0.0
H2860 H 0.39471 0.37835 0.27602 0.0
H2861 H 0.4071 0.36331 0.24188 0.0
H2862 H 0.4064 0.29035 0.23689 0.0
C2863 C 0.48171 0.29906 0.18261 0.0
C2864 C 0.44807 0.32494 0.20575 0.0
C2865 C 0.49554 0.28831 0.16863 0.0
C2866 C 0.39832 0.36136 0.27517 0.0
C2867 C 0.40559 0.35276 0.25563 0.0
C2868 C 0.41803 0.30029 0.22846 0.0
C2869 C 0.46018 0.29213 0.18508 0.0
C2870 C 0.44575 0.30286 0.20092 0.0
C2871 C 0.41126 0.33092 0.25408 0.0
C2872 C 0.42144 0.32197 0.23432 0.0
H2873 H 0.46086 0.24928 0.15056 0.0
H2874 H 0.43639 0.26859 0.17395 0.0
H2875 H 0.42788 0.27376 0.20924 0.0
H2876 H 0.39993 0.3156 0.30529 0.0
H2877 H 0.41312 0.30102 0.27198 0.0
C2878 C 0.5086 0.74435 0.93828 0.0
C2879 C 0.53081 0.74112 0.94019 0.0
C2880 C 0.49441 0.73529 0.95305 0.0
C2881 C 0.46666 0.7036 0.97626 0.0
H2882 H 0.47933 0.69848 0.03711 0.0
C2883 C 0.40689 0.6618 0.0335 0.0
C2884 C 0.40475 0.67066 0.05418 0.0
C2885 C 0.42357 0.66865 0.02005 0.0
C2886 C 0.47543 0.69997 0.02019 0.0
H2887 H 0.55581 0.72647 0.95931 0.0
H2888 H 0.53084 0.70978 0.98495 0.0
H2889 H 0.50581 0.71499 0.01337 0.0
H2890 H 0.41815 0.69378 0.07696 0.0
H2891 H 0.44648 0.70652 0.0532 0.0
H2892 H 0.43589 0.68983 0.9831 0.0
C2893 C 0.5244 0.71971 0.97223 0.0
C2894 C 0.49078 0.70916 0.00651 0.0
C2895 C 0.53871 0.7292 0.95758 0.0
C2896 C 0.4195 0.68657 0.06112 0.0
C2897 C 0.43589 0.69372 0.04754 0.0
C2898 C 0.45123 0.69476 0.98994 0.0
C2899 C 0.50203 0.72232 0.96986 0.0
C2900 C 0.48644 0.7114 0.98442 0.0
C2901 C 0.4382 0.68483 0.02683 0.0
C2902 C 0.45527 0.69303 0.01213 0.0
H2903 H 0.50213 0.75382 0.9252 0.0
H2904 H 0.4774 0.73833 0.95112 0.0
H2905 H 0.46294 0.70451 0.95925 0.0
H2906 H 0.39593 0.64928 0.02787 0.0
H2907 H 0.42505 0.66111 0.00439 0.0
C2908 C 0.06794 0.73179 0.66375 0.0
C2909 C 0.06282 0.71628 0.64797 0.0
C2910 C 0.08001 0.72621 0.68182 0.0
C2911 C 0.08432 0.70493 0.72472 0.0
H2912 H 0.12574 0.65896 0.7287 0.0
C2913 C 0.10432 0.63373 0.7873 0.0
C2914 C 0.10417 0.6454 0.80674 0.0
C2915 C 0.10488 0.6445 0.76759 0.0
C2916 C 0.1142 0.67184 0.72779 0.0
H2917 H 0.06802 0.68331 0.63775 0.0
H2918 H 0.08831 0.67339 0.66957 0.0
H2919 H 0.11836 0.67544 0.69376 0.0
H2920 H 0.10572 0.67754 0.82068 0.0
H2921 H 0.10671 0.69616 0.7864 0.0
H2922 H 0.07957 0.70097 0.75845 0.0
C2923 C 0.08337 0.68995 0.66793 0.0
C2924 C 0.10999 0.68129 0.70783 0.0
C2925 C 0.07155 0.69561 0.64971 0.0
C2926 C 0.1054 0.66801 0.80603 0.0
C2927 C 0.10602 0.67872 0.78639 0.0
C2928 C 0.08859 0.6956 0.74458 0.0
C2929 C 0.08689 0.70493 0.68464 0.0
C2930 C 0.09455 0.69754 0.706 0.0
C2931 C 0.10536 0.66712 0.76697 0.0
C2932 C 0.10314 0.6786 0.74626 0.0
H2933 H 0.06182 0.748 0.66262 0.0
H2934 H 0.08298 0.7383 0.69414 0.0
H2935 H 0.07199 0.71706 0.72392 0.0
H2936 H 0.10353 0.6163 0.78728 0.0
H2937 H 0.10411 0.63514 0.75285 0.0
C2938 C 0.98998 0.35055 0.43271 0.0
C2939 C -0.00063 0.34938 0.41228 0.0
C2940 C 0.00113 0.36047 0.44969 0.0
C2941 C 0.05734 0.36738 0.46508 0.0
H2942 H 0.032 0.38789 0.51811 0.0
C2943 C 0.10253 0.36714 0.54697 0.0
C2944 C 0.09069 0.3565 0.56311 0.0
C2945 C 0.09262 0.37292 0.52761 0.0
C2946 C 0.03933 0.38236 0.50333 0.0
H2947 H 0.02628 0.35991 0.39272 0.0
H2948 H 0.04548 0.37777 0.42221 0.0
H2949 H 0.0111 0.38884 0.48473 0.0
H2950 H 0.05914 0.34366 0.57146 0.0
H2951 H 0.04208 0.35362 0.53782 0.0
H2952 H 0.08521 0.36007 0.48387 0.0
C2953 C 0.02992 0.37044 0.42537 0.0
C2954 C 0.02739 0.38288 0.48426 0.0
C2955 C 0.0189 0.36029 0.40849 0.0
C2956 C 0.06882 0.35171 0.5594 0.0
C2957 C 0.05892 0.3577 0.54023 0.0
C2958 C 0.06932 0.36702 0.48411 0.0
C2959 C 0.02174 0.36955 0.4464 0.0
C2960 C 0.0359 0.37442 0.46514 0.0
C2961 C 0.07066 0.36845 0.52421 0.0
C2962 C 0.06003 0.37354 0.50356 0.0
H2963 H 0.97491 0.34229 0.43602 0.0
H2964 H 0.99436 0.35937 0.46569 0.0
H2965 H 0.06439 0.36053 0.45073 0.0
H2966 H 0.11938 0.37116 0.54936 0.0
H2967 H 0.10203 0.38108 0.5154 0.0
C2968 C 0.40566 0.7232 0.30904 0.0
C2969 C 0.42122 0.71067 0.31932 0.0
C2970 C 0.3905 0.71358 0.29531 0.0
C2971 C 0.36798 0.66028 0.27757 0.0
H2972 H 0.35855 0.69088 0.22422 0.0
C2973 C 0.35441 0.62194 0.19475 0.0
C2974 C 0.3442 0.63428 0.17899 0.0
C2975 C 0.35532 0.62933 0.21603 0.0
C2976 C 0.36043 0.68226 0.23922 0.0
H2977 H 0.43317 0.67833 0.32348 0.0
H2978 H 0.40741 0.66164 0.2987 0.0
H2979 H 0.37798 0.70848 0.25315 0.0
H2980 H 0.32461 0.66216 0.17306 0.0
H2981 H 0.32543 0.67467 0.21036 0.0
H2982 H 0.3515 0.63348 0.26273 0.0
C2983 C 0.40638 0.67877 0.30173 0.0
C2984 C 0.37167 0.6924 0.25588 0.0
C2985 C 0.42134 0.68836 0.31571 0.0
C2986 C 0.33261 0.65249 0.18509 0.0
C2987 C 0.33321 0.65968 0.20636 0.0
C2988 C 0.35682 0.65002 0.26073 0.0
C2989 C 0.39082 0.69128 0.2913 0.0
C2990 C 0.37615 0.68136 0.27503 0.0
C2991 C 0.34594 0.64906 0.22165 0.0
C2992 C 0.35344 0.66075 0.24118 0.0
H2993 H 0.405 0.7404 0.31182 0.0
H2994 H 0.37855 0.72366 0.28781 0.0
H2995 H 0.37077 0.65148 0.29231 0.0
H2996 H 0.36358 0.60793 0.19023 0.0
H2997 H 0.36527 0.62079 0.22742 0.0
C2998 C 0.03184 0.65472 0.10153 0.0
C2999 C 0.02392 0.67536 0.09729 0.0
C3000 C 0.03315 0.63949 0.08507 0.0
C3001 C 0.02327 0.63068 0.02631 0.0
H3002 H 0.0843 0.61839 0.02661 0.0
C3003 C 0.07486 0.63967 0.95211 0.0
C3004 C 0.09221 0.62591 0.94833 0.0
C3005 C 0.06278 0.63781 0.97082 0.0
C3006 C 0.06712 0.62107 0.02632 0.0
H3007 H 0.00863 0.69541 0.0734 0.0
H3008 H 0.01159 0.66919 0.04443 0.0
H3009 H 0.0667 0.62774 0.05994 0.0
H3010 H 0.11045 0.59931 0.9613 0.0
H3011 H 0.08939 0.59633 0.99432 0.0
H3012 H 0.02424 0.62537 0.99227 0.0
C3013 C 0.01657 0.66454 0.06045 0.0
C3014 C 0.05693 0.62639 0.0455 0.0
C3015 C 0.01503 0.67969 0.07701 0.0
C3016 C 0.09734 0.61035 0.96385 0.0
C3017 C 0.08519 0.6085 0.98265 0.0
C3018 C 0.03348 0.62532 0.00709 0.0
C3019 C 0.02686 0.64481 0.06405 0.0
C3020 C 0.03521 0.63249 0.04548 0.0
C3021 C 0.06771 0.62215 0.98624 0.0
C3022 C 0.05578 0.62174 0.00678 0.0
H3023 H 0.03826 0.65077 0.11725 0.0
H3024 H 0.04065 0.62422 0.08842 0.0
H3025 H 0.00641 0.63487 0.0259 0.0
H3026 H 0.07046 0.65186 0.94054 0.0
H3027 H 0.04982 0.64901 0.9734 0.0
C3028 C 0.97905 0.21586 0.79317 0.0
C3029 C 0.97159 0.22638 0.8117 0.0
C3030 C 0.99229 0.22684 0.77858 0.0
C3031 C 0.03304 0.24914 0.76223 0.0
H3032 H 0.02431 0.30868 0.74628 0.0
C3033 C 0.07932 0.32661 0.71989 0.0
C3034 C 0.08607 0.31675 0.70073 0.0
C3035 C 0.06736 0.31489 0.73494 0.0
C3036 C 0.02716 0.29216 0.75091 0.0
H3037 H 0.97069 0.25699 0.82862 0.0
H3038 H 0.99359 0.276 0.80331 0.0
H3039 H -0.00314 0.28969 0.76695 0.0
H3040 H 0.08764 0.28641 0.68339 0.0
H3041 H 0.06687 0.26606 0.70958 0.0
H3042 H 0.06333 0.25164 0.74604 0.0
C3043 C 0.9894 0.25934 0.79999 0.0
C3044 C 0.01136 0.28124 0.7626 0.0
C3045 C 0.97634 0.24839 0.81457 0.0
C3046 C 0.08244 0.29452 0.6979 0.0
C3047 C 0.0706 0.28282 0.71296 0.0
C3048 C 0.04886 0.26008 0.75048 0.0
C3049 C -0.00194 0.24854 0.7822 0.0
C3050 C 0.01414 0.25964 0.76845 0.0
C3051 C 0.06211 0.2931 0.73115 0.0
C3052 C 0.04611 0.28173 0.74476 0.0
H3053 H 0.97566 0.19891 0.79056 0.0
H3054 H -0.00152 0.21821 0.76479 0.0
H3055 H 0.03583 0.23262 0.76684 0.0
H3056 H 0.08191 0.34369 0.72256 0.0
H3057 H 0.06139 0.32311 0.74907 0.0
C3058 C 0.48739 0.2631 0.55455 0.0
C3059 C 0.47478 0.25245 0.56999 0.0
C3060 C 0.47764 0.2742 0.53772 0.0
C3061 C 0.42647 0.28135 0.50823 0.0
H3062 H 0.45002 0.3384 0.49738 0.0
C3063 C 0.38566 0.3396 0.4494 0.0
C3064 C 0.39962 0.3485 0.43397 0.0
C3065 C 0.39394 0.32939 0.4676 0.0
C3066 C 0.44332 0.32249 0.50019 0.0
H3067 H 0.44214 0.24394 0.57921 0.0
H3068 H 0.42514 0.26339 0.54988 0.0
H3069 H 0.46668 0.31569 0.52449 0.0
H3070 H 0.4331 0.35503 0.42629 0.0
H3071 H 0.44744 0.33733 0.45796 0.0
H3072 H 0.40318 0.28814 0.48379 0.0
C3073 C 0.44254 0.26315 0.55074 0.0
C3074 C 0.45292 0.30942 0.5156 0.0
C3075 C 0.45229 0.25204 0.56757 0.0
C3076 C 0.42191 0.3482 0.4378 0.0
C3077 C 0.43015 0.33815 0.45602 0.0
C3078 C 0.41684 0.29444 0.49281 0.0
C3079 C 0.4551 0.27486 0.536 0.0
C3080 C 0.44475 0.28863 0.51963 0.0
C3081 C 0.41629 0.3281 0.47079 0.0
C3082 C 0.4253 0.31506 0.48849 0.0
H3083 H 0.50477 0.26357 0.55592 0.0
H3084 H 0.48775 0.28268 0.5263 0.0
H3085 H 0.4199 0.26536 0.51088 0.0
H3086 H 0.3684 0.33957 0.44691 0.0
H3087 H 0.38288 0.32203 0.47891 0.0
C3088 C 0.18715 0.50094 0.26313 0.0
C3089 C 0.18532 0.49803 0.24074 0.0
C3090 C 0.20356 0.49093 0.27464 0.0
C3091 C 0.2366 0.44269 0.26984 0.0
H3092 H 0.26547 0.46485 0.3209 0.0
C3093 C 0.30804 0.40087 0.31022 0.0
C3094 C 0.30964 0.40132 0.33279 0.0
C3095 C 0.29159 0.41172 0.29972 0.0
C3096 C 0.25726 0.45836 0.30685 0.0
H3097 H 0.20052 0.48436 0.21256 0.0
H3098 H 0.22949 0.46739 0.23257 0.0
H3099 H 0.24163 0.48822 0.30044 0.0
H3100 H 0.29459 0.41257 0.36212 0.0
H3101 H 0.26566 0.43157 0.34366 0.0
H3102 H 0.25229 0.41292 0.27614 0.0
C3103 C 0.21783 0.47677 0.24133 0.0
C3104 C 0.24372 0.47177 0.29507 0.0
C3105 C 0.20137 0.48668 0.22984 0.0
C3106 C 0.29372 0.41186 0.34471 0.0
C3107 C 0.27732 0.42293 0.33415 0.0
C3108 C 0.25014 0.42934 0.28157 0.0
C3109 C 0.2185 0.47795 0.26394 0.0
C3110 C 0.23338 0.46412 0.27632 0.0
C3111 C 0.27643 0.4234 0.31154 0.0
C3112 C 0.26073 0.43706 0.30011 0.0
H3113 H 0.17504 0.50964 0.272 0.0
H3114 H 0.20364 0.49221 0.29204 0.0
H3115 H 0.22841 0.43609 0.25582 0.0
H3116 H 0.32004 0.39282 0.3006 0.0
H3117 H 0.2914 0.41186 0.28228 0.0
C3118 C 0.32384 0.42976 0.00899 0.0
C3119 C 0.31026 0.42245 0.99236 0.0
C3120 C 0.3355 0.44891 0.00676 0.0
C3121 C 0.32836 0.50077 0.98469 0.0
H3122 H 0.38479 0.51089 0.00986 0.0
C3123 C 0.3481 0.58143 0.02466 0.0
C3124 C 0.35458 0.57826 0.04613 0.0
C3125 C 0.34927 0.56461 0.00967 0.0
C3126 C 0.36911 0.5084 0.00251 0.0
H3127 H 0.29878 0.42879 0.96002 0.0
H3128 H 0.31865 0.46299 0.95648 0.0
H3129 H 0.37436 0.47465 -0.00185 0.0
H3130 H 0.36909 0.55559 0.06819 0.0
H3131 H 0.37072 0.52641 0.04243 0.0
H3132 H 0.32219 0.5339 0.99098 0.0
C3133 C 0.32052 0.45362 0.97102 0.0
C3134 C 0.36321 0.4877 0.99574 0.0
C3135 C 0.30916 0.43415 0.97309 0.0
C3136 C 0.36364 0.5585 0.05188 0.0
C3137 C 0.36489 0.54181 0.03695 0.0
C3138 C 0.33417 0.52143 0.99166 0.0
C3139 C 0.33351 0.46131 0.98801 0.0
C3140 C 0.34232 0.4835 0.98802 0.0
C3141 C 0.3571 0.54441 0.01585 0.0
C3142 C 0.35408 0.52511 0.00196 0.0
H3143 H 0.32508 0.42094 0.02394 0.0
H3144 H 0.34511 0.45464 0.02026 0.0
H3145 H 0.31213 0.49794 0.9788 0.0
H3146 H 0.34126 0.59657 0.01966 0.0
H3147 H 0.34329 0.56714 0.99348 0.0
C3148 C 0.32014 0.51709 0.77177 0.0
C3149 C 0.31496 0.50426 0.75372 0.0
C3150 C 0.30477 0.53028 0.78105 0.0
C3151 C 0.25221 0.55558 0.77211 0.0
H3152 H 0.24767 0.55113 0.83421 0.0
C3153 C 0.17613 0.57721 0.81921 0.0
C3154 C 0.1783 0.58612 0.83998 0.0
C3155 C 0.1942 0.57106 0.80763 0.0
C3156 C 0.24897 0.55294 0.81693 0.0
H3157 H 0.28973 0.49576 0.73086 0.0
H3158 H 0.26268 0.51866 0.74738 0.0
H3159 H 0.27653 0.53286 0.81565 0.0
H3160 H 0.20132 0.59659 0.86437 0.0
H3161 H 0.23292 0.58592 0.84401 0.0
H3162 H 0.22426 0.57533 0.77345 0.0
C3163 C 0.27877 0.51861 0.75414 0.0
C3164 C 0.26548 0.54242 0.80628 0.0
C3165 C 0.29421 0.5054 0.74478 0.0
C3166 C 0.19904 0.58957 0.84852 0.0
C3167 C 0.21715 0.58342 0.83689 0.0
C3168 C 0.23566 0.56618 0.7828 0.0
C3169 C 0.28385 0.53092 0.77257 0.0
C3170 C 0.2671 0.54337 0.78375 0.0
C3171 C 0.21487 0.5737 0.81652 0.0
C3172 C 0.23369 0.56467 0.80529 0.0
H3173 H 0.33605 0.51687 0.77893 0.0
H3174 H 0.30923 0.53985 0.79502 0.0
H3175 H 0.25327 0.55683 0.75476 0.0
H3176 H 0.16042 0.57443 0.81204 0.0
H3177 H 0.19188 0.5634 0.79209 0.0
C3178 C 0.15831 0.58438 0.55725 0.0
C3179 C 0.17761 0.57891 0.54701 0.0
C3180 C 0.14283 0.56859 0.56171 0.0
C3181 C 0.13019 0.50986 0.5549 0.0
H3182 H 0.11465 0.51439 0.61514 0.0
C3183 C 0.10668 0.43433 0.60085 0.0
C3184 C 0.11714 0.43227 0.62077 0.0
C3185 C 0.10537 0.45434 0.59094 0.0
C3186 C 0.11882 0.51285 0.59829 0.0
H3187 H 0.19506 0.55313 0.53167 0.0
H3188 H 0.1686 0.52543 0.54013 0.0
H3189 H 0.1286 0.54579 0.59653 0.0
H3190 H 0.13334 0.44925 0.6467 0.0
H3191 H 0.13228 0.48422 0.62894 0.0
H3192 H 0.12248 0.47648 0.5572 0.0
C3193 C 0.16504 0.54191 0.5444 0.0
C3194 C 0.1265 0.53099 0.58745 0.0
C3195 C 0.18036 0.55778 0.53965 0.0
C3196 C 0.12523 0.45061 0.6313 0.0
C3197 C 0.12441 0.47062 0.62114 0.0
C3198 C 0.12285 0.49165 0.56582 0.0
C3199 C 0.14653 0.54697 0.55634 0.0
C3200 C 0.13327 0.52944 0.56591 0.0
C3201 C 0.11507 0.47259 0.6005 0.0
C3202 C 0.11803 0.49272 0.58794 0.0
H3203 H 0.15558 0.60071 0.56269 0.0
H3204 H 0.12849 0.57314 0.57037 0.0
H3205 H 0.13472 0.50824 0.53816 0.0
H3206 H 0.09999 0.42031 0.59267 0.0
H3207 H 0.09752 0.45532 0.57539 0.0
C3208 C 0.13822 0.56287 0.15296 0.0
C3209 C 0.13651 0.55937 0.17518 0.0
C3210 C 0.14992 0.58048 0.14524 0.0
C3211 C 0.1781 0.61687 0.13051 0.0
H3212 H 0.23055 0.61675 0.16441 0.0
C3213 C 0.26566 0.63596 0.09913 0.0
C3214 C 0.27922 0.61862 0.10402 0.0
C3215 C 0.24497 0.63689 0.10793 0.0
C3216 C 0.21592 0.61732 0.15488 0.0
H3217 H 0.1429 0.57299 0.20676 0.0
H3218 H 0.16254 0.60435 0.19332 0.0
H3219 H 0.19719 0.60561 0.18084 0.0
H3220 H 0.28113 0.58801 0.12063 0.0
H3221 H 0.24529 0.58964 0.1357 0.0
H3222 H 0.19792 0.62649 0.1039 0.0
C3223 C 0.15581 0.59297 0.1818 0.0
C3224 C 0.19661 0.61114 0.16435 0.0
C3225 C 0.14459 0.57502 0.18953 0.0
C3226 C 0.27126 0.60173 0.11677 0.0
C3227 C 0.2508 0.60273 0.12555 0.0
C3228 C 0.19761 0.62286 0.12094 0.0
C3229 C 0.15984 0.59518 0.15961 0.0
C3230 C 0.17771 0.60928 0.15188 0.0
C3231 C 0.23775 0.62059 0.12179 0.0
C3232 C 0.21681 0.62162 0.13276 0.0
H3233 H 0.1319 0.55115 0.14153 0.0
H3234 H 0.15265 0.58139 0.12807 0.0
H3235 H 0.1637 0.61642 0.12064 0.0
H3236 H 0.27138 0.64926 0.0894 0.0
H3237 H 0.235 0.65067 0.10463 0.0
C3238 C 0.20907 0.41751 0.98352 0.0
C3239 C 0.22555 0.42947 0.99376 0.0
C3240 C 0.19153 0.42788 0.9742 0.0
C3241 C 0.1642 0.48089 0.97292 0.0
H3242 H 0.14359 0.46124 0.91714 0.0
C3243 C 0.11213 0.53663 0.92443 0.0
C3244 C 0.11882 0.53895 0.90305 0.0
C3245 C 0.11775 0.5184 0.93613 0.0
C3246 C 0.14913 0.46697 0.93271 0.0
H3247 H 0.23669 0.46168 0.00206 0.0
H3248 H 0.20667 0.47977 0.9852 0.0
H3249 H 0.1696 0.43988 0.93679 0.0
H3250 H 0.13516 0.52377 0.87649 0.0
H3251 H 0.14605 0.49249 0.89702 0.0
H3252 H 0.1454 0.50881 0.96824 0.0
C3253 C 0.2068 0.46235 0.98494 0.0
C3254 C 0.16389 0.45456 0.94413 0.0
C3255 C 0.22416 0.45199 0.99446 0.0
C3256 C 0.12965 0.5221 0.89294 0.0
C3257 C 0.13583 0.50413 0.90479 0.0
C3258 C 0.14978 0.49344 0.96139 0.0
C3259 C 0.19021 0.45045 0.97474 0.0
C3260 C 0.17218 0.46178 0.96404 0.0
C3261 C 0.13095 0.50262 0.92689 0.0
C3262 C 0.14257 0.48704 0.94079 0.0
H3263 H 0.20959 0.4001 0.98287 0.0
H3264 H 0.17895 0.41819 0.96671 0.0
H3265 H 0.16974 0.48665 0.98849 0.0
H3266 H 0.10372 0.54953 0.93247 0.0
H3267 H 0.11301 0.51746 0.95286 0.0
C3268 C 0.32261 0.4187 0.76239 0.0
C3269 C 0.33719 0.42434 0.74607 0.0
C3270 C 0.304 0.40678 0.75747 0.0
C3271 C 0.27716 0.3738 0.71505 0.0
H3272 H 0.22563 0.40309 0.7334 0.0
C3273 C 0.19872 0.37092 0.66658 0.0
C3274 C 0.17887 0.37171 0.67729 0.0
C3275 C 0.21799 0.37236 0.6781 0.0
C3276 C 0.23976 0.39434 0.7285 0.0
H3277 H 0.34456 0.42074 0.71217 0.0
H3278 H 0.31217 0.39996 0.70359 0.0
H3279 H 0.26029 0.41369 0.74862 0.0
H3280 H 0.16379 0.37374 0.7087 0.0
H3281 H 0.19752 0.37613 0.72881 0.0
H3282 H 0.25668 0.35494 0.69436 0.0
C3283 C 0.31506 0.40467 0.72017 0.0
C3284 C 0.25965 0.40043 0.73725 0.0
C3285 C 0.33354 0.41673 0.72505 0.0
C3286 C 0.17878 0.37331 0.6999 0.0
C3287 C 0.1981 0.3747 0.71144 0.0
C3288 C 0.25725 0.36763 0.70637 0.0
C3289 C 0.2998 0.40012 0.7362 0.0
C3290 C 0.27862 0.39072 0.73006 0.0
C3291 C 0.21792 0.37454 0.70063 0.0
C3292 C 0.23843 0.37837 0.71244 0.0
H3293 H 0.32508 0.42429 0.77877 0.0
H3294 H 0.29258 0.40333 0.77015 0.0
H3295 H 0.29152 0.36584 0.70946 0.0
H3296 H 0.19944 0.36966 0.6492 0.0
H3297 H 0.23295 0.37255 0.66923 0.0
C3298 C 0.26399 0.56151 0.47556 0.0
C3299 C 0.26452 0.56175 0.49819 0.0
C3300 C 0.27698 0.54749 0.46396 0.0
C3301 C 0.30759 0.49743 0.46838 0.0
H3302 H 0.33736 0.51926 0.41803 0.0
C3303 C 0.36399 0.443 0.42161 0.0
C3304 C 0.36064 0.44239 0.39924 0.0
C3305 C 0.3557 0.45969 0.434 0.0
C3306 C 0.32909 0.51291 0.43199 0.0
H3307 H 0.27865 0.54705 0.52641 0.0
H3308 H 0.30132 0.52243 0.50612 0.0
H3309 H 0.31484 0.54329 0.43919 0.0
H3310 H 0.34739 0.45956 0.37206 0.0
H3311 H 0.33257 0.48867 0.39375 0.0
H3312 H 0.32139 0.467 0.46105 0.0
C3313 C 0.2908 0.53309 0.49737 0.0
C3314 C 0.31615 0.52664 0.44408 0.0
C3315 C 0.27782 0.54718 0.50899 0.0
C3316 C 0.35032 0.45969 0.38926 0.0
C3317 C 0.3418 0.47635 0.40172 0.0
C3318 C 0.32046 0.48372 0.4563 0.0
C3319 C 0.29077 0.53334 0.47472 0.0
C3320 C 0.30511 0.51899 0.4623 0.0
C3321 C 0.34364 0.47602 0.42433 0.0
C3322 C 0.33126 0.49123 0.43787 0.0
H3323 H 0.25388 0.57251 0.46674 0.0
H3324 H 0.27628 0.54777 0.44654 0.0
H3325 H 0.29908 0.49097 0.48215 0.0
H3326 H 0.37214 0.42999 0.4297 0.0
H3327 H 0.35793 0.45929 0.4513 0.0
C3328 C 0.25243 0.20109 0.48221 0.0
C3329 C 0.26384 0.18372 0.49085 0.0
C3330 C 0.26196 0.21452 0.46685 0.0
C3331 C 0.31461 0.23209 0.44603 0.0
H3332 H 0.28158 0.25021 0.39633 0.0
C3333 C 0.35328 0.28696 0.38337 0.0
C3334 C 0.34129 0.30545 0.37888 0.0
C3335 C 0.34352 0.26914 0.39312 0.0
C3336 C 0.29099 0.24529 0.41013 0.0
H3337 H 0.29442 0.16719 0.49044 0.0
H3338 H 0.31092 0.19056 0.46376 0.0
H3339 H 0.26516 0.22597 0.42264 0.0
H3340 H 0.30914 0.31875 0.37898 0.0
H3341 H 0.29229 0.28789 0.39615 0.0
H3342 H 0.34023 0.25174 0.43395 0.0
C3343 C 0.29465 0.19384 0.46889 0.0
C3344 C 0.28157 0.23151 0.42523 0.0
C3345 C 0.28514 0.18041 0.48416 0.0
C3346 C 0.31895 0.3049 0.38244 0.0
C3347 C 0.30922 0.28711 0.39221 0.0
C3348 C 0.324 0.24587 0.43098 0.0
C3349 C 0.28311 0.21091 0.45991 0.0
C3350 C 0.29322 0.22497 0.44346 0.0
C3351 C 0.32159 0.26945 0.39855 0.0
C3352 C 0.31224 0.25283 0.41298 0.0
H3353 H 0.23601 0.20412 0.48698 0.0
H3354 H 0.25279 0.22777 0.46046 0.0
H3355 H 0.32391 0.22756 0.46004 0.0
H3356 H 0.37047 0.2867 0.38062 0.0
H3357 H 0.35337 0.25552 0.39735 0.0
C3358 C 0.73568 0.32358 0.57636 0.0
C3359 C 0.74641 0.3408 0.56634 0.0
C3360 C 0.74718 0.30886 0.58872 0.0
C3361 C 0.77766 0.27227 0.59658 0.0
H3362 H 0.82881 0.28687 0.62988 0.0
C3363 C 0.86202 0.22957 0.61595 0.0
C3364 C 0.85392 0.20876 0.61954 0.0
C3365 C 0.84799 0.24705 0.61583 0.0
C3366 C 0.81455 0.28258 0.62065 0.0
H3367 H 0.7774 0.35676 0.56221 0.0
H3368 H 0.79742 0.33094 0.58321 0.0
H3369 H 0.80469 0.3154 0.61813 0.0
H3370 H 0.82574 0.18982 0.62801 0.0
H3371 H 0.80147 0.22024 0.62856 0.0
H3372 H 0.78773 0.2397 0.59827 0.0
C3373 C 0.78013 0.32888 0.5819 0.0
C3374 C 0.80074 0.29887 0.61395 0.0
C3375 C 0.76866 0.34357 0.56963 0.0
C3376 C 0.83218 0.20579 0.62481 0.0
C3377 C 0.81832 0.22316 0.62506 0.0
C3378 C 0.79137 0.25607 0.60328 0.0
C3379 C 0.76962 0.31111 0.59122 0.0
C3380 C 0.78243 0.29391 0.60138 0.0
C3381 C 0.82583 0.24382 0.61957 0.0
C3382 C 0.8102 0.26105 0.615 0.0
H3383 H 0.7185 0.32118 0.57427 0.0
H3384 H 0.73859 0.29546 0.59593 0.0
H3385 H 0.76395 0.26789 0.58659 0.0
H3386 H 0.87879 0.23211 0.6119 0.0
H3387 H 0.85425 0.26277 0.61147 0.0
C3388 C 0.40798 0.06705 0.30607 0.0
C3389 C 0.40393 0.05198 0.28956 0.0
C3390 C 0.42526 0.06447 0.32012 0.0
C3391 C 0.47845 0.0409 0.32071 0.0
H3392 H 0.47914 0.06339 0.37907 0.0
C3393 C 0.55803 0.05826 0.36389 0.0
C3394 C 0.55971 0.07959 0.3715 0.0
C3395 C 0.53801 0.04923 0.35874 0.0
C3396 C 0.47914 0.05691 0.36285 0.0
H3397 H 0.41417 0.02167 0.27569 0.0
H3398 H 0.44439 0.01716 0.30038 0.0
H3399 H 0.44476 0.05685 0.36078 0.0
H3400 H 0.54149 0.10762 0.38102 0.0
H3401 H 0.50658 0.09195 0.37167 0.0
H3402 H 0.51274 0.04179 0.32237 0.0
C3403 C 0.43431 0.03114 0.30218 0.0
C3404 C 0.45952 0.05319 0.35238 0.0
C3405 C 0.41702 0.03375 0.28803 0.0
C3406 C 0.5408 0.09123 0.37502 0.0
C3407 C 0.52077 0.08217 0.36987 0.0
C3408 C 0.49802 0.0445 0.3312 0.0
C3409 C 0.43887 0.04672 0.31809 0.0
C3410 C 0.45902 0.04602 0.33087 0.0
C3411 C 0.51924 0.0613 0.36112 0.0
C3412 C 0.49857 0.05336 0.35204 0.0
H3413 H 0.39817 0.08123 0.30784 0.0
H3414 H 0.4285 0.07697 0.33195 0.0
H3415 H 0.47867 0.03557 0.30409 0.0
H3416 H 0.57222 0.04868 0.3613 0.0
H3417 H 0.53725 0.03302 0.35227 0.0
C3418 C 0.71913 0.66181 0.0956 0.0
C3419 C 0.73983 0.66417 0.08696 0.0
C3420 C 0.70765 0.67979 0.1021 0.0
C3421 C 0.71099 0.73876 0.11178 0.0
H3422 H 0.65287 0.73708 0.08867 0.0
C3423 C 0.66214 0.81522 0.09775 0.0
C3424 C 0.64037 0.815 0.10392 0.0
C3425 C 0.674 0.79636 0.0978 0.0
C3426 C 0.66893 0.73771 0.0955 0.0
H3427 H 0.76546 0.68686 0.07962 0.0
H3428 H 0.74521 0.71854 0.09055 0.0
H3429 H 0.67485 0.70505 0.0869 0.0
H3430 H 0.61391 0.79454 0.11444 0.0
H3431 H 0.63472 0.76145 0.11434 0.0
H3432 H 0.70513 0.77171 0.11982 0.0
C3433 C 0.73793 0.70276 0.09262 0.0
C3434 C 0.68154 0.71933 0.09457 0.0
C3435 C 0.74954 0.68465 0.08636 0.0
C3436 C 0.6306 0.79529 0.10953 0.0
C3437 C 0.64251 0.77634 0.1095 0.0
C3438 C 0.69837 0.75719 0.11265 0.0
C3439 C 0.71653 0.70054 0.09975 0.0
C3440 C 0.70278 0.71969 0.1025 0.0
C3441 C 0.66442 0.77678 0.10393 0.0
C3442 C 0.67731 0.7569 0.10427 0.0
H3443 H 0.7114 0.6461 0.09643 0.0
H3444 H 0.69144 0.6775 0.10807 0.0
H3445 H 0.72719 0.73948 0.11824 0.0
H3446 H 0.67022 0.83006 0.09322 0.0
H3447 H 0.69072 0.79711 0.09298 0.0
C3448 C 0.55096 0.49564 0.25626 0.0
C3449 C 0.56662 0.48549 0.24365 0.0
C3450 C 0.53988 0.48417 0.27212 0.0
C3451 C 0.52336 0.42956 0.287 0.0
H3452 H 0.51057 0.45606 0.34206 0.0
C3453 C 0.46551 0.38771 0.34466 0.0
C3454 C 0.44859 0.40114 0.35092 0.0
C3455 C 0.48456 0.3966 0.33649 0.0
C3456 C 0.51407 0.44841 0.32679 0.0
H3457 H 0.58275 0.45522 0.23777 0.0
H3458 H 0.56329 0.43528 0.26533 0.0
H3459 H 0.53424 0.47469 0.31673 0.0
H3460 H 0.43936 0.43437 0.35586 0.0
H3461 H 0.47225 0.44975 0.34142 0.0
H3462 H 0.50253 0.40376 0.2965 0.0
C3463 C 0.55961 0.4521 0.26292 0.0
C3464 C 0.52754 0.45911 0.31227 0.0
C3465 C 0.57076 0.46356 0.24712 0.0
C3466 C 0.45194 0.42356 0.35086 0.0
C3467 C 0.47094 0.43241 0.34273 0.0
C3468 C 0.50984 0.41891 0.30145 0.0
C3469 C 0.54414 0.4623 0.27565 0.0
C3470 C 0.53185 0.45003 0.29201 0.0
C3471 C 0.48704 0.41904 0.33452 0.0
C3472 C 0.50456 0.42848 0.32126 0.0
H3473 H 0.54739 0.5125 0.25407 0.0
H3474 H 0.52777 0.49237 0.28145 0.0
H3475 H 0.52625 0.42223 0.27145 0.0
H3476 H 0.46354 0.37037 0.34471 0.0
H3477 H 0.49688 0.38589 0.33069 0.0
C3478 C 0.20905 0.81833 0.96387 0.0
C3479 C 0.19908 0.83715 0.95665 0.0
C3480 C 0.20952 0.80003 0.95074 0.0
C3481 C 0.17735 0.77577 0.90747 0.0
H3482 H 0.22019 0.73103 0.91009 0.0
C3483 C 0.15652 0.69348 0.87384 0.0
C3484 C 0.15992 0.67676 0.88856 0.0
C3485 C 0.16718 0.7132 0.87638 0.0
C3486 C 0.20814 0.74343 0.90913 0.0
H3487 H 0.18353 0.85221 0.92934 0.0
H3488 H 0.18477 0.82048 0.90631 0.0
H3489 H 0.22829 0.76658 0.92546 0.0
H3490 H 0.17844 0.66682 0.91633 0.0
H3491 H 0.19649 0.7016 0.92134 0.0
H3492 H 0.15682 0.75268 0.89212 0.0
C3493 C 0.19161 0.8196 0.92234 0.0
C3494 C 0.21276 0.76375 0.91794 0.0
C3495 C 0.19088 0.83777 0.93555 0.0
C3496 C 0.17546 0.67951 0.90484 0.0
C3497 C 0.1859 0.69941 0.9076 0.0
C3498 C 0.17277 0.75559 0.89868 0.0
C3499 C 0.20025 0.80028 0.93005 0.0
C3500 C 0.19715 0.77994 0.91774 0.0
C3501 C 0.18113 0.71674 0.89394 0.0
C3502 C 0.18785 0.73899 0.89992 0.0
H3503 H 0.21562 0.81741 0.98002 0.0
H3504 H 0.21612 0.78538 0.95728 0.0
H3505 H 0.16477 0.78767 0.90734 0.0
H3506 H 0.14497 0.6916 0.86083 0.0
H3507 H 0.16361 0.72605 0.86524 0.0
C3508 C 0.4214 0.01884 0.19171 0.0
C3509 C 0.40208 0.01007 0.19955 0.0
C3510 C 0.4355 0.00603 0.17993 0.0
C3511 C 0.44873 0.94875 0.17172 0.0
H3512 H 0.48712 0.97229 0.12852 0.0
C3513 C 0.5175 0.89917 0.13504 0.0
C3514 C 0.53748 0.90937 0.13868 0.0
C3515 C 0.49845 0.91073 0.13738 0.0
C3516 C 0.47633 0.96547 0.1404 0.0
H3517 H 0.38172 0.98147 0.20026 0.0
H3518 H 0.40586 0.95939 0.17918 0.0
H3519 H 0.45792 0.99426 0.1424 0.0
H3520 H 0.5534 0.93982 0.14608 0.0
H3521 H 0.52031 0.95993 0.14982 0.0
H3522 H 0.46741 0.92011 0.16993 0.0
C3523 C 0.41058 0.97588 0.18267 0.0
C3524 C 0.45975 0.97808 0.1485 0.0
C3525 C 0.3967 0.98857 0.19471 0.0
C3526 C 0.53818 0.93149 0.14348 0.0
C3527 C 0.51926 0.94306 0.14538 0.0
C3528 C 0.46513 0.93608 0.16343 0.0
C3529 C 0.43036 0.9843 0.1755 0.0
C3530 C 0.44616 0.9701 0.16475 0.0
C3531 C 0.49922 0.93272 0.14283 0.0
C3532 C 0.47947 0.94456 0.1482 0.0
H3533 H 0.42592 0.03539 0.19524 0.0
H3534 H 0.45073 0.01299 0.17495 0.0
H3535 H 0.43881 0.94211 0.18441 0.0
H3536 H 0.51658 0.88215 0.13126 0.0
H3537 H 0.48313 0.90244 0.13534 0.0
C3538 C 0.09693 0.03844 0.67788 0.0
C3539 C 0.09797 0.01632 0.6821 0.0
C3540 C 0.08039 0.04657 0.66525 0.0
C3541 C 0.02444 0.03432 0.65696 0.0
H3542 H 0.02597 0.08648 0.62287 0.0
C3543 C 0.94732 0.08049 0.63884 0.0
C3544 C 0.94845 0.10301 0.64126 0.0
C3545 C 0.96595 0.06832 0.63834 0.0
C3546 C 0.0253 0.07195 0.63243 0.0
H3547 H 0.08385 0.98503 0.67495 0.0
H3548 H 0.05452 -0.00067 0.65294 0.0
H3549 H 0.05916 0.06673 0.62926 0.0
H3550 H 0.97016 0.13041 0.64468 0.0
H3551 H 0.00286 0.10897 0.64462 0.0
H3552 H 0.99098 0.04 0.66124 0.0
C3553 C 0.06653 0.01036 0.65947 0.0
C3554 C 0.04424 0.06056 0.63591 0.0
C3555 C 0.08331 0.00218 0.67197 0.0
C3556 C 0.96875 0.1131 0.64291 0.0
C3557 C 0.98747 0.10082 0.64263 0.0
C3558 C 0.00558 0.04571 0.65357 0.0
C3559 C 0.06442 0.03273 0.65679 0.0
C3560 C 0.04409 0.04199 0.64877 0.0
C3561 C 0.98624 0.07827 0.64048 0.0
C3562 C 0.00588 0.06499 0.64179 0.0
H3563 H 0.10821 0.04964 0.68536 0.0
H3564 H 0.07917 0.06387 0.66362 0.0
H3565 H 0.02383 0.0203 0.66726 0.0
H3566 H 0.93198 0.07217 0.63708 0.0
H3567 H 0.96442 0.05105 0.63625 0.0
loop_
_geom_bond_atom_site_label_1
_geom_bond_atom_site_label_2
_geom_bond_distance
_geom_bond_site_symmetry_2
_ccdc_geom_bond_type
Co0 O1 2.216 1_655 S
Co0 O2 2.091 . S
Co0 O4 2.004 . S
Co0 O10 2.021 1_655 S
Co0 O12 2.141 . S
Co0 O13 2.244 1_655 S
O1 Co0 2.216 1_455 S
O1 C8 1.247 1_455 S
O2 Co0 2.091 . S
O2 C8 1.261 . S
C3 O12 1.213 1_455 S
C3 O13 1.272 . S
O4 Co0 2.004 . S
O4 C9 1.259 . S
Co5 O6 2.061 . S
Co5 O11 2.052 . S
Co5 O13 2.135 . S
O6 Co5 2.061 . S
O6 C9 1.235 1_455 S
C7 O10 1.238 . S
C7 O11 1.241 . S
C8 O1 1.247 1_655 S
C8 O2 1.261 . S
C9 O4 1.259 . S
C9 O6 1.235 1_655 S
O10 Co0 2.021 1_455 S
O10 C7 1.238 . S
O11 Co5 2.052 . S
O11 C7 1.241 . S
O12 Co0 2.141 . S
O12 C3 1.213 1_655 S
O13 Co0 2.244 1_455 S
O13 C3 1.272 . S
O13 Co5 2.135 . S
Co14 O15 2.216 . S
Co14 O16 2.091 . S
Co14 O18 2.004 1_655 S
Co14 O24 2.021 1_655 S
Co14 O26 2.137 . S
Co14 O27 2.244 . S
O15 Co14 2.216 . S
O15 C22 1.247 . S
O16 Co14 2.091 . S
O16 C22 1.261 . S
C17 O26 1.247 . S
C17 O27 1.272 . S
O18 Co14 2.004 1_455 S
O18 C23 1.259 . S
Co19 O20 2.061 . S
Co19 O25 2.052 . S
Co19 O27 2.135 1_455 S
O20 Co19 2.061 . S
O20 C23 1.235 . S
C21 O24 1.238 . S
C21 O25 1.241 . S
C22 O15 1.247 . S
C22 O16 1.261 . S
C23 O18 1.259 . S
C23 O20 1.235 . S
O24 Co14 2.021 1_455 S
O24 C21 1.238 . S
O25 Co19 2.052 . S
O25 C21 1.241 . S
O26 Co14 2.137 . S
O26 C17 1.247 . S
O27 Co14 2.244 . S
O27 C17 1.272 . S
O27 Co19 2.135 1_655 S
Co28 O29 2.216 . S
Co28 O30 2.091 . S
Co28 O32 2.004 . S
Co28 O38 2.021 . S
Co28 O40 2.137 . S
Co28 O41 2.244 . S
O29 Co28 2.216 . S
O29 C36 1.247 . S
O30 Co28 2.091 . S
O30 C36 1.261 . S
C31 O40 1.247 . S
C31 O41 1.272 . S
O32 Co28 2.004 . S
O32 C37 1.259 . S
Co33 O34 2.061 . S
Co33 O39 2.052 . S
Co33 O41 2.135 . S
O34 Co33 2.061 . S
O34 C37 1.235 . S
C35 O38 1.238 . S
C35 O39 1.241 . S
C36 O29 1.247 . S
C36 O30 1.261 . S
C37 O32 1.259 . S
C37 O34 1.235 . S
O38 Co28 2.021 . S
O38 C35 1.238 . S
O39 Co33 2.052 . S
O39 C35 1.241 . S
O40 Co28 2.137 . S
O40 C31 1.247 . S
O41 Co28 2.244 . S
O41 C31 1.272 . S
O41 Co33 2.135 . S
Co42 O43 2.216 . S
Co42 O44 2.091 . S
Co42 O46 2.004 . S
Co42 O52 2.021 . S
Co42 O54 2.137 . S
Co42 O55 2.244 . S
O43 Co42 2.216 . S
O43 C50 1.247 . S
O44 Co42 2.091 . S
O44 C50 1.261 . S
C45 O54 1.247 . S
C45 O55 1.272 . S
O46 Co42 2.004 . S
O46 C51 1.259 . S
Co47 O48 2.061 . S
Co47 O53 2.052 . S
Co47 O55 2.135 . S
O48 Co47 2.061 . S
O48 C51 1.235 . S
C49 O52 1.238 . S
C49 O53 1.241 . S
C50 O43 1.247 . S
C50 O44 1.261 . S
C51 O46 1.259 . S
C51 O48 1.235 . S
O52 Co42 2.021 . S
O52 C49 1.238 . S
O53 Co47 2.052 . S
O53 C49 1.241 . S
O54 Co42 2.137 . S
O54 C45 1.247 . S
O55 Co42 2.244 . S
O55 C45 1.272 . S
O55 Co47 2.135 . S
Co56 O57 2.216 1_655 S
Co56 O58 2.091 . S
Co56 O60 2.004 . S
Co56 O66 2.021 1_655 S
Co56 O68 2.137 . S
Co56 O69 2.244 1_655 S
O57 Co56 2.216 1_455 S
O57 C64 1.247 1_455 S
O58 Co56 2.091 . S
O58 C64 1.261 . S
C59 O68 1.247 1_455 S
C59 O69 1.272 . S
O60 Co56 2.004 . S
O60 C65 1.259 . S
Co61 O62 2.061 . S
Co61 O67 2.052 . S
Co61 O69 2.135 . S
O62 Co61 2.061 . S
O62 C65 1.235 1_455 S
C63 O66 1.238 . S
C63 O67 1.241 . S
C64 O57 1.247 1_655 S
C64 O58 1.261 . S
C65 O60 1.259 . S
C65 O62 1.235 1_655 S
O66 Co56 2.021 1_455 S
O66 C63 1.238 . S
O67 Co61 2.052 . S
O67 C63 1.241 . S
O68 Co56 2.137 . S
O68 C59 1.247 1_655 S
O69 Co56 2.244 1_455 S
O69 C59 1.272 . S
O69 Co61 2.135 . S
Co70 O71 2.216 . S
Co70 O72 2.091 . S
Co70 O74 2.004 . S
Co70 O80 2.021 . S
Co70 O82 2.137 . S
Co70 O83 2.244 . S
O71 Co70 2.216 . S
O71 C78 1.247 . S
O72 Co70 2.091 . S
O72 C78 1.261 . S
C73 O82 1.247 . S
C73 O83 1.272 . S
O74 Co70 2.004 . S
O74 C79 1.259 . S
Co75 O76 2.061 . S
Co75 O81 2.052 . S
Co75 O83 2.135 . S
O76 Co75 2.061 . S
O76 C79 1.235 . S
C77 O80 1.238 . S
C77 O81 1.241 . S
C78 O71 1.247 . S
C78 O72 1.261 . S
C79 O74 1.259 . S
C79 O76 1.235 . S
O80 Co70 2.021 . S
O80 C77 1.238 . S
O81 Co75 2.052 . S
O81 C77 1.241 . S
O82 Co70 2.137 . S
O82 C73 1.247 . S
O83 Co70 2.244 . S
O83 C73 1.272 . S
O83 Co75 2.135 . S
Co84 O85 2.216 . S
Co84 O86 2.091 . S
Co84 O88 2.004 . S
Co84 O94 2.021 . S
Co84 O96 2.137 . S
Co84 O97 2.244 . S
O85 Co84 2.216 . S
O85 C92 1.247 . S
O86 Co84 2.091 . S
O86 C92 1.261 . S
C87 O96 1.247 . S
C87 O97 1.272 . S
O88 Co84 2.004 . S
O88 C93 1.259 . S
Co89 O90 2.061 . S
Co89 O95 2.052 . S
Co89 O97 2.135 . S
O90 Co89 2.061 . S
O90 C93 1.235 . S
C91 O94 1.238 . S
C91 O95 1.241 . S
C92 O85 1.247 . S
C92 O86 1.261 . S
C93 O88 1.259 . S
C93 O90 1.235 . S
O94 Co84 2.021 . S
O94 C91 1.238 . S
O95 Co89 2.052 . S
O95 C91 1.241 . S
O96 Co84 2.137 . S
O96 C87 1.247 . S
O97 Co84 2.244 . S
O97 C87 1.272 . S
O97 Co89 2.135 . S
Co98 O99 2.216 . S
Co98 O100 2.091 . S
Co98 O102 2.004 1_655 S
Co98 O108 2.021 1_655 S
Co98 O110 2.137 . S
Co98 O111 2.244 . S
O99 Co98 2.216 . S
O99 C106 1.247 . S
O100 Co98 2.091 . S
O100 C106 1.261 . S
C101 O110 1.247 . S
C101 O111 1.272 . S
O102 Co98 2.004 1_455 S
O102 C107 1.259 . S
Co103 O104 2.061 . S
Co103 O109 2.052 . S
Co103 O111 2.135 1_455 S
O104 Co103 2.061 . S
O104 C107 1.235 . S
C105 O108 1.238 . S
C105 O109 1.241 . S
C106 O99 1.247 . S
C106 O100 1.261 . S
C107 O102 1.259 . S
C107 O104 1.235 . S
O108 Co98 2.021 1_455 S
O108 C105 1.238 . S
O109 Co103 2.052 . S
O109 C105 1.241 . S
O110 Co98 2.137 . S
O110 C101 1.247 . S
O111 Co98 2.244 . S
O111 C101 1.272 . S
O111 Co103 2.135 1_655 S
Co112 O113 2.216 1_565 S
Co112 O114 2.091 . S
Co112 O116 2.004 . S
Co112 O122 2.021 1_565 S
Co112 O124 2.138 1_565 S
Co112 O125 2.244 1_565 S
O113 Co112 2.216 1_545 S
O113 C120 1.247 1_545 S
O114 Co112 2.091 . S
O114 C120 1.261 . S
C115 O124 1.247 . S
C115 O125 1.272 . S
O116 Co112 2.004 . S
O116 C121 1.259 . S
Co117 O118 2.061 . S
Co117 O123 2.052 . S
Co117 O125 2.135 . S
O118 Co117 2.061 . S
O118 C121 1.235 1_545 S
C119 O122 1.238 . S
C119 O123 1.241 . S
C120 O113 1.247 1_565 S
C120 O114 1.261 . S
C121 O116 1.259 . S
C121 O118 1.235 1_565 S
O122 Co112 2.021 1_545 S
O122 C119 1.238 . S
O123 Co117 2.052 . S
O123 C119 1.241 . S
O124 Co112 2.138 1_545 S
O124 C115 1.247 . S
O125 Co112 2.244 1_545 S
O125 C115 1.272 . S
O125 Co117 2.135 . S
Co126 O127 2.216 . S
Co126 O128 2.091 . S
Co126 O130 2.004 . S
Co126 O136 2.021 . S
Co126 O138 2.137 . S
Co126 O139 2.244 . S
O127 Co126 2.216 . S
O127 C134 1.247 . S
O128 Co126 2.091 . S
O128 C134 1.261 . S
C129 O138 1.247 . S
C129 O139 1.272 . S
O130 Co126 2.004 . S
O130 C135 1.259 . S
Co131 O132 2.061 . S
Co131 O137 2.052 . S
Co131 O139 2.135 . S
O132 Co131 2.061 . S
O132 C135 1.235 . S
C133 O136 1.238 . S
C133 O137 1.241 . S
C134 O127 1.247 . S
C134 O128 1.261 . S
C135 O130 1.259 . S
C135 O132 1.235 . S
O136 Co126 2.021 . S
O136 C133 1.238 . S
O137 Co131 2.052 . S
O137 C133 1.241 . S
O138 Co126 2.137 . S
O138 C129 1.247 . S
O139 Co126 2.244 . S
O139 C129 1.272 . S
O139 Co131 2.135 . S
Co140 O141 2.216 1_565 S
Co140 O142 2.091 . S
Co140 O144 2.004 . S
Co140 O150 2.021 1_565 S
Co140 O152 2.137 . S
Co140 O153 2.244 1_565 S
O141 Co140 2.216 1_545 S
O141 C148 1.247 1_545 S
O142 Co140 2.091 . S
O142 C148 1.261 . S
C143 O152 1.247 1_545 S
C143 O153 1.272 . S
O144 Co140 2.004 . S
O144 C149 1.259 . S
Co145 O146 2.061 . S
Co145 O151 2.052 . S
Co145 O153 2.135 . S
O146 Co145 2.061 . S
O146 C149 1.235 1_545 S
C147 O150 1.238 . S
C147 O151 1.241 . S
C148 O141 1.247 1_565 S
C148 O142 1.261 . S
C149 O144 1.259 . S
C149 O146 1.235 1_565 S
O150 Co140 2.021 1_545 S
O150 C147 1.238 . S
O151 Co145 2.052 . S
O151 C147 1.241 . S
O152 Co140 2.137 . S
O152 C143 1.247 1_565 S
O153 Co140 2.244 1_545 S
O153 C143 1.272 . S
O153 Co145 2.135 . S
Co154 O155 2.216 . S
Co154 O156 2.091 . S
Co154 O158 2.004 1_554 S
Co154 O164 2.021 1_554 S
Co154 O166 2.137 . S
Co154 O167 2.244 . S
O155 Co154 2.216 . S
O155 C162 1.247 . S
O156 Co154 2.091 . S
O156 C162 1.261 . S
C157 O166 1.247 . S
C157 O167 1.272 . S
O158 Co154 2.004 1_556 S
O158 C163 1.259 . S
Co159 O160 2.061 . S
Co159 O165 2.052 . S
Co159 O167 2.135 1_556 S
O160 Co159 2.061 . S
O160 C163 1.235 . S
C161 O164 1.238 . S
C161 O165 1.241 . S
C162 O155 1.247 . S
C162 O156 1.261 . S
C163 O158 1.259 . S
C163 O160 1.235 . S
O164 Co154 2.021 1_556 S
O164 C161 1.238 . S
O165 Co159 2.052 . S
O165 C161 1.241 . S
O166 Co154 2.137 . S
O166 C157 1.247 . S
O167 Co154 2.244 . S
O167 C157 1.272 . S
O167 Co159 2.135 1_554 S
Co168 O169 2.216 1_556 S
Co168 O170 2.091 . S
Co168 O172 2.004 . S
Co168 O178 2.021 1_556 S
Co168 O180 2.137 . S
Co168 O181 2.244 1_556 S
O169 Co168 2.216 1_554 S
O169 C176 1.247 1_554 S
O170 Co168 2.091 . S
O170 C176 1.261 . S
C171 O180 1.247 1_554 S
C171 O181 1.272 . S
O172 Co168 2.004 . S
O172 C177 1.259 . S
Co173 O174 2.061 . S
Co173 O179 2.052 . S
Co173 O181 2.135 . S
O174 Co173 2.061 . S
O174 C177 1.235 1_554 S
C175 O178 1.238 . S
C175 O179 1.241 . S
C176 O169 1.247 1_556 S
C176 O170 1.261 . S
C177 O172 1.259 . S
C177 O174 1.235 1_556 S
O178 Co168 2.021 1_554 S
O178 C175 1.238 . S
O179 Co173 2.052 . S
O179 C175 1.241 . S
O180 Co168 2.137 . S
O180 C171 1.247 1_556 S
O181 Co168 2.244 1_554 S
O181 C171 1.272 . S
O181 Co173 2.135 . S
Co182 O183 2.216 1_556 S
Co182 O184 2.091 . S
Co182 O186 2.004 . S
Co182 O192 2.021 1_556 S
Co182 O194 2.137 . S
Co182 O195 2.244 1_556 S
O183 Co182 2.216 1_554 S
O183 C190 1.247 1_554 S
O184 Co182 2.091 . S
O184 C190 1.261 . S
C185 O194 1.247 1_554 S
C185 O195 1.272 . S
O186 Co182 2.004 . S
O186 C191 1.259 . S
Co187 O188 2.061 . S
Co187 O193 2.052 . S
Co187 O195 2.135 . S
O188 Co187 2.061 . S
O188 C191 1.235 1_554 S
C189 O192 1.238 . S
C189 O193 1.241 . S
C190 O183 1.247 1_556 S
C190 O184 1.261 . S
C191 O186 1.259 . S
C191 O188 1.235 1_556 S
O192 Co182 2.021 1_554 S
O192 C189 1.238 . S
O193 Co187 2.052 . S
O193 C189 1.241 . S
O194 Co182 2.137 . S
O194 C185 1.247 1_556 S
O195 Co182 2.244 1_554 S
O195 C185 1.272 . S
O195 Co187 2.135 . S
Co196 O197 2.216 . S
Co196 O198 2.091 . S
Co196 O200 2.004 . S
Co196 O206 2.021 . S
Co196 O208 2.137 . S
Co196 O209 2.244 . S
O197 Co196 2.216 . S
O197 C204 1.247 . S
O198 Co196 2.091 . S
O198 C204 1.261 . S
C199 O208 1.247 . S
C199 O209 1.272 . S
O200 Co196 2.004 . S
O200 C205 1.259 . S
Co201 O202 2.061 . S
Co201 O207 2.052 . S
Co201 O209 2.135 . S
O202 Co201 2.061 . S
O202 C205 1.235 . S
C203 O206 1.238 . S
C203 O207 1.241 . S
C204 O197 1.247 . S
C204 O198 1.261 . S
C205 O200 1.259 . S
C205 O202 1.235 . S
O206 Co196 2.021 . S
O206 C203 1.238 . S
O207 Co201 2.052 . S
O207 C203 1.241 . S
O208 Co196 2.137 . S
O208 C199 1.247 . S
O209 Co196 2.244 . S
O209 C199 1.272 . S
O209 Co201 2.135 . S
Co210 O211 2.216 . S
Co210 O212 2.091 . S
Co210 O214 2.004 . S
Co210 O220 2.021 . S
Co210 O222 2.137 . S
Co210 O223 2.244 . S
O211 Co210 2.216 . S
O211 C218 1.247 . S
O212 Co210 2.091 . S
O212 C218 1.261 . S
C213 O222 1.247 . S
C213 O223 1.272 . S
O214 Co210 2.004 . S
O214 C219 1.259 . S
Co215 O216 2.061 . S
Co215 O221 2.052 . S
Co215 O223 2.135 . S
O216 Co215 2.061 . S
O216 C219 1.235 . S
C217 O220 1.238 . S
C217 O221 1.241 . S
C218 O211 1.247 . S
C218 O212 1.261 . S
C219 O214 1.259 . S
C219 O216 1.235 . S
O220 Co210 2.021 . S
O220 C217 1.238 . S
O221 Co215 2.052 . S
O221 C217 1.241 . S
O222 Co210 2.137 . S
O222 C213 1.247 . S
O223 Co210 2.244 . S
O223 C213 1.272 . S
O223 Co215 2.135 . S
Co224 O225 2.216 . S
Co224 O226 2.091 . S
Co224 O228 2.004 1_565 S
Co224 O234 2.021 1_565 S
Co224 O236 2.137 . S
Co224 O237 2.244 . S
O225 Co224 2.216 . S
O225 C232 1.247 . S
O226 Co224 2.091 . S
O226 C232 1.261 . S
C227 O236 1.247 . S
C227 O237 1.272 . S
O228 Co224 2.004 1_545 S
O228 C233 1.259 . S
Co229 O230 2.061 . S
Co229 O235 2.052 . S
Co229 O237 2.135 1_545 S
O230 Co229 2.061 . S
O230 C233 1.235 . S
C231 O234 1.238 . S
C231 O235 1.241 . S
C232 O225 1.247 . S
C232 O226 1.261 . S
C233 O228 1.259 . S
C233 O230 1.235 . S
O234 Co224 2.021 1_545 S
O234 C231 1.238 . S
O235 Co229 2.052 . S
O235 C231 1.241 . S
O236 Co224 2.137 . S
O236 C227 1.247 . S
O237 Co224 2.244 . S
O237 C227 1.272 . S
O237 Co229 2.135 1_565 S
Co238 O239 2.216 . S
Co238 O240 2.091 . S
Co238 O242 2.004 . S
Co238 O248 2.021 . S
Co238 O250 2.137 . S
Co238 O251 2.244 . S
O239 Co238 2.216 . S
O239 C246 1.247 . S
O240 Co238 2.091 . S
O240 C246 1.261 . S
C241 O250 1.247 . S
C241 O251 1.272 . S
O242 Co238 2.004 . S
O242 C247 1.259 . S
Co243 O244 2.061 . S
Co243 O249 2.052 . S
Co243 O251 2.135 . S
O244 Co243 2.061 . S
O244 C247 1.235 . S
C245 O248 1.238 . S
C245 O249 1.241 . S
C246 O239 1.247 . S
C246 O240 1.261 . S
C247 O242 1.259 . S
C247 O244 1.235 . S
O248 Co238 2.021 . S
O248 C245 1.238 . S
O249 Co243 2.052 . S
O249 C245 1.241 . S
O250 Co238 2.137 . S
O250 C241 1.247 . S
O251 Co238 2.244 . S
O251 C241 1.272 . S
O251 Co243 2.135 . S
Co252 O253 2.216 . S
Co252 O254 2.091 . S
Co252 O256 2.004 . S
Co252 O262 2.021 . S
Co252 O264 2.137 . S
Co252 O265 2.244 . S
O253 Co252 2.216 . S
O253 C260 1.247 . S
O254 Co252 2.091 . S
O254 C260 1.261 . S
C255 O264 1.247 . S
C255 O265 1.272 . S
O256 Co252 2.004 . S
O256 C261 1.259 . S
Co257 O258 2.061 . S
Co257 O263 2.052 . S
Co257 O265 2.135 . S
O258 Co257 2.061 . S
O258 C261 1.235 . S
C259 O262 1.238 . S
C259 O263 1.241 . S
C260 O253 1.247 . S
C260 O254 1.261 . S
C261 O256 1.259 . S
C261 O258 1.235 . S
O262 Co252 2.021 . S
O262 C259 1.238 . S
O263 Co257 2.052 . S
O263 C259 1.241 . S
O264 Co252 2.137 . S
O264 C255 1.247 . S
O265 Co252 2.244 . S
O265 C255 1.272 . S
O265 Co257 2.135 . S
Co266 O267 2.216 . S
Co266 O268 2.091 . S
Co266 O270 2.004 1_565 S
Co266 O276 2.021 1_565 S
Co266 O278 2.137 . S
Co266 O279 2.244 . S
O267 Co266 2.216 . S
O267 C274 1.247 . S
O268 Co266 2.091 . S
O268 C274 1.261 . S
C269 O278 1.247 . S
C269 O279 1.272 . S
O270 Co266 2.004 1_545 S
O270 C275 1.259 . S
Co271 O272 2.061 . S
Co271 O277 2.052 . S
Co271 O279 2.135 1_545 S
O272 Co271 2.061 . S
O272 C275 1.235 . S
C273 O276 1.238 . S
C273 O277 1.241 . S
C274 O267 1.247 . S
C274 O268 1.261 . S
C275 O270 1.259 . S
C275 O272 1.235 . S
O276 Co266 2.021 1_545 S
O276 C273 1.238 . S
O277 Co271 2.052 . S
O277 C273 1.241 . S
O278 Co266 2.137 . S
O278 C269 1.247 . S
O279 Co266 2.244 . S
O279 C269 1.272 . S
O279 Co271 2.135 1_565 S
Co280 O281 2.216 . S
Co280 O282 2.091 . S
Co280 O284 2.004 1_554 S
Co280 O290 2.021 1_554 S
Co280 O292 2.137 . S
Co280 O293 2.244 . S
O281 Co280 2.216 . S
O281 C288 1.247 . S
O282 Co280 2.091 . S
O282 C288 1.261 . S
C283 O292 1.247 . S
C283 O293 1.272 . S
O284 Co280 2.004 1_556 S
O284 C289 1.259 . S
Co285 O286 2.061 . S
Co285 O291 2.052 . S
Co285 O293 2.135 1_556 S
O286 Co285 2.061 . S
O286 C289 1.235 . S
C287 O290 1.238 . S
C287 O291 1.241 . S
C288 O281 1.247 . S
C288 O282 1.261 . S
C289 O284 1.259 . S
C289 O286 1.235 . S
O290 Co280 2.021 1_556 S
O290 C287 1.238 . S
O291 Co285 2.052 . S
O291 C287 1.241 . S
O292 Co280 2.137 . S
O292 C283 1.247 . S
O293 Co280 2.244 . S
O293 C283 1.272 . S
O293 Co285 2.135 1_554 S
Co294 O295 2.216 . S
Co294 O296 2.091 . S
Co294 O298 2.004 . S
Co294 O304 2.021 . S
Co294 O306 2.137 . S
Co294 O307 2.244 . S
O295 Co294 2.216 . S
O295 C302 1.247 . S
O296 Co294 2.091 . S
O296 C302 1.261 . S
C297 O306 1.247 . S
C297 O307 1.272 . S
O298 Co294 2.004 . S
O298 C303 1.259 . S
Co299 O300 2.061 . S
Co299 O305 2.052 . S
Co299 O307 2.135 . S
O300 Co299 2.061 . S
O300 C303 1.235 . S
C301 O304 1.238 . S
C301 O305 1.241 . S
C302 O295 1.247 . S
C302 O296 1.261 . S
C303 O298 1.259 . S
C303 O300 1.235 . S
O304 Co294 2.021 . S
O304 C301 1.238 . S
O305 Co299 2.052 . S
O305 C301 1.241 . S
O306 Co294 2.137 . S
O306 C297 1.247 . S
O307 Co294 2.244 . S
O307 C297 1.272 . S
O307 Co299 2.135 . S
Co308 O309 2.216 . S
Co308 O310 2.091 . S
Co308 O312 2.004 . S
Co308 O318 2.021 . S
Co308 O320 2.137 . S
Co308 O321 2.244 . S
O309 Co308 2.216 . S
O309 C316 1.247 . S
O310 Co308 2.091 . S
O310 C316 1.261 . S
C311 O320 1.247 . S
C311 O321 1.272 . S
O312 Co308 2.004 . S
O312 C317 1.259 . S
Co313 O314 2.061 . S
Co313 O319 2.052 . S
Co313 O321 2.135 . S
O314 Co313 2.061 . S
O314 C317 1.235 . S
C315 O318 1.238 . S
C315 O319 1.241 . S
C316 O309 1.247 . S
C316 O310 1.261 . S
C317 O312 1.259 . S
C317 O314 1.235 . S
O318 Co308 2.021 . S
O318 C315 1.238 . S
O319 Co313 2.052 . S
O319 C315 1.241 . S
O320 Co308 2.137 . S
O320 C311 1.247 . S
O321 Co308 2.244 . S
O321 C311 1.272 . S
O321 Co313 2.135 . S
Co322 O323 2.216 . S
Co322 O324 2.091 . S
Co322 O326 2.004 . S
Co322 O332 2.021 . S
Co322 O334 2.137 . S
Co322 O335 2.244 . S
O323 Co322 2.216 . S
O323 C330 1.247 . S
O324 Co322 2.091 . S
O324 C330 1.261 . S
C325 O334 1.247 . S
C325 O335 1.272 . S
O326 Co322 2.004 . S
O326 C331 1.259 . S
Co327 O328 2.061 . S
Co327 O333 2.052 . S
Co327 O335 2.135 . S
O328 Co327 2.061 . S
O328 C331 1.235 . S
C329 O332 1.238 . S
C329 O333 1.241 . S
C330 O323 1.247 . S
C330 O324 1.261 . S
C331 O326 1.259 . S
C331 O328 1.235 . S
O332 Co322 2.021 . S
O332 C329 1.238 . S
O333 Co327 2.052 . S
O333 C329 1.241 . S
O334 Co322 2.137 . S
O334 C325 1.247 . S
O335 Co322 2.244 . S
O335 C325 1.272 . S
O335 Co327 2.135 . S
Sc336 O339 2.025 . S
Sc336 O346 2.105 . S
Sc336 O349 2.105 . S
Sc336 O352 2.105 . S
Sc336 O355 2.105 . S
Sc337 O339 2.025 . S
Sc337 O347 2.105 . S
Sc337 O351 2.105 . S
Sc337 O353 2.105 . S
Sc337 O357 2.105 . S
Sc338 O339 2.025 . S
Sc338 O348 2.105 . S
Sc338 O350 2.105 . S
Sc338 O354 2.105 . S
Sc338 O356 2.105 . S
O339 Sc336 2.025 . S
O339 Sc337 2.025 . S
O339 Sc338 2.025 . S
C340 O346 1.268 . S
C340 O356 1.268 . S
C341 O347 1.268 . S
C341 O355 1.268 . S
C342 O348 1.268 . S
C342 O357 1.268 . S
C343 O349 1.268 . S
C343 O353 1.268 . S
C344 O350 1.268 . S
C344 O352 1.268 . S
C345 O351 1.268 . S
C345 O354 1.268 . S
O346 Sc336 2.105 . S
O346 C340 1.268 . S
O347 Sc337 2.105 . S
O347 C341 1.268 . S
O348 Sc338 2.105 . S
O348 C342 1.268 . S
O349 Sc336 2.105 . S
O349 C343 1.268 . S
O350 Sc338 2.105 . S
O350 C344 1.268 . S
O351 Sc337 2.105 . S
O351 C345 1.268 . S
O352 Sc336 2.105 . S
O352 C344 1.268 . S
O353 Sc337 2.105 . S
O353 C343 1.268 . S
O354 Sc338 2.105 . S
O354 C345 1.268 . S
O355 Sc336 2.105 . S
O355 C341 1.268 . S
O356 Sc338 2.105 . S
O356 C340 1.268 . S
O357 Sc337 2.105 . S
O357 C342 1.268 . S
Sc358 O361 2.025 . S
Sc358 O368 2.105 . S
Sc358 O371 2.105 . S
Sc358 O374 2.105 . S
Sc358 O377 2.105 . S
Sc359 O361 2.025 . S
Sc359 O369 2.105 . S
Sc359 O373 2.105 . S
Sc359 O375 2.105 . S
Sc359 O379 2.105 . S
Sc360 O361 2.025 . S
Sc360 O370 2.105 . S
Sc360 O372 2.105 . S
Sc360 O376 2.105 . S
Sc360 O378 2.105 . S
O361 Sc358 2.025 . S
O361 Sc359 2.025 . S
O361 Sc360 2.025 . S
C362 O368 1.268 . S
C362 O378 1.268 . S
C363 O369 1.268 . S
C363 O377 1.268 . S
C364 O370 1.268 . S
C364 O379 1.268 . S
C365 O371 1.268 . S
C365 O375 1.268 . S
C366 O372 1.268 . S
C366 O374 1.268 . S
C367 O373 1.268 . S
C367 O376 1.268 . S
O368 Sc358 2.105 . S
O368 C362 1.268 . S
O369 Sc359 2.105 . S
O369 C363 1.268 . S
O370 Sc360 2.105 . S
O370 C364 1.268 . S
O371 Sc358 2.105 . S
O371 C365 1.268 . S
O372 Sc360 2.105 . S
O372 C366 1.268 . S
O373 Sc359 2.105 . S
O373 C367 1.268 . S
O374 Sc358 2.105 . S
O374 C366 1.268 . S
O375 Sc359 2.105 . S
O375 C365 1.268 . S
O376 Sc360 2.105 . S
O376 C367 1.268 . S
O377 Sc358 2.105 . S
O377 C363 1.268 . S
O378 Sc360 2.105 . S
O378 C362 1.268 . S
O379 Sc359 2.105 . S
O379 C364 1.268 . S
Sc380 O383 2.025 . S
Sc380 O390 2.105 . S
Sc380 O393 2.105 . S
Sc380 O396 2.105 . S
Sc380 O399 2.105 . S
Sc381 O383 2.025 . S
Sc381 O391 2.105 . S
Sc381 O395 2.105 . S
Sc381 O397 2.105 . S
Sc381 O401 2.105 . S
Sc382 O383 2.025 . S
Sc382 O392 2.105 . S
Sc382 O394 2.105 . S
Sc382 O398 2.105 . S
Sc382 O400 2.105 . S
O383 Sc380 2.025 . S
O383 Sc381 2.025 . S
O383 Sc382 2.025 . S
C384 O390 1.268 . S
C384 O400 1.268 . S
C385 O391 1.268 . S
C385 O399 1.268 . S
C386 O392 1.268 . S
C386 O401 1.268 . S
C387 O393 1.268 . S
C387 O397 1.268 . S
C388 O394 1.268 . S
C388 O396 1.268 . S
C389 O395 1.268 . S
C389 O398 1.268 . S
O390 Sc380 2.105 . S
O390 C384 1.268 . S
O391 Sc381 2.105 . S
O391 C385 1.268 . S
O392 Sc382 2.105 . S
O392 C386 1.268 . S
O393 Sc380 2.105 . S
O393 C387 1.268 . S
O394 Sc382 2.105 . S
O394 C388 1.268 . S
O395 Sc381 2.105 . S
O395 C389 1.268 . S
O396 Sc380 2.105 . S
O396 C388 1.268 . S
O397 Sc381 2.105 . S
O397 C387 1.268 . S
O398 Sc382 2.105 . S
O398 C389 1.268 . S
O399 Sc380 2.105 . S
O399 C385 1.268 . S
O400 Sc382 2.105 . S
O400 C384 1.268 . S
O401 Sc381 2.105 . S
O401 C386 1.268 . S
Sc402 O405 2.025 . S
Sc402 O412 2.105 . S
Sc402 O415 2.105 . S
Sc402 O418 2.105 . S
Sc402 O421 2.105 . S
Sc403 O405 2.025 . S
Sc403 O413 2.105 . S
Sc403 O417 2.105 . S
Sc403 O419 2.105 . S
Sc403 O423 2.105 . S
Sc404 O405 2.025 . S
Sc404 O414 2.105 . S
Sc404 O416 2.105 . S
Sc404 O420 2.105 . S
Sc404 O422 2.105 . S
O405 Sc402 2.025 . S
O405 Sc403 2.025 . S
O405 Sc404 2.025 . S
C406 O412 1.268 . S
C406 O422 1.268 . S
C407 O413 1.268 . S
C407 O421 1.268 . S
C408 O414 1.268 . S
C408 O423 1.268 . S
C409 O415 1.268 . S
C409 O419 1.268 . S
C410 O416 1.268 . S
C410 O418 1.268 . S
C411 O417 1.268 . S
C411 O420 1.268 . S
O412 Sc402 2.105 . S
O412 C406 1.268 . S
O413 Sc403 2.105 . S
O413 C407 1.268 . S
O414 Sc404 2.105 . S
O414 C408 1.268 . S
O415 Sc402 2.105 . S
O415 C409 1.268 . S
O416 Sc404 2.105 . S
O416 C410 1.268 . S
O417 Sc403 2.105 . S
O417 C411 1.268 . S
O418 Sc402 2.105 . S
O418 C410 1.268 . S
O419 Sc403 2.105 . S
O419 C409 1.268 . S
O420 Sc404 2.105 . S
O420 C411 1.268 . S
O421 Sc402 2.105 . S
O421 C407 1.268 . S
O422 Sc404 2.105 . S
O422 C406 1.268 . S
O423 Sc403 2.105 . S
O423 C408 1.268 . S
Sc424 O427 2.025 . S
Sc424 O434 2.105 . S
Sc424 O437 2.105 . S
Sc424 O440 2.105 . S
Sc424 O443 2.105 . S
Sc425 O427 2.025 . S
Sc425 O435 2.105 . S
Sc425 O439 2.105 . S
Sc425 O441 2.105 . S
Sc425 O445 2.105 . S
Sc426 O427 2.025 . S
Sc426 O436 2.105 . S
Sc426 O438 2.105 . S
Sc426 O442 2.105 . S
Sc426 O444 2.105 . S
O427 Sc424 2.025 . S
O427 Sc425 2.025 . S
O427 Sc426 2.025 . S
C428 O434 1.268 . S
C428 O444 1.268 . S
C429 O435 1.268 . S
C429 O443 1.268 . S
C430 O436 1.268 . S
C430 O445 1.268 . S
C431 O437 1.268 . S
C431 O441 1.268 . S
C432 O438 1.268 . S
C432 O440 1.268 . S
C433 O439 1.268 . S
C433 O442 1.268 . S
O434 Sc424 2.105 . S
O434 C428 1.268 . S
O435 Sc425 2.105 . S
O435 C429 1.268 . S
O436 Sc426 2.105 . S
O436 C430 1.268 . S
O437 Sc424 2.105 . S
O437 C431 1.268 . S
O438 Sc426 2.105 . S
O438 C432 1.268 . S
O439 Sc425 2.105 . S
O439 C433 1.268 . S
O440 Sc424 2.105 . S
O440 C432 1.268 . S
O441 Sc425 2.105 . S
O441 C431 1.268 . S
O442 Sc426 2.105 . S
O442 C433 1.268 . S
O443 Sc424 2.105 . S
O443 C429 1.268 . S
O444 Sc426 2.105 . S
O444 C428 1.268 . S
O445 Sc425 2.105 . S
O445 C430 1.268 . S
Sc446 O449 2.025 . S
Sc446 O456 2.105 . S
Sc446 O459 2.105 . S
Sc446 O462 2.105 . S
Sc446 O465 2.105 . S
Sc447 O449 2.025 . S
Sc447 O457 2.105 . S
Sc447 O461 2.105 . S
Sc447 O463 2.105 . S
Sc447 O467 2.105 . S
Sc448 O449 2.025 . S
Sc448 O458 2.105 . S
Sc448 O460 2.105 . S
Sc448 O464 2.105 . S
Sc448 O466 2.105 . S
O449 Sc446 2.025 . S
O449 Sc447 2.025 . S
O449 Sc448 2.025 . S
C450 O456 1.268 . S
C450 O466 1.268 . S
C451 O457 1.268 . S
C451 O465 1.268 . S
C452 O458 1.268 . S
C452 O467 1.268 . S
C453 O459 1.268 . S
C453 O463 1.268 . S
C454 O460 1.268 . S
C454 O462 1.268 . S
C455 O461 1.268 . S
C455 O464 1.268 . S
O456 Sc446 2.105 . S
O456 C450 1.268 . S
O457 Sc447 2.105 . S
O457 C451 1.268 . S
O458 Sc448 2.105 . S
O458 C452 1.268 . S
O459 Sc446 2.105 . S
O459 C453 1.268 . S
O460 Sc448 2.105 . S
O460 C454 1.268 . S
O461 Sc447 2.105 . S
O461 C455 1.268 . S
O462 Sc446 2.105 . S
O462 C454 1.268 . S
O463 Sc447 2.105 . S
O463 C453 1.268 . S
O464 Sc448 2.105 . S
O464 C455 1.268 . S
O465 Sc446 2.105 . S
O465 C451 1.268 . S
O466 Sc448 2.105 . S
O466 C450 1.268 . S
O467 Sc447 2.105 . S
O467 C452 1.268 . S
Sc468 O471 2.025 . S
Sc468 O478 2.105 . S
Sc468 O481 2.105 . S
Sc468 O484 2.105 . S
Sc468 O487 2.105 . S
Sc469 O471 2.025 . S
Sc469 O479 2.105 . S
Sc469 O483 2.105 . S
Sc469 O485 2.105 . S
Sc469 O489 2.105 . S
Sc470 O471 2.025 . S
Sc470 O480 2.105 . S
Sc470 O482 2.105 . S
Sc470 O486 2.105 . S
Sc470 O488 2.105 . S
O471 Sc468 2.025 . S
O471 Sc469 2.025 . S
O471 Sc470 2.025 . S
C472 O478 1.268 . S
C472 O488 1.268 . S
C473 O479 1.268 . S
C473 O487 1.268 . S
C474 O480 1.268 . S
C474 O489 1.268 . S
C475 O481 1.268 . S
C475 O485 1.268 . S
C476 O482 1.268 . S
C476 O484 1.268 . S
C477 O483 1.268 . S
C477 O486 1.268 . S
O478 Sc468 2.105 . S
O478 C472 1.268 . S
O479 Sc469 2.105 . S
O479 C473 1.268 . S
O480 Sc470 2.105 . S
O480 C474 1.268 . S
O481 Sc468 2.105 . S
O481 C475 1.268 . S
O482 Sc470 2.105 . S
O482 C476 1.268 . S
O483 Sc469 2.105 . S
O483 C477 1.268 . S
O484 Sc468 2.105 . S
O484 C476 1.268 . S
O485 Sc469 2.105 . S
O485 C475 1.268 . S
O486 Sc470 2.105 . S
O486 C477 1.268 . S
O487 Sc468 2.105 . S
O487 C473 1.268 . S
O488 Sc470 2.105 . S
O488 C472 1.268 . S
O489 Sc469 2.105 . S
O489 C474 1.268 . S
Sc490 O493 2.025 . S
Sc490 O500 2.105 . S
Sc490 O503 2.105 . S
Sc490 O506 2.105 . S
Sc490 O509 2.105 . S
Sc491 O493 2.025 . S
Sc491 O501 2.105 . S
Sc491 O505 2.105 . S
Sc491 O507 2.105 . S
Sc491 O511 2.105 . S
Sc492 O493 2.025 . S
Sc492 O502 2.105 . S
Sc492 O504 2.105 . S
Sc492 O508 2.105 . S
Sc492 O510 2.105 . S
O493 Sc490 2.025 . S
O493 Sc491 2.025 . S
O493 Sc492 2.025 . S
C494 O500 1.268 . S
C494 O510 1.268 . S
C495 O501 1.268 . S
C495 O509 1.268 . S
C496 O502 1.268 . S
C496 O511 1.268 . S
C497 O503 1.268 . S
C497 O507 1.268 . S
C498 O504 1.268 . S
C498 O506 1.268 . S
C499 O505 1.268 . S
C499 O508 1.268 . S
O500 Sc490 2.105 . S
O500 C494 1.268 . S
O501 Sc491 2.105 . S
O501 C495 1.268 . S
O502 Sc492 2.105 . S
O502 C496 1.268 . S
O503 Sc490 2.105 . S
O503 C497 1.268 . S
O504 Sc492 2.105 . S
O504 C498 1.268 . S
O505 Sc491 2.105 . S
O505 C499 1.268 . S
O506 Sc490 2.105 . S
O506 C498 1.268 . S
O507 Sc491 2.105 . S
O507 C497 1.268 . S
O508 Sc492 2.105 . S
O508 C499 1.268 . S
O509 Sc490 2.105 . S
O509 C495 1.268 . S
O510 Sc492 2.105 . S
O510 C494 1.268 . S
O511 Sc491 2.105 . S
O511 C496 1.268 . S
Sc512 O515 2.025 . S
Sc512 O522 2.105 . S
Sc512 O525 2.105 . S
Sc512 O528 2.105 . S
Sc512 O531 2.105 . S
Sc513 O515 2.025 . S
Sc513 O523 2.105 . S
Sc513 O527 2.105 . S
Sc513 O529 2.105 . S
Sc513 O533 2.105 . S
Sc514 O515 2.025 . S
Sc514 O524 2.105 . S
Sc514 O526 2.105 . S
Sc514 O530 2.105 . S
Sc514 O532 2.105 . S
O515 Sc512 2.025 . S
O515 Sc513 2.025 . S
O515 Sc514 2.025 . S
C516 O522 1.268 . S
C516 O532 1.268 . S
C517 O523 1.268 . S
C517 O531 1.268 . S
C518 O524 1.268 . S
C518 O533 1.268 . S
C519 O525 1.268 . S
C519 O529 1.268 . S
C520 O526 1.268 . S
C520 O528 1.268 . S
C521 O527 1.268 . S
C521 O530 1.268 . S
O522 Sc512 2.105 . S
O522 C516 1.268 . S
O523 Sc513 2.105 . S
O523 C517 1.268 . S
O524 Sc514 2.105 . S
O524 C518 1.268 . S
O525 Sc512 2.105 . S
O525 C519 1.268 . S
O526 Sc514 2.105 . S
O526 C520 1.268 . S
O527 Sc513 2.105 . S
O527 C521 1.268 . S
O528 Sc512 2.105 . S
O528 C520 1.268 . S
O529 Sc513 2.105 . S
O529 C519 1.268 . S
O530 Sc514 2.105 . S
O530 C521 1.268 . S
O531 Sc512 2.105 . S
O531 C517 1.268 . S
O532 Sc514 2.105 . S
O532 C516 1.268 . S
O533 Sc513 2.105 . S
O533 C518 1.268 . S
Sc534 O537 2.025 . S
Sc534 O544 2.105 . S
Sc534 O547 2.105 . S
Sc534 O550 2.105 . S
Sc534 O553 2.105 . S
Sc535 O537 2.025 . S
Sc535 O545 2.105 . S
Sc535 O549 2.105 . S
Sc535 O551 2.105 . S
Sc535 O555 2.105 . S
Sc536 O537 2.025 . S
Sc536 O546 2.105 . S
Sc536 O548 2.105 . S
Sc536 O552 2.105 . S
Sc536 O554 2.105 . S
O537 Sc534 2.025 . S
O537 Sc535 2.025 . S
O537 Sc536 2.025 . S
C538 O544 1.268 . S
C538 O554 1.268 . S
C539 O545 1.268 . S
C539 O553 1.268 . S
C540 O546 1.268 . S
C540 O555 1.268 . S
C541 O547 1.268 . S
C541 O551 1.268 . S
C542 O548 1.268 . S
C542 O550 1.268 . S
C543 O549 1.268 . S
C543 O552 1.268 . S
O544 Sc534 2.105 . S
O544 C538 1.268 . S
O545 Sc535 2.105 . S
O545 C539 1.268 . S
O546 Sc536 2.105 . S
O546 C540 1.268 . S
O547 Sc534 2.105 . S
O547 C541 1.268 . S
O548 Sc536 2.105 . S
O548 C542 1.268 . S
O549 Sc535 2.105 . S
O549 C543 1.268 . S
O550 Sc534 2.105 . S
O550 C542 1.268 . S
O551 Sc535 2.105 . S
O551 C541 1.268 . S
O552 Sc536 2.105 . S
O552 C543 1.268 . S
O553 Sc534 2.105 . S
O553 C539 1.268 . S
O554 Sc536 2.105 . S
O554 C538 1.268 . S
O555 Sc535 2.105 . S
O555 C540 1.268 . S
Sc556 O559 2.025 . S
Sc556 O566 2.105 . S
Sc556 O569 2.105 . S
Sc556 O572 2.105 . S
Sc556 O575 2.105 . S
Sc557 O559 2.025 . S
Sc557 O567 2.105 . S
Sc557 O571 2.105 . S
Sc557 O573 2.105 . S
Sc557 O577 2.105 . S
Sc558 O559 2.025 . S
Sc558 O568 2.105 . S
Sc558 O570 2.105 . S
Sc558 O574 2.105 . S
Sc558 O576 2.105 . S
O559 Sc556 2.025 . S
O559 Sc557 2.025 . S
O559 Sc558 2.025 . S
C560 O566 1.268 . S
C560 O576 1.268 . S
C561 O567 1.268 . S
C561 O575 1.268 . S
C562 O568 1.268 . S
C562 O577 1.268 . S
C563 O569 1.268 . S
C563 O573 1.268 . S
C564 O570 1.268 . S
C564 O572 1.268 . S
C565 O571 1.268 . S
C565 O574 1.268 . S
O566 Sc556 2.105 . S
O566 C560 1.268 . S
O567 Sc557 2.105 . S
O567 C561 1.268 . S
O568 Sc558 2.105 . S
O568 C562 1.268 . S
O569 Sc556 2.105 . S
O569 C563 1.268 . S
O570 Sc558 2.105 . S
O570 C564 1.268 . S
O571 Sc557 2.105 . S
O571 C565 1.268 . S
O572 Sc556 2.105 . S
O572 C564 1.268 . S
O573 Sc557 2.105 . S
O573 C563 1.268 . S
O574 Sc558 2.105 . S
O574 C565 1.268 . S
O575 Sc556 2.105 . S
O575 C561 1.268 . S
O576 Sc558 2.105 . S
O576 C560 1.268 . S
O577 Sc557 2.105 . S
O577 C562 1.268 . S
Sc578 O581 2.025 . S
Sc578 O588 2.105 . S
Sc578 O591 2.105 . S
Sc578 O594 2.105 . S
Sc578 O597 2.105 . S
Sc579 O581 2.025 . S
Sc579 O589 2.105 . S
Sc579 O593 2.105 . S
Sc579 O595 2.105 . S
Sc579 O599 2.105 . S
Sc580 O581 2.025 . S
Sc580 O590 2.105 . S
Sc580 O592 2.105 . S
Sc580 O596 2.105 . S
Sc580 O598 2.105 . S
O581 Sc578 2.025 . S
O581 Sc579 2.025 . S
O581 Sc580 2.025 . S
C582 O588 1.268 . S
C582 O598 1.268 . S
C583 O589 1.268 . S
C583 O597 1.268 . S
C584 O590 1.268 . S
C584 O599 1.268 . S
C585 O591 1.268 . S
C585 O595 1.268 . S
C586 O592 1.268 . S
C586 O594 1.268 . S
C587 O593 1.268 . S
C587 O596 1.268 . S
O588 Sc578 2.105 . S
O588 C582 1.268 . S
O589 Sc579 2.105 . S
O589 C583 1.268 . S
O590 Sc580 2.105 . S
O590 C584 1.268 . S
O591 Sc578 2.105 . S
O591 C585 1.268 . S
O592 Sc580 2.105 . S
O592 C586 1.268 . S
O593 Sc579 2.105 . S
O593 C587 1.268 . S
O594 Sc578 2.105 . S
O594 C586 1.268 . S
O595 Sc579 2.105 . S
O595 C585 1.268 . S
O596 Sc580 2.105 . S
O596 C587 1.268 . S
O597 Sc578 2.105 . S
O597 C583 1.268 . S
O598 Sc580 2.105 . S
O598 C582 1.268 . S
O599 Sc579 2.105 . S
O599 C584 1.268 . S
Sc600 O603 2.025 . S
Sc600 O610 2.105 . S
Sc600 O613 2.105 . S
Sc600 O616 2.105 . S
Sc600 O619 2.105 . S
Sc601 O603 2.025 . S
Sc601 O611 2.105 . S
Sc601 O615 2.105 . S
Sc601 O617 2.105 . S
Sc601 O621 2.105 . S
Sc602 O603 2.025 . S
Sc602 O612 2.105 . S
Sc602 O614 2.105 . S
Sc602 O618 2.105 . S
Sc602 O620 2.105 . S
O603 Sc600 2.025 . S
O603 Sc601 2.025 . S
O603 Sc602 2.025 . S
C604 O610 1.268 . S
C604 O620 1.268 . S
C605 O611 1.268 . S
C605 O619 1.268 . S
C606 O612 1.268 . S
C606 O621 1.268 . S
C607 O613 1.268 . S
C607 O617 1.268 . S
C608 O614 1.268 . S
C608 O616 1.268 . S
C609 O615 1.268 . S
C609 O618 1.268 . S
O610 Sc600 2.105 . S
O610 C604 1.268 . S
O611 Sc601 2.105 . S
O611 C605 1.268 . S
O612 Sc602 2.105 . S
O612 C606 1.268 . S
O613 Sc600 2.105 . S
O613 C607 1.268 . S
O614 Sc602 2.105 . S
O614 C608 1.268 . S
O615 Sc601 2.105 . S
O615 C609 1.268 . S
O616 Sc600 2.105 . S
O616 C608 1.268 . S
O617 Sc601 2.105 . S
O617 C607 1.268 . S
O618 Sc602 2.105 . S
O618 C609 1.268 . S
O619 Sc600 2.105 . S
O619 C605 1.268 . S
O620 Sc602 2.105 . S
O620 C604 1.268 . S
O621 Sc601 2.105 . S
O621 C606 1.268 . S
Sc622 O625 2.025 . S
Sc622 O632 2.105 . S
Sc622 O635 2.105 . S
Sc622 O638 2.105 . S
Sc622 O641 2.105 . S
Sc623 O625 2.025 . S
Sc623 O633 2.105 . S
Sc623 O637 2.105 . S
Sc623 O639 2.105 . S
Sc623 O643 2.105 . S
Sc624 O625 2.025 . S
Sc624 O634 2.105 . S
Sc624 O636 2.105 . S
Sc624 O640 2.105 . S
Sc624 O642 2.105 . S
O625 Sc622 2.025 . S
O625 Sc623 2.025 . S
O625 Sc624 2.025 . S
C626 O632 1.268 . S
C626 O642 1.268 . S
C627 O633 1.268 . S
C627 O641 1.268 . S
C628 O634 1.268 . S
C628 O643 1.268 . S
C629 O635 1.268 . S
C629 O639 1.268 . S
C630 O636 1.268 . S
C630 O638 1.268 . S
C631 O637 1.268 . S
C631 O640 1.268 . S
O632 Sc622 2.105 . S
O632 C626 1.268 . S
O633 Sc623 2.105 . S
O633 C627 1.268 . S
O634 Sc624 2.105 . S
O634 C628 1.268 . S
O635 Sc622 2.105 . S
O635 C629 1.268 . S
O636 Sc624 2.105 . S
O636 C630 1.268 . S
O637 Sc623 2.105 . S
O637 C631 1.268 . S
O638 Sc622 2.105 . S
O638 C630 1.268 . S
O639 Sc623 2.105 . S
O639 C629 1.268 . S
O640 Sc624 2.105 . S
O640 C631 1.268 . S
O641 Sc622 2.105 . S
O641 C627 1.268 . S
O642 Sc624 2.105 . S
O642 C626 1.268 . S
O643 Sc623 2.105 . S
O643 C628 1.268 . S
Sc644 O647 2.025 . S
Sc644 O654 2.105 . S
Sc644 O657 2.105 . S
Sc644 O660 2.105 . S
Sc644 O663 2.105 . S
Sc645 O647 2.025 . S
Sc645 O655 2.105 . S
Sc645 O659 2.105 . S
Sc645 O661 2.105 . S
Sc645 O665 2.105 . S
Sc646 O647 2.025 . S
Sc646 O656 2.105 . S
Sc646 O658 2.105 . S
Sc646 O662 2.105 . S
Sc646 O664 2.105 . S
O647 Sc644 2.025 . S
O647 Sc645 2.025 . S
O647 Sc646 2.025 . S
C648 O654 1.268 . S
C648 O664 1.268 . S
C649 O655 1.268 . S
C649 O663 1.268 . S
C650 O656 1.268 . S
C650 O665 1.268 . S
C651 O657 1.268 . S
C651 O661 1.268 . S
C652 O658 1.268 . S
C652 O660 1.268 . S
C653 O659 1.268 . S
C653 O662 1.268 . S
O654 Sc644 2.105 . S
O654 C648 1.268 . S
O655 Sc645 2.105 . S
O655 C649 1.268 . S
O656 Sc646 2.105 . S
O656 C650 1.268 . S
O657 Sc644 2.105 . S
O657 C651 1.268 . S
O658 Sc646 2.105 . S
O658 C652 1.268 . S
O659 Sc645 2.105 . S
O659 C653 1.268 . S
O660 Sc644 2.105 . S
O660 C652 1.268 . S
O661 Sc645 2.105 . S
O661 C651 1.268 . S
O662 Sc646 2.105 . S
O662 C653 1.268 . S
O663 Sc644 2.105 . S
O663 C649 1.268 . S
O664 Sc646 2.105 . S
O664 C648 1.268 . S
O665 Sc645 2.105 . S
O665 C650 1.268 . S
Sc666 O669 2.025 . S
Sc666 O676 2.105 . S
Sc666 O679 2.105 . S
Sc666 O682 2.105 . S
Sc666 O685 2.105 . S
Sc667 O669 2.025 . S
Sc667 O677 2.105 . S
Sc667 O681 2.105 . S
Sc667 O683 2.105 . S
Sc667 O687 2.105 . S
Sc668 O669 2.025 . S
Sc668 O678 2.105 . S
Sc668 O680 2.105 . S
Sc668 O684 2.105 . S
Sc668 O686 2.105 . S
O669 Sc666 2.025 . S
O669 Sc667 2.025 . S
O669 Sc668 2.025 . S
C670 O676 1.268 . S
C670 O686 1.268 . S
C671 O677 1.268 . S
C671 O685 1.268 . S
C672 O678 1.268 . S
C672 O687 1.268 . S
C673 O679 1.268 . S
C673 O683 1.268 . S
C674 O680 1.268 . S
C674 O682 1.268 . S
C675 O681 1.268 . S
C675 O684 1.268 . S
O676 Sc666 2.105 . S
O676 C670 1.268 . S
O677 Sc667 2.105 . S
O677 C671 1.268 . S
O678 Sc668 2.105 . S
O678 C672 1.268 . S
O679 Sc666 2.105 . S
O679 C673 1.268 . S
O680 Sc668 2.105 . S
O680 C674 1.268 . S
O681 Sc667 2.105 . S
O681 C675 1.268 . S
O682 Sc666 2.105 . S
O682 C674 1.268 . S
O683 Sc667 2.105 . S
O683 C673 1.268 . S
O684 Sc668 2.105 . S
O684 C675 1.268 . S
O685 Sc666 2.105 . S
O685 C671 1.268 . S
O686 Sc668 2.105 . S
O686 C670 1.268 . S
O687 Sc667 2.105 . S
O687 C672 1.268 . S
C688 C689 1.349 . S
C688 C690 1.327 . S
C688 H713 0.950 . S
C689 C688 1.349 . S
C689 C705 1.349 . S
C690 C688 1.327 . S
C690 C709 1.429 . S
C690 H714 0.950 . S
C691 C708 1.574 . S
C691 C710 1.368 . S
C691 H715 0.949 . S
H692 C696 0.949 . S
C693 C694 1.349 . S
C693 C695 1.327 . S
C693 H716 0.950 . S
C694 C693 1.349 . S
C694 C706 1.349 . S
C695 C693 1.327 . S
C695 C711 1.429 . S
C695 H717 0.950 . S
C696 H692 0.949 . S
C696 C704 1.574 . S
C696 C712 1.368 . S
H697 C705 0.950 . S
H698 C703 0.950 . S
H699 C704 0.949 . S
H700 C706 0.950 . S
H701 C707 0.950 . S
H702 C708 0.949 . S
C703 H698 0.950 . S
C703 C705 1.327 . S
C703 C709 1.429 . S
C704 C696 1.574 . S
C704 H699 0.949 . S
C704 C710 1.368 . S
C705 C689 1.349 . S
C705 H697 0.950 . S
C705 C703 1.327 . S
C706 C694 1.349 . S
C706 H700 0.950 . S
C706 C707 1.327 . S
C707 H701 0.950 . S
C707 C706 1.327 . S
C707 C711 1.429 . S
C708 C691 1.574 . S
C708 H702 0.949 . S
C708 C712 1.368 . S
C709 C690 1.429 . S
C709 C703 1.429 . S
C709 C710 1.523 . S
C710 C691 1.368 . S
C710 C704 1.368 . S
C710 C709 1.523 . S
C711 C695 1.429 . S
C711 C707 1.429 . S
C711 C712 1.523 . S
C712 C696 1.368 . S
C712 C708 1.368 . S
C712 C711 1.523 . S
H713 C688 0.950 . S
H714 C690 0.950 . S
H715 C691 0.949 . S
H716 C693 0.950 . S
H717 C695 0.950 . S
C718 C719 1.349 . S
C718 C720 1.327 . S
C718 H743 0.950 . S
C719 C718 1.349 . S
C719 C735 1.349 . S
C720 C718 1.327 . S
C720 C739 1.429 . S
C720 H744 0.950 . S
C721 C738 1.574 . S
C721 C740 1.368 . S
C721 H745 0.949 . S
H722 C726 0.949 . S
C723 C724 1.349 . S
C723 C725 1.327 . S
C723 H746 0.950 . S
C724 C723 1.349 . S
C724 C736 1.349 . S
C725 C723 1.327 . S
C725 C741 1.429 . S
C725 H747 0.950 . S
C726 H722 0.949 . S
C726 C734 1.574 . S
C726 C742 1.368 . S
H727 C735 0.950 . S
H728 C733 0.950 . S
H729 C734 0.949 . S
H730 C736 0.950 . S
H731 C737 0.950 . S
H732 C738 0.949 . S
C733 H728 0.950 . S
C733 C735 1.327 . S
C733 C739 1.429 . S
C734 C726 1.574 . S
C734 H729 0.949 . S
C734 C740 1.368 . S
C735 C719 1.349 . S
C735 H727 0.950 . S
C735 C733 1.327 . S
C736 C724 1.349 . S
C736 H730 0.950 . S
C736 C737 1.327 . S
C737 H731 0.950 . S
C737 C736 1.327 . S
C737 C741 1.429 . S
C738 C721 1.574 . S
C738 H732 0.949 . S
C738 C742 1.368 . S
C739 C720 1.429 . S
C739 C733 1.429 . S
C739 C740 1.523 . S
C740 C721 1.368 . S
C740 C734 1.368 . S
C740 C739 1.523 . S
C741 C725 1.429 . S
C741 C737 1.429 . S
C741 C742 1.523 . S
C742 C726 1.368 . S
C742 C738 1.368 . S
C742 C741 1.523 . S
H743 C718 0.950 . S
H744 C720 0.950 . S
H745 C721 0.949 . S
H746 C723 0.950 . S
H747 C725 0.950 . S
C748 C749 1.349 . S
C748 C750 1.327 . S
C748 H773 0.950 . S
C749 C748 1.349 . S
C749 C765 1.349 . S
C750 C748 1.327 . S
C750 C769 1.429 . S
C750 H774 0.950 . S
C751 C768 1.574 . S
C751 C770 1.368 . S
C751 H775 0.949 . S
H752 C756 0.949 . S
C753 C754 1.349 . S
C753 C755 1.327 . S
C753 H776 0.950 . S
C754 C753 1.349 . S
C754 C766 1.349 . S
C755 C753 1.327 . S
C755 C771 1.429 . S
C755 H777 0.950 . S
C756 H752 0.949 . S
C756 C764 1.574 . S
C756 C772 1.368 . S
H757 C765 0.950 . S
H758 C763 0.950 . S
H759 C764 0.949 . S
H760 C766 0.950 . S
H761 C767 0.950 . S
H762 C768 0.949 . S
C763 H758 0.950 . S
C763 C765 1.327 . S
C763 C769 1.429 . S
C764 C756 1.574 . S
C764 H759 0.949 . S
C764 C770 1.368 . S
C765 C749 1.349 . S
C765 H757 0.950 . S
C765 C763 1.327 . S
C766 C754 1.349 . S
C766 H760 0.950 . S
C766 C767 1.327 . S
C767 H761 0.950 . S
C767 C766 1.327 . S
C767 C771 1.429 . S
C768 C751 1.574 . S
C768 H762 0.949 . S
C768 C772 1.368 . S
C769 C750 1.429 . S
C769 C763 1.429 . S
C769 C770 1.523 . S
C770 C751 1.368 . S
C770 C764 1.368 . S
C770 C769 1.523 . S
C771 C755 1.429 . S
C771 C767 1.429 . S
C771 C772 1.523 . S
C772 C756 1.368 . S
C772 C768 1.368 . S
C772 C771 1.523 . S
H773 C748 0.950 . S
H774 C750 0.950 . S
H775 C751 0.949 . S
H776 C753 0.950 . S
H777 C755 0.950 . S
C778 C779 1.349 . S
C778 C780 1.327 . S
C778 H803 0.950 . S
C779 C778 1.349 . S
C779 C795 1.349 . S
C780 C778 1.327 . S
C780 C799 1.429 . S
C780 H804 0.950 . S
C781 C798 1.574 1_554 S
C781 C800 1.368 . S
C781 H805 0.949 . S
H782 C786 0.949 . S
C783 C784 1.349 . S
C783 C785 1.327 . S
C783 H806 0.950 . S
C784 C783 1.349 . S
C784 C796 1.349 . S
C785 C783 1.327 . S
C785 C801 1.429 . S
C785 H807 0.950 . S
C786 H782 0.949 . S
C786 C794 1.574 . S
C786 C802 1.368 1_554 S
H787 C795 0.950 . S
H788 C793 0.950 . S
H789 C794 0.949 . S
H790 C796 0.950 . S
H791 C797 0.950 . S
H792 C798 0.949 . S
C793 H788 0.950 . S
C793 C795 1.327 . S
C793 C799 1.429 . S
C794 C786 1.574 . S
C794 H789 0.949 . S
C794 C800 1.368 . S
C795 C779 1.349 . S
C795 H787 0.950 . S
C795 C793 1.327 . S
C796 C784 1.349 . S
C796 H790 0.950 . S
C796 C797 1.327 . S
C797 H791 0.950 . S
C797 C796 1.327 . S
C797 C801 1.429 . S
C798 C781 1.574 1_556 S
C798 H792 0.949 . S
C798 C802 1.368 . S
C799 C780 1.429 . S
C799 C793 1.429 . S
C799 C800 1.523 . S
C800 C781 1.368 . S
C800 C794 1.368 . S
C800 C799 1.523 . S
C801 C785 1.429 . S
C801 C797 1.429 . S
C801 C802 1.523 . S
C802 C786 1.368 1_556 S
C802 C798 1.368 . S
C802 C801 1.523 . S
H803 C778 0.950 . S
H804 C780 0.950 . S
H805 C781 0.949 . S
H806 C783 0.950 . S
H807 C785 0.950 . S
C808 C809 1.349 . S
C808 C810 1.327 . S
C808 H833 0.950 . S
C809 C808 1.349 . S
C809 C825 1.349 . S
C810 C808 1.327 . S
C810 C829 1.429 . S
C810 H834 0.950 . S
C811 C828 1.574 . S
C811 C830 1.368 . S
C811 H835 0.949 . S
H812 C816 0.949 . S
C813 C814 1.349 . S
C813 C815 1.327 . S
C813 H836 0.950 . S
C814 C813 1.349 . S
C814 C826 1.349 . S
C815 C813 1.327 . S
C815 C831 1.429 . S
C815 H837 0.950 . S
C816 H812 0.949 . S
C816 C824 1.574 . S
C816 C832 1.368 . S
H817 C825 0.950 . S
H818 C823 0.950 . S
H819 C824 0.949 . S
H820 C826 0.950 . S
H821 C827 0.950 . S
H822 C828 0.949 . S
C823 H818 0.950 . S
C823 C825 1.327 . S
C823 C829 1.429 . S
C824 C816 1.574 . S
C824 H819 0.949 . S
C824 C830 1.368 . S
C825 C809 1.349 . S
C825 H817 0.950 . S
C825 C823 1.327 . S
C826 C814 1.349 . S
C826 H820 0.950 . S
C826 C827 1.327 . S
C827 H821 0.950 . S
C827 C826 1.327 . S
C827 C831 1.429 . S
C828 C811 1.574 . S
C828 H822 0.949 . S
C828 C832 1.368 . S
C829 C810 1.429 . S
C829 C823 1.429 . S
C829 C830 1.523 . S
C830 C811 1.368 . S
C830 C824 1.368 . S
C830 C829 1.523 . S
C831 C815 1.429 . S
C831 C827 1.429 . S
C831 C832 1.523 . S
C832 C816 1.368 . S
C832 C828 1.368 . S
C832 C831 1.523 . S
H833 C808 0.950 . S
H834 C810 0.950 . S
H835 C811 0.949 . S
H836 C813 0.950 . S
H837 C815 0.950 . S
C838 C839 1.349 . S
C838 C840 1.327 . S
C838 H863 0.950 . S
C839 C838 1.349 . S
C839 C855 1.349 . S
C840 C838 1.327 . S
C840 C859 1.429 . S
C840 H864 0.950 . S
C841 C858 1.574 . S
C841 C860 1.368 . S
C841 H865 0.949 . S
H842 C846 0.949 . S
C843 C844 1.349 . S
C843 C845 1.327 . S
C843 H866 0.950 . S
C844 C843 1.349 . S
C844 C856 1.349 . S
C845 C843 1.327 . S
C845 C861 1.429 . S
C845 H867 0.950 . S
C846 H842 0.949 . S
C846 C854 1.574 . S
C846 C862 1.368 . S
H847 C855 0.950 . S
H848 C853 0.950 . S
H849 C854 0.949 . S
H850 C856 0.950 . S
H851 C857 0.950 . S
H852 C858 0.949 . S
C853 H848 0.950 . S
C853 C855 1.327 . S
C853 C859 1.429 . S
C854 C846 1.574 . S
C854 H849 0.949 . S
C854 C860 1.368 . S
C855 C839 1.349 . S
C855 H847 0.950 . S
C855 C853 1.327 . S
C856 C844 1.349 . S
C856 H850 0.950 . S
C856 C857 1.327 . S
C857 H851 0.950 . S
C857 C856 1.327 . S
C857 C861 1.429 . S
C858 C841 1.574 . S
C858 H852 0.949 . S
C858 C862 1.368 . S
C859 C840 1.429 . S
C859 C853 1.429 . S
C859 C860 1.523 . S
C860 C841 1.368 . S
C860 C854 1.368 . S
C860 C859 1.523 . S
C861 C845 1.429 . S
C861 C857 1.429 . S
C861 C862 1.523 . S
C862 C846 1.368 . S
C862 C858 1.368 . S
C862 C861 1.523 . S
H863 C838 0.950 . S
H864 C840 0.950 . S
H865 C841 0.949 . S
H866 C843 0.950 . S
H867 C845 0.950 . S
C868 C869 1.349 . S
C868 C870 1.327 . S
C868 H893 0.950 . S
C869 C868 1.349 . S
C869 C885 1.349 . S
C870 C868 1.327 . S
C870 C889 1.429 . S
C870 H894 0.950 . S
C871 C888 1.574 . S
C871 C890 1.368 . S
C871 H895 0.949 . S
H872 C876 0.949 . S
C873 C874 1.349 . S
C873 C875 1.327 . S
C873 H896 0.950 . S
C874 C873 1.349 . S
C874 C886 1.349 . S
C875 C873 1.327 . S
C875 C891 1.429 . S
C875 H897 0.950 . S
C876 H872 0.949 . S
C876 C884 1.574 . S
C876 C892 1.368 . S
H877 C885 0.950 . S
H878 C883 0.950 . S
H879 C884 0.949 . S
H880 C886 0.950 . S
H881 C887 0.950 . S
H882 C888 0.949 . S
C883 H878 0.950 . S
C883 C885 1.327 . S
C883 C889 1.429 . S
C884 C876 1.574 . S
C884 H879 0.949 . S
C884 C890 1.368 . S
C885 C869 1.349 . S
C885 H877 0.950 . S
C885 C883 1.327 . S
C886 C874 1.349 . S
C886 H880 0.950 . S
C886 C887 1.327 . S
C887 H881 0.950 . S
C887 C886 1.327 . S
C887 C891 1.429 . S
C888 C871 1.574 . S
C888 H882 0.949 . S
C888 C892 1.368 . S
C889 C870 1.429 . S
C889 C883 1.429 . S
C889 C890 1.523 . S
C890 C871 1.368 . S
C890 C884 1.368 . S
C890 C889 1.523 . S
C891 C875 1.429 . S
C891 C887 1.429 . S
C891 C892 1.523 . S
C892 C876 1.368 . S
C892 C888 1.368 . S
C892 C891 1.523 . S
H893 C868 0.950 . S
H894 C870 0.950 . S
H895 C871 0.949 . S
H896 C873 0.950 . S
H897 C875 0.950 . S
C898 C899 1.349 . S
C898 C900 1.327 . S
C898 H923 0.950 . S
C899 C898 1.349 . S
C899 C915 1.349 . S
C900 C898 1.327 . S
C900 C919 1.429 . S
C900 H924 0.950 . S
C901 C918 1.574 . S
C901 C920 1.368 . S
C901 H925 0.949 . S
H902 C906 0.949 . S
C903 C904 1.349 . S
C903 C905 1.327 . S
C903 H926 0.950 . S
C904 C903 1.349 . S
C904 C916 1.349 . S
C905 C903 1.327 . S
C905 C921 1.429 . S
C905 H927 0.950 . S
C906 H902 0.949 . S
C906 C914 1.574 1_554 S
C906 C922 1.368 . S
H907 C915 0.950 . S
H908 C913 0.950 . S
H909 C914 0.949 . S
H910 C916 0.950 . S
H911 C917 0.950 . S
H912 C918 0.949 . S
C913 H908 0.950 . S
C913 C915 1.327 . S
C913 C919 1.429 . S
C914 C906 1.574 1_556 S
C914 H909 0.949 . S
C914 C920 1.368 . S
C915 C899 1.349 . S
C915 H907 0.950 . S
C915 C913 1.327 . S
C916 C904 1.349 . S
C916 H910 0.950 . S
C916 C917 1.327 . S
C917 H911 0.950 . S
C917 C916 1.327 . S
C917 C921 1.429 . S
C918 C901 1.574 . S
C918 H912 0.949 . S
C918 C922 1.368 1_556 S
C919 C900 1.429 . S
C919 C913 1.429 . S
C919 C920 1.523 . S
C920 C901 1.368 . S
C920 C914 1.368 . S
C920 C919 1.523 . S
C921 C905 1.429 . S
C921 C917 1.429 . S
C921 C922 1.523 . S
C922 C906 1.368 . S
C922 C918 1.368 1_554 S
C922 C921 1.523 . S
H923 C898 0.950 . S
H924 C900 0.950 . S
H925 C901 0.949 . S
H926 C903 0.950 . S
H927 C905 0.950 . S
C928 C929 1.349 . S
C928 C930 1.327 . S
C928 H953 0.950 . S
C929 C928 1.349 . S
C929 C945 1.349 . S
C930 C928 1.327 . S
C930 C949 1.429 . S
C930 H954 0.950 . S
C931 C948 1.574 . S
C931 C950 1.368 . S
C931 H955 0.949 . S
H932 C936 0.949 . S
C933 C934 1.349 . S
C933 C935 1.327 . S
C933 H956 0.950 . S
C934 C933 1.349 . S
C934 C946 1.349 . S
C935 C933 1.327 . S
C935 C951 1.429 . S
C935 H957 0.950 . S
C936 H932 0.949 . S
C936 C944 1.574 . S
C936 C952 1.368 . S
H937 C945 0.950 . S
H938 C943 0.950 . S
H939 C944 0.949 . S
H940 C946 0.950 . S
H941 C947 0.950 . S
H942 C948 0.949 . S
C943 H938 0.950 . S
C943 C945 1.327 . S
C943 C949 1.429 . S
C944 C936 1.574 . S
C944 H939 0.949 . S
C944 C950 1.368 . S
C945 C929 1.349 . S
C945 H937 0.950 . S
C945 C943 1.327 . S
C946 C934 1.349 . S
C946 H940 0.950 . S
C946 C947 1.327 . S
C947 H941 0.950 . S
C947 C946 1.327 . S
C947 C951 1.429 . S
C948 C931 1.574 . S
C948 H942 0.949 . S
C948 C952 1.368 . S
C949 C930 1.429 . S
C949 C943 1.429 . S
C949 C950 1.523 . S
C950 C931 1.368 . S
C950 C944 1.368 . S
C950 C949 1.523 . S
C951 C935 1.429 . S
C951 C947 1.429 . S
C951 C952 1.523 . S
C952 C936 1.368 . S
C952 C948 1.368 . S
C952 C951 1.523 . S
H953 C928 0.950 . S
H954 C930 0.950 . S
H955 C931 0.949 . S
H956 C933 0.950 . S
H957 C935 0.950 . S
C958 C959 1.349 . S
C958 C960 1.327 . S
C958 H983 0.950 . S
C959 C958 1.349 . S
C959 C975 1.349 . S
C960 C958 1.327 . S
C960 C979 1.429 . S
C960 H984 0.950 . S
C961 C978 1.574 . S
C961 C980 1.368 . S
C961 H985 0.949 . S
H962 C966 0.949 1_565 S
C963 C964 1.349 . S
C963 C965 1.327 . S
C963 H986 0.950 . S
C964 C963 1.349 . S
C964 C976 1.349 . S
C965 C963 1.327 . S
C965 C981 1.429 . S
C965 H987 0.950 . S
C966 H962 0.949 1_545 S
C966 C974 1.574 . S
C966 C982 1.368 1_545 S
H967 C975 0.950 . S
H968 C973 0.950 . S
H969 C974 0.949 . S
H970 C976 0.950 . S
H971 C977 0.950 . S
H972 C978 0.949 1_565 S
C973 H968 0.950 . S
C973 C975 1.327 . S
C973 C979 1.429 . S
C974 C966 1.574 . S
C974 H969 0.949 . S
C974 C980 1.368 . S
C975 C959 1.349 . S
C975 H967 0.950 . S
C975 C973 1.327 . S
C976 C964 1.349 . S
C976 H970 0.950 . S
C976 C977 1.327 . S
C977 H971 0.950 . S
C977 C976 1.327 . S
C977 C981 1.429 . S
C978 C961 1.574 . S
C978 H972 0.949 1_545 S
C978 C982 1.368 1_545 S
C979 C960 1.429 . S
C979 C973 1.429 . S
C979 C980 1.523 . S
C980 C961 1.368 . S
C980 C974 1.368 . S
C980 C979 1.523 . S
C981 C965 1.429 . S
C981 C977 1.429 . S
C981 C982 1.523 . S
C982 C966 1.368 1_565 S
C982 C978 1.368 1_565 S
C982 C981 1.523 . S
H983 C958 0.950 . S
H984 C960 0.950 . S
H985 C961 0.949 . S
H986 C963 0.950 . S
H987 C965 0.950 . S
C988 C989 1.349 . S
C988 C990 1.327 . S
C988 H1013 0.950 . S
C989 C988 1.349 . S
C989 C1005 1.349 . S
C990 C988 1.327 . S
C990 C1009 1.429 . S
C990 H1014 0.950 . S
C991 C1008 1.574 . S
C991 C1010 1.368 . S
C991 H1015 0.949 . S
H992 C996 0.949 . S
C993 C994 1.349 . S
C993 C995 1.327 . S
C993 H1016 0.950 . S
C994 C993 1.349 . S
C994 C1006 1.349 . S
C995 C993 1.327 . S
C995 C1011 1.429 . S
C995 H1017 0.950 . S
C996 H992 0.949 . S
C996 C1004 1.574 . S
C996 C1012 1.368 . S
H997 C1005 0.950 . S
H998 C1003 0.950 . S
H999 C1004 0.949 . S
H1000 C1006 0.950 . S
H1001 C1007 0.950 . S
H1002 C1008 0.949 . S
C1003 H998 0.950 . S
C1003 C1005 1.327 . S
C1003 C1009 1.429 . S
C1004 C996 1.574 . S
C1004 H999 0.949 . S
C1004 C1010 1.368 . S
C1005 C989 1.349 . S
C1005 H997 0.950 . S
C1005 C1003 1.327 . S
C1006 C994 1.349 . S
C1006 H1000 0.950 . S
C1006 C1007 1.327 . S
C1007 H1001 0.950 . S
C1007 C1006 1.327 . S
C1007 C1011 1.429 . S
C1008 C991 1.574 . S
C1008 H1002 0.949 . S
C1008 C1012 1.368 . S
C1009 C990 1.429 . S
C1009 C1003 1.429 . S
C1009 C1010 1.523 . S
C1010 C991 1.368 . S
C1010 C1004 1.368 . S
C1010 C1009 1.523 . S
C1011 C995 1.429 . S
C1011 C1007 1.429 . S
C1011 C1012 1.523 . S
C1012 C996 1.368 . S
C1012 C1008 1.368 . S
C1012 C1011 1.523 . S
H1013 C988 0.950 . S
H1014 C990 0.950 . S
H1015 C991 0.949 . S
H1016 C993 0.950 . S
H1017 C995 0.950 . S
C1018 C1019 1.349 . S
C1018 C1020 1.327 . S
C1018 H1043 0.950 . S
C1019 C1018 1.349 . S
C1019 C1035 1.349 . S
C1020 C1018 1.327 . S
C1020 C1039 1.429 . S
C1020 H1044 0.950 . S
C1021 C1038 1.567 1_565 S
C1021 C1040 1.368 . S
C1021 H1045 0.949 . S
H1022 C1026 0.966 . S
C1023 C1024 1.349 . S
C1023 C1025 1.327 . S
C1023 H1046 0.950 . S
C1024 C1023 1.349 . S
C1024 C1036 1.349 . S
C1025 C1023 1.327 . S
C1025 C1041 1.429 . S
C1025 H1047 0.950 . S
C1026 H1022 0.966 . S
C1026 C1034 1.545 1_545 S
C1026 C1042 1.379 . S
H1027 C1035 0.950 . S
H1028 C1033 0.950 . S
H1029 C1034 0.949 . S
H1030 C1036 0.950 . S
H1031 C1037 0.950 . S
H1032 C1038 0.952 . S
C1033 H1028 0.950 . S
C1033 C1035 1.327 . S
C1033 C1039 1.429 . S
C1034 C1026 1.545 1_565 S
C1034 H1029 0.949 . S
C1034 C1040 1.368 . S
C1035 C1019 1.349 . S
C1035 H1027 0.950 . S
C1035 C1033 1.327 . S
C1036 C1024 1.349 . S
C1036 H1030 0.950 . S
C1036 C1037 1.327 . S
C1037 H1031 0.950 . S
C1037 C1036 1.327 . S
C1037 C1041 1.429 . S
C1038 C1021 1.567 1_545 S
C1038 H1032 0.952 . S
C1038 C1042 1.371 . S
C1039 C1020 1.429 . S
C1039 C1033 1.429 . S
C1039 C1040 1.523 . S
C1040 C1021 1.368 . S
C1040 C1034 1.368 . S
C1040 C1039 1.523 . S
C1041 C1025 1.429 . S
C1041 C1037 1.429 . S
C1041 C1042 1.523 . S
C1042 C1026 1.379 . S
C1042 C1038 1.371 . S
C1042 C1041 1.523 . S
H1043 C1018 0.950 . S
H1044 C1020 0.950 . S
H1045 C1021 0.949 . S
H1046 C1023 0.950 . S
H1047 C1025 0.950 . S
C1048 C1049 1.349 . S
C1048 C1050 1.327 . S
C1048 H1073 0.950 . S
C1049 C1048 1.349 . S
C1049 C1065 1.349 . S
C1050 C1048 1.327 . S
C1050 C1069 1.429 . S
C1050 H1074 0.950 . S
C1051 C1068 1.574 . S
C1051 C1070 1.368 . S
C1051 H1075 0.949 . S
H1052 C1056 0.949 . S
C1053 C1054 1.349 . S
C1053 C1055 1.327 . S
C1053 H1076 0.950 . S
C1054 C1053 1.349 . S
C1054 C1066 1.349 . S
C1055 C1053 1.327 . S
C1055 C1071 1.429 . S
C1055 H1077 0.950 . S
C1056 H1052 0.949 . S
C1056 C1064 1.574 . S
C1056 C1072 1.368 . S
H1057 C1065 0.950 . S
H1058 C1063 0.950 . S
H1059 C1064 0.949 . S
H1060 C1066 0.950 . S
H1061 C1067 0.950 . S
H1062 C1068 0.949 . S
C1063 H1058 0.950 . S
C1063 C1065 1.327 . S
C1063 C1069 1.429 . S
C1064 C1056 1.574 . S
C1064 H1059 0.949 . S
C1064 C1070 1.368 . S
C1065 C1049 1.349 . S
C1065 H1057 0.950 . S
C1065 C1063 1.327 . S
C1066 C1054 1.349 . S
C1066 H1060 0.950 . S
C1066 C1067 1.327 . S
C1067 H1061 0.950 . S
C1067 C1066 1.327 . S
C1067 C1071 1.429 . S
C1068 C1051 1.574 . S
C1068 H1062 0.949 . S
C1068 C1072 1.368 . S
C1069 C1050 1.429 . S
C1069 C1063 1.429 . S
C1069 C1070 1.523 . S
C1070 C1051 1.368 . S
C1070 C1064 1.368 . S
C1070 C1069 1.523 . S
C1071 C1055 1.429 . S
C1071 C1067 1.429 . S
C1071 C1072 1.523 . S
C1072 C1056 1.368 . S
C1072 C1068 1.368 . S
C1072 C1071 1.523 . S
H1073 C1048 0.950 . S
H1074 C1050 0.950 . S
H1075 C1051 0.949 . S
H1076 C1053 0.950 . S
H1077 C1055 0.950 . S
C1078 C1079 1.349 . S
C1078 C1080 1.327 . S
C1078 H1103 0.950 . S
C1079 C1078 1.349 . S
C1079 C1095 1.349 . S
C1080 C1078 1.327 . S
C1080 C1099 1.429 . S
C1080 H1104 0.950 . S
C1081 C1098 1.574 1_545 S
C1081 C1100 1.368 . S
C1081 H1105 0.949 . S
H1082 C1086 0.949 . S
C1083 C1084 1.349 . S
C1083 C1085 1.327 . S
C1083 H1106 0.950 . S
C1084 C1083 1.349 . S
C1084 C1096 1.349 . S
C1085 C1083 1.327 . S
C1085 C1101 1.429 . S
C1085 H1107 0.950 . S
C1086 H1082 0.949 . S
C1086 C1094 1.574 . S
C1086 C1102 1.368 1_545 S
H1087 C1095 0.950 . S
H1088 C1093 0.950 . S
H1089 C1094 0.949 . S
H1090 C1096 0.950 . S
H1091 C1097 0.950 . S
H1092 C1098 0.949 . S
C1093 H1088 0.950 . S
C1093 C1095 1.327 . S
C1093 C1099 1.429 . S
C1094 C1086 1.574 . S
C1094 H1089 0.949 . S
C1094 C1100 1.368 . S
C1095 C1079 1.349 . S
C1095 H1087 0.950 . S
C1095 C1093 1.327 . S
C1096 C1084 1.349 . S
C1096 H1090 0.950 . S
C1096 C1097 1.327 . S
C1097 H1091 0.950 . S
C1097 C1096 1.327 . S
C1097 C1101 1.429 . S
C1098 C1081 1.574 1_565 S
C1098 H1092 0.949 . S
C1098 C1102 1.368 . S
C1099 C1080 1.429 . S
C1099 C1093 1.429 . S
C1099 C1100 1.523 . S
C1100 C1081 1.368 . S
C1100 C1094 1.368 . S
C1100 C1099 1.523 . S
C1101 C1085 1.429 . S
C1101 C1097 1.429 . S
C1101 C1102 1.523 . S
C1102 C1086 1.368 1_565 S
C1102 C1098 1.368 . S
C1102 C1101 1.523 . S
H1103 C1078 0.950 . S
H1104 C1080 0.950 . S
H1105 C1081 0.949 . S
H1106 C1083 0.950 . S
H1107 C1085 0.950 . S
C1108 C1109 1.349 . S
C1108 C1110 1.327 . S
C1108 H1133 0.950 . S
C1109 C1108 1.349 . S
C1109 C1125 1.349 . S
C1110 C1108 1.327 . S
C1110 C1129 1.429 . S
C1110 H1134 0.950 . S
C1111 C1128 1.574 . S
C1111 C1130 1.368 . S
C1111 H1135 0.949 . S
H1112 C1116 0.949 . S
C1113 C1114 1.349 . S
C1113 C1115 1.327 . S
C1113 H1136 0.950 . S
C1114 C1113 1.349 . S
C1114 C1126 1.349 . S
C1115 C1113 1.327 . S
C1115 C1131 1.429 . S
C1115 H1137 0.950 . S
C1116 H1112 0.949 . S
C1116 C1124 1.574 . S
C1116 C1132 1.368 . S
H1117 C1125 0.950 . S
H1118 C1123 0.950 . S
H1119 C1124 0.949 . S
H1120 C1126 0.950 . S
H1121 C1127 0.950 . S
H1122 C1128 0.949 . S
C1123 H1118 0.950 . S
C1123 C1125 1.327 . S
C1123 C1129 1.429 . S
C1124 C1116 1.574 . S
C1124 H1119 0.949 . S
C1124 C1130 1.368 . S
C1125 C1109 1.349 . S
C1125 H1117 0.950 . S
C1125 C1123 1.327 . S
C1126 C1114 1.349 . S
C1126 H1120 0.950 . S
C1126 C1127 1.327 . S
C1127 H1121 0.950 . S
C1127 C1126 1.327 . S
C1127 C1131 1.429 . S
C1128 C1111 1.574 . S
C1128 H1122 0.949 . S
C1128 C1132 1.368 . S
C1129 C1110 1.429 . S
C1129 C1123 1.429 . S
C1129 C1130 1.523 . S
C1130 C1111 1.368 . S
C1130 C1124 1.368 . S
C1130 C1129 1.523 . S
C1131 C1115 1.429 . S
C1131 C1127 1.429 . S
C1131 C1132 1.523 . S
C1132 C1116 1.368 . S
C1132 C1128 1.368 . S
C1132 C1131 1.523 . S
H1133 C1108 0.950 . S
H1134 C1110 0.950 . S
H1135 C1111 0.949 . S
H1136 C1113 0.950 . S
H1137 C1115 0.950 . S
C1138 C1139 1.349 . S
C1138 C1140 1.327 . S
C1138 H1163 0.950 . S
C1139 C1138 1.349 . S
C1139 C1155 1.349 . S
C1140 C1138 1.327 . S
C1140 C1159 1.429 . S
C1140 H1164 0.950 . S
C1141 C1158 1.574 1_565 S
C1141 C1160 1.368 . S
C1141 H1165 0.949 . S
H1142 C1146 0.949 1_545 S
C1143 C1144 1.349 . S
C1143 C1145 1.327 . S
C1143 H1166 0.950 . S
C1144 C1143 1.349 . S
C1144 C1156 1.349 . S
C1145 C1143 1.327 . S
C1145 C1161 1.429 . S
C1145 H1167 0.950 . S
C1146 H1142 0.949 1_565 S
C1146 C1154 1.574 . S
C1146 C1162 1.368 1_565 S
H1147 C1155 0.950 . S
H1148 C1153 0.950 . S
H1149 C1154 0.949 . S
H1150 C1156 0.950 . S
H1151 C1157 0.950 . S
H1152 C1158 0.949 . S
C1153 H1148 0.950 . S
C1153 C1155 1.327 . S
C1153 C1159 1.429 . S
C1154 C1146 1.574 . S
C1154 H1149 0.949 . S
C1154 C1160 1.368 . S
C1155 C1139 1.349 . S
C1155 H1147 0.950 . S
C1155 C1153 1.327 . S
C1156 C1144 1.349 . S
C1156 H1150 0.950 . S
C1156 C1157 1.327 . S
C1157 H1151 0.950 . S
C1157 C1156 1.327 . S
C1157 C1161 1.429 . S
C1158 C1141 1.574 1_545 S
C1158 H1152 0.949 . S
C1158 C1162 1.368 . S
C1159 C1140 1.429 . S
C1159 C1153 1.429 . S
C1159 C1160 1.523 . S
C1160 C1141 1.368 . S
C1160 C1154 1.368 . S
C1160 C1159 1.523 . S
C1161 C1145 1.429 . S
C1161 C1157 1.429 . S
C1161 C1162 1.523 . S
C1162 C1146 1.368 1_545 S
C1162 C1158 1.368 . S
C1162 C1161 1.523 . S
H1163 C1138 0.950 . S
H1164 C1140 0.950 . S
H1165 C1141 0.949 . S
H1166 C1143 0.950 . S
H1167 C1145 0.950 . S
C1168 C1169 1.349 . S
C1168 C1170 1.327 . S
C1168 H1193 0.950 . S
C1169 C1168 1.349 . S
C1169 C1185 1.349 . S
C1170 C1168 1.327 . S
C1170 C1189 1.429 . S
C1170 H1194 0.950 . S
C1171 C1188 1.574 . S
C1171 C1190 1.368 . S
C1171 H1195 0.949 . S
H1172 C1176 0.949 . S
C1173 C1174 1.349 . S
C1173 C1175 1.327 . S
C1173 H1196 0.950 . S
C1174 C1173 1.349 . S
C1174 C1186 1.349 . S
C1175 C1173 1.327 . S
C1175 C1191 1.429 . S
C1175 H1197 0.950 . S
C1176 H1172 0.949 . S
C1176 C1184 1.574 . S
C1176 C1192 1.368 . S
H1177 C1185 0.950 . S
H1178 C1183 0.950 . S
H1179 C1184 0.949 . S
H1180 C1186 0.950 . S
H1181 C1187 0.950 . S
H1182 C1188 0.949 . S
C1183 H1178 0.950 . S
C1183 C1185 1.327 . S
C1183 C1189 1.429 . S
C1184 C1176 1.574 . S
C1184 H1179 0.949 . S
C1184 C1190 1.368 . S
C1185 C1169 1.349 . S
C1185 H1177 0.950 . S
C1185 C1183 1.327 . S
C1186 C1174 1.349 . S
C1186 H1180 0.950 . S
C1186 C1187 1.327 . S
C1187 H1181 0.950 . S
C1187 C1186 1.327 . S
C1187 C1191 1.429 . S
C1188 C1171 1.574 . S
C1188 H1182 0.949 . S
C1188 C1192 1.368 . S
C1189 C1170 1.429 . S
C1189 C1183 1.429 . S
C1189 C1190 1.523 . S
C1190 C1171 1.368 . S
C1190 C1184 1.368 . S
C1190 C1189 1.523 . S
C1191 C1175 1.429 . S
C1191 C1187 1.429 . S
C1191 C1192 1.523 . S
C1192 C1176 1.368 . S
C1192 C1188 1.368 . S
C1192 C1191 1.523 . S
H1193 C1168 0.950 . S
H1194 C1170 0.950 . S
H1195 C1171 0.949 . S
H1196 C1173 0.950 . S
H1197 C1175 0.950 . S
C1198 C1199 1.349 . S
C1198 C1200 1.327 . S
C1198 H1223 0.950 . S
C1199 C1198 1.349 . S
C1199 C1215 1.349 . S
C1200 C1198 1.327 . S
C1200 C1219 1.429 . S
C1200 H1224 0.950 . S
C1201 C1218 1.574 . S
C1201 C1220 1.368 . S
C1201 H1225 0.949 . S
H1202 C1206 0.949 . S
C1203 C1204 1.349 . S
C1203 C1205 1.327 . S
C1203 H1226 0.950 . S
C1204 C1203 1.349 . S
C1204 C1216 1.349 . S
C1205 C1203 1.327 . S
C1205 C1221 1.429 . S
C1205 H1227 0.950 . S
C1206 H1202 0.949 . S
C1206 C1214 1.574 . S
C1206 C1222 1.368 . S
H1207 C1215 0.950 . S
H1208 C1213 0.950 . S
H1209 C1214 0.949 . S
H1210 C1216 0.950 . S
H1211 C1217 0.950 . S
H1212 C1218 0.949 . S
C1213 H1208 0.950 . S
C1213 C1215 1.327 . S
C1213 C1219 1.429 . S
C1214 C1206 1.574 . S
C1214 H1209 0.949 . S
C1214 C1220 1.368 . S
C1215 C1199 1.349 . S
C1215 H1207 0.950 . S
C1215 C1213 1.327 . S
C1216 C1204 1.349 . S
C1216 H1210 0.950 . S
C1216 C1217 1.327 . S
C1217 H1211 0.950 . S
C1217 C1216 1.327 . S
C1217 C1221 1.429 . S
C1218 C1201 1.574 . S
C1218 H1212 0.949 . S
C1218 C1222 1.368 . S
C1219 C1200 1.429 . S
C1219 C1213 1.429 . S
C1219 C1220 1.523 . S
C1220 C1201 1.368 . S
C1220 C1214 1.368 . S
C1220 C1219 1.523 . S
C1221 C1205 1.429 . S
C1221 C1217 1.429 . S
C1221 C1222 1.523 . S
C1222 C1206 1.368 . S
C1222 C1218 1.368 . S
C1222 C1221 1.523 . S
H1223 C1198 0.950 . S
H1224 C1200 0.950 . S
H1225 C1201 0.949 . S
H1226 C1203 0.950 . S
H1227 C1205 0.950 . S
C1228 C1229 1.349 . S
C1228 C1230 1.327 . S
C1228 H1253 0.950 . S
C1229 C1228 1.349 . S
C1229 C1245 1.349 . S
C1230 C1228 1.327 . S
C1230 C1249 1.429 . S
C1230 H1254 0.950 . S
C1231 C1248 1.574 . S
C1231 C1250 1.368 . S
C1231 H1255 0.949 . S
H1232 C1236 0.949 . S
C1233 C1234 1.349 . S
C1233 C1235 1.327 . S
C1233 H1256 0.950 . S
C1234 C1233 1.349 . S
C1234 C1246 1.349 . S
C1235 C1233 1.327 . S
C1235 C1251 1.429 . S
C1235 H1257 0.950 . S
C1236 H1232 0.949 . S
C1236 C1244 1.574 1_655 S
C1236 C1252 1.368 . S
H1237 C1245 0.950 . S
H1238 C1243 0.950 . S
H1239 C1244 0.949 . S
H1240 C1246 0.950 . S
H1241 C1247 0.950 . S
H1242 C1248 0.949 . S
C1243 H1238 0.950 . S
C1243 C1245 1.327 . S
C1243 C1249 1.429 . S
C1244 C1236 1.574 1_455 S
C1244 H1239 0.949 . S
C1244 C1250 1.368 . S
C1245 C1229 1.349 . S
C1245 H1237 0.950 . S
C1245 C1243 1.327 . S
C1246 C1234 1.349 . S
C1246 H1240 0.950 . S
C1246 C1247 1.327 . S
C1247 H1241 0.950 . S
C1247 C1246 1.327 . S
C1247 C1251 1.429 . S
C1248 C1231 1.574 . S
C1248 H1242 0.949 . S
C1248 C1252 1.368 1_455 S
C1249 C1230 1.429 . S
C1249 C1243 1.429 . S
C1249 C1250 1.523 . S
C1250 C1231 1.368 . S
C1250 C1244 1.368 . S
C1250 C1249 1.523 . S
C1251 C1235 1.429 . S
C1251 C1247 1.429 . S
C1251 C1252 1.523 . S
C1252 C1236 1.368 . S
C1252 C1248 1.368 1_655 S
C1252 C1251 1.523 . S
H1253 C1228 0.950 . S
H1254 C1230 0.950 . S
H1255 C1231 0.949 . S
H1256 C1233 0.950 . S
H1257 C1235 0.950 . S
C1258 C1259 1.349 . S
C1258 C1260 1.327 . S
C1258 H1283 0.950 . S
C1259 C1258 1.349 . S
C1259 C1275 1.349 . S
C1260 C1258 1.327 . S
C1260 C1279 1.429 . S
C1260 H1284 0.950 . S
C1261 C1278 1.574 . S
C1261 C1280 1.368 . S
C1261 H1285 0.949 . S
H1262 C1266 0.949 . S
C1263 C1264 1.349 . S
C1263 C1265 1.327 . S
C1263 H1286 0.950 . S
C1264 C1263 1.349 . S
C1264 C1276 1.349 . S
C1265 C1263 1.327 . S
C1265 C1281 1.429 . S
C1265 H1287 0.950 . S
C1266 H1262 0.949 . S
C1266 C1274 1.574 . S
C1266 C1282 1.368 . S
H1267 C1275 0.950 . S
H1268 C1273 0.950 . S
H1269 C1274 0.949 . S
H1270 C1276 0.950 . S
H1271 C1277 0.950 . S
H1272 C1278 0.949 . S
C1273 H1268 0.950 . S
C1273 C1275 1.327 . S
C1273 C1279 1.429 . S
C1274 C1266 1.574 . S
C1274 H1269 0.949 . S
C1274 C1280 1.368 . S
C1275 C1259 1.349 . S
C1275 H1267 0.950 . S
C1275 C1273 1.327 . S
C1276 C1264 1.349 . S
C1276 H1270 0.950 . S
C1276 C1277 1.327 . S
C1277 H1271 0.950 . S
C1277 C1276 1.327 . S
C1277 C1281 1.429 . S
C1278 C1261 1.574 . S
C1278 H1272 0.949 . S
C1278 C1282 1.368 . S
C1279 C1260 1.429 . S
C1279 C1273 1.429 . S
C1279 C1280 1.523 . S
C1280 C1261 1.368 . S
C1280 C1274 1.368 . S
C1280 C1279 1.523 . S
C1281 C1265 1.429 . S
C1281 C1277 1.429 . S
C1281 C1282 1.523 . S
C1282 C1266 1.368 . S
C1282 C1278 1.368 . S
C1282 C1281 1.523 . S
H1283 C1258 0.950 . S
H1284 C1260 0.950 . S
H1285 C1261 0.949 . S
H1286 C1263 0.950 . S
H1287 C1265 0.950 . S
C1288 C1289 1.349 . S
C1288 C1290 1.327 . S
C1288 H1313 0.950 . S
C1289 C1288 1.349 . S
C1289 C1305 1.349 . S
C1290 C1288 1.327 . S
C1290 C1309 1.429 . S
C1290 H1314 0.950 . S
C1291 C1308 1.574 . S
C1291 C1310 1.368 . S
C1291 H1315 0.949 . S
H1292 C1296 0.949 . S
C1293 C1294 1.349 . S
C1293 C1295 1.327 . S
C1293 H1316 0.950 . S
C1294 C1293 1.349 . S
C1294 C1306 1.349 . S
C1295 C1293 1.327 . S
C1295 C1311 1.429 . S
C1295 H1317 0.950 . S
C1296 H1292 0.949 . S
C1296 C1304 1.574 1_455 S
C1296 C1312 1.368 . S
H1297 C1305 0.950 . S
H1298 C1303 0.950 . S
H1299 C1304 0.949 . S
H1300 C1306 0.950 . S
H1301 C1307 0.950 . S
H1302 C1308 0.949 . S
C1303 H1298 0.950 . S
C1303 C1305 1.327 . S
C1303 C1309 1.429 . S
C1304 C1296 1.574 1_655 S
C1304 H1299 0.949 . S
C1304 C1310 1.368 . S
C1305 C1289 1.349 . S
C1305 H1297 0.950 . S
C1305 C1303 1.327 . S
C1306 C1294 1.349 . S
C1306 H1300 0.950 . S
C1306 C1307 1.327 . S
C1307 H1301 0.950 . S
C1307 C1306 1.327 . S
C1307 C1311 1.429 . S
C1308 C1291 1.574 . S
C1308 H1302 0.949 . S
C1308 C1312 1.368 1_655 S
C1309 C1290 1.429 . S
C1309 C1303 1.429 . S
C1309 C1310 1.523 . S
C1310 C1291 1.368 . S
C1310 C1304 1.368 . S
C1310 C1309 1.523 . S
C1311 C1295 1.429 . S
C1311 C1307 1.429 . S
C1311 C1312 1.523 . S
C1312 C1296 1.368 . S
C1312 C1308 1.368 1_455 S
C1312 C1311 1.523 . S
H1313 C1288 0.950 . S
H1314 C1290 0.950 . S
H1315 C1291 0.949 . S
H1316 C1293 0.950 . S
H1317 C1295 0.950 . S
C1318 C1319 1.349 . S
C1318 C1320 1.327 . S
C1318 H1343 0.950 . S
C1319 C1318 1.349 . S
C1319 C1335 1.349 . S
C1320 C1318 1.327 . S
C1320 C1339 1.429 . S
C1320 H1344 0.950 . S
C1321 C1338 1.574 . S
C1321 C1340 1.368 . S
C1321 H1345 0.949 . S
H1322 C1326 0.949 . S
C1323 C1324 1.349 . S
C1323 C1325 1.327 . S
C1323 H1346 0.950 . S
C1324 C1323 1.349 . S
C1324 C1336 1.349 . S
C1325 C1323 1.327 . S
C1325 C1341 1.429 . S
C1325 H1347 0.950 . S
C1326 H1322 0.949 . S
C1326 C1334 1.574 . S
C1326 C1342 1.368 . S
H1327 C1335 0.950 . S
H1328 C1333 0.950 . S
H1329 C1334 0.949 . S
H1330 C1336 0.950 . S
H1331 C1337 0.950 . S
H1332 C1338 0.949 . S
C1333 H1328 0.950 . S
C1333 C1335 1.327 . S
C1333 C1339 1.429 . S
C1334 C1326 1.574 . S
C1334 H1329 0.949 . S
C1334 C1340 1.368 . S
C1335 C1319 1.349 . S
C1335 H1327 0.950 . S
C1335 C1333 1.327 . S
C1336 C1324 1.349 . S
C1336 H1330 0.950 . S
C1336 C1337 1.327 . S
C1337 H1331 0.950 . S
C1337 C1336 1.327 . S
C1337 C1341 1.429 . S
C1338 C1321 1.574 . S
C1338 H1332 0.949 . S
C1338 C1342 1.368 . S
C1339 C1320 1.429 . S
C1339 C1333 1.429 . S
C1339 C1340 1.523 . S
C1340 C1321 1.368 . S
C1340 C1334 1.368 . S
C1340 C1339 1.523 . S
C1341 C1325 1.429 . S
C1341 C1337 1.429 . S
C1341 C1342 1.523 . S
C1342 C1326 1.368 . S
C1342 C1338 1.368 . S
C1342 C1341 1.523 . S
H1343 C1318 0.950 . S
H1344 C1320 0.950 . S
H1345 C1321 0.949 . S
H1346 C1323 0.950 . S
H1347 C1325 0.950 . S
C1348 C1349 1.349 . S
C1348 C1350 1.327 . S
C1348 H1373 0.950 . S
C1349 C1348 1.349 . S
C1349 C1365 1.349 . S
C1350 C1348 1.327 . S
C1350 C1369 1.429 . S
C1350 H1374 0.950 . S
C1351 C1368 1.574 . S
C1351 C1370 1.368 . S
C1351 H1375 0.949 . S
H1352 C1356 0.949 . S
C1353 C1354 1.349 . S
C1353 C1355 1.327 . S
C1353 H1376 0.950 . S
C1354 C1353 1.349 . S
C1354 C1366 1.349 . S
C1355 C1353 1.327 . S
C1355 C1371 1.429 . S
C1355 H1377 0.950 . S
C1356 H1352 0.949 . S
C1356 C1364 1.574 1_655 S
C1356 C1372 1.368 . S
H1357 C1365 0.950 . S
H1358 C1363 0.950 . S
H1359 C1364 0.949 . S
H1360 C1366 0.950 . S
H1361 C1367 0.950 . S
H1362 C1368 0.966 . S
C1363 H1358 0.950 . S
C1363 C1365 1.327 . S
C1363 C1369 1.429 . S
C1364 C1356 1.574 1_455 S
C1364 H1359 0.949 . S
C1364 C1370 1.368 . S
C1365 C1349 1.349 . S
C1365 H1357 0.950 . S
C1365 C1363 1.327 . S
C1366 C1354 1.349 . S
C1366 H1360 0.950 . S
C1366 C1367 1.327 . S
C1367 H1361 0.950 . S
C1367 C1366 1.327 . S
C1367 C1371 1.429 . S
C1368 C1351 1.574 . S
C1368 H1362 0.966 . S
C1368 C1372 1.368 1_455 S
C1369 C1350 1.429 . S
C1369 C1363 1.429 . S
C1369 C1370 1.523 . S
C1370 C1351 1.368 . S
C1370 C1364 1.368 . S
C1370 C1369 1.523 . S
C1371 C1355 1.429 . S
C1371 C1367 1.429 . S
C1371 C1372 1.523 . S
C1372 C1356 1.368 . S
C1372 C1368 1.368 1_655 S
C1372 C1371 1.523 . S
H1373 C1348 0.950 . S
H1374 C1350 0.950 . S
H1375 C1351 0.949 . S
H1376 C1353 0.950 . S
H1377 C1355 0.950 . S
C1378 C1379 1.349 . S
C1378 C1380 1.327 . S
C1378 H1403 0.950 . S
C1379 C1378 1.349 . S
C1379 C1395 1.349 . S
C1380 C1378 1.327 . S
C1380 C1399 1.429 . S
C1380 H1404 0.950 . S
C1381 C1398 1.574 . S
C1381 C1400 1.368 . S
C1381 H1405 0.949 . S
H1382 C1386 0.949 . S
C1383 C1384 1.349 . S
C1383 C1385 1.327 . S
C1383 H1406 0.950 . S
C1384 C1383 1.349 . S
C1384 C1396 1.349 . S
C1385 C1383 1.327 . S
C1385 C1401 1.429 . S
C1385 H1407 0.950 . S
C1386 H1382 0.949 . S
C1386 C1394 1.574 . S
C1386 C1402 1.368 . S
H1387 C1395 0.950 . S
H1388 C1393 0.950 . S
H1389 C1394 0.949 . S
H1390 C1396 0.950 . S
H1391 C1397 0.950 . S
H1392 C1398 0.949 . S
C1393 H1388 0.950 . S
C1393 C1395 1.327 . S
C1393 C1399 1.429 . S
C1394 C1386 1.574 . S
C1394 H1389 0.949 . S
C1394 C1400 1.368 . S
C1395 C1379 1.349 . S
C1395 H1387 0.950 . S
C1395 C1393 1.327 . S
C1396 C1384 1.349 . S
C1396 H1390 0.950 . S
C1396 C1397 1.327 . S
C1397 H1391 0.950 . S
C1397 C1396 1.327 . S
C1397 C1401 1.429 . S
C1398 C1381 1.574 . S
C1398 H1392 0.949 . S
C1398 C1402 1.368 . S
C1399 C1380 1.429 . S
C1399 C1393 1.429 . S
C1399 C1400 1.523 . S
C1400 C1381 1.368 . S
C1400 C1394 1.368 . S
C1400 C1399 1.523 . S
C1401 C1385 1.429 . S
C1401 C1397 1.429 . S
C1401 C1402 1.523 . S
C1402 C1386 1.368 . S
C1402 C1398 1.368 . S
C1402 C1401 1.523 . S
H1403 C1378 0.950 . S
H1404 C1380 0.950 . S
H1405 C1381 0.949 . S
H1406 C1383 0.950 . S
H1407 C1385 0.950 . S
C1408 C1409 1.349 . S
C1408 C1410 1.327 . S
C1408 H1433 0.950 . S
C1409 C1408 1.349 . S
C1409 C1425 1.349 . S
C1410 C1408 1.327 . S
C1410 C1429 1.429 . S
C1410 H1434 0.950 . S
C1411 C1428 1.574 . S
C1411 C1430 1.368 . S
C1411 H1435 0.949 . S
H1412 C1416 0.949 . S
C1413 C1414 1.349 . S
C1413 C1415 1.327 . S
C1413 H1436 0.950 . S
C1414 C1413 1.349 . S
C1414 C1426 1.349 . S
C1415 C1413 1.327 . S
C1415 C1431 1.429 . S
C1415 H1437 0.950 . S
C1416 H1412 0.949 . S
C1416 C1424 1.574 . S
C1416 C1432 1.368 . S
H1417 C1425 0.950 . S
H1418 C1423 0.950 . S
H1419 C1424 0.949 . S
H1420 C1426 0.950 . S
H1421 C1427 0.950 . S
H1422 C1428 0.949 . S
C1423 H1418 0.950 . S
C1423 C1425 1.327 . S
C1423 C1429 1.429 . S
C1424 C1416 1.574 . S
C1424 H1419 0.949 . S
C1424 C1430 1.368 . S
C1425 C1409 1.349 . S
C1425 H1417 0.950 . S
C1425 C1423 1.327 . S
C1426 C1414 1.349 . S
C1426 H1420 0.950 . S
C1426 C1427 1.327 . S
C1427 H1421 0.950 . S
C1427 C1426 1.327 . S
C1427 C1431 1.429 . S
C1428 C1411 1.574 . S
C1428 H1422 0.949 . S
C1428 C1432 1.368 . S
C1429 C1410 1.429 . S
C1429 C1423 1.429 . S
C1429 C1430 1.523 . S
C1430 C1411 1.368 . S
C1430 C1424 1.368 . S
C1430 C1429 1.523 . S
C1431 C1415 1.429 . S
C1431 C1427 1.429 . S
C1431 C1432 1.523 . S
C1432 C1416 1.368 . S
C1432 C1428 1.368 . S
C1432 C1431 1.523 . S
H1433 C1408 0.950 . S
H1434 C1410 0.950 . S
H1435 C1411 0.949 . S
H1436 C1413 0.950 . S
H1437 C1415 0.950 . S
C1438 C1439 1.349 . S
C1438 C1440 1.327 . S
C1438 H1463 0.950 1_655 S
C1439 C1438 1.349 . S
C1439 C1455 1.349 . S
C1440 C1438 1.327 . S
C1440 C1459 1.429 . S
C1440 H1464 0.950 . S
C1441 C1458 1.574 . S
C1441 C1460 1.368 . S
C1441 H1465 0.949 . S
H1442 C1446 0.949 . S
C1443 C1444 1.349 . S
C1443 C1445 1.327 . S
C1443 H1466 0.950 . S
C1444 C1443 1.349 . S
C1444 C1456 1.349 . S
C1445 C1443 1.327 . S
C1445 C1461 1.429 . S
C1445 H1467 0.950 . S
C1446 H1442 0.949 . S
C1446 C1454 1.574 . S
C1446 C1462 1.368 . S
H1447 C1455 0.950 . S
H1448 C1453 0.950 . S
H1449 C1454 0.949 . S
H1450 C1456 0.950 . S
H1451 C1457 0.950 . S
H1452 C1458 0.949 . S
C1453 H1448 0.950 . S
C1453 C1455 1.327 . S
C1453 C1459 1.429 . S
C1454 C1446 1.574 . S
C1454 H1449 0.949 . S
C1454 C1460 1.368 . S
C1455 C1439 1.349 . S
C1455 H1447 0.950 . S
C1455 C1453 1.327 . S
C1456 C1444 1.349 . S
C1456 H1450 0.950 . S
C1456 C1457 1.327 . S
C1457 H1451 0.950 . S
C1457 C1456 1.327 . S
C1457 C1461 1.429 . S
C1458 C1441 1.574 . S
C1458 H1452 0.949 . S
C1458 C1462 1.368 . S
C1459 C1440 1.429 . S
C1459 C1453 1.429 . S
C1459 C1460 1.523 . S
C1460 C1441 1.368 . S
C1460 C1454 1.368 . S
C1460 C1459 1.523 . S
C1461 C1445 1.429 . S
C1461 C1457 1.429 . S
C1461 C1462 1.523 . S
C1462 C1446 1.368 . S
C1462 C1458 1.368 . S
C1462 C1461 1.523 . S
H1463 C1438 0.950 1_455 S
H1464 C1440 0.950 . S
H1465 C1441 0.949 . S
H1466 C1443 0.950 . S
H1467 C1445 0.950 . S
C1468 C1469 1.349 . S
C1468 C1470 1.327 . S
C1468 H1493 0.950 . S
C1469 C1468 1.349 . S
C1469 C1485 1.349 . S
C1470 C1468 1.327 . S
C1470 C1489 1.429 . S
C1470 H1494 0.950 . S
C1471 C1488 1.574 . S
C1471 C1490 1.368 . S
C1471 H1495 0.949 . S
H1472 C1476 0.949 . S
C1473 C1474 1.349 . S
C1473 C1475 1.327 . S
C1473 H1496 0.950 . S
C1474 C1473 1.349 . S
C1474 C1486 1.349 . S
C1475 C1473 1.327 . S
C1475 C1491 1.429 . S
C1475 H1497 0.950 . S
C1476 H1472 0.949 . S
C1476 C1484 1.574 . S
C1476 C1492 1.368 . S
H1477 C1485 0.950 . S
H1478 C1483 0.950 . S
H1479 C1484 0.949 . S
H1480 C1486 0.950 . S
H1481 C1487 0.950 . S
H1482 C1488 0.949 . S
C1483 H1478 0.950 . S
C1483 C1485 1.327 . S
C1483 C1489 1.429 . S
C1484 C1476 1.574 . S
C1484 H1479 0.949 . S
C1484 C1490 1.368 . S
C1485 C1469 1.349 . S
C1485 H1477 0.950 . S
C1485 C1483 1.327 . S
C1486 C1474 1.349 . S
C1486 H1480 0.950 . S
C1486 C1487 1.327 . S
C1487 H1481 0.950 . S
C1487 C1486 1.327 . S
C1487 C1491 1.429 . S
C1488 C1471 1.574 . S
C1488 H1482 0.949 . S
C1488 C1492 1.368 . S
C1489 C1470 1.429 . S
C1489 C1483 1.429 . S
C1489 C1490 1.523 . S
C1490 C1471 1.368 . S
C1490 C1484 1.368 . S
C1490 C1489 1.523 . S
C1491 C1475 1.429 . S
C1491 C1487 1.429 . S
C1491 C1492 1.523 . S
C1492 C1476 1.368 . S
C1492 C1488 1.368 . S
C1492 C1491 1.523 . S
H1493 C1468 0.950 . S
H1494 C1470 0.950 . S
H1495 C1471 0.949 . S
H1496 C1473 0.950 . S
H1497 C1475 0.950 . S
C1498 C1499 1.349 . S
C1498 C1500 1.327 . S
C1498 H1523 0.950 . S
C1499 C1498 1.349 . S
C1499 C1515 1.349 . S
C1500 C1498 1.327 . S
C1500 C1519 1.429 . S
C1500 H1524 0.950 . S
C1501 C1518 1.574 . S
C1501 C1520 1.368 . S
C1501 H1525 0.949 . S
H1502 C1506 0.949 1_554 S
C1503 C1504 1.349 . S
C1503 C1505 1.327 . S
C1503 H1526 0.950 . S
C1504 C1503 1.349 . S
C1504 C1516 1.349 . S
C1505 C1503 1.327 . S
C1505 C1521 1.429 . S
C1505 H1527 0.950 . S
C1506 H1502 0.949 1_556 S
C1506 C1514 1.574 . S
C1506 C1522 1.368 1_556 S
H1507 C1515 0.950 . S
H1508 C1513 0.950 . S
H1509 C1514 0.949 . S
H1510 C1516 0.950 . S
H1511 C1517 0.950 . S
H1512 C1518 0.949 1_554 S
C1513 H1508 0.950 . S
C1513 C1515 1.327 . S
C1513 C1519 1.429 . S
C1514 C1506 1.574 . S
C1514 H1509 0.949 . S
C1514 C1520 1.368 . S
C1515 C1499 1.349 . S
C1515 H1507 0.950 . S
C1515 C1513 1.327 . S
C1516 C1504 1.349 . S
C1516 H1510 0.950 . S
C1516 C1517 1.327 . S
C1517 H1511 0.950 . S
C1517 C1516 1.327 . S
C1517 C1521 1.429 . S
C1518 C1501 1.574 . S
C1518 H1512 0.949 1_556 S
C1518 C1522 1.368 1_556 S
C1519 C1500 1.429 . S
C1519 C1513 1.429 . S
C1519 C1520 1.523 . S
C1520 C1501 1.368 . S
C1520 C1514 1.368 . S
C1520 C1519 1.523 . S
C1521 C1505 1.429 . S
C1521 C1517 1.429 . S
C1521 C1522 1.523 . S
C1522 C1506 1.368 1_554 S
C1522 C1518 1.368 1_554 S
C1522 C1521 1.523 . S
H1523 C1498 0.950 . S
H1524 C1500 0.950 . S
H1525 C1501 0.949 . S
H1526 C1503 0.950 . S
H1527 C1505 0.950 . S
C1528 C1529 1.349 . S
C1528 C1530 1.327 . S
C1528 H1553 0.950 . S
C1529 C1528 1.349 . S
C1529 C1545 1.349 . S
C1530 C1528 1.327 . S
C1530 C1549 1.429 . S
C1530 H1554 0.950 . S
C1531 C1548 1.574 . S
C1531 C1550 1.368 . S
C1531 H1555 0.949 . S
H1532 C1536 0.949 . S
C1533 C1534 1.349 . S
C1533 C1535 1.327 . S
C1533 H1556 0.950 . S
C1534 C1533 1.349 . S
C1534 C1546 1.349 . S
C1535 C1533 1.327 . S
C1535 C1551 1.429 . S
C1535 H1557 0.950 . S
C1536 H1532 0.949 . S
C1536 C1544 1.574 . S
C1536 C1552 1.368 . S
H1537 C1545 0.950 . S
H1538 C1543 0.950 . S
H1539 C1544 0.949 . S
H1540 C1546 0.950 . S
H1541 C1547 0.950 . S
H1542 C1548 0.949 . S
C1543 H1538 0.950 . S
C1543 C1545 1.327 . S
C1543 C1549 1.429 . S
C1544 C1536 1.574 . S
C1544 H1539 0.949 . S
C1544 C1550 1.368 . S
C1545 C1529 1.349 . S
C1545 H1537 0.950 . S
C1545 C1543 1.327 . S
C1546 C1534 1.349 . S
C1546 H1540 0.950 . S
C1546 C1547 1.327 . S
C1547 H1541 0.950 . S
C1547 C1546 1.327 . S
C1547 C1551 1.429 . S
C1548 C1531 1.574 . S
C1548 H1542 0.949 . S
C1548 C1552 1.368 . S
C1549 C1530 1.429 . S
C1549 C1543 1.429 . S
C1549 C1550 1.523 . S
C1550 C1531 1.368 . S
C1550 C1544 1.368 . S
C1550 C1549 1.523 . S
C1551 C1535 1.429 . S
C1551 C1547 1.429 . S
C1551 C1552 1.523 . S
C1552 C1536 1.368 . S
C1552 C1548 1.368 . S
C1552 C1551 1.523 . S
H1553 C1528 0.950 . S
H1554 C1530 0.950 . S
H1555 C1531 0.949 . S
H1556 C1533 0.950 . S
H1557 C1535 0.950 . S
C1558 C1559 1.349 . S
C1558 C1560 1.327 . S
C1558 H1583 0.950 . S
C1559 C1558 1.349 . S
C1559 C1575 1.349 . S
C1560 C1558 1.327 . S
C1560 C1579 1.429 . S
C1560 H1584 0.950 . S
C1561 C1578 1.574 . S
C1561 C1580 1.368 . S
C1561 H1585 0.949 . S
H1562 C1566 0.949 . S
C1563 C1564 1.349 . S
C1563 C1565 1.327 . S
C1563 H1586 0.950 . S
C1564 C1563 1.349 . S
C1564 C1576 1.349 . S
C1565 C1563 1.327 . S
C1565 C1581 1.429 . S
C1565 H1587 0.950 . S
C1566 H1562 0.949 . S
C1566 C1574 1.574 . S
C1566 C1582 1.368 . S
H1567 C1575 0.950 . S
H1568 C1573 0.950 . S
H1569 C1574 0.949 . S
H1570 C1576 0.950 . S
H1571 C1577 0.950 . S
H1572 C1578 0.949 . S
C1573 H1568 0.950 . S
C1573 C1575 1.327 . S
C1573 C1579 1.429 . S
C1574 C1566 1.574 . S
C1574 H1569 0.949 . S
C1574 C1580 1.368 . S
C1575 C1559 1.349 . S
C1575 H1567 0.950 . S
C1575 C1573 1.327 . S
C1576 C1564 1.349 . S
C1576 H1570 0.950 . S
C1576 C1577 1.327 . S
C1577 H1571 0.950 . S
C1577 C1576 1.327 . S
C1577 C1581 1.429 . S
C1578 C1561 1.574 . S
C1578 H1572 0.949 . S
C1578 C1582 1.368 . S
C1579 C1560 1.429 . S
C1579 C1573 1.429 . S
C1579 C1580 1.523 . S
C1580 C1561 1.368 . S
C1580 C1574 1.368 . S
C1580 C1579 1.523 . S
C1581 C1565 1.429 . S
C1581 C1577 1.429 . S
C1581 C1582 1.523 . S
C1582 C1566 1.368 . S
C1582 C1578 1.368 . S
C1582 C1581 1.523 . S
H1583 C1558 0.950 . S
H1584 C1560 0.950 . S
H1585 C1561 0.949 . S
H1586 C1563 0.950 . S
H1587 C1565 0.950 . S
C1588 C1589 1.349 . S
C1588 C1590 1.327 . S
C1588 H1613 0.950 . S
C1589 C1588 1.349 . S
C1589 C1605 1.349 . S
C1590 C1588 1.327 . S
C1590 C1609 1.429 . S
C1590 H1614 0.950 . S
C1591 C1608 1.574 . S
C1591 C1610 1.368 . S
C1591 H1615 0.949 . S
H1592 C1596 0.949 . S
C1593 C1594 1.349 . S
C1593 C1595 1.327 . S
C1593 H1616 0.950 . S
C1594 C1593 1.349 . S
C1594 C1606 1.349 . S
C1595 C1593 1.327 . S
C1595 C1611 1.429 . S
C1595 H1617 0.950 . S
C1596 H1592 0.949 . S
C1596 C1604 1.574 . S
C1596 C1612 1.368 . S
H1597 C1605 0.950 . S
H1598 C1603 0.950 . S
H1599 C1604 0.949 . S
H1600 C1606 0.950 . S
H1601 C1607 0.950 . S
H1602 C1608 0.949 . S
C1603 H1598 0.950 . S
C1603 C1605 1.327 . S
C1603 C1609 1.429 . S
C1604 C1596 1.574 . S
C1604 H1599 0.949 . S
C1604 C1610 1.368 . S
C1605 C1589 1.349 . S
C1605 H1597 0.950 . S
C1605 C1603 1.327 . S
C1606 C1594 1.349 . S
C1606 H1600 0.950 . S
C1606 C1607 1.327 . S
C1607 H1601 0.950 . S
C1607 C1606 1.327 . S
C1607 C1611 1.429 . S
C1608 C1591 1.574 . S
C1608 H1602 0.949 . S
C1608 C1612 1.368 . S
C1609 C1590 1.429 . S
C1609 C1603 1.429 . S
C1609 C1610 1.523 . S
C1610 C1591 1.368 . S
C1610 C1604 1.368 . S
C1610 C1609 1.523 . S
C1611 C1595 1.429 . S
C1611 C1607 1.429 . S
C1611 C1612 1.523 . S
C1612 C1596 1.368 . S
C1612 C1608 1.368 . S
C1612 C1611 1.523 . S
H1613 C1588 0.950 . S
H1614 C1590 0.950 . S
H1615 C1591 0.949 . S
H1616 C1593 0.950 . S
H1617 C1595 0.950 . S
C1618 C1619 1.349 . S
C1618 C1620 1.327 . S
C1618 H1643 0.950 . S
C1619 C1618 1.349 . S
C1619 C1635 1.349 . S
C1620 C1618 1.327 . S
C1620 C1639 1.429 . S
C1620 H1644 0.950 . S
C1621 C1638 1.574 . S
C1621 C1640 1.368 . S
C1621 H1645 0.949 . S
H1622 C1626 0.965 . S
C1623 C1624 1.349 . S
C1623 C1625 1.327 . S
C1623 H1646 0.950 . S
C1624 C1623 1.349 . S
C1624 C1636 1.349 . S
C1625 C1623 1.327 . S
C1625 C1641 1.429 . S
C1625 H1647 0.950 . S
C1626 H1622 0.965 . S
C1626 C1634 1.551 1_556 S
C1626 C1642 1.374 . S
H1627 C1635 0.950 . S
H1628 C1633 0.950 . S
H1629 C1634 0.949 . S
H1630 C1636 0.950 . S
H1631 C1637 0.950 . S
H1632 C1638 0.959 . S
C1633 H1628 0.950 . S
C1633 C1635 1.327 . S
C1633 C1639 1.429 . S
C1634 C1626 1.551 1_554 S
C1634 H1629 0.949 . S
C1634 C1640 1.368 . S
C1635 C1619 1.349 . S
C1635 H1627 0.950 . S
C1635 C1633 1.327 . S
C1636 C1624 1.349 . S
C1636 H1630 0.950 . S
C1636 C1637 1.327 . S
C1637 H1631 0.950 . S
C1637 C1636 1.327 . S
C1637 C1641 1.429 . S
C1638 C1621 1.574 . S
C1638 H1632 0.959 . S
C1638 C1642 1.368 1_554 S
C1639 C1620 1.429 . S
C1639 C1633 1.429 . S
C1639 C1640 1.523 . S
C1640 C1621 1.368 . S
C1640 C1634 1.368 . S
C1640 C1639 1.523 . S
C1641 C1625 1.429 . S
C1641 C1637 1.429 . S
C1641 C1642 1.523 . S
C1642 C1626 1.374 . S
C1642 C1638 1.368 1_556 S
C1642 C1641 1.523 . S
H1643 C1618 0.950 . S
H1644 C1620 0.950 . S
H1645 C1621 0.949 . S
H1646 C1623 0.950 . S
H1647 C1625 0.950 . S
C1648 C1649 1.349 . S
C1648 C1650 1.327 . S
C1648 H1673 0.950 . S
C1649 C1648 1.349 . S
C1649 C1665 1.349 . S
C1650 C1648 1.327 . S
C1650 C1669 1.429 . S
C1650 H1674 0.950 . S
C1651 C1668 1.574 . S
C1651 C1670 1.368 . S
C1651 H1675 0.949 . S
H1652 C1656 0.949 . S
C1653 C1654 1.349 . S
C1653 C1655 1.327 . S
C1653 H1676 0.950 . S
C1654 C1653 1.349 . S
C1654 C1666 1.349 . S
C1655 C1653 1.327 . S
C1655 C1671 1.429 . S
C1655 H1677 0.950 . S
C1656 H1652 0.949 . S
C1656 C1664 1.574 . S
C1656 C1672 1.368 . S
H1657 C1665 0.950 . S
H1658 C1663 0.950 . S
H1659 C1664 0.949 . S
H1660 C1666 0.950 . S
H1661 C1667 0.950 . S
H1662 C1668 0.949 . S
C1663 H1658 0.950 . S
C1663 C1665 1.327 . S
C1663 C1669 1.429 . S
C1664 C1656 1.574 . S
C1664 H1659 0.949 . S
C1664 C1670 1.368 . S
C1665 C1649 1.349 . S
C1665 H1657 0.950 . S
C1665 C1663 1.327 . S
C1666 C1654 1.349 . S
C1666 H1660 0.950 . S
C1666 C1667 1.327 . S
C1667 H1661 0.950 . S
C1667 C1666 1.327 . S
C1667 C1671 1.429 . S
C1668 C1651 1.574 . S
C1668 H1662 0.949 . S
C1668 C1672 1.368 . S
C1669 C1650 1.429 . S
C1669 C1663 1.429 . S
C1669 C1670 1.523 . S
C1670 C1651 1.368 . S
C1670 C1664 1.368 . S
C1670 C1669 1.523 . S
C1671 C1655 1.429 . S
C1671 C1667 1.429 . S
C1671 C1672 1.523 . S
C1672 C1656 1.368 . S
C1672 C1668 1.368 . S
C1672 C1671 1.523 . S
H1673 C1648 0.950 . S
H1674 C1650 0.950 . S
H1675 C1651 0.949 . S
H1676 C1653 0.950 . S
H1677 C1655 0.950 . S
C1678 C1679 1.349 . S
C1678 C1680 1.327 . S
C1678 H1703 0.950 . S
C1679 C1678 1.349 . S
C1679 C1695 1.349 . S
C1680 C1678 1.327 . S
C1680 C1699 1.429 . S
C1680 H1704 0.950 . S
C1681 C1698 1.574 . S
C1681 C1700 1.368 . S
C1681 H1705 0.949 . S
H1682 C1686 0.949 . S
C1683 C1684 1.349 . S
C1683 C1685 1.327 . S
C1683 H1706 0.950 . S
C1684 C1683 1.349 . S
C1684 C1696 1.349 . S
C1685 C1683 1.327 . S
C1685 C1701 1.429 . S
C1685 H1707 0.950 . S
C1686 H1682 0.949 . S
C1686 C1694 1.574 1_545 S
C1686 C1702 1.368 . S
H1687 C1695 0.950 . S
H1688 C1693 0.950 . S
H1689 C1694 0.949 . S
H1690 C1696 0.950 . S
H1691 C1697 0.950 . S
H1692 C1698 0.949 . S
C1693 H1688 0.950 . S
C1693 C1695 1.327 . S
C1693 C1699 1.429 . S
C1694 C1686 1.574 1_565 S
C1694 H1689 0.949 . S
C1694 C1700 1.368 . S
C1695 C1679 1.349 . S
C1695 H1687 0.950 . S
C1695 C1693 1.327 . S
C1696 C1684 1.349 . S
C1696 H1690 0.950 . S
C1696 C1697 1.327 . S
C1697 H1691 0.950 . S
C1697 C1696 1.327 . S
C1697 C1701 1.429 . S
C1698 C1681 1.574 . S
C1698 H1692 0.949 . S
C1698 C1702 1.368 1_565 S
C1699 C1680 1.429 . S
C1699 C1693 1.429 . S
C1699 C1700 1.523 . S
C1700 C1681 1.368 . S
C1700 C1694 1.368 . S
C1700 C1699 1.523 . S
C1701 C1685 1.429 . S
C1701 C1697 1.429 . S
C1701 C1702 1.523 . S
C1702 C1686 1.368 . S
C1702 C1698 1.368 1_545 S
C1702 C1701 1.523 . S
H1703 C1678 0.950 . S
H1704 C1680 0.950 . S
H1705 C1681 0.949 . S
H1706 C1683 0.950 . S
H1707 C1685 0.950 . S
C1708 C1709 1.349 . S
C1708 C1710 1.327 . S
C1708 H1733 0.950 . S
C1709 C1708 1.349 . S
C1709 C1725 1.349 . S
C1710 C1708 1.327 . S
C1710 C1729 1.429 . S
C1710 H1734 0.950 . S
C1711 C1728 1.574 . S
C1711 C1730 1.368 . S
C1711 H1735 0.949 . S
H1712 C1716 0.949 . S
C1713 C1714 1.349 . S
C1713 C1715 1.327 . S
C1713 H1736 0.950 . S
C1714 C1713 1.349 . S
C1714 C1726 1.349 . S
C1715 C1713 1.327 . S
C1715 C1731 1.429 . S
C1715 H1737 0.950 . S
C1716 H1712 0.949 . S
C1716 C1724 1.574 . S
C1716 C1732 1.368 . S
H1717 C1725 0.950 . S
H1718 C1723 0.950 . S
H1719 C1724 0.949 . S
H1720 C1726 0.950 . S
H1721 C1727 0.950 . S
H1722 C1728 0.949 . S
C1723 H1718 0.950 . S
C1723 C1725 1.327 . S
C1723 C1729 1.429 . S
C1724 C1716 1.574 . S
C1724 H1719 0.949 . S
C1724 C1730 1.368 . S
C1725 C1709 1.349 . S
C1725 H1717 0.950 . S
C1725 C1723 1.327 . S
C1726 C1714 1.349 . S
C1726 H1720 0.950 . S
C1726 C1727 1.327 . S
C1727 H1721 0.950 . S
C1727 C1726 1.327 . S
C1727 C1731 1.429 . S
C1728 C1711 1.574 . S
C1728 H1722 0.949 . S
C1728 C1732 1.368 . S
C1729 C1710 1.429 . S
C1729 C1723 1.429 . S
C1729 C1730 1.523 . S
C1730 C1711 1.368 . S
C1730 C1724 1.368 . S
C1730 C1729 1.523 . S
C1731 C1715 1.429 . S
C1731 C1727 1.429 . S
C1731 C1732 1.523 . S
C1732 C1716 1.368 . S
C1732 C1728 1.368 . S
C1732 C1731 1.523 . S
H1733 C1708 0.950 . S
H1734 C1710 0.950 . S
H1735 C1711 0.949 . S
H1736 C1713 0.950 . S
H1737 C1715 0.950 . S
C1738 C1739 1.349 . S
C1738 C1740 1.327 . S
C1738 H1763 0.950 . S
C1739 C1738 1.349 . S
C1739 C1755 1.349 . S
C1740 C1738 1.327 . S
C1740 C1759 1.429 . S
C1740 H1764 0.950 . S
C1741 C1758 1.574 . S
C1741 C1760 1.368 . S
C1741 H1765 0.949 . S
H1742 C1746 0.949 . S
C1743 C1744 1.349 . S
C1743 C1745 1.327 . S
C1743 H1766 0.950 . S
C1744 C1743 1.349 . S
C1744 C1756 1.349 . S
C1745 C1743 1.327 . S
C1745 C1761 1.429 . S
C1745 H1767 0.950 . S
C1746 H1742 0.949 . S
C1746 C1754 1.574 1_565 S
C1746 C1762 1.368 . S
H1747 C1755 0.950 . S
H1748 C1753 0.950 . S
H1749 C1754 0.949 . S
H1750 C1756 0.950 . S
H1751 C1757 0.950 . S
H1752 C1758 0.949 . S
C1753 H1748 0.950 . S
C1753 C1755 1.327 . S
C1753 C1759 1.429 . S
C1754 C1746 1.574 1_545 S
C1754 H1749 0.949 . S
C1754 C1760 1.368 . S
C1755 C1739 1.349 . S
C1755 H1747 0.950 . S
C1755 C1753 1.327 . S
C1756 C1744 1.349 . S
C1756 H1750 0.950 . S
C1756 C1757 1.327 . S
C1757 H1751 0.950 . S
C1757 C1756 1.327 . S
C1757 C1761 1.429 . S
C1758 C1741 1.574 . S
C1758 H1752 0.949 . S
C1758 C1762 1.368 1_545 S
C1759 C1740 1.429 . S
C1759 C1753 1.429 . S
C1759 C1760 1.523 . S
C1760 C1741 1.368 . S
C1760 C1754 1.368 . S
C1760 C1759 1.523 . S
C1761 C1745 1.429 . S
C1761 C1757 1.429 . S
C1761 C1762 1.523 . S
C1762 C1746 1.368 . S
C1762 C1758 1.368 1_565 S
C1762 C1761 1.523 . S
H1763 C1738 0.950 . S
H1764 C1740 0.950 . S
H1765 C1741 0.949 . S
H1766 C1743 0.950 . S
H1767 C1745 0.950 . S
C1768 C1769 1.349 . S
C1768 C1770 1.327 . S
C1768 H1793 0.950 . S
C1769 C1768 1.349 . S
C1769 C1785 1.349 . S
C1770 C1768 1.327 . S
C1770 C1789 1.429 . S
C1770 H1794 0.950 . S
C1771 C1788 1.574 . S
C1771 C1790 1.368 . S
C1771 H1795 0.949 . S
H1772 C1776 0.949 . S
C1773 C1774 1.349 . S
C1773 C1775 1.327 . S
C1773 H1796 0.950 . S
C1774 C1773 1.349 . S
C1774 C1786 1.349 . S
C1775 C1773 1.327 . S
C1775 C1791 1.429 . S
C1775 H1797 0.950 . S
C1776 H1772 0.949 . S
C1776 C1784 1.574 . S
C1776 C1792 1.368 . S
H1777 C1785 0.950 . S
H1778 C1783 0.950 . S
H1779 C1784 0.949 . S
H1780 C1786 0.950 . S
H1781 C1787 0.950 . S
H1782 C1788 0.949 . S
C1783 H1778 0.950 . S
C1783 C1785 1.327 . S
C1783 C1789 1.429 . S
C1784 C1776 1.574 . S
C1784 H1779 0.949 . S
C1784 C1790 1.368 . S
C1785 C1769 1.349 . S
C1785 H1777 0.950 . S
C1785 C1783 1.327 . S
C1786 C1774 1.349 . S
C1786 H1780 0.950 . S
C1786 C1787 1.327 . S
C1787 H1781 0.950 . S
C1787 C1786 1.327 . S
C1787 C1791 1.429 . S
C1788 C1771 1.574 . S
C1788 H1782 0.949 . S
C1788 C1792 1.368 . S
C1789 C1770 1.429 . S
C1789 C1783 1.429 . S
C1789 C1790 1.523 . S
C1790 C1771 1.368 . S
C1790 C1784 1.368 . S
C1790 C1789 1.523 . S
C1791 C1775 1.429 . S
C1791 C1787 1.429 . S
C1791 C1792 1.523 . S
C1792 C1776 1.368 . S
C1792 C1788 1.368 . S
C1792 C1791 1.523 . S
H1793 C1768 0.950 . S
H1794 C1770 0.950 . S
H1795 C1771 0.949 . S
H1796 C1773 0.950 . S
H1797 C1775 0.950 . S
C1798 C1799 1.349 . S
C1798 C1800 1.327 . S
C1798 H1823 0.950 . S
C1799 C1798 1.349 . S
C1799 C1815 1.349 . S
C1800 C1798 1.327 . S
C1800 C1819 1.429 . S
C1800 H1824 0.950 . S
C1801 C1818 1.574 . S
C1801 C1820 1.368 . S
C1801 H1825 0.949 . S
H1802 C1806 0.949 . S
C1803 C1804 1.349 . S
C1803 C1805 1.327 . S
C1803 H1826 0.950 . S
C1804 C1803 1.349 . S
C1804 C1816 1.349 . S
C1805 C1803 1.327 . S
C1805 C1821 1.429 . S
C1805 H1827 0.950 . S
C1806 H1802 0.949 . S
C1806 C1814 1.574 1_545 S
C1806 C1822 1.368 . S
H1807 C1815 0.950 . S
H1808 C1813 0.950 . S
H1809 C1814 0.949 . S
H1810 C1816 0.950 . S
H1811 C1817 0.950 . S
H1812 C1818 0.949 . S
C1813 H1808 0.950 . S
C1813 C1815 1.327 . S
C1813 C1819 1.429 . S
C1814 C1806 1.574 1_565 S
C1814 H1809 0.949 . S
C1814 C1820 1.368 . S
C1815 C1799 1.349 . S
C1815 H1807 0.950 . S
C1815 C1813 1.327 . S
C1816 C1804 1.349 . S
C1816 H1810 0.950 . S
C1816 C1817 1.327 . S
C1817 H1811 0.950 . S
C1817 C1816 1.327 . S
C1817 C1821 1.429 . S
C1818 C1801 1.574 . S
C1818 H1812 0.949 . S
C1818 C1822 1.368 1_565 S
C1819 C1800 1.429 . S
C1819 C1813 1.429 . S
C1819 C1820 1.523 . S
C1820 C1801 1.368 . S
C1820 C1814 1.368 . S
C1820 C1819 1.523 . S
C1821 C1805 1.429 . S
C1821 C1817 1.429 . S
C1821 C1822 1.523 . S
C1822 C1806 1.368 . S
C1822 C1818 1.368 1_545 S
C1822 C1821 1.523 . S
H1823 C1798 0.950 . S
H1824 C1800 0.950 . S
H1825 C1801 0.949 . S
H1826 C1803 0.950 . S
H1827 C1805 0.950 . S
C1828 C1829 1.349 . S
C1828 C1830 1.327 . S
C1828 H1853 0.950 . S
C1829 C1828 1.349 . S
C1829 C1845 1.349 . S
C1830 C1828 1.327 . S
C1830 C1849 1.429 . S
C1830 H1854 0.950 . S
C1831 C1848 1.574 . S
C1831 C1850 1.368 . S
C1831 H1855 0.949 . S
H1832 C1836 0.949 . S
C1833 C1834 1.349 . S
C1833 C1835 1.327 . S
C1833 H1856 0.950 . S
C1834 C1833 1.349 . S
C1834 C1846 1.349 . S
C1835 C1833 1.327 . S
C1835 C1851 1.429 . S
C1835 H1857 0.950 . S
C1836 H1832 0.949 . S
C1836 C1844 1.574 . S
C1836 C1852 1.368 . S
H1837 C1845 0.950 . S
H1838 C1843 0.950 . S
H1839 C1844 0.949 . S
H1840 C1846 0.950 . S
H1841 C1847 0.950 . S
H1842 C1848 0.949 . S
C1843 H1838 0.950 . S
C1843 C1845 1.327 . S
C1843 C1849 1.429 . S
C1844 C1836 1.574 . S
C1844 H1839 0.949 . S
C1844 C1850 1.368 . S
C1845 C1829 1.349 . S
C1845 H1837 0.950 . S
C1845 C1843 1.327 . S
C1846 C1834 1.349 . S
C1846 H1840 0.950 . S
C1846 C1847 1.327 . S
C1847 H1841 0.950 . S
C1847 C1846 1.327 . S
C1847 C1851 1.429 . S
C1848 C1831 1.574 . S
C1848 H1842 0.949 . S
C1848 C1852 1.368 . S
C1849 C1830 1.429 . S
C1849 C1843 1.429 . S
C1849 C1850 1.523 . S
C1850 C1831 1.368 . S
C1850 C1844 1.368 . S
C1850 C1849 1.523 . S
C1851 C1835 1.429 . S
C1851 C1847 1.429 . S
C1851 C1852 1.523 . S
C1852 C1836 1.368 . S
C1852 C1848 1.368 . S
C1852 C1851 1.523 . S
H1853 C1828 0.950 . S
H1854 C1830 0.950 . S
H1855 C1831 0.949 . S
H1856 C1833 0.950 . S
H1857 C1835 0.950 . S
C1858 C1859 1.349 . S
C1858 C1860 1.327 . S
C1858 H1883 0.950 . S
C1859 C1858 1.349 . S
C1859 C1875 1.349 . S
C1860 C1858 1.327 . S
C1860 C1879 1.429 . S
C1860 H1884 0.950 . S
C1861 C1878 1.574 . S
C1861 C1880 1.368 . S
C1861 H1885 0.949 . S
H1862 C1866 0.949 . S
C1863 C1864 1.349 . S
C1863 C1865 1.327 . S
C1863 H1886 0.950 . S
C1864 C1863 1.349 . S
C1864 C1876 1.349 . S
C1865 C1863 1.327 . S
C1865 C1881 1.429 . S
C1865 H1887 0.950 . S
C1866 H1862 0.949 . S
C1866 C1874 1.574 1_565 S
C1866 C1882 1.368 . S
H1867 C1875 0.950 . S
H1868 C1873 0.950 . S
H1869 C1874 0.949 . S
H1870 C1876 0.950 . S
H1871 C1877 0.950 . S
H1872 C1878 0.949 . S
C1873 H1868 0.950 . S
C1873 C1875 1.327 . S
C1873 C1879 1.429 . S
C1874 C1866 1.574 1_545 S
C1874 H1869 0.949 . S
C1874 C1880 1.368 . S
C1875 C1859 1.349 . S
C1875 H1867 0.950 . S
C1875 C1873 1.327 . S
C1876 C1864 1.349 . S
C1876 H1870 0.950 . S
C1876 C1877 1.327 . S
C1877 H1871 0.950 . S
C1877 C1876 1.327 . S
C1877 C1881 1.429 . S
C1878 C1861 1.574 . S
C1878 H1872 0.949 . S
C1878 C1882 1.368 1_545 S
C1879 C1860 1.429 . S
C1879 C1873 1.429 . S
C1879 C1880 1.523 . S
C1880 C1861 1.368 . S
C1880 C1874 1.368 . S
C1880 C1879 1.523 . S
C1881 C1865 1.429 . S
C1881 C1877 1.429 . S
C1881 C1882 1.523 . S
C1882 C1866 1.368 . S
C1882 C1878 1.368 1_565 S
C1882 C1881 1.523 . S
H1883 C1858 0.950 . S
H1884 C1860 0.950 . S
H1885 C1861 0.949 . S
H1886 C1863 0.950 . S
H1887 C1865 0.950 . S
C1888 C1889 1.349 . S
C1888 C1890 1.327 . S
C1888 H1913 0.950 . S
C1889 C1888 1.349 . S
C1889 C1905 1.349 . S
C1890 C1888 1.327 . S
C1890 C1909 1.429 . S
C1890 H1914 0.950 . S
C1891 C1908 1.574 . S
C1891 C1910 1.368 . S
C1891 H1915 0.949 . S
H1892 C1896 0.949 . S
C1893 C1894 1.349 . S
C1893 C1895 1.327 . S
C1893 H1916 0.950 . S
C1894 C1893 1.349 . S
C1894 C1906 1.349 . S
C1895 C1893 1.327 . S
C1895 C1911 1.429 . S
C1895 H1917 0.950 . S
C1896 H1892 0.949 . S
C1896 C1904 1.574 . S
C1896 C1912 1.368 . S
H1897 C1905 0.950 . S
H1898 C1903 0.950 . S
H1899 C1904 0.949 . S
H1900 C1906 0.950 . S
H1901 C1907 0.950 . S
H1902 C1908 0.949 . S
C1903 H1898 0.950 . S
C1903 C1905 1.327 . S
C1903 C1909 1.429 . S
C1904 C1896 1.574 . S
C1904 H1899 0.949 . S
C1904 C1910 1.368 . S
C1905 C1889 1.349 . S
C1905 H1897 0.950 . S
C1905 C1903 1.327 . S
C1906 C1894 1.349 . S
C1906 H1900 0.950 . S
C1906 C1907 1.327 . S
C1907 H1901 0.950 . S
C1907 C1906 1.327 . S
C1907 C1911 1.429 . S
C1908 C1891 1.574 . S
C1908 H1902 0.949 . S
C1908 C1912 1.368 . S
C1909 C1890 1.429 . S
C1909 C1903 1.429 . S
C1909 C1910 1.523 . S
C1910 C1891 1.368 . S
C1910 C1904 1.368 . S
C1910 C1909 1.523 . S
C1911 C1895 1.429 . S
C1911 C1907 1.429 . S
C1911 C1912 1.523 . S
C1912 C1896 1.368 . S
C1912 C1908 1.368 . S
C1912 C1911 1.523 . S
H1913 C1888 0.950 . S
H1914 C1890 0.950 . S
H1915 C1891 0.949 . S
H1916 C1893 0.950 . S
H1917 C1895 0.950 . S
C1918 C1919 1.349 . S
C1918 C1920 1.327 . S
C1918 H1943 0.950 . S
C1919 C1918 1.349 . S
C1919 C1935 1.349 . S
C1920 C1918 1.327 . S
C1920 C1939 1.429 . S
C1920 H1944 0.950 . S
C1921 C1938 1.574 . S
C1921 C1940 1.368 . S
C1921 H1945 0.949 . S
H1922 C1926 0.949 . S
C1923 C1924 1.349 . S
C1923 C1925 1.327 . S
C1923 H1946 0.950 . S
C1924 C1923 1.349 . S
C1924 C1936 1.349 . S
C1925 C1923 1.327 . S
C1925 C1941 1.429 . S
C1925 H1947 0.950 . S
C1926 H1922 0.949 . S
C1926 C1934 1.574 . S
C1926 C1942 1.368 . S
H1927 C1935 0.950 . S
H1928 C1933 0.950 . S
H1929 C1934 0.949 . S
H1930 C1936 0.950 . S
H1931 C1937 0.950 . S
H1932 C1938 0.949 . S
C1933 H1928 0.950 . S
C1933 C1935 1.327 . S
C1933 C1939 1.429 . S
C1934 C1926 1.574 . S
C1934 H1929 0.949 . S
C1934 C1940 1.368 . S
C1935 C1919 1.349 . S
C1935 H1927 0.950 . S
C1935 C1933 1.327 . S
C1936 C1924 1.349 . S
C1936 H1930 0.950 . S
C1936 C1937 1.327 . S
C1937 H1931 0.950 . S
C1937 C1936 1.327 . S
C1937 C1941 1.429 . S
C1938 C1921 1.574 . S
C1938 H1932 0.949 . S
C1938 C1942 1.368 . S
C1939 C1920 1.429 . S
C1939 C1933 1.429 . S
C1939 C1940 1.523 . S
C1940 C1921 1.368 . S
C1940 C1934 1.368 . S
C1940 C1939 1.523 . S
C1941 C1925 1.429 . S
C1941 C1937 1.429 . S
C1941 C1942 1.523 . S
C1942 C1926 1.368 . S
C1942 C1938 1.368 . S
C1942 C1941 1.523 . S
H1943 C1918 0.950 . S
H1944 C1920 0.950 . S
H1945 C1921 0.949 . S
H1946 C1923 0.950 . S
H1947 C1925 0.950 . S
C1948 C1949 1.349 . S
C1948 C1950 1.327 . S
C1948 H1973 0.950 . S
C1949 C1948 1.349 . S
C1949 C1965 1.349 . S
C1950 C1948 1.327 . S
C1950 C1969 1.429 . S
C1950 H1974 0.950 . S
C1951 C1968 1.574 . S
C1951 C1970 1.368 . S
C1951 H1975 0.949 . S
H1952 C1956 0.949 . S
C1953 C1954 1.349 . S
C1953 C1955 1.327 . S
C1953 H1976 0.950 . S
C1954 C1953 1.349 . S
C1954 C1966 1.349 . S
C1955 C1953 1.327 . S
C1955 C1971 1.429 . S
C1955 H1977 0.950 . S
C1956 H1952 0.949 . S
C1956 C1964 1.574 1_455 S
C1956 C1972 1.368 . S
H1957 C1965 0.950 . S
H1958 C1963 0.950 . S
H1959 C1964 0.949 . S
H1960 C1966 0.950 . S
H1961 C1967 0.950 . S
H1962 C1968 0.949 . S
C1963 H1958 0.950 . S
C1963 C1965 1.327 . S
C1963 C1969 1.429 . S
C1964 C1956 1.574 1_655 S
C1964 H1959 0.949 . S
C1964 C1970 1.368 . S
C1965 C1949 1.349 . S
C1965 H1957 0.950 . S
C1965 C1963 1.327 . S
C1966 C1954 1.349 . S
C1966 H1960 0.950 . S
C1966 C1967 1.327 . S
C1967 H1961 0.950 . S
C1967 C1966 1.327 . S
C1967 C1971 1.429 . S
C1968 C1951 1.574 . S
C1968 H1962 0.949 . S
C1968 C1972 1.368 1_655 S
C1969 C1950 1.429 . S
C1969 C1963 1.429 . S
C1969 C1970 1.523 . S
C1970 C1951 1.368 . S
C1970 C1964 1.368 . S
C1970 C1969 1.523 . S
C1971 C1955 1.429 . S
C1971 C1967 1.429 . S
C1971 C1972 1.523 . S
C1972 C1956 1.368 . S
C1972 C1968 1.368 1_455 S
C1972 C1971 1.523 . S
H1973 C1948 0.950 . S
H1974 C1950 0.950 . S
H1975 C1951 0.949 . S
H1976 C1953 0.950 . S
H1977 C1955 0.950 . S
C1978 C1979 1.349 . S
C1978 C1980 1.327 . S
C1978 H2003 0.950 . S
C1979 C1978 1.349 . S
C1979 C1995 1.349 . S
C1980 C1978 1.327 . S
C1980 C1999 1.429 . S
C1980 H2004 0.950 . S
C1981 C1998 1.574 . S
C1981 C2000 1.368 . S
C1981 H2005 0.949 . S
H1982 C1986 0.949 . S
C1983 C1984 1.349 . S
C1983 C1985 1.327 . S
C1983 H2006 0.950 . S
C1984 C1983 1.349 . S
C1984 C1996 1.349 . S
C1985 C1983 1.327 . S
C1985 C2001 1.429 . S
C1985 H2007 0.950 . S
C1986 H1982 0.949 . S
C1986 C1994 1.574 . S
C1986 C2002 1.368 . S
H1987 C1995 0.950 . S
H1988 C1993 0.950 . S
H1989 C1994 0.949 . S
H1990 C1996 0.950 . S
H1991 C1997 0.950 . S
H1992 C1998 0.949 . S
C1993 H1988 0.950 . S
C1993 C1995 1.327 . S
C1993 C1999 1.429 . S
C1994 C1986 1.574 . S
C1994 H1989 0.949 . S
C1994 C2000 1.368 . S
C1995 C1979 1.349 . S
C1995 H1987 0.950 . S
C1995 C1993 1.327 . S
C1996 C1984 1.349 . S
C1996 H1990 0.950 . S
C1996 C1997 1.327 . S
C1997 H1991 0.950 . S
C1997 C1996 1.327 . S
C1997 C2001 1.429 . S
C1998 C1981 1.574 . S
C1998 H1992 0.949 . S
C1998 C2002 1.368 . S
C1999 C1980 1.429 . S
C1999 C1993 1.429 . S
C1999 C2000 1.523 . S
C2000 C1981 1.368 . S
C2000 C1994 1.368 . S
C2000 C1999 1.523 . S
C2001 C1985 1.429 . S
C2001 C1997 1.429 . S
C2001 C2002 1.523 . S
C2002 C1986 1.368 . S
C2002 C1998 1.368 . S
C2002 C2001 1.523 . S
H2003 C1978 0.950 . S
H2004 C1980 0.950 . S
H2005 C1981 0.949 . S
H2006 C1983 0.950 . S
H2007 C1985 0.950 . S
C2008 C2009 1.349 . S
C2008 C2010 1.327 . S
C2008 H2033 0.950 1_565 S
C2009 C2008 1.349 . S
C2009 C2025 1.349 . S
C2010 C2008 1.327 . S
C2010 C2029 1.429 . S
C2010 H2034 0.950 . S
C2011 C2028 1.574 . S
C2011 C2030 1.368 . S
C2011 H2035 0.949 . S
H2012 C2016 0.949 . S
C2013 C2014 1.349 . S
C2013 C2015 1.327 . S
C2013 H2036 0.950 . S
C2014 C2013 1.349 . S
C2014 C2026 1.349 . S
C2015 C2013 1.327 . S
C2015 C2031 1.429 . S
C2015 H2037 0.950 . S
C2016 H2012 0.949 . S
C2016 C2024 1.574 1_655 S
C2016 C2032 1.368 . S
H2017 C2025 0.950 . S
H2018 C2023 0.950 . S
H2019 C2024 0.949 . S
H2020 C2026 0.950 . S
H2021 C2027 0.950 . S
H2022 C2028 0.949 . S
C2023 H2018 0.950 . S
C2023 C2025 1.327 . S
C2023 C2029 1.429 . S
C2024 C2016 1.574 1_455 S
C2024 H2019 0.949 . S
C2024 C2030 1.368 . S
C2025 C2009 1.349 . S
C2025 H2017 0.950 . S
C2025 C2023 1.327 . S
C2026 C2014 1.349 . S
C2026 H2020 0.950 . S
C2026 C2027 1.327 . S
C2027 H2021 0.950 . S
C2027 C2026 1.327 . S
C2027 C2031 1.429 . S
C2028 C2011 1.574 . S
C2028 H2022 0.949 . S
C2028 C2032 1.368 1_455 S
C2029 C2010 1.429 . S
C2029 C2023 1.429 . S
C2029 C2030 1.523 . S
C2030 C2011 1.368 . S
C2030 C2024 1.368 . S
C2030 C2029 1.523 . S
C2031 C2015 1.429 . S
C2031 C2027 1.429 . S
C2031 C2032 1.523 . S
C2032 C2016 1.368 . S
C2032 C2028 1.368 1_655 S
C2032 C2031 1.523 . S
H2033 C2008 0.950 1_545 S
H2034 C2010 0.950 . S
H2035 C2011 0.949 . S
H2036 C2013 0.950 . S
H2037 C2015 0.950 . S
C2038 C2039 1.349 . S
C2038 C2040 1.327 . S
C2038 H2063 0.950 . S
C2039 C2038 1.349 . S
C2039 C2055 1.349 . S
C2040 C2038 1.327 . S
C2040 C2059 1.429 . S
C2040 H2064 0.950 . S
C2041 C2058 1.574 . S
C2041 C2060 1.368 . S
C2041 H2065 0.949 . S
H2042 C2046 0.949 . S
C2043 C2044 1.349 . S
C2043 C2045 1.327 . S
C2043 H2066 0.950 . S
C2044 C2043 1.349 . S
C2044 C2056 1.349 . S
C2045 C2043 1.327 . S
C2045 C2061 1.429 . S
C2045 H2067 0.950 . S
C2046 H2042 0.949 . S
C2046 C2054 1.574 . S
C2046 C2062 1.368 . S
H2047 C2055 0.950 . S
H2048 C2053 0.950 . S
H2049 C2054 0.949 . S
H2050 C2056 0.950 . S
H2051 C2057 0.950 . S
H2052 C2058 0.949 . S
C2053 H2048 0.950 . S
C2053 C2055 1.327 . S
C2053 C2059 1.429 . S
C2054 C2046 1.574 . S
C2054 H2049 0.949 . S
C2054 C2060 1.368 . S
C2055 C2039 1.349 . S
C2055 H2047 0.950 . S
C2055 C2053 1.327 . S
C2056 C2044 1.349 . S
C2056 H2050 0.950 . S
C2056 C2057 1.327 . S
C2057 H2051 0.950 . S
C2057 C2056 1.327 . S
C2057 C2061 1.429 . S
C2058 C2041 1.574 . S
C2058 H2052 0.949 . S
C2058 C2062 1.368 . S
C2059 C2040 1.429 . S
C2059 C2053 1.429 . S
C2059 C2060 1.523 . S
C2060 C2041 1.368 . S
C2060 C2054 1.368 . S
C2060 C2059 1.523 . S
C2061 C2045 1.429 . S
C2061 C2057 1.429 . S
C2061 C2062 1.523 . S
C2062 C2046 1.368 . S
C2062 C2058 1.368 . S
C2062 C2061 1.523 . S
H2063 C2038 0.950 . S
H2064 C2040 0.950 . S
H2065 C2041 0.949 . S
H2066 C2043 0.950 . S
H2067 C2045 0.950 . S
C2068 C2069 1.349 . S
C2068 C2070 1.327 . S
C2068 H2093 0.950 . S
C2069 C2068 1.349 . S
C2069 C2085 1.349 . S
C2070 C2068 1.327 . S
C2070 C2089 1.429 . S
C2070 H2094 0.950 . S
C2071 C2088 1.574 1_655 S
C2071 C2090 1.368 . S
C2071 H2095 0.949 . S
H2072 C2076 0.949 . S
C2073 C2074 1.349 . S
C2073 C2075 1.327 . S
C2073 H2096 0.950 . S
C2074 C2073 1.349 . S
C2074 C2086 1.349 . S
C2075 C2073 1.327 . S
C2075 C2091 1.429 . S
C2075 H2097 0.950 . S
C2076 H2072 0.949 . S
C2076 C2084 1.574 . S
C2076 C2092 1.368 1_655 S
H2077 C2085 0.950 . S
H2078 C2083 0.950 . S
H2079 C2084 0.949 . S
H2080 C2086 0.950 . S
H2081 C2087 0.950 . S
H2082 C2088 0.949 . S
C2083 H2078 0.950 . S
C2083 C2085 1.327 . S
C2083 C2089 1.429 . S
C2084 C2076 1.574 . S
C2084 H2079 0.949 . S
C2084 C2090 1.368 . S
C2085 C2069 1.349 . S
C2085 H2077 0.950 . S
C2085 C2083 1.327 . S
C2086 C2074 1.349 . S
C2086 H2080 0.950 . S
C2086 C2087 1.327 . S
C2087 H2081 0.950 . S
C2087 C2086 1.327 . S
C2087 C2091 1.429 . S
C2088 C2071 1.574 1_455 S
C2088 H2082 0.949 . S
C2088 C2092 1.368 . S
C2089 C2070 1.429 . S
C2089 C2083 1.429 . S
C2089 C2090 1.523 . S
C2090 C2071 1.368 . S
C2090 C2084 1.368 . S
C2090 C2089 1.523 . S
C2091 C2075 1.429 . S
C2091 C2087 1.429 . S
C2091 C2092 1.523 . S
C2092 C2076 1.368 1_455 S
C2092 C2088 1.368 . S
C2092 C2091 1.523 . S
H2093 C2068 0.950 . S
H2094 C2070 0.950 . S
H2095 C2071 0.949 . S
H2096 C2073 0.950 . S
H2097 C2075 0.950 . S
C2098 C2099 1.349 . S
C2098 C2100 1.327 . S
C2098 H2123 0.950 . S
C2099 C2098 1.349 . S
C2099 C2115 1.349 . S
C2100 C2098 1.327 . S
C2100 C2119 1.429 . S
C2100 H2124 0.950 . S
C2101 C2118 1.574 . S
C2101 C2120 1.368 . S
C2101 H2125 0.949 . S
H2102 C2106 0.949 . S
C2103 C2104 1.349 . S
C2103 C2105 1.327 . S
C2103 H2126 0.950 . S
C2104 C2103 1.349 . S
C2104 C2116 1.349 . S
C2105 C2103 1.327 . S
C2105 C2121 1.429 . S
C2105 H2127 0.950 . S
C2106 H2102 0.949 . S
C2106 C2114 1.574 . S
C2106 C2122 1.368 . S
H2107 C2115 0.950 . S
H2108 C2113 0.950 . S
H2109 C2114 0.949 . S
H2110 C2116 0.950 . S
H2111 C2117 0.950 . S
H2112 C2118 0.949 . S
C2113 H2108 0.950 . S
C2113 C2115 1.327 . S
C2113 C2119 1.429 . S
C2114 C2106 1.574 . S
C2114 H2109 0.949 . S
C2114 C2120 1.368 . S
C2115 C2099 1.349 . S
C2115 H2107 0.950 . S
C2115 C2113 1.327 . S
C2116 C2104 1.349 . S
C2116 H2110 0.950 . S
C2116 C2117 1.327 . S
C2117 H2111 0.950 . S
C2117 C2116 1.327 . S
C2117 C2121 1.429 . S
C2118 C2101 1.574 . S
C2118 H2112 0.949 . S
C2118 C2122 1.368 . S
C2119 C2100 1.429 . S
C2119 C2113 1.429 . S
C2119 C2120 1.523 . S
C2120 C2101 1.368 . S
C2120 C2114 1.368 . S
C2120 C2119 1.523 . S
C2121 C2105 1.429 . S
C2121 C2117 1.429 . S
C2121 C2122 1.523 . S
C2122 C2106 1.368 . S
C2122 C2118 1.368 . S
C2122 C2121 1.523 . S
H2123 C2098 0.950 . S
H2124 C2100 0.950 . S
H2125 C2101 0.949 . S
H2126 C2103 0.950 . S
H2127 C2105 0.950 . S
C2128 C2129 1.349 . S
C2128 C2130 1.327 . S
C2128 H2153 0.950 . S
C2129 C2128 1.349 . S
C2129 C2145 1.349 . S
C2130 C2128 1.327 . S
C2130 C2149 1.429 . S
C2130 H2154 0.950 . S
C2131 C2148 1.574 . S
C2131 C2150 1.368 . S
C2131 H2155 0.949 . S
H2132 C2136 0.949 . S
C2133 C2134 1.349 . S
C2133 C2135 1.327 . S
C2133 H2156 0.950 . S
C2134 C2133 1.349 . S
C2134 C2146 1.349 . S
C2135 C2133 1.327 . S
C2135 C2151 1.429 . S
C2135 H2157 0.950 . S
C2136 H2132 0.949 . S
C2136 C2144 1.574 . S
C2136 C2152 1.368 . S
H2137 C2145 0.950 . S
H2138 C2143 0.950 . S
H2139 C2144 0.949 . S
H2140 C2146 0.950 . S
H2141 C2147 0.950 . S
H2142 C2148 0.949 . S
C2143 H2138 0.950 . S
C2143 C2145 1.327 . S
C2143 C2149 1.429 . S
C2144 C2136 1.574 . S
C2144 H2139 0.949 . S
C2144 C2150 1.368 . S
C2145 C2129 1.349 . S
C2145 H2137 0.950 . S
C2145 C2143 1.327 . S
C2146 C2134 1.349 . S
C2146 H2140 0.950 . S
C2146 C2147 1.327 . S
C2147 H2141 0.950 . S
C2147 C2146 1.327 . S
C2147 C2151 1.429 . S
C2148 C2131 1.574 . S
C2148 H2142 0.949 . S
C2148 C2152 1.368 . S
C2149 C2130 1.429 . S
C2149 C2143 1.429 . S
C2149 C2150 1.523 . S
C2150 C2131 1.368 . S
C2150 C2144 1.368 . S
C2150 C2149 1.523 . S
C2151 C2135 1.429 . S
C2151 C2147 1.429 . S
C2151 C2152 1.523 . S
C2152 C2136 1.368 . S
C2152 C2148 1.368 . S
C2152 C2151 1.523 . S
H2153 C2128 0.950 . S
H2154 C2130 0.950 . S
H2155 C2131 0.949 . S
H2156 C2133 0.950 . S
H2157 C2135 0.950 . S
C2158 C2159 1.349 . S
C2158 C2160 1.327 . S
C2158 H2183 0.950 . S
C2159 C2158 1.349 . S
C2159 C2175 1.349 . S
C2160 C2158 1.327 . S
C2160 C2179 1.429 . S
C2160 H2184 0.950 . S
C2161 C2178 1.574 . S
C2161 C2180 1.368 . S
C2161 H2185 0.949 . S
H2162 C2166 0.949 . S
C2163 C2164 1.349 . S
C2163 C2165 1.327 . S
C2163 H2186 0.950 . S
C2164 C2163 1.349 . S
C2164 C2176 1.349 . S
C2165 C2163 1.327 . S
C2165 C2181 1.429 . S
C2165 H2187 0.950 . S
C2166 H2162 0.949 . S
C2166 C2174 1.574 1_556 S
C2166 C2182 1.368 . S
H2167 C2175 0.950 . S
H2168 C2173 0.950 . S
H2169 C2174 0.949 . S
H2170 C2176 0.950 . S
H2171 C2177 0.950 . S
H2172 C2178 0.949 . S
C2173 H2168 0.950 . S
C2173 C2175 1.327 . S
C2173 C2179 1.429 . S
C2174 C2166 1.574 1_554 S
C2174 H2169 0.949 . S
C2174 C2180 1.368 . S
C2175 C2159 1.349 . S
C2175 H2167 0.950 . S
C2175 C2173 1.327 . S
C2176 C2164 1.349 . S
C2176 H2170 0.950 . S
C2176 C2177 1.327 . S
C2177 H2171 0.950 . S
C2177 C2176 1.327 . S
C2177 C2181 1.429 . S
C2178 C2161 1.574 . S
C2178 H2172 0.949 . S
C2178 C2182 1.368 1_554 S
C2179 C2160 1.429 . S
C2179 C2173 1.429 . S
C2179 C2180 1.523 . S
C2180 C2161 1.368 . S
C2180 C2174 1.368 . S
C2180 C2179 1.523 . S
C2181 C2165 1.429 . S
C2181 C2177 1.429 . S
C2181 C2182 1.523 . S
C2182 C2166 1.368 . S
C2182 C2178 1.368 1_556 S
C2182 C2181 1.523 . S
H2183 C2158 0.950 . S
H2184 C2160 0.950 . S
H2185 C2161 0.949 . S
H2186 C2163 0.950 . S
H2187 C2165 0.950 . S
C2188 C2189 1.349 . S
C2188 C2190 1.327 . S
C2188 H2213 0.950 . S
C2189 C2188 1.349 . S
C2189 C2205 1.349 . S
C2190 C2188 1.327 . S
C2190 C2209 1.429 . S
C2190 H2214 0.950 . S
C2191 C2208 1.574 . S
C2191 C2210 1.368 . S
C2191 H2215 0.949 . S
H2192 C2196 0.949 . S
C2193 C2194 1.349 . S
C2193 C2195 1.327 . S
C2193 H2216 0.950 . S
C2194 C2193 1.349 . S
C2194 C2206 1.349 . S
C2195 C2193 1.327 . S
C2195 C2211 1.429 . S
C2195 H2217 0.950 . S
C2196 H2192 0.949 . S
C2196 C2204 1.574 . S
C2196 C2212 1.368 . S
H2197 C2205 0.934 1_455 S
H2198 C2203 0.950 . S
H2199 C2204 0.949 . S
H2200 C2206 0.950 . S
H2201 C2207 0.950 . S
H2202 C2208 0.949 . S
C2203 H2198 0.950 . S
C2203 C2205 1.327 . S
C2203 C2209 1.429 . S
C2204 C2196 1.574 . S
C2204 H2199 0.949 . S
C2204 C2210 1.368 . S
C2205 C2189 1.349 . S
C2205 H2197 0.934 1_655 S
C2205 C2203 1.327 . S
C2206 C2194 1.349 . S
C2206 H2200 0.950 . S
C2206 C2207 1.327 . S
C2207 H2201 0.950 . S
C2207 C2206 1.327 . S
C2207 C2211 1.429 . S
C2208 C2191 1.574 . S
C2208 H2202 0.949 . S
C2208 C2212 1.368 . S
C2209 C2190 1.429 . S
C2209 C2203 1.429 . S
C2209 C2210 1.523 . S
C2210 C2191 1.368 . S
C2210 C2204 1.368 . S
C2210 C2209 1.523 . S
C2211 C2195 1.429 . S
C2211 C2207 1.429 . S
C2211 C2212 1.523 . S
C2212 C2196 1.368 . S
C2212 C2208 1.368 . S
C2212 C2211 1.523 . S
H2213 C2188 0.950 . S
H2214 C2190 0.950 . S
H2215 C2191 0.949 . S
H2216 C2193 0.950 . S
H2217 C2195 0.950 . S
C2218 C2219 1.349 . S
C2218 C2220 1.327 . S
C2218 H2243 0.950 . S
C2219 C2218 1.349 . S
C2219 C2235 1.349 . S
C2220 C2218 1.327 . S
C2220 C2239 1.429 . S
C2220 H2244 0.950 . S
C2221 C2238 1.574 . S
C2221 C2240 1.368 . S
C2221 H2245 0.949 . S
H2222 C2226 0.949 . S
C2223 C2224 1.349 . S
C2223 C2225 1.327 . S
C2223 H2246 0.950 . S
C2224 C2223 1.349 . S
C2224 C2236 1.349 . S
C2225 C2223 1.327 . S
C2225 C2241 1.429 . S
C2225 H2247 0.950 . S
C2226 H2222 0.949 . S
C2226 C2234 1.574 . S
C2226 C2242 1.368 . S
H2227 C2235 0.950 . S
H2228 C2233 0.950 . S
H2229 C2234 0.949 . S
H2230 C2236 0.950 . S
H2231 C2237 0.950 . S
H2232 C2238 0.949 . S
C2233 H2228 0.950 . S
C2233 C2235 1.327 . S
C2233 C2239 1.429 . S
C2234 C2226 1.574 . S
C2234 H2229 0.949 . S
C2234 C2240 1.368 . S
C2235 C2219 1.349 . S
C2235 H2227 0.950 . S
C2235 C2233 1.327 . S
C2236 C2224 1.349 . S
C2236 H2230 0.950 . S
C2236 C2237 1.327 . S
C2237 H2231 0.950 . S
C2237 C2236 1.327 . S
C2237 C2241 1.429 . S
C2238 C2221 1.574 . S
C2238 H2232 0.949 . S
C2238 C2242 1.368 . S
C2239 C2220 1.429 . S
C2239 C2233 1.429 . S
C2239 C2240 1.523 . S
C2240 C2221 1.368 . S
C2240 C2234 1.368 . S
C2240 C2239 1.523 . S
C2241 C2225 1.429 . S
C2241 C2237 1.429 . S
C2241 C2242 1.523 . S
C2242 C2226 1.368 . S
C2242 C2238 1.368 . S
C2242 C2241 1.523 . S
H2243 C2218 0.950 . S
H2244 C2220 0.950 . S
H2245 C2221 0.949 . S
H2246 C2223 0.950 . S
H2247 C2225 0.950 . S
C2248 C2249 1.349 . S
C2248 C2250 1.327 . S
C2248 H2273 0.950 . S
C2249 C2248 1.349 . S
C2249 C2265 1.349 . S
C2250 C2248 1.327 . S
C2250 C2269 1.429 . S
C2250 H2274 0.950 . S
C2251 C2268 1.574 . S
C2251 C2270 1.368 . S
C2251 H2275 0.949 . S
H2252 C2256 0.949 . S
C2253 C2254 1.349 . S
C2253 C2255 1.327 . S
C2253 H2276 0.950 . S
C2254 C2253 1.349 . S
C2254 C2266 1.349 . S
C2255 C2253 1.327 . S
C2255 C2271 1.429 . S
C2255 H2277 0.950 . S
C2256 H2252 0.949 . S
C2256 C2264 1.574 . S
C2256 C2272 1.368 . S
H2257 C2265 0.950 . S
H2258 C2263 0.950 . S
H2259 C2264 0.949 . S
H2260 C2266 0.950 . S
H2261 C2267 0.950 . S
H2262 C2268 0.949 . S
C2263 H2258 0.950 . S
C2263 C2265 1.327 . S
C2263 C2269 1.429 . S
C2264 C2256 1.574 . S
C2264 H2259 0.949 . S
C2264 C2270 1.368 . S
C2265 C2249 1.349 . S
C2265 H2257 0.950 . S
C2265 C2263 1.327 . S
C2266 C2254 1.349 . S
C2266 H2260 0.950 . S
C2266 C2267 1.327 . S
C2267 H2261 0.950 . S
C2267 C2266 1.327 . S
C2267 C2271 1.429 . S
C2268 C2251 1.574 . S
C2268 H2262 0.949 . S
C2268 C2272 1.368 . S
C2269 C2250 1.429 . S
C2269 C2263 1.429 . S
C2269 C2270 1.523 . S
C2270 C2251 1.368 . S
C2270 C2264 1.368 . S
C2270 C2269 1.523 . S
C2271 C2255 1.429 . S
C2271 C2267 1.429 . S
C2271 C2272 1.523 . S
C2272 C2256 1.368 . S
C2272 C2268 1.368 . S
C2272 C2271 1.523 . S
H2273 C2248 0.950 . S
H2274 C2250 0.950 . S
H2275 C2251 0.949 . S
H2276 C2253 0.950 . S
H2277 C2255 0.950 . S
C2278 C2279 1.349 . S
C2278 C2280 1.327 . S
C2278 H2303 0.950 . S
C2279 C2278 1.349 . S
C2279 C2295 1.349 . S
C2280 C2278 1.327 . S
C2280 C2299 1.429 . S
C2280 H2304 0.950 . S
C2281 C2298 1.574 1_556 S
C2281 C2300 1.368 . S
C2281 H2305 0.949 . S
H2282 C2286 0.949 . S
C2283 C2284 1.349 . S
C2283 C2285 1.327 . S
C2283 H2306 0.950 . S
C2284 C2283 1.349 . S
C2284 C2296 1.349 . S
C2285 C2283 1.327 . S
C2285 C2301 1.429 . S
C2285 H2307 0.950 . S
C2286 H2282 0.949 . S
C2286 C2294 1.574 . S
C2286 C2302 1.368 1_556 S
H2287 C2295 0.950 . S
H2288 C2293 0.950 . S
H2289 C2294 0.949 . S
H2290 C2296 0.950 . S
H2291 C2297 0.950 . S
H2292 C2298 0.949 . S
C2293 H2288 0.950 . S
C2293 C2295 1.327 . S
C2293 C2299 1.429 . S
C2294 C2286 1.574 . S
C2294 H2289 0.949 . S
C2294 C2300 1.368 . S
C2295 C2279 1.349 . S
C2295 H2287 0.950 . S
C2295 C2293 1.327 . S
C2296 C2284 1.349 . S
C2296 H2290 0.950 . S
C2296 C2297 1.327 . S
C2297 H2291 0.950 . S
C2297 C2296 1.327 . S
C2297 C2301 1.429 . S
C2298 C2281 1.574 1_554 S
C2298 H2292 0.949 . S
C2298 C2302 1.368 . S
C2299 C2280 1.429 . S
C2299 C2293 1.429 . S
C2299 C2300 1.523 . S
C2300 C2281 1.368 . S
C2300 C2294 1.368 . S
C2300 C2299 1.523 . S
C2301 C2285 1.429 . S
C2301 C2297 1.429 . S
C2301 C2302 1.523 . S
C2302 C2286 1.368 1_554 S
C2302 C2298 1.368 . S
C2302 C2301 1.523 . S
H2303 C2278 0.950 . S
H2304 C2280 0.950 . S
H2305 C2281 0.949 . S
H2306 C2283 0.950 . S
H2307 C2285 0.950 . S
C2308 C2309 1.349 . S
C2308 C2310 1.327 . S
C2308 H2333 0.950 . S
C2309 C2308 1.349 . S
C2309 C2325 1.349 . S
C2310 C2308 1.327 . S
C2310 C2329 1.429 . S
C2310 H2334 0.950 . S
C2311 C2328 1.574 . S
C2311 C2330 1.368 . S
C2311 H2335 0.949 . S
H2312 C2316 0.949 . S
C2313 C2314 1.349 . S
C2313 C2315 1.327 . S
C2313 H2336 0.950 . S
C2314 C2313 1.349 . S
C2314 C2326 1.349 . S
C2315 C2313 1.327 . S
C2315 C2331 1.429 . S
C2315 H2337 0.950 . S
C2316 H2312 0.949 . S
C2316 C2324 1.574 . S
C2316 C2332 1.368 . S
H2317 C2325 0.950 . S
H2318 C2323 0.950 . S
H2319 C2324 0.949 . S
H2320 C2326 0.950 . S
H2321 C2327 0.950 . S
H2322 C2328 0.949 . S
C2323 H2318 0.950 . S
C2323 C2325 1.327 . S
C2323 C2329 1.429 . S
C2324 C2316 1.574 . S
C2324 H2319 0.949 . S
C2324 C2330 1.368 . S
C2325 C2309 1.349 . S
C2325 H2317 0.950 . S
C2325 C2323 1.327 . S
C2326 C2314 1.349 . S
C2326 H2320 0.950 . S
C2326 C2327 1.327 . S
C2327 H2321 0.950 . S
C2327 C2326 1.327 . S
C2327 C2331 1.429 . S
C2328 C2311 1.574 . S
C2328 H2322 0.949 . S
C2328 C2332 1.368 . S
C2329 C2310 1.429 . S
C2329 C2323 1.429 . S
C2329 C2330 1.523 . S
C2330 C2311 1.368 . S
C2330 C2324 1.368 . S
C2330 C2329 1.523 . S
C2331 C2315 1.429 . S
C2331 C2327 1.429 . S
C2331 C2332 1.523 . S
C2332 C2316 1.368 . S
C2332 C2328 1.368 . S
C2332 C2331 1.523 . S
H2333 C2308 0.950 . S
H2334 C2310 0.950 . S
H2335 C2311 0.949 . S
H2336 C2313 0.950 . S
H2337 C2315 0.950 . S
C2338 C2339 1.349 . S
C2338 C2340 1.327 . S
C2338 H2363 0.950 . S
C2339 C2338 1.349 . S
C2339 C2355 1.349 . S
C2340 C2338 1.327 . S
C2340 C2359 1.429 . S
C2340 H2364 0.950 . S
C2341 C2358 1.574 . S
C2341 C2360 1.368 . S
C2341 H2365 0.949 . S
H2342 C2346 0.949 . S
C2343 C2344 1.349 . S
C2343 C2345 1.327 . S
C2343 H2366 0.950 . S
C2344 C2343 1.349 . S
C2344 C2356 1.349 . S
C2345 C2343 1.327 . S
C2345 C2361 1.429 . S
C2345 H2367 0.950 . S
C2346 H2342 0.949 . S
C2346 C2354 1.574 . S
C2346 C2362 1.368 . S
H2347 C2355 0.950 . S
H2348 C2353 0.950 . S
H2349 C2354 0.949 . S
H2350 C2356 0.950 . S
H2351 C2357 0.950 . S
H2352 C2358 0.949 . S
C2353 H2348 0.950 . S
C2353 C2355 1.327 . S
C2353 C2359 1.429 . S
C2354 C2346 1.574 . S
C2354 H2349 0.949 . S
C2354 C2360 1.368 . S
C2355 C2339 1.349 . S
C2355 H2347 0.950 . S
C2355 C2353 1.327 . S
C2356 C2344 1.349 . S
C2356 H2350 0.950 . S
C2356 C2357 1.327 . S
C2357 H2351 0.950 . S
C2357 C2356 1.327 . S
C2357 C2361 1.429 . S
C2358 C2341 1.574 . S
C2358 H2352 0.949 . S
C2358 C2362 1.368 . S
C2359 C2340 1.429 . S
C2359 C2353 1.429 . S
C2359 C2360 1.523 . S
C2360 C2341 1.368 . S
C2360 C2354 1.368 . S
C2360 C2359 1.523 . S
C2361 C2345 1.429 . S
C2361 C2357 1.429 . S
C2361 C2362 1.523 . S
C2362 C2346 1.368 . S
C2362 C2358 1.368 . S
C2362 C2361 1.523 . S
H2363 C2338 0.950 . S
H2364 C2340 0.950 . S
H2365 C2341 0.949 . S
H2366 C2343 0.950 . S
H2367 C2345 0.950 . S
C2368 C2369 1.349 . S
C2368 C2370 1.327 . S
C2368 H2393 0.950 . S
C2369 C2368 1.349 . S
C2369 C2385 1.349 . S
C2370 C2368 1.327 . S
C2370 C2389 1.429 . S
C2370 H2394 0.950 . S
C2371 C2388 1.574 . S
C2371 C2390 1.368 . S
C2371 H2395 0.949 . S
H2372 C2376 0.949 . S
C2373 C2374 1.349 . S
C2373 C2375 1.327 . S
C2373 H2396 0.950 . S
C2374 C2373 1.349 . S
C2374 C2386 1.349 . S
C2375 C2373 1.327 . S
C2375 C2391 1.429 . S
C2375 H2397 0.950 . S
C2376 H2372 0.949 . S
C2376 C2384 1.574 . S
C2376 C2392 1.368 . S
H2377 C2385 0.950 . S
H2378 C2383 0.950 . S
H2379 C2384 0.949 . S
H2380 C2386 0.950 . S
H2381 C2387 0.950 . S
H2382 C2388 0.949 . S
C2383 H2378 0.950 . S
C2383 C2385 1.327 . S
C2383 C2389 1.429 . S
C2384 C2376 1.574 . S
C2384 H2379 0.949 . S
C2384 C2390 1.368 . S
C2385 C2369 1.349 . S
C2385 H2377 0.950 . S
C2385 C2383 1.327 . S
C2386 C2374 1.349 . S
C2386 H2380 0.950 . S
C2386 C2387 1.327 . S
C2387 H2381 0.950 . S
C2387 C2386 1.327 . S
C2387 C2391 1.429 . S
C2388 C2371 1.574 . S
C2388 H2382 0.949 . S
C2388 C2392 1.368 . S
C2389 C2370 1.429 . S
C2389 C2383 1.429 . S
C2389 C2390 1.523 . S
C2390 C2371 1.368 . S
C2390 C2384 1.368 . S
C2390 C2389 1.523 . S
C2391 C2375 1.429 . S
C2391 C2387 1.429 . S
C2391 C2392 1.523 . S
C2392 C2376 1.368 . S
C2392 C2388 1.368 . S
C2392 C2391 1.523 . S
H2393 C2368 0.950 . S
H2394 C2370 0.950 . S
H2395 C2371 0.949 . S
H2396 C2373 0.950 . S
H2397 C2375 0.950 . S
C2398 C2399 1.349 . S
C2398 C2400 1.327 . S
C2398 H2423 0.950 . S
C2399 C2398 1.349 . S
C2399 C2415 1.349 . S
C2400 C2398 1.327 . S
C2400 C2419 1.429 . S
C2400 H2424 0.950 . S
C2401 C2418 1.574 . S
C2401 C2420 1.368 . S
C2401 H2425 0.949 . S
H2402 C2406 0.949 . S
C2403 C2404 1.349 . S
C2403 C2405 1.327 . S
C2403 H2426 0.950 . S
C2404 C2403 1.349 . S
C2404 C2416 1.349 . S
C2405 C2403 1.327 . S
C2405 C2421 1.429 . S
C2405 H2427 0.950 . S
C2406 H2402 0.949 . S
C2406 C2414 1.574 . S
C2406 C2422 1.368 . S
H2407 C2415 0.950 . S
H2408 C2413 0.950 . S
H2409 C2414 0.949 . S
H2410 C2416 0.950 . S
H2411 C2417 0.950 . S
H2412 C2418 0.949 . S
C2413 H2408 0.950 . S
C2413 C2415 1.327 . S
C2413 C2419 1.429 . S
C2414 C2406 1.574 . S
C2414 H2409 0.949 . S
C2414 C2420 1.368 . S
C2415 C2399 1.349 . S
C2415 H2407 0.950 . S
C2415 C2413 1.327 . S
C2416 C2404 1.349 . S
C2416 H2410 0.950 . S
C2416 C2417 1.327 . S
C2417 H2411 0.950 . S
C2417 C2416 1.327 . S
C2417 C2421 1.429 . S
C2418 C2401 1.574 . S
C2418 H2412 0.949 . S
C2418 C2422 1.368 . S
C2419 C2400 1.429 . S
C2419 C2413 1.429 . S
C2419 C2420 1.523 . S
C2420 C2401 1.368 . S
C2420 C2414 1.368 . S
C2420 C2419 1.523 . S
C2421 C2405 1.429 . S
C2421 C2417 1.429 . S
C2421 C2422 1.523 . S
C2422 C2406 1.368 . S
C2422 C2418 1.368 . S
C2422 C2421 1.523 . S
H2423 C2398 0.950 . S
H2424 C2400 0.950 . S
H2425 C2401 0.949 . S
H2426 C2403 0.950 . S
H2427 C2405 0.950 . S
C2428 C2429 1.349 . S
C2428 C2430 1.327 . S
C2428 H2453 0.950 . S
C2429 C2428 1.349 . S
C2429 C2445 1.349 . S
C2430 C2428 1.327 . S
C2430 C2449 1.429 . S
C2430 H2454 0.950 . S
C2431 C2448 1.574 . S
C2431 C2450 1.368 . S
C2431 H2455 0.949 . S
H2432 C2436 0.949 . S
C2433 C2434 1.349 . S
C2433 C2435 1.327 . S
C2433 H2456 0.950 . S
C2434 C2433 1.349 . S
C2434 C2446 1.349 . S
C2435 C2433 1.327 . S
C2435 C2451 1.429 . S
C2435 H2457 0.950 . S
C2436 H2432 0.949 . S
C2436 C2444 1.574 . S
C2436 C2452 1.368 . S
H2437 C2445 0.950 . S
H2438 C2443 0.950 . S
H2439 C2444 0.949 . S
H2440 C2446 0.950 . S
H2441 C2447 0.950 . S
H2442 C2448 0.949 . S
C2443 H2438 0.950 . S
C2443 C2445 1.327 . S
C2443 C2449 1.429 . S
C2444 C2436 1.574 . S
C2444 H2439 0.949 . S
C2444 C2450 1.368 . S
C2445 C2429 1.349 . S
C2445 H2437 0.950 . S
C2445 C2443 1.327 . S
C2446 C2434 1.349 . S
C2446 H2440 0.950 . S
C2446 C2447 1.327 . S
C2447 H2441 0.950 . S
C2447 C2446 1.327 . S
C2447 C2451 1.429 . S
C2448 C2431 1.574 . S
C2448 H2442 0.949 . S
C2448 C2452 1.368 . S
C2449 C2430 1.429 . S
C2449 C2443 1.429 . S
C2449 C2450 1.523 . S
C2450 C2431 1.368 . S
C2450 C2444 1.368 . S
C2450 C2449 1.523 . S
C2451 C2435 1.429 . S
C2451 C2447 1.429 . S
C2451 C2452 1.523 . S
C2452 C2436 1.368 . S
C2452 C2448 1.368 . S
C2452 C2451 1.523 . S
H2453 C2428 0.950 . S
H2454 C2430 0.950 . S
H2455 C2431 0.949 . S
H2456 C2433 0.950 . S
H2457 C2435 0.950 . S
C2458 C2459 1.349 . S
C2458 C2460 1.327 . S
C2458 H2483 0.950 . S
C2459 C2458 1.349 . S
C2459 C2475 1.349 . S
C2460 C2458 1.327 . S
C2460 C2479 1.429 . S
C2460 H2484 0.950 . S
C2461 C2478 1.574 . S
C2461 C2480 1.368 . S
C2461 H2485 0.949 . S
H2462 C2466 0.949 . S
C2463 C2464 1.349 . S
C2463 C2465 1.327 . S
C2463 H2486 0.950 . S
C2464 C2463 1.349 . S
C2464 C2476 1.349 . S
C2465 C2463 1.327 . S
C2465 C2481 1.429 . S
C2465 H2487 0.950 . S
C2466 H2462 0.949 . S
C2466 C2474 1.574 . S
C2466 C2482 1.368 . S
H2467 C2475 0.950 . S
H2468 C2473 0.950 . S
H2469 C2474 0.949 . S
H2470 C2476 0.950 . S
H2471 C2477 0.950 . S
H2472 C2478 0.949 . S
C2473 H2468 0.950 . S
C2473 C2475 1.327 . S
C2473 C2479 1.429 . S
C2474 C2466 1.574 . S
C2474 H2469 0.949 . S
C2474 C2480 1.368 . S
C2475 C2459 1.349 . S
C2475 H2467 0.950 . S
C2475 C2473 1.327 . S
C2476 C2464 1.349 . S
C2476 H2470 0.950 . S
C2476 C2477 1.327 . S
C2477 H2471 0.950 . S
C2477 C2476 1.327 . S
C2477 C2481 1.429 . S
C2478 C2461 1.574 . S
C2478 H2472 0.949 . S
C2478 C2482 1.368 . S
C2479 C2460 1.429 . S
C2479 C2473 1.429 . S
C2479 C2480 1.523 . S
C2480 C2461 1.368 . S
C2480 C2474 1.368 . S
C2480 C2479 1.523 . S
C2481 C2465 1.429 . S
C2481 C2477 1.429 . S
C2481 C2482 1.523 . S
C2482 C2466 1.368 . S
C2482 C2478 1.368 . S
C2482 C2481 1.523 . S
H2483 C2458 0.950 . S
H2484 C2460 0.950 . S
H2485 C2461 0.949 . S
H2486 C2463 0.950 . S
H2487 C2465 0.950 . S
C2488 C2489 1.349 . S
C2488 C2490 1.327 . S
C2488 H2513 0.950 . S
C2489 C2488 1.349 . S
C2489 C2505 1.349 . S
C2490 C2488 1.327 . S
C2490 C2509 1.429 . S
C2490 H2514 0.950 . S
C2491 C2508 1.574 . S
C2491 C2510 1.368 . S
C2491 H2515 0.949 . S
H2492 C2496 0.949 . S
C2493 C2494 1.349 . S
C2493 C2495 1.327 . S
C2493 H2516 0.950 . S
C2494 C2493 1.349 . S
C2494 C2506 1.349 . S
C2495 C2493 1.327 . S
C2495 C2511 1.429 . S
C2495 H2517 0.950 . S
C2496 H2492 0.949 . S
C2496 C2504 1.574 . S
C2496 C2512 1.368 . S
H2497 C2505 0.950 . S
H2498 C2503 0.950 . S
H2499 C2504 0.949 . S
H2500 C2506 0.950 . S
H2501 C2507 0.950 . S
H2502 C2508 0.949 . S
C2503 H2498 0.950 . S
C2503 C2505 1.327 . S
C2503 C2509 1.429 . S
C2504 C2496 1.574 . S
C2504 H2499 0.949 . S
C2504 C2510 1.368 . S
C2505 C2489 1.349 . S
C2505 H2497 0.950 . S
C2505 C2503 1.327 . S
C2506 C2494 1.349 . S
C2506 H2500 0.950 . S
C2506 C2507 1.327 . S
C2507 H2501 0.950 . S
C2507 C2506 1.327 . S
C2507 C2511 1.429 . S
C2508 C2491 1.574 . S
C2508 H2502 0.949 . S
C2508 C2512 1.368 . S
C2509 C2490 1.429 . S
C2509 C2503 1.429 . S
C2509 C2510 1.523 . S
C2510 C2491 1.368 . S
C2510 C2504 1.368 . S
C2510 C2509 1.523 . S
C2511 C2495 1.429 . S
C2511 C2507 1.429 . S
C2511 C2512 1.523 . S
C2512 C2496 1.368 . S
C2512 C2508 1.368 . S
C2512 C2511 1.523 . S
H2513 C2488 0.950 . S
H2514 C2490 0.950 . S
H2515 C2491 0.949 . S
H2516 C2493 0.950 . S
H2517 C2495 0.950 . S
C2518 C2519 1.349 . S
C2518 C2520 1.327 . S
C2518 H2543 0.950 . S
C2519 C2518 1.349 . S
C2519 C2535 1.349 . S
C2520 C2518 1.327 . S
C2520 C2539 1.429 . S
C2520 H2544 0.950 . S
C2521 C2538 1.574 . S
C2521 C2540 1.368 . S
C2521 H2545 0.949 . S
H2522 C2526 0.949 . S
C2523 C2524 1.349 . S
C2523 C2525 1.327 . S
C2523 H2546 0.950 . S
C2524 C2523 1.349 . S
C2524 C2536 1.349 . S
C2525 C2523 1.327 . S
C2525 C2541 1.429 . S
C2525 H2547 0.950 . S
C2526 H2522 0.949 . S
C2526 C2534 1.574 . S
C2526 C2542 1.368 . S
H2527 C2535 0.950 . S
H2528 C2533 0.950 . S
H2529 C2534 0.949 . S
H2530 C2536 0.950 . S
H2531 C2537 0.950 . S
H2532 C2538 0.949 . S
C2533 H2528 0.950 . S
C2533 C2535 1.327 . S
C2533 C2539 1.429 . S
C2534 C2526 1.574 . S
C2534 H2529 0.949 . S
C2534 C2540 1.368 . S
C2535 C2519 1.349 . S
C2535 H2527 0.950 . S
C2535 C2533 1.327 . S
C2536 C2524 1.349 . S
C2536 H2530 0.950 . S
C2536 C2537 1.327 . S
C2537 H2531 0.950 . S
C2537 C2536 1.327 . S
C2537 C2541 1.429 . S
C2538 C2521 1.574 . S
C2538 H2532 0.949 . S
C2538 C2542 1.368 . S
C2539 C2520 1.429 . S
C2539 C2533 1.429 . S
C2539 C2540 1.523 . S
C2540 C2521 1.368 . S
C2540 C2534 1.368 . S
C2540 C2539 1.523 . S
C2541 C2525 1.429 . S
C2541 C2537 1.429 . S
C2541 C2542 1.523 . S
C2542 C2526 1.368 . S
C2542 C2538 1.368 . S
C2542 C2541 1.523 . S
H2543 C2518 0.950 . S
H2544 C2520 0.950 . S
H2545 C2521 0.949 . S
H2546 C2523 0.950 . S
H2547 C2525 0.950 . S
C2548 C2549 1.349 . S
C2548 C2550 1.327 . S
C2548 H2573 0.950 . S
C2549 C2548 1.349 . S
C2549 C2565 1.349 . S
C2550 C2548 1.327 . S
C2550 C2569 1.429 . S
C2550 H2574 0.950 . S
C2551 C2568 1.574 . S
C2551 C2570 1.368 . S
C2551 H2575 0.949 . S
H2552 C2556 0.949 . S
C2553 C2554 1.349 . S
C2553 C2555 1.327 . S
C2553 H2576 0.950 . S
C2554 C2553 1.349 . S
C2554 C2566 1.349 . S
C2555 C2553 1.327 . S
C2555 C2571 1.429 . S
C2555 H2577 0.950 . S
C2556 H2552 0.949 . S
C2556 C2564 1.574 . S
C2556 C2572 1.368 . S
H2557 C2565 0.950 . S
H2558 C2563 0.950 . S
H2559 C2564 0.949 . S
H2560 C2566 0.950 . S
H2561 C2567 0.950 . S
H2562 C2568 0.949 . S
C2563 H2558 0.950 . S
C2563 C2565 1.327 . S
C2563 C2569 1.429 . S
C2564 C2556 1.574 . S
C2564 H2559 0.949 . S
C2564 C2570 1.368 . S
C2565 C2549 1.349 . S
C2565 H2557 0.950 . S
C2565 C2563 1.327 . S
C2566 C2554 1.349 . S
C2566 H2560 0.950 . S
C2566 C2567 1.327 . S
C2567 H2561 0.950 . S
C2567 C2566 1.327 . S
C2567 C2571 1.429 . S
C2568 C2551 1.574 . S
C2568 H2562 0.949 . S
C2568 C2572 1.368 . S
C2569 C2550 1.429 . S
C2569 C2563 1.429 . S
C2569 C2570 1.523 . S
C2570 C2551 1.368 . S
C2570 C2564 1.368 . S
C2570 C2569 1.523 . S
C2571 C2555 1.429 . S
C2571 C2567 1.429 . S
C2571 C2572 1.523 . S
C2572 C2556 1.368 . S
C2572 C2568 1.368 . S
C2572 C2571 1.523 . S
H2573 C2548 0.950 . S
H2574 C2550 0.950 . S
H2575 C2551 0.949 . S
H2576 C2553 0.950 . S
H2577 C2555 0.950 . S
C2578 C2579 1.349 . S
C2578 C2580 1.327 . S
C2578 H2603 0.950 . S
C2579 C2578 1.349 . S
C2579 C2595 1.349 . S
C2580 C2578 1.327 . S
C2580 C2599 1.429 . S
C2580 H2604 0.950 . S
C2581 C2598 1.574 . S
C2581 C2600 1.368 . S
C2581 H2605 0.949 . S
H2582 C2586 0.949 . S
C2583 C2584 1.349 . S
C2583 C2585 1.327 . S
C2583 H2606 0.950 . S
C2584 C2583 1.349 . S
C2584 C2596 1.349 . S
C2585 C2583 1.327 . S
C2585 C2601 1.429 . S
C2585 H2607 0.950 . S
C2586 H2582 0.949 . S
C2586 C2594 1.574 . S
C2586 C2602 1.368 . S
H2587 C2595 0.950 . S
H2588 C2593 0.950 . S
H2589 C2594 0.949 . S
H2590 C2596 0.950 . S
H2591 C2597 0.950 . S
H2592 C2598 0.949 . S
C2593 H2588 0.950 . S
C2593 C2595 1.327 . S
C2593 C2599 1.429 . S
C2594 C2586 1.574 . S
C2594 H2589 0.949 . S
C2594 C2600 1.368 . S
C2595 C2579 1.349 . S
C2595 H2587 0.950 . S
C2595 C2593 1.327 . S
C2596 C2584 1.349 . S
C2596 H2590 0.950 . S
C2596 C2597 1.327 . S
C2597 H2591 0.950 . S
C2597 C2596 1.327 . S
C2597 C2601 1.429 . S
C2598 C2581 1.574 . S
C2598 H2592 0.949 . S
C2598 C2602 1.368 . S
C2599 C2580 1.429 . S
C2599 C2593 1.429 . S
C2599 C2600 1.523 . S
C2600 C2581 1.368 . S
C2600 C2594 1.368 . S
C2600 C2599 1.523 . S
C2601 C2585 1.429 . S
C2601 C2597 1.429 . S
C2601 C2602 1.523 . S
C2602 C2586 1.368 . S
C2602 C2598 1.368 . S
C2602 C2601 1.523 . S
H2603 C2578 0.950 . S
H2604 C2580 0.950 . S
H2605 C2581 0.949 . S
H2606 C2583 0.950 . S
H2607 C2585 0.950 . S
C2608 C2609 1.349 . S
C2608 C2610 1.327 . S
C2608 H2633 0.950 . S
C2609 C2608 1.349 . S
C2609 C2625 1.349 . S
C2610 C2608 1.327 . S
C2610 C2629 1.429 . S
C2610 H2634 0.950 . S
C2611 C2628 1.574 . S
C2611 C2630 1.368 . S
C2611 H2635 0.949 . S
H2612 C2616 0.949 . S
C2613 C2614 1.349 . S
C2613 C2615 1.327 . S
C2613 H2636 0.950 . S
C2614 C2613 1.349 . S
C2614 C2626 1.349 . S
C2615 C2613 1.327 . S
C2615 C2631 1.429 . S
C2615 H2637 0.950 . S
C2616 H2612 0.949 . S
C2616 C2624 1.574 . S
C2616 C2632 1.368 . S
H2617 C2625 0.950 . S
H2618 C2623 0.950 . S
H2619 C2624 0.949 . S
H2620 C2626 0.950 . S
H2621 C2627 0.950 . S
H2622 C2628 0.949 . S
C2623 H2618 0.950 . S
C2623 C2625 1.327 . S
C2623 C2629 1.429 . S
C2624 C2616 1.574 . S
C2624 H2619 0.949 . S
C2624 C2630 1.368 . S
C2625 C2609 1.349 . S
C2625 H2617 0.950 . S
C2625 C2623 1.327 . S
C2626 C2614 1.349 . S
C2626 H2620 0.950 . S
C2626 C2627 1.327 . S
C2627 H2621 0.950 . S
C2627 C2626 1.327 . S
C2627 C2631 1.429 . S
C2628 C2611 1.574 . S
C2628 H2622 0.949 . S
C2628 C2632 1.368 . S
C2629 C2610 1.429 . S
C2629 C2623 1.429 . S
C2629 C2630 1.523 . S
C2630 C2611 1.368 . S
C2630 C2624 1.368 . S
C2630 C2629 1.523 . S
C2631 C2615 1.429 . S
C2631 C2627 1.429 . S
C2631 C2632 1.523 . S
C2632 C2616 1.368 . S
C2632 C2628 1.368 . S
C2632 C2631 1.523 . S
H2633 C2608 0.950 . S
H2634 C2610 0.950 . S
H2635 C2611 0.949 . S
H2636 C2613 0.950 . S
H2637 C2615 0.950 . S
C2638 C2639 1.349 . S
C2638 C2640 1.327 . S
C2638 H2663 0.950 . S
C2639 C2638 1.349 . S
C2639 C2655 1.349 . S
C2640 C2638 1.327 . S
C2640 C2659 1.429 . S
C2640 H2664 0.950 . S
C2641 C2658 1.574 . S
C2641 C2660 1.368 . S
C2641 H2665 0.949 . S
H2642 C2646 0.949 . S
C2643 C2644 1.349 . S
C2643 C2645 1.327 . S
C2643 H2666 0.950 . S
C2644 C2643 1.349 . S
C2644 C2656 1.349 . S
C2645 C2643 1.327 . S
C2645 C2661 1.429 . S
C2645 H2667 0.950 . S
C2646 H2642 0.949 . S
C2646 C2654 1.574 . S
C2646 C2662 1.368 . S
H2647 C2655 0.950 . S
H2648 C2653 0.950 . S
H2649 C2654 0.949 . S
H2650 C2656 0.950 . S
H2651 C2657 0.950 . S
H2652 C2658 0.949 . S
C2653 H2648 0.950 . S
C2653 C2655 1.327 . S
C2653 C2659 1.429 . S
C2654 C2646 1.574 . S
C2654 H2649 0.949 . S
C2654 C2660 1.368 . S
C2655 C2639 1.349 . S
C2655 H2647 0.950 . S
C2655 C2653 1.327 . S
C2656 C2644 1.349 . S
C2656 H2650 0.950 . S
C2656 C2657 1.327 . S
C2657 H2651 0.950 . S
C2657 C2656 1.327 . S
C2657 C2661 1.429 . S
C2658 C2641 1.574 . S
C2658 H2652 0.949 . S
C2658 C2662 1.368 . S
C2659 C2640 1.429 . S
C2659 C2653 1.429 . S
C2659 C2660 1.523 . S
C2660 C2641 1.368 . S
C2660 C2654 1.368 . S
C2660 C2659 1.523 . S
C2661 C2645 1.429 . S
C2661 C2657 1.429 . S
C2661 C2662 1.523 . S
C2662 C2646 1.368 . S
C2662 C2658 1.368 . S
C2662 C2661 1.523 . S
H2663 C2638 0.950 . S
H2664 C2640 0.950 . S
H2665 C2641 0.949 . S
H2666 C2643 0.950 . S
H2667 C2645 0.950 . S
C2668 C2669 1.349 . S
C2668 C2670 1.327 . S
C2668 H2693 0.950 . S
C2669 C2668 1.349 . S
C2669 C2685 1.349 . S
C2670 C2668 1.327 . S
C2670 C2689 1.429 . S
C2670 H2694 0.950 . S
C2671 C2688 1.574 . S
C2671 C2690 1.368 . S
C2671 H2695 0.949 . S
H2672 C2676 0.949 . S
C2673 C2674 1.349 . S
C2673 C2675 1.327 . S
C2673 H2696 0.950 . S
C2674 C2673 1.349 . S
C2674 C2686 1.349 . S
C2675 C2673 1.327 . S
C2675 C2691 1.429 . S
C2675 H2697 0.950 . S
C2676 H2672 0.949 . S
C2676 C2684 1.574 . S
C2676 C2692 1.368 . S
H2677 C2685 0.950 . S
H2678 C2683 0.950 . S
H2679 C2684 0.949 . S
H2680 C2686 0.950 . S
H2681 C2687 0.950 . S
H2682 C2688 0.949 . S
C2683 H2678 0.950 . S
C2683 C2685 1.327 . S
C2683 C2689 1.429 . S
C2684 C2676 1.574 . S
C2684 H2679 0.949 . S
C2684 C2690 1.368 . S
C2685 C2669 1.349 . S
C2685 H2677 0.950 . S
C2685 C2683 1.327 . S
C2686 C2674 1.349 . S
C2686 H2680 0.950 . S
C2686 C2687 1.327 . S
C2687 H2681 0.950 . S
C2687 C2686 1.327 . S
C2687 C2691 1.429 . S
C2688 C2671 1.574 . S
C2688 H2682 0.949 . S
C2688 C2692 1.368 . S
C2689 C2670 1.429 . S
C2689 C2683 1.429 . S
C2689 C2690 1.523 . S
C2690 C2671 1.368 . S
C2690 C2684 1.368 . S
C2690 C2689 1.523 . S
C2691 C2675 1.429 . S
C2691 C2687 1.429 . S
C2691 C2692 1.523 . S
C2692 C2676 1.368 . S
C2692 C2688 1.368 . S
C2692 C2691 1.523 . S
H2693 C2668 0.950 . S
H2694 C2670 0.950 . S
H2695 C2671 0.949 . S
H2696 C2673 0.950 . S
H2697 C2675 0.950 . S
C2698 C2699 1.349 . S
C2698 C2700 1.327 . S
C2698 H2723 0.950 . S
C2699 C2698 1.349 . S
C2699 C2715 1.349 . S
C2700 C2698 1.327 . S
C2700 C2719 1.429 . S
C2700 H2724 0.950 . S
C2701 C2718 1.574 . S
C2701 C2720 1.368 . S
C2701 H2725 0.949 . S
H2702 C2706 0.949 . S
C2703 C2704 1.349 . S
C2703 C2705 1.327 . S
C2703 H2726 0.950 . S
C2704 C2703 1.349 . S
C2704 C2716 1.349 . S
C2705 C2703 1.327 . S
C2705 C2721 1.429 . S
C2705 H2727 0.950 . S
C2706 H2702 0.949 . S
C2706 C2714 1.574 . S
C2706 C2722 1.368 . S
H2707 C2715 0.950 . S
H2708 C2713 0.950 . S
H2709 C2714 0.949 . S
H2710 C2716 0.950 . S
H2711 C2717 0.950 . S
H2712 C2718 0.949 . S
C2713 H2708 0.950 . S
C2713 C2715 1.327 . S
C2713 C2719 1.429 . S
C2714 C2706 1.574 . S
C2714 H2709 0.949 . S
C2714 C2720 1.368 . S
C2715 C2699 1.349 . S
C2715 H2707 0.950 . S
C2715 C2713 1.327 . S
C2716 C2704 1.349 . S
C2716 H2710 0.950 . S
C2716 C2717 1.327 . S
C2717 H2711 0.950 . S
C2717 C2716 1.327 . S
C2717 C2721 1.429 . S
C2718 C2701 1.574 . S
C2718 H2712 0.949 . S
C2718 C2722 1.368 . S
C2719 C2700 1.429 . S
C2719 C2713 1.429 . S
C2719 C2720 1.523 . S
C2720 C2701 1.368 . S
C2720 C2714 1.368 . S
C2720 C2719 1.523 . S
C2721 C2705 1.429 . S
C2721 C2717 1.429 . S
C2721 C2722 1.523 . S
C2722 C2706 1.368 . S
C2722 C2718 1.368 . S
C2722 C2721 1.523 . S
H2723 C2698 0.950 . S
H2724 C2700 0.950 . S
H2725 C2701 0.949 . S
H2726 C2703 0.950 . S
H2727 C2705 0.950 . S
C2728 C2729 1.349 . S
C2728 C2730 1.327 . S
C2728 H2753 0.950 . S
C2729 C2728 1.349 . S
C2729 C2745 1.349 . S
C2730 C2728 1.327 . S
C2730 C2749 1.429 . S
C2730 H2754 0.950 . S
C2731 C2748 1.574 . S
C2731 C2750 1.368 . S
C2731 H2755 0.949 . S
H2732 C2736 0.949 . S
C2733 C2734 1.349 . S
C2733 C2735 1.327 . S
C2733 H2756 0.950 . S
C2734 C2733 1.349 . S
C2734 C2746 1.349 . S
C2735 C2733 1.327 . S
C2735 C2751 1.429 . S
C2735 H2757 0.950 . S
C2736 H2732 0.949 . S
C2736 C2744 1.574 . S
C2736 C2752 1.368 . S
H2737 C2745 0.950 . S
H2738 C2743 0.950 . S
H2739 C2744 0.949 . S
H2740 C2746 0.950 . S
H2741 C2747 0.950 . S
H2742 C2748 0.949 . S
C2743 H2738 0.950 . S
C2743 C2745 1.327 . S
C2743 C2749 1.429 . S
C2744 C2736 1.574 . S
C2744 H2739 0.949 . S
C2744 C2750 1.368 . S
C2745 C2729 1.349 . S
C2745 H2737 0.950 . S
C2745 C2743 1.327 . S
C2746 C2734 1.349 . S
C2746 H2740 0.950 . S
C2746 C2747 1.327 . S
C2747 H2741 0.950 . S
C2747 C2746 1.327 . S
C2747 C2751 1.429 . S
C2748 C2731 1.574 . S
C2748 H2742 0.949 . S
C2748 C2752 1.368 . S
C2749 C2730 1.429 . S
C2749 C2743 1.429 . S
C2749 C2750 1.523 . S
C2750 C2731 1.368 . S
C2750 C2744 1.368 . S
C2750 C2749 1.523 . S
C2751 C2735 1.429 . S
C2751 C2747 1.429 . S
C2751 C2752 1.523 . S
C2752 C2736 1.368 . S
C2752 C2748 1.368 . S
C2752 C2751 1.523 . S
H2753 C2728 0.950 . S
H2754 C2730 0.950 . S
H2755 C2731 0.949 . S
H2756 C2733 0.950 . S
H2757 C2735 0.950 . S
C2758 C2759 1.349 . S
C2758 C2760 1.327 . S
C2758 H2783 0.950 . S
C2759 C2758 1.349 . S
C2759 C2775 1.349 . S
C2760 C2758 1.327 . S
C2760 C2779 1.429 . S
C2760 H2784 0.950 . S
C2761 C2778 1.574 . S
C2761 C2780 1.368 . S
C2761 H2785 0.949 . S
H2762 C2766 0.949 . S
C2763 C2764 1.349 . S
C2763 C2765 1.327 . S
C2763 H2786 0.950 . S
C2764 C2763 1.349 . S
C2764 C2776 1.349 . S
C2765 C2763 1.327 . S
C2765 C2781 1.429 . S
C2765 H2787 0.950 . S
C2766 H2762 0.949 . S
C2766 C2774 1.574 . S
C2766 C2782 1.368 . S
H2767 C2775 0.950 . S
H2768 C2773 0.950 . S
H2769 C2774 0.949 . S
H2770 C2776 0.950 . S
H2771 C2777 0.950 . S
H2772 C2778 0.949 . S
C2773 H2768 0.950 . S
C2773 C2775 1.327 . S
C2773 C2779 1.429 . S
C2774 C2766 1.574 . S
C2774 H2769 0.949 . S
C2774 C2780 1.368 . S
C2775 C2759 1.349 . S
C2775 H2767 0.950 . S
C2775 C2773 1.327 . S
C2776 C2764 1.349 . S
C2776 H2770 0.950 . S
C2776 C2777 1.327 . S
C2777 H2771 0.950 . S
C2777 C2776 1.327 . S
C2777 C2781 1.429 . S
C2778 C2761 1.574 . S
C2778 H2772 0.949 . S
C2778 C2782 1.368 . S
C2779 C2760 1.429 . S
C2779 C2773 1.429 . S
C2779 C2780 1.523 . S
C2780 C2761 1.368 . S
C2780 C2774 1.368 . S
C2780 C2779 1.523 . S
C2781 C2765 1.429 . S
C2781 C2777 1.429 . S
C2781 C2782 1.523 . S
C2782 C2766 1.368 . S
C2782 C2778 1.368 . S
C2782 C2781 1.523 . S
H2783 C2758 0.950 . S
H2784 C2760 0.950 . S
H2785 C2761 0.949 . S
H2786 C2763 0.950 . S
H2787 C2765 0.950 . S
C2788 C2789 1.349 . S
C2788 C2790 1.327 . S
C2788 H2813 0.950 . S
C2789 C2788 1.349 . S
C2789 C2805 1.349 . S
C2790 C2788 1.327 . S
C2790 C2809 1.429 . S
C2790 H2814 0.950 . S
C2791 C2808 1.574 . S
C2791 C2810 1.368 . S
C2791 H2815 0.949 . S
H2792 C2796 0.949 . S
C2793 C2794 1.349 . S
C2793 C2795 1.327 . S
C2793 H2816 0.950 . S
C2794 C2793 1.349 . S
C2794 C2806 1.349 . S
C2795 C2793 1.327 . S
C2795 C2811 1.429 . S
C2795 H2817 0.950 . S
C2796 H2792 0.949 . S
C2796 C2804 1.574 . S
C2796 C2812 1.368 . S
H2797 C2805 0.950 . S
H2798 C2803 0.950 . S
H2799 C2804 0.949 . S
H2800 C2806 0.950 . S
H2801 C2807 0.950 . S
H2802 C2808 0.949 . S
C2803 H2798 0.950 . S
C2803 C2805 1.327 . S
C2803 C2809 1.429 . S
C2804 C2796 1.574 . S
C2804 H2799 0.949 . S
C2804 C2810 1.368 . S
C2805 C2789 1.349 . S
C2805 H2797 0.950 . S
C2805 C2803 1.327 . S
C2806 C2794 1.349 . S
C2806 H2800 0.950 . S
C2806 C2807 1.327 . S
C2807 H2801 0.950 . S
C2807 C2806 1.327 . S
C2807 C2811 1.429 . S
C2808 C2791 1.574 . S
C2808 H2802 0.949 . S
C2808 C2812 1.368 . S
C2809 C2790 1.429 . S
C2809 C2803 1.429 . S
C2809 C2810 1.523 . S
C2810 C2791 1.368 . S
C2810 C2804 1.368 . S
C2810 C2809 1.523 . S
C2811 C2795 1.429 . S
C2811 C2807 1.429 . S
C2811 C2812 1.523 . S
C2812 C2796 1.368 . S
C2812 C2808 1.368 . S
C2812 C2811 1.523 . S
H2813 C2788 0.950 . S
H2814 C2790 0.950 . S
H2815 C2791 0.949 . S
H2816 C2793 0.950 . S
H2817 C2795 0.950 . S
C2818 C2819 1.349 . S
C2818 C2820 1.327 . S
C2818 H2843 0.950 . S
C2819 C2818 1.349 . S
C2819 C2835 1.349 . S
C2820 C2818 1.327 . S
C2820 C2839 1.429 . S
C2820 H2844 0.950 . S
C2821 C2838 1.574 . S
C2821 C2840 1.368 . S
C2821 H2845 0.949 . S
H2822 C2826 0.949 . S
C2823 C2824 1.349 . S
C2823 C2825 1.327 . S
C2823 H2846 0.950 . S
C2824 C2823 1.349 . S
C2824 C2836 1.349 . S
C2825 C2823 1.327 . S
C2825 C2841 1.429 . S
C2825 H2847 0.950 . S
C2826 H2822 0.949 . S
C2826 C2834 1.574 1_455 S
C2826 C2842 1.368 . S
H2827 C2835 0.950 . S
H2828 C2833 0.950 . S
H2829 C2834 0.949 . S
H2830 C2836 0.950 . S
H2831 C2837 0.950 . S
H2832 C2838 0.941 1_455 S
C2833 H2828 0.950 . S
C2833 C2835 1.327 . S
C2833 C2839 1.429 . S
C2834 C2826 1.574 1_655 S
C2834 H2829 0.949 . S
C2834 C2840 1.368 . S
C2835 C2819 1.349 . S
C2835 H2827 0.950 . S
C2835 C2833 1.327 . S
C2836 C2824 1.349 . S
C2836 H2830 0.950 . S
C2836 C2837 1.327 . S
C2837 H2831 0.950 . S
C2837 C2836 1.327 . S
C2837 C2841 1.429 . S
C2838 C2821 1.574 . S
C2838 H2832 0.941 1_655 S
C2838 C2842 1.368 1_655 S
C2839 C2820 1.429 . S
C2839 C2833 1.429 . S
C2839 C2840 1.523 . S
C2840 C2821 1.368 . S
C2840 C2834 1.368 . S
C2840 C2839 1.523 . S
C2841 C2825 1.429 . S
C2841 C2837 1.429 . S
C2841 C2842 1.523 . S
C2842 C2826 1.368 . S
C2842 C2838 1.368 1_455 S
C2842 C2841 1.523 . S
H2843 C2818 0.950 . S
H2844 C2820 0.950 . S
H2845 C2821 0.949 . S
H2846 C2823 0.950 . S
H2847 C2825 0.950 . S
C2848 C2849 1.349 . S
C2848 C2850 1.327 . S
C2848 H2873 0.950 . S
C2849 C2848 1.349 . S
C2849 C2865 1.349 . S
C2850 C2848 1.327 . S
C2850 C2869 1.429 . S
C2850 H2874 0.950 . S
C2851 C2868 1.574 . S
C2851 C2870 1.368 . S
C2851 H2875 0.949 . S
H2852 C2856 0.949 . S
C2853 C2854 1.349 . S
C2853 C2855 1.327 . S
C2853 H2876 0.950 . S
C2854 C2853 1.349 . S
C2854 C2866 1.349 . S
C2855 C2853 1.327 . S
C2855 C2871 1.429 . S
C2855 H2877 0.950 . S
C2856 H2852 0.949 . S
C2856 C2864 1.574 . S
C2856 C2872 1.368 . S
H2857 C2865 0.950 . S
H2858 C2863 0.950 . S
H2859 C2864 0.949 . S
H2860 C2866 0.950 . S
H2861 C2867 0.950 . S
H2862 C2868 0.949 . S
C2863 H2858 0.950 . S
C2863 C2865 1.327 . S
C2863 C2869 1.429 . S
C2864 C2856 1.574 . S
C2864 H2859 0.949 . S
C2864 C2870 1.368 . S
C2865 C2849 1.349 . S
C2865 H2857 0.950 . S
C2865 C2863 1.327 . S
C2866 C2854 1.349 . S
C2866 H2860 0.950 . S
C2866 C2867 1.327 . S
C2867 H2861 0.950 . S
C2867 C2866 1.327 . S
C2867 C2871 1.429 . S
C2868 C2851 1.574 . S
C2868 H2862 0.949 . S
C2868 C2872 1.368 . S
C2869 C2850 1.429 . S
C2869 C2863 1.429 . S
C2869 C2870 1.523 . S
C2870 C2851 1.368 . S
C2870 C2864 1.368 . S
C2870 C2869 1.523 . S
C2871 C2855 1.429 . S
C2871 C2867 1.429 . S
C2871 C2872 1.523 . S
C2872 C2856 1.368 . S
C2872 C2868 1.368 . S
C2872 C2871 1.523 . S
H2873 C2848 0.950 . S
H2874 C2850 0.950 . S
H2875 C2851 0.949 . S
H2876 C2853 0.950 . S
H2877 C2855 0.950 . S
C2878 C2879 1.349 . S
C2878 C2880 1.327 . S
C2878 H2903 0.950 . S
C2879 C2878 1.349 . S
C2879 C2895 1.349 . S
C2880 C2878 1.327 . S
C2880 C2899 1.429 . S
C2880 H2904 0.950 . S
C2881 C2898 1.574 . S
C2881 C2900 1.368 . S
C2881 H2905 0.949 . S
H2882 C2886 0.949 . S
C2883 C2884 1.349 . S
C2883 C2885 1.327 . S
C2883 H2906 0.950 . S
C2884 C2883 1.349 . S
C2884 C2896 1.349 . S
C2885 C2883 1.327 . S
C2885 C2901 1.429 . S
C2885 H2907 0.950 . S
C2886 H2882 0.949 . S
C2886 C2894 1.574 1_554 S
C2886 C2902 1.368 . S
H2887 C2895 0.950 . S
H2888 C2893 0.950 . S
H2889 C2894 0.949 . S
H2890 C2896 0.950 . S
H2891 C2897 0.950 . S
H2892 C2898 0.949 . S
C2893 H2888 0.950 . S
C2893 C2895 1.327 . S
C2893 C2899 1.429 . S
C2894 C2886 1.574 1_556 S
C2894 H2889 0.949 . S
C2894 C2900 1.368 . S
C2895 C2879 1.349 . S
C2895 H2887 0.950 . S
C2895 C2893 1.327 . S
C2896 C2884 1.349 . S
C2896 H2890 0.950 . S
C2896 C2897 1.327 . S
C2897 H2891 0.950 . S
C2897 C2896 1.327 . S
C2897 C2901 1.429 . S
C2898 C2881 1.574 . S
C2898 H2892 0.949 . S
C2898 C2902 1.368 1_556 S
C2899 C2880 1.429 . S
C2899 C2893 1.429 . S
C2899 C2900 1.523 . S
C2900 C2881 1.368 . S
C2900 C2894 1.368 . S
C2900 C2899 1.523 . S
C2901 C2885 1.429 . S
C2901 C2897 1.429 . S
C2901 C2902 1.523 . S
C2902 C2886 1.368 . S
C2902 C2898 1.368 1_554 S
C2902 C2901 1.523 . S
H2903 C2878 0.950 . S
H2904 C2880 0.950 . S
H2905 C2881 0.949 . S
H2906 C2883 0.950 . S
H2907 C2885 0.950 . S
C2908 C2909 1.349 . S
C2908 C2910 1.327 . S
C2908 H2933 0.950 . S
C2909 C2908 1.349 . S
C2909 C2925 1.349 . S
C2910 C2908 1.327 . S
C2910 C2929 1.429 . S
C2910 H2934 0.950 . S
C2911 C2928 1.574 . S
C2911 C2930 1.368 . S
C2911 H2935 0.949 . S
H2912 C2916 0.949 . S
C2913 C2914 1.349 . S
C2913 C2915 1.327 . S
C2913 H2936 0.950 . S
C2914 C2913 1.349 . S
C2914 C2926 1.349 . S
C2915 C2913 1.327 . S
C2915 C2931 1.429 . S
C2915 H2937 0.950 . S
C2916 H2912 0.949 . S
C2916 C2924 1.574 . S
C2916 C2932 1.368 . S
H2917 C2925 0.950 . S
H2918 C2923 0.950 . S
H2919 C2924 0.949 . S
H2920 C2926 0.950 . S
H2921 C2927 0.950 . S
H2922 C2928 0.949 . S
C2923 H2918 0.950 . S
C2923 C2925 1.327 . S
C2923 C2929 1.429 . S
C2924 C2916 1.574 . S
C2924 H2919 0.949 . S
C2924 C2930 1.368 . S
C2925 C2909 1.349 . S
C2925 H2917 0.950 . S
C2925 C2923 1.327 . S
C2926 C2914 1.349 . S
C2926 H2920 0.950 . S
C2926 C2927 1.327 . S
C2927 H2921 0.950 . S
C2927 C2926 1.327 . S
C2927 C2931 1.429 . S
C2928 C2911 1.574 . S
C2928 H2922 0.949 . S
C2928 C2932 1.368 . S
C2929 C2910 1.429 . S
C2929 C2923 1.429 . S
C2929 C2930 1.523 . S
C2930 C2911 1.368 . S
C2930 C2924 1.368 . S
C2930 C2929 1.523 . S
C2931 C2915 1.429 . S
C2931 C2927 1.429 . S
C2931 C2932 1.523 . S
C2932 C2916 1.368 . S
C2932 C2928 1.368 . S
C2932 C2931 1.523 . S
H2933 C2908 0.950 . S
H2934 C2910 0.950 . S
H2935 C2911 0.949 . S
H2936 C2913 0.950 . S
H2937 C2915 0.950 . S
C2938 C2939 1.349 . S
C2938 C2940 1.327 . S
C2938 H2963 0.950 . S
C2939 C2938 1.349 . S
C2939 C2955 1.349 . S
C2940 C2938 1.327 . S
C2940 C2959 1.429 . S
C2940 H2964 0.950 . S
C2941 C2958 1.574 . S
C2941 C2960 1.368 . S
C2941 H2965 0.949 . S
H2942 C2946 0.949 . S
C2943 C2944 1.349 . S
C2943 C2945 1.327 . S
C2943 H2966 0.950 . S
C2944 C2943 1.349 . S
C2944 C2956 1.349 . S
C2945 C2943 1.327 . S
C2945 C2961 1.429 . S
C2945 H2967 0.950 . S
C2946 H2942 0.949 . S
C2946 C2954 1.574 . S
C2946 C2962 1.368 . S
H2947 C2955 0.950 . S
H2948 C2953 0.950 . S
H2949 C2954 0.949 . S
H2950 C2956 0.950 . S
H2951 C2957 0.950 . S
H2952 C2958 0.949 . S
C2953 H2948 0.950 . S
C2953 C2955 1.327 . S
C2953 C2959 1.429 . S
C2954 C2946 1.574 . S
C2954 H2949 0.949 . S
C2954 C2960 1.368 . S
C2955 C2939 1.349 . S
C2955 H2947 0.950 . S
C2955 C2953 1.327 . S
C2956 C2944 1.349 . S
C2956 H2950 0.950 . S
C2956 C2957 1.327 . S
C2957 H2951 0.950 . S
C2957 C2956 1.327 . S
C2957 C2961 1.429 . S
C2958 C2941 1.574 . S
C2958 H2952 0.949 . S
C2958 C2962 1.368 . S
C2959 C2940 1.429 . S
C2959 C2953 1.429 . S
C2959 C2960 1.523 . S
C2960 C2941 1.368 . S
C2960 C2954 1.368 . S
C2960 C2959 1.523 . S
C2961 C2945 1.429 . S
C2961 C2957 1.429 . S
C2961 C2962 1.523 . S
C2962 C2946 1.368 . S
C2962 C2958 1.368 . S
C2962 C2961 1.523 . S
H2963 C2938 0.950 . S
H2964 C2940 0.950 . S
H2965 C2941 0.949 . S
H2966 C2943 0.950 . S
H2967 C2945 0.950 . S
C2968 C2969 1.349 . S
C2968 C2970 1.327 . S
C2968 H2993 0.950 . S
C2969 C2968 1.349 . S
C2969 C2985 1.349 . S
C2970 C2968 1.327 . S
C2970 C2989 1.429 . S
C2970 H2994 0.950 . S
C2971 C2988 1.574 . S
C2971 C2990 1.368 . S
C2971 H2995 0.949 . S
H2972 C2976 0.949 . S
C2973 C2974 1.349 . S
C2973 C2975 1.327 . S
C2973 H2996 0.950 . S
C2974 C2973 1.349 . S
C2974 C2986 1.349 . S
C2975 C2973 1.327 . S
C2975 C2991 1.429 . S
C2975 H2997 0.950 . S
C2976 H2972 0.949 . S
C2976 C2984 1.574 . S
C2976 C2992 1.368 . S
H2977 C2985 0.950 . S
H2978 C2983 0.950 . S
H2979 C2984 0.949 . S
H2980 C2986 0.950 . S
H2981 C2987 0.950 . S
H2982 C2988 0.949 . S
C2983 H2978 0.950 . S
C2983 C2985 1.327 . S
C2983 C2989 1.429 . S
C2984 C2976 1.574 . S
C2984 H2979 0.949 . S
C2984 C2990 1.368 . S
C2985 C2969 1.349 . S
C2985 H2977 0.950 . S
C2985 C2983 1.327 . S
C2986 C2974 1.349 . S
C2986 H2980 0.950 . S
C2986 C2987 1.327 . S
C2987 H2981 0.950 . S
C2987 C2986 1.327 . S
C2987 C2991 1.429 . S
C2988 C2971 1.574 . S
C2988 H2982 0.949 . S
C2988 C2992 1.368 . S
C2989 C2970 1.429 . S
C2989 C2983 1.429 . S
C2989 C2990 1.523 . S
C2990 C2971 1.368 . S
C2990 C2984 1.368 . S
C2990 C2989 1.523 . S
C2991 C2975 1.429 . S
C2991 C2987 1.429 . S
C2991 C2992 1.523 . S
C2992 C2976 1.368 . S
C2992 C2988 1.368 . S
C2992 C2991 1.523 . S
H2993 C2968 0.950 . S
H2994 C2970 0.950 . S
H2995 C2971 0.949 . S
H2996 C2973 0.950 . S
H2997 C2975 0.950 . S
C2998 C2999 1.349 . S
C2998 C3000 1.327 . S
C2998 H3023 0.950 . S
C2999 C2998 1.349 . S
C2999 C3015 1.349 . S
C3000 C2998 1.327 . S
C3000 C3019 1.429 . S
C3000 H3024 0.950 . S
C3001 C3018 1.574 1_554 S
C3001 C3020 1.368 . S
C3001 H3025 0.949 . S
H3002 C3006 0.949 . S
C3003 C3004 1.349 . S
C3003 C3005 1.327 . S
C3003 H3026 0.950 . S
C3004 C3003 1.349 . S
C3004 C3016 1.349 . S
C3005 C3003 1.327 . S
C3005 C3021 1.429 . S
C3005 H3027 0.950 . S
C3006 H3002 0.949 . S
C3006 C3014 1.574 . S
C3006 C3022 1.368 1_554 S
H3007 C3015 0.950 1_655 S
H3008 C3013 0.950 . S
H3009 C3014 0.949 . S
H3010 C3016 0.950 . S
H3011 C3017 0.950 . S
H3012 C3018 0.949 . S
C3013 H3008 0.950 . S
C3013 C3015 1.327 . S
C3013 C3019 1.429 . S
C3014 C3006 1.574 . S
C3014 H3009 0.949 . S
C3014 C3020 1.368 . S
C3015 C2999 1.349 . S
C3015 H3007 0.950 1_455 S
C3015 C3013 1.327 . S
C3016 C3004 1.349 . S
C3016 H3010 0.950 . S
C3016 C3017 1.327 . S
C3017 H3011 0.950 . S
C3017 C3016 1.327 . S
C3017 C3021 1.429 . S
C3018 C3001 1.574 1_556 S
C3018 H3012 0.949 . S
C3018 C3022 1.368 . S
C3019 C3000 1.429 . S
C3019 C3013 1.429 . S
C3019 C3020 1.523 . S
C3020 C3001 1.368 . S
C3020 C3014 1.368 . S
C3020 C3019 1.523 . S
C3021 C3005 1.429 . S
C3021 C3017 1.429 . S
C3021 C3022 1.523 . S
C3022 C3006 1.368 1_556 S
C3022 C3018 1.368 . S
C3022 C3021 1.523 . S
H3023 C2998 0.950 . S
H3024 C3000 0.950 . S
H3025 C3001 0.949 . S
H3026 C3003 0.950 . S
H3027 C3005 0.950 . S
C3028 C3029 1.349 . S
C3028 C3030 1.327 . S
C3028 H3053 0.950 . S
C3029 C3028 1.349 . S
C3029 C3045 1.349 . S
C3030 C3028 1.327 . S
C3030 C3049 1.429 . S
C3030 H3054 0.950 . S
C3031 C3048 1.574 . S
C3031 C3050 1.368 . S
C3031 H3055 0.949 . S
H3032 C3036 0.949 . S
C3033 C3034 1.349 . S
C3033 C3035 1.327 . S
C3033 H3056 0.950 . S
C3034 C3033 1.349 . S
C3034 C3046 1.349 . S
C3035 C3033 1.327 . S
C3035 C3051 1.429 . S
C3035 H3057 0.950 . S
C3036 H3032 0.949 . S
C3036 C3044 1.574 . S
C3036 C3052 1.368 . S
H3037 C3045 0.950 . S
H3038 C3043 0.950 . S
H3039 C3044 0.949 . S
H3040 C3046 0.950 . S
H3041 C3047 0.950 . S
H3042 C3048 0.949 . S
C3043 H3038 0.950 . S
C3043 C3045 1.327 . S
C3043 C3049 1.429 . S
C3044 C3036 1.574 . S
C3044 H3039 0.949 . S
C3044 C3050 1.368 . S
C3045 C3029 1.349 . S
C3045 H3037 0.950 . S
C3045 C3043 1.327 . S
C3046 C3034 1.349 . S
C3046 H3040 0.950 . S
C3046 C3047 1.327 . S
C3047 H3041 0.950 . S
C3047 C3046 1.327 . S
C3047 C3051 1.429 . S
C3048 C3031 1.574 . S
C3048 H3042 0.949 . S
C3048 C3052 1.368 . S
C3049 C3030 1.429 . S
C3049 C3043 1.429 . S
C3049 C3050 1.523 . S
C3050 C3031 1.368 . S
C3050 C3044 1.368 . S
C3050 C3049 1.523 . S
C3051 C3035 1.429 . S
C3051 C3047 1.429 . S
C3051 C3052 1.523 . S
C3052 C3036 1.368 . S
C3052 C3048 1.368 . S
C3052 C3051 1.523 . S
H3053 C3028 0.950 . S
H3054 C3030 0.950 . S
H3055 C3031 0.949 . S
H3056 C3033 0.950 . S
H3057 C3035 0.950 . S
C3058 C3059 1.349 . S
C3058 C3060 1.327 . S
C3058 H3083 0.950 . S
C3059 C3058 1.349 . S
C3059 C3075 1.349 . S
C3060 C3058 1.327 . S
C3060 C3079 1.429 . S
C3060 H3084 0.950 . S
C3061 C3078 1.574 . S
C3061 C3080 1.368 . S
C3061 H3085 0.949 . S
H3062 C3066 0.949 . S
C3063 C3064 1.349 . S
C3063 C3065 1.327 . S
C3063 H3086 0.950 . S
C3064 C3063 1.349 . S
C3064 C3076 1.349 . S
C3065 C3063 1.327 . S
C3065 C3081 1.429 . S
C3065 H3087 0.950 . S
C3066 H3062 0.949 . S
C3066 C3074 1.574 . S
C3066 C3082 1.368 . S
H3067 C3075 0.950 . S
H3068 C3073 0.950 . S
H3069 C3074 0.949 . S
H3070 C3076 0.950 . S
H3071 C3077 0.950 . S
H3072 C3078 0.949 . S
C3073 H3068 0.950 . S
C3073 C3075 1.327 . S
C3073 C3079 1.429 . S
C3074 C3066 1.574 . S
C3074 H3069 0.949 . S
C3074 C3080 1.368 . S
C3075 C3059 1.349 . S
C3075 H3067 0.950 . S
C3075 C3073 1.327 . S
C3076 C3064 1.349 . S
C3076 H3070 0.950 . S
C3076 C3077 1.327 . S
C3077 H3071 0.950 . S
C3077 C3076 1.327 . S
C3077 C3081 1.429 . S
C3078 C3061 1.574 . S
C3078 H3072 0.949 . S
C3078 C3082 1.368 . S
C3079 C3060 1.429 . S
C3079 C3073 1.429 . S
C3079 C3080 1.523 . S
C3080 C3061 1.368 . S
C3080 C3074 1.368 . S
C3080 C3079 1.523 . S
C3081 C3065 1.429 . S
C3081 C3077 1.429 . S
C3081 C3082 1.523 . S
C3082 C3066 1.368 . S
C3082 C3078 1.368 . S
C3082 C3081 1.523 . S
H3083 C3058 0.950 . S
H3084 C3060 0.950 . S
H3085 C3061 0.949 . S
H3086 C3063 0.950 . S
H3087 C3065 0.950 . S
C3088 C3089 1.349 . S
C3088 C3090 1.327 . S
C3088 H3113 0.950 . S
C3089 C3088 1.349 . S
C3089 C3105 1.349 . S
C3090 C3088 1.327 . S
C3090 C3109 1.429 . S
C3090 H3114 0.950 . S
C3091 C3108 1.574 . S
C3091 C3110 1.368 . S
C3091 H3115 0.949 . S
H3092 C3096 0.949 . S
C3093 C3094 1.349 . S
C3093 C3095 1.327 . S
C3093 H3116 0.950 . S
C3094 C3093 1.349 . S
C3094 C3106 1.349 . S
C3095 C3093 1.327 . S
C3095 C3111 1.429 . S
C3095 H3117 0.950 . S
C3096 H3092 0.949 . S
C3096 C3104 1.574 . S
C3096 C3112 1.368 . S
H3097 C3105 0.950 . S
H3098 C3103 0.950 . S
H3099 C3104 0.949 . S
H3100 C3106 0.950 . S
H3101 C3107 0.950 . S
H3102 C3108 0.949 . S
C3103 H3098 0.950 . S
C3103 C3105 1.327 . S
C3103 C3109 1.429 . S
C3104 C3096 1.574 . S
C3104 H3099 0.949 . S
C3104 C3110 1.368 . S
C3105 C3089 1.349 . S
C3105 H3097 0.950 . S
C3105 C3103 1.327 . S
C3106 C3094 1.349 . S
C3106 H3100 0.950 . S
C3106 C3107 1.327 . S
C3107 H3101 0.950 . S
C3107 C3106 1.327 . S
C3107 C3111 1.429 . S
C3108 C3091 1.574 . S
C3108 H3102 0.949 . S
C3108 C3112 1.368 . S
C3109 C3090 1.429 . S
C3109 C3103 1.429 . S
C3109 C3110 1.523 . S
C3110 C3091 1.368 . S
C3110 C3104 1.368 . S
C3110 C3109 1.523 . S
C3111 C3095 1.429 . S
C3111 C3107 1.429 . S
C3111 C3112 1.523 . S
C3112 C3096 1.368 . S
C3112 C3108 1.368 . S
C3112 C3111 1.523 . S
H3113 C3088 0.950 . S
H3114 C3090 0.950 . S
H3115 C3091 0.949 . S
H3116 C3093 0.950 . S
H3117 C3095 0.950 . S
C3118 C3119 1.349 . S
C3118 C3120 1.327 . S
C3118 H3143 0.950 . S
C3119 C3118 1.349 . S
C3119 C3135 1.349 . S
C3120 C3118 1.327 . S
C3120 C3139 1.429 . S
C3120 H3144 0.950 . S
C3121 C3138 1.574 . S
C3121 C3140 1.368 . S
C3121 H3145 0.949 . S
H3122 C3126 0.949 . S
C3123 C3124 1.349 . S
C3123 C3125 1.327 . S
C3123 H3146 0.950 . S
C3124 C3123 1.349 . S
C3124 C3136 1.349 . S
C3125 C3123 1.327 . S
C3125 C3141 1.429 . S
C3125 H3147 0.950 . S
C3126 H3122 0.949 . S
C3126 C3134 1.574 . S
C3126 C3142 1.368 . S
H3127 C3135 0.989 . S
H3128 C3133 0.950 . S
H3129 C3134 0.949 . S
H3130 C3136 0.950 . S
H3131 C3137 0.950 . S
H3132 C3138 0.949 . S
C3133 H3128 0.950 . S
C3133 C3135 1.327 . S
C3133 C3139 1.429 . S
C3134 C3126 1.574 . S
C3134 H3129 0.949 . S
C3134 C3140 1.368 . S
C3135 C3119 1.349 . S
C3135 H3127 0.989 . S
C3135 C3133 1.327 . S
C3136 C3124 1.349 . S
C3136 H3130 0.950 . S
C3136 C3137 1.327 . S
C3137 H3131 0.950 . S
C3137 C3136 1.327 . S
C3137 C3141 1.429 . S
C3138 C3121 1.574 . S
C3138 H3132 0.949 . S
C3138 C3142 1.368 . S
C3139 C3120 1.429 . S
C3139 C3133 1.429 . S
C3139 C3140 1.523 . S
C3140 C3121 1.368 . S
C3140 C3134 1.368 . S
C3140 C3139 1.523 . S
C3141 C3125 1.429 . S
C3141 C3137 1.429 . S
C3141 C3142 1.523 . S
C3142 C3126 1.368 . S
C3142 C3138 1.368 . S
C3142 C3141 1.523 . S
H3143 C3118 0.950 . S
H3144 C3120 0.950 . S
H3145 C3121 0.949 . S
H3146 C3123 0.950 . S
H3147 C3125 0.950 . S
C3148 C3149 1.349 . S
C3148 C3150 1.327 . S
C3148 H3173 0.950 . S
C3149 C3148 1.349 . S
C3149 C3165 1.349 . S
C3150 C3148 1.327 . S
C3150 C3169 1.429 . S
C3150 H3174 0.950 . S
C3151 C3168 1.574 . S
C3151 C3170 1.368 . S
C3151 H3175 0.949 . S
H3152 C3156 0.949 . S
C3153 C3154 1.349 . S
C3153 C3155 1.327 . S
C3153 H3176 0.950 . S
C3154 C3153 1.349 . S
C3154 C3166 1.349 . S
C3155 C3153 1.327 . S
C3155 C3171 1.429 . S
C3155 H3177 0.950 . S
C3156 H3152 0.949 . S
C3156 C3164 1.574 . S
C3156 C3172 1.368 . S
H3157 C3165 0.950 . S
H3158 C3163 0.950 . S
H3159 C3164 0.949 . S
H3160 C3166 0.950 . S
H3161 C3167 0.950 . S
H3162 C3168 0.949 . S
C3163 H3158 0.950 . S
C3163 C3165 1.327 . S
C3163 C3169 1.429 . S
C3164 C3156 1.574 . S
C3164 H3159 0.949 . S
C3164 C3170 1.368 . S
C3165 C3149 1.349 . S
C3165 H3157 0.950 . S
C3165 C3163 1.327 . S
C3166 C3154 1.349 . S
C3166 H3160 0.950 . S
C3166 C3167 1.327 . S
C3167 H3161 0.950 . S
C3167 C3166 1.327 . S
C3167 C3171 1.429 . S
C3168 C3151 1.574 . S
C3168 H3162 0.949 . S
C3168 C3172 1.368 . S
C3169 C3150 1.429 . S
C3169 C3163 1.429 . S
C3169 C3170 1.523 . S
C3170 C3151 1.368 . S
C3170 C3164 1.368 . S
C3170 C3169 1.523 . S
C3171 C3155 1.429 . S
C3171 C3167 1.429 . S
C3171 C3172 1.523 . S
C3172 C3156 1.368 . S
C3172 C3168 1.368 . S
C3172 C3171 1.523 . S
H3173 C3148 0.950 . S
H3174 C3150 0.950 . S
H3175 C3151 0.949 . S
H3176 C3153 0.950 . S
H3177 C3155 0.950 . S
C3178 C3179 1.349 . S
C3178 C3180 1.327 . S
C3178 H3203 0.950 . S
C3179 C3178 1.349 . S
C3179 C3195 1.349 . S
C3180 C3178 1.327 . S
C3180 C3199 1.429 . S
C3180 H3204 0.950 . S
C3181 C3198 1.574 . S
C3181 C3200 1.368 . S
C3181 H3205 0.949 . S
H3182 C3186 0.949 . S
C3183 C3184 1.349 . S
C3183 C3185 1.327 . S
C3183 H3206 0.950 . S
C3184 C3183 1.349 . S
C3184 C3196 1.349 . S
C3185 C3183 1.327 . S
C3185 C3201 1.429 . S
C3185 H3207 0.950 . S
C3186 H3182 0.949 . S
C3186 C3194 1.574 . S
C3186 C3202 1.368 . S
H3187 C3195 0.950 . S
H3188 C3193 0.950 . S
H3189 C3194 0.949 . S
H3190 C3196 0.950 . S
H3191 C3197 0.950 . S
H3192 C3198 0.949 . S
C3193 H3188 0.950 . S
C3193 C3195 1.327 . S
C3193 C3199 1.429 . S
C3194 C3186 1.574 . S
C3194 H3189 0.949 . S
C3194 C3200 1.368 . S
C3195 C3179 1.349 . S
C3195 H3187 0.950 . S
C3195 C3193 1.327 . S
C3196 C3184 1.349 . S
C3196 H3190 0.950 . S
C3196 C3197 1.327 . S
C3197 H3191 0.950 . S
C3197 C3196 1.327 . S
C3197 C3201 1.429 . S
C3198 C3181 1.574 . S
C3198 H3192 0.949 . S
C3198 C3202 1.368 . S
C3199 C3180 1.429 . S
C3199 C3193 1.429 . S
C3199 C3200 1.523 . S
C3200 C3181 1.368 . S
C3200 C3194 1.368 . S
C3200 C3199 1.523 . S
C3201 C3185 1.429 . S
C3201 C3197 1.429 . S
C3201 C3202 1.523 . S
C3202 C3186 1.368 . S
C3202 C3198 1.368 . S
C3202 C3201 1.523 . S
H3203 C3178 0.950 . S
H3204 C3180 0.950 . S
H3205 C3181 0.949 . S
H3206 C3183 0.950 . S
H3207 C3185 0.950 . S
C3208 C3209 1.349 . S
C3208 C3210 1.327 . S
C3208 H3233 0.950 . S
C3209 C3208 1.349 . S
C3209 C3225 1.349 . S
C3210 C3208 1.327 . S
C3210 C3229 1.429 . S
C3210 H3234 0.950 . S
C3211 C3228 1.574 . S
C3211 C3230 1.368 . S
C3211 H3235 0.949 . S
H3212 C3216 0.949 . S
C3213 C3214 1.349 . S
C3213 C3215 1.327 . S
C3213 H3236 0.950 . S
C3214 C3213 1.349 . S
C3214 C3226 1.349 . S
C3215 C3213 1.327 . S
C3215 C3231 1.429 . S
C3215 H3237 0.950 . S
C3216 H3212 0.949 . S
C3216 C3224 1.574 . S
C3216 C3232 1.368 . S
H3217 C3225 0.950 . S
H3218 C3223 0.950 . S
H3219 C3224 0.949 . S
H3220 C3226 0.950 . S
H3221 C3227 0.950 . S
H3222 C3228 0.949 . S
C3223 H3218 0.950 . S
C3223 C3225 1.327 . S
C3223 C3229 1.429 . S
C3224 C3216 1.574 . S
C3224 H3219 0.949 . S
C3224 C3230 1.368 . S
C3225 C3209 1.349 . S
C3225 H3217 0.950 . S
C3225 C3223 1.327 . S
C3226 C3214 1.349 . S
C3226 H3220 0.950 . S
C3226 C3227 1.327 . S
C3227 H3221 0.950 . S
C3227 C3226 1.327 . S
C3227 C3231 1.429 . S
C3228 C3211 1.574 . S
C3228 H3222 0.949 . S
C3228 C3232 1.368 . S
C3229 C3210 1.429 . S
C3229 C3223 1.429 . S
C3229 C3230 1.523 . S
C3230 C3211 1.368 . S
C3230 C3224 1.368 . S
C3230 C3229 1.523 . S
C3231 C3215 1.429 . S
C3231 C3227 1.429 . S
C3231 C3232 1.523 . S
C3232 C3216 1.368 . S
C3232 C3228 1.368 . S
C3232 C3231 1.523 . S
H3233 C3208 0.950 . S
H3234 C3210 0.950 . S
H3235 C3211 0.949 . S
H3236 C3213 0.950 . S
H3237 C3215 0.950 . S
C3238 C3239 1.349 . S
C3238 C3240 1.327 . S
C3238 H3263 0.950 . S
C3239 C3238 1.349 . S
C3239 C3255 1.349 . S
C3240 C3238 1.327 . S
C3240 C3259 1.429 . S
C3240 H3264 0.950 . S
C3241 C3258 1.574 . S
C3241 C3260 1.368 . S
C3241 H3265 0.949 . S
H3242 C3246 0.949 . S
C3243 C3244 1.349 . S
C3243 C3245 1.327 . S
C3243 H3266 0.950 . S
C3244 C3243 1.349 . S
C3244 C3256 1.349 . S
C3245 C3243 1.327 . S
C3245 C3261 1.429 . S
C3245 H3267 0.950 . S
C3246 H3242 0.949 . S
C3246 C3254 1.574 . S
C3246 C3262 1.368 . S
H3247 C3255 0.950 . S
H3248 C3253 0.950 . S
H3249 C3254 0.949 . S
H3250 C3256 0.950 . S
H3251 C3257 0.950 . S
H3252 C3258 0.949 . S
C3253 H3248 0.950 . S
C3253 C3255 1.327 . S
C3253 C3259 1.429 . S
C3254 C3246 1.574 . S
C3254 H3249 0.949 . S
C3254 C3260 1.368 . S
C3255 C3239 1.349 . S
C3255 H3247 0.950 . S
C3255 C3253 1.327 . S
C3256 C3244 1.349 . S
C3256 H3250 0.950 . S
C3256 C3257 1.327 . S
C3257 H3251 0.950 . S
C3257 C3256 1.327 . S
C3257 C3261 1.429 . S
C3258 C3241 1.574 . S
C3258 H3252 0.949 . S
C3258 C3262 1.368 . S
C3259 C3240 1.429 . S
C3259 C3253 1.429 . S
C3259 C3260 1.523 . S
C3260 C3241 1.368 . S
C3260 C3254 1.368 . S
C3260 C3259 1.523 . S
C3261 C3245 1.429 . S
C3261 C3257 1.429 . S
C3261 C3262 1.523 . S
C3262 C3246 1.368 . S
C3262 C3258 1.368 . S
C3262 C3261 1.523 . S
H3263 C3238 0.950 . S
H3264 C3240 0.950 . S
H3265 C3241 0.949 . S
H3266 C3243 0.950 . S
H3267 C3245 0.950 . S
C3268 C3269 1.349 . S
C3268 C3270 1.327 . S
C3268 H3293 0.950 . S
C3269 C3268 1.349 . S
C3269 C3285 1.349 . S
C3270 C3268 1.327 . S
C3270 C3289 1.429 . S
C3270 H3294 0.950 . S
C3271 C3288 1.574 . S
C3271 C3290 1.368 . S
C3271 H3295 0.949 . S
H3272 C3276 0.949 . S
C3273 C3274 1.349 . S
C3273 C3275 1.327 . S
C3273 H3296 0.950 . S
C3274 C3273 1.349 . S
C3274 C3286 1.349 . S
C3275 C3273 1.327 . S
C3275 C3291 1.429 . S
C3275 H3297 0.950 . S
C3276 H3272 0.949 . S
C3276 C3284 1.574 . S
C3276 C3292 1.368 . S
H3277 C3285 0.950 . S
H3278 C3283 0.950 . S
H3279 C3284 0.949 . S
H3280 C3286 0.950 . S
H3281 C3287 0.950 . S
H3282 C3288 0.949 . S
C3283 H3278 0.950 . S
C3283 C3285 1.327 . S
C3283 C3289 1.429 . S
C3284 C3276 1.574 . S
C3284 H3279 0.949 . S
C3284 C3290 1.368 . S
C3285 C3269 1.349 . S
C3285 H3277 0.950 . S
C3285 C3283 1.327 . S
C3286 C3274 1.349 . S
C3286 H3280 0.950 . S
C3286 C3287 1.327 . S
C3287 H3281 0.950 . S
C3287 C3286 1.327 . S
C3287 C3291 1.429 . S
C3288 C3271 1.574 . S
C3288 H3282 0.949 . S
C3288 C3292 1.368 . S
C3289 C3270 1.429 . S
C3289 C3283 1.429 . S
C3289 C3290 1.523 . S
C3290 C3271 1.368 . S
C3290 C3284 1.368 . S
C3290 C3289 1.523 . S
C3291 C3275 1.429 . S
C3291 C3287 1.429 . S
C3291 C3292 1.523 . S
C3292 C3276 1.368 . S
C3292 C3288 1.368 . S
C3292 C3291 1.523 . S
H3293 C3268 0.950 . S
H3294 C3270 0.950 . S
H3295 C3271 0.949 . S
H3296 C3273 0.950 . S
H3297 C3275 0.950 . S
C3298 C3299 1.349 . S
C3298 C3300 1.327 . S
C3298 H3323 0.950 . S
C3299 C3298 1.349 . S
C3299 C3315 1.349 . S
C3300 C3298 1.327 . S
C3300 C3319 1.429 . S
C3300 H3324 0.950 . S
C3301 C3318 1.574 . S
C3301 C3320 1.368 . S
C3301 H3325 0.949 . S
H3302 C3306 0.949 . S
C3303 C3304 1.349 . S
C3303 C3305 1.327 . S
C3303 H3326 0.950 . S
C3304 C3303 1.349 . S
C3304 C3316 1.349 . S
C3305 C3303 1.327 . S
C3305 C3321 1.429 . S
C3305 H3327 0.950 . S
C3306 H3302 0.949 . S
C3306 C3314 1.574 . S
C3306 C3322 1.368 . S
H3307 C3315 0.950 . S
H3308 C3313 0.950 . S
H3309 C3314 0.949 . S
H3310 C3316 0.950 . S
H3311 C3317 0.950 . S
H3312 C3318 0.949 . S
C3313 H3308 0.950 . S
C3313 C3315 1.327 . S
C3313 C3319 1.429 . S
C3314 C3306 1.574 . S
C3314 H3309 0.949 . S
C3314 C3320 1.368 . S
C3315 C3299 1.349 . S
C3315 H3307 0.950 . S
C3315 C3313 1.327 . S
C3316 C3304 1.349 . S
C3316 H3310 0.950 . S
C3316 C3317 1.327 . S
C3317 H3311 0.950 . S
C3317 C3316 1.327 . S
C3317 C3321 1.429 . S
C3318 C3301 1.574 . S
C3318 H3312 0.949 . S
C3318 C3322 1.368 . S
C3319 C3300 1.429 . S
C3319 C3313 1.429 . S
C3319 C3320 1.523 . S
C3320 C3301 1.368 . S
C3320 C3314 1.368 . S
C3320 C3319 1.523 . S
C3321 C3305 1.429 . S
C3321 C3317 1.429 . S
C3321 C3322 1.523 . S
C3322 C3306 1.368 . S
C3322 C3318 1.368 . S
C3322 C3321 1.523 . S
H3323 C3298 0.950 . S
H3324 C3300 0.950 . S
H3325 C3301 0.949 . S
H3326 C3303 0.950 . S
H3327 C3305 0.950 . S
C3328 C3329 1.349 . S
C3328 C3330 1.327 . S
C3328 H3353 0.950 . S
C3329 C3328 1.349 . S
C3329 C3345 1.349 . S
C3330 C3328 1.327 . S
C3330 C3349 1.429 . S
C3330 H3354 0.950 . S
C3331 C3348 1.574 . S
C3331 C3350 1.368 . S
C3331 H3355 0.949 . S
H3332 C3336 0.949 . S
C3333 C3334 1.349 . S
C3333 C3335 1.327 . S
C3333 H3356 0.950 . S
C3334 C3333 1.349 . S
C3334 C3346 1.349 . S
C3335 C3333 1.327 . S
C3335 C3351 1.429 . S
C3335 H3357 0.950 . S
C3336 H3332 0.949 . S
C3336 C3344 1.574 . S
C3336 C3352 1.368 . S
H3337 C3345 0.950 . S
H3338 C3343 0.950 . S
H3339 C3344 0.949 . S
H3340 C3346 0.950 . S
H3341 C3347 0.950 . S
H3342 C3348 0.949 . S
C3343 H3338 0.950 . S
C3343 C3345 1.327 . S
C3343 C3349 1.429 . S
C3344 C3336 1.574 . S
C3344 H3339 0.949 . S
C3344 C3350 1.368 . S
C3345 C3329 1.349 . S
C3345 H3337 0.950 . S
C3345 C3343 1.327 . S
C3346 C3334 1.349 . S
C3346 H3340 0.950 . S
C3346 C3347 1.327 . S
C3347 H3341 0.950 . S
C3347 C3346 1.327 . S
C3347 C3351 1.429 . S
C3348 C3331 1.574 . S
C3348 H3342 0.949 . S
C3348 C3352 1.368 . S
C3349 C3330 1.429 . S
C3349 C3343 1.429 . S
C3349 C3350 1.523 . S
C3350 C3331 1.368 . S
C3350 C3344 1.368 . S
C3350 C3349 1.523 . S
C3351 C3335 1.429 . S
C3351 C3347 1.429 . S
C3351 C3352 1.523 . S
C3352 C3336 1.368 . S
C3352 C3348 1.368 . S
C3352 C3351 1.523 . S
H3353 C3328 0.950 . S
H3354 C3330 0.950 . S
H3355 C3331 0.949 . S
H3356 C3333 0.950 . S
H3357 C3335 0.950 . S
C3358 C3359 1.349 . S
C3358 C3360 1.327 . S
C3358 H3383 0.950 . S
C3359 C3358 1.349 . S
C3359 C3375 1.349 . S
C3360 C3358 1.327 . S
C3360 C3379 1.429 . S
C3360 H3384 0.950 . S
C3361 C3378 1.574 . S
C3361 C3380 1.368 . S
C3361 H3385 0.949 . S
H3362 C3366 0.949 . S
C3363 C3364 1.349 . S
C3363 C3365 1.327 . S
C3363 H3386 0.950 . S
C3364 C3363 1.349 . S
C3364 C3376 1.349 . S
C3365 C3363 1.327 . S
C3365 C3381 1.429 . S
C3365 H3387 0.950 . S
C3366 H3362 0.949 . S
C3366 C3374 1.574 . S
C3366 C3382 1.368 . S
H3367 C3375 0.950 . S
H3368 C3373 0.950 . S
H3369 C3374 0.949 . S
H3370 C3376 0.950 . S
H3371 C3377 0.950 . S
H3372 C3378 0.949 . S
C3373 H3368 0.950 . S
C3373 C3375 1.327 . S
C3373 C3379 1.429 . S
C3374 C3366 1.574 . S
C3374 H3369 0.949 . S
C3374 C3380 1.368 . S
C3375 C3359 1.349 . S
C3375 H3367 0.950 . S
C3375 C3373 1.327 . S
C3376 C3364 1.349 . S
C3376 H3370 0.950 . S
C3376 C3377 1.327 . S
C3377 H3371 0.950 . S
C3377 C3376 1.327 . S
C3377 C3381 1.429 . S
C3378 C3361 1.574 . S
C3378 H3372 0.949 . S
C3378 C3382 1.368 . S
C3379 C3360 1.429 . S
C3379 C3373 1.429 . S
C3379 C3380 1.523 . S
C3380 C3361 1.368 . S
C3380 C3374 1.368 . S
C3380 C3379 1.523 . S
C3381 C3365 1.429 . S
C3381 C3377 1.429 . S
C3381 C3382 1.523 . S
C3382 C3366 1.368 . S
C3382 C3378 1.368 . S
C3382 C3381 1.523 . S
H3383 C3358 0.950 . S
H3384 C3360 0.950 . S
H3385 C3361 0.949 . S
H3386 C3363 0.950 . S
H3387 C3365 0.950 . S
C3388 C3389 1.349 . S
C3388 C3390 1.327 . S
C3388 H3413 0.950 . S
C3389 C3388 1.349 . S
C3389 C3405 1.349 . S
C3390 C3388 1.327 . S
C3390 C3409 1.429 . S
C3390 H3414 0.950 . S
C3391 C3408 1.574 . S
C3391 C3410 1.368 . S
C3391 H3415 0.949 . S
H3392 C3396 0.949 . S
C3393 C3394 1.349 . S
C3393 C3395 1.327 . S
C3393 H3416 0.950 . S
C3394 C3393 1.349 . S
C3394 C3406 1.349 . S
C3395 C3393 1.327 . S
C3395 C3411 1.429 . S
C3395 H3417 0.950 . S
C3396 H3392 0.949 . S
C3396 C3404 1.574 . S
C3396 C3412 1.368 . S
H3397 C3405 0.950 . S
H3398 C3403 0.950 . S
H3399 C3404 0.949 . S
H3400 C3406 0.950 . S
H3401 C3407 0.950 . S
H3402 C3408 0.949 . S
C3403 H3398 0.950 . S
C3403 C3405 1.327 . S
C3403 C3409 1.429 . S
C3404 C3396 1.574 . S
C3404 H3399 0.949 . S
C3404 C3410 1.368 . S
C3405 C3389 1.349 . S
C3405 H3397 0.950 . S
C3405 C3403 1.327 . S
C3406 C3394 1.349 . S
C3406 H3400 0.950 . S
C3406 C3407 1.327 . S
C3407 H3401 0.950 . S
C3407 C3406 1.327 . S
C3407 C3411 1.429 . S
C3408 C3391 1.574 . S
C3408 H3402 0.949 . S
C3408 C3412 1.368 . S
C3409 C3390 1.429 . S
C3409 C3403 1.429 . S
C3409 C3410 1.523 . S
C3410 C3391 1.368 . S
C3410 C3404 1.368 . S
C3410 C3409 1.523 . S
C3411 C3395 1.429 . S
C3411 C3407 1.429 . S
C3411 C3412 1.523 . S
C3412 C3396 1.368 . S
C3412 C3408 1.368 . S
C3412 C3411 1.523 . S
H3413 C3388 0.950 . S
H3414 C3390 0.950 . S
H3415 C3391 0.949 . S
H3416 C3393 0.950 . S
H3417 C3395 0.950 . S
C3418 C3419 1.349 . S
C3418 C3420 1.327 . S
C3418 H3443 0.950 . S
C3419 C3418 1.349 . S
C3419 C3435 1.349 . S
C3420 C3418 1.327 . S
C3420 C3439 1.429 . S
C3420 H3444 0.950 . S
C3421 C3438 1.574 . S
C3421 C3440 1.368 . S
C3421 H3445 0.949 . S
H3422 C3426 0.949 . S
C3423 C3424 1.349 . S
C3423 C3425 1.327 . S
C3423 H3446 0.950 . S
C3424 C3423 1.349 . S
C3424 C3436 1.349 . S
C3425 C3423 1.327 . S
C3425 C3441 1.429 . S
C3425 H3447 0.950 . S
C3426 H3422 0.949 . S
C3426 C3434 1.574 . S
C3426 C3442 1.368 . S
H3427 C3435 0.950 . S
H3428 C3433 0.950 . S
H3429 C3434 0.949 . S
H3430 C3436 0.950 . S
H3431 C3437 0.950 . S
H3432 C3438 0.949 . S
C3433 H3428 0.950 . S
C3433 C3435 1.327 . S
C3433 C3439 1.429 . S
C3434 C3426 1.574 . S
C3434 H3429 0.949 . S
C3434 C3440 1.368 . S
C3435 C3419 1.349 . S
C3435 H3427 0.950 . S
C3435 C3433 1.327 . S
C3436 C3424 1.349 . S
C3436 H3430 0.950 . S
C3436 C3437 1.327 . S
C3437 H3431 0.950 . S
C3437 C3436 1.327 . S
C3437 C3441 1.429 . S
C3438 C3421 1.574 . S
C3438 H3432 0.949 . S
C3438 C3442 1.368 . S
C3439 C3420 1.429 . S
C3439 C3433 1.429 . S
C3439 C3440 1.523 . S
C3440 C3421 1.368 . S
C3440 C3434 1.368 . S
C3440 C3439 1.523 . S
C3441 C3425 1.429 . S
C3441 C3437 1.429 . S
C3441 C3442 1.523 . S
C3442 C3426 1.368 . S
C3442 C3438 1.368 . S
C3442 C3441 1.523 . S
H3443 C3418 0.950 . S
H3444 C3420 0.950 . S
H3445 C3421 0.949 . S
H3446 C3423 0.950 . S
H3447 C3425 0.950 . S
C3448 C3449 1.349 . S
C3448 C3450 1.327 . S
C3448 H3473 0.950 . S
C3449 C3448 1.349 . S
C3449 C3465 1.349 . S
C3450 C3448 1.327 . S
C3450 C3469 1.429 . S
C3450 H3474 0.950 . S
C3451 C3468 1.574 . S
C3451 C3470 1.368 . S
C3451 H3475 0.949 . S
H3452 C3456 0.949 . S
C3453 C3454 1.349 . S
C3453 C3455 1.327 . S
C3453 H3476 0.950 . S
C3454 C3453 1.349 . S
C3454 C3466 1.349 . S
C3455 C3453 1.327 . S
C3455 C3471 1.429 . S
C3455 H3477 0.950 . S
C3456 H3452 0.949 . S
C3456 C3464 1.574 . S
C3456 C3472 1.368 . S
H3457 C3465 0.950 . S
H3458 C3463 0.950 . S
H3459 C3464 0.949 . S
H3460 C3466 0.950 . S
H3461 C3467 0.950 . S
H3462 C3468 0.949 . S
C3463 H3458 0.950 . S
C3463 C3465 1.327 . S
C3463 C3469 1.429 . S
C3464 C3456 1.574 . S
C3464 H3459 0.949 . S
C3464 C3470 1.368 . S
C3465 C3449 1.349 . S
C3465 H3457 0.950 . S
C3465 C3463 1.327 . S
C3466 C3454 1.349 . S
C3466 H3460 0.950 . S
C3466 C3467 1.327 . S
C3467 H3461 0.950 . S
C3467 C3466 1.327 . S
C3467 C3471 1.429 . S
C3468 C3451 1.574 . S
C3468 H3462 0.949 . S
C3468 C3472 1.368 . S
C3469 C3450 1.429 . S
C3469 C3463 1.429 . S
C3469 C3470 1.523 . S
C3470 C3451 1.368 . S
C3470 C3464 1.368 . S
C3470 C3469 1.523 . S
C3471 C3455 1.429 . S
C3471 C3467 1.429 . S
C3471 C3472 1.523 . S
C3472 C3456 1.368 . S
C3472 C3468 1.368 . S
C3472 C3471 1.523 . S
H3473 C3448 0.950 . S
H3474 C3450 0.950 . S
H3475 C3451 0.949 . S
H3476 C3453 0.950 . S
H3477 C3455 0.950 . S
C3478 C3479 1.349 . S
C3478 C3480 1.327 . S
C3478 H3503 0.950 . S
C3479 C3478 1.349 . S
C3479 C3495 1.349 . S
C3480 C3478 1.327 . S
C3480 C3499 1.429 . S
C3480 H3504 0.950 . S
C3481 C3498 1.574 . S
C3481 C3500 1.368 . S
C3481 H3505 0.949 . S
H3482 C3486 0.949 . S
C3483 C3484 1.349 . S
C3483 C3485 1.327 . S
C3483 H3506 0.950 . S
C3484 C3483 1.349 . S
C3484 C3496 1.349 . S
C3485 C3483 1.327 . S
C3485 C3501 1.429 . S
C3485 H3507 0.950 . S
C3486 H3482 0.949 . S
C3486 C3494 1.574 . S
C3486 C3502 1.368 . S
H3487 C3495 0.950 . S
H3488 C3493 0.950 . S
H3489 C3494 0.949 . S
H3490 C3496 0.950 . S
H3491 C3497 0.950 . S
H3492 C3498 0.949 . S
C3493 H3488 0.950 . S
C3493 C3495 1.327 . S
C3493 C3499 1.429 . S
C3494 C3486 1.574 . S
C3494 H3489 0.949 . S
C3494 C3500 1.368 . S
C3495 C3479 1.349 . S
C3495 H3487 0.950 . S
C3495 C3493 1.327 . S
C3496 C3484 1.349 . S
C3496 H3490 0.950 . S
C3496 C3497 1.327 . S
C3497 H3491 0.950 . S
C3497 C3496 1.327 . S
C3497 C3501 1.429 . S
C3498 C3481 1.574 . S
C3498 H3492 0.949 . S
C3498 C3502 1.368 . S
C3499 C3480 1.429 . S
C3499 C3493 1.429 . S
C3499 C3500 1.523 . S
C3500 C3481 1.368 . S
C3500 C3494 1.368 . S
C3500 C3499 1.523 . S
C3501 C3485 1.429 . S
C3501 C3497 1.429 . S
C3501 C3502 1.523 . S
C3502 C3486 1.368 . S
C3502 C3498 1.368 . S
C3502 C3501 1.523 . S
H3503 C3478 0.950 . S
H3504 C3480 0.950 . S
H3505 C3481 0.949 . S
H3506 C3483 0.950 . S
H3507 C3485 0.950 . S
C3508 C3509 1.349 . S
C3508 C3510 1.327 . S
C3508 H3533 0.950 . S
C3509 C3508 1.349 . S
C3509 C3525 1.349 . S
C3510 C3508 1.327 . S
C3510 C3529 1.429 . S
C3510 H3534 0.950 . S
C3511 C3528 1.574 . S
C3511 C3530 1.368 . S
C3511 H3535 0.949 . S
H3512 C3516 0.949 . S
C3513 C3514 1.349 . S
C3513 C3515 1.327 . S
C3513 H3536 0.950 . S
C3514 C3513 1.349 . S
C3514 C3526 1.349 . S
C3515 C3513 1.327 . S
C3515 C3531 1.429 . S
C3515 H3537 0.950 . S
C3516 H3512 0.949 . S
C3516 C3524 1.574 . S
C3516 C3532 1.368 . S
H3517 C3525 0.950 . S
H3518 C3523 0.950 . S
H3519 C3524 0.949 . S
H3520 C3526 0.950 . S
H3521 C3527 0.950 . S
H3522 C3528 0.949 . S
C3523 H3518 0.950 . S
C3523 C3525 1.327 . S
C3523 C3529 1.429 . S
C3524 C3516 1.574 . S
C3524 H3519 0.949 . S
C3524 C3530 1.368 . S
C3525 C3509 1.349 . S
C3525 H3517 0.950 . S
C3525 C3523 1.327 . S
C3526 C3514 1.349 . S
C3526 H3520 0.950 . S
C3526 C3527 1.327 . S
C3527 H3521 0.950 . S
C3527 C3526 1.327 . S
C3527 C3531 1.429 . S
C3528 C3511 1.574 . S
C3528 H3522 0.949 . S
C3528 C3532 1.368 . S
C3529 C3510 1.429 . S
C3529 C3523 1.429 . S
C3529 C3530 1.523 . S
C3530 C3511 1.368 . S
C3530 C3524 1.368 . S
C3530 C3529 1.523 . S
C3531 C3515 1.429 . S
C3531 C3527 1.429 . S
C3531 C3532 1.523 . S
C3532 C3516 1.368 . S
C3532 C3528 1.368 . S
C3532 C3531 1.523 . S
H3533 C3508 0.950 . S
H3534 C3510 0.950 . S
H3535 C3511 0.949 . S
H3536 C3513 0.950 . S
H3537 C3515 0.950 . S
C3538 C3539 1.349 . S
C3538 C3540 1.327 . S
C3538 H3563 0.950 . S
C3539 C3538 1.349 . S
C3539 C3555 1.349 . S
C3540 C3538 1.327 . S
C3540 C3559 1.429 . S
C3540 H3564 0.950 . S
C3541 C3558 1.574 1_455 S
C3541 C3560 1.368 . S
C3541 H3565 0.949 . S
H3542 C3546 0.949 . S
C3543 C3544 1.349 . S
C3543 C3545 1.327 . S
C3543 H3566 0.950 . S
C3544 C3543 1.349 . S
C3544 C3556 1.349 . S
C3545 C3543 1.327 . S
C3545 C3561 1.429 . S
C3545 H3567 0.950 . S
C3546 H3542 0.949 . S
C3546 C3554 1.574 . S
C3546 C3562 1.368 1_455 S
H3547 C3555 0.950 . S
H3548 C3553 0.950 . S
H3549 C3554 0.949 . S
H3550 C3556 0.950 . S
H3551 C3557 0.950 . S
H3552 C3558 0.949 . S
C3553 H3548 0.950 . S
C3553 C3555 1.327 . S
C3553 C3559 1.429 . S
C3554 C3546 1.574 . S
C3554 H3549 0.949 . S
C3554 C3560 1.368 . S
C3555 C3539 1.349 . S
C3555 H3547 0.950 . S
C3555 C3553 1.327 . S
C3556 C3544 1.349 . S
C3556 H3550 0.950 . S
C3556 C3557 1.327 . S
C3557 H3551 0.950 . S
C3557 C3556 1.327 . S
C3557 C3561 1.429 . S
C3558 C3541 1.574 1_655 S
C3558 H3552 0.949 . S
C3558 C3562 1.368 . S
C3559 C3540 1.429 . S
C3559 C3553 1.429 . S
C3559 C3560 1.523 . S
C3560 C3541 1.368 . S
C3560 C3554 1.368 . S
C3560 C3559 1.523 . S
C3561 C3545 1.429 . S
C3561 C3557 1.429 . S
C3561 C3562 1.523 . S
C3562 C3546 1.368 1_655 S
C3562 C3558 1.368 . S
C3562 C3561 1.523 . S
H3563 C3538 0.950 . S
H3564 C3540 0.950 . S
H3565 C3541 0.949 . S
H3566 C3543 0.950 . S
H3567 C3545 0.950 . S
C694 C343 1.049 . S
C689 C7 1.090 . S
C719 C23 1.030 . S
C724 C363 1.000 . S
C754 C384 0.928 . S
C749 C36 0.958 . S
C784 C411 1.009 . S
C779 C45 1.046 . S
C814 C367 1.009 . S
C809 C59 1.046 . S
C839 C78 0.957 . S
C844 C387 0.928 . S
C874 C407 1.000 . S
C869 C93 1.030 . S
C899 C105 1.090 . S
C904 C340 1.048 . S
C929 C115 1.105 . S
C934 C345 1.060 . S
C964 C362 0.996 . S
C959 C133 1.031 . S
C994 C386 0.958 . S
C989 C148 0.991 . S
C1024 C410 0.970 . S
C1019 C163 0.998 . S
C1054 C366 0.970 . S
C1049 C121 0.998 . S
C1084 C389 0.958 . S
C1079 C134 0.990 . S
C1109 C147 1.031 . S
C1114 C406 0.997 . S
C1144 C342 1.060 . S
C1139 C157 1.105 . S
C1169 C175 1.077 . S
C1174 C344 1.037 . S
C1199 C191 1.044 . S
C1204 C431 1.014 . S
C1234 C451 0.980 . S
C1229 C199 1.016 . S
C1264 C474 0.953 . S
C1259 C218 0.984 . S
C1289 C231 1.076 . S
C1294 C341 1.037 . S
C1319 C241 1.016 . S
C1324 C385 0.980 . S
C1354 C475 1.014 . S
C1349 C205 1.044 . S
C1384 C430 0.952 . S
C1379 C260 0.984 . S
C1414 C498 0.891 . S
C1409 C22 0.911 . S
C1444 C519 1.031 . S
C1439 C9 1.050 . S
C1469 C49 1.056 . S
C1474 C538 1.022 . S
C1499 C31 1.001 . S
C1504 C563 0.973 . S
C1529 C101 1.001 . S
C1534 C518 0.973 . S
C1559 C91 1.056 . S
C1564 C543 1.022 . S
C1594 C562 1.031 . S
C1589 C79 1.050 . S
C1619 C64 0.911 . S
C1624 C495 0.891 . S
C1649 C274 0.909 . S
C1654 C499 0.889 . S
C1684 C520 0.976 . S
C1679 C213 1.005 . S
C1714 C539 1.039 . S
C1709 C233 1.060 . S
C1744 C564 1.012 . S
C1739 C189 1.041 . S
C1774 C516 1.013 . S
C1769 C273 1.043 . S
C1804 C541 1.039 . S
C1799 C219 1.060 . S
C1834 C560 0.976 . S
C1829 C227 1.005 . S
C1859 C190 0.908 . S
C1864 C496 0.891 . S
C1894 C497 0.921 . S
C1889 C289 0.936 . S
C1919 C162 1.026 . S
C1924 C583 0.997 . S
C1954 C608 0.977 . S
C1949 C301 1.007 . S
C1979 C129 1.051 . S
C1984 C627 1.021 . S
C2014 C494 0.921 . S
C2009 C149 0.935 . S
C2044 C540 0.977 . S
C2039 C315 1.007 . S
C2074 C631 0.997 . S
C2069 C302 1.025 . S
C2099 C325 1.050 . S
C2104 C587 1.021 . S
C2129 C35 1.090 . S
C2134 C651 1.049 . S
C2159 C51 1.030 . S
C2164 C429 1.000 . S
C2194 C453 0.928 . S
C2189 C8 0.958 . S
C2219 C17 1.046 . S
C2224 C477 1.009 . S
C2249 C87 1.047 . S
C2254 C433 1.009 . S
C2279 C106 0.957 . S
C2284 C450 0.928 . S
C2314 C473 1.000 . S
C2309 C65 1.029 . S
C2344 C648 1.048 . S
C2339 C77 1.090 . S
C2374 C653 1.060 . S
C2369 C297 1.105 . S
C2404 C428 0.996 . S
C2399 C287 1.031 . S
C2434 C455 0.958 . S
C2429 C330 0.991 . S
C2459 C317 0.998 . S
C2464 C476 0.970 . S
C2494 C432 0.970 . S
C2489 C303 0.998 . S
C2519 C288 0.990 . S
C2524 C452 0.958 . S
C2554 C472 0.997 . S
C2549 C329 1.031 . S
C2579 C311 1.105 . S
C2584 C650 1.060 . S
C2614 C652 1.036 . S
C2609 C217 1.076 . S
C2639 C247 1.045 . S
C2644 C365 1.014 . S
C2674 C388 0.980 . S
C2669 C269 1.016 . S
C2699 C176 0.984 . S
C2704 C408 0.952 . S
C2734 C649 1.037 . S
C2729 C259 1.076 . S
C2764 C454 0.980 . S
C2759 C185 1.013 . S
C2794 C409 1.014 . S
C2789 C275 1.044 . S
C2824 C364 0.952 . S
C2819 C232 0.984 . S
C2849 C50 0.911 . S
C2854 C675 0.891 . S
C2879 C37 1.050 . S
C2884 C585 1.031 . S
C2909 C21 1.056 . S
C2914 C604 1.022 . S
C2944 C629 0.973 . S
C2939 C3 1.001 . S
C2974 C584 0.973 . S
C2969 C73 1.001 . S
C2999 C63 1.056 . S
C3004 C609 1.022 . S
C3034 C628 1.031 . S
C3029 C107 1.050 . S
C3059 C92 0.911 . S
C3064 C670 0.891 . S
C3094 C673 0.889 . S
C3089 C204 0.908 . S
C3119 C171 1.005 . S
C3124 C586 0.977 . S
C3149 C261 1.060 . S
C3154 C605 1.039 . S
C3184 C630 1.012 . S
C3179 C245 1.043 . S
C3214 C582 1.013 . S
C3209 C203 1.043 . S
C3239 C177 1.060 . S
C3244 C607 1.039 . S
C3274 C626 0.976 . S
C3269 C255 1.005 . S
C3304 C671 0.888 . S
C3299 C246 0.908 . S
C3334 C674 0.921 . S
C3329 C135 0.936 . S
C3364 C517 0.997 . S
C3359 C316 1.026 . S
C3389 C119 1.007 . S
C3394 C542 0.977 . S
C3419 C283 1.051 . S
C3424 C561 1.021 . S
C3454 C672 0.920 . S
C3449 C331 0.935 . S
C3484 C606 0.977 . S
C3479 C161 1.007 . S
C3514 C565 0.997 . S
C3509 C120 1.025 . S
C3544 C521 1.021 . S
C3539 C143 1.050 . S
