# Generated by pormake.
# Topology ocu, (6,8)-cn, num edge types: 1
# Building blocks:
#     Node 0, Type 0, BuildingBlock: BETDEL_clean_sbu_0, # of connection points: 6
#     Node 1, Type 0, BuildingBlock: BETDEL_clean_sbu_0, # of connection points: 6
#     Node 2, Type 0, BuildingBlock: BETDEL_clean_sbu_0, # of connection points: 6
#     Node 3, Type 0, BuildingBlock: BETDEL_clean_sbu_0, # of connection points: 6
#     Node 4, Type 0, BuildingBlock: BETDEL_clean_sbu_0, # of connection points: 6
#     Node 5, Type 0, BuildingBlock: BETDEL_clean_sbu_0, # of connection points: 6
#     Node 6, Type 0, BuildingBlock: BETDEL_clean_sbu_0, # of connection points: 6
#     Node 7, Type 0, BuildingBlock: BETDEL_clean_sbu_0, # of connection points: 6
#     Node 8, Type 1, BuildingBlock: VETTIZ_charged_sbu_0, # of connection points: 8
#     Node 9, Type 1, BuildingBlock: VETTIZ_charged_sbu_0, # of connection points: 8
#     Node 10, Type 1, BuildingBlock: VETTIZ_charged_sbu_0, # of connection points: 8
#     Node 11, Type 1, BuildingBlock: VETTIZ_charged_sbu_0, # of connection points: 8
#     Node 12, Type 1, BuildingBlock: VETTIZ_charged_sbu_0, # of connection points: 8
#     Node 13, Type 1, BuildingBlock: VETTIZ_charged_sbu_0, # of connection points: 8
#     Edge 14, Type (0, 1), BuildingBlock: AJUNOK_clean_linker_0, # of connection points: 2
#     Edge 15, Type (0, 1), BuildingBlock: AJUNOK_clean_linker_0, # of connection points: 2
#     Edge 16, Type (0, 1), BuildingBlock: AJUNOK_clean_linker_0, # of connection points: 2
#     Edge 17, Type (0, 1), BuildingBlock: AJUNOK_clean_linker_0, # of connection points: 2
#     Edge 18, Type (0, 1), BuildingBlock: AJUNOK_clean_linker_0, # of connection points: 2
#     Edge 19, Type (0, 1), BuildingBlock: AJUNOK_clean_linker_0, # of connection points: 2
#     Edge 20, Type (0, 1), BuildingBlock: AJUNOK_clean_linker_0, # of connection points: 2
#     Edge 21, Type (0, 1), BuildingBlock: AJUNOK_clean_linker_0, # of connection points: 2
#     Edge 22, Type (0, 1), BuildingBlock: AJUNOK_clean_linker_0, # of connection points: 2
#     Edge 23, Type (0, 1), BuildingBlock: AJUNOK_clean_linker_0, # of connection points: 2
#     Edge 24, Type (0, 1), BuildingBlock: AJUNOK_clean_linker_0, # of connection points: 2
#     Edge 25, Type (0, 1), BuildingBlock: AJUNOK_clean_linker_0, # of connection points: 2
#     Edge 26, Type (0, 1), BuildingBlock: AJUNOK_clean_linker_0, # of connection points: 2
#     Edge 27, Type (0, 1), BuildingBlock: AJUNOK_clean_linker_0, # of connection points: 2
#     Edge 28, Type (0, 1), BuildingBlock: AJUNOK_clean_linker_0, # of connection points: 2
#     Edge 29, Type (0, 1), BuildingBlock: AJUNOK_clean_linker_0, # of connection points: 2
#     Edge 30, Type (0, 1), BuildingBlock: AJUNOK_clean_linker_0, # of connection points: 2
#     Edge 31, Type (0, 1), BuildingBlock: AJUNOK_clean_linker_0, # of connection points: 2
#     Edge 32, Type (0, 1), BuildingBlock: AJUNOK_clean_linker_0, # of connection points: 2
#     Edge 33, Type (0, 1), BuildingBlock: AJUNOK_clean_linker_0, # of connection points: 2
#     Edge 34, Type (0, 1), BuildingBlock: AJUNOK_clean_linker_0, # of connection points: 2
#     Edge 35, Type (0, 1), BuildingBlock: AJUNOK_clean_linker_0, # of connection points: 2
#     Edge 36, Type (0, 1), BuildingBlock: AJUNOK_clean_linker_0, # of connection points: 2
#     Edge 37, Type (0, 1), BuildingBlock: AJUNOK_clean_linker_0, # of connection points: 2
#     Edge 38, Type (0, 1), BuildingBlock: AJUNOK_clean_linker_0, # of connection points: 2
#     Edge 39, Type (0, 1), BuildingBlock: AJUNOK_clean_linker_0, # of connection points: 2
#     Edge 40, Type (0, 1), BuildingBlock: AJUNOK_clean_linker_0, # of connection points: 2
#     Edge 41, Type (0, 1), BuildingBlock: AJUNOK_clean_linker_0, # of connection points: 2
#     Edge 42, Type (0, 1), BuildingBlock: AJUNOK_clean_linker_0, # of connection points: 2
#     Edge 43, Type (0, 1), BuildingBlock: AJUNOK_clean_linker_0, # of connection points: 2
#     Edge 44, Type (0, 1), BuildingBlock: AJUNOK_clean_linker_0, # of connection points: 2
#     Edge 45, Type (0, 1), BuildingBlock: AJUNOK_clean_linker_0, # of connection points: 2
#     Edge 46, Type (0, 1), BuildingBlock: AJUNOK_clean_linker_0, # of connection points: 2
#     Edge 47, Type (0, 1), BuildingBlock: AJUNOK_clean_linker_0, # of connection points: 2
#     Edge 48, Type (0, 1), BuildingBlock: AJUNOK_clean_linker_0, # of connection points: 2
#     Edge 49, Type (0, 1), BuildingBlock: AJUNOK_clean_linker_0, # of connection points: 2
#     Edge 50, Type (0, 1), BuildingBlock: AJUNOK_clean_linker_0, # of connection points: 2
#     Edge 51, Type (0, 1), BuildingBlock: AJUNOK_clean_linker_0, # of connection points: 2
#     Edge 52, Type (0, 1), BuildingBlock: AJUNOK_clean_linker_0, # of connection points: 2
#     Edge 53, Type (0, 1), BuildingBlock: AJUNOK_clean_linker_0, # of connection points: 2
#     Edge 54, Type (0, 1), BuildingBlock: AJUNOK_clean_linker_0, # of connection points: 2
#     Edge 55, Type (0, 1), BuildingBlock: AJUNOK_clean_linker_0, # of connection points: 2
#     Edge 56, Type (0, 1), BuildingBlock: AJUNOK_clean_linker_0, # of connection points: 2
#     Edge 57, Type (0, 1), BuildingBlock: AJUNOK_clean_linker_0, # of connection points: 2
#     Edge 58, Type (0, 1), BuildingBlock: AJUNOK_clean_linker_0, # of connection points: 2
#     Edge 59, Type (0, 1), BuildingBlock: AJUNOK_clean_linker_0, # of connection points: 2
#     Edge 60, Type (0, 1), BuildingBlock: AJUNOK_clean_linker_0, # of connection points: 2
#     Edge 61, Type (0, 1), BuildingBlock: AJUNOK_clean_linker_0, # of connection points: 2
# Relax obj value: 0.094
# Max RMSD: 0.226
# Mean RMSD: 0.136
data_MOF--net-ocu--node1-BETDEL_clean_sbu_0--node2-VETTIZ_charged_sbu_0--edge1-AJUNOK_clean_linker_0
_symmetry_space_group_name_H-M    P1
_symmetry_Int_Tables_number       1
_symmetry_cell_setting            triclinic
loop_
_symmetry_equiv_pos_as_xyz
'x, y, z'
_cell_length_a     28.360315
_cell_length_b     29.003451
_cell_length_c     28.415467
_cell_angle_alpha  91.560761
_cell_angle_beta   91.340276
_cell_angle_gamma 97.750829
loop_
_atom_site_label
_atom_site_type_symbol
_atom_site_fract_x
_atom_site_fract_y
_atom_site_fract_z
_atom_type_partial_charge
Dy0 Dy 0.30333 0.25423 0.30096 0.0
C1 C 0.19056 0.31371 0.15294 0.0
C2 C 0.33637 0.19244 0.35792 0.0
Dy3 Dy 0.23233 0.26039 0.21212 0.0
O4 O 0.34569 0.23764 0.36485 0.0
O5 O 0.30741 0.18219 0.32211 0.0
O6 O 0.36211 0.31116 0.28178 0.0
O7 O 0.30224 0.29157 0.23797 0.0
C8 C 0.34171 0.31797 0.24123 0.0
C9 C 0.19393 0.20002 0.27705 0.0
O10 O 0.28486 0.21745 0.17594 0.0
O11 O 0.33581 0.21226 0.24106 0.0
O12 O 0.1908 0.26907 0.14523 0.0
O13 O 0.21487 0.3287 0.19065 0.0
O14 O 0.17289 0.20503 0.23649 0.0
O15 O 0.23359 0.22525 0.27652 0.0
O16 O 0.25187 0.30177 0.3335 0.0
O17 O 0.20546 0.31048 0.26596 0.0
C18 C 0.32345 0.20238 0.19539 0.0
C19 C 0.21657 0.32057 0.31139 0.0
Dy20 Dy 0.80839 0.22957 0.26857 0.0
C21 C 0.69012 0.34287 0.18667 0.0
C22 C 0.86869 0.18013 0.31334 0.0
Dy23 Dy 0.74665 0.29642 0.24044 0.0
O24 O 0.8519 0.17074 0.27092 0.0
O25 O 0.85185 0.2158 0.33138 0.0
O26 O 0.78131 0.18113 0.20774 0.0
O27 O 0.73478 0.22105 0.24034 0.0
C28 C 0.73892 0.19308 0.20661 0.0
C29 C 0.81331 0.33308 0.30446 0.0
O30 O 0.6997 0.2587 0.29276 0.0
O31 O 0.76103 0.2292 0.33054 0.0
O32 O 0.69496 0.34793 0.23213 0.0
O33 O 0.71585 0.3126 0.17092 0.0
O34 O 0.77131 0.34582 0.3009 0.0
O35 O 0.81928 0.30557 0.27059 0.0
O36 O 0.85693 0.26588 0.2177 0.0
O37 O 0.79621 0.29595 0.17979 0.0
C38 C 0.71672 0.23867 0.32954 0.0
C39 C 0.8404 0.28614 0.18121 0.0
Dy40 Dy 0.75199 0.76782 0.30088 0.0
C41 C 0.85506 0.743 0.14363 0.0
C42 C 0.71131 0.80325 0.37655 0.0
Dy43 Dy 0.81124 0.77047 0.2205 0.0
O44 O 0.69612 0.76343 0.35563 0.0
O45 O 0.74937 0.82251 0.35671 0.0
O46 O 0.71595 0.69656 0.28425 0.0
O47 O 0.73573 0.7429 0.22927 0.0
C48 C 0.71695 0.70205 0.23898 0.0
C49 C 0.84323 0.83212 0.28929 0.0
O50 O 0.76565 0.81868 0.18729 0.0
O51 O 0.72034 0.82173 0.25312 0.0
O52 O 0.87431 0.77427 0.17438 0.0
O53 O 0.81166 0.72844 0.15462 0.0
O54 O 0.84528 0.84264 0.2451 0.0
O55 O 0.82618 0.79042 0.29332 0.0
O56 O 0.80216 0.71857 0.32893 0.0
O57 O 0.84016 0.71084 0.25893 0.0
C58 C 0.73051 0.83511 0.20905 0.0
C59 C 0.83322 0.69852 0.30336 0.0
Dy60 Dy 0.29809 0.73258 0.25089 0.0
C61 C 0.17237 0.84163 0.32014 0.0
C62 C 0.34413 0.67534 0.19781 0.0
Dy63 Dy 0.23081 0.79563 0.26948 0.0
O64 O 0.35724 0.68897 0.2407 0.0
O65 O 0.30642 0.69254 0.1848 0.0
O66 O 0.33953 0.75547 0.31792 0.0
O67 O 0.30809 0.80432 0.27902 0.0
C68 C 0.33115 0.79843 0.31644 0.0
C69 C 0.19983 0.73097 0.20272 0.0
O70 O 0.26829 0.84302 0.219 0.0
O71 O 0.30861 0.78403 0.19178 0.0
O72 O 0.15903 0.81604 0.28296 0.0
O73 O 0.21811 0.84562 0.32647 0.0
O74 O 0.19185 0.77395 0.20135 0.0
O75 O 0.22164 0.72422 0.24058 0.0
O76 O 0.25101 0.68664 0.29846 0.0
O77 O 0.22688 0.75108 0.33277 0.0
C78 C 0.29594 0.82634 0.18803 0.0
C79 C 0.22787 0.70587 0.33194 0.0
Dy80 Dy 0.29772 0.73549 0.76848 0.0
C81 C 0.1887 0.87337 0.72021 0.0
C82 C 0.3507 0.67602 0.80984 0.0
Dy83 Dy 0.24074 0.80752 0.74957 0.0
O84 O 0.30761 0.66512 0.79335 0.0
O85 O 0.36553 0.71942 0.80273 0.0
O86 O 0.27442 0.69622 0.7014 0.0
O87 O 0.22563 0.73203 0.73728 0.0
C88 C 0.23187 0.70805 0.70056 0.0
C89 C 0.30834 0.83383 0.81664 0.0
O90 O 0.19278 0.77148 0.80085 0.0
O91 O 0.25361 0.73712 0.83311 0.0
O92 O 0.23443 0.87936 0.72645 0.0
O93 O 0.17147 0.83075 0.72824 0.0
O94 O 0.26548 0.84434 0.81768 0.0
O95 O 0.3135 0.81067 0.77938 0.0
O96 O 0.3418 0.76951 0.71245 0.0
O97 O 0.27983 0.80416 0.68235 0.0
C98 C 0.2098 0.74782 0.83446 0.0
C99 C 0.32328 0.7928 0.67905 0.0
Dy100 Dy 0.22775 0.25178 0.79352 0.0
C101 C 0.33096 0.21959 0.64052 0.0
C102 C 0.17849 0.2808 0.8656 0.0
Dy103 Dy 0.28816 0.2555 0.71451 0.0
O104 O 0.15988 0.25454 0.83054 0.0
O105 O 0.22444 0.28628 0.86336 0.0
O106 O 0.19407 0.1795 0.76986 0.0
O107 O 0.21434 0.23034 0.72049 0.0
C108 C 0.19738 0.18861 0.72538 0.0
C109 C 0.31969 0.32361 0.7748 0.0
O110 O 0.23594 0.30313 0.68595 0.0
O111 O 0.20207 0.31382 0.75738 0.0
O112 O 0.34277 0.26144 0.65826 0.0
O113 O 0.29548 0.19843 0.66282 0.0
O114 O 0.32168 0.32769 0.72939 0.0
O115 O 0.30259 0.2825 0.78561 0.0
O116 O 0.27342 0.20466 0.8285 0.0
O117 O 0.32226 0.20513 0.76497 0.0
C118 C 0.20659 0.32466 0.71244 0.0
C119 C 0.31088 0.19079 0.8085 0.0
Dy120 Dy 0.81433 0.23424 0.75073 0.0
C121 C 0.6991 0.35188 0.82224 0.0
C122 C 0.87174 0.18631 0.70092 0.0
Dy123 Dy 0.74504 0.29537 0.76814 0.0
O124 O 0.82567 0.17926 0.6984 0.0
O125 O 0.88656 0.21675 0.73396 0.0
O126 O 0.85379 0.25864 0.81788 0.0
O127 O 0.82173 0.30627 0.77744 0.0
C128 C 0.84463 0.30122 0.81518 0.0
C129 C 0.71332 0.22817 0.70358 0.0
O130 O 0.78796 0.34076 0.71758 0.0
O131 O 0.81818 0.27778 0.68636 0.0
O132 O 0.68546 0.33833 0.77942 0.0
O133 O 0.73715 0.33487 0.83451 0.0
O134 O 0.70319 0.27055 0.70195 0.0
O135 O 0.7369 0.22338 0.74103 0.0
O136 O 0.77952 0.18804 0.80437 0.0
O137 O 0.7349 0.24503 0.82776 0.0
C138 C 0.81147 0.32179 0.68421 0.0
C139 C 0.7499 0.20409 0.8338 0.0
Dy140 Dy 0.80393 0.76149 0.81236 0.0
C141 C 0.7091 0.83658 0.6605 0.0
C142 C 0.83772 0.709 0.8774 0.0
Dy143 Dy 0.74111 0.7792 0.72368 0.0
O144 O 0.84989 0.75413 0.87623 0.0
O145 O 0.80457 0.69448 0.84624 0.0
O146 O 0.87066 0.79499 0.77716 0.0
O147 O 0.8047 0.81408 0.75932 0.0
C148 C 0.84767 0.81788 0.74773 0.0
C149 C 0.69542 0.71121 0.77534 0.0
O150 O 0.79437 0.73379 0.69012 0.0
O151 O 0.82743 0.70931 0.75924 0.0
O152 O 0.70181 0.79124 0.65622 0.0
O153 O 0.73498 0.84946 0.69779 0.0
O154 O 0.67709 0.7246 0.73635 0.0
O155 O 0.73626 0.73408 0.78109 0.0
O156 O 0.75344 0.80622 0.84933 0.0
O157 O 0.70908 0.8219 0.78264 0.0
C158 C 0.82317 0.70741 0.71246 0.0
C159 C 0.71853 0.82684 0.82932 0.0
Fe160 Fe 0.02508 0.05936 0.49952 0.0
O161 O 0.98041 1.01378 0.53461 0.0
Fe162 Fe 0.12631 1.00802 0.49064 0.0
Fe163 Fe 0.91081 1.00954 0.52801 0.0
O164 O 0.05722 1.00493 0.48333 0.0
O165 O 0.05618 1.00047 0.48428 0.0
O166 O 0.97951 1.00964 0.53568 0.0
Fe167 Fe 1.01229 0.95508 0.52098 0.0
C168 C 0.95366 0.10815 0.55439 0.0
O169 O 0.98411 0.04634 0.43956 0.0
O170 O 0.91373 0.05072 0.47073 0.0
O171 O 0.0523 0.90368 0.49934 0.0
O172 O 0.11321 0.94427 0.45741 0.0
O173 O 0.12578 0.04934 0.4325 0.0
O174 O 0.07573 0.10065 0.45804 0.0
O175 O 0.89932 0.95178 0.48315 0.0
O176 O 0.97145 0.93846 0.46112 0.0
C177 C 0.10783 0.08806 0.42975 0.0
O178 O 0.05302 0.96986 0.58072 0.0
O179 O 0.12578 0.97235 0.55164 0.0
O180 O 0.98639 0.11116 0.52296 0.0
O181 O 0.92582 0.07084 0.56541 0.0
C182 C 0.94196 0.05578 0.43666 0.0
C183 C 0.92666 0.93458 0.45467 0.0
C184 C 0.92779 0.92664 0.58902 0.0
O185 O 0.909 0.96461 0.58346 0.0
O186 O 0.96206 0.91446 0.56327 0.0
C187 C 0.08552 0.90687 0.4684 0.0
O188 O 0.13638 0.06961 0.53052 0.0
O189 O 0.0654 0.07284 0.56033 0.0
C190 C 0.09741 0.96916 0.58573 0.0
C191 C 0.11032 0.08126 0.56339 0.0
Fe192 Fe 0.51355 0.90947 0.03017 0.0
O193 O 0.52016 0.97698 0.03564 0.0
Fe194 Fe 0.4636 0.01478 1.00539 0.0
Fe195 Fe 0.57926 0.01619 0.01637 0.0
O196 O 0.51276 0.97912 0.03786 0.0
O197 O 0.52282 0.05497 0.98792 0.0
O198 O 0.52997 0.05283 0.98564 0.0
Fe199 Fe 0.53016 0.1225 0.99392 0.0
C200 C 0.60661 0.93794 0.08661 0.0
O201 O 0.57269 0.90549 0.98701 0.0
O202 O 0.58813 0.97404 0.95449 0.0
O203 O 0.47909 0.11639 0.9388 0.0
O204 O 0.4222 0.05835 0.96326 0.0
O205 O 0.46728 0.97442 0.94473 0.0
O206 O 0.46848 0.90302 0.9719 0.0
O207 O 0.63276 0.06573 0.98954 0.0
O208 O 0.59016 0.11968 0.95454 0.0
C209 C 0.45696 0.93027 0.94054 0.0
O210 O 0.47309 0.12687 0.04002 0.0
O211 O 0.45123 0.05614 0.06648 0.0
O212 O 0.5632 0.91666 0.08596 0.0
O213 O 0.62085 0.9719 0.05778 0.0
C214 C 0.59365 0.93061 0.95546 0.0
C215 C 0.62863 0.10068 0.96216 0.0
C216 C 0.58864 0.10065 0.08188 0.0
O217 O 0.57868 0.05653 0.07737 0.0
O218 O 0.57688 0.12821 0.05095 0.0
C219 C 0.43626 0.09363 0.93606 0.0
O220 O 0.41001 0.96465 0.03056 0.0
O221 O 0.45236 0.91173 0.06762 0.0
C222 C 0.44916 0.10034 0.06872 0.0
C223 C 0.41393 0.9303 0.05869 0.0
Fe224 Fe 0.02758 0.56846 0.01321 0.0
O225 O 0.98904 0.5119 0.03802 0.0
Fe226 Fe 0.13132 0.52849 0.97772 0.0
Fe227 Fe 0.91899 0.50278 0.03746 0.0
O228 O 0.06211 0.5239 0.97829 0.0
O229 O 0.06124 0.52009 0.97721 0.0
O230 O 0.98843 0.50789 0.03741 0.0
Fe231 Fe 0.0224 0.46354 1.00145 0.0
C232 C 0.95275 0.59682 0.08155 0.0
O233 O 0.98211 0.56875 0.95646 0.0
O234 O 0.91308 0.55584 0.99289 0.0
O235 O 0.06244 0.42478 0.96069 0.0
O236 O 0.11737 0.47797 0.92497 0.0
O237 O 0.12435 0.58605 0.93931 0.0
O238 O 0.07158 0.62285 0.9827 0.0
O239 O 0.90752 0.45491 0.98166 0.0
O240 O 0.97601 0.46149 0.94448 0.0
C241 C 0.10415 0.62195 0.9514 0.0
O242 O 0.0689 0.46208 0.0575 0.0
O243 O 0.13725 0.47342 0.02007 0.0
O244 O 0.98618 0.6079 0.05192 0.0
O245 O 0.93156 0.55503 0.08848 0.0
C246 C 0.93874 0.57396 0.96049 0.0
C247 C 0.9316 0.44777 0.94565 0.0
C248 C 0.94702 0.41032 0.06443 0.0
O249 O 0.92701 0.44625 0.07705 0.0
O250 O 0.9784 0.40916 0.03192 0.0
C251 C 0.09361 0.43664 0.92898 0.0
O252 O 0.14277 0.57511 0.03515 0.0
O253 O 0.07311 0.57112 0.07048 0.0
C254 C 0.11147 0.45445 0.05202 0.0
C255 C 0.11767 0.5841 0.07003 0.0
Fe256 Fe 0.51865 0.51524 0.95195 0.0
O257 O 0.5556 0.54674 1.00706 0.0
Fe258 Fe 0.41103 0.47304 1.00159 0.0
Fe259 Fe 0.62511 0.55473 0.01169 0.0
O260 O 0.48086 0.48032 1.00148 0.0
O261 O 0.48052 0.48023 1.00643 0.0
O262 O 0.5554 0.54638 0.01194 0.0
Fe263 Fe 0.5173 0.51184 0.06157 0.0
C264 C 0.60612 0.47068 0.94378 0.0
O265 O 0.56465 0.55808 0.90724 0.0
O266 O 0.61811 0.60089 0.95929 0.0
O267 O 0.4756 0.5633 0.06392 0.0
O268 O 0.40426 0.52132 0.05444 0.0
O269 O 0.40573 0.52239 0.95211 0.0
O270 O 0.47606 0.5663 0.95327 0.0
O271 O 0.61642 0.59749 0.06788 0.0
O272 O 0.56269 0.55153 0.11276 0.0
C273 C 0.43235 0.55926 0.94146 0.0
O274 O 0.47028 0.4695 0.10665 0.0
O275 O 0.41737 0.42745 0.05398 0.0
O276 O 0.56138 0.46416 0.94833 0.0
O277 O 0.63207 0.50757 0.9585 0.0
C278 C 0.59866 0.59248 0.9176 0.0
C279 C 0.5951 0.58739 0.10681 0.0
C280 C 0.60379 0.46656 0.069 0.0
O281 O 0.63085 0.50372 0.05983 0.0
O282 O 0.55933 0.46076 0.06083 0.0
C283 C 0.43132 0.55706 0.07052 0.0
O284 O 0.41963 0.42951 0.94614 0.0
O285 O 0.47314 0.47541 0.90093 0.0
C286 C 0.4357 0.43563 0.09593 0.0
C287 C 0.44057 0.43966 0.90701 0.0
Fe288 Fe 0.03922 0.4111 0.51007 0.0
O289 O 0.04579 0.48035 0.51571 0.0
Fe290 Fe 0.02224 0.51282 0.45267 0.0
Fe291 Fe 1.01751 0.5161 0.56858 0.0
O292 O 0.04632 0.47997 0.5084 0.0
O293 O 0.99324 0.54791 0.50537 0.0
O294 O 0.99264 0.54821 0.51267 0.0
Fe295 Fe 0.99791 0.61674 0.50962 0.0
C296 C 0.95096 0.42571 0.56905 0.0
O297 O 0.08364 0.41989 0.56822 0.0
O298 O 0.05394 0.47278 0.61815 0.0
O299 O 0.05203 0.62578 0.46245 0.0
O300 O 0.08366 0.56001 0.45426 0.0
O301 O 0.06228 0.46718 0.40744 0.0
O302 O 0.0917 0.41934 0.46133 0.0
O303 O 0.07878 0.56355 0.57355 0.0
O304 O 0.04696 0.62888 0.56495 0.0
C305 C 0.09136 0.43659 0.41985 0.0
O306 O 0.95234 0.60592 0.45217 0.0
O307 O 0.98638 0.55562 0.40275 0.0
O308 O 0.98277 0.40169 0.55528 0.0
O309 O 0.95604 0.46978 0.56741 0.0
C310 C 0.08211 0.44044 0.60893 0.0
C311 C 0.07961 0.60712 0.58093 0.0
C312 C 0.94806 0.5922 0.60157 0.0
O313 O 0.97764 0.56202 0.61397 0.0
O314 O 0.9469 0.60866 0.5598 0.0
C315 C 0.0847 0.60334 0.44788 0.0
O316 O 0.96074 0.46613 0.447 0.0
O317 O 0.99191 0.40053 0.45309 0.0
C318 C 0.95644 0.58636 0.41129 0.0
C319 C 0.95984 0.42306 0.43733 0.0
Fe320 Fe 0.51848 0.96108 0.50397 0.0
O321 O 0.49526 1.01013 0.54433 0.0
Fe322 Fe 0.54637 0.01634 0.40025 0.0
Fe323 Fe 0.50057 1.0119 0.61374 0.0
O324 O 0.54989 0.01444 0.46858 0.0
O325 O 0.55262 0.01899 0.46986 0.0
O326 O 0.498 0.01448 0.54561 0.0
Fe327 Fe 0.52843 0.06794 0.50983 0.0
C328 C 0.45211 0.91641 0.57911 0.0
O329 O 0.57868 0.96454 0.54467 0.0
O330 O 0.54944 0.96506 0.61688 0.0
O331 O 0.56288 0.11795 0.46637 0.0
O332 O 0.59618 0.07484 0.40935 0.0
O333 O 0.59103 0.96626 0.40705 0.0
O334 O 0.54903 0.91692 0.45866 0.0
O335 O 0.55574 0.06613 0.62232 0.0
O336 O 0.58927 0.07706 0.5525 0.0
C337 C 0.5831 0.92761 0.42955 0.0
O338 O 0.46787 0.06288 0.46936 0.0
O339 O 0.4966 0.06212 0.39704 0.0
O340 O 0.48251 0.91102 0.54657 0.0
O341 O 0.44963 0.95454 0.60343 0.0
C342 C 0.58049 0.95529 0.58784 0.0
C343 C 0.59 0.08329 0.59717 0.0
C344 C 0.4639 0.10124 0.58444 0.0
O345 O 0.45669 0.06265 0.60711 0.0
O346 O 0.49712 0.11189 0.55445 0.0
C347 C 0.59238 0.11315 0.43286 0.0
O348 O 0.49191 0.96109 0.39219 0.0
O349 O 0.45769 0.95395 0.46171 0.0
C350 C 0.46532 0.07135 0.42604 0.0
C351 C 0.45731 0.9452 0.41753 0.0
C352 C 0.13155 0.13938 0.30894 0.0
C353 C 0.17239 0.17249 0.3171 0.0
C354 C 0.10974 0.1134 0.3458 0.0
C355 C 0.12725 0.12006 0.39258 0.0
H356 H 0.11661 0.13296 0.27356 0.0
H357 H 0.07934 0.08738 0.3375 0.0
S358 S 0.23128 0.20376 0.43398 0.0
N359 N 0.22797 0.21141 0.37665 0.0
N360 N 0.18716 0.16264 0.44534 0.0
C361 C 0.16737 0.15348 0.40151 0.0
C362 C 0.18982 0.17971 0.364 0.0
C363 C 0.90803 0.16421 0.38747 0.0
C364 C 0.89631 0.15083 0.34044 0.0
C365 C 0.92509 0.13334 0.41784 0.0
C366 C 0.93165 0.08862 0.40181 0.0
H367 H 0.90149 0.19775 0.40172 0.0
H368 H 0.93132 0.14389 0.45459 0.0
S369 S 0.91368 0.03938 0.28049 0.0
N370 N 0.89736 0.09188 0.27774 0.0
N371 N 0.93105 0.03382 0.33572 0.0
C372 C 0.9242 0.07602 0.35418 0.0
C373 C 0.9061 0.10734 0.32307 0.0
C374 C 0.86008 0.90579 0.33811 0.0
C375 C 0.86788 0.85964 0.32898 0.0
C376 C 0.87832 0.92973 0.37971 0.0
C377 C 0.90573 0.90845 0.41252 0.0
H378 H 0.83849 0.92283 0.31388 0.0
H379 H 0.87125 0.96511 0.38614 0.0
S380 S 0.93658 0.7885 0.40442 0.0
N381 N 0.90477 0.79369 0.35591 0.0
N382 N 0.93959 0.83903 0.43336 0.0
C383 C 0.91418 0.86265 0.40341 0.0
C384 C 0.89513 0.83814 0.3617 0.0
C385 C 0.1581 0.8384 0.40484 0.0
C386 C 0.14123 0.84615 0.35921 0.0
C387 C 0.13217 0.84808 0.44396 0.0
C388 C 0.08982 0.86717 0.43805 0.0
H389 H 0.19276 0.82737 0.41053 0.0
H390 H 0.14881 0.84745 0.47864 0.0
S391 S 0.02524 0.88195 0.32591 0.0
N392 N 0.07509 0.86309 0.30987 0.0
N393 N 0.02724 0.88423 0.38409 0.0
C394 C 0.06918 0.8679 0.39273 0.0
C395 C 0.09522 0.85732 0.3528 0.0
C396 C 0.11343 0.89334 0.68651 0.0
C397 C 0.16187 0.9067 0.69794 0.0
C398 C 0.09042 0.91756 0.65329 0.0
C399 C 0.11569 0.95511 0.63056 0.0
H400 H 0.09431 0.86186 0.70021 0.0
H401 H 0.05433 0.90397 0.64205 0.0
S402 S 0.23871 1.0112 0.65795 0.0
N403 N 0.2311 0.96576 0.69211 0.0
N404 N 0.18791 1.01043 0.62817 0.0
C405 C 0.1621 0.97231 0.64612 0.0
C406 C 0.18529 0.94821 0.68046 0.0
C407 C 0.18653 0.17246 0.63912 0.0
C408 C 0.17587 0.15878 0.68534 0.0
C409 C 0.16614 0.14644 0.59984 0.0
C410 C 0.13256 0.10704 0.6053 0.0
H411 H 0.21058 0.20386 0.63303 0.0
H412 H 0.17562 0.15806 0.56496 0.0
S413 S 0.09082 0.05696 0.71809 0.0
N414 N 0.12996 0.1025 0.73405 0.0
N415 N 0.08847 0.0557 0.65992 0.0
C416 C 0.12066 0.09333 0.65109 0.0
C417 C 0.14309 0.11869 0.69123 0.0
C418 C 0.87824 0.17635 0.61569 0.0
C419 C 0.90001 0.17754 0.66068 0.0
C420 C 0.90185 0.16314 0.57637 0.0
C421 C 0.94689 0.14914 0.58164 0.0
H422 H 0.84185 0.18329 0.61103 0.0
H423 H 0.88218 0.15739 0.54305 0.0
S424 S 0.0233 0.15813 0.68966 0.0
N425 N 0.97256 0.17428 0.7069 0.0
N426 N 1.01646 0.14641 0.63245 0.0
C427 C 0.97158 0.15669 0.62505 0.0
C428 C 0.94786 0.17115 0.66514 0.0
C429 C 0.84854 0.88227 0.69029 0.0
C430 C 0.86868 0.84395 0.70679 0.0
C431 C 0.86753 0.90772 0.6521 0.0
C432 C 0.9079 0.89633 0.62822 0.0
H433 H 0.8185 0.89364 0.70783 0.0
H434 H 0.85026 0.93707 0.64165 0.0
S435 S 0.97359 0.79777 0.6573 0.0
N436 N 0.93095 0.79501 0.69616 0.0
N437 N 0.96675 0.84262 0.62438 0.0
C438 C 0.92823 0.85758 0.64425 0.0
C439 C 0.9088 0.83169 0.68352 0.0
C440 C 0.40526 0.18703 0.1624 0.0
C441 C 0.35519 0.17429 0.16452 0.0
C442 C 0.43485 0.16296 0.13257 0.0
C443 C 0.41711 0.12293 0.10415 0.0
H444 H 0.42184 0.21705 0.18305 0.0
H445 H 0.4724 0.17609 0.13179 0.0
S446 S 0.28903 0.07317 0.09669 0.0
N447 N 0.28982 0.11786 0.13422 0.0
N448 N 0.3447 0.07219 0.08118 0.0
C449 C 0.36731 0.10915 0.10683 0.0
C450 C 0.33689 0.13464 0.13594 0.0
C451 C 0.85397 0.31778 0.10197 0.0
C452 C 0.87312 0.30578 0.14529 0.0
C453 C 0.88087 0.34806 0.07248 0.0
C454 C 0.92762 0.36695 0.08543 0.0
H455 H 0.8169 0.30657 0.0924 0.0
H456 H 0.86371 0.35989 0.0414 0.0
S457 S 0.99696 0.34095 0.19086 0.0
N458 N 0.94401 0.31027 0.19648 0.0
N459 N 0.99424 0.36788 0.14057 0.0
C460 C 0.94891 0.3517 0.12594 0.0
C461 C 0.92165 0.32066 0.15608 0.0
C462 C 0.71591 0.88511 0.13758 0.0
C463 C 0.70048 0.86626 0.18125 0.0
C464 C 0.68735 0.91068 0.10868 0.0
C465 C 0.64108 0.91854 0.12119 0.0
H466 H 0.75037 0.8793 0.12484 0.0
H467 H 0.70091 0.92248 0.07514 0.0
S468 S 0.58349 0.8794 0.23255 0.0
N469 N 0.6356 0.86007 0.23581 0.0
N470 N 0.58237 0.90649 0.18223 0.0
C471 C 0.62573 0.90094 0.16531 0.0
C472 C 0.65504 0.8755 0.19495 0.0
C473 C 0.19352 0.64904 0.16939 0.0
C474 C 0.1783 0.6934 0.16924 0.0
C475 C 0.17416 0.61343 0.13706 0.0
C476 C 0.13785 0.62063 0.10474 0.0
H477 H 0.22089 0.64189 0.1943 0.0
H478 H 0.18728 0.58005 0.13765 0.0
S479 S 0.08484 0.72961 0.09013 0.0
N480 N 0.12485 0.74212 0.13334 0.0
N481 N 0.0873 0.67481 0.07442 0.0
C482 C 0.12184 0.66439 0.10474 0.0
C483 C 0.14231 0.70087 0.13658 0.0
C484 C 0.38809 0.83926 0.85747 0.0
C485 C 0.3485 0.8606 0.84396 0.0
C486 C 0.42467 0.86302 0.88665 0.0
C487 C 0.42364 0.90945 0.90224 0.0
H488 H 0.38984 0.80334 0.84714 0.0
H489 H 0.4533 0.84442 0.89826 0.0
S490 S 0.33025 0.98266 0.87177 0.0
N491 N 0.31201 0.93183 0.84518 0.0
N492 N 0.38117 0.9768 0.89878 0.0
C493 C 0.38559 0.93203 0.88642 0.0
C494 C 0.34785 0.90749 0.85768 0.0
C495 C 0.18114 0.36397 0.88317 0.0
C496 C 0.15497 0.31919 0.88213 0.0
C497 C 0.15947 0.40289 0.89343 0.0
C498 C 0.11106 0.39821 0.90385 0.0
H499 H 0.21883 0.36927 0.87603 0.0
H500 H 0.18171 0.43634 0.89627 0.0
S501 S 0.02549 0.28934 0.89742 0.0
N502 N 0.07745 0.27254 0.88565 0.0
N503 N 0.03605 0.34635 0.90636 0.0
C504 C 0.08371 0.35396 0.89965 0.0
C505 C 0.10591 0.3142 0.88864 0.0
C506 C 0.70857 0.19778 0.90987 0.0
C507 C 0.72928 0.17542 0.87265 0.0
C508 C 0.67982 0.1724 0.94196 0.0
C509 C 0.67065 0.12361 0.93833 0.0
H510 H 0.71238 0.23544 0.91283 0.0
H511 H 0.66196 0.19133 0.96799 0.0
S512 S 0.72228 0.04759 0.85249 0.0
N513 N 0.74367 0.10101 0.8379 0.0
N514 N 0.6887 0.05329 0.89848 0.0
C515 C 0.69449 0.10037 0.90423 0.0
C516 C 0.72411 0.12634 0.8713 0.0
C517 C 0.88819 0.68478 0.94222 0.0
C518 C 0.86775 0.67696 0.897 0.0
C519 C 0.91424 0.65204 0.96159 0.0
C520 C 0.9208 0.61135 0.9359 0.0
H521 H 0.88251 0.71519 0.96322 0.0
H522 H 0.92817 0.65788 0.99731 0.0
S523 S 0.88198 0.57948 0.81312 0.0
N524 N 0.86089 0.62882 0.82466 0.0
N525 N 0.9104 0.56763 0.86178 0.0
C526 C 0.90368 0.6049 0.8896 0.0
C527 C 0.8768 0.63776 0.86994 0.0
C528 C 0.14032 0.37652 0.14946 0.0
C529 C 0.16472 0.34423 0.12557 0.0
C530 C 0.12157 0.4115 0.12521 0.0
C531 C 0.12853 0.41607 0.07683 0.0
H532 H 0.13654 0.37524 0.1873 0.0
H533 H 0.10329 0.43612 0.14462 0.0
S534 S 0.18834 0.33852 0.99876 0.0
N535 N 0.19226 0.31667 0.05144 0.0
N536 N 0.15957 0.38402 1.00556 0.0
C537 C 0.15191 0.3831 0.05253 0.0
C538 C 0.16937 0.34661 0.07704 0.0
C539 C 0.19855 0.71297 0.91267 0.0
C540 C 0.17818 0.72733 0.87095 0.0
C541 C 0.17195 0.68238 0.94212 0.0
C542 C 0.12427 0.6654 0.93077 0.0
H543 H 0.23612 0.72274 0.92094 0.0
H544 H 0.18984 0.66893 0.97188 0.0
S545 S 0.05223 0.69729 0.82967 0.0
N546 N 0.10564 0.72666 0.82288 0.0
N547 N 0.05594 0.66848 0.8787 0.0
C548 C 0.10207 0.68281 0.89191 0.0
C549 C 0.12905 0.71419 0.86181 0.0
C550 C 0.3254 0.14091 0.88035 0.0
C551 C 0.3418 0.1613 0.83764 0.0
C552 C 0.35439 0.11681 0.91042 0.0
C553 C 0.40212 0.11209 0.90024 0.0
H554 H 0.28972 0.14429 0.89139 0.0
H555 H 0.33977 0.10354 0.94303 0.0
S556 S 0.46274 0.15573 0.7919 0.0
N557 N 0.4093 0.1719 0.78631 0.0
N558 N 0.46322 0.12835 0.84209 0.0
C559 C 0.41851 0.13112 0.85703 0.0
C560 C 0.38878 0.155 0.82615 0.0
C561 C 0.89984 0.33123 0.88221 0.0
C562 C 0.86667 0.34 0.84707 0.0
C563 C 0.92138 0.36682 0.91311 0.0
C564 C 0.91034 0.41243 0.91033 0.0
H565 H 0.90925 0.29652 0.88604 0.0
H566 H 0.94617 0.35841 0.94012 0.0
S567 S 0.82541 0.45405 0.82582 0.0
N568 N 0.82413 0.39832 0.81137 0.0
N569 N 0.86347 0.46463 0.87098 0.0
C570 C 0.877 0.42183 0.87595 0.0
C571 C 0.85556 0.38576 0.84382 0.0
C572 C 0.68088 0.84617 0.90889 0.0
C573 C 0.68776 0.8556 0.86062 0.0
C574 C 0.65126 0.87051 0.93811 0.0
C575 C 0.62708 0.90731 0.92203 0.0
H576 H 0.69782 0.81867 0.92436 0.0
H577 H 0.64747 0.86022 0.97433 0.0
S578 S 0.633 0.94806 0.79892 0.0
N579 N 0.66672 0.9058 0.7985 0.0
N580 N 0.61358 0.95188 0.85312 0.0
C581 C 0.6344 0.91798 0.87408 0.0
C582 C 0.66368 0.89226 0.84381 0.0
C583 C 0.93097 0.71387 0.12808 0.0
C584 C 0.88232 0.71301 0.11682 0.0
C585 C 0.95381 0.67529 0.11761 0.0
C586 C 0.92819 0.635 0.09663 0.0
H587 H 0.95065 0.74304 0.14781 0.0
H588 H 0.99115 0.67635 0.12716 0.0
S589 S 0.80323 0.61967 0.05122 0.0
N590 N 0.81177 0.67232 0.07609 0.0
N591 N 0.8541 0.59873 0.0586 0.0
C592 C 0.88056 0.63507 0.08224 0.0
C593 C 0.8579 0.67473 0.09135 0.0
C594 C 0.33169 0.83443 0.10918 0.0
C595 C 0.31635 0.85589 0.14995 0.0
C596 C 0.35905 0.86031 0.07632 0.0
C597 C 0.37199 0.90855 0.08297 0.0
H598 H 0.32465 0.79698 0.10377 0.0
H599 H 0.37317 0.84195 0.04725 0.0
S600 S 0.3374 0.98227 0.18117 0.0
N601 N 0.31268 0.92909 0.193 0.0
N602 N 0.36491 0.97752 0.13101 0.0
C603 C 0.35398 0.9311 0.12148 0.0
C604 C 0.32587 0.90476 0.1551 0.0
C605 C 0.70244 0.12517 0.15561 0.0
C606 C 0.69821 0.16805 0.17842 0.0
C607 C 0.66512 0.10168 0.12718 0.0
C608 C 0.62262 0.12077 0.11966 0.0
H609 H 0.73508 0.10986 0.1592 0.0
H610 H 0.67059 0.0696 0.10897 0.0
S611 S 0.59237 0.23054 0.17349 0.0
N612 N 0.64663 0.22691 0.19414 0.0
N613 N 0.57753 0.18389 0.13886 0.0
C614 C 0.61742 0.16294 0.1432 0.0
C615 C 0.65492 0.18627 0.17308 0.0
C616 C 0.68711 0.68088 0.85659 0.0
C617 C 0.66968 0.68012 0.81 0.0
C618 C 0.66344 0.65298 0.89053 0.0
C619 C 0.62077 0.62282 0.8798 0.0
H620 H 0.71898 0.7039 0.86737 0.0
H621 H 0.67938 0.65519 0.92566 0.0
S622 S 0.55832 0.61015 0.76296 0.0
N623 N 0.60594 0.64837 0.75479 0.0
N624 N 0.56122 0.59576 0.81871 0.0
C625 C 0.60234 0.62236 0.83331 0.0
C626 C 0.62668 0.65108 0.79853 0.0
C627 C 0.34761 0.60564 0.85661 0.0
C628 C 0.37429 0.64618 0.84071 0.0
C629 C 0.3665 0.57866 0.89004 0.0
C630 C 0.41311 0.59086 0.90853 0.0
H631 H 0.31131 0.59504 0.84397 0.0
H632 H 0.3442 0.54777 0.9011 0.0
S633 S 0.49861 0.69289 0.87583 0.0
N634 N 0.44986 0.69702 0.84416 0.0
N635 N 0.48631 0.64569 0.90689 0.0
C636 C 0.44067 0.63105 0.89213 0.0
C637 C 0.42105 0.65883 0.85814 0.0
C638 C 0.37494 0.33467 0.8445 0.0
C639 C 0.35363 0.3538 0.80591 0.0
C640 C 0.40778 0.36229 0.87422 0.0
C641 C 0.42012 0.41015 0.86685 0.0
H642 H 0.36586 0.29821 0.8522 0.0
H643 H 0.42165 0.34661 0.90491 0.0
S644 S 0.37569 0.47662 0.76974 0.0
N645 N 0.34887 0.42284 0.76019 0.0
N646 N 0.40984 0.47523 0.81745 0.0
C647 C 0.40075 0.42935 0.82727 0.0
C648 C 0.36748 0.40105 0.79657 0.0
C649 C 0.62751 0.38717 0.84515 0.0
C650 C 0.67519 0.38126 0.8538 0.0
C651 C 0.60431 0.41452 0.87593 0.0
C652 C 0.6286 0.43729 0.91553 0.0
H653 H 0.60806 0.37054 0.8146 0.0
H654 H 0.56775 0.41915 0.86778 0.0
S655 S 0.75354 0.43182 0.95399 0.0
N656 N 0.74551 0.39894 0.90541 0.0
N657 N 0.7023 0.45142 0.96234 0.0
C658 C 0.67612 0.43115 0.92472 0.0
C659 C 0.69939 0.40282 0.89399 0.0
C660 C 0.67892 0.37772 0.10966 0.0
C661 C 0.66469 0.37156 0.1564 0.0
C662 C 0.65867 0.4085 0.08099 0.0
C663 C 0.62291 0.43276 0.09805 0.0
H664 H 0.707 0.35991 0.09562 0.0
H665 H 0.67109 0.41349 0.04552 0.0
S666 S 0.57134 0.42684 0.21661 0.0
N667 N 0.61197 0.39103 0.21797 0.0
N668 N 0.57266 0.44803 0.16321 0.0
C669 C 0.60716 0.42576 0.14403 0.0
C670 C 0.62844 0.39524 0.17355 0.0
C671 C 0.66851 0.62608 0.21574 0.0
C672 C 0.68144 0.67377 0.20764 0.0
C673 C 0.63572 0.59817 0.1856 0.0
C674 C 0.61451 0.61747 0.14701 0.0
H675 H 0.68532 0.60986 0.24438 0.0
H676 H 0.62957 0.56095 0.19056 0.0
S677 S 0.62976 0.74176 0.11554 0.0
N678 N 0.6659 0.73992 0.16162 0.0
N679 N 0.604 0.68773 0.10566 0.0
C680 C 0.6243 0.6657 0.14092 0.0
C681 C 0.65801 0.69383 0.17096 0.0
C682 C 0.34177 0.62269 0.12827 0.0
C683 C 0.36788 0.64547 0.16678 0.0
C684 C 0.36298 0.59483 0.09669 0.0
C685 C 0.4112 0.58953 0.10215 0.0
H686 H 0.30444 0.626 0.1227 0.0
H687 H 0.34143 0.57729 0.06783 0.0
S688 S 0.49526 0.64313 0.19677 0.0
N689 N 0.4442 0.6618 0.20869 0.0
N690 N 0.48481 0.60966 0.1487 0.0
C691 C 0.438 0.61279 0.14019 0.0
C692 C 0.41607 0.64065 0.17283 0.0
C693 C 0.40485 0.38144 0.21545 0.0
C694 C 0.36397 0.34903 0.20457 0.0
C695 C 0.42817 0.40925 0.18062 0.0
C696 C 0.41203 0.40525 0.13322 0.0
H697 H 0.41905 0.38537 0.25127 0.0
H698 H 0.45907 0.43388 0.19095 0.0
S699 S 0.30705 0.32345 0.0865 0.0
N700 N 0.30897 0.31392 0.14334 0.0
N701 N 0.35193 0.36442 0.07786 0.0
C702 C 0.3711 0.37229 0.12217 0.0
C703 C 0.34733 0.34473 0.15774 0.0
C704 C 0.89564 0.6609 0.70533 0.0
C705 C 0.85317 0.67475 0.68536 0.0
C706 C 0.92478 0.63173 0.6806 0.0
C707 C 0.9129 0.61349 0.6344 0.0
H708 H 0.90761 0.67406 0.74021 0.0
H709 H 0.9579 0.62522 0.69718 0.0
S710 S 0.80332 0.63441 0.56701 0.0
N711 N 0.80041 0.66465 0.61666 0.0
N712 N 0.85239 0.60986 0.57165 0.0
C713 C 0.86934 0.62556 0.61514 0.0
C714 C 0.84049 0.65584 0.63987 0.0
C715 C 0.33797 0.84964 0.61552 0.0
C716 C 0.35398 0.81411 0.64194 0.0
C717 C 0.36989 0.8806 0.59124 0.0
C718 C 0.41848 0.87626 0.59151 0.0
H719 H 0.30136 0.85636 0.6168 0.0
H720 H 0.35703 0.91001 0.57485 0.0
S721 S 0.47704 0.78351 0.64566 0.0
N722 N 0.42066 0.77192 0.6601 0.0
N723 N 0.48044 0.83026 0.61333 0.0
C724 C 0.43418 0.83784 0.61264 0.0
C725 C 0.40184 0.80654 0.63812 0.0
C726 C 0.18984 0.38229 0.64905 0.0
C727 C 0.1767 0.36009 0.69122 0.0
C728 C 0.16133 0.41244 0.62666 0.0
C729 C 0.11691 0.42224 0.64402 0.0
H730 H 0.22223 0.37556 0.63229 0.0
H731 H 0.17318 0.42633 0.59327 0.0
S732 S 0.06607 0.37534 0.75509 0.0
N733 N 0.1166 0.35309 0.75146 0.0
N734 N 0.06264 0.40748 0.70825 0.0
C735 C 0.10406 0.40181 0.68729 0.0
C736 C 0.13377 0.37153 0.71087 0.0
C737 C 0.67005 0.19648 0.62887 0.0
C738 C 0.68728 0.18878 0.67452 0.0
C739 C 0.64151 0.16099 0.60231 0.0
C740 C 0.62817 0.11677 0.6209 0.0
H741 H 0.67784 0.23054 0.61391 0.0
H742 H 0.62761 0.16908 0.56811 0.0
S743 S 0.66561 0.07776 0.73753 0.0
N744 N 0.69109 0.13234 0.73578 0.0
N745 N 0.63607 0.06667 0.68684 0.0
C746 C 0.64635 0.10823 0.66584 0.0
C747 C 0.67629 0.1439 0.69237 0.0
C748 C 0.84236 0.39187 0.36857 0.0
C749 C 0.85135 0.35524 0.33789 0.0
C750 C 0.87752 0.4137 0.40054 0.0
C751 C 0.92279 0.39914 0.4038 0.0
H752 H 0.80791 0.40408 0.36774 0.0
H753 H 0.86899 0.44192 0.42318 0.0
S754 S 0.96505 0.3057 0.3304 0.0
N755 N 0.90956 0.30644 0.31188 0.0
N756 N 0.97508 0.34636 0.37259 0.0
C757 C 0.93223 0.36245 0.37337 0.0
C758 C 0.8967 0.34081 0.34028 0.0
C759 C 0.6316 0.81563 0.40339 0.0
C760 C 0.68085 0.83059 0.40329 0.0
C761 C 0.59976 0.84711 0.41352 0.0
C762 C 0.61655 0.89416 0.42346 0.0
H763 H 0.61732 0.78041 0.39217 0.0
H764 H 0.56186 0.83518 0.41117 0.0
S765 S 0.74224 0.94803 0.43806 0.0
N766 N 0.74512 0.89337 0.42193 0.0
N767 N 0.68494 0.95274 0.4404 0.0
C768 C 0.66566 0.9085 0.42785 0.0
C769 C 0.69803 0.87646 0.41816 0.0
C770 C 0.20148 0.6379 0.38409 0.0
C771 C 0.19203 0.67781 0.36044 0.0
C772 C 0.16679 0.61349 0.41249 0.0
C773 C 0.1217 0.62827 0.41791 0.0
H774 H 0.23597 0.62609 0.38138 0.0
H775 H 0.17552 0.58333 0.43076 0.0
S776 S 0.07714 0.72618 0.35654 0.0
N777 N 0.13258 0.7275 0.33994 0.0
N778 N 0.06832 0.6825 0.3926 0.0
C779 C 0.11156 0.66701 0.39261 0.0
C780 C 0.14646 0.69149 0.36405 0.0
C781 C 0.38787 0.1671 0.42178 0.0
C782 C 0.3641 0.15819 0.37801 0.0
C783 C 0.41908 0.13726 0.43819 0.0
C784 C 0.42833 0.09858 0.41059 0.0
H785 H 0.38308 0.1977 0.44292 0.0
H786 H 0.4377 0.14569 0.47172 0.0
S787 S 0.37364 0.05902 0.29454 0.0
N788 N 0.34998 0.10639 0.30844 0.0
N789 N 0.41015 0.05164 0.33896 0.0
C790 C 0.40399 0.08867 0.36745 0.0
C791 C 0.37134 0.11817 0.35124 0.0
C792 C 0.6786 0.91235 0.65823 0.0
C793 C 0.68135 0.86853 0.63653 0.0
C794 C 0.64599 0.94069 0.64207 0.0
C795 C 0.61626 0.92667 0.60292 0.0
H796 H 0.7001 0.92402 0.68941 0.0
H797 H 0.64364 0.97341 0.66058 0.0
S798 S 0.61109 0.81667 0.53223 0.0
N799 N 0.65261 0.81321 0.57322 0.0
N800 N 0.59214 0.86745 0.54163 0.0
C801 C 0.62004 0.88404 0.57952 0.0
C802 C 0.65253 0.85468 0.59662 0.0
C803 C 0.70192 0.18977 0.39957 0.0
C804 C 0.68398 0.21718 0.36493 0.0
C805 C 0.67138 0.15846 0.42495 0.0
C806 C 0.62206 0.15456 0.41743 0.0
H807 H 0.73988 0.18971 0.40472 0.0
H808 H 0.68649 0.13508 0.44835 0.0
S809 S 0.55628 0.22371 0.33785 0.0
N810 N 0.61298 0.24256 0.32945 0.0
N811 N 0.55578 0.18374 0.3782 0.0
C812 C 0.60327 0.18487 0.38686 0.0
C813 C 0.63428 0.21646 0.36043 0.0
C814 C 0.91001 0.65949 0.31209 0.0
C815 C 0.8628 0.66373 0.32578 0.0
C816 C 0.93947 0.63072 0.33625 0.0
C817 C 0.92288 0.60338 0.37458 0.0
H818 H 0.92539 0.68056 0.28399 0.0
H819 H 0.97635 0.63222 0.32662 0.0
S820 S 0.8009 0.59768 0.42184 0.0
N821 N 0.80079 0.635 0.379 0.0
N822 N 0.85427 0.5809 0.42246 0.0
C823 C 0.87489 0.60548 0.38652 0.0
C824 C 0.84555 0.63537 0.36286 0.0
C825 C 0.37305 0.88034 0.32434 0.0
C826 C 0.35873 0.83722 0.34491 0.0
C827 C 0.40342 0.91585 0.3488 0.0
C828 C 0.41942 0.9103 0.39535 0.0
H829 H 0.36245 0.88601 0.2883 0.0
H830 H 0.41532 0.94758 0.33075 0.0
S831 S 0.38885 0.80557 0.46653 0.0
N832 N 0.361 0.79182 0.4153 0.0
N833 N 0.41647 0.85909 0.46184 0.0
C834 C 0.40331 0.86826 0.41715 0.0
C835 C 0.37344 0.83161 0.39178 0.0
C836 C 0.14323 0.36587 0.31792 0.0
C837 C 0.18679 0.35411 0.33753 0.0
C838 C 0.11397 0.39529 0.342 0.0
C839 C 0.1267 0.41581 0.38713 0.0
H840 H 0.13052 0.35093 0.28387 0.0
H841 H 0.08004 0.40008 0.32596 0.0
S842 S 0.2386 0.40063 0.45339 0.0
N843 N 0.24129 0.36867 0.40481 0.0
N844 N 0.18856 0.42356 0.4487 0.0
C845 C 0.17114 0.40583 0.40603 0.0
C846 C 0.20034 0.37547 0.38192 0.0
C847 C 0.34808 0.1458 0.60533 0.0
C848 C 0.36216 0.19377 0.61303 0.0
C849 C 0.38142 0.11627 0.59493 0.0
C850 C 0.42958 0.13396 0.59079 0.0
H851 H 0.31174 0.13035 0.61096 0.0
H852 H 0.36961 0.07917 0.59156 0.0
S853 S 0.4827 0.25791 0.59773 0.0
N854 N 0.42592 0.25861 0.60905 0.0
N855 N 0.48884 0.20267 0.58787 0.0
C856 C 0.44331 0.18231 0.59316 0.0
C857 C 0.40936 0.21247 0.60452 0.0
C858 C 0.85407 0.39812 0.65836 0.0
C859 C 0.83823 0.35063 0.64859 0.0
C860 C 0.88856 0.42317 0.63064 0.0
C861 C 0.90865 0.40152 0.59239 0.0
H862 H 0.8421 0.41533 0.68931 0.0
H863 H 0.90163 0.45891 0.64104 0.0
S864 S 0.87227 0.28078 0.5464 0.0
N865 N 0.84002 0.28513 0.59355 0.0
N866 N 0.90505 0.33196 0.54218 0.0
C867 C 0.89031 0.35523 0.58009 0.0
C868 C 0.85504 0.32988 0.60797 0.0
C869 C 0.20121 0.64659 0.63934 0.0
C870 C 0.19268 0.68372 0.66966 0.0
C871 C 0.16451 0.62161 0.61112 0.0
C872 C 0.11804 0.63341 0.61134 0.0
H873 H 0.23646 0.63626 0.63775 0.0
H874 H 0.17273 0.59322 0.58854 0.0
S875 S 0.07661 0.72704 0.68511 0.0
N876 N 0.13387 0.73025 0.69882 0.0
N877 N 0.06525 0.68425 0.64523 0.0
C878 C 0.10906 0.67063 0.64132 0.0
C879 C 0.14626 0.69553 0.67057 0.0
loop_
_geom_bond_atom_site_label_1
_geom_bond_atom_site_label_2
_geom_bond_distance
_geom_bond_site_symmetry_2
_ccdc_geom_bond_type
Dy0 O4 2.398 . S
Dy0 O5 2.491 . S
Dy0 O6 2.403 . S
Dy0 O7 2.664 . S
Dy0 O11 2.326 . S
Dy0 O15 2.310 . S
Dy0 O16 2.351 . S
C1 O12 1.185 . S
C1 O13 1.355 . S
C2 O4 1.185 . S
C2 O5 1.355 . S
Dy3 O7 2.310 . S
Dy3 O10 2.351 . S
Dy3 O12 2.398 . S
Dy3 O13 2.491 . S
Dy3 O14 2.403 . S
Dy3 O15 2.664 . S
Dy3 O17 2.326 . S
O4 Dy0 2.398 . S
O4 C2 1.185 . S
O5 Dy0 2.491 . S
O5 C2 1.355 . S
O6 Dy0 2.403 . S
O6 C8 1.254 . S
O7 Dy0 2.664 . S
O7 Dy3 2.310 . S
O7 C8 1.268 . S
C8 O6 1.254 . S
C8 O7 1.268 . S
C9 O14 1.254 . S
C9 O15 1.268 . S
O10 Dy3 2.351 . S
O10 C18 1.249 . S
O11 Dy0 2.326 . S
O11 C18 1.267 . S
O12 C1 1.185 . S
O12 Dy3 2.398 . S
O13 C1 1.355 . S
O13 Dy3 2.491 . S
O14 Dy3 2.403 . S
O14 C9 1.254 . S
O15 Dy0 2.310 . S
O15 Dy3 2.664 . S
O15 C9 1.268 . S
O16 Dy0 2.351 . S
O16 C19 1.249 . S
O17 Dy3 2.326 . S
O17 C19 1.267 . S
C18 O10 1.249 . S
C18 O11 1.267 . S
C19 O16 1.249 . S
C19 O17 1.267 . S
Dy20 O24 2.398 . S
Dy20 O25 2.491 . S
Dy20 O26 2.403 . S
Dy20 O27 2.664 . S
Dy20 O31 2.326 . S
Dy20 O35 2.310 . S
Dy20 O36 2.351 . S
C21 O32 1.185 . S
C21 O33 1.355 . S
C22 O24 1.185 . S
C22 O25 1.355 . S
Dy23 O27 2.310 . S
Dy23 O30 2.351 . S
Dy23 O32 2.398 . S
Dy23 O33 2.491 . S
Dy23 O34 2.403 . S
Dy23 O35 2.664 . S
Dy23 O37 2.326 . S
O24 Dy20 2.398 . S
O24 C22 1.185 . S
O25 Dy20 2.491 . S
O25 C22 1.355 . S
O26 Dy20 2.403 . S
O26 C28 1.254 . S
O27 Dy20 2.664 . S
O27 Dy23 2.310 . S
O27 C28 1.268 . S
C28 O26 1.254 . S
C28 O27 1.268 . S
C29 O34 1.254 . S
C29 O35 1.268 . S
O30 Dy23 2.351 . S
O30 C38 1.249 . S
O31 Dy20 2.326 . S
O31 C38 1.267 . S
O32 C21 1.185 . S
O32 Dy23 2.398 . S
O33 C21 1.355 . S
O33 Dy23 2.491 . S
O34 Dy23 2.403 . S
O34 C29 1.254 . S
O35 Dy20 2.310 . S
O35 Dy23 2.664 . S
O35 C29 1.268 . S
O36 Dy20 2.351 . S
O36 C39 1.249 . S
O37 Dy23 2.326 . S
O37 C39 1.267 . S
C38 O30 1.249 . S
C38 O31 1.267 . S
C39 O36 1.249 . S
C39 O37 1.267 . S
Dy40 O44 2.398 . S
Dy40 O45 2.491 . S
Dy40 O46 2.403 . S
Dy40 O47 2.664 . S
Dy40 O51 2.326 . S
Dy40 O55 2.310 . S
Dy40 O56 2.351 . S
C41 O52 1.185 . S
C41 O53 1.355 . S
C42 O44 1.185 . S
C42 O45 1.355 . S
Dy43 O47 2.310 . S
Dy43 O50 2.351 . S
Dy43 O52 2.398 . S
Dy43 O53 2.491 . S
Dy43 O54 2.403 . S
Dy43 O55 2.664 . S
Dy43 O57 2.326 . S
O44 Dy40 2.398 . S
O44 C42 1.185 . S
O45 Dy40 2.491 . S
O45 C42 1.355 . S
O46 Dy40 2.403 . S
O46 C48 1.254 . S
O47 Dy40 2.664 . S
O47 Dy43 2.310 . S
O47 C48 1.268 . S
C48 O46 1.254 . S
C48 O47 1.268 . S
C49 O54 1.254 . S
C49 O55 1.268 . S
O50 Dy43 2.351 . S
O50 C58 1.249 . S
O51 Dy40 2.326 . S
O51 C58 1.267 . S
O52 C41 1.185 . S
O52 Dy43 2.398 . S
O53 C41 1.355 . S
O53 Dy43 2.491 . S
O54 Dy43 2.403 . S
O54 C49 1.254 . S
O55 Dy40 2.310 . S
O55 Dy43 2.664 . S
O55 C49 1.268 . S
O56 Dy40 2.351 . S
O56 C59 1.249 . S
O57 Dy43 2.326 . S
O57 C59 1.267 . S
C58 O50 1.249 . S
C58 O51 1.267 . S
C59 O56 1.249 . S
C59 O57 1.267 . S
Dy60 O64 2.398 . S
Dy60 O65 2.491 . S
Dy60 O66 2.403 . S
Dy60 O67 2.664 . S
Dy60 O71 2.326 . S
Dy60 O75 2.310 . S
Dy60 O76 2.351 . S
C61 O72 1.185 . S
C61 O73 1.355 . S
C62 O64 1.185 . S
C62 O65 1.355 . S
Dy63 O67 2.310 . S
Dy63 O70 2.351 . S
Dy63 O72 2.398 . S
Dy63 O73 2.491 . S
Dy63 O74 2.403 . S
Dy63 O75 2.664 . S
Dy63 O77 2.326 . S
O64 Dy60 2.398 . S
O64 C62 1.185 . S
O65 Dy60 2.491 . S
O65 C62 1.355 . S
O66 Dy60 2.403 . S
O66 C68 1.254 . S
O67 Dy60 2.664 . S
O67 Dy63 2.310 . S
O67 C68 1.268 . S
C68 O66 1.254 . S
C68 O67 1.268 . S
C69 O74 1.254 . S
C69 O75 1.268 . S
O70 Dy63 2.351 . S
O70 C78 1.249 . S
O71 Dy60 2.326 . S
O71 C78 1.267 . S
O72 C61 1.185 . S
O72 Dy63 2.398 . S
O73 C61 1.355 . S
O73 Dy63 2.491 . S
O74 Dy63 2.403 . S
O74 C69 1.254 . S
O75 Dy60 2.310 . S
O75 Dy63 2.664 . S
O75 C69 1.268 . S
O76 Dy60 2.351 . S
O76 C79 1.249 . S
O77 Dy63 2.326 . S
O77 C79 1.267 . S
C78 O70 1.249 . S
C78 O71 1.267 . S
C79 O76 1.249 . S
C79 O77 1.267 . S
Dy80 O84 2.398 . S
Dy80 O85 2.491 . S
Dy80 O86 2.403 . S
Dy80 O87 2.664 . S
Dy80 O91 2.326 . S
Dy80 O95 2.310 . S
Dy80 O96 2.351 . S
C81 O92 1.185 . S
C81 O93 1.355 . S
C82 O84 1.185 . S
C82 O85 1.355 . S
Dy83 O87 2.310 . S
Dy83 O90 2.351 . S
Dy83 O92 2.398 . S
Dy83 O93 2.491 . S
Dy83 O94 2.403 . S
Dy83 O95 2.664 . S
Dy83 O97 2.326 . S
O84 Dy80 2.398 . S
O84 C82 1.185 . S
O85 Dy80 2.491 . S
O85 C82 1.355 . S
O86 Dy80 2.403 . S
O86 C88 1.254 . S
O87 Dy80 2.664 . S
O87 Dy83 2.310 . S
O87 C88 1.268 . S
C88 O86 1.254 . S
C88 O87 1.268 . S
C89 O94 1.254 . S
C89 O95 1.268 . S
O90 Dy83 2.351 . S
O90 C98 1.249 . S
O91 Dy80 2.326 . S
O91 C98 1.267 . S
O92 C81 1.185 . S
O92 Dy83 2.398 . S
O93 C81 1.355 . S
O93 Dy83 2.491 . S
O94 Dy83 2.403 . S
O94 C89 1.254 . S
O95 Dy80 2.310 . S
O95 Dy83 2.664 . S
O95 C89 1.268 . S
O96 Dy80 2.351 . S
O96 C99 1.249 . S
O97 Dy83 2.326 . S
O97 C99 1.267 . S
C98 O90 1.249 . S
C98 O91 1.267 . S
C99 O96 1.249 . S
C99 O97 1.267 . S
Dy100 O104 2.398 . S
Dy100 O105 2.491 . S
Dy100 O106 2.403 . S
Dy100 O107 2.664 . S
Dy100 O111 2.326 . S
Dy100 O115 2.310 . S
Dy100 O116 2.351 . S
C101 O112 1.185 . S
C101 O113 1.355 . S
C102 O104 1.185 . S
C102 O105 1.355 . S
Dy103 O107 2.310 . S
Dy103 O110 2.351 . S
Dy103 O112 2.398 . S
Dy103 O113 2.491 . S
Dy103 O114 2.403 . S
Dy103 O115 2.664 . S
Dy103 O117 2.326 . S
O104 Dy100 2.398 . S
O104 C102 1.185 . S
O105 Dy100 2.491 . S
O105 C102 1.355 . S
O106 Dy100 2.403 . S
O106 C108 1.254 . S
O107 Dy100 2.664 . S
O107 Dy103 2.310 . S
O107 C108 1.268 . S
C108 O106 1.254 . S
C108 O107 1.268 . S
C109 O114 1.254 . S
C109 O115 1.268 . S
O110 Dy103 2.351 . S
O110 C118 1.249 . S
O111 Dy100 2.326 . S
O111 C118 1.267 . S
O112 C101 1.185 . S
O112 Dy103 2.398 . S
O113 C101 1.355 . S
O113 Dy103 2.491 . S
O114 Dy103 2.403 . S
O114 C109 1.254 . S
O115 Dy100 2.310 . S
O115 Dy103 2.664 . S
O115 C109 1.268 . S
O116 Dy100 2.351 . S
O116 C119 1.249 . S
O117 Dy103 2.326 . S
O117 C119 1.267 . S
C118 O110 1.249 . S
C118 O111 1.267 . S
C119 O116 1.249 . S
C119 O117 1.267 . S
Dy120 O124 2.398 . S
Dy120 O125 2.491 . S
Dy120 O126 2.403 . S
Dy120 O127 2.664 . S
Dy120 O131 2.326 . S
Dy120 O135 2.310 . S
Dy120 O136 2.351 . S
C121 O132 1.185 . S
C121 O133 1.355 . S
C122 O124 1.185 . S
C122 O125 1.355 . S
Dy123 O127 2.310 . S
Dy123 O130 2.351 . S
Dy123 O132 2.398 . S
Dy123 O133 2.491 . S
Dy123 O134 2.403 . S
Dy123 O135 2.664 . S
Dy123 O137 2.326 . S
O124 Dy120 2.398 . S
O124 C122 1.185 . S
O125 Dy120 2.491 . S
O125 C122 1.355 . S
O126 Dy120 2.403 . S
O126 C128 1.254 . S
O127 Dy120 2.664 . S
O127 Dy123 2.310 . S
O127 C128 1.268 . S
C128 O126 1.254 . S
C128 O127 1.268 . S
C129 O134 1.254 . S
C129 O135 1.268 . S
O130 Dy123 2.351 . S
O130 C138 1.249 . S
O131 Dy120 2.326 . S
O131 C138 1.267 . S
O132 C121 1.185 . S
O132 Dy123 2.398 . S
O133 C121 1.355 . S
O133 Dy123 2.491 . S
O134 Dy123 2.403 . S
O134 C129 1.254 . S
O135 Dy120 2.310 . S
O135 Dy123 2.664 . S
O135 C129 1.268 . S
O136 Dy120 2.351 . S
O136 C139 1.249 . S
O137 Dy123 2.326 . S
O137 C139 1.267 . S
C138 O130 1.249 . S
C138 O131 1.267 . S
C139 O136 1.249 . S
C139 O137 1.267 . S
Dy140 O144 2.398 . S
Dy140 O145 2.491 . S
Dy140 O146 2.403 . S
Dy140 O147 2.664 . S
Dy140 O151 2.326 . S
Dy140 O155 2.310 . S
Dy140 O156 2.351 . S
C141 O152 1.185 . S
C141 O153 1.355 . S
C142 O144 1.185 . S
C142 O145 1.355 . S
Dy143 O147 2.310 . S
Dy143 O150 2.351 . S
Dy143 O152 2.398 . S
Dy143 O153 2.491 . S
Dy143 O154 2.403 . S
Dy143 O155 2.664 . S
Dy143 O157 2.326 . S
O144 Dy140 2.398 . S
O144 C142 1.185 . S
O145 Dy140 2.491 . S
O145 C142 1.355 . S
O146 Dy140 2.403 . S
O146 C148 1.254 . S
O147 Dy140 2.664 . S
O147 Dy143 2.310 . S
O147 C148 1.268 . S
C148 O146 1.254 . S
C148 O147 1.268 . S
C149 O154 1.254 . S
C149 O155 1.268 . S
O150 Dy143 2.351 . S
O150 C158 1.249 . S
O151 Dy140 2.326 . S
O151 C158 1.267 . S
O152 C141 1.185 . S
O152 Dy143 2.398 . S
O153 C141 1.355 . S
O153 Dy143 2.491 . S
O154 Dy143 2.403 . S
O154 C149 1.254 . S
O155 Dy140 2.310 . S
O155 Dy143 2.664 . S
O155 C149 1.268 . S
O156 Dy140 2.351 . S
O156 C159 1.249 . S
O157 Dy143 2.326 . S
O157 C159 1.267 . S
C158 O150 1.249 . S
C158 O151 1.267 . S
C159 O156 1.249 . S
C159 O157 1.267 . S
Fe160 O161 1.886 1_455 S
Fe160 O164 1.715 . S
Fe160 O169 2.077 1_455 S
Fe160 O174 1.935 . S
Fe160 O180 2.077 1_455 S
Fe160 O189 1.935 . S
O161 Fe160 1.886 1_655 S
O161 Fe163 1.715 1_545 S
Fe162 O164 1.886 . S
Fe162 O165 1.715 1_545 S
Fe162 O172 1.935 1_545 S
Fe162 O173 2.077 . S
Fe162 O179 1.935 1_545 S
Fe162 O188 2.077 . S
Fe163 O161 1.715 1_565 S
Fe163 O166 1.886 . S
Fe163 O170 1.935 1_565 S
Fe163 O175 2.077 . S
Fe163 O181 1.935 1_565 S
Fe163 O185 2.077 . S
O164 Fe160 1.715 . S
O164 Fe162 1.886 . S
O165 Fe162 1.715 1_565 S
O165 Fe167 1.886 1_455 S
O166 Fe163 1.886 . S
O166 Fe167 1.715 . S
Fe167 O165 1.886 1_655 S
Fe167 O166 1.715 . S
Fe167 O171 2.077 1_655 S
Fe167 O176 1.935 . S
Fe167 O178 2.077 1_655 S
Fe167 O186 1.935 . S
C168 O180 1.381 . S
C168 O181 1.421 . S
O169 Fe160 2.077 1_655 S
O169 C182 1.381 . S
O170 Fe163 1.935 1_545 S
O170 C182 1.421 . S
O171 Fe167 2.077 1_455 S
O171 C187 1.381 . S
O172 Fe162 1.935 1_565 S
O172 C187 1.421 . S
O173 Fe162 2.077 . S
O173 C177 1.381 . S
O174 Fe160 1.935 . S
O174 C177 1.421 . S
O175 Fe163 2.077 . S
O175 C183 1.381 . S
O176 Fe167 1.935 . S
O176 C183 1.421 . S
C177 O173 1.381 . S
C177 O174 1.421 . S
O178 Fe167 2.077 1_455 S
O178 C190 1.381 . S
O179 Fe162 1.935 1_565 S
O179 C190 1.421 . S
O180 Fe160 2.077 1_655 S
O180 C168 1.381 . S
O181 Fe163 1.935 1_545 S
O181 C168 1.421 . S
C182 O169 1.381 . S
C182 O170 1.421 . S
C183 O175 1.381 . S
C183 O176 1.421 . S
C184 O185 1.381 . S
C184 O186 1.421 . S
O185 Fe163 2.077 . S
O185 C184 1.381 . S
O186 Fe167 1.935 . S
O186 C184 1.421 . S
C187 O171 1.381 . S
C187 O172 1.421 . S
O188 Fe162 2.077 . S
O188 C191 1.381 . S
O189 Fe160 1.935 . S
O189 C191 1.421 . S
C190 O178 1.381 . S
C190 O179 1.421 . S
C191 O188 1.381 . S
C191 O189 1.421 . S
Fe192 O193 1.886 1_556 S
Fe192 O196 1.715 . S
Fe192 O201 2.077 . S
Fe192 O206 1.935 . S
Fe192 O212 2.077 1_556 S
Fe192 O221 1.935 1_556 S
O193 Fe192 1.886 1_554 S
O193 Fe195 1.715 1_565 S
Fe194 O196 1.886 . S
Fe194 O197 1.715 1_565 S
Fe194 O204 1.935 1_565 S
Fe194 O205 2.077 . S
Fe194 O211 1.935 1_566 S
Fe194 O220 2.077 1_556 S
Fe195 O193 1.715 1_545 S
Fe195 O198 1.886 . S
Fe195 O202 1.935 1_544 S
Fe195 O207 2.077 1_554 S
Fe195 O213 1.935 1_545 S
Fe195 O217 2.077 . S
O196 Fe192 1.715 . S
O196 Fe194 1.886 . S
O197 Fe194 1.715 1_545 S
O197 Fe199 1.885 1_556 S
O198 Fe195 1.886 . S
O198 Fe199 1.715 . S
Fe199 O197 1.885 1_554 S
Fe199 O198 1.715 . S
Fe199 O203 2.077 1_554 S
Fe199 O208 1.935 1_554 S
Fe199 O210 2.077 . S
Fe199 O218 1.935 . S
C200 O212 1.381 . S
C200 O213 1.421 . S
O201 Fe192 2.077 . S
O201 C214 1.381 . S
O202 Fe195 1.935 1_566 S
O202 C214 1.421 . S
O203 Fe199 2.077 1_556 S
O203 C219 1.381 . S
O204 Fe194 1.935 1_545 S
O204 C219 1.421 . S
O205 Fe194 2.077 . S
O205 C209 1.381 . S
O206 Fe192 1.935 . S
O206 C209 1.421 . S
O207 Fe195 2.077 1_556 S
O207 C215 1.381 . S
O208 Fe199 1.935 1_556 S
O208 C215 1.421 . S
C209 O205 1.381 . S
C209 O206 1.421 . S
O210 Fe199 2.077 . S
O210 C222 1.381 . S
O211 Fe194 1.935 1_544 S
O211 C222 1.421 . S
O212 Fe192 2.077 1_554 S
O212 C200 1.381 . S
O213 Fe195 1.935 1_565 S
O213 C200 1.421 . S
C214 O201 1.381 . S
C214 O202 1.421 . S
C215 O207 1.381 . S
C215 O208 1.421 . S
C216 O217 1.381 . S
C216 O218 1.421 . S
O217 Fe195 2.077 . S
O217 C216 1.381 . S
O218 Fe199 1.935 . S
O218 C216 1.421 . S
C219 O203 1.381 . S
C219 O204 1.421 . S
O220 Fe194 2.077 1_554 S
O220 C223 1.381 . S
O221 Fe192 1.935 1_554 S
O221 C223 1.421 . S
C222 O210 1.381 . S
C222 O211 1.421 . S
C223 O220 1.381 . S
C223 O221 1.421 . S
Fe224 O225 1.885 1_454 S
Fe224 O228 1.715 . S
Fe224 O233 2.077 1_454 S
Fe224 O238 1.935 1_554 S
Fe224 O244 2.077 1_455 S
Fe224 O253 1.935 . S
O225 Fe224 1.885 1_656 S
O225 Fe227 1.715 . S
Fe226 O228 1.886 . S
Fe226 O229 1.715 . S
Fe226 O236 1.935 1_554 S
Fe226 O237 2.077 1_554 S
Fe226 O243 1.935 . S
Fe226 O252 2.077 . S
Fe227 O225 1.715 . S
Fe227 O230 1.886 . S
Fe227 O234 1.935 . S
Fe227 O239 2.077 . S
Fe227 O245 1.935 1_556 S
Fe227 O249 2.077 1_556 S
O228 Fe224 1.715 . S
O228 Fe226 1.886 . S
O229 Fe226 1.715 . S
O229 Fe231 1.886 1_454 S
O230 Fe227 1.886 . S
O230 Fe231 1.715 . S
Fe231 O229 1.886 1_656 S
Fe231 O230 1.715 . S
Fe231 O235 2.077 1_655 S
Fe231 O240 1.935 . S
Fe231 O242 2.077 1_656 S
Fe231 O250 1.935 1_556 S
C232 O244 1.381 . S
C232 O245 1.421 . S
O233 Fe224 2.077 1_656 S
O233 C246 1.381 . S
O234 Fe227 1.935 . S
O234 C246 1.421 . S
O235 Fe231 2.077 1_455 S
O235 C251 1.381 . S
O236 Fe226 1.935 1_556 S
O236 C251 1.421 . S
O237 Fe226 2.077 1_556 S
O237 C241 1.381 . S
O238 Fe224 1.935 1_556 S
O238 C241 1.421 . S
O239 Fe227 2.077 . S
O239 C247 1.381 . S
O240 Fe231 1.935 . S
O240 C247 1.421 . S
C241 O237 1.381 . S
C241 O238 1.421 . S
O242 Fe231 2.077 1_454 S
O242 C254 1.381 . S
O243 Fe226 1.935 . S
O243 C254 1.421 . S
O244 Fe224 2.077 1_655 S
O244 C232 1.381 . S
O245 Fe227 1.935 1_554 S
O245 C232 1.421 . S
C246 O233 1.381 . S
C246 O234 1.421 . S
C247 O239 1.381 . S
C247 O240 1.421 . S
C248 O249 1.381 . S
C248 O250 1.421 . S
O249 Fe227 2.077 1_554 S
O249 C248 1.381 . S
O250 Fe231 1.935 1_554 S
O250 C248 1.421 . S
C251 O235 1.381 . S
C251 O236 1.421 . S
O252 Fe226 2.077 . S
O252 C255 1.381 . S
O253 Fe224 1.935 . S
O253 C255 1.421 . S
C254 O242 1.381 . S
C254 O243 1.421 . S
C255 O252 1.381 . S
C255 O253 1.421 . S
Fe256 O257 1.886 . S
Fe256 O260 1.715 . S
Fe256 O265 2.077 . S
Fe256 O270 1.935 . S
Fe256 O276 2.077 . S
Fe256 O285 1.935 . S
O257 Fe256 1.886 . S
O257 Fe259 1.715 1_556 S
Fe258 O260 1.886 . S
Fe258 O261 1.715 1_556 S
Fe258 O268 1.935 1_556 S
Fe258 O269 2.077 . S
Fe258 O275 1.935 1_556 S
Fe258 O284 2.077 . S
Fe259 O257 1.715 1_554 S
Fe259 O262 1.886 . S
Fe259 O266 1.935 1_554 S
Fe259 O271 2.077 . S
Fe259 O277 1.935 1_554 S
Fe259 O281 2.077 . S
O260 Fe256 1.715 . S
O260 Fe258 1.886 . S
O261 Fe258 1.715 1_554 S
O261 Fe263 1.886 . S
O262 Fe259 1.886 . S
O262 Fe263 1.715 . S
Fe263 O261 1.886 . S
Fe263 O262 1.715 . S
Fe263 O267 2.077 . S
Fe263 O272 1.935 . S
Fe263 O274 2.077 . S
Fe263 O282 1.935 . S
C264 O276 1.381 . S
C264 O277 1.421 . S
O265 Fe256 2.077 . S
O265 C278 1.381 . S
O266 Fe259 1.935 1_556 S
O266 C278 1.421 . S
O267 Fe263 2.077 . S
O267 C283 1.381 . S
O268 Fe258 1.935 1_554 S
O268 C283 1.421 . S
O269 Fe258 2.077 . S
O269 C273 1.381 . S
O270 Fe256 1.935 . S
O270 C273 1.421 . S
O271 Fe259 2.077 . S
O271 C279 1.381 . S
O272 Fe263 1.935 . S
O272 C279 1.421 . S
C273 O269 1.381 . S
C273 O270 1.421 . S
O274 Fe263 2.077 . S
O274 C286 1.381 . S
O275 Fe258 1.935 1_554 S
O275 C286 1.421 . S
O276 Fe256 2.077 . S
O276 C264 1.381 . S
O277 Fe259 1.935 1_556 S
O277 C264 1.421 . S
C278 O265 1.381 . S
C278 O266 1.421 . S
C279 O271 1.381 . S
C279 O272 1.421 . S
C280 O281 1.381 . S
C280 O282 1.421 . S
O281 Fe259 2.077 . S
O281 C280 1.381 . S
O282 Fe263 1.935 . S
O282 C280 1.421 . S
C283 O267 1.381 . S
C283 O268 1.421 . S
O284 Fe258 2.077 . S
O284 C287 1.381 . S
O285 Fe256 1.935 . S
O285 C287 1.421 . S
C286 O274 1.381 . S
C286 O275 1.421 . S
C287 O284 1.381 . S
C287 O285 1.421 . S
Fe288 O289 1.886 . S
Fe288 O292 1.715 . S
Fe288 O297 2.077 1_655 S
Fe288 O302 1.935 1_655 S
Fe288 O308 2.077 . S
Fe288 O317 1.935 . S
O289 Fe288 1.886 . S
O289 Fe291 1.715 1_655 S
Fe290 O292 1.886 . S
Fe290 O293 1.715 1_655 S
Fe290 O300 1.935 1_655 S
Fe290 O301 2.077 1_655 S
Fe290 O307 1.935 . S
Fe290 O316 2.077 . S
Fe291 O289 1.715 1_455 S
Fe291 O294 1.886 . S
Fe291 O298 1.935 . S
Fe291 O303 2.077 . S
Fe291 O309 1.935 1_455 S
Fe291 O313 2.077 1_455 S
O292 Fe288 1.715 . S
O292 Fe290 1.886 . S
O293 Fe290 1.715 1_455 S
O293 Fe295 1.886 . S
O294 Fe291 1.886 . S
O294 Fe295 1.715 . S
Fe295 O293 1.886 . S
Fe295 O294 1.715 . S
Fe295 O299 2.077 . S
Fe295 O304 1.935 . S
Fe295 O306 2.077 1_455 S
Fe295 O314 1.935 1_455 S
C296 O308 1.381 . S
C296 O309 1.421 . S
O297 Fe288 2.077 1_455 S
O297 C310 1.381 . S
O298 Fe291 1.935 . S
O298 C310 1.421 . S
O299 Fe295 2.077 . S
O299 C315 1.381 . S
O300 Fe290 1.935 1_455 S
O300 C315 1.421 . S
O301 Fe290 2.077 1_455 S
O301 C305 1.381 . S
O302 Fe288 1.935 1_455 S
O302 C305 1.421 . S
O303 Fe291 2.077 . S
O303 C311 1.381 . S
O304 Fe295 1.935 . S
O304 C311 1.421 . S
C305 O301 1.381 . S
C305 O302 1.421 . S
O306 Fe295 2.077 1_655 S
O306 C318 1.381 . S
O307 Fe290 1.935 . S
O307 C318 1.421 . S
O308 Fe288 2.077 . S
O308 C296 1.381 . S
O309 Fe291 1.935 1_655 S
O309 C296 1.421 . S
C310 O297 1.381 . S
C310 O298 1.421 . S
C311 O303 1.381 . S
C311 O304 1.421 . S
C312 O313 1.381 . S
C312 O314 1.421 . S
O313 Fe291 2.077 1_655 S
O313 C312 1.381 . S
O314 Fe295 1.935 1_655 S
O314 C312 1.421 . S
C315 O299 1.381 . S
C315 O300 1.421 . S
O316 Fe290 2.077 . S
O316 C319 1.381 . S
O317 Fe288 1.935 . S
O317 C319 1.421 . S
C318 O306 1.381 . S
C318 O307 1.421 . S
C319 O316 1.381 . S
C319 O317 1.421 . S
Fe320 O321 1.886 . S
Fe320 O324 1.715 . S
Fe320 O329 2.077 . S
Fe320 O334 1.935 . S
Fe320 O340 2.077 . S
Fe320 O349 1.935 . S
O321 Fe320 1.886 . S
O321 Fe323 1.715 1_565 S
Fe322 O324 1.886 . S
Fe322 O325 1.715 1_565 S
Fe322 O332 1.935 1_565 S
Fe322 O333 2.077 . S
Fe322 O339 1.935 1_565 S
Fe322 O348 2.077 . S
Fe323 O321 1.715 1_545 S
Fe323 O326 1.886 . S
Fe323 O330 1.935 1_545 S
Fe323 O335 2.077 . S
Fe323 O341 1.935 1_545 S
Fe323 O345 2.077 . S
O324 Fe320 1.715 . S
O324 Fe322 1.886 . S
O325 Fe322 1.715 1_545 S
O325 Fe327 1.886 . S
O326 Fe323 1.886 . S
O326 Fe327 1.715 . S
Fe327 O325 1.886 . S
Fe327 O326 1.715 . S
Fe327 O331 2.077 . S
Fe327 O336 1.935 . S
Fe327 O338 2.077 . S
Fe327 O346 1.935 . S
C328 O340 1.381 . S
C328 O341 1.421 . S
O329 Fe320 2.077 . S
O329 C342 1.381 . S
O330 Fe323 1.935 1_565 S
O330 C342 1.421 . S
O331 Fe327 2.077 . S
O331 C347 1.381 . S
O332 Fe322 1.935 1_545 S
O332 C347 1.421 . S
O333 Fe322 2.077 . S
O333 C337 1.381 . S
O334 Fe320 1.935 . S
O334 C337 1.421 . S
O335 Fe323 2.077 . S
O335 C343 1.381 . S
O336 Fe327 1.935 . S
O336 C343 1.421 . S
C337 O333 1.381 . S
C337 O334 1.421 . S
O338 Fe327 2.077 . S
O338 C350 1.381 . S
O339 Fe322 1.935 1_545 S
O339 C350 1.421 . S
O340 Fe320 2.077 . S
O340 C328 1.381 . S
O341 Fe323 1.935 1_565 S
O341 C328 1.421 . S
C342 O329 1.381 . S
C342 O330 1.421 . S
C343 O335 1.381 . S
C343 O336 1.421 . S
C344 O345 1.381 . S
C344 O346 1.421 . S
O345 Fe323 2.077 . S
O345 C344 1.381 . S
O346 Fe327 1.935 . S
O346 C344 1.421 . S
C347 O331 1.381 . S
C347 O332 1.421 . S
O348 Fe322 2.077 . S
O348 C351 1.381 . S
O349 Fe320 1.935 . S
O349 C351 1.421 . S
C350 O338 1.381 . S
C350 O339 1.421 . S
C351 O348 1.381 . S
C351 O349 1.421 . S
C352 C353 1.369 . S
C352 C354 1.419 . S
C352 H356 0.930 . S
C353 C352 1.369 . S
C353 C362 1.429 . S
C354 C352 1.419 . S
C354 C355 1.363 . S
C354 H357 0.929 . S
C355 C354 1.363 . S
C355 C361 1.428 . S
H356 C352 0.930 . S
H357 C354 0.929 . S
S358 N359 1.613 . S
S358 N360 1.610 . S
N359 S358 1.613 . S
N359 C362 1.350 . S
N360 S358 1.610 . S
N360 C361 1.351 . S
C361 C355 1.428 . S
C361 N360 1.351 . S
C361 C362 1.434 . S
C362 C353 1.429 . S
C362 N359 1.350 . S
C362 C361 1.434 . S
C363 C364 1.369 . S
C363 C365 1.419 . S
C363 H367 0.930 . S
C364 C363 1.369 . S
C364 C373 1.429 . S
C365 C363 1.419 . S
C365 C366 1.363 . S
C365 H368 0.929 . S
C366 C365 1.363 . S
C366 C372 1.428 . S
H367 C363 0.930 . S
H368 C365 0.929 . S
S369 N370 1.613 . S
S369 N371 1.610 . S
N370 S369 1.613 . S
N370 C373 1.350 . S
N371 S369 1.610 . S
N371 C372 1.351 . S
C372 C366 1.428 . S
C372 N371 1.351 . S
C372 C373 1.434 . S
C373 C364 1.429 . S
C373 N370 1.350 . S
C373 C372 1.434 . S
C374 C375 1.369 . S
C374 C376 1.419 . S
C374 H378 0.930 . S
C375 C374 1.369 . S
C375 C384 1.429 . S
C376 C374 1.419 . S
C376 C377 1.363 . S
C376 H379 0.929 . S
C377 C376 1.363 . S
C377 C383 1.428 . S
H378 C374 0.930 . S
H379 C376 0.929 . S
S380 N381 1.613 . S
S380 N382 1.610 . S
N381 S380 1.613 . S
N381 C384 1.350 . S
N382 S380 1.610 . S
N382 C383 1.351 . S
C383 C377 1.428 . S
C383 N382 1.351 . S
C383 C384 1.434 . S
C384 C375 1.429 . S
C384 N381 1.350 . S
C384 C383 1.434 . S
C385 C386 1.369 . S
C385 C387 1.419 . S
C385 H389 0.930 . S
C386 C385 1.369 . S
C386 C395 1.429 . S
C387 C385 1.419 . S
C387 C388 1.363 . S
C387 H390 0.929 . S
C388 C387 1.363 . S
C388 C394 1.428 . S
H389 C385 0.930 . S
H390 C387 0.929 . S
S391 N392 1.613 . S
S391 N393 1.610 . S
N392 S391 1.613 . S
N392 C395 1.350 . S
N393 S391 1.610 . S
N393 C394 1.351 . S
C394 C388 1.428 . S
C394 N393 1.351 . S
C394 C395 1.434 . S
C395 C386 1.429 . S
C395 N392 1.350 . S
C395 C394 1.434 . S
C396 C397 1.369 . S
C396 C398 1.419 . S
C396 H400 0.930 . S
C397 C396 1.369 . S
C397 C406 1.429 . S
C398 C396 1.419 . S
C398 C399 1.363 . S
C398 H401 0.929 . S
C399 C398 1.363 . S
C399 C405 1.428 . S
H400 C396 0.930 . S
H401 C398 0.929 . S
S402 N403 1.613 . S
S402 N404 1.610 . S
N403 S402 1.613 . S
N403 C406 1.350 . S
N404 S402 1.610 . S
N404 C405 1.351 . S
C405 C399 1.428 . S
C405 N404 1.351 . S
C405 C406 1.434 . S
C406 C397 1.429 . S
C406 N403 1.350 . S
C406 C405 1.434 . S
C407 C408 1.369 . S
C407 C409 1.419 . S
C407 H411 0.930 . S
C408 C407 1.369 . S
C408 C417 1.429 . S
C409 C407 1.419 . S
C409 C410 1.363 . S
C409 H412 0.929 . S
C410 C409 1.363 . S
C410 C416 1.428 . S
H411 C407 0.930 . S
H412 C409 0.929 . S
S413 N414 1.613 . S
S413 N415 1.610 . S
N414 S413 1.613 . S
N414 C417 1.350 . S
N415 S413 1.610 . S
N415 C416 1.351 . S
C416 C410 1.428 . S
C416 N415 1.351 . S
C416 C417 1.434 . S
C417 C408 1.429 . S
C417 N414 1.350 . S
C417 C416 1.434 . S
C418 C419 1.369 . S
C418 C420 1.419 . S
C418 H422 0.930 . S
C419 C418 1.369 . S
C419 C428 1.429 . S
C420 C418 1.419 . S
C420 C421 1.363 . S
C420 H423 0.929 . S
C421 C420 1.363 . S
C421 C427 1.428 . S
H422 C418 0.930 . S
H423 C420 0.929 . S
S424 N425 1.613 . S
S424 N426 1.610 . S
N425 S424 1.613 . S
N425 C428 1.350 . S
N426 S424 1.610 . S
N426 C427 1.351 . S
C427 C421 1.428 . S
C427 N426 1.351 . S
C427 C428 1.434 . S
C428 C419 1.429 . S
C428 N425 1.350 . S
C428 C427 1.434 . S
C429 C430 1.369 . S
C429 C431 1.419 . S
C429 H433 0.930 . S
C430 C429 1.369 . S
C430 C439 1.429 . S
C431 C429 1.419 . S
C431 C432 1.363 . S
C431 H434 0.929 . S
C432 C431 1.363 . S
C432 C438 1.428 . S
H433 C429 0.930 . S
H434 C431 0.929 . S
S435 N436 1.613 . S
S435 N437 1.610 . S
N436 S435 1.613 . S
N436 C439 1.350 . S
N437 S435 1.610 . S
N437 C438 1.351 . S
C438 C432 1.428 . S
C438 N437 1.351 . S
C438 C439 1.434 . S
C439 C430 1.429 . S
C439 N436 1.350 . S
C439 C438 1.434 . S
C440 C441 1.369 . S
C440 C442 1.419 . S
C440 H444 0.930 . S
C441 C440 1.369 . S
C441 C450 1.429 . S
C442 C440 1.419 . S
C442 C443 1.363 . S
C442 H445 0.929 . S
C443 C442 1.363 . S
C443 C449 1.428 . S
H444 C440 0.930 . S
H445 C442 0.929 . S
S446 N447 1.613 . S
S446 N448 1.610 . S
N447 S446 1.613 . S
N447 C450 1.350 . S
N448 S446 1.610 . S
N448 C449 1.351 . S
C449 C443 1.428 . S
C449 N448 1.351 . S
C449 C450 1.434 . S
C450 C441 1.429 . S
C450 N447 1.350 . S
C450 C449 1.434 . S
C451 C452 1.369 . S
C451 C453 1.419 . S
C451 H455 0.930 . S
C452 C451 1.369 . S
C452 C461 1.429 . S
C453 C451 1.419 . S
C453 C454 1.363 . S
C453 H456 0.929 . S
C454 C453 1.363 . S
C454 C460 1.428 . S
H455 C451 0.930 . S
H456 C453 0.929 . S
S457 N458 1.613 . S
S457 N459 1.610 . S
N458 S457 1.613 . S
N458 C461 1.350 . S
N459 S457 1.610 . S
N459 C460 1.351 . S
C460 C454 1.428 . S
C460 N459 1.351 . S
C460 C461 1.434 . S
C461 C452 1.429 . S
C461 N458 1.350 . S
C461 C460 1.434 . S
C462 C463 1.369 . S
C462 C464 1.419 . S
C462 H466 0.930 . S
C463 C462 1.369 . S
C463 C472 1.429 . S
C464 C462 1.419 . S
C464 C465 1.363 . S
C464 H467 0.929 . S
C465 C464 1.363 . S
C465 C471 1.428 . S
H466 C462 0.930 . S
H467 C464 0.929 . S
S468 N469 1.613 . S
S468 N470 1.610 . S
N469 S468 1.613 . S
N469 C472 1.350 . S
N470 S468 1.610 . S
N470 C471 1.351 . S
C471 C465 1.428 . S
C471 N470 1.351 . S
C471 C472 1.434 . S
C472 C463 1.429 . S
C472 N469 1.350 . S
C472 C471 1.434 . S
C473 C474 1.369 . S
C473 C475 1.419 . S
C473 H477 0.930 . S
C474 C473 1.369 . S
C474 C483 1.429 . S
C475 C473 1.419 . S
C475 C476 1.363 . S
C475 H478 0.929 . S
C476 C475 1.363 . S
C476 C482 1.428 . S
H477 C473 0.930 . S
H478 C475 0.929 . S
S479 N480 1.613 . S
S479 N481 1.610 . S
N480 S479 1.613 . S
N480 C483 1.350 . S
N481 S479 1.610 . S
N481 C482 1.351 . S
C482 C476 1.428 . S
C482 N481 1.351 . S
C482 C483 1.434 . S
C483 C474 1.429 . S
C483 N480 1.350 . S
C483 C482 1.434 . S
C484 C485 1.369 . S
C484 C486 1.419 . S
C484 H488 0.930 . S
C485 C484 1.369 . S
C485 C494 1.429 . S
C486 C484 1.419 . S
C486 C487 1.363 . S
C486 H489 0.929 . S
C487 C486 1.363 . S
C487 C493 1.428 . S
H488 C484 0.930 . S
H489 C486 0.929 . S
S490 N491 1.613 . S
S490 N492 1.610 . S
N491 S490 1.613 . S
N491 C494 1.350 . S
N492 S490 1.610 . S
N492 C493 1.351 . S
C493 C487 1.428 . S
C493 N492 1.351 . S
C493 C494 1.434 . S
C494 C485 1.429 . S
C494 N491 1.350 . S
C494 C493 1.434 . S
C495 C496 1.369 . S
C495 C497 1.419 . S
C495 H499 0.930 . S
C496 C495 1.369 . S
C496 C505 1.429 . S
C497 C495 1.419 . S
C497 C498 1.363 . S
C497 H500 0.929 . S
C498 C497 1.363 . S
C498 C504 1.428 . S
H499 C495 0.930 . S
H500 C497 0.929 . S
S501 N502 1.613 . S
S501 N503 1.610 . S
N502 S501 1.613 . S
N502 C505 1.350 . S
N503 S501 1.610 . S
N503 C504 1.351 . S
C504 C498 1.428 . S
C504 N503 1.351 . S
C504 C505 1.434 . S
C505 C496 1.429 . S
C505 N502 1.350 . S
C505 C504 1.434 . S
C506 C507 1.369 . S
C506 C508 1.419 . S
C506 H510 0.930 . S
C507 C506 1.369 . S
C507 C516 1.429 . S
C508 C506 1.419 . S
C508 C509 1.363 . S
C508 H511 0.929 . S
C509 C508 1.363 . S
C509 C515 1.428 . S
H510 C506 0.930 . S
H511 C508 0.929 . S
S512 N513 1.613 . S
S512 N514 1.610 . S
N513 S512 1.613 . S
N513 C516 1.350 . S
N514 S512 1.610 . S
N514 C515 1.351 . S
C515 C509 1.428 . S
C515 N514 1.351 . S
C515 C516 1.434 . S
C516 C507 1.429 . S
C516 N513 1.350 . S
C516 C515 1.434 . S
C517 C518 1.369 . S
C517 C519 1.419 . S
C517 H521 0.930 . S
C518 C517 1.369 . S
C518 C527 1.429 . S
C519 C517 1.419 . S
C519 C520 1.363 . S
C519 H522 0.929 . S
C520 C519 1.363 . S
C520 C526 1.428 . S
H521 C517 0.930 . S
H522 C519 0.929 . S
S523 N524 1.613 . S
S523 N525 1.610 . S
N524 S523 1.613 . S
N524 C527 1.350 . S
N525 S523 1.610 . S
N525 C526 1.351 . S
C526 C520 1.428 . S
C526 N525 1.351 . S
C526 C527 1.434 . S
C527 C518 1.429 . S
C527 N524 1.350 . S
C527 C526 1.434 . S
C528 C529 1.369 . S
C528 C530 1.419 . S
C528 H532 0.930 . S
C529 C528 1.369 . S
C529 C538 1.429 . S
C530 C528 1.419 . S
C530 C531 1.363 . S
C530 H533 0.929 . S
C531 C530 1.363 . S
C531 C537 1.428 . S
H532 C528 0.930 . S
H533 C530 0.929 . S
S534 N535 1.613 . S
S534 N536 1.610 . S
N535 S534 1.613 . S
N535 C538 1.350 . S
N536 S534 1.610 . S
N536 C537 1.351 . S
C537 C531 1.428 . S
C537 N536 1.351 . S
C537 C538 1.434 . S
C538 C529 1.429 . S
C538 N535 1.350 . S
C538 C537 1.434 . S
C539 C540 1.369 . S
C539 C541 1.419 . S
C539 H543 0.930 . S
C540 C539 1.369 . S
C540 C549 1.429 . S
C541 C539 1.419 . S
C541 C542 1.363 . S
C541 H544 0.929 . S
C542 C541 1.363 . S
C542 C548 1.428 . S
H543 C539 0.930 . S
H544 C541 0.929 . S
S545 N546 1.613 . S
S545 N547 1.610 . S
N546 S545 1.613 . S
N546 C549 1.350 . S
N547 S545 1.610 . S
N547 C548 1.351 . S
C548 C542 1.428 . S
C548 N547 1.351 . S
C548 C549 1.434 . S
C549 C540 1.429 . S
C549 N546 1.350 . S
C549 C548 1.434 . S
C550 C551 1.369 . S
C550 C552 1.419 . S
C550 H554 0.930 . S
C551 C550 1.369 . S
C551 C560 1.429 . S
C552 C550 1.419 . S
C552 C553 1.363 . S
C552 H555 0.929 . S
C553 C552 1.363 . S
C553 C559 1.428 . S
H554 C550 0.930 . S
H555 C552 0.929 . S
S556 N557 1.613 . S
S556 N558 1.610 . S
N557 S556 1.613 . S
N557 C560 1.350 . S
N558 S556 1.610 . S
N558 C559 1.351 . S
C559 C553 1.428 . S
C559 N558 1.351 . S
C559 C560 1.434 . S
C560 C551 1.429 . S
C560 N557 1.350 . S
C560 C559 1.434 . S
C561 C562 1.369 . S
C561 C563 1.419 . S
C561 H565 0.930 . S
C562 C561 1.369 . S
C562 C571 1.429 . S
C563 C561 1.419 . S
C563 C564 1.363 . S
C563 H566 0.929 . S
C564 C563 1.363 . S
C564 C570 1.428 . S
H565 C561 0.930 . S
H566 C563 0.929 . S
S567 N568 1.613 . S
S567 N569 1.610 . S
N568 S567 1.613 . S
N568 C571 1.350 . S
N569 S567 1.610 . S
N569 C570 1.351 . S
C570 C564 1.428 . S
C570 N569 1.351 . S
C570 C571 1.434 . S
C571 C562 1.429 . S
C571 N568 1.350 . S
C571 C570 1.434 . S
C572 C573 1.369 . S
C572 C574 1.419 . S
C572 H576 0.930 . S
C573 C572 1.369 . S
C573 C582 1.429 . S
C574 C572 1.419 . S
C574 C575 1.363 . S
C574 H577 0.929 . S
C575 C574 1.363 . S
C575 C581 1.428 . S
H576 C572 0.930 . S
H577 C574 0.929 . S
S578 N579 1.613 . S
S578 N580 1.610 . S
N579 S578 1.613 . S
N579 C582 1.350 . S
N580 S578 1.610 . S
N580 C581 1.351 . S
C581 C575 1.428 . S
C581 N580 1.351 . S
C581 C582 1.434 . S
C582 C573 1.429 . S
C582 N579 1.350 . S
C582 C581 1.434 . S
C583 C584 1.369 . S
C583 C585 1.419 . S
C583 H587 0.930 . S
C584 C583 1.369 . S
C584 C593 1.429 . S
C585 C583 1.419 . S
C585 C586 1.363 . S
C585 H588 0.929 . S
C586 C585 1.363 . S
C586 C592 1.428 . S
H587 C583 0.930 . S
H588 C585 0.929 . S
S589 N590 1.613 . S
S589 N591 1.610 . S
N590 S589 1.613 . S
N590 C593 1.350 . S
N591 S589 1.610 . S
N591 C592 1.351 . S
C592 C586 1.428 . S
C592 N591 1.351 . S
C592 C593 1.434 . S
C593 C584 1.429 . S
C593 N590 1.350 . S
C593 C592 1.434 . S
C594 C595 1.369 . S
C594 C596 1.419 . S
C594 H598 0.930 . S
C595 C594 1.369 . S
C595 C604 1.429 . S
C596 C594 1.419 . S
C596 C597 1.363 . S
C596 H599 0.929 . S
C597 C596 1.363 . S
C597 C603 1.428 . S
H598 C594 0.930 . S
H599 C596 0.929 . S
S600 N601 1.613 . S
S600 N602 1.610 . S
N601 S600 1.613 . S
N601 C604 1.350 . S
N602 S600 1.610 . S
N602 C603 1.351 . S
C603 C597 1.428 . S
C603 N602 1.351 . S
C603 C604 1.434 . S
C604 C595 1.429 . S
C604 N601 1.350 . S
C604 C603 1.434 . S
C605 C606 1.369 . S
C605 C607 1.419 . S
C605 H609 0.930 . S
C606 C605 1.369 . S
C606 C615 1.429 . S
C607 C605 1.419 . S
C607 C608 1.363 . S
C607 H610 0.929 . S
C608 C607 1.363 . S
C608 C614 1.428 . S
H609 C605 0.930 . S
H610 C607 0.929 . S
S611 N612 1.613 . S
S611 N613 1.610 . S
N612 S611 1.613 . S
N612 C615 1.350 . S
N613 S611 1.610 . S
N613 C614 1.351 . S
C614 C608 1.428 . S
C614 N613 1.351 . S
C614 C615 1.434 . S
C615 C606 1.429 . S
C615 N612 1.350 . S
C615 C614 1.434 . S
C616 C617 1.369 . S
C616 C618 1.419 . S
C616 H620 0.930 . S
C617 C616 1.369 . S
C617 C626 1.429 . S
C618 C616 1.419 . S
C618 C619 1.363 . S
C618 H621 0.929 . S
C619 C618 1.363 . S
C619 C625 1.428 . S
H620 C616 0.930 . S
H621 C618 0.929 . S
S622 N623 1.613 . S
S622 N624 1.610 . S
N623 S622 1.613 . S
N623 C626 1.350 . S
N624 S622 1.610 . S
N624 C625 1.351 . S
C625 C619 1.428 . S
C625 N624 1.351 . S
C625 C626 1.434 . S
C626 C617 1.429 . S
C626 N623 1.350 . S
C626 C625 1.434 . S
C627 C628 1.369 . S
C627 C629 1.419 . S
C627 H631 0.930 . S
C628 C627 1.369 . S
C628 C637 1.429 . S
C629 C627 1.419 . S
C629 C630 1.363 . S
C629 H632 0.929 . S
C630 C629 1.363 . S
C630 C636 1.428 . S
H631 C627 0.930 . S
H632 C629 0.929 . S
S633 N634 1.613 . S
S633 N635 1.610 . S
N634 S633 1.613 . S
N634 C637 1.350 . S
N635 S633 1.610 . S
N635 C636 1.351 . S
C636 C630 1.428 . S
C636 N635 1.351 . S
C636 C637 1.434 . S
C637 C628 1.429 . S
C637 N634 1.350 . S
C637 C636 1.434 . S
C638 C639 1.369 . S
C638 C640 1.419 . S
C638 H642 0.930 . S
C639 C638 1.369 . S
C639 C648 1.429 . S
C640 C638 1.419 . S
C640 C641 1.363 . S
C640 H643 0.929 . S
C641 C640 1.363 . S
C641 C647 1.428 . S
H642 C638 0.930 . S
H643 C640 0.929 . S
S644 N645 1.613 . S
S644 N646 1.610 . S
N645 S644 1.613 . S
N645 C648 1.350 . S
N646 S644 1.610 . S
N646 C647 1.351 . S
C647 C641 1.428 . S
C647 N646 1.351 . S
C647 C648 1.434 . S
C648 C639 1.429 . S
C648 N645 1.350 . S
C648 C647 1.434 . S
C649 C650 1.369 . S
C649 C651 1.419 . S
C649 H653 0.930 . S
C650 C649 1.369 . S
C650 C659 1.429 . S
C651 C649 1.419 . S
C651 C652 1.363 . S
C651 H654 0.929 . S
C652 C651 1.363 . S
C652 C658 1.428 . S
H653 C649 0.930 . S
H654 C651 0.929 . S
S655 N656 1.613 . S
S655 N657 1.610 . S
N656 S655 1.613 . S
N656 C659 1.350 . S
N657 S655 1.610 . S
N657 C658 1.351 . S
C658 C652 1.428 . S
C658 N657 1.351 . S
C658 C659 1.434 . S
C659 C650 1.429 . S
C659 N656 1.350 . S
C659 C658 1.434 . S
C660 C661 1.369 . S
C660 C662 1.419 . S
C660 H664 0.930 . S
C661 C660 1.369 . S
C661 C670 1.429 . S
C662 C660 1.419 . S
C662 C663 1.363 . S
C662 H665 0.929 . S
C663 C662 1.363 . S
C663 C669 1.428 . S
H664 C660 0.930 . S
H665 C662 0.929 . S
S666 N667 1.613 . S
S666 N668 1.610 . S
N667 S666 1.613 . S
N667 C670 1.350 . S
N668 S666 1.610 . S
N668 C669 1.351 . S
C669 C663 1.428 . S
C669 N668 1.351 . S
C669 C670 1.434 . S
C670 C661 1.429 . S
C670 N667 1.350 . S
C670 C669 1.434 . S
C671 C672 1.369 . S
C671 C673 1.419 . S
C671 H675 0.930 . S
C672 C671 1.369 . S
C672 C681 1.429 . S
C673 C671 1.419 . S
C673 C674 1.363 . S
C673 H676 0.929 . S
C674 C673 1.363 . S
C674 C680 1.428 . S
H675 C671 0.930 . S
H676 C673 0.929 . S
S677 N678 1.613 . S
S677 N679 1.610 . S
N678 S677 1.613 . S
N678 C681 1.350 . S
N679 S677 1.610 . S
N679 C680 1.351 . S
C680 C674 1.428 . S
C680 N679 1.351 . S
C680 C681 1.434 . S
C681 C672 1.429 . S
C681 N678 1.350 . S
C681 C680 1.434 . S
C682 C683 1.369 . S
C682 C684 1.419 . S
C682 H686 0.930 . S
C683 C682 1.369 . S
C683 C692 1.429 . S
C684 C682 1.419 . S
C684 C685 1.363 . S
C684 H687 0.929 . S
C685 C684 1.363 . S
C685 C691 1.428 . S
H686 C682 0.930 . S
H687 C684 0.929 . S
S688 N689 1.613 . S
S688 N690 1.610 . S
N689 S688 1.613 . S
N689 C692 1.350 . S
N690 S688 1.610 . S
N690 C691 1.351 . S
C691 C685 1.428 . S
C691 N690 1.351 . S
C691 C692 1.434 . S
C692 C683 1.429 . S
C692 N689 1.350 . S
C692 C691 1.434 . S
C693 C694 1.369 . S
C693 C695 1.419 . S
C693 H697 0.930 . S
C694 C693 1.369 . S
C694 C703 1.429 . S
C695 C693 1.419 . S
C695 C696 1.363 . S
C695 H698 0.929 . S
C696 C695 1.363 . S
C696 C702 1.428 . S
H697 C693 0.930 . S
H698 C695 0.929 . S
S699 N700 1.613 . S
S699 N701 1.610 . S
N700 S699 1.613 . S
N700 C703 1.350 . S
N701 S699 1.610 . S
N701 C702 1.351 . S
C702 C696 1.428 . S
C702 N701 1.351 . S
C702 C703 1.434 . S
C703 C694 1.429 . S
C703 N700 1.350 . S
C703 C702 1.434 . S
C704 C705 1.369 . S
C704 C706 1.419 . S
C704 H708 0.930 . S
C705 C704 1.369 . S
C705 C714 1.429 . S
C706 C704 1.419 . S
C706 C707 1.363 . S
C706 H709 0.929 . S
C707 C706 1.363 . S
C707 C713 1.428 . S
H708 C704 0.930 . S
H709 C706 0.929 . S
S710 N711 1.613 . S
S710 N712 1.610 . S
N711 S710 1.613 . S
N711 C714 1.350 . S
N712 S710 1.610 . S
N712 C713 1.351 . S
C713 C707 1.428 . S
C713 N712 1.351 . S
C713 C714 1.434 . S
C714 C705 1.429 . S
C714 N711 1.350 . S
C714 C713 1.434 . S
C715 C716 1.369 . S
C715 C717 1.419 . S
C715 H719 0.930 . S
C716 C715 1.369 . S
C716 C725 1.429 . S
C717 C715 1.419 . S
C717 C718 1.363 . S
C717 H720 0.929 . S
C718 C717 1.363 . S
C718 C724 1.428 . S
H719 C715 0.930 . S
H720 C717 0.929 . S
S721 N722 1.613 . S
S721 N723 1.610 . S
N722 S721 1.613 . S
N722 C725 1.350 . S
N723 S721 1.610 . S
N723 C724 1.351 . S
C724 C718 1.428 . S
C724 N723 1.351 . S
C724 C725 1.434 . S
C725 C716 1.429 . S
C725 N722 1.350 . S
C725 C724 1.434 . S
C726 C727 1.369 . S
C726 C728 1.419 . S
C726 H730 0.930 . S
C727 C726 1.369 . S
C727 C736 1.429 . S
C728 C726 1.419 . S
C728 C729 1.363 . S
C728 H731 0.929 . S
C729 C728 1.363 . S
C729 C735 1.428 . S
H730 C726 0.930 . S
H731 C728 0.929 . S
S732 N733 1.613 . S
S732 N734 1.610 . S
N733 S732 1.613 . S
N733 C736 1.350 . S
N734 S732 1.610 . S
N734 C735 1.351 . S
C735 C729 1.428 . S
C735 N734 1.351 . S
C735 C736 1.434 . S
C736 C727 1.429 . S
C736 N733 1.350 . S
C736 C735 1.434 . S
C737 C738 1.369 . S
C737 C739 1.419 . S
C737 H741 0.930 . S
C738 C737 1.369 . S
C738 C747 1.429 . S
C739 C737 1.419 . S
C739 C740 1.363 . S
C739 H742 0.929 . S
C740 C739 1.363 . S
C740 C746 1.428 . S
H741 C737 0.930 . S
H742 C739 0.929 . S
S743 N744 1.613 . S
S743 N745 1.610 . S
N744 S743 1.613 . S
N744 C747 1.350 . S
N745 S743 1.610 . S
N745 C746 1.351 . S
C746 C740 1.428 . S
C746 N745 1.351 . S
C746 C747 1.434 . S
C747 C738 1.429 . S
C747 N744 1.350 . S
C747 C746 1.434 . S
C748 C749 1.369 . S
C748 C750 1.419 . S
C748 H752 0.930 . S
C749 C748 1.369 . S
C749 C758 1.429 . S
C750 C748 1.419 . S
C750 C751 1.363 . S
C750 H753 0.929 . S
C751 C750 1.363 . S
C751 C757 1.428 . S
H752 C748 0.930 . S
H753 C750 0.929 . S
S754 N755 1.613 . S
S754 N756 1.610 . S
N755 S754 1.613 . S
N755 C758 1.350 . S
N756 S754 1.610 . S
N756 C757 1.351 . S
C757 C751 1.428 . S
C757 N756 1.351 . S
C757 C758 1.434 . S
C758 C749 1.429 . S
C758 N755 1.350 . S
C758 C757 1.434 . S
C759 C760 1.369 . S
C759 C761 1.419 . S
C759 H763 0.930 . S
C760 C759 1.369 . S
C760 C769 1.429 . S
C761 C759 1.419 . S
C761 C762 1.363 . S
C761 H764 0.929 . S
C762 C761 1.363 . S
C762 C768 1.428 . S
H763 C759 0.930 . S
H764 C761 0.929 . S
S765 N766 1.613 . S
S765 N767 1.610 . S
N766 S765 1.613 . S
N766 C769 1.350 . S
N767 S765 1.610 . S
N767 C768 1.351 . S
C768 C762 1.428 . S
C768 N767 1.351 . S
C768 C769 1.434 . S
C769 C760 1.429 . S
C769 N766 1.350 . S
C769 C768 1.434 . S
C770 C771 1.369 . S
C770 C772 1.419 . S
C770 H774 0.930 . S
C771 C770 1.369 . S
C771 C780 1.429 . S
C772 C770 1.419 . S
C772 C773 1.363 . S
C772 H775 0.929 . S
C773 C772 1.363 . S
C773 C779 1.428 . S
H774 C770 0.930 . S
H775 C772 0.929 . S
S776 N777 1.613 . S
S776 N778 1.610 . S
N777 S776 1.613 . S
N777 C780 1.350 . S
N778 S776 1.610 . S
N778 C779 1.351 . S
C779 C773 1.428 . S
C779 N778 1.351 . S
C779 C780 1.434 . S
C780 C771 1.429 . S
C780 N777 1.350 . S
C780 C779 1.434 . S
C781 C782 1.369 . S
C781 C783 1.419 . S
C781 H785 0.930 . S
C782 C781 1.369 . S
C782 C791 1.429 . S
C783 C781 1.419 . S
C783 C784 1.363 . S
C783 H786 0.929 . S
C784 C783 1.363 . S
C784 C790 1.428 . S
H785 C781 0.930 . S
H786 C783 0.929 . S
S787 N788 1.613 . S
S787 N789 1.610 . S
N788 S787 1.613 . S
N788 C791 1.350 . S
N789 S787 1.610 . S
N789 C790 1.351 . S
C790 C784 1.428 . S
C790 N789 1.351 . S
C790 C791 1.434 . S
C791 C782 1.429 . S
C791 N788 1.350 . S
C791 C790 1.434 . S
C792 C793 1.369 . S
C792 C794 1.419 . S
C792 H796 0.930 . S
C793 C792 1.369 . S
C793 C802 1.429 . S
C794 C792 1.419 . S
C794 C795 1.363 . S
C794 H797 0.929 . S
C795 C794 1.363 . S
C795 C801 1.428 . S
H796 C792 0.930 . S
H797 C794 0.929 . S
S798 N799 1.613 . S
S798 N800 1.610 . S
N799 S798 1.613 . S
N799 C802 1.350 . S
N800 S798 1.610 . S
N800 C801 1.351 . S
C801 C795 1.428 . S
C801 N800 1.351 . S
C801 C802 1.434 . S
C802 C793 1.429 . S
C802 N799 1.350 . S
C802 C801 1.434 . S
C803 C804 1.369 . S
C803 C805 1.419 . S
C803 H807 0.930 . S
C804 C803 1.369 . S
C804 C813 1.429 . S
C805 C803 1.419 . S
C805 C806 1.363 . S
C805 H808 0.929 . S
C806 C805 1.363 . S
C806 C812 1.428 . S
H807 C803 0.930 . S
H808 C805 0.929 . S
S809 N810 1.613 . S
S809 N811 1.610 . S
N810 S809 1.613 . S
N810 C813 1.350 . S
N811 S809 1.610 . S
N811 C812 1.351 . S
C812 C806 1.428 . S
C812 N811 1.351 . S
C812 C813 1.434 . S
C813 C804 1.429 . S
C813 N810 1.350 . S
C813 C812 1.434 . S
C814 C815 1.369 . S
C814 C816 1.419 . S
C814 H818 0.930 . S
C815 C814 1.369 . S
C815 C824 1.429 . S
C816 C814 1.419 . S
C816 C817 1.363 . S
C816 H819 0.929 . S
C817 C816 1.363 . S
C817 C823 1.428 . S
H818 C814 0.930 . S
H819 C816 0.929 . S
S820 N821 1.613 . S
S820 N822 1.610 . S
N821 S820 1.613 . S
N821 C824 1.350 . S
N822 S820 1.610 . S
N822 C823 1.351 . S
C823 C817 1.428 . S
C823 N822 1.351 . S
C823 C824 1.434 . S
C824 C815 1.429 . S
C824 N821 1.350 . S
C824 C823 1.434 . S
C825 C826 1.369 . S
C825 C827 1.419 . S
C825 H829 0.930 . S
C826 C825 1.369 . S
C826 C835 1.429 . S
C827 C825 1.419 . S
C827 C828 1.363 . S
C827 H830 0.929 . S
C828 C827 1.363 . S
C828 C834 1.428 . S
H829 C825 0.930 . S
H830 C827 0.929 . S
S831 N832 1.613 . S
S831 N833 1.610 . S
N832 S831 1.613 . S
N832 C835 1.350 . S
N833 S831 1.610 . S
N833 C834 1.351 . S
C834 C828 1.428 . S
C834 N833 1.351 . S
C834 C835 1.434 . S
C835 C826 1.429 . S
C835 N832 1.350 . S
C835 C834 1.434 . S
C836 C837 1.369 . S
C836 C838 1.419 . S
C836 H840 0.930 . S
C837 C836 1.369 . S
C837 C846 1.429 . S
C838 C836 1.419 . S
C838 C839 1.363 . S
C838 H841 0.929 . S
C839 C838 1.363 . S
C839 C845 1.428 . S
H840 C836 0.930 . S
H841 C838 0.929 . S
S842 N843 1.613 . S
S842 N844 1.610 . S
N843 S842 1.613 . S
N843 C846 1.350 . S
N844 S842 1.610 . S
N844 C845 1.351 . S
C845 C839 1.428 . S
C845 N844 1.351 . S
C845 C846 1.434 . S
C846 C837 1.429 . S
C846 N843 1.350 . S
C846 C845 1.434 . S
C847 C848 1.369 . S
C847 C849 1.419 . S
C847 H851 0.930 . S
C848 C847 1.369 . S
C848 C857 1.429 . S
C849 C847 1.419 . S
C849 C850 1.363 . S
C849 H852 0.929 . S
C850 C849 1.363 . S
C850 C856 1.428 . S
H851 C847 0.930 . S
H852 C849 0.929 . S
S853 N854 1.613 . S
S853 N855 1.610 . S
N854 S853 1.613 . S
N854 C857 1.350 . S
N855 S853 1.610 . S
N855 C856 1.351 . S
C856 C850 1.428 . S
C856 N855 1.351 . S
C856 C857 1.434 . S
C857 C848 1.429 . S
C857 N854 1.350 . S
C857 C856 1.434 . S
C858 C859 1.369 . S
C858 C860 1.419 . S
C858 H862 0.930 . S
C859 C858 1.369 . S
C859 C868 1.429 . S
C860 C858 1.419 . S
C860 C861 1.363 . S
C860 H863 0.929 . S
C861 C860 1.363 . S
C861 C867 1.428 . S
H862 C858 0.930 . S
H863 C860 0.929 . S
S864 N865 1.613 . S
S864 N866 1.610 . S
N865 S864 1.613 . S
N865 C868 1.350 . S
N866 S864 1.610 . S
N866 C867 1.351 . S
C867 C861 1.428 . S
C867 N866 1.351 . S
C867 C868 1.434 . S
C868 C859 1.429 . S
C868 N865 1.350 . S
C868 C867 1.434 . S
C869 C870 1.369 . S
C869 C871 1.419 . S
C869 H873 0.930 . S
C870 C869 1.369 . S
C870 C879 1.429 . S
C871 C869 1.419 . S
C871 C872 1.363 . S
C871 H874 0.929 . S
C872 C871 1.363 . S
C872 C878 1.428 . S
H873 C869 0.930 . S
H874 C871 0.929 . S
S875 N876 1.613 . S
S875 N877 1.610 . S
N876 S875 1.613 . S
N876 C879 1.350 . S
N877 S875 1.610 . S
N877 C878 1.351 . S
C878 C872 1.428 . S
C878 N877 1.351 . S
C878 C879 1.434 . S
C879 C870 1.429 . S
C879 N876 1.350 . S
C879 C878 1.434 . S
C355 C177 1.620 . S
C353 C9 1.622 . S
C366 C182 1.200 . S
C364 C22 1.204 . S
C377 C183 1.330 . S
C375 C49 1.336 . S
C386 C61 1.222 . S
C388 C187 1.234 . S
C397 C81 1.206 . S
C399 C190 1.199 . S
C410 C191 1.334 . S
C408 C108 1.335 . S
C419 C122 1.218 . S
C421 C168 1.233 . S
C430 C148 1.620 . S
C432 C184 1.621 . S
C443 C222 2.051 . S
C441 C18 2.051 . S
C452 C39 1.419 . S
C454 C248 1.420 . S
C465 C200 2.040 . S
C463 C58 2.046 . S
C476 C255 1.249 . S
C474 C69 1.287 . S
C485 C89 1.291 . S
C487 C209 1.257 . S
C498 C251 1.207 . S
C496 C102 1.225 . S
C507 C139 1.430 . S
C509 C215 1.433 . S
C518 C142 1.263 . S
C520 C246 1.250 . S
C529 C1 1.254 . S
C531 C254 1.237 . S
C540 C98 1.423 . S
C542 C241 1.418 . S
C553 C219 2.040 . S
C551 C119 2.043 . S
C564 C247 1.251 . S
C562 C128 1.297 . S
C573 C159 2.053 . S
C575 C214 2.054 . S
C584 C41 1.222 . S
C586 C232 1.207 . S
C597 C223 1.431 . S
C595 C78 1.430 . S
C606 C28 1.290 . S
C608 C216 1.259 . S
C617 C149 1.595 . S
C619 C278 1.539 . S
C628 C82 1.182 . S
C630 C273 1.174 . S
C641 C287 1.250 . S
C639 C109 1.309 . S
C652 C264 1.245 . S
C650 C121 1.213 . S
C661 C21 1.189 . S
C663 C280 1.163 . S
C674 C279 1.251 . S
C672 C48 1.305 . S
C683 C62 1.211 . S
C685 C283 1.243 . S
C694 C8 1.598 . S
C696 C286 1.529 . S
C705 C158 2.061 . S
C707 C312 2.116 . S
C718 C328 1.456 . S
C716 C99 1.438 . S
C727 C118 2.049 . S
C729 C310 2.080 . S
C738 C129 1.305 . S
C740 C343 1.254 . S
C751 C319 1.275 . S
C749 C29 1.295 . S
C760 C42 1.238 . S
C762 C337 1.192 . S
C773 C315 1.442 . S
C771 C79 1.425 . S
C784 C350 1.213 . S
C782 C2 1.275 . S
C795 C342 1.217 . S
C793 C141 1.272 . S
C804 C38 1.439 . S
C806 C347 1.456 . S
C815 C59 2.055 . S
C817 C318 2.085 . S
C828 C351 1.256 . S
C826 C68 1.309 . S
C837 C19 2.059 . S
C839 C305 2.111 . S
C848 C101 1.241 . S
C850 C344 1.186 . S
C861 C296 1.442 . S
C859 C138 1.431 . S
C872 C311 1.275 . S
C870 C88 1.289 . S
