# Generated by pormake.
# Topology ctn, (3,4)-cn, num edge types: 1
# Building blocks:
#     Node 0, Type 0, BuildingBlock: WUSLED_clean_sbu_0, # of connection points: 3
#     Node 1, Type 0, BuildingBlock: WUSLED_clean_sbu_0, # of connection points: 3
#     Node 2, Type 0, BuildingBlock: WUSLED_clean_sbu_0, # of connection points: 3
#     Node 3, Type 0, BuildingBlock: WUSLED_clean_sbu_0, # of connection points: 3
#     Node 4, Type 0, BuildingBlock: WUSLED_clean_sbu_0, # of connection points: 3
#     Node 5, Type 0, BuildingBlock: WUSLED_clean_sbu_0, # of connection points: 3
#     Node 6, Type 0, BuildingBlock: WUSLED_clean_sbu_0, # of connection points: 3
#     Node 7, Type 0, BuildingBlock: WUSLED_clean_sbu_0, # of connection points: 3
#     Node 8, Type 0, BuildingBlock: WUSLED_clean_sbu_0, # of connection points: 3
#     Node 9, Type 0, BuildingBlock: WUSLED_clean_sbu_0, # of connection points: 3
#     Node 10, Type 0, BuildingBlock: WUSLED_clean_sbu_0, # of connection points: 3
#     Node 11, Type 0, BuildingBlock: WUSLED_clean_sbu_0, # of connection points: 3
#     Node 12, Type 0, BuildingBlock: WUSLED_clean_sbu_0, # of connection points: 3
#     Node 13, Type 0, BuildingBlock: WUSLED_clean_sbu_0, # of connection points: 3
#     Node 14, Type 0, BuildingBlock: WUSLED_clean_sbu_0, # of connection points: 3
#     Node 15, Type 0, BuildingBlock: WUSLED_clean_sbu_0, # of connection points: 3
#     Node 16, Type 1, BuildingBlock: AZAVOO_clean_sbu_0, # of connection points: 4
#     Node 17, Type 1, BuildingBlock: AZAVOO_clean_sbu_0, # of connection points: 4
#     Node 18, Type 1, BuildingBlock: AZAVOO_clean_sbu_0, # of connection points: 4
#     Node 19, Type 1, BuildingBlock: AZAVOO_clean_sbu_0, # of connection points: 4
#     Node 20, Type 1, BuildingBlock: AZAVOO_clean_sbu_0, # of connection points: 4
#     Node 21, Type 1, BuildingBlock: AZAVOO_clean_sbu_0, # of connection points: 4
#     Node 22, Type 1, BuildingBlock: AZAVOO_clean_sbu_0, # of connection points: 4
#     Node 23, Type 1, BuildingBlock: AZAVOO_clean_sbu_0, # of connection points: 4
#     Node 24, Type 1, BuildingBlock: AZAVOO_clean_sbu_0, # of connection points: 4
#     Node 25, Type 1, BuildingBlock: AZAVOO_clean_sbu_0, # of connection points: 4
#     Node 26, Type 1, BuildingBlock: AZAVOO_clean_sbu_0, # of connection points: 4
#     Node 27, Type 1, BuildingBlock: AZAVOO_clean_sbu_0, # of connection points: 4
#     Edge 28, Type (0, 1), BuildingBlock: AJUNOK_clean_linker_0, # of connection points: 2
#     Edge 29, Type (0, 1), BuildingBlock: AJUNOK_clean_linker_0, # of connection points: 2
#     Edge 30, Type (0, 1), BuildingBlock: AJUNOK_clean_linker_0, # of connection points: 2
#     Edge 31, Type (0, 1), BuildingBlock: AJUNOK_clean_linker_0, # of connection points: 2
#     Edge 32, Type (0, 1), BuildingBlock: AJUNOK_clean_linker_0, # of connection points: 2
#     Edge 33, Type (0, 1), BuildingBlock: AJUNOK_clean_linker_0, # of connection points: 2
#     Edge 34, Type (0, 1), BuildingBlock: AJUNOK_clean_linker_0, # of connection points: 2
#     Edge 35, Type (0, 1), BuildingBlock: AJUNOK_clean_linker_0, # of connection points: 2
#     Edge 36, Type (0, 1), BuildingBlock: AJUNOK_clean_linker_0, # of connection points: 2
#     Edge 37, Type (0, 1), BuildingBlock: AJUNOK_clean_linker_0, # of connection points: 2
#     Edge 38, Type (0, 1), BuildingBlock: AJUNOK_clean_linker_0, # of connection points: 2
#     Edge 39, Type (0, 1), BuildingBlock: AJUNOK_clean_linker_0, # of connection points: 2
#     Edge 40, Type (0, 1), BuildingBlock: AJUNOK_clean_linker_0, # of connection points: 2
#     Edge 41, Type (0, 1), BuildingBlock: AJUNOK_clean_linker_0, # of connection points: 2
#     Edge 42, Type (0, 1), BuildingBlock: AJUNOK_clean_linker_0, # of connection points: 2
#     Edge 43, Type (0, 1), BuildingBlock: AJUNOK_clean_linker_0, # of connection points: 2
#     Edge 44, Type (0, 1), BuildingBlock: AJUNOK_clean_linker_0, # of connection points: 2
#     Edge 45, Type (0, 1), BuildingBlock: AJUNOK_clean_linker_0, # of connection points: 2
#     Edge 46, Type (0, 1), BuildingBlock: AJUNOK_clean_linker_0, # of connection points: 2
#     Edge 47, Type (0, 1), BuildingBlock: AJUNOK_clean_linker_0, # of connection points: 2
#     Edge 48, Type (0, 1), BuildingBlock: AJUNOK_clean_linker_0, # of connection points: 2
#     Edge 49, Type (0, 1), BuildingBlock: AJUNOK_clean_linker_0, # of connection points: 2
#     Edge 50, Type (0, 1), BuildingBlock: AJUNOK_clean_linker_0, # of connection points: 2
#     Edge 51, Type (0, 1), BuildingBlock: AJUNOK_clean_linker_0, # of connection points: 2
#     Edge 52, Type (0, 1), BuildingBlock: AJUNOK_clean_linker_0, # of connection points: 2
#     Edge 53, Type (0, 1), BuildingBlock: AJUNOK_clean_linker_0, # of connection points: 2
#     Edge 54, Type (0, 1), BuildingBlock: AJUNOK_clean_linker_0, # of connection points: 2
#     Edge 55, Type (0, 1), BuildingBlock: AJUNOK_clean_linker_0, # of connection points: 2
#     Edge 56, Type (0, 1), BuildingBlock: AJUNOK_clean_linker_0, # of connection points: 2
#     Edge 57, Type (0, 1), BuildingBlock: AJUNOK_clean_linker_0, # of connection points: 2
#     Edge 58, Type (0, 1), BuildingBlock: AJUNOK_clean_linker_0, # of connection points: 2
#     Edge 59, Type (0, 1), BuildingBlock: AJUNOK_clean_linker_0, # of connection points: 2
#     Edge 60, Type (0, 1), BuildingBlock: AJUNOK_clean_linker_0, # of connection points: 2
#     Edge 61, Type (0, 1), BuildingBlock: AJUNOK_clean_linker_0, # of connection points: 2
#     Edge 62, Type (0, 1), BuildingBlock: AJUNOK_clean_linker_0, # of connection points: 2
#     Edge 63, Type (0, 1), BuildingBlock: AJUNOK_clean_linker_0, # of connection points: 2
#     Edge 64, Type (0, 1), BuildingBlock: AJUNOK_clean_linker_0, # of connection points: 2
#     Edge 65, Type (0, 1), BuildingBlock: AJUNOK_clean_linker_0, # of connection points: 2
#     Edge 66, Type (0, 1), BuildingBlock: AJUNOK_clean_linker_0, # of connection points: 2
#     Edge 67, Type (0, 1), BuildingBlock: AJUNOK_clean_linker_0, # of connection points: 2
#     Edge 68, Type (0, 1), BuildingBlock: AJUNOK_clean_linker_0, # of connection points: 2
#     Edge 69, Type (0, 1), BuildingBlock: AJUNOK_clean_linker_0, # of connection points: 2
#     Edge 70, Type (0, 1), BuildingBlock: AJUNOK_clean_linker_0, # of connection points: 2
#     Edge 71, Type (0, 1), BuildingBlock: AJUNOK_clean_linker_0, # of connection points: 2
#     Edge 72, Type (0, 1), BuildingBlock: AJUNOK_clean_linker_0, # of connection points: 2
#     Edge 73, Type (0, 1), BuildingBlock: AJUNOK_clean_linker_0, # of connection points: 2
#     Edge 74, Type (0, 1), BuildingBlock: AJUNOK_clean_linker_0, # of connection points: 2
#     Edge 75, Type (0, 1), BuildingBlock: AJUNOK_clean_linker_0, # of connection points: 2
# Relax obj value: 0.002
# Max RMSD: 0.043
# Mean RMSD: 0.026
data_MOF--net-ctn--node1-WUSLED_clean_sbu_0--node2-AZAVOO_clean_sbu_0--edge1-AJUNOK_clean_linker_0
_symmetry_space_group_name_H-M    P1
_symmetry_Int_Tables_number       1
_symmetry_cell_setting            triclinic
loop_
_symmetry_equiv_pos_as_xyz
'x, y, z'
_cell_length_a     55.394176
_cell_length_b     56.776753
_cell_length_c     56.60457
_cell_angle_alpha  90.902245
_cell_angle_beta   92.71882
_cell_angle_gamma 92.994309
loop_
_atom_site_label
_atom_site_type_symbol
_atom_site_fract_x
_atom_site_fract_y
_atom_site_fract_z
_atom_type_partial_charge
C0 C 1.00696 0.05704 0.08692 0.0
C1 C 1.0083 0.03462 0.09689 0.0
C2 C 0.98067 0.04551 0.12717 0.0
C3 C 0.99522 0.02889 0.11686 0.0
C4 C 0.97939 0.06785 0.11696 0.0
C5 C 0.99241 0.07353 0.09709 0.0
U6 U 0.05527 0.05017 0.03991 0.0
O7 O 0.05133 0.05736 1.00175 0.0
O8 O 0.07825 0.07795 0.02431 0.0
C9 C 0.06696 0.07563 1.00337 0.0
C10 C 0.02012 0.0638 0.0658 0.0
C11 C 0.05929 0.09761 0.99202 0.0
C12 C 0.05692 0.14036 0.99215 0.0
C13 C 0.06276 0.11967 1.00372 0.0
C14 C 0.04361 0.11749 0.95708 0.0
C15 C 0.04726 0.13955 0.9687 0.0
C16 C 0.04959 0.09677 0.96861 0.0
C17 C 0.0989 0.99887 0.04103 0.0
C18 C 0.14157 0.98974 0.04271 0.0
C19 C 0.11242 0.96488 0.01936 0.0
C20 C 0.09391 0.9792 0.02584 0.0
C21 C 0.13642 0.96976 0.02798 0.0
C22 C 0.12304 1.0041 0.04919 0.0
C23 C 0.07878 1.01228 0.05015 0.0
O24 O 0.04283 0.07137 0.06949 0.0
O25 O 0.01655 0.04979 0.04711 0.0
O26 O 0.05845 1.01173 0.0371 0.0
O27 O 0.08453 0.03318 0.05979 0.0
H28 H 0.01937 0.0216 0.08922 0.0
H29 H 0.99631 1.01141 0.12409 0.0
H30 H 0.96856 0.08111 0.12456 0.0
H31 H 0.99113 0.09092 0.08964 0.0
H32 H 0.06063 0.15709 1.00142 0.0
H33 H 0.07041 0.12106 0.02168 0.0
H34 H 0.03625 0.11626 0.939 0.0
H35 H 0.04693 0.08006 0.95908 0.0
H36 H 0.15974 0.9937 0.05011 0.0
H37 H 0.10786 0.94961 1.008 0.0
H38 H 0.07554 0.97442 0.01945 0.0
H39 H 0.12755 0.01884 0.06124 0.0
C40 C 0.29638 0.76595 0.17509 0.0
C41 C 0.27652 0.7802 0.17229 0.0
C42 C 0.29492 0.80028 0.13938 0.0
C43 C 0.27579 0.79718 0.15467 0.0
C44 C 0.31505 0.78634 0.14244 0.0
C45 C 0.31584 0.76939 0.16017 0.0
U46 U 0.31928 0.73201 0.23 0.0
O47 O 0.29795 0.71489 0.25735 0.0
O48 O 0.32012 0.69364 0.235 0.0
C49 C 0.30406 0.69362 0.25135 0.0
C50 C 0.29531 0.74651 0.19225 0.0
C51 C 0.28432 0.67515 0.24883 0.0
C52 C 0.2429 0.66162 0.23728 0.0
C53 C 0.26143 0.67951 0.23852 0.0
C54 C 0.27012 0.63485 0.25618 0.0
C55 C 0.24704 0.63912 0.24624 0.0
C56 C 0.28851 0.65267 0.25748 0.0
C57 C 0.37678 0.75375 0.26697 0.0
C58 C 0.38994 0.76167 0.3082 0.0
C59 C 0.41715 0.74409 0.28167 0.0
C60 C 0.39948 0.7447 0.26317 0.0
C61 C 0.41267 0.75277 0.30435 0.0
C62 C 0.37226 0.76225 0.28975 0.0
C63 C 0.35864 0.75556 0.24693 0.0
O64 O 0.31207 0.73097 0.19144 0.0
O65 O 0.29005 0.75226 0.21393 0.0
O66 O 0.33666 0.76076 0.25228 0.0
O67 O 0.35873 0.7394 0.23002 0.0
H68 H 0.26116 0.77772 0.18332 0.0
H69 H 0.25977 0.80722 0.15242 0.0
H70 H 0.33002 0.78831 0.13086 0.0
H71 H 0.3314 0.75866 0.16179 0.0
H72 H 0.22541 0.66533 0.22922 0.0
H73 H 0.25786 0.69673 0.23159 0.0
H74 H 0.27383 0.61778 0.26339 0.0
H75 H 0.30602 0.64895 0.26551 0.0
H76 H 0.38598 0.76861 0.32544 0.0
H77 H 0.43431 0.73672 0.27821 0.0
H78 H 0.40367 0.73822 0.24582 0.0
H79 H 0.35514 0.76964 0.29332 0.0
C80 C 0.97878 0.4421 0.99901 0.0
C81 C 0.99797 0.42867 1.00715 0.0
C82 C 0.98995 0.40096 0.97395 0.0
C83 C 1.00358 0.40828 0.99464 0.0
C84 C 0.97127 0.41491 0.96555 0.0
C85 C 0.96574 0.43525 0.97798 0.0
U86 U 0.98348 0.48572 0.05238 0.0
O87 O 0.97932 0.52409 0.05285 0.0
O88 O 0.95392 0.50083 0.07133 0.0
C89 C 0.95907 0.52234 0.0641 0.0
C90 C 0.9714 0.46278 1.01243 0.0
C91 C 0.93847 0.53575 0.05452 0.0
C92 C 0.89597 0.54517 0.05522 0.0
C93 C 0.91489 0.5309 0.06206 0.0
C94 C 0.92358 0.56925 0.03275 0.0
C95 C 0.90015 0.56473 0.04074 0.0
C96 C 0.94249 0.55499 0.03956 0.0
C97 C 0.0331 0.47773 0.10241 0.0
C98 C 0.05274 0.50633 0.13069 0.0
C99 C 0.05965 0.4648 0.13458 0.0
C100 C 0.04405 0.45962 0.11482 0.0
C101 C 0.0647 0.48825 0.14235 0.0
C102 C 0.0371 0.50114 0.11079 0.0
C103 C 0.0194 0.47169 0.07987 0.0
O104 O 0.96119 0.45823 0.03246 0.0
O105 O 0.98694 0.48109 0.01398 0.0
O106 O 0.02233 0.48641 0.0624 0.0
O107 O 0.99692 0.46343 0.08127 0.0
H108 H 1.00826 0.4337 0.02336 0.0
H109 H 0.01803 0.39781 1.00153 0.0
H110 H 0.9607 0.40988 0.9495 0.0
H111 H 0.95095 0.44546 0.97137 0.0
H112 H 0.8783 0.54151 0.06215 0.0
H113 H 0.91119 0.51651 0.07392 0.0
H114 H 0.9274 0.58419 0.0216 0.0
H115 H 0.96042 0.55948 0.03361 0.0
H116 H 0.05632 0.52456 0.13631 0.0
H117 H 0.06835 0.45048 0.14341 0.0
H118 H 0.04118 0.44146 0.10872 0.0
H119 H 0.0288 0.51542 0.10153 0.0
C120 C 0.72226 0.76517 0.1844 0.0
C121 C 0.73811 0.77409 0.16769 0.0
C122 C 0.73532 0.73617 0.14652 0.0
C123 C 0.7445 0.75974 0.14885 0.0
C124 C 0.71942 0.72737 0.16331 0.0
C125 C 0.71298 0.74174 0.18207 0.0
U126 U 0.73033 0.81981 0.22577 0.0
O127 O 0.70271 0.84085 0.2415 0.0
O128 O 0.72798 0.82205 0.26447 0.0
C129 C 0.70885 0.8348 0.26321 0.0
C130 C 0.71527 0.77983 0.20445 0.0
C131 C 0.68901 0.82738 0.27841 0.0
C132 C 0.65043 0.80648 0.285 0.0
C133 C 0.66878 0.81327 0.26982 0.0
C134 C 0.67239 0.8278 0.31737 0.0
C135 C 0.65214 0.8136 0.30899 0.0
C136 C 0.69057 0.83464 0.30223 0.0
C137 C 0.78264 0.86648 0.21778 0.0
C138 C 0.81353 0.88735 0.2435 0.0
C139 C 0.79904 0.90554 0.20754 0.0
C140 C 0.78331 0.88576 0.20248 0.0
C141 C 0.81459 0.90638 0.22792 0.0
C142 C 0.79771 0.86767 0.23855 0.0
C143 C 0.76784 0.84465 0.21084 0.0
O144 O 0.73065 0.7811 0.22288 0.0
O145 O 0.70654 0.80028 0.19911 0.0
O146 O 0.74552 0.84728 0.20267 0.0
O147 O 0.76967 0.82657 0.22492 0.0
H148 H 0.74554 0.79212 0.16924 0.0
H149 H 0.75684 0.76697 0.13622 0.0
H150 H 0.7117 0.70945 0.16176 0.0
H151 H 0.70068 0.73456 0.19476 0.0
H152 H 0.63524 0.79521 0.27815 0.0
H153 H 0.66727 0.80736 0.25149 0.0
H154 H 0.67418 0.83359 0.33573 0.0
H155 H 0.706 0.84554 0.3092 0.0
H156 H 0.8253 0.88753 0.25936 0.0
H157 H 0.79974 0.91974 0.195 0.0
H158 H 0.77214 0.88524 0.18623 0.0
H159 H 0.79779 0.85317 0.25075 0.0
C160 C 1.00994 0.98357 0.43292 0.0
C161 C 0.98538 0.9888 0.43249 0.0
C162 C 0.98502 0.99446 0.38986 0.0
C163 C 0.97305 0.99427 0.41121 0.0
C164 C 1.00973 0.98978 0.3904 0.0
C165 C 0.02208 0.98446 0.41165 0.0
U166 U 0.05951 0.98697 0.48389 0.0
O167 O 0.05565 0.97911 0.52175 0.0
O168 O 0.07951 0.9587 0.50042 0.0
C169 C 0.0694 0.96095 0.52083 0.0
C170 C 0.02185 0.97538 0.45517 0.0
C171 C 0.06031 0.93879 0.53165 0.0
C172 C 0.04947 0.89668 0.52875 0.0
C173 C 0.05472 0.91821 0.5179 0.0
C174 C 0.0538 0.91604 0.56723 0.0
C175 C 0.04953 0.89527 0.55354 0.0
C176 C 0.05929 0.93758 0.55637 0.0
C177 C 0.11018 0.03728 0.48454 0.0
C178 C 0.15061 0.05422 0.47767 0.0
C179 C 0.13113 0.06429 0.51355 0.0
C180 C 0.11095 0.04953 0.50639 0.0
C181 C 0.15105 0.06709 0.49912 0.0
C182 C 0.13039 0.03954 0.47046 0.0
C183 C 0.08783 0.02413 0.47497 0.0
O184 O 0.04308 0.96629 0.45356 0.0
O185 O 0.0206 0.98894 0.47407 0.0
O186 O 0.0683 0.02517 0.48723 0.0
O187 O 0.09047 1.00309 0.46574 0.0
H188 H 0.97551 0.98803 0.44856 0.0
H189 H 0.95395 0.99746 0.41133 0.0
H190 H 0.01947 0.98992 0.37425 0.0
H191 H 0.04098 0.98054 0.41128 0.0
H192 H 0.04593 0.88096 0.51778 0.0
H193 H 0.05518 0.91858 0.4988 0.0
H194 H 0.05397 0.91542 0.58636 0.0
H195 H 0.06356 0.95318 0.56736 0.0
H196 H 0.16541 0.05634 0.46592 0.0
H197 H 0.13095 0.07396 0.53019 0.0
H198 H 0.0957 0.04831 0.51767 0.0
H199 H 0.1302 0.03057 0.45341 0.0
C200 C 0.21755 0.77232 0.83884 0.0
C201 C 0.2421 0.77948 0.84292 0.0
C202 C 0.23315 0.79909 0.87996 0.0
C203 C 0.24979 0.79273 0.86324 0.0
C204 C 0.20863 0.79176 0.87587 0.0
C205 C 0.20093 0.77864 0.85549 0.0
U206 U 0.22028 0.72102 0.79367 0.0
O207 O 0.19052 0.69947 0.77559 0.0
O208 O 0.2154 0.72112 0.75484 0.0
C209 C 0.19571 0.70715 0.75454 0.0
C210 C 0.20875 0.75878 0.81724 0.0
C211 C 0.17516 0.71429 0.73923 0.0
C212 C 0.14223 0.73991 0.72972 0.0
C213 C 0.16139 0.73347 0.74504 0.0
C214 C 0.15043 0.70803 0.70283 0.0
C215 C 0.13661 0.72728 0.70836 0.0
C216 C 0.16945 0.70163 0.71809 0.0
C217 C 0.27035 0.67633 0.80238 0.0
C218 C 0.28673 0.65131 0.77239 0.0
C219 C 0.29749 0.6456 0.81377 0.0
C220 C 0.28287 0.66393 0.81992 0.0
C221 C 0.29989 0.63929 0.78991 0.0
C222 C 0.27204 0.6696 0.77856 0.0
C223 C 0.25706 0.69709 0.80931 0.0
O224 O 0.22289 0.7595 0.79921 0.0
O225 O 0.19878 0.73764 0.82057 0.0
O226 O 0.23484 0.69293 0.81593 0.0
O227 O 0.25932 0.71561 0.79577 0.0
H228 H 0.25539 0.77487 0.83044 0.0
H229 H 0.2688 0.79806 0.86586 0.0
H230 H 0.19543 0.79575 0.88866 0.0
H231 H 0.18192 0.7733 0.85277 0.0
H232 H 0.13216 0.75503 0.73432 0.0
H233 H 0.16559 0.74352 0.76127 0.0
H234 H 0.14649 0.69785 0.68663 0.0
H235 H 0.17983 0.68676 0.7133 0.0
H236 H 0.28816 0.64683 0.75386 0.0
H237 H 0.30771 0.63704 0.82766 0.0
H238 H 0.28192 0.6689 0.8384 0.0
H239 H 0.26249 0.67886 0.76471 0.0
C240 C 0.9745 0.59134 0.51961 0.0
C241 C 0.99808 0.60175 0.51963 0.0
C242 C 0.98731 0.63202 0.54787 0.0
C243 C 1.00441 0.62204 0.5336 0.0
C244 C 0.96364 0.62173 0.5473 0.0
C245 C 0.95736 0.60161 0.53339 0.0
U246 U 0.9789 0.54255 0.47068 0.0
O247 O 0.97197 0.50432 0.47421 0.0
O248 O 0.94833 0.52405 0.45045 0.0
C249 C 0.95191 0.50386 0.46078 0.0
C250 C 0.96717 0.5694 0.50624 0.0
C251 C 0.93027 0.49124 0.47005 0.0
C252 C 0.91049 0.46911 0.50095 0.0
C253 C 0.93024 0.48291 0.49334 0.0
C254 C 0.88999 0.47241 0.46253 0.0
C255 C 0.89026 0.46348 0.48556 0.0
C256 C 0.90981 0.48608 0.45486 0.0
C257 C 0.02996 0.54383 0.42568 0.0
C258 C 0.04076 0.54569 0.38434 0.0
C259 C 0.06297 0.52138 0.41148 0.0
C260 C 0.04839 0.52801 0.42976 0.0
C261 C 0.05959 0.5304 0.38863 0.0
C262 C 0.02617 0.55238 0.40265 0.0
C263 C 0.01671 0.55342 0.44573 0.0
O264 O 0.95848 0.5717 0.48444 0.0
O265 O 0.98145 0.55173 0.50866 0.0
O266 O 0.01802 0.542 0.46576 0.0
O267 O 0.99507 0.56112 0.44082 0.0
H268 H 1.01158 0.59411 0.50907 0.0
H269 H 0.02273 0.62968 0.53357 0.0
H270 H 0.94988 0.62934 0.55757 0.0
H271 H 0.93905 0.59392 0.53353 0.0
H272 H 0.91119 0.46248 0.51879 0.0
H273 H 0.94567 0.48657 0.50555 0.0
H274 H 0.87487 0.46802 0.45013 0.0
H275 H 0.90942 0.49211 0.43678 0.0
H276 H 0.038 0.55338 0.3671 0.0
H277 H 0.07733 0.50958 0.41538 0.0
H278 H 0.05211 0.52126 0.44727 0.0
H279 H 1.01247 0.56491 0.39893 0.0
C280 C 0.78919 0.76473 0.85352 0.0
C281 C 0.80636 0.76539 0.8727 0.0
C282 C 0.785 0.73205 0.89066 0.0
C283 C 0.80429 0.74921 0.89105 0.0
C284 C 0.76848 0.73078 0.87099 0.0
C285 C 0.77054 0.74694 0.85268 0.0
U286 U 0.81181 0.80112 0.80013 0.0
O287 O 0.78969 0.81577 0.77103 0.0
O288 O 0.81199 0.83949 0.79515 0.0
C289 C 0.79532 0.83772 0.77778 0.0
C290 C 0.78846 0.78392 0.83597 0.0
C291 C 0.77506 0.85389 0.77858 0.0
C292 C 0.75722 0.88878 0.79469 0.0
C293 C 0.77458 0.87167 0.79616 0.0
C294 C 0.73985 0.87019 0.75862 0.0
C295 C 0.73994 0.88852 0.77564 0.0
C296 C 0.75721 0.85314 0.76005 0.0
C297 C 0.86867 0.78439 0.76799 0.0
C298 C 0.88374 0.80426 0.73342 0.0
C299 C 0.90297 0.76968 0.74804 0.0
C300 C 0.88672 0.76812 0.76622 0.0
C301 C 0.90145 0.78752 0.73116 0.0
C302 C 0.86744 0.80266 0.75163 0.0
C303 C 0.85097 0.7814 0.78654 0.0
O304 O 0.80529 0.80115 0.83819 0.0
O305 O 0.783 0.77761 0.81383 0.0
O306 O 0.82892 0.77423 0.77913 0.0
O307 O 0.85137 0.79818 0.80284 0.0
H308 H 0.82083 0.779 0.87408 0.0
H309 H 0.81702 0.751 0.90617 0.0
H310 H 0.75343 0.71777 0.87016 0.0
H311 H 0.75688 0.7461 0.83829 0.0
H312 H 0.75817 0.90293 0.80781 0.0
H313 H 0.78817 0.87297 0.81058 0.0
H314 H 0.7268 0.86948 0.74373 0.0
H315 H 0.7572 0.83983 0.74612 0.0
H316 H 0.88238 0.81849 0.72099 0.0
H317 H 0.91627 0.75644 0.74675 0.0
H318 H 0.88798 0.7539 0.77869 0.0
H319 H 0.85369 0.81547 0.75278 0.0
C320 C 0.28908 0.27113 0.35619 0.0
C321 C 0.3051 0.25276 0.35777 0.0
C322 C 0.28489 0.23747 0.39225 0.0
C323 C 0.3031 0.23608 0.3758 0.0
C324 C 0.2693 0.2562 0.3907 0.0
C325 C 0.27134 0.27275 0.37286 0.0
U326 U 0.31345 0.30314 0.30061 0.0
O327 O 0.29122 0.31688 0.2711 0.0
O328 O 0.31412 0.34127 0.29398 0.0
C329 C 0.29704 0.33901 0.27702 0.0
C330 C 0.28972 0.28876 0.33736 0.0
C331 C 0.27678 0.3552 0.27794 0.0
C332 C 0.2394 0.36927 0.26001 0.0
C333 C 0.25721 0.35265 0.26119 0.0
C334 C 0.25988 0.39118 0.29273 0.0
C335 C 0.24072 0.38897 0.27549 0.0
C336 C 0.2777 0.37451 0.29395 0.0
C337 C 0.36939 0.28446 0.26837 0.0
C338 C 0.38251 0.30166 0.23167 0.0
C339 C 0.40444 0.27008 0.24936 0.0
C340 C 0.38858 0.26932 0.26793 0.0
C341 C 0.40136 0.28596 0.23077 0.0
C342 C 0.36663 0.30087 0.25027 0.0
C343 C 0.35209 0.28227 0.28738 0.0
O344 O 0.30752 0.30503 0.33882 0.0
O345 O 0.28447 0.28094 0.31566 0.0
O346 O 0.32986 0.27505 0.28063 0.0
O347 O 0.35294 0.29966 0.30306 0.0
H348 H 0.31898 0.25127 0.34505 0.0
H349 H 0.31549 0.22194 0.37671 0.0
H350 H 0.25555 0.2582 0.40347 0.0
H351 H 0.25891 0.28687 0.37204 0.0
H352 H 0.22491 0.36708 0.24649 0.0
H353 H 0.25605 0.33815 0.24844 0.0
H354 H 0.26182 0.40641 0.30455 0.0
H355 H 0.29262 0.37726 0.30693 0.0
H356 H 0.37992 0.31441 0.21788 0.0
H357 H 0.41867 0.25771 0.24917 0.0
H358 H 0.39104 0.25655 0.28174 0.0
H359 H 0.352 0.31282 0.25036 0.0
C360 C 0.48102 0.93679 0.50382 0.0
C361 C 0.48962 0.91793 0.51697 0.0
C362 C 0.49333 0.89484 0.48071 0.0
C363 C 0.49559 0.89712 0.50553 0.0
C364 C 0.48532 0.91399 0.46758 0.0
C365 C 0.4792 0.93475 0.47905 0.0
U366 U 0.48437 0.98285 0.55467 0.0
O367 O 0.4811 0.02133 0.55353 0.0
O368 O 0.45494 0.99937 0.57254 0.0
C369 C 0.46084 0.02053 0.5648 0.0
C370 C 0.47299 0.95828 0.51556 0.0
C371 C 0.4409 0.03472 0.55513 0.0
C372 C 0.39824 0.04393 0.55332 0.0
C373 C 0.41651 0.02853 0.55924 0.0
C374 C 0.42816 0.07156 0.53817 0.0
C375 C 0.40399 0.06593 0.5434 0.0
C376 C 0.44639 0.05623 0.54409 0.0
C377 C 0.53327 0.9759 0.60563 0.0
C378 C 0.5529 1.00528 0.63308 0.0
C379 C 0.55992 0.9639 0.63815 0.0
C380 C 0.54428 0.95816 0.61855 0.0
C381 C 0.56493 0.98755 0.64524 0.0
C382 C 0.53724 0.99952 0.61334 0.0
C383 C 0.51966 0.96923 0.58322 0.0
O384 O 0.46191 0.9551 0.5354 0.0
O385 O 0.48849 0.97663 0.51651 0.0
O386 O 0.52308 0.98317 0.56522 0.0
O387 O 0.497 0.96152 0.58467 0.0
H388 H 0.49133 0.91912 0.53611 0.0
H389 H 0.5018 0.88268 0.51609 0.0
H390 H 0.48304 0.91264 0.44848 0.0
H391 H 0.47257 0.94907 0.46857 0.0
H392 H 0.3798 0.03915 0.55761 0.0
H393 H 0.41158 1.01222 0.56789 0.0
H394 H 0.43309 0.08824 0.53019 0.0
H395 H 0.46495 0.06167 0.54081 0.0
H396 H 0.55647 0.02365 0.63818 0.0
H397 H 0.5687 0.94986 0.64737 0.0
H398 H 0.54145 0.93984 0.61297 0.0
H399 H 0.52891 0.01351 0.60365 0.0
C400 C 0.22128 0.26572 0.6815 0.0
C401 C 0.23751 0.27467 0.66514 0.0
C402 C 0.23518 0.2368 0.64392 0.0
C403 C 0.24432 0.26036 0.64645 0.0
C404 C 0.21891 0.22796 0.66036 0.0
C405 C 0.21205 0.2423 0.67897 0.0
U406 U 0.22833 0.32064 0.72241 0.0
O407 O 0.20036 0.34252 0.73624 0.0
O408 O 0.22384 0.32354 0.7608 0.0
C409 C 0.20486 0.33638 0.75825 0.0
C410 C 0.21368 0.28047 0.70121 0.0
C411 C 0.18366 0.3285 0.77146 0.0
C412 C 0.14684 0.30379 0.7752 0.0
C413 C 0.16667 0.31117 0.76215 0.0
C414 C 0.16081 0.33089 0.807 0.0
C415 C 0.14364 0.3136 0.79778 0.0
C416 C 0.18056 0.3383 0.79393 0.0
C417 C 0.28187 0.36602 0.71299 0.0
C418 C 0.29775 0.39766 0.73989 0.0
C419 C 0.3139 0.3936 0.70112 0.0
C420 C 0.29788 0.37414 0.69611 0.0
C421 C 0.31426 0.40545 0.72315 0.0
C422 C 0.28166 0.37806 0.73486 0.0
C423 C 0.26667 0.3443 0.70758 0.0
O424 O 0.22847 0.28186 0.72009 0.0
O425 O 0.20519 0.3009 0.69541 0.0
O426 O 0.24459 0.34704 0.69888 0.0
O427 O 0.2678 0.32754 0.72329 0.0
H428 H 0.24489 0.29271 0.66682 0.0
H429 H 0.25694 0.26762 0.6341 0.0
H430 H 0.21124 0.21003 0.65865 0.0
H431 H 0.19944 0.2351 0.69138 0.0
H432 H 0.13398 0.29041 0.76762 0.0
H433 H 0.1688 0.3033 0.74487 0.0
H434 H 0.15931 0.33833 0.82457 0.0
H435 H 0.19358 0.35156 0.80149 0.0
H436 H 0.29781 0.40621 0.75713 0.0
H437 H 0.32628 0.39924 0.68781 0.0
H438 H 0.29832 0.36511 0.67914 0.0
H439 H 0.26947 0.37201 0.74817 0.0
C440 C 0.79875 0.26138 0.6709 0.0
C441 C 0.80964 0.28405 0.67522 0.0
C442 C 0.79843 0.29527 0.63488 0.0
C443 C 0.80947 0.30089 0.65732 0.0
C444 C 0.78814 0.27235 0.63058 0.0
C445 C 0.78828 0.25562 0.6484 0.0
U446 U 0.81982 0.23145 0.72884 0.0
O447 O 0.79712 0.21765 0.75703 0.0
O448 O 0.81867 0.19368 0.73696 0.0
C449 C 0.80196 0.19566 0.75251 0.0
C450 C 0.79687 0.2437 0.68961 0.0
C451 C 0.78093 0.17843 0.75034 0.0
C452 C 0.74855 0.15643 0.76935 0.0
C453 C 0.76743 0.17383 0.77027 0.0
C454 C 0.75599 0.14811 0.72834 0.0
C455 C 0.74277 0.1432 0.74846 0.0
C456 C 0.7748 0.16565 0.72921 0.0
C457 C 0.8776 0.25371 0.76521 0.0
C458 C 0.91465 0.2394 0.78373 0.0
C459 C 0.89246 0.26839 0.80422 0.0
C460 C 0.87544 0.26841 0.78515 0.0
C461 C 0.91214 0.25376 0.80381 0.0
C462 C 0.89757 0.23936 0.76464 0.0
C463 C 0.85991 0.25453 0.74465 0.0
O464 O 0.81324 0.22775 0.6902 0.0
O465 O 0.79188 0.25158 0.71069 0.0
O466 O 0.83815 0.26113 0.74916 0.0
O467 O 0.85948 0.23701 0.72912 0.0
H468 H 0.81794 0.28882 0.69246 0.0
H469 H 0.81788 0.31828 0.66105 0.0
H470 H 0.77935 0.26752 0.61356 0.0
H471 H 0.77974 0.23826 0.64473 0.0
H472 H 0.73907 0.15272 0.78529 0.0
H473 H 0.77189 0.18333 0.78678 0.0
H474 H 0.75195 0.13817 0.71201 0.0
H475 H 0.78483 0.16887 0.71351 0.0
H476 H 0.9297 0.22802 0.78291 0.0
H477 H 0.89036 0.28007 0.81922 0.0
H478 H 0.86066 0.28011 0.78598 0.0
H479 H 0.9001 0.22814 0.7494 0.0
C480 C 0.50642 0.55244 0.58847 0.0
C481 C 0.51638 0.55715 0.6115 0.0
C482 C 0.479 0.54235 0.62853 0.0
C483 C 0.50286 0.55208 0.63127 0.0
C484 C 0.4693 0.53697 0.60556 0.0
C485 C 0.48279 0.54209 0.58578 0.0
U486 U 0.5552 0.54772 0.54165 0.0
O487 O 0.55196 0.55421 0.50344 0.0
O488 O 0.57777 0.576 0.52613 0.0
C489 C 0.56762 0.57245 0.50483 0.0
C490 C 0.51939 0.5602 0.56727 0.0
C491 C 0.56061 0.59372 0.49216 0.0
C492 C 0.53179 0.62326 0.48168 0.0
C493 C 0.53784 0.60314 0.49433 0.0
C494 C 0.57123 0.62478 0.46489 0.0
C495 C 0.54837 0.63416 0.46663 0.0
C496 C 0.57722 0.60474 0.47744 0.0
C497 C 0.59924 0.49673 0.54391 0.0
C498 C 0.64241 0.49112 0.54078 0.0
C499 C 0.6131 0.45963 0.52875 0.0
C500 C 0.59429 0.47381 0.53462 0.0
C501 C 0.63741 0.46792 0.53215 0.0
C502 C 0.62354 0.50538 0.54662 0.0
C503 C 0.57904 0.51023 0.55261 0.0
O504 O 0.54181 0.56882 0.57073 0.0
O505 O 0.51623 0.54666 0.54819 0.0
O506 O 0.5589 0.50931 0.53929 0.0
O507 O 0.58451 0.53129 0.562 0.0
H508 H 0.53442 0.56532 0.61432 0.0
H509 H 0.51082 0.55654 0.64872 0.0
H510 H 0.45115 0.52905 0.60284 0.0
H511 H 0.4745 0.53841 0.5683 0.0
H512 H 0.51411 0.63018 0.48351 0.0
H513 H 0.5248 0.59494 0.50572 0.0
H514 H 0.58469 0.63314 0.45404 0.0
H515 H 0.59494 0.59786 0.47569 0.0
H516 H 0.66093 0.4979 0.54404 0.0
H517 H 0.60863 0.44187 0.52208 0.0
H518 H 0.57582 0.46654 0.53252 0.0
H519 H 0.62807 0.52288 0.55393 0.0
C520 C 0.50709 0.47846 0.9333 0.0
C521 C 0.50964 0.50116 0.92388 0.0
C522 C 0.48162 0.48932 0.89064 0.0
C523 C 0.49698 0.50655 0.90272 0.0
C524 C 0.47906 0.46671 0.90032 0.0
C525 C 0.49162 0.46139 0.92142 0.0
U526 U 0.55709 0.48733 0.98352 0.0
O527 O 0.55386 0.48007 0.02156 0.0
O528 O 0.57928 0.46102 1.00079 0.0
C529 C 0.5688 0.46284 0.02106 0.0
C530 C 0.52018 0.47196 0.95539 0.0
C531 C 0.56084 0.44037 0.03212 0.0
C532 C 0.55341 0.3977 0.03019 0.0
C533 C 0.55823 0.4191 0.01895 0.0
C534 C 0.55241 0.41839 0.0678 0.0
C535 C 0.55095 0.39705 0.05478 0.0
C536 C 0.55747 0.43984 0.05658 0.0
C537 C 0.60285 0.54174 0.98296 0.0
C538 C 0.64351 0.54791 1.00134 0.0
C539 C 0.62173 0.5813 0.98753 0.0
C540 C 0.60211 0.56615 0.97994 0.0
C541 C 0.64262 0.57244 0.99848 0.0
C542 C 0.62374 0.53267 0.99374 0.0
C543 C 0.58196 0.52643 0.97371 0.0
O544 O 0.54233 0.46523 0.95329 0.0
O545 O 0.51804 0.4858 0.97392 0.0
O546 O 0.56248 0.52608 0.98612 0.0
O547 O 0.58666 0.50555 0.96524 0.0
H548 H 0.52157 0.51458 0.93276 0.0
H549 H 0.49969 0.52399 0.8955 0.0
H550 H 0.46737 0.45308 0.89148 0.0
H551 H 0.48934 0.44379 0.92841 0.0
H552 H 0.55206 0.38151 0.01969 0.0
H553 H 0.56051 0.41888 1.00005 0.0
H554 H 0.55058 0.41836 0.08677 0.0
H555 H 0.55941 0.45597 0.06713 0.0
H556 H 0.65937 0.54057 1.00967 0.0
H557 H 0.62067 0.60003 0.98458 0.0
H558 H 0.58635 0.57353 0.97143 0.0
H559 H 0.6248 0.51386 0.99619 0.0
C560 C 0.7194 0.27385 0.33831 0.0
C561 C 0.74373 0.28196 0.34188 0.0
C562 C 0.73487 0.30077 0.37934 0.0
C563 C 0.75136 0.2953 0.36215 0.0
C564 C 0.71056 0.2925 0.37576 0.0
C565 C 0.70291 0.2793 0.35541 0.0
U566 U 0.72293 0.22335 0.29229 0.0
O567 O 0.69328 0.20152 0.2742 0.0
O568 O 0.71748 0.22403 0.25358 0.0
C569 C 0.69748 0.21046 0.25339 0.0
C570 C 0.71063 0.26027 0.31674 0.0
C571 C 0.6762 0.21859 0.23927 0.0
C572 C 0.63424 0.2119 0.2244 0.0
C573 C 0.65382 0.20566 0.23921 0.0
C574 C 0.65887 0.2443 0.20953 0.0
C575 C 0.63664 0.23112 0.20918 0.0
C576 C 0.67839 0.23814 0.22438 0.0
C577 C 0.7764 0.18142 0.30099 0.0
C578 C 0.78347 0.14435 0.28074 0.0
C579 C 0.81567 0.16426 0.30505 0.0
C580 C 0.80027 0.18209 0.31046 0.0
C581 C 0.80757 0.14521 0.29005 0.0
C582 C 0.76799 0.16236 0.28614 0.0
C583 C 0.76111 0.20097 0.30713 0.0
O584 O 0.72432 0.26174 0.29842 0.0
O585 O 0.70155 0.23877 0.32001 0.0
O586 O 0.73904 0.1954 0.31349 0.0
O587 O 0.76234 0.2195 0.29353 0.0
H588 H 0.7569 0.27805 0.32903 0.0
H589 H 0.77021 0.30137 0.36438 0.0
H590 H 0.69752 0.29581 0.38891 0.0
H591 H 0.68407 0.27323 0.35308 0.0
H592 H 0.61752 0.20111 0.2242 0.0
H593 H 0.65161 0.19031 0.25019 0.0
H594 H 0.66127 0.2592 0.198 0.0
H595 H 0.69535 0.24846 0.22376 0.0
H596 H 0.77681 0.13009 0.26884 0.0
H597 H 0.83405 0.1654 0.31258 0.0
H598 H 0.80711 0.19657 0.32201 0.0
H599 H 0.74963 0.16152 0.27858 0.0
C600 C 0.47678 0.09052 0.01851 0.0
C601 C 0.47209 0.11262 1.00889 0.0
C602 C 0.49005 0.13284 0.04437 0.0
C603 C 0.47862 0.13349 0.02167 0.0
C604 C 0.49497 0.11078 0.05389 0.0
C605 C 0.48838 0.08989 0.04113 0.0
U606 U 0.47736 0.04009 0.97106 0.0
O607 O 0.46964 1.00203 0.97509 0.0
O608 O 0.44624 0.02199 0.95128 0.0
C609 C 0.44965 1.00175 0.96156 0.0
C610 C 0.46748 0.06818 1.00638 0.0
C611 C 0.42796 0.98927 0.97072 0.0
C612 C 0.40617 0.97145 1.00291 0.0
C613 C 0.4257 0.98541 0.99502 0.0
C614 C 0.39024 0.96591 0.96254 0.0
C615 C 0.3885 0.96113 0.9867 0.0
C616 C 0.40982 0.97975 0.95464 0.0
C617 C 0.52836 0.04066 0.92568 0.0
C618 C 0.54226 0.04524 0.88559 0.0
C619 C 0.5601 0.01664 0.91135 0.0
C620 C 0.5448 0.0228 0.9292 0.0
C621 C 0.5595 0.02826 0.8896 0.0
C622 C 0.52698 0.05148 0.90348 0.0
C623 C 0.51507 0.05017 0.94571 0.0
O624 O 0.45779 0.06972 0.98482 0.0
O625 O 0.48072 0.04975 1.00901 0.0
O626 O 0.51632 0.03876 0.96573 0.0
O627 O 0.4935 0.05803 0.94079 0.0
H628 H 0.46278 0.11385 0.99173 0.0
H629 H 0.47396 0.15013 0.01405 0.0
H630 H 0.50369 0.10966 0.07134 0.0
H631 H 0.49188 0.07317 0.04923 0.0
H632 H 0.40509 0.96835 0.02167 0.0
H633 H 0.43929 0.9927 1.00787 0.0
H634 H 0.37695 0.95816 0.94964 0.0
H635 H 0.41116 0.98247 0.93583 0.0
H636 H 0.54144 0.05457 0.86905 0.0
H637 H 0.57297 1.00325 0.91484 0.0
H638 H 0.54653 0.01412 0.94605 0.0
H639 H 0.51475 0.06548 0.90025 0.0
Mg640 Mg 0.2556 0.87406 0.01909 0.0
O641 O 0.29146 0.8958 1.01269 0.0
O642 O 0.31999 0.86936 1.01214 0.0
Mg643 Mg 0.30369 0.83215 0.01794 0.0
C644 C 0.31353 0.89059 1.01081 0.0
C645 C 0.2103 0.90082 0.01808 0.0
O646 O 0.20515 0.87977 0.02641 0.0
O647 O 0.25336 0.86002 0.98054 0.0
O648 O 0.28134 0.83308 0.98259 0.0
O649 O 0.26219 0.87638 0.0586 0.0
O650 O 0.27444 0.84774 0.03636 0.0
C651 C 0.26459 0.84339 0.97111 0.0
C652 C 0.2733 0.85697 0.05714 0.0
O653 O 0.23166 0.90528 1.01135 0.0
Mg654 Mg 0.15928 0.52073 0.27241 0.0
O655 O 0.1359 0.51391 0.23724 0.0
O656 O 0.16261 0.51293 0.2089 0.0
Mg657 Mg 0.20116 0.52106 0.22393 0.0
C658 C 0.1409 0.51103 0.21554 0.0
C659 C 0.13141 0.51989 0.31714 0.0
O660 O 0.15322 0.52906 0.32286 0.0
O661 O 0.17238 0.48245 0.27161 0.0
O662 O 0.19912 0.48593 0.24325 0.0
O663 O 0.15939 0.56037 0.26897 0.0
O664 O 0.18683 0.53846 0.25455 0.0
C665 C 0.18868 0.47391 0.25911 0.0
C666 C 0.17908 0.55915 0.25771 0.0
O667 O 0.12702 0.51248 0.29592 0.0
Mg668 Mg 0.78002 0.66039 0.0294 0.0
O669 O 0.74366 0.63778 0.02323 0.0
O670 O 0.71484 0.66396 0.02198 0.0
Mg671 Mg 0.73116 0.70165 0.02629 0.0
C672 C 0.72134 0.64272 0.02129 0.0
C673 C 0.82567 0.63363 0.02944 0.0
O674 O 0.83174 0.65519 0.03714 0.0
O675 O 0.77902 0.67194 0.9904 0.0
O676 O 0.75018 0.69804 0.99125 0.0
O677 O 0.77646 0.6608 0.06895 0.0
O678 O 0.76228 0.68776 0.04547 0.0
C679 C 0.76625 0.68742 0.98032 0.0
C680 C 0.76494 0.67992 0.06655 0.0
O681 O 0.80361 0.62882 0.02292 0.0
Mg682 Mg 0.91039 0.03698 0.25471 0.0
O683 O 0.8868 1.00243 0.24687 0.0
O684 O 0.91253 0.97476 0.2387 0.0
Mg685 Mg 0.95131 0.99085 0.23958 0.0
C686 C 0.89105 0.9811 0.24151 0.0
C687 C 0.87932 0.07804 0.26484 0.0
O688 O 0.89813 0.08656 0.25381 0.0
O689 O 0.92374 0.02331 0.29126 0.0
O690 O 0.94997 0.99736 0.27963 0.0
O691 O 0.90924 0.04635 0.21614 0.0
O692 O 0.93755 0.02577 0.23298 0.0
C693 C 0.93992 1.00849 0.296 0.0
C694 C 0.92884 0.03519 0.21414 0.0
O695 O 0.87816 0.05608 0.26924 0.0
Mg696 Mg 0.28451 0.16196 0.52847 0.0
O697 O 0.24918 0.13803 0.5216 0.0
O698 O 0.21905 0.16268 0.51905 0.0
Mg699 Mg 0.23373 0.20089 0.52344 0.0
C700 C 0.22662 0.14181 0.51871 0.0
C701 C 0.32945 0.13529 0.53517 0.0
O702 O 0.33228 0.15526 0.54727 0.0
O703 O 0.28421 0.17309 0.48933 0.0
O704 O 0.25353 0.1973 0.48884 0.0
O705 O 0.27977 0.16244 0.56777 0.0
O706 O 0.26512 0.18867 0.54368 0.0
C707 C 0.27047 0.18734 0.47858 0.0
C708 C 0.26752 0.18105 0.56488 0.0
O709 O 0.30957 0.13123 0.52318 0.0
Mg710 Mg 0.40849 0.53612 0.75621 0.0
O711 O 0.38552 0.5012 0.74807 0.0
O712 O 0.41169 0.47457 0.73819 0.0
Mg713 Mg 0.45023 0.49136 0.7394 0.0
C714 C 0.39011 0.48022 0.74171 0.0
C715 C 0.37401 0.57502 0.76392 0.0
O716 O 0.39001 0.58313 0.74924 0.0
O717 O 0.42266 0.52202 0.7922 0.0
O718 O 0.44909 0.49667 0.77974 0.0
O719 O 0.40615 0.54605 0.71787 0.0
O720 O 0.43542 0.52593 0.7336 0.0
C721 C 0.43904 0.5073 0.79645 0.0
C722 C 0.42582 0.53526 0.71509 0.0
O723 O 0.37612 0.55423 0.77168 0.0
Mg724 Mg 0.75831 0.37435 0.51915 0.0
O725 O 0.79338 0.39706 0.51224 0.0
O726 O 0.82251 0.37143 0.51006 0.0
Mg727 Mg 0.8075 0.33381 0.51602 0.0
C728 C 0.81544 0.39248 0.50925 0.0
C729 C 0.71414 0.4016 0.52391 0.0
O730 O 0.71172 0.38204 0.53589 0.0
O731 O 0.75549 0.36096 0.48035 0.0
O732 O 0.78417 0.3347 0.48134 0.0
O733 O 0.76572 0.37589 0.55865 0.0
O734 O 0.77828 0.34826 0.53538 0.0
C735 C 0.7669 0.34475 0.47041 0.0
C736 C 0.77722 0.35678 0.55645 0.0
O737 O 0.73333 0.40504 0.51261 0.0
Mg738 Mg 0.6599 0.02126 0.77454 0.0
O739 O 0.63635 0.01455 0.73952 0.0
O740 O 0.6629 0.01443 0.71097 0.0
Mg741 Mg 0.70144 0.02318 0.72586 0.0
C742 C 0.64127 1.01203 0.71776 0.0
C743 C 0.63278 0.02015 0.81926 0.0
O744 O 0.65419 0.03066 0.82404 0.0
O745 O 0.67353 0.98325 0.77296 0.0
O746 O 0.70019 0.98768 0.74465 0.0
O747 O 0.65902 0.06081 0.77177 0.0
O748 O 0.68694 0.0399 0.75677 0.0
C749 C 0.68998 0.97519 0.76032 0.0
C750 C 0.67864 0.0603 0.76032 0.0
O751 O 0.6281 1.01208 0.79831 0.0
Mg752 Mg 0.0396 0.27122 0.90481 0.0
O753 O 1.00477 0.26334 0.88084 0.0
O754 O 0.9758 0.25186 0.90486 0.0
Mg755 Mg 0.99113 0.25131 0.94298 0.0
C756 C 0.9828 0.2566 0.88424 0.0
C757 C 0.06944 0.27654 0.85949 0.0
O758 O 0.06632 0.25352 0.86089 0.0
O759 O 0.02456 0.30589 0.91839 0.0
O760 O 0.99655 0.29173 0.94242 0.0
O761 O 0.04988 0.23345 0.90272 0.0
O762 O 0.02759 0.24717 0.93031 0.0
C763 C 1.00821 0.30901 0.93321 0.0
C764 C 0.03781 0.22948 0.92138 0.0
O765 O 0.05938 0.2894 0.87441 0.0
Mg766 Mg 0.54032 0.76646 0.40654 0.0
O767 O 0.50606 0.7604 0.38197 0.0
O768 O 0.47607 0.74789 0.40431 0.0
Mg769 Mg 0.49103 0.74505 0.44266 0.0
C770 C 0.48392 0.75371 0.38425 0.0
C771 C 0.58301 0.78078 0.37773 0.0
O772 O 0.59125 0.76746 0.39477 0.0
O773 O 0.52572 0.8006 0.42166 0.0
O774 O 0.49778 0.78551 0.44516 0.0
O775 O 0.5498 0.72888 0.4019 0.0
O776 O 0.52767 0.74118 0.43042 0.0
C777 C 0.50981 0.80321 0.43706 0.0
C778 C 0.53747 0.72393 0.42019 0.0
O779 O 0.56071 0.78525 0.37716 0.0
Mg780 Mg 1.00372 0.76124 0.62139 0.0
O781 O 0.03932 0.75381 0.64284 0.0
O782 O 0.06565 0.74417 0.61611 0.0
Mg783 Mg 0.0478 0.74431 0.57877 0.0
C784 C 0.06039 0.74779 0.63755 0.0
C785 C 0.96361 0.77799 0.65127 0.0
O786 O 0.95346 0.772 0.63045 0.0
O787 O 0.01999 0.79718 0.60904 0.0
O788 O 0.04436 0.78444 0.5818 0.0
O789 O 0.99123 0.72299 0.62214 0.0
O790 O 1.01238 0.73829 0.59377 0.0
C791 C 0.03486 0.80124 0.59273 0.0
C792 C 1.00195 0.7199 0.6026 0.0
O793 O 0.98648 0.77683 0.6541 0.0
Mg794 Mg 0.50408 0.26172 0.1199 0.0
O795 O 0.53927 0.25375 0.14187 0.0
O796 O 0.56654 0.24557 0.11556 0.0
Mg797 Mg 0.54973 0.24696 0.07797 0.0
C798 C 0.56061 0.24825 0.13692 0.0
C799 C 0.46288 0.27481 0.15041 0.0
O800 O 0.45291 0.26729 0.12997 0.0
O801 O 0.52047 0.29835 0.10928 0.0
O802 O 0.54591 0.28684 0.08243 0.0
O803 O 0.49173 0.22324 0.11851 0.0
O804 O 0.51367 0.24007 0.09157 0.0
C805 C 0.53592 0.30313 0.09364 0.0
C806 C 0.50286 0.22123 0.09906 0.0
O807 O 0.48591 0.27587 0.15283 0.0
C808 C 0.26203 0.80481 0.91528 0.0
C809 C 0.24162 0.8121 0.90222 0.0
C810 C 0.26963 0.81558 0.937 0.0
C811 C 0.2572 0.83421 0.94678 0.0
H812 H 0.27185 0.79012 0.90904 0.0
H813 H 0.28518 0.80876 0.94642 0.0
S814 S 0.20387 0.86148 0.91841 0.0
N815 N 0.21009 0.84031 0.89967 0.0
N816 N 0.22413 0.86041 0.94068 0.0
C817 C 0.2372 0.84226 0.93347 0.0
C818 C 0.22946 0.83123 0.91124 0.0
C819 C 0.10217 0.52883 0.37586 0.0
C820 C 0.07721 0.52572 0.37014 0.0
C821 C 0.11933 0.52621 0.35872 0.0
C822 C 0.11241 0.52022 0.335 0.0
H823 H 0.10855 0.53405 0.39366 0.0
H824 H 0.13826 0.52934 0.36415 0.0
S825 S 0.04927 0.5084 0.3111 0.0
N826 N 0.04637 0.51506 0.33931 0.0
N827 N 0.07864 0.51014 0.30699 0.0
C828 C 0.0875 0.51631 0.32913 0.0
C829 C 0.06994 0.51913 0.34667 0.0
C830 C 0.75716 0.71705 0.9212 0.0
C831 C 0.78028 0.71759 0.91191 0.0
C832 C 0.7526 0.70614 0.94267 0.0
C833 C 0.77092 0.6951 0.95582 0.0
H834 H 0.74264 0.72608 0.91233 0.0
H835 H 0.73468 0.70703 0.94938 0.0
S836 S 0.83404 0.68942 0.93805 0.0
N837 N 0.8213 0.70453 0.91654 0.0
N838 N 0.81277 0.68395 0.95702 0.0
C839 C 0.79383 0.69437 0.94614 0.0
C840 C 0.79853 0.70571 0.92424 0.0
C841 C 0.97397 0.98177 0.34807 0.0
C842 C 0.97165 0.99794 0.36677 0.0
C843 C 0.96277 0.98494 0.32572 0.0
C844 C 0.94876 1.00451 0.3209 0.0
H845 H 0.98472 0.96653 0.35068 0.0
H846 H 0.96556 0.97203 0.31197 0.0
S847 S 0.93654 0.05181 0.36411 0.0
N848 N 0.95382 0.034 0.37932 0.0
N849 N 0.93273 0.04007 0.33722 0.0
C850 C 0.94567 0.0205 0.33968 0.0
C851 C 0.95711 0.0172 0.36259 0.0
C852 C 0.24121 0.22999 0.60073 0.0
C853 C 0.24244 0.22164 0.62399 0.0
C854 C 0.24856 0.21638 0.5817 0.0
C855 C 0.25767 0.1939 0.58515 0.0
H856 H 0.23453 0.24725 0.59718 0.0
H857 H 0.2476 0.22386 0.56424 0.0
S858 S 0.26448 0.1639 0.64274 0.0
N859 N 0.2533 0.18942 0.64947 0.0
N860 N 0.2671 0.16381 0.61381 0.0
C861 C 0.25867 0.1852 0.60833 0.0
C862 C 0.25105 0.19905 0.62769 0.0
C863 C 0.47386 0.52799 0.66992 0.0
C864 C 0.46412 0.53876 0.64964 0.0
C865 C 0.46093 0.52605 0.69062 0.0
C866 C 0.43773 0.53492 0.692 0.0
H867 H 0.49181 0.52126 0.6699 0.0
H868 H 0.46957 0.51813 0.70587 0.0
S869 S 0.40385 0.56432 0.64358 0.0
N870 N 0.42967 0.55813 0.63211 0.0
N871 N 0.40528 0.55429 0.6708 0.0
C872 C 0.4275 0.54517 0.6716 0.0
C873 C 0.44068 0.54712 0.65051 0.0
C874 C 0.80217 0.30709 0.59271 0.0
C875 C 0.79666 0.31313 0.61596 0.0
C876 C 0.7972 0.32203 0.57381 0.0
C877 C 0.78645 0.34368 0.57731 0.0
H878 H 0.80967 0.29026 0.58895 0.0
H879 H 0.80086 0.31596 0.5562 0.0
S880 S 0.77021 0.36858 0.63517 0.0
N881 N 0.78116 0.34286 0.64172 0.0
N882 N 0.77207 0.37113 0.60629 0.0
C883 C 0.78212 0.35056 0.6007 0.0
C884 C 0.78717 0.33527 0.61999 0.0
C885 C 0.57959 1.00716 0.68408 0.0
C886 C 0.58424 0.99363 0.66389 0.0
C887 C 0.5979 1.0127 0.70177 0.0
C888 C 0.62163 1.00535 0.69959 0.0
H889 H 0.56164 0.0133 0.6863 0.0
H890 H 0.59355 0.02315 0.71702 0.0
S891 S 0.64301 0.96959 0.64993 0.0
N892 N 0.61421 0.97308 0.64277 0.0
N893 N 0.64847 0.98351 0.67559 0.0
C894 C 0.62639 0.99185 0.6794 0.0
C895 C 0.60776 0.98599 0.66167 0.0
C896 C 0.95495 0.25676 0.82111 0.0
C897 C 0.92996 0.25355 0.82436 0.0
C898 C 0.9719 0.25757 0.84046 0.0
C899 C 0.96457 0.25494 0.86384 0.0
H900 H 0.96142 0.25914 0.8035 0.0
H901 H 0.99089 0.26039 0.837 0.0
S902 S 0.90104 0.24464 0.88151 0.0
N903 N 0.89873 0.24667 0.85246 0.0
N904 N 0.93022 0.2482 0.88878 0.0
C905 C 0.93954 0.25121 0.86718 0.0
C906 C 0.92237 0.25053 0.84749 0.0
C907 C 0.48672 0.851 0.47687 0.0
C908 C 0.49785 0.87198 0.46882 0.0
C909 C 0.49042 0.82914 0.46618 0.0
C910 C 0.50562 0.82714 0.44701 0.0
H911 H 0.47483 0.85149 0.49152 0.0
H912 H 0.48138 0.81365 0.47331 0.0
S913 S 0.5393 0.87701 0.41934 0.0
N914 N 0.52477 0.88959 0.44058 0.0
N915 N 0.5319 0.8485 0.42042 0.0
C916 C 0.51684 0.84809 0.43869 0.0
C917 C 0.51289 0.87046 0.44956 0.0
C918 C 0.11829 0.28048 0.8144 0.0
C919 C 0.12326 0.30487 0.81223 0.0
C920 C 0.10042 0.27165 0.82914 0.0
C921 C 0.08668 0.28681 0.84246 0.0
H922 H 0.12882 0.26802 0.80518 0.0
H923 H 0.09784 0.25269 0.83051 0.0
S924 S 0.09085 0.35227 0.84114 0.0
N925 N 0.11164 0.34414 0.82316 0.0
N926 N 0.07827 0.3276 0.85113 0.0
C927 C 0.09087 0.31129 0.83982 0.0
C928 C 0.1091 0.32029 0.82471 0.0
C929 C 0.53308 0.67508 0.46524 0.0
C930 C 0.54245 0.65582 0.45343 0.0
C931 C 0.53026 0.69669 0.45392 0.0
C932 C 0.53675 0.69991 0.43036 0.0
H933 H 0.52893 0.67381 0.4837 0.0
H934 H 0.52399 0.71127 0.4641 0.0
S935 S 0.5584 0.65377 0.39051 0.0
N936 N 0.55535 0.64047 0.41601 0.0
N937 N 0.55044 0.68106 0.39487 0.0
C938 C 0.54475 0.68033 0.41795 0.0
C939 C 0.54752 0.65833 0.42944 0.0
C940 C 0.94254 0.78471 0.71418 0.0
C941 C 0.91752 0.78768 0.71067 0.0
C942 C 0.95757 0.78265 0.69497 0.0
C943 C 0.94816 0.78323 0.67143 0.0
H944 H 0.95051 0.78361 0.73195 0.0
H945 H 0.97656 0.77979 0.69863 0.0
S946 S 0.88395 0.79151 0.65267 0.0
N947 N 0.88416 0.79165 0.68183 0.0
N948 N 0.91221 0.78811 0.64586 0.0
C949 C 0.92328 0.78694 0.66774 0.0
C950 C 0.90804 0.78909 0.68728 0.0
C951 C 0.02862 0.8669 0.58085 0.0
C952 C 0.0469 0.87187 0.56493 0.0
C953 C 0.02529 0.84429 0.59052 0.0
C954 C 0.04027 0.82588 0.58476 0.0
H955 H 0.01637 0.88037 0.58529 0.0
H956 H 1.01043 0.84106 0.60201 0.0
S957 S 0.09302 0.83123 0.54648 0.0
N958 N 0.08153 0.85745 0.54564 0.0
N959 N 0.07573 0.8153 0.56379 0.0
C960 C 0.05941 0.83118 0.56976 0.0
C961 C 0.0626 0.85405 0.55986 0.0
C962 C 0.1217 0.73609 0.66714 0.0
C963 C 0.11701 0.73428 0.69126 0.0
C964 C 0.10344 0.74096 0.65022 0.0
C965 C 0.07951 0.74426 0.65655 0.0
H966 H 0.13971 0.73353 0.66121 0.0
H967 H 0.10821 0.74189 0.63191 0.0
S968 S 0.05775 0.74171 0.71761 0.0
N969 N 0.08676 0.73646 0.72081 0.0
N970 N 0.05234 0.7458 0.68906 0.0
C971 C 0.07465 0.74306 0.68076 0.0
C972 C 0.09338 0.73807 0.69807 0.0
C973 C 1.00472 0.67369 0.55336 0.0
C974 C 0.99367 0.65339 0.56302 0.0
C975 C 1.00828 0.69485 0.56662 0.0
C976 C 1.00098 0.69654 0.5901 0.0
H977 H 1.00975 0.67351 0.53509 0.0
H978 H 0.01599 0.7102 0.55805 0.0
S979 S 0.97432 0.64739 0.62461 0.0
N980 N 0.9778 0.63559 0.59823 0.0
N981 N 0.98428 0.67522 0.62307 0.0
C982 C 0.99109 0.67597 0.60033 0.0
C983 C 0.98748 0.65447 0.58683 0.0
C984 C 0.85766 0.92077 0.2361 0.0
C985 C 0.83332 0.92602 0.23203 0.0
C986 C 0.87597 0.93869 0.23919 0.0
C987 C 0.87078 0.96274 0.23862 0.0
H988 H 0.86271 0.9026 0.23646 0.0
H989 H 0.89442 0.93353 0.2421 0.0
S990 S 0.80959 0.98586 0.22939 0.0
N991 N 0.80474 0.9569 0.22811 0.0
N992 N 0.8391 0.99072 0.23411 0.0
C993 C 0.84637 0.96825 0.23493 0.0
C994 C 0.8277 0.94989 0.23153 0.0
C995 C 0.84773 0.13487 0.27556 0.0
C996 C 0.82493 0.12727 0.28334 0.0
C997 C 0.86493 0.11878 0.26975 0.0
C998 C 0.86029 0.09425 0.2716 0.0
H999 H 0.85231 0.15353 0.2738 0.0
H1000 H 0.88214 0.12579 0.26385 0.0
S1001 S 0.80333 0.06506 0.29128 0.0
N1002 N 0.79853 0.09351 0.29269 0.0
N1003 N 0.83092 0.06313 0.28179 0.0
C1004 C 0.83752 0.08631 0.27936 0.0
C1005 C 0.81983 0.10282 0.28514 0.0
C1006 C 0.34476 0.9466 0.98777 0.0
C1007 C 0.36927 0.9441 0.99462 0.0
C1008 C 0.32665 0.92974 0.99382 0.0
C1009 C 0.33244 0.90947 1.0065 0.0
H1010 H 0.33959 0.96162 0.9775 0.0
H1011 H 0.3081 0.93221 0.98783 0.0
S1012 S 0.39389 0.89498 0.02908 0.0
N1013 N 0.39825 0.9201 0.01523 0.0
N1014 N 0.36448 0.88845 0.02646 0.0
C1015 C 0.35686 0.90704 0.01379 0.0
C1016 C 0.37518 0.92432 1.0079 0.0
C1017 C 0.22039 0.41742 0.24883 0.0
C1018 C 0.224 0.40853 0.27171 0.0
C1019 C 0.20758 0.43772 0.24486 0.0
C1020 C 0.19759 0.45002 0.26355 0.0
H1021 H 0.22859 0.40933 0.23393 0.0
H1022 H 0.20628 0.44436 0.22703 0.0
S1023 S 0.19947 0.43258 0.32647 0.0
N1024 N 0.21469 0.4124 0.3131 0.0
N1025 N 0.19057 0.4507 0.30562 0.0
C1026 C 0.19975 0.44056 0.28634 0.0
C1027 C 0.21304 0.41987 0.29043 0.0
C1028 C 0.1653 0.10819 0.51145 0.0
C1029 C 0.17101 0.08512 0.50533 0.0
C1030 C 0.1834 0.12607 0.51596 0.0
C1031 C 0.20818 0.12177 0.51473 0.0
H1032 H 0.14657 0.11266 0.51219 0.0
H1033 H 0.17777 0.14354 0.52031 0.0
S1034 S 0.23286 0.06385 0.50068 0.0
N1035 N 0.20321 0.05855 0.49915 0.0
N1036 N 0.23738 0.09215 0.50767 0.0
C1037 C 0.21421 0.09857 0.50914 0.0
C1038 C 0.19564 0.08032 0.50437 0.0
C1039 C 0.73065 0.10055 0.74073 0.0
C1040 C 0.72445 0.12303 0.74839 0.0
C1041 C 0.71511 0.08057 0.74348 0.0
C1042 C 0.69261 0.08223 0.75387 0.0
H1043 H 0.7482 0.09817 0.73362 0.0
H1044 H 0.72134 0.06359 0.73831 0.0
S1045 S 0.66649 0.13769 0.77382 0.0
N1046 N 0.69333 0.14624 0.76457 0.0
N1047 N 0.66401 0.10878 0.76973 0.0
C1048 C 0.68557 0.10487 0.76026 0.0
C1049 C 0.70151 0.12521 0.75757 0.0
C1050 C 0.36283 0.0783 0.5286 0.0
C1051 C 0.38534 0.08385 0.54057 0.0
C1052 C 0.34498 0.09506 0.52646 0.0
C1053 C 0.34884 0.11793 0.53649 0.0
H1054 H 0.35902 0.06089 0.52077 0.0
H1055 H 0.32793 0.08994 0.51716 0.0
S1056 S 0.40456 0.14082 0.57049 0.0
N1057 N 0.41023 0.11351 0.56311 0.0
N1058 N 0.37716 0.14492 0.55912 0.0
C1059 C 0.37136 0.12357 0.54855 0.0
C1060 C 0.38945 0.10658 0.55059 0.0
C1061 C 0.65547 0.429 0.53882 0.0
C1062 C 0.65723 0.45152 0.52886 0.0
C1063 C 0.67383 0.41318 0.53679 0.0
C1064 C 0.69491 0.41901 0.52466 0.0
H1065 H 0.63989 0.42366 0.5487 0.0
H1066 H 0.67142 0.39619 0.54506 0.0
S1067 S 0.70809 0.47554 0.49452 0.0
N1068 N 0.68145 0.47874 0.50577 0.0
N1069 N 0.71617 0.44896 0.50203 0.0
C1070 C 0.69686 0.44141 0.51434 0.0
C1071 C 0.67805 0.45766 0.51648 0.0
C1072 C 0.76441 0.30708 0.41402 0.0
C1073 C 0.74337 0.31377 0.40158 0.0
C1074 C 0.77215 0.3178 0.43572 0.0
C1075 C 0.75923 0.33573 0.44611 0.0
H1076 H 0.77465 0.2929 0.40731 0.0
H1077 H 0.78822 0.31145 0.44464 0.0
S1078 S 0.70407 0.3613 0.41949 0.0
N1079 N 0.71065 0.34071 0.40025 0.0
N1080 N 0.72496 0.36069 0.44125 0.0
C1081 C 0.73857 0.3432 0.43342 0.0
C1082 C 0.73068 0.33224 0.41119 0.0
C1083 C 0.57165 0.01942 0.84802 0.0
C1084 C 0.57821 0.02431 0.87203 0.0
C1085 C 0.58933 0.01706 0.83114 0.0
C1086 C 0.61422 0.01992 0.83756 0.0
H1087 H 0.55272 0.01759 0.84224 0.0
H1088 H 0.5834 0.01373 0.81282 0.0
S1089 S 0.64079 0.03278 0.89824 0.0
N1090 N 0.61128 0.03178 0.90132 0.0
N1091 N 0.64434 0.02735 0.86993 0.0
C1092 C 0.62092 0.02443 0.86162 0.0
C1093 C 0.60299 0.02664 0.87874 0.0
C1094 C 0.3018 0.21545 0.42713 0.0
C1095 C 0.28209 0.22007 0.41153 0.0
C1096 C 0.29835 0.20287 0.44808 0.0
C1097 C 0.27506 0.19464 0.4541 0.0
H1098 H 0.31973 0.22289 0.42391 0.0
H1099 H 0.31369 0.2011 0.4604 0.0
S1100 S 0.21838 0.19808 0.41709 0.0
N1101 N 0.23917 0.21215 0.40187 0.0
N1102 N 0.23266 0.1892 0.44136 0.0
C1103 C 0.25563 0.1975 0.43774 0.0
C1104 C 0.25914 0.21002 0.41642 0.0
C1105 C 0.47153 0.47833 0.84818 0.0
C1106 C 0.46945 0.49416 0.86725 0.0
C1107 C 0.46106 0.48252 0.82572 0.0
C1108 C 0.44782 0.50267 0.82122 0.0
H1109 H 0.48184 0.46276 0.85049 0.0
H1110 H 0.46366 0.46987 0.81167 0.0
S1111 S 0.4358 0.54898 0.86558 0.0
N1112 N 0.45228 0.5303 0.88052 0.0
N1113 N 0.43253 0.53826 0.83824 0.0
C1114 C 0.44502 0.51837 0.84031 0.0
C1115 C 0.45592 0.51415 0.86326 0.0
C1116 C 0.7404 0.72931 0.10318 0.0
C1117 C 0.7421 0.72097 0.12642 0.0
C1118 C 0.74711 0.71561 0.08396 0.0
C1119 C 0.756 0.69299 0.08716 0.0
H1120 H 0.73381 0.74665 0.09979 0.0
H1121 H 0.74579 0.72309 0.06653 0.0
S1122 S 0.76407 0.66302 0.14463 0.0
N1123 N 0.75333 0.68867 0.15165 0.0
N1124 N 0.7659 0.66285 0.1156 0.0
C1125 C 0.75755 0.68432 0.11033 0.0
C1126 C 0.7506 0.69828 0.12991 0.0
C1127 C 0.94275 0.04594 0.14985 0.0
C1128 C 0.96707 0.04008 0.14875 0.0
C1129 C 0.93024 0.04333 0.17075 0.0
C1130 C 0.94151 0.03477 0.19148 0.0
H1131 H 0.93339 0.05301 0.13451 0.0
H1132 H 0.91175 0.04865 0.17076 0.0
S1133 S 1.00501 0.01671 0.19787 0.0
N1134 N 1.00189 0.02505 0.17014 0.0
N1135 N 0.97853 0.02006 0.20932 0.0
C1136 C 0.96565 0.02818 0.1904 0.0
C1137 C 0.97837 0.03084 0.16909 0.0
C1138 C 0.29629 0.80813 0.09601 0.0
C1139 C 0.29275 0.81649 0.11904 0.0
C1140 C 0.29115 0.82186 0.07618 0.0
C1141 C 0.28233 0.84457 0.07855 0.0
H1142 H 0.30198 0.79037 0.09319 0.0
H1143 H 0.29316 0.8141 0.05884 0.0
S1144 S 0.27321 0.87585 0.13531 0.0
N1145 N 0.28231 0.84978 0.14329 0.0
N1146 N 0.27258 0.87563 0.10611 0.0
C1147 C 0.28008 0.85368 0.1016 0.0
C1148 C 0.28526 0.83963 0.12179 0.0
C1149 C 0.07932 0.50704 0.18161 0.0
C1150 C 0.08396 0.4938 0.16121 0.0
C1151 C 0.09758 0.51216 0.19945 0.0
C1152 C 0.12126 0.50467 0.19725 0.0
H1153 H 0.06142 0.5133 0.18386 0.0
H1154 H 0.09325 0.52243 0.21482 0.0
S1155 S 0.14257 0.46954 0.14708 0.0
N1156 N 0.11385 0.47337 0.13988 0.0
N1157 N 0.14802 0.48297 0.173 0.0
C1158 C 0.12599 0.49142 0.17687 0.0
C1159 C 0.10741 0.48601 0.15897 0.0
C1160 C 0.42533 0.74413 0.34634 0.0
C1161 C 0.43149 0.75258 0.32408 0.0
C1162 C 0.44243 0.74431 0.36545 0.0
C1163 C 0.46652 0.75304 0.3632 0.0
H1164 H 0.40707 0.7372 0.34904 0.0
H1165 H 0.43658 0.73763 0.38215 0.0
S1166 S 0.49175 0.7778 0.30858 0.0
N1167 N 0.46322 0.77034 0.30089 0.0
N1168 N 0.49548 0.77055 0.3366 0.0
C1169 C 0.47296 0.76145 0.34091 0.0
C1170 C 0.45547 0.76124 0.32143 0.0
C1171 C 0.01743 0.37281 0.95511 0.0
C1172 C 0.99417 0.37809 0.96197 0.0
C1173 C 0.02171 0.35084 0.94464 0.0
C1174 C 1.00297 0.33322 0.94113 0.0
H1175 H 0.03244 0.3857 0.958 0.0
H1176 H 0.03997 0.34732 0.94012 0.0
S1177 S 0.93873 0.33851 0.95542 0.0
N1178 N 0.95212 0.36411 0.96392 0.0
N1179 N 0.96012 0.32296 0.94453 0.0
C1180 C 0.97957 0.33852 0.94751 0.0
C1181 C 0.97519 0.36089 0.95785 0.0
C1182 C 0.64143 0.79512 0.34713 0.0
C1183 C 0.63375 0.80534 0.3258 0.0
C1184 C 0.62485 0.78743 0.36365 0.0
C1185 C 0.59979 0.78976 0.35971 0.0
H1186 H 0.6605 0.79283 0.35104 0.0
H1187 H 0.63189 0.77962 0.37972 0.0
S1188 S 0.57026 0.8157 0.30665 0.0
N1189 N 0.59942 0.81763 0.30158 0.0
N1190 N 0.56811 0.80319 0.33268 0.0
C1191 C 0.59179 0.80005 0.33844 0.0
C1192 C 0.60878 0.80776 0.32146 0.0
C1193 C 0.05078 0.16543 0.93326 0.0
C1194 C 0.04229 0.16178 0.95603 0.0
C1195 C 0.04837 0.18703 0.92187 0.0
C1196 C 0.03734 0.20594 0.93273 0.0
H1197 H 0.06017 0.15177 0.92448 0.0
H1198 H 0.05587 0.1891 0.90464 0.0
S1199 S 1.01009 0.20462 0.99149 0.0
N1200 N 0.02064 0.17817 0.98825 0.0
N1201 N 0.01672 0.21893 0.96729 0.0
C1202 C 0.02796 0.20218 0.95517 0.0
C1203 C 0.03032 0.18012 0.9667 0.0
C1204 C 0.44236 0.28439 0.21325 0.0
C1205 C 0.41702 0.28513 0.21 0.0
C1206 C 0.4572 0.28193 0.19392 0.0
C1207 C 0.44727 0.27983 0.17054 0.0
H1208 H 0.45078 0.28551 0.23092 0.0
H1209 H 0.47651 0.28102 0.19742 0.0
S1210 S 0.3819 0.28107 0.15247 0.0
N1211 N 0.38272 0.28377 0.18157 0.0
N1212 N 0.41032 0.27943 0.14537 0.0
C1213 C 0.42196 0.28106 0.16708 0.0
C1214 C 0.40694 0.28365 0.18672 0.0
C1215 C 0.52841 0.36831 0.08056 0.0
C1216 C 0.54836 0.37396 0.06679 0.0
C1217 C 0.52497 0.34571 0.09024 0.0
C1218 C 0.54144 0.32802 0.08659 0.0
H1219 H 0.51495 0.38115 0.08313 0.0
H1220 H 0.50882 0.34181 0.09983 0.0
S1221 S 0.59862 0.3355 0.05496 0.0
N1222 N 0.58604 0.36109 0.05218 0.0
N1223 N 0.57996 0.31897 0.07039 0.0
C1224 C 0.5622 0.3341 0.074 0.0
C1225 C 0.56554 0.35694 0.06409 0.0
C1226 C 0.62197 0.23878 0.16764 0.0
C1227 C 0.6168 0.23634 0.19157 0.0
C1228 C 0.60374 0.24278 0.15037 0.0
C1229 C 0.57942 0.24471 0.1562 0.0
H1230 H 0.64026 0.23711 0.16208 0.0
H1231 H 0.60888 0.24429 0.13222 0.0
S1232 S 0.55653 0.24077 0.21674 0.0
N1233 N 0.5858 0.2369 0.2205 0.0
N1234 N 0.55141 0.24448 0.18809 0.0
C1235 C 0.57405 0.24272 0.18022 0.0
C1236 C 0.59271 0.23846 0.19784 0.0
C1237 C 0.48861 0.15657 0.08215 0.0
C1238 C 0.49554 0.15503 0.05858 0.0
C1239 C 0.49175 0.1778 0.0953 0.0
C1240 C 0.50208 0.19842 0.08549 0.0
H1241 H 0.47993 0.14142 0.0903 0.0
H1242 H 0.48553 0.17814 0.11314 0.0
S1243 S 0.52491 0.20327 0.02495 0.0
N1244 N 0.51466 0.17555 0.02649 0.0
N1245 N 0.52007 0.21551 0.05082 0.0
C1246 C 0.50977 0.19691 0.06214 0.0
C1247 C 0.5066 0.17525 0.04879 0.0
C1248 C 0.35729 0.42136 0.72441 0.0
C1249 C 0.33296 0.42485 0.72881 0.0
C1250 C 0.3754 0.43925 0.72884 0.0
C1251 C 0.37008 0.46163 0.7378 0.0
H1252 H 0.36245 0.40454 0.71752 0.0
H1253 H 0.39376 0.43541 0.72498 0.0
S1254 S 0.30893 0.47986 0.75229 0.0
N1255 N 0.30431 0.45231 0.74262 0.0
N1256 N 0.33831 0.48608 0.75105 0.0
C1257 C 0.34574 0.46534 0.74245 0.0
C1258 C 0.32725 0.44694 0.738 0.0
C1259 C 0.33448 0.62779 0.76609 0.0
C1260 C 0.3177 0.62181 0.78315 0.0
C1261 C 0.35234 0.61247 0.76009 0.0
C1262 C 0.35425 0.59032 0.77077 0.0
H1263 H 0.33418 0.64476 0.75762 0.0
H1264 H 0.36487 0.61824 0.74698 0.0
S1265 S 0.31378 0.56559 0.81569 0.0
N1266 N 0.30344 0.5918 0.8101 0.0
N1267 N 0.33705 0.56289 0.79882 0.0
C1268 C 0.33729 0.58387 0.78761 0.0
C1269 C 0.31908 0.59963 0.79382 0.0
C1270 C 0.87657 0.42473 0.50213 0.0
C1271 C 0.87059 0.4466 0.49284 0.0
C1272 C 0.8586 0.40769 0.5077 0.0
C1273 C 0.83378 0.41179 0.50445 0.0
H1274 H 0.89535 0.42046 0.50454 0.0
H1275 H 0.86434 0.39103 0.51445 0.0
S1276 S 0.80854 0.46694 0.48192 0.0
N1277 N 0.83816 0.47197 0.48152 0.0
N1278 N 0.80427 0.44 0.4921 0.0
C1279 C 0.82753 0.43392 0.49578 0.0
C1280 C 0.84592 0.45124 0.48988 0.0
C1281 C 0.72322 0.91955 0.74961 0.0
C1282 C 0.72416 0.90881 0.77183 0.0
C1283 C 0.71102 0.94026 0.7459 0.0
C1284 C 0.69904 0.95121 0.7642 0.0
H1285 H 0.73293 0.91251 0.73514 0.0
H1286 H 0.71165 0.94815 0.72863 0.0
S1287 S 0.69381 0.92881 0.82509 0.0
N1288 N 0.71035 0.90957 0.81195 0.0
N1289 N 0.68741 0.94866 0.80501 0.0
C1290 C 0.6987 0.94 0.7862 0.0
C1291 C 0.71133 0.91886 0.79003 0.0
C1292 C 0.687 0.58558 0.99991 0.0
C1293 C 0.66325 0.58902 1.00668 0.0
C1294 C 0.70605 0.60252 1.00544 0.0
C1295 C 0.70198 0.62355 0.01786 0.0
H1296 H 0.6907 0.57012 0.9895 0.0
H1297 H 0.72382 0.59955 0.99915 0.0
S1298 S 0.64394 0.63909 0.04286 0.0
N1299 N 0.63748 0.61365 0.02888 0.0
N1300 N 0.67289 0.64544 0.03901 0.0
C1301 C 0.67857 0.6265 0.02578 0.0
C1302 C 0.65933 0.60928 0.02026 0.0
C1303 C 0.23261 0.59713 0.23804 0.0
C1304 C 0.22759 0.61993 0.2458 0.0
C1305 C 0.21611 0.57789 0.24061 0.0
C1306 C 0.19382 0.58055 0.25111 0.0
H1307 H 0.24984 0.59398 0.23059 0.0
H1308 H 0.22147 0.56064 0.23526 0.0
S1309 S 0.17113 0.63704 0.27268 0.0
N1310 N 0.19815 0.64444 0.26312 0.0
N1311 N 0.16694 0.60833 0.26778 0.0
C1312 C 0.18797 0.60353 0.25773 0.0
C1313 C 0.20487 0.62319 0.2551 0.0
C1314 C 0.88626 0.60598 0.03992 0.0
C1315 C 0.8809 0.58172 0.03592 0.0
C1316 C 0.86839 0.62243 0.03718 0.0
C1317 C 0.84425 0.61547 0.03024 0.0
H1318 H 0.90434 0.6123 0.04591 0.0
H1319 H 0.8736 0.6408 0.04097 0.0
S1320 S 0.82109 0.55412 0.01576 0.0
N1321 N 0.85 0.55158 0.02332 0.0
N1322 N 0.81627 0.58251 0.01824 0.0
C1323 C 0.83873 0.5913 0.02549 0.0
C1324 C 0.85703 0.57446 0.02837 0.0
C1325 C 0.15038 0.92856 0.02721 0.0
C1326 C 0.15541 0.95271 0.02353 0.0
C1327 C 0.16809 0.91208 0.02476 0.0
C1328 C 0.19173 0.91892 0.01845 0.0
H1329 H 0.13273 0.92234 0.03271 0.0
H1330 H 0.1632 0.8938 0.02828 0.0
S1331 S 0.21378 0.97994 1.00515 0.0
N1332 N 0.18538 0.98261 1.01199 0.0
N1333 N 0.21883 0.95163 1.00747 0.0
C1334 C 0.19687 0.94297 0.01403 0.0
C1335 C 0.17873 0.95985 0.01662 0.0
loop_
_geom_bond_atom_site_label_1
_geom_bond_atom_site_label_2
_geom_bond_distance
_geom_bond_site_symmetry_2
_ccdc_geom_bond_type
C0 C1 1.264 . S
C0 C5 1.479 . S
C0 C10 1.465 . S
C1 C0 1.264 . S
C1 C3 1.339 . S
C1 H28 0.931 1_545 S
C2 C3 1.395 . S
C2 C4 1.320 . S
C3 C1 1.339 . S
C3 C2 1.395 . S
C3 H29 0.929 1_545 S
C4 C2 1.320 . S
C4 C5 1.405 . S
C4 H30 0.930 . S
C5 C0 1.479 . S
C5 C4 1.405 . S
C5 H31 0.931 . S
U6 O7 2.454 . S
U6 O8 2.458 1_554 S
U6 C9 2.984 1_554 S
U6 C10 2.847 1_455 S
U6 C23 2.882 1_545 S
U6 O24 2.441 1_455 S
U6 O25 2.420 . S
U6 O26 2.455 1_554 S
U6 O27 2.449 1_545 S
O7 U6 2.454 . S
O7 C9 1.353 1_554 S
O8 U6 2.458 1_556 S
O8 C9 1.286 . S
C9 U6 2.984 1_556 S
C9 O7 1.353 1_556 S
C9 O8 1.286 . S
C9 C11 1.363 . S
C10 C0 1.465 . S
C10 U6 2.847 1_655 S
C10 O24 1.249 . S
C10 O25 1.202 1_655 S
C11 C9 1.363 . S
C11 C13 1.408 . S
C11 C16 1.342 . S
C12 C13 1.310 . S
C12 C15 1.461 . S
C12 H32 0.932 1_455 S
C13 C11 1.408 . S
C13 C12 1.310 . S
C13 H33 0.930 1_455 S
C14 C15 1.474 . S
C14 C16 1.285 . S
C14 H34 0.929 . S
C15 C12 1.461 . S
C15 C14 1.474 . S
C16 C11 1.342 . S
C16 C14 1.285 . S
C16 H35 0.930 . S
C17 C20 1.424 . S
C17 C22 1.245 1_554 S
C17 C23 1.428 . S
C18 C21 1.260 1_556 S
C18 C22 1.477 . S
C18 H36 0.932 . S
C19 C20 1.384 . S
C19 C21 1.479 . S
C19 H37 0.929 . S
C20 C17 1.424 . S
C20 C19 1.384 . S
C20 H38 0.928 . S
C21 C18 1.260 1_554 S
C21 C19 1.479 . S
C22 C17 1.245 1_556 S
C22 C18 1.477 . S
C22 H39 0.932 1_565 S
C23 U6 2.882 1_565 S
C23 C17 1.428 . S
C23 O26 1.301 1_564 S
C23 O27 1.282 . S
O24 U6 2.441 1_655 S
O24 C10 1.249 . S
O25 U6 2.420 . S
O25 C10 1.202 1_455 S
O26 U6 2.455 1_556 S
O26 C23 1.301 1_546 S
O27 U6 2.449 1_565 S
O27 C23 1.282 . S
H28 C1 0.931 1_565 S
H29 C3 0.929 1_565 S
H30 C4 0.930 . S
H31 C5 0.931 . S
H32 C12 0.932 1_655 S
H33 C13 0.930 1_655 S
H34 C14 0.929 . S
H35 C16 0.930 . S
H36 C18 0.932 . S
H37 C19 0.929 . S
H38 C20 0.928 . S
H39 C22 0.932 1_545 S
C40 C41 1.264 . S
C40 C45 1.479 . S
C40 C50 1.465 . S
C41 C40 1.264 . S
C41 C43 1.339 . S
C41 H68 0.931 . S
C42 C43 1.395 . S
C42 C44 1.320 . S
C43 C41 1.339 . S
C43 C42 1.395 . S
C43 H69 0.929 . S
C44 C42 1.320 . S
C44 C45 1.405 . S
C44 H70 0.930 . S
C45 C40 1.479 . S
C45 C44 1.405 . S
C45 H71 0.931 . S
U46 O47 2.454 . S
U46 O48 2.458 . S
U46 C49 2.984 . S
U46 C50 2.847 . S
U46 C63 2.882 . S
U46 O64 2.441 . S
U46 O65 2.420 . S
U46 O66 2.455 . S
U46 O67 2.449 . S
O47 U46 2.454 . S
O47 C49 1.353 . S
O48 U46 2.458 . S
O48 C49 1.286 . S
C49 U46 2.984 . S
C49 O47 1.353 . S
C49 O48 1.286 . S
C49 C51 1.363 . S
C50 C40 1.465 . S
C50 U46 2.847 . S
C50 O64 1.249 . S
C50 O65 1.202 . S
C51 C49 1.363 . S
C51 C53 1.408 . S
C51 C56 1.342 . S
C52 C53 1.310 . S
C52 C55 1.461 . S
C52 H72 0.932 . S
C53 C51 1.408 . S
C53 C52 1.310 . S
C53 H73 0.930 . S
C54 C55 1.474 . S
C54 C56 1.285 . S
C54 H74 0.929 . S
C55 C52 1.461 . S
C55 C54 1.474 . S
C56 C51 1.342 . S
C56 C54 1.285 . S
C56 H75 0.930 . S
C57 C60 1.424 . S
C57 C62 1.245 . S
C57 C63 1.428 . S
C58 C61 1.260 . S
C58 C62 1.477 . S
C58 H76 0.932 . S
C59 C60 1.384 . S
C59 C61 1.479 . S
C59 H77 0.929 . S
C60 C57 1.424 . S
C60 C59 1.384 . S
C60 H78 0.928 . S
C61 C58 1.260 . S
C61 C59 1.479 . S
C62 C57 1.245 . S
C62 C58 1.477 . S
C62 H79 0.932 . S
C63 U46 2.882 . S
C63 C57 1.428 . S
C63 O66 1.301 . S
C63 O67 1.282 . S
O64 U46 2.441 . S
O64 C50 1.249 . S
O65 U46 2.420 . S
O65 C50 1.202 . S
O66 U46 2.455 . S
O66 C63 1.301 . S
O67 U46 2.449 . S
O67 C63 1.282 . S
H68 C41 0.931 . S
H69 C43 0.929 . S
H70 C44 0.930 . S
H71 C45 0.931 . S
H72 C52 0.932 . S
H73 C53 0.930 . S
H74 C54 0.929 . S
H75 C56 0.930 . S
H76 C58 0.932 . S
H77 C59 0.929 . S
H78 C60 0.928 . S
H79 C62 0.932 . S
C80 C81 1.264 1_655 S
C80 C85 1.479 . S
C80 C90 1.465 1_556 S
C81 C80 1.264 1_455 S
C81 C83 1.339 . S
C81 H108 0.931 1_556 S
C82 C83 1.377 1_655 S
C82 C84 1.343 . S
C83 C81 1.339 . S
C83 C82 1.377 1_455 S
C83 H109 0.929 . S
C84 C82 1.343 . S
C84 C85 1.405 . S
C84 H110 0.930 . S
C85 C80 1.479 . S
C85 C84 1.405 . S
C85 H111 0.931 . S
U86 O87 2.454 . S
U86 O88 2.458 . S
U86 C89 2.984 . S
U86 C90 2.847 . S
U86 C103 2.882 1_655 S
U86 O104 2.441 . S
U86 O105 2.420 1_655 S
U86 O106 2.460 . S
U86 O107 2.449 1_655 S
O87 U86 2.454 . S
O87 C89 1.353 . S
O88 U86 2.458 . S
O88 C89 1.286 . S
C89 U86 2.984 . S
C89 O87 1.353 . S
C89 O88 1.286 . S
C89 C91 1.363 . S
C90 C80 1.465 1_554 S
C90 U86 2.847 . S
C90 O104 1.249 . S
C90 O105 1.202 1_655 S
C91 C89 1.363 . S
C91 C93 1.408 . S
C91 C96 1.342 . S
C92 C93 1.310 . S
C92 C95 1.461 . S
C92 H112 0.932 1_554 S
C93 C91 1.408 . S
C93 C92 1.310 . S
C93 H113 0.913 1_554 S
C94 C95 1.474 . S
C94 C96 1.285 . S
C94 H114 0.929 . S
C95 C92 1.461 . S
C95 C94 1.474 . S
C96 C91 1.342 . S
C96 C94 1.285 . S
C96 H115 0.930 . S
C97 C100 1.424 . S
C97 C102 1.245 . S
C97 C103 1.428 . S
C98 C101 1.260 . S
C98 C102 1.477 . S
C98 H116 0.932 . S
C99 C100 1.384 . S
C99 C101 1.479 . S
C99 H117 0.929 . S
C100 C97 1.424 . S
C100 C99 1.384 . S
C100 H118 0.928 . S
C101 C98 1.260 . S
C101 C99 1.479 . S
C102 C97 1.245 . S
C102 C98 1.477 . S
C102 H119 0.932 . S
C103 U86 2.882 1_455 S
C103 C97 1.428 . S
C103 O106 1.287 1_455 S
C103 O107 1.282 . S
O104 U86 2.441 . S
O104 C90 1.249 . S
O105 U86 2.420 1_455 S
O105 C90 1.202 1_455 S
O106 U86 2.460 . S
O106 C103 1.287 1_655 S
O107 U86 2.449 1_455 S
O107 C103 1.282 . S
H108 C81 0.931 1_554 S
H109 C83 0.929 . S
H110 C84 0.930 . S
H111 C85 0.931 . S
H112 C92 0.932 1_556 S
H113 C93 0.913 1_556 S
H114 C94 0.929 . S
H115 C96 0.930 . S
H116 C98 0.932 . S
H117 C99 0.929 . S
H118 C100 0.928 . S
H119 C102 0.932 . S
C120 C121 1.264 . S
C120 C125 1.479 . S
C120 C130 1.465 . S
C121 C120 1.264 . S
C121 C123 1.339 . S
C121 H148 0.931 . S
C122 C123 1.395 . S
C122 C124 1.320 . S
C123 C121 1.339 . S
C123 C122 1.395 . S
C123 H149 0.929 . S
C124 C122 1.320 . S
C124 C125 1.405 . S
C124 H150 0.930 . S
C125 C120 1.479 . S
C125 C124 1.405 . S
C125 H151 0.931 . S
U126 O127 2.454 . S
U126 O128 2.458 . S
U126 C129 2.984 . S
U126 C130 2.847 . S
U126 C143 2.882 . S
U126 O144 2.441 . S
U126 O145 2.420 . S
U126 O146 2.455 . S
U126 O147 2.449 . S
O127 U126 2.454 . S
O127 C129 1.353 . S
O128 U126 2.458 . S
O128 C129 1.286 . S
C129 U126 2.984 . S
C129 O127 1.353 . S
C129 O128 1.286 . S
C129 C131 1.363 . S
C130 C120 1.465 . S
C130 U126 2.847 . S
C130 O144 1.249 . S
C130 O145 1.202 . S
C131 C129 1.363 . S
C131 C133 1.408 . S
C131 C136 1.342 . S
C132 C133 1.310 . S
C132 C135 1.461 . S
C132 H152 0.932 . S
C133 C131 1.408 . S
C133 C132 1.310 . S
C133 H153 0.930 . S
C134 C135 1.474 . S
C134 C136 1.285 . S
C134 H154 0.929 . S
C135 C132 1.461 . S
C135 C134 1.474 . S
C136 C131 1.342 . S
C136 C134 1.285 . S
C136 H155 0.930 . S
C137 C140 1.424 . S
C137 C142 1.245 . S
C137 C143 1.428 . S
C138 C141 1.260 . S
C138 C142 1.477 . S
C138 H156 0.932 . S
C139 C140 1.384 . S
C139 C141 1.479 . S
C139 H157 0.929 . S
C140 C137 1.424 . S
C140 C139 1.384 . S
C140 H158 0.928 . S
C141 C138 1.260 . S
C141 C139 1.479 . S
C142 C137 1.245 . S
C142 C138 1.477 . S
C142 H159 0.932 . S
C143 U126 2.882 . S
C143 C137 1.428 . S
C143 O146 1.301 . S
C143 O147 1.282 . S
O144 U126 2.441 . S
O144 C130 1.249 . S
O145 U126 2.420 . S
O145 C130 1.202 . S
O146 U126 2.455 . S
O146 C143 1.301 . S
O147 U126 2.449 . S
O147 C143 1.282 . S
H148 C121 0.931 . S
H149 C123 0.929 . S
H150 C124 0.930 . S
H151 C125 0.931 . S
H152 C132 0.932 . S
H153 C133 0.930 . S
H154 C134 0.929 . S
H155 C136 0.930 . S
H156 C138 0.932 . S
H157 C139 0.929 . S
H158 C140 0.928 . S
H159 C142 0.932 . S
C160 C161 1.264 1_665 S
C160 C165 1.479 . S
C160 C170 1.465 1_655 S
C161 C160 1.264 1_445 S
C161 C163 1.339 1_455 S
C161 H188 0.931 . S
C162 C163 1.395 1_565 S
C162 C164 1.320 . S
C163 C161 1.339 1_655 S
C163 C162 1.395 1_545 S
C163 H189 0.929 . S
C164 C162 1.320 . S
C164 C165 1.405 . S
C164 H190 0.930 . S
C165 C160 1.479 . S
C165 C164 1.405 . S
C165 H191 0.931 . S
U166 O167 2.454 . S
U166 O168 2.458 . S
U166 C169 2.984 . S
U166 C170 2.847 . S
U166 C183 2.882 1_565 S
U166 O184 2.441 . S
U166 O185 2.399 1_565 S
U166 O186 2.455 . S
U166 O187 2.449 1_565 S
O167 U166 2.454 . S
O167 C169 1.353 . S
O168 U166 2.458 . S
O168 C169 1.286 . S
C169 U166 2.984 . S
C169 O167 1.353 . S
C169 O168 1.286 . S
C169 C171 1.363 . S
C170 C160 1.465 1_455 S
C170 U166 2.847 . S
C170 O184 1.249 . S
C170 O185 1.178 1_565 S
C171 C169 1.363 . S
C171 C173 1.408 . S
C171 C176 1.342 . S
C172 C173 1.310 . S
C172 C175 1.461 . S
C172 H192 0.936 . S
C173 C171 1.408 . S
C173 C172 1.310 . S
C173 H193 0.930 . S
C174 C175 1.474 . S
C174 C176 1.285 . S
C174 H194 0.929 . S
C175 C172 1.461 . S
C175 C174 1.474 . S
C176 C171 1.342 . S
C176 C174 1.285 . S
C176 H195 0.930 . S
C177 C180 1.424 . S
C177 C182 1.245 . S
C177 C183 1.428 . S
C178 C181 1.260 . S
C178 C182 1.477 . S
C178 H196 0.932 . S
C179 C180 1.384 . S
C179 C181 1.479 . S
C179 H197 0.929 . S
C180 C177 1.424 . S
C180 C179 1.384 . S
C180 H198 0.928 . S
C181 C178 1.260 . S
C181 C179 1.479 . S
C182 C177 1.245 . S
C182 C178 1.477 . S
C182 H199 0.932 . S
C183 U166 2.882 1_545 S
C183 C177 1.428 . S
C183 O186 1.301 1_545 S
C183 O187 1.282 . S
O184 U166 2.441 . S
O184 C170 1.249 . S
O185 U166 2.399 1_545 S
O185 C170 1.178 1_545 S
O186 U166 2.455 . S
O186 C183 1.301 1_565 S
O187 U166 2.449 1_545 S
O187 C183 1.282 . S
H188 C161 0.931 . S
H189 C163 0.929 . S
H190 C164 0.930 . S
H191 C165 0.931 . S
H192 C172 0.936 . S
H193 C173 0.930 . S
H194 C174 0.929 . S
H195 C176 0.930 . S
H196 C178 0.932 . S
H197 C179 0.929 . S
H198 C180 0.928 . S
H199 C182 0.932 . S
C200 C201 1.264 . S
C200 C205 1.479 . S
C200 C210 1.465 . S
C201 C200 1.264 . S
C201 C203 1.339 . S
C201 H228 0.931 . S
C202 C203 1.395 . S
C202 C204 1.320 . S
C203 C201 1.339 . S
C203 C202 1.395 . S
C203 H229 0.929 . S
C204 C202 1.320 . S
C204 C205 1.405 . S
C204 H230 0.930 . S
C205 C200 1.479 . S
C205 C204 1.405 . S
C205 H231 0.931 . S
U206 O207 2.454 . S
U206 O208 2.458 . S
U206 C209 2.984 . S
U206 C210 2.847 . S
U206 C223 2.882 . S
U206 O224 2.441 . S
U206 O225 2.420 . S
U206 O226 2.455 . S
U206 O227 2.449 . S
O207 U206 2.454 . S
O207 C209 1.353 . S
O208 U206 2.458 . S
O208 C209 1.286 . S
C209 U206 2.984 . S
C209 O207 1.353 . S
C209 O208 1.286 . S
C209 C211 1.363 . S
C210 C200 1.465 . S
C210 U206 2.847 . S
C210 O224 1.249 . S
C210 O225 1.202 . S
C211 C209 1.363 . S
C211 C213 1.408 . S
C211 C216 1.342 . S
C212 C213 1.310 . S
C212 C215 1.461 . S
C212 H232 0.932 . S
C213 C211 1.408 . S
C213 C212 1.310 . S
C213 H233 0.930 . S
C214 C215 1.474 . S
C214 C216 1.285 . S
C214 H234 0.929 . S
C215 C212 1.461 . S
C215 C214 1.474 . S
C216 C211 1.342 . S
C216 C214 1.285 . S
C216 H235 0.930 . S
C217 C220 1.424 . S
C217 C222 1.245 . S
C217 C223 1.428 . S
C218 C221 1.260 . S
C218 C222 1.477 . S
C218 H236 0.932 . S
C219 C220 1.384 . S
C219 C221 1.479 . S
C219 H237 0.929 . S
C220 C217 1.424 . S
C220 C219 1.384 . S
C220 H238 0.928 . S
C221 C218 1.260 . S
C221 C219 1.479 . S
C222 C217 1.245 . S
C222 C218 1.477 . S
C222 H239 0.932 . S
C223 U206 2.882 . S
C223 C217 1.428 . S
C223 O226 1.301 . S
C223 O227 1.282 . S
O224 U206 2.441 . S
O224 C210 1.249 . S
O225 U206 2.420 . S
O225 C210 1.202 . S
O226 U206 2.455 . S
O226 C223 1.301 . S
O227 U206 2.449 . S
O227 C223 1.282 . S
H228 C201 0.931 . S
H229 C203 0.929 . S
H230 C204 0.930 . S
H231 C205 0.931 . S
H232 C212 0.932 . S
H233 C213 0.930 . S
H234 C214 0.929 . S
H235 C216 0.930 . S
H236 C218 0.932 . S
H237 C219 0.929 . S
H238 C220 0.928 . S
H239 C222 0.932 . S
C240 C241 1.264 1_655 S
C240 C245 1.479 . S
C240 C250 1.465 . S
C241 C240 1.264 1_455 S
C241 C243 1.339 . S
C241 H268 0.931 . S
C242 C243 1.395 1_655 S
C242 C244 1.320 . S
C243 C241 1.339 . S
C243 C242 1.395 1_455 S
C243 H269 0.929 . S
C244 C242 1.320 . S
C244 C245 1.405 . S
C244 H270 0.930 . S
C245 C240 1.479 . S
C245 C244 1.405 . S
C245 H271 0.931 . S
U246 O247 2.454 . S
U246 O248 2.458 . S
U246 C249 2.984 . S
U246 C250 2.847 . S
U246 C263 2.882 1_655 S
U246 O264 2.441 . S
U246 O265 2.420 . S
U246 O266 2.455 . S
U246 O267 2.449 1_655 S
O247 U246 2.454 . S
O247 C249 1.353 . S
O248 U246 2.458 . S
O248 C249 1.286 . S
C249 U246 2.984 . S
C249 O247 1.353 . S
C249 O248 1.286 . S
C249 C251 1.363 . S
C250 C240 1.465 . S
C250 U246 2.847 . S
C250 O264 1.249 . S
C250 O265 1.202 . S
C251 C249 1.363 . S
C251 C253 1.408 . S
C251 C256 1.342 . S
C252 C253 1.310 . S
C252 C255 1.461 . S
C252 H272 0.932 . S
C253 C251 1.408 . S
C253 C252 1.310 . S
C253 H273 0.930 . S
C254 C255 1.474 . S
C254 C256 1.285 . S
C254 H274 0.929 . S
C255 C252 1.461 . S
C255 C254 1.474 . S
C256 C251 1.342 . S
C256 C254 1.285 . S
C256 H275 0.930 . S
C257 C260 1.424 . S
C257 C262 1.245 . S
C257 C263 1.428 . S
C258 C261 1.260 . S
C258 C262 1.477 . S
C258 H276 0.932 . S
C259 C260 1.384 . S
C259 C261 1.479 . S
C259 H277 0.929 . S
C260 C257 1.424 . S
C260 C259 1.384 . S
C260 H278 0.928 . S
C261 C258 1.260 . S
C261 C259 1.479 . S
C262 C257 1.245 . S
C262 C258 1.477 . S
C262 H279 0.931 1_455 S
C263 U246 2.882 1_455 S
C263 C257 1.428 . S
C263 O266 1.301 1_455 S
C263 O267 1.282 . S
O264 U246 2.441 . S
O264 C250 1.249 . S
O265 U246 2.420 . S
O265 C250 1.202 . S
O266 U246 2.455 . S
O266 C263 1.301 1_655 S
O267 U246 2.449 1_455 S
O267 C263 1.282 . S
H268 C241 0.931 . S
H269 C243 0.929 . S
H270 C244 0.930 . S
H271 C245 0.931 . S
H272 C252 0.932 . S
H273 C253 0.930 . S
H274 C254 0.929 . S
H275 C256 0.930 . S
H276 C258 0.932 . S
H277 C259 0.929 . S
H278 C260 0.928 . S
H279 C262 0.931 1_655 S
C280 C281 1.264 . S
C280 C285 1.479 . S
C280 C290 1.465 . S
C281 C280 1.264 . S
C281 C283 1.339 . S
C281 H308 0.931 . S
C282 C283 1.395 . S
C282 C284 1.320 . S
C283 C281 1.339 . S
C283 C282 1.395 . S
C283 H309 0.929 . S
C284 C282 1.320 . S
C284 C285 1.405 . S
C284 H310 0.930 . S
C285 C280 1.479 . S
C285 C284 1.405 . S
C285 H311 0.931 . S
U286 O287 2.454 . S
U286 O288 2.458 . S
U286 C289 2.984 . S
U286 C290 2.847 . S
U286 C303 2.882 . S
U286 O304 2.441 . S
U286 O305 2.420 . S
U286 O306 2.455 . S
U286 O307 2.449 . S
O287 U286 2.454 . S
O287 C289 1.353 . S
O288 U286 2.458 . S
O288 C289 1.286 . S
C289 U286 2.984 . S
C289 O287 1.353 . S
C289 O288 1.286 . S
C289 C291 1.363 . S
C290 C280 1.465 . S
C290 U286 2.847 . S
C290 O304 1.249 . S
C290 O305 1.202 . S
C291 C289 1.363 . S
C291 C293 1.408 . S
C291 C296 1.342 . S
C292 C293 1.310 . S
C292 C295 1.461 . S
C292 H312 0.932 . S
C293 C291 1.408 . S
C293 C292 1.310 . S
C293 H313 0.930 . S
C294 C295 1.474 . S
C294 C296 1.285 . S
C294 H314 0.929 . S
C295 C292 1.461 . S
C295 C294 1.474 . S
C296 C291 1.342 . S
C296 C294 1.285 . S
C296 H315 0.930 . S
C297 C300 1.424 . S
C297 C302 1.245 . S
C297 C303 1.428 . S
C298 C301 1.260 . S
C298 C302 1.477 . S
C298 H316 0.932 . S
C299 C300 1.384 . S
C299 C301 1.479 . S
C299 H317 0.929 . S
C300 C297 1.424 . S
C300 C299 1.384 . S
C300 H318 0.928 . S
C301 C298 1.260 . S
C301 C299 1.479 . S
C302 C297 1.245 . S
C302 C298 1.477 . S
C302 H319 0.932 . S
C303 U286 2.882 . S
C303 C297 1.428 . S
C303 O306 1.301 . S
C303 O307 1.282 . S
O304 U286 2.441 . S
O304 C290 1.249 . S
O305 U286 2.420 . S
O305 C290 1.202 . S
O306 U286 2.455 . S
O306 C303 1.301 . S
O307 U286 2.449 . S
O307 C303 1.282 . S
H308 C281 0.931 . S
H309 C283 0.929 . S
H310 C284 0.930 . S
H311 C285 0.931 . S
H312 C292 0.932 . S
H313 C293 0.930 . S
H314 C294 0.929 . S
H315 C296 0.930 . S
H316 C298 0.932 . S
H317 C299 0.929 . S
H318 C300 0.928 . S
H319 C302 0.932 . S
C320 C321 1.264 . S
C320 C325 1.479 . S
C320 C330 1.465 . S
C321 C320 1.264 . S
C321 C323 1.339 . S
C321 H348 0.931 . S
C322 C323 1.395 . S
C322 C324 1.320 . S
C323 C321 1.339 . S
C323 C322 1.395 . S
C323 H349 0.929 . S
C324 C322 1.320 . S
C324 C325 1.405 . S
C324 H350 0.930 . S
C325 C320 1.479 . S
C325 C324 1.405 . S
C325 H351 0.931 . S
U326 O327 2.454 . S
U326 O328 2.458 . S
U326 C329 2.984 . S
U326 C330 2.847 . S
U326 C343 2.882 . S
U326 O344 2.441 . S
U326 O345 2.420 . S
U326 O346 2.455 . S
U326 O347 2.449 . S
O327 U326 2.454 . S
O327 C329 1.353 . S
O328 U326 2.458 . S
O328 C329 1.286 . S
C329 U326 2.984 . S
C329 O327 1.353 . S
C329 O328 1.286 . S
C329 C331 1.363 . S
C330 C320 1.465 . S
C330 U326 2.847 . S
C330 O344 1.249 . S
C330 O345 1.202 . S
C331 C329 1.363 . S
C331 C333 1.408 . S
C331 C336 1.342 . S
C332 C333 1.310 . S
C332 C335 1.461 . S
C332 H352 0.932 . S
C333 C331 1.408 . S
C333 C332 1.310 . S
C333 H353 0.930 . S
C334 C335 1.474 . S
C334 C336 1.285 . S
C334 H354 0.929 . S
C335 C332 1.461 . S
C335 C334 1.474 . S
C336 C331 1.342 . S
C336 C334 1.285 . S
C336 H355 0.930 . S
C337 C340 1.424 . S
C337 C342 1.245 . S
C337 C343 1.428 . S
C338 C341 1.260 . S
C338 C342 1.477 . S
C338 H356 0.932 . S
C339 C340 1.384 . S
C339 C341 1.479 . S
C339 H357 0.929 . S
C340 C337 1.424 . S
C340 C339 1.384 . S
C340 H358 0.928 . S
C341 C338 1.260 . S
C341 C339 1.479 . S
C342 C337 1.245 . S
C342 C338 1.477 . S
C342 H359 0.932 . S
C343 U326 2.882 . S
C343 C337 1.428 . S
C343 O346 1.301 . S
C343 O347 1.282 . S
O344 U326 2.441 . S
O344 C330 1.249 . S
O345 U326 2.420 . S
O345 C330 1.202 . S
O346 U326 2.455 . S
O346 C343 1.301 . S
O347 U326 2.449 . S
O347 C343 1.282 . S
H348 C321 0.931 . S
H349 C323 0.929 . S
H350 C324 0.930 . S
H351 C325 0.931 . S
H352 C332 0.932 . S
H353 C333 0.930 . S
H354 C334 0.929 . S
H355 C336 0.930 . S
H356 C338 0.932 . S
H357 C339 0.929 . S
H358 C340 0.928 . S
H359 C342 0.932 . S
C360 C361 1.264 . S
C360 C365 1.479 . S
C360 C370 1.465 . S
C361 C360 1.264 . S
C361 C363 1.339 . S
C361 H388 0.931 . S
C362 C363 1.395 . S
C362 C364 1.320 . S
C363 C361 1.339 . S
C363 C362 1.395 . S
C363 H389 0.929 . S
C364 C362 1.320 . S
C364 C365 1.405 . S
C364 H390 0.930 . S
C365 C360 1.479 . S
C365 C364 1.405 . S
C365 H391 0.931 . S
U366 O367 2.454 . S
U366 O368 2.458 1_565 S
U366 C369 2.984 1_565 S
U366 C370 2.847 . S
U366 C383 2.882 . S
U366 O384 2.441 . S
U366 O385 2.420 . S
U366 O386 2.455 . S
U366 O387 2.449 . S
O367 U366 2.454 . S
O367 C369 1.353 1_565 S
O368 U366 2.458 1_545 S
O368 C369 1.286 . S
C369 U366 2.984 1_545 S
C369 O367 1.353 1_545 S
C369 O368 1.286 . S
C369 C371 1.363 . S
C370 C360 1.465 . S
C370 U366 2.847 . S
C370 O384 1.249 . S
C370 O385 1.202 . S
C371 C369 1.363 . S
C371 C373 1.408 . S
C371 C376 1.342 . S
C372 C373 1.310 . S
C372 C375 1.461 . S
C372 H392 0.932 . S
C373 C371 1.408 . S
C373 C372 1.310 . S
C373 H393 0.964 . S
C374 C375 1.474 . S
C374 C376 1.285 . S
C374 H394 0.929 . S
C375 C372 1.461 . S
C375 C374 1.474 . S
C376 C371 1.342 . S
C376 C374 1.285 . S
C376 H395 0.930 . S
C377 C380 1.424 . S
C377 C382 1.245 . S
C377 C383 1.428 . S
C378 C381 1.260 . S
C378 C382 1.477 . S
C378 H396 0.932 1_565 S
C379 C380 1.384 . S
C379 C381 1.479 . S
C379 H397 0.929 . S
C380 C377 1.424 . S
C380 C379 1.384 . S
C380 H398 0.928 . S
C381 C378 1.260 . S
C381 C379 1.479 . S
C382 C377 1.245 . S
C382 C378 1.477 . S
C382 H399 0.932 1_565 S
C383 U366 2.882 . S
C383 C377 1.428 . S
C383 O386 1.301 . S
C383 O387 1.282 . S
O384 U366 2.441 . S
O384 C370 1.249 . S
O385 U366 2.420 . S
O385 C370 1.202 . S
O386 U366 2.455 . S
O386 C383 1.301 . S
O387 U366 2.449 . S
O387 C383 1.282 . S
H388 C361 0.931 . S
H389 C363 0.929 . S
H390 C364 0.930 . S
H391 C365 0.931 . S
H392 C372 0.932 . S
H393 C373 0.964 . S
H394 C374 0.929 . S
H395 C376 0.930 . S
H396 C378 0.932 1_545 S
H397 C379 0.929 . S
H398 C380 0.928 . S
H399 C382 0.932 1_545 S
C400 C401 1.264 . S
C400 C405 1.479 . S
C400 C410 1.465 . S
C401 C400 1.264 . S
C401 C403 1.339 . S
C401 H428 0.931 . S
C402 C403 1.395 . S
C402 C404 1.320 . S
C403 C401 1.339 . S
C403 C402 1.395 . S
C403 H429 0.929 . S
C404 C402 1.320 . S
C404 C405 1.405 . S
C404 H430 0.930 . S
C405 C400 1.479 . S
C405 C404 1.405 . S
C405 H431 0.931 . S
U406 O407 2.454 . S
U406 O408 2.458 . S
U406 C409 2.984 . S
U406 C410 2.847 . S
U406 C423 2.882 . S
U406 O424 2.441 . S
U406 O425 2.420 . S
U406 O426 2.455 . S
U406 O427 2.449 . S
O407 U406 2.454 . S
O407 C409 1.353 . S
O408 U406 2.458 . S
O408 C409 1.286 . S
C409 U406 2.984 . S
C409 O407 1.353 . S
C409 O408 1.286 . S
C409 C411 1.363 . S
C410 C400 1.465 . S
C410 U406 2.847 . S
C410 O424 1.249 . S
C410 O425 1.202 . S
C411 C409 1.363 . S
C411 C413 1.408 . S
C411 C416 1.342 . S
C412 C413 1.310 . S
C412 C415 1.461 . S
C412 H432 0.932 . S
C413 C411 1.408 . S
C413 C412 1.310 . S
C413 H433 0.930 . S
C414 C415 1.474 . S
C414 C416 1.285 . S
C414 H434 0.929 . S
C415 C412 1.461 . S
C415 C414 1.474 . S
C416 C411 1.342 . S
C416 C414 1.285 . S
C416 H435 0.930 . S
C417 C420 1.424 . S
C417 C422 1.245 . S
C417 C423 1.428 . S
C418 C421 1.260 . S
C418 C422 1.477 . S
C418 H436 0.932 . S
C419 C420 1.384 . S
C419 C421 1.479 . S
C419 H437 0.929 . S
C420 C417 1.424 . S
C420 C419 1.384 . S
C420 H438 0.928 . S
C421 C418 1.260 . S
C421 C419 1.479 . S
C422 C417 1.245 . S
C422 C418 1.477 . S
C422 H439 0.932 . S
C423 U406 2.882 . S
C423 C417 1.428 . S
C423 O426 1.301 . S
C423 O427 1.282 . S
O424 U406 2.441 . S
O424 C410 1.249 . S
O425 U406 2.420 . S
O425 C410 1.202 . S
O426 U406 2.455 . S
O426 C423 1.301 . S
O427 U406 2.449 . S
O427 C423 1.282 . S
H428 C401 0.931 . S
H429 C403 0.929 . S
H430 C404 0.930 . S
H431 C405 0.931 . S
H432 C412 0.932 . S
H433 C413 0.930 . S
H434 C414 0.929 . S
H435 C416 0.930 . S
H436 C418 0.932 . S
H437 C419 0.929 . S
H438 C420 0.928 . S
H439 C422 0.932 . S
C440 C441 1.264 . S
C440 C445 1.479 . S
C440 C450 1.465 . S
C441 C440 1.264 . S
C441 C443 1.339 . S
C441 H468 0.931 . S
C442 C443 1.395 . S
C442 C444 1.320 . S
C443 C441 1.339 . S
C443 C442 1.395 . S
C443 H469 0.929 . S
C444 C442 1.320 . S
C444 C445 1.405 . S
C444 H470 0.930 . S
C445 C440 1.479 . S
C445 C444 1.405 . S
C445 H471 0.931 . S
U446 O447 2.454 . S
U446 O448 2.458 . S
U446 C449 2.984 . S
U446 C450 2.847 . S
U446 C463 2.882 . S
U446 O464 2.441 . S
U446 O465 2.420 . S
U446 O466 2.455 . S
U446 O467 2.449 . S
O447 U446 2.454 . S
O447 C449 1.353 . S
O448 U446 2.458 . S
O448 C449 1.286 . S
C449 U446 2.984 . S
C449 O447 1.353 . S
C449 O448 1.286 . S
C449 C451 1.363 . S
C450 C440 1.465 . S
C450 U446 2.847 . S
C450 O464 1.249 . S
C450 O465 1.202 . S
C451 C449 1.363 . S
C451 C453 1.408 . S
C451 C456 1.342 . S
C452 C453 1.310 . S
C452 C455 1.461 . S
C452 H472 0.932 . S
C453 C451 1.408 . S
C453 C452 1.310 . S
C453 H473 0.930 . S
C454 C455 1.474 . S
C454 C456 1.285 . S
C454 H474 0.929 . S
C455 C452 1.461 . S
C455 C454 1.474 . S
C456 C451 1.342 . S
C456 C454 1.285 . S
C456 H475 0.930 . S
C457 C460 1.424 . S
C457 C462 1.245 . S
C457 C463 1.428 . S
C458 C461 1.260 . S
C458 C462 1.477 . S
C458 H476 0.932 . S
C459 C460 1.384 . S
C459 C461 1.479 . S
C459 H477 0.929 . S
C460 C457 1.424 . S
C460 C459 1.384 . S
C460 H478 0.928 . S
C461 C458 1.260 . S
C461 C459 1.479 . S
C462 C457 1.245 . S
C462 C458 1.477 . S
C462 H479 0.932 . S
C463 U446 2.882 . S
C463 C457 1.428 . S
C463 O466 1.301 . S
C463 O467 1.282 . S
O464 U446 2.441 . S
O464 C450 1.249 . S
O465 U446 2.420 . S
O465 C450 1.202 . S
O466 U446 2.455 . S
O466 C463 1.301 . S
O467 U446 2.449 . S
O467 C463 1.282 . S
H468 C441 0.931 . S
H469 C443 0.929 . S
H470 C444 0.930 . S
H471 C445 0.931 . S
H472 C452 0.932 . S
H473 C453 0.930 . S
H474 C454 0.929 . S
H475 C456 0.930 . S
H476 C458 0.932 . S
H477 C459 0.929 . S
H478 C460 0.928 . S
H479 C462 0.932 . S
C480 C481 1.264 . S
C480 C485 1.479 . S
C480 C490 1.465 . S
C481 C480 1.264 . S
C481 C483 1.339 . S
C481 H508 0.931 . S
C482 C483 1.395 . S
C482 C484 1.320 . S
C483 C481 1.339 . S
C483 C482 1.395 . S
C483 H509 0.929 . S
C484 C482 1.320 . S
C484 C485 1.405 . S
C484 H510 0.930 . S
C485 C480 1.479 . S
C485 C484 1.405 . S
C485 H511 0.931 . S
U486 O487 2.454 . S
U486 O488 2.458 . S
U486 C489 2.984 . S
U486 C490 2.847 . S
U486 C503 2.882 . S
U486 O504 2.441 . S
U486 O505 2.420 . S
U486 O506 2.455 . S
U486 O507 2.449 . S
O487 U486 2.454 . S
O487 C489 1.353 . S
O488 U486 2.458 . S
O488 C489 1.286 . S
C489 U486 2.984 . S
C489 O487 1.353 . S
C489 O488 1.286 . S
C489 C491 1.363 . S
C490 C480 1.465 . S
C490 U486 2.847 . S
C490 O504 1.249 . S
C490 O505 1.202 . S
C491 C489 1.363 . S
C491 C493 1.408 . S
C491 C496 1.342 . S
C492 C493 1.310 . S
C492 C495 1.461 . S
C492 H512 0.932 . S
C493 C491 1.408 . S
C493 C492 1.310 . S
C493 H513 0.930 . S
C494 C495 1.474 . S
C494 C496 1.285 . S
C494 H514 0.929 . S
C495 C492 1.461 . S
C495 C494 1.474 . S
C496 C491 1.342 . S
C496 C494 1.285 . S
C496 H515 0.930 . S
C497 C500 1.424 . S
C497 C502 1.245 . S
C497 C503 1.428 . S
C498 C501 1.260 . S
C498 C502 1.477 . S
C498 H516 0.932 . S
C499 C500 1.384 . S
C499 C501 1.479 . S
C499 H517 0.929 . S
C500 C497 1.424 . S
C500 C499 1.384 . S
C500 H518 0.928 . S
C501 C498 1.260 . S
C501 C499 1.479 . S
C502 C497 1.245 . S
C502 C498 1.477 . S
C502 H519 0.932 . S
C503 U486 2.882 . S
C503 C497 1.428 . S
C503 O506 1.301 . S
C503 O507 1.282 . S
O504 U486 2.441 . S
O504 C490 1.249 . S
O505 U486 2.420 . S
O505 C490 1.202 . S
O506 U486 2.455 . S
O506 C503 1.301 . S
O507 U486 2.449 . S
O507 C503 1.282 . S
H508 C481 0.931 . S
H509 C483 0.929 . S
H510 C484 0.930 . S
H511 C485 0.931 . S
H512 C492 0.932 . S
H513 C493 0.930 . S
H514 C494 0.929 . S
H515 C496 0.930 . S
H516 C498 0.932 . S
H517 C499 0.929 . S
H518 C500 0.928 . S
H519 C502 0.932 . S
C520 C521 1.264 . S
C520 C525 1.479 . S
C520 C530 1.465 . S
C521 C520 1.264 . S
C521 C523 1.339 . S
C521 H548 0.931 . S
C522 C523 1.395 . S
C522 C524 1.320 . S
C523 C521 1.339 . S
C523 C522 1.395 . S
C523 H549 0.929 . S
C524 C522 1.320 . S
C524 C525 1.405 . S
C524 H550 0.930 . S
C525 C520 1.479 . S
C525 C524 1.405 . S
C525 H551 0.931 . S
U526 O527 2.454 . S
U526 O528 2.442 1_556 S
U526 C529 2.984 . S
U526 C530 2.847 . S
U526 C543 2.882 . S
U526 O544 2.441 . S
U526 O545 2.420 . S
U526 O546 2.455 . S
U526 O547 2.449 . S
O527 U526 2.454 . S
O527 C529 1.353 . S
O528 U526 2.442 1_554 S
O528 C529 1.285 1_554 S
C529 U526 2.984 . S
C529 O527 1.353 . S
C529 O528 1.285 1_556 S
C529 C531 1.363 1_556 S
C530 C520 1.465 . S
C530 U526 2.847 . S
C530 O544 1.249 . S
C530 O545 1.202 . S
C531 C529 1.363 1_554 S
C531 C533 1.408 . S
C531 C536 1.342 . S
C532 C533 1.310 . S
C532 C535 1.461 . S
C532 H552 0.932 . S
C533 C531 1.408 . S
C533 C532 1.310 . S
C533 H553 0.930 1_554 S
C534 C535 1.474 . S
C534 C536 1.285 . S
C534 H554 0.929 . S
C535 C532 1.461 . S
C535 C534 1.474 . S
C536 C531 1.342 . S
C536 C534 1.285 . S
C536 H555 0.930 . S
C537 C540 1.424 . S
C537 C542 1.253 . S
C537 C543 1.428 . S
C538 C541 1.238 1_554 S
C538 C542 1.478 1_554 S
C538 H556 0.958 . S
C539 C540 1.384 . S
C539 C541 1.479 . S
C539 H557 0.929 . S
C540 C537 1.424 . S
C540 C539 1.384 . S
C540 H558 0.928 . S
C541 C538 1.238 1_556 S
C541 C539 1.479 . S
C542 C537 1.253 . S
C542 C538 1.478 1_556 S
C542 H559 0.924 1_556 S
C543 U526 2.882 . S
C543 C537 1.428 . S
C543 O546 1.301 . S
C543 O547 1.282 . S
O544 U526 2.441 . S
O544 C530 1.249 . S
O545 U526 2.420 . S
O545 C530 1.202 . S
O546 U526 2.455 . S
O546 C543 1.301 . S
O547 U526 2.449 . S
O547 C543 1.282 . S
H548 C521 0.931 . S
H549 C523 0.929 . S
H550 C524 0.930 . S
H551 C525 0.931 . S
H552 C532 0.932 . S
H553 C533 0.930 1_556 S
H554 C534 0.929 . S
H555 C536 0.930 . S
H556 C538 0.958 . S
H557 C539 0.929 . S
H558 C540 0.928 . S
H559 C542 0.924 1_554 S
C560 C561 1.264 . S
C560 C565 1.479 . S
C560 C570 1.465 . S
C561 C560 1.264 . S
C561 C563 1.339 . S
C561 H588 0.931 . S
C562 C563 1.395 . S
C562 C564 1.320 . S
C563 C561 1.339 . S
C563 C562 1.395 . S
C563 H589 0.929 . S
C564 C562 1.320 . S
C564 C565 1.405 . S
C564 H590 0.930 . S
C565 C560 1.479 . S
C565 C564 1.405 . S
C565 H591 0.931 . S
U566 O567 2.454 . S
U566 O568 2.458 . S
U566 C569 2.984 . S
U566 C570 2.847 . S
U566 C583 2.882 . S
U566 O584 2.441 . S
U566 O585 2.420 . S
U566 O586 2.455 . S
U566 O587 2.449 . S
O567 U566 2.454 . S
O567 C569 1.353 . S
O568 U566 2.458 . S
O568 C569 1.286 . S
C569 U566 2.984 . S
C569 O567 1.353 . S
C569 O568 1.286 . S
C569 C571 1.363 . S
C570 C560 1.465 . S
C570 U566 2.847 . S
C570 O584 1.249 . S
C570 O585 1.202 . S
C571 C569 1.363 . S
C571 C573 1.408 . S
C571 C576 1.342 . S
C572 C573 1.310 . S
C572 C575 1.461 . S
C572 H592 0.932 . S
C573 C571 1.408 . S
C573 C572 1.310 . S
C573 H593 0.930 . S
C574 C575 1.474 . S
C574 C576 1.285 . S
C574 H594 0.929 . S
C575 C572 1.461 . S
C575 C574 1.474 . S
C576 C571 1.342 . S
C576 C574 1.285 . S
C576 H595 0.930 . S
C577 C580 1.424 . S
C577 C582 1.245 . S
C577 C583 1.428 . S
C578 C581 1.260 . S
C578 C582 1.477 . S
C578 H596 0.932 . S
C579 C580 1.384 . S
C579 C581 1.479 . S
C579 H597 0.929 . S
C580 C577 1.424 . S
C580 C579 1.384 . S
C580 H598 0.928 . S
C581 C578 1.260 . S
C581 C579 1.479 . S
C582 C577 1.245 . S
C582 C578 1.477 . S
C582 H599 0.932 . S
C583 U566 2.882 . S
C583 C577 1.428 . S
C583 O586 1.301 . S
C583 O587 1.282 . S
O584 U566 2.441 . S
O584 C570 1.249 . S
O585 U566 2.420 . S
O585 C570 1.202 . S
O586 U566 2.455 . S
O586 C583 1.301 . S
O587 U566 2.449 . S
O587 C583 1.282 . S
H588 C561 0.931 . S
H589 C563 0.929 . S
H590 C564 0.930 . S
H591 C565 0.931 . S
H592 C572 0.932 . S
H593 C573 0.930 . S
H594 C574 0.929 . S
H595 C576 0.930 . S
H596 C578 0.932 . S
H597 C579 0.929 . S
H598 C580 0.928 . S
H599 C582 0.932 . S
C600 C601 1.264 . S
C600 C605 1.479 . S
C600 C610 1.465 . S
C601 C600 1.264 . S
C601 C603 1.339 . S
C601 H628 0.931 . S
C602 C603 1.395 . S
C602 C604 1.320 . S
C603 C601 1.339 . S
C603 C602 1.395 . S
C603 H629 0.929 . S
C604 C602 1.320 . S
C604 C605 1.405 . S
C604 H630 0.930 . S
C605 C600 1.479 . S
C605 C604 1.405 . S
C605 H631 0.931 . S
U606 O607 2.454 . S
U606 O608 2.458 1_545 S
U606 C609 2.984 1_545 S
U606 C610 2.847 1_556 S
U606 C623 2.882 . S
U606 O624 2.441 1_556 S
U606 O625 2.438 . S
U606 O626 2.455 . S
U606 O627 2.449 . S
O607 U606 2.454 . S
O607 C609 1.353 1_545 S
O608 U606 2.458 1_565 S
O608 C609 1.286 . S
C609 U606 2.984 1_565 S
C609 O607 1.353 1_565 S
C609 O608 1.286 . S
C609 C611 1.363 . S
C610 C600 1.465 . S
C610 U606 2.847 1_554 S
C610 O624 1.249 . S
C610 O625 1.174 1_554 S
C611 C609 1.363 . S
C611 C613 1.408 1_556 S
C611 C616 1.342 . S
C612 C613 1.310 . S
C612 C615 1.461 1_554 S
C612 H632 0.932 . S
C613 C611 1.408 1_554 S
C613 C612 1.310 . S
C613 H633 0.930 . S
C614 C615 1.474 . S
C614 C616 1.285 . S
C614 H634 0.929 . S
C615 C612 1.461 1_556 S
C615 C614 1.474 . S
C616 C611 1.342 . S
C616 C614 1.285 . S
C616 H635 0.930 . S
C617 C620 1.424 . S
C617 C622 1.245 1_545 S
C617 C623 1.428 . S
C618 C621 1.260 1_565 S
C618 C622 1.477 . S
C618 H636 0.932 . S
C619 C620 1.384 . S
C619 C621 1.479 . S
C619 H637 0.929 . S
C620 C617 1.424 . S
C620 C619 1.384 . S
C620 H638 0.928 . S
C621 C618 1.260 1_545 S
C621 C619 1.479 . S
C622 C617 1.245 1_565 S
C622 C618 1.477 . S
C622 H639 0.932 . S
C623 U606 2.882 . S
C623 C617 1.428 . S
C623 O626 1.301 . S
C623 O627 1.282 . S
O624 U606 2.441 1_554 S
O624 C610 1.249 . S
O625 U606 2.438 . S
O625 C610 1.174 1_556 S
O626 U606 2.455 . S
O626 C623 1.301 . S
O627 U606 2.449 . S
O627 C623 1.282 . S
H628 C601 0.931 . S
H629 C603 0.929 . S
H630 C604 0.930 . S
H631 C605 0.931 . S
H632 C612 0.932 . S
H633 C613 0.930 . S
H634 C614 0.929 . S
H635 C616 0.930 . S
H636 C618 0.932 . S
H637 C619 0.929 . S
H638 C620 0.928 . S
H639 C622 0.932 . S
Mg640 O641 2.028 . S
Mg640 O647 1.986 1_554 S
Mg640 O649 2.114 . S
Mg640 O650 2.251 . S
Mg640 O653 2.010 . S
O641 Mg640 2.028 . S
O641 C644 1.249 1_554 S
O642 Mg643 2.028 . S
O642 C644 1.248 . S
Mg643 O642 2.028 . S
Mg643 O648 2.032 . S
Mg643 O650 2.079 1_556 S
C644 O641 1.249 1_556 S
C644 O642 1.248 . S
C645 O646 1.264 . S
C645 O653 1.249 . S
O646 C645 1.264 . S
O647 Mg640 1.986 1_556 S
O647 C651 1.246 . S
O648 Mg643 2.032 . S
O648 C651 1.259 . S
O649 Mg640 2.114 . S
O649 C652 1.252 . S
O650 Mg640 2.251 . S
O650 Mg643 2.079 1_554 S
O650 C652 1.273 . S
C651 O647 1.246 . S
C651 O648 1.259 . S
C652 O649 1.252 . S
C652 O650 1.273 . S
O653 Mg640 2.010 . S
O653 C645 1.249 . S
Mg654 O655 2.028 . S
Mg654 O661 1.986 . S
Mg654 O663 2.114 . S
Mg654 O664 2.251 . S
Mg654 O667 2.010 . S
O655 Mg654 2.028 . S
O655 C658 1.250 . S
O656 Mg657 2.028 . S
O656 C658 1.248 . S
Mg657 O656 2.028 . S
Mg657 O662 2.032 . S
Mg657 O664 2.079 . S
C658 O655 1.250 . S
C658 O656 1.248 . S
C659 O660 1.264 . S
C659 O667 1.249 . S
O660 C659 1.264 . S
O661 Mg654 1.986 . S
O661 C665 1.246 . S
O662 Mg657 2.032 . S
O662 C665 1.259 . S
O663 Mg654 2.114 . S
O663 C666 1.252 . S
O664 Mg654 2.251 . S
O664 Mg657 2.079 . S
O664 C666 1.273 . S
C665 O661 1.246 . S
C665 O662 1.259 . S
C666 O663 1.252 . S
C666 O664 1.273 . S
O667 Mg654 2.010 . S
O667 C659 1.249 . S
Mg668 O669 2.033 . S
Mg668 O675 1.986 1_554 S
Mg668 O677 2.114 . S
Mg668 O678 2.251 . S
Mg668 O681 2.010 . S
O669 Mg668 2.033 . S
O669 C672 1.246 1_554 S
O670 Mg671 2.028 . S
O670 C672 1.248 . S
Mg671 O670 2.028 . S
Mg671 O676 2.032 . S
Mg671 O678 2.079 1_556 S
C672 O669 1.246 1_556 S
C672 O670 1.248 . S
C673 O674 1.264 . S
C673 O681 1.249 . S
O674 C673 1.264 . S
O675 Mg668 1.986 1_556 S
O675 C679 1.246 . S
O676 Mg671 2.032 . S
O676 C679 1.259 . S
O677 Mg668 2.114 . S
O677 C680 1.252 . S
O678 Mg668 2.251 . S
O678 Mg671 2.079 1_554 S
O678 C680 1.273 . S
C679 O675 1.246 . S
C679 O676 1.259 . S
C680 O677 1.252 . S
C680 O678 1.273 . S
O681 Mg668 2.010 . S
O681 C673 1.249 . S
Mg682 O683 2.059 . S
Mg682 O689 1.986 . S
Mg682 O691 2.114 . S
Mg682 O692 2.251 . S
Mg682 O695 2.010 . S
O683 Mg682 2.059 . S
O683 C686 1.207 1_545 S
O684 Mg685 2.028 . S
O684 C686 1.248 . S
Mg685 O684 2.028 . S
Mg685 O690 2.032 . S
Mg685 O692 2.079 1_565 S
C686 O683 1.207 1_565 S
C686 O684 1.248 . S
C687 O688 1.264 . S
C687 O695 1.249 . S
O688 C687 1.264 . S
O689 Mg682 1.986 . S
O689 C693 1.246 . S
O690 Mg685 2.032 . S
O690 C693 1.259 1_565 S
O691 Mg682 2.114 . S
O691 C694 1.252 . S
O692 Mg682 2.251 . S
O692 Mg685 2.079 1_545 S
O692 C694 1.273 . S
C693 O689 1.246 . S
C693 O690 1.259 1_545 S
C694 O691 1.252 . S
C694 O692 1.273 . S
O695 Mg682 2.010 . S
O695 C687 1.249 . S
Mg696 O697 2.028 . S
Mg696 O703 1.986 . S
Mg696 O705 2.114 . S
Mg696 O706 2.251 . S
Mg696 O709 2.010 . S
O697 Mg696 2.028 . S
O697 C700 1.250 . S
O698 Mg699 2.028 . S
O698 C700 1.248 . S
Mg699 O698 2.028 . S
Mg699 O704 2.032 . S
Mg699 O706 2.079 . S
C700 O697 1.250 . S
C700 O698 1.248 . S
C701 O702 1.264 . S
C701 O709 1.249 . S
O702 C701 1.264 . S
O703 Mg696 1.986 . S
O703 C707 1.246 . S
O704 Mg699 2.032 . S
O704 C707 1.259 . S
O705 Mg696 2.114 . S
O705 C708 1.252 . S
O706 Mg696 2.251 . S
O706 Mg699 2.079 . S
O706 C708 1.273 . S
C707 O703 1.246 . S
C707 O704 1.259 . S
C708 O705 1.252 . S
C708 O706 1.273 . S
O709 Mg696 2.010 . S
O709 C701 1.249 . S
Mg710 O711 2.028 . S
Mg710 O717 1.986 . S
Mg710 O719 2.114 . S
Mg710 O720 2.251 . S
Mg710 O723 2.010 . S
O711 Mg710 2.028 . S
O711 C714 1.250 . S
O712 Mg713 2.028 . S
O712 C714 1.248 . S
Mg713 O712 2.028 . S
Mg713 O718 2.032 . S
Mg713 O720 2.079 . S
C714 O711 1.250 . S
C714 O712 1.248 . S
C715 O716 1.264 . S
C715 O723 1.249 . S
O716 C715 1.264 . S
O717 Mg710 1.986 . S
O717 C721 1.246 . S
O718 Mg713 2.032 . S
O718 C721 1.259 . S
O719 Mg710 2.114 . S
O719 C722 1.252 . S
O720 Mg710 2.251 . S
O720 Mg713 2.079 . S
O720 C722 1.273 . S
C721 O717 1.246 . S
C721 O718 1.259 . S
C722 O719 1.252 . S
C722 O720 1.273 . S
O723 Mg710 2.010 . S
O723 C715 1.249 . S
Mg724 O725 2.028 . S
Mg724 O731 1.986 . S
Mg724 O733 2.114 . S
Mg724 O734 2.251 . S
Mg724 O737 2.010 . S
O725 Mg724 2.028 . S
O725 C728 1.250 . S
O726 Mg727 2.028 . S
O726 C728 1.248 . S
Mg727 O726 2.028 . S
Mg727 O732 2.032 . S
Mg727 O734 2.079 . S
C728 O725 1.250 . S
C728 O726 1.248 . S
C729 O730 1.264 . S
C729 O737 1.249 . S
O730 C729 1.264 . S
O731 Mg724 1.986 . S
O731 C735 1.246 . S
O732 Mg727 2.032 . S
O732 C735 1.259 . S
O733 Mg724 2.114 . S
O733 C736 1.252 . S
O734 Mg724 2.251 . S
O734 Mg727 2.079 . S
O734 C736 1.273 . S
C735 O731 1.246 . S
C735 O732 1.259 . S
C736 O733 1.252 . S
C736 O734 1.273 . S
O737 Mg724 2.010 . S
O737 C729 1.249 . S
Mg738 O739 2.028 1_545 S
Mg738 O745 1.986 1_545 S
Mg738 O747 2.114 . S
Mg738 O748 2.251 . S
Mg738 O751 2.010 . S
O739 Mg738 2.028 1_565 S
O739 C742 1.250 . S
O740 Mg741 2.028 . S
O740 C742 1.248 . S
Mg741 O740 2.028 . S
Mg741 O746 2.032 . S
Mg741 O748 2.079 1_565 S
C742 O739 1.250 . S
C742 O740 1.248 . S
C743 O744 1.264 . S
C743 O751 1.249 . S
O744 C743 1.264 . S
O745 Mg738 1.986 1_565 S
O745 C749 1.246 . S
O746 Mg741 2.032 . S
O746 C749 1.259 . S
O747 Mg738 2.114 . S
O747 C750 1.252 . S
O748 Mg738 2.251 . S
O748 Mg741 2.079 1_545 S
O748 C750 1.273 . S
C749 O745 1.246 . S
C749 O746 1.259 . S
C750 O747 1.252 . S
C750 O748 1.273 . S
O751 Mg738 2.010 . S
O751 C743 1.249 . S
Mg752 O753 2.028 . S
Mg752 O759 1.986 . S
Mg752 O761 2.114 . S
Mg752 O762 2.251 . S
Mg752 O765 2.010 . S
O753 Mg752 2.028 . S
O753 C756 1.250 1_455 S
O754 Mg755 2.028 . S
O754 C756 1.248 . S
Mg755 O754 2.028 . S
Mg755 O760 2.032 . S
Mg755 O762 2.079 1_655 S
C756 O753 1.250 1_655 S
C756 O754 1.248 . S
C757 O758 1.264 . S
C757 O765 1.249 . S
O758 C757 1.264 . S
O759 Mg752 1.986 . S
O759 C763 1.246 . S
O760 Mg755 2.032 . S
O760 C763 1.259 1_655 S
O761 Mg752 2.114 . S
O761 C764 1.252 . S
O762 Mg752 2.251 . S
O762 Mg755 2.079 1_455 S
O762 C764 1.273 . S
C763 O759 1.246 . S
C763 O760 1.259 1_455 S
C764 O761 1.252 . S
C764 O762 1.273 . S
O765 Mg752 2.010 . S
O765 C757 1.249 . S
Mg766 O767 2.028 . S
Mg766 O773 1.986 . S
Mg766 O775 2.114 . S
Mg766 O776 2.251 . S
Mg766 O779 2.010 . S
O767 Mg766 2.028 . S
O767 C770 1.250 . S
O768 Mg769 2.028 . S
O768 C770 1.248 . S
Mg769 O768 2.028 . S
Mg769 O774 2.032 . S
Mg769 O776 2.079 . S
C770 O767 1.250 . S
C770 O768 1.248 . S
C771 O772 1.264 . S
C771 O779 1.249 . S
O772 C771 1.264 . S
O773 Mg766 1.986 . S
O773 C777 1.246 . S
O774 Mg769 2.032 . S
O774 C777 1.259 . S
O775 Mg766 2.114 . S
O775 C778 1.252 . S
O776 Mg766 2.251 . S
O776 Mg769 2.079 . S
O776 C778 1.273 . S
C777 O773 1.246 . S
C777 O774 1.259 . S
C778 O775 1.252 . S
C778 O776 1.273 . S
O779 Mg766 2.010 . S
O779 C771 1.249 . S
Mg780 O781 2.028 1_655 S
Mg780 O787 1.998 . S
Mg780 O789 2.114 . S
Mg780 O790 2.251 1_655 S
Mg780 O793 2.010 . S
O781 Mg780 2.028 1_455 S
O781 C784 1.250 . S
O782 Mg783 2.028 . S
O782 C784 1.248 . S
Mg783 O782 2.028 . S
Mg783 O788 2.032 . S
Mg783 O790 2.079 . S
C784 O781 1.250 . S
C784 O782 1.248 . S
C785 O786 1.264 . S
C785 O793 1.249 . S
O786 C785 1.264 . S
O787 Mg780 1.998 . S
O787 C791 1.213 1_655 S
O788 Mg783 2.032 . S
O788 C791 1.259 . S
O789 Mg780 2.114 . S
O789 C792 1.252 . S
O790 Mg780 2.251 1_455 S
O790 Mg783 2.079 . S
O790 C792 1.273 1_455 S
C791 O787 1.213 1_455 S
C791 O788 1.259 . S
C792 O789 1.252 . S
C792 O790 1.273 1_655 S
O793 Mg780 2.010 . S
O793 C785 1.249 . S
Mg794 O795 2.028 . S
Mg794 O801 1.986 . S
Mg794 O803 2.114 . S
Mg794 O804 2.251 . S
Mg794 O807 2.010 . S
O795 Mg794 2.028 . S
O795 C798 1.250 . S
O796 Mg797 2.028 . S
O796 C798 1.248 . S
Mg797 O796 2.028 . S
Mg797 O802 2.032 . S
Mg797 O804 2.079 . S
C798 O795 1.250 . S
C798 O796 1.248 . S
C799 O800 1.264 . S
C799 O807 1.249 . S
O800 C799 1.264 . S
O801 Mg794 1.986 . S
O801 C805 1.246 . S
O802 Mg797 2.032 . S
O802 C805 1.259 . S
O803 Mg794 2.114 . S
O803 C806 1.252 . S
O804 Mg794 2.251 . S
O804 Mg797 2.079 . S
O804 C806 1.273 . S
C805 O801 1.246 . S
C805 O802 1.259 . S
C806 O803 1.252 . S
C806 O804 1.273 . S
O807 Mg794 2.010 . S
O807 C799 1.249 . S
C808 C809 1.369 . S
C808 C810 1.419 . S
C808 H812 0.930 . S
C809 C808 1.369 . S
C809 C818 1.429 . S
C810 C808 1.419 . S
C810 C811 1.363 . S
C810 H813 0.929 . S
C811 C810 1.363 . S
C811 C817 1.428 . S
H812 C808 0.930 . S
H813 C810 0.929 . S
S814 N815 1.613 . S
S814 N816 1.610 . S
N815 S814 1.613 . S
N815 C818 1.350 . S
N816 S814 1.610 . S
N816 C817 1.351 . S
C817 C811 1.428 . S
C817 N816 1.351 . S
C817 C818 1.434 . S
C818 C809 1.429 . S
C818 N815 1.350 . S
C818 C817 1.434 . S
C819 C820 1.369 . S
C819 C821 1.419 . S
C819 H823 0.930 . S
C820 C819 1.369 . S
C820 C829 1.429 . S
C821 C819 1.419 . S
C821 C822 1.363 . S
C821 H824 0.929 . S
C822 C821 1.363 . S
C822 C828 1.428 . S
H823 C819 0.930 . S
H824 C821 0.929 . S
S825 N826 1.613 . S
S825 N827 1.610 . S
N826 S825 1.613 . S
N826 C829 1.350 . S
N827 S825 1.610 . S
N827 C828 1.351 . S
C828 C822 1.428 . S
C828 N827 1.351 . S
C828 C829 1.434 . S
C829 C820 1.429 . S
C829 N826 1.350 . S
C829 C828 1.434 . S
C830 C831 1.369 . S
C830 C832 1.419 . S
C830 H834 0.930 . S
C831 C830 1.369 . S
C831 C840 1.429 . S
C832 C830 1.419 . S
C832 C833 1.363 . S
C832 H835 0.929 . S
C833 C832 1.363 . S
C833 C839 1.428 . S
H834 C830 0.930 . S
H835 C832 0.929 . S
S836 N837 1.613 . S
S836 N838 1.610 . S
N837 S836 1.613 . S
N837 C840 1.350 . S
N838 S836 1.610 . S
N838 C839 1.351 . S
C839 C833 1.428 . S
C839 N838 1.351 . S
C839 C840 1.434 . S
C840 C831 1.429 . S
C840 N837 1.350 . S
C840 C839 1.434 . S
C841 C842 1.369 . S
C841 C843 1.419 . S
C841 H845 0.930 . S
C842 C841 1.369 . S
C842 C851 1.429 1_565 S
C843 C841 1.419 . S
C843 C844 1.363 1_565 S
C843 H846 0.929 . S
C844 C843 1.363 1_545 S
C844 C850 1.428 . S
H845 C841 0.930 . S
H846 C843 0.929 . S
S847 N848 1.613 . S
S847 N849 1.610 . S
N848 S847 1.613 . S
N848 C851 1.350 . S
N849 S847 1.610 . S
N849 C850 1.351 . S
C850 C844 1.428 . S
C850 N849 1.351 . S
C850 C851 1.434 . S
C851 C842 1.429 1_545 S
C851 N848 1.350 . S
C851 C850 1.434 . S
C852 C853 1.369 . S
C852 C854 1.419 . S
C852 H856 0.930 . S
C853 C852 1.369 . S
C853 C862 1.429 . S
C854 C852 1.419 . S
C854 C855 1.363 . S
C854 H857 0.929 . S
C855 C854 1.363 . S
C855 C861 1.428 . S
H856 C852 0.930 . S
H857 C854 0.929 . S
S858 N859 1.613 . S
S858 N860 1.610 . S
N859 S858 1.613 . S
N859 C862 1.350 . S
N860 S858 1.610 . S
N860 C861 1.351 . S
C861 C855 1.428 . S
C861 N860 1.351 . S
C861 C862 1.434 . S
C862 C853 1.429 . S
C862 N859 1.350 . S
C862 C861 1.434 . S
C863 C864 1.369 . S
C863 C865 1.419 . S
C863 H867 0.930 . S
C864 C863 1.369 . S
C864 C873 1.429 . S
C865 C863 1.419 . S
C865 C866 1.363 . S
C865 H868 0.929 . S
C866 C865 1.363 . S
C866 C872 1.428 . S
H867 C863 0.930 . S
H868 C865 0.929 . S
S869 N870 1.613 . S
S869 N871 1.610 . S
N870 S869 1.613 . S
N870 C873 1.350 . S
N871 S869 1.610 . S
N871 C872 1.351 . S
C872 C866 1.428 . S
C872 N871 1.351 . S
C872 C873 1.434 . S
C873 C864 1.429 . S
C873 N870 1.350 . S
C873 C872 1.434 . S
C874 C875 1.369 . S
C874 C876 1.419 . S
C874 H878 0.930 . S
C875 C874 1.369 . S
C875 C884 1.429 . S
C876 C874 1.419 . S
C876 C877 1.363 . S
C876 H879 0.929 . S
C877 C876 1.363 . S
C877 C883 1.428 . S
H878 C874 0.930 . S
H879 C876 0.929 . S
S880 N881 1.613 . S
S880 N882 1.610 . S
N881 S880 1.613 . S
N881 C884 1.350 . S
N882 S880 1.610 . S
N882 C883 1.351 . S
C883 C877 1.428 . S
C883 N882 1.351 . S
C883 C884 1.434 . S
C884 C875 1.429 . S
C884 N881 1.350 . S
C884 C883 1.434 . S
C885 C886 1.368 . S
C885 C887 1.419 1_565 S
C885 H889 0.931 1_565 S
C886 C885 1.368 . S
C886 C895 1.429 . S
C887 C885 1.419 1_545 S
C887 C888 1.363 1_545 S
C887 H890 0.929 . S
C888 C887 1.363 1_565 S
C888 C894 1.428 . S
H889 C885 0.931 1_545 S
H890 C887 0.929 . S
S891 N892 1.613 . S
S891 N893 1.610 . S
N892 S891 1.613 . S
N892 C895 1.350 . S
N893 S891 1.610 . S
N893 C894 1.351 . S
C894 C888 1.428 . S
C894 N893 1.351 . S
C894 C895 1.434 . S
C895 C886 1.429 . S
C895 N892 1.350 . S
C895 C894 1.434 . S
C896 C897 1.369 . S
C896 C898 1.419 . S
C896 H900 0.930 . S
C897 C896 1.369 . S
C897 C906 1.429 . S
C898 C896 1.419 . S
C898 C899 1.363 . S
C898 H901 0.929 . S
C899 C898 1.363 . S
C899 C905 1.428 . S
H900 C896 0.930 . S
H901 C898 0.929 . S
S902 N903 1.613 . S
S902 N904 1.610 . S
N903 S902 1.613 . S
N903 C906 1.350 . S
N904 S902 1.610 . S
N904 C905 1.351 . S
C905 C899 1.428 . S
C905 N904 1.351 . S
C905 C906 1.434 . S
C906 C897 1.429 . S
C906 N903 1.350 . S
C906 C905 1.434 . S
C907 C908 1.369 . S
C907 C909 1.419 . S
C907 H911 0.930 . S
C908 C907 1.369 . S
C908 C917 1.429 . S
C909 C907 1.419 . S
C909 C910 1.363 . S
C909 H912 0.929 . S
C910 C909 1.363 . S
C910 C916 1.428 . S
H911 C907 0.930 . S
H912 C909 0.929 . S
S913 N914 1.613 . S
S913 N915 1.610 . S
N914 S913 1.613 . S
N914 C917 1.350 . S
N915 S913 1.610 . S
N915 C916 1.351 . S
C916 C910 1.428 . S
C916 N915 1.351 . S
C916 C917 1.434 . S
C917 C908 1.429 . S
C917 N914 1.350 . S
C917 C916 1.434 . S
C918 C919 1.369 . S
C918 C920 1.419 . S
C918 H922 0.930 . S
C919 C918 1.369 . S
C919 C928 1.429 . S
C920 C918 1.419 . S
C920 C921 1.363 . S
C920 H923 0.929 . S
C921 C920 1.363 . S
C921 C927 1.428 . S
H922 C918 0.930 . S
H923 C920 0.929 . S
S924 N925 1.613 . S
S924 N926 1.610 . S
N925 S924 1.613 . S
N925 C928 1.350 . S
N926 S924 1.610 . S
N926 C927 1.351 . S
C927 C921 1.428 . S
C927 N926 1.351 . S
C927 C928 1.434 . S
C928 C919 1.429 . S
C928 N925 1.350 . S
C928 C927 1.434 . S
C929 C930 1.369 . S
C929 C931 1.419 . S
C929 H933 0.930 . S
C930 C929 1.369 . S
C930 C939 1.429 . S
C931 C929 1.419 . S
C931 C932 1.363 . S
C931 H934 0.929 . S
C932 C931 1.363 . S
C932 C938 1.428 . S
H933 C929 0.930 . S
H934 C931 0.929 . S
S935 N936 1.613 . S
S935 N937 1.610 . S
N936 S935 1.613 . S
N936 C939 1.350 . S
N937 S935 1.610 . S
N937 C938 1.351 . S
C938 C932 1.428 . S
C938 N937 1.351 . S
C938 C939 1.434 . S
C939 C930 1.429 . S
C939 N936 1.350 . S
C939 C938 1.434 . S
C940 C941 1.369 . S
C940 C942 1.419 . S
C940 H944 0.930 . S
C941 C940 1.369 . S
C941 C950 1.429 . S
C942 C940 1.419 . S
C942 C943 1.363 . S
C942 H945 0.929 . S
C943 C942 1.363 . S
C943 C949 1.428 . S
H944 C940 0.930 . S
H945 C942 0.929 . S
S946 N947 1.613 . S
S946 N948 1.610 . S
N947 S946 1.613 . S
N947 C950 1.350 . S
N948 S946 1.610 . S
N948 C949 1.351 . S
C949 C943 1.428 . S
C949 N948 1.351 . S
C949 C950 1.434 . S
C950 C941 1.429 . S
C950 N947 1.350 . S
C950 C949 1.434 . S
C951 C952 1.369 . S
C951 C953 1.419 . S
C951 H955 0.930 . S
C952 C951 1.369 . S
C952 C961 1.429 . S
C953 C951 1.419 . S
C953 C954 1.363 . S
C953 H956 0.929 . S
C954 C953 1.363 . S
C954 C960 1.428 . S
H955 C951 0.930 . S
H956 C953 0.929 . S
S957 N958 1.613 . S
S957 N959 1.610 . S
N958 S957 1.613 . S
N958 C961 1.350 . S
N959 S957 1.610 . S
N959 C960 1.351 . S
C960 C954 1.428 . S
C960 N959 1.351 . S
C960 C961 1.434 . S
C961 C952 1.429 . S
C961 N958 1.350 . S
C961 C960 1.434 . S
C962 C963 1.369 . S
C962 C964 1.419 . S
C962 H966 0.930 . S
C963 C962 1.369 . S
C963 C972 1.429 . S
C964 C962 1.419 . S
C964 C965 1.363 . S
C964 H967 0.929 . S
C965 C964 1.363 . S
C965 C971 1.428 . S
H966 C962 0.930 . S
H967 C964 0.929 . S
S968 N969 1.613 . S
S968 N970 1.610 . S
N969 S968 1.613 . S
N969 C972 1.350 . S
N970 S968 1.610 . S
N970 C971 1.351 . S
C971 C965 1.428 . S
C971 N970 1.351 . S
C971 C972 1.434 . S
C972 C963 1.429 . S
C972 N969 1.350 . S
C972 C971 1.434 . S
C973 C974 1.369 . S
C973 C975 1.419 . S
C973 H977 0.930 . S
C974 C973 1.369 . S
C974 C983 1.429 . S
C975 C973 1.419 . S
C975 C976 1.363 . S
C975 H978 0.929 . S
C976 C975 1.363 . S
C976 C982 1.428 . S
H977 C973 0.930 . S
H978 C975 0.929 . S
S979 N980 1.613 . S
S979 N981 1.610 . S
N980 S979 1.613 . S
N980 C983 1.350 . S
N981 S979 1.610 . S
N981 C982 1.351 . S
C982 C976 1.428 . S
C982 N981 1.351 . S
C982 C983 1.434 . S
C983 C974 1.429 . S
C983 N980 1.350 . S
C983 C982 1.434 . S
C984 C985 1.369 . S
C984 C986 1.419 . S
C984 H988 0.930 . S
C985 C984 1.369 . S
C985 C994 1.429 . S
C986 C984 1.419 . S
C986 C987 1.363 . S
C986 H989 0.929 . S
C987 C986 1.363 . S
C987 C993 1.428 . S
H988 C984 0.930 . S
H989 C986 0.929 . S
S990 N991 1.613 . S
S990 N992 1.610 . S
N991 S990 1.613 . S
N991 C994 1.350 . S
N992 S990 1.610 . S
N992 C993 1.351 . S
C993 C987 1.428 . S
C993 N992 1.351 . S
C993 C994 1.434 . S
C994 C985 1.429 . S
C994 N991 1.350 . S
C994 C993 1.434 . S
C995 C996 1.369 . S
C995 C997 1.419 . S
C995 H999 0.930 . S
C996 C995 1.369 . S
C996 C1005 1.429 . S
C997 C995 1.419 . S
C997 C998 1.363 . S
C997 H1000 0.929 . S
C998 C997 1.363 . S
C998 C1004 1.428 . S
H999 C995 0.930 . S
H1000 C997 0.929 . S
S1001 N1002 1.613 . S
S1001 N1003 1.610 . S
N1002 S1001 1.613 . S
N1002 C1005 1.350 . S
N1003 S1001 1.610 . S
N1003 C1004 1.351 . S
C1004 C998 1.428 . S
C1004 N1003 1.351 . S
C1004 C1005 1.434 . S
C1005 C996 1.429 . S
C1005 N1002 1.350 . S
C1005 C1004 1.434 . S
C1006 C1007 1.369 . S
C1006 C1008 1.419 . S
C1006 H1010 0.930 . S
C1007 C1006 1.369 . S
C1007 C1016 1.429 1_556 S
C1008 C1006 1.419 . S
C1008 C1009 1.363 . S
C1008 H1011 0.929 . S
C1009 C1008 1.363 . S
C1009 C1015 1.428 1_556 S
H1010 C1006 0.930 . S
H1011 C1008 0.929 . S
S1012 N1013 1.613 . S
S1012 N1014 1.610 . S
N1013 S1012 1.613 . S
N1013 C1016 1.350 . S
N1014 S1012 1.610 . S
N1014 C1015 1.351 . S
C1015 C1009 1.428 1_554 S
C1015 N1014 1.351 . S
C1015 C1016 1.434 . S
C1016 C1007 1.429 1_554 S
C1016 N1013 1.350 . S
C1016 C1015 1.434 . S
C1017 C1018 1.369 . S
C1017 C1019 1.419 . S
C1017 H1021 0.930 . S
C1018 C1017 1.369 . S
C1018 C1027 1.429 . S
C1019 C1017 1.419 . S
C1019 C1020 1.363 . S
C1019 H1022 0.929 . S
C1020 C1019 1.363 . S
C1020 C1026 1.428 . S
H1021 C1017 0.930 . S
H1022 C1019 0.929 . S
S1023 N1024 1.613 . S
S1023 N1025 1.610 . S
N1024 S1023 1.613 . S
N1024 C1027 1.350 . S
N1025 S1023 1.610 . S
N1025 C1026 1.351 . S
C1026 C1020 1.428 . S
C1026 N1025 1.351 . S
C1026 C1027 1.434 . S
C1027 C1018 1.429 . S
C1027 N1024 1.350 . S
C1027 C1026 1.434 . S
C1028 C1029 1.369 . S
C1028 C1030 1.419 . S
C1028 H1032 0.930 . S
C1029 C1028 1.369 . S
C1029 C1038 1.429 . S
C1030 C1028 1.419 . S
C1030 C1031 1.363 . S
C1030 H1033 0.929 . S
C1031 C1030 1.363 . S
C1031 C1037 1.428 . S
H1032 C1028 0.930 . S
H1033 C1030 0.929 . S
S1034 N1035 1.613 . S
S1034 N1036 1.610 . S
N1035 S1034 1.613 . S
N1035 C1038 1.350 . S
N1036 S1034 1.610 . S
N1036 C1037 1.351 . S
C1037 C1031 1.428 . S
C1037 N1036 1.351 . S
C1037 C1038 1.434 . S
C1038 C1029 1.429 . S
C1038 N1035 1.350 . S
C1038 C1037 1.434 . S
C1039 C1040 1.369 . S
C1039 C1041 1.419 . S
C1039 H1043 0.930 . S
C1040 C1039 1.369 . S
C1040 C1049 1.429 . S
C1041 C1039 1.419 . S
C1041 C1042 1.363 . S
C1041 H1044 0.929 . S
C1042 C1041 1.363 . S
C1042 C1048 1.428 . S
H1043 C1039 0.930 . S
H1044 C1041 0.929 . S
S1045 N1046 1.613 . S
S1045 N1047 1.610 . S
N1046 S1045 1.613 . S
N1046 C1049 1.350 . S
N1047 S1045 1.610 . S
N1047 C1048 1.351 . S
C1048 C1042 1.428 . S
C1048 N1047 1.351 . S
C1048 C1049 1.434 . S
C1049 C1040 1.429 . S
C1049 N1046 1.350 . S
C1049 C1048 1.434 . S
C1050 C1051 1.369 . S
C1050 C1052 1.419 . S
C1050 H1054 0.930 . S
C1051 C1050 1.369 . S
C1051 C1060 1.429 . S
C1052 C1050 1.419 . S
C1052 C1053 1.363 . S
C1052 H1055 0.929 . S
C1053 C1052 1.363 . S
C1053 C1059 1.428 . S
H1054 C1050 0.930 . S
H1055 C1052 0.929 . S
S1056 N1057 1.613 . S
S1056 N1058 1.610 . S
N1057 S1056 1.613 . S
N1057 C1060 1.350 . S
N1058 S1056 1.610 . S
N1058 C1059 1.351 . S
C1059 C1053 1.428 . S
C1059 N1058 1.351 . S
C1059 C1060 1.434 . S
C1060 C1051 1.429 . S
C1060 N1057 1.350 . S
C1060 C1059 1.434 . S
C1061 C1062 1.369 . S
C1061 C1063 1.419 . S
C1061 H1065 0.930 . S
C1062 C1061 1.369 . S
C1062 C1071 1.429 . S
C1063 C1061 1.419 . S
C1063 C1064 1.363 . S
C1063 H1066 0.929 . S
C1064 C1063 1.363 . S
C1064 C1070 1.428 . S
H1065 C1061 0.930 . S
H1066 C1063 0.929 . S
S1067 N1068 1.613 . S
S1067 N1069 1.610 . S
N1068 S1067 1.613 . S
N1068 C1071 1.350 . S
N1069 S1067 1.610 . S
N1069 C1070 1.351 . S
C1070 C1064 1.428 . S
C1070 N1069 1.351 . S
C1070 C1071 1.434 . S
C1071 C1062 1.429 . S
C1071 N1068 1.350 . S
C1071 C1070 1.434 . S
C1072 C1073 1.369 . S
C1072 C1074 1.419 . S
C1072 H1076 0.930 . S
C1073 C1072 1.369 . S
C1073 C1082 1.429 . S
C1074 C1072 1.419 . S
C1074 C1075 1.363 . S
C1074 H1077 0.929 . S
C1075 C1074 1.363 . S
C1075 C1081 1.428 . S
H1076 C1072 0.930 . S
H1077 C1074 0.929 . S
S1078 N1079 1.613 . S
S1078 N1080 1.610 . S
N1079 S1078 1.613 . S
N1079 C1082 1.350 . S
N1080 S1078 1.610 . S
N1080 C1081 1.351 . S
C1081 C1075 1.428 . S
C1081 N1080 1.351 . S
C1081 C1082 1.434 . S
C1082 C1073 1.429 . S
C1082 N1079 1.350 . S
C1082 C1081 1.434 . S
C1083 C1084 1.369 1_565 S
C1083 C1085 1.419 . S
C1083 H1087 0.930 . S
C1084 C1083 1.369 1_545 S
C1084 C1093 1.429 . S
C1085 C1083 1.419 . S
C1085 C1086 1.363 1_565 S
C1085 H1088 0.929 . S
C1086 C1085 1.363 1_545 S
C1086 C1092 1.428 . S
H1087 C1083 0.930 . S
H1088 C1085 0.929 . S
S1089 N1090 1.613 . S
S1089 N1091 1.610 . S
N1090 S1089 1.613 . S
N1090 C1093 1.350 . S
N1091 S1089 1.610 . S
N1091 C1092 1.351 . S
C1092 C1086 1.428 . S
C1092 N1091 1.351 . S
C1092 C1093 1.434 . S
C1093 C1084 1.429 . S
C1093 N1090 1.350 . S
C1093 C1092 1.434 . S
C1094 C1095 1.369 . S
C1094 C1096 1.419 . S
C1094 H1098 0.930 . S
C1095 C1094 1.369 . S
C1095 C1104 1.429 . S
C1096 C1094 1.419 . S
C1096 C1097 1.363 . S
C1096 H1099 0.929 . S
C1097 C1096 1.363 . S
C1097 C1103 1.428 . S
H1098 C1094 0.930 . S
H1099 C1096 0.929 . S
S1100 N1101 1.613 . S
S1100 N1102 1.610 . S
N1101 S1100 1.613 . S
N1101 C1104 1.350 . S
N1102 S1100 1.610 . S
N1102 C1103 1.351 . S
C1103 C1097 1.428 . S
C1103 N1102 1.351 . S
C1103 C1104 1.434 . S
C1104 C1095 1.429 . S
C1104 N1101 1.350 . S
C1104 C1103 1.434 . S
C1105 C1106 1.369 . S
C1105 C1107 1.419 . S
C1105 H1109 0.930 . S
C1106 C1105 1.369 . S
C1106 C1115 1.429 . S
C1107 C1105 1.419 . S
C1107 C1108 1.363 . S
C1107 H1110 0.929 . S
C1108 C1107 1.363 . S
C1108 C1114 1.428 . S
H1109 C1105 0.930 . S
H1110 C1107 0.929 . S
S1111 N1112 1.613 . S
S1111 N1113 1.610 . S
N1112 S1111 1.613 . S
N1112 C1115 1.350 . S
N1113 S1111 1.610 . S
N1113 C1114 1.351 . S
C1114 C1108 1.428 . S
C1114 N1113 1.351 . S
C1114 C1115 1.434 . S
C1115 C1106 1.429 . S
C1115 N1112 1.350 . S
C1115 C1114 1.434 . S
C1116 C1117 1.369 . S
C1116 C1118 1.419 . S
C1116 H1120 0.930 . S
C1117 C1116 1.369 . S
C1117 C1126 1.429 . S
C1118 C1116 1.419 . S
C1118 C1119 1.363 . S
C1118 H1121 0.929 . S
C1119 C1118 1.363 . S
C1119 C1125 1.428 . S
H1120 C1116 0.930 . S
H1121 C1118 0.929 . S
S1122 N1123 1.613 . S
S1122 N1124 1.610 . S
N1123 S1122 1.613 . S
N1123 C1126 1.350 . S
N1124 S1122 1.610 . S
N1124 C1125 1.351 . S
C1125 C1119 1.428 . S
C1125 N1124 1.351 . S
C1125 C1126 1.434 . S
C1126 C1117 1.429 . S
C1126 N1123 1.350 . S
C1126 C1125 1.434 . S
C1127 C1128 1.369 . S
C1127 C1129 1.419 . S
C1127 H1131 0.930 . S
C1128 C1127 1.369 . S
C1128 C1137 1.429 . S
C1129 C1127 1.419 . S
C1129 C1130 1.363 . S
C1129 H1132 0.929 . S
C1130 C1129 1.363 . S
C1130 C1136 1.428 . S
H1131 C1127 0.930 . S
H1132 C1129 0.929 . S
S1133 N1134 1.613 . S
S1133 N1135 1.610 . S
N1134 S1133 1.613 . S
N1134 C1137 1.350 . S
N1135 S1133 1.610 . S
N1135 C1136 1.351 . S
C1136 C1130 1.428 . S
C1136 N1135 1.351 . S
C1136 C1137 1.434 . S
C1137 C1128 1.429 . S
C1137 N1134 1.350 . S
C1137 C1136 1.434 . S
C1138 C1139 1.369 . S
C1138 C1140 1.419 . S
C1138 H1142 0.930 . S
C1139 C1138 1.369 . S
C1139 C1148 1.429 . S
C1140 C1138 1.419 . S
C1140 C1141 1.363 . S
C1140 H1143 0.929 . S
C1141 C1140 1.363 . S
C1141 C1147 1.428 . S
H1142 C1138 0.930 . S
H1143 C1140 0.929 . S
S1144 N1145 1.613 . S
S1144 N1146 1.610 . S
N1145 S1144 1.613 . S
N1145 C1148 1.350 . S
N1146 S1144 1.610 . S
N1146 C1147 1.351 . S
C1147 C1141 1.428 . S
C1147 N1146 1.351 . S
C1147 C1148 1.434 . S
C1148 C1139 1.429 . S
C1148 N1145 1.350 . S
C1148 C1147 1.434 . S
C1149 C1150 1.369 . S
C1149 C1151 1.419 . S
C1149 H1153 0.930 . S
C1150 C1149 1.369 . S
C1150 C1159 1.429 . S
C1151 C1149 1.419 . S
C1151 C1152 1.363 . S
C1151 H1154 0.929 . S
C1152 C1151 1.363 . S
C1152 C1158 1.428 . S
H1153 C1149 0.930 . S
H1154 C1151 0.929 . S
S1155 N1156 1.613 . S
S1155 N1157 1.610 . S
N1156 S1155 1.613 . S
N1156 C1159 1.350 . S
N1157 S1155 1.610 . S
N1157 C1158 1.351 . S
C1158 C1152 1.428 . S
C1158 N1157 1.351 . S
C1158 C1159 1.434 . S
C1159 C1150 1.429 . S
C1159 N1156 1.350 . S
C1159 C1158 1.434 . S
C1160 C1161 1.369 . S
C1160 C1162 1.419 . S
C1160 H1164 0.930 . S
C1161 C1160 1.369 . S
C1161 C1170 1.429 . S
C1162 C1160 1.419 . S
C1162 C1163 1.363 . S
C1162 H1165 0.929 . S
C1163 C1162 1.363 . S
C1163 C1169 1.428 . S
H1164 C1160 0.930 . S
H1165 C1162 0.929 . S
S1166 N1167 1.613 . S
S1166 N1168 1.610 . S
N1167 S1166 1.613 . S
N1167 C1170 1.350 . S
N1168 S1166 1.610 . S
N1168 C1169 1.351 . S
C1169 C1163 1.428 . S
C1169 N1168 1.351 . S
C1169 C1170 1.434 . S
C1170 C1161 1.429 . S
C1170 N1167 1.350 . S
C1170 C1169 1.434 . S
C1171 C1172 1.369 . S
C1171 C1173 1.419 . S
C1171 H1175 0.930 . S
C1172 C1171 1.369 . S
C1172 C1181 1.429 1_455 S
C1173 C1171 1.419 . S
C1173 C1174 1.363 . S
C1173 H1176 0.929 . S
C1174 C1173 1.363 . S
C1174 C1180 1.428 1_455 S
H1175 C1171 0.930 . S
H1176 C1173 0.929 . S
S1177 N1178 1.613 . S
S1177 N1179 1.610 . S
N1178 S1177 1.613 . S
N1178 C1181 1.350 . S
N1179 S1177 1.610 . S
N1179 C1180 1.351 . S
C1180 C1174 1.428 1_655 S
C1180 N1179 1.351 . S
C1180 C1181 1.434 . S
C1181 C1172 1.429 1_655 S
C1181 N1178 1.350 . S
C1181 C1180 1.434 . S
C1182 C1183 1.369 . S
C1182 C1184 1.419 . S
C1182 H1186 0.930 . S
C1183 C1182 1.369 . S
C1183 C1192 1.429 . S
C1184 C1182 1.419 . S
C1184 C1185 1.363 . S
C1184 H1187 0.929 . S
C1185 C1184 1.363 . S
C1185 C1191 1.428 . S
H1186 C1182 0.930 . S
H1187 C1184 0.929 . S
S1188 N1189 1.613 . S
S1188 N1190 1.610 . S
N1189 S1188 1.613 . S
N1189 C1192 1.350 . S
N1190 S1188 1.610 . S
N1190 C1191 1.351 . S
C1191 C1185 1.428 . S
C1191 N1190 1.351 . S
C1191 C1192 1.434 . S
C1192 C1183 1.429 . S
C1192 N1189 1.350 . S
C1192 C1191 1.434 . S
C1193 C1194 1.369 . S
C1193 C1195 1.419 . S
C1193 H1197 0.930 . S
C1194 C1193 1.369 . S
C1194 C1203 1.429 . S
C1195 C1193 1.419 . S
C1195 C1196 1.363 . S
C1195 H1198 0.929 . S
C1196 C1195 1.363 . S
C1196 C1202 1.428 . S
H1197 C1193 0.930 . S
H1198 C1195 0.929 . S
S1199 N1200 1.613 . S
S1199 N1201 1.610 . S
N1200 S1199 1.613 . S
N1200 C1203 1.350 1_655 S
N1201 S1199 1.610 . S
N1201 C1202 1.351 1_655 S
C1202 C1196 1.428 . S
C1202 N1201 1.351 1_455 S
C1202 C1203 1.434 . S
C1203 C1194 1.429 . S
C1203 N1200 1.350 1_455 S
C1203 C1202 1.434 . S
C1204 C1205 1.369 . S
C1204 C1206 1.419 . S
C1204 H1208 0.930 . S
C1205 C1204 1.369 . S
C1205 C1214 1.429 . S
C1206 C1204 1.419 . S
C1206 C1207 1.363 . S
C1206 H1209 0.929 . S
C1207 C1206 1.363 . S
C1207 C1213 1.428 . S
H1208 C1204 0.930 . S
H1209 C1206 0.929 . S
S1210 N1211 1.613 . S
S1210 N1212 1.610 . S
N1211 S1210 1.613 . S
N1211 C1214 1.350 . S
N1212 S1210 1.610 . S
N1212 C1213 1.351 . S
C1213 C1207 1.428 . S
C1213 N1212 1.351 . S
C1213 C1214 1.434 . S
C1214 C1205 1.429 . S
C1214 N1211 1.350 . S
C1214 C1213 1.434 . S
C1215 C1216 1.369 . S
C1215 C1217 1.419 . S
C1215 H1219 0.930 . S
C1216 C1215 1.369 . S
C1216 C1225 1.429 . S
C1217 C1215 1.419 . S
C1217 C1218 1.363 . S
C1217 H1220 0.929 . S
C1218 C1217 1.363 . S
C1218 C1224 1.428 . S
H1219 C1215 0.930 . S
H1220 C1217 0.929 . S
S1221 N1222 1.613 . S
S1221 N1223 1.610 . S
N1222 S1221 1.613 . S
N1222 C1225 1.350 . S
N1223 S1221 1.610 . S
N1223 C1224 1.351 . S
C1224 C1218 1.428 . S
C1224 N1223 1.351 . S
C1224 C1225 1.434 . S
C1225 C1216 1.429 . S
C1225 N1222 1.350 . S
C1225 C1224 1.434 . S
C1226 C1227 1.369 . S
C1226 C1228 1.419 . S
C1226 H1230 0.930 . S
C1227 C1226 1.369 . S
C1227 C1236 1.429 . S
C1228 C1226 1.419 . S
C1228 C1229 1.363 . S
C1228 H1231 0.929 . S
C1229 C1228 1.363 . S
C1229 C1235 1.428 . S
H1230 C1226 0.930 . S
H1231 C1228 0.929 . S
S1232 N1233 1.613 . S
S1232 N1234 1.610 . S
N1233 S1232 1.613 . S
N1233 C1236 1.350 . S
N1234 S1232 1.610 . S
N1234 C1235 1.351 . S
C1235 C1229 1.428 . S
C1235 N1234 1.351 . S
C1235 C1236 1.434 . S
C1236 C1227 1.429 . S
C1236 N1233 1.350 . S
C1236 C1235 1.434 . S
C1237 C1238 1.369 . S
C1237 C1239 1.419 . S
C1237 H1241 0.930 . S
C1238 C1237 1.369 . S
C1238 C1247 1.429 . S
C1239 C1237 1.419 . S
C1239 C1240 1.363 . S
C1239 H1242 0.929 . S
C1240 C1239 1.363 . S
C1240 C1246 1.428 . S
H1241 C1237 0.930 . S
H1242 C1239 0.929 . S
S1243 N1244 1.613 . S
S1243 N1245 1.610 . S
N1244 S1243 1.613 . S
N1244 C1247 1.350 . S
N1245 S1243 1.610 . S
N1245 C1246 1.351 . S
C1246 C1240 1.428 . S
C1246 N1245 1.351 . S
C1246 C1247 1.434 . S
C1247 C1238 1.429 . S
C1247 N1244 1.350 . S
C1247 C1246 1.434 . S
C1248 C1249 1.369 . S
C1248 C1250 1.419 . S
C1248 H1252 0.930 . S
C1249 C1248 1.369 . S
C1249 C1258 1.429 . S
C1250 C1248 1.419 . S
C1250 C1251 1.363 . S
C1250 H1253 0.929 . S
C1251 C1250 1.363 . S
C1251 C1257 1.428 . S
H1252 C1248 0.930 . S
H1253 C1250 0.929 . S
S1254 N1255 1.613 . S
S1254 N1256 1.610 . S
N1255 S1254 1.613 . S
N1255 C1258 1.350 . S
N1256 S1254 1.610 . S
N1256 C1257 1.351 . S
C1257 C1251 1.428 . S
C1257 N1256 1.351 . S
C1257 C1258 1.434 . S
C1258 C1249 1.429 . S
C1258 N1255 1.350 . S
C1258 C1257 1.434 . S
C1259 C1260 1.369 . S
C1259 C1261 1.419 . S
C1259 H1263 0.930 . S
C1260 C1259 1.369 . S
C1260 C1269 1.429 . S
C1261 C1259 1.419 . S
C1261 C1262 1.363 . S
C1261 H1264 0.929 . S
C1262 C1261 1.363 . S
C1262 C1268 1.428 . S
H1263 C1259 0.930 . S
H1264 C1261 0.929 . S
S1265 N1266 1.613 . S
S1265 N1267 1.610 . S
N1266 S1265 1.613 . S
N1266 C1269 1.350 . S
N1267 S1265 1.610 . S
N1267 C1268 1.351 . S
C1268 C1262 1.428 . S
C1268 N1267 1.351 . S
C1268 C1269 1.434 . S
C1269 C1260 1.429 . S
C1269 N1266 1.350 . S
C1269 C1268 1.434 . S
C1270 C1271 1.369 . S
C1270 C1272 1.419 . S
C1270 H1274 0.930 . S
C1271 C1270 1.369 . S
C1271 C1280 1.429 . S
C1272 C1270 1.419 . S
C1272 C1273 1.363 . S
C1272 H1275 0.929 . S
C1273 C1272 1.363 . S
C1273 C1279 1.428 . S
H1274 C1270 0.930 . S
H1275 C1272 0.929 . S
S1276 N1277 1.613 . S
S1276 N1278 1.610 . S
N1277 S1276 1.613 . S
N1277 C1280 1.350 . S
N1278 S1276 1.610 . S
N1278 C1279 1.351 . S
C1279 C1273 1.428 . S
C1279 N1278 1.351 . S
C1279 C1280 1.434 . S
C1280 C1271 1.429 . S
C1280 N1277 1.350 . S
C1280 C1279 1.434 . S
C1281 C1282 1.369 . S
C1281 C1283 1.419 . S
C1281 H1285 0.930 . S
C1282 C1281 1.369 . S
C1282 C1291 1.429 . S
C1283 C1281 1.419 . S
C1283 C1284 1.363 . S
C1283 H1286 0.929 . S
C1284 C1283 1.363 . S
C1284 C1290 1.428 . S
H1285 C1281 0.930 . S
H1286 C1283 0.929 . S
S1287 N1288 1.613 . S
S1287 N1289 1.610 . S
N1288 S1287 1.613 . S
N1288 C1291 1.350 . S
N1289 S1287 1.610 . S
N1289 C1290 1.351 . S
C1290 C1284 1.428 . S
C1290 N1289 1.351 . S
C1290 C1291 1.434 . S
C1291 C1282 1.429 . S
C1291 N1288 1.350 . S
C1291 C1290 1.434 . S
C1292 C1293 1.369 . S
C1292 C1294 1.419 . S
C1292 H1296 0.930 . S
C1293 C1292 1.369 . S
C1293 C1302 1.429 . S
C1294 C1292 1.419 . S
C1294 C1295 1.363 . S
C1294 H1297 0.929 . S
C1295 C1294 1.363 . S
C1295 C1301 1.440 . S
H1296 C1292 0.930 . S
H1297 C1294 0.929 . S
S1298 N1299 1.616 . S
S1298 N1300 1.610 . S
N1299 S1298 1.616 . S
N1299 C1302 1.347 1_554 S
N1300 S1298 1.610 . S
N1300 C1301 1.339 1_554 S
C1301 C1295 1.440 . S
C1301 N1300 1.339 1_556 S
C1301 C1302 1.438 . S
C1302 C1293 1.429 . S
C1302 N1299 1.347 1_556 S
C1302 C1301 1.438 . S
C1303 C1304 1.369 . S
C1303 C1305 1.419 . S
C1303 H1307 0.930 . S
C1304 C1303 1.369 . S
C1304 C1313 1.429 . S
C1305 C1303 1.419 . S
C1305 C1306 1.363 . S
C1305 H1308 0.929 . S
C1306 C1305 1.363 . S
C1306 C1312 1.428 . S
H1307 C1303 0.930 . S
H1308 C1305 0.929 . S
S1309 N1310 1.613 . S
S1309 N1311 1.610 . S
N1310 S1309 1.613 . S
N1310 C1313 1.350 . S
N1311 S1309 1.610 . S
N1311 C1312 1.351 . S
C1312 C1306 1.428 . S
C1312 N1311 1.351 . S
C1312 C1313 1.434 . S
C1313 C1304 1.429 . S
C1313 N1310 1.350 . S
C1313 C1312 1.434 . S
C1314 C1315 1.369 . S
C1314 C1316 1.419 . S
C1314 H1318 0.930 . S
C1315 C1314 1.369 . S
C1315 C1324 1.429 . S
C1316 C1314 1.419 . S
C1316 C1317 1.363 . S
C1316 H1319 0.929 . S
C1317 C1316 1.363 . S
C1317 C1323 1.428 1_554 S
H1318 C1314 0.930 . S
H1319 C1316 0.929 . S
S1320 N1321 1.613 . S
S1320 N1322 1.610 . S
N1321 S1320 1.613 . S
N1321 C1324 1.350 1_556 S
N1322 S1320 1.610 . S
N1322 C1323 1.351 . S
C1323 C1317 1.428 1_556 S
C1323 N1322 1.351 . S
C1323 C1324 1.434 1_556 S
C1324 C1315 1.429 . S
C1324 N1321 1.350 1_554 S
C1324 C1323 1.434 1_554 S
C1325 C1326 1.369 . S
C1325 C1327 1.419 . S
C1325 H1329 0.930 . S
C1326 C1325 1.369 . S
C1326 C1335 1.429 1_554 S
C1327 C1325 1.419 . S
C1327 C1328 1.363 . S
C1327 H1330 0.929 . S
C1328 C1327 1.363 . S
C1328 C1334 1.428 1_554 S
H1329 C1325 0.930 . S
H1330 C1327 0.929 . S
S1331 N1332 1.613 . S
S1331 N1333 1.610 . S
N1332 S1331 1.613 . S
N1332 C1335 1.350 . S
N1333 S1331 1.610 . S
N1333 C1334 1.351 . S
C1334 C1328 1.428 1_556 S
C1334 N1333 1.351 . S
C1334 C1335 1.434 . S
C1335 C1326 1.429 1_556 S
C1335 N1332 1.350 . S
C1335 C1334 1.434 . S
C811 C651 1.436 . S
C809 C202 1.437 . S
C822 C659 1.274 . S
C820 C261 1.562 . S
C831 C282 1.459 . S
C833 C679 1.443 . S
C844 C693 1.506 . S
C842 C162 1.514 . S
C855 C708 1.509 . S
C853 C402 1.492 . S
C866 C722 1.537 . S
C864 C482 1.532 . S
C875 C442 1.559 . S
C877 C736 1.571 . S
C888 C742 1.444 . S
C886 C381 1.493 . S
C897 C461 1.560 . S
C899 C756 1.530 . S
C910 C777 1.505 . S
C908 C362 1.510 . S
C919 C415 1.432 . S
C921 C757 1.200 . S
C932 C778 1.564 . S
C930 C495 1.561 . S
C941 C301 1.537 . S
C943 C785 1.236 . S
C952 C175 1.529 . S
C954 C791 1.514 . S
C963 C215 1.473 . S
C965 C784 1.427 . S
C974 C242 1.462 . S
C976 C792 1.468 . S
C985 C141 1.519 . S
C987 C686 1.485 . S
C996 C581 1.508 . S
C998 C687 1.278 . S
C1009 C644 1.459 . S
C1007 C615 1.518 . S
C1020 C665 1.442 . S
C1018 C335 1.469 . S
C1029 C181 1.533 . S
C1031 C700 1.504 . S
C1042 C750 1.514 . S
C1040 C455 1.515 . S
C1053 C701 1.173 . S
C1051 C375 1.411 . S
C1064 C729 1.302 . S
C1062 C501 1.624 . S
C1075 C735 1.436 . S
C1073 C562 1.438 . S
C1084 C621 1.562 . S
C1086 C743 1.272 . S
C1095 C322 1.458 . S
C1097 C707 1.441 . S
C1108 C721 1.507 . S
C1106 C522 1.513 . S
C1117 C122 1.493 . S
C1119 C680 1.509 . S
C1130 C694 1.536 . S
C1128 C2 1.533 . S
C1141 C652 1.572 . S
C1139 C42 1.561 . S
C1152 C658 1.443 . S
C1150 C101 1.492 . S
C1161 C61 1.561 . S
C1163 C770 1.532 . S
C1172 C82 1.509 1_455 S
C1174 C763 1.502 . S
C1183 C135 1.432 . S
C1185 C771 1.213 . S
C1194 C15 1.561 . S
C1196 C764 1.564 . S
C1207 C799 1.238 . S
C1205 C341 1.537 . S
C1218 C805 1.514 . S
C1216 C535 1.529 . S
C1229 C798 1.427 . S
C1227 C575 1.473 . S
C1238 C602 1.464 . S
C1240 C806 1.468 . S
C1249 C421 1.517 . S
C1251 C714 1.488 . S
C1262 C715 1.274 . S
C1260 C221 1.507 . S
C1273 C728 1.465 . S
C1271 C255 1.515 . S
C1284 C749 1.440 . S
C1282 C295 1.472 . S
C1293 C541 1.532 . S
C1295 C672 1.501 . S
C1306 C666 1.514 . S
C1304 C55 1.515 . S
C1315 C95 1.411 . S
C1317 C673 1.177 . S
C1328 C645 1.307 . S
C1326 C21 1.624 . S
