# Generated by pormake.
# Topology zzz, (3,6)-cn, num edge types: 1
# Building blocks:
#     Node 0, Type 0, BuildingBlock: WUSLED_clean_sbu_0, # of connection points: 3
#     Node 1, Type 0, BuildingBlock: WUSLED_clean_sbu_0, # of connection points: 3
#     Node 2, Type 0, BuildingBlock: WUSLED_clean_sbu_0, # of connection points: 3
#     Node 3, Type 0, BuildingBlock: WUSLED_clean_sbu_0, # of connection points: 3
#     Node 4, Type 0, BuildingBlock: WUSLED_clean_sbu_0, # of connection points: 3
#     Node 5, Type 0, BuildingBlock: WUSLED_clean_sbu_0, # of connection points: 3
#     Node 6, Type 0, BuildingBlock: WUSLED_clean_sbu_0, # of connection points: 3
#     Node 7, Type 0, BuildingBlock: WUSLED_clean_sbu_0, # of connection points: 3
#     Node 8, Type 1, BuildingBlock: FUNLAD_clean_sbu_0, # of connection points: 6
#     Node 9, Type 1, BuildingBlock: FUNLAD_clean_sbu_0, # of connection points: 6
#     Node 10, Type 1, BuildingBlock: FUNLAD_clean_sbu_0, # of connection points: 6
#     Node 11, Type 1, BuildingBlock: FUNLAD_clean_sbu_0, # of connection points: 6
#     Edge 12, Type (0, 1), BuildingBlock: AJUNOK_clean_linker_0, # of connection points: 2
#     Edge 13, Type (0, 1), BuildingBlock: AJUNOK_clean_linker_0, # of connection points: 2
#     Edge 14, Type (0, 1), BuildingBlock: AJUNOK_clean_linker_0, # of connection points: 2
#     Edge 15, Type (0, 1), BuildingBlock: AJUNOK_clean_linker_0, # of connection points: 2
#     Edge 16, Type (0, 1), BuildingBlock: AJUNOK_clean_linker_0, # of connection points: 2
#     Edge 17, Type (0, 1), BuildingBlock: AJUNOK_clean_linker_0, # of connection points: 2
#     Edge 18, Type (0, 1), BuildingBlock: AJUNOK_clean_linker_0, # of connection points: 2
#     Edge 19, Type (0, 1), BuildingBlock: AJUNOK_clean_linker_0, # of connection points: 2
#     Edge 20, Type (0, 1), BuildingBlock: AJUNOK_clean_linker_0, # of connection points: 2
#     Edge 21, Type (0, 1), BuildingBlock: AJUNOK_clean_linker_0, # of connection points: 2
#     Edge 22, Type (0, 1), BuildingBlock: AJUNOK_clean_linker_0, # of connection points: 2
#     Edge 23, Type (0, 1), BuildingBlock: AJUNOK_clean_linker_0, # of connection points: 2
#     Edge 24, Type (0, 1), BuildingBlock: AJUNOK_clean_linker_0, # of connection points: 2
#     Edge 25, Type (0, 1), BuildingBlock: AJUNOK_clean_linker_0, # of connection points: 2
#     Edge 26, Type (0, 1), BuildingBlock: AJUNOK_clean_linker_0, # of connection points: 2
#     Edge 27, Type (0, 1), BuildingBlock: AJUNOK_clean_linker_0, # of connection points: 2
#     Edge 28, Type (0, 1), BuildingBlock: AJUNOK_clean_linker_0, # of connection points: 2
#     Edge 29, Type (0, 1), BuildingBlock: AJUNOK_clean_linker_0, # of connection points: 2
#     Edge 30, Type (0, 1), BuildingBlock: AJUNOK_clean_linker_0, # of connection points: 2
#     Edge 31, Type (0, 1), BuildingBlock: AJUNOK_clean_linker_0, # of connection points: 2
#     Edge 32, Type (0, 1), BuildingBlock: AJUNOK_clean_linker_0, # of connection points: 2
#     Edge 33, Type (0, 1), BuildingBlock: AJUNOK_clean_linker_0, # of connection points: 2
#     Edge 34, Type (0, 1), BuildingBlock: AJUNOK_clean_linker_0, # of connection points: 2
#     Edge 35, Type (0, 1), BuildingBlock: AJUNOK_clean_linker_0, # of connection points: 2
# Relax obj value: 0.254
# Max RMSD: 0.224
# Mean RMSD: 0.186
data_MOF--net-zzz--node1-WUSLED_clean_sbu_0--node2-FUNLAD_clean_sbu_0--edge1-AJUNOK_clean_linker_0
_symmetry_space_group_name_H-M    P1
_symmetry_Int_Tables_number       1
_symmetry_cell_setting            triclinic
loop_
_symmetry_equiv_pos_as_xyz
'x, y, z'
_cell_length_a     50.272098
_cell_length_b     54.896461
_cell_length_c     19.428464
_cell_angle_alpha  86.530242
_cell_angle_beta   86.208158
_cell_angle_gamma 92.099735
loop_
_atom_site_label
_atom_site_type_symbol
_atom_site_fract_x
_atom_site_fract_y
_atom_site_fract_z
_atom_type_partial_charge
C0 C 0.84856 0.45724 0.38125 0.0
C1 C 0.87476 0.4524 0.35769 0.0
C2 C 0.89158 0.46723 0.46378 0.0
C3 C 0.89614 0.45719 0.39907 0.0
C4 C 0.8652 0.47105 0.48774 0.0
C5 C 0.84402 0.46612 0.44699 0.0
U6 U 0.80366 0.44598 0.22281 0.0
O7 O 0.77192 0.471 0.20014 0.0
O8 O 0.76153 0.43255 0.23067 0.0
C9 C 0.75315 0.45361 0.20645 0.0
C10 C 0.82536 0.45521 0.3386 0.0
C11 C 0.73583 0.45297 0.14806 0.0
C12 C 0.69153 0.45634 0.10647 0.0
C13 C 0.70826 0.45455 0.16107 0.0
C14 C 0.72968 0.45449 0.02434 0.0
C15 C 0.702 0.45665 0.03739 0.0
C16 C 0.74647 0.45265 0.07928 0.0
C17 C 0.85759 0.42726 0.08539 0.0
C18 C 0.88426 0.4201 0.98119 0.0
C19 C 0.90473 0.4383 0.07659 0.0
C20 C 0.88029 0.43621 0.11533 0.0
C21 C 0.90644 0.43145 0.008 0.0
C22 C 0.8599 0.41813 0.01968 0.0
C23 C 0.83092 0.43185 0.11406 0.0
O24 O 0.8239 0.47159 0.28695 0.0
O25 O 0.81564 0.43343 0.32629 0.0
O26 O 0.82661 0.45484 0.12459 0.0
O27 O 0.82015 0.41637 0.16322 0.0
H28 H 0.87873 0.4455 0.30712 0.0
H29 H 0.91629 0.45387 0.37955 0.0
H30 H 0.86096 0.47823 0.53785 0.0
H31 H 0.82397 0.4699 0.4663 0.0
H32 H 0.67036 0.45813 0.11832 0.0
H33 H 0.6997 0.45498 0.21363 0.0
H34 H 0.73831 0.45427 0.97182 0.0
H35 H 0.76777 0.45142 0.06808 0.0
H36 H 0.8852 0.41477 0.92829 0.0
H37 H 0.9215 0.44744 0.09786 0.0
H38 H 0.87862 0.44347 0.16599 0.0
H39 H 0.84241 0.4114 0.99582 0.0
C40 C 0.9451 0.83128 0.23604 0.0
C41 C 0.94789 0.85498 0.20346 0.0
C42 C 0.95321 0.87272 0.31452 0.0
C43 C 0.95206 0.87547 0.24231 0.0
C44 C 0.94954 0.84914 0.3471 0.0
C45 C 0.94561 0.82867 0.30827 0.0
U46 U 0.93181 0.80148 0.06831 0.0
O47 O 0.95732 0.77769 0.00638 0.0
O48 O 0.91584 0.76525 0.04229 0.0
C49 C 0.93807 0.76082 0.00638 0.0
C50 C 0.94376 0.80916 0.19529 0.0
C51 C 0.94233 0.73711 0.97576 0.0
C52 C 0.95794 0.69564 0.98354 0.0
C53 C 0.9529 0.7177 0.01392 0.0
C54 C 0.94132 0.71184 0.87669 0.0
C55 C 0.95231 0.69247 0.91455 0.0
C56 C 0.93647 0.73399 0.90701 0.0
C57 C 0.91174 0.85015 0.92824 0.0
C58 C 0.94023 0.8633 0.82697 0.0
C59 C 0.91127 0.89184 0.88153 0.0
C60 C 0.9 0.87292 0.92641 0.0
C61 C 0.93359 0.88742 0.83766 0.0
C62 C 0.92914 0.84445 0.87242 0.0
C63 C 0.91614 0.83971 0.99744 0.0
O64 O 0.91994 0.80118 0.1802 0.0
O65 O 0.96162 0.80897 0.14286 0.0
O66 O 0.94117 0.83565 0.00798 0.0
O67 O 0.89909 0.8231 0.02781 0.0
H68 H 0.94755 0.85759 0.14781 0.0
H69 H 0.95483 0.89342 0.21587 0.0
H70 H 0.95048 0.84648 0.40256 0.0
H71 H 0.94364 0.81066 0.33461 0.0
H72 H 0.96626 0.68098 0.01403 0.0
H73 H 0.9575 0.71969 0.06703 0.0
H74 H 0.93704 0.71004 0.82327 0.0
H75 H 0.92841 0.7488 0.87648 0.0
H76 H 0.95707 0.85957 0.79194 0.0
H77 H 0.90544 0.91037 0.88891 0.0
H78 H 0.88593 0.87742 0.96798 0.0
H79 H 0.93798 0.82675 0.87192 0.0
C80 C 0.70346 0.00612 0.31573 0.0
C81 C 0.678 0.00458 0.28951 0.0
C82 C 0.65597 0.00416 0.40699 0.0
C83 C 0.65455 1.00352 0.33468 0.0
C84 C 0.68144 0.006 0.43257 0.0
C85 C 0.70471 0.00681 0.3878 0.0
U86 U 0.75636 0.00858 0.14893 0.0
O87 O 0.79259 0.98698 0.14105 0.0
O88 O 0.79656 0.02671 0.14234 0.0
C89 C 0.80896 0.00631 0.13405 0.0
C90 C 0.72926 0.00629 0.27163 0.0
C91 C 0.83099 0.00671 0.07798 0.0
C92 C 0.87882 0.00503 0.04688 0.0
C93 C 0.85728 0.00447 0.09691 0.0
C94 C 0.84845 0.00984 0.95633 0.0
C95 C 0.87497 0.00819 0.97568 0.0
C96 C 0.82671 0.00919 0.00688 0.0
C97 C 0.70694 0.01523 1.00283 0.0
C98 C 0.68255 0.01751 0.89941 0.0
C99 C 0.65919 0.0199 0.01206 0.0
C100 C 0.68324 0.01761 0.04357 0.0
C101 C 0.65877 0.02005 0.93976 0.0
C102 C 0.70649 0.01513 0.93086 0.0
C103 C 0.7326 0.01306 0.03303 0.0
O104 O 0.73472 0.98705 0.23686 0.0
O105 O 0.73853 0.02685 0.23891 0.0
O106 O 0.74101 0.03183 0.06574 0.0
O107 O 0.73707 0.99182 0.06412 0.0
H108 H 0.67623 0.00407 0.23437 0.0
H109 H 0.63527 1.00236 0.31307 0.0
H110 H 0.68338 0.00649 0.48768 0.0
H111 H 0.72393 0.00784 0.40988 0.0
H112 H 0.89867 1.00295 0.06429 0.0
H113 H 0.86126 1.00231 0.15103 0.0
H114 H 0.84455 0.01217 0.90221 0.0
H115 H 0.80664 0.01082 0.99048 0.0
H116 H 0.68255 0.01698 0.84374 0.0
H117 H 0.64094 0.02166 0.04395 0.0
H118 H 0.68338 0.01768 0.09928 0.0
H119 H 0.72471 0.01315 0.89893 0.0
C120 C 0.57081 0.66585 0.34626 0.0
C121 C 0.56903 0.64321 0.3161 0.0
C122 C 0.56826 0.62149 0.4302 0.0
C123 C 0.56781 0.6212 0.35776 0.0
C124 C 0.57066 0.64424 0.45948 0.0
C125 C 0.57195 0.66607 0.41808 0.0
U126 U 0.57271 0.70654 0.1752 0.0
O127 O 0.54753 0.7375 0.15085 0.0
O128 O 0.59104 0.74344 0.14884 0.0
C129 C 0.56793 0.75321 0.13981 0.0
C130 C 0.57024 0.68955 0.30544 0.0
C131 C 0.56654 0.77283 0.08426 0.0
C132 C 0.56338 0.81642 0.05639 0.0
C133 C 0.56617 0.79688 0.10445 0.0
C134 C 0.56132 0.78839 0.96534 0.0
C135 C 0.56099 0.81258 0.98619 0.0
C136 C 0.56418 0.7686 0.01405 0.0
C137 C 0.57975 0.65856 0.02647 0.0
C138 C 0.56941 0.64951 0.91065 0.0
C139 C 0.57822 0.61683 0.99491 0.0
C140 C 0.58307 0.63383 0.04306 0.0
C141 C 0.57027 0.62443 0.92918 0.0
C142 C 0.57377 0.66655 0.95966 0.0
C143 C 0.57762 0.67479 0.08256 0.0
O144 O 0.59256 0.69752 0.27104 0.0
O145 O 0.54913 0.69298 0.27024 0.0
O146 O 0.55418 0.6813 0.10736 0.0
O147 O 0.59863 0.68584 0.10547 0.0
H148 H 0.568 0.64258 0.26071 0.0
H149 H 0.5655 0.60405 0.33363 0.0
H150 H 0.57107 0.64516 0.51495 0.0
H151 H 0.57327 0.68326 0.44253 0.0
H152 H 0.56265 0.83466 0.07458 0.0
H153 H 0.56763 0.80059 0.15826 0.0
H154 H 0.55951 0.78484 0.91157 0.0
H155 H 0.5643 0.75016 0.99716 0.0
H156 H 0.56414 0.65587 0.85967 0.0
H157 H 0.57888 0.59763 0.01103 0.0
H158 H 0.58741 0.62747 0.0949 0.0
H159 H 0.57114 0.68574 0.94664 0.0
C160 C 0.19885 0.53424 0.04142 0.0
C161 C 0.17353 0.53892 0.0718 0.0
C162 C 0.15292 0.52931 0.9657 0.0
C163 C 0.15074 0.53643 0.03426 0.0
C164 C 0.17837 0.5246 0.93599 0.0
C165 C 0.20105 0.52714 0.97337 0.0
U166 U 0.23299 0.5472 0.20572 0.0
O167 O 0.27247 0.56435 0.22047 0.0
O168 O 0.26301 0.52622 0.25834 0.0
C169 C 0.28064 0.54466 0.2534 0.0
C170 C 0.22305 0.53575 0.08037 0.0
C171 C 0.29724 0.54799 0.31261 0.0
C172 C 0.34201 0.55557 0.34912 0.0
C173 C 0.32375 0.55657 0.29795 0.0
C174 C 0.30713 0.53905 0.43264 0.0
C175 C 0.3341 0.54612 0.41638 0.0
C176 C 0.28879 0.53985 0.38096 0.0
C177 C 0.18131 0.5667 0.35072 0.0
C178 C 0.16376 0.55058 0.46385 0.0
C179 C 0.14284 0.58454 0.40623 0.0
C180 C 0.16234 0.58481 0.35186 0.0
C181 C 0.14246 0.56625 0.45957 0.0
C182 C 0.18328 0.55083 0.40946 0.0
C183 C 0.19214 0.56027 0.28279 0.0
O184 O 0.23119 0.55777 0.09492 0.0
O185 O 0.22379 0.51952 0.13264 0.0
O186 O 0.19838 0.5374 0.27687 0.0
O187 O 0.20805 0.57625 0.24557 0.0
H188 H 0.17138 0.5443 0.12457 0.0
H189 H 0.13144 0.54014 0.05871 0.0
H190 H 0.18074 0.51843 0.88415 0.0
H191 H 0.22034 0.52321 0.94931 0.0
H192 H 0.36269 0.56109 0.33534 0.0
H193 H 0.33077 0.56281 0.24568 0.0
H194 H 0.30064 0.53157 0.48415 0.0
H195 H 0.26844 0.53309 0.39366 0.0
H196 H 0.16348 0.53626 0.50488 0.0
H197 H 0.12632 0.59658 0.40225 0.0
H198 H 0.1605 0.59714 0.30688 0.0
H199 H 0.19785 0.53676 0.40981 0.0
C200 C 0.10887 0.1784 0.209 0.0
C201 C 0.12094 0.15615 0.22458 0.0
C202 C 0.09998 0.13721 0.12902 0.0
C203 C 0.11673 0.13586 0.18469 0.0
C204 C 0.08799 0.15961 0.11441 0.0
C205 C 0.09244 0.17982 0.15354 0.0
U206 U 0.1215 0.20465 0.38202 0.0
O207 O 0.13655 0.24003 0.41667 0.0
O208 O 0.09516 0.22659 0.44689 0.0
C209 C 0.11416 0.24324 0.45348 0.0
C210 C 0.11097 0.19965 0.25284 0.0
C211 C 0.10715 0.26784 0.47411 0.0
C212 C 0.0846 0.30612 0.45866 0.0
C213 C 0.09161 0.28335 0.43486 0.0
C214 C 0.10866 0.29809 0.56087 0.0
C215 C 0.09317 0.3139 0.52192 0.0
C216 C 0.11551 0.2754 0.53725 0.0
C217 C 0.13512 0.15831 0.52659 0.0
C218 C 0.09865 0.15539 0.61457 0.0
C219 C 0.12265 0.11951 0.58623 0.0
C220 C 0.14055 0.13384 0.54176 0.0
C221 C 0.09978 0.12996 0.61519 0.0
C222 C 0.11709 0.1698 0.57147 0.0
C223 C 0.13553 0.16576 0.45295 0.0
O224 O 0.09248 0.1996 0.30386 0.0
O225 O 0.13483 0.20642 0.27095 0.0
O226 O 0.15307 0.18276 0.42716 0.0
O227 O 0.11149 0.16875 0.43227 0.0
H228 H 0.13342 0.1544 0.26784 0.0
H229 H 0.12681 0.11925 0.19725 0.0
H230 H 0.07462 0.1615 0.07314 0.0
H231 H 0.08252 0.19656 0.14117 0.0
H232 H 0.07199 0.31738 0.42808 0.0
H233 H 0.08468 0.27778 0.38638 0.0
H234 H 0.11567 0.30331 0.60962 0.0
H235 H 0.12728 0.26359 0.56884 0.0
H236 H 0.08151 0.16378 0.6386 0.0
H237 H 0.12438 0.09988 0.58926 0.0
H238 H 0.15509 0.1248 0.50957 0.0
H239 H 0.11331 0.18899 0.56211 0.0
C240 C 0.3367 0.00915 0.10388 0.0
C241 C 0.36039 0.01998 0.12504 0.0
C242 C 0.38513 0.01048 0.01689 0.0
C243 C 0.38426 0.02064 0.08211 0.0
C244 C 0.36129 0.99973 0.9962 0.0
C245 C 0.33754 0.99905 0.03901 0.0
U246 U 0.29072 0.00754 0.27632 0.0
O247 O 0.25292 0.02593 0.2987 0.0
O248 O 0.25311 0.98598 0.30392 0.0
C249 C 0.23895 0.00532 0.31306 0.0
C250 C 0.31067 0.00875 0.14631 0.0
C251 C 0.21798 0.00421 0.3719 0.0
C252 C 0.17068 0.00719 0.40702 0.0
C253 C 0.19167 0.00818 0.35564 0.0
C254 C 0.20151 0.99791 0.49411 0.0
C255 C 0.17512 1.0025 0.47733 0.0
C256 C 0.22277 0.99881 0.44193 0.0
C257 C 0.34327 0.0066 0.42471 0.0
C258 C 0.35435 0.99977 0.54363 0.0
C259 C 0.38932 0.00394 0.45071 0.0
C260 C 0.37032 0.00741 0.40245 0.0
C261 C 0.38133 0.9996 0.52106 0.0
C262 C 0.33532 1.00317 0.49527 0.0
C263 C 0.32281 0.00696 0.37532 0.0
O264 O 0.30353 0.98846 0.18332 0.0
O265 O 0.30484 0.02838 0.17898 0.0
O266 O 0.31527 0.02755 0.346 0.0
O267 O 0.31441 0.98679 0.34914 0.0
H268 H 0.36042 0.02809 0.17448 0.0
H269 H 0.40193 0.02955 0.09958 0.0
H270 H 0.361 0.99159 0.94683 0.0
H271 H 0.31964 0.99067 0.02104 0.0
H272 H 0.15071 0.01019 0.39139 0.0
H273 H 0.18723 0.01207 0.30236 0.0
H274 H 0.20577 0.99414 0.54755 0.0
H275 H 0.24283 0.99544 0.45628 0.0
H276 H 0.34805 0.99689 0.59803 0.0
H277 H 0.41028 0.00442 0.43328 0.0
H278 H 0.37667 0.01013 0.34805 0.0
H279 H 0.31436 1.00254 0.51264 0.0
C280 C 0.45895 0.34293 0.10239 0.0
C281 C 0.45864 0.36561 0.13239 0.0
C282 C 0.46608 0.3871 0.01797 0.0
C283 C 0.46222 0.3875 0.0905 0.0
C284 C 0.46618 0.36429 0.98863 0.0
C285 C 0.46258 0.34255 0.03029 0.0
U286 U 0.45485 0.30139 0.27361 0.0
O287 O 0.47937 0.26956 0.29059 0.0
O288 O 0.4357 0.26473 0.29996 0.0
C289 C 0.45874 0.25429 0.30416 0.0
C290 C 0.45757 0.31934 0.14412 0.0
C291 C 0.46139 0.23455 0.35847 0.0
C292 C 0.4718 0.19209 0.38287 0.0
C293 C 0.46624 0.21124 0.33615 0.0
C294 C 0.46673 0.2188 0.47707 0.0
C295 C 0.47251 0.1956 0.4537 0.0
C296 C 0.4614 0.23827 0.4296 0.0
C297 C 0.45212 0.34833 0.42611 0.0
C298 C 0.46695 0.35829 0.53739 0.0
C299 C 0.45523 0.3904 0.45477 0.0
C300 C 0.44825 0.37299 0.40936 0.0
C301 C 0.4659 0.38326 0.51775 0.0
C302 C 0.46044 0.34089 0.49117 0.0
C303 C 0.4531 0.33147 0.37128 0.0
O304 O 0.47854 0.3146 0.17862 0.0
O305 O 0.43493 0.3128 0.17938 0.0
O306 O 0.43123 0.32231 0.34746 0.0
O307 O 0.47584 0.3246 0.34302 0.0
H308 H 0.45608 0.36636 0.18801 0.0
H309 H 0.46211 0.40475 0.11479 0.0
H310 H 0.46983 0.36317 0.93338 0.0
H311 H 0.46328 0.32529 0.00608 0.0
H312 H 0.47599 0.17446 0.36332 0.0
H313 H 0.46647 0.20795 0.28167 0.0
H314 H 0.46726 0.22206 0.53141 0.0
H315 H 0.4579 0.25618 0.44807 0.0
H316 H 0.47408 0.35226 0.58672 0.0
H317 H 0.45411 0.4095 0.43815 0.0
H318 H 0.44198 0.37894 0.35895 0.0
H319 H 0.46343 0.32178 0.5045 0.0
C320 C 0.01925 0.95969 0.77729 0.0
N321 N 1.00138 0.98473 0.5863 0.0
C322 C 0.01663 0.96577 0.56789 0.0
C323 C 0.00811 0.949 0.52171 0.0
C324 C 0.98376 0.95159 0.49091 0.0
C325 C 0.96881 0.97198 0.50824 0.0
C326 C 0.97778 0.98811 0.55685 0.0
Zn327 Zn 0.01526 1.00257 0.67261 0.0
C328 C 0.97272 0.0099 0.78741 0.0
N329 N 0.04877 0.02646 0.85929 0.0
C330 C 0.07081 0.02061 0.89339 0.0
C331 C 0.03609 0.0474 0.87296 0.0
C332 C 0.04574 0.06362 0.91911 0.0
C333 C 0.06863 0.05848 0.95373 0.0
C334 C 0.08094 0.03632 0.94159 0.0
Zn335 Zn 0.03367 0.00894 0.77388 0.0
O336 O 0.01792 0.96828 0.71598 0.0
C337 C 0.07673 1.00199 0.66081 0.0
O338 O 0.02866 0.9732 0.82195 0.0
H339 H 0.01887 0.05235 0.84562 0.0
H340 H 0.03508 0.96266 0.5919 0.0
H341 H 0.08111 0.00424 0.88174 0.0
O342 O 0.05585 1.00229 0.62693 0.0
O343 O 0.07413 1.00298 0.72663 0.0
H344 H 0.96552 1.00291 0.5721 0.0
O345 O 0.03532 0.04303 0.72368 0.0
O346 O 0.01334 0.03878 0.63044 0.0
O347 O 0.99427 0.01427 0.81599 0.0
O348 O 0.97433 1.00355 0.72485 0.0
C349 C 0.02577 0.05234 0.66985 0.0
H350 H 0.02037 0.9336 0.51214 0.0
H351 H 0.95028 0.97552 0.48495 0.0
H352 H 0.03551 0.08038 0.92677 0.0
H353 H 0.0988 0.03167 0.9669 0.0
C354 C 0.48017 0.99421 0.64472 0.0
N355 N 0.51565 0.06174 0.66771 0.0
C356 C 0.51626 0.06568 0.59767 0.0
C357 C 0.50992 0.0883 0.56733 0.0
C358 C 0.50251 0.1073 0.60896 0.0
C359 C 0.50212 0.1029 0.68115 0.0
C360 C 0.50881 0.0799 0.70957 0.0
Zn361 Zn 0.52123 0.0259 0.7054 0.0
C362 C 0.48162 0.00993 0.82595 0.0
N363 N 0.52732 0.94903 0.76978 0.0
C364 C 0.52759 0.92938 0.72994 0.0
C365 C 0.53165 0.94611 0.83828 0.0
C366 C 0.53748 0.92332 0.86844 0.0
C367 C 0.53871 0.90288 0.8285 0.0
C368 C 0.53303 0.90599 0.75858 0.0
Zn369 Zn 0.52233 0.98526 0.73225 0.0
O370 O 0.49231 0.01486 0.64349 0.0
C371 C 0.56211 1.00183 0.61003 0.0
O372 O 0.48973 0.9756 0.67494 0.0
H373 H 0.53103 0.96165 0.86986 0.0
H374 H 0.52098 0.05101 0.56485 0.0
H375 H 0.52404 0.93186 0.6757 0.0
O376 O 0.55273 0.02219 0.62564 0.0
O377 O 0.55221 0.9823 0.6432 0.0
H378 H 0.50802 0.07646 0.76508 0.0
O379 O 0.55342 0.99647 0.79036 0.0
O380 O 0.55063 0.03624 0.7705 0.0
O381 O 0.493 0.98978 0.81835 0.0
O382 O 0.48941 0.0285 0.78605 0.0
C383 C 0.56156 0.01813 0.79939 0.0
H384 H 0.5102 0.0907 0.51153 0.0
H385 H 0.49678 0.11709 0.71527 0.0
H386 H 0.54115 0.92174 0.92282 0.0
H387 H 0.53357 0.89067 0.72599 0.0
C388 C 0.51526 0.46393 0.64686 0.0
N389 N 0.4647 0.51989 0.67563 0.0
C390 C 0.46726 0.521 0.60517 0.0
C391 C 0.44573 0.52587 0.56604 0.0
C392 C 0.42034 0.5283 0.59851 0.0
C393 C 0.41798 0.52751 0.67143 0.0
C394 C 0.44058 0.52331 0.70926 0.0
Zn395 Zn 0.5 0.51025 0.71953 0.0
C396 C 0.4958 0.47259 0.8309 0.0
N397 N 0.57702 0.48655 0.76845 0.0
C398 C 0.59974 0.48016 0.73284 0.0
C399 C 0.57621 0.48779 0.83846 0.0
C400 C 0.59811 0.48199 0.87544 0.0
C401 C 0.62161 0.47506 0.84074 0.0
C402 C 0.62253 0.47442 0.76829 0.0
Zn403 Zn 0.54116 0.49585 0.72735 0.0
O404 O 0.49944 0.48075 0.65945 0.0
C405 C 0.54467 0.53446 0.61763 0.0
O406 O 0.53856 0.46486 0.66881 0.0
H407 H 0.55841 0.49335 0.86649 0.0
H408 H 0.48603 0.51749 0.5781 0.0
H409 H 0.60022 0.47946 0.67725 0.0
O410 O 0.52067 0.53329 0.64213 0.0
O411 O 0.56069 0.51881 0.64046 0.0
H412 H 0.43867 0.52216 0.76515 0.0
O413 O 0.54233 0.5265 0.78347 0.0
O414 O 0.50176 0.54013 0.78135 0.0
O415 O 0.52058 0.47384 0.81226 0.0
O416 O 0.48014 0.48672 0.80023 0.0
C417 C 0.52569 0.54241 0.79873 0.0
H418 H 0.44908 0.52738 0.5103 0.0
H419 H 0.39881 0.52947 0.69889 0.0
H420 H 0.59671 0.48304 0.93109 0.0
H421 H 0.64042 0.46916 0.73977 0.0
C422 C 0.04967 0.52733 0.6181 0.0
N423 N 0.04438 0.4515 0.67931 0.0
C424 C 0.06761 0.4514 0.63885 0.0
C425 C 0.07688 0.42958 0.61374 0.0
C426 C 0.06229 0.40741 0.63045 0.0
C427 C 0.03895 0.4079 0.67416 0.0
C428 C 0.0302 0.43013 0.69735 0.0
Zn429 Zn 0.0286 0.48462 0.70905 0.0
C430 C 0.06071 0.5104 0.80726 0.0
N431 N 0.99484 0.55353 0.76314 0.0
C432 C 0.98986 0.57151 0.71461 0.0
C433 C 0.99156 0.55738 0.83178 0.0
C434 C 0.98355 0.57997 0.85378 0.0
C435 C 0.97874 0.59887 0.80492 0.0
C436 C 0.9817 0.59442 0.73451 0.0
Zn437 Zn 0.01064 0.52067 0.73445 0.0
O438 O 0.04979 0.50419 0.62628 0.0
C439 C 0.9785 0.49416 0.63544 0.0
O440 O 0.03485 0.53938 0.65752 0.0
H441 H 0.99581 0.54308 0.86974 0.0
H442 H 0.07896 0.46828 0.62497 0.0
H443 H 0.99278 0.56831 0.6603 0.0
O444 O 0.9961 0.47857 0.64659 0.0
O445 O 0.97993 0.5145 0.66396 0.0
H446 H 0.01159 0.43016 0.72842 0.0
O447 O 0.98685 0.5012 0.81142 0.0
O448 O 0.00688 0.46685 0.79352 0.0
O449 O 0.04194 0.52527 0.80307 0.0
O450 O 0.0607 0.49153 0.77223 0.0
C451 C 0.98965 0.47869 0.8267 0.0
H452 H 0.09534 0.43012 0.58159 0.0
H453 H 0.02701 0.39133 0.68855 0.0
H454 H 0.98144 0.58278 0.90856 0.0
H455 H 0.9784 0.60868 0.69536 0.0
C456 C 0.14551 0.98437 0.58239 0.0
C457 C 0.15201 1.0035 0.53121 0.0
C458 C 0.12179 0.98426 0.62673 0.0
C459 C 0.10361 1.00321 0.62146 0.0
H460 H 0.15825 0.96894 0.5864 0.0
H461 H 0.11714 0.96878 0.66335 0.0
S462 S 0.11296 0.05878 0.50288 0.0
N463 N 0.13946 0.04301 0.48417 0.0
N464 N 0.09506 0.04236 0.56457 0.0
C465 C 0.11054 0.02276 0.57268 0.0
C466 C 0.13463 0.02304 0.52859 0.0
C467 C 0.50494 0.16374 0.4839 0.0
C468 C 0.48087 0.17506 0.50056 0.0
C469 C 0.51207 0.14243 0.52069 0.0
C470 C 0.49546 0.13138 0.57593 0.0
H471 H 0.51816 0.17116 0.44081 0.0
H472 H 0.53062 0.13428 0.50487 0.0
S473 S 0.43007 0.15357 0.64019 0.0
N474 N 0.44042 0.17372 0.5765 0.0
N475 N 0.45369 0.13352 0.64553 0.0
C476 C 0.4716 0.14284 0.59443 0.0
C477 C 0.46435 0.16469 0.55685 0.0
C478 C 0.35662 0.55287 0.52661 0.0
C479 C 0.3548 0.54055 0.46557 0.0
C480 C 0.3774 0.54842 0.57057 0.0
C481 C 0.39688 0.5313 0.55535 0.0
H482 H 0.34236 0.5665 0.53938 0.0
H483 H 0.37866 0.559 0.6156 0.0
S484 S 0.39851 0.49214 0.40536 0.0
N485 N 0.3729 0.50958 0.39423 0.0
N486 N 0.41086 0.50015 0.47769 0.0
C487 C 0.39426 0.51806 0.49583 0.0
C488 C 0.37354 0.52297 0.4508 0.0
C489 C 0.07766 0.33992 0.61877 0.0
C490 C 0.08572 0.33809 0.54834 0.0
C491 C 0.0704 0.36229 0.64483 0.0
C492 C 0.07089 0.38394 0.60179 0.0
H493 H 0.07658 0.32384 0.65415 0.0
H494 H 0.06442 0.36263 0.69935 0.0
S495 S 0.0908 0.38939 0.41379 0.0
N496 N 0.09455 0.36033 0.43661 0.0
N497 N 0.07985 0.40196 0.48478 0.0
C498 C 0.079 0.38242 0.53139 0.0
C499 C 0.08657 0.35966 0.50492 0.0
C500 C 0.90007 0.99698 0.86322 0.0
C501 C 0.89884 0.01037 0.9233 0.0
C502 C 0.92343 0.9975 0.8176 0.0
C503 C 0.94661 0.01148 0.82996 0.0
H504 H 0.88317 0.98534 0.85257 0.0
H505 H 0.92365 0.98618 0.77381 0.0
S506 S 0.95273 0.05227 0.97479 0.0
N507 N 0.92229 0.03989 0.98795 0.0
N508 N 0.96565 0.04061 0.90442 0.0
C509 C 0.94509 0.02568 0.88827 0.0
C510 C 0.92146 0.02522 0.93414 0.0
C511 C 0.53552 0.83559 0.89622 0.0
C512 C 0.55773 0.83418 0.93681 0.0
C513 C 0.52998 0.8575 0.85868 0.0
C514 C 0.54642 0.87881 0.86053 0.0
H515 H 0.52163 0.82004 0.89613 0.0
H516 H 0.51209 0.85807 0.8306 0.0
S517 S 0.60922 0.88356 0.94999 0.0
N518 N 0.59781 0.85525 0.96975 0.0
N519 N 0.58743 0.8961 0.90015 0.0
C520 C 0.56947 0.87711 0.89762 0.0
C521 C 0.57512 0.85492 0.93539 0.0
C522 C 0.65952 0.4456 0.98389 0.0
C523 C 0.6837 0.45953 0.98019 0.0
C524 C 0.64025 0.4499 0.93611 0.0
C525 C 0.64436 0.46822 0.8822 0.0
H526 H 0.65513 0.43163 0.02532 0.0
H527 H 0.62154 0.43931 0.9427 0.0
S528 S 0.7042 0.50973 0.84854 0.0
N529 N 0.71078 0.4923 0.9172 0.0
N530 N 0.67452 0.50017 0.82697 0.0
C531 C 0.66879 0.48171 0.87607 0.0
C532 C 0.68847 0.47741 0.92508 0.0
C533 C 0.9847 0.66042 0.88393 0.0
C534 C 0.95876 0.6692 0.88221 0.0
C535 C 0.99109 0.63793 0.85742 0.0
C536 C 0.97182 0.62335 0.82801 0.0
H537 H 1.00016 0.67098 0.90639 0.0
H538 H 0.01123 0.63176 0.8605 0.0
S539 S 0.90091 0.63752 0.81224 0.0
N540 N 0.91361 0.66127 0.84912 0.0
N541 N 0.92573 0.61905 0.79921 0.0
C542 C 0.94593 0.63198 0.82502 0.0
C543 C 0.93938 0.6549 0.85204 0.0
C544 C 0.06264 0.11025 0.69244 0.0
C545 C 0.07505 0.11479 0.62625 0.0
C546 C 0.04228 0.09219 0.70424 0.0
C547 C 0.03452 0.07775 0.65056 0.0
H548 H 0.06995 0.11937 0.73581 0.0
H549 H 0.03479 0.0876 0.75719 0.0
S550 S 0.05515 0.08863 0.46468 0.0
N551 N 0.07361 0.10844 0.50356 0.0
N552 N 0.03621 0.07338 0.52676 0.0
C553 C 0.04406 0.0847 0.58277 0.0
C554 C 0.06444 0.10339 0.57049 0.0
C555 C 0.41575 0.97418 0.57096 0.0
C556 C 0.40193 0.99599 0.56973 0.0
C557 C 0.44078 0.97305 0.59845 0.0
C558 C 0.45264 0.99394 0.62363 0.0
H559 H 0.40791 0.95846 0.54655 0.0
H560 H 0.45149 0.95633 0.59613 0.0
S561 S 0.4215 0.05386 0.64409 0.0
N562 N 0.39952 0.03747 0.60508 0.0
N563 N 0.44651 0.03582 0.65653 0.0
C564 C 0.43762 0.01513 0.62859 0.0
C565 C 0.41216 0.01604 0.60163 0.0
C566 C 0.46522 0.42412 0.56526 0.0
C567 C 0.47811 0.40213 0.55824 0.0
C568 C 0.47796 0.44398 0.59189 0.0
C569 C 0.50402 0.44263 0.61439 0.0
H570 H 0.44525 0.42623 0.54846 0.0
H571 H 0.46701 0.46056 0.59478 0.0
S572 S 0.54546 0.38821 0.61445 0.0
N573 N 0.51795 0.37951 0.57918 0.0
N574 N 0.54142 0.41682 0.63344 0.0
C575 C 0.51675 0.42039 0.61101 0.0
C576 C 0.50385 0.4001 0.58243 0.0
C577 C 0.10803 0.56919 0.55653 0.0
C578 C 0.11694 0.55858 0.49595 0.0
C579 C 0.08461 0.56009 0.59362 0.0
C580 C 0.06999 0.54007 0.57107 0.0
H581 H 0.11965 0.58388 0.57638 0.0
H582 H 0.07886 0.56775 0.64227 0.0
S583 S 0.08375 0.50817 0.41109 0.0
N584 N 0.1084 0.52891 0.41118 0.0
N585 N 0.0646 0.51148 0.48202 0.0
C586 C 0.07804 0.53027 0.5087 0.0
C587 C 0.10158 0.53964 0.47076 0.0
C588 C 0.96427 0.91291 0.75566 0.0
C589 C 0.95475 0.90651 0.82353 0.0
C590 C 0.98689 0.9283 0.74211 0.0
C591 C 1.00068 0.93839 0.79597 0.0
H592 H 0.95425 0.90587 0.71285 0.0
H593 H 0.99285 0.93305 0.68824 0.0
S594 S 0.98428 0.92512 0.98341 0.0
N595 N 0.96136 0.90935 0.94574 0.0
N596 N 1.00339 0.9395 0.92012 0.0
C597 C 0.99152 0.93157 0.86432 0.0
C598 C 0.96858 0.9155 0.8781 0.0
C599 C 0.61258 0.00432 0.92752 0.0
C600 C 0.63333 0.0215 0.90665 0.0
C601 C 0.58885 0.00412 0.89413 0.0
C602 C 0.58495 0.02132 0.83951 0.0
H603 H 0.61507 0.99042 0.96836 0.0
H604 H 0.57365 0.99003 0.9102 0.0
S605 S 0.63328 0.06997 0.76518 0.0
N606 N 0.64868 0.05611 0.82814 0.0
N607 N 0.60369 0.05584 0.76554 0.0
C608 C 0.6053 0.03892 0.81896 0.0
C609 C 0.62967 0.03891 0.85238 0.0
C610 C 0.5737 0.58388 0.88112 0.0
C611 C 0.56025 0.60572 0.88485 0.0
C612 C 0.56183 0.56351 0.85487 0.0
C613 C 0.53624 0.56426 0.82943 0.0
H614 H 0.59317 0.58218 0.90139 0.0
H615 H 0.5729 0.54693 0.85527 0.0
S616 S 0.49478 0.61849 0.81508 0.0
N617 N 0.52113 0.62789 0.85415 0.0
N618 N 0.49944 0.58958 0.80048 0.0
C619 C 0.52337 0.58649 0.82776 0.0
C620 C 0.53533 0.6073 0.85592 0.0
C621 C 0.9227 0.45552 0.90128 0.0
C622 C 0.9287 0.44116 0.96024 0.0
C623 C 0.94285 0.46764 0.85861 0.0
C624 C 0.96959 0.4656 0.87315 0.0
H625 H 0.90222 0.45811 0.88922 0.0
H626 H 0.93748 0.47872 0.81389 0.0
S627 S 0.99602 0.43007 0.01939 0.0
N628 N 0.9633 0.42538 0.03044 0.0
N629 N 1.00156 0.44811 0.94825 0.0
C630 C 0.97612 0.45096 0.93052 0.0
C631 C 0.9555 0.43879 0.97484 0.0
C632 C 0.09267 0.1201 0.01338 0.0
C633 C 0.09476 0.11587 0.08523 0.0
C634 C 0.08514 0.10133 0.97151 0.0
C635 C 0.07975 0.07717 0.99878 0.0
H636 H 0.09653 0.13826 0.98901 0.0
H637 H 0.08312 0.10589 0.91711 0.0
S638 S 0.08289 0.05554 0.1825 0.0
N639 N 0.09098 0.08501 0.18131 0.0
N640 N 0.07774 0.04977 0.10185 0.0
C641 C 0.08275 0.07229 0.06975 0.0
C642 C 0.09006 0.09155 0.11298 0.0
C643 C 0.40983 0.01753 0.89835 0.0
C644 C 0.41046 0.01117 0.96983 0.0
C645 C 0.43299 0.01773 0.85288 0.0
C646 C 0.45782 0.0111 0.87628 0.0
H647 H 0.39124 0.02253 0.8772 0.0
H648 H 0.43127 0.02255 0.79852 0.0
S649 S 0.47087 0.9929 0.05736 0.0
N650 N 0.43869 0.99825 0.06113 0.0
N651 N 0.48171 0.99811 0.97547 0.0
C652 C 0.45884 0.00466 0.94717 0.0
C653 C 0.43539 0.0049 0.99386 0.0
C654 C 0.49104 0.42756 0.98881 0.0
C655 C 0.47138 0.41019 0.97294 0.0
C656 C 0.49825 0.44818 0.94379 0.0
C657 C 0.48553 0.45268 0.88212 0.0
H658 H 0.50174 0.42468 0.03503 0.0
H659 H 0.51424 0.4605 0.95674 0.0
S660 S 0.43302 0.41305 0.81577 0.0
N661 N 0.43939 0.39911 0.89029 0.0
N662 N 0.45273 0.43794 0.80683 0.0
C663 C 0.46551 0.43582 0.86625 0.0
C664 C 0.45849 0.4146 0.9113 0.0
C665 C 0.10604 0.5125 0.95587 0.0
C666 C 0.12878 0.52594 0.92574 0.0
C667 C 0.08386 0.50764 0.91752 0.0
C668 C 0.08363 0.51613 0.84793 0.0
H669 H 0.10564 0.50514 0.00894 0.0
H670 H 0.06692 0.49694 0.94217 0.0
S671 S 0.13678 0.55358 0.74583 0.0
N672 N 0.14862 0.54889 0.82265 0.0
N673 N 0.10714 0.53934 0.75102 0.0
C674 C 0.10577 0.53001 0.81761 0.0
C675 C 0.1283 0.53501 0.85638 0.0
C676 C 0.98654 0.90253 0.35711 0.0
C677 C 0.95991 0.89403 0.35564 0.0
C678 C 0.99374 0.92146 0.39902 0.0
C679 C 0.97468 0.93279 0.44217 0.0
H680 H 1.00207 0.89418 0.32636 0.0
H681 H 0.01462 0.92713 0.39756 0.0
S682 S 0.9017 0.91733 0.4545 0.0
N683 N 0.91414 0.89871 0.39815 0.0
N684 N 0.92736 0.93369 0.4784 0.0
C685 C 0.94774 0.92461 0.43972 0.0
C686 C 0.94048 0.90537 0.39648 0.0
C687 C 0.62484 0.0235 0.49437 0.0
C688 C 0.63128 1.00323 0.45624 0.0
C689 C 0.6024 0.02285 0.54253 0.0
C690 C 0.58551 1.00167 0.5566 0.0
H691 H 0.63728 0.0401 0.48681 0.0
H692 H 0.59856 0.03908 0.57005 0.0
S693 S 0.59414 0.94325 0.47238 0.0
N694 N 0.61898 0.96123 0.43645 0.0
N695 N 0.57752 0.95968 0.52796 0.0
C696 C 0.59199 0.98115 0.51938 0.0
C697 C 0.61457 0.98202 0.46914 0.0
C698 C 0.54402 0.59834 0.53162 0.0
C699 C 0.56364 0.59868 0.47656 0.0
C700 C 0.53877 0.57761 0.57667 0.0
C701 C 0.55295 0.55607 0.56958 0.0
H702 H 0.53224 0.6142 0.53955 0.0
H703 H 0.52325 0.57857 0.61779 0.0
S704 S 0.60695 0.54744 0.43513 0.0
N705 N 0.59778 0.57566 0.41789 0.0
N706 N 0.58792 0.53656 0.50357 0.0
C707 C 0.57297 0.55615 0.51553 0.0
C708 C 0.57819 0.57739 0.46866 0.0
C709 C 0.93332 0.4579 0.524 0.0
C710 C 0.91407 0.47461 0.50574 0.0
C711 C 0.95397 0.46443 0.56571 0.0
C712 C 0.9564 0.48803 0.5906 0.0
H713 H 0.93214 0.43948 0.50699 0.0
H714 H 0.96804 0.4507 0.57891 0.0
S715 S 0.9116 0.53888 0.55444 0.0
N716 N 0.89914 0.51599 0.51376 0.0
N717 N 0.93777 0.52829 0.59176 0.0
C718 C 0.93735 0.50497 0.57195 0.0
C719 C 0.91629 0.49826 0.52972 0.0
loop_
_geom_bond_atom_site_label_1
_geom_bond_atom_site_label_2
_geom_bond_distance
_geom_bond_site_symmetry_2
_ccdc_geom_bond_type
C0 C1 1.264 . S
C0 C5 1.479 . S
C0 C10 1.465 . S
C1 C0 1.264 . S
C1 C3 1.339 . S
C1 H28 0.931 . S
C2 C3 1.395 . S
C2 C4 1.320 . S
C3 C1 1.339 . S
C3 C2 1.395 . S
C3 H29 0.929 . S
C4 C2 1.320 . S
C4 C5 1.405 . S
C4 H30 0.930 . S
C5 C0 1.479 . S
C5 C4 1.405 . S
C5 H31 0.931 . S
U6 O7 2.454 . S
U6 O8 2.458 . S
U6 C9 2.984 . S
U6 C10 2.847 . S
U6 C23 2.882 . S
U6 O24 2.441 . S
U6 O25 2.420 . S
U6 O26 2.455 . S
U6 O27 2.449 . S
O7 U6 2.454 . S
O7 C9 1.353 . S
O8 U6 2.458 . S
O8 C9 1.286 . S
C9 U6 2.984 . S
C9 O7 1.353 . S
C9 O8 1.286 . S
C9 C11 1.363 . S
C10 C0 1.465 . S
C10 U6 2.847 . S
C10 O24 1.249 . S
C10 O25 1.202 . S
C11 C9 1.363 . S
C11 C13 1.408 . S
C11 C16 1.342 . S
C12 C13 1.310 . S
C12 C15 1.461 . S
C12 H32 0.932 . S
C13 C11 1.408 . S
C13 C12 1.310 . S
C13 H33 0.930 . S
C14 C15 1.474 . S
C14 C16 1.285 . S
C14 H34 0.929 1_554 S
C15 C12 1.461 . S
C15 C14 1.474 . S
C16 C11 1.342 . S
C16 C14 1.285 . S
C16 H35 0.930 . S
C17 C20 1.424 . S
C17 C22 1.245 1_554 S
C17 C23 1.428 . S
C18 C21 1.260 . S
C18 C22 1.477 . S
C18 H36 0.932 . S
C19 C20 1.384 1_556 S
C19 C21 1.479 . S
C19 H37 0.929 . S
C20 C17 1.424 . S
C20 C19 1.384 1_554 S
C20 H38 0.928 . S
C21 C18 1.260 . S
C21 C19 1.479 . S
C22 C17 1.245 1_556 S
C22 C18 1.477 . S
C22 H39 0.932 . S
C23 U6 2.882 . S
C23 C17 1.428 . S
C23 O26 1.301 . S
C23 O27 1.282 . S
O24 U6 2.441 . S
O24 C10 1.249 . S
O25 U6 2.420 . S
O25 C10 1.202 . S
O26 U6 2.455 . S
O26 C23 1.301 . S
O27 U6 2.449 . S
O27 C23 1.282 . S
H28 C1 0.931 . S
H29 C3 0.929 . S
H30 C4 0.930 . S
H31 C5 0.931 . S
H32 C12 0.932 . S
H33 C13 0.930 . S
H34 C14 0.929 1_556 S
H35 C16 0.930 . S
H36 C18 0.932 . S
H37 C19 0.929 . S
H38 C20 0.928 . S
H39 C22 0.932 . S
C40 C41 1.264 . S
C40 C45 1.479 . S
C40 C50 1.465 . S
C41 C40 1.264 . S
C41 C43 1.339 . S
C41 H68 0.931 . S
C42 C43 1.395 . S
C42 C44 1.320 . S
C43 C41 1.339 . S
C43 C42 1.395 . S
C43 H69 0.929 . S
C44 C42 1.320 . S
C44 C45 1.405 . S
C44 H70 0.930 . S
C45 C40 1.479 . S
C45 C44 1.405 . S
C45 H71 0.931 . S
U46 O47 2.454 . S
U46 O48 2.458 1_554 S
U46 C49 2.984 1_554 S
U46 C50 2.847 . S
U46 C63 2.882 1_554 S
U46 O64 2.441 . S
U46 O65 2.420 . S
U46 O66 2.455 1_554 S
U46 O67 2.449 1_554 S
O47 U46 2.454 . S
O47 C49 1.353 1_554 S
O48 U46 2.458 1_556 S
O48 C49 1.286 . S
C49 U46 2.984 1_556 S
C49 O47 1.353 1_556 S
C49 O48 1.286 . S
C49 C51 1.363 . S
C50 C40 1.465 . S
C50 U46 2.847 . S
C50 O64 1.249 . S
C50 O65 1.202 . S
C51 C49 1.363 . S
C51 C53 1.408 1_556 S
C51 C56 1.342 . S
C52 C53 1.310 1_556 S
C52 C55 1.461 . S
C52 H72 0.932 1_556 S
C53 C51 1.408 1_554 S
C53 C52 1.310 1_554 S
C53 H73 0.930 . S
C54 C55 1.474 . S
C54 C56 1.285 . S
C54 H74 0.929 . S
C55 C52 1.461 . S
C55 C54 1.474 . S
C56 C51 1.342 . S
C56 C54 1.285 . S
C56 H75 0.930 . S
C57 C60 1.424 . S
C57 C62 1.245 . S
C57 C63 1.428 . S
C58 C61 1.260 . S
C58 C62 1.477 . S
C58 H76 0.932 . S
C59 C60 1.384 . S
C59 C61 1.479 . S
C59 H77 0.929 . S
C60 C57 1.424 . S
C60 C59 1.384 . S
C60 H78 0.928 . S
C61 C58 1.260 . S
C61 C59 1.479 . S
C62 C57 1.245 . S
C62 C58 1.477 . S
C62 H79 0.932 . S
C63 U46 2.882 1_556 S
C63 C57 1.428 . S
C63 O66 1.301 . S
C63 O67 1.282 . S
O64 U46 2.441 . S
O64 C50 1.249 . S
O65 U46 2.420 . S
O65 C50 1.202 . S
O66 U46 2.455 1_556 S
O66 C63 1.301 . S
O67 U46 2.449 1_556 S
O67 C63 1.282 . S
H68 C41 0.931 . S
H69 C43 0.929 . S
H70 C44 0.930 . S
H71 C45 0.931 . S
H72 C52 0.932 1_554 S
H73 C53 0.930 . S
H74 C54 0.929 . S
H75 C56 0.930 . S
H76 C58 0.932 . S
H77 C59 0.929 . S
H78 C60 0.928 . S
H79 C62 0.932 . S
C80 C81 1.264 . S
C80 C85 1.479 . S
C80 C90 1.465 . S
C81 C80 1.264 . S
C81 C83 1.339 . S
C81 H108 0.931 . S
C82 C83 1.395 . S
C82 C84 1.320 . S
C83 C81 1.339 . S
C83 C82 1.395 . S
C83 H109 0.929 . S
C84 C82 1.320 . S
C84 C85 1.405 . S
C84 H110 0.922 1_545 S
C85 C80 1.479 . S
C85 C84 1.405 . S
C85 H111 0.931 . S
U86 O87 2.454 . S
U86 O88 2.458 . S
U86 C89 2.984 . S
U86 C90 2.847 . S
U86 C103 2.882 1_554 S
U86 O104 2.441 . S
U86 O105 2.420 . S
U86 O106 2.455 1_554 S
U86 O107 2.449 . S
O87 U86 2.454 . S
O87 C89 1.353 . S
O88 U86 2.458 . S
O88 C89 1.286 . S
C89 U86 2.984 . S
C89 O87 1.353 . S
C89 O88 1.286 . S
C89 C91 1.363 . S
C90 C80 1.465 . S
C90 U86 2.847 . S
C90 O104 1.249 . S
C90 O105 1.202 . S
C91 C89 1.363 . S
C91 C93 1.408 . S
C91 C96 1.342 1_554 S
C92 C93 1.310 . S
C92 C95 1.461 1_554 S
C92 H112 0.932 . S
C93 C91 1.408 . S
C93 C92 1.310 . S
C93 H113 0.930 . S
C94 C95 1.474 1_565 S
C94 C96 1.284 1_565 S
C94 H114 0.931 . S
C95 C92 1.461 1_556 S
C95 C94 1.474 1_545 S
C96 C91 1.342 1_556 S
C96 C94 1.284 1_545 S
C96 H115 0.933 . S
C97 C100 1.424 . S
C97 C102 1.245 . S
C97 C103 1.428 . S
C98 C101 1.260 . S
C98 C102 1.477 . S
C98 H116 0.932 . S
C99 C100 1.384 . S
C99 C101 1.479 . S
C99 H117 0.929 . S
C100 C97 1.424 . S
C100 C99 1.384 . S
C100 H118 0.928 1_556 S
C101 C98 1.260 . S
C101 C99 1.479 . S
C102 C97 1.245 . S
C102 C98 1.477 . S
C102 H119 0.932 . S
C103 U86 2.882 1_556 S
C103 C97 1.428 . S
C103 O106 1.301 . S
C103 O107 1.282 1_556 S
O104 U86 2.441 . S
O104 C90 1.249 . S
O105 U86 2.420 . S
O105 C90 1.202 . S
O106 U86 2.455 1_556 S
O106 C103 1.301 . S
O107 U86 2.449 . S
O107 C103 1.282 1_554 S
H108 C81 0.931 . S
H109 C83 0.929 . S
H110 C84 0.922 1_565 S
H111 C85 0.931 . S
H112 C92 0.932 . S
H113 C93 0.930 . S
H114 C94 0.931 . S
H115 C96 0.933 . S
H116 C98 0.932 . S
H117 C99 0.929 . S
H118 C100 0.928 1_554 S
H119 C102 0.932 . S
C120 C121 1.264 . S
C120 C125 1.479 . S
C120 C130 1.465 . S
C121 C120 1.264 . S
C121 C123 1.339 . S
C121 H148 0.931 . S
C122 C123 1.395 . S
C122 C124 1.320 . S
C123 C121 1.339 . S
C123 C122 1.395 . S
C123 H149 0.929 . S
C124 C122 1.320 . S
C124 C125 1.405 . S
C124 H150 0.930 . S
C125 C120 1.479 . S
C125 C124 1.405 . S
C125 H151 0.931 . S
U126 O127 2.454 . S
U126 O128 2.458 . S
U126 C129 2.984 . S
U126 C130 2.847 . S
U126 C143 2.882 . S
U126 O144 2.441 . S
U126 O145 2.420 . S
U126 O146 2.455 1_554 S
U126 O147 2.449 . S
O127 U126 2.454 . S
O127 C129 1.353 . S
O128 U126 2.458 . S
O128 C129 1.286 . S
C129 U126 2.984 . S
C129 O127 1.353 . S
C129 O128 1.286 . S
C129 C131 1.363 . S
C130 C120 1.465 . S
C130 U126 2.847 . S
C130 O144 1.249 . S
C130 O145 1.202 . S
C131 C129 1.363 . S
C131 C133 1.408 . S
C131 C136 1.342 1_554 S
C132 C133 1.310 . S
C132 C135 1.461 . S
C132 H152 0.932 . S
C133 C131 1.408 . S
C133 C132 1.310 . S
C133 H153 0.930 . S
C134 C135 1.474 1_556 S
C134 C136 1.285 . S
C134 H154 0.929 . S
C135 C132 1.461 . S
C135 C134 1.474 1_554 S
C136 C131 1.342 1_556 S
C136 C134 1.285 . S
C136 H155 0.930 . S
C137 C140 1.424 . S
C137 C142 1.245 . S
C137 C143 1.428 1_556 S
C138 C141 1.260 . S
C138 C142 1.477 . S
C138 H156 0.932 . S
C139 C140 1.384 . S
C139 C141 1.479 . S
C139 H157 0.929 . S
C140 C137 1.424 . S
C140 C139 1.384 . S
C140 H158 0.928 1_556 S
C141 C138 1.260 . S
C141 C139 1.479 . S
C142 C137 1.245 . S
C142 C138 1.477 . S
C142 H159 0.932 . S
C143 U126 2.882 . S
C143 C137 1.428 1_554 S
C143 O146 1.301 1_554 S
C143 O147 1.282 . S
O144 U126 2.441 . S
O144 C130 1.249 . S
O145 U126 2.420 . S
O145 C130 1.202 . S
O146 U126 2.455 1_556 S
O146 C143 1.301 1_556 S
O147 U126 2.449 . S
O147 C143 1.282 . S
H148 C121 0.931 . S
H149 C123 0.929 . S
H150 C124 0.930 . S
H151 C125 0.931 . S
H152 C132 0.932 . S
H153 C133 0.930 . S
H154 C134 0.929 . S
H155 C136 0.930 . S
H156 C138 0.932 . S
H157 C139 0.929 . S
H158 C140 0.928 1_554 S
H159 C142 0.932 . S
C160 C161 1.264 . S
C160 C165 1.479 . S
C160 C170 1.465 . S
C161 C160 1.264 . S
C161 C163 1.339 1_554 S
C161 H188 0.931 . S
C162 C163 1.395 . S
C162 C164 1.320 . S
C163 C161 1.339 1_556 S
C163 C162 1.395 . S
C163 H189 0.929 . S
C164 C162 1.320 . S
C164 C165 1.405 1_556 S
C164 H190 0.930 . S
C165 C160 1.479 . S
C165 C164 1.405 1_554 S
C165 H191 0.931 . S
U166 O167 2.454 . S
U166 O168 2.458 . S
U166 C169 2.984 . S
U166 C170 2.847 . S
U166 C183 2.882 . S
U166 O184 2.441 . S
U166 O185 2.420 . S
U166 O186 2.455 . S
U166 O187 2.449 . S
O167 U166 2.454 . S
O167 C169 1.353 . S
O168 U166 2.458 . S
O168 C169 1.286 . S
C169 U166 2.984 . S
C169 O167 1.353 . S
C169 O168 1.286 . S
C169 C171 1.363 . S
C170 C160 1.465 . S
C170 U166 2.847 . S
C170 O184 1.249 . S
C170 O185 1.202 . S
C171 C169 1.363 . S
C171 C173 1.408 . S
C171 C176 1.342 . S
C172 C173 1.310 . S
C172 C175 1.461 . S
C172 H192 0.932 . S
C173 C171 1.408 . S
C173 C172 1.310 . S
C173 H193 0.930 . S
C174 C175 1.474 . S
C174 C176 1.285 . S
C174 H194 0.929 . S
C175 C172 1.461 . S
C175 C174 1.474 . S
C176 C171 1.342 . S
C176 C174 1.285 . S
C176 H195 0.930 . S
C177 C180 1.424 . S
C177 C182 1.245 . S
C177 C183 1.428 . S
C178 C181 1.260 . S
C178 C182 1.477 . S
C178 H196 0.932 . S
C179 C180 1.384 . S
C179 C181 1.479 . S
C179 H197 0.929 . S
C180 C177 1.424 . S
C180 C179 1.384 . S
C180 H198 0.928 . S
C181 C178 1.260 . S
C181 C179 1.479 . S
C182 C177 1.245 . S
C182 C178 1.477 . S
C182 H199 0.932 . S
C183 U166 2.882 . S
C183 C177 1.428 . S
C183 O186 1.301 . S
C183 O187 1.282 . S
O184 U166 2.441 . S
O184 C170 1.249 . S
O185 U166 2.420 . S
O185 C170 1.202 . S
O186 U166 2.455 . S
O186 C183 1.301 . S
O187 U166 2.449 . S
O187 C183 1.282 . S
H188 C161 0.931 . S
H189 C163 0.929 . S
H190 C164 0.930 . S
H191 C165 0.931 . S
H192 C172 0.932 . S
H193 C173 0.930 . S
H194 C174 0.929 . S
H195 C176 0.930 . S
H196 C178 0.932 . S
H197 C179 0.929 . S
H198 C180 0.928 . S
H199 C182 0.932 . S
C200 C201 1.264 . S
C200 C205 1.479 . S
C200 C210 1.465 . S
C201 C200 1.264 . S
C201 C203 1.339 . S
C201 H228 0.931 . S
C202 C203 1.395 . S
C202 C204 1.320 . S
C203 C201 1.339 . S
C203 C202 1.395 . S
C203 H229 0.929 . S
C204 C202 1.320 . S
C204 C205 1.405 . S
C204 H230 0.930 . S
C205 C200 1.479 . S
C205 C204 1.405 . S
C205 H231 0.931 . S
U206 O207 2.454 . S
U206 O208 2.458 . S
U206 C209 2.984 . S
U206 C210 2.847 . S
U206 C223 2.882 . S
U206 O224 2.441 . S
U206 O225 2.420 . S
U206 O226 2.455 . S
U206 O227 2.449 . S
O207 U206 2.454 . S
O207 C209 1.353 . S
O208 U206 2.458 . S
O208 C209 1.286 . S
C209 U206 2.984 . S
C209 O207 1.353 . S
C209 O208 1.286 . S
C209 C211 1.363 . S
C210 C200 1.465 . S
C210 U206 2.847 . S
C210 O224 1.249 . S
C210 O225 1.202 . S
C211 C209 1.363 . S
C211 C213 1.408 . S
C211 C216 1.342 . S
C212 C213 1.310 . S
C212 C215 1.461 . S
C212 H232 0.932 . S
C213 C211 1.408 . S
C213 C212 1.310 . S
C213 H233 0.930 . S
C214 C215 1.474 . S
C214 C216 1.285 . S
C214 H234 0.929 . S
C215 C212 1.461 . S
C215 C214 1.474 . S
C216 C211 1.342 . S
C216 C214 1.285 . S
C216 H235 0.930 . S
C217 C220 1.424 . S
C217 C222 1.245 . S
C217 C223 1.428 . S
C218 C221 1.260 . S
C218 C222 1.477 . S
C218 H236 0.932 . S
C219 C220 1.384 . S
C219 C221 1.479 . S
C219 H237 0.929 . S
C220 C217 1.424 . S
C220 C219 1.384 . S
C220 H238 0.928 . S
C221 C218 1.260 . S
C221 C219 1.479 . S
C222 C217 1.245 . S
C222 C218 1.477 . S
C222 H239 0.932 . S
C223 U206 2.882 . S
C223 C217 1.428 . S
C223 O226 1.301 . S
C223 O227 1.282 . S
O224 U206 2.441 . S
O224 C210 1.249 . S
O225 U206 2.420 . S
O225 C210 1.202 . S
O226 U206 2.455 . S
O226 C223 1.301 . S
O227 U206 2.449 . S
O227 C223 1.282 . S
H228 C201 0.931 . S
H229 C203 0.929 . S
H230 C204 0.930 . S
H231 C205 0.931 . S
H232 C212 0.932 . S
H233 C213 0.930 . S
H234 C214 0.929 . S
H235 C216 0.930 . S
H236 C218 0.932 . S
H237 C219 0.929 . S
H238 C220 0.928 . S
H239 C222 0.932 . S
C240 C241 1.264 . S
C240 C245 1.479 . S
C240 C250 1.465 . S
C241 C240 1.264 . S
C241 C243 1.339 . S
C241 H268 0.931 . S
C242 C243 1.395 1_556 S
C242 C244 1.320 1_556 S
C243 C241 1.339 . S
C243 C242 1.395 1_554 S
C243 H269 0.929 . S
C244 C242 1.320 1_554 S
C244 C245 1.405 . S
C244 H270 0.922 1_544 S
C245 C240 1.479 . S
C245 C244 1.405 . S
C245 H271 0.931 . S
U246 O247 2.454 . S
U246 O248 2.458 . S
U246 C249 2.984 . S
U246 C250 2.847 . S
U246 C263 2.882 . S
U246 O264 2.441 . S
U246 O265 2.420 . S
U246 O266 2.455 . S
U246 O267 2.449 . S
O247 U246 2.454 . S
O247 C249 1.353 . S
O248 U246 2.458 . S
O248 C249 1.286 . S
C249 U246 2.984 . S
C249 O247 1.353 . S
C249 O248 1.286 . S
C249 C251 1.363 . S
C250 C240 1.465 . S
C250 U246 2.847 . S
C250 O264 1.249 . S
C250 O265 1.202 . S
C251 C249 1.363 . S
C251 C253 1.408 . S
C251 C256 1.342 . S
C252 C253 1.310 . S
C252 C255 1.461 . S
C252 H272 0.932 . S
C253 C251 1.408 . S
C253 C252 1.310 . S
C253 H273 0.930 . S
C254 C255 1.474 1_565 S
C254 C256 1.285 1_565 S
C254 H274 0.929 . S
C255 C252 1.461 . S
C255 C254 1.474 1_545 S
C256 C251 1.342 . S
C256 C254 1.285 1_545 S
C256 H275 0.930 . S
C257 C260 1.424 . S
C257 C262 1.245 . S
C257 C263 1.428 . S
C258 C261 1.260 . S
C258 C262 1.477 . S
C258 H276 0.932 . S
C259 C260 1.384 . S
C259 C261 1.479 . S
C259 H277 0.929 . S
C260 C257 1.424 . S
C260 C259 1.384 . S
C260 H278 0.928 . S
C261 C258 1.260 . S
C261 C259 1.479 . S
C262 C257 1.245 . S
C262 C258 1.477 . S
C262 H279 0.932 . S
C263 U246 2.882 . S
C263 C257 1.428 . S
C263 O266 1.301 . S
C263 O267 1.282 . S
O264 U246 2.441 . S
O264 C250 1.249 . S
O265 U246 2.420 . S
O265 C250 1.202 . S
O266 U246 2.455 . S
O266 C263 1.301 . S
O267 U246 2.449 . S
O267 C263 1.282 . S
H268 C241 0.931 . S
H269 C243 0.929 . S
H270 C244 0.922 1_566 S
H271 C245 0.931 . S
H272 C252 0.932 . S
H273 C253 0.930 . S
H274 C254 0.929 . S
H275 C256 0.930 . S
H276 C258 0.932 . S
H277 C259 0.929 . S
H278 C260 0.928 . S
H279 C262 0.932 . S
C280 C281 1.264 . S
C280 C285 1.479 . S
C280 C290 1.465 . S
C281 C280 1.264 . S
C281 C283 1.339 . S
C281 H308 0.931 . S
C282 C283 1.395 1_556 S
C282 C284 1.320 . S
C283 C281 1.339 . S
C283 C282 1.395 1_554 S
C283 H309 0.929 . S
C284 C282 1.320 . S
C284 C285 1.405 1_556 S
C284 H310 0.930 . S
C285 C280 1.479 . S
C285 C284 1.405 1_554 S
C285 H311 0.931 . S
U286 O287 2.454 . S
U286 O288 2.458 . S
U286 C289 2.984 . S
U286 C290 2.847 . S
U286 C303 2.882 . S
U286 O304 2.441 . S
U286 O305 2.420 . S
U286 O306 2.455 . S
U286 O307 2.449 . S
O287 U286 2.454 . S
O287 C289 1.353 . S
O288 U286 2.458 . S
O288 C289 1.286 . S
C289 U286 2.984 . S
C289 O287 1.353 . S
C289 O288 1.286 . S
C289 C291 1.363 . S
C290 C280 1.465 . S
C290 U286 2.847 . S
C290 O304 1.249 . S
C290 O305 1.202 . S
C291 C289 1.363 . S
C291 C293 1.408 . S
C291 C296 1.342 . S
C292 C293 1.310 . S
C292 C295 1.461 . S
C292 H312 0.932 . S
C293 C291 1.408 . S
C293 C292 1.310 . S
C293 H313 0.930 . S
C294 C295 1.474 . S
C294 C296 1.285 . S
C294 H314 0.929 . S
C295 C292 1.461 . S
C295 C294 1.474 . S
C296 C291 1.342 . S
C296 C294 1.285 . S
C296 H315 0.930 . S
C297 C300 1.424 . S
C297 C302 1.245 . S
C297 C303 1.428 . S
C298 C301 1.260 . S
C298 C302 1.477 . S
C298 H316 0.932 . S
C299 C300 1.384 . S
C299 C301 1.479 . S
C299 H317 0.929 . S
C300 C297 1.424 . S
C300 C299 1.384 . S
C300 H318 0.928 . S
C301 C298 1.260 . S
C301 C299 1.479 . S
C302 C297 1.245 . S
C302 C298 1.477 . S
C302 H319 0.932 . S
C303 U286 2.882 . S
C303 C297 1.428 . S
C303 O306 1.301 . S
C303 O307 1.282 . S
O304 U286 2.441 . S
O304 C290 1.249 . S
O305 U286 2.420 . S
O305 C290 1.202 . S
O306 U286 2.455 . S
O306 C303 1.301 . S
O307 U286 2.449 . S
O307 C303 1.282 . S
H308 C281 0.931 . S
H309 C283 0.929 . S
H310 C284 0.930 . S
H311 C285 0.931 . S
H312 C292 0.932 . S
H313 C293 0.930 . S
H314 C294 0.929 . S
H315 C296 0.930 . S
H316 C298 0.932 . S
H317 C299 0.929 . S
H318 C300 0.928 . S
H319 C302 0.932 . S
C320 O336 1.251 . S
C320 O338 1.254 . S
N321 C322 1.333 . S
N321 C326 1.307 . S
N321 Zn327 2.020 1_655 S
C322 N321 1.333 . S
C322 C323 1.379 . S
C322 H340 0.952 1_655 S
C323 C322 1.379 . S
C323 C324 1.390 . S
C323 H350 0.949 . S
C324 C323 1.390 . S
C324 C325 1.357 . S
C325 C324 1.357 . S
C325 C326 1.370 . S
C325 H351 0.950 . S
C326 N321 1.307 . S
C326 C325 1.370 . S
C326 H344 0.948 1_565 S
Zn327 N321 2.020 1_455 S
Zn327 O336 2.039 . S
Zn327 O342 2.034 . S
Zn327 O346 2.025 1_565 S
Zn327 O348 2.031 1_455 S
C328 O347 1.246 . S
C328 O348 1.239 1_545 S
N329 C330 1.307 . S
N329 C331 1.333 . S
N329 Zn335 2.020 . S
C330 N329 1.307 . S
C330 C334 1.370 . S
C330 H341 0.948 1_545 S
C331 N329 1.333 . S
C331 C332 1.379 . S
C331 H339 0.952 . S
C332 C331 1.379 . S
C332 C333 1.390 . S
C332 H352 0.949 . S
C333 C332 1.390 . S
C333 C334 1.357 . S
C334 C330 1.370 . S
C334 C333 1.357 . S
C334 H353 0.950 1_556 S
Zn335 N329 2.020 . S
Zn335 O338 2.025 1_545 S
Zn335 O343 2.035 . S
Zn335 O345 2.039 . S
Zn335 O347 2.034 1_455 S
O336 C320 1.251 . S
O336 Zn327 2.039 . S
C337 O342 1.246 . S
C337 O343 1.235 1_565 S
O338 C320 1.254 . S
O338 Zn335 2.025 1_565 S
H339 C331 0.952 . S
H340 C322 0.952 1_455 S
H341 C330 0.948 1_565 S
O342 Zn327 2.034 . S
O342 C337 1.246 . S
O343 Zn335 2.035 . S
O343 C337 1.235 1_545 S
H344 C326 0.948 1_545 S
O345 Zn335 2.039 . S
O345 C349 1.251 . S
O346 Zn327 2.025 1_545 S
O346 C349 1.254 . S
O347 C328 1.246 . S
O347 Zn335 2.034 1_655 S
O348 Zn327 2.031 1_655 S
O348 C328 1.239 1_565 S
C349 O345 1.251 . S
C349 O346 1.254 . S
H350 C323 0.949 . S
H351 C325 0.950 . S
H352 C332 0.949 . S
H353 C334 0.950 1_554 S
C354 O370 1.251 1_565 S
C354 O372 1.254 . S
N355 C356 1.333 . S
N355 C360 1.307 . S
N355 Zn361 2.020 . S
C356 N355 1.333 . S
C356 C357 1.379 . S
C356 H374 0.952 . S
C357 C356 1.379 . S
C357 C358 1.390 . S
C357 H384 0.949 . S
C358 C357 1.390 . S
C358 C359 1.357 . S
C359 C358 1.357 . S
C359 C360 1.370 . S
C359 H385 0.950 . S
C360 N355 1.307 . S
C360 C359 1.370 . S
C360 H378 0.948 . S
Zn361 N355 2.020 . S
Zn361 O370 2.039 . S
Zn361 O376 2.034 . S
Zn361 O380 2.025 . S
Zn361 O382 2.024 . S
C362 O381 1.246 1_545 S
C362 O382 1.249 . S
N363 C364 1.307 . S
N363 C365 1.333 . S
N363 Zn369 2.020 . S
C364 N363 1.307 . S
C364 C368 1.370 . S
C364 H375 0.948 . S
C365 N363 1.333 . S
C365 C366 1.379 . S
C365 H373 0.952 . S
C366 C365 1.379 . S
C366 C367 1.390 . S
C366 H386 0.949 . S
C367 C366 1.390 . S
C367 C368 1.357 . S
C368 C364 1.370 . S
C368 C367 1.357 . S
C368 H387 0.950 . S
Zn369 N363 2.020 . S
Zn369 O372 2.025 . S
Zn369 O377 2.024 . S
Zn369 O379 2.039 . S
Zn369 O381 2.034 . S
O370 C354 1.251 1_545 S
O370 Zn361 2.039 . S
C371 O376 1.246 1_565 S
C371 O377 1.249 . S
O372 C354 1.254 . S
O372 Zn369 2.025 . S
H373 C365 0.952 . S
H374 C356 0.952 . S
H375 C364 0.948 . S
O376 Zn361 2.034 . S
O376 C371 1.246 1_545 S
O377 Zn369 2.024 . S
O377 C371 1.249 . S
H378 C360 0.948 . S
O379 Zn369 2.039 . S
O379 C383 1.251 1_565 S
O380 Zn361 2.025 . S
O380 C383 1.254 . S
O381 C362 1.246 1_565 S
O381 Zn369 2.034 . S
O382 Zn361 2.024 . S
O382 C362 1.249 . S
C383 O379 1.251 1_545 S
C383 O380 1.254 . S
H384 C357 0.949 . S
H385 C359 0.950 . S
H386 C366 0.949 . S
H387 C368 0.950 . S
C388 O404 1.251 . S
C388 O406 1.254 . S
N389 C390 1.333 . S
N389 C394 1.307 . S
N389 Zn395 2.020 . S
C390 N389 1.333 . S
C390 C391 1.379 . S
C390 H408 0.952 . S
C391 C390 1.379 . S
C391 C392 1.390 . S
C391 H418 0.949 . S
C392 C391 1.390 . S
C392 C393 1.357 . S
C393 C392 1.357 . S
C393 C394 1.370 . S
C393 H419 0.950 . S
C394 N389 1.307 . S
C394 C393 1.370 . S
C394 H412 0.948 . S
Zn395 N389 2.020 . S
Zn395 O404 2.039 . S
Zn395 O410 2.034 . S
Zn395 O414 2.025 . S
Zn395 O416 2.024 . S
C396 O415 1.246 . S
C396 O416 1.249 . S
N397 C398 1.307 . S
N397 C399 1.333 . S
N397 Zn403 2.020 . S
C398 N397 1.307 . S
C398 C402 1.370 . S
C398 H409 0.948 . S
C399 N397 1.333 . S
C399 C400 1.379 . S
C399 H407 0.952 . S
C400 C399 1.379 . S
C400 C401 1.390 . S
C400 H420 0.949 . S
C401 C400 1.390 . S
C401 C402 1.357 . S
C402 C398 1.370 . S
C402 C401 1.357 . S
C402 H421 0.950 . S
Zn403 N397 2.020 . S
Zn403 O406 2.025 . S
Zn403 O411 2.024 . S
Zn403 O413 2.039 . S
Zn403 O415 2.034 . S
O404 C388 1.251 . S
O404 Zn395 2.039 . S
C405 O410 1.246 . S
C405 O411 1.249 . S
O406 C388 1.254 . S
O406 Zn403 2.025 . S
H407 C399 0.952 . S
H408 C390 0.952 . S
H409 C398 0.948 . S
O410 Zn395 2.034 . S
O410 C405 1.246 . S
O411 Zn403 2.024 . S
O411 C405 1.249 . S
H412 C394 0.948 . S
O413 Zn403 2.039 . S
O413 C417 1.251 . S
O414 Zn395 2.025 . S
O414 C417 1.254 . S
O415 C396 1.246 . S
O415 Zn403 2.034 . S
O416 Zn395 2.024 . S
O416 C396 1.249 . S
C417 O413 1.251 . S
C417 O414 1.254 . S
H418 C391 0.949 . S
H419 C393 0.950 . S
H420 C400 0.949 . S
H421 C402 0.950 . S
C422 O438 1.251 . S
C422 O440 1.254 . S
N423 C424 1.333 . S
N423 C428 1.307 . S
N423 Zn429 2.020 . S
C424 N423 1.333 . S
C424 C425 1.379 . S
C424 H442 0.952 . S
C425 C424 1.379 . S
C425 C426 1.390 . S
C425 H452 0.949 . S
C426 C425 1.390 . S
C426 C427 1.357 . S
C427 C426 1.357 . S
C427 C428 1.370 . S
C427 H453 0.950 . S
C428 N423 1.307 . S
C428 C427 1.370 . S
C428 H446 0.948 . S
Zn429 N423 2.020 . S
Zn429 O438 2.039 . S
Zn429 O444 2.034 1_455 S
Zn429 O448 2.025 1_455 S
Zn429 O450 2.024 . S
C430 O449 1.246 . S
C430 O450 1.249 . S
N431 C432 1.307 . S
N431 C433 1.324 1_455 S
N431 Zn437 2.024 . S
C432 N431 1.307 . S
C432 C436 1.370 1_455 S
C432 H443 0.948 . S
C433 N431 1.324 1_655 S
C433 C434 1.379 . S
C433 H441 0.952 . S
C434 C433 1.379 . S
C434 C435 1.390 . S
C434 H454 0.949 . S
C435 C434 1.390 . S
C435 C436 1.357 . S
C436 C432 1.370 1_655 S
C436 C435 1.357 . S
C436 H455 0.950 . S
Zn437 N431 2.024 . S
Zn437 O440 2.025 . S
Zn437 O445 2.024 1_455 S
Zn437 O447 2.039 1_455 S
Zn437 O449 2.034 . S
O438 C422 1.251 . S
O438 Zn429 2.039 . S
C439 O444 1.246 . S
C439 O445 1.249 . S
O440 C422 1.254 . S
O440 Zn437 2.025 . S
H441 C433 0.952 . S
H442 C424 0.952 . S
H443 C432 0.948 . S
O444 Zn429 2.034 1_655 S
O444 C439 1.246 . S
O445 Zn437 2.024 1_655 S
O445 C439 1.249 . S
H446 C428 0.948 . S
O447 Zn437 2.039 1_655 S
O447 C451 1.251 . S
O448 Zn429 2.025 1_655 S
O448 C451 1.254 . S
O449 C430 1.246 . S
O449 Zn437 2.034 . S
O450 Zn429 2.024 . S
O450 C430 1.249 . S
C451 O447 1.251 . S
C451 O448 1.254 . S
H452 C425 0.949 . S
H453 C427 0.950 . S
H454 C434 0.949 . S
H455 C436 0.950 . S
C456 C457 1.369 . S
C456 C458 1.419 . S
C456 H460 0.930 . S
C457 C456 1.369 . S
C457 C466 1.429 1_565 S
C458 C456 1.419 . S
C458 C459 1.363 . S
C458 H461 0.929 . S
C459 C458 1.363 . S
C459 C465 1.428 1_565 S
H460 C456 0.930 . S
H461 C458 0.929 . S
S462 N463 1.613 . S
S462 N464 1.610 . S
N463 S462 1.613 . S
N463 C466 1.350 . S
N464 S462 1.610 . S
N464 C465 1.351 . S
C465 C459 1.428 1_545 S
C465 N464 1.351 . S
C465 C466 1.434 . S
C466 C457 1.429 1_545 S
C466 N463 1.350 . S
C466 C465 1.434 . S
C467 C468 1.369 . S
C467 C469 1.419 . S
C467 H471 0.930 . S
C468 C467 1.369 . S
C468 C477 1.429 . S
C469 C467 1.419 . S
C469 C470 1.363 . S
C469 H472 0.929 . S
C470 C469 1.363 . S
C470 C476 1.428 . S
H471 C467 0.930 . S
H472 C469 0.929 . S
S473 N474 1.613 . S
S473 N475 1.610 . S
N474 S473 1.613 . S
N474 C477 1.350 . S
N475 S473 1.610 . S
N475 C476 1.351 . S
C476 C470 1.428 . S
C476 N475 1.351 . S
C476 C477 1.434 . S
C477 C468 1.429 . S
C477 N474 1.350 . S
C477 C476 1.434 . S
C478 C479 1.369 . S
C478 C480 1.419 . S
C478 H482 0.930 . S
C479 C478 1.369 . S
C479 C488 1.429 . S
C480 C478 1.419 . S
C480 C481 1.363 . S
C480 H483 0.929 . S
C481 C480 1.363 . S
C481 C487 1.428 . S
H482 C478 0.930 . S
H483 C480 0.929 . S
S484 N485 1.613 . S
S484 N486 1.610 . S
N485 S484 1.613 . S
N485 C488 1.350 . S
N486 S484 1.610 . S
N486 C487 1.351 . S
C487 C481 1.428 . S
C487 N486 1.351 . S
C487 C488 1.434 . S
C488 C479 1.429 . S
C488 N485 1.350 . S
C488 C487 1.434 . S
C489 C490 1.369 . S
C489 C491 1.419 . S
C489 H493 0.930 . S
C490 C489 1.369 . S
C490 C499 1.429 . S
C491 C489 1.419 . S
C491 C492 1.363 . S
C491 H494 0.929 . S
C492 C491 1.363 . S
C492 C498 1.428 . S
H493 C489 0.930 . S
H494 C491 0.929 . S
S495 N496 1.613 . S
S495 N497 1.610 . S
N496 S495 1.613 . S
N496 C499 1.350 . S
N497 S495 1.610 . S
N497 C498 1.351 . S
C498 C492 1.428 . S
C498 N497 1.351 . S
C498 C499 1.434 . S
C499 C490 1.429 . S
C499 N496 1.350 . S
C499 C498 1.434 . S
C500 C501 1.369 1_565 S
C500 C502 1.419 . S
C500 H504 0.930 . S
C501 C500 1.369 1_545 S
C501 C510 1.429 . S
C502 C500 1.419 . S
C502 C503 1.363 1_565 S
C502 H505 0.929 . S
C503 C502 1.363 1_545 S
C503 C509 1.428 . S
H504 C500 0.930 . S
H505 C502 0.929 . S
S506 N507 1.613 . S
S506 N508 1.610 . S
N507 S506 1.613 . S
N507 C510 1.350 . S
N508 S506 1.610 . S
N508 C509 1.351 . S
C509 C503 1.428 . S
C509 N508 1.351 . S
C509 C510 1.434 . S
C510 C501 1.429 . S
C510 N507 1.350 . S
C510 C509 1.434 . S
C511 C512 1.369 . S
C511 C513 1.419 . S
C511 H515 0.930 . S
C512 C511 1.369 . S
C512 C521 1.429 . S
C513 C511 1.419 . S
C513 C514 1.363 . S
C513 H516 0.929 . S
C514 C513 1.363 . S
C514 C520 1.428 . S
H515 C511 0.930 . S
H516 C513 0.929 . S
S517 N518 1.613 . S
S517 N519 1.610 . S
N518 S517 1.613 . S
N518 C521 1.350 . S
N519 S517 1.610 . S
N519 C520 1.351 . S
C520 C514 1.428 . S
C520 N519 1.351 . S
C520 C521 1.434 . S
C521 C512 1.429 . S
C521 N518 1.350 . S
C521 C520 1.434 . S
C522 C523 1.369 1_556 S
C522 C524 1.419 . S
C522 H526 0.930 1_556 S
C523 C522 1.369 1_554 S
C523 C532 1.429 1_554 S
C524 C522 1.419 . S
C524 C525 1.363 . S
C524 H527 0.929 . S
C525 C524 1.363 . S
C525 C531 1.428 . S
H526 C522 0.930 1_554 S
H527 C524 0.929 . S
S528 N529 1.613 . S
S528 N530 1.610 . S
N529 S528 1.613 . S
N529 C532 1.350 . S
N530 S528 1.610 . S
N530 C531 1.351 . S
C531 C525 1.428 . S
C531 N530 1.351 . S
C531 C532 1.434 . S
C532 C523 1.429 1_556 S
C532 N529 1.350 . S
C532 C531 1.434 . S
C533 C534 1.369 . S
C533 C535 1.419 . S
C533 H537 0.930 . S
C534 C533 1.369 . S
C534 C543 1.429 . S
C535 C533 1.419 . S
C535 C536 1.363 . S
C535 H538 0.929 . S
C536 C535 1.363 . S
C536 C542 1.428 . S
H537 C533 0.930 . S
H538 C535 0.929 . S
S539 N540 1.613 . S
S539 N541 1.610 . S
N540 S539 1.613 . S
N540 C543 1.350 . S
N541 S539 1.610 . S
N541 C542 1.351 . S
C542 C536 1.428 . S
C542 N541 1.351 . S
C542 C543 1.434 . S
C543 C534 1.429 . S
C543 N540 1.350 . S
C543 C542 1.434 . S
C544 C545 1.369 . S
C544 C546 1.419 . S
C544 H548 0.930 . S
C545 C544 1.369 . S
C545 C554 1.429 . S
C546 C544 1.419 . S
C546 C547 1.363 . S
C546 H549 0.929 . S
C547 C546 1.363 . S
C547 C553 1.428 . S
H548 C544 0.930 . S
H549 C546 0.929 . S
S550 N551 1.613 . S
S550 N552 1.610 . S
N551 S550 1.613 . S
N551 C554 1.350 . S
N552 S550 1.610 . S
N552 C553 1.351 . S
C553 C547 1.428 . S
C553 N552 1.351 . S
C553 C554 1.434 . S
C554 C545 1.429 . S
C554 N551 1.350 . S
C554 C553 1.434 . S
C555 C556 1.367 1_565 S
C555 C557 1.419 . S
C555 H559 0.930 . S
C556 C555 1.367 1_545 S
C556 C565 1.430 . S
C557 C555 1.419 . S
C557 C558 1.363 . S
C557 H560 0.929 . S
C558 C557 1.363 . S
C558 C564 1.428 1_565 S
H559 C555 0.930 . S
H560 C557 0.929 . S
S561 N562 1.613 . S
S561 N563 1.610 . S
N562 S561 1.613 . S
N562 C565 1.350 . S
N563 S561 1.610 . S
N563 C564 1.351 . S
C564 C558 1.428 1_545 S
C564 N563 1.351 . S
C564 C565 1.434 . S
C565 C556 1.430 . S
C565 N562 1.350 . S
C565 C564 1.434 . S
C566 C567 1.369 . S
C566 C568 1.419 . S
C566 H570 0.930 . S
C567 C566 1.369 . S
C567 C576 1.429 . S
C568 C566 1.419 . S
C568 C569 1.363 . S
C568 H571 0.929 . S
C569 C568 1.363 . S
C569 C575 1.428 . S
H570 C566 0.930 . S
H571 C568 0.929 . S
S572 N573 1.613 . S
S572 N574 1.610 . S
N573 S572 1.613 . S
N573 C576 1.350 . S
N574 S572 1.610 . S
N574 C575 1.351 . S
C575 C569 1.428 . S
C575 N574 1.351 . S
C575 C576 1.434 . S
C576 C567 1.429 . S
C576 N573 1.350 . S
C576 C575 1.434 . S
C577 C578 1.369 . S
C577 C579 1.419 . S
C577 H581 0.930 . S
C578 C577 1.369 . S
C578 C587 1.429 . S
C579 C577 1.419 . S
C579 C580 1.363 . S
C579 H582 0.929 . S
C580 C579 1.363 . S
C580 C586 1.428 . S
H581 C577 0.930 . S
H582 C579 0.929 . S
S583 N584 1.613 . S
S583 N585 1.610 . S
N584 S583 1.613 . S
N584 C587 1.350 . S
N585 S583 1.610 . S
N585 C586 1.351 . S
C586 C580 1.428 . S
C586 N585 1.351 . S
C586 C587 1.434 . S
C587 C578 1.429 . S
C587 N584 1.350 . S
C587 C586 1.434 . S
C588 C589 1.369 . S
C588 C590 1.419 . S
C588 H592 0.930 . S
C589 C588 1.369 . S
C589 C598 1.429 . S
C590 C588 1.419 . S
C590 C591 1.363 . S
C590 H593 0.929 . S
C591 C590 1.363 . S
C591 C597 1.428 . S
H592 C588 0.930 . S
H593 C590 0.929 . S
S594 N595 1.613 . S
S594 N596 1.610 . S
N595 S594 1.613 . S
N595 C598 1.350 . S
N596 S594 1.610 . S
N596 C597 1.351 . S
C597 C591 1.428 . S
C597 N596 1.351 . S
C597 C598 1.434 . S
C598 C589 1.429 . S
C598 N595 1.350 . S
C598 C597 1.434 . S
C599 C600 1.356 1_565 S
C599 C601 1.419 . S
C599 H603 0.930 . S
C600 C599 1.356 1_545 S
C600 C609 1.449 . S
C601 C599 1.419 . S
C601 C602 1.363 1_565 S
C601 H604 0.929 . S
C602 C601 1.363 1_545 S
C602 C608 1.428 . S
H603 C599 0.930 . S
H604 C601 0.929 . S
S605 N606 1.613 . S
S605 N607 1.610 . S
N606 S605 1.613 . S
N606 C609 1.350 . S
N607 S605 1.610 . S
N607 C608 1.351 . S
C608 C602 1.428 . S
C608 N607 1.351 . S
C608 C609 1.434 . S
C609 C600 1.449 . S
C609 N606 1.350 . S
C609 C608 1.434 . S
C610 C611 1.369 . S
C610 C612 1.419 . S
C610 H614 0.930 . S
C611 C610 1.369 . S
C611 C620 1.429 . S
C612 C610 1.419 . S
C612 C613 1.363 . S
C612 H615 0.929 . S
C613 C612 1.363 . S
C613 C619 1.428 . S
H614 C610 0.930 . S
H615 C612 0.929 . S
S616 N617 1.613 . S
S616 N618 1.610 . S
N617 S616 1.613 . S
N617 C620 1.350 . S
N618 S616 1.610 . S
N618 C619 1.351 . S
C619 C613 1.428 . S
C619 N618 1.351 . S
C619 C620 1.434 . S
C620 C611 1.429 . S
C620 N617 1.350 . S
C620 C619 1.434 . S
C621 C622 1.369 . S
C621 C623 1.419 . S
C621 H625 0.930 . S
C622 C621 1.369 . S
C622 C631 1.429 . S
C623 C621 1.419 . S
C623 C624 1.363 . S
C623 H626 0.929 . S
C624 C623 1.363 . S
C624 C630 1.428 . S
H625 C621 0.930 . S
H626 C623 0.929 . S
S627 N628 1.613 1_554 S
S627 N629 1.610 1_554 S
N628 S627 1.613 1_556 S
N628 C631 1.350 . S
N629 S627 1.610 1_556 S
N629 C630 1.351 . S
C630 C624 1.428 . S
C630 N629 1.351 . S
C630 C631 1.434 . S
C631 C622 1.429 . S
C631 N628 1.350 . S
C631 C630 1.434 . S
C632 C633 1.369 1_556 S
C632 C634 1.419 . S
C632 H636 0.930 . S
C633 C632 1.369 1_554 S
C633 C642 1.429 . S
C634 C632 1.419 . S
C634 C635 1.363 1_556 S
C634 H637 0.929 . S
C635 C634 1.363 1_554 S
C635 C641 1.428 . S
H636 C632 0.930 . S
H637 C634 0.929 . S
S638 N639 1.613 . S
S638 N640 1.610 . S
N639 S638 1.613 . S
N639 C642 1.350 . S
N640 S638 1.610 . S
N640 C641 1.351 . S
C641 C635 1.428 . S
C641 N640 1.351 . S
C641 C642 1.434 . S
C642 C633 1.429 . S
C642 N639 1.350 . S
C642 C641 1.434 . S
C643 C644 1.368 1_565 S
C643 C645 1.420 1_565 S
C643 H647 0.932 . S
C644 C643 1.368 1_545 S
C644 C653 1.429 . S
C645 C643 1.420 1_545 S
C645 C646 1.366 . S
C645 H648 0.926 1_545 S
C646 C645 1.366 . S
C646 C652 1.428 . S
H647 C643 0.932 . S
H648 C645 0.926 1_565 S
S649 N650 1.613 . S
S649 N651 1.610 1_554 S
N650 S649 1.613 . S
N650 C653 1.350 1_554 S
N651 S649 1.610 1_556 S
N651 C652 1.351 . S
C652 C646 1.428 . S
C652 N651 1.351 . S
C652 C653 1.434 . S
C653 C644 1.429 . S
C653 N650 1.350 1_556 S
C653 C652 1.434 . S
C654 C655 1.369 . S
C654 C656 1.419 . S
C654 H658 0.943 . S
C655 C654 1.369 . S
C655 C664 1.429 . S
C656 C654 1.419 . S
C656 C657 1.363 . S
C656 H659 0.929 . S
C657 C656 1.363 . S
C657 C663 1.428 . S
H658 C654 0.943 . S
H659 C656 0.929 . S
S660 N661 1.613 . S
S660 N662 1.610 . S
N661 S660 1.613 . S
N661 C664 1.350 . S
N662 S660 1.610 . S
N662 C663 1.351 . S
C663 C657 1.428 . S
C663 N662 1.351 . S
C663 C664 1.434 . S
C664 C655 1.429 . S
C664 N661 1.350 . S
C664 C663 1.434 . S
C665 C666 1.369 . S
C665 C667 1.419 . S
C665 H669 0.930 . S
C666 C665 1.369 . S
C666 C675 1.429 . S
C667 C665 1.419 . S
C667 C668 1.363 . S
C667 H670 0.929 . S
C668 C667 1.363 . S
C668 C674 1.428 . S
H669 C665 0.930 . S
H670 C667 0.929 . S
S671 N672 1.613 . S
S671 N673 1.610 . S
N672 S671 1.613 . S
N672 C675 1.350 . S
N673 S671 1.610 . S
N673 C674 1.351 . S
C674 C668 1.428 . S
C674 N673 1.351 . S
C674 C675 1.434 . S
C675 C666 1.429 . S
C675 N672 1.350 . S
C675 C674 1.434 . S
C676 C677 1.369 . S
C676 C678 1.419 . S
C676 H680 0.930 . S
C677 C676 1.369 . S
C677 C686 1.429 . S
C678 C676 1.419 . S
C678 C679 1.363 . S
C678 H681 0.929 . S
C679 C678 1.363 . S
C679 C685 1.428 . S
H680 C676 0.930 . S
H681 C678 0.929 . S
S682 N683 1.613 . S
S682 N684 1.610 . S
N683 S682 1.613 . S
N683 C686 1.350 . S
N684 S682 1.610 . S
N684 C685 1.351 . S
C685 C679 1.428 . S
C685 N684 1.351 . S
C685 C686 1.434 . S
C686 C677 1.429 . S
C686 N683 1.350 . S
C686 C685 1.434 . S
C687 C688 1.369 1_545 S
C687 C689 1.419 . S
C687 H691 0.930 . S
C688 C687 1.369 1_565 S
C688 C697 1.429 . S
C689 C687 1.419 . S
C689 C690 1.363 1_545 S
C689 H692 0.929 . S
C690 C689 1.363 1_565 S
C690 C696 1.428 . S
H691 C687 0.930 . S
H692 C689 0.929 . S
S693 N694 1.613 . S
S693 N695 1.610 . S
N694 S693 1.613 . S
N694 C697 1.350 . S
N695 S693 1.610 . S
N695 C696 1.351 . S
C696 C690 1.428 . S
C696 N695 1.351 . S
C696 C697 1.434 . S
C697 C688 1.429 . S
C697 N694 1.350 . S
C697 C696 1.434 . S
C698 C699 1.369 . S
C698 C700 1.419 . S
C698 H702 0.930 . S
C699 C698 1.369 . S
C699 C708 1.429 . S
C700 C698 1.419 . S
C700 C701 1.363 . S
C700 H703 0.929 . S
C701 C700 1.363 . S
C701 C707 1.428 . S
H702 C698 0.930 . S
H703 C700 0.929 . S
S704 N705 1.613 . S
S704 N706 1.610 . S
N705 S704 1.613 . S
N705 C708 1.350 . S
N706 S704 1.610 . S
N706 C707 1.351 . S
C707 C701 1.428 . S
C707 N706 1.351 . S
C707 C708 1.434 . S
C708 C699 1.429 . S
C708 N705 1.350 . S
C708 C707 1.434 . S
C709 C710 1.369 . S
C709 C711 1.419 . S
C709 H713 0.930 . S
C710 C709 1.369 . S
C710 C719 1.429 . S
C711 C709 1.419 . S
C711 C712 1.363 . S
C711 H714 0.929 . S
C712 C711 1.363 . S
C712 C718 1.428 . S
H713 C709 0.930 . S
H714 C711 0.929 . S
S715 N716 1.613 . S
S715 N717 1.610 . S
N716 S715 1.613 . S
N716 C719 1.350 . S
N717 S715 1.610 . S
N717 C718 1.351 . S
C718 C712 1.428 . S
C718 N717 1.351 . S
C718 C719 1.434 . S
C719 C710 1.429 . S
C719 N716 1.350 . S
C719 C718 1.434 . S
C457 C255 1.975 1_565 S
C459 C337 2.004 . S
C470 C358 1.887 . S
C468 C295 1.838 . S
C481 C392 1.829 . S
C479 C175 1.788 . S
C492 C426 1.836 . S
C490 C215 1.784 . S
C503 C328 2.004 . S
C501 C95 1.975 . S
C512 C135 1.837 1_556 S
C514 C367 1.888 . S
C523 C15 1.789 . S
C525 C401 1.834 . S
C534 C55 1.773 . S
C536 C435 1.836 . S
C547 C349 1.403 . S
C545 C221 1.310 . S
C558 C354 0.819 . S
C556 C261 0.810 . S
C569 C388 1.050 . S
C567 C301 1.053 . S
C578 C181 0.665 . S
C580 C422 0.553 . S
C589 C61 1.063 . S
C591 C320 1.406 1_655 S
C602 C383 0.822 . S
C600 C101 0.811 . S
C613 C417 1.052 . S
C611 C141 0.936 . S
C622 C21 0.556 . S
C624 C451 0.554 . S
C633 C202 1.963 . S
C635 C333 2.032 1_554 S
C644 C242 2.234 . S
C646 C362 2.366 . S
C657 C396 2.119 . S
C655 C282 2.030 . S
C668 C430 2.220 . S
C666 C162 2.020 . S
C677 C42 1.863 . S
C679 C324 2.038 . S
C690 C371 2.366 . S
C688 C82 2.243 1_565 S
C701 C405 2.123 . S
C699 C122 1.943 . S
C710 C2 2.113 . S
C712 C439 2.223 . S
