# Generated by pormake.
# Topology gar, (4,6)-cn, num edge types: 1
# Building blocks:
#     Node 0, Type 0, BuildingBlock: KUFVIS_clean_sbu_0, # of connection points: 4
#     Node 1, Type 0, BuildingBlock: KUFVIS_clean_sbu_0, # of connection points: 4
#     Node 2, Type 0, BuildingBlock: KUFVIS_clean_sbu_0, # of connection points: 4
#     Node 3, Type 0, BuildingBlock: KUFVIS_clean_sbu_0, # of connection points: 4
#     Node 4, Type 0, BuildingBlock: KUFVIS_clean_sbu_0, # of connection points: 4
#     Node 5, Type 0, BuildingBlock: KUFVIS_clean_sbu_0, # of connection points: 4
#     Node 6, Type 0, BuildingBlock: KUFVIS_clean_sbu_0, # of connection points: 4
#     Node 7, Type 0, BuildingBlock: KUFVIS_clean_sbu_0, # of connection points: 4
#     Node 8, Type 0, BuildingBlock: KUFVIS_clean_sbu_0, # of connection points: 4
#     Node 9, Type 0, BuildingBlock: KUFVIS_clean_sbu_0, # of connection points: 4
#     Node 10, Type 0, BuildingBlock: KUFVIS_clean_sbu_0, # of connection points: 4
#     Node 11, Type 0, BuildingBlock: KUFVIS_clean_sbu_0, # of connection points: 4
#     Node 12, Type 0, BuildingBlock: KUFVIS_clean_sbu_0, # of connection points: 4
#     Node 13, Type 0, BuildingBlock: KUFVIS_clean_sbu_0, # of connection points: 4
#     Node 14, Type 0, BuildingBlock: KUFVIS_clean_sbu_0, # of connection points: 4
#     Node 15, Type 0, BuildingBlock: KUFVIS_clean_sbu_0, # of connection points: 4
#     Node 16, Type 0, BuildingBlock: KUFVIS_clean_sbu_0, # of connection points: 4
#     Node 17, Type 0, BuildingBlock: KUFVIS_clean_sbu_0, # of connection points: 4
#     Node 18, Type 0, BuildingBlock: KUFVIS_clean_sbu_0, # of connection points: 4
#     Node 19, Type 0, BuildingBlock: KUFVIS_clean_sbu_0, # of connection points: 4
#     Node 20, Type 0, BuildingBlock: KUFVIS_clean_sbu_0, # of connection points: 4
#     Node 21, Type 0, BuildingBlock: KUFVIS_clean_sbu_0, # of connection points: 4
#     Node 22, Type 0, BuildingBlock: KUFVIS_clean_sbu_0, # of connection points: 4
#     Node 23, Type 0, BuildingBlock: KUFVIS_clean_sbu_0, # of connection points: 4
#     Node 24, Type 1, BuildingBlock: MIFKUJ_clean_sbu_0, # of connection points: 6
#     Node 25, Type 1, BuildingBlock: MIFKUJ_clean_sbu_0, # of connection points: 6
#     Node 26, Type 1, BuildingBlock: MIFKUJ_clean_sbu_0, # of connection points: 6
#     Node 27, Type 1, BuildingBlock: MIFKUJ_clean_sbu_0, # of connection points: 6
#     Node 28, Type 1, BuildingBlock: MIFKUJ_clean_sbu_0, # of connection points: 6
#     Node 29, Type 1, BuildingBlock: MIFKUJ_clean_sbu_0, # of connection points: 6
#     Node 30, Type 1, BuildingBlock: MIFKUJ_clean_sbu_0, # of connection points: 6
#     Node 31, Type 1, BuildingBlock: MIFKUJ_clean_sbu_0, # of connection points: 6
#     Node 32, Type 1, BuildingBlock: MIFKUJ_clean_sbu_0, # of connection points: 6
#     Node 33, Type 1, BuildingBlock: MIFKUJ_clean_sbu_0, # of connection points: 6
#     Node 34, Type 1, BuildingBlock: MIFKUJ_clean_sbu_0, # of connection points: 6
#     Node 35, Type 1, BuildingBlock: MIFKUJ_clean_sbu_0, # of connection points: 6
#     Node 36, Type 1, BuildingBlock: MIFKUJ_clean_sbu_0, # of connection points: 6
#     Node 37, Type 1, BuildingBlock: MIFKUJ_clean_sbu_0, # of connection points: 6
#     Node 38, Type 1, BuildingBlock: MIFKUJ_clean_sbu_0, # of connection points: 6
#     Node 39, Type 1, BuildingBlock: MIFKUJ_clean_sbu_0, # of connection points: 6
#     Edge 40, Type (0, 1), BuildingBlock: XIVTED_clean_linker_0, # of connection points: 2
#     Edge 41, Type (0, 1), BuildingBlock: XIVTED_clean_linker_0, # of connection points: 2
#     Edge 42, Type (0, 1), BuildingBlock: XIVTED_clean_linker_0, # of connection points: 2
#     Edge 43, Type (0, 1), BuildingBlock: XIVTED_clean_linker_0, # of connection points: 2
#     Edge 44, Type (0, 1), BuildingBlock: XIVTED_clean_linker_0, # of connection points: 2
#     Edge 45, Type (0, 1), BuildingBlock: XIVTED_clean_linker_0, # of connection points: 2
#     Edge 46, Type (0, 1), BuildingBlock: XIVTED_clean_linker_0, # of connection points: 2
#     Edge 47, Type (0, 1), BuildingBlock: XIVTED_clean_linker_0, # of connection points: 2
#     Edge 48, Type (0, 1), BuildingBlock: XIVTED_clean_linker_0, # of connection points: 2
#     Edge 49, Type (0, 1), BuildingBlock: XIVTED_clean_linker_0, # of connection points: 2
#     Edge 50, Type (0, 1), BuildingBlock: XIVTED_clean_linker_0, # of connection points: 2
#     Edge 51, Type (0, 1), BuildingBlock: XIVTED_clean_linker_0, # of connection points: 2
#     Edge 52, Type (0, 1), BuildingBlock: XIVTED_clean_linker_0, # of connection points: 2
#     Edge 53, Type (0, 1), BuildingBlock: XIVTED_clean_linker_0, # of connection points: 2
#     Edge 54, Type (0, 1), BuildingBlock: XIVTED_clean_linker_0, # of connection points: 2
#     Edge 55, Type (0, 1), BuildingBlock: XIVTED_clean_linker_0, # of connection points: 2
#     Edge 56, Type (0, 1), BuildingBlock: XIVTED_clean_linker_0, # of connection points: 2
#     Edge 57, Type (0, 1), BuildingBlock: XIVTED_clean_linker_0, # of connection points: 2
#     Edge 58, Type (0, 1), BuildingBlock: XIVTED_clean_linker_0, # of connection points: 2
#     Edge 59, Type (0, 1), BuildingBlock: XIVTED_clean_linker_0, # of connection points: 2
#     Edge 60, Type (0, 1), BuildingBlock: XIVTED_clean_linker_0, # of connection points: 2
#     Edge 61, Type (0, 1), BuildingBlock: XIVTED_clean_linker_0, # of connection points: 2
#     Edge 62, Type (0, 1), BuildingBlock: XIVTED_clean_linker_0, # of connection points: 2
#     Edge 63, Type (0, 1), BuildingBlock: XIVTED_clean_linker_0, # of connection points: 2
#     Edge 64, Type (0, 1), BuildingBlock: XIVTED_clean_linker_0, # of connection points: 2
#     Edge 65, Type (0, 1), BuildingBlock: XIVTED_clean_linker_0, # of connection points: 2
#     Edge 66, Type (0, 1), BuildingBlock: XIVTED_clean_linker_0, # of connection points: 2
#     Edge 67, Type (0, 1), BuildingBlock: XIVTED_clean_linker_0, # of connection points: 2
#     Edge 68, Type (0, 1), BuildingBlock: XIVTED_clean_linker_0, # of connection points: 2
#     Edge 69, Type (0, 1), BuildingBlock: XIVTED_clean_linker_0, # of connection points: 2
#     Edge 70, Type (0, 1), BuildingBlock: XIVTED_clean_linker_0, # of connection points: 2
#     Edge 71, Type (0, 1), BuildingBlock: XIVTED_clean_linker_0, # of connection points: 2
#     Edge 72, Type (0, 1), BuildingBlock: XIVTED_clean_linker_0, # of connection points: 2
#     Edge 73, Type (0, 1), BuildingBlock: XIVTED_clean_linker_0, # of connection points: 2
#     Edge 74, Type (0, 1), BuildingBlock: XIVTED_clean_linker_0, # of connection points: 2
#     Edge 75, Type (0, 1), BuildingBlock: XIVTED_clean_linker_0, # of connection points: 2
#     Edge 76, Type (0, 1), BuildingBlock: XIVTED_clean_linker_0, # of connection points: 2
#     Edge 77, Type (0, 1), BuildingBlock: XIVTED_clean_linker_0, # of connection points: 2
#     Edge 78, Type (0, 1), BuildingBlock: XIVTED_clean_linker_0, # of connection points: 2
#     Edge 79, Type (0, 1), BuildingBlock: XIVTED_clean_linker_0, # of connection points: 2
#     Edge 80, Type (0, 1), BuildingBlock: XIVTED_clean_linker_0, # of connection points: 2
#     Edge 81, Type (0, 1), BuildingBlock: XIVTED_clean_linker_0, # of connection points: 2
#     Edge 82, Type (0, 1), BuildingBlock: XIVTED_clean_linker_0, # of connection points: 2
#     Edge 83, Type (0, 1), BuildingBlock: XIVTED_clean_linker_0, # of connection points: 2
#     Edge 84, Type (0, 1), BuildingBlock: XIVTED_clean_linker_0, # of connection points: 2
#     Edge 85, Type (0, 1), BuildingBlock: XIVTED_clean_linker_0, # of connection points: 2
#     Edge 86, Type (0, 1), BuildingBlock: XIVTED_clean_linker_0, # of connection points: 2
#     Edge 87, Type (0, 1), BuildingBlock: XIVTED_clean_linker_0, # of connection points: 2
#     Edge 88, Type (0, 1), BuildingBlock: XIVTED_clean_linker_0, # of connection points: 2
#     Edge 89, Type (0, 1), BuildingBlock: XIVTED_clean_linker_0, # of connection points: 2
#     Edge 90, Type (0, 1), BuildingBlock: XIVTED_clean_linker_0, # of connection points: 2
#     Edge 91, Type (0, 1), BuildingBlock: XIVTED_clean_linker_0, # of connection points: 2
#     Edge 92, Type (0, 1), BuildingBlock: XIVTED_clean_linker_0, # of connection points: 2
#     Edge 93, Type (0, 1), BuildingBlock: XIVTED_clean_linker_0, # of connection points: 2
#     Edge 94, Type (0, 1), BuildingBlock: XIVTED_clean_linker_0, # of connection points: 2
#     Edge 95, Type (0, 1), BuildingBlock: XIVTED_clean_linker_0, # of connection points: 2
#     Edge 96, Type (0, 1), BuildingBlock: XIVTED_clean_linker_0, # of connection points: 2
#     Edge 97, Type (0, 1), BuildingBlock: XIVTED_clean_linker_0, # of connection points: 2
#     Edge 98, Type (0, 1), BuildingBlock: XIVTED_clean_linker_0, # of connection points: 2
#     Edge 99, Type (0, 1), BuildingBlock: XIVTED_clean_linker_0, # of connection points: 2
#     Edge 100, Type (0, 1), BuildingBlock: XIVTED_clean_linker_0, # of connection points: 2
#     Edge 101, Type (0, 1), BuildingBlock: XIVTED_clean_linker_0, # of connection points: 2
#     Edge 102, Type (0, 1), BuildingBlock: XIVTED_clean_linker_0, # of connection points: 2
#     Edge 103, Type (0, 1), BuildingBlock: XIVTED_clean_linker_0, # of connection points: 2
#     Edge 104, Type (0, 1), BuildingBlock: XIVTED_clean_linker_0, # of connection points: 2
#     Edge 105, Type (0, 1), BuildingBlock: XIVTED_clean_linker_0, # of connection points: 2
#     Edge 106, Type (0, 1), BuildingBlock: XIVTED_clean_linker_0, # of connection points: 2
#     Edge 107, Type (0, 1), BuildingBlock: XIVTED_clean_linker_0, # of connection points: 2
#     Edge 108, Type (0, 1), BuildingBlock: XIVTED_clean_linker_0, # of connection points: 2
#     Edge 109, Type (0, 1), BuildingBlock: XIVTED_clean_linker_0, # of connection points: 2
#     Edge 110, Type (0, 1), BuildingBlock: XIVTED_clean_linker_0, # of connection points: 2
#     Edge 111, Type (0, 1), BuildingBlock: XIVTED_clean_linker_0, # of connection points: 2
#     Edge 112, Type (0, 1), BuildingBlock: XIVTED_clean_linker_0, # of connection points: 2
#     Edge 113, Type (0, 1), BuildingBlock: XIVTED_clean_linker_0, # of connection points: 2
#     Edge 114, Type (0, 1), BuildingBlock: XIVTED_clean_linker_0, # of connection points: 2
#     Edge 115, Type (0, 1), BuildingBlock: XIVTED_clean_linker_0, # of connection points: 2
#     Edge 116, Type (0, 1), BuildingBlock: XIVTED_clean_linker_0, # of connection points: 2
#     Edge 117, Type (0, 1), BuildingBlock: XIVTED_clean_linker_0, # of connection points: 2
#     Edge 118, Type (0, 1), BuildingBlock: XIVTED_clean_linker_0, # of connection points: 2
#     Edge 119, Type (0, 1), BuildingBlock: XIVTED_clean_linker_0, # of connection points: 2
#     Edge 120, Type (0, 1), BuildingBlock: XIVTED_clean_linker_0, # of connection points: 2
#     Edge 121, Type (0, 1), BuildingBlock: XIVTED_clean_linker_0, # of connection points: 2
#     Edge 122, Type (0, 1), BuildingBlock: XIVTED_clean_linker_0, # of connection points: 2
#     Edge 123, Type (0, 1), BuildingBlock: XIVTED_clean_linker_0, # of connection points: 2
#     Edge 124, Type (0, 1), BuildingBlock: XIVTED_clean_linker_0, # of connection points: 2
#     Edge 125, Type (0, 1), BuildingBlock: XIVTED_clean_linker_0, # of connection points: 2
#     Edge 126, Type (0, 1), BuildingBlock: XIVTED_clean_linker_0, # of connection points: 2
#     Edge 127, Type (0, 1), BuildingBlock: XIVTED_clean_linker_0, # of connection points: 2
#     Edge 128, Type (0, 1), BuildingBlock: XIVTED_clean_linker_0, # of connection points: 2
#     Edge 129, Type (0, 1), BuildingBlock: XIVTED_clean_linker_0, # of connection points: 2
#     Edge 130, Type (0, 1), BuildingBlock: XIVTED_clean_linker_0, # of connection points: 2
#     Edge 131, Type (0, 1), BuildingBlock: XIVTED_clean_linker_0, # of connection points: 2
#     Edge 132, Type (0, 1), BuildingBlock: XIVTED_clean_linker_0, # of connection points: 2
#     Edge 133, Type (0, 1), BuildingBlock: XIVTED_clean_linker_0, # of connection points: 2
#     Edge 134, Type (0, 1), BuildingBlock: XIVTED_clean_linker_0, # of connection points: 2
#     Edge 135, Type (0, 1), BuildingBlock: XIVTED_clean_linker_0, # of connection points: 2
# Relax obj value: 0.095
# Max RMSD: 0.280
# Mean RMSD: 0.125
data_MOF--net-gar--node1-KUFVIS_clean_sbu_0--node2-MIFKUJ_clean_sbu_0--edge1-XIVTED_clean_linker_0
_symmetry_space_group_name_H-M    P1
_symmetry_Int_Tables_number       1
_symmetry_cell_setting            triclinic
loop_
_symmetry_equiv_pos_as_xyz
'x, y, z'
_cell_length_a     55.836118
_cell_length_b     56.08423
_cell_length_c     55.349639
_cell_angle_alpha  94.517337
_cell_angle_beta   94.598051
_cell_angle_gamma 99.242369
loop_
_atom_site_label
_atom_site_type_symbol
_atom_site_fract_x
_atom_site_fract_y
_atom_site_fract_z
_atom_type_partial_charge
Mn0 Mn 0.01787 0.27284 0.40643 0.0
Mn1 Mn 0.01406 0.30518 0.35769 0.0
C2 C 0.98078 0.28187 0.39196 0.0
C3 C 0.01801 0.23652 0.42378 0.0
C4 C 0.03402 0.32765 0.4084 0.0
O5 O 0.04943 0.27011 0.39113 0.0
O6 O 0.04381 0.28993 0.35779 0.0
C7 C 0.00653 0.26508 0.31826 0.0
N8 N 0.99893 0.28458 0.32963 0.0
C9 C 0.96414 0.28091 0.30014 0.0
C10 C 0.97168 0.26088 0.28802 0.0
C11 C 0.99292 0.2529 0.29717 0.0
C12 C 0.97849 0.29238 0.32102 0.0
H13 H 0.02283 0.25887 0.32524 0.0
C14 C 0.05593 0.27734 0.37096 0.0
O15 O 0.02881 0.257 0.43515 0.0
O16 O 0.00751 0.23701 0.40206 0.0
N17 N 0.98585 0.32055 0.35508 0.0
C18 C 0.98019 0.33908 0.36981 0.0
C19 C 0.95895 0.34858 0.36374 0.0
C20 C 0.94386 0.3391 0.34251 0.0
C21 C 0.95016 0.32018 0.32752 0.0
C22 C 0.97161 0.3115 0.33445 0.0
H23 H 0.99172 0.34647 0.38615 0.0
O24 O 0.98426 0.27659 0.41425 0.0
O25 O 0.99902 0.2816 0.37881 0.0
O26 O 0.03049 0.30814 0.41882 0.0
O27 O 0.02928 0.3284 0.38555 0.0
C28 C 0.93576 0.30929 0.30624 0.0
C29 C 0.94271 0.28963 0.29259 0.0
H30 H 0.96117 0.25137 0.27181 0.0
H31 H 0.99879 0.23739 0.28799 0.0
H32 H 0.95419 0.36316 0.37543 0.0
H33 H 0.92738 0.34635 0.33799 0.0
H34 H 0.91906 0.3156 0.30045 0.0
H35 H 0.93126 0.28114 0.27649 0.0
Mn36 Mn 0.01177 0.73995 0.63883 0.0
Mn37 Mn 0.0391 0.77441 0.68947 0.0
C38 C 0.05173 0.73839 0.65131 0.0
C39 C 0.98856 0.70432 0.61975 0.0
C40 C 0.02988 0.79433 0.64078 0.0
O41 O 0.98339 0.75014 0.65551 0.0
O42 O 0.00313 0.76953 0.69049 0.0
C43 C 0.02586 0.7403 0.72627 0.0
N44 N 0.0432 0.75466 0.71557 0.0
C45 C 0.07514 0.74548 0.74335 0.0
C46 C 0.05761 0.73068 0.75477 0.0
C47 C 0.03288 0.72802 0.74613 0.0
C48 C 0.06706 0.75721 0.72361 0.0
H49 H 0.00683 0.73827 0.71971 0.0
C50 C 0.9836 0.76118 0.67664 0.0
O51 O 0.9901 0.72454 0.60962 0.0
O52 O 0.99944 0.70514 0.64151 0.0
N53 N 0.07396 0.78074 0.69127 0.0
C54 C 0.08866 0.79477 0.67753 0.0
C55 C 0.11402 0.79883 0.68343 0.0
C56 C 0.12398 0.78875 0.70357 0.0
C57 C 0.10846 0.77467 0.71765 0.0
C58 C 0.08334 0.77127 0.71091 0.0
H59 H 0.08111 0.80276 0.66216 0.0
O60 O 0.04302 0.73139 0.629 0.0
O61 O 0.03669 0.74575 0.66591 0.0
O62 O 0.02111 0.77413 0.62869 0.0
O63 O 0.03627 0.79649 0.66364 0.0
C64 C 0.11697 0.7635 0.73782 0.0
C65 C 0.10033 0.74882 0.75059 0.0
H66 H 0.06295 0.72117 0.77008 0.0
H67 H 0.01925 0.71656 0.75479 0.0
H68 H 0.12586 0.80974 0.67248 0.0
H69 H 0.14355 0.79179 0.70797 0.0
H70 H 0.1363 0.7658 0.74346 0.0
H71 H 0.10713 0.74003 0.76584 0.0
Mn72 Mn 0.51957 0.76548 0.89812 0.0
Mn73 Mn 0.51742 0.80199 0.8526 0.0
C74 C 0.48307 0.77633 0.88451 0.0
C75 C 0.51817 0.72744 0.91209 0.0
C76 C 0.53712 0.82007 0.90465 0.0
O77 O 0.55144 0.76373 0.88308 0.0
O78 O 0.54659 0.78594 0.85134 0.0
C79 C 0.50918 0.76488 0.81033 0.0
N80 N 0.50207 0.78381 0.82321 0.0
C81 C 0.46728 0.78275 0.79428 0.0
C82 C 0.47434 0.76337 0.7806 0.0
C83 C 0.49535 0.75436 0.7887 0.0
C84 C 0.48188 0.79261 0.81559 0.0
H85 H 0.52524 0.75781 0.81656 0.0
C86 C 0.5583 0.77229 0.86357 0.0
O87 O 0.52902 0.74689 0.92531 0.0
O88 O 0.50877 0.73002 0.89041 0.0
N89 N 0.48978 0.81828 0.85148 0.0
C90 C 0.4845 0.83586 0.86766 0.0
C91 C 0.46351 0.84615 0.86274 0.0
C92 C 0.44824 0.83837 0.84122 0.0
C93 C 0.45415 0.8204 0.82475 0.0
C94 C 0.47541 0.81094 0.83052 0.0
H95 H 0.49612 0.84189 0.88427 0.0
O96 O 0.48598 0.76899 0.90604 0.0
O97 O 0.5015 0.77686 0.87151 0.0
O98 O 0.53259 0.79971 0.9134 0.0
O99 O 0.53295 0.82276 0.88208 0.0
C100 C 0.43946 0.81109 0.80311 0.0
C101 C 0.44601 0.79227 0.7879 0.0
H102 H 0.46363 0.75509 0.76399 0.0
H103 H 0.50083 0.73931 0.77832 0.0
H104 H 0.45905 0.85998 0.87557 0.0
H105 H 0.43193 0.84617 0.83761 0.0
H106 H 0.42286 0.81799 0.79822 0.0
H107 H 0.43435 0.78499 0.77153 0.0
Mn108 Mn 0.50339 0.23317 0.13375 0.0
Mn109 Mn 0.46498 0.22956 0.08306 0.0
C110 C 0.48351 0.19597 0.11593 0.0
C111 C 0.54286 0.23456 0.15134 0.0
C112 C 0.45279 0.24666 0.13345 0.0
O113 O 0.51205 0.26623 0.12114 0.0
O114 O 0.48852 0.26041 0.08531 0.0
C115 C 0.49971 0.22528 0.04589 0.0
N116 N 0.47917 0.21601 0.05598 0.0
C117 C 0.47255 0.1802 0.02772 0.0
C118 C 0.49352 0.18947 0.01689 0.0
C119 C 0.50716 0.2121 0.02603 0.0
C120 C 0.46588 0.19427 0.0473 0.0
H121 H 0.5104 0.24254 0.05302 0.0
C122 C 0.50499 0.27311 0.10069 0.0
O123 O 0.52654 0.2429 0.16354 0.0
O124 O 0.53629 0.22592 0.12896 0.0
N125 N 0.44178 0.20009 0.07896 0.0
C126 C 0.42287 0.19308 0.09236 0.0
C127 C 0.40776 0.17056 0.08598 0.0
C128 C 0.41225 0.15548 0.06595 0.0
C129 C 0.43177 0.1631 0.05239 0.0
C130 C 0.44602 0.18588 0.05941 0.0
H131 H 0.41942 0.20453 0.10786 0.0
O132 O 0.49209 0.19828 0.13864 0.0
O133 O 0.4868 0.21551 0.10479 0.0
O134 O 0.47211 0.24261 0.14516 0.0
O135 O 0.44869 0.2431 0.11025 0.0
C136 C 0.43796 0.14878 0.03252 0.0
C137 C 0.45834 0.15731 0.02021 0.0
H138 H 0.49945 0.17925 0.00171 0.0
H139 H 0.52346 0.21929 0.01788 0.0
H140 H 0.39277 0.16477 0.09658 0.0
H141 H 0.40072 0.138 0.06126 0.0
H142 H 0.42735 0.13104 0.02676 0.0
H143 H 0.4631 0.146 0.00516 0.0
Mn144 Mn 0.03203 0.77141 0.15994 0.0
Mn145 Mn 0.99805 0.74301 0.10944 0.0
C146 C 0.03357 0.73138 0.14904 0.0
C147 C 0.06773 0.79503 0.17836 0.0
C148 C 0.9775 0.75265 0.15768 0.0
O149 O 0.02175 0.7991 0.14249 0.0
O150 O 0.0024 0.77879 0.10784 0.0
C151 C 0.03303 0.75632 0.07332 0.0
N152 N 0.01856 0.73899 0.08392 0.0
C153 C 0.02932 0.70716 0.05731 0.0
C154 C 0.04423 0.72467 0.046 0.0
C155 C 0.04615 0.74935 0.0541 0.0
C156 C 0.01674 0.71519 0.07641 0.0
H157 H 0.03453 0.7753 0.0795 0.0
C158 C 0.01059 0.79847 0.12137 0.0
O159 O 0.0475 0.7938 0.18862 0.0
O160 O 0.06684 0.78357 0.15692 0.0
N161 N 0.99205 0.70831 0.10793 0.0
C162 C 0.97729 0.69367 0.1211 0.0
C163 C 0.97356 0.66842 0.11543 0.0
C164 C 0.98471 0.65849 0.09605 0.0
C165 C 0.99945 0.67393 0.08246 0.0
C166 C 0.00241 0.69896 0.08889 0.0
H167 H 0.96847 0.70119 0.13587 0.0
O168 O 0.04068 0.74086 0.17106 0.0
O169 O 0.02643 0.74582 0.13362 0.0
O170 O 0.99758 0.76219 0.16983 0.0
O171 O 0.97559 0.74574 0.13494 0.0
C172 C 0.0116 0.66545 0.06302 0.0
C173 C 0.02663 0.68204 0.05053 0.0
H174 H 0.05438 0.71937 0.03117 0.0
H175 H 0.0577 0.76296 0.04553 0.0
H176 H 0.96211 0.65663 0.12596 0.0
H177 H 0.98196 0.63899 0.09186 0.0
H178 H 0.00973 0.64619 0.05769 0.0
H179 H 0.0361 0.67529 0.0358 0.0
Mn180 Mn 0.4916 0.74311 0.38694 0.0
Mn181 Mn 0.47971 0.7708 0.33612 0.0
C182 C 0.4522 0.73772 0.36885 0.0
C183 C 0.50449 0.71085 0.40552 0.0
C184 C 0.48784 0.79687 0.38704 0.0
O185 O 0.52505 0.75347 0.37564 0.0
O186 O 0.51478 0.768 0.34021 0.0
C187 C 0.48881 0.73291 0.2993 0.0
N188 N 0.47387 0.74776 0.30814 0.0
C189 C 0.44364 0.73462 0.27424 0.0
C190 C 0.45875 0.71925 0.26469 0.0
C191 C 0.48138 0.7183 0.27735 0.0
C192 C 0.45194 0.74858 0.29628 0.0
H193 H 0.50629 0.73229 0.30891 0.0
C194 C 0.5305 0.76221 0.35583 0.0
O195 O 0.5063 0.73213 0.41724 0.0
O196 O 0.4955 0.70841 0.38292 0.0
N197 N 0.44663 0.77512 0.32917 0.0
C198 C 0.43388 0.79026 0.34126 0.0
C199 C 0.41069 0.79305 0.3312 0.0
C200 C 0.40106 0.78064 0.3086 0.0
C201 C 0.41469 0.76547 0.2963 0.0
C202 C 0.43767 0.76338 0.30723 0.0
H203 H 0.44132 0.80014 0.35846 0.0
O204 O 0.45652 0.7333 0.3913 0.0
O205 O 0.47114 0.74454 0.3572 0.0
O206 O 0.49003 0.7784 0.39856 0.0
O207 O 0.48487 0.79597 0.36384 0.0
C208 C 0.40626 0.75211 0.27376 0.0
C209 C 0.42063 0.73654 0.26284 0.0
H210 H 0.45312 0.70802 0.24772 0.0
H211 H 0.49311 0.70644 0.27013 0.0
H212 H 0.40031 0.80483 0.34079 0.0
H213 H 0.38314 0.78278 0.30095 0.0
H214 H 0.3886 0.75343 0.26482 0.0
H215 H 0.41378 0.72607 0.24569 0.0
Mn216 Mn 0.53172 0.26541 0.65068 0.0
Mn217 Mn 0.49057 0.23805 0.60464 0.0
C218 C 0.53067 0.22517 0.63812 0.0
C219 C 0.5693 0.28757 0.66615 0.0
C220 C 0.47782 0.24819 0.65614 0.0
O221 O 0.52065 0.29378 0.63519 0.0
O222 O 0.49465 0.27408 0.60403 0.0
C223 C 0.51901 0.25201 0.56355 0.0
N224 N 0.50664 0.23447 0.57567 0.0
C225 C 0.51359 0.20303 0.54619 0.0
C226 C 0.52625 0.22077 0.53328 0.0
C227 C 0.52903 0.24535 0.54205 0.0
C228 C 0.50397 0.21076 0.56747 0.0
H229 H 0.52125 0.27091 0.57026 0.0
C230 C 0.50585 0.29358 0.61636 0.0
O231 O 0.55029 0.28702 0.67824 0.0
O232 O 0.56615 0.27632 0.64439 0.0
N233 N 0.4847 0.20331 0.60252 0.0
C234 C 0.47287 0.18838 0.61763 0.0
C235 C 0.46897 0.16316 0.6117 0.0
C236 C 0.47704 0.15355 0.5902 0.0
C237 C 0.48888 0.16927 0.57478 0.0
C238 C 0.4921 0.19427 0.58155 0.0
H239 H 0.46663 0.19564 0.63418 0.0
O240 O 0.54028 0.23406 0.6597 0.0
O241 O 0.52211 0.24016 0.6242 0.0
O242 O 0.49923 0.25793 0.66483 0.0
O243 O 0.4723 0.24022 0.63379 0.0
C244 C 0.49802 0.16111 0.55319 0.0
C245 C 0.51044 0.17797 0.53895 0.0
H246 H 0.53407 0.21571 0.51673 0.0
H247 H 0.53889 0.25914 0.53226 0.0
H248 H 0.45984 0.15115 0.62372 0.0
H249 H 0.47421 0.13407 0.5858 0.0
H250 H 0.49588 0.14189 0.54754 0.0
H251 H 0.51767 0.17146 0.52255 0.0
Mn252 Mn 0.99045 0.23855 0.88662 0.0
Mn253 Mn 0.97939 0.26856 0.83729 0.0
C254 C 0.9516 0.23255 0.86724 0.0
C255 C 0.00445 0.20638 0.90411 0.0
C256 C 0.98525 0.29187 0.8893 0.0
O257 O 0.02412 0.25103 0.87696 0.0
O258 O 0.01462 0.2663 0.84173 0.0
C259 C 0.99001 0.23306 0.79885 0.0
N260 N 0.97453 0.24702 0.8082 0.0
C261 C 0.94508 0.23506 0.77346 0.0
C262 C 0.96076 0.22064 0.76337 0.0
C263 C 0.98327 0.21954 0.77619 0.0
C264 C 0.95271 0.24797 0.79618 0.0
H265 H 0.0074 0.23233 0.80859 0.0
C266 C 0.03006 0.26047 0.85764 0.0
O267 O 0.00479 0.227 0.91662 0.0
O268 O 0.9961 0.20447 0.88132 0.0
N269 N 0.94619 0.27245 0.83015 0.0
C270 C 0.93279 0.28649 0.84282 0.0
C271 C 0.90962 0.28923 0.83268 0.0
C272 C 0.90064 0.27791 0.80946 0.0
C273 C 0.91491 0.26385 0.79661 0.0
C274 C 0.93785 0.26176 0.80764 0.0
H275 H 0.93971 0.29555 0.86052 0.0
O276 O 0.95533 0.22694 0.88938 0.0
O277 O 0.97084 0.24082 0.85662 0.0
O278 O 0.98706 0.27274 0.89978 0.0
O279 O 0.98351 0.29237 0.8662 0.0
C280 C 0.90715 0.25157 0.77342 0.0
C281 C 0.92213 0.23703 0.76194 0.0
H282 H 0.95565 0.21025 0.74586 0.0
H283 H 0.99543 0.2084 0.76856 0.0
H284 H 0.89873 0.30014 0.8427 0.0
H285 H 0.88272 0.27998 0.80175 0.0
H286 H 0.88953 0.25291 0.7644 0.0
H287 H 0.91578 0.22737 0.74429 0.0
Mn288 Mn 0.40296 0.0182 0.28367 0.0
Mn289 Mn 0.35914 0.015 0.32243 0.0
C290 C 0.38773 0.98156 0.29756 0.0
C291 C 0.41498 0.01621 0.24446 0.0
C292 C 0.41248 0.03528 0.33771 0.0
O293 O 0.38955 0.04968 0.28009 0.0
O294 O 0.35871 0.04403 0.30415 0.0
C295 C 0.31538 0.00624 0.28688 0.0
N296 N 0.32855 0.99929 0.30609 0.0
C297 C 0.2983 0.9639 0.30814 0.0
C298 C 0.2843 0.97084 0.28856 0.0
C299 C 0.29291 0.99208 0.27785 0.0
C300 C 0.32043 0.97887 0.31653 0.0
H301 H 0.32202 0.02241 0.27844 0.0
C302 C 0.37076 0.05595 0.28893 0.0
O303 O 0.42959 0.02751 0.26269 0.0
O304 O 0.39305 0.00717 0.24885 0.0
N305 N 0.35738 0.98728 0.34073 0.0
C306 C 0.37398 0.98206 0.3581 0.0
C307 C 0.36868 0.96078 0.36982 0.0
C308 C 0.34635 0.94515 0.36364 0.0
C309 C 0.3295 0.95096 0.34581 0.0
C310 C 0.3357 0.97252 0.33489 0.0
H311 H 0.39122 0.99394 0.36287 0.0
O312 O 0.40901 0.98481 0.28935 0.0
O313 O 0.37607 0.99981 0.29737 0.0
O314 O 0.42027 0.03118 0.31705 0.0
O315 O 0.38995 0.03084 0.34136 0.0
C316 C 0.30706 0.93591 0.33805 0.0
C317 C 0.29147 0.94237 0.31922 0.0
H318 H 0.26706 0.95985 0.28139 0.0
H319 H 0.28231 0.99744 0.2626 0.0
H320 H 0.38181 0.95639 0.38351 0.0
H321 H 0.34243 0.92863 0.37255 0.0
H322 H 0.3018 0.9191 0.34612 0.0
H323 H 0.27447 0.93042 0.31309 0.0
Mn324 Mn 0.2671 0.14002 0.50731 0.0
Mn325 Mn 0.2593 0.09454 0.46229 0.0
C326 C 0.2282 0.12033 0.49276 0.0
C327 C 0.27233 0.15401 0.5486 0.0
C328 C 0.27399 0.1478 0.45408 0.0
O329 O 0.30068 0.12948 0.50807 0.0
O330 O 0.29208 0.09695 0.4801 0.0
C331 C 0.25944 0.05235 0.49128 0.0
N332 N 0.24801 0.06411 0.47436 0.0
C333 C 0.21314 0.03216 0.46892 0.0
C334 C 0.22466 0.0196 0.48609 0.0
C335 C 0.24789 0.02978 0.49735 0.0
C336 C 0.22566 0.05448 0.4634 0.0
H337 H 0.27717 0.0602 0.5002 0.0
C338 C 0.30637 0.11066 0.49673 0.0
O339 O 0.2789 0.16821 0.53203 0.0
O340 O 0.26367 0.13151 0.54125 0.0
N341 N 0.22783 0.09027 0.44445 0.0
C342 C 0.21839 0.1056 0.42985 0.0
C343 C 0.19477 0.09865 0.41809 0.0
C344 C 0.18112 0.07604 0.42145 0.0
C345 C 0.19123 0.06055 0.43653 0.0
C346 C 0.21494 0.06835 0.44759 0.0
H347 H 0.22872 0.12305 0.42729 0.0
O348 O 0.23139 0.14215 0.50356 0.0
O349 O 0.24785 0.11116 0.49038 0.0
O350 O 0.27255 0.15631 0.47586 0.0
O351 O 0.27038 0.12505 0.44747 0.0
C352 C 0.17848 0.03794 0.44145 0.0
C353 C 0.18944 0.02374 0.45762 0.0
H354 H 0.2157 0.0023 0.49101 0.0
H355 H 0.2568 0.0203 0.51078 0.0
H356 H 0.18705 0.11074 0.40656 0.0
H357 H 0.16281 0.07085 0.41254 0.0
H358 H 0.16009 0.03147 0.43321 0.0
H359 H 0.17929 0.00658 0.46158 0.0
Mn360 Mn 0.13284 0.0098 0.78992 0.0
Mn361 Mn 0.17898 0.01732 0.83443 0.0
C362 C 0.15212 0.0485 0.80504 0.0
C363 C 0.11924 0.00535 0.74852 0.0
C364 C 0.12562 0.00213 0.84308 0.0
O365 O 0.14371 0.97652 0.78854 0.0
O366 O 0.1767 0.98495 0.8161 0.0
C367 C 0.22092 0.01818 0.80477 0.0
N368 N 0.20924 0.02913 0.82208 0.0
C369 C 0.24082 0.0643 0.82729 0.0
C370 C 0.2533 0.05327 0.80972 0.0
C371 C 0.24328 0.03013 0.7984 0.0
C372 C 0.21875 0.05138 0.83314 0.0
H373 H 0.21317 0.00053 0.79579 0.0
C374 C 0.16282 0.97084 0.79947 0.0
O375 O 0.10472 0.99831 0.76474 0.0
O376 O 0.1417 0.014 0.75632 0.0
N377 N 0.1832 0.04837 0.85279 0.0
C378 C 0.16797 0.05728 0.8679 0.0
C379 C 0.17482 0.08069 0.8799 0.0
C380 C 0.19723 0.09469 0.87624 0.0
C381 C 0.21261 0.08513 0.86064 0.0
C382 C 0.20495 0.06158 0.84939 0.0
H383 H 0.15066 0.04669 0.87068 0.0
O384 O 0.13018 0.04519 0.79425 0.0
O385 O 0.16168 0.02907 0.80696 0.0
O386 O 0.11665 0.00368 0.82143 0.0
O387 O 0.14856 0.00579 0.84934 0.0
C388 C 0.23498 0.09828 0.85536 0.0
C389 C 0.24907 0.08787 0.8387 0.0
H390 H 0.27041 0.06255 0.80455 0.0
H391 H 0.2527 0.02159 0.78466 0.0
H392 H 0.1628 0.08798 0.89183 0.0
H393 H 0.20231 0.11285 0.88531 0.0
H394 H 0.24132 0.11657 0.86371 0.0
H395 H 0.26602 0.09833 0.83447 0.0
Mn396 Mn 0.25436 0.87239 0.00921 0.0
Mn397 Mn 0.25918 0.91726 0.97182 0.0
C398 C 0.29144 0.88639 0.99536 0.0
C399 C 0.25546 0.8595 0.0481 0.0
C400 C 0.23702 0.86485 0.95513 0.0
O401 O 0.22347 0.8868 0.01326 0.0
O402 O 0.23025 0.91837 0.9904 0.0
C403 C 0.26982 0.95981 0.00858 0.0
N404 N 0.27617 0.94687 0.98892 0.0
C405 C 0.31287 0.97571 0.9877 0.0
C406 C 0.30657 0.98947 0.00775 0.0
C407 C 0.28498 0.98146 0.01825 0.0
C408 C 0.2969 0.95443 0.97865 0.0
H409 H 0.25339 0.9536 0.01689 0.0
C410 C 0.21788 0.90613 0.0052 0.0
O411 O 0.24381 0.84562 0.02956 0.0
O412 O 0.26558 0.88116 0.04415 0.0
N413 N 0.2868 0.9185 0.95325 0.0
C414 C 0.29116 0.90223 0.93518 0.0
C415 C 0.31256 0.90704 0.92344 0.0
C416 C 0.32922 0.92851 0.93033 0.0
C417 C 0.32427 0.94506 0.94885 0.0
C418 C 0.3025 0.93943 0.95971 0.0
H419 H 0.27851 0.88562 0.92987 0.0
O420 O 0.28731 0.86507 0.00323 0.0
O421 O 0.27384 0.89896 0.99609 0.0
O422 O 0.24085 0.85634 0.97548 0.0
O423 O 0.24213 0.88742 0.95216 0.0
C424 C 0.34037 0.96661 0.95735 0.0
C425 C 0.33468 0.98192 0.97676 0.0
H426 H 0.31833 0.00605 0.01542 0.0
H427 H 0.2801 0.99187 0.03386 0.0
H428 H 0.31628 0.89414 0.90921 0.0
H429 H 0.34585 0.93201 0.92143 0.0
H430 H 0.35738 0.97139 0.94937 0.0
H431 H 0.3474 0.99824 0.98341 0.0
Mn432 Mn 0.28548 0.38759 0.05687 0.0
Mn433 Mn 0.30088 0.43913 0.02937 0.0
C434 C 0.32623 0.40488 0.05717 0.0
C435 C 0.27381 0.36794 0.09112 0.0
C436 C 0.28649 0.38926 0.00167 0.0
O437 O 0.25307 0.40015 0.05204 0.0
O438 O 0.26643 0.43534 0.03672 0.0
C439 C 0.29717 0.47462 0.07083 0.0
N440 N 0.31026 0.46619 0.05327 0.0
C441 C 0.34366 0.49907 0.0643 0.0
C442 C 0.33051 0.50819 0.08244 0.0
C443 C 0.30722 0.49584 0.08579 0.0
C444 C 0.33279 0.47774 0.0501 0.0
H445 H 0.2792 0.46524 0.07333 0.0
C446 C 0.24957 0.42032 0.04431 0.0
O447 O 0.26916 0.35706 0.06927 0.0
O448 O 0.28457 0.3904 0.09298 0.0
N449 N 0.33365 0.44586 0.02078 0.0
C450 C 0.34419 0.43431 0.00291 0.0
C451 C 0.3676 0.44425 0.99732 0.0
C452 C 0.37975 0.46618 0.0098 0.0
C453 C 0.36838 0.47796 0.02781 0.0
C454 C 0.34501 0.46721 0.03257 0.0
H455 H 0.3348 0.41766 0.99298 0.0
O456 O 0.32011 0.38232 0.06112 0.0
O457 O 0.30843 0.41699 0.05371 0.0
O458 O 0.28365 0.37712 0.02014 0.0
O459 O 0.29213 0.41236 0.00333 0.0
C460 C 0.37945 0.49974 0.0415 0.0
C461 C 0.36718 0.51019 0.05985 0.0
H462 H 0.33816 0.52459 0.09397 0.0
H463 H 0.29699 0.50273 0.0998 0.0
H464 H 0.37623 0.43507 0.98335 0.0
H465 H 0.39786 0.47372 0.00551 0.0
H466 H 0.39754 0.50844 0.03829 0.0
H467 H 0.37602 0.52676 0.07049 0.0
Mn468 Mn 0.76442 0.14544 0.03136 0.0
Mn469 Mn 0.73792 0.09275 0.99902 0.0
C470 C 0.72373 0.13095 0.03366 0.0
C471 C 0.78535 0.16708 0.06639 0.0
C472 C 0.74807 0.14065 0.97689 0.0
O473 O 0.79359 0.13028 0.02197 0.0
O474 O 0.77392 0.09495 0.00249 0.0
C475 C 0.7508 0.05908 0.03463 0.0
N476 N 0.73363 0.06747 0.02026 0.0
C477 C 0.70166 0.03782 0.03213 0.0
C478 C 0.71901 0.02877 0.04696 0.0
C479 C 0.74367 0.03951 0.04828 0.0
C480 C 0.70983 0.05743 0.01904 0.0
H481 H 0.76977 0.06727 0.03565 0.0
C482 C 0.79349 0.10947 0.01074 0.0
O483 O 0.78551 0.17622 0.04556 0.0
O484 O 0.77431 0.14489 0.06653 0.0
N485 N 0.70308 0.08755 0.99395 0.0
C486 C 0.68855 0.09885 0.9793 0.0
C487 C 0.66331 0.09046 0.97617 0.0
C488 C 0.65331 0.07029 0.98777 0.0
C489 C 0.66867 0.05868 0.0024 0.0
C490 C 0.69369 0.06782 0.00478 0.0
H491 H 0.69614 0.11421 0.97011 0.0
O492 O 0.73254 0.15367 0.03957 0.0
O493 O 0.73905 0.11704 0.02697 0.0
O494 O 0.75737 0.15353 0.99641 0.0
O495 O 0.74089 0.11776 0.9758 0.0
C496 C 0.66009 0.03865 0.01504 0.0
C497 C 0.67655 0.02832 0.03 0.0
H498 H 0.7136 0.01366 0.0575 0.0
H499 H 0.75716 0.03268 0.05975 0.0
H500 H 0.65159 0.09949 0.96481 0.0
H501 H 0.63381 0.06398 0.98547 0.0
H502 H 0.64082 0.03125 0.01363 0.0
H503 H 0.66969 0.01312 0.03987 0.0
Mn504 Mn 0.12789 0.50837 0.25503 0.0
Mn505 Mn 0.17911 0.5359 0.28956 0.0
C506 C 0.14146 0.54911 0.25318 0.0
C507 C 0.10869 0.48677 0.2191 0.0
C508 C 0.12992 0.52431 0.30943 0.0
O509 O 0.14339 0.47999 0.26557 0.0
O510 O 0.17802 0.50014 0.28623 0.0
C511 C 0.21509 0.52444 0.25583 0.0
N512 N 0.20548 0.54109 0.26959 0.0
C513 C 0.23512 0.57376 0.259 0.0
C514 C 0.24543 0.55695 0.24482 0.0
C515 C 0.2353 0.53219 0.24316 0.0
C516 C 0.21493 0.56497 0.27114 0.0
H517 H 0.20739 0.5054 0.25457 0.0
C518 C 0.16395 0.48047 0.27762 0.0
O519 O 0.09818 0.48637 0.2392 0.0
O520 O 0.13075 0.49868 0.22024 0.0
N521 N 0.18323 0.57054 0.2947 0.0
C522 C 0.17078 0.58448 0.30868 0.0
C523 C 0.17842 0.60973 0.31199 0.0
C524 C 0.19899 0.62035 0.30125 0.0
C525 C 0.21178 0.6056 0.28734 0.0
C526 C 0.20336 0.58053 0.28474 0.0
H527 H 0.1551 0.57641 0.31719 0.0
O528 O 0.11905 0.5396 0.24603 0.0
O529 O 0.15571 0.53438 0.26069 0.0
O530 O 0.1178 0.51503 0.28942 0.0
O531 O 0.15288 0.53195 0.31144 0.0
C532 C 0.23237 0.6148 0.27568 0.0
C533 C 0.24394 0.59891 0.26141 0.0
H534 H 0.26103 0.56285 0.23503 0.0
H535 H 0.24311 0.51912 0.23218 0.0
H536 H 0.16848 0.62098 0.32282 0.0
H537 H 0.20472 0.63985 0.30371 0.0
H538 H 0.23928 0.6341 0.27734 0.0
H539 H 0.25957 0.60624 0.25229 0.0
Mn540 Mn 0.78187 0.88626 0.54729 0.0
Mn541 Mn 0.79841 0.93808 0.5205 0.0
C542 C 0.8228 0.90326 0.5483 0.0
C543 C 0.76981 0.86572 0.58089 0.0
C544 C 0.78435 0.88852 0.49224 0.0
O545 O 0.7496 0.89921 0.54228 0.0
O546 O 0.76367 0.93404 0.5267 0.0
C547 C 0.79334 0.97291 0.56206 0.0
N548 N 0.80701 0.96483 0.54486 0.0
C549 C 0.84013 0.99769 0.55722 0.0
C550 C 0.82637 0.00645 0.57501 0.0
C551 C 0.80292 0.99393 0.57752 0.0
C552 C 0.82971 0.97653 0.54252 0.0
H553 H 0.77526 0.9634 0.56391 0.0
C554 C 0.74647 0.91931 0.53411 0.0
O555 O 0.76523 0.85545 0.5588 0.0
O556 O 0.78051 0.88822 0.58338 0.0
N557 N 0.83151 0.94516 0.51294 0.0
C558 C 0.84252 0.93412 0.49511 0.0
C559 C 0.86606 0.94441 0.49018 0.0
C560 C 0.87784 0.96617 0.50325 0.0
C561 C 0.86597 0.97744 0.52119 0.0
C562 C 0.84249 0.96638 0.52526 0.0
H563 H 0.83341 0.91762 0.4847 0.0
O564 O 0.81637 0.88063 0.55179 0.0
O565 O 0.80521 0.91564 0.54483 0.0
O566 O 0.7805 0.87635 0.51052 0.0
O567 O 0.79051 0.91158 0.4941 0.0
C568 C 0.87664 0.99904 0.53543 0.0
C569 C 0.8638 0.00905 0.55356 0.0
H570 H 0.83365 0.02271 0.5869 0.0
H571 H 0.79222 0.00053 0.59124 0.0
H572 H 0.87506 0.93563 0.47624 0.0
H573 H 0.89603 0.97398 0.49946 0.0
H574 H 0.89481 0.00795 0.53278 0.0
H575 H 0.87231 0.0255 0.56459 0.0
Mn576 Mn 0.88394 0.99798 0.2428 0.0
Mn577 Mn 0.8322 0.98229 0.27034 0.0
C578 C 0.8666 0.95737 0.24225 0.0
C579 C 0.90455 0.00983 0.20916 0.0
C580 C 0.88229 0.99587 0.29798 0.0
O581 O 0.87134 0.03027 0.24777 0.0
O582 O 0.83657 0.01688 0.26401 0.0
C583 C 0.79694 0.98764 0.22907 0.0
N584 N 0.80505 0.97397 0.24625 0.0
C585 C 0.77162 0.94133 0.23427 0.0
C586 C 0.76283 0.95509 0.21651 0.0
C587 C 0.77562 0.9783 0.21382 0.0
C588 C 0.79309 0.95149 0.24875 0.0
H589 H 0.80666 0.00554 0.22707 0.0
C590 C 0.85142 0.03375 0.25626 0.0
O591 O 0.91489 0.01431 0.23124 0.0
O592 O 0.8819 0.99926 0.20665 0.0
N593 N 0.82477 0.94942 0.2781 0.0
C594 C 0.83582 0.93839 0.29594 0.0
C595 C 0.82528 0.91508 0.30105 0.0
C596 C 0.80325 0.90354 0.28813 0.0
C597 C 0.79196 0.91543 0.2702 0.0
C598 C 0.80327 0.93868 0.26597 0.0
H599 H 0.85253 0.94732 0.30622 0.0
O600 O 0.88927 0.96358 0.23844 0.0
O601 O 0.85431 0.97502 0.2457 0.0
O602 O 0.89419 0.99946 0.27946 0.0
O603 O 0.85913 0.98993 0.29653 0.0
C604 C 0.77004 0.90504 0.25621 0.0
C605 C 0.75999 0.91789 0.23811 0.0
H606 H 0.74633 0.948 0.20479 0.0
H607 H 0.76899 0.98901 0.20012 0.0
H608 H 0.83407 0.90606 0.31497 0.0
H609 H 0.79525 0.88551 0.29204 0.0
H610 H 0.7609 0.88707 0.25903 0.0
H611 H 0.7433 0.90959 0.22726 0.0
Mn612 Mn 0.26449 0.64647 0.5355 0.0
Mn613 Mn 0.23702 0.59428 0.50292 0.0
C614 C 0.22375 0.63281 0.5381 0.0
C615 C 0.28642 0.66721 0.57046 0.0
C616 C 0.24818 0.64231 0.48113 0.0
O617 O 0.29301 0.63086 0.52541 0.0
O618 O 0.27296 0.59541 0.50651 0.0
C619 C 0.24855 0.55977 0.53817 0.0
N620 N 0.23182 0.56885 0.52389 0.0
C621 C 0.19902 0.5398 0.53522 0.0
C622 C 0.21591 0.53003 0.54995 0.0
C623 C 0.24077 0.54013 0.55151 0.0
C624 C 0.20784 0.55943 0.52244 0.0
H625 H 0.26767 0.56745 0.53934 0.0
C626 C 0.29265 0.60989 0.51447 0.0
O627 O 0.28641 0.67671 0.54982 0.0
O628 O 0.27478 0.64522 0.57044 0.0
N629 N 0.20223 0.59015 0.49773 0.0
C630 C 0.1882 0.60217 0.48331 0.0
C631 C 0.16283 0.59456 0.48012 0.0
C632 C 0.15218 0.57445 0.49143 0.0
C633 C 0.16703 0.5621 0.50582 0.0
C634 C 0.1922 0.57049 0.50831 0.0
H635 H 0.19627 0.61749 0.47437 0.0
O636 O 0.23312 0.65534 0.54433 0.0
O637 O 0.23863 0.61852 0.53103 0.0
O638 O 0.25725 0.65508 0.50078 0.0
O639 O 0.24092 0.61942 0.47988 0.0
C640 C 0.15781 0.54201 0.51807 0.0
C641 C 0.17377 0.53096 0.53288 0.0
H642 H 0.20999 0.51487 0.56025 0.0
H643 H 0.2539 0.53275 0.5629 0.0
H644 H 0.15151 0.60415 0.46894 0.0
H645 H 0.1326 0.56874 0.48906 0.0
H646 H 0.13842 0.5351 0.51647 0.0
H647 H 0.16642 0.51574 0.54248 0.0
Mn648 Mn 0.38272 0.49552 0.74717 0.0
Mn649 Mn 0.33093 0.48023 0.77475 0.0
C650 C 0.36523 0.45497 0.74676 0.0
C651 C 0.4032 0.50734 0.71342 0.0
C652 C 0.38109 0.49329 0.80237 0.0
O653 O 0.3704 0.52794 0.75225 0.0
O654 O 0.3355 0.51485 0.76836 0.0
C655 C 0.29592 0.48566 0.73329 0.0
N656 N 0.30385 0.47198 0.75055 0.0
C657 C 0.27062 0.43925 0.73813 0.0
C658 C 0.262 0.45303 0.7203 0.0
C659 C 0.27477 0.47629 0.7178 0.0
C660 C 0.29191 0.44945 0.75288 0.0
H661 H 0.30565 0.50358 0.7314 0.0
C662 C 0.3505 0.53162 0.76066 0.0
O663 O 0.41367 0.51168 0.73546 0.0
O664 O 0.38052 0.49688 0.71102 0.0
N665 N 0.32327 0.4474 0.78258 0.0
C666 C 0.33404 0.43643 0.80065 0.0
C667 C 0.32341 0.41313 0.8057 0.0
C668 C 0.30157 0.40153 0.79249 0.0
C669 C 0.29053 0.41338 0.77435 0.0
C670 C 0.3019 0.43664 0.77022 0.0
H671 H 0.35062 0.44538 0.81115 0.0
O672 O 0.38786 0.46107 0.74274 0.0
O673 O 0.35303 0.4727 0.75019 0.0
O674 O 0.39302 0.49678 0.78384 0.0
O675 O 0.35788 0.48773 0.80095 0.0
C676 C 0.26886 0.40288 0.75999 0.0
C677 C 0.25901 0.41574 0.74177 0.0
H678 H 0.24565 0.4459 0.70837 0.0
H679 H 0.26828 0.487 0.70403 0.0
H680 H 0.33199 0.40415 0.81979 0.0
H681 H 0.29351 0.3835 0.79633 0.0
H682 H 0.25977 0.38483 0.76262 0.0
H683 H 0.24249 0.40738 0.73067 0.0
Mn684 Mn 0.62488 0.00173 0.76016 0.0
Mn685 Mn 0.67103 0.02965 0.8011 0.0
C686 C 0.63791 0.04288 0.76084 0.0
C687 C 0.60918 0.98143 0.72267 0.0
C688 C 0.61939 0.01453 0.81387 0.0
O689 O 0.64055 0.97371 0.77118 0.0
O690 O 0.67173 0.99408 0.79702 0.0
C691 C 0.71246 0.02146 0.77309 0.0
N692 N 0.70013 0.03697 0.7852 0.0
C693 C 0.72963 0.07146 0.77832 0.0
C694 C 0.74272 0.05583 0.7659 0.0
C695 C 0.73406 0.03074 0.76322 0.0
C696 C 0.70825 0.06116 0.7878 0.0
H697 H 0.70585 0.00216 0.77095 0.0
C698 C 0.65965 0.97441 0.78574 0.0
O699 O 0.59707 0.97957 0.74166 0.0
O700 O 0.63107 0.99396 0.72579 0.0
N701 N 0.67297 0.06409 0.80673 0.0
C702 C 0.65759 0.0768 0.81816 0.0
C703 C 0.66336 0.10222 0.82182 0.0
C704 C 0.68496 0.11429 0.81392 0.0
C705 C 0.70062 0.10082 0.80245 0.0
C706 C 0.69399 0.07551 0.79942 0.0
H707 H 0.64097 0.06766 0.82428 0.0
O708 O 0.61616 0.0332 0.75147 0.0
O709 O 0.65158 0.02822 0.76953 0.0
O710 O 0.61066 0.00568 0.79255 0.0
O711 O 0.64183 0.02366 0.8193 0.0
C712 C 0.72231 0.11154 0.79346 0.0
C713 C 0.73676 0.09687 0.78134 0.0
H714 H 0.75935 0.06292 0.7582 0.0
H715 H 0.744 0.01858 0.75356 0.0
H716 H 0.65116 0.11249 0.83067 0.0
H717 H 0.68924 0.13391 0.81659 0.0
H718 H 0.72784 0.13106 0.79545 0.0
H719 H 0.75322 0.10535 0.77421 0.0
Mn720 Mn 0.76379 0.64459 0.00711 0.0
Mn721 Mn 0.7591 0.5988 0.96266 0.0
C722 C 0.72596 0.62311 0.99176 0.0
C723 C 0.76714 0.65856 0.04842 0.0
C724 C 0.7703 0.65202 0.95348 0.0
O725 O 0.79807 0.63593 0.00923 0.0
O726 O 0.79249 0.60468 0.97978 0.0
C727 C 0.76404 0.55832 0.99295 0.0
N728 N 0.75093 0.56836 0.97583 0.0
C729 C 0.71864 0.53384 0.97185 0.0
C730 C 0.73187 0.52308 0.98932 0.0
C731 C 0.75465 0.53539 0.99993 0.0
C732 C 0.72902 0.55663 0.96544 0.0
H733 H 0.78149 0.56778 0.00127 0.0
C734 C 0.80561 0.61883 0.99687 0.0
O735 O 0.77352 0.6731 0.03205 0.0
O736 O 0.75976 0.63591 0.04087 0.0
N737 N 0.72744 0.59121 0.94512 0.0
C738 C 0.71627 0.60481 0.92983 0.0
C739 C 0.69291 0.59549 0.9184 0.0
C740 C 0.68131 0.5723 0.92275 0.0
C741 C 0.69322 0.55859 0.93846 0.0
C742 C 0.71659 0.56873 0.94916 0.0
H743 H 0.72504 0.6227 0.92653 0.0
O744 O 0.72787 0.64499 0.00214 0.0
O745 O 0.74624 0.61486 0.99021 0.0
O746 O 0.76945 0.6608 0.97535 0.0
O747 O 0.76696 0.62924 0.94715 0.0
C748 C 0.6826 0.53549 0.94432 0.0
C749 C 0.69531 0.52312 0.961 0.0
H750 H 0.72461 0.50549 0.99492 0.0
H751 H 0.76491 0.52726 0.01353 0.0
H752 H 0.68381 0.60621 0.90635 0.0
H753 H 0.66319 0.56528 0.91409 0.0
H754 H 0.66452 0.52723 0.93639 0.0
H755 H 0.6868 0.50554 0.96564 0.0
Mn756 Mn 0.90184 0.51427 0.7833 0.0
Mn757 Mn 0.85952 0.50899 0.82374 0.0
C758 C 0.88718 0.47681 0.79572 0.0
C759 C 0.9131 0.51449 0.7438 0.0
C760 C 0.91314 0.52784 0.83814 0.0
O761 O 0.88828 0.54587 0.7817 0.0
O762 O 0.85983 0.53989 0.80836 0.0
C763 C 0.81516 0.50431 0.78943 0.0
N764 N 0.82838 0.49528 0.80725 0.0
C765 C 0.79737 0.46005 0.80694 0.0
C766 C 0.78335 0.46906 0.78872 0.0
C767 C 0.79231 0.49127 0.77991 0.0
C768 C 0.8199 0.47396 0.81591 0.0
H769 H 0.82202 0.5213 0.7825 0.0
C770 C 0.87092 0.5524 0.79292 0.0
O771 O 0.92793 0.52496 0.76223 0.0
O772 O 0.89135 0.50487 0.74823 0.0
N773 N 0.85708 0.47969 0.83961 0.0
C774 C 0.8735 0.4728 0.8561 0.0
C775 C 0.86768 0.45058 0.8661 0.0
C776 C 0.84505 0.43573 0.85913 0.0
C777 C 0.82837 0.4433 0.84229 0.0
C778 C 0.83506 0.46575 0.83313 0.0
H779 H 0.89098 0.48407 0.86144 0.0
O780 O 0.90819 0.48068 0.78699 0.0
O781 O 0.87535 0.49497 0.79692 0.0
O782 O 0.92001 0.5258 0.81679 0.0
O783 O 0.89093 0.52259 0.84266 0.0
C784 C 0.8056 0.42919 0.83383 0.0
C785 C 0.79012 0.43755 0.81616 0.0
H786 H 0.76581 0.45896 0.78118 0.0
H787 H 0.78166 0.49827 0.76575 0.0
H788 H 0.88068 0.44484 0.87904 0.0
H789 H 0.84075 0.41848 0.86666 0.0
H790 H 0.79997 0.41171 0.8405 0.0
H791 H 0.77282 0.42637 0.80953 0.0
Mn792 Mn 0.75278 0.37173 0.50598 0.0
Mn793 Mn 0.7549 0.417 0.46912 0.0
C794 C 0.7891 0.38746 0.49156 0.0
C795 C 0.75545 0.35848 0.54465 0.0
C796 C 0.73423 0.36429 0.45223 0.0
O797 O 0.72133 0.38479 0.51102 0.0
O798 O 0.72638 0.41675 0.48847 0.0
C799 C 0.76489 0.45929 0.50621 0.0
N800 N 0.77119 0.44692 0.48617 0.0
C801 C 0.80658 0.47722 0.48412 0.0
C802 C 0.80028 0.49043 0.50454 0.0
C803 C 0.77937 0.48138 0.51567 0.0
C804 C 0.79129 0.45545 0.47533 0.0
H805 H 0.74901 0.45228 0.51501 0.0
C806 C 0.71483 0.40394 0.50341 0.0
O807 O 0.74386 0.34444 0.52618 0.0
O808 O 0.7646 0.38046 0.54078 0.0
N809 N 0.78209 0.41947 0.44992 0.0
C810 C 0.78679 0.40354 0.43172 0.0
C811 C 0.80775 0.40929 0.41948 0.0
C812 C 0.82361 0.43135 0.42602 0.0
C813 C 0.81834 0.44751 0.44472 0.0
C814 C 0.79706 0.44091 0.45612 0.0
H815 H 0.77477 0.3865 0.42667 0.0
O816 O 0.78606 0.36595 0.49908 0.0
O817 O 0.77086 0.39911 0.49283 0.0
O818 O 0.73895 0.35571 0.47236 0.0
O819 O 0.73847 0.38694 0.44947 0.0
C820 C 0.8337 0.46961 0.45291 0.0
C821 C 0.82782 0.48446 0.47259 0.0
H822 H 0.81154 0.50735 0.51205 0.0
H823 H 0.77452 0.49135 0.53158 0.0
H824 H 0.81173 0.39668 0.40512 0.0
H825 H 0.83989 0.4356 0.41672 0.0
H826 H 0.8503 0.47516 0.44448 0.0
H827 H 0.84 0.50119 0.479 0.0
Mn828 Mn 0.63501 0.51343 0.29537 0.0
Mn829 Mn 0.68084 0.52058 0.34013 0.0
C830 C 0.65495 0.552 0.31002 0.0
C831 C 0.62141 0.50851 0.25397 0.0
C832 C 0.62728 0.50652 0.34858 0.0
O833 O 0.64523 0.47993 0.29443 0.0
O834 O 0.67809 0.48792 0.32219 0.0
C835 C 0.72309 0.52002 0.31109 0.0
N836 N 0.71143 0.53155 0.328 0.0
C837 C 0.74373 0.56608 0.33326 0.0
C838 C 0.75618 0.55446 0.31608 0.0
C839 C 0.7458 0.53135 0.30493 0.0
C840 C 0.7213 0.55377 0.3389 0.0
H841 H 0.71509 0.50237 0.30226 0.0
C842 C 0.66409 0.47395 0.30553 0.0
O843 O 0.60682 0.50203 0.2703 0.0
O844 O 0.64395 0.51697 0.26166 0.0
N845 N 0.68549 0.55188 0.35804 0.0
C846 C 0.67022 0.56146 0.37263 0.0
C847 C 0.67737 0.58499 0.38425 0.0
C848 C 0.70011 0.59843 0.38076 0.0
C849 C 0.71552 0.5882 0.36568 0.0
C850 C 0.70753 0.56457 0.35475 0.0
H851 H 0.65265 0.55131 0.37525 0.0
O852 O 0.63301 0.54893 0.29925 0.0
O853 O 0.66413 0.53238 0.31228 0.0
O854 O 0.61856 0.50798 0.32684 0.0
O855 O 0.65018 0.50986 0.35498 0.0
C856 C 0.73825 0.60074 0.36061 0.0
C857 C 0.75236 0.58968 0.34444 0.0
H858 H 0.77357 0.56326 0.31107 0.0
H859 H 0.7552 0.52235 0.2915 0.0
H860 H 0.66532 0.59281 0.39577 0.0
H861 H 0.70544 0.61668 0.38956 0.0
H862 H 0.74487 0.61906 0.36876 0.0
H863 H 0.76961 0.59966 0.34038 0.0
Zn864 Zn 0.03014 0.99729 0.0378 0.0
Zn865 Zn 0.98772 0.01967 0.00494 0.0
C866 C 0.0086 0.9615 0.06424 0.0
O867 O 0.01979 0.9786 0.08078 0.0
C868 C 0.01069 0.05454 0.9789 0.0
O869 O 0.99875 0.03756 0.96265 0.0
O870 O 0.06386 0.99082 0.04928 0.0
O871 O 0.03493 0.0023 0.00268 0.0
O872 O 0.99863 0.99399 0.98215 0.0
C873 C 0.06737 0.9703 0.03986 0.0
O874 O 0.04972 0.95667 0.02549 0.0
O875 O 0.00843 0.96558 0.04193 0.0
C876 C 0.95175 0.04736 0.00586 0.0
O877 O 0.96913 0.05795 0.02249 0.0
O878 O 0.95483 0.02807 0.99352 0.0
O879 O 0.98223 0.01308 0.03967 0.0
O880 O 0.01841 0.02278 0.06011 0.0
O881 O 0.0104 0.05107 0.00134 0.0
C882 C 0.02165 0.99514 0.98289 0.0
C883 C 0.9953 0.02037 0.05955 0.0
Zn884 Zn 0.24425 0.75811 0.29441 0.0
Zn885 Zn 0.27148 0.77452 0.25204 0.0
C886 C 0.20828 0.72332 0.26803 0.0
O887 O 0.19532 0.73714 0.27984 0.0
C888 C 0.30939 0.81006 0.27797 0.0
O889 O 0.3232 0.79548 0.26868 0.0
O890 O 0.23393 0.74665 0.32619 0.0
O891 O 0.28031 0.76266 0.30012 0.0
O892 O 0.28624 0.74638 0.26428 0.0
C893 C 0.23912 0.72566 0.32883 0.0
O894 O 0.24931 0.7148 0.31146 0.0
O895 O 0.23129 0.72959 0.26974 0.0
C896 C 0.27727 0.80297 0.2139 0.0
O897 O 0.27017 0.81714 0.23097 0.0
O898 O 0.28068 0.78182 0.21854 0.0
O899 O 0.23523 0.77368 0.24776 0.0
O900 O 0.22907 0.78647 0.28496 0.0
O901 O 0.28636 0.80425 0.27422 0.0
C902 C 0.2919 0.74968 0.28715 0.0
C903 C 0.22396 0.78573 0.26211 0.0
Zn904 Zn 0.49827 0.01907 0.53668 0.0
Zn905 Zn 0.54394 0.99704 0.51261 0.0
C906 C 0.52216 0.05462 0.57232 0.0
O907 O 0.50994 0.03898 0.5852 0.0
C908 C 0.52007 0.96136 0.47687 0.0
O909 O 0.5312 0.97757 0.46385 0.0
O910 O 0.46474 0.02815 0.54121 0.0
O911 O 0.49741 0.01306 0.50056 0.0
O912 O 0.53538 0.0236 0.49227 0.0
C913 C 0.46262 0.04994 0.53749 0.0
O914 O 0.4818 0.0648 0.53231 0.0
O915 O 0.52201 0.04923 0.54956 0.0
C916 C 0.58108 0.96955 0.51798 0.0
O917 O 0.56278 0.95689 0.52733 0.0
O918 O 0.57784 0.98914 0.50889 0.0
O919 O 0.54415 0.00357 0.54872 0.0
O920 O 0.50621 0.99186 0.55628 0.0
O921 O 0.52148 0.96596 0.49985 0.0
C922 C 0.51276 0.0241 0.48781 0.0
C923 C 0.52889 0.99205 0.56124 0.0
Zn924 Zn 0.29122 0.23917 0.76892 0.0
Zn925 Zn 0.24478 0.26584 0.79614 0.0
C926 C 0.27512 0.2115 0.72525 0.0
O927 O 0.27998 0.19554 0.74028 0.0
C928 C 0.26359 0.30384 0.83293 0.0
O929 O 0.25565 0.31626 0.8157 0.0
O930 O 0.32519 0.23263 0.76513 0.0
O931 O 0.29508 0.27428 0.78286 0.0
O932 O 0.26017 0.28358 0.7692 0.0
C933 C 0.33809 0.24936 0.75537 0.0
O934 O 0.32901 0.2688 0.75051 0.0
O935 O 0.27692 0.2336 0.73364 0.0
C936 C 0.20229 0.26495 0.81789 0.0
O937 O 0.21623 0.25465 0.83269 0.0
O938 O 0.21059 0.27234 0.79856 0.0
O939 O 0.24092 0.22942 0.79586 0.0
O940 O 0.27331 0.21333 0.78722 0.0
O941 O 0.26248 0.28108 0.82843 0.0
C942 C 0.28329 0.28848 0.77199 0.0
C943 C 0.25199 0.21135 0.79419 0.0
Zn944 Zn 0.03639 0.98335 0.52856 0.0
Zn945 Zn 0.00951 0.02977 0.50187 0.0
C946 C 0.06353 0.00329 0.5717 0.0
O947 O 0.07999 0.99721 0.55779 0.0
C948 C 0.97005 0.01377 0.46571 0.0
O949 O 0.95822 0.02012 0.48411 0.0
O950 O 0.04128 0.94975 0.5361 0.0
O951 O 0.00179 0.97907 0.5135 0.0
O952 O 0.99124 0.01296 0.5278 0.0
C953 C 0.02815 0.94286 0.55284 0.0
O954 O 0.01313 0.9568 0.56084 0.0
O955 O 0.04159 0.00121 0.56245 0.0
C956 C 0.01599 0.07508 0.48569 0.0
O957 O 0.02815 0.06264 0.47144 0.0
O958 O 0.00474 0.06464 0.50208 0.0
O959 O 0.04606 0.03114 0.50132 0.0
O960 O 0.06273 0.99906 0.50947 0.0
O961 O 0.99304 0.01503 0.46904 0.0
C962 C 0.98735 0.98992 0.52504 0.0
C963 C 0.06443 0.02034 0.50266 0.0
Zn964 Zn 0.25504 0.78101 0.75529 0.0
Zn965 Zn 0.27525 0.73532 0.77953 0.0
C966 C 0.22123 0.75603 0.71887 0.0
O967 O 0.23686 0.76921 0.70669 0.0
C968 C 0.31173 0.76148 0.81526 0.0
O969 O 0.29555 0.75341 0.82994 0.0
O970 O 0.24562 0.81422 0.75054 0.0
O971 O 0.26043 0.78217 0.79143 0.0
O972 O 0.24823 0.74447 0.79906 0.0
C973 C 0.22359 0.81608 0.75387 0.0
O974 O 0.20858 0.7967 0.75823 0.0
O975 O 0.22554 0.75669 0.74184 0.0
C976 C 0.30232 0.69738 0.77647 0.0
O977 O 0.31642 0.71531 0.76806 0.0
O978 O 0.2822 0.70129 0.78412 0.0
O979 O 0.27093 0.73513 0.74315 0.0
O980 O 0.28275 0.77323 0.73627 0.0
O981 O 0.30642 0.75733 0.7924 0.0
C982 C 0.24854 0.76709 0.80381 0.0
C983 C 0.28243 0.75068 0.73089 0.0
Zn984 Zn 0.51578 0.01445 1.00052 0.0
Zn985 Zn 0.50417 0.98708 0.04426 0.0
C986 C 0.55172 0.05431 0.01847 0.0
O987 O 0.53521 0.06525 0.00779 0.0
C988 C 0.46632 0.95389 0.0149 0.0
O989 O 0.47981 0.93799 0.02165 0.0
O990 O 0.51823 0.02615 0.96745 0.0
O991 O 0.51776 0.97913 0.99522 0.0
O992 O 0.53045 0.97019 0.03169 0.0
C993 C 0.51095 0.01201 0.94831 0.0
O994 O 0.49728 0.99097 0.95014 0.0
O995 O 0.54737 0.03137 0.0186 0.0
C996 C 0.4745 0.98384 0.0817 0.0
O997 O 0.46174 0.99246 0.06449 0.0
O998 O 0.49505 0.97817 0.07737 0.0
O999 O 0.51109 0.02325 0.04969 0.0
O1000 O 0.48822 0.02651 0.01657 0.0
O1001 O 0.47375 0.97628 0.0213 0.0
C1002 C 0.52937 0.96662 0.00862 0.0
C1003 C 0.49609 0.03416 0.03838 0.0
Zn1004 Zn 0.28343 0.24627 0.26176 0.0
Zn1005 Zn 0.25558 0.28877 0.29555 0.0
C1006 C 0.31325 0.26334 0.22747 0.0
O1007 O 0.29394 0.25057 0.2147 0.0
C1008 C 0.21692 0.26109 0.3158 0.0
O1009 O 0.23307 0.26695 0.33478 0.0
O1010 O 0.28713 0.21152 0.25173 0.0
O1011 O 0.28529 0.24654 0.29846 0.0
O1012 O 0.27841 0.27832 0.32139 0.0
C1013 C 0.3087 0.20805 0.258 0.0
O1014 O 0.32459 0.22625 0.26901 0.0
O1015 O 0.31349 0.26588 0.25053 0.0
C1016 C 0.22852 0.32491 0.29082 0.0
O1017 O 0.21946 0.30792 0.27329 0.0
O1018 O 0.24638 0.32148 0.30522 0.0
O1019 O 0.2669 0.2938 0.26223 0.0
O1020 O 0.25518 0.25766 0.24276 0.0
O1021 O 0.22312 0.26635 0.29496 0.0
C1022 C 0.28489 0.25757 0.31935 0.0
C1023 C 0.25849 0.28065 0.2427 0.0
Zn1024 Zn 0.53988 0.48328 0.03328 0.0
Zn1025 Zn 0.50988 0.52631 0.00295 0.0
C1026 C 0.56849 0.50365 0.07604 0.0
O1027 O 0.58491 0.49862 0.06158 0.0
C1028 C 0.46932 0.50615 0.96933 0.0
O1029 O 0.45818 0.51472 0.98729 0.0
O1030 O 0.54595 0.44958 0.03813 0.0
O1031 O 0.50465 0.47853 0.02028 0.0
O1032 O 0.49378 0.51306 0.03187 0.0
C1033 C 0.5369 0.44132 0.05676 0.0
O1034 O 0.52463 0.45468 0.06997 0.0
O1035 O 0.54628 0.50056 0.06739 0.0
C1036 C 0.50977 0.56576 0.9774 0.0
O1037 O 0.51822 0.54981 0.96317 0.0
O1038 O 0.50408 0.56025 0.99832 0.0
O1039 O 0.54625 0.52928 0.00133 0.0
O1040 O 0.56475 0.49953 0.01313 0.0
O1041 O 0.49227 0.50698 0.97239 0.0
C1042 C 0.49069 0.49011 0.03172 0.0
C1043 C 0.5652 0.51952 0.00375 0.0
Zn1044 Zn 0.75293 0.28286 0.25374 0.0
Zn1045 Zn 0.77526 0.23653 0.27768 0.0
C1046 C 0.71529 0.25611 0.22085 0.0
O1047 O 0.73007 0.26595 0.20569 0.0
C1048 C 0.81125 0.26186 0.31451 0.0
O1049 O 0.79452 0.25405 0.32874 0.0
O1050 O 0.74401 0.31668 0.25104 0.0
O1051 O 0.76237 0.28277 0.28916 0.0
O1052 O 0.7479 0.24569 0.29661 0.0
C1053 C 0.7221 0.319 0.25438 0.0
O1054 O 0.70643 0.2997 0.25766 0.0
O1055 O 0.72197 0.25921 0.24352 0.0
C1056 C 0.80175 0.19864 0.2739 0.0
O1057 O 0.81545 0.21665 0.26518 0.0
O1058 O 0.78182 0.2024 0.2821 0.0
O1059 O 0.77205 0.23641 0.24116 0.0
O1060 O 0.77798 0.27438 0.23148 0.0
O1061 O 0.80648 0.25795 0.29156 0.0
C1062 C 0.74894 0.26844 0.30101 0.0
C1063 C 0.77958 0.2521 0.22689 0.0
Zn1064 Zn 0.01567 0.52768 0.49761 0.0
Zn1065 Zn 0.99712 0.49921 0.53941 0.0
C1066 C 0.04999 0.56381 0.52405 0.0
O1067 O 0.03574 0.57636 0.51221 0.0
C1068 C 0.96174 0.46336 0.51065 0.0
O1069 O 0.97637 0.44894 0.51859 0.0
O1070 O 0.02677 0.53833 0.46567 0.0
O1071 O 0.01199 0.49168 0.49156 0.0
O1072 O 0.02519 0.48391 0.52805 0.0
C1073 C 0.04809 0.53384 0.46296 0.0
O1074 O 0.05953 0.52418 0.48038 0.0
O1075 O 0.04432 0.54083 0.52218 0.0
C1076 C 0.96722 0.49338 0.57676 0.0
O1077 O 0.95349 0.50108 0.55965 0.0
O1078 O 0.98836 0.4895 0.57233 0.0
O1079 O 1e-05 0.53533 0.5447 0.0
O1080 O 0.98729 0.54289 0.50792 0.0
O1081 O 0.96754 0.48609 0.51619 0.0
C1082 C 0.0238 0.47946 0.50507 0.0
C1083 C 0.98841 0.54749 0.53089 0.0
Zn1084 Zn 0.78583 0.74291 0.26662 0.0
Zn1085 Zn 0.74197 0.76725 0.28626 0.0
C1086 C 0.76497 0.71245 0.22524 0.0
O1087 O 0.77204 0.69707 0.2399 0.0
C1088 C 0.7621 0.80336 0.32372 0.0
O1089 O 0.75393 0.81616 0.30696 0.0
O1090 O 0.81891 0.73656 0.25853 0.0
O1091 O 0.79201 0.77871 0.27691 0.0
O1092 O 0.75751 0.78594 0.25989 0.0
C1093 C 0.82484 0.74771 0.24017 0.0
O1094 O 0.81032 0.76163 0.23098 0.0
O1095 O 0.76638 0.73451 0.23351 0.0
C1096 C 0.70074 0.76697 0.30972 0.0
O1097 O 0.71472 0.75548 0.32321 0.0
O1098 O 0.70853 0.77514 0.29048 0.0
O1099 O 0.73542 0.73057 0.28347 0.0
O1100 O 0.77157 0.71982 0.28981 0.0
O1101 O 0.76067 0.78061 0.31876 0.0
C1102 C 0.78042 0.7921 0.26465 0.0
C1103 C 0.74856 0.7153 0.2901 0.0
Zn1104 Zn 0.74465 0.25235 0.78766 0.0
Zn1105 Zn 0.77331 0.26825 0.74543 0.0
C1106 C 0.70781 0.21662 0.76416 0.0
O1107 O 0.69542 0.23182 0.77481 0.0
C1108 C 0.8094 0.3046 0.77276 0.0
O1109 O 0.82388 0.29008 0.76471 0.0
O1110 O 0.73408 0.24315 0.82021 0.0
O1111 O 0.78083 0.25606 0.79358 0.0
O1112 O 0.78845 0.24064 0.75793 0.0
C1113 C 0.73931 0.22237 0.82393 0.0
O1114 O 0.74996 0.21093 0.80736 0.0
O1115 O 0.73085 0.22242 0.76504 0.0
C1116 C 0.77877 0.29706 0.70772 0.0
O1117 O 0.7703 0.31041 0.72453 0.0
O1118 O 0.78323 0.27624 0.71237 0.0
O1119 O 0.73702 0.26493 0.73975 0.0
O1120 O 0.72985 0.28021 0.77567 0.0
O1121 O 0.78649 0.29841 0.76794 0.0
C1122 C 0.79309 0.24349 0.78093 0.0
C1123 C 0.72532 0.2779 0.75266 0.0
Zn1124 Zn 0.78123 0.74221 0.75662 0.0
Zn1125 Zn 0.7595 0.78611 0.78649 0.0
C1126 C 0.81915 0.76153 0.73248 0.0
O1127 O 0.80255 0.74962 0.71579 0.0
C1128 C 0.72133 0.7637 0.81022 0.0
O1129 O 0.73746 0.774 0.82811 0.0
O1130 O 0.78897 0.70823 0.74859 0.0
O1131 O 0.77067 0.73885 0.79047 0.0
O1132 O 0.78357 0.77447 0.81063 0.0
C1133 C 0.80567 0.70531 0.76472 0.0
O1134 O 0.81483 0.72361 0.78085 0.0
O1135 O 0.81416 0.76291 0.75456 0.0
C1136 C 0.73318 0.8229 0.7843 0.0
O1137 O 0.72356 0.8064 0.76651 0.0
O1138 O 0.75166 0.81913 0.79764 0.0
O1139 O 0.76736 0.79042 0.75171 0.0
O1140 O 0.75812 0.75404 0.73163 0.0
O1141 O 0.72694 0.76469 0.78843 0.0
C1142 C 0.77977 0.75145 0.81009 0.0
C1143 C 0.76069 0.77707 0.73186 0.0
Zn1144 Zn 0.52993 0.49603 0.54273 0.0
Zn1145 Zn 0.48864 0.5231 0.50964 0.0
C1146 C 0.50499 0.45888 0.56532 0.0
O1147 O 0.51573 0.47471 0.58323 0.0
C1148 C 0.50892 0.55763 0.48096 0.0
O1149 O 0.49763 0.5396 0.46549 0.0
O1150 O 0.56255 0.48692 0.55374 0.0
O1151 O 0.53644 0.50532 0.50919 0.0
O1152 O 0.50068 0.49713 0.48781 0.0
C1153 C 0.56535 0.46643 0.54367 0.0
O1154 O 0.54751 0.45377 0.52881 0.0
O1155 O 0.50631 0.46456 0.54358 0.0
C1156 C 0.45093 0.54828 0.50917 0.0
O1157 O 0.46816 0.56043 0.52512 0.0
O1158 O 0.45478 0.52873 0.49791 0.0
O1159 O 0.48458 0.51956 0.54558 0.0
O1160 O 0.51986 0.52051 0.56701 0.0
O1161 O 0.50936 0.55503 0.50364 0.0
C1162 C 0.52372 0.49835 0.48909 0.0
C1163 C 0.49728 0.52182 0.56603 0.0
Zn1164 Zn 0.9971 0.5291 0.04256 0.0
Zn1165 Zn 0.04379 0.4913 0.01525 0.0
C1166 C 0.01621 0.56136 0.08397 0.0
O1167 O 0.00176 0.54527 0.09447 0.0
C1168 C 0.02125 0.45348 0.98177 0.0
O1169 O 0.03373 0.4684 0.96842 0.0
O1170 O 0.96304 0.53768 0.04023 0.0
O1171 O 0.00817 0.52728 0.00875 0.0
O1172 O 0.03628 0.51291 0.98891 0.0
C1173 C 0.96256 0.55825 0.0321 0.0
O1174 O 0.98305 0.57102 0.02691 0.0
O1175 O 0.01818 0.55774 0.06136 0.0
C1176 C 0.08183 0.4645 0.02567 0.0
O1177 O 0.06295 0.44985 0.0318 0.0
O1178 O 0.07855 0.4845 0.01754 0.0
O1179 O 0.03704 0.50602 0.04781 0.0
O1180 O 0.0012 0.50019 0.06112 0.0
O1181 O 0.02204 0.4591 0.00457 0.0
C1182 C 0.0183 0.52426 0.98922 0.0
C1183 C 0.02238 0.49464 0.06101 0.0
H1184 H 0.0116 0.16322 0.88182 0.0
H1185 H 0.01719 0.09941 0.00477 0.0
H1186 H 0.015 0.2024 0.95264 0.0
H1187 H 0.02374 0.06403 0.9341 0.0
H1188 H 0.02203 0.13855 0.98724 0.0
H1189 H 0.02087 0.12786 0.90137 0.0
C1190 C 0.01448 0.16443 0.90149 0.0
C1191 C 0.01223 0.18565 0.91563 0.0
C1192 C 0.02291 0.12227 0.97569 0.0
C1193 C 0.02268 0.14517 0.93824 0.0
C1194 C 0.02034 0.09997 0.98575 0.0
C1195 C 0.0197 0.07848 0.97075 0.0
C1196 C 0.02474 0.1229 0.95053 0.0
C1197 C 0.02371 0.08017 0.94621 0.0
C1198 C 0.01986 0.14425 0.91269 0.0
C1199 C 0.01639 0.1863 0.94106 0.0
N1200 N 0.02569 0.10192 0.93679 0.0
N1201 N 0.02109 0.16623 0.95158 0.0
H1202 H 0.07782 0.80713 0.22746 0.0
H1203 H 0.21713 0.79919 0.21644 0.0
H1204 H 0.11169 0.80548 0.1601 0.0
H1205 H 0.18413 0.79659 0.28426 0.0
H1206 H 0.18076 0.8113 0.19733 0.0
H1207 H 0.11823 0.81343 0.24998 0.0
C1208 C 0.09378 0.80878 0.21741 0.0
C1209 C 0.09144 0.80529 0.19189 0.0
C1210 C 0.18149 0.8084 0.21647 0.0
C1211 C 0.13754 0.81217 0.21745 0.0
C1212 C 0.20225 0.8014 0.22738 0.0
C1213 C 0.20339 0.79641 0.25183 0.0
C1214 C 0.16148 0.81003 0.22997 0.0
C1215 C 0.18383 0.80004 0.26528 0.0
C1216 C 0.11683 0.81223 0.23028 0.0
C1217 C 0.11267 0.80766 0.17979 0.0
N1218 N 0.16342 0.80621 0.25403 0.0
N1219 N 0.13481 0.81057 0.19268 0.0
H1220 H 0.4812 0.83969 0.36922 0.0
H1221 H 0.51003 0.91866 0.49812 0.0
H1222 H 0.49624 0.80862 0.43667 0.0
H1223 H 0.5066 0.94861 0.4287 0.0
H1224 H 0.49852 0.8778 0.47695 0.0
H1225 H 0.48434 0.87917 0.39182 0.0
C1226 C 0.48515 0.8411 0.38881 0.0
C1227 C 0.48877 0.82074 0.40098 0.0
C1228 C 0.50003 0.89336 0.46642 0.0
C1229 C 0.49234 0.8662 0.42708 0.0
C1230 C 0.50643 0.91666 0.47848 0.0
C1231 C 0.50947 0.93701 0.4651 0.0
C1232 C 0.49652 0.8905 0.44086 0.0
C1233 C 0.5047 0.9334 0.43971 0.0
C1234 C 0.48689 0.86373 0.40173 0.0
C1235 C 0.49351 0.82381 0.42647 0.0
N1236 N 0.49862 0.91062 0.42842 0.0
N1237 N 0.49531 0.84616 0.43867 0.0
H1238 H 0.47836 0.27466 0.69966 0.0
H1239 H 0.34992 0.208 0.73341 0.0
H1240 H 0.43359 0.21759 0.65133 0.0
H1241 H 0.37814 0.2835 0.75501 0.0
H1242 H 0.38575 0.20549 0.71072 0.0
H1243 H 0.44639 0.27228 0.72735 0.0
C1244 C 0.46187 0.2615 0.69492 0.0
C1245 C 0.45856 0.2464 0.67303 0.0
C1246 C 0.3842 0.22244 0.7208 0.0
C1247 C 0.42212 0.24344 0.70488 0.0
C1248 C 0.36401 0.22381 0.73392 0.0
C1249 C 0.36129 0.24598 0.74604 0.0
C1250 C 0.40181 0.24326 0.72036 0.0
C1251 C 0.37969 0.2661 0.74584 0.0
C1252 C 0.44367 0.26019 0.71075 0.0
C1253 C 0.43679 0.22972 0.66789 0.0
N1254 N 0.39921 0.26427 0.73316 0.0
N1255 N 0.41933 0.22865 0.68375 0.0
H1256 H 0.03618 0.84138 0.66047 0.0
H1257 H 0.04449 0.90174 0.53492 0.0
H1258 H 0.02948 0.79787 0.59154 0.0
H1259 H 0.01808 0.93431 0.59864 0.0
H1260 H 0.04725 0.86518 0.55629 0.0
H1261 H 0.03829 0.87774 0.63875 0.0
C1262 C 0.03531 0.83946 0.64078 0.0
C1263 C 0.03239 0.81651 0.6278 0.0
C1264 C 0.04092 0.88043 0.56548 0.0
C1265 C 0.03496 0.85811 0.60288 0.0
C1266 C 0.03942 0.90122 0.55338 0.0
C1267 C 0.03085 0.92089 0.56499 0.0
C1268 C 0.03433 0.87974 0.58943 0.0
C1269 C 0.0245 0.91941 0.5889 0.0
C1270 C 0.03644 0.86022 0.6284 0.0
C1271 C 0.03144 0.81519 0.60226 0.0
N1272 N 0.02646 0.89924 0.60035 0.0
N1273 N 0.03271 0.83574 0.59058 0.0
H1274 H 0.46077 0.75325 0.84212 0.0
H1275 H 0.3291 0.7775 0.86238 0.0
H1276 H 0.44919 0.8005 0.90373 0.0
H1277 H 0.35241 0.7651 0.7906 0.0
H1278 H 0.37187 0.78477 0.87928 0.0
H1279 H 0.41954 0.75449 0.82432 0.0
C1280 C 0.44959 0.76426 0.85163 0.0
C1281 C 0.45852 0.77767 0.87379 0.0
C1282 C 0.36756 0.78087 0.8598 0.0
C1283 C 0.4112 0.77842 0.85419 0.0
C1284 C 0.34322 0.77672 0.85015 0.0
C1285 C 0.33721 0.77042 0.8251 0.0
C1286 C 0.38583 0.77817 0.84432 0.0
C1287 C 0.35619 0.76978 0.81003 0.0
C1288 C 0.4261 0.76491 0.84156 0.0
C1289 C 0.44299 0.7905 0.88622 0.0
N1290 N 0.37964 0.77315 0.81994 0.0
N1291 N 0.41994 0.79061 0.87622 0.0
H1292 H 0.45101 0.15462 0.12056 0.0
H1293 H 0.52866 0.06787 0.06655 0.0
H1294 H 0.51107 0.18356 0.08127 0.0
H1295 H 0.45433 0.05401 0.0339 0.0
H1296 H 0.5223 0.10763 0.08374 0.0
H1297 H 0.45084 0.1141 0.09916 0.0
C1298 C 0.46383 0.15242 0.1072 0.0
C1299 C 0.48078 0.17223 0.10216 0.0
C1300 C 0.50741 0.09576 0.07289 0.0
C1301 C 0.48121 0.12673 0.07876 0.0
C1302 C 0.51095 0.07317 0.06317 0.0
C1303 C 0.49197 0.05785 0.04878 0.0
C1304 C 0.48458 0.10272 0.06878 0.0
C1305 C 0.46939 0.06555 0.0448 0.0
C1306 C 0.46365 0.12956 0.09503 0.0
C1307 C 0.49745 0.16868 0.08519 0.0
N1308 N 0.46615 0.08756 0.05502 0.0
N1309 N 0.4975 0.14624 0.07431 0.0
H1310 H 0.09017 0.25451 0.39408 0.0
H1311 H 0.17659 0.26504 0.28554 0.0
H1312 H 0.07241 0.2838 0.32627 0.0
H1313 H 0.19829 0.24383 0.35624 0.0
H1314 H 0.13525 0.26436 0.29744 0.0
H1315 H 0.12718 0.24408 0.3782 0.0
C1316 C 0.09398 0.25871 0.37587 0.0
C1317 C 0.07827 0.27039 0.36167 0.0
C1318 C 0.14897 0.25947 0.31021 0.0
C1319 C 0.1205 0.25827 0.34329 0.0
C1320 C 0.17252 0.25962 0.30332 0.0
C1321 C 0.19098 0.25481 0.32006 0.0
C1322 C 0.1439 0.25447 0.33395 0.0
C1323 C 0.18467 0.24798 0.34289 0.0
C1324 C 0.11509 0.25268 0.36677 0.0
C1325 C 0.0841 0.27515 0.33807 0.0
N1326 N 0.16175 0.24833 0.34929 0.0
N1327 N 0.10476 0.26919 0.3297 0.0
H1328 H 0.95376 0.02522 0.20852 0.0
H1329 H 0.94681 0.01969 0.06296 0.0
H1330 H 0.88718 0.00572 0.161 0.0
H1331 H 0.01487 0.02637 0.10784 0.0
H1332 H 0.92522 0.01966 0.09937 0.0
H1333 H 0.97664 0.0305 0.17273 0.0
C1334 C 0.9439 0.02227 0.19059 0.0
C1335 C 0.91846 0.01496 0.1878 0.0
C1336 C 0.94488 0.02121 0.10136 0.0
C1337 C 0.94461 0.02097 0.14673 0.0
C1338 C 0.95732 0.02126 0.08051 0.0
C1339 C 0.98279 0.02278 0.0822 0.0
C1340 C 0.95784 0.02273 0.12437 0.0
C1341 C 0.99525 0.02508 0.10559 0.0
C1342 C 0.95702 0.0252 0.17016 0.0
C1343 C 0.90674 0.01132 0.16409 0.0
N1344 N 0.98265 0.02484 0.12576 0.0
N1345 N 0.91988 0.01433 0.14455 0.0
H1346 H 0.23389 0.6214 0.43481 0.0
H1347 H 0.23671 0.74696 0.37483 0.0
H1348 H 0.25476 0.6913 0.47626 0.0
H1349 H 0.23446 0.67761 0.33417 0.0
H1350 H 0.23679 0.72674 0.41265 0.0
H1351 H 0.22805 0.64181 0.39812 0.0
C1352 C 0.2373 0.64105 0.43624 0.0
C1353 C 0.24505 0.65463 0.45869 0.0
C1354 C 0.23608 0.71599 0.3954 0.0
C1355 C 0.23817 0.67814 0.41661 0.0
C1356 C 0.23583 0.72747 0.37386 0.0
C1357 C 0.23578 0.71392 0.35146 0.0
C1358 C 0.23597 0.69085 0.39432 0.0
C1359 C 0.23479 0.68876 0.35113 0.0
C1360 C 0.23391 0.65269 0.41524 0.0
C1361 C 0.249 0.68007 0.45933 0.0
N1362 N 0.235 0.67806 0.37223 0.0
N1363 N 0.24552 0.69102 0.43857 0.0
H1364 H 0.63022 0.97879 0.67988 0.0
H1365 H 0.50482 0.97856 0.60108 0.0
H1366 H 0.56056 0.96619 0.70942 0.0
H1367 H 0.5749 0.98393 0.57226 0.0
H1368 H 0.52354 0.96802 0.63964 0.0
H1369 H 0.60921 0.97404 0.63902 0.0
C1370 C 0.6105 0.97456 0.67772 0.0
C1371 C 0.59712 0.97324 0.69805 0.0
C1372 C 0.53468 0.97114 0.62469 0.0
C1373 C 0.57283 0.96838 0.65137 0.0
C1374 C 0.52399 0.97714 0.60271 0.0
C1375 C 0.53839 0.98253 0.58357 0.0
C1376 C 0.55986 0.97054 0.6274 0.0
C1377 C 0.56312 0.98031 0.58662 0.0
C1378 C 0.59846 0.97192 0.65438 0.0
C1379 C 0.57158 0.96754 0.69421 0.0
N1380 N 0.57308 0.97476 0.60814 0.0
N1381 N 0.56022 0.96579 0.67132 0.0
H1382 H 0.28923 0.40909 0.9582 0.0
H1383 H 0.26957 0.28246 0.87558 0.0
H1384 H 0.27816 0.33983 0.98833 0.0
H1385 H 0.27234 0.35234 0.84736 0.0
H1386 H 0.27616 0.30276 0.91704 0.0
H1387 H 0.28597 0.38818 0.91769 0.0
C1388 C 0.28605 0.38944 0.95637 0.0
C1389 C 0.28386 0.37626 0.97688 0.0
C1390 C 0.27547 0.31362 0.90175 0.0
C1391 C 0.28021 0.35204 0.93007 0.0
C1392 C 0.27187 0.30207 0.87807 0.0
C1393 C 0.27032 0.31572 0.85795 0.0
C1394 C 0.27764 0.33899 0.9053 0.0
C1395 C 0.27328 0.34105 0.86229 0.0
C1396 C 0.28422 0.37748 0.93311 0.0
C1397 C 0.27984 0.35078 0.97311 0.0
N1398 N 0.27671 0.35182 0.88544 0.0
N1399 N 0.27815 0.3395 0.95015 0.0
H1400 H 0.932 0.00463 0.30994 0.0
H1401 H 0.9209 0.00501 0.45329 0.0
H1402 H 0.86362 0.99157 0.34203 0.0
H1403 H 0.98962 0.01019 0.42184 0.0
H1404 H 0.89975 0.99974 0.41244 0.0
H1405 H 0.95361 0.00701 0.35054 0.0
C1406 C 0.9215 0.00233 0.32546 0.0
C1407 C 0.89589 0.99798 0.32246 0.0
C1408 C 0.91945 0.00188 0.41442 0.0
C1409 C 0.92058 0.00059 0.36902 0.0
C1410 C 0.93155 0.00487 0.43778 0.0
C1411 C 0.95709 0.00814 0.44101 0.0
C1412 C 0.93294 0.00235 0.39405 0.0
C1413 C 0.96991 0.00769 0.4202 0.0
C1414 C 0.93387 0.0036 0.34865 0.0
C1415 C 0.88334 0.99502 0.34333 0.0
N1416 N 0.95771 0.00504 0.3976 0.0
N1417 N 0.89579 0.99643 0.36565 0.0
H1418 H 0.29719 0.71675 0.57923 0.0
H1419 H 0.29651 0.70719 0.72177 0.0
H1420 H 0.29646 0.65076 0.61451 0.0
H1421 H 0.28958 0.77318 0.6887 0.0
H1422 H 0.30618 0.68912 0.6833 0.0
H1423 H 0.30382 0.74001 0.61931 0.0
C1424 C 0.29905 0.70721 0.59537 0.0
C1425 C 0.29593 0.68176 0.59362 0.0
C1426 C 0.30285 0.70765 0.68438 0.0
C1427 C 0.30331 0.70817 0.63933 0.0
C1428 C 0.29737 0.71804 0.70644 0.0
C1429 C 0.29194 0.74164 0.70839 0.0
C1430 C 0.30246 0.72071 0.66381 0.0
C1431 C 0.29353 0.75487 0.68792 0.0
C1432 C 0.30268 0.72049 0.61822 0.0
C1433 C 0.29844 0.67033 0.61505 0.0
N1434 N 0.29822 0.74405 0.66627 0.0
N1435 N 0.30171 0.68359 0.63699 0.0
H1436 H 0.57285 0.9897 0.81211 0.0
H1437 H 0.54756 0.04896 0.94155 0.0
H1438 H 0.62659 0.04058 0.85878 0.0
H1439 H 0.50291 0.98437 0.90444 0.0
H1440 H 0.57303 0.05099 0.90772 0.0
H1441 H 0.54411 0.99172 0.84283 0.0
C1442 C 0.57865 0.00131 0.82882 0.0
C1443 C 0.60226 0.01495 0.83288 0.0
C1444 C 0.55751 0.03652 0.90689 0.0
C1445 C 0.56924 0.01749 0.86801 0.0
C1446 C 0.5428 0.03544 0.9261 0.0
C1447 C 0.52319 0.01627 0.92596 0.0
C1448 C 0.55249 0.01843 0.88733 0.0
C1449 C 0.51794 0.99935 0.9054 0.0
C1450 C 0.56218 0.00245 0.84633 0.0
C1451 C 0.60867 0.02963 0.85491 0.0
N1452 N 0.53264 0.00072 0.88698 0.0
N1453 N 0.59222 0.03056 0.87163 0.0
H1454 H 0.2787 0.38717 0.13853 0.0
H1455 H 0.24815 0.25946 0.19513 0.0
H1456 H 0.25701 0.31935 0.09386 0.0
H1457 H 0.26595 0.3291 0.2373 0.0
H1458 H 0.24969 0.28037 0.15771 0.0
H1459 H 0.27255 0.36568 0.17473 0.0
C1460 C 0.2725 0.36775 0.13631 0.0
C1461 C 0.26843 0.35509 0.11307 0.0
C1462 C 0.25314 0.29102 0.17519 0.0
C1463 C 0.26147 0.33011 0.15471 0.0
C1464 C 0.25226 0.27908 0.19657 0.0
C1465 C 0.25726 0.29245 0.21951 0.0
C1466 C 0.25894 0.3165 0.17676 0.0
C1467 C 0.26225 0.31789 0.22015 0.0
C1468 C 0.26898 0.35542 0.15704 0.0
C1469 C 0.26036 0.32987 0.1114 0.0
N1470 N 0.26308 0.32898 0.19921 0.0
N1471 N 0.25729 0.31819 0.13193 0.0
H1472 H 0.18005 0.88237 0.02773 0.0
H1473 H 0.11296 0.99805 0.04321 0.0
H1474 H 0.20734 0.95199 0.00326 0.0
H1475 H 0.07579 0.9242 0.04092 0.0
H1476 H 0.15142 0.98282 0.03844 0.0
H1477 H 0.14496 0.89892 0.04167 0.0
C1478 C 0.17875 0.90112 0.02536 0.0
C1479 C 0.19656 0.9157 0.01403 0.0
C1480 C 0.13487 0.97001 0.03939 0.0
C1481 C 0.15672 0.93482 0.03033 0.0
C1482 C 0.11304 0.9787 0.04236 0.0
C1483 C 0.09127 0.96231 0.04232 0.0
C1484 C 0.13482 0.94484 0.03672 0.0
C1485 C 0.09223 0.9374 0.04085 0.0
C1486 C 0.15874 0.91055 0.03335 0.0
C1487 C 0.19393 0.93995 0.01159 0.0
N1488 N 0.11361 0.9294 0.03799 0.0
N1489 N 0.17441 0.94873 0.01966 0.0
H1490 H 0.71704 0.58045 0.01135 0.0
H1491 H 0.57292 0.56141 0.9809 0.0
H1492 H 0.68153 0.6292 0.97037 0.0
H1493 H 0.61099 0.50821 0.01205 0.0
H1494 H 0.61211 0.58568 0.97507 0.0
H1495 H 0.67815 0.55333 0.01062 0.0
C1496 C 0.701 0.58518 0.00182 0.0
C1497 C 0.70249 0.60657 0.99017 0.0
C1498 C 0.61187 0.56858 0.98294 0.0
C1499 C 0.65767 0.57612 0.98999 0.0
C1500 C 0.58949 0.55466 0.98628 0.0
C1501 C 0.58861 0.53278 0.99721 0.0
C1502 C 0.63356 0.56068 0.99077 0.0
C1503 C 0.61071 0.52497 0.00366 0.0
C1504 C 0.67877 0.56979 0.00152 0.0
C1505 C 0.68108 0.61254 0.9791 0.0
N1506 N 0.63225 0.53902 1.00057 0.0
N1507 N 0.65947 0.59732 0.97921 0.0
H1508 H 0.6383 0.4356 0.27484 0.0
H1509 H 0.7507 0.36318 0.26928 0.0
H1510 H 0.70766 0.45916 0.31723 0.0
H1511 H 0.67614 0.32932 0.24853 0.0
H1512 H 0.73641 0.4013 0.28088 0.0
H1513 H 0.65287 0.39867 0.25987 0.0
C1514 C 0.6565 0.43301 0.28111 0.0
C1515 C 0.67167 0.45057 0.29745 0.0
C1516 C 0.72322 0.38555 0.27358 0.0
C1517 C 0.68862 0.40857 0.27996 0.0
C1518 C 0.7314 0.36389 0.26674 0.0
C1519 C 0.71458 0.34307 0.25799 0.0
C1520 C 0.6981 0.38643 0.27134 0.0
C1521 C 0.68972 0.34494 0.25533 0.0
C1522 C 0.66482 0.41196 0.2725 0.0
C1523 C 0.69518 0.44617 0.30479 0.0
N1524 N 0.68223 0.36619 0.26199 0.0
N1525 N 0.70294 0.42574 0.29591 0.0
H1526 H 0.81083 0.43079 0.51389 0.0
H1527 H 0.94394 0.41639 0.49271 0.0
H1528 H 0.82386 0.37115 0.46559 0.0
H1529 H 0.9228 0.48685 0.50448 0.0
H1530 H 0.90094 0.39847 0.48263 0.0
H1531 H 0.85267 0.45087 0.51197 0.0
C1532 C 0.82244 0.42226 0.50237 0.0
C1533 C 0.81379 0.39991 0.489 0.0
C1534 C 0.90584 0.41791 0.48693 0.0
C1535 C 0.86192 0.42202 0.48771 0.0
C1536 C 0.93032 0.42814 0.49274 0.0
C1537 C 0.93688 0.45307 0.49984 0.0
C1538 C 0.88794 0.4327 0.48876 0.0
C1539 C 0.91855 0.4675 0.49936 0.0
C1540 C 0.8463 0.43362 0.50137 0.0
C1541 C 0.82987 0.38875 0.4756 0.0
N1542 N 0.89484 0.45703 0.49442 0.0
N1543 N 0.85335 0.39991 0.47535 0.0
H1544 H 0.39412 0.09288 0.26493 0.0
H1545 H 0.27997 0.1634 0.25794 0.0
H1546 H 0.32567 0.06787 0.29345 0.0
H1547 H 0.35403 0.19796 0.2532 0.0
H1548 H 0.29448 0.1246 0.26159 0.0
H1549 H 0.37772 0.12839 0.252 0.0
C1550 C 0.37567 0.09477 0.2684 0.0
C1551 C 0.3614 0.07749 0.28057 0.0
C1552 C 0.30747 0.14065 0.2594 0.0
C1553 C 0.34244 0.11776 0.26549 0.0
C1554 C 0.29917 0.16269 0.25711 0.0
C1555 C 0.31588 0.18386 0.25552 0.0
C1556 C 0.33256 0.13987 0.2598 0.0
C1557 C 0.3406 0.18205 0.25469 0.0
C1558 C 0.36632 0.115 0.26099 0.0
C1559 C 0.33751 0.08084 0.28443 0.0
N1560 N 0.34823 0.16048 0.25699 0.0
N1561 N 0.32882 0.10055 0.27694 0.0
H1562 H 0.34639 0.13615 0.52578 0.0
H1563 H 0.41696 0.0225 0.52784 0.0
H1564 H 0.31975 0.06668 0.48518 0.0
H1565 H 0.45405 0.09644 0.54328 0.0
H1566 H 0.37849 0.03761 0.51967 0.0
H1567 H 0.38395 0.12117 0.53887 0.0
C1568 C 0.3484 0.11783 0.51958 0.0
C1569 C 0.32985 0.10277 0.50421 0.0
C1570 C 0.39505 0.05049 0.52506 0.0
C1571 C 0.37245 0.08539 0.51957 0.0
C1572 C 0.41693 0.04186 0.52993 0.0
C1573 C 0.43872 0.05823 0.53608 0.0
C1574 C 0.39493 0.07563 0.52669 0.0
C1575 C 0.43767 0.08319 0.53836 0.0
C1576 C 0.36979 0.10929 0.52709 0.0
C1577 C 0.3335 0.07911 0.49688 0.0
N1578 N 0.41617 0.09114 0.53362 0.0
N1579 N 0.35424 0.07116 0.5047 0.0
H1580 H 0.69841 0.56246 0.29161 0.0
H1581 H 0.70296 0.7047 0.30491 0.0
H1582 H 0.64584 0.59591 0.32896 0.0
H1583 H 0.76612 0.6722 0.291 0.0
H1584 H 0.68149 0.66521 0.31327 0.0
H1585 H 0.72323 0.60237 0.29056 0.0
C1586 C 0.69242 0.57825 0.30012 0.0
C1587 C 0.67058 0.57593 0.31122 0.0
C1588 C 0.70012 0.66674 0.30863 0.0
C1589 C 0.69821 0.62177 0.30901 0.0
C1590 C 0.71239 0.68926 0.30375 0.0
C1591 C 0.73635 0.69173 0.29707 0.0
C1592 C 0.71169 0.64636 0.30643 0.0
C1593 C 0.74768 0.67112 0.29606 0.0
C1594 C 0.70649 0.60103 0.29935 0.0
C1595 C 0.66289 0.597 0.32074 0.0
N1596 N 0.73513 0.64922 0.30039 0.0
N1597 N 0.67668 0.61911 0.31938 0.0
H1598 H 0.90578 0.44107 0.81792 0.0
H1599 H 0.7855 0.34316 0.77932 0.0
H1600 H 0.84254 0.45551 0.77538 0.0
H1601 H 0.8568 0.3229 0.78951 0.0
H1602 H 0.80403 0.38564 0.78959 0.0
H1603 H 0.88597 0.39847 0.81778 0.0
C1604 C 0.88758 0.43528 0.80893 0.0
C1605 C 0.87527 0.4518 0.79744 0.0
C1606 C 0.81554 0.37182 0.78985 0.0
C1607 C 0.85283 0.40364 0.79701 0.0
C1608 C 0.80499 0.34757 0.78415 0.0
C1609 C 0.81971 0.32952 0.78317 0.0
C1610 C 0.84091 0.37801 0.79481 0.0
C1611 C 0.84485 0.33631 0.7897 0.0
C1612 C 0.87635 0.41113 0.80885 0.0
C1613 C 0.85211 0.44346 0.78533 0.0
N1614 N 0.85474 0.3601 0.79506 0.0
N1615 N 0.84153 0.41998 0.78556 0.0
H1616 H 0.99707 0.8071 0.07443 0.0
H1617 H 0.0012 0.94879 0.10972 0.0
H1618 H 0.01489 0.84284 0.14716 0.0
H1619 H 0.00028 0.91806 0.0356 0.0
H1620 H 0.99787 0.90823 0.12331 0.0
H1621 H 0.99118 0.846 0.05969 0.0
C1622 C 0.99964 0.82306 0.08733 0.0
C1623 C 0.00667 0.82171 0.11208 0.0
C1624 C 0.99813 0.91028 0.10404 0.0
C1625 C 0.9997 0.86612 0.09532 0.0
C1626 C 0.9999 0.93344 0.09624 0.0
C1627 C 0.00134 0.93682 0.07153 0.0
C1628 C 0.99788 0.8903 0.08703 0.0
C1629 C 0.9993 0.91625 0.05484 0.0
C1630 C 0.99627 0.84523 0.07887 0.0
C1631 C 0.00973 0.84301 0.12791 0.0
N1632 N 0.99798 0.89382 0.06294 0.0
N1633 N 0.00624 0.86429 0.11925 0.0
H1634 H 0.91245 0.24667 0.88582 0.0
H1635 H 0.82983 0.22339 0.7606 0.0
H1636 H 0.93403 0.20806 0.82304 0.0
H1637 H 0.80426 0.24406 0.82955 0.0
H1638 H 0.8667 0.2141 0.78267 0.0
H1639 H 0.87139 0.24275 0.86561 0.0
C1640 C 0.90838 0.2373 0.86771 0.0
C1641 C 0.92668 0.22878 0.85543 0.0
C1642 C 0.85288 0.22051 0.79288 0.0
C1643 C 0.87983 0.22386 0.83224 0.0
C1644 C 0.83185 0.22578 0.78031 0.0
C1645 C 0.81421 0.23503 0.79323 0.0
C1646 C 0.85628 0.22493 0.81839 0.0
C1647 C 0.81762 0.23752 0.81876 0.0
C1648 C 0.88496 0.23494 0.85618 0.0
C1649 C 0.92049 0.21595 0.83244 0.0
N1650 N 0.83836 0.23285 0.83043 0.0
N1651 N 0.89759 0.21426 0.82127 0.0
H1652 H 0.51939 0.18472 0.66128 0.0
H1653 H 0.53887 0.09476 0.54916 0.0
H1654 H 0.54943 0.20991 0.5968 0.0
H1655 H 0.52442 0.0719 0.62001 0.0
H1656 H 0.54536 0.13705 0.56649 0.0
H1657 H 0.52315 0.14322 0.64694 0.0
C1658 C 0.52671 0.18137 0.64402 0.0
C1659 C 0.53299 0.20032 0.62954 0.0
C1660 C 0.54118 0.12275 0.57831 0.0
C1661 C 0.53794 0.15323 0.61324 0.0
C1662 C 0.53757 0.09859 0.56845 0.0
C1663 C 0.53083 0.07977 0.58311 0.0
C1664 C 0.53788 0.12804 0.60293 0.0
C1665 C 0.52932 0.08582 0.60796 0.0
C1666 C 0.529 0.15777 0.63589 0.0
C1667 C 0.54329 0.19542 0.60781 0.0
N1668 N 0.53249 0.10942 0.61701 0.0
N1669 N 0.54512 0.17222 0.60008 0.0
H1670 H 0.57008 0.75264 0.38376 0.0
H1671 H 0.66388 0.78435 0.28411 0.0
H1672 H 0.54967 0.77869 0.31489 0.0
H1673 H 0.68182 0.75473 0.35164 0.0
H1674 H 0.62266 0.78542 0.29606 0.0
H1675 H 0.61196 0.75624 0.37325 0.0
C1676 C 0.57438 0.7592 0.36646 0.0
C1677 C 0.55622 0.76525 0.35016 0.0
C1678 C 0.6357 0.7788 0.30827 0.0
C1679 C 0.60428 0.76937 0.33796 0.0
C1680 C 0.65921 0.77823 0.30147 0.0
C1681 C 0.67623 0.76928 0.31681 0.0
C1682 C 0.62931 0.77042 0.33056 0.0
C1683 C 0.66925 0.76161 0.33913 0.0
C1684 C 0.59834 0.76125 0.36046 0.0
C1685 C 0.563 0.77374 0.32803 0.0
N1686 N 0.64634 0.76228 0.34526 0.0
N1687 N 0.58646 0.77545 0.32254 0.0
H1688 H 0.05095 0.22581 0.45853 0.0
H1689 H 0.97634 0.09792 0.48162 0.0
H1690 H 0.98336 0.19574 0.41563 0.0
H1691 H 0.0544 0.10943 0.4801 0.0
H1692 H 0.9759 0.1389 0.46847 0.0
H1693 H 0.0497 0.18754 0.47746 0.0
C1694 C 0.0358 0.21119 0.45323 0.0
C1695 C 0.01735 0.21373 0.43536 0.0
C1696 C 0.99309 0.13247 0.47143 0.0
C1697 C 0.01551 0.17051 0.45732 0.0
C1698 C 0.99337 0.10933 0.47909 0.0
C1699 C 0.01544 0.10056 0.48189 0.0
C1700 C 0.0151 0.14688 0.46727 0.0
C1701 C 0.03705 0.11571 0.47806 0.0
C1702 C 0.03511 0.18948 0.464 0.0
C1703 C 0.99808 0.19431 0.42913 0.0
N1704 N 0.03638 0.13824 0.47102 0.0
N1705 N 0.99756 0.17347 0.44022 0.0
H1706 H 0.5808 0.22125 0.12864 0.0
H1707 H 0.67574 0.24962 0.24742 0.0
H1708 H 0.56171 0.2474 0.19881 0.0
H1709 H 0.69645 0.24151 0.17412 0.0
H1710 H 0.63282 0.2411 0.23122 0.0
H1711 H 0.62223 0.22159 0.14643 0.0
C1712 C 0.58531 0.22704 0.14783 0.0
C1713 C 0.56784 0.23453 0.16224 0.0
C1714 C 0.64679 0.24091 0.21875 0.0
C1715 C 0.61526 0.2348 0.18274 0.0
C1716 C 0.67127 0.24556 0.22797 0.0
C1717 C 0.68967 0.24651 0.21203 0.0
C1718 C 0.64075 0.23697 0.19347 0.0
C1719 C 0.68283 0.24119 0.18702 0.0
C1720 C 0.60898 0.22719 0.15797 0.0
C1721 C 0.57469 0.24169 0.18702 0.0
N1722 N 0.65892 0.23681 0.1785 0.0
N1723 N 0.59794 0.24171 0.1965 0.0
H1724 H 0.54277 0.82307 0.95462 0.0
H1725 H 0.5465 0.96562 0.96438 0.0
H1726 H 0.54945 0.8672 0.89416 0.0
H1727 H 0.53532 0.92263 0.02505 0.0
H1728 H 0.55663 0.93078 0.94081 0.0
H1729 H 0.54874 0.85993 0.98249 0.0
C1730 C 0.54591 0.84048 0.94718 0.0
C1731 C 0.54512 0.84199 0.92189 0.0
C1732 C 0.5523 0.92894 0.95936 0.0
C1733 C 0.55188 0.88422 0.9538 0.0
C1734 C 0.54651 0.94884 0.97284 0.0
C1735 C 0.53968 0.9468 0.99652 0.0
C1736 C 0.55085 0.90664 0.96946 0.0
C1737 C 0.54036 0.92483 0.00677 0.0
C1738 C 0.54928 0.86152 0.96316 0.0
C1739 C 0.54953 0.86508 0.91344 0.0
N1740 N 0.54539 0.90537 0.99297 0.0
N1741 N 0.5524 0.88524 0.92933 0.0
H1742 H 0.97451 0.77424 0.72345 0.0
H1743 H 0.83227 0.76952 0.68737 0.0
H1744 H 0.93902 0.75637 0.65055 0.0
H1745 H 0.86259 0.7697 0.76161 0.0
H1746 H 0.87311 0.77309 0.6741 0.0
H1747 H 0.93529 0.77963 0.73798 0.0
C1748 C 0.95852 0.77155 0.71046 0.0
C1749 C 0.96006 0.76469 0.68572 0.0
C1750 C 0.87093 0.77261 0.69333 0.0
C1751 C 0.91525 0.77108 0.70226 0.0
C1752 C 0.84762 0.7707 0.70096 0.0
C1753 C 0.84404 0.76899 0.72559 0.0
C1754 C 0.89089 0.77272 0.71044 0.0
C1755 C 0.86458 0.77091 0.74243 0.0
C1756 C 0.93616 0.77463 0.71881 0.0
C1757 C 0.93872 0.76144 0.66979 0.0
N1758 N 0.88719 0.77236 0.73449 0.0
N1759 N 0.91723 0.76467 0.67834 0.0
H1760 H 0.13725 0.99225 0.88982 0.0
H1761 H 0.00432 0.99497 0.93433 0.0
H1762 H 0.07569 0.00067 0.84074 0.0
H1763 H 0.06795 0.98668 0.98049 0.0
H1764 H 0.02839 0.99378 0.89896 0.0
H1765 H 0.11057 0.98702 0.92228 0.0
C1766 C 0.11807 0.99288 0.88576 0.0
C1767 C 0.10884 0.99705 0.8624 0.0
C1768 C 0.03694 0.99202 0.91684 0.0
C1769 C 0.07789 0.99119 0.89994 0.0
C1770 C 0.02319 0.9926 0.93702 0.0
C1771 C 0.03417 0.99124 0.96051 0.0
C1772 C 0.06176 0.98989 0.92023 0.0
C1773 C 0.05871 0.98814 0.96284 0.0
C1774 C 0.10276 0.98988 0.90441 0.0
C1775 C 0.08369 0.99752 0.85843 0.0
N1776 N 0.0716 0.98772 0.94309 0.0
N1777 N 0.06913 0.99482 0.87703 0.0
H1778 H 0.77446 0.38489 0.58726 0.0
H1779 H 0.77556 0.26968 0.66378 0.0
H1780 H 0.74648 0.31158 0.55661 0.0
H1781 H 0.7838 0.34347 0.69605 0.0
H1782 H 0.77108 0.28443 0.62327 0.0
H1783 H 0.78335 0.36962 0.62649 0.0
C1784 C 0.77008 0.36557 0.58882 0.0
C1785 C 0.75957 0.34949 0.56871 0.0
C1786 C 0.77409 0.29735 0.63926 0.0
C1787 C 0.77001 0.33184 0.61349 0.0
C1788 C 0.77688 0.28899 0.6623 0.0
C1789 C 0.77993 0.30541 0.68321 0.0
C1790 C 0.77465 0.32227 0.63727 0.0
C1791 C 0.78129 0.33019 0.68036 0.0
C1792 C 0.77522 0.35686 0.61121 0.0
C1793 C 0.75441 0.32462 0.57174 0.0
N1794 N 0.77857 0.33786 0.65784 0.0
N1795 N 0.75974 0.31652 0.59373 0.0
H1796 H 0.40445 0.05289 0.38335 0.0
H1797 H 0.53146 0.02746 0.44324 0.0
H1798 H 0.46167 0.03429 0.34111 0.0
H1799 H 0.47174 0.04361 0.48295 0.0
H1800 H 0.51001 0.03771 0.40584 0.0
H1801 H 0.43261 0.05778 0.41999 0.0
C1802 C 0.42305 0.05018 0.38171 0.0
C1803 C 0.43054 0.04278 0.35914 0.0
C1804 C 0.50186 0.03943 0.42287 0.0
C1805 C 0.46291 0.04793 0.40123 0.0
C1806 C 0.51415 0.0337 0.44417 0.0
C1807 C 0.50314 0.03436 0.46606 0.0
C1808 C 0.47859 0.04596 0.42368 0.0
C1809 C 0.48068 0.04249 0.46635 0.0
C1810 C 0.43916 0.05294 0.40269 0.0
C1811 C 0.455 0.03982 0.35815 0.0
N1812 N 0.46908 0.04772 0.44549 0.0
N1813 N 0.47021 0.04198 0.37896 0.0
H1814 H 0.77712 0.70556 0.0697 0.0
H1815 H 0.75312 0.66654 0.20299 0.0
H1816 H 0.75563 0.63165 0.08612 0.0
H1817 H 0.7683 0.7413 0.18723 0.0
H1818 H 0.75282 0.65381 0.15982 0.0
H1819 H 0.77395 0.71939 0.11234 0.0
C1820 C 0.77187 0.69224 0.08227 0.0
C1821 C 0.76671 0.66739 0.07432 0.0
C1822 C 0.75599 0.67302 0.16568 0.0
C1823 C 0.76283 0.68309 0.12304 0.0
C1824 C 0.75605 0.68031 0.19037 0.0
C1825 C 0.76072 0.70502 0.19876 0.0
C1826 C 0.7609 0.69053 0.14914 0.0
C1827 C 0.76443 0.72205 0.18154 0.0
C1828 C 0.76992 0.70015 0.10657 0.0
C1829 C 0.75984 0.65097 0.0914 0.0
N1830 N 0.76468 0.71449 0.15756 0.0
N1831 N 0.75813 0.65909 0.11487 0.0
H1832 H 0.14638 0.01779 0.71131 0.0
H1833 H 0.03342 0.9982 0.6087 0.0
H1834 H 0.07232 0.99316 0.72654 0.0
H1835 H 0.10875 0.01777 0.59514 0.0
H1836 H 0.04629 0.99939 0.65236 0.0
H1837 H 0.13206 0.02 0.669 0.0
C1838 C 0.12707 0.01271 0.70573 0.0
C1839 C 0.11054 0.00518 0.72251 0.0
C1840 C 0.05994 0.00366 0.63982 0.0
C1841 C 0.09388 0.00789 0.67385 0.0
C1842 C 0.05259 0.00323 0.61495 0.0
C1843 C 0.07006 0.00787 0.59828 0.0
C1844 C 0.0849 0.00887 0.64797 0.0
C1845 C 0.09467 0.01395 0.60733 0.0
C1846 C 0.11887 0.01406 0.68151 0.0
C1847 C 0.08571 0.99893 0.71417 0.0
N1848 N 0.10133 0.01416 0.63147 0.0
N1849 N 0.0781 0.00044 0.6904 0.0
H1850 H 0.73082 0.31462 0.44798 0.0
H1851 H 0.73401 0.3119 0.30515 0.0
H1852 H 0.72061 0.37459 0.40604 0.0
H1853 H 0.73919 0.24909 0.34421 0.0
H1854 H 0.72187 0.33252 0.34124 0.0
H1855 H 0.72672 0.28809 0.41017 0.0
C1856 C 0.7272 0.32215 0.4309 0.0
C1857 C 0.72656 0.34706 0.43023 0.0
C1858 C 0.7253 0.31411 0.34197 0.0
C1859 C 0.72206 0.31674 0.38688 0.0
C1860 C 0.73222 0.30231 0.3213 0.0
C1861 C 0.73785 0.27887 0.32179 0.0
C1862 C 0.72452 0.30266 0.36361 0.0
C1863 C 0.73508 0.26722 0.34315 0.0
C1864 C 0.72493 0.30695 0.40929 0.0
C1865 C 0.72166 0.35565 0.40752 0.0
N1866 N 0.72904 0.27944 0.36344 0.0
N1867 N 0.71997 0.34061 0.38679 0.0
H1868 H 0.38751 0.998 0.2021 0.0
H1869 H 0.50187 0.98755 0.12581 0.0
H1870 H 0.4619 0.02334 0.23191 0.0
H1871 H 0.42807 0.98188 0.09333 0.0
H1872 H 0.48747 0.99491 0.16611 0.0
H1873 H 0.40211 0.98727 0.16294 0.0
C1874 C 0.40691 0.00147 0.20035 0.0
C1875 C 0.42351 0.0117 0.22023 0.0
C1876 C 0.47446 0.99184 0.15013 0.0
C1877 C 0.44038 0.99908 0.17559 0.0
C1878 C 0.48261 0.98738 0.12722 0.0
C1879 C 0.46612 0.9842 0.10628 0.0
C1880 C 0.44965 0.99281 0.15198 0.0
C1881 C 0.4414 0.98441 0.10903 0.0
C1882 C 0.41525 0.99527 0.17802 0.0
C1883 C 0.44847 0.01567 0.21697 0.0
N1884 N 0.43394 0.98872 0.13143 0.0
N1885 N 0.45619 0.00924 0.19507 0.0
H1886 H 0.77355 0.70213 0.956 0.0
H1887 H 0.78032 0.70353 0.81228 0.0
H1888 H 0.7771 0.63986 0.9061 0.0
H1889 H 0.78408 0.76969 0.85888 0.0
H1890 H 0.78074 0.68095 0.84767 0.0
H1891 H 0.77865 0.72799 0.92219 0.0
C1892 C 0.77555 0.69388 0.93807 0.0
C1893 C 0.77472 0.66865 0.93398 0.0
C1894 C 0.78162 0.70042 0.85039 0.0
C1895 C 0.78054 0.69815 0.89531 0.0
C1896 C 0.78145 0.71343 0.83005 0.0
C1897 C 0.78219 0.73864 0.83248 0.0
C1898 C 0.78216 0.71245 0.87369 0.0
C1899 C 0.78356 0.75029 0.85613 0.0
C1900 C 0.77846 0.70868 0.9188 0.0
C1901 C 0.77743 0.65909 0.91031 0.0
N1902 N 0.78327 0.73706 0.87587 0.0
N1903 N 0.7801 0.67377 0.89203 0.0
H1904 H 0.80086 0.06664 0.98732 0.0
H1905 H 0.9446 0.09198 0.02343 0.0
H1906 H 0.83994 0.13299 0.02647 0.0
H1907 H 0.90705 0.02626 0.98214 0.0
H1908 H 0.90662 0.10798 0.02245 0.0
H1909 H 0.83946 0.05233 0.98332 0.0
C1910 C 0.81753 0.0783 0.99501 0.0
C1911 C 0.81703 0.1011 0.00738 0.0
C1912 C 0.90661 0.09011 0.01346 0.0
C1913 C 0.86144 0.08463 0.0028 0.0
C1914 C 0.92834 0.08091 0.01401 0.0
C1915 C 0.92898 0.05761 0.00301 0.0
C1916 C 0.88516 0.07592 0.00195 0.0
C1917 C 0.90737 0.04428 0.99088 0.0
C1918 C 0.8396 0.07006 0.99267 0.0
C1919 C 0.83933 0.1153 0.01686 0.0
N1920 N 0.88625 0.05355 0.99085 0.0
N1921 N 0.86057 0.10678 0.01446 0.0
H1922 H 0.34947 0.44581 0.08466 0.0
H1923 H 0.47613 0.44103 0.02798 0.0
H1924 H 0.36192 0.38776 0.03403 0.0
H1925 H 0.45463 0.50793 0.05533 0.0
H1926 H 0.43809 0.41865 0.03907 0.0
H1927 H 0.39199 0.46559 0.08355 0.0
C1928 C 0.36123 0.43731 0.07331 0.0
C1929 C 0.3521 0.41588 0.05844 0.0
C1930 C 0.44179 0.4382 0.04283 0.0
C1931 C 0.40049 0.43781 0.05754 0.0
C1932 C 0.4635 0.45106 0.03649 0.0
C1933 C 0.46847 0.47651 0.04038 0.0
C1934 C 0.42492 0.45076 0.05343 0.0
C1935 C 0.45147 0.48837 0.05176 0.0
C1936 C 0.38544 0.44846 0.07281 0.0
C1937 C 0.3682 0.40476 0.04508 0.0
N1938 N 0.43037 0.47539 0.05779 0.0
N1939 N 0.39156 0.41607 0.04461 0.0
H1940 H 0.37735 0.57477 0.74981 0.0
H1941 H 0.27674 0.6545 0.78878 0.0
H1942 H 0.30863 0.54517 0.77532 0.0
H1943 H 0.34423 0.68453 0.7613 0.0
H1944 H 0.28867 0.61431 0.78474 0.0
H1945 H 0.36593 0.61525 0.75417 0.0
C1946 C 0.35989 0.5767 0.75625 0.0
C1947 C 0.34403 0.55641 0.76225 0.0
C1948 C 0.3009 0.62971 0.77964 0.0
C1949 C 0.33087 0.60273 0.76739 0.0
C1950 C 0.29409 0.65268 0.78202 0.0
C1951 C 0.30946 0.67296 0.77538 0.0
C1952 C 0.32324 0.62696 0.77056 0.0
C1953 C 0.33174 0.66946 0.76665 0.0
C1954 C 0.35339 0.59984 0.75879 0.0
C1955 C 0.3216 0.56015 0.77054 0.0
N1956 N 0.33793 0.64696 0.76447 0.0
N1957 N 0.31576 0.58276 0.77288 0.0
H1958 H 0.18567 0.65359 0.52275 0.0
H1959 H 0.08662 0.5431 0.54571 0.0
H1960 H 0.20406 0.5949 0.56231 0.0
H1961 H 0.06917 0.61187 0.52642 0.0
H1962 H 0.12918 0.56236 0.55563 0.0
H1963 H 0.14258 0.63953 0.52677 0.0
C1964 C 0.18048 0.63767 0.53227 0.0
C1965 C 0.19803 0.62453 0.54109 0.0
C1966 C 0.11594 0.57328 0.54956 0.0
C1967 C 0.14905 0.60859 0.54627 0.0
C1968 C 0.09163 0.56232 0.54397 0.0
C1969 C 0.07442 0.5758 0.53477 0.0
C1970 C 0.12303 0.5977 0.5455 0.0
C1971 C 0.08189 0.60066 0.53306 0.0
C1972 C 0.15597 0.62974 0.53474 0.0
C1973 C 0.19073 0.60466 0.55416 0.0
N1974 N 0.10572 0.61069 0.53792 0.0
N1975 N 0.16664 0.59693 0.55599 0.0
H1976 H 0.63846 0.92829 0.76768 0.0
H1977 H 0.75162 0.86582 0.81263 0.0
H1978 H 0.70254 0.96806 0.81063 0.0
H1979 H 0.68926 0.83021 0.76455 0.0
H1980 H 0.73281 0.90262 0.81584 0.0
H1981 H 0.65557 0.89123 0.77023 0.0
C1982 C 0.65608 0.92926 0.77777 0.0
C1983 C 0.6691 0.95145 0.7888 0.0
C1984 C 0.72327 0.88666 0.8047 0.0
C1985 C 0.68899 0.90885 0.79169 0.0
C1986 C 0.73396 0.86568 0.80291 0.0
C1987 C 0.72212 0.84501 0.78812 0.0
C1988 C 0.70055 0.88677 0.79173 0.0
C1989 C 0.69924 0.84578 0.77595 0.0
C1990 C 0.66589 0.90803 0.77921 0.0
C1991 C 0.69184 0.9514 0.80177 0.0
N1992 N 0.6893 0.86627 0.77798 0.0
N1993 N 0.70113 0.93046 0.80272 0.0
H1994 H 0.73442 0.96165 0.51963 0.0
H1995 H 0.59224 0.92785 0.53499 0.0
H1996 H 0.70227 0.89368 0.54449 0.0
H1997 H 0.62479 0.99263 0.50474 0.0
H1998 H 0.63207 0.91518 0.53923 0.0
H1999 H 0.69448 0.97333 0.5152 0.0
C2000 C 0.71898 0.94907 0.52421 0.0
C2001 C 0.72189 0.92648 0.5324 0.0
C2002 C 0.63052 0.93212 0.5316 0.0
C2003 C 0.67561 0.94005 0.52727 0.0
C2004 C 0.60775 0.93941 0.52914 0.0
C2005 C 0.60512 0.96141 0.51948 0.0
C2006 C 0.65094 0.94693 0.52446 0.0
C2007 C 0.62591 0.97555 0.51224 0.0
C2008 C 0.69606 0.95585 0.52162 0.0
C2009 C 0.70099 0.91123 0.53811 0.0
N2010 N 0.64792 0.9681 0.51494 0.0
N2011 N 0.67873 0.91829 0.53542 0.0
H2012 H 0.32456 0.43013 0.71954 0.0
H2013 H 0.33079 0.30874 0.78522 0.0
H2014 H 0.38289 0.42106 0.77196 0.0
H2015 H 0.26587 0.32184 0.74418 0.0
H2016 H 0.35242 0.34733 0.77507 0.0
H2017 H 0.30575 0.38768 0.72197 0.0
C2018 C 0.33332 0.41912 0.73158 0.0
C2019 C 0.35457 0.42919 0.74649 0.0
C2020 C 0.33349 0.34175 0.76813 0.0
C2021 C 0.33361 0.3809 0.74911 0.0
C2022 C 0.32107 0.31965 0.77392 0.0
C2023 C 0.29641 0.31195 0.76553 0.0
C2024 C 0.32127 0.35643 0.75382 0.0
C2025 C 0.28483 0.32706 0.75111 0.0
C2026 C 0.32271 0.39494 0.73286 0.0
C2027 C 0.36601 0.41406 0.76083 0.0
N2028 N 0.29735 0.34862 0.74574 0.0
N2029 N 0.35516 0.39077 0.76213 0.0
H2030 H 0.11974 0.58652 0.26822 0.0
H2031 H 0.23026 0.6872 0.24754 0.0
H2032 H 0.18026 0.56958 0.23046 0.0
H2033 H 0.16025 0.70314 0.26534 0.0
H2034 H 0.21191 0.6445 0.23805 0.0
H2035 H 0.13359 0.62963 0.26491 0.0
C2036 C 0.13602 0.59203 0.25925 0.0
C2037 C 0.14969 0.57487 0.25072 0.0
C2038 C 0.20051 0.65743 0.24366 0.0
C2039 C 0.1654 0.62388 0.24633 0.0
C2040 C 0.21095 0.68182 0.24902 0.0
C2041 C 0.19684 0.69869 0.25763 0.0
C2042 C 0.17594 0.64991 0.24729 0.0
C2043 C 0.17192 0.69073 0.2591 0.0
C2044 C 0.14384 0.61656 0.2572 0.0
C2045 C 0.17005 0.58259 0.23836 0.0
N2046 N 0.16237 0.66685 0.2544 0.0
N2047 N 0.17762 0.60667 0.2369 0.0
H2048 H 0.51608 0.70802 0.45423 0.0
H2049 H 0.51992 0.56593 0.4352 0.0
H2050 H 0.50815 0.66607 0.38442 0.0
H2051 H 0.51502 0.60328 0.50534 0.0
H2052 H 0.52434 0.6046 0.41744 0.0
H2053 H 0.5235 0.67192 0.47401 0.0
C2054 C 0.51617 0.6913 0.44304 0.0
C2055 C 0.51124 0.68997 0.41764 0.0
C2056 C 0.5226 0.60445 0.43678 0.0
C2057 C 0.5198 0.64873 0.44013 0.0
C2058 C 0.52017 0.58237 0.44696 0.0
C2059 C 0.51678 0.58137 0.47172 0.0
C2060 C 0.52144 0.62578 0.45138 0.0
C2061 C 0.51754 0.60326 0.48615 0.0
C2062 C 0.52037 0.67072 0.45436 0.0
C2063 C 0.51162 0.66788 0.40406 0.0
N2064 N 0.51943 0.6246 0.47569 0.0
N2065 N 0.51569 0.64813 0.41547 0.0
H2066 H 0.58182 0.30589 0.71356 0.0
H2067 H 0.71862 0.28554 0.70497 0.0
H2068 H 0.61291 0.28966 0.64649 0.0
H2069 H 0.68616 0.29315 0.77276 0.0
H2070 H 0.68286 0.2968 0.68368 0.0
H2071 H 0.62242 0.31141 0.73537 0.0
C2072 C 0.59726 0.30405 0.70331 0.0
C2073 C 0.59394 0.29683 0.67823 0.0
C2074 C 0.6836 0.29628 0.70324 0.0
C2075 C 0.64033 0.30286 0.70313 0.0
C2076 C 0.70399 0.28978 0.71543 0.0
C2077 C 0.7051 0.2879 0.74061 0.0
C2078 C 0.66397 0.30071 0.71625 0.0
C2079 C 0.68589 0.29412 0.75329 0.0
C2080 C 0.62042 0.3071 0.71582 0.0
C2081 C 0.61459 0.29488 0.66588 0.0
N2082 N 0.66588 0.29988 0.74089 0.0
N2083 N 0.63686 0.29751 0.67852 0.0
H2084 H 0.99309 0.30058 0.93918 0.0
H2085 H 0.0019 0.44316 0.93506 0.0
H2086 H 0.97767 0.33558 0.87425 0.0
H2087 H 0.01276 0.41001 0.00191 0.0
H2088 H 0.98791 0.40318 0.91363 0.0
H2089 H 0.99601 0.33953 0.96341 0.0
C2090 C 0.99015 0.31637 0.93001 0.0
C2091 C 0.98551 0.31483 0.90455 0.0
C2092 C 0.99304 0.40453 0.93304 0.0
C2093 C 0.98873 0.35938 0.93221 0.0
C2094 C 0.00101 0.42738 0.94528 0.0
C2095 C 0.00873 0.42978 0.97019 0.0
C2096 C 0.99321 0.38382 0.94569 0.0
C2097 C 0.00697 0.40884 0.98265 0.0
C2098 C 0.99176 0.33859 0.94388 0.0
C2099 C 0.98166 0.33588 0.89374 0.0
N2100 N 0.99977 0.38661 0.97016 0.0
N2101 N 0.98355 0.35726 0.9076 0.0
H2102 H 0.97379 0.75617 0.20699 0.0
H2103 H 0.83088 0.75061 0.19258 0.0
H2104 H 0.93028 0.74122 0.13767 0.0
H2105 H 0.86852 0.73803 0.26035 0.0
H2106 H 0.86792 0.74906 0.17263 0.0
H2107 H 0.9363 0.75155 0.22754 0.0
C2108 C 0.9564 0.7519 0.19608 0.0
C2109 C 0.95518 0.74932 0.17053 0.0
C2110 C 0.86811 0.74643 0.19182 0.0
C2111 C 0.9124 0.74402 0.19394 0.0
C2112 C 0.84701 0.74743 0.20325 0.0
C2113 C 0.8468 0.74463 0.22816 0.0
C2114 C 0.88935 0.74304 0.20547 0.0
C2115 C 0.86805 0.74026 0.24108 0.0
C2116 C 0.93506 0.74911 0.20785 0.0
C2117 C 0.93215 0.74351 0.15737 0.0
N2118 N 0.8887 0.73992 0.22962 0.0
N2119 N 0.91169 0.74129 0.16923 0.0
H2120 H 0.5281 0.31195 0.13163 0.0
H2121 H 0.54329 0.40201 0.02679 0.0
H2122 H 0.50657 0.28939 0.05552 0.0
H2123 H 0.5349 0.42494 0.10146 0.0
H2124 H 0.54117 0.36013 0.03767 0.0
H2125 H 0.54203 0.35313 0.12102 0.0
C2126 C 0.5266 0.31557 0.11268 0.0
C2127 C 0.51581 0.29735 0.09446 0.0
C2128 C 0.54012 0.37445 0.05167 0.0
C2129 C 0.53183 0.34418 0.08228 0.0
C2130 C 0.54142 0.39827 0.04551 0.0
C2131 C 0.53891 0.41676 0.06322 0.0
C2132 C 0.53669 0.36936 0.07572 0.0
C2133 C 0.53652 0.41107 0.08722 0.0
C2134 C 0.53449 0.33905 0.10667 0.0
C2135 C 0.5144 0.30302 0.07018 0.0
N2136 N 0.53536 0.38782 0.09276 0.0
N2137 N 0.5222 0.326 0.06479 0.0
H2138 H 0.94617 0.30658 0.409 0.0
H2139 H 0.85269 0.26213 0.29157 0.0
H2140 H 0.95875 0.2554 0.35112 0.0
H2141 H 0.82747 0.28014 0.36137 0.0
H2142 H 0.89442 0.26929 0.31066 0.0
H2143 H 0.90455 0.30539 0.38965 0.0
C2144 C 0.94016 0.29529 0.39214 0.0
C2145 C 0.95598 0.2818 0.38099 0.0
C2146 C 0.87979 0.27206 0.3217 0.0
C2147 C 0.90901 0.28025 0.3591 0.0
C2148 C 0.85597 0.26813 0.31082 0.0
C2149 C 0.83659 0.27035 0.32498 0.0
C2150 C 0.88431 0.27871 0.34682 0.0
C2151 C 0.84193 0.27804 0.34987 0.0
C2152 C 0.91658 0.29462 0.38117 0.0
C2153 C 0.94733 0.26684 0.35963 0.0
N2154 N 0.86536 0.2819 0.36008 0.0
N2155 N 0.9245 0.26666 0.34919 0.0
H2156 H 0.97532 0.69527 0.57073 0.0
H2157 H 0.97586 0.55406 0.5769 0.0
H2158 H 0.97924 0.65985 0.63703 0.0
H2159 H 0.98047 0.5891 0.51037 0.0
H2160 H 0.9673 0.59121 0.59766 0.0
H2161 H 0.96742 0.65548 0.54729 0.0
C2162 C 0.97393 0.67912 0.58039 0.0
C2163 C 0.97833 0.68085 0.60586 0.0
C2164 C 0.96988 0.59078 0.57845 0.0
C2165 C 0.96953 0.63539 0.57918 0.0
C2166 C 0.9748 0.56956 0.56658 0.0
C2167 C 0.97933 0.56868 0.54199 0.0
C2168 C 0.96979 0.61147 0.56578 0.0
C2169 C 0.97727 0.58912 0.5294 0.0
C2170 C 0.96956 0.65642 0.56698 0.0
C2171 C 0.97629 0.65936 0.61741 0.0
N2172 N 0.97306 0.60989 0.54157 0.0
N2173 N 0.97234 0.63755 0.60397 0.0
H2174 H 0.57322 0.77765 0.81817 0.0
H2175 H 0.70555 0.74962 0.85292 0.0
H2176 H 0.59446 0.75218 0.88705 0.0
H2177 H 0.67945 0.76165 0.78015 0.0
H2178 H 0.66404 0.74651 0.86471 0.0
H2179 H 0.61097 0.76895 0.80313 0.0
C2180 C 0.5858 0.77019 0.83017 0.0
C2181 C 0.58077 0.76598 0.85408 0.0
C2182 C 0.66726 0.74939 0.84604 0.0
C2183 C 0.62417 0.75588 0.83682 0.0
C2184 C 0.69095 0.7511 0.83929 0.0
C2185 C 0.69593 0.75615 0.8156 0.0
C2186 C 0.64848 0.75314 0.82908 0.0
C2187 C 0.67638 0.75777 0.79861 0.0
C2188 C 0.60732 0.76505 0.82146 0.0
C2189 C 0.59764 0.7559 0.86857 0.0
N2190 N 0.65354 0.75671 0.8058 0.0
N2191 N 0.61872 0.75147 0.8598 0.0
H2192 H 0.38535 0.50464 0.66547 0.0
H2193 H 0.51647 0.52416 0.61402 0.0
H2194 H 0.45249 0.52162 0.71239 0.0
H2195 H 0.44885 0.52269 0.5698 0.0
H2196 H 0.49388 0.52297 0.65032 0.0
H2197 H 0.40862 0.51069 0.6302 0.0
C2198 C 0.40498 0.5098 0.66839 0.0
C2199 C 0.41694 0.51261 0.69197 0.0
C2200 C 0.48406 0.5231 0.63266 0.0
C2201 C 0.44386 0.51933 0.65151 0.0
C2202 C 0.49696 0.52383 0.61192 0.0
C2203 C 0.48462 0.52344 0.5887 0.0
C2204 C 0.45858 0.52179 0.6302 0.0
C2205 C 0.45925 0.52293 0.58721 0.0
C2206 C 0.41829 0.51326 0.64821 0.0
C2207 C 0.44247 0.5193 0.69457 0.0
N2208 N 0.44714 0.52193 0.60755 0.0
N2209 N 0.45507 0.52224 0.67461 0.0
H2210 H 0.73148 0.11963 0.93105 0.0
H2211 H 0.73856 0.24491 0.86976 0.0
H2212 H 0.75595 0.18957 0.97152 0.0
H2213 H 0.73121 0.17448 0.82981 0.0
H2214 H 0.7381 0.2252 0.90794 0.0
H2215 H 0.72508 0.13988 0.89437 0.0
C2216 C 0.73557 0.13925 0.93227 0.0
C2217 C 0.74453 0.15287 0.95443 0.0
C2218 C 0.73634 0.21411 0.89076 0.0
C2219 C 0.73701 0.17623 0.91235 0.0
C2220 C 0.73639 0.22531 0.86905 0.0
C2221 C 0.73516 0.21126 0.84675 0.0
C2222 C 0.73476 0.18877 0.88995 0.0
C2223 C 0.73252 0.18598 0.8467 0.0
C2224 C 0.73184 0.15082 0.91128 0.0
C2225 C 0.74926 0.1783 0.95481 0.0
N2226 N 0.73252 0.17556 0.86796 0.0
N2227 N 0.74549 0.18917 0.93405 0.0
H2228 H 0.1273 0.47933 0.17559 0.0
H2229 H 0.99956 0.47832 0.10047 0.0
H2230 H 0.05929 0.47362 0.20832 0.0
H2231 H 0.0689 0.48626 0.07007 0.0
H2232 H 0.01945 0.46787 0.13835 0.0
H2233 H 0.10471 0.47264 0.13542 0.0
C2234 C 0.10757 0.47621 0.17432 0.0
C2235 C 0.09517 0.47741 0.19531 0.0
C2236 C 0.03018 0.4714 0.12317 0.0
C2237 C 0.06911 0.47026 0.14929 0.0
C2238 C 0.01882 0.47731 0.1015 0.0
C2239 C 0.03261 0.48343 0.08205 0.0
C2240 C 0.05548 0.47163 0.12539 0.0
C2241 C 0.05749 0.48173 0.08448 0.0
C2242 C 0.09464 0.47245 0.15135 0.0
C2243 C 0.06957 0.47301 0.19258 0.0
N2244 N 0.06813 0.47631 0.1058 0.0
N2245 N 0.05737 0.47009 0.16997 0.0
H2246 H 0.79013 0.90828 0.44902 0.0
H2247 H 0.7665 0.78149 0.36629 0.0
H2248 H 0.77434 0.83916 0.47882 0.0
H2249 H 0.77361 0.85167 0.33822 0.0
H2250 H 0.77337 0.80171 0.40783 0.0
H2251 H 0.78756 0.88724 0.40862 0.0
C2252 C 0.78606 0.88864 0.44714 0.0
C2253 C 0.7823 0.87553 0.46751 0.0
C2254 C 0.7736 0.81264 0.39255 0.0
C2255 C 0.77944 0.85117 0.42086 0.0
C2256 C 0.76986 0.80113 0.36885 0.0
C2257 C 0.76937 0.81492 0.34876 0.0
C2258 C 0.777 0.8381 0.39613 0.0
C2259 C 0.77366 0.84029 0.35314 0.0
C2260 C 0.78463 0.87661 0.42395 0.0
C2261 C 0.77723 0.85006 0.46369 0.0
N2262 N 0.77719 0.85102 0.37629 0.0
N2263 N 0.77592 0.83871 0.44082 0.0
H2264 H 0.43079 0.50007 0.81412 0.0
H2265 H 0.42009 0.49814 0.95737 0.0
H2266 H 0.36243 0.48915 0.84646 0.0
H2267 H 0.48836 0.5012 0.92532 0.0
H2268 H 0.39871 0.49394 0.91664 0.0
H2269 H 0.45234 0.50057 0.85449 0.0
C2270 C 0.42028 0.49788 0.82966 0.0
C2271 C 0.3947 0.49466 0.82678 0.0
C2272 C 0.41835 0.49532 0.91847 0.0
C2273 C 0.41932 0.49505 0.87308 0.0
C2274 C 0.43057 0.49765 0.94175 0.0
C2275 C 0.45607 0.5001 0.94479 0.0
C2276 C 0.4317 0.49566 0.89799 0.0
C2277 C 0.46868 0.49929 0.92385 0.0
C2278 C 0.43262 0.49804 0.85271 0.0
C2279 C 0.38214 0.49176 0.84766 0.0
N2280 N 0.45639 0.49737 0.90134 0.0
N2281 N 0.39456 0.49207 0.86985 0.0
H2282 H 0.79349 0.21671 0.07438 0.0
H2283 H 0.79707 0.21027 0.21797 0.0
H2284 H 0.79548 0.15185 0.11102 0.0
H2285 H 0.78161 0.27309 0.18326 0.0
H2286 H 0.80615 0.19218 0.17928 0.0
H2287 H 0.79858 0.24059 0.11411 0.0
C2288 C 0.79563 0.20758 0.09075 0.0
C2289 C 0.79381 0.18222 0.08946 0.0
C2290 C 0.801 0.21001 0.18004 0.0
C2291 C 0.79945 0.20934 0.13477 0.0
C2292 C 0.79581 0.22042 0.2022 0.0
C2293 C 0.7882 0.24312 0.20382 0.0
C2294 C 0.79829 0.22214 0.15905 0.0
C2295 C 0.78725 0.25549 0.18278 0.0
C2296 C 0.79835 0.2212 0.11339 0.0
C2297 C 0.79655 0.17132 0.11119 0.0
N2298 N 0.79187 0.24465 0.16109 0.0
N2299 N 0.79901 0.1849 0.13292 0.0
H2300 H 0.08041 0.51561 0.31342 0.0
H2301 H 0.09638 0.54215 0.45788 0.0
H2302 H 0.14965 0.54004 0.35584 0.0
H2303 H 0.02616 0.53259 0.41645 0.0
H2304 H 0.1159 0.54189 0.42015 0.0
H2305 H 0.05978 0.52133 0.35038 0.0
C2306 C 0.09129 0.52211 0.33044 0.0
C2307 C 0.11686 0.52717 0.33148 0.0
C2308 C 0.09624 0.54008 0.41919 0.0
C2309 C 0.09334 0.53387 0.37372 0.0
C2310 C 0.08508 0.54026 0.44075 0.0
C2311 C 0.05964 0.53729 0.44021 0.0
C2312 C 0.08185 0.53649 0.3968 0.0
C2313 C 0.04586 0.53503 0.41757 0.0
C2314 C 0.07948 0.52551 0.35149 0.0
C2315 C 0.12995 0.53575 0.35405 0.0
N2316 N 0.05715 0.53435 0.39666 0.0
N2317 N 0.11806 0.53871 0.37421 0.0
H2318 H 0.75509 0.8166 0.58198 0.0
H2319 H 0.76098 0.82517 0.72764 0.0
H2320 H 0.77358 0.88336 0.62883 0.0
H2321 H 0.75544 0.75702 0.68379 0.0
H2322 H 0.76062 0.84609 0.69087 0.0
H2323 H 0.75037 0.79412 0.6181 0.0
C2324 C 0.75791 0.82658 0.59983 0.0
C2325 C 0.7648 0.85196 0.60234 0.0
C2326 C 0.75941 0.82656 0.68917 0.0
C2327 C 0.75944 0.82628 0.64376 0.0
C2328 C 0.7596 0.8145 0.71025 0.0
C2329 C 0.75846 0.7892 0.70895 0.0
C2330 C 0.75805 0.81339 0.66634 0.0
C2331 C 0.75641 0.77651 0.68573 0.0
C2332 C 0.75531 0.81369 0.62044 0.0
C2333 C 0.76831 0.86385 0.62595 0.0
N2334 N 0.75639 0.78875 0.66533 0.0
N2335 N 0.76563 0.85094 0.64565 0.0
H2336 H 0.67772 0.37866 0.52579 0.0
H2337 H 0.61119 0.49359 0.54914 0.0
H2338 H 0.70375 0.44964 0.50364 0.0
H2339 H 0.57296 0.41981 0.54135 0.0
H2340 H 0.64938 0.47833 0.54327 0.0
H2341 H 0.64272 0.39428 0.54135 0.0
C2342 C 0.67616 0.39751 0.52429 0.0
C2343 C 0.69357 0.41277 0.51313 0.0
C2344 C 0.63266 0.46551 0.54327 0.0
C2345 C 0.654 0.43079 0.53134 0.0
C2346 C 0.61097 0.4742 0.54685 0.0
C2347 C 0.58898 0.4579 0.54553 0.0
C2348 C 0.63225 0.44042 0.53871 0.0
C2349 C 0.58958 0.43294 0.54226 0.0
C2350 C 0.65625 0.40639 0.5332 0.0
C2351 C 0.69067 0.43709 0.51181 0.0
N2352 N 0.61085 0.42494 0.53883 0.0
N2353 N 0.6713 0.44534 0.52081 0.0
H2354 H 0.21787 0.07775 0.51233 0.0
H2355 H 0.0741 0.06424 0.4837 0.0
H2356 H 0.18407 0.12823 0.47221 0.0
H2357 H 0.10965 0.00712 0.51 0.0
H2358 H 0.11377 0.08773 0.4789 0.0
H2359 H 0.17823 0.05186 0.51185 0.0
C2360 C 0.20204 0.08315 0.50307 0.0
C2361 C 0.20423 0.10466 0.49157 0.0
C2362 C 0.11291 0.06996 0.48549 0.0
C2363 C 0.15863 0.07558 0.49162 0.0
C2364 C 0.09019 0.05645 0.48822 0.0
C2365 C 0.08839 0.03358 0.49733 0.0
C2366 C 0.13414 0.06076 0.4922 0.0
C2367 C 0.11006 0.02461 0.50291 0.0
C2368 C 0.1794 0.06844 0.5029 0.0
C2369 C 0.1831 0.11148 0.48082 0.0
N2370 N 0.13201 0.03831 0.50047 0.0
N2371 N 0.16111 0.09691 0.48104 0.0
H2372 H 0.13706 0.9314 0.77003 0.0
H2373 H 0.25123 0.86134 0.76512 0.0
H2374 H 0.20717 0.95743 0.81023 0.0
H2375 H 0.17691 0.82485 0.74857 0.0
H2376 H 0.23615 0.89942 0.77472 0.0
H2377 H 0.15205 0.89433 0.75597 0.0
C2378 C 0.15553 0.92936 0.77595 0.0
C2379 C 0.17077 0.94761 0.79148 0.0
C2380 C 0.22317 0.88309 0.76877 0.0
C2381 C 0.18815 0.9055 0.77503 0.0
C2382 C 0.23179 0.86143 0.76308 0.0
C2383 C 0.21531 0.8399 0.75616 0.0
C2384 C 0.19793 0.88327 0.76722 0.0
C2385 C 0.19026 0.84103 0.75402 0.0
C2386 C 0.16407 0.90822 0.76788 0.0
C2387 C 0.19461 0.9439 0.79843 0.0
N2388 N 0.18232 0.86232 0.75957 0.0
N2389 N 0.20255 0.92341 0.79008 0.0
H2390 H 0.32442 0.86745 0.96908 0.0
H2391 H 0.42977 0.98079 0.01028 0.0
H2392 H 0.31576 0.92919 0.017 0.0
H2393 H 0.44497 0.90817 0.99582 0.0
H2394 H 0.38637 0.96528 1.00015 0.0
H2395 H 0.36757 0.88526 0.9677 0.0
C2396 C 0.33156 0.88496 0.97889 0.0
C2397 C 0.31653 0.89743 0.99243 0.0
C2398 C 0.3993 0.95285 0.99887 0.0
C2399 C 0.3653 0.91759 0.99111 0.0
C2400 C 0.42406 0.96167 0.00451 0.0
C2401 C 0.44095 0.94563 0.00432 0.0
C2402 C 0.39144 0.92792 0.99279 0.0
C2403 C 0.43249 0.92107 0.99656 0.0
C2404 C 0.35602 0.89505 0.9781 0.0
C2405 C 0.32661 0.91961 0.00551 0.0
N2406 N 0.40823 0.91287 0.99132 0.0
N2407 N 0.35036 0.9291 0.00442 0.0
H2408 H 0.87273 0.57545 0.75071 0.0
H2409 H 0.82138 0.6892 0.8067 0.0
H2410 H 0.84865 0.58087 0.82281 0.0
H2411 H 0.80885 0.66817 0.72946 0.0
H2412 H 0.83724 0.65204 0.81253 0.0
H2413 H 0.85534 0.61198 0.74213 0.0
C2414 C 0.86402 0.58442 0.76477 0.0
C2415 C 0.86223 0.57518 0.78756 0.0
C2416 C 0.83093 0.6554 0.79429 0.0
C2417 C 0.84245 0.61665 0.77787 0.0
C2418 C 0.82188 0.67666 0.7909 0.0
C2419 C 0.81368 0.68174 0.76754 0.0
C2420 C 0.83236 0.63911 0.77414 0.0
C2421 C 0.81481 0.66478 0.74778 0.0
C2422 C 0.85391 0.60504 0.75976 0.0
C2423 C 0.85046 0.5873 0.805 0.0
N2424 N 0.82427 0.6442 0.75148 0.0
N2425 N 0.84121 0.60744 0.79985 0.0
H2426 H 0.82842 0.61723 0.04224 0.0
H2427 H 0.95149 0.58572 0.99603 0.0
H2428 H 0.83819 0.60731 0.96584 0.0
H2429 H 0.92165 0.55239 0.05712 0.0
H2430 H 0.91404 0.60246 0.98822 0.0
H2431 H 0.86708 0.60248 0.05175 0.0
C2432 C 0.83897 0.61245 0.02755 0.0
C2433 C 0.83029 0.6136 0.00324 0.0
C2434 C 0.91572 0.59151 0.00334 0.0
C2435 C 0.87414 0.59689 0.01393 0.0
C2436 C 0.93704 0.58199 0.00784 0.0
C2437 C 0.93956 0.56758 0.02719 0.0
C2438 C 0.897 0.58714 0.01867 0.0
C2439 C 0.92027 0.56324 0.04189 0.0
C2440 C 0.86077 0.60379 0.03296 0.0
C2441 C 0.84434 0.60674 0.98481 0.0
N2442 N 0.8998 0.5732 0.03748 0.0
N2443 N 0.86566 0.59883 0.99053 0.0
H2444 H 0.14355 0.09152 0.82699 0.0
H2445 H 0.26645 0.16694 0.78715 0.0
H2446 H 0.19446 0.06021 0.78514 0.0
H2447 H 0.208 0.20088 0.81313 0.0
H2448 H 0.24303 0.12729 0.79251 0.0
H2449 H 0.16928 0.13163 0.82742 0.0
C2450 C 0.16027 0.09314 0.81813 0.0
C2451 C 0.16742 0.07261 0.80669 0.0
C2452 C 0.23539 0.14344 0.79712 0.0
C2453 C 0.19656 0.11805 0.8067 0.0
C2454 C 0.24881 0.16611 0.79417 0.0
C2455 C 0.23913 0.18732 0.79947 0.0
C2456 C 0.21211 0.14192 0.80546 0.0
C2457 C 0.21614 0.18504 0.80859 0.0
C2458 C 0.17491 0.11592 0.81834 0.0
C2459 C 0.18883 0.07557 0.79487 0.0
N2460 N 0.20338 0.16275 0.81118 0.0
N2461 N 0.20271 0.09781 0.79528 0.0
H2462 H 0.34379 0.96096 0.27553 0.0
H2463 H 0.28568 0.84726 0.29146 0.0
H2464 H 0.40436 0.94566 0.32153 0.0
H2465 H 0.35783 0.82927 0.28838 0.0
H2466 H 0.30384 0.88984 0.30118 0.0
H2467 H 0.32315 0.91936 0.27663 0.0
C2468 C 0.35239 0.94891 0.28644 0.0
C2469 C 0.37516 0.95686 0.29945 0.0
C2470 C 0.31565 0.87651 0.29852 0.0
C2471 C 0.35213 0.90915 0.30022 0.0
C2472 C 0.30535 0.85219 0.29315 0.0
C2473 C 0.32026 0.83478 0.28848 0.0
C2474 C 0.341 0.88343 0.2992 0.0
C2475 C 0.34566 0.8422 0.29134 0.0
C2476 C 0.34065 0.92522 0.28706 0.0
C2477 C 0.3864 0.94021 0.31193 0.0
N2478 N 0.35528 0.8661 0.29628 0.0
N2479 N 0.37478 0.91694 0.31194 0.0
H2480 H 0.51206 0.33695 0.64395 0.0
H2481 H 0.49721 0.41705 0.53398 0.0
H2482 H 0.48943 0.30406 0.57083 0.0
H2483 H 0.49524 0.4431 0.60916 0.0
H2484 H 0.49313 0.37542 0.54591 0.0
H2485 H 0.50608 0.37613 0.63071 0.0
C2486 C 0.5058 0.33797 0.62508 0.0
C2487 C 0.50139 0.31721 0.60845 0.0
C2488 C 0.49313 0.39025 0.55967 0.0
C2489 C 0.49455 0.36219 0.59307 0.0
C2490 C 0.49531 0.41398 0.55286 0.0
C2491 C 0.49689 0.43359 0.57067 0.0
C2492 C 0.49276 0.38628 0.58442 0.0
C2493 C 0.49447 0.42858 0.59487 0.0
C2494 C 0.50222 0.36035 0.61754 0.0
C2495 C 0.49305 0.31963 0.58425 0.0
N2496 N 0.4929 0.4055 0.60107 0.0
N2497 N 0.49017 0.3418 0.57719 0.0
H2498 H 0.41445 0.75417 0.38799 0.0
H2499 H 0.32747 0.72845 0.26583 0.0
H2500 H 0.43254 0.71153 0.32604 0.0
H2501 H 0.30454 0.75084 0.33555 0.0
H2502 H 0.36475 0.71894 0.28698 0.0
H2503 H 0.37291 0.75056 0.36909 0.0
C2504 C 0.40952 0.74399 0.37035 0.0
C2505 C 0.42699 0.7342 0.35786 0.0
C2506 C 0.35141 0.7258 0.29755 0.0
C2507 C 0.37956 0.72964 0.33617 0.0
C2508 C 0.33016 0.73118 0.28551 0.0
C2509 C 0.31316 0.741 0.29889 0.0
C2510 C 0.35569 0.7307 0.32298 0.0
C2511 C 0.31739 0.74388 0.32438 0.0
C2512 C 0.38582 0.7418 0.35957 0.0
C2513 C 0.41968 0.72037 0.33552 0.0
N2514 N 0.33834 0.73913 0.33551 0.0
N2515 N 0.39652 0.71888 0.32505 0.0
H2516 H 0.01656 0.6923 0.172 0.0
H2517 H 0.04509 0.59944 0.06703 0.0
H2518 H 0.05791 0.71399 0.11267 0.0
H2519 H 0.01011 0.57782 0.13053 0.0
H2520 H 0.05536 0.64088 0.08625 0.0
H2521 H 0.01925 0.64993 0.16017 0.0
C2522 C 0.02622 0.68798 0.15644 0.0
C2523 C 0.03588 0.70618 0.14238 0.0
C2524 C 0.04581 0.627 0.09616 0.0
C2525 C 0.03961 0.65816 0.12906 0.0
C2526 C 0.03993 0.60331 0.08519 0.0
C2527 C 0.02635 0.58523 0.09704 0.0
C2528 C 0.03785 0.63266 0.11901 0.0
C2529 C 0.02033 0.59124 0.12061 0.0
C2530 C 0.0279 0.6639 0.14977 0.0
C2531 C 0.04915 0.7001 0.12309 0.0
N2532 N 0.02579 0.61454 0.13067 0.0
N2533 N 0.0503 0.67646 0.11669 0.0
H2534 H 0.06908 0.25264 0.88741 0.0
H2535 H 0.16596 0.28077 0.78992 0.0
H2536 H 0.05037 0.27613 0.81686 0.0
H2537 H 0.18194 0.25416 0.85952 0.0
H2538 H 0.12423 0.28218 0.8002 0.0
H2539 H 0.11134 0.25619 0.87829 0.0
C2540 C 0.07384 0.25865 0.87003 0.0
C2541 C 0.05604 0.26396 0.85284 0.0
C2542 C 0.13695 0.27614 0.81322 0.0
C2543 C 0.10458 0.26798 0.84221 0.0
C2544 C 0.16074 0.27535 0.80737 0.0
C2545 C 0.17738 0.26717 0.82381 0.0
C2546 C 0.12989 0.26874 0.83566 0.0
C2547 C 0.1697 0.26041 0.84619 0.0
C2548 C 0.09803 0.26067 0.86482 0.0
C2549 C 0.06343 0.27179 0.83067 0.0
N2550 N 0.14653 0.26128 0.85139 0.0
N2551 N 0.08712 0.27344 0.82593 0.0
H2552 H 0.50178 0.68309 0.8872 0.0
H2553 H 0.50913 0.60889 0.00452 0.0
H2554 H 0.52847 0.71742 0.95898 0.0
H2555 H 0.506 0.57671 0.93065 0.0
H2556 H 0.50962 0.64883 0.98891 0.0
H2557 H 0.49699 0.64365 0.90371 0.0
C2558 C 0.50666 0.68232 0.90643 0.0
C2559 C 0.51571 0.7035 0.92172 0.0
C2560 C 0.5087 0.63294 0.97619 0.0
C2561 C 0.51003 0.65853 0.94076 0.0
C2562 C 0.50826 0.61021 0.98506 0.0
C2563 C 0.50773 0.5896 0.96883 0.0
C2564 C 0.50823 0.63482 0.95098 0.0
C2565 C 0.5067 0.59222 0.9438 0.0
C2566 C 0.50391 0.65983 0.91584 0.0
C2567 C 0.52163 0.70148 0.94653 0.0
N2568 N 0.507 0.6144 0.93564 0.0
N2569 N 0.51865 0.67935 0.95532 0.0
H2570 H 0.06595 0.71462 0.68958 0.0
H2571 H 0.20669 0.75208 0.67035 0.0
H2572 H 0.09292 0.7525 0.62997 0.0
H2573 H 0.18095 0.73463 0.73941 0.0
H2574 H 0.16508 0.74103 0.65129 0.0
H2575 H 0.10797 0.71105 0.70384 0.0
C2576 C 0.08083 0.72227 0.67964 0.0
C2577 C 0.07644 0.73503 0.65945 0.0
C2578 C 0.1686 0.73926 0.67054 0.0
C2579 C 0.12395 0.73029 0.67487 0.0
C2580 C 0.19235 0.74552 0.68145 0.0
C2581 C 0.19721 0.74474 0.70661 0.0
C2582 C 0.14957 0.73215 0.68487 0.0
C2583 C 0.17796 0.73577 0.72 0.0
C2584 C 0.10466 0.72 0.68756 0.0
C2585 C 0.09588 0.74335 0.64618 0.0
N2586 N 0.15486 0.73012 0.70901 0.0
N2587 N 0.11891 0.74121 0.65437 0.0
H2588 H 0.04544 0.37341 0.39389 0.0
H2589 H 0.03327 0.43802 0.52502 0.0
H2590 H 0.0387 0.33505 0.45835 0.0
H2591 H 0.0356 0.47364 0.45872 0.0
H2592 H 0.04303 0.40163 0.50282 0.0
H2593 H 0.05005 0.41165 0.41925 0.0
C2594 C 0.04528 0.37299 0.41341 0.0
C2595 C 0.04125 0.35089 0.4239 0.0
C2596 C 0.04174 0.41756 0.49326 0.0
C2597 C 0.04617 0.39476 0.45311 0.0
C2598 C 0.03626 0.43832 0.50594 0.0
C2599 C 0.03322 0.45866 0.49356 0.0
C2600 C 0.04429 0.41735 0.46815 0.0
C2601 C 0.03732 0.45816 0.46886 0.0
C2602 C 0.04786 0.39489 0.42792 0.0
C2603 C 0.04149 0.35161 0.44938 0.0
N2604 N 0.04241 0.43779 0.45695 0.0
N2605 N 0.0435 0.37317 0.46308 0.0
H2606 H 0.40904 0.25793 0.1159 0.0
H2607 H 0.36083 0.27168 0.24731 0.0
H2608 H 0.45325 0.25522 0.18306 0.0
H2609 H 0.31617 0.26951 0.17958 0.0
H2610 H 0.39691 0.27352 0.22464 0.0
H2611 H 0.37688 0.26927 0.1394 0.0
C2612 C 0.41209 0.25985 0.13558 0.0
C2613 C 0.43381 0.25525 0.14748 0.0
C2614 C 0.37926 0.27306 0.21479 0.0
C2615 C 0.39691 0.26825 0.17456 0.0
C2616 C 0.3587 0.27221 0.22775 0.0
C2617 C 0.3355 0.27006 0.21522 0.0
C2618 C 0.37647 0.27179 0.18922 0.0
C2619 C 0.33373 0.27074 0.18988 0.0
C2620 C 0.39369 0.26639 0.14901 0.0
C2621 C 0.43673 0.25831 0.17306 0.0
N2622 N 0.35389 0.27123 0.17768 0.0
N2623 N 0.41839 0.26437 0.18574 0.0
H2624 H 0.57718 0.50397 0.34521 0.0
H2625 H 0.57039 0.49075 0.48774 0.0
H2626 H 0.63844 0.49858 0.39609 0.0
H2627 H 0.50747 0.49828 0.44015 0.0
H2628 H 0.5942 0.48998 0.45298 0.0
H2629 H 0.55039 0.49885 0.37819 0.0
C2630 C 0.58502 0.50152 0.3632 0.0
C2631 C 0.61024 0.50182 0.36778 0.0
C2632 C 0.57518 0.49173 0.44997 0.0
C2633 C 0.57957 0.49596 0.40563 0.0
C2634 C 0.56148 0.49216 0.4699 0.0
C2635 C 0.53689 0.49496 0.46703 0.0
C2636 C 0.56444 0.49425 0.4267 0.0
C2637 C 0.5264 0.49629 0.4433 0.0
C2638 C 0.56967 0.49864 0.38203 0.0
C2639 C 0.61922 0.4986 0.39154 0.0
N2640 N 0.5403 0.49618 0.42407 0.0
N2641 N 0.60398 0.4959 0.40945 0.0
H2642 H 0.24389 0.81296 0.06053 0.0
H2643 H 0.28429 0.84925 0.20171 0.0
H2644 H 0.27484 0.88573 0.09071 0.0
H2645 H 0.27146 0.77499 0.17008 0.0
H2646 H 0.27985 0.8628 0.1611 0.0
H2647 H 0.25182 0.7985 0.10058 0.0
C2648 C 0.25219 0.82591 0.07561 0.0
C2649 C 0.25863 0.85061 0.07234 0.0
C2650 C 0.27824 0.84354 0.16295 0.0
C2651 C 0.26789 0.83418 0.11801 0.0
C2652 C 0.28081 0.83579 0.18613 0.0
C2653 C 0.27819 0.81097 0.18921 0.0
C2654 C 0.27262 0.82634 0.14263 0.0
C2655 C 0.27374 0.79431 0.16843 0.0
C2656 C 0.25689 0.81761 0.09838 0.0
C2657 C 0.26953 0.86655 0.09242 0.0
N2658 N 0.2708 0.8023 0.14596 0.0
N2659 N 0.27374 0.85808 0.1144 0.0
H2660 H 0.96207 0.52593 0.83936 0.0
H2661 H 0.98093 0.54997 0.98417 0.0
H2662 H 0.90704 0.54403 0.88482 0.0
H2663 H 0.03013 0.51586 0.94219 0.0
H2664 H 0.9585 0.55692 0.94676 0.0
H2665 H 0.9913 0.53075 0.87557 0.0
C2666 C 0.95623 0.53136 0.85686 0.0
C2667 C 0.93196 0.53435 0.85908 0.0
C2668 C 0.97438 0.54819 0.94565 0.0
C2669 C 0.96532 0.53984 0.90049 0.0
C2670 C 0.98737 0.54434 0.96711 0.0
C2671 C 0.00743 0.53216 0.96648 0.0
C2672 C 0.98128 0.53964 0.9232 0.0
C2673 C 0.01473 0.52524 0.94361 0.0
C2674 C 0.97292 0.53398 0.87751 0.0
C2675 C 0.92545 0.54129 0.88224 0.0
N2676 N 0.00146 0.5288 0.92285 0.0
N2677 N 0.94198 0.54364 0.90202 0.0
H2678 H 0.28535 0.20101 0.56919 0.0
H2679 H 0.26144 0.16564 0.70357 0.0
H2680 H 0.26036 0.12818 0.58698 0.0
H2681 H 0.28037 0.23977 0.68679 0.0
H2682 H 0.26024 0.15208 0.66057 0.0
H2683 H 0.2839 0.21592 0.61183 0.0
C2684 C 0.2797 0.18814 0.58207 0.0
C2685 C 0.27304 0.16329 0.57451 0.0
C2686 C 0.26448 0.17134 0.66616 0.0
C2687 C 0.27114 0.18025 0.62323 0.0
C2688 C 0.26511 0.17912 0.69076 0.0
C2689 C 0.27108 0.20388 0.69881 0.0
C2690 C 0.27009 0.18838 0.64932 0.0
C2691 C 0.27558 0.22051 0.68135 0.0
C2692 C 0.27875 0.19669 0.60637 0.0
C2693 C 0.26573 0.14747 0.59196 0.0
N2694 N 0.27521 0.21244 0.65741 0.0
N2695 N 0.26499 0.15622 0.61544 0.0
H2696 H 0.57452 0.49582 0.23224 0.0
H2697 H 0.6141 0.51816 0.09885 0.0
H2698 H 0.64844 0.52012 0.21636 0.0
H2699 H 0.53903 0.49915 0.11357 0.0
H2700 H 0.62652 0.52013 0.14225 0.0
H2701 H 0.56074 0.49705 0.18919 0.0
C2702 C 0.58786 0.50128 0.2197 0.0
C2703 C 0.61269 0.5078 0.2279 0.0
C2704 C 0.6073 0.51572 0.1361 0.0
C2705 C 0.59704 0.50946 0.17875 0.0
C2706 C 0.60018 0.51468 0.11128 0.0
C2707 C 0.5755 0.50843 0.10255 0.0
C2708 C 0.58965 0.51025 0.15245 0.0
C2709 C 0.55826 0.50415 0.11953 0.0
C2710 C 0.57996 0.50211 0.19517 0.0
C2711 C 0.62913 0.51488 0.21088 0.0
N2712 N 0.56569 0.50491 0.14367 0.0
N2713 N 0.62103 0.5155 0.18718 0.0
H2714 H 0.22114 0.87473 0.90945 0.0
H2715 H 0.24269 0.74754 0.84767 0.0
H2716 H 0.23573 0.8155 0.95061 0.0
H2717 H 0.23116 0.80921 0.80906 0.0
H2718 H 0.23218 0.76869 0.88503 0.0
H2719 H 0.21631 0.84758 0.8722 0.0
C2720 C 0.22295 0.85591 0.91073 0.0
C2721 C 0.22926 0.84754 0.93321 0.0
C2722 C 0.23155 0.77736 0.86825 0.0
C2723 C 0.22417 0.81632 0.89042 0.0
C2724 C 0.23743 0.76525 0.84695 0.0
C2725 C 0.23815 0.77684 0.82542 0.0
C2726 C 0.22626 0.80105 0.86778 0.0
C2727 C 0.23122 0.7998 0.82541 0.0
C2728 C 0.22024 0.84038 0.8894 0.0
C2729 C 0.23108 0.82285 0.93368 0.0
N2730 N 0.22582 0.81121 0.84626 0.0
N2731 N 0.22899 0.80821 0.91256 0.0
H2732 H 0.95952 0.5248 0.73051 0.0
H2733 H 0.92071 0.48929 0.58902 0.0
H2734 H 0.88535 0.49742 0.70116 0.0
H2735 H 0.99507 0.49663 0.62048 0.0
H2736 H 0.90743 0.49384 0.6298 0.0
H2737 H 0.97299 0.51725 0.69003 0.0
C2738 C 0.94604 0.51739 0.71551 0.0
C2739 C 0.92126 0.5118 0.71917 0.0
C2740 C 0.92663 0.49422 0.62784 0.0
C2741 C 0.93657 0.50297 0.67293 0.0
C2742 C 0.93423 0.49159 0.60457 0.0
C2743 C 0.95903 0.49263 0.6014 0.0
C2744 C 0.944 0.49829 0.64813 0.0
C2745 C 0.97576 0.4956 0.62215 0.0
C2746 C 0.95378 0.5129 0.69248 0.0
C2747 C 0.90463 0.50204 0.69914 0.0
N2748 N 0.96796 0.49861 0.64469 0.0
N2749 N 0.91258 0.498 0.67686 0.0
H2750 H 0.28429 0.13769 0.40706 0.0
H2751 H 0.27902 0.271 0.36739 0.0
H2752 H 0.27539 0.19736 0.4579 0.0
H2753 H 0.29916 0.21324 0.32112 0.0
H2754 H 0.27919 0.24536 0.40131 0.0
H2755 H 0.29072 0.16575 0.3758 0.0
C2756 C 0.28379 0.15671 0.41174 0.0
C2757 C 0.27921 0.16506 0.43525 0.0
C2758 C 0.28385 0.23844 0.38379 0.0
C2759 C 0.28648 0.19749 0.39923 0.0
C2760 C 0.28388 0.25314 0.36442 0.0
C2761 C 0.28891 0.24429 0.34121 0.0
C2762 C 0.28876 0.21467 0.37994 0.0
C2763 C 0.29499 0.22089 0.33855 0.0
C2764 C 0.28753 0.17279 0.39383 0.0
C2765 C 0.27887 0.19002 0.44009 0.0
N2766 N 0.2945 0.2069 0.35753 0.0
N2767 N 0.28226 0.20529 0.42222 0.0
H2768 H 0.33889 0.63518 0.52665 0.0
H2769 H 0.40632 0.52412 0.48765 0.0
H2770 H 0.30019 0.56549 0.49461 0.0
H2771 H 0.44242 0.5933 0.52317 0.0
H2772 H 0.36744 0.53957 0.48642 0.0
H2773 H 0.37726 0.62068 0.52221 0.0
C2774 C 0.33841 0.61684 0.51862 0.0
C2775 C 0.31618 0.60154 0.51113 0.0
C2776 C 0.38395 0.55135 0.49432 0.0
C2777 C 0.36028 0.58472 0.50599 0.0
C2778 C 0.40611 0.54258 0.49493 0.0
C2779 C 0.42757 0.55735 0.50574 0.0
C2780 C 0.38341 0.57505 0.5045 0.0
C2781 C 0.4263 0.58113 0.51493 0.0
C2782 C 0.36039 0.60855 0.51606 0.0
C2783 C 0.31685 0.57796 0.50072 0.0
N2784 N 0.40465 0.58915 0.51419 0.0
N2785 N 0.33853 0.57023 0.49856 0.0
H2786 H 0.84619 0.94355 0.57666 0.0
H2787 H 0.9716 0.94107 0.51673 0.0
H2788 H 0.85849 0.88627 0.52503 0.0
H2789 H 0.95208 0.00617 0.55105 0.0
H2790 H 0.93375 0.91792 0.52736 0.0
H2791 H 0.88878 0.9632 0.57596 0.0
C2792 C 0.85796 0.93517 0.5652 0.0
C2793 C 0.84875 0.91403 0.54993 0.0
C2794 C 0.93782 0.93723 0.53274 0.0
C2795 C 0.89721 0.93591 0.54934 0.0
C2796 C 0.95943 0.95052 0.52663 0.0
C2797 C 0.96494 0.97572 0.53273 0.0
C2798 C 0.92156 0.94909 0.54521 0.0
C2799 C 0.9485 0.98684 0.54578 0.0
C2800 C 0.88221 0.94625 0.56492 0.0
C2801 C 0.86483 0.90307 0.53639 0.0
N2802 N 0.92748 0.97346 0.5515 0.0
N2803 N 0.88821 0.91438 0.53604 0.0
H2804 H 0.87797 0.07721 0.24581 0.0
H2805 H 0.77674 0.1555 0.28621 0.0
H2806 H 0.80931 0.04671 0.27088 0.0
H2807 H 0.84365 0.18638 0.25818 0.0
H2808 H 0.78906 0.1155 0.28169 0.0
H2809 H 0.86621 0.11753 0.25064 0.0
C2810 C 0.86045 0.07891 0.25224 0.0
C2811 C 0.84471 0.05843 0.25799 0.0
C2812 C 0.80107 0.13106 0.27657 0.0
C2813 C 0.83117 0.10452 0.26369 0.0
C2814 C 0.79405 0.15391 0.27923 0.0
C2815 C 0.80913 0.17435 0.27256 0.0
C2816 C 0.82335 0.12861 0.26718 0.0
C2817 C 0.83137 0.17115 0.26354 0.0
C2818 C 0.85375 0.10195 0.25505 0.0
C2819 C 0.8222 0.06186 0.26628 0.0
N2820 N 0.83777 0.14876 0.26109 0.0
N2821 N 0.81618 0.08436 0.2689 0.0
H2822 H 0.70602 0.09352 0.05924 0.0
H2823 H 0.56779 0.10277 0.01735 0.0
H2824 H 0.68413 0.14943 0.01765 0.0
H2825 H 0.59076 0.03752 0.04041 0.0
H2826 H 0.60938 0.12437 0.0273 0.0
H2827 H 0.6629 0.07743 0.06253 0.0
C2828 C 0.69203 0.10228 0.05075 0.0
C2829 C 0.69825 0.12189 0.03703 0.0
C2830 C 0.60524 0.1054 0.03047 0.0
C2831 C 0.64941 0.1043 0.04126 0.0
C2832 C 0.5815 0.09304 0.02481 0.0
C2833 C 0.5759 0.06819 0.02766 0.0
C2834 C 0.62349 0.09286 0.03913 0.0
C2835 C 0.59436 0.05661 0.03765 0.0
C2836 C 0.66754 0.09331 0.05282 0.0
C2837 C 0.6798 0.13365 0.02757 0.0
N2838 N 0.61743 0.069 0.0428 0.0
N2839 N 0.65611 0.12439 0.02946 0.0
H2840 H 0.14068 0.43428 0.26182 0.0
H2841 H 0.2479 0.36887 0.31658 0.0
H2842 H 0.2063 0.47335 0.30278 0.0
H2843 H 0.18568 0.33267 0.26867 0.0
H2844 H 0.2313 0.40685 0.31553 0.0
H2845 H 0.15538 0.39632 0.26774 0.0
C2846 C 0.15815 0.43493 0.27212 0.0
C2847 C 0.17229 0.45715 0.28168 0.0
C2848 C 0.22127 0.39052 0.30538 0.0
C2849 C 0.18929 0.41357 0.28856 0.0
C2850 C 0.23068 0.36886 0.30606 0.0
C2851 C 0.21827 0.34765 0.29253 0.0
C2852 C 0.19926 0.39082 0.2912 0.0
C2853 C 0.19604 0.34863 0.27918 0.0
C2854 C 0.16655 0.4132 0.2755 0.0
C2855 C 0.19477 0.45671 0.29496 0.0
N2856 N 0.18732 0.36982 0.27879 0.0
N2857 N 0.20259 0.43529 0.29794 0.0
H2858 H 0.23681 0.46347 0.03316 0.0
H2859 H 0.09403 0.42278 0.04185 0.0
H2860 H 0.2058 0.39287 0.05301 0.0
H2861 H 0.12578 0.49091 0.0172 0.0
H2862 H 0.13463 0.41197 0.04759 0.0
H2863 H 0.19637 0.47418 0.0292 0.0
C2864 C 0.22151 0.45014 0.03675 0.0
C2865 C 0.22485 0.42708 0.0433 0.0
C2866 C 0.13273 0.42927 0.04093 0.0
C2867 C 0.17808 0.43946 0.03872 0.0
C2868 C 0.10953 0.4355 0.03762 0.0
C2869 C 0.10644 0.45782 0.02897 0.0
C2870 C 0.15308 0.44548 0.03563 0.0
C2871 C 0.12724 0.47351 0.02385 0.0
C2872 C 0.19833 0.45634 0.03445 0.0
C2873 C 0.20418 0.41082 0.04788 0.0
N2874 N 0.14965 0.46704 0.02727 0.0
N2875 N 0.18166 0.4173 0.04543 0.0
H2876 H 0.8846 0.92272 0.266 0.0
H2877 H 0.76292 0.8254 0.23676 0.0
H2878 H 0.82542 0.93323 0.21532 0.0
H2879 H 0.82836 0.81135 0.27614 0.0
H2880 H 0.78571 0.86393 0.22661 0.0
H2881 H 0.86514 0.8806 0.26743 0.0
C2882 C 0.86751 0.916 0.25508 0.0
C2883 C 0.85588 0.93156 0.24149 0.0
C2884 C 0.79506 0.85231 0.23736 0.0
C2885 C 0.83361 0.88347 0.24268 0.0
C2886 C 0.78203 0.83037 0.24323 0.0
C2887 C 0.79365 0.8152 0.25753 0.0
C2888 C 0.81975 0.85924 0.24614 0.0
C2889 C 0.81853 0.82249 0.26525 0.0
C2890 C 0.85641 0.89198 0.25582 0.0
C2891 C 0.83427 0.92193 0.22693 0.0
N2892 N 0.83062 0.84403 0.25966 0.0
N2893 N 0.82354 0.89854 0.2282 0.0
H2894 H 0.67953 0.06029 0.74117 0.0
H2895 H 0.65935 0.19808 0.76202 0.0
H2896 H 0.61644 0.08225 0.77044 0.0
H2897 H 0.72896 0.17765 0.74936 0.0
H2898 H 0.64079 0.15537 0.75669 0.0
H2899 H 0.69532 0.10286 0.73607 0.0
C2900 C 0.66917 0.07421 0.7467 0.0
C2901 C 0.64734 0.06818 0.75732 0.0
C2902 C 0.66007 0.16025 0.75479 0.0
C2903 C 0.66463 0.11645 0.7508 0.0
C2904 C 0.67068 0.18465 0.75772 0.0
C2905 C 0.69582 0.19144 0.75642 0.0
C2906 C 0.67466 0.14248 0.75049 0.0
C2907 C 0.70953 0.17323 0.75064 0.0
C2908 C 0.67801 0.09838 0.74357 0.0
C2909 C 0.63378 0.08645 0.76293 0.0
N2910 N 0.69881 0.14952 0.74815 0.0
N2911 N 0.64282 0.10988 0.75993 0.0
loop_
_geom_bond_atom_site_label_1
_geom_bond_atom_site_label_2
_geom_bond_distance
_geom_bond_site_symmetry_2
_ccdc_geom_bond_type
Mn0 O5 2.095 . S
Mn0 O15 2.162 . S
Mn0 O16 2.297 . S
Mn0 O24 2.385 1_455 S
Mn0 O25 2.209 . S
Mn0 O26 2.094 . S
Mn1 O6 2.121 . S
Mn1 N8 2.257 . S
Mn1 N17 2.282 1_455 S
Mn1 O25 2.215 . S
Mn1 O27 2.117 . S
C2 O24 1.234 . S
C2 O25 1.283 1_655 S
C3 O15 1.281 . S
C3 O16 1.236 . S
C4 O26 1.240 . S
C4 O27 1.264 . S
O5 Mn0 2.095 . S
O5 C14 1.250 . S
O6 Mn1 2.121 . S
O6 C14 1.258 . S
C7 N8 1.326 . S
C7 C11 1.460 . S
C7 H13 0.929 . S
N8 Mn1 2.257 . S
N8 C7 1.326 . S
N8 C12 1.362 1_455 S
C9 C10 1.258 . S
C9 C12 1.431 . S
C9 C29 1.449 . S
C10 C9 1.258 . S
C10 C11 1.477 1_655 S
C10 H30 0.931 . S
C11 C7 1.460 . S
C11 C10 1.477 1_455 S
C11 H31 0.930 . S
C12 N8 1.362 1_655 S
C12 C9 1.431 . S
C12 C22 1.476 . S
H13 C7 0.929 . S
C14 O5 1.250 . S
C14 O6 1.258 . S
O15 Mn0 2.162 . S
O15 C3 1.281 . S
O16 Mn0 2.297 . S
O16 C3 1.236 . S
N17 Mn1 2.282 1_655 S
N17 C18 1.328 . S
N17 C22 1.318 . S
C18 N17 1.328 . S
C18 C19 1.457 . S
C18 H23 0.929 . S
C19 C18 1.457 . S
C19 C20 1.291 . S
C19 H32 0.931 . S
C20 C19 1.291 . S
C20 C21 1.373 . S
C20 H33 0.929 . S
C21 C20 1.373 . S
C21 C22 1.396 . S
C21 C28 1.403 . S
C22 C12 1.476 . S
C22 N17 1.318 . S
C22 C21 1.396 . S
H23 C18 0.929 . S
O24 Mn0 2.385 1_655 S
O24 C2 1.234 . S
O25 Mn0 2.209 . S
O25 Mn1 2.215 . S
O25 C2 1.283 1_455 S
O26 Mn0 2.094 . S
O26 C4 1.240 . S
O27 Mn1 2.117 . S
O27 C4 1.264 . S
C28 C21 1.403 . S
C28 C29 1.399 . S
C28 H34 0.929 . S
C29 C9 1.449 . S
C29 C28 1.399 . S
C29 H35 0.930 . S
H30 C10 0.931 . S
H31 C11 0.930 . S
H32 C19 0.931 . S
H33 C20 0.929 . S
H34 C28 0.929 . S
H35 C29 0.930 . S
Mn36 O41 2.095 1_455 S
Mn36 O51 2.162 . S
Mn36 O52 2.297 . S
Mn36 O60 2.385 . S
Mn36 O61 2.209 . S
Mn36 O62 2.094 . S
Mn37 O42 2.121 1_455 S
Mn37 N44 2.257 . S
Mn37 N53 2.282 . S
Mn37 O61 2.215 . S
Mn37 O63 2.117 . S
C38 O60 1.234 . S
C38 O61 1.283 . S
C39 O51 1.281 . S
C39 O52 1.236 . S
C40 O62 1.240 . S
C40 O63 1.264 . S
O41 Mn36 2.095 1_655 S
O41 C50 1.250 . S
O42 Mn37 2.121 1_655 S
O42 C50 1.258 . S
C43 N44 1.326 . S
C43 C47 1.460 . S
C43 H49 0.929 1_455 S
N44 Mn37 2.257 . S
N44 C43 1.326 . S
N44 C48 1.362 . S
C45 C46 1.258 . S
C45 C48 1.431 . S
C45 C65 1.449 . S
C46 C45 1.258 . S
C46 C47 1.477 . S
C46 H66 0.931 . S
C47 C43 1.460 . S
C47 C46 1.477 . S
C47 H67 0.930 . S
C48 N44 1.362 . S
C48 C45 1.431 . S
C48 C58 1.476 . S
H49 C43 0.929 1_655 S
C50 O41 1.250 . S
C50 O42 1.258 . S
O51 Mn36 2.162 . S
O51 C39 1.281 . S
O52 Mn36 2.297 . S
O52 C39 1.236 . S
N53 Mn37 2.282 . S
N53 C54 1.328 . S
N53 C58 1.318 . S
C54 N53 1.328 . S
C54 C55 1.457 . S
C54 H59 0.929 . S
C55 C54 1.457 . S
C55 C56 1.291 . S
C55 H68 0.931 . S
C56 C55 1.291 . S
C56 C57 1.373 . S
C56 H69 0.929 . S
C57 C56 1.373 . S
C57 C58 1.396 . S
C57 C64 1.403 . S
C58 C48 1.476 . S
C58 N53 1.318 . S
C58 C57 1.396 . S
H59 C54 0.929 . S
O60 Mn36 2.385 . S
O60 C38 1.234 . S
O61 Mn36 2.209 . S
O61 Mn37 2.215 . S
O61 C38 1.283 . S
O62 Mn36 2.094 . S
O62 C40 1.240 . S
O63 Mn37 2.117 . S
O63 C40 1.264 . S
C64 C57 1.403 . S
C64 C65 1.399 . S
C64 H70 0.929 . S
C65 C45 1.449 . S
C65 C64 1.399 . S
C65 H71 0.930 . S
H66 C46 0.931 . S
H67 C47 0.930 . S
H68 C55 0.931 . S
H69 C56 0.929 . S
H70 C64 0.929 . S
H71 C65 0.930 . S
Mn72 O77 2.095 . S
Mn72 O87 2.162 . S
Mn72 O88 2.297 . S
Mn72 O96 2.385 . S
Mn72 O97 2.209 . S
Mn72 O98 2.094 . S
Mn73 O78 2.121 . S
Mn73 N80 2.257 . S
Mn73 N89 2.282 . S
Mn73 O97 2.215 . S
Mn73 O99 2.117 . S
C74 O96 1.234 . S
C74 O97 1.283 . S
C75 O87 1.281 . S
C75 O88 1.236 . S
C76 O98 1.240 . S
C76 O99 1.264 . S
O77 Mn72 2.095 . S
O77 C86 1.250 . S
O78 Mn73 2.121 . S
O78 C86 1.258 . S
C79 N80 1.326 . S
C79 C83 1.460 . S
C79 H85 0.929 . S
N80 Mn73 2.257 . S
N80 C79 1.326 . S
N80 C84 1.362 . S
C81 C82 1.258 . S
C81 C84 1.431 . S
C81 C101 1.449 . S
C82 C81 1.258 . S
C82 C83 1.477 . S
C82 H102 0.931 . S
C83 C79 1.460 . S
C83 C82 1.477 . S
C83 H103 0.930 . S
C84 N80 1.362 . S
C84 C81 1.431 . S
C84 C94 1.476 . S
H85 C79 0.929 . S
C86 O77 1.250 . S
C86 O78 1.258 . S
O87 Mn72 2.162 . S
O87 C75 1.281 . S
O88 Mn72 2.297 . S
O88 C75 1.236 . S
N89 Mn73 2.282 . S
N89 C90 1.328 . S
N89 C94 1.318 . S
C90 N89 1.328 . S
C90 C91 1.457 . S
C90 H95 0.929 . S
C91 C90 1.457 . S
C91 C92 1.291 . S
C91 H104 0.931 . S
C92 C91 1.291 . S
C92 C93 1.373 . S
C92 H105 0.929 . S
C93 C92 1.373 . S
C93 C94 1.396 . S
C93 C100 1.403 . S
C94 C84 1.476 . S
C94 N89 1.318 . S
C94 C93 1.396 . S
H95 C90 0.929 . S
O96 Mn72 2.385 . S
O96 C74 1.234 . S
O97 Mn72 2.209 . S
O97 Mn73 2.215 . S
O97 C74 1.283 . S
O98 Mn72 2.094 . S
O98 C76 1.240 . S
O99 Mn73 2.117 . S
O99 C76 1.264 . S
C100 C93 1.403 . S
C100 C101 1.399 . S
C100 H106 0.929 . S
C101 C81 1.449 . S
C101 C100 1.399 . S
C101 H107 0.930 . S
H102 C82 0.931 . S
H103 C83 0.930 . S
H104 C91 0.931 . S
H105 C92 0.929 . S
H106 C100 0.929 . S
H107 C101 0.930 . S
Mn108 O113 2.095 . S
Mn108 O123 2.162 . S
Mn108 O124 2.297 . S
Mn108 O132 2.385 . S
Mn108 O133 2.209 . S
Mn108 O134 2.094 . S
Mn109 O114 2.121 . S
Mn109 N116 2.257 . S
Mn109 N125 2.282 . S
Mn109 O133 2.215 . S
Mn109 O135 2.117 . S
C110 O132 1.234 . S
C110 O133 1.283 . S
C111 O123 1.281 . S
C111 O124 1.236 . S
C112 O134 1.240 . S
C112 O135 1.264 . S
O113 Mn108 2.095 . S
O113 C122 1.250 . S
O114 Mn109 2.121 . S
O114 C122 1.258 . S
C115 N116 1.326 . S
C115 C119 1.460 . S
C115 H121 0.929 . S
N116 Mn109 2.257 . S
N116 C115 1.326 . S
N116 C120 1.362 . S
C117 C118 1.258 . S
C117 C120 1.431 . S
C117 C137 1.449 . S
C118 C117 1.258 . S
C118 C119 1.477 . S
C118 H138 0.941 . S
C119 C115 1.460 . S
C119 C118 1.477 . S
C119 H139 0.930 . S
C120 N116 1.362 . S
C120 C117 1.431 . S
C120 C130 1.476 . S
H121 C115 0.929 . S
C122 O113 1.250 . S
C122 O114 1.258 . S
O123 Mn108 2.162 . S
O123 C111 1.281 . S
O124 Mn108 2.297 . S
O124 C111 1.236 . S
N125 Mn109 2.282 . S
N125 C126 1.328 . S
N125 C130 1.318 . S
C126 N125 1.328 . S
C126 C127 1.457 . S
C126 H131 0.929 . S
C127 C126 1.457 . S
C127 C128 1.291 . S
C127 H140 0.931 . S
C128 C127 1.291 . S
C128 C129 1.373 . S
C128 H141 0.929 . S
C129 C128 1.373 . S
C129 C130 1.396 . S
C129 C136 1.403 . S
C130 C120 1.476 . S
C130 N125 1.318 . S
C130 C129 1.396 . S
H131 C126 0.929 . S
O132 Mn108 2.385 . S
O132 C110 1.234 . S
O133 Mn108 2.209 . S
O133 Mn109 2.215 . S
O133 C110 1.283 . S
O134 Mn108 2.094 . S
O134 C112 1.240 . S
O135 Mn109 2.117 . S
O135 C112 1.264 . S
C136 C129 1.403 . S
C136 C137 1.399 . S
C136 H142 0.929 . S
C137 C117 1.449 . S
C137 C136 1.399 . S
C137 H143 0.930 . S
H138 C118 0.941 . S
H139 C119 0.930 . S
H140 C127 0.931 . S
H141 C128 0.929 . S
H142 C136 0.929 . S
H143 C137 0.930 . S
Mn144 O149 2.095 . S
Mn144 O159 2.162 . S
Mn144 O160 2.297 . S
Mn144 O168 2.385 . S
Mn144 O169 2.209 . S
Mn144 O170 2.094 . S
Mn145 O150 2.121 1_655 S
Mn145 N152 2.257 . S
Mn145 N161 2.282 . S
Mn145 O169 2.215 1_655 S
Mn145 O171 2.117 . S
C146 O168 1.234 . S
C146 O169 1.283 . S
C147 O159 1.281 . S
C147 O160 1.236 . S
C148 O170 1.240 1_655 S
C148 O171 1.264 . S
O149 Mn144 2.095 . S
O149 C158 1.250 . S
O150 Mn145 2.121 1_455 S
O150 C158 1.258 . S
C151 N152 1.326 1_455 S
C151 C155 1.458 . S
C151 H157 0.929 . S
N152 Mn145 2.257 . S
N152 C151 1.326 1_655 S
N152 C156 1.362 . S
C153 C154 1.258 . S
C153 C156 1.431 . S
C153 C173 1.449 . S
C154 C153 1.258 . S
C154 C155 1.470 1_655 S
C154 H174 0.931 . S
C155 C151 1.458 . S
C155 C154 1.470 1_455 S
C155 H175 0.939 . S
C156 N152 1.362 . S
C156 C153 1.431 . S
C156 C166 1.476 . S
H157 C151 0.929 . S
C158 O149 1.250 . S
C158 O150 1.258 . S
O159 Mn144 2.162 . S
O159 C147 1.281 . S
O160 Mn144 2.297 . S
O160 C147 1.236 . S
N161 Mn145 2.282 . S
N161 C162 1.328 . S
N161 C166 1.318 . S
C162 N161 1.328 . S
C162 C163 1.457 . S
C162 H167 0.929 . S
C163 C162 1.457 . S
C163 C164 1.291 . S
C163 H176 0.931 . S
C164 C163 1.291 . S
C164 C165 1.373 . S
C164 H177 0.929 . S
C165 C164 1.373 . S
C165 C166 1.396 . S
C165 C172 1.403 . S
C166 C156 1.476 . S
C166 N161 1.318 . S
C166 C165 1.396 . S
H167 C162 0.929 . S
O168 Mn144 2.385 . S
O168 C146 1.234 . S
O169 Mn144 2.209 . S
O169 Mn145 2.215 1_455 S
O169 C146 1.283 . S
O170 Mn144 2.094 . S
O170 C148 1.240 1_455 S
O171 Mn145 2.117 . S
O171 C148 1.264 . S
C172 C165 1.403 . S
C172 C173 1.399 . S
C172 H178 0.929 . S
C173 C153 1.449 . S
C173 C172 1.399 . S
C173 H179 0.930 . S
H174 C154 0.931 . S
H175 C155 0.939 . S
H176 C163 0.931 . S
H177 C164 0.929 . S
H178 C172 0.929 . S
H179 C173 0.930 . S
Mn180 O185 2.095 . S
Mn180 O195 2.162 . S
Mn180 O196 2.297 . S
Mn180 O204 2.385 . S
Mn180 O205 2.209 . S
Mn180 O206 2.094 . S
Mn181 O186 2.121 . S
Mn181 N188 2.257 . S
Mn181 N197 2.282 . S
Mn181 O205 2.215 . S
Mn181 O207 2.117 . S
C182 O204 1.234 . S
C182 O205 1.283 . S
C183 O195 1.281 . S
C183 O196 1.236 . S
C184 O206 1.240 . S
C184 O207 1.264 . S
O185 Mn180 2.095 . S
O185 C194 1.250 . S
O186 Mn181 2.121 . S
O186 C194 1.258 . S
C187 N188 1.326 . S
C187 C191 1.460 . S
C187 H193 0.929 . S
N188 Mn181 2.257 . S
N188 C187 1.326 . S
N188 C192 1.362 . S
C189 C190 1.258 . S
C189 C192 1.431 . S
C189 C209 1.449 . S
C190 C189 1.258 . S
C190 C191 1.477 . S
C190 H210 0.931 . S
C191 C187 1.460 . S
C191 C190 1.477 . S
C191 H211 0.930 . S
C192 N188 1.362 . S
C192 C189 1.431 . S
C192 C202 1.476 . S
H193 C187 0.929 . S
C194 O185 1.250 . S
C194 O186 1.258 . S
O195 Mn180 2.162 . S
O195 C183 1.281 . S
O196 Mn180 2.297 . S
O196 C183 1.236 . S
N197 Mn181 2.282 . S
N197 C198 1.328 . S
N197 C202 1.318 . S
C198 N197 1.328 . S
C198 C199 1.457 . S
C198 H203 0.929 . S
C199 C198 1.457 . S
C199 C200 1.291 . S
C199 H212 0.931 . S
C200 C199 1.291 . S
C200 C201 1.373 . S
C200 H213 0.929 . S
C201 C200 1.373 . S
C201 C202 1.396 . S
C201 C208 1.403 . S
C202 C192 1.476 . S
C202 N197 1.318 . S
C202 C201 1.396 . S
H203 C198 0.929 . S
O204 Mn180 2.385 . S
O204 C182 1.234 . S
O205 Mn180 2.209 . S
O205 Mn181 2.215 . S
O205 C182 1.283 . S
O206 Mn180 2.094 . S
O206 C184 1.240 . S
O207 Mn181 2.117 . S
O207 C184 1.264 . S
C208 C201 1.403 . S
C208 C209 1.399 . S
C208 H214 0.929 . S
C209 C189 1.449 . S
C209 C208 1.399 . S
C209 H215 0.930 . S
H210 C190 0.931 . S
H211 C191 0.930 . S
H212 C199 0.931 . S
H213 C200 0.929 . S
H214 C208 0.929 . S
H215 C209 0.930 . S
Mn216 O221 2.095 . S
Mn216 O231 2.162 . S
Mn216 O232 2.297 . S
Mn216 O240 2.385 . S
Mn216 O241 2.209 . S
Mn216 O242 2.094 . S
Mn217 O222 2.121 . S
Mn217 N224 2.257 . S
Mn217 N233 2.282 . S
Mn217 O241 2.215 . S
Mn217 O243 2.117 . S
C218 O240 1.234 . S
C218 O241 1.283 . S
C219 O231 1.281 . S
C219 O232 1.236 . S
C220 O242 1.240 . S
C220 O243 1.264 . S
O221 Mn216 2.095 . S
O221 C230 1.250 . S
O222 Mn217 2.121 . S
O222 C230 1.258 . S
C223 N224 1.326 . S
C223 C227 1.460 . S
C223 H229 0.929 . S
N224 Mn217 2.257 . S
N224 C223 1.326 . S
N224 C228 1.362 . S
C225 C226 1.258 . S
C225 C228 1.431 . S
C225 C245 1.449 . S
C226 C225 1.258 . S
C226 C227 1.477 . S
C226 H246 0.931 . S
C227 C223 1.460 . S
C227 C226 1.477 . S
C227 H247 0.930 . S
C228 N224 1.362 . S
C228 C225 1.431 . S
C228 C238 1.476 . S
H229 C223 0.929 . S
C230 O221 1.250 . S
C230 O222 1.258 . S
O231 Mn216 2.162 . S
O231 C219 1.281 . S
O232 Mn216 2.297 . S
O232 C219 1.236 . S
N233 Mn217 2.282 . S
N233 C234 1.328 . S
N233 C238 1.318 . S
C234 N233 1.328 . S
C234 C235 1.457 . S
C234 H239 0.929 . S
C235 C234 1.457 . S
C235 C236 1.291 . S
C235 H248 0.931 . S
C236 C235 1.291 . S
C236 C237 1.373 . S
C236 H249 0.929 . S
C237 C236 1.373 . S
C237 C238 1.396 . S
C237 C244 1.403 . S
C238 C228 1.476 . S
C238 N233 1.318 . S
C238 C237 1.396 . S
H239 C234 0.929 . S
O240 Mn216 2.385 . S
O240 C218 1.234 . S
O241 Mn216 2.209 . S
O241 Mn217 2.215 . S
O241 C218 1.283 . S
O242 Mn216 2.094 . S
O242 C220 1.240 . S
O243 Mn217 2.117 . S
O243 C220 1.264 . S
C244 C237 1.403 . S
C244 C245 1.399 . S
C244 H250 0.929 . S
C245 C225 1.449 . S
C245 C244 1.399 . S
C245 H251 0.930 . S
H246 C226 0.931 . S
H247 C227 0.930 . S
H248 C235 0.931 . S
H249 C236 0.929 . S
H250 C244 0.929 . S
H251 C245 0.930 . S
Mn252 O257 2.054 1_655 S
Mn252 O267 2.156 1_655 S
Mn252 O268 2.294 . S
Mn252 O276 2.430 . S
Mn252 O277 2.229 . S
Mn252 O278 2.098 1_655 S
Mn253 O258 2.121 1_655 S
Mn253 N260 2.257 . S
Mn253 N269 2.282 . S
Mn253 O277 2.215 . S
Mn253 O279 2.117 1_655 S
C254 O276 1.234 . S
C254 O277 1.283 . S
C255 O267 1.282 1_655 S
C255 O268 1.236 . S
C256 O278 1.240 . S
C256 O279 1.264 . S
O257 Mn252 2.054 1_455 S
O257 C266 1.250 . S
O258 Mn253 2.121 1_455 S
O258 C266 1.258 . S
C259 N260 1.326 . S
C259 C263 1.460 . S
C259 H265 0.929 1_655 S
N260 Mn253 2.257 . S
N260 C259 1.326 . S
N260 C264 1.362 . S
C261 C262 1.258 . S
C261 C264 1.431 . S
C261 C281 1.449 . S
C262 C261 1.258 . S
C262 C263 1.477 . S
C262 H282 0.931 . S
C263 C259 1.460 . S
C263 C262 1.477 . S
C263 H283 0.930 . S
C264 N260 1.362 . S
C264 C261 1.431 . S
C264 C274 1.476 . S
H265 C259 0.929 1_455 S
C266 O257 1.250 . S
C266 O258 1.258 . S
O267 Mn252 2.156 1_455 S
O267 C255 1.282 1_455 S
O268 Mn252 2.294 . S
O268 C255 1.236 . S
N269 Mn253 2.282 . S
N269 C270 1.328 . S
N269 C274 1.318 . S
C270 N269 1.328 . S
C270 C271 1.457 . S
C270 H275 0.929 . S
C271 C270 1.457 . S
C271 C272 1.291 . S
C271 H284 0.931 . S
C272 C271 1.291 . S
C272 C273 1.373 . S
C272 H285 0.929 . S
C273 C272 1.373 . S
C273 C274 1.396 . S
C273 C280 1.403 . S
C274 C264 1.476 . S
C274 N269 1.318 . S
C274 C273 1.396 . S
H275 C270 0.929 . S
O276 Mn252 2.430 . S
O276 C254 1.234 . S
O277 Mn252 2.229 . S
O277 Mn253 2.215 . S
O277 C254 1.283 . S
O278 Mn252 2.098 1_455 S
O278 C256 1.240 . S
O279 Mn253 2.117 1_455 S
O279 C256 1.264 . S
C280 C273 1.403 . S
C280 C281 1.399 . S
C280 H286 0.929 . S
C281 C261 1.449 . S
C281 C280 1.399 . S
C281 H287 0.930 . S
H282 C262 0.931 . S
H283 C263 0.930 . S
H284 C271 0.931 . S
H285 C272 0.929 . S
H286 C280 0.929 . S
H287 C281 0.930 . S
Mn288 O293 2.095 . S
Mn288 O303 2.162 . S
Mn288 O304 2.297 . S
Mn288 O312 2.385 1_545 S
Mn288 O313 2.209 1_545 S
Mn288 O314 2.094 . S
Mn289 O294 2.121 . S
Mn289 N296 2.253 1_545 S
Mn289 N305 2.282 1_545 S
Mn289 O313 2.215 1_545 S
Mn289 O315 2.117 . S
C290 O312 1.234 . S
C290 O313 1.283 . S
C291 O303 1.281 . S
C291 O304 1.236 . S
C292 O314 1.240 . S
C292 O315 1.264 . S
O293 Mn288 2.095 . S
O293 C302 1.250 . S
O294 Mn289 2.121 . S
O294 C302 1.258 . S
C295 N296 1.315 1_545 S
C295 C299 1.460 1_545 S
C295 H301 0.929 . S
N296 Mn289 2.253 1_565 S
N296 C295 1.315 1_565 S
N296 C300 1.379 . S
C297 C298 1.258 . S
C297 C300 1.431 . S
C297 C317 1.449 . S
C298 C297 1.258 . S
C298 C299 1.474 . S
C298 H318 0.931 . S
C299 C295 1.460 1_565 S
C299 C298 1.474 . S
C299 H319 0.932 1_565 S
C300 N296 1.379 . S
C300 C297 1.431 . S
C300 C310 1.476 . S
H301 C295 0.929 . S
C302 O293 1.250 . S
C302 O294 1.258 . S
O303 Mn288 2.162 . S
O303 C291 1.281 . S
O304 Mn288 2.297 . S
O304 C291 1.236 . S
N305 Mn289 2.282 1_565 S
N305 C306 1.328 . S
N305 C310 1.318 . S
C306 N305 1.328 . S
C306 C307 1.457 . S
C306 H311 0.929 . S
C307 C306 1.457 . S
C307 C308 1.291 . S
C307 H320 0.931 . S
C308 C307 1.291 . S
C308 C309 1.373 . S
C308 H321 0.929 . S
C309 C308 1.373 . S
C309 C310 1.396 . S
C309 C316 1.403 . S
C310 C300 1.476 . S
C310 N305 1.318 . S
C310 C309 1.396 . S
H311 C306 0.929 . S
O312 Mn288 2.385 1_565 S
O312 C290 1.234 . S
O313 Mn288 2.209 1_565 S
O313 Mn289 2.215 1_565 S
O313 C290 1.283 . S
O314 Mn288 2.094 . S
O314 C292 1.240 . S
O315 Mn289 2.117 . S
O315 C292 1.264 . S
C316 C309 1.403 . S
C316 C317 1.399 . S
C316 H322 0.929 . S
C317 C297 1.449 . S
C317 C316 1.399 . S
C317 H323 0.930 . S
H318 C298 0.931 . S
H319 C299 0.932 1_545 S
H320 C307 0.931 . S
H321 C308 0.929 . S
H322 C316 0.929 . S
H323 C317 0.930 . S
Mn324 O329 2.095 . S
Mn324 O339 2.162 . S
Mn324 O340 2.297 . S
Mn324 O348 2.385 . S
Mn324 O349 2.209 . S
Mn324 O350 2.094 . S
Mn325 O330 2.121 . S
Mn325 N332 2.257 . S
Mn325 N341 2.282 . S
Mn325 O349 2.215 . S
Mn325 O351 2.117 . S
C326 O348 1.234 . S
C326 O349 1.283 . S
C327 O339 1.281 . S
C327 O340 1.236 . S
C328 O350 1.240 . S
C328 O351 1.264 . S
O329 Mn324 2.095 . S
O329 C338 1.250 . S
O330 Mn325 2.121 . S
O330 C338 1.258 . S
C331 N332 1.326 . S
C331 C335 1.460 . S
C331 H337 0.929 . S
N332 Mn325 2.257 . S
N332 C331 1.326 . S
N332 C336 1.362 . S
C333 C334 1.258 . S
C333 C336 1.431 . S
C333 C353 1.449 . S
C334 C333 1.258 . S
C334 C335 1.477 . S
C334 H354 0.931 1_545 S
C335 C331 1.460 . S
C335 C334 1.477 . S
C335 H355 0.930 . S
C336 N332 1.362 . S
C336 C333 1.431 . S
C336 C346 1.476 . S
H337 C331 0.929 . S
C338 O329 1.250 . S
C338 O330 1.258 . S
O339 Mn324 2.162 . S
O339 C327 1.281 . S
O340 Mn324 2.297 . S
O340 C327 1.236 . S
N341 Mn325 2.282 . S
N341 C342 1.328 . S
N341 C346 1.318 . S
C342 N341 1.328 . S
C342 C343 1.457 . S
C342 H347 0.929 . S
C343 C342 1.457 . S
C343 C344 1.291 . S
C343 H356 0.931 . S
C344 C343 1.291 . S
C344 C345 1.373 . S
C344 H357 0.929 . S
C345 C344 1.373 . S
C345 C346 1.396 . S
C345 C352 1.403 . S
C346 C336 1.476 . S
C346 N341 1.318 . S
C346 C345 1.396 . S
H347 C342 0.929 . S
O348 Mn324 2.385 . S
O348 C326 1.234 . S
O349 Mn324 2.209 . S
O349 Mn325 2.215 . S
O349 C326 1.283 . S
O350 Mn324 2.094 . S
O350 C328 1.240 . S
O351 Mn325 2.117 . S
O351 C328 1.264 . S
C352 C345 1.403 . S
C352 C353 1.399 . S
C352 H358 0.929 . S
C353 C333 1.449 . S
C353 C352 1.399 . S
C353 H359 0.930 . S
H354 C334 0.931 1_565 S
H355 C335 0.930 . S
H356 C343 0.931 . S
H357 C344 0.929 . S
H358 C352 0.929 . S
H359 C353 0.930 . S
Mn360 O365 2.095 1_545 S
Mn360 O375 2.162 1_545 S
Mn360 O376 2.297 . S
Mn360 O384 2.385 . S
Mn360 O385 2.209 . S
Mn360 O386 2.094 . S
Mn361 O366 2.121 1_545 S
Mn361 N368 2.257 . S
Mn361 N377 2.282 . S
Mn361 O385 2.215 . S
Mn361 O387 2.117 . S
C362 O384 1.234 . S
C362 O385 1.283 . S
C363 O375 1.280 1_545 S
C363 O376 1.236 . S
C364 O386 1.240 . S
C364 O387 1.264 . S
O365 Mn360 2.095 1_565 S
O365 C374 1.250 . S
O366 Mn361 2.121 1_565 S
O366 C374 1.258 . S
C367 N368 1.326 . S
C367 C371 1.460 . S
C367 H373 0.929 . S
N368 Mn361 2.257 . S
N368 C367 1.326 . S
N368 C372 1.362 . S
C369 C370 1.258 . S
C369 C372 1.431 . S
C369 C389 1.449 . S
C370 C369 1.258 . S
C370 C371 1.477 . S
C370 H390 0.931 . S
C371 C367 1.460 . S
C371 C370 1.477 . S
C371 H391 0.930 . S
C372 N368 1.362 . S
C372 C369 1.431 . S
C372 C382 1.476 . S
H373 C367 0.929 . S
C374 O365 1.250 . S
C374 O366 1.258 . S
O375 Mn360 2.162 1_565 S
O375 C363 1.280 1_565 S
O376 Mn360 2.297 . S
O376 C363 1.236 . S
N377 Mn361 2.282 . S
N377 C378 1.328 . S
N377 C382 1.318 . S
C378 N377 1.328 . S
C378 C379 1.457 . S
C378 H383 0.929 . S
C379 C378 1.457 . S
C379 C380 1.291 . S
C379 H392 0.931 . S
C380 C379 1.291 . S
C380 C381 1.373 . S
C380 H393 0.929 . S
C381 C380 1.373 . S
C381 C382 1.396 . S
C381 C388 1.403 . S
C382 C372 1.476 . S
C382 N377 1.318 . S
C382 C381 1.396 . S
H383 C378 0.929 . S
O384 Mn360 2.385 . S
O384 C362 1.234 . S
O385 Mn360 2.209 . S
O385 Mn361 2.215 . S
O385 C362 1.283 . S
O386 Mn360 2.094 . S
O386 C364 1.240 . S
O387 Mn361 2.117 . S
O387 C364 1.264 . S
C388 C381 1.403 . S
C388 C389 1.399 . S
C388 H394 0.929 . S
C389 C369 1.449 . S
C389 C388 1.399 . S
C389 H395 0.930 . S
H390 C370 0.931 . S
H391 C371 0.930 . S
H392 C379 0.931 . S
H393 C380 0.929 . S
H394 C388 0.929 . S
H395 C389 0.930 . S
Mn396 O401 2.095 . S
Mn396 O411 2.162 . S
Mn396 O412 2.297 . S
Mn396 O420 2.385 . S
Mn396 O421 2.209 . S
Mn396 O422 2.094 1_554 S
Mn397 O402 2.121 . S
Mn397 N404 2.257 . S
Mn397 N413 2.282 . S
Mn397 O421 2.215 1_556 S
Mn397 O423 2.117 . S
C398 O420 1.234 . S
C398 O421 1.283 . S
C399 O411 1.281 . S
C399 O412 1.236 . S
C400 O422 1.240 . S
C400 O423 1.264 . S
O401 Mn396 2.095 . S
O401 C410 1.250 . S
O402 Mn397 2.121 . S
O402 C410 1.258 1_556 S
C403 N404 1.338 . S
C403 C407 1.460 1_556 S
C403 H409 0.918 1_556 S
N404 Mn397 2.257 . S
N404 C403 1.338 . S
N404 C408 1.362 . S
C405 C406 1.273 . S
C405 C408 1.431 . S
C405 C425 1.449 . S
C406 C405 1.273 . S
C406 C407 1.481 1_556 S
C406 H426 0.912 1_565 S
C407 C403 1.460 1_554 S
C407 C406 1.481 1_554 S
C407 H427 0.930 1_565 S
C408 N404 1.362 . S
C408 C405 1.431 . S
C408 C418 1.476 . S
H409 C403 0.918 1_554 S
C410 O401 1.250 . S
C410 O402 1.258 1_554 S
O411 Mn396 2.162 . S
O411 C399 1.281 . S
O412 Mn396 2.297 . S
O412 C399 1.236 . S
N413 Mn397 2.282 . S
N413 C414 1.328 . S
N413 C418 1.318 . S
C414 N413 1.328 . S
C414 C415 1.457 . S
C414 H419 0.929 . S
C415 C414 1.457 . S
C415 C416 1.291 . S
C415 H428 0.931 . S
C416 C415 1.291 . S
C416 C417 1.373 . S
C416 H429 0.929 . S
C417 C416 1.373 . S
C417 C418 1.396 . S
C417 C424 1.403 . S
C418 C408 1.476 . S
C418 N413 1.318 . S
C418 C417 1.396 . S
H419 C414 0.929 . S
O420 Mn396 2.385 . S
O420 C398 1.234 . S
O421 Mn396 2.209 . S
O421 Mn397 2.215 1_554 S
O421 C398 1.283 . S
O422 Mn396 2.094 1_556 S
O422 C400 1.240 . S
O423 Mn397 2.117 . S
O423 C400 1.264 . S
C424 C417 1.403 . S
C424 C425 1.399 . S
C424 H430 0.929 . S
C425 C405 1.449 . S
C425 C424 1.399 . S
C425 H431 0.930 1_565 S
H426 C406 0.912 1_545 S
H427 C407 0.930 1_545 S
H428 C415 0.931 . S
H429 C416 0.929 . S
H430 C424 0.929 . S
H431 C425 0.930 1_545 S
Mn432 O437 2.095 . S
Mn432 O447 2.162 . S
Mn432 O448 2.297 . S
Mn432 O456 2.385 . S
Mn432 O457 2.209 . S
Mn432 O458 2.094 . S
Mn433 O438 2.121 . S
Mn433 N440 2.257 . S
Mn433 N449 2.282 1_554 S
Mn433 O457 2.215 . S
Mn433 O459 2.117 1_554 S
C434 O456 1.234 . S
C434 O457 1.283 . S
C435 O447 1.281 . S
C435 O448 1.236 . S
C436 O458 1.240 1_556 S
C436 O459 1.264 . S
O437 Mn432 2.095 . S
O437 C446 1.250 . S
O438 Mn433 2.121 . S
O438 C446 1.258 . S
C439 N440 1.326 . S
C439 C443 1.460 . S
C439 H445 0.929 . S
N440 Mn433 2.257 . S
N440 C439 1.326 . S
N440 C444 1.362 . S
C441 C442 1.258 . S
C441 C444 1.431 . S
C441 C461 1.442 1_554 S
C442 C441 1.258 . S
C442 C443 1.477 . S
C442 H462 0.931 . S
C443 C439 1.460 . S
C443 C442 1.477 . S
C443 H463 0.930 . S
C444 N440 1.362 . S
C444 C441 1.431 . S
C444 C454 1.476 1_554 S
H445 C439 0.929 . S
C446 O437 1.250 . S
C446 O438 1.258 . S
O447 Mn432 2.162 . S
O447 C435 1.281 . S
O448 Mn432 2.297 . S
O448 C435 1.236 . S
N449 Mn433 2.282 1_556 S
N449 C450 1.328 . S
N449 C454 1.318 . S
C450 N449 1.328 . S
C450 C451 1.457 . S
C450 H455 0.929 . S
C451 C450 1.457 . S
C451 C452 1.291 . S
C451 H464 0.931 . S
C452 C451 1.291 . S
C452 C453 1.373 . S
C452 H465 0.929 . S
C453 C452 1.373 . S
C453 C454 1.396 . S
C453 C460 1.403 . S
C454 C444 1.476 1_556 S
C454 N449 1.318 . S
C454 C453 1.396 . S
H455 C450 0.929 . S
O456 Mn432 2.385 . S
O456 C434 1.234 . S
O457 Mn432 2.209 . S
O457 Mn433 2.215 . S
O457 C434 1.283 . S
O458 Mn432 2.094 . S
O458 C436 1.240 1_554 S
O459 Mn433 2.117 1_556 S
O459 C436 1.264 . S
C460 C453 1.403 . S
C460 C461 1.406 . S
C460 H466 0.929 . S
C461 C441 1.442 1_556 S
C461 C460 1.406 . S
C461 H467 0.934 1_556 S
H462 C442 0.931 . S
H463 C443 0.930 . S
H464 C451 0.931 . S
H465 C452 0.929 . S
H466 C460 0.929 . S
H467 C461 0.934 1_554 S
Mn468 O473 2.095 . S
Mn468 O483 2.162 . S
Mn468 O484 2.297 . S
Mn468 O492 2.385 . S
Mn468 O493 2.209 . S
Mn468 O494 2.097 1_554 S
Mn469 O474 2.121 1_556 S
Mn469 N476 2.257 . S
Mn469 N485 2.282 . S
Mn469 O493 2.215 1_556 S
Mn469 O495 2.117 . S
C470 O492 1.234 . S
C470 O493 1.283 . S
C471 O483 1.281 . S
C471 O484 1.236 . S
C472 O494 1.237 . S
C472 O495 1.264 . S
O473 Mn468 2.095 . S
O473 C482 1.250 . S
O474 Mn469 2.121 1_554 S
O474 C482 1.258 . S
C475 N476 1.337 . S
C475 C479 1.458 . S
C475 H481 0.921 1_556 S
N476 Mn469 2.257 . S
N476 C475 1.337 . S
N476 C480 1.362 . S
C477 C478 1.258 . S
C477 C480 1.431 . S
C477 C497 1.449 . S
C478 C477 1.258 . S
C478 C479 1.477 . S
C478 H498 0.915 1_545 S
C479 C475 1.458 . S
C479 C478 1.477 . S
C479 H499 0.930 1_556 S
C480 N476 1.362 . S
C480 C477 1.431 . S
C480 C490 1.476 . S
H481 C475 0.921 1_554 S
C482 O473 1.250 . S
C482 O474 1.258 . S
O483 Mn468 2.162 . S
O483 C471 1.281 . S
O484 Mn468 2.297 . S
O484 C471 1.236 . S
N485 Mn469 2.282 . S
N485 C486 1.328 . S
N485 C490 1.318 . S
C486 N485 1.328 . S
C486 C487 1.457 . S
C486 H491 0.929 . S
C487 C486 1.457 . S
C487 C488 1.291 . S
C487 H500 0.931 . S
C488 C487 1.291 . S
C488 C489 1.373 . S
C488 H501 0.929 . S
C489 C488 1.373 . S
C489 C490 1.396 . S
C489 C496 1.403 . S
C490 C480 1.476 . S
C490 N485 1.318 . S
C490 C489 1.396 . S
H491 C486 0.929 . S
O492 Mn468 2.385 . S
O492 C470 1.234 . S
O493 Mn468 2.209 . S
O493 Mn469 2.215 1_554 S
O493 C470 1.283 . S
O494 Mn468 2.097 1_556 S
O494 C472 1.237 . S
O495 Mn469 2.117 . S
O495 C472 1.264 . S
C496 C489 1.403 . S
C496 C497 1.399 . S
C496 H502 0.929 . S
C497 C477 1.449 . S
C497 C496 1.399 . S
C497 H503 0.930 . S
H498 C478 0.915 1_565 S
H499 C479 0.930 1_554 S
H500 C487 0.931 . S
H501 C488 0.929 . S
H502 C496 0.929 . S
H503 C497 0.930 . S
Mn504 O509 2.095 . S
Mn504 O519 2.162 . S
Mn504 O520 2.297 . S
Mn504 O528 2.385 . S
Mn504 O529 2.209 . S
Mn504 O530 2.094 . S
Mn505 O510 2.121 . S
Mn505 N512 2.257 . S
Mn505 N521 2.282 . S
Mn505 O529 2.215 . S
Mn505 O531 2.117 . S
C506 O528 1.234 . S
C506 O529 1.283 . S
C507 O519 1.281 . S
C507 O520 1.236 . S
C508 O530 1.240 . S
C508 O531 1.264 . S
O509 Mn504 2.095 . S
O509 C518 1.250 . S
O510 Mn505 2.121 . S
O510 C518 1.258 . S
C511 N512 1.326 . S
C511 C515 1.460 . S
C511 H517 0.929 . S
N512 Mn505 2.257 . S
N512 C511 1.326 . S
N512 C516 1.362 . S
C513 C514 1.258 . S
C513 C516 1.431 . S
C513 C533 1.449 . S
C514 C513 1.258 . S
C514 C515 1.477 . S
C514 H534 0.931 . S
C515 C511 1.460 . S
C515 C514 1.477 . S
C515 H535 0.930 . S
C516 N512 1.362 . S
C516 C513 1.431 . S
C516 C526 1.476 . S
H517 C511 0.929 . S
C518 O509 1.250 . S
C518 O510 1.258 . S
O519 Mn504 2.162 . S
O519 C507 1.281 . S
O520 Mn504 2.297 . S
O520 C507 1.236 . S
N521 Mn505 2.282 . S
N521 C522 1.328 . S
N521 C526 1.318 . S
C522 N521 1.328 . S
C522 C523 1.457 . S
C522 H527 0.929 . S
C523 C522 1.457 . S
C523 C524 1.291 . S
C523 H536 0.931 . S
C524 C523 1.291 . S
C524 C525 1.373 . S
C524 H537 0.929 . S
C525 C524 1.373 . S
C525 C526 1.396 . S
C525 C532 1.403 . S
C526 C516 1.476 . S
C526 N521 1.318 . S
C526 C525 1.396 . S
H527 C522 0.929 . S
O528 Mn504 2.385 . S
O528 C506 1.234 . S
O529 Mn504 2.209 . S
O529 Mn505 2.215 . S
O529 C506 1.283 . S
O530 Mn504 2.094 . S
O530 C508 1.240 . S
O531 Mn505 2.117 . S
O531 C508 1.264 . S
C532 C525 1.403 . S
C532 C533 1.399 . S
C532 H538 0.929 . S
C533 C513 1.449 . S
C533 C532 1.399 . S
C533 H539 0.930 . S
H534 C514 0.931 . S
H535 C515 0.930 . S
H536 C523 0.931 . S
H537 C524 0.929 . S
H538 C532 0.929 . S
H539 C533 0.930 . S
Mn540 O545 2.095 . S
Mn540 O555 2.162 . S
Mn540 O556 2.297 . S
Mn540 O564 2.385 . S
Mn540 O565 2.209 . S
Mn540 O566 2.094 . S
Mn541 O546 2.121 . S
Mn541 N548 2.257 . S
Mn541 N557 2.282 . S
Mn541 O565 2.215 . S
Mn541 O567 2.117 . S
C542 O564 1.234 . S
C542 O565 1.283 . S
C543 O555 1.281 . S
C543 O556 1.236 . S
C544 O566 1.240 . S
C544 O567 1.264 . S
O545 Mn540 2.095 . S
O545 C554 1.250 . S
O546 Mn541 2.121 . S
O546 C554 1.258 . S
C547 N548 1.326 . S
C547 C551 1.460 . S
C547 H553 0.929 . S
N548 Mn541 2.257 . S
N548 C547 1.326 . S
N548 C552 1.362 . S
C549 C550 1.258 1_565 S
C549 C552 1.431 . S
C549 C569 1.449 . S
C550 C549 1.258 1_545 S
C550 C551 1.477 1_545 S
C550 H570 0.931 . S
C551 C547 1.460 . S
C551 C550 1.477 1_565 S
C551 H571 0.930 1_565 S
C552 N548 1.362 . S
C552 C549 1.431 . S
C552 C562 1.476 . S
H553 C547 0.929 . S
C554 O545 1.250 . S
C554 O546 1.258 . S
O555 Mn540 2.162 . S
O555 C543 1.281 . S
O556 Mn540 2.297 . S
O556 C543 1.236 . S
N557 Mn541 2.282 . S
N557 C558 1.328 . S
N557 C562 1.318 . S
C558 N557 1.328 . S
C558 C559 1.457 . S
C558 H563 0.929 . S
C559 C558 1.457 . S
C559 C560 1.291 . S
C559 H572 0.931 . S
C560 C559 1.291 . S
C560 C561 1.373 . S
C560 H573 0.929 . S
C561 C560 1.373 . S
C561 C562 1.396 . S
C561 C568 1.403 . S
C562 C552 1.476 . S
C562 N557 1.318 . S
C562 C561 1.396 . S
H563 C558 0.929 . S
O564 Mn540 2.385 . S
O564 C542 1.234 . S
O565 Mn540 2.209 . S
O565 Mn541 2.215 . S
O565 C542 1.283 . S
O566 Mn540 2.094 . S
O566 C544 1.240 . S
O567 Mn541 2.117 . S
O567 C544 1.264 . S
C568 C561 1.403 . S
C568 C569 1.399 . S
C568 H574 0.929 . S
C569 C549 1.449 . S
C569 C568 1.399 . S
C569 H575 0.930 1_565 S
H570 C550 0.931 . S
H571 C551 0.930 1_545 S
H572 C559 0.931 . S
H573 C560 0.929 . S
H574 C568 0.929 . S
H575 C569 0.930 1_545 S
Mn576 O581 2.095 . S
Mn576 O591 2.162 . S
Mn576 O592 2.297 . S
Mn576 O600 2.385 1_545 S
Mn576 O601 2.209 1_545 S
Mn576 O602 2.094 . S
Mn577 O582 2.121 . S
Mn577 N584 2.257 1_545 S
Mn577 N593 2.282 1_545 S
Mn577 O601 2.215 1_545 S
Mn577 O603 2.117 . S
C578 O600 1.234 . S
C578 O601 1.283 . S
C579 O591 1.281 . S
C579 O592 1.236 . S
C580 O602 1.240 . S
C580 O603 1.264 . S
O581 Mn576 2.095 . S
O581 C590 1.250 . S
O582 Mn577 2.121 . S
O582 C590 1.258 . S
C583 N584 1.332 . S
C583 C587 1.462 . S
C583 H589 0.922 1_565 S
N584 Mn577 2.257 1_565 S
N584 C583 1.332 . S
N584 C588 1.362 . S
C585 C586 1.258 . S
C585 C588 1.431 . S
C585 C605 1.449 . S
C586 C585 1.258 . S
C586 C587 1.477 . S
C586 H606 0.931 . S
C587 C583 1.462 . S
C587 C586 1.477 . S
C587 H607 0.930 . S
C588 N584 1.362 . S
C588 C585 1.431 . S
C588 C598 1.476 . S
H589 C583 0.922 1_545 S
C590 O581 1.250 . S
C590 O582 1.258 . S
O591 Mn576 2.162 . S
O591 C579 1.281 . S
O592 Mn576 2.297 . S
O592 C579 1.236 . S
N593 Mn577 2.282 1_565 S
N593 C594 1.328 . S
N593 C598 1.318 . S
C594 N593 1.328 . S
C594 C595 1.457 . S
C594 H599 0.929 . S
C595 C594 1.457 . S
C595 C596 1.291 . S
C595 H608 0.931 . S
C596 C595 1.291 . S
C596 C597 1.373 . S
C596 H609 0.929 . S
C597 C596 1.373 . S
C597 C598 1.396 . S
C597 C604 1.403 . S
C598 C588 1.476 . S
C598 N593 1.318 . S
C598 C597 1.396 . S
H599 C594 0.929 . S
O600 Mn576 2.385 1_565 S
O600 C578 1.234 . S
O601 Mn576 2.209 1_565 S
O601 Mn577 2.215 1_565 S
O601 C578 1.283 . S
O602 Mn576 2.094 . S
O602 C580 1.240 . S
O603 Mn577 2.117 . S
O603 C580 1.264 . S
C604 C597 1.403 . S
C604 C605 1.399 . S
C604 H610 0.929 . S
C605 C585 1.449 . S
C605 C604 1.399 . S
C605 H611 0.930 . S
H606 C586 0.931 . S
H607 C587 0.930 . S
H608 C595 0.931 . S
H609 C596 0.929 . S
H610 C604 0.929 . S
H611 C605 0.930 . S
Mn612 O617 2.095 . S
Mn612 O627 2.162 . S
Mn612 O628 2.297 . S
Mn612 O636 2.385 . S
Mn612 O637 2.209 . S
Mn612 O638 2.094 . S
Mn613 O618 2.121 . S
Mn613 N620 2.257 . S
Mn613 N629 2.282 . S
Mn613 O637 2.215 . S
Mn613 O639 2.117 . S
C614 O636 1.234 . S
C614 O637 1.283 . S
C615 O627 1.281 . S
C615 O628 1.236 . S
C616 O638 1.240 . S
C616 O639 1.264 . S
O617 Mn612 2.095 . S
O617 C626 1.250 . S
O618 Mn613 2.121 . S
O618 C626 1.258 . S
C619 N620 1.326 . S
C619 C623 1.460 . S
C619 H625 0.929 . S
N620 Mn613 2.257 . S
N620 C619 1.326 . S
N620 C624 1.362 . S
C621 C622 1.258 . S
C621 C624 1.431 . S
C621 C641 1.449 . S
C622 C621 1.258 . S
C622 C623 1.477 . S
C622 H642 0.931 . S
C623 C619 1.460 . S
C623 C622 1.477 . S
C623 H643 0.930 . S
C624 N620 1.362 . S
C624 C621 1.431 . S
C624 C634 1.476 . S
H625 C619 0.929 . S
C626 O617 1.250 . S
C626 O618 1.258 . S
O627 Mn612 2.162 . S
O627 C615 1.281 . S
O628 Mn612 2.297 . S
O628 C615 1.236 . S
N629 Mn613 2.282 . S
N629 C630 1.328 . S
N629 C634 1.318 . S
C630 N629 1.328 . S
C630 C631 1.457 . S
C630 H635 0.929 . S
C631 C630 1.457 . S
C631 C632 1.291 . S
C631 H644 0.931 . S
C632 C631 1.291 . S
C632 C633 1.373 . S
C632 H645 0.929 . S
C633 C632 1.373 . S
C633 C634 1.396 . S
C633 C640 1.403 . S
C634 C624 1.476 . S
C634 N629 1.318 . S
C634 C633 1.396 . S
H635 C630 0.929 . S
O636 Mn612 2.385 . S
O636 C614 1.234 . S
O637 Mn612 2.209 . S
O637 Mn613 2.215 . S
O637 C614 1.283 . S
O638 Mn612 2.094 . S
O638 C616 1.240 . S
O639 Mn613 2.117 . S
O639 C616 1.264 . S
C640 C633 1.403 . S
C640 C641 1.399 . S
C640 H646 0.929 . S
C641 C621 1.449 . S
C641 C640 1.399 . S
C641 H647 0.930 . S
H642 C622 0.931 . S
H643 C623 0.930 . S
H644 C631 0.931 . S
H645 C632 0.929 . S
H646 C640 0.929 . S
H647 C641 0.930 . S
Mn648 O653 2.095 . S
Mn648 O663 2.162 . S
Mn648 O664 2.297 . S
Mn648 O672 2.385 . S
Mn648 O673 2.209 . S
Mn648 O674 2.094 . S
Mn649 O654 2.121 . S
Mn649 N656 2.257 . S
Mn649 N665 2.282 . S
Mn649 O673 2.215 . S
Mn649 O675 2.117 . S
C650 O672 1.234 . S
C650 O673 1.283 . S
C651 O663 1.281 . S
C651 O664 1.236 . S
C652 O674 1.240 . S
C652 O675 1.264 . S
O653 Mn648 2.095 . S
O653 C662 1.250 . S
O654 Mn649 2.121 . S
O654 C662 1.258 . S
C655 N656 1.326 . S
C655 C659 1.460 . S
C655 H661 0.929 . S
N656 Mn649 2.257 . S
N656 C655 1.326 . S
N656 C660 1.362 . S
C657 C658 1.258 . S
C657 C660 1.431 . S
C657 C677 1.449 . S
C658 C657 1.258 . S
C658 C659 1.477 . S
C658 H678 0.931 . S
C659 C655 1.460 . S
C659 C658 1.477 . S
C659 H679 0.930 . S
C660 N656 1.362 . S
C660 C657 1.431 . S
C660 C670 1.476 . S
H661 C655 0.929 . S
C662 O653 1.250 . S
C662 O654 1.258 . S
O663 Mn648 2.162 . S
O663 C651 1.281 . S
O664 Mn648 2.297 . S
O664 C651 1.236 . S
N665 Mn649 2.282 . S
N665 C666 1.328 . S
N665 C670 1.318 . S
C666 N665 1.328 . S
C666 C667 1.457 . S
C666 H671 0.929 . S
C667 C666 1.457 . S
C667 C668 1.291 . S
C667 H680 0.931 . S
C668 C667 1.291 . S
C668 C669 1.373 . S
C668 H681 0.929 . S
C669 C668 1.373 . S
C669 C670 1.396 . S
C669 C676 1.403 . S
C670 C660 1.476 . S
C670 N665 1.318 . S
C670 C669 1.396 . S
H671 C666 0.929 . S
O672 Mn648 2.385 . S
O672 C650 1.234 . S
O673 Mn648 2.209 . S
O673 Mn649 2.215 . S
O673 C650 1.283 . S
O674 Mn648 2.094 . S
O674 C652 1.240 . S
O675 Mn649 2.117 . S
O675 C652 1.264 . S
C676 C669 1.403 . S
C676 C677 1.399 . S
C676 H682 0.929 . S
C677 C657 1.449 . S
C677 C676 1.399 . S
C677 H683 0.930 . S
H678 C658 0.931 . S
H679 C659 0.930 . S
H680 C667 0.931 . S
H681 C668 0.929 . S
H682 C676 0.929 . S
H683 C677 0.930 . S
Mn684 O689 2.081 1_545 S
Mn684 O699 2.162 1_545 S
Mn684 O700 2.298 1_545 S
Mn684 O708 2.400 . S
Mn684 O709 2.214 . S
Mn684 O710 2.094 1_545 S
Mn685 O690 2.121 1_545 S
Mn685 N692 2.257 . S
Mn685 N701 2.282 . S
Mn685 O709 2.215 . S
Mn685 O711 2.117 . S
C686 O708 1.234 . S
C686 O709 1.283 . S
C687 O699 1.281 . S
C687 O700 1.235 . S
C688 O710 1.241 1_545 S
C688 O711 1.264 . S
O689 Mn684 2.081 1_565 S
O689 C698 1.250 . S
O690 Mn685 2.121 1_565 S
O690 C698 1.258 . S
C691 N692 1.326 . S
C691 C695 1.460 . S
C691 H697 0.929 1_545 S
N692 Mn685 2.257 . S
N692 C691 1.326 . S
N692 C696 1.362 . S
C693 C694 1.258 . S
C693 C696 1.431 . S
C693 C713 1.449 . S
C694 C693 1.258 . S
C694 C695 1.477 . S
C694 H714 0.931 . S
C695 C691 1.460 . S
C695 C694 1.477 . S
C695 H715 0.930 . S
C696 N692 1.362 . S
C696 C693 1.431 . S
C696 C706 1.476 . S
H697 C691 0.929 1_565 S
C698 O689 1.250 . S
C698 O690 1.258 . S
O699 Mn684 2.162 1_565 S
O699 C687 1.281 . S
O700 Mn684 2.298 1_565 S
O700 C687 1.235 . S
N701 Mn685 2.282 . S
N701 C702 1.328 . S
N701 C706 1.318 . S
C702 N701 1.328 . S
C702 C703 1.457 . S
C702 H707 0.929 . S
C703 C702 1.457 . S
C703 C704 1.291 . S
C703 H716 0.931 . S
C704 C703 1.291 . S
C704 C705 1.373 . S
C704 H717 0.929 . S
C705 C704 1.373 . S
C705 C706 1.396 . S
C705 C712 1.403 . S
C706 C696 1.476 . S
C706 N701 1.318 . S
C706 C705 1.396 . S
H707 C702 0.929 . S
O708 Mn684 2.400 . S
O708 C686 1.234 . S
O709 Mn684 2.214 . S
O709 Mn685 2.215 . S
O709 C686 1.283 . S
O710 Mn684 2.094 1_565 S
O710 C688 1.241 1_565 S
O711 Mn685 2.117 . S
O711 C688 1.264 . S
C712 C705 1.403 . S
C712 C713 1.399 . S
C712 H718 0.929 . S
C713 C693 1.449 . S
C713 C712 1.399 . S
C713 H719 0.930 . S
H714 C694 0.931 . S
H715 C695 0.930 . S
H716 C703 0.931 . S
H717 C704 0.929 . S
H718 C712 0.929 . S
H719 C713 0.930 . S
Mn720 O725 2.095 1_554 S
Mn720 O735 2.162 . S
Mn720 O736 2.297 . S
Mn720 O744 2.385 . S
Mn720 O745 2.209 1_554 S
Mn720 O746 2.094 1_554 S
Mn721 O726 2.121 . S
Mn721 N728 2.257 . S
Mn721 N737 2.282 . S
Mn721 O745 2.215 . S
Mn721 O747 2.117 . S
C722 O744 1.234 1_556 S
C722 O745 1.283 . S
C723 O735 1.281 . S
C723 O736 1.236 . S
C724 O746 1.240 . S
C724 O747 1.264 . S
O725 Mn720 2.095 1_556 S
O725 C734 1.250 . S
O726 Mn721 2.121 . S
O726 C734 1.258 . S
C727 N728 1.326 . S
C727 C731 1.460 . S
C727 H733 0.929 . S
N728 Mn721 2.257 . S
N728 C727 1.326 . S
N728 C732 1.362 . S
C729 C730 1.258 . S
C729 C732 1.431 . S
C729 C749 1.449 . S
C730 C729 1.258 . S
C730 C731 1.477 . S
C730 H750 0.931 . S
C731 C727 1.460 . S
C731 C730 1.477 . S
C731 H751 0.930 . S
C732 N728 1.362 . S
C732 C729 1.431 . S
C732 C742 1.476 . S
H733 C727 0.929 . S
C734 O725 1.250 . S
C734 O726 1.258 . S
O735 Mn720 2.162 . S
O735 C723 1.281 . S
O736 Mn720 2.297 . S
O736 C723 1.236 . S
N737 Mn721 2.282 . S
N737 C738 1.328 . S
N737 C742 1.318 . S
C738 N737 1.328 . S
C738 C739 1.457 . S
C738 H743 0.929 . S
C739 C738 1.457 . S
C739 C740 1.291 . S
C739 H752 0.931 . S
C740 C739 1.291 . S
C740 C741 1.373 . S
C740 H753 0.929 . S
C741 C740 1.373 . S
C741 C742 1.396 . S
C741 C748 1.403 . S
C742 C732 1.476 . S
C742 N737 1.318 . S
C742 C741 1.396 . S
H743 C738 0.929 . S
O744 Mn720 2.385 . S
O744 C722 1.234 1_554 S
O745 Mn720 2.209 1_556 S
O745 Mn721 2.215 . S
O745 C722 1.283 . S
O746 Mn720 2.094 1_556 S
O746 C724 1.240 . S
O747 Mn721 2.117 . S
O747 C724 1.264 . S
C748 C741 1.403 . S
C748 C749 1.399 . S
C748 H754 0.929 . S
C749 C729 1.449 . S
C749 C748 1.399 . S
C749 H755 0.930 . S
H750 C730 0.931 . S
H751 C731 0.930 . S
H752 C739 0.931 . S
H753 C740 0.929 . S
H754 C748 0.929 . S
H755 C749 0.930 . S
Mn756 O761 2.095 . S
Mn756 O771 2.162 . S
Mn756 O772 2.297 . S
Mn756 O780 2.385 . S
Mn756 O781 2.209 . S
Mn756 O782 2.094 . S
Mn757 O762 2.121 . S
Mn757 N764 2.257 . S
Mn757 N773 2.282 . S
Mn757 O781 2.215 . S
Mn757 O783 2.117 . S
C758 O780 1.234 . S
C758 O781 1.283 . S
C759 O771 1.281 . S
C759 O772 1.236 . S
C760 O782 1.240 . S
C760 O783 1.264 . S
O761 Mn756 2.095 . S
O761 C770 1.250 . S
O762 Mn757 2.121 . S
O762 C770 1.258 . S
C763 N764 1.326 . S
C763 C767 1.460 . S
C763 H769 0.929 . S
N764 Mn757 2.257 . S
N764 C763 1.326 . S
N764 C768 1.362 . S
C765 C766 1.258 . S
C765 C768 1.431 . S
C765 C785 1.449 . S
C766 C765 1.258 . S
C766 C767 1.477 . S
C766 H786 0.931 . S
C767 C763 1.460 . S
C767 C766 1.477 . S
C767 H787 0.930 . S
C768 N764 1.362 . S
C768 C765 1.431 . S
C768 C778 1.476 . S
H769 C763 0.929 . S
C770 O761 1.250 . S
C770 O762 1.258 . S
O771 Mn756 2.162 . S
O771 C759 1.281 . S
O772 Mn756 2.297 . S
O772 C759 1.236 . S
N773 Mn757 2.282 . S
N773 C774 1.328 . S
N773 C778 1.318 . S
C774 N773 1.328 . S
C774 C775 1.457 . S
C774 H779 0.929 . S
C775 C774 1.457 . S
C775 C776 1.291 . S
C775 H788 0.931 . S
C776 C775 1.291 . S
C776 C777 1.373 . S
C776 H789 0.929 . S
C777 C776 1.373 . S
C777 C778 1.396 . S
C777 C784 1.403 . S
C778 C768 1.476 . S
C778 N773 1.318 . S
C778 C777 1.396 . S
H779 C774 0.929 . S
O780 Mn756 2.385 . S
O780 C758 1.234 . S
O781 Mn756 2.209 . S
O781 Mn757 2.215 . S
O781 C758 1.283 . S
O782 Mn756 2.094 . S
O782 C760 1.240 . S
O783 Mn757 2.117 . S
O783 C760 1.264 . S
C784 C777 1.403 . S
C784 C785 1.399 . S
C784 H790 0.929 . S
C785 C765 1.449 . S
C785 C784 1.399 . S
C785 H791 0.930 . S
H786 C766 0.931 . S
H787 C767 0.930 . S
H788 C775 0.931 . S
H789 C776 0.929 . S
H790 C784 0.929 . S
H791 C785 0.930 . S
Mn792 O797 2.095 . S
Mn792 O807 2.162 . S
Mn792 O808 2.297 . S
Mn792 O816 2.385 . S
Mn792 O817 2.209 . S
Mn792 O818 2.094 . S
Mn793 O798 2.121 . S
Mn793 N800 2.257 . S
Mn793 N809 2.282 . S
Mn793 O817 2.215 . S
Mn793 O819 2.117 . S
C794 O816 1.234 . S
C794 O817 1.283 . S
C795 O807 1.281 . S
C795 O808 1.236 . S
C796 O818 1.240 . S
C796 O819 1.264 . S
O797 Mn792 2.095 . S
O797 C806 1.250 . S
O798 Mn793 2.121 . S
O798 C806 1.258 . S
C799 N800 1.326 . S
C799 C803 1.460 . S
C799 H805 0.929 . S
N800 Mn793 2.257 . S
N800 C799 1.326 . S
N800 C804 1.362 . S
C801 C802 1.258 . S
C801 C804 1.431 . S
C801 C821 1.449 . S
C802 C801 1.258 . S
C802 C803 1.477 . S
C802 H822 0.931 . S
C803 C799 1.460 . S
C803 C802 1.477 . S
C803 H823 0.930 . S
C804 N800 1.362 . S
C804 C801 1.431 . S
C804 C814 1.476 . S
H805 C799 0.929 . S
C806 O797 1.250 . S
C806 O798 1.258 . S
O807 Mn792 2.162 . S
O807 C795 1.281 . S
O808 Mn792 2.297 . S
O808 C795 1.236 . S
N809 Mn793 2.282 . S
N809 C810 1.328 . S
N809 C814 1.318 . S
C810 N809 1.328 . S
C810 C811 1.457 . S
C810 H815 0.929 . S
C811 C810 1.457 . S
C811 C812 1.291 . S
C811 H824 0.931 . S
C812 C811 1.291 . S
C812 C813 1.373 . S
C812 H825 0.929 . S
C813 C812 1.373 . S
C813 C814 1.396 . S
C813 C820 1.403 . S
C814 C804 1.476 . S
C814 N809 1.318 . S
C814 C813 1.396 . S
H815 C810 0.929 . S
O816 Mn792 2.385 . S
O816 C794 1.234 . S
O817 Mn792 2.209 . S
O817 Mn793 2.215 . S
O817 C794 1.283 . S
O818 Mn792 2.094 . S
O818 C796 1.240 . S
O819 Mn793 2.117 . S
O819 C796 1.264 . S
C820 C813 1.403 . S
C820 C821 1.399 . S
C820 H826 0.929 . S
C821 C801 1.449 . S
C821 C820 1.399 . S
C821 H827 0.930 . S
H822 C802 0.931 . S
H823 C803 0.930 . S
H824 C811 0.931 . S
H825 C812 0.929 . S
H826 C820 0.929 . S
H827 C821 0.930 . S
Mn828 O833 2.095 . S
Mn828 O843 2.162 . S
Mn828 O844 2.297 . S
Mn828 O852 2.385 . S
Mn828 O853 2.209 . S
Mn828 O854 2.094 . S
Mn829 O834 2.121 . S
Mn829 N836 2.257 . S
Mn829 N845 2.282 . S
Mn829 O853 2.215 . S
Mn829 O855 2.117 . S
C830 O852 1.234 . S
C830 O853 1.283 . S
C831 O843 1.281 . S
C831 O844 1.236 . S
C832 O854 1.240 . S
C832 O855 1.264 . S
O833 Mn828 2.095 . S
O833 C842 1.250 . S
O834 Mn829 2.121 . S
O834 C842 1.258 . S
C835 N836 1.326 . S
C835 C839 1.460 . S
C835 H841 0.929 . S
N836 Mn829 2.257 . S
N836 C835 1.326 . S
N836 C840 1.362 . S
C837 C838 1.258 . S
C837 C840 1.431 . S
C837 C857 1.449 . S
C838 C837 1.258 . S
C838 C839 1.477 . S
C838 H858 0.931 . S
C839 C835 1.460 . S
C839 C838 1.477 . S
C839 H859 0.930 . S
C840 N836 1.362 . S
C840 C837 1.431 . S
C840 C850 1.476 . S
H841 C835 0.929 . S
C842 O833 1.250 . S
C842 O834 1.258 . S
O843 Mn828 2.162 . S
O843 C831 1.281 . S
O844 Mn828 2.297 . S
O844 C831 1.236 . S
N845 Mn829 2.282 . S
N845 C846 1.328 . S
N845 C850 1.318 . S
C846 N845 1.328 . S
C846 C847 1.457 . S
C846 H851 0.929 . S
C847 C846 1.457 . S
C847 C848 1.291 . S
C847 H860 0.931 . S
C848 C847 1.291 . S
C848 C849 1.373 . S
C848 H861 0.929 . S
C849 C848 1.373 . S
C849 C850 1.396 . S
C849 C856 1.403 . S
C850 C840 1.476 . S
C850 N845 1.318 . S
C850 C849 1.396 . S
H851 C846 0.929 . S
O852 Mn828 2.385 . S
O852 C830 1.234 . S
O853 Mn828 2.209 . S
O853 Mn829 2.215 . S
O853 C830 1.283 . S
O854 Mn828 2.094 . S
O854 C832 1.240 . S
O855 Mn829 2.117 . S
O855 C832 1.264 . S
C856 C849 1.403 . S
C856 C857 1.399 . S
C856 H862 0.929 . S
C857 C837 1.449 . S
C857 C856 1.399 . S
C857 H863 0.930 . S
H858 C838 0.931 . S
H859 C839 0.930 . S
H860 C847 0.931 . S
H861 C848 0.929 . S
H862 C856 0.929 . S
H863 C857 0.930 . S
Zn864 O870 1.969 . S
Zn864 O871 1.965 . S
Zn864 O875 2.024 . S
Zn864 O880 1.969 . S
Zn865 O872 1.969 1_654 S
Zn865 O878 1.969 1_554 S
Zn865 O879 1.965 . S
Zn865 O881 2.024 1_655 S
C866 O867 1.229 . S
C866 O875 1.058 . S
O867 C866 1.229 . S
C868 O869 1.229 1_454 S
C868 O881 1.058 . S
O869 C868 1.229 1_656 S
O870 Zn864 1.969 . S
O870 C873 1.267 . S
O871 Zn864 1.965 . S
O871 C882 1.260 1_554 S
O872 Zn865 1.969 1_456 S
O872 C882 1.258 1_545 S
C873 O870 1.267 . S
C873 O874 1.228 . S
O874 C873 1.228 . S
O875 Zn864 2.024 . S
O875 C866 1.058 . S
C876 O877 1.228 . S
C876 O878 1.267 1_554 S
O877 C876 1.228 . S
O878 Zn865 1.969 1_556 S
O878 C876 1.267 1_556 S
O879 Zn865 1.965 . S
O879 C883 1.250 1_655 S
O880 Zn864 1.969 . S
O880 C883 1.275 1_565 S
O881 Zn865 2.024 1_455 S
O881 C868 1.058 . S
C882 O871 1.260 1_556 S
C882 O872 1.258 1_565 S
C883 O879 1.250 1_455 S
C883 O880 1.275 1_545 S
Zn884 O890 1.969 . S
Zn884 O891 1.965 . S
Zn884 O895 2.024 . S
Zn884 O900 1.969 . S
Zn885 O892 1.969 . S
Zn885 O898 1.969 . S
Zn885 O899 1.965 . S
Zn885 O901 2.024 . S
C886 O887 1.229 . S
C886 O895 1.058 . S
O887 C886 1.229 . S
C888 O889 1.229 . S
C888 O901 1.058 . S
O889 C888 1.229 . S
O890 Zn884 1.969 . S
O890 C893 1.267 . S
O891 Zn884 1.965 . S
O891 C902 1.260 . S
O892 Zn885 1.969 . S
O892 C902 1.258 . S
C893 O890 1.267 . S
C893 O894 1.228 . S
O894 C893 1.228 . S
O895 Zn884 2.024 . S
O895 C886 1.058 . S
C896 O897 1.228 . S
C896 O898 1.267 . S
O897 C896 1.228 . S
O898 Zn885 1.969 . S
O898 C896 1.267 . S
O899 Zn885 1.965 . S
O899 C903 1.260 . S
O900 Zn884 1.969 . S
O900 C903 1.258 . S
O901 Zn885 2.024 . S
O901 C888 1.058 . S
C902 O891 1.260 . S
C902 O892 1.258 . S
C903 O899 1.260 . S
C903 O900 1.258 . S
Zn904 O910 1.969 . S
Zn904 O911 1.965 . S
Zn904 O915 2.024 . S
Zn904 O920 1.969 . S
Zn905 O912 1.969 1_565 S
Zn905 O918 1.969 . S
Zn905 O919 1.965 1_565 S
Zn905 O921 2.024 . S
C906 O907 1.229 . S
C906 O915 1.058 . S
O907 C906 1.229 . S
C908 O909 1.229 . S
C908 O921 1.058 . S
O909 C908 1.229 . S
O910 Zn904 1.969 . S
O910 C913 1.267 . S
O911 Zn904 1.965 . S
O911 C922 1.260 . S
O912 Zn905 1.969 1_545 S
O912 C922 1.258 . S
C913 O910 1.267 . S
C913 O914 1.228 . S
O914 C913 1.228 . S
O915 Zn904 2.024 . S
O915 C906 1.058 . S
C916 O917 1.228 . S
C916 O918 1.267 . S
O917 C916 1.228 . S
O918 Zn905 1.969 . S
O918 C916 1.267 . S
O919 Zn905 1.965 1_545 S
O919 C923 1.260 . S
O920 Zn904 1.969 . S
O920 C923 1.258 . S
O921 Zn905 2.024 . S
O921 C908 1.058 . S
C922 O911 1.260 . S
C922 O912 1.258 . S
C923 O919 1.260 . S
C923 O920 1.258 . S
Zn924 O930 1.969 . S
Zn924 O931 1.965 . S
Zn924 O935 2.024 . S
Zn924 O940 1.969 . S
Zn925 O932 1.969 . S
Zn925 O938 1.969 . S
Zn925 O939 1.965 . S
Zn925 O941 2.024 . S
C926 O927 1.229 . S
C926 O935 1.058 . S
O927 C926 1.229 . S
C928 O929 1.229 . S
C928 O941 1.058 . S
O929 C928 1.229 . S
O930 Zn924 1.969 . S
O930 C933 1.267 . S
O931 Zn924 1.965 . S
O931 C942 1.260 . S
O932 Zn925 1.969 . S
O932 C942 1.258 . S
C933 O930 1.267 . S
C933 O934 1.228 . S
O934 C933 1.228 . S
O935 Zn924 2.024 . S
O935 C926 1.058 . S
C936 O937 1.228 . S
C936 O938 1.267 . S
O937 C936 1.228 . S
O938 Zn925 1.969 . S
O938 C936 1.267 . S
O939 Zn925 1.965 . S
O939 C943 1.260 . S
O940 Zn924 1.969 . S
O940 C943 1.258 . S
O941 Zn925 2.024 . S
O941 C928 1.058 . S
C942 O931 1.260 . S
C942 O932 1.258 . S
C943 O939 1.260 . S
C943 O940 1.258 . S
Zn944 O950 1.969 . S
Zn944 O951 1.965 1_455 S
Zn944 O955 2.024 1_565 S
Zn944 O960 1.969 1_565 S
Zn945 O952 1.969 1_455 S
Zn945 O958 1.969 1_455 S
Zn945 O959 1.965 . S
Zn945 O961 2.024 . S
C946 O947 1.229 1_545 S
C946 O955 1.058 . S
O947 C946 1.229 1_565 S
C948 O949 1.229 . S
C948 O961 1.058 1_655 S
O949 C948 1.229 . S
O950 Zn944 1.969 . S
O950 C953 1.267 . S
O951 Zn944 1.965 1_655 S
O951 C962 1.260 . S
O952 Zn945 1.969 1_655 S
O952 C962 1.258 1_545 S
C953 O950 1.267 . S
C953 O954 1.228 . S
O954 C953 1.228 . S
O955 Zn944 2.024 1_545 S
O955 C946 1.058 . S
C956 O957 1.228 . S
C956 O958 1.267 1_455 S
O957 C956 1.228 . S
O958 Zn945 1.969 1_655 S
O958 C956 1.267 1_655 S
O959 Zn945 1.965 . S
O959 C963 1.260 . S
O960 Zn944 1.969 1_545 S
O960 C963 1.258 . S
O961 Zn945 2.024 . S
O961 C948 1.058 1_455 S
C962 O951 1.260 . S
C962 O952 1.258 1_565 S
C963 O959 1.260 . S
C963 O960 1.258 . S
Zn964 O970 1.969 . S
Zn964 O971 1.965 . S
Zn964 O975 2.024 . S
Zn964 O980 1.969 . S
Zn965 O972 1.969 . S
Zn965 O978 1.969 . S
Zn965 O979 1.965 . S
Zn965 O981 2.024 . S
C966 O967 1.229 . S
C966 O975 1.058 . S
O967 C966 1.229 . S
C968 O969 1.229 . S
C968 O981 1.058 . S
O969 C968 1.229 . S
O970 Zn964 1.969 . S
O970 C973 1.267 . S
O971 Zn964 1.965 . S
O971 C982 1.260 . S
O972 Zn965 1.969 . S
O972 C982 1.258 . S
C973 O970 1.267 . S
C973 O974 1.228 . S
O974 C973 1.228 . S
O975 Zn964 2.024 . S
O975 C966 1.058 . S
C976 O977 1.228 . S
C976 O978 1.267 . S
O977 C976 1.228 . S
O978 Zn965 1.969 . S
O978 C976 1.267 . S
O979 Zn965 1.965 . S
O979 C983 1.260 . S
O980 Zn964 1.969 . S
O980 C983 1.258 . S
O981 Zn965 2.024 . S
O981 C968 1.058 . S
C982 O971 1.260 . S
C982 O972 1.258 . S
C983 O979 1.260 . S
C983 O980 1.258 . S
Zn984 O990 1.969 . S
Zn984 O991 1.965 1_545 S
Zn984 O995 2.024 1_556 S
Zn984 O1000 1.969 1_556 S
Zn985 O992 1.999 . S
Zn985 O998 1.984 . S
Zn985 O999 1.935 1_565 S
Zn985 O1001 2.014 1_565 S
C986 O987 1.229 . S
C986 O995 1.058 . S
O987 C986 1.229 . S
C988 O989 1.229 . S
C988 O1001 1.058 1_565 S
O989 C988 1.229 . S
O990 Zn984 1.969 . S
O990 C993 1.267 . S
O991 Zn984 1.965 1_565 S
O991 C1002 1.260 1_556 S
O992 Zn985 1.999 . S
O992 C1002 1.258 . S
C993 O990 1.267 . S
C993 O994 1.228 . S
O994 C993 1.228 . S
O995 Zn984 2.024 1_554 S
O995 C986 1.058 . S
C996 O997 1.228 . S
C996 O998 1.267 1_545 S
O997 C996 1.228 . S
O998 Zn985 1.984 . S
O998 C996 1.267 1_565 S
O999 Zn985 1.935 1_545 S
O999 C1003 1.260 . S
O1000 Zn984 1.969 1_554 S
O1000 C1003 1.258 . S
O1001 Zn985 2.014 1_545 S
O1001 C988 1.058 1_545 S
C1002 O991 1.260 1_554 S
C1002 O992 1.258 . S
C1003 O999 1.260 . S
C1003 O1000 1.258 . S
Zn1004 O1010 1.969 . S
Zn1004 O1011 1.965 . S
Zn1004 O1015 2.024 . S
Zn1004 O1020 1.969 . S
Zn1005 O1012 1.969 . S
Zn1005 O1018 1.969 . S
Zn1005 O1019 1.965 . S
Zn1005 O1021 2.024 . S
C1006 O1007 1.229 . S
C1006 O1015 1.058 . S
O1007 C1006 1.229 . S
C1008 O1009 1.229 . S
C1008 O1021 1.058 . S
O1009 C1008 1.229 . S
O1010 Zn1004 1.969 . S
O1010 C1013 1.267 . S
O1011 Zn1004 1.965 . S
O1011 C1022 1.260 . S
O1012 Zn1005 1.969 . S
O1012 C1022 1.258 . S
C1013 O1010 1.267 . S
C1013 O1014 1.228 . S
O1014 C1013 1.228 . S
O1015 Zn1004 2.024 . S
O1015 C1006 1.058 . S
C1016 O1017 1.228 . S
C1016 O1018 1.267 . S
O1017 C1016 1.228 . S
O1018 Zn1005 1.969 . S
O1018 C1016 1.267 . S
O1019 Zn1005 1.965 . S
O1019 C1023 1.260 . S
O1020 Zn1004 1.969 . S
O1020 C1023 1.258 . S
O1021 Zn1005 2.024 . S
O1021 C1008 1.058 . S
C1022 O1011 1.260 . S
C1022 O1012 1.258 . S
C1023 O1019 1.260 . S
C1023 O1020 1.258 . S
Zn1024 O1030 1.969 . S
Zn1024 O1031 1.965 . S
Zn1024 O1035 2.024 . S
Zn1024 O1040 1.969 . S
Zn1025 O1032 1.969 1_556 S
Zn1025 O1038 1.969 1_556 S
Zn1025 O1039 1.965 1_556 S
Zn1025 O1041 2.024 . S
C1026 O1027 1.229 . S
C1026 O1035 1.058 . S
O1027 C1026 1.229 . S
C1028 O1029 1.229 . S
C1028 O1041 1.058 . S
O1029 C1028 1.229 . S
O1030 Zn1024 1.969 . S
O1030 C1033 1.267 . S
O1031 Zn1024 1.965 . S
O1031 C1042 1.260 . S
O1032 Zn1025 1.969 1_554 S
O1032 C1042 1.258 . S
C1033 O1030 1.267 . S
C1033 O1034 1.228 . S
O1034 C1033 1.228 . S
O1035 Zn1024 2.024 . S
O1035 C1026 1.058 . S
C1036 O1037 1.228 . S
C1036 O1038 1.267 1_556 S
O1037 C1036 1.228 . S
O1038 Zn1025 1.969 1_554 S
O1038 C1036 1.267 1_554 S
O1039 Zn1025 1.965 1_554 S
O1039 C1043 1.260 . S
O1040 Zn1024 1.969 . S
O1040 C1043 1.258 . S
O1041 Zn1025 2.024 . S
O1041 C1028 1.058 . S
C1042 O1031 1.260 . S
C1042 O1032 1.258 . S
C1043 O1039 1.260 . S
C1043 O1040 1.258 . S
Zn1044 O1050 1.969 . S
Zn1044 O1051 1.965 . S
Zn1044 O1055 2.024 . S
Zn1044 O1060 1.969 . S
Zn1045 O1052 1.969 . S
Zn1045 O1058 1.969 . S
Zn1045 O1059 1.965 . S
Zn1045 O1061 2.024 . S
C1046 O1047 1.229 . S
C1046 O1055 1.058 . S
O1047 C1046 1.229 . S
C1048 O1049 1.229 . S
C1048 O1061 1.058 . S
O1049 C1048 1.229 . S
O1050 Zn1044 1.969 . S
O1050 C1053 1.267 . S
O1051 Zn1044 1.965 . S
O1051 C1062 1.260 . S
O1052 Zn1045 1.969 . S
O1052 C1062 1.258 . S
C1053 O1050 1.267 . S
C1053 O1054 1.228 . S
O1054 C1053 1.228 . S
O1055 Zn1044 2.024 . S
O1055 C1046 1.058 . S
C1056 O1057 1.228 . S
C1056 O1058 1.267 . S
O1057 C1056 1.228 . S
O1058 Zn1045 1.969 . S
O1058 C1056 1.267 . S
O1059 Zn1045 1.965 . S
O1059 C1063 1.260 . S
O1060 Zn1044 1.969 . S
O1060 C1063 1.258 . S
O1061 Zn1045 2.024 . S
O1061 C1048 1.058 . S
C1062 O1051 1.260 . S
C1062 O1052 1.258 . S
C1063 O1059 1.260 . S
C1063 O1060 1.258 . S
Zn1064 O1070 1.969 . S
Zn1064 O1071 1.965 . S
Zn1064 O1075 2.024 . S
Zn1064 O1080 1.969 . S
Zn1065 O1072 1.969 1_655 S
Zn1065 O1078 1.969 . S
Zn1065 O1079 1.965 1_655 S
Zn1065 O1081 2.024 . S
C1066 O1067 1.229 . S
C1066 O1075 1.058 . S
O1067 C1066 1.229 . S
C1068 O1069 1.229 . S
C1068 O1081 1.058 . S
O1069 C1068 1.229 . S
O1070 Zn1064 1.969 . S
O1070 C1073 1.267 . S
O1071 Zn1064 1.965 . S
O1071 C1082 1.260 . S
O1072 Zn1065 1.969 1_455 S
O1072 C1082 1.258 . S
C1073 O1070 1.267 . S
C1073 O1074 1.228 . S
O1074 C1073 1.228 . S
O1075 Zn1064 2.024 . S
O1075 C1066 1.058 . S
C1076 O1077 1.228 . S
C1076 O1078 1.267 . S
O1077 C1076 1.228 . S
O1078 Zn1065 1.969 . S
O1078 C1076 1.267 . S
O1079 Zn1065 1.965 1_455 S
O1079 C1083 1.260 . S
O1080 Zn1064 1.969 . S
O1080 C1083 1.258 . S
O1081 Zn1065 2.024 . S
O1081 C1068 1.058 . S
C1082 O1071 1.260 . S
C1082 O1072 1.258 . S
C1083 O1079 1.260 . S
C1083 O1080 1.258 . S
Zn1084 O1090 1.969 . S
Zn1084 O1091 1.965 . S
Zn1084 O1095 2.024 . S
Zn1084 O1100 1.969 . S
Zn1085 O1092 1.969 . S
Zn1085 O1098 1.969 . S
Zn1085 O1099 1.965 . S
Zn1085 O1101 2.024 . S
C1086 O1087 1.229 . S
C1086 O1095 1.058 . S
O1087 C1086 1.229 . S
C1088 O1089 1.229 . S
C1088 O1101 1.058 . S
O1089 C1088 1.229 . S
O1090 Zn1084 1.969 . S
O1090 C1093 1.267 . S
O1091 Zn1084 1.965 . S
O1091 C1102 1.260 . S
O1092 Zn1085 1.969 . S
O1092 C1102 1.258 . S
C1093 O1090 1.267 . S
C1093 O1094 1.228 . S
O1094 C1093 1.228 . S
O1095 Zn1084 2.024 . S
O1095 C1086 1.058 . S
C1096 O1097 1.228 . S
C1096 O1098 1.267 . S
O1097 C1096 1.228 . S
O1098 Zn1085 1.969 . S
O1098 C1096 1.267 . S
O1099 Zn1085 1.965 . S
O1099 C1103 1.260 . S
O1100 Zn1084 1.969 . S
O1100 C1103 1.258 . S
O1101 Zn1085 2.024 . S
O1101 C1088 1.058 . S
C1102 O1091 1.260 . S
C1102 O1092 1.258 . S
C1103 O1099 1.260 . S
C1103 O1100 1.258 . S
Zn1104 O1110 1.969 . S
Zn1104 O1111 1.965 . S
Zn1104 O1115 2.024 . S
Zn1104 O1120 1.969 . S
Zn1105 O1112 1.969 . S
Zn1105 O1118 1.969 . S
Zn1105 O1119 1.965 . S
Zn1105 O1121 2.024 . S
C1106 O1107 1.229 . S
C1106 O1115 1.058 . S
O1107 C1106 1.229 . S
C1108 O1109 1.229 . S
C1108 O1121 1.058 . S
O1109 C1108 1.229 . S
O1110 Zn1104 1.969 . S
O1110 C1113 1.267 . S
O1111 Zn1104 1.965 . S
O1111 C1122 1.260 . S
O1112 Zn1105 1.969 . S
O1112 C1122 1.258 . S
C1113 O1110 1.267 . S
C1113 O1114 1.228 . S
O1114 C1113 1.228 . S
O1115 Zn1104 2.024 . S
O1115 C1106 1.058 . S
C1116 O1117 1.228 . S
C1116 O1118 1.267 . S
O1117 C1116 1.228 . S
O1118 Zn1105 1.969 . S
O1118 C1116 1.267 . S
O1119 Zn1105 1.965 . S
O1119 C1123 1.260 . S
O1120 Zn1104 1.969 . S
O1120 C1123 1.258 . S
O1121 Zn1105 2.024 . S
O1121 C1108 1.058 . S
C1122 O1111 1.260 . S
C1122 O1112 1.258 . S
C1123 O1119 1.260 . S
C1123 O1120 1.258 . S
Zn1124 O1130 1.969 . S
Zn1124 O1131 1.965 . S
Zn1124 O1135 2.024 . S
Zn1124 O1140 1.969 . S
Zn1125 O1132 1.969 . S
Zn1125 O1138 1.969 . S
Zn1125 O1139 1.965 . S
Zn1125 O1141 2.024 . S
C1126 O1127 1.229 . S
C1126 O1135 1.058 . S
O1127 C1126 1.229 . S
C1128 O1129 1.229 . S
C1128 O1141 1.058 . S
O1129 C1128 1.229 . S
O1130 Zn1124 1.969 . S
O1130 C1133 1.267 . S
O1131 Zn1124 1.965 . S
O1131 C1142 1.260 . S
O1132 Zn1125 1.969 . S
O1132 C1142 1.258 . S
C1133 O1130 1.267 . S
C1133 O1134 1.228 . S
O1134 C1133 1.228 . S
O1135 Zn1124 2.024 . S
O1135 C1126 1.058 . S
C1136 O1137 1.228 . S
C1136 O1138 1.267 . S
O1137 C1136 1.228 . S
O1138 Zn1125 1.969 . S
O1138 C1136 1.267 . S
O1139 Zn1125 1.965 . S
O1139 C1143 1.260 . S
O1140 Zn1124 1.969 . S
O1140 C1143 1.258 . S
O1141 Zn1125 2.024 . S
O1141 C1128 1.058 . S
C1142 O1131 1.260 . S
C1142 O1132 1.258 . S
C1143 O1139 1.260 . S
C1143 O1140 1.258 . S
Zn1144 O1150 1.969 . S
Zn1144 O1151 1.965 . S
Zn1144 O1155 2.024 . S
Zn1144 O1160 1.969 . S
Zn1145 O1152 1.969 . S
Zn1145 O1158 1.969 . S
Zn1145 O1159 1.965 . S
Zn1145 O1161 2.024 . S
C1146 O1147 1.229 . S
C1146 O1155 1.058 . S
O1147 C1146 1.229 . S
C1148 O1149 1.229 . S
C1148 O1161 1.058 . S
O1149 C1148 1.229 . S
O1150 Zn1144 1.969 . S
O1150 C1153 1.267 . S
O1151 Zn1144 1.965 . S
O1151 C1162 1.260 . S
O1152 Zn1145 1.969 . S
O1152 C1162 1.258 . S
C1153 O1150 1.267 . S
C1153 O1154 1.228 . S
O1154 C1153 1.228 . S
O1155 Zn1144 2.024 . S
O1155 C1146 1.058 . S
C1156 O1157 1.228 . S
C1156 O1158 1.267 . S
O1157 C1156 1.228 . S
O1158 Zn1145 1.969 . S
O1158 C1156 1.267 . S
O1159 Zn1145 1.965 . S
O1159 C1163 1.260 . S
O1160 Zn1144 1.969 . S
O1160 C1163 1.258 . S
O1161 Zn1145 2.024 . S
O1161 C1148 1.058 . S
C1162 O1151 1.260 . S
C1162 O1152 1.258 . S
C1163 O1159 1.260 . S
C1163 O1160 1.258 . S
Zn1164 O1170 1.969 . S
Zn1164 O1171 1.965 . S
Zn1164 O1175 2.024 1_655 S
Zn1164 O1180 1.969 1_655 S
Zn1165 O1172 1.969 1_554 S
Zn1165 O1178 1.974 . S
Zn1165 O1179 1.965 . S
Zn1165 O1181 2.024 . S
C1166 O1167 1.229 . S
C1166 O1175 1.058 . S
O1167 C1166 1.229 . S
C1168 O1169 1.229 . S
C1168 O1181 1.058 1_556 S
O1169 C1168 1.229 . S
O1170 Zn1164 1.969 . S
O1170 C1173 1.267 . S
O1171 Zn1164 1.965 . S
O1171 C1182 1.260 1_654 S
O1172 Zn1165 1.969 1_556 S
O1172 C1182 1.258 . S
C1173 O1170 1.267 . S
C1173 O1174 1.228 . S
O1174 C1173 1.228 . S
O1175 Zn1164 2.024 1_455 S
O1175 C1166 1.058 . S
C1176 O1177 1.228 . S
C1176 O1178 1.275 . S
O1177 C1176 1.228 . S
O1178 Zn1165 1.974 . S
O1178 C1176 1.275 . S
O1179 Zn1165 1.965 . S
O1179 C1183 1.260 . S
O1180 Zn1164 1.969 1_455 S
O1180 C1183 1.258 . S
O1181 Zn1165 2.024 . S
O1181 C1168 1.058 1_554 S
C1182 O1171 1.260 1_456 S
C1182 O1172 1.258 . S
C1183 O1179 1.260 . S
C1183 O1180 1.258 . S
H1184 C1190 0.930 . S
H1185 C1194 0.930 . S
H1186 C1199 0.929 . S
H1187 C1197 0.929 . S
H1188 C1192 0.929 . S
H1189 C1198 0.929 . S
C1190 H1184 0.930 . S
C1190 C1191 1.367 1_455 S
C1190 C1198 1.378 . S
C1191 C1190 1.367 1_655 S
C1191 C1199 1.433 . S
C1192 H1188 0.929 . S
C1192 C1194 1.378 1_556 S
C1192 C1196 1.350 1_655 S
C1193 C1196 1.463 . S
C1193 C1198 1.350 . S
C1193 N1201 1.427 1_455 S
C1194 H1185 0.930 . S
C1194 C1192 1.378 1_554 S
C1194 C1195 1.367 1_654 S
C1195 C1194 1.367 1_456 S
C1195 C1197 1.433 . S
C1196 C1192 1.350 1_455 S
C1196 C1193 1.463 . S
C1196 N1200 1.427 . S
C1197 H1187 0.929 . S
C1197 C1195 1.433 . S
C1197 N1200 1.384 . S
C1198 H1189 0.929 . S
C1198 C1190 1.378 . S
C1198 C1193 1.350 . S
C1199 H1186 0.929 . S
C1199 C1191 1.433 . S
C1199 N1201 1.384 . S
N1200 C1196 1.427 . S
N1200 C1197 1.384 . S
N1201 C1193 1.427 1_655 S
N1201 C1199 1.384 . S
H1202 C1208 0.930 . S
H1203 C1212 0.930 . S
H1204 C1217 0.929 . S
H1205 C1215 0.929 . S
H1206 C1210 0.929 . S
H1207 C1216 0.929 . S
C1208 H1202 0.930 . S
C1208 C1209 1.367 . S
C1208 C1216 1.378 . S
C1209 C1208 1.367 . S
C1209 C1217 1.433 . S
C1210 H1206 0.929 . S
C1210 C1212 1.378 . S
C1210 C1214 1.350 . S
C1211 C1214 1.463 . S
C1211 C1216 1.350 . S
C1211 N1219 1.427 . S
C1212 H1203 0.930 . S
C1212 C1210 1.378 . S
C1212 C1213 1.367 . S
C1213 C1212 1.367 . S
C1213 C1215 1.433 . S
C1214 C1210 1.350 . S
C1214 C1211 1.463 . S
C1214 N1218 1.427 . S
C1215 H1205 0.929 . S
C1215 C1213 1.433 . S
C1215 N1218 1.384 . S
C1216 H1207 0.929 . S
C1216 C1208 1.378 . S
C1216 C1211 1.350 . S
C1217 H1204 0.929 . S
C1217 C1209 1.433 . S
C1217 N1219 1.384 . S
N1218 C1214 1.427 . S
N1218 C1215 1.384 . S
N1219 C1211 1.427 . S
N1219 C1217 1.384 . S
H1220 C1226 0.930 . S
H1221 C1230 0.930 . S
H1222 C1235 0.929 . S
H1223 C1233 0.929 . S
H1224 C1228 0.929 . S
H1225 C1234 0.929 . S
C1226 H1220 0.930 . S
C1226 C1227 1.367 . S
C1226 C1234 1.378 . S
C1227 C1226 1.367 . S
C1227 C1235 1.433 . S
C1228 H1224 0.929 . S
C1228 C1230 1.378 . S
C1228 C1232 1.350 . S
C1229 C1232 1.463 . S
C1229 C1234 1.350 . S
C1229 N1237 1.427 . S
C1230 H1221 0.930 . S
C1230 C1228 1.378 . S
C1230 C1231 1.367 . S
C1231 C1230 1.367 . S
C1231 C1233 1.433 . S
C1232 C1228 1.350 . S
C1232 C1229 1.463 . S
C1232 N1236 1.427 . S
C1233 H1223 0.929 . S
C1233 C1231 1.433 . S
C1233 N1236 1.384 . S
C1234 H1225 0.929 . S
C1234 C1226 1.378 . S
C1234 C1229 1.350 . S
C1235 H1222 0.929 . S
C1235 C1227 1.433 . S
C1235 N1237 1.384 . S
N1236 C1232 1.427 . S
N1236 C1233 1.384 . S
N1237 C1229 1.427 . S
N1237 C1235 1.384 . S
H1238 C1244 0.930 . S
H1239 C1248 0.930 . S
H1240 C1253 0.929 . S
H1241 C1251 0.929 . S
H1242 C1246 0.929 . S
H1243 C1252 0.929 . S
C1244 H1238 0.930 . S
C1244 C1245 1.367 . S
C1244 C1252 1.378 . S
C1245 C1244 1.367 . S
C1245 C1253 1.433 . S
C1246 H1242 0.929 . S
C1246 C1248 1.378 . S
C1246 C1250 1.350 . S
C1247 C1250 1.463 . S
C1247 C1252 1.350 . S
C1247 N1255 1.427 . S
C1248 H1239 0.930 . S
C1248 C1246 1.378 . S
C1248 C1249 1.367 . S
C1249 C1248 1.367 . S
C1249 C1251 1.433 . S
C1250 C1246 1.350 . S
C1250 C1247 1.463 . S
C1250 N1254 1.427 . S
C1251 H1241 0.929 . S
C1251 C1249 1.433 . S
C1251 N1254 1.384 . S
C1252 H1243 0.929 . S
C1252 C1244 1.378 . S
C1252 C1247 1.350 . S
C1253 H1240 0.929 . S
C1253 C1245 1.433 . S
C1253 N1255 1.384 . S
N1254 C1250 1.427 . S
N1254 C1251 1.384 . S
N1255 C1247 1.427 . S
N1255 C1253 1.384 . S
H1256 C1262 0.930 . S
H1257 C1266 0.930 . S
H1258 C1271 0.929 . S
H1259 C1269 0.929 . S
H1260 C1264 0.929 . S
H1261 C1270 0.929 . S
C1262 H1256 0.930 . S
C1262 C1263 1.367 . S
C1262 C1270 1.378 . S
C1263 C1262 1.367 . S
C1263 C1271 1.433 . S
C1264 H1260 0.929 . S
C1264 C1266 1.378 . S
C1264 C1268 1.350 . S
C1265 C1268 1.463 . S
C1265 C1270 1.350 . S
C1265 N1273 1.427 . S
C1266 H1257 0.930 . S
C1266 C1264 1.378 . S
C1266 C1267 1.367 . S
C1267 C1266 1.367 . S
C1267 C1269 1.433 . S
C1268 C1264 1.350 . S
C1268 C1265 1.463 . S
C1268 N1272 1.427 . S
C1269 H1259 0.929 . S
C1269 C1267 1.433 . S
C1269 N1272 1.384 . S
C1270 H1261 0.929 . S
C1270 C1262 1.378 . S
C1270 C1265 1.350 . S
C1271 H1258 0.929 . S
C1271 C1263 1.433 . S
C1271 N1273 1.384 . S
N1272 C1268 1.427 . S
N1272 C1269 1.384 . S
N1273 C1265 1.427 . S
N1273 C1271 1.384 . S
H1274 C1280 0.930 . S
H1275 C1284 0.930 . S
H1276 C1289 0.929 . S
H1277 C1287 0.929 . S
H1278 C1282 0.929 . S
H1279 C1288 0.929 . S
C1280 H1274 0.930 . S
C1280 C1281 1.367 . S
C1280 C1288 1.378 . S
C1281 C1280 1.367 . S
C1281 C1289 1.433 . S
C1282 H1278 0.929 . S
C1282 C1284 1.378 . S
C1282 C1286 1.350 . S
C1283 C1286 1.463 . S
C1283 C1288 1.350 . S
C1283 N1291 1.427 . S
C1284 H1275 0.930 . S
C1284 C1282 1.378 . S
C1284 C1285 1.367 . S
C1285 C1284 1.367 . S
C1285 C1287 1.433 . S
C1286 C1282 1.350 . S
C1286 C1283 1.463 . S
C1286 N1290 1.427 . S
C1287 H1277 0.929 . S
C1287 C1285 1.433 . S
C1287 N1290 1.384 . S
C1288 H1279 0.929 . S
C1288 C1280 1.378 . S
C1288 C1283 1.350 . S
C1289 H1276 0.929 . S
C1289 C1281 1.433 . S
C1289 N1291 1.384 . S
N1290 C1286 1.427 . S
N1290 C1287 1.384 . S
N1291 C1283 1.427 . S
N1291 C1289 1.384 . S
H1292 C1298 0.930 . S
H1293 C1302 0.930 . S
H1294 C1307 0.929 . S
H1295 C1305 0.929 . S
H1296 C1300 0.929 . S
H1297 C1306 0.929 . S
C1298 H1292 0.930 . S
C1298 C1299 1.367 . S
C1298 C1306 1.378 . S
C1299 C1298 1.367 . S
C1299 C1307 1.433 . S
C1300 H1296 0.929 . S
C1300 C1302 1.378 . S
C1300 C1304 1.350 . S
C1301 C1304 1.463 . S
C1301 C1306 1.350 . S
C1301 N1309 1.427 . S
C1302 H1293 0.930 . S
C1302 C1300 1.378 . S
C1302 C1303 1.367 . S
C1303 C1302 1.367 . S
C1303 C1305 1.433 . S
C1304 C1300 1.350 . S
C1304 C1301 1.463 . S
C1304 N1308 1.427 . S
C1305 H1295 0.929 . S
C1305 C1303 1.433 . S
C1305 N1308 1.384 . S
C1306 H1297 0.929 . S
C1306 C1298 1.378 . S
C1306 C1301 1.350 . S
C1307 H1294 0.929 . S
C1307 C1299 1.433 . S
C1307 N1309 1.384 . S
N1308 C1304 1.427 . S
N1308 C1305 1.384 . S
N1309 C1301 1.427 . S
N1309 C1307 1.384 . S
H1310 C1316 0.930 . S
H1311 C1320 0.930 . S
H1312 C1325 0.929 . S
H1313 C1323 0.929 . S
H1314 C1318 0.929 . S
H1315 C1324 0.929 . S
C1316 H1310 0.930 . S
C1316 C1317 1.367 . S
C1316 C1324 1.378 . S
C1317 C1316 1.367 . S
C1317 C1325 1.433 . S
C1318 H1314 0.929 . S
C1318 C1320 1.378 . S
C1318 C1322 1.350 . S
C1319 C1322 1.463 . S
C1319 C1324 1.350 . S
C1319 N1327 1.427 . S
C1320 H1311 0.930 . S
C1320 C1318 1.378 . S
C1320 C1321 1.367 . S
C1321 C1320 1.367 . S
C1321 C1323 1.433 . S
C1322 C1318 1.350 . S
C1322 C1319 1.463 . S
C1322 N1326 1.427 . S
C1323 H1313 0.929 . S
C1323 C1321 1.433 . S
C1323 N1326 1.384 . S
C1324 H1315 0.929 . S
C1324 C1316 1.378 . S
C1324 C1319 1.350 . S
C1325 H1312 0.929 . S
C1325 C1317 1.433 . S
C1325 N1327 1.384 . S
N1326 C1322 1.427 . S
N1326 C1323 1.384 . S
N1327 C1319 1.427 . S
N1327 C1325 1.384 . S
H1328 C1334 0.930 . S
H1329 C1338 0.930 . S
H1330 C1343 0.929 . S
H1331 C1341 0.929 . S
H1332 C1336 0.929 . S
H1333 C1342 0.929 . S
C1334 H1328 0.930 . S
C1334 C1335 1.367 . S
C1334 C1342 1.378 . S
C1335 C1334 1.367 . S
C1335 C1343 1.433 1_545 S
C1336 H1332 0.929 . S
C1336 C1338 1.378 . S
C1336 C1340 1.350 1_565 S
C1337 C1340 1.463 . S
C1337 C1342 1.350 . S
C1337 N1345 1.427 1_545 S
C1338 H1329 0.930 . S
C1338 C1336 1.378 . S
C1338 C1339 1.367 1_565 S
C1339 C1338 1.367 1_545 S
C1339 C1341 1.433 1_655 S
C1340 C1336 1.350 1_545 S
C1340 C1337 1.463 . S
C1340 N1344 1.427 . S
C1341 H1331 0.929 . S
C1341 C1339 1.433 1_455 S
C1341 N1344 1.384 1_455 S
C1342 H1333 0.929 . S
C1342 C1334 1.378 . S
C1342 C1337 1.350 . S
C1343 H1330 0.929 . S
C1343 C1335 1.433 1_565 S
C1343 N1345 1.384 . S
N1344 C1340 1.427 . S
N1344 C1341 1.384 1_655 S
N1345 C1337 1.427 1_565 S
N1345 C1343 1.384 . S
H1346 C1352 0.930 . S
H1347 C1356 0.930 . S
H1348 C1361 0.929 . S
H1349 C1359 0.929 . S
H1350 C1354 0.929 . S
H1351 C1360 0.929 . S
C1352 H1346 0.930 . S
C1352 C1353 1.367 . S
C1352 C1360 1.378 . S
C1353 C1352 1.367 . S
C1353 C1361 1.433 . S
C1354 H1350 0.929 . S
C1354 C1356 1.378 . S
C1354 C1358 1.350 . S
C1355 C1358 1.463 . S
C1355 C1360 1.350 . S
C1355 N1363 1.427 . S
C1356 H1347 0.930 . S
C1356 C1354 1.378 . S
C1356 C1357 1.367 . S
C1357 C1356 1.367 . S
C1357 C1359 1.433 . S
C1358 C1354 1.350 . S
C1358 C1355 1.463 . S
C1358 N1362 1.427 . S
C1359 H1349 0.929 . S
C1359 C1357 1.433 . S
C1359 N1362 1.384 . S
C1360 H1351 0.929 . S
C1360 C1352 1.378 . S
C1360 C1355 1.350 . S
C1361 H1348 0.929 . S
C1361 C1353 1.433 . S
C1361 N1363 1.384 . S
N1362 C1358 1.427 . S
N1362 C1359 1.384 . S
N1363 C1355 1.427 . S
N1363 C1361 1.384 . S
H1364 C1370 0.930 . S
H1365 C1374 0.930 . S
H1366 C1379 0.929 . S
H1367 C1377 0.929 . S
H1368 C1372 0.929 . S
H1369 C1378 0.929 . S
C1370 H1364 0.930 . S
C1370 C1371 1.367 1_545 S
C1370 C1378 1.378 . S
C1371 C1370 1.367 1_565 S
C1371 C1379 1.433 . S
C1372 H1368 0.929 . S
C1372 C1374 1.378 . S
C1372 C1376 1.350 1_565 S
C1373 C1376 1.472 . S
C1373 C1378 1.370 . S
C1373 N1381 1.398 1_545 S
C1374 H1365 0.930 . S
C1374 C1372 1.378 . S
C1374 C1375 1.367 1_565 S
C1375 C1374 1.367 1_545 S
C1375 C1377 1.433 . S
C1376 C1372 1.350 1_545 S
C1376 C1373 1.472 . S
C1376 N1380 1.427 . S
C1377 H1367 0.929 . S
C1377 C1375 1.433 . S
C1377 N1380 1.384 . S
C1378 H1369 0.929 . S
C1378 C1370 1.378 . S
C1378 C1373 1.370 . S
C1379 H1366 0.929 . S
C1379 C1371 1.433 . S
C1379 N1381 1.384 . S
N1380 C1376 1.427 . S
N1380 C1377 1.384 . S
N1381 C1373 1.398 1_565 S
N1381 C1379 1.384 . S
H1382 C1388 0.930 . S
H1383 C1392 0.930 . S
H1384 C1397 0.929 . S
H1385 C1395 0.929 . S
H1386 C1390 0.929 . S
H1387 C1396 0.929 . S
C1388 H1382 0.930 . S
C1388 C1389 1.367 . S
C1388 C1396 1.378 . S
C1389 C1388 1.367 . S
C1389 C1397 1.433 . S
C1390 H1386 0.929 . S
C1390 C1392 1.378 . S
C1390 C1394 1.350 . S
C1391 C1394 1.463 . S
C1391 C1396 1.350 . S
C1391 N1399 1.427 . S
C1392 H1383 0.930 . S
C1392 C1390 1.378 . S
C1392 C1393 1.367 . S
C1393 C1392 1.367 . S
C1393 C1395 1.433 . S
C1394 C1390 1.350 . S
C1394 C1391 1.463 . S
C1394 N1398 1.427 . S
C1395 H1385 0.929 . S
C1395 C1393 1.433 . S
C1395 N1398 1.384 . S
C1396 H1387 0.929 . S
C1396 C1388 1.378 . S
C1396 C1391 1.350 . S
C1397 H1384 0.929 . S
C1397 C1389 1.433 . S
C1397 N1399 1.384 . S
N1398 C1394 1.427 . S
N1398 C1395 1.384 . S
N1399 C1391 1.427 . S
N1399 C1397 1.384 . S
H1400 C1406 0.930 . S
H1401 C1410 0.930 . S
H1402 C1415 0.929 . S
H1403 C1413 0.938 1_455 S
H1404 C1408 0.929 . S
H1405 C1414 0.929 . S
C1406 H1400 0.930 . S
C1406 C1407 1.367 . S
C1406 C1414 1.378 . S
C1407 C1406 1.367 . S
C1407 C1415 1.433 . S
C1408 H1404 0.929 . S
C1408 C1410 1.378 . S
C1408 C1412 1.350 . S
C1409 C1412 1.463 . S
C1409 C1414 1.350 . S
C1409 N1417 1.427 . S
C1410 H1401 0.930 . S
C1410 C1408 1.378 . S
C1410 C1411 1.367 . S
C1411 C1410 1.367 . S
C1411 C1413 1.433 . S
C1412 C1408 1.350 . S
C1412 C1409 1.463 . S
C1412 N1416 1.427 . S
C1413 H1403 0.938 1_655 S
C1413 C1411 1.433 . S
C1413 N1416 1.384 . S
C1414 H1405 0.929 . S
C1414 C1406 1.378 . S
C1414 C1409 1.350 . S
C1415 H1402 0.929 . S
C1415 C1407 1.433 . S
C1415 N1417 1.384 . S
N1416 C1412 1.427 . S
N1416 C1413 1.384 . S
N1417 C1409 1.427 . S
N1417 C1415 1.384 . S
H1418 C1424 0.930 . S
H1419 C1428 0.930 . S
H1420 C1433 0.929 . S
H1421 C1431 0.929 . S
H1422 C1426 0.929 . S
H1423 C1432 0.929 . S
C1424 H1418 0.930 . S
C1424 C1425 1.367 . S
C1424 C1432 1.378 . S
C1425 C1424 1.367 . S
C1425 C1433 1.433 . S
C1426 H1422 0.929 . S
C1426 C1428 1.378 . S
C1426 C1430 1.350 . S
C1427 C1430 1.463 . S
C1427 C1432 1.350 . S
C1427 N1435 1.427 . S
C1428 H1419 0.930 . S
C1428 C1426 1.378 . S
C1428 C1429 1.367 . S
C1429 C1428 1.367 . S
C1429 C1431 1.433 . S
C1430 C1426 1.350 . S
C1430 C1427 1.463 . S
C1430 N1434 1.427 . S
C1431 H1421 0.929 . S
C1431 C1429 1.433 . S
C1431 N1434 1.384 . S
C1432 H1423 0.929 . S
C1432 C1424 1.378 . S
C1432 C1427 1.350 . S
C1433 H1420 0.929 . S
C1433 C1425 1.433 . S
C1433 N1435 1.384 . S
N1434 C1430 1.427 . S
N1434 C1431 1.384 . S
N1435 C1427 1.427 . S
N1435 C1433 1.384 . S
H1436 C1442 0.930 . S
H1437 C1446 0.930 . S
H1438 C1451 0.929 . S
H1439 C1449 0.896 1_565 S
H1440 C1444 0.929 . S
H1441 C1450 0.929 . S
C1442 H1436 0.930 . S
C1442 C1443 1.340 1_565 S
C1442 C1450 1.378 . S
C1443 C1442 1.340 1_545 S
C1443 C1451 1.468 . S
C1444 H1440 0.929 . S
C1444 C1446 1.378 . S
C1444 C1448 1.350 . S
C1445 C1448 1.463 . S
C1445 C1450 1.350 1_545 S
C1445 N1453 1.427 . S
C1446 H1437 0.930 . S
C1446 C1444 1.378 . S
C1446 C1447 1.367 . S
C1447 C1446 1.367 . S
C1447 C1449 1.477 . S
C1448 C1444 1.350 . S
C1448 C1445 1.463 . S
C1448 N1452 1.427 1_545 S
C1449 H1439 0.896 1_545 S
C1449 C1447 1.477 . S
C1449 N1452 1.376 1_545 S
C1450 H1441 0.929 . S
C1450 C1442 1.378 . S
C1450 C1445 1.350 1_565 S
C1451 H1438 0.929 . S
C1451 C1443 1.468 . S
C1451 N1453 1.384 . S
N1452 C1448 1.427 1_565 S
N1452 C1449 1.376 1_565 S
N1453 C1445 1.427 . S
N1453 C1451 1.384 . S
H1454 C1460 0.930 . S
H1455 C1464 0.930 . S
H1456 C1469 0.929 . S
H1457 C1467 0.929 . S
H1458 C1462 0.929 . S
H1459 C1468 0.929 . S
C1460 H1454 0.930 . S
C1460 C1461 1.367 . S
C1460 C1468 1.378 . S
C1461 C1460 1.367 . S
C1461 C1469 1.433 . S
C1462 H1458 0.929 . S
C1462 C1464 1.378 . S
C1462 C1466 1.350 . S
C1463 C1466 1.463 . S
C1463 C1468 1.350 . S
C1463 N1471 1.427 . S
C1464 H1455 0.930 . S
C1464 C1462 1.378 . S
C1464 C1465 1.367 . S
C1465 C1464 1.367 . S
C1465 C1467 1.433 . S
C1466 C1462 1.350 . S
C1466 C1463 1.463 . S
C1466 N1470 1.427 . S
C1467 H1457 0.929 . S
C1467 C1465 1.433 . S
C1467 N1470 1.384 . S
C1468 H1459 0.929 . S
C1468 C1460 1.378 . S
C1468 C1463 1.350 . S
C1469 H1456 0.929 . S
C1469 C1461 1.433 . S
C1469 N1471 1.384 . S
N1470 C1466 1.427 . S
N1470 C1467 1.384 . S
N1471 C1463 1.427 . S
N1471 C1469 1.384 . S
H1472 C1478 0.930 . S
H1473 C1482 0.930 1_556 S
H1474 C1487 0.929 . S
H1475 C1485 0.929 . S
H1476 C1480 0.929 1_556 S
H1477 C1486 0.929 . S
C1478 H1472 0.930 . S
C1478 C1479 1.367 . S
C1478 C1486 1.378 . S
C1479 C1478 1.367 . S
C1479 C1487 1.433 1_554 S
C1480 H1476 0.929 1_554 S
C1480 C1482 1.378 . S
C1480 C1484 1.350 . S
C1481 C1484 1.463 . S
C1481 C1486 1.350 . S
C1481 N1489 1.420 1_554 S
C1482 H1473 0.930 1_554 S
C1482 C1480 1.378 . S
C1482 C1483 1.367 . S
C1483 C1482 1.367 . S
C1483 C1485 1.433 . S
C1484 C1480 1.350 . S
C1484 C1481 1.463 . S
C1484 N1488 1.427 . S
C1485 H1475 0.929 . S
C1485 C1483 1.433 . S
C1485 N1488 1.384 . S
C1486 H1477 0.929 . S
C1486 C1478 1.378 . S
C1486 C1481 1.350 . S
C1487 H1474 0.929 . S
C1487 C1479 1.433 1_556 S
C1487 N1489 1.385 . S
N1488 C1484 1.427 . S
N1488 C1485 1.384 . S
N1489 C1481 1.420 1_556 S
N1489 C1487 1.385 . S
H1490 C1496 0.930 . S
H1491 C1500 0.930 . S
H1492 C1505 0.929 . S
H1493 C1503 0.929 . S
H1494 C1498 0.929 . S
H1495 C1504 0.929 . S
C1496 H1490 0.930 . S
C1496 C1497 1.367 1_554 S
C1496 C1504 1.378 . S
C1497 C1496 1.367 1_556 S
C1497 C1505 1.433 . S
C1498 H1494 0.929 . S
C1498 C1500 1.378 . S
C1498 C1502 1.350 1_556 S
C1499 C1502 1.463 . S
C1499 C1504 1.350 . S
C1499 N1507 1.427 1_554 S
C1500 H1491 0.930 . S
C1500 C1498 1.378 . S
C1500 C1501 1.367 1_556 S
C1501 C1500 1.367 1_554 S
C1501 C1503 1.433 . S
C1502 C1498 1.350 1_554 S
C1502 C1499 1.463 . S
C1502 N1506 1.427 . S
C1503 H1493 0.929 . S
C1503 C1501 1.433 . S
C1503 N1506 1.384 . S
C1504 H1495 0.929 . S
C1504 C1496 1.378 . S
C1504 C1499 1.350 . S
C1505 H1492 0.929 . S
C1505 C1497 1.433 . S
C1505 N1507 1.384 . S
N1506 C1502 1.427 . S
N1506 C1503 1.384 . S
N1507 C1499 1.427 1_556 S
N1507 C1505 1.384 . S
H1508 C1514 0.930 . S
H1509 C1518 0.930 . S
H1510 C1523 0.929 . S
H1511 C1521 0.929 . S
H1512 C1516 0.929 . S
H1513 C1522 0.929 . S
C1514 H1508 0.930 . S
C1514 C1515 1.367 . S
C1514 C1522 1.378 . S
C1515 C1514 1.367 . S
C1515 C1523 1.433 . S
C1516 H1512 0.929 . S
C1516 C1518 1.378 . S
C1516 C1520 1.350 . S
C1517 C1520 1.463 . S
C1517 C1522 1.350 . S
C1517 N1525 1.427 . S
C1518 H1509 0.930 . S
C1518 C1516 1.378 . S
C1518 C1519 1.367 . S
C1519 C1518 1.367 . S
C1519 C1521 1.433 . S
C1520 C1516 1.350 . S
C1520 C1517 1.463 . S
C1520 N1524 1.427 . S
C1521 H1511 0.929 . S
C1521 C1519 1.433 . S
C1521 N1524 1.384 . S
C1522 H1513 0.929 . S
C1522 C1514 1.378 . S
C1522 C1517 1.350 . S
C1523 H1510 0.929 . S
C1523 C1515 1.433 . S
C1523 N1525 1.384 . S
N1524 C1520 1.427 . S
N1524 C1521 1.384 . S
N1525 C1517 1.427 . S
N1525 C1523 1.384 . S
H1526 C1532 0.930 . S
H1527 C1536 0.930 . S
H1528 C1541 0.929 . S
H1529 C1539 0.929 . S
H1530 C1534 0.929 . S
H1531 C1540 0.929 . S
C1532 H1526 0.930 . S
C1532 C1533 1.367 . S
C1532 C1540 1.378 . S
C1533 C1532 1.367 . S
C1533 C1541 1.433 . S
C1534 H1530 0.929 . S
C1534 C1536 1.378 . S
C1534 C1538 1.350 . S
C1535 C1538 1.463 . S
C1535 C1540 1.350 . S
C1535 N1543 1.427 . S
C1536 H1527 0.930 . S
C1536 C1534 1.378 . S
C1536 C1537 1.367 . S
C1537 C1536 1.367 . S
C1537 C1539 1.433 . S
C1538 C1534 1.350 . S
C1538 C1535 1.463 . S
C1538 N1542 1.427 . S
C1539 H1529 0.929 . S
C1539 C1537 1.433 . S
C1539 N1542 1.384 . S
C1540 H1531 0.929 . S
C1540 C1532 1.378 . S
C1540 C1535 1.350 . S
C1541 H1528 0.929 . S
C1541 C1533 1.433 . S
C1541 N1543 1.384 . S
N1542 C1538 1.427 . S
N1542 C1539 1.384 . S
N1543 C1535 1.427 . S
N1543 C1541 1.384 . S
H1544 C1550 0.930 . S
H1545 C1554 0.930 . S
H1546 C1559 0.929 . S
H1547 C1557 0.929 . S
H1548 C1552 0.929 . S
H1549 C1558 0.929 . S
C1550 H1544 0.930 . S
C1550 C1551 1.367 . S
C1550 C1558 1.378 . S
C1551 C1550 1.367 . S
C1551 C1559 1.433 . S
C1552 H1548 0.929 . S
C1552 C1554 1.378 . S
C1552 C1556 1.350 . S
C1553 C1556 1.463 . S
C1553 C1558 1.350 . S
C1553 N1561 1.427 . S
C1554 H1545 0.930 . S
C1554 C1552 1.378 . S
C1554 C1555 1.367 . S
C1555 C1554 1.367 . S
C1555 C1557 1.433 . S
C1556 C1552 1.350 . S
C1556 C1553 1.463 . S
C1556 N1560 1.427 . S
C1557 H1547 0.929 . S
C1557 C1555 1.433 . S
C1557 N1560 1.384 . S
C1558 H1549 0.929 . S
C1558 C1550 1.378 . S
C1558 C1553 1.350 . S
C1559 H1546 0.929 . S
C1559 C1551 1.433 . S
C1559 N1561 1.384 . S
N1560 C1556 1.427 . S
N1560 C1557 1.384 . S
N1561 C1553 1.427 . S
N1561 C1559 1.384 . S
H1562 C1568 0.930 . S
H1563 C1572 0.930 . S
H1564 C1577 0.929 . S
H1565 C1575 0.929 . S
H1566 C1570 0.929 . S
H1567 C1576 0.929 . S
C1568 H1562 0.930 . S
C1568 C1569 1.367 . S
C1568 C1576 1.378 . S
C1569 C1568 1.367 . S
C1569 C1577 1.433 . S
C1570 H1566 0.929 . S
C1570 C1572 1.378 . S
C1570 C1574 1.350 . S
C1571 C1574 1.463 . S
C1571 C1576 1.350 . S
C1571 N1579 1.427 . S
C1572 H1563 0.930 . S
C1572 C1570 1.378 . S
C1572 C1573 1.367 . S
C1573 C1572 1.367 . S
C1573 C1575 1.433 . S
C1574 C1570 1.350 . S
C1574 C1571 1.463 . S
C1574 N1578 1.427 . S
C1575 H1565 0.929 . S
C1575 C1573 1.433 . S
C1575 N1578 1.384 . S
C1576 H1567 0.929 . S
C1576 C1568 1.378 . S
C1576 C1571 1.350 . S
C1577 H1564 0.929 . S
C1577 C1569 1.433 . S
C1577 N1579 1.384 . S
N1578 C1574 1.427 . S
N1578 C1575 1.384 . S
N1579 C1571 1.427 . S
N1579 C1577 1.384 . S
H1580 C1586 0.930 . S
H1581 C1590 0.930 . S
H1582 C1595 0.929 . S
H1583 C1593 0.929 . S
H1584 C1588 0.929 . S
H1585 C1594 0.929 . S
C1586 H1580 0.930 . S
C1586 C1587 1.367 . S
C1586 C1594 1.378 . S
C1587 C1586 1.367 . S
C1587 C1595 1.433 . S
C1588 H1584 0.929 . S
C1588 C1590 1.378 . S
C1588 C1592 1.350 . S
C1589 C1592 1.463 . S
C1589 C1594 1.350 . S
C1589 N1597 1.427 . S
C1590 H1581 0.930 . S
C1590 C1588 1.378 . S
C1590 C1591 1.367 . S
C1591 C1590 1.367 . S
C1591 C1593 1.433 . S
C1592 C1588 1.350 . S
C1592 C1589 1.463 . S
C1592 N1596 1.427 . S
C1593 H1583 0.929 . S
C1593 C1591 1.433 . S
C1593 N1596 1.384 . S
C1594 H1585 0.929 . S
C1594 C1586 1.378 . S
C1594 C1589 1.350 . S
C1595 H1582 0.929 . S
C1595 C1587 1.433 . S
C1595 N1597 1.384 . S
N1596 C1592 1.427 . S
N1596 C1593 1.384 . S
N1597 C1589 1.427 . S
N1597 C1595 1.384 . S
H1598 C1604 0.930 . S
H1599 C1608 0.930 . S
H1600 C1613 0.929 . S
H1601 C1611 0.929 . S
H1602 C1606 0.929 . S
H1603 C1612 0.929 . S
C1604 H1598 0.930 . S
C1604 C1605 1.367 . S
C1604 C1612 1.378 . S
C1605 C1604 1.367 . S
C1605 C1613 1.433 . S
C1606 H1602 0.929 . S
C1606 C1608 1.378 . S
C1606 C1610 1.350 . S
C1607 C1610 1.463 . S
C1607 C1612 1.350 . S
C1607 N1615 1.427 . S
C1608 H1599 0.930 . S
C1608 C1606 1.378 . S
C1608 C1609 1.367 . S
C1609 C1608 1.367 . S
C1609 C1611 1.433 . S
C1610 C1606 1.350 . S
C1610 C1607 1.463 . S
C1610 N1614 1.427 . S
C1611 H1601 0.929 . S
C1611 C1609 1.433 . S
C1611 N1614 1.384 . S
C1612 H1603 0.929 . S
C1612 C1604 1.378 . S
C1612 C1607 1.350 . S
C1613 H1600 0.929 . S
C1613 C1605 1.433 . S
C1613 N1615 1.384 . S
N1614 C1610 1.427 . S
N1614 C1611 1.384 . S
N1615 C1607 1.427 . S
N1615 C1613 1.384 . S
H1616 C1622 0.930 . S
H1617 C1626 0.921 1_655 S
H1618 C1631 0.929 . S
H1619 C1629 0.929 . S
H1620 C1624 0.921 1_655 S
H1621 C1630 0.929 . S
C1622 H1616 0.930 . S
C1622 C1623 1.367 . S
C1622 C1630 1.378 . S
C1623 C1622 1.367 . S
C1623 C1631 1.433 . S
C1624 H1620 0.921 1_455 S
C1624 C1626 1.381 . S
C1624 C1628 1.350 . S
C1625 C1628 1.463 . S
C1625 C1630 1.350 . S
C1625 N1633 1.427 . S
C1626 H1617 0.921 1_455 S
C1626 C1624 1.381 . S
C1626 C1627 1.372 . S
C1627 C1626 1.372 . S
C1627 C1629 1.433 . S
C1628 C1624 1.350 . S
C1628 C1625 1.463 . S
C1628 N1632 1.427 . S
C1629 H1619 0.929 . S
C1629 C1627 1.433 . S
C1629 N1632 1.384 . S
C1630 H1621 0.929 . S
C1630 C1622 1.378 . S
C1630 C1625 1.350 . S
C1631 H1618 0.929 . S
C1631 C1623 1.433 . S
C1631 N1633 1.384 . S
N1632 C1628 1.427 . S
N1632 C1629 1.384 . S
N1633 C1625 1.427 . S
N1633 C1631 1.384 . S
H1634 C1640 0.930 . S
H1635 C1644 0.930 . S
H1636 C1649 0.929 . S
H1637 C1647 0.929 . S
H1638 C1642 0.929 . S
H1639 C1648 0.929 . S
C1640 H1634 0.930 . S
C1640 C1641 1.367 . S
C1640 C1648 1.378 . S
C1641 C1640 1.367 . S
C1641 C1649 1.433 . S
C1642 H1638 0.929 . S
C1642 C1644 1.378 . S
C1642 C1646 1.350 . S
C1643 C1646 1.463 . S
C1643 C1648 1.350 . S
C1643 N1651 1.427 . S
C1644 H1635 0.930 . S
C1644 C1642 1.378 . S
C1644 C1645 1.367 . S
C1645 C1644 1.367 . S
C1645 C1647 1.433 . S
C1646 C1642 1.350 . S
C1646 C1643 1.463 . S
C1646 N1650 1.427 . S
C1647 H1637 0.929 . S
C1647 C1645 1.433 . S
C1647 N1650 1.384 . S
C1648 H1639 0.929 . S
C1648 C1640 1.378 . S
C1648 C1643 1.350 . S
C1649 H1636 0.929 . S
C1649 C1641 1.433 . S
C1649 N1651 1.384 . S
N1650 C1646 1.427 . S
N1650 C1647 1.384 . S
N1651 C1643 1.427 . S
N1651 C1649 1.384 . S
H1652 C1658 0.930 . S
H1653 C1662 0.930 . S
H1654 C1667 0.929 . S
H1655 C1665 0.929 . S
H1656 C1660 0.929 . S
H1657 C1666 0.929 . S
C1658 H1652 0.930 . S
C1658 C1659 1.367 . S
C1658 C1666 1.378 . S
C1659 C1658 1.367 . S
C1659 C1667 1.433 . S
C1660 H1656 0.929 . S
C1660 C1662 1.378 . S
C1660 C1664 1.350 . S
C1661 C1664 1.463 . S
C1661 C1666 1.350 . S
C1661 N1669 1.427 . S
C1662 H1653 0.930 . S
C1662 C1660 1.378 . S
C1662 C1663 1.367 . S
C1663 C1662 1.367 . S
C1663 C1665 1.433 . S
C1664 C1660 1.350 . S
C1664 C1661 1.463 . S
C1664 N1668 1.427 . S
C1665 H1655 0.929 . S
C1665 C1663 1.433 . S
C1665 N1668 1.384 . S
C1666 H1657 0.929 . S
C1666 C1658 1.378 . S
C1666 C1661 1.350 . S
C1667 H1654 0.929 . S
C1667 C1659 1.433 . S
C1667 N1669 1.384 . S
N1668 C1664 1.427 . S
N1668 C1665 1.384 . S
N1669 C1661 1.427 . S
N1669 C1667 1.384 . S
H1670 C1676 0.930 . S
H1671 C1680 0.930 . S
H1672 C1685 0.929 . S
H1673 C1683 0.929 . S
H1674 C1678 0.929 . S
H1675 C1684 0.929 . S
C1676 H1670 0.930 . S
C1676 C1677 1.367 . S
C1676 C1684 1.378 . S
C1677 C1676 1.367 . S
C1677 C1685 1.433 . S
C1678 H1674 0.929 . S
C1678 C1680 1.378 . S
C1678 C1682 1.350 . S
C1679 C1682 1.463 . S
C1679 C1684 1.350 . S
C1679 N1687 1.427 . S
C1680 H1671 0.930 . S
C1680 C1678 1.378 . S
C1680 C1681 1.367 . S
C1681 C1680 1.367 . S
C1681 C1683 1.433 . S
C1682 C1678 1.350 . S
C1682 C1679 1.463 . S
C1682 N1686 1.427 . S
C1683 H1673 0.929 . S
C1683 C1681 1.433 . S
C1683 N1686 1.384 . S
C1684 H1675 0.929 . S
C1684 C1676 1.378 . S
C1684 C1679 1.350 . S
C1685 H1672 0.929 . S
C1685 C1677 1.433 . S
C1685 N1687 1.384 . S
N1686 C1682 1.427 . S
N1686 C1683 1.384 . S
N1687 C1679 1.427 . S
N1687 C1685 1.384 . S
H1688 C1694 0.930 . S
H1689 C1698 0.930 . S
H1690 C1703 0.929 . S
H1691 C1701 0.929 . S
H1692 C1696 0.929 . S
H1693 C1702 0.929 . S
C1694 H1688 0.930 . S
C1694 C1695 1.367 . S
C1694 C1702 1.378 . S
C1695 C1694 1.367 . S
C1695 C1703 1.433 1_455 S
C1696 H1692 0.929 . S
C1696 C1698 1.378 . S
C1696 C1700 1.350 1_655 S
C1697 C1700 1.463 . S
C1697 C1702 1.350 . S
C1697 N1705 1.427 1_455 S
C1698 H1689 0.930 . S
C1698 C1696 1.378 . S
C1698 C1699 1.367 1_655 S
C1699 C1698 1.367 1_455 S
C1699 C1701 1.433 . S
C1700 C1696 1.350 1_455 S
C1700 C1697 1.463 . S
C1700 N1704 1.427 . S
C1701 H1691 0.929 . S
C1701 C1699 1.433 . S
C1701 N1704 1.384 . S
C1702 H1693 0.929 . S
C1702 C1694 1.378 . S
C1702 C1697 1.350 . S
C1703 H1690 0.929 . S
C1703 C1695 1.433 1_655 S
C1703 N1705 1.384 . S
N1704 C1700 1.427 . S
N1704 C1701 1.384 . S
N1705 C1697 1.427 1_655 S
N1705 C1703 1.384 . S
H1706 C1712 0.930 . S
H1707 C1716 0.930 . S
H1708 C1721 0.929 . S
H1709 C1719 0.929 . S
H1710 C1714 0.929 . S
H1711 C1720 0.929 . S
C1712 H1706 0.930 . S
C1712 C1713 1.367 . S
C1712 C1720 1.378 . S
C1713 C1712 1.367 . S
C1713 C1721 1.433 . S
C1714 H1710 0.929 . S
C1714 C1716 1.378 . S
C1714 C1718 1.350 . S
C1715 C1718 1.463 . S
C1715 C1720 1.350 . S
C1715 N1723 1.427 . S
C1716 H1707 0.930 . S
C1716 C1714 1.378 . S
C1716 C1717 1.367 . S
C1717 C1716 1.367 . S
C1717 C1719 1.433 . S
C1718 C1714 1.350 . S
C1718 C1715 1.463 . S
C1718 N1722 1.427 . S
C1719 H1709 0.929 . S
C1719 C1717 1.433 . S
C1719 N1722 1.384 . S
C1720 H1711 0.929 . S
C1720 C1712 1.378 . S
C1720 C1715 1.350 . S
C1721 H1708 0.929 . S
C1721 C1713 1.433 . S
C1721 N1723 1.384 . S
N1722 C1718 1.427 . S
N1722 C1719 1.384 . S
N1723 C1715 1.427 . S
N1723 C1721 1.384 . S
H1724 C1730 0.930 . S
H1725 C1734 0.930 . S
H1726 C1739 0.929 . S
H1727 C1737 0.941 . S
H1728 C1732 0.929 . S
H1729 C1738 0.929 . S
C1730 H1724 0.930 . S
C1730 C1731 1.367 . S
C1730 C1738 1.378 . S
C1731 C1730 1.367 . S
C1731 C1739 1.433 . S
C1732 H1728 0.929 . S
C1732 C1734 1.378 . S
C1732 C1736 1.350 . S
C1733 C1736 1.463 . S
C1733 C1738 1.350 . S
C1733 N1741 1.427 . S
C1734 H1725 0.930 . S
C1734 C1732 1.378 . S
C1734 C1735 1.392 . S
C1735 C1734 1.392 . S
C1735 C1737 1.424 1_556 S
C1736 C1732 1.350 . S
C1736 C1733 1.463 . S
C1736 N1740 1.427 . S
C1737 H1727 0.941 . S
C1737 C1735 1.424 1_554 S
C1737 N1740 1.375 1_554 S
C1738 H1729 0.929 . S
C1738 C1730 1.378 . S
C1738 C1733 1.350 . S
C1739 H1726 0.929 . S
C1739 C1731 1.433 . S
C1739 N1741 1.384 . S
N1740 C1736 1.427 . S
N1740 C1737 1.375 1_556 S
N1741 C1733 1.427 . S
N1741 C1739 1.384 . S
H1742 C1748 0.930 . S
H1743 C1752 0.930 . S
H1744 C1757 0.929 . S
H1745 C1755 0.929 . S
H1746 C1750 0.929 . S
H1747 C1756 0.929 . S
C1748 H1742 0.930 . S
C1748 C1749 1.367 . S
C1748 C1756 1.378 . S
C1749 C1748 1.367 . S
C1749 C1757 1.433 . S
C1750 H1746 0.929 . S
C1750 C1752 1.378 . S
C1750 C1754 1.350 . S
C1751 C1754 1.463 . S
C1751 C1756 1.350 . S
C1751 N1759 1.427 . S
C1752 H1743 0.930 . S
C1752 C1750 1.378 . S
C1752 C1753 1.367 . S
C1753 C1752 1.367 . S
C1753 C1755 1.433 . S
C1754 C1750 1.350 . S
C1754 C1751 1.463 . S
C1754 N1758 1.427 . S
C1755 H1745 0.929 . S
C1755 C1753 1.433 . S
C1755 N1758 1.384 . S
C1756 H1747 0.929 . S
C1756 C1748 1.378 . S
C1756 C1751 1.350 . S
C1757 H1744 0.929 . S
C1757 C1749 1.433 . S
C1757 N1759 1.384 . S
N1758 C1754 1.427 . S
N1758 C1755 1.384 . S
N1759 C1751 1.427 . S
N1759 C1757 1.384 . S
H1760 C1766 0.930 . S
H1761 C1770 0.930 . S
H1762 C1775 0.929 . S
H1763 C1773 0.929 . S
H1764 C1768 0.929 . S
H1765 C1774 0.929 . S
C1766 H1760 0.930 . S
C1766 C1767 1.367 1_565 S
C1766 C1774 1.378 . S
C1767 C1766 1.367 1_545 S
C1767 C1775 1.433 . S
C1768 H1764 0.929 . S
C1768 C1770 1.378 . S
C1768 C1772 1.350 1_545 S
C1769 C1772 1.463 . S
C1769 C1774 1.350 . S
C1769 N1777 1.427 1_565 S
C1770 H1761 0.930 . S
C1770 C1768 1.378 . S
C1770 C1771 1.367 1_545 S
C1771 C1770 1.367 1_565 S
C1771 C1773 1.433 . S
C1772 C1768 1.350 1_565 S
C1772 C1769 1.463 . S
C1772 N1776 1.427 . S
C1773 H1763 0.929 . S
C1773 C1771 1.433 . S
C1773 N1776 1.384 . S
C1774 H1765 0.929 . S
C1774 C1766 1.378 . S
C1774 C1769 1.350 . S
C1775 H1762 0.929 . S
C1775 C1767 1.433 . S
C1775 N1777 1.384 . S
N1776 C1772 1.427 . S
N1776 C1773 1.384 . S
N1777 C1769 1.427 1_545 S
N1777 C1775 1.384 . S
H1778 C1784 0.930 . S
H1779 C1788 0.930 . S
H1780 C1793 0.929 . S
H1781 C1791 0.929 . S
H1782 C1786 0.929 . S
H1783 C1792 0.929 . S
C1784 H1778 0.930 . S
C1784 C1785 1.367 . S
C1784 C1792 1.378 . S
C1785 C1784 1.367 . S
C1785 C1793 1.433 . S
C1786 H1782 0.929 . S
C1786 C1788 1.378 . S
C1786 C1790 1.350 . S
C1787 C1790 1.463 . S
C1787 C1792 1.350 . S
C1787 N1795 1.427 . S
C1788 H1779 0.930 . S
C1788 C1786 1.378 . S
C1788 C1789 1.367 . S
C1789 C1788 1.367 . S
C1789 C1791 1.433 . S
C1790 C1786 1.350 . S
C1790 C1787 1.463 . S
C1790 N1794 1.427 . S
C1791 H1781 0.929 . S
C1791 C1789 1.433 . S
C1791 N1794 1.384 . S
C1792 H1783 0.929 . S
C1792 C1784 1.378 . S
C1792 C1787 1.350 . S
C1793 H1780 0.929 . S
C1793 C1785 1.433 . S
C1793 N1795 1.384 . S
N1794 C1790 1.427 . S
N1794 C1791 1.384 . S
N1795 C1787 1.427 . S
N1795 C1793 1.384 . S
H1796 C1802 0.930 . S
H1797 C1806 0.930 1_565 S
H1798 C1811 0.929 1_565 S
H1799 C1809 0.929 . S
H1800 C1804 0.929 1_565 S
H1801 C1810 0.929 . S
C1802 H1796 0.930 . S
C1802 C1803 1.367 . S
C1802 C1810 1.378 . S
C1803 C1802 1.367 . S
C1803 C1811 1.433 . S
C1804 H1800 0.929 1_545 S
C1804 C1806 1.378 . S
C1804 C1808 1.350 . S
C1805 C1808 1.463 . S
C1805 C1810 1.350 . S
C1805 N1813 1.427 . S
C1806 H1797 0.930 1_545 S
C1806 C1804 1.378 . S
C1806 C1807 1.367 . S
C1807 C1806 1.367 . S
C1807 C1809 1.433 . S
C1808 C1804 1.350 . S
C1808 C1805 1.463 . S
C1808 N1812 1.427 . S
C1809 H1799 0.929 . S
C1809 C1807 1.433 . S
C1809 N1812 1.384 . S
C1810 H1801 0.929 . S
C1810 C1802 1.378 . S
C1810 C1805 1.350 . S
C1811 H1798 0.929 1_545 S
C1811 C1803 1.433 . S
C1811 N1813 1.384 . S
N1812 C1808 1.427 . S
N1812 C1809 1.384 . S
N1813 C1805 1.427 . S
N1813 C1811 1.384 . S
H1814 C1820 0.930 . S
H1815 C1824 0.930 . S
H1816 C1829 0.929 . S
H1817 C1827 0.929 . S
H1818 C1822 0.929 . S
H1819 C1828 0.929 . S
C1820 H1814 0.930 . S
C1820 C1821 1.367 . S
C1820 C1828 1.378 . S
C1821 C1820 1.367 . S
C1821 C1829 1.433 . S
C1822 H1818 0.929 . S
C1822 C1824 1.378 . S
C1822 C1826 1.350 . S
C1823 C1826 1.463 . S
C1823 C1828 1.350 . S
C1823 N1831 1.427 . S
C1824 H1815 0.930 . S
C1824 C1822 1.378 . S
C1824 C1825 1.367 . S
C1825 C1824 1.367 . S
C1825 C1827 1.433 . S
C1826 C1822 1.350 . S
C1826 C1823 1.463 . S
C1826 N1830 1.427 . S
C1827 H1817 0.929 . S
C1827 C1825 1.433 . S
C1827 N1830 1.384 . S
C1828 H1819 0.929 . S
C1828 C1820 1.378 . S
C1828 C1823 1.350 . S
C1829 H1816 0.929 . S
C1829 C1821 1.433 . S
C1829 N1831 1.384 . S
N1830 C1826 1.427 . S
N1830 C1827 1.384 . S
N1831 C1823 1.427 . S
N1831 C1829 1.384 . S
H1832 C1838 0.930 . S
H1833 C1842 0.930 . S
H1834 C1847 0.929 . S
H1835 C1845 0.929 . S
H1836 C1840 0.929 . S
H1837 C1846 0.929 . S
C1838 H1832 0.930 . S
C1838 C1839 1.367 1_565 S
C1838 C1846 1.378 . S
C1839 C1838 1.367 1_545 S
C1839 C1847 1.433 . S
C1840 H1836 0.929 . S
C1840 C1842 1.378 . S
C1840 C1844 1.350 . S
C1841 C1844 1.463 . S
C1841 C1846 1.350 1_545 S
C1841 N1849 1.427 . S
C1842 H1833 0.930 . S
C1842 C1840 1.378 . S
C1842 C1843 1.367 . S
C1843 C1842 1.367 . S
C1843 C1845 1.433 1_545 S
C1844 C1840 1.350 . S
C1844 C1841 1.463 . S
C1844 N1848 1.427 1_545 S
C1845 H1835 0.929 . S
C1845 C1843 1.433 1_565 S
C1845 N1848 1.384 . S
C1846 H1837 0.929 . S
C1846 C1838 1.378 . S
C1846 C1841 1.350 1_565 S
C1847 H1834 0.929 . S
C1847 C1839 1.433 . S
C1847 N1849 1.384 . S
N1848 C1844 1.427 1_565 S
N1848 C1845 1.384 . S
N1849 C1841 1.427 . S
N1849 C1847 1.384 . S
H1850 C1856 0.930 . S
H1851 C1860 0.930 . S
H1852 C1865 0.929 . S
H1853 C1863 0.929 . S
H1854 C1858 0.929 . S
H1855 C1864 0.929 . S
C1856 H1850 0.930 . S
C1856 C1857 1.367 . S
C1856 C1864 1.378 . S
C1857 C1856 1.367 . S
C1857 C1865 1.433 . S
C1858 H1854 0.929 . S
C1858 C1860 1.378 . S
C1858 C1862 1.350 . S
C1859 C1862 1.463 . S
C1859 C1864 1.350 . S
C1859 N1867 1.427 . S
C1860 H1851 0.930 . S
C1860 C1858 1.378 . S
C1860 C1861 1.367 . S
C1861 C1860 1.367 . S
C1861 C1863 1.433 . S
C1862 C1858 1.350 . S
C1862 C1859 1.463 . S
C1862 N1866 1.427 . S
C1863 H1853 0.929 . S
C1863 C1861 1.433 . S
C1863 N1866 1.384 . S
C1864 H1855 0.929 . S
C1864 C1856 1.378 . S
C1864 C1859 1.350 . S
C1865 H1852 0.929 . S
C1865 C1857 1.433 . S
C1865 N1867 1.384 . S
N1866 C1862 1.427 . S
N1866 C1863 1.384 . S
N1867 C1859 1.427 . S
N1867 C1865 1.384 . S
H1868 C1874 0.930 . S
H1869 C1878 0.930 . S
H1870 C1883 0.929 . S
H1871 C1881 0.929 . S
H1872 C1876 0.929 . S
H1873 C1882 0.929 . S
C1874 H1868 0.930 . S
C1874 C1875 1.367 . S
C1874 C1882 1.378 . S
C1875 C1874 1.367 . S
C1875 C1883 1.433 . S
C1876 H1872 0.929 . S
C1876 C1878 1.378 . S
C1876 C1880 1.350 1_565 S
C1877 C1880 1.463 . S
C1877 C1882 1.350 . S
C1877 N1885 1.427 . S
C1878 H1869 0.930 . S
C1878 C1876 1.378 . S
C1878 C1879 1.384 . S
C1879 C1878 1.384 . S
C1879 C1881 1.410 1_565 S
C1880 C1876 1.350 1_545 S
C1880 C1877 1.463 . S
C1880 N1884 1.427 . S
C1881 H1871 0.929 . S
C1881 C1879 1.410 1_545 S
C1881 N1884 1.384 . S
C1882 H1873 0.929 . S
C1882 C1874 1.378 . S
C1882 C1877 1.350 . S
C1883 H1870 0.929 . S
C1883 C1875 1.433 . S
C1883 N1885 1.384 . S
N1884 C1880 1.427 . S
N1884 C1881 1.384 . S
N1885 C1877 1.427 . S
N1885 C1883 1.384 . S
H1886 C1892 0.930 . S
H1887 C1896 0.930 . S
H1888 C1901 0.929 . S
H1889 C1899 0.929 . S
H1890 C1894 0.929 . S
H1891 C1900 0.929 . S
C1892 H1886 0.930 . S
C1892 C1893 1.367 . S
C1892 C1900 1.378 . S
C1893 C1892 1.367 . S
C1893 C1901 1.433 . S
C1894 H1890 0.929 . S
C1894 C1896 1.378 . S
C1894 C1898 1.350 . S
C1895 C1898 1.463 . S
C1895 C1900 1.350 . S
C1895 N1903 1.427 . S
C1896 H1887 0.930 . S
C1896 C1894 1.378 . S
C1896 C1897 1.367 . S
C1897 C1896 1.367 . S
C1897 C1899 1.433 . S
C1898 C1894 1.350 . S
C1898 C1895 1.463 . S
C1898 N1902 1.427 . S
C1899 H1889 0.929 . S
C1899 C1897 1.433 . S
C1899 N1902 1.384 . S
C1900 H1891 0.929 . S
C1900 C1892 1.378 . S
C1900 C1895 1.350 . S
C1901 H1888 0.929 . S
C1901 C1893 1.433 . S
C1901 N1903 1.384 . S
N1902 C1898 1.427 . S
N1902 C1899 1.384 . S
N1903 C1895 1.427 . S
N1903 C1901 1.384 . S
H1904 C1910 0.930 1_556 S
H1905 C1914 0.930 . S
H1906 C1919 0.929 . S
H1907 C1917 0.929 . S
H1908 C1912 0.929 . S
H1909 C1918 0.965 . S
C1910 H1904 0.930 1_554 S
C1910 C1911 1.367 . S
C1910 C1918 1.370 1_554 S
C1911 C1910 1.367 . S
C1911 C1919 1.433 . S
C1912 H1908 0.929 . S
C1912 C1914 1.378 . S
C1912 C1916 1.350 . S
C1913 C1916 1.463 . S
C1913 C1918 1.322 1_554 S
C1913 N1921 1.427 . S
C1914 H1905 0.930 . S
C1914 C1912 1.378 . S
C1914 C1915 1.391 . S
C1915 C1914 1.391 . S
C1915 C1917 1.414 1_554 S
C1916 C1912 1.350 . S
C1916 C1913 1.463 . S
C1916 N1920 1.427 1_554 S
C1917 H1907 0.929 . S
C1917 C1915 1.414 1_556 S
C1917 N1920 1.384 . S
C1918 H1909 0.965 . S
C1918 C1910 1.370 1_556 S
C1918 C1913 1.322 1_556 S
C1919 H1906 0.929 . S
C1919 C1911 1.433 . S
C1919 N1921 1.384 . S
N1920 C1916 1.427 1_556 S
N1920 C1917 1.384 . S
N1921 C1913 1.427 . S
N1921 C1919 1.384 . S
H1922 C1928 0.930 . S
H1923 C1932 0.930 . S
H1924 C1937 0.929 . S
H1925 C1935 0.929 . S
H1926 C1930 0.929 . S
H1927 C1936 0.929 . S
C1928 H1922 0.930 . S
C1928 C1929 1.367 . S
C1928 C1936 1.378 . S
C1929 C1928 1.367 . S
C1929 C1937 1.433 . S
C1930 H1926 0.929 . S
C1930 C1932 1.378 . S
C1930 C1934 1.350 . S
C1931 C1934 1.463 . S
C1931 C1936 1.350 . S
C1931 N1939 1.427 . S
C1932 H1923 0.930 . S
C1932 C1930 1.378 . S
C1932 C1933 1.367 . S
C1933 C1932 1.367 . S
C1933 C1935 1.433 . S
C1934 C1930 1.350 . S
C1934 C1931 1.463 . S
C1934 N1938 1.427 . S
C1935 H1925 0.929 . S
C1935 C1933 1.433 . S
C1935 N1938 1.384 . S
C1936 H1927 0.929 . S
C1936 C1928 1.378 . S
C1936 C1931 1.350 . S
C1937 H1924 0.929 . S
C1937 C1929 1.433 . S
C1937 N1939 1.384 . S
N1938 C1934 1.427 . S
N1938 C1935 1.384 . S
N1939 C1931 1.427 . S
N1939 C1937 1.384 . S
H1940 C1946 0.930 . S
H1941 C1950 0.930 . S
H1942 C1955 0.929 . S
H1943 C1953 0.929 . S
H1944 C1948 0.929 . S
H1945 C1954 0.929 . S
C1946 H1940 0.930 . S
C1946 C1947 1.367 . S
C1946 C1954 1.378 . S
C1947 C1946 1.367 . S
C1947 C1955 1.433 . S
C1948 H1944 0.929 . S
C1948 C1950 1.378 . S
C1948 C1952 1.350 . S
C1949 C1952 1.463 . S
C1949 C1954 1.350 . S
C1949 N1957 1.427 . S
C1950 H1941 0.930 . S
C1950 C1948 1.378 . S
C1950 C1951 1.367 . S
C1951 C1950 1.367 . S
C1951 C1953 1.433 . S
C1952 C1948 1.350 . S
C1952 C1949 1.463 . S
C1952 N1956 1.427 . S
C1953 H1943 0.929 . S
C1953 C1951 1.433 . S
C1953 N1956 1.384 . S
C1954 H1945 0.929 . S
C1954 C1946 1.378 . S
C1954 C1949 1.350 . S
C1955 H1942 0.929 . S
C1955 C1947 1.433 . S
C1955 N1957 1.384 . S
N1956 C1952 1.427 . S
N1956 C1953 1.384 . S
N1957 C1949 1.427 . S
N1957 C1955 1.384 . S
H1958 C1964 0.930 . S
H1959 C1968 0.930 . S
H1960 C1973 0.929 . S
H1961 C1971 0.929 . S
H1962 C1966 0.929 . S
H1963 C1972 0.929 . S
C1964 H1958 0.930 . S
C1964 C1965 1.367 . S
C1964 C1972 1.378 . S
C1965 C1964 1.367 . S
C1965 C1973 1.433 . S
C1966 H1962 0.929 . S
C1966 C1968 1.378 . S
C1966 C1970 1.350 . S
C1967 C1970 1.463 . S
C1967 C1972 1.350 . S
C1967 N1975 1.427 . S
C1968 H1959 0.930 . S
C1968 C1966 1.378 . S
C1968 C1969 1.367 . S
C1969 C1968 1.367 . S
C1969 C1971 1.433 . S
C1970 C1966 1.350 . S
C1970 C1967 1.463 . S
C1970 N1974 1.427 . S
C1971 H1961 0.929 . S
C1971 C1969 1.433 . S
C1971 N1974 1.384 . S
C1972 H1963 0.929 . S
C1972 C1964 1.378 . S
C1972 C1967 1.350 . S
C1973 H1960 0.929 . S
C1973 C1965 1.433 . S
C1973 N1975 1.384 . S
N1974 C1970 1.427 . S
N1974 C1971 1.384 . S
N1975 C1967 1.427 . S
N1975 C1973 1.384 . S
H1976 C1982 0.930 . S
H1977 C1986 0.930 . S
H1978 C1991 0.929 . S
H1979 C1989 0.929 . S
H1980 C1984 0.929 . S
H1981 C1990 0.929 . S
C1982 H1976 0.930 . S
C1982 C1983 1.367 . S
C1982 C1990 1.378 . S
C1983 C1982 1.367 . S
C1983 C1991 1.433 . S
C1984 H1980 0.929 . S
C1984 C1986 1.378 . S
C1984 C1988 1.350 . S
C1985 C1988 1.463 . S
C1985 C1990 1.350 . S
C1985 N1993 1.427 . S
C1986 H1977 0.930 . S
C1986 C1984 1.378 . S
C1986 C1987 1.367 . S
C1987 C1986 1.367 . S
C1987 C1989 1.433 . S
C1988 C1984 1.350 . S
C1988 C1985 1.463 . S
C1988 N1992 1.427 . S
C1989 H1979 0.929 . S
C1989 C1987 1.433 . S
C1989 N1992 1.384 . S
C1990 H1981 0.929 . S
C1990 C1982 1.378 . S
C1990 C1985 1.350 . S
C1991 H1978 0.929 . S
C1991 C1983 1.433 . S
C1991 N1993 1.384 . S
N1992 C1988 1.427 . S
N1992 C1989 1.384 . S
N1993 C1985 1.427 . S
N1993 C1991 1.384 . S
H1994 C2000 0.930 . S
H1995 C2004 0.930 . S
H1996 C2009 0.929 . S
H1997 C2007 0.929 . S
H1998 C2002 0.929 . S
H1999 C2008 0.929 . S
C2000 H1994 0.930 . S
C2000 C2001 1.367 . S
C2000 C2008 1.378 . S
C2001 C2000 1.367 . S
C2001 C2009 1.433 . S
C2002 H1998 0.929 . S
C2002 C2004 1.378 . S
C2002 C2006 1.350 . S
C2003 C2006 1.463 . S
C2003 C2008 1.350 . S
C2003 N2011 1.427 . S
C2004 H1995 0.930 . S
C2004 C2002 1.378 . S
C2004 C2005 1.367 . S
C2005 C2004 1.367 . S
C2005 C2007 1.433 . S
C2006 C2002 1.350 . S
C2006 C2003 1.463 . S
C2006 N2010 1.427 . S
C2007 H1997 0.929 . S
C2007 C2005 1.433 . S
C2007 N2010 1.384 . S
C2008 H1999 0.929 . S
C2008 C2000 1.378 . S
C2008 C2003 1.350 . S
C2009 H1996 0.929 . S
C2009 C2001 1.433 . S
C2009 N2011 1.384 . S
N2010 C2006 1.427 . S
N2010 C2007 1.384 . S
N2011 C2003 1.427 . S
N2011 C2009 1.384 . S
H2012 C2018 0.930 . S
H2013 C2022 0.930 . S
H2014 C2027 0.929 . S
H2015 C2025 0.929 . S
H2016 C2020 0.929 . S
H2017 C2026 0.929 . S
C2018 H2012 0.930 . S
C2018 C2019 1.367 . S
C2018 C2026 1.378 . S
C2019 C2018 1.367 . S
C2019 C2027 1.433 . S
C2020 H2016 0.929 . S
C2020 C2022 1.378 . S
C2020 C2024 1.350 . S
C2021 C2024 1.463 . S
C2021 C2026 1.350 . S
C2021 N2029 1.427 . S
C2022 H2013 0.930 . S
C2022 C2020 1.378 . S
C2022 C2023 1.367 . S
C2023 C2022 1.367 . S
C2023 C2025 1.433 . S
C2024 C2020 1.350 . S
C2024 C2021 1.463 . S
C2024 N2028 1.427 . S
C2025 H2015 0.929 . S
C2025 C2023 1.433 . S
C2025 N2028 1.384 . S
C2026 H2017 0.929 . S
C2026 C2018 1.378 . S
C2026 C2021 1.350 . S
C2027 H2014 0.929 . S
C2027 C2019 1.433 . S
C2027 N2029 1.384 . S
N2028 C2024 1.427 . S
N2028 C2025 1.384 . S
N2029 C2021 1.427 . S
N2029 C2027 1.384 . S
H2030 C2036 0.930 . S
H2031 C2040 0.930 . S
H2032 C2045 0.929 . S
H2033 C2043 0.929 . S
H2034 C2038 0.929 . S
H2035 C2044 0.929 . S
C2036 H2030 0.930 . S
C2036 C2037 1.367 . S
C2036 C2044 1.378 . S
C2037 C2036 1.367 . S
C2037 C2045 1.433 . S
C2038 H2034 0.929 . S
C2038 C2040 1.378 . S
C2038 C2042 1.350 . S
C2039 C2042 1.463 . S
C2039 C2044 1.350 . S
C2039 N2047 1.427 . S
C2040 H2031 0.930 . S
C2040 C2038 1.378 . S
C2040 C2041 1.367 . S
C2041 C2040 1.367 . S
C2041 C2043 1.433 . S
C2042 C2038 1.350 . S
C2042 C2039 1.463 . S
C2042 N2046 1.427 . S
C2043 H2033 0.929 . S
C2043 C2041 1.433 . S
C2043 N2046 1.384 . S
C2044 H2035 0.929 . S
C2044 C2036 1.378 . S
C2044 C2039 1.350 . S
C2045 H2032 0.929 . S
C2045 C2037 1.433 . S
C2045 N2047 1.384 . S
N2046 C2042 1.427 . S
N2046 C2043 1.384 . S
N2047 C2039 1.427 . S
N2047 C2045 1.384 . S
H2048 C2054 0.930 . S
H2049 C2058 0.930 . S
H2050 C2063 0.929 . S
H2051 C2061 0.929 . S
H2052 C2056 0.929 . S
H2053 C2062 0.929 . S
C2054 H2048 0.930 . S
C2054 C2055 1.367 . S
C2054 C2062 1.378 . S
C2055 C2054 1.367 . S
C2055 C2063 1.433 . S
C2056 H2052 0.929 . S
C2056 C2058 1.378 . S
C2056 C2060 1.350 . S
C2057 C2060 1.463 . S
C2057 C2062 1.350 . S
C2057 N2065 1.427 . S
C2058 H2049 0.930 . S
C2058 C2056 1.378 . S
C2058 C2059 1.367 . S
C2059 C2058 1.367 . S
C2059 C2061 1.433 . S
C2060 C2056 1.350 . S
C2060 C2057 1.463 . S
C2060 N2064 1.427 . S
C2061 H2051 0.929 . S
C2061 C2059 1.433 . S
C2061 N2064 1.384 . S
C2062 H2053 0.929 . S
C2062 C2054 1.378 . S
C2062 C2057 1.350 . S
C2063 H2050 0.929 . S
C2063 C2055 1.433 . S
C2063 N2065 1.384 . S
N2064 C2060 1.427 . S
N2064 C2061 1.384 . S
N2065 C2057 1.427 . S
N2065 C2063 1.384 . S
H2066 C2072 0.930 . S
H2067 C2076 0.930 . S
H2068 C2081 0.929 . S
H2069 C2079 0.929 . S
H2070 C2074 0.929 . S
H2071 C2080 0.929 . S
C2072 H2066 0.930 . S
C2072 C2073 1.367 . S
C2072 C2080 1.378 . S
C2073 C2072 1.367 . S
C2073 C2081 1.433 . S
C2074 H2070 0.929 . S
C2074 C2076 1.378 . S
C2074 C2078 1.350 . S
C2075 C2078 1.463 . S
C2075 C2080 1.350 . S
C2075 N2083 1.427 . S
C2076 H2067 0.930 . S
C2076 C2074 1.378 . S
C2076 C2077 1.367 . S
C2077 C2076 1.367 . S
C2077 C2079 1.433 . S
C2078 C2074 1.350 . S
C2078 C2075 1.463 . S
C2078 N2082 1.427 . S
C2079 H2069 0.929 . S
C2079 C2077 1.433 . S
C2079 N2082 1.384 . S
C2080 H2071 0.929 . S
C2080 C2072 1.378 . S
C2080 C2075 1.350 . S
C2081 H2068 0.929 . S
C2081 C2073 1.433 . S
C2081 N2083 1.384 . S
N2082 C2078 1.427 . S
N2082 C2079 1.384 . S
N2083 C2075 1.427 . S
N2083 C2081 1.384 . S
H2084 C2090 0.930 . S
H2085 C2094 0.930 . S
H2086 C2099 0.929 . S
H2087 C2097 0.929 . S
H2088 C2092 0.929 . S
H2089 C2098 0.929 . S
C2090 H2084 0.930 . S
C2090 C2091 1.367 . S
C2090 C2098 1.378 . S
C2091 C2090 1.367 . S
C2091 C2099 1.433 1_455 S
C2092 H2088 0.929 . S
C2092 C2094 1.378 . S
C2092 C2096 1.350 1_655 S
C2093 C2096 1.463 . S
C2093 C2098 1.350 . S
C2093 N2101 1.427 1_455 S
C2094 H2085 0.930 . S
C2094 C2092 1.378 . S
C2094 C2095 1.367 1_655 S
C2095 C2094 1.367 1_455 S
C2095 C2097 1.433 1_556 S
C2096 C2092 1.350 1_455 S
C2096 C2093 1.463 . S
C2096 N2100 1.427 . S
C2097 H2087 0.929 . S
C2097 C2095 1.433 1_554 S
C2097 N2100 1.384 1_554 S
C2098 H2089 0.929 . S
C2098 C2090 1.378 . S
C2098 C2093 1.350 . S
C2099 H2086 0.929 . S
C2099 C2091 1.433 1_655 S
C2099 N2101 1.384 . S
N2100 C2096 1.427 . S
N2100 C2097 1.384 1_556 S
N2101 C2093 1.427 1_655 S
N2101 C2099 1.384 . S
H2102 C2108 0.930 . S
H2103 C2112 0.930 . S
H2104 C2117 0.929 . S
H2105 C2115 0.929 . S
H2106 C2110 0.929 . S
H2107 C2116 0.929 . S
C2108 H2102 0.930 . S
C2108 C2109 1.367 . S
C2108 C2116 1.378 . S
C2109 C2108 1.367 . S
C2109 C2117 1.433 . S
C2110 H2106 0.929 . S
C2110 C2112 1.378 . S
C2110 C2114 1.350 . S
C2111 C2114 1.463 . S
C2111 C2116 1.350 . S
C2111 N2119 1.427 . S
C2112 H2103 0.930 . S
C2112 C2110 1.378 . S
C2112 C2113 1.367 . S
C2113 C2112 1.367 . S
C2113 C2115 1.433 . S
C2114 C2110 1.350 . S
C2114 C2111 1.463 . S
C2114 N2118 1.427 . S
C2115 H2105 0.929 . S
C2115 C2113 1.433 . S
C2115 N2118 1.384 . S
C2116 H2107 0.929 . S
C2116 C2108 1.378 . S
C2116 C2111 1.350 . S
C2117 H2104 0.929 . S
C2117 C2109 1.433 . S
C2117 N2119 1.384 . S
N2118 C2114 1.427 . S
N2118 C2115 1.384 . S
N2119 C2111 1.427 . S
N2119 C2117 1.384 . S
H2120 C2126 0.930 . S
H2121 C2130 0.930 . S
H2122 C2135 0.929 . S
H2123 C2133 0.929 . S
H2124 C2128 0.929 . S
H2125 C2134 0.929 . S
C2126 H2120 0.930 . S
C2126 C2127 1.367 . S
C2126 C2134 1.378 . S
C2127 C2126 1.367 . S
C2127 C2135 1.433 . S
C2128 H2124 0.929 . S
C2128 C2130 1.378 . S
C2128 C2132 1.350 . S
C2129 C2132 1.463 . S
C2129 C2134 1.350 . S
C2129 N2137 1.427 . S
C2130 H2121 0.930 . S
C2130 C2128 1.378 . S
C2130 C2131 1.367 . S
C2131 C2130 1.367 . S
C2131 C2133 1.433 . S
C2132 C2128 1.350 . S
C2132 C2129 1.463 . S
C2132 N2136 1.427 . S
C2133 H2123 0.929 . S
C2133 C2131 1.433 . S
C2133 N2136 1.384 . S
C2134 H2125 0.929 . S
C2134 C2126 1.378 . S
C2134 C2129 1.350 . S
C2135 H2122 0.929 . S
C2135 C2127 1.433 . S
C2135 N2137 1.384 . S
N2136 C2132 1.427 . S
N2136 C2133 1.384 . S
N2137 C2129 1.427 . S
N2137 C2135 1.384 . S
H2138 C2144 0.930 . S
H2139 C2148 0.930 . S
H2140 C2153 0.929 . S
H2141 C2151 0.929 . S
H2142 C2146 0.929 . S
H2143 C2152 0.929 . S
C2144 H2138 0.930 . S
C2144 C2145 1.367 . S
C2144 C2152 1.378 . S
C2145 C2144 1.367 . S
C2145 C2153 1.433 . S
C2146 H2142 0.929 . S
C2146 C2148 1.378 . S
C2146 C2150 1.350 . S
C2147 C2150 1.463 . S
C2147 C2152 1.350 . S
C2147 N2155 1.427 . S
C2148 H2139 0.930 . S
C2148 C2146 1.378 . S
C2148 C2149 1.367 . S
C2149 C2148 1.367 . S
C2149 C2151 1.433 . S
C2150 C2146 1.350 . S
C2150 C2147 1.463 . S
C2150 N2154 1.427 . S
C2151 H2141 0.929 . S
C2151 C2149 1.433 . S
C2151 N2154 1.384 . S
C2152 H2143 0.929 . S
C2152 C2144 1.378 . S
C2152 C2147 1.350 . S
C2153 H2140 0.929 . S
C2153 C2145 1.433 . S
C2153 N2155 1.384 . S
N2154 C2150 1.427 . S
N2154 C2151 1.384 . S
N2155 C2147 1.427 . S
N2155 C2153 1.384 . S
H2156 C2162 0.930 . S
H2157 C2166 0.928 1_655 S
H2158 C2171 0.929 . S
H2159 C2169 0.929 . S
H2160 C2164 0.943 . S
H2161 C2170 0.929 . S
C2162 H2156 0.930 . S
C2162 C2163 1.367 . S
C2162 C2170 1.378 . S
C2163 C2162 1.367 . S
C2163 C2171 1.433 1_455 S
C2164 H2160 0.943 . S
C2164 C2166 1.366 1_655 S
C2164 C2168 1.345 1_655 S
C2165 C2168 1.463 . S
C2165 C2170 1.350 . S
C2165 N2173 1.427 1_455 S
C2166 H2157 0.928 1_455 S
C2166 C2164 1.366 1_455 S
C2166 C2167 1.374 . S
C2167 C2166 1.374 . S
C2167 C2169 1.433 . S
C2168 C2164 1.345 1_455 S
C2168 C2165 1.463 . S
C2168 N2172 1.427 . S
C2169 H2159 0.929 . S
C2169 C2167 1.433 . S
C2169 N2172 1.384 . S
C2170 H2161 0.929 . S
C2170 C2162 1.378 . S
C2170 C2165 1.350 . S
C2171 H2158 0.929 . S
C2171 C2163 1.433 1_655 S
C2171 N2173 1.384 . S
N2172 C2168 1.427 . S
N2172 C2169 1.384 . S
N2173 C2165 1.427 1_655 S
N2173 C2171 1.384 . S
H2174 C2180 0.930 . S
H2175 C2184 0.930 . S
H2176 C2189 0.929 . S
H2177 C2187 0.929 . S
H2178 C2182 0.929 . S
H2179 C2188 0.929 . S
C2180 H2174 0.930 . S
C2180 C2181 1.367 . S
C2180 C2188 1.378 . S
C2181 C2180 1.367 . S
C2181 C2189 1.433 . S
C2182 H2178 0.929 . S
C2182 C2184 1.378 . S
C2182 C2186 1.350 . S
C2183 C2186 1.463 . S
C2183 C2188 1.350 . S
C2183 N2191 1.427 . S
C2184 H2175 0.930 . S
C2184 C2182 1.378 . S
C2184 C2185 1.367 . S
C2185 C2184 1.367 . S
C2185 C2187 1.433 . S
C2186 C2182 1.350 . S
C2186 C2183 1.463 . S
C2186 N2190 1.427 . S
C2187 H2177 0.929 . S
C2187 C2185 1.433 . S
C2187 N2190 1.384 . S
C2188 H2179 0.929 . S
C2188 C2180 1.378 . S
C2188 C2183 1.350 . S
C2189 H2176 0.929 . S
C2189 C2181 1.433 . S
C2189 N2191 1.384 . S
N2190 C2186 1.427 . S
N2190 C2187 1.384 . S
N2191 C2183 1.427 . S
N2191 C2189 1.384 . S
H2192 C2198 0.930 . S
H2193 C2202 0.930 . S
H2194 C2207 0.929 . S
H2195 C2205 0.929 . S
H2196 C2200 0.929 . S
H2197 C2206 0.929 . S
C2198 H2192 0.930 . S
C2198 C2199 1.367 . S
C2198 C2206 1.378 . S
C2199 C2198 1.367 . S
C2199 C2207 1.433 . S
C2200 H2196 0.929 . S
C2200 C2202 1.378 . S
C2200 C2204 1.350 . S
C2201 C2204 1.463 . S
C2201 C2206 1.350 . S
C2201 N2209 1.427 . S
C2202 H2193 0.930 . S
C2202 C2200 1.378 . S
C2202 C2203 1.367 . S
C2203 C2202 1.367 . S
C2203 C2205 1.433 . S
C2204 C2200 1.350 . S
C2204 C2201 1.463 . S
C2204 N2208 1.427 . S
C2205 H2195 0.929 . S
C2205 C2203 1.433 . S
C2205 N2208 1.384 . S
C2206 H2197 0.929 . S
C2206 C2198 1.378 . S
C2206 C2201 1.350 . S
C2207 H2194 0.929 . S
C2207 C2199 1.433 . S
C2207 N2209 1.384 . S
N2208 C2204 1.427 . S
N2208 C2205 1.384 . S
N2209 C2201 1.427 . S
N2209 C2207 1.384 . S
H2210 C2216 0.930 . S
H2211 C2220 0.930 . S
H2212 C2225 0.929 . S
H2213 C2223 0.929 . S
H2214 C2218 0.929 . S
H2215 C2224 0.929 . S
C2216 H2210 0.930 . S
C2216 C2217 1.367 . S
C2216 C2224 1.378 . S
C2217 C2216 1.367 . S
C2217 C2225 1.433 . S
C2218 H2214 0.929 . S
C2218 C2220 1.378 . S
C2218 C2222 1.350 . S
C2219 C2222 1.463 . S
C2219 C2224 1.350 . S
C2219 N2227 1.427 . S
C2220 H2211 0.930 . S
C2220 C2218 1.378 . S
C2220 C2221 1.367 . S
C2221 C2220 1.367 . S
C2221 C2223 1.433 . S
C2222 C2218 1.350 . S
C2222 C2219 1.463 . S
C2222 N2226 1.427 . S
C2223 H2213 0.929 . S
C2223 C2221 1.433 . S
C2223 N2226 1.384 . S
C2224 H2215 0.929 . S
C2224 C2216 1.378 . S
C2224 C2219 1.350 . S
C2225 H2212 0.929 . S
C2225 C2217 1.433 . S
C2225 N2227 1.384 . S
N2226 C2222 1.427 . S
N2226 C2223 1.384 . S
N2227 C2219 1.427 . S
N2227 C2225 1.384 . S
H2228 C2234 0.930 . S
H2229 C2238 0.930 . S
H2230 C2243 0.929 . S
H2231 C2241 0.929 . S
H2232 C2236 0.929 . S
H2233 C2242 0.929 . S
C2234 H2228 0.930 . S
C2234 C2235 1.367 . S
C2234 C2242 1.378 . S
C2235 C2234 1.367 . S
C2235 C2243 1.433 . S
C2236 H2232 0.929 . S
C2236 C2238 1.378 . S
C2236 C2240 1.350 . S
C2237 C2240 1.463 . S
C2237 C2242 1.350 . S
C2237 N2245 1.427 . S
C2238 H2229 0.930 . S
C2238 C2236 1.378 . S
C2238 C2239 1.367 . S
C2239 C2238 1.367 . S
C2239 C2241 1.433 . S
C2240 C2236 1.350 . S
C2240 C2237 1.463 . S
C2240 N2244 1.427 . S
C2241 H2231 0.929 . S
C2241 C2239 1.433 . S
C2241 N2244 1.384 . S
C2242 H2233 0.929 . S
C2242 C2234 1.378 . S
C2242 C2237 1.350 . S
C2243 H2230 0.929 . S
C2243 C2235 1.433 . S
C2243 N2245 1.384 . S
N2244 C2240 1.427 . S
N2244 C2241 1.384 . S
N2245 C2237 1.427 . S
N2245 C2243 1.384 . S
H2246 C2252 0.930 . S
H2247 C2256 0.930 . S
H2248 C2261 0.929 . S
H2249 C2259 0.929 . S
H2250 C2254 0.929 . S
H2251 C2260 0.929 . S
C2252 H2246 0.930 . S
C2252 C2253 1.367 . S
C2252 C2260 1.378 . S
C2253 C2252 1.367 . S
C2253 C2261 1.433 . S
C2254 H2250 0.929 . S
C2254 C2256 1.378 . S
C2254 C2258 1.350 . S
C2255 C2258 1.463 . S
C2255 C2260 1.350 . S
C2255 N2263 1.427 . S
C2256 H2247 0.930 . S
C2256 C2254 1.378 . S
C2256 C2257 1.367 . S
C2257 C2256 1.367 . S
C2257 C2259 1.433 . S
C2258 C2254 1.350 . S
C2258 C2255 1.463 . S
C2258 N2262 1.427 . S
C2259 H2249 0.929 . S
C2259 C2257 1.433 . S
C2259 N2262 1.384 . S
C2260 H2251 0.929 . S
C2260 C2252 1.378 . S
C2260 C2255 1.350 . S
C2261 H2248 0.929 . S
C2261 C2253 1.433 . S
C2261 N2263 1.384 . S
N2262 C2258 1.427 . S
N2262 C2259 1.384 . S
N2263 C2255 1.427 . S
N2263 C2261 1.384 . S
H2264 C2270 0.930 . S
H2265 C2274 0.930 . S
H2266 C2279 0.929 . S
H2267 C2277 0.929 . S
H2268 C2272 0.929 . S
H2269 C2278 0.929 . S
C2270 H2264 0.930 . S
C2270 C2271 1.367 . S
C2270 C2278 1.378 . S
C2271 C2270 1.367 . S
C2271 C2279 1.433 . S
C2272 H2268 0.929 . S
C2272 C2274 1.378 . S
C2272 C2276 1.350 . S
C2273 C2276 1.463 . S
C2273 C2278 1.350 . S
C2273 N2281 1.427 . S
C2274 H2265 0.930 . S
C2274 C2272 1.378 . S
C2274 C2275 1.367 . S
C2275 C2274 1.367 . S
C2275 C2277 1.433 . S
C2276 C2272 1.350 . S
C2276 C2273 1.463 . S
C2276 N2280 1.427 . S
C2277 H2267 0.929 . S
C2277 C2275 1.433 . S
C2277 N2280 1.384 . S
C2278 H2269 0.929 . S
C2278 C2270 1.378 . S
C2278 C2273 1.350 . S
C2279 H2266 0.929 . S
C2279 C2271 1.433 . S
C2279 N2281 1.384 . S
N2280 C2276 1.427 . S
N2280 C2277 1.384 . S
N2281 C2273 1.427 . S
N2281 C2279 1.384 . S
H2282 C2288 0.930 . S
H2283 C2292 0.930 . S
H2284 C2297 0.929 . S
H2285 C2295 0.929 . S
H2286 C2290 0.929 . S
H2287 C2296 0.929 . S
C2288 H2282 0.930 . S
C2288 C2289 1.367 . S
C2288 C2296 1.378 . S
C2289 C2288 1.367 . S
C2289 C2297 1.433 . S
C2290 H2286 0.929 . S
C2290 C2292 1.378 . S
C2290 C2294 1.350 . S
C2291 C2294 1.463 . S
C2291 C2296 1.350 . S
C2291 N2299 1.427 . S
C2292 H2283 0.930 . S
C2292 C2290 1.378 . S
C2292 C2293 1.367 . S
C2293 C2292 1.367 . S
C2293 C2295 1.433 . S
C2294 C2290 1.350 . S
C2294 C2291 1.463 . S
C2294 N2298 1.427 . S
C2295 H2285 0.929 . S
C2295 C2293 1.433 . S
C2295 N2298 1.384 . S
C2296 H2287 0.929 . S
C2296 C2288 1.378 . S
C2296 C2291 1.350 . S
C2297 H2284 0.929 . S
C2297 C2289 1.433 . S
C2297 N2299 1.384 . S
N2298 C2294 1.427 . S
N2298 C2295 1.384 . S
N2299 C2291 1.427 . S
N2299 C2297 1.384 . S
H2300 C2306 0.930 . S
H2301 C2310 0.930 . S
H2302 C2315 0.929 . S
H2303 C2313 0.929 . S
H2304 C2308 0.929 . S
H2305 C2314 0.929 . S
C2306 H2300 0.930 . S
C2306 C2307 1.367 . S
C2306 C2314 1.378 . S
C2307 C2306 1.367 . S
C2307 C2315 1.433 . S
C2308 H2304 0.929 . S
C2308 C2310 1.378 . S
C2308 C2312 1.350 . S
C2309 C2312 1.463 . S
C2309 C2314 1.350 . S
C2309 N2317 1.427 . S
C2310 H2301 0.930 . S
C2310 C2308 1.378 . S
C2310 C2311 1.367 . S
C2311 C2310 1.367 . S
C2311 C2313 1.433 . S
C2312 C2308 1.350 . S
C2312 C2309 1.463 . S
C2312 N2316 1.427 . S
C2313 H2303 0.929 . S
C2313 C2311 1.433 . S
C2313 N2316 1.384 . S
C2314 H2305 0.929 . S
C2314 C2306 1.378 . S
C2314 C2309 1.350 . S
C2315 H2302 0.929 . S
C2315 C2307 1.433 . S
C2315 N2317 1.384 . S
N2316 C2312 1.427 . S
N2316 C2313 1.384 . S
N2317 C2309 1.427 . S
N2317 C2315 1.384 . S
H2318 C2324 0.930 . S
H2319 C2328 0.930 . S
H2320 C2333 0.929 . S
H2321 C2331 0.929 . S
H2322 C2326 0.929 . S
H2323 C2332 0.929 . S
C2324 H2318 0.930 . S
C2324 C2325 1.367 . S
C2324 C2332 1.378 . S
C2325 C2324 1.367 . S
C2325 C2333 1.433 . S
C2326 H2322 0.929 . S
C2326 C2328 1.378 . S
C2326 C2330 1.350 . S
C2327 C2330 1.463 . S
C2327 C2332 1.350 . S
C2327 N2335 1.427 . S
C2328 H2319 0.930 . S
C2328 C2326 1.378 . S
C2328 C2329 1.367 . S
C2329 C2328 1.367 . S
C2329 C2331 1.433 . S
C2330 C2326 1.350 . S
C2330 C2327 1.463 . S
C2330 N2334 1.427 . S
C2331 H2321 0.929 . S
C2331 C2329 1.433 . S
C2331 N2334 1.384 . S
C2332 H2323 0.929 . S
C2332 C2324 1.378 . S
C2332 C2327 1.350 . S
C2333 H2320 0.929 . S
C2333 C2325 1.433 . S
C2333 N2335 1.384 . S
N2334 C2330 1.427 . S
N2334 C2331 1.384 . S
N2335 C2327 1.427 . S
N2335 C2333 1.384 . S
H2336 C2342 0.930 . S
H2337 C2346 0.930 . S
H2338 C2351 0.929 . S
H2339 C2349 0.929 . S
H2340 C2344 0.929 . S
H2341 C2350 0.929 . S
C2342 H2336 0.930 . S
C2342 C2343 1.367 . S
C2342 C2350 1.378 . S
C2343 C2342 1.367 . S
C2343 C2351 1.433 . S
C2344 H2340 0.929 . S
C2344 C2346 1.378 . S
C2344 C2348 1.350 . S
C2345 C2348 1.463 . S
C2345 C2350 1.350 . S
C2345 N2353 1.427 . S
C2346 H2337 0.930 . S
C2346 C2344 1.378 . S
C2346 C2347 1.367 . S
C2347 C2346 1.367 . S
C2347 C2349 1.433 . S
C2348 C2344 1.350 . S
C2348 C2345 1.463 . S
C2348 N2352 1.427 . S
C2349 H2339 0.929 . S
C2349 C2347 1.433 . S
C2349 N2352 1.384 . S
C2350 H2341 0.929 . S
C2350 C2342 1.378 . S
C2350 C2345 1.350 . S
C2351 H2338 0.929 . S
C2351 C2343 1.433 . S
C2351 N2353 1.384 . S
N2352 C2348 1.427 . S
N2352 C2349 1.384 . S
N2353 C2345 1.427 . S
N2353 C2351 1.384 . S
H2354 C2360 0.930 . S
H2355 C2364 0.930 . S
H2356 C2369 0.929 . S
H2357 C2367 0.929 . S
H2358 C2362 0.929 . S
H2359 C2368 0.929 . S
C2360 H2354 0.930 . S
C2360 C2361 1.367 . S
C2360 C2368 1.378 . S
C2361 C2360 1.367 . S
C2361 C2369 1.433 . S
C2362 H2358 0.929 . S
C2362 C2364 1.378 . S
C2362 C2366 1.350 . S
C2363 C2366 1.463 . S
C2363 C2368 1.350 . S
C2363 N2371 1.427 . S
C2364 H2355 0.930 . S
C2364 C2362 1.378 . S
C2364 C2365 1.367 . S
C2365 C2364 1.367 . S
C2365 C2367 1.433 . S
C2366 C2362 1.350 . S
C2366 C2363 1.463 . S
C2366 N2370 1.427 . S
C2367 H2357 0.929 . S
C2367 C2365 1.433 . S
C2367 N2370 1.384 . S
C2368 H2359 0.929 . S
C2368 C2360 1.378 . S
C2368 C2363 1.350 . S
C2369 H2356 0.929 . S
C2369 C2361 1.433 . S
C2369 N2371 1.384 . S
N2370 C2366 1.427 . S
N2370 C2367 1.384 . S
N2371 C2363 1.427 . S
N2371 C2369 1.384 . S
H2372 C2378 0.930 . S
H2373 C2382 0.930 . S
H2374 C2387 0.929 . S
H2375 C2385 0.929 . S
H2376 C2380 0.929 . S
H2377 C2386 0.929 . S
C2378 H2372 0.930 . S
C2378 C2379 1.367 . S
C2378 C2386 1.378 . S
C2379 C2378 1.367 . S
C2379 C2387 1.433 . S
C2380 H2376 0.929 . S
C2380 C2382 1.378 . S
C2380 C2384 1.350 . S
C2381 C2384 1.463 . S
C2381 C2386 1.350 . S
C2381 N2389 1.427 . S
C2382 H2373 0.930 . S
C2382 C2380 1.378 . S
C2382 C2383 1.367 . S
C2383 C2382 1.367 . S
C2383 C2385 1.433 . S
C2384 C2380 1.350 . S
C2384 C2381 1.463 . S
C2384 N2388 1.427 . S
C2385 H2375 0.929 . S
C2385 C2383 1.433 . S
C2385 N2388 1.384 . S
C2386 H2377 0.929 . S
C2386 C2378 1.378 . S
C2386 C2381 1.350 . S
C2387 H2374 0.929 . S
C2387 C2379 1.433 . S
C2387 N2389 1.384 . S
N2388 C2384 1.427 . S
N2388 C2385 1.384 . S
N2389 C2381 1.427 . S
N2389 C2387 1.384 . S
H2390 C2396 0.930 . S
H2391 C2400 0.930 . S
H2392 C2405 0.929 . S
H2393 C2403 0.929 . S
H2394 C2398 0.929 . S
H2395 C2404 0.929 . S
C2396 H2390 0.930 . S
C2396 C2397 1.367 1_556 S
C2396 C2404 1.378 . S
C2397 C2396 1.367 1_554 S
C2397 C2405 1.433 . S
C2398 H2394 0.929 . S
C2398 C2400 1.378 . S
C2398 C2402 1.350 . S
C2399 C2402 1.463 . S
C2399 C2404 1.350 1_554 S
C2399 N2407 1.427 . S
C2400 H2391 0.930 . S
C2400 C2398 1.378 . S
C2400 C2401 1.367 . S
C2401 C2400 1.367 . S
C2401 C2403 1.433 1_554 S
C2402 C2398 1.350 . S
C2402 C2399 1.463 . S
C2402 N2406 1.427 1_554 S
C2403 H2393 0.929 . S
C2403 C2401 1.433 1_556 S
C2403 N2406 1.384 . S
C2404 H2395 0.929 . S
C2404 C2396 1.378 . S
C2404 C2399 1.350 1_556 S
C2405 H2392 0.929 . S
C2405 C2397 1.433 . S
C2405 N2407 1.384 . S
N2406 C2402 1.427 1_556 S
N2406 C2403 1.384 . S
N2407 C2399 1.427 . S
N2407 C2405 1.384 . S
H2408 C2414 0.930 . S
H2409 C2418 0.930 . S
H2410 C2423 0.929 . S
H2411 C2421 0.929 . S
H2412 C2416 0.929 . S
H2413 C2422 0.929 . S
C2414 H2408 0.930 . S
C2414 C2415 1.367 . S
C2414 C2422 1.378 . S
C2415 C2414 1.367 . S
C2415 C2423 1.433 . S
C2416 H2412 0.929 . S
C2416 C2418 1.378 . S
C2416 C2420 1.350 . S
C2417 C2420 1.463 . S
C2417 C2422 1.350 . S
C2417 N2425 1.427 . S
C2418 H2409 0.930 . S
C2418 C2416 1.378 . S
C2418 C2419 1.367 . S
C2419 C2418 1.367 . S
C2419 C2421 1.433 . S
C2420 C2416 1.350 . S
C2420 C2417 1.463 . S
C2420 N2424 1.427 . S
C2421 H2411 0.929 . S
C2421 C2419 1.433 . S
C2421 N2424 1.384 . S
C2422 H2413 0.929 . S
C2422 C2414 1.378 . S
C2422 C2417 1.350 . S
C2423 H2410 0.929 . S
C2423 C2415 1.433 . S
C2423 N2425 1.384 . S
N2424 C2420 1.427 . S
N2424 C2421 1.384 . S
N2425 C2417 1.427 . S
N2425 C2423 1.384 . S
H2426 C2432 0.930 . S
H2427 C2436 0.930 1_556 S
H2428 C2441 0.929 . S
H2429 C2439 0.929 . S
H2430 C2434 0.929 . S
H2431 C2440 0.929 . S
C2432 H2426 0.930 . S
C2432 C2433 1.367 . S
C2432 C2440 1.378 . S
C2433 C2432 1.367 . S
C2433 C2441 1.433 1_554 S
C2434 H2430 0.929 . S
C2434 C2436 1.378 1_556 S
C2434 C2438 1.350 1_556 S
C2435 C2438 1.463 . S
C2435 C2440 1.350 . S
C2435 N2443 1.427 1_554 S
C2436 H2427 0.930 1_554 S
C2436 C2434 1.378 1_554 S
C2436 C2437 1.367 . S
C2437 C2436 1.367 . S
C2437 C2439 1.433 . S
C2438 C2434 1.350 1_554 S
C2438 C2435 1.463 . S
C2438 N2442 1.427 . S
C2439 H2429 0.929 . S
C2439 C2437 1.433 . S
C2439 N2442 1.384 . S
C2440 H2431 0.929 . S
C2440 C2432 1.378 . S
C2440 C2435 1.350 . S
C2441 H2428 0.929 . S
C2441 C2433 1.433 1_556 S
C2441 N2443 1.384 . S
N2442 C2438 1.427 . S
N2442 C2439 1.384 . S
N2443 C2435 1.427 1_556 S
N2443 C2441 1.384 . S
H2444 C2450 0.930 . S
H2445 C2454 0.930 . S
H2446 C2459 0.929 . S
H2447 C2457 0.929 . S
H2448 C2452 0.929 . S
H2449 C2458 0.929 . S
C2450 H2444 0.930 . S
C2450 C2451 1.367 . S
C2450 C2458 1.378 . S
C2451 C2450 1.367 . S
C2451 C2459 1.433 . S
C2452 H2448 0.929 . S
C2452 C2454 1.378 . S
C2452 C2456 1.350 . S
C2453 C2456 1.463 . S
C2453 C2458 1.350 . S
C2453 N2461 1.427 . S
C2454 H2445 0.930 . S
C2454 C2452 1.378 . S
C2454 C2455 1.367 . S
C2455 C2454 1.367 . S
C2455 C2457 1.433 . S
C2456 C2452 1.350 . S
C2456 C2453 1.463 . S
C2456 N2460 1.427 . S
C2457 H2447 0.929 . S
C2457 C2455 1.433 . S
C2457 N2460 1.384 . S
C2458 H2449 0.929 . S
C2458 C2450 1.378 . S
C2458 C2453 1.350 . S
C2459 H2446 0.929 . S
C2459 C2451 1.433 . S
C2459 N2461 1.384 . S
N2460 C2456 1.427 . S
N2460 C2457 1.384 . S
N2461 C2453 1.427 . S
N2461 C2459 1.384 . S
H2462 C2468 0.930 . S
H2463 C2472 0.930 . S
H2464 C2477 0.929 . S
H2465 C2475 0.929 . S
H2466 C2470 0.929 . S
H2467 C2476 0.929 . S
C2468 H2462 0.930 . S
C2468 C2469 1.367 . S
C2468 C2476 1.378 . S
C2469 C2468 1.367 . S
C2469 C2477 1.433 . S
C2470 H2466 0.929 . S
C2470 C2472 1.378 . S
C2470 C2474 1.350 . S
C2471 C2474 1.463 . S
C2471 C2476 1.350 . S
C2471 N2479 1.427 . S
C2472 H2463 0.930 . S
C2472 C2470 1.378 . S
C2472 C2473 1.367 . S
C2473 C2472 1.367 . S
C2473 C2475 1.433 . S
C2474 C2470 1.350 . S
C2474 C2471 1.463 . S
C2474 N2478 1.427 . S
C2475 H2465 0.929 . S
C2475 C2473 1.433 . S
C2475 N2478 1.384 . S
C2476 H2467 0.929 . S
C2476 C2468 1.378 . S
C2476 C2471 1.350 . S
C2477 H2464 0.929 . S
C2477 C2469 1.433 . S
C2477 N2479 1.384 . S
N2478 C2474 1.427 . S
N2478 C2475 1.384 . S
N2479 C2471 1.427 . S
N2479 C2477 1.384 . S
H2480 C2486 0.930 . S
H2481 C2490 0.930 . S
H2482 C2495 0.929 . S
H2483 C2493 0.929 . S
H2484 C2488 0.929 . S
H2485 C2494 0.929 . S
C2486 H2480 0.930 . S
C2486 C2487 1.367 . S
C2486 C2494 1.378 . S
C2487 C2486 1.367 . S
C2487 C2495 1.433 . S
C2488 H2484 0.929 . S
C2488 C2490 1.378 . S
C2488 C2492 1.350 . S
C2489 C2492 1.463 . S
C2489 C2494 1.350 . S
C2489 N2497 1.427 . S
C2490 H2481 0.930 . S
C2490 C2488 1.378 . S
C2490 C2491 1.367 . S
C2491 C2490 1.367 . S
C2491 C2493 1.433 . S
C2492 C2488 1.350 . S
C2492 C2489 1.463 . S
C2492 N2496 1.427 . S
C2493 H2483 0.929 . S
C2493 C2491 1.433 . S
C2493 N2496 1.384 . S
C2494 H2485 0.929 . S
C2494 C2486 1.378 . S
C2494 C2489 1.350 . S
C2495 H2482 0.929 . S
C2495 C2487 1.433 . S
C2495 N2497 1.384 . S
N2496 C2492 1.427 . S
N2496 C2493 1.384 . S
N2497 C2489 1.427 . S
N2497 C2495 1.384 . S
H2498 C2504 0.930 . S
H2499 C2508 0.930 . S
H2500 C2513 0.929 . S
H2501 C2511 0.929 . S
H2502 C2506 0.929 . S
H2503 C2512 0.929 . S
C2504 H2498 0.930 . S
C2504 C2505 1.367 . S
C2504 C2512 1.378 . S
C2505 C2504 1.367 . S
C2505 C2513 1.433 . S
C2506 H2502 0.929 . S
C2506 C2508 1.378 . S
C2506 C2510 1.350 . S
C2507 C2510 1.463 . S
C2507 C2512 1.350 . S
C2507 N2515 1.427 . S
C2508 H2499 0.930 . S
C2508 C2506 1.378 . S
C2508 C2509 1.367 . S
C2509 C2508 1.367 . S
C2509 C2511 1.433 . S
C2510 C2506 1.350 . S
C2510 C2507 1.463 . S
C2510 N2514 1.427 . S
C2511 H2501 0.929 . S
C2511 C2509 1.433 . S
C2511 N2514 1.384 . S
C2512 H2503 0.929 . S
C2512 C2504 1.378 . S
C2512 C2507 1.350 . S
C2513 H2500 0.929 . S
C2513 C2505 1.433 . S
C2513 N2515 1.384 . S
N2514 C2510 1.427 . S
N2514 C2511 1.384 . S
N2515 C2507 1.427 . S
N2515 C2513 1.384 . S
H2516 C2522 0.930 1_655 S
H2517 C2526 0.930 . S
H2518 C2531 0.929 . S
H2519 C2529 0.929 1_655 S
H2520 C2524 0.929 . S
H2521 C2530 0.929 1_655 S
C2522 H2516 0.930 1_455 S
C2522 C2523 1.367 . S
C2522 C2530 1.378 . S
C2523 C2522 1.367 . S
C2523 C2531 1.433 . S
C2524 H2520 0.929 . S
C2524 C2526 1.378 . S
C2524 C2528 1.350 . S
C2525 C2528 1.463 . S
C2525 C2530 1.350 . S
C2525 N2533 1.427 . S
C2526 H2517 0.930 . S
C2526 C2524 1.378 . S
C2526 C2527 1.367 . S
C2527 C2526 1.367 . S
C2527 C2529 1.433 . S
C2528 C2524 1.350 . S
C2528 C2525 1.463 . S
C2528 N2532 1.427 . S
C2529 H2519 0.929 1_455 S
C2529 C2527 1.433 . S
C2529 N2532 1.384 . S
C2530 H2521 0.929 1_455 S
C2530 C2522 1.378 . S
C2530 C2525 1.350 . S
C2531 H2518 0.929 . S
C2531 C2523 1.433 . S
C2531 N2533 1.384 . S
N2532 C2528 1.427 . S
N2532 C2529 1.384 . S
N2533 C2525 1.427 . S
N2533 C2531 1.384 . S
H2534 C2540 0.930 . S
H2535 C2544 0.930 . S
H2536 C2549 0.929 . S
H2537 C2547 0.929 . S
H2538 C2542 0.929 . S
H2539 C2548 0.929 . S
C2540 H2534 0.930 . S
C2540 C2541 1.367 . S
C2540 C2548 1.378 . S
C2541 C2540 1.367 . S
C2541 C2549 1.433 . S
C2542 H2538 0.929 . S
C2542 C2544 1.378 . S
C2542 C2546 1.350 . S
C2543 C2546 1.463 . S
C2543 C2548 1.350 . S
C2543 N2551 1.427 . S
C2544 H2535 0.930 . S
C2544 C2542 1.378 . S
C2544 C2545 1.367 . S
C2545 C2544 1.367 . S
C2545 C2547 1.433 . S
C2546 C2542 1.350 . S
C2546 C2543 1.463 . S
C2546 N2550 1.427 . S
C2547 H2537 0.929 . S
C2547 C2545 1.433 . S
C2547 N2550 1.384 . S
C2548 H2539 0.929 . S
C2548 C2540 1.378 . S
C2548 C2543 1.350 . S
C2549 H2536 0.929 . S
C2549 C2541 1.433 . S
C2549 N2551 1.384 . S
N2550 C2546 1.427 . S
N2550 C2547 1.384 . S
N2551 C2543 1.427 . S
N2551 C2549 1.384 . S
H2552 C2558 0.930 . S
H2553 C2562 0.930 1_554 S
H2554 C2567 0.929 . S
H2555 C2565 0.929 . S
H2556 C2560 0.929 . S
H2557 C2566 0.929 . S
C2558 H2552 0.930 . S
C2558 C2559 1.367 . S
C2558 C2566 1.378 . S
C2559 C2558 1.367 . S
C2559 C2567 1.433 . S
C2560 H2556 0.929 . S
C2560 C2562 1.378 . S
C2560 C2564 1.350 . S
C2561 C2564 1.463 . S
C2561 C2566 1.350 . S
C2561 N2569 1.427 . S
C2562 H2553 0.930 1_556 S
C2562 C2560 1.378 . S
C2562 C2563 1.367 . S
C2563 C2562 1.367 . S
C2563 C2565 1.433 . S
C2564 C2560 1.350 . S
C2564 C2561 1.463 . S
C2564 N2568 1.427 . S
C2565 H2555 0.929 . S
C2565 C2563 1.433 . S
C2565 N2568 1.384 . S
C2566 H2557 0.929 . S
C2566 C2558 1.378 . S
C2566 C2561 1.350 . S
C2567 H2554 0.929 . S
C2567 C2559 1.433 . S
C2567 N2569 1.384 . S
N2568 C2564 1.427 . S
N2568 C2565 1.384 . S
N2569 C2561 1.427 . S
N2569 C2567 1.384 . S
H2570 C2576 0.930 . S
H2571 C2580 0.930 . S
H2572 C2585 0.929 . S
H2573 C2583 0.929 . S
H2574 C2578 0.929 . S
H2575 C2584 0.929 . S
C2576 H2570 0.930 . S
C2576 C2577 1.367 . S
C2576 C2584 1.378 . S
C2577 C2576 1.367 . S
C2577 C2585 1.433 . S
C2578 H2574 0.929 . S
C2578 C2580 1.378 . S
C2578 C2582 1.350 . S
C2579 C2582 1.463 . S
C2579 C2584 1.350 . S
C2579 N2587 1.427 . S
C2580 H2571 0.930 . S
C2580 C2578 1.378 . S
C2580 C2581 1.367 . S
C2581 C2580 1.367 . S
C2581 C2583 1.433 . S
C2582 C2578 1.350 . S
C2582 C2579 1.463 . S
C2582 N2586 1.427 . S
C2583 H2573 0.929 . S
C2583 C2581 1.433 . S
C2583 N2586 1.384 . S
C2584 H2575 0.929 . S
C2584 C2576 1.378 . S
C2584 C2579 1.350 . S
C2585 H2572 0.929 . S
C2585 C2577 1.433 . S
C2585 N2587 1.384 . S
N2586 C2582 1.427 . S
N2586 C2583 1.384 . S
N2587 C2579 1.427 . S
N2587 C2585 1.384 . S
H2588 C2594 0.930 . S
H2589 C2598 0.930 . S
H2590 C2603 0.929 . S
H2591 C2601 0.929 . S
H2592 C2596 0.929 . S
H2593 C2602 0.929 . S
C2594 H2588 0.930 . S
C2594 C2595 1.367 . S
C2594 C2602 1.378 . S
C2595 C2594 1.367 . S
C2595 C2603 1.433 . S
C2596 H2592 0.929 . S
C2596 C2598 1.378 . S
C2596 C2600 1.350 . S
C2597 C2600 1.463 . S
C2597 C2602 1.350 . S
C2597 N2605 1.427 . S
C2598 H2589 0.930 . S
C2598 C2596 1.378 . S
C2598 C2599 1.367 . S
C2599 C2598 1.367 . S
C2599 C2601 1.433 . S
C2600 C2596 1.350 . S
C2600 C2597 1.463 . S
C2600 N2604 1.427 . S
C2601 H2591 0.929 . S
C2601 C2599 1.433 . S
C2601 N2604 1.384 . S
C2602 H2593 0.929 . S
C2602 C2594 1.378 . S
C2602 C2597 1.350 . S
C2603 H2590 0.929 . S
C2603 C2595 1.433 . S
C2603 N2605 1.384 . S
N2604 C2600 1.427 . S
N2604 C2601 1.384 . S
N2605 C2597 1.427 . S
N2605 C2603 1.384 . S
H2606 C2612 0.930 . S
H2607 C2616 0.930 . S
H2608 C2621 0.929 . S
H2609 C2619 0.929 . S
H2610 C2614 0.929 . S
H2611 C2620 0.929 . S
C2612 H2606 0.930 . S
C2612 C2613 1.367 . S
C2612 C2620 1.378 . S
C2613 C2612 1.367 . S
C2613 C2621 1.433 . S
C2614 H2610 0.929 . S
C2614 C2616 1.378 . S
C2614 C2618 1.350 . S
C2615 C2618 1.463 . S
C2615 C2620 1.350 . S
C2615 N2623 1.427 . S
C2616 H2607 0.930 . S
C2616 C2614 1.378 . S
C2616 C2617 1.367 . S
C2617 C2616 1.367 . S
C2617 C2619 1.433 . S
C2618 C2614 1.350 . S
C2618 C2615 1.463 . S
C2618 N2622 1.427 . S
C2619 H2609 0.929 . S
C2619 C2617 1.433 . S
C2619 N2622 1.384 . S
C2620 H2611 0.929 . S
C2620 C2612 1.378 . S
C2620 C2615 1.350 . S
C2621 H2608 0.929 . S
C2621 C2613 1.433 . S
C2621 N2623 1.384 . S
N2622 C2618 1.427 . S
N2622 C2619 1.384 . S
N2623 C2615 1.427 . S
N2623 C2621 1.384 . S
H2624 C2630 0.930 . S
H2625 C2634 0.930 . S
H2626 C2639 0.929 . S
H2627 C2637 0.929 . S
H2628 C2632 0.929 . S
H2629 C2638 0.929 . S
C2630 H2624 0.930 . S
C2630 C2631 1.367 . S
C2630 C2638 1.378 . S
C2631 C2630 1.367 . S
C2631 C2639 1.433 . S
C2632 H2628 0.929 . S
C2632 C2634 1.378 . S
C2632 C2636 1.350 . S
C2633 C2636 1.463 . S
C2633 C2638 1.350 . S
C2633 N2641 1.427 . S
C2634 H2625 0.930 . S
C2634 C2632 1.378 . S
C2634 C2635 1.367 . S
C2635 C2634 1.367 . S
C2635 C2637 1.433 . S
C2636 C2632 1.350 . S
C2636 C2633 1.463 . S
C2636 N2640 1.427 . S
C2637 H2627 0.929 . S
C2637 C2635 1.433 . S
C2637 N2640 1.384 . S
C2638 H2629 0.929 . S
C2638 C2630 1.378 . S
C2638 C2633 1.350 . S
C2639 H2626 0.929 . S
C2639 C2631 1.433 . S
C2639 N2641 1.384 . S
N2640 C2636 1.427 . S
N2640 C2637 1.384 . S
N2641 C2633 1.427 . S
N2641 C2639 1.384 . S
H2642 C2648 0.930 . S
H2643 C2652 0.930 . S
H2644 C2657 0.929 . S
H2645 C2655 0.929 . S
H2646 C2650 0.929 . S
H2647 C2656 0.929 . S
C2648 H2642 0.930 . S
C2648 C2649 1.367 . S
C2648 C2656 1.378 . S
C2649 C2648 1.367 . S
C2649 C2657 1.433 . S
C2650 H2646 0.929 . S
C2650 C2652 1.378 . S
C2650 C2654 1.350 . S
C2651 C2654 1.463 . S
C2651 C2656 1.350 . S
C2651 N2659 1.427 . S
C2652 H2643 0.930 . S
C2652 C2650 1.378 . S
C2652 C2653 1.367 . S
C2653 C2652 1.367 . S
C2653 C2655 1.433 . S
C2654 C2650 1.350 . S
C2654 C2651 1.463 . S
C2654 N2658 1.427 . S
C2655 H2645 0.929 . S
C2655 C2653 1.433 . S
C2655 N2658 1.384 . S
C2656 H2647 0.929 . S
C2656 C2648 1.378 . S
C2656 C2651 1.350 . S
C2657 H2644 0.929 . S
C2657 C2649 1.433 . S
C2657 N2659 1.384 . S
N2658 C2654 1.427 . S
N2658 C2655 1.384 . S
N2659 C2651 1.427 . S
N2659 C2657 1.384 . S
H2660 C2666 0.930 . S
H2661 C2670 0.930 . S
H2662 C2675 0.929 . S
H2663 C2673 0.929 1_455 S
H2664 C2668 0.929 . S
H2665 C2674 0.929 . S
C2666 H2660 0.930 . S
C2666 C2667 1.367 . S
C2666 C2674 1.378 . S
C2667 C2666 1.367 . S
C2667 C2675 1.433 . S
C2668 H2664 0.929 . S
C2668 C2670 1.378 . S
C2668 C2672 1.350 . S
C2669 C2672 1.463 . S
C2669 C2674 1.350 . S
C2669 N2677 1.427 . S
C2670 H2661 0.930 . S
C2670 C2668 1.378 . S
C2670 C2671 1.367 . S
C2671 C2670 1.367 . S
C2671 C2673 1.433 . S
C2672 C2668 1.350 . S
C2672 C2669 1.463 . S
C2672 N2676 1.427 . S
C2673 H2663 0.929 1_655 S
C2673 C2671 1.433 . S
C2673 N2676 1.384 . S
C2674 H2665 0.929 . S
C2674 C2666 1.378 . S
C2674 C2669 1.350 . S
C2675 H2662 0.929 . S
C2675 C2667 1.433 . S
C2675 N2677 1.384 . S
N2676 C2672 1.427 . S
N2676 C2673 1.384 . S
N2677 C2669 1.427 . S
N2677 C2675 1.384 . S
H2678 C2684 0.930 . S
H2679 C2688 0.930 . S
H2680 C2693 0.929 . S
H2681 C2691 0.929 . S
H2682 C2686 0.929 . S
H2683 C2692 0.929 . S
C2684 H2678 0.930 . S
C2684 C2685 1.367 . S
C2684 C2692 1.378 . S
C2685 C2684 1.367 . S
C2685 C2693 1.433 . S
C2686 H2682 0.929 . S
C2686 C2688 1.378 . S
C2686 C2690 1.350 . S
C2687 C2690 1.463 . S
C2687 C2692 1.350 . S
C2687 N2695 1.427 . S
C2688 H2679 0.930 . S
C2688 C2686 1.378 . S
C2688 C2689 1.367 . S
C2689 C2688 1.367 . S
C2689 C2691 1.433 . S
C2690 C2686 1.350 . S
C2690 C2687 1.463 . S
C2690 N2694 1.427 . S
C2691 H2681 0.929 . S
C2691 C2689 1.433 . S
C2691 N2694 1.384 . S
C2692 H2683 0.929 . S
C2692 C2684 1.378 . S
C2692 C2687 1.350 . S
C2693 H2680 0.929 . S
C2693 C2685 1.433 . S
C2693 N2695 1.384 . S
N2694 C2690 1.427 . S
N2694 C2691 1.384 . S
N2695 C2687 1.427 . S
N2695 C2693 1.384 . S
H2696 C2702 0.930 . S
H2697 C2706 0.930 . S
H2698 C2711 0.929 . S
H2699 C2709 0.929 . S
H2700 C2704 0.929 . S
H2701 C2710 0.929 . S
C2702 H2696 0.930 . S
C2702 C2703 1.367 . S
C2702 C2710 1.378 . S
C2703 C2702 1.367 . S
C2703 C2711 1.433 . S
C2704 H2700 0.929 . S
C2704 C2706 1.378 . S
C2704 C2708 1.350 . S
C2705 C2708 1.463 . S
C2705 C2710 1.350 . S
C2705 N2713 1.427 . S
C2706 H2697 0.930 . S
C2706 C2704 1.378 . S
C2706 C2707 1.367 . S
C2707 C2706 1.367 . S
C2707 C2709 1.433 . S
C2708 C2704 1.350 . S
C2708 C2705 1.463 . S
C2708 N2712 1.427 . S
C2709 H2699 0.929 . S
C2709 C2707 1.433 . S
C2709 N2712 1.384 . S
C2710 H2701 0.929 . S
C2710 C2702 1.378 . S
C2710 C2705 1.350 . S
C2711 H2698 0.929 . S
C2711 C2703 1.433 . S
C2711 N2713 1.384 . S
N2712 C2708 1.427 . S
N2712 C2709 1.384 . S
N2713 C2705 1.427 . S
N2713 C2711 1.384 . S
H2714 C2720 0.930 . S
H2715 C2724 0.930 . S
H2716 C2729 0.929 . S
H2717 C2727 0.929 . S
H2718 C2722 0.929 . S
H2719 C2728 0.929 . S
C2720 H2714 0.930 . S
C2720 C2721 1.367 . S
C2720 C2728 1.378 . S
C2721 C2720 1.367 . S
C2721 C2729 1.433 . S
C2722 H2718 0.929 . S
C2722 C2724 1.378 . S
C2722 C2726 1.350 . S
C2723 C2726 1.463 . S
C2723 C2728 1.350 . S
C2723 N2731 1.427 . S
C2724 H2715 0.930 . S
C2724 C2722 1.378 . S
C2724 C2725 1.367 . S
C2725 C2724 1.367 . S
C2725 C2727 1.433 . S
C2726 C2722 1.350 . S
C2726 C2723 1.463 . S
C2726 N2730 1.427 . S
C2727 H2717 0.929 . S
C2727 C2725 1.433 . S
C2727 N2730 1.384 . S
C2728 H2719 0.929 . S
C2728 C2720 1.378 . S
C2728 C2723 1.350 . S
C2729 H2716 0.929 . S
C2729 C2721 1.433 . S
C2729 N2731 1.384 . S
N2730 C2726 1.427 . S
N2730 C2727 1.384 . S
N2731 C2723 1.427 . S
N2731 C2729 1.384 . S
H2732 C2738 0.930 . S
H2733 C2742 0.930 . S
H2734 C2747 0.929 . S
H2735 C2745 0.929 1_455 S
H2736 C2740 0.929 . S
H2737 C2746 0.929 . S
C2738 H2732 0.930 . S
C2738 C2739 1.367 . S
C2738 C2746 1.378 . S
C2739 C2738 1.367 . S
C2739 C2747 1.433 . S
C2740 H2736 0.929 . S
C2740 C2742 1.378 . S
C2740 C2744 1.350 . S
C2741 C2744 1.463 . S
C2741 C2746 1.350 . S
C2741 N2749 1.427 . S
C2742 H2733 0.930 . S
C2742 C2740 1.378 . S
C2742 C2743 1.367 . S
C2743 C2742 1.367 . S
C2743 C2745 1.433 . S
C2744 C2740 1.350 . S
C2744 C2741 1.463 . S
C2744 N2748 1.427 . S
C2745 H2735 0.929 1_655 S
C2745 C2743 1.433 . S
C2745 N2748 1.384 . S
C2746 H2737 0.929 . S
C2746 C2738 1.378 . S
C2746 C2741 1.350 . S
C2747 H2734 0.929 . S
C2747 C2739 1.433 . S
C2747 N2749 1.384 . S
N2748 C2744 1.427 . S
N2748 C2745 1.384 . S
N2749 C2741 1.427 . S
N2749 C2747 1.384 . S
H2750 C2756 0.930 . S
H2751 C2760 0.930 . S
H2752 C2765 0.929 . S
H2753 C2763 0.929 . S
H2754 C2758 0.929 . S
H2755 C2764 0.929 . S
C2756 H2750 0.930 . S
C2756 C2757 1.367 . S
C2756 C2764 1.378 . S
C2757 C2756 1.367 . S
C2757 C2765 1.433 . S
C2758 H2754 0.929 . S
C2758 C2760 1.378 . S
C2758 C2762 1.350 . S
C2759 C2762 1.463 . S
C2759 C2764 1.350 . S
C2759 N2767 1.427 . S
C2760 H2751 0.930 . S
C2760 C2758 1.378 . S
C2760 C2761 1.367 . S
C2761 C2760 1.367 . S
C2761 C2763 1.433 . S
C2762 C2758 1.350 . S
C2762 C2759 1.463 . S
C2762 N2766 1.427 . S
C2763 H2753 0.929 . S
C2763 C2761 1.433 . S
C2763 N2766 1.384 . S
C2764 H2755 0.929 . S
C2764 C2756 1.378 . S
C2764 C2759 1.350 . S
C2765 H2752 0.929 . S
C2765 C2757 1.433 . S
C2765 N2767 1.384 . S
N2766 C2762 1.427 . S
N2766 C2763 1.384 . S
N2767 C2759 1.427 . S
N2767 C2765 1.384 . S
H2768 C2774 0.930 . S
H2769 C2778 0.930 . S
H2770 C2783 0.929 . S
H2771 C2781 0.929 . S
H2772 C2776 0.929 . S
H2773 C2782 0.929 . S
C2774 H2768 0.930 . S
C2774 C2775 1.367 . S
C2774 C2782 1.378 . S
C2775 C2774 1.367 . S
C2775 C2783 1.433 . S
C2776 H2772 0.929 . S
C2776 C2778 1.378 . S
C2776 C2780 1.350 . S
C2777 C2780 1.463 . S
C2777 C2782 1.350 . S
C2777 N2785 1.427 . S
C2778 H2769 0.930 . S
C2778 C2776 1.378 . S
C2778 C2779 1.367 . S
C2779 C2778 1.367 . S
C2779 C2781 1.433 . S
C2780 C2776 1.350 . S
C2780 C2777 1.463 . S
C2780 N2784 1.427 . S
C2781 H2771 0.929 . S
C2781 C2779 1.433 . S
C2781 N2784 1.384 . S
C2782 H2773 0.929 . S
C2782 C2774 1.378 . S
C2782 C2777 1.350 . S
C2783 H2770 0.929 . S
C2783 C2775 1.433 . S
C2783 N2785 1.384 . S
N2784 C2780 1.427 . S
N2784 C2781 1.384 . S
N2785 C2777 1.427 . S
N2785 C2783 1.384 . S
H2786 C2792 0.930 . S
H2787 C2796 0.930 . S
H2788 C2801 0.929 . S
H2789 C2799 0.929 1_545 S
H2790 C2794 0.929 . S
H2791 C2800 0.929 . S
C2792 H2786 0.930 . S
C2792 C2793 1.367 . S
C2792 C2800 1.378 . S
C2793 C2792 1.367 . S
C2793 C2801 1.433 . S
C2794 H2790 0.929 . S
C2794 C2796 1.378 . S
C2794 C2798 1.350 . S
C2795 C2798 1.463 . S
C2795 C2800 1.350 . S
C2795 N2803 1.427 . S
C2796 H2787 0.930 . S
C2796 C2794 1.378 . S
C2796 C2797 1.367 . S
C2797 C2796 1.367 . S
C2797 C2799 1.433 . S
C2798 C2794 1.350 . S
C2798 C2795 1.463 . S
C2798 N2802 1.427 . S
C2799 H2789 0.929 1_565 S
C2799 C2797 1.433 . S
C2799 N2802 1.384 . S
C2800 H2791 0.929 . S
C2800 C2792 1.378 . S
C2800 C2795 1.350 . S
C2801 H2788 0.929 . S
C2801 C2793 1.433 . S
C2801 N2803 1.384 . S
N2802 C2798 1.427 . S
N2802 C2799 1.384 . S
N2803 C2795 1.427 . S
N2803 C2801 1.384 . S
H2804 C2810 0.930 . S
H2805 C2814 0.930 . S
H2806 C2819 0.929 . S
H2807 C2817 0.929 . S
H2808 C2812 0.929 . S
H2809 C2818 0.929 . S
C2810 H2804 0.930 . S
C2810 C2811 1.367 . S
C2810 C2818 1.378 . S
C2811 C2810 1.367 . S
C2811 C2819 1.433 . S
C2812 H2808 0.929 . S
C2812 C2814 1.378 . S
C2812 C2816 1.350 . S
C2813 C2816 1.463 . S
C2813 C2818 1.350 . S
C2813 N2821 1.427 . S
C2814 H2805 0.930 . S
C2814 C2812 1.378 . S
C2814 C2815 1.367 . S
C2815 C2814 1.367 . S
C2815 C2817 1.433 . S
C2816 C2812 1.350 . S
C2816 C2813 1.463 . S
C2816 N2820 1.427 . S
C2817 H2807 0.929 . S
C2817 C2815 1.433 . S
C2817 N2820 1.384 . S
C2818 H2809 0.929 . S
C2818 C2810 1.378 . S
C2818 C2813 1.350 . S
C2819 H2806 0.929 . S
C2819 C2811 1.433 . S
C2819 N2821 1.384 . S
N2820 C2816 1.427 . S
N2820 C2817 1.384 . S
N2821 C2813 1.427 . S
N2821 C2819 1.384 . S
H2822 C2828 0.930 . S
H2823 C2832 0.930 . S
H2824 C2837 0.929 . S
H2825 C2835 0.929 . S
H2826 C2830 0.929 . S
H2827 C2836 0.929 . S
C2828 H2822 0.930 . S
C2828 C2829 1.367 . S
C2828 C2836 1.378 . S
C2829 C2828 1.367 . S
C2829 C2837 1.433 . S
C2830 H2826 0.929 . S
C2830 C2832 1.378 . S
C2830 C2834 1.350 . S
C2831 C2834 1.463 . S
C2831 C2836 1.350 . S
C2831 N2839 1.427 . S
C2832 H2823 0.930 . S
C2832 C2830 1.378 . S
C2832 C2833 1.367 . S
C2833 C2832 1.367 . S
C2833 C2835 1.433 . S
C2834 C2830 1.350 . S
C2834 C2831 1.463 . S
C2834 N2838 1.427 . S
C2835 H2825 0.929 . S
C2835 C2833 1.433 . S
C2835 N2838 1.384 . S
C2836 H2827 0.929 . S
C2836 C2828 1.378 . S
C2836 C2831 1.350 . S
C2837 H2824 0.929 . S
C2837 C2829 1.433 . S
C2837 N2839 1.384 . S
N2838 C2834 1.427 . S
N2838 C2835 1.384 . S
N2839 C2831 1.427 . S
N2839 C2837 1.384 . S
H2840 C2846 0.930 . S
H2841 C2850 0.930 . S
H2842 C2855 0.929 . S
H2843 C2853 0.929 . S
H2844 C2848 0.929 . S
H2845 C2854 0.929 . S
C2846 H2840 0.930 . S
C2846 C2847 1.367 . S
C2846 C2854 1.378 . S
C2847 C2846 1.367 . S
C2847 C2855 1.433 . S
C2848 H2844 0.929 . S
C2848 C2850 1.378 . S
C2848 C2852 1.350 . S
C2849 C2852 1.463 . S
C2849 C2854 1.350 . S
C2849 N2857 1.427 . S
C2850 H2841 0.930 . S
C2850 C2848 1.378 . S
C2850 C2851 1.367 . S
C2851 C2850 1.367 . S
C2851 C2853 1.433 . S
C2852 C2848 1.350 . S
C2852 C2849 1.463 . S
C2852 N2856 1.427 . S
C2853 H2843 0.929 . S
C2853 C2851 1.433 . S
C2853 N2856 1.384 . S
C2854 H2845 0.929 . S
C2854 C2846 1.378 . S
C2854 C2849 1.350 . S
C2855 H2842 0.929 . S
C2855 C2847 1.433 . S
C2855 N2857 1.384 . S
N2856 C2852 1.427 . S
N2856 C2853 1.384 . S
N2857 C2849 1.427 . S
N2857 C2855 1.384 . S
H2858 C2864 0.930 . S
H2859 C2868 0.930 1_556 S
H2860 C2873 0.929 . S
H2861 C2871 0.929 . S
H2862 C2866 0.936 . S
H2863 C2872 0.929 . S
C2864 H2858 0.930 . S
C2864 C2865 1.367 . S
C2864 C2872 1.378 . S
C2865 C2864 1.367 . S
C2865 C2873 1.433 . S
C2866 H2862 0.936 . S
C2866 C2868 1.378 . S
C2866 C2870 1.350 . S
C2867 C2870 1.463 . S
C2867 C2872 1.350 . S
C2867 N2875 1.427 . S
C2868 H2859 0.930 1_554 S
C2868 C2866 1.378 . S
C2868 C2869 1.367 . S
C2869 C2868 1.367 . S
C2869 C2871 1.433 . S
C2870 C2866 1.350 . S
C2870 C2867 1.463 . S
C2870 N2874 1.427 . S
C2871 H2861 0.929 . S
C2871 C2869 1.433 . S
C2871 N2874 1.384 . S
C2872 H2863 0.929 . S
C2872 C2864 1.378 . S
C2872 C2867 1.350 . S
C2873 H2860 0.929 . S
C2873 C2865 1.433 . S
C2873 N2875 1.384 . S
N2874 C2870 1.427 . S
N2874 C2871 1.384 . S
N2875 C2867 1.427 . S
N2875 C2873 1.384 . S
H2876 C2882 0.930 . S
H2877 C2886 0.930 . S
H2878 C2891 0.929 . S
H2879 C2889 0.929 . S
H2880 C2884 0.929 . S
H2881 C2890 0.929 . S
C2882 H2876 0.930 . S
C2882 C2883 1.367 . S
C2882 C2890 1.378 . S
C2883 C2882 1.367 . S
C2883 C2891 1.433 . S
C2884 H2880 0.929 . S
C2884 C2886 1.378 . S
C2884 C2888 1.350 . S
C2885 C2888 1.463 . S
C2885 C2890 1.350 . S
C2885 N2893 1.427 . S
C2886 H2877 0.930 . S
C2886 C2884 1.378 . S
C2886 C2887 1.367 . S
C2887 C2886 1.367 . S
C2887 C2889 1.433 . S
C2888 C2884 1.350 . S
C2888 C2885 1.463 . S
C2888 N2892 1.427 . S
C2889 H2879 0.929 . S
C2889 C2887 1.433 . S
C2889 N2892 1.384 . S
C2890 H2881 0.929 . S
C2890 C2882 1.378 . S
C2890 C2885 1.350 . S
C2891 H2878 0.929 . S
C2891 C2883 1.433 . S
C2891 N2893 1.384 . S
N2892 C2888 1.427 . S
N2892 C2889 1.384 . S
N2893 C2885 1.427 . S
N2893 C2891 1.384 . S
H2894 C2900 0.930 . S
H2895 C2904 0.930 . S
H2896 C2909 0.929 . S
H2897 C2907 0.929 . S
H2898 C2902 0.929 . S
H2899 C2908 0.929 . S
C2900 H2894 0.930 . S
C2900 C2901 1.367 . S
C2900 C2908 1.378 . S
C2901 C2900 1.367 . S
C2901 C2909 1.433 . S
C2902 H2898 0.929 . S
C2902 C2904 1.378 . S
C2902 C2906 1.350 . S
C2903 C2906 1.463 . S
C2903 C2908 1.350 . S
C2903 N2911 1.427 . S
C2904 H2895 0.930 . S
C2904 C2902 1.378 . S
C2904 C2905 1.367 . S
C2905 C2904 1.367 . S
C2905 C2907 1.433 . S
C2906 C2902 1.350 . S
C2906 C2903 1.463 . S
C2906 N2910 1.427 . S
C2907 H2897 0.929 . S
C2907 C2905 1.433 . S
C2907 N2910 1.384 . S
C2908 H2899 0.929 . S
C2908 C2900 1.378 . S
C2908 C2903 1.350 . S
C2909 H2896 0.929 . S
C2909 C2901 1.433 . S
C2909 N2911 1.384 . S
N2910 C2906 1.427 . S
N2910 C2907 1.384 . S
N2911 C2903 1.427 . S
N2911 C2909 1.384 . S
C1191 C255 1.370 . S
C1195 C868 1.213 1_556 S
C1209 C147 1.470 . S
C1213 C903 1.431 . S
C1227 C184 1.061 . S
C1231 C908 0.996 . S
C1249 C933 1.374 . S
C1245 C220 1.444 . S
C1263 C40 1.401 . S
C1267 C953 1.332 . S
C1285 C968 1.058 . S
C1281 C74 1.135 . S
C1303 C1003 1.478 . S
C1299 C110 1.515 . S
C1317 C14 1.333 . S
C1321 C1008 1.170 . S
C1339 C883 1.532 1_655 S
C1335 C579 1.612 . S
C1353 C616 1.050 . S
C1357 C893 1.018 . S
C1375 C923 1.467 . S
C1371 C687 1.499 . S
C1393 C928 1.144 . S
C1389 C436 1.233 . S
C1407 C580 1.215 . S
C1411 C948 1.112 . S
C1429 C983 1.443 . S
C1425 C615 1.480 . S
C1447 C993 1.010 . S
C1443 C688 1.063 . S
C1465 C1023 1.527 . S
C1461 C435 1.596 . S
C1483 C873 1.307 . S
C1479 C410 1.407 . S
C1497 C722 1.796 . S
C1501 C1043 1.777 . S
C1519 C1053 1.497 . S
C1515 C842 1.584 . S
C1537 C1068 1.022 . S
C1533 C794 1.097 . S
C1551 C302 1.444 . S
C1555 C1013 1.343 . S
C1569 C338 1.543 . S
C1573 C913 1.476 . S
C1587 C830 1.828 . S
C1591 C1103 1.814 . S
C1609 C1108 1.035 . S
C1605 C758 1.118 . S
C1627 C866 1.191 . S
C1623 C158 1.295 . S
C1645 C1122 1.434 . S
C1641 C254 1.465 . S
C1659 C218 1.070 . S
C1663 C906 0.981 . S
C1677 C194 1.372 . S
C1681 C1096 1.346 . S
C1699 C956 1.316 . S
C1695 C3 1.390 . S
C1713 C111 1.018 . S
C1717 C1046 0.942 . S
C1735 C1002 1.426 1_556 S
C1731 C76 1.466 . S
C1753 C1126 1.231 . S
C1749 C50 1.329 . S
C1771 C882 1.494 . S
C1767 C364 1.588 . S
C1789 C1116 0.985 . S
C1785 C795 1.031 . S
C1803 C292 1.438 . S
C1807 C922 1.398 . S
C1821 C723 1.188 . S
C1825 C1086 1.071 . S
C1839 C363 1.198 . S
C1843 C946 1.108 . S
C1861 C1062 1.423 . S
C1857 C796 1.462 . S
C1875 C291 1.034 . S
C1879 C996 0.987 1_565 S
C1893 C724 1.603 . S
C1897 C1142 1.516 . S
C1911 C482 1.350 . S
C1915 C876 1.298 . S
C1929 C434 1.777 . S
C1933 C1042 1.755 . S
C1947 C662 1.484 . S
C1951 C976 1.472 . S
C1965 C614 1.083 . S
C1969 C1066 1.016 . S
C1987 C1136 1.329 . S
C1983 C698 1.381 . S
C2001 C554 1.466 . S
C2005 C916 1.449 . S
C2023 C942 1.750 . S
C2019 C650 1.768 . S
C2041 C886 1.027 . S
C2037 C506 1.096 . S
C2055 C183 1.366 . S
C2059 C1148 1.201 . S
C2077 C1123 1.430 . S
C2073 C219 1.471 . S
C2091 C256 1.063 . S
C2095 C1168 0.978 . S
C2109 C148 1.440 . S
C2113 C1093 1.360 . S
C2127 C122 1.441 . S
C2131 C1033 1.391 . S
C2149 C1048 1.004 . S
C2145 C2 1.068 . S
C2167 C1083 1.371 . S
C2163 C39 1.403 . S
C2185 C1128 1.245 . S
C2181 C86 1.379 . S
C2203 C1163 1.567 . S
C2199 C651 1.630 . S
C2217 C472 1.048 . S
C2221 C1113 1.016 . S
C2239 C1183 1.455 . S
C2235 C507 1.487 . S
C2257 C1088 1.143 . S
C2253 C544 1.236 . S
C2275 C1028 1.108 . S
C2271 C652 1.215 . S
C2289 C471 1.460 . S
C2293 C1063 1.423 . S
C2311 C1073 0.982 . S
C2307 C508 1.044 . S
C2325 C543 1.608 . S
C2329 C1143 1.541 . S
C2347 C1153 1.328 . S
C2343 C806 1.429 . S
C2361 C326 1.779 . S
C2365 C963 1.753 . S
C2383 C973 1.478 . S
C2379 C374 1.561 . S
C2401 C988 1.022 . S
C2397 C398 1.113 . S
C2419 C1133 1.316 . S
C2415 C770 1.431 . S
C2433 C734 1.536 1_554 S
C2437 C1173 1.450 . S
C2455 C943 1.806 . S
C2451 C362 1.815 . S
C2473 C888 1.075 . S
C2469 C290 1.135 . S
C2487 C230 1.304 . S
C2491 C1146 1.208 . S
C2509 C902 1.441 . S
C2505 C182 1.468 . S
C2523 C146 1.070 . S
C2527 C1166 1.001 . S
C2541 C266 1.375 . S
C2545 C936 1.345 . S
C2559 C75 1.447 . S
C2563 C1036 1.373 . S
C2581 C966 1.026 . S
C2577 C38 1.120 . S
C2595 C4 1.391 . S
C2599 C1082 1.364 . S
C2613 C112 1.360 . S
C2617 C1006 1.190 . S
C2635 C1162 1.510 . S
C2631 C832 1.591 . S
C2649 C399 1.035 . S
C2653 C896 0.965 . S
C2671 C1182 1.400 1_655 S
C2667 C760 1.430 . S
C2685 C327 1.184 . S
C2689 C926 1.078 . S
C2703 C831 1.217 . S
C2707 C1026 1.108 . S
C2725 C982 1.429 . S
C2721 C400 1.455 . S
C2739 C759 1.040 . S
C2743 C1076 0.975 . S
C2761 C1022 1.533 . S
C2757 C328 1.603 . S
C2779 C1156 1.313 . S
C2775 C626 1.372 . S
C2797 C962 1.751 . S
C2793 C542 1.778 . S
C2811 C590 1.458 . S
C2815 C1056 1.442 . S
C2833 C986 0.998 . S
C2829 C470 1.087 . S
C2847 C518 1.349 . S
C2851 C1016 1.301 . S
C2865 C446 1.462 . S
C2869 C1176 1.433 . S
C2887 C1102 1.756 . S
C2883 C578 1.779 . S
C2905 C1106 0.995 . S
C2901 C686 1.078 . S
