# Generated by pormake.
# Topology nia, (6,6)-cn, num edge types: 1
# Building blocks:
#     Node 0, Type 0, BuildingBlock: CUWYAW_clean_sbu_0, # of connection points: 6
#     Node 1, Type 0, BuildingBlock: CUWYAW_clean_sbu_0, # of connection points: 6
#     Node 2, Type 1, BuildingBlock: MIDCAF_clean_sbu_0, # of connection points: 6
#     Node 3, Type 1, BuildingBlock: MIDCAF_clean_sbu_0, # of connection points: 6
#     Edge 4, Type (0, 1), BuildingBlock: XIVTED_clean_linker_0, # of connection points: 2
#     Edge 5, Type (0, 1), BuildingBlock: XIVTED_clean_linker_0, # of connection points: 2
#     Edge 6, Type (0, 1), BuildingBlock: XIVTED_clean_linker_0, # of connection points: 2
#     Edge 7, Type (0, 1), BuildingBlock: XIVTED_clean_linker_0, # of connection points: 2
#     Edge 8, Type (0, 1), BuildingBlock: XIVTED_clean_linker_0, # of connection points: 2
#     Edge 9, Type (0, 1), BuildingBlock: XIVTED_clean_linker_0, # of connection points: 2
#     Edge 10, Type (0, 1), BuildingBlock: XIVTED_clean_linker_0, # of connection points: 2
#     Edge 11, Type (0, 1), BuildingBlock: XIVTED_clean_linker_0, # of connection points: 2
#     Edge 12, Type (0, 1), BuildingBlock: XIVTED_clean_linker_0, # of connection points: 2
#     Edge 13, Type (0, 1), BuildingBlock: XIVTED_clean_linker_0, # of connection points: 2
#     Edge 14, Type (0, 1), BuildingBlock: XIVTED_clean_linker_0, # of connection points: 2
#     Edge 15, Type (0, 1), BuildingBlock: XIVTED_clean_linker_0, # of connection points: 2
# Relax obj value: 0.286
# Max RMSD: 0.270
# Mean RMSD: 0.235
data_MOF--net-nia--node1-CUWYAW_clean_sbu_0--node2-MIDCAF_clean_sbu_0--edge1-XIVTED_clean_linker_0
_symmetry_space_group_name_H-M    P1
_symmetry_Int_Tables_number       1
_symmetry_cell_setting            triclinic
loop_
_symmetry_equiv_pos_as_xyz
'x, y, z'
_cell_length_a     28.41676
_cell_length_b     25.545172
_cell_length_c     35.255646
_cell_angle_alpha  102.16745
_cell_angle_beta   71.567946
_cell_angle_gamma 129.3145
loop_
_atom_site_label
_atom_site_type_symbol
_atom_site_fract_x
_atom_site_fract_y
_atom_site_fract_z
_atom_type_partial_charge
C0 C 0.07083 0.94355 0.0602 0.0
Eu1 Eu 0.02578 0.98478 0.03185 0.0
C2 C 0.06674 0.88495 0.06474 0.0
C3 C 0.01505 0.83165 0.09033 0.0
C4 C 0.01862 0.78463 0.10074 0.0
C5 C 0.07407 0.79072 0.08603 0.0
C6 C 0.12339 0.84078 0.05773 0.0
C7 C 0.11969 0.88738 0.04726 0.0
C8 C 0.91529 0.96508 0.06401 0.0
C9 C 0.96278 0.89145 0.95827 0.0
C10 C 0.93114 0.06835 0.96282 0.0
Eu11 Eu 0.99037 0.03575 0.98176 0.0
C12 C 0.94022 0.12863 0.95417 0.0
C13 C 0.97077 0.15687 0.91585 0.0
C14 C 0.96605 0.20302 0.90551 0.0
C15 C 0.93051 0.22135 0.93328 0.0
C16 C 0.90678 0.19944 0.97293 0.0
C17 C 0.911 0.15295 0.98315 0.0
C18 C 0.11331 0.08757 0.95087 0.0
C19 C 0.07143 0.13379 0.04658 0.0
O20 O 0.0936 0.96723 0.02412 0.0
O21 O 0.02535 0.94625 0.08141 0.0
O22 O 0.955 0.98458 0.08432 0.0
O23 O 0.93539 0.9564 0.0276 0.0
O24 O 0.98738 0.89978 0.98718 0.0
O25 O 0.95524 0.93447 0.9516 0.0
O26 O 0.9271 0.06171 0.99983 0.0
O27 O 0.96188 0.04892 0.93625 0.0
O28 O 0.08403 0.09819 0.93572 0.0
O29 O 0.07549 0.04981 0.98049 0.0
O30 O 0.0268 0.1161 0.03058 0.0
O31 O 0.08762 0.0949 0.04387 0.0
H32 H 0.97332 0.82832 0.10395 0.0
H33 H 0.97928 0.74579 0.12196 0.0
H34 H 0.16711 0.84776 0.04603 0.0
H35 H 0.16015 0.9282 0.0275 0.0
H36 H 0.9945 0.13986 0.893 0.0
H37 H 0.9853 0.21921 0.87477 0.0
H38 H 0.88073 0.21421 0.99535 0.0
H39 H 0.88772 0.13276 0.0131 0.0
C40 C 0.90095 0.95775 0.43558 0.0
Eu41 Eu 0.96543 0.98497 0.48419 0.0
C42 C 0.83991 0.94097 0.43906 0.0
C43 C 0.78351 0.88221 0.45827 0.0
C44 C 0.72649 0.86127 0.45417 0.0
C45 C 0.72557 0.89866 0.43065 0.0
C46 C 0.78122 0.96203 0.41649 0.0
C47 C 0.83809 0.9827 0.42037 0.0
C48 C 0.93093 0.9065 0.54492 0.0
C49 C 0.95368 0.0755 0.56246 0.0
C50 C 0.13847 0.09805 0.58194 0.0
Eu51 Eu 0.06988 0.06886 0.53568 0.0
C52 C 0.19573 0.10463 0.57626 0.0
C53 C 0.25542 0.16613 0.56422 0.0
C54 C 0.30867 0.17516 0.5656 0.0
C55 C 0.30295 0.12313 0.57931 0.0
C56 C 0.24436 0.05939 0.58682 0.0
C57 C 0.19099 0.05032 0.58558 0.0
C58 C 0.10109 0.14601 0.47479 0.0
C59 C 0.08293 0.97999 0.45689 0.0
O60 O 0.94346 0.01952 0.44625 0.0
O61 O 0.90123 0.91207 0.44668 0.0
O62 O 0.89808 0.88763 0.51951 0.0
O63 O 0.97897 0.96746 0.53742 0.0
O64 O 0.93445 0.04034 0.52996 0.0
O65 O 0.00029 0.08714 0.57327 0.0
O66 O 0.08782 0.03693 0.57811 0.0
O67 O 0.1442 0.14451 0.56623 0.0
O68 O 0.13335 0.16764 0.50107 0.0
O69 O 0.05586 0.08445 0.48251 0.0
O70 O 0.10312 0.01597 0.48899 0.0
O71 O 0.03489 0.96681 0.44723 0.0
H72 H 0.78356 0.85026 0.47414 0.0
H73 H 0.68383 0.81297 0.4663 0.0
H74 H 0.78196 0.99225 0.39857 0.0
H75 H 0.88107 0.02909 0.40625 0.0
H76 H 0.26084 0.20863 0.55615 0.0
H77 H 0.35373 0.22468 0.55941 0.0
H78 H 0.23893 0.01867 0.59752 0.0
H79 H 0.14565 1.00203 0.59443 0.0
Zn80 Zn 0.34506 0.64027 0.15953 0.0
Zn81 Zn 0.23846 0.62411 0.37269 0.0
Zn82 Zn 0.32217 0.66387 0.26185 0.0
C83 C 0.35385 0.67394 0.34159 0.0
C84 C 0.22603 0.5207 0.31677 0.0
O85 O 0.26633 0.69172 0.25375 0.0
O86 O 0.29754 0.6669 0.19425 0.0
C87 C 0.45787 0.73717 0.19057 0.0
O88 O 0.32314 0.66078 0.31732 0.0
O89 O 0.32426 0.65797 0.37765 0.0
O90 O 0.19342 0.53922 0.3378 0.0
O91 O 0.27626 0.56159 0.28998 0.0
O92 O 0.43106 0.70537 0.16218 0.0
O93 O 0.42568 0.72809 0.2274 0.0
O94 O 0.27658 0.56099 0.24157 0.0
O95 O 0.3069 0.55092 0.17528 0.0
C96 C 0.27754 0.52597 0.20988 0.0
O97 O 0.28066 0.71881 0.29303 0.0
O98 O 0.24169 0.70004 0.35957 0.0
C99 C 0.26616 0.68446 0.21697 0.0
C100 C 0.25701 0.73084 0.32876 0.0
Zn101 Zn 0.68742 0.4166 0.82085 0.0
Zn102 Zn 0.78534 0.43053 0.69665 0.0
Zn103 Zn 0.70519 0.38273 0.75458 0.0
C104 C 0.78628 0.53109 0.71084 0.0
C105 C 0.66795 0.31469 0.68346 0.0
O106 O 0.76387 0.38049 0.78123 0.0
O107 O 0.69814 0.35445 0.83978 0.0
C108 C 0.80652 0.51062 0.7923 0.0
O109 O 0.73258 0.4783 0.72854 0.0
O110 O 0.83249 0.53007 0.69935 0.0
O111 O 0.70816 0.37508 0.67136 0.0
O112 O 0.67216 0.3007 0.71411 0.0
O113 O 0.76207 0.51262 0.81195 0.0
O114 O 0.79441 0.45757 0.77181 0.0
O115 O 0.60205 0.32714 0.79093 0.0
O116 O 0.60502 0.39471 0.8418 0.0
C117 C 0.57303 0.34117 0.8224 0.0
O118 O 0.73225 0.3133 0.72469 0.0
O119 O 0.82812 0.39056 0.69111 0.0
C120 C 0.74246 0.3553 0.81584 0.0
C121 C 0.78646 0.33063 0.70349 0.0
H122 H 0.03538 0.75799 0.16474 0.0
H123 H 0.28628 0.69916 0.13852 0.0
H124 H 0.14018 0.74089 0.05023 0.0
H125 H 0.1658 0.6876 0.2529 0.0
H126 H 0.22771 0.70707 0.1061 0.0
H127 H 0.07339 0.72084 0.19722 0.0
C128 C 0.06505 0.74476 0.14621 0.0
C129 C 0.08523 0.7536 0.10461 0.0
C130 C 0.21385 0.70301 0.13834 0.0
C131 C 0.13085 0.71345 0.14208 0.0
C132 C 0.24758 0.69886 0.1571 0.0
C133 C 0.2317 0.69415 0.19895 0.0
C134 C 0.16385 0.70324 0.1614 0.0
C135 C 0.18084 0.69346 0.22099 0.0
C136 C 0.08738 0.72431 0.16495 0.0
C137 C 0.12455 0.73651 0.08246 0.0
N138 N 0.14881 0.69841 0.20198 0.0
N139 N 0.14686 0.71834 0.10152 0.0
H140 H 0.36481 0.06698 0.56247 0.0
H141 H 0.57654 0.32631 0.71532 0.0
H142 H 0.35014 0.21577 0.63655 0.0
H143 H 0.62085 0.20596 0.63112 0.0
H144 H 0.47795 0.26469 0.69633 0.0
H145 H 0.44568 0.09868 0.59461 0.0
C146 C 0.37889 0.10635 0.58533 0.0
C147 C 0.3527 0.14057 0.59613 0.0
C148 C 0.50877 0.25116 0.68195 0.0
C149 C 0.4424 0.17516 0.63356 0.0
C150 C 0.56497 0.28643 0.69281 0.0
C151 C 0.60695 0.27215 0.67375 0.0
C152 C 0.495 0.20203 0.65117 0.0
C153 C 0.5898 0.21916 0.64556 0.0
C154 C 0.42442 0.12402 0.6038 0.0
C155 C 0.37086 0.18986 0.6265 0.0
N156 N 0.53519 0.18641 0.63452 0.0
N157 N 0.41451 0.20568 0.64401 0.0
H158 H 0.02149 0.19617 0.09262 0.0
H159 H 0.31557 0.44914 0.18879 0.0
H160 H 0.18729 0.20704 0.05881 0.0
H161 H 0.15146 0.441 0.22748 0.0
H162 H 0.26073 0.34674 0.14905 0.0
H163 H 0.06425 0.28134 0.14535 0.0
C164 C 0.0673 0.21748 0.09586 0.0
C165 C 0.10078 0.19447 0.07181 0.0
C166 C 0.23563 0.36572 0.16721 0.0
C167 C 0.14863 0.28907 0.13229 0.0
C168 C 0.26643 0.42301 0.19078 0.0
C169 C 0.23778 0.45308 0.21074 0.0
C170 C 0.17583 0.33873 0.16409 0.0
C171 C 0.17471 0.41873 0.21215 0.0
C172 C 0.09115 0.26498 0.12629 0.0
C173 C 0.15967 0.22296 0.07717 0.0
N174 N 0.14609 0.36406 0.18791 0.0
N175 N 0.18154 0.26849 0.10698 0.0
H176 H 0.91355 0.1262 0.53252 0.0
H177 H 0.78352 0.24339 0.74157 0.0
H178 H 0.92894 0.10044 0.64394 0.0
H179 H 0.82181 0.30997 0.62562 0.0
H180 H 0.82272 0.17756 0.70878 0.0
H181 H 0.86745 0.18201 0.56839 0.0
C182 C 0.90652 0.13167 0.56474 0.0
C183 C 0.92461 0.10812 0.58533 0.0
C184 C 0.82181 0.20613 0.69066 0.0
C185 C 0.87113 0.17212 0.62699 0.0
C186 C 0.79874 0.2428 0.70928 0.0
C187 C 0.79871 0.28123 0.68611 0.0
C188 C 0.84427 0.20787 0.64877 0.0
C189 C 0.82051 0.28047 0.6445 0.0
C190 C 0.88042 0.16393 0.58526 0.0
C191 C 0.91552 0.11789 0.62701 0.0
N192 N 0.84226 0.24459 0.62729 0.0
N193 N 0.88893 0.14881 0.64662 0.0
H194 H 0.81872 0.90764 0.0282 0.0
H195 H 0.55115 0.79877 0.23347 0.0
H196 H 0.86213 0.963 0.14356 0.0
H197 H 0.52611 0.78093 0.11538 0.0
H198 H 0.66503 0.86035 0.20341 0.0
H199 H 0.70949 0.85912 0.06154 0.0
C200 C 0.80535 0.90999 0.06054 0.0
C201 C 0.84962 0.93937 0.08313 0.0
C202 C 0.63397 0.84276 0.18444 0.0
C203 C 0.72422 0.8834 0.1218 0.0
C204 C 0.56911 0.80809 0.20165 0.0
C205 C 0.52804 0.78338 0.17718 0.0
C206 C 0.65732 0.8519 0.14265 0.0
C207 C 0.55473 0.79733 0.13589 0.0
C208 C 0.74289 0.88221 0.07968 0.0
C209 C 0.82944 0.94076 0.12502 0.0
N210 N 0.61672 0.82944 0.12017 0.0
N211 N 0.76824 0.91286 0.14304 0.0
H212 H 0.96463 0.92685 0.61705 0.0
H213 H 0.74179 0.52352 0.65055 0.0
H214 H 0.85924 0.77163 0.53531 0.0
H215 H 0.85711 0.66677 0.73115 0.0
H216 H 0.7801 0.61743 0.61142 0.0
H217 H 0.925 0.83679 0.66176 0.0
C218 C 0.93394 0.87428 0.60826 0.0
C219 C 0.91505 0.85704 0.57232 0.0
C220 C 0.79627 0.62881 0.63815 0.0
C221 C 0.8691 0.75399 0.62331 0.0
C222 C 0.77328 0.57487 0.66098 0.0
C223 C 0.79453 0.58696 0.69503 0.0
C224 C 0.84127 0.69615 0.64915 0.0
C225 C 0.8383 0.655 0.70568 0.0
C226 C 0.91096 0.82283 0.63388 0.0
C227 C 0.87472 0.78781 0.56277 0.0
N228 N 0.86014 0.70692 0.68297 0.0
N229 N 0.85333 0.73952 0.58786 0.0
H230 H 0.03887 0.87654 0.40161 0.0
H231 H 0.32046 0.85583 0.36277 0.0
H232 H 0.19652 0.01399 0.45546 0.0
H233 H 0.1553 0.70893 0.31804 0.0
H234 H 0.28196 0.92233 0.39061 0.0
H235 H 0.0866 0.82231 0.36434 0.0
C236 C 0.08393 0.89598 0.40523 0.0
C237 C 0.11373 0.95011 0.43173 0.0
C238 C 0.25508 0.87676 0.37345 0.0
C239 C 0.1687 0.8879 0.38907 0.0
C240 C 0.2775 0.83936 0.35712 0.0
C241 C 0.24283 0.77901 0.33579 0.0
C242 C 0.19703 0.85313 0.36887 0.0
C243 C 0.18559 0.7576 0.33148 0.0
C244 C 0.11107 0.86474 0.38402 0.0
C245 C 0.17171 0.97237 0.43548 0.0
N246 N 0.16447 0.79453 0.34782 0.0
N247 N 0.19719 0.94116 0.41447 0.0
H248 H 0.20773 0.1483 0.98942 0.0
H249 H 0.47576 0.23499 0.78641 0.0
H250 H 0.16844 0.08712 0.87289 0.0
H251 H 0.51174 0.34078 0.89899 0.0
H252 H 0.36227 0.16546 0.81845 0.0
H253 H 0.31949 0.20445 0.95759 0.0
C254 C 0.2225 0.14549 0.95722 0.0
C255 C 0.17906 0.11313 0.93362 0.0
C256 C 0.3954 0.20397 0.83595 0.0
C257 C 0.30641 0.17675 0.897 0.0
C258 C 0.46011 0.2435 0.81769 0.0
C259 C 0.50374 0.29469 0.83972 0.0
C260 C 0.3744 0.21493 0.87658 0.0
C261 C 0.4803 0.30289 0.88039 0.0
C262 C 0.28628 0.17793 0.939 0.0
C263 C 0.20076 0.11185 0.89199 0.0
N264 N 0.41776 0.26376 0.89733 0.0
N265 N 0.26278 0.14302 0.87498 0.0
H266 H 0.07815 0.12592 0.39861 0.0
H267 H 0.23445 0.52015 0.39019 0.0
H268 H 0.15018 0.27622 0.49122 0.0
H269 H 0.19031 0.39283 0.28525 0.0
H270 H 0.19946 0.42609 0.42643 0.0
H271 H 0.11179 0.21563 0.35593 0.0
C272 C 0.1 0.17718 0.41021 0.0
C273 C 0.11135 0.19341 0.44871 0.0
C274 C 0.19811 0.41818 0.39528 0.0
C275 C 0.15033 0.29595 0.40016 0.0
C276 C 0.21889 0.47259 0.37434 0.0
C277 C 0.21692 0.46542 0.33422 0.0
C278 C 0.17427 0.35449 0.37646 0.0
C279 C 0.1943 0.40143 0.31579 0.0
C280 C 0.11974 0.22848 0.38572 0.0
C281 C 0.14058 0.26092 0.46185 0.0
N282 N 0.17363 0.34829 0.33706 0.0
N283 N 0.15874 0.30889 0.43789 0.0
H284 H 0.81288 0.18544 0.95574 0.0
H285 H 0.86424 0.39813 0.78925 0.0
H286 H 0.99447 0.32124 0.87733 0.0
H287 H 0.69009 0.268 0.8749 0.0
H288 H 0.91434 0.37122 0.81891 0.0
H289 H 0.76985 0.21923 0.92632 0.0
C290 C 0.8443 0.22375 0.93292 0.0
C291 C 0.90768 0.25077 0.91922 0.0
C292 C 0.86516 0.34854 0.83104 0.0
C293 C 0.85748 0.28829 0.88402 0.0
C294 C 0.83648 0.36347 0.814 0.0
C295 C 0.77305 0.33571 0.83001 0.0
C296 C 0.82981 0.30513 0.86394 0.0
C297 C 0.73926 0.29125 0.86202 0.0
C298 C 0.81929 0.24238 0.91562 0.0
C299 C 0.94522 0.29873 0.8886 0.0
N300 N 0.76799 0.27747 0.87786 0.0
N301 N 0.91949 0.31579 0.87182 0.0
H302 H 0.66318 0.77282 0.3979 0.0
H303 H 0.44353 0.80775 0.33026 0.0
H304 H 0.67139 0.95081 0.41824 0.0
H305 H 0.41444 0.62048 0.32958 0.0
H306 H 0.54817 0.86975 0.34121 0.0
H307 H 0.58877 0.72406 0.35722 0.0
C308 C 0.64816 0.80105 0.39458 0.0
C309 C 0.67248 0.86539 0.41222 0.0
C310 C 0.51982 0.81529 0.33736 0.0
C311 C 0.58862 0.81057 0.36444 0.0
C312 C 0.46067 0.78017 0.33058 0.0
C313 C 0.421 0.70949 0.32991 0.0
C314 C 0.53803 0.77869 0.34389 0.0
C315 C 0.44416 0.67527 0.33057 0.0
C316 C 0.60667 0.77373 0.3706 0.0
C317 C 0.65321 0.90073 0.4055 0.0
N318 N 0.50106 0.71023 0.33839 0.0
N319 N 0.612 0.87261 0.38231 0.0
H320 H 0.96265 0.88315 0.88 0.0
H321 H 0.84513 0.50877 0.85233 0.0
H322 H 0.93501 0.77286 0.97249 0.0
H323 H 0.90052 0.63085 0.75647 0.0
H324 H 0.90241 0.61115 0.8921 0.0
H325 H 0.95456 0.7957 0.83167 0.0
C326 C 0.95401 0.83998 0.8902 0.0
C327 C 0.94907 0.83479 0.93023 0.0
C328 C 0.90411 0.616 0.86181 0.0
C329 C 0.94099 0.73527 0.87507 0.0
C330 C 0.87258 0.55763 0.83879 0.0
C331 C 0.86701 0.56219 0.80172 0.0
C332 C 0.92904 0.6782 0.84736 0.0
C333 C 0.90278 0.6259 0.78542 0.0
C334 C 0.95058 0.79069 0.86249 0.0
C335 C 0.93903 0.77853 0.94178 0.0
N336 N 0.93064 0.68175 0.80893 0.0
N337 N 0.93481 0.73055 0.91435 0.0
loop_
_geom_bond_atom_site_label_1
_geom_bond_atom_site_label_2
_geom_bond_distance
_geom_bond_site_symmetry_2
_ccdc_geom_bond_type
C0 Eu1 2.835 . S
C0 C2 1.500 . S
C0 O20 1.257 . S
C0 O21 1.260 . S
Eu1 C0 2.835 . S
Eu1 O20 2.473 . S
Eu1 O21 2.480 . S
Eu1 O22 2.430 1_455 S
Eu1 O23 2.670 1_455 S
Eu1 O24 2.394 1_455 S
Eu1 O29 2.355 1_564 S
Eu1 O31 2.374 1_565 S
C2 C0 1.500 . S
C2 C3 1.377 . S
C2 C7 1.377 . S
C3 C2 1.377 . S
C3 C4 1.395 . S
C3 H32 0.931 1_455 S
C4 C3 1.395 . S
C4 C5 1.383 . S
C4 H33 0.931 . S
C5 C4 1.383 . S
C5 C6 1.394 . S
C6 C5 1.394 . S
C6 C7 1.378 . S
C6 H34 0.931 . S
C7 C2 1.377 . S
C7 C6 1.378 . S
C7 H35 0.931 . S
C8 O22 1.259 . S
C8 O23 1.270 . S
C9 O24 1.251 1_556 S
C9 O25 1.251 . S
C10 Eu11 2.835 . S
C10 C12 1.500 . S
C10 O26 1.257 . S
C10 O27 1.260 1_655 S
Eu11 C10 2.835 . S
Eu11 O23 2.355 1_546 S
Eu11 O25 2.374 1_545 S
Eu11 O26 2.473 . S
Eu11 O27 2.480 1_655 S
Eu11 O28 2.430 1_655 S
Eu11 O29 2.670 1_655 S
Eu11 O30 2.394 1_656 S
C12 C10 1.500 . S
C12 C13 1.377 1_655 S
C12 C17 1.377 . S
C13 C12 1.377 1_455 S
C13 C14 1.395 1_455 S
C13 H36 0.931 . S
C14 C13 1.395 1_655 S
C14 C15 1.383 . S
C14 H37 0.931 1_655 S
C15 C14 1.383 . S
C15 C16 1.394 . S
C16 C15 1.394 . S
C16 C17 1.378 . S
C16 H38 0.931 . S
C17 C12 1.377 . S
C17 C16 1.378 . S
C17 H39 0.931 . S
C18 O28 1.259 . S
C18 O29 1.270 . S
C19 O30 1.251 . S
C19 O31 1.251 . S
O20 C0 1.257 . S
O20 Eu1 2.473 . S
O21 C0 1.260 . S
O21 Eu1 2.480 . S
O22 Eu1 2.430 1_655 S
O22 C8 1.259 . S
O23 Eu1 2.670 1_655 S
O23 C8 1.270 . S
O23 Eu11 2.355 1_564 S
O24 Eu1 2.394 1_655 S
O24 C9 1.251 1_554 S
O25 C9 1.251 . S
O25 Eu11 2.374 1_565 S
O26 C10 1.257 . S
O26 Eu11 2.473 . S
O27 C10 1.260 1_455 S
O27 Eu11 2.480 1_455 S
O28 Eu11 2.430 1_455 S
O28 C18 1.259 . S
O29 Eu1 2.355 1_546 S
O29 Eu11 2.670 1_455 S
O29 C18 1.270 . S
O30 Eu11 2.394 1_454 S
O30 C19 1.251 . S
O31 Eu1 2.374 1_545 S
O31 C19 1.251 . S
H32 C3 0.931 1_655 S
H33 C4 0.931 . S
H34 C6 0.931 . S
H35 C7 0.931 . S
H36 C13 0.931 . S
H37 C14 0.931 1_455 S
H38 C16 0.931 . S
H39 C17 0.931 . S
C40 Eu41 2.835 . S
C40 C42 1.500 . S
C40 O60 1.257 . S
C40 O61 1.260 . S
Eu41 C40 2.835 . S
Eu41 O60 2.473 . S
Eu41 O61 2.480 . S
Eu41 O62 2.430 . S
Eu41 O63 2.657 1_655 S
Eu41 O64 2.394 . S
Eu41 O69 2.355 1_665 S
Eu41 O71 2.374 1_655 S
C42 C40 1.500 . S
C42 C43 1.377 . S
C42 C47 1.377 . S
C43 C42 1.377 . S
C43 C44 1.395 . S
C43 H72 0.931 . S
C44 C43 1.395 . S
C44 C45 1.383 . S
C44 H73 0.931 . S
C45 C44 1.383 . S
C45 C46 1.394 . S
C46 C45 1.394 . S
C46 C47 1.378 . S
C46 H74 0.931 . S
C47 C42 1.377 . S
C47 C46 1.378 . S
C47 H75 0.931 1_565 S
C48 O62 1.259 . S
C48 O63 1.264 1_655 S
C49 O64 1.251 1_545 S
C49 O65 1.251 . S
C50 Eu51 2.835 . S
C50 C52 1.500 . S
C50 O66 1.257 . S
C50 O67 1.260 . S
Eu51 C50 2.835 . S
Eu51 O63 2.359 1_545 S
Eu51 O65 2.374 1_455 S
Eu51 O66 2.473 . S
Eu51 O67 2.480 . S
Eu51 O68 2.430 . S
Eu51 O69 2.670 . S
Eu51 O70 2.394 . S
C52 C50 1.500 . S
C52 C53 1.377 . S
C52 C57 1.377 . S
C53 C52 1.377 . S
C53 C54 1.395 . S
C53 H76 0.931 . S
C54 C53 1.395 . S
C54 C55 1.383 . S
C54 H77 0.931 . S
C55 C54 1.383 . S
C55 C56 1.394 . S
C56 C55 1.394 . S
C56 C57 1.378 . S
C56 H78 0.931 . S
C57 C52 1.377 . S
C57 C56 1.378 . S
C57 H79 0.931 . S
C58 O68 1.259 . S
C58 O69 1.270 . S
C59 O70 1.251 1_565 S
C59 O71 1.251 . S
O60 C40 1.257 . S
O60 Eu41 2.473 . S
O61 C40 1.260 . S
O61 Eu41 2.480 . S
O62 Eu41 2.430 . S
O62 C48 1.259 . S
O63 Eu41 2.657 1_455 S
O63 C48 1.264 1_455 S
O63 Eu51 2.359 1_565 S
O64 Eu41 2.394 . S
O64 C49 1.251 1_565 S
O65 C49 1.251 . S
O65 Eu51 2.374 1_655 S
O66 C50 1.257 . S
O66 Eu51 2.473 . S
O67 C50 1.260 . S
O67 Eu51 2.480 . S
O68 Eu51 2.430 . S
O68 C58 1.259 . S
O69 Eu41 2.355 1_445 S
O69 Eu51 2.670 . S
O69 C58 1.270 . S
O70 Eu51 2.394 . S
O70 C59 1.251 1_545 S
O71 Eu41 2.374 1_455 S
O71 C59 1.251 . S
H72 C43 0.931 . S
H73 C44 0.931 . S
H74 C46 0.931 . S
H75 C47 0.931 1_545 S
H76 C53 0.931 . S
H77 C54 0.931 . S
H78 C56 0.931 . S
H79 C57 0.931 . S
Zn80 O86 1.920 . S
Zn80 O92 1.898 . S
Zn80 O95 1.905 . S
Zn81 O89 1.905 . S
Zn81 O90 1.898 . S
Zn81 O98 1.920 . S
Zn82 O85 2.080 . S
Zn82 O88 2.114 . S
Zn82 O91 2.120 . S
Zn82 O93 2.120 . S
Zn82 O94 2.114 . S
Zn82 O97 2.080 . S
C83 O88 1.166 . S
C83 O89 1.182 . S
C84 O90 1.167 . S
C84 O91 1.299 . S
O85 Zn82 2.080 . S
O85 C99 1.305 . S
O86 Zn80 1.920 . S
O86 C99 1.234 . S
C87 O92 1.167 . S
C87 O93 1.299 . S
O88 Zn82 2.114 . S
O88 C83 1.166 . S
O89 Zn81 1.905 . S
O89 C83 1.182 . S
O90 Zn81 1.898 . S
O90 C84 1.167 . S
O91 Zn82 2.120 . S
O91 C84 1.299 . S
O92 Zn80 1.898 . S
O92 C87 1.167 . S
O93 Zn82 2.120 . S
O93 C87 1.299 . S
O94 Zn82 2.114 . S
O94 C96 1.166 . S
O95 Zn80 1.905 . S
O95 C96 1.182 . S
C96 O94 1.166 . S
C96 O95 1.182 . S
O97 Zn82 2.080 . S
O97 C100 1.305 . S
O98 Zn81 1.920 . S
O98 C100 1.234 . S
C99 O85 1.305 . S
C99 O86 1.234 . S
C100 O97 1.305 . S
C100 O98 1.234 . S
Zn101 O107 1.920 . S
Zn101 O113 1.898 . S
Zn101 O116 1.905 . S
Zn102 O110 1.905 . S
Zn102 O111 1.898 . S
Zn102 O119 1.920 . S
Zn103 O106 2.080 . S
Zn103 O109 2.114 . S
Zn103 O112 2.120 . S
Zn103 O114 2.120 . S
Zn103 O115 2.114 . S
Zn103 O118 2.080 . S
C104 O109 1.166 . S
C104 O110 1.182 . S
C105 O111 1.167 . S
C105 O112 1.299 . S
O106 Zn103 2.080 . S
O106 C120 1.305 . S
O107 Zn101 1.920 . S
O107 C120 1.234 . S
C108 O113 1.167 . S
C108 O114 1.299 . S
O109 Zn103 2.114 . S
O109 C104 1.166 . S
O110 Zn102 1.905 . S
O110 C104 1.182 . S
O111 Zn102 1.898 . S
O111 C105 1.167 . S
O112 Zn103 2.120 . S
O112 C105 1.299 . S
O113 Zn101 1.898 . S
O113 C108 1.167 . S
O114 Zn103 2.120 . S
O114 C108 1.299 . S
O115 Zn103 2.114 . S
O115 C117 1.166 . S
O116 Zn101 1.905 . S
O116 C117 1.182 . S
C117 O115 1.166 . S
C117 O116 1.182 . S
O118 Zn103 2.080 . S
O118 C121 1.305 . S
O119 Zn102 1.920 . S
O119 C121 1.234 . S
C120 O106 1.305 . S
C120 O107 1.234 . S
C121 O118 1.305 . S
C121 O119 1.234 . S
H122 C128 0.930 . S
H123 C132 0.930 . S
H124 C137 0.929 . S
H125 C135 0.929 . S
H126 C130 0.929 . S
H127 C136 0.929 . S
C128 H122 0.930 . S
C128 C129 1.367 . S
C128 C136 1.378 . S
C129 C128 1.367 . S
C129 C137 1.433 . S
C130 H126 0.929 . S
C130 C132 1.378 . S
C130 C134 1.350 . S
C131 C134 1.463 . S
C131 C136 1.350 . S
C131 N139 1.427 . S
C132 H123 0.930 . S
C132 C130 1.378 . S
C132 C133 1.367 . S
C133 C132 1.367 . S
C133 C135 1.433 . S
C134 C130 1.350 . S
C134 C131 1.463 . S
C134 N138 1.427 . S
C135 H125 0.929 . S
C135 C133 1.433 . S
C135 N138 1.384 . S
C136 H127 0.929 . S
C136 C128 1.378 . S
C136 C131 1.350 . S
C137 H124 0.929 . S
C137 C129 1.433 . S
C137 N139 1.384 . S
N138 C134 1.427 . S
N138 C135 1.384 . S
N139 C131 1.427 . S
N139 C137 1.384 . S
H140 C146 0.930 . S
H141 C150 0.930 . S
H142 C155 0.929 . S
H143 C153 0.929 . S
H144 C148 0.929 . S
H145 C154 0.929 . S
C146 H140 0.930 . S
C146 C147 1.367 . S
C146 C154 1.378 . S
C147 C146 1.367 . S
C147 C155 1.433 . S
C148 H144 0.929 . S
C148 C150 1.378 . S
C148 C152 1.350 . S
C149 C152 1.463 . S
C149 C154 1.350 . S
C149 N157 1.427 . S
C150 H141 0.930 . S
C150 C148 1.378 . S
C150 C151 1.367 . S
C151 C150 1.367 . S
C151 C153 1.433 . S
C152 C148 1.350 . S
C152 C149 1.463 . S
C152 N156 1.427 . S
C153 H143 0.929 . S
C153 C151 1.433 . S
C153 N156 1.384 . S
C154 H145 0.929 . S
C154 C146 1.378 . S
C154 C149 1.350 . S
C155 H142 0.929 . S
C155 C147 1.433 . S
C155 N157 1.384 . S
N156 C152 1.427 . S
N156 C153 1.384 . S
N157 C149 1.427 . S
N157 C155 1.384 . S
H158 C164 0.930 . S
H159 C168 0.930 . S
H160 C173 0.929 . S
H161 C171 0.929 . S
H162 C166 0.929 . S
H163 C172 0.929 . S
C164 H158 0.930 . S
C164 C165 1.367 . S
C164 C172 1.378 . S
C165 C164 1.367 . S
C165 C173 1.433 . S
C166 H162 0.929 . S
C166 C168 1.378 . S
C166 C170 1.350 . S
C167 C170 1.463 . S
C167 C172 1.350 . S
C167 N175 1.427 . S
C168 H159 0.930 . S
C168 C166 1.378 . S
C168 C169 1.367 . S
C169 C168 1.367 . S
C169 C171 1.433 . S
C170 C166 1.350 . S
C170 C167 1.463 . S
C170 N174 1.427 . S
C171 H161 0.929 . S
C171 C169 1.433 . S
C171 N174 1.384 . S
C172 H163 0.929 . S
C172 C164 1.378 . S
C172 C167 1.350 . S
C173 H160 0.929 . S
C173 C165 1.433 . S
C173 N175 1.384 . S
N174 C170 1.427 . S
N174 C171 1.384 . S
N175 C167 1.427 . S
N175 C173 1.384 . S
H176 C182 0.930 . S
H177 C186 0.930 . S
H178 C191 0.929 . S
H179 C189 0.929 . S
H180 C184 0.929 . S
H181 C190 0.929 . S
C182 H176 0.930 . S
C182 C183 1.367 . S
C182 C190 1.378 . S
C183 C182 1.367 . S
C183 C191 1.433 . S
C184 H180 0.929 . S
C184 C186 1.378 . S
C184 C188 1.350 . S
C185 C188 1.463 . S
C185 C190 1.350 . S
C185 N193 1.427 . S
C186 H177 0.930 . S
C186 C184 1.378 . S
C186 C187 1.367 . S
C187 C186 1.367 . S
C187 C189 1.433 . S
C188 C184 1.350 . S
C188 C185 1.463 . S
C188 N192 1.427 . S
C189 H179 0.929 . S
C189 C187 1.433 . S
C189 N192 1.384 . S
C190 H181 0.929 . S
C190 C182 1.378 . S
C190 C185 1.350 . S
C191 H178 0.929 . S
C191 C183 1.433 . S
C191 N193 1.384 . S
N192 C188 1.427 . S
N192 C189 1.384 . S
N193 C185 1.427 . S
N193 C191 1.384 . S
H194 C200 0.930 . S
H195 C204 0.930 . S
H196 C209 0.929 . S
H197 C207 0.929 . S
H198 C202 0.929 . S
H199 C208 0.929 . S
C200 H194 0.930 . S
C200 C201 1.367 . S
C200 C208 1.378 . S
C201 C200 1.367 . S
C201 C209 1.433 . S
C202 H198 0.929 . S
C202 C204 1.378 . S
C202 C206 1.350 . S
C203 C206 1.463 . S
C203 C208 1.350 . S
C203 N211 1.427 . S
C204 H195 0.930 . S
C204 C202 1.378 . S
C204 C205 1.367 . S
C205 C204 1.367 . S
C205 C207 1.433 . S
C206 C202 1.350 . S
C206 C203 1.463 . S
C206 N210 1.427 . S
C207 H197 0.929 . S
C207 C205 1.433 . S
C207 N210 1.384 . S
C208 H199 0.929 . S
C208 C200 1.378 . S
C208 C203 1.350 . S
C209 H196 0.929 . S
C209 C201 1.433 . S
C209 N211 1.384 . S
N210 C206 1.427 . S
N210 C207 1.384 . S
N211 C203 1.427 . S
N211 C209 1.384 . S
H212 C218 0.930 . S
H213 C222 0.930 . S
H214 C227 0.929 . S
H215 C225 0.929 . S
H216 C220 0.929 . S
H217 C226 0.929 . S
C218 H212 0.930 . S
C218 C219 1.367 . S
C218 C226 1.378 . S
C219 C218 1.367 . S
C219 C227 1.433 . S
C220 H216 0.929 . S
C220 C222 1.378 . S
C220 C224 1.350 . S
C221 C224 1.463 . S
C221 C226 1.350 . S
C221 N229 1.427 . S
C222 H213 0.930 . S
C222 C220 1.378 . S
C222 C223 1.367 . S
C223 C222 1.367 . S
C223 C225 1.433 . S
C224 C220 1.350 . S
C224 C221 1.463 . S
C224 N228 1.427 . S
C225 H215 0.929 . S
C225 C223 1.433 . S
C225 N228 1.384 . S
C226 H217 0.929 . S
C226 C218 1.378 . S
C226 C221 1.350 . S
C227 H214 0.929 . S
C227 C219 1.433 . S
C227 N229 1.384 . S
N228 C224 1.427 . S
N228 C225 1.384 . S
N229 C221 1.427 . S
N229 C227 1.384 . S
H230 C236 0.930 . S
H231 C240 0.930 . S
H232 C245 0.929 1_545 S
H233 C243 0.929 . S
H234 C238 0.929 . S
H235 C244 0.929 . S
C236 H230 0.930 . S
C236 C237 1.367 . S
C236 C244 1.378 . S
C237 C236 1.367 . S
C237 C245 1.433 . S
C238 H234 0.929 . S
C238 C240 1.378 . S
C238 C242 1.350 . S
C239 C242 1.463 . S
C239 C244 1.350 . S
C239 N247 1.427 . S
C240 H231 0.930 . S
C240 C238 1.378 . S
C240 C241 1.367 . S
C241 C240 1.367 . S
C241 C243 1.433 . S
C242 C238 1.350 . S
C242 C239 1.463 . S
C242 N246 1.427 . S
C243 H233 0.929 . S
C243 C241 1.433 . S
C243 N246 1.384 . S
C244 H235 0.929 . S
C244 C236 1.378 . S
C244 C239 1.350 . S
C245 H232 0.929 1_565 S
C245 C237 1.433 . S
C245 N247 1.384 . S
N246 C242 1.427 . S
N246 C243 1.384 . S
N247 C239 1.427 . S
N247 C245 1.384 . S
H248 C254 0.930 . S
H249 C258 0.930 . S
H250 C263 0.929 . S
H251 C261 0.929 . S
H252 C256 0.929 . S
H253 C262 0.929 . S
C254 H248 0.930 . S
C254 C255 1.367 . S
C254 C262 1.378 . S
C255 C254 1.367 . S
C255 C263 1.433 . S
C256 H252 0.929 . S
C256 C258 1.378 . S
C256 C260 1.350 . S
C257 C260 1.463 . S
C257 C262 1.350 . S
C257 N265 1.427 . S
C258 H249 0.930 . S
C258 C256 1.378 . S
C258 C259 1.367 . S
C259 C258 1.367 . S
C259 C261 1.433 . S
C260 C256 1.350 . S
C260 C257 1.463 . S
C260 N264 1.427 . S
C261 H251 0.929 . S
C261 C259 1.433 . S
C261 N264 1.384 . S
C262 H253 0.929 . S
C262 C254 1.378 . S
C262 C257 1.350 . S
C263 H250 0.929 . S
C263 C255 1.433 . S
C263 N265 1.384 . S
N264 C260 1.427 . S
N264 C261 1.384 . S
N265 C257 1.427 . S
N265 C263 1.384 . S
H266 C272 0.930 . S
H267 C276 0.930 . S
H268 C281 0.929 . S
H269 C279 0.929 . S
H270 C274 0.929 . S
H271 C280 0.929 . S
C272 H266 0.930 . S
C272 C273 1.367 . S
C272 C280 1.378 . S
C273 C272 1.367 . S
C273 C281 1.433 . S
C274 H270 0.929 . S
C274 C276 1.378 . S
C274 C278 1.350 . S
C275 C278 1.463 . S
C275 C280 1.350 . S
C275 N283 1.427 . S
C276 H267 0.930 . S
C276 C274 1.378 . S
C276 C277 1.367 . S
C277 C276 1.367 . S
C277 C279 1.433 . S
C278 C274 1.350 . S
C278 C275 1.463 . S
C278 N282 1.427 . S
C279 H269 0.929 . S
C279 C277 1.433 . S
C279 N282 1.384 . S
C280 H271 0.929 . S
C280 C272 1.378 . S
C280 C275 1.350 . S
C281 H268 0.929 . S
C281 C273 1.433 . S
C281 N283 1.384 . S
N282 C278 1.427 . S
N282 C279 1.384 . S
N283 C275 1.427 . S
N283 C281 1.384 . S
H284 C290 0.930 . S
H285 C294 0.930 . S
H286 C299 0.929 . S
H287 C297 0.929 . S
H288 C292 0.929 . S
H289 C298 0.929 . S
C290 H284 0.930 . S
C290 C291 1.367 . S
C290 C298 1.378 . S
C291 C290 1.367 . S
C291 C299 1.433 . S
C292 H288 0.929 . S
C292 C294 1.378 . S
C292 C296 1.350 . S
C293 C296 1.463 . S
C293 C298 1.350 . S
C293 N301 1.427 . S
C294 H285 0.930 . S
C294 C292 1.378 . S
C294 C295 1.367 . S
C295 C294 1.367 . S
C295 C297 1.433 . S
C296 C292 1.350 . S
C296 C293 1.463 . S
C296 N300 1.427 . S
C297 H287 0.929 . S
C297 C295 1.433 . S
C297 N300 1.384 . S
C298 H289 0.929 . S
C298 C290 1.378 . S
C298 C293 1.350 . S
C299 H286 0.929 . S
C299 C291 1.433 . S
C299 N301 1.384 . S
N300 C296 1.427 . S
N300 C297 1.384 . S
N301 C293 1.427 . S
N301 C299 1.384 . S
H302 C308 0.930 . S
H303 C312 0.930 . S
H304 C317 0.929 . S
H305 C315 0.929 . S
H306 C310 0.929 . S
H307 C316 0.929 . S
C308 H302 0.930 . S
C308 C309 1.367 . S
C308 C316 1.378 . S
C309 C308 1.367 . S
C309 C317 1.433 . S
C310 H306 0.929 . S
C310 C312 1.378 . S
C310 C314 1.350 . S
C311 C314 1.463 . S
C311 C316 1.350 . S
C311 N319 1.427 . S
C312 H303 0.930 . S
C312 C310 1.378 . S
C312 C313 1.367 . S
C313 C312 1.367 . S
C313 C315 1.433 . S
C314 C310 1.350 . S
C314 C311 1.463 . S
C314 N318 1.427 . S
C315 H305 0.929 . S
C315 C313 1.433 . S
C315 N318 1.384 . S
C316 H307 0.929 . S
C316 C308 1.378 . S
C316 C311 1.350 . S
C317 H304 0.929 . S
C317 C309 1.433 . S
C317 N319 1.384 . S
N318 C314 1.427 . S
N318 C315 1.384 . S
N319 C311 1.427 . S
N319 C317 1.384 . S
H320 C326 0.930 . S
H321 C330 0.930 . S
H322 C335 0.929 . S
H323 C333 0.929 . S
H324 C328 0.929 . S
H325 C334 0.929 . S
C326 H320 0.930 . S
C326 C327 1.367 . S
C326 C334 1.378 . S
C327 C326 1.367 . S
C327 C335 1.433 . S
C328 H324 0.929 . S
C328 C330 1.378 . S
C328 C332 1.350 . S
C329 C332 1.463 . S
C329 C334 1.350 . S
C329 N337 1.427 . S
C330 H321 0.930 . S
C330 C328 1.378 . S
C330 C331 1.367 . S
C331 C330 1.367 . S
C331 C333 1.433 . S
C332 C328 1.350 . S
C332 C329 1.463 . S
C332 N336 1.427 . S
C333 H323 0.929 . S
C333 C331 1.433 . S
C333 N336 1.384 . S
C334 H325 0.929 . S
C334 C326 1.378 . S
C334 C329 1.350 . S
C335 H322 0.929 . S
C335 C327 1.433 . S
C335 N337 1.384 . S
N336 C332 1.427 . S
N336 C333 1.384 . S
N337 C329 1.427 . S
N337 C335 1.384 . S
C129 C5 1.252 . S
C133 C99 1.140 . S
C147 C55 1.025 . S
C151 C105 0.940 . S
C165 C19 1.335 . S
C169 C96 1.249 . S
C183 C49 2.120 . S
C187 C121 2.002 . S
C201 C8 2.006 . S
C205 C87 1.925 . S
C223 C104 1.821 . S
C219 C48 1.921 . S
C237 C59 1.876 . S
C241 C100 1.785 . S
C259 C117 2.087 . S
C255 C18 2.151 . S
C277 C84 2.064 . S
C273 C58 2.244 . S
C295 C120 1.244 . S
C291 C15 1.385 . S
C313 C83 0.955 . S
C309 C45 1.037 . S
C331 C108 1.000 . S
C327 C9 1.086 . S
