# Generated by pormake.
# Topology zzz, (3,6)-cn, num edge types: 1
# Building blocks:
#     Node 0, Type 0, BuildingBlock: WUSLED_clean_sbu_0, # of connection points: 3
#     Node 1, Type 0, BuildingBlock: WUSLED_clean_sbu_0, # of connection points: 3
#     Node 2, Type 0, BuildingBlock: WUSLED_clean_sbu_0, # of connection points: 3
#     Node 3, Type 0, BuildingBlock: WUSLED_clean_sbu_0, # of connection points: 3
#     Node 4, Type 0, BuildingBlock: WUSLED_clean_sbu_0, # of connection points: 3
#     Node 5, Type 0, BuildingBlock: WUSLED_clean_sbu_0, # of connection points: 3
#     Node 6, Type 0, BuildingBlock: WUSLED_clean_sbu_0, # of connection points: 3
#     Node 7, Type 0, BuildingBlock: WUSLED_clean_sbu_0, # of connection points: 3
#     Node 8, Type 1, BuildingBlock: CUKXOW_clean_sbu_0, # of connection points: 6
#     Node 9, Type 1, BuildingBlock: CUKXOW_clean_sbu_0, # of connection points: 6
#     Node 10, Type 1, BuildingBlock: CUKXOW_clean_sbu_0, # of connection points: 6
#     Node 11, Type 1, BuildingBlock: CUKXOW_clean_sbu_0, # of connection points: 6
#     Edge 12, Type (0, 1), BuildingBlock: CIFDUS_clean_linker_0, # of connection points: 2
#     Edge 13, Type (0, 1), BuildingBlock: CIFDUS_clean_linker_0, # of connection points: 2
#     Edge 14, Type (0, 1), BuildingBlock: CIFDUS_clean_linker_0, # of connection points: 2
#     Edge 15, Type (0, 1), BuildingBlock: CIFDUS_clean_linker_0, # of connection points: 2
#     Edge 16, Type (0, 1), BuildingBlock: CIFDUS_clean_linker_0, # of connection points: 2
#     Edge 17, Type (0, 1), BuildingBlock: CIFDUS_clean_linker_0, # of connection points: 2
#     Edge 18, Type (0, 1), BuildingBlock: CIFDUS_clean_linker_0, # of connection points: 2
#     Edge 19, Type (0, 1), BuildingBlock: CIFDUS_clean_linker_0, # of connection points: 2
#     Edge 20, Type (0, 1), BuildingBlock: CIFDUS_clean_linker_0, # of connection points: 2
#     Edge 21, Type (0, 1), BuildingBlock: CIFDUS_clean_linker_0, # of connection points: 2
#     Edge 22, Type (0, 1), BuildingBlock: CIFDUS_clean_linker_0, # of connection points: 2
#     Edge 23, Type (0, 1), BuildingBlock: CIFDUS_clean_linker_0, # of connection points: 2
#     Edge 24, Type (0, 1), BuildingBlock: CIFDUS_clean_linker_0, # of connection points: 2
#     Edge 25, Type (0, 1), BuildingBlock: CIFDUS_clean_linker_0, # of connection points: 2
#     Edge 26, Type (0, 1), BuildingBlock: CIFDUS_clean_linker_0, # of connection points: 2
#     Edge 27, Type (0, 1), BuildingBlock: CIFDUS_clean_linker_0, # of connection points: 2
#     Edge 28, Type (0, 1), BuildingBlock: CIFDUS_clean_linker_0, # of connection points: 2
#     Edge 29, Type (0, 1), BuildingBlock: CIFDUS_clean_linker_0, # of connection points: 2
#     Edge 30, Type (0, 1), BuildingBlock: CIFDUS_clean_linker_0, # of connection points: 2
#     Edge 31, Type (0, 1), BuildingBlock: CIFDUS_clean_linker_0, # of connection points: 2
#     Edge 32, Type (0, 1), BuildingBlock: CIFDUS_clean_linker_0, # of connection points: 2
#     Edge 33, Type (0, 1), BuildingBlock: CIFDUS_clean_linker_0, # of connection points: 2
#     Edge 34, Type (0, 1), BuildingBlock: CIFDUS_clean_linker_0, # of connection points: 2
#     Edge 35, Type (0, 1), BuildingBlock: CIFDUS_clean_linker_0, # of connection points: 2
# Relax obj value: 0.202
# Max RMSD: 0.222
# Mean RMSD: 0.181
data_MOF--net-zzz--node1-WUSLED_clean_sbu_0--node2-CUKXOW_clean_sbu_0--edge1-CIFDUS_clean_linker_0
_symmetry_space_group_name_H-M    P1
_symmetry_Int_Tables_number       1
_symmetry_cell_setting            triclinic
loop_
_symmetry_equiv_pos_as_xyz
'x, y, z'
_cell_length_a     56.908943
_cell_length_b     54.718331
_cell_length_c     19.765732
_cell_angle_alpha  92.821081
_cell_angle_beta   88.467284
_cell_angle_gamma 95.361904
loop_
_atom_site_label
_atom_site_type_symbol
_atom_site_fract_x
_atom_site_fract_y
_atom_site_fract_z
_atom_type_partial_charge
C0 C 0.7915 0.46887 0.29338 0.0
C1 C 0.8137 0.46576 0.26317 0.0
C2 C 0.83261 0.47869 0.36918 0.0
C3 C 0.83414 0.47071 0.30084 0.0
C4 C 0.81039 0.48088 0.40015 0.0
C5 C 0.7899 0.4761 0.36225 0.0
U6 U 0.76618 0.463 0.11965 0.0
O7 O 0.7334 0.44333 0.07979 0.0
O8 O 0.73988 0.48408 0.0743 0.0
C9 C 0.72571 0.46403 0.06248 0.0
C10 C 0.77046 0.46705 0.25146 0.0
C11 C 0.703 0.46464 0.0298 0.0
C12 C 0.66034 0.46466 0.03764 0.0
C13 C 0.68188 0.46223 0.06804 0.0
C14 C 0.68096 0.47121 0.93021 0.0
C15 C 0.65967 0.46944 0.96843 0.0
C16 C 0.70244 0.46901 0.96079 0.0
C17 C 0.81867 0.45879 0.98446 0.0
C18 C 0.83152 0.47715 0.87853 0.0
C19 C 0.85579 0.44958 0.9308 0.0
C20 C 0.83888 0.44603 0.98239 0.0
C21 C 0.85287 0.46607 0.88 0.0
C22 C 0.8145 0.47357 0.93066 0.0
C23 C 0.80557 0.46 0.04943 0.0
O24 O 0.76916 0.48597 0.21383 0.0
O25 O 0.7656 0.44584 0.21825 0.0
O26 O 0.79219 0.44048 0.06805 0.0
O27 O 0.7973 0.48095 0.0685 0.0
H28 H 0.81527 0.46035 0.20987 0.0
H29 H 0.8512 0.46898 0.27627 0.0
H30 H 0.80896 0.48721 0.45277 0.0
H31 H 0.77291 0.47881 0.38604 0.0
H32 H 0.64433 0.46345 0.06866 0.0
H33 H 0.68211 0.45906 0.12169 0.0
H34 H 0.68106 0.47437 0.87655 0.0
H35 H 0.71864 0.47089 0.93065 0.0
H36 H 0.82872 0.4898 0.83972 0.0
H37 H 0.87214 0.44112 0.93455 0.0
H38 H 0.84259 0.43483 0.02389 0.0
H39 H 0.79896 0.4836 0.93133 0.0
C40 C 0.91569 0.80917 0.2564 0.0
C41 C 0.91946 0.83326 0.23379 0.0
C42 C 0.92725 0.84948 0.34937 0.0
C43 C 0.92514 0.85323 0.27984 0.0
C44 C 0.92204 0.82547 0.37184 0.0
C45 C 0.91645 0.80559 0.32591 0.0
U46 U 0.90986 0.78354 0.0755 0.0
O47 O 0.93024 0.75778 0.01573 0.0
O48 O 0.89166 0.74991 0.02617 0.0
C49 C 0.91151 0.74309 0.99883 0.0
C50 C 0.91314 0.78757 0.20789 0.0
C51 C 0.9148 0.71675 0.98831 0.0
C52 C 0.93381 0.68076 0.01697 0.0
C53 C 0.92596 0.70377 0.03567 0.0
C54 C 0.91829 0.683 0.90484 0.0
C55 C 0.93097 0.67057 0.95034 0.0
C56 C 0.91028 0.70579 0.92377 0.0
C57 C 0.9101 0.83695 0.95096 0.0
C58 C 0.93086 0.8438 0.84354 0.0
C59 C 0.91226 0.87681 0.90316 0.0
C60 C 0.9036 0.86087 0.95235 0.0
C61 C 0.92735 0.86905 0.84988 0.0
C62 C 0.92267 0.82794 0.89446 0.0
C63 C 0.90872 0.82496 0.01573 0.0
O64 O 0.8928 0.7833 0.17731 0.0
O65 O 0.93136 0.78537 0.16656 0.0
O66 O 0.92825 0.81644 0.03419 0.0
O67 O 0.88941 0.81112 0.03156 0.0
H68 H 0.91892 0.83649 0.18024 0.0
H69 H 0.92903 0.87138 0.26048 0.0
H70 H 0.92291 0.82188 0.42505 0.0
H71 H 0.9135 0.78725 0.34458 0.0
H72 H 0.94298 0.67143 0.05387 0.0
H73 H 0.92965 0.71191 0.08576 0.0
H74 H 0.91587 0.67598 0.85306 0.0
H75 H 0.90189 0.71564 0.88623 0.0
H76 H 0.94131 0.83652 0.8021 0.0
H77 H 0.90876 0.89574 0.91223 0.0
H78 H 0.89391 0.86811 0.99567 0.0
H79 H 0.92766 0.80928 0.89226 0.0
C80 C 0.70303 0.01731 0.30284 0.0
C81 C 0.68485 0.03229 0.29255 0.0
C82 C 0.66452 0.01826 0.39619 0.0
C83 C 0.66574 0.03274 0.33883 0.0
C84 C 0.68269 1.00307 0.40532 0.0
C85 C 0.7017 1.00269 0.35934 0.0
U86 U 0.74589 0.01824 0.14093 0.0
O87 O 0.77818 0.999 0.13465 0.0
O88 O 0.78077 0.03932 0.14081 0.0
C89 C 0.79208 0.01952 0.13183 0.0
C90 C 0.72487 0.01812 0.26085 0.0
C91 C 0.81059 0.02049 0.07828 0.0
C92 C 0.84993 0.03613 0.04184 0.0
C93 C 0.83188 0.03467 0.09099 0.0
C94 C 0.8258 1.00878 0.96627 0.0
C95 C 0.84739 0.02294 0.97894 0.0
C96 C 0.8075 1.00773 0.01528 0.0
C97 C 0.70021 0.01754 0.9947 0.0
C98 C 0.67881 0.01498 0.88961 0.0
C99 C 0.65967 0.02788 0.99467 0.0
C100 C 0.6802 0.02501 0.0299 0.0
C101 C 0.65896 0.02343 0.92382 0.0
C102 C 0.69922 1.01211 0.92478 0.0
C103 C 0.7231 0.01744 0.02703 0.0
O104 O 0.72949 0.99792 0.22627 0.0
O105 O 0.73151 0.03835 0.22939 0.0
O106 O 0.72746 0.99737 0.05653 0.0
O107 O 0.73106 0.03782 0.06022 0.0
H108 H 0.68563 0.04398 0.24973 0.0
H109 H 0.65223 0.04488 0.33051 0.0
H110 H 0.68225 0.99136 0.44801 0.0
H111 H 0.71569 0.99122 0.36871 0.0
H112 H 0.86578 0.04792 0.05341 0.0
H113 H 0.83452 0.0448 0.13911 0.0
H114 H 0.82307 0.99815 0.91906 0.0
H115 H 0.79108 0.9968 1.00416 0.0
H116 H 0.67873 1.01099 0.83539 0.0
H117 H 0.64473 0.03457 0.02248 0.0
H118 H 0.68072 0.02938 0.08393 0.0
H119 H 0.71456 1.00634 0.89685 0.0
C120 C 0.61862 0.71461 0.27342 0.0
C121 C 0.62199 0.69074 0.24825 0.0
C122 C 0.61015 0.67464 0.35849 0.0
C123 C 0.61792 0.67085 0.29079 0.0
C124 C 0.60754 0.6987 0.38357 0.0
C125 C 0.6118 0.71844 0.34152 0.0
U126 U 0.62239 0.75539 0.11152 0.0
O127 O 0.60252 0.78774 0.11486 0.0
O128 O 0.64119 0.79256 0.10507 0.0
C129 C 0.62138 0.80322 0.10839 0.0
C130 C 0.62065 0.73609 0.23093 0.0
C131 C 0.61881 0.82375 0.06461 0.0
C132 C 0.61255 0.86695 0.06204 0.0
C133 C 0.62034 0.84742 0.09533 0.0
C134 C 0.60328 0.83985 0.96389 0.0
C135 C 0.60306 0.86323 0.99704 0.0
C136 C 0.61093 0.82013 0.99775 0.0
C137 C 0.61937 0.70289 0.97196 0.0
C138 C 0.61149 0.67436 0.87584 0.0
C139 C 0.61 0.65951 0.98958 0.0
C140 C 0.6163 0.68338 0.01566 0.0
C141 C 0.60654 0.65496 0.9196 0.0
C142 C 0.61776 0.69814 0.90193 0.0
C143 C 0.62136 0.72852 0.99775 0.0
O144 O 0.6406 0.74179 0.19769 0.0
O145 O 0.60181 0.74009 0.19771 0.0
O146 O 0.60238 0.73569 0.0292 0.0
O147 O 0.64111 0.73682 0.02754 0.0
H148 H 0.62721 0.68744 0.19577 0.0
H149 H 0.6199 0.65243 0.27015 0.0
H150 H 0.60176 0.70219 0.43554 0.0
H151 H 0.60918 0.73676 0.36191 0.0
H152 H 0.61292 0.88478 0.08853 0.0
H153 H 0.62621 0.85054 0.14703 0.0
H154 H 0.59606 0.83644 0.91379 0.0
H155 H 0.60945 0.8019 0.97334 0.0
H156 H 0.60937 0.67139 0.82167 0.0
H157 H 0.60621 0.645 0.02469 0.0
H158 H 0.61749 0.68682 0.06995 0.0
H159 H 0.62016 0.71306 0.86757 0.0
C160 C 0.22506 0.55521 0.11773 0.0
C161 C 0.20286 0.55505 0.15051 0.0
C162 C 0.18377 0.55422 0.04178 0.0
C163 C 0.1824 0.55465 0.11287 0.0
C164 C 0.206 0.55402 0.00897 0.0
C165 C 0.22654 0.55464 0.0468 0.0
U166 U 0.25108 0.55938 0.28978 0.0
O167 O 0.27806 0.53838 0.33224 0.0
O168 O 0.28294 0.57937 0.334 0.0
C169 C 0.29122 0.5587 0.34909 0.0
C170 C 0.24646 0.55593 0.15809 0.0
C171 C 0.31381 0.55839 0.3828 0.0
C172 C 0.35092 0.54042 0.3917 0.0
C173 C 0.33105 0.54399 0.35468 0.0
C174 C 0.33702 0.56661 0.48397 0.0
C175 C 0.35363 0.55115 0.45724 0.0
C176 C 0.31718 0.57025 0.4468 0.0
C177 C 0.20047 0.56375 0.42875 0.0
C178 C 0.18667 0.54383 0.53157 0.0
C179 C 0.16603 0.57667 0.49023 0.0
C180 C 0.18257 0.57957 0.43741 0.0
C181 C 0.16702 0.55774 0.5354 0.0
C182 C 0.20329 0.54675 0.47828 0.0
C183 C 0.21196 0.56212 0.36136 0.0
O184 O 0.25208 0.57691 0.1917 0.0
O185 O 0.24757 0.53676 0.19496 0.0
O186 O 0.22019 0.54121 0.34165 0.0
O187 O 0.22485 0.58164 0.34069 0.0
H188 H 0.20137 0.55529 0.2053 0.0
H189 H 0.16546 0.55445 0.1393 0.0
H190 H 0.20748 0.55374 0.95419 0.0
H191 H 0.24355 0.55475 0.02079 0.0
H192 H 0.36372 0.52859 0.37028 0.0
H193 H 0.32874 0.53483 0.30513 0.0
H194 H 0.33887 0.57492 0.53467 0.0
H195 H 0.30391 0.58127 0.46941 0.0
H196 H 0.18809 0.52936 0.56629 0.0
H197 H 0.15108 0.58756 0.49084 0.0
H198 H 0.18 0.5927 0.39957 0.0
H199 H 0.21714 0.53445 0.47294 0.0
C200 C 0.11417 0.2287 0.16146 0.0
C201 C 0.11489 0.20563 0.18925 0.0
C202 C 0.10107 0.18492 0.08363 0.0
C203 C 0.10837 0.184 0.15082 0.0
C204 C 0.10175 0.20795 0.05455 0.0
C205 C 0.10808 0.22967 0.09335 0.0
U206 U 0.11934 0.25585 0.33836 0.0
O207 O 0.13801 0.2889 0.38931 0.0
O208 O 0.0991 0.28238 0.39585 0.0
C209 C 0.11812 0.29616 0.41522 0.0
C210 C 0.11682 0.25136 0.20589 0.0
C211 C 0.1159 0.32233 0.43314 0.0
C212 C 0.09856 0.36058 0.41762 0.0
C213 C 0.10428 0.33739 0.39221 0.0
C214 C 0.11674 0.35411 0.52383 0.0
C215 C 0.1041 0.3689 0.48458 0.0
C216 C 0.12259 0.33114 0.49827 0.0
C217 C 0.11813 0.20138 0.46116 0.0
C218 C 0.09878 0.19439 0.57049 0.0
C219 C 0.11492 0.16093 0.5058 0.0
C220 C 0.12348 0.17703 0.45686 0.0
C221 C 0.10112 0.16891 0.56178 0.0
C222 C 0.10681 0.21044 0.5198 0.0
C223 C 0.11964 0.21419 0.39768 0.0
O224 O 0.09845 0.25441 0.24601 0.0
O225 O 0.13699 0.25578 0.2374 0.0
O226 O 0.13915 0.2278 0.3825 0.0
O227 O 0.10029 0.22326 0.3799 0.0
H228 H 0.11949 0.20438 0.24172 0.0
H229 H 0.10825 0.16652 0.17441 0.0
H230 H 0.09608 0.20926 1.00307 0.0
H231 H 0.10724 0.24724 0.07102 0.0
H232 H 0.08917 0.37167 0.38555 0.0
H233 H 0.09885 0.33089 0.34187 0.0
H234 H 0.12102 0.35962 0.57575 0.0
H235 H 0.13125 0.31962 0.53104 0.0
H236 H 0.08944 0.20185 0.61391 0.0
H237 H 0.11752 0.14186 0.49474 0.0
H238 H 0.13222 0.16974 0.41184 0.0
H239 H 0.10273 0.22941 0.52423 0.0
C240 C 0.30947 0.03234 0.0863 0.0
C241 C 0.33089 0.02763 0.11405 0.0
C242 C 0.3495 0.02749 1.00159 0.0
C243 C 0.35072 0.02511 0.07205 0.0
C244 C 0.32803 0.03291 0.97458 0.0
C245 C 0.30816 0.03516 0.0166 0.0
U246 U 0.27769 0.02944 0.2583 0.0
O247 O 0.24699 0.04847 0.29573 0.0
O248 O 0.24422 1.00792 0.28188 0.0
C249 C 0.23339 0.0277 0.29721 0.0
C250 C 0.28805 0.03263 0.12873 0.0
C251 C 0.21265 0.02568 0.34277 0.0
C252 C 0.17002 0.02448 0.3516 0.0
C253 C 0.19094 0.02863 0.31424 0.0
C254 C 0.19227 0.01504 0.44832 0.0
C255 C 0.17029 0.01718 0.41866 0.0
C256 C 0.21339 0.01915 0.41038 0.0
C257 C 0.33098 0.0261 0.38906 0.0
C258 C 0.34849 0.03677 0.49856 0.0
C259 C 0.3698 0.01428 0.41173 0.0
C260 C 0.35101 0.01447 0.36808 0.0
C261 C 0.36864 0.02546 0.47693 0.0
C262 C 0.32975 0.03724 0.45441 0.0
C263 C 0.31179 0.02729 0.34193 0.0
O264 O 0.28159 1.01181 0.15718 0.0
O265 O 0.28676 0.05198 0.1703 0.0
O266 O 0.30375 0.04823 0.32847 0.0
O267 O 0.30147 1.00745 0.31108 0.0
H268 H 0.33209 0.02526 0.16793 0.0
H269 H 0.36677 0.02058 0.09472 0.0
H270 H 0.32648 0.03536 0.92091 0.0
H271 H 0.29167 0.03876 0.99453 0.0
H272 H 0.15357 0.0269 0.32757 0.0
H273 H 0.1901 0.03363 0.26202 0.0
H274 H 0.19309 1.00945 0.49993 0.0
H275 H 0.23008 0.01672 0.4331 0.0
H276 H 0.34743 0.04547 0.54884 0.0
H277 H 0.38539 1.00561 0.39448 0.0
H278 H 0.35233 1.00601 0.31755 0.0
H279 H 0.31433 0.04629 0.47111 0.0
C280 C 0.39461 0.31953 0.13308 0.0
C281 C 0.39701 0.34403 0.15835 0.0
C282 C 0.40457 0.35812 0.0435 0.0
C283 C 0.40204 0.36318 0.11381 0.0
C284 C 0.40107 0.33366 0.01835 0.0
C285 C 0.39626 0.31458 0.06277 0.0
U286 U 0.39219 0.28121 0.29989 0.0
O287 O 0.37447 0.24382 0.31226 0.0
O288 O 0.41299 0.24948 0.30069 0.0
C289 C 0.39457 0.23368 0.31027 0.0
C290 C 0.3931 0.2985 0.1776 0.0
C291 C 0.3979 0.21432 0.35782 0.0
C292 C 0.40955 0.17317 0.37095 0.0
C293 C 0.40292 0.1913 0.32985 0.0
C294 C 0.40512 0.20028 0.47007 0.0
C295 C 0.41104 0.17754 0.44126 0.0
C296 C 0.39876 0.2187 0.42849 0.0
C297 C 0.39506 0.33421 0.44288 0.0
C298 C 0.40696 0.35982 0.5419 0.0
C299 C 0.4012 0.3785 0.43565 0.0
C300 C 0.3946 0.35524 0.40531 0.0
C301 C 0.4086 0.38082 0.50338 0.0
C302 C 0.40032 0.33675 0.5118 0.0
C303 C 0.39319 0.30925 0.41165 0.0
O304 O 0.4121 0.2955 0.21134 0.0
O305 O 0.37335 0.29279 0.2118 0.0
O306 O 0.37342 0.30089 0.38204 0.0
O307 O 0.41222 0.30258 0.37942 0.0
H308 H 0.39587 0.34825 0.21238 0.0
H309 H 0.4046 0.38193 0.13437 0.0
H310 H 0.40324 0.3292 0.96466 0.0
H311 H 0.39476 0.29577 0.04227 0.0
H312 H 0.41406 0.15584 0.34758 0.0
H313 H 0.40256 0.18761 0.27549 0.0
H314 H 0.40631 0.2041 0.52422 0.0
H315 H 0.39523 0.23646 0.45113 0.0
H316 H 0.41214 0.36104 0.5944 0.0
H317 H 0.40225 0.39438 0.40473 0.0
H318 H 0.39045 0.35357 0.35202 0.0
H319 H 0.40063 0.32067 0.54158 0.0
Tb320 Tb 0.99869 1.00572 0.6479 0.0
C321 C 0.05469 1.0105 0.65662 0.0
Tb322 Tb 0.023 0.03702 0.76847 0.0
O323 O 0.01276 0.03292 0.57667 0.0
O324 O 0.00634 0.04329 0.67754 0.0
O325 O 0.03571 0.99907 0.6264 0.0
C326 C 0.04859 0.07289 0.83899 0.0
O327 O 0.05347 0.02565 0.71097 0.0
C328 C 0.00772 0.99112 0.79223 0.0
C329 C 0.96847 0.03312 0.76197 0.0
O330 O 0.04955 0.06882 0.77383 0.0
O331 O 0.03325 0.05661 0.86477 0.0
O332 O 0.01038 1.00862 0.83914 0.0
O333 O 0.01587 0.99963 0.73777 0.0
O334 O 0.98748 0.04805 0.77756 0.0
O335 O 0.9691 0.01421 0.71689 0.0
C336 C 0.97468 0.97023 0.57178 0.0
O337 O 0.97313 0.99371 0.56844 0.0
O338 O 0.98969 0.96685 0.61809 0.0
C339 C 0.01549 0.05075 0.62268 0.0
Tb340 Tb 0.50235 0.04351 0.6796 0.0
C341 C 0.54428 0.01845 0.6161 0.0
Tb342 Tb 0.51623 0.99525 0.74094 0.0
O343 O 0.53403 0.06395 0.72566 0.0
O344 O 0.51791 0.033 0.76773 0.0
O345 O 0.52496 0.02861 0.60072 0.0
C346 C 0.54059 0.9615 0.79402 0.0
O347 O 0.5461 1.00812 0.67494 0.0
C348 C 0.48126 0.98961 0.65687 0.0
C349 C 0.47228 0.01983 0.80236 0.0
O350 O 0.53681 0.96331 0.73013 0.0
O351 O 0.53022 0.97843 0.8285 0.0
O352 O 0.48456 0.97394 0.70233 0.0
O353 O 0.49897 1.0052 0.65464 0.0
O354 O 0.48904 1.00527 0.81452 0.0
O355 O 0.47294 0.03437 0.75019 0.0
C356 C 0.48248 0.07918 0.61775 0.0
O357 O 0.47157 0.06368 0.65814 0.0
O358 O 0.50442 0.0746 0.61281 0.0
C359 C 0.53549 0.04821 0.77195 0.0
Tb360 Tb 0.52389 0.53244 0.6505 0.0
C361 C 0.4686 0.53189 0.66061 0.0
Tb362 Tb 0.4965 0.50093 0.76077 0.0
O363 O 0.50869 0.50668 0.57131 0.0
O364 O 0.51447 0.4948 0.66772 0.0
O365 O 0.48886 0.54301 0.63887 0.0
C366 C 0.47292 0.46634 0.83536 0.0
O367 O 0.46712 0.51416 0.70531 0.0
C368 C 0.51378 0.54539 0.79984 0.0
C369 C 0.55171 0.50455 0.7535 0.0
O370 O 0.47023 0.46859 0.77083 0.0
O371 O 0.48838 0.48364 0.85694 0.0
O372 O 0.50958 0.52774 0.84109 0.0
O373 O 0.50584 0.53815 0.74327 0.0
O374 O 0.53226 0.48959 0.764 0.0
O375 O 0.5519 0.52408 0.71609 0.0
C376 C 0.54671 0.56999 0.58681 0.0
O377 O 0.55159 0.54719 0.57876 0.0
O378 O 0.52943 0.57125 0.63035 0.0
C379 C 0.50537 0.48853 0.61164 0.0
Tb380 Tb 0.99081 0.51319 0.64356 0.0
C381 C 0.03049 0.47762 0.63955 0.0
Tb382 Tb 0.02688 0.51955 0.75966 0.0
O383 O 0.01912 0.52513 0.57117 0.0
O384 O 0.01986 0.53773 0.67243 0.0
O385 O 0.00905 0.48104 0.61956 0.0
C386 C 0.06725 0.52718 0.82617 0.0
O387 O 0.04154 0.49197 0.6878 0.0
C388 C 0.98675 0.49436 0.78558 0.0
C389 C 0.986 0.55478 0.76221 0.0
O390 O 0.0538 0.50669 0.82266 0.0
O391 O 0.05782 0.54363 0.79336 0.0
O392 O 0.999 0.50687 0.83251 0.0
O393 O 0.99817 0.49505 0.73059 0.0
O394 O 0.00701 0.55118 0.78643 0.0
O395 O 0.97623 0.54123 0.71078 0.0
C396 C 0.95028 0.5008 0.5811 0.0
O397 O 0.96536 0.51923 0.5659 0.0
O398 O 0.95818 0.48947 0.63056 0.0
C399 C 0.03137 0.53802 0.61752 0.0
H400 H 0.1598 0.0288 0.55114 0.0
H401 H 0.12945 0.99296 0.37024 0.0
H402 H 0.09134 0.98609 0.4288 0.0
H403 H 0.06604 0.99184 0.5302 0.0
H404 H 0.09699 0.02699 0.71144 0.0
H405 H 0.13533 0.03189 0.65438 0.0
C406 C 0.14499 0.01909 0.52484 0.0
C407 C 0.14755 1.0116 0.45625 0.0
C408 C 0.12311 0.01492 0.55898 0.0
C409 C 0.12795 0.99937 0.42275 0.0
C410 C 0.10613 0.99524 0.45632 0.0
C411 C 0.08127 1.00002 0.55773 0.0
C412 C 0.07849 1.00894 0.62513 0.0
C413 C 0.10343 1.0031 0.52435 0.0
C414 C 0.09846 0.01987 0.65955 0.0
C415 C 0.12048 0.02285 0.62687 0.0
H416 H 0.45576 0.16524 0.44044 0.0
H417 H 0.38734 0.14775 0.53295 0.0
H418 H 0.40295 0.11514 0.59521 0.0
H419 H 0.43658 0.0915 0.62299 0.0
H420 H 0.50501 0.11052 0.53083 0.0
H421 H 0.48906 0.14258 0.46943 0.0
C422 C 0.44437 0.15437 0.47474 0.0
C423 C 0.42054 0.15892 0.48268 0.0
C424 C 0.45353 0.13592 0.51052 0.0
C425 C 0.40583 0.14471 0.52682 0.0
C426 C 0.41475 0.12603 0.56211 0.0
C427 C 0.44796 0.10275 0.58962 0.0
C428 C 0.47202 0.09863 0.58166 0.0
C429 C 0.43863 0.12144 0.55442 0.0
C430 C 0.48649 0.11329 0.538 0.0
C431 C 0.47738 0.13166 0.50278 0.0
H432 H 0.3942 0.57845 0.48879 0.0
H433 H 0.35489 0.50875 0.52065 0.0
H434 H 0.38605 0.49695 0.59256 0.0
H435 H 0.42543 0.50604 0.64265 0.0
H436 H 0.46461 0.57592 0.60779 0.0
H437 H 0.4328 0.58801 0.54115 0.0
C438 C 0.39256 0.56076 0.51186 0.0
C439 C 0.37255 0.5444 0.49994 0.0
C440 C 0.41052 0.55414 0.55266 0.0
C441 C 0.37039 0.52147 0.52937 0.0
C442 C 0.38811 0.51479 0.57051 0.0
C443 C 0.4267 0.52409 0.62178 0.0
C444 C 0.44732 0.54001 0.63051 0.0
C445 C 0.40835 0.53095 0.58238 0.0
C446 C 0.44892 0.56322 0.60192 0.0
C447 C 0.43077 0.57021 0.5635 0.0
H448 H 0.06096 0.38491 0.4688 0.0
H449 H 0.12634 0.40381 0.57251 0.0
H450 H 0.1097 0.43907 0.63048 0.0
H451 H 0.07586 0.46431 0.65326 0.0
H452 H 0.01092 0.44397 0.54725 0.0
H453 H 0.02825 0.41001 0.48869 0.0
C454 C 0.07181 0.39696 0.50302 0.0
C455 C 0.09494 0.39168 0.51574 0.0
C456 C 0.06213 0.41707 0.53639 0.0
C457 C 0.10841 0.40729 0.56186 0.0
C458 C 0.09891 0.42751 0.59505 0.0
C459 C 0.06552 0.45242 0.61744 0.0
C460 C 0.04202 0.45688 0.60521 0.0
C461 C 0.07564 0.43251 0.5832 0.0
C462 C 0.02901 0.44124 0.55817 0.0
C463 C 0.0389 0.42166 0.52429 0.0
H464 H 0.89474 0.02862 1.00236 0.0
H465 H 0.84529 0.01962 0.83885 0.0
H466 H 0.87808 0.02149 0.75656 0.0
H467 H 0.92139 0.02591 0.73092 0.0
H468 H 0.96916 0.042 0.89646 0.0
H469 H 0.93639 0.03797 0.97768 0.0
C470 C 0.89083 0.02771 0.9489 0.0
C471 C 0.86729 0.02402 0.92765 0.0
C472 C 0.90962 0.03027 0.90179 0.0
C473 C 0.8631 0.02196 0.8575 0.0
C474 C 0.8819 0.02332 0.81009 0.0
C475 C 0.92444 0.02899 0.78471 0.0
C476 C 0.94762 0.03443 0.8076 0.0
C477 C 0.90529 0.02754 0.83163 0.0
C478 C 0.95143 0.03833 0.87744 0.0
C479 C 0.93273 0.03573 0.92408 0.0
H480 H 0.60627 0.8799 0.86792 0.0
H481 H 0.57114 0.89037 0.06188 0.0
H482 H 0.5495 0.92221 0.01753 0.0
H483 H 0.53976 0.94677 0.92318 0.0
H484 H 0.57352 0.93576 0.7278 0.0
H485 H 0.59665 0.90494 0.77299 0.0
C486 C 0.59388 0.88919 0.90029 0.0
C487 C 0.59053 0.88291 0.96831 0.0
C488 C 0.58127 0.90752 0.87425 0.0
C489 C 0.57442 0.89516 0.00972 0.0
C490 C 0.5619 0.91331 0.98432 0.0
C491 C 0.55222 0.93763 0.89066 0.0
C492 C 0.55483 0.94334 0.82227 0.0
C493 C 0.56513 0.91963 0.9167 0.0
C494 C 0.57102 0.9314 0.78054 0.0
C495 C 0.58427 0.91381 0.80636 0.0
H496 H 0.6523 0.50331 0.87766 0.0
H497 H 0.61608 0.44422 0.98745 0.0
H498 H 0.5794 0.44976 0.93065 0.0
H499 H 0.55797 0.47072 0.84715 0.0
H500 H 0.59508 0.52936 0.73689 0.0
H501 H 0.63115 0.52419 0.79555 0.0
C502 C 0.63648 0.4914 0.88863 0.0
C503 C 0.63707 0.47316 0.93607 0.0
C504 C 0.61563 0.49443 0.85521 0.0
C505 C 0.61616 0.45845 0.95126 0.0
C506 C 0.59521 0.46149 0.91845 0.0
C507 C 0.574 0.48221 0.83545 0.0
C508 C 0.5738 0.5002 0.78696 0.0
C509 C 0.5948 0.47927 0.86977 0.0
C510 C 0.59467 0.5152 0.77341 0.0
C511 C 0.61536 0.51234 0.80713 0.0
H512 H 0.91534 0.63272 0.86119 0.0
H513 H 0.97497 0.65951 0.9832 0.0
H514 H 0.99691 0.62607 0.93766 0.0
H515 H 1.0001 0.5901 0.85963 0.0
H516 H 0.94079 0.56382 0.7357 0.0
H517 H 0.91821 0.59621 0.7847 0.0
C518 C 0.93313 0.63128 0.87792 0.0
C519 C 0.94332 0.6487 0.92612 0.0
C520 C 0.94593 0.61214 0.85058 0.0
C521 C 0.96636 0.64622 0.9474 0.0
C522 C 0.9791 0.62719 0.92076 0.0
C523 C 0.98223 0.59139 0.84339 0.0
C524 C 0.97238 0.57454 0.79353 0.0
C525 C 0.96918 0.61016 0.87185 0.0
C526 C 0.94908 0.57659 0.77342 0.0
C527 C 0.93603 0.59512 0.80162 0.0
H528 H 0.10762 0.12011 0.57811 0.0
H529 H 0.06012 0.17483 0.64013 0.0
H530 H 0.03104 0.14262 0.67584 0.0
H531 H 0.0156 0.09854 0.66831 0.0
H532 H 0.05848 0.04691 0.56501 0.0
H533 H 0.09195 0.07786 0.56217 0.0
C534 C 0.09075 0.12543 0.59703 0.0
C535 C 0.08614 0.15033 0.60188 0.0
C536 C 0.07272 0.10687 0.60875 0.0
C537 C 0.06469 0.15613 0.63388 0.0
C538 C 0.0476 0.13756 0.65351 0.0
C539 C 0.03235 0.09423 0.64541 0.0
C540 C 0.03492 0.07033 0.61892 0.0
C541 C 0.05087 0.11287 0.63745 0.0
C542 C 0.05641 0.06494 0.58794 0.0
C543 C 0.0755 0.0827 0.58585 0.0
H544 H 0.37587 0.99333 0.57164 0.0
H545 H 0.40744 0.0575 0.47444 0.0
H546 H 0.44582 0.0515 0.52055 0.0
H547 H 0.47095 0.02526 0.57698 0.0
H548 H 0.43957 0.96224 0.67985 0.0
H549 H 0.4005 0.96991 0.64134 0.0
C550 C 0.39108 1.00634 0.56265 0.0
C551 C 0.38919 0.02575 0.52002 0.0
C552 C 0.41308 1.00255 0.58853 0.0
C553 C 0.40878 0.04252 0.5076 0.0
C554 C 0.43067 0.03896 0.53334 0.0
C555 C 0.45548 0.01352 0.59194 0.0
C556 C 0.45799 0.99334 0.63108 0.0
C557 C 0.43315 0.01856 0.57178 0.0
C558 C 0.43798 0.97781 0.64904 0.0
C559 C 0.41566 0.98232 0.62768 0.0
H560 H 0.4492 0.38507 0.57226 0.0
H561 H 0.39749 0.4284 0.49353 0.0
H562 H 0.42273 0.46614 0.5223 0.0
H563 H 0.46155 0.48618 0.55912 0.0
H564 H 0.51181 0.44237 0.64256 0.0
H565 H 0.48514 0.40518 0.62186 0.0
C566 C 0.44313 0.40276 0.56269 0.0
C567 C 0.42161 0.40393 0.53006 0.0
C568 C 0.45776 0.42416 0.57858 0.0
C569 C 0.41419 0.42703 0.51749 0.0
C570 C 0.42862 0.44856 0.5338 0.0
C571 C 0.46654 0.46843 0.5726 0.0
C572 C 0.48875 0.46665 0.6005 0.0
C573 C 0.45082 0.44725 0.56216 0.0
C574 C 0.4949 0.44388 0.61998 0.0
C575 C 0.47965 0.42271 0.60839 0.0
H576 H 0.13621 0.58539 0.60669 0.0
H577 H 0.14801 0.51051 0.54659 0.0
H578 H 0.10656 0.49757 0.568 0.0
H579 H 0.06592 0.50904 0.58061 0.0
H580 H 0.0536 0.58275 0.64918 0.0
H581 H 0.09617 0.5951 0.64312 0.0
C582 C 0.12979 0.56615 0.59983 0.0
C583 C 0.14508 0.54913 0.57299 0.0
C584 C 0.1057 0.5589 0.61011 0.0
C585 C 0.1367 0.52412 0.5666 0.0
C586 C 0.11284 0.51672 0.57756 0.0
C587 C 0.0726 0.52768 0.59517 0.0
C588 C 0.05683 0.54519 0.6135 0.0
C589 C 0.09701 0.53422 0.59516 0.0
C590 C 0.0656 0.56921 0.63326 0.0
C591 C 0.08986 0.57616 0.63052 0.0
H592 H 0.91859 0.91657 0.82648 0.0
H593 H 0.97059 0.86485 0.78157 0.0
H594 H 0.99885 0.89829 0.74824 0.0
H595 H 0.01152 0.94319 0.7529 0.0
H596 H 0.96357 0.99226 0.84333 0.0
H597 H 0.93169 0.95953 0.84251 0.0
C598 C 0.93624 0.91224 0.81179 0.0
C599 C 0.94231 0.88787 0.81077 0.0
C600 C 0.95356 0.93166 0.80223 0.0
C601 C 0.96488 0.88315 0.78438 0.0
C602 C 0.98145 0.90246 0.76631 0.0
C603 C 0.99403 0.94653 0.77225 0.0
C604 C 0.98948 0.97032 0.79567 0.0
C605 C 0.97641 0.92688 0.77874 0.0
C606 C 0.96709 0.97443 0.82241 0.0
C607 C 0.94893 0.95561 0.82243 0.0
H608 H 0.6125 0.01378 0.95813 0.0
H609 H 0.65871 0.04533 0.80229 0.0
H610 H 0.62473 0.05643 0.74176 0.0
H611 H 0.58166 0.05847 0.735 0.0
H612 H 0.5358 0.02672 0.89088 0.0
H613 H 0.56979 0.01494 0.95025 0.0
C614 C 0.61516 0.02328 0.91126 0.0
C615 C 0.63814 0.02888 0.88527 0.0
C616 C 0.59559 0.02996 0.87721 0.0
C617 C 0.64121 0.04061 0.82337 0.0
C618 C 0.62179 0.04721 0.78896 0.0
C619 C 0.57928 0.04942 0.78264 0.0
C620 C 0.55647 0.04388 0.80957 0.0
C621 C 0.59891 0.04232 0.81592 0.0
C622 C 0.55336 0.03141 0.86999 0.0
C623 C 0.57273 0.02457 0.90371 0.0
H624 H 0.57159 0.64832 0.82858 0.0
H625 H 0.61402 0.60835 0.95427 0.0
H626 H 0.5892 0.57035 0.92673 0.0
H627 H 0.55314 0.54949 0.87512 0.0
H628 H 0.5115 0.5898 0.74856 0.0
H629 H 0.53853 0.62681 0.76765 0.0
C630 C 0.57585 0.63123 0.8487 0.0
C631 C 0.59449 0.63122 0.89403 0.0
C632 C 0.5614 0.60966 0.83337 0.0
C633 C 0.59951 0.6089 0.92018 0.0
C634 C 0.58532 0.58721 0.90455 0.0
C635 C 0.55004 0.56647 0.85212 0.0
C636 C 0.53029 0.56729 0.8115 0.0
C637 C 0.56575 0.58756 0.86301 0.0
C638 C 0.52663 0.589 0.78027 0.0
C639 C 0.54203 0.61008 0.79117 0.0
H640 H 0.88569 0.43914 0.81615 0.0
H641 H 0.8678 0.51356 0.85432 0.0
H642 H 0.9081 0.52922 0.82519 0.0
H643 H 0.94985 0.52129 0.81169 0.0
H644 H 0.968 0.44742 0.76843 0.0
H645 H 0.92632 0.43178 0.78028 0.0
C646 C 0.8905 0.4588 0.81654 0.0
C647 C 0.87393 0.4751 0.83927 0.0
C648 C 0.91394 0.46767 0.80202 0.0
C649 C 0.8802 0.50055 0.83753 0.0
C650 C 0.90338 0.50954 0.82204 0.0
C651 C 0.94459 0.50185 0.80401 0.0
C652 C 0.96177 0.48535 0.79123 0.0
C653 C 0.92064 0.49321 0.80827 0.0
C654 C 0.9549 0.46025 0.78004 0.0
C655 C 0.93114 0.45138 0.78618 0.0
H656 H 0.11068 0.16727 0.95416 0.0
H657 H 0.06686 0.15193 0.13117 0.0
H658 H 0.04732 0.11566 0.07248 0.0
H659 H 0.04178 0.08867 0.96994 0.0
H660 H 0.0851 0.10372 0.79196 0.0
H661 H 0.10592 0.13925 0.85182 0.0
C662 C 0.09691 0.15589 0.97978 0.0
C663 C 0.09034 0.16225 0.04715 0.0
C664 C 0.0857 0.13488 0.94559 0.0
C665 C 0.07251 0.14727 0.07975 0.0
C666 C 0.06122 0.12657 0.04609 0.0
C667 C 0.05588 0.09966 0.94447 0.0
C668 C 0.06186 0.09362 0.87666 0.0
C669 C 0.06758 0.12022 0.97898 0.0
C670 C 0.0801 0.10807 0.84415 0.0
C671 C 0.092 0.12841 0.87834 0.0
H672 H 0.39608 0.04024 0.02795 0.0
H673 H 0.34999 1.00597 0.87336 0.0
H674 H 0.38393 1.00063 0.79825 0.0
H675 H 0.42681 1.00618 0.77566 0.0
H676 H 0.47309 0.03657 0.9334 0.0
H677 H 0.43897 0.04251 0.00899 0.0
C678 C 0.39339 0.03123 0.97834 0.0
C679 C 0.37036 0.02381 0.95639 0.0
C680 C 0.41305 0.02741 0.93612 0.0
C681 C 0.36737 1.01251 0.89124 0.0
C682 C 0.38681 1.00918 0.84835 0.0
C683 C 0.42929 0.01376 0.82698 0.0
C684 C 0.45216 0.02082 0.8497 0.0
C685 C 0.40969 0.01665 0.87016 0.0
C686 C 0.45549 0.03077 0.91576 0.0
C687 C 0.43603 0.03428 0.95857 0.0
H688 H 0.44502 0.38762 0.05326 0.0
H689 H 0.384 0.37209 0.92893 0.0
H690 H 0.39958 0.40388 0.85152 0.0
H691 H 0.43123 0.43645 0.81937 0.0
H692 H 0.49192 0.4508 0.94641 0.0
H693 H 0.47622 0.4189 0.02113 0.0
C694 C 0.43505 0.39138 0.00952 0.0
C695 C 0.41328 0.37785 0.99733 0.0
C696 C 0.44428 0.40932 0.96506 0.0
C697 C 0.40077 0.38244 0.93955 0.0
C698 C 0.40971 0.40056 0.89526 0.0
C699 C 0.44094 0.4325 0.86341 0.0
C700 C 0.46265 0.44616 0.87765 0.0
C701 C 0.43155 0.41416 0.90736 0.0
C702 C 0.47505 0.44082 0.9348 0.0
C703 C 0.4661 0.42254 0.97765 0.0
H704 H 0.16904 0.5221 0.93923 0.0
H705 H 0.14944 0.58555 0.05775 0.0
H706 H 0.11223 0.58406 0.9977 0.0
H707 H 0.08438 0.56347 0.9146 0.0
H708 H 0.10234 0.49762 0.80476 0.0
H709 H 0.14118 0.50142 0.85686 0.0
C710 C 0.15669 0.53572 0.95121 0.0
C711 C 0.16192 0.55395 1.0025 0.0
C712 C 0.13504 0.53427 0.91796 0.0
C713 C 0.14568 0.57131 0.01847 0.0
C714 C 0.12445 0.57048 0.98416 0.0
C715 C 0.09693 0.5501 0.90211 0.0
C716 C 0.09071 0.53028 0.8564 0.0
C717 C 0.1188 0.55187 0.93434 0.0
C718 C 0.10685 0.51288 0.84053 0.0
C719 C 0.129 0.51507 0.87015 0.0
H720 H 0.91831 0.89847 0.3575 0.0
H721 H 0.95865 0.84638 0.44945 0.0
H722 H 0.97562 0.8785 0.52745 0.0
H723 H 0.98039 0.92159 0.56821 0.0
H724 H 0.94149 0.97461 0.47619 0.0
H725 H 0.92271 0.94214 0.40021 0.0
C726 C 0.93083 0.89415 0.39451 0.0
C727 C 0.93689 0.86977 0.3976 0.0
C728 C 0.94091 0.91296 0.43941 0.0
C729 C 0.95312 0.86469 0.44644 0.0
C730 C 0.96306 0.88315 0.49097 0.0
C731 C 0.96774 0.92604 0.53167 0.0
C732 C 0.96244 0.9505 0.52767 0.0
C733 C 0.95722 0.90735 0.48781 0.0
C734 C 0.94597 0.95593 0.48011 0.0
C735 C 0.93524 0.93736 0.43658 0.0
H736 H 0.61793 0.02152 0.37163 0.0
H737 H 0.66602 0.01638 0.53457 0.0
H738 H 0.63313 0.01509 0.61635 0.0
H739 H 0.59057 0.01526 0.64189 0.0
H740 H 0.5429 0.02292 0.47973 0.0
H741 H 0.5758 0.02373 0.39771 0.0
C742 C 0.62132 0.02046 0.42506 0.0
C743 C 0.6445 0.01881 0.44643 0.0
C744 C 0.60235 0.02011 0.47214 0.0
C745 C 0.64837 0.01713 0.51612 0.0
C746 C 0.62957 0.01654 0.56316 0.0
C747 C 0.58739 0.01698 0.58853 0.0
C748 C 0.5643 0.01882 0.5668 0.0
C749 C 0.60646 0.01784 0.5417 0.0
C750 C 0.5605 0.02147 0.49772 0.0
C751 C 0.5793 0.02191 0.45077 0.0
H752 H 0.56884 0.66645 0.42711 0.0
H753 H 0.63513 0.63593 0.38669 0.0
H754 H 0.62194 0.60072 0.45525 0.0
H755 H 0.59032 0.57768 0.52314 0.0
H756 H 0.52461 0.60974 0.56299 0.0
H757 H 0.53856 0.64495 0.49765 0.0
C758 C 0.58046 0.65215 0.43367 0.0
C759 C 0.60283 0.65363 0.40155 0.0
C760 C 0.57268 0.63203 0.47242 0.0
C761 C 0.61768 0.63495 0.41019 0.0
C762 C 0.61014 0.61488 0.44945 0.0
C763 C 0.57917 0.59242 0.51733 0.0
C764 C 0.55643 0.59107 0.54752 0.0
C765 C 0.58748 0.613 0.48003 0.0
C766 C 0.54221 0.61039 0.54042 0.0
C767 C 0.55015 0.63056 0.50297 0.0
H768 H 0.85273 0.4547 0.46604 0.0
H769 H 0.86081 0.52047 0.35348 0.0
H770 H 0.89795 0.53367 0.41005 0.0
H771 H 0.92878 0.52575 0.48889 0.0
H772 H 0.92086 0.4598 0.60131 0.0
H773 H 0.88324 0.44722 0.54726 0.0
C774 C 0.86268 0.47194 0.45448 0.0
C775 C 0.85433 0.48667 0.40601 0.0
C776 C 0.88411 0.47921 0.48659 0.0
C777 C 0.86717 0.50893 0.3907 0.0
C778 C 0.88834 0.51642 0.42288 0.0
C779 C 0.91878 0.50864 0.50138 0.0
C780 C 0.92756 0.49364 0.54844 0.0
C781 C 0.89712 0.50159 0.47037 0.0
C782 C 0.91442 0.47161 0.56488 0.0
C783 C 0.89291 0.46441 0.5341 0.0
loop_
_geom_bond_atom_site_label_1
_geom_bond_atom_site_label_2
_geom_bond_distance
_geom_bond_site_symmetry_2
_ccdc_geom_bond_type
C0 C1 1.264 . S
C0 C5 1.479 . S
C0 C10 1.465 . S
C1 C0 1.264 . S
C1 C3 1.339 . S
C1 H28 0.931 . S
C2 C3 1.395 . S
C2 C4 1.320 . S
C3 C1 1.339 . S
C3 C2 1.395 . S
C3 H29 0.929 . S
C4 C2 1.320 . S
C4 C5 1.405 . S
C4 H30 0.930 . S
C5 C0 1.479 . S
C5 C4 1.405 . S
C5 H31 0.931 . S
U6 O7 2.454 . S
U6 O8 2.458 1_554 S
U6 C9 2.984 . S
U6 C10 2.847 . S
U6 C23 2.882 1_554 S
U6 O24 2.441 . S
U6 O25 2.420 . S
U6 O26 2.455 1_554 S
U6 O27 2.449 . S
O7 U6 2.454 . S
O7 C9 1.353 . S
O8 U6 2.458 1_556 S
O8 C9 1.286 1_556 S
C9 U6 2.984 . S
C9 O7 1.353 . S
C9 O8 1.286 1_554 S
C9 C11 1.363 . S
C10 C0 1.465 . S
C10 U6 2.847 . S
C10 O24 1.249 . S
C10 O25 1.202 . S
C11 C9 1.363 . S
C11 C13 1.408 . S
C11 C16 1.342 1_554 S
C12 C13 1.310 . S
C12 C15 1.461 1_554 S
C12 H32 0.932 . S
C13 C11 1.408 . S
C13 C12 1.310 . S
C13 H33 0.930 . S
C14 C15 1.474 . S
C14 C16 1.285 . S
C14 H34 0.929 . S
C15 C12 1.461 1_556 S
C15 C14 1.474 . S
C16 C11 1.342 1_556 S
C16 C14 1.285 . S
C16 H35 0.930 . S
C17 C20 1.424 . S
C17 C22 1.245 . S
C17 C23 1.428 . S
C18 C21 1.260 . S
C18 C22 1.477 . S
C18 H36 0.932 . S
C19 C20 1.384 . S
C19 C21 1.479 . S
C19 H37 0.929 . S
C20 C17 1.424 . S
C20 C19 1.384 . S
C20 H38 0.928 . S
C21 C18 1.260 . S
C21 C19 1.479 . S
C22 C17 1.245 . S
C22 C18 1.477 . S
C22 H39 0.932 . S
C23 U6 2.882 1_556 S
C23 C17 1.428 . S
C23 O26 1.301 . S
C23 O27 1.282 1_556 S
O24 U6 2.441 . S
O24 C10 1.249 . S
O25 U6 2.420 . S
O25 C10 1.202 . S
O26 U6 2.455 1_556 S
O26 C23 1.301 . S
O27 U6 2.449 . S
O27 C23 1.282 1_554 S
H28 C1 0.931 . S
H29 C3 0.929 . S
H30 C4 0.930 . S
H31 C5 0.931 . S
H32 C12 0.932 . S
H33 C13 0.930 . S
H34 C14 0.929 . S
H35 C16 0.930 . S
H36 C18 0.932 . S
H37 C19 0.929 . S
H38 C20 0.928 . S
H39 C22 0.932 . S
C40 C41 1.264 . S
C40 C45 1.479 . S
C40 C50 1.465 . S
C41 C40 1.264 . S
C41 C43 1.339 . S
C41 H68 0.931 . S
C42 C43 1.395 . S
C42 C44 1.320 . S
C43 C41 1.339 . S
C43 C42 1.395 . S
C43 H69 0.929 . S
C44 C42 1.320 . S
C44 C45 1.405 . S
C44 H70 0.930 . S
C45 C40 1.479 . S
C45 C44 1.405 . S
C45 H71 0.931 . S
U46 O47 2.454 . S
U46 O48 2.458 1_554 S
U46 C49 2.983 1_554 S
U46 C50 2.847 . S
U46 C63 2.882 1_554 S
U46 O64 2.441 . S
U46 O65 2.420 . S
U46 O66 2.455 1_554 S
U46 O67 2.449 1_554 S
O47 U46 2.454 . S
O47 C49 1.348 1_554 S
O48 U46 2.458 1_556 S
O48 C49 1.290 . S
C49 U46 2.983 1_556 S
C49 O47 1.348 1_556 S
C49 O48 1.290 . S
C49 C51 1.364 . S
C50 C40 1.465 . S
C50 U46 2.847 . S
C50 O64 1.249 . S
C50 O65 1.202 . S
C51 C49 1.364 . S
C51 C53 1.408 1_556 S
C51 C56 1.342 . S
C52 C53 1.310 . S
C52 C55 1.461 1_554 S
C52 H72 0.932 . S
C53 C51 1.408 1_554 S
C53 C52 1.310 . S
C53 H73 0.930 . S
C54 C55 1.474 . S
C54 C56 1.285 . S
C54 H74 0.929 . S
C55 C52 1.461 1_556 S
C55 C54 1.474 . S
C56 C51 1.342 . S
C56 C54 1.285 . S
C56 H75 0.930 . S
C57 C60 1.424 . S
C57 C62 1.245 . S
C57 C63 1.428 . S
C58 C61 1.260 . S
C58 C62 1.477 . S
C58 H76 0.932 . S
C59 C60 1.384 . S
C59 C61 1.479 . S
C59 H77 0.929 . S
C60 C57 1.424 . S
C60 C59 1.384 . S
C60 H78 0.928 . S
C61 C58 1.260 . S
C61 C59 1.479 . S
C62 C57 1.245 . S
C62 C58 1.477 . S
C62 H79 0.932 . S
C63 U46 2.882 1_556 S
C63 C57 1.428 . S
C63 O66 1.301 . S
C63 O67 1.282 . S
O64 U46 2.441 . S
O64 C50 1.249 . S
O65 U46 2.420 . S
O65 C50 1.202 . S
O66 U46 2.455 1_556 S
O66 C63 1.301 . S
O67 U46 2.449 1_556 S
O67 C63 1.282 . S
H68 C41 0.931 . S
H69 C43 0.929 . S
H70 C44 0.930 . S
H71 C45 0.931 . S
H72 C52 0.932 . S
H73 C53 0.930 . S
H74 C54 0.929 . S
H75 C56 0.930 . S
H76 C58 0.932 . S
H77 C59 0.929 . S
H78 C60 0.928 . S
H79 C62 0.932 . S
C80 C81 1.264 . S
C80 C85 1.479 . S
C80 C90 1.465 . S
C81 C80 1.264 . S
C81 C83 1.339 . S
C81 H108 0.931 . S
C82 C83 1.395 . S
C82 C84 1.320 . S
C83 C81 1.339 . S
C83 C82 1.395 . S
C83 H109 0.929 . S
C84 C82 1.320 . S
C84 C85 1.405 . S
C84 H110 0.916 1_545 S
C85 C80 1.479 . S
C85 C84 1.405 . S
C85 H111 0.931 . S
U86 O87 2.454 . S
U86 O88 2.458 . S
U86 C89 2.984 . S
U86 C90 2.847 . S
U86 C103 2.882 . S
U86 O104 2.441 . S
U86 O105 2.420 . S
U86 O106 2.455 1_554 S
U86 O107 2.449 . S
O87 U86 2.454 . S
O87 C89 1.353 . S
O88 U86 2.458 . S
O88 C89 1.286 . S
C89 U86 2.984 . S
C89 O87 1.353 . S
C89 O88 1.286 . S
C89 C91 1.363 . S
C90 C80 1.465 . S
C90 U86 2.847 . S
C90 O104 1.249 . S
C90 O105 1.202 . S
C91 C89 1.363 . S
C91 C93 1.408 . S
C91 C96 1.342 1_554 S
C92 C93 1.310 . S
C92 C95 1.461 . S
C92 H112 0.932 . S
C93 C91 1.408 . S
C93 C92 1.310 . S
C93 H113 0.930 . S
C94 C95 1.475 1_566 S
C94 C96 1.284 1_565 S
C94 H114 0.930 . S
C95 C92 1.461 . S
C95 C94 1.475 1_544 S
C96 C91 1.342 1_556 S
C96 C94 1.284 1_545 S
C96 H115 0.928 . S
C97 C100 1.424 . S
C97 C102 1.245 . S
C97 C103 1.428 1_556 S
C98 C101 1.260 . S
C98 C102 1.477 . S
C98 H116 0.932 . S
C99 C100 1.384 . S
C99 C101 1.479 . S
C99 H117 0.929 . S
C100 C97 1.424 . S
C100 C99 1.384 . S
C100 H118 0.928 1_556 S
C101 C98 1.260 . S
C101 C99 1.479 . S
C102 C97 1.245 . S
C102 C98 1.477 . S
C102 H119 0.932 . S
C103 U86 2.882 . S
C103 C97 1.428 1_554 S
C103 O106 1.301 1_554 S
C103 O107 1.282 . S
O104 U86 2.441 . S
O104 C90 1.249 . S
O105 U86 2.420 . S
O105 C90 1.202 . S
O106 U86 2.455 1_556 S
O106 C103 1.301 1_556 S
O107 U86 2.449 . S
O107 C103 1.282 . S
H108 C81 0.931 . S
H109 C83 0.929 . S
H110 C84 0.916 1_565 S
H111 C85 0.931 . S
H112 C92 0.932 . S
H113 C93 0.930 . S
H114 C94 0.930 . S
H115 C96 0.928 . S
H116 C98 0.932 . S
H117 C99 0.929 . S
H118 C100 0.928 1_554 S
H119 C102 0.932 . S
C120 C121 1.264 . S
C120 C125 1.479 . S
C120 C130 1.465 . S
C121 C120 1.264 . S
C121 C123 1.339 . S
C121 H148 0.931 . S
C122 C123 1.395 . S
C122 C124 1.320 . S
C123 C121 1.339 . S
C123 C122 1.395 . S
C123 H149 0.929 . S
C124 C122 1.320 . S
C124 C125 1.405 . S
C124 H150 0.930 . S
C125 C120 1.479 . S
C125 C124 1.405 . S
C125 H151 0.931 . S
U126 O127 2.454 . S
U126 O128 2.458 . S
U126 C129 2.984 . S
U126 C130 2.847 . S
U126 C143 2.882 1_554 S
U126 O144 2.441 . S
U126 O145 2.420 . S
U126 O146 2.455 1_554 S
U126 O147 2.449 . S
O127 U126 2.454 . S
O127 C129 1.353 . S
O128 U126 2.458 . S
O128 C129 1.286 . S
C129 U126 2.984 . S
C129 O127 1.353 . S
C129 O128 1.286 . S
C129 C131 1.363 . S
C130 C120 1.465 . S
C130 U126 2.847 . S
C130 O144 1.249 . S
C130 O145 1.202 . S
C131 C129 1.363 . S
C131 C133 1.408 . S
C131 C136 1.342 1_554 S
C132 C133 1.310 . S
C132 C135 1.461 . S
C132 H152 0.932 . S
C133 C131 1.408 . S
C133 C132 1.310 . S
C133 H153 0.930 . S
C134 C135 1.474 1_556 S
C134 C136 1.285 . S
C134 H154 0.929 . S
C135 C132 1.461 . S
C135 C134 1.474 1_554 S
C136 C131 1.342 1_556 S
C136 C134 1.285 . S
C136 H155 0.930 . S
C137 C140 1.424 . S
C137 C142 1.245 . S
C137 C143 1.428 . S
C138 C141 1.260 . S
C138 C142 1.477 . S
C138 H156 0.932 . S
C139 C140 1.384 . S
C139 C141 1.479 . S
C139 H157 0.929 . S
C140 C137 1.424 . S
C140 C139 1.384 . S
C140 H158 0.912 1_556 S
C141 C138 1.260 . S
C141 C139 1.479 . S
C142 C137 1.245 . S
C142 C138 1.477 . S
C142 H159 0.932 . S
C143 U126 2.882 1_556 S
C143 C137 1.428 . S
C143 O146 1.301 . S
C143 O147 1.282 1_556 S
O144 U126 2.441 . S
O144 C130 1.249 . S
O145 U126 2.420 . S
O145 C130 1.202 . S
O146 U126 2.455 1_556 S
O146 C143 1.301 . S
O147 U126 2.449 . S
O147 C143 1.282 1_554 S
H148 C121 0.931 . S
H149 C123 0.929 . S
H150 C124 0.930 . S
H151 C125 0.931 . S
H152 C132 0.932 . S
H153 C133 0.930 . S
H154 C134 0.929 . S
H155 C136 0.930 . S
H156 C138 0.932 . S
H157 C139 0.929 . S
H158 C140 0.912 1_554 S
H159 C142 0.932 . S
C160 C161 1.264 . S
C160 C165 1.479 . S
C160 C170 1.465 . S
C161 C160 1.264 . S
C161 C163 1.339 . S
C161 H188 0.931 . S
C162 C163 1.384 1_556 S
C162 C164 1.318 1_556 S
C163 C161 1.339 . S
C163 C162 1.384 1_554 S
C163 H189 0.929 . S
C164 C162 1.318 1_554 S
C164 C165 1.405 . S
C164 H190 0.930 1_554 S
C165 C160 1.479 . S
C165 C164 1.405 . S
C165 H191 0.931 . S
U166 O167 2.454 . S
U166 O168 2.458 . S
U166 C169 2.984 . S
U166 C170 2.847 . S
U166 C183 2.882 . S
U166 O184 2.441 . S
U166 O185 2.420 . S
U166 O186 2.455 . S
U166 O187 2.449 . S
O167 U166 2.454 . S
O167 C169 1.353 . S
O168 U166 2.458 . S
O168 C169 1.286 . S
C169 U166 2.984 . S
C169 O167 1.353 . S
C169 O168 1.286 . S
C169 C171 1.363 . S
C170 C160 1.465 . S
C170 U166 2.847 . S
C170 O184 1.249 . S
C170 O185 1.202 . S
C171 C169 1.363 . S
C171 C173 1.408 . S
C171 C176 1.342 . S
C172 C173 1.310 . S
C172 C175 1.461 . S
C172 H192 0.932 . S
C173 C171 1.408 . S
C173 C172 1.310 . S
C173 H193 0.930 . S
C174 C175 1.474 . S
C174 C176 1.285 . S
C174 H194 0.929 . S
C175 C172 1.461 . S
C175 C174 1.474 . S
C176 C171 1.342 . S
C176 C174 1.285 . S
C176 H195 0.930 . S
C177 C180 1.424 . S
C177 C182 1.245 . S
C177 C183 1.428 . S
C178 C181 1.260 . S
C178 C182 1.477 . S
C178 H196 0.932 . S
C179 C180 1.384 . S
C179 C181 1.479 . S
C179 H197 0.929 . S
C180 C177 1.424 . S
C180 C179 1.384 . S
C180 H198 0.928 . S
C181 C178 1.260 . S
C181 C179 1.479 . S
C182 C177 1.245 . S
C182 C178 1.477 . S
C182 H199 0.932 . S
C183 U166 2.882 . S
C183 C177 1.428 . S
C183 O186 1.301 . S
C183 O187 1.282 . S
O184 U166 2.441 . S
O184 C170 1.249 . S
O185 U166 2.420 . S
O185 C170 1.202 . S
O186 U166 2.455 . S
O186 C183 1.301 . S
O187 U166 2.449 . S
O187 C183 1.282 . S
H188 C161 0.931 . S
H189 C163 0.929 . S
H190 C164 0.930 1_556 S
H191 C165 0.931 . S
H192 C172 0.932 . S
H193 C173 0.930 . S
H194 C174 0.929 . S
H195 C176 0.930 . S
H196 C178 0.932 . S
H197 C179 0.929 . S
H198 C180 0.928 . S
H199 C182 0.932 . S
C200 C201 1.264 . S
C200 C205 1.479 . S
C200 C210 1.465 . S
C201 C200 1.264 . S
C201 C203 1.339 . S
C201 H228 0.931 . S
C202 C203 1.395 . S
C202 C204 1.320 . S
C203 C201 1.339 . S
C203 C202 1.395 . S
C203 H229 0.929 . S
C204 C202 1.320 . S
C204 C205 1.405 . S
C204 H230 0.930 . S
C205 C200 1.479 . S
C205 C204 1.405 . S
C205 H231 0.931 . S
U206 O207 2.454 . S
U206 O208 2.458 . S
U206 C209 2.984 . S
U206 C210 2.847 . S
U206 C223 2.882 . S
U206 O224 2.441 . S
U206 O225 2.420 . S
U206 O226 2.455 . S
U206 O227 2.449 . S
O207 U206 2.454 . S
O207 C209 1.353 . S
O208 U206 2.458 . S
O208 C209 1.286 . S
C209 U206 2.984 . S
C209 O207 1.353 . S
C209 O208 1.286 . S
C209 C211 1.363 . S
C210 C200 1.465 . S
C210 U206 2.847 . S
C210 O224 1.249 . S
C210 O225 1.202 . S
C211 C209 1.363 . S
C211 C213 1.408 . S
C211 C216 1.342 . S
C212 C213 1.310 . S
C212 C215 1.461 . S
C212 H232 0.932 . S
C213 C211 1.408 . S
C213 C212 1.310 . S
C213 H233 0.930 . S
C214 C215 1.474 . S
C214 C216 1.285 . S
C214 H234 0.929 . S
C215 C212 1.461 . S
C215 C214 1.474 . S
C216 C211 1.342 . S
C216 C214 1.285 . S
C216 H235 0.930 . S
C217 C220 1.424 . S
C217 C222 1.245 . S
C217 C223 1.428 . S
C218 C221 1.260 . S
C218 C222 1.477 . S
C218 H236 0.932 . S
C219 C220 1.384 . S
C219 C221 1.479 . S
C219 H237 0.929 . S
C220 C217 1.424 . S
C220 C219 1.384 . S
C220 H238 0.928 . S
C221 C218 1.260 . S
C221 C219 1.479 . S
C222 C217 1.245 . S
C222 C218 1.477 . S
C222 H239 0.932 . S
C223 U206 2.882 . S
C223 C217 1.428 . S
C223 O226 1.301 . S
C223 O227 1.282 . S
O224 U206 2.441 . S
O224 C210 1.249 . S
O225 U206 2.420 . S
O225 C210 1.202 . S
O226 U206 2.455 . S
O226 C223 1.301 . S
O227 U206 2.449 . S
O227 C223 1.282 . S
H228 C201 0.931 . S
H229 C203 0.929 . S
H230 C204 0.930 . S
H231 C205 0.931 . S
H232 C212 0.932 . S
H233 C213 0.930 . S
H234 C214 0.929 . S
H235 C216 0.930 . S
H236 C218 0.932 . S
H237 C219 0.929 . S
H238 C220 0.928 . S
H239 C222 0.932 . S
C240 C241 1.264 . S
C240 C245 1.479 . S
C240 C250 1.465 . S
C241 C240 1.264 . S
C241 C243 1.339 . S
C241 H268 0.931 . S
C242 C243 1.395 1_556 S
C242 C244 1.320 . S
C243 C241 1.339 . S
C243 C242 1.395 1_554 S
C243 H269 0.929 . S
C244 C242 1.320 . S
C244 C245 1.405 1_556 S
C244 H270 0.930 . S
C245 C240 1.479 . S
C245 C244 1.405 1_554 S
C245 H271 0.931 . S
U246 O247 2.454 . S
U246 O248 2.458 . S
U246 C249 2.984 . S
U246 C250 2.847 . S
U246 C263 2.882 . S
U246 O264 2.441 . S
U246 O265 2.420 . S
U246 O266 2.455 . S
U246 O267 2.449 . S
O247 U246 2.454 . S
O247 C249 1.353 . S
O248 U246 2.458 . S
O248 C249 1.286 . S
C249 U246 2.984 . S
C249 O247 1.353 . S
C249 O248 1.286 . S
C249 C251 1.363 . S
C250 C240 1.465 . S
C250 U246 2.847 . S
C250 O264 1.249 . S
C250 O265 1.202 . S
C251 C249 1.363 . S
C251 C253 1.408 . S
C251 C256 1.342 . S
C252 C253 1.310 . S
C252 C255 1.461 . S
C252 H272 0.932 . S
C253 C251 1.408 . S
C253 C252 1.310 . S
C253 H273 0.930 . S
C254 C255 1.474 . S
C254 C256 1.285 . S
C254 H274 0.929 . S
C255 C252 1.461 . S
C255 C254 1.474 . S
C256 C251 1.342 . S
C256 C254 1.285 . S
C256 H275 0.930 . S
C257 C260 1.424 . S
C257 C262 1.245 . S
C257 C263 1.428 . S
C258 C261 1.260 . S
C258 C262 1.477 . S
C258 H276 0.932 . S
C259 C260 1.384 . S
C259 C261 1.479 . S
C259 H277 0.929 . S
C260 C257 1.424 . S
C260 C259 1.384 . S
C260 H278 0.928 . S
C261 C258 1.260 . S
C261 C259 1.479 . S
C262 C257 1.245 . S
C262 C258 1.477 . S
C262 H279 0.932 . S
C263 U246 2.882 . S
C263 C257 1.428 . S
C263 O266 1.301 . S
C263 O267 1.282 . S
O264 U246 2.441 . S
O264 C250 1.249 . S
O265 U246 2.420 . S
O265 C250 1.202 . S
O266 U246 2.455 . S
O266 C263 1.301 . S
O267 U246 2.449 . S
O267 C263 1.282 . S
H268 C241 0.931 . S
H269 C243 0.929 . S
H270 C244 0.930 . S
H271 C245 0.931 . S
H272 C252 0.932 . S
H273 C253 0.930 . S
H274 C254 0.929 . S
H275 C256 0.930 . S
H276 C258 0.932 . S
H277 C259 0.929 . S
H278 C260 0.928 . S
H279 C262 0.932 . S
C280 C281 1.264 . S
C280 C285 1.479 . S
C280 C290 1.465 . S
C281 C280 1.264 . S
C281 C283 1.339 . S
C281 H308 0.931 . S
C282 C283 1.395 1_556 S
C282 C284 1.320 . S
C283 C281 1.339 . S
C283 C282 1.395 1_554 S
C283 H309 0.929 . S
C284 C282 1.320 . S
C284 C285 1.405 1_556 S
C284 H310 0.930 . S
C285 C280 1.479 . S
C285 C284 1.405 1_554 S
C285 H311 0.931 . S
U286 O287 2.454 . S
U286 O288 2.458 . S
U286 C289 2.984 . S
U286 C290 2.847 . S
U286 C303 2.882 . S
U286 O304 2.441 . S
U286 O305 2.420 . S
U286 O306 2.455 . S
U286 O307 2.449 . S
O287 U286 2.454 . S
O287 C289 1.353 . S
O288 U286 2.458 . S
O288 C289 1.286 . S
C289 U286 2.984 . S
C289 O287 1.353 . S
C289 O288 1.286 . S
C289 C291 1.363 . S
C290 C280 1.465 . S
C290 U286 2.847 . S
C290 O304 1.249 . S
C290 O305 1.202 . S
C291 C289 1.363 . S
C291 C293 1.408 . S
C291 C296 1.342 . S
C292 C293 1.310 . S
C292 C295 1.461 . S
C292 H312 0.932 . S
C293 C291 1.408 . S
C293 C292 1.310 . S
C293 H313 0.930 . S
C294 C295 1.474 . S
C294 C296 1.285 . S
C294 H314 0.929 . S
C295 C292 1.461 . S
C295 C294 1.474 . S
C296 C291 1.342 . S
C296 C294 1.285 . S
C296 H315 0.930 . S
C297 C300 1.424 . S
C297 C302 1.245 . S
C297 C303 1.428 . S
C298 C301 1.260 . S
C298 C302 1.477 . S
C298 H316 0.932 . S
C299 C300 1.384 . S
C299 C301 1.479 . S
C299 H317 0.929 . S
C300 C297 1.424 . S
C300 C299 1.384 . S
C300 H318 0.928 . S
C301 C298 1.260 . S
C301 C299 1.479 . S
C302 C297 1.245 . S
C302 C298 1.477 . S
C302 H319 0.932 . S
C303 U286 2.882 . S
C303 C297 1.428 . S
C303 O306 1.301 . S
C303 O307 1.282 . S
O304 U286 2.441 . S
O304 C290 1.249 . S
O305 U286 2.420 . S
O305 C290 1.202 . S
O306 U286 2.455 . S
O306 C303 1.301 . S
O307 U286 2.449 . S
O307 C303 1.282 . S
H308 C281 0.931 . S
H309 C283 0.929 . S
H310 C284 0.930 . S
H311 C285 0.931 . S
H312 C292 0.932 . S
H313 C293 0.930 . S
H314 C294 0.929 . S
H315 C296 0.930 . S
H316 C298 0.932 . S
H317 C299 0.929 . S
H318 C300 0.928 . S
H319 C302 0.932 . S
Tb320 O323 2.459 1_655 S
Tb320 O324 2.599 1_655 S
Tb320 O325 2.373 1_645 S
Tb320 O333 2.340 1_545 S
Tb320 O335 2.355 . S
Tb320 O337 2.423 1_545 S
Tb320 O338 2.507 1_545 S
C321 O325 1.251 . S
C321 O327 1.263 . S
Tb322 O324 2.343 . S
Tb322 O327 2.353 1_545 S
Tb322 O330 2.427 . S
Tb322 O331 2.513 . S
Tb322 O332 2.453 1_545 S
Tb322 O333 2.596 1_445 S
Tb322 O334 2.374 1_455 S
O323 Tb320 2.459 1_455 S
O323 C339 1.245 . S
O324 Tb320 2.599 1_455 S
O324 Tb322 2.343 . S
O324 C339 1.259 . S
O325 Tb320 2.373 1_465 S
O325 C321 1.251 . S
C326 O330 1.275 . S
C326 O331 1.246 . S
O327 C321 1.263 . S
O327 Tb322 2.353 1_565 S
C328 O332 1.245 1_655 S
C328 O333 1.259 . S
C329 O334 1.250 . S
C329 O335 1.263 . S
O330 Tb322 2.427 . S
O330 C326 1.275 . S
O331 Tb322 2.513 . S
O331 C326 1.246 . S
O332 Tb322 2.453 1_565 S
O332 C328 1.245 1_455 S
O333 Tb320 2.340 1_565 S
O333 Tb322 2.596 1_665 S
O333 C328 1.259 . S
O334 Tb322 2.374 1_655 S
O334 C329 1.250 . S
O335 Tb320 2.355 . S
O335 C329 1.263 . S
C336 O337 1.275 . S
C336 O338 1.246 . S
O337 Tb320 2.423 1_565 S
O337 C336 1.275 . S
O338 Tb320 2.507 1_565 S
O338 C336 1.246 . S
C339 O323 1.245 . S
C339 O324 1.259 . S
Tb340 O343 2.453 . S
Tb340 O344 2.596 . S
Tb340 O345 2.374 . S
Tb340 O353 2.343 . S
Tb340 O355 2.353 . S
Tb340 O357 2.427 . S
Tb340 O358 2.513 . S
C341 O345 1.251 . S
C341 O347 1.263 1_545 S
Tb342 O344 2.343 1_565 S
Tb342 O347 2.353 . S
Tb342 O350 2.427 . S
Tb342 O351 2.513 . S
Tb342 O352 2.453 . S
Tb342 O353 2.596 1_565 S
Tb342 O354 2.374 . S
O343 Tb340 2.453 . S
O343 C359 1.245 . S
O344 Tb340 2.596 . S
O344 Tb342 2.343 1_545 S
O344 C359 1.259 . S
O345 Tb340 2.374 . S
O345 C341 1.251 . S
C346 O350 1.275 . S
C346 O351 1.246 . S
O347 C341 1.263 1_565 S
O347 Tb342 2.353 . S
C348 O352 1.245 . S
C348 O353 1.259 1_565 S
C349 O354 1.250 1_545 S
C349 O355 1.263 . S
O350 Tb342 2.427 . S
O350 C346 1.275 . S
O351 Tb342 2.513 . S
O351 C346 1.246 . S
O352 Tb342 2.453 . S
O352 C348 1.245 . S
O353 Tb340 2.343 . S
O353 Tb342 2.596 1_545 S
O353 C348 1.259 1_545 S
O354 Tb342 2.374 . S
O354 C349 1.250 1_565 S
O355 Tb340 2.353 . S
O355 C349 1.263 . S
C356 O357 1.275 . S
C356 O358 1.246 . S
O357 Tb340 2.427 . S
O357 C356 1.275 . S
O358 Tb340 2.513 . S
O358 C356 1.246 . S
C359 O343 1.245 . S
C359 O344 1.259 . S
Tb360 O363 2.453 . S
Tb360 O364 2.596 . S
Tb360 O365 2.374 . S
Tb360 O373 2.343 . S
Tb360 O375 2.353 . S
Tb360 O377 2.427 . S
Tb360 O378 2.513 . S
C361 O365 1.251 . S
C361 O367 1.263 . S
Tb362 O364 2.343 . S
Tb362 O367 2.353 . S
Tb362 O370 2.427 . S
Tb362 O371 2.513 . S
Tb362 O372 2.453 . S
Tb362 O373 2.596 . S
Tb362 O374 2.374 . S
O363 Tb360 2.453 . S
O363 C379 1.245 . S
O364 Tb360 2.596 . S
O364 Tb362 2.343 . S
O364 C379 1.259 . S
O365 Tb360 2.374 . S
O365 C361 1.251 . S
C366 O370 1.275 . S
C366 O371 1.246 . S
O367 C361 1.263 . S
O367 Tb362 2.353 . S
C368 O372 1.245 . S
C368 O373 1.259 . S
C369 O374 1.250 . S
C369 O375 1.263 . S
O370 Tb362 2.427 . S
O370 C366 1.275 . S
O371 Tb362 2.513 . S
O371 C366 1.246 . S
O372 Tb362 2.453 . S
O372 C368 1.245 . S
O373 Tb360 2.343 . S
O373 Tb362 2.596 . S
O373 C368 1.259 . S
O374 Tb362 2.374 . S
O374 C369 1.250 . S
O375 Tb360 2.353 . S
O375 C369 1.263 . S
C376 O377 1.275 . S
C376 O378 1.246 . S
O377 Tb360 2.427 . S
O377 C376 1.275 . S
O378 Tb360 2.513 . S
O378 C376 1.246 . S
C379 O363 1.245 . S
C379 O364 1.259 . S
Tb380 O383 2.453 1_655 S
Tb380 O384 2.596 1_655 S
Tb380 O385 2.374 1_655 S
Tb380 O393 2.343 . S
Tb380 O395 2.353 . S
Tb380 O397 2.427 . S
Tb380 O398 2.513 . S
C381 O385 1.251 . S
C381 O387 1.263 . S
Tb382 O384 2.343 . S
Tb382 O387 2.353 . S
Tb382 O390 2.427 . S
Tb382 O391 2.513 . S
Tb382 O392 2.453 1_455 S
Tb382 O393 2.596 1_455 S
Tb382 O394 2.374 . S
O383 Tb380 2.453 1_455 S
O383 C399 1.245 . S
O384 Tb380 2.596 1_455 S
O384 Tb382 2.343 . S
O384 C399 1.259 . S
O385 Tb380 2.374 1_455 S
O385 C381 1.251 . S
C386 O390 1.275 . S
C386 O391 1.246 . S
O387 C381 1.263 . S
O387 Tb382 2.353 . S
C388 O392 1.245 . S
C388 O393 1.259 . S
C389 O394 1.250 1_655 S
C389 O395 1.263 . S
O390 Tb382 2.427 . S
O390 C386 1.275 . S
O391 Tb382 2.513 . S
O391 C386 1.246 . S
O392 Tb382 2.453 1_655 S
O392 C388 1.245 . S
O393 Tb380 2.343 . S
O393 Tb382 2.596 1_655 S
O393 C388 1.259 . S
O394 Tb382 2.374 . S
O394 C389 1.250 1_455 S
O395 Tb380 2.353 . S
O395 C389 1.263 . S
C396 O397 1.275 . S
C396 O398 1.246 . S
O397 Tb380 2.427 . S
O397 C396 1.275 . S
O398 Tb380 2.513 . S
O398 C396 1.246 . S
C399 O383 1.245 . S
C399 O384 1.259 . S
H400 C406 0.930 . S
H401 C409 0.930 . S
H402 C410 0.930 . S
H403 C411 0.930 . S
H404 C414 0.930 . S
H405 C415 0.930 . S
C406 H400 0.930 . S
C406 C407 1.355 . S
C406 C408 1.415 . S
C407 C406 1.355 . S
C407 C409 1.419 1_545 S
C408 C406 1.415 . S
C408 C413 1.425 1_545 S
C408 C415 1.409 . S
C409 H401 0.930 . S
C409 C407 1.419 1_565 S
C409 C410 1.362 . S
C410 H402 0.930 . S
C410 C409 1.362 . S
C410 C413 1.409 . S
C411 H403 0.930 . S
C411 C412 1.355 1_565 S
C411 C413 1.415 . S
C412 C411 1.355 1_545 S
C412 C414 1.419 . S
C413 C408 1.425 1_565 S
C413 C410 1.409 . S
C413 C411 1.415 . S
C414 H404 0.930 . S
C414 C412 1.419 . S
C414 C415 1.362 . S
C415 H405 0.930 . S
C415 C408 1.409 . S
C415 C414 1.362 . S
H416 C422 0.930 . S
H417 C425 0.930 . S
H418 C426 0.930 . S
H419 C427 0.930 . S
H420 C430 0.930 . S
H421 C431 0.930 . S
C422 H416 0.930 . S
C422 C423 1.355 . S
C422 C424 1.415 . S
C423 C422 1.355 . S
C423 C425 1.419 . S
C424 C422 1.415 . S
C424 C429 1.425 . S
C424 C431 1.409 . S
C425 H417 0.930 . S
C425 C423 1.419 . S
C425 C426 1.362 . S
C426 H418 0.930 . S
C426 C425 1.362 . S
C426 C429 1.409 . S
C427 H419 0.930 . S
C427 C428 1.355 . S
C427 C429 1.415 . S
C428 C427 1.355 . S
C428 C430 1.419 . S
C429 C424 1.425 . S
C429 C426 1.409 . S
C429 C427 1.415 . S
C430 H420 0.930 . S
C430 C428 1.419 . S
C430 C431 1.362 . S
C431 H421 0.930 . S
C431 C424 1.409 . S
C431 C430 1.362 . S
H432 C438 0.930 . S
H433 C441 0.930 . S
H434 C442 0.930 . S
H435 C443 0.930 . S
H436 C446 0.930 . S
H437 C447 0.930 . S
C438 H432 0.930 . S
C438 C439 1.355 . S
C438 C440 1.415 . S
C439 C438 1.355 . S
C439 C441 1.419 . S
C440 C438 1.415 . S
C440 C445 1.425 . S
C440 C447 1.409 . S
C441 H433 0.930 . S
C441 C439 1.419 . S
C441 C442 1.362 . S
C442 H434 0.930 . S
C442 C441 1.362 . S
C442 C445 1.409 . S
C443 H435 0.930 . S
C443 C444 1.355 . S
C443 C445 1.415 . S
C444 C443 1.355 . S
C444 C446 1.419 . S
C445 C440 1.425 . S
C445 C442 1.409 . S
C445 C443 1.415 . S
C446 H436 0.930 . S
C446 C444 1.419 . S
C446 C447 1.362 . S
C447 H437 0.930 . S
C447 C440 1.409 . S
C447 C446 1.362 . S
H448 C454 0.930 . S
H449 C457 0.930 . S
H450 C458 0.930 . S
H451 C459 0.930 . S
H452 C462 0.930 . S
H453 C463 0.930 . S
C454 H448 0.930 . S
C454 C455 1.355 . S
C454 C456 1.415 . S
C455 C454 1.355 . S
C455 C457 1.419 . S
C456 C454 1.415 . S
C456 C461 1.425 . S
C456 C463 1.409 . S
C457 H449 0.930 . S
C457 C455 1.419 . S
C457 C458 1.362 . S
C458 H450 0.930 . S
C458 C457 1.362 . S
C458 C461 1.409 . S
C459 H451 0.930 . S
C459 C460 1.355 . S
C459 C461 1.415 . S
C460 C459 1.355 . S
C460 C462 1.419 . S
C461 C456 1.425 . S
C461 C458 1.409 . S
C461 C459 1.415 . S
C462 H452 0.930 . S
C462 C460 1.419 . S
C462 C463 1.362 . S
C463 H453 0.930 . S
C463 C456 1.409 . S
C463 C462 1.362 . S
H464 C470 0.930 1_554 S
H465 C473 0.930 . S
H466 C474 0.930 . S
H467 C475 0.930 . S
H468 C478 0.930 . S
H469 C479 0.930 . S
C470 H464 0.930 1_556 S
C470 C471 1.355 . S
C470 C472 1.415 . S
C471 C470 1.355 . S
C471 C473 1.419 . S
C472 C470 1.415 . S
C472 C477 1.425 . S
C472 C479 1.409 . S
C473 H465 0.930 . S
C473 C471 1.419 . S
C473 C474 1.362 . S
C474 H466 0.930 . S
C474 C473 1.362 . S
C474 C477 1.409 . S
C475 H467 0.930 . S
C475 C476 1.355 . S
C475 C477 1.415 . S
C476 C475 1.355 . S
C476 C478 1.419 . S
C477 C472 1.425 . S
C477 C474 1.409 . S
C477 C475 1.415 . S
C478 H468 0.930 . S
C478 C476 1.419 . S
C478 C479 1.362 . S
C479 H469 0.930 . S
C479 C472 1.409 . S
C479 C478 1.362 . S
H480 C486 0.930 . S
H481 C489 0.930 . S
H482 C490 0.930 1_554 S
H483 C491 0.930 . S
H484 C494 0.930 . S
H485 C495 0.930 . S
C486 H480 0.930 . S
C486 C487 1.355 . S
C486 C488 1.415 . S
C487 C486 1.355 . S
C487 C489 1.419 1_556 S
C488 C486 1.415 . S
C488 C493 1.425 . S
C488 C495 1.409 . S
C489 H481 0.930 . S
C489 C487 1.419 1_554 S
C489 C490 1.362 1_554 S
C490 H482 0.930 1_556 S
C490 C489 1.362 1_556 S
C490 C493 1.409 . S
C491 H483 0.930 . S
C491 C492 1.355 . S
C491 C493 1.415 . S
C492 C491 1.355 . S
C492 C494 1.419 . S
C493 C488 1.425 . S
C493 C490 1.409 . S
C493 C491 1.415 . S
C494 H484 0.930 . S
C494 C492 1.419 . S
C494 C495 1.362 . S
C495 H485 0.930 . S
C495 C488 1.409 . S
C495 C494 1.362 . S
H496 C502 0.930 . S
H497 C505 0.930 . S
H498 C506 0.930 . S
H499 C507 0.930 . S
H500 C510 0.930 . S
H501 C511 0.930 . S
C502 H496 0.930 . S
C502 C503 1.355 . S
C502 C504 1.415 . S
C503 C502 1.355 . S
C503 C505 1.419 . S
C504 C502 1.415 . S
C504 C509 1.425 . S
C504 C511 1.409 . S
C505 H497 0.930 . S
C505 C503 1.419 . S
C505 C506 1.362 . S
C506 H498 0.930 . S
C506 C505 1.362 . S
C506 C509 1.409 . S
C507 H499 0.930 . S
C507 C508 1.355 . S
C507 C509 1.415 . S
C508 C507 1.355 . S
C508 C510 1.419 . S
C509 C504 1.425 . S
C509 C506 1.409 . S
C509 C507 1.415 . S
C510 H500 0.930 . S
C510 C508 1.419 . S
C510 C511 1.362 . S
C511 H501 0.930 . S
C511 C504 1.409 . S
C511 C510 1.362 . S
H512 C518 0.930 . S
H513 C521 0.930 . S
H514 C522 0.930 . S
H515 C523 0.930 . S
H516 C526 0.930 . S
H517 C527 0.930 . S
C518 H512 0.930 . S
C518 C519 1.355 . S
C518 C520 1.415 . S
C519 C518 1.355 . S
C519 C521 1.419 . S
C520 C518 1.415 . S
C520 C525 1.425 . S
C520 C527 1.409 . S
C521 H513 0.930 . S
C521 C519 1.419 . S
C521 C522 1.362 . S
C522 H514 0.930 . S
C522 C521 1.362 . S
C522 C525 1.409 . S
C523 H515 0.930 . S
C523 C524 1.355 . S
C523 C525 1.415 . S
C524 C523 1.355 . S
C524 C526 1.419 . S
C525 C520 1.425 . S
C525 C522 1.409 . S
C525 C523 1.415 . S
C526 H516 0.930 . S
C526 C524 1.419 . S
C526 C527 1.362 . S
C527 H517 0.930 . S
C527 C520 1.409 . S
C527 C526 1.362 . S
H528 C534 0.930 . S
H529 C537 0.930 . S
H530 C538 0.930 . S
H531 C539 0.930 . S
H532 C542 0.930 . S
H533 C543 0.930 . S
C534 H528 0.930 . S
C534 C535 1.355 . S
C534 C536 1.415 . S
C535 C534 1.355 . S
C535 C537 1.419 . S
C536 C534 1.415 . S
C536 C541 1.425 . S
C536 C543 1.409 . S
C537 H529 0.930 . S
C537 C535 1.419 . S
C537 C538 1.362 . S
C538 H530 0.930 . S
C538 C537 1.362 . S
C538 C541 1.409 . S
C539 H531 0.930 . S
C539 C540 1.355 . S
C539 C541 1.415 . S
C540 C539 1.355 . S
C540 C542 1.419 . S
C541 C536 1.425 . S
C541 C538 1.409 . S
C541 C539 1.415 . S
C542 H532 0.930 . S
C542 C540 1.419 . S
C542 C543 1.362 . S
C543 H533 0.930 . S
C543 C536 1.409 . S
C543 C542 1.362 . S
H544 C550 0.930 . S
H545 C553 0.930 . S
H546 C554 0.930 . S
H547 C555 0.930 . S
H548 C558 0.930 . S
H549 C559 0.930 . S
C550 H544 0.930 . S
C550 C551 1.355 1_565 S
C550 C552 1.415 . S
C551 C550 1.355 1_545 S
C551 C553 1.419 . S
C552 C550 1.415 . S
C552 C557 1.425 1_565 S
C552 C559 1.409 . S
C553 H545 0.930 . S
C553 C551 1.419 . S
C553 C554 1.362 . S
C554 H546 0.930 . S
C554 C553 1.362 . S
C554 C557 1.409 . S
C555 H547 0.930 . S
C555 C556 1.355 . S
C555 C557 1.415 . S
C556 C555 1.355 . S
C556 C558 1.419 1_545 S
C557 C552 1.425 1_545 S
C557 C554 1.409 . S
C557 C555 1.415 . S
C558 H548 0.930 . S
C558 C556 1.419 1_565 S
C558 C559 1.362 . S
C559 H549 0.930 . S
C559 C552 1.409 . S
C559 C558 1.362 . S
H560 C566 0.930 . S
H561 C569 0.930 . S
H562 C570 0.930 . S
H563 C571 0.930 . S
H564 C574 0.930 . S
H565 C575 0.930 . S
C566 H560 0.930 . S
C566 C567 1.355 . S
C566 C568 1.415 . S
C567 C566 1.355 . S
C567 C569 1.419 . S
C568 C566 1.415 . S
C568 C573 1.425 . S
C568 C575 1.409 . S
C569 H561 0.930 . S
C569 C567 1.419 . S
C569 C570 1.362 . S
C570 H562 0.930 . S
C570 C569 1.362 . S
C570 C573 1.409 . S
C571 H563 0.930 . S
C571 C572 1.355 . S
C571 C573 1.415 . S
C572 C571 1.355 . S
C572 C574 1.419 . S
C573 C568 1.425 . S
C573 C570 1.409 . S
C573 C571 1.415 . S
C574 H564 0.930 . S
C574 C572 1.419 . S
C574 C575 1.362 . S
C575 H565 0.930 . S
C575 C568 1.409 . S
C575 C574 1.362 . S
H576 C582 0.930 . S
H577 C585 0.930 . S
H578 C586 0.930 . S
H579 C587 0.930 . S
H580 C590 0.930 . S
H581 C591 0.930 . S
C582 H576 0.930 . S
C582 C583 1.355 . S
C582 C584 1.415 . S
C583 C582 1.355 . S
C583 C585 1.419 . S
C584 C582 1.415 . S
C584 C589 1.425 . S
C584 C591 1.409 . S
C585 H577 0.930 . S
C585 C583 1.419 . S
C585 C586 1.362 . S
C586 H578 0.930 . S
C586 C585 1.362 . S
C586 C589 1.409 . S
C587 H579 0.930 . S
C587 C588 1.355 . S
C587 C589 1.415 . S
C588 C587 1.355 . S
C588 C590 1.419 . S
C589 C584 1.425 . S
C589 C586 1.409 . S
C589 C587 1.415 . S
C590 H580 0.930 . S
C590 C588 1.419 . S
C590 C591 1.362 . S
C591 H581 0.930 . S
C591 C584 1.409 . S
C591 C590 1.362 . S
H592 C598 0.930 . S
H593 C601 0.930 . S
H594 C602 0.930 . S
H595 C603 0.930 . S
H596 C606 0.930 . S
H597 C607 0.930 . S
C598 H592 0.930 . S
C598 C599 1.355 . S
C598 C600 1.415 . S
C599 C598 1.355 . S
C599 C601 1.419 . S
C600 C598 1.415 . S
C600 C605 1.425 . S
C600 C607 1.409 . S
C601 H593 0.930 . S
C601 C599 1.419 . S
C601 C602 1.362 . S
C602 H594 0.930 . S
C602 C601 1.362 . S
C602 C605 1.409 . S
C603 H595 0.930 . S
C603 C604 1.355 . S
C603 C605 1.415 . S
C604 C603 1.355 . S
C604 C606 1.419 . S
C605 C600 1.425 . S
C605 C602 1.409 . S
C605 C603 1.415 . S
C606 H596 0.930 . S
C606 C604 1.419 . S
C606 C607 1.362 . S
C607 H597 0.930 . S
C607 C600 1.409 . S
C607 C606 1.362 . S
H608 C614 0.930 . S
H609 C617 0.930 . S
H610 C618 0.930 . S
H611 C619 0.930 . S
H612 C622 0.930 . S
H613 C623 0.931 . S
C614 H608 0.930 . S
C614 C615 1.354 . S
C614 C616 1.415 1_565 S
C615 C614 1.354 . S
C615 C617 1.415 1_565 S
C616 C614 1.415 1_545 S
C616 C621 1.425 . S
C616 C623 1.409 . S
C617 H609 0.930 . S
C617 C615 1.415 1_545 S
C617 C618 1.362 . S
C618 H610 0.930 . S
C618 C617 1.362 . S
C618 C621 1.409 . S
C619 H611 0.930 . S
C619 C620 1.355 . S
C619 C621 1.415 . S
C620 C619 1.355 . S
C620 C622 1.419 . S
C621 C616 1.425 . S
C621 C618 1.409 . S
C621 C619 1.415 . S
C622 H612 0.930 . S
C622 C620 1.419 . S
C622 C623 1.362 . S
C623 H613 0.931 . S
C623 C616 1.409 . S
C623 C622 1.362 . S
H624 C630 0.930 . S
H625 C633 0.930 . S
H626 C634 0.930 . S
H627 C635 0.930 . S
H628 C638 0.930 . S
H629 C639 0.930 . S
C630 H624 0.930 . S
C630 C631 1.355 . S
C630 C632 1.415 . S
C631 C630 1.355 . S
C631 C633 1.419 . S
C632 C630 1.415 . S
C632 C637 1.425 . S
C632 C639 1.409 . S
C633 H625 0.930 . S
C633 C631 1.419 . S
C633 C634 1.362 . S
C634 H626 0.930 . S
C634 C633 1.362 . S
C634 C637 1.409 . S
C635 H627 0.930 . S
C635 C636 1.355 . S
C635 C637 1.415 . S
C636 C635 1.355 . S
C636 C638 1.419 . S
C637 C632 1.425 . S
C637 C634 1.409 . S
C637 C635 1.415 . S
C638 H628 0.930 . S
C638 C636 1.419 . S
C638 C639 1.362 . S
C639 H629 0.930 . S
C639 C632 1.409 . S
C639 C638 1.362 . S
H640 C646 0.930 . S
H641 C649 0.930 . S
H642 C650 0.930 . S
H643 C651 0.930 . S
H644 C654 0.930 . S
H645 C655 0.930 . S
C646 H640 0.930 . S
C646 C647 1.355 . S
C646 C648 1.415 . S
C647 C646 1.355 . S
C647 C649 1.419 . S
C648 C646 1.415 . S
C648 C653 1.425 . S
C648 C655 1.409 . S
C649 H641 0.930 . S
C649 C647 1.419 . S
C649 C650 1.362 . S
C650 H642 0.930 . S
C650 C649 1.362 . S
C650 C653 1.409 . S
C651 H643 0.930 . S
C651 C652 1.355 . S
C651 C653 1.415 . S
C652 C651 1.355 . S
C652 C654 1.419 . S
C653 C648 1.425 . S
C653 C650 1.409 . S
C653 C651 1.415 . S
C654 H644 0.930 . S
C654 C652 1.419 . S
C654 C655 1.362 . S
C655 H645 0.930 . S
C655 C648 1.409 . S
C655 C654 1.362 . S
H656 C662 0.930 . S
H657 C665 0.930 . S
H658 C666 0.930 . S
H659 C667 0.930 . S
H660 C670 0.930 . S
H661 C671 0.930 . S
C662 H656 0.930 . S
C662 C663 1.355 . S
C662 C664 1.415 . S
C663 C662 1.355 . S
C663 C665 1.419 1_556 S
C664 C662 1.415 . S
C664 C669 1.425 . S
C664 C671 1.409 . S
C665 H657 0.930 . S
C665 C663 1.419 1_554 S
C665 C666 1.362 . S
C666 H658 0.930 . S
C666 C665 1.362 . S
C666 C669 1.409 1_554 S
C667 H659 0.930 . S
C667 C668 1.355 . S
C667 C669 1.415 . S
C668 C667 1.355 . S
C668 C670 1.419 . S
C669 C664 1.425 . S
C669 C666 1.409 1_556 S
C669 C667 1.415 . S
C670 H660 0.930 . S
C670 C668 1.419 . S
C670 C671 1.362 . S
C671 H661 0.930 . S
C671 C664 1.409 . S
C671 C670 1.362 . S
H672 C678 0.930 . S
H673 C681 0.930 . S
H674 C682 0.930 . S
H675 C683 0.921 1_565 S
H676 C686 0.930 . S
H677 C687 0.930 . S
C678 H672 0.930 . S
C678 C679 1.355 . S
C678 C680 1.415 . S
C679 C678 1.355 . S
C679 C681 1.419 1_545 S
C680 C678 1.415 . S
C680 C685 1.425 . S
C680 C687 1.409 . S
C681 H673 0.930 . S
C681 C679 1.419 1_565 S
C681 C682 1.362 . S
C682 H674 0.930 . S
C682 C681 1.362 . S
C682 C685 1.409 1_565 S
C683 H675 0.921 1_545 S
C683 C684 1.360 . S
C683 C685 1.419 . S
C684 C683 1.360 . S
C684 C686 1.419 . S
C685 C680 1.425 . S
C685 C682 1.409 1_545 S
C685 C683 1.419 . S
C686 H676 0.930 . S
C686 C684 1.419 . S
C686 C687 1.362 . S
C687 H677 0.930 . S
C687 C680 1.409 . S
C687 C686 1.362 . S
H688 C694 0.930 . S
H689 C697 0.930 . S
H690 C698 0.930 . S
H691 C699 0.930 . S
H692 C702 0.930 . S
H693 C703 0.930 . S
C694 H688 0.930 . S
C694 C695 1.355 . S
C694 C696 1.415 . S
C695 C694 1.355 . S
C695 C697 1.419 . S
C696 C694 1.415 . S
C696 C701 1.425 . S
C696 C703 1.409 . S
C697 H689 0.930 . S
C697 C695 1.419 . S
C697 C698 1.362 . S
C698 H690 0.930 . S
C698 C697 1.362 . S
C698 C701 1.409 . S
C699 H691 0.930 . S
C699 C700 1.355 . S
C699 C701 1.415 . S
C700 C699 1.355 . S
C700 C702 1.419 . S
C701 C696 1.425 . S
C701 C698 1.409 . S
C701 C699 1.415 . S
C702 H692 0.930 . S
C702 C700 1.419 . S
C702 C703 1.362 . S
C703 H693 0.930 . S
C703 C696 1.409 . S
C703 C702 1.362 . S
H704 C710 0.930 . S
H705 C713 0.930 1_554 S
H706 C714 0.930 1_554 S
H707 C715 0.930 . S
H708 C718 0.930 . S
H709 C719 0.930 . S
C710 H704 0.930 . S
C710 C711 1.355 . S
C710 C712 1.415 . S
C711 C710 1.355 . S
C711 C713 1.419 . S
C712 C710 1.415 . S
C712 C717 1.425 . S
C712 C719 1.409 . S
C713 H705 0.930 1_556 S
C713 C711 1.419 . S
C713 C714 1.362 . S
C714 H706 0.930 1_556 S
C714 C713 1.362 . S
C714 C717 1.409 . S
C715 H707 0.930 . S
C715 C716 1.355 . S
C715 C717 1.415 . S
C716 C715 1.355 . S
C716 C718 1.419 . S
C717 C712 1.425 . S
C717 C714 1.409 . S
C717 C715 1.415 . S
C718 H708 0.930 . S
C718 C716 1.419 . S
C718 C719 1.362 . S
C719 H709 0.930 . S
C719 C712 1.409 . S
C719 C718 1.362 . S
H720 C726 0.930 . S
H721 C729 0.930 . S
H722 C730 0.930 . S
H723 C731 0.930 . S
H724 C734 0.930 . S
H725 C735 0.930 . S
C726 H720 0.930 . S
C726 C727 1.355 . S
C726 C728 1.415 . S
C727 C726 1.355 . S
C727 C729 1.419 . S
C728 C726 1.415 . S
C728 C733 1.425 . S
C728 C735 1.409 . S
C729 H721 0.930 . S
C729 C727 1.419 . S
C729 C730 1.362 . S
C730 H722 0.930 . S
C730 C729 1.362 . S
C730 C733 1.409 . S
C731 H723 0.930 . S
C731 C732 1.355 . S
C731 C733 1.415 . S
C732 C731 1.355 . S
C732 C734 1.419 . S
C733 C728 1.425 . S
C733 C730 1.409 . S
C733 C731 1.415 . S
C734 H724 0.930 . S
C734 C732 1.419 . S
C734 C735 1.362 . S
C735 H725 0.930 . S
C735 C728 1.409 . S
C735 C734 1.362 . S
H736 C742 0.930 . S
H737 C745 0.930 . S
H738 C746 0.930 . S
H739 C747 0.931 . S
H740 C750 0.930 . S
H741 C751 0.930 . S
C742 H736 0.930 . S
C742 C743 1.355 . S
C742 C744 1.415 . S
C743 C742 1.355 . S
C743 C745 1.419 1_545 S
C744 C742 1.415 . S
C744 C749 1.427 . S
C744 C751 1.409 . S
C745 H737 0.930 . S
C745 C743 1.419 1_565 S
C745 C746 1.362 . S
C746 H738 0.930 . S
C746 C745 1.362 . S
C746 C749 1.407 1_565 S
C747 H739 0.931 . S
C747 C748 1.353 1_565 S
C747 C749 1.416 1_565 S
C748 C747 1.353 1_545 S
C748 C750 1.419 . S
C749 C744 1.427 . S
C749 C746 1.407 1_545 S
C749 C747 1.416 1_545 S
C750 H740 0.930 . S
C750 C748 1.419 . S
C750 C751 1.362 . S
C751 H741 0.930 . S
C751 C744 1.409 . S
C751 C750 1.362 . S
H752 C758 0.930 . S
H753 C761 0.930 . S
H754 C762 0.930 . S
H755 C763 0.930 . S
H756 C766 0.930 . S
H757 C767 0.930 . S
C758 H752 0.930 . S
C758 C759 1.355 . S
C758 C760 1.415 . S
C759 C758 1.355 . S
C759 C761 1.419 . S
C760 C758 1.415 . S
C760 C765 1.425 . S
C760 C767 1.409 . S
C761 H753 0.930 . S
C761 C759 1.419 . S
C761 C762 1.362 . S
C762 H754 0.930 . S
C762 C761 1.362 . S
C762 C765 1.409 . S
C763 H755 0.930 . S
C763 C764 1.355 . S
C763 C765 1.415 . S
C764 C763 1.355 . S
C764 C766 1.419 . S
C765 C760 1.425 . S
C765 C762 1.409 . S
C765 C763 1.415 . S
C766 H756 0.930 . S
C766 C764 1.419 . S
C766 C767 1.362 . S
C767 H757 0.930 . S
C767 C760 1.409 . S
C767 C766 1.362 . S
H768 C774 0.930 . S
H769 C777 0.930 . S
H770 C778 0.930 . S
H771 C779 0.930 . S
H772 C782 0.930 . S
H773 C783 0.930 . S
C774 H768 0.930 . S
C774 C775 1.355 . S
C774 C776 1.415 . S
C775 C774 1.355 . S
C775 C777 1.419 . S
C776 C774 1.415 . S
C776 C781 1.425 . S
C776 C783 1.409 . S
C777 H769 0.930 . S
C777 C775 1.419 . S
C777 C778 1.362 . S
C778 H770 0.930 . S
C778 C777 1.362 . S
C778 C781 1.409 . S
C779 H771 0.930 . S
C779 C780 1.355 . S
C779 C781 1.415 . S
C780 C779 1.355 . S
C780 C782 1.419 . S
C781 C776 1.425 . S
C781 C778 1.409 . S
C781 C779 1.415 . S
C782 H772 0.930 . S
C782 C780 1.419 . S
C782 C783 1.362 . S
C783 H773 0.930 . S
C783 C776 1.409 . S
C783 C782 1.362 . S
C407 C255 1.594 . S
C412 C321 1.627 1_545 S
C428 C356 2.458 . S
C423 C295 2.290 . S
C444 C361 1.455 . S
C439 C175 1.441 . S
C460 C381 2.128 . S
C455 C215 2.009 . S
C476 C329 1.591 . S
C471 C95 1.550 1_556 S
C487 C135 2.238 1_556 S
C492 C346 2.453 . S
C503 C15 1.522 . S
C508 C369 1.528 . S
C519 C55 1.931 . S
C524 C389 2.116 . S
C540 C339 1.861 . S
C535 C221 1.673 . S
C556 C348 0.760 1_545 S
C551 C261 0.758 . S
C572 C379 2.014 . S
C567 C301 1.884 . S
C583 C181 0.959 . S
C588 C399 1.038 . S
C599 C61 1.475 . S
C604 C328 1.856 . S
C620 C359 0.821 . S
C615 C101 0.879 1_565 S
C636 C368 2.019 . S
C631 C141 1.616 . S
C647 C21 1.021 . S
C652 C388 1.048 . S
C663 C202 2.296 1_556 S
C668 C326 2.437 . S
C679 C242 2.008 . S
C684 C349 2.148 . S
C700 C366 2.664 . S
C695 C282 2.506 . S
C716 C386 2.317 . S
C711 C162 2.113 . S
C727 C42 2.165 . S
C732 C336 2.433 . S
C748 C341 2.148 . S
C743 C82 1.999 . S
C764 C376 2.663 . S
C759 C122 2.371 . S
C775 C2 2.167 . S
C780 C396 2.309 . S
