# Generated by pormake.
# Topology pts, (4,4)-cn, num edge types: 1
# Building blocks:
#     Node 0, Type 0, BuildingBlock: ESEHIV_clean_sbu_0, # of connection points: 4
#     Node 1, Type 0, BuildingBlock: ESEHIV_clean_sbu_0, # of connection points: 4
#     Node 2, Type 1, BuildingBlock: QUQFOY_clean_sbu_1, # of connection points: 4
#     Node 3, Type 1, BuildingBlock: QUQFOY_clean_sbu_1, # of connection points: 4
#     Edge 4, Type (0, 1), BuildingBlock: ZUJKAS_clean_linker_0, # of connection points: 2
#     Edge 5, Type (0, 1), BuildingBlock: ZUJKAS_clean_linker_0, # of connection points: 2
#     Edge 6, Type (0, 1), BuildingBlock: ZUJKAS_clean_linker_0, # of connection points: 2
#     Edge 7, Type (0, 1), BuildingBlock: ZUJKAS_clean_linker_0, # of connection points: 2
#     Edge 8, Type (0, 1), BuildingBlock: ZUJKAS_clean_linker_0, # of connection points: 2
#     Edge 9, Type (0, 1), BuildingBlock: ZUJKAS_clean_linker_0, # of connection points: 2
#     Edge 10, Type (0, 1), BuildingBlock: ZUJKAS_clean_linker_0, # of connection points: 2
#     Edge 11, Type (0, 1), BuildingBlock: ZUJKAS_clean_linker_0, # of connection points: 2
# Relax obj value: 0.097
# Max RMSD: 0.250
# Mean RMSD: 0.177
data_MOF--net-pts--node1-ESEHIV_clean_sbu_0--node2-QUQFOY_clean_sbu_1--edge1-ZUJKAS_clean_linker_0
_symmetry_space_group_name_H-M    P1
_symmetry_Int_Tables_number       1
_symmetry_cell_setting            triclinic
loop_
_symmetry_equiv_pos_as_xyz
'x, y, z'
_cell_length_a     30.40379
_cell_length_b     33.146079
_cell_length_c     50.776882
_cell_angle_alpha  92.71515
_cell_angle_beta   92.962803
_cell_angle_gamma 89.816138
loop_
_atom_site_label
_atom_site_type_symbol
_atom_site_fract_x
_atom_site_fract_y
_atom_site_fract_z
_atom_type_partial_charge
Cu0 Cu 0.5314 0.02548 0.01091 0.0
N1 N 0.56742 0.99521 0.98869 0.0
N2 N 0.61878 0.98454 0.95921 0.0
C3 C 0.60048 1.01144 0.97616 0.0
C4 C 0.59632 0.94983 0.96123 0.0
C5 C 0.56463 0.9565 0.97947 0.0
O6 O 0.5705 0.05596 0.03598 0.0
C7 C 0.46862 0.03403 0.97217 0.0
O8 O 0.47325 0.99471 0.97326 0.0
H9 H 0.6095 0.04302 0.97859 0.0
H10 H 0.54028 0.93507 0.9848 0.0
N11 N 0.49556 0.99429 0.03077 0.0
N12 N 0.44413 0.98238 0.05931 0.0
C13 C 0.46218 1.00986 0.04436 0.0
C14 C 0.49881 0.95542 0.03722 0.0
C15 C 0.46708 0.94799 0.05488 0.0
C16 C 0.59425 0.03283 0.05018 0.0
O17 O 0.59 0.9936 0.04593 0.0
H18 H 0.45276 0.04137 0.04416 0.0
H19 H 0.5235 0.9344 0.03045 0.0
O20 O 0.49212 0.05667 0.98824 0.0
H21 H 0.6019 0.92183 0.95005 0.0
H22 H 0.46181 0.9197 0.06403 0.0
Cu23 Cu 0.06969 0.57644 0.51482 0.0
N24 N 0.10186 0.54883 0.54068 0.0
N25 N 0.11583 0.50005 0.56895 0.0
C26 C 0.0873 0.51467 0.55052 0.0
C27 C 0.14973 0.5265 0.57097 0.0
C28 C 0.14102 0.5566 0.55343 0.0
O29 O 0.0403 0.53479 0.49193 0.0
C30 C 0.05321 0.64635 0.54297 0.0
O31 O 0.09589 0.64857 0.54048 0.0
H32 H 0.05581 0.50118 0.54441 0.0
H33 H 0.16167 0.58225 0.55028 0.0
N34 N 0.10405 0.60619 0.49317 0.0
N35 N 0.11841 0.65432 0.46541 0.0
C36 C 0.08712 0.63506 0.4779 0.0
C37 C 0.14776 0.60679 0.49022 0.0
C38 C 0.15676 0.6366 0.4731 0.0
C39 C 0.06754 0.5089 0.48295 0.0
O40 O 0.10968 0.51414 0.48921 0.0
H41 H 0.05247 0.64277 0.4769 0.0
H42 H 0.17142 0.58748 0.50011 0.0
O43 O 0.03235 0.61537 0.53318 0.0
H44 H 0.17889 0.52412 0.58394 0.0
H45 H 0.18898 0.64462 0.46692 0.0
O46 O 0.96491 0.0485 0.24812 0.0
Cd47 Cd 0.0249 0.0354 0.26699 0.0
Cd48 Cd 0.03639 0.11923 0.26456 0.0
O49 O 0.97826 0.11271 0.24206 0.0
O50 O 0.02091 0.97684 0.27409 0.0
O51 O 0.03294 0.02396 0.30578 0.0
C52 C 0.02885 0.98612 0.29878 0.0
C53 C 0.03624 0.17233 0.29661 0.0
C54 C 0.95354 0.08192 0.23845 0.0
C55 C 0.10402 0.06638 0.23955 0.0
O56 O 0.09398 0.10234 0.24685 0.0
O57 O 0.07993 0.03696 0.24499 0.0
O58 O 0.04005 0.17872 0.272 0.0
O59 O 0.0342 0.13528 0.30334 0.0
O60 O 0.96816 0.10493 0.77832 0.0
Cd61 Cd 0.02684 0.12003 0.76222 0.0
Cd62 Cd 0.03794 0.03543 0.7566 0.0
O63 O 0.98133 0.0394 0.77712 0.0
O64 O 0.02323 0.17865 0.75513 0.0
O65 O 0.03234 0.13117 0.72381 0.0
C66 C 0.02927 0.1691 0.73068 0.0
C67 C 0.03607 0.98192 0.72452 0.0
C68 C 0.95732 0.06929 0.78363 0.0
C69 C 0.10807 0.08344 0.78845 0.0
O70 O 0.09675 0.04956 0.77732 0.0
O71 O 0.08389 0.11444 0.78558 0.0
O72 O 0.04097 0.9758 0.74933 0.0
O73 O 0.034 0.01888 0.71758 0.0
H74 H 0.43261 0.94455 0.10472 0.0
H75 H 0.37573 0.9589 0.13635 0.0
H76 H 0.322 0.05178 0.08746 0.0
H77 H 0.37813 0.03715 0.05555 0.0
H78 H 0.35825 0.03597 0.1637 0.0
H79 H 0.21545 0.97817 0.10032 0.0
H80 H 0.27165 0.96495 0.09378 0.0
H81 H 0.25013 0.01346 0.08536 0.0
C82 C 0.40834 0.96763 0.10052 0.0
C83 C 0.40984 0.98963 0.07756 0.0
C84 C 0.37612 0.97602 0.11872 0.0
C85 C 0.34456 1.0062 0.11413 0.0
C86 C 0.34583 0.0281 0.09123 0.0
H87 H 0.16263 0.12102 0.22213 0.0
H88 H 0.22308 0.1071 0.19284 0.0
C89 C 0.37812 0.01989 0.07311 0.0
C90 C 0.31045 0.01508 0.13339 0.0
H91 H 0.19952 0.01264 0.14061 0.0
C92 C 0.32353 0.03085 0.15873 0.0
C93 C 0.26528 1.00809 0.12682 0.0
C94 C 0.24961 0.98993 0.10018 0.0
C95 C 0.29244 0.04023 0.17763 0.0
C96 C 0.24721 0.03387 0.17089 0.0
C97 C 0.23423 0.01774 0.14564 0.0
C98 C 0.2127 0.04246 0.18995 0.0
C99 C 0.30815 0.05622 0.20479 0.0
C100 C 0.18688 1.01077 0.19795 0.0
C101 C 0.15242 0.01856 0.21459 0.0
C102 C 0.14277 0.05834 0.22346 0.0
C103 C 0.16921 0.09005 0.21575 0.0
C104 C 0.20387 0.08215 0.1991 0.0
H105 H 0.34413 0.05169 0.20849 0.0
H106 H 0.3012 0.08908 0.2067 0.0
H107 H 0.29043 0.04126 0.22023 0.0
H108 H 0.19313 0.97994 0.19106 0.0
H109 H 0.13285 0.99335 0.2201 0.0
H110 H 0.15181 0.48396 0.61752 0.0
H111 H 0.1383 0.42449 0.64282 0.0
H112 H 0.05312 0.37529 0.57882 0.0
H113 H 0.06685 0.43409 0.55332 0.0
H114 H 0.01557 0.37606 0.62823 0.0
H115 H 0.18235 0.30712 0.63191 0.0
H116 H 0.18082 0.35967 0.64233 0.0
H117 H 0.16581 0.34454 0.60863 0.0
C118 C 0.13079 0.46021 0.60864 0.0
C119 C 0.1102 0.46407 0.58342 0.0
C120 C 0.1231 0.42621 0.62314 0.0
C121 C 0.09491 0.39533 0.61262 0.0
C122 C 0.07491 0.39879 0.58733 0.0
H123 H 0.05414 0.16038 0.67949 0.0
H124 H 0.0683 0.21424 0.64947 0.0
C125 C 0.08262 0.43263 0.57285 0.0
C126 C 0.08437 0.36037 0.62841 0.0
H127 H 0.12985 0.27957 0.65919 0.0
C128 C 0.04053 0.35486 0.6349 0.0
C129 C 0.11685 0.33245 0.63681 0.0
C130 C 0.16406 0.33587 0.62941 0.0
C131 C 0.02847 0.32275 0.65011 0.0
C132 C 0.06119 0.29565 0.65928 0.0
C133 C 0.10486 0.30053 0.65225 0.0
C134 C 0.05097 0.26289 0.67694 0.0
C135 C 0.98074 0.31796 0.65613 0.0
C136 C 0.03655 0.27241 0.70228 0.0
C137 C 0.0285 0.24184 0.71942 0.0
C138 C 0.03477 0.20102 0.71161 0.0
C139 C 0.04873 0.19148 0.68606 0.0
C140 C 0.05701 0.2222 0.66893 0.0
H141 H 0.95852 0.33439 0.64224 0.0
H142 H 0.97115 0.2856 0.65516 0.0
H143 H 0.97572 0.33048 0.67641 0.0
H144 H 0.03231 0.30362 0.709 0.0
H145 H 0.01799 0.25029 0.73898 0.0
H146 H 0.63518 0.98975 0.08812 0.0
H147 H 0.69365 1.01133 0.12 0.0
H148 H 0.68694 0.13176 0.09148 0.0
H149 H 0.62741 0.11022 0.05902 0.0
H150 H 0.77648 0.04817 0.10193 0.0
H151 H 0.68771 0.14126 0.17669 0.0
H152 H 0.65953 0.10244 0.15615 0.0
H153 H 0.67635 0.14797 0.14193 0.0
C154 C 0.6457 0.02098 0.08861 0.0
C155 C 0.62688 0.04822 0.07084 0.0
C156 C 0.67911 0.03324 0.10695 0.0
C157 C 0.69454 0.07303 0.10806 0.0
C158 C 0.67513 0.10093 0.09098 0.0
H159 H 0.91763 0.149 0.21615 0.0
H160 H 0.85463 0.15176 0.18424 0.0
C161 C 0.64127 0.08861 0.07248 0.0
C162 C 0.73304 0.08347 0.12603 0.0
H163 H 0.76182 0.12476 0.18738 0.0
C164 C 0.77353 0.06551 0.12042 0.0
C165 C 0.72894 0.10612 0.15005 0.0
C166 C 0.68588 0.12565 0.15682 0.0
C167 C 0.80963 0.06814 0.13871 0.0
C168 C 0.80485 0.08875 0.1634 0.0
C169 C 0.76511 0.10864 0.1685 0.0
C170 C 0.84027 0.08797 0.18449 0.0
C171 C 0.85236 0.04806 0.1317 0.0
C172 C 0.85215 0.05135 0.1957 0.0
C173 C 0.88801 0.04959 0.21396 0.0
C174 C 0.91271 0.08449 0.22132 0.0
C175 C 0.89951 0.12149 0.21081 0.0
C176 C 0.86349 0.1232 0.19261 0.0
H177 H 0.85414 0.0425 0.11003 0.0
H178 H 0.88102 0.0668 0.13912 0.0
H179 H 0.85498 0.0185 0.14106 0.0
H180 H 0.83419 0.02391 0.18987 0.0
H181 H 0.89708 0.02067 0.22171 0.0
H182 H 1.00041 0.64293 0.58484 0.0
H183 H 0.98296 0.70013 0.61535 0.0
H184 H 0.04271 0.78213 0.5643 0.0
H185 H 0.06096 0.72531 0.53434 0.0
H186 H 0.06117 0.75104 0.63629 0.0
H187 H 0.92577 0.84005 0.58939 0.0
H188 H 0.9322 0.78633 0.58265 0.0
H189 H 0.96773 0.82132 0.56822 0.0
C190 C 0.00816 0.67337 0.57973 0.0
C191 C 0.03168 0.67997 0.55726 0.0
C192 C 0.99846 0.70592 0.59717 0.0
C193 C 0.01129 0.74534 0.59193 0.0
C194 C 0.03195 0.75207 0.5685 0.0
H195 H 0.04134 0.98175 0.67063 0.0
H196 H 0.0336 0.92347 0.63904 0.0
C197 C 0.04236 0.71963 0.55143 0.0
C198 C 0.00988 0.7785 0.61248 0.0
H199 H 0.96673 0.87209 0.62561 0.0
C200 C 0.04005 0.77728 0.63425 0.0
C201 C 0.98303 0.81295 0.60932 0.0
C202 C 0.95007 0.81541 0.58624 0.0
C203 C 0.04514 0.81016 0.6526 0.0
C204 C 0.01815 0.84476 0.64959 0.0
C205 C 0.98739 0.84564 0.62797 0.0
C206 C 0.0217 0.88033 0.66859 0.0
C207 C 0.08087 0.80809 0.6743 0.0
C208 C 0.01692 0.87565 0.69562 0.0
C209 C 0.02216 0.90862 0.71366 0.0
C210 C 0.03126 0.94729 0.70504 0.0
C211 C 0.03464 0.9523 0.67789 0.0
C212 C 0.03005 0.91905 0.65983 0.0
H213 H 0.10677 0.78582 0.66907 0.0
H214 H 0.09673 0.83796 0.67862 0.0
H215 H 0.06625 0.79836 0.69254 0.0
H216 H 0.00913 0.84642 0.70282 0.0
H217 H 0.01855 0.90382 0.73439 0.0
H218 H 0.42771 0.99234 0.93096 0.0
H219 H 0.36878 0.01486 0.90101 0.0
H220 H 0.37498 0.13396 0.93897 0.0
H221 H 0.43491 0.11146 0.96953 0.0
H222 H 0.28533 0.05329 0.92379 0.0
H223 H 0.37375 0.14312 0.85293 0.0
H224 H 0.40144 0.10282 0.86991 0.0
H225 H 0.38745 0.14839 0.88796 0.0
C226 C 0.41698 0.02348 0.93297 0.0
C227 C 0.43576 0.05005 0.95283 0.0
C228 C 0.38332 0.03628 0.91573 0.0
C229 C 0.36762 0.07595 0.91782 0.0
C230 C 0.38698 0.10322 0.93702 0.0
H231 H 0.144 0.15122 0.81408 0.0
H232 H 0.20686 0.15479 0.8463 0.0
C233 C 0.42108 0.09036 0.95442 0.0
C234 C 0.32884 0.08685 0.90088 0.0
H235 H 0.29953 0.1263 0.84157 0.0
C236 C 0.28815 0.06994 0.90606 0.0
C237 C 0.33282 0.10853 0.87784 0.0
C238 C 0.37612 0.12689 0.8716 0.0
C239 C 0.2517 0.0726 0.88819 0.0
C240 C 0.25632 0.09213 0.86434 0.0
C241 C 0.29631 0.11105 0.8598 0.0
C242 C 0.22065 0.09077 0.84336 0.0
C243 C 0.20879 0.05353 0.89462 0.0
C244 C 0.20844 0.05373 0.83058 0.0
C245 C 0.1727 0.05152 0.81215 0.0
C246 C 0.14842 0.08638 0.80615 0.0
C247 C 0.1618 0.12374 0.81833 0.0
C248 C 0.19774 0.12591 0.83671 0.0
H249 H 0.20732 0.04901 0.9161 0.0
H250 H 0.18033 0.0724 0.88818 0.0
H251 H 0.20554 0.02355 0.88402 0.0
H252 H 0.22615 0.02635 0.83525 0.0
H253 H 0.1635 0.02231 0.8031 0.0
H254 H 0.11391 0.44007 0.4756 0.0
H255 H 0.09787 0.38381 0.44413 0.0
H256 H 0.97496 0.43954 0.41994 0.0
H257 H 0.99074 0.49662 0.45201 0.0
H258 H 0.9744 0.34934 0.42554 0.0
H259 H 0.10525 0.40313 0.36362 0.0
H260 H 0.12268 0.39868 0.3977 0.0
H261 H 0.08105 0.43496 0.38886 0.0
C262 C 0.08322 0.44041 0.46378 0.0
C263 C 0.05388 0.47314 0.46597 0.0
C264 C 0.07412 0.40813 0.44582 0.0
C265 C 0.03569 0.4079 0.42941 0.0
C266 C 0.00496 0.43937 0.43239 0.0
H267 H 0.02693 0.25195 0.28657 0.0
H268 H 0.02068 0.30909 0.31819 0.0
C269 C 0.01397 0.47187 0.45066 0.0
C270 C 0.02988 0.37583 0.40818 0.0
H271 H 0.08006 0.3358 0.35435 0.0
C272 C 0.99703 0.34653 0.40973 0.0
C273 C 0.05919 0.37255 0.38745 0.0
C274 C 0.0938 0.40419 0.38407 0.0
C275 C 0.99383 0.31311 0.39155 0.0
C276 C 0.02483 0.30866 0.37171 0.0
C277 C 0.05657 0.33887 0.36969 0.0
C278 C 0.02539 0.27312 0.35271 0.0
C279 C 0.95722 0.28305 0.39373 0.0
C280 C 0.03035 0.23371 0.36152 0.0
C281 C 0.03371 0.20076 0.34338 0.0
C282 C 0.03285 0.20674 0.31613 0.0
C283 C 0.02798 0.24624 0.30742 0.0
C284 C 0.02423 0.27899 0.32549 0.0
H285 H 0.92924 0.29675 0.40422 0.0
H286 H 0.94482 0.27104 0.37395 0.0
H287 H 0.96986 0.25738 0.40518 0.0
H288 H 0.03256 0.22847 0.38243 0.0
H289 H 0.03755 0.17072 0.35071 0.0
H290 H 0.63047 0.94786 0.91113 0.0
H291 H 0.68688 0.96351 0.8804 0.0
H292 H 0.7397 0.05586 0.93569 0.0
H293 H 0.68404 0.03993 0.96669 0.0
H294 H 0.70319 0.04152 0.8585 0.0
H295 H 0.84699 0.98337 0.91744 0.0
H296 H 0.79099 0.96949 0.92312 0.0
H297 H 0.81192 0.01802 0.93487 0.0
C298 C 0.65444 0.97111 0.9169 0.0
C299 C 0.65282 0.99257 0.9414 0.0
C300 C 0.68638 0.98025 0.89923 0.0
C301 C 0.71754 1.01067 0.90586 0.0
C302 C 0.71616 0.03204 0.93031 0.0
H303 H 0.90008 0.1252 0.80466 0.0
H304 H 0.83957 0.11237 0.83332 0.0
C305 C 0.68414 0.02308 0.94791 0.0
C306 C 0.7514 0.02024 0.88717 0.0
H307 H 0.86217 0.01784 0.87922 0.0
C308 C 0.73797 0.03638 0.86297 0.0
C309 C 0.79665 0.01326 0.89308 0.0
C310 C 0.81268 0.99479 0.91843 0.0
C311 C 0.76878 0.04599 0.84454 0.0
C312 C 0.81405 0.03942 0.8506 0.0
C313 C 0.8274 0.0231 0.87475 0.0
C314 C 0.84819 0.04749 0.83175 0.0
C315 C 0.75277 0.06232 0.81853 0.0
C316 C 0.87286 0.01529 0.82137 0.0
C317 C 0.90726 0.02245 0.80507 0.0
C318 C 0.91805 0.06209 0.79894 0.0
C319 C 0.89259 0.09433 0.80891 0.0
C320 C 0.85795 0.08706 0.82523 0.0
H321 H 0.71659 0.05879 0.81495 0.0
H322 H 0.76078 0.09495 0.8185 0.0
H323 H 0.76954 0.04677 0.80198 0.0
H324 H 0.86584 0.98455 0.8262 0.0
H325 H 0.92602 0.99683 0.79775 0.0
H326 H 0.04431 0.67219 0.43624 0.0
H327 H 0.03134 0.73088 0.40966 0.0
H328 H 0.16379 0.77209 0.42953 0.0
H329 H 0.177 0.71342 0.45646 0.0
H330 H 0.03641 0.81303 0.42604 0.0
H331 H 0.15379 0.77373 0.34842 0.0
H332 H 0.13599 0.7375 0.37108 0.0
H333 H 0.17678 0.77466 0.38177 0.0
C334 C 0.07071 0.69374 0.43511 0.0
C335 C 0.11172 0.68802 0.4486 0.0
C336 C 0.06325 0.72726 0.41981 0.0
C337 C 0.09664 0.75574 0.41747 0.0
C338 C 0.13775 0.75014 0.43072 0.0
H339 H 0.05342 0.99422 0.35164 0.0
H340 H 0.07006 0.93993 0.38185 0.0
C341 C 0.14528 0.71652 0.44607 0.0
C342 C 0.08787 0.79146 0.4014 0.0
H343 H 0.11737 0.83655 0.34584 0.0
C344 C 0.05421 0.81832 0.40856 0.0
C345 C 0.11088 0.79805 0.37848 0.0
C346 C 0.14615 0.76936 0.36925 0.0
C347 C 0.04277 0.85148 0.39334 0.0
C348 C 0.06598 0.8582 0.37052 0.0
C349 C 0.09981 0.83148 0.36345 0.0
C350 C 0.05426 0.89148 0.35285 0.0
C351 C 0.00508 0.87831 0.40133 0.0
C352 C 0.04006 0.88231 0.32654 0.0
C353 C 0.03066 0.91314 0.30929 0.0
C354 C 0.03546 0.95393 0.31792 0.0
C355 C 0.04909 0.96315 0.34442 0.0
C356 C 0.05852 0.93216 0.36172 0.0
H357 H 0.9847 0.86411 0.41589 0.0
H358 H 0.01842 0.90708 0.41048 0.0
H359 H 0.98358 0.88557 0.38384 0.0
H360 H 0.03653 0.85116 0.31928 0.0
H361 H 0.02031 0.9049 0.28903 0.0
loop_
_geom_bond_atom_site_label_1
_geom_bond_atom_site_label_2
_geom_bond_distance
_geom_bond_site_symmetry_2
_ccdc_geom_bond_type
Cu0 N1 1.999 1_554 S
Cu0 O6 1.974 . S
Cu0 N11 1.985 . S
Cu0 O20 1.959 1_554 S
N1 Cu0 1.999 1_556 S
N1 C3 1.263 . S
N1 C5 1.389 . S
N2 C3 1.358 . S
N2 C4 1.400 . S
C3 N1 1.263 . S
C3 N2 1.358 . S
C3 H9 0.930 . S
C4 N2 1.400 . S
C4 C5 1.351 . S
C4 H21 0.930 . S
C5 N1 1.389 . S
C5 C4 1.351 . S
C5 H10 0.930 . S
O6 Cu0 1.974 . S
O6 C16 1.282 . S
C7 O8 1.261 . S
C7 O20 1.251 . S
O8 C7 1.261 . S
H9 C3 0.930 . S
H10 C5 0.930 . S
N11 Cu0 1.985 . S
N11 C13 1.335 . S
N11 C14 1.390 . S
N12 C13 1.345 . S
N12 C15 1.336 . S
C13 N11 1.335 . S
C13 N12 1.345 . S
C13 H18 0.930 . S
C14 N11 1.390 . S
C14 C15 1.346 . S
C14 H19 0.930 . S
C15 N12 1.336 . S
C15 C14 1.346 . S
C15 H22 0.929 . S
C16 O6 1.282 . S
C16 O17 1.216 . S
O17 C16 1.216 . S
H18 C13 0.930 . S
H19 C14 0.930 . S
O20 Cu0 1.959 1_556 S
O20 C7 1.251 . S
H21 C4 0.930 . S
H22 C15 0.929 . S
Cu23 N24 1.999 . S
Cu23 O29 1.974 . S
Cu23 N34 1.985 . S
Cu23 O43 1.959 . S
N24 Cu23 1.999 . S
N24 C26 1.263 . S
N24 C28 1.389 1_455 S
N25 C26 1.358 . S
N25 C27 1.400 1_455 S
C26 N24 1.263 . S
C26 N25 1.358 . S
C26 H32 0.930 . S
C27 N25 1.400 1_655 S
C27 C28 1.351 . S
C27 H44 0.930 . S
C28 N24 1.389 1_655 S
C28 C27 1.351 . S
C28 H33 0.930 . S
O29 Cu23 1.974 . S
O29 C39 1.282 . S
C30 O31 1.261 . S
C30 O43 1.251 . S
O31 C30 1.261 . S
H32 C26 0.930 . S
H33 C28 0.930 . S
N34 Cu23 1.985 . S
N34 C36 1.335 . S
N34 C37 1.390 . S
N35 C36 1.345 . S
N35 C38 1.336 . S
C36 N34 1.335 . S
C36 N35 1.345 . S
C36 H41 0.930 . S
C37 N34 1.390 . S
C37 C38 1.346 . S
C37 H42 0.930 . S
C38 N35 1.336 . S
C38 C37 1.346 . S
C38 H45 0.929 . S
C39 O29 1.282 . S
C39 O40 1.216 . S
O40 C39 1.216 . S
H41 C36 0.930 . S
H42 C37 0.930 . S
O43 Cu23 1.959 . S
O43 C30 1.251 . S
H44 C27 0.930 . S
H45 C38 0.929 . S
O46 Cd47 2.223 . S
O46 C54 1.315 1_455 S
Cd47 O46 2.223 . S
Cd47 O50 2.297 1_545 S
Cd47 O51 2.439 . S
Cd47 O57 2.240 . S
Cd48 O49 2.240 1_455 S
Cd48 O56 2.223 . S
Cd48 O58 2.297 . S
Cd48 O59 2.439 . S
O49 Cd48 2.240 1_655 S
O49 C54 1.279 . S
O50 Cd47 2.297 1_565 S
O50 C52 1.247 . S
O51 Cd47 2.439 . S
O51 C52 1.208 1_545 S
C52 O50 1.247 . S
C52 O51 1.208 1_565 S
C53 O58 1.247 . S
C53 O59 1.208 . S
C54 O46 1.315 1_655 S
C54 O49 1.279 . S
C55 O56 1.315 . S
C55 O57 1.279 . S
O56 Cd48 2.223 . S
O56 C55 1.315 . S
O57 Cd47 2.240 . S
O57 C55 1.279 . S
O58 Cd48 2.297 . S
O58 C53 1.247 . S
O59 Cd48 2.439 . S
O59 C53 1.208 . S
O60 Cd61 2.223 . S
O60 C68 1.315 . S
Cd61 O60 2.223 . S
Cd61 O64 2.297 . S
Cd61 O65 2.439 . S
Cd61 O71 2.240 . S
Cd62 O63 2.240 1_565 S
Cd62 O70 2.223 . S
Cd62 O72 2.297 . S
Cd62 O73 2.439 . S
O63 Cd62 2.240 1_545 S
O63 C68 1.279 . S
O64 Cd61 2.297 . S
O64 C66 1.247 . S
O65 Cd61 2.439 . S
O65 C66 1.208 . S
C66 O64 1.247 . S
C66 O65 1.208 . S
C67 O72 1.247 . S
C67 O73 1.208 . S
C68 O60 1.315 . S
C68 O63 1.279 . S
C69 O70 1.315 1_545 S
C69 O71 1.279 . S
O70 Cd62 2.223 . S
O70 C69 1.315 1_565 S
O71 Cd61 2.240 . S
O71 C69 1.279 . S
O72 Cd62 2.297 . S
O72 C67 1.247 . S
O73 Cd62 2.439 . S
O73 C67 1.208 . S
H74 C82 0.929 . S
H75 C84 0.930 . S
H76 C86 0.930 . S
H77 C89 0.929 . S
H78 C92 0.930 . S
H79 C94 0.960 . S
H80 C94 0.960 . S
H81 C94 0.960 . S
C82 H74 0.929 . S
C82 C83 1.377 . S
C82 C84 1.384 . S
C83 C82 1.377 . S
C83 C89 1.390 . S
C84 H75 0.930 . S
C84 C82 1.384 . S
C84 C85 1.372 . S
C85 C84 1.372 . S
C85 C86 1.400 . S
C85 C90 1.490 . S
C86 H76 0.930 . S
C86 C85 1.400 . S
C86 C89 1.386 . S
H87 C103 0.930 . S
H88 C104 0.931 . S
C89 H77 0.929 . S
C89 C83 1.390 . S
C89 C86 1.386 . S
C90 C85 1.490 . S
C90 C92 1.395 . S
C90 C93 1.403 . S
H91 C97 0.930 . S
C92 H78 0.930 . S
C92 C90 1.395 . S
C92 C95 1.403 . S
C93 C90 1.403 . S
C93 C94 1.524 . S
C93 C97 1.400 . S
C94 H79 0.960 . S
C94 H80 0.960 . S
C94 H81 0.960 . S
C94 C93 1.524 . S
C95 C92 1.403 . S
C95 C96 1.392 . S
C95 C99 1.495 . S
C96 C95 1.392 . S
C96 C97 1.385 . S
C96 C98 1.478 . S
C97 H91 0.930 . S
C97 C93 1.400 . S
C97 C96 1.385 . S
C98 C96 1.478 . S
C98 C100 1.381 . S
C98 C104 1.383 . S
C99 C95 1.495 . S
C99 H105 0.959 . S
C99 H106 0.961 . S
C99 H107 0.960 . S
C100 C98 1.381 . S
C100 C101 1.394 . S
C100 H108 0.930 . S
C101 C100 1.394 . S
C101 C102 1.383 . S
C101 H109 0.929 . S
C102 C101 1.383 . S
C102 C103 1.377 . S
C103 H87 0.930 . S
C103 C102 1.377 . S
C103 C104 1.379 . S
C104 H88 0.931 . S
C104 C98 1.383 . S
C104 C103 1.379 . S
H105 C99 0.959 . S
H106 C99 0.961 . S
H107 C99 0.960 . S
H108 C100 0.930 . S
H109 C101 0.929 . S
H110 C118 0.929 . S
H111 C120 0.930 . S
H112 C122 0.930 . S
H113 C125 0.929 . S
H114 C128 0.930 . S
H115 C130 0.960 . S
H116 C130 0.960 . S
H117 C130 0.960 . S
C118 H110 0.929 . S
C118 C119 1.377 1_655 S
C118 C120 1.384 . S
C119 C118 1.377 1_455 S
C119 C125 1.390 . S
C120 H111 0.930 . S
C120 C118 1.384 . S
C120 C121 1.372 1_655 S
C121 C120 1.372 1_455 S
C121 C122 1.400 . S
C121 C126 1.490 . S
C122 H112 0.930 . S
C122 C121 1.400 . S
C122 C125 1.386 . S
H123 C139 0.930 . S
H124 C140 0.931 . S
C125 H113 0.929 . S
C125 C119 1.390 . S
C125 C122 1.386 . S
C126 C121 1.490 . S
C126 C128 1.395 1_455 S
C126 C129 1.403 . S
H127 C133 0.930 . S
C128 H114 0.930 . S
C128 C126 1.395 1_655 S
C128 C131 1.403 . S
C129 C126 1.403 . S
C129 C130 1.524 . S
C129 C133 1.400 . S
C130 H115 0.960 . S
C130 H116 0.960 . S
C130 H117 0.960 . S
C130 C129 1.524 . S
C131 C128 1.403 . S
C131 C132 1.392 1_655 S
C131 C135 1.495 . S
C132 C131 1.392 1_455 S
C132 C133 1.385 . S
C132 C134 1.478 . S
C133 H127 0.930 . S
C133 C129 1.400 . S
C133 C132 1.385 . S
C134 C132 1.478 . S
C134 C136 1.381 1_455 S
C134 C140 1.383 . S
C135 C131 1.495 . S
C135 H141 0.959 . S
C135 H142 0.961 . S
C135 H143 0.960 . S
C136 C134 1.381 1_655 S
C136 C137 1.394 . S
C136 H144 0.930 . S
C137 C136 1.394 . S
C137 C138 1.383 1_655 S
C137 H145 0.929 . S
C138 C137 1.383 1_455 S
C138 C139 1.377 . S
C139 H123 0.930 . S
C139 C138 1.377 . S
C139 C140 1.379 . S
C140 H124 0.931 . S
C140 C134 1.383 . S
C140 C139 1.379 . S
H141 C135 0.959 . S
H142 C135 0.961 . S
H143 C135 0.960 . S
H144 C136 0.930 . S
H145 C137 0.929 . S
H146 C154 0.929 . S
H147 C156 0.930 . S
H148 C158 0.930 . S
H149 C161 0.929 . S
H150 C164 0.930 1_565 S
H151 C166 0.960 . S
H152 C166 0.960 . S
H153 C166 0.960 . S
C154 H146 0.929 . S
C154 C155 1.377 . S
C154 C156 1.384 . S
C155 C154 1.377 . S
C155 C161 1.390 . S
C156 H147 0.930 . S
C156 C154 1.384 . S
C156 C157 1.372 . S
C157 C156 1.372 . S
C157 C158 1.400 . S
C157 C162 1.490 . S
C158 H148 0.930 . S
C158 C157 1.400 . S
C158 C161 1.386 . S
H159 C175 0.930 . S
H160 C176 0.931 . S
C161 H149 0.929 . S
C161 C155 1.390 . S
C161 C158 1.386 . S
C162 C157 1.490 . S
C162 C164 1.395 . S
C162 C165 1.403 . S
H163 C169 0.930 . S
C164 H150 0.930 1_545 S
C164 C162 1.395 . S
C164 C167 1.403 1_545 S
C165 C162 1.403 . S
C165 C166 1.524 . S
C165 C169 1.400 . S
C166 H151 0.960 . S
C166 H152 0.960 . S
C166 H153 0.960 . S
C166 C165 1.524 . S
C167 C164 1.403 1_565 S
C167 C168 1.392 1_565 S
C167 C171 1.495 . S
C168 C167 1.392 1_545 S
C168 C169 1.385 . S
C168 C170 1.478 . S
C169 H163 0.930 . S
C169 C165 1.400 . S
C169 C168 1.385 . S
C170 C168 1.478 . S
C170 C172 1.381 . S
C170 C176 1.383 . S
C171 C167 1.495 . S
C171 H177 0.959 . S
C171 H178 0.961 . S
C171 H179 0.960 . S
C172 C170 1.381 . S
C172 C173 1.394 . S
C172 H180 0.930 1_545 S
C173 C172 1.394 . S
C173 C174 1.383 . S
C173 H181 0.929 1_545 S
C174 C173 1.383 . S
C174 C175 1.377 . S
C175 H159 0.930 . S
C175 C174 1.377 . S
C175 C176 1.379 . S
C176 H160 0.931 . S
C176 C170 1.383 . S
C176 C175 1.379 . S
H177 C171 0.959 . S
H178 C171 0.961 . S
H179 C171 0.960 . S
H180 C172 0.930 1_565 S
H181 C173 0.929 1_565 S
H182 C190 0.929 . S
H183 C192 0.930 . S
H184 C194 0.930 . S
H185 C197 0.929 . S
H186 C200 0.930 . S
H187 C202 0.960 . S
H188 C202 0.960 . S
H189 C202 0.960 . S
C190 H182 0.929 . S
C190 C191 1.377 . S
C190 C192 1.384 . S
C191 C190 1.377 . S
C191 C197 1.390 . S
C192 H183 0.930 . S
C192 C190 1.384 . S
C192 C193 1.372 . S
C193 C192 1.372 . S
C193 C194 1.400 . S
C193 C198 1.490 . S
C194 H184 0.930 . S
C194 C193 1.400 . S
C194 C197 1.386 . S
H195 C211 0.930 . S
H196 C212 0.931 . S
C197 H185 0.929 . S
C197 C191 1.390 . S
C197 C194 1.386 . S
C198 C193 1.490 . S
C198 C200 1.395 . S
C198 C201 1.403 . S
H199 C205 0.930 . S
C200 H186 0.930 . S
C200 C198 1.395 . S
C200 C203 1.403 . S
C201 C198 1.403 . S
C201 C202 1.524 . S
C201 C205 1.400 . S
C202 H187 0.960 . S
C202 H188 0.960 . S
C202 H189 0.960 . S
C202 C201 1.524 . S
C203 C200 1.403 . S
C203 C204 1.392 . S
C203 C207 1.495 . S
C204 C203 1.392 . S
C204 C205 1.385 . S
C204 C206 1.478 . S
C205 H199 0.930 . S
C205 C201 1.400 . S
C205 C204 1.385 . S
C206 C204 1.478 . S
C206 C208 1.381 . S
C206 C212 1.383 . S
C207 C203 1.495 . S
C207 H213 0.959 . S
C207 H214 0.961 . S
C207 H215 0.960 . S
C208 C206 1.381 . S
C208 C209 1.394 . S
C208 H216 0.930 . S
C209 C208 1.394 . S
C209 C210 1.383 . S
C209 H217 0.929 . S
C210 C209 1.383 . S
C210 C211 1.377 . S
C211 H195 0.930 . S
C211 C210 1.377 . S
C211 C212 1.379 . S
C212 H196 0.931 . S
C212 C206 1.383 . S
C212 C211 1.379 . S
H213 C207 0.959 . S
H214 C207 0.961 . S
H215 C207 0.960 . S
H216 C208 0.930 . S
H217 C209 0.929 . S
H218 C226 0.929 1_565 S
H219 C228 0.930 1_565 S
H220 C230 0.930 . S
H221 C233 0.929 . S
H222 C236 0.930 . S
H223 C238 0.960 . S
H224 C238 0.960 . S
H225 C238 0.960 . S
C226 H218 0.929 1_545 S
C226 C227 1.377 . S
C226 C228 1.384 . S
C227 C226 1.377 . S
C227 C233 1.390 . S
C228 H219 0.930 1_545 S
C228 C226 1.384 . S
C228 C229 1.372 . S
C229 C228 1.372 . S
C229 C230 1.400 . S
C229 C234 1.490 . S
C230 H220 0.930 . S
C230 C229 1.400 . S
C230 C233 1.386 . S
H231 C247 0.930 . S
H232 C248 0.931 . S
C233 H221 0.929 . S
C233 C227 1.390 . S
C233 C230 1.386 . S
C234 C229 1.490 . S
C234 C236 1.395 1_545 S
C234 C237 1.403 . S
H235 C241 0.930 . S
C236 H222 0.930 . S
C236 C234 1.395 1_565 S
C236 C239 1.403 . S
C237 C234 1.403 . S
C237 C238 1.524 . S
C237 C241 1.400 . S
C238 H223 0.960 . S
C238 H224 0.960 . S
C238 H225 0.960 . S
C238 C237 1.524 . S
C239 C236 1.403 . S
C239 C240 1.392 1_565 S
C239 C243 1.495 . S
C240 C239 1.392 1_545 S
C240 C241 1.385 . S
C240 C242 1.478 . S
C241 H235 0.930 . S
C241 C237 1.400 . S
C241 C240 1.385 . S
C242 C240 1.478 . S
C242 C244 1.381 1_545 S
C242 C248 1.383 . S
C243 C239 1.495 . S
C243 H249 0.959 . S
C243 H250 0.961 . S
C243 H251 0.960 . S
C244 C242 1.381 1_565 S
C244 C245 1.394 . S
C244 H252 0.930 . S
C245 C244 1.394 . S
C245 C246 1.383 1_565 S
C245 H253 0.929 . S
C246 C245 1.383 1_545 S
C246 C247 1.377 . S
C247 H231 0.930 . S
C247 C246 1.377 . S
C247 C248 1.379 . S
C248 H232 0.931 . S
C248 C242 1.383 . S
C248 C247 1.379 . S
H249 C243 0.959 . S
H250 C243 0.961 . S
H251 C243 0.960 . S
H252 C244 0.930 . S
H253 C245 0.929 . S
H254 C262 0.929 . S
H255 C264 0.930 . S
H256 C266 0.930 . S
H257 C269 0.929 . S
H258 C272 0.930 . S
H259 C274 0.960 . S
H260 C274 0.960 . S
H261 C274 0.960 . S
C262 H254 0.929 . S
C262 C263 1.377 . S
C262 C264 1.384 . S
C263 C262 1.377 . S
C263 C269 1.390 . S
C264 H255 0.930 . S
C264 C262 1.384 . S
C264 C265 1.372 . S
C265 C264 1.372 . S
C265 C266 1.400 . S
C265 C270 1.490 . S
C266 H256 0.930 . S
C266 C265 1.400 . S
C266 C269 1.386 . S
H267 C283 0.930 . S
H268 C284 0.931 . S
C269 H257 0.929 . S
C269 C263 1.390 . S
C269 C266 1.386 . S
C270 C265 1.490 . S
C270 C272 1.395 . S
C270 C273 1.403 . S
H271 C277 0.930 . S
C272 H258 0.930 . S
C272 C270 1.395 . S
C272 C275 1.403 . S
C273 C270 1.403 . S
C273 C274 1.524 . S
C273 C277 1.400 . S
C274 H259 0.960 . S
C274 H260 0.960 . S
C274 H261 0.960 . S
C274 C273 1.524 . S
C275 C272 1.403 . S
C275 C276 1.392 . S
C275 C279 1.495 . S
C276 C275 1.392 . S
C276 C277 1.385 . S
C276 C278 1.478 . S
C277 H271 0.930 . S
C277 C273 1.400 . S
C277 C276 1.385 . S
C278 C276 1.478 . S
C278 C280 1.381 . S
C278 C284 1.383 . S
C279 C275 1.495 . S
C279 H285 0.959 . S
C279 H286 0.961 . S
C279 H287 0.960 . S
C280 C278 1.381 . S
C280 C281 1.394 . S
C280 H288 0.930 . S
C281 C280 1.394 . S
C281 C282 1.383 . S
C281 H289 0.929 . S
C282 C281 1.383 . S
C282 C283 1.377 . S
C283 H267 0.930 . S
C283 C282 1.377 . S
C283 C284 1.379 . S
C284 H268 0.931 . S
C284 C278 1.383 . S
C284 C283 1.379 . S
H285 C279 0.959 . S
H286 C279 0.961 . S
H287 C279 0.960 . S
H288 C280 0.930 . S
H289 C281 0.929 . S
H290 C298 0.929 . S
H291 C300 0.930 . S
H292 C302 0.930 . S
H293 C305 0.929 . S
H294 C308 0.930 . S
H295 C310 0.960 . S
H296 C310 0.960 . S
H297 C310 0.960 . S
C298 H290 0.929 . S
C298 C299 1.377 . S
C298 C300 1.384 . S
C299 C298 1.377 . S
C299 C305 1.390 . S
C300 H291 0.930 . S
C300 C298 1.384 . S
C300 C301 1.372 . S
C301 C300 1.372 . S
C301 C302 1.400 . S
C301 C306 1.490 . S
C302 H292 0.930 . S
C302 C301 1.400 . S
C302 C305 1.386 . S
H303 C319 0.930 . S
H304 C320 0.931 . S
C305 H293 0.929 . S
C305 C299 1.390 . S
C305 C302 1.386 . S
C306 C301 1.490 . S
C306 C308 1.395 . S
C306 C309 1.403 . S
H307 C313 0.930 . S
C308 H294 0.930 . S
C308 C306 1.395 . S
C308 C311 1.403 . S
C309 C306 1.403 . S
C309 C310 1.524 . S
C309 C313 1.400 . S
C310 H295 0.960 . S
C310 H296 0.960 . S
C310 H297 0.960 . S
C310 C309 1.524 . S
C311 C308 1.403 . S
C311 C312 1.392 . S
C311 C315 1.495 . S
C312 C311 1.392 . S
C312 C313 1.385 . S
C312 C314 1.478 . S
C313 H307 0.930 . S
C313 C309 1.400 . S
C313 C312 1.385 . S
C314 C312 1.478 . S
C314 C316 1.381 . S
C314 C320 1.383 . S
C315 C311 1.495 . S
C315 H321 0.959 . S
C315 H322 0.961 . S
C315 H323 0.960 . S
C316 C314 1.381 . S
C316 C317 1.394 . S
C316 H324 0.930 . S
C317 C316 1.394 . S
C317 C318 1.383 . S
C317 H325 0.929 . S
C318 C317 1.383 . S
C318 C319 1.377 . S
C319 H303 0.930 . S
C319 C318 1.377 . S
C319 C320 1.379 . S
C320 H304 0.931 . S
C320 C314 1.383 . S
C320 C319 1.379 . S
H321 C315 0.959 . S
H322 C315 0.961 . S
H323 C315 0.960 . S
H324 C316 0.930 . S
H325 C317 0.929 . S
H326 C334 0.929 . S
H327 C336 0.930 . S
H328 C338 0.930 . S
H329 C341 0.929 . S
H330 C344 0.930 . S
H331 C346 0.960 . S
H332 C346 0.960 . S
H333 C346 0.960 . S
C334 H326 0.929 . S
C334 C335 1.377 1_655 S
C334 C336 1.384 . S
C335 C334 1.377 1_455 S
C335 C341 1.390 . S
C336 H327 0.930 . S
C336 C334 1.384 . S
C336 C337 1.372 1_655 S
C337 C336 1.372 1_455 S
C337 C338 1.400 . S
C337 C342 1.490 . S
C338 H328 0.930 . S
C338 C337 1.400 . S
C338 C341 1.386 . S
H339 C355 0.930 . S
H340 C356 0.931 . S
C341 H329 0.929 . S
C341 C335 1.390 . S
C341 C338 1.386 . S
C342 C337 1.490 . S
C342 C344 1.395 1_455 S
C342 C345 1.403 . S
H343 C349 0.930 . S
C344 H330 0.930 . S
C344 C342 1.395 1_655 S
C344 C347 1.403 . S
C345 C342 1.403 . S
C345 C346 1.524 . S
C345 C349 1.400 . S
C346 H331 0.960 . S
C346 H332 0.960 . S
C346 H333 0.960 . S
C346 C345 1.524 . S
C347 C344 1.403 . S
C347 C348 1.392 1_655 S
C347 C351 1.495 . S
C348 C347 1.392 1_455 S
C348 C349 1.385 . S
C348 C350 1.478 . S
C349 H343 0.930 . S
C349 C345 1.400 . S
C349 C348 1.385 . S
C350 C348 1.478 . S
C350 C352 1.381 1_455 S
C350 C356 1.383 . S
C351 C347 1.495 . S
C351 H357 0.959 . S
C351 H358 0.961 . S
C351 H359 0.960 . S
C352 C350 1.381 1_655 S
C352 C353 1.394 . S
C352 H360 0.930 . S
C353 C352 1.394 . S
C353 C354 1.383 1_655 S
C353 H361 0.929 . S
C354 C353 1.383 1_455 S
C354 C355 1.377 . S
C355 H339 0.930 . S
C355 C354 1.377 . S
C355 C356 1.379 . S
C356 H340 0.931 . S
C356 C350 1.383 . S
C356 C355 1.379 . S
H357 C351 0.959 . S
H358 C351 0.961 . S
H359 C351 0.960 . S
H360 C352 0.930 . S
H361 C353 0.929 . S
C102 C55 1.540 . S
C83 N12 1.506 . S
C138 C66 1.551 . S
C119 N25 1.543 . S
C174 C54 1.540 . S
C155 C16 1.532 . S
C210 C67 1.523 . S
C191 C30 1.592 . S
C246 C69 1.585 . S
C227 C7 1.588 . S
C282 C53 1.486 . S
C263 C39 1.526 . S
C318 C68 1.576 1_655 S
C299 N2 1.547 . S
C335 N35 1.505 . S
C354 C52 1.514 . S
